# Generated by pormake.
# Topology umk, (4)-cn, num edge types: 1
# Building blocks:
#     Node 0, Type 0, BuildingBlock: ICAMEG_clean_sbu_1, # of connection points: 4
#     Node 1, Type 0, BuildingBlock: ICAMEG_clean_sbu_1, # of connection points: 4
#     Node 2, Type 0, BuildingBlock: ICAMEG_clean_sbu_1, # of connection points: 4
#     Node 3, Type 0, BuildingBlock: ICAMEG_clean_sbu_1, # of connection points: 4
#     Node 4, Type 0, BuildingBlock: ICAMEG_clean_sbu_1, # of connection points: 4
#     Node 5, Type 0, BuildingBlock: ICAMEG_clean_sbu_1, # of connection points: 4
#     Node 6, Type 0, BuildingBlock: ICAMEG_clean_sbu_1, # of connection points: 4
#     Node 7, Type 0, BuildingBlock: ICAMEG_clean_sbu_1, # of connection points: 4
#     Node 8, Type 0, BuildingBlock: ICAMEG_clean_sbu_1, # of connection points: 4
#     Node 9, Type 0, BuildingBlock: ICAMEG_clean_sbu_1, # of connection points: 4
#     Node 10, Type 0, BuildingBlock: ICAMEG_clean_sbu_1, # of connection points: 4
#     Node 11, Type 0, BuildingBlock: ICAMEG_clean_sbu_1, # of connection points: 4
#     Node 12, Type 0, BuildingBlock: ICAMEG_clean_sbu_1, # of connection points: 4
#     Node 13, Type 0, BuildingBlock: ICAMEG_clean_sbu_1, # of connection points: 4
#     Node 14, Type 0, BuildingBlock: ICAMEG_clean_sbu_1, # of connection points: 4
#     Node 15, Type 0, BuildingBlock: ICAMEG_clean_sbu_1, # of connection points: 4
#     Node 16, Type 0, BuildingBlock: ICAMEG_clean_sbu_1, # of connection points: 4
#     Node 17, Type 0, BuildingBlock: ICAMEG_clean_sbu_1, # of connection points: 4
#     Node 18, Type 0, BuildingBlock: ICAMEG_clean_sbu_1, # of connection points: 4
#     Node 19, Type 0, BuildingBlock: ICAMEG_clean_sbu_1, # of connection points: 4
#     Node 20, Type 0, BuildingBlock: ICAMEG_clean_sbu_1, # of connection points: 4
#     Node 21, Type 0, BuildingBlock: ICAMEG_clean_sbu_1, # of connection points: 4
#     Node 22, Type 0, BuildingBlock: ICAMEG_clean_sbu_1, # of connection points: 4
#     Node 23, Type 0, BuildingBlock: ICAMEG_clean_sbu_1, # of connection points: 4
#     Edge 24, Type (0, 0), BuildingBlock: OJICUG_clean_linker_0, # of connection points: 2
#     Edge 25, Type (0, 0), BuildingBlock: OJICUG_clean_linker_0, # of connection points: 2
#     Edge 26, Type (0, 0), BuildingBlock: OJICUG_clean_linker_0, # of connection points: 2
#     Edge 27, Type (0, 0), BuildingBlock: OJICUG_clean_linker_0, # of connection points: 2
#     Edge 28, Type (0, 0), BuildingBlock: OJICUG_clean_linker_0, # of connection points: 2
#     Edge 29, Type (0, 0), BuildingBlock: OJICUG_clean_linker_0, # of connection points: 2
#     Edge 30, Type (0, 0), BuildingBlock: OJICUG_clean_linker_0, # of connection points: 2
#     Edge 31, Type (0, 0), BuildingBlock: OJICUG_clean_linker_0, # of connection points: 2
#     Edge 32, Type (0, 0), BuildingBlock: OJICUG_clean_linker_0, # of connection points: 2
#     Edge 33, Type (0, 0), BuildingBlock: OJICUG_clean_linker_0, # of connection points: 2
#     Edge 34, Type (0, 0), BuildingBlock: OJICUG_clean_linker_0, # of connection points: 2
#     Edge 35, Type (0, 0), BuildingBlock: OJICUG_clean_linker_0, # of connection points: 2
#     Edge 36, Type (0, 0), BuildingBlock: OJICUG_clean_linker_0, # of connection points: 2
#     Edge 37, Type (0, 0), BuildingBlock: OJICUG_clean_linker_0, # of connection points: 2
#     Edge 38, Type (0, 0), BuildingBlock: OJICUG_clean_linker_0, # of connection points: 2
#     Edge 39, Type (0, 0), BuildingBlock: OJICUG_clean_linker_0, # of connection points: 2
#     Edge 40, Type (0, 0), BuildingBlock: OJICUG_clean_linker_0, # of connection points: 2
#     Edge 41, Type (0, 0), BuildingBlock: OJICUG_clean_linker_0, # of connection points: 2
#     Edge 42, Type (0, 0), BuildingBlock: OJICUG_clean_linker_0, # of connection points: 2
#     Edge 43, Type (0, 0), BuildingBlock: OJICUG_clean_linker_0, # of connection points: 2
#     Edge 44, Type (0, 0), BuildingBlock: OJICUG_clean_linker_0, # of connection points: 2
#     Edge 45, Type (0, 0), BuildingBlock: OJICUG_clean_linker_0, # of connection points: 2
#     Edge 46, Type (0, 0), BuildingBlock: OJICUG_clean_linker_0, # of connection points: 2
#     Edge 47, Type (0, 0), BuildingBlock: OJICUG_clean_linker_0, # of connection points: 2
#     Edge 48, Type (0, 0), BuildingBlock: OJICUG_clean_linker_0, # of connection points: 2
#     Edge 49, Type (0, 0), BuildingBlock: OJICUG_clean_linker_0, # of connection points: 2
#     Edge 50, Type (0, 0), BuildingBlock: OJICUG_clean_linker_0, # of connection points: 2
#     Edge 51, Type (0, 0), BuildingBlock: OJICUG_clean_linker_0, # of connection points: 2
#     Edge 52, Type (0, 0), BuildingBlock: OJICUG_clean_linker_0, # of connection points: 2
#     Edge 53, Type (0, 0), BuildingBlock: OJICUG_clean_linker_0, # of connection points: 2
#     Edge 54, Type (0, 0), BuildingBlock: OJICUG_clean_linker_0, # of connection points: 2
#     Edge 55, Type (0, 0), BuildingBlock: OJICUG_clean_linker_0, # of connection points: 2
#     Edge 56, Type (0, 0), BuildingBlock: OJICUG_clean_linker_0, # of connection points: 2
#     Edge 57, Type (0, 0), BuildingBlock: OJICUG_clean_linker_0, # of connection points: 2
#     Edge 58, Type (0, 0), BuildingBlock: OJICUG_clean_linker_0, # of connection points: 2
#     Edge 59, Type (0, 0), BuildingBlock: OJICUG_clean_linker_0, # of connection points: 2
#     Edge 60, Type (0, 0), BuildingBlock: OJICUG_clean_linker_0, # of connection points: 2
#     Edge 61, Type (0, 0), BuildingBlock: OJICUG_clean_linker_0, # of connection points: 2
#     Edge 62, Type (0, 0), BuildingBlock: OJICUG_clean_linker_0, # of connection points: 2
#     Edge 63, Type (0, 0), BuildingBlock: OJICUG_clean_linker_0, # of connection points: 2
#     Edge 64, Type (0, 0), BuildingBlock: OJICUG_clean_linker_0, # of connection points: 2
#     Edge 65, Type (0, 0), BuildingBlock: OJICUG_clean_linker_0, # of connection points: 2
#     Edge 66, Type (0, 0), BuildingBlock: OJICUG_clean_linker_0, # of connection points: 2
#     Edge 67, Type (0, 0), BuildingBlock: OJICUG_clean_linker_0, # of connection points: 2
#     Edge 68, Type (0, 0), BuildingBlock: OJICUG_clean_linker_0, # of connection points: 2
#     Edge 69, Type (0, 0), BuildingBlock: OJICUG_clean_linker_0, # of connection points: 2
#     Edge 70, Type (0, 0), BuildingBlock: OJICUG_clean_linker_0, # of connection points: 2
#     Edge 71, Type (0, 0), BuildingBlock: OJICUG_clean_linker_0, # of connection points: 2
# Relax obj value: 0.070
# Max RMSD: 0.103
# Mean RMSD: 0.103
data_MOF--net-umk--node1-ICAMEG_clean_sbu_1--edge1-OJICUG_clean_linker_0
_symmetry_space_group_name_H-M    P1
_symmetry_Int_Tables_number       1
_symmetry_cell_setting            triclinic
loop_
_symmetry_equiv_pos_as_xyz
'x, y, z'
_cell_length_a     51.019626
_cell_length_b     51.000494
_cell_length_c     36.920841
_cell_angle_alpha  89.902222
_cell_angle_beta   90.099849
_cell_angle_gamma 119.98466
loop_
_atom_site_label
_atom_site_type_symbol
_atom_site_fract_x
_atom_site_fract_y
_atom_site_fract_z
_atom_type_partial_charge
Co0 Co 0.37157 0.48909 0.11897 0.0
Co1 Co 0.33761 0.45749 0.03736 0.0
O2 O 0.33579 0.46769 0.08807 0.0
C3 C 0.35364 0.44705 0.18169 0.0
O4 O 0.37482 0.44101 0.1721 0.0
C5 C 0.30326 0.49084 0.02887 0.0
O6 O 0.32613 0.51477 0.04363 0.0
O7 O 0.36914 0.50021 0.02666 0.0
O8 O 0.39618 0.51558 0.07811 0.0
H9 H 0.38977 0.45849 0.92165 0.0
H10 H 0.31339 0.48405 0.14089 0.0
O11 O 0.34746 0.46356 0.1614 0.0
H12 H 0.38605 0.59363 0.13493 0.0
H13 H 0.4265 0.53809 0.23464 0.0
H14 H 0.43661 0.50872 0.11064 0.0
H15 H 0.40241 0.55663 0.12165 0.0
H16 H 0.38232 0.51399 0.19419 0.0
O17 O 0.30434 0.46653 0.02494 0.0
H18 H 0.38708 0.47025 0.98585 0.0
H19 H 0.29109 0.42402 0.98042 0.0
H20 H 0.48167 0.53363 0.14998 0.0
H21 H 0.29611 0.52027 0.15471 0.0
H22 H 0.47676 0.5484 0.21262 0.0
H23 H 0.33256 0.57551 0.15171 0.0
O24 O 0.38464 0.45946 0.10621 0.0
H25 H 0.24002 0.37583 0.09039 0.0
H26 H 0.33132 0.3972 0.02148 0.0
H27 H 0.29321 0.34434 0.03554 0.0
H28 H 0.2471 0.33336 0.07012 0.0
H29 H 0.27888 0.42842 0.07607 0.0
H30 H 0.29274 0.41193 0.9161 0.0
H31 H 0.34235 0.42912 0.88634 0.0
O32 O 0.37014 0.44726 0.04841 0.0
C33 C 0.39215 0.51928 0.04484 0.0
C34 C 0.36801 0.45079 0.93435 0.0
C35 C 0.31356 0.42469 0.93122 0.0
N36 N 0.33896 0.44763 0.98693 0.0
C37 C 0.36635 0.45731 0.97071 0.0
C38 C 0.31276 0.43166 0.96763 0.0
C39 C 0.3414 0.43433 0.91454 0.0
C40 C 0.32943 0.50805 0.13976 0.0
N41 N 0.35891 0.51819 0.13062 0.0
C42 C 0.31949 0.52845 0.14752 0.0
C43 C 0.33995 0.55944 0.14579 0.0
C44 C 0.36996 0.56962 0.13635 0.0
C45 C 0.37907 0.54855 0.12875 0.0
C46 C 0.42903 0.53198 0.20742 0.0
C47 C 0.43436 0.51536 0.13773 0.0
C48 C 0.40402 0.51815 0.18441 0.0
N49 N 0.40684 0.50988 0.15009 0.0
C50 C 0.45994 0.52939 0.15991 0.0
C51 C 0.45718 0.53766 0.19504 0.0
C52 C 0.38467 0.44686 0.07645 0.0
C53 C 0.25999 0.38032 0.07525 0.0
C54 C 0.31142 0.39264 0.03674 0.0
C55 C 0.28986 0.36265 0.04451 0.0
C56 C 0.26399 0.3565 0.06389 0.0
N57 N 0.30729 0.41588 0.04786 0.0
C58 C 0.28203 0.41004 0.06699 0.0
Co59 Co 0.8898 0.36542 0.6151 0.0
Co60 Co 0.88953 0.33202 0.53352 0.0
O61 O 0.87679 0.32997 0.58403 0.0
C62 C 0.9156 0.34859 0.67724 0.0
O63 O 0.94256 0.36962 0.66663 0.0
C64 C 0.82215 0.29766 0.52916 0.0
O65 O 0.82202 0.31848 0.54991 0.0
O66 O 0.87941 0.36421 0.52226 0.0
O67 O 0.88697 0.38962 0.57441 0.0
H68 H 0.94348 0.38467 0.41913 0.0
H69 H 0.83838 0.3062 0.63771 0.0
O70 O 0.89247 0.34185 0.65749 0.0
H71 H 0.79689 0.37507 0.63062 0.0
H72 H 0.89288 0.41782 0.73138 0.0
H73 H 0.93333 0.43124 0.60746 0.0
H74 H 0.85068 0.39362 0.61725 0.0
H75 H 0.87442 0.37452 0.69013 0.0
O76 O 0.84723 0.29983 0.51989 0.0
H77 H 0.92808 0.38169 0.48298 0.0
H78 H 0.87654 0.2858 0.47631 0.0
H79 H 0.95181 0.47565 0.64762 0.0
H80 H 0.78449 0.28676 0.65165 0.0
H81 H 0.93169 0.46912 0.71028 0.0
H82 H 0.76341 0.32129 0.64804 0.0
O83 O 0.93277 0.38032 0.6022 0.0
H84 H 0.87022 0.23298 0.58607 0.0
H85 H 0.94297 0.32449 0.51928 0.0
H86 H 0.95628 0.28535 0.53374 0.0
H87 H 0.91971 0.23913 0.56725 0.0
H88 H 0.85796 0.27286 0.57136 0.0
H89 H 0.89122 0.28775 0.41231 0.0
H90 H 0.92501 0.33745 0.38335 0.0
O91 O 0.93218 0.36375 0.54577 0.0
C92 C 0.88157 0.38646 0.54054 0.0
C93 C 0.92883 0.36287 0.43148 0.0
C94 C 0.89946 0.30848 0.42764 0.0
N95 N 0.90161 0.3336 0.48342 0.0
C96 C 0.9201 0.36104 0.46765 0.0
C97 C 0.89117 0.30752 0.46386 0.0
C98 C 0.91843 0.33637 0.41141 0.0
C99 C 0.82943 0.32142 0.6364 0.0
N100 N 0.8477 0.35103 0.62682 0.0
C101 C 0.79887 0.31026 0.64419 0.0
C102 C 0.78705 0.32964 0.6421 0.0
C103 C 0.80581 0.35981 0.6323 0.0
C104 C 0.83624 0.37016 0.62465 0.0
C105 C 0.90175 0.42118 0.7042 0.0
C106 C 0.92422 0.42831 0.63452 0.0
C107 C 0.89147 0.3966 0.68073 0.0
N108 N 0.90285 0.40029 0.64646 0.0
C109 C 0.93483 0.45352 0.65718 0.0
C110 C 0.92355 0.44985 0.69231 0.0
C111 C 0.94619 0.37951 0.5735 0.0
C112 C 0.88631 0.25299 0.57139 0.0
C113 C 0.92701 0.30453 0.53406 0.0
C114 C 0.93463 0.2824 0.54207 0.0
C115 C 0.9141 0.25647 0.56085 0.0
N116 N 0.89966 0.3009 0.54436 0.0
C117 C 0.87947 0.2756 0.5629 0.0
Co118 Co 0.51395 0.88819 0.12263 0.0
Co119 Co 0.5512 0.88668 0.04604 0.0
O120 O 0.53726 0.87386 0.09561 0.0
C121 C 0.56257 0.90299 0.17788 0.0
O122 O 0.58303 0.92293 0.15587 0.0
C123 C 0.51925 0.8192 0.03654 0.0
O124 O 0.49423 0.81769 0.04823 0.0
O125 O 0.50937 0.87524 0.03015 0.0
O126 O 0.4916 0.8882 0.0783 0.0
H127 H 0.55873 0.93954 0.92831 0.0
H128 H 0.51558 0.83358 0.14673 0.0
O129 O 0.53492 0.88769 0.16831 0.0
H130 H 0.40767 0.79927 0.12606 0.0
H131 H 0.45244 0.89031 0.22821 0.0
H132 H 0.49648 0.93469 0.10959 0.0
H133 H 0.44647 0.85272 0.11675 0.0
H134 H 0.48272 0.87283 0.19457 0.0
O135 O 0.5436 0.84474 0.03451 0.0
H136 H 0.54206 0.92392 0.99127 0.0
H137 H 0.58933 0.87508 0.99461 0.0
H138 H 0.46703 0.95317 0.14275 0.0
H139 H 0.47749 0.77994 0.15671 0.0
H140 H 0.44471 0.93083 0.20252 0.0
H141 H 0.42309 0.76245 0.14628 0.0
O142 O 0.5453 0.93122 0.1131 0.0
H143 H 0.62884 0.87121 0.11152 0.0
H144 H 0.61217 0.9413 0.0358 0.0
H145 H 0.66374 0.95656 0.05681 0.0
H146 H 0.67235 0.92135 0.09489 0.0
H147 H 0.57757 0.85697 0.09018 0.0
H148 H 0.60635 0.88999 0.9316 0.0
H149 H 0.59113 0.92255 0.89807 0.0
O150 O 0.56001 0.92905 0.05643 0.0
C151 C 0.48971 0.88009 0.04536 0.0
C152 C 0.5656 0.92543 0.94267 0.0
C153 C 0.59228 0.89758 0.9445 0.0
N154 N 0.56489 0.8988 0.99667 0.0
C155 C 0.55629 0.91657 0.97835 0.0
C156 C 0.58252 0.88915 0.98014 0.0
C157 C 0.58375 0.91586 0.92571 0.0
C158 C 0.49194 0.8262 0.14238 0.0
N159 N 0.48328 0.84632 0.13128 0.0
C160 C 0.47048 0.79577 0.14797 0.0
C161 C 0.43996 0.78597 0.14207 0.0
C162 C 0.4313 0.80661 0.13071 0.0
C163 C 0.45339 0.83685 0.12537 0.0
C164 C 0.46232 0.90031 0.20238 0.0
C165 C 0.48698 0.92493 0.13567 0.0
C166 C 0.47938 0.89048 0.18315 0.0
N167 N 0.49115 0.90255 0.14999 0.0
C168 C 0.47032 0.93551 0.15431 0.0
C169 C 0.45784 0.923 0.18785 0.0
C170 C 0.55932 0.94395 0.08389 0.0
C171 C 0.62539 0.88672 0.09488 0.0
C172 C 0.6157 0.9259 0.05248 0.0
C173 C 0.64497 0.93464 0.06422 0.0
C174 C 0.64979 0.91487 0.08557 0.0
N175 N 0.59189 0.89822 0.06164 0.0
C176 C 0.59643 0.87875 0.08263 0.0
Co177 Co 0.64458 0.50927 0.61434 0.0
Co178 Co 0.68227 0.55104 0.53885 0.0
O179 O 0.68161 0.53511 0.58727 0.0
C180 C 0.675 0.55812 0.66931 0.0
O181 O 0.6764 0.57786 0.6454 0.0
C182 C 0.71657 0.51847 0.52634 0.0
O183 O 0.69333 0.49387 0.53938 0.0
O184 O 0.65108 0.51024 0.52076 0.0
O185 O 0.6232 0.48694 0.56981 0.0
H186 H 0.63614 0.56508 0.4254 0.0
H187 H 0.7028 0.51552 0.6385 0.0
O188 O 0.66471 0.53054 0.66046 0.0
H189 H 0.63671 0.40676 0.61326 0.0
H190 H 0.58517 0.44209 0.7185 0.0
H191 H 0.57929 0.48725 0.60276 0.0
H192 H 0.61773 0.44239 0.60566 0.0
H193 H 0.63159 0.47652 0.68491 0.0
O194 O 0.71572 0.54301 0.52436 0.0
H195 H 0.63553 0.54545 0.48668 0.0
H196 H 0.73158 0.59058 0.48764 0.0
H197 H 0.53236 0.45382 0.63619 0.0
H198 H 0.72264 0.48061 0.6468 0.0
H199 H 0.53512 0.4309 0.69448 0.0
H200 H 0.68952 0.42581 0.63405 0.0
O201 O 0.62956 0.53828 0.60614 0.0
H202 H 0.77717 0.62479 0.6045 0.0
H203 H 0.68955 0.61277 0.53424 0.0
H204 H 0.72691 0.66319 0.55737 0.0
H205 H 0.77116 0.66947 0.5927 0.0
H206 H 0.7391 0.57469 0.58115 0.0
H207 H 0.73324 0.61054 0.42626 0.0
H208 H 0.68527 0.59789 0.39478 0.0
O209 O 0.64956 0.56005 0.55254 0.0
C210 C 0.62806 0.48827 0.5359 0.0
C211 C 0.6572 0.57083 0.43887 0.0
C212 C 0.71169 0.5963 0.43934 0.0
N213 N 0.68349 0.56702 0.4908 0.0
C214 C 0.657 0.55984 0.47361 0.0
C215 C 0.71061 0.58488 0.47405 0.0
C216 C 0.68477 0.58921 0.4217 0.0
C217 C 0.68818 0.49166 0.63318 0.0
N218 N 0.65911 0.48101 0.62175 0.0
C219 C 0.69957 0.47202 0.63781 0.0
C220 C 0.68099 0.44129 0.6306 0.0
C221 C 0.65137 0.43058 0.61891 0.0
C222 C 0.64077 0.45089 0.61454 0.0
C223 C 0.58368 0.45222 0.69338 0.0
C224 C 0.58068 0.47757 0.62827 0.0
C225 C 0.60989 0.47162 0.67415 0.0
N226 N 0.60812 0.48366 0.64174 0.0
C227 C 0.55403 0.45863 0.64705 0.0
C228 C 0.5556 0.44581 0.67977 0.0
C229 C 0.63223 0.55559 0.57961 0.0
C230 C 0.75803 0.62236 0.58907 0.0
C231 C 0.70867 0.61527 0.54972 0.0
C232 C 0.72979 0.64391 0.56267 0.0
C233 C 0.75462 0.64741 0.58247 0.0
N234 N 0.71221 0.59083 0.55621 0.0
C235 C 0.73645 0.59407 0.57569 0.0
Co236 Co 0.12858 0.63828 0.12122 0.0
Co237 Co 0.13168 0.6787 0.0443 0.0
O238 O 0.14377 0.6766 0.09459 0.0
C239 C 0.12833 0.68169 0.17855 0.0
O240 O 0.13875 0.70525 0.15695 0.0
C241 C 0.19911 0.71179 0.03086 0.0
O242 O 0.20011 0.68725 0.0391 0.0
O243 O 0.14131 0.64703 0.028 0.0
O244 O 0.13191 0.61795 0.07722 0.0
H245 H 0.07883 0.63579 0.92594 0.0
H246 H 0.18272 0.6951 0.14647 0.0
O247 O 0.12418 0.65629 0.16735 0.0
H248 H 0.21672 0.6205 0.1352 0.0
H249 H 0.11727 0.57154 0.22787 0.0
H250 H 0.08456 0.57459 0.10315 0.0
H251 H 0.16407 0.60626 0.12105 0.0
H252 H 0.13854 0.62003 0.19493 0.0
O253 O 0.1742 0.71191 0.03291 0.0
H254 H 0.09351 0.63346 0.98902 0.0
H255 H 0.14564 0.72944 0.99311 0.0
H256 H 0.06335 0.52567 0.13494 0.0
H257 H 0.23542 0.7102 0.16131 0.0
H258 H 0.07969 0.52396 0.19789 0.0
H259 H 0.25282 0.67279 0.15568 0.0
O260 O 0.08618 0.62653 0.10899 0.0
H261 H 0.15196 0.77412 0.1078 0.0
H262 H 0.07856 0.68768 0.03439 0.0
H263 H 0.06572 0.72593 0.05461 0.0
H264 H 0.10261 0.76961 0.0915 0.0
H265 H 0.16371 0.73511 0.08739 0.0
H266 H 0.13169 0.73279 0.92999 0.0
H267 H 0.09796 0.68573 0.89601 0.0
O268 O 0.08868 0.64646 0.05406 0.0
C269 C 0.13827 0.62338 0.04383 0.0
C270 C 0.09346 0.65646 0.9405 0.0
C271 C 0.12317 0.71089 0.94276 0.0
N272 N 0.12025 0.68128 0.99483 0.0
C273 C 0.1018 0.65529 0.97626 0.0
C274 C 0.13105 0.70885 0.97848 0.0
C275 C 0.10423 0.68448 0.92371 0.0
C276 C 0.18985 0.67853 0.14442 0.0
N277 N 0.17002 0.64965 0.13348 0.0
C278 C 0.21986 0.68728 0.15265 0.0
C279 C 0.22962 0.66631 0.14943 0.0
C280 C 0.20939 0.63698 0.13793 0.0
C281 C 0.17956 0.62905 0.12992 0.0
C282 C 0.11017 0.57204 0.20046 0.0
C283 C 0.09209 0.57403 0.13037 0.0
C284 C 0.12203 0.59942 0.18168 0.0
N285 N 0.11303 0.60014 0.14699 0.0
C286 C 0.07987 0.54625 0.14829 0.0
C287 C 0.08902 0.54532 0.1836 0.0
C288 C 0.07369 0.62956 0.08061 0.0
C289 C 0.1357 0.75521 0.09172 0.0
C290 C 0.09462 0.70645 0.05071 0.0
C291 C 0.08728 0.72813 0.06194 0.0
C292 C 0.108 0.75265 0.0826 0.0
N293 N 0.12184 0.70912 0.05977 0.0
C294 C 0.14227 0.7331 0.08 0.0
Co295 Co 0.50342 0.13478 0.60084 0.0
Co296 Co 0.46218 0.13004 0.52386 0.0
O297 O 0.47724 0.14534 0.57293 0.0
C298 C 0.45718 0.12984 0.6574 0.0
O299 O 0.44121 0.13651 0.63525 0.0
C300 C 0.49586 0.19703 0.51082 0.0
O301 O 0.51964 0.19817 0.5262 0.0
O302 O 0.50306 0.13871 0.50662 0.0
O303 O 0.52723 0.13845 0.55712 0.0
H304 H 0.44849 0.06842 0.41205 0.0
H305 H 0.49407 0.18532 0.62416 0.0
O306 O 0.48084 0.12971 0.64683 0.0
H307 H 0.60414 0.23129 0.60715 0.0
H308 H 0.56872 0.14129 0.70663 0.0
H309 H 0.52844 0.09415 0.58785 0.0
H310 H 0.57022 0.17673 0.59693 0.0
H311 H 0.53416 0.1529 0.67275 0.0
O312 O 0.47129 0.17174 0.50804 0.0
H313 H 0.46751 0.0878 0.47337 0.0
H314 H 0.42413 0.14041 0.47075 0.0
H315 H 0.56236 0.08123 0.62135 0.0
H316 H 0.52714 0.23985 0.63515 0.0
H317 H 0.58281 0.10493 0.68122 0.0
H318 H 0.58265 0.26326 0.62657 0.0
O319 O 0.47584 0.09081 0.59116 0.0
H320 H 0.38832 0.15423 0.58354 0.0
H321 H 0.40018 0.07603 0.51945 0.0
H322 H 0.34958 0.06433 0.54028 0.0
H323 H 0.34339 0.10362 0.57247 0.0
H324 H 0.4386 0.16485 0.56266 0.0
H325 H 0.40484 0.12178 0.4093 0.0
H326 H 0.41692 0.08543 0.3796 0.0
O327 O 0.45224 0.08813 0.53864 0.0
C328 C 0.52577 0.14006 0.52296 0.0
C329 C 0.44301 0.08419 0.42474 0.0
C330 C 0.41855 0.11418 0.42318 0.0
N331 N 0.4468 0.11508 0.47569 0.0
C332 C 0.45365 0.09519 0.45949 0.0
C333 C 0.4296 0.12471 0.45794 0.0
C334 C 0.42532 0.09377 0.40654 0.0
C335 C 0.51817 0.19514 0.62084 0.0
N336 N 0.53014 0.17764 0.61035 0.0
C337 C 0.53681 0.22614 0.62689 0.0
C338 C 0.56793 0.23927 0.622 0.0
C339 C 0.58 0.22135 0.61109 0.0
C340 C 0.56065 0.19044 0.60524 0.0
C341 C 0.55974 0.13055 0.6808 0.0
C342 C 0.53713 0.10442 0.61396 0.0
C343 C 0.54023 0.13713 0.6614 0.0
N344 N 0.52952 0.12444 0.62818 0.0
C345 C 0.55632 0.09702 0.63281 0.0
C346 C 0.56775 0.11028 0.66641 0.0
C347 C 0.45782 0.07574 0.56541 0.0
C348 C 0.39072 0.13694 0.56948 0.0
C349 C 0.39773 0.09318 0.53368 0.0
C350 C 0.36899 0.08646 0.54528 0.0
C351 C 0.36552 0.10853 0.56331 0.0
N352 N 0.42233 0.12112 0.53981 0.0
C353 C 0.41911 0.14285 0.55747 0.0
Co354 Co 0.51436 0.64386 0.89547 0.0
Co355 Co 0.55235 0.67643 0.97497 0.0
O356 O 0.53935 0.679 0.92585 0.0
C357 C 0.56472 0.6737 0.84195 0.0
O358 O 0.58332 0.67195 0.86513 0.0
C359 C 0.52031 0.71128 0.98751 0.0
O360 O 0.49628 0.68906 0.97205 0.0
O361 O 0.51042 0.64475 0.98943 0.0
O362 O 0.48974 0.6203 0.93757 0.0
H363 H 0.55958 0.6231 0.08582 0.0
H364 H 0.52319 0.70398 0.87549 0.0
O365 O 0.53784 0.66616 0.85134 0.0
H366 H 0.41313 0.63877 0.89233 0.0
H367 H 0.45143 0.5919 0.78558 0.0
H368 H 0.49054 0.57768 0.90174 0.0
H369 H 0.44734 0.61808 0.89984 0.0
H370 H 0.48505 0.63579 0.8233 0.0
O371 O 0.54435 0.70964 0.99098 0.0
H372 H 0.54329 0.62641 0.02386 0.0
H373 H 0.58954 0.72236 0.03082 0.0
H374 H 0.45789 0.53315 0.86407 0.0
H375 H 0.48976 0.72557 0.86735 0.0
H376 H 0.438 0.54009 0.80554 0.0
H377 H 0.43431 0.69289 0.87588 0.0
O378 O 0.54214 0.62735 0.90398 0.0
H379 H 0.63073 0.77437 0.91885 0.0
H380 H 0.61314 0.68196 0.98273 0.0
H381 H 0.66496 0.71983 0.96434 0.0
H382 H 0.67403 0.76649 0.93225 0.0
H383 H 0.57921 0.73575 0.93741 0.0
H384 H 0.60615 0.72009 0.09297 0.0
H385 H 0.59125 0.67019 0.12081 0.0
O386 O 0.56124 0.64393 0.95966 0.0
C387 C 0.48924 0.62291 0.97175 0.0
C388 C 0.56628 0.64498 0.07395 0.0
C389 C 0.59238 0.69941 0.07798 0.0
N390 N 0.56559 0.67454 0.02368 0.0
C391 C 0.55719 0.647 0.03885 0.0
C392 C 0.58284 0.70055 0.04283 0.0
C393 C 0.58403 0.67141 0.09358 0.0
C394 C 0.49906 0.68957 0.87896 0.0
N395 N 0.48724 0.65978 0.88802 0.0
C396 C 0.48025 0.70194 0.87444 0.0
C397 C 0.44915 0.6836 0.87928 0.0
C398 C 0.43726 0.65325 0.88854 0.0
C399 C 0.45676 0.64167 0.89289 0.0
C400 C 0.46024 0.58855 0.81075 0.0
C401 C 0.48221 0.58089 0.87613 0.0
C402 C 0.47919 0.61334 0.83233 0.0
N403 N 0.48954 0.60928 0.86484 0.0
C404 C 0.4637 0.55559 0.85495 0.0
C405 C 0.45257 0.5595 0.8221 0.0
C406 C 0.55785 0.62806 0.9314 0.0
C407 C 0.62708 0.75416 0.9329 0.0
C408 C 0.61687 0.70214 0.96864 0.0
C409 C 0.64628 0.72354 0.95837 0.0
C410 C 0.65136 0.74972 0.94039 0.0
N411 N 0.59318 0.70671 0.9613 0.0
C412 C 0.59797 0.73227 0.94357 0.0
Co413 Co 0.88786 0.51018 0.38688 0.0
Co414 Co 0.89103 0.54868 0.46468 0.0
O415 O 0.87609 0.53476 0.41558 0.0
C416 C 0.9032 0.55904 0.33215 0.0
O417 O 0.92321 0.57906 0.3545 0.0
C418 C 0.8241 0.51729 0.47649 0.0
O419 O 0.82215 0.49267 0.46267 0.0
O420 O 0.88 0.50682 0.48056 0.0
O421 O 0.88834 0.48751 0.43036 0.0
H422 H 0.94933 0.55703 0.57803 0.0
H423 H 0.83434 0.51496 0.36606 0.0
O424 O 0.88706 0.53147 0.34164 0.0
H425 H 0.79519 0.40612 0.38716 0.0
H426 H 0.8801 0.44358 0.28197 0.0
H427 H 0.93319 0.49059 0.39585 0.0
H428 H 0.8496 0.44281 0.39364 0.0
H429 H 0.86764 0.47753 0.31608 0.0
O430 O 0.84981 0.54137 0.47916 0.0
H431 H 0.93068 0.5398 0.516 0.0
H432 H 0.88196 0.58721 0.51815 0.0
H433 H 0.94737 0.45813 0.36154 0.0
H434 H 0.77976 0.47899 0.35886 0.0
H435 H 0.92058 0.43423 0.3042 0.0
H436 H 0.75984 0.42415 0.36955 0.0
O437 O 0.93175 0.54018 0.39453 0.0
H438 H 0.87338 0.62656 0.40333 0.0
H439 H 0.94638 0.60946 0.47227 0.0
H440 H 0.96108 0.66105 0.45182 0.0
H441 H 0.92441 0.66988 0.41718 0.0
H442 H 0.85972 0.57526 0.424 0.0
H443 H 0.89989 0.60476 0.58031 0.0
H444 H 0.93393 0.58976 0.6106 0.0
O445 O 0.93262 0.55701 0.45102 0.0
C446 C 0.88284 0.48639 0.46406 0.0
C447 C 0.93458 0.56379 0.56508 0.0
C448 C 0.90679 0.59054 0.56638 0.0
N449 N 0.90542 0.56265 0.51341 0.0
C450 C 0.924 0.55416 0.52994 0.0
C451 C 0.89665 0.58047 0.53122 0.0
C452 C 0.9259 0.58212 0.58335 0.0
C453 C 0.82589 0.49109 0.37048 0.0
N454 N 0.8452 0.48102 0.38019 0.0
C455 C 0.79494 0.47085 0.36648 0.0
C456 C 0.78377 0.44009 0.37253 0.0
C457 C 0.80359 0.42997 0.38244 0.0
C458 C 0.83438 0.45088 0.38623 0.0
C459 C 0.89226 0.45435 0.30651 0.0
C460 C 0.92174 0.48067 0.37063 0.0
C461 C 0.88518 0.4734 0.3261 0.0
N462 N 0.89949 0.48582 0.3581 0.0
C463 C 0.92982 0.46224 0.35137 0.0
C464 C 0.91483 0.44888 0.31919 0.0
C465 C 0.94599 0.55502 0.42275 0.0
C466 C 0.88954 0.62301 0.41847 0.0
C467 C 0.93035 0.61308 0.45706 0.0
C468 C 0.93877 0.64237 0.44564 0.0
C469 C 0.91818 0.6473 0.42622 0.0
N470 N 0.90218 0.58938 0.44945 0.0
C471 C 0.8819 0.59403 0.43034 0.0
Co472 Co 0.37555 0.88034 0.88244 0.0
Co473 Co 0.33804 0.88553 0.95795 0.0
O474 O 0.33841 0.86975 0.90942 0.0
C475 C 0.33426 0.8843 0.82501 0.0
O476 O 0.31187 0.87795 0.8473 0.0
C477 C 0.30441 0.81876 0.97281 0.0
O478 O 0.32714 0.81704 0.95877 0.0
O479 O 0.3698 0.87674 0.97643 0.0
O480 O 0.39555 0.87748 0.92704 0.0
H481 H 0.38489 0.94773 0.06974 0.0
H482 H 0.31629 0.82916 0.85834 0.0
O483 O 0.35819 0.88462 0.83562 0.0
H484 H 0.38087 0.7843 0.88052 0.0
H485 H 0.43579 0.87213 0.77977 0.0
H486 H 0.44092 0.9219 0.89602 0.0
H487 H 0.40086 0.8389 0.88946 0.0
H488 H 0.38913 0.86115 0.81192 0.0
O489 O 0.30522 0.84415 0.97393 0.0
H490 H 0.38511 0.92787 0.00894 0.0
H491 H 0.28909 0.87599 0.0096 0.0
H492 H 0.48819 0.93448 0.86398 0.0
H493 H 0.29551 0.77456 0.8486 0.0
H494 H 0.48581 0.90941 0.80544 0.0
H495 H 0.32785 0.75172 0.85978 0.0
O496 O 0.39148 0.92438 0.89113 0.0
H497 H 0.24073 0.86118 0.89586 0.0
H498 H 0.33031 0.93979 0.96039 0.0
H499 H 0.29177 0.95151 0.93792 0.0
H500 H 0.24652 0.91201 0.90551 0.0
H501 H 0.28004 0.85056 0.91834 0.0
H502 H 0.28785 0.89512 0.07052 0.0
H503 H 0.336 0.93134 0.10094 0.0
O504 O 0.37023 0.92719 0.94319 0.0
C505 C 0.39168 0.87571 0.96109 0.0
C506 C 0.36376 0.93202 0.05673 0.0
C507 C 0.3093 0.90246 0.05718 0.0
N508 N 0.33714 0.90093 0.00566 0.0
C509 C 0.36373 0.92076 0.02227 0.0
C510 C 0.31014 0.89165 0.02272 0.0
C511 C 0.33632 0.92279 0.07423 0.0
C512 C 0.33068 0.81958 0.86277 0.0
N513 N 0.35992 0.83742 0.87396 0.0
C514 C 0.31871 0.78855 0.85743 0.0
C515 C 0.33684 0.77573 0.86378 0.0
C516 C 0.36657 0.794 0.87543 0.0
C517 C 0.37775 0.82493 0.88053 0.0
C518 C 0.43716 0.88352 0.80497 0.0
C519 C 0.43971 0.91113 0.87039 0.0
C520 C 0.4108 0.87727 0.82341 0.0
N521 N 0.41232 0.89064 0.85601 0.0
C522 C 0.46655 0.91832 0.85239 0.0
C523 C 0.4652 0.90428 0.81953 0.0
C524 C 0.38833 0.93951 0.91661 0.0
C525 C 0.26032 0.87857 0.91 0.0
C526 C 0.31083 0.92255 0.94604 0.0
C527 C 0.28901 0.92928 0.93352 0.0
C528 C 0.26361 0.9071 0.91537 0.0
N529 N 0.30744 0.8945 0.94067 0.0
C530 C 0.2826 0.87265 0.92291 0.0
Co531 Co 0.50885 0.38462 0.36976 0.0
Co532 Co 0.46897 0.34253 0.44447 0.0
O533 O 0.48417 0.3457 0.39473 0.0
C534 C 0.46049 0.34741 0.3154 0.0
O535 O 0.44146 0.3314 0.34111 0.0
C536 C 0.50108 0.30703 0.4568 0.0
O537 O 0.52704 0.33118 0.44901 0.0
O538 O 0.51021 0.37266 0.46263 0.0
O539 O 0.53156 0.40341 0.41505 0.0
H540 H 0.4577 0.38324 0.56368 0.0
H541 H 0.50384 0.32867 0.33938 0.0
O542 O 0.48742 0.36793 0.32274 0.0
H543 H 0.61276 0.3962 0.36222 0.0
H544 H 0.573 0.45301 0.26846 0.0
H545 H 0.52919 0.44828 0.38879 0.0
H546 H 0.57611 0.41297 0.3756 0.0
H547 H 0.54076 0.40371 0.29832 0.0
O548 O 0.47657 0.30797 0.45509 0.0
H549 H 0.47621 0.38674 0.5012 0.0
H550 H 0.4297 0.29083 0.49321 0.0
H551 H 0.56068 0.49783 0.35951 0.0
H552 H 0.53975 0.31105 0.32522 0.0
H553 H 0.58287 0.50037 0.29889 0.0
H554 H 0.59464 0.34491 0.33671 0.0
O555 O 0.4789 0.39757 0.38138 0.0
H556 H 0.39318 0.24972 0.37709 0.0
H557 H 0.40764 0.33585 0.45215 0.0
H558 H 0.35664 0.29944 0.42968 0.0
H559 H 0.34913 0.25592 0.39197 0.0
H560 H 0.44392 0.28698 0.39961 0.0
H561 H 0.41088 0.2863 0.55569 0.0
H562 H 0.42479 0.33273 0.59132 0.0
O563 O 0.46001 0.37613 0.43531 0.0
C564 C 0.53149 0.39665 0.44822 0.0
C565 C 0.45142 0.36284 0.54839 0.0
C566 C 0.42518 0.30843 0.54392 0.0
N567 N 0.4539 0.33903 0.49348 0.0
C568 C 0.46177 0.36468 0.51297 0.0
C569 C 0.43596 0.31115 0.50858 0.0
C570 C 0.43297 0.3345 0.5639 0.0
C571 C 0.52772 0.3436 0.34421 0.0
N572 N 0.53786 0.37185 0.35817 0.0
C573 C 0.54793 0.33347 0.33625 0.0
C574 C 0.57872 0.35247 0.34274 0.0
C575 C 0.5889 0.38123 0.35708 0.0
C576 C 0.56802 0.39057 0.36473 0.0
C577 C 0.56321 0.45207 0.2947 0.0
C578 C 0.53866 0.44916 0.36235 0.0
C579 C 0.54504 0.42428 0.31181 0.0
N580 N 0.53332 0.42313 0.34543 0.0
C581 C 0.55647 0.4773 0.3459 0.0
C582 C 0.56887 0.47871 0.31188 0.0
C583 C 0.46297 0.3941 0.40946 0.0
C584 C 0.39616 0.26856 0.39355 0.0
C585 C 0.40464 0.31716 0.43547 0.0
C586 C 0.37566 0.29652 0.42297 0.0
C587 C 0.37146 0.27208 0.40186 0.0
N588 N 0.42877 0.31357 0.42718 0.0
C589 C 0.42481 0.28965 0.40652 0.0
Co590 Co 0.13548 0.50403 0.88555 0.0
Co591 Co 0.13054 0.46422 0.96308 0.0
O592 O 0.14605 0.47845 0.91432 0.0
C593 C 0.11889 0.45467 0.83161 0.0
O594 O 0.09926 0.4351 0.85467 0.0
C595 C 0.19735 0.49458 0.97679 0.0
O596 O 0.19996 0.51973 0.9637 0.0
O597 O 0.14203 0.50607 0.97918 0.0
O598 O 0.1356 0.52698 0.92897 0.0
H599 H 0.07175 0.45612 0.07565 0.0
H600 H 0.18786 0.49734 0.86473 0.0
O601 O 0.13548 0.48235 0.84041 0.0
H602 H 0.23024 0.60647 0.88711 0.0
H603 H 0.14676 0.57215 0.78068 0.0
H604 H 0.09163 0.52565 0.89369 0.0
H605 H 0.17549 0.57107 0.89325 0.0
H606 H 0.15713 0.5368 0.81508 0.0
O607 O 0.17141 0.47065 0.97824 0.0
H608 H 0.09101 0.47355 0.01389 0.0
H609 H 0.13823 0.42463 0.01654 0.0
H610 H 0.07935 0.55947 0.85898 0.0
H611 H 0.24275 0.53201 0.8579 0.0
H612 H 0.10719 0.58315 0.80211 0.0
H613 H 0.26428 0.587 0.86922 0.0
O614 O 0.09125 0.47512 0.89285 0.0
H615 H 0.1471 0.38581 0.90173 0.0
H616 H 0.07446 0.4039 0.96956 0.0
H617 H 0.05909 0.35229 0.94869 0.0
H618 H 0.09558 0.34297 0.9146 0.0
H619 H 0.16143 0.43715 0.92281 0.0
H620 H 0.11965 0.40683 0.07844 0.0
H621 H 0.08607 0.4225 0.10835 0.0
O622 O 0.08933 0.45676 0.94881 0.0
C623 C 0.14025 0.52723 0.96282 0.0
C624 C 0.0863 0.44906 0.06287 0.0
C625 C 0.11322 0.42144 0.06446 0.0
N626 N 0.11556 0.44996 0.01156 0.0
C627 C 0.09721 0.4588 0.02787 0.0
C628 C 0.12373 0.43164 0.02944 0.0
C629 C 0.09437 0.43023 0.08122 0.0
C630 C 0.19703 0.52128 0.86942 0.0
N631 N 0.17843 0.53215 0.87924 0.0
C632 C 0.22814 0.54078 0.86563 0.0
C633 C 0.24021 0.57162 0.87203 0.0
C634 C 0.22113 0.58256 0.8821 0.0
C635 C 0.19014 0.56238 0.88567 0.0
C636 C 0.13412 0.56154 0.80504 0.0
C637 C 0.10348 0.53545 0.86865 0.0
C638 C 0.14004 0.54168 0.82478 0.0
N639 N 0.1252 0.52939 0.85655 0.0
C640 C 0.09649 0.55467 0.84917 0.0
C641 C 0.11208 0.56791 0.81725 0.0
C642 C 0.07651 0.45985 0.92062 0.0
C643 C 0.13103 0.38958 0.91663 0.0
C644 C 0.09042 0.40006 0.95461 0.0
C645 C 0.08162 0.37077 0.94294 0.0
C646 C 0.1021 0.36555 0.92383 0.0
N647 N 0.11887 0.4235 0.94755 0.0
C648 C 0.13904 0.41857 0.92874 0.0
Co649 Co 0.64214 0.12296 0.37394 0.0
Co650 Co 0.67725 0.12817 0.45559 0.0
O651 O 0.67822 0.13895 0.40453 0.0
C652 C 0.66113 0.09882 0.31244 0.0
O653 O 0.6396 0.07161 0.3216 0.0
C654 C 0.70999 0.18929 0.4897 0.0
O655 O 0.686 0.18078 0.51011 0.0
O656 O 0.64528 0.13884 0.46514 0.0
O657 O 0.61725 0.12495 0.41441 0.0
H658 H 0.62676 0.0806 0.57351 0.0
H659 H 0.69923 0.17675 0.35024 0.0
O660 O 0.66667 0.1215 0.33227 0.0
H661 H 0.62357 0.20996 0.35278 0.0
H662 H 0.58554 0.11145 0.25768 0.0
H663 H 0.57769 0.07661 0.38379 0.0
H664 H 0.60927 0.15761 0.36916 0.0
H665 H 0.63025 0.13404 0.2976 0.0
O666 O 0.70992 0.17135 0.4655 0.0
H667 H 0.62861 0.09327 0.5087 0.0
H668 H 0.72468 0.14196 0.51184 0.0
H669 H 0.53223 0.0541 0.34502 0.0
H670 H 0.71444 0.22926 0.33328 0.0
H671 H 0.53603 0.07148 0.28134 0.0
H672 H 0.67647 0.24617 0.33451 0.0
O673 O 0.6306 0.08103 0.38829 0.0
H674 H 0.77516 0.14512 0.40249 0.0
H675 H 0.68508 0.0753 0.47342 0.0
H676 H 0.72388 0.06137 0.46011 0.0
H677 H 0.76941 0.09648 0.42455 0.0
H678 H 0.7356 0.15799 0.41603 0.0
H679 H 0.72389 0.12984 0.57669 0.0
H680 H 0.67465 0.09893 0.60794 0.0
O681 O 0.64523 0.0848 0.44629 0.0
C682 C 0.6218 0.13387 0.44722 0.0
C683 C 0.64835 0.09403 0.56018 0.0
C684 C 0.70287 0.12167 0.56197 0.0
N685 N 0.67671 0.11822 0.50649 0.0
C686 C 0.64954 0.10124 0.52349 0.0
C687 C 0.70318 0.12846 0.52526 0.0
C688 C 0.67523 0.10433 0.57949 0.0
C689 C 0.68254 0.18389 0.35066 0.0
N690 N 0.65336 0.16407 0.36051 0.0
C691 C 0.6913 0.21367 0.34111 0.0
C692 C 0.67 0.22316 0.34184 0.0
C693 C 0.64032 0.20286 0.35211 0.0
C694 C 0.63237 0.17326 0.36147 0.0
C695 C 0.58355 0.10391 0.28539 0.0
C696 C 0.57945 0.08456 0.35626 0.0
C697 C 0.60882 0.1165 0.3081 0.0
N698 N 0.60659 0.10669 0.34303 0.0
C699 C 0.55364 0.07165 0.33439 0.0
C700 C 0.55579 0.0814 0.29869 0.0
C701 C 0.63095 0.06917 0.41854 0.0
C702 C 0.75546 0.12967 0.41809 0.0
C703 C 0.7047 0.09061 0.45771 0.0
C704 C 0.72666 0.08264 0.45037 0.0
C705 C 0.75221 0.10236 0.43044 0.0
N706 N 0.70813 0.11752 0.44567 0.0
C707 C 0.73303 0.13688 0.42594 0.0
Co708 Co 0.63971 0.52195 0.88507 0.0
Co709 Co 0.67272 0.55448 0.96645 0.0
O710 O 0.6752 0.54393 0.91615 0.0
C711 C 0.65837 0.56266 0.821 0.0
O712 O 0.63637 0.56804 0.82861 0.0
C713 C 0.70904 0.52326 0.97609 0.0
O714 O 0.68665 0.49863 0.96186 0.0
O715 O 0.64203 0.51154 0.97761 0.0
O716 O 0.61475 0.49622 0.92633 0.0
H717 H 0.61923 0.55311 0.08116 0.0
H718 H 0.69811 0.52656 0.86514 0.0
O719 O 0.66431 0.5467 0.84253 0.0
H720 H 0.62526 0.41712 0.8729 0.0
H721 H 0.58542 0.47032 0.76998 0.0
H722 H 0.57466 0.50241 0.89219 0.0
H723 H 0.60883 0.45436 0.88403 0.0
H724 H 0.62955 0.49578 0.81048 0.0
O725 O 0.70685 0.54698 0.97962 0.0
H726 H 0.62263 0.5409 0.01735 0.0
H727 H 0.71862 0.58957 0.02337 0.0
H728 H 0.52979 0.47642 0.85274 0.0
H729 H 0.71547 0.49009 0.85345 0.0
H730 H 0.53504 0.46025 0.79103 0.0
H731 H 0.67893 0.43492 0.85737 0.0
O732 O 0.62661 0.55189 0.89608 0.0
H733 H 0.76932 0.63749 0.91303 0.0
H734 H 0.67699 0.61409 0.98094 0.0
H735 H 0.71395 0.66718 0.96622 0.0
H736 H 0.76059 0.67918 0.93214 0.0
H737 H 0.73157 0.58466 0.92798 0.0
H738 H 0.71625 0.60213 0.08733 0.0
H739 H 0.66628 0.58394 0.1166 0.0
O740 O 0.63931 0.56324 0.95448 0.0
C741 C 0.61886 0.49252 0.95961 0.0
C742 C 0.64114 0.56125 0.06868 0.0
C743 C 0.69559 0.58872 0.07215 0.0
N744 N 0.67078 0.5647 0.01658 0.0
C745 C 0.6432 0.55447 0.03253 0.0
C746 C 0.69679 0.58148 0.03595 0.0
C747 C 0.66755 0.57852 0.08856 0.0
C748 C 0.68203 0.50259 0.86667 0.0
N749 N 0.65246 0.49262 0.87513 0.0
C750 C 0.69201 0.48205 0.86012 0.0
C751 C 0.67151 0.4511 0.86236 0.0
C752 C 0.6414 0.44109 0.8711 0.0
C753 C 0.63224 0.4623 0.8775 0.0
C754 C 0.58281 0.4771 0.79679 0.0
C755 C 0.57708 0.49522 0.8655 0.0
C756 C 0.60775 0.49165 0.81983 0.0
N757 N 0.6047 0.50058 0.85369 0.0
C758 C 0.5516 0.48058 0.84325 0.0
C759 C 0.55456 0.47152 0.80864 0.0
C760 C 0.62548 0.56389 0.92588 0.0
C761 C 0.74912 0.63256 0.92795 0.0
C762 C 0.69712 0.61909 0.96591 0.0
C763 C 0.71802 0.64922 0.95775 0.0
C764 C 0.74419 0.65593 0.93865 0.0
N765 N 0.70216 0.59629 0.95543 0.0
C766 C 0.7277 0.60269 0.93657 0.0
Co767 Co 0.13664 0.63763 0.38711 0.0
Co768 Co 0.13228 0.67208 0.46624 0.0
O769 O 0.14725 0.6739 0.41641 0.0
C770 C 0.13169 0.68049 0.33285 0.0
O771 O 0.1383 0.70222 0.35631 0.0
C772 C 0.19995 0.7132 0.47223 0.0
O773 O 0.20393 0.69918 0.44491 0.0
O774 O 0.14315 0.64099 0.48127 0.0
O775 O 0.14039 0.61636 0.43005 0.0
H776 H 0.07266 0.61908 0.57757 0.0
H777 H 0.18684 0.69742 0.3623 0.0
O778 O 0.13147 0.65626 0.34187 0.0
H779 H 0.23324 0.63367 0.37953 0.0
H780 H 0.14528 0.58105 0.2806 0.0
H781 H 0.09567 0.57177 0.39812 0.0
H782 H 0.17894 0.61317 0.39123 0.0
H783 H 0.15541 0.62655 0.31482 0.0
O784 O 0.17332 0.70514 0.48342 0.0
H785 H 0.0921 0.62223 0.51565 0.0
H786 H 0.14045 0.71826 0.52158 0.0
H787 H 0.08364 0.52563 0.36378 0.0
H788 H 0.24101 0.71861 0.34949 0.0
H789 H 0.10867 0.53009 0.3046 0.0
H790 H 0.26468 0.68671 0.35825 0.0
O791 O 0.09262 0.62089 0.39693 0.0
H792 H 0.15178 0.77014 0.41039 0.0
H793 H 0.07682 0.6774 0.47335 0.0
H794 H 0.06285 0.71529 0.45489 0.0
H795 H 0.10051 0.76213 0.42328 0.0
H796 H 0.16465 0.73144 0.4289 0.0
H797 H 0.12171 0.71614 0.58366 0.0
H798 H 0.08747 0.66628 0.612 0.0
O799 O 0.09079 0.63944 0.45139 0.0
C800 C 0.14366 0.61955 0.46414 0.0
C801 C 0.0875 0.64094 0.56548 0.0
C802 C 0.11507 0.69541 0.56891 0.0
N803 N 0.11724 0.67039 0.51493 0.0
C804 C 0.09853 0.64287 0.53039 0.0
C805 C 0.12566 0.69647 0.53378 0.0
C806 C 0.09584 0.66743 0.58479 0.0
C807 C 0.19669 0.68317 0.36554 0.0
N808 N 0.17948 0.65395 0.37716 0.0
C809 C 0.22752 0.6954 0.35854 0.0
C810 C 0.2408 0.67753 0.36356 0.0
C811 C 0.22319 0.64779 0.37555 0.0
C812 C 0.19244 0.63635 0.38232 0.0
C813 C 0.13381 0.57877 0.30599 0.0
C814 C 0.1063 0.5739 0.37214 0.0
C815 C 0.13963 0.60448 0.32564 0.0
N816 N 0.12638 0.60182 0.35863 0.0
C817 C 0.09946 0.54769 0.35286 0.0
C818 C 0.11347 0.5502 0.31965 0.0
C819 C 0.07796 0.6225 0.424 0.0
C820 C 0.1352 0.74986 0.42423 0.0
C821 C 0.09328 0.69761 0.45939 0.0
C822 C 0.08527 0.71905 0.44913 0.0
C823 C 0.10642 0.74533 0.43143 0.0
N824 N 0.12158 0.70224 0.4523 0.0
C825 C 0.14241 0.72793 0.43492 0.0
Co826 Co 0.50245 0.12551 0.86746 0.0
Co827 Co 0.46555 0.13003 0.94391 0.0
O828 O 0.47976 0.14128 0.89366 0.0
C829 C 0.45764 0.12445 0.81157 0.0
O830 O 0.44467 0.13418 0.8343 0.0
C831 C 0.49286 0.19055 0.97937 0.0
O832 O 0.506 0.1808 0.00201 0.0
O833 O 0.50665 0.13906 0.96011 0.0
O834 O 0.52655 0.1293 0.91151 0.0
H835 H 0.4554 0.07882 0.06363 0.0
H836 H 0.49994 0.17928 0.84011 0.0
O837 O 0.4795 0.12073 0.82149 0.0
H838 H 0.60844 0.21305 0.85208 0.0
H839 H 0.5571 0.11311 0.76099 0.0
H840 H 0.52191 0.08135 0.88607 0.0
H841 H 0.5699 0.1608 0.86781 0.0
H842 H 0.52997 0.13458 0.79361 0.0
O843 O 0.47661 0.17348 0.95349 0.0
H844 H 0.4726 0.09277 0.0005 0.0
H845 H 0.42838 0.14446 0.9938 0.0
H846 H 0.54933 0.05975 0.85455 0.0
H847 H 0.53766 0.23156 0.82364 0.0
H848 H 0.56709 0.07563 0.79147 0.0
H849 H 0.59242 0.24883 0.82959 0.0
O850 O 0.47179 0.08335 0.88062 0.0
H851 H 0.39154 0.15226 0.88047 0.0
H852 H 0.40304 0.07752 0.95334 0.0
H853 H 0.35224 0.06565 0.93303 0.0
H854 H 0.34621 0.10323 0.89645 0.0
H855 H 0.44201 0.163 0.9008 0.0
H856 H 0.41075 0.13112 0.05688 0.0
H857 H 0.42424 0.09805 0.09222 0.0
O858 O 0.45388 0.08655 0.93496 0.0
C859 C 0.52734 0.13598 0.94479 0.0
C860 C 0.44933 0.09321 0.04849 0.0
C861 C 0.42429 0.12257 0.04471 0.0
N862 N 0.45143 0.11932 0.99346 0.0
C863 C 0.45898 0.10116 0.01274 0.0
C864 C 0.43433 0.13005 0.00902 0.0
C865 C 0.43187 0.10402 0.06452 0.0
C866 C 0.52362 0.18636 0.84234 0.0
N867 N 0.53257 0.1667 0.85434 0.0
C868 C 0.54494 0.21613 0.83317 0.0
C869 C 0.57565 0.22582 0.83658 0.0
C870 C 0.58465 0.20577 0.8492 0.0
C871 C 0.56269 0.17618 0.85811 0.0
C872 C 0.54955 0.10615 0.78845 0.0
C873 C 0.52982 0.08861 0.85875 0.0
C874 C 0.53411 0.11815 0.80706 0.0
N875 N 0.5246 0.10945 0.84187 0.0
C876 C 0.54523 0.0762 0.84099 0.0
C877 C 0.55516 0.08509 0.8056 0.0
C878 C 0.45597 0.07122 0.90889 0.0
C879 C 0.39386 0.13572 0.89643 0.0
C880 C 0.40069 0.09386 0.93708 0.0
C881 C 0.37182 0.08708 0.92584 0.0
C882 C 0.36845 0.10819 0.90536 0.0
N883 N 0.42553 0.12093 0.92822 0.0
C884 C 0.42238 0.14173 0.90816 0.0
Co885 Co 0.38176 0.50474 0.38787 0.0
Co886 Co 0.3474 0.46254 0.46425 0.0
O887 O 0.34599 0.4784 0.41653 0.0
C888 C 0.34823 0.4555 0.33443 0.0
O889 O 0.34746 0.43598 0.35826 0.0
C890 C 0.31235 0.49384 0.47945 0.0
O891 O 0.33494 0.51868 0.4659 0.0
O892 O 0.37862 0.50354 0.48188 0.0
O893 O 0.40455 0.52701 0.43174 0.0
H894 H 0.39802 0.44915 0.57388 0.0
H895 H 0.32225 0.49754 0.36796 0.0
O896 O 0.35999 0.4834 0.34255 0.0
H897 H 0.38788 0.60641 0.39293 0.0
H898 H 0.43673 0.57328 0.28271 0.0
H899 H 0.44755 0.52767 0.39551 0.0
H900 H 0.40794 0.57146 0.39744 0.0
H901 H 0.39169 0.53783 0.3179 0.0
O902 O 0.31391 0.46966 0.48108 0.0
H903 H 0.39622 0.46887 0.51344 0.0
H904 H 0.30017 0.42224 0.51712 0.0
H905 H 0.49306 0.56204 0.36037 0.0
H906 H 0.30131 0.53176 0.36279 0.0
H907 H 0.4878 0.58522 0.30359 0.0
H908 H 0.3342 0.58661 0.37542 0.0
O909 O 0.39772 0.47625 0.39362 0.0
H910 H 0.25105 0.38763 0.40204 0.0
H911 H 0.34164 0.4014 0.4669 0.0
H912 H 0.30433 0.35077 0.44425 0.0
H913 H 0.25858 0.34362 0.41164 0.0
H914 H 0.2891 0.43794 0.42483 0.0
H915 H 0.30093 0.40219 0.57773 0.0
H916 H 0.35013 0.41554 0.60644 0.0
O917 O 0.38028 0.45456 0.448 0.0
C918 C 0.40095 0.52563 0.46591 0.0
C919 C 0.37645 0.4431 0.56162 0.0
C920 C 0.32195 0.41678 0.5638 0.0
N921 N 0.34812 0.44656 0.5117 0.0
C922 C 0.37528 0.45413 0.52736 0.0
C923 C 0.32166 0.42826 0.52952 0.0
C924 C 0.34956 0.42427 0.57988 0.0
C925 C 0.33677 0.52142 0.3732 0.0
N926 N 0.36632 0.53249 0.38285 0.0
C927 C 0.32476 0.54067 0.37036 0.0
C928 C 0.34321 0.57144 0.3775 0.0
C929 C 0.37332 0.58256 0.38735 0.0
C930 C 0.38454 0.56263 0.38998 0.0
C931 C 0.43927 0.56304 0.30717 0.0
C932 C 0.44505 0.53741 0.37063 0.0
C933 C 0.41387 0.54306 0.32729 0.0
N934 N 0.41702 0.53091 0.3589 0.0
C935 C 0.47091 0.5569 0.35088 0.0
C936 C 0.46795 0.56987 0.31901 0.0
C937 C 0.39661 0.4593 0.41983 0.0
C938 C 0.27085 0.39044 0.41628 0.0
C939 C 0.32187 0.39851 0.45261 0.0
C940 C 0.30077 0.36976 0.43992 0.0
C941 C 0.27511 0.36576 0.42164 0.0
N942 N 0.31749 0.42258 0.44733 0.0
C943 C 0.29242 0.41885 0.42935 0.0
Co944 Co 0.88729 0.38317 0.88132 0.0
Co945 Co 0.88847 0.34665 0.95983 0.0
O946 O 0.87497 0.34631 0.90983 0.0
C947 C 0.9044 0.34932 0.82977 0.0
O948 O 0.92235 0.34817 0.85447 0.0
C949 C 0.82158 0.29887 0.95778 0.0
O950 O 0.81976 0.3057 0.92402 0.0
O951 O 0.87685 0.37716 0.97452 0.0
O952 O 0.88589 0.40552 0.9247 0.0
H953 H 0.94444 0.39704 0.07416 0.0
H954 H 0.8356 0.32622 0.85315 0.0
O955 O 0.88885 0.36198 0.8365 0.0
H956 H 0.79398 0.39338 0.87701 0.0
H957 H 0.88223 0.44342 0.77584 0.0
H958 H 0.93172 0.44805 0.89227 0.0
H959 H 0.84777 0.4108 0.88852 0.0
H960 H 0.86931 0.3965 0.80936 0.0
O961 O 0.84661 0.31302 0.97508 0.0
H962 H 0.92707 0.39531 0.01136 0.0
H963 H 0.87842 0.29919 0.0144 0.0
H964 H 0.94645 0.49518 0.85861 0.0
H965 H 0.7818 0.30814 0.84046 0.0
H966 H 0.92145 0.49302 0.80003 0.0
H967 H 0.76058 0.34173 0.85264 0.0
O968 O 0.93081 0.39737 0.89107 0.0
H969 H 0.87485 0.25278 0.89737 0.0
H970 H 0.94304 0.34088 0.97213 0.0
H971 H 0.95909 0.30465 0.95372 0.0
H972 H 0.92482 0.2601 0.91622 0.0
H973 H 0.85989 0.28969 0.91594 0.0
H974 H 0.89506 0.29988 0.07734 0.0
H975 H 0.92842 0.34906 0.10757 0.0
O976 O 0.93059 0.37982 0.947 0.0
C977 C 0.87969 0.40053 0.95823 0.0
C978 C 0.92998 0.37546 0.06125 0.0
C979 C 0.90223 0.32093 0.06305 0.0
N980 N 0.90192 0.34719 0.00917 0.0
C981 C 0.92014 0.37434 0.02566 0.0
C982 C 0.8928 0.32069 0.02745 0.0
C983 C 0.92096 0.34854 0.07999 0.0
C984 C 0.82666 0.34112 0.85822 0.0
N985 N 0.84486 0.36947 0.87191 0.0
C986 C 0.79611 0.33068 0.85112 0.0
C987 C 0.78421 0.34952 0.85801 0.0
C988 C 0.80292 0.37846 0.87177 0.0
C989 C 0.83335 0.38812 0.87855 0.0
C990 C 0.89359 0.4445 0.80101 0.0
C991 C 0.92108 0.44684 0.8665 0.0
C992 C 0.88623 0.41808 0.82025 0.0
N993 N 0.89953 0.41955 0.85293 0.0
C994 C 0.92946 0.47363 0.84762 0.0
C995 C 0.91546 0.4724 0.81475 0.0
C996 C 0.9445 0.39593 0.91932 0.0
C997 C 0.88988 0.27196 0.91399 0.0
C998 C 0.92791 0.32153 0.95589 0.0
C999 C 0.93716 0.30109 0.94554 0.0
C1000 C 0.91794 0.27611 0.9245 0.0
N1001 N 0.90018 0.31716 0.94586 0.0
C1002 C 0.88139 0.29288 0.92487 0.0
Co1003 Co 0.52482 0.8785 0.39048 0.0
Co1004 Co 0.56189 0.88384 0.47079 0.0
O1005 O 0.54934 0.86817 0.42165 0.0
C1006 C 0.572 0.90014 0.33177 0.0
O1007 O 0.58907 0.92555 0.34915 0.0
C1008 C 0.53004 0.81699 0.48399 0.0
O1009 O 0.50589 0.81492 0.46849 0.0
O1010 O 0.51974 0.87321 0.4842 0.0
O1011 O 0.49985 0.87795 0.43207 0.0
H1012 H 0.56686 0.9436 0.58122 0.0
H1013 H 0.53287 0.8264 0.37235 0.0
O1014 O 0.5485 0.87873 0.3468 0.0
H1015 H 0.42277 0.7835 0.38607 0.0
H1016 H 0.46663 0.87047 0.27715 0.0
H1017 H 0.50144 0.92134 0.39526 0.0
H1018 H 0.45767 0.83827 0.39355 0.0
H1019 H 0.49672 0.85766 0.31777 0.0
O1020 O 0.55402 0.84274 0.48712 0.0
H1021 H 0.55171 0.92433 0.51899 0.0
H1022 H 0.59861 0.87534 0.52766 0.0
H1023 H 0.47134 0.93504 0.35525 0.0
H1024 H 0.49876 0.7715 0.36432 0.0
H1025 H 0.45372 0.90959 0.29564 0.0
H1026 H 0.44328 0.74972 0.37126 0.0
O1027 O 0.55274 0.92252 0.39896 0.0
H1028 H 0.64145 0.86501 0.41711 0.0
H1029 H 0.6224 0.93928 0.47951 0.0
H1030 H 0.67458 0.95351 0.46255 0.0
H1031 H 0.68439 0.91619 0.43124 0.0
H1032 H 0.58955 0.85182 0.43423 0.0
H1033 H 0.61411 0.89392 0.59008 0.0
H1034 H 0.59829 0.92838 0.61721 0.0
O1035 O 0.57071 0.92526 0.45532 0.0
C1036 C 0.49887 0.87428 0.46623 0.0
C1037 C 0.57397 0.92866 0.56967 0.0
C1038 C 0.60045 0.90074 0.57466 0.0
N1039 N 0.57443 0.89889 0.51964 0.0
C1040 C 0.56553 0.91774 0.53441 0.0
C1041 C 0.59155 0.89024 0.53933 0.0
C1042 C 0.59158 0.92009 0.58985 0.0
C1043 C 0.50873 0.81711 0.37515 0.0
N1044 N 0.49728 0.83555 0.38328 0.0
C1045 C 0.48954 0.786 0.37069 0.0
C1046 C 0.45842 0.77379 0.37464 0.0
C1047 C 0.4469 0.79272 0.38297 0.0
C1048 C 0.46678 0.82372 0.38729 0.0
C1049 C 0.47422 0.88191 0.3029 0.0
C1050 C 0.49381 0.91015 0.36938 0.0
C1051 C 0.49133 0.87472 0.32606 0.0
N1052 N 0.50077 0.88867 0.35891 0.0
C1053 C 0.47681 0.91802 0.34683 0.0
C1054 C 0.46695 0.90375 0.31337 0.0
C1055 C 0.56778 0.93761 0.42661 0.0
C1056 C 0.63747 0.88144 0.43081 0.0
C1057 C 0.62645 0.92297 0.4657 0.0
C1058 C 0.65606 0.93113 0.45627 0.0
C1059 C 0.66155 0.91018 0.43872 0.0
N1060 N 0.60296 0.8947 0.45799 0.0
C1061 C 0.60815 0.87408 0.44066 0.0
Co1062 Co 0.49404 0.36567 0.10713 0.0
Co1063 Co 0.45855 0.33451 0.02583 0.0
O1064 O 0.47045 0.33113 0.0753 0.0
C1065 C 0.44425 0.33705 0.16221 0.0
O1066 O 0.42668 0.34317 0.14228 0.0
C1067 C 0.49126 0.30027 0.01743 0.0
O1068 O 0.51271 0.32104 0.03775 0.0
O1069 O 0.50056 0.36699 0.01346 0.0
O1070 O 0.51974 0.39072 0.06618 0.0
H1071 H 0.45333 0.38979 0.91577 0.0
H1072 H 0.48633 0.30562 0.12547 0.0
O1073 O 0.46953 0.34158 0.15005 0.0
H1074 H 0.59649 0.37388 0.11459 0.0
H1075 H 0.54768 0.41459 0.22321 0.0
H1076 H 0.51738 0.43188 0.10265 0.0
H1077 H 0.56128 0.39328 0.10613 0.0
H1078 H 0.51977 0.37218 0.18124 0.0
O1079 O 0.46812 0.3025 0.00935 0.0
H1080 H 0.46796 0.38534 0.97822 0.0
H1081 H 0.4237 0.28968 0.96794 0.0
H1082 H 0.54563 0.4752 0.14381 0.0
H1083 H 0.52076 0.28529 0.13444 0.0
H1084 H 0.56091 0.46673 0.20466 0.0
H1085 H 0.57627 0.31951 0.12888 0.0
O1086 O 0.46594 0.38152 0.09782 0.0
H1087 H 0.38015 0.23451 0.07754 0.0
H1088 H 0.39738 0.32766 0.01591 0.0
H1089 H 0.34537 0.2885 0.03184 0.0
H1090 H 0.33649 0.24147 0.06278 0.0
H1091 H 0.43184 0.27441 0.06144 0.0
H1092 H 0.40878 0.29309 0.90528 0.0
H1093 H 0.42352 0.34342 0.87886 0.0
O1094 O 0.44825 0.36603 0.04142 0.0
C1095 C 0.52109 0.3887 0.03196 0.0
C1096 C 0.4467 0.36772 0.92701 0.0
C1097 C 0.42173 0.31345 0.92111 0.0
N1098 N 0.44654 0.33728 0.97676 0.0
C1099 C 0.45485 0.36506 0.96238 0.0
C1100 C 0.43031 0.31166 0.95657 0.0
C1101 C 0.43 0.3417 0.90631 0.0
C1102 C 0.51048 0.3207 0.12335 0.0
N1103 N 0.52177 0.35062 0.11537 0.0
C1104 C 0.52985 0.30904 0.12832 0.0
C1105 C 0.56099 0.32824 0.12513 0.0
C1106 C 0.57235 0.35874 0.11708 0.0
C1107 C 0.55229 0.36959 0.11221 0.0
C1108 C 0.54124 0.41871 0.19682 0.0
C1109 C 0.52417 0.42806 0.12898 0.0
C1110 C 0.52538 0.39471 0.17289 0.0
N1111 N 0.51709 0.39956 0.13942 0.0
C1112 C 0.54008 0.45266 0.15221 0.0
C1113 C 0.54863 0.44789 0.18637 0.0
C1114 C 0.45079 0.38121 0.07005 0.0
C1115 C 0.38372 0.25487 0.06398 0.0
C1116 C 0.39372 0.30733 0.02951 0.0
C1117 C 0.36421 0.28519 0.03838 0.0
C1118 C 0.35924 0.2588 0.05573 0.0
N1119 N 0.41761 0.30326 0.03758 0.0
C1120 C 0.41293 0.2775 0.05469 0.0
Co1121 Co 0.13336 0.4907 0.61567 0.0
Co1122 Co 0.13502 0.45743 0.535 0.0
O1123 O 0.14738 0.46866 0.58551 0.0
C1124 C 0.10833 0.44863 0.67838 0.0
O1125 O 0.08127 0.44253 0.66794 0.0
C1126 C 0.20258 0.4912 0.52743 0.0
O1127 O 0.20338 0.51499 0.54221 0.0
O1128 O 0.14538 0.49975 0.52291 0.0
O1129 O 0.13566 0.51687 0.57423 0.0
H1130 H 0.08257 0.45529 0.41882 0.0
H1131 H 0.18591 0.48502 0.63891 0.0
O1132 O 0.13137 0.46533 0.65872 0.0
H1133 H 0.2242 0.5948 0.63075 0.0
H1134 H 0.12765 0.54083 0.73018 0.0
H1135 H 0.08875 0.51125 0.60593 0.0
H1136 H 0.17075 0.55819 0.61726 0.0
H1137 H 0.14734 0.51594 0.69065 0.0
O1138 O 0.17734 0.46693 0.52278 0.0
H1139 H 0.09729 0.46834 0.48279 0.0
H1140 H 0.1485 0.42351 0.47922 0.0
H1141 H 0.069 0.53699 0.64436 0.0
H1142 H 0.23949 0.52086 0.65295 0.0
H1143 H 0.08838 0.55187 0.70715 0.0
H1144 H 0.25896 0.57618 0.64884 0.0
O1145 O 0.09072 0.46147 0.60277 0.0
H1146 H 0.15312 0.37789 0.59075 0.0
H1147 H 0.08168 0.39639 0.52043 0.0
H1148 H 0.06796 0.34403 0.53597 0.0
H1149 H 0.10387 0.3345 0.57126 0.0
H1150 H 0.16579 0.42994 0.57496 0.0
H1151 H 0.13449 0.41014 0.41515 0.0
H1152 H 0.10121 0.42598 0.38456 0.0
O1153 O 0.0922 0.44667 0.54601 0.0
C1154 C 0.1422 0.51948 0.54066 0.0
C1155 C 0.097 0.44817 0.43188 0.0
C1156 C 0.12618 0.42287 0.4298 0.0
N1157 N 0.12353 0.44649 0.48479 0.0
C1158 C 0.10534 0.45542 0.46812 0.0
C1159 C 0.13409 0.43056 0.46607 0.0
C1160 C 0.10749 0.43175 0.41267 0.0
C1161 C 0.19417 0.50907 0.63732 0.0
N1162 N 0.17518 0.51949 0.62746 0.0
C1163 C 0.22455 0.52925 0.64519 0.0
C1164 C 0.23547 0.56029 0.64284 0.0
C1165 C 0.21598 0.57075 0.63267 0.0
C1166 C 0.18575 0.5499 0.62497 0.0
C1167 C 0.11914 0.5347 0.70291 0.0
C1168 C 0.09753 0.51797 0.63307 0.0
C1169 C 0.13012 0.52042 0.68042 0.0
N1170 N 0.11921 0.51212 0.64601 0.0
C1171 C 0.08619 0.53245 0.65474 0.0
C1172 C 0.09707 0.54079 0.68995 0.0
C1173 C 0.07772 0.44752 0.57374 0.0
C1174 C 0.13731 0.38175 0.57531 0.0
C1175 C 0.09734 0.39246 0.53601 0.0
C1176 C 0.08949 0.36275 0.54462 0.0
C1177 C 0.10965 0.35741 0.5644 0.0
N1178 N 0.12455 0.41621 0.54671 0.0
C1179 C 0.14439 0.41116 0.56622 0.0
Co1180 Co 0.64335 0.13595 0.10745 0.0
Co1181 Co 0.6772 0.12815 0.03027 0.0
O1182 O 0.67908 0.1448 0.07867 0.0
C1183 C 0.67415 0.11639 0.16058 0.0
O1184 O 0.67396 0.09735 0.13654 0.0
C1185 C 0.71748 0.19527 0.0219 0.0
O1186 O 0.70092 0.19923 0.04598 0.0
O1187 O 0.64678 0.13929 0.0136 0.0
O1188 O 0.62128 0.13755 0.06377 0.0
H1189 H 0.62437 0.06586 0.92049 0.0
H1190 H 0.70304 0.18595 0.13133 0.0
O1191 O 0.66417 0.1341 0.15252 0.0
H1192 H 0.64157 0.23388 0.1062 0.0
H1193 H 0.58977 0.14928 0.21406 0.0
H1194 H 0.57714 0.09538 0.09889 0.0
H1195 H 0.61996 0.1789 0.09829 0.0
H1196 H 0.63429 0.15809 0.17847 0.0
O1197 O 0.71093 0.1686 0.01251 0.0
H1198 H 0.62742 0.08707 0.98137 0.0
H1199 H 0.72343 0.13414 0.97638 0.0
H1200 H 0.53202 0.08509 0.1343 0.0
H1201 H 0.72538 0.24095 0.1402 0.0
H1202 H 0.53818 0.11227 0.19227 0.0
H1203 H 0.69462 0.26529 0.12743 0.0
O1204 O 0.62581 0.09144 0.10029 0.0
H1205 H 0.77325 0.14685 0.09094 0.0
H1206 H 0.68155 0.07201 0.0262 0.0
H1207 H 0.71824 0.05741 0.04779 0.0
H1208 H 0.76454 0.095 0.08034 0.0
H1209 H 0.73581 0.16039 0.06917 0.0
H1210 H 0.72143 0.11362 0.91533 0.0
H1211 H 0.67162 0.07912 0.88706 0.0
O1212 O 0.6439 0.08733 0.04642 0.0
C1213 C 0.62499 0.13998 0.02962 0.0
C1214 C 0.6462 0.08079 0.93257 0.0
C1215 C 0.70068 0.10764 0.92965 0.0
N1216 N 0.67556 0.11166 0.98249 0.0
C1217 C 0.64808 0.09281 0.96706 0.0
C1218 C 0.70167 0.11924 0.96419 0.0
C1219 C 0.67273 0.08827 0.91381 0.0
C1220 C 0.68939 0.19631 0.12613 0.0
N1221 N 0.66022 0.17919 0.11431 0.0
C1222 C 0.70222 0.2275 0.13101 0.0
C1223 C 0.68497 0.24115 0.12377 0.0
C1224 C 0.65522 0.22354 0.1118 0.0
C1225 C 0.64315 0.19243 0.10717 0.0
C1226 C 0.58679 0.13713 0.18899 0.0
C1227 C 0.58001 0.1071 0.12424 0.0
C1228 C 0.61191 0.14208 0.16867 0.0
N1229 N 0.6083 0.12749 0.13645 0.0
C1230 C 0.55437 0.10121 0.14415 0.0
C1231 C 0.55785 0.11645 0.17667 0.0
C1232 C 0.62698 0.07567 0.07416 0.0
C1233 C 0.75322 0.1303 0.07669 0.0
C1234 C 0.70159 0.08847 0.04042 0.0
C1235 C 0.72232 0.08009 0.05252 0.0
C1236 C 0.7483 0.10119 0.07077 0.0
N1237 N 0.70664 0.1171 0.04622 0.0
C1238 C 0.732 0.13788 0.06418 0.0
Co1239 Co 0.52632 0.63749 0.62471 0.0
Co1240 Co 0.56228 0.67403 0.54603 0.0
O1241 O 0.54935 0.67424 0.59585 0.0
C1242 C 0.56532 0.65398 0.69029 0.0
O1243 O 0.57045 0.63187 0.68229 0.0
C1244 C 0.52998 0.70915 0.53586 0.0
O1245 O 0.50525 0.68593 0.54866 0.0
O1246 O 0.52021 0.64324 0.53188 0.0
O1247 O 0.50214 0.61427 0.58164 0.0
H1248 H 0.56706 0.62568 0.42965 0.0
H1249 H 0.53008 0.69497 0.6475 0.0
O1250 O 0.54964 0.66041 0.66891 0.0
H1251 H 0.42112 0.62249 0.63291 0.0
H1252 H 0.47045 0.57804 0.7355 0.0
H1253 H 0.50699 0.57286 0.61381 0.0
H1254 H 0.45882 0.60659 0.62214 0.0
H1255 H 0.49778 0.62416 0.69824 0.0
O1256 O 0.55433 0.70798 0.53351 0.0
H1257 H 0.55193 0.62624 0.49293 0.0
H1258 H 0.59914 0.72239 0.49235 0.0
H1259 H 0.47942 0.52624 0.65005 0.0
H1260 H 0.49313 0.71177 0.65886 0.0
H1261 H 0.46098 0.52869 0.71148 0.0
H1262 H 0.43821 0.67541 0.65151 0.0
O1263 O 0.55655 0.62476 0.61412 0.0
H1264 H 0.64145 0.76934 0.60613 0.0
H1265 H 0.623 0.68008 0.53469 0.0
H1266 H 0.6751 0.71725 0.55302 0.0
H1267 H 0.6846 0.76235 0.58889 0.0
H1268 H 0.58964 0.73141 0.58754 0.0
H1269 H 0.6146 0.72287 0.42898 0.0
H1270 H 0.59863 0.67426 0.39725 0.0
O1271 O 0.57135 0.64073 0.55726 0.0
C1272 C 0.50026 0.61954 0.54825 0.0
C1273 C 0.57425 0.64701 0.44322 0.0
C1274 C 0.6009 0.70156 0.44283 0.0
N1275 N 0.57484 0.67431 0.4964 0.0
C1276 C 0.56583 0.64748 0.47908 0.0
C1277 C 0.59202 0.70115 0.47869 0.0
C1278 C 0.59194 0.67427 0.42505 0.0
C1279 C 0.50621 0.67896 0.6445 0.0
N1280 N 0.49663 0.64979 0.63435 0.0
C1281 C 0.4854 0.68863 0.65086 0.0
C1282 C 0.45459 0.66823 0.64669 0.0
C1283 C 0.44499 0.63853 0.63623 0.0
C1284 C 0.46645 0.62968 0.63008 0.0
C1285 C 0.47829 0.57673 0.7088 0.0
C1286 C 0.49886 0.5741 0.64041 0.0
C1287 C 0.49383 0.60275 0.68759 0.0
N1288 N 0.5039 0.6012 0.65382 0.0
C1289 C 0.48332 0.54762 0.66083 0.0
C1290 C 0.473 0.54901 0.69528 0.0
C1291 C 0.57026 0.62528 0.58508 0.0
C1292 C 0.6376 0.74981 0.59045 0.0
C1293 C 0.62691 0.69953 0.55049 0.0
C1294 C 0.65648 0.72056 0.56069 0.0
C1295 C 0.6618 0.74586 0.58079 0.0
N1296 N 0.60331 0.70362 0.55994 0.0
C1297 C 0.60833 0.72831 0.57977 0.0
Co1298 Co 0.88461 0.52288 0.11504 0.0
Co1299 Co 0.88642 0.56006 0.03579 0.0
O1300 O 0.87252 0.54694 0.08548 0.0
C1301 C 0.91011 0.56461 0.17838 0.0
O1302 O 0.93732 0.57231 0.16684 0.0
C1303 C 0.81911 0.52642 0.02508 0.0
O1304 O 0.81814 0.50233 0.03929 0.0
O1305 O 0.8766 0.51832 0.02153 0.0
O1306 O 0.8821 0.49762 0.07265 0.0
H1307 H 0.94291 0.56713 0.92149 0.0
H1308 H 0.83324 0.53056 0.13803 0.0
O1309 O 0.8869 0.54734 0.1592 0.0
H1310 H 0.79063 0.42042 0.12475 0.0
H1311 H 0.88376 0.46657 0.22718 0.0
H1312 H 0.92744 0.5 0.1055 0.0
H1313 H 0.84478 0.45565 0.11336 0.0
H1314 H 0.86783 0.49534 0.18862 0.0
O1315 O 0.84439 0.55095 0.0219 0.0
H1316 H 0.92606 0.55146 0.98439 0.0
H1317 H 0.87465 0.59609 0.98107 0.0
H1318 H 0.94393 0.4709 0.14324 0.0
H1319 H 0.77898 0.49611 0.15001 0.0
H1320 H 0.92211 0.45402 0.20473 0.0
H1321 H 0.75734 0.44061 0.14332 0.0
O1322 O 0.92791 0.55094 0.10359 0.0
H1323 H 0.86632 0.63735 0.09381 0.0
H1324 H 0.94031 0.62151 0.02568 0.0
H1325 H 0.95348 0.67322 0.04367 0.0
H1326 H 0.91629 0.6814 0.07787 0.0
H1327 H 0.8542 0.58596 0.0756 0.0
H1328 H 0.89078 0.61208 0.91805 0.0
H1329 H 0.92524 0.59767 0.8879 0.0
O1330 O 0.9288 0.57022 0.04862 0.0
C1331 C 0.87785 0.49715 0.03861 0.0
C1332 C 0.92797 0.57364 0.93438 0.0
C1333 C 0.89868 0.59882 0.93243 0.0
N1334 N 0.89958 0.57303 0.98646 0.0
C1335 C 0.91842 0.5649 0.97002 0.0
C1336 C 0.88957 0.58965 0.96809 0.0
C1337 C 0.91802 0.59074 0.91553 0.0
C1338 C 0.82402 0.50642 0.13533 0.0
N1339 N 0.8422 0.49513 0.1252 0.0
C1340 C 0.79327 0.48703 0.14203 0.0
C1341 C 0.78113 0.4559 0.13823 0.0
C1342 C 0.79979 0.44456 0.12779 0.0
C1343 C 0.83043 0.46463 0.12127 0.0
C1344 C 0.89351 0.47373 0.20059 0.0
C1345 C 0.91775 0.49259 0.13214 0.0
C1346 C 0.88459 0.49014 0.1786 0.0
N1347 N 0.89666 0.49933 0.14483 0.0
C1348 C 0.92722 0.47617 0.15341 0.0
C1349 C 0.91499 0.46672 0.1879 0.0
C1350 C 0.94208 0.56675 0.07605 0.0
C1351 C 0.88269 0.63408 0.07885 0.0
C1352 C 0.92407 0.62486 0.04075 0.0
C1353 C 0.93162 0.6542 0.05076 0.0
C1354 C 0.91074 0.65878 0.06993 0.0
N1355 N 0.89646 0.60075 0.04948 0.0
C1356 C 0.87592 0.60505 0.06839 0.0
Co1357 Co 0.38409 0.88969 0.61668 0.0
Co1358 Co 0.34608 0.88516 0.53657 0.0
O1359 O 0.34649 0.87395 0.58797 0.0
C1360 C 0.33891 0.89069 0.67076 0.0
O1361 O 0.31611 0.88016 0.64798 0.0
C1362 C 0.30104 0.81728 0.54048 0.0
O1363 O 0.30769 0.81628 0.57457 0.0
O1364 O 0.37816 0.87518 0.52384 0.0
O1365 O 0.40592 0.88582 0.5744 0.0
H1366 H 0.39469 0.93759 0.41984 0.0
H1367 H 0.32748 0.83648 0.64453 0.0
O1368 O 0.36464 0.89474 0.66115 0.0
H1369 H 0.40184 0.802 0.63623 0.0
H1370 H 0.44719 0.90253 0.72761 0.0
H1371 H 0.44834 0.93365 0.60099 0.0
H1372 H 0.41586 0.85402 0.61889 0.0
H1373 H 0.3999 0.88071 0.69216 0.0
O1374 O 0.31423 0.8422 0.52292 0.0
H1375 H 0.39389 0.92318 0.4838 0.0
H1376 H 0.29792 0.87066 0.48119 0.0
H1377 H 0.49613 0.95539 0.63531 0.0
H1378 H 0.31267 0.78453 0.66284 0.0
H1379 H 0.49571 0.93986 0.69921 0.0
H1380 H 0.34992 0.76684 0.65862 0.0
O1381 O 0.3962 0.93189 0.60292 0.0
H1382 H 0.24896 0.8671 0.59419 0.0
H1383 H 0.337 0.93739 0.52077 0.0
H1384 H 0.29824 0.95084 0.53608 0.0
H1385 H 0.2537 0.9155 0.57289 0.0
H1386 H 0.28843 0.85478 0.57877 0.0
H1387 H 0.29771 0.88431 0.41712 0.0
H1388 H 0.34634 0.91811 0.38606 0.0
O1389 O 0.3776 0.92848 0.54701 0.0
C1390 C 0.40136 0.87865 0.54111 0.0
C1391 C 0.37334 0.92293 0.4331 0.0
C1392 C 0.31892 0.89298 0.43156 0.0
N1393 N 0.34589 0.89628 0.4863 0.0
C1394 C 0.37274 0.91475 0.46935 0.0
C1395 C 0.31919 0.88527 0.46782 0.0
C1396 C 0.34621 0.91196 0.41416 0.0
C1397 C 0.344 0.82928 0.64307 0.0
N1398 N 0.37258 0.84853 0.63078 0.0
C1399 C 0.3354 0.79966 0.65327 0.0
C1400 C 0.35628 0.78973 0.65082 0.0
C1401 C 0.38538 0.80942 0.63821 0.0
C1402 C 0.39315 0.83886 0.62824 0.0
C1403 C 0.44762 0.90927 0.69979 0.0
C1404 C 0.44799 0.92647 0.62864 0.0
C1405 C 0.42092 0.8971 0.67958 0.0
N1406 N 0.42136 0.90569 0.64439 0.0
C1407 C 0.47512 0.93898 0.64798 0.0
C1408 C 0.47487 0.93028 0.68382 0.0
C1409 C 0.39382 0.94394 0.57379 0.0
C1410 C 0.26816 0.88261 0.57793 0.0
C1411 C 0.31779 0.92189 0.53691 0.0
C1412 C 0.29585 0.92963 0.54542 0.0
C1413 C 0.27086 0.90979 0.56605 0.0
N1414 N 0.3149 0.89506 0.54843 0.0
C1415 C 0.29055 0.87563 0.56887 0.0
C1416 C 0.33372 0.46113 0.2356 0.0
C1417 C 0.34384 0.44261 0.22005 0.0
H1418 H 0.32743 0.47988 0.28447 0.0
C1419 C 0.34967 0.42397 0.24284 0.0
H1420 H 0.32886 0.47567 0.2189 0.0
C1421 C 0.34818 0.42595 0.28052 0.0
C1422 C 0.3414 0.44701 0.29595 0.0
H1423 H 0.35731 0.40932 0.23167 0.0
H1424 H 0.35486 0.4129 0.29745 0.0
C1425 C 0.33293 0.46362 0.2732 0.0
C1426 C 0.93615 0.34748 0.73856 0.0
C1427 C 0.91108 0.34001 0.71605 0.0
H1428 H 0.95348 0.35559 0.79286 0.0
C1429 C 0.88261 0.32975 0.73212 0.0
H1430 H 0.95834 0.35523 0.72702 0.0
C1431 C 0.88004 0.33066 0.76968 0.0
C1432 C 0.90565 0.34086 0.79192 0.0
H1433 H 0.86274 0.32355 0.7157 0.0
H1434 H 0.85833 0.32509 0.78121 0.0
C1435 C 0.93339 0.34763 0.77627 0.0
C1436 C 0.55432 0.87278 0.2728 0.0
C1437 C 0.57517 0.89876 0.29196 0.0
H1438 H 0.53404 0.85389 0.22163 0.0
C1439 C 0.59548 0.92468 0.27221 0.0
H1440 H 0.53863 0.85223 0.28696 0.0
C1441 C 0.59308 0.92544 0.23441 0.0
C1442 C 0.57015 0.9004 0.2159 0.0
H1443 H 0.61191 0.94505 0.28605 0.0
H1444 H 0.60769 0.9463 0.22011 0.0
C1445 C 0.55165 0.8737 0.23528 0.0
C1446 C 0.68197 0.54999 0.76964 0.0
C1447 C 0.67027 0.56773 0.78352 0.0
H1448 H 0.69257 0.53302 0.7222 0.0
C1449 C 0.66554 0.58652 0.75968 0.0
H1450 H 0.68594 0.53529 0.78719 0.0
C1451 C 0.66999 0.58565 0.72238 0.0
C1452 C 0.67866 0.56554 0.7083 0.0
H1453 H 0.65669 0.60055 0.76957 0.0
H1454 H 0.66422 0.59884 0.70444 0.0
C1455 C 0.68575 0.54864 0.73236 0.0
C1456 C 0.10635 0.65748 0.27494 0.0
C1457 C 0.12617 0.68371 0.29424 0.0
H1458 H 0.091 0.63668 0.22336 0.0
C1459 C 0.14329 0.71102 0.27523 0.0
H1460 H 0.09263 0.63619 0.28892 0.0
C1461 C 0.14249 0.7113 0.23711 0.0
C1462 C 0.12451 0.68428 0.21788 0.0
H1463 H 0.15884 0.73151 0.28954 0.0
H1464 H 0.15745 0.73203 0.22279 0.0
C1465 C 0.10545 0.65778 0.23732 0.0
C1466 C 0.43992 0.13885 0.75492 0.0
C1467 C 0.45019 0.12113 0.7725 0.0
H1468 H 0.43381 0.15553 0.70375 0.0
C1469 C 0.45752 0.10275 0.75157 0.0
H1470 H 0.43417 0.15327 0.77045 0.0
C1471 C 0.45729 0.10403 0.71399 0.0
C1472 C 0.44968 0.12368 0.69623 0.0
H1473 H 0.46509 0.0885 0.76428 0.0
H1474 H 0.46474 0.09078 0.69876 0.0
C1475 C 0.43966 0.14012 0.71685 0.0
C1476 C 0.55487 0.67933 0.7417 0.0
C1477 C 0.57128 0.66625 0.72762 0.0
H1478 H 0.54011 0.69218 0.78928 0.0
C1479 C 0.58998 0.66106 0.75107 0.0
H1480 H 0.54029 0.68371 0.72442 0.0
C1481 C 0.59025 0.66644 0.78828 0.0
C1482 C 0.57145 0.67662 0.80273 0.0
H1483 H 0.60306 0.65119 0.74101 0.0
H1484 H 0.60328 0.66025 0.80596 0.0
C1485 C 0.55476 0.68421 0.77891 0.0
C1486 C 0.87702 0.54859 0.27237 0.0
C1487 C 0.90289 0.56643 0.29348 0.0
H1488 H 0.85864 0.53487 0.21917 0.0
C1489 C 0.92963 0.58782 0.27621 0.0
H1490 H 0.85602 0.53207 0.28503 0.0
C1491 C 0.93133 0.58905 0.23835 0.0
C1492 C 0.90617 0.56927 0.21717 0.0
H1493 H 0.94992 0.60185 0.2918 0.0
H1494 H 0.95289 0.60415 0.22574 0.0
C1495 C 0.87854 0.55025 0.23458 0.0
C1496 C 0.30712 0.87542 0.72765 0.0
C1497 C 0.33481 0.89384 0.7099 0.0
H1498 H 0.28497 0.85794 0.77891 0.0
C1499 C 0.36056 0.91242 0.73078 0.0
H1500 H 0.28695 0.86078 0.71221 0.0
C1501 C 0.35947 0.91062 0.76837 0.0
C1502 C 0.33256 0.8904 0.7862 0.0
H1503 H 0.38215 0.92717 0.71798 0.0
H1504 H 0.38022 0.92403 0.78348 0.0
C1505 C 0.30599 0.87376 0.76573 0.0
C1506 C 0.43654 0.31451 0.2609 0.0
C1507 C 0.45099 0.34326 0.27718 0.0
H1508 H 0.42327 0.28981 0.21058 0.0
C1509 C 0.45955 0.36901 0.25571 0.0
H1510 H 0.4301 0.29441 0.27699 0.0
C1511 C 0.45479 0.36629 0.21842 0.0
C1512 C 0.44208 0.33786 0.20176 0.0
H1513 H 0.47083 0.39141 0.26767 0.0
H1514 H 0.46278 0.38665 0.20227 0.0
C1515 C 0.43258 0.31186 0.22314 0.0
C1516 C 0.08793 0.42462 0.73876 0.0
C1517 C 0.11288 0.44363 0.71688 0.0
H1518 H 0.07047 0.41265 0.79275 0.0
C1519 C 0.14115 0.46187 0.73345 0.0
H1520 H 0.06591 0.41014 0.72679 0.0
C1521 C 0.14359 0.46368 0.77116 0.0
C1522 C 0.11803 0.44673 0.79301 0.0
H1523 H 0.16089 0.47669 0.71746 0.0
H1524 H 0.16511 0.47972 0.78321 0.0
C1525 C 0.09055 0.42597 0.77656 0.0
C1526 C 0.68542 0.13367 0.25998 0.0
C1527 C 0.67259 0.10437 0.27475 0.0
H1528 H 0.696 0.16039 0.21175 0.0
C1529 C 0.66616 0.08 0.25159 0.0
H1530 H 0.69083 0.15302 0.27698 0.0
C1531 C 0.66971 0.08441 0.21408 0.0
C1532 C 0.67928 0.11316 0.19924 0.0
H1533 H 0.65647 0.0572 0.26217 0.0
H1534 H 0.66242 0.06489 0.19667 0.0
C1535 C 0.6884 0.13795 0.22256 0.0
C1536 C 0.25174 0.52069 0.99761 0.0
C1537 C 0.22454 0.49379 0.99015 0.0
H1538 H 0.29769 0.54092 0.01618 0.0
C1539 C 0.22347 0.46598 0.99585 0.0
H1540 H 0.25336 0.5425 0.99365 0.0
C1541 C 0.24898 0.46509 0.00831 0.0
C1542 C 0.27614 0.49197 0.01601 0.0
H1543 H 0.20295 0.44481 0.99034 0.0
H1544 H 0.24734 0.44325 0.01213 0.0
C1545 C 0.27714 0.51979 0.01068 0.0
C1546 C 0.73839 0.23888 0.52295 0.0
C1547 C 0.73834 0.21815 0.49777 0.0
H1548 H 0.76466 0.28018 0.55244 0.0
C1549 C 0.76598 0.22447 0.48201 0.0
H1550 H 0.71754 0.23477 0.53564 0.0
C1551 C 0.79305 0.25042 0.49187 0.0
C1552 C 0.79318 0.27088 0.51752 0.0
H1553 H 0.76687 0.20901 0.46265 0.0
H1554 H 0.81395 0.25427 0.47959 0.0
C1555 C 0.76544 0.26497 0.53258 0.0
C1556 C 0.49209 0.76444 0.01717 0.0
C1557 C 0.5193 0.79128 0.02478 0.0
H1558 H 0.47102 0.71835 0.99899 0.0
C1559 C 0.54675 0.79141 0.02034 0.0
H1560 H 0.47055 0.76356 0.02015 0.0
C1561 C 0.54701 0.7654 0.00867 0.0
C1562 C 0.51984 0.73867 0.00056 0.0
H1563 H 0.56815 0.81164 0.026 0.0
H1564 H 0.5686 0.76639 0.00557 0.0
C1565 C 0.49237 0.73854 0.00489 0.0
C1566 C 0.74329 0.49041 0.50724 0.0
C1567 C 0.74401 0.51794 0.51373 0.0
H1568 H 0.76777 0.46855 0.48992 0.0
C1569 C 0.77127 0.54516 0.50779 0.0
H1570 H 0.72267 0.46903 0.51143 0.0
C1571 C 0.79718 0.54488 0.49591 0.0
C1572 C 0.79644 0.51737 0.48912 0.0
H1573 H 0.7727 0.56679 0.51258 0.0
H1574 H 0.81778 0.5663 0.49178 0.0
C1575 C 0.76913 0.49013 0.49478 0.0
C1576 C 0.27789 0.76397 0.99247 0.0
C1577 C 0.27771 0.7913 0.98793 0.0
H1578 H 0.25354 0.71763 0.00997 0.0
C1579 C 0.2517 0.79229 0.99839 0.0
H1580 H 0.29754 0.76239 0.98484 0.0
C1581 C 0.22648 0.76664 0.01261 0.0
C1582 C 0.22658 0.73928 0.01713 0.0
H1583 H 0.25068 0.81289 0.99533 0.0
H1584 H 0.20681 0.76829 0.02002 0.0
C1585 C 0.25269 0.73832 0.00707 0.0
C1586 C 0.47093 0.22513 0.48571 0.0
C1587 C 0.49741 0.22516 0.49651 0.0
H1588 H 0.45127 0.25068 0.46492 0.0
C1589 C 0.52527 0.25229 0.49337 0.0
H1590 H 0.44906 0.20471 0.48774 0.0
C1591 C 0.52659 0.27867 0.47982 0.0
C1592 C 0.50004 0.27872 0.46948 0.0
H1593 H 0.54614 0.25316 0.50131 0.0
H1594 H 0.5484 0.29916 0.47798 0.0
C1595 C 0.4722 0.25156 0.47259 0.0
C1596 C 0.76414 0.49759 0.00659 0.0
C1597 C 0.79082 0.52537 0.0126 0.0
H1598 H 0.71759 0.47507 0.98984 0.0
C1599 C 0.7903 0.55233 0.0063 0.0
H1600 H 0.76375 0.47641 0.01105 0.0
C1601 C 0.76378 0.55156 0.99464 0.0
C1602 C 0.73715 0.52381 0.98835 0.0
H1603 H 0.81038 0.57413 0.0107 0.0
H1604 H 0.76424 0.5728 0.99028 0.0
C1605 C 0.7377 0.49683 0.99429 0.0
C1606 C 0.22593 0.74472 0.52702 0.0
C1607 C 0.22638 0.73922 0.48978 0.0
H1608 H 0.24951 0.77314 0.57236 0.0
C1609 C 0.25195 0.75925 0.46943 0.0
H1610 H 0.20655 0.72969 0.5434 0.0
C1611 C 0.27618 0.78468 0.48582 0.0
C1612 C 0.27582 0.79 0.52314 0.0
H1613 H 0.25286 0.7557 0.44065 0.0
H1614 H 0.29529 0.80009 0.46933 0.0
C1615 C 0.25058 0.76953 0.54362 0.0
C1616 C 0.47321 0.22667 0.97037 0.0
C1617 C 0.49401 0.21981 0.98669 0.0
H1618 H 0.45585 0.25722 0.96738 0.0
C1619 C 0.51476 0.24038 0.01195 0.0
H1620 H 0.45679 0.21129 0.95096 0.0
C1621 C 0.51437 0.26683 0.02117 0.0
C1622 C 0.49299 0.27325 0.00569 0.0
H1623 H 0.53111 0.23587 0.02504 0.0
H1624 H 0.53038 0.28186 0.04116 0.0
C1625 C 0.47258 0.25297 0.97992 0.0
C1626 C 0.25794 0.5199 0.5109 0.0
C1627 C 0.23097 0.4922 0.51581 0.0
H1628 H 0.30467 0.54224 0.49508 0.0
C1629 C 0.23117 0.46517 0.50897 0.0
H1630 H 0.25855 0.54113 0.51582 0.0
C1631 C 0.25763 0.46579 0.4976 0.0
C1632 C 0.28451 0.49346 0.4922 0.0
H1633 H 0.21085 0.44341 0.51256 0.0
H1634 H 0.25688 0.44449 0.49261 0.0
C1635 C 0.28435 0.52054 0.4989 0.0
C1636 C 0.77668 0.24663 0.95375 0.0
C1637 C 0.79509 0.27251 0.97459 0.0
H1638 H 0.73826 0.20165 0.95266 0.0
C1639 C 0.78786 0.27278 0.01125 0.0
H1640 H 0.78183 0.2457 0.92549 0.0
C1641 C 0.76228 0.24792 0.0265 0.0
C1642 C 0.74414 0.22188 0.00572 0.0
H1643 H 0.80166 0.29243 0.02792 0.0
H1644 H 0.75698 0.24883 0.05471 0.0
C1645 C 0.75182 0.22139 0.96931 0.0
C1646 C 0.50243 0.76208 0.50277 0.0
C1647 C 0.5298 0.78937 0.49762 0.0
H1648 H 0.48093 0.71553 0.51941 0.0
C1649 C 0.55711 0.79006 0.5056 0.0
H1650 H 0.48098 0.76076 0.49699 0.0
C1651 C 0.5571 0.76407 0.51798 0.0
C1652 C 0.52975 0.7368 0.52329 0.0
H1653 H 0.57862 0.81064 0.50188 0.0
H1654 H 0.57859 0.76542 0.52355 0.0
C1655 C 0.5024 0.73617 0.51577 0.0
C1656 C 0.40157 0.41479 0.04302 0.0
C1657 C 0.40227 0.43075 0.07442 0.0
H1658 H 0.41616 0.38687 0.01691 0.0
C1659 C 0.41977 0.43087 0.10404 0.0
H1660 H 0.38853 0.41426 0.01957 0.0
C1661 C 0.43571 0.41511 0.10252 0.0
C1662 C 0.43463 0.39879 0.07131 0.0
H1663 H 0.42116 0.44309 0.12859 0.0
H1664 H 0.44871 0.4156 0.12599 0.0
C1665 C 0.41749 0.39903 0.0415 0.0
C1666 C 0.02748 0.43334 0.60165 0.0
C1667 C 0.04405 0.43103 0.57263 0.0
H1668 H 0.98406 0.41933 0.62461 0.0
C1669 C 0.02804 0.41236 0.54315 0.0
H1670 H 0.03888 0.44778 0.62463 0.0
C1671 C 0.99633 0.39588 0.54315 0.0
C1672 C 0.97983 0.39768 0.57262 0.0
H1673 H 0.03997 0.41015 0.52018 0.0
H1674 H 0.9848 0.3815 0.52016 0.0
C1675 C 0.99587 0.41693 0.60165 0.0
C1676 C 0.59213 0.99232 0.04986 0.0
C1677 C 0.57588 0.97768 0.08141 0.0
H1678 H 0.62066 0.03418 0.02277 0.0
C1679 C 0.57592 0.99567 0.11033 0.0
H1680 H 0.59261 0.97939 0.02689 0.0
C1681 C 0.59207 0.0274 0.10789 0.0
C1682 C 0.60867 0.04198 0.07648 0.0
H1683 H 0.56361 0.98528 0.13501 0.0
H1684 H 0.5918 0.04047 0.13082 0.0
C1685 C 0.60829 0.02393 0.04747 0.0
C1686 C 0.61714 0.5911 0.55144 0.0
C1687 C 0.61539 0.57248 0.58065 0.0
H1688 H 0.60447 0.62213 0.52981 0.0
C1689 C 0.59816 0.571 0.61111 0.0
H1690 H 0.63008 0.59283 0.52743 0.0
C1691 C 0.58345 0.58798 0.61251 0.0
C1692 C 0.58555 0.6069 0.58347 0.0
H1693 H 0.59623 0.55694 0.63412 0.0
H1694 H 0.57048 0.58627 0.63647 0.0
C1695 C 0.60242 0.60802 0.55281 0.0
C1696 C 0.99108 0.57777 0.10541 0.0
C1697 C 0.97577 0.58215 0.07635 0.0
H1698 H 0.03353 0.58904 0.12958 0.0
C1699 C 0.99305 0.60165 0.04804 0.0
H1700 H 0.97867 0.56269 0.12754 0.0
C1701 C 0.02475 0.61677 0.04915 0.0
C1702 C 0.04001 0.61282 0.07862 0.0
H1703 H 0.98213 0.60548 0.02509 0.0
H1704 H 0.03726 0.63174 0.02698 0.0
C1705 C 0.0227 0.59291 0.10657 0.0
C1706 C 0.44567 0.02713 0.59712 0.0
C1707 C 0.44207 0.04199 0.56699 0.0
H1708 H 0.4335 0.98496 0.62293 0.0
C1709 C 0.42282 0.02421 0.53873 0.0
H1710 H 0.4603 0.03993 0.61941 0.0
C1711 C 0.40742 0.9925 0.54072 0.0
C1712 C 0.4107 0.97766 0.5711 0.0
H1713 H 0.4195 0.03474 0.51501 0.0
H1714 H 0.39277 0.97967 0.51846 0.0
C1715 C 0.43019 0.99546 0.59916 0.0
C1716 C 0.57404 0.59501 0.89869 0.0
C1717 C 0.57406 0.61052 0.9302 0.0
H1718 H 0.59001 0.56817 0.87253 0.0
C1719 C 0.59059 0.60988 0.96046 0.0
H1720 H 0.5616 0.59494 0.87485 0.0
C1721 C 0.60693 0.59456 0.95912 0.0
C1722 C 0.60735 0.57948 0.92745 0.0
H1723 H 0.59114 0.62142 0.9853 0.0
H1724 H 0.61944 0.5948 0.98297 0.0
C1725 C 0.59047 0.57971 0.89733 0.0
C1726 C 0.99587 0.58827 0.45356 0.0
C1727 C 0.97978 0.57137 0.42299 0.0
H1728 H 0.03885 0.6173 0.47793 0.0
C1729 C 0.9964 0.5708 0.39288 0.0
H1730 H 0.98405 0.58924 0.4774 0.0
C1731 C 0.0282 0.58701 0.39323 0.0
C1732 C 0.0442 0.60427 0.42368 0.0
H1733 H 0.98488 0.55801 0.36888 0.0
H1734 H 0.04021 0.58624 0.36947 0.0
C1735 C 0.02751 0.60447 0.45388 0.0
C1736 C 0.44167 0.01984 0.88382 0.0
C1737 C 0.4391 0.03752 0.91136 0.0
H1738 H 0.42799 0.97544 0.86383 0.0
C1739 C 0.42013 0.02258 0.94102 0.0
H1740 H 0.45614 0.03043 0.86061 0.0
C1741 C 0.4039 0.99089 0.94285 0.0
C1742 C 0.40623 0.97322 0.9151 0.0
H1743 H 0.41763 0.03533 0.96284 0.0
H1744 H 0.38942 0.98029 0.96604 0.0
C1745 C 0.4255 0.98817 0.88568 0.0
C1746 C 0.41354 0.42449 0.44565 0.0
C1747 C 0.41447 0.44349 0.41735 0.0
H1748 H 0.42788 0.39428 0.46548 0.0
C1749 C 0.43211 0.4466 0.38662 0.0
H1750 H 0.40036 0.42153 0.46984 0.0
C1751 C 0.44805 0.43085 0.38412 0.0
C1752 C 0.44675 0.41154 0.41227 0.0
H1753 H 0.43345 0.46103 0.3643 0.0
H1754 H 0.46122 0.43366 0.35995 0.0
C1755 C 0.4294 0.40876 0.44314 0.0
C1756 C 0.02677 0.44557 0.88983 0.0
C1757 C 0.04274 0.44434 0.92032 0.0
H1758 H 0.98354 0.4315 0.8655 0.0
C1759 C 0.02599 0.42763 0.95069 0.0
H1760 H 0.03879 0.45822 0.86596 0.0
C1761 C 0.99432 0.41231 0.95045 0.0
C1762 C 0.9783 0.41319 0.91983 0.0
H1763 H 0.03731 0.42615 0.9748 0.0
H1764 H 0.98241 0.39961 0.97433 0.0
C1765 C 0.995 0.43021 0.88959 0.0
C1766 C 0.60038 0.98906 0.45465 0.0
C1767 C 0.58319 0.97128 0.42512 0.0
H1768 H 0.62873 0.03362 0.47594 0.0
C1769 C 0.58127 0.98607 0.39389 0.0
H1770 H 0.60231 0.97855 0.47925 0.0
C1771 C 0.59647 0.0177 0.392 0.0
C1772 C 0.61407 0.03551 0.42127 0.0
H1773 H 0.56817 0.97324 0.37066 0.0
H1774 H 0.59445 0.02814 0.3674 0.0
C1775 C 0.61559 0.02074 0.45277 0.0
C1776 C 0.43824 0.57587 0.97165 0.0
C1777 C 0.46322 0.59808 0.99128 0.0
H1778 H 0.39638 0.53393 0.9729 0.0
C1779 C 0.46385 0.59482 0.02898 0.0
H1780 H 0.43691 0.57747 0.94254 0.0
C1781 C 0.44057 0.56948 0.0464 0.0
C1782 C 0.41596 0.54694 0.02658 0.0
H1783 H 0.48276 0.61132 0.04492 0.0
H1784 H 0.44222 0.56736 0.07539 0.0
C1785 C 0.41489 0.55073 0.98907 0.0
C1786 C 0.87949 0.41174 0.48334 0.0
C1787 C 0.87938 0.41087 0.52131 0.0
H1788 H 0.88111 0.43611 0.43584 0.0
C1789 C 0.87899 0.43453 0.54059 0.0
H1790 H 0.87996 0.3941 0.46755 0.0
C1791 C 0.87929 0.45877 0.52225 0.0
C1792 C 0.88031 0.46 0.48424 0.0
H1793 H 0.87897 0.43466 0.56992 0.0
H1794 H 0.8795 0.47684 0.53784 0.0
C1795 C 0.88015 0.43602 0.46511 0.0
C1796 C 0.41658 0.87867 0.02096 0.0
C1797 C 0.41507 0.87407 0.98338 0.0
H1798 H 0.44133 0.88452 0.06982 0.0
C1799 C 0.43768 0.8701 0.9666 0.0
H1800 H 0.39975 0.88199 0.03475 0.0
C1801 C 0.46152 0.87139 0.9867 0.0
C1802 C 0.46354 0.8769 0.02409 0.0
H1803 H 0.4374 0.8666 0.93766 0.0
H1804 H 0.47871 0.86874 0.97273 0.0
C1805 C 0.44058 0.8802 0.04103 0.0
C1806 C 0.55706 0.41566 0.50854 0.0
C1807 C 0.55729 0.41867 0.47074 0.0
H1808 H 0.57908 0.43514 0.5587 0.0
C1809 C 0.58199 0.44398 0.45443 0.0
H1810 H 0.53845 0.39657 0.52203 0.0
C1811 C 0.60547 0.46602 0.47539 0.0
C1812 C 0.60478 0.46353 0.51326 0.0
H1813 H 0.58302 0.44722 0.42538 0.0
H1814 H 0.6237 0.48545 0.4619 0.0
C1815 C 0.58045 0.43787 0.52956 0.0
C1816 C 0.14336 0.57793 0.96565 0.0
C1817 C 0.14236 0.55304 0.98374 0.0
H1818 H 0.14318 0.61974 0.97019 0.0
C1819 C 0.14164 0.55244 0.02169 0.0
H1820 H 0.14383 0.5792 0.93637 0.0
C1821 C 0.14095 0.57561 0.04102 0.0
C1822 C 0.1413 0.60019 0.02293 0.0
H1823 H 0.14072 0.53365 0.03652 0.0
H1824 H 0.13953 0.57382 0.07023 0.0
C1825 C 0.14299 0.60129 0.98501 0.0
C1826 C 0.54909 0.13553 0.4648 0.0
C1827 C 0.55142 0.14175 0.50208 0.0
H1828 H 0.56932 0.12791 0.4182 0.0
C1829 C 0.57783 0.14698 0.52048 0.0
H1830 H 0.52904 0.13121 0.44983 0.0
C1831 C 0.60083 0.14509 0.50252 0.0
C1832 C 0.59812 0.1378 0.46559 0.0
H1833 H 0.58057 0.15177 0.5492 0.0
H1834 H 0.6204 0.14861 0.51796 0.0
C1835 C 0.57217 0.13349 0.44676 0.0
C1836 C 0.57184 0.43633 0.03298 0.0
C1837 C 0.54727 0.41391 0.01304 0.0
H1838 H 0.61366 0.47845 0.03199 0.0
C1839 C 0.5472 0.41701 0.97525 0.0
H1840 H 0.57269 0.43481 0.06217 0.0
C1841 C 0.57061 0.4423 0.95799 0.0
C1842 C 0.5949 0.465 0.978 0.0
H1843 H 0.52863 0.40035 0.95902 0.0
H1844 H 0.56932 0.4442 0.92891 0.0
C1845 C 0.59541 0.46147 0.01568 0.0
C1846 C 0.14401 0.59381 0.52228 0.0
C1847 C 0.1463 0.59574 0.48437 0.0
H1848 H 0.1408 0.56831 0.56974 0.0
C1849 C 0.14895 0.5732 0.46538 0.0
H1850 H 0.1418 0.61061 0.53778 0.0
C1851 C 0.1485 0.54897 0.48364 0.0
C1852 C 0.14518 0.54646 0.52142 0.0
H1853 H 0.15067 0.57377 0.43614 0.0
H1854 H 0.14994 0.5318 0.46797 0.0
C1855 C 0.14337 0.56942 0.54057 0.0
C1856 C 0.57794 0.14397 0.0246 0.0
C1857 C 0.60151 0.14176 0.00765 0.0
H1858 H 0.5362 0.14401 0.0183 0.0
C1859 C 0.60115 0.13921 0.96977 0.0
H1860 H 0.57738 0.14593 0.05375 0.0
C1861 C 0.57739 0.13792 0.94949 0.0
C1862 C 0.55341 0.13936 0.96649 0.0
H1863 H 0.61878 0.13733 0.95577 0.0
H1864 H 0.57762 0.13521 0.92044 0.0
C1865 C 0.55423 0.14286 0.00427 0.0
C1866 C 0.45036 0.57093 0.54514 0.0
C1867 C 0.47381 0.59642 0.52754 0.0
H1868 H 0.40884 0.52879 0.53975 0.0
C1869 C 0.47212 0.59903 0.48987 0.0
H1870 H 0.45086 0.56808 0.57416 0.0
C1871 C 0.44808 0.5764 0.47018 0.0
C1872 C 0.42492 0.55061 0.48763 0.0
H1873 H 0.4897 0.61826 0.47537 0.0
H1874 H 0.44803 0.57899 0.44108 0.0
C1875 C 0.42615 0.54835 0.52544 0.0
C1876 C 0.87749 0.44858 0.96075 0.0
C1877 C 0.87681 0.42392 0.97895 0.0
H1878 H 0.87796 0.49064 0.965 0.0
C1879 C 0.87481 0.42282 0.01691 0.0
H1880 H 0.87916 0.45039 0.93153 0.0
C1881 C 0.87439 0.44621 0.03618 0.0
C1882 C 0.87571 0.47117 0.01796 0.0
H1883 H 0.87434 0.40429 0.03185 0.0
H1884 H 0.87359 0.44493 0.06547 0.0
C1885 C 0.87679 0.47179 0.97997 0.0
C1886 C 0.47291 0.87516 0.52353 0.0
C1887 C 0.47269 0.87274 0.48567 0.0
H1888 H 0.45102 0.87928 0.57049 0.0
C1889 C 0.44794 0.87079 0.46623 0.0
H1890 H 0.4916 0.8769 0.53938 0.0
C1891 C 0.42435 0.87186 0.48414 0.0
C1892 C 0.42504 0.8752 0.52191 0.0
H1893 H 0.44698 0.869 0.43699 0.0
H1894 H 0.40599 0.87085 0.46825 0.0
C1895 C 0.4495 0.87655 0.54138 0.0
loop_
_geom_bond_atom_site_label_1
_geom_bond_atom_site_label_2
_geom_bond_distance
_geom_bond_site_symmetry_2
_ccdc_geom_bond_type
Co0 O2 2.143 . S
Co0 O8 2.074 . S
Co0 O11 2.093 . S
Co0 O24 2.097 . S
Co0 N41 2.151 . S
Co0 N49 2.214 . S
Co1 O2 2.160 . S
Co1 O7 2.058 . S
Co1 O17 2.057 . S
Co1 O32 2.037 . S
Co1 N36 2.145 1_554 S
Co1 N57 2.257 . S
O2 Co0 2.143 . S
O2 Co1 2.160 . S
C3 O4 1.278 . S
C3 O11 1.224 . S
O4 C3 1.278 . S
C5 O6 1.245 . S
C5 O17 1.232 . S
O6 C5 1.245 . S
O7 Co1 2.058 . S
O7 C33 1.269 . S
O8 Co0 2.074 . S
O8 C33 1.257 . S
H9 C34 0.930 . S
H10 C40 0.930 . S
O11 Co0 2.093 . S
O11 C3 1.224 . S
H12 C44 0.929 . S
H13 C46 0.930 . S
H14 C47 0.930 . S
H15 C45 0.929 . S
H16 C48 0.928 . S
O17 Co1 2.057 . S
O17 C5 1.232 . S
H18 C37 0.929 . S
H19 C38 0.929 . S
H20 C50 0.931 . S
H21 C42 0.929 . S
H22 C51 0.930 . S
H23 C43 0.931 . S
O24 Co0 2.097 . S
O24 C52 1.214 . S
H25 C53 0.929 . S
H26 C54 0.929 . S
H27 C55 0.930 . S
H28 C56 0.929 . S
H29 C58 0.930 . S
H30 C35 0.930 . S
H31 C39 0.930 . S
O32 Co1 2.037 . S
O32 C52 1.234 . S
C33 O7 1.269 . S
C33 O8 1.257 . S
C34 H9 0.930 . S
C34 C37 1.388 . S
C34 C39 1.418 . S
C35 H30 0.930 . S
C35 C38 1.404 . S
C35 C39 1.353 . S
N36 Co1 2.145 1_556 S
N36 C37 1.397 . S
N36 C38 1.334 . S
C37 H18 0.929 . S
C37 C34 1.388 . S
C37 N36 1.397 . S
C38 H19 0.929 . S
C38 C35 1.404 . S
C38 N36 1.334 . S
C39 H31 0.930 . S
C39 C34 1.418 . S
C39 C35 1.353 . S
C40 H10 0.930 . S
C40 N41 1.330 . S
C40 C42 1.446 . S
N41 Co0 2.151 . S
N41 C40 1.330 . S
N41 C45 1.418 . S
C42 H21 0.929 . S
C42 C40 1.446 . S
C42 C43 1.332 . S
C43 H23 0.931 . S
C43 C42 1.332 . S
C43 C44 1.267 . S
C44 H12 0.929 . S
C44 C43 1.267 . S
C44 C45 1.251 . S
C45 H15 0.929 . S
C45 N41 1.418 . S
C45 C44 1.251 . S
C46 H13 0.930 . S
C46 C48 1.406 . S
C46 C51 1.261 . S
C47 H14 0.930 . S
C47 N49 1.325 . S
C47 C50 1.357 . S
C48 H16 0.928 . S
C48 C46 1.406 . S
C48 N49 1.261 . S
N49 Co0 2.214 . S
N49 C47 1.325 . S
N49 C48 1.261 . S
C50 H20 0.931 . S
C50 C47 1.357 . S
C50 C51 1.312 . S
C51 H22 0.930 . S
C51 C46 1.261 . S
C51 C50 1.312 . S
C52 O24 1.214 . S
C52 O32 1.234 . S
C53 H25 0.929 . S
C53 C56 1.391 . S
C53 C58 1.391 . S
C54 H26 0.929 . S
C54 C55 1.390 . S
C54 N57 1.391 . S
C55 H27 0.930 . S
C55 C54 1.390 . S
C55 C56 1.392 . S
C56 H28 0.929 . S
C56 C53 1.391 . S
C56 C55 1.392 . S
N57 Co1 2.257 . S
N57 C54 1.391 . S
N57 C58 1.388 . S
C58 H29 0.930 . S
C58 C53 1.391 . S
C58 N57 1.388 . S
Co59 O61 2.143 . S
Co59 O67 2.074 . S
Co59 O70 2.093 . S
Co59 O83 2.097 . S
Co59 N100 2.151 . S
Co59 N108 2.214 . S
Co60 O61 2.160 . S
Co60 O66 2.058 . S
Co60 O76 2.057 . S
Co60 O91 2.037 . S
Co60 N95 2.145 . S
Co60 N116 2.257 . S
O61 Co59 2.143 . S
O61 Co60 2.160 . S
C62 O63 1.278 . S
C62 O70 1.224 . S
O63 C62 1.278 . S
C64 O65 1.245 . S
C64 O76 1.232 . S
O65 C64 1.245 . S
O66 Co60 2.058 . S
O66 C92 1.269 . S
O67 Co59 2.074 . S
O67 C92 1.257 . S
H68 C93 0.930 . S
H69 C99 0.930 . S
O70 Co59 2.093 . S
O70 C62 1.224 . S
H71 C103 0.929 . S
H72 C105 0.930 . S
H73 C106 0.930 . S
H74 C104 0.929 . S
H75 C107 0.928 . S
O76 Co60 2.057 . S
O76 C64 1.232 . S
H77 C96 0.929 . S
H78 C97 0.929 . S
H79 C109 0.931 . S
H80 C101 0.929 . S
H81 C110 0.930 . S
H82 C102 0.931 . S
O83 Co59 2.097 . S
O83 C111 1.214 . S
H84 C112 0.929 . S
H85 C113 0.929 . S
H86 C114 0.930 . S
H87 C115 0.929 . S
H88 C117 0.930 . S
H89 C94 0.930 . S
H90 C98 0.930 . S
O91 Co60 2.037 . S
O91 C111 1.234 . S
C92 O66 1.269 . S
C92 O67 1.257 . S
C93 H68 0.930 . S
C93 C96 1.388 . S
C93 C98 1.418 . S
C94 H89 0.930 . S
C94 C97 1.404 . S
C94 C98 1.353 . S
N95 Co60 2.145 . S
N95 C96 1.397 . S
N95 C97 1.334 . S
C96 H77 0.929 . S
C96 C93 1.388 . S
C96 N95 1.397 . S
C97 H78 0.929 . S
C97 C94 1.404 . S
C97 N95 1.334 . S
C98 H90 0.930 . S
C98 C93 1.418 . S
C98 C94 1.353 . S
C99 H69 0.930 . S
C99 N100 1.330 . S
C99 C101 1.446 . S
N100 Co59 2.151 . S
N100 C99 1.330 . S
N100 C104 1.418 . S
C101 H80 0.929 . S
C101 C99 1.446 . S
C101 C102 1.332 . S
C102 H82 0.931 . S
C102 C101 1.332 . S
C102 C103 1.267 . S
C103 H71 0.929 . S
C103 C102 1.267 . S
C103 C104 1.251 . S
C104 H74 0.929 . S
C104 N100 1.418 . S
C104 C103 1.251 . S
C105 H72 0.930 . S
C105 C107 1.406 . S
C105 C110 1.261 . S
C106 H73 0.930 . S
C106 N108 1.325 . S
C106 C109 1.357 . S
C107 H75 0.928 . S
C107 C105 1.406 . S
C107 N108 1.261 . S
N108 Co59 2.214 . S
N108 C106 1.325 . S
N108 C107 1.261 . S
C109 H79 0.931 . S
C109 C106 1.357 . S
C109 C110 1.312 . S
C110 H81 0.930 . S
C110 C105 1.261 . S
C110 C109 1.312 . S
C111 O83 1.214 . S
C111 O91 1.234 . S
C112 H84 0.929 . S
C112 C115 1.391 . S
C112 C117 1.391 . S
C113 H85 0.929 . S
C113 C114 1.390 . S
C113 N116 1.391 . S
C114 H86 0.930 . S
C114 C113 1.390 . S
C114 C115 1.392 . S
C115 H87 0.929 . S
C115 C112 1.391 . S
C115 C114 1.392 . S
N116 Co60 2.257 . S
N116 C113 1.391 . S
N116 C117 1.388 . S
C117 H88 0.930 . S
C117 C112 1.391 . S
C117 N116 1.388 . S
Co118 O120 2.143 . S
Co118 O126 2.074 . S
Co118 O129 2.093 . S
Co118 O142 2.097 . S
Co118 N159 2.151 . S
Co118 N167 2.214 . S
Co119 O120 2.160 . S
Co119 O125 2.058 . S
Co119 O135 2.057 . S
Co119 O150 2.037 . S
Co119 N154 2.145 1_554 S
Co119 N175 2.257 . S
O120 Co118 2.143 . S
O120 Co119 2.160 . S
C121 O122 1.278 . S
C121 O129 1.224 . S
O122 C121 1.278 . S
C123 O124 1.245 . S
C123 O135 1.232 . S
O124 C123 1.245 . S
O125 Co119 2.058 . S
O125 C151 1.269 . S
O126 Co118 2.074 . S
O126 C151 1.257 . S
H127 C152 0.930 . S
H128 C158 0.930 . S
O129 Co118 2.093 . S
O129 C121 1.224 . S
H130 C162 0.929 . S
H131 C164 0.930 . S
H132 C165 0.930 . S
H133 C163 0.929 . S
H134 C166 0.928 . S
O135 Co119 2.057 . S
O135 C123 1.232 . S
H136 C155 0.929 . S
H137 C156 0.929 . S
H138 C168 0.931 . S
H139 C160 0.929 . S
H140 C169 0.930 . S
H141 C161 0.931 . S
O142 Co118 2.097 . S
O142 C170 1.214 . S
H143 C171 0.929 . S
H144 C172 0.929 . S
H145 C173 0.930 . S
H146 C174 0.929 . S
H147 C176 0.930 . S
H148 C153 0.930 . S
H149 C157 0.930 . S
O150 Co119 2.037 . S
O150 C170 1.234 . S
C151 O125 1.269 . S
C151 O126 1.257 . S
C152 H127 0.930 . S
C152 C155 1.388 . S
C152 C157 1.418 . S
C153 H148 0.930 . S
C153 C156 1.404 . S
C153 C157 1.353 . S
N154 Co119 2.145 1_556 S
N154 C155 1.397 . S
N154 C156 1.334 . S
C155 H136 0.929 . S
C155 C152 1.388 . S
C155 N154 1.397 . S
C156 H137 0.929 . S
C156 C153 1.404 . S
C156 N154 1.334 . S
C157 H149 0.930 . S
C157 C152 1.418 . S
C157 C153 1.353 . S
C158 H128 0.930 . S
C158 N159 1.330 . S
C158 C160 1.446 . S
N159 Co118 2.151 . S
N159 C158 1.330 . S
N159 C163 1.418 . S
C160 H139 0.929 . S
C160 C158 1.446 . S
C160 C161 1.332 . S
C161 H141 0.931 . S
C161 C160 1.332 . S
C161 C162 1.267 . S
C162 H130 0.929 . S
C162 C161 1.267 . S
C162 C163 1.251 . S
C163 H133 0.929 . S
C163 N159 1.418 . S
C163 C162 1.251 . S
C164 H131 0.930 . S
C164 C166 1.406 . S
C164 C169 1.261 . S
C165 H132 0.930 . S
C165 N167 1.325 . S
C165 C168 1.357 . S
C166 H134 0.928 . S
C166 C164 1.406 . S
C166 N167 1.261 . S
N167 Co118 2.214 . S
N167 C165 1.325 . S
N167 C166 1.261 . S
C168 H138 0.931 . S
C168 C165 1.357 . S
C168 C169 1.312 . S
C169 H140 0.930 . S
C169 C164 1.261 . S
C169 C168 1.312 . S
C170 O142 1.214 . S
C170 O150 1.234 . S
C171 H143 0.929 . S
C171 C174 1.391 . S
C171 C176 1.391 . S
C172 H144 0.929 . S
C172 C173 1.390 . S
C172 N175 1.391 . S
C173 H145 0.930 . S
C173 C172 1.390 . S
C173 C174 1.392 . S
C174 H146 0.929 . S
C174 C171 1.391 . S
C174 C173 1.392 . S
N175 Co119 2.257 . S
N175 C172 1.391 . S
N175 C176 1.388 . S
C176 H147 0.930 . S
C176 C171 1.391 . S
C176 N175 1.388 . S
Co177 O179 2.143 . S
Co177 O185 2.074 . S
Co177 O188 2.093 . S
Co177 O201 2.097 . S
Co177 N218 2.151 . S
Co177 N226 2.214 . S
Co178 O179 2.160 . S
Co178 O184 2.058 . S
Co178 O194 2.057 . S
Co178 O209 2.037 . S
Co178 N213 2.145 . S
Co178 N234 2.257 . S
O179 Co177 2.143 . S
O179 Co178 2.160 . S
C180 O181 1.278 . S
C180 O188 1.224 . S
O181 C180 1.278 . S
C182 O183 1.245 . S
C182 O194 1.232 . S
O183 C182 1.245 . S
O184 Co178 2.058 . S
O184 C210 1.269 . S
O185 Co177 2.074 . S
O185 C210 1.257 . S
H186 C211 0.930 . S
H187 C217 0.930 . S
O188 Co177 2.093 . S
O188 C180 1.224 . S
H189 C221 0.929 . S
H190 C223 0.930 . S
H191 C224 0.930 . S
H192 C222 0.929 . S
H193 C225 0.928 . S
O194 Co178 2.057 . S
O194 C182 1.232 . S
H195 C214 0.929 . S
H196 C215 0.929 . S
H197 C227 0.931 . S
H198 C219 0.929 . S
H199 C228 0.930 . S
H200 C220 0.931 . S
O201 Co177 2.097 . S
O201 C229 1.214 . S
H202 C230 0.929 . S
H203 C231 0.929 . S
H204 C232 0.930 . S
H205 C233 0.929 . S
H206 C235 0.930 . S
H207 C212 0.930 . S
H208 C216 0.930 . S
O209 Co178 2.037 . S
O209 C229 1.234 . S
C210 O184 1.269 . S
C210 O185 1.257 . S
C211 H186 0.930 . S
C211 C214 1.388 . S
C211 C216 1.418 . S
C212 H207 0.930 . S
C212 C215 1.404 . S
C212 C216 1.353 . S
N213 Co178 2.145 . S
N213 C214 1.397 . S
N213 C215 1.334 . S
C214 H195 0.929 . S
C214 C211 1.388 . S
C214 N213 1.397 . S
C215 H196 0.929 . S
C215 C212 1.404 . S
C215 N213 1.334 . S
C216 H208 0.930 . S
C216 C211 1.418 . S
C216 C212 1.353 . S
C217 H187 0.930 . S
C217 N218 1.330 . S
C217 C219 1.446 . S
N218 Co177 2.151 . S
N218 C217 1.330 . S
N218 C222 1.418 . S
C219 H198 0.929 . S
C219 C217 1.446 . S
C219 C220 1.332 . S
C220 H200 0.931 . S
C220 C219 1.332 . S
C220 C221 1.267 . S
C221 H189 0.929 . S
C221 C220 1.267 . S
C221 C222 1.251 . S
C222 H192 0.929 . S
C222 N218 1.418 . S
C222 C221 1.251 . S
C223 H190 0.930 . S
C223 C225 1.406 . S
C223 C228 1.261 . S
C224 H191 0.930 . S
C224 N226 1.325 . S
C224 C227 1.357 . S
C225 H193 0.928 . S
C225 C223 1.406 . S
C225 N226 1.261 . S
N226 Co177 2.214 . S
N226 C224 1.325 . S
N226 C225 1.261 . S
C227 H197 0.931 . S
C227 C224 1.357 . S
C227 C228 1.312 . S
C228 H199 0.930 . S
C228 C223 1.261 . S
C228 C227 1.312 . S
C229 O201 1.214 . S
C229 O209 1.234 . S
C230 H202 0.929 . S
C230 C233 1.391 . S
C230 C235 1.391 . S
C231 H203 0.929 . S
C231 C232 1.390 . S
C231 N234 1.391 . S
C232 H204 0.930 . S
C232 C231 1.390 . S
C232 C233 1.392 . S
C233 H205 0.929 . S
C233 C230 1.391 . S
C233 C232 1.392 . S
N234 Co178 2.257 . S
N234 C231 1.391 . S
N234 C235 1.388 . S
C235 H206 0.930 . S
C235 C230 1.391 . S
C235 N234 1.388 . S
Co236 O238 2.143 . S
Co236 O244 2.074 . S
Co236 O247 2.093 . S
Co236 O260 2.097 . S
Co236 N277 2.151 . S
Co236 N285 2.214 . S
Co237 O238 2.160 . S
Co237 O243 2.058 . S
Co237 O253 2.057 . S
Co237 O268 2.037 . S
Co237 N272 2.145 1_554 S
Co237 N293 2.257 . S
O238 Co236 2.143 . S
O238 Co237 2.160 . S
C239 O240 1.278 . S
C239 O247 1.224 . S
O240 C239 1.278 . S
C241 O242 1.245 . S
C241 O253 1.232 . S
O242 C241 1.245 . S
O243 Co237 2.058 . S
O243 C269 1.269 . S
O244 Co236 2.074 . S
O244 C269 1.257 . S
H245 C270 0.930 . S
H246 C276 0.930 . S
O247 Co236 2.093 . S
O247 C239 1.224 . S
H248 C280 0.929 . S
H249 C282 0.930 . S
H250 C283 0.930 . S
H251 C281 0.929 . S
H252 C284 0.928 . S
O253 Co237 2.057 . S
O253 C241 1.232 . S
H254 C273 0.929 . S
H255 C274 0.929 . S
H256 C286 0.931 . S
H257 C278 0.929 . S
H258 C287 0.930 . S
H259 C279 0.931 . S
O260 Co236 2.097 . S
O260 C288 1.214 . S
H261 C289 0.929 . S
H262 C290 0.929 . S
H263 C291 0.930 . S
H264 C292 0.929 . S
H265 C294 0.930 . S
H266 C271 0.930 . S
H267 C275 0.930 . S
O268 Co237 2.037 . S
O268 C288 1.234 . S
C269 O243 1.269 . S
C269 O244 1.257 . S
C270 H245 0.930 . S
C270 C273 1.388 . S
C270 C275 1.418 . S
C271 H266 0.930 . S
C271 C274 1.404 . S
C271 C275 1.353 . S
N272 Co237 2.145 1_556 S
N272 C273 1.397 . S
N272 C274 1.334 . S
C273 H254 0.929 . S
C273 C270 1.388 . S
C273 N272 1.397 . S
C274 H255 0.929 . S
C274 C271 1.404 . S
C274 N272 1.334 . S
C275 H267 0.930 . S
C275 C270 1.418 . S
C275 C271 1.353 . S
C276 H246 0.930 . S
C276 N277 1.330 . S
C276 C278 1.446 . S
N277 Co236 2.151 . S
N277 C276 1.330 . S
N277 C281 1.418 . S
C278 H257 0.929 . S
C278 C276 1.446 . S
C278 C279 1.332 . S
C279 H259 0.931 . S
C279 C278 1.332 . S
C279 C280 1.267 . S
C280 H248 0.929 . S
C280 C279 1.267 . S
C280 C281 1.251 . S
C281 H251 0.929 . S
C281 N277 1.418 . S
C281 C280 1.251 . S
C282 H249 0.930 . S
C282 C284 1.406 . S
C282 C287 1.261 . S
C283 H250 0.930 . S
C283 N285 1.325 . S
C283 C286 1.357 . S
C284 H252 0.928 . S
C284 C282 1.406 . S
C284 N285 1.261 . S
N285 Co236 2.214 . S
N285 C283 1.325 . S
N285 C284 1.261 . S
C286 H256 0.931 . S
C286 C283 1.357 . S
C286 C287 1.312 . S
C287 H258 0.930 . S
C287 C282 1.261 . S
C287 C286 1.312 . S
C288 O260 1.214 . S
C288 O268 1.234 . S
C289 H261 0.929 . S
C289 C292 1.391 . S
C289 C294 1.391 . S
C290 H262 0.929 . S
C290 C291 1.390 . S
C290 N293 1.391 . S
C291 H263 0.930 . S
C291 C290 1.390 . S
C291 C292 1.392 . S
C292 H264 0.929 . S
C292 C289 1.391 . S
C292 C291 1.392 . S
N293 Co237 2.257 . S
N293 C290 1.391 . S
N293 C294 1.388 . S
C294 H265 0.930 . S
C294 C289 1.391 . S
C294 N293 1.388 . S
Co295 O297 2.143 . S
Co295 O303 2.074 . S
Co295 O306 2.093 . S
Co295 O319 2.097 . S
Co295 N336 2.151 . S
Co295 N344 2.214 . S
Co296 O297 2.160 . S
Co296 O302 2.058 . S
Co296 O312 2.057 . S
Co296 O327 2.037 . S
Co296 N331 2.145 . S
Co296 N352 2.257 . S
O297 Co295 2.143 . S
O297 Co296 2.160 . S
C298 O299 1.278 . S
C298 O306 1.224 . S
O299 C298 1.278 . S
C300 O301 1.245 . S
C300 O312 1.232 . S
O301 C300 1.245 . S
O302 Co296 2.058 . S
O302 C328 1.269 . S
O303 Co295 2.074 . S
O303 C328 1.257 . S
H304 C329 0.930 . S
H305 C335 0.930 . S
O306 Co295 2.093 . S
O306 C298 1.224 . S
H307 C339 0.929 . S
H308 C341 0.930 . S
H309 C342 0.930 . S
H310 C340 0.929 . S
H311 C343 0.928 . S
O312 Co296 2.057 . S
O312 C300 1.232 . S
H313 C332 0.929 . S
H314 C333 0.929 . S
H315 C345 0.931 . S
H316 C337 0.929 . S
H317 C346 0.930 . S
H318 C338 0.931 . S
O319 Co295 2.097 . S
O319 C347 1.214 . S
H320 C348 0.929 . S
H321 C349 0.929 . S
H322 C350 0.930 . S
H323 C351 0.929 . S
H324 C353 0.930 . S
H325 C330 0.930 . S
H326 C334 0.930 . S
O327 Co296 2.037 . S
O327 C347 1.234 . S
C328 O302 1.269 . S
C328 O303 1.257 . S
C329 H304 0.930 . S
C329 C332 1.388 . S
C329 C334 1.418 . S
C330 H325 0.930 . S
C330 C333 1.404 . S
C330 C334 1.353 . S
N331 Co296 2.145 . S
N331 C332 1.397 . S
N331 C333 1.334 . S
C332 H313 0.929 . S
C332 C329 1.388 . S
C332 N331 1.397 . S
C333 H314 0.929 . S
C333 C330 1.404 . S
C333 N331 1.334 . S
C334 H326 0.930 . S
C334 C329 1.418 . S
C334 C330 1.353 . S
C335 H305 0.930 . S
C335 N336 1.330 . S
C335 C337 1.446 . S
N336 Co295 2.151 . S
N336 C335 1.330 . S
N336 C340 1.418 . S
C337 H316 0.929 . S
C337 C335 1.446 . S
C337 C338 1.332 . S
C338 H318 0.931 . S
C338 C337 1.332 . S
C338 C339 1.267 . S
C339 H307 0.929 . S
C339 C338 1.267 . S
C339 C340 1.251 . S
C340 H310 0.929 . S
C340 N336 1.418 . S
C340 C339 1.251 . S
C341 H308 0.930 . S
C341 C343 1.406 . S
C341 C346 1.261 . S
C342 H309 0.930 . S
C342 N344 1.325 . S
C342 C345 1.357 . S
C343 H311 0.928 . S
C343 C341 1.406 . S
C343 N344 1.261 . S
N344 Co295 2.214 . S
N344 C342 1.325 . S
N344 C343 1.261 . S
C345 H315 0.931 . S
C345 C342 1.357 . S
C345 C346 1.312 . S
C346 H317 0.930 . S
C346 C341 1.261 . S
C346 C345 1.312 . S
C347 O319 1.214 . S
C347 O327 1.234 . S
C348 H320 0.929 . S
C348 C351 1.391 . S
C348 C353 1.391 . S
C349 H321 0.929 . S
C349 C350 1.390 . S
C349 N352 1.391 . S
C350 H322 0.930 . S
C350 C349 1.390 . S
C350 C351 1.392 . S
C351 H323 0.929 . S
C351 C348 1.391 . S
C351 C350 1.392 . S
N352 Co296 2.257 . S
N352 C349 1.391 . S
N352 C353 1.388 . S
C353 H324 0.930 . S
C353 C348 1.391 . S
C353 N352 1.388 . S
Co354 O356 2.143 . S
Co354 O362 2.074 . S
Co354 O365 2.093 . S
Co354 O378 2.097 . S
Co354 N395 2.151 . S
Co354 N403 2.214 . S
Co355 O356 2.160 . S
Co355 O361 2.058 . S
Co355 O371 2.057 . S
Co355 O386 2.037 . S
Co355 N390 2.145 1_556 S
Co355 N411 2.257 . S
O356 Co354 2.143 . S
O356 Co355 2.160 . S
C357 O358 1.278 . S
C357 O365 1.224 . S
O358 C357 1.278 . S
C359 O360 1.245 . S
C359 O371 1.232 . S
O360 C359 1.245 . S
O361 Co355 2.058 . S
O361 C387 1.269 . S
O362 Co354 2.074 . S
O362 C387 1.257 . S
H363 C388 0.930 . S
H364 C394 0.930 . S
O365 Co354 2.093 . S
O365 C357 1.224 . S
H366 C398 0.929 . S
H367 C400 0.930 . S
H368 C401 0.930 . S
H369 C399 0.929 . S
H370 C402 0.928 . S
O371 Co355 2.057 . S
O371 C359 1.232 . S
H372 C391 0.929 . S
H373 C392 0.929 . S
H374 C404 0.931 . S
H375 C396 0.929 . S
H376 C405 0.930 . S
H377 C397 0.931 . S
O378 Co354 2.097 . S
O378 C406 1.214 . S
H379 C407 0.929 . S
H380 C408 0.929 . S
H381 C409 0.930 . S
H382 C410 0.929 . S
H383 C412 0.930 . S
H384 C389 0.930 . S
H385 C393 0.930 . S
O386 Co355 2.037 . S
O386 C406 1.234 . S
C387 O361 1.269 . S
C387 O362 1.257 . S
C388 H363 0.930 . S
C388 C391 1.388 . S
C388 C393 1.418 . S
C389 H384 0.930 . S
C389 C392 1.404 . S
C389 C393 1.353 . S
N390 Co355 2.145 1_554 S
N390 C391 1.397 . S
N390 C392 1.334 . S
C391 H372 0.929 . S
C391 C388 1.388 . S
C391 N390 1.397 . S
C392 H373 0.929 . S
C392 C389 1.404 . S
C392 N390 1.334 . S
C393 H385 0.930 . S
C393 C388 1.418 . S
C393 C389 1.353 . S
C394 H364 0.930 . S
C394 N395 1.330 . S
C394 C396 1.446 . S
N395 Co354 2.151 . S
N395 C394 1.330 . S
N395 C399 1.418 . S
C396 H375 0.929 . S
C396 C394 1.446 . S
C396 C397 1.332 . S
C397 H377 0.931 . S
C397 C396 1.332 . S
C397 C398 1.267 . S
C398 H366 0.929 . S
C398 C397 1.267 . S
C398 C399 1.251 . S
C399 H369 0.929 . S
C399 N395 1.418 . S
C399 C398 1.251 . S
C400 H367 0.930 . S
C400 C402 1.406 . S
C400 C405 1.261 . S
C401 H368 0.930 . S
C401 N403 1.325 . S
C401 C404 1.357 . S
C402 H370 0.928 . S
C402 C400 1.406 . S
C402 N403 1.261 . S
N403 Co354 2.214 . S
N403 C401 1.325 . S
N403 C402 1.261 . S
C404 H374 0.931 . S
C404 C401 1.357 . S
C404 C405 1.312 . S
C405 H376 0.930 . S
C405 C400 1.261 . S
C405 C404 1.312 . S
C406 O378 1.214 . S
C406 O386 1.234 . S
C407 H379 0.929 . S
C407 C410 1.391 . S
C407 C412 1.391 . S
C408 H380 0.929 . S
C408 C409 1.390 . S
C408 N411 1.391 . S
C409 H381 0.930 . S
C409 C408 1.390 . S
C409 C410 1.392 . S
C410 H382 0.929 . S
C410 C407 1.391 . S
C410 C409 1.392 . S
N411 Co355 2.257 . S
N411 C408 1.391 . S
N411 C412 1.388 . S
C412 H383 0.930 . S
C412 C407 1.391 . S
C412 N411 1.388 . S
Co413 O415 2.143 . S
Co413 O421 2.074 . S
Co413 O424 2.093 . S
Co413 O437 2.097 . S
Co413 N454 2.151 . S
Co413 N462 2.214 . S
Co414 O415 2.160 . S
Co414 O420 2.058 . S
Co414 O430 2.057 . S
Co414 O445 2.037 . S
Co414 N449 2.145 . S
Co414 N470 2.257 . S
O415 Co413 2.143 . S
O415 Co414 2.160 . S
C416 O417 1.278 . S
C416 O424 1.224 . S
O417 C416 1.278 . S
C418 O419 1.245 . S
C418 O430 1.232 . S
O419 C418 1.245 . S
O420 Co414 2.058 . S
O420 C446 1.269 . S
O421 Co413 2.074 . S
O421 C446 1.257 . S
H422 C447 0.930 . S
H423 C453 0.930 . S
O424 Co413 2.093 . S
O424 C416 1.224 . S
H425 C457 0.929 . S
H426 C459 0.930 . S
H427 C460 0.930 . S
H428 C458 0.929 . S
H429 C461 0.928 . S
O430 Co414 2.057 . S
O430 C418 1.232 . S
H431 C450 0.929 . S
H432 C451 0.929 . S
H433 C463 0.931 . S
H434 C455 0.929 . S
H435 C464 0.930 . S
H436 C456 0.931 . S
O437 Co413 2.097 . S
O437 C465 1.214 . S
H438 C466 0.929 . S
H439 C467 0.929 . S
H440 C468 0.930 . S
H441 C469 0.929 . S
H442 C471 0.930 . S
H443 C448 0.930 . S
H444 C452 0.930 . S
O445 Co414 2.037 . S
O445 C465 1.234 . S
C446 O420 1.269 . S
C446 O421 1.257 . S
C447 H422 0.930 . S
C447 C450 1.388 . S
C447 C452 1.418 . S
C448 H443 0.930 . S
C448 C451 1.404 . S
C448 C452 1.353 . S
N449 Co414 2.145 . S
N449 C450 1.397 . S
N449 C451 1.334 . S
C450 H431 0.929 . S
C450 C447 1.388 . S
C450 N449 1.397 . S
C451 H432 0.929 . S
C451 C448 1.404 . S
C451 N449 1.334 . S
C452 H444 0.930 . S
C452 C447 1.418 . S
C452 C448 1.353 . S
C453 H423 0.930 . S
C453 N454 1.330 . S
C453 C455 1.446 . S
N454 Co413 2.151 . S
N454 C453 1.330 . S
N454 C458 1.418 . S
C455 H434 0.929 . S
C455 C453 1.446 . S
C455 C456 1.332 . S
C456 H436 0.931 . S
C456 C455 1.332 . S
C456 C457 1.267 . S
C457 H425 0.929 . S
C457 C456 1.267 . S
C457 C458 1.251 . S
C458 H428 0.929 . S
C458 N454 1.418 . S
C458 C457 1.251 . S
C459 H426 0.930 . S
C459 C461 1.406 . S
C459 C464 1.261 . S
C460 H427 0.930 . S
C460 N462 1.325 . S
C460 C463 1.357 . S
C461 H429 0.928 . S
C461 C459 1.406 . S
C461 N462 1.261 . S
N462 Co413 2.214 . S
N462 C460 1.325 . S
N462 C461 1.261 . S
C463 H433 0.931 . S
C463 C460 1.357 . S
C463 C464 1.312 . S
C464 H435 0.930 . S
C464 C459 1.261 . S
C464 C463 1.312 . S
C465 O437 1.214 . S
C465 O445 1.234 . S
C466 H438 0.929 . S
C466 C469 1.391 . S
C466 C471 1.391 . S
C467 H439 0.929 . S
C467 C468 1.390 . S
C467 N470 1.391 . S
C468 H440 0.930 . S
C468 C467 1.390 . S
C468 C469 1.392 . S
C469 H441 0.929 . S
C469 C466 1.391 . S
C469 C468 1.392 . S
N470 Co414 2.257 . S
N470 C467 1.391 . S
N470 C471 1.388 . S
C471 H442 0.930 . S
C471 C466 1.391 . S
C471 N470 1.388 . S
Co472 O474 2.143 . S
Co472 O480 2.074 . S
Co472 O483 2.093 . S
Co472 O496 2.097 . S
Co472 N513 2.151 . S
Co472 N521 2.214 . S
Co473 O474 2.160 . S
Co473 O479 2.058 . S
Co473 O489 2.057 . S
Co473 O504 2.037 . S
Co473 N508 2.145 1_556 S
Co473 N529 2.257 . S
O474 Co472 2.143 . S
O474 Co473 2.160 . S
C475 O476 1.278 . S
C475 O483 1.224 . S
O476 C475 1.278 . S
C477 O478 1.245 . S
C477 O489 1.232 . S
O478 C477 1.245 . S
O479 Co473 2.058 . S
O479 C505 1.269 . S
O480 Co472 2.074 . S
O480 C505 1.257 . S
H481 C506 0.930 . S
H482 C512 0.930 . S
O483 Co472 2.093 . S
O483 C475 1.224 . S
H484 C516 0.929 . S
H485 C518 0.930 . S
H486 C519 0.930 . S
H487 C517 0.929 . S
H488 C520 0.928 . S
O489 Co473 2.057 . S
O489 C477 1.232 . S
H490 C509 0.929 . S
H491 C510 0.929 . S
H492 C522 0.931 . S
H493 C514 0.929 . S
H494 C523 0.930 . S
H495 C515 0.931 . S
O496 Co472 2.097 . S
O496 C524 1.214 . S
H497 C525 0.929 . S
H498 C526 0.929 . S
H499 C527 0.930 . S
H500 C528 0.929 . S
H501 C530 0.930 . S
H502 C507 0.930 . S
H503 C511 0.930 . S
O504 Co473 2.037 . S
O504 C524 1.234 . S
C505 O479 1.269 . S
C505 O480 1.257 . S
C506 H481 0.930 . S
C506 C509 1.388 . S
C506 C511 1.418 . S
C507 H502 0.930 . S
C507 C510 1.404 . S
C507 C511 1.353 . S
N508 Co473 2.145 1_554 S
N508 C509 1.397 . S
N508 C510 1.334 . S
C509 H490 0.929 . S
C509 C506 1.388 . S
C509 N508 1.397 . S
C510 H491 0.929 . S
C510 C507 1.404 . S
C510 N508 1.334 . S
C511 H503 0.930 . S
C511 C506 1.418 . S
C511 C507 1.353 . S
C512 H482 0.930 . S
C512 N513 1.330 . S
C512 C514 1.446 . S
N513 Co472 2.151 . S
N513 C512 1.330 . S
N513 C517 1.418 . S
C514 H493 0.929 . S
C514 C512 1.446 . S
C514 C515 1.332 . S
C515 H495 0.931 . S
C515 C514 1.332 . S
C515 C516 1.267 . S
C516 H484 0.929 . S
C516 C515 1.267 . S
C516 C517 1.251 . S
C517 H487 0.929 . S
C517 N513 1.418 . S
C517 C516 1.251 . S
C518 H485 0.930 . S
C518 C520 1.406 . S
C518 C523 1.261 . S
C519 H486 0.930 . S
C519 N521 1.325 . S
C519 C522 1.357 . S
C520 H488 0.928 . S
C520 C518 1.406 . S
C520 N521 1.261 . S
N521 Co472 2.214 . S
N521 C519 1.325 . S
N521 C520 1.261 . S
C522 H492 0.931 . S
C522 C519 1.357 . S
C522 C523 1.312 . S
C523 H494 0.930 . S
C523 C518 1.261 . S
C523 C522 1.312 . S
C524 O496 1.214 . S
C524 O504 1.234 . S
C525 H497 0.929 . S
C525 C528 1.391 . S
C525 C530 1.391 . S
C526 H498 0.929 . S
C526 C527 1.390 . S
C526 N529 1.391 . S
C527 H499 0.930 . S
C527 C526 1.390 . S
C527 C528 1.392 . S
C528 H500 0.929 . S
C528 C525 1.391 . S
C528 C527 1.392 . S
N529 Co473 2.257 . S
N529 C526 1.391 . S
N529 C530 1.388 . S
C530 H501 0.930 . S
C530 C525 1.391 . S
C530 N529 1.388 . S
Co531 O533 2.143 . S
Co531 O539 2.074 . S
Co531 O542 2.093 . S
Co531 O555 2.097 . S
Co531 N572 2.151 . S
Co531 N580 2.214 . S
Co532 O533 2.160 . S
Co532 O538 2.058 . S
Co532 O548 2.057 . S
Co532 O563 2.037 . S
Co532 N567 2.145 . S
Co532 N588 2.257 . S
O533 Co531 2.143 . S
O533 Co532 2.160 . S
C534 O535 1.278 . S
C534 O542 1.224 . S
O535 C534 1.278 . S
C536 O537 1.245 . S
C536 O548 1.232 . S
O537 C536 1.245 . S
O538 Co532 2.058 . S
O538 C564 1.269 . S
O539 Co531 2.074 . S
O539 C564 1.257 . S
H540 C565 0.930 . S
H541 C571 0.930 . S
O542 Co531 2.093 . S
O542 C534 1.224 . S
H543 C575 0.929 . S
H544 C577 0.930 . S
H545 C578 0.930 . S
H546 C576 0.929 . S
H547 C579 0.928 . S
O548 Co532 2.057 . S
O548 C536 1.232 . S
H549 C568 0.929 . S
H550 C569 0.929 . S
H551 C581 0.931 . S
H552 C573 0.929 . S
H553 C582 0.930 . S
H554 C574 0.931 . S
O555 Co531 2.097 . S
O555 C583 1.214 . S
H556 C584 0.929 . S
H557 C585 0.929 . S
H558 C586 0.930 . S
H559 C587 0.929 . S
H560 C589 0.930 . S
H561 C566 0.930 . S
H562 C570 0.930 . S
O563 Co532 2.037 . S
O563 C583 1.234 . S
C564 O538 1.269 . S
C564 O539 1.257 . S
C565 H540 0.930 . S
C565 C568 1.388 . S
C565 C570 1.418 . S
C566 H561 0.930 . S
C566 C569 1.404 . S
C566 C570 1.353 . S
N567 Co532 2.145 . S
N567 C568 1.397 . S
N567 C569 1.334 . S
C568 H549 0.929 . S
C568 C565 1.388 . S
C568 N567 1.397 . S
C569 H550 0.929 . S
C569 C566 1.404 . S
C569 N567 1.334 . S
C570 H562 0.930 . S
C570 C565 1.418 . S
C570 C566 1.353 . S
C571 H541 0.930 . S
C571 N572 1.330 . S
C571 C573 1.446 . S
N572 Co531 2.151 . S
N572 C571 1.330 . S
N572 C576 1.418 . S
C573 H552 0.929 . S
C573 C571 1.446 . S
C573 C574 1.332 . S
C574 H554 0.931 . S
C574 C573 1.332 . S
C574 C575 1.267 . S
C575 H543 0.929 . S
C575 C574 1.267 . S
C575 C576 1.251 . S
C576 H546 0.929 . S
C576 N572 1.418 . S
C576 C575 1.251 . S
C577 H544 0.930 . S
C577 C579 1.406 . S
C577 C582 1.261 . S
C578 H545 0.930 . S
C578 N580 1.325 . S
C578 C581 1.357 . S
C579 H547 0.928 . S
C579 C577 1.406 . S
C579 N580 1.261 . S
N580 Co531 2.214 . S
N580 C578 1.325 . S
N580 C579 1.261 . S
C581 H551 0.931 . S
C581 C578 1.357 . S
C581 C582 1.312 . S
C582 H553 0.930 . S
C582 C577 1.261 . S
C582 C581 1.312 . S
C583 O555 1.214 . S
C583 O563 1.234 . S
C584 H556 0.929 . S
C584 C587 1.391 . S
C584 C589 1.391 . S
C585 H557 0.929 . S
C585 C586 1.390 . S
C585 N588 1.391 . S
C586 H558 0.930 . S
C586 C585 1.390 . S
C586 C587 1.392 . S
C587 H559 0.929 . S
C587 C584 1.391 . S
C587 C586 1.392 . S
N588 Co532 2.257 . S
N588 C585 1.391 . S
N588 C589 1.388 . S
C589 H560 0.930 . S
C589 C584 1.391 . S
C589 N588 1.388 . S
Co590 O592 2.143 . S
Co590 O598 2.074 . S
Co590 O601 2.093 . S
Co590 O614 2.097 . S
Co590 N631 2.151 . S
Co590 N639 2.214 . S
Co591 O592 2.160 . S
Co591 O597 2.058 . S
Co591 O607 2.057 . S
Co591 O622 2.037 . S
Co591 N626 2.145 1_556 S
Co591 N647 2.257 . S
O592 Co590 2.143 . S
O592 Co591 2.160 . S
C593 O594 1.278 . S
C593 O601 1.224 . S
O594 C593 1.278 . S
C595 O596 1.245 . S
C595 O607 1.232 . S
O596 C595 1.245 . S
O597 Co591 2.058 . S
O597 C623 1.269 . S
O598 Co590 2.074 . S
O598 C623 1.257 . S
H599 C624 0.930 . S
H600 C630 0.930 . S
O601 Co590 2.093 . S
O601 C593 1.224 . S
H602 C634 0.929 . S
H603 C636 0.930 . S
H604 C637 0.930 . S
H605 C635 0.929 . S
H606 C638 0.928 . S
O607 Co591 2.057 . S
O607 C595 1.232 . S
H608 C627 0.929 . S
H609 C628 0.929 . S
H610 C640 0.931 . S
H611 C632 0.929 . S
H612 C641 0.930 . S
H613 C633 0.931 . S
O614 Co590 2.097 . S
O614 C642 1.214 . S
H615 C643 0.929 . S
H616 C644 0.929 . S
H617 C645 0.930 . S
H618 C646 0.929 . S
H619 C648 0.930 . S
H620 C625 0.930 . S
H621 C629 0.930 . S
O622 Co591 2.037 . S
O622 C642 1.234 . S
C623 O597 1.269 . S
C623 O598 1.257 . S
C624 H599 0.930 . S
C624 C627 1.388 . S
C624 C629 1.418 . S
C625 H620 0.930 . S
C625 C628 1.404 . S
C625 C629 1.353 . S
N626 Co591 2.145 1_554 S
N626 C627 1.397 . S
N626 C628 1.334 . S
C627 H608 0.929 . S
C627 C624 1.388 . S
C627 N626 1.397 . S
C628 H609 0.929 . S
C628 C625 1.404 . S
C628 N626 1.334 . S
C629 H621 0.930 . S
C629 C624 1.418 . S
C629 C625 1.353 . S
C630 H600 0.930 . S
C630 N631 1.330 . S
C630 C632 1.446 . S
N631 Co590 2.151 . S
N631 C630 1.330 . S
N631 C635 1.418 . S
C632 H611 0.929 . S
C632 C630 1.446 . S
C632 C633 1.332 . S
C633 H613 0.931 . S
C633 C632 1.332 . S
C633 C634 1.267 . S
C634 H602 0.929 . S
C634 C633 1.267 . S
C634 C635 1.251 . S
C635 H605 0.929 . S
C635 N631 1.418 . S
C635 C634 1.251 . S
C636 H603 0.930 . S
C636 C638 1.406 . S
C636 C641 1.261 . S
C637 H604 0.930 . S
C637 N639 1.325 . S
C637 C640 1.357 . S
C638 H606 0.928 . S
C638 C636 1.406 . S
C638 N639 1.261 . S
N639 Co590 2.214 . S
N639 C637 1.325 . S
N639 C638 1.261 . S
C640 H610 0.931 . S
C640 C637 1.357 . S
C640 C641 1.312 . S
C641 H612 0.930 . S
C641 C636 1.261 . S
C641 C640 1.312 . S
C642 O614 1.214 . S
C642 O622 1.234 . S
C643 H615 0.929 . S
C643 C646 1.391 . S
C643 C648 1.391 . S
C644 H616 0.929 . S
C644 C645 1.390 . S
C644 N647 1.391 . S
C645 H617 0.930 . S
C645 C644 1.390 . S
C645 C646 1.392 . S
C646 H618 0.929 . S
C646 C643 1.391 . S
C646 C645 1.392 . S
N647 Co591 2.257 . S
N647 C644 1.391 . S
N647 C648 1.388 . S
C648 H619 0.930 . S
C648 C643 1.391 . S
C648 N647 1.388 . S
Co649 O651 2.143 . S
Co649 O657 2.074 . S
Co649 O660 2.093 . S
Co649 O673 2.097 . S
Co649 N690 2.151 . S
Co649 N698 2.214 . S
Co650 O651 2.160 . S
Co650 O656 2.058 . S
Co650 O666 2.057 . S
Co650 O681 2.037 . S
Co650 N685 2.145 . S
Co650 N706 2.257 . S
O651 Co649 2.143 . S
O651 Co650 2.160 . S
C652 O653 1.278 . S
C652 O660 1.224 . S
O653 C652 1.278 . S
C654 O655 1.245 . S
C654 O666 1.232 . S
O655 C654 1.245 . S
O656 Co650 2.058 . S
O656 C682 1.269 . S
O657 Co649 2.074 . S
O657 C682 1.257 . S
H658 C683 0.930 . S
H659 C689 0.930 . S
O660 Co649 2.093 . S
O660 C652 1.224 . S
H661 C693 0.929 . S
H662 C695 0.930 . S
H663 C696 0.930 . S
H664 C694 0.929 . S
H665 C697 0.928 . S
O666 Co650 2.057 . S
O666 C654 1.232 . S
H667 C686 0.929 . S
H668 C687 0.929 . S
H669 C699 0.931 . S
H670 C691 0.929 . S
H671 C700 0.930 . S
H672 C692 0.931 . S
O673 Co649 2.097 . S
O673 C701 1.214 . S
H674 C702 0.929 . S
H675 C703 0.929 . S
H676 C704 0.930 . S
H677 C705 0.929 . S
H678 C707 0.930 . S
H679 C684 0.930 . S
H680 C688 0.930 . S
O681 Co650 2.037 . S
O681 C701 1.234 . S
C682 O656 1.269 . S
C682 O657 1.257 . S
C683 H658 0.930 . S
C683 C686 1.388 . S
C683 C688 1.418 . S
C684 H679 0.930 . S
C684 C687 1.404 . S
C684 C688 1.353 . S
N685 Co650 2.145 . S
N685 C686 1.397 . S
N685 C687 1.334 . S
C686 H667 0.929 . S
C686 C683 1.388 . S
C686 N685 1.397 . S
C687 H668 0.929 . S
C687 C684 1.404 . S
C687 N685 1.334 . S
C688 H680 0.930 . S
C688 C683 1.418 . S
C688 C684 1.353 . S
C689 H659 0.930 . S
C689 N690 1.330 . S
C689 C691 1.446 . S
N690 Co649 2.151 . S
N690 C689 1.330 . S
N690 C694 1.418 . S
C691 H670 0.929 . S
C691 C689 1.446 . S
C691 C692 1.332 . S
C692 H672 0.931 . S
C692 C691 1.332 . S
C692 C693 1.267 . S
C693 H661 0.929 . S
C693 C692 1.267 . S
C693 C694 1.251 . S
C694 H664 0.929 . S
C694 N690 1.418 . S
C694 C693 1.251 . S
C695 H662 0.930 . S
C695 C697 1.406 . S
C695 C700 1.261 . S
C696 H663 0.930 . S
C696 N698 1.325 . S
C696 C699 1.357 . S
C697 H665 0.928 . S
C697 C695 1.406 . S
C697 N698 1.261 . S
N698 Co649 2.214 . S
N698 C696 1.325 . S
N698 C697 1.261 . S
C699 H669 0.931 . S
C699 C696 1.357 . S
C699 C700 1.312 . S
C700 H671 0.930 . S
C700 C695 1.261 . S
C700 C699 1.312 . S
C701 O673 1.214 . S
C701 O681 1.234 . S
C702 H674 0.929 . S
C702 C705 1.391 . S
C702 C707 1.391 . S
C703 H675 0.929 . S
C703 C704 1.390 . S
C703 N706 1.391 . S
C704 H676 0.930 . S
C704 C703 1.390 . S
C704 C705 1.392 . S
C705 H677 0.929 . S
C705 C702 1.391 . S
C705 C704 1.392 . S
N706 Co650 2.257 . S
N706 C703 1.391 . S
N706 C707 1.388 . S
C707 H678 0.930 . S
C707 C702 1.391 . S
C707 N706 1.388 . S
Co708 O710 2.143 . S
Co708 O716 2.074 . S
Co708 O719 2.093 . S
Co708 O732 2.097 . S
Co708 N749 2.151 . S
Co708 N757 2.214 . S
Co709 O710 2.160 . S
Co709 O715 2.058 . S
Co709 O725 2.057 . S
Co709 O740 2.037 . S
Co709 N744 2.145 1_556 S
Co709 N765 2.257 . S
O710 Co708 2.143 . S
O710 Co709 2.160 . S
C711 O712 1.278 . S
C711 O719 1.224 . S
O712 C711 1.278 . S
C713 O714 1.245 . S
C713 O725 1.232 . S
O714 C713 1.245 . S
O715 Co709 2.058 . S
O715 C741 1.269 . S
O716 Co708 2.074 . S
O716 C741 1.257 . S
H717 C742 0.930 . S
H718 C748 0.930 . S
O719 Co708 2.093 . S
O719 C711 1.224 . S
H720 C752 0.929 . S
H721 C754 0.930 . S
H722 C755 0.930 . S
H723 C753 0.929 . S
H724 C756 0.928 . S
O725 Co709 2.057 . S
O725 C713 1.232 . S
H726 C745 0.929 . S
H727 C746 0.929 . S
H728 C758 0.931 . S
H729 C750 0.929 . S
H730 C759 0.930 . S
H731 C751 0.931 . S
O732 Co708 2.097 . S
O732 C760 1.214 . S
H733 C761 0.929 . S
H734 C762 0.929 . S
H735 C763 0.930 . S
H736 C764 0.929 . S
H737 C766 0.930 . S
H738 C743 0.930 . S
H739 C747 0.930 . S
O740 Co709 2.037 . S
O740 C760 1.234 . S
C741 O715 1.269 . S
C741 O716 1.257 . S
C742 H717 0.930 . S
C742 C745 1.388 . S
C742 C747 1.418 . S
C743 H738 0.930 . S
C743 C746 1.404 . S
C743 C747 1.353 . S
N744 Co709 2.145 1_554 S
N744 C745 1.397 . S
N744 C746 1.334 . S
C745 H726 0.929 . S
C745 C742 1.388 . S
C745 N744 1.397 . S
C746 H727 0.929 . S
C746 C743 1.404 . S
C746 N744 1.334 . S
C747 H739 0.930 . S
C747 C742 1.418 . S
C747 C743 1.353 . S
C748 H718 0.930 . S
C748 N749 1.330 . S
C748 C750 1.446 . S
N749 Co708 2.151 . S
N749 C748 1.330 . S
N749 C753 1.418 . S
C750 H729 0.929 . S
C750 C748 1.446 . S
C750 C751 1.332 . S
C751 H731 0.931 . S
C751 C750 1.332 . S
C751 C752 1.267 . S
C752 H720 0.929 . S
C752 C751 1.267 . S
C752 C753 1.251 . S
C753 H723 0.929 . S
C753 N749 1.418 . S
C753 C752 1.251 . S
C754 H721 0.930 . S
C754 C756 1.406 . S
C754 C759 1.261 . S
C755 H722 0.930 . S
C755 N757 1.325 . S
C755 C758 1.357 . S
C756 H724 0.928 . S
C756 C754 1.406 . S
C756 N757 1.261 . S
N757 Co708 2.214 . S
N757 C755 1.325 . S
N757 C756 1.261 . S
C758 H728 0.931 . S
C758 C755 1.357 . S
C758 C759 1.312 . S
C759 H730 0.930 . S
C759 C754 1.261 . S
C759 C758 1.312 . S
C760 O732 1.214 . S
C760 O740 1.234 . S
C761 H733 0.929 . S
C761 C764 1.391 . S
C761 C766 1.391 . S
C762 H734 0.929 . S
C762 C763 1.390 . S
C762 N765 1.391 . S
C763 H735 0.930 . S
C763 C762 1.390 . S
C763 C764 1.392 . S
C764 H736 0.929 . S
C764 C761 1.391 . S
C764 C763 1.392 . S
N765 Co709 2.257 . S
N765 C762 1.391 . S
N765 C766 1.388 . S
C766 H737 0.930 . S
C766 C761 1.391 . S
C766 N765 1.388 . S
Co767 O769 2.143 . S
Co767 O775 2.074 . S
Co767 O778 2.093 . S
Co767 O791 2.097 . S
Co767 N808 2.151 . S
Co767 N816 2.214 . S
Co768 O769 2.160 . S
Co768 O774 2.058 . S
Co768 O784 2.057 . S
Co768 O799 2.037 . S
Co768 N803 2.145 . S
Co768 N824 2.257 . S
O769 Co767 2.143 . S
O769 Co768 2.160 . S
C770 O771 1.278 . S
C770 O778 1.224 . S
O771 C770 1.278 . S
C772 O773 1.245 . S
C772 O784 1.232 . S
O773 C772 1.245 . S
O774 Co768 2.058 . S
O774 C800 1.269 . S
O775 Co767 2.074 . S
O775 C800 1.257 . S
H776 C801 0.930 . S
H777 C807 0.930 . S
O778 Co767 2.093 . S
O778 C770 1.224 . S
H779 C811 0.929 . S
H780 C813 0.930 . S
H781 C814 0.930 . S
H782 C812 0.929 . S
H783 C815 0.928 . S
O784 Co768 2.057 . S
O784 C772 1.232 . S
H785 C804 0.929 . S
H786 C805 0.929 . S
H787 C817 0.931 . S
H788 C809 0.929 . S
H789 C818 0.930 . S
H790 C810 0.931 . S
O791 Co767 2.097 . S
O791 C819 1.214 . S
H792 C820 0.929 . S
H793 C821 0.929 . S
H794 C822 0.930 . S
H795 C823 0.929 . S
H796 C825 0.930 . S
H797 C802 0.930 . S
H798 C806 0.930 . S
O799 Co768 2.037 . S
O799 C819 1.234 . S
C800 O774 1.269 . S
C800 O775 1.257 . S
C801 H776 0.930 . S
C801 C804 1.388 . S
C801 C806 1.418 . S
C802 H797 0.930 . S
C802 C805 1.404 . S
C802 C806 1.353 . S
N803 Co768 2.145 . S
N803 C804 1.397 . S
N803 C805 1.334 . S
C804 H785 0.929 . S
C804 C801 1.388 . S
C804 N803 1.397 . S
C805 H786 0.929 . S
C805 C802 1.404 . S
C805 N803 1.334 . S
C806 H798 0.930 . S
C806 C801 1.418 . S
C806 C802 1.353 . S
C807 H777 0.930 . S
C807 N808 1.330 . S
C807 C809 1.446 . S
N808 Co767 2.151 . S
N808 C807 1.330 . S
N808 C812 1.418 . S
C809 H788 0.929 . S
C809 C807 1.446 . S
C809 C810 1.332 . S
C810 H790 0.931 . S
C810 C809 1.332 . S
C810 C811 1.267 . S
C811 H779 0.929 . S
C811 C810 1.267 . S
C811 C812 1.251 . S
C812 H782 0.929 . S
C812 N808 1.418 . S
C812 C811 1.251 . S
C813 H780 0.930 . S
C813 C815 1.406 . S
C813 C818 1.261 . S
C814 H781 0.930 . S
C814 N816 1.325 . S
C814 C817 1.357 . S
C815 H783 0.928 . S
C815 C813 1.406 . S
C815 N816 1.261 . S
N816 Co767 2.214 . S
N816 C814 1.325 . S
N816 C815 1.261 . S
C817 H787 0.931 . S
C817 C814 1.357 . S
C817 C818 1.312 . S
C818 H789 0.930 . S
C818 C813 1.261 . S
C818 C817 1.312 . S
C819 O791 1.214 . S
C819 O799 1.234 . S
C820 H792 0.929 . S
C820 C823 1.391 . S
C820 C825 1.391 . S
C821 H793 0.929 . S
C821 C822 1.390 . S
C821 N824 1.391 . S
C822 H794 0.930 . S
C822 C821 1.390 . S
C822 C823 1.392 . S
C823 H795 0.929 . S
C823 C820 1.391 . S
C823 C822 1.392 . S
N824 Co768 2.257 . S
N824 C821 1.391 . S
N824 C825 1.388 . S
C825 H796 0.930 . S
C825 C820 1.391 . S
C825 N824 1.388 . S
Co826 O828 2.143 . S
Co826 O834 2.074 . S
Co826 O837 2.093 . S
Co826 O850 2.097 . S
Co826 N867 2.151 . S
Co826 N875 2.214 . S
Co827 O828 2.160 . S
Co827 O833 2.058 . S
Co827 O843 2.057 . S
Co827 O858 2.037 . S
Co827 N862 2.145 1_556 S
Co827 N883 2.257 . S
O828 Co826 2.143 . S
O828 Co827 2.160 . S
C829 O830 1.278 . S
C829 O837 1.224 . S
O830 C829 1.278 . S
C831 O832 1.245 . S
C831 O843 1.232 . S
O832 C831 1.245 . S
O833 Co827 2.058 . S
O833 C859 1.269 . S
O834 Co826 2.074 . S
O834 C859 1.257 . S
H835 C860 0.930 . S
H836 C866 0.930 . S
O837 Co826 2.093 . S
O837 C829 1.224 . S
H838 C870 0.929 . S
H839 C872 0.930 . S
H840 C873 0.930 . S
H841 C871 0.929 . S
H842 C874 0.928 . S
O843 Co827 2.057 . S
O843 C831 1.232 . S
H844 C863 0.929 . S
H845 C864 0.929 . S
H846 C876 0.931 . S
H847 C868 0.929 . S
H848 C877 0.930 . S
H849 C869 0.931 . S
O850 Co826 2.097 . S
O850 C878 1.214 . S
H851 C879 0.929 . S
H852 C880 0.929 . S
H853 C881 0.930 . S
H854 C882 0.929 . S
H855 C884 0.930 . S
H856 C861 0.930 . S
H857 C865 0.930 . S
O858 Co827 2.037 . S
O858 C878 1.234 . S
C859 O833 1.269 . S
C859 O834 1.257 . S
C860 H835 0.930 . S
C860 C863 1.388 . S
C860 C865 1.418 . S
C861 H856 0.930 . S
C861 C864 1.404 . S
C861 C865 1.353 . S
N862 Co827 2.145 1_554 S
N862 C863 1.397 . S
N862 C864 1.334 . S
C863 H844 0.929 . S
C863 C860 1.388 . S
C863 N862 1.397 . S
C864 H845 0.929 . S
C864 C861 1.404 . S
C864 N862 1.334 . S
C865 H857 0.930 . S
C865 C860 1.418 . S
C865 C861 1.353 . S
C866 H836 0.930 . S
C866 N867 1.330 . S
C866 C868 1.446 . S
N867 Co826 2.151 . S
N867 C866 1.330 . S
N867 C871 1.418 . S
C868 H847 0.929 . S
C868 C866 1.446 . S
C868 C869 1.332 . S
C869 H849 0.931 . S
C869 C868 1.332 . S
C869 C870 1.267 . S
C870 H838 0.929 . S
C870 C869 1.267 . S
C870 C871 1.251 . S
C871 H841 0.929 . S
C871 N867 1.418 . S
C871 C870 1.251 . S
C872 H839 0.930 . S
C872 C874 1.406 . S
C872 C877 1.261 . S
C873 H840 0.930 . S
C873 N875 1.325 . S
C873 C876 1.357 . S
C874 H842 0.928 . S
C874 C872 1.406 . S
C874 N875 1.261 . S
N875 Co826 2.214 . S
N875 C873 1.325 . S
N875 C874 1.261 . S
C876 H846 0.931 . S
C876 C873 1.357 . S
C876 C877 1.312 . S
C877 H848 0.930 . S
C877 C872 1.261 . S
C877 C876 1.312 . S
C878 O850 1.214 . S
C878 O858 1.234 . S
C879 H851 0.929 . S
C879 C882 1.391 . S
C879 C884 1.391 . S
C880 H852 0.929 . S
C880 C881 1.390 . S
C880 N883 1.391 . S
C881 H853 0.930 . S
C881 C880 1.390 . S
C881 C882 1.392 . S
C882 H854 0.929 . S
C882 C879 1.391 . S
C882 C881 1.392 . S
N883 Co827 2.257 . S
N883 C880 1.391 . S
N883 C884 1.388 . S
C884 H855 0.930 . S
C884 C879 1.391 . S
C884 N883 1.388 . S
Co885 O887 2.143 . S
Co885 O893 2.074 . S
Co885 O896 2.093 . S
Co885 O909 2.097 . S
Co885 N926 2.151 . S
Co885 N934 2.214 . S
Co886 O887 2.160 . S
Co886 O892 2.058 . S
Co886 O902 2.057 . S
Co886 O917 2.037 . S
Co886 N921 2.145 . S
Co886 N942 2.257 . S
O887 Co885 2.143 . S
O887 Co886 2.160 . S
C888 O889 1.278 . S
C888 O896 1.224 . S
O889 C888 1.278 . S
C890 O891 1.245 . S
C890 O902 1.232 . S
O891 C890 1.245 . S
O892 Co886 2.058 . S
O892 C918 1.269 . S
O893 Co885 2.074 . S
O893 C918 1.257 . S
H894 C919 0.930 . S
H895 C925 0.930 . S
O896 Co885 2.093 . S
O896 C888 1.224 . S
H897 C929 0.929 . S
H898 C931 0.930 . S
H899 C932 0.930 . S
H900 C930 0.929 . S
H901 C933 0.928 . S
O902 Co886 2.057 . S
O902 C890 1.232 . S
H903 C922 0.929 . S
H904 C923 0.929 . S
H905 C935 0.931 . S
H906 C927 0.929 . S
H907 C936 0.930 . S
H908 C928 0.931 . S
O909 Co885 2.097 . S
O909 C937 1.214 . S
H910 C938 0.929 . S
H911 C939 0.929 . S
H912 C940 0.930 . S
H913 C941 0.929 . S
H914 C943 0.930 . S
H915 C920 0.930 . S
H916 C924 0.930 . S
O917 Co886 2.037 . S
O917 C937 1.234 . S
C918 O892 1.269 . S
C918 O893 1.257 . S
C919 H894 0.930 . S
C919 C922 1.388 . S
C919 C924 1.418 . S
C920 H915 0.930 . S
C920 C923 1.404 . S
C920 C924 1.353 . S
N921 Co886 2.145 . S
N921 C922 1.397 . S
N921 C923 1.334 . S
C922 H903 0.929 . S
C922 C919 1.388 . S
C922 N921 1.397 . S
C923 H904 0.929 . S
C923 C920 1.404 . S
C923 N921 1.334 . S
C924 H916 0.930 . S
C924 C919 1.418 . S
C924 C920 1.353 . S
C925 H895 0.930 . S
C925 N926 1.330 . S
C925 C927 1.446 . S
N926 Co885 2.151 . S
N926 C925 1.330 . S
N926 C930 1.418 . S
C927 H906 0.929 . S
C927 C925 1.446 . S
C927 C928 1.332 . S
C928 H908 0.931 . S
C928 C927 1.332 . S
C928 C929 1.267 . S
C929 H897 0.929 . S
C929 C928 1.267 . S
C929 C930 1.251 . S
C930 H900 0.929 . S
C930 N926 1.418 . S
C930 C929 1.251 . S
C931 H898 0.930 . S
C931 C933 1.406 . S
C931 C936 1.261 . S
C932 H899 0.930 . S
C932 N934 1.325 . S
C932 C935 1.357 . S
C933 H901 0.928 . S
C933 C931 1.406 . S
C933 N934 1.261 . S
N934 Co885 2.214 . S
N934 C932 1.325 . S
N934 C933 1.261 . S
C935 H905 0.931 . S
C935 C932 1.357 . S
C935 C936 1.312 . S
C936 H907 0.930 . S
C936 C931 1.261 . S
C936 C935 1.312 . S
C937 O909 1.214 . S
C937 O917 1.234 . S
C938 H910 0.929 . S
C938 C941 1.391 . S
C938 C943 1.391 . S
C939 H911 0.929 . S
C939 C940 1.390 . S
C939 N942 1.391 . S
C940 H912 0.930 . S
C940 C939 1.390 . S
C940 C941 1.392 . S
C941 H913 0.929 . S
C941 C938 1.391 . S
C941 C940 1.392 . S
N942 Co886 2.257 . S
N942 C939 1.391 . S
N942 C943 1.388 . S
C943 H914 0.930 . S
C943 C938 1.391 . S
C943 N942 1.388 . S
Co944 O946 2.143 . S
Co944 O952 2.074 . S
Co944 O955 2.093 . S
Co944 O968 2.097 . S
Co944 N985 2.151 . S
Co944 N993 2.214 . S
Co945 O946 2.160 . S
Co945 O951 2.058 . S
Co945 O961 2.057 . S
Co945 O976 2.037 . S
Co945 N980 2.145 1_556 S
Co945 N1001 2.257 . S
O946 Co944 2.143 . S
O946 Co945 2.160 . S
C947 O948 1.278 . S
C947 O955 1.224 . S
O948 C947 1.278 . S
C949 O950 1.245 . S
C949 O961 1.232 . S
O950 C949 1.245 . S
O951 Co945 2.058 . S
O951 C977 1.269 . S
O952 Co944 2.074 . S
O952 C977 1.257 . S
H953 C978 0.930 . S
H954 C984 0.930 . S
O955 Co944 2.093 . S
O955 C947 1.224 . S
H956 C988 0.929 . S
H957 C990 0.930 . S
H958 C991 0.930 . S
H959 C989 0.929 . S
H960 C992 0.928 . S
O961 Co945 2.057 . S
O961 C949 1.232 . S
H962 C981 0.929 . S
H963 C982 0.929 . S
H964 C994 0.931 . S
H965 C986 0.929 . S
H966 C995 0.930 . S
H967 C987 0.931 . S
O968 Co944 2.097 . S
O968 C996 1.214 . S
H969 C997 0.929 . S
H970 C998 0.929 . S
H971 C999 0.930 . S
H972 C1000 0.929 . S
H973 C1002 0.930 . S
H974 C979 0.930 . S
H975 C983 0.930 . S
O976 Co945 2.037 . S
O976 C996 1.234 . S
C977 O951 1.269 . S
C977 O952 1.257 . S
C978 H953 0.930 . S
C978 C981 1.388 . S
C978 C983 1.418 . S
C979 H974 0.930 . S
C979 C982 1.404 . S
C979 C983 1.353 . S
N980 Co945 2.145 1_554 S
N980 C981 1.397 . S
N980 C982 1.334 . S
C981 H962 0.929 . S
C981 C978 1.388 . S
C981 N980 1.397 . S
C982 H963 0.929 . S
C982 C979 1.404 . S
C982 N980 1.334 . S
C983 H975 0.930 . S
C983 C978 1.418 . S
C983 C979 1.353 . S
C984 H954 0.930 . S
C984 N985 1.330 . S
C984 C986 1.446 . S
N985 Co944 2.151 . S
N985 C984 1.330 . S
N985 C989 1.418 . S
C986 H965 0.929 . S
C986 C984 1.446 . S
C986 C987 1.332 . S
C987 H967 0.931 . S
C987 C986 1.332 . S
C987 C988 1.267 . S
C988 H956 0.929 . S
C988 C987 1.267 . S
C988 C989 1.251 . S
C989 H959 0.929 . S
C989 N985 1.418 . S
C989 C988 1.251 . S
C990 H957 0.930 . S
C990 C992 1.406 . S
C990 C995 1.261 . S
C991 H958 0.930 . S
C991 N993 1.325 . S
C991 C994 1.357 . S
C992 H960 0.928 . S
C992 C990 1.406 . S
C992 N993 1.261 . S
N993 Co944 2.214 . S
N993 C991 1.325 . S
N993 C992 1.261 . S
C994 H964 0.931 . S
C994 C991 1.357 . S
C994 C995 1.312 . S
C995 H966 0.930 . S
C995 C990 1.261 . S
C995 C994 1.312 . S
C996 O968 1.214 . S
C996 O976 1.234 . S
C997 H969 0.929 . S
C997 C1000 1.391 . S
C997 C1002 1.391 . S
C998 H970 0.929 . S
C998 C999 1.390 . S
C998 N1001 1.391 . S
C999 H971 0.930 . S
C999 C998 1.390 . S
C999 C1000 1.392 . S
C1000 H972 0.929 . S
C1000 C997 1.391 . S
C1000 C999 1.392 . S
N1001 Co945 2.257 . S
N1001 C998 1.391 . S
N1001 C1002 1.388 . S
C1002 H973 0.930 . S
C1002 C997 1.391 . S
C1002 N1001 1.388 . S
Co1003 O1005 2.143 . S
Co1003 O1011 2.074 . S
Co1003 O1014 2.093 . S
Co1003 O1027 2.097 . S
Co1003 N1044 2.151 . S
Co1003 N1052 2.214 . S
Co1004 O1005 2.160 . S
Co1004 O1010 2.058 . S
Co1004 O1020 2.057 . S
Co1004 O1035 2.037 . S
Co1004 N1039 2.145 . S
Co1004 N1060 2.257 . S
O1005 Co1003 2.143 . S
O1005 Co1004 2.160 . S
C1006 O1007 1.278 . S
C1006 O1014 1.224 . S
O1007 C1006 1.278 . S
C1008 O1009 1.245 . S
C1008 O1020 1.232 . S
O1009 C1008 1.245 . S
O1010 Co1004 2.058 . S
O1010 C1036 1.269 . S
O1011 Co1003 2.074 . S
O1011 C1036 1.257 . S
H1012 C1037 0.930 . S
H1013 C1043 0.930 . S
O1014 Co1003 2.093 . S
O1014 C1006 1.224 . S
H1015 C1047 0.929 . S
H1016 C1049 0.930 . S
H1017 C1050 0.930 . S
H1018 C1048 0.929 . S
H1019 C1051 0.928 . S
O1020 Co1004 2.057 . S
O1020 C1008 1.232 . S
H1021 C1040 0.929 . S
H1022 C1041 0.929 . S
H1023 C1053 0.931 . S
H1024 C1045 0.929 . S
H1025 C1054 0.930 . S
H1026 C1046 0.931 . S
O1027 Co1003 2.097 . S
O1027 C1055 1.214 . S
H1028 C1056 0.929 . S
H1029 C1057 0.929 . S
H1030 C1058 0.930 . S
H1031 C1059 0.929 . S
H1032 C1061 0.930 . S
H1033 C1038 0.930 . S
H1034 C1042 0.930 . S
O1035 Co1004 2.037 . S
O1035 C1055 1.234 . S
C1036 O1010 1.269 . S
C1036 O1011 1.257 . S
C1037 H1012 0.930 . S
C1037 C1040 1.388 . S
C1037 C1042 1.418 . S
C1038 H1033 0.930 . S
C1038 C1041 1.404 . S
C1038 C1042 1.353 . S
N1039 Co1004 2.145 . S
N1039 C1040 1.397 . S
N1039 C1041 1.334 . S
C1040 H1021 0.929 . S
C1040 C1037 1.388 . S
C1040 N1039 1.397 . S
C1041 H1022 0.929 . S
C1041 C1038 1.404 . S
C1041 N1039 1.334 . S
C1042 H1034 0.930 . S
C1042 C1037 1.418 . S
C1042 C1038 1.353 . S
C1043 H1013 0.930 . S
C1043 N1044 1.330 . S
C1043 C1045 1.446 . S
N1044 Co1003 2.151 . S
N1044 C1043 1.330 . S
N1044 C1048 1.418 . S
C1045 H1024 0.929 . S
C1045 C1043 1.446 . S
C1045 C1046 1.332 . S
C1046 H1026 0.931 . S
C1046 C1045 1.332 . S
C1046 C1047 1.267 . S
C1047 H1015 0.929 . S
C1047 C1046 1.267 . S
C1047 C1048 1.251 . S
C1048 H1018 0.929 . S
C1048 N1044 1.418 . S
C1048 C1047 1.251 . S
C1049 H1016 0.930 . S
C1049 C1051 1.406 . S
C1049 C1054 1.261 . S
C1050 H1017 0.930 . S
C1050 N1052 1.325 . S
C1050 C1053 1.357 . S
C1051 H1019 0.928 . S
C1051 C1049 1.406 . S
C1051 N1052 1.261 . S
N1052 Co1003 2.214 . S
N1052 C1050 1.325 . S
N1052 C1051 1.261 . S
C1053 H1023 0.931 . S
C1053 C1050 1.357 . S
C1053 C1054 1.312 . S
C1054 H1025 0.930 . S
C1054 C1049 1.261 . S
C1054 C1053 1.312 . S
C1055 O1027 1.214 . S
C1055 O1035 1.234 . S
C1056 H1028 0.929 . S
C1056 C1059 1.391 . S
C1056 C1061 1.391 . S
C1057 H1029 0.929 . S
C1057 C1058 1.390 . S
C1057 N1060 1.391 . S
C1058 H1030 0.930 . S
C1058 C1057 1.390 . S
C1058 C1059 1.392 . S
C1059 H1031 0.929 . S
C1059 C1056 1.391 . S
C1059 C1058 1.392 . S
N1060 Co1004 2.257 . S
N1060 C1057 1.391 . S
N1060 C1061 1.388 . S
C1061 H1032 0.930 . S
C1061 C1056 1.391 . S
C1061 N1060 1.388 . S
Co1062 O1064 2.143 . S
Co1062 O1070 2.074 . S
Co1062 O1073 2.093 . S
Co1062 O1086 2.097 . S
Co1062 N1103 2.151 . S
Co1062 N1111 2.214 . S
Co1063 O1064 2.160 . S
Co1063 O1069 2.058 . S
Co1063 O1079 2.057 . S
Co1063 O1094 2.037 . S
Co1063 N1098 2.145 1_554 S
Co1063 N1119 2.257 . S
O1064 Co1062 2.143 . S
O1064 Co1063 2.160 . S
C1065 O1066 1.278 . S
C1065 O1073 1.224 . S
O1066 C1065 1.278 . S
C1067 O1068 1.245 . S
C1067 O1079 1.232 . S
O1068 C1067 1.245 . S
O1069 Co1063 2.058 . S
O1069 C1095 1.269 . S
O1070 Co1062 2.074 . S
O1070 C1095 1.257 . S
H1071 C1096 0.930 . S
H1072 C1102 0.930 . S
O1073 Co1062 2.093 . S
O1073 C1065 1.224 . S
H1074 C1106 0.929 . S
H1075 C1108 0.930 . S
H1076 C1109 0.930 . S
H1077 C1107 0.929 . S
H1078 C1110 0.928 . S
O1079 Co1063 2.057 . S
O1079 C1067 1.232 . S
H1080 C1099 0.929 . S
H1081 C1100 0.929 . S
H1082 C1112 0.931 . S
H1083 C1104 0.929 . S
H1084 C1113 0.930 . S
H1085 C1105 0.931 . S
O1086 Co1062 2.097 . S
O1086 C1114 1.214 . S
H1087 C1115 0.929 . S
H1088 C1116 0.929 . S
H1089 C1117 0.930 . S
H1090 C1118 0.929 . S
H1091 C1120 0.930 . S
H1092 C1097 0.930 . S
H1093 C1101 0.930 . S
O1094 Co1063 2.037 . S
O1094 C1114 1.234 . S
C1095 O1069 1.269 . S
C1095 O1070 1.257 . S
C1096 H1071 0.930 . S
C1096 C1099 1.388 . S
C1096 C1101 1.418 . S
C1097 H1092 0.930 . S
C1097 C1100 1.404 . S
C1097 C1101 1.353 . S
N1098 Co1063 2.145 1_556 S
N1098 C1099 1.397 . S
N1098 C1100 1.334 . S
C1099 H1080 0.929 . S
C1099 C1096 1.388 . S
C1099 N1098 1.397 . S
C1100 H1081 0.929 . S
C1100 C1097 1.404 . S
C1100 N1098 1.334 . S
C1101 H1093 0.930 . S
C1101 C1096 1.418 . S
C1101 C1097 1.353 . S
C1102 H1072 0.930 . S
C1102 N1103 1.330 . S
C1102 C1104 1.446 . S
N1103 Co1062 2.151 . S
N1103 C1102 1.330 . S
N1103 C1107 1.418 . S
C1104 H1083 0.929 . S
C1104 C1102 1.446 . S
C1104 C1105 1.332 . S
C1105 H1085 0.931 . S
C1105 C1104 1.332 . S
C1105 C1106 1.267 . S
C1106 H1074 0.929 . S
C1106 C1105 1.267 . S
C1106 C1107 1.251 . S
C1107 H1077 0.929 . S
C1107 N1103 1.418 . S
C1107 C1106 1.251 . S
C1108 H1075 0.930 . S
C1108 C1110 1.406 . S
C1108 C1113 1.261 . S
C1109 H1076 0.930 . S
C1109 N1111 1.325 . S
C1109 C1112 1.357 . S
C1110 H1078 0.928 . S
C1110 C1108 1.406 . S
C1110 N1111 1.261 . S
N1111 Co1062 2.214 . S
N1111 C1109 1.325 . S
N1111 C1110 1.261 . S
C1112 H1082 0.931 . S
C1112 C1109 1.357 . S
C1112 C1113 1.312 . S
C1113 H1084 0.930 . S
C1113 C1108 1.261 . S
C1113 C1112 1.312 . S
C1114 O1086 1.214 . S
C1114 O1094 1.234 . S
C1115 H1087 0.929 . S
C1115 C1118 1.391 . S
C1115 C1120 1.391 . S
C1116 H1088 0.929 . S
C1116 C1117 1.390 . S
C1116 N1119 1.391 . S
C1117 H1089 0.930 . S
C1117 C1116 1.390 . S
C1117 C1118 1.392 . S
C1118 H1090 0.929 . S
C1118 C1115 1.391 . S
C1118 C1117 1.392 . S
N1119 Co1063 2.257 . S
N1119 C1116 1.391 . S
N1119 C1120 1.388 . S
C1120 H1091 0.930 . S
C1120 C1115 1.391 . S
C1120 N1119 1.388 . S
Co1121 O1123 2.143 . S
Co1121 O1129 2.074 . S
Co1121 O1132 2.093 . S
Co1121 O1145 2.097 . S
Co1121 N1162 2.151 . S
Co1121 N1170 2.214 . S
Co1122 O1123 2.160 . S
Co1122 O1128 2.058 . S
Co1122 O1138 2.057 . S
Co1122 O1153 2.037 . S
Co1122 N1157 2.145 . S
Co1122 N1178 2.257 . S
O1123 Co1121 2.143 . S
O1123 Co1122 2.160 . S
C1124 O1125 1.278 . S
C1124 O1132 1.224 . S
O1125 C1124 1.278 . S
C1126 O1127 1.245 . S
C1126 O1138 1.232 . S
O1127 C1126 1.245 . S
O1128 Co1122 2.058 . S
O1128 C1154 1.269 . S
O1129 Co1121 2.074 . S
O1129 C1154 1.257 . S
H1130 C1155 0.930 . S
H1131 C1161 0.930 . S
O1132 Co1121 2.093 . S
O1132 C1124 1.224 . S
H1133 C1165 0.929 . S
H1134 C1167 0.930 . S
H1135 C1168 0.930 . S
H1136 C1166 0.929 . S
H1137 C1169 0.928 . S
O1138 Co1122 2.057 . S
O1138 C1126 1.232 . S
H1139 C1158 0.929 . S
H1140 C1159 0.929 . S
H1141 C1171 0.931 . S
H1142 C1163 0.929 . S
H1143 C1172 0.930 . S
H1144 C1164 0.931 . S
O1145 Co1121 2.097 . S
O1145 C1173 1.214 . S
H1146 C1174 0.929 . S
H1147 C1175 0.929 . S
H1148 C1176 0.930 . S
H1149 C1177 0.929 . S
H1150 C1179 0.930 . S
H1151 C1156 0.930 . S
H1152 C1160 0.930 . S
O1153 Co1122 2.037 . S
O1153 C1173 1.234 . S
C1154 O1128 1.269 . S
C1154 O1129 1.257 . S
C1155 H1130 0.930 . S
C1155 C1158 1.388 . S
C1155 C1160 1.418 . S
C1156 H1151 0.930 . S
C1156 C1159 1.404 . S
C1156 C1160 1.353 . S
N1157 Co1122 2.145 . S
N1157 C1158 1.397 . S
N1157 C1159 1.334 . S
C1158 H1139 0.929 . S
C1158 C1155 1.388 . S
C1158 N1157 1.397 . S
C1159 H1140 0.929 . S
C1159 C1156 1.404 . S
C1159 N1157 1.334 . S
C1160 H1152 0.930 . S
C1160 C1155 1.418 . S
C1160 C1156 1.353 . S
C1161 H1131 0.930 . S
C1161 N1162 1.330 . S
C1161 C1163 1.446 . S
N1162 Co1121 2.151 . S
N1162 C1161 1.330 . S
N1162 C1166 1.418 . S
C1163 H1142 0.929 . S
C1163 C1161 1.446 . S
C1163 C1164 1.332 . S
C1164 H1144 0.931 . S
C1164 C1163 1.332 . S
C1164 C1165 1.267 . S
C1165 H1133 0.929 . S
C1165 C1164 1.267 . S
C1165 C1166 1.251 . S
C1166 H1136 0.929 . S
C1166 N1162 1.418 . S
C1166 C1165 1.251 . S
C1167 H1134 0.930 . S
C1167 C1169 1.406 . S
C1167 C1172 1.261 . S
C1168 H1135 0.930 . S
C1168 N1170 1.325 . S
C1168 C1171 1.357 . S
C1169 H1137 0.928 . S
C1169 C1167 1.406 . S
C1169 N1170 1.261 . S
N1170 Co1121 2.214 . S
N1170 C1168 1.325 . S
N1170 C1169 1.261 . S
C1171 H1141 0.931 . S
C1171 C1168 1.357 . S
C1171 C1172 1.312 . S
C1172 H1143 0.930 . S
C1172 C1167 1.261 . S
C1172 C1171 1.312 . S
C1173 O1145 1.214 . S
C1173 O1153 1.234 . S
C1174 H1146 0.929 . S
C1174 C1177 1.391 . S
C1174 C1179 1.391 . S
C1175 H1147 0.929 . S
C1175 C1176 1.390 . S
C1175 N1178 1.391 . S
C1176 H1148 0.930 . S
C1176 C1175 1.390 . S
C1176 C1177 1.392 . S
C1177 H1149 0.929 . S
C1177 C1174 1.391 . S
C1177 C1176 1.392 . S
N1178 Co1122 2.257 . S
N1178 C1175 1.391 . S
N1178 C1179 1.388 . S
C1179 H1150 0.930 . S
C1179 C1174 1.391 . S
C1179 N1178 1.388 . S
Co1180 O1182 2.143 . S
Co1180 O1188 2.074 . S
Co1180 O1191 2.093 . S
Co1180 O1204 2.097 . S
Co1180 N1221 2.151 . S
Co1180 N1229 2.214 . S
Co1181 O1182 2.160 . S
Co1181 O1187 2.058 . S
Co1181 O1197 2.057 . S
Co1181 O1212 2.037 . S
Co1181 N1216 2.145 1_554 S
Co1181 N1237 2.257 . S
O1182 Co1180 2.143 . S
O1182 Co1181 2.160 . S
C1183 O1184 1.278 . S
C1183 O1191 1.224 . S
O1184 C1183 1.278 . S
C1185 O1186 1.245 . S
C1185 O1197 1.232 . S
O1186 C1185 1.245 . S
O1187 Co1181 2.058 . S
O1187 C1213 1.269 . S
O1188 Co1180 2.074 . S
O1188 C1213 1.257 . S
H1189 C1214 0.930 . S
H1190 C1220 0.930 . S
O1191 Co1180 2.093 . S
O1191 C1183 1.224 . S
H1192 C1224 0.929 . S
H1193 C1226 0.930 . S
H1194 C1227 0.930 . S
H1195 C1225 0.929 . S
H1196 C1228 0.928 . S
O1197 Co1181 2.057 . S
O1197 C1185 1.232 . S
H1198 C1217 0.929 . S
H1199 C1218 0.929 . S
H1200 C1230 0.931 . S
H1201 C1222 0.929 . S
H1202 C1231 0.930 . S
H1203 C1223 0.931 . S
O1204 Co1180 2.097 . S
O1204 C1232 1.214 . S
H1205 C1233 0.929 . S
H1206 C1234 0.929 . S
H1207 C1235 0.930 . S
H1208 C1236 0.929 . S
H1209 C1238 0.930 . S
H1210 C1215 0.930 . S
H1211 C1219 0.930 . S
O1212 Co1181 2.037 . S
O1212 C1232 1.234 . S
C1213 O1187 1.269 . S
C1213 O1188 1.257 . S
C1214 H1189 0.930 . S
C1214 C1217 1.388 . S
C1214 C1219 1.418 . S
C1215 H1210 0.930 . S
C1215 C1218 1.404 . S
C1215 C1219 1.353 . S
N1216 Co1181 2.145 1_556 S
N1216 C1217 1.397 . S
N1216 C1218 1.334 . S
C1217 H1198 0.929 . S
C1217 C1214 1.388 . S
C1217 N1216 1.397 . S
C1218 H1199 0.929 . S
C1218 C1215 1.404 . S
C1218 N1216 1.334 . S
C1219 H1211 0.930 . S
C1219 C1214 1.418 . S
C1219 C1215 1.353 . S
C1220 H1190 0.930 . S
C1220 N1221 1.330 . S
C1220 C1222 1.446 . S
N1221 Co1180 2.151 . S
N1221 C1220 1.330 . S
N1221 C1225 1.418 . S
C1222 H1201 0.929 . S
C1222 C1220 1.446 . S
C1222 C1223 1.332 . S
C1223 H1203 0.931 . S
C1223 C1222 1.332 . S
C1223 C1224 1.267 . S
C1224 H1192 0.929 . S
C1224 C1223 1.267 . S
C1224 C1225 1.251 . S
C1225 H1195 0.929 . S
C1225 N1221 1.418 . S
C1225 C1224 1.251 . S
C1226 H1193 0.930 . S
C1226 C1228 1.406 . S
C1226 C1231 1.261 . S
C1227 H1194 0.930 . S
C1227 N1229 1.325 . S
C1227 C1230 1.357 . S
C1228 H1196 0.928 . S
C1228 C1226 1.406 . S
C1228 N1229 1.261 . S
N1229 Co1180 2.214 . S
N1229 C1227 1.325 . S
N1229 C1228 1.261 . S
C1230 H1200 0.931 . S
C1230 C1227 1.357 . S
C1230 C1231 1.312 . S
C1231 H1202 0.930 . S
C1231 C1226 1.261 . S
C1231 C1230 1.312 . S
C1232 O1204 1.214 . S
C1232 O1212 1.234 . S
C1233 H1205 0.929 . S
C1233 C1236 1.391 . S
C1233 C1238 1.391 . S
C1234 H1206 0.929 . S
C1234 C1235 1.390 . S
C1234 N1237 1.391 . S
C1235 H1207 0.930 . S
C1235 C1234 1.390 . S
C1235 C1236 1.392 . S
C1236 H1208 0.929 . S
C1236 C1233 1.391 . S
C1236 C1235 1.392 . S
N1237 Co1181 2.257 . S
N1237 C1234 1.391 . S
N1237 C1238 1.388 . S
C1238 H1209 0.930 . S
C1238 C1233 1.391 . S
C1238 N1237 1.388 . S
Co1239 O1241 2.143 . S
Co1239 O1247 2.074 . S
Co1239 O1250 2.093 . S
Co1239 O1263 2.097 . S
Co1239 N1280 2.151 . S
Co1239 N1288 2.214 . S
Co1240 O1241 2.160 . S
Co1240 O1246 2.058 . S
Co1240 O1256 2.057 . S
Co1240 O1271 2.037 . S
Co1240 N1275 2.145 . S
Co1240 N1296 2.257 . S
O1241 Co1239 2.143 . S
O1241 Co1240 2.160 . S
C1242 O1243 1.278 . S
C1242 O1250 1.224 . S
O1243 C1242 1.278 . S
C1244 O1245 1.245 . S
C1244 O1256 1.232 . S
O1245 C1244 1.245 . S
O1246 Co1240 2.058 . S
O1246 C1272 1.269 . S
O1247 Co1239 2.074 . S
O1247 C1272 1.257 . S
H1248 C1273 0.930 . S
H1249 C1279 0.930 . S
O1250 Co1239 2.093 . S
O1250 C1242 1.224 . S
H1251 C1283 0.929 . S
H1252 C1285 0.930 . S
H1253 C1286 0.930 . S
H1254 C1284 0.929 . S
H1255 C1287 0.928 . S
O1256 Co1240 2.057 . S
O1256 C1244 1.232 . S
H1257 C1276 0.929 . S
H1258 C1277 0.929 . S
H1259 C1289 0.931 . S
H1260 C1281 0.929 . S
H1261 C1290 0.930 . S
H1262 C1282 0.931 . S
O1263 Co1239 2.097 . S
O1263 C1291 1.214 . S
H1264 C1292 0.929 . S
H1265 C1293 0.929 . S
H1266 C1294 0.930 . S
H1267 C1295 0.929 . S
H1268 C1297 0.930 . S
H1269 C1274 0.930 . S
H1270 C1278 0.930 . S
O1271 Co1240 2.037 . S
O1271 C1291 1.234 . S
C1272 O1246 1.269 . S
C1272 O1247 1.257 . S
C1273 H1248 0.930 . S
C1273 C1276 1.388 . S
C1273 C1278 1.418 . S
C1274 H1269 0.930 . S
C1274 C1277 1.404 . S
C1274 C1278 1.353 . S
N1275 Co1240 2.145 . S
N1275 C1276 1.397 . S
N1275 C1277 1.334 . S
C1276 H1257 0.929 . S
C1276 C1273 1.388 . S
C1276 N1275 1.397 . S
C1277 H1258 0.929 . S
C1277 C1274 1.404 . S
C1277 N1275 1.334 . S
C1278 H1270 0.930 . S
C1278 C1273 1.418 . S
C1278 C1274 1.353 . S
C1279 H1249 0.930 . S
C1279 N1280 1.330 . S
C1279 C1281 1.446 . S
N1280 Co1239 2.151 . S
N1280 C1279 1.330 . S
N1280 C1284 1.418 . S
C1281 H1260 0.929 . S
C1281 C1279 1.446 . S
C1281 C1282 1.332 . S
C1282 H1262 0.931 . S
C1282 C1281 1.332 . S
C1282 C1283 1.267 . S
C1283 H1251 0.929 . S
C1283 C1282 1.267 . S
C1283 C1284 1.251 . S
C1284 H1254 0.929 . S
C1284 N1280 1.418 . S
C1284 C1283 1.251 . S
C1285 H1252 0.930 . S
C1285 C1287 1.406 . S
C1285 C1290 1.261 . S
C1286 H1253 0.930 . S
C1286 N1288 1.325 . S
C1286 C1289 1.357 . S
C1287 H1255 0.928 . S
C1287 C1285 1.406 . S
C1287 N1288 1.261 . S
N1288 Co1239 2.214 . S
N1288 C1286 1.325 . S
N1288 C1287 1.261 . S
C1289 H1259 0.931 . S
C1289 C1286 1.357 . S
C1289 C1290 1.312 . S
C1290 H1261 0.930 . S
C1290 C1285 1.261 . S
C1290 C1289 1.312 . S
C1291 O1263 1.214 . S
C1291 O1271 1.234 . S
C1292 H1264 0.929 . S
C1292 C1295 1.391 . S
C1292 C1297 1.391 . S
C1293 H1265 0.929 . S
C1293 C1294 1.390 . S
C1293 N1296 1.391 . S
C1294 H1266 0.930 . S
C1294 C1293 1.390 . S
C1294 C1295 1.392 . S
C1295 H1267 0.929 . S
C1295 C1292 1.391 . S
C1295 C1294 1.392 . S
N1296 Co1240 2.257 . S
N1296 C1293 1.391 . S
N1296 C1297 1.388 . S
C1297 H1268 0.930 . S
C1297 C1292 1.391 . S
C1297 N1296 1.388 . S
Co1298 O1300 2.143 . S
Co1298 O1306 2.074 . S
Co1298 O1309 2.093 . S
Co1298 O1322 2.097 . S
Co1298 N1339 2.151 . S
Co1298 N1347 2.214 . S
Co1299 O1300 2.160 . S
Co1299 O1305 2.058 . S
Co1299 O1315 2.057 . S
Co1299 O1330 2.037 . S
Co1299 N1334 2.145 1_554 S
Co1299 N1355 2.257 . S
O1300 Co1298 2.143 . S
O1300 Co1299 2.160 . S
C1301 O1302 1.278 . S
C1301 O1309 1.224 . S
O1302 C1301 1.278 . S
C1303 O1304 1.245 . S
C1303 O1315 1.232 . S
O1304 C1303 1.245 . S
O1305 Co1299 2.058 . S
O1305 C1331 1.269 . S
O1306 Co1298 2.074 . S
O1306 C1331 1.257 . S
H1307 C1332 0.930 . S
H1308 C1338 0.930 . S
O1309 Co1298 2.093 . S
O1309 C1301 1.224 . S
H1310 C1342 0.929 . S
H1311 C1344 0.930 . S
H1312 C1345 0.930 . S
H1313 C1343 0.929 . S
H1314 C1346 0.928 . S
O1315 Co1299 2.057 . S
O1315 C1303 1.232 . S
H1316 C1335 0.929 . S
H1317 C1336 0.929 . S
H1318 C1348 0.931 . S
H1319 C1340 0.929 . S
H1320 C1349 0.930 . S
H1321 C1341 0.931 . S
O1322 Co1298 2.097 . S
O1322 C1350 1.214 . S
H1323 C1351 0.929 . S
H1324 C1352 0.929 . S
H1325 C1353 0.930 . S
H1326 C1354 0.929 . S
H1327 C1356 0.930 . S
H1328 C1333 0.930 . S
H1329 C1337 0.930 . S
O1330 Co1299 2.037 . S
O1330 C1350 1.234 . S
C1331 O1305 1.269 . S
C1331 O1306 1.257 . S
C1332 H1307 0.930 . S
C1332 C1335 1.388 . S
C1332 C1337 1.418 . S
C1333 H1328 0.930 . S
C1333 C1336 1.404 . S
C1333 C1337 1.353 . S
N1334 Co1299 2.145 1_556 S
N1334 C1335 1.397 . S
N1334 C1336 1.334 . S
C1335 H1316 0.929 . S
C1335 C1332 1.388 . S
C1335 N1334 1.397 . S
C1336 H1317 0.929 . S
C1336 C1333 1.404 . S
C1336 N1334 1.334 . S
C1337 H1329 0.930 . S
C1337 C1332 1.418 . S
C1337 C1333 1.353 . S
C1338 H1308 0.930 . S
C1338 N1339 1.330 . S
C1338 C1340 1.446 . S
N1339 Co1298 2.151 . S
N1339 C1338 1.330 . S
N1339 C1343 1.418 . S
C1340 H1319 0.929 . S
C1340 C1338 1.446 . S
C1340 C1341 1.332 . S
C1341 H1321 0.931 . S
C1341 C1340 1.332 . S
C1341 C1342 1.267 . S
C1342 H1310 0.929 . S
C1342 C1341 1.267 . S
C1342 C1343 1.251 . S
C1343 H1313 0.929 . S
C1343 N1339 1.418 . S
C1343 C1342 1.251 . S
C1344 H1311 0.930 . S
C1344 C1346 1.406 . S
C1344 C1349 1.261 . S
C1345 H1312 0.930 . S
C1345 N1347 1.325 . S
C1345 C1348 1.357 . S
C1346 H1314 0.928 . S
C1346 C1344 1.406 . S
C1346 N1347 1.261 . S
N1347 Co1298 2.214 . S
N1347 C1345 1.325 . S
N1347 C1346 1.261 . S
C1348 H1318 0.931 . S
C1348 C1345 1.357 . S
C1348 C1349 1.312 . S
C1349 H1320 0.930 . S
C1349 C1344 1.261 . S
C1349 C1348 1.312 . S
C1350 O1322 1.214 . S
C1350 O1330 1.234 . S
C1351 H1323 0.929 . S
C1351 C1354 1.391 . S
C1351 C1356 1.391 . S
C1352 H1324 0.929 . S
C1352 C1353 1.390 . S
C1352 N1355 1.391 . S
C1353 H1325 0.930 . S
C1353 C1352 1.390 . S
C1353 C1354 1.392 . S
C1354 H1326 0.929 . S
C1354 C1351 1.391 . S
C1354 C1353 1.392 . S
N1355 Co1299 2.257 . S
N1355 C1352 1.391 . S
N1355 C1356 1.388 . S
C1356 H1327 0.930 . S
C1356 C1351 1.391 . S
C1356 N1355 1.388 . S
Co1357 O1359 2.143 . S
Co1357 O1365 2.074 . S
Co1357 O1368 2.093 . S
Co1357 O1381 2.097 . S
Co1357 N1398 2.151 . S
Co1357 N1406 2.214 . S
Co1358 O1359 2.160 . S
Co1358 O1364 2.058 . S
Co1358 O1374 2.057 . S
Co1358 O1389 2.037 . S
Co1358 N1393 2.145 . S
Co1358 N1414 2.257 . S
O1359 Co1357 2.143 . S
O1359 Co1358 2.160 . S
C1360 O1361 1.278 . S
C1360 O1368 1.224 . S
O1361 C1360 1.278 . S
C1362 O1363 1.245 . S
C1362 O1374 1.232 . S
O1363 C1362 1.245 . S
O1364 Co1358 2.058 . S
O1364 C1390 1.269 . S
O1365 Co1357 2.074 . S
O1365 C1390 1.257 . S
H1366 C1391 0.930 . S
H1367 C1397 0.930 . S
O1368 Co1357 2.093 . S
O1368 C1360 1.224 . S
H1369 C1401 0.929 . S
H1370 C1403 0.930 . S
H1371 C1404 0.930 . S
H1372 C1402 0.929 . S
H1373 C1405 0.928 . S
O1374 Co1358 2.057 . S
O1374 C1362 1.232 . S
H1375 C1394 0.929 . S
H1376 C1395 0.929 . S
H1377 C1407 0.931 . S
H1378 C1399 0.929 . S
H1379 C1408 0.930 . S
H1380 C1400 0.931 . S
O1381 Co1357 2.097 . S
O1381 C1409 1.214 . S
H1382 C1410 0.929 . S
H1383 C1411 0.929 . S
H1384 C1412 0.930 . S
H1385 C1413 0.929 . S
H1386 C1415 0.930 . S
H1387 C1392 0.930 . S
H1388 C1396 0.930 . S
O1389 Co1358 2.037 . S
O1389 C1409 1.234 . S
C1390 O1364 1.269 . S
C1390 O1365 1.257 . S
C1391 H1366 0.930 . S
C1391 C1394 1.388 . S
C1391 C1396 1.418 . S
C1392 H1387 0.930 . S
C1392 C1395 1.404 . S
C1392 C1396 1.353 . S
N1393 Co1358 2.145 . S
N1393 C1394 1.397 . S
N1393 C1395 1.334 . S
C1394 H1375 0.929 . S
C1394 C1391 1.388 . S
C1394 N1393 1.397 . S
C1395 H1376 0.929 . S
C1395 C1392 1.404 . S
C1395 N1393 1.334 . S
C1396 H1388 0.930 . S
C1396 C1391 1.418 . S
C1396 C1392 1.353 . S
C1397 H1367 0.930 . S
C1397 N1398 1.330 . S
C1397 C1399 1.446 . S
N1398 Co1357 2.151 . S
N1398 C1397 1.330 . S
N1398 C1402 1.418 . S
C1399 H1378 0.929 . S
C1399 C1397 1.446 . S
C1399 C1400 1.332 . S
C1400 H1380 0.931 . S
C1400 C1399 1.332 . S
C1400 C1401 1.267 . S
C1401 H1369 0.929 . S
C1401 C1400 1.267 . S
C1401 C1402 1.251 . S
C1402 H1372 0.929 . S
C1402 N1398 1.418 . S
C1402 C1401 1.251 . S
C1403 H1370 0.930 . S
C1403 C1405 1.406 . S
C1403 C1408 1.261 . S
C1404 H1371 0.930 . S
C1404 N1406 1.325 . S
C1404 C1407 1.357 . S
C1405 H1373 0.928 . S
C1405 C1403 1.406 . S
C1405 N1406 1.261 . S
N1406 Co1357 2.214 . S
N1406 C1404 1.325 . S
N1406 C1405 1.261 . S
C1407 H1377 0.931 . S
C1407 C1404 1.357 . S
C1407 C1408 1.312 . S
C1408 H1379 0.930 . S
C1408 C1403 1.261 . S
C1408 C1407 1.312 . S
C1409 O1381 1.214 . S
C1409 O1389 1.234 . S
C1410 H1382 0.929 . S
C1410 C1413 1.391 . S
C1410 C1415 1.391 . S
C1411 H1383 0.929 . S
C1411 C1412 1.390 . S
C1411 N1414 1.391 . S
C1412 H1384 0.930 . S
C1412 C1411 1.390 . S
C1412 C1413 1.392 . S
C1413 H1385 0.929 . S
C1413 C1410 1.391 . S
C1413 C1412 1.392 . S
N1414 Co1358 2.257 . S
N1414 C1411 1.391 . S
N1414 C1415 1.388 . S
C1415 H1386 0.930 . S
C1415 C1410 1.391 . S
C1415 N1414 1.388 . S
C1416 C1417 1.387 . S
C1416 H1420 0.950 . S
C1416 C1425 1.390 . S
C1417 C1416 1.387 . S
C1417 C1419 1.387 . S
H1418 C1425 0.950 . S
C1419 C1417 1.387 . S
C1419 C1421 1.390 . S
C1419 H1423 0.950 . S
H1420 C1416 0.950 . S
C1421 C1419 1.390 . S
C1421 C1422 1.387 . S
C1421 H1424 0.950 . S
C1422 C1421 1.387 . S
C1422 C1425 1.387 . S
H1423 C1419 0.950 . S
H1424 C1421 0.950 . S
C1425 C1416 1.390 . S
C1425 H1418 0.950 . S
C1425 C1422 1.387 . S
C1426 C1427 1.387 . S
C1426 H1430 0.950 . S
C1426 C1435 1.390 . S
C1427 C1426 1.387 . S
C1427 C1429 1.387 . S
H1428 C1435 0.950 . S
C1429 C1427 1.387 . S
C1429 C1431 1.390 . S
C1429 H1433 0.950 . S
H1430 C1426 0.950 . S
C1431 C1429 1.390 . S
C1431 C1432 1.387 . S
C1431 H1434 0.950 . S
C1432 C1431 1.387 . S
C1432 C1435 1.387 . S
H1433 C1429 0.950 . S
H1434 C1431 0.950 . S
C1435 C1426 1.390 . S
C1435 H1428 0.950 . S
C1435 C1432 1.387 . S
C1436 C1437 1.387 . S
C1436 H1440 0.950 . S
C1436 C1445 1.390 . S
C1437 C1436 1.387 . S
C1437 C1439 1.387 . S
H1438 C1445 0.950 . S
C1439 C1437 1.387 . S
C1439 C1441 1.390 . S
C1439 H1443 0.950 . S
H1440 C1436 0.950 . S
C1441 C1439 1.390 . S
C1441 C1442 1.387 . S
C1441 H1444 0.950 . S
C1442 C1441 1.387 . S
C1442 C1445 1.387 . S
H1443 C1439 0.950 . S
H1444 C1441 0.950 . S
C1445 C1436 1.390 . S
C1445 H1438 0.950 . S
C1445 C1442 1.387 . S
C1446 C1447 1.387 . S
C1446 H1450 0.950 . S
C1446 C1455 1.390 . S
C1447 C1446 1.387 . S
C1447 C1449 1.387 . S
H1448 C1455 0.950 . S
C1449 C1447 1.387 . S
C1449 C1451 1.390 . S
C1449 H1453 0.950 . S
H1450 C1446 0.950 . S
C1451 C1449 1.390 . S
C1451 C1452 1.387 . S
C1451 H1454 0.950 . S
C1452 C1451 1.387 . S
C1452 C1455 1.387 . S
H1453 C1449 0.950 . S
H1454 C1451 0.950 . S
C1455 C1446 1.390 . S
C1455 H1448 0.950 . S
C1455 C1452 1.387 . S
C1456 C1457 1.387 . S
C1456 H1460 0.950 . S
C1456 C1465 1.390 . S
C1457 C1456 1.387 . S
C1457 C1459 1.387 . S
H1458 C1465 0.950 . S
C1459 C1457 1.387 . S
C1459 C1461 1.390 . S
C1459 H1463 0.950 . S
H1460 C1456 0.950 . S
C1461 C1459 1.390 . S
C1461 C1462 1.387 . S
C1461 H1464 0.950 . S
C1462 C1461 1.387 . S
C1462 C1465 1.387 . S
H1463 C1459 0.950 . S
H1464 C1461 0.950 . S
C1465 C1456 1.390 . S
C1465 H1458 0.950 . S
C1465 C1462 1.387 . S
C1466 C1467 1.387 . S
C1466 H1470 0.950 . S
C1466 C1475 1.390 . S
C1467 C1466 1.387 . S
C1467 C1469 1.387 . S
H1468 C1475 0.950 . S
C1469 C1467 1.387 . S
C1469 C1471 1.390 . S
C1469 H1473 0.950 . S
H1470 C1466 0.950 . S
C1471 C1469 1.390 . S
C1471 C1472 1.387 . S
C1471 H1474 0.950 . S
C1472 C1471 1.387 . S
C1472 C1475 1.387 . S
H1473 C1469 0.950 . S
H1474 C1471 0.950 . S
C1475 C1466 1.390 . S
C1475 H1468 0.950 . S
C1475 C1472 1.387 . S
C1476 C1477 1.387 . S
C1476 H1480 0.950 . S
C1476 C1485 1.390 . S
C1477 C1476 1.387 . S
C1477 C1479 1.387 . S
H1478 C1485 0.950 . S
C1479 C1477 1.387 . S
C1479 C1481 1.390 . S
C1479 H1483 0.950 . S
H1480 C1476 0.950 . S
C1481 C1479 1.390 . S
C1481 C1482 1.387 . S
C1481 H1484 0.950 . S
C1482 C1481 1.387 . S
C1482 C1485 1.387 . S
H1483 C1479 0.950 . S
H1484 C1481 0.950 . S
C1485 C1476 1.390 . S
C1485 H1478 0.950 . S
C1485 C1482 1.387 . S
C1486 C1487 1.387 . S
C1486 H1490 0.950 . S
C1486 C1495 1.390 . S
C1487 C1486 1.387 . S
C1487 C1489 1.387 . S
H1488 C1495 0.950 . S
C1489 C1487 1.387 . S
C1489 C1491 1.390 . S
C1489 H1493 0.950 . S
H1490 C1486 0.950 . S
C1491 C1489 1.390 . S
C1491 C1492 1.387 . S
C1491 H1494 0.950 . S
C1492 C1491 1.387 . S
C1492 C1495 1.387 . S
H1493 C1489 0.950 . S
H1494 C1491 0.950 . S
C1495 C1486 1.390 . S
C1495 H1488 0.950 . S
C1495 C1492 1.387 . S
C1496 C1497 1.387 . S
C1496 H1500 0.950 . S
C1496 C1505 1.390 . S
C1497 C1496 1.387 . S
C1497 C1499 1.387 . S
H1498 C1505 0.950 . S
C1499 C1497 1.387 . S
C1499 C1501 1.390 . S
C1499 H1503 0.950 . S
H1500 C1496 0.950 . S
C1501 C1499 1.390 . S
C1501 C1502 1.387 . S
C1501 H1504 0.950 . S
C1502 C1501 1.387 . S
C1502 C1505 1.387 . S
H1503 C1499 0.950 . S
H1504 C1501 0.950 . S
C1505 C1496 1.390 . S
C1505 H1498 0.950 . S
C1505 C1502 1.387 . S
C1506 C1507 1.387 . S
C1506 H1510 0.950 . S
C1506 C1515 1.390 . S
C1507 C1506 1.387 . S
C1507 C1509 1.387 . S
H1508 C1515 0.950 . S
C1509 C1507 1.387 . S
C1509 C1511 1.390 . S
C1509 H1513 0.950 . S
H1510 C1506 0.950 . S
C1511 C1509 1.390 . S
C1511 C1512 1.387 . S
C1511 H1514 0.950 . S
C1512 C1511 1.387 . S
C1512 C1515 1.387 . S
H1513 C1509 0.950 . S
H1514 C1511 0.950 . S
C1515 C1506 1.390 . S
C1515 H1508 0.950 . S
C1515 C1512 1.387 . S
C1516 C1517 1.387 . S
C1516 H1520 0.950 . S
C1516 C1525 1.390 . S
C1517 C1516 1.387 . S
C1517 C1519 1.387 . S
H1518 C1525 0.950 . S
C1519 C1517 1.387 . S
C1519 C1521 1.390 . S
C1519 H1523 0.950 . S
H1520 C1516 0.950 . S
C1521 C1519 1.390 . S
C1521 C1522 1.387 . S
C1521 H1524 0.950 . S
C1522 C1521 1.387 . S
C1522 C1525 1.387 . S
H1523 C1519 0.950 . S
H1524 C1521 0.950 . S
C1525 C1516 1.390 . S
C1525 H1518 0.950 . S
C1525 C1522 1.387 . S
C1526 C1527 1.387 . S
C1526 H1530 0.950 . S
C1526 C1535 1.390 . S
C1527 C1526 1.387 . S
C1527 C1529 1.387 . S
H1528 C1535 0.950 . S
C1529 C1527 1.387 . S
C1529 C1531 1.390 . S
C1529 H1533 0.950 . S
H1530 C1526 0.950 . S
C1531 C1529 1.390 . S
C1531 C1532 1.387 . S
C1531 H1534 0.950 . S
C1532 C1531 1.387 . S
C1532 C1535 1.387 . S
H1533 C1529 0.950 . S
H1534 C1531 0.950 . S
C1535 C1526 1.390 . S
C1535 H1528 0.950 . S
C1535 C1532 1.387 . S
C1536 C1537 1.387 . S
C1536 H1540 0.950 . S
C1536 C1545 1.390 1_556 S
C1537 C1536 1.387 . S
C1537 C1539 1.387 . S
H1538 C1545 0.950 . S
C1539 C1537 1.387 . S
C1539 C1541 1.390 1_556 S
C1539 H1543 0.950 . S
H1540 C1536 0.950 . S
C1541 C1539 1.390 1_554 S
C1541 C1542 1.387 . S
C1541 H1544 0.950 . S
C1542 C1541 1.387 . S
C1542 C1545 1.387 . S
H1543 C1539 0.950 . S
H1544 C1541 0.950 . S
C1545 C1536 1.390 1_554 S
C1545 H1538 0.950 . S
C1545 C1542 1.387 . S
C1546 C1547 1.387 . S
C1546 H1550 0.950 . S
C1546 C1555 1.390 . S
C1547 C1546 1.387 . S
C1547 C1549 1.387 . S
H1548 C1555 0.950 . S
C1549 C1547 1.387 . S
C1549 C1551 1.390 . S
C1549 H1553 0.950 . S
H1550 C1546 0.950 . S
C1551 C1549 1.390 . S
C1551 C1552 1.387 . S
C1551 H1554 0.950 . S
C1552 C1551 1.387 . S
C1552 C1555 1.387 . S
H1553 C1549 0.950 . S
H1554 C1551 0.950 . S
C1555 C1546 1.390 . S
C1555 H1548 0.950 . S
C1555 C1552 1.387 . S
C1556 C1557 1.387 . S
C1556 H1560 0.950 . S
C1556 C1565 1.390 . S
C1557 C1556 1.387 . S
C1557 C1559 1.387 1_554 S
H1558 C1565 0.950 . S
C1559 C1557 1.387 1_556 S
C1559 C1561 1.390 . S
C1559 H1563 0.950 . S
H1560 C1556 0.950 . S
C1561 C1559 1.390 . S
C1561 C1562 1.387 . S
C1561 H1564 0.950 . S
C1562 C1561 1.387 . S
C1562 C1565 1.387 1_556 S
H1563 C1559 0.950 . S
H1564 C1561 0.950 . S
C1565 C1556 1.390 . S
C1565 H1558 0.950 . S
C1565 C1562 1.387 1_554 S
C1566 C1567 1.387 . S
C1566 H1570 0.950 . S
C1566 C1575 1.390 . S
C1567 C1566 1.387 . S
C1567 C1569 1.387 . S
H1568 C1575 0.950 . S
C1569 C1567 1.387 . S
C1569 C1571 1.390 . S
C1569 H1573 0.950 . S
H1570 C1566 0.950 . S
C1571 C1569 1.390 . S
C1571 C1572 1.387 . S
C1571 H1574 0.950 . S
C1572 C1571 1.387 . S
C1572 C1575 1.387 . S
H1573 C1569 0.950 . S
H1574 C1571 0.950 . S
C1575 C1566 1.390 . S
C1575 H1568 0.950 . S
C1575 C1572 1.387 . S
C1576 C1577 1.387 . S
C1576 H1580 0.950 . S
C1576 C1585 1.390 1_556 S
C1577 C1576 1.387 . S
C1577 C1579 1.387 . S
H1578 C1585 0.950 . S
C1579 C1577 1.387 . S
C1579 C1581 1.390 1_556 S
C1579 H1583 0.950 . S
H1580 C1576 0.950 . S
C1581 C1579 1.390 1_554 S
C1581 C1582 1.387 . S
C1581 H1584 0.950 . S
C1582 C1581 1.387 . S
C1582 C1585 1.387 . S
H1583 C1579 0.950 . S
H1584 C1581 0.950 . S
C1585 C1576 1.390 1_554 S
C1585 H1578 0.950 . S
C1585 C1582 1.387 . S
C1586 C1587 1.387 . S
C1586 H1590 0.950 . S
C1586 C1595 1.390 . S
C1587 C1586 1.387 . S
C1587 C1589 1.387 . S
H1588 C1595 0.950 . S
C1589 C1587 1.387 . S
C1589 C1591 1.390 . S
C1589 H1593 0.950 . S
H1590 C1586 0.950 . S
C1591 C1589 1.390 . S
C1591 C1592 1.387 . S
C1591 H1594 0.950 . S
C1592 C1591 1.387 . S
C1592 C1595 1.387 . S
H1593 C1589 0.950 . S
H1594 C1591 0.950 . S
C1595 C1586 1.390 . S
C1595 H1588 0.950 . S
C1595 C1592 1.387 . S
C1596 C1597 1.387 . S
C1596 H1600 0.950 . S
C1596 C1605 1.390 1_554 S
C1597 C1596 1.387 . S
C1597 C1599 1.387 . S
H1598 C1605 0.950 . S
C1599 C1597 1.387 . S
C1599 C1601 1.390 1_554 S
C1599 H1603 0.950 . S
H1600 C1596 0.950 . S
C1601 C1599 1.390 1_556 S
C1601 C1602 1.387 . S
C1601 H1604 0.950 . S
C1602 C1601 1.387 . S
C1602 C1605 1.387 . S
H1603 C1599 0.950 . S
H1604 C1601 0.950 . S
C1605 C1596 1.390 1_556 S
C1605 H1598 0.950 . S
C1605 C1602 1.387 . S
C1606 C1607 1.387 . S
C1606 H1610 0.950 . S
C1606 C1615 1.390 . S
C1607 C1606 1.387 . S
C1607 C1609 1.387 . S
H1608 C1615 0.950 . S
C1609 C1607 1.387 . S
C1609 C1611 1.390 . S
C1609 H1613 0.950 . S
H1610 C1606 0.950 . S
C1611 C1609 1.390 . S
C1611 C1612 1.387 . S
C1611 H1614 0.950 . S
C1612 C1611 1.387 . S
C1612 C1615 1.387 . S
H1613 C1609 0.950 . S
H1614 C1611 0.950 . S
C1615 C1606 1.390 . S
C1615 H1608 0.950 . S
C1615 C1612 1.387 . S
C1616 C1617 1.387 . S
C1616 H1620 0.950 . S
C1616 C1625 1.390 . S
C1617 C1616 1.387 . S
C1617 C1619 1.387 1_556 S
H1618 C1625 0.950 . S
C1619 C1617 1.387 1_554 S
C1619 C1621 1.390 . S
C1619 H1623 0.950 . S
H1620 C1616 0.950 . S
C1621 C1619 1.390 . S
C1621 C1622 1.387 . S
C1621 H1624 0.950 . S
C1622 C1621 1.387 . S
C1622 C1625 1.387 1_554 S
H1623 C1619 0.950 . S
H1624 C1621 0.950 . S
C1625 C1616 1.390 . S
C1625 H1618 0.950 . S
C1625 C1622 1.387 1_556 S
C1626 C1627 1.387 . S
C1626 H1630 0.950 . S
C1626 C1635 1.390 . S
C1627 C1626 1.387 . S
C1627 C1629 1.387 . S
H1628 C1635 0.950 . S
C1629 C1627 1.387 . S
C1629 C1631 1.390 . S
C1629 H1633 0.950 . S
H1630 C1626 0.950 . S
C1631 C1629 1.390 . S
C1631 C1632 1.387 . S
C1631 H1634 0.950 . S
C1632 C1631 1.387 . S
C1632 C1635 1.387 . S
H1633 C1629 0.950 . S
H1634 C1631 0.950 . S
C1635 C1626 1.390 . S
C1635 H1628 0.950 . S
C1635 C1632 1.387 . S
C1636 C1637 1.387 . S
C1636 H1640 0.950 . S
C1636 C1645 1.390 . S
C1637 C1636 1.387 . S
C1637 C1639 1.387 1_556 S
H1638 C1645 0.950 . S
C1639 C1637 1.387 1_554 S
C1639 C1641 1.390 . S
C1639 H1643 0.950 . S
H1640 C1636 0.950 . S
C1641 C1639 1.390 . S
C1641 C1642 1.387 . S
C1641 H1644 0.950 . S
C1642 C1641 1.387 . S
C1642 C1645 1.387 1_554 S
H1643 C1639 0.950 . S
H1644 C1641 0.950 . S
C1645 C1636 1.390 . S
C1645 H1638 0.950 . S
C1645 C1642 1.387 1_556 S
C1646 C1647 1.387 . S
C1646 H1650 0.950 . S
C1646 C1655 1.390 . S
C1647 C1646 1.387 . S
C1647 C1649 1.387 . S
H1648 C1655 0.950 . S
C1649 C1647 1.387 . S
C1649 C1651 1.390 . S
C1649 H1653 0.950 . S
H1650 C1646 0.950 . S
C1651 C1649 1.390 . S
C1651 C1652 1.387 . S
C1651 H1654 0.950 . S
C1652 C1651 1.387 . S
C1652 C1655 1.387 . S
H1653 C1649 0.950 . S
H1654 C1651 0.950 . S
C1655 C1646 1.390 . S
C1655 H1648 0.950 . S
C1655 C1652 1.387 . S
C1656 C1657 1.387 . S
C1656 H1660 0.950 . S
C1656 C1665 1.390 . S
C1657 C1656 1.387 . S
C1657 C1659 1.387 . S
H1658 C1665 0.950 . S
C1659 C1657 1.387 . S
C1659 C1661 1.390 . S
C1659 H1663 0.950 . S
H1660 C1656 0.950 . S
C1661 C1659 1.390 . S
C1661 C1662 1.387 . S
C1661 H1664 0.950 . S
C1662 C1661 1.387 . S
C1662 C1665 1.387 . S
H1663 C1659 0.950 . S
H1664 C1661 0.950 . S
C1665 C1656 1.390 . S
C1665 H1658 0.950 . S
C1665 C1662 1.387 . S
C1666 C1667 1.387 . S
C1666 H1670 0.950 . S
C1666 C1675 1.390 1_455 S
C1667 C1666 1.387 . S
C1667 C1669 1.387 . S
H1668 C1675 0.950 . S
C1669 C1667 1.387 . S
C1669 C1671 1.390 1_455 S
C1669 H1673 0.950 . S
H1670 C1666 0.950 . S
C1671 C1669 1.390 1_655 S
C1671 C1672 1.387 . S
C1671 H1674 0.950 . S
C1672 C1671 1.387 . S
C1672 C1675 1.387 . S
H1673 C1669 0.950 . S
H1674 C1671 0.950 . S
C1675 C1666 1.390 1_655 S
C1675 H1668 0.950 . S
C1675 C1672 1.387 . S
C1676 C1677 1.387 . S
C1676 H1680 0.950 . S
C1676 C1685 1.390 1_565 S
C1677 C1676 1.387 . S
C1677 C1679 1.387 . S
H1678 C1685 0.950 . S
C1679 C1677 1.387 . S
C1679 C1681 1.390 1_565 S
C1679 H1683 0.950 . S
H1680 C1676 0.950 . S
C1681 C1679 1.390 1_545 S
C1681 C1682 1.387 . S
C1681 H1684 0.950 . S
C1682 C1681 1.387 . S
C1682 C1685 1.387 . S
H1683 C1679 0.950 . S
H1684 C1681 0.950 . S
C1685 C1676 1.390 1_545 S
C1685 H1678 0.950 . S
C1685 C1682 1.387 . S
C1686 C1687 1.387 . S
C1686 H1690 0.950 . S
C1686 C1695 1.390 . S
C1687 C1686 1.387 . S
C1687 C1689 1.387 . S
H1688 C1695 0.950 . S
C1689 C1687 1.387 . S
C1689 C1691 1.390 . S
C1689 H1693 0.950 . S
H1690 C1686 0.950 . S
C1691 C1689 1.390 . S
C1691 C1692 1.387 . S
C1691 H1694 0.950 . S
C1692 C1691 1.387 . S
C1692 C1695 1.387 . S
H1693 C1689 0.950 . S
H1694 C1691 0.950 . S
C1695 C1686 1.390 . S
C1695 H1688 0.950 . S
C1695 C1692 1.387 . S
C1696 C1697 1.387 . S
C1696 H1700 0.950 . S
C1696 C1705 1.390 1_655 S
C1697 C1696 1.387 . S
C1697 C1699 1.387 . S
H1698 C1705 0.950 . S
C1699 C1697 1.387 . S
C1699 C1701 1.390 1_655 S
C1699 H1703 0.950 . S
H1700 C1696 0.950 . S
C1701 C1699 1.390 1_455 S
C1701 C1702 1.387 . S
C1701 H1704 0.950 . S
C1702 C1701 1.387 . S
C1702 C1705 1.387 . S
H1703 C1699 0.950 . S
H1704 C1701 0.950 . S
C1705 C1696 1.390 1_455 S
C1705 H1698 0.950 . S
C1705 C1702 1.387 . S
C1706 C1707 1.387 . S
C1706 H1710 0.950 . S
C1706 C1715 1.390 1_545 S
C1707 C1706 1.387 . S
C1707 C1709 1.387 . S
H1708 C1715 0.950 . S
C1709 C1707 1.387 . S
C1709 C1711 1.390 1_545 S
C1709 H1713 0.950 . S
H1710 C1706 0.950 . S
C1711 C1709 1.390 1_565 S
C1711 C1712 1.387 . S
C1711 H1714 0.950 . S
C1712 C1711 1.387 . S
C1712 C1715 1.387 . S
H1713 C1709 0.950 . S
H1714 C1711 0.950 . S
C1715 C1706 1.390 1_565 S
C1715 H1708 0.950 . S
C1715 C1712 1.387 . S
C1716 C1717 1.387 . S
C1716 H1720 0.950 . S
C1716 C1725 1.390 . S
C1717 C1716 1.387 . S
C1717 C1719 1.387 . S
H1718 C1725 0.950 . S
C1719 C1717 1.387 . S
C1719 C1721 1.390 . S
C1719 H1723 0.950 . S
H1720 C1716 0.950 . S
C1721 C1719 1.390 . S
C1721 C1722 1.387 . S
C1721 H1724 0.950 . S
C1722 C1721 1.387 . S
C1722 C1725 1.387 . S
H1723 C1719 0.950 . S
H1724 C1721 0.950 . S
C1725 C1716 1.390 . S
C1725 H1718 0.950 . S
C1725 C1722 1.387 . S
C1726 C1727 1.387 . S
C1726 H1730 0.950 . S
C1726 C1735 1.390 1_655 S
C1727 C1726 1.387 . S
C1727 C1729 1.387 . S
H1728 C1735 0.950 . S
C1729 C1727 1.387 . S
C1729 C1731 1.390 1_655 S
C1729 H1733 0.950 . S
H1730 C1726 0.950 . S
C1731 C1729 1.390 1_455 S
C1731 C1732 1.387 . S
C1731 H1734 0.950 . S
C1732 C1731 1.387 . S
C1732 C1735 1.387 . S
H1733 C1729 0.950 . S
H1734 C1731 0.950 . S
C1735 C1726 1.390 1_455 S
C1735 H1728 0.950 . S
C1735 C1732 1.387 . S
C1736 C1737 1.387 . S
C1736 H1740 0.950 . S
C1736 C1745 1.390 1_545 S
C1737 C1736 1.387 . S
C1737 C1739 1.387 . S
H1738 C1745 0.950 . S
C1739 C1737 1.387 . S
C1739 C1741 1.390 1_545 S
C1739 H1743 0.950 . S
H1740 C1736 0.950 . S
C1741 C1739 1.390 1_565 S
C1741 C1742 1.387 . S
C1741 H1744 0.950 . S
C1742 C1741 1.387 . S
C1742 C1745 1.387 . S
H1743 C1739 0.950 . S
H1744 C1741 0.950 . S
C1745 C1736 1.390 1_565 S
C1745 H1738 0.950 . S
C1745 C1742 1.387 . S
C1746 C1747 1.387 . S
C1746 H1750 0.950 . S
C1746 C1755 1.390 . S
C1747 C1746 1.387 . S
C1747 C1749 1.387 . S
H1748 C1755 0.950 . S
C1749 C1747 1.387 . S
C1749 C1751 1.390 . S
C1749 H1753 0.950 . S
H1750 C1746 0.950 . S
C1751 C1749 1.390 . S
C1751 C1752 1.387 . S
C1751 H1754 0.950 . S
C1752 C1751 1.387 . S
C1752 C1755 1.387 . S
H1753 C1749 0.950 . S
H1754 C1751 0.950 . S
C1755 C1746 1.390 . S
C1755 H1748 0.950 . S
C1755 C1752 1.387 . S
C1756 C1757 1.387 . S
C1756 H1760 0.950 . S
C1756 C1765 1.390 1_455 S
C1757 C1756 1.387 . S
C1757 C1759 1.387 . S
H1758 C1765 0.950 . S
C1759 C1757 1.387 . S
C1759 C1761 1.390 1_455 S
C1759 H1763 0.950 . S
H1760 C1756 0.950 . S
C1761 C1759 1.390 1_655 S
C1761 C1762 1.387 . S
C1761 H1764 0.950 . S
C1762 C1761 1.387 . S
C1762 C1765 1.387 . S
H1763 C1759 0.950 . S
H1764 C1761 0.950 . S
C1765 C1756 1.390 1_655 S
C1765 H1758 0.950 . S
C1765 C1762 1.387 . S
C1766 C1767 1.387 . S
C1766 H1770 0.950 . S
C1766 C1775 1.390 1_565 S
C1767 C1766 1.387 . S
C1767 C1769 1.387 . S
H1768 C1775 0.950 . S
C1769 C1767 1.387 . S
C1769 C1771 1.390 1_565 S
C1769 H1773 0.950 . S
H1770 C1766 0.950 . S
C1771 C1769 1.390 1_545 S
C1771 C1772 1.387 . S
C1771 H1774 0.950 . S
C1772 C1771 1.387 . S
C1772 C1775 1.387 . S
H1773 C1769 0.950 . S
H1774 C1771 0.950 . S
C1775 C1766 1.390 1_545 S
C1775 H1768 0.950 . S
C1775 C1772 1.387 . S
C1776 C1777 1.387 . S
C1776 H1780 0.950 . S
C1776 C1785 1.390 . S
C1777 C1776 1.387 . S
C1777 C1779 1.387 1_556 S
H1778 C1785 0.950 . S
C1779 C1777 1.387 1_554 S
C1779 C1781 1.390 . S
C1779 H1783 0.950 . S
H1780 C1776 0.950 . S
C1781 C1779 1.390 . S
C1781 C1782 1.387 . S
C1781 H1784 0.950 . S
C1782 C1781 1.387 . S
C1782 C1785 1.387 1_554 S
H1783 C1779 0.950 . S
H1784 C1781 0.950 . S
C1785 C1776 1.390 . S
C1785 H1778 0.950 . S
C1785 C1782 1.387 1_556 S
C1786 C1787 1.387 . S
C1786 H1790 0.950 . S
C1786 C1795 1.390 . S
C1787 C1786 1.387 . S
C1787 C1789 1.387 . S
H1788 C1795 0.950 . S
C1789 C1787 1.387 . S
C1789 C1791 1.390 . S
C1789 H1793 0.950 . S
H1790 C1786 0.950 . S
C1791 C1789 1.390 . S
C1791 C1792 1.387 . S
C1791 H1794 0.950 . S
C1792 C1791 1.387 . S
C1792 C1795 1.387 . S
H1793 C1789 0.950 . S
H1794 C1791 0.950 . S
C1795 C1786 1.390 . S
C1795 H1788 0.950 . S
C1795 C1792 1.387 . S
C1796 C1797 1.387 . S
C1796 H1800 0.950 . S
C1796 C1805 1.390 1_556 S
C1797 C1796 1.387 . S
C1797 C1799 1.387 . S
H1798 C1805 0.950 . S
C1799 C1797 1.387 . S
C1799 C1801 1.390 1_556 S
C1799 H1803 0.950 . S
H1800 C1796 0.950 . S
C1801 C1799 1.390 1_554 S
C1801 C1802 1.387 . S
C1801 H1804 0.950 . S
C1802 C1801 1.387 . S
C1802 C1805 1.387 . S
H1803 C1799 0.950 . S
H1804 C1801 0.950 . S
C1805 C1796 1.390 1_554 S
C1805 H1798 0.950 . S
C1805 C1802 1.387 . S
C1806 C1807 1.387 . S
C1806 H1810 0.950 . S
C1806 C1815 1.390 . S
C1807 C1806 1.387 . S
C1807 C1809 1.387 . S
H1808 C1815 0.950 . S
C1809 C1807 1.387 . S
C1809 C1811 1.390 . S
C1809 H1813 0.950 . S
H1810 C1806 0.950 . S
C1811 C1809 1.390 . S
C1811 C1812 1.387 . S
C1811 H1814 0.950 . S
C1812 C1811 1.387 . S
C1812 C1815 1.387 . S
H1813 C1809 0.950 . S
H1814 C1811 0.950 . S
C1815 C1806 1.390 . S
C1815 H1808 0.950 . S
C1815 C1812 1.387 . S
C1816 C1817 1.387 . S
C1816 H1820 0.950 . S
C1816 C1825 1.390 . S
C1817 C1816 1.387 . S
C1817 C1819 1.387 1_556 S
H1818 C1825 0.950 . S
C1819 C1817 1.387 1_554 S
C1819 C1821 1.390 . S
C1819 H1823 0.950 . S
H1820 C1816 0.950 . S
C1821 C1819 1.390 . S
C1821 C1822 1.387 . S
C1821 H1824 0.950 . S
C1822 C1821 1.387 . S
C1822 C1825 1.387 1_554 S
H1823 C1819 0.950 . S
H1824 C1821 0.950 . S
C1825 C1816 1.390 . S
C1825 H1818 0.950 . S
C1825 C1822 1.387 1_556 S
C1826 C1827 1.387 . S
C1826 H1830 0.950 . S
C1826 C1835 1.390 . S
C1827 C1826 1.387 . S
C1827 C1829 1.387 . S
H1828 C1835 0.950 . S
C1829 C1827 1.387 . S
C1829 C1831 1.390 . S
C1829 H1833 0.950 . S
H1830 C1826 0.950 . S
C1831 C1829 1.390 . S
C1831 C1832 1.387 . S
C1831 H1834 0.950 . S
C1832 C1831 1.387 . S
C1832 C1835 1.387 . S
H1833 C1829 0.950 . S
H1834 C1831 0.950 . S
C1835 C1826 1.390 . S
C1835 H1828 0.950 . S
C1835 C1832 1.387 . S
C1836 C1837 1.387 . S
C1836 H1840 0.950 . S
C1836 C1845 1.390 . S
C1837 C1836 1.387 . S
C1837 C1839 1.387 1_554 S
H1838 C1845 0.950 . S
C1839 C1837 1.387 1_556 S
C1839 C1841 1.390 . S
C1839 H1843 0.950 . S
H1840 C1836 0.950 . S
C1841 C1839 1.390 . S
C1841 C1842 1.387 . S
C1841 H1844 0.950 . S
C1842 C1841 1.387 . S
C1842 C1845 1.387 1_556 S
H1843 C1839 0.950 . S
H1844 C1841 0.950 . S
C1845 C1836 1.390 . S
C1845 H1838 0.950 . S
C1845 C1842 1.387 1_554 S
C1846 C1847 1.387 . S
C1846 H1850 0.950 . S
C1846 C1855 1.390 . S
C1847 C1846 1.387 . S
C1847 C1849 1.387 . S
H1848 C1855 0.950 . S
C1849 C1847 1.387 . S
C1849 C1851 1.390 . S
C1849 H1853 0.950 . S
H1850 C1846 0.950 . S
C1851 C1849 1.390 . S
C1851 C1852 1.387 . S
C1851 H1854 0.950 . S
C1852 C1851 1.387 . S
C1852 C1855 1.387 . S
H1853 C1849 0.950 . S
H1854 C1851 0.950 . S
C1855 C1846 1.390 . S
C1855 H1848 0.950 . S
C1855 C1852 1.387 . S
C1856 C1857 1.387 . S
C1856 H1860 0.950 . S
C1856 C1865 1.390 1_554 S
C1857 C1856 1.387 . S
C1857 C1859 1.387 . S
H1858 C1865 0.950 . S
C1859 C1857 1.387 . S
C1859 C1861 1.390 1_554 S
C1859 H1863 0.950 . S
H1860 C1856 0.950 . S
C1861 C1859 1.390 1_556 S
C1861 C1862 1.387 . S
C1861 H1864 0.950 . S
C1862 C1861 1.387 . S
C1862 C1865 1.387 . S
H1863 C1859 0.950 . S
H1864 C1861 0.950 . S
C1865 C1856 1.390 1_556 S
C1865 H1858 0.950 . S
C1865 C1862 1.387 . S
C1866 C1867 1.387 . S
C1866 H1870 0.950 . S
C1866 C1875 1.390 . S
C1867 C1866 1.387 . S
C1867 C1869 1.387 . S
H1868 C1875 0.950 . S
C1869 C1867 1.387 . S
C1869 C1871 1.390 . S
C1869 H1873 0.950 . S
H1870 C1866 0.950 . S
C1871 C1869 1.390 . S
C1871 C1872 1.387 . S
C1871 H1874 0.950 . S
C1872 C1871 1.387 . S
C1872 C1875 1.387 . S
H1873 C1869 0.950 . S
H1874 C1871 0.950 . S
C1875 C1866 1.390 . S
C1875 H1868 0.950 . S
C1875 C1872 1.387 . S
C1876 C1877 1.387 . S
C1876 H1880 0.950 . S
C1876 C1885 1.390 . S
C1877 C1876 1.387 . S
C1877 C1879 1.387 1_556 S
H1878 C1885 0.950 . S
C1879 C1877 1.387 1_554 S
C1879 C1881 1.390 . S
C1879 H1883 0.950 . S
H1880 C1876 0.950 . S
C1881 C1879 1.390 . S
C1881 C1882 1.387 . S
C1881 H1884 0.950 . S
C1882 C1881 1.387 . S
C1882 C1885 1.387 1_554 S
H1883 C1879 0.950 . S
H1884 C1881 0.950 . S
C1885 C1876 1.390 . S
C1885 H1878 0.950 . S
C1885 C1882 1.387 1_556 S
C1886 C1887 1.387 . S
C1886 H1890 0.950 . S
C1886 C1895 1.390 . S
C1887 C1886 1.387 . S
C1887 C1889 1.387 . S
H1888 C1895 0.950 . S
C1889 C1887 1.387 . S
C1889 C1891 1.390 . S
C1889 H1893 0.950 . S
H1890 C1886 0.950 . S
C1891 C1889 1.390 . S
C1891 C1892 1.387 . S
C1891 H1894 0.950 . S
C1892 C1891 1.387 . S
C1892 C1895 1.387 . S
H1893 C1889 0.950 . S
H1894 C1891 0.950 . S
C1895 C1886 1.390 . S
C1895 H1888 0.950 . S
C1895 C1892 1.387 . S
C1417 C3 1.551 . S
C1422 C888 1.553 . S
C1427 C62 1.553 . S
C1432 C947 1.552 . S
C1437 C1006 1.553 . S
C1442 C121 1.551 . S
C1447 C711 1.553 . S
C1452 C180 1.552 . S
C1457 C770 1.553 . S
C1462 C239 1.552 . S
C1467 C829 1.553 . S
C1472 C298 1.552 . S
C1477 C1242 1.553 . S
C1482 C357 1.551 . S
C1487 C416 1.551 . S
C1492 C1301 1.553 . S
C1497 C1360 1.553 . S
C1502 C475 1.552 . S
C1507 C534 1.553 . S
C1512 C1065 1.552 . S
C1517 C1124 1.551 . S
C1522 C593 1.553 . S
C1527 C652 1.551 . S
C1532 C1183 1.553 . S
C1537 C595 1.520 . S
C1542 C5 1.520 . S
C1547 C654 1.520 . S
C1552 C64 1.520 . S
C1557 C123 1.520 . S
C1562 C359 1.520 . S
C1567 C182 1.520 . S
C1572 C418 1.520 . S
C1577 C477 1.520 . S
C1582 C241 1.520 . S
C1587 C300 1.519 . S
C1592 C536 1.519 . S
C1597 C1303 1.519 . S
C1602 C713 1.519 . S
C1607 C772 1.520 . S
C1612 C1362 1.520 . S
C1617 C831 1.520 . S
C1622 C1067 1.520 . S
C1627 C1126 1.519 . S
C1632 C890 1.519 . S
C1637 C949 1.519 . S
C1642 C1185 1.520 . S
C1647 C1008 1.519 . S
C1652 C1244 1.519 . S
C1657 C52 1.504 . S
C1662 C1114 1.505 . S
C1667 C1173 1.504 . S
C1672 C111 1.505 . S
C1677 C170 1.504 . S
C1682 C1232 1.505 . S
C1687 C229 1.504 . S
C1692 C1291 1.505 . S
C1697 C1350 1.504 . S
C1702 C288 1.505 . S
C1707 C347 1.505 . S
C1712 C1409 1.504 . S
C1717 C406 1.505 . S
C1722 C760 1.504 . S
C1727 C465 1.504 . S
C1732 C819 1.505 . S
C1737 C878 1.504 . S
C1742 C524 1.505 . S
C1747 C937 1.505 . S
C1752 C583 1.504 . S
C1757 C642 1.505 . S
C1762 C996 1.504 . S
C1767 C1055 1.505 . S
C1772 C701 1.504 . S
C1777 C387 1.587 . S
C1782 C33 1.587 . S
C1787 C92 1.587 . S
C1792 C446 1.587 . S
C1797 C505 1.585 . S
C1802 C151 1.585 . S
C1807 C564 1.586 . S
C1812 C210 1.587 . S
C1817 C623 1.586 . S
C1822 C269 1.586 . S
C1827 C328 1.585 . S
C1832 C682 1.585 . S
C1837 C1095 1.586 . S
C1842 C741 1.587 . S
C1847 C800 1.586 . S
C1852 C1154 1.586 . S
C1857 C1213 1.587 . S
C1862 C859 1.587 . S
C1867 C1272 1.586 . S
C1872 C918 1.586 . S
C1877 C977 1.586 . S
C1882 C1331 1.586 . S
C1887 C1036 1.585 . S
C1892 C1390 1.585 . S
