# Generated by pormake.
# Topology lcs-e, (6)-cn, num edge types: 1
# Building blocks:
#     Node 0, Type 0, BuildingBlock: CUKXOW_clean_sbu_0, # of connection points: 6
#     Node 1, Type 0, BuildingBlock: CUKXOW_clean_sbu_0, # of connection points: 6
#     Node 2, Type 0, BuildingBlock: CUKXOW_clean_sbu_0, # of connection points: 6
#     Node 3, Type 0, BuildingBlock: CUKXOW_clean_sbu_0, # of connection points: 6
#     Node 4, Type 0, BuildingBlock: CUKXOW_clean_sbu_0, # of connection points: 6
#     Node 5, Type 0, BuildingBlock: CUKXOW_clean_sbu_0, # of connection points: 6
#     Node 6, Type 0, BuildingBlock: CUKXOW_clean_sbu_0, # of connection points: 6
#     Node 7, Type 0, BuildingBlock: CUKXOW_clean_sbu_0, # of connection points: 6
#     Node 8, Type 0, BuildingBlock: CUKXOW_clean_sbu_0, # of connection points: 6
#     Node 9, Type 0, BuildingBlock: CUKXOW_clean_sbu_0, # of connection points: 6
#     Node 10, Type 0, BuildingBlock: CUKXOW_clean_sbu_0, # of connection points: 6
#     Node 11, Type 0, BuildingBlock: CUKXOW_clean_sbu_0, # of connection points: 6
#     Node 12, Type 0, BuildingBlock: CUKXOW_clean_sbu_0, # of connection points: 6
#     Node 13, Type 0, BuildingBlock: CUKXOW_clean_sbu_0, # of connection points: 6
#     Node 14, Type 0, BuildingBlock: CUKXOW_clean_sbu_0, # of connection points: 6
#     Node 15, Type 0, BuildingBlock: CUKXOW_clean_sbu_0, # of connection points: 6
#     Node 16, Type 0, BuildingBlock: CUKXOW_clean_sbu_0, # of connection points: 6
#     Node 17, Type 0, BuildingBlock: CUKXOW_clean_sbu_0, # of connection points: 6
#     Node 18, Type 0, BuildingBlock: CUKXOW_clean_sbu_0, # of connection points: 6
#     Node 19, Type 0, BuildingBlock: CUKXOW_clean_sbu_0, # of connection points: 6
#     Node 20, Type 0, BuildingBlock: CUKXOW_clean_sbu_0, # of connection points: 6
#     Node 21, Type 0, BuildingBlock: CUKXOW_clean_sbu_0, # of connection points: 6
#     Node 22, Type 0, BuildingBlock: CUKXOW_clean_sbu_0, # of connection points: 6
#     Node 23, Type 0, BuildingBlock: CUKXOW_clean_sbu_0, # of connection points: 6
#     Node 24, Type 0, BuildingBlock: CUKXOW_clean_sbu_0, # of connection points: 6
#     Node 25, Type 0, BuildingBlock: CUKXOW_clean_sbu_0, # of connection points: 6
#     Node 26, Type 0, BuildingBlock: CUKXOW_clean_sbu_0, # of connection points: 6
#     Node 27, Type 0, BuildingBlock: CUKXOW_clean_sbu_0, # of connection points: 6
#     Node 28, Type 0, BuildingBlock: CUKXOW_clean_sbu_0, # of connection points: 6
#     Node 29, Type 0, BuildingBlock: CUKXOW_clean_sbu_0, # of connection points: 6
#     Node 30, Type 0, BuildingBlock: CUKXOW_clean_sbu_0, # of connection points: 6
#     Node 31, Type 0, BuildingBlock: CUKXOW_clean_sbu_0, # of connection points: 6
#     Node 32, Type 0, BuildingBlock: CUKXOW_clean_sbu_0, # of connection points: 6
#     Node 33, Type 0, BuildingBlock: CUKXOW_clean_sbu_0, # of connection points: 6
#     Node 34, Type 0, BuildingBlock: CUKXOW_clean_sbu_0, # of connection points: 6
#     Node 35, Type 0, BuildingBlock: CUKXOW_clean_sbu_0, # of connection points: 6
#     Node 36, Type 0, BuildingBlock: CUKXOW_clean_sbu_0, # of connection points: 6
#     Node 37, Type 0, BuildingBlock: CUKXOW_clean_sbu_0, # of connection points: 6
#     Node 38, Type 0, BuildingBlock: CUKXOW_clean_sbu_0, # of connection points: 6
#     Node 39, Type 0, BuildingBlock: CUKXOW_clean_sbu_0, # of connection points: 6
#     Node 40, Type 0, BuildingBlock: CUKXOW_clean_sbu_0, # of connection points: 6
#     Node 41, Type 0, BuildingBlock: CUKXOW_clean_sbu_0, # of connection points: 6
#     Node 42, Type 0, BuildingBlock: CUKXOW_clean_sbu_0, # of connection points: 6
#     Node 43, Type 0, BuildingBlock: CUKXOW_clean_sbu_0, # of connection points: 6
#     Node 44, Type 0, BuildingBlock: CUKXOW_clean_sbu_0, # of connection points: 6
#     Node 45, Type 0, BuildingBlock: CUKXOW_clean_sbu_0, # of connection points: 6
#     Node 46, Type 0, BuildingBlock: CUKXOW_clean_sbu_0, # of connection points: 6
#     Node 47, Type 0, BuildingBlock: CUKXOW_clean_sbu_0, # of connection points: 6
#     Edge 48, Type (0, 0), None
#     Edge 49, Type (0, 0), None
#     Edge 50, Type (0, 0), None
#     Edge 51, Type (0, 0), None
#     Edge 52, Type (0, 0), None
#     Edge 53, Type (0, 0), None
#     Edge 54, Type (0, 0), None
#     Edge 55, Type (0, 0), None
#     Edge 56, Type (0, 0), None
#     Edge 57, Type (0, 0), None
#     Edge 58, Type (0, 0), None
#     Edge 59, Type (0, 0), None
#     Edge 60, Type (0, 0), None
#     Edge 61, Type (0, 0), None
#     Edge 62, Type (0, 0), None
#     Edge 63, Type (0, 0), None
#     Edge 64, Type (0, 0), None
#     Edge 65, Type (0, 0), None
#     Edge 66, Type (0, 0), None
#     Edge 67, Type (0, 0), None
#     Edge 68, Type (0, 0), None
#     Edge 69, Type (0, 0), None
#     Edge 70, Type (0, 0), None
#     Edge 71, Type (0, 0), None
#     Edge 72, Type (0, 0), None
#     Edge 73, Type (0, 0), None
#     Edge 74, Type (0, 0), None
#     Edge 75, Type (0, 0), None
#     Edge 76, Type (0, 0), None
#     Edge 77, Type (0, 0), None
#     Edge 78, Type (0, 0), None
#     Edge 79, Type (0, 0), None
#     Edge 80, Type (0, 0), None
#     Edge 81, Type (0, 0), None
#     Edge 82, Type (0, 0), None
#     Edge 83, Type (0, 0), None
#     Edge 84, Type (0, 0), None
#     Edge 85, Type (0, 0), None
#     Edge 86, Type (0, 0), None
#     Edge 87, Type (0, 0), None
#     Edge 88, Type (0, 0), None
#     Edge 89, Type (0, 0), None
#     Edge 90, Type (0, 0), None
#     Edge 91, Type (0, 0), None
#     Edge 92, Type (0, 0), None
#     Edge 93, Type (0, 0), None
#     Edge 94, Type (0, 0), None
#     Edge 95, Type (0, 0), None
#     Edge 96, Type (0, 0), None
#     Edge 97, Type (0, 0), None
#     Edge 98, Type (0, 0), None
#     Edge 99, Type (0, 0), None
#     Edge 100, Type (0, 0), None
#     Edge 101, Type (0, 0), None
#     Edge 102, Type (0, 0), None
#     Edge 103, Type (0, 0), None
#     Edge 104, Type (0, 0), None
#     Edge 105, Type (0, 0), None
#     Edge 106, Type (0, 0), None
#     Edge 107, Type (0, 0), None
#     Edge 108, Type (0, 0), None
#     Edge 109, Type (0, 0), None
#     Edge 110, Type (0, 0), None
#     Edge 111, Type (0, 0), None
#     Edge 112, Type (0, 0), None
#     Edge 113, Type (0, 0), None
#     Edge 114, Type (0, 0), None
#     Edge 115, Type (0, 0), None
#     Edge 116, Type (0, 0), None
#     Edge 117, Type (0, 0), None
#     Edge 118, Type (0, 0), None
#     Edge 119, Type (0, 0), None
#     Edge 120, Type (0, 0), None
#     Edge 121, Type (0, 0), None
#     Edge 122, Type (0, 0), None
#     Edge 123, Type (0, 0), None
#     Edge 124, Type (0, 0), None
#     Edge 125, Type (0, 0), None
#     Edge 126, Type (0, 0), None
#     Edge 127, Type (0, 0), None
#     Edge 128, Type (0, 0), None
#     Edge 129, Type (0, 0), None
#     Edge 130, Type (0, 0), None
#     Edge 131, Type (0, 0), None
#     Edge 132, Type (0, 0), None
#     Edge 133, Type (0, 0), None
#     Edge 134, Type (0, 0), None
#     Edge 135, Type (0, 0), None
#     Edge 136, Type (0, 0), None
#     Edge 137, Type (0, 0), None
#     Edge 138, Type (0, 0), None
#     Edge 139, Type (0, 0), None
#     Edge 140, Type (0, 0), None
#     Edge 141, Type (0, 0), None
#     Edge 142, Type (0, 0), None
#     Edge 143, Type (0, 0), None
#     Edge 144, Type (0, 0), None
#     Edge 145, Type (0, 0), None
#     Edge 146, Type (0, 0), None
#     Edge 147, Type (0, 0), None
#     Edge 148, Type (0, 0), None
#     Edge 149, Type (0, 0), None
#     Edge 150, Type (0, 0), None
#     Edge 151, Type (0, 0), None
#     Edge 152, Type (0, 0), None
#     Edge 153, Type (0, 0), None
#     Edge 154, Type (0, 0), None
#     Edge 155, Type (0, 0), None
#     Edge 156, Type (0, 0), None
#     Edge 157, Type (0, 0), None
#     Edge 158, Type (0, 0), None
#     Edge 159, Type (0, 0), None
#     Edge 160, Type (0, 0), None
#     Edge 161, Type (0, 0), None
#     Edge 162, Type (0, 0), None
#     Edge 163, Type (0, 0), None
#     Edge 164, Type (0, 0), None
#     Edge 165, Type (0, 0), None
#     Edge 166, Type (0, 0), None
#     Edge 167, Type (0, 0), None
#     Edge 168, Type (0, 0), None
#     Edge 169, Type (0, 0), None
#     Edge 170, Type (0, 0), None
#     Edge 171, Type (0, 0), None
#     Edge 172, Type (0, 0), None
#     Edge 173, Type (0, 0), None
#     Edge 174, Type (0, 0), None
#     Edge 175, Type (0, 0), None
#     Edge 176, Type (0, 0), None
#     Edge 177, Type (0, 0), None
#     Edge 178, Type (0, 0), None
#     Edge 179, Type (0, 0), None
#     Edge 180, Type (0, 0), None
#     Edge 181, Type (0, 0), None
#     Edge 182, Type (0, 0), None
#     Edge 183, Type (0, 0), None
#     Edge 184, Type (0, 0), None
#     Edge 185, Type (0, 0), None
#     Edge 186, Type (0, 0), None
#     Edge 187, Type (0, 0), None
#     Edge 188, Type (0, 0), None
#     Edge 189, Type (0, 0), None
#     Edge 190, Type (0, 0), None
#     Edge 191, Type (0, 0), None
# Relax obj value: 0.288
# Max RMSD: 0.327
# Mean RMSD: 0.255
data_MOF--net-lcs-e--node1-CUKXOW_clean_sbu_0--edge1-none
_symmetry_space_group_name_H-M    P1
_symmetry_Int_Tables_number       1
_symmetry_cell_setting            triclinic
loop_
_symmetry_equiv_pos_as_xyz
'x, y, z'
_cell_length_a     26.539526
_cell_length_b     29.242579
_cell_length_c     28.86162
_cell_angle_alpha  87.059978
_cell_angle_beta   96.055952
_cell_angle_gamma 86.661282
loop_
_atom_site_label
_atom_site_type_symbol
_atom_site_fract_x
_atom_site_fract_y
_atom_site_fract_z
_atom_type_partial_charge
Tb0 Tb 0.08666 0.42899 0.30995 0.0
C1 C 0.11973 0.327 0.34221 0.0
Tb2 Tb 0.042 0.35437 0.2521 0.0
O3 O 0.01755 0.44433 0.34138 0.0
O4 O 0.03478 0.37918 0.31792 0.0
O5 O 0.12728 0.37027 0.34959 0.0
C6 C 0.00605 0.26625 0.24279 0.0
O7 O 0.08992 0.31412 0.30663 0.0
C8 C 0.10469 0.40649 0.20899 0.0
C9 C 0.98832 0.46266 0.24531 0.0
O10 O 0.05302 0.27761 0.24478 0.0
O11 O 0.97969 0.30594 0.2421 0.0
O12 O 0.06958 0.38252 0.18845 0.0
O13 O 0.1093 0.39406 0.25209 0.0
O14 O 0.98626 0.41671 0.23956 0.0
O15 O 0.03252 0.47628 0.26461 0.0
C16 C 0.14431 0.47722 0.36284 0.0
O17 O 0.13045 0.48806 0.31884 0.0
O18 O 0.1273 0.43929 0.37655 0.0
C19 C 0.00109 0.40469 0.33242 0.0
Tb20 Tb 0.82734 0.81684 0.61163 0.0
C21 C 0.94262 0.83183 0.62972 0.0
Tb22 Tb 0.8975 0.76652 0.55009 0.0
O23 O 0.82534 0.76931 0.6704 0.0
O24 O 0.86603 0.75177 0.61367 0.0
O25 O 0.89737 0.84026 0.64363 0.0
C26 C 0.9883 0.73738 0.52924 0.0
O27 O 0.95087 0.80311 0.59705 0.0
C28 C 0.87588 0.8495 0.51599 0.0
C29 C 0.77464 0.75486 0.54011 0.0
O30 O 0.97832 0.76122 0.56377 0.0
O31 O 0.94556 0.72182 0.51078 0.0
O32 O 0.90035 0.81955 0.49414 0.0
O33 O 0.85958 0.82903 0.54994 0.0
O34 O 0.8205 0.74146 0.5266 0.0
O35 O 0.76922 0.78522 0.57128 0.0
C36 C 0.7755 0.89191 0.62147 0.0
O37 O 0.75453 0.8533 0.61675 0.0
O38 O 0.82428 0.88712 0.624 0.0
C39 C 0.85173 0.73715 0.6522 0.0
Tb40 Tb 0.40106 0.67666 0.81456 0.0
C41 C 0.40511 0.58278 0.87238 0.0
Tb42 Tb 0.49067 0.61247 0.80257 0.0
O43 O 0.34547 0.65796 0.75726 0.0
O44 O 0.4183 0.62753 0.76955 0.0
O45 O 0.37624 0.62051 0.85909 0.0
C46 C 0.50082 0.52387 0.79289 0.0
O47 O 0.45148 0.57736 0.85879 0.0
C48 C 0.51004 0.66177 0.87489 0.0
C49 C 0.48525 0.72027 0.75783 0.0
O50 O 0.45902 0.54962 0.78524 0.0
O51 O 0.5403 0.54946 0.79794 0.0
O52 O 0.52788 0.61988 0.87143 0.0
O53 O 0.48111 0.67268 0.83758 0.0
O54 O 0.51124 0.67785 0.76084 0.0
O55 O 0.44138 0.72575 0.77553 0.0
C56 C 0.36088 0.74368 0.85185 0.0
O57 O 0.35331 0.73895 0.80732 0.0
O58 O 0.38672 0.70946 0.87538 0.0
C59 C 0.37746 0.62773 0.74312 0.0
Tb60 Tb 0.60099 0.1576 0.11639 0.0
C61 C 0.71755 0.15002 0.12326 0.0
Tb62 Tb 0.6591 0.22812 0.05862 0.0
O63 O 0.60103 0.10371 0.06483 0.0
O64 O 0.63022 0.16671 0.05678 0.0
O65 O 0.67828 0.14664 0.14791 0.0
C66 C 0.73506 0.2617 0.0226 0.0
O67 O 0.71377 0.17123 0.08156 0.0
C68 C 0.65099 0.24371 0.14624 0.0
C69 C 0.53841 0.21471 0.03327 0.0
O70 O 0.72887 0.21838 0.02948 0.0
O71 O 0.69415 0.28698 0.02867 0.0
O72 O 0.68862 0.25371 0.12413 0.0
O73 O 0.61952 0.22687 0.11789 0.0
O74 O 0.57885 0.23908 0.02487 0.0
O75 O 0.53992 0.18022 0.06459 0.0
C76 C 0.53717 0.13518 0.17278 0.0
O77 O 0.53896 0.17649 0.15478 0.0
O78 O 0.57265 0.10698 0.16094 0.0
C79 C 0.62139 0.13188 0.03697 0.0
Tb80 Tb 0.07891 0.67363 0.21378 0.0
C81 C 0.09378 0.58396 0.167 0.0
Tb82 Tb 0.01267 0.61565 0.23977 0.0
O83 O 0.14592 0.66814 0.26196 0.0
O84 O 0.08378 0.62719 0.27564 0.0
O85 O 0.11727 0.62107 0.17642 0.0
C86 C 0.01574 0.50751 0.25755 0.0
O87 O 0.05067 0.57789 0.18537 0.0
C88 C 0.95824 0.65392 0.16941 0.0
C89 C 0.00067 0.72661 0.26741 0.0
O90 O 0.98823 0.54753 0.26255 0.0
O91 O 0.9884 0.54759 0.26247 0.0
O92 O 0.94171 0.62532 0.19881 0.0
O93 O 0.00367 0.6641 0.18101 0.0
O94 O 0.98236 0.68357 0.27192 0.0
O95 O 0.04122 0.73014 0.24564 0.0
C96 C 0.10342 0.73488 0.15551 0.0
O97 O 0.11319 0.7373 0.20014 0.0
O98 O 0.08334 0.69751 0.14365 0.0
C99 C 0.12761 0.63957 0.29038 0.0
Tb100 Tb 0.67634 0.82716 0.4364 0.0
C101 C 0.56965 0.84996 0.38976 0.0
Tb102 Tb 0.60685 0.78762 0.48233 0.0
O103 O 0.70184 0.77395 0.39523 0.0
O104 O 0.62683 0.77452 0.414 0.0
O105 O 0.61675 0.86044 0.38946 0.0
C106 C 0.5314 0.74814 0.52268 0.0
O107 O 0.55761 0.8166 0.41893 0.0
C108 C 0.61915 0.8695 0.50901 0.0
C109 C 0.72869 0.75818 0.50665 0.0
O110 O 0.53609 0.79121 0.51531 0.0
O111 O 0.5727 0.72761 0.51049 0.0
O112 O 0.57585 0.85244 0.50319 0.0
O113 O 0.65431 0.83976 0.50317 0.0
O114 O 0.68149 0.75587 0.51982 0.0
O115 O 0.73621 0.78539 0.47182 0.0
C116 C 0.72379 0.89991 0.42366 0.0
O117 O 0.74479 0.85924 0.42097 0.0
O118 O 0.67661 0.89948 0.42965 0.0
C119 C 0.66149 0.75135 0.39616 0.0
Tb120 Tb 0.38437 0.34835 0.73151 0.0
C121 C 0.39869 0.44578 0.69374 0.0
Tb122 Tb 0.4746 0.39043 0.77974 0.0
O123 O 0.33068 0.38557 0.77205 0.0
O124 O 0.40496 0.37055 0.80169 0.0
O125 O 0.36872 0.41183 0.68999 0.0
C126 C 0.49676 0.47414 0.8025 0.0
O127 O 0.43971 0.44338 0.72442 0.0
C128 C 0.50072 0.37131 0.70369 0.0
C129 C 0.4727 0.27491 0.77541 0.0
O130 O 0.45198 0.45831 0.79763 0.0
O131 O 0.53125 0.43997 0.80353 0.0
O132 O 0.53295 0.38567 0.73592 0.0
O133 O 0.45773 0.36395 0.71687 0.0
O134 O 0.49803 0.31196 0.79127 0.0
O135 O 0.42574 0.28194 0.75449 0.0
C136 C 0.343 0.30226 0.66257 0.0
O137 O 0.34671 0.28852 0.70661 0.0
O138 O 0.35812 0.34328 0.65791 0.0
C139 C 0.36402 0.39428 0.80657 0.0
Tb140 Tb 0.93021 0.17176 0.93343 0.0
C141 C 0.81303 0.16046 0.92013 0.0
Tb142 Tb 0.86205 0.23189 0.98389 0.0
O143 O 0.95234 0.1202 0.98857 0.0
O144 O 0.88469 0.1617 0.9865 0.0
O145 O 0.85655 0.15437 0.90196 0.0
C146 C 0.78531 0.27669 0.01781 0.0
O147 O 0.81018 0.18068 0.95977 0.0
C148 C 0.87725 0.25745 0.90007 0.0
C149 C 0.98289 0.23009 1.0075 0.0
O150 O 0.79681 0.28102 0.97566 0.0
O151 O 0.82312 0.25268 0.04229 0.0
O152 O 0.8348 0.26513 0.91643 0.0
O153 O 0.90955 0.24099 0.93183 0.0
O154 O 0.93791 0.24736 0.01859 0.0
O155 O 0.98742 0.2042 0.97243 0.0
C156 C 0.97335 0.16181 0.85949 0.0
O157 O 0.99546 0.14782 0.90033 0.0
O158 O 0.92662 0.17582 0.8601 0.0
C159 C 0.91683 0.13617 0.01229 0.0
Tb160 Tb 0.34449 0.04381 0.43594 0.0
C161 C 0.35535 0.08762 0.34006 0.0
Tb162 Tb 0.26735 0.01495 0.36223 0.0
O163 O 0.40671 1.00199 0.40973 0.0
O164 O 0.33324 0.98072 0.39862 0.0
O165 O 0.36294 0.09289 0.38464 0.0
C166 C 0.22565 0.99983 0.2752 0.0
O167 O 0.32394 0.05598 0.32391 0.0
C168 C 0.2363 0.09402 0.37976 0.0
C169 C 0.25539 1.00284 0.48177 0.0
O170 O 0.26643 0.02053 0.28661 0.0
O171 O 0.21086 0.98138 0.3137 0.0
O172 O 0.2091 0.06863 0.35342 0.0
O173 O 0.27647 0.07225 0.39815 0.0
O174 O 0.23421 1.00195 0.43562 0.0
O175 O 0.30429 1.01053 0.4896 0.0
C176 C 0.36624 0.10994 0.49183 0.0
O177 O 0.32355 0.09076 0.48747 0.0
O178 O 0.39939 0.08822 0.46909 0.0
C179 C 0.37801 0.97411 0.38675 0.0
Tb180 Tb 0.13839 0.05619 0.57787 0.0
C181 C 0.13956 0.09658 0.6767 0.0
Tb182 Tb 0.21621 0.01345 0.64295 0.0
O183 O 0.07713 0.01518 0.59991 0.0
O184 O 0.15139 0.98569 0.60789 0.0
O185 O 0.11379 0.09845 0.63472 0.0
C186 C 0.2447 0.99415 0.7349 0.0
O187 O 0.18113 0.06828 0.68445 0.0
C188 C 0.24691 0.08269 0.60619 0.0
C189 C 0.22384 1.00448 0.52657 0.0
O190 O 0.20058 0.98868 0.71222 0.0
O191 O 0.27548 1.00221 0.70349 0.0
O192 O 0.27736 0.04679 0.61911 0.0
O193 O 0.20229 0.07978 0.61734 0.0
O194 O 0.24502 0.99302 0.5717 0.0
O195 O 0.17749 0.0254 0.52096 0.0
C196 C 0.11836 0.12536 0.51626 0.0
O197 O 0.16242 0.10428 0.52628 0.0
O198 O 0.08405 0.10494 0.53767 0.0
C199 C 0.1065 0.98047 0.61906 0.0
Tb200 Tb 0.13593 0.96033 0.91046 0.0
C201 C 0.12688 0.92583 0.81689 0.0
Tb202 Tb 0.21068 0.98931 0.86194 0.0
O203 O 0.07671 1.00433 0.86691 0.0
O204 O 0.14883 0.02737 0.88198 0.0
O205 O 0.12275 0.91066 0.85931 0.0
C206 C 0.24807 0.01343 0.78241 0.0
O207 O 0.15211 0.96286 0.81063 0.0
C208 C 0.22963 0.90229 0.88158 0.0
C209 C 0.21084 1.00493 0.97728 0.0
O210 O 0.20622 0.03019 0.79664 0.0
O211 O 0.27473 0.99278 0.81913 0.0
O212 O 0.2305 0.92206 0.84122 0.0
O213 O 0.21217 0.93092 0.90818 0.0
O214 O 0.23845 1.00427 0.93934 0.0
O215 O 0.16299 0.99597 0.97087 0.0
C216 C 0.09704 0.91762 0.97669 0.0
O217 O 0.13556 0.94166 0.98262 0.0
O218 O 0.0775 0.91855 0.93364 0.0
C219 C 0.10669 0.03641 0.85845 0.0
Tb220 Tb 0.31383 0.93891 0.09047 0.0
C221 C 0.33709 0.91076 0.19212 0.0
Tb222 Tb 0.23445 0.97108 0.14518 0.0
O223 O 0.34512 1.00671 0.08882 0.0
O224 O 0.30773 0.98325 0.14276 0.0
O225 O 0.34839 0.89792 0.15122 0.0
C226 C 0.20331 0.99899 0.22533 0.0
O227 O 0.29952 0.9422 0.1953 0.0
C228 C 0.21983 0.88904 0.11845 0.0
C229 C 0.23499 1.00011 0.02898 0.0
O230 O 0.19277 0.9608 0.2066 0.0
O231 O 0.22077 0.02496 0.19302 0.0
O232 O 0.21372 0.90271 0.15936 0.0
O233 O 0.2367 0.92135 0.09502 0.0
O234 O 0.20833 0.99903 0.06773 0.0
O235 O 0.28237 0.98471 0.03329 0.0
C236 C 0.35266 0.90005 0.02671 0.0
O237 O 0.3043 0.90275 0.02949 0.0
O238 O 0.38033 0.91421 0.06224 0.0
C239 C 0.32523 0.01752 0.12615 0.0
Tb240 Tb 0.32734 0.31678 0.11163 0.0
C241 C 0.44258 0.33184 0.12971 0.0
Tb242 Tb 0.39745 0.26657 0.05002 0.0
O243 O 0.32529 0.2692 0.17035 0.0
O244 O 0.36598 0.25173 0.11358 0.0
O245 O 0.39739 0.33997 0.14386 0.0
C246 C 0.48827 0.23725 0.02973 0.0
O247 O 0.45075 0.30356 0.09665 0.0
C248 C 0.37595 0.34961 0.01602 0.0
C249 C 0.2746 0.25483 0.04012 0.0
O250 O 0.47811 0.26017 0.06486 0.0
O251 O 0.4456 0.22248 1.01019 0.0
O252 O 0.40045 0.31967 0.99418 0.0
O253 O 0.35962 0.32913 0.04997 0.0
O254 O 0.32046 0.24143 0.02661 0.0
O255 O 0.26919 0.28519 0.0713 0.0
C256 C 0.2756 0.39182 0.12158 0.0
O257 O 0.25456 0.35327 0.11672 0.0
O258 O 0.32438 0.38699 0.12418 0.0
C259 C 0.35169 0.23708 0.1521 0.0
Tb260 Tb 0.88456 0.84823 0.23175 0.0
C261 C 0.89865 0.94549 0.19363 0.0
Tb262 Tb 0.97442 0.89002 0.2796 0.0
O263 O 0.83083 0.88567 0.27204 0.0
O264 O 0.90496 0.87035 0.30202 0.0
O265 O 0.86856 0.91163 0.19013 0.0
C266 C -0.00362 0.97381 0.30198 0.0
O267 O 0.93982 0.94295 0.22411 0.0
C268 C 0.0011 0.87103 0.2039 0.0
C269 C 0.97256 0.77457 0.27549 0.0
O270 O 0.95156 0.95817 0.29622 0.0
O271 O 0.03084 0.93949 0.30405 0.0
O272 O 0.03318 0.88519 0.23639 0.0
O273 O 0.95793 0.86345 0.21661 0.0
O274 O -0.00206 0.8116 0.2912 0.0
O275 O 0.92554 0.78165 0.25473 0.0
C276 C 0.84326 0.80206 0.16291 0.0
O277 O 0.84694 0.78837 0.20696 0.0
O278 O 0.85821 0.84313 0.15819 0.0
C279 C 0.86407 0.89424 0.30668 0.0
Tb280 Tb 0.10094 0.65774 0.61642 0.0
C281 C 0.21751 0.65007 0.6232 0.0
Tb282 Tb 0.15914 0.72819 0.55861 0.0
O283 O 0.10107 0.60379 0.56492 0.0
O284 O 0.13002 0.66689 0.55674 0.0
O285 O 0.17826 0.64674 0.64788 0.0
C286 C 0.23509 0.76176 0.52254 0.0
O287 O 0.21371 0.67123 0.58148 0.0
C288 C 0.15105 0.74379 0.64625 0.0
C289 C 0.03844 0.71478 0.5332 0.0
O290 O 0.22905 0.71846 0.5297 0.0
O291 O 0.19407 0.787 0.52838 0.0
O292 O 0.18867 0.75381 0.62412 0.0
O293 O 0.11958 0.72697 0.61789 0.0
O294 O 0.07892 0.73911 0.52479 0.0
O295 O 0.0398 0.68046 0.56471 0.0
C296 C 0.03725 0.63534 0.67292 0.0
O297 O 0.03895 0.67663 0.65485 0.0
O298 O 0.07272 0.60715 0.66106 0.0
C299 C 0.1213 0.63201 0.53701 0.0
Tb300 Tb 0.95207 0.66832 0.77051 0.0
C301 C 0.00421 0.55951 0.77465 0.0
Tb302 Tb 0.90656 0.59573 0.71042 0.0
O303 O 0.92477 0.63934 0.83364 0.0
O304 O 0.88427 0.62909 0.76957 0.0
O305 O 0.00701 0.60524 0.78146 0.0
C306 C 0.84768 0.54765 0.65793 0.0
O307 O 0.95972 0.54699 0.75504 0.0
C308 C 0.99256 0.6197 0.68903 0.0
C309 C 0.87523 0.69862 0.68135 0.0
O310 O 0.86496 0.53535 0.70083 0.0
O311 O 0.86153 0.58718 0.64524 0.0
O312 O 0.97562 0.58046 0.67891 0.0
O313 O 0.9591 0.64501 0.70407 0.0
O314 O 0.87099 0.65603 0.66934 0.0
O315 O 0.89993 0.70936 0.72062 0.0
C316 C 0.98776 0.75693 0.77902 0.0
O317 O 0.94096 0.74527 0.7773 0.0
O318 O 0.01421 0.71726 0.77985 0.0
C319 C 0.88922 0.61605 0.81262 0.0
Tb320 Tb 0.09475 0.25617 0.46732 0.0
C321 C 0.21743 0.27048 0.47973 0.0
Tb322 Tb 0.16246 0.20825 0.41309 0.0
O323 O 0.07536 0.19851 0.50961 0.0
O324 O 0.14421 0.19654 0.4819 0.0
O325 O 0.17108 0.28247 0.49299 0.0
C326 C 0.21308 0.13462 0.39397 0.0
O327 O 0.22286 0.24068 0.44839 0.0
C328 C 0.14 0.2911 0.37665 0.0
C329 C 0.04931 0.1899 0.39145 0.0
O330 O 0.23491 0.17066 0.40729 0.0
O331 O 0.16448 0.14135 0.38813 0.0
O332 O 0.17901 0.26539 0.36799 0.0
O333 O 0.11042 0.26631 0.39699 0.0
O334 O 0.09549 0.17965 0.3811 0.0
O335 O 0.03998 0.22233 0.4198 0.0
C336 C 0.0061 0.28715 0.49435 0.0
O337 O 0.01376 0.25738 0.46452 0.0
O338 O 0.04979 0.30548 0.50528 0.0
C339 C 0.11146 0.17233 0.49793 0.0
Tb340 Tb 0.50206 0.41124 0.21844 0.0
C341 C 0.5075 0.30345 0.26322 0.0
Tb342 Tb 0.59153 0.34742 0.20661 0.0
O343 O 0.46458 0.40413 0.14975 0.0
O344 O 0.51151 0.35091 0.18336 0.0
O345 O 0.48144 0.34584 0.26016 0.0
C346 C 0.63211 0.28055 0.1693 0.0
O347 O 0.55142 0.29809 0.2456 0.0
C348 C 0.61523 0.39608 0.27819 0.0
C349 C 0.58744 0.4412 0.14863 0.0
O350 O 0.63943 0.28518 0.21385 0.0
O351 O 0.60622 0.31474 0.14578 0.0
O352 O 0.64716 0.36591 0.26391 0.0
O353 O 0.57438 0.39652 0.25174 0.0
O354 O 0.6164 0.40357 0.16209 0.0
O355 O 0.54102 0.44646 0.16211 0.0
C356 C 0.49184 0.4998 0.22812 0.0
O357 O 0.53367 0.47409 0.23575 0.0
O358 O 0.45237 0.4742 0.22313 0.0
C359 C 0.48233 0.36224 0.14628 0.0
Tb360 Tb 0.3335 0.79589 0.96229 0.0
C361 C 0.45407 0.80963 0.98801 0.0
Tb362 Tb 0.39155 0.86682 0.90507 0.0
O363 O 0.30417 0.77037 0.89679 0.0
O364 O 0.37349 0.79738 0.9032 0.0
O365 O 0.41366 0.78517 0.99622 0.0
C366 C 0.45521 0.88921 0.84853 0.0
O367 O 0.45256 0.84425 0.95687 0.0
C368 C 0.37065 0.89194 0.98456 0.0
C369 C 0.27492 0.87382 0.89758 0.0
O370 O 0.45351 0.84793 0.86664 0.0
O371 O 0.41978 0.91746 0.86044 0.0
O372 O 0.39194 0.9201 0.9574 0.0
O373 O 0.36118 0.85768 0.96404 0.0
O374 O 0.31436 0.87765 0.87322 0.0
O375 O 0.27856 0.85248 0.93921 0.0
C376 C 0.25806 0.76139 0.99826 0.0
O377 O 0.26362 0.80482 0.99143 0.0
O378 O 0.29925 0.73658 0.99216 0.0
C379 C 0.34195 0.78046 0.87493 0.0
Tb380 Tb 0.97768 0.40699 0.78088 0.0
C381 C 0.99113 0.29595 0.75368 0.0
Tb382 Tb 0.91492 0.34912 0.80743 0.0
O383 O 0.04994 0.39775 0.81999 0.0
O384 O 0.98822 0.36106 0.84246 0.0
O385 O 0.01037 0.33876 0.75108 0.0
C386 C 0.89133 0.28765 0.86559 0.0
O387 O 0.9491 0.29243 0.7734 0.0
C388 C 0.86771 0.39378 0.73476 0.0
C389 C 0.89756 0.43921 0.85365 0.0
O390 O 0.87662 0.28746 0.8212 0.0
O391 O 0.91659 0.32234 0.877 0.0
O392 O 0.84608 0.37886 0.7702 0.0
O393 O 0.91511 0.38246 0.73873 0.0
O394 O 0.87696 0.4002 0.84727 0.0
O395 O 0.9379 0.4472 0.83204 0.0
C396 C 0.9754 0.5153 0.76204 0.0
O397 O 0.00174 0.47483 0.75606 0.0
O398 O 0.00142 0.47473 0.75624 0.0
C399 C 0.03404 0.37103 0.85145 0.0
Tb400 Tb 0.38503 0.23654 0.53811 0.0
C401 C 0.26332 0.26649 0.51348 0.0
Tb402 Tb 0.31553 0.19735 0.58405 0.0
O403 O 0.41598 0.17141 0.5176 0.0
O404 O 0.3376 0.1841 0.5174 0.0
O405 O 0.31066 0.26906 0.50066 0.0
C406 C 0.26868 0.12442 0.59793 0.0
O407 O 0.25564 0.23871 0.54785 0.0
C408 C 0.33043 0.27336 0.62401 0.0
C409 C 0.42285 0.17604 0.63112 0.0
O410 O 0.24741 0.16506 0.60016 0.0
O411 O 0.31578 0.12502 0.59168 0.0
O412 O 0.2899 0.251 0.62478 0.0
O413 O 0.36493 0.2499 0.60632 0.0
O414 O 0.37586 0.16485 0.63088 0.0
O415 O 0.43467 0.20933 0.6019 0.0
C416 C 0.46124 0.27473 0.49827 0.0
O417 O 0.45609 0.23178 0.5058 0.0
O418 O 0.41991 0.2959 0.50969 0.0
C419 C 0.37274 0.15431 0.51159 0.0
Tb420 Tb 0.51809 0.63301 0.24148 0.0
C421 C 0.51893 0.74813 0.2459 0.0
Tb422 Tb 0.60774 0.67529 0.28958 0.0
O423 O 0.45932 0.6374 0.2847 0.0
O424 O 0.53437 0.65942 0.3048 0.0
O425 O 0.49401 0.7111 0.22973 0.0
C426 C 0.64921 0.72204 0.35792 0.0
O427 O 0.56591 0.74144 0.26681 0.0
C428 C 0.62839 0.62954 0.21445 0.0
C429 C 0.59397 0.57785 0.32734 0.0
O430 O 0.64527 0.73545 0.31379 0.0
O431 O 0.63449 0.68093 0.36298 0.0
O432 O 0.66164 0.63814 0.24907 0.0
O433 O 0.5875 0.65327 0.2194 0.0
O434 O 0.62372 0.61194 0.33116 0.0
O435 O 0.55307 0.58005 0.29659 0.0
C436 C 0.49587 0.54949 0.21831 0.0
O437 O 0.54066 0.56532 0.22309 0.0
O438 O 0.4614 0.58361 0.21755 0.0
C439 C 0.49119 0.65137 0.31741 0.0
Tb440 Tb 0.1318 0.78997 0.03737 0.0
C441 C 0.01066 0.79252 0.01344 0.0
Tb442 Tb 0.06101 0.85225 0.08814 0.0
O443 O 0.15955 0.75889 0.10552 0.0
O444 O 0.08479 0.78303 0.09055 0.0
O445 O 0.05568 0.77217 1.00549 0.0
C446 C 0.01804 0.86045 0.16174 0.0
O447 O 0.00503 0.82234 0.0452 0.0
C448 C 0.07922 0.89449 0.01433 0.0
C449 C 0.1779 0.86446 0.09787 0.0
O450 O 0.99432 0.8723 0.12082 0.0
O451 O 0.0653 0.84808 0.16108 0.0
O452 O 0.05369 0.91502 0.04434 0.0
O453 O 0.09581 0.85503 0.02916 0.0
O454 O 0.13552 0.86806 0.11812 0.0
O455 O 0.18077 0.84421 0.05832 0.0
C456 C 0.20813 0.7457 1.003 0.0
O457 O 0.19689 0.74086 0.04522 0.0
O458 O 0.17009 0.76954 0.97865 0.0
C459 C 0.11725 0.76651 0.12214 0.0
Tb460 Tb 0.72436 1.01017 0.65906 0.0
C461 C 0.73673 0.02129 0.53924 0.0
Tb462 Tb 0.64626 0.98044 0.58393 0.0
O463 O 0.78202 0.95541 0.66559 0.0
O464 O 0.71314 0.95392 0.62363 0.0
O465 O 0.75762 0.0227 0.5855 0.0
C466 C 0.62563 0.91366 0.52896 0.0
O467 O 0.68788 0.01338 0.53103 0.0
C468 C 0.61291 0.04985 0.63351 0.0
C469 C 0.63663 0.93686 0.68085 0.0
O470 O 0.6683 0.93289 0.53345 0.0
O471 O 0.59202 0.93551 0.5511 0.0
O472 O 0.584 0.02274 0.60955 0.0
O473 O 0.6578 0.04287 0.62197 0.0
O474 O 0.62883 0.93161 0.63618 0.0
O475 O 0.66801 0.96855 0.69716 0.0
C476 C 0.76643 0.02409 0.74603 0.0
O477 O 0.72556 1.00359 0.73453 0.0
O478 O 0.78115 0.04306 0.70775 0.0
C479 C 0.75354 0.93118 0.63892 0.0
Tb480 Tb 0.77649 1.01054 0.37816 0.0
C481 C 0.76855 0.01959 0.49454 0.0
Tb482 Tb 0.85455 0.96797 0.4434 0.0
O483 O 0.71534 0.97743 0.40224 0.0
O484 O 0.79039 0.94427 0.40433 0.0
O485 O 0.7476 0.03121 0.44935 0.0
C486 C 0.87553 0.89838 0.50519 0.0
O487 O 0.81478 0.99837 0.50024 0.0
C488 C 0.88618 0.04359 0.40212 0.0
C489 C 0.85268 0.9272 0.34445 0.0
O490 O 0.83348 0.92334 0.49956 0.0
O491 O 0.90819 0.91594 0.47964 0.0
O492 O 0.91577 1.00932 0.42193 0.0
O493 O 0.8413 0.0383 0.4132 0.0
O494 O 0.87845 0.92541 0.38641 0.0
O495 O 0.81118 0.95555 0.33664 0.0
C496 C 0.748 0.0297 0.28608 0.0
O497 O 0.79206 0.03529 0.30881 0.0
O498 O 0.71726 0.0215 0.3175 0.0
C499 C 0.74573 0.94154 0.41544 0.0
Tb500 Tb 0.78239 0.03463 0.15897 0.0
C501 C 0.78295 0.01939 0.04348 0.0
Tb502 Tb 0.85751 0.06374 0.11065 0.0
O503 O 0.7619 0.10172 0.17966 0.0
O504 O 0.781 0.09321 0.11277 0.0
O505 O 0.75533 0.0196 0.08146 0.0
C506 C 0.89979 0.10796 0.04723 0.0
O507 O 0.83069 0.02879 0.04975 0.0
C508 C 0.88606 0.98734 0.16261 0.0
C509 C 0.86555 0.09819 0.20418 0.0
O510 O 0.85864 0.08735 0.03976 0.0
O511 O 0.91943 0.10283 0.09021 0.0
O512 O 0.9161 0.01946 0.1546 0.0
O513 O 0.84412 0.99656 0.13872 0.0
O514 O 0.86936 0.11356 0.16179 0.0
O515 O 0.84087 0.06086 0.21038 0.0
C516 C 0.74474 1.01046 0.23849 0.0
O517 O 0.78664 0.99375 0.2243 0.0
O518 O 0.71819 0.03113 0.2017 0.0
C519 C 0.76292 0.12155 0.13937 0.0
Tb520 Tb 0.75688 0.05305 0.87544 0.0
C521 C 0.75843 0.02387 0.99195 0.0
Tb522 Tb 0.67949 0.08497 0.93156 0.0
O523 O 0.77757 0.12089 0.86001 0.0
O524 O 0.75615 0.10276 0.9256 0.0
O525 O 0.78442 0.02533 0.95282 0.0
C526 C 0.64021 0.12289 0.99546 0.0
O527 O 0.71108 0.03892 0.98816 0.0
C528 C 0.66592 1.00757 0.89386 0.0
C529 C 0.65804 0.11861 0.83167 0.0
O530 O 0.6887 0.11963 0.99346 0.0
O531 O 0.61275 0.10974 0.95926 0.0
O532 O 0.64735 0.01745 0.93204 0.0
O533 O 0.68312 0.04208 0.87752 0.0
O534 O 0.64852 0.13033 0.8733 0.0
O535 O 0.69192 0.0844 0.82649 0.0
C536 C 0.78853 0.02464 0.79585 0.0
O537 O 0.79947 0.06269 0.81461 0.0
O538 O 0.77022 0.99898 0.82786 0.0
C539 C 0.77193 0.1348 0.90088 0.0
Tb540 Tb 0.59491 0.75754 0.971 0.0
C541 C 0.71781 0.76942 0.98077 0.0
Tb542 Tb 0.66518 0.70728 0.90943 0.0
O543 O 0.59165 0.70416 0.02657 0.0
O544 O 0.63315 0.69514 0.97123 0.0
O545 O 0.67191 0.78281 0.99427 0.0
C546 C 0.71675 0.63231 0.89895 0.0
O547 O 0.72328 0.73892 0.94974 0.0
C548 C 0.64091 0.78713 0.86907 0.0
C549 C 0.54981 0.69223 0.89138 0.0
O550 O 0.738 0.67064 0.90473 0.0
O551 O 0.66796 0.63731 0.8959 0.0
O552 O 0.66735 0.75502 0.85084 0.0
O553 O 0.62653 0.77235 0.90751 0.0
O554 O 0.59508 0.68385 0.87751 0.0
O555 O 0.54154 0.72081 0.92416 0.0
C556 C 0.50419 0.78704 0.99139 0.0
O557 O 0.51423 0.76411 0.95622 0.0
O558 O 0.54693 0.80168 0.01094 0.0
C559 C 0.61647 0.67438 1.00481 0.0
Tb560 Tb 0.01816 0.13329 0.74163 0.0
C561 C 0.01953 0.24839 0.74572 0.0
Tb562 Tb 0.10769 0.17536 0.78949 0.0
O563 O 0.95905 0.138 0.78438 0.0
O564 O 0.03417 0.15993 0.80495 0.0
O565 O 0.99442 0.21139 0.72979 0.0
C566 C 0.14932 0.22201 0.85786 0.0
O567 O 0.06654 0.24166 0.76646 0.0
C568 C 0.12827 0.12949 0.71447 0.0
C569 C 0.09392 0.07815 0.82751 0.0
O570 O 0.14543 0.2354 0.81373 0.0
O571 O 0.13434 0.18098 0.86292 0.0
O572 O 0.16152 0.13801 0.74912 0.0
O573 O 0.08746 0.15337 0.71929 0.0
O574 O 0.12388 0.11208 0.83106 0.0
O575 O 0.05283 0.08049 0.79699 0.0
C576 C 0.99615 0.04959 0.71885 0.0
O577 O 0.04097 0.06521 0.72473 0.0
O578 O 0.96171 0.08392 0.71688 0.0
C579 C 0.99081 0.15189 0.81723 0.0
Tb580 Tb 0.83462 0.29594 0.46284 0.0
C581 C 0.95566 0.30991 0.48871 0.0
Tb582 Tb 0.89272 0.36659 0.40537 0.0
O583 O 0.805 0.27044 0.39739 0.0
O584 O 0.87421 0.29725 0.40345 0.0
O585 O 0.91499 0.28566 0.497 0.0
C586 C 0.95655 0.38912 0.34904 0.0
O587 O 0.95437 0.34395 0.45687 0.0
C588 C 0.87183 0.39208 0.48477 0.0
C589 C 0.77601 0.37399 0.39826 0.0
O590 O 0.95481 0.34782 0.36702 0.0
O591 O 0.92095 0.41729 0.36077 0.0
O592 O 0.892 0.42046 0.45698 0.0
O593 O 0.86349 0.35721 0.46494 0.0
O594 O 0.81535 0.37754 0.3737 0.0
O595 O 0.77982 0.35279 0.43997 0.0
C596 C 0.75862 0.26172 0.49837 0.0
O597 O 0.76424 0.30511 0.4912 0.0
O598 O 0.80006 0.23686 0.49297 0.0
C599 C 0.84255 0.28045 0.37521 0.0
Tb600 Tb 0.58558 0.92842 0.81028 0.0
C601 C 0.61723 0.82555 0.83987 0.0
Tb602 Tb 0.54061 0.85539 0.75066 0.0
O603 O 0.51661 0.94405 0.84155 0.0
O604 O 0.5331 0.87901 0.81705 0.0
O605 O 0.62141 0.86825 0.85159 0.0
C606 C 0.50493 0.76695 0.74212 0.0
O607 O 0.59254 0.81456 0.80072 0.0
C608 C 0.60334 0.90787 0.70848 0.0
C609 C 0.48746 0.96343 0.74553 0.0
O610 O 0.55174 0.77852 0.74368 0.0
O611 O 0.47846 0.80657 0.74134 0.0
O612 O 0.56784 0.88454 0.68748 0.0
O613 O 0.60817 0.89479 0.75149 0.0
O614 O 0.48505 0.9177 0.73908 0.0
O615 O 0.53173 0.97648 0.7653 0.0
C616 C 0.64428 0.97672 0.86265 0.0
O617 O 0.62797 0.98843 0.81938 0.0
O618 O 0.62959 0.93764 0.87579 0.0
C619 C 0.49973 0.90467 0.83189 0.0
Tb620 Tb 0.90088 0.17645 0.31451 0.0
C621 C 0.90486 0.08242 0.37208 0.0
Tb622 Tb 0.99037 0.11174 0.30201 0.0
O623 O 0.84523 0.15782 0.25718 0.0
O624 O 0.918 0.12742 0.26949 0.0
O625 O 0.87621 0.12039 0.35921 0.0
C626 C 0.00076 0.02339 0.29196 0.0
O627 O 0.95091 0.07656 0.35793 0.0
C628 C 0.00949 0.15994 0.37471 0.0
C629 C 0.98598 0.2197 0.25829 0.0
O630 O 0.95906 0.04919 0.28331 0.0
O631 O 0.04021 0.04883 0.29803 0.0
O632 O 0.02703 0.11801 0.37115 0.0
O633 O 0.98082 0.17156 0.33749 0.0
O634 O 0.01169 0.17718 0.26103 0.0
O635 O 0.94204 0.22534 0.27591 0.0
C636 C 0.86116 0.24361 0.35199 0.0
O637 O 0.8536 0.23905 0.30742 0.0
O638 O 0.88673 0.2092 0.37542 0.0
C639 C 0.87722 0.12757 0.24307 0.0
Tb640 Tb 0.57878 0.17372 0.71379 0.0
C641 C 0.59372 0.08414 0.6669 0.0
Tb642 Tb 0.5126 0.11605 0.73955 0.0
O643 O 0.6459 0.16803 0.7619 0.0
O644 O 0.5837 0.12717 0.77561 0.0
O645 O 0.61721 0.12123 0.67639 0.0
C646 C 0.51522 1.008 0.75776 0.0
O647 O 0.55058 0.07809 0.68524 0.0
C648 C 0.45802 0.1543 0.66925 0.0
C649 C 0.50081 0.22695 0.76738 0.0
O650 O 0.48797 0.04815 0.76261 0.0
O651 O 0.48806 0.04818 0.76257 0.0
O652 O 0.44159 0.12569 0.69869 0.0
O653 O 0.50354 0.16445 0.68065 0.0
O654 O 0.4824 0.18395 0.77178 0.0
O655 O 0.5414 0.23039 0.74567 0.0
C656 C 0.60363 0.23479 0.65546 0.0
O657 O 0.61298 0.23746 0.70011 0.0
O658 O 0.58375 0.19732 0.64367 0.0
C659 C 0.62759 0.13942 0.79028 0.0
Tb660 Tb 0.17627 0.32709 0.93634 0.0
C661 C 0.0695 0.3495 0.88958 0.0
Tb662 Tb 0.10679 0.28748 0.98231 0.0
O663 O 0.20189 0.27396 0.89515 0.0
O664 O 0.12686 0.27434 0.91401 0.0
O665 O 0.11656 0.36016 0.88939 0.0
C666 C 0.03146 0.24804 0.02275 0.0
O667 O 0.05752 0.31612 0.91877 0.0
C668 C 0.119 0.36943 1.00888 0.0
C669 C 0.22864 0.25814 1.00666 0.0
O670 O 0.03611 0.29111 0.01541 0.0
O671 O 0.07272 0.22744 0.01055 0.0
O672 O 0.07572 0.35236 1.003 0.0
O673 O 0.15418 0.33969 1.00309 0.0
O674 O 0.18145 0.2558 0.01982 0.0
O675 O 0.23614 0.28535 0.97182 0.0
C676 C 0.22374 0.39988 0.92355 0.0
O677 O 0.24475 0.35919 0.92098 0.0
O678 O 0.17652 0.39944 0.92946 0.0
C679 C 0.16157 0.25132 0.89609 0.0
Tb680 Tb 0.4304 0.67163 0.43339 0.0
C681 C 0.31317 0.66052 0.41995 0.0
Tb682 Tb 0.36202 0.73208 0.48351 0.0
O683 O 0.45218 0.62008 0.48856 0.0
O684 O 0.3847 0.66187 0.48636 0.0
O685 O 0.35673 0.6543 0.40186 0.0
C686 C 0.28526 0.77683 0.51746 0.0
O687 O 0.31024 0.68082 0.45952 0.0
C688 C 0.37768 0.75725 0.39976 0.0
C689 C 0.48285 0.73017 0.50741 0.0
O690 O 0.29659 0.78103 0.47525 0.0
O691 O 0.3232 0.753 0.54194 0.0
O692 O 0.33507 0.76514 0.4158 0.0
O693 O 0.40975 0.74083 0.43169 0.0
O694 O 0.43784 0.74764 0.51824 0.0
O695 O 0.48751 0.70406 0.47252 0.0
C696 C 0.4738 0.66161 0.35961 0.0
O697 O 0.49577 0.64759 0.40049 0.0
O698 O 0.42709 0.67572 0.36009 0.0
C699 C 0.41674 0.63629 0.51222 0.0
Tb700 Tb 0.84617 0.54325 0.93692 0.0
C701 C 0.85588 0.58709 0.84025 0.0
Tb702 Tb 0.76792 0.51396 0.86197 0.0
O703 O 0.90796 0.50083 0.9107 0.0
O704 O 0.83408 0.48069 0.89891 0.0
O705 O 0.8638 0.59219 0.88492 0.0
C706 C 0.72575 0.49973 0.77497 0.0
O707 O 0.82441 0.5555 0.82393 0.0
C708 C 0.73883 0.59292 0.88186 0.0
C709 C 0.75582 0.50261 0.98182 0.0
O710 O 0.76655 0.52039 0.78639 0.0
O711 O 0.71117 0.48087 0.81337 0.0
O712 O 0.71048 0.56872 0.85506 0.0
O713 O 0.77895 0.57011 0.8979 0.0
O714 O 0.73481 0.50138 0.93558 0.0
O715 O 0.80474 0.51033 0.98996 0.0
C716 C 0.8669 0.61022 0.99203 0.0
O717 O 0.82427 0.5909 0.98751 0.0
O718 O 0.90044 0.58829 0.96985 0.0
C719 C 0.87882 0.47359 0.88718 0.0
Tb720 Tb 0.63799 0.556 0.07761 0.0
C721 C 0.63975 0.59663 0.17664 0.0
Tb722 Tb 0.71605 0.51339 0.14286 0.0
O723 O 0.57671 0.51458 0.09902 0.0
O724 O 0.65115 0.48564 0.10787 0.0
O725 O 0.61409 0.59856 0.1346 0.0
C726 C 0.7445 0.49414 0.23487 0.0
O727 O 0.68121 0.56823 0.18446 0.0
C728 C 0.74669 0.58255 0.10568 0.0
C729 C 0.72406 0.50436 0.02655 0.0
O730 O 0.70036 0.48876 0.21218 0.0
O731 O 0.77531 0.50213 0.20345 0.0
O732 O 0.77713 0.54671 0.11892 0.0
O733 O 0.70205 0.57969 0.11685 0.0
O734 O 0.74503 0.49277 0.07173 0.0
O735 O 0.67781 0.52552 0.02084 0.0
C736 C 0.61714 0.62546 0.01556 0.0
O737 O 0.65943 0.60086 0.0218 0.0
O738 O 0.58429 0.60765 0.04076 0.0
C739 C 0.60623 0.48023 0.1188 0.0
Tb740 Tb 0.63625 0.46013 0.41053 0.0
C741 C 0.62724 0.42545 0.31709 0.0
Tb742 Tb 0.71082 0.4891 0.36206 0.0
O743 O 0.57693 0.50394 0.36678 0.0
O744 O 0.6489 0.52719 0.38193 0.0
O745 O 0.62318 0.41031 0.35953 0.0
C746 C 0.74793 0.51336 0.28241 0.0
O747 O 0.65237 0.46251 0.31077 0.0
C748 C 0.73047 0.40226 0.3821 0.0
C749 C 0.71084 0.50504 0.47732 0.0
O750 O 0.70608 0.52999 0.29674 0.0
O751 O 0.77473 0.49276 0.31908 0.0
O752 O 0.73113 0.42183 0.34162 0.0
O753 O 0.71267 0.43084 0.40861 0.0
O754 O 0.73844 0.50446 0.43938 0.0
O755 O 0.66309 0.49579 0.47096 0.0
C756 C 0.59697 0.41762 0.47673 0.0
O757 O 0.63477 0.44251 0.48282 0.0
O758 O 0.57834 0.41757 0.4335 0.0
C759 C 0.6068 0.53611 0.35833 0.0
Tb760 Tb 0.8135 0.43893 0.59022 0.0
C761 C 0.83671 0.40961 0.69147 0.0
Tb762 Tb 0.73465 0.47092 0.64507 0.0
O763 O 0.84522 0.50656 0.58893 0.0
O764 O 0.8081 0.48286 0.64306 0.0
O765 O 0.84777 0.397 0.65044 0.0
C766 C 0.70345 0.49894 0.72513 0.0
O767 O 0.7995 0.44129 0.69495 0.0
C768 C 0.71943 0.3891 0.61813 0.0
C769 C 0.73499 0.50039 0.52899 0.0
O770 O 0.69286 0.46077 0.70641 0.0
O771 O 0.72104 0.52486 0.69286 0.0
O772 O 0.71355 0.40268 0.65912 0.0
O773 O 0.73632 0.42138 0.59465 0.0
O774 O 0.70837 0.49908 0.56773 0.0
O775 O 0.78239 0.48514 0.53331 0.0
C776 C 0.85279 0.40079 0.5263 0.0
O777 O 0.80431 0.4042 0.52824 0.0
O778 O 0.88016 0.41369 0.56265 0.0
C779 C 0.82574 0.51709 0.62653 0.0
Tb780 Tb 0.45213 0.16814 0.27037 0.0
C781 C 0.50408 0.05926 0.27431 0.0
Tb782 Tb 0.40638 0.09568 0.21025 0.0
O783 O 0.42479 0.1392 0.33349 0.0
O784 O 0.38418 0.12912 0.26941 0.0
O785 O 0.50696 0.10496 0.28119 0.0
C786 C 0.34729 0.04791 0.15765 0.0
O787 O 0.45952 0.04681 0.25475 0.0
C788 C 0.4924 0.11956 0.18878 0.0
C789 C 0.37525 0.19856 0.1812 0.0
O790 O 0.3648 0.03534 0.20043 0.0
O791 O 0.36097 0.08755 0.14515 0.0
O792 O 0.47535 0.08039 0.17856 0.0
O793 O 0.45902 0.14486 0.20392 0.0
O794 O 0.3708 0.15599 0.16925 0.0
O795 O 0.40018 0.20928 0.22038 0.0
C796 C 0.48785 0.25668 0.27889 0.0
O797 O 0.44105 0.24506 0.27728 0.0
O798 O 0.51432 0.21702 0.27972 0.0
C799 C 0.38908 0.11611 0.31245 0.0
Tb800 Tb 0.00195 0.91139 0.71826 0.0
C801 C 0.0074 0.80365 0.76318 0.0
Tb802 Tb 0.09156 0.84749 0.70656 0.0
O803 O 0.96476 0.90417 0.64947 0.0
O804 O 0.01154 0.85099 0.68331 0.0
O805 O 0.98134 0.84605 0.76005 0.0
C806 C 0.13216 0.78062 0.6693 0.0
O807 O 0.05134 0.79825 0.74558 0.0
C808 C 0.11507 0.89639 0.778 0.0
C809 C 0.0876 0.94136 0.64869 0.0
O810 O 0.1395 0.78529 0.71385 0.0
O811 O 0.10622 0.81478 0.64576 0.0
O812 O 0.14707 0.86615 0.76391 0.0
O813 O 0.07428 0.89667 0.7515 0.0
O814 O 0.11646 0.90364 0.66204 0.0
O815 O 0.04117 0.94669 0.66216 0.0
C816 C 0.99175 0.9999 0.7282 0.0
O817 O 0.03346 0.97408 0.73629 0.0
O818 O 0.95224 0.97443 0.72262 0.0
C819 C 0.98244 0.86223 0.64617 0.0
Tb820 Tb 0.47768 0.90695 0.28097 0.0
C821 C 0.49052 0.79589 0.25353 0.0
Tb822 Tb 0.41508 0.84948 0.3077 0.0
O823 O 0.54996 0.89805 0.32005 0.0
O824 O 0.48818 0.86172 0.34309 0.0
O825 O 0.51023 0.83851 0.25143 0.0
C826 C 0.39225 0.78691 0.36505 0.0
O827 O 0.448 0.7928 0.27256 0.0
C828 C 0.36827 0.8954 0.23546 0.0
C829 C 0.39729 0.93928 0.3539 0.0
O830 O 0.37359 0.78972 0.32142 0.0
O831 O 0.42121 0.81927 0.37624 0.0
O832 O 0.34689 0.88234 0.27175 0.0
O833 O 0.41521 0.88254 0.23899 0.0
O834 O 0.37771 0.89965 0.34884 0.0
O835 O 0.43681 0.94775 0.3312 0.0
C836 C 0.47525 0.01509 0.26173 0.0
O837 O 0.50143 0.9746 0.25568 0.0
O838 O 0.50133 0.97457 0.25573 0.0
C839 C 0.53414 0.87147 0.35167 0.0
Tb840 Tb 0.88572 0.73681 0.03841 0.0
C841 C 0.7638 0.76625 0.01419 0.0
Tb842 Tb 0.81594 0.69712 0.08446 0.0
O843 O 0.91659 0.6717 0.01788 0.0
O844 O 0.83822 0.68439 0.01776 0.0
O845 O 0.81101 0.76865 1.00101 0.0
C846 C 0.76865 0.62426 0.09768 0.0
O847 O 0.75625 0.73901 0.04899 0.0
C848 C 0.83076 0.77312 0.1244 0.0
C849 C 0.92314 0.67583 0.13139 0.0
O850 O 0.74748 0.66493 0.09988 0.0
O851 O 0.81588 0.62478 0.09188 0.0
O852 O 0.79038 0.75057 0.12542 0.0
O853 O 0.86529 0.74975 0.10663 0.0
O854 O 0.87616 0.6647 0.13124 0.0
O855 O 0.93509 0.70915 0.10222 0.0
C856 C 0.96188 0.77497 0.99852 0.0
O857 O 0.95658 0.73201 1.00563 0.0
O858 O 0.92083 0.79625 1.0104 0.0
C859 C 0.87333 0.6546 0.01186 0.0
Tb860 Tb 0.63153 0.28985 0.5371 0.0
C861 C 0.50995 0.29251 0.51333 0.0
Tb862 Tb 0.56064 0.35201 0.58802 0.0
O863 O 0.65952 0.25884 0.60524 0.0
O864 O 0.58473 0.28284 0.59044 0.0
O865 O 0.55506 0.27222 0.50538 0.0
C866 C 0.51745 0.36017 0.66158 0.0
O867 O 0.50427 0.32234 0.54509 0.0
C868 C 0.5791 0.39442 0.51432 0.0
C869 C 0.6775 0.36446 0.59765 0.0
O870 O 0.49404 0.37244 0.62065 0.0
O871 O 0.56464 0.34744 0.66098 0.0
O872 O 0.55364 0.41489 0.54441 0.0
O873 O 0.59556 0.3549 0.52907 0.0
O874 O 0.63516 0.36796 0.618 0.0
O875 O 0.68031 0.34426 0.55806 0.0
C876 C 0.70857 0.24607 0.50305 0.0
O877 O 0.69709 0.24113 0.54519 0.0
O878 O 0.67047 0.26975 0.47858 0.0
C879 C 0.6173 0.26644 0.62201 0.0
Tb880 Tb 0.22438 0.51002 0.15908 0.0
C881 C 0.23667 0.52112 0.03927 0.0
Tb882 Tb 0.1462 0.48018 0.08408 0.0
O883 O 0.28215 0.45541 0.16554 0.0
O884 O 0.2132 0.45377 0.12365 0.0
O885 O 0.25757 0.52262 0.08551 0.0
C886 C 0.12548 0.41354 0.02893 0.0
O887 O 0.18783 0.51309 0.03112 0.0
C888 C 0.11291 0.54965 0.1336 0.0
C889 C 0.13715 0.43619 0.18111 0.0
O890 O 0.16814 0.43278 0.03343 0.0
O891 O 0.09191 0.43529 0.0512 0.0
O892 O 0.08397 0.5225 0.10974 0.0
O893 O 0.15777 0.54266 0.12202 0.0
O894 O 0.12888 0.43127 0.13639 0.0
O895 O 0.16859 0.46786 0.19737 0.0
C896 C 0.26631 0.52413 0.24602 0.0
O897 O 0.22537 0.50373 0.23453 0.0
O898 O 0.28118 0.54293 0.20773 0.0
C899 C 0.25366 0.43112 0.13895 0.0
Tb900 Tb 0.27656 0.51053 0.87819 0.0
C901 C 0.26849 0.51949 0.99454 0.0
Tb902 Tb 0.35457 0.46805 0.94332 0.0
O903 O 0.2154 0.47744 0.90227 0.0
O904 O 0.29041 0.44422 0.9043 0.0
O905 O 0.24754 0.53112 0.94936 0.0
C906 C 0.37556 0.39849 1.00518 0.0
O907 O 0.31476 0.49835 1.00021 0.0
C908 C 0.38629 0.54374 0.90214 0.0
C909 C 0.35269 0.42725 0.84436 0.0
O910 O 0.3335 0.42343 0.9995 0.0
O911 O 0.40823 0.41606 0.97963 0.0
O912 O 0.41582 0.50941 0.92192 0.0
O913 O 0.34137 0.53843 0.91317 0.0
O914 O 0.37849 0.42548 0.88631 0.0
O915 O 0.31117 0.45556 0.83661 0.0
C916 C 0.24805 0.52971 0.7861 0.0
O917 O 0.29212 0.5353 0.80884 0.0
O918 O 0.21732 0.52151 0.81753 0.0
C919 C 0.24574 0.44151 0.9154 0.0
Tb920 Tb 0.28241 0.53474 0.659 0.0
C921 C 0.28296 0.51946 0.54349 0.0
Tb922 Tb 0.35748 0.5639 0.61063 0.0
O923 O 0.26192 0.60185 0.67965 0.0
O924 O 0.28096 0.59328 0.61274 0.0
O925 O 0.25535 0.51967 0.58148 0.0
C926 C 0.39961 0.60825 0.54722 0.0
O927 O 0.33069 0.52891 0.54974 0.0
C928 C 0.38611 0.48758 0.66267 0.0
C929 C 0.36566 0.59833 0.70423 0.0
O930 O 0.35874 0.58725 0.53966 0.0
O931 O 0.4191 0.60338 0.59025 0.0
O932 O 0.41615 0.51967 0.65457 0.0
O933 O 0.34417 0.49674 0.63876 0.0
O934 O 0.36947 0.61368 0.66182 0.0
O935 O 0.34085 0.56107 0.71045 0.0
C936 C 0.24479 0.5105 0.73851 0.0
O937 O 0.28669 0.49381 0.7243 0.0
O938 O 0.21823 0.53117 0.70173 0.0
C939 C 0.26289 0.62164 0.63933 0.0
Tb940 Tb 0.25691 0.55314 0.37545 0.0
C941 C 0.25843 0.52393 0.49194 0.0
Tb942 Tb 0.17963 0.58533 0.43167 0.0
O943 O 0.27772 0.6209 0.35992 0.0
O944 O 0.2563 0.60291 0.42556 0.0
O945 O 0.28443 0.52539 0.45282 0.0
C946 C 0.14033 0.62299 0.49563 0.0
O947 O 0.21109 0.53901 0.48813 0.0
C948 C 0.16562 0.50823 0.39392 0.0
C949 C 0.15811 0.61886 0.33175 0.0
O950 O 0.18885 0.61948 0.49385 0.0
O951 O 0.11289 0.61036 0.45915 0.0
O952 O 0.14711 0.51801 0.43214 0.0
O953 O 0.18311 0.54256 0.37759 0.0
O954 O 0.14873 0.63071 0.37339 0.0
O955 O 0.19189 0.58455 0.32657 0.0
C956 C 0.2884 0.52468 0.29583 0.0
O957 O 0.29943 0.56272 0.31457 0.0
O958 O 0.27006 0.49906 0.32785 0.0
C959 C 0.27209 0.63487 0.40076 0.0
loop_
_geom_bond_atom_site_label_1
_geom_bond_atom_site_label_2
_geom_bond_distance
_geom_bond_site_symmetry_2
_ccdc_geom_bond_type
Tb0 O3 2.453 . S
Tb0 O4 2.596 . S
Tb0 O5 2.374 . S
Tb0 O13 2.343 . S
Tb0 O15 2.353 . S
Tb0 O17 2.427 . S
Tb0 O18 2.513 . S
C1 O5 1.251 . S
C1 O7 1.263 . S
Tb2 O4 2.343 . S
Tb2 O7 2.353 . S
Tb2 O10 2.427 . S
Tb2 O11 2.513 1_455 S
Tb2 O12 2.453 . S
Tb2 O13 2.596 . S
Tb2 O14 2.374 . S
O3 Tb0 2.453 . S
O3 C19 1.245 1_455 S
O4 Tb0 2.596 . S
O4 Tb2 2.343 . S
O4 C19 1.259 1_455 S
O5 Tb0 2.374 . S
O5 C1 1.251 . S
C6 O10 1.275 1_655 S
C6 O11 1.246 . S
O7 C1 1.263 . S
O7 Tb2 2.353 . S
C8 O12 1.245 . S
C8 O13 1.259 . S
C9 O14 1.250 . S
C9 O15 1.263 . S
O10 Tb2 2.427 . S
O10 C6 1.275 1_455 S
O11 Tb2 2.513 1_655 S
O11 C6 1.246 . S
O12 Tb2 2.453 . S
O12 C8 1.245 . S
O13 Tb0 2.343 . S
O13 Tb2 2.596 . S
O13 C8 1.259 . S
O14 Tb2 2.374 . S
O14 C9 1.250 . S
O15 Tb0 2.353 . S
O15 C9 1.263 . S
C16 O17 1.275 . S
C16 O18 1.246 . S
O17 Tb0 2.427 . S
O17 C16 1.275 . S
O18 Tb0 2.513 . S
O18 C16 1.246 . S
C19 O3 1.245 1_655 S
C19 O4 1.259 1_655 S
Tb20 O23 2.453 . S
Tb20 O24 2.596 . S
Tb20 O25 2.374 . S
Tb20 O33 2.343 . S
Tb20 O35 2.353 . S
Tb20 O37 2.427 . S
Tb20 O38 2.513 . S
C21 O25 1.251 . S
C21 O27 1.263 . S
Tb22 O24 2.343 . S
Tb22 O27 2.353 . S
Tb22 O30 2.427 . S
Tb22 O31 2.513 . S
Tb22 O32 2.453 . S
Tb22 O33 2.596 . S
Tb22 O34 2.374 . S
O23 Tb20 2.453 . S
O23 C39 1.245 . S
O24 Tb20 2.596 . S
O24 Tb22 2.343 . S
O24 C39 1.259 . S
O25 Tb20 2.374 . S
O25 C21 1.251 . S
C26 O30 1.275 . S
C26 O31 1.246 . S
O27 C21 1.263 . S
O27 Tb22 2.353 . S
C28 O32 1.245 . S
C28 O33 1.259 . S
C29 O34 1.250 . S
C29 O35 1.263 . S
O30 Tb22 2.427 . S
O30 C26 1.275 . S
O31 Tb22 2.513 . S
O31 C26 1.246 . S
O32 Tb22 2.453 . S
O32 C28 1.245 . S
O33 Tb20 2.343 . S
O33 Tb22 2.596 . S
O33 C28 1.259 . S
O34 Tb22 2.374 . S
O34 C29 1.250 . S
O35 Tb20 2.353 . S
O35 C29 1.263 . S
C36 O37 1.275 . S
C36 O38 1.246 . S
O37 Tb20 2.427 . S
O37 C36 1.275 . S
O38 Tb20 2.513 . S
O38 C36 1.246 . S
C39 O23 1.245 . S
C39 O24 1.259 . S
Tb40 O43 2.453 . S
Tb40 O44 2.596 . S
Tb40 O45 2.374 . S
Tb40 O53 2.343 . S
Tb40 O55 2.353 . S
Tb40 O57 2.427 . S
Tb40 O58 2.513 . S
C41 O45 1.251 . S
C41 O47 1.263 . S
Tb42 O44 2.343 . S
Tb42 O47 2.353 . S
Tb42 O50 2.427 . S
Tb42 O51 2.513 . S
Tb42 O52 2.453 . S
Tb42 O53 2.596 . S
Tb42 O54 2.374 . S
O43 Tb40 2.453 . S
O43 C59 1.245 . S
O44 Tb40 2.596 . S
O44 Tb42 2.343 . S
O44 C59 1.259 . S
O45 Tb40 2.374 . S
O45 C41 1.251 . S
C46 O50 1.275 . S
C46 O51 1.246 . S
O47 C41 1.263 . S
O47 Tb42 2.353 . S
C48 O52 1.245 . S
C48 O53 1.259 . S
C49 O54 1.250 . S
C49 O55 1.263 . S
O50 Tb42 2.427 . S
O50 C46 1.275 . S
O51 Tb42 2.513 . S
O51 C46 1.246 . S
O52 Tb42 2.453 . S
O52 C48 1.245 . S
O53 Tb40 2.343 . S
O53 Tb42 2.596 . S
O53 C48 1.259 . S
O54 Tb42 2.374 . S
O54 C49 1.250 . S
O55 Tb40 2.353 . S
O55 C49 1.263 . S
C56 O57 1.275 . S
C56 O58 1.246 . S
O57 Tb40 2.427 . S
O57 C56 1.275 . S
O58 Tb40 2.513 . S
O58 C56 1.246 . S
C59 O43 1.245 . S
C59 O44 1.259 . S
Tb60 O63 2.453 . S
Tb60 O64 2.596 . S
Tb60 O65 2.374 . S
Tb60 O73 2.343 . S
Tb60 O75 2.353 . S
Tb60 O77 2.427 . S
Tb60 O78 2.513 . S
C61 O65 1.251 . S
C61 O67 1.263 . S
Tb62 O64 2.343 . S
Tb62 O67 2.353 . S
Tb62 O70 2.427 . S
Tb62 O71 2.513 1_554 S
Tb62 O72 2.453 . S
Tb62 O73 2.596 . S
Tb62 O74 2.374 . S
O63 Tb60 2.453 . S
O63 C79 1.245 . S
O64 Tb60 2.596 . S
O64 Tb62 2.343 . S
O64 C79 1.259 . S
O65 Tb60 2.374 . S
O65 C61 1.251 . S
C66 O70 1.275 1_556 S
C66 O71 1.246 . S
O67 C61 1.263 . S
O67 Tb62 2.353 . S
C68 O72 1.245 . S
C68 O73 1.259 . S
C69 O74 1.250 . S
C69 O75 1.263 . S
O70 Tb62 2.427 . S
O70 C66 1.275 1_554 S
O71 Tb62 2.513 1_556 S
O71 C66 1.246 . S
O72 Tb62 2.453 . S
O72 C68 1.245 . S
O73 Tb60 2.343 . S
O73 Tb62 2.596 . S
O73 C68 1.259 . S
O74 Tb62 2.374 . S
O74 C69 1.250 . S
O75 Tb60 2.353 . S
O75 C69 1.263 . S
C76 O77 1.275 . S
C76 O78 1.246 . S
O77 Tb60 2.427 . S
O77 C76 1.275 . S
O78 Tb60 2.513 . S
O78 C76 1.246 . S
C79 O63 1.245 . S
C79 O64 1.259 . S
Tb80 O83 2.453 . S
Tb80 O84 2.596 . S
Tb80 O85 2.374 . S
Tb80 O93 2.343 . S
Tb80 O95 2.353 . S
Tb80 O97 2.427 . S
Tb80 O98 2.513 . S
C81 O85 1.251 . S
C81 O87 1.263 . S
Tb82 O84 2.343 1_655 S
Tb82 O87 2.353 1_655 S
Tb82 O90 2.427 1_655 S
Tb82 O91 2.513 . S
Tb82 O92 2.453 . S
Tb82 O93 2.596 1_655 S
Tb82 O94 2.374 . S
O83 Tb80 2.453 . S
O83 C99 1.245 . S
O84 Tb80 2.596 . S
O84 Tb82 2.343 1_455 S
O84 C99 1.259 . S
O85 Tb80 2.374 . S
O85 C81 1.251 . S
C86 O90 1.275 . S
C86 O91 1.246 1_455 S
O87 C81 1.263 . S
O87 Tb82 2.353 1_455 S
C88 O92 1.245 . S
C88 O93 1.259 1_655 S
C89 O94 1.250 . S
C89 O95 1.263 1_655 S
O90 Tb82 2.427 1_455 S
O90 C86 1.275 . S
O91 Tb82 2.513 . S
O91 C86 1.246 1_655 S
O92 Tb82 2.453 . S
O92 C88 1.245 . S
O93 Tb80 2.343 . S
O93 Tb82 2.596 1_455 S
O93 C88 1.259 1_455 S
O94 Tb82 2.374 . S
O94 C89 1.250 . S
O95 Tb80 2.353 . S
O95 C89 1.263 1_455 S
C96 O97 1.275 . S
C96 O98 1.246 . S
O97 Tb80 2.427 . S
O97 C96 1.275 . S
O98 Tb80 2.513 . S
O98 C96 1.246 . S
C99 O83 1.245 . S
C99 O84 1.259 . S
Tb100 O103 2.453 . S
Tb100 O104 2.596 . S
Tb100 O105 2.374 . S
Tb100 O113 2.343 . S
Tb100 O115 2.353 . S
Tb100 O117 2.427 . S
Tb100 O118 2.513 . S
C101 O105 1.251 . S
C101 O107 1.263 . S
Tb102 O104 2.343 . S
Tb102 O107 2.353 . S
Tb102 O110 2.427 . S
Tb102 O111 2.513 . S
Tb102 O112 2.453 . S
Tb102 O113 2.596 . S
Tb102 O114 2.374 . S
O103 Tb100 2.453 . S
O103 C119 1.245 . S
O104 Tb100 2.596 . S
O104 Tb102 2.343 . S
O104 C119 1.259 . S
O105 Tb100 2.374 . S
O105 C101 1.251 . S
C106 O110 1.275 . S
C106 O111 1.246 . S
O107 C101 1.263 . S
O107 Tb102 2.353 . S
C108 O112 1.245 . S
C108 O113 1.259 . S
C109 O114 1.250 . S
C109 O115 1.263 . S
O110 Tb102 2.427 . S
O110 C106 1.275 . S
O111 Tb102 2.513 . S
O111 C106 1.246 . S
O112 Tb102 2.453 . S
O112 C108 1.245 . S
O113 Tb100 2.343 . S
O113 Tb102 2.596 . S
O113 C108 1.259 . S
O114 Tb102 2.374 . S
O114 C109 1.250 . S
O115 Tb100 2.353 . S
O115 C109 1.263 . S
C116 O117 1.275 . S
C116 O118 1.246 . S
O117 Tb100 2.427 . S
O117 C116 1.275 . S
O118 Tb100 2.513 . S
O118 C116 1.246 . S
C119 O103 1.245 . S
C119 O104 1.259 . S
Tb120 O123 2.453 . S
Tb120 O124 2.596 . S
Tb120 O125 2.374 . S
Tb120 O133 2.343 . S
Tb120 O135 2.353 . S
Tb120 O137 2.427 . S
Tb120 O138 2.513 . S
C121 O125 1.251 . S
C121 O127 1.263 . S
Tb122 O124 2.343 . S
Tb122 O127 2.353 . S
Tb122 O130 2.427 . S
Tb122 O131 2.513 . S
Tb122 O132 2.453 . S
Tb122 O133 2.596 . S
Tb122 O134 2.374 . S
O123 Tb120 2.453 . S
O123 C139 1.245 . S
O124 Tb120 2.596 . S
O124 Tb122 2.343 . S
O124 C139 1.259 . S
O125 Tb120 2.374 . S
O125 C121 1.251 . S
C126 O130 1.275 . S
C126 O131 1.246 . S
O127 C121 1.263 . S
O127 Tb122 2.353 . S
C128 O132 1.245 . S
C128 O133 1.259 . S
C129 O134 1.250 . S
C129 O135 1.263 . S
O130 Tb122 2.427 . S
O130 C126 1.275 . S
O131 Tb122 2.513 . S
O131 C126 1.246 . S
O132 Tb122 2.453 . S
O132 C128 1.245 . S
O133 Tb120 2.343 . S
O133 Tb122 2.596 . S
O133 C128 1.259 . S
O134 Tb122 2.374 . S
O134 C129 1.250 . S
O135 Tb120 2.353 . S
O135 C129 1.263 . S
C136 O137 1.275 . S
C136 O138 1.246 . S
O137 Tb120 2.427 . S
O137 C136 1.275 . S
O138 Tb120 2.513 . S
O138 C136 1.246 . S
C139 O123 1.245 . S
C139 O124 1.259 . S
Tb140 O143 2.453 . S
Tb140 O144 2.596 . S
Tb140 O145 2.374 . S
Tb140 O153 2.343 . S
Tb140 O155 2.353 . S
Tb140 O157 2.427 1_655 S
Tb140 O158 2.513 . S
C141 O145 1.251 . S
C141 O147 1.263 . S
Tb142 O144 2.343 . S
Tb142 O147 2.353 . S
Tb142 O150 2.427 . S
Tb142 O151 2.513 1_556 S
Tb142 O152 2.453 . S
Tb142 O153 2.596 . S
Tb142 O154 2.374 . S
O143 Tb140 2.453 . S
O143 C159 1.245 1_556 S
O144 Tb140 2.596 . S
O144 Tb142 2.343 . S
O144 C159 1.259 1_556 S
O145 Tb140 2.374 . S
O145 C141 1.251 . S
C146 O150 1.275 1_554 S
C146 O151 1.246 . S
O147 C141 1.263 . S
O147 Tb142 2.353 . S
C148 O152 1.245 . S
C148 O153 1.259 . S
C149 O154 1.250 . S
C149 O155 1.263 . S
O150 Tb142 2.427 . S
O150 C146 1.275 1_556 S
O151 Tb142 2.513 1_554 S
O151 C146 1.246 . S
O152 Tb142 2.453 . S
O152 C148 1.245 . S
O153 Tb140 2.343 . S
O153 Tb142 2.596 . S
O153 C148 1.259 . S
O154 Tb142 2.374 . S
O154 C149 1.250 . S
O155 Tb140 2.353 . S
O155 C149 1.263 . S
C156 O157 1.275 1_655 S
C156 O158 1.246 . S
O157 Tb140 2.427 1_455 S
O157 C156 1.275 1_455 S
O158 Tb140 2.513 . S
O158 C156 1.246 . S
C159 O143 1.245 1_554 S
C159 O144 1.259 1_554 S
Tb160 O163 2.453 1_545 S
Tb160 O164 2.596 1_545 S
Tb160 O165 2.374 . S
Tb160 O173 2.343 . S
Tb160 O175 2.353 1_545 S
Tb160 O177 2.427 . S
Tb160 O178 2.513 . S
C161 O165 1.251 . S
C161 O167 1.263 . S
Tb162 O164 2.343 1_545 S
Tb162 O167 2.353 . S
Tb162 O170 2.427 1_545 S
Tb162 O171 2.513 1_545 S
Tb162 O172 2.453 . S
Tb162 O173 2.596 . S
Tb162 O174 2.374 1_545 S
O163 Tb160 2.453 1_565 S
O163 C179 1.245 . S
O164 Tb160 2.596 1_565 S
O164 Tb162 2.343 1_565 S
O164 C179 1.259 . S
O165 Tb160 2.374 . S
O165 C161 1.251 . S
C166 O170 1.275 . S
C166 O171 1.246 . S
O167 C161 1.263 . S
O167 Tb162 2.353 . S
C168 O172 1.245 . S
C168 O173 1.259 . S
C169 O174 1.250 . S
C169 O175 1.263 . S
O170 Tb162 2.427 1_565 S
O170 C166 1.275 . S
O171 Tb162 2.513 1_565 S
O171 C166 1.246 . S
O172 Tb162 2.453 . S
O172 C168 1.245 . S
O173 Tb160 2.343 . S
O173 Tb162 2.596 . S
O173 C168 1.259 . S
O174 Tb162 2.374 1_565 S
O174 C169 1.250 . S
O175 Tb160 2.353 1_565 S
O175 C169 1.263 . S
C176 O177 1.275 . S
C176 O178 1.246 . S
O177 Tb160 2.427 . S
O177 C176 1.275 . S
O178 Tb160 2.513 . S
O178 C176 1.246 . S
C179 O163 1.245 . S
C179 O164 1.259 . S
Tb180 O183 2.453 1_545 S
Tb180 O184 2.596 1_545 S
Tb180 O185 2.374 . S
Tb180 O193 2.343 . S
Tb180 O195 2.353 1_545 S
Tb180 O197 2.427 . S
Tb180 O198 2.513 . S
C181 O185 1.251 . S
C181 O187 1.263 . S
Tb182 O184 2.343 1_545 S
Tb182 O187 2.353 . S
Tb182 O190 2.427 1_545 S
Tb182 O191 2.513 1_545 S
Tb182 O192 2.453 . S
Tb182 O193 2.596 . S
Tb182 O194 2.374 1_545 S
O183 Tb180 2.453 1_565 S
O183 C199 1.245 . S
O184 Tb180 2.596 1_565 S
O184 Tb182 2.343 1_565 S
O184 C199 1.259 . S
O185 Tb180 2.374 . S
O185 C181 1.251 . S
C186 O190 1.275 . S
C186 O191 1.246 . S
O187 C181 1.263 . S
O187 Tb182 2.353 . S
C188 O192 1.245 . S
C188 O193 1.259 . S
C189 O194 1.250 . S
C189 O195 1.263 . S
O190 Tb182 2.427 1_565 S
O190 C186 1.275 . S
O191 Tb182 2.513 1_565 S
O191 C186 1.246 . S
O192 Tb182 2.453 . S
O192 C188 1.245 . S
O193 Tb180 2.343 . S
O193 Tb182 2.596 . S
O193 C188 1.259 . S
O194 Tb182 2.374 1_565 S
O194 C189 1.250 . S
O195 Tb180 2.353 1_565 S
O195 C189 1.263 . S
C196 O197 1.275 . S
C196 O198 1.246 . S
O197 Tb180 2.427 . S
O197 C196 1.275 . S
O198 Tb180 2.513 . S
O198 C196 1.246 . S
C199 O183 1.245 . S
C199 O184 1.259 . S
Tb200 O203 2.453 1_565 S
Tb200 O204 2.596 . S
Tb200 O205 2.374 . S
Tb200 O213 2.343 . S
Tb200 O215 2.353 . S
Tb200 O217 2.427 . S
Tb200 O218 2.513 . S
C201 O205 1.251 . S
C201 O207 1.263 . S
Tb202 O204 2.343 . S
Tb202 O207 2.353 . S
Tb202 O210 2.427 . S
Tb202 O211 2.513 1_565 S
Tb202 O212 2.453 . S
Tb202 O213 2.596 . S
Tb202 O214 2.374 . S
O203 Tb200 2.453 1_545 S
O203 C219 1.245 . S
O204 Tb200 2.596 . S
O204 Tb202 2.343 . S
O204 C219 1.259 1_565 S
O205 Tb200 2.374 . S
O205 C201 1.251 . S
C206 O210 1.275 1_545 S
C206 O211 1.246 . S
O207 C201 1.263 . S
O207 Tb202 2.353 . S
C208 O212 1.245 . S
C208 O213 1.259 . S
C209 O214 1.250 . S
C209 O215 1.263 . S
O210 Tb202 2.427 . S
O210 C206 1.275 1_565 S
O211 Tb202 2.513 1_545 S
O211 C206 1.246 . S
O212 Tb202 2.453 . S
O212 C208 1.245 . S
O213 Tb200 2.343 . S
O213 Tb202 2.596 . S
O213 C208 1.259 . S
O214 Tb202 2.374 . S
O214 C209 1.250 . S
O215 Tb200 2.353 . S
O215 C209 1.263 . S
C216 O217 1.275 . S
C216 O218 1.246 . S
O217 Tb200 2.427 . S
O217 C216 1.275 . S
O218 Tb200 2.513 . S
O218 C216 1.246 . S
C219 O203 1.245 . S
C219 O204 1.259 1_545 S
Tb220 O223 2.453 1_565 S
Tb220 O224 2.596 . S
Tb220 O225 2.374 . S
Tb220 O233 2.343 . S
Tb220 O235 2.353 . S
Tb220 O237 2.427 1_554 S
Tb220 O238 2.513 . S
C221 O225 1.251 . S
C221 O227 1.263 . S
Tb222 O224 2.343 . S
Tb222 O227 2.353 . S
Tb222 O230 2.427 . S
Tb222 O231 2.513 1_565 S
Tb222 O232 2.453 . S
Tb222 O233 2.596 . S
Tb222 O234 2.374 . S
O223 Tb220 2.453 1_545 S
O223 C239 1.245 . S
O224 Tb220 2.596 . S
O224 Tb222 2.343 . S
O224 C239 1.259 1_565 S
O225 Tb220 2.374 . S
O225 C221 1.251 . S
C226 O230 1.275 1_545 S
C226 O231 1.246 . S
O227 C221 1.263 . S
O227 Tb222 2.353 . S
C228 O232 1.245 . S
C228 O233 1.259 . S
C229 O234 1.250 . S
C229 O235 1.263 . S
O230 Tb222 2.427 . S
O230 C226 1.275 1_565 S
O231 Tb222 2.513 1_545 S
O231 C226 1.246 . S
O232 Tb222 2.453 . S
O232 C228 1.245 . S
O233 Tb220 2.343 . S
O233 Tb222 2.596 . S
O233 C228 1.259 . S
O234 Tb222 2.374 . S
O234 C229 1.250 . S
O235 Tb220 2.353 . S
O235 C229 1.263 . S
C236 O237 1.275 1_554 S
C236 O238 1.246 . S
O237 Tb220 2.427 1_556 S
O237 C236 1.275 1_556 S
O238 Tb220 2.513 . S
O238 C236 1.246 . S
C239 O223 1.245 . S
C239 O224 1.259 1_545 S
Tb240 O243 2.453 . S
Tb240 O244 2.596 . S
Tb240 O245 2.374 . S
Tb240 O253 2.343 . S
Tb240 O255 2.353 . S
Tb240 O257 2.427 . S
Tb240 O258 2.513 . S
C241 O245 1.251 . S
C241 O247 1.263 . S
Tb242 O244 2.343 . S
Tb242 O247 2.353 . S
Tb242 O250 2.427 . S
Tb242 O251 2.513 . S
Tb242 O252 2.453 1_554 S
Tb242 O253 2.596 . S
Tb242 O254 2.374 1_554 S
O243 Tb240 2.453 . S
O243 C259 1.245 . S
O244 Tb240 2.596 . S
O244 Tb242 2.343 . S
O244 C259 1.259 . S
O245 Tb240 2.374 . S
O245 C241 1.251 . S
C246 O250 1.275 . S
C246 O251 1.246 . S
O247 C241 1.263 . S
O247 Tb242 2.353 . S
C248 O252 1.231 1_554 S
C248 O253 1.279 . S
C249 O254 1.250 1_554 S
C249 O255 1.263 . S
O250 Tb242 2.427 . S
O250 C246 1.275 . S
O251 Tb242 2.513 . S
O251 C246 1.246 . S
O252 Tb242 2.453 1_556 S
O252 C248 1.231 1_556 S
O253 Tb240 2.343 . S
O253 Tb242 2.596 . S
O253 C248 1.279 . S
O254 Tb242 2.374 1_556 S
O254 C249 1.250 1_556 S
O255 Tb240 2.353 . S
O255 C249 1.263 . S
C256 O257 1.275 . S
C256 O258 1.246 . S
O257 Tb240 2.427 . S
O257 C256 1.275 . S
O258 Tb240 2.513 . S
O258 C256 1.246 . S
C259 O243 1.245 . S
C259 O244 1.259 . S
Tb260 O263 2.453 . S
Tb260 O264 2.596 . S
Tb260 O265 2.374 . S
Tb260 O273 2.343 . S
Tb260 O275 2.353 . S
Tb260 O277 2.427 . S
Tb260 O278 2.513 . S
C261 O265 1.251 . S
C261 O267 1.263 . S
Tb262 O264 2.343 . S
Tb262 O267 2.353 . S
Tb262 O270 2.427 . S
Tb262 O271 2.513 1_655 S
Tb262 O272 2.453 1_655 S
Tb262 O273 2.596 . S
Tb262 O274 2.374 1_655 S
O263 Tb260 2.453 . S
O263 C279 1.245 . S
O264 Tb260 2.596 . S
O264 Tb262 2.343 . S
O264 C279 1.259 . S
O265 Tb260 2.374 . S
O265 C261 1.251 . S
C266 O270 1.275 . S
C266 O271 1.246 1_655 S
O267 C261 1.263 . S
O267 Tb262 2.353 . S
C268 O272 1.230 1_655 S
C268 O273 1.279 . S
C269 O274 1.250 1_655 S
C269 O275 1.263 . S
O270 Tb262 2.427 . S
O270 C266 1.275 . S
O271 Tb262 2.513 1_455 S
O271 C266 1.246 1_455 S
O272 Tb262 2.453 1_455 S
O272 C268 1.230 1_455 S
O273 Tb260 2.343 . S
O273 Tb262 2.596 . S
O273 C268 1.279 . S
O274 Tb262 2.374 1_455 S
O274 C269 1.250 1_455 S
O275 Tb260 2.353 . S
O275 C269 1.263 . S
C276 O277 1.275 . S
C276 O278 1.246 . S
O277 Tb260 2.427 . S
O277 C276 1.275 . S
O278 Tb260 2.513 . S
O278 C276 1.246 . S
C279 O263 1.245 . S
C279 O264 1.259 . S
Tb280 O283 2.453 . S
Tb280 O284 2.596 . S
Tb280 O285 2.374 . S
Tb280 O293 2.343 . S
Tb280 O295 2.353 . S
Tb280 O297 2.427 . S
Tb280 O298 2.513 . S
C281 O285 1.251 . S
C281 O287 1.263 . S
Tb282 O284 2.343 . S
Tb282 O287 2.353 . S
Tb282 O290 2.427 . S
Tb282 O291 2.513 . S
Tb282 O292 2.453 . S
Tb282 O293 2.596 . S
Tb282 O294 2.374 . S
O283 Tb280 2.453 . S
O283 C299 1.245 . S
O284 Tb280 2.596 . S
O284 Tb282 2.343 . S
O284 C299 1.259 . S
O285 Tb280 2.374 . S
O285 C281 1.251 . S
C286 O290 1.275 . S
C286 O291 1.246 . S
O287 C281 1.263 . S
O287 Tb282 2.353 . S
C288 O292 1.245 . S
C288 O293 1.259 . S
C289 O294 1.250 . S
C289 O295 1.263 . S
O290 Tb282 2.427 . S
O290 C286 1.275 . S
O291 Tb282 2.513 . S
O291 C286 1.246 . S
O292 Tb282 2.453 . S
O292 C288 1.245 . S
O293 Tb280 2.343 . S
O293 Tb282 2.596 . S
O293 C288 1.259 . S
O294 Tb282 2.374 . S
O294 C289 1.250 . S
O295 Tb280 2.353 . S
O295 C289 1.263 . S
C296 O297 1.275 . S
C296 O298 1.246 . S
O297 Tb280 2.427 . S
O297 C296 1.275 . S
O298 Tb280 2.513 . S
O298 C296 1.246 . S
C299 O283 1.245 . S
C299 O284 1.259 . S
Tb300 O303 2.453 . S
Tb300 O304 2.596 . S
Tb300 O305 2.374 . S
Tb300 O313 2.343 . S
Tb300 O315 2.353 . S
Tb300 O317 2.427 . S
Tb300 O318 2.513 1_655 S
C301 O305 1.251 . S
C301 O307 1.263 . S
Tb302 O304 2.343 . S
Tb302 O307 2.353 . S
Tb302 O310 2.427 . S
Tb302 O311 2.513 . S
Tb302 O312 2.453 . S
Tb302 O313 2.596 . S
Tb302 O314 2.374 . S
O303 Tb300 2.453 . S
O303 C319 1.245 . S
O304 Tb300 2.596 . S
O304 Tb302 2.343 . S
O304 C319 1.259 . S
O305 Tb300 2.374 . S
O305 C301 1.251 . S
C306 O310 1.275 . S
C306 O311 1.246 . S
O307 C301 1.263 . S
O307 Tb302 2.353 . S
C308 O312 1.245 1_455 S
C308 O313 1.259 1_455 S
C309 O314 1.250 . S
C309 O315 1.263 . S
O310 Tb302 2.427 . S
O310 C306 1.275 . S
O311 Tb302 2.513 . S
O311 C306 1.246 . S
O312 Tb302 2.453 . S
O312 C308 1.245 1_655 S
O313 Tb300 2.343 . S
O313 Tb302 2.596 . S
O313 C308 1.259 1_655 S
O314 Tb302 2.374 . S
O314 C309 1.250 . S
O315 Tb300 2.353 . S
O315 C309 1.263 . S
C316 O317 1.275 1_455 S
C316 O318 1.246 . S
O317 Tb300 2.427 . S
O317 C316 1.275 1_655 S
O318 Tb300 2.513 1_455 S
O318 C316 1.246 . S
C319 O303 1.245 . S
C319 O304 1.259 . S
Tb320 O323 2.453 . S
Tb320 O324 2.596 . S
Tb320 O325 2.374 . S
Tb320 O333 2.343 . S
Tb320 O335 2.353 . S
Tb320 O337 2.427 . S
Tb320 O338 2.513 . S
C321 O325 1.251 . S
C321 O327 1.263 . S
Tb322 O324 2.343 . S
Tb322 O327 2.353 . S
Tb322 O330 2.427 . S
Tb322 O331 2.513 . S
Tb322 O332 2.453 . S
Tb322 O333 2.596 . S
Tb322 O334 2.374 . S
O323 Tb320 2.453 . S
O323 C339 1.245 . S
O324 Tb320 2.596 . S
O324 Tb322 2.343 . S
O324 C339 1.259 . S
O325 Tb320 2.374 . S
O325 C321 1.251 . S
C326 O330 1.275 . S
C326 O331 1.246 . S
O327 C321 1.263 . S
O327 Tb322 2.353 . S
C328 O332 1.245 . S
C328 O333 1.259 . S
C329 O334 1.250 . S
C329 O335 1.263 . S
O330 Tb322 2.427 . S
O330 C326 1.275 . S
O331 Tb322 2.513 . S
O331 C326 1.246 . S
O332 Tb322 2.453 . S
O332 C328 1.245 . S
O333 Tb320 2.343 . S
O333 Tb322 2.596 . S
O333 C328 1.259 . S
O334 Tb322 2.374 . S
O334 C329 1.250 . S
O335 Tb320 2.353 . S
O335 C329 1.263 . S
C336 O337 1.275 . S
C336 O338 1.246 . S
O337 Tb320 2.427 . S
O337 C336 1.275 . S
O338 Tb320 2.513 . S
O338 C336 1.246 . S
C339 O323 1.245 . S
C339 O324 1.259 . S
Tb340 O343 2.453 . S
Tb340 O344 2.596 . S
Tb340 O345 2.374 . S
Tb340 O353 2.343 . S
Tb340 O355 2.353 . S
Tb340 O357 2.427 . S
Tb340 O358 2.513 . S
C341 O345 1.251 . S
C341 O347 1.263 . S
Tb342 O344 2.343 . S
Tb342 O347 2.353 . S
Tb342 O350 2.427 . S
Tb342 O351 2.513 . S
Tb342 O352 2.453 . S
Tb342 O353 2.596 . S
Tb342 O354 2.374 . S
O343 Tb340 2.453 . S
O343 C359 1.245 . S
O344 Tb340 2.596 . S
O344 Tb342 2.343 . S
O344 C359 1.259 . S
O345 Tb340 2.374 . S
O345 C341 1.251 . S
C346 O350 1.275 . S
C346 O351 1.246 . S
O347 C341 1.263 . S
O347 Tb342 2.353 . S
C348 O352 1.245 . S
C348 O353 1.259 . S
C349 O354 1.250 . S
C349 O355 1.263 . S
O350 Tb342 2.427 . S
O350 C346 1.275 . S
O351 Tb342 2.513 . S
O351 C346 1.246 . S
O352 Tb342 2.453 . S
O352 C348 1.245 . S
O353 Tb340 2.343 . S
O353 Tb342 2.596 . S
O353 C348 1.259 . S
O354 Tb342 2.374 . S
O354 C349 1.250 . S
O355 Tb340 2.353 . S
O355 C349 1.263 . S
C356 O357 1.275 . S
C356 O358 1.246 . S
O357 Tb340 2.427 . S
O357 C356 1.275 . S
O358 Tb340 2.513 . S
O358 C356 1.246 . S
C359 O343 1.245 . S
C359 O344 1.259 . S
Tb360 O363 2.453 . S
Tb360 O364 2.596 . S
Tb360 O365 2.374 . S
Tb360 O373 2.343 . S
Tb360 O375 2.353 . S
Tb360 O377 2.427 . S
Tb360 O378 2.513 1_556 S
C361 O365 1.251 . S
C361 O367 1.263 . S
Tb362 O364 2.343 . S
Tb362 O367 2.353 . S
Tb362 O370 2.427 . S
Tb362 O371 2.513 . S
Tb362 O372 2.453 . S
Tb362 O373 2.596 . S
Tb362 O374 2.374 . S
O363 Tb360 2.453 . S
O363 C379 1.245 . S
O364 Tb360 2.596 . S
O364 Tb362 2.343 . S
O364 C379 1.259 . S
O365 Tb360 2.374 . S
O365 C361 1.251 . S
C366 O370 1.275 . S
C366 O371 1.246 . S
O367 C361 1.263 . S
O367 Tb362 2.353 . S
C368 O372 1.245 . S
C368 O373 1.259 . S
C369 O374 1.250 . S
C369 O375 1.263 . S
O370 Tb362 2.427 . S
O370 C366 1.275 . S
O371 Tb362 2.513 . S
O371 C366 1.246 . S
O372 Tb362 2.453 . S
O372 C368 1.245 . S
O373 Tb360 2.343 . S
O373 Tb362 2.596 . S
O373 C368 1.259 . S
O374 Tb362 2.374 . S
O374 C369 1.250 . S
O375 Tb360 2.353 . S
O375 C369 1.263 . S
C376 O377 1.275 1_554 S
C376 O378 1.246 . S
O377 Tb360 2.427 . S
O377 C376 1.275 1_556 S
O378 Tb360 2.513 1_554 S
O378 C376 1.246 . S
C379 O363 1.245 . S
C379 O364 1.259 . S
Tb380 O383 2.453 . S
Tb380 O384 2.596 1_455 S
Tb380 O385 2.374 . S
Tb380 O393 2.343 1_455 S
Tb380 O395 2.353 1_455 S
Tb380 O397 2.427 1_455 S
Tb380 O398 2.513 . S
C381 O385 1.251 . S
C381 O387 1.263 1_455 S
Tb382 O384 2.343 . S
Tb382 O387 2.353 . S
Tb382 O390 2.427 . S
Tb382 O391 2.513 . S
Tb382 O392 2.453 . S
Tb382 O393 2.596 . S
Tb382 O394 2.374 . S
O383 Tb380 2.453 . S
O383 C399 1.245 . S
O384 Tb380 2.596 1_655 S
O384 Tb382 2.343 . S
O384 C399 1.259 1_655 S
O385 Tb380 2.374 . S
O385 C381 1.251 . S
C386 O390 1.275 . S
C386 O391 1.246 . S
O387 C381 1.263 1_655 S
O387 Tb382 2.353 . S
C388 O392 1.245 . S
C388 O393 1.259 . S
C389 O394 1.250 . S
C389 O395 1.263 . S
O390 Tb382 2.427 . S
O390 C386 1.275 . S
O391 Tb382 2.513 . S
O391 C386 1.246 . S
O392 Tb382 2.453 . S
O392 C388 1.245 . S
O393 Tb380 2.343 1_655 S
O393 Tb382 2.596 . S
O393 C388 1.259 . S
O394 Tb382 2.374 . S
O394 C389 1.250 . S
O395 Tb380 2.353 1_655 S
O395 C389 1.263 . S
C396 O397 1.275 . S
C396 O398 1.246 1_655 S
O397 Tb380 2.427 1_655 S
O397 C396 1.275 . S
O398 Tb380 2.513 . S
O398 C396 1.246 1_455 S
C399 O383 1.245 . S
C399 O384 1.259 1_455 S
Tb400 O403 2.453 . S
Tb400 O404 2.596 . S
Tb400 O405 2.374 . S
Tb400 O413 2.343 . S
Tb400 O415 2.353 . S
Tb400 O417 2.427 . S
Tb400 O418 2.513 . S
C401 O405 1.251 . S
C401 O407 1.263 . S
Tb402 O404 2.343 . S
Tb402 O407 2.353 . S
Tb402 O410 2.427 . S
Tb402 O411 2.513 . S
Tb402 O412 2.453 . S
Tb402 O413 2.596 . S
Tb402 O414 2.374 . S
O403 Tb400 2.453 . S
O403 C419 1.245 . S
O404 Tb400 2.596 . S
O404 Tb402 2.343 . S
O404 C419 1.259 . S
O405 Tb400 2.374 . S
O405 C401 1.251 . S
C406 O410 1.275 . S
C406 O411 1.246 . S
O407 C401 1.263 . S
O407 Tb402 2.353 . S
C408 O412 1.245 . S
C408 O413 1.259 . S
C409 O414 1.250 . S
C409 O415 1.263 . S
O410 Tb402 2.427 . S
O410 C406 1.275 . S
O411 Tb402 2.513 . S
O411 C406 1.246 . S
O412 Tb402 2.453 . S
O412 C408 1.245 . S
O413 Tb400 2.343 . S
O413 Tb402 2.596 . S
O413 C408 1.259 . S
O414 Tb402 2.374 . S
O414 C409 1.250 . S
O415 Tb400 2.353 . S
O415 C409 1.263 . S
C416 O417 1.275 . S
C416 O418 1.246 . S
O417 Tb400 2.427 . S
O417 C416 1.275 . S
O418 Tb400 2.513 . S
O418 C416 1.246 . S
C419 O403 1.245 . S
C419 O404 1.259 . S
Tb420 O423 2.453 . S
Tb420 O424 2.596 . S
Tb420 O425 2.374 . S
Tb420 O433 2.343 . S
Tb420 O435 2.353 . S
Tb420 O437 2.427 . S
Tb420 O438 2.513 . S
C421 O425 1.251 . S
C421 O427 1.263 . S
Tb422 O424 2.343 . S
Tb422 O427 2.353 . S
Tb422 O430 2.427 . S
Tb422 O431 2.513 . S
Tb422 O432 2.453 . S
Tb422 O433 2.596 . S
Tb422 O434 2.374 . S
O423 Tb420 2.453 . S
O423 C439 1.245 . S
O424 Tb420 2.596 . S
O424 Tb422 2.343 . S
O424 C439 1.259 . S
O425 Tb420 2.374 . S
O425 C421 1.251 . S
C426 O430 1.275 . S
C426 O431 1.246 . S
O427 C421 1.263 . S
O427 Tb422 2.353 . S
C428 O432 1.245 . S
C428 O433 1.259 . S
C429 O434 1.250 . S
C429 O435 1.263 . S
O430 Tb422 2.427 . S
O430 C426 1.275 . S
O431 Tb422 2.513 . S
O431 C426 1.246 . S
O432 Tb422 2.453 . S
O432 C428 1.245 . S
O433 Tb420 2.343 . S
O433 Tb422 2.596 . S
O433 C428 1.259 . S
O434 Tb422 2.374 . S
O434 C429 1.250 . S
O435 Tb420 2.353 . S
O435 C429 1.263 . S
C436 O437 1.275 . S
C436 O438 1.246 . S
O437 Tb420 2.427 . S
O437 C436 1.275 . S
O438 Tb420 2.513 . S
O438 C436 1.246 . S
C439 O423 1.245 . S
C439 O424 1.259 . S
Tb440 O443 2.453 . S
Tb440 O444 2.596 . S
Tb440 O445 2.374 . S
Tb440 O453 2.343 . S
Tb440 O455 2.353 . S
Tb440 O457 2.427 . S
Tb440 O458 2.513 1_554 S
C441 O445 1.251 . S
C441 O447 1.263 . S
Tb442 O444 2.343 . S
Tb442 O447 2.353 . S
Tb442 O450 2.427 1_455 S
Tb442 O451 2.513 . S
Tb442 O452 2.453 . S
Tb442 O453 2.596 . S
Tb442 O454 2.374 . S
O443 Tb440 2.453 . S
O443 C459 1.245 . S
O444 Tb440 2.596 . S
O444 Tb442 2.343 . S
O444 C459 1.259 . S
O445 Tb440 2.374 . S
O445 C441 1.251 . S
C446 O450 1.275 1_455 S
C446 O451 1.246 . S
O447 C441 1.263 . S
O447 Tb442 2.353 . S
C448 O452 1.245 1_556 S
C448 O453 1.259 1_556 S
C449 O454 1.250 . S
C449 O455 1.263 . S
O450 Tb442 2.427 1_655 S
O450 C446 1.275 1_655 S
O451 Tb442 2.513 . S
O451 C446 1.246 . S
O452 Tb442 2.453 . S
O452 C448 1.245 1_554 S
O453 Tb440 2.343 . S
O453 Tb442 2.596 . S
O453 C448 1.259 1_554 S
O454 Tb442 2.374 . S
O454 C449 1.250 . S
O455 Tb440 2.353 . S
O455 C449 1.263 . S
C456 O457 1.275 1_556 S
C456 O458 1.246 . S
O457 Tb440 2.427 . S
O457 C456 1.275 1_554 S
O458 Tb440 2.513 1_556 S
O458 C456 1.246 . S
C459 O443 1.245 . S
C459 O444 1.259 . S
Tb460 O463 2.453 . S
Tb460 O464 2.596 . S
Tb460 O465 2.374 1_565 S
Tb460 O473 2.343 1_565 S
Tb460 O475 2.353 . S
Tb460 O477 2.427 1_565 S
Tb460 O478 2.513 1_565 S
C461 O465 1.251 . S
C461 O467 1.263 . S
Tb462 O464 2.343 . S
Tb462 O467 2.353 1_565 S
Tb462 O470 2.427 . S
Tb462 O471 2.513 . S
Tb462 O472 2.453 1_565 S
Tb462 O473 2.596 1_565 S
Tb462 O474 2.374 . S
O463 Tb460 2.453 . S
O463 C479 1.245 . S
O464 Tb460 2.596 . S
O464 Tb462 2.343 . S
O464 C479 1.259 . S
O465 Tb460 2.374 1_545 S
O465 C461 1.251 . S
C466 O470 1.275 . S
C466 O471 1.246 . S
O467 C461 1.263 . S
O467 Tb462 2.353 1_545 S
C468 O472 1.245 . S
C468 O473 1.259 . S
C469 O474 1.250 . S
C469 O475 1.263 . S
O470 Tb462 2.427 . S
O470 C466 1.275 . S
O471 Tb462 2.513 . S
O471 C466 1.246 . S
O472 Tb462 2.453 1_545 S
O472 C468 1.245 . S
O473 Tb460 2.343 1_545 S
O473 Tb462 2.596 1_545 S
O473 C468 1.259 . S
O474 Tb462 2.374 . S
O474 C469 1.250 . S
O475 Tb460 2.353 . S
O475 C469 1.263 . S
C476 O477 1.275 . S
C476 O478 1.246 . S
O477 Tb460 2.427 1_545 S
O477 C476 1.275 . S
O478 Tb460 2.513 1_545 S
O478 C476 1.246 . S
C479 O463 1.245 . S
C479 O464 1.259 . S
Tb480 O483 2.453 . S
Tb480 O484 2.596 . S
Tb480 O485 2.374 1_565 S
Tb480 O493 2.343 1_565 S
Tb480 O495 2.353 . S
Tb480 O497 2.427 1_565 S
Tb480 O498 2.513 1_565 S
C481 O485 1.251 . S
C481 O487 1.263 . S
Tb482 O484 2.343 . S
Tb482 O487 2.353 1_565 S
Tb482 O490 2.427 . S
Tb482 O491 2.513 . S
Tb482 O492 2.453 1_565 S
Tb482 O493 2.596 1_565 S
Tb482 O494 2.374 . S
O483 Tb480 2.453 . S
O483 C499 1.245 . S
O484 Tb480 2.596 . S
O484 Tb482 2.343 . S
O484 C499 1.259 . S
O485 Tb480 2.374 1_545 S
O485 C481 1.251 . S
C486 O490 1.275 . S
C486 O491 1.246 . S
O487 C481 1.263 . S
O487 Tb482 2.353 1_545 S
C488 O492 1.245 . S
C488 O493 1.259 . S
C489 O494 1.250 . S
C489 O495 1.263 . S
O490 Tb482 2.427 . S
O490 C486 1.275 . S
O491 Tb482 2.513 . S
O491 C486 1.246 . S
O492 Tb482 2.453 1_545 S
O492 C488 1.245 . S
O493 Tb480 2.343 1_545 S
O493 Tb482 2.596 1_545 S
O493 C488 1.259 . S
O494 Tb482 2.374 . S
O494 C489 1.250 . S
O495 Tb480 2.353 . S
O495 C489 1.263 . S
C496 O497 1.275 . S
C496 O498 1.246 . S
O497 Tb480 2.427 1_545 S
O497 C496 1.275 . S
O498 Tb480 2.513 1_545 S
O498 C496 1.246 . S
C499 O483 1.245 . S
C499 O484 1.259 . S
Tb500 O503 2.453 . S
Tb500 O504 2.596 . S
Tb500 O505 2.374 . S
Tb500 O513 2.343 . S
Tb500 O515 2.353 . S
Tb500 O517 2.427 . S
Tb500 O518 2.513 1_545 S
C501 O505 1.251 . S
C501 O507 1.263 . S
Tb502 O504 2.343 . S
Tb502 O507 2.353 . S
Tb502 O510 2.427 . S
Tb502 O511 2.513 . S
Tb502 O512 2.453 1_545 S
Tb502 O513 2.596 . S
Tb502 O514 2.374 . S
O503 Tb500 2.453 . S
O503 C519 1.245 . S
O504 Tb500 2.596 . S
O504 Tb502 2.343 . S
O504 C519 1.259 . S
O505 Tb500 2.374 . S
O505 C501 1.251 . S
C506 O510 1.275 . S
C506 O511 1.246 . S
O507 C501 1.263 . S
O507 Tb502 2.353 . S
C508 O512 1.245 . S
C508 O513 1.259 1_565 S
C509 O514 1.250 . S
C509 O515 1.263 . S
O510 Tb502 2.427 . S
O510 C506 1.275 . S
O511 Tb502 2.513 . S
O511 C506 1.246 . S
O512 Tb502 2.453 1_565 S
O512 C508 1.245 . S
O513 Tb500 2.343 . S
O513 Tb502 2.596 . S
O513 C508 1.259 1_545 S
O514 Tb502 2.374 . S
O514 C509 1.250 . S
O515 Tb500 2.353 . S
O515 C509 1.263 . S
C516 O517 1.275 1_565 S
C516 O518 1.246 . S
O517 Tb500 2.427 . S
O517 C516 1.275 1_545 S
O518 Tb500 2.513 1_565 S
O518 C516 1.246 . S
C519 O503 1.245 . S
C519 O504 1.259 . S
Tb520 O523 2.453 . S
Tb520 O524 2.596 . S
Tb520 O525 2.374 . S
Tb520 O533 2.343 . S
Tb520 O535 2.353 . S
Tb520 O537 2.427 . S
Tb520 O538 2.513 1_545 S
C521 O525 1.251 . S
C521 O527 1.263 . S
Tb522 O524 2.343 . S
Tb522 O527 2.353 . S
Tb522 O530 2.427 1_556 S
Tb522 O531 2.513 . S
Tb522 O532 2.453 1_545 S
Tb522 O533 2.596 . S
Tb522 O534 2.374 . S
O523 Tb520 2.453 . S
O523 C539 1.245 . S
O524 Tb520 2.596 . S
O524 Tb522 2.343 . S
O524 C539 1.259 . S
O525 Tb520 2.374 . S
O525 C521 1.251 . S
C526 O530 1.275 1_556 S
C526 O531 1.246 . S
O527 C521 1.263 . S
O527 Tb522 2.353 . S
C528 O532 1.245 . S
C528 O533 1.259 1_565 S
C529 O534 1.250 . S
C529 O535 1.263 . S
O530 Tb522 2.427 1_554 S
O530 C526 1.275 1_554 S
O531 Tb522 2.513 . S
O531 C526 1.246 . S
O532 Tb522 2.453 1_565 S
O532 C528 1.245 . S
O533 Tb520 2.343 . S
O533 Tb522 2.596 . S
O533 C528 1.259 1_545 S
O534 Tb522 2.374 . S
O534 C529 1.250 . S
O535 Tb520 2.353 . S
O535 C529 1.263 . S
C536 O537 1.275 1_565 S
C536 O538 1.246 . S
O537 Tb520 2.427 . S
O537 C536 1.275 1_545 S
O538 Tb520 2.513 1_565 S
O538 C536 1.246 . S
C539 O523 1.245 . S
C539 O524 1.259 . S
Tb540 O543 2.453 1_556 S
Tb540 O544 2.596 . S
Tb540 O545 2.374 1_556 S
Tb540 O553 2.343 . S
Tb540 O555 2.353 . S
Tb540 O557 2.427 . S
Tb540 O558 2.513 . S
C541 O545 1.251 1_556 S
C541 O547 1.263 . S
Tb542 O544 2.343 . S
Tb542 O547 2.353 . S
Tb542 O550 2.427 . S
Tb542 O551 2.513 . S
Tb542 O552 2.453 . S
Tb542 O553 2.596 . S
Tb542 O554 2.374 . S
O543 Tb540 2.453 1_554 S
O543 C559 1.231 1_554 S
O544 Tb540 2.596 . S
O544 Tb542 2.343 . S
O544 C559 1.279 . S
O545 Tb540 2.374 1_554 S
O545 C541 1.251 1_554 S
C546 O550 1.275 . S
C546 O551 1.246 . S
O547 C541 1.263 . S
O547 Tb542 2.353 . S
C548 O552 1.245 . S
C548 O553 1.259 . S
C549 O554 1.250 . S
C549 O555 1.263 . S
O550 Tb542 2.427 . S
O550 C546 1.275 . S
O551 Tb542 2.513 . S
O551 C546 1.246 . S
O552 Tb542 2.453 . S
O552 C548 1.245 . S
O553 Tb540 2.343 . S
O553 Tb542 2.596 . S
O553 C548 1.259 . S
O554 Tb542 2.374 . S
O554 C549 1.250 . S
O555 Tb540 2.353 . S
O555 C549 1.263 . S
C556 O557 1.275 . S
C556 O558 1.246 . S
O557 Tb540 2.427 . S
O557 C556 1.275 . S
O558 Tb540 2.513 . S
O558 C556 1.246 . S
C559 O543 1.231 1_556 S
C559 O544 1.279 . S
Tb560 O563 2.453 1_455 S
Tb560 O564 2.596 . S
Tb560 O565 2.374 1_455 S
Tb560 O573 2.343 . S
Tb560 O575 2.353 . S
Tb560 O577 2.427 . S
Tb560 O578 2.513 1_455 S
C561 O565 1.251 1_455 S
C561 O567 1.263 . S
Tb562 O564 2.343 . S
Tb562 O567 2.353 . S
Tb562 O570 2.427 . S
Tb562 O571 2.513 . S
Tb562 O572 2.453 . S
Tb562 O573 2.596 . S
Tb562 O574 2.374 . S
O563 Tb560 2.453 1_655 S
O563 C579 1.230 1_655 S
O564 Tb560 2.596 . S
O564 Tb562 2.343 . S
O564 C579 1.279 . S
O565 Tb560 2.374 1_655 S
O565 C561 1.251 1_655 S
C566 O570 1.275 . S
C566 O571 1.246 . S
O567 C561 1.263 . S
O567 Tb562 2.353 . S
C568 O572 1.245 . S
C568 O573 1.259 . S
C569 O574 1.250 . S
C569 O575 1.263 . S
O570 Tb562 2.427 . S
O570 C566 1.275 . S
O571 Tb562 2.513 . S
O571 C566 1.246 . S
O572 Tb562 2.453 . S
O572 C568 1.245 . S
O573 Tb560 2.343 . S
O573 Tb562 2.596 . S
O573 C568 1.259 . S
O574 Tb562 2.374 . S
O574 C569 1.250 . S
O575 Tb560 2.353 . S
O575 C569 1.263 . S
C576 O577 1.275 . S
C576 O578 1.246 1_455 S
O577 Tb560 2.427 . S
O577 C576 1.275 . S
O578 Tb560 2.513 1_655 S
O578 C576 1.246 1_655 S
C579 O563 1.230 1_455 S
C579 O564 1.279 . S
Tb580 O583 2.453 . S
Tb580 O584 2.596 . S
Tb580 O585 2.374 . S
Tb580 O593 2.343 . S
Tb580 O595 2.353 . S
Tb580 O597 2.427 . S
Tb580 O598 2.513 . S
C581 O585 1.251 . S
C581 O587 1.263 . S
Tb582 O584 2.343 . S
Tb582 O587 2.353 . S
Tb582 O590 2.427 . S
Tb582 O591 2.513 . S
Tb582 O592 2.453 . S
Tb582 O593 2.596 . S
Tb582 O594 2.374 . S
O583 Tb580 2.453 . S
O583 C599 1.245 . S
O584 Tb580 2.596 . S
O584 Tb582 2.343 . S
O584 C599 1.259 . S
O585 Tb580 2.374 . S
O585 C581 1.251 . S
C586 O590 1.275 . S
C586 O591 1.246 . S
O587 C581 1.263 . S
O587 Tb582 2.353 . S
C588 O592 1.245 . S
C588 O593 1.259 . S
C589 O594 1.250 . S
C589 O595 1.263 . S
O590 Tb582 2.427 . S
O590 C586 1.275 . S
O591 Tb582 2.513 . S
O591 C586 1.246 . S
O592 Tb582 2.453 . S
O592 C588 1.245 . S
O593 Tb580 2.343 . S
O593 Tb582 2.596 . S
O593 C588 1.259 . S
O594 Tb582 2.374 . S
O594 C589 1.250 . S
O595 Tb580 2.353 . S
O595 C589 1.263 . S
C596 O597 1.275 . S
C596 O598 1.246 . S
O597 Tb580 2.427 . S
O597 C596 1.275 . S
O598 Tb580 2.513 . S
O598 C596 1.246 . S
C599 O583 1.245 . S
C599 O584 1.259 . S
Tb600 O603 2.453 . S
Tb600 O604 2.596 . S
Tb600 O605 2.374 . S
Tb600 O613 2.343 . S
Tb600 O615 2.353 . S
Tb600 O617 2.427 . S
Tb600 O618 2.513 . S
C601 O605 1.251 . S
C601 O607 1.263 . S
Tb602 O604 2.343 . S
Tb602 O607 2.353 . S
Tb602 O610 2.427 . S
Tb602 O611 2.513 . S
Tb602 O612 2.453 . S
Tb602 O613 2.596 . S
Tb602 O614 2.374 . S
O603 Tb600 2.453 . S
O603 C619 1.245 . S
O604 Tb600 2.596 . S
O604 Tb602 2.343 . S
O604 C619 1.259 . S
O605 Tb600 2.374 . S
O605 C601 1.251 . S
C606 O610 1.275 . S
C606 O611 1.246 . S
O607 C601 1.263 . S
O607 Tb602 2.353 . S
C608 O612 1.245 . S
C608 O613 1.259 . S
C609 O614 1.250 . S
C609 O615 1.263 . S
O610 Tb602 2.427 . S
O610 C606 1.275 . S
O611 Tb602 2.513 . S
O611 C606 1.246 . S
O612 Tb602 2.453 . S
O612 C608 1.245 . S
O613 Tb600 2.343 . S
O613 Tb602 2.596 . S
O613 C608 1.259 . S
O614 Tb602 2.374 . S
O614 C609 1.250 . S
O615 Tb600 2.353 . S
O615 C609 1.263 . S
C616 O617 1.275 . S
C616 O618 1.246 . S
O617 Tb600 2.427 . S
O617 C616 1.275 . S
O618 Tb600 2.513 . S
O618 C616 1.246 . S
C619 O603 1.245 . S
C619 O604 1.259 . S
Tb620 O623 2.453 . S
Tb620 O624 2.596 . S
Tb620 O625 2.374 . S
Tb620 O633 2.343 . S
Tb620 O635 2.353 . S
Tb620 O637 2.427 . S
Tb620 O638 2.513 . S
C621 O625 1.251 . S
C621 O627 1.263 . S
Tb622 O624 2.336 1_455 S
Tb622 O627 2.347 1_455 S
Tb622 O630 2.425 1_455 S
Tb622 O631 2.514 . S
Tb622 O632 2.456 . S
Tb622 O633 2.593 1_455 S
Tb622 O634 2.376 . S
O623 Tb620 2.453 . S
O623 C639 1.245 . S
O624 Tb620 2.596 . S
O624 Tb622 2.336 1_655 S
O624 C639 1.259 . S
O625 Tb620 2.374 . S
O625 C621 1.251 . S
C626 O630 1.275 . S
C626 O631 1.246 1_655 S
O627 C621 1.263 . S
O627 Tb622 2.347 1_655 S
C628 O632 1.245 . S
C628 O633 1.259 1_455 S
C629 O634 1.250 1_655 S
C629 O635 1.263 . S
O630 Tb622 2.425 1_655 S
O630 C626 1.275 . S
O631 Tb622 2.514 . S
O631 C626 1.246 1_455 S
O632 Tb622 2.456 . S
O632 C628 1.245 . S
O633 Tb620 2.343 . S
O633 Tb622 2.593 1_655 S
O633 C628 1.259 1_655 S
O634 Tb622 2.376 . S
O634 C629 1.250 1_455 S
O635 Tb620 2.353 . S
O635 C629 1.263 . S
C636 O637 1.275 . S
C636 O638 1.246 . S
O637 Tb620 2.427 . S
O637 C636 1.275 . S
O638 Tb620 2.513 . S
O638 C636 1.246 . S
C639 O623 1.245 . S
C639 O624 1.259 . S
Tb640 O643 2.453 . S
Tb640 O644 2.596 . S
Tb640 O645 2.374 . S
Tb640 O653 2.343 . S
Tb640 O655 2.353 . S
Tb640 O657 2.427 . S
Tb640 O658 2.513 . S
C641 O645 1.251 . S
C641 O647 1.263 . S
Tb642 O644 2.343 . S
Tb642 O647 2.353 . S
Tb642 O650 2.427 . S
Tb642 O651 2.513 . S
Tb642 O652 2.453 . S
Tb642 O653 2.596 . S
Tb642 O654 2.374 . S
O643 Tb640 2.453 . S
O643 C659 1.245 . S
O644 Tb640 2.596 . S
O644 Tb642 2.343 . S
O644 C659 1.259 . S
O645 Tb640 2.374 . S
O645 C641 1.251 . S
C646 O650 1.275 . S
C646 O651 1.246 . S
O647 C641 1.263 . S
O647 Tb642 2.353 . S
C648 O652 1.245 . S
C648 O653 1.259 . S
C649 O654 1.250 . S
C649 O655 1.263 . S
O650 Tb642 2.427 . S
O650 C646 1.275 . S
O651 Tb642 2.513 . S
O651 C646 1.246 . S
O652 Tb642 2.453 . S
O652 C648 1.245 . S
O653 Tb640 2.343 . S
O653 Tb642 2.596 . S
O653 C648 1.259 . S
O654 Tb642 2.374 . S
O654 C649 1.250 . S
O655 Tb640 2.353 . S
O655 C649 1.263 . S
C656 O657 1.275 . S
C656 O658 1.246 . S
O657 Tb640 2.427 . S
O657 C656 1.275 . S
O658 Tb640 2.513 . S
O658 C656 1.246 . S
C659 O643 1.245 . S
C659 O644 1.259 . S
Tb660 O663 2.453 . S
Tb660 O664 2.596 . S
Tb660 O665 2.374 . S
Tb660 O673 2.343 . S
Tb660 O675 2.353 . S
Tb660 O677 2.427 . S
Tb660 O678 2.513 . S
C661 O665 1.251 . S
C661 O667 1.263 . S
Tb662 O664 2.343 1_554 S
Tb662 O667 2.353 1_554 S
Tb662 O670 2.427 1_554 S
Tb662 O671 2.513 . S
Tb662 O672 2.453 . S
Tb662 O673 2.596 1_554 S
Tb662 O674 2.374 . S
O663 Tb660 2.453 . S
O663 C679 1.245 . S
O664 Tb660 2.596 . S
O664 Tb662 2.343 1_556 S
O664 C679 1.259 . S
O665 Tb660 2.374 . S
O665 C661 1.251 . S
C666 O670 1.275 . S
C666 O671 1.246 1_556 S
O667 C661 1.263 . S
O667 Tb662 2.353 1_556 S
C668 O672 1.245 . S
C668 O673 1.259 1_554 S
C669 O674 1.250 . S
C669 O675 1.263 1_554 S
O670 Tb662 2.427 1_556 S
O670 C666 1.275 . S
O671 Tb662 2.513 . S
O671 C666 1.246 1_554 S
O672 Tb662 2.453 . S
O672 C668 1.245 . S
O673 Tb660 2.343 . S
O673 Tb662 2.596 1_556 S
O673 C668 1.259 1_556 S
O674 Tb662 2.374 . S
O674 C669 1.250 . S
O675 Tb660 2.353 . S
O675 C669 1.263 1_556 S
C676 O677 1.275 . S
C676 O678 1.246 . S
O677 Tb660 2.427 . S
O677 C676 1.275 . S
O678 Tb660 2.513 . S
O678 C676 1.246 . S
C679 O663 1.245 . S
C679 O664 1.259 . S
Tb680 O683 2.453 . S
Tb680 O684 2.596 . S
Tb680 O685 2.374 . S
Tb680 O693 2.343 . S
Tb680 O695 2.353 . S
Tb680 O697 2.427 . S
Tb680 O698 2.513 . S
C681 O685 1.251 . S
C681 O687 1.263 . S
Tb682 O684 2.343 . S
Tb682 O687 2.353 . S
Tb682 O690 2.427 . S
Tb682 O691 2.513 . S
Tb682 O692 2.453 . S
Tb682 O693 2.596 . S
Tb682 O694 2.374 . S
O683 Tb680 2.453 . S
O683 C699 1.245 . S
O684 Tb680 2.596 . S
O684 Tb682 2.343 . S
O684 C699 1.259 . S
O685 Tb680 2.374 . S
O685 C681 1.251 . S
C686 O690 1.275 . S
C686 O691 1.246 . S
O687 C681 1.263 . S
O687 Tb682 2.353 . S
C688 O692 1.245 . S
C688 O693 1.259 . S
C689 O694 1.250 . S
C689 O695 1.263 . S
O690 Tb682 2.427 . S
O690 C686 1.275 . S
O691 Tb682 2.513 . S
O691 C686 1.246 . S
O692 Tb682 2.453 . S
O692 C688 1.245 . S
O693 Tb680 2.343 . S
O693 Tb682 2.596 . S
O693 C688 1.259 . S
O694 Tb682 2.374 . S
O694 C689 1.250 . S
O695 Tb680 2.353 . S
O695 C689 1.263 . S
C696 O697 1.275 . S
C696 O698 1.246 . S
O697 Tb680 2.427 . S
O697 C696 1.275 . S
O698 Tb680 2.513 . S
O698 C696 1.246 . S
C699 O683 1.245 . S
C699 O684 1.259 . S
Tb700 O703 2.453 . S
Tb700 O704 2.596 . S
Tb700 O705 2.374 . S
Tb700 O713 2.343 . S
Tb700 O715 2.353 . S
Tb700 O717 2.427 1_556 S
Tb700 O718 2.513 . S
C701 O705 1.251 . S
C701 O707 1.263 . S
Tb702 O704 2.343 . S
Tb702 O707 2.353 . S
Tb702 O710 2.427 . S
Tb702 O711 2.513 . S
Tb702 O712 2.453 . S
Tb702 O713 2.596 . S
Tb702 O714 2.374 . S
O703 Tb700 2.453 . S
O703 C719 1.245 . S
O704 Tb700 2.596 . S
O704 Tb702 2.343 . S
O704 C719 1.259 . S
O705 Tb700 2.374 . S
O705 C701 1.251 . S
C706 O710 1.275 . S
C706 O711 1.246 . S
O707 C701 1.263 . S
O707 Tb702 2.353 . S
C708 O712 1.245 . S
C708 O713 1.259 . S
C709 O714 1.250 . S
C709 O715 1.263 . S
O710 Tb702 2.427 . S
O710 C706 1.275 . S
O711 Tb702 2.513 . S
O711 C706 1.246 . S
O712 Tb702 2.453 . S
O712 C708 1.245 . S
O713 Tb700 2.343 . S
O713 Tb702 2.596 . S
O713 C708 1.259 . S
O714 Tb702 2.374 . S
O714 C709 1.250 . S
O715 Tb700 2.353 . S
O715 C709 1.263 . S
C716 O717 1.275 1_556 S
C716 O718 1.246 . S
O717 Tb700 2.427 1_554 S
O717 C716 1.275 1_554 S
O718 Tb700 2.513 . S
O718 C716 1.246 . S
C719 O703 1.245 . S
C719 O704 1.259 . S
Tb720 O723 2.453 . S
Tb720 O724 2.596 . S
Tb720 O725 2.374 . S
Tb720 O733 2.343 . S
Tb720 O735 2.353 . S
Tb720 O737 2.427 1_554 S
Tb720 O738 2.513 . S
C721 O725 1.251 . S
C721 O727 1.263 . S
Tb722 O724 2.343 . S
Tb722 O727 2.353 . S
Tb722 O730 2.427 . S
Tb722 O731 2.513 . S
Tb722 O732 2.453 . S
Tb722 O733 2.596 . S
Tb722 O734 2.374 . S
O723 Tb720 2.453 . S
O723 C739 1.245 . S
O724 Tb720 2.596 . S
O724 Tb722 2.343 . S
O724 C739 1.259 . S
O725 Tb720 2.374 . S
O725 C721 1.251 . S
C726 O730 1.275 . S
C726 O731 1.246 . S
O727 C721 1.263 . S
O727 Tb722 2.353 . S
C728 O732 1.245 . S
C728 O733 1.259 . S
C729 O734 1.250 . S
C729 O735 1.263 . S
O730 Tb722 2.427 . S
O730 C726 1.275 . S
O731 Tb722 2.513 . S
O731 C726 1.246 . S
O732 Tb722 2.453 . S
O732 C728 1.245 . S
O733 Tb720 2.343 . S
O733 Tb722 2.596 . S
O733 C728 1.259 . S
O734 Tb722 2.374 . S
O734 C729 1.250 . S
O735 Tb720 2.353 . S
O735 C729 1.263 . S
C736 O737 1.275 . S
C736 O738 1.246 1_556 S
O737 Tb720 2.427 1_556 S
O737 C736 1.275 . S
O738 Tb720 2.513 . S
O738 C736 1.246 1_554 S
C739 O723 1.245 . S
C739 O724 1.259 . S
Tb740 O743 2.453 . S
Tb740 O744 2.596 . S
Tb740 O745 2.374 . S
Tb740 O753 2.343 . S
Tb740 O755 2.353 . S
Tb740 O757 2.427 . S
Tb740 O758 2.513 . S
C741 O745 1.251 . S
C741 O747 1.263 . S
Tb742 O744 2.343 . S
Tb742 O747 2.353 . S
Tb742 O750 2.427 . S
Tb742 O751 2.513 . S
Tb742 O752 2.453 . S
Tb742 O753 2.596 . S
Tb742 O754 2.374 . S
O743 Tb740 2.453 . S
O743 C759 1.245 . S
O744 Tb740 2.596 . S
O744 Tb742 2.343 . S
O744 C759 1.259 . S
O745 Tb740 2.374 . S
O745 C741 1.251 . S
C746 O750 1.275 . S
C746 O751 1.246 . S
O747 C741 1.263 . S
O747 Tb742 2.353 . S
C748 O752 1.245 . S
C748 O753 1.259 . S
C749 O754 1.250 . S
C749 O755 1.263 . S
O750 Tb742 2.427 . S
O750 C746 1.275 . S
O751 Tb742 2.513 . S
O751 C746 1.246 . S
O752 Tb742 2.453 . S
O752 C748 1.245 . S
O753 Tb740 2.343 . S
O753 Tb742 2.596 . S
O753 C748 1.259 . S
O754 Tb742 2.374 . S
O754 C749 1.250 . S
O755 Tb740 2.353 . S
O755 C749 1.263 . S
C756 O757 1.275 . S
C756 O758 1.246 . S
O757 Tb740 2.427 . S
O757 C756 1.275 . S
O758 Tb740 2.513 . S
O758 C756 1.246 . S
C759 O743 1.245 . S
C759 O744 1.259 . S
Tb760 O763 2.453 . S
Tb760 O764 2.596 . S
Tb760 O765 2.374 . S
Tb760 O773 2.343 . S
Tb760 O775 2.353 . S
Tb760 O777 2.427 . S
Tb760 O778 2.513 . S
C761 O765 1.251 . S
C761 O767 1.263 . S
Tb762 O764 2.343 . S
Tb762 O767 2.353 . S
Tb762 O770 2.427 . S
Tb762 O771 2.513 . S
Tb762 O772 2.453 . S
Tb762 O773 2.596 . S
Tb762 O774 2.374 . S
O763 Tb760 2.453 . S
O763 C779 1.245 . S
O764 Tb760 2.596 . S
O764 Tb762 2.343 . S
O764 C779 1.259 . S
O765 Tb760 2.374 . S
O765 C761 1.251 . S
C766 O770 1.275 . S
C766 O771 1.246 . S
O767 C761 1.263 . S
O767 Tb762 2.353 . S
C768 O772 1.245 . S
C768 O773 1.259 . S
C769 O774 1.250 . S
C769 O775 1.263 . S
O770 Tb762 2.427 . S
O770 C766 1.275 . S
O771 Tb762 2.513 . S
O771 C766 1.246 . S
O772 Tb762 2.453 . S
O772 C768 1.245 . S
O773 Tb760 2.343 . S
O773 Tb762 2.596 . S
O773 C768 1.259 . S
O774 Tb762 2.374 . S
O774 C769 1.250 . S
O775 Tb760 2.353 . S
O775 C769 1.263 . S
C776 O777 1.275 . S
C776 O778 1.246 . S
O777 Tb760 2.427 . S
O777 C776 1.275 . S
O778 Tb760 2.513 . S
O778 C776 1.246 . S
C779 O763 1.245 . S
C779 O764 1.259 . S
Tb780 O783 2.453 . S
Tb780 O784 2.596 . S
Tb780 O785 2.374 . S
Tb780 O793 2.343 . S
Tb780 O795 2.353 . S
Tb780 O797 2.427 . S
Tb780 O798 2.513 . S
C781 O785 1.251 . S
C781 O787 1.263 . S
Tb782 O784 2.343 . S
Tb782 O787 2.353 . S
Tb782 O790 2.427 . S
Tb782 O791 2.513 . S
Tb782 O792 2.453 . S
Tb782 O793 2.596 . S
Tb782 O794 2.374 . S
O783 Tb780 2.453 . S
O783 C799 1.245 . S
O784 Tb780 2.596 . S
O784 Tb782 2.343 . S
O784 C799 1.259 . S
O785 Tb780 2.374 . S
O785 C781 1.251 . S
C786 O790 1.275 . S
C786 O791 1.246 . S
O787 C781 1.263 . S
O787 Tb782 2.353 . S
C788 O792 1.245 . S
C788 O793 1.259 . S
C789 O794 1.250 . S
C789 O795 1.263 . S
O790 Tb782 2.427 . S
O790 C786 1.275 . S
O791 Tb782 2.513 . S
O791 C786 1.246 . S
O792 Tb782 2.453 . S
O792 C788 1.245 . S
O793 Tb780 2.343 . S
O793 Tb782 2.596 . S
O793 C788 1.259 . S
O794 Tb782 2.374 . S
O794 C789 1.250 . S
O795 Tb780 2.353 . S
O795 C789 1.263 . S
C796 O797 1.275 . S
C796 O798 1.246 . S
O797 Tb780 2.427 . S
O797 C796 1.275 . S
O798 Tb780 2.513 . S
O798 C796 1.246 . S
C799 O783 1.245 . S
C799 O784 1.259 . S
Tb800 O803 2.456 . S
Tb800 O804 2.593 1_655 S
Tb800 O805 2.376 . S
Tb800 O813 2.336 1_655 S
Tb800 O815 2.347 1_655 S
Tb800 O817 2.425 1_655 S
Tb800 O818 2.514 . S
C801 O805 1.251 1_455 S
C801 O807 1.263 . S
Tb802 O804 2.343 . S
Tb802 O807 2.353 . S
Tb802 O810 2.427 . S
Tb802 O811 2.513 . S
Tb802 O812 2.453 . S
Tb802 O813 2.596 . S
Tb802 O814 2.374 . S
O803 Tb800 2.456 . S
O803 C819 1.245 . S
O804 Tb800 2.593 1_455 S
O804 Tb802 2.343 . S
O804 C819 1.259 1_455 S
O805 Tb800 2.376 . S
O805 C801 1.251 1_655 S
C806 O810 1.275 . S
C806 O811 1.246 . S
O807 C801 1.263 . S
O807 Tb802 2.353 . S
C808 O812 1.245 . S
C808 O813 1.259 . S
C809 O814 1.250 . S
C809 O815 1.263 . S
O810 Tb802 2.427 . S
O810 C806 1.275 . S
O811 Tb802 2.513 . S
O811 C806 1.246 . S
O812 Tb802 2.453 . S
O812 C808 1.245 . S
O813 Tb800 2.336 1_455 S
O813 Tb802 2.596 . S
O813 C808 1.259 . S
O814 Tb802 2.374 . S
O814 C809 1.250 . S
O815 Tb800 2.347 1_455 S
O815 C809 1.263 . S
C816 O817 1.275 . S
C816 O818 1.246 1_455 S
O817 Tb800 2.425 1_455 S
O817 C816 1.275 . S
O818 Tb800 2.514 . S
O818 C816 1.246 1_655 S
C819 O803 1.245 . S
C819 O804 1.259 1_655 S
Tb820 O823 2.453 . S
Tb820 O824 2.596 . S
Tb820 O825 2.374 . S
Tb820 O833 2.343 . S
Tb820 O835 2.353 . S
Tb820 O837 2.427 . S
Tb820 O838 2.513 . S
C821 O825 1.251 . S
C821 O827 1.263 . S
Tb822 O824 2.343 . S
Tb822 O827 2.353 . S
Tb822 O830 2.427 . S
Tb822 O831 2.513 . S
Tb822 O832 2.453 . S
Tb822 O833 2.596 . S
Tb822 O834 2.374 . S
O823 Tb820 2.453 . S
O823 C839 1.245 . S
O824 Tb820 2.596 . S
O824 Tb822 2.343 . S
O824 C839 1.259 . S
O825 Tb820 2.374 . S
O825 C821 1.251 . S
C826 O830 1.275 . S
C826 O831 1.246 . S
O827 C821 1.263 . S
O827 Tb822 2.353 . S
C828 O832 1.245 . S
C828 O833 1.259 . S
C829 O834 1.250 . S
C829 O835 1.263 . S
O830 Tb822 2.427 . S
O830 C826 1.275 . S
O831 Tb822 2.513 . S
O831 C826 1.246 . S
O832 Tb822 2.453 . S
O832 C828 1.245 . S
O833 Tb820 2.343 . S
O833 Tb822 2.596 . S
O833 C828 1.259 . S
O834 Tb822 2.374 . S
O834 C829 1.250 . S
O835 Tb820 2.353 . S
O835 C829 1.263 . S
C836 O837 1.275 . S
C836 O838 1.246 . S
O837 Tb820 2.427 . S
O837 C836 1.275 . S
O838 Tb820 2.513 . S
O838 C836 1.246 . S
C839 O823 1.245 . S
C839 O824 1.259 . S
Tb840 O843 2.453 . S
Tb840 O844 2.596 1_556 S
Tb840 O845 2.374 . S
Tb840 O853 2.343 1_556 S
Tb840 O855 2.353 1_556 S
Tb840 O857 2.427 1_556 S
Tb840 O858 2.513 . S
C841 O845 1.251 . S
C841 O847 1.263 1_556 S
Tb842 O844 2.343 . S
Tb842 O847 2.353 . S
Tb842 O850 2.427 . S
Tb842 O851 2.513 . S
Tb842 O852 2.453 . S
Tb842 O853 2.596 . S
Tb842 O854 2.374 . S
O843 Tb840 2.453 . S
O843 C859 1.245 . S
O844 Tb840 2.596 1_554 S
O844 Tb842 2.343 . S
O844 C859 1.259 1_554 S
O845 Tb840 2.374 . S
O845 C841 1.251 . S
C846 O850 1.275 . S
C846 O851 1.246 . S
O847 C841 1.263 1_554 S
O847 Tb842 2.353 . S
C848 O852 1.245 . S
C848 O853 1.259 . S
C849 O854 1.250 . S
C849 O855 1.263 . S
O850 Tb842 2.427 . S
O850 C846 1.275 . S
O851 Tb842 2.513 . S
O851 C846 1.246 . S
O852 Tb842 2.453 . S
O852 C848 1.245 . S
O853 Tb840 2.343 1_554 S
O853 Tb842 2.596 . S
O853 C848 1.259 . S
O854 Tb842 2.374 . S
O854 C849 1.250 . S
O855 Tb840 2.353 1_554 S
O855 C849 1.263 . S
C856 O857 1.275 . S
C856 O858 1.246 1_554 S
O857 Tb840 2.427 1_554 S
O857 C856 1.275 . S
O858 Tb840 2.513 . S
O858 C856 1.246 1_556 S
C859 O843 1.245 . S
C859 O844 1.259 1_556 S
Tb860 O863 2.453 . S
Tb860 O864 2.596 . S
Tb860 O865 2.374 . S
Tb860 O873 2.343 . S
Tb860 O875 2.353 . S
Tb860 O877 2.427 . S
Tb860 O878 2.513 . S
C861 O865 1.251 . S
C861 O867 1.263 . S
Tb862 O864 2.343 . S
Tb862 O867 2.353 . S
Tb862 O870 2.427 . S
Tb862 O871 2.513 . S
Tb862 O872 2.453 . S
Tb862 O873 2.596 . S
Tb862 O874 2.374 . S
O863 Tb860 2.453 . S
O863 C879 1.245 . S
O864 Tb860 2.596 . S
O864 Tb862 2.343 . S
O864 C879 1.259 . S
O865 Tb860 2.374 . S
O865 C861 1.251 . S
C866 O870 1.275 . S
C866 O871 1.246 . S
O867 C861 1.263 . S
O867 Tb862 2.353 . S
C868 O872 1.245 . S
C868 O873 1.259 . S
C869 O874 1.250 . S
C869 O875 1.263 . S
O870 Tb862 2.427 . S
O870 C866 1.275 . S
O871 Tb862 2.513 . S
O871 C866 1.246 . S
O872 Tb862 2.453 . S
O872 C868 1.245 . S
O873 Tb860 2.343 . S
O873 Tb862 2.596 . S
O873 C868 1.259 . S
O874 Tb862 2.374 . S
O874 C869 1.250 . S
O875 Tb860 2.353 . S
O875 C869 1.263 . S
C876 O877 1.275 . S
C876 O878 1.246 . S
O877 Tb860 2.427 . S
O877 C876 1.275 . S
O878 Tb860 2.513 . S
O878 C876 1.246 . S
C879 O863 1.245 . S
C879 O864 1.259 . S
Tb880 O883 2.453 . S
Tb880 O884 2.596 . S
Tb880 O885 2.374 . S
Tb880 O893 2.343 . S
Tb880 O895 2.353 . S
Tb880 O897 2.427 . S
Tb880 O898 2.513 . S
C881 O885 1.251 . S
C881 O887 1.263 . S
Tb882 O884 2.343 . S
Tb882 O887 2.353 . S
Tb882 O890 2.427 1_554 S
Tb882 O891 2.513 . S
Tb882 O892 2.453 . S
Tb882 O893 2.596 . S
Tb882 O894 2.374 . S
O883 Tb880 2.453 . S
O883 C899 1.245 . S
O884 Tb880 2.596 . S
O884 Tb882 2.343 . S
O884 C899 1.259 . S
O885 Tb880 2.374 . S
O885 C881 1.251 . S
C886 O890 1.275 1_554 S
C886 O891 1.246 . S
O887 C881 1.263 . S
O887 Tb882 2.353 . S
C888 O892 1.245 . S
C888 O893 1.259 . S
C889 O894 1.250 . S
C889 O895 1.263 . S
O890 Tb882 2.427 1_556 S
O890 C886 1.275 1_556 S
O891 Tb882 2.513 . S
O891 C886 1.246 . S
O892 Tb882 2.453 . S
O892 C888 1.245 . S
O893 Tb880 2.343 . S
O893 Tb882 2.596 . S
O893 C888 1.259 . S
O894 Tb882 2.374 . S
O894 C889 1.250 . S
O895 Tb880 2.353 . S
O895 C889 1.263 . S
C896 O897 1.275 . S
C896 O898 1.246 . S
O897 Tb880 2.427 . S
O897 C896 1.275 . S
O898 Tb880 2.513 . S
O898 C896 1.246 . S
C899 O883 1.245 . S
C899 O884 1.259 . S
Tb900 O903 2.453 . S
Tb900 O904 2.596 . S
Tb900 O905 2.374 . S
Tb900 O913 2.343 . S
Tb900 O915 2.353 . S
Tb900 O917 2.427 . S
Tb900 O918 2.513 . S
C901 O905 1.251 . S
C901 O907 1.263 . S
Tb902 O904 2.343 . S
Tb902 O907 2.353 . S
Tb902 O910 2.427 1_556 S
Tb902 O911 2.513 . S
Tb902 O912 2.453 . S
Tb902 O913 2.596 . S
Tb902 O914 2.374 . S
O903 Tb900 2.453 . S
O903 C919 1.245 . S
O904 Tb900 2.596 . S
O904 Tb902 2.343 . S
O904 C919 1.259 . S
O905 Tb900 2.374 . S
O905 C901 1.251 . S
C906 O910 1.275 . S
C906 O911 1.246 1_554 S
O907 C901 1.263 . S
O907 Tb902 2.353 . S
C908 O912 1.245 . S
C908 O913 1.259 . S
C909 O914 1.250 . S
C909 O915 1.263 . S
O910 Tb902 2.427 1_554 S
O910 C906 1.275 . S
O911 Tb902 2.513 . S
O911 C906 1.246 1_556 S
O912 Tb902 2.453 . S
O912 C908 1.245 . S
O913 Tb900 2.343 . S
O913 Tb902 2.596 . S
O913 C908 1.259 . S
O914 Tb902 2.374 . S
O914 C909 1.250 . S
O915 Tb900 2.353 . S
O915 C909 1.263 . S
C916 O917 1.275 . S
C916 O918 1.246 . S
O917 Tb900 2.427 . S
O917 C916 1.275 . S
O918 Tb900 2.513 . S
O918 C916 1.246 . S
C919 O903 1.245 . S
C919 O904 1.259 . S
Tb920 O923 2.453 . S
Tb920 O924 2.596 . S
Tb920 O925 2.374 . S
Tb920 O933 2.343 . S
Tb920 O935 2.353 . S
Tb920 O937 2.427 . S
Tb920 O938 2.513 . S
C921 O925 1.251 . S
C921 O927 1.263 . S
Tb922 O924 2.343 . S
Tb922 O927 2.353 . S
Tb922 O930 2.427 . S
Tb922 O931 2.513 . S
Tb922 O932 2.453 . S
Tb922 O933 2.596 . S
Tb922 O934 2.374 . S
O923 Tb920 2.453 . S
O923 C939 1.245 . S
O924 Tb920 2.596 . S
O924 Tb922 2.343 . S
O924 C939 1.259 . S
O925 Tb920 2.374 . S
O925 C921 1.251 . S
C926 O930 1.275 . S
C926 O931 1.246 . S
O927 C921 1.263 . S
O927 Tb922 2.353 . S
C928 O932 1.245 . S
C928 O933 1.259 . S
C929 O934 1.250 . S
C929 O935 1.263 . S
O930 Tb922 2.427 . S
O930 C926 1.275 . S
O931 Tb922 2.513 . S
O931 C926 1.246 . S
O932 Tb922 2.453 . S
O932 C928 1.245 . S
O933 Tb920 2.343 . S
O933 Tb922 2.596 . S
O933 C928 1.259 . S
O934 Tb922 2.374 . S
O934 C929 1.250 . S
O935 Tb920 2.353 . S
O935 C929 1.263 . S
C936 O937 1.275 . S
C936 O938 1.246 . S
O937 Tb920 2.427 . S
O937 C936 1.275 . S
O938 Tb920 2.513 . S
O938 C936 1.246 . S
C939 O923 1.245 . S
C939 O924 1.259 . S
Tb940 O943 2.453 . S
Tb940 O944 2.596 . S
Tb940 O945 2.374 . S
Tb940 O953 2.343 . S
Tb940 O955 2.353 . S
Tb940 O957 2.427 . S
Tb940 O958 2.513 . S
C941 O945 1.251 . S
C941 O947 1.263 . S
Tb942 O944 2.343 . S
Tb942 O947 2.353 . S
Tb942 O950 2.427 . S
Tb942 O951 2.513 . S
Tb942 O952 2.453 . S
Tb942 O953 2.596 . S
Tb942 O954 2.374 . S
O943 Tb940 2.453 . S
O943 C959 1.245 . S
O944 Tb940 2.596 . S
O944 Tb942 2.343 . S
O944 C959 1.259 . S
O945 Tb940 2.374 . S
O945 C941 1.251 . S
C946 O950 1.275 . S
C946 O951 1.246 . S
O947 C941 1.263 . S
O947 Tb942 2.353 . S
C948 O952 1.245 . S
C948 O953 1.259 . S
C949 O954 1.250 . S
C949 O955 1.263 . S
O950 Tb942 2.427 . S
O950 C946 1.275 . S
O951 Tb942 2.513 . S
O951 C946 1.246 . S
O952 Tb942 2.453 . S
O952 C948 1.245 . S
O953 Tb940 2.343 . S
O953 Tb942 2.596 . S
O953 C948 1.259 . S
O954 Tb942 2.374 . S
O954 C949 1.250 . S
O955 Tb940 2.353 . S
O955 C949 1.263 . S
C956 O957 1.275 . S
C956 O958 1.246 . S
O957 Tb940 2.427 . S
O957 C956 1.275 . S
O958 Tb940 2.513 . S
O958 C956 1.246 . S
C959 O943 1.245 . S
C959 O944 1.259 . S
C9 C86 3.598 . S
C29 C109 2.197 . S
C126 C46 3.576 . S
C146 C66 1.837 1_554 S
C169 C189 2.434 . S
C186 C206 3.828 1_565 S
C229 C209 3.276 1_554 S
C226 C166 3.089 1_545 S
C246 C69 2.792 . S
C149 C666 2.099 1_655 S
C89 C269 3.044 . S
C106 C689 2.099 . S
C26 C289 2.792 1_655 S
C629 C6 2.765 . S
C606 C49 2.765 . S
C396 C301 3.598 . S
C321 C401 2.197 . S
C356 C436 3.576 . S
C376 C456 1.837 1_554 S
C481 C461 2.434 . S
C496 C516 3.828 1_545 S
C521 C501 3.276 1_556 S
C476 C536 3.089 1_545 S
C361 C556 2.792 . S
C856 C441 2.099 1_655 S
C561 C381 3.044 . S
C416 C861 2.099 . S
C581 C336 2.792 1_655 S
C316 C801 2.765 . S
C341 C796 2.765 . S
C646 C609 3.598 1_545 S
C669 C249 2.197 . S
C626 C266 3.576 1_545 S
C686 C286 1.837 . S
C709 C729 2.435 1_556 S
C726 C746 3.828 . S
C769 C749 3.276 . S
C706 C766 3.089 . S
C129 C649 3.044 . S
C836 C781 3.598 1_565 S
C841 C541 2.197 . S
C576 C816 3.576 1_545 S
C876 C596 1.837 . S
C881 C901 2.435 1_554 S
C916 C936 3.828 . S
C921 C941 3.276 . S
C956 C896 3.089 . S
C821 C421 3.044 . S
C1 C328 1.634 . S
C819 C21 1.451 . S
C56 C379 0.716 . S
C76 C788 1.032 . S
C96 C459 0.946 . S
C101 C839 1.737 . S
C136 C408 1.368 . S
C579 C156 0.575 1_455 S
C161 C799 1.875 . S
C196 C339 1.488 . S
C201 C808 1.642 . S
C368 C236 1.269 1_556 S
C828 C221 1.747 . S
C419 C176 1.433 . S
C181 C568 2.205 . S
C448 C216 1.022 . S
C899 C256 1.185 . S
C539 C141 1.096 . S
C81 C888 2.298 . S
C116 C499 1.015 . S
C261 C508 1.866 . S
C939 C281 1.283 . S
C16 C948 1.728 . S
C41 C908 2.027 . S
C39 C309 1.634 . S
C329 C628 1.451 . S
C346 C68 0.716 . S
C366 C619 1.032 . S
C148 C386 0.946 . S
C648 C409 1.737 . S
C119 C426 1.368 . S
C446 C268 0.575 1_455 S
C469 C608 1.875 . S
C28 C486 1.488 . S
C509 C639 1.642 . S
C79 C526 1.269 1_554 S
C659 C529 1.747 . S
C466 C108 1.433 . S
C489 C279 2.205 . S
C159 C506 1.022 . S
C546 C708 1.185 . S
C228 C449 1.096 . S
C719 C389 2.298 . S
C406 C188 1.015 . S
C569 C219 1.866 . S
C748 C589 1.283 . S
C306 C779 1.728 . S
C739 C349 2.027 . S
C548 C601 1.634 . S
C241 C359 1.451 . S
C599 C636 0.717 . S
C296 C308 1.032 . S
C656 C879 0.946 . S
C399 C661 1.737 . S
C276 C848 1.368 . S
C439 C696 0.585 . S
C701 C319 1.875 . S
C736 C559 1.496 . S
C741 C348 1.642 . S
C588 C776 1.269 . S
C388 C761 1.747 . S
C716 C859 1.434 . S
C428 C721 2.205 . S
C756 C868 1.022 . S
C36 C479 1.185 . S
C959 C681 1.096 . S
C641 C468 2.298 . S
C676 C919 1.015 . S
C928 C121 1.866 . S
C519 C61 1.283 . S
C616 C528 1.728 . S
C488 C621 2.027 . S
C259 C789 1.634 . S
C549 C48 1.451 . S
C288 C806 0.717 . S
C586 C19 1.032 . S
C826 C688 0.946 . S
C88 C849 1.737 . S
C679 C566 1.368 . S
C128 C866 0.585 . S
C8 C889 1.875 . S
C906 C248 1.496 . S
C59 C929 1.642 . S
C299 C946 1.269 . S
C99 C949 1.747 . S
C668 C886 1.434 . S
C909 C139 2.205 . S
C699 C926 1.022 . S
C168 C326 1.185 . S
C869 C768 1.096 . S
C829 C179 2.298 . S
C728 C846 1.015 . S
C429 C759 1.866 . S
C369 C208 1.283 . S
C239 C786 1.728 . S
C199 C809 2.027 . S
