# Generated by pormake.
# Topology afw, (4)-cn, num edge types: 1
# Building blocks:
#     Node 0, Type 0, BuildingBlock: QUQFOY_clean_sbu_3, # of connection points: 4
#     Node 1, Type 0, BuildingBlock: QUQFOY_clean_sbu_3, # of connection points: 4
#     Node 2, Type 0, BuildingBlock: QUQFOY_clean_sbu_3, # of connection points: 4
#     Node 3, Type 0, BuildingBlock: QUQFOY_clean_sbu_3, # of connection points: 4
#     Node 4, Type 0, BuildingBlock: QUQFOY_clean_sbu_3, # of connection points: 4
#     Node 5, Type 0, BuildingBlock: QUQFOY_clean_sbu_3, # of connection points: 4
#     Node 6, Type 0, BuildingBlock: QUQFOY_clean_sbu_3, # of connection points: 4
#     Node 7, Type 0, BuildingBlock: QUQFOY_clean_sbu_3, # of connection points: 4
#     Node 8, Type 0, BuildingBlock: QUQFOY_clean_sbu_3, # of connection points: 4
#     Edge 9, Type (0, 0), BuildingBlock: AJUNOK_clean_linker_0, # of connection points: 2
#     Edge 10, Type (0, 0), BuildingBlock: AJUNOK_clean_linker_0, # of connection points: 2
#     Edge 11, Type (0, 0), BuildingBlock: AJUNOK_clean_linker_0, # of connection points: 2
#     Edge 12, Type (0, 0), BuildingBlock: AJUNOK_clean_linker_0, # of connection points: 2
#     Edge 13, Type (0, 0), BuildingBlock: AJUNOK_clean_linker_0, # of connection points: 2
#     Edge 14, Type (0, 0), BuildingBlock: AJUNOK_clean_linker_0, # of connection points: 2
#     Edge 15, Type (0, 0), BuildingBlock: AJUNOK_clean_linker_0, # of connection points: 2
#     Edge 16, Type (0, 0), BuildingBlock: AJUNOK_clean_linker_0, # of connection points: 2
#     Edge 17, Type (0, 0), BuildingBlock: AJUNOK_clean_linker_0, # of connection points: 2
#     Edge 18, Type (0, 0), BuildingBlock: AJUNOK_clean_linker_0, # of connection points: 2
#     Edge 19, Type (0, 0), BuildingBlock: AJUNOK_clean_linker_0, # of connection points: 2
#     Edge 20, Type (0, 0), BuildingBlock: AJUNOK_clean_linker_0, # of connection points: 2
#     Edge 21, Type (0, 0), BuildingBlock: AJUNOK_clean_linker_0, # of connection points: 2
#     Edge 22, Type (0, 0), BuildingBlock: AJUNOK_clean_linker_0, # of connection points: 2
#     Edge 23, Type (0, 0), BuildingBlock: AJUNOK_clean_linker_0, # of connection points: 2
#     Edge 24, Type (0, 0), BuildingBlock: AJUNOK_clean_linker_0, # of connection points: 2
#     Edge 25, Type (0, 0), BuildingBlock: AJUNOK_clean_linker_0, # of connection points: 2
#     Edge 26, Type (0, 0), BuildingBlock: AJUNOK_clean_linker_0, # of connection points: 2
# Relax obj value: 0.195
# Max RMSD: 0.208
# Mean RMSD: 0.200
data_MOF--net-afw--node1-QUQFOY_clean_sbu_3--edge1-AJUNOK_clean_linker_0
_symmetry_space_group_name_H-M    P1
_symmetry_Int_Tables_number       1
_symmetry_cell_setting            triclinic
loop_
_symmetry_equiv_pos_as_xyz
'x, y, z'
_cell_length_a     32.61237
_cell_length_b     32.843862
_cell_length_c     24.586774
_cell_angle_alpha  91.719701
_cell_angle_beta   91.11613
_cell_angle_gamma 120.48667
loop_
_atom_site_label
_atom_site_type_symbol
_atom_site_fract_x
_atom_site_fract_y
_atom_site_fract_z
_atom_type_partial_charge
C0 C 0.11182 0.19038 0.12387 0.0
O1 O 0.094 0.18255 0.17057 0.0
Cd2 Cd 0.03416 0.19958 0.19957 0.0
O3 O 0.09972 0.21058 0.08897 0.0
Cd4 Cd 0.04431 0.24058 0.08618 0.0
C5 C 0.94915 0.1303 0.10375 0.0
O6 O 0.06011 0.27969 0.17688 0.0
O7 O 0.00068 0.27302 0.12816 0.0
O8 O 0.09438 0.30905 0.0329 0.0
C9 C 0.02892 0.29134 0.16939 0.0
O10 O 0.96063 0.1361 0.15436 0.0
C11 C 0.06382 0.29569 -0.00642 0.0
O12 O 0.97478 0.162 0.07124 0.0
O13 O 0.02592 0.25596 -0.00336 0.0
C14 C 0.89745 0.85064 0.97297 0.0
O15 O 0.89251 0.86554 0.92761 0.0
Cd16 Cd 0.82552 0.87173 0.89984 0.0
O17 O 0.86453 0.83579 0.00712 0.0
Cd18 Cd 0.78329 0.82367 0.0115 0.0
C19 C 0.82927 0.94245 0.00789 0.0
O20 O 0.76166 0.7953 0.91823 0.0
O21 O 0.70922 0.80395 0.96129 0.0
O22 O 0.75803 0.74837 0.05004 0.0
C23 C 0.72004 0.78882 0.91911 0.0
O24 O 0.83439 0.93797 0.95728 0.0
C25 C 0.73949 0.75566 0.09128 0.0
O26 O 0.81272 0.90672 0.03746 0.0
O27 O 0.7432 0.79598 0.09714 0.0
C28 C 0.09275 0.91263 0.02695 0.0
O29 O 0.10973 0.91446 0.07448 0.0
Cd30 Cd 0.19093 0.97288 0.1013 0.0
O31 O 0.11939 0.93926 -0.00924 0.0
Cd32 Cd 0.20115 -0.00122 0.97281 0.0
C33 C 0.18622 0.0708 0.05982 0.0
O34 O 0.24326 0.97469 0.03404 0.0
O35 O 0.28301 0.04435 0.00227 0.0
O36 O 0.19099 0.95166 0.89163 0.0
C37 C 0.28244 0.01346 0.03234 0.0
O38 O 0.18959 0.04644 0.09724 0.0
C39 C 0.21212 0.98635 0.86112 0.0
O40 O 0.18648 0.05969 0.00971 0.0
O41 O 0.22597 0.0274 0.88197 0.0
C42 C 0.56699 0.41322 0.23107 0.0
O43 O 0.5794 0.43198 0.18532 0.0
Cd44 Cd 0.63547 0.51403 0.17231 0.0
O45 O 0.57981 0.43892 0.27503 0.0
Cd46 Cd 0.62403 0.52485 0.30129 0.0
C47 C 0.72113 0.52134 0.26355 0.0
O48 O 0.6131 0.56185 0.22228 0.0
O49 O 0.6707 0.60676 0.27993 0.0
O50 O 0.55968 0.5165 0.35714 0.0
C51 C 0.64672 0.60306 0.23704 0.0
O52 O 0.70763 0.52236 0.21484 0.0
C53 C 0.58707 0.53997 0.39786 0.0
O54 O 0.69603 0.51962 0.3035 0.0
O55 O 0.63092 0.55316 0.39486 0.0
C56 C 0.61555 0.15762 0.21988 0.0
O57 O 0.5992 0.15237 0.17122 0.0
Cd58 Cd 0.51862 0.13076 0.1463 0.0
O59 O 0.58804 0.14756 0.25955 0.0
Cd60 Cd 0.50381 0.11629 0.27683 0.0
C61 C 0.51482 0.21677 0.22828 0.0
O62 O 0.46394 0.06619 0.19629 0.0
O63 O 0.42453 0.08987 0.24463 0.0
O64 O 0.49187 0.05117 0.33061 0.0
C65 C 0.42534 0.0658 0.20384 0.0
O66 O 0.51442 0.19886 0.18138 0.0
C67 C 0.48205 0.06629 0.37361 0.0
O68 O 0.51471 0.19609 0.27153 0.0
O69 O 0.48517 0.10648 0.37259 0.0
C70 C 0.85836 0.46074 0.28231 0.0
O71 O 0.87409 0.45367 0.23825 0.0
Cd72 Cd 0.90605 0.40222 0.22512 0.0
O73 O 0.86038 0.4414 0.32558 0.0
Cd74 Cd 0.88885 0.38949 0.35708 0.0
C75 C 0.80987 0.3009 0.26832 0.0
O76 O 0.95784 0.41706 0.30199 0.0
O77 O 0.9419 0.35809 0.3508 0.0
O78 O 0.91648 0.43646 0.44142 0.0
C79 C 0.96777 0.38597 0.31539 0.0
O80 O 0.83631 0.3232 0.22949 0.0
C81 C 0.89786 0.40108 0.4714 0.0
O82 O 0.81989 0.31854 0.31696 0.0
O83 O 0.87246 0.36046 0.44786 0.0
C84 C 0.40909 0.86024 0.71886 0.0
O85 O 0.39799 0.87137 0.76384 0.0
Cd86 Cd 0.33059 0.88287 0.76799 0.0
O87 O 0.39045 0.86324 0.67443 0.0
Cd88 Cd 0.33825 0.89027 0.63854 0.0
C89 C 0.25606 0.78476 0.6837 0.0
O90 O 0.33579 0.94124 0.70873 0.0
O91 O 0.27565 0.90816 0.6505 0.0
O92 O 0.40476 0.9555 0.59975 0.0
C93 C 0.2964 0.9363 0.69151 0.0
O94 O 0.26811 0.80577 0.73072 0.0
C95 C 0.38924 0.94415 0.55069 0.0
O96 O 0.27689 0.80647 0.64137 0.0
O97 O 0.34965 0.90575 0.54154 0.0
C98 C 0.19195 0.47984 0.66035 0.0
O99 O 0.17449 0.47283 0.61204 0.0
Cd100 Cd 0.10217 0.4756 0.59728 0.0
O101 O 0.16846 0.4817 0.69992 0.0
Cd102 Cd 0.09368 0.47255 0.72863 0.0
C103 C 0.13905 0.57966 0.67462 0.0
O104 O 0.04039 0.42507 0.65555 0.0
O105 O 0.01656 0.46362 0.70635 0.0
O106 O 0.08283 0.40402 0.77033 0.0
C107 C 0.00839 0.43503 0.66605 0.0
O108 O 0.12929 0.55691 0.62875 0.0
C109 C 0.08225 0.41753 0.81897 0.0
O110 O 0.13168 0.55821 0.71912 0.0
O111 O 0.08734 0.45847 0.82689 0.0
C112 C 0.39208 0.57029 0.71621 0.0
O113 O 0.40481 0.58059 0.7663 0.0
Cd114 Cd 0.48149 0.64616 0.79811 0.0
O115 O 0.4216 0.59192 0.67978 0.0
Cd116 Cd 0.50533 0.6501 0.66875 0.0
C117 C 0.48162 0.73246 0.71991 0.0
O118 O 0.54287 0.64355 0.75139 0.0
O119 O 0.58532 0.70331 0.70216 0.0
O120 O 0.50223 0.58733 0.61223 0.0
C121 C 0.58206 0.68151 0.74497 0.0
O122 O 0.48066 0.71493 0.76574 0.0
C123 C 0.52342 0.61309 0.57294 0.0
O124 O 0.48662 0.71394 0.67589 0.0
O125 O 0.53514 0.65644 0.57727 0.0
C126 C 0.17028 0.11652 0.13069 0.0
C127 C 0.17662 0.1091 0.07553 0.0
C128 C 0.15269 0.14584 0.14635 0.0
C129 C 0.14079 0.16918 0.10759 0.0
H130 H 0.17658 0.09767 0.1621 0.0
H131 H 0.14607 0.14817 0.18902 0.0
S132 S 0.15975 0.16924 0.95901 0.0
N133 N 0.17628 0.13307 0.98286 0.0
N134 N 0.14328 0.18843 0.0123 0.0
C135 C 0.15119 0.16569 0.05284 0.0
C136 C 0.16902 0.13556 0.03681 0.0
C137 C 0.86257 -0.00185 0.08989 0.0
C138 C 0.85005 0.99068 0.03381 0.0
C139 C 0.89191 0.04385 0.1132 0.0
C140 C 0.90983 0.08389 0.08137 0.0
H141 H 0.85232 0.96843 0.11545 0.0
H142 H 0.90294 0.04743 0.15576 0.0
S143 S 0.87886 0.08412 0.93522 0.0
N144 N 0.85148 0.02761 0.949 0.0
N145 N 0.90641 0.1134 -0.00727 0.0
C146 C 0.89377 0.07715 0.02643 0.0
C147 C 0.86396 0.03061 0.00269 0.0
C148 C 0.97677 0.86467 0.94685 0.0
C149 C 0.94391 0.85525 -0.01232 0.0
C150 C 0.0242 0.87915 0.96 0.0
C151 C 0.0408 0.88498 0.01454 0.0
H152 H 0.96649 0.86327 0.90435 0.0
H153 H 0.04861 0.88853 0.9271 0.0
S154 S 0.96721 0.85656 0.13637 0.0
N155 N 0.92963 0.84621 0.08464 0.0
N156 N 0.01918 0.87379 0.10941 0.0
C157 C 0.00738 0.87119 0.05558 0.0
C158 C 0.95881 0.85627 0.04213 0.0
C159 C 0.82131 0.4993 0.23122 0.0
C160 C 0.83146 0.48607 0.28131 0.0
C161 C 0.78795 0.5139 0.22675 0.0
C162 C 0.76325 0.51589 0.27216 0.0
H163 H 0.83718 0.4959 0.19435 0.0
H164 H 0.77977 0.52125 0.18659 0.0
S165 S 0.78417 0.49462 0.41483 0.0
N166 N 0.8197 0.48313 0.37901 0.0
N167 N 0.75676 0.51043 0.37049 0.0
C168 C 0.77635 0.50714 0.32347 0.0
C169 C 0.81049 0.49226 0.32806 0.0
C170 C 0.53921 0.29358 0.27923 0.0
C171 C 0.51942 0.26415 0.2318 0.0
C172 C 0.55134 0.34119 0.28003 0.0
C173 C 0.54415 0.3611 0.23342 0.0
H174 H 0.54791 0.2806 0.31505 0.0
H175 H 0.56917 0.36315 0.31639 0.0
S176 S 0.48432 0.29655 0.10277 0.0
N177 N 0.48651 0.25657 0.13983 0.0
N178 N 0.50948 0.34585 0.14136 0.0
C179 C 0.52072 0.33101 0.18735 0.0
C180 C 0.50833 0.28262 0.18653 0.0
C181 C 0.69819 0.20989 0.18953 0.0
C182 C 0.66777 0.18429 0.2311 0.0
C183 C 0.7454 0.2454 0.20153 0.0
C184 C 0.764 0.25667 0.25557 0.0
H185 H 0.68468 0.20499 0.14779 0.0
H186 H 0.76631 0.26614 0.16848 0.0
S187 S 0.70278 0.19195 0.37738 0.0
N188 N 0.66231 0.16659 0.32708 0.0
N189 N 0.75108 0.23348 0.34964 0.0
C190 C 0.73561 0.22788 0.2967 0.0
C191 C 0.68751 0.19159 0.28445 0.0
C192 C 0.43752 0.81193 0.66973 0.0
C193 C 0.43727 0.83618 0.71798 0.0
C194 C 0.45469 0.78055 0.66986 0.0
C195 C 0.47235 0.7722 0.71821 0.0
H196 H 0.42178 0.81497 0.63199 0.0
H197 H 0.45152 0.76075 0.63241 0.0
S198 S 0.48908 0.83425 0.85292 0.0
N199 N 0.463 0.85503 0.81353 0.0
N200 N 0.49561 0.79636 0.8138 0.0
C201 C 0.47632 0.79939 0.76565 0.0
C202 C 0.45875 0.83132 0.76552 0.0
C203 C 0.20821 0.7076 0.72782 0.0
C204 C 0.22093 0.7332 0.67996 0.0
C205 C 0.18009 0.65821 0.72579 0.0
C206 C 0.16323 0.63216 0.67584 0.0
H207 H 0.22156 0.72558 0.76739 0.0
H208 H 0.17299 0.64036 0.76378 0.0
S209 S 0.18059 0.68259 0.53895 0.0
N210 N 0.21045 0.72907 0.58138 0.0
N211 N 0.15723 0.63626 0.57732 0.0
C212 C 0.17322 0.65748 0.62773 0.0
C213 C 0.20214 0.70791 0.62985 0.0
C214 C 0.2585 0.49769 0.72639 0.0
C215 C 0.24186 0.49213 0.67177 0.0
C216 C 0.30713 0.51994 0.74021 0.0
C217 C 0.34124 0.53749 0.7 0.0
H218 H 0.23398 0.48724 0.75926 0.0
H219 H 0.31796 0.5258 0.78301 0.0
S220 S 0.31594 0.5225 0.55029 0.0
N221 N 0.26298 0.49921 0.57678 0.0
N222 N 0.35459 0.5406 0.60256 0.0
C223 C 0.32493 0.52773 0.64489 0.0
C224 C 0.2752 0.50511 0.63082 0.0
C225 C 0.09592 0.3758 0.95657 0.0
C226 C 0.07005 0.32627 0.94812 0.0
C227 C 0.09867 0.40542 0.9151 0.0
C228 C 0.07647 0.38637 0.86365 0.0
H229 H 0.11323 0.39176 -0.00416 0.0
H230 H 0.11894 0.44338 0.92305 0.0
S231 S 0.0049 0.25898 0.82089 0.0
N232 N 0.02186 0.25956 0.88473 0.0
N233 N 0.02776 0.31501 0.80653 0.0
C234 C 0.05087 0.33691 0.85466 0.0
C235 C 0.04747 0.30688 0.89699 0.0
C236 C 0.63691 0.73221 0.88515 0.0
C237 C 0.68523 0.76179 0.87437 0.0
C238 C 0.60379 0.70406 0.84337 0.0
C239 C 0.61795 0.70552 0.7895 0.0
H240 H 0.62473 0.73038 0.92618 0.0
H241 H 0.56671 0.68228 0.85301 0.0
S242 S 0.74022 0.77701 0.74028 0.0
N243 N 0.74573 0.79027 0.80633 0.0
N244 N 0.68318 0.73838 0.72758 0.0
C245 C 0.66612 0.73482 0.77831 0.0
C246 C 0.69989 0.76273 0.82086 0.0
C247 C 0.2972 -0.00296 0.75489 0.0
C248 C 0.27118 0.95357 0.72529 0.0
C249 C 0.27587 0.01016 0.79523 0.0
C250 C 0.2283 0.97949 0.80817 0.0
H251 H 0.33484 0.01998 0.74862 0.0
H252 H 0.29794 0.04252 0.81955 0.0
S253 S 0.14354 0.86425 0.73841 0.0
N254 N 0.19403 0.88228 0.70745 0.0
N255 N 0.15452 0.90621 0.785 0.0
C256 C 0.20105 0.93752 0.77635 0.0
C257 C 0.2224 0.92469 0.73437 0.0
C258 C 0.36763 0.00728 0.13377 0.0
C259 C 0.39018 0.05274 0.15908 0.0
C260 C 0.33248 -0.00554 0.09235 0.0
C261 C 0.32036 0.02735 0.07423 0.0
H262 H 0.37639 0.98132 0.14695 0.0
H263 H 0.31485 0.95883 0.07426 0.0
S264 S 0.37102 0.1515 0.1267 0.0
N265 N 0.39899 0.13082 0.16298 0.0
N266 N 0.33404 0.10737 0.08442 0.0
C267 C 0.34367 0.07326 0.09859 0.0
C268 C 0.37842 0.08583 0.14128 0.0
C269 C 0.02131 0.31493 0.26372 0.0
C270 C 0.02376 0.32309 0.20796 0.0
C271 C 0.00692 0.33879 0.29953 0.0
C272 C -0.00455 0.37206 0.28069 0.0
H273 H 0.02721 0.28765 0.27906 0.0
H274 H 0.00204 0.32906 0.34164 0.0
S275 S 0.00726 0.41306 0.13975 0.0
N276 N 0.02072 0.37092 0.13641 0.0
N277 N -0.00413 0.41762 0.20407 0.0
C278 C 0.0031 0.38416 0.22593 0.0
C279 C 0.01653 0.35897 0.18932 0.0
C280 C 0.66489 0.63331 0.14396 0.0
C281 C 0.66513 0.64241 0.20015 0.0
C282 C 0.68899 0.67043 0.10908 0.0
C283 C 0.71309 0.71782 0.12906 0.0
H284 H 0.64787 0.59729 0.12716 0.0
H285 H 0.689 0.66191 0.06616 0.0
S286 S 0.72102 0.76017 0.27241 0.0
N287 N 0.68961 0.70191 0.27408 0.0
N288 N 0.73357 0.77194 0.20796 0.0
C289 C 0.71171 0.72744 0.18476 0.0
C290 C 0.68808 0.6896 0.22049 0.0
C291 C 0.94769 0.37877 0.59787 0.0
C292 C 0.97001 0.42324 0.62548 0.0
C293 C 0.9193 0.37005 0.55072 0.0
C294 C 0.91369 0.40611 0.52887 0.0
H295 H 0.95437 0.3514 0.61111 0.0
H296 H 0.90534 0.33624 0.52873 0.0
S297 S 0.95966 0.52668 0.5902 0.0
N298 N 0.98006 0.50186 0.63181 0.0
N299 N 0.92792 0.48599 0.54175 0.0
C300 C 0.93267 0.4495 0.55856 0.0
C301 C 0.96065 0.45798 0.60734 0.0
C302 C 0.59953 0.60269 0.46625 0.0
C303 C 0.57004 0.55663 0.44352 0.0
C304 C 0.58333 0.62138 0.50669 0.0
C305 C 0.5376 0.59415 0.52677 0.0
H306 H 0.63507 0.62488 0.45185 0.0
H307 H 0.60721 0.65696 0.52331 0.0
S308 S 0.44674 0.47158 0.48115 0.0
N309 N 0.49273 0.48452 0.44324 0.0
N310 N 0.46299 0.51896 0.52136 0.0
C311 C 0.50788 0.54791 0.50484 0.0
C312 C 0.52392 0.52932 0.46257 0.0
C313 C 0.41181 0.95688 0.45365 0.0
C314 C 0.41552 0.97561 0.50678 0.0
C315 C 0.43547 0.98654 0.41124 0.0
C316 C 0.46262 0.03598 0.42032 0.0
H317 H 0.39042 0.91909 0.44474 0.0
H318 H 0.43101 0.9707 0.37065 0.0
S319 S 0.48418 0.10254 0.55228 0.0
N320 N 0.44959 0.04657 0.56661 0.0
N321 N 0.49283 0.10228 0.48636 0.0
C322 C 0.46705 0.05511 0.47333 0.0
C323 C 0.44382 0.0249 0.51674 0.0
loop_
_geom_bond_atom_site_label_1
_geom_bond_atom_site_label_2
_geom_bond_distance
_geom_bond_site_symmetry_2
_ccdc_geom_bond_type
C0 O1 1.306 . S
C0 O3 1.160 1_554 S
O1 C0 1.306 . S
O1 Cd2 2.228 . S
Cd2 O1 2.228 . S
Cd2 O6 2.273 . S
Cd2 O10 2.277 1_455 S
O3 C0 1.160 1_556 S
O3 Cd4 2.203 1_556 S
Cd4 O3 2.203 1_554 S
Cd4 O6 2.411 . S
Cd4 O7 2.333 1_455 S
Cd4 O8 2.352 1_554 S
Cd4 O12 2.277 1_454 S
Cd4 O13 2.356 1_554 S
C5 O10 1.209 . S
C5 O12 1.226 1_554 S
O6 Cd2 2.273 . S
O6 Cd4 2.411 . S
O6 C9 1.320 1_455 S
O7 Cd4 2.333 1_655 S
O7 C9 1.214 . S
O8 Cd4 2.352 1_556 S
O8 C11 1.258 . S
C9 O6 1.320 1_655 S
C9 O7 1.214 . S
O10 Cd2 2.277 1_655 S
O10 C5 1.209 . S
C11 O8 1.258 . S
C11 O13 1.282 . S
O12 Cd4 2.277 1_656 S
O12 C5 1.226 1_556 S
O13 Cd4 2.356 1_556 S
O13 C11 1.282 . S
C14 O15 1.306 1_554 S
C14 O17 1.160 . S
O15 C14 1.306 1_556 S
O15 Cd16 2.228 . S
Cd16 O15 2.228 . S
Cd16 O20 2.273 . S
Cd16 O24 2.277 . S
O17 C14 1.160 . S
O17 Cd18 2.203 . S
Cd18 O17 2.203 . S
Cd18 O20 2.411 1_554 S
Cd18 O21 2.333 1_554 S
Cd18 O22 2.352 . S
Cd18 O26 2.277 . S
Cd18 O27 2.356 . S
C19 O24 1.209 1_554 S
C19 O26 1.226 . S
O20 Cd16 2.273 . S
O20 Cd18 2.411 1_556 S
O20 C23 1.320 . S
O21 Cd18 2.333 1_556 S
O21 C23 1.214 . S
O22 Cd18 2.352 . S
O22 C25 1.258 . S
C23 O20 1.320 . S
C23 O21 1.214 . S
O24 Cd16 2.277 . S
O24 C19 1.209 1_556 S
C25 O22 1.258 . S
C25 O27 1.282 . S
O26 Cd18 2.277 . S
O26 C19 1.226 . S
O27 Cd18 2.356 . S
O27 C25 1.282 . S
C28 O29 1.306 . S
C28 O31 1.160 1_554 S
O29 C28 1.306 . S
O29 Cd30 2.228 1_565 S
Cd30 O29 2.228 1_545 S
Cd30 O34 2.273 . S
Cd30 O38 2.277 . S
O31 C28 1.160 1_556 S
O31 Cd32 2.203 1_565 S
Cd32 O31 2.203 1_545 S
Cd32 O34 2.411 1_556 S
Cd32 O35 2.333 1_556 S
Cd32 O36 2.352 1_545 S
Cd32 O40 2.277 . S
Cd32 O41 2.356 . S
C33 O38 1.209 . S
C33 O40 1.226 1_554 S
O34 Cd30 2.273 . S
O34 Cd32 2.411 1_554 S
O34 C37 1.320 . S
O35 Cd32 2.333 1_554 S
O35 C37 1.214 . S
O36 Cd32 2.352 1_565 S
O36 C39 1.258 . S
C37 O34 1.320 . S
C37 O35 1.214 . S
O38 Cd30 2.277 . S
O38 C33 1.209 . S
C39 O36 1.258 . S
C39 O41 1.282 1_565 S
O40 Cd32 2.277 . S
O40 C33 1.226 1_556 S
O41 Cd32 2.356 . S
O41 C39 1.282 1_545 S
C42 O43 1.306 . S
C42 O45 1.160 . S
O43 C42 1.306 . S
O43 Cd44 2.228 . S
Cd44 O43 2.228 . S
Cd44 O48 2.273 . S
Cd44 O52 2.277 . S
O45 C42 1.160 . S
O45 Cd46 2.203 . S
Cd46 O45 2.203 . S
Cd46 O48 2.411 . S
Cd46 O49 2.333 . S
Cd46 O50 2.352 . S
Cd46 O54 2.277 . S
Cd46 O55 2.356 . S
C47 O52 1.209 . S
C47 O54 1.226 . S
O48 Cd44 2.273 . S
O48 Cd46 2.411 . S
O48 C51 1.320 . S
O49 Cd46 2.333 . S
O49 C51 1.214 . S
O50 Cd46 2.352 . S
O50 C53 1.258 . S
C51 O48 1.320 . S
C51 O49 1.214 . S
O52 Cd44 2.277 . S
O52 C47 1.209 . S
C53 O50 1.258 . S
C53 O55 1.282 . S
O54 Cd46 2.277 . S
O54 C47 1.226 . S
O55 Cd46 2.356 . S
O55 C53 1.282 . S
C56 O57 1.306 . S
C56 O59 1.160 . S
O57 C56 1.306 . S
O57 Cd58 2.228 . S
Cd58 O57 2.228 . S
Cd58 O62 2.273 . S
Cd58 O66 2.277 . S
O59 C56 1.160 . S
O59 Cd60 2.203 . S
Cd60 O59 2.203 . S
Cd60 O62 2.411 . S
Cd60 O63 2.333 . S
Cd60 O64 2.352 . S
Cd60 O68 2.277 . S
Cd60 O69 2.356 . S
C61 O66 1.209 . S
C61 O68 1.226 . S
O62 Cd58 2.273 . S
O62 Cd60 2.411 . S
O62 C65 1.320 . S
O63 Cd60 2.333 . S
O63 C65 1.214 . S
O64 Cd60 2.352 . S
O64 C67 1.258 . S
C65 O62 1.320 . S
C65 O63 1.214 . S
O66 Cd58 2.277 . S
O66 C61 1.209 . S
C67 O64 1.258 . S
C67 O69 1.282 . S
O68 Cd60 2.277 . S
O68 C61 1.226 . S
O69 Cd60 2.356 . S
O69 C67 1.282 . S
C70 O71 1.306 . S
C70 O73 1.160 . S
O71 C70 1.306 . S
O71 Cd72 2.228 . S
Cd72 O71 2.228 . S
Cd72 O76 2.273 . S
Cd72 O80 2.277 . S
O73 C70 1.160 . S
O73 Cd74 2.203 . S
Cd74 O73 2.203 . S
Cd74 O76 2.411 . S
Cd74 O77 2.333 . S
Cd74 O78 2.352 . S
Cd74 O82 2.277 . S
Cd74 O83 2.356 . S
C75 O80 1.209 . S
C75 O82 1.226 . S
O76 Cd72 2.273 . S
O76 Cd74 2.411 . S
O76 C79 1.320 . S
O77 Cd74 2.333 . S
O77 C79 1.214 . S
O78 Cd74 2.352 . S
O78 C81 1.258 . S
C79 O76 1.320 . S
C79 O77 1.214 . S
O80 Cd72 2.277 . S
O80 C75 1.209 . S
C81 O78 1.258 . S
C81 O83 1.282 . S
O82 Cd74 2.277 . S
O82 C75 1.226 . S
O83 Cd74 2.356 . S
O83 C81 1.282 . S
C84 O85 1.306 . S
C84 O87 1.160 . S
O85 C84 1.306 . S
O85 Cd86 2.228 . S
Cd86 O85 2.228 . S
Cd86 O90 2.273 . S
Cd86 O94 2.277 . S
O87 C84 1.160 . S
O87 Cd88 2.203 . S
Cd88 O87 2.203 . S
Cd88 O90 2.411 . S
Cd88 O91 2.333 . S
Cd88 O92 2.352 . S
Cd88 O96 2.277 . S
Cd88 O97 2.356 . S
C89 O94 1.209 . S
C89 O96 1.226 . S
O90 Cd86 2.273 . S
O90 Cd88 2.411 . S
O90 C93 1.320 . S
O91 Cd88 2.333 . S
O91 C93 1.214 . S
O92 Cd88 2.352 . S
O92 C95 1.258 . S
C93 O90 1.320 . S
C93 O91 1.214 . S
O94 Cd86 2.277 . S
O94 C89 1.209 . S
C95 O92 1.258 . S
C95 O97 1.282 . S
O96 Cd88 2.277 . S
O96 C89 1.226 . S
O97 Cd88 2.356 . S
O97 C95 1.282 . S
C98 O99 1.306 . S
C98 O101 1.160 . S
O99 C98 1.306 . S
O99 Cd100 2.228 . S
Cd100 O99 2.228 . S
Cd100 O104 2.273 . S
Cd100 O108 2.277 . S
O101 C98 1.160 . S
O101 Cd102 2.203 . S
Cd102 O101 2.203 . S
Cd102 O104 2.411 . S
Cd102 O105 2.333 . S
Cd102 O106 2.352 . S
Cd102 O110 2.277 . S
Cd102 O111 2.356 . S
C103 O108 1.209 . S
C103 O110 1.226 . S
O104 Cd100 2.273 . S
O104 Cd102 2.411 . S
O104 C107 1.320 . S
O105 Cd102 2.333 . S
O105 C107 1.214 . S
O106 Cd102 2.352 . S
O106 C109 1.258 . S
C107 O104 1.320 . S
C107 O105 1.214 . S
O108 Cd100 2.277 . S
O108 C103 1.209 . S
C109 O106 1.258 . S
C109 O111 1.282 . S
O110 Cd102 2.277 . S
O110 C103 1.226 . S
O111 Cd102 2.356 . S
O111 C109 1.282 . S
C112 O113 1.306 . S
C112 O115 1.160 . S
O113 C112 1.306 . S
O113 Cd114 2.228 . S
Cd114 O113 2.228 . S
Cd114 O118 2.273 . S
Cd114 O122 2.277 . S
O115 C112 1.160 . S
O115 Cd116 2.203 . S
Cd116 O115 2.203 . S
Cd116 O118 2.411 . S
Cd116 O119 2.333 . S
Cd116 O120 2.352 . S
Cd116 O124 2.277 . S
Cd116 O125 2.356 . S
C117 O122 1.209 . S
C117 O124 1.226 . S
O118 Cd114 2.273 . S
O118 Cd116 2.411 . S
O118 C121 1.320 . S
O119 Cd116 2.333 . S
O119 C121 1.214 . S
O120 Cd116 2.352 . S
O120 C123 1.258 . S
C121 O118 1.320 . S
C121 O119 1.214 . S
O122 Cd114 2.277 . S
O122 C117 1.209 . S
C123 O120 1.258 . S
C123 O125 1.282 . S
O124 Cd116 2.277 . S
O124 C117 1.226 . S
O125 Cd116 2.356 . S
O125 C123 1.282 . S
C126 C127 1.369 . S
C126 C128 1.419 . S
C126 H130 0.930 . S
C127 C126 1.369 . S
C127 C136 1.429 1_554 S
C128 C126 1.419 . S
C128 C129 1.363 . S
C128 H131 0.929 . S
C129 C128 1.363 . S
C129 C135 1.428 . S
H130 C126 0.930 . S
H131 C128 0.929 . S
S132 N133 1.613 . S
S132 N134 1.610 . S
N133 S132 1.613 . S
N133 C136 1.350 . S
N134 S132 1.610 . S
N134 C135 1.351 1_556 S
C135 C129 1.428 . S
C135 N134 1.351 1_554 S
C135 C136 1.434 1_554 S
C136 C127 1.429 1_556 S
C136 N133 1.350 . S
C136 C135 1.434 1_556 S
C137 C138 1.369 . S
C137 C139 1.419 1_565 S
C137 H141 0.930 . S
C138 C137 1.369 . S
C138 C147 1.429 1_554 S
C139 C137 1.419 1_545 S
C139 C140 1.363 . S
C139 H142 0.929 . S
C140 C139 1.363 . S
C140 C146 1.428 1_554 S
H141 C137 0.930 . S
H142 C139 0.929 . S
S143 N144 1.613 1_545 S
S143 N145 1.610 . S
N144 S143 1.613 1_565 S
N144 C147 1.350 . S
N145 S143 1.610 . S
N145 C146 1.351 . S
C146 C140 1.428 1_556 S
C146 N145 1.351 . S
C146 C147 1.434 1_545 S
C147 C138 1.429 1_556 S
C147 N144 1.350 . S
C147 C146 1.434 1_565 S
C148 C149 1.369 1_556 S
C148 C150 1.419 1_655 S
C148 H152 0.930 . S
C149 C148 1.369 1_554 S
C149 C158 1.429 . S
C150 C148 1.419 1_455 S
C150 C151 1.363 1_556 S
C150 H153 0.929 . S
C151 C150 1.363 1_554 S
C151 C157 1.428 . S
H152 C148 0.930 . S
H153 C150 0.929 . S
S154 N155 1.613 1_455 S
S154 N156 1.610 . S
N155 S154 1.613 1_655 S
N155 C158 1.350 . S
N156 S154 1.610 . S
N156 C157 1.351 . S
C157 C151 1.428 . S
C157 N156 1.351 . S
C157 C158 1.434 1_455 S
C158 C149 1.429 . S
C158 N155 1.350 . S
C158 C157 1.434 1_655 S
C159 C160 1.369 . S
C159 C161 1.419 . S
C159 H163 0.930 . S
C160 C159 1.369 . S
C160 C169 1.429 . S
C161 C159 1.419 . S
C161 C162 1.363 . S
C161 H164 0.929 . S
C162 C161 1.363 . S
C162 C168 1.428 . S
H163 C159 0.930 . S
H164 C161 0.929 . S
S165 N166 1.613 . S
S165 N167 1.610 . S
N166 S165 1.613 . S
N166 C169 1.350 . S
N167 S165 1.610 . S
N167 C168 1.351 . S
C168 C162 1.428 . S
C168 N167 1.351 . S
C168 C169 1.434 . S
C169 C160 1.429 . S
C169 N166 1.350 . S
C169 C168 1.434 . S
C170 C171 1.369 . S
C170 C172 1.419 . S
C170 H174 0.930 . S
C171 C170 1.369 . S
C171 C180 1.429 . S
C172 C170 1.419 . S
C172 C173 1.363 . S
C172 H175 0.929 . S
C173 C172 1.363 . S
C173 C179 1.428 . S
H174 C170 0.930 . S
H175 C172 0.929 . S
S176 N177 1.613 . S
S176 N178 1.610 . S
N177 S176 1.613 . S
N177 C180 1.350 . S
N178 S176 1.610 . S
N178 C179 1.351 . S
C179 C173 1.428 . S
C179 N178 1.351 . S
C179 C180 1.434 . S
C180 C171 1.429 . S
C180 N177 1.350 . S
C180 C179 1.434 . S
C181 C182 1.369 . S
C181 C183 1.419 . S
C181 H185 0.930 . S
C182 C181 1.369 . S
C182 C191 1.429 . S
C183 C181 1.419 . S
C183 C184 1.363 . S
C183 H186 0.929 . S
C184 C183 1.363 . S
C184 C190 1.428 . S
H185 C181 0.930 . S
H186 C183 0.929 . S
S187 N188 1.613 . S
S187 N189 1.610 . S
N188 S187 1.613 . S
N188 C191 1.350 . S
N189 S187 1.610 . S
N189 C190 1.351 . S
C190 C184 1.428 . S
C190 N189 1.351 . S
C190 C191 1.434 . S
C191 C182 1.429 . S
C191 N188 1.350 . S
C191 C190 1.434 . S
C192 C193 1.369 . S
C192 C194 1.419 . S
C192 H196 0.930 . S
C193 C192 1.369 . S
C193 C202 1.429 . S
C194 C192 1.419 . S
C194 C195 1.363 . S
C194 H197 0.929 . S
C195 C194 1.363 . S
C195 C201 1.428 . S
H196 C192 0.930 . S
H197 C194 0.929 . S
S198 N199 1.613 . S
S198 N200 1.610 . S
N199 S198 1.613 . S
N199 C202 1.350 . S
N200 S198 1.610 . S
N200 C201 1.351 . S
C201 C195 1.428 . S
C201 N200 1.351 . S
C201 C202 1.434 . S
C202 C193 1.429 . S
C202 N199 1.350 . S
C202 C201 1.434 . S
C203 C204 1.369 . S
C203 C205 1.419 . S
C203 H207 0.930 . S
C204 C203 1.369 . S
C204 C213 1.429 . S
C205 C203 1.419 . S
C205 C206 1.363 . S
C205 H208 0.929 . S
C206 C205 1.363 . S
C206 C212 1.428 . S
H207 C203 0.930 . S
H208 C205 0.929 . S
S209 N210 1.613 . S
S209 N211 1.610 . S
N210 S209 1.613 . S
N210 C213 1.350 . S
N211 S209 1.610 . S
N211 C212 1.351 . S
C212 C206 1.428 . S
C212 N211 1.351 . S
C212 C213 1.434 . S
C213 C204 1.429 . S
C213 N210 1.350 . S
C213 C212 1.434 . S
C214 C215 1.369 . S
C214 C216 1.419 . S
C214 H218 0.930 . S
C215 C214 1.369 . S
C215 C224 1.429 . S
C216 C214 1.419 . S
C216 C217 1.363 . S
C216 H219 0.929 . S
C217 C216 1.363 . S
C217 C223 1.428 . S
H218 C214 0.930 . S
H219 C216 0.929 . S
S220 N221 1.613 . S
S220 N222 1.610 . S
N221 S220 1.613 . S
N221 C224 1.350 . S
N222 S220 1.610 . S
N222 C223 1.351 . S
C223 C217 1.428 . S
C223 N222 1.351 . S
C223 C224 1.434 . S
C224 C215 1.429 . S
C224 N221 1.350 . S
C224 C223 1.434 . S
C225 C226 1.369 . S
C225 C227 1.419 . S
C225 H229 0.930 . S
C226 C225 1.369 . S
C226 C235 1.429 . S
C227 C225 1.419 . S
C227 C228 1.363 . S
C227 H230 0.929 . S
C228 C227 1.363 . S
C228 C234 1.428 . S
H229 C225 0.930 . S
H230 C227 0.929 . S
S231 N232 1.613 . S
S231 N233 1.610 . S
N232 S231 1.613 . S
N232 C235 1.350 . S
N233 S231 1.610 . S
N233 C234 1.351 . S
C234 C228 1.428 . S
C234 N233 1.351 . S
C234 C235 1.434 . S
C235 C226 1.429 . S
C235 N232 1.350 . S
C235 C234 1.434 . S
C236 C237 1.369 . S
C236 C238 1.419 . S
C236 H240 0.930 . S
C237 C236 1.369 . S
C237 C246 1.429 . S
C238 C236 1.419 . S
C238 C239 1.363 . S
C238 H241 0.929 . S
C239 C238 1.363 . S
C239 C245 1.428 . S
H240 C236 0.930 . S
H241 C238 0.929 . S
S242 N243 1.613 . S
S242 N244 1.610 . S
N243 S242 1.613 . S
N243 C246 1.350 . S
N244 S242 1.610 . S
N244 C245 1.351 . S
C245 C239 1.428 . S
C245 N244 1.351 . S
C245 C246 1.434 . S
C246 C237 1.429 . S
C246 N243 1.350 . S
C246 C245 1.434 . S
C247 C248 1.369 . S
C247 C249 1.419 . S
C247 H251 0.930 . S
C248 C247 1.369 . S
C248 C257 1.429 . S
C249 C247 1.419 . S
C249 C250 1.363 . S
C249 H252 0.929 1_565 S
C250 C249 1.363 . S
C250 C256 1.428 . S
H251 C247 0.930 . S
H252 C249 0.929 1_545 S
S253 N254 1.613 . S
S253 N255 1.610 . S
N254 S253 1.613 . S
N254 C257 1.350 . S
N255 S253 1.610 . S
N255 C256 1.351 . S
C256 C250 1.428 . S
C256 N255 1.351 . S
C256 C257 1.434 . S
C257 C248 1.429 . S
C257 N254 1.350 . S
C257 C256 1.434 . S
C258 C259 1.369 . S
C258 C260 1.419 . S
C258 H262 0.930 . S
C259 C258 1.369 . S
C259 C268 1.429 . S
C260 C258 1.419 . S
C260 C261 1.363 . S
C260 H263 0.929 . S
C261 C260 1.363 . S
C261 C267 1.428 . S
H262 C258 0.930 . S
H263 C260 0.929 . S
S264 N265 1.613 . S
S264 N266 1.610 . S
N265 S264 1.613 . S
N265 C268 1.350 . S
N266 S264 1.610 . S
N266 C267 1.351 . S
C267 C261 1.428 . S
C267 N266 1.351 . S
C267 C268 1.434 . S
C268 C259 1.429 . S
C268 N265 1.350 . S
C268 C267 1.434 . S
C269 C270 1.369 . S
C269 C271 1.419 . S
C269 H273 0.930 . S
C270 C269 1.369 . S
C270 C279 1.429 . S
C271 C269 1.419 . S
C271 C272 1.363 . S
C271 H274 0.929 . S
C272 C271 1.363 . S
C272 C278 1.428 . S
H273 C269 0.930 . S
H274 C271 0.929 . S
S275 N276 1.613 . S
S275 N277 1.610 1_455 S
N276 S275 1.613 . S
N276 C279 1.350 1_455 S
N277 S275 1.610 1_655 S
N277 C278 1.351 . S
C278 C272 1.428 . S
C278 N277 1.351 . S
C278 C279 1.434 . S
C279 C270 1.429 . S
C279 N276 1.350 1_655 S
C279 C278 1.434 . S
C280 C281 1.369 . S
C280 C282 1.419 . S
C280 H284 0.930 . S
C281 C280 1.369 . S
C281 C290 1.429 . S
C282 C280 1.419 . S
C282 C283 1.363 . S
C282 H285 0.929 . S
C283 C282 1.363 . S
C283 C289 1.428 . S
H284 C280 0.930 . S
H285 C282 0.929 . S
S286 N287 1.613 . S
S286 N288 1.610 . S
N287 S286 1.613 . S
N287 C290 1.350 . S
N288 S286 1.610 . S
N288 C289 1.351 . S
C289 C283 1.428 . S
C289 N288 1.351 . S
C289 C290 1.434 . S
C290 C281 1.429 . S
C290 N287 1.350 . S
C290 C289 1.434 . S
C291 C292 1.369 . S
C291 C293 1.419 . S
C291 H295 0.930 . S
C292 C291 1.369 . S
C292 C301 1.429 . S
C293 C291 1.419 . S
C293 C294 1.363 1_455 S
C293 H296 0.929 . S
C294 C293 1.363 1_655 S
C294 C300 1.428 . S
H295 C291 0.930 . S
H296 C293 0.929 . S
S297 N298 1.630 . S
S297 N299 1.610 . S
N298 S297 1.630 . S
N298 C301 1.340 1_655 S
N299 S297 1.610 . S
N299 C300 1.351 . S
C300 C294 1.428 . S
C300 N299 1.351 . S
C300 C301 1.434 1_655 S
C301 C292 1.429 . S
C301 N298 1.340 1_455 S
C301 C300 1.434 1_455 S
C302 C303 1.369 . S
C302 C304 1.419 . S
C302 H306 0.930 . S
C303 C302 1.369 . S
C303 C312 1.429 . S
C304 C302 1.419 . S
C304 C305 1.363 . S
C304 H307 0.929 . S
C305 C304 1.363 . S
C305 C311 1.428 . S
H306 C302 0.930 . S
H307 C304 0.929 . S
S308 N309 1.613 . S
S308 N310 1.610 . S
N309 S308 1.613 . S
N309 C312 1.350 . S
N310 S308 1.610 . S
N310 C311 1.351 . S
C311 C305 1.428 . S
C311 N310 1.351 . S
C311 C312 1.434 . S
C312 C303 1.429 . S
C312 N309 1.350 . S
C312 C311 1.434 . S
C313 C314 1.369 . S
C313 C315 1.419 1_565 S
C313 H317 0.930 . S
C314 C313 1.369 . S
C314 C323 1.429 1_565 S
C315 C313 1.419 1_545 S
C315 C316 1.363 . S
C315 H318 0.929 . S
C316 C315 1.363 . S
C316 C322 1.428 . S
H317 C313 0.930 . S
H318 C315 0.929 . S
S319 N320 1.613 . S
S319 N321 1.610 . S
N320 S319 1.613 . S
N320 C323 1.350 . S
N321 S319 1.610 . S
N321 C322 1.351 . S
C322 C316 1.428 . S
C322 N321 1.351 . S
C322 C323 1.434 . S
C323 C314 1.429 1_545 S
C323 N320 1.350 . S
C323 C322 1.434 . S
C127 C33 1.210 . S
C129 C0 1.206 . S
C138 C19 1.233 . S
C140 C5 1.229 . S
C149 C14 1.190 . S
C151 C28 1.194 . S
C160 C70 1.191 . S
C162 C47 1.198 . S
C171 C61 1.177 . S
C173 C42 1.173 . S
C182 C56 1.205 . S
C184 C75 1.211 . S
C193 C84 1.176 . S
C195 C117 1.180 . S
C204 C89 1.178 . S
C206 C103 1.179 . S
C215 C98 1.143 . S
C217 C112 1.150 . S
C226 C11 1.415 . S
C228 C109 1.415 . S
C237 C23 1.440 . S
C239 C121 1.439 . S
C248 C93 1.423 . S
C250 C39 1.426 . S
C259 C65 1.403 . S
C261 C37 1.406 . S
C270 C9 1.440 . S
C272 C79 1.441 . S
C281 C51 1.429 . S
C283 C25 1.437 . S
C292 C107 1.429 . S
C294 C81 1.426 . S
C303 C53 1.416 . S
C305 C123 1.414 . S
C314 C95 1.446 . S
C316 C67 1.443 . S
