# Generated by pormake.
# Topology smi, (6)-cn, num edge types: 1
# Building blocks:
#     Node 0, Type 0, BuildingBlock: IZENUY_clean_sbu_0, # of connection points: 6
#     Node 1, Type 0, BuildingBlock: IZENUY_clean_sbu_0, # of connection points: 6
#     Node 2, Type 0, BuildingBlock: IZENUY_clean_sbu_0, # of connection points: 6
#     Node 3, Type 0, BuildingBlock: IZENUY_clean_sbu_0, # of connection points: 6
#     Node 4, Type 0, BuildingBlock: IZENUY_clean_sbu_0, # of connection points: 6
#     Node 5, Type 0, BuildingBlock: IZENUY_clean_sbu_0, # of connection points: 6
#     Edge 6, Type (0, 0), BuildingBlock: ZUJKAS_clean_linker_0, # of connection points: 2
#     Edge 7, Type (0, 0), BuildingBlock: ZUJKAS_clean_linker_0, # of connection points: 2
#     Edge 8, Type (0, 0), BuildingBlock: ZUJKAS_clean_linker_0, # of connection points: 2
#     Edge 9, Type (0, 0), BuildingBlock: ZUJKAS_clean_linker_0, # of connection points: 2
#     Edge 10, Type (0, 0), BuildingBlock: ZUJKAS_clean_linker_0, # of connection points: 2
#     Edge 11, Type (0, 0), BuildingBlock: ZUJKAS_clean_linker_0, # of connection points: 2
#     Edge 12, Type (0, 0), BuildingBlock: ZUJKAS_clean_linker_0, # of connection points: 2
#     Edge 13, Type (0, 0), BuildingBlock: ZUJKAS_clean_linker_0, # of connection points: 2
#     Edge 14, Type (0, 0), BuildingBlock: ZUJKAS_clean_linker_0, # of connection points: 2
#     Edge 15, Type (0, 0), BuildingBlock: ZUJKAS_clean_linker_0, # of connection points: 2
#     Edge 16, Type (0, 0), BuildingBlock: ZUJKAS_clean_linker_0, # of connection points: 2
#     Edge 17, Type (0, 0), BuildingBlock: ZUJKAS_clean_linker_0, # of connection points: 2
#     Edge 18, Type (0, 0), BuildingBlock: ZUJKAS_clean_linker_0, # of connection points: 2
#     Edge 19, Type (0, 0), BuildingBlock: ZUJKAS_clean_linker_0, # of connection points: 2
#     Edge 20, Type (0, 0), BuildingBlock: ZUJKAS_clean_linker_0, # of connection points: 2
#     Edge 21, Type (0, 0), BuildingBlock: ZUJKAS_clean_linker_0, # of connection points: 2
#     Edge 22, Type (0, 0), BuildingBlock: ZUJKAS_clean_linker_0, # of connection points: 2
#     Edge 23, Type (0, 0), BuildingBlock: ZUJKAS_clean_linker_0, # of connection points: 2
# Relax obj value: 0.337
# Max RMSD: 0.277
# Mean RMSD: 0.276
data_MOF--net-smi--node1-IZENUY_clean_sbu_0--edge1-ZUJKAS_clean_linker_0
_symmetry_space_group_name_H-M    P1
_symmetry_Int_Tables_number       1
_symmetry_cell_setting            triclinic
loop_
_symmetry_equiv_pos_as_xyz
'x, y, z'
_cell_length_a     34.532341
_cell_length_b     34.426911
_cell_length_c     51.283106
_cell_angle_alpha  89.932608
_cell_angle_beta   90.05101
_cell_angle_gamma 120.26707
loop_
_atom_site_label
_atom_site_type_symbol
_atom_site_fract_x
_atom_site_fract_y
_atom_site_fract_z
_atom_type_partial_charge
Fe0 Fe 0.10144 0.55516 0.1104 0.0
Fe1 Fe 0.1884 0.5802 0.08141 0.0
O2 O 0.12928 0.55273 0.08195 0.0
Fe3 Fe 0.09807 0.52314 0.05403 0.0
O4 O 0.07374 0.55873 0.05155 0.0
O5 O 0.05427 0.55422 0.09269 0.0
O6 O 0.12963 0.61614 0.10941 0.0
C7 C 0.17169 0.6411 0.10971 0.0
C8 C 0.04656 0.46757 0.09644 0.0
O9 O 0.19685 0.62577 0.10337 0.0
C10 C 0.16242 0.49965 0.0533 0.0
O11 O 0.14326 0.55616 0.13323 0.0
O12 O 0.18912 0.54624 0.10815 0.0
O13 O 0.04976 0.47962 0.07275 0.0
O14 O 0.07188 0.49479 0.11353 0.0
C15 C 0.17243 0.60147 0.03288 0.0
O16 O 0.19096 0.53973 0.05937 0.0
O17 O 0.12097 0.48585 0.05419 0.0
C18 C 0.17242 0.5444 0.13028 0.0
O19 O 0.1913 0.61588 0.05463 0.0
O20 O 0.14048 0.56128 0.03043 0.0
C21 C 0.05159 0.56412 0.06918 0.0
Fe22 Fe 0.56168 0.09618 0.22479 0.0
Fe23 Fe 0.58625 0.18551 0.25113 0.0
O24 O 0.55767 0.12618 0.2517 0.0
Fe25 Fe 0.52505 0.09699 0.27933 0.0
O26 O 0.55922 0.0718 0.28516 0.0
O27 O 0.55851 0.04995 0.24475 0.0
O28 O 0.62243 0.1238 0.22719 0.0
C29 C 0.64788 0.16591 0.22617 0.0
C30 C 0.47301 0.04318 0.23682 0.0
O31 O 0.63297 0.19195 0.23111 0.0
C32 C 0.50356 0.16261 0.27538 0.0
O33 O 0.56489 0.13677 0.20027 0.0
O34 O 0.55525 0.18565 0.22276 0.0
O35 O 0.48304 0.0476 0.26085 0.0
O36 O 0.5018 0.06705 0.22002 0.0
C37 C 0.60183 0.1714 0.30119 0.0
O38 O 0.54457 0.19025 0.2709 0.0
O39 O 0.48898 0.12084 0.27547 0.0
C40 C 0.5537 0.16662 0.20147 0.0
O41 O 0.61904 0.1887 0.2795 0.0
O42 O 0.56103 0.14084 0.30282 0.0
C43 C 0.56563 0.04824 0.26889 0.0
Fe44 Fe 0.40303 0.58363 0.4163 0.0
Fe45 Fe 0.43012 0.52167 0.44354 0.0
O46 O 0.43594 0.55757 0.41717 0.0
Fe47 Fe 0.47462 0.5668 0.39186 0.0
O48 O 0.48863 0.62477 0.38502 0.0
O49 O 0.45195 0.63941 0.41473 0.0
O50 O 0.40392 0.5911 0.45182 0.0
C51 C 0.42999 0.59096 0.46921 0.0
C52 C 0.40256 0.55751 0.36378 0.0
O53 O 0.44867 0.5677 0.46663 0.0
C54 C 0.43382 0.47373 0.40227 0.0
O55 O 0.35116 0.52996 0.41762 0.0
O56 O 0.37105 0.50291 0.45022 0.0
O57 O 0.43055 0.54465 0.36735 0.0
O58 O 0.39668 0.58068 0.38079 0.0
C59 C 0.52317 0.56837 0.43436 0.0
O60 O 0.41128 0.4739 0.42165 0.0
O61 O 0.46683 0.51008 0.39395 0.0
C62 C 0.34076 0.50278 0.43632 0.0
O63 O 0.48809 0.53379 0.44234 0.0
O64 O 0.52155 0.5897 0.41473 0.0
C65 C 0.4822 0.65258 0.39764 0.0
Fe66 Fe 0.81475 0.42142 0.58461 0.0
Fe67 Fe 0.90206 0.48491 0.55616 0.0
O68 O 0.87391 0.44909 0.58301 0.0
Fe69 Fe 0.90413 0.44049 0.60816 0.0
O70 O 0.87426 0.37976 0.60349 0.0
O71 O 0.80762 0.3726 0.60288 0.0
O72 O 0.80993 0.39065 0.55506 0.0
C73 C 0.82725 0.40929 0.53362 0.0
C74 C 0.83717 0.4499 0.63473 0.0
O75 O 0.85746 0.45049 0.53254 0.0
C76 C 0.95847 0.53115 0.59941 0.0
O77 O 0.80953 0.46466 0.5667 0.0
O78 O 0.87841 0.52058 0.56269 0.0
O79 O 0.86552 0.4367 0.63411 0.0
O80 O 0.81726 0.45084 0.61427 0.0
C81 C 0.95025 0.44179 0.56183 0.0
O82 O 0.95174 0.52527 0.57504 0.0
O83 O 0.93598 0.49978 0.61525 0.0
C84 C 0.83684 0.506 0.56297 0.0
O85 O 0.92744 0.45214 0.5473 0.0
O86 O 0.94821 0.44365 0.58646 0.0
C87 C 0.83227 0.35549 0.60543 0.0
Fe88 Fe 0.44005 0.90469 0.72227 0.0
Fe89 Fe 0.40681 0.81576 0.75182 0.0
O90 O 0.44164 0.87495 0.75018 0.0
Fe91 Fe 0.4779 0.90393 0.77673 0.0
O92 O 0.45123 0.93678 0.78189 0.0
O93 O 0.44826 0.9543 0.74086 0.0
O94 O 0.38012 0.88294 0.72505 0.0
C95 C 0.351 0.84175 0.72561 0.0
C96 C 0.53022 0.95189 0.73247 0.0
O97 O 0.36149 0.81281 0.73193 0.0
C98 C 0.48735 0.83016 0.77551 0.0
O99 O 0.43192 0.86022 0.69916 0.0
O100 O 0.43333 0.80802 0.72355 0.0
O101 O 0.52245 0.94881 0.75675 0.0
O102 O 0.49937 0.92873 0.71657 0.0
C103 C 0.39764 0.83802 0.8013 0.0
O104 O 0.44544 0.80676 0.77197 0.0
O105 O 0.50714 0.87247 0.77357 0.0
C106 C 0.437 0.82633 0.70165 0.0
O107 O 0.37808 0.82016 0.78017 0.0
O108 O 0.43969 0.86497 0.80179 0.0
C109 C 0.44558 0.96025 0.7651 0.0
Fe110 Fe 0.59072 0.40235 0.91861 0.0
Fe111 Fe 0.57016 0.46945 0.94503 0.0
O112 O 0.56606 0.43651 0.91743 0.0
Fe113 Fe 0.53782 0.4376 0.88877 0.0
O114 O 0.4993 0.37714 0.88931 0.0
O115 O 0.55115 0.35943 0.89621 0.0
O116 O 0.55415 0.36946 0.94497 0.0
C117 C 0.55252 0.38603 0.96659 0.0
C118 C 0.61605 0.43924 0.87017 0.0
O119 O 0.56749 0.42798 0.96885 0.0
C120 C 0.58066 0.52676 0.90233 0.0
O121 O 0.63535 0.43828 0.94128 0.0
O122 O 0.6314 0.49959 0.94446 0.0
O123 O 0.57658 0.43206 0.86656 0.0
O124 O 0.62849 0.43365 0.89231 0.0
C125 C 0.48295 0.43791 0.93019 0.0
O126 O 0.57232 0.51621 0.92618 0.0
O127 O 0.57407 0.49767 0.88541 0.0
C128 C 0.65349 0.47964 0.94662 0.0
O129 O 0.51011 0.44178 0.9478 0.0
O130 O 0.49441 0.44365 0.90633 0.0
C131 C 0.51185 0.34853 0.88934 0.0
H132 H 0.23463 0.5173 0.13141 0.0
H133 H 0.27108 0.50746 0.16971 0.0
H134 H 0.19205 0.5412 0.21976 0.0
H135 H 0.15486 0.5503 0.18171 0.0
H136 H 0.32227 0.57192 0.20493 0.0
H137 H 0.17922 0.4307 0.25568 0.0
H138 H 0.17609 0.44474 0.2221 0.0
H139 H 0.16859 0.47536 0.24815 0.0
C140 C 0.22451 0.52202 0.15058 0.0
C141 C 0.19182 0.53468 0.15347 0.0
C142 C 0.24541 0.51637 0.17245 0.0
C143 C 0.2339 0.523 0.19761 0.0
C144 C 0.20073 0.53483 0.20057 0.0
H145 H 0.33491 0.57344 0.35178 0.0
H146 H 0.29526 0.5603 0.31048 0.0
C147 C 0.17969 0.54033 0.17875 0.0
C148 C 0.25892 0.52111 0.22066 0.0
H149 H 0.24505 0.47598 0.28164 0.0
C150 C 0.30554 0.55036 0.22152 0.0
C151 C 0.23704 0.49287 0.24226 0.0
C152 C 0.18754 0.45882 0.24193 0.0
C153 C 0.33048 0.55382 0.24393 0.0
C154 C 0.30824 0.527 0.2659 0.0
C155 C 0.26194 0.49657 0.26473 0.0
C156 C 0.33174 0.53291 0.29102 0.0
C157 C 0.38005 0.58764 0.24442 0.0
C158 C 0.36511 0.52132 0.29383 0.0
C159 C 0.388 0.52877 0.31754 0.0
C160 C 0.37792 0.54809 0.33874 0.0
C161 C 0.34387 0.55887 0.33584 0.0
C162 C 0.32098 0.55122 0.31227 0.0
H163 H 0.39089 0.61027 0.22718 0.0
H164 H 0.38892 0.60845 0.26236 0.0
H165 H 0.39913 0.56961 0.24464 0.0
H166 H 0.37352 0.50668 0.27768 0.0
H167 H 0.41384 0.51985 0.31916 0.0
H168 H 0.5698 0.18809 0.34535 0.0
H169 H 0.61211 0.22798 0.38415 0.0
H170 H 0.7321 0.23945 0.35054 0.0
H171 H 0.69026 0.20244 0.31078 0.0
H172 H 0.65251 0.21127 0.41937 0.0
H173 H 0.78063 0.36609 0.36982 0.0
H174 H 0.73262 0.3227 0.35285 0.0
H175 H 0.78124 0.31725 0.35842 0.0
C176 C 0.60525 0.19925 0.34629 0.0
C177 C 0.627 0.19261 0.32514 0.0
C178 C 0.62943 0.22202 0.36845 0.0
C179 C 0.67563 0.23769 0.37014 0.0
C180 C 0.69695 0.22926 0.34937 0.0
H181 H 0.80313 0.32265 0.5236 0.0
H182 H 0.76977 0.28025 0.4835 0.0
C183 C 0.673 0.20772 0.32681 0.0
C184 C 0.70086 0.26241 0.39379 0.0
H185 H 0.79291 0.35897 0.41465 0.0
C186 C 0.68309 0.24371 0.41831 0.0
C187 C 0.74049 0.30505 0.39249 0.0
C188 C 0.75958 0.32915 0.36699 0.0
C189 C 0.7032 0.26663 0.44148 0.0
C190 C 0.74385 0.3084 0.4402 0.0
C191 C 0.76202 0.32678 0.41569 0.0
C192 C 0.767 0.33464 0.46391 0.0
C193 C 0.67935 0.24655 0.4669 0.0
C194 C 0.7792 0.38017 0.46571 0.0
C195 C 0.8 0.40489 0.48815 0.0
C196 C 0.80799 0.38419 0.50938 0.0
C197 C 0.79656 0.339 0.50753 0.0
C198 C 0.77712 0.31469 0.48475 0.0
H199 H 0.64287 0.22335 0.46385 0.0
H200 H 0.69322 0.22673 0.47578 0.0
H201 H 0.68357 0.27302 0.48087 0.0
H202 H 0.77196 0.39646 0.4499 0.0
H203 H 0.80853 0.43976 0.48922 0.0
H204 H 0.47755 0.86623 0.65574 0.0
H205 H 0.48415 0.8295 0.61648 0.0
H206 H 0.41249 0.70065 0.65506 0.0
H207 H 0.40829 0.73752 0.69471 0.0
H208 H 0.47666 0.70353 0.62806 0.0
H209 H 0.38778 0.76402 0.56477 0.0
H210 H 0.43786 0.80932 0.57863 0.0
H211 H 0.3919 0.77243 0.59953 0.0
C212 C 0.46336 0.83008 0.65578 0.0
C213 C 0.44214 0.80465 0.67815 0.0
C214 C 0.46684 0.80907 0.6333 0.0
C215 C 0.44777 0.7621 0.63252 0.0
C216 C 0.42736 0.73688 0.65509 0.0
H217 H 0.36595 0.6011 0.49342 0.0
H218 H 0.3729 0.64193 0.53362 0.0
C219 C 0.4249 0.75797 0.67774 0.0
C220 C 0.44847 0.73883 0.60827 0.0
H221 H 0.41966 0.72554 0.54388 0.0
C222 C 0.46405 0.70823 0.60965 0.0
C223 C 0.4315 0.74449 0.5843 0.0
C224 C 0.41089 0.77397 0.58173 0.0
C225 C 0.46248 0.68264 0.58794 0.0
C226 C 0.44673 0.6893 0.56379 0.0
C227 C 0.43198 0.72054 0.56232 0.0
C228 C 0.44274 0.66268 0.54008 0.0
C229 C 0.47594 0.6475 0.59151 0.0
C230 C 0.47952 0.66027 0.5303 0.0
C231 C 0.47515 0.63573 0.50763 0.0
C232 C 0.4344 0.61458 0.49393 0.0
C233 C 0.39783 0.61735 0.50356 0.0
C234 C 0.40183 0.64075 0.52651 0.0
H235 H 0.47377 0.63735 0.61228 0.0
H236 H 0.45444 0.61698 0.57976 0.0
H237 H 0.51124 0.66159 0.5852 0.0
H238 H 0.51181 0.67795 0.53989 0.0
H239 H 0.50396 0.63449 0.50037 0.0
H240 H 0.60026 0.45151 0.81944 0.0
H241 H 0.64804 0.46304 0.7817 0.0
H242 H 0.74784 0.46204 0.83181 0.0
H243 H 0.70028 0.45019 0.86976 0.0
H244 H 0.74114 0.53255 0.77144 0.0
H245 H 0.71421 0.35909 0.7779 0.0
H246 H 0.67868 0.3755 0.79459 0.0
H247 H 0.73361 0.39267 0.807 0.0
C248 C 0.63245 0.45393 0.82251 0.0
C249 C 0.64619 0.4493 0.84758 0.0
C250 C 0.65973 0.4607 0.80093 0.0
C251 C 0.70107 0.46282 0.80404 0.0
C252 C 0.71571 0.45988 0.82907 0.0
H253 H 0.87134 0.45027 0.68293 0.0
H254 H 0.84443 0.45998 0.72512 0.0
C255 C 0.68849 0.45317 0.85069 0.0
C256 C 0.72773 0.46594 0.78087 0.0
H257 H 0.75992 0.4049 0.74388 0.0
C258 C 0.7456 0.50485 0.76544 0.0
C259 C 0.73345 0.4297 0.77328 0.0
C260 C 0.71379 0.38667 0.78889 0.0
C261 C 0.76881 0.50831 0.74232 0.0
C262 C 0.77331 0.47149 0.73431 0.0
C263 C 0.75646 0.43309 0.75014 0.0
C264 C 0.7927 0.4706 0.7088 0.0
C265 C 0.78827 0.55127 0.72672 0.0
C266 C 0.77257 0.47353 0.68569 0.0
C267 C 0.78783 0.46805 0.66157 0.0
C268 C 0.82318 0.45897 0.66015 0.0
C269 C 0.84391 0.45701 0.68334 0.0
C270 C 0.82868 0.46264 0.70746 0.0
H271 H 0.7945 0.58027 0.73916 0.0
H272 H 0.82021 0.55887 0.7172 0.0
H273 H 0.7641 0.54761 0.7113 0.0
H274 H 0.74406 0.47859 0.68633 0.0
H275 H 0.77108 0.46974 0.6441 0.0
H276 H 0.15224 0.57668 0.98174 0.0
H277 H 0.18859 0.62235 0.94306 0.0
H278 H 0.27241 0.73603 0.99192 0.0
H279 H 0.23655 0.69074 0.03084 0.0
H280 H 0.22169 0.74465 0.94047 0.0
H281 H 0.33312 0.67177 0.9307 0.0
H282 H 0.27466 0.63459 0.93803 0.0
H283 H 0.31032 0.67502 0.96178 0.0
C284 C 0.17807 0.61152 0.98432 0.0
C285 C 0.19173 0.62996 0.00941 0.0
C286 C 0.19874 0.63749 0.96219 0.0
C287 C 0.23311 0.68234 0.96478 0.0
C288 C 0.24585 0.7014 0.98966 0.0
H289 H 0.43159 0.85357 0.85087 0.0
H290 H 0.39098 0.81951 0.8913 0.0
C291 C 0.22542 0.67541 0.01182 0.0
C292 C 0.25751 0.70852 0.94153 0.0
H293 H 0.33844 0.72259 0.89819 0.0
C294 C 0.24726 0.74 0.93117 0.0
C295 C 0.29097 0.7024 0.92974 0.0
C296 C 0.30333 0.66929 0.94056 0.0
C297 C 0.26945 0.76524 0.9089 0.0
C298 C 0.30245 0.75856 0.89685 0.0
C299 C 0.31308 0.72755 0.90751 0.0
C300 C 0.32596 0.78272 0.87283 0.0
C301 C 0.2578 0.79908 0.89849 0.0
C302 C 0.30266 0.77354 0.84914 0.0
C303 C 0.32574 0.79271 0.82596 0.0
C304 C 0.37258 0.82139 0.8261 0.0
C305 C 0.39555 0.83168 0.85005 0.0
C306 C 0.37245 0.81224 0.87317 0.0
H307 H 0.23869 0.80685 0.91292 0.0
H308 H 0.28864 0.83079 0.89299 0.0
H309 H 0.23689 0.7853 0.88072 0.0
H310 H 0.26683 0.75036 0.84846 0.0
H311 H 0.30702 0.78416 0.80787 0.0
H312 H 0.54046 0.13004 0.15272 0.0
H313 H 0.52962 0.16052 0.11208 0.0
H314 H 0.53475 0.27122 0.15439 0.0
H315 H 0.54457 0.24055 0.19521 0.0
H316 H 0.46871 0.23698 0.11617 0.0
H317 H 0.63259 0.27008 0.07698 0.0
H318 H 0.59528 0.21255 0.08598 0.0
H319 H 0.61685 0.2555 0.11065 0.0
C320 C 0.53908 0.16077 0.15341 0.0
C321 C 0.54403 0.18322 0.17715 0.0
C322 C 0.53301 0.17817 0.13017 0.0
C323 C 0.53234 0.21858 0.13021 0.0
C324 C 0.53544 0.2401 0.15396 0.0
H325 H 0.54777 0.40994 0.01685 0.0
H326 H 0.5364 0.36547 0.05629 0.0
C327 C 0.54117 0.22257 0.17725 0.0
C328 C 0.53022 0.23945 0.10545 0.0
H329 H 0.58714 0.2844 0.04878 0.0
C330 C 0.49451 0.2473 0.10139 0.0
C331 C 0.56415 0.25309 0.08632 0.0
C332 C 0.60462 0.24782 0.09022 0.0
C333 C 0.49171 0.26823 0.07853 0.0
C334 C 0.52562 0.28178 0.05948 0.0
C335 C 0.56103 0.27355 0.06342 0.0
C336 C 0.52639 0.3063 0.03568 0.0
C337 C 0.4525 0.27552 0.07482 0.0
C338 C 0.52423 0.28754 0.01111 0.0
C339 C 0.53081 0.31283 0.98855 0.0
C340 C 0.54025 0.35757 0.99022 0.0
C341 C 0.54073 0.37566 0.01488 0.0
C342 C 0.53394 0.35023 0.03743 0.0
H343 H 0.42439 0.25422 0.08822 0.0
H344 H 0.46345 0.31126 0.07887 0.0
H345 H 0.44011 0.26814 0.05441 0.0
H346 H 0.51865 0.25372 0.00945 0.0
H347 H 0.53002 0.29776 0.96988 0.0
H348 H 0.41097 0.42243 0.89933 0.0
H349 H 0.33893 0.41295 0.9139 0.0
H350 H 0.38339 0.42832 0.99382 0.0
H351 H 0.45399 0.43624 0.97973 0.0
H352 H 0.29749 0.36168 0.98916 0.0
H353 H 0.32282 0.51565 0.93785 0.0
H354 H 0.32211 0.47256 0.9178 0.0
H355 H 0.36696 0.50244 0.94069 0.0
C356 C 0.40521 0.42357 0.92 0.0
C357 C 0.43849 0.43051 0.9383 0.0
C358 C 0.36411 0.41833 0.92829 0.0
C359 C 0.35598 0.42056 0.95495 0.0
C360 C 0.38878 0.42638 0.97316 0.0
H361 H 0.2372 0.49679 0.0653 0.0
H362 H 0.27333 0.46489 0.03891 0.0
C363 C 0.42938 0.43115 0.96499 0.0
C364 C 0.31457 0.41887 0.9645 0.0
H365 H 0.26296 0.48128 0.96713 0.0
C366 C 0.28934 0.38727 0.98393 0.0
C367 C 0.30386 0.45224 0.95766 0.0
C368 C 0.33041 0.4879 0.93751 0.0
C369 C 0.25588 0.39006 0.99787 0.0
C370 C 0.24718 0.42497 0.99206 0.0
C371 C 0.2698 0.45442 0.97136 0.0
C372 C 0.22078 0.43637 0.00987 0.0
C373 C 0.23165 0.35727 0.01968 0.0
C374 C 0.17872 0.42976 0.00255 0.0
C375 C 0.15755 0.44727 0.01791 0.0
C376 C 0.17888 0.47253 0.04036 0.0
C377 C 0.22005 0.47733 0.04814 0.0
C378 C 0.24066 0.45913 0.03311 0.0
H379 H 0.23513 0.32697 0.01826 0.0
H380 H 0.24591 0.37397 0.03863 0.0
H381 H 0.19548 0.34667 0.01957 0.0
H382 H 0.16317 0.41261 0.98451 0.0
H383 H 0.12609 0.44366 0.01133 0.0
H384 H 0.97327 0.40553 0.06834 0.0
H385 H 0.90583 0.3397 0.0856 0.0
H386 H 0.96588 0.36619 0.16207 0.0
H387 H 0.03337 0.43081 0.14503 0.0
H388 H 0.91574 0.27509 0.1516 0.0
H389 H 0.82046 0.36205 0.12922 0.0
H390 H 0.84615 0.35139 0.10184 0.0
H391 H 0.88067 0.39008 0.12676 0.0
C392 C 0.97241 0.39682 0.08872 0.0
C393 C 0.00843 0.42399 0.10538 0.0
C394 C 0.93376 0.35932 0.09858 0.0
C395 C 0.93047 0.34862 0.12525 0.0
C396 C 0.96754 0.3739 0.14146 0.0
H397 H 0.71724 0.25094 0.23243 0.0
H398 H 0.78612 0.289 0.20695 0.0
C399 C 0.00608 0.41109 0.13166 0.0
C400 C 0.88748 0.31422 0.13714 0.0
H401 H 0.78283 0.29441 0.15235 0.0
C402 C 0.88638 0.27883 0.15149 0.0
C403 C 0.84942 0.31955 0.1372 0.0
C404 C 0.84906 0.35794 0.12313 0.0
C405 C 0.84877 0.24957 0.16657 0.0
C406 C 0.81128 0.25569 0.16706 0.0
C407 C 0.81172 0.28989 0.15191 0.0
C408 C 0.77269 0.23001 0.18483 0.0
C409 C 0.85019 0.21381 0.18285 0.0
C410 C 0.74293 0.18373 0.18149 0.0
C411 C 0.70344 0.16164 0.19629 0.0
C412 C 0.69303 0.18576 0.21436 0.0
C413 C 0.72415 0.2315 0.21855 0.0
C414 C 0.76351 0.25333 0.20396 0.0
H415 H 0.88425 0.21799 0.18343 0.0
H416 H 0.83923 0.21448 0.20312 0.0
H417 H 0.82674 0.18024 0.17452 0.0
H418 H 0.74914 0.16522 0.16662 0.0
H419 H 0.67992 0.12647 0.19247 0.0
H420 H 0.56222 0.70001 0.37203 0.0
H421 H 0.59381 0.77484 0.3524 0.0
H422 H 0.48148 0.7843 0.38129 0.0
H423 H 0.45139 0.71115 0.40207 0.0
H424 H 0.56335 0.80018 0.31512 0.0
H425 H 0.57722 0.90652 0.3986 0.0
H426 H 0.56652 0.84996 0.40294 0.0
H427 H 0.52092 0.86029 0.39699 0.0
C428 C 0.54498 0.71869 0.37474 0.0
C429 C 0.50454 0.69989 0.38877 0.0
C430 C 0.56294 0.76136 0.36344 0.0
C431 C 0.5405 0.78577 0.36566 0.0
C432 C 0.50042 0.76714 0.38002 0.0
H433 H 0.52433 0.96069 0.25385 0.0
H434 H 0.52614 0.89911 0.27642 0.0
C435 C 0.48303 0.72502 0.3918 0.0
C436 C 0.5564 0.8286 0.35108 0.0
H437 H 0.56783 0.93258 0.35624 0.0
C438 C 0.56524 0.82949 0.32426 0.0
C439 C 0.56014 0.86747 0.36291 0.0
C440 C 0.55621 0.87113 0.392 0.0
C441 C 0.57513 0.86706 0.30877 0.0
C442 C 0.57414 0.90403 0.32014 0.0
C443 C 0.56783 0.90409 0.34723 0.0
C444 C 0.57705 0.94183 0.30441 0.0
C445 C 0.58664 0.8665 0.28045 0.0
C446 C 0.6044 0.98653 0.31271 0.0
C447 C 0.60208 0.02152 0.30038 0.0
C448 C 0.57322 0.01265 0.27911 0.0
C449 C 0.54755 0.96843 0.26989 0.0
C450 C 0.54884 0.93323 0.28272 0.0
H451 H 0.60355 0.8466 0.27766 0.0
H452 H 0.55531 0.85013 0.26878 0.0
H453 H 0.60887 0.90096 0.27278 0.0
H454 H 0.62644 0.99422 0.32935 0.0
H455 H 0.62202 0.05542 0.30788 0.0
H456 H 0.87718 0.57935 0.53045 0.0
H457 H 0.84082 0.61611 0.50852 0.0
H458 H 0.7193 0.53225 0.55152 0.0
H459 H 0.75511 0.49552 0.57328 0.0
H460 H 0.76366 0.56648 0.47731 0.0
H461 H 0.73012 0.65644 0.55509 0.0
H462 H 0.77253 0.64062 0.55812 0.0
H463 H 0.71461 0.60029 0.56469 0.0
C464 C 0.84315 0.56976 0.53577 0.0
C465 C 0.81891 0.53449 0.55355 0.0
C466 C 0.8224 0.59065 0.52316 0.0
C467 C 0.77751 0.57725 0.52859 0.0
C468 C 0.7542 0.54377 0.54738 0.0
H469 H 0.53468 0.53523 0.47985 0.0
H470 H 0.60425 0.54991 0.50019 0.0
C471 C 0.77464 0.52259 0.5597 0.0
C472 C 0.75263 0.59337 0.51256 0.0
H473 H 0.67849 0.63083 0.51842 0.0
C474 C 0.74602 0.58186 0.48602 0.0
C475 C 0.72984 0.61355 0.52397 0.0
C476 C 0.73748 0.62887 0.55199 0.0
C477 C 0.71399 0.58601 0.47123 0.0
C478 C 0.68853 0.60279 0.48328 0.0
C479 C 0.6979 0.61779 0.50922 0.0
C480 C 0.64724 0.59759 0.47103 0.0
C481 C 0.70501 0.56896 0.44353 0.0
C482 C 0.64819 0.6201 0.44793 0.0
C483 C 0.608 0.61159 0.43601 0.0
C484 C 0.56641 0.58033 0.44704 0.0
C485 C 0.56598 0.55908 0.47058 0.0
C486 C 0.60582 0.56764 0.48239 0.0
H487 H 0.72438 0.55244 0.43805 0.0
H488 H 0.66876 0.54452 0.44077 0.0
H489 H 0.71438 0.59753 0.43 0.0
H490 H 0.67988 0.64381 0.43901 0.0
H491 H 0.60948 0.62874 0.418 0.0
H492 H 0.32804 0.87852 0.6853 0.0
H493 H 0.25724 0.8419 0.66071 0.0
H494 H 0.20287 0.73119 0.71504 0.0
H495 H 0.27344 0.767 0.73929 0.0
H496 H 0.22426 0.74905 0.63992 0.0
H497 H 0.10012 0.76186 0.70233 0.0
H498 H 0.15967 0.80161 0.70402 0.0
H499 H 0.13674 0.7475 0.71937 0.0
C500 C 0.30046 0.84706 0.69241 0.0
C501 C 0.30613 0.82553 0.71419 0.0
C502 C 0.2602 0.82612 0.6783 0.0
C503 C 0.22482 0.78403 0.68619 0.0
C504 C 0.22957 0.76393 0.70883 0.0
H505 H 0.98823 0.54926 0.6496 0.0
H506 H 0.0518 0.61709 0.66687 0.0
C507 C 0.26991 0.78436 0.72263 0.0
C508 C 0.18508 0.75791 0.66935 0.0
H509 H 0.07081 0.7029 0.67054 0.0
C510 C 0.19065 0.73968 0.64617 0.0
C511 C 0.14149 0.74577 0.67772 0.0
C512 C 0.13395 0.76545 0.70212 0.0
C513 C 0.15354 0.70685 0.63216 0.0
C514 C 0.10971 0.69289 0.64127 0.0
C515 C 0.10434 0.71348 0.66356 0.0
C516 C 0.06946 0.65312 0.63019 0.0
C517 C 0.16174 0.68513 0.60889 0.0
C518 C 0.05758 0.6508 0.60376 0.0
C519 C 0.02123 0.61142 0.59361 0.0
C520 C 0.99582 0.57398 0.60982 0.0
C521 C 0.00701 0.57723 0.63644 0.0
C522 C 0.04338 0.6162 0.64644 0.0
H523 H 0.19724 0.69347 0.60763 0.0
H524 H 0.14001 0.64798 0.60971 0.0
H525 H 0.15363 0.69721 0.59078 0.0
H526 H 0.07659 0.67923 0.59096 0.0
H527 H 0.01324 0.61023 0.57309 0.0
H528 H 0.45878 0.32798 0.84591 0.0
H529 H 0.42806 0.25828 0.82018 0.0
H530 H 0.47435 0.20069 0.87846 0.0
H531 H 0.50567 0.27012 0.9038 0.0
H532 H 0.49035 0.22597 0.8036 0.0
H533 H 0.34299 0.09849 0.85909 0.0
H534 H 0.36308 0.15813 0.86116 0.0
H535 H 0.39119 0.13427 0.87871 0.0
C536 C 0.46103 0.29985 0.85356 0.0
C537 C 0.48443 0.30425 0.87685 0.0
C538 C 0.44375 0.26025 0.83881 0.0
C539 C 0.4487 0.2243 0.84754 0.0
C540 C 0.46965 0.2278 0.87156 0.0
H541 H 0.45067 0.98886 0.81519 0.0
H542 H 0.44484 0.0522 0.83092 0.0
C543 C 0.48758 0.26747 0.886 0.0
C544 C 0.43747 0.18528 0.83051 0.0
H545 H 0.37766 0.07063 0.83 0.0
C546 C 0.46498 0.19196 0.80887 0.0
C547 C 0.40455 0.14116 0.83762 0.0
C548 C 0.37343 0.1324 0.86029 0.0
C549 C 0.46279 0.15542 0.79533 0.0
C550 C 0.43134 0.11103 0.8033 0.0
C551 C 0.40183 0.10458 0.8239 0.0
C552 C 0.43238 0.07121 0.79296 0.0
C553 C 0.49637 0.16473 0.77392 0.0
C554 C 0.42678 0.06024 0.7663 0.0
C555 C 0.43069 0.02401 0.75706 0.0
C556 C 0.43969 0.99781 0.77441 0.0
C557 C 0.44387 0.00823 0.80117 0.0
C558 C 0.44037 0.04447 0.81028 0.0
H559 H 0.52378 0.20044 0.77371 0.0
H560 H 0.51148 0.14308 0.77613 0.0
H561 H 0.47913 0.1572 0.75476 0.0
H562 H 0.41962 0.07978 0.75262 0.0
H563 H 0.42684 0.01664 0.73638 0.0
H564 H 0.57484 0.86808 0.79294 0.0
H565 H 0.61004 0.8288 0.81337 0.0
H566 H 0.48722 0.70225 0.80354 0.0
H567 H 0.45261 0.74042 0.78273 0.0
H568 H 0.58667 0.77829 0.85782 0.0
H569 H 0.57694 0.67206 0.77496 0.0
H570 H 0.5688 0.71958 0.77104 0.0
H571 H 0.52293 0.66563 0.781 0.0
C572 C 0.55567 0.83181 0.79476 0.0
C573 C 0.51093 0.80746 0.78607 0.0
C574 C 0.57575 0.80945 0.80653 0.0
C575 C 0.55152 0.76245 0.80958 0.0
C576 C 0.50705 0.73832 0.80079 0.0
H577 H 0.54729 0.57831 0.92076 0.0
H578 H 0.55086 0.64339 0.89922 0.0
C579 C 0.48716 0.7604 0.78902 0.0
C580 C 0.57105 0.73802 0.82305 0.0
H581 H 0.57783 0.64296 0.8179 0.0
C582 C 0.58571 0.74923 0.84896 0.0
C583 C 0.57092 0.70075 0.81137 0.0
C584 C 0.55952 0.68917 0.78296 0.0
C585 C 0.5972 0.72229 0.864 0.0
C586 C 0.59256 0.68236 0.85307 0.0
C587 C 0.58084 0.67305 0.82661 0.0
C588 C 0.59654 0.64801 0.86876 0.0
C589 C 0.61384 0.7369 0.89145 0.0
C590 C 0.62087 0.62853 0.85899 0.0
C591 C 0.61765 0.59044 0.87084 0.0
C592 C 0.5908 0.57155 0.89306 0.0
C593 C 0.56884 0.59267 0.90391 0.0
C594 C 0.57113 0.63014 0.89165 0.0
H595 H 0.63214 0.77416 0.89312 0.0
H596 H 0.58475 0.72355 0.9049 0.0
H597 H 0.63642 0.7245 0.89785 0.0
H598 H 0.64074 0.64153 0.84142 0.0
H599 H 0.6349 0.57473 0.86209 0.0
H600 H 0.96707 0.53009 0.08895 0.0
H601 H 0.90508 0.53467 0.06876 0.0
H602 H 0.99602 0.62702 0.0112 0.0
H603 H 0.05745 0.62068 0.0305 0.0
H604 H 0.88216 0.59729 0.05506 0.0
H605 H 0.9115 0.52302 0.96637 0.0
H606 H 0.94021 0.52832 0.99663 0.0
H607 H 0.95834 0.57631 0.97558 0.0
C608 C 0.97393 0.55209 0.07233 0.0
C609 C 0.01678 0.57448 0.061 0.0
C610 C 0.93853 0.55471 0.0608 0.0
C611 C 0.94566 0.58022 0.03801 0.0
C612 C 0.98944 0.60607 0.02828 0.0
H613 H 0.7084 0.56904 0.9606 0.0
H614 H 0.78224 0.60237 0.98206 0.0
C615 C 0.02453 0.60263 0.0394 0.0
C616 C 0.90677 0.57565 0.02293 0.0
H617 H 0.85218 0.53734 0.96485 0.0
C618 C 0.87573 0.58459 0.03524 0.0
C619 C 0.89827 0.55874 0.9971 0.0
C620 C 0.92855 0.54562 0.98319 0.0
C621 C 0.83571 0.57559 0.02274 0.0
C622 C 0.82704 0.55801 0.99711 0.0
C623 C 0.85908 0.55113 0.98444 0.0
C624 C 0.78248 0.53968 0.98447 0.0
C625 C 0.80198 0.58262 0.0375 0.0
C626 C 0.75863 0.49381 0.9783 0.0
C627 C 0.71734 0.47508 0.96581 0.0
C628 C 0.69831 0.50158 0.95924 0.0
C629 C 0.72208 0.54771 0.96544 0.0
C630 C 0.76406 0.5667 0.97787 0.0
H631 H 0.81089 0.59009 0.05844 0.0
H632 H 0.80039 0.61132 0.02881 0.0
H633 H 0.76807 0.55234 0.03603 0.0
H634 H 0.77203 0.47225 0.98322 0.0
H635 H 0.70018 0.43942 0.96154 0.0
H636 H 0.40751 0.97326 0.26543 0.0
H637 H 0.34161 0.90568 0.24842 0.0
H638 H 0.37554 0.9595 0.17045 0.0
H639 H 0.44041 0.02718 0.18717 0.0
H640 H 0.2833 0.91284 0.17951 0.0
H641 H 0.36368 0.81457 0.21002 0.0
H642 H 0.35296 0.84365 0.23553 0.0
H643 H 0.39328 0.87518 0.2106 0.0
C644 C 0.40046 0.97103 0.24473 0.0
C645 C 0.42972 0.00525 0.22761 0.0
C646 C 0.3629 0.93234 0.23504 0.0
C647 C 0.35425 0.92725 0.20812 0.0
C648 C 0.38169 0.96265 0.19128 0.0
H649 H 0.25827 0.70824 0.10538 0.0
H650 H 0.29625 0.77784 0.13037 0.0
C651 C 0.41899 0.00124 0.2009 0.0
C652 C 0.31976 0.88381 0.19684 0.0
H653 H 0.29783 0.77695 0.18547 0.0
C654 C 0.28592 0.88283 0.1811 0.0
C655 C 0.32372 0.84494 0.19874 0.0
C656 C 0.36049 0.84443 0.21444 0.0
C657 C 0.25692 0.84445 0.1665 0.0
C658 C 0.26176 0.80613 0.16793 0.0
C659 C 0.29431 0.80651 0.18448 0.0
C660 C 0.23662 0.76667 0.15071 0.0
C661 C 0.2229 0.84585 0.14865 0.0
C662 C 0.19017 0.7379 0.15335 0.0
C663 C 0.16817 0.69797 0.13889 0.0
C664 C 0.19251 0.68615 0.12187 0.0
C665 C 0.23862 0.71616 0.11849 0.0
C666 C 0.2604 0.75595 0.13276 0.0
H667 H 0.22792 0.88026 0.14691 0.0
H668 H 0.22468 0.83363 0.12891 0.0
H669 H 0.18873 0.82327 0.15642 0.0
H670 H 0.17133 0.74536 0.16732 0.0
H671 H 0.13265 0.67542 0.14202 0.0
H672 H 0.43032 0.12128 0.30774 0.0
H673 H 0.39259 0.15677 0.32944 0.0
H674 H 0.47653 0.27976 0.28737 0.0
H675 H 0.51413 0.24483 0.26581 0.0
H676 H 0.44016 0.23341 0.36117 0.0
H677 H 0.35255 0.26772 0.28231 0.0
H678 H 0.36897 0.22565 0.27944 0.0
H679 H 0.40889 0.28399 0.27324 0.0
C680 C 0.43981 0.15549 0.30263 0.0
C681 C 0.47528 0.1804 0.28516 0.0
C682 C 0.41834 0.17571 0.31508 0.0
C683 C 0.4314 0.2207 0.30978 0.0
C684 C 0.46526 0.24474 0.29137 0.0
H685 H 0.4727 0.46339 0.35883 0.0
H686 H 0.45984 0.39393 0.33883 0.0
C687 C 0.48698 0.22483 0.2792 0.0
C688 C 0.41447 0.24502 0.32557 0.0
H689 H 0.37769 0.31971 0.31899 0.0
C690 C 0.42513 0.25124 0.35223 0.0
C691 C 0.39472 0.26802 0.31384 0.0
C692 C 0.3802 0.26064 0.28567 0.0
C693 C 0.42065 0.28324 0.36684 0.0
C694 C 0.40456 0.30908 0.35446 0.0
C695 C 0.39029 0.30002 0.3284 0.0
C696 C 0.40951 0.35032 0.36663 0.0
C697 C 0.43664 0.29186 0.39476 0.0
C698 C 0.38512 0.34883 0.38889 0.0
C699 C 0.39254 0.38885 0.40057 0.0
C700 C 0.42453 0.43081 0.39015 0.0
C701 C 0.44813 0.43181 0.36758 0.0
C702 C 0.44064 0.39207 0.35598 0.0
H703 H 0.4521 0.27167 0.4007 0.0
H704 H 0.46159 0.32805 0.39758 0.0
H705 H 0.40785 0.28323 0.40787 0.0
H706 H 0.36059 0.31685 0.39724 0.0
H707 H 0.37358 0.38693 0.41782 0.0
H708 H 0.9591 0.43036 0.51003 0.0
H709 H 0.02007 0.42659 0.48859 0.0
H710 H 0.07865 0.42953 0.56331 0.0
H711 H 0.01764 0.4337 0.58522 0.0
H712 H 0.11703 0.50224 0.50247 0.0
H713 H 0.07964 0.32565 0.51401 0.0
H714 H 0.03552 0.33932 0.51257 0.0
H715 H 0.07016 0.35342 0.54101 0.0
C716 C 0.98451 0.42956 0.52205 0.0
C717 C 0.98376 0.43293 0.54939 0.0
C718 C 0.0192 0.42719 0.5097 0.0
C719 C 0.05359 0.42764 0.52439 0.0
C720 C 0.05202 0.42871 0.55171 0.0
H721 H 0.30957 0.45849 0.48269 0.0
H722 H 0.23705 0.43518 0.50276 0.0
C723 C 0.01724 0.43121 0.56416 0.0
C724 C 0.09362 0.43268 0.5109 0.0
H725 H 0.14655 0.37619 0.492 0.0
C726 C 0.12354 0.47473 0.5001 0.0
C727 C 0.10189 0.39672 0.50814 0.0
C728 C 0.0702 0.35102 0.51943 0.0
C729 C 0.16194 0.48202 0.48667 0.0
C730 C 0.16985 0.44578 0.48327 0.0
C731 C 0.14005 0.4037 0.49433 0.0
C732 C 0.21018 0.45204 0.46932 0.0
C733 C 0.19429 0.52883 0.47688 0.0
C734 C 0.21823 0.46702 0.44335 0.0
C735 C 0.25987 0.48083 0.43183 0.0
C736 C 0.29397 0.47935 0.44604 0.0
C737 C 0.28424 0.46043 0.47122 0.0
C738 C 0.24274 0.44703 0.48277 0.0
H739 H 0.18926 0.55465 0.48678 0.0
H740 H 0.22957 0.53738 0.47989 0.0
H741 H 0.1889 0.53063 0.45568 0.0
H742 H 0.19305 0.47009 0.43241 0.0
H743 H 0.26603 0.49466 0.41229 0.0
H744 H 0.60074 0.02047 0.75917 0.0
H745 H 0.6659 0.08658 0.74034 0.0
H746 H 0.62226 0.0322 0.6632 0.0
H747 H 0.55798 0.96585 0.68172 0.0
H748 H 0.71542 0.07725 0.66849 0.0
H749 H 0.64356 0.17987 0.70495 0.0
H750 H 0.65567 0.15011 0.72941 0.0
H751 H 0.61257 0.11926 0.70569 0.0
C752 C 0.6055 0.02214 0.73824 0.0
C753 C 0.57362 0.98815 0.72195 0.0
C754 C 0.64265 0.06009 0.7275 0.0
C755 C 0.6484 0.06479 0.70032 0.0
C756 C 0.61842 0.02945 0.68421 0.0
H757 H 0.74539 0.28976 0.60057 0.0
H758 H 0.70671 0.21832 0.62382 0.0
C759 C 0.58148 0.99156 0.69488 0.0
C760 C 0.68259 0.10789 0.68827 0.0
H761 H 0.70816 0.21657 0.67921 0.0
C762 C 0.71432 0.10793 0.67108 0.0
C763 C 0.68068 0.14774 0.69143 0.0
C764 C 0.64614 0.14945 0.70868 0.0
C765 C 0.74341 0.14646 0.65649 0.0
C766 C 0.74079 0.1859 0.65934 0.0
C767 C 0.7101 0.18624 0.67713 0.0
C768 C 0.76637 0.2261 0.64253 0.0
C769 C 0.77526 0.14423 0.63729 0.0
C770 C 0.81314 0.25364 0.64466 0.0
C771 C 0.83558 0.29471 0.63116 0.0
C772 C 0.81139 0.3089 0.61561 0.0
C773 C 0.76497 0.27998 0.61253 0.0
C774 C 0.74276 0.23913 0.62583 0.0
H775 H 0.76884 0.10942 0.63479 0.0
H776 H 0.77248 0.15732 0.618 0.0
H777 H 0.81019 0.16573 0.64428 0.0
H778 H 0.83194 0.24443 0.65766 0.0
H779 H 0.8713 0.3164 0.63409 0.0
loop_
_geom_bond_atom_site_label_1
_geom_bond_atom_site_label_2
_geom_bond_distance
_geom_bond_site_symmetry_2
_ccdc_geom_bond_type
Fe0 O2 1.918 . S
Fe0 O5 1.997 . S
Fe0 O6 2.002 . S
Fe0 O11 1.976 . S
Fe0 O14 1.996 . S
Fe1 O2 1.918 . S
Fe1 O9 1.997 . S
Fe1 O12 1.996 . S
Fe1 O16 1.976 . S
Fe1 O19 2.002 . S
O2 Fe0 1.918 . S
O2 Fe1 1.918 . S
O2 Fe3 1.918 . S
Fe3 O2 1.918 . S
Fe3 O4 2.002 . S
Fe3 O13 1.976 . S
Fe3 O17 1.996 . S
Fe3 O20 1.997 . S
O4 Fe3 2.002 . S
O4 C21 1.295 . S
O5 Fe0 1.997 . S
O5 C21 1.235 . S
O6 Fe0 2.002 . S
O6 C7 1.295 . S
C7 O6 1.295 . S
C7 O9 1.235 . S
C8 O13 1.287 . S
C8 O14 1.255 . S
O9 Fe1 1.997 . S
O9 C7 1.235 . S
C10 O16 1.287 . S
C10 O17 1.255 . S
O11 Fe0 1.976 . S
O11 C18 1.287 . S
O12 Fe1 1.996 . S
O12 C18 1.255 . S
O13 Fe3 1.976 . S
O13 C8 1.287 . S
O14 Fe0 1.996 . S
O14 C8 1.255 . S
C15 O19 1.295 . S
C15 O20 1.235 . S
O16 Fe1 1.976 . S
O16 C10 1.287 . S
O17 Fe3 1.996 . S
O17 C10 1.255 . S
C18 O11 1.287 . S
C18 O12 1.255 . S
O19 Fe1 2.002 . S
O19 C15 1.295 . S
O20 Fe3 1.997 . S
O20 C15 1.235 . S
C21 O4 1.295 . S
C21 O5 1.235 . S
Fe22 O24 1.918 . S
Fe22 O27 1.997 . S
Fe22 O28 2.002 . S
Fe22 O33 1.976 . S
Fe22 O36 1.996 . S
Fe23 O24 1.918 . S
Fe23 O31 1.997 . S
Fe23 O34 1.996 . S
Fe23 O38 1.976 . S
Fe23 O41 2.002 . S
O24 Fe22 1.918 . S
O24 Fe23 1.918 . S
O24 Fe25 1.918 . S
Fe25 O24 1.918 . S
Fe25 O26 2.002 . S
Fe25 O35 1.976 . S
Fe25 O39 1.996 . S
Fe25 O42 1.997 . S
O26 Fe25 2.002 . S
O26 C43 1.295 . S
O27 Fe22 1.997 . S
O27 C43 1.235 . S
O28 Fe22 2.002 . S
O28 C29 1.295 . S
C29 O28 1.295 . S
C29 O31 1.235 . S
C30 O35 1.287 . S
C30 O36 1.255 . S
O31 Fe23 1.997 . S
O31 C29 1.235 . S
C32 O38 1.287 . S
C32 O39 1.255 . S
O33 Fe22 1.976 . S
O33 C40 1.287 . S
O34 Fe23 1.996 . S
O34 C40 1.255 . S
O35 Fe25 1.976 . S
O35 C30 1.287 . S
O36 Fe22 1.996 . S
O36 C30 1.255 . S
C37 O41 1.295 . S
C37 O42 1.235 . S
O38 Fe23 1.976 . S
O38 C32 1.287 . S
O39 Fe25 1.996 . S
O39 C32 1.255 . S
C40 O33 1.287 . S
C40 O34 1.255 . S
O41 Fe23 2.002 . S
O41 C37 1.295 . S
O42 Fe25 1.997 . S
O42 C37 1.235 . S
C43 O26 1.295 . S
C43 O27 1.235 . S
Fe44 O46 1.918 . S
Fe44 O49 1.997 . S
Fe44 O50 2.002 . S
Fe44 O55 1.976 . S
Fe44 O58 1.996 . S
Fe45 O46 1.918 . S
Fe45 O53 1.997 . S
Fe45 O56 1.996 . S
Fe45 O60 1.976 . S
Fe45 O63 2.002 . S
O46 Fe44 1.918 . S
O46 Fe45 1.918 . S
O46 Fe47 1.918 . S
Fe47 O46 1.918 . S
Fe47 O48 2.002 . S
Fe47 O57 1.976 . S
Fe47 O61 1.996 . S
Fe47 O64 1.997 . S
O48 Fe47 2.002 . S
O48 C65 1.295 . S
O49 Fe44 1.997 . S
O49 C65 1.235 . S
O50 Fe44 2.002 . S
O50 C51 1.295 . S
C51 O50 1.295 . S
C51 O53 1.235 . S
C52 O57 1.287 . S
C52 O58 1.255 . S
O53 Fe45 1.997 . S
O53 C51 1.235 . S
C54 O60 1.287 . S
C54 O61 1.255 . S
O55 Fe44 1.976 . S
O55 C62 1.287 . S
O56 Fe45 1.996 . S
O56 C62 1.255 . S
O57 Fe47 1.976 . S
O57 C52 1.287 . S
O58 Fe44 1.996 . S
O58 C52 1.255 . S
C59 O63 1.295 . S
C59 O64 1.235 . S
O60 Fe45 1.976 . S
O60 C54 1.287 . S
O61 Fe47 1.996 . S
O61 C54 1.255 . S
C62 O55 1.287 . S
C62 O56 1.255 . S
O63 Fe45 2.002 . S
O63 C59 1.295 . S
O64 Fe47 1.997 . S
O64 C59 1.235 . S
C65 O48 1.295 . S
C65 O49 1.235 . S
Fe66 O68 1.918 . S
Fe66 O71 1.997 . S
Fe66 O72 2.002 . S
Fe66 O77 1.976 . S
Fe66 O80 1.996 . S
Fe67 O68 1.918 . S
Fe67 O75 1.997 . S
Fe67 O78 1.996 . S
Fe67 O82 1.976 . S
Fe67 O85 2.002 . S
O68 Fe66 1.918 . S
O68 Fe67 1.918 . S
O68 Fe69 1.918 . S
Fe69 O68 1.918 . S
Fe69 O70 2.002 . S
Fe69 O79 1.976 . S
Fe69 O83 1.996 . S
Fe69 O86 1.997 . S
O70 Fe69 2.002 . S
O70 C87 1.295 . S
O71 Fe66 1.997 . S
O71 C87 1.235 . S
O72 Fe66 2.002 . S
O72 C73 1.295 . S
C73 O72 1.295 . S
C73 O75 1.235 . S
C74 O79 1.287 . S
C74 O80 1.255 . S
O75 Fe67 1.997 . S
O75 C73 1.235 . S
C76 O82 1.287 . S
C76 O83 1.255 . S
O77 Fe66 1.976 . S
O77 C84 1.287 . S
O78 Fe67 1.996 . S
O78 C84 1.255 . S
O79 Fe69 1.976 . S
O79 C74 1.287 . S
O80 Fe66 1.996 . S
O80 C74 1.255 . S
C81 O85 1.295 . S
C81 O86 1.235 . S
O82 Fe67 1.976 . S
O82 C76 1.287 . S
O83 Fe69 1.996 . S
O83 C76 1.255 . S
C84 O77 1.287 . S
C84 O78 1.255 . S
O85 Fe67 2.002 . S
O85 C81 1.295 . S
O86 Fe69 1.997 . S
O86 C81 1.235 . S
C87 O70 1.295 . S
C87 O71 1.235 . S
Fe88 O90 1.918 . S
Fe88 O93 1.997 . S
Fe88 O94 2.002 . S
Fe88 O99 1.976 . S
Fe88 O102 1.996 . S
Fe89 O90 1.918 . S
Fe89 O97 1.997 . S
Fe89 O100 1.996 . S
Fe89 O104 1.976 . S
Fe89 O107 2.002 . S
O90 Fe88 1.918 . S
O90 Fe89 1.918 . S
O90 Fe91 1.918 . S
Fe91 O90 1.918 . S
Fe91 O92 2.002 . S
Fe91 O101 1.976 . S
Fe91 O105 1.996 . S
Fe91 O108 1.997 . S
O92 Fe91 2.002 . S
O92 C109 1.295 . S
O93 Fe88 1.997 . S
O93 C109 1.235 . S
O94 Fe88 2.002 . S
O94 C95 1.295 . S
C95 O94 1.295 . S
C95 O97 1.235 . S
C96 O101 1.287 . S
C96 O102 1.255 . S
O97 Fe89 1.997 . S
O97 C95 1.235 . S
C98 O104 1.287 . S
C98 O105 1.255 . S
O99 Fe88 1.976 . S
O99 C106 1.287 . S
O100 Fe89 1.996 . S
O100 C106 1.255 . S
O101 Fe91 1.976 . S
O101 C96 1.287 . S
O102 Fe88 1.996 . S
O102 C96 1.255 . S
C103 O107 1.295 . S
C103 O108 1.235 . S
O104 Fe89 1.976 . S
O104 C98 1.287 . S
O105 Fe91 1.996 . S
O105 C98 1.255 . S
C106 O99 1.287 . S
C106 O100 1.255 . S
O107 Fe89 2.002 . S
O107 C103 1.295 . S
O108 Fe91 1.997 . S
O108 C103 1.235 . S
C109 O92 1.295 . S
C109 O93 1.235 . S
Fe110 O112 1.918 . S
Fe110 O115 1.997 . S
Fe110 O116 2.002 . S
Fe110 O121 1.976 . S
Fe110 O124 1.996 . S
Fe111 O112 1.918 . S
Fe111 O119 1.997 . S
Fe111 O122 1.996 . S
Fe111 O126 1.976 . S
Fe111 O129 2.002 . S
O112 Fe110 1.918 . S
O112 Fe111 1.918 . S
O112 Fe113 1.918 . S
Fe113 O112 1.918 . S
Fe113 O114 2.002 . S
Fe113 O123 1.976 . S
Fe113 O127 1.996 . S
Fe113 O130 1.997 . S
O114 Fe113 2.002 . S
O114 C131 1.295 . S
O115 Fe110 1.997 . S
O115 C131 1.235 . S
O116 Fe110 2.002 . S
O116 C117 1.295 . S
C117 O116 1.295 . S
C117 O119 1.235 . S
C118 O123 1.287 . S
C118 O124 1.255 . S
O119 Fe111 1.997 . S
O119 C117 1.235 . S
C120 O126 1.287 . S
C120 O127 1.255 . S
O121 Fe110 1.976 . S
O121 C128 1.287 . S
O122 Fe111 1.996 . S
O122 C128 1.255 . S
O123 Fe113 1.976 . S
O123 C118 1.287 . S
O124 Fe110 1.996 . S
O124 C118 1.255 . S
C125 O129 1.295 . S
C125 O130 1.235 . S
O126 Fe111 1.976 . S
O126 C120 1.287 . S
O127 Fe113 1.996 . S
O127 C120 1.255 . S
C128 O121 1.287 . S
C128 O122 1.255 . S
O129 Fe111 2.002 . S
O129 C125 1.295 . S
O130 Fe113 1.997 . S
O130 C125 1.235 . S
C131 O114 1.295 . S
C131 O115 1.235 . S
H132 C140 0.929 . S
H133 C142 0.930 . S
H134 C144 0.930 . S
H135 C147 0.929 . S
H136 C150 0.930 . S
H137 C152 0.960 . S
H138 C152 0.960 . S
H139 C152 0.960 . S
C140 H132 0.929 . S
C140 C141 1.377 . S
C140 C142 1.384 . S
C141 C140 1.377 . S
C141 C147 1.390 . S
C142 H133 0.930 . S
C142 C140 1.384 . S
C142 C143 1.372 . S
C143 C142 1.372 . S
C143 C144 1.400 . S
C143 C148 1.490 . S
C144 H134 0.930 . S
C144 C143 1.400 . S
C144 C147 1.386 . S
H145 C161 0.930 . S
H146 C162 0.931 . S
C147 H135 0.929 . S
C147 C141 1.390 . S
C147 C144 1.386 . S
C148 C143 1.490 . S
C148 C150 1.395 . S
C148 C151 1.403 . S
H149 C155 0.930 . S
C150 H136 0.930 . S
C150 C148 1.395 . S
C150 C153 1.403 . S
C151 C148 1.403 . S
C151 C152 1.524 . S
C151 C155 1.400 . S
C152 H137 0.960 . S
C152 H138 0.960 . S
C152 H139 0.960 . S
C152 C151 1.524 . S
C153 C150 1.403 . S
C153 C154 1.392 . S
C153 C157 1.495 . S
C154 C153 1.392 . S
C154 C155 1.385 . S
C154 C156 1.478 . S
C155 H149 0.930 . S
C155 C151 1.400 . S
C155 C154 1.385 . S
C156 C154 1.478 . S
C156 C158 1.381 . S
C156 C162 1.383 . S
C157 C153 1.495 . S
C157 H163 0.959 . S
C157 H164 0.961 . S
C157 H165 0.960 . S
C158 C156 1.381 . S
C158 C159 1.394 . S
C158 H166 0.930 . S
C159 C158 1.394 . S
C159 C160 1.383 . S
C159 H167 0.929 . S
C160 C159 1.383 . S
C160 C161 1.377 . S
C161 H145 0.930 . S
C161 C160 1.377 . S
C161 C162 1.379 . S
C162 H146 0.931 . S
C162 C156 1.383 . S
C162 C161 1.379 . S
H163 C157 0.959 . S
H164 C157 0.961 . S
H165 C157 0.960 . S
H166 C158 0.930 . S
H167 C159 0.929 . S
H168 C176 0.929 . S
H169 C178 0.930 . S
H170 C180 0.930 . S
H171 C183 0.929 . S
H172 C186 0.930 . S
H173 C188 0.960 . S
H174 C188 0.960 . S
H175 C188 0.960 . S
C176 H168 0.929 . S
C176 C177 1.377 . S
C176 C178 1.384 . S
C177 C176 1.377 . S
C177 C183 1.390 . S
C178 H169 0.930 . S
C178 C176 1.384 . S
C178 C179 1.372 . S
C179 C178 1.372 . S
C179 C180 1.400 . S
C179 C184 1.490 . S
C180 H170 0.930 . S
C180 C179 1.400 . S
C180 C183 1.386 . S
H181 C197 0.930 . S
H182 C198 0.931 . S
C183 H171 0.929 . S
C183 C177 1.390 . S
C183 C180 1.386 . S
C184 C179 1.490 . S
C184 C186 1.395 . S
C184 C187 1.403 . S
H185 C191 0.930 . S
C186 H172 0.930 . S
C186 C184 1.395 . S
C186 C189 1.403 . S
C187 C184 1.403 . S
C187 C188 1.524 . S
C187 C191 1.400 . S
C188 H173 0.960 . S
C188 H174 0.960 . S
C188 H175 0.960 . S
C188 C187 1.524 . S
C189 C186 1.403 . S
C189 C190 1.392 . S
C189 C193 1.495 . S
C190 C189 1.392 . S
C190 C191 1.385 . S
C190 C192 1.478 . S
C191 H185 0.930 . S
C191 C187 1.400 . S
C191 C190 1.385 . S
C192 C190 1.478 . S
C192 C194 1.381 . S
C192 C198 1.383 . S
C193 C189 1.495 . S
C193 H199 0.959 . S
C193 H200 0.961 . S
C193 H201 0.960 . S
C194 C192 1.381 . S
C194 C195 1.394 . S
C194 H202 0.930 . S
C195 C194 1.394 . S
C195 C196 1.383 . S
C195 H203 0.929 . S
C196 C195 1.383 . S
C196 C197 1.377 . S
C197 H181 0.930 . S
C197 C196 1.377 . S
C197 C198 1.379 . S
C198 H182 0.931 . S
C198 C192 1.383 . S
C198 C197 1.379 . S
H199 C193 0.959 . S
H200 C193 0.961 . S
H201 C193 0.960 . S
H202 C194 0.930 . S
H203 C195 0.929 . S
H204 C212 0.929 . S
H205 C214 0.930 . S
H206 C216 0.930 . S
H207 C219 0.929 . S
H208 C222 0.930 . S
H209 C224 0.960 . S
H210 C224 0.960 . S
H211 C224 0.960 . S
C212 H204 0.929 . S
C212 C213 1.377 . S
C212 C214 1.384 . S
C213 C212 1.377 . S
C213 C219 1.390 . S
C214 H205 0.930 . S
C214 C212 1.384 . S
C214 C215 1.372 . S
C215 C214 1.372 . S
C215 C216 1.400 . S
C215 C220 1.490 . S
C216 H206 0.930 . S
C216 C215 1.400 . S
C216 C219 1.386 . S
H217 C233 0.930 . S
H218 C234 0.931 . S
C219 H207 0.929 . S
C219 C213 1.390 . S
C219 C216 1.386 . S
C220 C215 1.490 . S
C220 C222 1.395 . S
C220 C223 1.403 . S
H221 C227 0.930 . S
C222 H208 0.930 . S
C222 C220 1.395 . S
C222 C225 1.403 . S
C223 C220 1.403 . S
C223 C224 1.524 . S
C223 C227 1.400 . S
C224 H209 0.960 . S
C224 H210 0.960 . S
C224 H211 0.960 . S
C224 C223 1.524 . S
C225 C222 1.403 . S
C225 C226 1.392 . S
C225 C229 1.495 . S
C226 C225 1.392 . S
C226 C227 1.385 . S
C226 C228 1.478 . S
C227 H221 0.930 . S
C227 C223 1.400 . S
C227 C226 1.385 . S
C228 C226 1.478 . S
C228 C230 1.381 . S
C228 C234 1.383 . S
C229 C225 1.495 . S
C229 H235 0.959 . S
C229 H236 0.961 . S
C229 H237 0.960 . S
C230 C228 1.381 . S
C230 C231 1.394 . S
C230 H238 0.930 . S
C231 C230 1.394 . S
C231 C232 1.383 . S
C231 H239 0.929 . S
C232 C231 1.383 . S
C232 C233 1.377 . S
C233 H217 0.930 . S
C233 C232 1.377 . S
C233 C234 1.379 . S
C234 H218 0.931 . S
C234 C228 1.383 . S
C234 C233 1.379 . S
H235 C229 0.959 . S
H236 C229 0.961 . S
H237 C229 0.960 . S
H238 C230 0.930 . S
H239 C231 0.929 . S
H240 C248 0.929 . S
H241 C250 0.930 . S
H242 C252 0.930 . S
H243 C255 0.929 . S
H244 C258 0.930 . S
H245 C260 0.960 . S
H246 C260 0.960 . S
H247 C260 0.960 . S
C248 H240 0.929 . S
C248 C249 1.377 . S
C248 C250 1.384 . S
C249 C248 1.377 . S
C249 C255 1.390 . S
C250 H241 0.930 . S
C250 C248 1.384 . S
C250 C251 1.372 . S
C251 C250 1.372 . S
C251 C252 1.400 . S
C251 C256 1.490 . S
C252 H242 0.930 . S
C252 C251 1.400 . S
C252 C255 1.386 . S
H253 C269 0.930 . S
H254 C270 0.931 . S
C255 H243 0.929 . S
C255 C249 1.390 . S
C255 C252 1.386 . S
C256 C251 1.490 . S
C256 C258 1.395 . S
C256 C259 1.403 . S
H257 C263 0.930 . S
C258 H244 0.930 . S
C258 C256 1.395 . S
C258 C261 1.403 . S
C259 C256 1.403 . S
C259 C260 1.524 . S
C259 C263 1.400 . S
C260 H245 0.960 . S
C260 H246 0.960 . S
C260 H247 0.960 . S
C260 C259 1.524 . S
C261 C258 1.403 . S
C261 C262 1.392 . S
C261 C265 1.495 . S
C262 C261 1.392 . S
C262 C263 1.385 . S
C262 C264 1.478 . S
C263 H257 0.930 . S
C263 C259 1.400 . S
C263 C262 1.385 . S
C264 C262 1.478 . S
C264 C266 1.381 . S
C264 C270 1.383 . S
C265 C261 1.495 . S
C265 H271 0.959 . S
C265 H272 0.961 . S
C265 H273 0.960 . S
C266 C264 1.381 . S
C266 C267 1.394 . S
C266 H274 0.930 . S
C267 C266 1.394 . S
C267 C268 1.383 . S
C267 H275 0.929 . S
C268 C267 1.383 . S
C268 C269 1.377 . S
C269 H253 0.930 . S
C269 C268 1.377 . S
C269 C270 1.379 . S
C270 H254 0.931 . S
C270 C264 1.383 . S
C270 C269 1.379 . S
H271 C265 0.959 . S
H272 C265 0.961 . S
H273 C265 0.960 . S
H274 C266 0.930 . S
H275 C267 0.929 . S
H276 C284 0.929 . S
H277 C286 0.930 . S
H278 C288 0.930 . S
H279 C291 0.929 . S
H280 C294 0.930 . S
H281 C296 0.960 . S
H282 C296 0.960 . S
H283 C296 0.960 . S
C284 H276 0.929 . S
C284 C285 1.377 1_556 S
C284 C286 1.384 . S
C285 C284 1.377 1_554 S
C285 C291 1.390 . S
C286 H277 0.930 . S
C286 C284 1.384 . S
C286 C287 1.372 . S
C287 C286 1.372 . S
C287 C288 1.400 . S
C287 C292 1.490 . S
C288 H278 0.930 . S
C288 C287 1.400 . S
C288 C291 1.386 1_556 S
H289 C305 0.930 . S
H290 C306 0.931 . S
C291 H279 0.929 . S
C291 C285 1.390 . S
C291 C288 1.386 1_554 S
C292 C287 1.490 . S
C292 C294 1.395 . S
C292 C295 1.403 . S
H293 C299 0.930 . S
C294 H280 0.930 . S
C294 C292 1.395 . S
C294 C297 1.403 . S
C295 C292 1.403 . S
C295 C296 1.524 . S
C295 C299 1.400 . S
C296 H281 0.960 . S
C296 H282 0.960 . S
C296 H283 0.960 . S
C296 C295 1.524 . S
C297 C294 1.403 . S
C297 C298 1.392 . S
C297 C301 1.495 . S
C298 C297 1.392 . S
C298 C299 1.385 . S
C298 C300 1.478 . S
C299 H293 0.930 . S
C299 C295 1.400 . S
C299 C298 1.385 . S
C300 C298 1.478 . S
C300 C302 1.381 . S
C300 C306 1.383 . S
C301 C297 1.495 . S
C301 H307 0.959 . S
C301 H308 0.961 . S
C301 H309 0.960 . S
C302 C300 1.381 . S
C302 C303 1.394 . S
C302 H310 0.930 . S
C303 C302 1.394 . S
C303 C304 1.383 . S
C303 H311 0.929 . S
C304 C303 1.383 . S
C304 C305 1.377 . S
C305 H289 0.930 . S
C305 C304 1.377 . S
C305 C306 1.379 . S
C306 H290 0.931 . S
C306 C300 1.383 . S
C306 C305 1.379 . S
H307 C301 0.959 . S
H308 C301 0.961 . S
H309 C301 0.960 . S
H310 C302 0.930 . S
H311 C303 0.929 . S
H312 C320 0.929 . S
H313 C322 0.930 . S
H314 C324 0.930 . S
H315 C327 0.929 . S
H316 C330 0.930 . S
H317 C332 0.960 . S
H318 C332 0.960 . S
H319 C332 0.960 . S
C320 H312 0.929 . S
C320 C321 1.377 . S
C320 C322 1.384 . S
C321 C320 1.377 . S
C321 C327 1.390 . S
C322 H313 0.930 . S
C322 C320 1.384 . S
C322 C323 1.372 . S
C323 C322 1.372 . S
C323 C324 1.400 . S
C323 C328 1.490 . S
C324 H314 0.930 . S
C324 C323 1.400 . S
C324 C327 1.386 . S
H325 C341 0.936 . S
H326 C342 0.931 . S
C327 H315 0.929 . S
C327 C321 1.390 . S
C327 C324 1.386 . S
C328 C323 1.490 . S
C328 C330 1.395 . S
C328 C331 1.403 . S
H329 C335 0.930 . S
C330 H316 0.930 . S
C330 C328 1.395 . S
C330 C333 1.403 . S
C331 C328 1.403 . S
C331 C332 1.524 . S
C331 C335 1.400 . S
C332 H317 0.960 . S
C332 H318 0.960 . S
C332 H319 0.960 . S
C332 C331 1.524 . S
C333 C330 1.403 . S
C333 C334 1.392 . S
C333 C337 1.495 . S
C334 C333 1.392 . S
C334 C335 1.385 . S
C334 C336 1.478 . S
C335 H329 0.930 . S
C335 C331 1.400 . S
C335 C334 1.385 . S
C336 C334 1.478 . S
C336 C338 1.381 . S
C336 C342 1.383 . S
C337 C333 1.495 . S
C337 H343 0.959 . S
C337 H344 0.961 . S
C337 H345 0.960 . S
C338 C336 1.381 . S
C338 C339 1.394 1_554 S
C338 H346 0.930 . S
C339 C338 1.394 1_556 S
C339 C340 1.383 . S
C339 H347 0.929 . S
C340 C339 1.383 . S
C340 C341 1.377 1_556 S
C341 H325 0.936 . S
C341 C340 1.377 1_554 S
C341 C342 1.379 . S
C342 H326 0.931 . S
C342 C336 1.383 . S
C342 C341 1.379 . S
H343 C337 0.959 . S
H344 C337 0.961 . S
H345 C337 0.960 . S
H346 C338 0.930 . S
H347 C339 0.929 . S
H348 C356 0.929 . S
H349 C358 0.930 . S
H350 C360 0.930 . S
H351 C363 0.929 . S
H352 C366 0.930 . S
H353 C368 0.960 . S
H354 C368 0.960 . S
H355 C368 0.960 . S
C356 H348 0.929 . S
C356 C357 1.377 . S
C356 C358 1.384 . S
C357 C356 1.377 . S
C357 C363 1.390 . S
C358 H349 0.930 . S
C358 C356 1.384 . S
C358 C359 1.372 . S
C359 C358 1.372 . S
C359 C360 1.400 . S
C359 C364 1.490 . S
C360 H350 0.930 . S
C360 C359 1.400 . S
C360 C363 1.386 . S
H361 C377 0.930 . S
H362 C378 0.931 . S
C363 H351 0.929 . S
C363 C357 1.390 . S
C363 C360 1.386 . S
C364 C359 1.490 . S
C364 C366 1.395 1_556 S
C364 C367 1.403 . S
H365 C371 0.930 . S
C366 H352 0.930 . S
C366 C364 1.395 1_554 S
C366 C369 1.403 . S
C367 C364 1.403 . S
C367 C368 1.524 . S
C367 C371 1.400 . S
C368 H353 0.960 . S
C368 H354 0.960 . S
C368 H355 0.960 . S
C368 C367 1.524 . S
C369 C366 1.403 . S
C369 C370 1.392 . S
C369 C373 1.495 . S
C370 C369 1.392 . S
C370 C371 1.385 1_554 S
C370 C372 1.478 . S
C371 H365 0.930 . S
C371 C367 1.400 . S
C371 C370 1.385 1_556 S
C372 C370 1.478 . S
C372 C374 1.381 . S
C372 C378 1.383 . S
C373 C369 1.495 . S
C373 H379 0.959 . S
C373 H380 0.961 . S
C373 H381 0.960 . S
C374 C372 1.381 . S
C374 C375 1.394 . S
C374 H382 0.930 . S
C375 C374 1.394 . S
C375 C376 1.383 . S
C375 H383 0.929 . S
C376 C375 1.383 . S
C376 C377 1.377 . S
C377 H361 0.930 . S
C377 C376 1.377 . S
C377 C378 1.379 . S
C378 H362 0.931 . S
C378 C372 1.383 . S
C378 C377 1.379 . S
H379 C373 0.959 . S
H380 C373 0.961 . S
H381 C373 0.960 . S
H382 C374 0.930 . S
H383 C375 0.929 . S
H384 C392 0.929 . S
H385 C394 0.930 . S
H386 C396 0.930 . S
H387 C399 0.929 . S
H388 C402 0.930 . S
H389 C404 0.960 . S
H390 C404 0.960 . S
H391 C404 0.960 . S
C392 H384 0.929 . S
C392 C393 1.377 . S
C392 C394 1.384 1_455 S
C393 C392 1.377 . S
C393 C399 1.390 . S
C394 H385 0.930 . S
C394 C392 1.384 1_655 S
C394 C395 1.372 . S
C395 C394 1.372 . S
C395 C396 1.400 . S
C395 C400 1.490 . S
C396 H386 0.930 . S
C396 C395 1.400 . S
C396 C399 1.386 1_655 S
H397 C413 0.930 . S
H398 C414 0.931 . S
C399 H387 0.929 . S
C399 C393 1.390 . S
C399 C396 1.386 1_455 S
C400 C395 1.490 . S
C400 C402 1.395 . S
C400 C403 1.403 . S
H401 C407 0.930 . S
C402 H388 0.930 . S
C402 C400 1.395 . S
C402 C405 1.403 . S
C403 C400 1.403 . S
C403 C404 1.524 . S
C403 C407 1.400 . S
C404 H389 0.960 . S
C404 H390 0.960 . S
C404 H391 0.960 . S
C404 C403 1.524 . S
C405 C402 1.403 . S
C405 C406 1.392 . S
C405 C409 1.495 . S
C406 C405 1.392 . S
C406 C407 1.385 . S
C406 C408 1.478 . S
C407 H401 0.930 . S
C407 C403 1.400 . S
C407 C406 1.385 . S
C408 C406 1.478 . S
C408 C410 1.381 . S
C408 C414 1.383 . S
C409 C405 1.495 . S
C409 H415 0.959 . S
C409 H416 0.961 . S
C409 H417 0.960 . S
C410 C408 1.381 . S
C410 C411 1.394 . S
C410 H418 0.930 . S
C411 C410 1.394 . S
C411 C412 1.383 . S
C411 H419 0.929 . S
C412 C411 1.383 . S
C412 C413 1.377 . S
C413 H397 0.930 . S
C413 C412 1.377 . S
C413 C414 1.379 . S
C414 H398 0.931 . S
C414 C408 1.383 . S
C414 C413 1.379 . S
H415 C409 0.959 . S
H416 C409 0.961 . S
H417 C409 0.960 . S
H418 C410 0.930 . S
H419 C411 0.929 . S
H420 C428 0.929 . S
H421 C430 0.930 . S
H422 C432 0.930 . S
H423 C435 0.929 . S
H424 C438 0.930 . S
H425 C440 0.960 . S
H426 C440 0.960 . S
H427 C440 0.960 . S
C428 H420 0.929 . S
C428 C429 1.377 . S
C428 C430 1.384 . S
C429 C428 1.377 . S
C429 C435 1.390 . S
C430 H421 0.930 . S
C430 C428 1.384 . S
C430 C431 1.372 . S
C431 C430 1.372 . S
C431 C432 1.400 . S
C431 C436 1.490 . S
C432 H422 0.930 . S
C432 C431 1.400 . S
C432 C435 1.386 . S
H433 C449 0.930 . S
H434 C450 0.931 . S
C435 H423 0.929 . S
C435 C429 1.390 . S
C435 C432 1.386 . S
C436 C431 1.490 . S
C436 C438 1.395 . S
C436 C439 1.403 . S
H437 C443 0.930 . S
C438 H424 0.930 . S
C438 C436 1.395 . S
C438 C441 1.403 . S
C439 C436 1.403 . S
C439 C440 1.524 . S
C439 C443 1.400 . S
C440 H425 0.960 . S
C440 H426 0.960 . S
C440 H427 0.960 . S
C440 C439 1.524 . S
C441 C438 1.403 . S
C441 C442 1.392 . S
C441 C445 1.495 . S
C442 C441 1.392 . S
C442 C443 1.385 . S
C442 C444 1.478 . S
C443 H437 0.930 . S
C443 C439 1.400 . S
C443 C442 1.385 . S
C444 C442 1.478 . S
C444 C446 1.381 . S
C444 C450 1.383 . S
C445 C441 1.495 . S
C445 H451 0.959 . S
C445 H452 0.961 . S
C445 H453 0.960 . S
C446 C444 1.381 . S
C446 C447 1.394 1_565 S
C446 H454 0.930 . S
C447 C446 1.394 1_545 S
C447 C448 1.383 . S
C447 H455 0.929 . S
C448 C447 1.383 . S
C448 C449 1.377 . S
C449 H433 0.930 . S
C449 C448 1.377 . S
C449 C450 1.379 1_545 S
C450 H434 0.931 . S
C450 C444 1.383 . S
C450 C449 1.379 1_565 S
H451 C445 0.959 . S
H452 C445 0.961 . S
H453 C445 0.960 . S
H454 C446 0.930 . S
H455 C447 0.929 . S
H456 C464 0.929 . S
H457 C466 0.930 . S
H458 C468 0.930 . S
H459 C471 0.929 . S
H460 C474 0.930 . S
H461 C476 0.960 . S
H462 C476 0.960 . S
H463 C476 0.960 . S
C464 H456 0.929 . S
C464 C465 1.377 . S
C464 C466 1.384 . S
C465 C464 1.377 . S
C465 C471 1.390 . S
C466 H457 0.930 . S
C466 C464 1.384 . S
C466 C467 1.372 . S
C467 C466 1.372 . S
C467 C468 1.400 . S
C467 C472 1.490 . S
C468 H458 0.930 . S
C468 C467 1.400 . S
C468 C471 1.386 . S
H469 C485 0.930 . S
H470 C486 0.931 . S
C471 H459 0.929 . S
C471 C465 1.390 . S
C471 C468 1.386 . S
C472 C467 1.490 . S
C472 C474 1.395 . S
C472 C475 1.403 . S
H473 C479 0.930 . S
C474 H460 0.930 . S
C474 C472 1.395 . S
C474 C477 1.403 . S
C475 C472 1.403 . S
C475 C476 1.524 . S
C475 C479 1.400 . S
C476 H461 0.960 . S
C476 H462 0.960 . S
C476 H463 0.960 . S
C476 C475 1.524 . S
C477 C474 1.403 . S
C477 C478 1.392 . S
C477 C481 1.495 . S
C478 C477 1.392 . S
C478 C479 1.385 . S
C478 C480 1.478 . S
C479 H473 0.930 . S
C479 C475 1.400 . S
C479 C478 1.385 . S
C480 C478 1.478 . S
C480 C482 1.381 . S
C480 C486 1.383 . S
C481 C477 1.495 . S
C481 H487 0.959 . S
C481 H488 0.961 . S
C481 H489 0.960 . S
C482 C480 1.381 . S
C482 C483 1.394 . S
C482 H490 0.930 . S
C483 C482 1.394 . S
C483 C484 1.383 . S
C483 H491 0.929 . S
C484 C483 1.383 . S
C484 C485 1.377 . S
C485 H469 0.930 . S
C485 C484 1.377 . S
C485 C486 1.379 . S
C486 H470 0.931 . S
C486 C480 1.383 . S
C486 C485 1.379 . S
H487 C481 0.959 . S
H488 C481 0.961 . S
H489 C481 0.960 . S
H490 C482 0.930 . S
H491 C483 0.929 . S
H492 C500 0.929 . S
H493 C502 0.930 . S
H494 C504 0.930 . S
H495 C507 0.929 . S
H496 C510 0.930 . S
H497 C512 0.960 . S
H498 C512 0.960 . S
H499 C512 0.960 . S
C500 H492 0.929 . S
C500 C501 1.377 . S
C500 C502 1.384 . S
C501 C500 1.377 . S
C501 C507 1.390 . S
C502 H493 0.930 . S
C502 C500 1.384 . S
C502 C503 1.372 . S
C503 C502 1.372 . S
C503 C504 1.400 . S
C503 C508 1.490 . S
C504 H494 0.930 . S
C504 C503 1.400 . S
C504 C507 1.386 . S
H505 C521 0.930 . S
H506 C522 0.931 . S
C507 H495 0.929 . S
C507 C501 1.390 . S
C507 C504 1.386 . S
C508 C503 1.490 . S
C508 C510 1.395 . S
C508 C511 1.403 . S
H509 C515 0.930 . S
C510 H496 0.930 . S
C510 C508 1.395 . S
C510 C513 1.403 . S
C511 C508 1.403 . S
C511 C512 1.524 . S
C511 C515 1.400 . S
C512 H497 0.960 . S
C512 H498 0.960 . S
C512 H499 0.960 . S
C512 C511 1.524 . S
C513 C510 1.403 . S
C513 C514 1.392 . S
C513 C517 1.495 . S
C514 C513 1.392 . S
C514 C515 1.385 . S
C514 C516 1.478 . S
C515 H509 0.930 . S
C515 C511 1.400 . S
C515 C514 1.385 . S
C516 C514 1.478 . S
C516 C518 1.381 . S
C516 C522 1.383 . S
C517 C513 1.495 . S
C517 H523 0.959 . S
C517 H524 0.961 . S
C517 H525 0.960 . S
C518 C516 1.381 . S
C518 C519 1.394 1_455 S
C518 H526 0.930 . S
C519 C518 1.394 1_655 S
C519 C520 1.383 . S
C519 H527 0.929 . S
C520 C519 1.383 . S
C520 C521 1.377 . S
C521 H505 0.930 . S
C521 C520 1.377 . S
C521 C522 1.379 1_655 S
C522 H506 0.931 . S
C522 C516 1.383 . S
C522 C521 1.379 1_455 S
H523 C517 0.959 . S
H524 C517 0.961 . S
H525 C517 0.960 . S
H526 C518 0.930 . S
H527 C519 0.929 . S
H528 C536 0.929 . S
H529 C538 0.930 . S
H530 C540 0.930 . S
H531 C543 0.929 . S
H532 C546 0.930 . S
H533 C548 0.960 . S
H534 C548 0.960 . S
H535 C548 0.960 . S
C536 H528 0.929 . S
C536 C537 1.377 . S
C536 C538 1.384 . S
C537 C536 1.377 . S
C537 C543 1.390 . S
C538 H529 0.930 . S
C538 C536 1.384 . S
C538 C539 1.372 . S
C539 C538 1.372 . S
C539 C540 1.400 . S
C539 C544 1.490 . S
C540 H530 0.930 . S
C540 C539 1.400 . S
C540 C543 1.386 . S
H541 C557 0.930 . S
H542 C558 0.931 . S
C543 H531 0.929 . S
C543 C537 1.390 . S
C543 C540 1.386 . S
C544 C539 1.490 . S
C544 C546 1.395 . S
C544 C547 1.403 . S
H545 C551 0.930 . S
C546 H532 0.930 . S
C546 C544 1.395 . S
C546 C549 1.403 . S
C547 C544 1.403 . S
C547 C548 1.524 . S
C547 C551 1.400 . S
C548 H533 0.960 . S
C548 H534 0.960 . S
C548 H535 0.960 . S
C548 C547 1.524 . S
C549 C546 1.403 . S
C549 C550 1.392 . S
C549 C553 1.495 . S
C550 C549 1.392 . S
C550 C551 1.385 . S
C550 C552 1.478 . S
C551 H545 0.930 . S
C551 C547 1.400 . S
C551 C550 1.385 . S
C552 C550 1.478 . S
C552 C554 1.381 . S
C552 C558 1.383 . S
C553 C549 1.495 . S
C553 H559 0.959 . S
C553 H560 0.961 . S
C553 H561 0.960 . S
C554 C552 1.381 . S
C554 C555 1.394 1_545 S
C554 H562 0.930 . S
C555 C554 1.394 1_565 S
C555 C556 1.383 . S
C555 H563 0.929 . S
C556 C555 1.383 . S
C556 C557 1.377 . S
C557 H541 0.930 . S
C557 C556 1.377 . S
C557 C558 1.379 1_565 S
C558 H542 0.931 . S
C558 C552 1.383 . S
C558 C557 1.379 1_545 S
H559 C553 0.959 . S
H560 C553 0.961 . S
H561 C553 0.960 . S
H562 C554 0.930 . S
H563 C555 0.929 . S
H564 C572 0.929 . S
H565 C574 0.930 . S
H566 C576 0.930 . S
H567 C579 0.929 . S
H568 C582 0.930 . S
H569 C584 0.960 . S
H570 C584 0.960 . S
H571 C584 0.960 . S
C572 H564 0.929 . S
C572 C573 1.377 . S
C572 C574 1.384 . S
C573 C572 1.377 . S
C573 C579 1.390 . S
C574 H565 0.930 . S
C574 C572 1.384 . S
C574 C575 1.372 . S
C575 C574 1.372 . S
C575 C576 1.400 . S
C575 C580 1.490 . S
C576 H566 0.930 . S
C576 C575 1.400 . S
C576 C579 1.386 . S
H577 C593 0.930 . S
H578 C594 0.931 . S
C579 H567 0.929 . S
C579 C573 1.390 . S
C579 C576 1.386 . S
C580 C575 1.490 . S
C580 C582 1.395 . S
C580 C583 1.403 . S
H581 C587 0.930 . S
C582 H568 0.930 . S
C582 C580 1.395 . S
C582 C585 1.403 . S
C583 C580 1.403 . S
C583 C584 1.524 . S
C583 C587 1.400 . S
C584 H569 0.960 . S
C584 H570 0.960 . S
C584 H571 0.960 . S
C584 C583 1.524 . S
C585 C582 1.403 . S
C585 C586 1.392 . S
C585 C589 1.495 . S
C586 C585 1.392 . S
C586 C587 1.385 . S
C586 C588 1.478 . S
C587 H581 0.930 . S
C587 C583 1.400 . S
C587 C586 1.385 . S
C588 C586 1.478 . S
C588 C590 1.381 . S
C588 C594 1.383 . S
C589 C585 1.495 . S
C589 H595 0.959 . S
C589 H596 0.961 . S
C589 H597 0.960 . S
C590 C588 1.381 . S
C590 C591 1.394 . S
C590 H598 0.930 . S
C591 C590 1.394 . S
C591 C592 1.383 . S
C591 H599 0.929 . S
C592 C591 1.383 . S
C592 C593 1.377 . S
C593 H577 0.930 . S
C593 C592 1.377 . S
C593 C594 1.379 . S
C594 H578 0.931 . S
C594 C588 1.383 . S
C594 C593 1.379 . S
H595 C589 0.959 . S
H596 C589 0.961 . S
H597 C589 0.960 . S
H598 C590 0.930 . S
H599 C591 0.929 . S
H600 C608 0.929 . S
H601 C610 0.930 . S
H602 C612 0.930 . S
H603 C615 0.929 . S
H604 C618 0.930 . S
H605 C620 0.960 . S
H606 C620 0.960 . S
H607 C620 0.960 . S
C608 H600 0.929 . S
C608 C609 1.377 . S
C608 C610 1.384 1_455 S
C609 C608 1.377 . S
C609 C615 1.390 . S
C610 H601 0.930 . S
C610 C608 1.384 1_655 S
C610 C611 1.372 . S
C611 C610 1.372 . S
C611 C612 1.400 1_655 S
C611 C616 1.490 . S
C612 H602 0.930 . S
C612 C611 1.400 1_455 S
C612 C615 1.386 . S
H613 C629 0.930 . S
H614 C630 0.931 . S
C615 H603 0.929 . S
C615 C609 1.390 . S
C615 C612 1.386 . S
C616 C611 1.490 . S
C616 C618 1.395 . S
C616 C619 1.403 1_554 S
H617 C623 0.930 . S
C618 H604 0.930 . S
C618 C616 1.395 . S
C618 C621 1.403 . S
C619 C616 1.403 1_556 S
C619 C620 1.524 . S
C619 C623 1.400 . S
C620 H605 0.960 . S
C620 H606 0.960 . S
C620 H607 0.960 . S
C620 C619 1.524 . S
C621 C618 1.403 . S
C621 C622 1.392 1_554 S
C621 C625 1.495 . S
C622 C621 1.392 1_556 S
C622 C623 1.385 . S
C622 C624 1.478 . S
C623 H617 0.930 . S
C623 C619 1.400 . S
C623 C622 1.385 . S
C624 C622 1.478 . S
C624 C626 1.381 . S
C624 C630 1.383 . S
C625 C621 1.495 . S
C625 H631 0.959 . S
C625 H632 0.961 . S
C625 H633 0.960 . S
C626 C624 1.381 . S
C626 C627 1.394 . S
C626 H634 0.915 1_556 S
C627 C626 1.394 . S
C627 C628 1.383 . S
C627 H635 0.929 . S
C628 C627 1.383 . S
C628 C629 1.377 . S
C629 H613 0.930 . S
C629 C628 1.377 . S
C629 C630 1.379 . S
C630 H614 0.931 . S
C630 C624 1.383 . S
C630 C629 1.379 . S
H631 C625 0.959 . S
H632 C625 0.961 . S
H633 C625 0.960 . S
H634 C626 0.915 1_554 S
H635 C627 0.929 . S
H636 C644 0.929 . S
H637 C646 0.930 . S
H638 C648 0.931 . S
H639 C651 0.929 . S
H640 C654 0.930 . S
H641 C656 0.960 . S
H642 C656 0.960 . S
H643 C656 0.960 . S
C644 H636 0.929 . S
C644 C645 1.377 1_565 S
C644 C646 1.384 . S
C645 C644 1.377 1_545 S
C645 C651 1.390 . S
C646 H637 0.930 . S
C646 C644 1.384 . S
C646 C647 1.372 . S
C647 C646 1.372 . S
C647 C648 1.400 . S
C647 C652 1.490 . S
C648 H638 0.931 . S
C648 C647 1.400 . S
C648 C651 1.386 1_565 S
H649 C665 0.930 . S
H650 C666 0.931 . S
C651 H639 0.929 . S
C651 C645 1.390 . S
C651 C648 1.386 1_545 S
C652 C647 1.490 . S
C652 C654 1.395 . S
C652 C655 1.403 . S
H653 C659 0.930 . S
C654 H640 0.930 . S
C654 C652 1.395 . S
C654 C657 1.403 . S
C655 C652 1.403 . S
C655 C656 1.524 . S
C655 C659 1.400 . S
C656 H641 0.960 . S
C656 H642 0.960 . S
C656 H643 0.960 . S
C656 C655 1.524 . S
C657 C654 1.403 . S
C657 C658 1.392 . S
C657 C661 1.495 . S
C658 C657 1.392 . S
C658 C659 1.385 . S
C658 C660 1.478 . S
C659 H653 0.930 . S
C659 C655 1.400 . S
C659 C658 1.385 . S
C660 C658 1.478 . S
C660 C662 1.381 . S
C660 C666 1.383 . S
C661 C657 1.495 . S
C661 H667 0.959 . S
C661 H668 0.961 . S
C661 H669 0.960 . S
C662 C660 1.381 . S
C662 C663 1.394 . S
C662 H670 0.930 . S
C663 C662 1.394 . S
C663 C664 1.383 . S
C663 H671 0.929 . S
C664 C663 1.383 . S
C664 C665 1.377 . S
C665 H649 0.930 . S
C665 C664 1.377 . S
C665 C666 1.379 . S
C666 H650 0.931 . S
C666 C660 1.383 . S
C666 C665 1.379 . S
H667 C661 0.959 . S
H668 C661 0.961 . S
H669 C661 0.960 . S
H670 C662 0.930 . S
H671 C663 0.929 . S
H672 C680 0.929 . S
H673 C682 0.930 . S
H674 C684 0.930 . S
H675 C687 0.929 . S
H676 C690 0.930 . S
H677 C692 0.960 . S
H678 C692 0.960 . S
H679 C692 0.960 . S
C680 H672 0.929 . S
C680 C681 1.377 . S
C680 C682 1.384 . S
C681 C680 1.377 . S
C681 C687 1.390 . S
C682 H673 0.930 . S
C682 C680 1.384 . S
C682 C683 1.372 . S
C683 C682 1.372 . S
C683 C684 1.400 . S
C683 C688 1.490 . S
C684 H674 0.930 . S
C684 C683 1.400 . S
C684 C687 1.386 . S
H685 C701 0.930 . S
H686 C702 0.931 . S
C687 H675 0.929 . S
C687 C681 1.390 . S
C687 C684 1.386 . S
C688 C683 1.490 . S
C688 C690 1.395 . S
C688 C691 1.403 . S
H689 C695 0.930 . S
C690 H676 0.930 . S
C690 C688 1.395 . S
C690 C693 1.403 . S
C691 C688 1.403 . S
C691 C692 1.524 . S
C691 C695 1.400 . S
C692 H677 0.960 . S
C692 H678 0.960 . S
C692 H679 0.960 . S
C692 C691 1.524 . S
C693 C690 1.403 . S
C693 C694 1.392 . S
C693 C697 1.495 . S
C694 C693 1.392 . S
C694 C695 1.385 . S
C694 C696 1.478 . S
C695 H689 0.930 . S
C695 C691 1.400 . S
C695 C694 1.385 . S
C696 C694 1.478 . S
C696 C698 1.381 . S
C696 C702 1.383 . S
C697 C693 1.495 . S
C697 H703 0.959 . S
C697 H704 0.961 . S
C697 H705 0.960 . S
C698 C696 1.381 . S
C698 C699 1.394 . S
C698 H706 0.930 . S
C699 C698 1.394 . S
C699 C700 1.383 . S
C699 H707 0.929 . S
C700 C699 1.383 . S
C700 C701 1.377 . S
C701 H685 0.930 . S
C701 C700 1.377 . S
C701 C702 1.379 . S
C702 H686 0.931 . S
C702 C696 1.383 . S
C702 C701 1.379 . S
H703 C697 0.959 . S
H704 C697 0.961 . S
H705 C697 0.960 . S
H706 C698 0.930 . S
H707 C699 0.929 . S
H708 C716 0.929 . S
H709 C718 0.930 . S
H710 C720 0.930 . S
H711 C723 0.929 . S
H712 C726 0.930 . S
H713 C728 0.960 . S
H714 C728 0.960 . S
H715 C728 0.960 . S
C716 H708 0.929 . S
C716 C717 1.377 . S
C716 C718 1.384 . S
C717 C716 1.377 . S
C717 C723 1.390 . S
C718 H709 0.930 . S
C718 C716 1.384 . S
C718 C719 1.372 1_655 S
C719 C718 1.372 1_455 S
C719 C720 1.400 . S
C719 C724 1.490 . S
C720 H710 0.930 . S
C720 C719 1.400 . S
C720 C723 1.386 1_455 S
H721 C737 0.930 . S
H722 C738 0.931 . S
C723 H711 0.929 . S
C723 C717 1.390 . S
C723 C720 1.386 1_655 S
C724 C719 1.490 . S
C724 C726 1.395 . S
C724 C727 1.403 . S
H725 C731 0.930 . S
C726 H712 0.930 . S
C726 C724 1.395 . S
C726 C729 1.403 . S
C727 C724 1.403 . S
C727 C728 1.524 . S
C727 C731 1.400 . S
C728 H713 0.960 . S
C728 H714 0.960 . S
C728 H715 0.960 . S
C728 C727 1.524 . S
C729 C726 1.403 . S
C729 C730 1.392 . S
C729 C733 1.495 . S
C730 C729 1.392 . S
C730 C731 1.385 . S
C730 C732 1.478 . S
C731 H725 0.930 . S
C731 C727 1.400 . S
C731 C730 1.385 . S
C732 C730 1.478 . S
C732 C734 1.381 . S
C732 C738 1.383 . S
C733 C729 1.495 . S
C733 H739 0.959 . S
C733 H740 0.961 . S
C733 H741 0.960 . S
C734 C732 1.381 . S
C734 C735 1.394 . S
C734 H742 0.930 . S
C735 C734 1.394 . S
C735 C736 1.383 . S
C735 H743 0.929 . S
C736 C735 1.383 . S
C736 C737 1.377 . S
C737 H721 0.930 . S
C737 C736 1.377 . S
C737 C738 1.379 . S
C738 H722 0.931 . S
C738 C732 1.383 . S
C738 C737 1.379 . S
H739 C733 0.959 . S
H740 C733 0.961 . S
H741 C733 0.960 . S
H742 C734 0.930 . S
H743 C735 0.929 . S
H744 C752 0.929 . S
H745 C754 0.930 . S
H746 C756 0.930 . S
H747 C759 0.929 . S
H748 C762 0.930 . S
H749 C764 0.960 . S
H750 C764 0.960 . S
H751 C764 0.960 . S
C752 H744 0.929 . S
C752 C753 1.377 . S
C752 C754 1.384 1_565 S
C753 C752 1.377 . S
C753 C759 1.390 . S
C754 H745 0.930 . S
C754 C752 1.384 1_545 S
C754 C755 1.372 . S
C755 C754 1.372 . S
C755 C756 1.400 . S
C755 C760 1.490 . S
C756 H746 0.930 . S
C756 C755 1.400 . S
C756 C759 1.386 1_545 S
H757 C773 0.930 . S
H758 C774 0.931 . S
C759 H747 0.929 . S
C759 C753 1.390 . S
C759 C756 1.386 1_565 S
C760 C755 1.490 . S
C760 C762 1.395 . S
C760 C763 1.403 . S
H761 C767 0.930 . S
C762 H748 0.930 . S
C762 C760 1.395 . S
C762 C765 1.403 . S
C763 C760 1.403 . S
C763 C764 1.524 . S
C763 C767 1.400 . S
C764 H749 0.960 . S
C764 H750 0.960 . S
C764 H751 0.960 . S
C764 C763 1.524 . S
C765 C762 1.403 . S
C765 C766 1.392 . S
C765 C769 1.495 . S
C766 C765 1.392 . S
C766 C767 1.385 . S
C766 C768 1.478 . S
C767 H761 0.930 . S
C767 C763 1.400 . S
C767 C766 1.385 . S
C768 C766 1.478 . S
C768 C770 1.381 . S
C768 C774 1.383 . S
C769 C765 1.495 . S
C769 H775 0.959 . S
C769 H776 0.961 . S
C769 H777 0.960 . S
C770 C768 1.381 . S
C770 C771 1.394 . S
C770 H778 0.930 . S
C771 C770 1.394 . S
C771 C772 1.383 . S
C771 H779 0.929 . S
C772 C771 1.383 . S
C772 C773 1.377 . S
C773 H757 0.930 . S
C773 C772 1.377 . S
C773 C774 1.379 . S
C774 H758 0.931 . S
C774 C768 1.383 . S
C774 C773 1.379 . S
H775 C769 0.959 . S
H776 C769 0.961 . S
H777 C769 0.960 . S
H778 C770 0.930 . S
H779 C771 0.929 . S
C141 C18 0.657 . S
C160 C52 0.646 . S
C177 C37 0.815 . S
C196 C73 0.821 . S
C213 C106 0.739 . S
C232 C51 0.751 . S
C249 C118 0.654 . S
C268 C74 0.668 . S
C285 C15 0.818 . S
C304 C103 0.839 . S
C321 C40 0.738 . S
C340 C117 0.758 . S
C357 C125 1.251 . S
C376 C10 1.288 . S
C393 C8 1.255 . S
C412 C29 1.268 . S
C429 C65 1.275 . S
C448 C43 1.285 . S
C465 C84 1.273 . S
C484 C59 1.260 . S
C501 C95 1.245 . S
C520 C76 1.254 . S
C537 C131 1.275 . S
C556 C109 1.286 . S
C573 C98 1.233 . S
C592 C120 1.249 . S
C609 C21 1.231 . S
C628 C128 1.254 . S
C645 C30 1.241 . S
C664 C7 1.227 . S
C681 C32 1.235 . S
C700 C54 1.235 . S
C717 C81 1.245 . S
C736 C62 1.257 . S
C753 C96 1.250 . S
C772 C87 1.261 . S
