# Generated by pormake.
# Topology rob, (6)-cn, num edge types: 1
# Building blocks:
#     Node 0, Type 0, BuildingBlock: LEVNOQ01_clean_sbu_1, # of connection points: 6
#     Node 1, Type 0, BuildingBlock: LEVNOQ01_clean_sbu_1, # of connection points: 6
#     Node 2, Type 0, BuildingBlock: LEVNOQ01_clean_sbu_1, # of connection points: 6
#     Node 3, Type 0, BuildingBlock: LEVNOQ01_clean_sbu_1, # of connection points: 6
#     Edge 4, Type (0, 0), BuildingBlock: TEMPAE_clean_linker_10, # of connection points: 2
#     Edge 5, Type (0, 0), BuildingBlock: TEMPAE_clean_linker_10, # of connection points: 2
#     Edge 6, Type (0, 0), BuildingBlock: TEMPAE_clean_linker_10, # of connection points: 2
#     Edge 7, Type (0, 0), BuildingBlock: TEMPAE_clean_linker_10, # of connection points: 2
#     Edge 8, Type (0, 0), BuildingBlock: TEMPAE_clean_linker_10, # of connection points: 2
#     Edge 9, Type (0, 0), BuildingBlock: TEMPAE_clean_linker_10, # of connection points: 2
#     Edge 10, Type (0, 0), BuildingBlock: TEMPAE_clean_linker_10, # of connection points: 2
#     Edge 11, Type (0, 0), BuildingBlock: TEMPAE_clean_linker_10, # of connection points: 2
#     Edge 12, Type (0, 0), BuildingBlock: TEMPAE_clean_linker_10, # of connection points: 2
#     Edge 13, Type (0, 0), BuildingBlock: TEMPAE_clean_linker_10, # of connection points: 2
#     Edge 14, Type (0, 0), BuildingBlock: TEMPAE_clean_linker_10, # of connection points: 2
#     Edge 15, Type (0, 0), BuildingBlock: TEMPAE_clean_linker_10, # of connection points: 2
# Relax obj value: 0.201
# Max RMSD: 0.226
# Mean RMSD: 0.226
data_MOF--net-rob--node1-LEVNOQ01_clean_sbu_1--edge1-TEMPAE_clean_linker_10
_symmetry_space_group_name_H-M    P1
_symmetry_Int_Tables_number       1
_symmetry_cell_setting            triclinic
loop_
_symmetry_equiv_pos_as_xyz
'x, y, z'
_cell_length_a     15.205375
_cell_length_b     27.601742
_cell_length_c     27.019528
_cell_angle_alpha  105.35493
_cell_angle_beta   90.313857
_cell_angle_gamma 89.655254
loop_
_atom_site_label
_atom_site_type_symbol
_atom_site_fract_x
_atom_site_fract_y
_atom_site_fract_z
_atom_type_partial_charge
O0 O 0.21924 0.28183 0.1026 0.0
Mg1 Mg 0.32343 0.28533 0.05263 0.0
O2 O 0.1316 0.2628 0.03574 0.0
Mg3 Mg 0.25186 0.23797 -0.01367 0.0
O4 O 0.30397 0.32449 0.00139 0.0
O5 O 0.35753 0.35608 0.08135 0.0
O6 O 0.37176 0.21313 0.93498 0.0
O7 O 0.1877 0.26659 0.92 0.0
Mg8 Mg 0.17566 0.17622 0.90988 0.0
O9 O 0.1946 0.15581 0.97415 0.0
O10 O 0.28793 0.18074 0.86775 0.0
O11 O 0.06715 0.22435 0.91179 0.0
O12 O 0.14511 0.10464 0.89929 0.0
C13 C 0.39458 0.20841 0.06505 0.0
C14 C 0.14261 0.27594 0.0839 0.0
C15 C 0.33285 0.36223 0.03779 0.0
C16 C 0.36251 0.19416 0.88703 0.0
C17 C 0.11143 0.25819 0.90039 0.0
C18 C 0.16432 0.11282 0.94736 0.0
O19 O 0.43838 0.24182 0.05242 0.0
O20 O 0.31563 0.20223 0.04924 0.0
O21 O 0.55145 0.79163 0.02011 0.0
Mg22 Mg 0.68704 0.80195 0.03587 0.0
O23 O 0.61878 0.72359 0.02395 0.0
Mg24 Mg 0.74082 0.72475 0.9699 0.0
O25 O 0.77578 0.8112 -0.01457 0.0
O26 O 0.72069 0.87358 0.05028 0.0
O27 O 0.8619 0.72021 0.91652 0.0
O28 O 0.65448 0.73297 0.90643 0.0
Mg29 Mg 0.78161 0.6263 0.88162 0.0
O30 O 0.71489 0.64247 0.94781 0.0
O31 O 0.91201 0.64381 0.90535 0.0
O32 O 0.7185 0.67594 0.84198 0.0
O33 O 0.72223 0.5647 0.89869 0.0
C34 C 0.81332 0.73942 0.07925 0.0
C35 C 0.55153 0.75202 0.03485 0.0
C36 C 0.77331 0.85797 0.01197 0.0
C37 C 0.92297 0.68788 0.90128 0.0
C38 C 0.66794 0.71378 0.85895 0.0
C39 C 0.69416 0.59612 0.93977 0.0
O40 O 0.75131 0.77123 0.08981 0.0
O41 O 0.83042 0.71604 0.03325 0.0
O42 O 0.05935 0.65856 0.41171 0.0
Mg43 Mg 0.19834 0.65887 0.40562 0.0
O44 O 0.11171 0.7334 0.42636 0.0
Mg45 Mg 0.23145 0.73867 0.47832 0.0
O46 O 0.28632 0.65407 0.46036 0.0
O47 O 0.24126 0.58958 0.39412 0.0
O48 O 0.34653 0.75648 0.53434 0.0
O49 O 0.15248 0.71236 0.53862 0.0
Mg50 Mg 0.15859 0.80683 0.56078 0.0
O51 O 0.18557 0.82334 0.49388 0.0
O52 O 0.27292 0.80151 0.60177 0.0
O53 O 0.04544 0.76446 0.56634 0.0
O54 O 0.13453 0.87855 0.56544 0.0
C55 C 0.31388 0.72899 0.36791 0.0
C56 C 0.05206 0.70246 0.4069 0.0
C57 C 0.29166 0.60736 0.43316 0.0
C58 C 0.34343 0.78153 0.58119 0.0
C59 C 0.08184 0.72283 0.56391 0.0
C60 C 0.15853 0.86822 0.51802 0.0
O61 O 0.26529 0.69057 0.35357 0.0
O62 O 0.31627 0.75483 0.41458 0.0
O63 O 0.54207 0.17371 0.44075 0.0
Mg64 Mg 0.66737 0.15847 0.40591 0.0
O65 O 0.59881 0.24097 0.42903 0.0
Mg66 Mg 0.72682 0.24016 0.47841 0.0
O67 O 0.76354 0.15462 0.45565 0.0
O68 O 0.7112 0.08736 0.39625 0.0
O69 O 0.85004 0.24383 0.52973 0.0
O70 O 0.64521 0.22555 0.5432 0.0
Mg71 Mg 0.69937 0.33091 0.57493 0.0
O72 O 0.70973 0.32575 0.4999 0.0
O73 O 0.8144 0.30335 0.60013 0.0
O74 O 0.58044 0.296 0.58383 0.0
O75 O 0.69923 0.39906 0.55986 0.0
C76 C 0.78187 0.23073 0.36633 0.0
C77 C 0.53355 0.21134 0.42314 0.0
C78 C 0.76519 0.1069 0.43299 0.0
C79 C 0.86589 0.26923 0.57562 0.0
C80 C 0.58906 0.24894 0.57536 0.0
C81 C 0.70011 0.3741 0.51215 0.0
O82 O 0.72007 0.19875 0.3543 0.0
O83 O 0.80646 0.24873 0.4125 0.0
C84 C 0.65091 0.53623 -0.01253 0.0
C85 C 0.63208 0.57972 0.97249 0.0
C86 C 0.58484 0.51195 0.00703 0.0
C87 C 0.4978 0.53112 0.00967 0.0
C88 C 0.48008 0.57739 -0.00153 0.0
C89 C 0.54855 0.60185 -0.01942 0.0
C90 C 0.60677 0.46316 0.01986 0.0
C91 C 0.38799 0.59863 0.00131 0.0
C92 C 0.35794 0.41692 -0.02031 0.0
C93 C 0.34595 0.41189 0.02926 0.0
C94 C 0.39763 0.46007 0.97247 0.0
C95 C 0.42555 0.49813 0.01597 0.0
C96 C 0.40103 0.49645 0.06571 0.0
C97 C 0.36084 0.4531 0.07178 0.0
C98 C 0.42048 0.46162 0.9186 0.0
C99 C 0.42814 0.53675 0.11289 0.0
H100 H 0.71621 0.51974 -0.01883 0.0
H101 H 0.53492 0.63562 0.96851 0.0
H102 H 0.57687 0.46223 0.05694 0.0
H103 H 0.57956 0.43125 -0.01032 0.0
H104 H 0.67888 0.45736 0.02231 0.0
H105 H 0.38403 0.63248 -0.01347 0.0
H106 H 0.34177 0.57012 -0.02116 0.0
H107 H 0.36532 0.60869 0.04169 0.0
H108 H 0.34444 0.38549 0.9468 0.0
H109 H 0.34835 0.44987 0.11025 0.0
H110 H 0.49074 0.45118 0.91114 0.0
H111 H 0.41114 0.49998 0.91374 0.0
H112 H 0.38001 0.43494 0.88944 0.0
H113 H 0.49658 0.52934 0.12348 0.0
H114 H 0.38512 0.53698 0.14606 0.0
H115 H 0.42651 0.57452 0.10583 0.0
C116 C 0.41856 0.55631 0.39569 0.0
C117 C 0.36692 0.57668 0.43905 0.0
C118 C 0.48763 0.52345 0.39756 0.0
C119 C 0.50314 0.50981 0.44355 0.0
C120 C 0.45267 0.53158 0.48809 0.0
C121 C 0.38535 0.56569 0.48545 0.0
C122 C 0.54217 0.50232 0.35009 0.0
C123 C 0.46743 0.51737 0.53778 0.0
C124 C 0.59652 0.38468 0.44678 0.0
C125 C 0.67368 0.40044 0.47449 0.0
C126 C 0.54218 0.41972 0.43248 0.0
C127 C 0.56863 0.47063 0.44463 0.0
C128 C 0.65341 0.48462 0.4648 0.0
C129 C 0.70493 0.44917 0.48027 0.0
C130 C 0.4518 0.40348 0.41124 0.0
C131 C 0.68533 0.53811 0.4758 0.0
H132 H 0.40426 0.5659 0.36003 0.0
H133 H 0.3449 0.58194 0.51871 0.0
H134 H 0.61328 0.50645 0.35961 0.0
H135 H 0.52904 0.46159 0.33488 0.0
H136 H 0.52756 0.52112 0.31932 0.0
H137 H 0.42238 0.53778 0.56864 0.0
H138 H 0.45732 0.47638 0.53151 0.0
H139 H 0.53615 0.52565 0.55114 0.0
H140 H 0.57254 0.34689 0.44284 0.0
H141 H 0.76514 0.46091 0.50171 0.0
H142 H 0.43351 0.42113 0.38025 0.0
H143 H 0.40263 0.41563 0.44235 0.0
H144 H 0.44757 0.36208 0.39594 0.0
H145 H 0.66565 0.55536 0.44467 0.0
H146 H 0.75798 0.54028 0.48037 0.0
H147 H 0.65532 0.56075 0.51195 0.0
C148 C 0.04591 0.08749 -0.00603 0.0
C149 C 0.12994 0.07755 0.97324 0.0
C150 C -0.0055 0.04868 0.00188 0.0
C151 C 0.03063 -0.00034 -0.00889 0.0
C152 C 0.1189 -0.00946 0.97486 0.0
C153 C 0.16721 0.02972 0.96461 0.0
C154 C 0.89955 0.05941 0.01761 0.0
C155 C 0.16021 0.93905 0.96537 0.0
C156 C 0.89137 0.91681 0.04763 0.0
C157 C 0.84214 0.89156 0.0048 0.0
C158 C 0.95848 0.94934 0.04282 0.0
C159 C 0.97354 0.95798 -0.00558 0.0
C160 C 0.92565 0.93122 0.95057 0.0
C161 C 0.8611 0.89721 0.95622 0.0
C162 C 0.01104 0.97571 0.08975 0.0
C163 C 0.93858 0.94076 0.89858 0.0
H164 H 0.01735 0.12464 -0.00085 0.0
H165 H 0.23198 0.02251 0.94753 0.0
H166 H 0.85552 0.0355 -0.01167 0.0
H167 H 0.88724 0.05014 0.05445 0.0
H168 H 0.88113 0.09934 0.02212 0.0
H169 H 0.23272 0.94031 0.96105 0.0
H170 H 0.14522 0.9222 -0.00264 0.0
H171 H 0.13257 0.91389 0.92976 0.0
H172 H 0.8776 0.91082 0.08492 0.0
H173 H 0.82308 0.87673 0.92331 0.0
H174 H -0.00795 0.01597 0.10202 0.0
H175 H 0.08233 0.97391 0.08079 0.0
H176 H 9e-05 0.9591 0.12243 0.0
H177 H 0.91632 0.97947 0.89996 0.0
H178 H 0.90117 0.91389 0.8679 0.0
H179 H 0.00915 0.93804 0.88812 0.0
C180 C 0.82631 0.04033 0.4687 0.0
C181 C 0.83876 0.07662 0.44216 0.0
C182 C 0.89568 0.00863 0.47413 0.0
C183 C 0.97799 0.01294 0.45113 0.0
C184 C -0.00977 0.04953 0.42389 0.0
C185 C 0.92015 0.08147 0.42012 0.0
C186 C 0.88085 0.97061 0.50446 0.0
C187 C 0.07644 0.05434 0.39818 0.0
C188 C 0.14927 0.95725 0.51878 0.0
C189 C 0.14391 0.90682 0.49086 0.0
C190 C 0.1032 -0.00574 0.50272 0.0
C191 C 0.05123 0.9799 0.45773 0.0
C192 C 0.05667 0.93031 0.42549 0.0
C193 C 0.10367 0.89396 0.44254 0.0
C194 C 0.1002 0.04689 0.53783 0.0
C195 C 0.00376 0.91397 0.37654 0.0
H196 H 0.76247 0.03684 0.4851 0.0
H197 H 0.92809 0.10941 0.39883 0.0
H198 H 0.89207 0.93208 0.47966 0.0
H199 H 0.92844 0.9768 0.53679 0.0
H200 H 0.81324 0.97274 0.52031 0.0
H201 H 0.07539 0.08548 0.37922 0.0
H202 H 0.13084 0.06091 0.42666 0.0
H203 H 0.09146 0.01874 0.3689 0.0
H204 H 0.18207 0.96699 0.55584 0.0
H205 H 0.10024 0.85483 0.42088 0.0
H206 H 0.03876 0.05181 0.56067 0.0
H207 H 0.09988 0.07541 0.51565 0.0
H208 H 0.15685 0.05425 0.56491 0.0
H209 H 0.9352 0.90621 0.38596 0.0
H210 H 0.03129 0.87915 0.35052 0.0
H211 H 0.00149 0.94384 0.35601 0.0
C212 C 0.51269 0.15947 0.33471 0.0
C213 C 0.48904 0.20259 0.37321 0.0
C214 C 0.49483 0.15571 0.28317 0.0
C215 C 0.44638 0.1943 0.27014 0.0
C216 C 0.41482 0.23577 0.30923 0.0
C217 C 0.439 0.2402 0.36051 0.0
C218 C 0.53473 0.11276 0.24257 0.0
C219 C 0.36146 0.27714 0.29646 0.0
C220 C 0.49188 0.21684 0.1407 0.0
C221 C 0.41904 0.19411 0.11207 0.0
C222 C 0.50082 0.21772 0.19243 0.0
C223 C 0.43719 0.19356 0.21546 0.0
C224 C 0.36707 0.16729 0.18576 0.0
C225 C 0.35896 0.1677 0.13421 0.0
C226 C 0.57775 0.24559 0.22208 0.0
C227 C 0.29815 0.14107 0.20914 0.0
H228 H 0.5519 0.13033 0.3443 0.0
H229 H 0.42132 0.27352 0.39032 0.0
H230 H 0.48423 0.09426 0.21419 0.0
H231 H 0.58593 0.12764 0.22147 0.0
H232 H 0.5657 0.08403 0.25919 0.0
H233 H 0.33036 0.30212 0.33111 0.0
H234 H 0.40495 0.30021 0.27902 0.0
H235 H 0.3093 0.26113 0.26802 0.0
H236 H 0.53901 0.23702 0.12377 0.0
H237 H 0.30252 0.14993 0.11222 0.0
H238 H 0.63289 0.2188 0.22092 0.0
H239 H 0.56165 0.26334 0.26282 0.0
H240 H 0.60041 0.27547 0.2047 0.0
H241 H 0.32957 0.11338 0.22691 0.0
H242 H 0.24897 0.12126 0.18041 0.0
H243 H 0.26331 0.16901 0.24006 0.0
C244 C 0.44143 0.72685 0.09174 0.0
C245 C 0.51335 0.75566 0.08537 0.0
C246 C 0.4135 0.727 0.14127 0.0
C247 C 0.46186 0.75459 0.18461 0.0
C248 C 0.53508 0.78332 0.17799 0.0
C249 C 0.55727 0.78523 0.12852 0.0
C250 C 0.33301 0.69739 0.14732 0.0
C251 C 0.59166 0.81066 0.22278 0.0
C252 C 0.34466 0.78456 0.31227 0.0
C253 C 0.367 0.74242 0.32901 0.0
C254 C 0.37796 0.79016 0.26588 0.0
C255 C 0.4359 0.75313 0.23682 0.0
C256 C 0.46452 0.71287 0.25626 0.0
C257 C 0.42821 0.7075 0.30191 0.0
C258 C 0.34569 0.83339 0.24612 0.0
C259 C 0.52955 0.67401 0.2276 0.0
H260 H 0.40724 0.70461 0.05827 0.0
H261 H 0.61111 0.80888 0.12351 0.0
H262 H 0.3517 0.66651 0.16456 0.0
H263 H 0.28583 0.72205 0.17377 0.0
H264 H 0.2993 0.68098 0.11014 0.0
H265 H 0.65112 0.82735 0.21023 0.0
H266 H 0.55317 0.84109 0.24883 0.0
H267 H 0.61321 0.78446 0.24539 0.0
H268 H 0.29599 0.81085 0.33328 0.0
H269 H 0.44466 0.67482 0.31534 0.0
H270 H 0.30402 0.81867 0.21161 0.0
H271 H 0.40177 0.85327 0.2344 0.0
H272 H 0.30647 0.86093 0.27521 0.0
H273 H 0.4977 0.64985 0.19279 0.0
H274 H 0.55412 0.64958 0.25147 0.0
H275 H 0.58659 0.69243 0.21481 0.0
C276 C 0.5452 0.75706 0.82821 0.0
C277 C 0.63209 0.7399 0.82335 0.0
C278 C 0.50837 0.77797 0.79114 0.0
C279 C 0.56121 0.78216 0.74945 0.0
C280 C 0.65226 0.77188 0.74909 0.0
C281 C 0.68655 0.74957 0.78565 0.0
C282 C 0.41131 0.79022 0.79468 0.0
C283 C 0.7115 0.77956 0.70724 0.0
C284 C 0.44743 0.73724 0.62233 0.0
C285 C 0.4179 0.78256 0.61478 0.0
C286 C 0.49654 0.73692 0.66587 0.0
C287 C 0.51876 0.78329 0.70099 0.0
C288 C 0.4952 0.82934 0.69103 0.0
C289 C 0.4432 0.82839 0.64807 0.0
C290 C 0.51806 0.68697 0.67634 0.0
C291 C 0.51801 0.87923 0.7277 0.0
H292 H 0.50456 0.75126 0.85901 0.0
H293 H 0.75537 0.7387 0.78413 0.0
H294 H 0.38898 0.81151 0.76744 0.0
H295 H 0.37371 0.75467 0.78716 0.0
H296 H 0.39486 0.81233 0.83427 0.0
H297 H 0.7811 0.78408 0.72022 0.0
H298 H 0.70748 0.74624 0.67364 0.0
H299 H 0.69112 0.81308 0.69459 0.0
H300 H 0.42508 0.70209 0.59686 0.0
H301 H 0.41812 0.86327 0.64202 0.0
H302 H 0.48537 0.68458 0.71226 0.0
H303 H 0.58994 0.68348 0.68174 0.0
H304 H 0.49624 0.65458 0.64474 0.0
H305 H 0.47214 0.88696 0.76071 0.0
H306 H 0.51219 0.91049 0.70906 0.0
H307 H 0.58578 0.8787 0.74301 0.0
C308 C 0.51173 0.19132 0.61708 0.0
C309 C 0.57375 0.22865 0.61861 0.0
C310 C 0.49445 0.1762 0.66162 0.0
C311 C 0.54102 0.19927 0.70737 0.0
C312 C 0.61017 0.23297 0.7069 0.0
C313 C 0.62539 0.24746 0.66232 0.0
C314 C 0.42079 0.13966 0.66099 0.0
C315 C 0.66097 0.2583 0.75491 0.0
C316 C 0.40614 0.23913 0.8266 0.0
C317 C 0.42744 0.20216 0.85134 0.0
C318 C 0.4415 0.23758 0.77899 0.0
C319 C 0.50328 0.19949 0.7572 0.0
C320 C 0.53016 0.16414 0.78385 0.0
C321 C 0.4899 0.16517 0.83067 0.0
C322 C 0.40912 0.27515 0.75102 0.0
C323 C 0.59723 0.12384 0.76171 0.0
H324 H 0.47417 0.17606 0.58226 0.0
H325 H 0.67544 0.27531 0.66217 0.0
H326 H 0.43766 0.1138 0.68483 0.0
H327 H 0.36069 0.1608 0.67736 0.0
H328 H 0.40536 0.11715 0.62135 0.0
H329 H 0.72093 0.27724 0.74615 0.0
H330 H 0.61858 0.2871 0.78046 0.0
H331 H 0.68034 0.2307 0.77631 0.0
H332 H 0.35532 0.2666 0.84246 0.0
H333 H 0.50337 0.13575 0.84949 0.0
H334 H 0.37932 0.25516 0.71366 0.0
H335 H 0.46493 0.29754 0.74291 0.0
H336 H 0.35905 0.30143 0.77329 0.0
H337 H 0.56751 0.0955 0.72902 0.0
H338 H 0.62041 0.10447 0.79058 0.0
H339 H 0.65481 0.13997 0.74677 0.0
C340 C 0.90131 0.68459 0.12015 0.0
C341 C 0.86531 0.73161 0.12153 0.0
C342 C 0.93847 0.67614 0.16458 0.0
C343 C 0.93773 0.71564 0.21028 0.0
C344 C 0.90735 0.7641 0.21044 0.0
C345 C 0.87205 0.77153 0.16568 0.0
C346 C 0.97561 0.62495 0.16311 0.0
C347 C 0.90883 0.80767 0.2582 0.0
C348 C 0.93382 0.6902 0.34036 0.0
C349 C 0.01672 0.70812 0.35843 0.0
C350 C 0.90693 0.69155 0.29104 0.0
C351 C 0.96756 0.70715 0.2587 0.0
C352 C 0.05282 0.72248 0.27598 0.0
C353 C 0.07415 0.72574 0.32659 0.0
C354 C 0.81339 0.6781 0.27409 0.0
C355 C 0.12108 0.73667 0.24176 0.0
H356 H 0.89683 0.65414 0.08537 0.0
H357 H 0.84663 0.80836 0.16571 0.0
H358 H 0.04049 0.62851 0.18275 0.0
H359 H 0.93094 0.60551 0.18382 0.0
H360 H 0.9834 0.60116 0.12318 0.0
H361 H 0.87741 0.84204 0.25199 0.0
H362 H 0.87438 0.7974 0.29006 0.0
H363 H 0.97765 0.8169 0.27065 0.0
H364 H 0.88993 0.67645 0.36501 0.0
H365 H 0.13767 0.74079 0.34052 0.0
H366 H 0.81276 0.64723 0.23819 0.0
H367 H 0.78021 0.71098 0.26562 0.0
H368 H 0.77481 0.66641 0.30372 0.0
H369 H 0.11652 0.71235 0.20192 0.0
H370 H 0.1888 0.73353 0.25627 0.0
H371 H 0.11067 0.7761 0.24046 0.0
C372 C 0.91754 0.23285 0.31858 0.0
C373 C 0.8286 0.2451 0.32607 0.0
C374 C 0.96243 0.24311 0.27768 0.0
C375 C 0.91674 0.26713 0.24493 0.0
C376 C 0.82817 0.28221 0.25442 0.0
C377 C 0.78421 0.27004 0.2947 0.0
C378 C 0.0575 0.22691 0.26862 0.0
C379 C 0.77949 0.30995 0.22142 0.0
C380 C 0.06799 0.31933 0.1633 0.0
C381 C 0.06935 0.27976 0.11865 0.0
C382 C 0.01325 0.31744 0.20388 0.0
C383 C 0.96111 0.27435 0.19946 0.0
C384 C 0.95808 0.23577 0.15301 0.0
C385 C 0.01208 0.23927 0.1125 0.0
C386 C 0.01626 0.35963 0.25265 0.0
C387 C 0.90365 0.18905 0.14769 0.0
H388 H 0.9509 0.21373 0.34367 0.0
H389 H 0.71559 0.28017 0.30195 0.0
H390 H 0.06377 0.19851 0.23108 0.0
H391 H 0.09901 0.25937 0.26704 0.0
H392 H 0.08389 0.21046 0.29905 0.0
H393 H 0.72052 0.32972 0.24124 0.0
H394 H 0.82224 0.338 0.2108 0.0
H395 H 0.75837 0.2827 0.18532 0.0
H396 H 0.11318 0.35044 0.16741 0.0
H397 H 0.01504 0.20849 0.0779 0.0
H398 H 0.05215 0.34685 0.28281 0.0
H399 H 0.94885 0.37049 0.26707 0.0
H400 H 0.05 0.39334 0.24699 0.0
H401 H 0.9297 0.16749 0.17396 0.0
H402 H 0.90444 0.16421 0.10795 0.0
H403 H 0.83454 0.19934 0.15886 0.0
C404 C 0.89306 0.2303 0.64439 0.0
C405 C 0.92888 0.25094 0.60708 0.0
C406 C 0.94025 0.23036 0.68864 0.0
C407 C 0.02668 0.24984 0.69439 0.0
C408 C 0.06707 0.26493 0.65381 0.0
C409 C 0.01649 0.26645 0.61059 0.0
C410 C 0.89424 0.21411 0.73109 0.0
C411 C 0.1612 0.28251 0.65763 0.0
C412 C 0.07116 0.30384 0.83516 0.0
C413 C 0.10277 0.26098 0.84746 0.0
C414 C 0.05386 0.30253 0.78374 0.0
C415 C 0.07022 0.25756 0.74472 0.0
C416 C 0.1104 0.2161 0.75704 0.0
C417 C 0.1243 0.21797 0.80847 0.0
C418 C 0.01082 0.3475 0.77171 0.0
C419 C 0.13043 0.16788 0.71669 0.0
H420 H 0.82462 0.21884 0.6413 0.0
H421 H 0.04324 0.28278 0.58159 0.0
H422 H 0.93468 0.18632 0.74419 0.0
H423 H 0.8846 0.24714 0.76453 0.0
H424 H 0.82896 0.19711 0.71885 0.0
H425 H 0.18637 0.28567 0.6201 0.0
H426 H 0.16607 0.31984 0.68575 0.0
H427 H 0.20415 0.25626 0.67165 0.0
H428 H 0.05566 0.33709 0.86564 0.0
H429 H 0.14827 0.18466 0.81823 0.0
H430 H 0.94054 0.33908 0.76198 0.0
H431 H 0.04222 0.35587 0.73799 0.0
H432 H 0.01439 0.38149 0.80469 0.0
H433 H 0.06978 0.14501 0.70777 0.0
H434 H 0.18123 0.1452 0.73024 0.0
H435 H 0.15341 0.1755 0.6806 0.0
C436 C -0.00685 0.68744 0.6232 0.0
C437 C 0.07382 0.70297 0.60861 0.0
C438 C 0.98394 0.67881 0.67177 0.0
C439 C 0.05559 0.68921 0.70685 0.0
C440 C 0.13824 0.70241 0.691 0.0
C441 C 0.14675 0.70796 0.6415 0.0
C442 C 0.89619 0.66176 0.68669 0.0
C443 C 0.21537 0.71557 0.72747 0.0
C444 C 0.97443 0.73737 0.84243 0.0
C445 C 0.98122 0.69399 0.8599 0.0
C446 C 0.00388 0.73722 0.79346 0.0
C447 C 0.04061 0.69264 0.76156 0.0
C448 C 0.05671 0.65075 0.78107 0.0
C449 C 0.02776 0.65218 0.83048 0.0
C450 C -0.01029 0.78351 0.77451 0.0
C451 C 0.09626 0.60263 0.74836 0.0
H452 H 0.93715 0.68359 0.59745 0.0
H453 H 0.20909 0.72046 0.63009 0.0
H454 H 0.90543 0.63219 0.70725 0.0
H455 H 0.86199 0.69391 0.71308 0.0
H456 H 0.8532 0.64688 0.65274 0.0
H457 H 0.27818 0.71625 0.70681 0.0
H458 H 0.20432 0.75344 0.7538 0.0
H459 H 0.2222 0.68876 0.75141 0.0
H460 H 0.94001 0.77016 0.86528 0.0
H461 H 0.03475 0.61874 0.84406 0.0
H462 H 0.93885 0.77585 0.74388 0.0
H463 H 0.05122 0.79333 0.75755 0.0
H464 H 0.96804 0.8164 0.80561 0.0
H465 H 0.04447 0.58121 0.72273 0.0
H466 H 0.12274 0.57863 0.77217 0.0
H467 H 0.14973 0.61011 0.72368 0.0
loop_
_geom_bond_atom_site_label_1
_geom_bond_atom_site_label_2
_geom_bond_distance
_geom_bond_site_symmetry_2
_ccdc_geom_bond_type
O0 Mg1 1.990 . S
O0 C14 1.253 . S
Mg1 O0 1.990 . S
Mg1 O4 2.180 . S
Mg1 O5 2.117 . S
Mg1 O19 2.030 . S
O2 Mg3 2.075 . S
O2 C14 1.260 . S
Mg3 O2 2.075 . S
Mg3 O4 2.099 . S
Mg3 O6 2.076 1_554 S
Mg3 O7 2.069 1_554 S
Mg3 O9 2.098 1_554 S
Mg3 O20 2.082 . S
O4 Mg1 2.180 . S
O4 Mg3 2.099 . S
O4 C15 1.279 . S
O5 Mg1 2.117 . S
O5 C15 1.250 . S
O6 Mg3 2.076 1_556 S
O6 C16 1.264 . S
O7 Mg3 2.069 1_556 S
O7 C17 1.260 . S
Mg8 O9 2.180 . S
Mg8 O10 2.030 . S
Mg8 O11 1.990 . S
Mg8 O12 2.117 . S
O9 Mg3 2.098 1_556 S
O9 Mg8 2.180 . S
O9 C18 1.279 . S
O10 Mg8 2.030 . S
O10 C16 1.248 . S
O11 Mg8 1.990 . S
O11 C17 1.253 . S
O12 Mg8 2.117 . S
O12 C18 1.250 . S
C13 O19 1.248 . S
C13 O20 1.264 . S
C14 O0 1.253 . S
C14 O2 1.260 . S
C15 O4 1.279 . S
C15 O5 1.250 . S
C16 O6 1.264 . S
C16 O10 1.248 . S
C17 O7 1.260 . S
C17 O11 1.253 . S
C18 O9 1.279 . S
C18 O12 1.250 . S
O19 Mg1 2.030 . S
O19 C13 1.248 . S
O20 Mg3 2.082 . S
O20 C13 1.264 . S
O21 Mg22 1.990 . S
O21 C35 1.253 . S
Mg22 O21 1.990 . S
Mg22 O25 2.180 . S
Mg22 O26 2.117 . S
Mg22 O40 2.030 . S
O23 Mg24 2.075 . S
O23 C35 1.260 . S
Mg24 O23 2.075 . S
Mg24 O25 2.099 . S
Mg24 O27 2.076 1_554 S
Mg24 O28 2.069 1_554 S
Mg24 O30 2.098 1_554 S
Mg24 O41 2.082 . S
O25 Mg22 2.180 . S
O25 Mg24 2.099 . S
O25 C36 1.279 . S
O26 Mg22 2.117 . S
O26 C36 1.250 . S
O27 Mg24 2.076 1_556 S
O27 C37 1.264 . S
O28 Mg24 2.069 1_556 S
O28 C38 1.260 . S
Mg29 O30 2.180 . S
Mg29 O31 2.030 . S
Mg29 O32 1.990 . S
Mg29 O33 2.117 . S
O30 Mg24 2.098 1_556 S
O30 Mg29 2.180 . S
O30 C39 1.279 . S
O31 Mg29 2.030 . S
O31 C37 1.248 . S
O32 Mg29 1.990 . S
O32 C38 1.253 . S
O33 Mg29 2.117 . S
O33 C39 1.250 . S
C34 O40 1.248 . S
C34 O41 1.264 . S
C35 O21 1.253 . S
C35 O23 1.260 . S
C36 O25 1.279 . S
C36 O26 1.250 . S
C37 O27 1.264 . S
C37 O31 1.248 . S
C38 O28 1.260 . S
C38 O32 1.253 . S
C39 O30 1.279 . S
C39 O33 1.250 . S
O40 Mg22 2.030 . S
O40 C34 1.248 . S
O41 Mg24 2.082 . S
O41 C34 1.264 . S
O42 Mg43 1.990 . S
O42 C56 1.253 . S
Mg43 O42 1.990 . S
Mg43 O46 2.180 . S
Mg43 O47 2.117 . S
Mg43 O61 2.030 . S
O44 Mg45 2.072 . S
O44 C56 1.260 . S
Mg45 O44 2.072 . S
Mg45 O46 2.099 . S
Mg45 O48 2.079 . S
Mg45 O49 2.072 . S
Mg45 O51 2.099 . S
Mg45 O62 2.079 . S
O46 Mg43 2.180 . S
O46 Mg45 2.099 . S
O46 C57 1.279 . S
O47 Mg43 2.117 . S
O47 C57 1.250 . S
O48 Mg45 2.079 . S
O48 C58 1.264 . S
O49 Mg45 2.072 . S
O49 C59 1.260 . S
Mg50 O51 2.180 . S
Mg50 O52 2.030 . S
Mg50 O53 1.990 . S
Mg50 O54 2.117 . S
O51 Mg45 2.099 . S
O51 Mg50 2.180 . S
O51 C60 1.279 . S
O52 Mg50 2.030 . S
O52 C58 1.248 . S
O53 Mg50 1.990 . S
O53 C59 1.253 . S
O54 Mg50 2.117 . S
O54 C60 1.250 . S
C55 O61 1.248 . S
C55 O62 1.264 . S
C56 O42 1.253 . S
C56 O44 1.260 . S
C57 O46 1.279 . S
C57 O47 1.250 . S
C58 O48 1.264 . S
C58 O52 1.248 . S
C59 O49 1.260 . S
C59 O53 1.253 . S
C60 O51 1.279 . S
C60 O54 1.250 . S
O61 Mg43 2.030 . S
O61 C55 1.248 . S
O62 Mg45 2.079 . S
O62 C55 1.264 . S
O63 Mg64 1.990 . S
O63 C77 1.253 . S
Mg64 O63 1.990 . S
Mg64 O67 2.180 . S
Mg64 O68 2.117 . S
Mg64 O82 2.030 . S
O65 Mg66 2.072 . S
O65 C77 1.260 . S
Mg66 O65 2.072 . S
Mg66 O67 2.099 . S
Mg66 O69 2.079 . S
Mg66 O70 2.072 . S
Mg66 O72 2.099 . S
Mg66 O83 2.079 . S
O67 Mg64 2.180 . S
O67 Mg66 2.099 . S
O67 C78 1.279 . S
O68 Mg64 2.117 . S
O68 C78 1.250 . S
O69 Mg66 2.079 . S
O69 C79 1.264 . S
O70 Mg66 2.072 . S
O70 C80 1.260 . S
Mg71 O72 2.180 . S
Mg71 O73 2.030 . S
Mg71 O74 1.990 . S
Mg71 O75 2.117 . S
O72 Mg66 2.099 . S
O72 Mg71 2.180 . S
O72 C81 1.279 . S
O73 Mg71 2.030 . S
O73 C79 1.248 . S
O74 Mg71 1.990 . S
O74 C80 1.253 . S
O75 Mg71 2.117 . S
O75 C81 1.250 . S
C76 O82 1.248 . S
C76 O83 1.264 . S
C77 O63 1.253 . S
C77 O65 1.260 . S
C78 O67 1.279 . S
C78 O68 1.250 . S
C79 O69 1.264 . S
C79 O73 1.248 . S
C80 O70 1.260 . S
C80 O74 1.253 . S
C81 O72 1.279 . S
C81 O75 1.250 . S
O82 Mg64 2.030 . S
O82 C76 1.248 . S
O83 Mg66 2.079 . S
O83 C76 1.264 . S
C84 C85 1.391 . S
C84 C86 1.394 . S
C84 H100 0.931 . S
C85 C84 1.391 . S
C85 C89 1.376 . S
C86 C84 1.394 . S
C86 C87 1.369 . S
C86 C90 1.531 . S
C87 C86 1.369 . S
C87 C88 1.410 . S
C87 C95 1.503 . S
C88 C87 1.410 . S
C88 C89 1.392 . S
C88 C91 1.511 . S
C89 C85 1.376 . S
C89 C88 1.392 . S
C89 H101 0.929 . S
C90 C86 1.531 . S
C90 H102 0.960 . S
C90 H103 0.962 1_554 S
C90 H104 0.960 . S
C91 C88 1.511 . S
C91 H105 0.961 . S
C91 H106 0.961 . S
C91 H107 0.961 . S
C92 C93 1.370 1_556 S
C92 C94 1.363 . S
C92 H108 0.931 . S
C93 C92 1.370 1_554 S
C93 C97 1.408 . S
C94 C92 1.363 . S
C94 C95 1.370 1_556 S
C94 C98 1.524 . S
C95 C87 1.503 . S
C95 C94 1.370 1_554 S
C95 C96 1.403 . S
C96 C95 1.403 . S
C96 C97 1.404 . S
C96 C99 1.539 . S
C97 C93 1.408 . S
C97 C96 1.404 . S
C97 H109 0.930 . S
C98 C94 1.524 . S
C98 H110 0.956 . S
C98 H111 0.961 . S
C98 H112 0.961 . S
C99 C96 1.539 . S
C99 H113 0.958 . S
C99 H114 0.961 . S
C99 H115 0.960 . S
H100 C84 0.931 . S
H101 C89 0.929 . S
H102 C90 0.960 . S
H103 C90 0.962 1_556 S
H104 C90 0.960 . S
H105 C91 0.961 . S
H106 C91 0.961 . S
H107 C91 0.961 . S
H108 C92 0.931 . S
H109 C97 0.930 . S
H110 C98 0.956 . S
H111 C98 0.961 . S
H112 C98 0.961 . S
H113 C99 0.958 . S
H114 C99 0.961 . S
H115 C99 0.960 . S
C116 C117 1.391 . S
C116 C118 1.394 . S
C116 H132 0.931 . S
C117 C116 1.391 . S
C117 C121 1.376 . S
C118 C116 1.394 . S
C118 C119 1.369 . S
C118 C122 1.531 . S
C119 C118 1.369 . S
C119 C120 1.410 . S
C119 C127 1.503 . S
C120 C119 1.410 . S
C120 C121 1.392 . S
C120 C123 1.511 . S
C121 C117 1.376 . S
C121 C120 1.392 . S
C121 H133 0.929 . S
C122 C118 1.531 . S
C122 H134 0.960 . S
C122 H135 0.962 . S
C122 H136 0.960 . S
C123 C120 1.511 . S
C123 H137 0.961 . S
C123 H138 0.961 . S
C123 H139 0.961 . S
C124 C125 1.370 . S
C124 C126 1.363 . S
C124 H140 0.931 . S
C125 C124 1.370 . S
C125 C129 1.408 . S
C126 C124 1.363 . S
C126 C127 1.370 . S
C126 C130 1.524 . S
C127 C119 1.503 . S
C127 C126 1.370 . S
C127 C128 1.403 . S
C128 C127 1.403 . S
C128 C129 1.404 . S
C128 C131 1.539 . S
C129 C125 1.408 . S
C129 C128 1.404 . S
C129 H141 0.930 . S
C130 C126 1.524 . S
C130 H142 0.956 . S
C130 H143 0.961 . S
C130 H144 0.961 . S
C131 C128 1.539 . S
C131 H145 0.958 . S
C131 H146 0.961 . S
C131 H147 0.960 . S
H132 C116 0.931 . S
H133 C121 0.929 . S
H134 C122 0.960 . S
H135 C122 0.962 . S
H136 C122 0.960 . S
H137 C123 0.961 . S
H138 C123 0.961 . S
H139 C123 0.961 . S
H140 C124 0.931 . S
H141 C129 0.930 . S
H142 C130 0.956 . S
H143 C130 0.961 . S
H144 C130 0.961 . S
H145 C131 0.958 . S
H146 C131 0.961 . S
H147 C131 0.960 . S
C148 C149 1.391 . S
C148 C150 1.394 1_455 S
C148 H164 0.931 1_556 S
C149 C148 1.391 . S
C149 C153 1.376 . S
C150 C148 1.394 1_655 S
C150 C151 1.369 1_655 S
C150 C154 1.531 . S
C151 C150 1.369 1_455 S
C151 C152 1.410 . S
C151 C159 1.503 1_445 S
C152 C151 1.410 . S
C152 C153 1.392 . S
C152 C155 1.511 1_545 S
C153 C149 1.376 . S
C153 C152 1.392 . S
C153 H165 0.929 . S
C154 C150 1.531 . S
C154 H166 0.960 . S
C154 H167 0.962 1_556 S
C154 H168 0.960 . S
C155 C152 1.511 1_565 S
C155 H169 0.961 . S
C155 H170 0.961 . S
C155 H171 0.961 . S
C156 C157 1.379 . S
C156 C158 1.363 . S
C156 H172 0.931 . S
C157 C156 1.379 . S
C157 C161 1.397 1_554 S
C158 C156 1.363 . S
C158 C159 1.370 1_554 S
C158 C162 1.524 1_565 S
C159 C151 1.503 1_665 S
C159 C158 1.370 1_556 S
C159 C160 1.403 . S
C160 C159 1.403 . S
C160 C161 1.404 . S
C160 C163 1.539 . S
C161 C157 1.397 1_556 S
C161 C160 1.404 . S
C161 H173 0.930 . S
C162 C158 1.524 1_545 S
C162 H174 0.956 . S
C162 H175 0.961 1_655 S
C162 H176 0.961 1_545 S
C163 C160 1.539 . S
C163 H177 0.958 . S
C163 H178 0.961 . S
C163 H179 0.960 . S
H164 C148 0.931 1_554 S
H165 C153 0.929 . S
H166 C154 0.960 . S
H167 C154 0.962 1_554 S
H168 C154 0.960 . S
H169 C155 0.961 . S
H170 C155 0.961 . S
H171 C155 0.961 . S
H172 C156 0.931 . S
H173 C161 0.930 . S
H174 C162 0.956 . S
H175 C162 0.961 1_455 S
H176 C162 0.961 1_565 S
H177 C163 0.958 . S
H178 C163 0.961 . S
H179 C163 0.960 . S
C180 C181 1.391 . S
C180 C182 1.394 . S
C180 H196 0.931 . S
C181 C180 1.391 . S
C181 C185 1.376 . S
C182 C180 1.394 . S
C182 C183 1.369 . S
C182 C186 1.531 1_545 S
C183 C182 1.369 . S
C183 C184 1.410 . S
C183 C191 1.503 1_645 S
C184 C183 1.410 . S
C184 C185 1.392 . S
C184 C187 1.511 1_655 S
C185 C181 1.376 . S
C185 C184 1.392 . S
C185 H197 0.929 . S
C186 C182 1.531 1_565 S
C186 H198 0.960 . S
C186 H199 0.962 . S
C186 H200 0.960 . S
C187 C184 1.511 1_455 S
C187 H201 0.961 . S
C187 H202 0.961 . S
C187 H203 0.961 . S
C188 C189 1.370 . S
C188 C190 1.363 . S
C188 H204 0.931 . S
C189 C188 1.370 . S
C189 C193 1.408 . S
C190 C188 1.363 . S
C190 C191 1.370 . S
C190 C194 1.524 1_565 S
C191 C183 1.503 1_465 S
C191 C190 1.370 . S
C191 C192 1.403 . S
C192 C191 1.403 . S
C192 C193 1.404 . S
C192 C195 1.539 1_455 S
C193 C189 1.408 . S
C193 C192 1.404 . S
C193 H205 0.930 . S
C194 C190 1.524 1_545 S
C194 H206 0.956 . S
C194 H207 0.961 . S
C194 H208 0.961 . S
C195 C192 1.539 1_655 S
C195 H209 0.958 . S
C195 H210 0.961 . S
C195 H211 0.960 . S
H196 C180 0.931 . S
H197 C185 0.929 . S
H198 C186 0.960 . S
H199 C186 0.962 . S
H200 C186 0.960 . S
H201 C187 0.961 . S
H202 C187 0.961 . S
H203 C187 0.961 . S
H204 C188 0.931 . S
H205 C193 0.930 . S
H206 C194 0.956 . S
H207 C194 0.961 . S
H208 C194 0.961 . S
H209 C195 0.958 . S
H210 C195 0.961 . S
H211 C195 0.960 . S
C212 C213 1.391 . S
C212 C214 1.394 . S
C212 H228 0.931 . S
C213 C212 1.391 . S
C213 C217 1.376 . S
C214 C212 1.394 . S
C214 C215 1.369 . S
C214 C218 1.531 . S
C215 C214 1.369 . S
C215 C216 1.410 . S
C215 C223 1.503 . S
C216 C215 1.410 . S
C216 C217 1.392 . S
C216 C219 1.511 . S
C217 C213 1.376 . S
C217 C216 1.392 . S
C217 H229 0.929 . S
C218 C214 1.531 . S
C218 H230 0.960 . S
C218 H231 0.962 . S
C218 H232 0.960 . S
C219 C216 1.511 . S
C219 H233 0.961 . S
C219 H234 0.961 . S
C219 H235 0.961 . S
C220 C221 1.370 . S
C220 C222 1.363 . S
C220 H236 0.931 . S
C221 C220 1.370 . S
C221 C225 1.408 . S
C222 C220 1.363 . S
C222 C223 1.370 . S
C222 C226 1.524 . S
C223 C215 1.503 . S
C223 C222 1.370 . S
C223 C224 1.403 . S
C224 C223 1.403 . S
C224 C225 1.404 . S
C224 C227 1.539 . S
C225 C221 1.408 . S
C225 C224 1.404 . S
C225 H237 0.930 . S
C226 C222 1.524 . S
C226 H238 0.956 . S
C226 H239 0.961 . S
C226 H240 0.961 . S
C227 C224 1.539 . S
C227 H241 0.958 . S
C227 H242 0.961 . S
C227 H243 0.960 . S
H228 C212 0.931 . S
H229 C217 0.929 . S
H230 C218 0.960 . S
H231 C218 0.962 . S
H232 C218 0.960 . S
H233 C219 0.961 . S
H234 C219 0.961 . S
H235 C219 0.961 . S
H236 C220 0.931 . S
H237 C225 0.930 . S
H238 C226 0.956 . S
H239 C226 0.961 . S
H240 C226 0.961 . S
H241 C227 0.958 . S
H242 C227 0.961 . S
H243 C227 0.960 . S
C244 C245 1.391 . S
C244 C246 1.394 . S
C244 H260 0.931 . S
C245 C244 1.391 . S
C245 C249 1.376 . S
C246 C244 1.394 . S
C246 C247 1.369 . S
C246 C250 1.531 . S
C247 C246 1.369 . S
C247 C248 1.410 . S
C247 C255 1.503 . S
C248 C247 1.410 . S
C248 C249 1.392 . S
C248 C251 1.511 . S
C249 C245 1.376 . S
C249 C248 1.392 . S
C249 H261 0.929 . S
C250 C246 1.531 . S
C250 H262 0.960 . S
C250 H263 0.962 . S
C250 H264 0.960 . S
C251 C248 1.511 . S
C251 H265 0.961 . S
C251 H266 0.961 . S
C251 H267 0.961 . S
C252 C253 1.370 . S
C252 C254 1.363 . S
C252 H268 0.931 . S
C253 C252 1.370 . S
C253 C257 1.408 . S
C254 C252 1.363 . S
C254 C255 1.370 . S
C254 C258 1.524 . S
C255 C247 1.503 . S
C255 C254 1.370 . S
C255 C256 1.403 . S
C256 C255 1.403 . S
C256 C257 1.404 . S
C256 C259 1.539 . S
C257 C253 1.408 . S
C257 C256 1.404 . S
C257 H269 0.930 . S
C258 C254 1.524 . S
C258 H270 0.956 . S
C258 H271 0.961 . S
C258 H272 0.961 . S
C259 C256 1.539 . S
C259 H273 0.958 . S
C259 H274 0.961 . S
C259 H275 0.960 . S
H260 C244 0.931 . S
H261 C249 0.929 . S
H262 C250 0.960 . S
H263 C250 0.962 . S
H264 C250 0.960 . S
H265 C251 0.961 . S
H266 C251 0.961 . S
H267 C251 0.961 . S
H268 C252 0.931 . S
H269 C257 0.930 . S
H270 C258 0.956 . S
H271 C258 0.961 . S
H272 C258 0.961 . S
H273 C259 0.958 . S
H274 C259 0.961 . S
H275 C259 0.960 . S
C276 C277 1.391 . S
C276 C278 1.394 . S
C276 H292 0.931 . S
C277 C276 1.391 . S
C277 C281 1.376 . S
C278 C276 1.394 . S
C278 C279 1.369 . S
C278 C282 1.531 . S
C279 C278 1.369 . S
C279 C280 1.410 . S
C279 C287 1.503 . S
C280 C279 1.410 . S
C280 C281 1.392 . S
C280 C283 1.511 . S
C281 C277 1.376 . S
C281 C280 1.392 . S
C281 H293 0.929 . S
C282 C278 1.531 . S
C282 H294 0.960 . S
C282 H295 0.962 . S
C282 H296 0.960 . S
C283 C280 1.511 . S
C283 H297 0.961 . S
C283 H298 0.961 . S
C283 H299 0.961 . S
C284 C285 1.370 . S
C284 C286 1.363 . S
C284 H300 0.931 . S
C285 C284 1.370 . S
C285 C289 1.408 . S
C286 C284 1.363 . S
C286 C287 1.370 . S
C286 C290 1.524 . S
C287 C279 1.503 . S
C287 C286 1.370 . S
C287 C288 1.403 . S
C288 C287 1.403 . S
C288 C289 1.404 . S
C288 C291 1.539 . S
C289 C285 1.408 . S
C289 C288 1.404 . S
C289 H301 0.930 . S
C290 C286 1.524 . S
C290 H302 0.956 . S
C290 H303 0.961 . S
C290 H304 0.961 . S
C291 C288 1.539 . S
C291 H305 0.958 . S
C291 H306 0.961 . S
C291 H307 0.960 . S
H292 C276 0.931 . S
H293 C281 0.929 . S
H294 C282 0.960 . S
H295 C282 0.962 . S
H296 C282 0.960 . S
H297 C283 0.961 . S
H298 C283 0.961 . S
H299 C283 0.961 . S
H300 C284 0.931 . S
H301 C289 0.930 . S
H302 C290 0.956 . S
H303 C290 0.961 . S
H304 C290 0.961 . S
H305 C291 0.958 . S
H306 C291 0.961 . S
H307 C291 0.960 . S
C308 C309 1.391 . S
C308 C310 1.394 . S
C308 H324 0.931 . S
C309 C308 1.391 . S
C309 C313 1.376 . S
C310 C308 1.394 . S
C310 C311 1.369 . S
C310 C314 1.531 . S
C311 C310 1.369 . S
C311 C312 1.410 . S
C311 C319 1.503 . S
C312 C311 1.410 . S
C312 C313 1.392 . S
C312 C315 1.511 . S
C313 C309 1.376 . S
C313 C312 1.392 . S
C313 H325 0.929 . S
C314 C310 1.531 . S
C314 H326 0.960 . S
C314 H327 0.962 . S
C314 H328 0.960 . S
C315 C312 1.511 . S
C315 H329 0.961 . S
C315 H330 0.961 . S
C315 H331 0.961 . S
C316 C317 1.370 . S
C316 C318 1.363 . S
C316 H332 0.931 . S
C317 C316 1.370 . S
C317 C321 1.408 . S
C318 C316 1.363 . S
C318 C319 1.370 . S
C318 C322 1.524 . S
C319 C311 1.503 . S
C319 C318 1.370 . S
C319 C320 1.403 . S
C320 C319 1.403 . S
C320 C321 1.404 . S
C320 C323 1.539 . S
C321 C317 1.408 . S
C321 C320 1.404 . S
C321 H333 0.930 . S
C322 C318 1.524 . S
C322 H334 0.956 . S
C322 H335 0.961 . S
C322 H336 0.961 . S
C323 C320 1.539 . S
C323 H337 0.958 . S
C323 H338 0.961 . S
C323 H339 0.960 . S
H324 C308 0.931 . S
H325 C313 0.929 . S
H326 C314 0.960 . S
H327 C314 0.962 . S
H328 C314 0.960 . S
H329 C315 0.961 . S
H330 C315 0.961 . S
H331 C315 0.961 . S
H332 C316 0.931 . S
H333 C321 0.930 . S
H334 C322 0.956 . S
H335 C322 0.961 . S
H336 C322 0.961 . S
H337 C323 0.958 . S
H338 C323 0.961 . S
H339 C323 0.960 . S
C340 C341 1.391 . S
C340 C342 1.394 . S
C340 H356 0.931 . S
C341 C340 1.391 . S
C341 C345 1.376 . S
C342 C340 1.394 . S
C342 C343 1.369 1_655 S
C342 C346 1.531 1_655 S
C343 C342 1.369 1_455 S
C343 C344 1.410 1_455 S
C343 C351 1.503 . S
C344 C343 1.410 1_655 S
C344 C345 1.392 . S
C344 C347 1.511 . S
C345 C341 1.376 . S
C345 C344 1.392 . S
C345 H357 0.929 . S
C346 C342 1.531 1_455 S
C346 H358 0.960 . S
C346 H359 0.962 1_455 S
C346 H360 0.960 . S
C347 C344 1.511 . S
C347 H361 0.961 . S
C347 H362 0.961 . S
C347 H363 0.961 1_655 S
C348 C349 1.370 . S
C348 C350 1.363 1_455 S
C348 H364 0.931 1_455 S
C349 C348 1.370 . S
C349 C353 1.408 . S
C350 C348 1.363 1_655 S
C350 C351 1.370 1_655 S
C350 C354 1.524 . S
C351 C343 1.503 . S
C351 C350 1.370 1_455 S
C351 C352 1.403 . S
C352 C351 1.403 . S
C352 C353 1.404 . S
C352 C355 1.539 . S
C353 C349 1.408 . S
C353 C352 1.404 . S
C353 H365 0.930 . S
C354 C350 1.524 . S
C354 H366 0.956 . S
C354 H367 0.961 . S
C354 H368 0.961 . S
C355 C352 1.539 . S
C355 H369 0.958 . S
C355 H370 0.961 . S
C355 H371 0.960 . S
H356 C340 0.931 . S
H357 C345 0.929 . S
H358 C346 0.960 . S
H359 C346 0.962 1_655 S
H360 C346 0.960 . S
H361 C347 0.961 . S
H362 C347 0.961 . S
H363 C347 0.961 1_455 S
H364 C348 0.931 1_655 S
H365 C353 0.930 . S
H366 C354 0.956 . S
H367 C354 0.961 . S
H368 C354 0.961 . S
H369 C355 0.958 . S
H370 C355 0.961 . S
H371 C355 0.960 . S
C372 C373 1.385 1_455 S
C372 C374 1.396 . S
C372 H388 0.934 . S
C373 C372 1.385 1_655 S
C373 C377 1.376 . S
C374 C372 1.396 . S
C374 C375 1.369 1_455 S
C374 C378 1.531 . S
C375 C374 1.369 1_655 S
C375 C376 1.410 . S
C375 C383 1.503 1_655 S
C376 C375 1.410 . S
C376 C377 1.392 . S
C376 C379 1.511 . S
C377 C373 1.376 . S
C377 C376 1.392 . S
C377 H389 0.929 . S
C378 C374 1.531 . S
C378 H390 0.960 . S
C378 H391 0.962 . S
C378 H392 0.960 . S
C379 C376 1.511 . S
C379 H393 0.961 . S
C379 H394 0.961 . S
C379 H395 0.961 . S
C380 C381 1.370 . S
C380 C382 1.363 . S
C380 H396 0.931 . S
C381 C380 1.370 . S
C381 C385 1.408 . S
C382 C380 1.363 . S
C382 C383 1.370 . S
C382 C386 1.524 . S
C383 C375 1.503 1_455 S
C383 C382 1.370 . S
C383 C384 1.403 . S
C384 C383 1.403 . S
C384 C385 1.404 . S
C384 C387 1.539 1_455 S
C385 C381 1.408 . S
C385 C384 1.404 . S
C385 H397 0.930 . S
C386 C382 1.524 . S
C386 H398 0.956 . S
C386 H399 0.961 1_455 S
C386 H400 0.961 . S
C387 C384 1.539 1_655 S
C387 H401 0.958 1_655 S
C387 H402 0.961 . S
C387 H403 0.960 . S
H388 C372 0.934 . S
H389 C377 0.929 . S
H390 C378 0.960 . S
H391 C378 0.962 . S
H392 C378 0.960 . S
H393 C379 0.961 . S
H394 C379 0.961 . S
H395 C379 0.961 . S
H396 C380 0.931 . S
H397 C385 0.930 . S
H398 C386 0.956 . S
H399 C386 0.961 1_655 S
H400 C386 0.961 . S
H401 C387 0.958 1_455 S
H402 C387 0.961 . S
H403 C387 0.960 . S
C404 C405 1.391 . S
C404 C406 1.394 . S
C404 H420 0.931 . S
C405 C404 1.391 . S
C405 C409 1.376 1_655 S
C406 C404 1.394 . S
C406 C407 1.369 . S
C406 C410 1.531 . S
C407 C406 1.369 . S
C407 C408 1.410 1_655 S
C407 C415 1.503 1_655 S
C408 C407 1.410 1_455 S
C408 C409 1.392 . S
C408 C411 1.511 . S
C409 C405 1.376 1_455 S
C409 C408 1.392 . S
C409 H421 0.929 . S
C410 C406 1.531 . S
C410 H422 0.960 . S
C410 H423 0.962 . S
C410 H424 0.960 . S
C411 C408 1.511 . S
C411 H425 0.961 . S
C411 H426 0.961 . S
C411 H427 0.961 . S
C412 C413 1.370 . S
C412 C414 1.363 . S
C412 H428 0.931 . S
C413 C412 1.370 . S
C413 C417 1.408 . S
C414 C412 1.363 . S
C414 C415 1.370 . S
C414 C418 1.524 . S
C415 C407 1.503 1_455 S
C415 C414 1.370 . S
C415 C416 1.403 . S
C416 C415 1.403 . S
C416 C417 1.404 . S
C416 C419 1.539 . S
C417 C413 1.408 . S
C417 C416 1.404 . S
C417 H429 0.930 . S
C418 C414 1.524 . S
C418 H430 0.956 1_455 S
C418 H431 0.961 . S
C418 H432 0.961 . S
C419 C416 1.539 . S
C419 H433 0.958 1_455 S
C419 H434 0.961 . S
C419 H435 0.960 . S
H420 C404 0.931 . S
H421 C409 0.929 . S
H422 C410 0.960 . S
H423 C410 0.962 . S
H424 C410 0.960 . S
H425 C411 0.961 . S
H426 C411 0.961 . S
H427 C411 0.961 . S
H428 C412 0.931 . S
H429 C417 0.930 . S
H430 C418 0.956 1_655 S
H431 C418 0.961 . S
H432 C418 0.961 . S
H433 C419 0.958 1_655 S
H434 C419 0.961 . S
H435 C419 0.960 . S
C436 C437 1.391 . S
C436 C438 1.394 . S
C436 H452 0.931 . S
C437 C436 1.391 . S
C437 C441 1.376 . S
C438 C436 1.394 . S
C438 C439 1.369 . S
C438 C442 1.531 1_455 S
C439 C438 1.369 . S
C439 C440 1.410 . S
C439 C447 1.503 . S
C440 C439 1.410 . S
C440 C441 1.392 . S
C440 C443 1.511 . S
C441 C437 1.376 . S
C441 C440 1.392 . S
C441 H453 0.929 . S
C442 C438 1.531 1_655 S
C442 H454 0.960 . S
C442 H455 0.962 . S
C442 H456 0.960 . S
C443 C440 1.511 . S
C443 H457 0.961 . S
C443 H458 0.961 . S
C443 H459 0.961 . S
C444 C445 1.370 . S
C444 C446 1.363 . S
C444 H460 0.931 . S
C445 C444 1.370 . S
C445 C449 1.408 . S
C446 C444 1.363 . S
C446 C447 1.370 1_655 S
C446 C450 1.524 . S
C447 C439 1.503 . S
C447 C446 1.370 1_455 S
C447 C448 1.403 . S
C448 C447 1.403 . S
C448 C449 1.404 1_455 S
C448 C451 1.539 . S
C449 C445 1.408 . S
C449 C448 1.404 1_655 S
C449 H461 0.930 1_655 S
C450 C446 1.524 . S
C450 H462 0.956 . S
C450 H463 0.961 . S
C450 H464 0.961 . S
C451 C448 1.539 . S
C451 H465 0.958 . S
C451 H466 0.961 . S
C451 H467 0.960 . S
H452 C436 0.931 . S
H453 C441 0.929 . S
H454 C442 0.960 . S
H455 C442 0.962 . S
H456 C442 0.960 . S
H457 C443 0.961 . S
H458 C443 0.961 . S
H459 C443 0.961 . S
H460 C444 0.931 . S
H461 C449 0.930 1_455 S
H462 C450 0.956 . S
H463 C450 0.961 . S
H464 C450 0.961 . S
H465 C451 0.958 . S
H466 C451 0.961 . S
H467 C451 0.960 . S
C85 C39 1.445 1_554 S
C93 C15 1.371 . S
C117 C57 1.383 . S
C125 C81 1.394 . S
C149 C18 1.335 . S
C157 C36 1.423 . S
C181 C78 1.352 . S
C189 C60 1.413 . S
C213 C77 1.000 . S
C221 C13 0.966 . S
C245 C35 1.001 . S
C253 C55 0.949 . S
C277 C38 1.038 . S
C285 C58 1.000 . S
C309 C80 1.021 . S
C317 C16 1.010 . S
C341 C34 0.989 . S
C349 C56 0.976 . S
C373 C76 0.897 . S
C381 C14 1.008 . S
C405 C79 1.008 . S
C413 C17 0.961 . S
C437 C59 1.014 . S
C445 C37 1.012 . S
