# Generated by pormake.
# Topology bcs, (6)-cn, num edge types: 1
# Building blocks:
#     Node 0, Type 0, BuildingBlock: BETDIP_clean_sbu_0, # of connection points: 6
#     Node 1, Type 0, BuildingBlock: BETDIP_clean_sbu_0, # of connection points: 6
#     Node 2, Type 0, BuildingBlock: BETDIP_clean_sbu_0, # of connection points: 6
#     Node 3, Type 0, BuildingBlock: BETDIP_clean_sbu_0, # of connection points: 6
#     Node 4, Type 0, BuildingBlock: BETDIP_clean_sbu_0, # of connection points: 6
#     Node 5, Type 0, BuildingBlock: BETDIP_clean_sbu_0, # of connection points: 6
#     Node 6, Type 0, BuildingBlock: BETDIP_clean_sbu_0, # of connection points: 6
#     Node 7, Type 0, BuildingBlock: BETDIP_clean_sbu_0, # of connection points: 6
#     Node 8, Type 0, BuildingBlock: BETDIP_clean_sbu_0, # of connection points: 6
#     Node 9, Type 0, BuildingBlock: BETDIP_clean_sbu_0, # of connection points: 6
#     Node 10, Type 0, BuildingBlock: BETDIP_clean_sbu_0, # of connection points: 6
#     Node 11, Type 0, BuildingBlock: BETDIP_clean_sbu_0, # of connection points: 6
#     Node 12, Type 0, BuildingBlock: BETDIP_clean_sbu_0, # of connection points: 6
#     Node 13, Type 0, BuildingBlock: BETDIP_clean_sbu_0, # of connection points: 6
#     Node 14, Type 0, BuildingBlock: BETDIP_clean_sbu_0, # of connection points: 6
#     Node 15, Type 0, BuildingBlock: BETDIP_clean_sbu_0, # of connection points: 6
#     Edge 16, Type (0, 0), BuildingBlock: TEMPAE_clean_linker_10, # of connection points: 2
#     Edge 17, Type (0, 0), BuildingBlock: TEMPAE_clean_linker_10, # of connection points: 2
#     Edge 18, Type (0, 0), BuildingBlock: TEMPAE_clean_linker_10, # of connection points: 2
#     Edge 19, Type (0, 0), BuildingBlock: TEMPAE_clean_linker_10, # of connection points: 2
#     Edge 20, Type (0, 0), BuildingBlock: TEMPAE_clean_linker_10, # of connection points: 2
#     Edge 21, Type (0, 0), BuildingBlock: TEMPAE_clean_linker_10, # of connection points: 2
#     Edge 22, Type (0, 0), BuildingBlock: TEMPAE_clean_linker_10, # of connection points: 2
#     Edge 23, Type (0, 0), BuildingBlock: TEMPAE_clean_linker_10, # of connection points: 2
#     Edge 24, Type (0, 0), BuildingBlock: TEMPAE_clean_linker_10, # of connection points: 2
#     Edge 25, Type (0, 0), BuildingBlock: TEMPAE_clean_linker_10, # of connection points: 2
#     Edge 26, Type (0, 0), BuildingBlock: TEMPAE_clean_linker_10, # of connection points: 2
#     Edge 27, Type (0, 0), BuildingBlock: TEMPAE_clean_linker_10, # of connection points: 2
#     Edge 28, Type (0, 0), BuildingBlock: TEMPAE_clean_linker_10, # of connection points: 2
#     Edge 29, Type (0, 0), BuildingBlock: TEMPAE_clean_linker_10, # of connection points: 2
#     Edge 30, Type (0, 0), BuildingBlock: TEMPAE_clean_linker_10, # of connection points: 2
#     Edge 31, Type (0, 0), BuildingBlock: TEMPAE_clean_linker_10, # of connection points: 2
#     Edge 32, Type (0, 0), BuildingBlock: TEMPAE_clean_linker_10, # of connection points: 2
#     Edge 33, Type (0, 0), BuildingBlock: TEMPAE_clean_linker_10, # of connection points: 2
#     Edge 34, Type (0, 0), BuildingBlock: TEMPAE_clean_linker_10, # of connection points: 2
#     Edge 35, Type (0, 0), BuildingBlock: TEMPAE_clean_linker_10, # of connection points: 2
#     Edge 36, Type (0, 0), BuildingBlock: TEMPAE_clean_linker_10, # of connection points: 2
#     Edge 37, Type (0, 0), BuildingBlock: TEMPAE_clean_linker_10, # of connection points: 2
#     Edge 38, Type (0, 0), BuildingBlock: TEMPAE_clean_linker_10, # of connection points: 2
#     Edge 39, Type (0, 0), BuildingBlock: TEMPAE_clean_linker_10, # of connection points: 2
#     Edge 40, Type (0, 0), BuildingBlock: TEMPAE_clean_linker_10, # of connection points: 2
#     Edge 41, Type (0, 0), BuildingBlock: TEMPAE_clean_linker_10, # of connection points: 2
#     Edge 42, Type (0, 0), BuildingBlock: TEMPAE_clean_linker_10, # of connection points: 2
#     Edge 43, Type (0, 0), BuildingBlock: TEMPAE_clean_linker_10, # of connection points: 2
#     Edge 44, Type (0, 0), BuildingBlock: TEMPAE_clean_linker_10, # of connection points: 2
#     Edge 45, Type (0, 0), BuildingBlock: TEMPAE_clean_linker_10, # of connection points: 2
#     Edge 46, Type (0, 0), BuildingBlock: TEMPAE_clean_linker_10, # of connection points: 2
#     Edge 47, Type (0, 0), BuildingBlock: TEMPAE_clean_linker_10, # of connection points: 2
#     Edge 48, Type (0, 0), BuildingBlock: TEMPAE_clean_linker_10, # of connection points: 2
#     Edge 49, Type (0, 0), BuildingBlock: TEMPAE_clean_linker_10, # of connection points: 2
#     Edge 50, Type (0, 0), BuildingBlock: TEMPAE_clean_linker_10, # of connection points: 2
#     Edge 51, Type (0, 0), BuildingBlock: TEMPAE_clean_linker_10, # of connection points: 2
#     Edge 52, Type (0, 0), BuildingBlock: TEMPAE_clean_linker_10, # of connection points: 2
#     Edge 53, Type (0, 0), BuildingBlock: TEMPAE_clean_linker_10, # of connection points: 2
#     Edge 54, Type (0, 0), BuildingBlock: TEMPAE_clean_linker_10, # of connection points: 2
#     Edge 55, Type (0, 0), BuildingBlock: TEMPAE_clean_linker_10, # of connection points: 2
#     Edge 56, Type (0, 0), BuildingBlock: TEMPAE_clean_linker_10, # of connection points: 2
#     Edge 57, Type (0, 0), BuildingBlock: TEMPAE_clean_linker_10, # of connection points: 2
#     Edge 58, Type (0, 0), BuildingBlock: TEMPAE_clean_linker_10, # of connection points: 2
#     Edge 59, Type (0, 0), BuildingBlock: TEMPAE_clean_linker_10, # of connection points: 2
#     Edge 60, Type (0, 0), BuildingBlock: TEMPAE_clean_linker_10, # of connection points: 2
#     Edge 61, Type (0, 0), BuildingBlock: TEMPAE_clean_linker_10, # of connection points: 2
#     Edge 62, Type (0, 0), BuildingBlock: TEMPAE_clean_linker_10, # of connection points: 2
#     Edge 63, Type (0, 0), BuildingBlock: TEMPAE_clean_linker_10, # of connection points: 2
# Relax obj value: 0.204
# Max RMSD: 0.235
# Mean RMSD: 0.196
data_MOF--net-bcs--node1-BETDIP_clean_sbu_0--edge1-TEMPAE_clean_linker_10
_symmetry_space_group_name_H-M    P1
_symmetry_Int_Tables_number       1
_symmetry_cell_setting            triclinic
loop_
_symmetry_equiv_pos_as_xyz
'x, y, z'
_cell_length_a     43.446445
_cell_length_b     43.737008
_cell_length_c     39.51989
_cell_angle_alpha  71.495206
_cell_angle_beta   121.50001
_cell_angle_gamma 112.53932
loop_
_atom_site_label
_atom_site_type_symbol
_atom_site_fract_x
_atom_site_fract_y
_atom_site_fract_z
_atom_type_partial_charge
Tb0 Tb 1.04299 1.00044 0.99978 0.0
Tb1 Tb 0.08037 0.04285 0.04553 0.0
C2 C 1.02111 0.95743 0.95569 0.0
C3 C 1.03858 0.94698 0.93924 0.0
C4 C 0.07366 0.96585 0.9409 0.0
C5 C 0.09109 0.95418 0.92789 0.0
C6 C 0.07386 0.92332 0.91328 0.0
C7 C 1.03839 0.90492 0.91101 0.0
C8 C 1.02097 0.91664 0.92387 0.0
C9 C 1.01141 0.97888 0.05315 0.0
C10 C 0.1203 0.99103 0.069 0.0
C11 C 0.09933 0.08649 0.08745 0.0
C12 C 0.07805 0.09822 0.09802 0.0
C13 C 1.04569 0.07678 0.1013 0.0
C14 C 1.02435 0.08897 0.10841 0.0
C15 C 1.03466 0.12296 0.11205 0.0
C16 C 0.0672 0.14424 0.10877 0.0
C17 C 0.0886 0.13198 0.1019 0.0
C18 C 0.11176 0.06412 0.99201 0.0
C19 C 1.00466 0.05348 0.97644 0.0
O20 O 1.01617 0.98731 0.94197 0.0
O21 O 1.0346 0.95121 0.99448 0.0
O22 O 1.04668 0.99167 0.06109 0.0
O23 O 0.99458 0.98085 0.01439 0.0
O24 O 0.09782 0.98979 0.03068 0.0
O25 O 0.11633 1.00975 0.08571 0.0
O26 O 0.10262 0.05609 0.10243 0.0
O27 O 0.09093 0.093 0.04965 0.0
O28 O 0.07652 0.05145 0.98419 0.0
O29 O 0.12874 0.06242 0.0308 0.0
O30 O 1.02564 0.053 0.01506 0.0
O31 O 1.0093 0.03549 0.95952 0.0
H32 H 0.08786 0.98927 0.95293 0.0
H33 H 0.1185 0.96884 0.93031 0.0
H34 H 1.02412 0.88135 0.89941 0.0
H35 H 0.99394 0.90169 0.9224 0.0
H36 H 1.03664 0.05067 0.09792 0.0
H37 H 0.99985 0.07164 0.11122 0.0
H38 H 0.0758 0.17064 0.11061 0.0
H39 H 0.1131 0.1491 0.09884 0.0
Tb40 Tb 0.28721 0.75739 0.28471 0.0
Tb41 Tb 0.34814 0.79705 0.2612 0.0
C42 C 0.23391 0.71141 0.291 0.0
C43 C 0.22488 0.67468 0.29519 0.0
C44 C 0.2008 0.65806 0.26141 0.0
C45 C 0.18961 0.62311 0.26601 0.0
C46 C 0.20161 0.60413 0.30452 0.0
C47 C 0.22836 0.62102 0.33782 0.0
C48 C 0.23969 0.65579 0.33321 0.0
C49 C 0.33322 0.80932 0.32331 0.0
C50 C 0.35467 0.72626 0.31567 0.0
C51 C 0.41093 0.83148 0.26523 0.0
C52 C 0.4328 0.8656 0.27327 0.0
C53 C 0.46982 0.87619 0.27971 0.0
C54 C 0.48883 0.90998 0.27988 0.0
C55 C 0.47094 0.93374 0.27332 0.0
C56 C 0.43539 0.92236 0.27193 0.0
C57 C 0.41631 0.88836 0.27177 0.0
C58 C 0.29028 0.75768 0.20937 0.0
C59 C 0.28038 0.82595 0.2283 0.0
O60 O 0.23228 0.72815 0.25629 0.0
O61 O 0.26301 0.72565 0.32165 0.0
O62 O 0.34132 0.79045 0.31268 0.0
O63 O 0.29818 0.79748 0.31536 0.0
O64 O 0.32468 0.72424 0.31825 0.0
O65 O 0.36699 0.75135 0.29236 0.0
O66 O 0.4065 0.8107 0.29529 0.0
O67 O 0.37987 0.82864 0.2315 0.0
O68 O 0.30502 0.7519 0.24688 0.0
O69 O 0.31057 0.78584 0.19918 0.0
O70 O 0.31727 0.83412 0.24239 0.0
O71 O 0.26174 0.79469 0.23561 0.0
H72 H 0.18949 0.67198 0.23152 0.0
H73 H 0.16978 0.61102 0.23963 0.0
H74 H 0.23828 0.60772 0.36815 0.0
H75 H 0.25872 0.66776 0.35983 0.0
H76 H 0.48307 0.85874 0.28161 0.0
H77 H 0.51582 0.91768 0.28034 0.0
H78 H 0.42102 0.94001 0.2671 0.0
H79 H 0.38788 0.88023 0.26779 0.0
Tb80 Tb 0.57137 0.02858 0.55357 0.0
Tb81 Tb 0.58046 0.04029 0.47996 0.0
C82 C 0.57058 0.03711 0.613 0.0
C83 C 0.5534 0.0561 0.6202 0.0
C84 C 0.5765 0.08329 0.64151 0.0
C85 C 0.56123 0.10106 0.6499 0.0
C86 C 0.52257 0.09163 0.63788 0.0
C87 C 0.49931 0.065 0.61544 0.0
C88 C 0.51455 0.04739 0.60669 0.0
C89 C 0.52596 0.98311 0.50542 0.0
C90 C 0.53109 0.07895 0.47535 0.0
C91 C 0.58053 0.02935 0.42163 0.0
C92 C 0.5875 1.00141 0.41575 0.0
C93 C 0.55788 0.97958 0.38879 0.0
C94 C 0.56411 0.95312 0.38282 0.0
C95 C 0.60017 0.9483 0.40328 0.0
C96 C 0.62945 0.96937 0.43134 0.0
C97 C 0.62318 0.99562 0.43759 0.0
C98 C 0.62562 0.08608 0.52738 0.0
C99 C 0.62187 0.99142 0.55839 0.0
O100 O 0.59609 0.0552 0.60116 0.0
O101 O 0.54841 1.01142 0.59375 0.0
O102 O 0.53591 1.01425 0.4952 0.0
O103 O 0.53997 0.9765 0.54425 0.0
O104 O 0.54035 0.06645 0.51371 0.0
O105 O 0.54186 0.07075 0.45448 0.0
O106 O 0.55009 1.0218 0.42525 0.0
O107 O 0.60921 0.0488 0.4473 0.0
O108 O 0.61574 0.05497 0.53803 0.0
O109 O 0.61242 0.09226 0.48863 0.0
O110 O 0.60658 0.99894 0.51869 0.0
O111 O 0.61557 1.00401 0.57978 0.0
H112 H 0.60655 0.09058 0.65215 0.0
H113 H 0.57997 0.12148 0.66704 0.0
H114 H 0.46929 0.05758 0.60482 0.0
H115 H 0.49593 0.02678 0.58975 0.0
H116 H 0.52996 0.98317 0.37205 0.0
H117 H 0.54094 0.93689 0.36148 0.0
H118 H 0.65762 0.96646 0.44728 0.0
H119 H 0.6465 1.01166 0.45905 0.0
Tb120 Tb 0.32521 0.24563 0.78072 0.0
Tb121 Tb 0.28579 0.2978 0.75291 0.0
C122 C 0.34685 0.20035 0.78004 0.0
C123 C 0.37312 0.19707 0.76952 0.0
C124 C 0.3807 0.21921 0.73853 0.0
C125 C 0.40262 0.21349 0.72621 0.0
C126 C 0.41723 0.1855 0.74465 0.0
C127 C 0.41082 0.16421 0.77679 0.0
C128 C 0.38891 0.16997 0.78907 0.0
C129 C 0.35941 0.29297 0.82526 0.0
C130 C 0.34776 0.31562 0.71953 0.0
C131 C 0.26327 0.34229 0.75422 0.0
C132 C 0.23727 0.34571 0.76552 0.0
C133 C 0.25016 0.35043 0.80485 0.0
C134 C 0.2274 0.35749 0.81481 0.0
C135 C 0.19127 0.36027 0.78568 0.0
C136 C 0.17778 0.35445 0.74666 0.0
C137 C 0.20065 0.34743 0.7366 0.0
C138 C 0.25209 0.25133 0.70731 0.0
C139 C 0.26459 0.22807 0.81527 0.0
O140 O 0.31776 0.2103 0.75007 0.0
O141 O 0.36154 0.21451 0.81176 0.0
O142 O 0.34169 0.2959 0.78777 0.0
O143 O 0.36111 0.26221 0.84 0.0
O144 O 0.34991 0.28383 0.73806 0.0
O145 O 0.3249 0.32697 0.72334 0.0
O146 O 0.29285 0.33282 0.78366 0.0
O147 O 0.24884 0.32843 0.72228 0.0
O148 O 0.26896 0.2475 0.745 0.0
O149 O 0.25119 0.28234 0.69335 0.0
O150 O 0.26191 0.25967 0.79633 0.0
O151 O 0.28728 0.21677 0.81132 0.0
H152 H 0.3688 0.24031 0.72303 0.0
H153 H 0.40745 0.23053 0.70168 0.0
H154 H 0.42133 0.14225 0.79129 0.0
H155 H 0.38327 0.1526 0.81299 0.0
H156 H 0.27829 0.34959 0.82784 0.0
H157 H 0.2384 0.36145 0.84526 0.0
H158 H 0.15014 0.35669 0.72352 0.0
H159 H 0.19005 0.34434 0.70593 0.0
Tb160 Tb 1.02565 1.00597 0.51912 0.0
Tb161 Tb 0.08296 0.05157 0.4919 0.0
C162 C 0.98427 0.95552 0.54144 0.0
C163 C 0.99369 0.93481 0.58082 0.0
C164 C 0.96627 0.90762 0.58757 0.0
C165 C 0.97398 0.8909 0.62645 0.0
C166 C 1.0092 0.90126 0.65909 0.0
C167 C 1.03734 0.92725 0.65172 0.0
C168 C 1.02964 0.9439 0.61278 0.0
C169 C 0.07392 0.0549 0.56148 0.0
C170 C 0.10289 0.9882 0.5514 0.0
C171 C 0.12539 0.10316 0.47259 0.0
C172 C 0.11719 0.12794 0.43622 0.0
C173 C 0.14505 0.15713 0.43432 0.0
C174 C 0.1392 0.17823 0.39786 0.0
C175 C 0.10541 0.17023 0.36275 0.0
C176 C 0.07641 0.14234 0.36562 0.0
C177 C 0.08226 0.12134 0.40218 0.0
C178 C 1.03599 1.00183 0.45073 0.0
C179 C 1.00398 0.06758 0.45651 0.0
O180 O 1.00057 0.95422 0.52215 0.0
O181 O 0.9861 0.98621 0.54089 0.0
O182 O 0.08069 0.03809 0.54699 0.0
O183 O 1.03969 0.04249 0.5558 0.0
O184 O 0.06713 0.97757 0.54344 0.0
O185 O 0.11775 1.01968 0.53963 0.0
O186 O 0.11131 0.10244 0.49518 0.0
O187 O 0.12028 0.07322 0.46721 0.0
O188 O 1.02854 1.01874 0.46448 0.0
O189 O 0.07019 1.01491 0.45615 0.0
O190 O 1.03989 0.07889 0.46491 0.0
O191 O 0.98998 0.0362 0.46941 0.0
H192 H 0.93845 0.90036 0.56316 0.0
H193 H 0.95149 0.87139 0.63125 0.0
H194 H 0.06468 0.93566 0.67624 0.0
H195 H 1.05118 0.96489 0.60788 0.0
H196 H 0.17202 0.16264 0.46044 0.0
H197 H 0.16234 0.19926 0.39659 0.0
H198 H 1.05014 0.13566 0.33913 0.0
H199 H 0.06027 0.09895 0.40336 0.0
Tb200 Tb 0.28281 0.76383 0.78452 0.0
Tb201 Tb 0.30747 0.77785 0.7212 0.0
C202 C 0.26437 0.76857 0.83318 0.0
C203 C 0.24412 0.78836 0.835 0.0
C204 C 0.26235 0.82063 0.84603 0.0
C205 C 0.24369 0.83789 0.85059 0.0
C206 C 0.20637 0.82333 0.84429 0.0
C207 C 0.18801 0.79134 0.83255 0.0
C208 C 0.20668 0.77405 0.82815 0.0
C209 C 0.24563 0.72081 0.73342 0.0
C210 C 0.25434 0.81743 0.70504 0.0
C211 C 0.32327 0.77117 0.67138 0.0
C212 C 0.34604 0.75349 0.67055 0.0
C213 C 0.3353 0.71847 0.67257 0.0
C214 C 0.3561 0.70273 0.66918 0.0
C215 C 0.38811 0.72158 0.66361 0.0
C216 C 0.39913 0.7565 0.66248 0.0
C217 C 0.37829 0.7722 0.66568 0.0
C218 C 0.34606 0.82057 0.77313 0.0
C219 C 0.33766 0.72544 0.80169 0.0
O220 O 0.29706 0.78432 0.83388 0.0
O221 O 0.24442 0.74697 0.80785 0.0
O222 O 0.25659 0.75214 0.72511 0.0
O223 O 0.25387 0.71269 0.77111 0.0
O224 O 0.2619 0.80691 0.74328 0.0
O225 O 0.26532 0.8056 0.68733 0.0
O226 O 0.29294 0.75302 0.67517 0.0
O227 O 0.34171 0.79579 0.69256 0.0
O228 O 0.33369 0.78936 0.78065 0.0
O229 O 0.33917 0.82861 0.73578 0.0
O230 O 0.3309 0.73639 0.76371 0.0
O231 O 0.32531 0.73631 0.81889 0.0
H232 H 0.29126 0.83242 0.8518 0.0
H233 H 0.25859 0.86261 0.85928 0.0
H234 H 0.1595 0.77912 0.82802 0.0
H235 H 0.19194 0.74909 0.82016 0.0
H236 H 0.3105 0.70321 0.67613 0.0
H237 H 0.34646 0.67585 0.66983 0.0
H238 H 0.42395 0.77187 0.65904 0.0
H239 H 0.38725 0.7992 0.6639 0.0
Tb240 Tb 0.56791 0.99118 0.02503 0.0
Tb241 Tb 0.53577 0.05233 0.9858 0.0
C242 C 0.58683 0.93962 0.03638 0.0
C243 C 0.59295 0.92453 1.01232 0.0
C244 C 0.58898 0.88999 0.01987 0.0
C245 C 0.59856 0.87593 1.00043 0.0
C246 C 0.61242 0.89615 0.97297 0.0
C247 C 0.61496 0.9306 0.96434 0.0
C248 C 0.60545 0.9446 0.98383 0.0
C249 C 0.61177 0.04618 0.05686 0.0
C250 C 0.56547 0.03443 0.94146 0.0
C251 C 0.52059 0.10603 0.97445 0.0
C252 C 0.51284 0.12234 0.99579 0.0
C253 C 0.533 0.12167 0.03764 0.0
C254 C 0.52309 0.13532 0.05714 0.0
C255 C 0.49328 0.15042 0.03511 0.0
C256 C 0.47397 0.1519 0.99315 0.0
C257 C 0.48354 0.13788 0.97379 0.0
C258 C 0.49088 0.99695 0.95453 0.0
C259 C 0.53652 1.00889 0.06858 0.0
O260 O 0.55233 0.93913 0.02476 0.0
O261 O 0.6106 0.96837 0.0471 0.0
O262 O 0.59032 0.04452 0.0199 0.0
O263 O 0.61086 1.01619 0.07676 0.0
O264 O 0.56653 1.00592 0.96629 0.0
O265 O 0.55955 0.05973 0.94659 0.0
O266 O 0.55482 0.10363 0.99018 0.0
O267 O 0.49532 0.0786 0.96104 0.0
O268 O 0.51352 0.99889 0.99115 0.0
O269 O 0.49028 0.02685 0.93468 0.0
O270 O 0.5351 0.03733 0.04345 0.0
O271 O 0.54371 0.98389 0.06417 0.0
H272 H 0.57955 0.87399 0.04178 0.0
H273 H 0.59648 0.84939 1.00814 0.0
H274 H 0.62484 0.94691 0.9429 0.0
H275 H 0.60895 0.97133 0.97739 0.0
H276 H 0.55616 0.11037 0.05525 0.0
H277 H 0.53881 0.13424 0.08941 0.0
H278 H 0.45075 0.16314 0.97535 0.0
H279 H 0.46762 0.13875 0.94151 0.0
Tb280 Tb 0.32648 0.28384 0.24218 0.0
Tb281 Tb 0.32071 0.28304 0.317 0.0
C282 C 0.34993 0.28867 0.19369 0.0
C283 C 0.36297 0.26948 0.18108 0.0
C284 C 0.38886 0.25084 0.20889 0.0
C285 C 0.40333 0.23584 0.1957 0.0
C286 C 0.39158 0.23857 0.15446 0.0
C287 C 0.36475 0.25628 0.1268 0.0
C288 C 0.35082 0.2717 0.13999 0.0
C289 C 0.26388 0.24584 0.24464 0.0
C290 C 0.36243 0.2347 0.32454 0.0
C291 C 0.30181 0.28235 0.36779 0.0
C292 C 0.27446 0.29106 0.37213 0.0
C293 C 0.25639 0.31584 0.34515 0.0
C294 C 0.23294 0.32523 0.35223 0.0
C295 C 0.22741 0.31035 0.38672 0.0
C296 C 0.24563 0.28538 0.41335 0.0
C297 C 0.26856 0.27577 0.40597 0.0
C298 C 0.38304 0.32022 0.3134 0.0
C299 C 0.28356 0.33003 0.23474 0.0
O300 O 0.3716 0.29793 0.2293 0.0
O301 O 0.31441 0.27887 0.18492 0.0
O302 O 0.29619 0.25054 0.2739 0.0
O303 O 0.26619 0.26057 0.21166 0.0
O304 O 0.35757 0.2475 0.28728 0.0
O305 O 0.34795 0.24286 0.34177 0.0
O306 O 0.28956 0.25693 0.34916 0.0
O307 O 0.32623 0.30731 0.35856 0.0
O308 O 0.35041 0.31635 0.28487 0.0
O309 O 0.38172 0.30403 0.3465 0.0
O310 O 0.28109 0.31104 0.26741 0.0
O311 O 0.30638 0.32804 0.22325 0.0
H312 H 0.39865 0.2486 0.24079 0.0
H313 H 0.42376 0.22215 0.21773 0.0
H314 H 0.35534 0.25909 0.0949 0.0
H315 H 0.331 0.286 0.11799 0.0
H316 H 0.26047 0.32799 0.31872 0.0
H317 H 0.219 0.34401 0.33042 0.0
H318 H 0.24329 0.27379 0.4408 0.0
H319 H 0.28264 0.25692 0.42748 0.0
Tb320 Tb 0.52937 0.508 0.02975 0.0
Tb321 Tb 0.57792 0.54865 0.98858 0.0
C322 C 0.48397 0.46912 0.05495 0.0
C323 C 0.4922 0.44799 0.09435 0.0
C324 C 0.51229 0.42416 0.10793 0.0
C325 C 0.52413 0.40754 0.1474 0.0
C326 C 0.51672 0.41503 0.17395 0.0
C327 C 0.49635 0.43856 0.16014 0.0
C328 C 0.48405 0.45472 0.12071 0.0
C329 C 0.58818 0.5543 0.06867 0.0
C330 C 0.60232 0.48862 0.05879 0.0
C331 C 0.62612 0.58691 0.96646 0.0
C332 C 0.62252 0.60714 0.92783 0.0
C333 C 0.65297 0.63322 0.9259 0.0
C334 C 0.65064 0.65082 0.88877 0.0
C335 C 0.61781 0.64238 0.85309 0.0
C336 C 0.58673 0.6172 0.85529 0.0
C337 C 0.58899 0.59985 0.8925 0.0
C338 C 0.51978 0.5012 0.95075 0.0
C339 C 0.50434 0.5675 0.95901 0.0
O340 O 0.49089 0.46114 0.03076 0.0
O341 O 0.49581 0.50137 0.05616 0.0
O342 O 0.56771 0.55649 0.03149 0.0
O343 O 0.5734 0.52679 0.08598 0.0
O344 O 0.56815 0.47767 0.05556 0.0
O345 O 0.61362 0.51819 0.03972 0.0
O346 O 0.61446 0.59633 0.98511 0.0
O347 O 0.6147 0.55448 0.96666 0.0
O348 O 0.5404 0.50012 0.98772 0.0
O349 O 0.53438 0.52836 0.93279 0.0
O350 O 0.53822 0.57838 0.96138 0.0
O351 O 0.4935 0.53835 0.97903 0.0
H352 H 0.51938 0.41869 0.08837 0.0
H353 H 0.53917 0.38902 0.15724 0.0
H354 H 0.48922 0.44403 0.17968 0.0
H355 H 0.46885 0.47307 0.11104 0.0
H356 H 0.67891 0.63926 0.95295 0.0
H357 H 0.67525 0.66982 0.88788 0.0
H358 H 0.56118 0.61033 0.82823 0.0
H359 H 0.56497 0.58006 0.89356 0.0
Tb360 Tb 0.78954 0.26885 0.28335 0.0
Tb361 Tb 0.80977 0.2824 0.21664 0.0
C362 C 0.77623 0.27284 0.33667 0.0
C363 C 0.75792 0.29139 0.34305 0.0
C364 C 0.73618 0.31213 0.31162 0.0
C365 C 0.71802 0.32831 0.31856 0.0
C366 C 0.72109 0.32391 0.35706 0.0
C367 C 0.74305 0.30309 0.38832 0.0
C368 C 0.76126 0.28715 0.38138 0.0
C369 C 0.74873 0.22666 0.23088 0.0
C370 C 0.75913 0.32266 0.20505 0.0
C371 C 0.82183 0.27563 0.16394 0.0
C372 C 0.84328 0.25771 0.16129 0.0
C373 C 0.83627 0.22262 0.17015 0.0
C374 C 0.85616 0.2065 0.16578 0.0
C375 C 0.88351 0.22507 0.15249 0.0
C376 C 0.8908 0.26019 0.14441 0.0
C377 C 0.87084 0.27622 0.14857 0.0
C378 C 0.85028 0.32545 0.26778 0.0
C379 C 0.84256 0.23017 0.29659 0.0
O380 O 0.80726 0.28975 0.3339 0.0
O381 O 0.75423 0.25202 0.31049 0.0
O382 O 0.76029 0.25785 0.22332 0.0
O383 O 0.75896 0.21779 0.26898 0.0
O384 O 0.76859 0.31236 0.24376 0.0
O385 O 0.7677 0.3102 0.18549 0.0
O386 O 0.7923 0.25763 0.16938 0.0
O387 O 0.8416 0.3002 0.18525 0.0
O388 O 0.83897 0.29422 0.27628 0.0
O389 O 0.8408 0.33347 0.22976 0.0
O390 O 0.83416 0.24092 0.25813 0.0
O391 O 0.83172 0.24124 0.31511 0.0
H392 H 0.73296 0.31557 0.2817 0.0
H393 H 0.70175 0.34438 0.29379 0.0
H394 H 0.7456 0.29848 0.41815 0.0
H395 H 0.77762 0.27104 0.406 0.0
H396 H 0.81521 0.20755 0.18006 0.0
H397 H 0.84949 0.17944 0.17202 0.0
H398 H 0.91213 0.27548 0.13499 0.0
H399 H 0.87689 0.30326 0.14163 0.0
Tb400 Tb 1.0511 0.48916 0.51883 0.0
Tb401 Tb 1.04166 0.55937 0.47813 0.0
C402 C 1.0551 0.43051 0.53069 0.0
C403 C 0.06684 0.41406 0.51335 0.0
C404 C 1.05168 0.4159 0.47165 0.0
C405 C 0.06609 0.40329 0.45596 0.0
C406 C 0.09599 0.38845 0.48154 0.0
C407 C 0.1098 0.38531 0.52331 0.0
C408 C 0.09551 0.39805 0.53894 0.0
C409 C 0.10006 0.53815 0.56062 0.0
C410 C 0.0801 0.53092 0.453 0.0
C411 C 1.03933 0.6181 0.46908 0.0
C412 C 1.0287 0.63429 0.48806 0.0
C413 C 1.05383 0.64451 0.52603 0.0
C414 C 1.04317 0.65923 0.54373 0.0
C415 C 1.00709 0.66417 0.52403 0.0
C416 C 0.98202 0.65377 0.4861 0.0
C417 C 0.99275 0.6393 0.46832 0.0
C418 C 0.99267 0.51076 0.43608 0.0
C419 C 1.0105 0.51629 0.54219 0.0
O420 O 1.02389 0.43959 0.50703 0.0
O421 O 0.08179 0.45349 0.55262 0.0
O422 O 0.08678 0.53904 0.52348 0.0
O423 O 0.0872 0.50836 0.57629 0.0
O424 O 0.06853 0.5018 0.47224 0.0
O425 O 0.07729 0.55931 0.45515 0.0
O426 O 0.07021 0.60838 0.49173 0.0
O427 O 1.01219 0.59602 0.44598 0.0
O428 O 1.00613 0.50963 0.47331 0.0
O429 O 1.0048 0.54088 0.42037 0.0
O430 O 1.02239 0.5457 0.52356 0.0
O431 O 1.01411 0.4883 0.54019 0.0
H432 H 1.0294 0.42796 0.45102 0.0
H433 H 1.05445 0.40619 0.42372 0.0
H434 H 0.13192 0.37314 0.54417 0.0
H435 H 0.10747 0.39599 0.5712 0.0
H436 H 0.08181 0.64117 0.54218 0.0
H437 H 0.06346 0.66709 0.57271 0.0
H438 H 0.95374 0.65634 0.47018 0.0
H439 H 0.97264 0.63174 0.43909 0.0
Tb440 Tb 0.83308 0.7434 0.28796 0.0
Tb441 Tb 0.79519 0.79634 0.26123 0.0
C442 C 0.85354 0.69761 0.28656 0.0
C443 C 0.8806 0.6931 0.2783 0.0
C444 C 0.86913 0.66657 0.25816 0.0
C445 C 0.89341 0.66167 0.24868 0.0
C446 C 0.92973 0.68322 0.25926 0.0
C447 C 0.94148 0.70967 0.27992 0.0
C448 C 0.91691 0.71475 0.28915 0.0
C449 C 0.86883 0.79058 0.33309 0.0
C450 C 0.85575 0.81337 0.2266 0.0
C451 C 0.77575 0.8422 0.264 0.0
C452 C 0.75122 0.8454 0.27692 0.0
C453 C 0.74218 0.82114 0.30592 0.0
C454 C 0.7217 0.82618 0.3206 0.0
C455 C 0.71041 0.85574 0.30676 0.0
C456 C 0.71844 0.87944 0.27676 0.0
C457 C 0.73869 0.87426 0.26193 0.0
C458 C 0.76032 0.75062 0.21467 0.0
C459 C 0.77159 0.72619 0.32155 0.0
O460 O 0.82694 0.71007 0.25553 0.0
O461 O 0.86667 0.71002 0.31917 0.0
O462 O 0.85086 0.79361 0.29563 0.0
O463 O 0.86984 0.75964 0.34748 0.0
O464 O 0.85802 0.7816 0.24532 0.0
O465 O 0.83315 0.82484 0.23055 0.0
O466 O 0.80527 0.83221 0.29274 0.0
O467 O 0.75931 0.82779 0.23207 0.0
O468 O 0.77725 0.74623 0.25237 0.0
O469 O 0.75979 0.78177 0.20128 0.0
O470 O 0.77006 0.75814 0.30349 0.0
O471 O 0.7939 0.71455 0.31732 0.0
H472 H 0.84121 0.64965 0.24958 0.0
H473 H 0.88385 0.64078 0.2333 0.0
H474 H 0.96933 0.72663 0.28827 0.0
H475 H 0.92614 0.73557 0.30449 0.0
H476 H 0.75197 0.79888 0.31822 0.0
H477 H 0.71607 0.80766 0.3439 0.0
H478 H 0.70961 0.90226 0.26529 0.0
H479 H 0.74542 0.89321 0.23955 0.0
Tb480 Tb 0.7874 0.25573 0.78457 0.0
Tb481 Tb 0.85051 0.30003 0.76625 0.0
C482 C 0.72558 0.21684 0.77837 0.0
C483 C 0.70973 0.18035 0.77888 0.0
C484 C 0.6841 0.16704 0.74286 0.0
C485 C 0.66645 0.13275 0.74353 0.0
C486 C 0.67354 0.11129 0.78029 0.0
C487 C 0.70144 0.12447 0.81602 0.0
C488 C 0.71924 0.15853 0.81531 0.0
C489 C 0.83856 0.29771 0.83591 0.0
C490 C 0.85624 0.22747 0.82038 0.0
C491 C 0.91366 0.33882 0.77643 0.0
C492 C 0.92837 0.37525 0.77191 0.0
C493 C 0.96268 0.3897 0.77086 0.0
C494 C 0.97381 0.42407 0.75932 0.0
C495 C 0.95092 0.44458 0.74903 0.0
C496 C 0.9181 0.43025 0.75367 0.0
C497 C 0.90674 0.39573 0.76467 0.0
C498 C 0.79853 0.26019 0.71286 0.0
C499 C 0.77981 0.32686 0.72748 0.0
O500 O 0.73151 0.23354 0.7475 0.0
O501 O 0.75301 0.22731 0.81215 0.0
O502 O 0.82577 0.30316 0.79853 0.0
O503 O 0.82033 0.26816 0.84611 0.0
O504 O 0.82001 0.21952 0.80946 0.0
O505 O 0.87382 0.25798 0.80889 0.0
O506 O 0.90407 0.32527 0.80539 0.0
O507 O 0.88867 0.32658 0.74297 0.0
O508 O 0.81071 0.25319 0.75033 0.0
O509 O 0.81964 0.28877 0.70461 0.0
O510 O 0.81595 0.33525 0.73741 0.0
O511 O 0.76316 0.29676 0.74092 0.0
H512 H 0.67661 0.18331 0.71429 0.0
H513 H 0.64569 0.12339 0.71548 0.0
H514 H 0.70753 0.10909 0.84512 0.0
H515 H 0.73918 0.16786 0.8436 0.0
H516 H 0.97969 0.37419 0.7764 0.0
H517 H 0.99881 0.434 0.75523 0.0
H518 H 0.8999 0.44533 0.74593 0.0
H519 H 0.88003 0.38486 0.76519 0.0
Tb520 Tb 0.83053 0.78181 0.72852 0.0
Tb521 Tb 0.81092 0.77769 0.79488 0.0
C522 C 0.85624 0.79821 0.67903 0.0
C523 C 0.87668 0.78522 0.66881 0.0
C524 C 0.89302 0.80609 0.64395 0.0
C525 C 0.91032 0.79371 0.63156 0.0
C526 C 0.91155 0.76006 0.64369 0.0
C527 C 0.8959 0.73944 0.66952 0.0
C528 C 0.87868 0.7519 0.68199 0.0
C529 C 0.76825 0.73847 0.72506 0.0
C530 C 0.85473 0.72757 0.80445 0.0
C531 C 0.78476 0.76197 0.84392 0.0
C532 C 0.76125 0.77371 0.85117 0.0
C533 C 0.74622 0.75332 0.87736 0.0
C534 C 0.72653 0.76498 0.88738 0.0
C535 C 0.72138 0.79739 0.87138 0.0
C536 C 0.73536 0.81732 0.84393 0.0
C537 C 0.75513 0.80562 0.83397 0.0
C538 C 0.87412 0.82028 0.79872 0.0
C539 C 0.78542 0.83085 0.71849 0.0
O540 O 0.87462 0.80914 0.71362 0.0
O541 O 0.82193 0.78039 0.67166 0.0
O542 O 0.78149 0.76689 0.73524 0.0
O543 O 0.78913 0.73329 0.71422 0.0
O544 O 0.86095 0.746 0.77362 0.0
O545 O 0.83318 0.73352 0.81503 0.0
O546 O 0.76833 0.74815 0.81156 0.0
O547 O 0.81788 0.78228 0.84983 0.0
O548 O 0.85992 0.79195 0.7883 0.0
O549 O 0.85344 0.82607 0.80932 0.0
O550 O 0.77895 0.81191 0.74892 0.0
O551 O 0.80821 0.82602 0.70878 0.0
H552 H 0.89172 0.83187 0.63345 0.0
H553 H 0.92172 0.81026 0.61144 0.0
H554 H 0.89683 0.71358 0.68 0.0
H555 H 0.86645 0.73541 0.70143 0.0
H556 H 0.7503 0.7285 0.8907 0.0
H557 H 0.71555 0.74866 0.90794 0.0
H558 H 0.73214 0.84243 0.83113 0.0
H559 H 0.76636 0.82176 0.81355 0.0
Tb560 Tb 0.54207 0.50015 0.4985 0.0
Tb561 Tb 0.57894 0.54253 0.54452 0.0
C562 C 0.5238 0.45695 0.45636 0.0
C563 C 0.54488 0.44473 0.44567 0.0
C564 C 0.54751 0.45818 0.4096 0.0
C565 C 0.5672 0.44647 0.39959 0.0
C566 C 0.5845 0.42074 0.4252 0.0
C567 C 0.58187 0.40737 0.46131 0.0
C568 C 0.56228 0.41911 0.47134 0.0
C569 C 0.509 0.47889 0.55048 0.0
C570 C 0.61866 0.49049 0.56867 0.0
C571 C 0.59795 0.58549 0.58737 0.0
C572 C 0.57723 0.5962 0.59966 0.0
C573 C 0.54272 0.57569 0.59841 0.0
C574 C 0.52215 0.58715 0.60745 0.0
C575 C 0.53556 0.61944 0.61777 0.0
C576 C 0.57029 0.63973 0.61914 0.0
C577 C 0.59087 0.62822 0.61025 0.0
C578 C 0.61169 0.56382 0.49218 0.0
C579 C 0.50269 0.55257 0.47419 0.0
O580 O 0.52079 0.48744 0.44148 0.0
O581 O 0.53094 0.45011 0.49384 0.0
O582 O 0.54453 0.49149 0.55922 0.0
O583 O 0.49281 0.48077 0.51171 0.0
O584 O 0.59684 0.48961 0.53028 0.0
O585 O 0.61422 0.50896 0.5852 0.0
O586 O 0.60192 0.55529 0.60182 0.0
O587 O 0.58827 0.59223 0.54924 0.0
O588 O 0.57624 0.55126 0.48373 0.0
O589 O 0.62802 0.5621 0.53093 0.0
O590 O 0.52437 0.5533 0.51262 0.0
O591 O 0.50676 0.53373 0.45773 0.0
H592 H 0.53423 0.47773 0.38896 0.0
H593 H 0.56825 0.45727 0.37138 0.0
H594 H 0.59525 0.38794 0.48214 0.0
H595 H 0.56088 0.40804 0.49937 0.0
H596 H 0.53147 0.55093 0.59003 0.0
H597 H 0.49577 0.57065 0.60645 0.0
H598 H 0.58124 0.66487 0.62621 0.0
H599 H 0.6172 0.64462 0.61095 0.0
Tb600 Tb 0.06133 0.52398 0.05925 0.0
Tb601 Tb 0.0711 0.52936 0.98753 0.0
C602 C 0.07224 0.52888 0.12654 0.0
C603 C 0.06342 0.54895 0.14258 0.0
C604 C 0.09078 0.5769 0.16086 0.0
C605 C 0.08284 0.5952 0.17728 0.0
C606 C 1.0476 0.58558 0.17627 0.0
C607 C 1.0202 0.55788 0.15751 0.0
C608 C 1.02805 0.53969 0.14106 0.0
C609 C 1.01381 0.47765 1.01272 0.0
C610 C 1.0141 0.56462 0.97988 0.0
C611 C 1.0598 0.52281 0.92083 0.0
C612 C 0.06423 0.49834 0.90647 0.0
C613 C 1.03773 0.48904 0.86854 0.0
C614 C 1.04242 0.46702 0.85363 0.0
C615 C 0.07381 0.4541 0.87626 0.0
C616 C 0.09943 0.46232 0.91507 0.0
C617 C 0.0946 0.48412 0.93012 0.0
C618 C 0.11827 0.57618 0.03378 0.0
C619 C 0.11758 0.4883 0.06668 0.0
O620 O 0.09657 0.54495 0.11249 0.0
O621 O 1.04405 0.50688 0.10405 0.0
O622 O 1.04805 0.48992 0.02221 0.0
O623 O 1.00528 0.48954 0.03201 0.0
O624 O 1.02883 0.56004 0.01955 0.0
O625 O 1.02467 0.55267 0.96168 0.0
O626 O 1.03367 0.51153 0.93241 0.0
O627 O 0.09066 0.54185 0.94511 0.0
O628 O 0.08412 0.56344 0.02434 0.0
O629 O 0.12685 0.56471 0.01418 0.0
O630 O 0.10176 0.49205 0.02704 0.0
O631 O 0.10835 0.5015 0.08499 0.0
H632 H 0.11844 0.58447 0.16282 0.0
H633 H 0.10456 0.61636 0.19159 0.0
H634 H 0.99246 0.55024 0.15534 0.0
H635 H 1.00635 0.51826 0.12731 0.0
H636 H 1.0137 0.49921 0.85017 0.0
H637 H 1.02178 0.46048 0.82418 0.0
H638 H 0.12403 0.45294 0.93324 0.0
H639 H 0.11506 0.49046 0.95985 0.0
C640 C 0.21905 0.21491 0.84945 0.0
C641 C 0.24101 0.20425 0.84034 0.0
C642 C 0.19808 0.19347 0.87215 0.0
C643 C 0.19665 0.15842 0.88773 0.0
C644 C 0.21848 0.14747 0.87835 0.0
C645 C 0.23956 0.16953 0.85605 0.0
C646 C 0.17715 0.20893 0.87979 0.0
C647 C 0.21962 0.11148 0.89204 0.0
C648 C 0.17052 0.1073 0.98026 0.0
C649 C 0.13187 0.08828 0.96364 0.0
C650 C 0.19067 0.12926 0.95708 0.0
C651 C 0.17383 0.13414 0.9138 0.0
C652 C 0.13482 0.11489 0.89659 0.0
C653 C 0.11507 0.09328 0.92061 0.0
C654 C 0.23109 0.14775 0.97975 0.0
C655 C 0.11333 0.11689 0.85168 0.0
H656 H 0.21829 0.24082 0.8389 0.0
H657 H 0.25518 0.15896 0.85067 0.0
H658 H 0.14683 0.19575 0.86605 0.0
H659 H 0.18704 0.20586 0.91257 0.0
H660 H 0.18075 0.23598 0.86747 0.0
H661 H 0.23322 0.10631 0.9253 0.0
H662 H 0.19066 0.09474 0.8811 0.0
H663 H 0.23518 0.10519 0.88124 0.0
H664 H 0.18579 0.10517 1.01267 0.0
H665 H 0.08591 0.07987 0.90506 0.0
H666 H 0.23509 0.17501 0.96871 0.0
H667 H 0.24908 0.13953 0.97425 0.0
H668 H 0.24071 0.14354 1.01259 0.0
H669 H 0.11229 0.14308 0.83773 0.0
H670 H 0.08422 0.10044 0.84167 0.0
H671 H 0.12798 0.10965 0.84058 0.0
C672 C 0.1681 0.96749 0.13447 0.0
C673 C 0.14807 0.97059 0.09242 0.0
C674 C 0.19168 0.94579 0.15693 0.0
C675 C 0.1957 0.92672 0.13703 0.0
C676 C 0.17647 0.9306 0.09449 0.0
C677 C 0.15291 0.95227 0.07283 0.0
C678 C 0.21134 0.94244 0.20213 0.0
C679 C 0.17992 0.91112 0.07177 0.0
C680 C 0.27693 0.88533 0.19425 0.0
C681 C 0.25919 0.85208 0.20489 0.0
C682 C 0.2568 0.90984 0.17223 0.0
C683 C 0.21793 0.90115 0.16067 0.0
C684 C 0.2 0.86768 0.17152 0.0
C685 C 0.22067 0.84371 0.19323 0.0
C686 C 0.27713 0.94505 0.16118 0.0
C687 C 0.15877 0.85709 0.16021 0.0
H688 H 0.16457 0.98134 0.15002 0.0
H689 H 0.1377 0.95439 0.04039 0.0
H690 H 0.20052 0.91663 0.21496 0.0
H691 H 0.24182 0.94668 0.21371 0.0
H692 H 0.20722 0.96035 0.21305 0.0
H693 H 0.16528 0.91856 0.03875 0.0
H694 H 0.20987 0.91487 0.08104 0.0
H695 H 0.16782 0.88397 0.07902 0.0
H696 H 0.3066 0.89224 0.20298 0.0
H697 H 0.20646 0.81826 0.20123 0.0
H698 H 0.27473 0.96288 0.17379 0.0
H699 H 0.26398 0.95215 0.12808 0.0
H700 H 0.3073 0.94792 0.17231 0.0
H701 H 0.15298 0.87248 0.1727 0.0
H702 H 0.14901 0.83028 0.17129 0.0
H703 H 0.14205 0.86139 0.12709 0.0
C704 C 0.47932 0.96926 0.43601 0.0
C705 C 0.49786 0.95859 0.4774 0.0
C706 C 0.45258 0.94621 0.40921 0.0
C707 C 0.44341 0.91169 0.42425 0.0
C708 C 0.46188 0.90085 0.46609 0.0
C709 C 0.48897 0.92439 0.49209 0.0
C710 C 0.43412 0.9588 0.36481 0.0
C711 C 0.45295 0.86433 0.48344 0.0
C712 C 0.34987 0.85357 0.36241 0.0
C713 C 0.36089 0.83658 0.34761 0.0
C714 C 0.37631 0.87839 0.38695 0.0
C715 C 0.41462 0.88681 0.39639 0.0
C716 C 0.42563 0.8704 0.38046 0.0
C717 C 0.39876 0.8452 0.35689 0.0
C718 C 0.36338 0.89516 0.40341 0.0
C719 C 0.46591 0.87908 0.38878 0.0
H720 H 0.48544 0.99571 0.42452 0.0
H721 H 0.50312 0.916 0.52405 0.0
H722 H 0.43893 0.94623 0.34828 0.0
H723 H 0.40338 0.95255 0.35338 0.0
H724 H 0.4449 0.9863 0.35785 0.0
H725 H 0.46938 0.86 0.51664 0.0
H726 H 0.42267 0.85474 0.47533 0.0
H727 H 0.45895 0.84948 0.4705 0.0
H728 H 0.32065 0.84705 0.3554 0.0
H729 H 0.40764 0.83194 0.34618 0.0
H730 H 0.37151 0.9227 0.39481 0.0
H731 H 0.37735 0.88992 0.43668 0.0
H732 H 0.33255 0.88649 0.39245 0.0
H733 H 0.47626 0.90635 0.38021 0.0
H734 H 0.46946 0.86543 0.37219 0.0
H735 H 0.48383 0.87291 0.42137 0.0
C736 C 0.42096 0.1782 0.68685 0.0
C737 C 0.43635 0.17685 0.72838 0.0
C738 C 0.43614 0.16676 0.67098 0.0
C739 C 0.46749 0.15372 0.69729 0.0
C740 C 0.4841 0.15347 0.73915 0.0
C741 C 0.46822 0.16496 0.75423 0.0
C742 C 0.41752 0.16719 0.62619 0.0
C743 C 0.51768 0.13984 0.76815 0.0
C744 C 0.47914 0.08912 0.66289 0.0
C745 C 0.50709 0.10818 0.65089 0.0
C746 C 0.46603 0.10369 0.67797 0.0
C747 C 0.48121 0.13821 0.68118 0.0
C748 C 0.50907 0.15776 0.66873 0.0
C749 C 0.52155 0.14255 0.65352 0.0
C750 C 0.43631 0.08199 0.69107 0.0
C751 C 0.52596 0.19463 0.6719 0.0
H752 H 0.39601 0.1869 0.66677 0.0
H753 H 0.4804 0.16418 0.78632 0.0
H754 H 0.43852 0.17959 0.61469 0.0
H755 H 0.40501 0.14112 0.6195 0.0
H756 H 0.39508 0.18035 0.60966 0.0
H757 H 0.53023 0.14554 0.79892 0.0
H758 H 0.50907 0.11226 0.7696 0.0
H759 H 0.53951 0.15026 0.75777 0.0
H760 H 0.4683 0.06245 0.6618 0.0
H761 H 0.54269 0.15763 0.64373 0.0
H762 H 0.41176 0.09243 0.67488 0.0
H763 H 0.44747 0.08172 0.72358 0.0
H764 H 0.42667 0.05576 0.68551 0.0
H765 H 0.5037 0.20795 0.6542 0.0
H766 H 0.54749 0.20629 0.66103 0.0
H767 H 0.53911 0.19832 0.70359 0.0
C768 C 0.10909 0.92977 0.5818 0.0
C769 C 0.12617 0.96398 0.57422 0.0
C770 C 0.13013 0.90617 0.60249 0.0
C771 C 0.16942 0.91692 0.61641 0.0
C772 C 0.18693 0.95141 0.60909 0.0
C773 C 0.1651 0.97449 0.58792 0.0
C774 C 0.1102 0.86967 0.60937 0.0
C775 C 0.22878 0.96396 0.6238 0.0
C776 C 0.22634 0.8594 0.70218 0.0
C777 C 0.23311 0.84324 0.68209 0.0
C778 C 0.20622 0.88369 0.6813 0.0
C779 C 0.19213 0.89203 0.63912 0.0
C780 C 0.19892 0.87592 0.61862 0.0
C781 C 0.21945 0.85186 0.64034 0.0
C782 C 0.19986 0.90031 0.70445 0.0
C783 C 0.18404 0.88378 0.57364 0.0
H784 H 0.07903 0.92122 0.57124 0.0
H785 H 0.1786 1.00081 0.5823 0.0
H786 H 0.11565 0.85456 0.59619 0.0
H787 H 0.12118 0.86036 0.64202 0.0
H788 H 0.07941 0.8653 0.59602 0.0
H789 H 0.23816 0.99151 0.61578 0.0
H790 H 0.24349 0.95738 0.6569 0.0
H791 H 0.23744 0.95161 0.61081 0.0
H792 H 0.23688 0.85315 0.73445 0.0
H793 H 0.22441 0.83953 0.62448 0.0
H794 H 0.16938 0.89496 0.69396 0.0
H795 H 0.21098 0.92787 0.69892 0.0
H796 H 0.21345 0.89166 0.73729 0.0
H797 H 0.15301 0.87786 0.55885 0.0
H798 H 0.19213 0.86945 0.5622 0.0
H799 H 0.1947 0.9109 0.56468 0.0
C800 C 0.38106 0.87833 0.79049 0.0
C801 C 0.36784 0.84422 0.80274 0.0
C802 C 0.40164 0.90133 0.81789 0.0
C803 C 0.40829 0.89013 0.85834 0.0
C804 C 0.39498 0.85568 0.87087 0.0
C805 C 0.37562 0.83305 0.84309 0.0
C806 C 0.41631 0.93766 0.8035 0.0
C807 C 0.40086 0.84281 0.91348 0.0
C808 C 0.48828 0.94692 0.93436 0.0
C809 C 0.46964 0.96627 0.93546 0.0
C810 C 0.46865 0.92149 0.91018 0.0
C811 C 0.42917 0.91465 0.88728 0.0
C812 C 0.40999 0.93306 0.88988 0.0
C813 C 0.43056 0.95913 0.9133 0.0
C814 C 0.49047 0.90335 0.90738 0.0
C815 C 0.36785 0.92603 0.86679 0.0
H816 H 0.3755 0.88707 0.75942 0.0
H817 H 0.3665 0.80659 0.85298 0.0
H818 H 0.4034 0.95341 0.80668 0.0
H819 H 0.44706 0.94618 0.82223 0.0
H820 H 0.41033 0.94201 0.77163 0.0
H821 H 0.38779 0.81547 0.91814 0.0
H822 H 0.43126 0.84797 0.93453 0.0
H823 H 0.38872 0.85609 0.92133 0.0
H824 H 0.5184 0.95282 0.95039 0.0
H825 H 0.41614 0.97435 0.91376 0.0
H826 H 0.48739 0.90934 0.87648 0.0
H827 H 0.47922 0.87588 0.91349 0.0
H828 H 0.5208 0.91037 0.92868 0.0
H829 H 0.35927 0.93339 0.83417 0.0
H830 H 0.35692 0.93991 0.87546 0.0
H831 H 0.3545 0.89884 0.87185 0.0
C832 C 0.4757 0.14442 0.08872 0.0
C833 C 0.48147 0.1638 0.05563 0.0
C834 C 0.46217 0.15576 0.10673 0.0
C835 C 0.45461 0.18751 0.09164 0.0
C836 C 0.46131 0.20755 0.05883 0.0
C837 C 0.47436 0.19537 0.04108 0.0
C838 C 0.45498 0.13333 0.14122 0.0
C839 C 0.45423 0.24174 0.0421 0.0
C840 C 0.38429 0.2054 0.10792 0.0
C841 C 0.40774 0.22387 0.14002 0.0
C842 C 0.39913 0.19285 0.09252 0.0
C843 C 0.4385 0.19933 0.10916 0.0
C844 C 0.46233 0.21773 0.14183 0.0
C845 C 0.44667 0.22955 0.15705 0.0
C846 C 0.37262 0.17294 0.05811 0.0
C847 C 0.50442 0.22566 0.16008 0.0
H848 H 0.48061 0.11984 0.09972 0.0
H849 H 0.47905 0.2106 0.01573 0.0
H850 H 0.47052 0.14668 0.16757 0.0
H851 H 0.42472 0.12671 0.13262 0.0
H852 H 0.46341 0.10985 0.15026 0.0
H853 H 0.46262 0.2549 0.01788 0.0
H854 H 0.42402 0.23935 0.02984 0.0
H855 H 0.46992 0.25745 0.06635 0.0
H856 H 0.35418 0.20068 0.09484 0.0
H857 H 0.46497 0.24414 0.18154 0.0
H858 H 0.37822 0.14822 0.06621 0.0
H859 H 0.37724 0.18621 0.03145 0.0
H860 H 0.34275 0.16885 0.04969 0.0
H861 H 0.51312 0.20222 0.17046 0.0
H862 H 0.51906 0.23961 0.18586 0.0
H863 H 0.51376 0.2409 0.13705 0.0
C864 C 0.12164 0.22067 0.31721 0.0
C865 C 0.10447 0.1864 0.32328 0.0
C866 C 0.13681 0.23331 0.29018 0.0
C867 C 0.13483 0.21094 0.2695 0.0
C868 C 0.11094 0.17811 0.26952 0.0
C869 C 0.09584 0.16611 0.29654 0.0
C870 C 0.16042 0.26902 0.28912 0.0
C871 C 0.10642 0.15379 0.24641 0.0
C872 C 0.19683 0.2434 0.21758 0.0
C873 C 0.22917 0.23398 0.24837 0.0
C874 C 0.16515 0.23556 0.22324 0.0
C875 C 0.16621 0.21786 0.26052 0.0
C876 C 0.19863 0.20744 0.29112 0.0
C877 C 0.2294 0.21516 0.28427 0.0
C878 C 0.1309 0.24609 0.18924 0.0
C879 C 0.20159 0.18919 0.33184 0.0
H880 H 0.12715 0.23667 0.33691 0.0
H881 H 0.08177 0.13969 0.30031 0.0
H882 H 0.19036 0.26914 0.30541 0.0
H883 H 0.15422 0.28102 0.25778 0.0
H884 H 0.1559 0.28409 0.30327 0.0
H885 H 0.07735 0.13722 0.23484 0.0
H886 H 0.11303 0.16675 0.22096 0.0
H887 H 0.12563 0.13765 0.26684 0.0
H888 H 0.19664 0.25775 0.18953 0.0
H889 H 0.25421 0.20724 0.30756 0.0
H890 H 0.11583 0.25283 0.2002 0.0
H891 H 0.11142 0.22488 0.17217 0.0
H892 H 0.13826 0.26772 0.1682 0.0
H893 H 0.19731 0.20437 0.34604 0.0
H894 H 0.22928 0.1839 0.3525 0.0
H895 H 0.17957 0.16505 0.32852 0.0
C896 C 0.91554 0.17989 0.1731 0.0
C897 C 0.90415 0.20814 0.14652 0.0
C898 C 0.9357 0.1644 0.16809 0.0
C899 C 0.94505 0.17753 0.13591 0.0
C900 C 0.93341 0.20582 0.10883 0.0
C901 C 0.91299 0.22057 0.11429 0.0
C902 C 0.94746 0.13423 0.1976 0.0
C903 C 0.94295 0.22085 0.07427 0.0
C904 C 1.02872 0.16109 0.14355 0.0
C905 C 1.01154 0.13626 0.11891 0.0
C906 C 1.00752 0.17415 0.14998 0.0
C907 C 0.96793 0.1624 0.13107 0.0
C908 C 0.95029 0.1372 0.10639 0.0
C909 C 0.97222 0.12451 0.10054 0.0
C910 C 1.02752 0.20093 0.17658 0.0
C911 C 0.90817 0.1239 0.08571 0.0
H912 H 0.90935 0.17022 0.19838 0.0
H913 H 0.90377 0.2419 0.09302 0.0
H914 H 0.93727 0.11304 0.18141 0.0
H915 H 0.97849 0.14005 0.21394 0.0
H916 H 0.93656 0.12613 0.21989 0.0
H917 H 0.93156 0.24268 0.05564 0.0
H918 H 0.97384 0.22905 0.0859 0.0
H919 H 0.93169 0.20175 0.0548 0.0
H920 H 1.05893 0.17031 0.15807 0.0
H921 H 0.9584 0.10585 0.08082 0.0
H922 H 1.01883 0.19342 0.20057 0.0
H923 H 1.01983 0.22452 0.15864 0.0
H924 H 1.05839 0.20599 0.19088 0.0
H925 H 0.89729 0.11465 0.10807 0.0
H926 H 0.8988 0.10322 0.06902 0.0
H927 H 0.89543 0.14433 0.06431 0.0
C928 C 0.11581 0.55999 0.41354 0.0
C929 C 0.09488 0.53053 0.42705 0.0
C930 C 0.13025 0.55951 0.38932 0.0
C931 C 0.1231 0.52875 0.37795 0.0
C932 C 0.10149 0.49895 0.39106 0.0
C933 C 0.08783 0.50021 0.41564 0.0
C934 C 0.15319 0.59211 0.37598 0.0
C935 C 0.09263 0.46556 0.37982 0.0
C936 C 0.14052 0.56135 0.29053 0.0
C937 C 0.17985 0.56908 0.3116 0.0
C938 C 0.1191 0.54088 0.31031 0.0
C939 C 0.13788 0.52901 0.35151 0.0
C940 C 0.17558 0.52876 0.36864 0.0
C941 C 0.1963 0.54846 0.34776 0.0
C942 C 0.07768 0.5376 0.28949 0.0
C943 C 0.19548 0.51288 0.41133 0.0
H944 H 0.12128 0.5834 0.42225 0.0
H945 H 0.07108 0.47733 0.42539 0.0
H946 H 0.18119 0.58976 0.38526 0.0
H947 H 0.13909 0.59826 0.34279 0.0
H948 H 0.15725 0.61339 0.38881 0.0
H949 H 0.09858 0.46763 0.35498 0.0
H950 H 0.10949 0.44996 0.40649 0.0
H951 H 0.06263 0.45211 0.37093 0.0
H952 H 0.12668 0.57527 0.2614 0.0
H953 H 0.22638 0.55208 0.36281 0.0
H954 H 0.073 0.55917 0.29353 0.0
H955 H 0.06257 0.51421 0.30217 0.0
H956 H 0.0658 0.53772 0.25684 0.0
H957 H 0.20329 0.52984 0.43198 0.0
H958 H 0.22145 0.50839 0.41717 0.0
H959 H 0.17684 0.4888 0.41815 0.0
C960 C 0.67293 0.96949 0.6204 0.0
C961 C 0.64747 0.96917 0.57949 0.0
C962 C 0.69714 0.94852 0.6411 0.0
C963 C 0.69547 0.92597 0.62079 0.0
C964 C 0.67013 0.9258 0.57931 0.0
C965 C 0.64677 0.94763 0.5591 0.0
C966 C 0.72418 0.95018 0.68501 0.0
C967 C 0.66677 0.90179 0.55655 0.0
C968 C 0.77608 0.8849 0.67099 0.0
C969 C 0.76269 0.85516 0.69215 0.0
C970 C 0.7545 0.90815 0.64734 0.0
C971 C 0.71826 0.90102 0.64383 0.0
C972 C 0.70427 0.87045 0.66412 0.0
C973 C 0.72675 0.84824 0.68833 0.0
C974 C 0.77088 0.94073 0.62702 0.0
C975 C 0.66557 0.86124 0.66063 0.0
H976 H 0.67412 0.98634 0.63635 0.0
H977 H 0.62725 0.94719 0.52749 0.0
H978 H 0.71639 0.92634 0.7033 0.0
H979 H 0.75299 0.95341 0.6906 0.0
H980 H 0.72441 0.97103 0.69554 0.0
H981 H 0.64727 0.90599 0.52403 0.0
H982 H 0.69462 0.90425 0.56003 0.0
H983 H 0.65644 0.87569 0.56912 0.0
H984 H 0.80382 0.89041 0.67385 0.0
H985 H 0.71587 0.82506 0.70404 0.0
H986 H 0.77362 0.96194 0.63895 0.0
H987 H 0.75187 0.94398 0.59432 0.0
H988 H 0.79888 0.94215 0.63165 0.0
H989 H 0.66424 0.87903 0.67424 0.0
H990 H 0.65775 0.83547 0.67577 0.0
H991 H 0.64442 0.86313 0.62857 0.0
C992 C 0.50629 0.4571 0.91476 0.0
C993 C 0.49513 0.47099 0.93253 0.0
C994 C 0.48477 0.42634 0.90068 0.0
C995 C 0.45102 0.40976 0.90376 0.0
C996 C 0.43965 0.42395 0.9216 0.0
C997 C 0.46221 0.45438 0.93626 0.0
C998 C 0.49802 0.4117 0.88232 0.0
C999 C 0.40333 0.40743 0.92436 0.0
C1000 C 0.37921 0.35404 0.82506 0.0
C1001 C 0.38166 0.32204 0.84683 0.0
C1002 C 0.40055 0.38259 0.84372 0.0
C1003 C 0.42609 0.37919 0.88498 0.0
C1004 C 0.42885 0.34696 0.90734 0.0
C1005 C 0.4062 0.31856 0.88796 0.0
C1006 C 0.39628 0.41645 0.81895 0.0
C1007 C 0.4564 0.3426 0.95129 0.0
H1008 H 0.5323 0.46994 0.91277 0.0
H1009 H 0.45393 0.46545 0.95018 0.0
H1010 H 0.49882 0.38558 0.89697 0.0
H1011 H 0.47809 0.41091 0.85002 0.0
H1012 H 0.52631 0.42644 0.88512 0.0
H1013 H 0.39939 0.42104 0.94066 0.0
H1014 H 0.3794 0.40632 0.89373 0.0
H1015 H 0.40244 0.38129 0.93987 0.0
H1016 H 0.36084 0.35693 0.79306 0.0
H1017 H 0.40831 0.29382 0.9047 0.0
H1018 H 0.42255 0.43135 0.81681 0.0
H1019 H 0.39113 0.43053 0.83359 0.0
H1020 H 0.37288 0.41441 0.78806 0.0
H1021 H 0.48539 0.35461 0.95503 0.0
H1022 H 0.4539 0.31581 0.96476 0.0
H1023 H 0.45209 0.3552 0.9682 0.0
C1024 C 0.9142 0.81584 0.39642 0.0
C1025 C 0.89302 0.81961 0.3546 0.0
C1026 C 0.93814 0.84404 0.41598 0.0
C1027 C 0.94084 0.87637 0.39292 0.0
C1028 C 0.91924 0.88011 0.35072 0.0
C1029 C 0.89553 0.85173 0.33218 0.0
C1030 C 0.96048 0.83931 0.46112 0.0
C1031 C 0.92156 0.91408 0.32496 0.0
C1032 C 0.97581 0.95708 0.43367 0.0
C1033 C 1.01213 0.96922 0.43734 0.0
C1034 C 0.95302 0.92576 0.42168 0.0
C1035 C 0.96665 0.90663 0.41218 0.0
C1036 C 1.00356 0.91862 0.41639 0.0
C1037 C 1.02595 0.94979 0.42911 0.0
C1038 C 0.91395 0.91366 0.41789 0.0
C1039 C 1.01887 0.89913 0.406 0.0
H1040 H 0.91216 0.79099 0.41373 0.0
H1041 H 0.87931 0.85478 0.29979 0.0
H1042 H 0.99075 0.85119 0.47013 0.0
H1043 H 0.95182 0.85183 0.47394 0.0
H1044 H 0.95661 0.81248 0.47446 0.0
H1045 H 0.9029 0.91253 0.29248 0.0
H1046 H 0.91372 0.93051 0.33387 0.0
H1047 H 0.95077 0.92626 0.3295 0.0
H1048 H 0.96511 0.97216 0.44 0.0
H1049 H 1.05415 0.95913 0.43217 0.0
H1050 H 0.90859 0.88743 0.43294 0.0
H1051 H 0.89309 0.91403 0.38574 0.0
H1052 H 0.90934 0.92947 0.43109 0.0
H1053 H 1.01527 0.87302 0.42179 0.0
H1054 H 1.04904 0.91063 0.41395 0.0
H1055 H 1.00297 0.89793 0.37331 0.0
C1056 C 0.47415 0.62536 0.6037 0.0
C1057 C 0.51331 0.63225 0.6264 0.0
C1058 C 0.45318 0.63833 0.61065 0.0
C1059 C 0.47171 0.65888 0.64094 0.0
C1060 C 0.51112 0.6655 0.66437 0.0
C1061 C 0.5313 0.65213 0.65681 0.0
C1062 C 0.41122 0.63056 0.58501 0.0
C1063 C 0.53214 0.6872 0.69701 0.0
C1064 C 0.42405 0.72102 0.63039 0.0
C1065 C 0.40944 0.70521 0.65796 0.0
C1066 C 0.44441 0.70631 0.62477 0.0
C1067 C 0.45012 0.6747 0.64688 0.0
C1068 C 0.43528 0.65842 0.67456 0.0
C1069 C 0.41527 0.67387 0.67985 0.0
C1070 C 0.45986 0.72467 0.59511 0.0
C1071 C 0.44063 0.62468 0.69867 0.0
H1072 H 0.45988 0.61047 0.57973 0.0
H1073 H 0.56132 0.65728 0.67486 0.0
H1074 H 0.39694 0.61966 0.60431 0.0
H1075 H 0.40314 0.65399 0.56709 0.0
H1076 H 0.40081 0.6128 0.56415 0.0
H1077 H 0.56267 0.68936 0.71313 0.0
H1078 H 0.52806 0.71269 0.68387 0.0
H1079 H 0.52095 0.67678 0.71915 0.0
H1080 H 0.41922 0.74488 0.61269 0.0
H1081 H 0.40459 0.66154 0.70158 0.0
H1082 H 0.44806 0.70926 0.57138 0.0
H1083 H 0.49073 0.72894 0.61049 0.0
H1084 H 0.45339 0.74924 0.58061 0.0
H1085 H 0.42896 0.60627 0.67821 0.0
H1086 H 0.4269 0.61506 0.71851 0.0
H1087 H 0.47096 0.6264 0.71748 0.0
C1088 C 0.58743 0.06698 0.89036 0.0
C1089 C 0.56994 0.0366 0.90639 0.0
C1090 C 0.59614 0.06819 0.86042 0.0
C1091 C 0.58594 0.03829 0.84544 0.0
C1092 C 0.56555 1.008 0.85947 0.0
C1093 C 0.55838 1.00744 0.89033 0.0
C1094 C 0.61773 0.10136 0.84625 0.0
C1095 C 0.55185 0.97584 0.84322 0.0
C1096 C 0.60812 0.07598 0.76139 0.0
C1097 C 0.64664 0.07824 0.78308 0.0
C1098 C 0.58419 0.05575 0.77831 0.0
C1099 C 0.59991 0.03917 0.81796 0.0
C1100 C 0.63595 0.0346 0.83488 0.0
C1101 C 0.65886 0.05376 0.81635 0.0
C1102 C 0.54401 0.05707 0.75661 0.0
C1103 C 0.65256 1.01429 0.87567 0.0
H1104 H 0.59603 0.08947 0.90267 0.0
H1105 H 0.54398 0.98391 0.90212 0.0
H1106 H 0.64371 0.09884 0.84969 0.0
H1107 H 0.60045 0.10947 0.81402 0.0
H1108 H 0.62567 0.12144 0.86313 0.0
H1109 H 0.5223 0.96341 0.83751 0.0
H1110 H 0.55352 0.97964 0.81504 0.0
H1111 H 0.56864 0.95841 0.86617 0.0
H1112 H 0.59754 0.09354 0.73463 0.0
H1113 H 0.68806 0.05366 0.83163 0.0
H1114 H 0.54289 0.08224 0.75581 0.0
H1115 H 0.52697 0.03778 0.77087 0.0
H1116 H 0.53146 0.05311 0.72513 0.0
H1117 H 0.65811 0.02734 0.89904 0.0
H1118 H 0.67928 1.01049 0.88268 0.0
H1119 H 0.63255 0.98947 0.87726 0.0
C1120 C 0.16856 0.46893 0.13152 0.0
C1121 C 0.1431 0.46609 0.09104 0.0
C1122 C 0.19214 0.44746 0.15514 0.0
C1123 C 0.18964 0.42191 0.13825 0.0
C1124 C 0.16383 0.41884 0.09742 0.0
C1125 C 0.14126 0.44119 0.07423 0.0
C1126 C 0.21984 0.45219 0.1982 0.0
C1127 C 0.15955 0.39155 0.07838 0.0
C1128 C 0.2711 0.38275 0.18687 0.0
C1129 C 0.25982 0.35369 0.21038 0.0
C1130 C 0.24886 0.40538 0.16381 0.0
C1131 C 0.21393 0.39836 0.16327 0.0
C1132 C 0.2022 0.36875 0.18657 0.0
C1133 C 0.22549 0.34706 0.21024 0.0
C1134 C 0.26289 0.43695 0.14022 0.0
C1135 C 0.16483 0.35974 0.18619 0.0
H1136 H 0.1703 0.4882 0.14469 0.0
H1137 H 0.12144 0.43858 0.04309 0.0
H1138 H 0.21353 0.42943 0.21863 0.0
H1139 H 0.24861 0.45584 0.20335 0.0
H1140 H 0.21936 0.474 0.20641 0.0
H1141 H 0.13779 0.39217 0.04651 0.0
H1142 H 0.18656 0.39404 0.07981 0.0
H1143 H 0.15187 0.3667 0.09526 0.0
H1144 H 0.29768 0.38812 0.18702 0.0
H1145 H 0.21641 0.32446 0.22802 0.0
H1146 H 0.26414 0.45917 0.14919 0.0
H1147 H 0.24318 0.43735 0.10773 0.0
H1148 H 0.29115 0.43929 0.14479 0.0
H1149 H 0.16405 0.37916 0.19799 0.0
H1150 H 0.15909 0.33511 0.20451 0.0
H1151 H 0.14198 0.35897 0.15494 0.0
C1152 C 0.60943 0.63541 0.78844 0.0
C1153 C 0.61859 0.65675 0.81428 0.0
C1154 C 0.62217 0.64684 0.7594 0.0
C1155 C 0.64484 0.68001 0.75695 0.0
C1156 C 0.6484 0.70293 0.77817 0.0
C1157 C 0.6352 0.69089 0.8068 0.0
C1158 C 0.6147 0.62228 0.73472 0.0
C1159 C 0.6689 0.73952 0.77334 0.0
C1160 C 0.73605 0.69137 0.75875 0.0
C1161 C 0.7337 0.71565 0.72532 0.0
C1162 C 0.70609 0.67794 0.76811 0.0
C1163 C 0.6725 0.68813 0.74209 0.0
C1164 C 0.66891 0.71013 0.70589 0.0
C1165 C 0.7 0.72415 0.69834 0.0
C1166 C 0.71222 0.65593 0.80813 0.0
C1167 C 0.63397 0.72157 0.67656 0.0
H1168 H 0.59566 0.60906 0.79343 0.0
H1169 H 0.64069 0.7076 0.82571 0.0
H1170 H 0.61932 0.63503 0.70796 0.0
H1171 H 0.63341 0.60551 0.75341 0.0
H1172 H 0.58542 0.6062 0.72475 0.0
H1173 H 0.67327 0.75283 0.79585 0.0
H1174 H 0.6965 0.74262 0.77584 0.0
H1175 H 0.65223 0.75183 0.74311 0.0
H1176 H 0.76264 0.68557 0.77977 0.0
H1177 H 0.69871 0.74346 0.67268 0.0
H1178 H 0.69203 0.63088 0.80347 0.0
H1179 H 0.70757 0.667 0.82622 0.0
H1180 H 0.74097 0.65252 0.82585 0.0
H1181 H 0.60995 0.70748 0.68315 0.0
H1182 H 0.62591 0.7191 0.64567 0.0
H1183 H 0.63998 0.74858 0.67683 0.0
C1184 C 0.73879 0.36878 0.20562 0.0
C1185 C 0.73842 0.34877 0.18371 0.0
C1186 C 0.71849 0.39292 0.18637 0.0
C1187 C 0.697 0.39713 0.14407 0.0
C1188 C 0.69695 0.37735 0.1217 0.0
C1189 C 0.71784 0.35357 0.14175 0.0
C1190 C 0.71968 0.41362 0.21141 0.0
C1191 C 0.67411 0.38078 0.07661 0.0
C1192 C 0.61383 0.43304 0.0979 0.0
C1193 C 0.62753 0.46608 0.08245 0.0
C1194 C 0.63616 0.41052 0.11808 0.0
C1195 C 0.67338 0.42121 0.12341 0.0
C1196 C 0.68773 0.4547 0.10872 0.0
C1197 C 0.66461 0.47668 0.08827 0.0
C1198 C 0.61962 0.37505 0.13311 0.0
C1199 C 0.72743 0.46722 0.11431 0.0
H1200 H 0.75511 0.36568 0.23801 0.0
H1201 H 0.71737 0.33821 0.1246 0.0
H1202 H 0.72866 0.44067 0.20073 0.0
H1203 H 0.69124 0.40843 0.2081 0.0
H1204 H 0.73907 0.40834 0.24378 0.0
H1205 H 0.67782 0.36424 0.06348 0.0
H1206 H 0.64395 0.37446 0.06829 0.0
H1207 H 0.68213 0.40707 0.06293 0.0
H1208 H 0.58525 0.42443 0.09361 0.0
H1209 H 0.67556 0.50212 0.07659 0.0
H1210 H 0.63691 0.36909 0.16591 0.0
H1211 H 0.6198 0.35727 0.11852 0.0
H1212 H 0.59038 0.37079 0.12704 0.0
H1213 H 0.74738 0.4633 0.14665 0.0
H1214 H 0.73481 0.49422 0.10235 0.0
H1215 H 0.73124 0.45275 0.09887 0.0
C1216 C 0.98188 0.4797 0.38631 0.0
C1217 C 0.97332 0.4813 0.41518 0.0
C1218 C 0.96343 0.45211 0.36559 0.0
C1219 C 0.93451 0.42629 0.37261 0.0
C1220 C 0.92607 0.42773 0.40213 0.0
C1221 C 0.9462 0.45496 0.42371 0.0
C1222 C 0.97465 0.45081 0.3359 0.0
C1223 C 0.89487 0.40117 0.40983 0.0
C1224 C 0.86099 0.38015 0.28384 0.0
C1225 C 0.87016 0.34976 0.29606 0.0
C1226 C 0.88075 0.40463 0.30923 0.0
C1227 C 0.91147 0.39912 0.34709 0.0
C1228 C 0.92069 0.36825 0.35965 0.0
C1229 C 0.89936 0.34359 0.3342 0.0
C1230 C 0.86906 0.43662 0.29522 0.0
C1231 C 0.95411 0.36189 0.399 0.0
H1232 H 1.00335 0.49991 0.38026 0.0
H1233 H 0.93977 0.4563 0.44619 0.0
H1234 H 0.98129 0.42674 0.3429 0.0
H1235 H 0.95101 0.45205 0.30517 0.0
H1236 H 0.99943 0.47168 0.33606 0.0
H1237 H 0.8924 0.40554 0.43441 0.0
H1238 H 0.86782 0.4007 0.38211 0.0
H1239 H 0.89959 0.3761 0.41772 0.0
H1240 H 0.83813 0.38467 0.25439 0.0
H1241 H 0.90655 0.3201 0.34335 0.0
H1242 H 0.89133 0.45799 0.29046 0.0
H1243 H 0.86534 0.44166 0.31849 0.0
H1244 H 0.84251 0.43565 0.26675 0.0
H1245 H 0.98018 0.37821 0.39715 0.0
H1246 H 0.95502 0.33543 0.40642 0.0
H1247 H 0.95399 0.36829 0.42391 0.0
C1248 C 0.61684 0.593 0.42155 0.0
C1249 C 0.63275 0.58776 0.46455 0.0
C1250 C 0.63752 0.61437 0.39835 0.0
C1251 C 0.6767 0.63312 0.41639 0.0
C1252 C 0.69264 0.62801 0.45961 0.0
C1253 C 0.67156 0.60631 0.48197 0.0
C1254 C 0.61683 0.61667 0.3534 0.0
C1255 C 0.73307 0.64596 0.48312 0.0
C1256 C 0.74466 0.66761 0.36112 0.0
C1257 C 0.74702 0.70252 0.34572 0.0
C1258 C 0.72263 0.6458 0.38255 0.0
C1259 C 0.7006 0.65715 0.39125 0.0
C1260 C 0.70293 0.69237 0.37595 0.0
C1261 C 0.72486 0.71356 0.35416 0.0
C1262 C 0.72297 0.60961 0.39606 0.0
C1263 C 0.68191 0.70831 0.38285 0.0
H1264 H 0.58764 0.57997 0.40537 0.0
H1265 H 0.68625 0.60401 0.5144 0.0
H1266 H 0.61646 0.64301 0.33956 0.0
H1267 H 0.63169 0.60909 0.34286 0.0
H1268 H 0.58751 0.60065 0.3427 0.0
H1269 H 0.74206 0.6415 0.51584 0.0
H1270 H 0.7512 0.63751 0.47807 0.0
H1271 H 0.73762 0.67329 0.47241 0.0
H1272 H 0.76031 0.65671 0.35621 0.0
H1273 H 0.72465 0.73958 0.34377 0.0
H1274 H 0.69382 0.5933 0.38423 0.0
H1275 H 0.7357 0.60413 0.42929 0.0
H1276 H 0.73894 0.60306 0.386 0.0
H1277 H 0.6515 0.69559 0.3684 0.0
H1278 H 0.68618 0.73544 0.37077 0.0
H1279 H 0.69112 0.7051 0.41549 0.0
C1280 C 0.87198 0.35735 0.84547 0.0
C1281 C 0.86494 0.32355 0.86234 0.0
C1282 C 0.89671 0.38255 0.86965 0.0
C1283 C 0.91504 0.37371 0.91186 0.0
C1284 C 0.90823 0.33951 0.92908 0.0
C1285 C 0.88302 0.31482 0.90408 0.0
C1286 C 0.90291 0.41863 0.84996 0.0
C1287 C 0.9276 0.32903 0.97391 0.0
C1288 C 1.00261 0.43731 0.97213 0.0
C1289 C 0.98854 0.4512 0.98692 0.0
C1290 C 0.9791 0.41204 0.94775 0.0
C1291 C 0.94056 0.40035 0.93797 0.0
C1292 C 0.92621 0.41447 0.95269 0.0
C1293 C 0.95042 0.43967 0.97709 0.0
C1294 C 0.99556 0.39786 0.93256 0.0
C1295 C 0.88519 0.40315 0.94236 0.0
H1296 H 0.85754 0.36418 0.81325 0.0
H1297 H 0.87768 0.28867 0.91714 0.0
H1298 H 0.89676 0.43361 0.8626 0.0
H1299 H 0.9327 0.42944 0.85621 0.0
H1300 H 0.88511 0.42137 0.81691 0.0
H1301 H 0.92015 0.30141 0.9825 0.0
H1302 H 0.95844 0.33844 0.98538 0.0
H1303 H 0.9199 0.34029 0.98899 0.0
H1304 H 1.03213 0.44612 0.97972 0.0
H1305 H 0.93945 0.45046 0.98835 0.0
H1306 H 0.98145 0.40185 0.89927 0.0
H1307 H 0.9907 0.37044 0.9426 0.0
H1308 H 1.02614 0.40949 0.94321 0.0
H1309 H 0.86789 0.40716 0.90931 0.0
H1310 H 0.87842 0.41675 0.95601 0.0
H1311 H 0.87701 0.37595 0.95286 0.0
C1312 C 0.88155 0.87215 0.18678 0.0
C1313 C 0.87982 0.83734 0.20209 0.0
C1314 C 0.90305 0.89439 0.16498 0.0
C1315 C 0.9251 0.88359 0.15577 0.0
C1316 C 0.92343 0.84845 0.17099 0.0
C1317 C 0.90202 0.8268 0.19318 0.0
C1318 C 0.90212 0.93044 0.15165 0.0
C1319 C 0.94457 0.83312 0.1635 0.0
C1320 C 0.95236 0.9355 0.06416 0.0
C1321 C 0.99101 0.95446 0.0812 0.0
C1322 C 0.93188 0.9133 0.08693 0.0
C1323 C 0.94834 0.9081 0.13019 0.0
C1324 C 0.98737 0.92728 0.14784 0.0
C1325 C 1.00745 0.94913 0.12422 0.0
C1326 C 0.89153 0.89494 0.06384 0.0
C1327 C 1.0085 0.92493 0.19279 0.0
H1328 H 0.86582 0.88264 0.19208 0.0
H1329 H 0.90263 0.80086 0.20349 0.0
H1330 H 0.93113 0.94707 0.16306 0.0
H1331 H 0.8889 0.93592 0.11841 0.0
H1332 H 0.8863 0.93659 0.16225 0.0
H1333 H 0.94091 0.80604 0.17568 0.0
H1334 H 0.93491 0.83634 0.13076 0.0
H1335 H 0.97488 0.84628 0.17749 0.0
H1336 H 0.93734 0.93785 0.03173 0.0
H1337 H 1.03659 0.96247 0.14008 0.0
H1338 H 0.87336 0.90296 0.06929 0.0
H1339 H 0.88745 0.86763 0.07456 0.0
H1340 H 0.88218 0.89945 0.03103 0.0
H1341 H 0.99367 0.93204 0.20378 0.0
H1342 H 1.03765 0.9413 0.20316 0.0
H1343 H 1.00938 0.89867 0.2065 0.0
C1344 C 0.85837 0.16816 0.8542 0.0
C1345 C 0.8769 0.20104 0.84348 0.0
C1346 C 0.8773 0.14288 0.87551 0.0
C1347 C 0.91588 0.15042 0.88659 0.0
C1348 C 0.93478 0.18356 0.87598 0.0
C1349 C 0.91516 0.20836 0.85464 0.0
C1350 C 0.85595 0.10802 0.88617 0.0
C1351 C 0.97586 0.19288 0.8872 0.0
C1352 C 0.97591 0.09506 0.97329 0.0
C1353 C 0.97911 0.07591 0.95319 0.0
C1354 C 0.95498 0.11882 0.95213 0.0
C1355 C 0.9366 0.12383 0.90958 0.0
C1356 C 0.93895 0.104 0.8891 0.0
C1357 C 0.96011 0.08034 0.91109 0.0
C1358 C 0.9533 0.13912 0.97544 0.0
C1359 C 0.91978 0.10835 0.84384 0.0
H1360 H 0.82886 0.16203 0.84586 0.0
H1361 H 0.92991 0.23357 0.84667 0.0
H1362 H 0.8573 0.08986 0.87306 0.0
H1363 H 0.86902 0.10054 0.91921 0.0
H1364 H 0.82605 0.10607 0.87525 0.0
H1365 H 0.98653 0.21964 0.87667 0.0
H1366 H 0.99251 0.18792 0.92028 0.0
H1367 H 0.98065 0.17718 0.8741 0.0
H1368 H 0.99046 0.09198 1.0058 0.0
H1369 H 0.96248 0.06587 0.89521 0.0
H1370 H 0.9237 0.13631 0.96673 0.0
H1371 H 0.9661 0.16606 0.96812 0.0
H1372 H 0.96816 0.13155 1.00841 0.0
H1373 H 0.88947 0.10525 0.83199 0.0
H1374 H 0.92294 0.09016 0.83239 0.0
H1375 H 0.93173 0.13406 0.83181 0.0
C1376 C 0.78851 0.21994 0.67306 0.0
C1377 C 0.77358 0.23529 0.6851 0.0
C1378 C 0.76504 0.19554 0.64738 0.0
C1379 C 0.72577 0.18624 0.63366 0.0
C1380 C 0.71065 0.20206 0.64554 0.0
C1381 C 0.73477 0.22664 0.67083 0.0
C1382 C 0.78224 0.17972 0.63491 0.0
C1383 C 0.66902 0.19284 0.6318 0.0
C1384 C 0.65986 0.14542 0.53897 0.0
C1385 C 0.65165 0.11141 0.55475 0.0
C1386 C 0.68431 0.16995 0.56426 0.0
C1387 C 0.70044 0.16033 0.60645 0.0
C1388 C 0.69213 0.12599 0.62255 0.0
C1389 C 0.66841 0.1019 0.59649 0.0
C1390 C 0.69276 0.20621 0.54582 0.0
C1391 C 0.70802 0.11471 0.66731 0.0
H1392 H 0.81859 0.2269 0.68398 0.0
H1393 H 0.72317 0.23941 0.67898 0.0
H1394 H 0.77576 0.15229 0.64487 0.0
H1395 H 0.76996 0.18374 0.6017 0.0
H1396 H 0.81316 0.19007 0.64765 0.0
H1397 H 0.66151 0.20892 0.64162 0.0
H1398 H 0.65336 0.19499 0.59861 0.0
H1399 H 0.65953 0.16637 0.64406 0.0
H1400 H 0.64717 0.1529 0.50671 0.0
H1401 H 0.66296 0.0756 0.60885 0.0
H1402 H 0.72346 0.21685 0.55672 0.0
H1403 H 0.68335 0.22094 0.55517 0.0
H1404 H 0.67883 0.20946 0.5125 0.0
H1405 H 0.73909 0.12262 0.68149 0.0
H1406 H 0.69862 0.08713 0.67503 0.0
H1407 H 0.69929 0.12679 0.68054 0.0
C1408 C 0.63289 0.9049 0.42127 0.0
C1409 C 0.60853 0.92432 0.39199 0.0
C1410 C 0.64666 0.88732 0.41034 0.0
C1411 C 0.63574 0.8894 0.36925 0.0
C1412 C 0.60884 0.90673 0.33957 0.0
C1413 C 0.59579 0.92414 0.35137 0.0
C1414 C 0.67513 0.86889 0.44282 0.0
C1415 C 0.59649 0.90959 0.29542 0.0
C1416 C 0.70573 0.89427 0.3374 0.0
C1417 C 0.69236 0.86299 0.32519 0.0
C1418 C 0.68844 0.90249 0.3535 0.0
C1419 C 0.65686 0.87884 0.35732 0.0
C1420 C 0.64395 0.84674 0.34636 0.0
C1421 C 0.66203 0.83911 0.33046 0.0
C1422 C 0.70321 0.93697 0.3651 0.0
C1423 C 0.61029 0.82104 0.34993 0.0
H1424 H 0.64252 0.90472 0.45275 0.0
H1425 H 0.57778 0.93966 0.32872 0.0
H1426 H 0.66937 0.84444 0.43487 0.0
H1427 H 0.70345 0.88386 0.44598 0.0
H1428 H 0.67552 0.86455 0.47229 0.0
H1429 H 0.57195 0.92006 0.27623 0.0
H1430 H 0.61983 0.9263 0.28849 0.0
H1431 H 0.58921 0.88478 0.28737 0.0
H1432 H 0.72973 0.91245 0.33412 0.0
H1433 H 0.65177 0.81487 0.32105 0.0
H1434 H 0.70877 0.93501 0.39638 0.0
H1435 H 0.68187 0.95115 0.34532 0.0
H1436 H 0.72945 0.95155 0.36264 0.0
H1437 H 0.6129 0.81851 0.38009 0.0
H1438 H 0.60656 0.79609 0.34465 0.0
H1439 H 0.58466 0.82936 0.32763 0.0
C1440 C 0.881 0.19831 0.36132 0.0
C1441 C 0.86526 0.20549 0.3193 0.0
C1442 C 0.90303 0.17546 0.38307 0.0
C1443 C 0.90923 0.15901 0.36239 0.0
C1444 C 0.89306 0.16586 0.31994 0.0
C1445 C 0.87145 0.18905 0.29898 0.0
C1446 C 0.92004 0.16921 0.4283 0.0
C1447 C 0.89866 0.14876 0.29661 0.0
C1448 C 0.99478 0.12451 0.42048 0.0
C1449 C 0.97931 0.09051 0.43127 0.0
C1450 C 0.97231 0.14691 0.39787 0.0
C1451 C 0.93322 0.13515 0.38532 0.0
C1452 C 0.91729 0.10077 0.39547 0.0
C1453 C 0.9405 0.07892 0.41845 0.0
C1454 C 0.99056 0.18334 0.38796 0.0
C1455 C 0.87571 0.0871 0.38231 0.0
H1456 H 0.87653 0.21089 0.37736 0.0
H1457 H 0.85924 0.19417 0.26651 0.0
H1458 H 0.91059 0.14222 0.43885 0.0
H1459 H 0.95104 0.17594 0.4415 0.0
H1460 H 0.91245 0.18384 0.43989 0.0
H1461 H 0.88369 0.15639 0.26366 0.0
H1462 H 0.92895 0.15476 0.3057 0.0
H1463 H 0.88854 0.1212 0.30351 0.0
H1464 H 1.02469 0.13384 0.43017 0.0
H1465 H 0.92819 0.05274 0.42643 0.0
H1466 H 0.98606 0.19907 0.40132 0.0
H1467 H 0.9775 0.19127 0.355 0.0
H1468 H 1.02118 0.1884 0.39924 0.0
H1469 H 0.8672 0.09934 0.39557 0.0
H1470 H 0.86745 0.05959 0.39135 0.0
H1471 H 0.8599 0.09286 0.3492 0.0
C1472 C 0.74392 0.17904 0.2054 0.0
C1473 C 0.72843 0.20357 0.20117 0.0
C1474 C 0.7245 0.15624 0.17789 0.0
C1475 C 0.68803 0.15714 0.14647 0.0
C1476 C 0.67247 0.18219 0.14202 0.0
C1477 C 0.69327 0.2056 0.16903 0.0
C1478 C 0.74269 0.1307 0.18303 0.0
C1479 C 0.63322 0.18326 0.11 0.0
C1480 C 0.64566 0.10701 0.06146 0.0
C1481 C 0.62781 0.07604 0.07658 0.0
C1482 C 0.66507 0.134 0.08355 0.0
C1483 C 0.6652 0.1301 0.12069 0.0
C1484 C 0.64513 0.09936 0.13461 0.0
C1485 C 0.62757 0.07254 0.11293 0.0
C1486 C 0.68691 0.16606 0.06821 0.0
C1487 C 0.64306 0.09441 0.17305 0.0
H1488 H 0.77137 0.17787 0.23012 0.0
H1489 H 0.68144 0.22466 0.16601 0.0
H1490 H 0.72766 0.10539 0.1925 0.0
H1491 H 0.74084 0.1303 0.15407 0.0
H1492 H 0.77265 0.13587 0.20583 0.0
H1493 H 0.62616 0.20559 0.10877 0.0
H1494 H 0.62968 0.18328 0.0801 0.0
H1495 H 0.61281 0.16047 0.11611 0.0
H1496 H 0.64606 0.10957 0.03348 0.0
H1497 H 0.61376 0.04856 0.12466 0.0
H1498 H 0.71727 0.17 0.08931 0.0
H1499 H 0.67881 0.18776 0.0668 0.0
H1500 H 0.6825 0.16573 0.03797 0.0
H1501 H 0.67124 0.0952 0.19902 0.0
H1502 H 0.62337 0.07013 0.17762 0.0
H1503 H 0.63389 0.11493 0.1729 0.0
C1504 C 0.67781 0.83015 0.85704 0.0
C1505 C 0.70293 0.8108 0.88457 0.0
C1506 C 0.66129 0.84369 0.86951 0.0
C1507 C 0.67019 0.838 0.91061 0.0
C1508 C 0.69525 0.81825 0.93848 0.0
C1509 C 0.71119 0.8049 0.92517 0.0
C1510 C 0.63451 0.86433 0.83871 0.0
C1511 C 0.70581 0.81169 0.9826 0.0
C1512 C 0.65918 0.89935 0.95158 0.0
C1513 C 0.62604 0.88175 0.95509 0.0
C1514 C 0.67347 0.88564 0.93668 0.0
C1515 C 0.65424 0.85345 0.92478 0.0
C1516 C 0.62045 0.83576 0.92758 0.0
C1517 C 0.60684 0.85003 0.94275 0.0
C1518 C 0.70968 0.90538 0.93452 0.0
C1519 C 0.59884 0.80153 0.91495 0.0
H1520 H 0.67084 0.83457 0.82557 0.0
H1521 H 0.73094 0.79043 0.94685 0.0
H1522 H 0.60723 0.85359 0.83956 0.0
H1523 H 0.6458 0.89017 0.84585 0.0
H1524 H 0.62954 0.8656 0.80778 0.0
H1525 H 0.725 0.79522 1.00031 0.0
H1526 H 0.71971 0.83572 0.99475 0.0
H1527 H 0.68028 0.79977 0.98695 0.0
H1528 H 0.67463 0.92361 0.96154 0.0
H1529 H 0.58101 0.83634 0.94481 0.0
H1530 H 0.70551 0.90863 0.90353 0.0
H1531 H 0.73123 0.89143 0.95439 0.0
H1532 H 0.72059 0.93049 0.94363 0.0
H1533 H 0.59209 0.80257 0.88344 0.0
H1534 H 0.57234 0.79155 0.91748 0.0
H1535 H 0.6163 0.78374 0.9339 0.0
C1536 C 1.0267 0.91144 0.72634 0.0
C1537 C 1.01357 0.88867 0.70038 0.0
C1538 C 1.01793 0.90196 0.75831 0.0
C1539 C 0.99461 0.86963 0.76309 0.0
C1540 C 0.98794 0.84498 0.74211 0.0
C1541 C 0.99759 0.85491 0.71078 0.0
C1542 C 1.02997 0.92761 0.78389 0.0
C1543 C 0.96841 0.80869 0.75058 0.0
C1544 C 0.94228 0.83298 0.82504 0.0
C1545 C 0.90897 0.84232 0.79819 0.0
C1546 C 0.97265 0.8447 0.81631 0.0
C1547 C 0.96854 0.86482 0.77903 0.0
C1548 C 0.93576 0.87631 0.75334 0.0
C1549 C 0.90671 0.86548 0.76392 0.0
C1550 C 1.00726 0.83269 0.84526 0.0
C1551 C 0.92916 0.8967 0.71241 0.0
H1552 H 1.0404 0.93744 0.71947 0.0
H1553 H 0.98957 0.83688 0.69213 0.0
H1554 H 1.0097 0.94293 0.76875 0.0
H1555 H 1.03116 0.9155 0.81371 0.0
H1556 H 1.05789 0.94481 0.78808 0.0
H1557 H 0.98846 0.79694 0.77874 0.0
H1558 H 0.94409 0.80592 0.75468 0.0
H1559 H 0.95883 0.79448 0.72644 0.0
H1560 H 0.94361 0.81458 0.8514 0.0
H1561 H 0.88049 0.87199 0.74304 0.0
H1562 H 1.03209 0.84939 0.84108 0.0
H1563 H 1.00233 0.80714 0.84079 0.0
H1564 H 1.01333 0.8309 0.87671 0.0
H1565 H 0.95079 0.92104 0.71553 0.0
H1566 H 0.90122 0.90179 0.69541 0.0
H1567 H 0.93117 0.88325 0.69437 0.0
C1568 C 0.14927 0.83989 0.8259 0.0
C1569 C 0.18713 0.8406 0.85171 0.0
C1570 C 0.13034 0.85445 0.8339 0.0
C1571 C 0.14959 0.86994 0.86875 0.0
C1572 C 0.18795 0.87126 0.8945 0.0
C1573 C 0.20622 0.85668 0.88566 0.0
C1574 C 0.08954 0.85265 0.80545 0.0
C1575 C 0.20952 0.88739 0.93203 0.0
C1576 C 0.11083 0.93035 0.87778 0.0
C1577 C 0.09316 0.90982 0.90156 0.0
C1578 C 0.12868 0.91762 0.86622 0.0
C1579 C 0.1294 0.88363 0.87925 0.0
C1580 C 0.1117 0.86284 0.90337 0.0
C1581 C 0.09388 0.87617 0.91423 0.0
C1582 C 0.14659 0.94049 0.8399 0.0
C1583 C 0.11157 0.82645 0.91777 0.0
H1584 H 0.13436 0.82789 0.79935 0.0
H1585 H 0.23529 0.857 0.90608 0.0
H1586 H 0.07209 0.83544 0.82025 0.0
H1587 H 0.08465 0.87762 0.79762 0.0
H1588 H 0.07988 0.84357 0.77733 0.0
H1589 H 0.2395 0.88743 0.94819 0.0
H1590 H 0.20788 0.91361 0.92435 0.0
H1591 H 0.19681 0.87381 0.95262 0.0
H1592 H 0.11007 0.95629 0.86754 0.0
H1593 H 0.0807 0.86025 0.93303 0.0
H1594 H 0.13346 0.93038 0.81153 0.0
H1595 H 0.17681 0.94166 0.85512 0.0
H1596 H 0.14375 0.9663 0.83246 0.0
H1597 H 0.09807 0.81317 0.89169 0.0
H1598 H 0.09643 0.8136 0.93617 0.0
H1599 H 0.14078 0.82429 0.93595 0.0
C1600 C 0.98866 0.48622 0.59397 0.0
C1601 C 0.99652 0.51581 0.5693 0.0
C1602 C 0.97976 0.48616 0.62323 0.0
C1603 C 0.97852 0.51655 0.62781 0.0
C1604 C 0.98543 0.5464 0.60226 0.0
C1605 C 0.99414 0.54563 0.57307 0.0
C1606 C 0.97289 0.45358 0.65007 0.0
C1607 C 0.98381 0.5792 0.6054 0.0
C1608 C 0.92683 0.48433 0.68699 0.0
C1609 C 0.95676 0.4778 0.7245 0.0
C1610 C 0.9337 0.50372 0.65464 0.0
C1611 C 0.97105 0.51609 0.66049 0.0
C1612 C 1.0009 0.51644 0.69993 0.0
C1613 C 0.99329 0.49727 0.73189 0.0
C1614 C 0.90112 0.50533 0.6132 0.0
C1615 C 1.04113 0.53164 0.70753 0.0
H1616 H 0.99051 0.46316 0.59125 0.0
H1617 H 0.99997 0.5687 0.55389 0.0
H1618 H 0.99417 0.45597 0.68172 0.0
H1619 H 0.94488 0.44745 0.64829 0.0
H1620 H 0.97426 0.43224 0.64188 0.0
H1621 H 1.00171 0.60067 0.59392 0.0
H1622 H 0.95456 0.58118 0.58675 0.0
H1623 H 0.9927 0.58128 0.63667 0.0
H1624 H 0.89826 0.47042 0.68112 0.0
H1625 H 1.01639 0.49375 0.76137 0.0
H1626 H 0.89605 0.48479 0.5986 0.0
H1627 H 0.90723 0.52944 0.59436 0.0
H1628 H 0.87512 0.50232 0.61443 0.0
H1629 H 1.05004 0.51441 0.70106 0.0
H1630 H 0.06012 0.53583 0.73925 0.0
H1631 H 1.04424 0.55576 0.68748 0.0
C1632 C 0.47636 0.09596 0.46181 0.0
C1633 C 0.50681 0.10208 0.45477 0.0
C1634 C 0.45202 0.11683 0.44103 0.0
C1635 C 0.45919 0.14533 0.41377 0.0
C1636 C 0.4907 0.15216 0.4076 0.0
C1637 C 0.51363 0.13006 0.42752 0.0
C1638 C 0.41813 0.10793 0.44754 0.0
C1639 C 0.50034 0.18293 0.38014 0.0
C1640 C 0.38118 0.1851 0.33047 0.0
C1641 C 0.3858 0.21087 0.34793 0.0
C1642 C 0.4041 0.16299 0.35199 0.0
C1643 C 0.43349 0.16771 0.39127 0.0
C1644 C 0.43858 0.19415 0.40871 0.0
C1645 C 0.41419 0.21498 0.38712 0.0
C1646 C 0.39682 0.13454 0.33268 0.0
C1647 C 0.47046 0.20106 0.4497 0.0
H1648 H 0.4709 0.07419 0.48268 0.0
H1649 H 0.5374 0.13501 0.42234 0.0
H1650 H 0.41922 0.1285 0.45915 0.0
H1651 H 0.39227 0.10475 0.41851 0.0
H1652 H 0.41602 0.08451 0.469 0.0
H1653 H 0.52719 0.18589 0.38077 0.0
H1654 H 0.47777 0.18151 0.34884 0.0
H1655 H 0.50245 0.20565 0.38892 0.0
H1656 H 0.35924 0.18198 0.30011 0.0
H1657 H 0.4182 0.23533 0.40033 0.0
H1658 H 0.39358 0.11044 0.35275 0.0
H1659 H 0.42104 0.1379 0.32804 0.0
H1660 H 0.37125 0.13285 0.30323 0.0
H1661 H 0.46813 0.17891 0.47256 0.0
H1662 H 0.47107 0.223 0.45867 0.0
H1663 H 0.49756 0.20578 0.44995 0.0
C1664 C 0.64704 0.59994 0.08425 0.0
C1665 C 0.61452 0.58332 0.08878 0.0
C1666 C 0.67223 0.62815 0.10299 0.0
C1667 C 0.66381 0.64026 0.12562 0.0
C1668 C 0.63039 0.62378 0.12942 0.0
C1669 C 0.60637 0.59507 0.11139 0.0
C1670 C 0.70817 0.64446 0.09941 0.0
C1671 C 0.62005 0.63643 0.15252 0.0
C1672 C 0.73918 0.69023 0.20945 0.0
C1673 C 0.73734 0.72301 0.19076 0.0
C1674 C 0.71676 0.66326 0.18792 0.0
C1675 C 0.69067 0.66911 0.14714 0.0
C1676 C 0.6887 0.7022 0.12798 0.0
C1677 C 0.71253 0.72892 0.14999 0.0
C1678 C 0.72037 0.62844 0.20916 0.0
C1679 C 0.66048 0.70921 0.08479 0.0
H1680 H 0.65312 0.59041 0.06682 0.0
H1681 H 0.58079 0.58216 0.11427 0.0
H1682 H 0.71047 0.67135 0.08693 0.0
H1683 H 0.73251 0.64306 0.12963 0.0
H1684 H 0.71005 0.63235 0.07997 0.0
H1685 H 0.5918 0.62212 0.15012 0.0
H1686 H 0.64085 0.63454 0.18469 0.0
H1687 H 0.62061 0.66324 0.14128 0.0
H1688 H 0.75781 0.68549 0.24118 0.0
H1689 H 0.71093 0.75427 0.13562 0.0
H1690 H 0.72314 0.61557 0.19117 0.0
H1691 H 0.69474 0.61342 0.21258 0.0
H1692 H 0.74493 0.62871 0.23942 0.0
H1693 H 0.66319 0.6981 0.06518 0.0
H1694 H 0.66376 0.73646 0.0738 0.0
H1695 H 0.6317 0.69735 0.08174 0.0
C1696 C 0.22467 0.19038 0.70419 0.0
C1697 C 0.22841 0.22331 0.68403 0.0
C1698 C 0.20031 0.1633 0.68315 0.0
C1699 C 0.1794 0.16933 0.6409 0.0
C1700 C 0.18388 0.20249 0.62022 0.0
C1701 C 0.20831 0.2292 0.64214 0.0
C1702 C 0.19623 0.1283 0.70629 0.0
C1703 C 0.16232 0.20977 0.57511 0.0
C1704 C 0.13766 0.0945 0.58703 0.0
C1705 C 0.10071 0.08434 0.58128 0.0
C1706 C 0.16337 0.12277 0.60536 0.0
C1707 C 0.15188 0.14087 0.61877 0.0
C1708 C 0.11452 0.13071 0.61293 0.0
C1709 C 0.0893 0.10255 0.5941 0.0
C1710 C 0.20289 0.13299 0.61083 0.0
C1711 C 0.10138 0.14925 0.62716 0.0
H1712 H 0.24019 0.18576 0.73662 0.0
H1713 H 0.21132 0.25469 0.62657 0.0
H1714 H 0.16696 0.11718 0.70186 0.0
H1715 H 0.20211 0.11212 0.6949 0.0
H1716 H 0.21535 0.12787 0.73898 0.0
H1717 H 0.17066 0.23671 0.56342 0.0
H1718 H 0.1668 0.19486 0.56078 0.0
H1719 H 0.13187 0.20228 0.56591 0.0
H1720 H 0.14652 0.0803 0.57723 0.0
H1721 H 0.06068 0.09469 0.58958 0.0
H1722 H 0.22287 0.13068 0.64329 0.0
H1723 H 0.21036 0.15961 0.59779 0.0
H1724 H 0.20667 0.11742 0.59656 0.0
H1725 H 0.11779 0.14819 0.66023 0.0
H1726 H 0.07115 0.13867 0.6193 0.0
H1727 H 0.10623 0.17603 0.61376 0.0
C1728 C 0.66474 0.34297 0.33662 0.0
C1729 C 0.7012 0.34035 0.36483 0.0
C1730 C 0.64523 0.35687 0.34466 0.0
C1731 C 0.66241 0.36837 0.3819 0.0
C1732 C 0.69935 0.3663 0.41019 0.0
C1733 C 0.71827 0.35255 0.40127 0.0
C1734 C 0.60605 0.35891 0.31347 0.0
C1735 C 0.71878 0.3782 0.45026 0.0
C1736 C 0.62634 0.42894 0.39476 0.0
C1737 C 0.6046 0.40745 0.41407 0.0
C1738 C 0.64457 0.41654 0.38333 0.0
C1739 C 0.64159 0.38181 0.39189 0.0
C1740 C 0.61978 0.35999 0.41141 0.0
C1741 C 0.60154 0.37301 0.42211 0.0
C1742 C 0.6672 0.44069 0.36224 0.0
C1743 C 0.61568 0.32279 0.42105 0.0
H1744 H 0.65101 0.33341 0.30854 0.0
H1745 H 0.74664 0.35136 0.42302 0.0
H1746 H 0.58593 0.34386 0.32572 0.0
H1747 H 0.60463 0.38518 0.30575 0.0
H1748 H 0.59693 0.3498 0.28556 0.0
H1749 H 0.74772 0.37531 0.46879 0.0
H1750 H 0.72008 0.40495 0.44574 0.0
H1751 H 0.70251 0.36383 0.46724 0.0
H1752 H 0.62929 0.4556 0.3887 0.0
H1753 H 0.58434 0.35601 0.43631 0.0
H1754 H 0.65676 0.43309 0.33302 0.0
H1755 H 0.69693 0.44007 0.38048 0.0
H1756 H 0.66594 0.46681 0.35677 0.0
H1757 H 0.60364 0.31239 0.39313 0.0
H1758 H 0.5974 0.30912 0.43592 0.0
H1759 H 0.64364 0.31797 0.44105 0.0
C1760 C 0.53758 0.03679 0.11522 0.0
C1761 C 0.53229 1.00703 0.10392 0.0
C1762 C 0.53251 0.0363 0.14753 0.0
C1763 C 0.52113 1.0052 0.16863 0.0
C1764 C 0.51704 0.97502 0.15838 0.0
C1765 C 0.52292 0.97633 0.12621 0.0
C1766 C 0.53782 0.06905 0.15766 0.0
C1767 C 0.50509 0.94122 0.18047 0.0
C1768 C 0.5226 0.98269 0.26847 0.0
C1769 C 0.48404 0.96829 0.25538 0.0
C1770 C 0.53633 0.99936 0.24042 0.0
C1771 C 0.51042 1.00335 0.19929 0.0
C1772 C 0.47206 0.99702 0.18789 0.0
C1773 C 0.45913 0.97942 0.2164 0.0
C1774 C 0.57775 1.00737 0.25411 0.0
C1775 C 0.44387 1.0034 0.14458 0.0
H1776 H 0.54573 0.06074 0.09878 0.0
H1777 H 0.51909 0.95335 0.11779 0.0
H1778 H 0.51048 0.07507 0.14147 0.0
H1779 H 0.5482 0.0678 0.19022 0.0
H1780 H 0.55772 0.08986 0.14823 0.0
H1781 H 0.50615 0.92046 0.17098 0.0
H1782 H 0.52334 0.94056 0.21325 0.0
H1783 H 0.47598 0.93676 0.17487 0.0
H1784 H 0.54189 0.97607 0.2993 0.0
H1785 H 0.42916 0.96977 0.20624 0.0
H1786 H 0.5872 0.03044 0.23599 0.0
H1787 H 0.58356 0.98645 0.2502 0.0
H1788 H 0.59441 1.01045 0.28633 0.0
H1789 H 0.45507 0.0277 0.1294 0.0
H1790 H 0.41709 1.00343 0.14181 0.0
H1791 H 0.43789 0.98338 0.12868 0.0
C1792 C 0.98923 0.61129 0.97142 0.0
C1793 C 0.98787 0.58622 0.95523 0.0
C1794 C 0.96646 0.63346 0.94761 0.0
C1795 C 0.94087 0.63001 0.9068 0.0
C1796 C 0.93848 0.60396 0.89073 0.0
C1797 C 0.96232 0.58274 0.91491 0.0
C1798 C 0.97075 0.66132 0.96581 0.0
C1799 C 0.91108 0.59878 0.84774 0.0
C1800 C 0.86238 0.67396 0.85312 0.0
C1801 C 0.87591 0.70202 0.83023 0.0
C1802 C 0.88284 0.65003 0.87767 0.0
C1803 C 0.91821 0.65475 0.88035 0.0
C1804 C 0.93212 0.68333 0.85765 0.0
C1805 C 0.91066 0.70626 0.83256 0.0
C1806 C 0.86648 0.61956 0.90051 0.0
C1807 C 0.97 0.68999 0.8602 0.0
H1808 H 1.0091 0.61437 1.00243 0.0
H1809 H 0.96087 0.5633 0.90223 0.0
H1810 H 0.98033 0.68588 0.94972 0.0
H1811 H 0.94335 0.66023 0.96236 0.0
H1812 H 0.99119 0.66014 0.99819 0.0
H1813 H 0.91042 0.5758 0.84074 0.0
H1814 H 0.88245 0.59702 0.84149 0.0
H1815 H 0.91882 0.62058 0.82717 0.0
H1816 H 0.83551 0.67045 0.85137 0.0
H1817 H 0.92162 0.72809 0.8154 0.0
H1818 H 0.88521 0.61904 0.93322 0.0
H1819 H 0.86441 0.59651 0.89243 0.0
H1820 H 0.83821 0.61897 0.8943 0.0
H1821 H 0.992 0.69082 0.89184 0.0
H1822 H 0.97739 0.71395 0.84175 0.0
H1823 H 0.97037 0.66936 0.84991 0.0
C1824 C 0.50919 0.36109 0.2181 0.0
C1825 C 0.52525 0.39572 0.21441 0.0
C1826 C 0.49939 0.34475 0.24923 0.0
C1827 C 0.50572 0.36389 0.27627 0.0
C1828 C 0.52986 0.39665 0.27798 0.0
C1829 C 0.53927 0.4125 0.24655 0.0
C1830 C 0.47568 0.30904 0.24814 0.0
C1831 C 0.53964 0.41695 0.30831 0.0
C1832 C 0.4152 0.35692 0.2733 0.0
C1833 C 0.4169 0.33447 0.30795 0.0
C1834 C 0.44456 0.3673 0.26351 0.0
C1835 C 0.4769 0.35535 0.28966 0.0
C1836 C 0.4798 0.33429 0.32621 0.0
C1837 C 0.44946 0.32389 0.33489 0.0
C1838 C 0.43993 0.38999 0.22416 0.0
C1839 C 0.51377 0.32141 0.35539 0.0
H1840 H 0.49928 0.34784 0.19376 0.0
H1841 H 0.55312 0.4391 0.24443 0.0
H1842 H 0.48347 0.29496 0.27894 0.0
H1843 H 0.44593 0.30896 0.23436 0.0
H1844 H 0.47838 0.29607 0.23016 0.0
H1845 H 0.56659 0.43652 0.31399 0.0
H1846 H 0.51747 0.42966 0.29658 0.0
H1847 H 0.54141 0.40066 0.3369 0.0
H1848 H 0.39006 0.3653 0.25286 0.0
H1849 H 0.45068 0.30648 0.36187 0.0
H1850 H 0.44233 0.37803 0.20504 0.0
H1851 H 0.46226 0.4139 0.22984 0.0
H1852 H 0.41243 0.39592 0.20698 0.0
H1853 H 0.50803 0.29571 0.35062 0.0
H1854 H 0.51973 0.31983 0.38677 0.0
H1855 H 0.53905 0.33733 0.3517 0.0
C1856 C 0.4403 0.57701 0.92489 0.0
C1857 C 0.47853 0.58946 0.93477 0.0
C1858 C 0.41608 0.598 0.90311 0.0
C1859 C 0.43048 0.63243 0.89144 0.0
C1860 C 0.46903 0.64512 0.90136 0.0
C1861 C 0.49245 0.62349 0.92257 0.0
C1862 C 0.37505 0.58334 0.89253 0.0
C1863 C 0.48568 0.68169 0.88992 0.0
C1864 C 0.36583 0.68358 0.80491 0.0
C1865 C 0.36024 0.70074 0.82502 0.0
C1866 C 0.38791 0.66083 0.82607 0.0
C1867 C 0.4053 0.65523 0.86856 0.0
C1868 C 0.39952 0.67223 0.88909 0.0
C1869 C 0.37686 0.69459 0.86708 0.0
C1870 C 0.3929 0.64304 0.80288 0.0
C1871 C 0.41795 0.66733 0.93435 0.0
H1872 H 0.42922 0.55076 0.93403 0.0
H1873 H 0.52196 0.63349 0.93025 0.0
H1874 H 0.3671 0.59594 0.90598 0.0
H1875 H 0.35774 0.58778 0.85951 0.0
H1876 H 0.3681 0.55601 0.90316 0.0
H1877 H 0.51629 0.68774 0.90042 0.0
H1878 H 0.47172 0.68869 0.85684 0.0
H1879 H 0.48079 0.6974 0.90292 0.0
H1880 H 0.35288 0.68787 0.77239 0.0
H1881 H 0.37282 0.70778 0.88289 0.0
H1882 H 0.38416 0.61554 0.8115 0.0
H1883 H 0.42291 0.64992 0.81039 0.0
H1884 H 0.37644 0.64928 0.76989 0.0
H1885 H 0.40992 0.64046 0.94623 0.0
H1886 H 0.41018 0.68192 0.94581 0.0
H1887 H 0.44887 0.67512 0.94638 0.0
C1888 C 0.1067 0.57394 0.60329 0.0
C1889 C 0.1201 0.56777 0.58135 0.0
C1890 C 0.12591 0.6016 0.62404 0.0
C1891 C 0.16052 0.62239 0.62481 0.0
C1892 C 0.17388 0.61638 0.60221 0.0
C1893 C 0.15298 0.58954 0.57993 0.0
C1894 C 0.10935 0.60828 0.64551 0.0
C1895 C 0.21084 0.63762 0.60266 0.0
C1896 C 0.20387 0.70612 0.66387 0.0
C1897 C 0.22569 0.69662 0.7048 0.0
C1898 C 0.18269 0.68243 0.63716 0.0
C1899 C 0.18405 0.6486 0.65176 0.0
C1900 C 0.20748 0.63939 0.69288 0.0
C1901 C 0.2275 0.66338 0.71897 0.0
C1902 C 0.15761 0.69363 0.59397 0.0
C1903 C 0.21127 0.60408 0.70945 0.0
H1904 H 0.08097 0.55728 0.60392 0.0
H1905 H 0.16315 0.58471 0.56277 0.0
H1906 H 0.12614 0.60229 0.6784 0.0
H1907 H 0.11023 0.63517 0.63866 0.0
H1908 H 0.07985 0.59307 0.63694 0.0
H1909 H 0.21727 0.62975 0.58344 0.0
H1910 H 0.21049 0.66427 0.59208 0.0
H1911 H 0.23379 0.63599 0.63384 0.0
H1912 H 0.2023 0.73184 0.65294 0.0
H1913 H 0.24478 0.65613 0.75058 0.0
H1914 H 0.12976 0.69046 0.59094 0.0
H1915 H 0.15356 0.67882 0.57314 0.0
H1916 H 0.16893 0.72054 0.58457 0.0
H1917 H 0.18421 0.58678 0.70787 0.0
H1918 H 0.23321 0.60176 0.74116 0.0
H1919 H 0.21832 0.5958 0.69113 0.0
C1920 C 0.39492 0.32862 0.68738 0.0
C1921 C 0.37241 0.33948 0.69551 0.0
C1922 C 0.41701 0.34994 0.6658 0.0
C1923 C 0.41918 0.38513 0.65041 0.0
C1924 C 0.39678 0.39629 0.65878 0.0
C1925 C 0.37459 0.37435 0.68 0.0
C1926 C 0.43838 0.33418 0.65919 0.0
C1927 C 0.3962 0.43242 0.64514 0.0
C1928 C 0.5033 0.44965 0.62084 0.0
C1929 C 0.48769 0.45488 0.57787 0.0
C1930 C 0.48241 0.42818 0.6438 0.0
C1931 C 0.44329 0.4093 0.62553 0.0
C1932 C 0.42765 0.41441 0.58234 0.0
C1933 C 0.44893 0.43621 0.56021 0.0
C1934 C 0.5028 0.42591 0.68874 0.0
C1935 C 0.38733 0.39635 0.55859 0.0
H1936 H 0.39528 0.30263 0.69787 0.0
H1937 H 0.35868 0.38512 0.68468 0.0
H1938 H 0.42945 0.33747 0.62661 0.0
H1939 H 0.46875 0.34697 0.6739 0.0
H1940 H 0.43414 0.30704 0.67122 0.0
H1941 H 0.38005 0.43886 0.65504 0.0
H1942 H 0.42529 0.44887 0.65701 0.0
H1943 H 0.38355 0.43785 0.61191 0.0
H1944 H 0.53243 0.46276 0.63718 0.0
H1945 H 0.43445 0.43849 0.52778 0.0
H1946 H 0.50328 0.39961 0.70265 0.0
H1947 H 0.48765 0.43337 0.69902 0.0
H1948 H 0.53207 0.44205 0.69962 0.0
H1949 H 0.38285 0.36903 0.56935 0.0
H1950 H 0.37858 0.40079 0.52593 0.0
H1951 H 0.36895 0.40471 0.56335 0.0
C1952 C 0.25454 0.6981 0.20026 0.0
C1953 C 0.26335 0.73169 0.18318 0.0
C1954 C 0.23092 0.67268 0.17613 0.0
C1955 C 0.21489 0.68109 0.13382 0.0
C1956 C 0.22297 0.7151 0.11641 0.0
C1957 C 0.24743 0.73997 0.14133 0.0
C1958 C 0.22372 0.63673 0.19594 0.0
C1959 C 0.20594 0.72518 0.07144 0.0
C1960 C 0.18158 0.61373 0.07104 0.0
C1961 C 0.14304 0.60297 0.05924 0.0
C1962 C 0.2053 0.63906 0.09539 0.0
C1963 C 0.19001 0.65423 0.10785 0.0
C1964 C 0.15103 0.64342 0.09592 0.0
C1965 C 0.12806 0.61789 0.07185 0.0
C1966 C 0.24679 0.64935 0.10812 0.0
C1967 C 0.13354 0.65887 0.10847 0.0
H1968 H 0.26686 0.69154 0.23266 0.0
H1969 H 0.25409 0.76592 0.12807 0.0
H1970 H 0.2319 0.62159 0.18568 0.0
H1971 H 0.23944 0.63425 0.2292 0.0
H1972 H 0.19336 0.62591 0.18706 0.0
H1973 H 0.21401 0.75274 0.06262 0.0
H1974 H 0.21501 0.71331 0.0584 0.0
H1975 H 0.17492 0.71616 0.05808 0.0
H1976 H 0.19325 0.60213 0.0615 0.0
H1977 H 0.09823 0.60971 0.0627 0.0
H1978 H 0.26271 0.64575 0.14136 0.0
H1979 H 0.2559 0.67634 0.09735 0.0
H1980 H 0.25433 0.63481 0.09637 0.0
H1981 H 0.146 0.65504 0.14168 0.0
H1982 H 0.1027 0.64805 0.09608 0.0
H1983 H 0.1395 0.68628 0.09825 0.0
C1984 C 0.71964 0.34371 0.69299 0.0
C1985 C 0.75793 0.35234 0.70358 0.0
C1986 C 0.69865 0.36741 0.67133 0.0
C1987 C 0.71611 0.40082 0.65972 0.0
C1988 C 0.75472 0.40972 0.67014 0.0
C1989 C 0.77511 0.38547 0.69189 0.0
C1990 C 0.65762 0.35663 0.66091 0.0
C1991 C 0.77451 0.44492 0.65826 0.0
C1992 C 0.65071 0.4515 0.57235 0.0
C1993 C 0.64629 0.47002 0.59207 0.0
C1994 C 0.67412 0.42978 0.59381 0.0
C1995 C 0.69369 0.42613 0.6363 0.0
C1996 C 0.69013 0.44542 0.65636 0.0
C1997 C 0.66657 0.4671 0.63407 0.0
C1998 C 0.67691 0.40992 0.57093 0.0
C1999 C 0.71039 0.4424 0.70154 0.0
H2000 H 0.7059 0.31829 0.7017 0.0
H2001 H 0.80463 0.39258 0.69987 0.0
H2002 H 0.65214 0.37207 0.67365 0.0
H2003 H 0.64038 0.36071 0.62786 0.0
H2004 H 0.64821 0.32984 0.67235 0.0
H2005 H 0.80462 0.44797 0.66876 0.0
H2006 H 0.76076 0.45166 0.62513 0.0
H2007 H 0.77238 0.46289 0.67092 0.0
H2008 H 0.63529 0.4535 0.53993 0.0
H2009 H 0.66334 0.48116 0.64967 0.0
H2010 H 0.6631 0.38303 0.57701 0.0
H2011 H 0.70668 0.41214 0.58102 0.0
H2012 H 0.66338 0.41825 0.53802 0.0
H2013 H 0.69992 0.41664 0.71477 0.0
H2014 H 0.70648 0.46039 0.71255 0.0
H2015 H 0.74082 0.44677 0.71261 0.0
C2016 C 0.94102 0.67109 0.20991 0.0
C2017 C 0.95482 0.67742 0.24863 0.0
C2018 C 0.96181 0.66035 0.20059 0.0
C2019 C 0.99737 0.65592 0.23076 0.0
C2020 C 1.0126 0.66447 0.2692 0.0
C2021 C 0.99105 0.67517 0.27773 0.0
C2022 C 0.94458 0.65163 0.15915 0.0
C2023 C 1.05055 0.66031 0.30199 0.0
C2024 C 1.01759 0.58632 0.21528 0.0
C2025 C 1.03908 0.604 0.19477 0.0
C2026 C 1.00601 0.60307 0.22963 0.0
C2027 C 1.01592 0.63847 0.22305 0.0
C2028 C 1.03947 0.65657 0.20453 0.0
C2029 C 1.05078 0.63909 0.19052 0.0
C2030 C 0.98131 0.58275 0.24973 0.0
C2031 C 1.05097 0.69435 0.19748 0.0
H2032 H 0.91323 0.6734 0.18722 0.0
H2033 H 1.00172 0.68003 0.30773 0.0
H2034 H 0.96455 0.6639 0.14629 0.0
H2035 H 0.93822 0.62419 0.16113 0.0
H2036 H 0.91822 0.65925 0.13823 0.0
H2037 H 0.06095 0.67316 0.32762 0.0
H2038 H 1.04864 0.6333 0.31332 0.0
H2039 H 0.07137 0.67024 0.29026 0.0
H2040 H 1.00909 0.5592 0.21948 0.0
H2041 H 0.06731 0.65298 0.17462 0.0
H2042 H 0.95264 0.58603 0.22997 0.0
H2043 H 0.99211 0.59159 0.2783 0.0
H2044 H 0.9794 0.55561 0.25618 0.0
H2045 H 1.0266 0.70357 0.17294 0.0
H2046 H 0.07405 0.7045 0.18892 0.0
H2047 H 0.06006 0.70439 0.22472 0.0
C2048 C 0.97098 0.7005 0.5189 0.0
C2049 C 0.99547 0.6799 0.54279 0.0
C2050 C 0.95858 0.71432 0.53577 0.0
C2051 C 0.97101 0.70768 0.57775 0.0
C2052 C 0.99638 0.68764 0.60222 0.0
C2053 C 1.00829 0.67408 0.58454 0.0
C2054 C 0.93147 0.73546 0.50844 0.0
C2055 C 1.0105 0.68002 0.64711 0.0
C2056 C 0.96053 0.76511 0.62444 0.0
C2057 C 0.92773 0.74628 0.6282 0.0
C2058 C 0.97515 0.75279 0.60851 0.0
C2059 C 0.95654 0.72086 0.59584 0.0
C2060 C 0.9236 0.70165 0.59982 0.0
C2061 C 0.90967 0.71453 0.61593 0.0
C2062 C 1.01033 0.77413 0.60485 0.0
C2063 C 0.90266 0.66763 0.58643 0.0
H2064 H 0.9615 0.70604 0.48679 0.0
H2065 H 1.02713 0.65831 0.60358 0.0
H2066 H 0.90382 0.72199 0.50795 0.0
H2067 H 0.94134 0.75934 0.51982 0.0
H2068 H 0.92756 0.74123 0.47718 0.0
H2069 H 1.03119 0.66507 0.66215 0.0
H2070 H 1.02376 0.70366 0.66 0.0
H2071 H 0.98664 0.66589 0.65407 0.0
H2072 H 0.97495 0.7895 0.63417 0.0
H2073 H 0.88401 0.69997 0.61804 0.0
H2074 H 1.00422 0.78017 0.57284 0.0
H2075 H 1.03194 0.76011 0.62094 0.0
H2076 H 1.02212 0.79793 0.61714 0.0
H2077 H 0.89292 0.67005 0.55379 0.0
H2078 H 0.87797 0.65549 0.59236 0.0
H2079 H 0.92157 0.65096 0.6021 0.0
C2080 C 0.47632 0.59665 0.46948 0.0
C2081 C 0.4764 0.57433 0.45059 0.0
C2082 C 0.45477 0.61988 0.44756 0.0
C2083 C 0.43225 0.62089 0.40549 0.0
C2084 C 0.43112 0.59761 0.38642 0.0
C2085 C 0.45332 0.57478 0.4091 0.0
C2086 C 0.45717 0.64415 0.46936 0.0
C2087 C 0.40714 0.59737 0.34182 0.0
C2088 C 0.35675 0.66804 0.35418 0.0
C2089 C 0.37408 0.699 0.3381 0.0
C2090 C 0.3749 0.6422 0.3754 0.0
C2091 C 0.41162 0.64745 0.38137 0.0
C2092 C 0.4292 0.67865 0.36517 0.0
C2093 C 0.41019 0.70383 0.34358 0.0
C2094 C 0.35479 0.6093 0.39155 0.0
C2095 C 0.46843 0.68567 0.37117 0.0
H2096 H 0.49402 0.59668 0.50149 0.0
H2097 H 0.45309 0.55771 0.39416 0.0
H2098 H 0.46959 0.67008 0.45829 0.0
H2099 H 0.42874 0.64293 0.46315 0.0
H2100 H 0.47448 0.63908 0.50236 0.0
H2101 H 0.40701 0.57617 0.33197 0.0
H2102 H 0.37787 0.59575 0.3332 0.0
H2103 H 0.41772 0.62112 0.32537 0.0
H2104 H 0.32876 0.66384 0.34993 0.0
H2105 H 0.42398 0.72761 0.33149 0.0
H2106 H 0.37041 0.60487 0.42478 0.0
H2107 H 0.35371 0.58842 0.38041 0.0
H2108 H 0.32572 0.60855 0.3828 0.0
H2109 H 0.4882 0.68342 0.40371 0.0
H2110 H 0.47815 0.71106 0.35653 0.0
H2111 H 0.46967 0.66691 0.3588 0.0
C2112 C 0.13081 0.3553 0.78403 0.0
C2113 C 0.16898 0.37134 0.79565 0.0
C2114 C 0.11009 0.36563 0.7942 0.0
C2115 C 0.12797 0.39274 0.81618 0.0
C2116 C 0.1663 0.40933 0.82731 0.0
C2117 C 0.18629 0.3984 0.81698 0.0
C2118 C 0.06927 0.3474 0.78184 0.0
C2119 C 0.18634 0.43864 0.85029 0.0
C2120 C 0.07801 0.44541 0.81935 0.0
C2121 C 0.08169 0.43453 0.8584 0.0
C2122 C 0.0903 0.43026 0.80388 0.0
C2123 C 0.10726 0.40391 0.82832 0.0
C2124 C 0.10887 0.39142 0.86681 0.0
C2125 C 0.09604 0.40687 0.88138 0.0
C2126 C 0.0876 0.44422 0.76252 0.0
C2127 C 0.12634 0.36311 0.89364 0.0
H2128 H 0.11736 0.33432 0.76762 0.0
H2129 H 0.21557 0.41132 0.82532 0.0
H2130 H 0.06492 0.33576 0.80891 0.0
H2131 H 1.05182 0.36531 0.7641 0.0
H2132 H 1.05919 0.32754 0.76373 0.0
H2133 H 0.2161 0.44904 0.8562 0.0
H2134 H 0.17197 0.45885 0.83321 0.0
H2135 H 0.1855 0.4308 0.87946 0.0
H2136 H 0.06742 0.46702 0.80157 0.0
H2137 H 0.09838 0.398 0.91133 0.0
H2138 H 0.07928 0.42388 0.7459 0.0
H2139 H 0.11546 0.46043 0.76534 0.0
H2140 H 0.06711 0.45945 0.74458 0.0
H2141 H 0.11528 0.34213 0.87681 0.0
H2142 H 0.12111 0.35352 0.9203 0.0
H2143 H 0.15708 0.37199 0.90419 0.0
C2144 C 0.20211 0.3548 0.3847 0.0
C2145 C 0.20407 0.3214 0.39594 0.0
C2146 C 0.18236 0.36586 0.39553 0.0
C2147 C 0.16494 0.34337 0.41929 0.0
C2148 C 0.16615 0.30956 0.43016 0.0
C2149 C 0.18497 0.29891 0.41775 0.0
C2150 C 0.18096 0.40191 0.38235 0.0
C2151 C 0.1486 0.2848 0.45607 0.0
C2152 C 0.15217 0.37997 0.48544 0.0
C2153 C 0.11347 0.37713 0.46501 0.0
C2154 C 0.16908 0.36901 0.47098 0.0
C2155 C 0.14713 0.35551 0.43453 0.0
C2156 C 0.10827 0.35327 0.41316 0.0
C2157 C 0.09189 0.36377 0.42878 0.0
C2158 C 0.21054 0.37165 0.49502 0.0
C2159 C 0.08394 0.33966 0.3738 0.0
H2160 H 0.21688 0.37275 0.36833 0.0
H2161 H 0.18498 0.27283 0.42569 0.0
H2162 H 0.15167 0.4033 0.36839 0.0
H2163 H 0.19745 0.41523 0.40881 0.0
H2164 H 0.19237 0.41528 0.36055 0.0
H2165 H 0.15145 0.25927 0.46144 0.0
H2166 H 0.16209 0.29333 0.48551 0.0
H2167 H 0.11841 0.28338 0.44182 0.0
H2168 H 0.16955 0.39105 0.51279 0.0
H2169 H 0.06198 0.36104 0.41273 0.0
H2170 H 0.22515 0.38795 0.47688 0.0
H2171 H 0.21522 0.34657 0.50271 0.0
H2172 H 0.22355 0.38201 0.52324 0.0
H2173 H 0.09574 0.35378 0.3525 0.0
H2174 H 1.05465 0.34113 0.3598 0.0
H2175 H 0.08348 0.31313 0.37856 0.0
loop_
_geom_bond_atom_site_label_1
_geom_bond_atom_site_label_2
_geom_bond_distance
_geom_bond_site_symmetry_2
_ccdc_geom_bond_type
Tb0 C2 2.809 . S
Tb0 O20 2.484 1_655 S
Tb0 O21 2.440 . S
Tb0 O22 2.658 1_556 S
Tb0 O23 2.409 . S
Tb0 O24 2.378 1_656 S
Tb0 O28 2.325 1_665 S
Tb0 O31 2.341 1_565 S
Tb1 C11 2.826 . S
Tb1 O22 2.325 1_445 S
Tb1 O25 2.341 1_545 S
Tb1 O26 2.484 1_455 S
Tb1 O27 2.440 . S
Tb1 O28 2.658 1_554 S
Tb1 O29 2.409 . S
Tb1 O30 2.378 1_454 S
C2 Tb0 2.809 . S
C2 C3 1.513 1_655 S
C2 O20 1.248 1_655 S
C2 O21 1.266 . S
C3 C2 1.513 1_455 S
C3 C4 1.359 . S
C3 C8 1.348 1_455 S
C4 C3 1.359 . S
C4 C5 1.380 . S
C4 H32 0.929 . S
C5 C4 1.380 . S
C5 C6 1.347 . S
C5 H33 0.931 . S
C6 C5 1.347 . S
C6 C7 1.369 . S
C7 C6 1.369 . S
C7 C8 1.408 1_455 S
C7 H34 0.930 1_455 S
C8 C3 1.348 1_655 S
C8 C7 1.408 1_655 S
C8 H35 0.930 . S
C9 O22 1.281 . S
C9 O23 1.254 1_554 S
C10 O24 1.236 . S
C10 O25 1.266 . S
C11 Tb1 2.826 . S
C11 C12 1.497 1_455 S
C11 O26 1.244 1_455 S
C11 O27 1.287 . S
C12 C11 1.497 1_655 S
C12 C13 1.359 . S
C12 C17 1.348 1_655 S
C13 C12 1.359 . S
C13 C14 1.380 . S
C13 H36 0.929 . S
C14 C13 1.380 . S
C14 C15 1.347 . S
C14 H37 0.931 . S
C15 C14 1.347 . S
C15 C16 1.369 . S
C16 C15 1.369 . S
C16 C17 1.408 1_655 S
C16 H38 0.930 1_655 S
C17 C12 1.348 1_455 S
C17 C16 1.408 1_455 S
C17 H39 0.930 . S
C18 O28 1.281 . S
C18 O29 1.254 1_556 S
C19 O30 1.236 . S
C19 O31 1.266 . S
O20 Tb0 2.484 1_455 S
O20 C2 1.248 1_455 S
O21 Tb0 2.440 . S
O21 C2 1.266 . S
O22 Tb0 2.658 1_554 S
O22 Tb1 2.325 1_665 S
O22 C9 1.281 . S
O23 Tb0 2.409 . S
O23 C9 1.254 1_556 S
O24 Tb0 2.378 1_454 S
O24 C10 1.236 . S
O25 Tb1 2.341 1_565 S
O25 C10 1.266 . S
O26 Tb1 2.484 1_655 S
O26 C11 1.244 1_655 S
O27 Tb1 2.440 . S
O27 C11 1.287 . S
O28 Tb0 2.325 1_445 S
O28 Tb1 2.658 1_556 S
O28 C18 1.281 . S
O29 Tb1 2.409 . S
O29 C18 1.254 1_554 S
O30 Tb1 2.378 1_656 S
O30 C19 1.236 . S
O31 Tb0 2.341 1_545 S
O31 C19 1.266 . S
H32 C4 0.929 . S
H33 C5 0.931 . S
H34 C7 0.930 1_655 S
H35 C8 0.930 . S
H36 C13 0.929 . S
H37 C14 0.931 . S
H38 C16 0.930 1_455 S
H39 C17 0.930 . S
Tb40 C42 2.809 . S
Tb40 O60 2.484 . S
Tb40 O61 2.440 . S
Tb40 O62 2.658 . S
Tb40 O63 2.409 . S
Tb40 O64 2.378 . S
Tb40 O68 2.325 . S
Tb40 O71 2.341 . S
Tb41 C51 2.809 . S
Tb41 O62 2.325 . S
Tb41 O65 2.341 . S
Tb41 O66 2.484 . S
Tb41 O67 2.440 . S
Tb41 O68 2.658 . S
Tb41 O69 2.409 . S
Tb41 O70 2.378 . S
C42 Tb40 2.809 . S
C42 C43 1.514 . S
C42 O60 1.248 . S
C42 O61 1.266 . S
C43 C42 1.514 . S
C43 C44 1.359 . S
C43 C48 1.348 . S
C44 C43 1.359 . S
C44 C45 1.380 . S
C44 H72 0.929 . S
C45 C44 1.380 . S
C45 C46 1.347 . S
C45 H73 0.931 . S
C46 C45 1.347 . S
C46 C47 1.369 . S
C47 C46 1.369 . S
C47 C48 1.408 . S
C47 H74 0.930 . S
C48 C43 1.348 . S
C48 C47 1.408 . S
C48 H75 0.930 . S
C49 O62 1.281 . S
C49 O63 1.254 . S
C50 O64 1.236 . S
C50 O65 1.266 . S
C51 Tb41 2.809 . S
C51 C52 1.514 . S
C51 O66 1.248 . S
C51 O67 1.266 . S
C52 C51 1.514 . S
C52 C53 1.359 . S
C52 C57 1.348 . S
C53 C52 1.359 . S
C53 C54 1.380 . S
C53 H76 0.929 . S
C54 C53 1.380 . S
C54 C55 1.347 . S
C54 H77 0.931 . S
C55 C54 1.347 . S
C55 C56 1.369 . S
C56 C55 1.369 . S
C56 C57 1.408 . S
C56 H78 0.930 . S
C57 C52 1.348 . S
C57 C56 1.408 . S
C57 H79 0.930 . S
C58 O68 1.281 . S
C58 O69 1.254 . S
C59 O70 1.236 . S
C59 O71 1.266 . S
O60 Tb40 2.484 . S
O60 C42 1.248 . S
O61 Tb40 2.440 . S
O61 C42 1.266 . S
O62 Tb40 2.658 . S
O62 Tb41 2.325 . S
O62 C49 1.281 . S
O63 Tb40 2.409 . S
O63 C49 1.254 . S
O64 Tb40 2.378 . S
O64 C50 1.236 . S
O65 Tb41 2.341 . S
O65 C50 1.266 . S
O66 Tb41 2.484 . S
O66 C51 1.248 . S
O67 Tb41 2.440 . S
O67 C51 1.266 . S
O68 Tb40 2.325 . S
O68 Tb41 2.658 . S
O68 C58 1.281 . S
O69 Tb41 2.409 . S
O69 C58 1.254 . S
O70 Tb41 2.378 . S
O70 C59 1.236 . S
O71 Tb40 2.341 . S
O71 C59 1.266 . S
H72 C44 0.929 . S
H73 C45 0.931 . S
H74 C47 0.930 . S
H75 C48 0.930 . S
H76 C53 0.929 . S
H77 C54 0.931 . S
H78 C56 0.930 . S
H79 C57 0.930 . S
Tb80 C82 2.809 1_565 S
Tb80 O100 2.484 1_565 S
Tb80 O101 2.440 . S
Tb80 O102 2.658 . S
Tb80 O103 2.409 . S
Tb80 O104 2.378 1_565 S
Tb80 O108 2.325 1_565 S
Tb80 O111 2.341 . S
Tb81 C91 2.809 1_545 S
Tb81 O102 2.325 1_545 S
Tb81 O105 2.341 . S
Tb81 O106 2.484 1_545 S
Tb81 O107 2.440 . S
Tb81 O108 2.658 . S
Tb81 O109 2.409 . S
Tb81 O110 2.378 1_545 S
C82 Tb80 2.809 1_545 S
C82 C83 1.514 . S
C82 O100 1.248 . S
C82 O101 1.266 1_545 S
C83 C82 1.514 . S
C83 C84 1.359 . S
C83 C88 1.348 . S
C84 C83 1.359 . S
C84 C85 1.380 . S
C84 H112 0.929 . S
C85 C84 1.380 . S
C85 C86 1.347 . S
C85 H113 0.931 . S
C86 C85 1.347 . S
C86 C87 1.369 . S
C87 C86 1.369 . S
C87 C88 1.408 . S
C87 H114 0.930 . S
C88 C83 1.348 . S
C88 C87 1.408 . S
C88 H115 0.930 1_545 S
C89 O102 1.281 . S
C89 O103 1.254 . S
C90 O104 1.236 . S
C90 O105 1.266 . S
C91 Tb81 2.809 1_565 S
C91 C92 1.514 . S
C91 O106 1.248 . S
C91 O107 1.266 1_565 S
C92 C91 1.514 . S
C92 C93 1.359 . S
C92 C97 1.348 . S
C93 C92 1.359 . S
C93 C94 1.380 . S
C93 H116 0.929 . S
C94 C93 1.380 . S
C94 C95 1.347 . S
C94 H117 0.931 . S
C95 C94 1.347 . S
C95 C96 1.369 . S
C96 C95 1.369 . S
C96 C97 1.408 . S
C96 H118 0.930 . S
C97 C92 1.348 . S
C97 C96 1.408 . S
C97 H119 0.930 1_565 S
C98 O108 1.281 . S
C98 O109 1.254 . S
C99 O110 1.236 . S
C99 O111 1.266 . S
O100 Tb80 2.484 1_545 S
O100 C82 1.248 . S
O101 Tb80 2.440 . S
O101 C82 1.266 1_565 S
O102 Tb80 2.658 . S
O102 Tb81 2.325 1_565 S
O102 C89 1.281 . S
O103 Tb80 2.409 . S
O103 C89 1.254 . S
O104 Tb80 2.378 1_545 S
O104 C90 1.236 . S
O105 Tb81 2.341 . S
O105 C90 1.266 . S
O106 Tb81 2.484 1_565 S
O106 C91 1.248 . S
O107 Tb81 2.440 . S
O107 C91 1.266 1_545 S
O108 Tb80 2.325 1_545 S
O108 Tb81 2.658 . S
O108 C98 1.281 . S
O109 Tb81 2.409 . S
O109 C98 1.254 . S
O110 Tb81 2.378 1_565 S
O110 C99 1.236 . S
O111 Tb80 2.341 . S
O111 C99 1.266 . S
H112 C84 0.929 . S
H113 C85 0.931 . S
H114 C87 0.930 . S
H115 C88 0.930 1_565 S
H116 C93 0.929 . S
H117 C94 0.931 . S
H118 C96 0.930 . S
H119 C97 0.930 1_545 S
Tb120 C122 2.809 . S
Tb120 O140 2.484 . S
Tb120 O141 2.440 . S
Tb120 O142 2.658 . S
Tb120 O143 2.409 . S
Tb120 O144 2.378 . S
Tb120 O148 2.325 . S
Tb120 O151 2.341 . S
Tb121 C131 2.809 . S
Tb121 O142 2.325 . S
Tb121 O145 2.341 . S
Tb121 O146 2.484 . S
Tb121 O147 2.440 . S
Tb121 O148 2.658 . S
Tb121 O149 2.409 . S
Tb121 O150 2.378 . S
C122 Tb120 2.809 . S
C122 C123 1.514 . S
C122 O140 1.248 . S
C122 O141 1.266 . S
C123 C122 1.514 . S
C123 C124 1.359 . S
C123 C128 1.348 . S
C124 C123 1.359 . S
C124 C125 1.380 . S
C124 H152 0.929 . S
C125 C124 1.380 . S
C125 C126 1.347 . S
C125 H153 0.931 . S
C126 C125 1.347 . S
C126 C127 1.369 . S
C127 C126 1.369 . S
C127 C128 1.408 . S
C127 H154 0.930 . S
C128 C123 1.348 . S
C128 C127 1.408 . S
C128 H155 0.930 . S
C129 O142 1.281 . S
C129 O143 1.254 . S
C130 O144 1.236 . S
C130 O145 1.266 . S
C131 Tb121 2.809 . S
C131 C132 1.514 . S
C131 O146 1.248 . S
C131 O147 1.266 . S
C132 C131 1.514 . S
C132 C133 1.359 . S
C132 C137 1.348 . S
C133 C132 1.359 . S
C133 C134 1.380 . S
C133 H156 0.929 . S
C134 C133 1.380 . S
C134 C135 1.347 . S
C134 H157 0.931 . S
C135 C134 1.347 . S
C135 C136 1.369 . S
C136 C135 1.369 . S
C136 C137 1.408 . S
C136 H158 0.930 . S
C137 C132 1.348 . S
C137 C136 1.408 . S
C137 H159 0.930 . S
C138 O148 1.281 . S
C138 O149 1.254 . S
C139 O150 1.236 . S
C139 O151 1.266 . S
O140 Tb120 2.484 . S
O140 C122 1.248 . S
O141 Tb120 2.440 . S
O141 C122 1.266 . S
O142 Tb120 2.658 . S
O142 Tb121 2.325 . S
O142 C129 1.281 . S
O143 Tb120 2.409 . S
O143 C129 1.254 . S
O144 Tb120 2.378 . S
O144 C130 1.236 . S
O145 Tb121 2.341 . S
O145 C130 1.266 . S
O146 Tb121 2.484 . S
O146 C131 1.248 . S
O147 Tb121 2.440 . S
O147 C131 1.266 . S
O148 Tb120 2.325 . S
O148 Tb121 2.658 . S
O148 C138 1.281 . S
O149 Tb121 2.409 . S
O149 C138 1.254 . S
O150 Tb121 2.378 . S
O150 C139 1.236 . S
O151 Tb120 2.341 . S
O151 C139 1.266 . S
H152 C124 0.929 . S
H153 C125 0.931 . S
H154 C127 0.930 . S
H155 C128 0.930 . S
H156 C133 0.929 . S
H157 C134 0.931 . S
H158 C136 0.930 . S
H159 C137 0.930 . S
Tb160 C162 2.809 . S
Tb160 O180 2.484 . S
Tb160 O181 2.440 . S
Tb160 O182 2.658 1_665 S
Tb160 O183 2.409 1_665 S
Tb160 O184 2.378 1_655 S
Tb160 O188 2.325 . S
Tb160 O191 2.341 1_565 S
Tb161 C171 2.809 . S
Tb161 O182 2.325 . S
Tb161 O185 2.341 1_545 S
Tb161 O186 2.484 . S
Tb161 O187 2.440 . S
Tb161 O188 2.658 1_445 S
Tb161 O189 2.409 1_445 S
Tb161 O190 2.378 1_455 S
C162 Tb160 2.809 . S
C162 C163 1.514 . S
C162 O180 1.248 . S
C162 O181 1.266 . S
C163 C162 1.514 . S
C163 C164 1.359 . S
C163 C168 1.348 . S
C164 C163 1.359 . S
C164 C165 1.380 . S
C164 H192 0.929 . S
C165 C164 1.380 . S
C165 C166 1.347 . S
C165 H193 0.931 . S
C166 C165 1.347 . S
C166 C167 1.369 . S
C167 C166 1.369 . S
C167 C168 1.408 . S
C167 H194 0.930 . S
C168 C163 1.348 . S
C168 C167 1.408 . S
C168 H195 0.930 . S
C169 O182 1.281 . S
C169 O183 1.254 . S
C170 O184 1.236 . S
C170 O185 1.266 . S
C171 Tb161 2.809 . S
C171 C172 1.514 . S
C171 O186 1.248 . S
C171 O187 1.266 . S
C172 C171 1.514 . S
C172 C173 1.359 . S
C172 C177 1.348 . S
C173 C172 1.359 . S
C173 C174 1.380 . S
C173 H196 0.929 . S
C174 C173 1.380 . S
C174 C175 1.347 . S
C174 H197 0.931 . S
C175 C174 1.347 . S
C175 C176 1.369 . S
C176 C175 1.369 . S
C176 C177 1.408 . S
C176 H198 0.930 . S
C177 C172 1.348 . S
C177 C176 1.408 . S
C177 H199 0.930 . S
C178 O188 1.281 . S
C178 O189 1.254 . S
C179 O190 1.236 . S
C179 O191 1.266 . S
O180 Tb160 2.484 . S
O180 C162 1.248 . S
O181 Tb160 2.440 . S
O181 C162 1.266 . S
O182 Tb160 2.658 1_445 S
O182 Tb161 2.325 . S
O182 C169 1.281 . S
O183 Tb160 2.409 1_445 S
O183 C169 1.254 . S
O184 Tb160 2.378 1_455 S
O184 C170 1.236 . S
O185 Tb161 2.341 1_565 S
O185 C170 1.266 . S
O186 Tb161 2.484 . S
O186 C171 1.248 . S
O187 Tb161 2.440 . S
O187 C171 1.266 . S
O188 Tb160 2.325 . S
O188 Tb161 2.658 1_665 S
O188 C178 1.281 . S
O189 Tb161 2.409 1_665 S
O189 C178 1.254 . S
O190 Tb161 2.378 1_655 S
O190 C179 1.236 . S
O191 Tb160 2.341 1_545 S
O191 C179 1.266 . S
H192 C164 0.929 . S
H193 C165 0.931 . S
H194 C167 0.930 . S
H195 C168 0.930 . S
H196 C173 0.929 . S
H197 C174 0.931 . S
H198 C176 0.930 . S
H199 C177 0.930 . S
Tb200 C202 2.809 . S
Tb200 O220 2.484 . S
Tb200 O221 2.440 . S
Tb200 O222 2.658 . S
Tb200 O223 2.409 . S
Tb200 O224 2.378 . S
Tb200 O228 2.325 . S
Tb200 O231 2.341 . S
Tb201 C211 2.809 . S
Tb201 O222 2.325 . S
Tb201 O225 2.341 . S
Tb201 O226 2.484 . S
Tb201 O227 2.440 . S
Tb201 O228 2.658 . S
Tb201 O229 2.409 . S
Tb201 O230 2.378 . S
C202 Tb200 2.809 . S
C202 C203 1.514 . S
C202 O220 1.248 . S
C202 O221 1.266 . S
C203 C202 1.514 . S
C203 C204 1.359 . S
C203 C208 1.348 . S
C204 C203 1.359 . S
C204 C205 1.380 . S
C204 H232 0.929 . S
C205 C204 1.380 . S
C205 C206 1.347 . S
C205 H233 0.931 . S
C206 C205 1.347 . S
C206 C207 1.369 . S
C207 C206 1.369 . S
C207 C208 1.408 . S
C207 H234 0.930 . S
C208 C203 1.348 . S
C208 C207 1.408 . S
C208 H235 0.930 . S
C209 O222 1.281 . S
C209 O223 1.254 . S
C210 O224 1.236 . S
C210 O225 1.266 . S
C211 Tb201 2.809 . S
C211 C212 1.514 . S
C211 O226 1.248 . S
C211 O227 1.266 . S
C212 C211 1.514 . S
C212 C213 1.359 . S
C212 C217 1.348 . S
C213 C212 1.359 . S
C213 C214 1.380 . S
C213 H236 0.929 . S
C214 C213 1.380 . S
C214 C215 1.347 . S
C214 H237 0.931 . S
C215 C214 1.347 . S
C215 C216 1.369 . S
C216 C215 1.369 . S
C216 C217 1.408 . S
C216 H238 0.930 . S
C217 C212 1.348 . S
C217 C216 1.408 . S
C217 H239 0.930 . S
C218 O228 1.281 . S
C218 O229 1.254 . S
C219 O230 1.236 . S
C219 O231 1.266 . S
O220 Tb200 2.484 . S
O220 C202 1.248 . S
O221 Tb200 2.440 . S
O221 C202 1.266 . S
O222 Tb200 2.658 . S
O222 Tb201 2.325 . S
O222 C209 1.281 . S
O223 Tb200 2.409 . S
O223 C209 1.254 . S
O224 Tb200 2.378 . S
O224 C210 1.236 . S
O225 Tb201 2.341 . S
O225 C210 1.266 . S
O226 Tb201 2.484 . S
O226 C211 1.248 . S
O227 Tb201 2.440 . S
O227 C211 1.266 . S
O228 Tb200 2.325 . S
O228 Tb201 2.658 . S
O228 C218 1.281 . S
O229 Tb201 2.409 . S
O229 C218 1.254 . S
O230 Tb201 2.378 . S
O230 C219 1.236 . S
O231 Tb200 2.341 . S
O231 C219 1.266 . S
H232 C204 0.929 . S
H233 C205 0.931 . S
H234 C207 0.930 . S
H235 C208 0.930 . S
H236 C213 0.929 . S
H237 C214 0.931 . S
H238 C216 0.930 . S
H239 C217 0.930 . S
Tb240 C242 2.809 1_554 S
Tb240 O260 2.484 1_554 S
Tb240 O261 2.440 . S
Tb240 O262 2.658 1_565 S
Tb240 O263 2.409 1_565 S
Tb240 O264 2.378 1_564 S
Tb240 O268 2.325 1_554 S
Tb240 O271 2.341 . S
Tb241 C251 2.809 1_556 S
Tb241 O262 2.325 1_556 S
Tb241 O265 2.341 . S
Tb241 O266 2.484 1_556 S
Tb241 O267 2.440 . S
Tb241 O268 2.658 1_545 S
Tb241 O269 2.409 1_545 S
Tb241 O270 2.378 1_546 S
C242 Tb240 2.809 1_556 S
C242 C243 1.514 . S
C242 O260 1.248 . S
C242 O261 1.266 1_556 S
C243 C242 1.514 . S
C243 C244 1.359 . S
C243 C248 1.348 1_556 S
C244 C243 1.359 . S
C244 C245 1.380 . S
C244 H272 0.929 . S
C245 C244 1.380 . S
C245 C246 1.347 . S
C245 H273 0.931 . S
C246 C245 1.347 . S
C246 C247 1.369 . S
C247 C246 1.369 . S
C247 C248 1.408 1_556 S
C247 H274 0.930 1_556 S
C248 C243 1.348 1_554 S
C248 C247 1.408 1_554 S
C248 H275 0.930 . S
C249 O262 1.281 . S
C249 O263 1.254 . S
C250 O264 1.236 . S
C250 O265 1.266 . S
C251 Tb241 2.809 1_554 S
C251 C252 1.514 . S
C251 O266 1.248 . S
C251 O267 1.266 1_554 S
C252 C251 1.514 . S
C252 C253 1.359 . S
C252 C257 1.348 1_554 S
C253 C252 1.359 . S
C253 C254 1.380 . S
C253 H276 0.929 . S
C254 C253 1.380 . S
C254 C255 1.347 . S
C254 H277 0.931 . S
C255 C254 1.347 . S
C255 C256 1.369 . S
C256 C255 1.369 . S
C256 C257 1.408 1_554 S
C256 H278 0.930 1_554 S
C257 C252 1.348 1_556 S
C257 C256 1.408 1_556 S
C257 H279 0.930 . S
C258 O268 1.281 . S
C258 O269 1.254 . S
C259 O270 1.236 . S
C259 O271 1.266 . S
O260 Tb240 2.484 1_556 S
O260 C242 1.248 . S
O261 Tb240 2.440 . S
O261 C242 1.266 1_554 S
O262 Tb240 2.658 1_545 S
O262 Tb241 2.325 1_554 S
O262 C249 1.281 . S
O263 Tb240 2.409 1_545 S
O263 C249 1.254 . S
O264 Tb240 2.378 1_546 S
O264 C250 1.236 . S
O265 Tb241 2.341 . S
O265 C250 1.266 . S
O266 Tb241 2.484 1_554 S
O266 C251 1.248 . S
O267 Tb241 2.440 . S
O267 C251 1.266 1_556 S
O268 Tb240 2.325 1_556 S
O268 Tb241 2.658 1_565 S
O268 C258 1.281 . S
O269 Tb241 2.409 1_565 S
O269 C258 1.254 . S
O270 Tb241 2.378 1_564 S
O270 C259 1.236 . S
O271 Tb240 2.341 . S
O271 C259 1.266 . S
H272 C244 0.929 . S
H273 C245 0.931 . S
H274 C247 0.930 1_554 S
H275 C248 0.930 . S
H276 C253 0.929 . S
H277 C254 0.931 . S
H278 C256 0.930 1_556 S
H279 C257 0.930 . S
Tb280 C282 2.809 . S
Tb280 O300 2.484 . S
Tb280 O301 2.440 . S
Tb280 O302 2.658 . S
Tb280 O303 2.409 . S
Tb280 O304 2.378 . S
Tb280 O308 2.325 . S
Tb280 O311 2.341 . S
Tb281 C291 2.809 . S
Tb281 O302 2.325 . S
Tb281 O305 2.341 . S
Tb281 O306 2.484 . S
Tb281 O307 2.440 . S
Tb281 O308 2.658 . S
Tb281 O309 2.409 . S
Tb281 O310 2.378 . S
C282 Tb280 2.809 . S
C282 C283 1.514 . S
C282 O300 1.248 . S
C282 O301 1.266 . S
C283 C282 1.514 . S
C283 C284 1.359 . S
C283 C288 1.348 . S
C284 C283 1.359 . S
C284 C285 1.380 . S
C284 H312 0.929 . S
C285 C284 1.380 . S
C285 C286 1.347 . S
C285 H313 0.931 . S
C286 C285 1.347 . S
C286 C287 1.369 . S
C287 C286 1.369 . S
C287 C288 1.408 . S
C287 H314 0.930 . S
C288 C283 1.348 . S
C288 C287 1.408 . S
C288 H315 0.930 . S
C289 O302 1.281 . S
C289 O303 1.254 . S
C290 O304 1.236 . S
C290 O305 1.266 . S
C291 Tb281 2.809 . S
C291 C292 1.514 . S
C291 O306 1.248 . S
C291 O307 1.266 . S
C292 C291 1.514 . S
C292 C293 1.359 . S
C292 C297 1.348 . S
C293 C292 1.359 . S
C293 C294 1.380 . S
C293 H316 0.929 . S
C294 C293 1.380 . S
C294 C295 1.347 . S
C294 H317 0.931 . S
C295 C294 1.347 . S
C295 C296 1.369 . S
C296 C295 1.369 . S
C296 C297 1.408 . S
C296 H318 0.930 . S
C297 C292 1.348 . S
C297 C296 1.408 . S
C297 H319 0.930 . S
C298 O308 1.281 . S
C298 O309 1.254 . S
C299 O310 1.236 . S
C299 O311 1.266 . S
O300 Tb280 2.484 . S
O300 C282 1.248 . S
O301 Tb280 2.440 . S
O301 C282 1.266 . S
O302 Tb280 2.658 . S
O302 Tb281 2.325 . S
O302 C289 1.281 . S
O303 Tb280 2.409 . S
O303 C289 1.254 . S
O304 Tb280 2.378 . S
O304 C290 1.236 . S
O305 Tb281 2.341 . S
O305 C290 1.266 . S
O306 Tb281 2.484 . S
O306 C291 1.248 . S
O307 Tb281 2.440 . S
O307 C291 1.266 . S
O308 Tb280 2.325 . S
O308 Tb281 2.658 . S
O308 C298 1.281 . S
O309 Tb281 2.409 . S
O309 C298 1.254 . S
O310 Tb281 2.378 . S
O310 C299 1.236 . S
O311 Tb280 2.341 . S
O311 C299 1.266 . S
H312 C284 0.929 . S
H313 C285 0.931 . S
H314 C287 0.930 . S
H315 C288 0.930 . S
H316 C293 0.929 . S
H317 C294 0.931 . S
H318 C296 0.930 . S
H319 C297 0.930 . S
Tb320 C322 2.809 . S
Tb320 O340 2.484 . S
Tb320 O341 2.440 . S
Tb320 O342 2.658 . S
Tb320 O343 2.409 . S
Tb320 O344 2.378 . S
Tb320 O348 2.325 1_554 S
Tb320 O351 2.341 1_554 S
Tb321 C331 2.809 . S
Tb321 O342 2.325 1_556 S
Tb321 O345 2.341 1_556 S
Tb321 O346 2.484 . S
Tb321 O347 2.440 . S
Tb321 O348 2.658 . S
Tb321 O349 2.409 . S
Tb321 O350 2.378 . S
C322 Tb320 2.809 . S
C322 C323 1.514 . S
C322 O340 1.248 . S
C322 O341 1.266 . S
C323 C322 1.514 . S
C323 C324 1.359 . S
C323 C328 1.348 . S
C324 C323 1.359 . S
C324 C325 1.380 . S
C324 H352 0.929 . S
C325 C324 1.380 . S
C325 C326 1.347 . S
C325 H353 0.931 . S
C326 C325 1.347 . S
C326 C327 1.369 . S
C327 C326 1.369 . S
C327 C328 1.408 . S
C327 H354 0.930 . S
C328 C323 1.348 . S
C328 C327 1.408 . S
C328 H355 0.930 . S
C329 O342 1.281 . S
C329 O343 1.254 . S
C330 O344 1.236 . S
C330 O345 1.266 . S
C331 Tb321 2.809 . S
C331 C332 1.514 . S
C331 O346 1.248 . S
C331 O347 1.266 . S
C332 C331 1.514 . S
C332 C333 1.359 . S
C332 C337 1.348 . S
C333 C332 1.359 . S
C333 C334 1.380 . S
C333 H356 0.929 . S
C334 C333 1.380 . S
C334 C335 1.347 . S
C334 H357 0.931 . S
C335 C334 1.347 . S
C335 C336 1.369 . S
C336 C335 1.369 . S
C336 C337 1.408 . S
C336 H358 0.930 . S
C337 C332 1.348 . S
C337 C336 1.408 . S
C337 H359 0.930 . S
C338 O348 1.281 . S
C338 O349 1.254 . S
C339 O350 1.236 . S
C339 O351 1.266 . S
O340 Tb320 2.484 . S
O340 C322 1.248 . S
O341 Tb320 2.440 . S
O341 C322 1.266 . S
O342 Tb320 2.658 . S
O342 Tb321 2.325 1_554 S
O342 C329 1.281 . S
O343 Tb320 2.409 . S
O343 C329 1.254 . S
O344 Tb320 2.378 . S
O344 C330 1.236 . S
O345 Tb321 2.341 1_554 S
O345 C330 1.266 . S
O346 Tb321 2.484 . S
O346 C331 1.248 . S
O347 Tb321 2.440 . S
O347 C331 1.266 . S
O348 Tb320 2.325 1_556 S
O348 Tb321 2.658 . S
O348 C338 1.281 . S
O349 Tb321 2.409 . S
O349 C338 1.254 . S
O350 Tb321 2.378 . S
O350 C339 1.236 . S
O351 Tb320 2.341 1_556 S
O351 C339 1.266 . S
H352 C324 0.929 . S
H353 C325 0.931 . S
H354 C327 0.930 . S
H355 C328 0.930 . S
H356 C333 0.929 . S
H357 C334 0.931 . S
H358 C336 0.930 . S
H359 C337 0.930 . S
Tb360 C362 2.809 . S
Tb360 O380 2.484 . S
Tb360 O381 2.440 . S
Tb360 O382 2.658 . S
Tb360 O383 2.409 . S
Tb360 O384 2.378 . S
Tb360 O388 2.325 . S
Tb360 O391 2.341 . S
Tb361 C371 2.809 . S
Tb361 O382 2.325 . S
Tb361 O385 2.341 . S
Tb361 O386 2.484 . S
Tb361 O387 2.440 . S
Tb361 O388 2.658 . S
Tb361 O389 2.409 . S
Tb361 O390 2.378 . S
C362 Tb360 2.809 . S
C362 C363 1.514 . S
C362 O380 1.248 . S
C362 O381 1.266 . S
C363 C362 1.514 . S
C363 C364 1.359 . S
C363 C368 1.348 . S
C364 C363 1.359 . S
C364 C365 1.380 . S
C364 H392 0.929 . S
C365 C364 1.380 . S
C365 C366 1.347 . S
C365 H393 0.931 . S
C366 C365 1.347 . S
C366 C367 1.369 . S
C367 C366 1.369 . S
C367 C368 1.408 . S
C367 H394 0.930 . S
C368 C363 1.348 . S
C368 C367 1.408 . S
C368 H395 0.930 . S
C369 O382 1.281 . S
C369 O383 1.254 . S
C370 O384 1.236 . S
C370 O385 1.266 . S
C371 Tb361 2.809 . S
C371 C372 1.514 . S
C371 O386 1.248 . S
C371 O387 1.266 . S
C372 C371 1.514 . S
C372 C373 1.359 . S
C372 C377 1.348 . S
C373 C372 1.359 . S
C373 C374 1.380 . S
C373 H396 0.929 . S
C374 C373 1.380 . S
C374 C375 1.347 . S
C374 H397 0.931 . S
C375 C374 1.347 . S
C375 C376 1.369 . S
C376 C375 1.369 . S
C376 C377 1.408 . S
C376 H398 0.930 . S
C377 C372 1.348 . S
C377 C376 1.408 . S
C377 H399 0.930 . S
C378 O388 1.281 . S
C378 O389 1.254 . S
C379 O390 1.236 . S
C379 O391 1.266 . S
O380 Tb360 2.484 . S
O380 C362 1.248 . S
O381 Tb360 2.440 . S
O381 C362 1.266 . S
O382 Tb360 2.658 . S
O382 Tb361 2.325 . S
O382 C369 1.281 . S
O383 Tb360 2.409 . S
O383 C369 1.254 . S
O384 Tb360 2.378 . S
O384 C370 1.236 . S
O385 Tb361 2.341 . S
O385 C370 1.266 . S
O386 Tb361 2.484 . S
O386 C371 1.248 . S
O387 Tb361 2.440 . S
O387 C371 1.266 . S
O388 Tb360 2.325 . S
O388 Tb361 2.658 . S
O388 C378 1.281 . S
O389 Tb361 2.409 . S
O389 C378 1.254 . S
O390 Tb361 2.378 . S
O390 C379 1.236 . S
O391 Tb360 2.341 . S
O391 C379 1.266 . S
H392 C364 0.929 . S
H393 C365 0.931 . S
H394 C367 0.930 . S
H395 C368 0.930 . S
H396 C373 0.929 . S
H397 C374 0.931 . S
H398 C376 0.930 . S
H399 C377 0.930 . S
Tb400 C402 2.809 . S
Tb400 O420 2.484 . S
Tb400 O421 2.440 . S
Tb400 O422 2.658 . S
Tb400 O423 2.409 . S
Tb400 O424 2.378 . S
Tb400 O428 2.325 1_455 S
Tb400 O431 2.341 1_455 S
Tb401 C411 2.809 . S
Tb401 O422 2.325 1_655 S
Tb401 O425 2.341 1_655 S
Tb401 O426 2.484 . S
Tb401 O427 2.440 . S
Tb401 O428 2.658 . S
Tb401 O429 2.409 . S
Tb401 O430 2.378 . S
C402 Tb400 2.809 . S
C402 C403 1.514 . S
C402 O420 1.248 . S
C402 O421 1.266 . S
C403 C402 1.514 . S
C403 C404 1.359 . S
C403 C408 1.348 . S
C404 C403 1.359 . S
C404 C405 1.380 . S
C404 H432 0.929 . S
C405 C404 1.380 . S
C405 C406 1.347 . S
C405 H433 0.931 . S
C406 C405 1.347 . S
C406 C407 1.369 . S
C407 C406 1.369 . S
C407 C408 1.408 . S
C407 H434 0.930 . S
C408 C403 1.348 . S
C408 C407 1.408 . S
C408 H435 0.930 . S
C409 O422 1.281 . S
C409 O423 1.254 . S
C410 O424 1.236 . S
C410 O425 1.266 . S
C411 Tb401 2.809 . S
C411 C412 1.514 . S
C411 O426 1.248 . S
C411 O427 1.266 . S
C412 C411 1.514 . S
C412 C413 1.359 . S
C412 C417 1.348 . S
C413 C412 1.359 . S
C413 C414 1.380 . S
C413 H436 0.929 . S
C414 C413 1.380 . S
C414 C415 1.347 . S
C414 H437 0.931 . S
C415 C414 1.347 . S
C415 C416 1.369 . S
C416 C415 1.369 . S
C416 C417 1.408 . S
C416 H438 0.930 . S
C417 C412 1.348 . S
C417 C416 1.408 . S
C417 H439 0.930 . S
C418 O428 1.281 . S
C418 O429 1.254 . S
C419 O430 1.236 . S
C419 O431 1.266 . S
O420 Tb400 2.484 . S
O420 C402 1.248 . S
O421 Tb400 2.440 . S
O421 C402 1.266 . S
O422 Tb400 2.658 . S
O422 Tb401 2.325 1_455 S
O422 C409 1.281 . S
O423 Tb400 2.409 . S
O423 C409 1.254 . S
O424 Tb400 2.378 . S
O424 C410 1.236 . S
O425 Tb401 2.341 1_455 S
O425 C410 1.266 . S
O426 Tb401 2.484 . S
O426 C411 1.248 . S
O427 Tb401 2.440 . S
O427 C411 1.266 . S
O428 Tb400 2.325 1_655 S
O428 Tb401 2.658 . S
O428 C418 1.281 . S
O429 Tb401 2.409 . S
O429 C418 1.254 . S
O430 Tb401 2.378 . S
O430 C419 1.236 . S
O431 Tb400 2.341 1_655 S
O431 C419 1.266 . S
H432 C404 0.929 . S
H433 C405 0.931 . S
H434 C407 0.930 . S
H435 C408 0.930 . S
H436 C413 0.929 . S
H437 C414 0.931 . S
H438 C416 0.930 . S
H439 C417 0.930 . S
Tb440 C442 2.809 . S
Tb440 O460 2.484 . S
Tb440 O461 2.440 . S
Tb440 O462 2.658 . S
Tb440 O463 2.409 . S
Tb440 O464 2.378 . S
Tb440 O468 2.325 . S
Tb440 O471 2.341 . S
Tb441 C451 2.809 . S
Tb441 O462 2.325 . S
Tb441 O465 2.341 . S
Tb441 O466 2.484 . S
Tb441 O467 2.440 . S
Tb441 O468 2.658 . S
Tb441 O469 2.409 . S
Tb441 O470 2.378 . S
C442 Tb440 2.809 . S
C442 C443 1.514 . S
C442 O460 1.248 . S
C442 O461 1.266 . S
C443 C442 1.514 . S
C443 C444 1.359 . S
C443 C448 1.348 . S
C444 C443 1.359 . S
C444 C445 1.380 . S
C444 H472 0.929 . S
C445 C444 1.380 . S
C445 C446 1.347 . S
C445 H473 0.931 . S
C446 C445 1.347 . S
C446 C447 1.369 . S
C447 C446 1.369 . S
C447 C448 1.408 . S
C447 H474 0.930 . S
C448 C443 1.348 . S
C448 C447 1.408 . S
C448 H475 0.930 . S
C449 O462 1.281 . S
C449 O463 1.254 . S
C450 O464 1.236 . S
C450 O465 1.266 . S
C451 Tb441 2.809 . S
C451 C452 1.514 . S
C451 O466 1.248 . S
C451 O467 1.266 . S
C452 C451 1.514 . S
C452 C453 1.359 . S
C452 C457 1.348 . S
C453 C452 1.359 . S
C453 C454 1.380 . S
C453 H476 0.929 . S
C454 C453 1.380 . S
C454 C455 1.347 . S
C454 H477 0.931 . S
C455 C454 1.347 . S
C455 C456 1.369 . S
C456 C455 1.369 . S
C456 C457 1.408 . S
C456 H478 0.930 . S
C457 C452 1.348 . S
C457 C456 1.408 . S
C457 H479 0.930 . S
C458 O468 1.281 . S
C458 O469 1.254 . S
C459 O470 1.236 . S
C459 O471 1.266 . S
O460 Tb440 2.484 . S
O460 C442 1.248 . S
O461 Tb440 2.440 . S
O461 C442 1.266 . S
O462 Tb440 2.658 . S
O462 Tb441 2.325 . S
O462 C449 1.281 . S
O463 Tb440 2.409 . S
O463 C449 1.254 . S
O464 Tb440 2.378 . S
O464 C450 1.236 . S
O465 Tb441 2.341 . S
O465 C450 1.266 . S
O466 Tb441 2.484 . S
O466 C451 1.248 . S
O467 Tb441 2.440 . S
O467 C451 1.266 . S
O468 Tb440 2.325 . S
O468 Tb441 2.658 . S
O468 C458 1.281 . S
O469 Tb441 2.409 . S
O469 C458 1.254 . S
O470 Tb441 2.378 . S
O470 C459 1.236 . S
O471 Tb440 2.341 . S
O471 C459 1.266 . S
H472 C444 0.929 . S
H473 C445 0.931 . S
H474 C447 0.930 . S
H475 C448 0.930 . S
H476 C453 0.929 . S
H477 C454 0.931 . S
H478 C456 0.930 . S
H479 C457 0.930 . S
Tb480 C482 2.809 . S
Tb480 O500 2.484 . S
Tb480 O501 2.440 . S
Tb480 O502 2.658 . S
Tb480 O503 2.409 . S
Tb480 O504 2.378 . S
Tb480 O508 2.325 . S
Tb480 O511 2.341 . S
Tb481 C491 2.809 . S
Tb481 O502 2.325 . S
Tb481 O505 2.341 . S
Tb481 O506 2.484 . S
Tb481 O507 2.440 . S
Tb481 O508 2.658 . S
Tb481 O509 2.409 . S
Tb481 O510 2.378 . S
C482 Tb480 2.809 . S
C482 C483 1.514 . S
C482 O500 1.248 . S
C482 O501 1.266 . S
C483 C482 1.514 . S
C483 C484 1.359 . S
C483 C488 1.348 . S
C484 C483 1.359 . S
C484 C485 1.380 . S
C484 H512 0.929 . S
C485 C484 1.380 . S
C485 C486 1.347 . S
C485 H513 0.931 . S
C486 C485 1.347 . S
C486 C487 1.369 . S
C487 C486 1.369 . S
C487 C488 1.408 . S
C487 H514 0.930 . S
C488 C483 1.348 . S
C488 C487 1.408 . S
C488 H515 0.930 . S
C489 O502 1.281 . S
C489 O503 1.254 . S
C490 O504 1.236 . S
C490 O505 1.266 . S
C491 Tb481 2.809 . S
C491 C492 1.514 . S
C491 O506 1.248 . S
C491 O507 1.266 . S
C492 C491 1.514 . S
C492 C493 1.359 . S
C492 C497 1.348 . S
C493 C492 1.359 . S
C493 C494 1.380 . S
C493 H516 0.929 . S
C494 C493 1.380 . S
C494 C495 1.347 . S
C494 H517 0.931 . S
C495 C494 1.347 . S
C495 C496 1.369 . S
C496 C495 1.369 . S
C496 C497 1.408 . S
C496 H518 0.930 . S
C497 C492 1.348 . S
C497 C496 1.408 . S
C497 H519 0.930 . S
C498 O508 1.281 . S
C498 O509 1.254 . S
C499 O510 1.236 . S
C499 O511 1.266 . S
O500 Tb480 2.484 . S
O500 C482 1.248 . S
O501 Tb480 2.440 . S
O501 C482 1.266 . S
O502 Tb480 2.658 . S
O502 Tb481 2.325 . S
O502 C489 1.281 . S
O503 Tb480 2.409 . S
O503 C489 1.254 . S
O504 Tb480 2.378 . S
O504 C490 1.236 . S
O505 Tb481 2.341 . S
O505 C490 1.266 . S
O506 Tb481 2.484 . S
O506 C491 1.248 . S
O507 Tb481 2.440 . S
O507 C491 1.266 . S
O508 Tb480 2.325 . S
O508 Tb481 2.658 . S
O508 C498 1.281 . S
O509 Tb481 2.409 . S
O509 C498 1.254 . S
O510 Tb481 2.378 . S
O510 C499 1.236 . S
O511 Tb480 2.341 . S
O511 C499 1.266 . S
H512 C484 0.929 . S
H513 C485 0.931 . S
H514 C487 0.930 . S
H515 C488 0.930 . S
H516 C493 0.929 . S
H517 C494 0.931 . S
H518 C496 0.930 . S
H519 C497 0.930 . S
Tb520 C522 2.809 . S
Tb520 O540 2.484 . S
Tb520 O541 2.440 . S
Tb520 O542 2.658 . S
Tb520 O543 2.409 . S
Tb520 O544 2.378 . S
Tb520 O548 2.325 . S
Tb520 O551 2.341 . S
Tb521 C531 2.809 . S
Tb521 O542 2.325 . S
Tb521 O545 2.341 . S
Tb521 O546 2.484 . S
Tb521 O547 2.440 . S
Tb521 O548 2.658 . S
Tb521 O549 2.409 . S
Tb521 O550 2.378 . S
C522 Tb520 2.809 . S
C522 C523 1.514 . S
C522 O540 1.248 . S
C522 O541 1.266 . S
C523 C522 1.514 . S
C523 C524 1.359 . S
C523 C528 1.348 . S
C524 C523 1.359 . S
C524 C525 1.380 . S
C524 H552 0.929 . S
C525 C524 1.380 . S
C525 C526 1.347 . S
C525 H553 0.931 . S
C526 C525 1.347 . S
C526 C527 1.369 . S
C527 C526 1.369 . S
C527 C528 1.408 . S
C527 H554 0.930 . S
C528 C523 1.348 . S
C528 C527 1.408 . S
C528 H555 0.930 . S
C529 O542 1.281 . S
C529 O543 1.254 . S
C530 O544 1.236 . S
C530 O545 1.266 . S
C531 Tb521 2.809 . S
C531 C532 1.514 . S
C531 O546 1.248 . S
C531 O547 1.266 . S
C532 C531 1.514 . S
C532 C533 1.359 . S
C532 C537 1.348 . S
C533 C532 1.359 . S
C533 C534 1.380 . S
C533 H556 0.929 . S
C534 C533 1.380 . S
C534 C535 1.347 . S
C534 H557 0.931 . S
C535 C534 1.347 . S
C535 C536 1.369 . S
C536 C535 1.369 . S
C536 C537 1.408 . S
C536 H558 0.930 . S
C537 C532 1.348 . S
C537 C536 1.408 . S
C537 H559 0.930 . S
C538 O548 1.281 . S
C538 O549 1.254 . S
C539 O550 1.236 . S
C539 O551 1.266 . S
O540 Tb520 2.484 . S
O540 C522 1.248 . S
O541 Tb520 2.440 . S
O541 C522 1.266 . S
O542 Tb520 2.658 . S
O542 Tb521 2.325 . S
O542 C529 1.281 . S
O543 Tb520 2.409 . S
O543 C529 1.254 . S
O544 Tb520 2.378 . S
O544 C530 1.236 . S
O545 Tb521 2.341 . S
O545 C530 1.266 . S
O546 Tb521 2.484 . S
O546 C531 1.248 . S
O547 Tb521 2.440 . S
O547 C531 1.266 . S
O548 Tb520 2.325 . S
O548 Tb521 2.658 . S
O548 C538 1.281 . S
O549 Tb521 2.409 . S
O549 C538 1.254 . S
O550 Tb521 2.378 . S
O550 C539 1.236 . S
O551 Tb520 2.341 . S
O551 C539 1.266 . S
H552 C524 0.929 . S
H553 C525 0.931 . S
H554 C527 0.930 . S
H555 C528 0.930 . S
H556 C533 0.929 . S
H557 C534 0.931 . S
H558 C536 0.930 . S
H559 C537 0.930 . S
Tb560 C562 2.809 . S
Tb560 O580 2.484 . S
Tb560 O581 2.440 . S
Tb560 O582 2.658 . S
Tb560 O583 2.409 . S
Tb560 O584 2.378 . S
Tb560 O588 2.325 . S
Tb560 O591 2.341 . S
Tb561 C571 2.809 . S
Tb561 O582 2.325 . S
Tb561 O585 2.341 . S
Tb561 O586 2.484 . S
Tb561 O587 2.440 . S
Tb561 O588 2.658 . S
Tb561 O589 2.409 . S
Tb561 O590 2.378 . S
C562 Tb560 2.809 . S
C562 C563 1.514 . S
C562 O580 1.248 . S
C562 O581 1.266 . S
C563 C562 1.514 . S
C563 C564 1.359 . S
C563 C568 1.348 . S
C564 C563 1.359 . S
C564 C565 1.380 . S
C564 H592 0.929 . S
C565 C564 1.380 . S
C565 C566 1.347 . S
C565 H593 0.931 . S
C566 C565 1.347 . S
C566 C567 1.369 . S
C567 C566 1.369 . S
C567 C568 1.408 . S
C567 H594 0.930 . S
C568 C563 1.348 . S
C568 C567 1.408 . S
C568 H595 0.930 . S
C569 O582 1.281 . S
C569 O583 1.254 . S
C570 O584 1.236 . S
C570 O585 1.266 . S
C571 Tb561 2.809 . S
C571 C572 1.514 . S
C571 O586 1.248 . S
C571 O587 1.266 . S
C572 C571 1.514 . S
C572 C573 1.359 . S
C572 C577 1.348 . S
C573 C572 1.359 . S
C573 C574 1.380 . S
C573 H596 0.929 . S
C574 C573 1.380 . S
C574 C575 1.347 . S
C574 H597 0.931 . S
C575 C574 1.347 . S
C575 C576 1.369 . S
C576 C575 1.369 . S
C576 C577 1.408 . S
C576 H598 0.930 . S
C577 C572 1.348 . S
C577 C576 1.408 . S
C577 H599 0.930 . S
C578 O588 1.281 . S
C578 O589 1.254 . S
C579 O590 1.236 . S
C579 O591 1.266 . S
O580 Tb560 2.484 . S
O580 C562 1.248 . S
O581 Tb560 2.440 . S
O581 C562 1.266 . S
O582 Tb560 2.658 . S
O582 Tb561 2.325 . S
O582 C569 1.281 . S
O583 Tb560 2.409 . S
O583 C569 1.254 . S
O584 Tb560 2.378 . S
O584 C570 1.236 . S
O585 Tb561 2.341 . S
O585 C570 1.266 . S
O586 Tb561 2.484 . S
O586 C571 1.248 . S
O587 Tb561 2.440 . S
O587 C571 1.266 . S
O588 Tb560 2.325 . S
O588 Tb561 2.658 . S
O588 C578 1.281 . S
O589 Tb561 2.409 . S
O589 C578 1.254 . S
O590 Tb561 2.378 . S
O590 C579 1.236 . S
O591 Tb560 2.341 . S
O591 C579 1.266 . S
H592 C564 0.929 . S
H593 C565 0.931 . S
H594 C567 0.930 . S
H595 C568 0.930 . S
H596 C573 0.929 . S
H597 C574 0.931 . S
H598 C576 0.930 . S
H599 C577 0.930 . S
Tb600 C602 2.809 . S
Tb600 O620 2.484 . S
Tb600 O621 2.440 . S
Tb600 O622 2.658 1_554 S
Tb600 O623 2.409 1_554 S
Tb600 O624 2.378 1_554 S
Tb600 O628 2.325 1_655 S
Tb600 O631 2.341 1_655 S
Tb601 C611 2.809 . S
Tb601 O622 2.325 1_455 S
Tb601 O625 2.341 1_455 S
Tb601 O626 2.484 . S
Tb601 O627 2.440 . S
Tb601 O628 2.658 1_556 S
Tb601 O629 2.409 1_556 S
Tb601 O630 2.378 1_556 S
C602 Tb600 2.809 . S
C602 C603 1.514 . S
C602 O620 1.248 . S
C602 O621 1.266 . S
C603 C602 1.514 . S
C603 C604 1.359 . S
C603 C608 1.348 . S
C604 C603 1.359 . S
C604 C605 1.380 . S
C604 H632 0.929 . S
C605 C604 1.380 . S
C605 C606 1.347 . S
C605 H633 0.931 . S
C606 C605 1.347 . S
C606 C607 1.369 . S
C607 C606 1.369 . S
C607 C608 1.408 . S
C607 H634 0.930 . S
C608 C603 1.348 . S
C608 C607 1.408 . S
C608 H635 0.930 . S
C609 O622 1.281 . S
C609 O623 1.254 . S
C610 O624 1.236 . S
C610 O625 1.266 . S
C611 Tb601 2.809 . S
C611 C612 1.514 . S
C611 O626 1.248 . S
C611 O627 1.266 . S
C612 C611 1.514 . S
C612 C613 1.359 . S
C612 C617 1.348 . S
C613 C612 1.359 . S
C613 C614 1.380 . S
C613 H636 0.929 . S
C614 C613 1.380 . S
C614 C615 1.347 . S
C614 H637 0.931 . S
C615 C614 1.347 . S
C615 C616 1.369 . S
C616 C615 1.369 . S
C616 C617 1.408 . S
C616 H638 0.930 . S
C617 C612 1.348 . S
C617 C616 1.408 . S
C617 H639 0.930 . S
C618 O628 1.281 . S
C618 O629 1.254 . S
C619 O630 1.236 . S
C619 O631 1.266 . S
O620 Tb600 2.484 . S
O620 C602 1.248 . S
O621 Tb600 2.440 . S
O621 C602 1.266 . S
O622 Tb600 2.658 1_556 S
O622 Tb601 2.325 1_655 S
O622 C609 1.281 . S
O623 Tb600 2.409 1_556 S
O623 C609 1.254 . S
O624 Tb600 2.378 1_556 S
O624 C610 1.236 . S
O625 Tb601 2.341 1_655 S
O625 C610 1.266 . S
O626 Tb601 2.484 . S
O626 C611 1.248 . S
O627 Tb601 2.440 . S
O627 C611 1.266 . S
O628 Tb600 2.325 1_455 S
O628 Tb601 2.658 1_554 S
O628 C618 1.281 . S
O629 Tb601 2.409 1_554 S
O629 C618 1.254 . S
O630 Tb601 2.378 1_554 S
O630 C619 1.236 . S
O631 Tb600 2.341 1_455 S
O631 C619 1.266 . S
H632 C604 0.929 . S
H633 C605 0.931 . S
H634 C607 0.930 . S
H635 C608 0.930 . S
H636 C613 0.929 . S
H637 C614 0.931 . S
H638 C616 0.930 . S
H639 C617 0.930 . S
C640 C641 1.391 . S
C640 C642 1.394 . S
C640 H656 0.931 . S
C641 C640 1.391 . S
C641 C645 1.376 . S
C642 C640 1.394 . S
C642 C643 1.369 . S
C642 C646 1.531 . S
C643 C642 1.369 . S
C643 C644 1.410 . S
C643 C651 1.503 . S
C644 C643 1.410 . S
C644 C645 1.392 . S
C644 C647 1.511 . S
C645 C641 1.376 . S
C645 C644 1.392 . S
C645 H657 0.929 . S
C646 C642 1.531 . S
C646 H658 0.960 . S
C646 H659 0.962 . S
C646 H660 0.960 . S
C647 C644 1.511 . S
C647 H661 0.961 . S
C647 H662 0.961 . S
C647 H663 0.961 . S
C648 C649 1.370 . S
C648 C650 1.363 . S
C648 H664 0.931 . S
C649 C648 1.370 . S
C649 C653 1.408 . S
C650 C648 1.363 . S
C650 C651 1.370 . S
C650 C654 1.524 . S
C651 C643 1.503 . S
C651 C650 1.370 . S
C651 C652 1.403 . S
C652 C651 1.403 . S
C652 C653 1.404 . S
C652 C655 1.539 . S
C653 C649 1.408 . S
C653 C652 1.404 . S
C653 H665 0.930 . S
C654 C650 1.524 . S
C654 H666 0.956 . S
C654 H667 0.961 . S
C654 H668 0.961 . S
C655 C652 1.539 . S
C655 H669 0.958 . S
C655 H670 0.961 . S
C655 H671 0.960 . S
H656 C640 0.931 . S
H657 C645 0.929 . S
H658 C646 0.960 . S
H659 C646 0.962 . S
H660 C646 0.960 . S
H661 C647 0.961 . S
H662 C647 0.961 . S
H663 C647 0.961 . S
H664 C648 0.931 . S
H665 C653 0.930 . S
H666 C654 0.956 . S
H667 C654 0.961 . S
H668 C654 0.961 . S
H669 C655 0.958 . S
H670 C655 0.961 . S
H671 C655 0.960 . S
C672 C673 1.391 . S
C672 C674 1.394 . S
C672 H688 0.931 . S
C673 C672 1.391 . S
C673 C677 1.376 . S
C674 C672 1.394 . S
C674 C675 1.369 . S
C674 C678 1.531 . S
C675 C674 1.369 . S
C675 C676 1.410 . S
C675 C683 1.503 . S
C676 C675 1.410 . S
C676 C677 1.392 . S
C676 C679 1.511 . S
C677 C673 1.376 . S
C677 C676 1.392 . S
C677 H689 0.929 . S
C678 C674 1.531 . S
C678 H690 0.960 . S
C678 H691 0.962 . S
C678 H692 0.960 . S
C679 C676 1.511 . S
C679 H693 0.961 . S
C679 H694 0.961 . S
C679 H695 0.961 . S
C680 C681 1.370 . S
C680 C682 1.363 . S
C680 H696 0.931 . S
C681 C680 1.370 . S
C681 C685 1.408 . S
C682 C680 1.363 . S
C682 C683 1.370 . S
C682 C686 1.524 . S
C683 C675 1.503 . S
C683 C682 1.370 . S
C683 C684 1.403 . S
C684 C683 1.403 . S
C684 C685 1.404 . S
C684 C687 1.539 . S
C685 C681 1.408 . S
C685 C684 1.404 . S
C685 H697 0.930 . S
C686 C682 1.524 . S
C686 H698 0.956 . S
C686 H699 0.961 . S
C686 H700 0.961 . S
C687 C684 1.539 . S
C687 H701 0.958 . S
C687 H702 0.961 . S
C687 H703 0.960 . S
H688 C672 0.931 . S
H689 C677 0.929 . S
H690 C678 0.960 . S
H691 C678 0.962 . S
H692 C678 0.960 . S
H693 C679 0.961 . S
H694 C679 0.961 . S
H695 C679 0.961 . S
H696 C680 0.931 . S
H697 C685 0.930 . S
H698 C686 0.956 . S
H699 C686 0.961 . S
H700 C686 0.961 . S
H701 C687 0.958 . S
H702 C687 0.961 . S
H703 C687 0.960 . S
C704 C705 1.391 . S
C704 C706 1.394 . S
C704 H720 0.931 . S
C705 C704 1.391 . S
C705 C709 1.376 . S
C706 C704 1.394 . S
C706 C707 1.369 . S
C706 C710 1.531 . S
C707 C706 1.369 . S
C707 C708 1.410 . S
C707 C715 1.503 . S
C708 C707 1.410 . S
C708 C709 1.392 . S
C708 C711 1.511 . S
C709 C705 1.376 . S
C709 C708 1.392 . S
C709 H721 0.929 . S
C710 C706 1.531 . S
C710 H722 0.960 . S
C710 H723 0.962 . S
C710 H724 0.960 . S
C711 C708 1.511 . S
C711 H725 0.961 . S
C711 H726 0.961 . S
C711 H727 0.961 . S
C712 C713 1.370 . S
C712 C714 1.363 . S
C712 H728 0.931 . S
C713 C712 1.370 . S
C713 C717 1.408 . S
C714 C712 1.363 . S
C714 C715 1.370 . S
C714 C718 1.524 . S
C715 C707 1.503 . S
C715 C714 1.370 . S
C715 C716 1.403 . S
C716 C715 1.403 . S
C716 C717 1.404 . S
C716 C719 1.539 . S
C717 C713 1.408 . S
C717 C716 1.404 . S
C717 H729 0.930 . S
C718 C714 1.524 . S
C718 H730 0.956 . S
C718 H731 0.961 . S
C718 H732 0.961 . S
C719 C716 1.539 . S
C719 H733 0.958 . S
C719 H734 0.961 . S
C719 H735 0.960 . S
H720 C704 0.931 . S
H721 C709 0.929 . S
H722 C710 0.960 . S
H723 C710 0.962 . S
H724 C710 0.960 . S
H725 C711 0.961 . S
H726 C711 0.961 . S
H727 C711 0.961 . S
H728 C712 0.931 . S
H729 C717 0.930 . S
H730 C718 0.956 . S
H731 C718 0.961 . S
H732 C718 0.961 . S
H733 C719 0.958 . S
H734 C719 0.961 . S
H735 C719 0.960 . S
C736 C737 1.391 . S
C736 C738 1.394 . S
C736 H752 0.931 . S
C737 C736 1.391 . S
C737 C741 1.376 . S
C738 C736 1.394 . S
C738 C739 1.369 . S
C738 C742 1.531 . S
C739 C738 1.369 . S
C739 C740 1.410 . S
C739 C747 1.503 . S
C740 C739 1.410 . S
C740 C741 1.392 . S
C740 C743 1.511 . S
C741 C737 1.376 . S
C741 C740 1.392 . S
C741 H753 0.929 . S
C742 C738 1.531 . S
C742 H754 0.960 . S
C742 H755 0.962 . S
C742 H756 0.960 . S
C743 C740 1.511 . S
C743 H757 0.961 . S
C743 H758 0.961 . S
C743 H759 0.961 . S
C744 C745 1.370 . S
C744 C746 1.363 . S
C744 H760 0.931 . S
C745 C744 1.370 . S
C745 C749 1.408 . S
C746 C744 1.363 . S
C746 C747 1.370 . S
C746 C750 1.524 . S
C747 C739 1.503 . S
C747 C746 1.370 . S
C747 C748 1.403 . S
C748 C747 1.403 . S
C748 C749 1.404 . S
C748 C751 1.539 . S
C749 C745 1.408 . S
C749 C748 1.404 . S
C749 H761 0.930 . S
C750 C746 1.524 . S
C750 H762 0.956 . S
C750 H763 0.961 . S
C750 H764 0.961 . S
C751 C748 1.539 . S
C751 H765 0.958 . S
C751 H766 0.961 . S
C751 H767 0.960 . S
H752 C736 0.931 . S
H753 C741 0.929 . S
H754 C742 0.960 . S
H755 C742 0.962 . S
H756 C742 0.960 . S
H757 C743 0.961 . S
H758 C743 0.961 . S
H759 C743 0.961 . S
H760 C744 0.931 . S
H761 C749 0.930 . S
H762 C750 0.956 . S
H763 C750 0.961 . S
H764 C750 0.961 . S
H765 C751 0.958 . S
H766 C751 0.961 . S
H767 C751 0.960 . S
C768 C769 1.391 . S
C768 C770 1.394 . S
C768 H784 0.931 . S
C769 C768 1.391 . S
C769 C773 1.376 . S
C770 C768 1.394 . S
C770 C771 1.369 . S
C770 C774 1.531 . S
C771 C770 1.369 . S
C771 C772 1.410 . S
C771 C779 1.503 . S
C772 C771 1.410 . S
C772 C773 1.392 . S
C772 C775 1.511 . S
C773 C769 1.376 . S
C773 C772 1.392 . S
C773 H785 0.929 . S
C774 C770 1.531 . S
C774 H786 0.960 . S
C774 H787 0.962 . S
C774 H788 0.960 . S
C775 C772 1.511 . S
C775 H789 0.961 . S
C775 H790 0.961 . S
C775 H791 0.961 . S
C776 C777 1.370 . S
C776 C778 1.363 . S
C776 H792 0.931 . S
C777 C776 1.370 . S
C777 C781 1.408 . S
C778 C776 1.363 . S
C778 C779 1.370 . S
C778 C782 1.524 . S
C779 C771 1.503 . S
C779 C778 1.370 . S
C779 C780 1.403 . S
C780 C779 1.403 . S
C780 C781 1.404 . S
C780 C783 1.539 . S
C781 C777 1.408 . S
C781 C780 1.404 . S
C781 H793 0.930 . S
C782 C778 1.524 . S
C782 H794 0.956 . S
C782 H795 0.961 . S
C782 H796 0.961 . S
C783 C780 1.539 . S
C783 H797 0.958 . S
C783 H798 0.961 . S
C783 H799 0.960 . S
H784 C768 0.931 . S
H785 C773 0.929 . S
H786 C774 0.960 . S
H787 C774 0.962 . S
H788 C774 0.960 . S
H789 C775 0.961 . S
H790 C775 0.961 . S
H791 C775 0.961 . S
H792 C776 0.931 . S
H793 C781 0.930 . S
H794 C782 0.956 . S
H795 C782 0.961 . S
H796 C782 0.961 . S
H797 C783 0.958 . S
H798 C783 0.961 . S
H799 C783 0.960 . S
C800 C801 1.391 . S
C800 C802 1.394 . S
C800 H816 0.931 . S
C801 C800 1.391 . S
C801 C805 1.376 . S
C802 C800 1.394 . S
C802 C803 1.369 . S
C802 C806 1.531 . S
C803 C802 1.369 . S
C803 C804 1.410 . S
C803 C811 1.503 . S
C804 C803 1.410 . S
C804 C805 1.392 . S
C804 C807 1.511 . S
C805 C801 1.376 . S
C805 C804 1.392 . S
C805 H817 0.929 . S
C806 C802 1.531 . S
C806 H818 0.960 . S
C806 H819 0.962 . S
C806 H820 0.960 . S
C807 C804 1.511 . S
C807 H821 0.961 . S
C807 H822 0.961 . S
C807 H823 0.961 . S
C808 C809 1.370 . S
C808 C810 1.363 . S
C808 H824 0.931 . S
C809 C808 1.370 . S
C809 C813 1.408 . S
C810 C808 1.363 . S
C810 C811 1.370 . S
C810 C814 1.524 . S
C811 C803 1.503 . S
C811 C810 1.370 . S
C811 C812 1.403 . S
C812 C811 1.403 . S
C812 C813 1.404 . S
C812 C815 1.539 . S
C813 C809 1.408 . S
C813 C812 1.404 . S
C813 H825 0.930 . S
C814 C810 1.524 . S
C814 H826 0.956 . S
C814 H827 0.961 . S
C814 H828 0.961 . S
C815 C812 1.539 . S
C815 H829 0.958 . S
C815 H830 0.961 . S
C815 H831 0.960 . S
H816 C800 0.931 . S
H817 C805 0.929 . S
H818 C806 0.960 . S
H819 C806 0.962 . S
H820 C806 0.960 . S
H821 C807 0.961 . S
H822 C807 0.961 . S
H823 C807 0.961 . S
H824 C808 0.931 . S
H825 C813 0.930 . S
H826 C814 0.956 . S
H827 C814 0.961 . S
H828 C814 0.961 . S
H829 C815 0.958 . S
H830 C815 0.961 . S
H831 C815 0.960 . S
C832 C833 1.391 . S
C832 C834 1.394 . S
C832 H848 0.931 . S
C833 C832 1.391 . S
C833 C837 1.376 . S
C834 C832 1.394 . S
C834 C835 1.369 . S
C834 C838 1.531 . S
C835 C834 1.369 . S
C835 C836 1.410 . S
C835 C843 1.503 . S
C836 C835 1.410 . S
C836 C837 1.392 . S
C836 C839 1.511 . S
C837 C833 1.376 . S
C837 C836 1.392 . S
C837 H849 0.929 . S
C838 C834 1.531 . S
C838 H850 0.960 . S
C838 H851 0.962 . S
C838 H852 0.960 . S
C839 C836 1.511 . S
C839 H853 0.974 . S
C839 H854 0.961 . S
C839 H855 0.961 . S
C840 C841 1.370 . S
C840 C842 1.363 . S
C840 H856 0.931 . S
C841 C840 1.370 . S
C841 C845 1.408 . S
C842 C840 1.363 . S
C842 C843 1.370 . S
C842 C846 1.524 . S
C843 C835 1.503 . S
C843 C842 1.370 . S
C843 C844 1.403 . S
C844 C843 1.403 . S
C844 C845 1.404 . S
C844 C847 1.539 . S
C845 C841 1.408 . S
C845 C844 1.404 . S
C845 H857 0.930 . S
C846 C842 1.524 . S
C846 H858 0.956 . S
C846 H859 0.961 . S
C846 H860 0.961 . S
C847 C844 1.539 . S
C847 H861 0.958 . S
C847 H862 0.961 . S
C847 H863 0.960 . S
H848 C832 0.931 . S
H849 C837 0.929 . S
H850 C838 0.960 . S
H851 C838 0.962 . S
H852 C838 0.960 . S
H853 C839 0.974 . S
H854 C839 0.961 . S
H855 C839 0.961 . S
H856 C840 0.931 . S
H857 C845 0.930 . S
H858 C846 0.956 . S
H859 C846 0.961 . S
H860 C846 0.961 . S
H861 C847 0.958 . S
H862 C847 0.961 . S
H863 C847 0.960 . S
C864 C865 1.391 . S
C864 C866 1.394 . S
C864 H880 0.931 . S
C865 C864 1.391 . S
C865 C869 1.376 . S
C866 C864 1.394 . S
C866 C867 1.369 . S
C866 C870 1.531 . S
C867 C866 1.369 . S
C867 C868 1.410 . S
C867 C875 1.503 . S
C868 C867 1.410 . S
C868 C869 1.392 . S
C868 C871 1.511 . S
C869 C865 1.376 . S
C869 C868 1.392 . S
C869 H881 0.929 . S
C870 C866 1.531 . S
C870 H882 0.960 . S
C870 H883 0.962 . S
C870 H884 0.960 . S
C871 C868 1.511 . S
C871 H885 0.961 . S
C871 H886 0.961 . S
C871 H887 0.961 . S
C872 C873 1.370 . S
C872 C874 1.363 . S
C872 H888 0.931 . S
C873 C872 1.370 . S
C873 C877 1.408 . S
C874 C872 1.363 . S
C874 C875 1.370 . S
C874 C878 1.524 . S
C875 C867 1.503 . S
C875 C874 1.370 . S
C875 C876 1.403 . S
C876 C875 1.403 . S
C876 C877 1.404 . S
C876 C879 1.539 . S
C877 C873 1.408 . S
C877 C876 1.404 . S
C877 H889 0.930 . S
C878 C874 1.524 . S
C878 H890 0.956 . S
C878 H891 0.961 . S
C878 H892 0.961 . S
C879 C876 1.539 . S
C879 H893 0.958 . S
C879 H894 0.961 . S
C879 H895 0.960 . S
H880 C864 0.931 . S
H881 C869 0.929 . S
H882 C870 0.960 . S
H883 C870 0.962 . S
H884 C870 0.960 . S
H885 C871 0.961 . S
H886 C871 0.961 . S
H887 C871 0.961 . S
H888 C872 0.931 . S
H889 C877 0.930 . S
H890 C878 0.956 . S
H891 C878 0.961 . S
H892 C878 0.961 . S
H893 C879 0.958 . S
H894 C879 0.961 . S
H895 C879 0.960 . S
C896 C897 1.391 . S
C896 C898 1.394 . S
C896 H912 0.931 . S
C897 C896 1.391 . S
C897 C901 1.376 . S
C898 C896 1.394 . S
C898 C899 1.369 . S
C898 C902 1.531 . S
C899 C898 1.369 . S
C899 C900 1.410 . S
C899 C907 1.503 . S
C900 C899 1.410 . S
C900 C901 1.392 . S
C900 C903 1.511 . S
C901 C897 1.376 . S
C901 C900 1.392 . S
C901 H913 0.929 . S
C902 C898 1.531 . S
C902 H914 0.960 . S
C902 H915 0.962 . S
C902 H916 0.960 . S
C903 C900 1.511 . S
C903 H917 0.961 . S
C903 H918 0.961 . S
C903 H919 0.961 . S
C904 C905 1.370 . S
C904 C906 1.363 . S
C904 H920 0.931 . S
C905 C904 1.370 . S
C905 C909 1.408 . S
C906 C904 1.363 . S
C906 C907 1.370 . S
C906 C910 1.524 . S
C907 C899 1.503 . S
C907 C906 1.370 . S
C907 C908 1.403 . S
C908 C907 1.403 . S
C908 C909 1.404 . S
C908 C911 1.539 . S
C909 C905 1.408 . S
C909 C908 1.404 . S
C909 H921 0.930 . S
C910 C906 1.524 . S
C910 H922 0.956 . S
C910 H923 0.961 . S
C910 H924 0.961 1_655 S
C911 C908 1.539 . S
C911 H925 0.958 . S
C911 H926 0.961 . S
C911 H927 0.960 . S
H912 C896 0.931 . S
H913 C901 0.929 . S
H914 C902 0.960 . S
H915 C902 0.962 . S
H916 C902 0.960 . S
H917 C903 0.961 . S
H918 C903 0.961 . S
H919 C903 0.961 . S
H920 C904 0.931 . S
H921 C909 0.930 . S
H922 C910 0.956 . S
H923 C910 0.961 . S
H924 C910 0.961 1_455 S
H925 C911 0.958 . S
H926 C911 0.961 . S
H927 C911 0.960 . S
C928 C929 1.391 . S
C928 C930 1.394 . S
C928 H944 0.931 . S
C929 C928 1.391 . S
C929 C933 1.376 . S
C930 C928 1.394 . S
C930 C931 1.369 . S
C930 C934 1.531 . S
C931 C930 1.369 . S
C931 C932 1.410 . S
C931 C939 1.503 . S
C932 C931 1.410 . S
C932 C933 1.392 . S
C932 C935 1.511 . S
C933 C929 1.376 . S
C933 C932 1.392 . S
C933 H945 0.929 . S
C934 C930 1.531 . S
C934 H946 0.960 . S
C934 H947 0.962 . S
C934 H948 0.960 . S
C935 C932 1.511 . S
C935 H949 0.961 . S
C935 H950 0.961 . S
C935 H951 0.961 . S
C936 C937 1.370 . S
C936 C938 1.363 . S
C936 H952 0.931 . S
C937 C936 1.370 . S
C937 C941 1.408 . S
C938 C936 1.363 . S
C938 C939 1.370 . S
C938 C942 1.524 . S
C939 C931 1.503 . S
C939 C938 1.370 . S
C939 C940 1.403 . S
C940 C939 1.403 . S
C940 C941 1.404 . S
C940 C943 1.539 . S
C941 C937 1.408 . S
C941 C940 1.404 . S
C941 H953 0.930 . S
C942 C938 1.524 . S
C942 H954 0.956 . S
C942 H955 0.961 . S
C942 H956 0.961 . S
C943 C940 1.539 . S
C943 H957 0.958 . S
C943 H958 0.961 . S
C943 H959 0.960 . S
H944 C928 0.931 . S
H945 C933 0.929 . S
H946 C934 0.960 . S
H947 C934 0.962 . S
H948 C934 0.960 . S
H949 C935 0.961 . S
H950 C935 0.961 . S
H951 C935 0.961 . S
H952 C936 0.931 . S
H953 C941 0.930 . S
H954 C942 0.956 . S
H955 C942 0.961 . S
H956 C942 0.961 . S
H957 C943 0.958 . S
H958 C943 0.961 . S
H959 C943 0.960 . S
C960 C961 1.391 . S
C960 C962 1.394 . S
C960 H976 0.931 . S
C961 C960 1.391 . S
C961 C965 1.376 . S
C962 C960 1.394 . S
C962 C963 1.369 . S
C962 C966 1.531 . S
C963 C962 1.369 . S
C963 C964 1.410 . S
C963 C971 1.503 . S
C964 C963 1.410 . S
C964 C965 1.392 . S
C964 C967 1.511 . S
C965 C961 1.376 . S
C965 C964 1.392 . S
C965 H977 0.929 . S
C966 C962 1.531 . S
C966 H978 0.960 . S
C966 H979 0.962 . S
C966 H980 0.960 . S
C967 C964 1.511 . S
C967 H981 0.961 . S
C967 H982 0.961 . S
C967 H983 0.961 . S
C968 C969 1.370 . S
C968 C970 1.363 . S
C968 H984 0.931 . S
C969 C968 1.370 . S
C969 C973 1.408 . S
C970 C968 1.363 . S
C970 C971 1.370 . S
C970 C974 1.524 . S
C971 C963 1.503 . S
C971 C970 1.370 . S
C971 C972 1.403 . S
C972 C971 1.403 . S
C972 C973 1.404 . S
C972 C975 1.539 . S
C973 C969 1.408 . S
C973 C972 1.404 . S
C973 H985 0.930 . S
C974 C970 1.524 . S
C974 H986 0.956 . S
C974 H987 0.961 . S
C974 H988 0.961 . S
C975 C972 1.539 . S
C975 H989 0.958 . S
C975 H990 0.961 . S
C975 H991 0.960 . S
H976 C960 0.931 . S
H977 C965 0.929 . S
H978 C966 0.960 . S
H979 C966 0.962 . S
H980 C966 0.960 . S
H981 C967 0.961 . S
H982 C967 0.961 . S
H983 C967 0.961 . S
H984 C968 0.931 . S
H985 C973 0.930 . S
H986 C974 0.956 . S
H987 C974 0.961 . S
H988 C974 0.961 . S
H989 C975 0.958 . S
H990 C975 0.961 . S
H991 C975 0.960 . S
C992 C993 1.391 . S
C992 C994 1.394 . S
C992 H1008 0.931 . S
C993 C992 1.391 . S
C993 C997 1.376 . S
C994 C992 1.394 . S
C994 C995 1.369 . S
C994 C998 1.531 . S
C995 C994 1.369 . S
C995 C996 1.410 . S
C995 C1003 1.503 . S
C996 C995 1.410 . S
C996 C997 1.392 . S
C996 C999 1.511 . S
C997 C993 1.376 . S
C997 C996 1.392 . S
C997 H1009 0.929 . S
C998 C994 1.531 . S
C998 H1010 0.960 . S
C998 H1011 0.962 . S
C998 H1012 0.960 . S
C999 C996 1.511 . S
C999 H1013 0.961 . S
C999 H1014 0.961 . S
C999 H1015 0.961 . S
C1000 C1001 1.370 . S
C1000 C1002 1.363 . S
C1000 H1016 0.931 . S
C1001 C1000 1.370 . S
C1001 C1005 1.408 . S
C1002 C1000 1.363 . S
C1002 C1003 1.370 . S
C1002 C1006 1.524 . S
C1003 C995 1.503 . S
C1003 C1002 1.370 . S
C1003 C1004 1.403 . S
C1004 C1003 1.403 . S
C1004 C1005 1.404 . S
C1004 C1007 1.539 . S
C1005 C1001 1.408 . S
C1005 C1004 1.404 . S
C1005 H1017 0.930 . S
C1006 C1002 1.524 . S
C1006 H1018 0.956 . S
C1006 H1019 0.961 . S
C1006 H1020 0.961 . S
C1007 C1004 1.539 . S
C1007 H1021 0.958 . S
C1007 H1022 0.961 . S
C1007 H1023 0.960 . S
H1008 C992 0.931 . S
H1009 C997 0.929 . S
H1010 C998 0.960 . S
H1011 C998 0.962 . S
H1012 C998 0.960 . S
H1013 C999 0.961 . S
H1014 C999 0.961 . S
H1015 C999 0.961 . S
H1016 C1000 0.931 . S
H1017 C1005 0.930 . S
H1018 C1006 0.956 . S
H1019 C1006 0.961 . S
H1020 C1006 0.961 . S
H1021 C1007 0.958 . S
H1022 C1007 0.961 . S
H1023 C1007 0.960 . S
C1024 C1025 1.391 . S
C1024 C1026 1.394 . S
C1024 H1040 0.931 . S
C1025 C1024 1.391 . S
C1025 C1029 1.376 . S
C1026 C1024 1.394 . S
C1026 C1027 1.369 . S
C1026 C1030 1.531 . S
C1027 C1026 1.369 . S
C1027 C1028 1.410 . S
C1027 C1035 1.503 . S
C1028 C1027 1.410 . S
C1028 C1029 1.392 . S
C1028 C1031 1.511 . S
C1029 C1025 1.376 . S
C1029 C1028 1.392 . S
C1029 H1041 0.929 . S
C1030 C1026 1.531 . S
C1030 H1042 0.960 . S
C1030 H1043 0.962 . S
C1030 H1044 0.960 . S
C1031 C1028 1.511 . S
C1031 H1045 0.961 . S
C1031 H1046 0.961 . S
C1031 H1047 0.961 . S
C1032 C1033 1.370 . S
C1032 C1034 1.363 . S
C1032 H1048 0.931 . S
C1033 C1032 1.370 . S
C1033 C1037 1.408 . S
C1034 C1032 1.363 . S
C1034 C1035 1.370 . S
C1034 C1038 1.524 . S
C1035 C1027 1.503 . S
C1035 C1034 1.370 . S
C1035 C1036 1.403 . S
C1036 C1035 1.403 . S
C1036 C1037 1.404 . S
C1036 C1039 1.539 . S
C1037 C1033 1.408 . S
C1037 C1036 1.404 . S
C1037 H1049 0.930 . S
C1038 C1034 1.524 . S
C1038 H1050 0.956 . S
C1038 H1051 0.961 . S
C1038 H1052 0.961 . S
C1039 C1036 1.539 . S
C1039 H1053 0.958 . S
C1039 H1054 0.961 . S
C1039 H1055 0.960 . S
H1040 C1024 0.931 . S
H1041 C1029 0.929 . S
H1042 C1030 0.960 . S
H1043 C1030 0.962 . S
H1044 C1030 0.960 . S
H1045 C1031 0.961 . S
H1046 C1031 0.961 . S
H1047 C1031 0.961 . S
H1048 C1032 0.931 . S
H1049 C1037 0.930 . S
H1050 C1038 0.956 . S
H1051 C1038 0.961 . S
H1052 C1038 0.961 . S
H1053 C1039 0.958 . S
H1054 C1039 0.961 . S
H1055 C1039 0.960 . S
C1056 C1057 1.391 . S
C1056 C1058 1.394 . S
C1056 H1072 0.931 . S
C1057 C1056 1.391 . S
C1057 C1061 1.376 . S
C1058 C1056 1.394 . S
C1058 C1059 1.369 . S
C1058 C1062 1.531 . S
C1059 C1058 1.369 . S
C1059 C1060 1.410 . S
C1059 C1067 1.503 . S
C1060 C1059 1.410 . S
C1060 C1061 1.392 . S
C1060 C1063 1.511 . S
C1061 C1057 1.376 . S
C1061 C1060 1.392 . S
C1061 H1073 0.929 . S
C1062 C1058 1.531 . S
C1062 H1074 0.960 . S
C1062 H1075 0.962 . S
C1062 H1076 0.960 . S
C1063 C1060 1.511 . S
C1063 H1077 0.961 . S
C1063 H1078 0.961 . S
C1063 H1079 0.961 . S
C1064 C1065 1.370 . S
C1064 C1066 1.363 . S
C1064 H1080 0.931 . S
C1065 C1064 1.370 . S
C1065 C1069 1.408 . S
C1066 C1064 1.363 . S
C1066 C1067 1.370 . S
C1066 C1070 1.524 . S
C1067 C1059 1.503 . S
C1067 C1066 1.370 . S
C1067 C1068 1.403 . S
C1068 C1067 1.403 . S
C1068 C1069 1.404 . S
C1068 C1071 1.539 . S
C1069 C1065 1.408 . S
C1069 C1068 1.404 . S
C1069 H1081 0.930 . S
C1070 C1066 1.524 . S
C1070 H1082 0.956 . S
C1070 H1083 0.961 . S
C1070 H1084 0.961 . S
C1071 C1068 1.539 . S
C1071 H1085 0.958 . S
C1071 H1086 0.961 . S
C1071 H1087 0.960 . S
H1072 C1056 0.931 . S
H1073 C1061 0.929 . S
H1074 C1062 0.960 . S
H1075 C1062 0.962 . S
H1076 C1062 0.960 . S
H1077 C1063 0.961 . S
H1078 C1063 0.961 . S
H1079 C1063 0.961 . S
H1080 C1064 0.931 . S
H1081 C1069 0.930 . S
H1082 C1070 0.956 . S
H1083 C1070 0.961 . S
H1084 C1070 0.961 . S
H1085 C1071 0.958 . S
H1086 C1071 0.961 . S
H1087 C1071 0.960 . S
C1088 C1089 1.391 . S
C1088 C1090 1.394 . S
C1088 H1104 0.931 . S
C1089 C1088 1.391 . S
C1089 C1093 1.376 . S
C1090 C1088 1.394 . S
C1090 C1091 1.369 . S
C1090 C1094 1.531 . S
C1091 C1090 1.369 . S
C1091 C1092 1.410 . S
C1091 C1099 1.503 . S
C1092 C1091 1.410 . S
C1092 C1093 1.392 . S
C1092 C1095 1.511 . S
C1093 C1089 1.376 . S
C1093 C1092 1.392 . S
C1093 H1105 0.929 1_545 S
C1094 C1090 1.531 . S
C1094 H1106 0.960 . S
C1094 H1107 0.962 . S
C1094 H1108 0.960 . S
C1095 C1092 1.511 . S
C1095 H1109 0.961 1_545 S
C1095 H1110 0.961 . S
C1095 H1111 0.961 . S
C1096 C1097 1.370 . S
C1096 C1098 1.363 . S
C1096 H1112 0.931 . S
C1097 C1096 1.370 . S
C1097 C1101 1.408 . S
C1098 C1096 1.363 . S
C1098 C1099 1.370 . S
C1098 C1102 1.524 . S
C1099 C1091 1.503 . S
C1099 C1098 1.370 . S
C1099 C1100 1.403 . S
C1100 C1099 1.403 . S
C1100 C1101 1.404 . S
C1100 C1103 1.539 1_556 S
C1101 C1097 1.408 . S
C1101 C1100 1.404 . S
C1101 H1113 0.930 . S
C1102 C1098 1.524 . S
C1102 H1114 0.956 . S
C1102 H1115 0.961 . S
C1102 H1116 0.961 . S
C1103 C1100 1.539 1_554 S
C1103 H1117 0.958 . S
C1103 H1118 0.961 . S
C1103 H1119 0.960 . S
H1104 C1088 0.931 . S
H1105 C1093 0.929 1_565 S
H1106 C1094 0.960 . S
H1107 C1094 0.962 . S
H1108 C1094 0.960 . S
H1109 C1095 0.961 1_565 S
H1110 C1095 0.961 . S
H1111 C1095 0.961 . S
H1112 C1096 0.931 . S
H1113 C1101 0.930 . S
H1114 C1102 0.956 . S
H1115 C1102 0.961 . S
H1116 C1102 0.961 . S
H1117 C1103 0.958 . S
H1118 C1103 0.961 . S
H1119 C1103 0.960 . S
C1120 C1121 1.391 . S
C1120 C1122 1.394 . S
C1120 H1136 0.931 . S
C1121 C1120 1.391 . S
C1121 C1125 1.376 . S
C1122 C1120 1.394 . S
C1122 C1123 1.369 . S
C1122 C1126 1.531 . S
C1123 C1122 1.369 . S
C1123 C1124 1.410 . S
C1123 C1131 1.503 . S
C1124 C1123 1.410 . S
C1124 C1125 1.392 . S
C1124 C1127 1.511 . S
C1125 C1121 1.376 . S
C1125 C1124 1.392 . S
C1125 H1137 0.929 . S
C1126 C1122 1.531 . S
C1126 H1138 0.960 . S
C1126 H1139 0.962 . S
C1126 H1140 0.960 . S
C1127 C1124 1.511 . S
C1127 H1141 0.961 . S
C1127 H1142 0.961 . S
C1127 H1143 0.961 . S
C1128 C1129 1.370 . S
C1128 C1130 1.363 . S
C1128 H1144 0.931 . S
C1129 C1128 1.370 . S
C1129 C1133 1.408 . S
C1130 C1128 1.363 . S
C1130 C1131 1.370 . S
C1130 C1134 1.524 . S
C1131 C1123 1.503 . S
C1131 C1130 1.370 . S
C1131 C1132 1.403 . S
C1132 C1131 1.403 . S
C1132 C1133 1.404 . S
C1132 C1135 1.539 . S
C1133 C1129 1.408 . S
C1133 C1132 1.404 . S
C1133 H1145 0.930 . S
C1134 C1130 1.524 . S
C1134 H1146 0.956 . S
C1134 H1147 0.961 . S
C1134 H1148 0.961 . S
C1135 C1132 1.539 . S
C1135 H1149 0.958 . S
C1135 H1150 0.961 . S
C1135 H1151 0.960 . S
H1136 C1120 0.931 . S
H1137 C1125 0.929 . S
H1138 C1126 0.960 . S
H1139 C1126 0.962 . S
H1140 C1126 0.960 . S
H1141 C1127 0.961 . S
H1142 C1127 0.961 . S
H1143 C1127 0.961 . S
H1144 C1128 0.931 . S
H1145 C1133 0.930 . S
H1146 C1134 0.956 . S
H1147 C1134 0.961 . S
H1148 C1134 0.961 . S
H1149 C1135 0.958 . S
H1150 C1135 0.961 . S
H1151 C1135 0.960 . S
C1152 C1153 1.391 . S
C1152 C1154 1.394 . S
C1152 H1168 0.931 . S
C1153 C1152 1.391 . S
C1153 C1157 1.376 . S
C1154 C1152 1.394 . S
C1154 C1155 1.369 . S
C1154 C1158 1.531 . S
C1155 C1154 1.369 . S
C1155 C1156 1.410 . S
C1155 C1163 1.503 . S
C1156 C1155 1.410 . S
C1156 C1157 1.392 . S
C1156 C1159 1.511 . S
C1157 C1153 1.376 . S
C1157 C1156 1.392 . S
C1157 H1169 0.929 . S
C1158 C1154 1.531 . S
C1158 H1170 0.960 . S
C1158 H1171 0.962 . S
C1158 H1172 0.960 . S
C1159 C1156 1.511 . S
C1159 H1173 0.961 . S
C1159 H1174 0.961 . S
C1159 H1175 0.961 . S
C1160 C1161 1.370 . S
C1160 C1162 1.363 . S
C1160 H1176 0.931 . S
C1161 C1160 1.370 . S
C1161 C1165 1.408 . S
C1162 C1160 1.363 . S
C1162 C1163 1.370 . S
C1162 C1166 1.524 . S
C1163 C1155 1.503 . S
C1163 C1162 1.370 . S
C1163 C1164 1.403 . S
C1164 C1163 1.403 . S
C1164 C1165 1.404 . S
C1164 C1167 1.539 . S
C1165 C1161 1.408 . S
C1165 C1164 1.404 . S
C1165 H1177 0.930 . S
C1166 C1162 1.524 . S
C1166 H1178 0.956 . S
C1166 H1179 0.961 . S
C1166 H1180 0.961 . S
C1167 C1164 1.539 . S
C1167 H1181 0.958 . S
C1167 H1182 0.961 . S
C1167 H1183 0.960 . S
H1168 C1152 0.931 . S
H1169 C1157 0.929 . S
H1170 C1158 0.960 . S
H1171 C1158 0.962 . S
H1172 C1158 0.960 . S
H1173 C1159 0.961 . S
H1174 C1159 0.961 . S
H1175 C1159 0.961 . S
H1176 C1160 0.931 . S
H1177 C1165 0.930 . S
H1178 C1166 0.956 . S
H1179 C1166 0.961 . S
H1180 C1166 0.961 . S
H1181 C1167 0.958 . S
H1182 C1167 0.961 . S
H1183 C1167 0.960 . S
C1184 C1185 1.391 . S
C1184 C1186 1.394 . S
C1184 H1200 0.931 . S
C1185 C1184 1.391 . S
C1185 C1189 1.376 . S
C1186 C1184 1.394 . S
C1186 C1187 1.369 . S
C1186 C1190 1.531 . S
C1187 C1186 1.369 . S
C1187 C1188 1.410 . S
C1187 C1195 1.503 . S
C1188 C1187 1.410 . S
C1188 C1189 1.392 . S
C1188 C1191 1.511 . S
C1189 C1185 1.376 . S
C1189 C1188 1.392 . S
C1189 H1201 0.929 . S
C1190 C1186 1.531 . S
C1190 H1202 0.960 . S
C1190 H1203 0.962 . S
C1190 H1204 0.960 . S
C1191 C1188 1.511 . S
C1191 H1205 0.961 . S
C1191 H1206 0.961 . S
C1191 H1207 0.961 . S
C1192 C1193 1.370 . S
C1192 C1194 1.363 . S
C1192 H1208 0.931 . S
C1193 C1192 1.370 . S
C1193 C1197 1.408 . S
C1194 C1192 1.363 . S
C1194 C1195 1.370 . S
C1194 C1198 1.524 . S
C1195 C1187 1.503 . S
C1195 C1194 1.370 . S
C1195 C1196 1.403 . S
C1196 C1195 1.403 . S
C1196 C1197 1.404 . S
C1196 C1199 1.539 . S
C1197 C1193 1.408 . S
C1197 C1196 1.404 . S
C1197 H1209 0.930 . S
C1198 C1194 1.524 . S
C1198 H1210 0.956 . S
C1198 H1211 0.961 . S
C1198 H1212 0.961 . S
C1199 C1196 1.539 . S
C1199 H1213 0.958 . S
C1199 H1214 0.961 . S
C1199 H1215 0.960 . S
H1200 C1184 0.931 . S
H1201 C1189 0.929 . S
H1202 C1190 0.960 . S
H1203 C1190 0.962 . S
H1204 C1190 0.960 . S
H1205 C1191 0.961 . S
H1206 C1191 0.961 . S
H1207 C1191 0.961 . S
H1208 C1192 0.931 . S
H1209 C1197 0.930 . S
H1210 C1198 0.956 . S
H1211 C1198 0.961 . S
H1212 C1198 0.961 . S
H1213 C1199 0.958 . S
H1214 C1199 0.961 . S
H1215 C1199 0.960 . S
C1216 C1217 1.391 . S
C1216 C1218 1.394 . S
C1216 H1232 0.931 . S
C1217 C1216 1.391 . S
C1217 C1221 1.376 . S
C1218 C1216 1.394 . S
C1218 C1219 1.369 . S
C1218 C1222 1.531 . S
C1219 C1218 1.369 . S
C1219 C1220 1.410 . S
C1219 C1227 1.503 . S
C1220 C1219 1.410 . S
C1220 C1221 1.392 . S
C1220 C1223 1.511 . S
C1221 C1217 1.376 . S
C1221 C1220 1.392 . S
C1221 H1233 0.929 . S
C1222 C1218 1.531 . S
C1222 H1234 0.960 . S
C1222 H1235 0.962 . S
C1222 H1236 0.960 . S
C1223 C1220 1.511 . S
C1223 H1237 0.961 . S
C1223 H1238 0.961 . S
C1223 H1239 0.961 . S
C1224 C1225 1.370 . S
C1224 C1226 1.363 . S
C1224 H1240 0.931 . S
C1225 C1224 1.370 . S
C1225 C1229 1.408 . S
C1226 C1224 1.363 . S
C1226 C1227 1.370 . S
C1226 C1230 1.524 . S
C1227 C1219 1.503 . S
C1227 C1226 1.370 . S
C1227 C1228 1.403 . S
C1228 C1227 1.403 . S
C1228 C1229 1.404 . S
C1228 C1231 1.539 . S
C1229 C1225 1.408 . S
C1229 C1228 1.404 . S
C1229 H1241 0.930 . S
C1230 C1226 1.524 . S
C1230 H1242 0.956 . S
C1230 H1243 0.961 . S
C1230 H1244 0.961 . S
C1231 C1228 1.539 . S
C1231 H1245 0.958 . S
C1231 H1246 0.961 . S
C1231 H1247 0.960 . S
H1232 C1216 0.931 . S
H1233 C1221 0.929 . S
H1234 C1222 0.960 . S
H1235 C1222 0.962 . S
H1236 C1222 0.960 . S
H1237 C1223 0.961 . S
H1238 C1223 0.961 . S
H1239 C1223 0.961 . S
H1240 C1224 0.931 . S
H1241 C1229 0.930 . S
H1242 C1230 0.956 . S
H1243 C1230 0.961 . S
H1244 C1230 0.961 . S
H1245 C1231 0.958 . S
H1246 C1231 0.961 . S
H1247 C1231 0.960 . S
C1248 C1249 1.391 . S
C1248 C1250 1.394 . S
C1248 H1264 0.931 . S
C1249 C1248 1.391 . S
C1249 C1253 1.376 . S
C1250 C1248 1.394 . S
C1250 C1251 1.369 . S
C1250 C1254 1.531 . S
C1251 C1250 1.369 . S
C1251 C1252 1.410 . S
C1251 C1259 1.503 . S
C1252 C1251 1.410 . S
C1252 C1253 1.392 . S
C1252 C1255 1.511 . S
C1253 C1249 1.376 . S
C1253 C1252 1.392 . S
C1253 H1265 0.929 . S
C1254 C1250 1.531 . S
C1254 H1266 0.960 . S
C1254 H1267 0.962 . S
C1254 H1268 0.960 . S
C1255 C1252 1.511 . S
C1255 H1269 0.961 . S
C1255 H1270 0.961 . S
C1255 H1271 0.961 . S
C1256 C1257 1.370 . S
C1256 C1258 1.363 . S
C1256 H1272 0.931 . S
C1257 C1256 1.370 . S
C1257 C1261 1.408 . S
C1258 C1256 1.363 . S
C1258 C1259 1.370 . S
C1258 C1262 1.524 . S
C1259 C1251 1.503 . S
C1259 C1258 1.370 . S
C1259 C1260 1.403 . S
C1260 C1259 1.403 . S
C1260 C1261 1.404 . S
C1260 C1263 1.539 . S
C1261 C1257 1.408 . S
C1261 C1260 1.404 . S
C1261 H1273 0.930 . S
C1262 C1258 1.524 . S
C1262 H1274 0.956 . S
C1262 H1275 0.961 . S
C1262 H1276 0.961 . S
C1263 C1260 1.539 . S
C1263 H1277 0.958 . S
C1263 H1278 0.961 . S
C1263 H1279 0.960 . S
H1264 C1248 0.931 . S
H1265 C1253 0.929 . S
H1266 C1254 0.960 . S
H1267 C1254 0.962 . S
H1268 C1254 0.960 . S
H1269 C1255 0.961 . S
H1270 C1255 0.961 . S
H1271 C1255 0.961 . S
H1272 C1256 0.931 . S
H1273 C1261 0.930 . S
H1274 C1262 0.956 . S
H1275 C1262 0.961 . S
H1276 C1262 0.961 . S
H1277 C1263 0.958 . S
H1278 C1263 0.961 . S
H1279 C1263 0.960 . S
C1280 C1281 1.391 . S
C1280 C1282 1.394 . S
C1280 H1296 0.931 . S
C1281 C1280 1.391 . S
C1281 C1285 1.376 . S
C1282 C1280 1.394 . S
C1282 C1283 1.369 . S
C1282 C1286 1.531 . S
C1283 C1282 1.369 . S
C1283 C1284 1.410 . S
C1283 C1291 1.503 . S
C1284 C1283 1.410 . S
C1284 C1285 1.392 . S
C1284 C1287 1.511 . S
C1285 C1281 1.376 . S
C1285 C1284 1.392 . S
C1285 H1297 0.929 . S
C1286 C1282 1.531 . S
C1286 H1298 0.960 . S
C1286 H1299 0.962 . S
C1286 H1300 0.960 . S
C1287 C1284 1.511 . S
C1287 H1301 0.961 . S
C1287 H1302 0.961 . S
C1287 H1303 0.961 . S
C1288 C1289 1.370 . S
C1288 C1290 1.363 . S
C1288 H1304 0.931 . S
C1289 C1288 1.370 . S
C1289 C1293 1.408 . S
C1290 C1288 1.363 . S
C1290 C1291 1.370 . S
C1290 C1294 1.524 . S
C1291 C1283 1.503 . S
C1291 C1290 1.370 . S
C1291 C1292 1.403 . S
C1292 C1291 1.403 . S
C1292 C1293 1.404 . S
C1292 C1295 1.539 . S
C1293 C1289 1.408 . S
C1293 C1292 1.404 . S
C1293 H1305 0.930 . S
C1294 C1290 1.524 . S
C1294 H1306 0.956 . S
C1294 H1307 0.961 . S
C1294 H1308 0.961 . S
C1295 C1292 1.539 . S
C1295 H1309 0.958 . S
C1295 H1310 0.961 . S
C1295 H1311 0.960 . S
H1296 C1280 0.931 . S
H1297 C1285 0.929 . S
H1298 C1286 0.960 . S
H1299 C1286 0.962 . S
H1300 C1286 0.960 . S
H1301 C1287 0.961 . S
H1302 C1287 0.961 . S
H1303 C1287 0.961 . S
H1304 C1288 0.931 . S
H1305 C1293 0.930 . S
H1306 C1294 0.956 . S
H1307 C1294 0.961 . S
H1308 C1294 0.961 . S
H1309 C1295 0.958 . S
H1310 C1295 0.961 . S
H1311 C1295 0.960 . S
C1312 C1313 1.391 . S
C1312 C1314 1.394 . S
C1312 H1328 0.931 . S
C1313 C1312 1.391 . S
C1313 C1317 1.376 . S
C1314 C1312 1.394 . S
C1314 C1315 1.369 . S
C1314 C1318 1.531 . S
C1315 C1314 1.369 . S
C1315 C1316 1.410 . S
C1315 C1323 1.503 . S
C1316 C1315 1.410 . S
C1316 C1317 1.392 . S
C1316 C1319 1.511 . S
C1317 C1313 1.376 . S
C1317 C1316 1.392 . S
C1317 H1329 0.929 . S
C1318 C1314 1.531 . S
C1318 H1330 0.960 . S
C1318 H1331 0.962 . S
C1318 H1332 0.960 . S
C1319 C1316 1.511 . S
C1319 H1333 0.961 . S
C1319 H1334 0.961 . S
C1319 H1335 0.961 . S
C1320 C1321 1.370 . S
C1320 C1322 1.363 . S
C1320 H1336 0.931 . S
C1321 C1320 1.370 . S
C1321 C1325 1.408 . S
C1322 C1320 1.363 . S
C1322 C1323 1.370 . S
C1322 C1326 1.524 . S
C1323 C1315 1.503 . S
C1323 C1322 1.370 . S
C1323 C1324 1.403 . S
C1324 C1323 1.403 . S
C1324 C1325 1.404 . S
C1324 C1327 1.539 . S
C1325 C1321 1.408 . S
C1325 C1324 1.404 . S
C1325 H1337 0.930 . S
C1326 C1322 1.524 . S
C1326 H1338 0.956 . S
C1326 H1339 0.961 . S
C1326 H1340 0.961 . S
C1327 C1324 1.539 . S
C1327 H1341 0.958 . S
C1327 H1342 0.961 . S
C1327 H1343 0.960 . S
H1328 C1312 0.931 . S
H1329 C1317 0.929 . S
H1330 C1318 0.960 . S
H1331 C1318 0.962 . S
H1332 C1318 0.960 . S
H1333 C1319 0.961 . S
H1334 C1319 0.961 . S
H1335 C1319 0.961 . S
H1336 C1320 0.931 . S
H1337 C1325 0.930 . S
H1338 C1326 0.956 . S
H1339 C1326 0.961 . S
H1340 C1326 0.961 . S
H1341 C1327 0.958 . S
H1342 C1327 0.961 . S
H1343 C1327 0.960 . S
C1344 C1345 1.391 . S
C1344 C1346 1.394 . S
C1344 H1360 0.931 . S
C1345 C1344 1.391 . S
C1345 C1349 1.376 . S
C1346 C1344 1.394 . S
C1346 C1347 1.369 . S
C1346 C1350 1.531 . S
C1347 C1346 1.369 . S
C1347 C1348 1.410 . S
C1347 C1355 1.503 . S
C1348 C1347 1.410 . S
C1348 C1349 1.392 . S
C1348 C1351 1.511 . S
C1349 C1345 1.376 . S
C1349 C1348 1.392 . S
C1349 H1361 0.929 . S
C1350 C1346 1.531 . S
C1350 H1362 0.960 . S
C1350 H1363 0.962 . S
C1350 H1364 0.960 . S
C1351 C1348 1.511 . S
C1351 H1365 0.961 . S
C1351 H1366 0.961 . S
C1351 H1367 0.961 . S
C1352 C1353 1.370 . S
C1352 C1354 1.363 . S
C1352 H1368 0.931 . S
C1353 C1352 1.370 . S
C1353 C1357 1.408 . S
C1354 C1352 1.363 . S
C1354 C1355 1.370 . S
C1354 C1358 1.524 . S
C1355 C1347 1.503 . S
C1355 C1354 1.370 . S
C1355 C1356 1.403 . S
C1356 C1355 1.403 . S
C1356 C1357 1.404 . S
C1356 C1359 1.539 . S
C1357 C1353 1.408 . S
C1357 C1356 1.404 . S
C1357 H1369 0.930 . S
C1358 C1354 1.524 . S
C1358 H1370 0.956 . S
C1358 H1371 0.961 . S
C1358 H1372 0.961 . S
C1359 C1356 1.539 . S
C1359 H1373 0.958 . S
C1359 H1374 0.961 . S
C1359 H1375 0.960 . S
H1360 C1344 0.931 . S
H1361 C1349 0.929 . S
H1362 C1350 0.960 . S
H1363 C1350 0.962 . S
H1364 C1350 0.960 . S
H1365 C1351 0.961 . S
H1366 C1351 0.961 . S
H1367 C1351 0.961 . S
H1368 C1352 0.931 . S
H1369 C1357 0.930 . S
H1370 C1358 0.956 . S
H1371 C1358 0.961 . S
H1372 C1358 0.961 . S
H1373 C1359 0.958 . S
H1374 C1359 0.961 . S
H1375 C1359 0.960 . S
C1376 C1377 1.391 . S
C1376 C1378 1.394 . S
C1376 H1392 0.931 . S
C1377 C1376 1.391 . S
C1377 C1381 1.376 . S
C1378 C1376 1.394 . S
C1378 C1379 1.369 . S
C1378 C1382 1.531 . S
C1379 C1378 1.369 . S
C1379 C1380 1.410 . S
C1379 C1387 1.503 . S
C1380 C1379 1.410 . S
C1380 C1381 1.392 . S
C1380 C1383 1.511 . S
C1381 C1377 1.376 . S
C1381 C1380 1.392 . S
C1381 H1393 0.929 . S
C1382 C1378 1.531 . S
C1382 H1394 0.960 . S
C1382 H1395 0.962 . S
C1382 H1396 0.960 . S
C1383 C1380 1.511 . S
C1383 H1397 0.961 . S
C1383 H1398 0.961 . S
C1383 H1399 0.961 . S
C1384 C1385 1.370 . S
C1384 C1386 1.363 . S
C1384 H1400 0.931 . S
C1385 C1384 1.370 . S
C1385 C1389 1.408 . S
C1386 C1384 1.363 . S
C1386 C1387 1.370 . S
C1386 C1390 1.524 . S
C1387 C1379 1.503 . S
C1387 C1386 1.370 . S
C1387 C1388 1.403 . S
C1388 C1387 1.403 . S
C1388 C1389 1.404 . S
C1388 C1391 1.539 . S
C1389 C1385 1.408 . S
C1389 C1388 1.404 . S
C1389 H1401 0.930 . S
C1390 C1386 1.524 . S
C1390 H1402 0.956 . S
C1390 H1403 0.961 . S
C1390 H1404 0.961 . S
C1391 C1388 1.539 . S
C1391 H1405 0.958 . S
C1391 H1406 0.961 . S
C1391 H1407 0.960 . S
H1392 C1376 0.931 . S
H1393 C1381 0.929 . S
H1394 C1382 0.960 . S
H1395 C1382 0.962 . S
H1396 C1382 0.960 . S
H1397 C1383 0.961 . S
H1398 C1383 0.961 . S
H1399 C1383 0.961 . S
H1400 C1384 0.931 . S
H1401 C1389 0.930 . S
H1402 C1390 0.956 . S
H1403 C1390 0.961 . S
H1404 C1390 0.961 . S
H1405 C1391 0.958 . S
H1406 C1391 0.961 . S
H1407 C1391 0.960 . S
C1408 C1409 1.391 . S
C1408 C1410 1.394 . S
C1408 H1424 0.931 . S
C1409 C1408 1.391 . S
C1409 C1413 1.376 . S
C1410 C1408 1.394 . S
C1410 C1411 1.369 . S
C1410 C1414 1.531 . S
C1411 C1410 1.369 . S
C1411 C1412 1.410 . S
C1411 C1419 1.503 . S
C1412 C1411 1.410 . S
C1412 C1413 1.392 . S
C1412 C1415 1.511 . S
C1413 C1409 1.376 . S
C1413 C1412 1.392 . S
C1413 H1425 0.929 . S
C1414 C1410 1.531 . S
C1414 H1426 0.960 . S
C1414 H1427 0.962 . S
C1414 H1428 0.960 . S
C1415 C1412 1.511 . S
C1415 H1429 0.961 . S
C1415 H1430 0.961 . S
C1415 H1431 0.961 . S
C1416 C1417 1.370 . S
C1416 C1418 1.363 . S
C1416 H1432 0.931 . S
C1417 C1416 1.370 . S
C1417 C1421 1.408 . S
C1418 C1416 1.363 . S
C1418 C1419 1.370 . S
C1418 C1422 1.524 . S
C1419 C1411 1.503 . S
C1419 C1418 1.370 . S
C1419 C1420 1.403 . S
C1420 C1419 1.403 . S
C1420 C1421 1.404 . S
C1420 C1423 1.539 . S
C1421 C1417 1.408 . S
C1421 C1420 1.404 . S
C1421 H1433 0.930 . S
C1422 C1418 1.524 . S
C1422 H1434 0.956 . S
C1422 H1435 0.961 . S
C1422 H1436 0.961 . S
C1423 C1420 1.539 . S
C1423 H1437 0.958 . S
C1423 H1438 0.961 . S
C1423 H1439 0.960 . S
H1424 C1408 0.931 . S
H1425 C1413 0.929 . S
H1426 C1414 0.960 . S
H1427 C1414 0.962 . S
H1428 C1414 0.960 . S
H1429 C1415 0.961 . S
H1430 C1415 0.961 . S
H1431 C1415 0.961 . S
H1432 C1416 0.931 . S
H1433 C1421 0.930 . S
H1434 C1422 0.956 . S
H1435 C1422 0.961 . S
H1436 C1422 0.961 . S
H1437 C1423 0.958 . S
H1438 C1423 0.961 . S
H1439 C1423 0.960 . S
C1440 C1441 1.391 . S
C1440 C1442 1.394 . S
C1440 H1456 0.931 . S
C1441 C1440 1.391 . S
C1441 C1445 1.376 . S
C1442 C1440 1.394 . S
C1442 C1443 1.369 . S
C1442 C1446 1.531 . S
C1443 C1442 1.369 . S
C1443 C1444 1.410 . S
C1443 C1451 1.503 . S
C1444 C1443 1.410 . S
C1444 C1445 1.392 . S
C1444 C1447 1.511 . S
C1445 C1441 1.376 . S
C1445 C1444 1.392 . S
C1445 H1457 0.929 . S
C1446 C1442 1.531 . S
C1446 H1458 0.960 . S
C1446 H1459 0.962 . S
C1446 H1460 0.960 . S
C1447 C1444 1.511 . S
C1447 H1461 0.961 . S
C1447 H1462 0.961 . S
C1447 H1463 0.961 . S
C1448 C1449 1.370 . S
C1448 C1450 1.363 . S
C1448 H1464 0.931 . S
C1449 C1448 1.370 . S
C1449 C1453 1.408 . S
C1450 C1448 1.363 . S
C1450 C1451 1.370 . S
C1450 C1454 1.524 . S
C1451 C1443 1.503 . S
C1451 C1450 1.370 . S
C1451 C1452 1.403 . S
C1452 C1451 1.403 . S
C1452 C1453 1.404 . S
C1452 C1455 1.539 . S
C1453 C1449 1.408 . S
C1453 C1452 1.404 . S
C1453 H1465 0.930 . S
C1454 C1450 1.524 . S
C1454 H1466 0.956 . S
C1454 H1467 0.961 . S
C1454 H1468 0.961 . S
C1455 C1452 1.539 . S
C1455 H1469 0.958 . S
C1455 H1470 0.961 . S
C1455 H1471 0.960 . S
H1456 C1440 0.931 . S
H1457 C1445 0.929 . S
H1458 C1446 0.960 . S
H1459 C1446 0.962 . S
H1460 C1446 0.960 . S
H1461 C1447 0.961 . S
H1462 C1447 0.961 . S
H1463 C1447 0.961 . S
H1464 C1448 0.931 . S
H1465 C1453 0.930 . S
H1466 C1454 0.956 . S
H1467 C1454 0.961 . S
H1468 C1454 0.961 . S
H1469 C1455 0.958 . S
H1470 C1455 0.961 . S
H1471 C1455 0.960 . S
C1472 C1473 1.391 . S
C1472 C1474 1.394 . S
C1472 H1488 0.931 . S
C1473 C1472 1.391 . S
C1473 C1477 1.376 . S
C1474 C1472 1.394 . S
C1474 C1475 1.369 . S
C1474 C1478 1.531 . S
C1475 C1474 1.369 . S
C1475 C1476 1.410 . S
C1475 C1483 1.503 . S
C1476 C1475 1.410 . S
C1476 C1477 1.392 . S
C1476 C1479 1.511 . S
C1477 C1473 1.376 . S
C1477 C1476 1.392 . S
C1477 H1489 0.929 . S
C1478 C1474 1.531 . S
C1478 H1490 0.960 . S
C1478 H1491 0.962 . S
C1478 H1492 0.960 . S
C1479 C1476 1.511 . S
C1479 H1493 0.961 . S
C1479 H1494 0.961 . S
C1479 H1495 0.961 . S
C1480 C1481 1.370 . S
C1480 C1482 1.363 . S
C1480 H1496 0.931 . S
C1481 C1480 1.370 . S
C1481 C1485 1.408 . S
C1482 C1480 1.363 . S
C1482 C1483 1.370 . S
C1482 C1486 1.524 . S
C1483 C1475 1.503 . S
C1483 C1482 1.370 . S
C1483 C1484 1.403 . S
C1484 C1483 1.403 . S
C1484 C1485 1.404 . S
C1484 C1487 1.539 . S
C1485 C1481 1.408 . S
C1485 C1484 1.404 . S
C1485 H1497 0.930 . S
C1486 C1482 1.524 . S
C1486 H1498 0.956 . S
C1486 H1499 0.961 . S
C1486 H1500 0.961 . S
C1487 C1484 1.539 . S
C1487 H1501 0.958 . S
C1487 H1502 0.961 . S
C1487 H1503 0.960 . S
H1488 C1472 0.931 . S
H1489 C1477 0.929 . S
H1490 C1478 0.960 . S
H1491 C1478 0.962 . S
H1492 C1478 0.960 . S
H1493 C1479 0.961 . S
H1494 C1479 0.961 . S
H1495 C1479 0.961 . S
H1496 C1480 0.931 . S
H1497 C1485 0.930 . S
H1498 C1486 0.956 . S
H1499 C1486 0.961 . S
H1500 C1486 0.961 . S
H1501 C1487 0.958 . S
H1502 C1487 0.961 . S
H1503 C1487 0.960 . S
C1504 C1505 1.391 . S
C1504 C1506 1.394 . S
C1504 H1520 0.931 . S
C1505 C1504 1.391 . S
C1505 C1509 1.376 . S
C1506 C1504 1.394 . S
C1506 C1507 1.369 . S
C1506 C1510 1.531 . S
C1507 C1506 1.369 . S
C1507 C1508 1.410 . S
C1507 C1515 1.503 . S
C1508 C1507 1.410 . S
C1508 C1509 1.392 . S
C1508 C1511 1.511 . S
C1509 C1505 1.376 . S
C1509 C1508 1.392 . S
C1509 H1521 0.929 . S
C1510 C1506 1.531 . S
C1510 H1522 0.960 . S
C1510 H1523 0.962 . S
C1510 H1524 0.960 . S
C1511 C1508 1.511 . S
C1511 H1525 0.961 . S
C1511 H1526 0.961 . S
C1511 H1527 0.961 . S
C1512 C1513 1.370 . S
C1512 C1514 1.363 . S
C1512 H1528 0.931 . S
C1513 C1512 1.370 . S
C1513 C1517 1.408 . S
C1514 C1512 1.363 . S
C1514 C1515 1.370 . S
C1514 C1518 1.524 . S
C1515 C1507 1.503 . S
C1515 C1514 1.370 . S
C1515 C1516 1.403 . S
C1516 C1515 1.403 . S
C1516 C1517 1.404 . S
C1516 C1519 1.539 . S
C1517 C1513 1.408 . S
C1517 C1516 1.404 . S
C1517 H1529 0.930 . S
C1518 C1514 1.524 . S
C1518 H1530 0.956 . S
C1518 H1531 0.961 . S
C1518 H1532 0.961 . S
C1519 C1516 1.539 . S
C1519 H1533 0.958 . S
C1519 H1534 0.961 . S
C1519 H1535 0.960 . S
H1520 C1504 0.931 . S
H1521 C1509 0.929 . S
H1522 C1510 0.960 . S
H1523 C1510 0.962 . S
H1524 C1510 0.960 . S
H1525 C1511 0.961 . S
H1526 C1511 0.961 . S
H1527 C1511 0.961 . S
H1528 C1512 0.931 . S
H1529 C1517 0.930 . S
H1530 C1518 0.956 . S
H1531 C1518 0.961 . S
H1532 C1518 0.961 . S
H1533 C1519 0.958 . S
H1534 C1519 0.961 . S
H1535 C1519 0.960 . S
C1536 C1537 1.391 . S
C1536 C1538 1.394 . S
C1536 H1552 0.931 . S
C1537 C1536 1.391 . S
C1537 C1541 1.376 . S
C1538 C1536 1.394 . S
C1538 C1539 1.369 . S
C1538 C1542 1.531 . S
C1539 C1538 1.369 . S
C1539 C1540 1.410 . S
C1539 C1547 1.503 . S
C1540 C1539 1.410 . S
C1540 C1541 1.392 . S
C1540 C1543 1.511 . S
C1541 C1537 1.376 . S
C1541 C1540 1.392 . S
C1541 H1553 0.929 . S
C1542 C1538 1.531 . S
C1542 H1554 0.960 . S
C1542 H1555 0.962 . S
C1542 H1556 0.960 . S
C1543 C1540 1.511 . S
C1543 H1557 0.961 . S
C1543 H1558 0.961 . S
C1543 H1559 0.961 . S
C1544 C1545 1.370 . S
C1544 C1546 1.363 . S
C1544 H1560 0.931 . S
C1545 C1544 1.370 . S
C1545 C1549 1.408 . S
C1546 C1544 1.363 . S
C1546 C1547 1.370 . S
C1546 C1550 1.524 . S
C1547 C1539 1.503 . S
C1547 C1546 1.370 . S
C1547 C1548 1.403 . S
C1548 C1547 1.403 . S
C1548 C1549 1.404 . S
C1548 C1551 1.539 . S
C1549 C1545 1.408 . S
C1549 C1548 1.404 . S
C1549 H1561 0.930 . S
C1550 C1546 1.524 . S
C1550 H1562 0.956 . S
C1550 H1563 0.961 . S
C1550 H1564 0.961 . S
C1551 C1548 1.539 . S
C1551 H1565 0.958 . S
C1551 H1566 0.961 . S
C1551 H1567 0.960 . S
H1552 C1536 0.931 . S
H1553 C1541 0.929 . S
H1554 C1542 0.960 . S
H1555 C1542 0.962 . S
H1556 C1542 0.960 . S
H1557 C1543 0.961 . S
H1558 C1543 0.961 . S
H1559 C1543 0.961 . S
H1560 C1544 0.931 . S
H1561 C1549 0.930 . S
H1562 C1550 0.956 . S
H1563 C1550 0.961 . S
H1564 C1550 0.961 . S
H1565 C1551 0.958 . S
H1566 C1551 0.961 . S
H1567 C1551 0.960 . S
C1568 C1569 1.391 . S
C1568 C1570 1.394 . S
C1568 H1584 0.931 . S
C1569 C1568 1.391 . S
C1569 C1573 1.376 . S
C1570 C1568 1.394 . S
C1570 C1571 1.369 . S
C1570 C1574 1.531 . S
C1571 C1570 1.369 . S
C1571 C1572 1.410 . S
C1571 C1579 1.503 . S
C1572 C1571 1.410 . S
C1572 C1573 1.392 . S
C1572 C1575 1.511 . S
C1573 C1569 1.376 . S
C1573 C1572 1.392 . S
C1573 H1585 0.929 . S
C1574 C1570 1.531 . S
C1574 H1586 0.960 . S
C1574 H1587 0.962 . S
C1574 H1588 0.960 . S
C1575 C1572 1.511 . S
C1575 H1589 0.961 . S
C1575 H1590 0.961 . S
C1575 H1591 0.961 . S
C1576 C1577 1.370 . S
C1576 C1578 1.363 . S
C1576 H1592 0.931 . S
C1577 C1576 1.370 . S
C1577 C1581 1.408 . S
C1578 C1576 1.363 . S
C1578 C1579 1.370 . S
C1578 C1582 1.524 . S
C1579 C1571 1.503 . S
C1579 C1578 1.370 . S
C1579 C1580 1.403 . S
C1580 C1579 1.403 . S
C1580 C1581 1.404 . S
C1580 C1583 1.539 . S
C1581 C1577 1.408 . S
C1581 C1580 1.404 . S
C1581 H1593 0.930 . S
C1582 C1578 1.524 . S
C1582 H1594 0.956 . S
C1582 H1595 0.961 . S
C1582 H1596 0.961 . S
C1583 C1580 1.539 . S
C1583 H1597 0.958 . S
C1583 H1598 0.961 . S
C1583 H1599 0.960 . S
H1584 C1568 0.931 . S
H1585 C1573 0.929 . S
H1586 C1574 0.960 . S
H1587 C1574 0.962 . S
H1588 C1574 0.960 . S
H1589 C1575 0.961 . S
H1590 C1575 0.961 . S
H1591 C1575 0.961 . S
H1592 C1576 0.931 . S
H1593 C1581 0.930 . S
H1594 C1582 0.956 . S
H1595 C1582 0.961 . S
H1596 C1582 0.961 . S
H1597 C1583 0.958 . S
H1598 C1583 0.961 . S
H1599 C1583 0.960 . S
C1600 C1601 1.391 . S
C1600 C1602 1.394 . S
C1600 H1616 0.931 . S
C1601 C1600 1.391 . S
C1601 C1605 1.376 . S
C1602 C1600 1.394 . S
C1602 C1603 1.369 . S
C1602 C1606 1.531 . S
C1603 C1602 1.369 . S
C1603 C1604 1.410 . S
C1603 C1611 1.503 . S
C1604 C1603 1.410 . S
C1604 C1605 1.392 . S
C1604 C1607 1.511 . S
C1605 C1601 1.376 . S
C1605 C1604 1.392 . S
C1605 H1617 0.929 . S
C1606 C1602 1.531 . S
C1606 H1618 0.960 . S
C1606 H1619 0.962 . S
C1606 H1620 0.960 . S
C1607 C1604 1.511 . S
C1607 H1621 0.961 . S
C1607 H1622 0.961 . S
C1607 H1623 0.961 . S
C1608 C1609 1.370 . S
C1608 C1610 1.363 . S
C1608 H1624 0.931 . S
C1609 C1608 1.370 . S
C1609 C1613 1.408 . S
C1610 C1608 1.363 . S
C1610 C1611 1.370 . S
C1610 C1614 1.524 . S
C1611 C1603 1.503 . S
C1611 C1610 1.370 . S
C1611 C1612 1.403 . S
C1612 C1611 1.403 . S
C1612 C1613 1.404 . S
C1612 C1615 1.539 . S
C1613 C1609 1.408 . S
C1613 C1612 1.404 . S
C1613 H1625 0.930 . S
C1614 C1610 1.524 . S
C1614 H1626 0.956 . S
C1614 H1627 0.961 . S
C1614 H1628 0.961 . S
C1615 C1612 1.539 . S
C1615 H1629 0.958 . S
C1615 H1630 0.961 . S
C1615 H1631 0.960 . S
H1616 C1600 0.931 . S
H1617 C1605 0.929 . S
H1618 C1606 0.960 . S
H1619 C1606 0.962 . S
H1620 C1606 0.960 . S
H1621 C1607 0.961 . S
H1622 C1607 0.961 . S
H1623 C1607 0.961 . S
H1624 C1608 0.931 . S
H1625 C1613 0.930 . S
H1626 C1614 0.956 . S
H1627 C1614 0.961 . S
H1628 C1614 0.961 . S
H1629 C1615 0.958 . S
H1630 C1615 0.961 . S
H1631 C1615 0.960 . S
C1632 C1633 1.391 . S
C1632 C1634 1.394 . S
C1632 H1648 0.931 . S
C1633 C1632 1.391 . S
C1633 C1637 1.376 . S
C1634 C1632 1.394 . S
C1634 C1635 1.369 . S
C1634 C1638 1.531 . S
C1635 C1634 1.369 . S
C1635 C1636 1.410 . S
C1635 C1643 1.503 . S
C1636 C1635 1.410 . S
C1636 C1637 1.392 . S
C1636 C1639 1.511 . S
C1637 C1633 1.376 . S
C1637 C1636 1.392 . S
C1637 H1649 0.929 . S
C1638 C1634 1.531 . S
C1638 H1650 0.960 . S
C1638 H1651 0.962 . S
C1638 H1652 0.960 . S
C1639 C1636 1.511 . S
C1639 H1653 0.961 . S
C1639 H1654 0.961 . S
C1639 H1655 0.961 . S
C1640 C1641 1.370 . S
C1640 C1642 1.363 . S
C1640 H1656 0.931 . S
C1641 C1640 1.370 . S
C1641 C1645 1.408 . S
C1642 C1640 1.363 . S
C1642 C1643 1.370 . S
C1642 C1646 1.524 . S
C1643 C1635 1.503 . S
C1643 C1642 1.370 . S
C1643 C1644 1.403 . S
C1644 C1643 1.403 . S
C1644 C1645 1.404 . S
C1644 C1647 1.539 . S
C1645 C1641 1.408 . S
C1645 C1644 1.404 . S
C1645 H1657 0.930 . S
C1646 C1642 1.524 . S
C1646 H1658 0.956 . S
C1646 H1659 0.961 . S
C1646 H1660 0.961 . S
C1647 C1644 1.539 . S
C1647 H1661 0.958 . S
C1647 H1662 0.961 . S
C1647 H1663 0.960 . S
H1648 C1632 0.931 . S
H1649 C1637 0.929 . S
H1650 C1638 0.960 . S
H1651 C1638 0.962 . S
H1652 C1638 0.960 . S
H1653 C1639 0.961 . S
H1654 C1639 0.961 . S
H1655 C1639 0.961 . S
H1656 C1640 0.931 . S
H1657 C1645 0.930 . S
H1658 C1646 0.956 . S
H1659 C1646 0.961 . S
H1660 C1646 0.961 . S
H1661 C1647 0.958 . S
H1662 C1647 0.961 . S
H1663 C1647 0.960 . S
C1664 C1665 1.391 . S
C1664 C1666 1.394 . S
C1664 H1680 0.931 . S
C1665 C1664 1.391 . S
C1665 C1669 1.376 . S
C1666 C1664 1.394 . S
C1666 C1667 1.369 . S
C1666 C1670 1.531 . S
C1667 C1666 1.369 . S
C1667 C1668 1.410 . S
C1667 C1675 1.503 . S
C1668 C1667 1.410 . S
C1668 C1669 1.392 . S
C1668 C1671 1.511 . S
C1669 C1665 1.376 . S
C1669 C1668 1.392 . S
C1669 H1681 0.929 . S
C1670 C1666 1.531 . S
C1670 H1682 0.960 . S
C1670 H1683 0.962 . S
C1670 H1684 0.960 . S
C1671 C1668 1.511 . S
C1671 H1685 0.961 . S
C1671 H1686 0.961 . S
C1671 H1687 0.961 . S
C1672 C1673 1.370 . S
C1672 C1674 1.363 . S
C1672 H1688 0.931 . S
C1673 C1672 1.370 . S
C1673 C1677 1.408 . S
C1674 C1672 1.363 . S
C1674 C1675 1.370 . S
C1674 C1678 1.524 . S
C1675 C1667 1.503 . S
C1675 C1674 1.370 . S
C1675 C1676 1.403 . S
C1676 C1675 1.403 . S
C1676 C1677 1.404 . S
C1676 C1679 1.539 . S
C1677 C1673 1.408 . S
C1677 C1676 1.404 . S
C1677 H1689 0.930 . S
C1678 C1674 1.524 . S
C1678 H1690 0.956 . S
C1678 H1691 0.961 . S
C1678 H1692 0.961 . S
C1679 C1676 1.539 . S
C1679 H1693 0.958 . S
C1679 H1694 0.961 . S
C1679 H1695 0.960 . S
H1680 C1664 0.931 . S
H1681 C1669 0.929 . S
H1682 C1670 0.960 . S
H1683 C1670 0.962 . S
H1684 C1670 0.960 . S
H1685 C1671 0.961 . S
H1686 C1671 0.961 . S
H1687 C1671 0.961 . S
H1688 C1672 0.931 . S
H1689 C1677 0.930 . S
H1690 C1678 0.956 . S
H1691 C1678 0.961 . S
H1692 C1678 0.961 . S
H1693 C1679 0.958 . S
H1694 C1679 0.961 . S
H1695 C1679 0.960 . S
C1696 C1697 1.391 . S
C1696 C1698 1.394 . S
C1696 H1712 0.931 . S
C1697 C1696 1.391 . S
C1697 C1701 1.376 . S
C1698 C1696 1.394 . S
C1698 C1699 1.369 . S
C1698 C1702 1.531 . S
C1699 C1698 1.369 . S
C1699 C1700 1.410 . S
C1699 C1707 1.503 . S
C1700 C1699 1.410 . S
C1700 C1701 1.392 . S
C1700 C1703 1.511 . S
C1701 C1697 1.376 . S
C1701 C1700 1.392 . S
C1701 H1713 0.929 . S
C1702 C1698 1.531 . S
C1702 H1714 0.960 . S
C1702 H1715 0.962 . S
C1702 H1716 0.960 . S
C1703 C1700 1.511 . S
C1703 H1717 0.961 . S
C1703 H1718 0.961 . S
C1703 H1719 0.961 . S
C1704 C1705 1.370 . S
C1704 C1706 1.363 . S
C1704 H1720 0.931 . S
C1705 C1704 1.370 . S
C1705 C1709 1.408 . S
C1706 C1704 1.363 . S
C1706 C1707 1.370 . S
C1706 C1710 1.524 . S
C1707 C1699 1.503 . S
C1707 C1706 1.370 . S
C1707 C1708 1.403 . S
C1708 C1707 1.403 . S
C1708 C1709 1.404 . S
C1708 C1711 1.539 . S
C1709 C1705 1.408 . S
C1709 C1708 1.404 . S
C1709 H1721 0.930 . S
C1710 C1706 1.524 . S
C1710 H1722 0.956 . S
C1710 H1723 0.961 . S
C1710 H1724 0.961 . S
C1711 C1708 1.539 . S
C1711 H1725 0.958 . S
C1711 H1726 0.961 . S
C1711 H1727 0.960 . S
H1712 C1696 0.931 . S
H1713 C1701 0.929 . S
H1714 C1702 0.960 . S
H1715 C1702 0.962 . S
H1716 C1702 0.960 . S
H1717 C1703 0.961 . S
H1718 C1703 0.961 . S
H1719 C1703 0.961 . S
H1720 C1704 0.931 . S
H1721 C1709 0.930 . S
H1722 C1710 0.956 . S
H1723 C1710 0.961 . S
H1724 C1710 0.961 . S
H1725 C1711 0.958 . S
H1726 C1711 0.961 . S
H1727 C1711 0.960 . S
C1728 C1729 1.391 . S
C1728 C1730 1.394 . S
C1728 H1744 0.931 . S
C1729 C1728 1.391 . S
C1729 C1733 1.376 . S
C1730 C1728 1.394 . S
C1730 C1731 1.369 . S
C1730 C1734 1.531 . S
C1731 C1730 1.369 . S
C1731 C1732 1.410 . S
C1731 C1739 1.503 . S
C1732 C1731 1.410 . S
C1732 C1733 1.392 . S
C1732 C1735 1.511 . S
C1733 C1729 1.376 . S
C1733 C1732 1.392 . S
C1733 H1745 0.929 . S
C1734 C1730 1.531 . S
C1734 H1746 0.960 . S
C1734 H1747 0.962 . S
C1734 H1748 0.960 . S
C1735 C1732 1.511 . S
C1735 H1749 0.961 . S
C1735 H1750 0.961 . S
C1735 H1751 0.961 . S
C1736 C1737 1.370 . S
C1736 C1738 1.363 . S
C1736 H1752 0.931 . S
C1737 C1736 1.370 . S
C1737 C1741 1.408 . S
C1738 C1736 1.363 . S
C1738 C1739 1.370 . S
C1738 C1742 1.524 . S
C1739 C1731 1.503 . S
C1739 C1738 1.370 . S
C1739 C1740 1.403 . S
C1740 C1739 1.403 . S
C1740 C1741 1.404 . S
C1740 C1743 1.539 . S
C1741 C1737 1.408 . S
C1741 C1740 1.404 . S
C1741 H1753 0.930 . S
C1742 C1738 1.524 . S
C1742 H1754 0.956 . S
C1742 H1755 0.961 . S
C1742 H1756 0.961 . S
C1743 C1740 1.539 . S
C1743 H1757 0.958 . S
C1743 H1758 0.961 . S
C1743 H1759 0.960 . S
H1744 C1728 0.931 . S
H1745 C1733 0.929 . S
H1746 C1734 0.960 . S
H1747 C1734 0.962 . S
H1748 C1734 0.960 . S
H1749 C1735 0.961 . S
H1750 C1735 0.961 . S
H1751 C1735 0.961 . S
H1752 C1736 0.931 . S
H1753 C1741 0.930 . S
H1754 C1742 0.956 . S
H1755 C1742 0.961 . S
H1756 C1742 0.961 . S
H1757 C1743 0.958 . S
H1758 C1743 0.961 . S
H1759 C1743 0.960 . S
C1760 C1761 1.391 . S
C1760 C1762 1.394 . S
C1760 H1776 0.931 . S
C1761 C1760 1.391 . S
C1761 C1765 1.376 . S
C1762 C1760 1.394 . S
C1762 C1763 1.369 . S
C1762 C1766 1.532 1_554 S
C1763 C1762 1.369 . S
C1763 C1764 1.410 . S
C1763 C1771 1.503 . S
C1764 C1763 1.410 . S
C1764 C1765 1.392 . S
C1764 C1767 1.511 . S
C1765 C1761 1.376 . S
C1765 C1764 1.392 . S
C1765 H1777 0.929 . S
C1766 C1762 1.532 1_556 S
C1766 H1778 0.961 1_556 S
C1766 H1779 0.964 1_556 S
C1766 H1780 0.957 . S
C1767 C1764 1.511 . S
C1767 H1781 0.961 . S
C1767 H1782 0.961 . S
C1767 H1783 0.961 . S
C1768 C1769 1.370 . S
C1768 C1770 1.363 . S
C1768 H1784 0.931 . S
C1769 C1768 1.370 . S
C1769 C1773 1.408 . S
C1770 C1768 1.363 . S
C1770 C1771 1.370 . S
C1770 C1774 1.524 . S
C1771 C1763 1.503 . S
C1771 C1770 1.370 . S
C1771 C1772 1.403 . S
C1772 C1771 1.403 . S
C1772 C1773 1.404 . S
C1772 C1775 1.539 . S
C1773 C1769 1.408 . S
C1773 C1772 1.404 . S
C1773 H1785 0.930 . S
C1774 C1770 1.524 . S
C1774 H1786 0.956 . S
C1774 H1787 0.961 . S
C1774 H1788 0.961 . S
C1775 C1772 1.539 . S
C1775 H1789 0.958 . S
C1775 H1790 0.961 . S
C1775 H1791 0.960 . S
H1776 C1760 0.931 . S
H1777 C1765 0.929 . S
H1778 C1766 0.961 1_554 S
H1779 C1766 0.964 1_554 S
H1780 C1766 0.957 . S
H1781 C1767 0.961 . S
H1782 C1767 0.961 . S
H1783 C1767 0.961 . S
H1784 C1768 0.931 . S
H1785 C1773 0.930 . S
H1786 C1774 0.956 . S
H1787 C1774 0.961 . S
H1788 C1774 0.961 . S
H1789 C1775 0.958 . S
H1790 C1775 0.961 . S
H1791 C1775 0.960 . S
C1792 C1793 1.391 . S
C1792 C1794 1.394 . S
C1792 H1808 0.931 . S
C1793 C1792 1.391 . S
C1793 C1797 1.376 . S
C1794 C1792 1.394 . S
C1794 C1795 1.369 . S
C1794 C1798 1.531 . S
C1795 C1794 1.369 . S
C1795 C1796 1.410 . S
C1795 C1803 1.503 . S
C1796 C1795 1.410 . S
C1796 C1797 1.392 . S
C1796 C1799 1.511 . S
C1797 C1793 1.376 . S
C1797 C1796 1.392 . S
C1797 H1809 0.929 . S
C1798 C1794 1.531 . S
C1798 H1810 0.960 . S
C1798 H1811 0.962 . S
C1798 H1812 0.960 . S
C1799 C1796 1.511 . S
C1799 H1813 0.961 . S
C1799 H1814 0.961 . S
C1799 H1815 0.961 . S
C1800 C1801 1.370 . S
C1800 C1802 1.363 . S
C1800 H1816 0.931 . S
C1801 C1800 1.370 . S
C1801 C1805 1.408 . S
C1802 C1800 1.363 . S
C1802 C1803 1.370 . S
C1802 C1806 1.524 . S
C1803 C1795 1.503 . S
C1803 C1802 1.370 . S
C1803 C1804 1.403 . S
C1804 C1803 1.403 . S
C1804 C1805 1.404 . S
C1804 C1807 1.539 . S
C1805 C1801 1.408 . S
C1805 C1804 1.404 . S
C1805 H1817 0.930 . S
C1806 C1802 1.524 . S
C1806 H1818 0.956 . S
C1806 H1819 0.961 . S
C1806 H1820 0.961 . S
C1807 C1804 1.539 . S
C1807 H1821 0.958 . S
C1807 H1822 0.961 . S
C1807 H1823 0.960 . S
H1808 C1792 0.931 . S
H1809 C1797 0.929 . S
H1810 C1798 0.960 . S
H1811 C1798 0.962 . S
H1812 C1798 0.960 . S
H1813 C1799 0.961 . S
H1814 C1799 0.961 . S
H1815 C1799 0.961 . S
H1816 C1800 0.931 . S
H1817 C1805 0.930 . S
H1818 C1806 0.956 . S
H1819 C1806 0.961 . S
H1820 C1806 0.961 . S
H1821 C1807 0.958 . S
H1822 C1807 0.961 . S
H1823 C1807 0.960 . S
C1824 C1825 1.391 . S
C1824 C1826 1.394 . S
C1824 H1840 0.931 . S
C1825 C1824 1.391 . S
C1825 C1829 1.376 . S
C1826 C1824 1.394 . S
C1826 C1827 1.369 . S
C1826 C1830 1.531 . S
C1827 C1826 1.369 . S
C1827 C1828 1.410 . S
C1827 C1835 1.503 . S
C1828 C1827 1.410 . S
C1828 C1829 1.392 . S
C1828 C1831 1.511 . S
C1829 C1825 1.376 . S
C1829 C1828 1.392 . S
C1829 H1841 0.929 . S
C1830 C1826 1.531 . S
C1830 H1842 0.960 . S
C1830 H1843 0.962 . S
C1830 H1844 0.960 . S
C1831 C1828 1.511 . S
C1831 H1845 0.961 . S
C1831 H1846 0.961 . S
C1831 H1847 0.961 . S
C1832 C1833 1.370 . S
C1832 C1834 1.363 . S
C1832 H1848 0.931 . S
C1833 C1832 1.370 . S
C1833 C1837 1.408 . S
C1834 C1832 1.363 . S
C1834 C1835 1.370 . S
C1834 C1838 1.524 . S
C1835 C1827 1.503 . S
C1835 C1834 1.370 . S
C1835 C1836 1.403 . S
C1836 C1835 1.403 . S
C1836 C1837 1.404 . S
C1836 C1839 1.539 . S
C1837 C1833 1.408 . S
C1837 C1836 1.404 . S
C1837 H1849 0.930 . S
C1838 C1834 1.524 . S
C1838 H1850 0.956 . S
C1838 H1851 0.961 . S
C1838 H1852 0.961 . S
C1839 C1836 1.539 . S
C1839 H1853 0.958 . S
C1839 H1854 0.961 . S
C1839 H1855 0.960 . S
H1840 C1824 0.931 . S
H1841 C1829 0.929 . S
H1842 C1830 0.960 . S
H1843 C1830 0.962 . S
H1844 C1830 0.960 . S
H1845 C1831 0.961 . S
H1846 C1831 0.961 . S
H1847 C1831 0.961 . S
H1848 C1832 0.931 . S
H1849 C1837 0.930 . S
H1850 C1838 0.956 . S
H1851 C1838 0.961 . S
H1852 C1838 0.961 . S
H1853 C1839 0.958 . S
H1854 C1839 0.961 . S
H1855 C1839 0.960 . S
C1856 C1857 1.391 . S
C1856 C1858 1.394 . S
C1856 H1872 0.931 . S
C1857 C1856 1.391 . S
C1857 C1861 1.376 . S
C1858 C1856 1.394 . S
C1858 C1859 1.369 . S
C1858 C1862 1.531 . S
C1859 C1858 1.369 . S
C1859 C1860 1.410 . S
C1859 C1867 1.503 . S
C1860 C1859 1.410 . S
C1860 C1861 1.392 . S
C1860 C1863 1.511 . S
C1861 C1857 1.376 . S
C1861 C1860 1.392 . S
C1861 H1873 0.929 . S
C1862 C1858 1.531 . S
C1862 H1874 0.960 . S
C1862 H1875 0.962 . S
C1862 H1876 0.960 . S
C1863 C1860 1.511 . S
C1863 H1877 0.961 . S
C1863 H1878 0.961 . S
C1863 H1879 0.961 . S
C1864 C1865 1.370 . S
C1864 C1866 1.363 . S
C1864 H1880 0.931 . S
C1865 C1864 1.370 . S
C1865 C1869 1.408 . S
C1866 C1864 1.363 . S
C1866 C1867 1.370 . S
C1866 C1870 1.524 . S
C1867 C1859 1.503 . S
C1867 C1866 1.370 . S
C1867 C1868 1.403 . S
C1868 C1867 1.403 . S
C1868 C1869 1.404 . S
C1868 C1871 1.539 . S
C1869 C1865 1.408 . S
C1869 C1868 1.404 . S
C1869 H1881 0.930 . S
C1870 C1866 1.524 . S
C1870 H1882 0.956 . S
C1870 H1883 0.961 . S
C1870 H1884 0.961 . S
C1871 C1868 1.539 . S
C1871 H1885 0.958 . S
C1871 H1886 0.961 . S
C1871 H1887 0.960 . S
H1872 C1856 0.931 . S
H1873 C1861 0.929 . S
H1874 C1862 0.960 . S
H1875 C1862 0.962 . S
H1876 C1862 0.960 . S
H1877 C1863 0.961 . S
H1878 C1863 0.961 . S
H1879 C1863 0.961 . S
H1880 C1864 0.931 . S
H1881 C1869 0.930 . S
H1882 C1870 0.956 . S
H1883 C1870 0.961 . S
H1884 C1870 0.961 . S
H1885 C1871 0.958 . S
H1886 C1871 0.961 . S
H1887 C1871 0.960 . S
C1888 C1889 1.391 . S
C1888 C1890 1.394 . S
C1888 H1904 0.931 . S
C1889 C1888 1.391 . S
C1889 C1893 1.376 . S
C1890 C1888 1.394 . S
C1890 C1891 1.369 . S
C1890 C1894 1.531 . S
C1891 C1890 1.369 . S
C1891 C1892 1.410 . S
C1891 C1899 1.503 . S
C1892 C1891 1.410 . S
C1892 C1893 1.392 . S
C1892 C1895 1.511 . S
C1893 C1889 1.376 . S
C1893 C1892 1.392 . S
C1893 H1905 0.929 . S
C1894 C1890 1.531 . S
C1894 H1906 0.960 . S
C1894 H1907 0.962 . S
C1894 H1908 0.960 . S
C1895 C1892 1.511 . S
C1895 H1909 0.961 . S
C1895 H1910 0.961 . S
C1895 H1911 0.961 . S
C1896 C1897 1.370 . S
C1896 C1898 1.363 . S
C1896 H1912 0.931 . S
C1897 C1896 1.370 . S
C1897 C1901 1.408 . S
C1898 C1896 1.363 . S
C1898 C1899 1.370 . S
C1898 C1902 1.524 . S
C1899 C1891 1.503 . S
C1899 C1898 1.370 . S
C1899 C1900 1.403 . S
C1900 C1899 1.403 . S
C1900 C1901 1.404 . S
C1900 C1903 1.539 . S
C1901 C1897 1.408 . S
C1901 C1900 1.404 . S
C1901 H1913 0.930 . S
C1902 C1898 1.524 . S
C1902 H1914 0.956 . S
C1902 H1915 0.961 . S
C1902 H1916 0.961 . S
C1903 C1900 1.539 . S
C1903 H1917 0.958 . S
C1903 H1918 0.961 . S
C1903 H1919 0.960 . S
H1904 C1888 0.931 . S
H1905 C1893 0.929 . S
H1906 C1894 0.960 . S
H1907 C1894 0.962 . S
H1908 C1894 0.960 . S
H1909 C1895 0.961 . S
H1910 C1895 0.961 . S
H1911 C1895 0.961 . S
H1912 C1896 0.931 . S
H1913 C1901 0.930 . S
H1914 C1902 0.956 . S
H1915 C1902 0.961 . S
H1916 C1902 0.961 . S
H1917 C1903 0.958 . S
H1918 C1903 0.961 . S
H1919 C1903 0.960 . S
C1920 C1921 1.391 . S
C1920 C1922 1.394 . S
C1920 H1936 0.931 . S
C1921 C1920 1.391 . S
C1921 C1925 1.376 . S
C1922 C1920 1.394 . S
C1922 C1923 1.369 . S
C1922 C1926 1.531 . S
C1923 C1922 1.369 . S
C1923 C1924 1.410 . S
C1923 C1931 1.503 . S
C1924 C1923 1.410 . S
C1924 C1925 1.392 . S
C1924 C1927 1.511 . S
C1925 C1921 1.376 . S
C1925 C1924 1.392 . S
C1925 H1937 0.929 . S
C1926 C1922 1.531 . S
C1926 H1938 0.960 . S
C1926 H1939 0.962 . S
C1926 H1940 0.960 . S
C1927 C1924 1.511 . S
C1927 H1941 0.961 . S
C1927 H1942 0.961 . S
C1927 H1943 0.961 . S
C1928 C1929 1.370 . S
C1928 C1930 1.363 . S
C1928 H1944 0.931 . S
C1929 C1928 1.370 . S
C1929 C1933 1.408 . S
C1930 C1928 1.363 . S
C1930 C1931 1.370 . S
C1930 C1934 1.524 . S
C1931 C1923 1.503 . S
C1931 C1930 1.370 . S
C1931 C1932 1.403 . S
C1932 C1931 1.403 . S
C1932 C1933 1.404 . S
C1932 C1935 1.539 . S
C1933 C1929 1.408 . S
C1933 C1932 1.404 . S
C1933 H1945 0.930 . S
C1934 C1930 1.524 . S
C1934 H1946 0.956 . S
C1934 H1947 0.961 . S
C1934 H1948 0.961 . S
C1935 C1932 1.539 . S
C1935 H1949 0.958 . S
C1935 H1950 0.961 . S
C1935 H1951 0.960 . S
H1936 C1920 0.931 . S
H1937 C1925 0.929 . S
H1938 C1926 0.960 . S
H1939 C1926 0.962 . S
H1940 C1926 0.960 . S
H1941 C1927 0.961 . S
H1942 C1927 0.961 . S
H1943 C1927 0.961 . S
H1944 C1928 0.931 . S
H1945 C1933 0.930 . S
H1946 C1934 0.956 . S
H1947 C1934 0.961 . S
H1948 C1934 0.961 . S
H1949 C1935 0.958 . S
H1950 C1935 0.961 . S
H1951 C1935 0.960 . S
C1952 C1953 1.391 . S
C1952 C1954 1.394 . S
C1952 H1968 0.931 . S
C1953 C1952 1.391 . S
C1953 C1957 1.376 . S
C1954 C1952 1.394 . S
C1954 C1955 1.369 . S
C1954 C1958 1.531 . S
C1955 C1954 1.369 . S
C1955 C1956 1.410 . S
C1955 C1963 1.503 . S
C1956 C1955 1.410 . S
C1956 C1957 1.392 . S
C1956 C1959 1.511 . S
C1957 C1953 1.376 . S
C1957 C1956 1.392 . S
C1957 H1969 0.929 . S
C1958 C1954 1.531 . S
C1958 H1970 0.960 . S
C1958 H1971 0.962 . S
C1958 H1972 0.960 . S
C1959 C1956 1.511 . S
C1959 H1973 0.961 . S
C1959 H1974 0.961 . S
C1959 H1975 0.961 . S
C1960 C1961 1.370 . S
C1960 C1962 1.363 . S
C1960 H1976 0.931 . S
C1961 C1960 1.370 . S
C1961 C1965 1.408 . S
C1962 C1960 1.363 . S
C1962 C1963 1.370 . S
C1962 C1966 1.524 . S
C1963 C1955 1.503 . S
C1963 C1962 1.370 . S
C1963 C1964 1.403 . S
C1964 C1963 1.403 . S
C1964 C1965 1.404 . S
C1964 C1967 1.539 . S
C1965 C1961 1.408 . S
C1965 C1964 1.404 . S
C1965 H1977 0.930 . S
C1966 C1962 1.524 . S
C1966 H1978 0.956 . S
C1966 H1979 0.961 . S
C1966 H1980 0.961 . S
C1967 C1964 1.539 . S
C1967 H1981 0.958 . S
C1967 H1982 0.961 . S
C1967 H1983 0.960 . S
H1968 C1952 0.931 . S
H1969 C1957 0.929 . S
H1970 C1958 0.960 . S
H1971 C1958 0.962 . S
H1972 C1958 0.960 . S
H1973 C1959 0.961 . S
H1974 C1959 0.961 . S
H1975 C1959 0.961 . S
H1976 C1960 0.931 . S
H1977 C1965 0.930 . S
H1978 C1966 0.956 . S
H1979 C1966 0.961 . S
H1980 C1966 0.961 . S
H1981 C1967 0.958 . S
H1982 C1967 0.961 . S
H1983 C1967 0.960 . S
C1984 C1985 1.391 . S
C1984 C1986 1.394 . S
C1984 H2000 0.931 . S
C1985 C1984 1.391 . S
C1985 C1989 1.376 . S
C1986 C1984 1.394 . S
C1986 C1987 1.369 . S
C1986 C1990 1.531 . S
C1987 C1986 1.369 . S
C1987 C1988 1.410 . S
C1987 C1995 1.503 . S
C1988 C1987 1.410 . S
C1988 C1989 1.392 . S
C1988 C1991 1.511 . S
C1989 C1985 1.376 . S
C1989 C1988 1.392 . S
C1989 H2001 0.929 . S
C1990 C1986 1.531 . S
C1990 H2002 0.960 . S
C1990 H2003 0.962 . S
C1990 H2004 0.960 . S
C1991 C1988 1.511 . S
C1991 H2005 0.961 . S
C1991 H2006 0.961 . S
C1991 H2007 0.961 . S
C1992 C1993 1.370 . S
C1992 C1994 1.363 . S
C1992 H2008 0.931 . S
C1993 C1992 1.370 . S
C1993 C1997 1.408 . S
C1994 C1992 1.363 . S
C1994 C1995 1.370 . S
C1994 C1998 1.524 . S
C1995 C1987 1.503 . S
C1995 C1994 1.370 . S
C1995 C1996 1.403 . S
C1996 C1995 1.403 . S
C1996 C1997 1.404 . S
C1996 C1999 1.539 . S
C1997 C1993 1.408 . S
C1997 C1996 1.404 . S
C1997 H2009 0.930 . S
C1998 C1994 1.524 . S
C1998 H2010 0.956 . S
C1998 H2011 0.961 . S
C1998 H2012 0.961 . S
C1999 C1996 1.539 . S
C1999 H2013 0.958 . S
C1999 H2014 0.961 . S
C1999 H2015 0.960 . S
H2000 C1984 0.931 . S
H2001 C1989 0.929 . S
H2002 C1990 0.960 . S
H2003 C1990 0.962 . S
H2004 C1990 0.960 . S
H2005 C1991 0.961 . S
H2006 C1991 0.961 . S
H2007 C1991 0.961 . S
H2008 C1992 0.931 . S
H2009 C1997 0.930 . S
H2010 C1998 0.956 . S
H2011 C1998 0.961 . S
H2012 C1998 0.961 . S
H2013 C1999 0.958 . S
H2014 C1999 0.961 . S
H2015 C1999 0.960 . S
C2016 C2017 1.391 . S
C2016 C2018 1.394 . S
C2016 H2032 0.931 . S
C2017 C2016 1.391 . S
C2017 C2021 1.376 . S
C2018 C2016 1.394 . S
C2018 C2019 1.369 . S
C2018 C2022 1.531 . S
C2019 C2018 1.369 . S
C2019 C2020 1.410 . S
C2019 C2027 1.503 . S
C2020 C2019 1.410 . S
C2020 C2021 1.392 . S
C2020 C2023 1.511 . S
C2021 C2017 1.376 . S
C2021 C2020 1.392 . S
C2021 H2033 0.929 . S
C2022 C2018 1.531 . S
C2022 H2034 0.960 . S
C2022 H2035 0.962 . S
C2022 H2036 0.960 . S
C2023 C2020 1.511 . S
C2023 H2037 0.961 . S
C2023 H2038 0.961 . S
C2023 H2039 0.961 . S
C2024 C2025 1.370 . S
C2024 C2026 1.363 . S
C2024 H2040 0.931 . S
C2025 C2024 1.370 . S
C2025 C2029 1.408 . S
C2026 C2024 1.363 . S
C2026 C2027 1.370 . S
C2026 C2030 1.524 . S
C2027 C2019 1.503 . S
C2027 C2026 1.370 . S
C2027 C2028 1.403 . S
C2028 C2027 1.403 . S
C2028 C2029 1.404 . S
C2028 C2031 1.539 . S
C2029 C2025 1.408 . S
C2029 C2028 1.404 . S
C2029 H2041 0.930 . S
C2030 C2026 1.524 . S
C2030 H2042 0.956 . S
C2030 H2043 0.961 . S
C2030 H2044 0.961 . S
C2031 C2028 1.539 . S
C2031 H2045 0.958 . S
C2031 H2046 0.961 . S
C2031 H2047 0.960 . S
H2032 C2016 0.931 . S
H2033 C2021 0.929 . S
H2034 C2022 0.960 . S
H2035 C2022 0.962 . S
H2036 C2022 0.960 . S
H2037 C2023 0.961 . S
H2038 C2023 0.961 . S
H2039 C2023 0.961 . S
H2040 C2024 0.931 . S
H2041 C2029 0.930 . S
H2042 C2030 0.956 . S
H2043 C2030 0.961 . S
H2044 C2030 0.961 . S
H2045 C2031 0.958 . S
H2046 C2031 0.961 . S
H2047 C2031 0.960 . S
C2048 C2049 1.391 . S
C2048 C2050 1.394 . S
C2048 H2064 0.931 . S
C2049 C2048 1.391 . S
C2049 C2053 1.376 . S
C2050 C2048 1.394 . S
C2050 C2051 1.369 . S
C2050 C2054 1.531 . S
C2051 C2050 1.369 . S
C2051 C2052 1.410 . S
C2051 C2059 1.503 . S
C2052 C2051 1.410 . S
C2052 C2053 1.392 . S
C2052 C2055 1.511 . S
C2053 C2049 1.376 . S
C2053 C2052 1.392 . S
C2053 H2065 0.929 . S
C2054 C2050 1.531 . S
C2054 H2066 0.960 . S
C2054 H2067 0.962 . S
C2054 H2068 0.960 . S
C2055 C2052 1.511 . S
C2055 H2069 0.961 . S
C2055 H2070 0.961 . S
C2055 H2071 0.961 . S
C2056 C2057 1.370 . S
C2056 C2058 1.363 . S
C2056 H2072 0.931 . S
C2057 C2056 1.370 . S
C2057 C2061 1.408 . S
C2058 C2056 1.363 . S
C2058 C2059 1.370 . S
C2058 C2062 1.524 . S
C2059 C2051 1.503 . S
C2059 C2058 1.370 . S
C2059 C2060 1.403 . S
C2060 C2059 1.403 . S
C2060 C2061 1.404 . S
C2060 C2063 1.539 . S
C2061 C2057 1.408 . S
C2061 C2060 1.404 . S
C2061 H2073 0.930 . S
C2062 C2058 1.524 . S
C2062 H2074 0.956 . S
C2062 H2075 0.961 . S
C2062 H2076 0.961 . S
C2063 C2060 1.539 . S
C2063 H2077 0.958 . S
C2063 H2078 0.961 . S
C2063 H2079 0.960 . S
H2064 C2048 0.931 . S
H2065 C2053 0.929 . S
H2066 C2054 0.960 . S
H2067 C2054 0.962 . S
H2068 C2054 0.960 . S
H2069 C2055 0.961 . S
H2070 C2055 0.961 . S
H2071 C2055 0.961 . S
H2072 C2056 0.931 . S
H2073 C2061 0.930 . S
H2074 C2062 0.956 . S
H2075 C2062 0.961 . S
H2076 C2062 0.961 . S
H2077 C2063 0.958 . S
H2078 C2063 0.961 . S
H2079 C2063 0.960 . S
C2080 C2081 1.391 . S
C2080 C2082 1.394 . S
C2080 H2096 0.931 . S
C2081 C2080 1.391 . S
C2081 C2085 1.376 . S
C2082 C2080 1.394 . S
C2082 C2083 1.369 . S
C2082 C2086 1.531 . S
C2083 C2082 1.369 . S
C2083 C2084 1.410 . S
C2083 C2091 1.503 . S
C2084 C2083 1.410 . S
C2084 C2085 1.392 . S
C2084 C2087 1.511 . S
C2085 C2081 1.376 . S
C2085 C2084 1.392 . S
C2085 H2097 0.929 . S
C2086 C2082 1.531 . S
C2086 H2098 0.960 . S
C2086 H2099 0.962 . S
C2086 H2100 0.960 . S
C2087 C2084 1.511 . S
C2087 H2101 0.961 . S
C2087 H2102 0.961 . S
C2087 H2103 0.961 . S
C2088 C2089 1.370 . S
C2088 C2090 1.363 . S
C2088 H2104 0.931 . S
C2089 C2088 1.370 . S
C2089 C2093 1.408 . S
C2090 C2088 1.363 . S
C2090 C2091 1.370 . S
C2090 C2094 1.524 . S
C2091 C2083 1.503 . S
C2091 C2090 1.370 . S
C2091 C2092 1.403 . S
C2092 C2091 1.403 . S
C2092 C2093 1.404 . S
C2092 C2095 1.539 . S
C2093 C2089 1.408 . S
C2093 C2092 1.404 . S
C2093 H2105 0.930 . S
C2094 C2090 1.524 . S
C2094 H2106 0.956 . S
C2094 H2107 0.961 . S
C2094 H2108 0.961 . S
C2095 C2092 1.539 . S
C2095 H2109 0.958 . S
C2095 H2110 0.961 . S
C2095 H2111 0.960 . S
H2096 C2080 0.931 . S
H2097 C2085 0.929 . S
H2098 C2086 0.960 . S
H2099 C2086 0.962 . S
H2100 C2086 0.960 . S
H2101 C2087 0.961 . S
H2102 C2087 0.961 . S
H2103 C2087 0.961 . S
H2104 C2088 0.931 . S
H2105 C2093 0.930 . S
H2106 C2094 0.956 . S
H2107 C2094 0.961 . S
H2108 C2094 0.961 . S
H2109 C2095 0.958 . S
H2110 C2095 0.961 . S
H2111 C2095 0.960 . S
C2112 C2113 1.391 . S
C2112 C2114 1.394 . S
C2112 H2128 0.931 . S
C2113 C2112 1.391 . S
C2113 C2117 1.376 . S
C2114 C2112 1.394 . S
C2114 C2115 1.369 . S
C2114 C2118 1.531 . S
C2115 C2114 1.369 . S
C2115 C2116 1.410 . S
C2115 C2123 1.503 . S
C2116 C2115 1.410 . S
C2116 C2117 1.392 . S
C2116 C2119 1.511 . S
C2117 C2113 1.376 . S
C2117 C2116 1.392 . S
C2117 H2129 0.929 . S
C2118 C2114 1.531 . S
C2118 H2130 0.960 . S
C2118 H2131 0.962 . S
C2118 H2132 0.960 . S
C2119 C2116 1.511 . S
C2119 H2133 0.961 . S
C2119 H2134 0.961 . S
C2119 H2135 0.961 . S
C2120 C2121 1.370 . S
C2120 C2122 1.363 . S
C2120 H2136 0.931 . S
C2121 C2120 1.370 . S
C2121 C2125 1.408 . S
C2122 C2120 1.363 . S
C2122 C2123 1.370 . S
C2122 C2126 1.524 . S
C2123 C2115 1.503 . S
C2123 C2122 1.370 . S
C2123 C2124 1.403 . S
C2124 C2123 1.403 . S
C2124 C2125 1.404 . S
C2124 C2127 1.539 . S
C2125 C2121 1.408 . S
C2125 C2124 1.404 . S
C2125 H2137 0.930 . S
C2126 C2122 1.524 . S
C2126 H2138 0.956 . S
C2126 H2139 0.961 . S
C2126 H2140 0.961 . S
C2127 C2124 1.539 . S
C2127 H2141 0.958 . S
C2127 H2142 0.961 . S
C2127 H2143 0.960 . S
H2128 C2112 0.931 . S
H2129 C2117 0.929 . S
H2130 C2118 0.960 . S
H2131 C2118 0.962 . S
H2132 C2118 0.960 . S
H2133 C2119 0.961 . S
H2134 C2119 0.961 . S
H2135 C2119 0.961 . S
H2136 C2120 0.931 . S
H2137 C2125 0.930 . S
H2138 C2126 0.956 . S
H2139 C2126 0.961 . S
H2140 C2126 0.961 . S
H2141 C2127 0.958 . S
H2142 C2127 0.961 . S
H2143 C2127 0.960 . S
C2144 C2145 1.391 . S
C2144 C2146 1.394 . S
C2144 H2160 0.931 . S
C2145 C2144 1.391 . S
C2145 C2149 1.376 . S
C2146 C2144 1.394 . S
C2146 C2147 1.369 . S
C2146 C2150 1.531 . S
C2147 C2146 1.369 . S
C2147 C2148 1.410 . S
C2147 C2155 1.503 . S
C2148 C2147 1.410 . S
C2148 C2149 1.392 . S
C2148 C2151 1.511 . S
C2149 C2145 1.376 . S
C2149 C2148 1.392 . S
C2149 H2161 0.929 . S
C2150 C2146 1.531 . S
C2150 H2162 0.960 . S
C2150 H2163 0.962 . S
C2150 H2164 0.960 . S
C2151 C2148 1.511 . S
C2151 H2165 0.961 . S
C2151 H2166 0.961 . S
C2151 H2167 0.961 . S
C2152 C2153 1.370 . S
C2152 C2154 1.363 . S
C2152 H2168 0.931 . S
C2153 C2152 1.370 . S
C2153 C2157 1.408 . S
C2154 C2152 1.363 . S
C2154 C2155 1.370 . S
C2154 C2158 1.524 . S
C2155 C2147 1.503 . S
C2155 C2154 1.370 . S
C2155 C2156 1.403 . S
C2156 C2155 1.403 . S
C2156 C2157 1.404 . S
C2156 C2159 1.539 . S
C2157 C2153 1.408 . S
C2157 C2156 1.404 . S
C2157 H2169 0.930 . S
C2158 C2154 1.524 . S
C2158 H2170 0.956 . S
C2158 H2171 0.961 . S
C2158 H2172 0.961 . S
C2159 C2156 1.539 . S
C2159 H2173 0.958 . S
C2159 H2174 0.961 . S
C2159 H2175 0.960 . S
H2160 C2144 0.931 . S
H2161 C2149 0.929 . S
H2162 C2150 0.960 . S
H2163 C2150 0.962 . S
H2164 C2150 0.960 . S
H2165 C2151 0.961 . S
H2166 C2151 0.961 . S
H2167 C2151 0.961 . S
H2168 C2152 0.931 . S
H2169 C2157 0.930 . S
H2170 C2158 0.956 . S
H2171 C2158 0.961 . S
H2172 C2158 0.961 . S
H2173 C2159 0.958 . S
H2174 C2159 0.961 . S
H2175 C2159 0.960 . S
C641 C139 3.516 . S
C649 C18 3.547 . S
C673 C10 2.345 . S
C681 C59 2.353 . S
C705 C89 1.011 . S
C713 C49 0.988 . S
C737 C126 1.394 . S
C745 C86 1.395 . S
C769 C170 2.307 . S
C777 C210 2.358 . S
C801 C218 1.012 . S
C809 C258 1.029 . S
C833 C255 1.273 . S
C841 C286 1.242 . S
C865 C175 0.924 . S
C873 C289 0.938 . S
C897 C375 1.179 . S
C905 C15 1.173 . S
C929 C410 0.814 . S
C937 C46 0.870 . S
C961 C99 2.324 . S
C969 C539 2.295 . S
C993 C338 0.985 . S
C1001 C129 1.009 . S
C1025 C449 1.002 . S
C1033 C178 0.978 . S
C1057 C575 1.150 . S
C1065 C215 1.199 . S
C1089 C250 0.780 . S
C1097 C486 0.869 . S
C1121 C619 2.322 . S
C1129 C299 2.294 . S
C1153 C335 0.917 . S
C1161 C529 0.916 . S
C1185 C370 2.360 . S
C1193 C330 2.318 . S
C1217 C418 1.044 . S
C1225 C378 1.035 . S
C1249 C578 3.542 . S
C1257 C459 3.522 . S
C1281 C489 0.943 . S
C1289 C609 0.968 . S
C1313 C450 3.506 . S
C1321 C9 3.550 . S
C1345 C490 2.342 . S
C1353 C19 2.351 . S
C1377 C498 0.978 . S
C1385 C98 0.998 . S
C1409 C95 1.382 . S
C1417 C455 1.397 . S
C1441 C379 2.351 . S
C1449 C179 2.319 . S
C1473 C369 0.989 . S
C1481 C249 1.035 . S
C1505 C535 1.250 . S
C1513 C246 1.270 . S
C1537 C166 0.874 . S
C1545 C538 0.944 . S
C1569 C206 1.182 . S
C1577 C6 1.185 . S
C1601 C419 0.816 . S
C1609 C495 0.873 . S
C1633 C90 2.329 . S
C1641 C290 2.294 . S
C1665 C329 0.965 . S
C1673 C458 1.005 . S
C1697 C138 1.001 . S
C1705 C169 0.973 . S
C1729 C366 1.190 . S
C1737 C566 1.185 . S
C1761 C259 0.825 . S
C1769 C55 0.830 . S
C1793 C610 2.318 . S
C1801 C530 2.289 . S
C1825 C326 0.967 . S
C1833 C298 0.915 . S
C1857 C339 2.329 . S
C1865 C219 2.354 . S
C1889 C409 1.016 . S
C1897 C209 1.012 . S
C1921 C130 3.521 . S
C1929 C569 3.545 . S
C1953 C58 0.943 . S
C1961 C618 0.969 . S
C1985 C499 2.361 . S
C1993 C570 2.360 . S
C2017 C446 1.420 . S
C2025 C606 1.385 . S
C2049 C415 1.288 . S
C2057 C526 1.262 . S
C2081 C579 2.350 . S
C2089 C50 2.357 . S
C2113 C135 1.361 . S
C2121 C615 1.411 . S
C2145 C295 1.222 . S
C2153 C406 1.278 . S
