# Generated by pormake.
# Topology ung, (4)-cn, num edge types: 1
# Building blocks:
#     Node 0, Type 0, BuildingBlock: KUFVIS_clean_sbu_0, # of connection points: 4
#     Node 1, Type 0, BuildingBlock: KUFVIS_clean_sbu_0, # of connection points: 4
#     Node 2, Type 0, BuildingBlock: KUFVIS_clean_sbu_0, # of connection points: 4
#     Node 3, Type 0, BuildingBlock: KUFVIS_clean_sbu_0, # of connection points: 4
#     Node 4, Type 0, BuildingBlock: KUFVIS_clean_sbu_0, # of connection points: 4
#     Node 5, Type 0, BuildingBlock: KUFVIS_clean_sbu_0, # of connection points: 4
#     Node 6, Type 0, BuildingBlock: KUFVIS_clean_sbu_0, # of connection points: 4
#     Node 7, Type 0, BuildingBlock: KUFVIS_clean_sbu_0, # of connection points: 4
#     Node 8, Type 0, BuildingBlock: KUFVIS_clean_sbu_0, # of connection points: 4
#     Node 9, Type 0, BuildingBlock: KUFVIS_clean_sbu_0, # of connection points: 4
#     Node 10, Type 0, BuildingBlock: KUFVIS_clean_sbu_0, # of connection points: 4
#     Node 11, Type 0, BuildingBlock: KUFVIS_clean_sbu_0, # of connection points: 4
#     Node 12, Type 0, BuildingBlock: KUFVIS_clean_sbu_0, # of connection points: 4
#     Node 13, Type 0, BuildingBlock: KUFVIS_clean_sbu_0, # of connection points: 4
#     Node 14, Type 0, BuildingBlock: KUFVIS_clean_sbu_0, # of connection points: 4
#     Node 15, Type 0, BuildingBlock: KUFVIS_clean_sbu_0, # of connection points: 4
#     Node 16, Type 0, BuildingBlock: KUFVIS_clean_sbu_0, # of connection points: 4
#     Node 17, Type 0, BuildingBlock: KUFVIS_clean_sbu_0, # of connection points: 4
#     Edge 18, Type (0, 0), BuildingBlock: CIFDUS_clean_linker_0, # of connection points: 2
#     Edge 19, Type (0, 0), BuildingBlock: CIFDUS_clean_linker_0, # of connection points: 2
#     Edge 20, Type (0, 0), BuildingBlock: CIFDUS_clean_linker_0, # of connection points: 2
#     Edge 21, Type (0, 0), BuildingBlock: CIFDUS_clean_linker_0, # of connection points: 2
#     Edge 22, Type (0, 0), BuildingBlock: CIFDUS_clean_linker_0, # of connection points: 2
#     Edge 23, Type (0, 0), BuildingBlock: CIFDUS_clean_linker_0, # of connection points: 2
#     Edge 24, Type (0, 0), BuildingBlock: CIFDUS_clean_linker_0, # of connection points: 2
#     Edge 25, Type (0, 0), BuildingBlock: CIFDUS_clean_linker_0, # of connection points: 2
#     Edge 26, Type (0, 0), BuildingBlock: CIFDUS_clean_linker_0, # of connection points: 2
#     Edge 27, Type (0, 0), BuildingBlock: CIFDUS_clean_linker_0, # of connection points: 2
#     Edge 28, Type (0, 0), BuildingBlock: CIFDUS_clean_linker_0, # of connection points: 2
#     Edge 29, Type (0, 0), BuildingBlock: CIFDUS_clean_linker_0, # of connection points: 2
#     Edge 30, Type (0, 0), BuildingBlock: CIFDUS_clean_linker_0, # of connection points: 2
#     Edge 31, Type (0, 0), BuildingBlock: CIFDUS_clean_linker_0, # of connection points: 2
#     Edge 32, Type (0, 0), BuildingBlock: CIFDUS_clean_linker_0, # of connection points: 2
#     Edge 33, Type (0, 0), BuildingBlock: CIFDUS_clean_linker_0, # of connection points: 2
#     Edge 34, Type (0, 0), BuildingBlock: CIFDUS_clean_linker_0, # of connection points: 2
#     Edge 35, Type (0, 0), BuildingBlock: CIFDUS_clean_linker_0, # of connection points: 2
#     Edge 36, Type (0, 0), BuildingBlock: CIFDUS_clean_linker_0, # of connection points: 2
#     Edge 37, Type (0, 0), BuildingBlock: CIFDUS_clean_linker_0, # of connection points: 2
#     Edge 38, Type (0, 0), BuildingBlock: CIFDUS_clean_linker_0, # of connection points: 2
#     Edge 39, Type (0, 0), BuildingBlock: CIFDUS_clean_linker_0, # of connection points: 2
#     Edge 40, Type (0, 0), BuildingBlock: CIFDUS_clean_linker_0, # of connection points: 2
#     Edge 41, Type (0, 0), BuildingBlock: CIFDUS_clean_linker_0, # of connection points: 2
#     Edge 42, Type (0, 0), BuildingBlock: CIFDUS_clean_linker_0, # of connection points: 2
#     Edge 43, Type (0, 0), BuildingBlock: CIFDUS_clean_linker_0, # of connection points: 2
#     Edge 44, Type (0, 0), BuildingBlock: CIFDUS_clean_linker_0, # of connection points: 2
#     Edge 45, Type (0, 0), BuildingBlock: CIFDUS_clean_linker_0, # of connection points: 2
#     Edge 46, Type (0, 0), BuildingBlock: CIFDUS_clean_linker_0, # of connection points: 2
#     Edge 47, Type (0, 0), BuildingBlock: CIFDUS_clean_linker_0, # of connection points: 2
#     Edge 48, Type (0, 0), BuildingBlock: CIFDUS_clean_linker_0, # of connection points: 2
#     Edge 49, Type (0, 0), BuildingBlock: CIFDUS_clean_linker_0, # of connection points: 2
#     Edge 50, Type (0, 0), BuildingBlock: CIFDUS_clean_linker_0, # of connection points: 2
#     Edge 51, Type (0, 0), BuildingBlock: CIFDUS_clean_linker_0, # of connection points: 2
#     Edge 52, Type (0, 0), BuildingBlock: CIFDUS_clean_linker_0, # of connection points: 2
#     Edge 53, Type (0, 0), BuildingBlock: CIFDUS_clean_linker_0, # of connection points: 2
# Relax obj value: 0.111
# Max RMSD: 0.235
# Mean RMSD: 0.223
data_MOF--net-ung--node1-KUFVIS_clean_sbu_0--edge1-CIFDUS_clean_linker_0
_symmetry_space_group_name_H-M    P1
_symmetry_Int_Tables_number       1
_symmetry_cell_setting            triclinic
loop_
_symmetry_equiv_pos_as_xyz
'x, y, z'
_cell_length_a     62.946885
_cell_length_b     64.082361
_cell_length_c     19.41706
_cell_angle_alpha  90.045457
_cell_angle_beta   89.220214
_cell_angle_gamma 120.63731
loop_
_atom_site_label
_atom_site_type_symbol
_atom_site_fract_x
_atom_site_fract_y
_atom_site_fract_z
_atom_type_partial_charge
Mn0 Mn 0.08414 0.64116 0.27307 0.0
Mn1 Mn 0.0231 0.6013 0.25991 0.0
C2 C 0.05958 0.65186 0.21316 0.0
C3 C 0.11504 0.6714 0.34014 0.0
C4 C 0.06201 0.59859 0.17199 0.0
O5 O 0.0782 0.61563 0.34477 0.0
O6 O 0.03703 0.59131 0.3357 0.0
C7 C 0.00798 0.61323 0.39212 0.0
N8 N 0.00619 0.61115 0.32236 0.0
C9 C 0.97718 0.62506 0.3207 0.0
C10 C 0.97856 0.62717 0.39261 0.0
C11 C 0.99407 0.62127 0.42845 0.0
C12 C 0.99151 0.61699 0.28732 0.0
H13 H 0.02003 0.60888 0.41975 0.0
C14 C 0.05776 0.59709 0.36269 0.0
O15 O 0.1205 0.66003 0.29407 0.0
O16 O 0.09211 0.66519 0.34652 0.0
N17 N 0.00675 0.60813 0.18871 0.0
C18 C 0.00686 0.60422 0.11972 0.0
C19 C 0.99197 0.60881 0.07646 0.0
C20 C 0.97692 0.61707 0.10465 0.0
C21 C 0.97654 0.62022 0.17604 0.0
C22 C 0.99152 0.61504 0.21664 0.0
H23 H 0.01833 0.59781 0.09782 0.0
O24 O 0.08333 0.66393 0.20431 0.0
O25 O 0.05103 0.63441 0.25845 0.0
O26 O 0.08111 0.61752 0.19543 0.0
O27 O 0.03994 0.59121 0.19347 0.0
C28 C 0.96188 0.62827 0.20853 0.0
C29 C 0.96229 0.6308 0.28078 0.0
H30 H 0.96788 0.63339 0.42081 0.0
H31 H 0.99533 0.62298 0.48391 0.0
H32 H 0.99221 0.60614 0.02148 0.0
H33 H 0.96568 0.62087 0.07104 0.0
H34 H 0.95027 0.63263 0.17842 0.0
H35 H 0.95103 0.63712 0.30515 0.0
Mn36 Mn 0.50265 0.50016 0.20839 0.0
Mn37 Mn 0.47848 0.53615 0.23145 0.0
C38 C 0.46976 0.48837 0.2838 0.0
C39 C 0.50267 0.4697 0.142 0.0
C40 C 0.52614 0.54561 0.29789 0.0
O41 O 0.51757 0.52427 0.12902 0.0
O42 O 0.49702 0.54426 0.14244 0.0
C43 C 0.44253 0.51684 0.11823 0.0
N44 N 0.44739 0.52179 0.18635 0.0
C45 C 0.4043 0.50526 0.21355 0.0
C46 C 0.39885 0.50015 0.14362 0.0
C47 C 0.41805 0.50592 0.09579 0.0
C48 C 0.42904 0.51612 0.23287 0.0
H49 H 0.45722 0.52111 0.08137 0.0
C50 C 0.51196 0.53979 0.10917 0.0
O51 O 0.52149 0.48379 0.17989 0.0
O52 O 0.48438 0.47351 0.14263 0.0
N53 N 0.45981 0.53047 0.31514 0.0
C54 C 0.46824 0.53708 0.38048 0.0
C55 C 0.4514 0.53289 0.43442 0.0
C56 C 0.42613 0.52221 0.42057 0.0
C57 C 0.41797 0.51614 0.35269 0.0
C58 C 0.43566 0.52105 0.30093 0.0
H59 H 0.48763 0.54537 0.3915 0.0
O60 O 0.48307 0.47826 0.28675 0.0
O61 O 0.47555 0.50438 0.23526 0.0
O62 O 0.52581 0.52653 0.27626 0.0
O63 O 0.51002 0.55121 0.28129 0.0
C64 C 0.39298 0.50537 0.33439 0.0
C65 C 0.38614 0.49983 0.26491 0.0
H66 H 0.38 0.49169 0.12611 0.0
H67 H 0.41398 0.50191 0.04178 0.0
H68 H 0.45786 0.53776 0.48661 0.0
H69 H 0.41316 0.51874 0.46242 0.0
H70 H 0.37887 0.50116 0.37339 0.0
H71 H 0.36685 0.49139 0.25154 0.0
Mn72 Mn 0.65359 0.06062 0.22624 0.0
Mn73 Mn 0.64991 0.11127 0.22712 0.0
C74 C 0.68439 0.09553 0.17367 0.0
C75 C 0.66481 0.03574 0.28251 0.0
C76 C 0.62125 0.06959 0.12891 0.0
O77 O 0.62657 0.05275 0.29728 0.0
O78 O 0.62816 0.08857 0.30052 0.0
C79 C 0.67335 0.13035 0.36167 0.0
N80 N 0.67259 0.13338 0.29254 0.0
C81 C 0.70583 0.1748 0.29792 0.0
C82 C 0.70701 0.17217 0.36924 0.0
C83 C 0.69083 0.14977 0.40115 0.0
C84 C 0.6886 0.15457 0.26099 0.0
H85 H 0.66065 0.11327 0.38645 0.0
C86 C 0.61963 0.06679 0.3218 0.0
O87 O 0.64841 0.02724 0.23441 0.0
O88 O 0.67445 0.05841 0.29817 0.0
N89 N 0.66969 0.13518 0.15928 0.0
C90 C 0.66539 0.13496 0.0906 0.0
C91 C 0.67908 0.15624 0.05149 0.0
C92 C 0.6966 0.17767 0.08365 0.0
C93 C 0.70084 0.17749 0.15434 0.0
C94 C 0.68673 0.15567 0.1906 0.0
H95 H 0.65137 0.11877 0.0659 0.0
O96 O 0.68187 0.0746 0.15992 0.0
O97 O 0.6696 0.09566 0.22085 0.0
O98 O 0.63004 0.05647 0.14834 0.0
O99 O 0.62673 0.08974 0.15698 0.0
C100 C 0.71775 0.19829 0.19081 0.0
C101 C 0.72063 0.19684 0.26227 0.0
H102 H 0.72014 0.18725 0.40005 0.0
H103 H 0.69159 0.1476 0.45617 0.0
H104 H 0.67567 0.15628 0.99702 0.0
H105 H 0.70623 0.19425 0.05366 0.0
H106 H 0.72855 0.21556 0.16449 0.0
H107 H 0.73389 0.21292 0.28955 0.0
Mn108 Mn 0.06891 0.48761 0.77156 0.0
Mn109 Mn 0.0112 0.47729 0.75041 0.0
C110 C 0.04211 0.45777 0.69584 0.0
C111 C 0.09546 0.47883 0.83136 0.0
C112 C 0.0561 0.51781 0.67687 0.0
O113 O 0.06535 0.50577 0.85318 0.0
O114 O 0.02708 0.49804 0.83155 0.0
C115 C 0.99051 0.44746 0.87711 0.0
N116 N 0.9898 0.45007 0.80769 0.0
C117 C 0.95477 0.4097 0.79805 0.0
C118 C 0.95492 0.4067 0.86951 0.0
C119 C 0.97294 0.42565 0.90917 0.0
C120 C 0.97281 0.43182 0.76897 0.0
H121 H 0.00447 0.46185 0.90782 0.0
C122 C 0.04671 0.50788 0.86732 0.0
O123 O 0.10415 0.49897 0.79662 0.0
O124 O 0.07174 0.46467 0.83325 0.0
N125 N 0.99277 0.45728 0.67514 0.0
C126 C 0.99444 0.46339 0.60733 0.0
C127 C 0.97788 0.44643 0.56046 0.0
C128 C 0.95923 0.42362 0.58421 0.0
C129 C 0.95708 0.41814 0.65474 0.0
C130 C 0.9742 0.43576 0.69891 0.0
H131 H 0.00808 0.4811 0.58941 0.0
O132 O 0.06573 0.46668 0.69119 0.0
O133 O 0.03463 0.46592 0.74635 0.0
O134 O 0.07235 0.51448 0.70561 0.0
O135 O 0.03281 0.50478 0.68877 0.0
C136 C 0.93853 0.39596 0.683 0.0
C137 C 0.93747 0.3916 0.75447 0.0
H138 H 0.94138 0.38991 0.8944 0.0
H139 H 0.97332 0.42342 0.9643 0.0
H140 H 0.97934 0.45101 0.50628 0.0
H141 H 0.94648 0.41068 0.54791 0.0
H142 H 0.92493 0.38224 0.65017 0.0
H143 H 0.92319 0.37435 0.77538 0.0
Mn144 Mn 0.64399 0.64472 0.70492 0.0
Mn145 Mn 0.60473 0.66556 0.72565 0.0
C146 C 0.65332 0.67558 0.78208 0.0
C147 C 0.67633 0.64591 0.64295 0.0
C148 C 0.5968 0.61936 0.79337 0.0
O149 O 0.62116 0.63022 0.62364 0.0
O150 O 0.59761 0.64701 0.638 0.0
C151 C 0.62356 0.7005 0.60918 0.0
N152 N 0.61823 0.69582 0.67763 0.0
C153 C 0.63286 0.73788 0.70067 0.0
C154 C 0.63833 0.74312 0.63034 0.0
C155 C 0.6337 0.72435 0.58444 0.0
C156 C 0.62275 0.71377 0.7223 0.0
H157 H 0.62019 0.68615 0.5738 0.0
C158 C 0.60398 0.63376 0.60451 0.0
O159 O 0.66125 0.62682 0.67899 0.0
O160 O 0.67251 0.66393 0.64243 0.0
N161 N 0.60906 0.68394 0.80742 0.0
C162 C 0.60268 0.67584 0.87364 0.0
C163 C 0.60617 0.69237 0.92603 0.0
C164 C 0.61587 0.71697 0.90973 0.0
C165 C 0.62166 0.72476 0.84099 0.0
C166 C 0.61756 0.70741 0.79089 0.0
H167 H 0.5952 0.65696 0.88652 0.0
O168 O 0.66424 0.66308 0.78525 0.0
O169 O 0.63799 0.67039 0.73161 0.0
O170 O 0.61651 0.62056 0.77013 0.0
O171 O 0.59041 0.63484 0.77833 0.0
C172 C 0.63161 0.74911 0.82032 0.0
C173 C 0.63728 0.75567 0.75024 0.0
H174 H 0.64622 0.7615 0.61108 0.0
H175 H 0.63799 0.72827 0.53013 0.0
H176 H 0.60151 0.68619 0.9789 0.0
H177 H 0.61879 0.72972 0.95037 0.0
H178 H 0.63517 0.76296 0.85798 0.0
H179 H 0.64514 0.77448 0.73507 0.0
Mn180 Mn 0.49628 0.05549 0.7278 0.0
Mn181 Mn 0.49533 0.00246 0.73735 0.0
C182 C 0.46897 0.02564 0.80158 0.0
C183 C 0.48228 0.07854 0.67312 0.0
C184 C 0.53231 0.04755 0.81316 0.0
O185 O 0.51611 0.05673 0.6442 0.0
O186 O 0.5146 0.02105 0.6538 0.0
C187 C 0.46466 0.97991 0.61469 0.0
N188 N 0.4683 0.97941 0.68351 0.0
C189 C 0.42952 0.94207 0.69793 0.0
C190 C 0.42545 0.9421 0.62711 0.0
C191 C 0.44309 0.96112 0.58535 0.0
C192 C 0.45142 0.96122 0.72419 0.0
H193 H 0.47807 0.99459 0.58248 0.0
C194 C 0.52163 0.04128 0.62301 0.0
O195 O 0.50282 0.0891 0.707 0.0
O196 O 0.47068 0.05514 0.66971 0.0
N197 N 0.4774 0.98237 0.8147 0.0
C198 C 0.48404 0.98514 0.88211 0.0
C199 C 0.46822 0.96779 0.93089 0.0
C200 C 0.44591 0.94766 0.90978 0.0
C201 C 0.43977 0.94489 0.83989 0.0
C202 C 0.45635 0.96267 0.79355 0.0
H203 H 0.5011 0.00063 0.8987 0.0
O204 O 0.47442 0.04791 0.80963 0.0
O205 O 0.47892 0.02126 0.74839 0.0
O206 O 0.52498 0.06161 0.79073 0.0
O207 O 0.52272 0.02532 0.79562 0.0
C208 C 0.4177 0.92536 0.81452 0.0
C209 C 0.41256 0.92397 0.74361 0.0
H210 H 0.40878 0.9277 0.60434 0.0
H211 H 0.44002 0.96134 0.53072 0.0
H212 H 0.47314 0.97001 0.98469 0.0
H213 H 0.43365 0.93444 0.94765 0.0
H214 H 0.40446 0.91139 0.84916 0.0
H215 H 0.39545 0.90895 0.72479 0.0
Mn216 Mn 0.75695 0.97982 0.58392 0.0
Mn217 Mn 0.69978 0.93213 0.55852 0.0
C218 C 0.72952 0.98486 0.51861 0.0
C219 C 0.78232 0.01134 0.65858 0.0
C220 C 0.74523 0.93967 0.47913 0.0
O221 O 0.7541 0.955 0.65343 0.0
O222 O 0.71459 0.92551 0.63998 0.0
C223 C 0.67618 0.9374 0.68496 0.0
N224 N 0.67712 0.93629 0.61502 0.0
C225 C 0.6427 0.9425 0.60372 0.0
C226 C 0.64124 0.94351 0.67566 0.0
C227 C 0.65808 0.94098 0.71643 0.0
C228 C 0.6611 0.93884 0.57529 0.0
H229 H 0.68921 0.93566 0.71646 0.0
C230 C 0.73541 0.93463 0.67027 0.0
O231 O 0.79183 0.00322 0.61356 0.0
O232 O 0.75855 0.00129 0.65922 0.0
N233 N 0.68296 0.93573 0.48213 0.0
C234 C 0.68666 0.934 0.41354 0.0
C235 C 0.67127 0.93603 0.36566 0.0
C236 C 0.65211 0.93958 0.38877 0.0
C237 C 0.64827 0.94068 0.45965 0.0
C238 C 0.664 0.93824 0.50496 0.0
H239 H 0.70137 0.9313 0.39543 0.0
O240 O 0.75294 0.00071 0.51542 0.0
O241 O 0.72282 0.96706 0.56209 0.0
O242 O 0.76088 0.96011 0.50569 0.0
O243 O 0.72238 0.92758 0.49722 0.0
C244 C 0.62953 0.94424 0.48712 0.0
C245 C 0.62679 0.94522 0.55909 0.0
H246 H 0.62736 0.94635 0.70012 0.0
H247 H 0.65715 0.94187 0.77197 0.0
H248 H 0.67428 0.93503 0.31105 0.0
H249 H 0.64047 0.94143 0.35166 0.0
H250 H 0.61719 0.94636 0.45334 0.0
H251 H 0.61241 0.94811 0.57958 0.0
Mn252 Mn 0.1806 0.82602 0.59988 0.0
Mn253 Mn 0.17286 0.87328 0.57241 0.0
C254 C 0.14969 0.82866 0.66018 0.0
C255 C 0.17173 0.78784 0.56322 0.0
C256 C 0.21526 0.87617 0.65383 0.0
O257 O 0.20069 0.84184 0.51198 0.0
O258 O 0.18696 0.86735 0.48838 0.0
C259 C 0.13448 0.85372 0.46557 0.0
N260 N 0.14239 0.86394 0.5285 0.0
C261 C 0.10773 0.86966 0.54316 0.0
C262 C 0.09911 0.85914 0.47853 0.0
C263 C 0.11242 0.8509 0.43989 0.0
C264 C 0.1293 0.87113 0.5671 0.0
H265 H 0.14506 0.84797 0.43513 0.0
C266 C 0.19898 0.85682 0.47247 0.0
O267 O 0.19133 0.80138 0.59902 0.0
O268 O 0.15761 0.79641 0.54893 0.0
N269 N 0.15923 0.881 0.65001 0.0
C270 C 0.16967 0.88997 0.71222 0.0
C271 C 0.15884 0.89921 0.75702 0.0
C272 C 0.13775 0.89963 0.73675 0.0
C273 C 0.12708 0.88989 0.67297 0.0
C274 C 0.13841 0.88049 0.6311 0.0
H275 H 0.18645 0.89063 0.72699 0.0
O276 O 0.1573 0.81443 0.68166 0.0
O277 O 0.15992 0.84015 0.60333 0.0
O278 O 0.20745 0.85349 0.65706 0.0
O279 O 0.20457 0.88504 0.61912 0.0
C280 C 0.10609 0.88979 0.64834 0.0
C281 C 0.09611 0.87924 0.58411 0.0
H282 H 0.08239 0.85742 0.45791 0.0
H283 H 0.10593 0.84282 0.38991 0.0
H284 H 0.16715 0.90665 0.8062 0.0
H285 H 0.13015 0.90777 0.77031 0.0
H286 H 0.09725 0.89749 0.6788 0.0
H287 H 0.07964 0.8788 0.56646 0.0
Mn288 Mn 0.32698 0.40791 0.62976 0.0
Mn289 Mn 0.27444 0.35447 0.65776 0.0
C290 C 0.328 0.37767 0.69239 0.0
C291 C 0.36065 0.43234 0.55926 0.0
C292 C 0.28885 0.39891 0.74313 0.0
O293 O 0.30357 0.40985 0.5625 0.0
O294 O 0.26955 0.37419 0.58796 0.0
C295 C 0.27413 0.33439 0.52011 0.0
N296 N 0.27407 0.33264 0.59003 0.0
C297 C 0.27461 0.29542 0.58332 0.0
C298 C 0.27452 0.29673 0.51124 0.0
C299 C 0.27432 0.31633 0.47952 0.0
C300 C 0.27452 0.314 0.621 0.0
H301 H 0.27413 0.3495 0.49554 0.0
C302 C 0.28074 0.39444 0.5555 0.0
O303 O 0.35327 0.44176 0.60628 0.0
O304 O 0.34842 0.40898 0.55273 0.0
N305 N 0.27554 0.33309 0.72389 0.0
C306 C 0.27381 0.33369 0.79377 0.0
C307 C 0.2734 0.31524 0.83352 0.0
C308 C 0.27408 0.29607 0.80082 0.0
C309 C 0.2746 0.29518 0.72873 0.0
C310 C 0.27493 0.31407 0.6919 0.0
H311 H 0.27288 0.34818 0.81892 0.0
O312 O 0.34585 0.39999 0.6957 0.0
O313 O 0.31045 0.37335 0.64951 0.0
O314 O 0.30873 0.41342 0.71006 0.0
O315 O 0.27492 0.37641 0.72933 0.0
C316 C 0.27459 0.27624 0.69196 0.0
C317 C 0.27476 0.27641 0.6193 0.0
H318 H 0.27463 0.28282 0.47978 0.0
H319 H 0.27434 0.31753 0.42392 0.0
H320 H 0.27254 0.31578 0.88915 0.0
H321 H 0.27383 0.28204 0.83171 0.0
H322 H 0.27429 0.26139 0.71906 0.0
H323 H 0.2748 0.26174 0.59165 0.0
Mn324 Mn 0.75075 0.82938 0.0582 0.0
Mn325 Mn 0.8088 0.876 0.08036 0.0
C326 C 0.77836 0.82304 0.11787 0.0
C327 C 0.72309 0.79855 0.9865 0.0
C328 C 0.76488 0.86926 0.16582 0.0
O329 O 0.75346 0.85481 0.99125 0.0
O330 O 0.79339 0.8836 0.00224 0.0
C331 C 0.83044 0.87095 0.94963 0.0
N332 N 0.83031 0.87153 0.01974 0.0
C333 C 0.86409 0.86413 0.02462 0.0
C334 C 0.86471 0.86362 0.95244 0.0
C335 C 0.84778 0.86702 0.91481 0.0
C336 C 0.84644 0.86818 0.05646 0.0
H337 H 0.81733 0.87335 0.92051 0.0
C338 C 0.77226 0.87504 0.97396 0.0
O339 O 0.7152 0.80726 0.03433 0.0
O340 O 0.74669 0.8076 0.98057 0.0
N341 N 0.82613 0.87134 0.15338 0.0
C342 C 0.82324 0.87259 0.22269 0.0
C343 C 0.83877 0.86957 0.26773 0.0
C344 C 0.85722 0.86554 0.24107 0.0
C345 C 0.86025 0.86496 0.16956 0.0
C346 C 0.84441 0.86835 0.1272 0.0
H347 H 0.80907 0.87563 0.24351 0.0
O348 O 0.75484 0.80775 0.12321 0.0
O349 O 0.78508 0.84116 0.07546 0.0
O350 O 0.74871 0.84913 0.1391 0.0
O351 O 0.78754 0.88107 0.14601 0.0
C352 C 0.87825 0.86099 0.13863 0.0
C353 C 0.88013 0.86051 0.06622 0.0
H354 H 0.878 0.86051 0.92539 0.0
H355 H 0.84806 0.86653 0.8591 0.0
H356 H 0.83639 0.87017 0.32286 0.0
H357 H 0.86897 0.86295 0.27598 0.0
H358 H 0.89066 0.85816 0.17006 0.0
H359 H 0.89395 0.85729 0.04304 0.0
Mn360 Mn 0.32395 0.96995 0.09753 0.0
Mn361 Mn 0.27859 0.9809 0.06304 0.0
C362 C 0.32472 0.00343 0.14686 0.0
C363 C 0.36065 0.97373 0.05915 0.0
C364 C 0.27268 0.94023 0.15737 0.0
O365 O 0.30601 0.94798 0.01643 0.0
O366 O 0.28249 0.9634 0.98394 0.0
C367 C 0.30081 0.01526 0.94596 0.0
N368 N 0.29074 0.0101 0.01065 0.0
C369 C 0.29594 0.04983 0.02149 0.0
C370 C 0.30617 0.05552 0.95474 0.0
C371 C 0.30865 0.03817 0.91686 0.0
C372 C 0.28829 0.02665 0.04756 0.0
H373 H 0.30294 0.00204 0.91696 0.0
C374 C 0.29153 0.94964 0.97445 0.0
O375 O 0.34643 0.9565 0.10205 0.0
O376 O 0.35382 0.98874 0.03997 0.0
N377 N 0.27333 0.99787 0.13585 0.0
C378 C 0.2643 0.98993 0.20077 0.0
C379 C 0.26134 0.00533 0.24608 0.0
C380 C 0.26759 0.02865 0.22406 0.0
C381 C 0.27661 0.03633 0.15682 0.0
C382 C 0.27895 0.02012 0.11375 0.0
H383 H 0.25952 0.97205 0.2181 0.0
O384 O 0.33821 0.9953 0.17153 0.0
O385 O 0.31205 0.99214 0.09304 0.0
O386 O 0.29549 0.94688 0.16095 0.0
O387 O 0.26457 0.95076 0.11881 0.0
C388 C 0.28381 0.05958 0.13128 0.0
C389 C 0.2935 0.06638 0.06376 0.0
H390 H 0.3124 0.07323 0.93233 0.0
H391 H 0.31668 0.04247 0.86549 0.0
H392 H 0.2544 0.99932 0.29797 0.0
H393 H 0.26557 0.04049 0.25951 0.0
H394 H 0.28219 0.07241 0.16345 0.0
H395 H 0.29926 0.08447 0.04517 0.0
Mn396 Mn 0.18299 0.41745 0.13331 0.0
Mn397 Mn 0.17494 0.3625 0.1731 0.0
C398 C 0.1496 0.39024 0.19997 0.0
C399 C 0.17488 0.44042 0.0554 0.0
C400 C 0.21003 0.40827 0.24918 0.0
O401 O 0.20679 0.41519 0.06653 0.0
O402 O 0.20038 0.37878 0.09968 0.0
C403 C 0.15274 0.33982 0.04004 0.0
N404 N 0.15129 0.33994 0.11007 0.0
C405 C 0.11067 0.30439 0.11065 0.0
C406 C 0.11179 0.30379 0.03855 0.0
C407 C 0.13291 0.32161 0.00311 0.0
C408 C 0.13097 0.32302 0.14462 0.0
H409 H 0.16887 0.35355 0.01254 0.0
C410 C 0.21151 0.39812 0.06299 0.0
O411 O 0.19288 0.45104 0.09877 0.0
O412 O 0.16256 0.41701 0.05668 0.0
N413 N 0.15093 0.3441 0.24338 0.0
C414 C 0.15341 0.34637 0.31301 0.0
C415 C 0.1341 0.3297 0.35621 0.0
C416 C 0.11267 0.31054 0.32738 0.0
C417 C 0.11099 0.30793 0.25564 0.0
C418 C 0.13094 0.325 0.21527 0.0
H419 H 0.16995 0.36083 0.33535 0.0
O420 O 0.15665 0.41307 0.20021 0.0
O421 O 0.1618 0.38384 0.15932 0.0
O422 O 0.20699 0.42328 0.21298 0.0
O423 O 0.19858 0.38531 0.23981 0.0
C424 C 0.09037 0.289 0.22258 0.0
C425 C 0.09016 0.2873 0.15011 0.0
H426 H 0.09653 0.28978 0.00988 0.0
H427 H 0.13388 0.32133 0.94745 0.0
H428 H 0.13572 0.33164 0.41157 0.0
H429 H 0.09772 0.29783 0.36082 0.0
H430 H 0.07459 0.27565 0.2524 0.0
H431 H 0.07417 0.27271 0.12526 0.0
Mn432 Mn 0.4162 0.3077 0.90507 0.0
Mn433 Mn 0.36004 0.25803 0.92498 0.0
C434 C 0.38312 0.3041 0.84288 0.0
C435 C 0.44424 0.3465 0.9448 0.0
C436 C 0.4013 0.25939 0.83762 0.0
O437 O 0.42003 0.29139 0.99047 0.0
O438 O 0.38037 0.26191 0.00666 0.0
C439 C 0.34136 0.27393 0.04235 0.0
N440 N 0.33877 0.26542 0.9769 0.0
C441 C 0.29815 0.25994 0.96938 0.0
C442 C 0.3003 0.26857 0.03685 0.0
C443 C 0.32212 0.27584 0.07322 0.0
C444 C 0.31827 0.25925 0.94056 0.0
H445 H 0.35793 0.27907 0.0708 0.0
C446 C 0.40294 0.27382 0.02513 0.0
O447 O 0.45187 0.33445 0.90854 0.0
O448 O 0.42092 0.33581 0.95934 0.0
N449 N 0.33808 0.25167 0.8504 0.0
C450 C 0.3391 0.24401 0.78559 0.0
C451 C 0.31879 0.23612 0.74225 0.0
C452 C 0.2974 0.23555 0.76663 0.0
C453 C 0.29676 0.24349 0.83355 0.0
C454 C 0.31778 0.25168 0.87383 0.0
H455 H 0.35516 0.24363 0.76728 0.0
O456 O 0.40569 0.31959 0.82471 0.0
O457 O 0.38056 0.292 0.8991 0.0
O458 O 0.41717 0.28199 0.84368 0.0
O459 O 0.3804 0.24892 0.86918 0.0
C460 C 0.27587 0.24297 0.86258 0.0
C461 C 0.27669 0.25154 0.93008 0.0
H462 H 0.2853 0.26961 0.06128 0.0
H463 H 0.32393 0.28253 0.12528 0.0
H464 H 0.3194 0.22996 0.69075 0.0
H465 H 0.2815 0.2287 0.73372 0.0
H466 H 0.25918 0.23635 0.83311 0.0
H467 H 0.26065 0.25148 0.95131 0.0
Mn468 Mn 0.84572 0.1595 0.96962 0.0
Mn469 Mn 0.84062 0.20897 0.9759 0.0
C470 C 0.81914 0.16154 0.05012 0.0
C471 C 0.83204 0.12219 0.91592 0.0
C472 C 0.88534 0.20734 0.0257 0.0
O473 O 0.86166 0.1777 0.88009 0.0
O474 O 0.84867 0.2047 0.87978 0.0
C475 C 0.79678 0.19487 0.89061 0.0
N476 N 0.80844 0.20225 0.95204 0.0
C477 C 0.77457 0.20456 0.00201 0.0
C478 C 0.7622 0.1971 0.93923 0.0
C479 C 0.77331 0.1921 0.88339 0.0
C480 C 0.79783 0.20687 0.00628 0.0
H481 H 0.80534 0.19111 0.84757 0.0
C482 C 0.8586 0.19374 0.85053 0.0
O483 O 0.85357 0.13355 0.94467 0.0
O484 O 0.81895 0.13249 0.9183 0.0
N485 N 0.83257 0.21433 0.06712 0.0
C486 C 0.84608 0.21965 0.1256 0.0
C487 C 0.83691 0.22383 0.18711 0.0
C488 C 0.81407 0.22272 0.18779 0.0
C489 C 0.80055 0.2173 0.12697 0.0
C490 C 0.81055 0.21317 0.06727 0.0
H491 H 0.86372 0.22071 0.12561 0.0
O492 O 0.82622 0.14588 0.05796 0.0
O493 O 0.82756 0.17487 0.99522 0.0
O494 O 0.87613 0.18437 0.02346 0.0
O495 O 0.87429 0.21795 0.00288 0.0
C496 C 0.77752 0.21577 0.12331 0.0
C497 C 0.76466 0.20959 0.06074 0.0
H498 H 0.74409 0.19494 0.93354 0.0
H499 H 0.76384 0.18621 0.83486 0.0
H500 H 0.84748 0.22798 0.23382 0.0
H501 H 0.80704 0.22598 0.23531 0.0
H502 H 0.76963 0.21936 0.16839 0.0
H503 H 0.74722 0.20883 0.05817 0.0
Mn504 Mn 0.99138 0.73655 0.92484 0.0
Mn505 Mn 0.99639 0.79104 0.90593 0.0
C506 C 0.02445 0.76706 0.86306 0.0
C507 C 0.99914 0.71053 0.98857 0.0
C508 C 0.96089 0.74668 0.8241 0.0
O509 O 0.96704 0.73567 0.99713 0.0
O510 O 0.97496 0.774 0.98694 0.0
C511 C 0.02427 0.81444 0.03217 0.0
N512 N 0.02243 0.81409 0.96233 0.0
C513 C 0.06185 0.85083 0.95055 0.0
C514 C 0.06413 0.8517 0.0224 0.0
C515 C 0.04527 0.83338 0.06336 0.0
C516 C 0.04054 0.83148 0.92244 0.0
H517 H 0.00983 0.80036 0.06378 0.0
C518 C 0.96398 0.75308 0.01605 0.0
O519 O 0.98159 0.70217 0.94379 0.0
O520 O 0.01162 0.73377 0.99776 0.0
N521 N 0.01668 0.8094 0.82956 0.0
C522 C 0.0117 0.80569 0.76109 0.0
C523 C 0.02865 0.82234 0.71302 0.0
C524 C 0.05037 0.84267 0.73596 0.0
C525 C 0.05499 0.84625 0.80669 0.0
C526 C 0.03735 0.82913 0.85218 0.0
H527 H 0.99501 0.7901 0.74315 0.0
O528 O 0.01827 0.74458 0.85532 0.0
O529 O 0.01149 0.77101 0.90821 0.0
O530 O 0.96758 0.7324 0.848 0.0
O531 O 0.96976 0.7685 0.84454 0.0
C532 C 0.07634 0.86612 0.83386 0.0
C533 C 0.07989 0.86835 0.90567 0.0
H534 H 0.08029 0.86628 0.04662 0.0
H535 H 0.04693 0.83387 0.11882 0.0
H536 H 0.02501 0.81952 0.65847 0.0
H537 H 0.06324 0.85536 0.69866 0.0
H538 H 0.09005 0.87979 0.79996 0.0
H539 H 0.09653 0.88363 0.9258 0.0
Mn540 Mn 0.40134 0.15687 0.40784 0.0
Mn541 Mn 0.34417 0.14775 0.41164 0.0
C542 C 0.37146 0.12695 0.33765 0.0
C543 C 0.42802 0.14721 0.46344 0.0
C544 C 0.38833 0.19141 0.34242 0.0
O545 O 0.40046 0.17512 0.49297 0.0
O546 O 0.35952 0.16015 0.50266 0.0
C547 C 0.31965 0.1079 0.51396 0.0
N548 N 0.32074 0.11681 0.44955 0.0
C549 C 0.28207 0.08168 0.41969 0.0
C550 C 0.28049 0.07208 0.48572 0.0
C551 C 0.29946 0.08517 0.53287 0.0
C552 C 0.30294 0.1041 0.40323 0.0
H553 H 0.33404 0.11811 0.55056 0.0
C554 C 0.38148 0.17219 0.52599 0.0
O555 O 0.43682 0.1669 0.42633 0.0
O556 O 0.40429 0.13354 0.4666 0.0
N557 N 0.32717 0.13566 0.32692 0.0
C558 C 0.33189 0.14715 0.26473 0.0
C559 C 0.31458 0.13669 0.21205 0.0
C560 C 0.29245 0.11475 0.22419 0.0
C561 C 0.28818 0.10302 0.28819 0.0
C562 C 0.30619 0.11423 0.33854 0.0
H563 H 0.34847 0.16443 0.25571 0.0
O564 O 0.39479 0.1354 0.32588 0.0
O565 O 0.3666 0.1361 0.39102 0.0
O566 O 0.40381 0.18413 0.346 0.0
O567 O 0.36676 0.17992 0.37014 0.0
C568 C 0.26656 0.08091 0.30448 0.0
C569 C 0.26367 0.07005 0.36981 0.0
H570 H 0.26477 0.05471 0.5008 0.0
H571 H 0.29838 0.07788 0.5839 0.0
H572 H 0.31805 0.14578 0.16269 0.0
H573 H 0.27884 0.1071 0.18398 0.0
H574 H 0.25217 0.07193 0.26678 0.0
H575 H 0.24716 0.05281 0.38124 0.0
Mn576 Mn 0.98889 0.30485 0.4665 0.0
Mn577 Mn 0.93523 0.30262 0.4426 0.0
C578 C 0.98129 0.33196 0.52507 0.0
C579 C 0.02832 0.31873 0.42406 0.0
C580 C 0.94092 0.26694 0.53277 0.0
O581 O 0.97406 0.28234 0.38475 0.0
O582 O 0.94266 0.28835 0.3612 0.0
C583 C 0.94962 0.33702 0.32564 0.0
N584 N 0.94039 0.33017 0.39084 0.0
C585 C 0.93173 0.36254 0.39948 0.0
C586 C 0.94111 0.36997 0.33236 0.0
C587 C 0.95028 0.35726 0.29549 0.0
C588 C 0.93224 0.3427 0.42751 0.0
H589 H 0.95631 0.32703 0.29687 0.0
C590 C 0.95639 0.27948 0.34716 0.0
O591 O 0.01782 0.29998 0.46498 0.0
O592 O 0.01604 0.32915 0.40806 0.0
N593 N 0.92537 0.31563 0.51668 0.0
C594 C 0.91672 0.30594 0.58053 0.0
C595 C 0.90611 0.31595 0.62327 0.0
C596 C 0.90407 0.3355 0.59946 0.0
C597 C 0.91335 0.34538 0.53386 0.0
C598 C 0.92388 0.33474 0.49374 0.0
H599 H 0.91754 0.29046 0.59846 0.0
O600 O 0.99895 0.32846 0.54348 0.0
O601 O 0.96962 0.32056 0.46991 0.0
O602 O 0.96446 0.27759 0.53022 0.0
O603 O 0.92849 0.274 0.49832 0.0
C604 C 0.91189 0.36489 0.50588 0.0
C605 C 0.92147 0.37374 0.4392 0.0
H606 H 0.94126 0.38532 0.30851 0.0
H607 H 0.95754 0.36287 0.24366 0.0
H608 H 0.89902 0.30825 0.67384 0.0
H609 H 0.89501 0.34253 0.63174 0.0
H610 H 0.90356 0.37331 0.53531 0.0
H611 H 0.92053 0.38896 0.41865 0.0
Mn612 Mn 0.84097 0.7358 0.41104 0.0
Mn613 Mn 0.83018 0.67902 0.43662 0.0
C614 C 0.80862 0.7094 0.48092 0.0
C615 C 0.83572 0.76326 0.34596 0.0
C616 C 0.86942 0.72276 0.51271 0.0
O617 O 0.86179 0.7325 0.33666 0.0
O618 O 0.85272 0.69415 0.35508 0.0
C619 C 0.80157 0.65749 0.31011 0.0
N620 N 0.80316 0.65761 0.38001 0.0
C621 C 0.76153 0.62394 0.39117 0.0
C622 C 0.75951 0.62335 0.31928 0.0
C623 C 0.77962 0.64022 0.2786 0.0
C624 C 0.7839 0.64151 0.41964 0.0
H625 H 0.8169 0.67055 0.27867 0.0
C626 C 0.86402 0.71433 0.32192 0.0
O627 O 0.85427 0.77065 0.38707 0.0
O628 O 0.82073 0.74008 0.34121 0.0
N629 N 0.80872 0.66183 0.51289 0.0
C630 C 0.81365 0.66486 0.58149 0.0
C631 C 0.79537 0.64951 0.62931 0.0
C632 C 0.77236 0.63102 0.6061 0.0
C633 C 0.76796 0.62783 0.53521 0.0
C634 C 0.78696 0.64354 0.48996 0.0
H635 H 0.83129 0.67907 0.59966 0.0
O636 O 0.81732 0.73256 0.48433 0.0
O637 O 0.81841 0.7021 0.43414 0.0
O638 O 0.86537 0.73834 0.48404 0.0
O639 O 0.8576 0.70015 0.49814 0.0
C640 C 0.74535 0.60988 0.50768 0.0
C641 C 0.74212 0.60798 0.43572 0.0
H642 H 0.74257 0.61012 0.29478 0.0
H643 H 0.77816 0.63996 0.22309 0.0
H644 H 0.79897 0.652 0.68393 0.0
H645 H 0.75822 0.61938 0.64316 0.0
H646 H 0.73026 0.59758 0.54141 0.0
H647 H 0.72458 0.59424 0.4152 0.0
H648 H 0.08649 0.54589 0.93184 0.0
H649 H 0.00688 0.50139 0.93984 0.0
H650 H 0.00513 0.52507 0.03462 0.0
H651 H 0.02524 0.55869 0.11195 0.0
H652 H 0.10457 0.6052 0.10666 0.0
H653 H 0.10731 0.58046 0.01407 0.0
C654 C 0.06884 0.5413 0.95493 0.0
C655 C 0.04685 0.52186 0.92843 0.0
C656 C 0.06783 0.55542 0.00946 0.0
C657 C 0.0241 0.51627 0.95861 0.0
C658 C 0.02303 0.52983 0.01298 0.0
C659 C 0.04329 0.56361 0.09111 0.0
C660 C 0.06467 0.58395 0.11654 0.0
C661 C 0.04468 0.54954 0.03816 0.0
C662 C 0.08775 0.58972 0.08819 0.0
C663 C 0.08932 0.57554 0.03523 0.0
H664 H 0.55466 0.61178 0.85665 0.0
H665 H 0.60443 0.58405 0.84693 0.0
H666 H 0.58162 0.55589 0.94125 0.0
H667 H 0.5494 0.54126 0.03196 0.0
H668 H 0.50062 0.57019 0.0421 0.0
H669 H 0.52133 0.59573 0.94208 0.0
C670 C 0.56048 0.59946 0.87449 0.0
C671 C 0.58141 0.60026 0.84483 0.0
C672 C 0.54759 0.58363 0.92938 0.0
C673 C 0.58846 0.58397 0.86877 0.0
C674 C 0.57547 0.56789 0.92295 0.0
C675 C 0.54315 0.553 0.01202 0.0
C676 C 0.52361 0.55393 0.04525 0.0
C677 C 0.5553 0.5679 0.95455 0.0
C678 C 0.51576 0.56923 0.0183 0.0
C679 C 0.52757 0.58385 0.9609 0.0
H680 H 0.60478 0.09566 0.06095 0.0
H681 H 0.60068 0.02626 0.06064 0.0
H682 H 0.57415 0.01411 0.96019 0.0
H683 H 0.55157 0.02281 0.87458 0.0
H684 H 0.55567 0.09222 0.87477 0.0
H685 H 0.58337 0.10491 0.9727 0.0
C686 C 0.59814 0.07784 0.03914 0.0
C687 C 0.6047 0.06186 0.0688 0.0
C688 C 0.58311 0.07106 0.98103 0.0
C689 C 0.59592 0.03892 0.03922 0.0
C690 C 0.5808 0.03198 0.98162 0.0
C691 C 0.55862 0.04082 0.89545 0.0
C692 C 0.55138 0.05648 0.86719 0.0
C693 C 0.57425 0.04789 0.95227 0.0
C694 C 0.56088 0.07976 0.89519 0.0
C695 C 0.57662 0.08699 0.9515 0.0
H696 H 0.59419 0.08762 0.36919 0.0
H697 H 0.6023 0.02529 0.39963 0.0
H698 H 0.57169 0.01115 0.49349 0.0
H699 H 0.54374 0.01737 0.56955 0.0
H700 H 0.53625 0.08005 0.53717 0.0
H701 H 0.56544 0.09297 0.44112 0.0
C702 C 0.58934 0.07092 0.39624 0.0
C703 C 0.60069 0.05766 0.37761 0.0
C704 C 0.57179 0.06291 0.44984 0.0
C705 C 0.59388 0.03591 0.41289 0.0
C706 C 0.57639 0.02781 0.46663 0.0
C707 C 0.54832 0.03375 0.54117 0.0
C708 C 0.53787 0.04776 0.56116 0.0
C709 C 0.56535 0.04127 0.48588 0.0
C710 C 0.54407 0.06894 0.52354 0.0
C711 C 0.56081 0.07641 0.46848 0.0
H712 H 0.08286 0.6073 0.48383 0.0
H713 H 0.03305 0.54856 0.35302 0.0
H714 H 0.03154 0.51906 0.43505 0.0
H715 H 0.04259 0.50987 0.54544 0.0
H716 H 0.08744 0.5671 0.68575 0.0
H717 H 0.09394 0.59752 0.59755 0.0
C718 C 0.07182 0.58803 0.47355 0.0
C719 C 0.05791 0.57999 0.41297 0.0
C720 C 0.07039 0.57104 0.52225 0.0
C721 C 0.04361 0.55506 0.39983 0.0
C722 C 0.04284 0.53821 0.44643 0.0
C723 C 0.05334 0.52896 0.55724 0.0
C724 C 0.06387 0.53631 0.62226 0.0
C725 C 0.05577 0.54599 0.50816 0.0
C726 C 0.07911 0.56112 0.63574 0.0
C727 C 0.08258 0.57843 0.58565 0.0
H728 H 0.60443 0.59706 0.53329 0.0
H729 H 0.57185 0.6423 0.53435 0.0
H730 H 0.54646 0.62013 0.43675 0.0
H731 H 0.53174 0.58673 0.35584 0.0
H732 H 0.56284 0.54022 0.35564 0.0
H733 H 0.59079 0.56435 0.44764 0.0
C734 C 0.59195 0.60224 0.51183 0.0
C735 C 0.58999 0.62128 0.54175 0.0
C736 C 0.57708 0.58918 0.45591 0.0
C737 C 0.57365 0.62764 0.51305 0.0
C738 C 0.55911 0.61498 0.45705 0.0
C739 C 0.54472 0.58185 0.37526 0.0
C740 C 0.54497 0.56149 0.34875 0.0
C741 C 0.5604 0.59551 0.42882 0.0
C742 C 0.56211 0.55571 0.37488 0.0
C743 C 0.57807 0.56948 0.42774 0.0
H744 H 0.79405 0.91014 0.2401 0.0
H745 H 0.71862 0.85124 0.22267 0.0
H746 H 0.70631 0.86765 0.31834 0.0
H747 H 0.71669 0.89855 0.40616 0.0
H748 H 0.79194 0.95772 0.42397 0.0
H749 H 0.8045 0.94116 0.3288 0.0
C750 C 0.77487 0.90084 0.25696 0.0
C751 C 0.75731 0.87942 0.22371 0.0
C752 C 0.76787 0.91037 0.31221 0.0
C753 C 0.73259 0.86772 0.24688 0.0
C754 C 0.72551 0.87709 0.30175 0.0
C755 C 0.73591 0.9079 0.38966 0.0
C756 C 0.75333 0.92944 0.42266 0.0
C757 C 0.74298 0.89838 0.33473 0.0
C758 C 0.77809 0.94116 0.39988 0.0
C759 C 0.78529 0.9317 0.34531 0.0
H760 H 0.18631 0.87022 0.3564 0.0
H761 H 0.24414 0.86194 0.44422 0.0
H762 H 0.27197 0.88537 0.34853 0.0
H763 H 0.28136 0.91331 0.25014 0.0
H764 H 0.22303 0.92206 0.16637 0.0
H765 H 0.19395 0.89333 0.25032 0.0
C766 C 0.20486 0.87311 0.35377 0.0
C767 C 0.21334 0.86474 0.4075 0.0
C768 C 0.2208 0.88707 0.30006 0.0
C769 C 0.23723 0.86822 0.40323 0.0
C770 C 0.2532 0.88185 0.349 0.0
C771 C 0.26223 0.90871 0.24965 0.0
C772 C 0.25462 0.92031 0.20279 0.0
C773 C 0.24547 0.89223 0.29873 0.0
C774 C 0.22962 0.91378 0.20233 0.0
C775 C 0.21288 0.89729 0.25034 0.0
H776 H 0.29529 0.42266 0.43839 0.0
H777 H 0.23235 0.37929 0.57185 0.0
H778 H 0.2057 0.38495 0.49419 0.0
H779 H 0.19913 0.39749 0.3822 0.0
H780 H 0.26024 0.4369 0.24117 0.0
H781 H 0.28898 0.43867 0.32865 0.0
C782 C 0.27582 0.41477 0.45068 0.0
C783 C 0.26572 0.40019 0.5101 0.0
C784 C 0.26032 0.4176 0.40465 0.0
C785 C 0.24047 0.39013 0.52568 0.0
C786 C 0.22521 0.39348 0.48156 0.0
C787 C 0.21882 0.40692 0.37137 0.0
C788 C 0.22766 0.41698 0.30586 0.0
C789 C 0.23478 0.40651 0.42004 0.0
C790 C 0.25316 0.42936 0.29197 0.0
C791 C 0.26948 0.42997 0.34153 0.0
H792 H 0.22915 0.42595 0.946 0.0
H793 H 0.23748 0.3752 0.07243 0.0
H794 H 0.2661 0.37461 0.98837 0.0
H795 H 0.28477 0.38452 0.87368 0.0
H796 H 0.2748 0.43269 0.74181 0.0
H797 H 0.25161 0.43913 0.83399 0.0
C798 C 0.23753 0.41507 0.95543 0.0
C799 C 0.23082 0.40028 0.01465 0.0
C800 C 0.25374 0.41444 0.90607 0.0
C801 C 0.24191 0.38634 0.02652 0.0
C802 C 0.25839 0.38607 0.9787 0.0
C803 C 0.27778 0.39668 0.86573 0.0
C804 C 0.28109 0.40794 0.80165 0.0
C805 C 0.2638 0.39942 0.9175 0.0
C806 C 0.27248 0.42402 0.79147 0.0
C807 C 0.25902 0.42743 0.84374 0.0
H808 H 0.7306 0.86335 0.90285 0.0
H809 H 0.80752 0.9188 0.91909 0.0
H810 H 0.80272 0.9421 0.82764 0.0
H811 H 0.7769 0.94669 0.74282 0.0
H812 H 0.70001 0.89118 0.72637 0.0
H813 H 0.70473 0.86803 0.81845 0.0
C814 C 0.74638 0.88054 0.88659 0.0
C815 C 0.76941 0.88924 0.91817 0.0
C816 C 0.74352 0.89388 0.83391 0.0
C817 C 0.78956 0.91159 0.89601 0.0
C818 C 0.78685 0.92496 0.84362 0.0
C819 C 0.7611 0.92955 0.7593 0.0
C820 C 0.73812 0.92075 0.72732 0.0
C821 C 0.76392 0.91627 0.81221 0.0
C822 C 0.71793 0.89846 0.74971 0.0
C823 C 0.7206 0.88517 0.80245 0.0
H824 H 0.28395 0.96129 0.84763 0.0
H825 H 0.28021 0.90258 0.96572 0.0
H826 H 0.25872 0.8744 0.87149 0.0
H827 H 0.23587 0.86576 0.76246 0.0
H828 H 0.24079 0.92541 0.64523 0.0
H829 H 0.26729 0.95388 0.73153 0.0
C830 C 0.27882 0.9424 0.85211 0.0
C831 C 0.28324 0.93387 0.91354 0.0
C832 C 0.26651 0.92642 0.79807 0.0
C833 C 0.27691 0.90949 0.91866 0.0
C834 C 0.2645 0.89337 0.86502 0.0
C835 C 0.24323 0.88503 0.75496 0.0
C836 C 0.2358 0.89329 0.69814 0.0
C837 C 0.25844 0.90149 0.80538 0.0
C838 C 0.24574 0.9184 0.68905 0.0
C839 C 0.26091 0.93478 0.73849 0.0
H840 H 0.3714 0.21153 0.81212 0.0
H841 H 0.4397 0.27425 0.74351 0.0
H842 H 0.44115 0.25146 0.64401 0.0
H843 H 0.42005 0.21531 0.56912 0.0
H844 H 0.34976 0.15476 0.63499 0.0
H845 H 0.35202 0.17521 0.74287 0.0
C846 C 0.38687 0.22028 0.77613 0.0
C847 C 0.40526 0.24476 0.78513 0.0
C848 C 0.38701 0.20749 0.71786 0.0
C849 C 0.42522 0.25549 0.73796 0.0
C850 C 0.42596 0.24251 0.68071 0.0
C851 C 0.40549 0.20649 0.60774 0.0
C852 C 0.38469 0.18362 0.59408 0.0
C853 C 0.40652 0.21875 0.66896 0.0
C854 C 0.36582 0.17244 0.64412 0.0
C855 C 0.36712 0.18411 0.70582 0.0
H856 H 0.90185 0.20109 0.7974 0.0
H857 H 0.83693 0.20409 0.74727 0.0
H858 H 0.85556 0.22335 0.63683 0.0
H859 H 0.892 0.24414 0.56325 0.0
H860 H 0.95903 0.24567 0.61846 0.0
H861 H 0.9377 0.21928 0.71738 0.0
C862 C 0.89165 0.20548 0.76138 0.0
C863 C 0.86818 0.20136 0.78005 0.0
C864 C 0.90293 0.21752 0.69936 0.0
C865 C 0.85512 0.20731 0.7338 0.0
C866 C 0.86577 0.21832 0.67084 0.0
C867 C 0.90197 0.23847 0.59611 0.0
C868 C 0.92724 0.24729 0.58405 0.0
C869 C 0.88997 0.22429 0.65434 0.0
C870 C 0.93965 0.23941 0.62694 0.0
C871 C 0.92749 0.22439 0.68371 0.0
H872 H 0.9479 0.77357 0.74632 0.0
H873 H 0.93298 0.70042 0.77456 0.0
H874 H 0.9038 0.68671 0.67993 0.0
H875 H 0.88251 0.69549 0.58953 0.0
H876 H 0.89816 0.76893 0.56098 0.0
H877 H 0.92727 0.78245 0.65525 0.0
C878 C 0.93826 0.75459 0.73213 0.0
C879 C 0.94265 0.73807 0.76789 0.0
C880 C 0.92173 0.74687 0.6773 0.0
C881 C 0.93001 0.71357 0.74813 0.0
C882 C 0.91332 0.70571 0.69391 0.0
C883 C 0.89234 0.71449 0.60357 0.0
C884 C 0.88804 0.73112 0.5679 0.0
C885 C 0.90907 0.72222 0.65807 0.0
C886 C 0.90102 0.75566 0.58722 0.0
C887 C 0.91766 0.76345 0.64134 0.0
H888 H 0.89525 0.75547 0.25098 0.0
H889 H 0.87151 0.67936 0.26394 0.0
H890 H 0.90055 0.68452 0.1713 0.0
H891 H 0.93282 0.71085 0.08631 0.0
H892 H 0.9561 0.78699 0.07638 0.0
H893 H 0.92714 0.78144 0.16817 0.0
C894 C 0.89627 0.73991 0.2336 0.0
C895 C 0.88111 0.71705 0.26455 0.0
C896 C 0.91304 0.743 0.18078 0.0
C897 C 0.88293 0.6972 0.24123 0.0
C898 C 0.89956 0.70013 0.18821 0.0
C899 C 0.93162 0.72624 0.10436 0.0
C900 C 0.94668 0.74927 0.07394 0.0
C901 C 0.91477 0.72299 0.15765 0.0
C902 C 0.94477 0.76899 0.09823 0.0
C903 C 0.92817 0.76588 0.15092 0.0
H904 H 0.42384 0.21391 0.24029 0.0
H905 H 0.36475 0.21694 0.34679 0.0
H906 H 0.36625 0.24533 0.26162 0.0
H907 H 0.37977 0.2644 0.14822 0.0
H908 H 0.43925 0.26294 0.04072 0.0
H909 H 0.44249 0.23928 0.13513 0.0
C910 C 0.41175 0.22126 0.24579 0.0
C911 C 0.39381 0.21276 0.29914 0.0
C912 C 0.41258 0.23771 0.19599 0.0
C913 C 0.37841 0.22268 0.30559 0.0
C914 C 0.3792 0.23897 0.25681 0.0
C915 C 0.39386 0.25942 0.14642 0.0
C916 C 0.40912 0.26518 0.08781 0.0
C917 C 0.39549 0.24582 0.20043 0.0
C918 C 0.4274 0.25878 0.08581 0.0
C919 C 0.42908 0.24507 0.13946 0.0
H920 H 0.95642 0.29126 0.21384 0.0
H921 H 0.94069 0.23157 0.34839 0.0
H922 H 0.92071 0.20287 0.25414 0.0
H923 H 0.90153 0.19477 0.13943 0.0
H924 H 0.91844 0.25506 0.00507 0.0
H925 H 0.9449 0.2835 0.09203 0.0
C926 C 0.9492 0.27202 0.22166 0.0
C927 C 0.94972 0.26336 0.28745 0.0
C928 C 0.93792 0.25574 0.16729 0.0
C929 C 0.94046 0.23849 0.29768 0.0
C930 C 0.92894 0.22211 0.24397 0.0
C931 C 0.91183 0.21407 0.12815 0.0
C932 C 0.90765 0.2228 0.06643 0.0
C933 C 0.92672 0.23046 0.17918 0.0
C934 C 0.92109 0.24789 0.05263 0.0
C935 C 0.93607 0.26422 0.10257 0.0
H936 H 0.10883 0.6809 0.47051 0.0
H937 H 0.16206 0.70714 0.30343 0.0
H938 H 0.1874 0.74544 0.36477 0.0
H939 H 0.19021 0.7737 0.45734 0.0
H940 H 0.13531 0.74696 0.62023 0.0
H941 H 0.11493 0.70647 0.57006 0.0
C942 C 0.12631 0.6948 0.44833 0.0
C943 C 0.13351 0.69144 0.38243 0.0
C944 C 0.14033 0.71673 0.48313 0.0
C945 C 0.15623 0.70937 0.35428 0.0
C946 C 0.17056 0.73133 0.38909 0.0
C947 C 0.17431 0.75871 0.4828 0.0
C948 C 0.16428 0.76302 0.54256 0.0
C949 C 0.16226 0.73557 0.45232 0.0
C950 C 0.14338 0.7438 0.57463 0.0
C951 C 0.13165 0.72075 0.54568 0.0
H952 H 0.46611 0.49005 0.42176 0.0
H953 H 0.42306 0.4638 0.23781 0.0
H954 H 0.38484 0.44421 0.30713 0.0
H955 H 0.36399 0.43344 0.42096 0.0
H956 H 0.4067 0.46364 0.60399 0.0
H957 H 0.44491 0.48341 0.53451 0.0
C958 C 0.44827 0.48023 0.39726 0.0
C959 C 0.44708 0.47853 0.32534 0.0
C960 C 0.4265 0.46987 0.43723 0.0
C961 C 0.42412 0.46557 0.29335 0.0
C962 C 0.40238 0.45437 0.33286 0.0
C963 C 0.3817 0.44467 0.44517 0.0
C964 C 0.38283 0.44714 0.51697 0.0
C965 C 0.40337 0.45633 0.40485 0.0
C966 C 0.40563 0.46174 0.54849 0.0
C967 C 0.4274 0.4728 0.50896 0.0
H968 H 0.72451 0.98779 0.38195 0.0
H969 H 0.69723 0.99537 0.5793 0.0
H970 H 0.67317 0.01073 0.52321 0.0
H971 H 0.66295 0.0253 0.41788 0.0
H972 H 0.68713 0.01411 0.21996 0.0
H973 H 0.70897 0.99629 0.27579 0.0
C974 C 0.71285 0.99237 0.41223 0.0
C975 C 0.7122 0.9902 0.48419 0.0
C976 C 0.69865 1.00054 0.37949 0.0
C977 C 0.6975 0.99651 0.52358 0.0
C978 C 0.6839 0.00539 0.4916 0.0
C979 C 0.67262 0.01847 0.38723 0.0
C980 C 0.67368 0.02102 0.31528 0.0
C981 C 0.6847 0.00789 0.41964 0.0
C982 C 0.68607 0.01213 0.27552 0.0
C983 C 0.69869 0.00216 0.30741 0.0
H984 H 0.72602 0.1251 0.24126 0.0
H985 H 0.69215 0.1118 0.04259 0.0
H986 H 0.73257 0.13639 0.98707 0.0
H987 H 0.77699 0.15249 0.99284 0.0
H988 H 0.81135 0.16091 0.18904 0.0
H989 H 0.77155 0.14697 0.24822 0.0
C990 C 0.72759 0.12863 0.18623 0.0
C991 C 0.70625 0.11727 0.14599 0.0
C992 C 0.75106 0.14103 0.15423 0.0
C993 C 0.70833 0.12102 0.0745 0.0
C994 C 0.73146 0.13466 0.04272 0.0
C995 C 0.77587 0.15214 0.04867 0.0
C996 C 0.79694 0.158 0.08687 0.0
C997 C 0.75292 0.14341 0.08165 0.0
C998 C 0.79527 0.15661 0.15896 0.0
C999 C 0.77256 0.14866 0.19258 0.0
H1000 H 0.00314 0.70491 0.12504 0.0
H1001 H 0.01332 0.68216 0.92465 0.0
H1002 H 0.0335 0.662 0.97643 0.0
H1003 H 0.05091 0.65349 0.07838 0.0
H1004 H 0.03632 0.67176 0.27999 0.0
H1005 H 0.0153 0.69124 0.22868 0.0
C1006 C 0.0094 0.69512 0.09318 0.0
C1007 C 0.00694 0.69495 0.02144 0.0
C1008 C 0.02042 0.68311 0.12349 0.0
C1009 C 0.01495 0.68226 0.98015 0.0
C1010 C 0.02668 0.67098 0.00961 0.0
C1011 C 0.04276 0.66146 0.11079 0.0
C1012 C 0.04469 0.661 0.1825 0.0
C1013 C 0.02995 0.67172 0.08106 0.0
C1014 C 0.03453 0.67162 0.22454 0.0
C1015 C 0.02263 0.68278 0.19526 0.0
H1016 H 0.48191 0.36813 0.03731 0.0
H1017 H 0.44004 0.38231 0.89027 0.0
H1018 H 0.45754 0.42359 0.93275 0.0
H1019 H 0.47954 0.45323 0.02225 0.0
H1020 H 0.52092 0.43997 0.17301 0.0
H1021 H 0.50931 0.40103 0.11832 0.0
C1022 C 0.47736 0.38063 0.01341 0.0
C1023 C 0.45988 0.37242 0.96055 0.0
C1024 C 0.48711 0.40432 0.03949 0.0
C1025 C 0.45362 0.38844 0.93065 0.0
C1026 C 0.46348 0.41196 0.95521 0.0
C1027 C 0.48644 0.44203 0.04228 0.0
C1028 C 0.50078 0.44922 0.10187 0.0
C1029 C 0.47945 0.41974 0.01123 0.0
C1030 C 0.50986 0.43476 0.12701 0.0
C1031 C 0.50305 0.41243 0.09605 0.0
H1032 H 0.99705 0.37638 0.47252 0.0
H1033 H 0.96494 0.33237 0.65425 0.0
H1034 H 0.97794 0.3687 0.7236 0.0
H1035 H 0.00632 0.41275 0.7363 0.0
H1036 H 0.04249 0.45654 0.55655 0.0
H1037 H 0.02071 0.42089 0.48285 0.0
C1038 C 0.99196 0.37483 0.52669 0.0
C1039 C 0.97962 0.35179 0.55811 0.0
C1040 C 0.00117 0.3959 0.56705 0.0
C1041 C 0.97388 0.34992 0.62878 0.0
C1042 C 0.98176 0.37072 0.66864 0.0
C1043 C 0.00875 0.41452 0.68078 0.0
C1044 C 0.02557 0.43722 0.65153 0.0
C1045 C 0.99664 0.39379 0.63904 0.0
C1046 C 0.02937 0.43923 0.57987 0.0
C1047 C 0.01692 0.41887 0.53782 0.0
H1048 H 0.72156 0.66677 0.69456 0.0
H1049 H 0.68008 0.63248 0.51267 0.0
H1050 H 0.71859 0.64663 0.44626 0.0
H1051 H 0.76381 0.67443 0.43698 0.0
H1052 H 0.80462 0.71043 0.61858 0.0
H1053 H 0.76676 0.69008 0.6886 0.0
C1054 C 0.72109 0.66178 0.64092 0.0
C1055 C 0.69834 0.64849 0.60827 0.0
C1056 C 0.74317 0.67067 0.60306 0.0
C1057 C 0.69759 0.64245 0.5386 0.0
C1058 C 0.71955 0.65076 0.50066 0.0
C1059 C 0.76438 0.67707 0.49226 0.0
C1060 C 0.78686 0.6933 0.52333 0.0
C1061 C 0.74243 0.66569 0.53178 0.0
C1062 C 0.78745 0.69758 0.59429 0.0
C1063 C 0.76586 0.68604 0.63414 0.0
H1064 H 0.41163 0.11054 0.55378 0.0
H1065 H 0.47895 0.16754 0.46065 0.0
H1066 H 0.50268 0.15273 0.52246 0.0
H1067 H 0.50344 0.12143 0.59865 0.0
H1068 H 0.43453 0.06416 0.68419 0.0
H1069 H 0.4123 0.0814 0.63016 0.0
C1070 C 0.43153 0.11989 0.54673 0.0
C1071 C 0.44346 0.13998 0.50205 0.0
C1072 C 0.44476 0.11117 0.5814 0.0
C1073 C 0.46929 0.15194 0.49453 0.0
C1074 C 0.48283 0.14345 0.52984 0.0
C1075 C 0.48363 0.11306 0.60595 0.0
C1076 C 0.47056 0.09153 0.64513 0.0
C1077 C 0.47069 0.12282 0.57289 0.0
C1078 C 0.4449 0.08063 0.65387 0.0
C1079 C 0.43216 0.09045 0.62299 0.0
H1080 H 0.36565 0.95949 0.93384 0.0
H1081 H 0.40587 0.99517 0.11632 0.0
H1082 H 0.44503 0.01163 0.05219 0.0
H1083 H 0.46642 0.02244 0.93939 0.0
H1084 H 0.42578 0.98851 0.75585 0.0
H1085 H 0.38809 0.9643 0.82477 0.0
C1086 C 0.38312 0.97002 0.95988 0.0
C1087 C 0.3832 0.9761 0.02929 0.0
C1088 C 0.40533 0.97998 0.9221 0.0
C1089 C 0.40564 0.9901 0.06298 0.0
C1090 C 0.42793 0.99971 0.02612 0.0
C1091 C 0.44942 0.0091 0.91514 0.0
C1092 C 0.44872 0.00681 0.84325 0.0
C1093 C 0.42784 0.99579 0.95496 0.0
C1094 C 0.42669 0.99001 0.81145 0.0
C1095 C 0.40516 0.9764 0.85075 0.0
H1096 H 0.13809 0.50435 0.90678 0.0
H1097 H 0.08768 0.43394 0.82281 0.0
H1098 H 0.10986 0.41685 0.87818 0.0
H1099 H 0.14085 0.42067 0.95706 0.0
H1100 H 0.19015 0.48938 0.05144 0.0
H1101 H 0.17151 0.5085 0.98483 0.0
C1102 C 0.1323 0.48539 0.90017 0.0
C1103 C 0.11122 0.47034 0.86109 0.0
C1104 C 0.14483 0.47536 0.93423 0.0
C1105 C 0.1037 0.44577 0.85316 0.0
C1106 C 0.11638 0.43598 0.88471 0.0
C1107 C 0.14779 0.43992 0.96294 0.0
C1108 C 0.16675 0.45352 0.00964 0.0
C1109 C 0.13656 0.45044 0.92647 0.0
C1110 C 0.17555 0.47847 0.01583 0.0
C1111 C 0.16478 0.48936 0.97802 0.0
H1112 H 0.67389 0.72304 0.74883 0.0
H1113 H 0.65148 0.67362 0.92098 0.0
H1114 H 0.66827 0.70767 0.00133 0.0
H1115 H 0.6924 0.75172 0.02189 0.0
H1116 H 0.71814 0.80114 0.84927 0.0
H1117 H 0.69643 0.76716 0.76968 0.0
C1118 C 0.67225 0.71985 0.80403 0.0
C1119 C 0.66081 0.696 0.82948 0.0
C1120 C 0.68253 0.73956 0.84962 0.0
C1121 C 0.65974 0.69192 0.90074 0.0
C1122 C 0.66936 0.71135 0.94653 0.0
C1123 C 0.69266 0.75495 0.96696 0.0
C1124 C 0.70638 0.77872 0.94111 0.0
C1125 C 0.6811 0.73527 0.92155 0.0
C1126 C 0.70734 0.78288 0.86991 0.0
C1127 C 0.69515 0.76348 0.82453 0.0
H1128 H 0.76526 0.02332 0.77005 0.0
H1129 H 0.83262 0.04409 0.65682 0.0
H1130 H 0.85524 0.07927 0.73256 0.0
H1131 H 0.85461 0.10624 0.82505 0.0
H1132 H 0.78585 0.08496 0.9314 0.0
H1133 H 0.76511 0.04773 0.86501 0.0
C1134 C 0.78495 0.03541 0.76194 0.0
C1135 C 0.79717 0.03126 0.70727 0.0
C1136 C 0.79758 0.05556 0.80477 0.0
C1137 C 0.82275 0.04695 0.69838 0.0
C1138 C 0.83565 0.06709 0.7416 0.0
C1139 C 0.83525 0.09311 0.83447 0.0
C1140 C 0.82172 0.09823 0.88307 0.0
C1141 C 0.82314 0.07188 0.79423 0.0
C1142 C 0.79657 0.08136 0.89421 0.0
C1143 C 0.78468 0.06012 0.85611 0.0
H1144 H 0.13668 0.83271 0.79143 0.0
H1145 H 0.10884 0.81431 0.58535 0.0
H1146 H 0.06646 0.79543 0.62965 0.0
H1147 H 0.03763 0.77749 0.72882 0.0
H1148 H 0.06489 0.79834 0.93455 0.0
H1149 H 0.10718 0.823 0.88913 0.0
C1150 C 0.12129 0.82529 0.75633 0.0
C1151 C 0.12573 0.82473 0.68544 0.0
C1152 C 0.09693 0.81449 0.78227 0.0
C1153 C 0.1058 0.8151 0.64011 0.0
C1154 C 0.08155 0.80404 0.66549 0.0
C1155 C 0.0528 0.78809 0.76331 0.0
C1156 C 0.04833 0.78624 0.83468 0.0
C1157 C 0.07691 0.80259 0.73669 0.0
C1158 C 0.06801 0.79976 0.87929 0.0
C1159 C 0.09216 0.81373 0.85336 0.0
H1160 H 0.332 0.34001 0.64419 0.0
H1161 H 0.33012 0.37553 0.83051 0.0
H1162 H 0.34108 0.35023 0.898 0.0
H1163 H 0.35798 0.32314 0.90101 0.0
H1164 H 0.36636 0.29269 0.71229 0.0
H1165 H 0.34502 0.30957 0.64922 0.0
C1166 C 0.33329 0.34159 0.69981 0.0
C1167 C 0.3297 0.35911 0.73282 0.0
C1168 C 0.34069 0.3277 0.73782 0.0
C1169 C 0.3324 0.36182 0.80445 0.0
C1170 C 0.3387 0.34739 0.84295 0.0
C1171 C 0.35416 0.31942 0.84663 0.0
C1172 C 0.36317 0.30629 0.81144 0.0
C1173 C 0.34374 0.33088 0.80993 0.0
C1174 C 0.35903 0.30229 0.74054 0.0
C1175 C 0.34721 0.31229 0.70434 0.0
H1176 H 0.04061 0.31662 0.2931 0.0
H1177 H 0.07119 0.34399 0.49255 0.0
H1178 H 0.11239 0.36904 0.44017 0.0
H1179 H 0.1386 0.38595 0.33564 0.0
H1180 H 0.10834 0.35667 0.13716 0.0
H1181 H 0.06783 0.32966 0.19049 0.0
C1182 C 0.05652 0.32758 0.32496 0.0
C1183 C 0.05328 0.3285 0.39616 0.0
C1184 C 0.0799 0.34189 0.29445 0.0
C1185 C 0.07364 0.34287 0.43759 0.0
C1186 C 0.09701 0.35738 0.40759 0.0
C1187 C 0.1231 0.37339 0.30461 0.0
C1188 C 0.12619 0.37281 0.2332 0.0
C1189 C 0.10018 0.35754 0.33587 0.0
C1190 C 0.10619 0.35691 0.19258 0.0
C1191 C 0.08314 0.34157 0.22295 0.0
H1192 H 0.84062 0.77696 0.21156 0.0
H1193 H 0.81551 0.78608 0.41061 0.0
H1194 H 0.79664 0.80728 0.35767 0.0
H1195 H 0.78316 0.81876 0.25337 0.0
H1196 H 0.81015 0.8122 0.0545 0.0
H1197 H 0.8326 0.79456 0.10813 0.0
C1198 C 0.83153 0.78419 0.24312 0.0
C1199 C 0.82933 0.78012 0.31457 0.0
C1200 C 0.82091 0.79652 0.21227 0.0
C1201 C 0.81748 0.78929 0.35547 0.0
C1202 C 0.80655 0.8012 0.32522 0.0
C1203 C 0.79449 0.81398 0.22224 0.0
C1204 C 0.79548 0.81705 0.1506 0.0
C1205 C 0.80753 0.80426 0.25354 0.0
C1206 C 0.80968 0.81041 0.11007 0.0
C1207 C 0.82233 0.8002 0.14066 0.0
H1208 H 0.31633 0.01643 0.27316 0.0
H1209 H 0.34406 0.04419 0.06932 0.0
H1210 H 0.35753 0.08546 0.10772 0.0
H1211 H 0.36644 0.11406 0.20342 0.0
H1212 H 0.33839 0.08621 0.40698 0.0
H1213 H 0.319 0.04469 0.36443 0.0
C1214 C 0.32485 0.03152 0.23706 0.0
C1215 C 0.32906 0.02739 0.16849 0.0
C1216 C 0.33229 0.05518 0.25945 0.0
C1217 C 0.34039 0.04701 0.12215 0.0
C1218 C 0.34814 0.07058 0.14416 0.0
C1219 C 0.35531 0.09886 0.23776 0.0
C1220 C 0.35351 0.1032 0.30799 0.0
C1221 C 0.34481 0.07497 0.21316 0.0
C1222 C 0.33941 0.08339 0.35235 0.0
C1223 C 0.32875 0.05959 0.32825 0.0
loop_
_geom_bond_atom_site_label_1
_geom_bond_atom_site_label_2
_geom_bond_distance
_geom_bond_site_symmetry_2
_ccdc_geom_bond_type
Mn0 O5 2.095 . S
Mn0 O15 2.162 . S
Mn0 O16 2.297 . S
Mn0 O24 2.385 . S
Mn0 O25 2.209 . S
Mn0 O26 2.094 . S
Mn1 O6 2.121 . S
Mn1 N8 2.257 1_455 S
Mn1 N17 2.282 . S
Mn1 O25 2.215 . S
Mn1 O27 2.117 . S
C2 O24 1.234 . S
C2 O25 1.283 . S
C3 O15 1.281 . S
C3 O16 1.236 . S
C4 O26 1.240 . S
C4 O27 1.264 . S
O5 Mn0 2.095 . S
O5 C14 1.250 . S
O6 Mn1 2.121 . S
O6 C14 1.258 . S
C7 N8 1.326 . S
C7 C11 1.460 . S
C7 H13 0.929 . S
N8 Mn1 2.257 1_655 S
N8 C7 1.326 . S
N8 C12 1.362 . S
C9 C10 1.258 . S
C9 C12 1.431 . S
C9 C29 1.449 . S
C10 C9 1.258 . S
C10 C11 1.477 . S
C10 H30 0.931 . S
C11 C7 1.460 . S
C11 C10 1.477 . S
C11 H31 0.930 . S
C12 N8 1.362 . S
C12 C9 1.431 . S
C12 C22 1.476 . S
H13 C7 0.929 . S
C14 O5 1.250 . S
C14 O6 1.258 . S
O15 Mn0 2.162 . S
O15 C3 1.281 . S
O16 Mn0 2.297 . S
O16 C3 1.236 . S
N17 Mn1 2.282 . S
N17 C18 1.328 . S
N17 C22 1.318 1_455 S
C18 N17 1.328 . S
C18 C19 1.457 1_554 S
C18 H23 0.929 . S
C19 C18 1.457 1_556 S
C19 C20 1.293 1_455 S
C19 H32 0.931 . S
C20 C19 1.293 1_655 S
C20 C21 1.360 1_556 S
C20 H33 0.941 . S
C21 C20 1.360 1_554 S
C21 C22 1.396 . S
C21 C28 1.403 . S
C22 C12 1.476 . S
C22 N17 1.318 1_655 S
C22 C21 1.396 . S
H23 C18 0.929 . S
O24 Mn0 2.385 . S
O24 C2 1.234 . S
O25 Mn0 2.209 . S
O25 Mn1 2.215 . S
O25 C2 1.283 . S
O26 Mn0 2.094 . S
O26 C4 1.240 . S
O27 Mn1 2.117 . S
O27 C4 1.264 . S
C28 C21 1.403 . S
C28 C29 1.399 . S
C28 H34 0.929 . S
C29 C9 1.449 . S
C29 C28 1.399 . S
C29 H35 0.930 . S
H30 C10 0.931 . S
H31 C11 0.930 . S
H32 C19 0.931 . S
H33 C20 0.941 . S
H34 C28 0.929 . S
H35 C29 0.930 . S
Mn36 O41 2.095 . S
Mn36 O51 2.162 . S
Mn36 O52 2.297 . S
Mn36 O60 2.385 . S
Mn36 O61 2.209 . S
Mn36 O62 2.094 . S
Mn37 O42 2.121 . S
Mn37 N44 2.257 . S
Mn37 N53 2.282 . S
Mn37 O61 2.215 . S
Mn37 O63 2.117 . S
C38 O60 1.234 . S
C38 O61 1.283 . S
C39 O51 1.281 . S
C39 O52 1.236 . S
C40 O62 1.240 . S
C40 O63 1.264 . S
O41 Mn36 2.095 . S
O41 C50 1.250 . S
O42 Mn37 2.121 . S
O42 C50 1.258 . S
C43 N44 1.326 . S
C43 C47 1.460 . S
C43 H49 0.929 . S
N44 Mn37 2.257 . S
N44 C43 1.326 . S
N44 C48 1.362 . S
C45 C46 1.258 . S
C45 C48 1.431 . S
C45 C65 1.449 . S
C46 C45 1.258 . S
C46 C47 1.477 . S
C46 H66 0.931 . S
C47 C43 1.460 . S
C47 C46 1.477 . S
C47 H67 0.930 . S
C48 N44 1.362 . S
C48 C45 1.431 . S
C48 C58 1.476 . S
H49 C43 0.929 . S
C50 O41 1.250 . S
C50 O42 1.258 . S
O51 Mn36 2.162 . S
O51 C39 1.281 . S
O52 Mn36 2.297 . S
O52 C39 1.236 . S
N53 Mn37 2.282 . S
N53 C54 1.328 . S
N53 C58 1.318 . S
C54 N53 1.328 . S
C54 C55 1.457 . S
C54 H59 0.929 . S
C55 C54 1.457 . S
C55 C56 1.291 . S
C55 H68 0.931 . S
C56 C55 1.291 . S
C56 C57 1.373 . S
C56 H69 0.929 . S
C57 C56 1.373 . S
C57 C58 1.396 . S
C57 C64 1.403 . S
C58 C48 1.476 . S
C58 N53 1.318 . S
C58 C57 1.396 . S
H59 C54 0.929 . S
O60 Mn36 2.385 . S
O60 C38 1.234 . S
O61 Mn36 2.209 . S
O61 Mn37 2.215 . S
O61 C38 1.283 . S
O62 Mn36 2.094 . S
O62 C40 1.240 . S
O63 Mn37 2.117 . S
O63 C40 1.264 . S
C64 C57 1.403 . S
C64 C65 1.399 . S
C64 H70 0.929 . S
C65 C45 1.449 . S
C65 C64 1.399 . S
C65 H71 0.930 . S
H66 C46 0.931 . S
H67 C47 0.930 . S
H68 C55 0.931 . S
H69 C56 0.929 . S
H70 C64 0.929 . S
H71 C65 0.930 . S
Mn72 O77 2.095 . S
Mn72 O87 2.162 . S
Mn72 O88 2.297 . S
Mn72 O96 2.385 . S
Mn72 O97 2.209 . S
Mn72 O98 2.094 . S
Mn73 O78 2.121 . S
Mn73 N80 2.257 . S
Mn73 N89 2.282 . S
Mn73 O97 2.215 . S
Mn73 O99 2.117 . S
C74 O96 1.234 . S
C74 O97 1.283 . S
C75 O87 1.281 . S
C75 O88 1.236 . S
C76 O98 1.240 . S
C76 O99 1.264 . S
O77 Mn72 2.095 . S
O77 C86 1.250 . S
O78 Mn73 2.121 . S
O78 C86 1.258 . S
C79 N80 1.326 . S
C79 C83 1.460 . S
C79 H85 0.929 . S
N80 Mn73 2.257 . S
N80 C79 1.326 . S
N80 C84 1.362 . S
C81 C82 1.258 . S
C81 C84 1.431 . S
C81 C101 1.449 . S
C82 C81 1.258 . S
C82 C83 1.477 . S
C82 H102 0.931 . S
C83 C79 1.460 . S
C83 C82 1.477 . S
C83 H103 0.930 . S
C84 N80 1.362 . S
C84 C81 1.431 . S
C84 C94 1.476 . S
H85 C79 0.929 . S
C86 O77 1.250 . S
C86 O78 1.258 . S
O87 Mn72 2.162 . S
O87 C75 1.281 . S
O88 Mn72 2.297 . S
O88 C75 1.236 . S
N89 Mn73 2.282 . S
N89 C90 1.328 . S
N89 C94 1.318 . S
C90 N89 1.328 . S
C90 C91 1.457 . S
C90 H95 0.929 . S
C91 C90 1.457 . S
C91 C92 1.291 . S
C91 H104 0.931 1_554 S
C92 C91 1.291 . S
C92 C93 1.373 . S
C92 H105 0.929 1_554 S
C93 C92 1.373 . S
C93 C94 1.396 . S
C93 C100 1.403 . S
C94 C84 1.476 . S
C94 N89 1.318 . S
C94 C93 1.396 . S
H95 C90 0.929 . S
O96 Mn72 2.385 . S
O96 C74 1.234 . S
O97 Mn72 2.209 . S
O97 Mn73 2.215 . S
O97 C74 1.283 . S
O98 Mn72 2.094 . S
O98 C76 1.240 . S
O99 Mn73 2.117 . S
O99 C76 1.264 . S
C100 C93 1.403 . S
C100 C101 1.399 . S
C100 H106 0.929 . S
C101 C81 1.449 . S
C101 C100 1.399 . S
C101 H107 0.930 . S
H102 C82 0.931 . S
H103 C83 0.930 . S
H104 C91 0.931 1_556 S
H105 C92 0.929 1_556 S
H106 C100 0.929 . S
H107 C101 0.930 . S
Mn108 O113 2.095 . S
Mn108 O123 2.162 . S
Mn108 O124 2.297 . S
Mn108 O132 2.385 . S
Mn108 O133 2.209 . S
Mn108 O134 2.094 . S
Mn109 O114 2.121 . S
Mn109 N116 2.257 1_455 S
Mn109 N125 2.282 . S
Mn109 O133 2.215 . S
Mn109 O135 2.117 . S
C110 O132 1.234 . S
C110 O133 1.283 . S
C111 O123 1.281 . S
C111 O124 1.236 . S
C112 O134 1.240 . S
C112 O135 1.264 . S
O113 Mn108 2.095 . S
O113 C122 1.250 . S
O114 Mn109 2.121 . S
O114 C122 1.258 . S
C115 N116 1.326 . S
C115 C119 1.460 . S
C115 H121 0.929 . S
N116 Mn109 2.257 1_655 S
N116 C115 1.326 . S
N116 C120 1.362 . S
C117 C118 1.258 . S
C117 C120 1.431 . S
C117 C137 1.449 . S
C118 C117 1.258 . S
C118 C119 1.477 . S
C118 H138 0.931 . S
C119 C115 1.460 . S
C119 C118 1.477 . S
C119 H139 0.930 . S
C120 N116 1.362 . S
C120 C117 1.431 . S
C120 C130 1.476 . S
H121 C115 0.929 . S
C122 O113 1.250 . S
C122 O114 1.258 . S
O123 Mn108 2.162 . S
O123 C111 1.281 . S
O124 Mn108 2.297 . S
O124 C111 1.236 . S
N125 Mn109 2.282 . S
N125 C126 1.328 . S
N125 C130 1.318 1_455 S
C126 N125 1.328 . S
C126 C127 1.457 . S
C126 H131 0.929 . S
C127 C126 1.457 . S
C127 C128 1.291 1_455 S
C127 H140 0.931 . S
C128 C127 1.291 1_655 S
C128 C129 1.373 . S
C128 H141 0.929 . S
C129 C128 1.373 . S
C129 C130 1.396 . S
C129 C136 1.403 . S
C130 C120 1.476 . S
C130 N125 1.318 1_655 S
C130 C129 1.396 . S
H131 C126 0.929 . S
O132 Mn108 2.385 . S
O132 C110 1.234 . S
O133 Mn108 2.209 . S
O133 Mn109 2.215 . S
O133 C110 1.283 . S
O134 Mn108 2.094 . S
O134 C112 1.240 . S
O135 Mn109 2.117 . S
O135 C112 1.264 . S
C136 C129 1.403 . S
C136 C137 1.399 . S
C136 H142 0.929 . S
C137 C117 1.449 . S
C137 C136 1.399 . S
C137 H143 0.930 . S
H138 C118 0.931 . S
H139 C119 0.930 . S
H140 C127 0.931 . S
H141 C128 0.929 . S
H142 C136 0.929 . S
H143 C137 0.930 . S
Mn144 O149 2.095 . S
Mn144 O159 2.162 . S
Mn144 O160 2.297 . S
Mn144 O168 2.385 . S
Mn144 O169 2.209 . S
Mn144 O170 2.094 . S
Mn145 O150 2.121 . S
Mn145 N152 2.257 . S
Mn145 N161 2.282 . S
Mn145 O169 2.215 . S
Mn145 O171 2.117 . S
C146 O168 1.234 . S
C146 O169 1.283 . S
C147 O159 1.281 . S
C147 O160 1.236 . S
C148 O170 1.240 . S
C148 O171 1.264 . S
O149 Mn144 2.095 . S
O149 C158 1.250 . S
O150 Mn145 2.121 . S
O150 C158 1.258 . S
C151 N152 1.326 . S
C151 C155 1.460 . S
C151 H157 0.929 . S
N152 Mn145 2.257 . S
N152 C151 1.326 . S
N152 C156 1.362 . S
C153 C154 1.258 . S
C153 C156 1.431 . S
C153 C173 1.449 . S
C154 C153 1.258 . S
C154 C155 1.477 . S
C154 H174 0.931 . S
C155 C151 1.460 . S
C155 C154 1.477 . S
C155 H175 0.930 . S
C156 N152 1.362 . S
C156 C153 1.431 . S
C156 C166 1.476 . S
H157 C151 0.929 . S
C158 O149 1.250 . S
C158 O150 1.258 . S
O159 Mn144 2.162 . S
O159 C147 1.281 . S
O160 Mn144 2.297 . S
O160 C147 1.236 . S
N161 Mn145 2.282 . S
N161 C162 1.328 . S
N161 C166 1.318 . S
C162 N161 1.328 . S
C162 C163 1.457 . S
C162 H167 0.929 . S
C163 C162 1.457 . S
C163 C164 1.291 . S
C163 H176 0.931 1_556 S
C164 C163 1.291 . S
C164 C165 1.373 . S
C164 H177 0.929 1_556 S
C165 C164 1.373 . S
C165 C166 1.396 . S
C165 C172 1.403 . S
C166 C156 1.476 . S
C166 N161 1.318 . S
C166 C165 1.396 . S
H167 C162 0.929 . S
O168 Mn144 2.385 . S
O168 C146 1.234 . S
O169 Mn144 2.209 . S
O169 Mn145 2.215 . S
O169 C146 1.283 . S
O170 Mn144 2.094 . S
O170 C148 1.240 . S
O171 Mn145 2.117 . S
O171 C148 1.264 . S
C172 C165 1.403 . S
C172 C173 1.399 . S
C172 H178 0.929 . S
C173 C153 1.449 . S
C173 C172 1.399 . S
C173 H179 0.930 . S
H174 C154 0.931 . S
H175 C155 0.930 . S
H176 C163 0.931 1_554 S
H177 C164 0.929 1_554 S
H178 C172 0.929 . S
H179 C173 0.930 . S
Mn180 O185 2.095 . S
Mn180 O195 2.162 . S
Mn180 O196 2.297 . S
Mn180 O204 2.385 . S
Mn180 O205 2.209 . S
Mn180 O206 2.094 . S
Mn181 O186 2.121 . S
Mn181 N188 2.257 1_545 S
Mn181 N197 2.282 . S
Mn181 O205 2.215 . S
Mn181 O207 2.117 . S
C182 O204 1.234 . S
C182 O205 1.283 . S
C183 O195 1.281 . S
C183 O196 1.236 . S
C184 O206 1.240 . S
C184 O207 1.264 . S
O185 Mn180 2.095 . S
O185 C194 1.250 . S
O186 Mn181 2.121 . S
O186 C194 1.258 . S
C187 N188 1.326 . S
C187 C191 1.460 . S
C187 H193 0.929 . S
N188 Mn181 2.257 1_565 S
N188 C187 1.326 . S
N188 C192 1.362 . S
C189 C190 1.258 . S
C189 C192 1.431 . S
C189 C209 1.449 . S
C190 C189 1.258 . S
C190 C191 1.477 . S
C190 H210 0.931 . S
C191 C187 1.460 . S
C191 C190 1.477 . S
C191 H211 0.930 . S
C192 N188 1.362 . S
C192 C189 1.431 . S
C192 C202 1.476 . S
H193 C187 0.929 . S
C194 O185 1.250 . S
C194 O186 1.258 . S
O195 Mn180 2.162 . S
O195 C183 1.281 . S
O196 Mn180 2.297 . S
O196 C183 1.236 . S
N197 Mn181 2.282 . S
N197 C198 1.328 . S
N197 C202 1.318 1_545 S
C198 N197 1.328 . S
C198 C199 1.457 1_556 S
C198 H203 0.929 . S
C199 C198 1.457 1_554 S
C199 C200 1.290 1_544 S
C199 H212 0.931 . S
C200 C199 1.290 1_566 S
C200 C201 1.386 . S
C200 H213 0.918 1_556 S
C201 C200 1.386 . S
C201 C202 1.396 . S
C201 C208 1.403 . S
C202 C192 1.476 . S
C202 N197 1.318 1_565 S
C202 C201 1.396 . S
H203 C198 0.929 . S
O204 Mn180 2.385 . S
O204 C182 1.234 . S
O205 Mn180 2.209 . S
O205 Mn181 2.215 . S
O205 C182 1.283 . S
O206 Mn180 2.094 . S
O206 C184 1.240 . S
O207 Mn181 2.117 . S
O207 C184 1.264 . S
C208 C201 1.403 . S
C208 C209 1.399 . S
C208 H214 0.929 . S
C209 C189 1.449 . S
C209 C208 1.399 . S
C209 H215 0.930 . S
H210 C190 0.931 . S
H211 C191 0.930 . S
H212 C199 0.931 . S
H213 C200 0.918 1_554 S
H214 C208 0.929 . S
H215 C209 0.930 . S
Mn216 O221 2.095 . S
Mn216 O231 2.162 1_565 S
Mn216 O232 2.297 . S
Mn216 O240 2.385 . S
Mn216 O241 2.209 . S
Mn216 O242 2.094 . S
Mn217 O222 2.121 . S
Mn217 N224 2.257 . S
Mn217 N233 2.282 . S
Mn217 O241 2.215 . S
Mn217 O243 2.117 . S
C218 O240 1.234 . S
C218 O241 1.283 . S
C219 O231 1.281 . S
C219 O232 1.236 1_545 S
C220 O242 1.240 . S
C220 O243 1.264 . S
O221 Mn216 2.095 . S
O221 C230 1.250 . S
O222 Mn217 2.121 . S
O222 C230 1.258 . S
C223 N224 1.326 . S
C223 C227 1.460 . S
C223 H229 0.929 . S
N224 Mn217 2.257 . S
N224 C223 1.326 . S
N224 C228 1.362 . S
C225 C226 1.258 . S
C225 C228 1.431 . S
C225 C245 1.449 . S
C226 C225 1.258 . S
C226 C227 1.477 . S
C226 H246 0.931 . S
C227 C223 1.460 . S
C227 C226 1.477 . S
C227 H247 0.930 . S
C228 N224 1.362 . S
C228 C225 1.431 . S
C228 C238 1.476 . S
H229 C223 0.929 . S
C230 O221 1.250 . S
C230 O222 1.258 . S
O231 Mn216 2.162 1_545 S
O231 C219 1.281 . S
O232 Mn216 2.297 . S
O232 C219 1.236 1_565 S
N233 Mn217 2.282 . S
N233 C234 1.328 . S
N233 C238 1.318 . S
C234 N233 1.328 . S
C234 C235 1.457 . S
C234 H239 0.929 . S
C235 C234 1.457 . S
C235 C236 1.291 . S
C235 H248 0.931 . S
C236 C235 1.291 . S
C236 C237 1.373 . S
C236 H249 0.929 . S
C237 C236 1.373 . S
C237 C238 1.396 . S
C237 C244 1.403 . S
C238 C228 1.476 . S
C238 N233 1.318 . S
C238 C237 1.396 . S
H239 C234 0.929 . S
O240 Mn216 2.385 . S
O240 C218 1.234 . S
O241 Mn216 2.209 . S
O241 Mn217 2.215 . S
O241 C218 1.283 . S
O242 Mn216 2.094 . S
O242 C220 1.240 . S
O243 Mn217 2.117 . S
O243 C220 1.264 . S
C244 C237 1.403 . S
C244 C245 1.399 . S
C244 H250 0.929 . S
C245 C225 1.449 . S
C245 C244 1.399 . S
C245 H251 0.930 . S
H246 C226 0.931 . S
H247 C227 0.930 . S
H248 C235 0.931 . S
H249 C236 0.929 . S
H250 C244 0.929 . S
H251 C245 0.930 . S
Mn252 O257 2.095 . S
Mn252 O267 2.162 . S
Mn252 O268 2.297 . S
Mn252 O276 2.385 . S
Mn252 O277 2.209 . S
Mn252 O278 2.094 . S
Mn253 O258 2.121 . S
Mn253 N260 2.257 . S
Mn253 N269 2.282 . S
Mn253 O277 2.215 . S
Mn253 O279 2.117 . S
C254 O276 1.234 . S
C254 O277 1.283 . S
C255 O267 1.281 . S
C255 O268 1.236 . S
C256 O278 1.240 . S
C256 O279 1.264 . S
O257 Mn252 2.095 . S
O257 C266 1.250 . S
O258 Mn253 2.121 . S
O258 C266 1.258 . S
C259 N260 1.326 . S
C259 C263 1.460 . S
C259 H265 0.929 . S
N260 Mn253 2.257 . S
N260 C259 1.326 . S
N260 C264 1.362 . S
C261 C262 1.258 . S
C261 C264 1.431 . S
C261 C281 1.449 . S
C262 C261 1.258 . S
C262 C263 1.477 . S
C262 H282 0.931 . S
C263 C259 1.460 . S
C263 C262 1.477 . S
C263 H283 0.930 . S
C264 N260 1.362 . S
C264 C261 1.431 . S
C264 C274 1.476 . S
H265 C259 0.929 . S
C266 O257 1.250 . S
C266 O258 1.258 . S
O267 Mn252 2.162 . S
O267 C255 1.281 . S
O268 Mn252 2.297 . S
O268 C255 1.236 . S
N269 Mn253 2.282 . S
N269 C270 1.328 . S
N269 C274 1.318 . S
C270 N269 1.328 . S
C270 C271 1.457 . S
C270 H275 0.929 . S
C271 C270 1.457 . S
C271 C272 1.291 . S
C271 H284 0.931 . S
C272 C271 1.291 . S
C272 C273 1.373 . S
C272 H285 0.929 . S
C273 C272 1.373 . S
C273 C274 1.396 . S
C273 C280 1.403 . S
C274 C264 1.476 . S
C274 N269 1.318 . S
C274 C273 1.396 . S
H275 C270 0.929 . S
O276 Mn252 2.385 . S
O276 C254 1.234 . S
O277 Mn252 2.209 . S
O277 Mn253 2.215 . S
O277 C254 1.283 . S
O278 Mn252 2.094 . S
O278 C256 1.240 . S
O279 Mn253 2.117 . S
O279 C256 1.264 . S
C280 C273 1.403 . S
C280 C281 1.399 . S
C280 H286 0.929 . S
C281 C261 1.449 . S
C281 C280 1.399 . S
C281 H287 0.930 . S
H282 C262 0.931 . S
H283 C263 0.930 . S
H284 C271 0.931 . S
H285 C272 0.929 . S
H286 C280 0.929 . S
H287 C281 0.930 . S
Mn288 O293 2.095 . S
Mn288 O303 2.162 . S
Mn288 O304 2.297 . S
Mn288 O312 2.385 . S
Mn288 O313 2.209 . S
Mn288 O314 2.094 . S
Mn289 O294 2.121 . S
Mn289 N296 2.257 . S
Mn289 N305 2.282 . S
Mn289 O313 2.215 . S
Mn289 O315 2.117 . S
C290 O312 1.234 . S
C290 O313 1.283 . S
C291 O303 1.281 . S
C291 O304 1.236 . S
C292 O314 1.240 . S
C292 O315 1.264 . S
O293 Mn288 2.095 . S
O293 C302 1.250 . S
O294 Mn289 2.121 . S
O294 C302 1.258 . S
C295 N296 1.326 . S
C295 C299 1.460 . S
C295 H301 0.929 . S
N296 Mn289 2.257 . S
N296 C295 1.326 . S
N296 C300 1.362 . S
C297 C298 1.258 . S
C297 C300 1.431 . S
C297 C317 1.449 . S
C298 C297 1.258 . S
C298 C299 1.477 . S
C298 H318 0.931 . S
C299 C295 1.460 . S
C299 C298 1.477 . S
C299 H319 0.930 . S
C300 N296 1.362 . S
C300 C297 1.431 . S
C300 C310 1.476 . S
H301 C295 0.929 . S
C302 O293 1.250 . S
C302 O294 1.258 . S
O303 Mn288 2.162 . S
O303 C291 1.281 . S
O304 Mn288 2.297 . S
O304 C291 1.236 . S
N305 Mn289 2.282 . S
N305 C306 1.328 . S
N305 C310 1.318 . S
C306 N305 1.328 . S
C306 C307 1.457 . S
C306 H311 0.929 . S
C307 C306 1.457 . S
C307 C308 1.291 . S
C307 H320 0.931 . S
C308 C307 1.291 . S
C308 C309 1.373 . S
C308 H321 0.929 . S
C309 C308 1.373 . S
C309 C310 1.396 . S
C309 C316 1.403 . S
C310 C300 1.476 . S
C310 N305 1.318 . S
C310 C309 1.396 . S
H311 C306 0.929 . S
O312 Mn288 2.385 . S
O312 C290 1.234 . S
O313 Mn288 2.209 . S
O313 Mn289 2.215 . S
O313 C290 1.283 . S
O314 Mn288 2.094 . S
O314 C292 1.240 . S
O315 Mn289 2.117 . S
O315 C292 1.264 . S
C316 C309 1.403 . S
C316 C317 1.399 . S
C316 H322 0.929 . S
C317 C297 1.449 . S
C317 C316 1.399 . S
C317 H323 0.930 . S
H318 C298 0.931 . S
H319 C299 0.930 . S
H320 C307 0.931 . S
H321 C308 0.929 . S
H322 C316 0.929 . S
H323 C317 0.930 . S
Mn324 O329 2.095 . S
Mn324 O339 2.162 . S
Mn324 O340 2.297 1_554 S
Mn324 O348 2.385 . S
Mn324 O349 2.209 . S
Mn324 O350 2.094 . S
Mn325 O330 2.121 . S
Mn325 N332 2.257 . S
Mn325 N341 2.282 . S
Mn325 O349 2.215 . S
Mn325 O351 2.117 . S
C326 O348 1.234 . S
C326 O349 1.283 . S
C327 O339 1.281 . S
C327 O340 1.236 1_554 S
C328 O350 1.240 . S
C328 O351 1.264 . S
O329 Mn324 2.095 . S
O329 C338 1.250 1_554 S
O330 Mn325 2.121 . S
O330 C338 1.258 1_554 S
C331 N332 1.326 . S
C331 C335 1.460 1_554 S
C331 H337 0.929 1_554 S
N332 Mn325 2.257 . S
N332 C331 1.326 . S
N332 C336 1.362 . S
C333 C334 1.258 . S
C333 C336 1.431 . S
C333 C353 1.449 . S
C334 C333 1.258 . S
C334 C335 1.477 1_554 S
C334 H354 0.931 . S
C335 C331 1.460 1_556 S
C335 C334 1.477 1_556 S
C335 H355 0.930 . S
C336 N332 1.362 . S
C336 C333 1.431 . S
C336 C346 1.476 . S
H337 C331 0.929 1_556 S
C338 O329 1.250 1_556 S
C338 O330 1.258 1_556 S
O339 Mn324 2.162 . S
O339 C327 1.281 . S
O340 Mn324 2.297 1_556 S
O340 C327 1.236 1_556 S
N341 Mn325 2.282 . S
N341 C342 1.328 . S
N341 C346 1.318 . S
C342 N341 1.328 . S
C342 C343 1.457 . S
C342 H347 0.929 . S
C343 C342 1.457 . S
C343 C344 1.291 . S
C343 H356 0.931 . S
C344 C343 1.291 . S
C344 C345 1.373 . S
C344 H357 0.929 . S
C345 C344 1.373 . S
C345 C346 1.396 . S
C345 C352 1.403 . S
C346 C336 1.476 . S
C346 N341 1.318 . S
C346 C345 1.396 . S
H347 C342 0.929 . S
O348 Mn324 2.385 . S
O348 C326 1.234 . S
O349 Mn324 2.209 . S
O349 Mn325 2.215 . S
O349 C326 1.283 . S
O350 Mn324 2.094 . S
O350 C328 1.240 . S
O351 Mn325 2.117 . S
O351 C328 1.264 . S
C352 C345 1.403 . S
C352 C353 1.399 . S
C352 H358 0.929 . S
C353 C333 1.449 . S
C353 C352 1.399 . S
C353 H359 0.930 . S
H354 C334 0.931 . S
H355 C335 0.930 . S
H356 C343 0.931 . S
H357 C344 0.929 . S
H358 C352 0.929 . S
H359 C353 0.930 . S
Mn360 O365 2.095 . S
Mn360 O375 2.162 . S
Mn360 O376 2.297 . S
Mn360 O384 2.385 1_565 S
Mn360 O385 2.209 . S
Mn360 O386 2.094 . S
Mn361 O366 2.121 . S
Mn361 N368 2.257 . S
Mn361 N377 2.282 . S
Mn361 O385 2.215 . S
Mn361 O387 2.117 . S
C362 O384 1.234 . S
C362 O385 1.283 1_545 S
C363 O375 1.281 . S
C363 O376 1.236 . S
C364 O386 1.240 . S
C364 O387 1.264 . S
O365 Mn360 2.095 . S
O365 C374 1.250 1_554 S
O366 Mn361 2.121 . S
O366 C374 1.258 1_554 S
C367 N368 1.326 . S
C367 C371 1.460 1_565 S
C367 H373 0.929 1_554 S
N368 Mn361 2.257 . S
N368 C367 1.326 . S
N368 C372 1.362 1_565 S
C369 C370 1.258 . S
C369 C372 1.431 . S
C369 C389 1.449 . S
C370 C369 1.258 . S
C370 C371 1.477 . S
C370 H390 0.931 . S
C371 C367 1.460 1_545 S
C371 C370 1.477 . S
C371 H391 0.930 1_554 S
C372 N368 1.362 1_545 S
C372 C369 1.431 . S
C372 C382 1.476 . S
H373 C367 0.929 1_556 S
C374 O365 1.250 1_556 S
C374 O366 1.258 1_556 S
O375 Mn360 2.162 . S
O375 C363 1.281 . S
O376 Mn360 2.297 . S
O376 C363 1.236 . S
N377 Mn361 2.282 . S
N377 C378 1.328 . S
N377 C382 1.318 1_565 S
C378 N377 1.328 . S
C378 C379 1.457 1_565 S
C378 H383 0.929 . S
C379 C378 1.457 1_545 S
C379 C380 1.291 . S
C379 H392 0.931 . S
C380 C379 1.291 . S
C380 C381 1.373 . S
C380 H393 0.929 . S
C381 C380 1.373 . S
C381 C382 1.396 . S
C381 C388 1.403 . S
C382 C372 1.476 . S
C382 N377 1.318 1_545 S
C382 C381 1.396 . S
H383 C378 0.929 . S
O384 Mn360 2.385 1_545 S
O384 C362 1.234 . S
O385 Mn360 2.209 . S
O385 Mn361 2.215 . S
O385 C362 1.283 1_565 S
O386 Mn360 2.094 . S
O386 C364 1.240 . S
O387 Mn361 2.117 . S
O387 C364 1.264 . S
C388 C381 1.403 . S
C388 C389 1.399 . S
C388 H394 0.929 . S
C389 C369 1.449 . S
C389 C388 1.399 . S
C389 H395 0.930 . S
H390 C370 0.931 . S
H391 C371 0.930 1_556 S
H392 C379 0.931 . S
H393 C380 0.929 . S
H394 C388 0.929 . S
H395 C389 0.930 . S
Mn396 O401 2.095 . S
Mn396 O411 2.162 . S
Mn396 O412 2.297 . S
Mn396 O420 2.385 . S
Mn396 O421 2.209 . S
Mn396 O422 2.094 . S
Mn397 O402 2.121 . S
Mn397 N404 2.257 . S
Mn397 N413 2.282 . S
Mn397 O421 2.215 . S
Mn397 O423 2.117 . S
C398 O420 1.234 . S
C398 O421 1.283 . S
C399 O411 1.281 . S
C399 O412 1.236 . S
C400 O422 1.240 . S
C400 O423 1.264 . S
O401 Mn396 2.095 . S
O401 C410 1.250 . S
O402 Mn397 2.121 . S
O402 C410 1.258 . S
C403 N404 1.326 . S
C403 C407 1.460 . S
C403 H409 0.929 . S
N404 Mn397 2.257 . S
N404 C403 1.326 . S
N404 C408 1.362 . S
C405 C406 1.258 . S
C405 C408 1.431 . S
C405 C425 1.449 . S
C406 C405 1.258 . S
C406 C407 1.477 . S
C406 H426 0.931 . S
C407 C403 1.460 . S
C407 C406 1.477 . S
C407 H427 0.930 1_554 S
C408 N404 1.362 . S
C408 C405 1.431 . S
C408 C418 1.476 . S
H409 C403 0.929 . S
C410 O401 1.250 . S
C410 O402 1.258 . S
O411 Mn396 2.162 . S
O411 C399 1.281 . S
O412 Mn396 2.297 . S
O412 C399 1.236 . S
N413 Mn397 2.282 . S
N413 C414 1.328 . S
N413 C418 1.318 . S
C414 N413 1.328 . S
C414 C415 1.457 . S
C414 H419 0.929 . S
C415 C414 1.457 . S
C415 C416 1.291 . S
C415 H428 0.931 . S
C416 C415 1.291 . S
C416 C417 1.373 . S
C416 H429 0.929 . S
C417 C416 1.373 . S
C417 C418 1.396 . S
C417 C424 1.403 . S
C418 C408 1.476 . S
C418 N413 1.318 . S
C418 C417 1.396 . S
H419 C414 0.929 . S
O420 Mn396 2.385 . S
O420 C398 1.234 . S
O421 Mn396 2.209 . S
O421 Mn397 2.215 . S
O421 C398 1.283 . S
O422 Mn396 2.094 . S
O422 C400 1.240 . S
O423 Mn397 2.117 . S
O423 C400 1.264 . S
C424 C417 1.403 . S
C424 C425 1.399 . S
C424 H430 0.929 . S
C425 C405 1.449 . S
C425 C424 1.399 . S
C425 H431 0.930 . S
H426 C406 0.931 . S
H427 C407 0.930 1_556 S
H428 C415 0.931 . S
H429 C416 0.929 . S
H430 C424 0.929 . S
H431 C425 0.930 . S
Mn432 O437 2.095 . S
Mn432 O447 2.162 . S
Mn432 O448 2.297 . S
Mn432 O456 2.385 . S
Mn432 O457 2.209 . S
Mn432 O458 2.094 . S
Mn433 O438 2.121 . S
Mn433 N440 2.257 . S
Mn433 N449 2.282 . S
Mn433 O457 2.215 . S
Mn433 O459 2.117 . S
C434 O456 1.234 . S
C434 O457 1.283 . S
C435 O447 1.281 . S
C435 O448 1.236 . S
C436 O458 1.240 . S
C436 O459 1.264 . S
O437 Mn432 2.095 . S
O437 C446 1.250 . S
O438 Mn433 2.121 . S
O438 C446 1.258 . S
C439 N440 1.326 . S
C439 C443 1.460 . S
C439 H445 0.929 . S
N440 Mn433 2.257 . S
N440 C439 1.326 . S
N440 C444 1.362 . S
C441 C442 1.258 . S
C441 C444 1.431 . S
C441 C461 1.449 . S
C442 C441 1.258 . S
C442 C443 1.477 . S
C442 H462 0.931 . S
C443 C439 1.460 . S
C443 C442 1.477 . S
C443 H463 0.930 1_556 S
C444 N440 1.362 . S
C444 C441 1.431 . S
C444 C454 1.476 . S
H445 C439 0.929 . S
C446 O437 1.250 . S
C446 O438 1.258 . S
O447 Mn432 2.162 . S
O447 C435 1.281 . S
O448 Mn432 2.297 . S
O448 C435 1.236 . S
N449 Mn433 2.282 . S
N449 C450 1.328 . S
N449 C454 1.318 . S
C450 N449 1.328 . S
C450 C451 1.457 . S
C450 H455 0.929 . S
C451 C450 1.457 . S
C451 C452 1.291 . S
C451 H464 0.931 . S
C452 C451 1.291 . S
C452 C453 1.373 . S
C452 H465 0.929 . S
C453 C452 1.373 . S
C453 C454 1.396 . S
C453 C460 1.403 . S
C454 C444 1.476 . S
C454 N449 1.318 . S
C454 C453 1.396 . S
H455 C450 0.929 . S
O456 Mn432 2.385 . S
O456 C434 1.234 . S
O457 Mn432 2.209 . S
O457 Mn433 2.215 . S
O457 C434 1.283 . S
O458 Mn432 2.094 . S
O458 C436 1.240 . S
O459 Mn433 2.117 . S
O459 C436 1.264 . S
C460 C453 1.403 . S
C460 C461 1.399 . S
C460 H466 0.929 . S
C461 C441 1.449 . S
C461 C460 1.399 . S
C461 H467 0.930 . S
H462 C442 0.931 . S
H463 C443 0.930 1_554 S
H464 C451 0.931 . S
H465 C452 0.929 . S
H466 C460 0.929 . S
H467 C461 0.930 . S
Mn468 O473 2.095 . S
Mn468 O483 2.162 . S
Mn468 O484 2.297 . S
Mn468 O492 2.385 1_556 S
Mn468 O493 2.209 . S
Mn468 O494 2.094 1_556 S
Mn469 O474 2.121 . S
Mn469 N476 2.257 . S
Mn469 N485 2.282 1_556 S
Mn469 O493 2.215 . S
Mn469 O495 2.117 1_556 S
C470 O492 1.234 . S
C470 O493 1.283 1_554 S
C471 O483 1.281 . S
C471 O484 1.236 . S
C472 O494 1.240 . S
C472 O495 1.264 . S
O473 Mn468 2.095 . S
O473 C482 1.250 . S
O474 Mn469 2.121 . S
O474 C482 1.258 . S
C475 N476 1.326 . S
C475 C479 1.460 . S
C475 H481 0.929 . S
N476 Mn469 2.257 . S
N476 C475 1.326 . S
N476 C480 1.362 1_556 S
C477 C478 1.248 1_554 S
C477 C480 1.433 . S
C477 C497 1.457 . S
C478 C477 1.248 1_556 S
C478 C479 1.477 . S
C478 H498 0.931 . S
C479 C475 1.460 . S
C479 C478 1.477 . S
C479 H499 0.930 . S
C480 N476 1.362 1_554 S
C480 C477 1.433 . S
C480 C490 1.476 . S
H481 C475 0.929 . S
C482 O473 1.250 . S
C482 O474 1.258 . S
O483 Mn468 2.162 . S
O483 C471 1.281 . S
O484 Mn468 2.297 . S
O484 C471 1.236 . S
N485 Mn469 2.282 1_554 S
N485 C486 1.328 . S
N485 C490 1.318 . S
C486 N485 1.328 . S
C486 C487 1.457 . S
C486 H491 0.929 . S
C487 C486 1.457 . S
C487 C488 1.291 . S
C487 H500 0.931 . S
C488 C487 1.291 . S
C488 C489 1.373 . S
C488 H501 0.929 . S
C489 C488 1.373 . S
C489 C490 1.396 . S
C489 C496 1.403 . S
C490 C480 1.476 . S
C490 N485 1.318 . S
C490 C489 1.396 . S
H491 C486 0.929 . S
O492 Mn468 2.385 1_554 S
O492 C470 1.234 . S
O493 Mn468 2.209 . S
O493 Mn469 2.215 . S
O493 C470 1.283 1_556 S
O494 Mn468 2.094 1_554 S
O494 C472 1.240 . S
O495 Mn469 2.117 1_554 S
O495 C472 1.264 . S
C496 C489 1.403 . S
C496 C497 1.399 . S
C496 H502 0.929 . S
C497 C477 1.457 . S
C497 C496 1.399 . S
C497 H503 0.930 . S
H498 C478 0.931 . S
H499 C479 0.930 . S
H500 C487 0.931 . S
H501 C488 0.929 . S
H502 C496 0.929 . S
H503 C497 0.930 . S
Mn504 O509 2.095 . S
Mn504 O519 2.162 . S
Mn504 O520 2.297 1_655 S
Mn504 O528 2.385 1_655 S
Mn504 O529 2.209 1_655 S
Mn504 O530 2.094 . S
Mn505 O510 2.121 . S
Mn505 N512 2.257 1_655 S
Mn505 N521 2.282 1_655 S
Mn505 O529 2.215 1_655 S
Mn505 O531 2.117 . S
C506 O528 1.234 . S
C506 O529 1.283 . S
C507 O519 1.281 . S
C507 O520 1.236 1_655 S
C508 O530 1.240 . S
C508 O531 1.264 . S
O509 Mn504 2.095 . S
O509 C518 1.250 1_556 S
O510 Mn505 2.121 . S
O510 C518 1.258 1_556 S
C511 N512 1.326 . S
C511 C515 1.460 . S
C511 H517 0.929 1_556 S
N512 Mn505 2.257 1_455 S
N512 C511 1.326 . S
N512 C516 1.362 . S
C513 C514 1.258 . S
C513 C516 1.431 . S
C513 C533 1.449 . S
C514 C513 1.258 . S
C514 C515 1.477 . S
C514 H534 0.931 . S
C515 C511 1.460 . S
C515 C514 1.477 . S
C515 H535 0.930 1_556 S
C516 N512 1.362 . S
C516 C513 1.431 . S
C516 C526 1.476 . S
H517 C511 0.929 1_554 S
C518 O509 1.250 1_554 S
C518 O510 1.258 1_554 S
O519 Mn504 2.162 . S
O519 C507 1.281 . S
O520 Mn504 2.297 1_455 S
O520 C507 1.236 1_455 S
N521 Mn505 2.282 1_455 S
N521 C522 1.328 . S
N521 C526 1.318 . S
C522 N521 1.328 . S
C522 C523 1.457 . S
C522 H527 0.929 1_455 S
C523 C522 1.457 . S
C523 C524 1.291 . S
C523 H536 0.931 . S
C524 C523 1.291 . S
C524 C525 1.373 . S
C524 H537 0.929 . S
C525 C524 1.373 . S
C525 C526 1.396 . S
C525 C532 1.403 . S
C526 C516 1.476 . S
C526 N521 1.318 . S
C526 C525 1.396 . S
H527 C522 0.929 1_655 S
O528 Mn504 2.385 1_455 S
O528 C506 1.234 . S
O529 Mn504 2.209 1_455 S
O529 Mn505 2.215 1_455 S
O529 C506 1.283 . S
O530 Mn504 2.094 . S
O530 C508 1.240 . S
O531 Mn505 2.117 . S
O531 C508 1.264 . S
C532 C525 1.403 . S
C532 C533 1.399 . S
C532 H538 0.929 . S
C533 C513 1.449 . S
C533 C532 1.399 . S
C533 H539 0.930 . S
H534 C514 0.931 . S
H535 C515 0.930 1_554 S
H536 C523 0.931 . S
H537 C524 0.929 . S
H538 C532 0.929 . S
H539 C533 0.930 . S
Mn540 O545 2.095 . S
Mn540 O555 2.162 . S
Mn540 O556 2.297 . S
Mn540 O564 2.385 . S
Mn540 O565 2.209 . S
Mn540 O566 2.094 . S
Mn541 O546 2.121 . S
Mn541 N548 2.257 . S
Mn541 N557 2.282 . S
Mn541 O565 2.215 . S
Mn541 O567 2.117 . S
C542 O564 1.234 . S
C542 O565 1.283 . S
C543 O555 1.281 . S
C543 O556 1.236 . S
C544 O566 1.240 . S
C544 O567 1.264 . S
O545 Mn540 2.095 . S
O545 C554 1.250 . S
O546 Mn541 2.121 . S
O546 C554 1.258 . S
C547 N548 1.326 . S
C547 C551 1.460 . S
C547 H553 0.929 . S
N548 Mn541 2.257 . S
N548 C547 1.326 . S
N548 C552 1.362 . S
C549 C550 1.258 . S
C549 C552 1.431 . S
C549 C569 1.449 . S
C550 C549 1.258 . S
C550 C551 1.477 . S
C550 H570 0.931 . S
C551 C547 1.460 . S
C551 C550 1.477 . S
C551 H571 0.930 . S
C552 N548 1.362 . S
C552 C549 1.431 . S
C552 C562 1.476 . S
H553 C547 0.929 . S
C554 O545 1.250 . S
C554 O546 1.258 . S
O555 Mn540 2.162 . S
O555 C543 1.281 . S
O556 Mn540 2.297 . S
O556 C543 1.236 . S
N557 Mn541 2.282 . S
N557 C558 1.328 . S
N557 C562 1.318 . S
C558 N557 1.328 . S
C558 C559 1.457 . S
C558 H563 0.929 . S
C559 C558 1.457 . S
C559 C560 1.291 . S
C559 H572 0.931 . S
C560 C559 1.291 . S
C560 C561 1.373 . S
C560 H573 0.929 . S
C561 C560 1.373 . S
C561 C562 1.396 . S
C561 C568 1.403 . S
C562 C552 1.476 . S
C562 N557 1.318 . S
C562 C561 1.396 . S
H563 C558 0.929 . S
O564 Mn540 2.385 . S
O564 C542 1.234 . S
O565 Mn540 2.209 . S
O565 Mn541 2.215 . S
O565 C542 1.283 . S
O566 Mn540 2.094 . S
O566 C544 1.240 . S
O567 Mn541 2.117 . S
O567 C544 1.264 . S
C568 C561 1.403 . S
C568 C569 1.399 . S
C568 H574 0.929 . S
C569 C549 1.449 . S
C569 C568 1.399 . S
C569 H575 0.930 . S
H570 C550 0.931 . S
H571 C551 0.930 . S
H572 C559 0.931 . S
H573 C560 0.929 . S
H574 C568 0.929 . S
H575 C569 0.930 . S
Mn576 O581 2.095 . S
Mn576 O591 2.162 1_655 S
Mn576 O592 2.297 1_655 S
Mn576 O600 2.385 1_655 S
Mn576 O601 2.209 . S
Mn576 O602 2.094 . S
Mn577 O582 2.121 . S
Mn577 N584 2.257 . S
Mn577 N593 2.282 . S
Mn577 O601 2.215 . S
Mn577 O603 2.117 . S
C578 O600 1.234 1_655 S
C578 O601 1.283 . S
C579 O591 1.281 . S
C579 O592 1.236 . S
C580 O602 1.240 . S
C580 O603 1.264 . S
O581 Mn576 2.095 . S
O581 C590 1.250 . S
O582 Mn577 2.121 . S
O582 C590 1.258 . S
C583 N584 1.326 . S
C583 C587 1.460 . S
C583 H589 0.929 . S
N584 Mn577 2.257 . S
N584 C583 1.326 . S
N584 C588 1.362 . S
C585 C586 1.258 . S
C585 C588 1.431 . S
C585 C605 1.449 . S
C586 C585 1.258 . S
C586 C587 1.477 . S
C586 H606 0.931 . S
C587 C583 1.460 . S
C587 C586 1.477 . S
C587 H607 0.930 . S
C588 N584 1.362 . S
C588 C585 1.431 . S
C588 C598 1.476 . S
H589 C583 0.929 . S
C590 O581 1.250 . S
C590 O582 1.258 . S
O591 Mn576 2.162 1_455 S
O591 C579 1.281 . S
O592 Mn576 2.297 1_455 S
O592 C579 1.236 . S
N593 Mn577 2.282 . S
N593 C594 1.328 . S
N593 C598 1.318 . S
C594 N593 1.328 . S
C594 C595 1.457 . S
C594 H599 0.929 . S
C595 C594 1.457 . S
C595 C596 1.291 . S
C595 H608 0.931 . S
C596 C595 1.291 . S
C596 C597 1.373 . S
C596 H609 0.929 . S
C597 C596 1.373 . S
C597 C598 1.396 . S
C597 C604 1.403 . S
C598 C588 1.476 . S
C598 N593 1.318 . S
C598 C597 1.396 . S
H599 C594 0.929 . S
O600 Mn576 2.385 1_455 S
O600 C578 1.234 1_455 S
O601 Mn576 2.209 . S
O601 Mn577 2.215 . S
O601 C578 1.283 . S
O602 Mn576 2.094 . S
O602 C580 1.240 . S
O603 Mn577 2.117 . S
O603 C580 1.264 . S
C604 C597 1.403 . S
C604 C605 1.399 . S
C604 H610 0.929 . S
C605 C585 1.449 . S
C605 C604 1.399 . S
C605 H611 0.930 . S
H606 C586 0.931 . S
H607 C587 0.930 . S
H608 C595 0.931 . S
H609 C596 0.929 . S
H610 C604 0.929 . S
H611 C605 0.930 . S
Mn612 O617 2.095 . S
Mn612 O627 2.162 . S
Mn612 O628 2.297 . S
Mn612 O636 2.385 . S
Mn612 O637 2.209 . S
Mn612 O638 2.094 . S
Mn613 O618 2.121 . S
Mn613 N620 2.257 . S
Mn613 N629 2.282 . S
Mn613 O637 2.215 . S
Mn613 O639 2.117 . S
C614 O636 1.234 . S
C614 O637 1.283 . S
C615 O627 1.281 . S
C615 O628 1.236 . S
C616 O638 1.240 . S
C616 O639 1.264 . S
O617 Mn612 2.095 . S
O617 C626 1.250 . S
O618 Mn613 2.121 . S
O618 C626 1.258 . S
C619 N620 1.326 . S
C619 C623 1.460 . S
C619 H625 0.929 . S
N620 Mn613 2.257 . S
N620 C619 1.326 . S
N620 C624 1.362 . S
C621 C622 1.258 . S
C621 C624 1.431 . S
C621 C641 1.449 . S
C622 C621 1.258 . S
C622 C623 1.477 . S
C622 H642 0.931 . S
C623 C619 1.460 . S
C623 C622 1.477 . S
C623 H643 0.930 . S
C624 N620 1.362 . S
C624 C621 1.431 . S
C624 C634 1.476 . S
H625 C619 0.929 . S
C626 O617 1.250 . S
C626 O618 1.258 . S
O627 Mn612 2.162 . S
O627 C615 1.281 . S
O628 Mn612 2.297 . S
O628 C615 1.236 . S
N629 Mn613 2.282 . S
N629 C630 1.328 . S
N629 C634 1.318 . S
C630 N629 1.328 . S
C630 C631 1.457 . S
C630 H635 0.929 . S
C631 C630 1.457 . S
C631 C632 1.291 . S
C631 H644 0.931 . S
C632 C631 1.291 . S
C632 C633 1.373 . S
C632 H645 0.929 . S
C633 C632 1.373 . S
C633 C634 1.396 . S
C633 C640 1.403 . S
C634 C624 1.476 . S
C634 N629 1.318 . S
C634 C633 1.396 . S
H635 C630 0.929 . S
O636 Mn612 2.385 . S
O636 C614 1.234 . S
O637 Mn612 2.209 . S
O637 Mn613 2.215 . S
O637 C614 1.283 . S
O638 Mn612 2.094 . S
O638 C616 1.240 . S
O639 Mn613 2.117 . S
O639 C616 1.264 . S
C640 C633 1.403 . S
C640 C641 1.399 . S
C640 H646 0.929 . S
C641 C621 1.449 . S
C641 C640 1.399 . S
C641 H647 0.930 . S
H642 C622 0.931 . S
H643 C623 0.930 . S
H644 C631 0.931 . S
H645 C632 0.929 . S
H646 C640 0.929 . S
H647 C641 0.930 . S
H648 C654 0.930 . S
H649 C657 0.930 . S
H650 C658 0.930 . S
H651 C659 0.930 . S
H652 C662 0.930 . S
H653 C663 0.930 . S
C654 H648 0.930 . S
C654 C655 1.355 . S
C654 C656 1.415 . S
C655 C654 1.355 . S
C655 C657 1.419 . S
C656 C654 1.415 . S
C656 C661 1.425 . S
C656 C663 1.409 1_556 S
C657 H649 0.930 . S
C657 C655 1.419 . S
C657 C658 1.362 . S
C658 H650 0.930 . S
C658 C657 1.362 . S
C658 C661 1.409 . S
C659 H651 0.930 . S
C659 C660 1.355 . S
C659 C661 1.415 1_554 S
C660 C659 1.355 . S
C660 C662 1.419 . S
C661 C656 1.425 . S
C661 C658 1.409 . S
C661 C659 1.415 1_556 S
C662 H652 0.930 . S
C662 C660 1.419 . S
C662 C663 1.362 . S
C663 H653 0.930 . S
C663 C656 1.409 1_554 S
C663 C662 1.362 . S
H664 C670 0.930 . S
H665 C673 0.930 . S
H666 C674 0.930 . S
H667 C675 0.930 . S
H668 C678 0.930 . S
H669 C679 0.930 . S
C670 H664 0.930 . S
C670 C671 1.355 . S
C670 C672 1.415 . S
C671 C670 1.355 . S
C671 C673 1.419 . S
C672 C670 1.415 . S
C672 C677 1.425 1_556 S
C672 C679 1.409 . S
C673 H665 0.930 . S
C673 C671 1.419 . S
C673 C674 1.362 1_556 S
C674 H666 0.930 . S
C674 C673 1.362 1_554 S
C674 C677 1.409 . S
C675 H667 0.930 . S
C675 C676 1.355 . S
C675 C677 1.415 . S
C676 C675 1.355 . S
C676 C678 1.419 . S
C677 C672 1.425 1_554 S
C677 C674 1.409 . S
C677 C675 1.415 . S
C678 H668 0.930 . S
C678 C676 1.419 . S
C678 C679 1.362 1_554 S
C679 H669 0.930 . S
C679 C672 1.409 . S
C679 C678 1.362 1_556 S
H680 C686 0.930 . S
H681 C689 0.930 . S
H682 C690 0.930 . S
H683 C691 0.930 . S
H684 C694 0.930 . S
H685 C695 0.930 . S
C686 H680 0.930 . S
C686 C687 1.355 . S
C686 C688 1.415 1_554 S
C687 C686 1.355 . S
C687 C689 1.419 . S
C688 C686 1.415 1_556 S
C688 C693 1.425 1_556 S
C688 C695 1.409 . S
C689 H681 0.930 . S
C689 C687 1.419 . S
C689 C690 1.362 . S
C690 H682 0.930 . S
C690 C689 1.362 . S
C690 C693 1.409 . S
C691 H683 0.930 . S
C691 C692 1.355 . S
C691 C693 1.415 1_556 S
C692 C691 1.355 . S
C692 C694 1.419 . S
C693 C688 1.425 1_554 S
C693 C690 1.409 . S
C693 C691 1.415 1_554 S
C694 H684 0.930 . S
C694 C692 1.419 . S
C694 C695 1.362 . S
C695 H685 0.930 . S
C695 C688 1.409 . S
C695 C694 1.362 . S
H696 C702 0.930 . S
H697 C705 0.930 . S
H698 C706 0.930 . S
H699 C707 0.930 . S
H700 C710 0.930 . S
H701 C711 0.930 . S
C702 H696 0.930 . S
C702 C703 1.355 . S
C702 C704 1.415 . S
C703 C702 1.355 . S
C703 C705 1.419 . S
C704 C702 1.415 . S
C704 C709 1.425 . S
C704 C711 1.409 . S
C705 H697 0.930 . S
C705 C703 1.419 . S
C705 C706 1.362 . S
C706 H698 0.930 . S
C706 C705 1.362 . S
C706 C709 1.409 . S
C707 H699 0.930 . S
C707 C708 1.355 . S
C707 C709 1.415 . S
C708 C707 1.355 . S
C708 C710 1.419 . S
C709 C704 1.425 . S
C709 C706 1.409 . S
C709 C707 1.415 . S
C710 H700 0.930 . S
C710 C708 1.419 . S
C710 C711 1.362 . S
C711 H701 0.930 . S
C711 C704 1.409 . S
C711 C710 1.362 . S
H712 C718 0.930 . S
H713 C721 0.930 . S
H714 C722 0.930 . S
H715 C723 0.930 . S
H716 C726 0.930 . S
H717 C727 0.930 . S
C718 H712 0.930 . S
C718 C719 1.355 . S
C718 C720 1.415 . S
C719 C718 1.355 . S
C719 C721 1.419 . S
C720 C718 1.415 . S
C720 C725 1.425 . S
C720 C727 1.409 . S
C721 H713 0.930 . S
C721 C719 1.419 . S
C721 C722 1.362 . S
C722 H714 0.930 . S
C722 C721 1.362 . S
C722 C725 1.409 . S
C723 H715 0.930 . S
C723 C724 1.355 . S
C723 C725 1.415 . S
C724 C723 1.355 . S
C724 C726 1.419 . S
C725 C720 1.425 . S
C725 C722 1.409 . S
C725 C723 1.415 . S
C726 H716 0.930 . S
C726 C724 1.419 . S
C726 C727 1.362 . S
C727 H717 0.930 . S
C727 C720 1.409 . S
C727 C726 1.362 . S
H728 C734 0.930 . S
H729 C737 0.930 . S
H730 C738 0.930 . S
H731 C739 0.930 . S
H732 C742 0.930 . S
H733 C743 0.930 . S
C734 H728 0.930 . S
C734 C735 1.355 . S
C734 C736 1.415 . S
C735 C734 1.355 . S
C735 C737 1.419 . S
C736 C734 1.415 . S
C736 C741 1.425 . S
C736 C743 1.409 . S
C737 H729 0.930 . S
C737 C735 1.419 . S
C737 C738 1.362 . S
C738 H730 0.930 . S
C738 C737 1.362 . S
C738 C741 1.409 . S
C739 H731 0.930 . S
C739 C740 1.355 . S
C739 C741 1.415 . S
C740 C739 1.355 . S
C740 C742 1.419 . S
C741 C736 1.425 . S
C741 C738 1.409 . S
C741 C739 1.415 . S
C742 H732 0.930 . S
C742 C740 1.419 . S
C742 C743 1.362 . S
C743 H733 0.930 . S
C743 C736 1.409 . S
C743 C742 1.362 . S
H744 C750 0.930 . S
H745 C753 0.930 . S
H746 C754 0.930 . S
H747 C755 0.930 . S
H748 C758 0.930 . S
H749 C759 0.930 . S
C750 H744 0.930 . S
C750 C751 1.355 . S
C750 C752 1.415 . S
C751 C750 1.355 . S
C751 C753 1.419 . S
C752 C750 1.415 . S
C752 C757 1.425 . S
C752 C759 1.409 . S
C753 H745 0.930 . S
C753 C751 1.419 . S
C753 C754 1.362 . S
C754 H746 0.930 . S
C754 C753 1.362 . S
C754 C757 1.409 . S
C755 H747 0.930 . S
C755 C756 1.355 . S
C755 C757 1.415 . S
C756 C755 1.355 . S
C756 C758 1.419 . S
C757 C752 1.425 . S
C757 C754 1.409 . S
C757 C755 1.415 . S
C758 H748 0.930 . S
C758 C756 1.419 . S
C758 C759 1.362 . S
C759 H749 0.930 . S
C759 C752 1.409 . S
C759 C758 1.362 . S
H760 C766 0.930 . S
H761 C769 0.930 . S
H762 C770 0.930 . S
H763 C771 0.930 . S
H764 C774 0.930 . S
H765 C775 0.930 . S
C766 H760 0.930 . S
C766 C767 1.355 . S
C766 C768 1.415 . S
C767 C766 1.355 . S
C767 C769 1.419 . S
C768 C766 1.415 . S
C768 C773 1.425 . S
C768 C775 1.409 . S
C769 H761 0.930 . S
C769 C767 1.419 . S
C769 C770 1.362 . S
C770 H762 0.930 . S
C770 C769 1.362 . S
C770 C773 1.409 . S
C771 H763 0.930 . S
C771 C772 1.355 . S
C771 C773 1.415 . S
C772 C771 1.355 . S
C772 C774 1.419 . S
C773 C768 1.425 . S
C773 C770 1.409 . S
C773 C771 1.415 . S
C774 H764 0.930 . S
C774 C772 1.419 . S
C774 C775 1.362 . S
C775 H765 0.930 . S
C775 C768 1.409 . S
C775 C774 1.362 . S
H776 C782 0.930 . S
H777 C785 0.930 . S
H778 C786 0.930 . S
H779 C787 0.930 . S
H780 C790 0.930 . S
H781 C791 0.930 . S
C782 H776 0.930 . S
C782 C783 1.355 . S
C782 C784 1.415 . S
C783 C782 1.355 . S
C783 C785 1.419 . S
C784 C782 1.415 . S
C784 C789 1.425 . S
C784 C791 1.409 . S
C785 H777 0.930 . S
C785 C783 1.419 . S
C785 C786 1.362 . S
C786 H778 0.930 . S
C786 C785 1.362 . S
C786 C789 1.409 . S
C787 H779 0.930 . S
C787 C788 1.355 . S
C787 C789 1.415 . S
C788 C787 1.355 . S
C788 C790 1.419 . S
C789 C784 1.425 . S
C789 C786 1.409 . S
C789 C787 1.415 . S
C790 H780 0.930 . S
C790 C788 1.419 . S
C790 C791 1.362 . S
C791 H781 0.930 . S
C791 C784 1.409 . S
C791 C790 1.362 . S
H792 C798 0.930 . S
H793 C801 0.930 1_554 S
H794 C802 0.930 . S
H795 C803 0.930 . S
H796 C806 0.930 . S
H797 C807 0.930 . S
C798 H792 0.930 . S
C798 C799 1.355 . S
C798 C800 1.415 . S
C799 C798 1.355 . S
C799 C801 1.419 . S
C800 C798 1.415 . S
C800 C805 1.425 . S
C800 C807 1.409 . S
C801 H793 0.930 1_556 S
C801 C799 1.419 . S
C801 C802 1.362 . S
C802 H794 0.930 . S
C802 C801 1.362 . S
C802 C805 1.409 . S
C803 H795 0.930 . S
C803 C804 1.355 . S
C803 C805 1.415 . S
C804 C803 1.355 . S
C804 C806 1.419 . S
C805 C800 1.425 . S
C805 C802 1.409 . S
C805 C803 1.415 . S
C806 H796 0.930 . S
C806 C804 1.419 . S
C806 C807 1.362 . S
C807 H797 0.930 . S
C807 C800 1.409 . S
C807 C806 1.362 . S
H808 C814 0.930 . S
H809 C817 0.930 1_554 S
H810 C818 0.930 . S
H811 C819 0.930 . S
H812 C822 0.930 . S
H813 C823 0.930 . S
C814 H808 0.930 . S
C814 C815 1.355 . S
C814 C816 1.415 . S
C815 C814 1.355 . S
C815 C817 1.419 . S
C816 C814 1.415 . S
C816 C821 1.425 . S
C816 C823 1.409 . S
C817 H809 0.930 1_556 S
C817 C815 1.419 . S
C817 C818 1.362 . S
C818 H810 0.930 . S
C818 C817 1.362 . S
C818 C821 1.409 . S
C819 H811 0.930 . S
C819 C820 1.355 . S
C819 C821 1.415 . S
C820 C819 1.355 . S
C820 C822 1.419 . S
C821 C816 1.425 . S
C821 C818 1.409 . S
C821 C819 1.415 . S
C822 H812 0.930 . S
C822 C820 1.419 . S
C822 C823 1.362 . S
C823 H813 0.930 . S
C823 C816 1.409 . S
C823 C822 1.362 . S
H824 C830 0.930 . S
H825 C833 0.930 . S
H826 C834 0.930 . S
H827 C835 0.930 . S
H828 C838 0.930 . S
H829 C839 0.930 . S
C830 H824 0.930 . S
C830 C831 1.355 . S
C830 C832 1.415 . S
C831 C830 1.355 . S
C831 C833 1.419 . S
C832 C830 1.415 . S
C832 C837 1.425 . S
C832 C839 1.409 . S
C833 H825 0.930 . S
C833 C831 1.419 . S
C833 C834 1.362 . S
C834 H826 0.930 . S
C834 C833 1.362 . S
C834 C837 1.409 . S
C835 H827 0.930 . S
C835 C836 1.355 . S
C835 C837 1.415 . S
C836 C835 1.355 . S
C836 C838 1.419 . S
C837 C832 1.425 . S
C837 C834 1.409 . S
C837 C835 1.415 . S
C838 H828 0.930 . S
C838 C836 1.419 . S
C838 C839 1.362 . S
C839 H829 0.930 . S
C839 C832 1.409 . S
C839 C838 1.362 . S
H840 C846 0.930 . S
H841 C849 0.930 . S
H842 C850 0.930 . S
H843 C851 0.930 . S
H844 C854 0.930 . S
H845 C855 0.930 . S
C846 H840 0.930 . S
C846 C847 1.355 . S
C846 C848 1.415 . S
C847 C846 1.355 . S
C847 C849 1.419 . S
C848 C846 1.415 . S
C848 C853 1.425 . S
C848 C855 1.409 . S
C849 H841 0.930 . S
C849 C847 1.419 . S
C849 C850 1.362 . S
C850 H842 0.930 . S
C850 C849 1.362 . S
C850 C853 1.409 . S
C851 H843 0.930 . S
C851 C852 1.355 . S
C851 C853 1.415 . S
C852 C851 1.355 . S
C852 C854 1.419 . S
C853 C848 1.425 . S
C853 C850 1.409 . S
C853 C851 1.415 . S
C854 H844 0.930 . S
C854 C852 1.419 . S
C854 C855 1.362 . S
C855 H845 0.930 . S
C855 C848 1.409 . S
C855 C854 1.362 . S
H856 C862 0.930 . S
H857 C865 0.930 . S
H858 C866 0.930 . S
H859 C867 0.930 . S
H860 C870 0.930 . S
H861 C871 0.930 . S
C862 H856 0.930 . S
C862 C863 1.355 . S
C862 C864 1.415 . S
C863 C862 1.355 . S
C863 C865 1.419 . S
C864 C862 1.415 . S
C864 C869 1.425 . S
C864 C871 1.409 . S
C865 H857 0.930 . S
C865 C863 1.419 . S
C865 C866 1.362 . S
C866 H858 0.930 . S
C866 C865 1.362 . S
C866 C869 1.409 . S
C867 H859 0.930 . S
C867 C868 1.355 . S
C867 C869 1.415 . S
C868 C867 1.355 . S
C868 C870 1.419 . S
C869 C864 1.425 . S
C869 C866 1.409 . S
C869 C867 1.415 . S
C870 H860 0.930 . S
C870 C868 1.419 . S
C870 C871 1.362 . S
C871 H861 0.930 . S
C871 C864 1.409 . S
C871 C870 1.362 . S
H872 C878 0.930 . S
H873 C881 0.930 . S
H874 C882 0.930 . S
H875 C883 0.930 . S
H876 C886 0.930 . S
H877 C887 0.930 . S
C878 H872 0.930 . S
C878 C879 1.355 . S
C878 C880 1.415 . S
C879 C878 1.355 . S
C879 C881 1.419 . S
C880 C878 1.415 . S
C880 C885 1.425 . S
C880 C887 1.409 . S
C881 H873 0.930 . S
C881 C879 1.419 . S
C881 C882 1.362 . S
C882 H874 0.930 . S
C882 C881 1.362 . S
C882 C885 1.409 . S
C883 H875 0.930 . S
C883 C884 1.355 . S
C883 C885 1.415 . S
C884 C883 1.355 . S
C884 C886 1.419 . S
C885 C880 1.425 . S
C885 C882 1.409 . S
C885 C883 1.415 . S
C886 H876 0.930 . S
C886 C884 1.419 . S
C886 C887 1.362 . S
C887 H877 0.930 . S
C887 C880 1.409 . S
C887 C886 1.362 . S
H888 C894 0.930 . S
H889 C897 0.930 . S
H890 C898 0.930 . S
H891 C899 0.930 . S
H892 C902 0.930 1_556 S
H893 C903 0.930 . S
C894 H888 0.930 . S
C894 C895 1.355 . S
C894 C896 1.415 . S
C895 C894 1.355 . S
C895 C897 1.419 . S
C896 C894 1.415 . S
C896 C901 1.425 . S
C896 C903 1.409 . S
C897 H889 0.930 . S
C897 C895 1.419 . S
C897 C898 1.362 . S
C898 H890 0.930 . S
C898 C897 1.362 . S
C898 C901 1.409 . S
C899 H891 0.930 . S
C899 C900 1.355 . S
C899 C901 1.415 . S
C900 C899 1.355 . S
C900 C902 1.419 . S
C901 C896 1.425 . S
C901 C898 1.409 . S
C901 C899 1.415 . S
C902 H892 0.930 1_554 S
C902 C900 1.419 . S
C902 C903 1.362 . S
C903 H893 0.930 . S
C903 C896 1.409 . S
C903 C902 1.362 . S
H904 C910 0.930 . S
H905 C913 0.930 . S
H906 C914 0.930 . S
H907 C915 0.930 . S
H908 C918 0.930 1_556 S
H909 C919 0.930 . S
C910 H904 0.930 . S
C910 C911 1.355 . S
C910 C912 1.415 . S
C911 C910 1.355 . S
C911 C913 1.419 . S
C912 C910 1.415 . S
C912 C917 1.425 . S
C912 C919 1.409 . S
C913 H905 0.930 . S
C913 C911 1.419 . S
C913 C914 1.362 . S
C914 H906 0.930 . S
C914 C913 1.362 . S
C914 C917 1.409 . S
C915 H907 0.930 . S
C915 C916 1.355 . S
C915 C917 1.415 . S
C916 C915 1.355 . S
C916 C918 1.419 . S
C917 C912 1.425 . S
C917 C914 1.409 . S
C917 C915 1.415 . S
C918 H908 0.930 1_554 S
C918 C916 1.419 . S
C918 C919 1.362 . S
C919 H909 0.930 . S
C919 C912 1.409 . S
C919 C918 1.362 . S
H920 C926 0.930 . S
H921 C929 0.930 . S
H922 C930 0.930 . S
H923 C931 0.930 . S
H924 C934 0.930 . S
H925 C935 0.930 . S
C926 H920 0.930 . S
C926 C927 1.355 . S
C926 C928 1.415 . S
C927 C926 1.355 . S
C927 C929 1.419 . S
C928 C926 1.415 . S
C928 C933 1.425 . S
C928 C935 1.409 . S
C929 H921 0.930 . S
C929 C927 1.419 . S
C929 C930 1.362 . S
C930 H922 0.930 . S
C930 C929 1.362 . S
C930 C933 1.409 . S
C931 H923 0.930 . S
C931 C932 1.355 . S
C931 C933 1.415 . S
C932 C931 1.355 . S
C932 C934 1.419 . S
C933 C928 1.425 . S
C933 C930 1.409 . S
C933 C931 1.415 . S
C934 H924 0.930 . S
C934 C932 1.419 . S
C934 C935 1.362 . S
C935 H925 0.930 . S
C935 C928 1.409 . S
C935 C934 1.362 . S
H936 C942 0.930 . S
H937 C945 0.930 . S
H938 C946 0.930 . S
H939 C947 0.930 . S
H940 C950 0.930 . S
H941 C951 0.930 . S
C942 H936 0.930 . S
C942 C943 1.355 . S
C942 C944 1.415 . S
C943 C942 1.355 . S
C943 C945 1.419 . S
C944 C942 1.415 . S
C944 C949 1.425 . S
C944 C951 1.409 . S
C945 H937 0.930 . S
C945 C943 1.419 . S
C945 C946 1.362 . S
C946 H938 0.930 . S
C946 C945 1.362 . S
C946 C949 1.409 . S
C947 H939 0.930 . S
C947 C948 1.355 . S
C947 C949 1.415 . S
C948 C947 1.355 . S
C948 C950 1.419 . S
C949 C944 1.425 . S
C949 C946 1.409 . S
C949 C947 1.415 . S
C950 H940 0.930 . S
C950 C948 1.419 . S
C950 C951 1.362 . S
C951 H941 0.930 . S
C951 C944 1.409 . S
C951 C950 1.362 . S
H952 C958 0.930 . S
H953 C961 0.930 . S
H954 C962 0.930 . S
H955 C963 0.930 . S
H956 C966 0.930 . S
H957 C967 0.930 . S
C958 H952 0.930 . S
C958 C959 1.355 . S
C958 C960 1.415 . S
C959 C958 1.355 . S
C959 C961 1.419 . S
C960 C958 1.415 . S
C960 C965 1.425 . S
C960 C967 1.409 . S
C961 H953 0.930 . S
C961 C959 1.419 . S
C961 C962 1.362 . S
C962 H954 0.930 . S
C962 C961 1.362 . S
C962 C965 1.409 . S
C963 H955 0.930 . S
C963 C964 1.355 . S
C963 C965 1.415 . S
C964 C963 1.355 . S
C964 C966 1.419 . S
C965 C960 1.425 . S
C965 C962 1.409 . S
C965 C963 1.415 . S
C966 H956 0.930 . S
C966 C964 1.419 . S
C966 C967 1.362 . S
C967 H957 0.930 . S
C967 C960 1.409 . S
C967 C966 1.362 . S
H968 C974 0.930 . S
H969 C977 0.930 . S
H970 C978 0.930 . S
H971 C979 0.930 . S
H972 C982 0.930 . S
H973 C983 0.930 . S
C974 H968 0.930 . S
C974 C975 1.355 1_545 S
C974 C976 1.415 . S
C975 C974 1.355 1_565 S
C975 C977 1.419 . S
C976 C974 1.415 . S
C976 C981 1.425 1_545 S
C976 C983 1.409 . S
C977 H969 0.930 . S
C977 C975 1.419 . S
C977 C978 1.362 . S
C978 H970 0.930 . S
C978 C977 1.362 . S
C978 C981 1.409 . S
C979 H971 0.930 . S
C979 C980 1.355 1_565 S
C979 C981 1.415 . S
C980 C979 1.355 1_545 S
C980 C982 1.419 . S
C981 C976 1.425 1_565 S
C981 C978 1.409 . S
C981 C979 1.415 . S
C982 H972 0.930 . S
C982 C980 1.419 . S
C982 C983 1.362 . S
C983 H973 0.930 . S
C983 C976 1.409 . S
C983 C982 1.362 . S
H984 C990 0.930 . S
H985 C993 0.930 . S
H986 C994 0.930 . S
H987 C995 0.930 . S
H988 C998 0.930 . S
H989 C999 0.930 . S
C990 H984 0.930 . S
C990 C991 1.355 . S
C990 C992 1.415 . S
C991 C990 1.355 . S
C991 C993 1.419 . S
C992 C990 1.415 . S
C992 C997 1.425 . S
C992 C999 1.409 . S
C993 H985 0.930 . S
C993 C991 1.419 . S
C993 C994 1.362 . S
C994 H986 0.930 . S
C994 C993 1.362 . S
C994 C997 1.409 . S
C995 H987 0.930 . S
C995 C996 1.355 . S
C995 C997 1.415 . S
C996 C995 1.355 . S
C996 C998 1.419 . S
C997 C992 1.425 . S
C997 C994 1.409 . S
C997 C995 1.415 . S
C998 H988 0.930 . S
C998 C996 1.419 . S
C998 C999 1.362 . S
C999 H989 0.930 . S
C999 C992 1.409 . S
C999 C998 1.362 . S
H1000 C1006 0.930 . S
H1001 C1009 0.930 . S
H1002 C1010 0.930 . S
H1003 C1011 0.930 . S
H1004 C1014 0.930 . S
H1005 C1015 0.951 . S
C1006 H1000 0.930 . S
C1006 C1007 1.355 1_655 S
C1006 C1008 1.415 1_655 S
C1007 C1006 1.355 1_455 S
C1007 C1009 1.419 1_554 S
C1008 C1006 1.415 1_455 S
C1008 C1013 1.425 . S
C1008 C1015 1.408 1_455 S
C1009 H1001 0.930 . S
C1009 C1007 1.419 1_556 S
C1009 C1010 1.362 . S
C1010 H1002 0.930 . S
C1010 C1009 1.362 . S
C1010 C1013 1.409 1_556 S
C1011 H1003 0.930 . S
C1011 C1012 1.355 . S
C1011 C1013 1.415 . S
C1012 C1011 1.355 . S
C1012 C1014 1.419 . S
C1013 C1008 1.425 . S
C1013 C1010 1.409 1_554 S
C1013 C1011 1.415 . S
C1014 H1004 0.930 . S
C1014 C1012 1.419 . S
C1014 C1015 1.343 1_455 S
C1015 H1005 0.951 . S
C1015 C1008 1.408 1_655 S
C1015 C1014 1.343 1_655 S
H1016 C1022 0.930 . S
H1017 C1025 0.930 . S
H1018 C1026 0.930 . S
H1019 C1027 0.930 . S
H1020 C1030 0.930 . S
H1021 C1031 0.930 . S
C1022 H1016 0.930 . S
C1022 C1023 1.355 1_554 S
C1022 C1024 1.415 . S
C1023 C1022 1.355 1_556 S
C1023 C1025 1.419 . S
C1024 C1022 1.415 . S
C1024 C1029 1.425 . S
C1024 C1031 1.409 . S
C1025 H1017 0.930 . S
C1025 C1023 1.419 . S
C1025 C1026 1.362 . S
C1026 H1018 0.930 . S
C1026 C1025 1.362 . S
C1026 C1029 1.409 1_556 S
C1027 H1019 0.930 . S
C1027 C1028 1.355 . S
C1027 C1029 1.415 . S
C1028 C1027 1.355 . S
C1028 C1030 1.419 . S
C1029 C1024 1.425 . S
C1029 C1026 1.409 1_554 S
C1029 C1027 1.415 . S
C1030 H1020 0.930 . S
C1030 C1028 1.419 . S
C1030 C1031 1.362 . S
C1031 H1021 0.930 . S
C1031 C1024 1.409 . S
C1031 C1030 1.362 . S
H1032 C1038 0.930 . S
H1033 C1041 0.930 . S
H1034 C1042 0.930 . S
H1035 C1043 0.930 . S
H1036 C1046 0.930 . S
H1037 C1047 0.930 . S
C1038 H1032 0.930 . S
C1038 C1039 1.355 1_455 S
C1038 C1040 1.415 . S
C1039 C1038 1.355 1_655 S
C1039 C1041 1.419 . S
C1040 C1038 1.415 . S
C1040 C1045 1.425 . S
C1040 C1047 1.409 . S
C1041 H1033 0.930 . S
C1041 C1039 1.419 . S
C1041 C1042 1.362 . S
C1042 H1034 0.930 . S
C1042 C1041 1.362 . S
C1042 C1045 1.409 1_655 S
C1043 H1035 0.930 . S
C1043 C1044 1.355 . S
C1043 C1045 1.415 . S
C1044 C1043 1.355 . S
C1044 C1046 1.419 . S
C1045 C1040 1.425 . S
C1045 C1042 1.409 1_455 S
C1045 C1043 1.415 . S
C1046 H1036 0.930 . S
C1046 C1044 1.419 . S
C1046 C1047 1.362 . S
C1047 H1037 0.930 . S
C1047 C1040 1.409 . S
C1047 C1046 1.362 . S
H1048 C1054 0.930 . S
H1049 C1057 0.930 . S
H1050 C1058 0.930 . S
H1051 C1059 0.930 . S
H1052 C1062 0.930 . S
H1053 C1063 0.930 . S
C1054 H1048 0.930 . S
C1054 C1055 1.355 . S
C1054 C1056 1.415 . S
C1055 C1054 1.355 . S
C1055 C1057 1.419 . S
C1056 C1054 1.415 . S
C1056 C1061 1.425 . S
C1056 C1063 1.409 . S
C1057 H1049 0.930 . S
C1057 C1055 1.419 . S
C1057 C1058 1.362 . S
C1058 H1050 0.930 . S
C1058 C1057 1.362 . S
C1058 C1061 1.409 . S
C1059 H1051 0.930 . S
C1059 C1060 1.355 . S
C1059 C1061 1.415 . S
C1060 C1059 1.355 . S
C1060 C1062 1.419 . S
C1061 C1056 1.425 . S
C1061 C1058 1.409 . S
C1061 C1059 1.415 . S
C1062 H1052 0.930 . S
C1062 C1060 1.419 . S
C1062 C1063 1.362 . S
C1063 H1053 0.930 . S
C1063 C1056 1.409 . S
C1063 C1062 1.362 . S
H1064 C1070 0.930 . S
H1065 C1073 0.930 . S
H1066 C1074 0.930 . S
H1067 C1075 0.930 . S
H1068 C1078 0.930 . S
H1069 C1079 0.930 . S
C1070 H1064 0.930 . S
C1070 C1071 1.355 . S
C1070 C1072 1.415 . S
C1071 C1070 1.355 . S
C1071 C1073 1.419 . S
C1072 C1070 1.415 . S
C1072 C1077 1.425 . S
C1072 C1079 1.409 . S
C1073 H1065 0.930 . S
C1073 C1071 1.419 . S
C1073 C1074 1.362 . S
C1074 H1066 0.930 . S
C1074 C1073 1.362 . S
C1074 C1077 1.409 . S
C1075 H1067 0.930 . S
C1075 C1076 1.355 . S
C1075 C1077 1.415 . S
C1076 C1075 1.355 . S
C1076 C1078 1.419 . S
C1077 C1072 1.425 . S
C1077 C1074 1.409 . S
C1077 C1075 1.415 . S
C1078 H1068 0.930 . S
C1078 C1076 1.419 . S
C1078 C1079 1.362 . S
C1079 H1069 0.930 . S
C1079 C1072 1.409 . S
C1079 C1078 1.362 . S
H1080 C1086 0.930 . S
H1081 C1089 0.930 . S
H1082 C1090 0.930 . S
H1083 C1091 0.930 . S
H1084 C1094 0.930 . S
H1085 C1095 0.930 . S
C1086 H1080 0.930 . S
C1086 C1087 1.355 . S
C1086 C1088 1.415 1_565 S
C1087 C1086 1.355 . S
C1087 C1089 1.419 1_565 S
C1088 C1086 1.415 1_545 S
C1088 C1093 1.425 . S
C1088 C1095 1.409 1_545 S
C1089 H1081 0.930 . S
C1089 C1087 1.419 1_545 S
C1089 C1090 1.362 . S
C1090 H1082 0.930 . S
C1090 C1089 1.362 . S
C1090 C1093 1.409 . S
C1091 H1083 0.930 . S
C1091 C1092 1.355 . S
C1091 C1093 1.415 . S
C1092 C1091 1.355 . S
C1092 C1094 1.419 . S
C1093 C1088 1.425 . S
C1093 C1090 1.409 . S
C1093 C1091 1.415 . S
C1094 H1084 0.930 . S
C1094 C1092 1.419 . S
C1094 C1095 1.362 1_545 S
C1095 H1085 0.930 . S
C1095 C1088 1.409 1_565 S
C1095 C1094 1.362 1_565 S
H1096 C1102 0.930 . S
H1097 C1105 0.930 . S
H1098 C1106 0.930 . S
H1099 C1107 0.930 . S
H1100 C1110 0.930 1_554 S
H1101 C1111 0.930 . S
C1102 H1096 0.930 . S
C1102 C1103 1.355 . S
C1102 C1104 1.415 . S
C1103 C1102 1.355 . S
C1103 C1105 1.419 . S
C1104 C1102 1.415 . S
C1104 C1109 1.425 . S
C1104 C1111 1.409 . S
C1105 H1097 0.930 . S
C1105 C1103 1.419 . S
C1105 C1106 1.362 . S
C1106 H1098 0.930 . S
C1106 C1105 1.362 . S
C1106 C1109 1.409 . S
C1107 H1099 0.930 . S
C1107 C1108 1.350 1_556 S
C1107 C1109 1.415 . S
C1108 C1107 1.350 1_554 S
C1108 C1110 1.417 1_554 S
C1109 C1104 1.425 . S
C1109 C1106 1.409 . S
C1109 C1107 1.415 . S
C1110 H1100 0.930 1_556 S
C1110 C1108 1.417 1_556 S
C1110 C1111 1.362 . S
C1111 H1101 0.930 . S
C1111 C1104 1.409 . S
C1111 C1110 1.362 . S
H1112 C1118 0.930 . S
H1113 C1121 0.930 . S
H1114 C1122 0.930 . S
H1115 C1123 0.930 1_554 S
H1116 C1126 0.930 . S
H1117 C1127 0.930 . S
C1118 H1112 0.930 . S
C1118 C1119 1.355 . S
C1118 C1120 1.415 . S
C1119 C1118 1.355 . S
C1119 C1121 1.419 . S
C1120 C1118 1.415 . S
C1120 C1125 1.425 . S
C1120 C1127 1.409 . S
C1121 H1113 0.930 . S
C1121 C1119 1.419 . S
C1121 C1122 1.362 . S
C1122 H1114 0.930 . S
C1122 C1121 1.362 . S
C1122 C1125 1.409 . S
C1123 H1115 0.930 1_556 S
C1123 C1124 1.355 . S
C1123 C1125 1.415 . S
C1124 C1123 1.355 . S
C1124 C1126 1.419 . S
C1125 C1120 1.425 . S
C1125 C1122 1.409 . S
C1125 C1123 1.415 . S
C1126 H1116 0.930 . S
C1126 C1124 1.419 . S
C1126 C1127 1.362 . S
C1127 H1117 0.930 . S
C1127 C1120 1.409 . S
C1127 C1126 1.362 . S
H1128 C1134 0.930 . S
H1129 C1137 0.930 . S
H1130 C1138 0.930 . S
H1131 C1139 0.930 . S
H1132 C1142 0.930 . S
H1133 C1143 0.930 . S
C1134 H1128 0.930 . S
C1134 C1135 1.355 . S
C1134 C1136 1.415 . S
C1135 C1134 1.355 . S
C1135 C1137 1.419 . S
C1136 C1134 1.415 . S
C1136 C1141 1.425 . S
C1136 C1143 1.409 . S
C1137 H1129 0.930 . S
C1137 C1135 1.419 . S
C1137 C1138 1.362 . S
C1138 H1130 0.930 . S
C1138 C1137 1.362 . S
C1138 C1141 1.409 . S
C1139 H1131 0.930 . S
C1139 C1140 1.355 . S
C1139 C1141 1.415 . S
C1140 C1139 1.355 . S
C1140 C1142 1.419 . S
C1141 C1136 1.425 . S
C1141 C1138 1.409 . S
C1141 C1139 1.415 . S
C1142 H1132 0.930 . S
C1142 C1140 1.419 . S
C1142 C1143 1.362 . S
C1143 H1133 0.930 . S
C1143 C1136 1.409 . S
C1143 C1142 1.362 . S
H1144 C1150 0.930 . S
H1145 C1153 0.930 . S
H1146 C1154 0.930 . S
H1147 C1155 0.930 . S
H1148 C1158 0.930 . S
H1149 C1159 0.930 . S
C1150 H1144 0.930 . S
C1150 C1151 1.355 . S
C1150 C1152 1.415 . S
C1151 C1150 1.355 . S
C1151 C1153 1.419 . S
C1152 C1150 1.415 . S
C1152 C1157 1.425 . S
C1152 C1159 1.409 . S
C1153 H1145 0.930 . S
C1153 C1151 1.419 . S
C1153 C1154 1.362 . S
C1154 H1146 0.930 . S
C1154 C1153 1.362 . S
C1154 C1157 1.409 . S
C1155 H1147 0.930 . S
C1155 C1156 1.355 . S
C1155 C1157 1.415 . S
C1156 C1155 1.355 . S
C1156 C1158 1.419 . S
C1157 C1152 1.425 . S
C1157 C1154 1.409 . S
C1157 C1155 1.415 . S
C1158 H1148 0.930 . S
C1158 C1156 1.419 . S
C1158 C1159 1.362 . S
C1159 H1149 0.930 . S
C1159 C1152 1.409 . S
C1159 C1158 1.362 . S
H1160 C1166 0.930 . S
H1161 C1169 0.930 . S
H1162 C1170 0.930 . S
H1163 C1171 0.930 . S
H1164 C1174 0.930 . S
H1165 C1175 0.930 . S
C1166 H1160 0.930 . S
C1166 C1167 1.355 . S
C1166 C1168 1.415 . S
C1167 C1166 1.355 . S
C1167 C1169 1.419 . S
C1168 C1166 1.415 . S
C1168 C1173 1.425 . S
C1168 C1175 1.409 . S
C1169 H1161 0.930 . S
C1169 C1167 1.419 . S
C1169 C1170 1.362 . S
C1170 H1162 0.930 . S
C1170 C1169 1.362 . S
C1170 C1173 1.409 . S
C1171 H1163 0.930 . S
C1171 C1172 1.355 . S
C1171 C1173 1.415 . S
C1172 C1171 1.355 . S
C1172 C1174 1.419 . S
C1173 C1168 1.425 . S
C1173 C1170 1.409 . S
C1173 C1171 1.415 . S
C1174 H1164 0.930 . S
C1174 C1172 1.419 . S
C1174 C1175 1.362 . S
C1175 H1165 0.930 . S
C1175 C1168 1.409 . S
C1175 C1174 1.362 . S
H1176 C1182 0.930 . S
H1177 C1185 0.930 . S
H1178 C1186 0.930 . S
H1179 C1187 0.930 . S
H1180 C1190 0.930 . S
H1181 C1191 0.930 . S
C1182 H1176 0.930 . S
C1182 C1183 1.355 . S
C1182 C1184 1.415 . S
C1183 C1182 1.355 . S
C1183 C1185 1.419 . S
C1184 C1182 1.415 . S
C1184 C1189 1.425 . S
C1184 C1191 1.409 . S
C1185 H1177 0.930 . S
C1185 C1183 1.419 . S
C1185 C1186 1.362 . S
C1186 H1178 0.930 . S
C1186 C1185 1.362 . S
C1186 C1189 1.409 . S
C1187 H1179 0.930 . S
C1187 C1188 1.355 . S
C1187 C1189 1.415 . S
C1188 C1187 1.355 . S
C1188 C1190 1.419 . S
C1189 C1184 1.425 . S
C1189 C1186 1.409 . S
C1189 C1187 1.415 . S
C1190 H1180 0.930 . S
C1190 C1188 1.419 . S
C1190 C1191 1.362 . S
C1191 H1181 0.930 . S
C1191 C1184 1.409 . S
C1191 C1190 1.362 . S
H1192 C1198 0.930 . S
H1193 C1201 0.930 . S
H1194 C1202 0.930 . S
H1195 C1203 0.930 . S
H1196 C1206 0.930 . S
H1197 C1207 0.930 . S
C1198 H1192 0.930 . S
C1198 C1199 1.355 . S
C1198 C1200 1.415 . S
C1199 C1198 1.355 . S
C1199 C1201 1.419 . S
C1200 C1198 1.415 . S
C1200 C1205 1.425 . S
C1200 C1207 1.409 . S
C1201 H1193 0.930 . S
C1201 C1199 1.419 . S
C1201 C1202 1.362 . S
C1202 H1194 0.930 . S
C1202 C1201 1.362 . S
C1202 C1205 1.409 . S
C1203 H1195 0.930 . S
C1203 C1204 1.355 . S
C1203 C1205 1.415 . S
C1204 C1203 1.355 . S
C1204 C1206 1.419 . S
C1205 C1200 1.425 . S
C1205 C1202 1.409 . S
C1205 C1203 1.415 . S
C1206 H1196 0.930 . S
C1206 C1204 1.419 . S
C1206 C1207 1.362 . S
C1207 H1197 0.930 . S
C1207 C1200 1.409 . S
C1207 C1206 1.362 . S
H1208 C1214 0.930 . S
H1209 C1217 0.930 . S
H1210 C1218 0.930 . S
H1211 C1219 0.930 . S
H1212 C1222 0.930 . S
H1213 C1223 0.930 . S
C1214 H1208 0.930 . S
C1214 C1215 1.355 . S
C1214 C1216 1.415 . S
C1215 C1214 1.355 . S
C1215 C1217 1.419 . S
C1216 C1214 1.415 . S
C1216 C1221 1.425 . S
C1216 C1223 1.409 . S
C1217 H1209 0.930 . S
C1217 C1215 1.419 . S
C1217 C1218 1.362 . S
C1218 H1210 0.930 . S
C1218 C1217 1.362 . S
C1218 C1221 1.409 . S
C1219 H1211 0.930 . S
C1219 C1220 1.355 . S
C1219 C1221 1.415 . S
C1220 C1219 1.355 . S
C1220 C1222 1.419 . S
C1221 C1216 1.425 . S
C1221 C1218 1.409 . S
C1221 C1219 1.415 . S
C1222 H1212 0.930 . S
C1222 C1220 1.419 . S
C1222 C1223 1.362 . S
C1223 H1213 0.930 . S
C1223 C1216 1.409 . S
C1223 C1222 1.362 . S
C655 C122 1.343 . S
C660 C4 1.353 . S
C671 C148 1.334 . S
C676 C50 1.355 . S
C687 C76 1.317 . S
C692 C184 1.308 . S
C703 C86 1.310 . S
C708 C194 1.307 . S
C719 C14 1.353 . S
C724 C112 1.288 . S
C735 C158 1.344 . S
C740 C40 1.348 . S
C751 C328 1.347 . S
C756 C220 1.352 . S
C767 C266 1.301 . S
C772 C364 1.309 . S
C783 C302 1.315 . S
C788 C400 1.271 . S
C799 C410 1.302 1_556 S
C804 C292 1.288 . S
C815 C338 1.293 . S
C820 C230 1.295 . S
C831 C374 1.335 . S
C836 C256 1.349 . S
C847 C436 1.355 . S
C852 C554 1.335 . S
C863 C482 1.363 . S
C868 C580 1.334 . S
C879 C508 1.371 . S
C884 C616 1.362 . S
C895 C626 1.279 . S
C900 C518 1.283 . S
C911 C544 1.288 . S
C916 C446 1.318 1_554 S
C927 C590 1.330 . S
C932 C472 1.346 . S
C943 C3 1.283 . S
C948 C255 1.300 . S
C959 C38 1.266 . S
C964 C291 1.293 . S
C975 C218 1.282 . S
C980 C75 1.275 . S
C991 C74 1.271 . S
C996 C470 1.203 . S
C1007 C507 1.295 1_454 S
C1012 C2 1.294 . S
C1023 C435 1.311 . S
C1028 C39 1.313 . S
C1039 C578 1.227 . S
C1044 C110 1.226 . S
C1055 C147 1.263 . S
C1060 C614 1.227 . S
C1071 C543 1.305 . S
C1076 C183 1.277 . S
C1087 C363 1.283 1_556 S
C1092 C182 1.290 . S
C1103 C111 1.300 . S
C1108 C399 1.320 . S
C1119 C146 1.229 . S
C1124 C327 1.267 1_556 S
C1135 C219 1.313 . S
C1140 C471 1.309 . S
C1151 C254 1.264 . S
C1156 C506 1.266 . S
C1167 C290 1.211 . S
C1172 C434 1.257 . S
C1183 C579 1.281 . S
C1188 C398 1.285 . S
C1199 C615 1.319 . S
C1204 C326 1.301 . S
C1215 C362 1.277 . S
C1220 C542 1.247 . S
