# Generated by pormake.
# Topology wkd, (5)-cn, num edge types: 1
# Building blocks:
#     Node 0, Type 0, BuildingBlock: XOMCOT_clean_sbu_1, # of connection points: 5
#     Node 1, Type 0, BuildingBlock: XOMCOT_clean_sbu_1, # of connection points: 5
#     Node 2, Type 0, BuildingBlock: XOMCOT_clean_sbu_1, # of connection points: 5
#     Node 3, Type 0, BuildingBlock: XOMCOT_clean_sbu_1, # of connection points: 5
#     Node 4, Type 0, BuildingBlock: XOMCOT_clean_sbu_1, # of connection points: 5
#     Node 5, Type 0, BuildingBlock: XOMCOT_clean_sbu_1, # of connection points: 5
#     Node 6, Type 0, BuildingBlock: XOMCOT_clean_sbu_1, # of connection points: 5
#     Node 7, Type 0, BuildingBlock: XOMCOT_clean_sbu_1, # of connection points: 5
#     Node 8, Type 0, BuildingBlock: XOMCOT_clean_sbu_1, # of connection points: 5
#     Node 9, Type 0, BuildingBlock: XOMCOT_clean_sbu_1, # of connection points: 5
#     Node 10, Type 0, BuildingBlock: XOMCOT_clean_sbu_1, # of connection points: 5
#     Node 11, Type 0, BuildingBlock: XOMCOT_clean_sbu_1, # of connection points: 5
#     Edge 12, Type (0, 0), BuildingBlock: UVAHIK_clean_linker_0, # of connection points: 2
#     Edge 13, Type (0, 0), BuildingBlock: UVAHIK_clean_linker_0, # of connection points: 2
#     Edge 14, Type (0, 0), BuildingBlock: UVAHIK_clean_linker_0, # of connection points: 2
#     Edge 15, Type (0, 0), BuildingBlock: UVAHIK_clean_linker_0, # of connection points: 2
#     Edge 16, Type (0, 0), BuildingBlock: UVAHIK_clean_linker_0, # of connection points: 2
#     Edge 17, Type (0, 0), BuildingBlock: UVAHIK_clean_linker_0, # of connection points: 2
#     Edge 18, Type (0, 0), BuildingBlock: UVAHIK_clean_linker_0, # of connection points: 2
#     Edge 19, Type (0, 0), BuildingBlock: UVAHIK_clean_linker_0, # of connection points: 2
#     Edge 20, Type (0, 0), BuildingBlock: UVAHIK_clean_linker_0, # of connection points: 2
#     Edge 21, Type (0, 0), BuildingBlock: UVAHIK_clean_linker_0, # of connection points: 2
#     Edge 22, Type (0, 0), BuildingBlock: UVAHIK_clean_linker_0, # of connection points: 2
#     Edge 23, Type (0, 0), BuildingBlock: UVAHIK_clean_linker_0, # of connection points: 2
#     Edge 24, Type (0, 0), BuildingBlock: UVAHIK_clean_linker_0, # of connection points: 2
#     Edge 25, Type (0, 0), BuildingBlock: UVAHIK_clean_linker_0, # of connection points: 2
#     Edge 26, Type (0, 0), BuildingBlock: UVAHIK_clean_linker_0, # of connection points: 2
#     Edge 27, Type (0, 0), BuildingBlock: UVAHIK_clean_linker_0, # of connection points: 2
#     Edge 28, Type (0, 0), BuildingBlock: UVAHIK_clean_linker_0, # of connection points: 2
#     Edge 29, Type (0, 0), BuildingBlock: UVAHIK_clean_linker_0, # of connection points: 2
#     Edge 30, Type (0, 0), BuildingBlock: UVAHIK_clean_linker_0, # of connection points: 2
#     Edge 31, Type (0, 0), BuildingBlock: UVAHIK_clean_linker_0, # of connection points: 2
#     Edge 32, Type (0, 0), BuildingBlock: UVAHIK_clean_linker_0, # of connection points: 2
#     Edge 33, Type (0, 0), BuildingBlock: UVAHIK_clean_linker_0, # of connection points: 2
#     Edge 34, Type (0, 0), BuildingBlock: UVAHIK_clean_linker_0, # of connection points: 2
#     Edge 35, Type (0, 0), BuildingBlock: UVAHIK_clean_linker_0, # of connection points: 2
#     Edge 36, Type (0, 0), BuildingBlock: UVAHIK_clean_linker_0, # of connection points: 2
#     Edge 37, Type (0, 0), BuildingBlock: UVAHIK_clean_linker_0, # of connection points: 2
#     Edge 38, Type (0, 0), BuildingBlock: UVAHIK_clean_linker_0, # of connection points: 2
#     Edge 39, Type (0, 0), BuildingBlock: UVAHIK_clean_linker_0, # of connection points: 2
#     Edge 40, Type (0, 0), BuildingBlock: UVAHIK_clean_linker_0, # of connection points: 2
#     Edge 41, Type (0, 0), BuildingBlock: UVAHIK_clean_linker_0, # of connection points: 2
# Relax obj value: 0.111
# Max RMSD: 0.173
# Mean RMSD: 0.173
data_MOF--net-wkd--node1-XOMCOT_clean_sbu_1--edge1-UVAHIK_clean_linker_0
_symmetry_space_group_name_H-M    P1
_symmetry_Int_Tables_number       1
_symmetry_cell_setting            triclinic
loop_
_symmetry_equiv_pos_as_xyz
'x, y, z'
_cell_length_a     32.129751
_cell_length_b     32.141676
_cell_length_c     138.31092
_cell_angle_alpha  89.953127
_cell_angle_beta   89.978978
_cell_angle_gamma 119.97386
loop_
_atom_site_label
_atom_site_type_symbol
_atom_site_fract_x
_atom_site_fract_y
_atom_site_fract_z
_atom_type_partial_charge
C0 C 0.08227 0.31112 0.07214 0.0
C1 C 0.08529 0.28264 0.07922 0.0
N2 N 0.05014 0.23692 0.07775 0.0
N3 N 0.04547 0.28362 0.06619 0.0
C4 C 0.02636 0.23864 0.06982 0.0
H5 H 0.10593 0.34937 0.07127 0.0
Co6 Co 0.02762 0.30608 0.05535 0.0
C7 C 0.99885 0.21498 0.04372 0.0
O8 O 0.03967 0.23407 0.03901 0.0
N9 N 1.00845 0.32852 0.0445 0.0
C10 C 0.99226 0.34007 0.02943 0.0
C11 C 1.00584 0.31441 0.03522 0.0
C12 C 0.9966 0.36352 0.0441 0.0
N13 N 0.98634 0.371 0.035 0.0
O14 O 0.97183 0.29721 0.06228 0.0
H15 H 0.0152 0.28874 0.03259 0.0
H16 H 0.99608 0.38355 0.05033 0.0
O17 O 0.99059 0.2395 0.04997 0.0
C18 C 0.9857 0.33412 0.06765 0.0
O19 O 0.0309 0.36832 0.06727 0.0
N20 N 0.08674 0.32144 0.04921 0.0
C21 C 0.17792 0.35672 0.04109 0.0
C22 C 0.15517 0.3121 0.04577 0.0
C23 C 0.11026 0.29591 0.05012 0.0
C24 C 0.1104 0.36644 0.04527 0.0
C25 C 0.15542 0.38433 0.04103 0.0
H26 H 0.09378 0.26212 0.05398 0.0
H27 H 0.09495 0.3895 0.04555 0.0
H28 H 0.99554 0.20773 0.06672 0.0
H29 H 0.11218 0.2946 0.08486 0.0
H30 H 0.98895 0.33745 0.02164 0.0
H31 H 0.1724 0.29055 0.04625 0.0
H32 H 0.1726 0.41969 0.03775 0.0
C33 C 0.78127 0.07246 0.23645 0.0
C34 C 0.81731 0.07758 0.24253 0.0
N35 N 0.83189 0.04681 0.23971 0.0
N36 N 0.7728 0.03854 0.22979 0.0
C37 C 0.80413 0.02328 0.232 0.0
H38 H 0.7637 0.09366 0.23665 0.0
Co39 Co 0.73132 0.02602 0.2193 0.0
C40 C 0.72822 0.94271 0.20984 0.0
O41 O 0.68107 0.92109 0.21003 0.0
N42 N 0.69037 0.01502 0.20873 0.0
C43 C 0.66461 0.00877 0.1936 0.0
C44 C 0.70166 0.01408 0.19935 0.0
C45 C 0.64614 0.01042 0.20847 0.0
N46 N 0.62969 0.00661 0.19932 0.0
O47 O 0.68009 0.97292 0.22623 0.0
H48 H 0.73496 0.01733 0.1968 0.0
H49 H 0.6269 0.01126 0.21481 0.0
O50 O 0.75294 0.98458 0.2135 0.0
C51 C 0.65911 0.98791 0.23191 0.0
O52 O 0.67416 0.03409 0.23224 0.0
N53 N 0.77911 0.08046 0.21307 0.0
C54 C 0.83845 0.16824 0.20413 0.0
C55 C 0.84487 0.12873 0.20242 0.0
C56 C 0.81506 0.08495 0.20711 0.0
C57 C 0.77294 0.11864 0.21486 0.0
C58 C 0.80242 0.16295 0.21054 0.0
H59 H 0.82012 0.05469 0.20574 0.0
H60 H 0.74409 0.11419 0.21957 0.0
H61 H 0.80831 0.99726 0.22778 0.0
H62 H 0.83233 0.10277 0.24846 0.0
H63 H 0.66338 0.00636 0.18579 0.0
H64 H 0.87251 0.13171 0.19751 0.0
H65 H 0.79608 0.19247 0.21196 0.0
C66 C 0.70626 0.77747 0.40228 0.0
C67 C 0.73357 0.81189 0.409 0.0
N68 N 0.77931 0.82141 0.40824 0.0
N69 N 0.73464 0.76562 0.3972 0.0
C70 C 0.77895 0.79251 0.40109 0.0
H71 H 0.66834 0.76306 0.40094 0.0
Co72 Co 0.71349 0.72344 0.38667 0.0
C73 C 0.80875 0.78215 0.37587 0.0
O74 O 0.79438 0.80743 0.37094 0.0
N75 N 0.69244 0.68032 0.37613 0.0
C76 C 0.68342 0.6511 0.36125 0.0
C77 C 0.70872 0.69072 0.36695 0.0
C78 C 0.65664 0.63389 0.37578 0.0
N79 N 0.65058 0.61523 0.36678 0.0
O80 O 0.71962 0.67693 0.39437 0.0
H81 H 0.73568 0.72544 0.36435 0.0
H82 H 0.63491 0.6144 0.38194 0.0
O83 O 0.78054 0.74986 0.38186 0.0
C84 C 0.68201 0.65536 0.39963 0.0
O85 O 0.6486 0.66732 0.39879 0.0
N86 N 0.70059 0.76698 0.37967 0.0
C87 C 0.66452 0.82221 0.37148 0.0
C88 C 0.70974 0.84444 0.37591 0.0
C89 C 0.72644 0.8161 0.38026 0.0
C90 C 0.65564 0.74537 0.37571 0.0
C91 C 0.6374 0.77211 0.37144 0.0
H92 H 0.75997 0.83376 0.3842 0.0
H93 H 0.63239 0.70696 0.37618 0.0
H94 H 0.81068 0.79245 0.39849 0.0
H95 H 0.72089 0.82906 0.41399 0.0
H96 H 0.68754 0.64957 0.35351 0.0
H97 H 0.73097 0.88322 0.37638 0.0
H98 H 0.60169 0.75363 0.36833 0.0
C99 C 0.92188 0.71426 0.56405 0.0
C100 C 0.9123 0.74543 0.56905 0.0
N101 N 0.95148 0.78961 0.56869 0.0
N102 N 0.96686 0.73841 0.56047 0.0
C103 C 0.98426 0.78429 0.56348 0.0
H104 H 0.89764 0.67616 0.56315 0.0
Co105 Co 0.99509 0.70981 0.55321 0.0
C106 C 0.04486 0.77732 0.53722 0.0
O107 O 0.02702 0.73963 0.53151 0.0
N108 N 0.02479 0.6809 0.54617 0.0
C109 C 0.08592 0.67208 0.54114 0.0
C110 C 0.07317 0.70262 0.54538 0.0
C111 C 1.00903 0.63663 0.54233 0.0
N112 N 0.04556 0.6306 0.53923 0.0
O113 O 0.04262 0.7249 0.56311 0.0
H114 H 0.098 0.73827 0.54802 0.0
H115 H 0.97207 0.60817 0.5422 0.0
O116 O 0.03576 0.77154 0.54631 0.0
C117 C 0.02448 0.69393 0.5699 0.0
O118 O 0.9781 0.66328 0.56975 0.0
N119 N 0.94454 0.68966 0.54417 0.0
C120 C 0.8593 0.64856 0.53343 0.0
C121 C 0.89099 0.69843 0.53328 0.0
C122 C 0.93299 0.71843 0.53886 0.0
C123 C 0.91253 0.64178 0.54488 0.0
C124 C 0.87045 0.62033 0.53943 0.0
H125 H 0.95511 0.75704 0.53916 0.0
H126 H 0.91872 0.6203 0.55007 0.0
H127 H 0.02008 0.8132 0.56183 0.0
H128 H 0.87923 0.73595 0.57283 0.0
H129 H 0.12213 0.67949 0.53971 0.0
H130 H 0.88309 0.72187 0.529 0.0
H131 H 0.84587 0.58216 0.54024 0.0
C132 C 0.23663 0.93502 0.73706 0.0
C133 C 0.20031 0.92808 0.74327 0.0
N134 N 0.18755 0.96129 0.74134 0.0
N135 N 0.24687 0.97237 0.73118 0.0
C136 C 0.21675 0.98811 0.73403 0.0
H137 H 0.2533 0.91302 0.7366 0.0
Co138 Co 0.29002 0.99031 0.72077 0.0
C139 C 0.2318 0.02045 0.70817 0.0
O140 O 0.21246 0.98064 0.70314 0.0
N141 N 0.33434 0.00898 0.71039 0.0
C142 C 0.36612 0.02236 0.69563 0.0
C143 C 0.32701 0.01464 0.70097 0.0
C144 C 0.37892 0.0142 0.71055 0.0
N145 N 0.39861 0.02178 0.70164 0.0
O146 O 0.33619 0.04587 0.72788 0.0
H147 H 0.29475 0.01114 0.69791 0.0
H148 H 0.39537 0.00946 0.71697 0.0
O149 O 0.26233 0.02794 0.71488 0.0
C150 C 0.35781 0.03206 0.73369 0.0
O151 O 0.34502 0.98636 0.73389 0.0
N152 N 0.24733 0.93148 0.71445 0.0
C153 C 0.19378 0.83936 0.70659 0.0
C154 C 0.17064 0.86289 0.7104 0.0
C155 C 0.1981 0.90838 0.71462 0.0
C156 C 0.26961 0.90727 0.71131 0.0
C157 C 0.24383 0.86199 0.70718 0.0
H158 H 0.17975 0.92531 0.71789 0.0
H159 H 0.30778 0.92227 0.71223 0.0
H160 H 0.21449 0.01702 0.73053 0.0
H161 H 0.18395 0.90011 0.74869 0.0
H162 H 0.36989 0.0268 0.68786 0.0
H163 H 0.13182 0.84582 0.71035 0.0
H164 H 0.2631 0.84462 0.70454 0.0
C165 C 0.31278 0.24168 0.90496 0.0
C166 C 0.28406 0.20663 0.91148 0.0
N167 N 0.23788 0.19343 0.90965 0.0
N168 N 0.28497 0.25054 0.89899 0.0
C169 C 0.23947 0.22102 0.90211 0.0
H170 H 0.35142 0.25846 0.90437 0.0
Co171 Co 0.30844 0.29151 0.88826 0.0
C172 C 0.21792 0.23102 0.8764 0.0
O173 O 0.23739 0.21033 0.87147 0.0
N174 N 0.33225 0.33377 0.87747 0.0
C175 C 0.34706 0.36302 0.86247 0.0
C176 C 0.31697 0.32492 0.86819 0.0
C177 C 0.37182 0.37812 0.87714 0.0
N178 N 0.38168 0.39637 0.86809 0.0
O179 O 0.30034 0.33908 0.89522 0.0
H180 H 0.28724 0.29234 0.86549 0.0
H181 H 0.39484 0.39545 0.88327 0.0
O182 O 0.24221 0.26301 0.88279 0.0
C183 C 0.33834 0.36326 0.90026 0.0
O184 O 0.37192 0.35135 0.89991 0.0
N185 N 0.32354 0.2476 0.88212 0.0
C186 C 0.36111 0.19293 0.87432 0.0
C187 C 0.31515 0.17035 0.87847 0.0
C188 C 0.2977 0.19844 0.88267 0.0
C189 C 0.36948 0.26939 0.87866 0.0
C190 C 0.38844 0.24303 0.87456 0.0
H191 H 0.26305 0.1806 0.88621 0.0
H192 H 0.3927 0.30767 0.8793 0.0
H193 H 0.20793 0.21804 0.89864 0.0
H194 H 0.29625 0.19148 0.91703 0.0
H195 H 0.34423 0.36562 0.85472 0.0
H196 H 0.29358 0.13155 0.87871 0.0
H197 H 0.42461 0.2619 0.87166 0.0
C198 C 0.70791 0.92987 0.79161 0.0
C199 C 0.73604 0.92284 0.78505 0.0
N200 N 0.78203 0.95795 0.78623 0.0
N201 N 0.73596 0.96903 0.79697 0.0
C202 C 0.78087 0.98584 0.79342 0.0
H203 H 0.66968 0.90682 0.79268 0.0
Co204 Co 0.71456 0.98919 0.80764 0.0
C205 C 0.81029 0.02945 0.81815 0.0
O206 O 0.79614 0.99076 0.8234 0.0
N207 N 0.69348 0.01083 0.81836 0.0
C208 C 0.68606 0.03277 0.83324 0.0
C209 C 0.71049 0.01746 0.82751 0.0
C210 C 0.65788 0.02178 0.81883 0.0
N211 N 0.65298 0.03557 0.82778 0.0
O212 O 0.71657 0.04005 0.79982 0.0
H213 H 0.73762 0.00998 0.83007 0.0
H214 H 0.63577 0.01965 0.81277 0.0
O215 O 0.78196 0.0324 0.81202 0.0
C216 C 0.67612 0.02254 0.79549 0.0
O217 O 0.64425 0.97711 0.79698 0.0
N218 N 0.70552 0.93424 0.81479 0.0
C219 C 0.67896 0.84859 0.82473 0.0
C220 C 0.72054 0.87005 0.819 0.0
C221 C 0.73274 0.91248 0.81393 0.0
C222 C 0.66272 0.9109 0.81962 0.0
C223 C 0.64955 0.86915 0.82485 0.0
H224 H 0.76481 0.92836 0.80953 0.0
H225 H 0.63763 0.92395 0.81933 0.0
H226 H 0.81255 0.01636 0.79638 0.0
H227 H 0.72367 0.89351 0.77995 0.0
H228 H 0.69136 0.03996 0.84092 0.0
H229 H 0.7435 0.85441 0.81848 0.0
H230 H 0.61568 0.85223 0.82872 0.0
C231 C 0.78717 0.7126 0.95816 0.0
C232 C 0.82324 0.74291 0.95199 0.0
N233 N 0.83397 0.78833 0.95388 0.0
N234 N 0.77512 0.73861 0.96396 0.0
C235 C 0.8039 0.78471 0.9611 0.0
H236 H 0.77211 0.67414 0.95869 0.0
Co237 Co 0.73257 0.7124 0.97441 0.0
C238 C 0.78502 0.80224 0.98697 0.0
O239 O 0.80746 0.78546 0.99216 0.0
N240 N 0.68928 0.68609 0.98493 0.0
C241 C 0.65996 0.67031 0.99989 0.0
C242 C 0.70019 0.696 0.99439 0.0
C243 C 0.64177 0.65296 0.98493 0.0
N244 N 0.62311 0.64331 0.99397 0.0
O245 O 0.6843 0.7186 0.96725 0.0
H246 H 0.73543 0.71844 0.9973 0.0
H247 H 0.6213 0.63601 0.97849 0.0
O248 O 0.75662 0.77742 0.98011 0.0
C249 C 0.6641 0.68423 0.96118 0.0
O250 O 0.67862 0.65268 0.96067 0.0
N251 N 0.77759 0.69996 0.98077 0.0
C252 C 0.83512 0.66646 0.98882 0.0
C253 C 0.85584 0.71352 0.98526 0.0
C254 C 0.82648 0.72907 0.98093 0.0
C255 C 0.75773 0.65327 0.98368 0.0
C256 C 0.78555 0.63611 0.98787 0.0
H257 H 0.84302 0.76463 0.9778 0.0
H258 H 0.71986 0.62854 0.98262 0.0
H259 H 0.80483 0.81527 0.96459 0.0
H260 H 0.84102 0.73239 0.94669 0.0
H261 H 0.6583 0.67014 1.00771 0.0
H262 H 0.89434 0.73746 0.98557 0.0
H263 H 0.76832 0.59914 0.99031 0.0
C264 C 0.03758 0.76464 0.12343 0.0
C265 C 0.03292 0.79705 0.11775 0.0
N266 N 0.02337 0.82507 0.1235 0.0
N267 N 0.03056 0.77154 0.13276 0.0
C268 C 0.02243 0.80906 0.13261 0.0
H269 H 0.04656 0.73829 0.12092 0.0
Co270 Co 0.03598 0.73565 0.14277 0.0
C271 C 0.97237 0.73338 0.15911 0.0
O272 O 0.98949 0.71319 0.16488 0.0
N273 N 0.0432 0.6981 0.15268 0.0
C274 C 0.07459 0.67236 0.16399 0.0
C275 C 0.08197 0.71068 0.15838 0.0
C276 C 0.01309 0.65119 0.15493 0.0
N277 N 0.03135 0.63489 0.16179 0.0
O278 O 0.9869 0.67748 0.13665 0.0
H279 H 0.11461 0.74502 0.15839 0.0
H280 H 0.97813 0.62927 0.15169 0.0
O281 O 0.98709 0.7429 0.15032 0.0
C282 C 1.00541 0.65511 0.13247 0.0
O283 O 0.05213 0.67299 0.13301 0.0
N284 N 0.08702 0.79228 0.14798 0.0
C285 C 0.1744 0.85961 0.15615 0.0
C286 C 0.13078 0.85018 0.16036 0.0
C287 C 0.08728 0.81664 0.1561 0.0
C288 C 0.1289 0.80442 0.1433 0.0
C289 C 0.17306 0.83796 0.14726 0.0
H290 H 0.0546 0.80892 0.15971 0.0
H291 H 0.12811 0.78502 0.13685 0.0
H292 H 0.01624 0.82443 0.13903 0.0
H293 H 0.03776 0.80068 0.10999 0.0
H294 H 0.09993 0.6716 0.16905 0.0
H295 H 0.13027 0.86703 0.1671 0.0
H296 H 0.20577 0.84402 0.14375 0.0
C297 C 0.30836 0.0758 0.29059 0.0
C298 C 0.28021 0.08216 0.28393 0.0
N299 N 0.23411 0.04777 0.28534 0.0
N300 N 0.28022 0.03781 0.29625 0.0
C301 C 0.23518 0.021 0.29278 0.0
H302 H 0.34672 0.09853 0.29151 0.0
Co303 Co 0.30218 0.01927 0.30705 0.0
C304 C 0.20602 0.98165 0.31757 0.0
O305 O 0.21848 0.02215 0.322 0.0
N306 N 0.32369 0.99946 0.31796 0.0
C307 C 0.33227 0.98204 0.33314 0.0
C308 C 0.3071 0.99523 0.3271 0.0
C309 C 0.35958 0.98907 0.31872 0.0
N310 N 0.36536 0.97813 0.32788 0.0
O311 O 0.29829 0.96644 0.2997 0.0
H312 H 0.27987 1.00327 0.3294 0.0
H313 H 0.38162 0.99017 0.31273 0.0
O314 O 0.23534 0.97767 0.31187 0.0
C315 C 0.33852 0.98281 0.29532 0.0
O316 O 0.37117 0.02812 0.2966 0.0
N317 N 0.31355 0.07619 0.31364 0.0
C318 C 0.34795 0.16749 0.32169 0.0
C319 C 0.30298 0.1439 0.31715 0.0
C320 C 0.28719 0.0989 0.31285 0.0
C321 C 0.35851 0.10046 0.31759 0.0
C322 C 0.37588 0.14537 0.3218 0.0
H323 H 0.25388 0.08255 0.30884 0.0
H324 H 0.38237 0.08596 0.31719 0.0
H325 H 0.20344 0.99127 0.29594 0.0
H326 H 0.29263 0.11052 0.27859 0.0
H327 H 0.32775 0.97758 0.3409 0.0
H328 H 0.28124 0.16088 0.3166 0.0
H329 H 0.41151 0.16315 0.32496 0.0
C330 C 0.24243 0.28642 0.45596 0.0
C331 C 0.20719 0.2531 0.45005 0.0
N332 N 0.18211 0.21201 0.45508 0.0
N333 N 0.2396 0.26663 0.4647 0.0
C334 C 0.20247 0.22103 0.46395 0.0
H335 H 0.26744 0.32339 0.45411 0.0
Co336 Co 0.27668 0.30195 0.47523 0.0
C337 C 0.29181 0.22736 0.4852 0.0
O338 O 0.3388 0.25375 0.48494 0.0
N339 N 0.31517 0.34006 0.48583 0.0
C340 C 0.34376 0.39543 0.49749 0.0
C341 C 0.30461 0.36659 0.49189 0.0
C342 C 0.36179 0.35451 0.48791 0.0
N343 N 0.38003 0.38826 0.49492 0.0
O344 O 0.33367 0.31141 0.46853 0.0
H345 H 0.27159 0.36767 0.49194 0.0
H346 H 0.38334 0.34343 0.48386 0.0
O347 O 0.26588 0.24277 0.4814 0.0
C348 C 0.35695 0.35387 0.46506 0.0
O349 O 0.3404 0.38333 0.46662 0.0
N350 N 0.22126 0.29575 0.48115 0.0
C351 C 0.15364 0.31132 0.49063 0.0
C352 C 0.16827 0.28042 0.4946 0.0
C353 C 0.20205 0.27281 0.48971 0.0
C354 C 0.20495 0.32311 0.47688 0.0
C355 C 0.17093 0.33115 0.48147 0.0
H356 H 0.21543 0.25181 0.49322 0.0
H357 H 0.22102 0.34161 0.47019 0.0
H358 H 0.18898 0.1958 0.46989 0.0
H359 H 0.19995 0.25884 0.44267 0.0
H360 H 0.3457 0.42105 0.5028 0.0
H361 H 0.15558 0.26426 0.50165 0.0
H362 H 0.1611 0.35564 0.47819 0.0
C363 C 0.9269 0.22972 0.6242 0.0
C364 C 0.91993 0.19551 0.61743 0.0
N365 N 0.9545 0.18374 0.61853 0.0
N366 N 0.9657 0.23973 0.62959 0.0
C367 C 0.98214 0.21157 0.62589 0.0
H368 H 0.90417 0.24521 0.62534 0.0
Co369 Co 0.98594 0.28075 0.64035 0.0
C370 C 0.0289 0.22675 0.65046 0.0
O371 O 0.99069 0.20143 0.65579 0.0
N372 N 1.00764 0.32286 0.65118 0.0
C373 C 0.02959 0.35131 0.66612 0.0
C374 C 0.01411 0.31189 0.66029 0.0
C375 C 0.0189 0.36944 0.65176 0.0
N376 N 0.03269 0.38759 0.66075 0.0
O377 O 0.03561 0.33095 0.6325 0.0
H378 H 1.00639 0.27708 0.66278 0.0
H379 H 0.01709 0.3899 0.64577 0.0
O380 O 0.03066 0.25779 0.64439 0.0
C381 C 0.01605 0.35285 0.62851 0.0
O382 O 0.97021 0.33672 0.63018 0.0
N383 N 0.93194 0.23387 0.64754 0.0
C384 C 0.84782 0.17403 0.65786 0.0
C385 C 0.86931 0.15436 0.65201 0.0
C386 C 0.91091 0.18496 0.64673 0.0
C387 C 0.90822 0.25274 0.65243 0.0
C388 C 0.86727 0.22384 0.65784 0.0
H389 H 0.92686 0.16921 0.64222 0.0
H390 H 0.92049 0.2907 0.65206 0.0
H391 H 0.01234 0.20971 0.62883 0.0
H392 H 0.89106 0.18002 0.6122 0.0
H393 H 0.0367 0.3527 0.6738 0.0
H394 H 0.85438 0.11585 0.65156 0.0
H395 H 0.85014 0.2404 0.66176 0.0
C396 C 0.81932 0.89087 0.9864 0.0
C397 C 0.787 0.8463 0.99049 0.0
C398 C 0.83242 0.93334 0.9915 0.0
C399 C 0.80748 0.98403 1.01379 0.0
H400 H 0.94619 0.06337 1.01424 0.0
C401 C 0.91755 0.16021 0.03672 0.0
C402 C 0.96125 0.16723 0.04045 0.0
C403 C 0.88908 0.12025 0.03083 0.0
C404 C 0.90737 0.04151 1.01424 0.0
H405 H 0.74104 0.81066 1.00275 0.0
H406 H 0.76347 0.88438 1.01164 0.0
H407 H 0.90856 0.99865 1.00259 0.0
H408 H 1.00768 0.13672 0.04168 0.0
H409 H 0.95754 0.0665 0.0318 0.0
H410 H 0.80698 0.02653 0.02574 0.0
C411 C 0.77835 0.88715 1.00448 0.0
C412 C 0.88567 1.00481 1.00742 0.0
C413 C 0.76541 0.84485 0.9994 0.0
C414 C 0.97403 0.13195 0.0389 0.0
C415 C 0.94563 0.09212 0.03313 0.0
C416 C 0.82933 0.02111 0.02062 0.0
C417 C 0.81367 0.93181 1.0008 0.0
C418 C 0.83549 0.97495 1.0072 0.0
C419 C 0.90409 0.08698 0.02863 0.0
C420 C 0.87965 0.04949 0.02107 0.0
H421 H 0.83702 0.89267 0.97961 0.0
H422 H 0.85922 0.96719 0.98839 0.0
H423 H 0.7687 0.96193 1.01377 0.0
H424 H 0.90747 0.18748 0.03767 0.0
H425 H 0.85721 0.11722 0.02749 0.0
C426 C 0.91221 0.7624 0.15839 0.0
C427 C 0.94556 0.75499 0.16356 0.0
C428 C 0.88696 0.78213 0.163 0.0
C429 C 0.85927 0.80863 0.188 0.0
H430 H 0.81828 0.88703 0.17424 0.0
C431 C 0.80006 0.93349 0.20643 0.0
C432 C 0.75237 0.92101 0.20438 0.0
C433 C 0.82264 0.91302 0.20118 0.0
C434 C 0.82957 0.86512 0.17814 0.0
H435 H 0.9807 0.7652 0.17745 0.0
H436 H 0.93952 0.80149 0.18523 0.0
H437 H 0.85977 0.85218 0.16547 0.0
H438 H 0.69153 0.87845 0.19501 0.0
H439 H 0.73173 0.84399 0.18564 0.0
H440 H 0.83089 0.82364 0.20073 0.0
C441 C 0.93021 0.78984 0.17781 0.0
C442 C 0.853 0.84474 0.17312 0.0
C443 C 0.95432 0.7692 0.1733 0.0
C444 C 0.72812 0.8884 0.19683 0.0
C445 C 0.75114 0.86894 0.19142 0.0
C446 C 0.83701 0.82994 0.19303 0.0
C447 C 0.8954 0.79587 0.17283 0.0
C448 C 0.86856 0.81637 0.17799 0.0
C449 C 0.79845 0.88078 0.1936 0.0
C450 C 0.82205 0.85843 0.18816 0.0
H451 H 0.90493 0.75201 0.15086 0.0
H452 H 0.86032 0.78579 0.15889 0.0
H453 H 0.86898 0.78586 0.19203 0.0
H454 H 0.81971 0.95861 0.21217 0.0
H455 H 0.8592 0.92267 0.20298 0.0
C456 C 0.89649 0.82946 0.37294 0.0
C457 C 0.85378 0.785 0.37267 0.0
C458 C 0.93632 0.83705 0.36747 0.0
C459 C 0.96048 0.80415 0.34427 0.0
H460 H 0.09411 0.87526 0.35212 0.0
C461 C 0.11821 0.9388 0.32052 0.0
C462 C 0.16197 0.93913 0.32102 0.0
C463 C 0.07902 0.90666 0.32614 0.0
C464 C 0.05697 0.85468 0.34983 0.0
H465 H 0.81916 0.71322 0.36671 0.0
H466 H 0.88871 0.72678 0.35693 0.0
H467 H 0.03068 0.84407 0.36442 0.0
H468 H 0.19914 0.90571 0.32757 0.0
H469 H 0.13069 0.84995 0.33762 0.0
H470 H 0.9867 0.81767 0.32967 0.0
C471 C 0.8917 0.75536 0.36154 0.0
C472 C 0.02074 0.83709 0.35686 0.0
C473 C 0.85219 0.74743 0.36721 0.0
C474 C 0.16532 0.90525 0.32689 0.0
C475 C 0.12642 0.87381 0.33271 0.0
C476 C 0.99669 0.82258 0.33723 0.0
C477 C 0.93366 0.80071 0.36141 0.0
C478 C 0.97211 0.81246 0.35415 0.0
C479 C 0.08335 0.8752 0.33259 0.0
C480 C 0.04528 0.84885 0.33994 0.0
H481 H 0.89807 0.85922 0.37693 0.0
H482 H 0.96794 0.8725 0.36743 0.0
H483 H 0.92329 0.78577 0.34196 0.0
H484 H 0.11524 0.96536 0.3162 0.0
H485 H 0.0465 0.90892 0.32597 0.0
C486 C 0.22092 0.14585 0.48863 0.0
C487 C 0.26855 0.18133 0.49064 0.0
C488 C 0.1985 0.10303 0.49395 0.0
C489 C 0.19515 0.05012 0.51732 0.0
H490 H 0.1404 0.92909 0.5036 0.0
C491 C 0.10763 0.86551 0.53748 0.0
C492 C 0.0703 0.82573 0.53275 0.0
C493 C 0.13327 0.90996 0.53269 0.0
C494 C 0.15451 0.96236 0.5076 0.0
H495 H 0.32963 0.19996 0.49997 0.0
H496 H 0.28978 0.12554 0.50945 0.0
H497 H 0.18102 1.00407 0.49462 0.0
H498 H 0.02855 0.80202 0.51955 0.0
H499 H 0.07069 0.87905 0.51149 0.0
H500 H 0.16699 0.00877 0.53027 0.0
C501 C 0.27021 0.13079 0.50365 0.0
C502 C 0.17823 1.00541 0.50241 0.0
C503 C 0.29307 0.17317 0.49818 0.0
C504 C 0.05781 0.83175 0.52333 0.0
C505 C 0.08247 0.8761 0.51866 0.0
C506 C 0.17043 0.00694 0.52252 0.0
C507 C 0.22278 0.09521 0.50156 0.0
C508 C 0.19865 0.04972 0.50719 0.0
C509 C 0.12141 0.91576 0.52314 0.0
C510 C 0.14935 0.96228 0.51773 0.0
H511 H 0.20099 0.15102 0.4829 0.0
H512 H 0.16185 0.07623 0.49221 0.0
H513 H 0.21046 0.0839 0.52118 0.0
H514 H 0.11803 0.86184 0.54474 0.0
H515 H 0.16311 0.93931 0.53641 0.0
C516 C 0.25767 0.09923 0.70015 0.0
C517 C 0.22188 0.05813 0.70485 0.0
C518 C 0.24504 0.12667 0.69421 0.0
C519 C 0.14096 0.10692 0.67954 0.0
H520 H 0.21127 0.24451 0.6753 0.0
C521 C 0.07684 0.18588 0.65024 0.0
C522 C 0.0721 0.22494 0.65322 0.0
C523 C 0.10589 0.17282 0.65545 0.0
C524 C 0.19126 0.206 0.6764 0.0
H525 H 0.14571 0.0152 0.70767 0.0
H526 H 0.12375 0.06407 0.69777 0.0
H527 H 0.23827 0.20908 0.68778 0.0
H528 H 0.09546 0.28254 0.66361 0.0
H529 H 0.1458 0.25973 0.6728 0.0
H530 H 0.09307 0.10339 0.6685 0.0
C531 C 0.16137 0.07464 0.69837 0.0
C532 C 0.20689 0.1857 0.68352 0.0
C533 C 0.17392 0.04705 0.70417 0.0
C534 C 0.0996 0.25296 0.66104 0.0
C535 C 0.12827 0.23965 0.66633 0.0
C536 C 0.12544 0.12705 0.67247 0.0
C537 C 0.19643 0.11331 0.69292 0.0
C538 C 0.18138 0.13592 0.68528 0.0
C539 C 0.12979 0.19791 0.6639 0.0
C540 C 0.15003 0.1769 0.67083 0.0
H541 H 0.29481 0.10773 0.7004 0.0
H542 H 0.27295 0.15616 0.69011 0.0
H543 H 0.121 0.06832 0.68051 0.0
H544 H 0.0552 0.16324 0.64434 0.0
H545 H 0.10709 0.14115 0.65322 0.0
C546 C 0.85514 0.10025 0.82869 0.0
C547 C 0.85563 0.07182 0.82105 0.0
C548 C 0.8968 0.12842 0.8341 0.0
C549 C 1.00457 0.12321 0.84099 0.0
H550 H 0.03735 0.23864 0.85555 0.0
C551 C 0.1329 0.17386 0.87273 0.0
C552 C 0.17042 0.22159 0.87314 0.0
C553 C 0.09273 0.16119 0.86695 0.0
C554 C 0.02877 0.20651 0.8515 0.0
H555 H 0.9001 0.05264 0.81261 0.0
H556 H 0.97357 0.10364 0.82168 0.0
H557 H 0.97545 0.21128 0.84298 0.0
H558 H 0.19482 0.29407 0.86822 0.0
H559 H 0.12453 0.27199 0.85796 0.0
H560 H 0.05783 0.11841 0.84933 0.0
C561 C 0.94095 0.10356 0.82369 0.0
C562 C 0.99314 0.19068 0.84433 0.0
C563 C 0.89916 0.075 0.81836 0.0
C564 C 0.16571 0.25715 0.86818 0.0
C565 C 0.12561 0.24438 0.86226 0.0
C566 C 0.03993 0.13893 0.84812 0.0
C567 C 0.93969 0.12851 0.83196 0.0
C568 C 0.98038 0.14859 0.83901 0.0
C569 C 0.08972 0.19586 0.86123 0.0
C570 C 0.05211 0.18035 0.85358 0.0
H571 H 0.82159 0.09732 0.83104 0.0
H572 H 0.8942 0.1468 0.84043 0.0
H573 H 0.99532 0.09019 0.83722 0.0
H574 H 0.13606 0.1458 0.87642 0.0
H575 H 0.06519 0.1237 0.86655 0.0
C576 C 0.05659 0.19944 0.09294 0.0
C577 C 0.04164 0.19505 0.08324 0.0
C578 C 0.05041 0.15937 0.09814 0.0
C579 C 0.98309 0.02577 0.09815 0.0
H580 H 0.08768 0.03984 0.1144 0.0
C581 C 0.99935 0.86405 0.11105 0.0
C582 C 0.01787 0.86486 0.1203 0.0
C583 C 0.99809 0.90399 0.10745 0.0
C584 C 0.05776 0.03538 0.11003 0.0
H585 H 1.0083 0.14457 0.07147 0.0
H586 H 0.99761 0.07482 0.08052 0.0
H587 H 0.09375 0.10998 0.10626 0.0
H588 H 0.0483 0.90803 0.13315 0.0
H589 H 0.04579 0.97816 0.12687 0.0
H590 H 0.94747 0.95103 0.10179 0.0
C591 C 0.01349 0.1092 0.08415 0.0
C592 C 0.06126 0.07566 0.10534 0.0
C593 C 0.01963 0.14929 0.07895 0.0
C594 C 0.03364 0.90621 0.12601 0.0
C595 C 0.03264 0.94651 0.12237 0.0
C596 C 0.97961 0.98553 0.10283 0.0
C597 C 0.02911 0.11374 0.09381 0.0
C598 C 0.02423 0.0713 0.09923 0.0
C599 C 0.01537 0.94606 0.11298 0.0
C600 C 0.01718 0.98965 0.10873 0.0
H601 H 0.07292 0.23389 0.09654 0.0
H602 H 0.06214 0.16415 0.1056 0.0
H603 H 0.95346 0.02116 0.09366 0.0
H604 H 0.98635 0.83257 0.10651 0.0
H605 H 0.98498 0.90237 0.10016 0.0
C606 C 0.912 0.08491 0.24732 0.0
C607 C 0.87172 0.04359 0.2437 0.0
C608 C 0.94979 0.08216 0.25165 0.0
C609 C 1.00375 1.00355 0.25479 0.0
H610 H 0.06773 0.09019 0.27619 0.0
C611 C 0.1508 0.99906 0.27913 0.0
C612 C 0.19229 0.04398 0.28059 0.0
C613 C 0.11023 0.99586 0.27458 0.0
C614 C 0.05037 0.0659 0.2702 0.0
H615 H 0.83997 0.96698 0.24163 0.0
H616 H 0.9056 0.96163 0.24947 0.0
H617 H 0.9996 0.08971 0.26844 0.0
H618 H 0.22329 0.1207 0.27855 0.0
H619 H 0.15267 0.11519 0.27076 0.0
H620 H 0.05455 0.97926 0.25679 0.0
C621 C 0.90836 0.99648 0.24881 0.0
C622 C 0.01137 0.06576 0.26569 0.0
C623 C 0.87064 0.99942 0.24433 0.0
C624 C 0.19219 0.08554 0.27745 0.0
C625 C 0.15155 0.08241 0.27306 0.0
C626 C 0.04255 1.00328 0.2594 0.0
C627 C 0.94825 0.03782 0.25265 0.0
C628 C 0.98799 0.0353 0.25779 0.0
C629 C 0.11006 0.0376 0.27158 0.0
C630 C 0.06679 0.03508 0.26705 0.0
H631 H 0.91446 0.11966 0.24674 0.0
H632 H 0.98038 0.11509 0.2542 0.0
H633 H 0.98705 0.97981 0.2487 0.0
H634 H 0.14991 0.96644 0.28144 0.0
H635 H 0.0787 0.96085 0.27358 0.0
C636 C 0.10545 0.17294 0.4462 0.0
C637 C 0.14006 0.16921 0.45174 0.0
C638 C 0.06569 0.13192 0.44249 0.0
C639 C 0.02607 0.01254 0.43361 0.0
H640 H 0.8975 0.99135 0.43761 0.0
C641 C 0.85812 0.85055 0.41625 0.0
C642 C 0.82021 0.85783 0.41345 0.0
C643 C 0.89695 0.88565 0.4216 0.0
C644 C 0.93313 0.99695 0.43626 0.0
H645 H 0.16034 0.11981 0.45778 0.0
H646 H 0.09103 0.04747 0.45099 0.0
H647 H 0.96523 0.05778 0.44575 0.0
H648 H 0.79425 0.90831 0.41367 0.0
H649 H 0.8622 0.97 0.42257 0.0
H650 H 0.9947 0.95346 0.42373 0.0
C651 C 0.09462 0.08232 0.44965 0.0
C652 C 0.97188 0.03483 0.44103 0.0
C653 C 0.13395 0.12347 0.45357 0.0
C654 C 0.82245 0.90127 0.4159 0.0
C655 C 0.86146 0.93659 0.42108 0.0
C656 C 0.98735 0.97507 0.42868 0.0
C657 C 0.06014 0.08625 0.44407 0.0
C658 C 0.01878 0.04335 0.43968 0.0
C659 C 0.89912 0.92921 0.42412 0.0
C660 C 0.94031 0.96712 0.42982 0.0
H661 H 0.10921 0.20776 0.44474 0.0
H662 H 0.03979 0.136 0.43818 0.0
H663 H 0.06199 0.01862 0.43238 0.0
H664 H 0.85713 0.81724 0.4145 0.0
H665 H 0.92479 0.87818 0.42387 0.0
C666 C 1.00221 0.14708 0.61267 0.0
C667 C 0.95804 0.14609 0.6135 0.0
C668 C 1.00506 0.11005 0.60788 0.0
C669 C 0.92901 0.98291 0.60046 0.0
H670 H 0.03179 0.0092 0.58243 0.0
C671 C 0.9154 0.83696 0.57469 0.0
C672 C 0.95629 0.83256 0.57313 0.0
C673 C 0.91878 0.87652 0.57958 0.0
C674 C 1.00315 1.00118 0.58753 0.0
H675 H 0.88216 0.10459 0.61001 0.0
H676 H 0.88723 0.041 0.60163 0.0
H677 H 0.03205 0.07552 0.5912 0.0
H678 H 0.03325 0.86744 0.57531 0.0
H679 H 0.03925 0.93687 0.58393 0.0
H680 H 0.89995 0.90886 0.59685 0.0
C681 C 0.91972 0.07017 0.60471 0.0
C682 C 1.00331 0.03922 0.59256 0.0
C683 C 0.91692 0.10713 0.60943 0.0
C684 C 1.00109 0.86978 0.57634 0.0
C685 C 1.00449 0.90956 0.58129 0.0
C686 C 0.92889 0.94505 0.59547 0.0
C687 C 0.96372 0.07091 0.6039 0.0
C688 C 0.96577 0.0306 0.59897 0.0
C689 C 0.96316 0.913 0.58311 0.0
C690 C 0.96548 0.95363 0.58881 0.0
H691 H 0.03466 0.17663 0.61565 0.0
H692 H 0.0395 0.11167 0.60744 0.0
H693 H 0.90013 0.97473 0.60551 0.0
H694 H 0.88051 0.80969 0.57211 0.0
H695 H 0.88637 0.87847 0.5806 0.0
C696 C 0.14952 0.00836 0.74668 0.0
C697 C 0.14801 0.96412 0.74563 0.0
C698 C 0.11149 0.01072 0.75115 0.0
C699 C 1.00555 0.93897 0.76724 0.0
H700 H 0.96464 0.02747 0.75845 0.0
C701 C 0.82427 0.91986 0.77857 0.0
C702 C 0.82399 0.96152 0.78157 0.0
C703 C 0.86518 0.92284 0.77432 0.0
C704 C 0.97597 1.00288 0.76104 0.0
H705 H 0.10426 0.88747 0.74803 0.0
H706 H 0.03802 0.89123 0.75556 0.0
H707 H 0.03312 0.02764 0.75067 0.0
H708 H 0.86643 0.03911 0.78229 0.0
H709 H 0.93806 0.0444 0.77474 0.0
H710 H 0.94769 0.91341 0.77742 0.0
C711 C 0.06911 0.92451 0.75329 0.0
C712 C 0.01535 1.00302 0.7566 0.0
C713 C 0.10716 0.92227 0.74893 0.0
C714 C 0.86561 0.00637 0.7801 0.0
C715 C 0.90646 0.00941 0.77572 0.0
C716 C 0.96603 0.9385 0.77158 0.0
C717 C 0.07085 0.96878 0.7546 0.0
C718 C 0.03038 0.97064 0.75957 0.0
C719 C 0.90682 0.96759 0.77286 0.0
C720 C 0.95042 0.97008 0.76848 0.0
H721 H 0.18059 0.04124 0.74425 0.0
H722 H 0.11445 0.04553 0.75208 0.0
H723 H 0.01666 0.91439 0.76993 0.0
H724 H 0.79314 0.88472 0.77969 0.0
H725 H 0.86411 0.88998 0.77213 0.0
C726 C 0.9158 0.83267 0.94698 0.0
C727 C 0.87317 0.83154 0.94978 0.0
C728 C 0.95407 0.87426 0.94304 0.0
C729 C 0.98489 0.98467 0.92984 0.0
H730 H 0.11352 0.02646 0.93922 0.0
C731 C 0.15309 0.1565 0.91512 0.0
C732 C 0.19586 0.15489 0.91425 0.0
C733 C 0.11276 0.1192 0.91975 0.0
C734 C 0.078 0.01506 0.93639 0.0
H735 H 0.83725 0.87325 0.95057 0.0
H736 H 0.90429 0.94624 0.9435 0.0
H737 H 0.04515 0.95772 0.94669 0.0
H738 H 0.229 0.11179 0.9172 0.0
H739 H 0.15905 0.0467 0.925 0.0
H740 H 0.01779 0.04104 0.91933 0.0
C741 C 0.9079 0.91472 0.94441 0.0
C742 C 0.03873 0.97572 0.94073 0.0
C743 C 0.86971 0.87314 0.94851 0.0
C744 C 0.19706 0.11476 0.91794 0.0
C745 C 0.15678 0.07738 0.92246 0.0
C746 C 0.02433 0.02381 0.9254 0.0
C747 C 0.95062 0.91576 0.94169 0.0
C748 C 0.99177 0.95969 0.93744 0.0
C749 C 0.11412 0.07915 0.92353 0.0
C750 C 0.07156 0.03919 0.92854 0.0
H751 H 0.9199 0.8015 0.94797 0.0
H752 H 0.98632 0.87377 0.94095 0.0
H753 H 0.94913 0.97294 0.9271 0.0
H754 H 0.15113 0.18706 0.9124 0.0
H755 H 0.08083 0.12222 0.9205 0.0
C756 C 0.55647 0.62099 1.00528 0.0
C757 C 0.57494 0.61009 0.99708 0.0
C758 C 0.51324 0.58672 1.00937 0.0
C759 C 0.4006 0.47459 1.00555 0.0
H760 H 0.40487 0.46829 0.03354 0.0
C761 C 0.23351 0.35051 0.02919 0.0
C762 C 0.2257 0.37595 0.03655 0.0
C763 C 0.27718 0.37179 0.02413 0.0
C764 C 0.40314 0.46947 0.02573 0.0
H765 H 0.56125 0.55569 0.98635 0.0
H766 H 0.48448 0.495 0.99355 0.0
H767 H 0.47813 0.52012 0.02457 0.0
H768 H 0.25747 0.44227 0.0447 0.0
H769 H 0.3337 0.47906 0.03603 0.0
H770 H 0.32498 0.42472 1.00681 0.0
C771 C 0.50401 0.53029 0.9968 0.0
C772 C 0.445 0.49922 0.02059 0.0
C773 C 0.54768 0.56494 0.99267 0.0
C774 C 0.2627 0.42201 0.03904 0.0
C775 C 0.30636 0.4429 0.03411 0.0
C776 C 0.35848 0.4446 1.01072 0.0
C777 C 0.48726 0.54051 1.00538 0.0
C778 C 0.4439 0.50342 1.01049 0.0
C779 C 0.31385 0.41839 0.02651 0.0
C780 C 0.35916 0.44306 0.02088 0.0
H781 H 0.57625 0.65589 1.00868 0.0
H782 H 0.50053 0.59616 0.0158 0.0
H783 H 0.39878 0.47709 0.99777 0.0
H784 H 0.20525 0.31503 0.02712 0.0
H785 H 0.28214 0.3521 0.01833 0.0
C786 C 0.01992 0.57956 0.17518 0.0
C787 C 0.01101 0.58687 0.16557 0.0
C788 C 1.00315 0.53322 0.17875 0.0
C789 C 0.91711 0.40421 0.17376 0.0
H790 H 0.9966 0.38565 0.1924 0.0
C791 C 0.86801 0.2167 0.1889 0.0
C792 C 0.86733 0.21461 0.19904 0.0
C793 C 0.88904 0.26114 0.18414 0.0
C794 C 0.97405 0.39031 0.18719 0.0
H795 H 0.97719 0.55136 0.15217 0.0
H796 H 0.9487 0.47018 0.1583 0.0
H797 H 0.02505 0.46479 0.18532 0.0
H798 H 0.88971 0.25685 0.21217 0.0
H799 H 0.92751 0.33443 0.20388 0.0
H800 H 0.86638 0.32927 0.17562 0.0
C801 C 0.96784 0.50022 0.16317 0.0
C802 C 0.99012 0.43575 0.18318 0.0
C803 C 0.98416 0.54672 0.15964 0.0
C804 C 0.88992 0.25759 0.20434 0.0
C805 C 0.9116 0.3019 0.1996 0.0
C806 C 0.90132 0.35856 0.17769 0.0
C807 C 0.97757 0.49287 0.17276 0.0
C808 C 0.9615 0.4436 0.17654 0.0
C809 C 0.91045 0.30417 0.18946 0.0
C810 C 0.92929 0.35135 0.18457 0.0
H811 H 0.03988 0.60984 0.17995 0.0
H812 H 0.01021 0.52912 0.18624 0.0
H813 H 0.8938 0.40882 0.16876 0.0
H814 H 0.85038 0.18401 0.18467 0.0
H815 H 0.88791 0.2619 0.17632 0.0
C816 C 0.44575 0.9849 0.32708 0.0
C817 C 0.40065 0.96695 0.33156 0.0
C818 C 0.48088 0.97654 0.33116 0.0
C819 C 0.51379 0.94502 0.35457 0.0
H820 H 0.58794 0.90414 0.33923 0.0
C821 C 0.59763 0.84003 0.37055 0.0
C822 C 0.64343 0.85029 0.36749 0.0
C823 C 0.57501 0.86269 0.36625 0.0
C824 C 0.56815 0.91641 0.34358 0.0
H825 H 0.35629 0.92391 0.34351 0.0
H826 H 0.417 0.90934 0.35056 0.0
H827 H 0.53404 0.92651 0.33118 0.0
H828 H 0.70216 0.89297 0.35769 0.0
H829 H 0.66206 0.93266 0.35001 0.0
H830 H 0.54654 0.9335 0.36697 0.0
C831 C 0.42589 0.93099 0.34406 0.0
C832 C 0.53725 0.92913 0.33898 0.0
C833 C 0.39099 0.93928 0.34001 0.0
C834 C 0.66688 0.88469 0.36019 0.0
C835 C 0.64386 0.90704 0.35577 0.0
C836 C 0.54446 0.93223 0.35915 0.0
C837 C 0.47152 0.95015 0.33979 0.0
C838 C 0.50869 0.94222 0.34446 0.0
C839 C 0.59748 0.8959 0.35871 0.0
C840 C 0.57096 0.91651 0.35373 0.0
H841 H 0.45444 0.00658 0.3206 0.0
H842 H 0.51572 0.99178 0.3277 0.0
H843 H 0.49322 0.95615 0.35898 0.0
H844 H 0.57891 0.81374 0.37619 0.0
H845 H 0.5391 0.85291 0.36861 0.0
C846 C 0.7963 0.58094 0.52351 0.0
C847 C 0.81322 0.62589 0.52797 0.0
C848 C 0.75095 0.55723 0.51917 0.0
C849 C 0.63335 0.55111 0.52018 0.0
H850 H 0.60768 0.47634 0.49669 0.0
C851 C 0.44785 0.4622 0.5018 0.0
C852 C 0.42933 0.41537 0.49815 0.0
C853 C 0.49536 0.48857 0.50497 0.0
C854 C 0.61418 0.49665 0.50331 0.0
H855 H 0.79604 0.68171 0.5311 0.0
H856 H 0.71727 0.64076 0.52337 0.0
H857 H 0.68989 0.52259 0.50275 0.0
H858 H 0.44676 0.35982 0.49496 0.0
H859 H 0.52991 0.4059 0.50056 0.0
H860 H 0.55777 0.52502 0.52081 0.0
C861 C 0.73888 0.62353 0.52335 0.0
C862 C 0.66132 0.52324 0.50677 0.0
C863 C 0.78432 0.64732 0.52768 0.0
C864 C 0.4599 0.39586 0.49766 0.0
C865 C 0.50759 0.42233 0.50085 0.0
C866 C 0.58631 0.52457 0.51673 0.0
C867 C 0.7213 0.57782 0.51918 0.0
C868 C 0.67149 0.55078 0.51526 0.0
C869 C 0.5258 0.46894 0.50461 0.0
C870 C 0.57607 0.49697 0.50825 0.0
H871 H 0.81788 0.56368 0.5235 0.0
H872 H 0.73852 0.52198 0.5161 0.0
H873 H 0.63965 0.57107 0.52684 0.0
H874 H 0.42591 0.47898 0.50207 0.0
H875 H 0.5084 0.5247 0.50762 0.0
C876 C 0.02877 0.46268 0.66002 0.0
C877 C 0.04764 0.43546 0.66409 0.0
C878 C 0.04197 0.50829 0.66369 0.0
C879 C 0.13705 0.60693 0.67796 0.0
H880 H 0.03987 0.63995 0.6847 0.0
C881 C 0.17863 0.75583 0.70483 0.0
C882 C 0.16695 0.79096 0.70221 0.0
C883 C 0.16011 0.71305 0.69967 0.0
C884 C 0.06739 0.6314 0.68275 0.0
H885 H 0.09619 0.43531 0.67494 0.0
H886 H 0.11884 0.51411 0.68135 0.0
H887 H 0.01676 0.56502 0.67598 0.0
H888 H 0.12427 0.8077 0.69255 0.0
H889 H 0.09133 0.73203 0.68347 0.0
H890 H 0.1875 0.67238 0.68486 0.0
C891 C 0.09396 0.50052 0.67533 0.0
C892 C 0.05424 0.58867 0.67774 0.0
C893 C 0.08058 0.4551 0.67173 0.0
C894 C 0.13373 0.78108 0.69472 0.0
C895 C 0.11506 0.73796 0.68952 0.0
C896 C 0.15009 0.64931 0.68296 0.0
C897 C 0.07474 0.52762 0.67139 0.0
C898 C 0.08884 0.57547 0.67553 0.0
C899 C 0.12945 0.70431 0.69176 0.0
C900 C 0.11528 0.6614 0.68564 0.0
H901 H 1.00308 0.44832 0.65416 0.0
H902 H 0.02676 0.52849 0.66049 0.0
H903 H 0.16469 0.5983 0.67617 0.0
H904 H 0.20347 0.76217 0.71069 0.0
H905 H 0.17082 0.68721 0.70173 0.0
C906 C 0.42927 0.17754 0.87239 0.0
C907 C 0.3822 0.16559 0.86994 0.0
C908 C 0.45331 0.15908 0.86713 0.0
C909 C 0.44231 0.06667 0.85016 0.0
H910 H 0.57103 0.16556 0.84295 0.0
C911 C 0.57327 0.03021 0.82709 0.0
C912 C 0.61964 0.05017 0.83105 0.0
C913 C 0.54035 0.04276 0.83078 0.0
C914 C 0.53522 0.13748 0.84492 0.0
H915 H 0.32207 0.12241 0.8605 0.0
H916 H 0.36442 0.08951 0.85122 0.0
H917 H 0.51949 0.1873 0.85188 0.0
H918 H 0.66836 0.10004 0.84172 0.0
H919 H 0.61142 0.12166 0.84814 0.0
H920 H 0.4589 0.01668 0.84334 0.0
C921 C 0.38257 0.11342 0.85722 0.0
C922 C 0.50573 0.14991 0.85005 0.0
C923 C 0.35835 0.13205 0.86254 0.0
C924 C 0.63276 0.08363 0.83859 0.0
C925 C 0.60024 0.09639 0.8422 0.0
C926 C 0.47207 0.05412 0.84502 0.0
C927 C 0.43089 0.12822 0.85927 0.0
C928 C 0.4595 0.11455 0.85297 0.0
C929 C 0.5536 0.076 0.83839 0.0
C930 C 0.51932 0.08933 0.84259 0.0
H931 H 0.44819 0.2027 0.87818 0.0
H932 H 0.49011 0.17012 0.86903 0.0
H933 H 0.40674 0.03875 0.8523 0.0
H934 H 0.56212 1.00409 0.82131 0.0
H935 H 0.50469 0.02664 0.82767 0.0
C936 C 0.66271 0.76374 0.82571 0.0
C937 C 0.66403 0.80357 0.8302 0.0
C938 C 0.6415 0.71922 0.83042 0.0
C939 C 0.5962 0.65814 0.85408 0.0
H940 H 0.50093 0.5547 0.83833 0.0
C941 C 0.43951 0.4829 0.87022 0.0
C942 C 0.42229 0.4405 0.86482 0.0
C943 C 0.47577 0.52664 0.86647 0.0
C944 C 0.52797 0.58274 0.84282 0.0
H945 H 0.64748 0.82902 0.84335 0.0
H946 H 0.61048 0.75146 0.85154 0.0
H947 H 0.55444 0.63186 0.83095 0.0
H948 H 0.43173 0.40969 0.85167 0.0
H949 H 0.49569 0.48526 0.84525 0.0
H950 H 0.56917 0.60896 0.866 0.0
C951 C 0.62567 0.75443 0.84441 0.0
C952 C 0.55872 0.62711 0.83857 0.0
C953 C 0.6465 0.79876 0.83969 0.0
C954 C 0.44366 0.4421 0.85587 0.0
C955 C 0.4802 0.48547 0.85219 0.0
C956 C 0.56559 0.6135 0.85834 0.0
C957 C 0.62164 0.71383 0.83972 0.0
C958 C 0.59278 0.66551 0.84415 0.0
C959 C 0.49586 0.52857 0.8573 0.0
C960 C 0.53068 0.57538 0.85278 0.0
H961 H 0.67579 0.76638 0.81839 0.0
H962 H 0.63936 0.68865 0.82666 0.0
H963 H 0.62234 0.68701 0.85856 0.0
H964 H 0.42344 0.48251 0.87713 0.0
H965 H 0.48661 0.5591 0.87059 0.0
C966 C 0.94755 0.39722 0.02301 0.0
C967 C 0.97438 0.40611 0.03155 0.0
C968 C 0.94015 0.43261 0.01894 0.0
C969 C 0.93687 0.54273 0.02354 0.0
H970 H 0.95409 0.55704 0.99573 0.0
C971 C 0.89441 0.67049 1.00117 0.0
C972 C 0.86438 0.64757 0.99322 0.0
C973 C 0.91673 0.64865 1.00606 0.0
C974 C 0.94919 0.55357 1.0035 0.0
H975 H 0.01254 0.45866 0.04277 0.0
H976 H 0.99882 0.52086 0.03565 0.0
H977 H 0.97431 0.50337 1.00434 0.0
H978 H 0.83594 0.58541 0.98384 0.0
H979 H 0.87491 0.5476 0.99226 0.0
H980 H 0.91012 0.59186 0.02261 0.0
C981 C 0.98396 0.48629 0.03211 0.0
C982 C 0.9607 0.52279 1.00842 0.0
C983 C 0.99163 0.45068 0.0362 0.0
C984 C 0.85881 0.60372 0.98997 0.0
C985 C 0.8814 0.58226 0.99477 0.0
C986 C 0.9252 0.5736 0.01859 0.0
C987 C 0.95915 0.4779 0.0233 0.0
C988 C 0.95321 0.51582 0.01845 0.0
C989 C 0.90994 0.60398 1.00296 0.0
C990 C 0.92983 0.57811 1.00846 0.0
H991 H 0.93263 0.36288 0.01939 0.0
H992 H 0.91968 0.42457 1.0123 0.0
H993 H 0.93075 0.53803 0.03127 0.0
H994 H 0.89898 0.70421 1.00383 0.0
H995 H 0.93874 0.66632 1.01232 0.0
C996 C 0.58182 0.01983 0.18706 0.0
C997 C 0.58467 1.00146 0.1961 0.0
C998 C 0.53773 0.01107 0.18341 0.0
C999 C 0.41087 0.97026 0.18962 0.0
H1000 H 0.38991 0.93196 0.16268 0.0
C1001 C 0.22333 0.87766 0.17129 0.0
C1002 C 0.22059 0.88705 0.16145 0.0
C1003 C 0.26779 0.89754 0.17597 0.0
C1004 C 0.39532 0.94342 0.17016 0.0
H1005 H 0.54364 0.96119 0.2086 0.0
H1006 H 0.46599 0.94539 0.20216 0.0
H1007 H 0.46679 0.95497 0.17012 0.0
H1008 H 0.26208 0.92719 0.14898 0.0
H1009 H 0.33962 0.96259 0.15717 0.0
H1010 H 0.33884 0.95802 0.18964 0.0
C1011 C 0.49814 0.96692 0.19793 0.0
C1012 C 0.43949 0.95653 0.17444 0.0
C1013 C 0.54255 0.9759 0.20162 0.0
C1014 C 0.26308 0.91878 0.15653 0.0
C1015 C 0.3075 0.93886 0.16122 0.0
C1016 C 0.36651 0.95718 0.18531 0.0
C1017 C 0.49515 0.9835 0.18867 0.0
C1018 C 0.44791 0.97015 0.18422 0.0
C1019 C 0.31056 0.92739 0.17093 0.0
C1020 C 0.3582 0.94356 0.17552 0.0
H1021 H 0.61377 0.04067 0.18274 0.0
H1022 H 0.53692 0.02543 0.17636 0.0
H1023 H 0.41634 0.98093 0.19715 0.0
H1024 H 0.19135 0.85282 0.17526 0.0
H1025 H 0.26874 0.88751 0.18341 0.0
C1026 C 0.56927 0.54286 0.36772 0.0
C1027 C 0.61486 0.56841 0.36336 0.0
C1028 C 0.53331 0.49985 0.36364 0.0
C1029 C 0.49933 0.43795 0.34013 0.0
H1030 H 0.42273 0.32081 0.35472 0.0
C1031 C 0.41347 0.25264 0.32271 0.0
C1032 C 0.36806 0.21633 0.32577 0.0
C1033 C 0.43601 0.29719 0.32728 0.0
C1034 C 0.44314 0.35349 0.35057 0.0
H1035 H 0.65933 0.56696 0.35172 0.0
H1036 H 0.59707 0.49274 0.34462 0.0
H1037 H 0.47763 0.39521 0.36324 0.0
H1038 H 0.3098 0.19824 0.33582 0.0
H1039 H 0.34961 0.27683 0.34396 0.0
H1040 H 0.4661 0.39641 0.32747 0.0
C1041 C 0.58856 0.50638 0.35104 0.0
C1042 C 0.47464 0.39601 0.35545 0.0
C1043 C 0.62429 0.54894 0.35511 0.0
C1044 C 0.34474 0.2259 0.33331 0.0
C1045 C 0.36765 0.27057 0.338 0.0
C1046 C 0.46795 0.39569 0.33529 0.0
C1047 C 0.54236 0.48188 0.35511 0.0
C1048 C 0.50418 0.43827 0.35024 0.0
C1049 C 0.41382 0.30648 0.33509 0.0
C1050 C 0.44062 0.35263 0.34041 0.0
H1051 H 0.56083 0.55699 0.37406 0.0
H1052 H 0.49804 0.48158 0.36695 0.0
H1053 H 0.52079 0.47025 0.33594 0.0
H1054 H 0.43215 0.24606 0.31691 0.0
H1055 H 0.47177 0.32375 0.32494 0.0
C1056 C 0.0771 0.57498 0.53802 0.0
C1057 C 0.04303 0.58795 0.53529 0.0
C1058 C 0.07715 0.53564 0.53377 0.0
C1059 C 0.04872 0.46943 0.51133 0.0
H1060 H 0.06819 0.37825 0.52621 0.0
C1061 C 0.08954 0.33416 0.49226 0.0
C1062 C 0.12607 0.32822 0.49646 0.0
C1063 C 0.06883 0.35689 0.49737 0.0
C1064 C 0.0631 0.40357 0.52192 0.0
H1065 H 0.98175 0.56964 0.52612 0.0
H1066 H 0.98247 0.50099 0.51842 0.0
H1067 H 0.05188 0.4355 0.53453 0.0
H1068 H 0.16873 0.34055 0.5094 0.0
H1069 H 0.13364 0.38079 0.51821 0.0
H1070 H 0.06267 0.43978 0.49875 0.0
C1071 C 1.00882 0.52118 0.52394 0.0
C1072 C 0.05347 0.43616 0.52671 0.0
C1073 C 1.00823 0.56014 0.52835 0.0
C1074 C 0.14007 0.34378 0.50601 0.0
C1075 C 0.11979 0.36692 0.51108 0.0
C1076 C 0.05902 0.43728 0.50654 0.0
C1077 C 0.04355 0.50879 0.52657 0.0
C1078 C 0.04717 0.47007 0.52147 0.0
C1079 C 0.08459 0.37475 0.50676 0.0
C1080 C 0.06746 0.4046 0.51178 0.0
H1081 H 0.10402 0.59561 0.54341 0.0
H1082 H 0.10459 0.52723 0.53588 0.0
H1083 H 0.04448 0.49549 0.50711 0.0
H1084 H 0.07775 0.3222 0.48494 0.0
H1085 H 0.04116 0.36133 0.49387 0.0
C1086 C 0.44419 1.00136 0.69022 0.0
C1087 C 0.44273 0.02413 0.69876 0.0
C1088 C 0.48762 0.00769 0.68669 0.0
C1089 C 0.61671 0.05513 0.69259 0.0
H1090 H 0.63171 0.07734 0.66491 0.0
C1091 C 0.79983 0.15743 0.67306 0.0
C1092 C 0.80384 0.14368 0.66362 0.0
C1093 C 0.75611 0.13396 0.67801 0.0
C1094 C 0.62794 0.07029 0.67261 0.0
H1095 H 0.48491 0.06943 0.7106 0.0
H1096 H 0.56178 0.08195 0.7043 0.0
H1097 H 0.55497 0.054 0.67243 0.0
H1098 H 0.76599 0.09264 0.65216 0.0
H1099 H 0.68941 0.05117 0.66084 0.0
H1100 H 0.6907 0.07337 0.69272 0.0
C1101 C 0.52914 0.0585 0.70039 0.0
C1102 C 0.58381 0.0569 0.67695 0.0
C1103 C 0.48529 0.05154 0.70399 0.0
C1104 C 0.76398 0.10397 0.65944 0.0
C1105 C 0.72007 0.08057 0.66437 0.0
C1106 C 0.6611 0.06881 0.68823 0.0
C1107 C 0.53091 0.03761 0.69155 0.0
C1108 C 0.57762 0.04946 0.687 0.0
C1109 C 0.71531 0.09625 0.6736 0.0
C1110 C 0.6673 0.07696 0.6782 0.0
H1111 H 0.41162 0.97916 0.68617 0.0
H1112 H 0.48734 0.98988 0.68003 0.0
H1113 H 0.61307 0.04916 0.70032 0.0
H1114 H 0.83017 0.18761 0.6765 0.0
H1115 H 0.75369 0.14715 0.68507 0.0
C1116 C 0.98803 0.57248 0.12887 0.0
C1117 C 0.97646 0.60877 0.12747 0.0
C1118 C 0.96817 0.53181 0.12298 0.0
C1119 C 0.92892 0.49797 0.09825 0.0
H1120 H 0.89842 0.37145 0.10719 0.0
C1121 C 0.92676 0.36061 0.07136 0.0
C1122 C 0.95411 0.34019 0.0745 0.0
C1123 C 0.91112 0.38292 0.078 0.0
C1124 C 0.90677 0.4065 0.10455 0.0
H1125 H 0.93392 0.63055 0.11903 0.0
H1126 H 0.89957 0.55934 0.10847 0.0
H1127 H 0.90496 0.4315 0.11882 0.0
H1128 H 0.98502 0.32515 0.08695 0.0
H1129 H 0.95768 0.36324 0.09853 0.0
H1130 H 0.93388 0.47433 0.08407 0.0
C1131 C 0.92364 0.56223 0.11425 0.0
C1132 C 0.91034 0.44087 0.11122 0.0
C1133 C 0.94289 0.60271 0.12032 0.0
C1134 C 0.96276 0.33946 0.08441 0.0
C1135 C 0.94715 0.36157 0.09104 0.0
C1136 C 0.92573 0.46372 0.09157 0.0
C1137 C 0.93692 0.52682 0.1154 0.0
C1138 C 0.92311 0.48755 0.1082 0.0
C1139 C 0.92294 0.38551 0.08789 0.0
C1140 C 0.91633 0.41804 0.09467 0.0
H1141 H 0.01405 0.57647 0.13431 0.0
H1142 H 0.97968 0.50566 0.12401 0.0
H1143 H 0.93926 0.53369 0.09568 0.0
H1144 H 0.92081 0.36274 0.06371 0.0
H1145 H 0.89206 0.40041 0.07532 0.0
C1146 C 0.57115 0.93198 0.23375 0.0
C1147 C 0.61722 0.95569 0.23787 0.0
C1148 C 0.53019 0.91435 0.23965 0.0
C1149 C 0.488 0.89114 0.26535 0.0
H1150 H 0.40439 0.93939 0.25728 0.0
C1151 C 0.3963 0.95509 0.29201 0.0
C1152 C 0.35251 0.95253 0.28975 0.0
C1153 C 0.41766 0.93782 0.2856 0.0
C1154 C 0.42644 0.92448 0.25959 0.0
H1155 H 0.65692 0.9783 0.25127 0.0
H1156 H 0.58596 0.94666 0.26157 0.0
H1157 H 0.46297 0.94035 0.24596 0.0
H1158 H 0.29568 0.92842 0.27915 0.0
H1159 H 0.33318 0.89791 0.26778 0.0
H1160 H 0.4529 0.87723 0.27912 0.0
C1161 C 0.58092 0.94093 0.25385 0.0
C1162 C 0.4602 0.92508 0.25307 0.0
C1163 C 0.62169 0.95896 0.24796 0.0
C1164 C 0.32903 0.92995 0.28113 0.0
C1165 C 0.35084 0.9131 0.2746 0.0
C1166 C 0.45419 0.89041 0.27185 0.0
C1167 C 0.53467 0.92005 0.24976 0.0
C1168 C 0.49265 0.91011 0.25599 0.0
C1169 C 0.39619 0.91815 0.27664 0.0
C1170 C 0.42423 0.90884 0.26918 0.0
H1171 H 0.56692 0.93023 0.22596 0.0
H1172 H 0.49514 0.89826 0.23627 0.0
H1173 H 0.51181 0.87853 0.26779 0.0
H1174 H 0.41559 0.97308 0.29852 0.0
H1175 H 0.45278 0.94312 0.2874 0.0
C1176 C 0.40921 0.34483 0.45262 0.0
C1177 C 0.40284 0.37213 0.45978 0.0
C1178 C 0.44963 0.36635 0.44652 0.0
C1179 C 0.57073 0.4751 0.44359 0.0
H1180 H 0.53929 0.46374 0.41632 0.0
C1181 C 0.67274 0.62793 0.41655 0.0
C1182 C 0.67413 0.61803 0.40673 0.0
C1183 C 0.64997 0.59058 0.42325 0.0
C1184 C 0.54929 0.46662 0.42387 0.0
H1185 H 0.43478 0.442 0.4666 0.0
H1186 H 0.50522 0.47898 0.45621 0.0
H1187 H 0.47925 0.40984 0.42789 0.0
H1188 H 0.65436 0.56167 0.39617 0.0
H1189 H 0.61517 0.49588 0.40791 0.0
H1190 H 0.64013 0.53303 0.43964 0.0
C1191 C 0.47934 0.44127 0.45519 0.0
C1192 C 0.51469 0.43562 0.43052 0.0
C1193 C 0.43878 0.42015 0.46113 0.0
C1194 C 0.65485 0.57015 0.40377 0.0
C1195 C 0.63173 0.53256 0.41047 0.0
C1196 C 0.60539 0.5059 0.43695 0.0
C1197 C 0.48473 0.41515 0.44763 0.0
C1198 C 0.52438 0.44072 0.44049 0.0
C1199 C 0.62736 0.54229 0.42024 0.0
C1200 C 0.59455 0.50335 0.42703 0.0
H1201 H 0.38177 0.30783 0.4514 0.0
H1202 H 0.45285 0.34524 0.44077 0.0
H1203 H 0.57961 0.47946 0.45121 0.0
H1204 H 0.68619 0.66456 0.41894 0.0
H1205 H 0.64687 0.59973 0.43064 0.0
C1206 C 0.03948 0.67388 0.58635 0.0
C1207 C 0.05402 0.68402 0.57666 0.0
C1208 C 0.05637 0.6502 0.59226 0.0
C1209 C 0.09048 0.55856 0.59022 0.0
H1210 H 0.10955 0.57836 0.61787 0.0
C1211 C 0.07602 0.40853 0.61609 0.0
C1212 C 0.04366 0.40013 0.62368 0.0
C1213 C 0.09412 0.45084 0.61052 0.0
C1214 C 0.10458 0.57236 0.61014 0.0
H1215 H 0.0988 0.67874 0.56559 0.0
H1216 H 0.12819 0.63666 0.57593 0.0
H1217 H 0.11164 0.64145 0.6077 0.0
H1218 H 1.00681 0.43011 0.63168 0.0
H1219 H 0.03871 0.50317 0.62229 0.0
H1220 H 0.08045 0.48825 0.59276 0.0
C1221 C 0.1042 0.64772 0.57899 0.0
C1222 C 0.10583 0.60858 0.60432 0.0
C1223 C 0.08796 0.6724 0.57311 0.0
C1224 C 0.03196 0.43567 0.62592 0.0
C1225 C 0.0505 0.47785 0.62054 0.0
C1226 C 0.08899 0.52212 0.59607 0.0
C1227 C 0.0874 0.63505 0.58855 0.0
C1228 C 0.0969 0.60143 0.59434 0.0
C1229 C 0.08087 0.48566 0.61261 0.0
C1230 C 0.09399 0.52782 0.60616 0.0
H1231 H 0.01259 0.68156 0.58918 0.0
H1232 H 0.04218 0.64058 0.59953 0.0
H1233 H 0.08314 0.55169 0.58256 0.0
H1234 H 0.08514 0.38142 0.61414 0.0
H1235 H 0.11749 0.45579 0.60445 0.0
C1236 C 0.44521 0.08941 0.73563 0.0
C1237 C 0.39902 0.065 0.7397 0.0
C1238 C 0.48604 0.10579 0.74151 0.0
C1239 C 0.5271 0.12146 0.76733 0.0
H1240 H 0.61092 0.07569 0.75802 0.0
C1241 C 0.6153 0.04649 0.79225 0.0
C1242 C 0.66051 0.05207 0.79009 0.0
C1243 C 0.59419 0.06536 0.78617 0.0
C1244 C 0.58874 0.08982 0.76068 0.0
H1245 H 0.35908 0.04019 0.75305 0.0
H1246 H 0.42967 0.06956 0.76334 0.0
H1247 H 0.55325 0.07888 0.74704 0.0
H1248 H 0.71981 0.08283 0.77998 0.0
H1249 H 0.68235 0.11566 0.76912 0.0
H1250 H 0.56091 0.12994 0.78111 0.0
C1251 C 0.43499 0.07688 0.75566 0.0
C1252 C 0.55554 0.09168 0.75437 0.0
C1253 C 0.39437 0.0602 0.74978 0.0
C1254 C 0.68526 0.07876 0.78188 0.0
C1255 C 0.66359 0.09706 0.77564 0.0
C1256 C 0.5602 0.11954 0.77364 0.0
C1257 C 0.48132 0.09804 0.75159 0.0
C1258 C 0.52301 0.10579 0.7577 0.0
C1259 C 0.61726 0.08964 0.77763 0.0
C1260 C 0.59017 0.10194 0.77049 0.0
H1261 H 0.44965 0.09226 0.72784 0.0
H1262 H 0.52112 0.12225 0.73813 0.0
H1263 H 0.50332 0.13341 0.77012 0.0
H1264 H 0.59508 0.0255 0.79845 0.0
H1265 H 0.55829 0.05819 0.78788 0.0
C1266 C 0.62557 0.67361 0.9452 0.0
C1267 C 0.62224 0.67537 0.95528 0.0
C1268 C 0.58411 0.65063 0.93951 0.0
C1269 C 0.46437 0.54749 0.94114 0.0
H1270 H 0.45007 0.58514 0.91528 0.0
C1271 C 0.32993 0.40564 0.91464 0.0
C1272 C 0.3496 0.40767 0.90548 0.0
C1273 C 0.35221 0.44517 0.92094 0.0
C1274 C 0.45343 0.57387 0.92248 0.0
H1275 H 0.5731 0.65591 0.96735 0.0
H1276 H 0.50023 0.61491 0.95742 0.0
H1277 H 0.5115 0.64406 0.92601 0.0
H1278 H 0.40633 0.4529 0.89554 0.0
H1279 H 0.44485 0.52115 0.90631 0.0
H1280 H 0.40889 0.47663 0.93745 0.0
C1281 C 0.53498 0.63204 0.95389 0.0
C1282 C 0.48855 0.60783 0.92864 0.0
C1283 C 0.57664 0.65598 0.95956 0.0
C1284 C 0.38977 0.45072 0.90248 0.0
C1285 C 0.41195 0.49002 0.90871 0.0
C1286 C 0.42965 0.51335 0.93493 0.0
C1287 C 0.53832 0.62776 0.94382 0.0
C1288 C 0.49541 0.5947 0.93795 0.0
C1289 C 0.39476 0.48728 0.91819 0.0
C1290 C 0.42473 0.5256 0.92538 0.0
H1291 H 0.66032 0.68724 0.94176 0.0
H1292 H 0.58807 0.64756 0.93181 0.0
H1293 H 0.46901 0.53601 0.94822 0.0
H1294 H 0.29962 0.37244 0.91721 0.0
H1295 H 0.33743 0.44183 0.92812 0.0
loop_
_geom_bond_atom_site_label_1
_geom_bond_atom_site_label_2
_geom_bond_distance
_geom_bond_site_symmetry_2
_ccdc_geom_bond_type
C0 C1 1.351 . S
C0 N3 1.368 . S
C0 H5 0.931 . S
C1 C0 1.351 . S
C1 N2 1.373 . S
C1 H29 0.930 . S
N2 C1 1.373 . S
N2 C4 1.340 . S
N3 C0 1.368 . S
N3 C4 1.321 . S
N3 Co6 2.135 . S
C4 N2 1.340 . S
C4 N3 1.321 . S
C4 H28 0.930 . S
H5 C0 0.931 . S
Co6 N3 2.135 . S
Co6 N9 2.121 1_455 S
Co6 O14 2.055 1_455 S
Co6 O17 2.039 1_455 S
Co6 N20 2.140 . S
C7 O8 1.227 1_655 S
C7 O17 1.265 . S
O8 C7 1.227 1_455 S
N9 Co6 2.121 1_655 S
N9 C11 1.375 . S
N9 C12 1.313 . S
C10 C11 1.338 . S
C10 N13 1.377 . S
C10 H30 0.930 . S
C11 N9 1.375 . S
C11 C10 1.338 . S
C11 H15 0.931 . S
C12 N9 1.313 . S
C12 N13 1.344 . S
C12 H16 0.930 . S
N13 C10 1.377 . S
N13 C12 1.344 . S
O14 Co6 2.055 1_655 S
O14 C18 1.253 1_655 S
H15 C11 0.931 . S
H16 C12 0.930 . S
O17 Co6 2.039 1_655 S
O17 C7 1.265 . S
C18 O14 1.253 1_455 S
C18 O19 1.227 . S
O19 C18 1.227 . S
N20 Co6 2.140 . S
N20 C23 1.346 . S
N20 C24 1.345 . S
C21 C22 1.387 . S
C21 C25 1.391 . S
C22 C21 1.387 . S
C22 C23 1.369 . S
C22 H31 0.929 . S
C23 N20 1.346 . S
C23 C22 1.369 . S
C23 H26 0.928 . S
C24 N20 1.345 . S
C24 C25 1.371 . S
C24 H27 0.931 . S
C25 C21 1.391 . S
C25 C24 1.371 . S
C25 H32 0.930 . S
H26 C23 0.928 . S
H27 C24 0.931 . S
H28 C4 0.930 . S
H29 C1 0.930 . S
H30 C10 0.930 . S
H31 C22 0.929 . S
H32 C25 0.930 . S
C33 C34 1.351 . S
C33 N36 1.368 . S
C33 H38 0.931 . S
C34 C33 1.351 . S
C34 N35 1.373 . S
C34 H62 0.930 . S
N35 C34 1.373 . S
N35 C37 1.340 . S
N36 C33 1.368 . S
N36 C37 1.321 . S
N36 Co39 2.135 . S
C37 N35 1.340 . S
C37 N36 1.321 . S
C37 H61 0.930 . S
H38 C33 0.931 . S
Co39 N36 2.135 . S
Co39 N42 2.121 1_545 S
Co39 O47 2.055 1_545 S
Co39 O50 2.039 1_545 S
Co39 N53 2.140 . S
C40 O41 1.227 1_565 S
C40 O50 1.265 . S
O41 C40 1.227 1_545 S
N42 Co39 2.121 1_565 S
N42 C44 1.375 . S
N42 C45 1.313 . S
C43 C44 1.338 . S
C43 N46 1.377 . S
C43 H63 0.930 . S
C44 N42 1.375 . S
C44 C43 1.338 . S
C44 H48 0.931 . S
C45 N42 1.313 . S
C45 N46 1.344 . S
C45 H49 0.930 . S
N46 C43 1.377 . S
N46 C45 1.344 . S
O47 Co39 2.055 1_565 S
O47 C51 1.253 1_565 S
H48 C44 0.931 . S
H49 C45 0.930 . S
O50 Co39 2.039 1_565 S
O50 C40 1.265 . S
C51 O47 1.253 1_545 S
C51 O52 1.227 . S
O52 C51 1.227 . S
N53 Co39 2.140 . S
N53 C56 1.346 . S
N53 C57 1.345 . S
C54 C55 1.387 . S
C54 C58 1.391 . S
C55 C54 1.387 . S
C55 C56 1.369 . S
C55 H64 0.929 . S
C56 N53 1.346 . S
C56 C55 1.369 . S
C56 H59 0.928 . S
C57 N53 1.345 . S
C57 C58 1.371 . S
C57 H60 0.931 . S
C58 C54 1.391 . S
C58 C57 1.371 . S
C58 H65 0.930 . S
H59 C56 0.928 . S
H60 C57 0.931 . S
H61 C37 0.930 . S
H62 C34 0.930 . S
H63 C43 0.930 . S
H64 C55 0.929 . S
H65 C58 0.930 . S
C66 C67 1.351 . S
C66 N69 1.368 . S
C66 H71 0.931 . S
C67 C66 1.351 . S
C67 N68 1.373 . S
C67 H95 0.930 . S
N68 C67 1.373 . S
N68 C70 1.340 . S
N69 C66 1.368 . S
N69 C70 1.321 . S
N69 Co72 2.135 . S
C70 N68 1.340 . S
C70 N69 1.321 . S
C70 H94 0.930 . S
H71 C66 0.931 . S
Co72 N69 2.135 . S
Co72 N75 2.121 . S
Co72 O80 2.055 . S
Co72 O83 2.039 . S
Co72 N86 2.140 . S
C73 O74 1.227 . S
C73 O83 1.265 . S
O74 C73 1.227 . S
N75 Co72 2.121 . S
N75 C77 1.375 . S
N75 C78 1.313 . S
C76 C77 1.338 . S
C76 N79 1.377 . S
C76 H96 0.930 . S
C77 N75 1.375 . S
C77 C76 1.338 . S
C77 H81 0.931 . S
C78 N75 1.313 . S
C78 N79 1.344 . S
C78 H82 0.930 . S
N79 C76 1.377 . S
N79 C78 1.344 . S
O80 Co72 2.055 . S
O80 C84 1.253 . S
H81 C77 0.931 . S
H82 C78 0.930 . S
O83 Co72 2.039 . S
O83 C73 1.265 . S
C84 O80 1.253 . S
C84 O85 1.227 . S
O85 C84 1.227 . S
N86 Co72 2.140 . S
N86 C89 1.346 . S
N86 C90 1.345 . S
C87 C88 1.387 . S
C87 C91 1.391 . S
C88 C87 1.387 . S
C88 C89 1.369 . S
C88 H97 0.929 . S
C89 N86 1.346 . S
C89 C88 1.369 . S
C89 H92 0.928 . S
C90 N86 1.345 . S
C90 C91 1.371 . S
C90 H93 0.931 . S
C91 C87 1.391 . S
C91 C90 1.371 . S
C91 H98 0.930 . S
H92 C89 0.928 . S
H93 C90 0.931 . S
H94 C70 0.930 . S
H95 C67 0.930 . S
H96 C76 0.930 . S
H97 C88 0.929 . S
H98 C91 0.930 . S
C99 C100 1.351 . S
C99 N102 1.368 . S
C99 H104 0.931 . S
C100 C99 1.351 . S
C100 N101 1.373 . S
C100 H128 0.930 . S
N101 C100 1.373 . S
N101 C103 1.340 . S
N102 C99 1.368 . S
N102 C103 1.321 . S
N102 Co105 2.135 . S
C103 N101 1.340 . S
C103 N102 1.321 . S
C103 H127 0.930 . S
H104 C99 0.931 . S
Co105 N102 2.135 . S
Co105 N108 2.121 1_655 S
Co105 O113 2.055 1_655 S
Co105 O116 2.039 1_655 S
Co105 N119 2.140 . S
C106 O107 1.227 1_455 S
C106 O116 1.265 . S
O107 C106 1.227 1_655 S
N108 Co105 2.121 1_455 S
N108 C110 1.375 . S
N108 C111 1.313 . S
C109 C110 1.338 . S
C109 N112 1.377 . S
C109 H129 0.930 . S
C110 N108 1.375 . S
C110 C109 1.338 . S
C110 H114 0.931 . S
C111 N108 1.313 . S
C111 N112 1.344 . S
C111 H115 0.930 . S
N112 C109 1.377 . S
N112 C111 1.344 . S
O113 Co105 2.055 1_455 S
O113 C117 1.253 1_455 S
H114 C110 0.931 . S
H115 C111 0.930 . S
O116 Co105 2.039 1_455 S
O116 C106 1.265 . S
C117 O113 1.253 1_655 S
C117 O118 1.227 . S
O118 C117 1.227 . S
N119 Co105 2.140 . S
N119 C122 1.346 . S
N119 C123 1.345 . S
C120 C121 1.387 . S
C120 C124 1.391 . S
C121 C120 1.387 . S
C121 C122 1.369 . S
C121 H130 0.929 . S
C122 N119 1.346 . S
C122 C121 1.369 . S
C122 H125 0.928 . S
C123 N119 1.345 . S
C123 C124 1.371 . S
C123 H126 0.931 . S
C124 C120 1.391 . S
C124 C123 1.371 . S
C124 H131 0.930 . S
H125 C122 0.928 . S
H126 C123 0.931 . S
H127 C103 0.930 . S
H128 C100 0.930 . S
H129 C109 0.930 . S
H130 C121 0.929 . S
H131 C124 0.930 . S
C132 C133 1.351 . S
C132 N135 1.368 . S
C132 H137 0.931 . S
C133 C132 1.351 . S
C133 N134 1.373 . S
C133 H161 0.930 . S
N134 C133 1.373 . S
N134 C136 1.340 . S
N135 C132 1.368 . S
N135 C136 1.321 . S
N135 Co138 2.135 . S
C136 N134 1.340 . S
C136 N135 1.321 . S
C136 H160 0.930 . S
H137 C132 0.931 . S
Co138 N135 2.135 . S
Co138 N141 2.121 1_565 S
Co138 O146 2.055 1_565 S
Co138 O149 2.039 1_565 S
Co138 N152 2.140 . S
C139 O140 1.227 1_545 S
C139 O149 1.265 . S
O140 C139 1.227 1_565 S
N141 Co138 2.121 1_545 S
N141 C143 1.375 . S
N141 C144 1.313 . S
C142 C143 1.338 . S
C142 N145 1.377 . S
C142 H162 0.930 . S
C143 N141 1.375 . S
C143 C142 1.338 . S
C143 H147 0.931 . S
C144 N141 1.313 . S
C144 N145 1.344 . S
C144 H148 0.930 . S
N145 C142 1.377 . S
N145 C144 1.344 . S
O146 Co138 2.055 1_545 S
O146 C150 1.253 1_545 S
H147 C143 0.931 . S
H148 C144 0.930 . S
O149 Co138 2.039 1_545 S
O149 C139 1.265 . S
C150 O146 1.253 1_565 S
C150 O151 1.227 . S
O151 C150 1.227 . S
N152 Co138 2.140 . S
N152 C155 1.346 . S
N152 C156 1.345 . S
C153 C154 1.387 . S
C153 C157 1.391 . S
C154 C153 1.387 . S
C154 C155 1.369 . S
C154 H163 0.929 . S
C155 N152 1.346 . S
C155 C154 1.369 . S
C155 H158 0.928 . S
C156 N152 1.345 . S
C156 C157 1.371 . S
C156 H159 0.931 . S
C157 C153 1.391 . S
C157 C156 1.371 . S
C157 H164 0.930 . S
H158 C155 0.928 . S
H159 C156 0.931 . S
H160 C136 0.930 . S
H161 C133 0.930 . S
H162 C142 0.930 . S
H163 C154 0.929 . S
H164 C157 0.930 . S
C165 C166 1.351 . S
C165 N168 1.368 . S
C165 H170 0.931 . S
C166 C165 1.351 . S
C166 N167 1.373 . S
C166 H194 0.930 . S
N167 C166 1.373 . S
N167 C169 1.340 . S
N168 C165 1.368 . S
N168 C169 1.321 . S
N168 Co171 2.135 . S
C169 N167 1.340 . S
C169 N168 1.321 . S
C169 H193 0.930 . S
H170 C165 0.931 . S
Co171 N168 2.135 . S
Co171 N174 2.121 . S
Co171 O179 2.055 . S
Co171 O182 2.039 . S
Co171 N185 2.140 . S
C172 O173 1.227 . S
C172 O182 1.265 . S
O173 C172 1.227 . S
N174 Co171 2.121 . S
N174 C176 1.375 . S
N174 C177 1.313 . S
C175 C176 1.338 . S
C175 N178 1.377 . S
C175 H195 0.930 . S
C176 N174 1.375 . S
C176 C175 1.338 . S
C176 H180 0.931 . S
C177 N174 1.313 . S
C177 N178 1.344 . S
C177 H181 0.930 . S
N178 C175 1.377 . S
N178 C177 1.344 . S
O179 Co171 2.055 . S
O179 C183 1.253 . S
H180 C176 0.931 . S
H181 C177 0.930 . S
O182 Co171 2.039 . S
O182 C172 1.265 . S
C183 O179 1.253 . S
C183 O184 1.227 . S
O184 C183 1.227 . S
N185 Co171 2.140 . S
N185 C188 1.346 . S
N185 C189 1.345 . S
C186 C187 1.387 . S
C186 C190 1.391 . S
C187 C186 1.387 . S
C187 C188 1.369 . S
C187 H196 0.929 . S
C188 N185 1.346 . S
C188 C187 1.369 . S
C188 H191 0.928 . S
C189 N185 1.345 . S
C189 C190 1.371 . S
C189 H192 0.931 . S
C190 C186 1.391 . S
C190 C189 1.371 . S
C190 H197 0.930 . S
H191 C188 0.928 . S
H192 C189 0.931 . S
H193 C169 0.930 . S
H194 C166 0.930 . S
H195 C175 0.930 . S
H196 C187 0.929 . S
H197 C190 0.930 . S
C198 C199 1.351 . S
C198 N201 1.368 . S
C198 H203 0.931 . S
C199 C198 1.351 . S
C199 N200 1.373 . S
C199 H227 0.930 . S
N200 C199 1.373 . S
N200 C202 1.340 . S
N201 C198 1.368 . S
N201 C202 1.321 . S
N201 Co204 2.135 . S
C202 N200 1.340 . S
C202 N201 1.321 . S
C202 H226 0.930 . S
H203 C198 0.931 . S
Co204 N201 2.135 . S
Co204 N207 2.121 1_565 S
Co204 O212 2.055 1_565 S
Co204 O215 2.039 1_565 S
Co204 N218 2.140 . S
C205 O206 1.227 1_545 S
C205 O215 1.265 . S
O206 C205 1.227 1_565 S
N207 Co204 2.121 1_545 S
N207 C209 1.375 . S
N207 C210 1.313 . S
C208 C209 1.338 . S
C208 N211 1.377 . S
C208 H228 0.930 . S
C209 N207 1.375 . S
C209 C208 1.338 . S
C209 H213 0.931 . S
C210 N207 1.313 . S
C210 N211 1.344 . S
C210 H214 0.930 . S
N211 C208 1.377 . S
N211 C210 1.344 . S
O212 Co204 2.055 1_545 S
O212 C216 1.253 1_545 S
H213 C209 0.931 . S
H214 C210 0.930 . S
O215 Co204 2.039 1_545 S
O215 C205 1.265 . S
C216 O212 1.253 1_565 S
C216 O217 1.227 . S
O217 C216 1.227 . S
N218 Co204 2.140 . S
N218 C221 1.346 . S
N218 C222 1.345 . S
C219 C220 1.387 . S
C219 C223 1.391 . S
C220 C219 1.387 . S
C220 C221 1.369 . S
C220 H229 0.929 . S
C221 N218 1.346 . S
C221 C220 1.369 . S
C221 H224 0.928 . S
C222 N218 1.345 . S
C222 C223 1.371 . S
C222 H225 0.931 . S
C223 C219 1.391 . S
C223 C222 1.371 . S
C223 H230 0.930 . S
H224 C221 0.928 . S
H225 C222 0.931 . S
H226 C202 0.930 . S
H227 C199 0.930 . S
H228 C208 0.930 . S
H229 C220 0.929 . S
H230 C223 0.930 . S
C231 C232 1.351 . S
C231 N234 1.368 . S
C231 H236 0.931 . S
C232 C231 1.351 . S
C232 N233 1.373 . S
C232 H260 0.930 . S
N233 C232 1.373 . S
N233 C235 1.340 . S
N234 C231 1.368 . S
N234 C235 1.321 . S
N234 Co237 2.135 . S
C235 N233 1.340 . S
C235 N234 1.321 . S
C235 H259 0.930 . S
H236 C231 0.931 . S
Co237 N234 2.135 . S
Co237 N240 2.121 . S
Co237 O245 2.055 . S
Co237 O248 2.039 . S
Co237 N251 2.140 . S
C238 O239 1.227 . S
C238 O248 1.265 . S
O239 C238 1.227 . S
N240 Co237 2.121 . S
N240 C242 1.375 . S
N240 C243 1.313 . S
C241 C242 1.338 . S
C241 N244 1.377 . S
C241 H261 0.930 . S
C242 N240 1.375 . S
C242 C241 1.338 . S
C242 H246 0.931 . S
C243 N240 1.313 . S
C243 N244 1.344 . S
C243 H247 0.930 . S
N244 C241 1.377 . S
N244 C243 1.344 . S
O245 Co237 2.055 . S
O245 C249 1.253 . S
H246 C242 0.931 . S
H247 C243 0.930 . S
O248 Co237 2.039 . S
O248 C238 1.265 . S
C249 O245 1.253 . S
C249 O250 1.227 . S
O250 C249 1.227 . S
N251 Co237 2.140 . S
N251 C254 1.346 . S
N251 C255 1.345 . S
C252 C253 1.387 . S
C252 C256 1.391 . S
C253 C252 1.387 . S
C253 C254 1.369 . S
C253 H262 0.929 . S
C254 N251 1.346 . S
C254 C253 1.369 . S
C254 H257 0.928 . S
C255 N251 1.345 . S
C255 C256 1.371 . S
C255 H258 0.931 . S
C256 C252 1.391 . S
C256 C255 1.371 . S
C256 H263 0.930 . S
H257 C254 0.928 . S
H258 C255 0.931 . S
H259 C235 0.930 . S
H260 C232 0.930 . S
H261 C241 0.930 . S
H262 C253 0.929 . S
H263 C256 0.930 . S
C264 C265 1.351 . S
C264 N267 1.368 . S
C264 H269 0.931 . S
C265 C264 1.351 . S
C265 N266 1.373 . S
C265 H293 0.930 . S
N266 C265 1.373 . S
N266 C268 1.340 . S
N267 C264 1.368 . S
N267 C268 1.321 . S
N267 Co270 2.135 . S
C268 N266 1.340 . S
C268 N267 1.321 . S
C268 H292 0.930 . S
H269 C264 0.931 . S
Co270 N267 2.135 . S
Co270 N273 2.121 1_455 S
Co270 O278 2.055 1_455 S
Co270 O281 2.039 1_455 S
Co270 N284 2.140 . S
C271 O272 1.227 1_655 S
C271 O281 1.265 . S
O272 C271 1.227 1_455 S
N273 Co270 2.121 1_655 S
N273 C275 1.375 . S
N273 C276 1.313 . S
C274 C275 1.338 . S
C274 N277 1.377 . S
C274 H294 0.930 . S
C275 N273 1.375 . S
C275 C274 1.338 . S
C275 H279 0.931 . S
C276 N273 1.313 . S
C276 N277 1.344 . S
C276 H280 0.930 . S
N277 C274 1.377 . S
N277 C276 1.344 . S
O278 Co270 2.055 1_655 S
O278 C282 1.253 1_655 S
H279 C275 0.931 . S
H280 C276 0.930 . S
O281 Co270 2.039 1_655 S
O281 C271 1.265 . S
C282 O278 1.253 1_455 S
C282 O283 1.227 . S
O283 C282 1.227 . S
N284 Co270 2.140 . S
N284 C287 1.346 . S
N284 C288 1.345 . S
C285 C286 1.387 . S
C285 C289 1.391 . S
C286 C285 1.387 . S
C286 C287 1.369 . S
C286 H295 0.929 . S
C287 N284 1.346 . S
C287 C286 1.369 . S
C287 H290 0.928 . S
C288 N284 1.345 . S
C288 C289 1.371 . S
C288 H291 0.931 . S
C289 C285 1.391 . S
C289 C288 1.371 . S
C289 H296 0.930 . S
H290 C287 0.928 . S
H291 C288 0.931 . S
H292 C268 0.930 . S
H293 C265 0.930 . S
H294 C274 0.930 . S
H295 C286 0.929 . S
H296 C289 0.930 . S
C297 C298 1.351 . S
C297 N300 1.368 . S
C297 H302 0.931 . S
C298 C297 1.351 . S
C298 N299 1.373 . S
C298 H326 0.930 . S
N299 C298 1.373 . S
N299 C301 1.340 . S
N300 C297 1.368 . S
N300 C301 1.321 . S
N300 Co303 2.135 . S
C301 N299 1.340 . S
C301 N300 1.321 . S
C301 H325 0.930 . S
H302 C297 0.931 . S
Co303 N300 2.135 . S
Co303 N306 2.121 1_545 S
Co303 O311 2.055 1_545 S
Co303 O314 2.039 1_545 S
Co303 N317 2.140 . S
C304 O305 1.227 1_565 S
C304 O314 1.265 . S
O305 C304 1.227 1_545 S
N306 Co303 2.121 1_565 S
N306 C308 1.375 . S
N306 C309 1.313 . S
C307 C308 1.338 . S
C307 N310 1.377 . S
C307 H327 0.930 . S
C308 N306 1.375 . S
C308 C307 1.338 . S
C308 H312 0.931 . S
C309 N306 1.313 . S
C309 N310 1.344 . S
C309 H313 0.930 . S
N310 C307 1.377 . S
N310 C309 1.344 . S
O311 Co303 2.055 1_565 S
O311 C315 1.253 1_565 S
H312 C308 0.931 . S
H313 C309 0.930 . S
O314 Co303 2.039 1_565 S
O314 C304 1.265 . S
C315 O311 1.253 1_545 S
C315 O316 1.227 . S
O316 C315 1.227 . S
N317 Co303 2.140 . S
N317 C320 1.346 . S
N317 C321 1.345 . S
C318 C319 1.387 . S
C318 C322 1.391 . S
C319 C318 1.387 . S
C319 C320 1.369 . S
C319 H328 0.929 . S
C320 N317 1.346 . S
C320 C319 1.369 . S
C320 H323 0.928 . S
C321 N317 1.345 . S
C321 C322 1.371 . S
C321 H324 0.931 . S
C322 C318 1.391 . S
C322 C321 1.371 . S
C322 H329 0.930 . S
H323 C320 0.928 . S
H324 C321 0.931 . S
H325 C301 0.930 . S
H326 C298 0.930 . S
H327 C307 0.930 . S
H328 C319 0.929 . S
H329 C322 0.930 . S
C330 C331 1.351 . S
C330 N333 1.368 . S
C330 H335 0.931 . S
C331 C330 1.351 . S
C331 N332 1.373 . S
C331 H359 0.930 . S
N332 C331 1.373 . S
N332 C334 1.340 . S
N333 C330 1.368 . S
N333 C334 1.321 . S
N333 Co336 2.135 . S
C334 N332 1.340 . S
C334 N333 1.321 . S
C334 H358 0.930 . S
H335 C330 0.931 . S
Co336 N333 2.135 . S
Co336 N339 2.121 . S
Co336 O344 2.055 . S
Co336 O347 2.039 . S
Co336 N350 2.140 . S
C337 O338 1.227 . S
C337 O347 1.265 . S
O338 C337 1.227 . S
N339 Co336 2.121 . S
N339 C341 1.375 . S
N339 C342 1.313 . S
C340 C341 1.338 . S
C340 N343 1.377 . S
C340 H360 0.930 . S
C341 N339 1.375 . S
C341 C340 1.338 . S
C341 H345 0.931 . S
C342 N339 1.313 . S
C342 N343 1.344 . S
C342 H346 0.930 . S
N343 C340 1.377 . S
N343 C342 1.344 . S
O344 Co336 2.055 . S
O344 C348 1.253 . S
H345 C341 0.931 . S
H346 C342 0.930 . S
O347 Co336 2.039 . S
O347 C337 1.265 . S
C348 O344 1.253 . S
C348 O349 1.227 . S
O349 C348 1.227 . S
N350 Co336 2.140 . S
N350 C353 1.346 . S
N350 C354 1.345 . S
C351 C352 1.387 . S
C351 C355 1.391 . S
C352 C351 1.387 . S
C352 C353 1.369 . S
C352 H361 0.929 . S
C353 N350 1.346 . S
C353 C352 1.369 . S
C353 H356 0.928 . S
C354 N350 1.345 . S
C354 C355 1.371 . S
C354 H357 0.931 . S
C355 C351 1.391 . S
C355 C354 1.371 . S
C355 H362 0.930 . S
H356 C353 0.928 . S
H357 C354 0.931 . S
H358 C334 0.930 . S
H359 C331 0.930 . S
H360 C340 0.930 . S
H361 C352 0.929 . S
H362 C355 0.930 . S
C363 C364 1.351 . S
C363 N366 1.368 . S
C363 H368 0.931 . S
C364 C363 1.351 . S
C364 N365 1.373 . S
C364 H392 0.930 . S
N365 C364 1.373 . S
N365 C367 1.340 . S
N366 C363 1.368 . S
N366 C367 1.321 . S
N366 Co369 2.135 . S
C367 N365 1.340 . S
C367 N366 1.321 . S
C367 H391 0.930 . S
H368 C363 0.931 . S
Co369 N366 2.135 . S
Co369 N372 2.121 1_655 S
Co369 O377 2.055 1_655 S
Co369 O380 2.039 1_655 S
Co369 N383 2.140 . S
C370 O371 1.227 1_455 S
C370 O380 1.265 . S
O371 C370 1.227 1_655 S
N372 Co369 2.121 1_455 S
N372 C374 1.375 . S
N372 C375 1.313 . S
C373 C374 1.338 . S
C373 N376 1.377 . S
C373 H393 0.930 . S
C374 N372 1.375 . S
C374 C373 1.338 . S
C374 H378 0.931 . S
C375 N372 1.313 . S
C375 N376 1.344 . S
C375 H379 0.930 . S
N376 C373 1.377 . S
N376 C375 1.344 . S
O377 Co369 2.055 1_455 S
O377 C381 1.253 1_455 S
H378 C374 0.931 . S
H379 C375 0.930 . S
O380 Co369 2.039 1_455 S
O380 C370 1.265 . S
C381 O377 1.253 1_655 S
C381 O382 1.227 . S
O382 C381 1.227 . S
N383 Co369 2.140 . S
N383 C386 1.346 . S
N383 C387 1.345 . S
C384 C385 1.387 . S
C384 C388 1.391 . S
C385 C384 1.387 . S
C385 C386 1.369 . S
C385 H394 0.929 . S
C386 N383 1.346 . S
C386 C385 1.369 . S
C386 H389 0.928 . S
C387 N383 1.345 . S
C387 C388 1.371 . S
C387 H390 0.931 . S
C388 C384 1.391 . S
C388 C387 1.371 . S
C388 H395 0.930 . S
H389 C386 0.928 . S
H390 C387 0.931 . S
H391 C367 0.930 . S
H392 C364 0.930 . S
H393 C373 0.930 . S
H394 C385 0.929 . S
H395 C388 0.930 . S
C396 C397 1.349 . S
C396 C398 1.327 . S
C396 H421 0.950 . S
C397 C396 1.349 . S
C397 C413 1.349 . S
C398 C396 1.327 . S
C398 C417 1.429 . S
C398 H422 0.950 . S
C399 C416 1.574 1_566 S
C399 C418 1.368 . S
C399 H423 0.949 . S
H400 C404 0.949 . S
C401 C402 1.349 . S
C401 C403 1.327 . S
C401 H424 0.950 . S
C402 C401 1.349 . S
C402 C414 1.349 . S
C403 C401 1.327 . S
C403 C419 1.429 . S
C403 H425 0.950 . S
C404 H400 0.949 . S
C404 C412 1.574 1_544 S
C404 C420 1.368 . S
H405 C413 0.950 . S
H406 C411 0.950 . S
H407 C412 0.949 . S
H408 C414 0.950 1_455 S
H409 C415 0.950 . S
H410 C416 0.949 . S
C411 H406 0.950 . S
C411 C413 1.327 . S
C411 C417 1.429 . S
C412 C404 1.574 1_566 S
C412 H407 0.949 . S
C412 C418 1.368 . S
C413 C397 1.349 . S
C413 H405 0.950 . S
C413 C411 1.327 . S
C414 C402 1.349 . S
C414 H408 0.950 1_655 S
C414 C415 1.327 . S
C415 H409 0.950 . S
C415 C414 1.327 . S
C415 C419 1.429 . S
C416 C399 1.574 1_544 S
C416 H410 0.949 . S
C416 C420 1.368 . S
C417 C398 1.429 . S
C417 C411 1.429 . S
C417 C418 1.523 . S
C418 C399 1.368 . S
C418 C412 1.368 . S
C418 C417 1.523 . S
C419 C403 1.429 . S
C419 C415 1.429 . S
C419 C420 1.523 . S
C420 C404 1.368 . S
C420 C416 1.368 . S
C420 C419 1.523 . S
H421 C396 0.950 . S
H422 C398 0.950 . S
H423 C399 0.949 . S
H424 C401 0.950 . S
H425 C403 0.950 . S
C426 C427 1.349 . S
C426 C428 1.327 . S
C426 H451 0.950 . S
C427 C426 1.349 . S
C427 C443 1.349 . S
C428 C426 1.327 . S
C428 C447 1.429 . S
C428 H452 0.950 . S
C429 C446 1.574 . S
C429 C448 1.368 . S
C429 H453 0.949 . S
H430 C434 0.949 . S
C431 C432 1.349 . S
C431 C433 1.327 . S
C431 H454 0.950 . S
C432 C431 1.349 . S
C432 C444 1.349 . S
C433 C431 1.327 . S
C433 C449 1.429 . S
C433 H455 0.950 . S
C434 H430 0.949 . S
C434 C442 1.574 . S
C434 C450 1.368 . S
H435 C443 0.950 . S
H436 C441 0.950 . S
H437 C442 0.949 . S
H438 C444 0.950 . S
H439 C445 0.950 . S
H440 C446 0.949 . S
C441 H436 0.950 . S
C441 C443 1.327 . S
C441 C447 1.429 . S
C442 C434 1.574 . S
C442 H437 0.949 . S
C442 C448 1.368 . S
C443 C427 1.349 . S
C443 H435 0.950 . S
C443 C441 1.327 . S
C444 C432 1.349 . S
C444 H438 0.950 . S
C444 C445 1.327 . S
C445 H439 0.950 . S
C445 C444 1.327 . S
C445 C449 1.429 . S
C446 C429 1.574 . S
C446 H440 0.949 . S
C446 C450 1.368 . S
C447 C428 1.429 . S
C447 C441 1.429 . S
C447 C448 1.523 . S
C448 C429 1.368 . S
C448 C442 1.368 . S
C448 C447 1.523 . S
C449 C433 1.429 . S
C449 C445 1.429 . S
C449 C450 1.523 . S
C450 C434 1.368 . S
C450 C446 1.368 . S
C450 C449 1.523 . S
H451 C426 0.950 . S
H452 C428 0.950 . S
H453 C429 0.949 . S
H454 C431 0.950 . S
H455 C433 0.950 . S
C456 C457 1.349 . S
C456 C458 1.327 . S
C456 H481 0.950 . S
C457 C456 1.349 . S
C457 C473 1.349 . S
C458 C456 1.327 . S
C458 C477 1.429 . S
C458 H482 0.950 . S
C459 C476 1.574 1_655 S
C459 C478 1.368 . S
C459 H483 0.949 . S
H460 C464 0.949 . S
C461 C462 1.349 . S
C461 C463 1.327 . S
C461 H484 0.950 . S
C462 C461 1.349 . S
C462 C474 1.349 . S
C463 C461 1.327 . S
C463 C479 1.429 . S
C463 H485 0.950 . S
C464 H460 0.949 . S
C464 C472 1.586 . S
C464 C480 1.368 . S
H465 C473 0.950 . S
H466 C471 0.950 . S
H467 C472 0.949 1_655 S
H468 C474 0.950 . S
H469 C475 0.950 . S
H470 C476 0.949 . S
C471 H466 0.950 . S
C471 C473 1.327 . S
C471 C477 1.429 . S
C472 C464 1.586 . S
C472 H467 0.949 1_455 S
C472 C478 1.357 1_455 S
C473 C457 1.349 . S
C473 H465 0.950 . S
C473 C471 1.327 . S
C474 C462 1.349 . S
C474 H468 0.950 . S
C474 C475 1.327 . S
C475 H469 0.950 . S
C475 C474 1.327 . S
C475 C479 1.429 . S
C476 C459 1.574 1_455 S
C476 H470 0.949 . S
C476 C480 1.368 . S
C477 C458 1.429 . S
C477 C471 1.429 . S
C477 C478 1.523 . S
C478 C459 1.368 . S
C478 C472 1.357 1_655 S
C478 C477 1.523 . S
C479 C463 1.429 . S
C479 C475 1.429 . S
C479 C480 1.523 . S
C480 C464 1.368 . S
C480 C476 1.368 . S
C480 C479 1.523 . S
H481 C456 0.950 . S
H482 C458 0.950 . S
H483 C459 0.949 . S
H484 C461 0.950 . S
H485 C463 0.950 . S
C486 C487 1.349 . S
C486 C488 1.327 . S
C486 H511 0.950 . S
C487 C486 1.349 . S
C487 C503 1.349 . S
C488 C486 1.327 . S
C488 C507 1.429 . S
C488 H512 0.950 . S
C489 C506 1.574 1_545 S
C489 C508 1.368 . S
C489 H513 0.949 . S
H490 C494 0.949 . S
C491 C492 1.349 . S
C491 C493 1.327 . S
C491 H514 0.950 . S
C492 C491 1.349 . S
C492 C504 1.349 . S
C493 C491 1.327 . S
C493 C509 1.429 . S
C493 H515 0.950 . S
C494 H490 0.949 . S
C494 C502 1.574 1_565 S
C494 C510 1.368 . S
H495 C503 0.950 . S
H496 C501 0.950 . S
H497 C502 0.949 . S
H498 C504 0.950 . S
H499 C505 0.950 . S
H500 C506 0.949 . S
C501 H496 0.950 . S
C501 C503 1.327 . S
C501 C507 1.429 . S
C502 C494 1.574 1_545 S
C502 H497 0.949 . S
C502 C508 1.368 . S
C503 C487 1.349 . S
C503 H495 0.950 . S
C503 C501 1.327 . S
C504 C492 1.349 . S
C504 H498 0.950 . S
C504 C505 1.327 . S
C505 H499 0.950 . S
C505 C504 1.327 . S
C505 C509 1.429 . S
C506 C489 1.574 1_565 S
C506 H500 0.949 . S
C506 C510 1.368 . S
C507 C488 1.429 . S
C507 C501 1.429 . S
C507 C508 1.523 . S
C508 C489 1.368 . S
C508 C502 1.368 . S
C508 C507 1.523 . S
C509 C493 1.429 . S
C509 C505 1.429 . S
C509 C510 1.523 . S
C510 C494 1.368 . S
C510 C506 1.368 . S
C510 C509 1.523 . S
H511 C486 0.950 . S
H512 C488 0.950 . S
H513 C489 0.949 . S
H514 C491 0.950 . S
H515 C493 0.950 . S
C516 C517 1.349 . S
C516 C518 1.327 . S
C516 H541 0.950 . S
C517 C516 1.349 . S
C517 C533 1.349 . S
C518 C516 1.327 . S
C518 C537 1.429 . S
C518 H542 0.950 . S
C519 C536 1.574 . S
C519 C538 1.368 . S
C519 H543 0.949 . S
H520 C524 0.949 . S
C521 C522 1.349 . S
C521 C523 1.327 . S
C521 H544 0.933 1_455 S
C522 C521 1.349 . S
C522 C534 1.349 . S
C523 C521 1.327 . S
C523 C539 1.429 . S
C523 H545 0.950 . S
C524 H520 0.949 . S
C524 C532 1.574 . S
C524 C540 1.368 . S
H525 C533 0.965 . S
H526 C531 0.950 . S
H527 C532 0.949 . S
H528 C534 0.950 . S
H529 C535 0.950 . S
H530 C536 0.949 . S
C531 H526 0.950 . S
C531 C533 1.327 . S
C531 C537 1.429 . S
C532 C524 1.574 . S
C532 H527 0.949 . S
C532 C538 1.368 . S
C533 C517 1.349 . S
C533 H525 0.965 . S
C533 C531 1.327 . S
C534 C522 1.349 . S
C534 H528 0.950 . S
C534 C535 1.327 . S
C535 H529 0.950 . S
C535 C534 1.327 . S
C535 C539 1.429 . S
C536 C519 1.574 . S
C536 H530 0.949 . S
C536 C540 1.368 . S
C537 C518 1.429 . S
C537 C531 1.429 . S
C537 C538 1.523 . S
C538 C519 1.368 . S
C538 C532 1.368 . S
C538 C537 1.523 . S
C539 C523 1.429 . S
C539 C535 1.429 . S
C539 C540 1.523 . S
C540 C524 1.368 . S
C540 C536 1.368 . S
C540 C539 1.523 . S
H541 C516 0.950 . S
H542 C518 0.950 . S
H543 C519 0.949 . S
H544 C521 0.933 1_655 S
H545 C523 0.950 . S
C546 C547 1.349 . S
C546 C548 1.327 . S
C546 H571 0.950 . S
C547 C546 1.349 . S
C547 C563 1.349 . S
C548 C546 1.327 . S
C548 C567 1.429 . S
C548 H572 0.950 . S
C549 C566 1.574 1_655 S
C549 C568 1.368 . S
C549 H573 0.949 . S
H550 C554 0.949 . S
C551 C552 1.349 . S
C551 C553 1.327 . S
C551 H574 0.950 . S
C552 C551 1.349 . S
C552 C564 1.349 . S
C553 C551 1.327 . S
C553 C569 1.429 . S
C553 H575 0.950 . S
C554 H550 0.949 . S
C554 C562 1.574 1_455 S
C554 C570 1.368 . S
H555 C563 0.950 1_565 S
H556 C561 0.950 . S
H557 C562 0.949 . S
H558 C564 0.950 . S
H559 C565 0.950 . S
H560 C566 0.949 . S
C561 H556 0.950 . S
C561 C563 1.327 . S
C561 C567 1.429 . S
C562 C554 1.574 1_655 S
C562 H557 0.949 . S
C562 C568 1.368 . S
C563 C547 1.349 . S
C563 H555 0.950 1_545 S
C563 C561 1.327 . S
C564 C552 1.349 . S
C564 H558 0.950 . S
C564 C565 1.327 . S
C565 H559 0.950 . S
C565 C564 1.327 . S
C565 C569 1.429 . S
C566 C549 1.574 1_455 S
C566 H560 0.949 . S
C566 C570 1.368 . S
C567 C548 1.429 . S
C567 C561 1.429 . S
C567 C568 1.523 . S
C568 C549 1.368 . S
C568 C562 1.368 . S
C568 C567 1.523 . S
C569 C553 1.429 . S
C569 C565 1.429 . S
C569 C570 1.523 . S
C570 C554 1.368 . S
C570 C566 1.368 . S
C570 C569 1.523 . S
H571 C546 0.950 . S
H572 C548 0.950 . S
H573 C549 0.949 . S
H574 C551 0.950 . S
H575 C553 0.950 . S
C576 C577 1.349 . S
C576 C578 1.327 . S
C576 H601 0.950 . S
C577 C576 1.349 . S
C577 C593 1.349 . S
C578 C576 1.327 . S
C578 C597 1.429 . S
C578 H602 0.950 . S
C579 C596 1.553 1_545 S
C579 C598 1.368 . S
C579 H603 0.949 . S
H580 C584 0.949 . S
C581 C582 1.349 . S
C581 C583 1.327 . S
C581 H604 0.950 . S
C582 C581 1.349 . S
C582 C594 1.349 . S
C583 C581 1.327 . S
C583 C599 1.429 . S
C583 H605 0.950 . S
C584 H580 0.949 . S
C584 C592 1.574 . S
C584 C600 1.345 1_545 S
H585 C593 0.950 . S
H586 C591 0.950 . S
H587 C592 0.949 . S
H588 C594 0.950 . S
H589 C595 0.950 . S
H590 C596 0.972 . S
C591 H586 0.950 . S
C591 C593 1.327 . S
C591 C597 1.429 . S
C592 C584 1.574 . S
C592 H587 0.949 . S
C592 C598 1.368 . S
C593 C577 1.349 . S
C593 H585 0.950 . S
C593 C591 1.327 . S
C594 C582 1.349 . S
C594 H588 0.950 . S
C594 C595 1.327 . S
C595 H589 0.950 . S
C595 C594 1.327 . S
C595 C599 1.429 . S
C596 C579 1.553 1_565 S
C596 H590 0.972 . S
C596 C600 1.369 . S
C597 C578 1.429 . S
C597 C591 1.429 . S
C597 C598 1.523 . S
C598 C579 1.368 . S
C598 C592 1.368 . S
C598 C597 1.523 . S
C599 C583 1.429 . S
C599 C595 1.429 . S
C599 C600 1.546 . S
C600 C584 1.345 1_565 S
C600 C596 1.369 . S
C600 C599 1.546 . S
H601 C576 0.950 . S
H602 C578 0.950 . S
H603 C579 0.949 . S
H604 C581 0.950 . S
H605 C583 0.950 . S
C606 C607 1.349 . S
C606 C608 1.327 . S
C606 H631 0.950 . S
C607 C606 1.349 . S
C607 C623 1.349 . S
C608 C606 1.327 . S
C608 C627 1.429 . S
C608 H632 0.950 . S
C609 C626 1.574 . S
C609 C628 1.364 1_455 S
C609 H633 0.949 1_455 S
H610 C614 0.949 . S
C611 C612 1.349 . S
C611 C613 1.327 . S
C611 H634 0.950 . S
C612 C611 1.349 . S
C612 C624 1.349 . S
C613 C611 1.327 . S
C613 C629 1.429 . S
C613 H635 0.950 . S
C614 H610 0.949 . S
C614 C622 1.574 . S
C614 C630 1.368 . S
H615 C623 0.950 . S
H616 C621 0.950 . S
H617 C622 0.949 . S
H618 C624 0.950 . S
H619 C625 0.950 . S
H620 C626 0.949 . S
C621 H616 0.950 . S
C621 C623 1.327 . S
C621 C627 1.429 . S
C622 C614 1.574 . S
C622 H617 0.949 . S
C622 C628 1.368 1_455 S
C623 C607 1.349 . S
C623 H615 0.950 . S
C623 C621 1.327 . S
C624 C612 1.349 . S
C624 H618 0.950 . S
C624 C625 1.327 . S
C625 H619 0.950 . S
C625 C624 1.327 . S
C625 C629 1.429 . S
C626 C609 1.574 . S
C626 H620 0.949 . S
C626 C630 1.368 . S
C627 C608 1.429 . S
C627 C621 1.429 . S
C627 C628 1.528 . S
C628 C609 1.364 1_655 S
C628 C622 1.368 1_655 S
C628 C627 1.528 . S
C629 C613 1.429 . S
C629 C625 1.429 . S
C629 C630 1.523 . S
C630 C614 1.368 . S
C630 C626 1.368 . S
C630 C629 1.523 . S
H631 C606 0.950 . S
H632 C608 0.950 . S
H633 C609 0.949 1_655 S
H634 C611 0.950 . S
H635 C613 0.950 . S
C636 C637 1.349 . S
C636 C638 1.327 . S
C636 H661 0.950 . S
C637 C636 1.349 . S
C637 C653 1.349 . S
C638 C636 1.327 . S
C638 C657 1.429 . S
C638 H662 0.950 1_455 S
C639 C656 1.574 1_455 S
C639 C658 1.382 . S
C639 H663 0.949 . S
H640 C644 0.949 1_565 S
C641 C642 1.349 . S
C641 C643 1.327 . S
C641 H664 0.950 . S
C642 C641 1.349 . S
C642 C654 1.349 . S
C643 C641 1.327 . S
C643 C659 1.429 . S
C643 H665 0.950 . S
C644 H640 0.949 1_545 S
C644 C652 1.574 . S
C644 C660 1.359 1_545 S
H645 C653 0.950 . S
H646 C651 0.950 . S
H647 C652 0.949 . S
H648 C654 0.950 . S
H649 C655 0.950 . S
H650 C656 0.949 . S
C651 H646 0.950 . S
C651 C653 1.327 . S
C651 C657 1.429 . S
C652 C644 1.574 . S
C652 H647 0.949 . S
C652 C658 1.346 1_655 S
C653 C637 1.349 . S
C653 H645 0.950 . S
C653 C651 1.327 . S
C654 C642 1.349 . S
C654 H648 0.950 . S
C654 C655 1.327 . S
C655 H649 0.950 . S
C655 C654 1.327 . S
C655 C659 1.429 . S
C656 C639 1.574 1_655 S
C656 H650 0.949 . S
C656 C660 1.369 1_545 S
C657 C638 1.429 . S
C657 C651 1.429 . S
C657 C658 1.534 . S
C658 C639 1.382 . S
C658 C652 1.346 1_455 S
C658 C657 1.534 . S
C659 C643 1.429 . S
C659 C655 1.429 . S
C659 C660 1.534 . S
C660 C644 1.359 1_565 S
C660 C656 1.369 1_565 S
C660 C659 1.534 . S
H661 C636 0.950 . S
H662 C638 0.950 1_655 S
H663 C639 0.949 . S
H664 C641 0.950 . S
H665 C643 0.950 . S
C666 C667 1.349 . S
C666 C668 1.327 . S
C666 H691 0.950 . S
C667 C666 1.349 . S
C667 C683 1.349 . S
C668 C666 1.327 . S
C668 C687 1.429 . S
C668 H692 0.950 . S
C669 C686 1.574 . S
C669 C688 1.364 1_565 S
C669 H693 0.949 . S
H670 C674 0.949 . S
C671 C672 1.349 . S
C671 C673 1.327 . S
C671 H694 0.950 . S
C672 C671 1.349 . S
C672 C684 1.349 . S
C673 C671 1.327 . S
C673 C689 1.429 . S
C673 H695 0.950 . S
C674 H670 0.949 . S
C674 C682 1.574 1_565 S
C674 C690 1.368 . S
H675 C683 0.950 . S
H676 C681 0.950 1_565 S
H677 C682 0.949 . S
H678 C684 0.950 . S
H679 C685 0.950 . S
H680 C686 0.949 . S
C681 H676 0.950 1_545 S
C681 C683 1.327 . S
C681 C687 1.429 . S
C682 C674 1.574 1_545 S
C682 H677 0.949 . S
C682 C688 1.368 . S
C683 C667 1.349 . S
C683 H675 0.950 . S
C683 C681 1.327 . S
C684 C672 1.349 . S
C684 H678 0.950 . S
C684 C685 1.327 . S
C685 H679 0.950 . S
C685 C684 1.327 . S
C685 C689 1.429 . S
C686 C669 1.574 . S
C686 H680 0.949 . S
C686 C690 1.368 . S
C687 C668 1.429 . S
C687 C681 1.429 . S
C687 C688 1.528 . S
C688 C669 1.364 1_545 S
C688 C682 1.368 . S
C688 C687 1.528 . S
C689 C673 1.429 . S
C689 C685 1.429 . S
C689 C690 1.523 . S
C690 C674 1.368 . S
C690 C686 1.368 . S
C690 C689 1.523 . S
H691 C666 0.950 . S
H692 C668 0.950 . S
H693 C669 0.949 . S
H694 C671 0.950 . S
H695 C673 0.950 . S
C696 C697 1.349 . S
C696 C698 1.327 . S
C696 H721 0.950 . S
C697 C696 1.349 . S
C697 C713 1.349 . S
C698 C696 1.327 . S
C698 C717 1.429 . S
C698 H722 0.950 . S
C699 C716 1.574 . S
C699 C718 1.369 1_655 S
C699 H723 0.949 . S
H700 C704 0.949 . S
C701 C702 1.349 . S
C701 C703 1.327 . S
C701 H724 0.950 . S
C702 C701 1.349 . S
C702 C714 1.349 . S
C703 C701 1.327 . S
C703 C719 1.429 . S
C703 H725 0.950 . S
C704 H700 0.949 . S
C704 C712 1.574 . S
C704 C720 1.368 . S
H705 C713 0.950 . S
H706 C711 0.950 . S
H707 C712 0.949 1_455 S
H708 C714 0.950 . S
H709 C715 0.950 . S
H710 C716 0.949 . S
C711 H706 0.950 . S
C711 C713 1.327 . S
C711 C717 1.429 . S
C712 C704 1.574 . S
C712 H707 0.949 1_655 S
C712 C718 1.350 1_655 S
C713 C697 1.349 . S
C713 H705 0.950 . S
C713 C711 1.327 . S
C714 C702 1.349 . S
C714 H708 0.950 . S
C714 C715 1.327 . S
C715 H709 0.950 . S
C715 C714 1.327 . S
C715 C719 1.429 . S
C716 C699 1.574 . S
C716 H710 0.949 . S
C716 C720 1.368 . S
C717 C698 1.429 . S
C717 C711 1.429 . S
C717 C718 1.546 . S
C718 C699 1.369 1_455 S
C718 C712 1.350 1_455 S
C718 C717 1.546 . S
C719 C703 1.429 . S
C719 C715 1.429 . S
C719 C720 1.523 . S
C720 C704 1.368 . S
C720 C716 1.368 . S
C720 C719 1.523 . S
H721 C696 0.950 . S
H722 C698 0.950 . S
H723 C699 0.949 . S
H724 C701 0.950 . S
H725 C703 0.950 . S
C726 C727 1.349 . S
C726 C728 1.327 . S
C726 H751 0.950 . S
C727 C726 1.349 . S
C727 C743 1.349 . S
C728 C726 1.327 . S
C728 C747 1.429 . S
C728 H752 0.950 1_655 S
C729 C746 1.574 1_655 S
C729 C748 1.371 . S
C729 H753 0.949 . S
H730 C734 0.949 1_545 S
C731 C732 1.349 . S
C731 C733 1.327 . S
C731 H754 0.950 . S
C732 C731 1.349 . S
C732 C744 1.349 . S
C733 C731 1.327 . S
C733 C749 1.429 . S
C733 H755 0.950 . S
C734 H730 0.949 1_565 S
C734 C742 1.574 . S
C734 C750 1.366 1_565 S
H735 C743 0.950 . S
H736 C741 0.950 . S
H737 C742 0.949 . S
H738 C744 0.950 . S
H739 C745 0.950 . S
H740 C746 0.949 . S
C741 H736 0.950 . S
C741 C743 1.327 . S
C741 C747 1.429 . S
C742 C734 1.574 . S
C742 H737 0.949 . S
C742 C748 1.364 1_455 S
C743 C727 1.349 . S
C743 H735 0.950 . S
C743 C741 1.327 . S
C744 C732 1.349 . S
C744 H738 0.950 . S
C744 C745 1.327 . S
C745 H739 0.950 . S
C745 C744 1.327 . S
C745 C749 1.429 . S
C746 C729 1.574 1_455 S
C746 H740 0.949 . S
C746 C750 1.368 1_565 S
C747 C728 1.429 . S
C747 C741 1.429 . S
C747 C748 1.525 . S
C748 C729 1.371 . S
C748 C742 1.364 1_655 S
C748 C747 1.525 . S
C749 C733 1.429 . S
C749 C745 1.429 . S
C749 C750 1.525 . S
C750 C734 1.366 1_545 S
C750 C746 1.368 1_545 S
C750 C749 1.525 . S
H751 C726 0.950 . S
H752 C728 0.950 1_455 S
H753 C729 0.949 . S
H754 C731 0.950 . S
H755 C733 0.950 . S
C756 C757 1.349 . S
C756 C758 1.327 . S
C756 H781 0.950 . S
C757 C756 1.349 . S
C757 C773 1.349 . S
C758 C756 1.327 . S
C758 C777 1.429 . S
C758 H782 0.950 1_556 S
C759 C776 1.574 . S
C759 C778 1.368 . S
C759 H783 0.949 . S
H760 C764 0.949 . S
C761 C762 1.349 . S
C761 C763 1.327 . S
C761 H784 0.950 . S
C762 C761 1.349 . S
C762 C774 1.349 . S
C763 C761 1.327 . S
C763 C779 1.429 . S
C763 H785 0.950 . S
C764 H760 0.949 . S
C764 C772 1.574 . S
C764 C780 1.368 . S
H765 C773 0.950 . S
H766 C771 0.950 . S
H767 C772 0.949 . S
H768 C774 0.950 . S
H769 C775 0.950 . S
H770 C776 0.949 . S
C771 H766 0.950 . S
C771 C773 1.327 . S
C771 C777 1.429 . S
C772 C764 1.574 . S
C772 H767 0.949 . S
C772 C778 1.368 1_554 S
C773 C757 1.349 . S
C773 H765 0.950 . S
C773 C771 1.327 . S
C774 C762 1.349 . S
C774 H768 0.950 . S
C774 C775 1.327 . S
C775 H769 0.950 . S
C775 C774 1.327 . S
C775 C779 1.429 . S
C776 C759 1.574 . S
C776 H770 0.949 . S
C776 C780 1.368 1_556 S
C777 C758 1.429 . S
C777 C771 1.429 . S
C777 C778 1.523 . S
C778 C759 1.368 . S
C778 C772 1.368 1_556 S
C778 C777 1.523 . S
C779 C763 1.429 . S
C779 C775 1.429 . S
C779 C780 1.523 . S
C780 C764 1.368 . S
C780 C776 1.368 1_554 S
C780 C779 1.523 . S
H781 C756 0.950 . S
H782 C758 0.950 1_554 S
H783 C759 0.949 . S
H784 C761 0.950 . S
H785 C763 0.950 . S
C786 C787 1.349 . S
C786 C788 1.327 . S
C786 H811 0.950 . S
C787 C786 1.349 . S
C787 C803 1.349 . S
C788 C786 1.327 . S
C788 C807 1.429 . S
C788 H812 0.950 . S
C789 C806 1.574 . S
C789 C808 1.368 . S
C789 H813 0.949 . S
H790 C794 0.949 . S
C791 C792 1.349 . S
C791 C793 1.327 . S
C791 H814 0.950 . S
C792 C791 1.349 . S
C792 C804 1.349 . S
C793 C791 1.327 . S
C793 C809 1.429 . S
C793 H815 0.950 . S
C794 H790 0.949 . S
C794 C802 1.574 . S
C794 C810 1.368 . S
H795 C803 0.950 1_455 S
H796 C801 0.950 . S
H797 C802 0.949 . S
H798 C804 0.950 . S
H799 C805 0.950 . S
H800 C806 0.949 . S
C801 H796 0.950 . S
C801 C803 1.327 . S
C801 C807 1.429 . S
C802 C794 1.574 . S
C802 H797 0.949 . S
C802 C808 1.368 . S
C803 C787 1.349 . S
C803 H795 0.950 1_655 S
C803 C801 1.327 . S
C804 C792 1.349 . S
C804 H798 0.950 . S
C804 C805 1.327 . S
C805 H799 0.950 . S
C805 C804 1.327 . S
C805 C809 1.429 . S
C806 C789 1.574 . S
C806 H800 0.949 . S
C806 C810 1.368 . S
C807 C788 1.429 . S
C807 C801 1.429 . S
C807 C808 1.523 . S
C808 C789 1.368 . S
C808 C802 1.368 . S
C808 C807 1.523 . S
C809 C793 1.429 . S
C809 C805 1.429 . S
C809 C810 1.523 . S
C810 C794 1.368 . S
C810 C806 1.368 . S
C810 C809 1.523 . S
H811 C786 0.950 . S
H812 C788 0.950 . S
H813 C789 0.949 . S
H814 C791 0.950 . S
H815 C793 0.950 . S
C816 C817 1.349 . S
C816 C818 1.327 . S
C816 H841 0.950 . S
C817 C816 1.349 . S
C817 C833 1.349 . S
C818 C816 1.327 . S
C818 C837 1.429 . S
C818 H842 0.950 . S
C819 C836 1.574 . S
C819 C838 1.368 . S
C819 H843 0.949 . S
H820 C824 0.949 . S
C821 C822 1.349 . S
C821 C823 1.327 . S
C821 H844 0.950 . S
C822 C821 1.349 . S
C822 C834 1.349 . S
C823 C821 1.327 . S
C823 C839 1.429 . S
C823 H845 0.950 . S
C824 H820 0.949 . S
C824 C832 1.574 . S
C824 C840 1.368 . S
H825 C833 0.950 . S
H826 C831 0.950 . S
H827 C832 0.949 . S
H828 C834 0.950 . S
H829 C835 0.950 . S
H830 C836 0.949 . S
C831 H826 0.950 . S
C831 C833 1.327 . S
C831 C837 1.429 . S
C832 C824 1.574 . S
C832 H827 0.949 . S
C832 C838 1.368 . S
C833 C817 1.349 . S
C833 H825 0.950 . S
C833 C831 1.327 . S
C834 C822 1.349 . S
C834 H828 0.950 . S
C834 C835 1.327 . S
C835 H829 0.950 . S
C835 C834 1.327 . S
C835 C839 1.429 . S
C836 C819 1.574 . S
C836 H830 0.949 . S
C836 C840 1.368 . S
C837 C818 1.429 . S
C837 C831 1.429 . S
C837 C838 1.523 . S
C838 C819 1.368 . S
C838 C832 1.368 . S
C838 C837 1.523 . S
C839 C823 1.429 . S
C839 C835 1.429 . S
C839 C840 1.523 . S
C840 C824 1.368 . S
C840 C836 1.368 . S
C840 C839 1.523 . S
H841 C816 0.950 . S
H842 C818 0.950 . S
H843 C819 0.949 . S
H844 C821 0.950 . S
H845 C823 0.950 . S
C846 C847 1.349 . S
C846 C848 1.327 . S
C846 H871 0.950 . S
C847 C846 1.349 . S
C847 C863 1.349 . S
C848 C846 1.327 . S
C848 C867 1.429 . S
C848 H872 0.950 . S
C849 C866 1.574 . S
C849 C868 1.368 . S
C849 H873 0.949 . S
H850 C854 0.949 . S
C851 C852 1.349 . S
C851 C853 1.327 . S
C851 H874 0.950 . S
C852 C851 1.349 . S
C852 C864 1.349 . S
C853 C851 1.327 . S
C853 C869 1.429 . S
C853 H875 0.950 . S
C854 H850 0.949 . S
C854 C862 1.574 . S
C854 C870 1.368 . S
H855 C863 0.950 . S
H856 C861 0.950 . S
H857 C862 0.949 . S
H858 C864 0.950 . S
H859 C865 0.950 . S
H860 C866 0.949 . S
C861 H856 0.950 . S
C861 C863 1.327 . S
C861 C867 1.429 . S
C862 C854 1.574 . S
C862 H857 0.949 . S
C862 C868 1.368 . S
C863 C847 1.349 . S
C863 H855 0.950 . S
C863 C861 1.327 . S
C864 C852 1.349 . S
C864 H858 0.950 . S
C864 C865 1.327 . S
C865 H859 0.950 . S
C865 C864 1.327 . S
C865 C869 1.429 . S
C866 C849 1.574 . S
C866 H860 0.949 . S
C866 C870 1.368 . S
C867 C848 1.429 . S
C867 C861 1.429 . S
C867 C868 1.523 . S
C868 C849 1.368 . S
C868 C862 1.368 . S
C868 C867 1.523 . S
C869 C853 1.429 . S
C869 C865 1.429 . S
C869 C870 1.523 . S
C870 C854 1.368 . S
C870 C866 1.368 . S
C870 C869 1.523 . S
H871 C846 0.950 . S
H872 C848 0.950 . S
H873 C849 0.949 . S
H874 C851 0.950 . S
H875 C853 0.950 . S
C876 C877 1.349 . S
C876 C878 1.327 . S
C876 H901 0.950 1_455 S
C877 C876 1.349 . S
C877 C893 1.349 . S
C878 C876 1.327 . S
C878 C897 1.429 . S
C878 H902 0.950 . S
C879 C896 1.574 . S
C879 C898 1.368 . S
C879 H903 0.949 . S
H880 C884 0.949 . S
C881 C882 1.349 . S
C881 C883 1.327 . S
C881 H904 0.950 . S
C882 C881 1.349 . S
C882 C894 1.349 . S
C883 C881 1.327 . S
C883 C899 1.429 . S
C883 H905 0.950 . S
C884 H880 0.949 . S
C884 C892 1.574 . S
C884 C900 1.368 . S
H885 C893 0.950 . S
H886 C891 0.950 . S
H887 C892 0.949 . S
H888 C894 0.950 . S
H889 C895 0.950 . S
H890 C896 0.949 . S
C891 H886 0.950 . S
C891 C893 1.327 . S
C891 C897 1.429 . S
C892 C884 1.574 . S
C892 H887 0.949 . S
C892 C898 1.368 . S
C893 C877 1.349 . S
C893 H885 0.950 . S
C893 C891 1.327 . S
C894 C882 1.349 . S
C894 H888 0.950 . S
C894 C895 1.327 . S
C895 H889 0.950 . S
C895 C894 1.327 . S
C895 C899 1.429 . S
C896 C879 1.574 . S
C896 H890 0.949 . S
C896 C900 1.368 . S
C897 C878 1.429 . S
C897 C891 1.429 . S
C897 C898 1.523 . S
C898 C879 1.368 . S
C898 C892 1.368 . S
C898 C897 1.523 . S
C899 C883 1.429 . S
C899 C895 1.429 . S
C899 C900 1.523 . S
C900 C884 1.368 . S
C900 C896 1.368 . S
C900 C899 1.523 . S
H901 C876 0.950 1_655 S
H902 C878 0.950 . S
H903 C879 0.949 . S
H904 C881 0.950 . S
H905 C883 0.950 . S
C906 C907 1.349 . S
C906 C908 1.327 . S
C906 H931 0.950 . S
C907 C906 1.349 . S
C907 C923 1.349 . S
C908 C906 1.327 . S
C908 C927 1.429 . S
C908 H932 0.950 . S
C909 C926 1.574 . S
C909 C928 1.368 . S
C909 H933 0.949 . S
H910 C914 0.949 . S
C911 C912 1.349 . S
C911 C913 1.327 . S
C911 H934 0.950 1_545 S
C912 C911 1.349 . S
C912 C924 1.349 . S
C913 C911 1.327 . S
C913 C929 1.429 . S
C913 H935 0.950 . S
C914 H910 0.949 . S
C914 C922 1.574 . S
C914 C930 1.368 . S
H915 C923 0.950 . S
H916 C921 0.950 . S
H917 C922 0.949 . S
H918 C924 0.950 . S
H919 C925 0.950 . S
H920 C926 0.949 . S
C921 H916 0.950 . S
C921 C923 1.327 . S
C921 C927 1.429 . S
C922 C914 1.574 . S
C922 H917 0.949 . S
C922 C928 1.368 . S
C923 C907 1.349 . S
C923 H915 0.950 . S
C923 C921 1.327 . S
C924 C912 1.349 . S
C924 H918 0.950 . S
C924 C925 1.327 . S
C925 H919 0.950 . S
C925 C924 1.327 . S
C925 C929 1.429 . S
C926 C909 1.574 . S
C926 H920 0.949 . S
C926 C930 1.368 . S
C927 C908 1.429 . S
C927 C921 1.429 . S
C927 C928 1.523 . S
C928 C909 1.368 . S
C928 C922 1.368 . S
C928 C927 1.523 . S
C929 C913 1.429 . S
C929 C925 1.429 . S
C929 C930 1.523 . S
C930 C914 1.368 . S
C930 C926 1.368 . S
C930 C929 1.523 . S
H931 C906 0.950 . S
H932 C908 0.950 . S
H933 C909 0.949 . S
H934 C911 0.950 1_565 S
H935 C913 0.950 . S
C936 C937 1.349 . S
C936 C938 1.327 . S
C936 H961 0.950 . S
C937 C936 1.349 . S
C937 C953 1.349 . S
C938 C936 1.327 . S
C938 C957 1.429 . S
C938 H962 0.950 . S
C939 C956 1.574 . S
C939 C958 1.368 . S
C939 H963 0.949 . S
H940 C944 0.949 . S
C941 C942 1.349 . S
C941 C943 1.327 . S
C941 H964 0.950 . S
C942 C941 1.349 . S
C942 C954 1.349 . S
C943 C941 1.327 . S
C943 C959 1.429 . S
C943 H965 0.950 . S
C944 H940 0.949 . S
C944 C952 1.574 . S
C944 C960 1.368 . S
H945 C953 0.950 . S
H946 C951 0.950 . S
H947 C952 0.949 . S
H948 C954 0.950 . S
H949 C955 0.950 . S
H950 C956 0.949 . S
C951 H946 0.950 . S
C951 C953 1.327 . S
C951 C957 1.429 . S
C952 C944 1.574 . S
C952 H947 0.949 . S
C952 C958 1.368 . S
C953 C937 1.349 . S
C953 H945 0.950 . S
C953 C951 1.327 . S
C954 C942 1.349 . S
C954 H948 0.950 . S
C954 C955 1.327 . S
C955 H949 0.950 . S
C955 C954 1.327 . S
C955 C959 1.429 . S
C956 C939 1.574 . S
C956 H950 0.949 . S
C956 C960 1.368 . S
C957 C938 1.429 . S
C957 C951 1.429 . S
C957 C958 1.523 . S
C958 C939 1.368 . S
C958 C952 1.368 . S
C958 C957 1.523 . S
C959 C943 1.429 . S
C959 C955 1.429 . S
C959 C960 1.523 . S
C960 C944 1.368 . S
C960 C956 1.368 . S
C960 C959 1.523 . S
H961 C936 0.950 . S
H962 C938 0.950 . S
H963 C939 0.949 . S
H964 C941 0.950 . S
H965 C943 0.950 . S
C966 C967 1.349 . S
C966 C968 1.327 . S
C966 H991 0.950 . S
C967 C966 1.349 . S
C967 C983 1.349 . S
C968 C966 1.327 . S
C968 C987 1.429 . S
C968 H992 0.934 1_554 S
C969 C986 1.574 . S
C969 C988 1.368 . S
C969 H993 0.949 . S
H970 C974 0.949 . S
C971 C972 1.349 . S
C971 C973 1.327 . S
C971 H994 0.950 . S
C972 C971 1.349 . S
C972 C984 1.349 . S
C973 C971 1.327 . S
C973 C989 1.429 . S
C973 H995 0.950 . S
C974 H970 0.949 . S
C974 C982 1.574 . S
C974 C990 1.368 . S
H975 C983 0.950 1_455 S
H976 C981 0.950 . S
H977 C982 0.949 . S
H978 C984 0.950 . S
H979 C985 0.950 . S
H980 C986 0.949 . S
C981 H976 0.950 . S
C981 C983 1.327 . S
C981 C987 1.429 . S
C982 C974 1.574 . S
C982 H977 0.949 . S
C982 C988 1.368 1_556 S
C983 C967 1.349 . S
C983 H975 0.950 1_655 S
C983 C981 1.327 . S
C984 C972 1.349 . S
C984 H978 0.950 . S
C984 C985 1.327 . S
C985 H979 0.950 . S
C985 C984 1.327 . S
C985 C989 1.429 . S
C986 C969 1.574 . S
C986 H980 0.949 . S
C986 C990 1.368 1_554 S
C987 C968 1.429 . S
C987 C981 1.429 . S
C987 C988 1.523 . S
C988 C969 1.368 . S
C988 C982 1.368 1_554 S
C988 C987 1.523 . S
C989 C973 1.429 . S
C989 C985 1.429 . S
C989 C990 1.523 . S
C990 C974 1.368 . S
C990 C986 1.368 1_556 S
C990 C989 1.523 . S
H991 C966 0.950 . S
H992 C968 0.934 1_556 S
H993 C969 0.949 . S
H994 C971 0.950 . S
H995 C973 0.950 . S
C996 C997 1.349 . S
C996 C998 1.327 . S
C996 H1021 0.950 . S
C997 C996 1.349 . S
C997 C1013 1.349 . S
C998 C996 1.327 . S
C998 C1017 1.429 . S
C998 H1022 0.950 . S
C999 C1016 1.574 . S
C999 C1018 1.368 . S
C999 H1023 0.949 . S
H1000 C1004 0.949 . S
C1001 C1002 1.349 . S
C1001 C1003 1.327 . S
C1001 H1024 0.950 . S
C1002 C1001 1.349 . S
C1002 C1014 1.349 . S
C1003 C1001 1.327 . S
C1003 C1019 1.429 . S
C1003 H1025 0.950 . S
C1004 H1000 0.949 . S
C1004 C1012 1.574 . S
C1004 C1020 1.368 . S
H1005 C1013 0.950 . S
H1006 C1011 0.950 . S
H1007 C1012 0.949 . S
H1008 C1014 0.950 . S
H1009 C1015 0.950 . S
H1010 C1016 0.949 . S
C1011 H1006 0.950 . S
C1011 C1013 1.327 . S
C1011 C1017 1.429 . S
C1012 C1004 1.574 . S
C1012 H1007 0.949 . S
C1012 C1018 1.368 . S
C1013 C997 1.349 . S
C1013 H1005 0.950 . S
C1013 C1011 1.327 . S
C1014 C1002 1.349 . S
C1014 H1008 0.950 . S
C1014 C1015 1.327 . S
C1015 H1009 0.950 . S
C1015 C1014 1.327 . S
C1015 C1019 1.429 . S
C1016 C999 1.574 . S
C1016 H1010 0.949 . S
C1016 C1020 1.368 . S
C1017 C998 1.429 . S
C1017 C1011 1.429 . S
C1017 C1018 1.523 . S
C1018 C999 1.368 . S
C1018 C1012 1.368 . S
C1018 C1017 1.523 . S
C1019 C1003 1.429 . S
C1019 C1015 1.429 . S
C1019 C1020 1.523 . S
C1020 C1004 1.368 . S
C1020 C1016 1.368 . S
C1020 C1019 1.523 . S
H1021 C996 0.950 . S
H1022 C998 0.950 . S
H1023 C999 0.949 . S
H1024 C1001 0.950 . S
H1025 C1003 0.950 . S
C1026 C1027 1.349 . S
C1026 C1028 1.327 . S
C1026 H1051 0.950 . S
C1027 C1026 1.349 . S
C1027 C1043 1.349 . S
C1028 C1026 1.327 . S
C1028 C1047 1.429 . S
C1028 H1052 0.950 . S
C1029 C1046 1.574 . S
C1029 C1048 1.368 . S
C1029 H1053 0.949 . S
H1030 C1034 0.949 . S
C1031 C1032 1.349 . S
C1031 C1033 1.327 . S
C1031 H1054 0.950 . S
C1032 C1031 1.349 . S
C1032 C1044 1.349 . S
C1033 C1031 1.327 . S
C1033 C1049 1.429 . S
C1033 H1055 0.950 . S
C1034 H1030 0.949 . S
C1034 C1042 1.574 . S
C1034 C1050 1.368 . S
H1035 C1043 0.950 . S
H1036 C1041 0.950 . S
H1037 C1042 0.949 . S
H1038 C1044 0.950 . S
H1039 C1045 0.950 . S
H1040 C1046 0.949 . S
C1041 H1036 0.950 . S
C1041 C1043 1.327 . S
C1041 C1047 1.429 . S
C1042 C1034 1.574 . S
C1042 H1037 0.949 . S
C1042 C1048 1.368 . S
C1043 C1027 1.349 . S
C1043 H1035 0.950 . S
C1043 C1041 1.327 . S
C1044 C1032 1.349 . S
C1044 H1038 0.950 . S
C1044 C1045 1.327 . S
C1045 H1039 0.950 . S
C1045 C1044 1.327 . S
C1045 C1049 1.429 . S
C1046 C1029 1.574 . S
C1046 H1040 0.949 . S
C1046 C1050 1.368 . S
C1047 C1028 1.429 . S
C1047 C1041 1.429 . S
C1047 C1048 1.523 . S
C1048 C1029 1.368 . S
C1048 C1042 1.368 . S
C1048 C1047 1.523 . S
C1049 C1033 1.429 . S
C1049 C1045 1.429 . S
C1049 C1050 1.523 . S
C1050 C1034 1.368 . S
C1050 C1046 1.368 . S
C1050 C1049 1.523 . S
H1051 C1026 0.950 . S
H1052 C1028 0.950 . S
H1053 C1029 0.949 . S
H1054 C1031 0.950 . S
H1055 C1033 0.950 . S
C1056 C1057 1.349 . S
C1056 C1058 1.327 . S
C1056 H1081 0.950 . S
C1057 C1056 1.349 . S
C1057 C1073 1.349 . S
C1058 C1056 1.327 . S
C1058 C1077 1.429 . S
C1058 H1082 0.950 . S
C1059 C1076 1.574 . S
C1059 C1078 1.368 . S
C1059 H1083 0.949 . S
H1060 C1064 0.949 . S
C1061 C1062 1.349 . S
C1061 C1063 1.327 . S
C1061 H1084 0.950 . S
C1062 C1061 1.349 . S
C1062 C1074 1.349 . S
C1063 C1061 1.327 . S
C1063 C1079 1.429 . S
C1063 H1085 0.950 . S
C1064 H1060 0.949 . S
C1064 C1072 1.574 . S
C1064 C1080 1.368 . S
H1065 C1073 0.950 . S
H1066 C1071 0.950 . S
H1067 C1072 0.949 . S
H1068 C1074 0.950 . S
H1069 C1075 0.950 . S
H1070 C1076 0.949 . S
C1071 H1066 0.950 . S
C1071 C1073 1.327 . S
C1071 C1077 1.429 . S
C1072 C1064 1.574 . S
C1072 H1067 0.949 . S
C1072 C1078 1.368 . S
C1073 C1057 1.349 . S
C1073 H1065 0.950 . S
C1073 C1071 1.327 . S
C1074 C1062 1.349 . S
C1074 H1068 0.950 . S
C1074 C1075 1.327 . S
C1075 H1069 0.950 . S
C1075 C1074 1.327 . S
C1075 C1079 1.429 . S
C1076 C1059 1.574 . S
C1076 H1070 0.949 . S
C1076 C1080 1.368 . S
C1077 C1058 1.429 . S
C1077 C1071 1.429 . S
C1077 C1078 1.523 . S
C1078 C1059 1.368 . S
C1078 C1072 1.368 . S
C1078 C1077 1.523 . S
C1079 C1063 1.429 . S
C1079 C1075 1.429 . S
C1079 C1080 1.523 . S
C1080 C1064 1.368 . S
C1080 C1076 1.368 . S
C1080 C1079 1.523 . S
H1081 C1056 0.950 . S
H1082 C1058 0.950 . S
H1083 C1059 0.949 . S
H1084 C1061 0.950 . S
H1085 C1063 0.950 . S
C1086 C1087 1.349 . S
C1086 C1088 1.327 . S
C1086 H1111 0.950 . S
C1087 C1086 1.349 . S
C1087 C1103 1.349 . S
C1088 C1086 1.327 . S
C1088 C1107 1.429 . S
C1088 H1112 0.950 . S
C1089 C1106 1.574 . S
C1089 C1108 1.368 . S
C1089 H1113 0.949 . S
H1090 C1094 0.949 . S
C1091 C1092 1.349 . S
C1091 C1093 1.327 . S
C1091 H1114 0.950 . S
C1092 C1091 1.349 . S
C1092 C1104 1.349 . S
C1093 C1091 1.327 . S
C1093 C1109 1.429 . S
C1093 H1115 0.950 . S
C1094 H1090 0.949 . S
C1094 C1102 1.574 . S
C1094 C1110 1.368 . S
H1095 C1103 0.950 . S
H1096 C1101 0.950 . S
H1097 C1102 0.949 . S
H1098 C1104 0.950 . S
H1099 C1105 0.950 . S
H1100 C1106 0.949 . S
C1101 H1096 0.950 . S
C1101 C1103 1.327 . S
C1101 C1107 1.429 . S
C1102 C1094 1.574 . S
C1102 H1097 0.949 . S
C1102 C1108 1.368 . S
C1103 C1087 1.349 . S
C1103 H1095 0.950 . S
C1103 C1101 1.327 . S
C1104 C1092 1.349 . S
C1104 H1098 0.950 . S
C1104 C1105 1.327 . S
C1105 H1099 0.950 . S
C1105 C1104 1.327 . S
C1105 C1109 1.429 . S
C1106 C1089 1.574 . S
C1106 H1100 0.949 . S
C1106 C1110 1.368 . S
C1107 C1088 1.429 . S
C1107 C1101 1.429 . S
C1107 C1108 1.523 . S
C1108 C1089 1.368 . S
C1108 C1102 1.368 . S
C1108 C1107 1.523 . S
C1109 C1093 1.429 . S
C1109 C1105 1.429 . S
C1109 C1110 1.523 . S
C1110 C1094 1.368 . S
C1110 C1106 1.368 . S
C1110 C1109 1.523 . S
H1111 C1086 0.950 . S
H1112 C1088 0.950 . S
H1113 C1089 0.949 . S
H1114 C1091 0.950 . S
H1115 C1093 0.950 . S
C1116 C1117 1.349 1_655 S
C1116 C1118 1.327 . S
C1116 H1141 0.950 . S
C1117 C1116 1.349 1_455 S
C1117 C1133 1.349 . S
C1118 C1116 1.327 . S
C1118 C1137 1.429 1_655 S
C1118 H1142 0.950 . S
C1119 C1136 1.574 . S
C1119 C1138 1.368 . S
C1119 H1143 0.949 . S
H1120 C1124 0.949 . S
C1121 C1122 1.349 . S
C1121 C1123 1.327 . S
C1121 H1144 0.950 . S
C1122 C1121 1.349 . S
C1122 C1134 1.349 1_455 S
C1123 C1121 1.327 . S
C1123 C1139 1.429 . S
C1123 H1145 0.950 . S
C1124 H1120 0.949 . S
C1124 C1132 1.574 . S
C1124 C1140 1.368 1_655 S
H1125 C1133 0.950 . S
H1126 C1131 0.950 . S
H1127 C1132 0.949 . S
H1128 C1134 0.950 . S
H1129 C1135 0.950 . S
H1130 C1136 0.949 . S
C1131 H1126 0.950 . S
C1131 C1133 1.327 . S
C1131 C1137 1.429 . S
C1132 C1124 1.574 . S
C1132 H1127 0.949 . S
C1132 C1138 1.368 1_655 S
C1133 C1117 1.349 . S
C1133 H1125 0.950 . S
C1133 C1131 1.327 . S
C1134 C1122 1.349 1_655 S
C1134 H1128 0.950 . S
C1134 C1135 1.327 . S
C1135 H1129 0.950 . S
C1135 C1134 1.327 . S
C1135 C1139 1.429 1_655 S
C1136 C1119 1.574 . S
C1136 H1130 0.949 . S
C1136 C1140 1.368 . S
C1137 C1118 1.429 1_455 S
C1137 C1131 1.429 . S
C1137 C1138 1.523 . S
C1138 C1119 1.368 . S
C1138 C1132 1.368 1_455 S
C1138 C1137 1.523 . S
C1139 C1123 1.429 . S
C1139 C1135 1.429 1_455 S
C1139 C1140 1.523 . S
C1140 C1124 1.368 1_455 S
C1140 C1136 1.368 . S
C1140 C1139 1.523 . S
H1141 C1116 0.950 . S
H1142 C1118 0.950 . S
H1143 C1119 0.949 . S
H1144 C1121 0.950 . S
H1145 C1123 0.950 . S
C1146 C1147 1.349 . S
C1146 C1148 1.327 . S
C1146 H1171 0.950 . S
C1147 C1146 1.349 . S
C1147 C1163 1.349 1_545 S
C1148 C1146 1.327 . S
C1148 C1167 1.429 . S
C1148 H1172 0.950 . S
C1149 C1166 1.574 . S
C1149 C1168 1.368 1_565 S
C1149 H1173 0.949 . S
H1150 C1154 0.949 . S
C1151 C1152 1.349 1_565 S
C1151 C1153 1.327 . S
C1151 H1174 0.950 . S
C1152 C1151 1.349 1_545 S
C1152 C1164 1.349 . S
C1153 C1151 1.327 . S
C1153 C1169 1.429 1_565 S
C1153 H1175 0.950 . S
C1154 H1150 0.949 . S
C1154 C1162 1.574 . S
C1154 C1170 1.368 . S
H1155 C1163 0.950 . S
H1156 C1161 0.950 . S
H1157 C1162 0.949 . S
H1158 C1164 0.950 . S
H1159 C1165 0.950 . S
H1160 C1166 0.949 . S
C1161 H1156 0.950 . S
C1161 C1163 1.327 . S
C1161 C1167 1.429 1_565 S
C1162 C1154 1.574 . S
C1162 H1157 0.949 . S
C1162 C1168 1.368 . S
C1163 C1147 1.349 1_565 S
C1163 H1155 0.950 . S
C1163 C1161 1.327 . S
C1164 C1152 1.349 . S
C1164 H1158 0.950 . S
C1164 C1165 1.327 . S
C1165 H1159 0.950 . S
C1165 C1164 1.327 . S
C1165 C1169 1.429 . S
C1166 C1149 1.574 . S
C1166 H1160 0.949 . S
C1166 C1170 1.368 1_565 S
C1167 C1148 1.429 . S
C1167 C1161 1.429 1_545 S
C1167 C1168 1.523 . S
C1168 C1149 1.368 1_545 S
C1168 C1162 1.368 . S
C1168 C1167 1.523 . S
C1169 C1153 1.429 1_545 S
C1169 C1165 1.429 . S
C1169 C1170 1.523 . S
C1170 C1154 1.368 . S
C1170 C1166 1.368 1_545 S
C1170 C1169 1.523 . S
H1171 C1146 0.950 . S
H1172 C1148 0.950 . S
H1173 C1149 0.949 . S
H1174 C1151 0.950 . S
H1175 C1153 0.950 . S
C1176 C1177 1.349 . S
C1176 C1178 1.327 . S
C1176 H1201 0.950 . S
C1177 C1176 1.349 . S
C1177 C1193 1.349 . S
C1178 C1176 1.327 . S
C1178 C1197 1.429 . S
C1178 H1202 0.950 . S
C1179 C1196 1.574 . S
C1179 C1198 1.368 . S
C1179 H1203 0.949 . S
H1180 C1184 0.949 . S
C1181 C1182 1.349 . S
C1181 C1183 1.327 . S
C1181 H1204 0.950 . S
C1182 C1181 1.349 . S
C1182 C1194 1.349 . S
C1183 C1181 1.327 . S
C1183 C1199 1.429 . S
C1183 H1205 0.950 . S
C1184 H1180 0.949 . S
C1184 C1192 1.574 . S
C1184 C1200 1.368 . S
H1185 C1193 0.950 . S
H1186 C1191 0.950 . S
H1187 C1192 0.949 . S
H1188 C1194 0.950 . S
H1189 C1195 0.950 . S
H1190 C1196 0.949 . S
C1191 H1186 0.950 . S
C1191 C1193 1.327 . S
C1191 C1197 1.429 . S
C1192 C1184 1.574 . S
C1192 H1187 0.949 . S
C1192 C1198 1.368 . S
C1193 C1177 1.349 . S
C1193 H1185 0.950 . S
C1193 C1191 1.327 . S
C1194 C1182 1.349 . S
C1194 H1188 0.950 . S
C1194 C1195 1.327 . S
C1195 H1189 0.950 . S
C1195 C1194 1.327 . S
C1195 C1199 1.429 . S
C1196 C1179 1.574 . S
C1196 H1190 0.949 . S
C1196 C1200 1.368 . S
C1197 C1178 1.429 . S
C1197 C1191 1.429 . S
C1197 C1198 1.523 . S
C1198 C1179 1.368 . S
C1198 C1192 1.368 . S
C1198 C1197 1.523 . S
C1199 C1183 1.429 . S
C1199 C1195 1.429 . S
C1199 C1200 1.523 . S
C1200 C1184 1.368 . S
C1200 C1196 1.368 . S
C1200 C1199 1.523 . S
H1201 C1176 0.950 . S
H1202 C1178 0.950 . S
H1203 C1179 0.949 . S
H1204 C1181 0.950 . S
H1205 C1183 0.950 . S
C1206 C1207 1.349 . S
C1206 C1208 1.327 . S
C1206 H1231 0.950 . S
C1207 C1206 1.349 . S
C1207 C1223 1.349 1_655 S
C1208 C1206 1.327 . S
C1208 C1227 1.429 . S
C1208 H1232 0.950 . S
C1209 C1226 1.574 . S
C1209 C1228 1.368 1_455 S
C1209 H1233 0.949 . S
H1210 C1214 0.949 . S
C1211 C1212 1.349 1_455 S
C1211 C1213 1.327 . S
C1211 H1234 0.950 . S
C1212 C1211 1.349 1_655 S
C1212 C1224 1.349 . S
C1213 C1211 1.327 . S
C1213 C1229 1.429 1_455 S
C1213 H1235 0.950 . S
C1214 H1210 0.949 . S
C1214 C1222 1.574 . S
C1214 C1230 1.368 . S
H1215 C1223 0.950 . S
H1216 C1221 0.950 . S
H1217 C1222 0.949 . S
H1218 C1224 0.950 . S
H1219 C1225 0.950 . S
H1220 C1226 0.949 . S
C1221 H1216 0.950 . S
C1221 C1223 1.327 . S
C1221 C1227 1.429 1_455 S
C1222 C1214 1.574 . S
C1222 H1217 0.949 . S
C1222 C1228 1.368 . S
C1223 C1207 1.349 1_455 S
C1223 H1215 0.950 . S
C1223 C1221 1.327 . S
C1224 C1212 1.349 . S
C1224 H1218 0.950 . S
C1224 C1225 1.327 . S
C1225 H1219 0.950 . S
C1225 C1224 1.327 . S
C1225 C1229 1.429 . S
C1226 C1209 1.574 . S
C1226 H1220 0.949 . S
C1226 C1230 1.368 1_455 S
C1227 C1208 1.429 . S
C1227 C1221 1.429 1_655 S
C1227 C1228 1.523 . S
C1228 C1209 1.368 1_655 S
C1228 C1222 1.368 . S
C1228 C1227 1.523 . S
C1229 C1213 1.429 1_655 S
C1229 C1225 1.429 . S
C1229 C1230 1.523 . S
C1230 C1214 1.368 . S
C1230 C1226 1.368 1_655 S
C1230 C1229 1.523 . S
H1231 C1206 0.950 . S
H1232 C1208 0.950 . S
H1233 C1209 0.949 . S
H1234 C1211 0.950 . S
H1235 C1213 0.950 . S
C1236 C1237 1.349 . S
C1236 C1238 1.327 . S
C1236 H1261 0.950 . S
C1237 C1236 1.349 . S
C1237 C1253 1.349 1_565 S
C1238 C1236 1.327 . S
C1238 C1257 1.429 . S
C1238 H1262 0.950 . S
C1239 C1256 1.574 . S
C1239 C1258 1.368 1_545 S
C1239 H1263 0.949 . S
H1240 C1244 0.949 . S
C1241 C1242 1.349 1_545 S
C1241 C1243 1.327 . S
C1241 H1264 0.950 . S
C1242 C1241 1.349 1_565 S
C1242 C1254 1.349 . S
C1243 C1241 1.327 . S
C1243 C1259 1.429 1_545 S
C1243 H1265 0.950 . S
C1244 H1240 0.949 . S
C1244 C1252 1.574 . S
C1244 C1260 1.368 . S
H1245 C1253 0.950 . S
H1246 C1251 0.950 . S
H1247 C1252 0.949 . S
H1248 C1254 0.950 . S
H1249 C1255 0.950 . S
H1250 C1256 0.949 . S
C1251 H1246 0.950 . S
C1251 C1253 1.327 . S
C1251 C1257 1.429 1_545 S
C1252 C1244 1.574 . S
C1252 H1247 0.949 . S
C1252 C1258 1.368 . S
C1253 C1237 1.349 1_545 S
C1253 H1245 0.950 . S
C1253 C1251 1.327 . S
C1254 C1242 1.349 . S
C1254 H1248 0.950 . S
C1254 C1255 1.327 . S
C1255 H1249 0.950 . S
C1255 C1254 1.327 . S
C1255 C1259 1.429 . S
C1256 C1239 1.574 . S
C1256 H1250 0.949 . S
C1256 C1260 1.368 1_545 S
C1257 C1238 1.429 . S
C1257 C1251 1.429 1_565 S
C1257 C1258 1.523 . S
C1258 C1239 1.368 1_565 S
C1258 C1252 1.368 . S
C1258 C1257 1.523 . S
C1259 C1243 1.429 1_565 S
C1259 C1255 1.429 . S
C1259 C1260 1.523 . S
C1260 C1244 1.368 . S
C1260 C1256 1.368 1_565 S
C1260 C1259 1.523 . S
H1261 C1236 0.950 . S
H1262 C1238 0.950 . S
H1263 C1239 0.949 . S
H1264 C1241 0.950 . S
H1265 C1243 0.950 . S
C1266 C1267 1.349 . S
C1266 C1268 1.327 . S
C1266 H1291 0.950 . S
C1267 C1266 1.349 . S
C1267 C1283 1.349 . S
C1268 C1266 1.327 . S
C1268 C1287 1.429 . S
C1268 H1292 0.950 . S
C1269 C1286 1.574 . S
C1269 C1288 1.368 . S
C1269 H1293 0.949 . S
H1270 C1274 0.949 . S
C1271 C1272 1.349 . S
C1271 C1273 1.327 . S
C1271 H1294 0.950 . S
C1272 C1271 1.349 . S
C1272 C1284 1.349 . S
C1273 C1271 1.327 . S
C1273 C1289 1.429 . S
C1273 H1295 0.950 . S
C1274 H1270 0.949 . S
C1274 C1282 1.574 . S
C1274 C1290 1.368 . S
H1275 C1283 0.950 . S
H1276 C1281 0.950 . S
H1277 C1282 0.949 . S
H1278 C1284 0.950 . S
H1279 C1285 0.950 . S
H1280 C1286 0.949 . S
C1281 H1276 0.950 . S
C1281 C1283 1.327 . S
C1281 C1287 1.429 . S
C1282 C1274 1.574 . S
C1282 H1277 0.949 . S
C1282 C1288 1.368 . S
C1283 C1267 1.349 . S
C1283 H1275 0.950 . S
C1283 C1281 1.327 . S
C1284 C1272 1.349 . S
C1284 H1278 0.950 . S
C1284 C1285 1.327 . S
C1285 H1279 0.950 . S
C1285 C1284 1.327 . S
C1285 C1289 1.429 . S
C1286 C1269 1.574 . S
C1286 H1280 0.949 . S
C1286 C1290 1.368 . S
C1287 C1268 1.429 . S
C1287 C1281 1.429 . S
C1287 C1288 1.523 . S
C1288 C1269 1.368 . S
C1288 C1282 1.368 . S
C1288 C1287 1.523 . S
C1289 C1273 1.429 . S
C1289 C1285 1.429 . S
C1289 C1290 1.523 . S
C1290 C1274 1.368 . S
C1290 C1286 1.368 . S
C1290 C1289 1.523 . S
H1291 C1266 0.950 . S
H1292 C1268 0.950 . S
H1293 C1269 0.949 . S
H1294 C1271 0.950 . S
H1295 C1273 0.950 . S
C397 C238 1.350 . S
C402 C7 1.350 . S
C427 C271 1.351 . S
C432 C40 1.351 . S
C457 C73 1.351 . S
C462 C304 1.351 . S
C487 C337 1.351 . S
C492 C106 1.351 . S
C517 C139 1.351 . S
C522 C370 1.351 . S
C547 C205 1.350 . S
C552 C172 1.350 . S
C577 N2 1.810 . S
C582 N266 1.810 . S
C607 N35 1.810 . S
C612 N299 1.810 . S
C637 N332 1.810 . S
C642 N68 1.810 . S
C667 N365 1.810 . S
C672 N101 1.810 . S
C697 N134 1.810 . S
C702 N200 1.810 . S
C727 N233 1.810 . S
C732 N167 1.810 . S
C757 N244 1.096 . S
C762 C21 1.111 . S
C787 N277 1.096 . S
C792 C54 1.111 . S
C817 N310 1.096 . S
C822 C87 1.111 . S
C847 C120 1.111 . S
C852 N343 1.096 . S
C877 N376 1.096 . S
C882 C153 1.111 . S
C907 C186 1.111 . S
C912 N211 1.096 . S
C937 C219 1.111 . S
C942 N178 1.096 . S
C967 N13 1.096 . S
C972 C252 1.111 . S
C997 N46 1.096 . S
C1002 C285 1.111 . S
C1027 N79 1.096 . S
C1032 C318 1.111 . S
C1057 N112 1.096 . S
C1062 C351 1.111 . S
C1087 N145 1.096 . S
C1092 C384 1.111 . S
C1117 C282 1.391 . S
C1122 C18 1.391 . S
C1147 C51 1.391 . S
C1152 C315 1.391 . S
C1177 C348 1.391 . S
C1182 C84 1.391 . S
C1207 C117 1.391 . S
C1212 C381 1.391 . S
C1237 C150 1.391 . S
C1242 C216 1.391 . S
C1267 C249 1.391 . S
C1272 C183 1.391 . S
