# Generated by pormake.
# Topology smd, (6)-cn, num edge types: 1
# Building blocks:
#     Node 0, Type 0, BuildingBlock: JUFBIX_clean_sbu_0, # of connection points: 6
#     Node 1, Type 0, BuildingBlock: JUFBIX_clean_sbu_0, # of connection points: 6
#     Node 2, Type 0, BuildingBlock: JUFBIX_clean_sbu_0, # of connection points: 6
#     Node 3, Type 0, BuildingBlock: JUFBIX_clean_sbu_0, # of connection points: 6
#     Node 4, Type 0, BuildingBlock: JUFBIX_clean_sbu_0, # of connection points: 6
#     Node 5, Type 0, BuildingBlock: JUFBIX_clean_sbu_0, # of connection points: 6
#     Node 6, Type 0, BuildingBlock: JUFBIX_clean_sbu_0, # of connection points: 6
#     Node 7, Type 0, BuildingBlock: JUFBIX_clean_sbu_0, # of connection points: 6
#     Node 8, Type 0, BuildingBlock: JUFBIX_clean_sbu_0, # of connection points: 6
#     Node 9, Type 0, BuildingBlock: JUFBIX_clean_sbu_0, # of connection points: 6
#     Node 10, Type 0, BuildingBlock: JUFBIX_clean_sbu_0, # of connection points: 6
#     Node 11, Type 0, BuildingBlock: JUFBIX_clean_sbu_0, # of connection points: 6
#     Node 12, Type 0, BuildingBlock: JUFBIX_clean_sbu_0, # of connection points: 6
#     Node 13, Type 0, BuildingBlock: JUFBIX_clean_sbu_0, # of connection points: 6
#     Node 14, Type 0, BuildingBlock: JUFBIX_clean_sbu_0, # of connection points: 6
#     Node 15, Type 0, BuildingBlock: JUFBIX_clean_sbu_0, # of connection points: 6
#     Node 16, Type 0, BuildingBlock: JUFBIX_clean_sbu_0, # of connection points: 6
#     Node 17, Type 0, BuildingBlock: JUFBIX_clean_sbu_0, # of connection points: 6
#     Edge 18, Type (0, 0), BuildingBlock: KIFKEQ_clean_linker_1, # of connection points: 2
#     Edge 19, Type (0, 0), BuildingBlock: KIFKEQ_clean_linker_1, # of connection points: 2
#     Edge 20, Type (0, 0), BuildingBlock: KIFKEQ_clean_linker_1, # of connection points: 2
#     Edge 21, Type (0, 0), BuildingBlock: KIFKEQ_clean_linker_1, # of connection points: 2
#     Edge 22, Type (0, 0), BuildingBlock: KIFKEQ_clean_linker_1, # of connection points: 2
#     Edge 23, Type (0, 0), BuildingBlock: KIFKEQ_clean_linker_1, # of connection points: 2
#     Edge 24, Type (0, 0), BuildingBlock: KIFKEQ_clean_linker_1, # of connection points: 2
#     Edge 25, Type (0, 0), BuildingBlock: KIFKEQ_clean_linker_1, # of connection points: 2
#     Edge 26, Type (0, 0), BuildingBlock: KIFKEQ_clean_linker_1, # of connection points: 2
#     Edge 27, Type (0, 0), BuildingBlock: KIFKEQ_clean_linker_1, # of connection points: 2
#     Edge 28, Type (0, 0), BuildingBlock: KIFKEQ_clean_linker_1, # of connection points: 2
#     Edge 29, Type (0, 0), BuildingBlock: KIFKEQ_clean_linker_1, # of connection points: 2
#     Edge 30, Type (0, 0), BuildingBlock: KIFKEQ_clean_linker_1, # of connection points: 2
#     Edge 31, Type (0, 0), BuildingBlock: KIFKEQ_clean_linker_1, # of connection points: 2
#     Edge 32, Type (0, 0), BuildingBlock: KIFKEQ_clean_linker_1, # of connection points: 2
#     Edge 33, Type (0, 0), BuildingBlock: KIFKEQ_clean_linker_1, # of connection points: 2
#     Edge 34, Type (0, 0), BuildingBlock: KIFKEQ_clean_linker_1, # of connection points: 2
#     Edge 35, Type (0, 0), BuildingBlock: KIFKEQ_clean_linker_1, # of connection points: 2
#     Edge 36, Type (0, 0), BuildingBlock: KIFKEQ_clean_linker_1, # of connection points: 2
#     Edge 37, Type (0, 0), BuildingBlock: KIFKEQ_clean_linker_1, # of connection points: 2
#     Edge 38, Type (0, 0), BuildingBlock: KIFKEQ_clean_linker_1, # of connection points: 2
#     Edge 39, Type (0, 0), BuildingBlock: KIFKEQ_clean_linker_1, # of connection points: 2
#     Edge 40, Type (0, 0), BuildingBlock: KIFKEQ_clean_linker_1, # of connection points: 2
#     Edge 41, Type (0, 0), BuildingBlock: KIFKEQ_clean_linker_1, # of connection points: 2
#     Edge 42, Type (0, 0), BuildingBlock: KIFKEQ_clean_linker_1, # of connection points: 2
#     Edge 43, Type (0, 0), BuildingBlock: KIFKEQ_clean_linker_1, # of connection points: 2
#     Edge 44, Type (0, 0), BuildingBlock: KIFKEQ_clean_linker_1, # of connection points: 2
#     Edge 45, Type (0, 0), BuildingBlock: KIFKEQ_clean_linker_1, # of connection points: 2
#     Edge 46, Type (0, 0), BuildingBlock: KIFKEQ_clean_linker_1, # of connection points: 2
#     Edge 47, Type (0, 0), BuildingBlock: KIFKEQ_clean_linker_1, # of connection points: 2
#     Edge 48, Type (0, 0), BuildingBlock: KIFKEQ_clean_linker_1, # of connection points: 2
#     Edge 49, Type (0, 0), BuildingBlock: KIFKEQ_clean_linker_1, # of connection points: 2
#     Edge 50, Type (0, 0), BuildingBlock: KIFKEQ_clean_linker_1, # of connection points: 2
#     Edge 51, Type (0, 0), BuildingBlock: KIFKEQ_clean_linker_1, # of connection points: 2
#     Edge 52, Type (0, 0), BuildingBlock: KIFKEQ_clean_linker_1, # of connection points: 2
#     Edge 53, Type (0, 0), BuildingBlock: KIFKEQ_clean_linker_1, # of connection points: 2
#     Edge 54, Type (0, 0), BuildingBlock: KIFKEQ_clean_linker_1, # of connection points: 2
#     Edge 55, Type (0, 0), BuildingBlock: KIFKEQ_clean_linker_1, # of connection points: 2
#     Edge 56, Type (0, 0), BuildingBlock: KIFKEQ_clean_linker_1, # of connection points: 2
#     Edge 57, Type (0, 0), BuildingBlock: KIFKEQ_clean_linker_1, # of connection points: 2
#     Edge 58, Type (0, 0), BuildingBlock: KIFKEQ_clean_linker_1, # of connection points: 2
#     Edge 59, Type (0, 0), BuildingBlock: KIFKEQ_clean_linker_1, # of connection points: 2
#     Edge 60, Type (0, 0), BuildingBlock: KIFKEQ_clean_linker_1, # of connection points: 2
#     Edge 61, Type (0, 0), BuildingBlock: KIFKEQ_clean_linker_1, # of connection points: 2
#     Edge 62, Type (0, 0), BuildingBlock: KIFKEQ_clean_linker_1, # of connection points: 2
#     Edge 63, Type (0, 0), BuildingBlock: KIFKEQ_clean_linker_1, # of connection points: 2
#     Edge 64, Type (0, 0), BuildingBlock: KIFKEQ_clean_linker_1, # of connection points: 2
#     Edge 65, Type (0, 0), BuildingBlock: KIFKEQ_clean_linker_1, # of connection points: 2
#     Edge 66, Type (0, 0), BuildingBlock: KIFKEQ_clean_linker_1, # of connection points: 2
#     Edge 67, Type (0, 0), BuildingBlock: KIFKEQ_clean_linker_1, # of connection points: 2
#     Edge 68, Type (0, 0), BuildingBlock: KIFKEQ_clean_linker_1, # of connection points: 2
#     Edge 69, Type (0, 0), BuildingBlock: KIFKEQ_clean_linker_1, # of connection points: 2
#     Edge 70, Type (0, 0), BuildingBlock: KIFKEQ_clean_linker_1, # of connection points: 2
#     Edge 71, Type (0, 0), BuildingBlock: KIFKEQ_clean_linker_1, # of connection points: 2
# Relax obj value: 0.306
# Max RMSD: 0.259
# Mean RMSD: 0.217
data_MOF--net-smd--node1-JUFBIX_clean_sbu_0--edge1-KIFKEQ_clean_linker_1
_symmetry_space_group_name_H-M    P1
_symmetry_Int_Tables_number       1
_symmetry_cell_setting            triclinic
loop_
_symmetry_equiv_pos_as_xyz
'x, y, z'
_cell_length_a     75.995228
_cell_length_b     83.82848
_cell_length_c     15.191007
_cell_angle_alpha  91.981833
_cell_angle_beta   91.773874
_cell_angle_gamma 120.07806
loop_
_atom_site_label
_atom_site_type_symbol
_atom_site_fract_x
_atom_site_fract_y
_atom_site_fract_z
_atom_type_partial_charge
Co0 Co 0.13981 0.29529 0.62834 0.0
C1 C 0.10009 0.28986 0.61886 0.0
Co2 Co 0.11586 0.26575 0.62008 0.0
C3 C 0.15914 0.33149 0.56553 0.0
C4 C 0.17674 0.32982 0.67369 0.0
N5 N 0.15901 0.31997 0.62551 0.0
N6 N 0.17644 0.34804 0.57251 0.0
C7 C 0.18752 0.3471 0.64122 0.0
H8 H 0.14693 0.3275 0.51591 0.0
H9 H 0.1819 0.32448 0.72615 0.0
C10 C 0.15708 0.27304 0.6264 0.0
N11 N 0.09714 0.24025 0.62557 0.0
C12 C 0.07981 0.22745 0.57941 0.0
C13 C 0.10075 0.23042 0.68466 0.0
N14 N 0.07284 0.21015 0.60766 0.0
C15 C 0.08605 0.21222 0.6742 0.0
C16 C 0.12641 0.27845 0.45647 0.0
O17 O 0.16079 0.28957 0.63025 0.0
O18 O 0.13845 0.26011 0.62273 0.0
O19 O 0.11467 0.2638 0.49453 0.0
O20 O 0.13822 0.29314 0.50302 0.0
O21 O 0.09408 0.27251 0.61654 0.0
H22 H 0.11356 0.23612 0.73249 0.0
H23 H 0.07275 0.23067 0.52522 0.0
O24 O 0.11907 0.30135 0.62524 0.0
O25 O 0.14118 0.29712 0.75395 0.0
O26 O 0.11716 0.26805 0.74548 0.0
C27 C 0.1291 0.28266 0.79207 0.0
H28 H 0.20275 0.35773 0.66357 0.0
H29 H 0.08507 0.20133 0.71373 0.0
Co30 Co 0.8991 0.80462 0.57577 0.0
C31 C 0.86792 0.81228 0.56386 0.0
Co32 Co 0.91023 0.83517 0.58111 0.0
C33 C 0.87673 0.76369 0.6012 0.0
C34 C 0.90044 0.77297 0.51047 0.0
N35 N 0.89086 0.77913 0.56322 0.0
N36 N 0.87753 0.74838 0.57469 0.0
C37 C 0.89243 0.75434 0.51753 0.0
H38 H 0.86648 0.76376 0.6489 0.0
H39 H 0.91279 0.78159 0.46991 0.0
C40 C 0.94139 0.82666 0.59254 0.0
N41 N 0.91908 0.86087 0.59346 0.0
C42 C 0.9115 0.87132 0.5607 0.0
C43 C 0.93575 0.87308 0.64362 0.0
N44 N 0.92307 0.8895 0.58778 0.0
C45 C 0.93828 0.89046 0.63981 0.0
C46 C 0.90315 0.81872 0.74506 0.0
O47 O 0.9263 0.81035 0.58593 0.0
O48 O 0.93828 0.84027 0.59117 0.0
O49 O 0.90857 0.83361 0.70616 0.0
O50 O 0.89815 0.80384 0.69973 0.0
O51 O 0.88227 0.82911 0.56947 0.0
H52 H 0.9455 0.86957 0.68148 0.0
H53 H 0.89797 0.86578 0.51696 0.0
O54 O 0.87212 0.79938 0.56655 0.0
O55 O 0.90028 0.80616 0.45065 0.0
O56 O 0.91163 0.83607 0.45703 0.0
C57 C 0.90612 0.82109 0.41168 0.0
H58 H 0.89719 0.74578 0.48262 0.0
H59 H 0.95037 0.90292 0.67383 0.0
Co60 Co 0.33611 0.02724 0.59641 0.0
C61 C 0.36738 0.0641 0.60979 0.0
Co62 Co 0.3246 0.04695 0.59984 0.0
C63 C 0.35798 1.00871 0.53793 0.0
C64 C 0.33917 0.99614 0.64546 0.0
N65 N 0.34545 1.01053 0.59353 0.0
N66 N 0.3597 0.9937 0.55314 0.0
C67 C 0.34784 0.98584 0.62101 0.0
H68 H 0.3655 1.01815 0.48686 0.0
H69 H 0.32842 0.99301 0.69631 0.0
C70 C 0.29372 1.00905 0.58593 0.0
N71 N 0.31453 0.06347 0.60547 0.0
C72 C 0.32298 0.08152 0.58668 0.0
C73 C 0.29627 0.05914 0.63617 0.0
N74 N 0.31048 0.08834 0.60339 0.0
C75 C 0.2937 0.0742 0.63431 0.0
C76 C 0.33028 0.03749 0.43098 0.0
O77 O 0.30918 1.00707 0.58962 0.0
O78 O 0.29658 0.02546 0.5884 0.0
O79 O 0.32513 0.0476 0.47477 0.0
O80 O 0.33544 0.02731 0.47162 0.0
O81 O 0.35276 0.06753 0.61118 0.0
H82 H 0.28553 0.04592 0.66031 0.0
H83 H 0.3379 0.08947 0.56093 0.0
O84 O 0.36312 0.04735 0.60278 0.0
O85 O 0.33662 0.02754 0.72204 0.0
O86 O 0.32417 0.04615 0.72426 0.0
C87 C 0.33037 0.0368 0.76541 0.0
H88 H 0.34502 0.97317 0.64948 0.0
H89 H 0.28061 0.07483 0.65599 0.0
Co90 Co 0.11399 0.83488 0.58754 0.0
C91 C 0.07239 0.82317 0.58932 0.0
Co92 Co 0.09352 0.80395 0.57971 0.0
C93 C 0.15024 0.87316 0.57809 0.0
C94 C 0.12563 0.87171 0.64864 0.0
N95 N 0.13107 0.86103 0.60201 0.0
N96 N 0.15679 0.89088 0.60839 0.0
C97 C 0.14105 0.88976 0.65201 0.0
H98 H 0.15937 0.86898 0.54131 0.0
H99 H 0.1114 0.86669 0.68032 0.0
C100 C 0.13454 0.81543 0.57273 0.0
N101 N 0.07616 0.77789 0.56748 0.0
C102 C 0.07792 0.7637 0.59891 0.0
C103 C 0.05788 0.76949 0.52243 0.0
N104 N 0.0613 0.74692 0.57609 0.0
C105 C 0.04877 0.75068 0.528 0.0
C106 C 0.10266 0.82054 0.41659 0.0
O107 O 0.13701 0.83163 0.58166 0.0
O108 O 0.11673 0.80139 0.57306 0.0
O109 O 0.09274 0.80539 0.45441 0.0
O110 O 0.11318 0.83561 0.46315 0.0
O111 O 0.07048 0.80718 0.58574 0.0
H112 H 0.05151 0.77661 0.48743 0.0
H113 H 0.09096 0.76563 0.63891 0.0
O114 O 0.09015 0.83729 0.59074 0.0
O115 O 0.11439 0.83348 0.71241 0.0
O116 O 0.09478 0.80323 0.70445 0.0
C117 C 0.10493 0.81838 0.75067 0.0
H118 H 0.14053 0.90116 0.6847 0.0
H119 H 1.03408 0.74049 0.49772 0.0
Co120 Co 0.32131 0.26079 0.61138 0.0
C121 C 0.28833 0.2682 0.62164 0.0
Co122 Co 0.33002 0.29032 0.61879 0.0
C123 C 0.32225 0.22552 0.61445 0.0
C124 C 0.29442 0.22275 0.56096 0.0
N125 N 0.31262 0.23528 0.60033 0.0
N126 N 0.3107 0.20755 0.58444 0.0
C127 C 0.29319 0.20592 0.55163 0.0
H128 H 0.33774 0.23161 0.64181 0.0
H129 H 0.28296 0.22573 0.53613 0.0
C130 C 0.36349 0.28494 0.60985 0.0
N131 N 0.33837 0.31515 0.62325 0.0
C132 C 0.35112 0.32716 0.56708 0.0
C133 C 0.33203 0.32483 0.67211 0.0
N134 N 0.35275 0.3439 0.57688 0.0
C135 C 0.34084 0.34254 0.64369 0.0
C136 C 0.32782 0.27578 0.78244 0.0
O137 O 0.35042 0.26768 0.61106 0.0
O138 O 0.35725 0.29639 0.61221 0.0
O139 O 0.33248 0.29057 0.744 0.0
O140 O 0.32238 0.26088 0.73634 0.0
O141 O 0.30296 0.2847 0.62568 0.0
H142 H 0.32104 0.31916 0.72228 0.0
H143 H 0.35862 0.32338 0.51814 0.0
O144 O 0.29239 0.25516 0.61283 0.0
O145 O 0.32033 0.26091 0.48649 0.0
O146 O 0.32733 0.28962 0.4931 0.0
C147 C 0.32342 0.27515 0.44735 0.0
H148 H 0.28046 0.19343 0.52091 0.0
H149 H 0.33788 0.35323 0.66762 0.0
Co150 Co 0.91025 0.05127 0.50772 0.0
C151 C 0.94084 0.08879 0.5261 0.0
Co152 Co 0.89852 0.07116 0.51166 0.0
C153 C 0.91136 1.01591 0.52164 0.0
C154 C 0.93812 0.03839 0.47333 0.0
N155 N 0.91993 0.03414 0.50434 0.0
N156 N 0.92355 1.0088 0.50181 0.0
C157 C 0.94041 1.02315 0.47224 0.0
H158 H 0.89624 1.00787 0.54538 0.0
H159 H 0.94899 0.05167 0.4503 0.0
C160 C 0.86768 0.03484 0.49228 0.0
N161 N 0.88983 0.0887 0.51098 0.0
C162 C 0.87639 0.09129 0.55769 0.0
C163 C 0.89865 0.10352 0.46127 0.0
N164 N 0.8769 0.10728 0.53938 0.0
C165 C 0.89086 0.11486 0.4786 0.0
C166 C 0.9054 0.06179 0.34262 0.0
O167 O 0.88218 0.03125 0.49445 0.0
O168 O 0.87175 0.05154 0.49954 0.0
O169 O 0.89959 0.0714 0.38609 0.0
O170 O 0.91091 0.05189 0.38348 0.0
O171 O 0.92533 0.09066 0.52423 0.0
H172 H 0.91048 0.1062 0.41635 0.0
H173 H 0.86697 0.08202 0.60609 0.0
O174 O 0.93828 0.07249 0.52001 0.0
O175 O 0.90935 0.05097 0.63287 0.0
O176 O 0.89766 0.07035 0.636 0.0
C177 C 0.90332 0.06046 0.67648 0.0
H178 H 0.95362 1.02276 0.45063 0.0
H179 H 0.89518 0.12777 0.44871 0.0
Co180 Co 0.74737 0.58274 0.65476 0.0
C181 C 0.78779 0.61161 0.66096 0.0
Co182 Co 0.76953 0.57288 0.65641 0.0
C183 C 0.71685 0.58915 0.72133 0.0
C184 C 0.73033 0.60563 0.61192 0.0
N185 N 0.72944 0.59161 0.65613 0.0
N186 N 0.71094 0.60187 0.72417 0.0
C187 C 0.71901 0.61199 0.6537 0.0
H188 H 0.71379 0.57934 0.77129 0.0
H189 H 0.74042 0.61218 0.55947 0.0
C190 C 0.72765 0.54453 0.6498 0.0
N191 N 0.78782 0.56393 0.66066 0.0
C192 C 0.80748 0.57137 0.63839 0.0
C193 C 0.78402 0.54863 0.70216 0.0
N194 N 0.81597 0.56136 0.66565 0.0
C195 C 0.80113 0.54702 0.70521 0.0
C196 C 0.75959 0.57877 0.82345 0.0
O197 O 0.72526 0.55845 0.65022 0.0
O198 O 0.74582 0.54726 0.6523 0.0
O199 O 0.77023 0.57363 0.78157 0.0
O200 O 0.74853 0.5835 0.78055 0.0
O201 O 0.79222 0.59874 0.65979 0.0
H202 H 0.76997 0.53959 0.73235 0.0
H203 H 0.81572 0.58434 0.60707 0.0
O204 O 0.76922 0.6072 0.6595 0.0
O205 O 0.74673 0.58193 0.52939 0.0
O206 O 0.76879 0.57218 0.53133 0.0
C207 C 0.75765 0.57689 0.4881 0.0
H208 H 0.71887 0.62449 0.63946 0.0
H209 H 0.80266 0.53629 0.73596 0.0
Co210 Co 0.55502 0.14779 0.69313 0.0
C211 C 0.51961 0.14989 0.68801 0.0
Co212 Co 0.56128 0.17652 0.69831 0.0
C213 C 0.55715 0.11753 0.75539 0.0
C214 C 0.53681 0.10863 0.64068 0.0
N215 N 0.54983 0.12378 0.6918 0.0
N216 N 0.54882 0.0991 0.74849 0.0
C217 C 0.53614 0.09334 0.6757 0.0
H218 H 0.56758 0.12625 0.80936 0.0
H219 H 0.52748 0.10857 0.58527 0.0
C220 C 0.59639 0.17284 0.70477 0.0
N221 N 0.56754 0.20111 0.70559 0.0
C222 C 0.55884 0.21012 0.66811 0.0
C223 C 0.58363 0.21429 0.75561 0.0
N224 N 0.56921 0.22838 0.69227 0.0
C225 C 0.58477 0.23098 0.74701 0.0
C226 C 0.55797 0.16248 0.86333 0.0
O227 O 0.5829 0.15594 0.70259 0.0
O228 O 0.5907 0.18478 0.70129 0.0
O229 O 0.56185 0.17688 0.82391 0.0
O230 O 0.55418 0.14804 0.818 0.0
O231 O 0.53173 0.16741 0.69419 0.0
H232 H 0.59396 0.21193 0.79615 0.0
H233 H 0.54552 0.20355 0.62293 0.0
O234 O 0.52706 0.13931 0.68466 0.0
O235 O 0.55578 0.14785 0.56798 0.0
O236 O 0.56067 0.17608 0.57352 0.0
C237 C 0.55822 0.16194 0.52852 0.0
H238 H 0.52598 0.07905 0.65361 0.0
H239 H 0.59614 0.24409 0.77882 0.0
Co240 Co 0.04862 0.41141 0.63879 0.0
C241 C 0.03967 0.37432 0.63078 0.0
Co242 Co 1.01563 0.39134 0.63018 0.0
C243 C 0.08608 0.44151 0.71489 0.0
C244 C 0.0911 0.42863 0.60196 0.0
N245 N 0.07629 0.42789 0.6512 0.0
N246 N 0.10644 0.45064 0.7081 0.0
C247 C 0.10966 0.44261 0.63675 0.0
H248 H 0.07837 0.44449 0.76606 0.0
H249 H 0.0886 0.41928 0.54587 0.0
C250 C 1.026 0.42929 0.63815 0.0
N251 N 0.98755 0.37513 0.61664 0.0
C252 C 0.97533 0.35824 0.64743 0.0
C253 C 0.97477 0.37897 0.57072 0.0
N254 N 0.95549 0.35173 0.62334 0.0
C255 C 0.95515 0.36476 0.57535 0.0
C256 C 1.03103 0.40076 0.8015 0.0
O257 O 0.04387 0.43167 0.63923 0.0
O258 O 1.01104 0.41272 0.63601 0.0
O259 O 1.01474 0.39044 0.7547 0.0
O260 O 0.04734 0.41102 0.76369 0.0
O261 O 1.02111 0.37059 0.62514 0.0
H262 H 0.9794 0.3914 0.53604 0.0
H263 H 0.98077 0.35109 0.68815 0.0
O264 O 0.05363 0.39123 0.63796 0.0
O265 O 0.04954 0.41155 0.51403 0.0
O266 O 1.01661 0.39228 0.50542 0.0
C267 C 1.03306 0.40193 0.46742 0.0
H268 H 0.12441 0.44602 0.61362 0.0
H269 H 0.9416 0.36398 0.54541 0.0
Co270 Co 0.7727 0.18617 0.68358 0.0
C271 C 0.73148 0.17747 0.67928 0.0
Co272 Co 0.75005 0.15627 0.67537 0.0
C273 C 0.81098 0.22103 0.66455 0.0
C274 C 0.78796 0.22462 0.72428 0.0
N275 N 0.7915 0.21154 0.68929 0.0
N276 N 0.81944 0.23944 0.68176 0.0
C277 C 0.80494 0.24169 0.71908 0.0
H278 H 0.81877 0.21462 0.63412 0.0
H279 H 0.77401 0.22199 0.75338 0.0
C280 C 0.78992 0.16332 0.67865 0.0
N281 N 0.73141 0.13121 0.67348 0.0
C282 C 0.71926 0.12266 0.73954 0.0
C283 C 0.73057 0.11749 0.62129 0.0
N284 N 0.7118 0.10428 0.73407 0.0
C285 C 0.71852 0.10089 0.65851 0.0
C286 C 0.76036 0.17069 0.51195 0.0
O287 O 0.79471 0.18031 0.68321 0.0
O288 O 0.77126 0.15098 0.67461 0.0
O289 O 0.74899 0.15587 0.54973 0.0
O290 O 0.77186 0.18548 0.55872 0.0
O291 O 0.72857 0.16119 0.67628 0.0
H292 H 0.73976 0.11956 0.56519 0.0
H293 H 0.71745 0.12998 0.79539 0.0
O294 O 0.74978 0.19098 0.68277 0.0
O295 O 0.77357 0.18689 0.80888 0.0
O296 O 0.75172 0.15725 0.80106 0.0
C297 C 0.76287 0.1721 0.84732 0.0
H298 H 0.80668 0.25476 0.74285 0.0
H299 H 0.71684 0.08773 0.63704 0.0
Co300 Co 1.00687 0.57561 0.64519 0.0
C301 C 1.01981 0.5491 0.65114 0.0
Co302 Co 0.04037 0.58782 0.65549 0.0
C303 C 0.96644 0.57217 0.65184 0.0
C304 C 0.96623 0.54992 0.57743 0.0
N305 N 0.97858 0.56533 0.62837 0.0
N306 N 0.94714 0.56173 0.6164 0.0
C307 C 0.94704 0.54769 0.57002 0.0
H308 H 0.97187 0.585 0.69071 0.0
H309 H 0.97107 0.54122 0.54472 0.0
C310 C 1.02872 0.61463 0.64942 0.0
N311 N 0.06832 0.59838 0.6725 0.0
C312 C 0.08016 0.61225 0.73254 0.0
C313 C 0.08098 0.59347 0.63605 0.0
N314 N 0.09971 0.61617 0.73625 0.0
C315 C 0.10029 0.60439 0.67503 0.0
C316 C 1.02539 0.58138 0.48341 0.0
O317 O 1.01072 0.60061 0.64516 0.0
O318 O 0.04369 0.61189 0.65452 0.0
O319 O 0.04194 0.58737 0.5301 0.0
O320 O 1.00878 0.57565 0.52138 0.0
O321 O 1.03718 0.56375 0.65675 0.0
H322 H 0.07635 0.58236 0.58626 0.0
H323 H 0.07435 0.61919 0.77346 0.0
O324 O 1.00394 0.55072 0.64468 0.0
O325 O 1.00518 0.57569 0.77023 0.0
O326 O 1.0384 0.58812 0.77961 0.0
C327 C 1.02173 0.58214 0.81724 0.0
H328 H 0.93404 0.53665 0.5323 0.0
H329 H 0.11352 0.60328 0.66109 0.0
Co330 Co 0.55869 0.38833 0.65798 0.0
C331 C 0.59056 0.42579 0.6701 0.0
Co332 Co 0.54812 0.4086 0.66201 0.0
C333 C 0.55909 0.35336 0.65884 0.0
C334 C 0.58521 0.37548 0.60436 0.0
N335 N 0.56805 0.37162 0.64468 0.0
N336 N 0.56995 0.34579 0.6278 0.0
C337 C 0.58645 0.35978 0.59432 0.0
H338 H 0.54444 0.34559 0.68725 0.0
H339 H 0.5958 0.38871 0.57987 0.0
C340 C 0.51594 0.3718 0.64934 0.0
N341 N 0.53928 0.42552 0.67388 0.0
C342 C 0.54521 0.43882 0.73923 0.0
C343 C 0.52498 0.4267 0.62455 0.0
N344 N 0.53505 0.44816 0.73366 0.0
C345 C 0.52235 0.4406 0.66107 0.0
C346 C 0.55281 0.39962 0.49292 0.0
O347 O 0.53035 0.36812 0.64904 0.0
O348 O 0.52058 0.38867 0.65497 0.0
O349 O 0.54734 0.40946 0.53674 0.0
O350 O 0.55822 0.38967 0.5337 0.0
O351 O 0.57553 0.42849 0.66884 0.0
H352 H 0.51657 0.41766 0.56741 0.0
H353 H 0.55661 0.4414 0.79086 0.0
O354 O 0.58691 0.40916 0.66701 0.0
O355 O 0.55911 0.38708 0.78298 0.0
O356 O 0.54902 0.40745 0.78649 0.0
C357 C 0.55415 0.39728 0.82706 0.0
H358 H 0.59846 0.35869 0.56319 0.0
H359 H 0.51127 0.44426 0.63812 0.0
Co360 Co 0.49302 0.96514 0.29325 0.0
C361 C 0.45218 0.95447 0.2954 0.0
Co362 Co 0.4728 0.9349 0.28468 0.0
C363 C 0.52253 0.99949 0.23283 0.0
C364 C 0.50929 1.00373 0.34702 0.0
N365 N 0.50986 0.99047 0.29652 0.0
N366 N 0.52911 1.0177 0.2382 0.0
C367 C 0.52113 1.02054 0.31107 0.0
H368 H 0.52545 0.99258 0.17859 0.0
H369 H 0.49945 1.00114 0.40116 0.0
C370 C 0.51426 0.9465 0.28492 0.0
N371 N 0.45626 0.90942 0.27617 0.0
C372 C 0.43688 0.89868 0.29912 0.0
C373 C 0.4608 0.89775 0.23277 0.0
N374 N 0.42916 0.8808 0.27119 0.0
C375 C 0.44431 0.88026 0.22983 0.0
C376 C 0.48098 0.94961 0.1211 0.0
O377 O 0.51599 0.96235 0.28908 0.0
O378 O 0.49659 0.9323 0.28278 0.0
O379 O 0.47165 0.93462 0.15955 0.0
O380 O 0.491 0.96463 0.16748 0.0
O381 O 0.4494 0.93816 0.28806 0.0
H382 H 0.47482 0.90181 0.20067 0.0
H383 H 0.42841 0.90401 0.33297 0.0
O384 O 0.47018 0.96812 0.29782 0.0
O385 O 0.49458 0.96522 0.41868 0.0
O386 O 0.47391 0.93513 0.40959 0.0
C387 C 0.48444 0.95013 0.45642 0.0
H388 H 0.52199 0.03343 0.33142 0.0
H389 H 0.44322 0.8683 0.19487 0.0
Co390 Co 0.25684 0.50229 0.10251 0.0
C391 C 0.22824 0.51323 0.08809 0.0
Co392 Co 0.27037 0.53252 0.10971 0.0
C393 C 0.23268 0.4655 0.15665 0.0
C394 C 0.25074 0.46649 0.0495 0.0
N395 N 0.24558 0.47699 0.09918 0.0
N396 N 0.23 0.44835 0.14701 0.0
C397 C 0.24119 0.44888 0.07875 0.0
H398 H 0.22611 0.46995 0.20724 0.0
H399 H 0.26172 0.4716 -0.00091 0.0
C400 C 0.29865 0.52082 0.12102 0.0
N401 N 0.28212 0.55792 0.11436 0.0
C402 C 0.27456 0.56833 0.14669 0.0
C403 C 0.30084 0.57016 0.08902 0.0
N404 N 0.28796 0.58651 0.14351 0.0
C405 C 0.30452 0.58776 0.10745 0.0
C406 C 0.26224 0.51788 0.27333 0.0
O407 O 0.28282 0.50501 0.11095 0.0
O408 O 0.29681 0.53507 0.12441 0.0
O409 O 0.26872 0.53282 0.23436 0.0
O410 O 0.25637 0.50292 0.22777 0.0
O411 O 0.24368 0.52946 0.09361 0.0
H412 H 0.3112 0.56655 0.05907 0.0
H413 H 0.25968 0.56273 0.17327 0.0
O414 O 0.23078 0.49944 0.09355 0.0
O415 O 0.25752 0.50203 0.97717 0.0
O416 O 0.27199 0.53224 0.98539 0.0
C417 C 0.26505 0.51718 0.93907 0.0
H418 H 0.24348 0.43774 0.05539 0.0
H419 H 0.3181 0.60049 0.0938 0.0
Co420 Co 0.69358 0.7142 0.3117 0.0
C421 C 0.72485 0.75036 0.33885 0.0
Co422 Co 0.68307 0.73438 0.3148 0.0
C423 C 0.69588 0.68429 0.23356 0.0
C424 C 0.71623 0.69541 0.34827 0.0
N425 N 0.70243 0.69745 0.29958 0.0
N426 N 0.705 0.67408 0.23809 0.0
C427 C 0.7179 0.68105 0.31033 0.0
H428 H 0.68502 0.68266 0.18128 0.0
H429 H 0.72468 0.70394 0.40663 0.0
C430 C 0.65211 0.69768 0.28538 0.0
N431 N 0.6732 0.75047 0.32851 0.0
C432 C 0.68219 0.76883 0.31863 0.0
C433 C 0.6554 0.74593 0.36476 0.0
N434 N 0.67073 0.77584 0.34846 0.0
C435 C 0.65382 0.7614 0.37668 0.0
C436 C 0.69048 0.72771 0.14725 0.0
O437 O 0.6667 0.6946 0.29558 0.0
O438 O 0.65577 0.71422 0.29118 0.0
O439 O 0.68512 0.73759 0.19143 0.0
O440 O 0.69478 0.71693 0.18735 0.0
O441 O 0.71063 0.75422 0.33738 0.0
H442 H 0.64458 0.73234 0.38499 0.0
H443 H 0.69721 0.77703 0.29413 0.0
O444 O 0.72046 0.73367 0.3275 0.0
O445 O 0.69241 0.71177 0.43625 0.0
O446 O 0.68108 0.73119 0.43799 0.0
C447 C 0.68629 0.72117 0.47937 0.0
H448 H 0.72794 0.67625 0.33382 0.0
H449 H 0.64127 0.76202 0.40517 0.0
Co450 Co 0.47233 0.53302 0.14882 0.0
C451 C 0.43085 0.52096 0.15359 0.0
Co452 Co 0.45225 0.50277 0.14194 0.0
C453 C 0.50668 0.57059 0.1334 0.0
C454 C 0.48327 0.569 0.21361 0.0
N455 N 0.48821 0.55855 0.16212 0.0
N456 N 0.5133 0.58811 0.16496 0.0
C457 C 0.49849 0.58703 0.21523 0.0
H458 H 0.51528 0.56648 0.09232 0.0
H459 H 0.46982 0.56376 0.25129 0.0
C460 C 0.49314 0.51396 0.13277 0.0
N461 N 0.43555 0.4774 0.13312 0.0
C462 C 0.43442 0.46539 0.19262 0.0
C463 C 0.41959 0.4674 0.07506 0.0
N464 N 0.41803 0.4484 0.17584 0.0
C465 C 0.4088 0.44958 0.10108 0.0
C466 C 0.46074 0.51863 0.97818 0.0
O467 O 0.49583 0.53027 0.13749 0.0
O468 O 0.47535 0.50024 0.13834 0.0
O469 O 0.45172 0.50352 0.0166 0.0
O470 O 0.47045 0.5338 0.0244 0.0
O471 O 0.42905 0.50513 0.14535 0.0
H472 H 0.41527 0.47298 0.02082 0.0
H473 H 0.44493 0.46933 0.24957 0.0
O474 O 0.44848 0.53515 0.15681 0.0
O475 O 0.47428 0.53221 0.27441 0.0
O476 O 0.45304 0.50246 0.26654 0.0
C477 C 0.46406 0.51731 0.31292 0.0
H478 H 0.49909 0.59827 0.25502 0.0
H479 H 0.39448 0.43877 0.07063 0.0
Co480 Co 0.68026 0.9434 0.26333 0.0
C481 C 0.64807 0.95041 0.25169 0.0
Co482 Co 0.68977 0.97296 0.26892 0.0
C483 C 0.67968 0.90917 0.2974 0.0
C484 C 0.65531 0.90553 0.20865 0.0
N485 N 0.67174 0.91851 0.25768 0.0
N486 N 0.66858 0.89089 0.27572 0.0
C487 C 0.65325 0.88855 0.22015 0.0
H488 H 0.69312 0.91557 0.34193 0.0
H489 H 0.64549 0.90824 0.16647 0.0
C490 C 0.72228 0.96687 0.28225 0.0
N491 N 0.69736 0.99762 0.2693 0.0
C492 C 0.69085 1.00459 0.20592 0.0
C493 C 0.71072 1.0124 0.32173 0.0
N494 N 0.69986 1.02306 0.21463 0.0
C495 C 0.71229 0.02818 0.288 0.0
C496 C 0.68377 0.95843 0.43316 0.0
O497 O 0.70853 0.94984 0.27591 0.0
O498 O 0.71709 0.97908 0.27913 0.0
O499 O 0.68895 0.97323 0.39405 0.0
O500 O 0.67911 0.94365 0.38788 0.0
O501 O 0.66253 0.96697 0.25864 0.0
H502 H 0.71936 1.01183 0.37823 0.0
H503 H 0.68012 0.99628 0.15194 0.0
O504 O 0.65216 0.93746 0.25274 0.0
O505 O 0.68142 0.94315 0.13795 0.0
O506 O 0.6906 0.97237 0.1442 0.0
C507 C 0.68623 0.95779 0.09873 0.0
H508 H 0.6416 0.8755 0.18895 0.0
H509 H 0.7226 0.04229 0.31226 0.0
Co510 Co 0.2602 0.73637 0.13789 0.0
C511 C 0.28737 0.77369 0.171 0.0
Co512 Co 0.2456 0.75339 0.13834 0.0
C513 C 0.26871 0.70666 0.16526 0.0
C514 C 0.29016 0.72778 0.08684 0.0
N515 N 0.27321 0.72282 0.13083 0.0
N516 N 0.28231 0.70139 0.14452 0.0
C517 C 0.29575 0.71468 0.0949 0.0
H518 H 0.25581 0.69902 0.20506 0.0
H519 H 0.29791 0.74012 0.05053 0.0
C520 C 0.21851 0.71591 0.10358 0.0
N521 N 0.2336 0.76789 0.14535 0.0
C522 C 0.22049 0.76737 0.20475 0.0
C523 C 0.23947 0.78367 0.10422 0.0
N524 N 0.21839 0.7824 0.20381 0.0
C525 C 0.23022 0.79267 0.14041 0.0
C526 C 0.25579 0.74839 0.97219 0.0
O527 O 0.23467 0.71494 0.11118 0.0
O528 O 0.21961 0.73149 0.11708 0.0
O529 O 0.24726 0.75572 0.01461 0.0
O530 O 0.26309 0.73995 0.01406 0.0
O531 O 0.27167 0.77516 0.15862 0.0
H532 H 0.25082 0.78891 0.05537 0.0
H533 H 0.21387 0.75692 0.25255 0.0
O534 O 0.28562 0.75784 0.16472 0.0
O535 O 0.25721 0.73286 0.26122 0.0
O536 O 0.24406 0.75089 0.26241 0.0
C537 C 0.25001 0.7414 0.304 0.0
H538 H 0.3085 0.71478 0.06459 0.0
H539 H 0.23267 0.80609 0.12415 0.0
H540 H 0.22196 0.45144 0.31813 0.0
H541 H 0.21614 0.41188 0.11231 0.0
H542 H 0.20737 0.4271 0.42035 0.0
H543 H 0.20254 0.38763 0.21655 0.0
H544 H 0.16226 0.34516 0.40267 0.0
H545 H 0.17349 0.36947 0.30012 0.0
H546 H 0.21719 0.4083 0.49965 0.0
H547 H 0.20515 0.38414 0.60431 0.0
C548 C 0.21741 0.43755 0.29407 0.0
C549 C 0.22024 0.43368 0.20642 0.0
C550 C 0.20931 0.42361 0.35344 0.0
C551 C 0.20393 0.40544 0.32696 0.0
C552 C 0.20636 0.40146 0.23897 0.0
C553 C 0.21437 0.4154 0.17936 0.0
C554 C 0.17397 0.35892 0.42568 0.0
C555 C 0.18273 0.36265 0.51234 0.0
C556 C 0.18063 0.37283 0.36613 0.0
C557 C 0.1963 0.39082 0.39141 0.0
C558 C 0.20492 0.39463 0.47825 0.0
C559 C 0.19818 0.38072 0.53805 0.0
H560 H 0.83439 0.77953 0.58992 0.0
H561 H 0.85312 0.83351 0.49525 0.0
H562 H 0.79979 0.76856 0.53226 0.0
H563 H 0.818 0.82227 0.43713 0.0
H564 H 0.7401 0.78298 0.43942 0.0
H565 H 0.77544 0.80203 0.50103 0.0
H566 H 0.79273 0.76818 0.34867 0.0
H567 H 0.7579 0.74931 0.28782 0.0
C568 C 0.83103 0.78917 0.55841 0.0
C569 C 0.84652 0.80729 0.54582 0.0
C570 C 0.81123 0.78288 0.52556 0.0
C571 C 0.80645 0.79455 0.47949 0.0
C572 C 0.82145 0.81309 0.47263 0.0
C573 C 0.84145 0.81947 0.50583 0.0
C574 C 0.75165 0.78004 0.41722 0.0
C575 C 0.74629 0.76453 0.36004 0.0
C576 C 0.77176 0.79088 0.45246 0.0
C577 C 0.78654 0.78629 0.43025 0.0
C578 C 0.78147 0.7718 0.36735 0.0
C579 C 0.76156 0.76103 0.33266 0.0
H580 H 0.37311 1.00115 0.38681 0.0
H581 H 0.37242 0.97071 0.6119 0.0
H582 H 0.39262 0.98973 0.30901 0.0
H583 H 0.3915 0.95917 0.53378 0.0
H584 H 0.45197 0.9864 0.27365 0.0
H585 H 0.42739 0.99455 0.32566 0.0
H586 H 0.38963 0.93897 0.40632 0.0
H587 H 0.41447 0.93079 0.35454 0.0
C588 C 0.37709 0.99209 0.41993 0.0
C589 C 0.37113 0.98692 0.506 0.0
C590 C 0.38818 0.98545 0.37503 0.0
C591 C 0.39346 0.9734 0.41489 0.0
C592 C 0.3873 0.96808 0.50033 0.0
C593 C 0.37636 0.97479 0.54533 0.0
C594 C 0.43822 0.97578 0.30084 0.0
C595 C 0.43524 0.95798 0.31072 0.0
C596 C 0.42407 0.98045 0.33029 0.0
C597 C 0.40666 0.96748 0.37101 0.0
C598 C 0.40306 0.94934 0.37625 0.0
C599 C 0.41717 0.9446 0.34592 0.0
H600 H 0.40031 0.06003 0.58944 0.0
H601 H 0.38448 0.10195 0.64728 0.0
H602 H 0.43607 0.08285 0.61101 0.0
H603 H 0.42101 0.12517 0.67009 0.0
H604 H 0.49359 0.16079 0.61252 0.0
H605 H 0.45606 0.1418 0.5929 0.0
H606 H 0.45755 0.09981 0.74418 0.0
H607 H 0.49432 0.11829 0.76216 0.0
C608 C 0.40441 0.07416 0.60682 0.0
C609 C 0.38931 0.07899 0.61775 0.0
C610 C 0.42506 0.08731 0.61953 0.0
C611 C 0.43153 0.10585 0.644 0.0
C612 C 0.41658 0.11101 0.65151 0.0
C613 C 0.39565 0.09769 0.63873 0.0
C614 C 0.48576 0.14767 0.64289 0.0
C615 C 0.49698 0.14095 0.68787 0.0
C616 C 0.46429 0.13677 0.63157 0.0
C617 C 0.45379 0.11905 0.66519 0.0
C618 C 0.46508 0.11312 0.71523 0.0
C619 C 0.48624 0.1238 0.72595 0.0
H620 H 0.07812 0.37967 0.63317 0.0
H621 H 1.01541 0.3357 0.62344 0.0
H622 H 0.0893 0.35728 0.62691 0.0
H623 H 1.02688 0.31285 0.61635 0.0
H624 H 0.06376 0.28113 0.69925 0.0
H625 H 0.04685 0.29982 0.70088 0.0
H626 H 0.08922 0.33569 0.51734 0.0
H627 H 0.10593 0.31749 0.51692 0.0
C628 C 0.06658 0.36517 0.62949 0.0
C629 C 0.04574 0.35969 0.62815 0.0
C630 C 0.07308 0.3522 0.62537 0.0
C631 C 0.05909 0.33308 0.61975 0.0
C632 C 1.03817 0.32742 0.62057 0.0
C633 C 1.03158 0.34055 0.62419 0.0
C634 C 0.06905 0.29272 0.65765 0.0
C635 C 0.0863 0.29779 0.60815 0.0
C636 C 0.05943 0.30353 0.65883 0.0
C637 C 0.06688 0.31965 0.61076 0.0
C638 C 0.08326 0.32379 0.5572 0.0
C639 C 0.09279 0.31317 0.55631 0.0
H640 H 0.83721 0.72941 0.60662 0.0
H641 H 0.89068 0.72415 0.59865 0.0
H642 H 0.81662 0.69655 0.63219 0.0
H643 H 0.87055 0.6916 0.62778 0.0
H644 H 0.82529 0.62899 0.586 0.0
H645 H 0.84725 0.66219 0.57011 0.0
H646 H 0.80707 0.67286 0.72502 0.0
H647 H 0.78492 0.63991 0.73647 0.0
C648 C 0.84463 0.72131 0.61221 0.0
C649 C 0.86558 0.72945 0.60014 0.0
C650 C 0.83284 0.70236 0.62708 0.0
C651 C 0.84172 0.69103 0.63186 0.0
C652 C 0.86286 0.69948 0.62255 0.0
C653 C 0.87453 0.71829 0.60647 0.0
C654 C 0.82139 0.6385 0.61761 0.0
C655 C 0.80331 0.63172 0.6623 0.0
C656 C 0.83398 0.65764 0.60862 0.0
C657 C 0.82899 0.67056 0.6452 0.0
C658 C 0.81133 0.66362 0.69336 0.0
C659 C 0.79867 0.6446 0.701 0.0
H660 H 1.02495 0.71777 0.61208 0.0
H661 H 0.08796 0.73419 0.58526 0.0
H662 H 1.01687 0.68632 0.63572 0.0
H663 H 0.07992 0.70243 0.60457 0.0
H664 H 0.06371 0.64652 0.70261 0.0
H665 H 0.07159 0.67825 0.69247 0.0
H666 H 1.01133 0.65881 0.57343 0.0
H667 H 1.00321 0.62695 0.58844 0.0
C668 C 1.03711 0.71459 0.61079 0.0
C669 C 0.05712 0.72857 0.59659 0.0
C670 C 1.03244 0.6964 0.62364 0.0
C671 C 0.04757 0.69136 0.62131 0.0
C672 C 0.06773 0.70552 0.60841 0.0
C673 C 0.07245 0.72385 0.59703 0.0
C674 C 0.05205 0.64899 0.67482 0.0
C675 C 1.03277 0.63405 0.64645 0.0
C676 C 0.05667 0.66735 0.6681 0.0
C677 C 0.04229 0.67153 0.63131 0.0
C678 C 1.02287 0.65647 0.60359 0.0
C679 C 1.01814 0.63805 0.61173 0.0
H680 H 0.38704 0.31066 0.49997 0.0
H681 H 0.39066 0.27798 0.70505 0.0
H682 H 0.42392 0.32968 0.50678 0.0
H683 H 0.42818 0.29745 0.71301 0.0
H684 H 0.49868 0.33363 0.64986 0.0
H685 H 0.46223 0.30999 0.63529 0.0
H686 H 0.44703 0.353 0.61892 0.0
H687 H 0.48285 0.37626 0.63292 0.0
C688 C 0.39581 0.30726 0.54536 0.0
C689 C 0.38583 0.29273 0.60177 0.0
C690 C 0.41703 0.31834 0.54997 0.0
C691 C 0.42917 0.31547 0.61188 0.0
C692 C 0.41936 0.30011 0.66455 0.0
C693 C 0.39786 0.28886 0.65967 0.0
C694 C 0.48752 0.33799 0.64311 0.0
C695 C 0.49388 0.35696 0.64203 0.0
C696 C 0.4666 0.32443 0.63518 0.0
C697 C 0.45156 0.32948 0.62476 0.0
C698 C 0.45805 0.34845 0.62499 0.0
C699 C 0.47874 0.36189 0.63358 0.0
H700 H 0.82723 0.17992 0.60385 0.0
H701 H 0.78663 0.13232 0.74348 0.0
H702 H 0.84882 0.16644 0.57796 0.0
H703 H 0.80849 0.11926 0.72226 0.0
H704 H 0.83695 0.08976 0.5757 0.0
H705 H 0.81709 0.10421 0.61714 0.0
H706 H 0.87183 0.15786 0.62862 0.0
H707 H 0.8912 0.14331 0.58343 0.0
C708 C 0.82324 0.16682 0.63107 0.0
C709 C 0.80519 0.15718 0.67535 0.0
C710 C 0.83561 0.15901 0.61637 0.0
C711 C 0.8304 0.14148 0.64685 0.0
C712 C 0.81284 0.13243 0.69521 0.0
C713 C 0.80038 0.14007 0.70844 0.0
C714 C 0.84469 0.10459 0.5884 0.0
C715 C 0.86558 0.11538 0.57581 0.0
C716 C 0.83335 0.11298 0.61236 0.0
C717 C 0.84269 0.13239 0.62589 0.0
C718 C 0.86384 0.143 0.61678 0.0
C719 C 0.87504 0.13464 0.59156 0.0
H720 H 0.75439 1.00046 0.2555 0.0
H721 H 0.7395 0.94748 0.35219 0.0
H722 H 0.78944 1.01329 0.3111 0.0
H723 H 0.77518 0.96062 0.40822 0.0
H724 H 0.85199 1.00094 0.40153 0.0
H725 H 0.8163 0.98085 0.34601 0.0
H726 H 0.79952 1.01637 0.48687 0.0
H727 H 0.83465 0.03621 0.54174 0.0
C728 C 0.75868 0.99143 0.28729 0.0
C729 C 0.74409 0.97301 0.30055 0.0
C730 C 0.77877 0.99882 0.31918 0.0
C731 C 0.78487 0.98801 0.3651 0.0
C732 C 0.77077 0.9692 0.37306 0.0
C733 C 0.75043 0.96172 0.34093 0.0
C734 C 0.84051 1.00408 0.42258 0.0
C735 C 0.84612 1.02028 0.47487 0.0
C736 C 0.82017 0.99262 0.39074 0.0
C737 C 0.80533 0.9973 0.41115 0.0
C738 C 0.81075 1.01263 0.46922 0.0
C739 C 0.83087 1.02397 0.50063 0.0
H740 H 0.16736 0.83904 0.48433 0.0
H741 H 0.13889 0.78538 0.59327 0.0
H742 H 0.18938 0.8314 0.40305 0.0
H743 H 0.16184 0.77803 0.51646 0.0
H744 H 0.18182 0.76045 0.26834 0.0
H745 H 0.16421 0.76945 0.37283 0.0
H746 H 0.21561 0.82525 0.39133 0.0
H747 H 0.23245 0.81623 0.2828 0.0
C748 C 0.1664 0.82587 0.49371 0.0
C749 C 0.15133 0.81275 0.54459 0.0
C750 C 0.17906 0.82144 0.44693 0.0
C751 C 0.1772 0.8039 0.45142 0.0
C752 C 0.16329 0.79143 0.50884 0.0
C753 C 0.15033 0.79572 0.55404 0.0
C754 C 0.18923 0.7746 0.29507 0.0
C755 C 0.20827 0.7877 0.26683 0.0
C756 C 0.1793 0.77979 0.35577 0.0
C757 C 0.18844 0.79815 0.39122 0.0
C758 C 0.20784 0.81111 0.36441 0.0
C759 C 0.21754 0.80597 0.30226 0.0
H760 H 0.39113 0.41234 0.13104 0.0
H761 H 0.42659 0.44992 0.35251 0.0
H762 H 0.37552 0.3873 0.22984 0.0
H763 H 0.41194 0.42467 0.45007 0.0
H764 H 0.36422 0.37993 0.61343 0.0
H765 H 0.38053 0.40523 0.51582 0.0
H766 H 0.38235 0.36799 0.31723 0.0
H767 H 0.36501 0.34265 0.41149 0.0
C768 C 0.39575 0.41527 0.20051 0.0
C769 C 0.41013 0.43323 0.23331 0.0
C770 C 0.38696 0.40084 0.25719 0.0
C771 C 0.39245 0.40396 0.34808 0.0
C772 C 0.40714 0.42182 0.38068 0.0
C773 C 0.41581 0.43628 0.32413 0.0
C774 C 0.36794 0.37709 0.54876 0.0
C775 C 0.36324 0.35915 0.52099 0.0
C776 C 0.37754 0.39167 0.49308 0.0
C777 C 0.38275 0.38865 0.40852 0.0
C778 C 0.37831 0.37078 0.38134 0.0
C779 C 0.36859 0.35623 0.43647 0.0
H780 H 0.10297 0.45511 0.88334 0.0
H781 H 0.14456 0.47723 0.67441 0.0
H782 H 0.13019 0.4754 -0.00863 0.0
H783 H 0.17192 0.49715 0.78268 0.0
H784 H 0.19192 0.48406 0.12465 0.0
H785 H 0.15982 0.47294 0.04047 0.0
H786 H 0.18648 0.52286 0.8984 0.0
H787 H 0.21882 0.534 0.98323 0.0
C788 C 0.11778 0.46459 0.8601 0.0
C789 C 0.12168 0.46437 0.77025 0.0
C790 C 0.1334 0.47616 0.92218 0.0
C791 C 0.15322 0.4878 0.89571 0.0
C792 C 0.15677 0.48848 0.80525 0.0
C793 C 0.14118 0.47686 0.74325 0.0
C794 C 0.19069 0.49298 0.07785 0.0
C795 C 0.20786 0.50977 0.05966 0.0
C796 C 0.17226 0.48663 0.02967 0.0
C797 C 0.17072 0.4969 0.96173 0.0
C798 C 0.18733 0.51456 0.94963 0.0
C799 C 0.20577 0.52102 -0.00124 0.0
H800 H 0.71464 0.59453 0.89515 0.0
H801 H 0.69285 0.62276 0.73006 0.0
H802 H 0.70998 0.60907 0.02536 0.0
H803 H 0.68853 0.63767 0.86215 0.0
H804 H 0.67215 0.65299 0.12575 0.0
H805 H 0.6699 0.63239 0.00334 0.0
H806 H 0.7298 0.64225 0.08145 0.0
H807 H 0.73235 0.66324 0.20256 0.0
C808 C 0.70841 0.60349 0.88602 0.0
C809 C 0.7044 0.60764 0.80117 0.0
C810 C 0.70594 0.61198 0.96127 0.0
C811 C 0.69923 0.62471 0.95383 0.0
C812 C 0.69376 0.62789 0.86976 0.0
C813 C 0.69635 0.61945 0.79412 0.0
C814 C 0.68489 0.65083 0.1169 0.0
C815 C 0.70261 0.66005 0.17333 0.0
C816 C 0.68352 0.63896 0.04692 0.0
C817 C 0.6997 0.63582 0.03264 0.0
C818 C 0.71699 0.64429 0.09145 0.0
C819 C 0.71845 0.6563 0.161 0.0
H820 H 0.54856 0.10567 0.92255 0.0
H821 H 0.55023 0.06757 0.72969 0.0
H822 H 0.54771 0.08658 0.03995 0.0
H823 H 0.55043 0.04855 0.84823 0.0
H824 H 0.51977 1.00795 0.06467 0.0
H825 H 0.52795 0.02824 0.94482 0.0
H826 H 0.56412 0.07531 0.12758 0.0
H827 H 0.55483 0.05464 0.24917 0.0
C828 C 0.54926 0.09336 0.90567 0.0
C829 C 0.54949 0.08805 0.81722 0.0
C830 C 0.54893 0.08243 0.97318 0.0
C831 C 0.54912 0.06599 0.95417 0.0
C832 C 0.54996 0.06096 0.86543 0.0
C833 C 0.5499 0.0718 0.79748 0.0
C834 C 0.52982 1.02258 0.07919 0.0
C835 C 0.53663 0.02973 0.16646 0.0
C836 C 0.53462 0.03429 0.01003 0.0
C837 C 0.54661 0.05351 0.02605 0.0
C838 C 0.55444 0.06061 0.11289 0.0
C839 C 0.54928 0.04883 0.18256 0.0
H840 H 0.72232 0.11442 0.90731 0.0
H841 H 0.68645 0.06726 0.72615 0.0
H842 H 0.71649 0.09435 0.02642 0.0
H843 H 0.67959 0.04683 0.84732 0.0
H844 H 0.69978 1.0177 0.0396 0.0
H845 H 0.69865 0.03681 0.92618 0.0
H846 H 0.69606 0.07339 0.12696 0.0
H847 H 0.69815 0.05433 0.24114 0.0
C848 C 0.71258 0.09974 0.89339 0.0
C849 C 0.705 0.09242 0.80686 0.0
C850 C 0.70915 0.08815 0.96226 0.0
C851 C 0.69779 0.06889 0.94675 0.0
C852 C 0.68891 0.06159 0.86134 0.0
C853 C 0.69267 0.07324 0.79195 0.0
C854 C 0.69877 0.02974 0.05928 0.0
C855 C 0.69899 0.03457 0.14885 0.0
C856 C 0.69793 0.04064 -0.00581 0.0
C857 C 0.69702 0.0566 0.01685 0.0
C858 C 0.69697 0.06132 0.10691 0.0
C859 C 0.69815 0.05047 0.17238 0.0
H860 H 0.18139 0.71313 0.06893 0.0
H861 H 0.21248 0.6819 0.05264 0.0
H862 H 0.1519 0.688 0.98558 0.0
H863 H 0.18304 0.65689 0.96968 0.0
H864 H 0.14039 0.63125 0.71766 0.0
H865 H 0.16801 0.65404 0.81718 0.0
H866 H 0.12431 0.6548 -0.01052 0.0
H867 H 0.09663 0.63173 0.89147 0.0
C868 C 0.1818 0.70079 0.04914 0.0
C869 C 0.19936 0.69961 0.067 0.0
C870 C 0.1649 0.68639 0.00138 0.0
C871 C 0.16528 0.67058 0.97004 0.0
C872 C 0.18244 0.66903 -0.00838 0.0
C873 C 0.19925 0.68333 0.03984 0.0
C874 C 0.13658 0.63605 0.77712 0.0
C875 C 0.11615 0.6296 0.79569 0.0
C876 C 0.15245 0.64914 0.83429 0.0
C877 C 0.14832 0.65621 0.91123 0.0
C878 C 0.12796 0.64977 0.9302 0.0
C879 C 0.11208 0.63656 0.87347 0.0
H880 H 0.49808 0.48503 0.17039 0.0
H881 H 0.52247 0.53343 0.01817 0.0
H882 H 0.51439 0.47242 0.07893 0.0
H883 H 0.53904 0.52084 0.92619 0.0
H884 H 0.52532 0.47462 0.70445 0.0
H885 H 0.52236 0.49478 0.81496 0.0
H886 H 0.544 0.47307 0.01852 0.0
H887 H 0.5463 0.45247 0.9085 0.0
C888 C 0.50771 0.49334 0.11969 0.0
C889 C 0.50892 0.51015 0.10109 0.0
C890 C 0.51706 0.4861 0.067 0.0
C891 C 0.52771 0.49546 -0.00594 0.0
C892 C 0.53066 0.51317 0.98105 0.0
C893 C 0.52143 0.52051 0.03454 0.0
C894 C 0.52958 0.47423 0.77263 0.0
C895 C 0.53578 0.46172 0.79741 0.0
C896 C 0.52818 0.48601 0.83597 0.0
C897 C 0.53291 0.48553 0.92579 0.0
C898 C 0.54011 0.4737 0.95001 0.0
C899 C 0.54155 0.46195 0.88663 0.0
H900 H 0.15783 0.24003 0.63519 0.0
H901 H 0.19686 0.29863 0.61167 0.0
H902 H 0.18808 0.23628 0.63704 0.0
H903 H 0.22631 0.29489 0.61154 0.0
H904 H 0.27817 0.29019 0.71385 0.0
H905 H 0.24573 0.28898 0.71729 0.0
H906 H 0.21767 0.23867 0.55094 0.0
H907 H 0.25074 0.23967 0.54968 0.0
C908 C 0.17273 0.25207 0.63008 0.0
C909 C 0.17475 0.26968 0.62458 0.0
C910 C 0.19009 0.24992 0.63072 0.0
C911 C 0.20986 0.26533 0.62614 0.0
C912 C 0.21157 0.28272 0.61783 0.0
C913 C 0.19447 0.28485 0.61746 0.0
C914 C 0.26512 0.27871 0.67838 0.0
C915 C 0.26727 0.26517 0.63049 0.0
C916 C 0.2464 0.27807 0.67991 0.0
C917 C 0.22898 0.26401 0.63245 0.0
C918 C 0.23071 0.24978 0.58809 0.0
C919 C 0.24967 0.25033 0.58729 0.0
H920 H 0.89924 0.98196 0.61219 0.0
H921 H 0.93955 0.99245 0.4004 0.0
H922 H 0.89678 0.95171 0.62775 0.0
H923 H 0.9374 0.96289 0.41687 0.0
H924 H 0.95317 0.92361 0.55543 0.0
H925 H 0.9508 0.95106 0.53224 0.0
H926 H 0.88563 0.91927 0.55033 0.0
H927 H 0.88812 0.89141 0.57357 0.0
C928 C 0.90739 0.97782 0.5684 0.0
C929 C 0.91998 0.99003 0.50639 0.0
C930 C 0.90598 0.96045 0.57727 0.0
C931 C 0.91719 0.95489 0.52463 0.0
C932 C 0.92892 0.96676 0.46013 0.0
C933 C 0.93022 0.98389 0.45096 0.0
C934 C 0.93828 0.92237 0.55402 0.0
C935 C 0.92085 0.90522 0.56618 0.0
C936 C 0.93689 0.93817 0.54034 0.0
C937 C 0.91802 0.93754 0.53924 0.0
C938 C 0.90044 0.92036 0.5512 0.0
C939 C 0.90182 0.90434 0.56354 0.0
H940 H 0.17299 0.92304 0.71064 0.0
H941 H 0.18583 0.8974 0.4895 0.0
H942 H 0.20476 0.95138 0.69637 0.0
H943 H 0.21819 0.9261 0.47618 0.0
H944 H 0.28432 0.97336 0.55277 0.0
H945 H 0.25142 0.94521 0.55244 0.0
H946 H 0.22272 0.97754 0.60531 0.0
H947 H 0.25598 1.00597 0.60643 0.0
C948 C 0.18237 0.92338 0.65789 0.0
C949 C 0.17638 0.90767 0.6005 0.0
C950 C 0.20079 0.93985 0.64978 0.0
C951 C 0.21414 0.9413 0.58458 0.0
C952 C 0.2084 0.92557 0.52764 0.0
C953 C 0.18979 0.90902 0.53534 0.0
C954 C 0.27102 0.97458 0.56387 0.0
C955 C 0.27297 0.99209 0.58013 0.0
C956 C 0.25203 0.95832 0.56299 0.0
C957 C 0.23423 0.9589 0.57902 0.0
C958 C 0.23607 0.97644 0.59367 0.0
C959 C 0.25515 0.99281 0.59381 0.0
H960 H 0.30043 0.18194 0.45095 0.0
H961 H 0.3321 0.19989 0.7071 0.0
H962 H 0.30332 0.15435 0.45042 0.0
H963 H 0.33506 0.17188 0.70685 0.0
H964 H 0.34535 0.12156 0.63699 0.0
H965 H 0.34895 0.15243 0.62963 0.0
H966 H 0.28578 0.12693 0.53841 0.0
H967 H 0.28234 0.09658 0.54566 0.0
C968 C 0.30817 0.18004 0.50713 0.0
C969 C 0.31567 0.19296 0.57987 0.0
C970 C 0.30983 0.16418 0.5068 0.0
C971 C 0.31907 0.16066 0.57929 0.0
C972 C 0.32785 0.17416 0.6499 0.0
C973 C 0.32617 0.19019 0.65016 0.0
C974 C 0.33239 0.12268 0.61427 0.0
C975 C 0.31356 0.10663 0.5918 0.0
C976 C 0.33437 0.14031 0.61092 0.0
C977 C 0.31767 0.14221 0.58322 0.0
C978 C 0.29904 0.12609 0.55912 0.0
C979 C 0.29702 0.10863 0.56369 0.0
H980 H 0.94904 0.12303 0.58095 0.0
H981 H 0.97874 0.09368 0.48852 0.0
H982 H 0.98103 0.1518 0.58751 0.0
H983 H 1.01121 0.12301 0.4926 0.0
H984 H 0.06829 0.17601 0.61326 0.0
H985 H 1.0371 0.14654 0.58802 0.0
H986 H 1.00558 0.17475 0.50354 0.0
H987 H 1.03685 0.2045 0.53387 0.0
C988 C 0.96245 0.1227 0.56145 0.0
C989 C 0.96123 0.10592 0.53414 0.0
C990 C 0.98088 0.13938 0.56426 0.0
C991 C 0.99884 0.13999 0.53923 0.0
C992 C 0.99776 0.12316 0.51283 0.0
C993 C 0.97916 0.1063 0.51056 0.0
C994 C 0.05472 0.17599 0.58944 0.0
C995 C 0.05503 0.19275 0.57772 0.0
C996 C 1.03679 0.15896 0.57372 0.0
C997 C 1.01856 0.15808 0.54501 0.0
C998 C 1.01916 0.17481 0.52781 0.0
C999 C 1.03716 0.19193 0.54403 0.0
H1000 H 0.07041 0.85484 0.61822 0.0
H1001 H 1.03272 0.79599 0.56263 0.0
H1002 H 0.0398 0.85753 0.62416 0.0
H1003 H 1.00245 0.79871 0.56574 0.0
H1004 H 0.9513 0.80343 0.66838 0.0
H1005 H 0.98353 0.80409 0.67119 0.0
H1006 H 1.01062 0.85524 0.53879 0.0
H1007 H 0.97801 0.85484 0.53894 0.0
C1008 C 0.05562 0.8425 0.60683 0.0
C1009 C 0.05403 0.82516 0.59093 0.0
C1010 C 1.03808 0.84406 0.60975 0.0
C1011 C 1.01857 0.82832 0.59663 0.0
C1012 C 1.01713 0.8111 0.57857 0.0
C1013 C 1.03456 0.80953 0.57626 0.0
C1014 C 0.96416 0.81495 0.6405 0.0
C1015 C 0.96204 0.82899 0.60252 0.0
C1016 C 0.98266 0.81525 0.64146 0.0
C1017 C 0.99963 0.82946 0.60317 0.0
C1018 C 0.99787 0.84406 0.5688 0.0
C1019 C 0.97922 0.84386 0.56882 0.0
H1020 H 0.93857 0.57776 0.75441 0.0
H1021 H 0.91727 0.55327 0.49052 0.0
H1022 H 0.90841 0.58103 0.7669 0.0
H1023 H 0.88718 0.55634 0.50301 0.0
H1024 H 0.84082 0.57549 0.52983 0.0
H1025 H 0.87459 0.57864 0.51681 0.0
H1026 H 0.87156 0.55895 0.77796 0.0
H1027 H 0.83816 0.55594 0.79058 0.0
C1028 C 0.92759 0.57328 0.69879 0.0
C1029 C 0.93024 0.56506 0.62193 0.0
C1030 C 0.91024 0.57504 0.70601 0.0
C1031 C 0.89528 0.56889 0.63601 0.0
C1032 C 0.89841 0.56137 0.55795 0.0
C1033 C 0.91557 0.5594 0.5512 0.0
C1034 C 0.84759 0.57215 0.58473 0.0
C1035 C 0.83674 0.5653 0.66079 0.0
C1036 C 0.86684 0.57381 0.5772 0.0
C1037 C 0.8758 0.56897 0.64627 0.0
C1038 C 0.86527 0.56295 0.72375 0.0
C1039 C 0.84601 0.56105 0.73067 0.0
H1040 H 0.54973 0.32023 0.74765 0.0
H1041 H 0.57872 0.32802 0.50051 0.0
H1042 H 0.54587 0.28933 0.75116 0.0
H1043 H 0.57495 0.29748 0.50393 0.0
H1044 H 0.59669 0.2602 0.62877 0.0
H1045 H 0.59317 0.28705 0.60403 0.0
H1046 H 0.53048 0.25664 0.67414 0.0
H1047 H 0.5342 0.22948 0.69839 0.0
C1048 C 0.5549 0.31521 0.69341 0.0
C1049 C 0.56497 0.32673 0.62494 0.0
C1050 C 0.55265 0.29753 0.69522 0.0
C1051 C 0.5604 0.2911 0.62844 0.0
C1052 C 0.5692 0.30218 0.55724 0.0
C1053 C 0.57144 0.31973 0.55553 0.0
C1054 C 0.58206 0.25917 0.63705 0.0
C1055 C 0.5657 0.24284 0.66478 0.0
C1056 C 0.57999 0.2745 0.62281 0.0
C1057 C 0.56152 0.27398 0.63706 0.0
C1058 C 0.5449 0.25745 0.66291 0.0
C1059 C 0.54692 0.2419 0.67582 0.0
H1060 H 0.85511 0.23973 0.70924 0.0
H1061 H 0.82946 0.27239 0.62047 0.0
H1062 H 0.88957 0.2665 0.70215 0.0
H1063 H 0.86342 0.29873 0.60976 0.0
H1064 H 0.92195 0.34867 0.69105 0.0
H1065 H 0.88973 0.32045 0.70681 0.0
H1066 H 0.9161 0.28819 0.61309 0.0
H1067 H 0.94885 0.31685 0.60159 0.0
C1068 C 0.85691 0.25253 0.68654 0.0
C1069 C 0.83968 0.2541 0.66636 0.0
C1070 C 0.8766 0.26788 0.68254 0.0
C1071 C 0.87937 0.285 0.65745 0.0
C1072 C 0.862 0.28606 0.63256 0.0
C1073 C 0.84249 0.27091 0.63779 0.0
C1074 C 0.92088 0.3355 0.67534 0.0
C1075 C 0.93775 0.33487 0.64485 0.0
C1076 C 0.90237 0.3193 0.68323 0.0
C1077 C 0.90002 0.30195 0.65877 0.0
C1078 C 0.91728 0.30126 0.63244 0.0
C1079 C 0.93603 0.31761 0.62595 0.0
H1080 H 0.04999 0.54243 0.70431 0.0
H1081 H 0.98745 0.51377 0.60248 0.0
H1082 H 0.05 0.51359 0.70377 0.0
H1083 H 0.98764 0.48449 0.59808 0.0
H1084 H 0.99127 0.43187 0.66473 0.0
H1085 H 0.98844 0.45986 0.67017 0.0
H1086 H 0.05181 0.49225 0.61234 0.0
H1087 H 0.05471 0.46482 0.61079 0.0
C1088 C 1.03618 0.52994 0.68097 0.0
C1089 C 1.01877 0.53066 0.65276 0.0
C1090 C 1.03623 0.51321 0.67986 0.0
C1091 C 1.01897 0.49638 0.64902 0.0
C1092 C 1.00129 0.49698 0.62262 0.0
C1093 C 1.00117 0.51385 0.62476 0.0
C1094 C 1.00458 0.44501 0.65343 0.0
C1095 C 1.02329 0.44594 0.63833 0.0
C1096 C 1.00295 0.46114 0.65608 0.0
C1097 C 1.01996 0.4787 0.64319 0.0
C1098 C 1.03842 0.47934 0.62561 0.0
C1099 C 0.04007 0.46339 0.62391 0.0
H1100 H 0.6024 0.46183 0.7097 0.0
H1101 H 0.627 0.42699 0.637 0.0
H1102 H 0.63587 0.48895 0.70559 0.0
H1103 H 0.66092 0.45457 0.63027 0.0
H1104 H 0.72301 0.51092 0.70015 0.0
H1105 H 0.6908 0.48145 0.70808 0.0
H1106 H 0.65796 0.50645 0.59791 0.0
H1107 H 0.68948 0.53543 0.59251 0.0
C1108 C 0.61498 0.45991 0.6925 0.0
C1109 C 0.61179 0.4421 0.67283 0.0
C1110 C 0.63431 0.4756 0.68949 0.0
C1111 C 0.65129 0.4742 0.66563 0.0
C1112 C 0.64833 0.45632 0.6489 0.0
C1113 C 0.62883 0.44046 0.65252 0.0
C1114 C 0.70889 0.50999 0.67707 0.0
C1115 C 0.70893 0.52572 0.64678 0.0
C1116 C 0.69037 0.49308 0.68155 0.0
C1117 C 0.6715 0.49151 0.65559 0.0
C1118 C 0.6719 0.50708 0.62147 0.0
C1119 C 0.69016 0.52381 0.61767 0.0
H1120 H 0.72914 0.2092 0.71636 0.0
H1121 H 0.69221 0.15103 0.64113 0.0
H1122 H 0.69785 0.2111 0.72699 0.0
H1123 H 0.66169 0.15299 0.65074 0.0
H1124 H 0.6113 0.15344 0.78345 0.0
H1125 H 0.64505 0.15733 0.77877 0.0
H1126 H 0.66508 0.20667 0.6362 0.0
H1127 H 0.63072 0.20288 0.64235 0.0
C1128 C 0.71447 0.19691 0.70129 0.0
C1129 C 0.71328 0.1799 0.67922 0.0
C1130 C 0.69657 0.19801 0.70718 0.0
C1131 C 0.6772 0.18211 0.69142 0.0
C1132 C 0.67625 0.16542 0.66558 0.0
C1133 C 0.69389 0.16433 0.65981 0.0
C1134 C 0.62288 0.16529 0.75185 0.0
C1135 C 0.61816 0.17769 0.71209 0.0
C1136 C 0.64229 0.16749 0.74891 0.0
C1137 C 0.65772 0.18206 0.70526 0.0
C1138 C 0.65352 0.19525 0.6701 0.0
C1139 C 0.63387 0.19309 0.6736 0.0
H1140 H 0.63559 0.9725 0.18247 0.0
H1141 H 0.61307 0.92043 0.30389 0.0
H1142 H 0.6022 0.96952 0.18628 0.0
H1143 H 0.57937 0.91768 0.31059 0.0
H1144 H 0.51728 0.91573 0.24295 0.0
H1145 H 0.54869 0.91453 0.22773 0.0
H1146 H 0.58418 0.97265 0.30666 0.0
H1147 H 0.55326 0.97394 0.31945 0.0
C1148 C 0.6234 0.96034 0.20975 0.0
C1149 C 0.62697 0.94683 0.24412 0.0
C1150 C 0.60428 0.95867 0.21241 0.0
C1151 C 0.58825 0.9436 0.25089 0.0
C1152 C 0.59143 0.92948 0.28073 0.0
C1153 C 0.61068 0.93105 0.27703 0.0
C1154 C 0.53184 0.92819 0.25727 0.0
C1155 C 0.5328 0.94498 0.2813 0.0
C1156 C 0.54979 0.92749 0.24879 0.0
C1157 C 0.56894 0.94357 0.26433 0.0
C1158 C 0.56972 0.96012 0.29163 0.0
C1159 C 0.55194 0.96084 0.29953 0.0
H1160 H 0.25001 0.66868 0.18651 0.0
H1161 H 0.3148 0.69642 0.15318 0.0
H1162 H 0.24998 0.64001 0.20989 0.0
H1163 H 0.31457 0.66783 0.17005 0.0
H1164 H 0.31456 0.61767 0.23688 0.0
H1165 H 0.31181 0.64523 0.26163 0.0
H1166 H 0.25242 0.61725 0.12365 0.0
H1167 H 0.25492 0.58941 0.10442 0.0
C1168 C 0.26426 0.66873 0.18489 0.0
C1169 C 0.28235 0.68482 0.16653 0.0
C1170 C 0.26421 0.65223 0.19732 0.0
C1171 C 0.28223 0.65148 0.19128 0.0
C1172 C 0.30041 0.6678 0.17653 0.0
C1173 C 0.30049 0.68423 0.16508 0.0
C1174 C 0.30082 0.61744 0.21362 0.0
C1175 C 0.28505 0.60165 0.16805 0.0
C1176 C 0.29924 0.6332 0.22711 0.0
C1177 C 0.28208 0.63367 0.19287 0.0
C1178 C 0.26579 0.61741 0.15163 0.0
C1179 C 0.26721 0.60149 0.14007 0.0
H1180 H 0.6378 0.66143 0.31089 0.0
H1181 H 0.6202 0.69878 0.20382 0.0
H1182 H 0.60448 0.63539 0.26638 0.0
H1183 H 0.58703 0.67258 0.15469 0.0
H1184 H 0.52266 0.62374 0.18618 0.0
H1185 H 0.55636 0.65055 0.20854 0.0
H1186 H 0.58288 0.61662 0.14701 0.0
H1187 H 0.54899 0.58944 0.13148 0.0
C1188 C 0.62678 0.66404 0.2773 0.0
C1189 C 0.6315 0.68213 0.26155 0.0
C1190 C 0.60774 0.64907 0.25057 0.0
C1191 C 0.59303 0.65179 0.20601 0.0
C1192 C 0.59784 0.66995 0.18983 0.0
C1193 C 0.61683 0.68498 0.218 0.0
C1194 C 0.53566 0.62195 0.17754 0.0
C1195 C 0.53308 0.6043 0.15961 0.0
C1196 C 0.55507 0.63744 0.1891 0.0
C1197 C 0.57245 0.63577 0.18134 0.0
C1198 C 0.56984 0.61835 0.15613 0.0
C1199 C 0.55037 0.60276 0.14582 0.0
H1200 H 0.69252 0.80227 0.23548 0.0
H1201 H 0.65978 0.79228 0.47344 0.0
H1202 H 0.69573 0.83287 0.23263 0.0
H1203 H 0.66283 0.82257 0.47024 0.0
H1204 H 0.64029 0.85782 0.32552 0.0
H1205 H 0.64483 0.83174 0.35649 0.0
H1206 H 0.70917 0.86508 0.31768 0.0
H1207 H 0.70448 0.89144 0.28717 0.0
C1208 C 0.68643 0.80678 0.28807 0.0
C1209 C 0.67545 0.79475 0.35338 0.0
C1210 C 0.68832 0.82426 0.28664 0.0
C1211 C 0.67926 0.82991 0.3506 0.0
C1212 C 0.66964 0.8184 0.41938 0.0
C1213 C 0.66778 0.80103 0.42081 0.0
C1214 C 0.65542 0.85961 0.32489 0.0
C1215 C 0.67203 0.8765 0.30397 0.0
C1216 C 0.65807 0.84477 0.34305 0.0
C1217 C 0.67737 0.84644 0.33958 0.0
C1218 C 0.69415 0.86349 0.32062 0.0
C1219 C 0.69152 0.87852 0.3039 0.0
H1220 H 0.41632 0.84429 0.25636 0.0
H1221 H 0.3948 0.88293 0.28998 0.0
H1222 H 0.38164 0.81909 0.23796 0.0
H1223 H 0.35977 0.85737 0.2783 0.0
H1224 H 0.30121 0.80974 0.13528 0.0
H1225 H 0.33527 0.83613 0.17082 0.0
H1226 H 0.35187 0.80058 0.30597 0.0
H1227 H 0.31845 0.77426 0.26563 0.0
C1228 C 0.40418 0.84743 0.26085 0.0
C1229 C 0.40847 0.86575 0.27315 0.0
C1230 C 0.38416 0.83286 0.25168 0.0
C1231 C 0.36776 0.83611 0.25638 0.0
C1232 C 0.372 0.85436 0.27275 0.0
C1233 C 0.39213 0.86903 0.28079 0.0
C1234 C 0.31222 0.80768 0.17257 0.0
C1235 C 0.30738 0.78996 0.19631 0.0
C1236 C 0.33168 0.8228 0.19372 0.0
C1237 C 0.34649 0.82051 0.24053 0.0
C1238 C 0.34115 0.80284 0.26764 0.0
C1239 C 0.32193 0.78773 0.24485 0.0
H1240 H 0.39374 0.49488 0.20155 0.0
H1241 H 0.42666 0.55072 0.11774 0.0
H1242 H 0.36261 0.49628 0.20058 0.0
H1243 H 0.39509 0.55188 0.1128 0.0
H1244 H 0.33537 0.55074 0.17965 0.0
H1245 H 0.36826 0.55202 0.19536 0.0
H1246 H 0.33995 0.4956 0.08825 0.0
H1247 H 0.30736 0.49414 0.07596 0.0
C1248 C 0.39427 0.50745 0.18258 0.0
C1249 C 0.41251 0.5226 0.15851 0.0
C1250 C 0.37641 0.50823 0.18156 0.0
C1251 C 0.37626 0.52405 0.15477 0.0
C1252 C 0.39471 0.53952 0.13399 0.0
C1253 C 0.41274 0.53883 0.13636 0.0
C1254 C 0.33628 0.53866 0.15968 0.0
C1255 C 0.31879 0.52228 0.12759 0.0
C1256 C 0.35509 0.5394 0.16833 0.0
C1257 C 0.35666 0.52382 0.14433 0.0
C1258 C 0.3392 0.50768 0.10987 0.0
C1259 C 0.3205 0.50688 0.10223 0.0
H1260 H 0.14182 0.30872 0.35891 0.0
H1261 H 0.11118 0.24917 0.33413 0.0
H1262 H 0.14221 0.30989 0.19956 0.0
H1263 H 0.11242 0.25029 0.17398 0.0
H1264 H 0.09943 0.25719 0.88887 0.0
H1265 H 0.09851 0.25623 0.0483 0.0
H1266 H 0.15746 0.30609 0.07524 0.0
H1267 H 0.15785 0.30747 0.91509 0.0
C1268 C 0.13532 0.29585 0.31928 0.0
C1269 C 0.12646 0.27883 0.35915 0.0
C1270 C 0.13569 0.29652 0.22764 0.0
C1271 C 0.12745 0.28021 0.17325 0.0
C1272 C 0.11862 0.26315 0.21338 0.0
C1273 C 0.11799 0.26247 0.30528 0.0
C1274 C 0.11218 0.26799 0.92885 0.0
C1275 C 0.12871 0.28244 0.88937 0.0
C1276 C 0.11173 0.26735 0.02052 0.0
C1277 C 0.12794 0.28101 0.07529 0.0
C1278 C 0.14452 0.29547 0.03553 0.0
C1279 C 0.14483 0.29625 0.94362 0.0
H1280 H 0.88649 0.7911 0.29552 0.0
H1281 H 0.92523 0.85041 0.30751 0.0
H1282 H 0.88519 0.79049 0.13531 0.0
H1283 H 0.92483 0.84978 0.14693 0.0
H1284 H 0.90409 0.84508 0.85906 0.0
H1285 H 0.90448 0.84553 0.01943 0.0
H1286 H 0.90391 0.79364 0.01164 0.0
H1287 H 0.90248 0.79281 0.85121 0.0
C1288 C 0.89494 0.80401 0.26382 0.0
C1289 C 0.90595 0.82081 0.31419 0.0
C1290 C 0.89431 0.80366 0.17172 0.0
C1291 C 0.90494 0.82008 0.12753 0.0
C1292 C 0.91613 0.83688 0.17827 0.0
C1293 C 0.9165 0.83725 0.27048 0.0
C1294 C 0.90396 0.83374 0.89173 0.0
C1295 C 0.90318 0.81888 0.84248 0.0
C1296 C 0.90436 0.83406 0.98387 0.0
C1297 C 0.9043 0.81966 0.02913 0.0
C1298 C 0.90359 0.80482 0.97946 0.0
C1299 C 0.90288 0.80437 0.88729 0.0
H1300 H 0.33178 1.01237 0.31722 0.0
H1301 H 0.32878 0.06251 0.32473 0.0
H1302 H 0.33137 1.01194 0.15705 0.0
H1303 H 0.32937 0.06263 0.16449 0.0
H1304 H 0.31014 0.04797 0.87365 0.0
H1305 H 0.30978 0.04784 0.03368 0.0
H1306 H 0.35096 0.02631 0.0375 0.0
H1307 H 0.35047 0.02563 0.877 0.0
C1308 C 0.33122 1.02341 0.28459 0.0
C1309 C 0.33026 0.03745 0.33361 0.0
C1310 C 0.33113 1.02324 0.19259 0.0
C1311 C 0.33039 0.03727 0.14729 0.0
C1312 C 0.32958 0.0514 0.19669 0.0
C1313 C 0.32937 0.05141 0.28872 0.0
C1314 C 0.31909 0.04318 0.90875 0.0
C1315 C 0.33031 0.03679 0.86273 0.0
C1316 C 0.31901 0.04323 0.00072 0.0
C1317 C 0.33039 0.03712 0.04909 0.0
C1318 C 0.34171 0.03081 0.00271 0.0
C1319 C 0.34155 0.03052 0.9106 0.0
H1320 H 0.09376 0.78936 0.85644 0.0
H1321 H 0.11619 0.84803 0.86537 0.0
H1322 H 0.09353 0.78996 0.01701 0.0
H1323 H 0.11506 0.84855 0.02501 0.0
H1324 H 0.12961 0.84749 0.31557 0.0
H1325 H 0.13075 0.84673 0.15569 0.0
H1326 H 0.07638 0.7928 0.13708 0.0
H1327 H 0.07588 0.79327 0.29739 0.0
C1328 C 0.09854 0.80237 0.89273 0.0
C1329 C 0.10507 0.81865 0.84821 0.0
C1330 C 0.09826 0.80271 0.98487 0.0
C1331 C 0.10424 0.81931 0.0346 0.0
C1332 C 0.11073 0.83557 -0.01043 0.0
C1333 C 0.11128 0.83526 0.89771 0.0
C1334 C 0.11785 0.83551 0.27724 0.0
C1335 C 0.10264 0.82046 0.31913 0.0
C1336 C 0.11844 0.83508 0.18533 0.0
C1337 C 0.10365 0.8197 0.1328 0.0
C1338 C 0.08827 0.80474 0.17503 0.0
C1339 C 0.08786 0.80506 0.26706 0.0
H1340 H 0.32423 0.24961 0.3341 0.0
H1341 H 0.32313 0.30066 0.34038 0.0
H1342 H 0.32611 0.25009 0.17487 0.0
H1343 H 0.32396 0.3007 0.18007 0.0
H1344 H 0.34582 0.30547 0.90189 0.0
H1345 H 0.34491 0.30534 0.06208 0.0
H1346 H 0.30758 0.24579 0.04256 0.0
H1347 H 0.30941 0.24595 0.88312 0.0
C1348 C 0.32409 0.26082 0.30124 0.0
C1349 C 0.32348 0.27508 0.3499 0.0
C1350 C 0.32506 0.26105 0.20959 0.0
C1351 C 0.32514 0.27541 0.16389 0.0
C1352 C 0.32429 0.28958 0.21277 0.0
C1353 C 0.32362 0.28948 0.30474 0.0
C1354 C 0.33755 0.29236 0.93204 0.0
C1355 C 0.32778 0.27572 0.87986 0.0
C1356 C 0.33686 0.29227 0.02396 0.0
C1357 C 0.32612 0.27555 0.06589 0.0
C1358 C 0.31634 0.25892 0.01323 0.0
C1359 C 0.31729 0.259 0.92152 0.0
H1360 H 0.9037 0.08673 0.23671 0.0
H1361 H 0.90677 0.03664 0.2286 0.0
H1362 H 0.90353 0.08656 0.07626 0.0
H1363 H 0.90557 0.03589 0.0683 0.0
H1364 H 0.92336 0.04903 0.78657 0.0
H1365 H 0.9244 0.04986 0.94696 0.0
H1366 H 0.88351 0.07171 0.94665 0.0
H1367 H 0.88336 0.07171 0.78636 0.0
C1368 C 0.90418 0.0756 0.20051 0.0
C1369 C 0.90532 0.06174 0.24526 0.0
C1370 C 0.90393 0.07541 0.10837 0.0
C1371 C 0.90449 0.06118 0.05872 0.0
C1372 C 0.90552 0.04727 0.10394 0.0
C1373 C 0.90608 0.04763 0.19603 0.0
C1374 C 0.91458 0.05399 0.82085 0.0
C1375 C 0.9033 0.06033 0.77382 0.0
C1376 C 0.91507 0.05437 0.91298 0.0
C1377 C 0.90402 0.06084 0.96037 0.0
C1378 C 0.89254 0.06697 0.91288 0.0
C1379 C 0.89231 0.06685 0.82079 0.0
H1380 H 0.77146 0.56011 0.93101 0.0
H1381 H 0.74793 0.5975 0.93538 0.0
H1382 H 0.77045 0.55919 0.09082 0.0
H1383 H 0.74765 0.59725 0.09567 0.0
H1384 H 0.73042 0.57876 0.3732 0.0
H1385 H 0.73076 0.57897 0.21294 0.0
H1386 H 0.78619 0.57636 0.22338 0.0
H1387 H 0.78526 0.57528 0.38304 0.0
C1388 C 0.76628 0.5683 0.96638 0.0
C1389 C 0.75969 0.57881 0.92073 0.0
C1390 C 0.76579 0.56786 0.05817 0.0
C1391 C 0.75897 0.57815 0.10671 0.0
C1392 C 0.75261 0.58885 0.06071 0.0
C1393 C 0.75286 0.58908 0.96877 0.0
C1394 C 0.74263 0.57816 0.34109 0.0
C1395 C 0.75776 0.57693 0.39074 0.0
C1396 C 0.74292 0.57842 0.24915 0.0
C1397 C 0.75853 0.57772 0.20471 0.0
C1398 C 0.77371 0.57657 0.25481 0.0
C1399 C 0.77325 0.57606 0.34658 0.0
H1400 H 0.55414 0.18571 0.42315 0.0
H1401 H 0.56214 0.13818 0.41393 0.0
H1402 H 0.55364 0.18563 0.26298 0.0
H1403 H 0.56261 0.13857 0.25373 0.0
H1404 H 0.5737 0.19224 0.9819 0.0
H1405 H 0.57428 0.19213 0.14228 0.0
H1406 H 0.54191 0.1324 0.12448 0.0
H1407 H 0.54218 0.13263 0.96443 0.0
C1408 C 0.55599 0.17534 0.38684 0.0
C1409 C 0.55816 0.16194 0.43117 0.0
C1410 C 0.55584 0.17536 0.29487 0.0
C1411 C 0.55815 0.16213 0.24494 0.0
C1412 C 0.56044 0.14878 0.28962 0.0
C1413 C 0.5603 0.14861 0.38161 0.0
C1414 C 0.56672 0.1791 0.01241 0.0
C1415 C 0.55793 0.16245 0.96061 0.0
C1416 C 0.56693 0.17901 0.10444 0.0
C1417 C 0.55811 0.16225 0.14682 0.0
C1418 C 0.54919 0.14559 0.09456 0.0
C1419 C 0.54922 0.1457 0.00263 0.0
H1420 H 0.06023 0.42636 0.91904 0.0
H1421 H 1.00227 0.37556 0.90404 0.0
H1422 H 0.0606 0.42692 0.07925 0.0
H1423 H 1.00303 0.37559 0.06449 0.0
H1424 H 1.00019 0.39017 0.352 0.0
H1425 H 0.99968 0.39024 0.19186 0.0
H1426 H 0.06492 0.41286 0.20238 0.0
H1427 H 0.06546 0.41358 0.36297 0.0
C1428 C 0.04763 0.41521 0.95008 0.0
C1429 C 1.03119 0.40093 0.8989 0.0
C1430 C 0.04791 0.41545 0.04212 0.0
C1431 C 1.03188 0.40128 0.08536 0.0
C1432 C 1.01548 0.38693 0.03383 0.0
C1433 C 1.01507 0.38683 0.94171 0.0
C1434 C 1.01442 0.39518 0.32003 0.0
C1435 C 1.03287 0.40189 0.37007 0.0
C1436 C 1.01413 0.3951 0.22802 0.0
C1437 C 1.03224 0.40149 0.18363 0.0
C1438 C 0.0507 0.40813 0.23402 0.0
C1439 C 0.05102 0.40845 0.32618 0.0
H1440 H 0.75249 0.14287 0.94876 0.0
H1441 H 0.77381 0.2013 0.96531 0.0
H1442 H 0.75189 0.14242 0.10887 0.0
H1443 H 0.77266 0.20088 0.1255 0.0
H1444 H 0.78782 0.19781 0.41355 0.0
H1445 H 0.78886 0.19807 0.25387 0.0
H1446 H 0.73412 0.14443 0.22987 0.0
H1447 H 0.7336 0.14389 0.3902 0.0
C1448 C 0.75681 0.15558 0.98678 0.0
C1449 C 0.76306 0.17208 0.9446 0.0
C1450 C 0.75642 0.15533 0.07863 0.0
C1451 C 0.76212 0.17159 0.13055 0.0
C1452 C 0.76846 0.18813 0.08801 0.0
C1453 C 0.76905 0.18839 -0.00389 0.0
C1454 C 0.77598 0.18607 0.37421 0.0
C1455 C 0.76061 0.17083 0.41459 0.0
C1456 C 0.77651 0.18626 0.28243 0.0
C1457 C 0.76154 0.1713 0.22852 0.0
C1458 C 0.74609 0.15608 0.2691 0.0
C1459 C 0.7457 0.1558 0.36108 0.0
H1460 H 0.05422 0.60236 0.93342 0.0
H1461 H 0.98985 0.56245 0.92133 0.0
H1462 H 0.05521 0.60235 0.09348 0.0
H1463 H 0.99096 0.56172 0.08166 0.0
H1464 H 0.9948 0.57786 0.37208 0.0
H1465 H 0.99397 0.57852 0.21263 0.0
H1466 H 0.05414 0.58502 0.21339 0.0
H1467 H 0.05529 0.58524 0.37433 0.0
C1468 C 0.04027 0.59348 0.96508 0.0
C1469 C 1.02192 0.58242 0.91473 0.0
C1470 C 0.04088 0.59335 0.05704 0.0
C1471 C 1.02321 0.58196 0.10113 0.0
C1472 C 1.00483 0.57091 0.05046 0.0
C1473 C 1.00417 0.57125 0.95838 0.0
C1474 C 1.00788 0.57942 0.3383 0.0
C1475 C 1.02513 0.58149 0.38592 0.0
C1476 C 1.00734 0.57967 0.24647 0.0
C1477 C 1.02393 0.58173 0.1994 0.0
C1478 C 0.04118 0.5837 0.2472 0.0
C1479 C 0.04183 0.58371 0.33949 0.0
H1480 H 0.55474 0.37212 0.93591 0.0
H1481 H 0.55371 0.42318 0.93854 0.0
H1482 H 0.55373 0.37241 0.09632 0.0
H1483 H 0.55368 0.424 0.09841 0.0
H1484 H 0.53382 0.41159 0.37877 0.0
H1485 H 0.53363 0.41046 0.21798 0.0
H1486 H 0.57312 0.38716 0.2274 0.0
H1487 H 0.57246 0.38752 0.38715 0.0
C1488 C 0.55452 0.38349 0.97086 0.0
C1489 C 0.55426 0.39758 0.92454 0.0
C1490 C 0.55405 0.38374 0.06295 0.0
C1491 C 0.55361 0.39824 0.11089 0.0
C1492 C 0.55358 0.41241 0.06411 0.0
C1493 C 0.55376 0.41202 0.9722 0.0
C1494 C 0.54244 0.40624 0.34625 0.0
C1495 C 0.55309 0.3996 0.39558 0.0
C1496 C 0.54244 0.40567 0.25402 0.0
C1497 C 0.55335 0.39869 0.20914 0.0
C1498 C 0.56419 0.39226 0.25907 0.0
C1499 C 0.56394 0.3926 0.35096 0.0
H1500 H 0.45816 0.92233 0.55516 0.0
H1501 H 0.51001 0.97769 0.57774 0.0
H1502 H 0.45675 0.92233 0.71474 0.0
H1503 H 0.50922 0.97745 0.73803 0.0
H1504 H 0.49 0.97845 0.01788 0.0
H1505 H 0.49076 0.97862 0.85765 0.0
H1506 H 0.47316 0.92085 0.84481 0.0
H1507 H 0.4717 0.92063 0.00465 0.0
C1508 C 0.46944 0.93443 0.59436 0.0
C1509 C 0.48423 0.95 0.55378 0.0
C1510 C 0.4687 0.93441 0.68611 0.0
C1511 C 0.48289 0.94987 0.73982 0.0
C1512 C 0.49781 0.9654 0.69901 0.0
C1513 C 0.49838 0.96551 0.60704 0.0
C1514 C 0.48631 0.96582 0.98062 0.0
C1515 C 0.48084 0.94955 0.02376 0.0
C1516 C 0.48684 0.96591 0.88871 0.0
C1517 C 0.48211 0.94976 0.8378 0.0
C1518 C 0.47657 0.93348 0.88137 0.0
C1519 C 0.47581 0.93335 0.97317 0.0
H1520 H 0.26134 0.4901 0.82129 0.0
H1521 H 0.26845 0.54456 0.8372 0.0
H1522 H 0.26101 0.49042 0.66084 0.0
H1523 H 0.26701 0.54458 0.67723 0.0
H1524 H 0.28345 0.54723 0.3921 0.0
H1525 H 0.28482 0.54701 0.55223 0.0
H1526 H 0.24153 0.48833 0.53457 0.0
H1527 H 0.24111 0.48849 0.37433 0.0
C1528 C 0.26269 0.50209 0.79035 0.0
C1529 C 0.26502 0.51733 0.84178 0.0
C1530 C 0.26234 0.50224 0.69824 0.0
C1531 C 0.26394 0.51752 0.65537 0.0
C1532 C 0.26616 0.53271 0.70738 0.0
C1533 C 0.26687 0.53268 0.79935 0.0
C1534 C 0.27419 0.53431 0.42258 0.0
C1535 C 0.26218 0.51789 0.37066 0.0
C1536 C 0.27488 0.53417 0.5146 0.0
C1537 C 0.26327 0.51764 0.55707 0.0
C1538 C 0.25101 0.50127 0.50468 0.0
C1539 C 0.25061 0.50137 0.41263 0.0
H1540 H 0.71 0.71565 0.0397 0.0
H1541 H 0.67107 0.73941 0.03453 0.0
H1542 H 0.70909 0.71412 0.87933 0.0
H1543 H 0.66915 0.73698 0.87391 0.0
H1544 H 0.68837 0.69697 0.59086 0.0
H1545 H 0.68906 0.69851 0.75186 0.0
H1546 H 0.68659 0.74894 0.74853 0.0
H1547 H 0.68476 0.74674 0.5887 0.0
C1548 C 0.70118 0.72051 0.00411 0.0
C1549 C 0.6907 0.72776 0.0498 0.0
C1550 C 0.70046 0.71944 0.91189 0.0
C1551 C 0.68894 0.7253 0.86275 0.0
C1552 C 0.6785 0.73262 0.9089 0.0
C1553 C 0.67952 0.73398 0.00124 0.0
C1554 C 0.68782 0.70827 0.62483 0.0
C1555 C 0.68637 0.72164 0.57699 0.0
C1556 C 0.6884 0.70929 0.71728 0.0
C1557 C 0.6879 0.72389 0.76407 0.0
C1558 C 0.68655 0.73726 0.71556 0.0
C1559 C 0.68562 0.73606 0.62347 0.0
H1560 H 0.4509 0.48928 0.86354 0.0
H1561 H 0.47106 0.54753 0.87277 0.0
H1562 H 0.45261 0.48902 0.70409 0.0
H1563 H 0.47182 0.54715 0.71242 0.0
H1564 H 0.49022 0.54494 0.43261 0.0
H1565 H 0.48967 0.54517 0.593 0.0
H1566 H 0.4367 0.49034 0.57314 0.0
H1567 H 0.43793 0.48981 0.41352 0.0
C1568 C 0.45541 0.50199 0.83127 0.0
C1569 C 0.46079 0.51842 0.88075 0.0
C1570 C 0.45632 0.50184 0.73955 0.0
C1571 C 0.46232 0.51805 0.6947 0.0
C1572 C 0.46749 0.53446 0.74445 0.0
C1573 C 0.46687 0.53466 0.83643 0.0
C1574 C 0.47856 0.5329 0.46272 0.0
C1575 C 0.46417 0.51735 0.41038 0.0
C1576 C 0.47811 0.53308 0.55476 0.0
C1577 C 0.46309 0.5178 0.59662 0.0
C1578 C 0.44873 0.50224 0.54381 0.0
C1579 C 0.44936 0.50197 0.45198 0.0
H1580 H 0.68558 0.98344 -0.00413 0.0
H1581 H 0.68641 0.93229 0.98174 0.0
H1582 H 0.68438 0.98345 0.83596 0.0
H1583 H 0.6862 0.93267 0.82125 0.0
H1584 H 0.66529 0.92866 0.53421 0.0
H1585 H 0.66563 0.92848 0.6944 0.0
H1586 H 0.70351 0.98799 0.71224 0.0
H1587 H 0.70228 0.98815 0.55195 0.0
C1588 C 0.68578 0.9723 0.95847 0.0
C1589 C 0.68613 0.95788 0.00141 0.0
C1590 C 0.6852 0.97235 0.86654 0.0
C1591 C 0.68525 0.95809 0.81507 0.0
C1592 C 0.68577 0.94372 0.85835 0.0
C1593 C 0.68605 0.94355 0.95045 0.0
C1594 C 0.67361 0.94171 0.57247 0.0
C1595 C 0.6837 0.95842 0.53049 0.0
C1596 C 0.67396 0.9416 0.66448 0.0
C1597 C 0.68467 0.95821 0.71684 0.0
C1598 C 0.69479 0.97494 0.67446 0.0
C1599 C 0.69418 0.97505 0.58241 0.0
H1600 H 0.24421 0.7645 0.41392 0.0
H1601 H 0.2561 0.71924 0.4152 0.0
H1602 H 0.24649 0.76683 0.57379 0.0
H1603 H 0.25735 0.72089 0.57626 0.0
H1604 H 0.27854 0.7401 0.86364 0.0
H1605 H 0.27705 0.7383 0.70283 0.0
H1606 H 0.23023 0.75328 0.69976 0.0
H1607 H 0.23256 0.75598 0.86002 0.0
C1608 C 0.24698 0.75481 0.44845 0.0
C1609 C 0.24994 0.74165 0.40165 0.0
C1610 C 0.2482 0.75608 0.54058 0.0
C1611 C 0.25208 0.74404 0.58882 0.0
C1612 C 0.25471 0.73064 0.54179 0.0
C1613 C 0.25379 0.72955 0.44931 0.0
C1614 C 0.26809 0.74319 0.8284 0.0
C1615 C 0.25578 0.74831 0.87461 0.0
C1616 C 0.26705 0.74196 0.73603 0.0
C1617 C 0.25345 0.74556 0.6875 0.0
C1618 C 0.24119 0.75074 0.73422 0.0
C1619 C 0.24246 0.75224 0.82645 0.0
loop_
_geom_bond_atom_site_label_1
_geom_bond_atom_site_label_2
_geom_bond_distance
_geom_bond_site_symmetry_2
_ccdc_geom_bond_type
Co0 N5 2.057 . S
Co0 O17 2.021 . S
Co0 O20 2.062 . S
Co0 O24 2.117 . S
Co0 O25 2.020 . S
C1 O21 1.259 . S
C1 O24 1.258 . S
Co2 N11 2.057 . S
Co2 O18 2.117 . S
Co2 O19 2.020 . S
Co2 O21 2.021 . S
Co2 O26 2.062 . S
C3 N5 1.316 . S
C3 N6 1.347 . S
C3 H8 0.931 . S
C4 N5 1.375 . S
C4 C7 1.350 . S
C4 H9 0.930 . S
N5 Co0 2.057 . S
N5 C3 1.316 . S
N5 C4 1.375 . S
N6 C3 1.347 . S
N6 C7 1.373 . S
C7 C4 1.350 . S
C7 N6 1.373 . S
C7 H28 0.931 . S
H8 C3 0.931 . S
H9 C4 0.930 . S
C10 O17 1.259 . S
C10 O18 1.258 . S
N11 Co2 2.057 . S
N11 C12 1.316 . S
N11 C13 1.375 . S
C12 N11 1.316 . S
C12 N14 1.347 . S
C12 H23 0.931 . S
C13 N11 1.375 . S
C13 C15 1.350 . S
C13 H22 0.930 . S
N14 C12 1.347 . S
N14 C15 1.373 . S
C15 C13 1.350 . S
C15 N14 1.373 . S
C15 H29 0.931 . S
C16 O19 1.256 . S
C16 O20 1.255 . S
O17 Co0 2.021 . S
O17 C10 1.259 . S
O18 Co2 2.117 . S
O18 C10 1.258 . S
O19 Co2 2.020 . S
O19 C16 1.256 . S
O20 Co0 2.062 . S
O20 C16 1.255 . S
O21 C1 1.259 . S
O21 Co2 2.021 . S
H22 C13 0.930 . S
H23 C12 0.931 . S
O24 Co0 2.117 . S
O24 C1 1.258 . S
O25 Co0 2.020 . S
O25 C27 1.256 . S
O26 Co2 2.062 . S
O26 C27 1.255 . S
C27 O25 1.256 . S
C27 O26 1.255 . S
H28 C7 0.931 . S
H29 C15 0.931 . S
Co30 N35 2.057 . S
Co30 O47 2.021 . S
Co30 O50 2.062 . S
Co30 O54 2.117 . S
Co30 O55 2.020 . S
C31 O51 1.259 . S
C31 O54 1.258 . S
Co32 N41 2.057 . S
Co32 O48 2.117 . S
Co32 O49 2.020 . S
Co32 O51 2.021 . S
Co32 O56 2.062 . S
C33 N35 1.316 . S
C33 N36 1.347 . S
C33 H38 0.931 . S
C34 N35 1.375 . S
C34 C37 1.350 . S
C34 H39 0.930 . S
N35 Co30 2.057 . S
N35 C33 1.316 . S
N35 C34 1.375 . S
N36 C33 1.347 . S
N36 C37 1.373 . S
C37 C34 1.350 . S
C37 N36 1.373 . S
C37 H58 0.931 . S
H38 C33 0.931 . S
H39 C34 0.930 . S
C40 O47 1.259 . S
C40 O48 1.258 . S
N41 Co32 2.057 . S
N41 C42 1.316 . S
N41 C43 1.375 . S
C42 N41 1.316 . S
C42 N44 1.347 . S
C42 H53 0.931 . S
C43 N41 1.375 . S
C43 C45 1.350 . S
C43 H52 0.930 . S
N44 C42 1.347 . S
N44 C45 1.373 . S
C45 C43 1.350 . S
C45 N44 1.373 . S
C45 H59 0.931 . S
C46 O49 1.256 . S
C46 O50 1.255 . S
O47 Co30 2.021 . S
O47 C40 1.259 . S
O48 Co32 2.117 . S
O48 C40 1.258 . S
O49 Co32 2.020 . S
O49 C46 1.256 . S
O50 Co30 2.062 . S
O50 C46 1.255 . S
O51 C31 1.259 . S
O51 Co32 2.021 . S
H52 C43 0.930 . S
H53 C42 0.931 . S
O54 Co30 2.117 . S
O54 C31 1.258 . S
O55 Co30 2.020 . S
O55 C57 1.256 . S
O56 Co32 2.062 . S
O56 C57 1.255 . S
C57 O55 1.256 . S
C57 O56 1.255 . S
H58 C37 0.931 . S
H59 C45 0.931 . S
Co60 N65 2.057 1_545 S
Co60 O77 2.021 1_545 S
Co60 O80 2.062 . S
Co60 O84 2.117 . S
Co60 O85 2.020 . S
C61 O81 1.259 . S
C61 O84 1.258 . S
Co62 N71 2.057 . S
Co62 O78 2.117 . S
Co62 O79 2.020 . S
Co62 O81 2.021 . S
Co62 O86 2.062 . S
C63 N65 1.316 . S
C63 N66 1.347 . S
C63 H68 0.931 . S
C64 N65 1.376 1_545 S
C64 C67 1.338 1_545 S
C64 H69 0.939 . S
N65 Co60 2.057 1_565 S
N65 C63 1.316 . S
N65 C64 1.376 1_565 S
N66 C63 1.347 . S
N66 C67 1.373 . S
C67 C64 1.338 1_565 S
C67 N66 1.373 . S
C67 H88 0.931 . S
H68 C63 0.931 . S
H69 C64 0.939 . S
C70 O77 1.259 . S
C70 O78 1.258 1_565 S
N71 Co62 2.057 . S
N71 C72 1.316 . S
N71 C73 1.375 . S
C72 N71 1.316 . S
C72 N74 1.347 . S
C72 H83 0.931 . S
C73 N71 1.375 . S
C73 C75 1.350 . S
C73 H82 0.930 . S
N74 C72 1.347 . S
N74 C75 1.373 . S
C75 C73 1.350 . S
C75 N74 1.373 . S
C75 H89 0.931 . S
C76 O79 1.256 . S
C76 O80 1.255 . S
O77 Co60 2.021 1_565 S
O77 C70 1.259 . S
O78 Co62 2.117 . S
O78 C70 1.258 1_545 S
O79 Co62 2.020 . S
O79 C76 1.256 . S
O80 Co60 2.062 . S
O80 C76 1.255 . S
O81 C61 1.259 . S
O81 Co62 2.021 . S
H82 C73 0.930 . S
H83 C72 0.931 . S
O84 Co60 2.117 . S
O84 C61 1.258 . S
O85 Co60 2.020 . S
O85 C87 1.256 . S
O86 Co62 2.062 . S
O86 C87 1.255 . S
C87 O85 1.256 . S
C87 O86 1.255 . S
H88 C67 0.931 . S
H89 C75 0.931 . S
Co90 N95 2.057 . S
Co90 O107 2.021 . S
Co90 O110 2.062 . S
Co90 O114 2.117 . S
Co90 O115 2.020 . S
C91 O111 1.259 . S
C91 O114 1.258 . S
Co92 N101 2.057 . S
Co92 O108 2.117 . S
Co92 O109 2.020 . S
Co92 O111 2.021 . S
Co92 O116 2.062 . S
C93 N95 1.316 . S
C93 N96 1.347 . S
C93 H98 0.931 . S
C94 N95 1.375 . S
C94 C97 1.350 . S
C94 H99 0.930 . S
N95 Co90 2.057 . S
N95 C93 1.316 . S
N95 C94 1.375 . S
N96 C93 1.347 . S
N96 C97 1.373 . S
C97 C94 1.350 . S
C97 N96 1.373 . S
C97 H118 0.931 . S
H98 C93 0.931 . S
H99 C94 0.930 . S
C100 O107 1.259 . S
C100 O108 1.258 . S
N101 Co92 2.057 . S
N101 C102 1.316 . S
N101 C103 1.375 . S
C102 N101 1.316 . S
C102 N104 1.347 . S
C102 H113 0.931 . S
C103 N101 1.375 . S
C103 C105 1.350 . S
C103 H112 0.930 . S
N104 C102 1.347 . S
N104 C105 1.373 . S
C105 C103 1.350 . S
C105 N104 1.373 . S
C105 H119 0.931 . S
C106 O109 1.256 . S
C106 O110 1.255 . S
O107 Co90 2.021 . S
O107 C100 1.259 . S
O108 Co92 2.117 . S
O108 C100 1.258 . S
O109 Co92 2.020 . S
O109 C106 1.256 . S
O110 Co90 2.062 . S
O110 C106 1.255 . S
O111 C91 1.259 . S
O111 Co92 2.021 . S
H112 C103 0.930 . S
H113 C102 0.931 . S
O114 Co90 2.117 . S
O114 C91 1.258 . S
O115 Co90 2.020 . S
O115 C117 1.256 . S
O116 Co92 2.062 . S
O116 C117 1.255 . S
C117 O115 1.256 . S
C117 O116 1.255 . S
H118 C97 0.931 . S
H119 C105 0.931 . S
Co120 N125 2.057 . S
Co120 O137 2.021 . S
Co120 O140 2.062 . S
Co120 O144 2.117 . S
Co120 O145 2.020 . S
C121 O141 1.259 . S
C121 O144 1.258 . S
Co122 N131 2.057 . S
Co122 O138 2.117 . S
Co122 O139 2.020 . S
Co122 O141 2.021 . S
Co122 O146 2.062 . S
C123 N125 1.316 . S
C123 N126 1.347 . S
C123 H128 0.931 . S
C124 N125 1.375 . S
C124 C127 1.350 . S
C124 H129 0.930 . S
N125 Co120 2.057 . S
N125 C123 1.316 . S
N125 C124 1.375 . S
N126 C123 1.347 . S
N126 C127 1.373 . S
C127 C124 1.350 . S
C127 N126 1.373 . S
C127 H148 0.931 . S
H128 C123 0.931 . S
H129 C124 0.930 . S
C130 O137 1.259 . S
C130 O138 1.258 . S
N131 Co122 2.057 . S
N131 C132 1.316 . S
N131 C133 1.375 . S
C132 N131 1.316 . S
C132 N134 1.347 . S
C132 H143 0.931 . S
C133 N131 1.375 . S
C133 C135 1.350 . S
C133 H142 0.930 . S
N134 C132 1.347 . S
N134 C135 1.373 . S
C135 C133 1.350 . S
C135 N134 1.373 . S
C135 H149 0.931 . S
C136 O139 1.256 . S
C136 O140 1.255 . S
O137 Co120 2.021 . S
O137 C130 1.259 . S
O138 Co122 2.117 . S
O138 C130 1.258 . S
O139 Co122 2.020 . S
O139 C136 1.256 . S
O140 Co120 2.062 . S
O140 C136 1.255 . S
O141 C121 1.259 . S
O141 Co122 2.021 . S
H142 C133 0.930 . S
H143 C132 0.931 . S
O144 Co120 2.117 . S
O144 C121 1.258 . S
O145 Co120 2.020 . S
O145 C147 1.256 . S
O146 Co122 2.062 . S
O146 C147 1.255 . S
C147 O145 1.256 . S
C147 O146 1.255 . S
H148 C127 0.931 . S
H149 C135 0.931 . S
Co150 N155 2.057 . S
Co150 O167 2.027 . S
Co150 O170 2.062 . S
Co150 O174 2.117 . S
Co150 O175 2.020 . S
C151 O171 1.259 . S
C151 O174 1.258 . S
Co152 N161 2.057 . S
Co152 O168 2.117 . S
Co152 O169 2.020 . S
Co152 O171 2.021 . S
Co152 O176 2.062 . S
C153 N155 1.316 1_565 S
C153 N156 1.347 . S
C153 H158 0.931 . S
C154 N155 1.375 . S
C154 C157 1.350 1_545 S
C154 H159 0.930 . S
N155 Co150 2.057 . S
N155 C153 1.316 1_545 S
N155 C154 1.375 . S
N156 C153 1.347 . S
N156 C157 1.373 . S
C157 C154 1.350 1_565 S
C157 N156 1.373 . S
C157 H178 0.931 . S
H158 C153 0.931 . S
H159 C154 0.930 . S
C160 O167 1.285 . S
C160 O168 1.258 . S
N161 Co152 2.057 . S
N161 C162 1.316 . S
N161 C163 1.375 . S
C162 N161 1.316 . S
C162 N164 1.347 . S
C162 H173 0.931 . S
C163 N161 1.375 . S
C163 C165 1.350 . S
C163 H172 0.930 . S
N164 C162 1.347 . S
N164 C165 1.373 . S
C165 C163 1.350 . S
C165 N164 1.373 . S
C165 H179 0.931 . S
C166 O169 1.256 . S
C166 O170 1.255 . S
O167 Co150 2.027 . S
O167 C160 1.285 . S
O168 Co152 2.117 . S
O168 C160 1.258 . S
O169 Co152 2.020 . S
O169 C166 1.256 . S
O170 Co150 2.062 . S
O170 C166 1.255 . S
O171 C151 1.259 . S
O171 Co152 2.021 . S
H172 C163 0.930 . S
H173 C162 0.931 . S
O174 Co150 2.117 . S
O174 C151 1.258 . S
O175 Co150 2.020 . S
O175 C177 1.256 . S
O176 Co152 2.062 . S
O176 C177 1.255 . S
C177 O175 1.256 . S
C177 O176 1.255 . S
H178 C157 0.931 . S
H179 C165 0.931 . S
Co180 N185 2.057 . S
Co180 O197 2.021 . S
Co180 O200 2.062 . S
Co180 O204 2.117 . S
Co180 O205 2.020 . S
C181 O201 1.259 . S
C181 O204 1.258 . S
Co182 N191 2.057 . S
Co182 O198 2.117 . S
Co182 O199 2.020 . S
Co182 O201 2.021 . S
Co182 O206 2.062 . S
C183 N185 1.316 . S
C183 N186 1.347 . S
C183 H188 0.931 . S
C184 N185 1.375 . S
C184 C187 1.350 . S
C184 H189 0.930 . S
N185 Co180 2.057 . S
N185 C183 1.316 . S
N185 C184 1.375 . S
N186 C183 1.347 . S
N186 C187 1.373 . S
C187 C184 1.350 . S
C187 N186 1.373 . S
C187 H208 0.931 . S
H188 C183 0.931 . S
H189 C184 0.930 . S
C190 O197 1.259 . S
C190 O198 1.258 . S
N191 Co182 2.057 . S
N191 C192 1.316 . S
N191 C193 1.375 . S
C192 N191 1.316 . S
C192 N194 1.347 . S
C192 H203 0.931 . S
C193 N191 1.375 . S
C193 C195 1.350 . S
C193 H202 0.930 . S
N194 C192 1.347 . S
N194 C195 1.373 . S
C195 C193 1.350 . S
C195 N194 1.373 . S
C195 H209 0.931 . S
C196 O199 1.256 . S
C196 O200 1.255 . S
O197 Co180 2.021 . S
O197 C190 1.259 . S
O198 Co182 2.117 . S
O198 C190 1.258 . S
O199 Co182 2.020 . S
O199 C196 1.256 . S
O200 Co180 2.062 . S
O200 C196 1.255 . S
O201 C181 1.259 . S
O201 Co182 2.021 . S
H202 C193 0.930 . S
H203 C192 0.931 . S
O204 Co180 2.117 . S
O204 C181 1.258 . S
O205 Co180 2.020 . S
O205 C207 1.256 . S
O206 Co182 2.062 . S
O206 C207 1.255 . S
C207 O205 1.256 . S
C207 O206 1.255 . S
H208 C187 0.931 . S
H209 C195 0.931 . S
Co210 N215 2.057 . S
Co210 O227 2.021 . S
Co210 O230 2.062 . S
Co210 O234 2.117 . S
Co210 O235 2.020 . S
C211 O231 1.259 . S
C211 O234 1.258 . S
Co212 N221 2.057 . S
Co212 O228 2.117 . S
Co212 O229 2.020 . S
Co212 O231 2.021 . S
Co212 O236 2.062 . S
C213 N215 1.316 . S
C213 N216 1.347 . S
C213 H218 0.931 . S
C214 N215 1.375 . S
C214 C217 1.350 . S
C214 H219 0.930 . S
N215 Co210 2.057 . S
N215 C213 1.316 . S
N215 C214 1.375 . S
N216 C213 1.347 . S
N216 C217 1.373 . S
C217 C214 1.350 . S
C217 N216 1.373 . S
C217 H238 0.931 . S
H218 C213 0.931 . S
H219 C214 0.930 . S
C220 O227 1.259 . S
C220 O228 1.258 . S
N221 Co212 2.057 . S
N221 C222 1.316 . S
N221 C223 1.375 . S
C222 N221 1.316 . S
C222 N224 1.347 . S
C222 H233 0.931 . S
C223 N221 1.375 . S
C223 C225 1.350 . S
C223 H232 0.930 . S
N224 C222 1.347 . S
N224 C225 1.373 . S
C225 C223 1.350 . S
C225 N224 1.373 . S
C225 H239 0.931 . S
C226 O229 1.256 . S
C226 O230 1.255 . S
O227 Co210 2.021 . S
O227 C220 1.259 . S
O228 Co212 2.117 . S
O228 C220 1.258 . S
O229 Co212 2.020 . S
O229 C226 1.256 . S
O230 Co210 2.062 . S
O230 C226 1.255 . S
O231 C211 1.259 . S
O231 Co212 2.021 . S
H232 C223 0.930 . S
H233 C222 0.931 . S
O234 Co210 2.117 . S
O234 C211 1.258 . S
O235 Co210 2.020 . S
O235 C237 1.256 . S
O236 Co212 2.062 . S
O236 C237 1.255 . S
C237 O235 1.256 . S
C237 O236 1.255 . S
H238 C217 0.931 . S
H239 C225 0.931 . S
Co240 N245 2.057 . S
Co240 O257 2.021 . S
Co240 O260 2.062 . S
Co240 O264 2.117 . S
Co240 O265 2.020 . S
C241 O261 1.259 1_455 S
C241 O264 1.258 . S
Co242 N251 2.057 . S
Co242 O258 2.117 . S
Co242 O259 2.020 . S
Co242 O261 2.021 . S
Co242 O266 2.062 . S
C243 N245 1.316 . S
C243 N246 1.347 . S
C243 H248 0.931 . S
C244 N245 1.375 . S
C244 C247 1.350 . S
C244 H249 0.930 . S
N245 Co240 2.057 . S
N245 C243 1.316 . S
N245 C244 1.375 . S
N246 C243 1.347 . S
N246 C247 1.373 . S
C247 C244 1.350 . S
C247 N246 1.373 . S
C247 H268 0.931 . S
H248 C243 0.931 . S
H249 C244 0.930 . S
C250 O257 1.259 1_655 S
C250 O258 1.258 . S
N251 Co242 2.057 . S
N251 C252 1.316 . S
N251 C253 1.375 . S
C252 N251 1.316 . S
C252 N254 1.347 . S
C252 H263 0.931 . S
C253 N251 1.375 . S
C253 C255 1.350 . S
C253 H262 0.930 . S
N254 C252 1.347 . S
N254 C255 1.373 . S
C255 C253 1.350 . S
C255 N254 1.373 . S
C255 H269 0.931 . S
C256 O259 1.276 . S
C256 O260 1.235 1_655 S
O257 Co240 2.021 . S
O257 C250 1.259 1_455 S
O258 Co242 2.117 . S
O258 C250 1.258 . S
O259 Co242 2.020 . S
O259 C256 1.276 . S
O260 Co240 2.062 . S
O260 C256 1.235 1_455 S
O261 C241 1.259 1_655 S
O261 Co242 2.021 . S
H262 C253 0.930 . S
H263 C252 0.931 . S
O264 Co240 2.117 . S
O264 C241 1.258 . S
O265 Co240 2.020 . S
O265 C267 1.256 1_455 S
O266 Co242 2.062 . S
O266 C267 1.255 . S
C267 O265 1.256 1_655 S
C267 O266 1.255 . S
H268 C247 0.931 . S
H269 C255 0.931 . S
Co270 N275 2.057 . S
Co270 O287 2.021 . S
Co270 O290 2.062 . S
Co270 O294 2.117 . S
Co270 O295 2.020 . S
C271 O291 1.259 . S
C271 O294 1.258 . S
Co272 N281 2.057 . S
Co272 O288 2.117 . S
Co272 O289 2.020 . S
Co272 O291 2.021 . S
Co272 O296 2.062 . S
C273 N275 1.316 . S
C273 N276 1.347 . S
C273 H278 0.931 . S
C274 N275 1.375 . S
C274 C277 1.350 . S
C274 H279 0.930 . S
N275 Co270 2.057 . S
N275 C273 1.316 . S
N275 C274 1.375 . S
N276 C273 1.347 . S
N276 C277 1.373 . S
C277 C274 1.350 . S
C277 N276 1.373 . S
C277 H298 0.931 . S
H278 C273 0.931 . S
H279 C274 0.930 . S
C280 O287 1.259 . S
C280 O288 1.258 . S
N281 Co272 2.057 . S
N281 C282 1.316 . S
N281 C283 1.375 . S
C282 N281 1.316 . S
C282 N284 1.347 . S
C282 H293 0.931 . S
C283 N281 1.375 . S
C283 C285 1.350 . S
C283 H292 0.930 . S
N284 C282 1.347 . S
N284 C285 1.373 . S
C285 C283 1.350 . S
C285 N284 1.373 . S
C285 H299 0.931 . S
C286 O289 1.256 . S
C286 O290 1.255 . S
O287 Co270 2.021 . S
O287 C280 1.259 . S
O288 Co272 2.117 . S
O288 C280 1.258 . S
O289 Co272 2.020 . S
O289 C286 1.256 . S
O290 Co270 2.062 . S
O290 C286 1.255 . S
O291 C271 1.259 . S
O291 Co272 2.021 . S
H292 C283 0.930 . S
H293 C282 0.931 . S
O294 Co270 2.117 . S
O294 C271 1.258 . S
O295 Co270 2.020 . S
O295 C297 1.256 . S
O296 Co272 2.062 . S
O296 C297 1.255 . S
C297 O295 1.256 . S
C297 O296 1.255 . S
H298 C277 0.931 . S
H299 C285 0.931 . S
Co300 N305 2.057 . S
Co300 O317 2.021 . S
Co300 O320 2.062 . S
Co300 O324 2.117 . S
Co300 O325 2.020 . S
C301 O321 1.245 1_655 S
C301 O324 1.258 . S
Co302 N311 2.057 . S
Co302 O318 2.117 . S
Co302 O319 2.020 . S
Co302 O321 2.015 . S
Co302 O326 2.062 . S
C303 N305 1.316 . S
C303 N306 1.347 . S
C303 H308 0.931 . S
C304 N305 1.375 . S
C304 C307 1.350 . S
C304 H309 0.930 . S
N305 Co300 2.057 . S
N305 C303 1.316 . S
N305 C304 1.375 . S
N306 C303 1.347 . S
N306 C307 1.373 . S
C307 C304 1.350 . S
C307 N306 1.373 . S
C307 H328 0.931 . S
H308 C303 0.931 . S
H309 C304 0.930 . S
C310 O317 1.259 . S
C310 O318 1.258 1_655 S
N311 Co302 2.057 . S
N311 C312 1.316 . S
N311 C313 1.375 . S
C312 N311 1.316 . S
C312 N314 1.347 . S
C312 H323 0.931 . S
C313 N311 1.375 . S
C313 C315 1.350 . S
C313 H322 0.930 . S
N314 C312 1.347 . S
N314 C315 1.373 . S
C315 C313 1.350 . S
C315 N314 1.373 . S
C315 H329 0.931 . S
C316 O319 1.256 1_655 S
C316 O320 1.255 . S
O317 Co300 2.021 . S
O317 C310 1.259 . S
O318 Co302 2.117 . S
O318 C310 1.258 1_455 S
O319 Co302 2.020 . S
O319 C316 1.256 1_455 S
O320 Co300 2.062 . S
O320 C316 1.255 . S
O321 C301 1.245 1_455 S
O321 Co302 2.015 . S
H322 C313 0.930 . S
H323 C312 0.931 . S
O324 Co300 2.117 . S
O324 C301 1.258 . S
O325 Co300 2.020 . S
O325 C327 1.256 . S
O326 Co302 2.062 . S
O326 C327 1.255 1_455 S
C327 O325 1.256 . S
C327 O326 1.255 1_655 S
H328 C307 0.931 . S
H329 C315 0.931 . S
Co330 N335 2.057 . S
Co330 O347 2.021 . S
Co330 O350 2.062 . S
Co330 O354 2.117 . S
Co330 O355 2.020 . S
C331 O351 1.259 . S
C331 O354 1.258 . S
Co332 N341 2.057 . S
Co332 O348 2.117 . S
Co332 O349 2.020 . S
Co332 O351 2.021 . S
Co332 O356 2.062 . S
C333 N335 1.316 . S
C333 N336 1.347 . S
C333 H338 0.931 . S
C334 N335 1.375 . S
C334 C337 1.350 . S
C334 H339 0.930 . S
N335 Co330 2.057 . S
N335 C333 1.316 . S
N335 C334 1.375 . S
N336 C333 1.347 . S
N336 C337 1.373 . S
C337 C334 1.350 . S
C337 N336 1.373 . S
C337 H358 0.931 . S
H338 C333 0.931 . S
H339 C334 0.930 . S
C340 O347 1.259 . S
C340 O348 1.258 . S
N341 Co332 2.057 . S
N341 C342 1.316 . S
N341 C343 1.375 . S
C342 N341 1.316 . S
C342 N344 1.347 . S
C342 H353 0.931 . S
C343 N341 1.375 . S
C343 C345 1.350 . S
C343 H352 0.930 . S
N344 C342 1.347 . S
N344 C345 1.373 . S
C345 C343 1.350 . S
C345 N344 1.373 . S
C345 H359 0.931 . S
C346 O349 1.256 . S
C346 O350 1.255 . S
O347 Co330 2.021 . S
O347 C340 1.259 . S
O348 Co332 2.117 . S
O348 C340 1.258 . S
O349 Co332 2.020 . S
O349 C346 1.256 . S
O350 Co330 2.062 . S
O350 C346 1.255 . S
O351 C331 1.259 . S
O351 Co332 2.021 . S
H352 C343 0.930 . S
H353 C342 0.931 . S
O354 Co330 2.117 . S
O354 C331 1.258 . S
O355 Co330 2.020 . S
O355 C357 1.256 . S
O356 Co332 2.062 . S
O356 C357 1.255 . S
C357 O355 1.256 . S
C357 O356 1.255 . S
H358 C337 0.931 . S
H359 C345 0.931 . S
Co360 N365 2.057 . S
Co360 O377 2.021 . S
Co360 O380 2.062 . S
Co360 O384 2.117 . S
Co360 O385 2.020 . S
C361 O381 1.259 . S
C361 O384 1.258 . S
Co362 N371 2.057 . S
Co362 O378 2.117 . S
Co362 O379 2.020 . S
Co362 O381 2.021 . S
Co362 O386 2.062 . S
C363 N365 1.316 . S
C363 N366 1.347 . S
C363 H368 0.931 . S
C364 N365 1.375 . S
C364 C367 1.350 . S
C364 H369 0.930 . S
N365 Co360 2.057 . S
N365 C363 1.316 . S
N365 C364 1.375 . S
N366 C363 1.347 . S
N366 C367 1.373 . S
C367 C364 1.350 . S
C367 N366 1.373 . S
C367 H388 0.931 . S
H368 C363 0.931 . S
H369 C364 0.930 . S
C370 O377 1.259 . S
C370 O378 1.258 . S
N371 Co362 2.057 . S
N371 C372 1.316 . S
N371 C373 1.375 . S
C372 N371 1.316 . S
C372 N374 1.347 . S
C372 H383 0.931 . S
C373 N371 1.375 . S
C373 C375 1.350 . S
C373 H382 0.930 . S
N374 C372 1.347 . S
N374 C375 1.373 . S
C375 C373 1.350 . S
C375 N374 1.373 . S
C375 H389 0.931 . S
C376 O379 1.256 . S
C376 O380 1.255 . S
O377 Co360 2.021 . S
O377 C370 1.259 . S
O378 Co362 2.117 . S
O378 C370 1.258 . S
O379 Co362 2.020 . S
O379 C376 1.256 . S
O380 Co360 2.062 . S
O380 C376 1.255 . S
O381 C361 1.259 . S
O381 Co362 2.021 . S
H382 C373 0.930 . S
H383 C372 0.931 . S
O384 Co360 2.117 . S
O384 C361 1.258 . S
O385 Co360 2.020 . S
O385 C387 1.256 . S
O386 Co362 2.062 . S
O386 C387 1.255 . S
C387 O385 1.256 . S
C387 O386 1.255 . S
H388 C367 0.931 . S
H389 C375 0.931 . S
Co390 N395 2.057 . S
Co390 O407 2.021 . S
Co390 O410 2.062 . S
Co390 O414 2.117 . S
Co390 O415 2.020 . S
C391 O411 1.259 . S
C391 O414 1.258 . S
Co392 N401 2.057 . S
Co392 O408 2.117 . S
Co392 O409 2.020 . S
Co392 O411 2.021 . S
Co392 O416 2.062 . S
C393 N395 1.316 . S
C393 N396 1.347 . S
C393 H398 0.931 . S
C394 N395 1.375 . S
C394 C397 1.350 . S
C394 H399 0.930 . S
N395 Co390 2.057 . S
N395 C393 1.316 . S
N395 C394 1.375 . S
N396 C393 1.347 . S
N396 C397 1.373 . S
C397 C394 1.350 . S
C397 N396 1.373 . S
C397 H418 0.931 . S
H398 C393 0.931 . S
H399 C394 0.930 . S
C400 O407 1.259 . S
C400 O408 1.258 . S
N401 Co392 2.057 . S
N401 C402 1.316 . S
N401 C403 1.375 . S
C402 N401 1.316 . S
C402 N404 1.347 . S
C402 H413 0.931 . S
C403 N401 1.375 . S
C403 C405 1.350 . S
C403 H412 0.930 . S
N404 C402 1.347 . S
N404 C405 1.373 . S
C405 C403 1.350 . S
C405 N404 1.373 . S
C405 H419 0.931 . S
C406 O409 1.256 . S
C406 O410 1.255 . S
O407 Co390 2.021 . S
O407 C400 1.259 . S
O408 Co392 2.117 . S
O408 C400 1.258 . S
O409 Co392 2.020 . S
O409 C406 1.256 . S
O410 Co390 2.062 . S
O410 C406 1.255 . S
O411 C391 1.259 . S
O411 Co392 2.021 . S
H412 C403 0.930 . S
H413 C402 0.931 . S
O414 Co390 2.117 . S
O414 C391 1.258 . S
O415 Co390 2.020 . S
O415 C417 1.256 1_554 S
O416 Co392 2.062 . S
O416 C417 1.255 1_554 S
C417 O415 1.256 1_556 S
C417 O416 1.255 1_556 S
H418 C397 0.931 . S
H419 C405 0.931 . S
Co420 N425 2.057 . S
Co420 O437 2.021 . S
Co420 O440 2.062 . S
Co420 O444 2.117 . S
Co420 O445 2.020 . S
C421 O441 1.259 . S
C421 O444 1.258 . S
Co422 N431 2.057 . S
Co422 O438 2.117 . S
Co422 O439 2.020 . S
Co422 O441 2.021 . S
Co422 O446 2.062 . S
C423 N425 1.316 . S
C423 N426 1.347 . S
C423 H428 0.931 . S
C424 N425 1.375 . S
C424 C427 1.350 . S
C424 H429 0.930 . S
N425 Co420 2.057 . S
N425 C423 1.316 . S
N425 C424 1.375 . S
N426 C423 1.347 . S
N426 C427 1.373 . S
C427 C424 1.350 . S
C427 N426 1.373 . S
C427 H448 0.931 . S
H428 C423 0.931 . S
H429 C424 0.930 . S
C430 O437 1.259 . S
C430 O438 1.258 . S
N431 Co422 2.057 . S
N431 C432 1.316 . S
N431 C433 1.375 . S
C432 N431 1.316 . S
C432 N434 1.347 . S
C432 H443 0.931 . S
C433 N431 1.375 . S
C433 C435 1.350 . S
C433 H442 0.930 . S
N434 C432 1.347 . S
N434 C435 1.373 . S
C435 C433 1.350 . S
C435 N434 1.373 . S
C435 H449 0.931 . S
C436 O439 1.256 . S
C436 O440 1.255 . S
O437 Co420 2.021 . S
O437 C430 1.259 . S
O438 Co422 2.117 . S
O438 C430 1.258 . S
O439 Co422 2.020 . S
O439 C436 1.256 . S
O440 Co420 2.062 . S
O440 C436 1.255 . S
O441 C421 1.259 . S
O441 Co422 2.021 . S
H442 C433 0.930 . S
H443 C432 0.931 . S
O444 Co420 2.117 . S
O444 C421 1.258 . S
O445 Co420 2.020 . S
O445 C447 1.256 . S
O446 Co422 2.062 . S
O446 C447 1.255 . S
C447 O445 1.256 . S
C447 O446 1.255 . S
H448 C427 0.931 . S
H449 C435 0.931 . S
Co450 N455 2.057 . S
Co450 O467 2.021 . S
Co450 O470 2.062 . S
Co450 O474 2.117 . S
Co450 O475 2.020 . S
C451 O471 1.259 . S
C451 O474 1.258 . S
Co452 N461 2.057 . S
Co452 O468 2.117 . S
Co452 O469 2.020 . S
Co452 O471 2.021 . S
Co452 O476 2.062 . S
C453 N455 1.316 . S
C453 N456 1.347 . S
C453 H458 0.931 . S
C454 N455 1.375 . S
C454 C457 1.350 . S
C454 H459 0.930 . S
N455 Co450 2.057 . S
N455 C453 1.316 . S
N455 C454 1.375 . S
N456 C453 1.347 . S
N456 C457 1.373 . S
C457 C454 1.350 . S
C457 N456 1.373 . S
C457 H478 0.931 . S
H458 C453 0.931 . S
H459 C454 0.930 . S
C460 O467 1.259 . S
C460 O468 1.258 . S
N461 Co452 2.057 . S
N461 C462 1.316 . S
N461 C463 1.375 . S
C462 N461 1.316 . S
C462 N464 1.347 . S
C462 H473 0.931 . S
C463 N461 1.375 . S
C463 C465 1.350 . S
C463 H472 0.930 . S
N464 C462 1.347 . S
N464 C465 1.373 . S
C465 C463 1.350 . S
C465 N464 1.373 . S
C465 H479 0.931 . S
C466 O469 1.256 . S
C466 O470 1.255 . S
O467 Co450 2.021 . S
O467 C460 1.259 . S
O468 Co452 2.117 . S
O468 C460 1.258 . S
O469 Co452 2.020 . S
O469 C466 1.256 . S
O470 Co450 2.062 . S
O470 C466 1.255 . S
O471 C451 1.259 . S
O471 Co452 2.021 . S
H472 C463 0.930 . S
H473 C462 0.931 . S
O474 Co450 2.117 . S
O474 C451 1.258 . S
O475 Co450 2.020 . S
O475 C477 1.256 . S
O476 Co452 2.062 . S
O476 C477 1.255 . S
C477 O475 1.256 . S
C477 O476 1.255 . S
H478 C457 0.931 . S
H479 C465 0.931 . S
Co480 N485 2.057 . S
Co480 O497 2.021 . S
Co480 O500 2.062 . S
Co480 O504 2.117 . S
Co480 O505 2.020 . S
C481 O501 1.259 . S
C481 O504 1.258 . S
Co482 N491 2.057 . S
Co482 O498 2.117 . S
Co482 O499 2.020 . S
Co482 O501 2.021 . S
Co482 O506 2.062 . S
C483 N485 1.316 . S
C483 N486 1.347 . S
C483 H488 0.931 . S
C484 N485 1.375 . S
C484 C487 1.350 . S
C484 H489 0.930 . S
N485 Co480 2.057 . S
N485 C483 1.316 . S
N485 C484 1.375 . S
N486 C483 1.347 . S
N486 C487 1.373 . S
C487 C484 1.350 . S
C487 N486 1.373 . S
C487 H508 0.931 . S
H488 C483 0.931 . S
H489 C484 0.930 . S
C490 O497 1.259 . S
C490 O498 1.258 . S
N491 Co482 2.057 . S
N491 C492 1.316 . S
N491 C493 1.375 . S
C492 N491 1.316 . S
C492 N494 1.347 . S
C492 H503 0.931 . S
C493 N491 1.375 . S
C493 C495 1.350 . S
C493 H502 0.930 . S
N494 C492 1.347 . S
N494 C495 1.373 . S
C495 C493 1.350 . S
C495 N494 1.373 . S
C495 H509 0.931 1_565 S
C496 O499 1.256 . S
C496 O500 1.255 . S
O497 Co480 2.021 . S
O497 C490 1.259 . S
O498 Co482 2.117 . S
O498 C490 1.258 . S
O499 Co482 2.020 . S
O499 C496 1.256 . S
O500 Co480 2.062 . S
O500 C496 1.255 . S
O501 C481 1.259 . S
O501 Co482 2.021 . S
H502 C493 0.930 . S
H503 C492 0.931 . S
O504 Co480 2.117 . S
O504 C481 1.258 . S
O505 Co480 2.020 . S
O505 C507 1.256 . S
O506 Co482 2.062 . S
O506 C507 1.255 . S
C507 O505 1.256 . S
C507 O506 1.255 . S
H508 C487 0.931 . S
H509 C495 0.931 1_545 S
Co510 N515 2.057 . S
Co510 O527 2.021 . S
Co510 O530 2.062 . S
Co510 O534 2.117 . S
Co510 O535 2.020 . S
C511 O531 1.259 . S
C511 O534 1.258 . S
Co512 N521 2.057 . S
Co512 O528 2.117 . S
Co512 O529 2.020 . S
Co512 O531 2.021 . S
Co512 O536 2.062 . S
C513 N515 1.316 . S
C513 N516 1.347 . S
C513 H518 0.931 . S
C514 N515 1.375 . S
C514 C517 1.350 . S
C514 H519 0.930 . S
N515 Co510 2.057 . S
N515 C513 1.316 . S
N515 C514 1.375 . S
N516 C513 1.347 . S
N516 C517 1.373 . S
C517 C514 1.350 . S
C517 N516 1.373 . S
C517 H538 0.931 . S
H518 C513 0.931 . S
H519 C514 0.930 . S
C520 O527 1.259 . S
C520 O528 1.258 . S
N521 Co512 2.057 . S
N521 C522 1.316 . S
N521 C523 1.375 . S
C522 N521 1.316 . S
C522 N524 1.347 . S
C522 H533 0.931 . S
C523 N521 1.375 . S
C523 C525 1.350 . S
C523 H532 0.930 . S
N524 C522 1.347 . S
N524 C525 1.373 . S
C525 C523 1.350 . S
C525 N524 1.373 . S
C525 H539 0.931 . S
C526 O529 1.256 . S
C526 O530 1.255 . S
O527 Co510 2.021 . S
O527 C520 1.259 . S
O528 Co512 2.117 . S
O528 C520 1.258 . S
O529 Co512 2.020 . S
O529 C526 1.256 . S
O530 Co510 2.062 . S
O530 C526 1.255 . S
O531 C511 1.259 . S
O531 Co512 2.021 . S
H532 C523 0.930 . S
H533 C522 0.931 . S
O534 Co510 2.117 . S
O534 C511 1.258 . S
O535 Co510 2.020 . S
O535 C537 1.256 . S
O536 Co512 2.062 . S
O536 C537 1.255 . S
C537 O535 1.256 . S
C537 O536 1.255 . S
H538 C517 0.931 . S
H539 C525 0.931 . S
H540 C548 0.950 . S
H541 C553 0.950 . S
H542 C550 0.950 . S
H543 C552 0.950 . S
H544 C554 0.950 . S
H545 C556 0.950 . S
H546 C558 0.950 . S
H547 C559 0.950 . S
C548 H540 0.950 . S
C548 C549 1.386 . S
C548 C550 1.391 . S
C549 C548 1.386 . S
C549 C553 1.393 . S
C550 H542 0.950 . S
C550 C548 1.391 . S
C550 C551 1.400 . S
C551 C550 1.400 . S
C551 C552 1.398 . S
C551 C557 1.491 . S
C552 H543 0.950 . S
C552 C551 1.398 . S
C552 C553 1.391 . S
C553 H541 0.950 . S
C553 C549 1.393 . S
C553 C552 1.391 . S
C554 H544 0.950 . S
C554 C555 1.386 . S
C554 C556 1.391 . S
C555 C554 1.386 . S
C555 C559 1.393 . S
C556 H545 0.950 . S
C556 C554 1.391 . S
C556 C557 1.400 . S
C557 C551 1.491 . S
C557 C556 1.400 . S
C557 C558 1.398 . S
C558 H546 0.950 . S
C558 C557 1.398 . S
C558 C559 1.391 . S
C559 H547 0.950 . S
C559 C555 1.393 . S
C559 C558 1.391 . S
H560 C568 0.950 . S
H561 C573 0.950 . S
H562 C570 0.950 . S
H563 C572 0.950 . S
H564 C574 0.950 . S
H565 C576 0.950 . S
H566 C578 0.950 . S
H567 C579 0.950 . S
C568 H560 0.950 . S
C568 C569 1.386 . S
C568 C570 1.391 . S
C569 C568 1.386 . S
C569 C573 1.393 . S
C570 H562 0.950 . S
C570 C568 1.391 . S
C570 C571 1.400 . S
C571 C570 1.400 . S
C571 C572 1.398 . S
C571 C577 1.491 . S
C572 H563 0.950 . S
C572 C571 1.398 . S
C572 C573 1.391 . S
C573 H561 0.950 . S
C573 C569 1.393 . S
C573 C572 1.391 . S
C574 H564 0.950 . S
C574 C575 1.386 . S
C574 C576 1.391 . S
C575 C574 1.386 . S
C575 C579 1.393 . S
C576 H565 0.950 . S
C576 C574 1.391 . S
C576 C577 1.400 . S
C577 C571 1.491 . S
C577 C576 1.400 . S
C577 C578 1.398 . S
C578 H566 0.950 . S
C578 C577 1.398 . S
C578 C579 1.391 . S
C579 H567 0.950 . S
C579 C575 1.393 . S
C579 C578 1.391 . S
H580 C588 0.950 . S
H581 C593 0.950 . S
H582 C590 0.950 . S
H583 C592 0.950 . S
H584 C594 0.950 . S
H585 C596 0.950 . S
H586 C598 0.950 . S
H587 C599 0.950 . S
C588 H580 0.950 . S
C588 C589 1.386 . S
C588 C590 1.391 . S
C589 C588 1.386 . S
C589 C593 1.393 . S
C590 H582 0.950 . S
C590 C588 1.391 . S
C590 C591 1.400 . S
C591 C590 1.400 . S
C591 C592 1.398 . S
C591 C597 1.491 . S
C592 H583 0.950 . S
C592 C591 1.398 . S
C592 C593 1.391 . S
C593 H581 0.950 . S
C593 C589 1.393 . S
C593 C592 1.391 . S
C594 H584 0.950 . S
C594 C595 1.386 . S
C594 C596 1.391 . S
C595 C594 1.386 . S
C595 C599 1.393 . S
C596 H585 0.950 . S
C596 C594 1.391 . S
C596 C597 1.400 . S
C597 C591 1.491 . S
C597 C596 1.400 . S
C597 C598 1.398 . S
C598 H586 0.950 . S
C598 C597 1.398 . S
C598 C599 1.391 . S
C599 H587 0.950 . S
C599 C595 1.393 . S
C599 C598 1.391 . S
H600 C608 0.950 . S
H601 C613 0.950 . S
H602 C610 0.950 . S
H603 C612 0.950 . S
H604 C614 0.950 . S
H605 C616 0.950 . S
H606 C618 0.950 . S
H607 C619 0.950 . S
C608 H600 0.950 . S
C608 C609 1.386 . S
C608 C610 1.391 . S
C609 C608 1.386 . S
C609 C613 1.393 . S
C610 H602 0.950 . S
C610 C608 1.391 . S
C610 C611 1.400 . S
C611 C610 1.400 . S
C611 C612 1.398 . S
C611 C617 1.491 . S
C612 H603 0.950 . S
C612 C611 1.398 . S
C612 C613 1.391 . S
C613 H601 0.950 . S
C613 C609 1.393 . S
C613 C612 1.391 . S
C614 H604 0.950 . S
C614 C615 1.386 . S
C614 C616 1.391 . S
C615 C614 1.386 . S
C615 C619 1.393 . S
C616 H605 0.950 . S
C616 C614 1.391 . S
C616 C617 1.400 . S
C617 C611 1.491 . S
C617 C616 1.400 . S
C617 C618 1.398 . S
C618 H606 0.950 . S
C618 C617 1.398 . S
C618 C619 1.391 . S
C619 H607 0.950 . S
C619 C615 1.393 . S
C619 C618 1.391 . S
H620 C628 0.950 . S
H621 C633 0.950 . S
H622 C630 0.950 . S
H623 C632 0.950 . S
H624 C634 0.950 . S
H625 C636 0.950 . S
H626 C638 0.950 . S
H627 C639 0.950 . S
C628 H620 0.950 . S
C628 C629 1.386 . S
C628 C630 1.391 . S
C629 C628 1.386 . S
C629 C633 1.393 . S
C630 H622 0.950 . S
C630 C628 1.391 . S
C630 C631 1.400 . S
C631 C630 1.400 . S
C631 C632 1.398 . S
C631 C637 1.491 . S
C632 H623 0.950 . S
C632 C631 1.398 . S
C632 C633 1.391 . S
C633 H621 0.950 . S
C633 C629 1.393 . S
C633 C632 1.391 . S
C634 H624 0.950 . S
C634 C635 1.386 . S
C634 C636 1.391 . S
C635 C634 1.386 . S
C635 C639 1.393 . S
C636 H625 0.950 . S
C636 C634 1.391 . S
C636 C637 1.400 . S
C637 C631 1.491 . S
C637 C636 1.400 . S
C637 C638 1.398 . S
C638 H626 0.950 . S
C638 C637 1.398 . S
C638 C639 1.391 . S
C639 H627 0.950 . S
C639 C635 1.393 . S
C639 C638 1.391 . S
H640 C648 0.950 . S
H641 C653 0.950 . S
H642 C650 0.950 . S
H643 C652 0.950 . S
H644 C654 0.950 . S
H645 C656 0.950 . S
H646 C658 0.950 . S
H647 C659 0.950 . S
C648 H640 0.950 . S
C648 C649 1.386 . S
C648 C650 1.391 . S
C649 C648 1.386 . S
C649 C653 1.393 . S
C650 H642 0.950 . S
C650 C648 1.391 . S
C650 C651 1.400 . S
C651 C650 1.400 . S
C651 C652 1.398 . S
C651 C657 1.491 . S
C652 H643 0.950 . S
C652 C651 1.398 . S
C652 C653 1.391 . S
C653 H641 0.950 . S
C653 C649 1.393 . S
C653 C652 1.391 . S
C654 H644 0.950 . S
C654 C655 1.386 . S
C654 C656 1.391 . S
C655 C654 1.386 . S
C655 C659 1.393 . S
C656 H645 0.950 . S
C656 C654 1.391 . S
C656 C657 1.400 . S
C657 C651 1.491 . S
C657 C656 1.400 . S
C657 C658 1.398 . S
C658 H646 0.950 . S
C658 C657 1.398 . S
C658 C659 1.391 . S
C659 H647 0.950 . S
C659 C655 1.393 . S
C659 C658 1.391 . S
H660 C668 0.950 . S
H661 C673 0.950 . S
H662 C670 0.950 . S
H663 C672 0.950 . S
H664 C674 0.945 . S
H665 C676 0.950 . S
H666 C678 0.963 1_455 S
H667 C679 0.950 . S
C668 H660 0.950 . S
C668 C669 1.386 . S
C668 C670 1.391 . S
C669 C668 1.386 . S
C669 C673 1.393 . S
C670 H662 0.950 . S
C670 C668 1.391 . S
C670 C671 1.400 . S
C671 C670 1.400 . S
C671 C672 1.398 . S
C671 C677 1.491 . S
C672 H663 0.950 . S
C672 C671 1.398 . S
C672 C673 1.391 . S
C673 H661 0.950 . S
C673 C669 1.393 . S
C673 C672 1.391 . S
C674 H664 0.945 . S
C674 C675 1.389 . S
C674 C676 1.407 1_655 S
C675 C674 1.389 . S
C675 C679 1.393 . S
C676 H665 0.950 . S
C676 C674 1.407 1_455 S
C676 C677 1.400 . S
C677 C671 1.491 . S
C677 C676 1.400 . S
C677 C678 1.398 1_455 S
C678 H666 0.963 1_655 S
C678 C677 1.398 1_655 S
C678 C679 1.390 . S
C679 H667 0.950 . S
C679 C675 1.393 . S
C679 C678 1.390 . S
H680 C688 0.950 . S
H681 C693 0.950 . S
H682 C690 0.950 . S
H683 C692 0.950 . S
H684 C694 0.950 . S
H685 C696 0.950 . S
H686 C698 0.950 . S
H687 C699 0.950 . S
C688 H680 0.950 . S
C688 C689 1.386 . S
C688 C690 1.391 . S
C689 C688 1.386 . S
C689 C693 1.393 . S
C690 H682 0.950 . S
C690 C688 1.391 . S
C690 C691 1.400 . S
C691 C690 1.400 . S
C691 C692 1.398 . S
C691 C697 1.491 . S
C692 H683 0.950 . S
C692 C691 1.398 . S
C692 C693 1.391 . S
C693 H681 0.950 . S
C693 C689 1.393 . S
C693 C692 1.391 . S
C694 H684 0.950 . S
C694 C695 1.386 . S
C694 C696 1.391 . S
C695 C694 1.386 . S
C695 C699 1.393 . S
C696 H685 0.950 . S
C696 C694 1.391 . S
C696 C697 1.400 . S
C697 C691 1.491 . S
C697 C696 1.400 . S
C697 C698 1.398 . S
C698 H686 0.950 . S
C698 C697 1.398 . S
C698 C699 1.391 . S
C699 H687 0.950 . S
C699 C695 1.393 . S
C699 C698 1.391 . S
H700 C708 0.950 . S
H701 C713 0.950 . S
H702 C710 0.950 . S
H703 C712 0.950 . S
H704 C714 0.950 . S
H705 C716 0.950 . S
H706 C718 0.950 . S
H707 C719 0.950 . S
C708 H700 0.950 . S
C708 C709 1.386 . S
C708 C710 1.391 . S
C709 C708 1.386 . S
C709 C713 1.393 . S
C710 H702 0.950 . S
C710 C708 1.391 . S
C710 C711 1.400 . S
C711 C710 1.400 . S
C711 C712 1.398 . S
C711 C717 1.491 . S
C712 H703 0.950 . S
C712 C711 1.398 . S
C712 C713 1.391 . S
C713 H701 0.950 . S
C713 C709 1.393 . S
C713 C712 1.391 . S
C714 H704 0.950 . S
C714 C715 1.386 . S
C714 C716 1.391 . S
C715 C714 1.386 . S
C715 C719 1.393 . S
C716 H705 0.950 . S
C716 C714 1.391 . S
C716 C717 1.400 . S
C717 C711 1.491 . S
C717 C716 1.400 . S
C717 C718 1.398 . S
C718 H706 0.950 . S
C718 C717 1.398 . S
C718 C719 1.391 . S
C719 H707 0.950 . S
C719 C715 1.393 . S
C719 C718 1.391 . S
H720 C728 0.950 . S
H721 C733 0.950 . S
H722 C730 0.950 . S
H723 C732 0.950 . S
H724 C734 0.950 . S
H725 C736 0.950 . S
H726 C738 0.950 . S
H727 C739 0.950 1_545 S
C728 H720 0.950 . S
C728 C729 1.386 . S
C728 C730 1.391 . S
C729 C728 1.386 . S
C729 C733 1.393 . S
C730 H722 0.950 . S
C730 C728 1.391 . S
C730 C731 1.400 . S
C731 C730 1.400 . S
C731 C732 1.398 . S
C731 C737 1.491 . S
C732 H723 0.950 . S
C732 C731 1.398 . S
C732 C733 1.391 . S
C733 H721 0.950 . S
C733 C729 1.393 . S
C733 C732 1.391 . S
C734 H724 0.950 . S
C734 C735 1.386 . S
C734 C736 1.391 . S
C735 C734 1.386 . S
C735 C739 1.393 . S
C736 H725 0.950 . S
C736 C734 1.391 . S
C736 C737 1.400 . S
C737 C731 1.491 . S
C737 C736 1.400 . S
C737 C738 1.398 . S
C738 H726 0.950 . S
C738 C737 1.398 . S
C738 C739 1.391 . S
C739 H727 0.950 1_565 S
C739 C735 1.393 . S
C739 C738 1.391 . S
H740 C748 0.950 . S
H741 C753 0.950 . S
H742 C750 0.950 . S
H743 C752 0.950 . S
H744 C754 0.950 . S
H745 C756 0.950 . S
H746 C758 0.950 . S
H747 C759 0.950 . S
C748 H740 0.950 . S
C748 C749 1.386 . S
C748 C750 1.391 . S
C749 C748 1.386 . S
C749 C753 1.393 . S
C750 H742 0.950 . S
C750 C748 1.391 . S
C750 C751 1.400 . S
C751 C750 1.400 . S
C751 C752 1.398 . S
C751 C757 1.491 . S
C752 H743 0.950 . S
C752 C751 1.398 . S
C752 C753 1.391 . S
C753 H741 0.950 . S
C753 C749 1.393 . S
C753 C752 1.391 . S
C754 H744 0.950 . S
C754 C755 1.386 . S
C754 C756 1.391 . S
C755 C754 1.386 . S
C755 C759 1.393 . S
C756 H745 0.950 . S
C756 C754 1.391 . S
C756 C757 1.400 . S
C757 C751 1.491 . S
C757 C756 1.400 . S
C757 C758 1.398 . S
C758 H746 0.950 . S
C758 C757 1.398 . S
C758 C759 1.391 . S
C759 H747 0.950 . S
C759 C755 1.393 . S
C759 C758 1.391 . S
H760 C768 0.950 . S
H761 C773 0.950 . S
H762 C770 0.950 . S
H763 C772 0.950 . S
H764 C774 0.950 . S
H765 C776 0.950 . S
H766 C778 0.950 . S
H767 C779 0.950 . S
C768 H760 0.950 . S
C768 C769 1.386 . S
C768 C770 1.391 . S
C769 C768 1.386 . S
C769 C773 1.393 . S
C770 H762 0.950 . S
C770 C768 1.391 . S
C770 C771 1.400 . S
C771 C770 1.400 . S
C771 C772 1.398 . S
C771 C777 1.491 . S
C772 H763 0.950 . S
C772 C771 1.398 . S
C772 C773 1.391 . S
C773 H761 0.950 . S
C773 C769 1.393 . S
C773 C772 1.391 . S
C774 H764 0.950 . S
C774 C775 1.386 . S
C774 C776 1.391 . S
C775 C774 1.386 . S
C775 C779 1.393 . S
C776 H765 0.950 . S
C776 C774 1.391 . S
C776 C777 1.400 . S
C777 C771 1.491 . S
C777 C776 1.400 . S
C777 C778 1.398 . S
C778 H766 0.950 . S
C778 C777 1.398 . S
C778 C779 1.391 . S
C779 H767 0.950 . S
C779 C775 1.393 . S
C779 C778 1.391 . S
H780 C788 0.950 . S
H781 C793 0.950 . S
H782 C790 0.950 1_554 S
H783 C792 0.950 . S
H784 C794 0.950 . S
H785 C796 0.946 1_556 S
H786 C798 0.950 . S
H787 C799 0.950 . S
C788 H780 0.950 . S
C788 C789 1.386 . S
C788 C790 1.391 . S
C789 C788 1.386 . S
C789 C793 1.393 . S
C790 H782 0.950 1_556 S
C790 C788 1.391 . S
C790 C791 1.400 . S
C791 C790 1.400 . S
C791 C792 1.398 . S
C791 C797 1.491 1_556 S
C792 H783 0.950 . S
C792 C791 1.398 . S
C792 C793 1.391 . S
C793 H781 0.950 . S
C793 C789 1.393 . S
C793 C792 1.391 . S
C794 H784 0.950 . S
C794 C795 1.386 . S
C794 C796 1.395 . S
C795 C794 1.386 . S
C795 C799 1.393 . S
C796 H785 0.946 1_554 S
C796 C794 1.395 . S
C796 C797 1.401 . S
C797 C791 1.491 1_554 S
C797 C796 1.401 . S
C797 C798 1.398 . S
C798 H786 0.950 . S
C798 C797 1.398 . S
C798 C799 1.391 . S
C799 H787 0.950 . S
C799 C795 1.393 . S
C799 C798 1.391 . S
H800 C808 0.950 . S
H801 C813 0.950 . S
H802 C810 0.950 . S
H803 C812 0.950 . S
H804 C814 0.950 . S
H805 C816 0.950 . S
H806 C818 0.950 . S
H807 C819 0.950 . S
C808 H800 0.950 . S
C808 C809 1.386 . S
C808 C810 1.391 . S
C809 C808 1.386 . S
C809 C813 1.393 . S
C810 H802 0.950 . S
C810 C808 1.391 . S
C810 C811 1.400 . S
C811 C810 1.400 . S
C811 C812 1.398 . S
C811 C817 1.491 1_556 S
C812 H803 0.950 . S
C812 C811 1.398 . S
C812 C813 1.391 . S
C813 H801 0.950 . S
C813 C809 1.393 . S
C813 C812 1.391 . S
C814 H804 0.950 . S
C814 C815 1.386 . S
C814 C816 1.391 . S
C815 C814 1.386 . S
C815 C819 1.393 . S
C816 H805 0.950 . S
C816 C814 1.391 . S
C816 C817 1.400 . S
C817 C811 1.491 1_554 S
C817 C816 1.400 . S
C817 C818 1.398 . S
C818 H806 0.950 . S
C818 C817 1.398 . S
C818 C819 1.391 . S
C819 H807 0.950 . S
C819 C815 1.393 . S
C819 C818 1.391 . S
H820 C828 0.950 . S
H821 C833 0.950 . S
H822 C830 0.950 1_554 S
H823 C832 0.950 . S
H824 C834 0.950 . S
H825 C836 0.950 . S
H826 C838 0.950 . S
H827 C839 0.950 . S
C828 H820 0.950 . S
C828 C829 1.386 . S
C828 C830 1.391 . S
C829 C828 1.386 . S
C829 C833 1.393 . S
C830 H822 0.950 1_556 S
C830 C828 1.391 . S
C830 C831 1.400 . S
C831 C830 1.400 . S
C831 C832 1.398 . S
C831 C837 1.491 1_556 S
C832 H823 0.950 . S
C832 C831 1.398 . S
C832 C833 1.391 . S
C833 H821 0.950 . S
C833 C829 1.393 . S
C833 C832 1.391 . S
C834 H824 0.950 . S
C834 C835 1.386 . S
C834 C836 1.391 1_564 S
C835 C834 1.386 . S
C835 C839 1.393 1_565 S
C836 H825 0.950 . S
C836 C834 1.391 1_546 S
C836 C837 1.400 1_556 S
C837 C831 1.491 1_554 S
C837 C836 1.400 1_554 S
C837 C838 1.398 . S
C838 H826 0.950 . S
C838 C837 1.398 . S
C838 C839 1.391 . S
C839 H827 0.950 . S
C839 C835 1.393 1_545 S
C839 C838 1.391 . S
H840 C848 0.950 . S
H841 C853 0.950 . S
H842 C850 0.950 . S
H843 C852 0.950 . S
H844 C854 0.950 1_565 S
H845 C856 0.950 1_556 S
H846 C858 0.950 . S
H847 C859 0.950 . S
C848 H840 0.950 . S
C848 C849 1.386 . S
C848 C850 1.391 1_556 S
C849 C848 1.386 . S
C849 C853 1.393 . S
C850 H842 0.950 . S
C850 C848 1.391 1_554 S
C850 C851 1.400 1_554 S
C851 C850 1.400 1_556 S
C851 C852 1.398 . S
C851 C857 1.491 1_556 S
C852 H843 0.950 . S
C852 C851 1.398 . S
C852 C853 1.391 . S
C853 H841 0.950 . S
C853 C849 1.393 . S
C853 C852 1.391 . S
C854 H844 0.950 1_545 S
C854 C855 1.386 . S
C854 C856 1.391 . S
C855 C854 1.386 . S
C855 C859 1.393 . S
C856 H845 0.950 1_554 S
C856 C854 1.391 . S
C856 C857 1.400 . S
C857 C851 1.491 1_554 S
C857 C856 1.400 . S
C857 C858 1.398 . S
C858 H846 0.950 . S
C858 C857 1.398 . S
C858 C859 1.391 . S
C859 H847 0.950 . S
C859 C855 1.393 . S
C859 C858 1.391 . S
H860 C868 0.950 . S
H861 C873 0.950 . S
H862 C870 0.950 . S
H863 C872 0.950 . S
H864 C874 0.950 . S
H865 C876 0.945 1_554 S
H866 C878 0.950 . S
H867 C879 0.950 . S
C868 H860 0.950 . S
C868 C869 1.386 . S
C868 C870 1.391 . S
C869 C868 1.386 . S
C869 C873 1.393 . S
C870 H862 0.950 . S
C870 C868 1.391 . S
C870 C871 1.400 . S
C871 C870 1.400 . S
C871 C872 1.398 . S
C871 C877 1.491 1_554 S
C872 H863 0.950 . S
C872 C871 1.398 . S
C872 C873 1.391 . S
C873 H861 0.950 . S
C873 C869 1.393 . S
C873 C872 1.391 . S
C874 H864 0.950 . S
C874 C875 1.386 . S
C874 C876 1.391 . S
C875 C874 1.386 . S
C875 C879 1.393 . S
C876 H865 0.945 1_556 S
C876 C874 1.391 . S
C876 C877 1.400 . S
C877 C871 1.491 1_556 S
C877 C876 1.400 . S
C877 C878 1.398 . S
C878 H866 0.950 . S
C878 C877 1.398 . S
C878 C879 1.391 . S
C879 H867 0.950 . S
C879 C875 1.393 . S
C879 C878 1.391 . S
H880 C888 0.950 . S
H881 C893 0.950 1_556 S
H882 C890 0.950 . S
H883 C892 0.950 . S
H884 C894 0.950 . S
H885 C896 0.950 . S
H886 C898 0.950 . S
H887 C899 0.950 1_554 S
C888 H880 0.950 . S
C888 C889 1.386 . S
C888 C890 1.391 . S
C889 C888 1.386 . S
C889 C893 1.393 . S
C890 H882 0.950 . S
C890 C888 1.391 . S
C890 C891 1.400 . S
C891 C890 1.400 . S
C891 C892 1.398 1_554 S
C891 C897 1.491 1_554 S
C892 H883 0.950 . S
C892 C891 1.398 1_556 S
C892 C893 1.391 1_556 S
C893 H881 0.950 1_554 S
C893 C889 1.393 . S
C893 C892 1.391 1_554 S
C894 H884 0.950 . S
C894 C895 1.386 . S
C894 C896 1.391 . S
C895 C894 1.386 . S
C895 C899 1.393 . S
C896 H885 0.950 . S
C896 C894 1.391 . S
C896 C897 1.400 . S
C897 C891 1.491 1_556 S
C897 C896 1.400 . S
C897 C898 1.398 1_556 S
C898 H886 0.950 . S
C898 C897 1.398 1_554 S
C898 C899 1.391 1_554 S
C899 H887 0.950 1_556 S
C899 C895 1.393 . S
C899 C898 1.391 1_556 S
H900 C908 0.950 . S
H901 C913 0.950 . S
H902 C910 0.950 . S
H903 C912 0.950 . S
H904 C914 0.950 . S
H905 C916 0.950 . S
H906 C918 0.950 . S
H907 C919 0.950 . S
C908 H900 0.950 . S
C908 C909 1.386 . S
C908 C910 1.391 . S
C909 C908 1.386 . S
C909 C913 1.393 . S
C910 H902 0.950 . S
C910 C908 1.391 . S
C910 C911 1.400 . S
C911 C910 1.400 . S
C911 C912 1.398 . S
C911 C917 1.491 . S
C912 H903 0.950 . S
C912 C911 1.398 . S
C912 C913 1.391 . S
C913 H901 0.950 . S
C913 C909 1.393 . S
C913 C912 1.391 . S
C914 H904 0.950 . S
C914 C915 1.386 . S
C914 C916 1.391 . S
C915 C914 1.386 . S
C915 C919 1.393 . S
C916 H905 0.950 . S
C916 C914 1.391 . S
C916 C917 1.400 . S
C917 C911 1.491 . S
C917 C916 1.400 . S
C917 C918 1.398 . S
C918 H906 0.950 . S
C918 C917 1.398 . S
C918 C919 1.391 . S
C919 H907 0.950 . S
C919 C915 1.393 . S
C919 C918 1.391 . S
H920 C928 0.950 . S
H921 C933 0.950 . S
H922 C930 0.950 . S
H923 C932 0.950 . S
H924 C934 0.950 . S
H925 C936 0.950 . S
H926 C938 0.950 . S
H927 C939 0.950 . S
C928 H920 0.950 . S
C928 C929 1.386 . S
C928 C930 1.391 . S
C929 C928 1.386 . S
C929 C933 1.393 . S
C930 H922 0.950 . S
C930 C928 1.391 . S
C930 C931 1.400 . S
C931 C930 1.400 . S
C931 C932 1.398 . S
C931 C937 1.491 . S
C932 H923 0.950 . S
C932 C931 1.398 . S
C932 C933 1.391 . S
C933 H921 0.950 . S
C933 C929 1.393 . S
C933 C932 1.391 . S
C934 H924 0.950 . S
C934 C935 1.386 . S
C934 C936 1.391 . S
C935 C934 1.386 . S
C935 C939 1.393 . S
C936 H925 0.950 . S
C936 C934 1.391 . S
C936 C937 1.400 . S
C937 C931 1.491 . S
C937 C936 1.400 . S
C937 C938 1.398 . S
C938 H926 0.950 . S
C938 C937 1.398 . S
C938 C939 1.391 . S
C939 H927 0.950 . S
C939 C935 1.393 . S
C939 C938 1.391 . S
H940 C948 0.950 . S
H941 C953 0.950 . S
H942 C950 0.950 . S
H943 C952 0.950 . S
H944 C954 0.950 . S
H945 C956 0.950 . S
H946 C958 0.950 . S
H947 C959 0.950 . S
C948 H940 0.950 . S
C948 C949 1.386 . S
C948 C950 1.391 . S
C949 C948 1.386 . S
C949 C953 1.393 . S
C950 H942 0.950 . S
C950 C948 1.391 . S
C950 C951 1.400 . S
C951 C950 1.400 . S
C951 C952 1.398 . S
C951 C957 1.491 . S
C952 H943 0.950 . S
C952 C951 1.398 . S
C952 C953 1.391 . S
C953 H941 0.950 . S
C953 C949 1.393 . S
C953 C952 1.391 . S
C954 H944 0.950 . S
C954 C955 1.386 . S
C954 C956 1.391 . S
C955 C954 1.386 . S
C955 C959 1.393 . S
C956 H945 0.950 . S
C956 C954 1.391 . S
C956 C957 1.400 . S
C957 C951 1.491 . S
C957 C956 1.400 . S
C957 C958 1.398 . S
C958 H946 0.950 . S
C958 C957 1.398 . S
C958 C959 1.391 . S
C959 H947 0.950 . S
C959 C955 1.393 . S
C959 C958 1.391 . S
H960 C968 0.950 . S
H961 C973 0.950 . S
H962 C970 0.950 . S
H963 C972 0.950 . S
H964 C974 0.950 . S
H965 C976 0.950 . S
H966 C978 0.950 . S
H967 C979 0.950 . S
C968 H960 0.950 . S
C968 C969 1.386 . S
C968 C970 1.391 . S
C969 C968 1.386 . S
C969 C973 1.393 . S
C970 H962 0.950 . S
C970 C968 1.391 . S
C970 C971 1.400 . S
C971 C970 1.400 . S
C971 C972 1.398 . S
C971 C977 1.491 . S
C972 H963 0.950 . S
C972 C971 1.398 . S
C972 C973 1.391 . S
C973 H961 0.950 . S
C973 C969 1.393 . S
C973 C972 1.391 . S
C974 H964 0.950 . S
C974 C975 1.386 . S
C974 C976 1.391 . S
C975 C974 1.386 . S
C975 C979 1.393 . S
C976 H965 0.950 . S
C976 C974 1.391 . S
C976 C977 1.400 . S
C977 C971 1.491 . S
C977 C976 1.400 . S
C977 C978 1.398 . S
C978 H966 0.950 . S
C978 C977 1.398 . S
C978 C979 1.391 . S
C979 H967 0.950 . S
C979 C975 1.393 . S
C979 C978 1.391 . S
H980 C988 0.950 . S
H981 C993 0.950 . S
H982 C990 0.950 . S
H983 C992 0.950 . S
H984 C994 0.950 1_455 S
H985 C996 0.950 . S
H986 C998 0.950 . S
H987 C999 0.950 . S
C988 H980 0.950 . S
C988 C989 1.386 . S
C988 C990 1.391 . S
C989 C988 1.386 . S
C989 C993 1.393 . S
C990 H982 0.950 . S
C990 C988 1.391 . S
C990 C991 1.400 . S
C991 C990 1.400 . S
C991 C992 1.398 . S
C991 C997 1.491 . S
C992 H983 0.950 . S
C992 C991 1.398 . S
C992 C993 1.391 . S
C993 H981 0.950 . S
C993 C989 1.393 . S
C993 C992 1.391 . S
C994 H984 0.950 1_655 S
C994 C995 1.386 1_655 S
C994 C996 1.391 . S
C995 C994 1.386 1_455 S
C995 C999 1.393 1_455 S
C996 H985 0.950 . S
C996 C994 1.391 . S
C996 C997 1.400 . S
C997 C991 1.491 . S
C997 C996 1.400 . S
C997 C998 1.398 . S
C998 H986 0.950 . S
C998 C997 1.398 . S
C998 C999 1.391 . S
C999 H987 0.950 . S
C999 C995 1.393 1_655 S
C999 C998 1.391 . S
H1000 C1008 0.950 . S
H1001 C1013 0.951 . S
H1002 C1010 0.950 . S
H1003 C1012 0.950 . S
H1004 C1014 0.950 . S
H1005 C1016 0.950 . S
H1006 C1018 0.950 . S
H1007 C1019 0.950 . S
C1008 H1000 0.950 . S
C1008 C1009 1.386 . S
C1008 C1010 1.391 1_455 S
C1009 C1008 1.386 . S
C1009 C1013 1.394 . S
C1010 H1002 0.950 . S
C1010 C1008 1.391 1_655 S
C1010 C1011 1.400 . S
C1011 C1010 1.400 . S
C1011 C1012 1.398 . S
C1011 C1017 1.491 . S
C1012 H1003 0.950 . S
C1012 C1011 1.398 . S
C1012 C1013 1.388 1_655 S
C1013 H1001 0.951 . S
C1013 C1009 1.394 . S
C1013 C1012 1.388 1_455 S
C1014 H1004 0.950 . S
C1014 C1015 1.386 . S
C1014 C1016 1.391 . S
C1015 C1014 1.386 . S
C1015 C1019 1.393 . S
C1016 H1005 0.950 . S
C1016 C1014 1.391 . S
C1016 C1017 1.400 . S
C1017 C1011 1.491 . S
C1017 C1016 1.400 . S
C1017 C1018 1.398 . S
C1018 H1006 0.950 . S
C1018 C1017 1.398 . S
C1018 C1019 1.391 . S
C1019 H1007 0.950 . S
C1019 C1015 1.393 . S
C1019 C1018 1.391 . S
H1020 C1028 0.950 . S
H1021 C1033 0.950 . S
H1022 C1030 0.950 . S
H1023 C1032 0.950 . S
H1024 C1034 0.950 . S
H1025 C1036 0.950 . S
H1026 C1038 0.950 . S
H1027 C1039 0.950 . S
C1028 H1020 0.950 . S
C1028 C1029 1.386 . S
C1028 C1030 1.391 . S
C1029 C1028 1.386 . S
C1029 C1033 1.393 . S
C1030 H1022 0.950 . S
C1030 C1028 1.391 . S
C1030 C1031 1.400 . S
C1031 C1030 1.400 . S
C1031 C1032 1.398 . S
C1031 C1037 1.491 . S
C1032 H1023 0.950 . S
C1032 C1031 1.398 . S
C1032 C1033 1.391 . S
C1033 H1021 0.950 . S
C1033 C1029 1.393 . S
C1033 C1032 1.391 . S
C1034 H1024 0.950 . S
C1034 C1035 1.386 . S
C1034 C1036 1.391 . S
C1035 C1034 1.386 . S
C1035 C1039 1.393 . S
C1036 H1025 0.950 . S
C1036 C1034 1.391 . S
C1036 C1037 1.400 . S
C1037 C1031 1.491 . S
C1037 C1036 1.400 . S
C1037 C1038 1.398 . S
C1038 H1026 0.950 . S
C1038 C1037 1.398 . S
C1038 C1039 1.391 . S
C1039 H1027 0.950 . S
C1039 C1035 1.393 . S
C1039 C1038 1.391 . S
H1040 C1048 0.950 . S
H1041 C1053 0.950 . S
H1042 C1050 0.950 . S
H1043 C1052 0.950 . S
H1044 C1054 0.950 . S
H1045 C1056 0.950 . S
H1046 C1058 0.950 . S
H1047 C1059 0.950 . S
C1048 H1040 0.950 . S
C1048 C1049 1.386 . S
C1048 C1050 1.391 . S
C1049 C1048 1.386 . S
C1049 C1053 1.393 . S
C1050 H1042 0.950 . S
C1050 C1048 1.391 . S
C1050 C1051 1.400 . S
C1051 C1050 1.400 . S
C1051 C1052 1.398 . S
C1051 C1057 1.491 . S
C1052 H1043 0.950 . S
C1052 C1051 1.398 . S
C1052 C1053 1.391 . S
C1053 H1041 0.950 . S
C1053 C1049 1.393 . S
C1053 C1052 1.391 . S
C1054 H1044 0.950 . S
C1054 C1055 1.386 . S
C1054 C1056 1.391 . S
C1055 C1054 1.386 . S
C1055 C1059 1.393 . S
C1056 H1045 0.950 . S
C1056 C1054 1.391 . S
C1056 C1057 1.400 . S
C1057 C1051 1.491 . S
C1057 C1056 1.400 . S
C1057 C1058 1.398 . S
C1058 H1046 0.950 . S
C1058 C1057 1.398 . S
C1058 C1059 1.391 . S
C1059 H1047 0.950 . S
C1059 C1055 1.393 . S
C1059 C1058 1.391 . S
H1060 C1068 0.950 . S
H1061 C1073 0.950 . S
H1062 C1070 0.950 . S
H1063 C1072 0.950 . S
H1064 C1074 0.950 . S
H1065 C1076 0.950 . S
H1066 C1078 0.950 . S
H1067 C1079 0.950 . S
C1068 H1060 0.950 . S
C1068 C1069 1.386 . S
C1068 C1070 1.391 . S
C1069 C1068 1.386 . S
C1069 C1073 1.393 . S
C1070 H1062 0.950 . S
C1070 C1068 1.391 . S
C1070 C1071 1.400 . S
C1071 C1070 1.400 . S
C1071 C1072 1.398 . S
C1071 C1077 1.491 . S
C1072 H1063 0.950 . S
C1072 C1071 1.398 . S
C1072 C1073 1.391 . S
C1073 H1061 0.950 . S
C1073 C1069 1.393 . S
C1073 C1072 1.391 . S
C1074 H1064 0.950 . S
C1074 C1075 1.386 . S
C1074 C1076 1.391 . S
C1075 C1074 1.386 . S
C1075 C1079 1.393 . S
C1076 H1065 0.950 . S
C1076 C1074 1.391 . S
C1076 C1077 1.400 . S
C1077 C1071 1.491 . S
C1077 C1076 1.400 . S
C1077 C1078 1.398 . S
C1078 H1066 0.950 . S
C1078 C1077 1.398 . S
C1078 C1079 1.391 . S
C1079 H1067 0.950 . S
C1079 C1075 1.393 . S
C1079 C1078 1.391 . S
H1080 C1088 0.950 1_455 S
H1081 C1093 0.950 . S
H1082 C1090 0.945 1_455 S
H1083 C1092 0.950 . S
H1084 C1094 0.950 . S
H1085 C1096 0.950 . S
H1086 C1098 0.950 . S
H1087 C1099 0.950 . S
C1088 H1080 0.950 1_655 S
C1088 C1089 1.386 . S
C1088 C1090 1.394 . S
C1089 C1088 1.386 . S
C1089 C1093 1.393 . S
C1090 H1082 0.945 1_655 S
C1090 C1088 1.394 . S
C1090 C1091 1.402 . S
C1091 C1090 1.402 . S
C1091 C1092 1.398 . S
C1091 C1097 1.491 . S
C1092 H1083 0.950 . S
C1092 C1091 1.398 . S
C1092 C1093 1.391 . S
C1093 H1081 0.950 . S
C1093 C1089 1.393 . S
C1093 C1092 1.391 . S
C1094 H1084 0.950 . S
C1094 C1095 1.386 . S
C1094 C1096 1.391 . S
C1095 C1094 1.386 . S
C1095 C1099 1.393 1_655 S
C1096 H1085 0.950 . S
C1096 C1094 1.391 . S
C1096 C1097 1.400 . S
C1097 C1091 1.491 . S
C1097 C1096 1.400 . S
C1097 C1098 1.398 1_655 S
C1098 H1086 0.950 . S
C1098 C1097 1.398 1_455 S
C1098 C1099 1.391 . S
C1099 H1087 0.950 . S
C1099 C1095 1.393 1_455 S
C1099 C1098 1.391 . S
H1100 C1108 0.950 . S
H1101 C1113 0.950 . S
H1102 C1110 0.950 . S
H1103 C1112 0.950 . S
H1104 C1114 0.950 . S
H1105 C1116 0.950 . S
H1106 C1118 0.950 . S
H1107 C1119 0.950 . S
C1108 H1100 0.950 . S
C1108 C1109 1.386 . S
C1108 C1110 1.391 . S
C1109 C1108 1.386 . S
C1109 C1113 1.393 . S
C1110 H1102 0.950 . S
C1110 C1108 1.391 . S
C1110 C1111 1.400 . S
C1111 C1110 1.400 . S
C1111 C1112 1.398 . S
C1111 C1117 1.491 . S
C1112 H1103 0.950 . S
C1112 C1111 1.398 . S
C1112 C1113 1.391 . S
C1113 H1101 0.950 . S
C1113 C1109 1.393 . S
C1113 C1112 1.391 . S
C1114 H1104 0.950 . S
C1114 C1115 1.386 . S
C1114 C1116 1.391 . S
C1115 C1114 1.386 . S
C1115 C1119 1.393 . S
C1116 H1105 0.950 . S
C1116 C1114 1.391 . S
C1116 C1117 1.400 . S
C1117 C1111 1.491 . S
C1117 C1116 1.400 . S
C1117 C1118 1.398 . S
C1118 H1106 0.950 . S
C1118 C1117 1.398 . S
C1118 C1119 1.391 . S
C1119 H1107 0.950 . S
C1119 C1115 1.393 . S
C1119 C1118 1.391 . S
H1120 C1128 0.950 . S
H1121 C1133 0.950 . S
H1122 C1130 0.950 . S
H1123 C1132 0.950 . S
H1124 C1134 0.950 . S
H1125 C1136 0.950 . S
H1126 C1138 0.950 . S
H1127 C1139 0.950 . S
C1128 H1120 0.950 . S
C1128 C1129 1.386 . S
C1128 C1130 1.391 . S
C1129 C1128 1.386 . S
C1129 C1133 1.393 . S
C1130 H1122 0.950 . S
C1130 C1128 1.391 . S
C1130 C1131 1.400 . S
C1131 C1130 1.400 . S
C1131 C1132 1.398 . S
C1131 C1137 1.491 . S
C1132 H1123 0.950 . S
C1132 C1131 1.398 . S
C1132 C1133 1.391 . S
C1133 H1121 0.950 . S
C1133 C1129 1.393 . S
C1133 C1132 1.391 . S
C1134 H1124 0.950 . S
C1134 C1135 1.386 . S
C1134 C1136 1.391 . S
C1135 C1134 1.386 . S
C1135 C1139 1.393 . S
C1136 H1125 0.950 . S
C1136 C1134 1.391 . S
C1136 C1137 1.400 . S
C1137 C1131 1.491 . S
C1137 C1136 1.400 . S
C1137 C1138 1.398 . S
C1138 H1126 0.950 . S
C1138 C1137 1.398 . S
C1138 C1139 1.391 . S
C1139 H1127 0.950 . S
C1139 C1135 1.393 . S
C1139 C1138 1.391 . S
H1140 C1148 0.950 . S
H1141 C1153 0.950 . S
H1142 C1150 0.950 . S
H1143 C1152 0.950 . S
H1144 C1154 0.950 . S
H1145 C1156 0.950 . S
H1146 C1158 0.950 . S
H1147 C1159 0.950 . S
C1148 H1140 0.950 . S
C1148 C1149 1.386 . S
C1148 C1150 1.391 . S
C1149 C1148 1.386 . S
C1149 C1153 1.393 . S
C1150 H1142 0.950 . S
C1150 C1148 1.391 . S
C1150 C1151 1.400 . S
C1151 C1150 1.400 . S
C1151 C1152 1.398 . S
C1151 C1157 1.491 . S
C1152 H1143 0.950 . S
C1152 C1151 1.398 . S
C1152 C1153 1.391 . S
C1153 H1141 0.950 . S
C1153 C1149 1.393 . S
C1153 C1152 1.391 . S
C1154 H1144 0.950 . S
C1154 C1155 1.386 . S
C1154 C1156 1.391 . S
C1155 C1154 1.386 . S
C1155 C1159 1.393 . S
C1156 H1145 0.950 . S
C1156 C1154 1.391 . S
C1156 C1157 1.400 . S
C1157 C1151 1.491 . S
C1157 C1156 1.400 . S
C1157 C1158 1.398 . S
C1158 H1146 0.950 . S
C1158 C1157 1.398 . S
C1158 C1159 1.391 . S
C1159 H1147 0.950 . S
C1159 C1155 1.393 . S
C1159 C1158 1.391 . S
H1160 C1168 0.958 . S
H1161 C1173 0.950 . S
H1162 C1170 0.950 1_556 S
H1163 C1172 0.950 . S
H1164 C1174 0.950 . S
H1165 C1176 0.950 . S
H1166 C1178 0.950 1_556 S
H1167 C1179 0.950 1_556 S
C1168 H1160 0.958 . S
C1168 C1169 1.386 . S
C1168 C1170 1.391 . S
C1169 C1168 1.386 . S
C1169 C1173 1.393 . S
C1170 H1162 0.950 1_554 S
C1170 C1168 1.391 . S
C1170 C1171 1.400 . S
C1171 C1170 1.400 . S
C1171 C1172 1.398 . S
C1171 C1177 1.491 . S
C1172 H1163 0.950 . S
C1172 C1171 1.398 . S
C1172 C1173 1.391 . S
C1173 H1161 0.950 . S
C1173 C1169 1.393 . S
C1173 C1172 1.391 . S
C1174 H1164 0.950 . S
C1174 C1175 1.386 . S
C1174 C1176 1.391 . S
C1175 C1174 1.386 . S
C1175 C1179 1.393 . S
C1176 H1165 0.950 . S
C1176 C1174 1.391 . S
C1176 C1177 1.400 . S
C1177 C1171 1.491 . S
C1177 C1176 1.400 . S
C1177 C1178 1.398 . S
C1178 H1166 0.950 1_554 S
C1178 C1177 1.398 . S
C1178 C1179 1.391 . S
C1179 H1167 0.950 1_554 S
C1179 C1175 1.393 . S
C1179 C1178 1.391 . S
H1180 C1188 0.950 . S
H1181 C1193 0.950 . S
H1182 C1190 0.950 . S
H1183 C1192 0.950 . S
H1184 C1194 0.950 . S
H1185 C1196 0.950 . S
H1186 C1198 0.950 . S
H1187 C1199 0.950 . S
C1188 H1180 0.950 . S
C1188 C1189 1.386 . S
C1188 C1190 1.391 . S
C1189 C1188 1.386 . S
C1189 C1193 1.393 . S
C1190 H1182 0.950 . S
C1190 C1188 1.391 . S
C1190 C1191 1.400 . S
C1191 C1190 1.400 . S
C1191 C1192 1.398 . S
C1191 C1197 1.491 . S
C1192 H1183 0.950 . S
C1192 C1191 1.398 . S
C1192 C1193 1.391 . S
C1193 H1181 0.950 . S
C1193 C1189 1.393 . S
C1193 C1192 1.391 . S
C1194 H1184 0.950 . S
C1194 C1195 1.386 . S
C1194 C1196 1.391 . S
C1195 C1194 1.386 . S
C1195 C1199 1.393 . S
C1196 H1185 0.950 . S
C1196 C1194 1.391 . S
C1196 C1197 1.400 . S
C1197 C1191 1.491 . S
C1197 C1196 1.400 . S
C1197 C1198 1.398 . S
C1198 H1186 0.950 . S
C1198 C1197 1.398 . S
C1198 C1199 1.391 . S
C1199 H1187 0.950 . S
C1199 C1195 1.393 . S
C1199 C1198 1.391 . S
H1200 C1208 0.950 . S
H1201 C1213 0.950 . S
H1202 C1210 0.950 . S
H1203 C1212 0.950 . S
H1204 C1214 0.950 . S
H1205 C1216 0.950 . S
H1206 C1218 0.950 . S
H1207 C1219 0.950 . S
C1208 H1200 0.950 . S
C1208 C1209 1.386 . S
C1208 C1210 1.391 . S
C1209 C1208 1.386 . S
C1209 C1213 1.393 . S
C1210 H1202 0.950 . S
C1210 C1208 1.391 . S
C1210 C1211 1.400 . S
C1211 C1210 1.400 . S
C1211 C1212 1.398 . S
C1211 C1217 1.491 . S
C1212 H1203 0.950 . S
C1212 C1211 1.398 . S
C1212 C1213 1.391 . S
C1213 H1201 0.950 . S
C1213 C1209 1.393 . S
C1213 C1212 1.391 . S
C1214 H1204 0.950 . S
C1214 C1215 1.386 . S
C1214 C1216 1.391 . S
C1215 C1214 1.386 . S
C1215 C1219 1.393 . S
C1216 H1205 0.950 . S
C1216 C1214 1.391 . S
C1216 C1217 1.400 . S
C1217 C1211 1.491 . S
C1217 C1216 1.400 . S
C1217 C1218 1.398 . S
C1218 H1206 0.950 . S
C1218 C1217 1.398 . S
C1218 C1219 1.391 . S
C1219 H1207 0.950 . S
C1219 C1215 1.393 . S
C1219 C1218 1.391 . S
H1220 C1228 0.950 . S
H1221 C1233 0.950 . S
H1222 C1230 0.950 . S
H1223 C1232 0.950 . S
H1224 C1234 0.950 . S
H1225 C1236 0.950 . S
H1226 C1238 0.950 . S
H1227 C1239 0.950 . S
C1228 H1220 0.950 . S
C1228 C1229 1.386 . S
C1228 C1230 1.391 . S
C1229 C1228 1.386 . S
C1229 C1233 1.393 . S
C1230 H1222 0.950 . S
C1230 C1228 1.391 . S
C1230 C1231 1.400 . S
C1231 C1230 1.400 . S
C1231 C1232 1.398 . S
C1231 C1237 1.491 . S
C1232 H1223 0.950 . S
C1232 C1231 1.398 . S
C1232 C1233 1.391 . S
C1233 H1221 0.950 . S
C1233 C1229 1.393 . S
C1233 C1232 1.391 . S
C1234 H1224 0.950 . S
C1234 C1235 1.386 . S
C1234 C1236 1.391 . S
C1235 C1234 1.386 . S
C1235 C1239 1.393 . S
C1236 H1225 0.950 . S
C1236 C1234 1.391 . S
C1236 C1237 1.400 . S
C1237 C1231 1.491 . S
C1237 C1236 1.400 . S
C1237 C1238 1.398 . S
C1238 H1226 0.950 . S
C1238 C1237 1.398 . S
C1238 C1239 1.391 . S
C1239 H1227 0.950 . S
C1239 C1235 1.393 . S
C1239 C1238 1.391 . S
H1240 C1248 0.950 . S
H1241 C1253 0.950 . S
H1242 C1250 0.950 . S
H1243 C1252 0.950 . S
H1244 C1254 0.950 . S
H1245 C1256 0.950 . S
H1246 C1258 0.950 . S
H1247 C1259 0.950 . S
C1248 H1240 0.950 . S
C1248 C1249 1.386 . S
C1248 C1250 1.391 . S
C1249 C1248 1.386 . S
C1249 C1253 1.393 . S
C1250 H1242 0.950 . S
C1250 C1248 1.391 . S
C1250 C1251 1.400 . S
C1251 C1250 1.400 . S
C1251 C1252 1.398 . S
C1251 C1257 1.491 . S
C1252 H1243 0.950 . S
C1252 C1251 1.398 . S
C1252 C1253 1.391 . S
C1253 H1241 0.950 . S
C1253 C1249 1.393 . S
C1253 C1252 1.391 . S
C1254 H1244 0.950 . S
C1254 C1255 1.386 . S
C1254 C1256 1.391 . S
C1255 C1254 1.386 . S
C1255 C1259 1.393 . S
C1256 H1245 0.950 . S
C1256 C1254 1.391 . S
C1256 C1257 1.400 . S
C1257 C1251 1.491 . S
C1257 C1256 1.400 . S
C1257 C1258 1.398 . S
C1258 H1246 0.950 . S
C1258 C1257 1.398 . S
C1258 C1259 1.391 . S
C1259 H1247 0.950 . S
C1259 C1255 1.393 . S
C1259 C1258 1.391 . S
H1260 C1268 0.950 . S
H1261 C1273 0.950 . S
H1262 C1270 0.950 . S
H1263 C1272 0.950 . S
H1264 C1274 0.950 . S
H1265 C1276 0.950 . S
H1266 C1278 0.950 . S
H1267 C1279 0.950 . S
C1268 H1260 0.950 . S
C1268 C1269 1.386 . S
C1268 C1270 1.391 . S
C1269 C1268 1.386 . S
C1269 C1273 1.393 . S
C1270 H1262 0.950 . S
C1270 C1268 1.391 . S
C1270 C1271 1.400 . S
C1271 C1270 1.400 . S
C1271 C1272 1.398 . S
C1271 C1277 1.491 1_554 S
C1272 H1263 0.950 . S
C1272 C1271 1.398 . S
C1272 C1273 1.391 . S
C1273 H1261 0.950 . S
C1273 C1269 1.393 . S
C1273 C1272 1.391 . S
C1274 H1264 0.950 . S
C1274 C1275 1.386 . S
C1274 C1276 1.391 . S
C1275 C1274 1.386 . S
C1275 C1279 1.393 . S
C1276 H1265 0.950 . S
C1276 C1274 1.391 . S
C1276 C1277 1.400 . S
C1277 C1271 1.491 1_556 S
C1277 C1276 1.400 . S
C1277 C1278 1.398 . S
C1278 H1266 0.950 . S
C1278 C1277 1.398 . S
C1278 C1279 1.391 . S
C1279 H1267 0.950 . S
C1279 C1275 1.393 . S
C1279 C1278 1.391 . S
H1280 C1288 0.950 . S
H1281 C1293 0.950 . S
H1282 C1290 0.950 . S
H1283 C1292 0.950 . S
H1284 C1294 0.950 . S
H1285 C1296 0.950 . S
H1286 C1298 0.950 . S
H1287 C1299 0.950 . S
C1288 H1280 0.950 . S
C1288 C1289 1.386 . S
C1288 C1290 1.391 . S
C1289 C1288 1.386 . S
C1289 C1293 1.393 . S
C1290 H1282 0.950 . S
C1290 C1288 1.391 . S
C1290 C1291 1.400 . S
C1291 C1290 1.400 . S
C1291 C1292 1.398 . S
C1291 C1297 1.491 1_554 S
C1292 H1283 0.950 . S
C1292 C1291 1.398 . S
C1292 C1293 1.391 . S
C1293 H1281 0.950 . S
C1293 C1289 1.393 . S
C1293 C1292 1.391 . S
C1294 H1284 0.950 . S
C1294 C1295 1.386 . S
C1294 C1296 1.391 . S
C1295 C1294 1.386 . S
C1295 C1299 1.393 . S
C1296 H1285 0.950 . S
C1296 C1294 1.391 . S
C1296 C1297 1.400 . S
C1297 C1291 1.491 1_556 S
C1297 C1296 1.400 . S
C1297 C1298 1.398 . S
C1298 H1286 0.950 . S
C1298 C1297 1.398 . S
C1298 C1299 1.391 . S
C1299 H1287 0.950 . S
C1299 C1295 1.393 . S
C1299 C1298 1.391 . S
H1300 C1308 0.950 . S
H1301 C1313 0.950 . S
H1302 C1310 0.950 . S
H1303 C1312 0.950 . S
H1304 C1314 0.950 . S
H1305 C1316 0.950 . S
H1306 C1318 0.950 . S
H1307 C1319 0.950 . S
C1308 H1300 0.950 . S
C1308 C1309 1.386 . S
C1308 C1310 1.391 . S
C1309 C1308 1.386 . S
C1309 C1313 1.393 . S
C1310 H1302 0.950 . S
C1310 C1308 1.391 . S
C1310 C1311 1.400 . S
C1311 C1310 1.400 . S
C1311 C1312 1.398 . S
C1311 C1317 1.491 1_554 S
C1312 H1303 0.950 . S
C1312 C1311 1.398 . S
C1312 C1313 1.391 . S
C1313 H1301 0.950 . S
C1313 C1309 1.393 . S
C1313 C1312 1.391 . S
C1314 H1304 0.950 . S
C1314 C1315 1.386 . S
C1314 C1316 1.391 . S
C1315 C1314 1.386 . S
C1315 C1319 1.393 . S
C1316 H1305 0.950 . S
C1316 C1314 1.391 . S
C1316 C1317 1.400 . S
C1317 C1311 1.491 1_556 S
C1317 C1316 1.400 . S
C1317 C1318 1.398 . S
C1318 H1306 0.950 . S
C1318 C1317 1.398 . S
C1318 C1319 1.391 . S
C1319 H1307 0.950 . S
C1319 C1315 1.393 . S
C1319 C1318 1.391 . S
H1320 C1328 0.950 . S
H1321 C1333 0.950 . S
H1322 C1330 0.950 . S
H1323 C1332 0.950 . S
H1324 C1334 0.950 . S
H1325 C1336 0.950 . S
H1326 C1338 0.950 . S
H1327 C1339 0.950 . S
C1328 H1320 0.950 . S
C1328 C1329 1.386 . S
C1328 C1330 1.391 . S
C1329 C1328 1.386 . S
C1329 C1333 1.393 . S
C1330 H1322 0.950 . S
C1330 C1328 1.391 . S
C1330 C1331 1.400 . S
C1331 C1330 1.400 . S
C1331 C1332 1.398 . S
C1331 C1337 1.491 1_556 S
C1332 H1323 0.950 . S
C1332 C1331 1.398 . S
C1332 C1333 1.391 . S
C1333 H1321 0.950 . S
C1333 C1329 1.393 . S
C1333 C1332 1.391 . S
C1334 H1324 0.950 . S
C1334 C1335 1.386 . S
C1334 C1336 1.391 . S
C1335 C1334 1.386 . S
C1335 C1339 1.393 . S
C1336 H1325 0.950 . S
C1336 C1334 1.391 . S
C1336 C1337 1.400 . S
C1337 C1331 1.491 1_554 S
C1337 C1336 1.400 . S
C1337 C1338 1.398 . S
C1338 H1326 0.950 . S
C1338 C1337 1.398 . S
C1338 C1339 1.391 . S
C1339 H1327 0.950 . S
C1339 C1335 1.393 . S
C1339 C1338 1.391 . S
H1340 C1348 0.950 . S
H1341 C1353 0.950 . S
H1342 C1350 0.950 . S
H1343 C1352 0.950 . S
H1344 C1354 0.950 . S
H1345 C1356 0.950 1_554 S
H1346 C1358 0.950 . S
H1347 C1359 0.950 . S
C1348 H1340 0.950 . S
C1348 C1349 1.386 . S
C1348 C1350 1.391 . S
C1349 C1348 1.386 . S
C1349 C1353 1.393 . S
C1350 H1342 0.950 . S
C1350 C1348 1.391 . S
C1350 C1351 1.400 . S
C1351 C1350 1.400 . S
C1351 C1352 1.398 . S
C1351 C1357 1.491 . S
C1352 H1343 0.950 . S
C1352 C1351 1.398 . S
C1352 C1353 1.391 . S
C1353 H1341 0.950 . S
C1353 C1349 1.393 . S
C1353 C1352 1.391 . S
C1354 H1344 0.950 . S
C1354 C1355 1.386 . S
C1354 C1356 1.391 . S
C1355 C1354 1.386 . S
C1355 C1359 1.393 . S
C1356 H1345 0.950 1_556 S
C1356 C1354 1.391 . S
C1356 C1357 1.400 1_556 S
C1357 C1351 1.491 . S
C1357 C1356 1.400 1_554 S
C1357 C1358 1.398 1_554 S
C1358 H1346 0.950 . S
C1358 C1357 1.398 1_556 S
C1358 C1359 1.391 . S
C1359 H1347 0.950 . S
C1359 C1355 1.393 . S
C1359 C1358 1.391 . S
H1360 C1368 0.950 . S
H1361 C1373 0.950 . S
H1362 C1370 0.950 . S
H1363 C1372 0.950 . S
H1364 C1374 0.950 . S
H1365 C1376 0.950 . S
H1366 C1378 0.950 . S
H1367 C1379 0.950 . S
C1368 H1360 0.950 . S
C1368 C1369 1.386 . S
C1368 C1370 1.391 . S
C1369 C1368 1.386 . S
C1369 C1373 1.393 . S
C1370 H1362 0.950 . S
C1370 C1368 1.391 . S
C1370 C1371 1.400 . S
C1371 C1370 1.400 . S
C1371 C1372 1.398 . S
C1371 C1377 1.491 1_554 S
C1372 H1363 0.950 . S
C1372 C1371 1.398 . S
C1372 C1373 1.391 . S
C1373 H1361 0.950 . S
C1373 C1369 1.393 . S
C1373 C1372 1.391 . S
C1374 H1364 0.950 . S
C1374 C1375 1.386 . S
C1374 C1376 1.391 . S
C1375 C1374 1.386 . S
C1375 C1379 1.393 . S
C1376 H1365 0.950 . S
C1376 C1374 1.391 . S
C1376 C1377 1.400 . S
C1377 C1371 1.491 1_556 S
C1377 C1376 1.400 . S
C1377 C1378 1.398 . S
C1378 H1366 0.950 . S
C1378 C1377 1.398 . S
C1378 C1379 1.391 . S
C1379 H1367 0.950 . S
C1379 C1375 1.393 . S
C1379 C1378 1.391 . S
H1380 C1388 0.950 . S
H1381 C1393 0.950 . S
H1382 C1390 0.950 . S
H1383 C1392 0.950 . S
H1384 C1394 0.950 . S
H1385 C1396 0.950 . S
H1386 C1398 0.950 . S
H1387 C1399 0.950 . S
C1388 H1380 0.950 . S
C1388 C1389 1.386 . S
C1388 C1390 1.391 . S
C1389 C1388 1.386 . S
C1389 C1393 1.393 . S
C1390 H1382 0.950 . S
C1390 C1388 1.391 . S
C1390 C1391 1.400 . S
C1391 C1390 1.400 . S
C1391 C1392 1.398 . S
C1391 C1397 1.491 . S
C1392 H1383 0.950 . S
C1392 C1391 1.398 . S
C1392 C1393 1.391 . S
C1393 H1381 0.950 . S
C1393 C1389 1.393 . S
C1393 C1392 1.391 . S
C1394 H1384 0.950 . S
C1394 C1395 1.386 . S
C1394 C1396 1.391 . S
C1395 C1394 1.386 . S
C1395 C1399 1.393 . S
C1396 H1385 0.950 . S
C1396 C1394 1.391 . S
C1396 C1397 1.400 . S
C1397 C1391 1.491 . S
C1397 C1396 1.400 . S
C1397 C1398 1.398 . S
C1398 H1386 0.950 . S
C1398 C1397 1.398 . S
C1398 C1399 1.391 . S
C1399 H1387 0.950 . S
C1399 C1395 1.393 . S
C1399 C1398 1.391 . S
H1400 C1408 0.950 . S
H1401 C1413 0.950 . S
H1402 C1410 0.950 . S
H1403 C1412 0.950 . S
H1404 C1414 0.950 . S
H1405 C1416 0.950 . S
H1406 C1418 0.950 . S
H1407 C1419 0.950 . S
C1408 H1400 0.950 . S
C1408 C1409 1.386 . S
C1408 C1410 1.391 . S
C1409 C1408 1.386 . S
C1409 C1413 1.393 . S
C1410 H1402 0.950 . S
C1410 C1408 1.391 . S
C1410 C1411 1.400 . S
C1411 C1410 1.400 . S
C1411 C1412 1.398 . S
C1411 C1417 1.491 . S
C1412 H1403 0.950 . S
C1412 C1411 1.398 . S
C1412 C1413 1.391 . S
C1413 H1401 0.950 . S
C1413 C1409 1.393 . S
C1413 C1412 1.391 . S
C1414 H1404 0.950 . S
C1414 C1415 1.386 . S
C1414 C1416 1.391 . S
C1415 C1414 1.386 . S
C1415 C1419 1.393 . S
C1416 H1405 0.950 . S
C1416 C1414 1.391 . S
C1416 C1417 1.400 . S
C1417 C1411 1.491 . S
C1417 C1416 1.400 . S
C1417 C1418 1.398 . S
C1418 H1406 0.950 . S
C1418 C1417 1.398 . S
C1418 C1419 1.391 . S
C1419 H1407 0.950 . S
C1419 C1415 1.393 . S
C1419 C1418 1.391 . S
H1420 C1428 0.950 . S
H1421 C1433 0.950 . S
H1422 C1430 0.950 . S
H1423 C1432 0.950 . S
H1424 C1434 0.950 . S
H1425 C1436 0.950 . S
H1426 C1438 0.950 . S
H1427 C1439 0.950 . S
C1428 H1420 0.950 . S
C1428 C1429 1.392 . S
C1428 C1430 1.391 . S
C1429 C1428 1.392 . S
C1429 C1433 1.386 1_455 S
C1430 H1422 0.950 . S
C1430 C1428 1.391 . S
C1430 C1431 1.346 1_455 S
C1431 C1430 1.346 1_655 S
C1431 C1432 1.449 . S
C1431 C1437 1.496 . S
C1432 H1423 0.950 . S
C1432 C1431 1.449 . S
C1432 C1433 1.391 . S
C1433 H1421 0.950 . S
C1433 C1429 1.386 1_655 S
C1433 C1432 1.391 . S
C1434 H1424 0.950 . S
C1434 C1435 1.386 . S
C1434 C1436 1.391 . S
C1435 C1434 1.386 . S
C1435 C1439 1.393 1_655 S
C1436 H1425 0.950 . S
C1436 C1434 1.391 . S
C1436 C1437 1.400 . S
C1437 C1431 1.496 . S
C1437 C1436 1.400 . S
C1437 C1438 1.398 1_655 S
C1438 H1426 0.950 . S
C1438 C1437 1.398 1_455 S
C1438 C1439 1.391 . S
C1439 H1427 0.950 . S
C1439 C1435 1.393 1_455 S
C1439 C1438 1.391 . S
H1440 C1448 0.950 . S
H1441 C1453 0.950 . S
H1442 C1450 0.950 . S
H1443 C1452 0.950 . S
H1444 C1454 0.950 . S
H1445 C1456 0.950 . S
H1446 C1458 0.950 . S
H1447 C1459 0.950 . S
C1448 H1440 0.950 . S
C1448 C1449 1.386 . S
C1448 C1450 1.391 . S
C1449 C1448 1.386 . S
C1449 C1453 1.393 . S
C1450 H1442 0.950 . S
C1450 C1448 1.391 . S
C1450 C1451 1.400 . S
C1451 C1450 1.400 . S
C1451 C1452 1.398 . S
C1451 C1457 1.491 . S
C1452 H1443 0.950 . S
C1452 C1451 1.398 . S
C1452 C1453 1.391 . S
C1453 H1441 0.950 . S
C1453 C1449 1.393 . S
C1453 C1452 1.391 . S
C1454 H1444 0.950 . S
C1454 C1455 1.386 . S
C1454 C1456 1.391 . S
C1455 C1454 1.386 . S
C1455 C1459 1.393 . S
C1456 H1445 0.950 . S
C1456 C1454 1.391 . S
C1456 C1457 1.400 . S
C1457 C1451 1.491 . S
C1457 C1456 1.400 . S
C1457 C1458 1.398 . S
C1458 H1446 0.950 . S
C1458 C1457 1.398 . S
C1458 C1459 1.391 . S
C1459 H1447 0.950 . S
C1459 C1455 1.393 . S
C1459 C1458 1.391 . S
H1460 C1468 0.950 . S
H1461 C1473 0.950 . S
H1462 C1470 0.950 . S
H1463 C1472 0.950 . S
H1464 C1474 0.950 . S
H1465 C1476 0.950 . S
H1466 C1478 0.950 . S
H1467 C1479 0.950 . S
C1468 H1460 0.950 . S
C1468 C1469 1.386 1_455 S
C1468 C1470 1.391 . S
C1469 C1468 1.386 1_655 S
C1469 C1473 1.393 . S
C1470 H1462 0.950 . S
C1470 C1468 1.391 . S
C1470 C1471 1.400 1_455 S
C1471 C1470 1.400 1_655 S
C1471 C1472 1.398 . S
C1471 C1477 1.491 . S
C1472 H1463 0.950 . S
C1472 C1471 1.398 . S
C1472 C1473 1.391 . S
C1473 H1461 0.950 . S
C1473 C1469 1.393 . S
C1473 C1472 1.391 . S
C1474 H1464 0.950 . S
C1474 C1475 1.386 . S
C1474 C1476 1.391 . S
C1475 C1474 1.386 . S
C1475 C1479 1.393 1_655 S
C1476 H1465 0.950 . S
C1476 C1474 1.391 . S
C1476 C1477 1.400 . S
C1477 C1471 1.491 . S
C1477 C1476 1.400 . S
C1477 C1478 1.398 1_655 S
C1478 H1466 0.950 . S
C1478 C1477 1.398 1_455 S
C1478 C1479 1.391 . S
C1479 H1467 0.950 . S
C1479 C1475 1.393 1_455 S
C1479 C1478 1.391 . S
H1480 C1488 0.950 . S
H1481 C1493 0.950 . S
H1482 C1490 0.950 . S
H1483 C1492 0.950 . S
H1484 C1494 0.950 . S
H1485 C1496 0.950 . S
H1486 C1498 0.950 . S
H1487 C1499 0.950 . S
C1488 H1480 0.950 . S
C1488 C1489 1.386 . S
C1488 C1490 1.391 . S
C1489 C1488 1.386 . S
C1489 C1493 1.393 . S
C1490 H1482 0.950 . S
C1490 C1488 1.391 . S
C1490 C1491 1.400 . S
C1491 C1490 1.400 . S
C1491 C1492 1.398 . S
C1491 C1497 1.491 . S
C1492 H1483 0.950 . S
C1492 C1491 1.398 . S
C1492 C1493 1.391 . S
C1493 H1481 0.950 . S
C1493 C1489 1.393 . S
C1493 C1492 1.391 . S
C1494 H1484 0.950 . S
C1494 C1495 1.386 . S
C1494 C1496 1.391 . S
C1495 C1494 1.386 . S
C1495 C1499 1.393 . S
C1496 H1485 0.950 . S
C1496 C1494 1.391 . S
C1496 C1497 1.400 . S
C1497 C1491 1.491 . S
C1497 C1496 1.400 . S
C1497 C1498 1.398 . S
C1498 H1486 0.950 . S
C1498 C1497 1.398 . S
C1498 C1499 1.391 . S
C1499 H1487 0.950 . S
C1499 C1495 1.393 . S
C1499 C1498 1.391 . S
H1500 C1508 0.950 . S
H1501 C1513 0.950 . S
H1502 C1510 0.950 . S
H1503 C1512 0.950 . S
H1504 C1514 0.950 . S
H1505 C1516 0.950 . S
H1506 C1518 0.950 . S
H1507 C1519 0.950 . S
C1508 H1500 0.950 . S
C1508 C1509 1.386 . S
C1508 C1510 1.391 . S
C1509 C1508 1.386 . S
C1509 C1513 1.393 . S
C1510 H1502 0.950 . S
C1510 C1508 1.391 . S
C1510 C1511 1.400 . S
C1511 C1510 1.400 . S
C1511 C1512 1.398 . S
C1511 C1517 1.491 . S
C1512 H1503 0.950 . S
C1512 C1511 1.398 . S
C1512 C1513 1.391 . S
C1513 H1501 0.950 . S
C1513 C1509 1.393 . S
C1513 C1512 1.391 . S
C1514 H1504 0.950 . S
C1514 C1515 1.386 . S
C1514 C1516 1.391 . S
C1515 C1514 1.386 . S
C1515 C1519 1.393 . S
C1516 H1505 0.950 . S
C1516 C1514 1.391 . S
C1516 C1517 1.400 . S
C1517 C1511 1.491 . S
C1517 C1516 1.400 . S
C1517 C1518 1.398 . S
C1518 H1506 0.950 . S
C1518 C1517 1.398 . S
C1518 C1519 1.391 . S
C1519 H1507 0.950 . S
C1519 C1515 1.393 . S
C1519 C1518 1.391 . S
H1520 C1528 0.950 . S
H1521 C1533 0.950 . S
H1522 C1530 0.950 . S
H1523 C1532 0.950 . S
H1524 C1534 0.950 . S
H1525 C1536 0.950 . S
H1526 C1538 0.950 . S
H1527 C1539 0.950 . S
C1528 H1520 0.950 . S
C1528 C1529 1.386 . S
C1528 C1530 1.391 . S
C1529 C1528 1.386 . S
C1529 C1533 1.393 . S
C1530 H1522 0.950 . S
C1530 C1528 1.391 . S
C1530 C1531 1.400 . S
C1531 C1530 1.400 . S
C1531 C1532 1.398 . S
C1531 C1537 1.491 . S
C1532 H1523 0.950 . S
C1532 C1531 1.398 . S
C1532 C1533 1.391 . S
C1533 H1521 0.950 . S
C1533 C1529 1.393 . S
C1533 C1532 1.391 . S
C1534 H1524 0.950 . S
C1534 C1535 1.386 . S
C1534 C1536 1.391 . S
C1535 C1534 1.386 . S
C1535 C1539 1.393 . S
C1536 H1525 0.950 . S
C1536 C1534 1.391 . S
C1536 C1537 1.400 . S
C1537 C1531 1.491 . S
C1537 C1536 1.400 . S
C1537 C1538 1.398 . S
C1538 H1526 0.950 . S
C1538 C1537 1.398 . S
C1538 C1539 1.391 . S
C1539 H1527 0.950 . S
C1539 C1535 1.393 . S
C1539 C1538 1.391 . S
H1540 C1548 0.950 . S
H1541 C1553 0.950 . S
H1542 C1550 0.950 . S
H1543 C1552 0.950 . S
H1544 C1554 0.950 . S
H1545 C1556 0.950 . S
H1546 C1558 0.950 . S
H1547 C1559 0.950 . S
C1548 H1540 0.950 . S
C1548 C1549 1.386 . S
C1548 C1550 1.391 . S
C1549 C1548 1.386 . S
C1549 C1553 1.393 . S
C1550 H1542 0.950 . S
C1550 C1548 1.391 . S
C1550 C1551 1.400 . S
C1551 C1550 1.400 . S
C1551 C1552 1.398 . S
C1551 C1557 1.491 . S
C1552 H1543 0.950 . S
C1552 C1551 1.398 . S
C1552 C1553 1.391 . S
C1553 H1541 0.950 . S
C1553 C1549 1.393 . S
C1553 C1552 1.391 . S
C1554 H1544 0.950 . S
C1554 C1555 1.386 . S
C1554 C1556 1.391 . S
C1555 C1554 1.386 . S
C1555 C1559 1.393 . S
C1556 H1545 0.950 . S
C1556 C1554 1.391 . S
C1556 C1557 1.400 . S
C1557 C1551 1.491 . S
C1557 C1556 1.400 . S
C1557 C1558 1.398 . S
C1558 H1546 0.950 . S
C1558 C1557 1.398 . S
C1558 C1559 1.391 . S
C1559 H1547 0.950 . S
C1559 C1555 1.393 . S
C1559 C1558 1.391 . S
H1560 C1568 0.950 . S
H1561 C1573 0.950 . S
H1562 C1570 0.950 . S
H1563 C1572 0.950 . S
H1564 C1574 0.950 . S
H1565 C1576 0.950 . S
H1566 C1578 0.950 . S
H1567 C1579 0.950 . S
C1568 H1560 0.950 . S
C1568 C1569 1.386 . S
C1568 C1570 1.391 . S
C1569 C1568 1.386 . S
C1569 C1573 1.393 . S
C1570 H1562 0.950 . S
C1570 C1568 1.391 . S
C1570 C1571 1.400 . S
C1571 C1570 1.400 . S
C1571 C1572 1.398 . S
C1571 C1577 1.491 . S
C1572 H1563 0.950 . S
C1572 C1571 1.398 . S
C1572 C1573 1.391 . S
C1573 H1561 0.950 . S
C1573 C1569 1.393 . S
C1573 C1572 1.391 . S
C1574 H1564 0.950 . S
C1574 C1575 1.386 . S
C1574 C1576 1.391 . S
C1575 C1574 1.386 . S
C1575 C1579 1.393 . S
C1576 H1565 0.950 . S
C1576 C1574 1.391 . S
C1576 C1577 1.400 . S
C1577 C1571 1.491 . S
C1577 C1576 1.400 . S
C1577 C1578 1.398 . S
C1578 H1566 0.950 . S
C1578 C1577 1.398 . S
C1578 C1579 1.391 . S
C1579 H1567 0.950 . S
C1579 C1575 1.393 . S
C1579 C1578 1.391 . S
H1580 C1588 0.950 . S
H1581 C1593 0.950 . S
H1582 C1590 0.950 . S
H1583 C1592 0.950 . S
H1584 C1594 0.950 . S
H1585 C1596 0.950 . S
H1586 C1598 0.950 . S
H1587 C1599 0.950 . S
C1588 H1580 0.950 . S
C1588 C1589 1.386 . S
C1588 C1590 1.391 . S
C1589 C1588 1.386 . S
C1589 C1593 1.393 . S
C1590 H1582 0.950 . S
C1590 C1588 1.391 . S
C1590 C1591 1.400 . S
C1591 C1590 1.400 . S
C1591 C1592 1.398 . S
C1591 C1597 1.491 . S
C1592 H1583 0.950 . S
C1592 C1591 1.398 . S
C1592 C1593 1.391 . S
C1593 H1581 0.950 . S
C1593 C1589 1.393 . S
C1593 C1592 1.391 . S
C1594 H1584 0.950 . S
C1594 C1595 1.386 . S
C1594 C1596 1.391 . S
C1595 C1594 1.386 . S
C1595 C1599 1.393 . S
C1596 H1585 0.950 . S
C1596 C1594 1.391 . S
C1596 C1597 1.400 . S
C1597 C1591 1.491 . S
C1597 C1596 1.400 . S
C1597 C1598 1.398 . S
C1598 H1586 0.950 . S
C1598 C1597 1.398 . S
C1598 C1599 1.391 . S
C1599 H1587 0.950 . S
C1599 C1595 1.393 . S
C1599 C1598 1.391 . S
H1600 C1608 0.950 . S
H1601 C1613 0.950 . S
H1602 C1610 0.950 . S
H1603 C1612 0.950 . S
H1604 C1614 0.950 . S
H1605 C1616 0.950 . S
H1606 C1618 0.950 . S
H1607 C1619 0.950 . S
C1608 H1600 0.950 . S
C1608 C1609 1.386 . S
C1608 C1610 1.391 . S
C1609 C1608 1.386 . S
C1609 C1613 1.393 . S
C1610 H1602 0.950 . S
C1610 C1608 1.391 . S
C1610 C1611 1.400 . S
C1611 C1610 1.400 . S
C1611 C1612 1.398 . S
C1611 C1617 1.491 . S
C1612 H1603 0.950 . S
C1612 C1611 1.398 . S
C1612 C1613 1.391 . S
C1613 H1601 0.950 . S
C1613 C1609 1.393 . S
C1613 C1612 1.391 . S
C1614 H1604 0.950 . S
C1614 C1615 1.386 . S
C1614 C1616 1.391 . S
C1615 C1614 1.386 . S
C1615 C1619 1.393 . S
C1616 H1605 0.950 . S
C1616 C1614 1.391 . S
C1616 C1617 1.400 . S
C1617 C1611 1.491 . S
C1617 C1616 1.400 . S
C1617 C1618 1.398 . S
C1618 H1606 0.950 . S
C1618 C1617 1.398 . S
C1618 C1619 1.391 . S
C1619 H1607 0.950 . S
C1619 C1615 1.393 . S
C1619 C1618 1.391 . S
C549 N396 1.379 . S
C555 N6 1.441 . S
C569 C31 2.007 . S
C575 C421 2.000 . S
C589 N66 1.574 . S
C595 C361 1.643 . S
C609 C61 2.182 . S
C615 C211 2.176 . S
C629 C241 2.689 . S
C635 C1 2.671 . S
C649 N36 2.008 . S
C655 C181 2.114 . S
C669 N104 2.104 . S
C675 C310 2.270 . S
C689 C130 2.263 . S
C695 C340 2.272 . S
C709 C280 1.733 . S
C715 N164 1.661 . S
C729 C490 2.020 . S
C735 C160 2.018 1_565 S
C749 C100 1.624 . S
C755 N524 1.521 . S
C769 N464 1.386 . S
C775 N134 1.412 . S
C789 N246 1.297 . S
C795 C391 1.361 . S
C809 N186 1.038 . S
C815 N426 1.105 . S
C829 N216 1.328 . S
C835 N366 1.322 . S
C849 N284 1.323 . S
C855 N494 1.344 1_545 S
C869 C520 1.438 . S
C875 N314 1.325 . S
C889 C460 1.679 . S
C895 N344 1.642 . S
C909 C10 1.676 . S
C915 C121 1.678 . S
C929 N156 2.106 . S
C935 N44 2.107 . S
C949 N96 2.019 . S
C955 C70 2.046 . S
C969 N126 1.751 . S
C975 N74 1.758 . S
C989 C151 1.921 . S
C995 N14 1.902 . S
C1009 C91 2.160 . S
C1015 C40 2.174 . S
C1029 N306 1.302 . S
C1035 N194 1.296 . S
C1049 N336 1.602 . S
C1055 N224 1.588 . S
C1069 N276 1.481 . S
C1075 N254 1.429 . S
C1089 C301 2.103 . S
C1095 C250 2.102 . S
C1109 C331 1.763 . S
C1115 C190 1.730 . S
C1129 C271 1.325 . S
C1135 C220 1.328 . S
C1149 C481 1.069 . S
C1155 C370 1.064 . S
C1169 N516 1.227 . S
C1175 N404 1.218 . S
C1189 C430 1.183 . S
C1195 N456 1.172 . S
C1209 N434 1.302 . S
C1215 N486 1.336 . S
C1229 N374 1.124 . S
C1235 C511 1.130 . S
C1249 C451 0.620 . S
C1255 C400 0.574 . S
C1269 C16 1.278 . S
C1275 C27 1.278 . S
C1289 C57 1.275 . S
C1295 C46 1.275 . S
C1309 C76 1.274 . S
C1315 C87 1.274 . S
C1329 C117 1.286 . S
C1335 C106 1.286 . S
C1349 C147 1.274 . S
C1355 C136 1.274 . S
C1369 C166 1.274 . S
C1375 C177 1.274 . S
C1389 C196 1.295 1_554 S
C1395 C207 1.295 . S
C1409 C237 1.276 . S
C1415 C226 1.276 1_554 S
C1429 C256 1.277 1_454 S
C1435 C267 1.276 . S
C1449 C297 1.288 1_554 S
C1455 C286 1.288 . S
C1469 C327 1.283 1_554 S
C1475 C316 1.283 . S
C1489 C357 1.274 1_554 S
C1495 C346 1.274 . S
C1509 C387 1.291 . S
C1515 C376 1.291 1_556 S
C1529 C417 1.281 . S
C1535 C406 1.281 . S
C1549 C436 1.275 1_556 S
C1555 C447 1.275 . S
C1569 C466 1.292 1_556 S
C1575 C477 1.292 . S
C1589 C507 1.281 1_556 S
C1595 C496 1.281 . S
C1609 C537 1.282 . S
C1615 C526 1.282 1_556 S
