# Generated by pormake.
# Topology vbm, (6)-cn, num edge types: 1
# Building blocks:
#     Node 0, Type 0, BuildingBlock: KUMJIN_clean_sbu_1, # of connection points: 6
#     Node 1, Type 0, BuildingBlock: KUMJIN_clean_sbu_1, # of connection points: 6
#     Node 2, Type 0, BuildingBlock: KUMJIN_clean_sbu_1, # of connection points: 6
#     Node 3, Type 0, BuildingBlock: KUMJIN_clean_sbu_1, # of connection points: 6
#     Node 4, Type 0, BuildingBlock: KUMJIN_clean_sbu_1, # of connection points: 6
#     Node 5, Type 0, BuildingBlock: KUMJIN_clean_sbu_1, # of connection points: 6
#     Node 6, Type 0, BuildingBlock: KUMJIN_clean_sbu_1, # of connection points: 6
#     Node 7, Type 0, BuildingBlock: KUMJIN_clean_sbu_1, # of connection points: 6
#     Node 8, Type 0, BuildingBlock: KUMJIN_clean_sbu_1, # of connection points: 6
#     Node 9, Type 0, BuildingBlock: KUMJIN_clean_sbu_1, # of connection points: 6
#     Node 10, Type 0, BuildingBlock: KUMJIN_clean_sbu_1, # of connection points: 6
#     Node 11, Type 0, BuildingBlock: KUMJIN_clean_sbu_1, # of connection points: 6
#     Node 12, Type 0, BuildingBlock: KUMJIN_clean_sbu_1, # of connection points: 6
#     Node 13, Type 0, BuildingBlock: KUMJIN_clean_sbu_1, # of connection points: 6
#     Node 14, Type 0, BuildingBlock: KUMJIN_clean_sbu_1, # of connection points: 6
#     Node 15, Type 0, BuildingBlock: KUMJIN_clean_sbu_1, # of connection points: 6
#     Edge 16, Type (0, 0), BuildingBlock: OJICUG_clean_linker_0, # of connection points: 2
#     Edge 17, Type (0, 0), BuildingBlock: OJICUG_clean_linker_0, # of connection points: 2
#     Edge 18, Type (0, 0), BuildingBlock: OJICUG_clean_linker_0, # of connection points: 2
#     Edge 19, Type (0, 0), BuildingBlock: OJICUG_clean_linker_0, # of connection points: 2
#     Edge 20, Type (0, 0), BuildingBlock: OJICUG_clean_linker_0, # of connection points: 2
#     Edge 21, Type (0, 0), BuildingBlock: OJICUG_clean_linker_0, # of connection points: 2
#     Edge 22, Type (0, 0), BuildingBlock: OJICUG_clean_linker_0, # of connection points: 2
#     Edge 23, Type (0, 0), BuildingBlock: OJICUG_clean_linker_0, # of connection points: 2
#     Edge 24, Type (0, 0), BuildingBlock: OJICUG_clean_linker_0, # of connection points: 2
#     Edge 25, Type (0, 0), BuildingBlock: OJICUG_clean_linker_0, # of connection points: 2
#     Edge 26, Type (0, 0), BuildingBlock: OJICUG_clean_linker_0, # of connection points: 2
#     Edge 27, Type (0, 0), BuildingBlock: OJICUG_clean_linker_0, # of connection points: 2
#     Edge 28, Type (0, 0), BuildingBlock: OJICUG_clean_linker_0, # of connection points: 2
#     Edge 29, Type (0, 0), BuildingBlock: OJICUG_clean_linker_0, # of connection points: 2
#     Edge 30, Type (0, 0), BuildingBlock: OJICUG_clean_linker_0, # of connection points: 2
#     Edge 31, Type (0, 0), BuildingBlock: OJICUG_clean_linker_0, # of connection points: 2
#     Edge 32, Type (0, 0), BuildingBlock: OJICUG_clean_linker_0, # of connection points: 2
#     Edge 33, Type (0, 0), BuildingBlock: OJICUG_clean_linker_0, # of connection points: 2
#     Edge 34, Type (0, 0), BuildingBlock: OJICUG_clean_linker_0, # of connection points: 2
#     Edge 35, Type (0, 0), BuildingBlock: OJICUG_clean_linker_0, # of connection points: 2
#     Edge 36, Type (0, 0), BuildingBlock: OJICUG_clean_linker_0, # of connection points: 2
#     Edge 37, Type (0, 0), BuildingBlock: OJICUG_clean_linker_0, # of connection points: 2
#     Edge 38, Type (0, 0), BuildingBlock: OJICUG_clean_linker_0, # of connection points: 2
#     Edge 39, Type (0, 0), BuildingBlock: OJICUG_clean_linker_0, # of connection points: 2
#     Edge 40, Type (0, 0), BuildingBlock: OJICUG_clean_linker_0, # of connection points: 2
#     Edge 41, Type (0, 0), BuildingBlock: OJICUG_clean_linker_0, # of connection points: 2
#     Edge 42, Type (0, 0), BuildingBlock: OJICUG_clean_linker_0, # of connection points: 2
#     Edge 43, Type (0, 0), BuildingBlock: OJICUG_clean_linker_0, # of connection points: 2
#     Edge 44, Type (0, 0), BuildingBlock: OJICUG_clean_linker_0, # of connection points: 2
#     Edge 45, Type (0, 0), BuildingBlock: OJICUG_clean_linker_0, # of connection points: 2
#     Edge 46, Type (0, 0), BuildingBlock: OJICUG_clean_linker_0, # of connection points: 2
#     Edge 47, Type (0, 0), BuildingBlock: OJICUG_clean_linker_0, # of connection points: 2
#     Edge 48, Type (0, 0), BuildingBlock: OJICUG_clean_linker_0, # of connection points: 2
#     Edge 49, Type (0, 0), BuildingBlock: OJICUG_clean_linker_0, # of connection points: 2
#     Edge 50, Type (0, 0), BuildingBlock: OJICUG_clean_linker_0, # of connection points: 2
#     Edge 51, Type (0, 0), BuildingBlock: OJICUG_clean_linker_0, # of connection points: 2
#     Edge 52, Type (0, 0), BuildingBlock: OJICUG_clean_linker_0, # of connection points: 2
#     Edge 53, Type (0, 0), BuildingBlock: OJICUG_clean_linker_0, # of connection points: 2
#     Edge 54, Type (0, 0), BuildingBlock: OJICUG_clean_linker_0, # of connection points: 2
#     Edge 55, Type (0, 0), BuildingBlock: OJICUG_clean_linker_0, # of connection points: 2
#     Edge 56, Type (0, 0), BuildingBlock: OJICUG_clean_linker_0, # of connection points: 2
#     Edge 57, Type (0, 0), BuildingBlock: OJICUG_clean_linker_0, # of connection points: 2
#     Edge 58, Type (0, 0), BuildingBlock: OJICUG_clean_linker_0, # of connection points: 2
#     Edge 59, Type (0, 0), BuildingBlock: OJICUG_clean_linker_0, # of connection points: 2
#     Edge 60, Type (0, 0), BuildingBlock: OJICUG_clean_linker_0, # of connection points: 2
#     Edge 61, Type (0, 0), BuildingBlock: OJICUG_clean_linker_0, # of connection points: 2
#     Edge 62, Type (0, 0), BuildingBlock: OJICUG_clean_linker_0, # of connection points: 2
#     Edge 63, Type (0, 0), BuildingBlock: OJICUG_clean_linker_0, # of connection points: 2
# Relax obj value: 0.078
# Max RMSD: 0.149
# Mean RMSD: 0.149
data_MOF--net-vbm--node1-KUMJIN_clean_sbu_1--edge1-OJICUG_clean_linker_0
_symmetry_space_group_name_H-M    P1
_symmetry_Int_Tables_number       1
_symmetry_cell_setting            triclinic
loop_
_symmetry_equiv_pos_as_xyz
'x, y, z'
_cell_length_a     38.329314
_cell_length_b     20.569347
_cell_length_c     41.868702
_cell_angle_alpha  89.931794
_cell_angle_beta   90.023351
_cell_angle_gamma 90.076775
loop_
_atom_site_label
_atom_site_type_symbol
_atom_site_fract_x
_atom_site_fract_y
_atom_site_fract_z
_atom_type_partial_charge
Eu0 Eu 0.12308 0.20149 0.13739 0.0
C1 C 0.23877 0.02381 0.07869 0.0
N2 N 0.20432 0.02546 0.07062 0.0
C3 C 0.21772 0.9973 0.01667 0.0
C4 C 0.26421 1.01036 0.05534 0.0
C5 C 0.19348 1.01397 0.04009 0.0
C6 C 0.25326 0.99653 0.02414 0.0
C7 C 0.28432 0.0343 0.11892 0.0
C8 C 0.24867 0.03437 0.11055 0.0
C9 C 0.30962 0.02165 0.09551 0.0
C10 C 0.29961 1.00945 0.06391 0.0
Eu11 Eu 0.16588 0.03801 0.11356 0.0
N12 N 0.22368 0.04621 0.13308 0.0
C13 C 0.29359 0.04713 0.15061 0.0
C14 C 0.23279 0.05893 0.16404 0.0
C15 C 0.26779 0.05992 0.17315 0.0
H16 H 0.16597 1.01312 0.03446 0.0
H17 H 0.27487 0.07042 0.19765 0.0
H18 H 0.11265 0.24246 0.21327 0.0
H19 H 0.03117 0.23175 0.03707 0.0
H20 H 0.21359 0.06964 0.18196 0.0
H21 H 0.32058 0.04744 0.15798 0.0
H22 H 0.08852 0.22626 0.06172 0.0
H23 H 0.20897 0.98436 0.99296 0.0
H24 H 0.33708 0.02088 0.10163 0.0
H25 H 0.3195 0.99915 0.04625 0.0
H26 H 0.06607 0.28394 0.24838 0.0
H27 H 0.27199 0.98447 0.00571 0.0
H28 H 0.97871 0.24214 0.07089 0.0
N29 N 0.07933 0.23241 0.17311 0.0
C30 C 0.04668 0.23882 0.16098 0.0
C31 C 0.06005 0.27015 0.22407 0.0
C32 C 0.01888 0.25912 0.18059 0.0
C33 C 0.08642 0.24719 0.20412 0.0
C34 C 0.02607 0.27577 0.21231 0.0
N35 N 0.06966 0.2184 0.10943 0.0
C36 C 0.0663 0.22325 0.07702 0.0
C37 C 0.00793 0.23878 0.11513 0.0
C38 C 0.04151 0.2299 0.12841 0.0
C39 C 1.00402 0.23568 0.08198 0.0
C40 C 0.0335 0.22945 0.06282 0.0
H41 H 1.00575 0.29467 0.22762 0.0
H42 H 0.96349 0.27981 0.18251 0.0
H43 H 0.95376 0.2608 0.12526 0.0
O44 O 0.11976 0.30408 0.12363 0.0
O45 O 0.08783 0.11436 0.14567 0.0
O46 O 0.1063 0.04608 0.10561 0.0
O47 O 0.1545 0.27372 0.16167 0.0
O48 O 0.14099 0.18771 0.08502 0.0
O49 O 0.13089 0.07959 0.07632 0.0
O50 O 0.14964 0.94724 0.13701 0.0
O51 O 0.19845 0.13107 0.10454 0.0
O52 O 0.17907 0.17855 0.1488 0.0
O53 O 0.17992 0.94458 0.09371 0.0
O54 O 0.15665 0.04465 0.16648 0.0
O55 O 0.12798 0.13867 0.18267 0.0
C56 C 0.0824 0.06499 0.12646 0.0
C57 C 0.13476 0.38235 0.16298 0.0
C58 C 0.12874 0.49956 0.16148 0.0
C59 C 0.13119 0.50155 0.19476 0.0
C60 C 0.13762 0.38501 0.19642 0.0
C61 C 0.13533 0.44438 0.21217 0.0
C62 C 0.12968 0.4398 0.14562 0.0
C63 C 0.13515 0.13858 0.06544 0.0
C64 C 0.14191 0.3223 0.14547 0.0
C65 C 0.98523 0.26509 0.16767 0.0
C66 C 0.9797 0.25419 0.13507 0.0
C67 C 0.20154 0.17787 0.12553 0.0
C68 C 0.13992 0.86145 0.10039 0.0
C69 C 0.12536 0.74673 0.09766 0.0
C70 C 0.10819 0.75789 0.06845 0.0
C71 C 0.12169 0.87257 0.07183 0.0
C72 C 0.1407 0.79949 0.11367 0.0
C73 C 0.10582 0.82076 0.05599 0.0
C74 C 0.14197 0.08089 0.18851 0.0
C75 C 0.16235 0.91123 0.11427 0.0
H76 H 0.13017 0.54771 0.2069 0.0
H77 H 0.14269 0.34184 0.21041 0.0
H78 H 0.13769 0.446 0.23778 0.0
H79 H 0.12858 0.43845 0.11973 0.0
H80 H 0.09654 0.71827 0.05521 0.0
H81 H 0.12082 0.92067 0.06128 0.0
H82 H 0.1539 0.7927 0.13633 0.0
H83 H 0.09226 0.82906 0.03368 0.0
Eu84 Eu 0.89616 0.82706 0.14373 0.0
C85 C 0.78594 1.01623 0.07916 0.0
N86 N 0.8201 1.00921 0.07116 0.0
C87 C 0.80763 0.03774 0.01702 0.0
C88 C 0.76091 0.03195 0.05574 0.0
C89 C 0.83113 1.01761 0.04049 0.0
C90 C 0.77228 0.04408 0.02451 0.0
C91 C 0.74015 1.00782 0.11906 0.0
C92 C 0.77581 1.00647 0.11077 0.0
C93 C 0.71513 0.02267 0.09566 0.0
C94 C 0.72552 0.0356 0.06421 0.0
Eu95 Eu 0.85881 0.99404 0.11383 0.0
N96 N 0.80061 0.99228 0.13301 0.0
C97 C 0.73064 0.99295 0.1505 0.0
C98 C 0.79141 0.97878 0.16383 0.0
C99 C 0.75636 0.97834 0.17294 0.0
H100 H 0.85847 1.01294 0.03463 0.0
H101 H 0.74917 0.96627 0.19723 0.0
H102 H 0.91113 0.81019 0.22188 0.0
H103 H 0.98477 0.77618 0.04317 0.0
H104 H 0.81068 0.96598 0.18134 0.0
H105 H 0.70354 0.99173 0.15763 0.0
H106 H 0.92825 0.78569 0.06908 0.0
H107 H 0.81684 0.049 0.99325 0.0
H108 H 0.68764 0.02414 0.10162 0.0
H109 H 0.70592 0.04747 0.04649 0.0
H110 H 0.96008 0.78502 0.25773 0.0
H111 H 0.75402 0.05828 0.00603 0.0
H112 H 0.0383 0.77549 0.0756 0.0
N113 N 0.94214 0.80847 0.17977 0.0
C114 C 0.97429 0.79937 0.16706 0.0
C115 C 0.9647 0.79071 0.2324 0.0
C116 C 1.00337 0.78782 0.18691 0.0
C117 C 0.93698 0.80493 0.21195 0.0
C118 C 0.99815 0.78285 0.21989 0.0
N119 N 0.9489 0.80525 0.1155 0.0
C120 C 0.95104 0.79273 0.08348 0.0
C121 C 0.01102 0.78875 0.12029 0.0
C122 C 0.97791 0.79922 0.13406 0.0
C123 C 0.01352 0.78368 0.0871 0.0
C124 C 0.98333 0.78433 0.06868 0.0
H125 H 0.01963 0.77168 0.23578 0.0
H126 H 0.05918 0.77148 0.18812 0.0
H127 H 0.06582 0.77342 0.1299 0.0
O128 O 0.89192 0.72515 0.12939 0.0
O129 O 0.934 0.91138 0.15074 0.0
O130 O 0.91799 0.97698 0.10894 0.0
O131 O 0.87393 0.75496 0.17598 0.0
O132 O 0.87882 0.83583 0.09048 0.0
O133 O 0.89385 0.94082 0.08059 0.0
O134 O 0.85739 0.09188 0.13481 0.0
O135 O 0.82317 0.90407 0.10537 0.0
O136 O 0.84024 0.85685 0.15089 0.0
O137 O 0.87345 0.07786 0.08564 0.0
O138 O 0.87093 0.99552 0.16656 0.0
O139 O 0.88469 0.89301 0.18662 0.0
C140 C 0.94109 0.95804 0.13036 0.0
C141 C 0.89403 0.6467 0.17065 0.0
C142 C 0.90027 0.52945 0.1671 0.0
C143 C 0.91629 0.52875 0.19724 0.0
C144 C 0.90917 0.64508 0.20121 0.0
C145 C 0.92085 0.5865 0.21411 0.0
C146 C 0.88995 0.58881 0.15365 0.0
C147 C 0.88627 0.88302 0.07009 0.0
C148 C 0.87957 0.7065 0.15685 0.0
C149 C 0.03646 0.77974 0.17325 0.0
C150 C 0.04028 0.78085 0.14005 0.0
C151 C 0.81878 0.8578 0.12676 0.0
C152 C 0.852 0.18123 0.09877 0.0
C153 C 0.85466 0.29859 0.10276 0.0
C154 C 0.83376 0.30409 0.07535 0.0
C155 C 0.83043 0.18693 0.0718 0.0
C156 C 0.86353 0.23706 0.11443 0.0
C157 C 0.8214 0.24826 0.06015 0.0
C158 C 0.87835 0.95586 0.19023 0.0
C159 C 0.86746 0.11931 0.10826 0.0
H160 H 0.92485 0.48346 0.20784 0.0
H161 H 0.91124 0.68829 0.21555 0.0
H162 H 0.93273 0.58567 0.23756 0.0
H163 H 0.87711 0.58981 0.13058 0.0
H164 H 0.82676 0.35142 0.06597 0.0
H165 H 0.82143 0.14446 0.05919 0.0
H166 H 0.88079 0.23268 0.13489 0.0
H167 H 0.80528 0.25249 0.03902 0.0
Eu168 Eu 0.11794 0.83489 0.35809 0.0
C169 C 0.23544 1.00259 0.41866 0.0
N170 N 0.2021 0.9989 0.42957 0.0
C171 C 0.22163 1.01665 0.48304 0.0
C172 C 0.26353 1.00863 0.44019 0.0
C173 C 0.19492 1.00339 0.4614 0.0
C174 C 0.25621 1.01709 0.47265 0.0
C175 C 0.27611 0.99865 0.37431 0.0
C176 C 0.24156 0.99999 0.38586 0.0
C177 C 0.3041 1.00114 0.39591 0.0
C178 C 0.29785 1.00748 0.42867 0.0
Eu179 Eu 0.15832 0.99727 0.39041 0.0
N180 N 0.21391 0.9981 0.36534 0.0
C181 C 0.28153 0.99521 0.34136 0.0
C182 C 0.21942 1.00019 0.33315 0.0
C183 C 0.25312 0.99718 0.32069 0.0
H184 H 0.16828 1.0009 0.46984 0.0
H185 H 0.25718 0.99731 0.2951 0.0
H186 H 0.09297 0.86854 0.28321 0.0
H187 H 0.03824 0.74743 0.4588 0.0
H188 H 0.19847 1.00576 0.31666 0.0
H189 H 0.30748 0.99256 0.33154 0.0
H190 H 0.09227 0.76377 0.42875 0.0
H191 H 0.21552 0.02686 0.50768 0.0
H192 H 0.33072 0.99919 0.38756 0.0
H193 H 0.31978 1.01124 0.44491 0.0
H194 H 0.0385 0.89278 0.25405 0.0
H195 H 0.27698 0.0248 0.4898 0.0
H196 H 0.98137 0.7742 0.43422 0.0
N197 N 0.06703 0.84589 0.32673 0.0
C198 C 0.036 0.83617 0.34175 0.0
C199 C 0.03745 0.87677 0.27867 0.0
C200 C 1.00427 0.84829 0.32582 0.0
C201 C 0.06822 0.8632 0.29524 0.0
C202 C 1.00537 0.87036 0.29419 0.0
N203 N 0.06737 0.80881 0.38877 0.0
C204 C 0.06813 0.77987 0.4182 0.0
C205 C 1.00435 0.80674 0.38975 0.0
C206 C 0.0362 0.81768 0.37369 0.0
C207 C 1.00526 0.78332 0.4211 0.0
C208 C 0.03728 0.76855 0.43512 0.0
H209 H 0.98162 0.88276 0.28159 0.0
H210 H 0.94795 0.84868 0.33026 0.0
H211 H 0.94802 0.81072 0.38601 0.0
O212 O 0.12698 0.73059 0.36826 0.0
O213 O 0.0843 0.92554 0.35336 0.0
O214 O 0.09955 0.98435 0.39727 0.0
O215 O 0.11933 0.76535 0.31942 0.0
O216 O 0.13498 0.8371 0.41132 0.0
O217 O 0.12384 0.94299 0.42425 0.0
O218 O 0.16011 0.10228 0.37612 0.0
O219 O 0.19163 0.90314 0.39718 0.0
O220 O 0.17578 0.85316 0.35134 0.0
O221 O 0.14919 0.07157 0.42499 0.0
O222 O 0.13825 1.00362 0.33937 0.0
O223 O 0.14382 0.89911 0.31997 0.0
C224 C 0.0767 0.96812 0.37536 0.0
C225 C 0.12953 0.65054 0.32497 0.0
C226 C 0.13487 0.53311 0.33143 0.0
C227 C 0.14095 0.52767 0.29851 0.0
C228 C 0.13563 0.64358 0.29213 0.0
C229 C 0.14166 0.58258 0.27918 0.0
C230 C 0.1292 0.59514 0.34471 0.0
C231 C 0.12786 0.8824 0.4327 0.0
C232 C 0.12513 0.71616 0.33806 0.0
C233 C 0.97261 0.83956 0.34211 0.0
C234 C 0.97265 0.81833 0.3739 0.0
C235 C 0.19734 0.85783 0.37544 0.0
C236 C 0.14961 0.18628 0.41764 0.0
C237 C 0.14029 0.30225 0.4096 0.0
C238 C 0.13769 0.31052 0.44281 0.0
C239 C 0.14702 0.19593 0.45085 0.0
C240 C 0.14644 0.23976 0.39702 0.0
C241 C 0.14115 0.25763 0.46324 0.0
C242 C 0.1386 0.96208 0.31548 0.0
C243 C 0.15301 0.11953 0.40542 0.0
H244 H 0.14547 0.48072 0.28782 0.0
H245 H 0.13652 0.68549 0.27645 0.0
H246 H 0.14762 0.5782 0.25418 0.0
H247 H 0.12533 0.60041 0.37022 0.0
H248 H 0.13362 0.35821 0.45308 0.0
H249 H 0.14926 0.15564 0.46741 0.0
H250 H 0.14785 0.23262 0.3714 0.0
H251 H 0.13934 0.26454 0.48878 0.0
Eu252 Eu 0.89177 0.20695 0.3618 0.0
C253 C 0.77933 0.02479 0.4205 0.0
N254 N 0.81279 0.03011 0.43102 0.0
C255 C 0.79436 1.01145 0.48477 0.0
C256 C 0.75169 1.01702 0.44238 0.0
C257 C 0.82057 0.02557 0.46273 0.0
C258 C 0.75965 1.00906 0.47478 0.0
C259 C 0.73778 0.03019 0.37678 0.0
C260 C 0.77257 0.02932 0.3878 0.0
C261 C 0.71023 0.02441 0.3987 0.0
C262 C 0.71716 1.01688 0.43131 0.0
Eu263 Eu 0.85589 0.0371 0.39136 0.0
N264 N 0.79981 0.03572 0.36703 0.0
C265 C 0.73164 0.03769 0.34406 0.0
C266 C 0.79379 0.03982 0.33495 0.0
C267 C 0.75975 0.04165 0.32305 0.0
H268 H 0.8473 0.02941 0.47081 0.0
H269 H 0.75524 0.0462 0.29763 0.0
H270 H 0.91079 0.21444 0.28436 0.0
H271 H 0.97514 0.27317 0.46433 0.0
H272 H 0.81474 0.04195 0.31818 0.0
H273 H 0.70534 0.04037 0.33473 0.0
H274 H 0.91981 0.26171 0.43592 0.0
H275 H 0.80096 1.00237 0.50945 0.0
H276 H 0.68341 0.0254 0.3907 0.0
H277 H 0.69558 1.01163 0.44783 0.0
H278 H 0.96317 0.21716 0.25014 0.0
H279 H 0.73925 1.00068 0.49222 0.0
H280 H 0.03084 0.2641 0.43492 0.0
N281 N 0.93965 0.22082 0.3276 0.0
C282 C 0.97134 0.22922 0.34155 0.0
C283 C 0.96583 0.22064 0.27581 0.0
C284 C 1.00188 0.23173 0.32296 0.0
C285 C 0.93626 0.21873 0.29522 0.0
C286 C 0.9988 0.2259 0.28983 0.0
N287 N 0.94301 0.23331 0.39171 0.0
C288 C 0.94348 0.25164 0.42311 0.0
C289 C 1.00568 0.24526 0.38955 0.0
C290 C 0.97314 0.23486 0.37453 0.0
C291 C 1.0064 0.25612 0.4225 0.0
C292 C 0.97506 0.26085 0.4392 0.0
H293 H 0.02177 0.22525 0.27502 0.0
H294 H 0.05818 0.24167 0.32395 0.0
H295 H 0.0615 0.25419 0.3823 0.0
O296 O 0.8889 0.31147 0.37242 0.0
O297 O 0.92983 0.12347 0.35465 0.0
O298 O 0.91449 0.05658 0.3963 0.0
O299 O 0.86648 0.27363 0.32908 0.0
O300 O 0.87484 0.19753 0.4148 0.0
O301 O 0.8901 0.09227 0.42505 0.0
O302 O 0.85576 0.93346 0.37544 0.0
O303 O 0.82073 0.12689 0.4004 0.0
O304 O 0.83683 0.17226 0.35446 0.0
O305 O 0.86689 0.96098 0.42476 0.0
O306 O 0.8745 0.03403 0.33986 0.0
O307 O 0.87723 0.14001 0.31993 0.0
C308 C 0.93706 0.07632 0.37467 0.0
C309 C 0.88393 0.38393 0.32806 0.0
C310 C 0.8894 0.50187 0.32768 0.0
C311 C 0.89058 0.50115 0.29422 0.0
C312 C 0.88614 0.38383 0.29453 0.0
C313 C 0.8895 0.44221 0.2778 0.0
C314 C 0.88654 0.44301 0.34452 0.0
C315 C 0.88353 0.15102 0.43509 0.0
C316 C 0.87334 0.32521 0.34568 0.0
C317 C 0.0344 0.23973 0.33791 0.0
C318 C 0.0363 0.2466 0.37114 0.0
C319 C 0.81547 0.17144 0.37849 0.0
C320 C 0.86773 0.84683 0.41508 0.0
C321 C 0.87874 0.73232 0.40451 0.0
C322 C 0.88079 0.72103 0.43761 0.0
C323 C 0.87002 0.83422 0.44805 0.0
C324 C 0.8718 0.79558 0.39327 0.0
C325 C 0.87647 0.77171 0.45915 0.0
C326 C 0.87784 0.076 0.31623 0.0
C327 C 0.8634 0.91438 0.40436 0.0
H328 H 0.89221 0.54616 0.28088 0.0
H329 H 0.88398 0.33904 0.2811 0.0
H330 H 0.89026 0.44179 0.25201 0.0
H331 H 0.88395 0.44367 0.37032 0.0
H332 H 0.88539 0.67266 0.44693 0.0
H333 H 0.86709 0.87281 0.46543 0.0
H334 H 0.87075 0.8052 0.36782 0.0
H335 H 0.87818 0.76252 0.48455 0.0
Eu336 Eu 0.8552 0.99265 0.88936 0.0
C337 C 0.97382 0.79614 0.83459 0.0
N338 N 0.94109 0.802 0.82255 0.0
C339 C 0.96195 0.77845 0.76998 0.0
C340 C 1.0023 0.7828 0.81434 0.0
C341 C 0.93473 0.79372 0.7908 0.0
C342 C 0.99593 0.77337 0.78175 0.0
C343 C 0.01235 0.79267 0.88054 0.0
C344 C 0.97863 0.8005 0.8674 0.0
C345 C 0.04102 0.78283 0.86027 0.0
C346 C 0.03597 0.7774 0.82727 0.0
Eu347 Eu 0.89623 0.82397 0.85906 0.0
N348 N 0.95017 0.80776 0.88653 0.0
C349 C 0.01609 0.79183 0.91375 0.0
C350 C 0.95353 0.79886 0.91876 0.0
C351 C 0.98642 0.79344 0.93291 0.0
H352 H 0.90847 0.7978 0.78159 0.0
H353 H 0.98874 0.78822 0.95856 0.0
H354 H 0.833 0.94358 0.96363 0.0
H355 H 0.77206 0.10855 0.79952 0.0
H356 H 0.9313 0.79215 0.93385 0.0
H357 H 0.04151 0.7861 0.92473 0.0
H358 H 0.82746 0.08358 0.82679 0.0
H359 H 0.95669 0.77051 0.74489 0.0
H360 H 0.06704 0.77701 0.86999 0.0
H361 H 0.0582 0.76773 0.81203 0.0
H362 H 0.77982 0.90955 0.99253 0.0
H363 H 0.01698 0.76118 0.7656 0.0
H364 H 0.71623 0.07029 0.82252 0.0
N365 N 0.80586 0.97063 0.92161 0.0
C366 C 0.77426 0.98226 0.90788 0.0
C367 C 0.7779 0.92955 0.96867 0.0
C368 C 0.74312 0.96612 0.92396 0.0
C369 C 0.80804 0.94784 0.95216 0.0
C370 C 0.74529 0.93855 0.95449 0.0
N371 N 0.80372 0.02452 0.86247 0.0
C372 C 0.80344 0.0639 0.83622 0.0
C373 C 0.74089 0.02426 0.86322 0.0
C374 C 0.77325 1.00931 0.87741 0.0
C375 C 0.74059 0.05799 0.83419 0.0
C376 C 0.77201 0.07946 0.82108 0.0
H377 H 0.72196 0.92506 0.96751 0.0
H378 H 0.68668 0.96574 0.92099 0.0
H379 H 0.68504 0.01838 0.86822 0.0
O380 O 0.86497 0.09619 0.88042 0.0
O381 O 0.82384 0.89751 0.8938 0.0
O382 O 0.84068 0.85209 0.84773 0.0
O383 O 0.85393 0.0617 0.92891 0.0
O384 O 0.86485 0.99036 0.83587 0.0
O385 O 0.88668 0.89177 0.81622 0.0
O386 O 0.89707 0.7213 0.87355 0.0
O387 O 0.93203 0.91034 0.85086 0.0
O388 O 0.91488 0.98209 0.89038 0.0
O389 O 0.8706 0.74995 0.83026 0.0
O390 O 0.87855 0.83389 0.91187 0.0
O391 O 0.89269 0.93974 0.92085 0.0
C392 C 0.81776 0.85686 0.87046 0.0
C393 C 0.86487 0.17765 0.92274 0.0
C394 C 0.87678 0.29328 0.91419 0.0
C395 C 0.87418 0.30315 0.94736 0.0
C396 C 0.86249 0.18896 0.95571 0.0
C397 C 0.86715 0.25135 0.96787 0.0
C398 C 0.872 0.23002 0.902 0.0
C399 C 0.87551 0.9524 0.81247 0.0
C400 C 0.8614 0.11084 0.91049 0.0
C401 C 0.71093 0.97797 0.90911 0.0
C402 C 0.7099 1.00739 0.87895 0.0
C403 C 0.9376 0.96142 0.86896 0.0
C404 C 0.89137 0.64102 0.83268 0.0
C405 C 0.89658 0.52275 0.83589 0.0
C406 C 0.90007 0.52016 0.80254 0.0
C407 C 0.89513 0.63727 0.79934 0.0
C408 C 0.89334 0.58374 0.85088 0.0
C409 C 0.89993 0.57723 0.78449 0.0
C410 C 0.8861 0.88169 0.93177 0.0
C411 C 0.88019 0.7018 0.84835 0.0
H412 H 0.87705 0.35124 0.95752 0.0
H413 H 0.85731 0.14949 0.9722 0.0
H414 H 0.86527 0.25961 0.99334 0.0
H415 H 0.87443 0.2214 0.87656 0.0
H416 H 0.90266 0.47393 0.79041 0.0
H417 H 0.89319 0.68022 0.78454 0.0
H418 H 0.88957 0.5862 0.87653 0.0
H419 H 0.90245 0.57475 0.75878 0.0
Eu420 Eu 0.16041 0.04116 0.88611 0.0
C421 C 0.04123 0.241 0.83211 0.0
N422 N 0.07384 0.23406 0.81996 0.0
C423 C 0.05294 0.258 0.7674 0.0
C424 C 0.01278 0.25518 0.81192 0.0
C425 C 0.08013 0.24206 0.78817 0.0
C426 C 0.01907 0.26424 0.77929 0.0
C427 C 1.00288 0.24525 0.87816 0.0
C428 C 0.03649 0.23658 0.86496 0.0
C429 C 0.97424 0.25615 0.85795 0.0
C430 C 0.97922 0.26157 0.82494 0.0
Eu431 Eu 0.11863 0.21098 0.85637 0.0
N432 N 0.06491 0.22795 0.88405 0.0
C433 C 0.99919 0.24556 0.91136 0.0
C434 C 0.06165 0.23579 0.91635 0.0
C435 C 0.02884 0.24221 0.93052 0.0
H436 H 0.10631 0.23723 0.77889 0.0
H437 H 0.02659 0.2467 0.9562 0.0
H438 H 0.18316 0.08848 0.96071 0.0
H439 H 0.2429 0.92216 0.79707 0.0
H440 H 0.08394 0.24066 0.93157 0.0
H441 H 0.97384 0.25192 0.92239 0.0
H442 H 0.18761 0.94831 0.82429 0.0
H443 H 0.05812 0.26551 0.74226 0.0
H444 H 0.94829 0.26261 0.86772 0.0
H445 H 0.95702 0.27189 0.80974 0.0
H446 H 0.23638 0.12474 0.98886 0.0
H447 H 0.99804 0.27689 0.76316 0.0
H448 H 0.29887 0.96132 0.81945 0.0
N449 N 0.20985 0.0631 0.91827 0.0
C450 C 0.24135 0.05177 0.90433 0.0
C451 C 0.23814 0.1046 0.96504 0.0
C452 C 0.2726 0.0684 0.92013 0.0
C453 C 0.20794 0.08527 0.94892 0.0
C454 C 0.27063 0.09632 0.95056 0.0
N455 N 0.21164 1.00823 0.85936 0.0
C456 C 0.21174 0.96803 0.83348 0.0
C457 C 0.27445 1.00882 0.85979 0.0
C458 C 0.24218 0.02405 0.87402 0.0
C459 C 0.27457 0.974 0.8311 0.0
C460 C 0.24308 0.95197 0.81836 0.0
H461 H 0.29403 0.11038 0.96333 0.0
H462 H 0.329 0.06919 0.9168 0.0
H463 H 0.3303 1.01555 0.86429 0.0
O464 O 0.15151 0.93723 0.87806 0.0
O465 O 0.19134 0.13673 0.89107 0.0
O466 O 0.17429 0.18307 0.84514 0.0
O467 O 0.16034 0.97393 0.92655 0.0
O468 O 0.1513 0.04481 0.83262 0.0
O469 O 0.12767 0.14281 0.81366 0.0
O470 O 0.11831 0.31319 0.87155 0.0
O471 O 0.08183 0.12566 0.84885 0.0
O472 O 0.10057 0.04816 0.88551 0.0
O473 O 0.14386 0.28564 0.82765 0.0
O474 O 0.1363 0.19979 0.90889 0.0
O475 O 0.12145 0.09419 0.91559 0.0
C476 C 0.19727 0.17802 0.86789 0.0
C477 C 0.14971 0.85768 0.92123 0.0
C478 C 0.13741 0.74203 0.91334 0.0
C479 C 0.1382 0.73339 0.94668 0.0
C480 C 0.1503 0.84764 0.95438 0.0
C481 C 0.14454 0.78585 0.96695 0.0
C482 C 0.14327 0.8047 0.90076 0.0
C483 C 0.13964 0.0828 0.80956 0.0
C484 C 0.15358 0.92402 0.90843 0.0
C485 C 0.30468 0.05655 0.90514 0.0
C486 C 0.30553 0.02644 0.87517 0.0
C487 C 0.07684 0.07292 0.86604 0.0
C488 C 0.1231 0.39449 0.83094 0.0
C489 C 0.11817 0.51269 0.83489 0.0
C490 C 0.11507 0.51637 0.80152 0.0
C491 C 0.11963 0.39934 0.7976 0.0
C492 C 0.12079 0.45117 0.84953 0.0
C493 C 0.11512 0.45988 0.78312 0.0
C494 C 0.12864 0.15057 0.92782 0.0
C495 C 0.13463 0.33333 0.84615 0.0
H496 H 0.1344 0.68581 0.9572 0.0
H497 H 0.1548 0.88769 0.97066 0.0
H498 H 0.14499 0.77854 0.99255 0.0
H499 H 0.14206 0.81248 0.87517 0.0
H500 H 0.11288 0.56303 0.78967 0.0
H501 H 0.12165 0.35685 0.78253 0.0
H502 H 0.12408 0.44786 0.87522 0.0
H503 H 0.11286 0.46321 0.7574 0.0
Eu504 Eu 0.85341 0.04769 0.61645 0.0
C505 C 0.98218 0.19524 0.66257 0.0
N506 N 0.95087 0.19071 0.67773 0.0
C507 C 0.9793 0.16219 0.72668 0.0
C508 C 0.01344 0.18213 0.67906 0.0
C509 C 0.94901 0.17655 0.70954 0.0
C510 C 0.01163 0.16443 0.71132 0.0
C511 C 0.01483 0.21519 0.61391 0.0
C512 C 0.98269 0.20983 0.63005 0.0
C513 C 0.04603 0.2022 0.63029 0.0
C514 C 0.04535 0.1855 0.66272 0.0
Eu515 Eu 0.90105 0.20768 0.64586 0.0
N516 N 0.952 0.2201 0.61438 0.0
C517 C 0.01471 0.23474 0.5819 0.0
C518 C 0.95223 0.24604 0.58431 0.0
C519 C 0.98336 0.25168 0.56727 0.0
H520 H 0.92414 0.17562 0.72162 0.0
H521 H 0.98322 0.27036 0.54309 0.0
H522 H 0.83322 0.09642 0.54201 0.0
H523 H 0.76825 0.98552 0.71664 0.0
H524 H 0.92876 0.26444 0.57341 0.0
H525 H 0.03868 0.23947 0.56862 0.0
H526 H 0.82382 0.99162 0.68744 0.0
H527 H 0.97771 0.14942 0.75173 0.0
H528 H 0.07085 0.20513 0.61813 0.0
H529 H 0.06966 0.17539 0.67496 0.0
H530 H 0.78153 0.137 0.51293 0.0
H531 H 0.03502 0.1524 0.72457 0.0
H532 H 0.71371 0.02179 0.69054 0.0
N533 N 0.80529 0.07692 0.58465 0.0
C534 C 0.77356 0.0726 0.59906 0.0
C535 C 0.77892 0.11882 0.53708 0.0
C536 C 0.7431 0.09156 0.58267 0.0
C537 C 0.80828 0.09719 0.55377 0.0
C538 C 0.74613 0.11528 0.55143 0.0
N539 N 0.80202 0.03912 0.64698 0.0
C540 C 0.80074 1.01165 0.67662 0.0
C541 C 0.73948 0.04899 0.64645 0.0
C542 C 0.77199 0.05352 0.63104 0.0
C543 C 0.73829 0.02609 0.67793 0.0
C544 C 0.76902 1.00615 0.69286 0.0
H545 H 0.72336 0.13124 0.53826 0.0
H546 H 0.68707 0.1025 0.58617 0.0
H547 H 0.68433 0.06396 0.64153 0.0
O548 O 0.85224 0.94447 0.62939 0.0
O549 O 0.82633 0.14844 0.61427 0.0
O550 O 0.84392 0.20168 0.65896 0.0
O551 O 0.84387 0.97326 0.58041 0.0
O552 O 0.87589 0.04421 0.66655 0.0
O553 O 0.8734 0.14993 0.68574 0.0
O554 O 0.89285 0.30948 0.63126 0.0
O555 O 0.93056 0.11214 0.64939 0.0
O556 O 0.91239 0.04831 0.60773 0.0
O557 O 0.91325 0.28739 0.67811 0.0
O558 O 0.88243 0.20091 0.59312 0.0
O559 O 0.88878 0.0928 0.58029 0.0
C560 C 0.81999 0.18993 0.63747 0.0
C561 C 0.86909 0.86897 0.58945 0.0
C562 C 0.88595 0.75455 0.59578 0.0
C563 C 0.90436 0.75876 0.56678 0.0
C564 C 0.88865 0.87216 0.56114 0.0
C565 C 0.90599 0.81725 0.5499 0.0
C566 C 0.86819 0.81031 0.60686 0.0
C567 C 0.87525 0.08611 0.69023 0.0
C568 C 0.84785 0.92484 0.60013 0.0
C569 C 0.71085 0.08824 0.59828 0.0
C570 C 0.70916 0.06664 0.62992 0.0
C571 C 0.93699 0.06937 0.62708 0.0
C572 C 0.88966 0.39335 0.6709 0.0
C573 C 0.88268 0.51154 0.6672 0.0
C574 C 0.86754 0.51116 0.69777 0.0
C575 C 0.87349 0.39419 0.70095 0.0
C576 C 0.8944 0.45223 0.65413 0.0
C577 C 0.86281 0.45292 0.71436 0.0
C578 C 0.88849 0.15422 0.57208 0.0
C579 C 0.90475 0.3329 0.65802 0.0
H580 H 0.91758 0.7168 0.55699 0.0
H581 H 0.8901 0.91669 0.54737 0.0
H582 H 0.92064 0.81989 0.52783 0.0
H583 H 0.85372 0.80845 0.62907 0.0
H584 H 0.85874 0.55597 0.70866 0.0
H585 H 0.86974 0.34966 0.71436 0.0
H586 H 0.90637 0.45157 0.63067 0.0
H587 H 0.85076 0.45337 0.73774 0.0
Eu588 Eu 0.16064 0.98747 0.6136 0.0
C589 C 0.03331 0.83655 0.66218 0.0
N590 N 0.06495 0.84269 0.67663 0.0
C591 C 0.03751 0.87034 0.72611 0.0
C592 C 1.00235 0.84818 0.67935 0.0
C593 C 0.06749 0.85722 0.70834 0.0
C594 C 1.00482 0.86641 0.71148 0.0
C595 C 0.99958 0.81423 0.61437 0.0
C596 C 0.03208 0.82165 0.6297 0.0
C597 C 0.96871 0.82561 0.63148 0.0
C598 C 0.97006 0.84277 0.6638 0.0
Eu599 Eu 0.11395 0.82713 0.64371 0.0
N600 N 0.06245 0.81298 0.61331 0.0
C601 C 0.99906 0.79425 0.58245 0.0
C602 C 0.06176 0.78701 0.58328 0.0
C603 C 0.03024 0.77923 0.56707 0.0
H604 H 0.09265 0.85922 0.71989 0.0
H605 H 0.02997 0.76029 0.54295 0.0
H606 H 0.18242 0.93523 0.54025 0.0
H607 H 0.24359 0.05014 0.71541 0.0
H608 H 0.08518 0.76991 0.57185 0.0
H609 H 0.97477 0.78774 0.56982 0.0
H610 H 0.18891 0.04583 0.68474 0.0
H611 H 0.03962 0.88344 0.75107 0.0
H612 H 0.94362 0.82118 0.61995 0.0
H613 H 0.94595 0.8516 0.67659 0.0
H614 H 0.23476 0.89325 0.51266 0.0
H615 H 0.98165 0.87762 0.72519 0.0
H616 H 0.29842 1.0107 0.69109 0.0
N617 N 0.20951 0.95693 0.58311 0.0
C618 C 0.2409 0.96109 0.59821 0.0
C619 C 0.23686 0.91258 0.53662 0.0
C620 C 0.27164 0.94065 0.58277 0.0
C621 C 0.20717 0.93529 0.55242 0.0
C622 C 0.2693 0.9161 0.55166 0.0
N623 N 0.21136 0.99639 0.64519 0.0
C624 C 0.21207 0.02461 0.67465 0.0
C625 C 0.27375 0.98399 0.64643 0.0
C626 C 0.2417 0.98073 0.63011 0.0
C627 C 0.27422 1.00733 0.67781 0.0
C628 C 0.24331 0.02907 0.69173 0.0
H629 H 0.29229 0.89903 0.53919 0.0
H630 H 0.32736 0.92693 0.58796 0.0
H631 H 0.32872 0.96528 0.64343 0.0
O632 O 0.16293 0.09086 0.62586 0.0
O633 O 0.18726 0.88635 0.61177 0.0
O634 O 0.17079 0.83481 0.65719 0.0
O635 O 0.16976 0.06098 0.5769 0.0
O636 O 0.13741 0.99172 0.66332 0.0
O637 O 0.14167 0.88659 0.68292 0.0
O638 O 0.12325 0.72561 0.62914 0.0
O639 O 0.08334 0.92123 0.64672 0.0
O640 O 0.10148 0.98711 0.60561 0.0
O641 O 0.10221 0.74696 0.67585 0.0
O642 O 0.13163 0.8339 0.59068 0.0
O643 O 0.12553 0.942 0.57722 0.0
C644 C 0.19443 0.84654 0.6355 0.0
C645 C 0.1451 0.16573 0.58602 0.0
C646 C 0.128 0.27998 0.59256 0.0
C647 C 0.10845 0.27521 0.56421 0.0
C648 C 0.12449 0.16205 0.55836 0.0
C649 C 0.10646 0.21657 0.54755 0.0
C650 C 0.14645 0.2246 0.60322 0.0
C651 C 0.13863 0.95028 0.6872 0.0
C652 C 0.16658 0.10988 0.59642 0.0
C653 C 0.30341 0.94269 0.59928 0.0
C654 C 0.30433 0.96437 0.63093 0.0
C655 C 0.07701 0.96527 0.62493 0.0
C656 C 0.12513 0.64053 0.66851 0.0
C657 C 0.13207 0.52255 0.66381 0.0
C658 C 0.14644 0.52136 0.6947 0.0
C659 C 0.14019 0.63812 0.69905 0.0
C660 C 0.12068 0.58242 0.65108 0.0
C661 C 0.15042 0.57871 0.71213 0.0
C662 C 0.1254 0.88031 0.56945 0.0
C663 C 0.11095 0.70182 0.65571 0.0
H664 H 0.09463 0.31684 0.55473 0.0
H665 H 0.12265 0.11737 0.5448 0.0
H666 H 0.09094 0.21351 0.52599 0.0
H667 H 0.16177 0.2269 0.62495 0.0
H668 H 0.15503 0.476 0.70524 0.0
H669 H 0.14356 0.68197 0.71302 0.0
H670 H 0.10933 0.58412 0.62736 0.0
H671 H 0.1617 0.57709 0.73582 0.0
Eu672 Eu 0.62202 0.70388 0.13959 0.0
C673 C 0.73746 0.52817 0.08165 0.0
N674 N 0.70318 0.53076 0.0731 0.0
C675 C 0.71785 0.50972 0.01864 0.0
C676 C 0.76347 0.51958 0.05825 0.0
C677 C 0.69304 0.52268 0.04211 0.0
C678 C 0.75326 0.51009 0.0265 0.0
C679 C 0.78195 0.52799 0.12311 0.0
C680 C 0.74656 0.53153 0.11404 0.0
C681 C 0.80781 0.52259 0.09959 0.0
C682 C 0.79866 0.51799 0.06735 0.0
Eu683 Eu 0.66359 0.53713 0.1156 0.0
N684 N 0.72096 0.53682 0.13658 0.0
C685 C 0.79038 0.52829 0.15562 0.0
C686 C 0.72909 0.53395 0.16831 0.0
C687 C 0.7638 0.53038 0.17828 0.0
H688 H 0.66567 0.52121 0.03602 0.0
H689 H 0.76999 0.52829 0.20349 0.0
H690 H 0.61167 0.73944 0.21687 0.0
H691 H 0.52936 0.73945 0.04054 0.0
H692 H 0.7093 0.5327 0.1863 0.0
H693 H 0.81724 0.52518 0.1635 0.0
H694 H 0.58697 0.73031 0.06472 0.0
H695 H 0.70961 0.49843 0.9946 0.0
H696 H 0.83498 0.52054 0.10614 0.0
H697 H 0.81903 0.51199 0.04965 0.0
H698 H 0.56433 0.77139 0.25355 0.0
H699 H 0.77244 0.50123 0.00801 0.0
H700 H 0.47723 0.74996 0.07483 0.0
N701 N 0.57843 0.7327 0.17637 0.0
C702 C 0.54567 0.73976 0.16453 0.0
C703 C 0.55864 0.76193 0.22866 0.0
C704 C 0.5177 0.75651 0.18481 0.0
C705 C 0.58538 0.74402 0.20782 0.0
C706 C 0.52458 0.76761 0.21718 0.0
N707 N 0.56837 0.72298 0.1125 0.0
C708 C 0.56478 0.72855 0.08015 0.0
C709 C 0.50673 0.74361 0.11884 0.0
C710 C 0.54038 0.73379 0.1318 0.0
C711 C 0.50261 0.74263 0.08567 0.0
C712 C 0.53191 0.73638 0.06625 0.0
H713 H 0.50392 0.78183 0.23335 0.0
H714 H 0.46222 0.77601 0.18734 0.0
H715 H 0.45257 0.76428 0.12961 0.0
O716 O 0.61919 0.80681 0.12631 0.0
O717 O 0.58593 0.61747 0.14682 0.0
O718 O 0.60437 0.54725 0.1074 0.0
O719 O 0.65387 0.77511 0.1641 0.0
O720 O 0.63989 0.68946 0.08721 0.0
O721 O 0.62909 0.58137 0.07838 0.0
O722 O 0.64789 0.44392 0.13707 0.0
O723 O 0.69678 0.62937 0.10742 0.0
O724 O 0.67771 0.67791 0.15159 0.0
O725 O 0.67627 0.44615 0.09266 0.0
O726 O 0.65264 0.54419 0.16866 0.0
O727 O 0.62714 0.64189 0.18451 0.0
C728 C 0.58041 0.56789 0.12773 0.0
C729 C 0.63382 0.88331 0.16659 0.0
C730 C 0.62798 1.00052 0.16636 0.0
C731 C 0.63041 1.00111 0.19973 0.0
C732 C 0.63584 0.88428 0.20013 0.0
C733 C 0.63383 0.94301 0.21656 0.0
C734 C 0.62927 0.94156 0.14985 0.0
C735 C 0.63339 0.64059 0.0676 0.0
C736 C 0.64126 0.82425 0.14837 0.0
C737 C 0.48404 0.76371 0.17207 0.0
C738 C 0.47854 0.75693 0.13919 0.0
C739 C 0.70069 0.67517 0.12876 0.0
C740 C 0.63827 0.35935 0.09952 0.0
C741 C 0.62419 0.2443 0.09928 0.0
C742 C 0.60886 0.25175 0.06894 0.0
C743 C 0.6221 0.36676 0.06964 0.0
C744 C 0.63818 0.29908 0.1146 0.0
C745 C 0.60735 0.31295 0.0545 0.0
C746 C 0.63918 0.58297 0.19034 0.0
C747 C 0.66004 0.41043 0.11317 0.0
H748 H 0.63025 0.04667 0.21252 0.0
H749 H 0.64035 0.84032 0.21366 0.0
H750 H 0.63618 0.94353 0.24226 0.0
H751 H 0.62885 0.94146 0.12393 0.0
H752 H 0.59825 0.21045 0.05621 0.0
H753 H 0.62199 0.41341 0.05759 0.0
H754 H 0.64991 0.29504 0.13809 0.0
H755 H 0.59542 0.31835 0.03121 0.0
Eu756 Eu 0.39375 0.33065 0.14017 0.0
C757 C 0.28089 0.50417 0.07843 0.0
N758 N 0.315 0.5029 0.06944 0.0
C759 C 0.29831 0.52051 0.01506 0.0
C760 C 0.25402 0.50761 0.05555 0.0
C761 C 0.32396 0.50927 0.03806 0.0
C762 C 0.26312 0.5173 0.02357 0.0
C763 C 0.23788 0.49888 0.12084 0.0
C764 C 0.27288 0.50261 0.11073 0.0
C765 C 0.21108 0.49763 0.09798 0.0
C766 C 0.21908 0.50337 0.06544 0.0
Eu767 Eu 0.35667 0.50039 0.11116 0.0
N768 N 0.29939 0.50524 0.13226 0.0
C769 C 0.23098 0.4979 0.15366 0.0
C770 C 0.29226 0.51455 0.16368 0.0
C771 C 0.25819 0.50851 0.17517 0.0
H772 H 0.35106 0.5095 0.03096 0.0
H773 H 0.25289 0.51322 0.20045 0.0
H774 H 0.40511 0.30465 0.21777 0.0
H775 H 0.48546 0.28696 0.04085 0.0
H776 H 0.31255 0.52914 0.17946 0.0
H777 H 0.20472 0.49194 0.16257 0.0
H778 H 0.42818 0.29584 0.06521 0.0
H779 H 0.3057 0.53164 0.99079 0.0
H780 H 0.18407 0.49462 0.1052 0.0
H781 H 0.19807 0.50492 0.04814 0.0
H782 H 0.451 0.26434 0.25381 0.0
H783 H 0.24328 0.52343 0.00539 0.0
H784 H 0.53764 0.2783 0.07494 0.0
N785 N 0.43775 0.30434 0.17679 0.0
C786 C 0.47009 0.29377 0.16477 0.0
C787 C 0.45702 0.27399 0.22901 0.0
C788 C 0.49775 0.27509 0.18498 0.0
C789 C 0.43101 0.29632 0.20849 0.0
C790 C 0.49063 0.26365 0.21726 0.0
N791 N 0.44708 0.30873 0.11275 0.0
C792 C 0.45039 0.30019 0.0805 0.0
C793 C 0.50859 0.28691 0.11901 0.0
C794 C 0.47516 0.29817 0.132 0.0
C795 C 0.5125 0.28664 0.08584 0.0
C796 C 0.48312 0.29185 0.06651 0.0
H797 H 0.51071 0.24559 0.23311 0.0
H798 H 0.55291 0.25264 0.18745 0.0
H799 H 0.56246 0.26492 0.12984 0.0
O800 O 0.39173 0.22755 0.12716 0.0
O801 O 0.43244 0.41301 0.14785 0.0
O802 O 0.41617 0.48628 0.10874 0.0
O803 O 0.36487 0.26137 0.16924 0.0
O804 O 0.37725 0.34114 0.08704 0.0
O805 O 0.39256 0.44653 0.07864 0.0
O806 O 0.35627 0.60452 0.12674 0.0
O807 O 0.32274 0.40861 0.10267 0.0
O808 O 0.33894 0.36514 0.14898 0.0
O809 O 0.36777 0.57585 0.07768 0.0
O810 O 0.36935 0.49984 0.16464 0.0
O811 O 0.38531 0.39681 0.18352 0.0
C812 C 0.43924 0.46264 0.12909 0.0
C813 C 0.38524 0.15279 0.16995 0.0
C814 C 0.39498 0.03614 0.16986 0.0
C815 C 0.40106 0.03757 0.2028 0.0
C816 C 0.39009 0.15314 0.20325 0.0
C817 C 0.39901 0.09616 0.21934 0.0
C818 C 0.38819 0.09407 0.15333 0.0
C819 C 0.385 0.38928 0.06733 0.0
C820 C 0.37404 0.21121 0.15245 0.0
C821 C 0.53122 0.26609 0.17221 0.0
C822 C 0.53669 0.27304 0.13937 0.0
C823 C 0.31713 0.36563 0.12523 0.0
C824 C 0.36779 0.68991 0.08621 0.0
C825 C 0.37978 0.80451 0.09528 0.0
C826 C 0.3806 0.81454 0.06206 0.0
C827 C 0.36888 0.70118 0.05306 0.0
C828 C 0.37307 0.74182 0.10735 0.0
C829 C 0.3755 0.76305 0.04119 0.0
C830 C 0.37779 0.45901 0.18787 0.0
C831 C 0.36388 0.6229 0.0977 0.0
H832 H 0.40722 0.9933 0.2156 0.0
H833 H 0.38635 0.19676 0.21709 0.0
H834 H 0.40367 0.09732 0.24479 0.0
H835 H 0.38325 0.09285 0.12781 0.0
H836 H 0.38508 0.86244 0.0521 0.0
H837 H 0.36512 0.66196 0.03614 0.0
H838 H 0.37312 0.73311 0.1329 0.0
H839 H 0.37708 0.77113 0.01574 0.0
Eu840 Eu 0.62202 0.33603 0.36342 0.0
C841 C 0.73929 0.51124 0.42553 0.0
N842 N 0.70501 0.50897 0.43411 0.0
C843 C 0.71951 0.53465 0.48811 0.0
C844 C 0.76523 0.52339 0.44863 0.0
C845 C 0.69481 0.51823 0.465 0.0
C846 C 0.7549 0.53574 0.48013 0.0
C847 C 0.78404 0.50131 0.38461 0.0
C848 C 0.74857 0.50135 0.39353 0.0
C849 C 0.80985 0.51321 0.40768 0.0
C850 C 0.80048 0.52431 0.43954 0.0
Eu851 Eu 0.66572 0.49906 0.39158 0.0
N852 N 0.72317 0.48899 0.37149 0.0
C853 C 0.79265 0.48832 0.3528 0.0
C854 C 0.73174 0.47392 0.34069 0.0
C855 C 0.76648 0.47383 0.33087 0.0
H856 H 0.6674 0.51779 0.47111 0.0
H857 H 0.77307 0.46195 0.30643 0.0
H858 H 0.60259 0.32201 0.28565 0.0
H859 H 0.53793 0.27534 0.46588 0.0
H860 H 0.71232 0.45931 0.32372 0.0
H861 H 0.81942 0.48812 0.34499 0.0
H862 H 0.59347 0.28303 0.4372 0.0
H863 H 0.71126 0.5469 0.51204 0.0
H864 H 0.8372 0.51366 0.40115 0.0
H865 H 0.82075 0.53353 0.457 0.0
H866 H 0.55017 0.33087 0.25183 0.0
H867 H 0.77401 0.54687 0.49841 0.0
H868 H 0.48235 0.29126 0.43686 0.0
N869 N 0.57396 0.32356 0.32918 0.0
C870 C 0.54215 0.32148 0.34333 0.0
C871 C 0.5475 0.32767 0.27751 0.0
C872 C 0.51147 0.32371 0.32489 0.0
C873 C 0.57713 0.32315 0.29674 0.0
C874 C 0.51456 0.32942 0.29174 0.0
N875 N 0.57055 0.31385 0.39331 0.0
C876 C 0.56988 0.29512 0.42463 0.0
C877 C 0.50767 0.30923 0.39147 0.0
C878 C 0.54035 0.31617 0.37631 0.0
C879 C 0.5069 0.29706 0.42433 0.0
C880 C 0.53819 0.28841 0.44082 0.0
H881 H 0.49167 0.33512 0.27704 0.0
H882 H 0.45494 0.32189 0.32621 0.0
H883 H 0.45161 0.3077 0.38451 0.0
O884 O 0.6212 0.23216 0.37505 0.0
O885 O 0.58848 0.42615 0.35733 0.0
O886 O 0.60628 0.49037 0.39926 0.0
O887 O 0.64663 0.26579 0.33198 0.0
O888 O 0.64 0.34573 0.41597 0.0
O889 O 0.63048 0.45315 0.42802 0.0
O890 O 0.65183 0.59196 0.36868 0.0
O891 O 0.69766 0.40511 0.39967 0.0
O892 O 0.67852 0.3589 0.3548 0.0
O893 O 0.67835 0.59098 0.41398 0.0
O894 O 0.65683 0.49829 0.33829 0.0
O895 O 0.62927 0.40395 0.32051 0.0
C896 C 0.58252 0.4726 0.37805 0.0
C897 C 0.62802 0.15573 0.333 0.0
C898 C 0.62352 0.03787 0.33453 0.0
C899 C 0.61862 0.03702 0.3014 0.0
C900 C 0.62257 0.15436 0.29984 0.0
C901 C 0.61769 0.09518 0.28424 0.0
C902 C 0.62786 0.09733 0.35034 0.0
C903 C 0.63291 0.39209 0.43677 0.0
C904 C 0.63814 0.21585 0.34939 0.0
C905 C 0.47883 0.32021 0.34004 0.0
C906 C 0.47694 0.31242 0.37324 0.0
C907 C 0.70024 0.35815 0.37866 0.0
C908 C 0.64145 0.67893 0.40483 0.0
C909 C 0.62585 0.79379 0.40284 0.0
C910 C 0.60975 0.78699 0.43295 0.0
C911 C 0.62395 0.67254 0.43411 0.0
C912 C 0.64153 0.73874 0.38895 0.0
C913 C 0.60825 0.72653 0.44807 0.0
C914 C 0.64253 0.46257 0.31581 0.0
C915 C 0.6634 0.62643 0.39253 0.0
H916 H 0.61501 0.99138 0.28902 0.0
H917 H 0.62275 0.19867 0.28586 0.0
H918 H 0.6134 0.09459 0.25878 0.0
H919 H 0.6324 0.09789 0.37592 0.0
H920 H 0.59827 0.82819 0.44503 0.0
H921 H 0.62347 0.62645 0.44666 0.0
H922 H 0.65409 0.74181 0.36583 0.0
H923 H 0.59543 0.72183 0.47099 0.0
Eu924 Eu 0.3976 0.7077 0.3571 0.0
C925 C 0.28782 0.51864 0.42403 0.0
N926 N 0.32188 0.52611 0.43229 0.0
C927 C 0.30884 0.4975 0.48632 0.0
C928 C 0.26253 0.50275 0.44718 0.0
C929 C 0.33262 0.51748 0.46301 0.0
C930 C 0.27355 0.49106 0.47854 0.0
C931 C 0.24261 0.5254 0.38354 0.0
C932 C 0.27809 0.52802 0.3924 0.0
C933 C 0.21728 0.5105 0.40663 0.0
C934 C 0.22725 0.4985 0.43829 0.0
Eu935 Eu 0.3611 0.54404 0.39017 0.0
N936 N 0.30315 0.54292 0.37062 0.0
C937 C 0.23362 0.53911 0.35184 0.0
C938 C 0.29439 0.55621 0.33983 0.0
C939 C 0.25964 0.55459 0.32988 0.0
H940 H 0.35986 0.52303 0.46921 0.0
H941 H 0.25294 0.5662 0.30541 0.0
H942 H 0.42062 0.68009 0.28107 0.0
H943 H 0.47933 0.78986 0.45741 0.0
H944 H 0.31386 0.57103 0.32338 0.0
H945 H 0.20672 0.53909 0.3442 0.0
H946 H 0.42464 0.77528 0.42823 0.0
H947 H 0.31778 0.48675 0.51024 0.0
H948 H 0.18991 0.50831 0.4003 0.0
H949 H 0.20743 0.48662 0.4558 0.0
H950 H 0.4744 0.66313 0.24988 0.0
H951 H 0.25508 0.47709 0.49689 0.0
H952 H 0.5355 0.76602 0.43116 0.0
N953 N 0.44756 0.70057 0.32437 0.0
C954 C 0.47887 0.71084 0.33873 0.0
C955 C 0.47602 0.67638 0.27486 0.0
C956 C 0.51022 0.70176 0.32176 0.0
C957 C 0.44562 0.68576 0.29262 0.0
C958 C 0.50846 0.68344 0.28961 0.0
N959 N 0.44865 0.73392 0.38691 0.0
C960 C 0.44851 0.76032 0.41688 0.0
C961 C 0.51157 0.73707 0.38654 0.0
C962 C 0.47941 0.72701 0.37097 0.0
C963 C 0.5114 0.75766 0.41835 0.0
C964 C 0.47973 0.77075 0.43334 0.0
H965 H 0.53198 0.67445 0.27603 0.0
H966 H 0.56662 0.70238 0.325 0.0
H967 H 0.56759 0.73316 0.38158 0.0
O968 O 0.38958 0.81261 0.36697 0.0
O969 O 0.43267 0.61849 0.35267 0.0
O970 O 0.41905 0.56511 0.39828 0.0
O971 O 0.39265 0.77604 0.31815 0.0
O972 O 0.38023 0.70634 0.41063 0.0
O973 O 0.39188 0.60128 0.42567 0.0
O974 O 0.35699 0.44221 0.37325 0.0
O975 O 0.32456 0.63422 0.39711 0.0
O976 O 0.34006 0.68629 0.35167 0.0
O977 O 0.38181 0.46553 0.41831 0.0
O978 O 0.37882 0.53911 0.33809 0.0
O979 O 0.3733 0.64332 0.31822 0.0
C980 C 0.4416 0.57951 0.3759 0.0
C981 C 0.38318 0.89108 0.32299 0.0
C982 C 0.3778 1.00877 0.3286 0.0
C983 C 0.37069 1.01311 0.2957 0.0
C984 C 0.37576 0.89695 0.29028 0.0
C985 C 0.36935 0.95754 0.27685 0.0
C986 C 0.38414 0.94709 0.34217 0.0
C987 C 0.38678 0.6622 0.43296 0.0
C988 C 0.38868 0.82597 0.33659 0.0
C989 C 0.54221 0.70966 0.33753 0.0
C990 C 0.54282 0.7272 0.3698 0.0
C991 C 0.31892 0.68117 0.37604 0.0
C992 C 0.36446 0.35631 0.41234 0.0
C993 C 0.36741 0.23865 0.40699 0.0
C994 C 0.36352 0.2321 0.44016 0.0
C995 C 0.35992 0.34885 0.44551 0.0
C996 C 0.36766 0.30088 0.39316 0.0
C997 C 0.35942 0.28705 0.45924 0.0
C998 C 0.37821 0.58027 0.31402 0.0
C999 C 0.37305 0.42004 0.3985 0.0
H1000 H 0.36551 0.05951 0.28453 0.0
H1001 H 0.37438 0.85451 0.27503 0.0
H1002 H 0.3628 0.9613 0.25181 0.0
H1003 H 0.38877 0.94236 0.36761 0.0
H1004 H 0.3633 0.18447 0.45121 0.0
H1005 H 0.35825 0.3906 0.46109 0.0
H1006 H 0.37211 0.30619 0.36769 0.0
H1007 H 0.35655 0.28182 0.48483 0.0
Eu1008 Eu 0.3534 0.48714 0.88676 0.0
C1009 C 0.47563 0.29314 0.83133 0.0
N1010 N 0.44299 0.30178 0.81947 0.0
C1011 C 0.46377 0.28325 0.76633 0.0
C1012 C 0.50399 0.28076 0.81078 0.0
C1013 C 0.43671 0.29764 0.78747 0.0
C1014 C 0.4976 0.27511 0.778 0.0
C1015 C 0.51414 0.2843 0.87712 0.0
C1016 C 0.4805 0.29426 0.86418 0.0
C1017 C 0.54269 0.27499 0.85664 0.0
C1018 C 0.53758 0.27274 0.82356 0.0
Eu1019 Eu 0.39817 0.32088 0.85669 0.0
N1020 N 0.45219 0.30158 0.88347 0.0
C1021 C 0.51796 0.28146 0.91029 0.0
C1022 C 0.45556 0.29186 0.91565 0.0
C1023 C 0.48841 0.284 0.92959 0.0
H1024 H 0.41053 0.30312 0.77826 0.0
H1025 H 0.49078 0.27797 0.95519 0.0
H1026 H 0.33447 0.43428 0.96137 0.0
H1027 H 0.26397 0.59145 0.79899 0.0
H1028 H 0.43327 0.28692 0.93089 0.0
H1029 H 0.54334 0.2741 0.92112 0.0
H1030 H 0.32059 0.5761 0.82626 0.0
H1031 H 0.45844 0.27799 0.74109 0.0
H1032 H 0.56866 0.26752 0.8662 0.0
H1033 H 0.55971 0.26373 0.80809 0.0
H1034 H 0.28388 0.38829 0.99015 0.0
H1035 H 0.51852 0.26358 0.76158 0.0
H1036 H 0.21054 0.54265 0.822 0.0
N1037 N 0.30579 0.45637 0.9196 0.0
C1038 C 0.27353 0.4633 0.9064 0.0
C1039 C 0.28062 0.40877 0.96651 0.0
C1040 C 0.24353 0.44151 0.9227 0.0
C1041 C 0.30944 0.43332 0.94997 0.0
C1042 C 0.24749 0.41288 0.95283 0.0
N1043 N 0.30024 0.51083 0.86085 0.0
C1044 C 0.29776 0.55119 0.83513 0.0
C1045 C 0.23773 0.50066 0.8624 0.0
C1046 C 0.27082 0.4906 0.8761 0.0
C1047 C 0.23549 0.53454 0.83347 0.0
C1048 C 0.26559 0.56166 0.82026 0.0
H1049 H 0.22511 0.39492 0.96596 0.0
H1050 H 0.18727 0.43255 0.92049 0.0
H1051 H 0.18254 0.48721 0.86841 0.0
O1052 O 0.35691 0.59201 0.8779 0.0
O1053 O 0.32609 0.38791 0.89108 0.0
O1054 O 0.34227 0.34502 0.84437 0.0
O1055 O 0.34931 0.55545 0.92658 0.0
O1056 O 0.36293 0.48652 0.83322 0.0
O1057 O 0.38826 0.39015 0.8145 0.0
O1058 O 0.39507 0.22034 0.87429 0.0
O1059 O 0.43545 0.40569 0.85239 0.0
O1060 O 0.4132 0.48979 0.88387 0.0
O1061 O 0.37772 0.2435 0.82657 0.0
O1062 O 0.38178 0.33338 0.9097 0.0
O1063 O 0.39367 0.44066 0.91786 0.0
C1064 C 0.31939 0.34913 0.86717 0.0
C1065 C 0.35214 0.67297 0.92002 0.0
C1066 C 0.36315 0.78928 0.91292 0.0
C1067 C 0.34833 0.8005 0.94316 0.0
C1068 C 0.33791 0.68553 0.95021 0.0
C1069 C 0.33569 0.749 0.96148 0.0
C1070 C 0.3647 0.72502 0.90132 0.0
C1071 C 0.37572 0.44965 0.81025 0.0
C1072 C 0.35263 0.60584 0.90794 0.0
C1073 C 0.21069 0.44883 0.9084 0.0
C1074 C 0.20789 0.47902 0.87853 0.0
C1075 C 0.43838 0.4617 0.86723 0.0
C1076 C 0.39827 0.13599 0.83533 0.0
C1077 C 0.40285 1.01793 0.84073 0.0
C1078 C 0.41751 1.01473 0.81004 0.0
C1079 C 0.41304 0.13152 0.8047 0.0
C1080 C 0.39397 0.0791 0.85349 0.0
C1081 C 0.4229 0.07133 0.79234 0.0
C1082 C 0.39006 0.38186 0.929 0.0
C1083 C 0.3835 0.19764 0.84728 0.0
H1084 H 0.34585 0.84936 0.95247 0.0
H1085 H 0.32784 0.64637 0.9649 0.0
H1086 H 0.32388 0.75839 0.98448 0.0
H1087 H 0.37595 0.71546 0.87804 0.0
H1088 H 0.42468 0.96839 0.7997 0.0
H1089 H 0.41606 0.17396 0.78981 0.0
H1090 H 0.38199 0.08221 0.87689 0.0
H1091 H 0.43398 0.06837 0.76861 0.0
Eu1092 Eu 0.6612 0.54668 0.88781 0.0
C1093 C 0.54026 0.74575 0.83464 0.0
N1094 N 0.57253 0.73659 0.82207 0.0
C1095 C 0.55048 0.7559 0.76943 0.0
C1096 C 0.51139 0.75836 0.81469 0.0
C1097 C 0.57802 0.74102 0.78998 0.0
C1098 C 0.51692 0.76388 0.78177 0.0
C1099 C 0.50308 0.75537 0.88126 0.0
C1100 C 0.5363 0.74481 0.8676 0.0
C1101 C 0.474 0.76482 0.8614 0.0
C1102 C 0.47819 0.76679 0.8282 0.0
Eu1103 Eu 0.61816 0.71599 0.85824 0.0
N1104 N 0.56512 0.73722 0.88627 0.0
C1105 C 0.50023 0.75873 0.9145 0.0
C1106 C 0.56273 0.74779 0.91845 0.0
C1107 C 0.53032 0.75628 0.93312 0.0
H1108 H 0.60394 0.73515 0.78025 0.0
H1109 H 0.52871 0.76284 0.95873 0.0
H1110 H 0.68189 0.59593 0.9625 0.0
H1111 H 0.74766 0.44273 0.79727 0.0
H1112 H 0.58548 0.7528 0.93315 0.0
H1113 H 0.4752 0.76654 0.92588 0.0
H1114 H 0.69156 0.46083 0.8246 0.0
H1115 H 0.55522 0.76155 0.7441 0.0
H1116 H 0.44832 0.7727 0.87151 0.0
H1117 H 0.45567 0.77599 0.81321 0.0
H1118 H 0.73374 0.63743 0.99107 0.0
H1119 H 0.49559 0.77536 0.76576 0.0
H1120 H 0.80222 0.48547 0.82087 0.0
N1121 N 0.7097 0.57302 0.92034 0.0
C1122 C 0.74161 0.56455 0.9067 0.0
C1123 C 0.73632 0.61728 0.96732 0.0
C1124 C 0.77219 0.5839 0.92283 0.0
C1125 C 0.70686 0.59508 0.95095 0.0
C1126 C 0.76916 0.61166 0.95322 0.0
N1127 N 0.7135 0.52055 0.86091 0.0
C1128 C 0.71495 0.4825 0.83428 0.0
C1129 C 0.7762 0.5269 0.86197 0.0
C1130 C 0.74344 0.53819 0.87612 0.0
C1131 C 0.77754 0.49458 0.83261 0.0
C1132 C 0.74681 0.47074 0.81913 0.0
H1133 H 0.79201 0.62787 0.96621 0.0
H1134 H 0.82855 0.58963 0.92009 0.0
H1135 H 0.83169 0.53718 0.86745 0.0
O1136 O 0.65756 0.44172 0.87962 0.0
O1137 O 0.68999 0.64427 0.89305 0.0
O1138 O 0.67369 0.68837 0.84658 0.0
O1139 O 0.66154 0.47964 0.92838 0.0
O1140 O 0.65135 0.54934 0.83452 0.0
O1141 O 0.62751 0.6473 0.81587 0.0
O1142 O 0.6223 0.81687 0.87495 0.0
O1143 O 0.5798 0.63289 0.8534 0.0
O1144 O 0.60156 0.54568 0.88326 0.0
O1145 O 0.63986 0.79143 0.82763 0.0
O1146 O 0.63491 0.70231 0.91094 0.0
O1147 O 0.62091 0.59589 0.91768 0.0
C1148 C 0.69642 0.68427 0.86952 0.0
C1149 C 0.6571 0.36207 0.92266 0.0
C1150 C 0.64529 0.24608 0.91544 0.0
C1151 C 0.65291 0.23621 0.94799 0.0
C1152 C 0.66412 0.35087 0.95507 0.0
C1153 C 0.66207 0.28825 0.96758 0.0
C1154 C 0.64765 0.30954 0.90286 0.0
C1155 C 0.63933 0.58732 0.81166 0.0
C1156 C 0.65858 0.42883 0.91004 0.0
C1157 C 0.8047 0.57518 0.90813 0.0
C1158 C 0.8066 0.54611 0.87798 0.0
C1159 C 0.57651 0.5759 0.86733 0.0
C1160 C 0.61991 0.89958 0.83512 0.0
C1161 C 0.61387 1.01724 0.8404 0.0
C1162 C 0.60103 0.02044 0.80908 0.0
C1163 C 0.60715 0.90396 0.8037 0.0
C1164 C 0.62242 0.95632 0.85359 0.0
C1165 C 0.59731 0.96392 0.79101 0.0
C1166 C 0.62615 0.65333 0.92972 0.0
C1167 C 0.63427 0.83822 0.8478 0.0
H1168 H 0.6522 0.18799 0.95836 0.0
H1169 H 0.67123 0.39052 0.9708 0.0
H1170 H 0.66767 0.27997 0.99259 0.0
H1171 H 0.64141 0.31828 0.87797 0.0
H1172 H 0.594 0.06677 0.79858 0.0
H1173 H 0.60561 0.86163 0.78856 0.0
H1174 H 0.63274 0.95343 0.87767 0.0
H1175 H 0.58757 0.96676 0.76679 0.0
Eu1176 Eu 0.35502 0.54583 0.61305 0.0
C1177 C 0.48042 0.70305 0.66348 0.0
N1178 N 0.44888 0.694 0.6777 0.0
C1179 C 0.47677 0.66239 0.72648 0.0
C1180 C 0.51157 0.69064 0.68029 0.0
C1181 C 0.4466 0.67631 0.70906 0.0
C1182 C 0.50936 0.6686 0.71188 0.0
C1183 C 0.51375 0.73152 0.61626 0.0
C1184 C 0.48136 0.72135 0.63149 0.0
C1185 C 0.54487 0.72009 0.63307 0.0
C1186 C 0.54378 0.69917 0.66491 0.0
Eu1187 Eu 0.39923 0.70802 0.64513 0.0
N1188 N 0.45076 0.73011 0.61545 0.0
C1189 C 0.51394 0.75379 0.58468 0.0
C1190 C 0.45098 0.75702 0.58558 0.0
C1191 C 0.48242 0.76764 0.56949 0.0
H1192 H 0.42149 0.67196 0.72053 0.0
H1193 H 0.48231 0.78753 0.54554 0.0
H1194 H 0.33119 0.589 0.53929 0.0
H1195 H 0.2752 0.49174 0.71827 0.0
H1196 H 0.4272 0.77227 0.57411 0.0
H1197 H 0.53828 0.76236 0.57219 0.0
H1198 H 0.3282 0.48793 0.68524 0.0
H1199 H 0.47487 0.64663 0.7511 0.0
H1200 H 0.56995 0.72737 0.62166 0.0
H1201 H 0.568 0.69001 0.67747 0.0
H1202 H 0.27745 0.62286 0.51094 0.0
H1203 H 0.53265 0.65623 0.72519 0.0
H1204 H 0.22066 0.53601 0.69562 0.0
N1205 N 0.30505 0.57105 0.58303 0.0
C1206 C 0.2742 0.569 0.59906 0.0
C1207 C 0.27619 0.60766 0.53567 0.0
C1208 C 0.24312 0.58885 0.58403 0.0
C1209 C 0.30651 0.58876 0.55169 0.0
C1210 C 0.24433 0.60759 0.55186 0.0
N1211 N 0.30527 0.53775 0.64596 0.0
C1212 C 0.30524 0.51106 0.67579 0.0
C1213 C 0.24344 0.55541 0.64922 0.0
C1214 C 0.27455 0.55345 0.63154 0.0
C1215 C 0.24405 0.5354 0.68119 0.0
C1216 C 0.27487 0.51105 0.69421 0.0
H1217 H 0.22098 0.62336 0.53952 0.0
H1218 H 0.18833 0.60988 0.59121 0.0
H1219 H 0.18964 0.58352 0.64836 0.0
O1220 O 0.35365 0.4422 0.62519 0.0
O1221 O 0.32696 0.64553 0.61045 0.0
O1222 O 0.34257 0.69205 0.65707 0.0
O1223 O 0.34761 0.4722 0.57617 0.0
O1224 O 0.37961 0.53938 0.66238 0.0
O1225 O 0.37266 0.64284 0.6827 0.0
O1226 O 0.38923 0.81186 0.63346 0.0
O1227 O 0.4318 0.61642 0.64642 0.0
O1228 O 0.41377 0.55159 0.60472 0.0
O1229 O 0.40241 0.7816 0.68202 0.0
O1230 O 0.38176 0.70439 0.59186 0.0
O1231 O 0.38831 0.5969 0.57659 0.0
C1232 C 0.31978 0.68476 0.6343 0.0
C1233 C 0.37176 0.36694 0.58553 0.0
C1234 C 0.38865 0.2526 0.59269 0.0
C1235 C 0.40661 0.2558 0.56341 0.0
C1236 C 0.39081 0.3689 0.55692 0.0
C1237 C 0.40798 0.31358 0.54598 0.0
C1238 C 0.37108 0.30885 0.60351 0.0
C1239 C 0.37836 0.57983 0.68662 0.0
C1240 C 0.3505 0.42325 0.59572 0.0
C1241 C 0.21238 0.59305 0.602 0.0
C1242 C 0.21284 0.57737 0.63453 0.0
C1243 C 0.43794 0.57253 0.62455 0.0
C1244 C 0.39194 0.89647 0.6752 0.0
C1245 C 0.38851 1.0142 0.66729 0.0
C1246 C 0.38115 0.02171 0.69992 0.0
C1247 C 0.38485 0.90566 0.70781 0.0
C1248 C 0.39472 0.95126 0.65502 0.0
C1249 C 0.37969 0.96784 0.72004 0.0
C1250 C 0.38719 0.65923 0.56976 0.0
C1251 C 0.39498 0.82935 0.66291 0.0
H1252 H 0.41958 0.21349 0.55374 0.0
H1253 H 0.39193 0.41277 0.54262 0.0
H1254 H 0.42215 0.31527 0.52364 0.0
H1255 H 0.35691 0.3078 0.6259 0.0
H1256 H 0.37646 0.06951 0.70987 0.0
H1257 H 0.38267 0.86455 0.72389 0.0
H1258 H 0.39984 0.94486 0.62975 0.0
H1259 H 0.37402 0.97422 0.74517 0.0
Eu1260 Eu 0.65792 0.49047 0.61442 0.0
C1261 C 0.53292 0.33754 0.6637 0.0
N1262 N 0.56407 0.3442 0.67891 0.0
C1263 C 0.53519 0.37932 0.72653 0.0
C1264 C 0.50152 0.35344 0.67931 0.0
C1265 C 0.56562 0.36232 0.71023 0.0
C1266 C 0.50305 0.37565 0.71088 0.0
C1267 C 0.50093 0.31244 0.61531 0.0
C1268 C 0.53283 0.31914 0.63175 0.0
C1269 C 0.46957 0.32827 0.63077 0.0
C1270 C 0.46985 0.34894 0.66263 0.0
Eu1271 Eu 0.6146 0.3284 0.64772 0.0
N1272 N 0.56376 0.30712 0.61687 0.0
C1273 C 0.50147 0.28935 0.58391 0.0
C1274 C 0.56399 0.2783 0.58746 0.0
C1275 C 0.53305 0.27072 0.57021 0.0
H1276 H 0.59046 0.36555 0.72232 0.0
H1277 H 0.53356 0.24984 0.5465 0.0
H1278 H 0.67819 0.44332 0.54022 0.0
H1279 H 0.74292 0.55879 0.7138 0.0
H1280 H 0.58777 0.25993 0.57712 0.0
H1281 H 0.47764 0.28358 0.57042 0.0
H1282 H 0.68776 0.55563 0.68371 0.0
H1283 H 0.53656 0.39565 0.75107 0.0
H1284 H 0.44497 0.32477 0.6183 0.0
H1285 H 0.44544 0.36144 0.67414 0.0
H1286 H 0.72978 0.40065 0.51157 0.0
H1287 H 0.47958 0.39018 0.72337 0.0
H1288 H 0.79665 0.51523 0.68954 0.0
N1289 N 0.70641 0.46496 0.5824 0.0
C1290 C 0.7381 0.46887 0.5969 0.0
C1291 C 0.73248 0.41982 0.53551 0.0
C1292 C 0.76831 0.44672 0.58119 0.0
C1293 C 0.70328 0.44317 0.55182 0.0
C1294 C 0.7652 0.42205 0.55015 0.0
N1295 N 0.70953 0.50547 0.64405 0.0
C1296 C 0.71075 0.53426 0.67334 0.0
C1297 C 0.77167 0.49016 0.64483 0.0
C1298 C 0.73953 0.48879 0.6287 0.0
C1299 C 0.77257 0.51362 0.6762 0.0
C1300 C 0.74217 0.53765 0.69014 0.0
H1301 H 0.78777 0.4038 0.53746 0.0
H1302 H 0.82369 0.4287 0.58617 0.0
H1303 H 0.82608 0.46572 0.64169 0.0
O1304 O 0.65392 0.59515 0.62479 0.0
O1305 O 0.68682 0.39135 0.61227 0.0
O1306 O 0.67165 0.3435 0.65886 0.0
O1307 O 0.6611 0.56132 0.57572 0.0
O1308 O 0.6372 0.49629 0.66508 0.0
O1309 O 0.64203 0.39184 0.6855 0.0
O1310 O 0.6248 0.22433 0.63691 0.0
O1311 O 0.58345 0.42215 0.65113 0.0
O1312 O 0.59927 0.48102 0.60708 0.0
O1313 O 0.61029 0.25554 0.68492 0.0
O1314 O 0.63165 0.33162 0.59429 0.0
O1315 O 0.62199 0.43848 0.58118 0.0
C1316 C 0.69444 0.35232 0.63618 0.0
C1317 C 0.65514 0.67825 0.58282 0.0
C1318 C 0.64448 0.79448 0.59137 0.0
C1319 C 0.64619 0.80418 0.55817 0.0
C1320 C 0.6569 0.6897 0.54979 0.0
C1321 C 0.65245 0.75221 0.53764 0.0
C1322 C 0.64915 0.73104 0.60364 0.0
C1323 C 0.63891 0.45557 0.68923 0.0
C1324 C 0.65611 0.61055 0.59468 0.0
C1325 C 0.80019 0.44646 0.59756 0.0
C1326 C 0.8017 0.46778 0.62926 0.0
C1327 C 0.57593 0.46293 0.62821 0.0
C1328 C 0.62075 0.14044 0.67897 0.0
C1329 C 0.62612 0.02247 0.67174 0.0
C1330 C 0.62959 1.01575 0.70503 0.0
C1331 C 0.62463 0.13178 0.71203 0.0
C1332 C 0.62079 0.08543 0.65883 0.0
C1333 C 0.62898 0.06997 0.72485 0.0
C1334 C 0.62463 0.37746 0.57295 0.0
C1335 C 0.61831 0.20742 0.66631 0.0
H1336 H 0.64317 0.85231 0.54804 0.0
H1337 H 0.66107 0.6501 0.53319 0.0
H1338 H 0.65368 0.76036 0.51212 0.0
H1339 H 0.64712 0.72263 0.62914 0.0
H1340 H 0.63307 0.96838 0.71587 0.0
H1341 H 0.62495 0.17305 0.72808 0.0
H1342 H 0.61866 0.09197 0.63321 0.0
H1343 H 0.63256 0.06423 0.75029 0.0
C1344 C 0.24626 0.24712 0.0959 0.0
C1345 C 0.23144 0.22526 0.12484 0.0
H1346 H 0.28396 0.31004 0.07309 0.0
C1347 C 0.24485 0.25084 0.1535 0.0
H1348 H 0.23647 0.22883 0.07336 0.0
C1349 C 0.27252 0.29586 0.15337 0.0
C1350 C 0.28706 0.3186 0.12455 0.0
H1351 H 0.23421 0.23531 0.17623 0.0
H1352 H 0.28234 0.31354 0.17602 0.0
C1353 C 0.27331 0.29402 0.09574 0.0
C1354 C 0.77397 0.78718 0.098 0.0
C1355 C 0.78759 0.81324 0.12653 0.0
H1356 H 0.73681 0.72175 0.07626 0.0
C1357 C 0.77222 0.79337 0.15553 0.0
H1358 H 0.78529 0.80085 0.07526 0.0
C1359 C 0.74397 0.74955 0.15606 0.0
C1360 C 0.73081 0.7222 0.12769 0.0
H1361 H 0.78193 0.8122 0.17799 0.0
H1362 H 0.73279 0.73611 0.17889 0.0
C1363 C 0.74634 0.74143 0.09861 0.0
C1364 C 0.27231 0.74751 0.40577 0.0
C1365 C 0.28682 0.72404 0.377 0.0
H1366 H 0.23381 0.80955 0.42811 0.0
C1367 C 0.27177 0.74608 0.34822 0.0
H1368 H 0.28332 0.73247 0.42843 0.0
C1369 C 0.24314 0.78901 0.34804 0.0
C1370 C 0.22889 0.81354 0.37662 0.0
H1371 H 0.28206 0.72967 0.32553 0.0
H1372 H 0.23237 0.80374 0.32524 0.0
C1373 C 0.24411 0.79236 0.40557 0.0
C1374 C 0.77063 0.24025 0.35054 0.0
C1375 C 0.78529 0.21769 0.37934 0.0
H1376 H 0.73236 0.30076 0.32781 0.0
C1377 C 0.77186 0.24232 0.4082 0.0
H1378 H 0.7803 0.22255 0.32785 0.0
C1379 C 0.7449 0.28916 0.40813 0.0
C1380 C 0.72997 0.31083 0.37924 0.0
H1381 H 0.78273 0.22649 0.43079 0.0
H1382 H 0.73532 0.30761 0.4307 0.0
C1383 C 0.74309 0.28523 0.35051 0.0
C1384 C 0.74274 0.74989 0.84148 0.0
C1385 C 0.72739 0.72862 0.87016 0.0
H1386 H 0.78347 0.80551 0.81914 0.0
C1387 C 0.74189 0.75046 0.89917 0.0
H1388 H 0.73234 0.73395 0.81874 0.0
C1389 C 0.77073 0.79306 0.8994 0.0
C1390 C 0.7864 0.81342 0.87063 0.0
H1391 H 0.73061 0.73539 0.92171 0.0
H1392 H 0.78116 0.80911 0.92211 0.0
C1393 C 0.77212 0.79084 0.84172 0.0
C1394 C 0.27403 0.28222 0.89662 0.0
C1395 C 0.28831 0.30494 0.86766 0.0
H1396 H 0.23468 0.22363 0.9195 0.0
C1397 C 0.27251 0.28498 0.83897 0.0
H1398 H 0.28568 0.29617 0.91917 0.0
C1399 C 0.2429 0.2445 0.83919 0.0
C1400 C 0.22881 0.22114 0.86806 0.0
H1401 H 0.28272 0.3016 0.81627 0.0
H1402 H 0.23123 0.23081 0.8166 0.0
C1403 C 0.24493 0.24023 0.89681 0.0
C1404 C 0.74272 0.29304 0.66497 0.0
C1405 C 0.72698 0.31184 0.63602 0.0
H1406 H 0.78437 0.24119 0.6881 0.0
C1407 C 0.7421 0.28982 0.60733 0.0
H1408 H 0.73184 0.309 0.68751 0.0
C1409 C 0.77188 0.24956 0.60771 0.0
C1410 C 0.78778 0.23134 0.63675 0.0
H1411 H 0.73053 0.30275 0.5846 0.0
H1412 H 0.78278 0.2335 0.58522 0.0
C1413 C 0.77291 0.25418 0.66532 0.0
C1414 C 0.24161 0.78511 0.60577 0.0
C1415 C 0.22668 0.80563 0.63481 0.0
H1416 H 0.28225 0.73028 0.58273 0.0
C1417 C 0.24253 0.78552 0.66346 0.0
H1418 H 0.22986 0.79901 0.58326 0.0
C1419 C 0.27274 0.74684 0.66315 0.0
C1420 C 0.28752 0.72574 0.6342 0.0
H1421 H 0.23176 0.80041 0.68621 0.0
H1422 H 0.28433 0.73274 0.68571 0.0
C1423 C 0.27147 0.7452 0.60547 0.0
C1424 C 0.11947 0.04863 0.27642 0.0
C1425 C 0.13779 0.99043 0.28259 0.0
H1426 H 0.10597 0.12275 0.24224 0.0
C1427 C 0.15721 0.96278 0.25774 0.0
H1428 H 0.10404 0.07103 0.29507 0.0
C1429 C 0.15886 0.99305 0.22774 0.0
C1430 C 0.14072 0.05156 0.22137 0.0
H1431 H 0.17202 0.9187 0.26175 0.0
H1432 H 0.17469 0.97029 0.20949 0.0
C1433 C 0.12073 0.07862 0.24617 0.0
C1434 C 0.90202 0.99535 0.27688 0.0
C1435 C 0.87963 0.04794 0.28352 0.0
H1436 H 0.91973 0.92561 0.24227 0.0
C1437 C 0.85693 0.06938 0.25946 0.0
H1438 H 0.92001 0.97808 0.29497 0.0
C1439 C 0.85631 0.03858 0.22958 0.0
C1440 C 0.87843 0.98553 0.22284 0.0
H1441 H 0.83888 0.10876 0.26408 0.0
H1442 H 0.83812 0.05615 0.21176 0.0
C1443 C 0.90157 0.96471 0.24684 0.0
C1444 C 0.90616 0.02074 0.73238 0.0
C1445 C 0.8769 0.05758 0.72284 0.0
H1446 H 0.92901 0.9588 0.76841 0.0
C1447 C 0.84691 0.05553 0.74188 0.0
H1448 H 0.92934 0.01986 0.71761 0.0
C1449 C 0.84595 1.0169 0.76945 0.0
C1450 C 0.87553 0.98268 0.78004 0.0
H1451 H 0.82351 0.08092 0.73449 0.0
H1452 H 0.82164 1.01255 0.78215 0.0
C1453 C 0.90572 0.98456 0.76101 0.0
C1454 C 0.10974 0.05475 0.75737 0.0
C1455 C 0.13946 0.05314 0.77703 0.0
H1456 H 0.08617 0.02256 0.71341 0.0
C1457 C 0.16826 1.01623 0.76687 0.0
H1458 H 0.08707 0.08276 0.76436 0.0
C1459 C 0.16679 0.97796 0.73926 0.0
C1460 C 0.13722 0.97922 0.71967 0.0
H1461 H 0.19242 1.01823 0.7799 0.0
H1462 H 0.18959 0.95038 0.73225 0.0
C1463 C 0.10893 0.01907 0.72865 0.0
C1464 C 0.67021 0.52656 0.27149 0.0
C1465 C 0.64112 0.49241 0.28336 0.0
H1466 H 0.69208 0.58287 0.23331 0.0
C1467 C 0.61018 0.49269 0.26521 0.0
H1468 H 0.69422 0.52885 0.28496 0.0
C1469 C 0.60882 0.52518 0.23556 0.0
C1470 C 0.63842 0.55747 0.22349 0.0
H1471 H 0.58695 0.4688 0.27417 0.0
H1472 H 0.5849 0.52405 0.22182 0.0
C1473 C 0.66896 0.55812 0.24188 0.0
C1474 C 0.40998 0.52673 0.26799 0.0
C1475 C 0.37889 0.55179 0.28117 0.0
H1476 H 0.4343 0.47875 0.22783 0.0
C1477 C 0.34774 0.54186 0.26426 0.0
H1478 H 0.43438 0.53201 0.28079 0.0
C1479 C 0.34741 0.507 0.23559 0.0
C1480 C 0.37844 0.48595 0.22111 0.0
H1481 H 0.32314 0.55924 0.27329 0.0
H1482 H 0.32241 0.49515 0.22547 0.0
C1483 C 0.40988 0.49533 0.23795 0.0
C1484 C 0.40511 0.4723 0.75689 0.0
C1485 C 0.37644 0.47952 0.77757 0.0
H1486 H 0.42818 0.49868 0.71171 0.0
C1487 C 0.3491 0.52055 0.76775 0.0
H1488 H 0.42668 0.441 0.76342 0.0
C1489 C 0.35118 0.55737 0.7397 0.0
C1490 C 0.37956 0.55023 0.71905 0.0
H1491 H 0.32531 0.52259 0.78112 0.0
H1492 H 0.32948 0.58834 0.73315 0.0
C1493 C 0.40629 0.50636 0.72761 0.0
C1494 C 0.6087 0.5556 0.76045 0.0
C1495 C 0.6392 0.55825 0.77906 0.0
H1496 H 0.58471 0.52007 0.7173 0.0
C1497 C 0.66907 0.52585 0.76786 0.0
H1498 H 0.5852 0.57996 0.76836 0.0
C1499 C 0.66812 0.48799 0.7401 0.0
C1500 C 0.63778 0.48501 0.72156 0.0
H1501 H 0.69353 0.53084 0.78026 0.0
H1502 H 0.69164 0.4636 0.73231 0.0
C1503 C 0.60822 0.52019 0.73166 0.0
C1504 C 0.14577 0.20339 0.9804 0.0
C1505 C 0.12667 0.15658 0.96316 0.0
H1506 H 0.1638 0.2344 0.02679 0.0
C1507 C 0.10829 0.10857 0.98018 0.0
H1508 H 0.16041 0.24062 0.96791 0.0
C1509 C 0.11053 0.10463 0.01325 0.0
C1510 C 0.13104 0.1488 0.03053 0.0
H1511 H 0.09294 0.07216 0.96782 0.0
H1512 H 0.09662 0.06577 0.02527 0.0
C1513 C 0.1479 0.19954 0.01397 0.0
C1514 C 0.86894 0.82658 0.98418 0.0
C1515 C 0.88939 0.87168 0.96699 0.0
H1516 H 0.85149 0.7945 0.03075 0.0
C1517 C 0.91104 0.91422 0.98419 0.0
H1518 H 0.85174 0.79358 0.97159 0.0
C1519 C 0.91098 0.91456 0.01743 0.0
C1520 C 0.88912 0.87267 0.0349 0.0
H1521 H 0.92744 0.94913 0.97189 0.0
H1522 H 0.92745 0.94966 0.02951 0.0
C1523 C 0.86874 0.82719 0.01799 0.0
C1524 C 0.14375 0.82421 0.48434 0.0
C1525 C 0.12255 0.86785 0.46717 0.0
H1526 H 0.16118 0.79295 0.53098 0.0
C1527 C 0.09877 0.90658 0.48417 0.0
H1528 H 0.16259 0.79434 0.47189 0.0
C1529 C 0.09803 0.9059 0.51742 0.0
C1530 C 0.1209 0.86626 0.53487 0.0
H1531 H 0.08184 0.94035 0.47174 0.0
H1532 H 0.08072 0.93933 0.52961 0.0
C1533 C 0.14288 0.8233 0.5181 0.0
C1534 C 0.87066 0.21097 0.52074 0.0
C1535 C 0.89232 0.16718 0.53735 0.0
H1536 H 0.85048 0.24029 0.47474 0.0
C1537 C 0.91382 0.12528 0.51975 0.0
H1538 H 0.8534 0.24307 0.53375 0.0
C1539 C 0.91198 0.12333 0.48659 0.0
C1540 C 0.88859 0.16331 0.46981 0.0
H1541 H 0.93088 0.09116 0.5318 0.0
H1542 H 0.92805 0.08826 0.47412 0.0
C1543 C 0.86879 0.20901 0.48705 0.0
C1544 C 0.64539 0.70222 0.01603 0.0
C1545 C 0.62882 0.65121 0.03266 0.0
H1546 H 0.65753 0.74371 0.96997 0.0
C1547 C 0.60829 0.60703 0.01533 0.0
H1548 H 0.66133 0.7371 0.02879 0.0
C1549 C 0.60586 0.61112 0.98221 0.0
C1550 C 0.62399 0.65939 0.96514 0.0
H1551 H 0.59459 0.56791 0.02735 0.0
H1552 H 0.59063 0.57458 0.96982 0.0
C1553 C 0.643 0.7063 0.98244 0.0
C1554 C 0.37387 0.32661 0.98155 0.0
C1555 C 0.39295 0.37378 0.96438 0.0
H1556 H 0.35579 0.29459 0.02787 0.0
C1557 C 0.41158 0.4209 0.98167 0.0
H1558 H 0.35888 0.29012 0.96891 0.0
C1559 C 0.40968 0.42364 0.01487 0.0
C1560 C 0.38905 0.37936 0.03216 0.0
H1561 H 0.42681 0.45766 0.9694 0.0
H1562 H 0.42384 0.46204 0.02695 0.0
C1563 C 0.37187 0.32949 0.01524 0.0
C1564 C 0.6022 0.41305 0.48781 0.0
C1565 C 0.62704 0.37681 0.471 0.0
H1566 H 0.58072 0.43823 0.53303 0.0
C1567 C 0.64713 0.33056 0.48773 0.0
H1568 H 0.58596 0.44823 0.47554 0.0
C1569 C 0.64427 0.32489 0.52124 0.0
C1570 C 0.62106 0.36507 0.53816 0.0
H1571 H 0.66652 0.302 0.47523 0.0
H1572 H 0.66204 0.29326 0.53401 0.0
C1573 C 0.599 0.40676 0.52078 0.0
C1574 C 0.4177 0.64652 0.5179 0.0
C1575 C 0.3909 0.67625 0.53535 0.0
H1576 H 0.43788 0.62132 0.47198 0.0
C1577 C 0.36505 0.71107 0.51856 0.0
H1578 H 0.43781 0.61903 0.53011 0.0
C1579 C 0.36487 0.71196 0.48477 0.0
C1580 C 0.39071 0.67847 0.46746 0.0
H1581 H 0.34357 0.73307 0.53141 0.0
H1582 H 0.34325 0.73448 0.47232 0.0
C1583 C 0.4177 0.64787 0.48455 0.0
C1584 C 0.99627 0.99611 0.15726 0.0
C1585 C 0.97756 0.984 0.12898 0.0
H1586 H 0.04346 0.03257 0.17853 0.0
C1587 C 0.99419 0.99665 0.09958 0.0
H1588 H 0.9843 0.98686 0.18027 0.0
C1589 C 0.02871 0.02053 0.09856 0.0
C1590 C 0.04697 0.03438 0.12692 0.0
H1591 H 0.98062 0.98737 0.07734 0.0
H1592 H 0.04073 0.02998 0.0756 0.0
C1593 C 0.03019 0.0222 0.15625 0.0
C1594 C 0.99111 0.03955 0.34627 0.0
C1595 C 0.97295 0.04935 0.375 0.0
H1596 H 0.03792 1.00482 0.32393 0.0
C1597 C 0.9894 0.03317 0.40398 0.0
H1598 H 0.97902 0.05138 0.3236 0.0
C1599 C 0.0235 1.00837 0.40422 0.0
C1600 C 0.04137 0.9974 0.37544 0.0
H1601 H 0.97606 0.04054 0.42649 0.0
H1602 H 0.03561 0.99639 0.42686 0.0
C1603 C 0.02474 1.01286 0.34647 0.0
C1604 C 0.02471 0.03109 0.89601 0.0
C1605 C 0.04117 0.04469 0.86673 0.0
H1606 H 0.97861 0.99574 0.91965 0.0
C1607 C 0.02316 0.03147 0.83823 0.0
H1608 H 0.03793 0.04125 0.91834 0.0
C1609 C 0.9897 1.00357 0.83898 0.0
C1610 C 0.97299 0.99093 0.86825 0.0
H1611 H 0.03526 0.04153 0.81536 0.0
H1612 H 0.97663 0.99273 0.81666 0.0
C1613 C 0.99073 1.00548 0.89676 0.0
C1614 C 0.99023 0.02799 0.65438 0.0
C1615 C 0.97239 0.04098 0.62581 0.0
H1616 H 0.03718 0.99409 0.67634 0.0
C1617 C 0.98959 0.03082 0.59659 0.0
H1618 H 0.9777 0.03571 0.67724 0.0
C1619 C 0.02425 1.00853 0.59607 0.0
C1620 C 0.0418 0.99472 0.62476 0.0
H1621 H 0.9765 0.04137 0.57425 0.0
H1622 H 0.03701 1.00061 0.57333 0.0
C1623 C 0.02436 1.00453 0.65386 0.0
C1624 C 0.49336 0.5015 0.1571 0.0
C1625 C 0.47558 0.48851 0.12846 0.0
H1626 H 0.53988 0.53863 0.17917 0.0
C1627 C 0.49291 0.50028 0.09935 0.0
H1628 H 0.4807 0.49299 0.17985 0.0
C1629 C 0.52741 0.52396 0.09897 0.0
C1630 C 0.54483 0.53852 0.12767 0.0
H1631 H 0.47992 0.49034 0.07689 0.0
H1632 H 0.54011 0.53256 0.07624 0.0
C1633 C 0.52725 0.52752 0.15669 0.0
C1634 C 0.49528 0.54235 0.4061 0.0
C1635 C 0.47781 0.55284 0.37694 0.0
H1636 H 0.54248 0.5107 0.42942 0.0
C1637 C 0.4955 0.53834 0.34841 0.0
H1638 H 0.48245 0.55344 0.42849 0.0
C1639 C 0.52938 0.51255 0.34898 0.0
C1640 C 0.54706 0.50262 0.37805 0.0
H1641 H 0.48286 0.54587 0.32556 0.0
H1642 H 0.5419 0.50071 0.32654 0.0
C1643 C 0.52974 0.51844 0.40664 0.0
C1644 C 0.49051 0.50588 0.83834 0.0
C1645 C 0.47332 0.49244 0.86725 0.0
H1646 H 0.53644 0.54485 0.81577 0.0
C1647 C 0.49044 0.50603 0.89617 0.0
H1648 H 0.47788 0.49548 0.81575 0.0
C1649 C 0.52438 0.53174 0.89616 0.0
C1650 C 0.54132 0.54617 0.86724 0.0
H1651 H 0.47784 0.49544 0.91876 0.0
H1652 H 0.53718 0.54141 0.91875 0.0
C1653 C 0.52393 0.53384 0.83834 0.0
C1654 C 0.48948 0.52417 0.59655 0.0
C1655 C 0.47252 0.54147 0.62497 0.0
H1656 H 0.53637 0.4868 0.57529 0.0
C1657 C 0.4897 0.53233 0.65428 0.0
H1658 H 0.47679 0.53124 0.57369 0.0
C1659 C 0.5233 0.50666 0.65522 0.0
C1660 C 0.5406 0.49057 0.62684 0.0
H1661 H 0.47713 0.54505 0.67658 0.0
H1662 H 0.53592 0.50011 0.67814 0.0
C1663 C 0.52354 0.49956 0.59746 0.0
C1664 C 0.09907 0.63701 0.10871 0.0
C1665 C 0.12706 0.68092 0.11193 0.0
H1666 H 0.07822 0.54359 0.12145 0.0
C1667 C 0.15615 0.66271 0.13035 0.0
H1668 H 0.07594 0.64984 0.09528 0.0
C1669 C 0.15636 0.60396 0.14662 0.0
C1670 C 0.12843 0.56054 0.14342 0.0
H1671 H 0.17869 0.69411 0.13271 0.0
H1672 H 0.17832 0.59279 0.16187 0.0
C1673 C 0.10009 0.57662 0.1239 0.0
C1674 C 0.86311 0.36288 0.15229 0.0
C1675 C 0.86772 0.35668 0.11921 0.0
H1676 H 0.86947 0.4234 0.19328 0.0
C1677 C 0.88502 0.4057 0.10213 0.0
H1678 H 0.84975 0.32549 0.16584 0.0
C1679 C 0.89698 0.46105 0.11791 0.0
C1680 C 0.89138 0.46821 0.15087 0.0
H1681 H 0.88924 0.40118 0.07664 0.0
H1682 H 0.90989 0.49886 0.10428 0.0
C1683 C 0.87467 0.41843 0.16798 0.0
C1684 C 0.11225 0.40759 0.39435 0.0
C1685 C 0.13756 0.35961 0.38853 0.0
H1686 H 0.09161 0.5004 0.38096 0.0
C1687 C 0.16169 0.3688 0.36381 0.0
H1688 H 0.09303 0.40119 0.41306 0.0
C1689 C 0.16089 0.42535 0.34555 0.0
C1690 C 0.13587 0.47387 0.35153 0.0
H1691 H 0.18183 0.33315 0.35916 0.0
H1692 H 0.18041 0.43155 0.3271 0.0
C1693 C 0.11151 0.4644 0.37611 0.0
C1694 C 0.91187 0.57425 0.37054 0.0
C1695 C 0.88871 0.56395 0.34517 0.0
H1696 H 0.92793 0.63741 0.40821 0.0
C1697 C 0.86383 0.61169 0.33768 0.0
H1698 H 0.9314 0.53821 0.37653 0.0
C1699 C 0.86133 0.668 0.35617 0.0
C1700 C 0.88382 0.67732 0.38228 0.0
H1701 H 0.84544 0.60418 0.31837 0.0
H1702 H 0.84093 0.70278 0.35087 0.0
C1703 C 0.90973 0.63078 0.38867 0.0
C1704 C 0.90724 0.39872 0.90218 0.0
C1705 C 0.88393 0.34946 0.8927 0.0
H1706 H 0.92933 0.49215 0.89183 0.0
C1707 C 0.86622 0.35623 0.86347 0.0
H1708 H 0.92192 0.39441 0.92419 0.0
C1709 C 0.87101 0.41178 0.84467 0.0
C1710 C 0.89344 0.4619 0.85477 0.0
H1711 H 0.84777 0.31968 0.85559 0.0
H1712 H 0.85629 0.41647 0.82271 0.0
C1713 C 0.91166 0.45459 0.88361 0.0
C1714 C 0.14485 0.62231 0.84458 0.0
C1715 C 0.12162 0.57297 0.85409 0.0
H1716 H 0.16853 0.71372 0.85593 0.0
C1717 C 0.10261 0.58084 0.88244 0.0
H1718 H 0.16013 0.61725 0.82297 0.0
C1719 C 0.10687 0.63672 0.901 0.0
C1720 C 0.13085 0.68534 0.89205 0.0
H1721 H 0.08431 0.54388 0.89017 0.0
H1722 H 0.09142 0.64166 0.92251 0.0
C1723 C 0.14954 0.67776 0.8634 0.0
C1724 C 0.91462 0.65079 0.61479 0.0
C1725 C 0.88529 0.69215 0.61413 0.0
H1726 H 0.93672 0.56118 0.63162 0.0
C1727 C 0.85515 0.67279 0.63076 0.0
H1728 H 0.93857 0.66443 0.6028 0.0
C1729 C 0.85444 0.61427 0.64773 0.0
C1730 C 0.88371 0.57306 0.6484 0.0
H1731 H 0.8318 0.70232 0.63036 0.0
H1732 H 0.8307 0.60098 0.66009 0.0
C1733 C 0.91369 0.59164 0.63142 0.0
C1734 C 0.15978 0.36298 0.62615 0.0
C1735 C 0.12908 0.34262 0.61066 0.0
H1736 H 0.18483 0.43594 0.65457 0.0
C1737 C 0.09949 0.38324 0.61219 0.0
H1738 H 0.18331 0.33402 0.62501 0.0
C1739 C 0.10063 0.44245 0.62866 0.0
C1740 C 0.13112 0.46183 0.64459 0.0
H1741 H 0.07515 0.36887 0.6011 0.0
H1742 H 0.07737 0.47224 0.62967 0.0
C1743 C 0.16074 0.42169 0.64295 0.0
C1744 C 0.59952 0.07553 0.12776 0.0
C1745 C 0.62713 0.06181 0.1486 0.0
H1746 H 0.57602 0.1455 0.09685 0.0
C1747 C 0.65433 0.10655 0.15231 0.0
H1748 H 0.57833 0.04117 0.12469 0.0
C1749 C 0.65402 0.16455 0.13531 0.0
C1750 C 0.62572 0.1801 0.11527 0.0
H1751 H 0.67606 0.09631 0.16808 0.0
H1752 H 0.67605 0.19706 0.13803 0.0
C1753 C 0.5985 0.13478 0.11159 0.0
C1754 C 0.36528 0.86988 0.14392 0.0
C1755 C 0.38616 0.86006 0.11679 0.0
H1756 H 0.35192 0.93445 0.18217 0.0
C1757 C 0.41173 0.9064 0.10883 0.0
H1758 H 0.34518 0.83526 0.15043 0.0
C1759 C 0.41498 0.96332 0.12645 0.0
C1760 C 0.39345 0.97391 0.15289 0.0
H1761 H 0.42876 0.89931 0.08849 0.0
H1762 H 0.43404 0.99943 0.11927 0.0
C1763 C 0.36903 0.92647 0.16195 0.0
C1764 C 0.59811 0.96147 0.37423 0.0
C1765 C 0.62459 0.9765 0.35245 0.0
H1766 H 0.57639 0.89067 0.40559 0.0
C1767 C 0.6517 0.93218 0.34734 0.0
H1768 H 0.57679 0.99505 0.37816 0.0
C1769 C 0.65277 0.87396 0.36438 0.0
C1770 C 0.62576 0.85743 0.38578 0.0
H1771 H 0.67229 0.9429 0.33044 0.0
H1772 H 0.67492 0.84232 0.3607 0.0
C1773 C 0.59826 0.90194 0.39022 0.0
C1774 C 0.39851 0.07697 0.37489 0.0
C1775 C 0.37599 0.06815 0.34871 0.0
H1776 H 0.41358 0.13867 0.41386 0.0
C1777 C 0.35089 0.11624 0.34203 0.0
H1778 H 0.41827 0.04121 0.38061 0.0
C1779 C 0.3487 0.17205 0.36064 0.0
C1780 C 0.37101 0.18052 0.38677 0.0
H1781 H 0.33232 0.11038 0.32277 0.0
H1782 H 0.32896 0.20798 0.35506 0.0
C1783 C 0.39594 0.13266 0.39385 0.0
C1784 C 0.39342 0.89717 0.90857 0.0
C1785 C 0.37597 0.84522 0.89363 0.0
H1786 H 0.41548 0.99237 0.90366 0.0
C1787 C 0.3691 0.84918 0.86069 0.0
H1788 H 0.39973 0.89515 0.93377 0.0
C1789 C 0.37853 0.9047 0.84338 0.0
C1790 C 0.39501 0.95736 0.85864 0.0
H1791 H 0.35532 0.81048 0.8485 0.0
H1792 H 0.37182 0.90738 0.81827 0.0
C1793 C 0.40256 0.9528 0.89135 0.0
C1794 C 0.64723 0.18424 0.86344 0.0
C1795 C 0.63514 0.18981 0.89506 0.0
H1796 H 0.64998 0.12485 0.82142 0.0
C1797 C 0.61448 0.1394 0.90777 0.0
H1798 H 0.6635 0.22166 0.85295 0.0
C1799 C 0.60741 0.08362 0.88997 0.0
C1800 C 0.62002 0.07765 0.85872 0.0
H1801 H 0.60392 0.14274 0.9317 0.0
H1802 H 0.59201 0.04508 0.90062 0.0
C1803 C 0.63959 0.12878 0.84541 0.0
C1804 C 0.35859 0.11369 0.6465 0.0
C1805 C 0.38781 0.07245 0.64639 0.0
H1806 H 0.3355 0.20167 0.6294 0.0
C1807 C 0.41711 0.09014 0.62837 0.0
H1808 H 0.33559 0.10098 0.66019 0.0
C1809 C 0.41757 0.14893 0.61145 0.0
C1810 C 0.38833 0.19062 0.61147 0.0
H1811 H 0.44013 0.05963 0.62829 0.0
H1812 H 0.44119 0.16216 0.59885 0.0
C1813 C 0.35874 0.17183 0.62913 0.0
C1814 C 0.65902 0.86017 0.64012 0.0
C1815 C 0.63846 0.8512 0.61275 0.0
H1816 H 0.67232 0.92196 0.67921 0.0
C1817 C 0.61367 0.89906 0.60478 0.0
H1818 H 0.67877 0.82491 0.6466 0.0
C1819 C 0.60975 0.95488 0.62359 0.0
C1820 C 0.63041 0.964 0.65096 0.0
H1821 H 0.59719 0.89325 0.58395 0.0
H1822 H 0.59023 0.9904 0.61693 0.0
C1823 C 0.65525 0.91601 0.6588 0.0
loop_
_geom_bond_atom_site_label_1
_geom_bond_atom_site_label_2
_geom_bond_distance
_geom_bond_site_symmetry_2
_ccdc_geom_bond_type
Eu0 N29 2.600 . S
Eu0 N35 2.562 . S
Eu0 O44 2.462 . S
Eu0 O45 2.373 . S
Eu0 O47 2.432 . S
Eu0 O48 2.291 . S
Eu0 O52 2.335 . S
Eu0 O55 2.372 . S
Eu0 C64 2.787 . S
C1 N2 1.365 . S
C1 C4 1.405 . S
C1 C8 1.448 . S
N2 C1 1.365 . S
N2 C5 1.319 . S
N2 Eu11 2.600 . S
C3 C5 1.397 . S
C3 C6 1.367 . S
C3 H23 0.931 1_554 S
C4 C1 1.405 . S
C4 C6 1.403 . S
C4 C10 1.440 . S
C5 N2 1.319 . S
C5 C3 1.397 . S
C5 H16 0.930 . S
C6 C3 1.367 . S
C6 C4 1.403 . S
C6 H27 0.929 . S
C7 C8 1.430 1_565 S
C7 C9 1.387 . S
C7 C13 1.404 . S
C8 C1 1.448 . S
C8 C7 1.430 1_545 S
C8 N12 1.351 . S
C9 C7 1.387 . S
C9 C10 1.374 1_565 S
C9 H24 0.931 . S
C10 C4 1.440 . S
C10 C9 1.374 1_545 S
C10 H25 0.931 1_545 S
Eu11 N2 2.600 . S
Eu11 N12 2.562 . S
Eu11 O46 2.335 . S
Eu11 O49 2.372 . S
Eu11 O50 2.462 1_545 S
Eu11 O51 2.373 . S
Eu11 O53 2.432 1_545 S
Eu11 O54 2.291 . S
Eu11 C75 2.787 1_545 S
N12 C8 1.351 . S
N12 Eu11 2.562 . S
N12 C14 1.325 1_545 S
C13 C7 1.404 . S
C13 C15 1.366 . S
C13 H21 0.930 . S
C14 N12 1.325 1_565 S
C14 C15 1.416 . S
C14 H20 0.929 . S
C15 C13 1.366 . S
C15 C14 1.416 . S
C15 H17 0.930 . S
H16 C5 0.930 . S
H17 C15 0.930 . S
H18 C33 0.930 . S
H19 C40 0.930 1_655 S
H20 C14 0.929 . S
H21 C13 0.930 . S
H22 C36 0.929 . S
H23 C3 0.931 1_556 S
H24 C9 0.931 . S
H25 C10 0.931 1_565 S
H26 C31 0.931 . S
H27 C6 0.929 . S
H28 C39 0.930 . S
N29 Eu0 2.600 . S
N29 C30 1.365 . S
N29 C33 1.319 . S
C30 N29 1.365 . S
C30 C32 1.405 1_455 S
C30 C38 1.448 . S
C31 H26 0.931 . S
C31 C33 1.397 . S
C31 C34 1.367 . S
C32 C30 1.405 1_655 S
C32 C34 1.403 1_655 S
C32 C65 1.439 . S
C33 H18 0.930 . S
C33 N29 1.319 . S
C33 C31 1.397 . S
C34 C31 1.367 . S
C34 C32 1.403 1_455 S
C34 H41 0.929 1_455 S
N35 Eu0 2.562 . S
N35 C36 1.325 . S
N35 C38 1.351 . S
C36 H22 0.929 . S
C36 N35 1.325 . S
C36 C40 1.416 . S
C37 C38 1.430 1_655 S
C37 C39 1.404 . S
C37 C66 1.387 . S
C38 C30 1.448 . S
C38 N35 1.351 . S
C38 C37 1.430 1_455 S
C39 H28 0.930 . S
C39 C37 1.404 . S
C39 C40 1.366 1_655 S
C40 H19 0.930 1_455 S
C40 C36 1.416 . S
C40 C39 1.366 1_455 S
H41 C34 0.929 1_655 S
H42 C65 0.931 . S
H43 C66 0.931 . S
O44 Eu0 2.462 . S
O44 C64 1.252 . S
O45 Eu0 2.373 . S
O45 C56 1.249 . S
O46 Eu11 2.335 . S
O46 C56 1.264 . S
O47 Eu0 2.432 . S
O47 C64 1.268 . S
O48 Eu0 2.291 . S
O48 C63 1.255 . S
O49 Eu11 2.372 . S
O49 C63 1.257 . S
O50 Eu11 2.462 1_565 S
O50 C75 1.252 . S
O51 Eu11 2.373 . S
O51 C67 1.249 . S
O52 Eu0 2.335 . S
O52 C67 1.264 . S
O53 Eu11 2.432 1_565 S
O53 C75 1.268 . S
O54 Eu11 2.291 . S
O54 C74 1.255 . S
O55 Eu0 2.372 . S
O55 C74 1.257 . S
C56 O45 1.249 . S
C56 O46 1.264 . S
C57 C60 1.382 . S
C57 C62 1.390 . S
C57 C64 1.506 . S
C58 C59 1.398 . S
C58 C62 1.392 . S
C59 C58 1.398 . S
C59 C61 1.372 . S
C59 H76 0.931 . S
C60 C57 1.382 . S
C60 C61 1.390 . S
C60 H77 0.931 . S
C61 C59 1.372 . S
C61 C60 1.390 . S
C61 H78 0.929 . S
C62 C57 1.390 . S
C62 C58 1.392 . S
C62 H79 0.930 . S
C63 O48 1.255 . S
C63 O49 1.257 . S
C64 Eu0 2.787 . S
C64 O44 1.252 . S
C64 O47 1.268 . S
C64 C57 1.506 . S
C65 C32 1.439 . S
C65 H42 0.931 . S
C65 C66 1.374 . S
C66 C37 1.387 . S
C66 H43 0.931 . S
C66 C65 1.374 . S
C67 O51 1.249 . S
C67 O52 1.264 . S
C68 C71 1.382 . S
C68 C72 1.390 . S
C68 C75 1.506 . S
C69 C70 1.398 . S
C69 C72 1.392 . S
C70 C69 1.398 . S
C70 C73 1.372 . S
C70 H80 0.931 . S
C71 C68 1.382 . S
C71 C73 1.390 . S
C71 H81 0.931 . S
C72 C68 1.390 . S
C72 C69 1.392 . S
C72 H82 0.930 . S
C73 C70 1.372 . S
C73 C71 1.390 . S
C73 H83 0.929 . S
C74 O54 1.255 . S
C74 O55 1.257 . S
C75 Eu11 2.787 1_565 S
C75 O50 1.252 . S
C75 O53 1.268 . S
C75 C68 1.506 . S
H76 C59 0.931 . S
H77 C60 0.931 . S
H78 C61 0.929 . S
H79 C62 0.930 . S
H80 C70 0.931 . S
H81 C71 0.931 . S
H82 C72 0.930 . S
H83 C73 0.929 . S
Eu84 N113 2.600 . S
Eu84 N119 2.562 . S
Eu84 O128 2.462 . S
Eu84 O129 2.373 . S
Eu84 O131 2.432 . S
Eu84 O132 2.291 . S
Eu84 O136 2.335 . S
Eu84 O139 2.372 . S
Eu84 C148 2.787 . S
C85 N86 1.365 . S
C85 C88 1.405 . S
C85 C92 1.448 . S
N86 C85 1.365 . S
N86 C89 1.319 . S
N86 Eu95 2.600 . S
C87 C89 1.397 . S
C87 C90 1.367 . S
C87 H107 0.931 1_554 S
C88 C85 1.405 . S
C88 C90 1.403 . S
C88 C94 1.440 . S
C89 N86 1.319 . S
C89 C87 1.397 . S
C89 H100 0.930 . S
C90 C87 1.367 . S
C90 C88 1.403 . S
C90 H111 0.929 . S
C91 C92 1.430 1_545 S
C91 C93 1.387 . S
C91 C97 1.404 . S
C92 C85 1.448 . S
C92 C91 1.430 1_565 S
C92 N96 1.351 . S
C93 C91 1.387 . S
C93 C94 1.374 1_545 S
C93 H108 0.931 . S
C94 C88 1.440 . S
C94 C93 1.374 1_565 S
C94 H109 0.931 1_565 S
Eu95 N86 2.600 . S
Eu95 N96 2.562 . S
Eu95 O130 2.335 . S
Eu95 O133 2.372 . S
Eu95 O134 2.462 1_565 S
Eu95 O135 2.373 . S
Eu95 O137 2.432 1_565 S
Eu95 O138 2.291 . S
Eu95 C159 2.787 1_565 S
N96 C92 1.351 . S
N96 Eu95 2.562 . S
N96 C98 1.325 1_565 S
C97 C91 1.404 . S
C97 C99 1.366 . S
C97 H105 0.930 . S
C98 N96 1.325 1_545 S
C98 C99 1.416 . S
C98 H104 0.929 . S
C99 C97 1.366 . S
C99 C98 1.416 . S
C99 H101 0.930 . S
H100 C89 0.930 . S
H101 C99 0.930 . S
H102 C117 0.930 . S
H103 C124 0.930 1_455 S
H104 C98 0.929 . S
H105 C97 0.930 . S
H106 C120 0.929 . S
H107 C87 0.931 1_556 S
H108 C93 0.931 . S
H109 C94 0.931 1_545 S
H110 C115 0.931 . S
H111 C90 0.929 . S
H112 C123 0.930 . S
N113 Eu84 2.600 . S
N113 C114 1.365 . S
N113 C117 1.319 . S
C114 N113 1.365 . S
C114 C116 1.405 1_655 S
C114 C122 1.448 . S
C115 H110 0.931 . S
C115 C117 1.397 . S
C115 C118 1.367 . S
C116 C114 1.405 1_455 S
C116 C118 1.403 1_455 S
C116 C149 1.439 . S
C117 H102 0.930 . S
C117 N113 1.319 . S
C117 C115 1.397 . S
C118 C115 1.367 . S
C118 C116 1.403 1_655 S
C118 H125 0.929 1_655 S
N119 Eu84 2.562 . S
N119 C120 1.325 . S
N119 C122 1.351 . S
C120 H106 0.929 . S
C120 N119 1.325 . S
C120 C124 1.416 . S
C121 C122 1.430 1_455 S
C121 C123 1.404 . S
C121 C150 1.387 . S
C122 C114 1.448 . S
C122 N119 1.351 . S
C122 C121 1.430 1_655 S
C123 H112 0.930 . S
C123 C121 1.404 . S
C123 C124 1.366 1_455 S
C124 H103 0.930 1_655 S
C124 C120 1.416 . S
C124 C123 1.366 1_655 S
H125 C118 0.929 1_455 S
H126 C149 0.931 . S
H127 C150 0.931 . S
O128 Eu84 2.462 . S
O128 C148 1.252 . S
O129 Eu84 2.373 . S
O129 C140 1.249 . S
O130 Eu95 2.335 . S
O130 C140 1.264 . S
O131 Eu84 2.432 . S
O131 C148 1.268 . S
O132 Eu84 2.291 . S
O132 C147 1.255 . S
O133 Eu95 2.372 . S
O133 C147 1.257 . S
O134 Eu95 2.462 1_545 S
O134 C159 1.252 . S
O135 Eu95 2.373 . S
O135 C151 1.249 . S
O136 Eu84 2.335 . S
O136 C151 1.264 . S
O137 Eu95 2.432 1_545 S
O137 C159 1.268 . S
O138 Eu95 2.291 . S
O138 C158 1.255 . S
O139 Eu84 2.372 . S
O139 C158 1.257 . S
C140 O129 1.249 . S
C140 O130 1.264 . S
C141 C144 1.382 . S
C141 C146 1.390 . S
C141 C148 1.506 . S
C142 C143 1.398 . S
C142 C146 1.392 . S
C143 C142 1.398 . S
C143 C145 1.372 . S
C143 H160 0.931 . S
C144 C141 1.382 . S
C144 C145 1.390 . S
C144 H161 0.931 . S
C145 C143 1.372 . S
C145 C144 1.390 . S
C145 H162 0.929 . S
C146 C141 1.390 . S
C146 C142 1.392 . S
C146 H163 0.930 . S
C147 O132 1.255 . S
C147 O133 1.257 . S
C148 Eu84 2.787 . S
C148 O128 1.252 . S
C148 O131 1.268 . S
C148 C141 1.506 . S
C149 C116 1.439 . S
C149 H126 0.931 . S
C149 C150 1.374 . S
C150 C121 1.387 . S
C150 H127 0.931 . S
C150 C149 1.374 . S
C151 O135 1.249 . S
C151 O136 1.264 . S
C152 C155 1.382 . S
C152 C156 1.390 . S
C152 C159 1.506 . S
C153 C154 1.398 . S
C153 C156 1.392 . S
C154 C153 1.398 . S
C154 C157 1.372 . S
C154 H164 0.931 . S
C155 C152 1.382 . S
C155 C157 1.390 . S
C155 H165 0.931 . S
C156 C152 1.390 . S
C156 C153 1.392 . S
C156 H166 0.930 . S
C157 C154 1.372 . S
C157 C155 1.390 . S
C157 H167 0.929 . S
C158 O138 1.255 . S
C158 O139 1.257 . S
C159 Eu95 2.787 1_545 S
C159 O134 1.252 . S
C159 O137 1.268 . S
C159 C152 1.506 . S
H160 C143 0.931 . S
H161 C144 0.931 . S
H162 C145 0.929 . S
H163 C146 0.930 . S
H164 C154 0.931 . S
H165 C155 0.931 . S
H166 C156 0.930 . S
H167 C157 0.929 . S
Eu168 N197 2.600 . S
Eu168 N203 2.562 . S
Eu168 O212 2.462 . S
Eu168 O213 2.373 . S
Eu168 O215 2.432 . S
Eu168 O216 2.291 . S
Eu168 O220 2.335 . S
Eu168 O223 2.372 . S
Eu168 C232 2.787 . S
C169 N170 1.365 . S
C169 C172 1.405 . S
C169 C176 1.448 . S
N170 C169 1.365 . S
N170 C173 1.319 . S
N170 Eu179 2.600 . S
C171 C173 1.397 . S
C171 C174 1.367 . S
C171 H191 0.931 . S
C172 C169 1.405 . S
C172 C174 1.403 . S
C172 C178 1.440 . S
C173 N170 1.319 . S
C173 C171 1.397 . S
C173 H184 0.930 . S
C174 C171 1.367 . S
C174 C172 1.403 . S
C174 H195 0.929 . S
C175 C176 1.430 1_545 S
C175 C177 1.387 . S
C175 C181 1.404 . S
C176 C169 1.448 . S
C176 C175 1.430 1_565 S
C176 N180 1.351 . S
C177 C175 1.387 . S
C177 C178 1.374 1_545 S
C177 H192 0.931 . S
C178 C172 1.440 . S
C178 C177 1.374 1_565 S
C178 H193 0.931 1_565 S
Eu179 N170 2.600 . S
Eu179 N180 2.562 . S
Eu179 O214 2.335 . S
Eu179 O217 2.372 . S
Eu179 O218 2.462 1_565 S
Eu179 O219 2.373 . S
Eu179 O221 2.432 1_565 S
Eu179 O222 2.291 . S
Eu179 C243 2.787 1_565 S
N180 C176 1.351 . S
N180 Eu179 2.562 . S
N180 C182 1.325 1_565 S
C181 C175 1.404 . S
C181 C183 1.366 . S
C181 H189 0.930 . S
C182 N180 1.325 1_545 S
C182 C183 1.416 . S
C182 H188 0.929 . S
C183 C181 1.366 . S
C183 C182 1.416 . S
C183 H185 0.930 . S
H184 C173 0.930 . S
H185 C183 0.930 . S
H186 C201 0.930 . S
H187 C208 0.930 1_655 S
H188 C182 0.929 . S
H189 C181 0.930 . S
H190 C204 0.929 . S
H191 C171 0.931 . S
H192 C177 0.931 . S
H193 C178 0.931 1_545 S
H194 C199 0.931 . S
H195 C174 0.929 . S
H196 C207 0.930 . S
N197 Eu168 2.600 . S
N197 C198 1.365 . S
N197 C201 1.319 . S
C198 N197 1.365 . S
C198 C200 1.405 1_455 S
C198 C206 1.448 . S
C199 H194 0.931 . S
C199 C201 1.397 . S
C199 C202 1.367 . S
C200 C198 1.405 1_655 S
C200 C202 1.403 1_655 S
C200 C233 1.439 . S
C201 H186 0.930 . S
C201 N197 1.319 . S
C201 C199 1.397 . S
C202 C199 1.367 . S
C202 C200 1.403 1_455 S
C202 H209 0.929 1_455 S
N203 Eu168 2.562 . S
N203 C204 1.325 . S
N203 C206 1.351 . S
C204 H190 0.929 . S
C204 N203 1.325 . S
C204 C208 1.416 . S
C205 C206 1.430 1_655 S
C205 C207 1.404 . S
C205 C234 1.387 . S
C206 C198 1.448 . S
C206 N203 1.351 . S
C206 C205 1.430 1_455 S
C207 H196 0.930 . S
C207 C205 1.404 . S
C207 C208 1.366 1_655 S
C208 H187 0.930 1_455 S
C208 C204 1.416 . S
C208 C207 1.366 1_455 S
H209 C202 0.929 1_655 S
H210 C233 0.931 . S
H211 C234 0.931 . S
O212 Eu168 2.462 . S
O212 C232 1.252 . S
O213 Eu168 2.373 . S
O213 C224 1.249 . S
O214 Eu179 2.335 . S
O214 C224 1.264 . S
O215 Eu168 2.432 . S
O215 C232 1.268 . S
O216 Eu168 2.291 . S
O216 C231 1.255 . S
O217 Eu179 2.372 . S
O217 C231 1.257 . S
O218 Eu179 2.462 1_545 S
O218 C243 1.252 . S
O219 Eu179 2.373 . S
O219 C235 1.249 . S
O220 Eu168 2.335 . S
O220 C235 1.264 . S
O221 Eu179 2.432 1_545 S
O221 C243 1.268 . S
O222 Eu179 2.291 . S
O222 C242 1.255 . S
O223 Eu168 2.372 . S
O223 C242 1.257 . S
C224 O213 1.249 . S
C224 O214 1.264 . S
C225 C228 1.382 . S
C225 C230 1.390 . S
C225 C232 1.506 . S
C226 C227 1.398 . S
C226 C230 1.392 . S
C227 C226 1.398 . S
C227 C229 1.372 . S
C227 H244 0.931 . S
C228 C225 1.382 . S
C228 C229 1.390 . S
C228 H245 0.931 . S
C229 C227 1.372 . S
C229 C228 1.390 . S
C229 H246 0.929 . S
C230 C225 1.390 . S
C230 C226 1.392 . S
C230 H247 0.930 . S
C231 O216 1.255 . S
C231 O217 1.257 . S
C232 Eu168 2.787 . S
C232 O212 1.252 . S
C232 O215 1.268 . S
C232 C225 1.506 . S
C233 C200 1.439 . S
C233 H210 0.931 . S
C233 C234 1.374 . S
C234 C205 1.387 . S
C234 H211 0.931 . S
C234 C233 1.374 . S
C235 O219 1.249 . S
C235 O220 1.264 . S
C236 C239 1.382 . S
C236 C240 1.390 . S
C236 C243 1.506 . S
C237 C238 1.398 . S
C237 C240 1.392 . S
C238 C237 1.398 . S
C238 C241 1.372 . S
C238 H248 0.931 . S
C239 C236 1.382 . S
C239 C241 1.390 . S
C239 H249 0.931 . S
C240 C236 1.390 . S
C240 C237 1.392 . S
C240 H250 0.930 . S
C241 C238 1.372 . S
C241 C239 1.390 . S
C241 H251 0.929 . S
C242 O222 1.255 . S
C242 O223 1.257 . S
C243 Eu179 2.787 1_545 S
C243 O218 1.252 . S
C243 O221 1.268 . S
C243 C236 1.506 . S
H244 C227 0.931 . S
H245 C228 0.931 . S
H246 C229 0.929 . S
H247 C230 0.930 . S
H248 C238 0.931 . S
H249 C239 0.931 . S
H250 C240 0.930 . S
H251 C241 0.929 . S
Eu252 N281 2.600 . S
Eu252 N287 2.562 . S
Eu252 O296 2.462 . S
Eu252 O297 2.373 . S
Eu252 O299 2.432 . S
Eu252 O300 2.291 . S
Eu252 O304 2.335 . S
Eu252 O307 2.372 . S
Eu252 C316 2.787 . S
C253 N254 1.365 . S
C253 C256 1.405 . S
C253 C260 1.448 . S
N254 C253 1.365 . S
N254 C257 1.319 . S
N254 Eu263 2.600 . S
C255 C257 1.397 . S
C255 C258 1.367 . S
C255 H275 0.931 . S
C256 C253 1.405 . S
C256 C258 1.403 . S
C256 C262 1.440 . S
C257 N254 1.319 . S
C257 C255 1.397 . S
C257 H268 0.930 . S
C258 C255 1.367 . S
C258 C256 1.403 . S
C258 H279 0.929 . S
C259 C260 1.430 1_565 S
C259 C261 1.387 . S
C259 C265 1.404 . S
C260 C253 1.448 . S
C260 C259 1.430 1_545 S
C260 N264 1.351 . S
C261 C259 1.387 . S
C261 C262 1.374 1_565 S
C261 H276 0.931 . S
C262 C256 1.440 . S
C262 C261 1.374 1_545 S
C262 H277 0.931 1_545 S
Eu263 N254 2.600 . S
Eu263 N264 2.562 . S
Eu263 O298 2.335 . S
Eu263 O301 2.372 . S
Eu263 O302 2.462 1_545 S
Eu263 O303 2.373 . S
Eu263 O305 2.432 1_545 S
Eu263 O306 2.291 . S
Eu263 C327 2.787 1_545 S
N264 C260 1.351 . S
N264 Eu263 2.562 . S
N264 C266 1.325 1_545 S
C265 C259 1.404 . S
C265 C267 1.366 . S
C265 H273 0.930 . S
C266 N264 1.325 1_565 S
C266 C267 1.416 . S
C266 H272 0.929 . S
C267 C265 1.366 . S
C267 C266 1.416 . S
C267 H269 0.930 . S
H268 C257 0.930 . S
H269 C267 0.930 . S
H270 C285 0.930 . S
H271 C292 0.930 1_455 S
H272 C266 0.929 . S
H273 C265 0.930 . S
H274 C288 0.929 . S
H275 C255 0.931 . S
H276 C261 0.931 . S
H277 C262 0.931 1_565 S
H278 C283 0.931 . S
H279 C258 0.929 . S
H280 C291 0.930 . S
N281 Eu252 2.600 . S
N281 C282 1.365 . S
N281 C285 1.319 . S
C282 N281 1.365 . S
C282 C284 1.405 1_655 S
C282 C290 1.448 . S
C283 H278 0.931 . S
C283 C285 1.397 . S
C283 C286 1.367 . S
C284 C282 1.405 1_455 S
C284 C286 1.403 1_455 S
C284 C317 1.439 . S
C285 H270 0.930 . S
C285 N281 1.319 . S
C285 C283 1.397 . S
C286 C283 1.367 . S
C286 C284 1.403 1_655 S
C286 H293 0.929 1_655 S
N287 Eu252 2.562 . S
N287 C288 1.325 . S
N287 C290 1.351 . S
C288 H274 0.929 . S
C288 N287 1.325 . S
C288 C292 1.416 . S
C289 C290 1.430 1_455 S
C289 C291 1.404 . S
C289 C318 1.387 . S
C290 C282 1.448 . S
C290 N287 1.351 . S
C290 C289 1.430 1_655 S
C291 H280 0.930 . S
C291 C289 1.404 . S
C291 C292 1.366 1_455 S
C292 H271 0.930 1_655 S
C292 C288 1.416 . S
C292 C291 1.366 1_655 S
H293 C286 0.929 1_455 S
H294 C317 0.931 . S
H295 C318 0.931 . S
O296 Eu252 2.462 . S
O296 C316 1.252 . S
O297 Eu252 2.373 . S
O297 C308 1.249 . S
O298 Eu263 2.335 . S
O298 C308 1.264 . S
O299 Eu252 2.432 . S
O299 C316 1.268 . S
O300 Eu252 2.291 . S
O300 C315 1.255 . S
O301 Eu263 2.372 . S
O301 C315 1.257 . S
O302 Eu263 2.462 1_565 S
O302 C327 1.252 . S
O303 Eu263 2.373 . S
O303 C319 1.249 . S
O304 Eu252 2.335 . S
O304 C319 1.264 . S
O305 Eu263 2.432 1_565 S
O305 C327 1.268 . S
O306 Eu263 2.291 . S
O306 C326 1.255 . S
O307 Eu252 2.372 . S
O307 C326 1.257 . S
C308 O297 1.249 . S
C308 O298 1.264 . S
C309 C312 1.382 . S
C309 C314 1.390 . S
C309 C316 1.506 . S
C310 C311 1.398 . S
C310 C314 1.392 . S
C311 C310 1.398 . S
C311 C313 1.372 . S
C311 H328 0.931 . S
C312 C309 1.382 . S
C312 C313 1.390 . S
C312 H329 0.931 . S
C313 C311 1.372 . S
C313 C312 1.390 . S
C313 H330 0.929 . S
C314 C309 1.390 . S
C314 C310 1.392 . S
C314 H331 0.930 . S
C315 O300 1.255 . S
C315 O301 1.257 . S
C316 Eu252 2.787 . S
C316 O296 1.252 . S
C316 O299 1.268 . S
C316 C309 1.506 . S
C317 C284 1.439 . S
C317 H294 0.931 . S
C317 C318 1.374 . S
C318 C289 1.387 . S
C318 H295 0.931 . S
C318 C317 1.374 . S
C319 O303 1.249 . S
C319 O304 1.264 . S
C320 C323 1.382 . S
C320 C324 1.390 . S
C320 C327 1.506 . S
C321 C322 1.398 . S
C321 C324 1.392 . S
C322 C321 1.398 . S
C322 C325 1.372 . S
C322 H332 0.931 . S
C323 C320 1.382 . S
C323 C325 1.390 . S
C323 H333 0.931 . S
C324 C320 1.390 . S
C324 C321 1.392 . S
C324 H334 0.930 . S
C325 C322 1.372 . S
C325 C323 1.390 . S
C325 H335 0.929 . S
C326 O306 1.255 . S
C326 O307 1.257 . S
C327 Eu263 2.787 1_565 S
C327 O302 1.252 . S
C327 O305 1.268 . S
C327 C320 1.506 . S
H328 C311 0.931 . S
H329 C312 0.931 . S
H330 C313 0.929 . S
H331 C314 0.930 . S
H332 C322 0.931 . S
H333 C323 0.931 . S
H334 C324 0.930 . S
H335 C325 0.929 . S
Eu336 N365 2.600 . S
Eu336 N371 2.562 . S
Eu336 O380 2.462 1_565 S
Eu336 O381 2.373 . S
Eu336 O383 2.432 1_565 S
Eu336 O384 2.291 . S
Eu336 O388 2.335 . S
Eu336 O391 2.372 . S
Eu336 C400 2.787 1_565 S
C337 N338 1.365 . S
C337 C340 1.405 1_655 S
C337 C344 1.448 . S
N338 C337 1.365 . S
N338 C341 1.319 . S
N338 Eu347 2.600 . S
C339 C341 1.397 . S
C339 C342 1.367 . S
C339 H359 0.931 . S
C340 C337 1.405 1_455 S
C340 C342 1.403 1_455 S
C340 C346 1.439 . S
C341 N338 1.319 . S
C341 C339 1.397 . S
C341 H352 0.930 . S
C342 C339 1.367 . S
C342 C340 1.403 1_655 S
C342 H363 0.929 1_655 S
C343 C344 1.430 1_455 S
C343 C345 1.387 . S
C343 C349 1.404 . S
C344 C337 1.448 . S
C344 C343 1.430 1_655 S
C344 N348 1.351 . S
C345 C343 1.387 . S
C345 C346 1.374 . S
C345 H360 0.931 . S
C346 C340 1.439 . S
C346 C345 1.374 . S
C346 H361 0.931 . S
Eu347 N338 2.600 . S
Eu347 N348 2.562 . S
Eu347 O382 2.335 . S
Eu347 O385 2.372 . S
Eu347 O386 2.462 . S
Eu347 O387 2.373 . S
Eu347 O389 2.432 . S
Eu347 O390 2.291 . S
Eu347 C411 2.787 . S
N348 C344 1.351 . S
N348 Eu347 2.562 . S
N348 C350 1.325 . S
C349 C343 1.404 . S
C349 C351 1.366 1_455 S
C349 H357 0.930 . S
C350 N348 1.325 . S
C350 C351 1.416 . S
C350 H356 0.929 . S
C351 C349 1.366 1_655 S
C351 C350 1.416 . S
C351 H353 0.930 1_655 S
H352 C341 0.930 . S
H353 C351 0.930 1_455 S
H354 C369 0.930 . S
H355 C376 0.930 . S
H356 C350 0.929 . S
H357 C349 0.930 . S
H358 C372 0.929 . S
H359 C339 0.931 . S
H360 C345 0.931 . S
H361 C346 0.931 . S
H362 C367 0.931 1_554 S
H363 C342 0.929 1_455 S
H364 C375 0.930 . S
N365 Eu336 2.600 . S
N365 C366 1.365 . S
N365 C369 1.319 . S
C366 N365 1.365 . S
C366 C368 1.405 . S
C366 C374 1.448 . S
C367 H362 0.931 1_556 S
C367 C369 1.397 . S
C367 C370 1.367 . S
C368 C366 1.405 . S
C368 C370 1.403 . S
C368 C401 1.440 . S
C369 H354 0.930 . S
C369 N365 1.319 . S
C369 C367 1.397 . S
C370 C367 1.367 . S
C370 C368 1.403 . S
C370 H377 0.929 . S
N371 Eu336 2.562 . S
N371 C372 1.325 1_565 S
N371 C374 1.351 . S
C372 H358 0.929 . S
C372 N371 1.325 1_545 S
C372 C376 1.416 . S
C373 C374 1.430 1_545 S
C373 C375 1.404 . S
C373 C402 1.387 . S
C374 C366 1.448 . S
C374 N371 1.351 . S
C374 C373 1.430 1_565 S
C375 H364 0.930 . S
C375 C373 1.404 . S
C375 C376 1.366 . S
C376 H355 0.930 . S
C376 C372 1.416 . S
C376 C375 1.366 . S
H377 C370 0.929 . S
H378 C401 0.931 1_545 S
H379 C402 0.931 . S
O380 Eu336 2.462 1_545 S
O380 C400 1.252 . S
O381 Eu336 2.373 . S
O381 C392 1.249 . S
O382 Eu347 2.335 . S
O382 C392 1.264 . S
O383 Eu336 2.432 1_545 S
O383 C400 1.268 . S
O384 Eu336 2.291 . S
O384 C399 1.255 . S
O385 Eu347 2.372 . S
O385 C399 1.257 . S
O386 Eu347 2.462 . S
O386 C411 1.252 . S
O387 Eu347 2.373 . S
O387 C403 1.249 . S
O388 Eu336 2.335 . S
O388 C403 1.264 . S
O389 Eu347 2.432 . S
O389 C411 1.268 . S
O390 Eu347 2.291 . S
O390 C410 1.255 . S
O391 Eu336 2.372 . S
O391 C410 1.257 . S
C392 O381 1.249 . S
C392 O382 1.264 . S
C393 C396 1.382 . S
C393 C398 1.390 . S
C393 C400 1.506 . S
C394 C395 1.398 . S
C394 C398 1.392 . S
C395 C394 1.398 . S
C395 C397 1.372 . S
C395 H412 0.931 . S
C396 C393 1.382 . S
C396 C397 1.390 . S
C396 H413 0.931 . S
C397 C395 1.372 . S
C397 C396 1.390 . S
C397 H414 0.929 . S
C398 C393 1.390 . S
C398 C394 1.392 . S
C398 H415 0.930 . S
C399 O384 1.255 . S
C399 O385 1.257 . S
C400 Eu336 2.787 1_545 S
C400 O380 1.252 . S
C400 O383 1.268 . S
C400 C393 1.506 . S
C401 C368 1.440 . S
C401 H378 0.931 1_565 S
C401 C402 1.374 1_565 S
C402 C373 1.387 . S
C402 H379 0.931 . S
C402 C401 1.374 1_545 S
C403 O387 1.249 . S
C403 O388 1.264 . S
C404 C407 1.382 . S
C404 C408 1.390 . S
C404 C411 1.506 . S
C405 C406 1.398 . S
C405 C408 1.392 . S
C406 C405 1.398 . S
C406 C409 1.372 . S
C406 H416 0.931 . S
C407 C404 1.382 . S
C407 C409 1.390 . S
C407 H417 0.931 . S
C408 C404 1.390 . S
C408 C405 1.392 . S
C408 H418 0.930 . S
C409 C406 1.372 . S
C409 C407 1.390 . S
C409 H419 0.929 . S
C410 O390 1.255 . S
C410 O391 1.257 . S
C411 Eu347 2.787 . S
C411 O386 1.252 . S
C411 O389 1.268 . S
C411 C404 1.506 . S
H412 C395 0.931 . S
H413 C396 0.931 . S
H414 C397 0.929 . S
H415 C398 0.930 . S
H416 C406 0.931 . S
H417 C407 0.931 . S
H418 C408 0.930 . S
H419 C409 0.929 . S
Eu420 N449 2.600 . S
Eu420 N455 2.562 . S
Eu420 O464 2.462 1_545 S
Eu420 O465 2.373 . S
Eu420 O467 2.432 1_545 S
Eu420 O468 2.291 . S
Eu420 O472 2.335 . S
Eu420 O475 2.372 . S
Eu420 C484 2.787 1_545 S
C421 N422 1.365 . S
C421 C424 1.405 1_455 S
C421 C428 1.448 . S
N422 C421 1.365 . S
N422 C425 1.319 . S
N422 Eu431 2.600 . S
C423 C425 1.397 . S
C423 C426 1.367 . S
C423 H443 0.931 . S
C424 C421 1.405 1_655 S
C424 C426 1.403 1_655 S
C424 C430 1.439 . S
C425 N422 1.319 . S
C425 C423 1.397 . S
C425 H436 0.930 . S
C426 C423 1.367 . S
C426 C424 1.403 1_455 S
C426 H447 0.929 1_455 S
C427 C428 1.430 1_655 S
C427 C429 1.387 . S
C427 C433 1.404 . S
C428 C421 1.448 . S
C428 C427 1.430 1_455 S
C428 N432 1.351 . S
C429 C427 1.387 . S
C429 C430 1.374 . S
C429 H444 0.931 . S
C430 C424 1.439 . S
C430 C429 1.374 . S
C430 H445 0.931 . S
Eu431 N422 2.600 . S
Eu431 N432 2.562 . S
Eu431 O466 2.335 . S
Eu431 O469 2.372 . S
Eu431 O470 2.462 . S
Eu431 O471 2.373 . S
Eu431 O473 2.432 . S
Eu431 O474 2.291 . S
Eu431 C495 2.787 . S
N432 C428 1.351 . S
N432 Eu431 2.562 . S
N432 C434 1.325 . S
C433 C427 1.404 . S
C433 C435 1.366 1_655 S
C433 H441 0.930 . S
C434 N432 1.325 . S
C434 C435 1.416 . S
C434 H440 0.929 . S
C435 C433 1.366 1_455 S
C435 C434 1.416 . S
C435 H437 0.930 1_455 S
H436 C425 0.930 . S
H437 C435 0.930 1_655 S
H438 C453 0.930 . S
H439 C460 0.930 . S
H440 C434 0.929 . S
H441 C433 0.930 . S
H442 C456 0.929 . S
H443 C423 0.931 . S
H444 C429 0.931 . S
H445 C430 0.931 . S
H446 C451 0.931 1_554 S
H447 C426 0.929 1_655 S
H448 C459 0.930 . S
N449 Eu420 2.600 . S
N449 C450 1.365 . S
N449 C453 1.319 . S
C450 N449 1.365 . S
C450 C452 1.405 . S
C450 C458 1.448 . S
C451 H446 0.931 1_556 S
C451 C453 1.397 . S
C451 C454 1.367 . S
C452 C450 1.405 . S
C452 C454 1.403 . S
C452 C485 1.440 . S
C453 H438 0.930 . S
C453 N449 1.319 . S
C453 C451 1.397 . S
C454 C451 1.367 . S
C454 C452 1.403 . S
C454 H461 0.929 . S
N455 Eu420 2.562 . S
N455 C456 1.325 1_545 S
N455 C458 1.351 . S
C456 H442 0.929 . S
C456 N455 1.325 1_565 S
C456 C460 1.416 . S
C457 C458 1.430 1_565 S
C457 C459 1.404 . S
C457 C486 1.387 . S
C458 C450 1.448 . S
C458 N455 1.351 . S
C458 C457 1.430 1_545 S
C459 H448 0.930 . S
C459 C457 1.404 . S
C459 C460 1.366 . S
C460 H439 0.930 . S
C460 C456 1.416 . S
C460 C459 1.366 . S
H461 C454 0.929 . S
H462 C485 0.931 1_565 S
H463 C486 0.931 . S
O464 Eu420 2.462 1_565 S
O464 C484 1.252 . S
O465 Eu420 2.373 . S
O465 C476 1.249 . S
O466 Eu431 2.335 . S
O466 C476 1.264 . S
O467 Eu420 2.432 1_565 S
O467 C484 1.268 . S
O468 Eu420 2.291 . S
O468 C483 1.255 . S
O469 Eu431 2.372 . S
O469 C483 1.257 . S
O470 Eu431 2.462 . S
O470 C495 1.252 . S
O471 Eu431 2.373 . S
O471 C487 1.249 . S
O472 Eu420 2.335 . S
O472 C487 1.264 . S
O473 Eu431 2.432 . S
O473 C495 1.268 . S
O474 Eu431 2.291 . S
O474 C494 1.255 . S
O475 Eu420 2.372 . S
O475 C494 1.257 . S
C476 O465 1.249 . S
C476 O466 1.264 . S
C477 C480 1.382 . S
C477 C482 1.390 . S
C477 C484 1.506 . S
C478 C479 1.398 . S
C478 C482 1.392 . S
C479 C478 1.398 . S
C479 C481 1.372 . S
C479 H496 0.931 . S
C480 C477 1.382 . S
C480 C481 1.390 . S
C480 H497 0.931 . S
C481 C479 1.372 . S
C481 C480 1.390 . S
C481 H498 0.929 . S
C482 C477 1.390 . S
C482 C478 1.392 . S
C482 H499 0.930 . S
C483 O468 1.255 . S
C483 O469 1.257 . S
C484 Eu420 2.787 1_565 S
C484 O464 1.252 . S
C484 O467 1.268 . S
C484 C477 1.506 . S
C485 C452 1.440 . S
C485 H462 0.931 1_545 S
C485 C486 1.374 1_545 S
C486 C457 1.387 . S
C486 H463 0.931 . S
C486 C485 1.374 1_565 S
C487 O471 1.249 . S
C487 O472 1.264 . S
C488 C491 1.382 . S
C488 C492 1.390 . S
C488 C495 1.506 . S
C489 C490 1.398 . S
C489 C492 1.392 . S
C490 C489 1.398 . S
C490 C493 1.372 . S
C490 H500 0.931 . S
C491 C488 1.382 . S
C491 C493 1.390 . S
C491 H501 0.931 . S
C492 C488 1.390 . S
C492 C489 1.392 . S
C492 H502 0.930 . S
C493 C490 1.372 . S
C493 C491 1.390 . S
C493 H503 0.929 . S
C494 O474 1.255 . S
C494 O475 1.257 . S
C495 Eu431 2.787 . S
C495 O470 1.252 . S
C495 O473 1.268 . S
C495 C488 1.506 . S
H496 C479 0.931 . S
H497 C480 0.931 . S
H498 C481 0.929 . S
H499 C482 0.930 . S
H500 C490 0.931 . S
H501 C491 0.931 . S
H502 C492 0.930 . S
H503 C493 0.929 . S
Eu504 N533 2.600 . S
Eu504 N539 2.562 . S
Eu504 O548 2.462 1_545 S
Eu504 O549 2.373 . S
Eu504 O551 2.432 1_545 S
Eu504 O552 2.291 . S
Eu504 O556 2.335 . S
Eu504 O559 2.372 . S
Eu504 C568 2.787 1_545 S
C505 N506 1.365 . S
C505 C508 1.405 1_655 S
C505 C512 1.448 . S
N506 C505 1.365 . S
N506 C509 1.319 . S
N506 Eu515 2.600 . S
C507 C509 1.397 . S
C507 C510 1.367 . S
C507 H527 0.931 . S
C508 C505 1.405 1_455 S
C508 C510 1.403 1_455 S
C508 C514 1.439 . S
C509 N506 1.319 . S
C509 C507 1.397 . S
C509 H520 0.930 . S
C510 C507 1.367 . S
C510 C508 1.403 1_655 S
C510 H531 0.929 1_655 S
C511 C512 1.430 1_455 S
C511 C513 1.387 . S
C511 C517 1.404 . S
C512 C505 1.448 . S
C512 C511 1.430 1_655 S
C512 N516 1.351 . S
C513 C511 1.387 . S
C513 C514 1.374 . S
C513 H528 0.931 . S
C514 C508 1.439 . S
C514 C513 1.374 . S
C514 H529 0.931 . S
Eu515 N506 2.600 . S
Eu515 N516 2.562 . S
Eu515 O550 2.335 . S
Eu515 O553 2.372 . S
Eu515 O554 2.462 . S
Eu515 O555 2.373 . S
Eu515 O557 2.432 . S
Eu515 O558 2.291 . S
Eu515 C579 2.787 . S
N516 C512 1.351 . S
N516 Eu515 2.562 . S
N516 C518 1.325 . S
C517 C511 1.404 . S
C517 C519 1.366 1_455 S
C517 H525 0.930 . S
C518 N516 1.325 . S
C518 C519 1.416 . S
C518 H524 0.929 . S
C519 C517 1.366 1_655 S
C519 C518 1.416 . S
C519 H521 0.930 1_655 S
H520 C509 0.930 . S
H521 C519 0.930 1_455 S
H522 C537 0.930 . S
H523 C544 0.930 . S
H524 C518 0.929 . S
H525 C517 0.930 . S
H526 C540 0.929 . S
H527 C507 0.931 . S
H528 C513 0.931 . S
H529 C514 0.931 . S
H530 C535 0.931 . S
H531 C510 0.929 1_455 S
H532 C543 0.930 . S
N533 Eu504 2.600 . S
N533 C534 1.365 . S
N533 C537 1.319 . S
C534 N533 1.365 . S
C534 C536 1.405 . S
C534 C542 1.448 . S
C535 H530 0.931 . S
C535 C537 1.397 . S
C535 C538 1.367 . S
C536 C534 1.405 . S
C536 C538 1.403 . S
C536 C569 1.440 . S
C537 H522 0.930 . S
C537 N533 1.319 . S
C537 C535 1.397 . S
C538 C535 1.367 . S
C538 C536 1.403 . S
C538 H545 0.929 . S
N539 Eu504 2.562 . S
N539 C540 1.325 1_545 S
N539 C542 1.351 . S
C540 H526 0.929 . S
C540 N539 1.325 1_565 S
C540 C544 1.416 . S
C541 C542 1.430 1_565 S
C541 C543 1.404 . S
C541 C570 1.387 . S
C542 C534 1.448 . S
C542 N539 1.351 . S
C542 C541 1.430 1_545 S
C543 H532 0.930 . S
C543 C541 1.404 . S
C543 C544 1.366 . S
C544 H523 0.930 . S
C544 C540 1.416 . S
C544 C543 1.366 . S
H545 C538 0.929 . S
H546 C569 0.931 1_565 S
H547 C570 0.931 . S
O548 Eu504 2.462 1_565 S
O548 C568 1.252 . S
O549 Eu504 2.373 . S
O549 C560 1.249 . S
O550 Eu515 2.335 . S
O550 C560 1.264 . S
O551 Eu504 2.432 1_565 S
O551 C568 1.268 . S
O552 Eu504 2.291 . S
O552 C567 1.255 . S
O553 Eu515 2.372 . S
O553 C567 1.257 . S
O554 Eu515 2.462 . S
O554 C579 1.252 . S
O555 Eu515 2.373 . S
O555 C571 1.249 . S
O556 Eu504 2.335 . S
O556 C571 1.264 . S
O557 Eu515 2.432 . S
O557 C579 1.268 . S
O558 Eu515 2.291 . S
O558 C578 1.255 . S
O559 Eu504 2.372 . S
O559 C578 1.257 . S
C560 O549 1.249 . S
C560 O550 1.264 . S
C561 C564 1.382 . S
C561 C566 1.390 . S
C561 C568 1.506 . S
C562 C563 1.398 . S
C562 C566 1.392 . S
C563 C562 1.398 . S
C563 C565 1.372 . S
C563 H580 0.931 . S
C564 C561 1.382 . S
C564 C565 1.390 . S
C564 H581 0.931 . S
C565 C563 1.372 . S
C565 C564 1.390 . S
C565 H582 0.929 . S
C566 C561 1.390 . S
C566 C562 1.392 . S
C566 H583 0.930 . S
C567 O552 1.255 . S
C567 O553 1.257 . S
C568 Eu504 2.787 1_565 S
C568 O548 1.252 . S
C568 O551 1.268 . S
C568 C561 1.506 . S
C569 C536 1.440 . S
C569 H546 0.931 1_545 S
C569 C570 1.374 1_545 S
C570 C541 1.387 . S
C570 H547 0.931 . S
C570 C569 1.374 1_565 S
C571 O555 1.249 . S
C571 O556 1.264 . S
C572 C575 1.382 . S
C572 C576 1.390 . S
C572 C579 1.506 . S
C573 C574 1.398 . S
C573 C576 1.392 . S
C574 C573 1.398 . S
C574 C577 1.372 . S
C574 H584 0.931 . S
C575 C572 1.382 . S
C575 C577 1.390 . S
C575 H585 0.931 . S
C576 C572 1.390 . S
C576 C573 1.392 . S
C576 H586 0.930 . S
C577 C574 1.372 . S
C577 C575 1.390 . S
C577 H587 0.929 . S
C578 O558 1.255 . S
C578 O559 1.257 . S
C579 Eu515 2.787 . S
C579 O554 1.252 . S
C579 O557 1.268 . S
C579 C572 1.506 . S
H580 C563 0.931 . S
H581 C564 0.931 . S
H582 C565 0.929 . S
H583 C566 0.930 . S
H584 C574 0.931 . S
H585 C575 0.931 . S
H586 C576 0.930 . S
H587 C577 0.929 . S
Eu588 N617 2.600 . S
Eu588 N623 2.562 . S
Eu588 O632 2.462 1_565 S
Eu588 O633 2.373 . S
Eu588 O635 2.432 1_565 S
Eu588 O636 2.291 . S
Eu588 O640 2.335 . S
Eu588 O643 2.372 . S
Eu588 C652 2.787 1_565 S
C589 N590 1.365 . S
C589 C592 1.405 1_455 S
C589 C596 1.448 . S
N590 C589 1.365 . S
N590 C593 1.319 . S
N590 Eu599 2.600 . S
C591 C593 1.397 . S
C591 C594 1.367 . S
C591 H611 0.931 . S
C592 C589 1.405 1_655 S
C592 C594 1.403 1_655 S
C592 C598 1.439 . S
C593 N590 1.319 . S
C593 C591 1.397 . S
C593 H604 0.930 . S
C594 C591 1.367 . S
C594 C592 1.403 1_455 S
C594 H615 0.929 1_455 S
C595 C596 1.430 1_655 S
C595 C597 1.387 . S
C595 C601 1.404 . S
C596 C589 1.448 . S
C596 C595 1.430 1_455 S
C596 N600 1.351 . S
C597 C595 1.387 . S
C597 C598 1.374 . S
C597 H612 0.931 . S
C598 C592 1.439 . S
C598 C597 1.374 . S
C598 H613 0.931 . S
Eu599 N590 2.600 . S
Eu599 N600 2.562 . S
Eu599 O634 2.335 . S
Eu599 O637 2.372 . S
Eu599 O638 2.462 . S
Eu599 O639 2.373 . S
Eu599 O641 2.432 . S
Eu599 O642 2.291 . S
Eu599 C663 2.787 . S
N600 C596 1.351 . S
N600 Eu599 2.562 . S
N600 C602 1.325 . S
C601 C595 1.404 . S
C601 C603 1.366 1_655 S
C601 H609 0.930 . S
C602 N600 1.325 . S
C602 C603 1.416 . S
C602 H608 0.929 . S
C603 C601 1.366 1_455 S
C603 C602 1.416 . S
C603 H605 0.930 1_455 S
H604 C593 0.930 . S
H605 C603 0.930 1_655 S
H606 C621 0.930 . S
H607 C628 0.930 . S
H608 C602 0.929 . S
H609 C601 0.930 . S
H610 C624 0.929 . S
H611 C591 0.931 . S
H612 C597 0.931 . S
H613 C598 0.931 . S
H614 C619 0.931 . S
H615 C594 0.929 1_655 S
H616 C627 0.930 . S
N617 Eu588 2.600 . S
N617 C618 1.365 . S
N617 C621 1.319 . S
C618 N617 1.365 . S
C618 C620 1.405 . S
C618 C626 1.448 . S
C619 H614 0.931 . S
C619 C621 1.397 . S
C619 C622 1.367 . S
C620 C618 1.405 . S
C620 C622 1.403 . S
C620 C653 1.440 . S
C621 H606 0.930 . S
C621 N617 1.319 . S
C621 C619 1.397 . S
C622 C619 1.367 . S
C622 C620 1.403 . S
C622 H629 0.929 . S
N623 Eu588 2.562 . S
N623 C624 1.325 1_565 S
N623 C626 1.351 . S
C624 H610 0.929 . S
C624 N623 1.325 1_545 S
C624 C628 1.416 . S
C625 C626 1.430 1_545 S
C625 C627 1.404 . S
C625 C654 1.387 . S
C626 C618 1.448 . S
C626 N623 1.351 . S
C626 C625 1.430 1_565 S
C627 H616 0.930 . S
C627 C625 1.404 . S
C627 C628 1.366 . S
C628 H607 0.930 . S
C628 C624 1.416 . S
C628 C627 1.366 . S
H629 C622 0.929 . S
H630 C653 0.931 1_545 S
H631 C654 0.931 . S
O632 Eu588 2.462 1_545 S
O632 C652 1.252 . S
O633 Eu588 2.373 . S
O633 C644 1.249 . S
O634 Eu599 2.335 . S
O634 C644 1.264 . S
O635 Eu588 2.432 1_545 S
O635 C652 1.268 . S
O636 Eu588 2.291 . S
O636 C651 1.255 . S
O637 Eu599 2.372 . S
O637 C651 1.257 . S
O638 Eu599 2.462 . S
O638 C663 1.252 . S
O639 Eu599 2.373 . S
O639 C655 1.249 . S
O640 Eu588 2.335 . S
O640 C655 1.264 . S
O641 Eu599 2.432 . S
O641 C663 1.268 . S
O642 Eu599 2.291 . S
O642 C662 1.255 . S
O643 Eu588 2.372 . S
O643 C662 1.257 . S
C644 O633 1.249 . S
C644 O634 1.264 . S
C645 C648 1.382 . S
C645 C650 1.390 . S
C645 C652 1.506 . S
C646 C647 1.398 . S
C646 C650 1.392 . S
C647 C646 1.398 . S
C647 C649 1.372 . S
C647 H664 0.931 . S
C648 C645 1.382 . S
C648 C649 1.390 . S
C648 H665 0.931 . S
C649 C647 1.372 . S
C649 C648 1.390 . S
C649 H666 0.929 . S
C650 C645 1.390 . S
C650 C646 1.392 . S
C650 H667 0.930 . S
C651 O636 1.255 . S
C651 O637 1.257 . S
C652 Eu588 2.787 1_545 S
C652 O632 1.252 . S
C652 O635 1.268 . S
C652 C645 1.506 . S
C653 C620 1.440 . S
C653 H630 0.931 1_565 S
C653 C654 1.374 1_565 S
C654 C625 1.387 . S
C654 H631 0.931 . S
C654 C653 1.374 1_545 S
C655 O639 1.249 . S
C655 O640 1.264 . S
C656 C659 1.382 . S
C656 C660 1.390 . S
C656 C663 1.506 . S
C657 C658 1.398 . S
C657 C660 1.392 . S
C658 C657 1.398 . S
C658 C661 1.372 . S
C658 H668 0.931 . S
C659 C656 1.382 . S
C659 C661 1.390 . S
C659 H669 0.931 . S
C660 C656 1.390 . S
C660 C657 1.392 . S
C660 H670 0.930 . S
C661 C658 1.372 . S
C661 C659 1.390 . S
C661 H671 0.929 . S
C662 O642 1.255 . S
C662 O643 1.257 . S
C663 Eu599 2.787 . S
C663 O638 1.252 . S
C663 O641 1.268 . S
C663 C656 1.506 . S
H664 C647 0.931 . S
H665 C648 0.931 . S
H666 C649 0.929 . S
H667 C650 0.930 . S
H668 C658 0.931 . S
H669 C659 0.931 . S
H670 C660 0.930 . S
H671 C661 0.929 . S
Eu672 N701 2.600 . S
Eu672 N707 2.562 . S
Eu672 O716 2.462 . S
Eu672 O717 2.373 . S
Eu672 O719 2.432 . S
Eu672 O720 2.291 . S
Eu672 O724 2.335 . S
Eu672 O727 2.372 . S
Eu672 C736 2.787 . S
C673 N674 1.365 . S
C673 C676 1.405 . S
C673 C680 1.448 . S
N674 C673 1.365 . S
N674 C677 1.319 . S
N674 Eu683 2.600 . S
C675 C677 1.397 . S
C675 C678 1.367 . S
C675 H695 0.931 1_554 S
C676 C673 1.405 . S
C676 C678 1.403 . S
C676 C682 1.439 . S
C677 N674 1.319 . S
C677 C675 1.397 . S
C677 H688 0.930 . S
C678 C675 1.367 . S
C678 C676 1.403 . S
C678 H699 0.929 . S
C679 C680 1.430 . S
C679 C681 1.387 . S
C679 C685 1.404 . S
C680 C673 1.448 . S
C680 C679 1.430 . S
C680 N684 1.351 . S
C681 C679 1.387 . S
C681 C682 1.374 . S
C681 H696 0.931 . S
C682 C676 1.439 . S
C682 C681 1.374 . S
C682 H697 0.931 . S
Eu683 N674 2.600 . S
Eu683 N684 2.562 . S
Eu683 O718 2.335 . S
Eu683 O721 2.372 . S
Eu683 O722 2.462 . S
Eu683 O723 2.373 . S
Eu683 O725 2.432 . S
Eu683 O726 2.291 . S
Eu683 C747 2.787 . S
N684 C680 1.351 . S
N684 Eu683 2.562 . S
N684 C686 1.325 . S
C685 C679 1.404 . S
C685 C687 1.366 . S
C685 H693 0.930 . S
C686 N684 1.325 . S
C686 C687 1.416 . S
C686 H692 0.929 . S
C687 C685 1.366 . S
C687 C686 1.416 . S
C687 H689 0.930 . S
H688 C677 0.930 . S
H689 C687 0.930 . S
H690 C705 0.930 . S
H691 C712 0.930 . S
H692 C686 0.929 . S
H693 C685 0.930 . S
H694 C708 0.929 . S
H695 C675 0.931 1_556 S
H696 C681 0.931 . S
H697 C682 0.931 . S
H698 C703 0.931 . S
H699 C678 0.929 . S
H700 C711 0.930 . S
N701 Eu672 2.600 . S
N701 C702 1.365 . S
N701 C705 1.319 . S
C702 N701 1.365 . S
C702 C704 1.405 . S
C702 C710 1.448 . S
C703 H698 0.931 . S
C703 C705 1.397 . S
C703 C706 1.367 . S
C704 C702 1.405 . S
C704 C706 1.403 . S
C704 C737 1.439 . S
C705 H690 0.930 . S
C705 N701 1.319 . S
C705 C703 1.397 . S
C706 C703 1.367 . S
C706 C704 1.403 . S
C706 H713 0.929 . S
N707 Eu672 2.562 . S
N707 C708 1.325 . S
N707 C710 1.351 . S
C708 H694 0.929 . S
C708 N707 1.325 . S
C708 C712 1.416 . S
C709 C710 1.430 . S
C709 C711 1.404 . S
C709 C738 1.387 . S
C710 C702 1.448 . S
C710 N707 1.351 . S
C710 C709 1.430 . S
C711 H700 0.930 . S
C711 C709 1.404 . S
C711 C712 1.366 . S
C712 H691 0.930 . S
C712 C708 1.416 . S
C712 C711 1.366 . S
H713 C706 0.929 . S
H714 C737 0.931 . S
H715 C738 0.931 . S
O716 Eu672 2.462 . S
O716 C736 1.252 . S
O717 Eu672 2.373 . S
O717 C728 1.249 . S
O718 Eu683 2.335 . S
O718 C728 1.264 . S
O719 Eu672 2.432 . S
O719 C736 1.268 . S
O720 Eu672 2.291 . S
O720 C735 1.255 . S
O721 Eu683 2.372 . S
O721 C735 1.257 . S
O722 Eu683 2.462 . S
O722 C747 1.252 . S
O723 Eu683 2.373 . S
O723 C739 1.249 . S
O724 Eu672 2.335 . S
O724 C739 1.264 . S
O725 Eu683 2.432 . S
O725 C747 1.268 . S
O726 Eu683 2.291 . S
O726 C746 1.255 . S
O727 Eu672 2.372 . S
O727 C746 1.257 . S
C728 O717 1.249 . S
C728 O718 1.264 . S
C729 C732 1.382 . S
C729 C734 1.390 . S
C729 C736 1.506 . S
C730 C731 1.398 1_565 S
C730 C734 1.392 . S
C731 C730 1.398 1_545 S
C731 C733 1.372 1_545 S
C731 H748 0.931 . S
C732 C729 1.382 . S
C732 C733 1.390 . S
C732 H749 0.931 . S
C733 C731 1.372 1_565 S
C733 C732 1.390 . S
C733 H750 0.929 1_565 S
C734 C729 1.390 . S
C734 C730 1.392 . S
C734 H751 0.930 . S
C735 O720 1.255 . S
C735 O721 1.257 . S
C736 Eu672 2.787 . S
C736 O716 1.252 . S
C736 O719 1.268 . S
C736 C729 1.506 . S
C737 C704 1.439 . S
C737 H714 0.931 . S
C737 C738 1.374 . S
C738 C709 1.387 . S
C738 H715 0.931 . S
C738 C737 1.374 . S
C739 O723 1.249 . S
C739 O724 1.264 . S
C740 C743 1.382 . S
C740 C744 1.390 . S
C740 C747 1.506 . S
C741 C742 1.398 . S
C741 C744 1.392 . S
C742 C741 1.398 . S
C742 C745 1.372 . S
C742 H752 0.931 . S
C743 C740 1.382 . S
C743 C745 1.390 . S
C743 H753 0.931 . S
C744 C740 1.390 . S
C744 C741 1.392 . S
C744 H754 0.930 . S
C745 C742 1.372 . S
C745 C743 1.390 . S
C745 H755 0.929 . S
C746 O726 1.255 . S
C746 O727 1.257 . S
C747 Eu683 2.787 . S
C747 O722 1.252 . S
C747 O725 1.268 . S
C747 C740 1.506 . S
H748 C731 0.931 . S
H749 C732 0.931 . S
H750 C733 0.929 1_545 S
H751 C734 0.930 . S
H752 C742 0.931 . S
H753 C743 0.931 . S
H754 C744 0.930 . S
H755 C745 0.929 . S
Eu756 N785 2.600 . S
Eu756 N791 2.562 . S
Eu756 O800 2.462 . S
Eu756 O801 2.373 . S
Eu756 O803 2.432 . S
Eu756 O804 2.291 . S
Eu756 O808 2.335 . S
Eu756 O811 2.372 . S
Eu756 C820 2.787 . S
C757 N758 1.365 . S
C757 C760 1.405 . S
C757 C764 1.448 . S
N758 C757 1.365 . S
N758 C761 1.319 . S
N758 Eu767 2.600 . S
C759 C761 1.397 . S
C759 C762 1.367 . S
C759 H779 0.931 1_554 S
C760 C757 1.405 . S
C760 C762 1.403 . S
C760 C766 1.439 . S
C761 N758 1.319 . S
C761 C759 1.397 . S
C761 H772 0.930 . S
C762 C759 1.367 . S
C762 C760 1.403 . S
C762 H783 0.929 . S
C763 C764 1.430 . S
C763 C765 1.387 . S
C763 C769 1.404 . S
C764 C757 1.448 . S
C764 C763 1.430 . S
C764 N768 1.351 . S
C765 C763 1.387 . S
C765 C766 1.374 . S
C765 H780 0.931 . S
C766 C760 1.439 . S
C766 C765 1.374 . S
C766 H781 0.931 . S
Eu767 N758 2.600 . S
Eu767 N768 2.562 . S
Eu767 O802 2.335 . S
Eu767 O805 2.372 . S
Eu767 O806 2.462 . S
Eu767 O807 2.373 . S
Eu767 O809 2.432 . S
Eu767 O810 2.291 . S
Eu767 C831 2.787 . S
N768 C764 1.351 . S
N768 Eu767 2.562 . S
N768 C770 1.325 . S
C769 C763 1.404 . S
C769 C771 1.366 . S
C769 H777 0.930 . S
C770 N768 1.325 . S
C770 C771 1.416 . S
C770 H776 0.929 . S
C771 C769 1.366 . S
C771 C770 1.416 . S
C771 H773 0.930 . S
H772 C761 0.930 . S
H773 C771 0.930 . S
H774 C789 0.930 . S
H775 C796 0.930 . S
H776 C770 0.929 . S
H777 C769 0.930 . S
H778 C792 0.929 . S
H779 C759 0.931 1_556 S
H780 C765 0.931 . S
H781 C766 0.931 . S
H782 C787 0.931 . S
H783 C762 0.929 . S
H784 C795 0.930 . S
N785 Eu756 2.600 . S
N785 C786 1.365 . S
N785 C789 1.319 . S
C786 N785 1.365 . S
C786 C788 1.405 . S
C786 C794 1.448 . S
C787 H782 0.931 . S
C787 C789 1.397 . S
C787 C790 1.367 . S
C788 C786 1.405 . S
C788 C790 1.403 . S
C788 C821 1.439 . S
C789 H774 0.930 . S
C789 N785 1.319 . S
C789 C787 1.397 . S
C790 C787 1.367 . S
C790 C788 1.403 . S
C790 H797 0.929 . S
N791 Eu756 2.562 . S
N791 C792 1.325 . S
N791 C794 1.351 . S
C792 H778 0.929 . S
C792 N791 1.325 . S
C792 C796 1.416 . S
C793 C794 1.430 . S
C793 C795 1.404 . S
C793 C822 1.387 . S
C794 C786 1.448 . S
C794 N791 1.351 . S
C794 C793 1.430 . S
C795 H784 0.930 . S
C795 C793 1.404 . S
C795 C796 1.366 . S
C796 H775 0.930 . S
C796 C792 1.416 . S
C796 C795 1.366 . S
H797 C790 0.929 . S
H798 C821 0.931 . S
H799 C822 0.931 . S
O800 Eu756 2.462 . S
O800 C820 1.252 . S
O801 Eu756 2.373 . S
O801 C812 1.249 . S
O802 Eu767 2.335 . S
O802 C812 1.264 . S
O803 Eu756 2.432 . S
O803 C820 1.268 . S
O804 Eu756 2.291 . S
O804 C819 1.255 . S
O805 Eu767 2.372 . S
O805 C819 1.257 . S
O806 Eu767 2.462 . S
O806 C831 1.252 . S
O807 Eu767 2.373 . S
O807 C823 1.249 . S
O808 Eu756 2.335 . S
O808 C823 1.264 . S
O809 Eu767 2.432 . S
O809 C831 1.268 . S
O810 Eu767 2.291 . S
O810 C830 1.255 . S
O811 Eu756 2.372 . S
O811 C830 1.257 . S
C812 O801 1.249 . S
C812 O802 1.264 . S
C813 C816 1.382 . S
C813 C818 1.390 . S
C813 C820 1.506 . S
C814 C815 1.398 1_545 S
C814 C818 1.392 . S
C815 C814 1.398 1_565 S
C815 C817 1.372 1_565 S
C815 H832 0.931 . S
C816 C813 1.382 . S
C816 C817 1.390 . S
C816 H833 0.931 . S
C817 C815 1.372 1_545 S
C817 C816 1.390 . S
C817 H834 0.929 1_545 S
C818 C813 1.390 . S
C818 C814 1.392 . S
C818 H835 0.930 . S
C819 O804 1.255 . S
C819 O805 1.257 . S
C820 Eu756 2.787 . S
C820 O800 1.252 . S
C820 O803 1.268 . S
C820 C813 1.506 . S
C821 C788 1.439 . S
C821 H798 0.931 . S
C821 C822 1.374 . S
C822 C793 1.387 . S
C822 H799 0.931 . S
C822 C821 1.374 . S
C823 O807 1.249 . S
C823 O808 1.264 . S
C824 C827 1.382 . S
C824 C828 1.390 . S
C824 C831 1.506 . S
C825 C826 1.398 . S
C825 C828 1.392 . S
C826 C825 1.398 . S
C826 C829 1.372 . S
C826 H836 0.931 . S
C827 C824 1.382 . S
C827 C829 1.390 . S
C827 H837 0.931 . S
C828 C824 1.390 . S
C828 C825 1.392 . S
C828 H838 0.930 . S
C829 C826 1.372 . S
C829 C827 1.390 . S
C829 H839 0.929 . S
C830 O810 1.255 . S
C830 O811 1.257 . S
C831 Eu767 2.787 . S
C831 O806 1.252 . S
C831 O809 1.268 . S
C831 C824 1.506 . S
H832 C815 0.931 . S
H833 C816 0.931 . S
H834 C817 0.929 1_565 S
H835 C818 0.930 . S
H836 C826 0.931 . S
H837 C827 0.931 . S
H838 C828 0.930 . S
H839 C829 0.929 . S
Eu840 N869 2.600 . S
Eu840 N875 2.562 . S
Eu840 O884 2.462 . S
Eu840 O885 2.373 . S
Eu840 O887 2.432 . S
Eu840 O888 2.291 . S
Eu840 O892 2.335 . S
Eu840 O895 2.372 . S
Eu840 C904 2.787 . S
C841 N842 1.365 . S
C841 C844 1.405 . S
C841 C848 1.448 . S
N842 C841 1.365 . S
N842 C845 1.319 . S
N842 Eu851 2.600 . S
C843 C845 1.397 . S
C843 C846 1.367 . S
C843 H863 0.931 . S
C844 C841 1.405 . S
C844 C846 1.403 . S
C844 C850 1.439 . S
C845 N842 1.319 . S
C845 C843 1.397 . S
C845 H856 0.930 . S
C846 C843 1.367 . S
C846 C844 1.403 . S
C846 H867 0.929 . S
C847 C848 1.430 . S
C847 C849 1.387 . S
C847 C853 1.404 . S
C848 C841 1.448 . S
C848 C847 1.430 . S
C848 N852 1.351 . S
C849 C847 1.387 . S
C849 C850 1.374 . S
C849 H864 0.931 . S
C850 C844 1.439 . S
C850 C849 1.374 . S
C850 H865 0.931 . S
Eu851 N842 2.600 . S
Eu851 N852 2.562 . S
Eu851 O886 2.335 . S
Eu851 O889 2.372 . S
Eu851 O890 2.462 . S
Eu851 O891 2.373 . S
Eu851 O893 2.432 . S
Eu851 O894 2.291 . S
Eu851 C915 2.787 . S
N852 C848 1.351 . S
N852 Eu851 2.562 . S
N852 C854 1.325 . S
C853 C847 1.404 . S
C853 C855 1.366 . S
C853 H861 0.930 . S
C854 N852 1.325 . S
C854 C855 1.416 . S
C854 H860 0.929 . S
C855 C853 1.366 . S
C855 C854 1.416 . S
C855 H857 0.930 . S
H856 C845 0.930 . S
H857 C855 0.930 . S
H858 C873 0.930 . S
H859 C880 0.930 . S
H860 C854 0.929 . S
H861 C853 0.930 . S
H862 C876 0.929 . S
H863 C843 0.931 . S
H864 C849 0.931 . S
H865 C850 0.931 . S
H866 C871 0.931 . S
H867 C846 0.929 . S
H868 C879 0.930 . S
N869 Eu840 2.600 . S
N869 C870 1.365 . S
N869 C873 1.319 . S
C870 N869 1.365 . S
C870 C872 1.405 . S
C870 C878 1.448 . S
C871 H866 0.931 . S
C871 C873 1.397 . S
C871 C874 1.367 . S
C872 C870 1.405 . S
C872 C874 1.403 . S
C872 C905 1.439 . S
C873 H858 0.930 . S
C873 N869 1.319 . S
C873 C871 1.397 . S
C874 C871 1.367 . S
C874 C872 1.403 . S
C874 H881 0.929 . S
N875 Eu840 2.562 . S
N875 C876 1.325 . S
N875 C878 1.351 . S
C876 H862 0.929 . S
C876 N875 1.325 . S
C876 C880 1.416 . S
C877 C878 1.430 . S
C877 C879 1.404 . S
C877 C906 1.387 . S
C878 C870 1.448 . S
C878 N875 1.351 . S
C878 C877 1.430 . S
C879 H868 0.930 . S
C879 C877 1.404 . S
C879 C880 1.366 . S
C880 H859 0.930 . S
C880 C876 1.416 . S
C880 C879 1.366 . S
H881 C874 0.929 . S
H882 C905 0.931 . S
H883 C906 0.931 . S
O884 Eu840 2.462 . S
O884 C904 1.252 . S
O885 Eu840 2.373 . S
O885 C896 1.249 . S
O886 Eu851 2.335 . S
O886 C896 1.264 . S
O887 Eu840 2.432 . S
O887 C904 1.268 . S
O888 Eu840 2.291 . S
O888 C903 1.255 . S
O889 Eu851 2.372 . S
O889 C903 1.257 . S
O890 Eu851 2.462 . S
O890 C915 1.252 . S
O891 Eu851 2.373 . S
O891 C907 1.249 . S
O892 Eu840 2.335 . S
O892 C907 1.264 . S
O893 Eu851 2.432 . S
O893 C915 1.268 . S
O894 Eu851 2.291 . S
O894 C914 1.255 . S
O895 Eu840 2.372 . S
O895 C914 1.257 . S
C896 O885 1.249 . S
C896 O886 1.264 . S
C897 C900 1.382 . S
C897 C902 1.390 . S
C897 C904 1.506 . S
C898 C899 1.398 1_545 S
C898 C902 1.392 . S
C899 C898 1.398 1_565 S
C899 C901 1.372 1_565 S
C899 H916 0.931 . S
C900 C897 1.382 . S
C900 C901 1.390 . S
C900 H917 0.931 . S
C901 C899 1.372 1_545 S
C901 C900 1.390 . S
C901 H918 0.929 1_545 S
C902 C897 1.390 . S
C902 C898 1.392 . S
C902 H919 0.930 . S
C903 O888 1.255 . S
C903 O889 1.257 . S
C904 Eu840 2.787 . S
C904 O884 1.252 . S
C904 O887 1.268 . S
C904 C897 1.506 . S
C905 C872 1.439 . S
C905 H882 0.931 . S
C905 C906 1.374 . S
C906 C877 1.387 . S
C906 H883 0.931 . S
C906 C905 1.374 . S
C907 O891 1.249 . S
C907 O892 1.264 . S
C908 C911 1.382 . S
C908 C912 1.390 . S
C908 C915 1.506 . S
C909 C910 1.398 . S
C909 C912 1.392 . S
C910 C909 1.398 . S
C910 C913 1.372 . S
C910 H920 0.931 . S
C911 C908 1.382 . S
C911 C913 1.390 . S
C911 H921 0.931 . S
C912 C908 1.390 . S
C912 C909 1.392 . S
C912 H922 0.930 . S
C913 C910 1.372 . S
C913 C911 1.390 . S
C913 H923 0.929 . S
C914 O894 1.255 . S
C914 O895 1.257 . S
C915 Eu851 2.787 . S
C915 O890 1.252 . S
C915 O893 1.268 . S
C915 C908 1.506 . S
H916 C899 0.931 . S
H917 C900 0.931 . S
H918 C901 0.929 1_565 S
H919 C902 0.930 . S
H920 C910 0.931 . S
H921 C911 0.931 . S
H922 C912 0.930 . S
H923 C913 0.929 . S
Eu924 N953 2.600 . S
Eu924 N959 2.562 . S
Eu924 O968 2.462 . S
Eu924 O969 2.373 . S
Eu924 O971 2.432 . S
Eu924 O972 2.291 . S
Eu924 O976 2.335 . S
Eu924 O979 2.372 . S
Eu924 C988 2.787 . S
C925 N926 1.365 . S
C925 C928 1.405 . S
C925 C932 1.448 . S
N926 C925 1.365 . S
N926 C929 1.319 . S
N926 Eu935 2.600 . S
C927 C929 1.397 . S
C927 C930 1.367 . S
C927 H947 0.931 . S
C928 C925 1.405 . S
C928 C930 1.403 . S
C928 C934 1.439 . S
C929 N926 1.319 . S
C929 C927 1.397 . S
C929 H940 0.930 . S
C930 C927 1.367 . S
C930 C928 1.403 . S
C930 H951 0.929 . S
C931 C932 1.430 . S
C931 C933 1.387 . S
C931 C937 1.404 . S
C932 C925 1.448 . S
C932 C931 1.430 . S
C932 N936 1.351 . S
C933 C931 1.387 . S
C933 C934 1.374 . S
C933 H948 0.931 . S
C934 C928 1.439 . S
C934 C933 1.374 . S
C934 H949 0.931 . S
Eu935 N926 2.600 . S
Eu935 N936 2.562 . S
Eu935 O970 2.335 . S
Eu935 O973 2.372 . S
Eu935 O974 2.462 . S
Eu935 O975 2.373 . S
Eu935 O977 2.432 . S
Eu935 O978 2.291 . S
Eu935 C999 2.787 . S
N936 C932 1.351 . S
N936 Eu935 2.562 . S
N936 C938 1.325 . S
C937 C931 1.404 . S
C937 C939 1.366 . S
C937 H945 0.930 . S
C938 N936 1.325 . S
C938 C939 1.416 . S
C938 H944 0.929 . S
C939 C937 1.366 . S
C939 C938 1.416 . S
C939 H941 0.930 . S
H940 C929 0.930 . S
H941 C939 0.930 . S
H942 C957 0.930 . S
H943 C964 0.930 . S
H944 C938 0.929 . S
H945 C937 0.930 . S
H946 C960 0.929 . S
H947 C927 0.931 . S
H948 C933 0.931 . S
H949 C934 0.931 . S
H950 C955 0.931 . S
H951 C930 0.929 . S
H952 C963 0.930 . S
N953 Eu924 2.600 . S
N953 C954 1.365 . S
N953 C957 1.319 . S
C954 N953 1.365 . S
C954 C956 1.405 . S
C954 C962 1.448 . S
C955 H950 0.931 . S
C955 C957 1.397 . S
C955 C958 1.367 . S
C956 C954 1.405 . S
C956 C958 1.403 . S
C956 C989 1.439 . S
C957 H942 0.930 . S
C957 N953 1.319 . S
C957 C955 1.397 . S
C958 C955 1.367 . S
C958 C956 1.403 . S
C958 H965 0.929 . S
N959 Eu924 2.562 . S
N959 C960 1.325 . S
N959 C962 1.351 . S
C960 H946 0.929 . S
C960 N959 1.325 . S
C960 C964 1.416 . S
C961 C962 1.430 . S
C961 C963 1.404 . S
C961 C990 1.387 . S
C962 C954 1.448 . S
C962 N959 1.351 . S
C962 C961 1.430 . S
C963 H952 0.930 . S
C963 C961 1.404 . S
C963 C964 1.366 . S
C964 H943 0.930 . S
C964 C960 1.416 . S
C964 C963 1.366 . S
H965 C958 0.929 . S
H966 C989 0.931 . S
H967 C990 0.931 . S
O968 Eu924 2.462 . S
O968 C988 1.252 . S
O969 Eu924 2.373 . S
O969 C980 1.249 . S
O970 Eu935 2.335 . S
O970 C980 1.264 . S
O971 Eu924 2.432 . S
O971 C988 1.268 . S
O972 Eu924 2.291 . S
O972 C987 1.255 . S
O973 Eu935 2.372 . S
O973 C987 1.257 . S
O974 Eu935 2.462 . S
O974 C999 1.252 . S
O975 Eu935 2.373 . S
O975 C991 1.249 . S
O976 Eu924 2.335 . S
O976 C991 1.264 . S
O977 Eu935 2.432 . S
O977 C999 1.268 . S
O978 Eu935 2.291 . S
O978 C998 1.255 . S
O979 Eu924 2.372 . S
O979 C998 1.257 . S
C980 O969 1.249 . S
C980 O970 1.264 . S
C981 C984 1.382 . S
C981 C986 1.390 . S
C981 C988 1.506 . S
C982 C983 1.398 1_565 S
C982 C986 1.392 . S
C983 C982 1.398 1_545 S
C983 C985 1.372 1_545 S
C983 H1000 0.931 . S
C984 C981 1.382 . S
C984 C985 1.390 . S
C984 H1001 0.931 . S
C985 C983 1.372 1_565 S
C985 C984 1.390 . S
C985 H1002 0.929 1_565 S
C986 C981 1.390 . S
C986 C982 1.392 . S
C986 H1003 0.930 . S
C987 O972 1.255 . S
C987 O973 1.257 . S
C988 Eu924 2.787 . S
C988 O968 1.252 . S
C988 O971 1.268 . S
C988 C981 1.506 . S
C989 C956 1.439 . S
C989 H966 0.931 . S
C989 C990 1.374 . S
C990 C961 1.387 . S
C990 H967 0.931 . S
C990 C989 1.374 . S
C991 O975 1.249 . S
C991 O976 1.264 . S
C992 C995 1.382 . S
C992 C996 1.390 . S
C992 C999 1.506 . S
C993 C994 1.398 . S
C993 C996 1.392 . S
C994 C993 1.398 . S
C994 C997 1.372 . S
C994 H1004 0.931 . S
C995 C992 1.382 . S
C995 C997 1.390 . S
C995 H1005 0.931 . S
C996 C992 1.390 . S
C996 C993 1.392 . S
C996 H1006 0.930 . S
C997 C994 1.372 . S
C997 C995 1.390 . S
C997 H1007 0.929 . S
C998 O978 1.255 . S
C998 O979 1.257 . S
C999 Eu935 2.787 . S
C999 O974 1.252 . S
C999 O977 1.268 . S
C999 C992 1.506 . S
H1000 C983 0.931 . S
H1001 C984 0.931 . S
H1002 C985 0.929 1_545 S
H1003 C986 0.930 . S
H1004 C994 0.931 . S
H1005 C995 0.931 . S
H1006 C996 0.930 . S
H1007 C997 0.929 . S
Eu1008 N1037 2.600 . S
Eu1008 N1043 2.562 . S
Eu1008 O1052 2.462 . S
Eu1008 O1053 2.373 . S
Eu1008 O1055 2.432 . S
Eu1008 O1056 2.291 . S
Eu1008 O1060 2.335 . S
Eu1008 O1063 2.372 . S
Eu1008 C1072 2.787 . S
C1009 N1010 1.365 . S
C1009 C1012 1.405 . S
C1009 C1016 1.448 . S
N1010 C1009 1.365 . S
N1010 C1013 1.319 . S
N1010 Eu1019 2.600 . S
C1011 C1013 1.397 . S
C1011 C1014 1.367 . S
C1011 H1031 0.931 . S
C1012 C1009 1.405 . S
C1012 C1014 1.403 . S
C1012 C1018 1.439 . S
C1013 N1010 1.319 . S
C1013 C1011 1.397 . S
C1013 H1024 0.930 . S
C1014 C1011 1.367 . S
C1014 C1012 1.403 . S
C1014 H1035 0.929 . S
C1015 C1016 1.430 . S
C1015 C1017 1.387 . S
C1015 C1021 1.404 . S
C1016 C1009 1.448 . S
C1016 C1015 1.430 . S
C1016 N1020 1.351 . S
C1017 C1015 1.387 . S
C1017 C1018 1.374 . S
C1017 H1032 0.931 . S
C1018 C1012 1.439 . S
C1018 C1017 1.374 . S
C1018 H1033 0.931 . S
Eu1019 N1010 2.600 . S
Eu1019 N1020 2.562 . S
Eu1019 O1054 2.335 . S
Eu1019 O1057 2.372 . S
Eu1019 O1058 2.462 . S
Eu1019 O1059 2.373 . S
Eu1019 O1061 2.432 . S
Eu1019 O1062 2.291 . S
Eu1019 C1083 2.787 . S
N1020 C1016 1.351 . S
N1020 Eu1019 2.562 . S
N1020 C1022 1.325 . S
C1021 C1015 1.404 . S
C1021 C1023 1.366 . S
C1021 H1029 0.930 . S
C1022 N1020 1.325 . S
C1022 C1023 1.416 . S
C1022 H1028 0.929 . S
C1023 C1021 1.366 . S
C1023 C1022 1.416 . S
C1023 H1025 0.930 . S
H1024 C1013 0.930 . S
H1025 C1023 0.930 . S
H1026 C1041 0.930 . S
H1027 C1048 0.930 . S
H1028 C1022 0.929 . S
H1029 C1021 0.930 . S
H1030 C1044 0.929 . S
H1031 C1011 0.931 . S
H1032 C1017 0.931 . S
H1033 C1018 0.931 . S
H1034 C1039 0.931 1_554 S
H1035 C1014 0.929 . S
H1036 C1047 0.930 . S
N1037 Eu1008 2.600 . S
N1037 C1038 1.365 . S
N1037 C1041 1.319 . S
C1038 N1037 1.365 . S
C1038 C1040 1.405 . S
C1038 C1046 1.448 . S
C1039 H1034 0.931 1_556 S
C1039 C1041 1.397 . S
C1039 C1042 1.367 . S
C1040 C1038 1.405 . S
C1040 C1042 1.403 . S
C1040 C1073 1.439 . S
C1041 H1026 0.930 . S
C1041 N1037 1.319 . S
C1041 C1039 1.397 . S
C1042 C1039 1.367 . S
C1042 C1040 1.403 . S
C1042 H1049 0.929 . S
N1043 Eu1008 2.562 . S
N1043 C1044 1.325 . S
N1043 C1046 1.351 . S
C1044 H1030 0.929 . S
C1044 N1043 1.325 . S
C1044 C1048 1.416 . S
C1045 C1046 1.430 . S
C1045 C1047 1.404 . S
C1045 C1074 1.387 . S
C1046 C1038 1.448 . S
C1046 N1043 1.351 . S
C1046 C1045 1.430 . S
C1047 H1036 0.930 . S
C1047 C1045 1.404 . S
C1047 C1048 1.366 . S
C1048 H1027 0.930 . S
C1048 C1044 1.416 . S
C1048 C1047 1.366 . S
H1049 C1042 0.929 . S
H1050 C1073 0.931 . S
H1051 C1074 0.931 . S
O1052 Eu1008 2.462 . S
O1052 C1072 1.252 . S
O1053 Eu1008 2.373 . S
O1053 C1064 1.249 . S
O1054 Eu1019 2.335 . S
O1054 C1064 1.264 . S
O1055 Eu1008 2.432 . S
O1055 C1072 1.268 . S
O1056 Eu1008 2.291 . S
O1056 C1071 1.255 . S
O1057 Eu1019 2.372 . S
O1057 C1071 1.257 . S
O1058 Eu1019 2.462 . S
O1058 C1083 1.252 . S
O1059 Eu1019 2.373 . S
O1059 C1075 1.249 . S
O1060 Eu1008 2.335 . S
O1060 C1075 1.264 . S
O1061 Eu1019 2.432 . S
O1061 C1083 1.268 . S
O1062 Eu1019 2.291 . S
O1062 C1082 1.255 . S
O1063 Eu1008 2.372 . S
O1063 C1082 1.257 . S
C1064 O1053 1.249 . S
C1064 O1054 1.264 . S
C1065 C1068 1.382 . S
C1065 C1070 1.390 . S
C1065 C1072 1.506 . S
C1066 C1067 1.398 . S
C1066 C1070 1.392 . S
C1067 C1066 1.398 . S
C1067 C1069 1.372 . S
C1067 H1084 0.931 . S
C1068 C1065 1.382 . S
C1068 C1069 1.390 . S
C1068 H1085 0.931 . S
C1069 C1067 1.372 . S
C1069 C1068 1.390 . S
C1069 H1086 0.929 . S
C1070 C1065 1.390 . S
C1070 C1066 1.392 . S
C1070 H1087 0.930 . S
C1071 O1056 1.255 . S
C1071 O1057 1.257 . S
C1072 Eu1008 2.787 . S
C1072 O1052 1.252 . S
C1072 O1055 1.268 . S
C1072 C1065 1.506 . S
C1073 C1040 1.439 . S
C1073 H1050 0.931 . S
C1073 C1074 1.374 . S
C1074 C1045 1.387 . S
C1074 H1051 0.931 . S
C1074 C1073 1.374 . S
C1075 O1059 1.249 . S
C1075 O1060 1.264 . S
C1076 C1079 1.382 . S
C1076 C1080 1.390 . S
C1076 C1083 1.506 . S
C1077 C1078 1.398 1_545 S
C1077 C1080 1.392 . S
C1078 C1077 1.398 1_565 S
C1078 C1081 1.372 1_565 S
C1078 H1088 0.931 . S
C1079 C1076 1.382 . S
C1079 C1081 1.390 . S
C1079 H1089 0.931 . S
C1080 C1076 1.390 . S
C1080 C1077 1.392 . S
C1080 H1090 0.930 . S
C1081 C1078 1.372 1_545 S
C1081 C1079 1.390 . S
C1081 H1091 0.929 1_545 S
C1082 O1062 1.255 . S
C1082 O1063 1.257 . S
C1083 Eu1019 2.787 . S
C1083 O1058 1.252 . S
C1083 O1061 1.268 . S
C1083 C1076 1.506 . S
H1084 C1067 0.931 . S
H1085 C1068 0.931 . S
H1086 C1069 0.929 . S
H1087 C1070 0.930 . S
H1088 C1078 0.931 . S
H1089 C1079 0.931 . S
H1090 C1080 0.930 . S
H1091 C1081 0.929 1_565 S
Eu1092 N1121 2.600 . S
Eu1092 N1127 2.562 . S
Eu1092 O1136 2.462 . S
Eu1092 O1137 2.373 . S
Eu1092 O1139 2.432 . S
Eu1092 O1140 2.291 . S
Eu1092 O1144 2.335 . S
Eu1092 O1147 2.372 . S
Eu1092 C1156 2.787 . S
C1093 N1094 1.365 . S
C1093 C1096 1.405 . S
C1093 C1100 1.448 . S
N1094 C1093 1.365 . S
N1094 C1097 1.319 . S
N1094 Eu1103 2.600 . S
C1095 C1097 1.397 . S
C1095 C1098 1.367 . S
C1095 H1115 0.931 . S
C1096 C1093 1.405 . S
C1096 C1098 1.403 . S
C1096 C1102 1.439 . S
C1097 N1094 1.319 . S
C1097 C1095 1.397 . S
C1097 H1108 0.930 . S
C1098 C1095 1.367 . S
C1098 C1096 1.403 . S
C1098 H1119 0.929 . S
C1099 C1100 1.430 . S
C1099 C1101 1.387 . S
C1099 C1105 1.404 . S
C1100 C1093 1.448 . S
C1100 C1099 1.430 . S
C1100 N1104 1.351 . S
C1101 C1099 1.387 . S
C1101 C1102 1.374 . S
C1101 H1116 0.931 . S
C1102 C1096 1.439 . S
C1102 C1101 1.374 . S
C1102 H1117 0.931 . S
Eu1103 N1094 2.600 . S
Eu1103 N1104 2.562 . S
Eu1103 O1138 2.335 . S
Eu1103 O1141 2.372 . S
Eu1103 O1142 2.462 . S
Eu1103 O1143 2.373 . S
Eu1103 O1145 2.432 . S
Eu1103 O1146 2.291 . S
Eu1103 C1167 2.787 . S
N1104 C1100 1.351 . S
N1104 Eu1103 2.562 . S
N1104 C1106 1.325 . S
C1105 C1099 1.404 . S
C1105 C1107 1.366 . S
C1105 H1113 0.930 . S
C1106 N1104 1.325 . S
C1106 C1107 1.416 . S
C1106 H1112 0.929 . S
C1107 C1105 1.366 . S
C1107 C1106 1.416 . S
C1107 H1109 0.930 . S
H1108 C1097 0.930 . S
H1109 C1107 0.930 . S
H1110 C1125 0.930 . S
H1111 C1132 0.930 . S
H1112 C1106 0.929 . S
H1113 C1105 0.930 . S
H1114 C1128 0.929 . S
H1115 C1095 0.931 . S
H1116 C1101 0.931 . S
H1117 C1102 0.931 . S
H1118 C1123 0.931 1_554 S
H1119 C1098 0.929 . S
H1120 C1131 0.930 . S
N1121 Eu1092 2.600 . S
N1121 C1122 1.365 . S
N1121 C1125 1.319 . S
C1122 N1121 1.365 . S
C1122 C1124 1.405 . S
C1122 C1130 1.448 . S
C1123 H1118 0.931 1_556 S
C1123 C1125 1.397 . S
C1123 C1126 1.367 . S
C1124 C1122 1.405 . S
C1124 C1126 1.403 . S
C1124 C1157 1.439 . S
C1125 H1110 0.930 . S
C1125 N1121 1.319 . S
C1125 C1123 1.397 . S
C1126 C1123 1.367 . S
C1126 C1124 1.403 . S
C1126 H1133 0.929 . S
N1127 Eu1092 2.562 . S
N1127 C1128 1.325 . S
N1127 C1130 1.351 . S
C1128 H1114 0.929 . S
C1128 N1127 1.325 . S
C1128 C1132 1.416 . S
C1129 C1130 1.430 . S
C1129 C1131 1.404 . S
C1129 C1158 1.387 . S
C1130 C1122 1.448 . S
C1130 N1127 1.351 . S
C1130 C1129 1.430 . S
C1131 H1120 0.930 . S
C1131 C1129 1.404 . S
C1131 C1132 1.366 . S
C1132 H1111 0.930 . S
C1132 C1128 1.416 . S
C1132 C1131 1.366 . S
H1133 C1126 0.929 . S
H1134 C1157 0.931 . S
H1135 C1158 0.931 . S
O1136 Eu1092 2.462 . S
O1136 C1156 1.252 . S
O1137 Eu1092 2.373 . S
O1137 C1148 1.249 . S
O1138 Eu1103 2.335 . S
O1138 C1148 1.264 . S
O1139 Eu1092 2.432 . S
O1139 C1156 1.268 . S
O1140 Eu1092 2.291 . S
O1140 C1155 1.255 . S
O1141 Eu1103 2.372 . S
O1141 C1155 1.257 . S
O1142 Eu1103 2.462 . S
O1142 C1167 1.252 . S
O1143 Eu1103 2.373 . S
O1143 C1159 1.249 . S
O1144 Eu1092 2.335 . S
O1144 C1159 1.264 . S
O1145 Eu1103 2.432 . S
O1145 C1167 1.268 . S
O1146 Eu1103 2.291 . S
O1146 C1166 1.255 . S
O1147 Eu1092 2.372 . S
O1147 C1166 1.257 . S
C1148 O1137 1.249 . S
C1148 O1138 1.264 . S
C1149 C1152 1.382 . S
C1149 C1154 1.390 . S
C1149 C1156 1.506 . S
C1150 C1151 1.398 . S
C1150 C1154 1.392 . S
C1151 C1150 1.398 . S
C1151 C1153 1.372 . S
C1151 H1168 0.931 . S
C1152 C1149 1.382 . S
C1152 C1153 1.390 . S
C1152 H1169 0.931 . S
C1153 C1151 1.372 . S
C1153 C1152 1.390 . S
C1153 H1170 0.929 . S
C1154 C1149 1.390 . S
C1154 C1150 1.392 . S
C1154 H1171 0.930 . S
C1155 O1140 1.255 . S
C1155 O1141 1.257 . S
C1156 Eu1092 2.787 . S
C1156 O1136 1.252 . S
C1156 O1139 1.268 . S
C1156 C1149 1.506 . S
C1157 C1124 1.439 . S
C1157 H1134 0.931 . S
C1157 C1158 1.374 . S
C1158 C1129 1.387 . S
C1158 H1135 0.931 . S
C1158 C1157 1.374 . S
C1159 O1143 1.249 . S
C1159 O1144 1.264 . S
C1160 C1163 1.382 . S
C1160 C1164 1.390 . S
C1160 C1167 1.506 . S
C1161 C1162 1.398 1_565 S
C1161 C1164 1.392 . S
C1162 C1161 1.398 1_545 S
C1162 C1165 1.372 1_545 S
C1162 H1172 0.931 . S
C1163 C1160 1.382 . S
C1163 C1165 1.390 . S
C1163 H1173 0.931 . S
C1164 C1160 1.390 . S
C1164 C1161 1.392 . S
C1164 H1174 0.930 . S
C1165 C1162 1.372 1_565 S
C1165 C1163 1.390 . S
C1165 H1175 0.929 1_565 S
C1166 O1146 1.255 . S
C1166 O1147 1.257 . S
C1167 Eu1103 2.787 . S
C1167 O1142 1.252 . S
C1167 O1145 1.268 . S
C1167 C1160 1.506 . S
H1168 C1151 0.931 . S
H1169 C1152 0.931 . S
H1170 C1153 0.929 . S
H1171 C1154 0.930 . S
H1172 C1162 0.931 . S
H1173 C1163 0.931 . S
H1174 C1164 0.930 . S
H1175 C1165 0.929 1_545 S
Eu1176 N1205 2.600 . S
Eu1176 N1211 2.562 . S
Eu1176 O1220 2.462 . S
Eu1176 O1221 2.373 . S
Eu1176 O1223 2.432 . S
Eu1176 O1224 2.291 . S
Eu1176 O1228 2.335 . S
Eu1176 O1231 2.372 . S
Eu1176 C1240 2.787 . S
C1177 N1178 1.365 . S
C1177 C1180 1.405 . S
C1177 C1184 1.448 . S
N1178 C1177 1.365 . S
N1178 C1181 1.319 . S
N1178 Eu1187 2.600 . S
C1179 C1181 1.397 . S
C1179 C1182 1.367 . S
C1179 H1199 0.931 . S
C1180 C1177 1.405 . S
C1180 C1182 1.403 . S
C1180 C1186 1.439 . S
C1181 N1178 1.319 . S
C1181 C1179 1.397 . S
C1181 H1192 0.930 . S
C1182 C1179 1.367 . S
C1182 C1180 1.403 . S
C1182 H1203 0.929 . S
C1183 C1184 1.430 . S
C1183 C1185 1.387 . S
C1183 C1189 1.404 . S
C1184 C1177 1.448 . S
C1184 C1183 1.430 . S
C1184 N1188 1.351 . S
C1185 C1183 1.387 . S
C1185 C1186 1.374 . S
C1185 H1200 0.931 . S
C1186 C1180 1.439 . S
C1186 C1185 1.374 . S
C1186 H1201 0.931 . S
Eu1187 N1178 2.600 . S
Eu1187 N1188 2.562 . S
Eu1187 O1222 2.335 . S
Eu1187 O1225 2.372 . S
Eu1187 O1226 2.462 . S
Eu1187 O1227 2.373 . S
Eu1187 O1229 2.432 . S
Eu1187 O1230 2.291 . S
Eu1187 C1251 2.787 . S
N1188 C1184 1.351 . S
N1188 Eu1187 2.562 . S
N1188 C1190 1.325 . S
C1189 C1183 1.404 . S
C1189 C1191 1.366 . S
C1189 H1197 0.930 . S
C1190 N1188 1.325 . S
C1190 C1191 1.416 . S
C1190 H1196 0.929 . S
C1191 C1189 1.366 . S
C1191 C1190 1.416 . S
C1191 H1193 0.930 . S
H1192 C1181 0.930 . S
H1193 C1191 0.930 . S
H1194 C1209 0.930 . S
H1195 C1216 0.930 . S
H1196 C1190 0.929 . S
H1197 C1189 0.930 . S
H1198 C1212 0.929 . S
H1199 C1179 0.931 . S
H1200 C1185 0.931 . S
H1201 C1186 0.931 . S
H1202 C1207 0.931 . S
H1203 C1182 0.929 . S
H1204 C1215 0.930 . S
N1205 Eu1176 2.600 . S
N1205 C1206 1.365 . S
N1205 C1209 1.319 . S
C1206 N1205 1.365 . S
C1206 C1208 1.405 . S
C1206 C1214 1.448 . S
C1207 H1202 0.931 . S
C1207 C1209 1.397 . S
C1207 C1210 1.367 . S
C1208 C1206 1.405 . S
C1208 C1210 1.403 . S
C1208 C1241 1.439 . S
C1209 H1194 0.930 . S
C1209 N1205 1.319 . S
C1209 C1207 1.397 . S
C1210 C1207 1.367 . S
C1210 C1208 1.403 . S
C1210 H1217 0.929 . S
N1211 Eu1176 2.562 . S
N1211 C1212 1.325 . S
N1211 C1214 1.351 . S
C1212 H1198 0.929 . S
C1212 N1211 1.325 . S
C1212 C1216 1.416 . S
C1213 C1214 1.430 . S
C1213 C1215 1.404 . S
C1213 C1242 1.387 . S
C1214 C1206 1.448 . S
C1214 N1211 1.351 . S
C1214 C1213 1.430 . S
C1215 H1204 0.930 . S
C1215 C1213 1.404 . S
C1215 C1216 1.366 . S
C1216 H1195 0.930 . S
C1216 C1212 1.416 . S
C1216 C1215 1.366 . S
H1217 C1210 0.929 . S
H1218 C1241 0.931 . S
H1219 C1242 0.931 . S
O1220 Eu1176 2.462 . S
O1220 C1240 1.252 . S
O1221 Eu1176 2.373 . S
O1221 C1232 1.249 . S
O1222 Eu1187 2.335 . S
O1222 C1232 1.264 . S
O1223 Eu1176 2.432 . S
O1223 C1240 1.268 . S
O1224 Eu1176 2.291 . S
O1224 C1239 1.255 . S
O1225 Eu1187 2.372 . S
O1225 C1239 1.257 . S
O1226 Eu1187 2.462 . S
O1226 C1251 1.252 . S
O1227 Eu1187 2.373 . S
O1227 C1243 1.249 . S
O1228 Eu1176 2.335 . S
O1228 C1243 1.264 . S
O1229 Eu1187 2.432 . S
O1229 C1251 1.268 . S
O1230 Eu1187 2.291 . S
O1230 C1250 1.255 . S
O1231 Eu1176 2.372 . S
O1231 C1250 1.257 . S
C1232 O1221 1.249 . S
C1232 O1222 1.264 . S
C1233 C1236 1.382 . S
C1233 C1238 1.390 . S
C1233 C1240 1.506 . S
C1234 C1235 1.398 . S
C1234 C1238 1.392 . S
C1235 C1234 1.398 . S
C1235 C1237 1.372 . S
C1235 H1252 0.931 . S
C1236 C1233 1.382 . S
C1236 C1237 1.390 . S
C1236 H1253 0.931 . S
C1237 C1235 1.372 . S
C1237 C1236 1.390 . S
C1237 H1254 0.929 . S
C1238 C1233 1.390 . S
C1238 C1234 1.392 . S
C1238 H1255 0.930 . S
C1239 O1224 1.255 . S
C1239 O1225 1.257 . S
C1240 Eu1176 2.787 . S
C1240 O1220 1.252 . S
C1240 O1223 1.268 . S
C1240 C1233 1.506 . S
C1241 C1208 1.439 . S
C1241 H1218 0.931 . S
C1241 C1242 1.374 . S
C1242 C1213 1.387 . S
C1242 H1219 0.931 . S
C1242 C1241 1.374 . S
C1243 O1227 1.249 . S
C1243 O1228 1.264 . S
C1244 C1247 1.382 . S
C1244 C1248 1.390 . S
C1244 C1251 1.506 . S
C1245 C1246 1.398 1_565 S
C1245 C1248 1.392 . S
C1246 C1245 1.398 1_545 S
C1246 C1249 1.372 1_545 S
C1246 H1256 0.931 . S
C1247 C1244 1.382 . S
C1247 C1249 1.390 . S
C1247 H1257 0.931 . S
C1248 C1244 1.390 . S
C1248 C1245 1.392 . S
C1248 H1258 0.930 . S
C1249 C1246 1.372 1_565 S
C1249 C1247 1.390 . S
C1249 H1259 0.929 1_565 S
C1250 O1230 1.255 . S
C1250 O1231 1.257 . S
C1251 Eu1187 2.787 . S
C1251 O1226 1.252 . S
C1251 O1229 1.268 . S
C1251 C1244 1.506 . S
H1252 C1235 0.931 . S
H1253 C1236 0.931 . S
H1254 C1237 0.929 . S
H1255 C1238 0.930 . S
H1256 C1246 0.931 . S
H1257 C1247 0.931 . S
H1258 C1248 0.930 . S
H1259 C1249 0.929 1_545 S
Eu1260 N1289 2.600 . S
Eu1260 N1295 2.562 . S
Eu1260 O1304 2.462 . S
Eu1260 O1305 2.373 . S
Eu1260 O1307 2.432 . S
Eu1260 O1308 2.291 . S
Eu1260 O1312 2.335 . S
Eu1260 O1315 2.372 . S
Eu1260 C1324 2.787 . S
C1261 N1262 1.365 . S
C1261 C1264 1.405 . S
C1261 C1268 1.448 . S
N1262 C1261 1.365 . S
N1262 C1265 1.319 . S
N1262 Eu1271 2.600 . S
C1263 C1265 1.397 . S
C1263 C1266 1.367 . S
C1263 H1283 0.931 . S
C1264 C1261 1.405 . S
C1264 C1266 1.403 . S
C1264 C1270 1.439 . S
C1265 N1262 1.319 . S
C1265 C1263 1.397 . S
C1265 H1276 0.930 . S
C1266 C1263 1.367 . S
C1266 C1264 1.403 . S
C1266 H1287 0.929 . S
C1267 C1268 1.430 . S
C1267 C1269 1.387 . S
C1267 C1273 1.404 . S
C1268 C1261 1.448 . S
C1268 C1267 1.430 . S
C1268 N1272 1.351 . S
C1269 C1267 1.387 . S
C1269 C1270 1.374 . S
C1269 H1284 0.931 . S
C1270 C1264 1.439 . S
C1270 C1269 1.374 . S
C1270 H1285 0.931 . S
Eu1271 N1262 2.600 . S
Eu1271 N1272 2.562 . S
Eu1271 O1306 2.335 . S
Eu1271 O1309 2.372 . S
Eu1271 O1310 2.462 . S
Eu1271 O1311 2.373 . S
Eu1271 O1313 2.432 . S
Eu1271 O1314 2.291 . S
Eu1271 C1335 2.787 . S
N1272 C1268 1.351 . S
N1272 Eu1271 2.562 . S
N1272 C1274 1.325 . S
C1273 C1267 1.404 . S
C1273 C1275 1.366 . S
C1273 H1281 0.930 . S
C1274 N1272 1.325 . S
C1274 C1275 1.416 . S
C1274 H1280 0.929 . S
C1275 C1273 1.366 . S
C1275 C1274 1.416 . S
C1275 H1277 0.930 . S
H1276 C1265 0.930 . S
H1277 C1275 0.930 . S
H1278 C1293 0.930 . S
H1279 C1300 0.930 . S
H1280 C1274 0.929 . S
H1281 C1273 0.930 . S
H1282 C1296 0.929 . S
H1283 C1263 0.931 . S
H1284 C1269 0.931 . S
H1285 C1270 0.931 . S
H1286 C1291 0.931 . S
H1287 C1266 0.929 . S
H1288 C1299 0.930 . S
N1289 Eu1260 2.600 . S
N1289 C1290 1.365 . S
N1289 C1293 1.319 . S
C1290 N1289 1.365 . S
C1290 C1292 1.405 . S
C1290 C1298 1.448 . S
C1291 H1286 0.931 . S
C1291 C1293 1.397 . S
C1291 C1294 1.367 . S
C1292 C1290 1.405 . S
C1292 C1294 1.403 . S
C1292 C1325 1.439 . S
C1293 H1278 0.930 . S
C1293 N1289 1.319 . S
C1293 C1291 1.397 . S
C1294 C1291 1.367 . S
C1294 C1292 1.403 . S
C1294 H1301 0.929 . S
N1295 Eu1260 2.562 . S
N1295 C1296 1.325 . S
N1295 C1298 1.351 . S
C1296 H1282 0.929 . S
C1296 N1295 1.325 . S
C1296 C1300 1.416 . S
C1297 C1298 1.430 . S
C1297 C1299 1.404 . S
C1297 C1326 1.387 . S
C1298 C1290 1.448 . S
C1298 N1295 1.351 . S
C1298 C1297 1.430 . S
C1299 H1288 0.930 . S
C1299 C1297 1.404 . S
C1299 C1300 1.366 . S
C1300 H1279 0.930 . S
C1300 C1296 1.416 . S
C1300 C1299 1.366 . S
H1301 C1294 0.929 . S
H1302 C1325 0.931 . S
H1303 C1326 0.931 . S
O1304 Eu1260 2.462 . S
O1304 C1324 1.252 . S
O1305 Eu1260 2.373 . S
O1305 C1316 1.249 . S
O1306 Eu1271 2.335 . S
O1306 C1316 1.264 . S
O1307 Eu1260 2.432 . S
O1307 C1324 1.268 . S
O1308 Eu1260 2.291 . S
O1308 C1323 1.255 . S
O1309 Eu1271 2.372 . S
O1309 C1323 1.257 . S
O1310 Eu1271 2.462 . S
O1310 C1335 1.252 . S
O1311 Eu1271 2.373 . S
O1311 C1327 1.249 . S
O1312 Eu1260 2.335 . S
O1312 C1327 1.264 . S
O1313 Eu1271 2.432 . S
O1313 C1335 1.268 . S
O1314 Eu1271 2.291 . S
O1314 C1334 1.255 . S
O1315 Eu1260 2.372 . S
O1315 C1334 1.257 . S
C1316 O1305 1.249 . S
C1316 O1306 1.264 . S
C1317 C1320 1.382 . S
C1317 C1322 1.390 . S
C1317 C1324 1.506 . S
C1318 C1319 1.398 . S
C1318 C1322 1.392 . S
C1319 C1318 1.398 . S
C1319 C1321 1.372 . S
C1319 H1336 0.931 . S
C1320 C1317 1.382 . S
C1320 C1321 1.390 . S
C1320 H1337 0.931 . S
C1321 C1319 1.372 . S
C1321 C1320 1.390 . S
C1321 H1338 0.929 . S
C1322 C1317 1.390 . S
C1322 C1318 1.392 . S
C1322 H1339 0.930 . S
C1323 O1308 1.255 . S
C1323 O1309 1.257 . S
C1324 Eu1260 2.787 . S
C1324 O1304 1.252 . S
C1324 O1307 1.268 . S
C1324 C1317 1.506 . S
C1325 C1292 1.439 . S
C1325 H1302 0.931 . S
C1325 C1326 1.374 . S
C1326 C1297 1.387 . S
C1326 H1303 0.931 . S
C1326 C1325 1.374 . S
C1327 O1311 1.249 . S
C1327 O1312 1.264 . S
C1328 C1331 1.382 . S
C1328 C1332 1.390 . S
C1328 C1335 1.506 . S
C1329 C1330 1.398 1_545 S
C1329 C1332 1.392 . S
C1330 C1329 1.398 1_565 S
C1330 C1333 1.372 1_565 S
C1330 H1340 0.931 . S
C1331 C1328 1.382 . S
C1331 C1333 1.390 . S
C1331 H1341 0.931 . S
C1332 C1328 1.390 . S
C1332 C1329 1.392 . S
C1332 H1342 0.930 . S
C1333 C1330 1.372 1_545 S
C1333 C1331 1.390 . S
C1333 H1343 0.929 1_545 S
C1334 O1314 1.255 . S
C1334 O1315 1.257 . S
C1335 Eu1271 2.787 . S
C1335 O1310 1.252 . S
C1335 O1313 1.268 . S
C1335 C1328 1.506 . S
H1336 C1319 0.931 . S
H1337 C1320 0.931 . S
H1338 C1321 0.929 . S
H1339 C1322 0.930 . S
H1340 C1330 0.931 . S
H1341 C1331 0.931 . S
H1342 C1332 0.930 . S
H1343 C1333 0.929 1_565 S
C1344 C1345 1.387 . S
C1344 H1348 0.950 . S
C1344 C1353 1.390 . S
C1345 C1344 1.387 . S
C1345 C1347 1.387 . S
H1346 C1353 0.950 . S
C1347 C1345 1.387 . S
C1347 C1349 1.390 . S
C1347 H1351 0.950 . S
H1348 C1344 0.950 . S
C1349 C1347 1.390 . S
C1349 C1350 1.387 . S
C1349 H1352 0.950 . S
C1350 C1349 1.387 . S
C1350 C1353 1.387 . S
H1351 C1347 0.950 . S
H1352 C1349 0.950 . S
C1353 C1344 1.390 . S
C1353 H1346 0.950 . S
C1353 C1350 1.387 . S
C1354 C1355 1.387 . S
C1354 H1358 0.950 . S
C1354 C1363 1.390 . S
C1355 C1354 1.387 . S
C1355 C1357 1.387 . S
H1356 C1363 0.950 . S
C1357 C1355 1.387 . S
C1357 C1359 1.390 . S
C1357 H1361 0.950 . S
H1358 C1354 0.950 . S
C1359 C1357 1.390 . S
C1359 C1360 1.387 . S
C1359 H1362 0.950 . S
C1360 C1359 1.387 . S
C1360 C1363 1.387 . S
H1361 C1357 0.950 . S
H1362 C1359 0.950 . S
C1363 C1354 1.390 . S
C1363 H1356 0.950 . S
C1363 C1360 1.387 . S
C1364 C1365 1.387 . S
C1364 H1368 0.950 . S
C1364 C1373 1.390 . S
C1365 C1364 1.387 . S
C1365 C1367 1.387 . S
H1366 C1373 0.950 . S
C1367 C1365 1.387 . S
C1367 C1369 1.390 . S
C1367 H1371 0.950 . S
H1368 C1364 0.950 . S
C1369 C1367 1.390 . S
C1369 C1370 1.387 . S
C1369 H1372 0.950 . S
C1370 C1369 1.387 . S
C1370 C1373 1.387 . S
H1371 C1367 0.950 . S
H1372 C1369 0.950 . S
C1373 C1364 1.390 . S
C1373 H1366 0.950 . S
C1373 C1370 1.387 . S
C1374 C1375 1.387 . S
C1374 H1378 0.950 . S
C1374 C1383 1.390 . S
C1375 C1374 1.387 . S
C1375 C1377 1.387 . S
H1376 C1383 0.950 . S
C1377 C1375 1.387 . S
C1377 C1379 1.390 . S
C1377 H1381 0.950 . S
H1378 C1374 0.950 . S
C1379 C1377 1.390 . S
C1379 C1380 1.387 . S
C1379 H1382 0.950 . S
C1380 C1379 1.387 . S
C1380 C1383 1.387 . S
H1381 C1377 0.950 . S
H1382 C1379 0.950 . S
C1383 C1374 1.390 . S
C1383 H1376 0.950 . S
C1383 C1380 1.387 . S
C1384 C1385 1.387 . S
C1384 H1388 0.950 . S
C1384 C1393 1.390 . S
C1385 C1384 1.387 . S
C1385 C1387 1.387 . S
H1386 C1393 0.950 . S
C1387 C1385 1.387 . S
C1387 C1389 1.390 . S
C1387 H1391 0.950 . S
H1388 C1384 0.950 . S
C1389 C1387 1.390 . S
C1389 C1390 1.387 . S
C1389 H1392 0.950 . S
C1390 C1389 1.387 . S
C1390 C1393 1.387 . S
H1391 C1387 0.950 . S
H1392 C1389 0.950 . S
C1393 C1384 1.390 . S
C1393 H1386 0.950 . S
C1393 C1390 1.387 . S
C1394 C1395 1.387 . S
C1394 H1398 0.950 . S
C1394 C1403 1.390 . S
C1395 C1394 1.387 . S
C1395 C1397 1.387 . S
H1396 C1403 0.950 . S
C1397 C1395 1.387 . S
C1397 C1399 1.390 . S
C1397 H1401 0.950 . S
H1398 C1394 0.950 . S
C1399 C1397 1.390 . S
C1399 C1400 1.387 . S
C1399 H1402 0.950 . S
C1400 C1399 1.387 . S
C1400 C1403 1.387 . S
H1401 C1397 0.950 . S
H1402 C1399 0.950 . S
C1403 C1394 1.390 . S
C1403 H1396 0.950 . S
C1403 C1400 1.387 . S
C1404 C1405 1.387 . S
C1404 H1408 0.950 . S
C1404 C1413 1.390 . S
C1405 C1404 1.387 . S
C1405 C1407 1.387 . S
H1406 C1413 0.950 . S
C1407 C1405 1.387 . S
C1407 C1409 1.390 . S
C1407 H1411 0.950 . S
H1408 C1404 0.950 . S
C1409 C1407 1.390 . S
C1409 C1410 1.387 . S
C1409 H1412 0.950 . S
C1410 C1409 1.387 . S
C1410 C1413 1.387 . S
H1411 C1407 0.950 . S
H1412 C1409 0.950 . S
C1413 C1404 1.390 . S
C1413 H1406 0.950 . S
C1413 C1410 1.387 . S
C1414 C1415 1.387 . S
C1414 H1418 0.950 . S
C1414 C1423 1.390 . S
C1415 C1414 1.387 . S
C1415 C1417 1.387 . S
H1416 C1423 0.950 . S
C1417 C1415 1.387 . S
C1417 C1419 1.390 . S
C1417 H1421 0.950 . S
H1418 C1414 0.950 . S
C1419 C1417 1.390 . S
C1419 C1420 1.387 . S
C1419 H1422 0.950 . S
C1420 C1419 1.387 . S
C1420 C1423 1.387 . S
H1421 C1417 0.950 . S
H1422 C1419 0.950 . S
C1423 C1414 1.390 . S
C1423 H1416 0.950 . S
C1423 C1420 1.387 . S
C1424 C1425 1.387 . S
C1424 H1428 0.950 . S
C1424 C1433 1.390 1_565 S
C1425 C1424 1.387 . S
C1425 C1427 1.387 . S
H1426 C1433 0.950 . S
C1427 C1425 1.387 . S
C1427 C1429 1.390 1_565 S
C1427 H1431 0.950 . S
H1428 C1424 0.950 . S
C1429 C1427 1.390 1_545 S
C1429 C1430 1.387 . S
C1429 H1432 0.950 . S
C1430 C1429 1.387 . S
C1430 C1433 1.387 . S
H1431 C1427 0.950 . S
H1432 C1429 0.950 . S
C1433 C1424 1.390 1_545 S
C1433 H1426 0.950 . S
C1433 C1430 1.387 . S
C1434 C1435 1.387 . S
C1434 H1438 0.950 . S
C1434 C1443 1.390 1_545 S
C1435 C1434 1.387 . S
C1435 C1437 1.387 . S
H1436 C1443 0.950 . S
C1437 C1435 1.387 . S
C1437 C1439 1.390 1_545 S
C1437 H1441 0.950 . S
H1438 C1434 0.950 . S
C1439 C1437 1.390 1_565 S
C1439 C1440 1.387 . S
C1439 H1442 0.950 . S
C1440 C1439 1.387 . S
C1440 C1443 1.387 . S
H1441 C1437 0.950 . S
H1442 C1439 0.950 . S
C1443 C1434 1.390 1_565 S
C1443 H1436 0.950 . S
C1443 C1440 1.387 . S
C1444 C1445 1.387 . S
C1444 H1448 0.950 . S
C1444 C1453 1.390 1_545 S
C1445 C1444 1.387 . S
C1445 C1447 1.387 . S
H1446 C1453 0.950 . S
C1447 C1445 1.387 . S
C1447 C1449 1.390 1_545 S
C1447 H1451 0.950 . S
H1448 C1444 0.950 . S
C1449 C1447 1.390 1_565 S
C1449 C1450 1.387 . S
C1449 H1452 0.950 . S
C1450 C1449 1.387 . S
C1450 C1453 1.387 . S
H1451 C1447 0.950 . S
H1452 C1449 0.950 . S
C1453 C1444 1.390 1_565 S
C1453 H1446 0.950 . S
C1453 C1450 1.387 . S
C1454 C1455 1.387 . S
C1454 H1458 0.950 . S
C1454 C1463 1.390 1_545 S
C1455 C1454 1.387 . S
C1455 C1457 1.387 . S
H1456 C1463 0.950 . S
C1457 C1455 1.387 . S
C1457 C1459 1.390 1_545 S
C1457 H1461 0.950 . S
H1458 C1454 0.950 . S
C1459 C1457 1.390 1_565 S
C1459 C1460 1.387 . S
C1459 H1462 0.950 . S
C1460 C1459 1.387 . S
C1460 C1463 1.387 . S
H1461 C1457 0.950 . S
H1462 C1459 0.950 . S
C1463 C1454 1.390 1_565 S
C1463 H1456 0.950 . S
C1463 C1460 1.387 . S
C1464 C1465 1.387 . S
C1464 H1468 0.950 . S
C1464 C1473 1.390 . S
C1465 C1464 1.387 . S
C1465 C1467 1.387 . S
H1466 C1473 0.950 . S
C1467 C1465 1.387 . S
C1467 C1469 1.390 . S
C1467 H1471 0.950 . S
H1468 C1464 0.950 . S
C1469 C1467 1.390 . S
C1469 C1470 1.387 . S
C1469 H1472 0.950 . S
C1470 C1469 1.387 . S
C1470 C1473 1.387 . S
H1471 C1467 0.950 . S
H1472 C1469 0.950 . S
C1473 C1464 1.390 . S
C1473 H1466 0.950 . S
C1473 C1470 1.387 . S
C1474 C1475 1.387 . S
C1474 H1478 0.950 . S
C1474 C1483 1.390 . S
C1475 C1474 1.387 . S
C1475 C1477 1.387 . S
H1476 C1483 0.950 . S
C1477 C1475 1.387 . S
C1477 C1479 1.390 . S
C1477 H1481 0.950 . S
H1478 C1474 0.950 . S
C1479 C1477 1.390 . S
C1479 C1480 1.387 . S
C1479 H1482 0.950 . S
C1480 C1479 1.387 . S
C1480 C1483 1.387 . S
H1481 C1477 0.950 . S
H1482 C1479 0.950 . S
C1483 C1474 1.390 . S
C1483 H1476 0.950 . S
C1483 C1480 1.387 . S
C1484 C1485 1.387 . S
C1484 H1488 0.950 . S
C1484 C1493 1.390 . S
C1485 C1484 1.387 . S
C1485 C1487 1.387 . S
H1486 C1493 0.950 . S
C1487 C1485 1.387 . S
C1487 C1489 1.390 . S
C1487 H1491 0.950 . S
H1488 C1484 0.950 . S
C1489 C1487 1.390 . S
C1489 C1490 1.387 . S
C1489 H1492 0.950 . S
C1490 C1489 1.387 . S
C1490 C1493 1.387 . S
H1491 C1487 0.950 . S
H1492 C1489 0.950 . S
C1493 C1484 1.390 . S
C1493 H1486 0.950 . S
C1493 C1490 1.387 . S
C1494 C1495 1.387 . S
C1494 H1498 0.950 . S
C1494 C1503 1.390 . S
C1495 C1494 1.387 . S
C1495 C1497 1.387 . S
H1496 C1503 0.950 . S
C1497 C1495 1.387 . S
C1497 C1499 1.390 . S
C1497 H1501 0.950 . S
H1498 C1494 0.950 . S
C1499 C1497 1.390 . S
C1499 C1500 1.387 . S
C1499 H1502 0.950 . S
C1500 C1499 1.387 . S
C1500 C1503 1.387 . S
H1501 C1497 0.950 . S
H1502 C1499 0.950 . S
C1503 C1494 1.390 . S
C1503 H1496 0.950 . S
C1503 C1500 1.387 . S
C1504 C1505 1.387 . S
C1504 H1508 0.950 . S
C1504 C1513 1.390 1_556 S
C1505 C1504 1.387 . S
C1505 C1507 1.387 . S
H1506 C1513 0.950 . S
C1507 C1505 1.387 . S
C1507 C1509 1.390 1_556 S
C1507 H1511 0.950 . S
H1508 C1504 0.950 . S
C1509 C1507 1.390 1_554 S
C1509 C1510 1.387 . S
C1509 H1512 0.950 . S
C1510 C1509 1.387 . S
C1510 C1513 1.387 . S
H1511 C1507 0.950 . S
H1512 C1509 0.950 . S
C1513 C1504 1.390 1_554 S
C1513 H1506 0.950 . S
C1513 C1510 1.387 . S
C1514 C1515 1.387 . S
C1514 H1518 0.950 . S
C1514 C1523 1.390 1_556 S
C1515 C1514 1.387 . S
C1515 C1517 1.387 . S
H1516 C1523 0.950 . S
C1517 C1515 1.387 . S
C1517 C1519 1.390 1_556 S
C1517 H1521 0.950 . S
H1518 C1514 0.950 . S
C1519 C1517 1.390 1_554 S
C1519 C1520 1.387 . S
C1519 H1522 0.950 . S
C1520 C1519 1.387 . S
C1520 C1523 1.387 . S
H1521 C1517 0.950 . S
H1522 C1519 0.950 . S
C1523 C1514 1.390 1_554 S
C1523 H1516 0.950 . S
C1523 C1520 1.387 . S
C1524 C1525 1.387 . S
C1524 H1528 0.950 . S
C1524 C1533 1.390 . S
C1525 C1524 1.387 . S
C1525 C1527 1.387 . S
H1526 C1533 0.950 . S
C1527 C1525 1.387 . S
C1527 C1529 1.390 . S
C1527 H1531 0.950 . S
H1528 C1524 0.950 . S
C1529 C1527 1.390 . S
C1529 C1530 1.387 . S
C1529 H1532 0.950 . S
C1530 C1529 1.387 . S
C1530 C1533 1.387 . S
H1531 C1527 0.950 . S
H1532 C1529 0.950 . S
C1533 C1524 1.390 . S
C1533 H1526 0.950 . S
C1533 C1530 1.387 . S
C1534 C1535 1.387 . S
C1534 H1538 0.950 . S
C1534 C1543 1.390 . S
C1535 C1534 1.387 . S
C1535 C1537 1.387 . S
H1536 C1543 0.950 . S
C1537 C1535 1.387 . S
C1537 C1539 1.390 . S
C1537 H1541 0.950 . S
H1538 C1534 0.950 . S
C1539 C1537 1.390 . S
C1539 C1540 1.387 . S
C1539 H1542 0.950 . S
C1540 C1539 1.387 . S
C1540 C1543 1.387 . S
H1541 C1537 0.950 . S
H1542 C1539 0.950 . S
C1543 C1534 1.390 . S
C1543 H1536 0.950 . S
C1543 C1540 1.387 . S
C1544 C1545 1.387 . S
C1544 H1548 0.950 . S
C1544 C1553 1.390 1_554 S
C1545 C1544 1.387 . S
C1545 C1547 1.387 . S
H1546 C1553 0.950 . S
C1547 C1545 1.387 . S
C1547 C1549 1.390 1_554 S
C1547 H1551 0.950 . S
H1548 C1544 0.950 . S
C1549 C1547 1.390 1_556 S
C1549 C1550 1.387 . S
C1549 H1552 0.950 . S
C1550 C1549 1.387 . S
C1550 C1553 1.387 . S
H1551 C1547 0.950 . S
H1552 C1549 0.950 . S
C1553 C1544 1.390 1_556 S
C1553 H1546 0.950 . S
C1553 C1550 1.387 . S
C1554 C1555 1.387 . S
C1554 H1558 0.950 . S
C1554 C1563 1.390 1_556 S
C1555 C1554 1.387 . S
C1555 C1557 1.387 . S
H1556 C1563 0.950 . S
C1557 C1555 1.387 . S
C1557 C1559 1.390 1_556 S
C1557 H1561 0.950 . S
H1558 C1554 0.950 . S
C1559 C1557 1.390 1_554 S
C1559 C1560 1.387 . S
C1559 H1562 0.950 . S
C1560 C1559 1.387 . S
C1560 C1563 1.387 . S
H1561 C1557 0.950 . S
H1562 C1559 0.950 . S
C1563 C1554 1.390 1_554 S
C1563 H1556 0.950 . S
C1563 C1560 1.387 . S
C1564 C1565 1.387 . S
C1564 H1568 0.950 . S
C1564 C1573 1.390 . S
C1565 C1564 1.387 . S
C1565 C1567 1.387 . S
H1566 C1573 0.950 . S
C1567 C1565 1.387 . S
C1567 C1569 1.390 . S
C1567 H1571 0.950 . S
H1568 C1564 0.950 . S
C1569 C1567 1.390 . S
C1569 C1570 1.387 . S
C1569 H1572 0.950 . S
C1570 C1569 1.387 . S
C1570 C1573 1.387 . S
H1571 C1567 0.950 . S
H1572 C1569 0.950 . S
C1573 C1564 1.390 . S
C1573 H1566 0.950 . S
C1573 C1570 1.387 . S
C1574 C1575 1.387 . S
C1574 H1578 0.950 . S
C1574 C1583 1.390 . S
C1575 C1574 1.387 . S
C1575 C1577 1.387 . S
H1576 C1583 0.950 . S
C1577 C1575 1.387 . S
C1577 C1579 1.390 . S
C1577 H1581 0.950 . S
H1578 C1574 0.950 . S
C1579 C1577 1.390 . S
C1579 C1580 1.387 . S
C1579 H1582 0.950 . S
C1580 C1579 1.387 . S
C1580 C1583 1.387 . S
H1581 C1577 0.950 . S
H1582 C1579 0.950 . S
C1583 C1574 1.390 . S
C1583 H1576 0.950 . S
C1583 C1580 1.387 . S
C1584 C1585 1.387 . S
C1584 H1588 0.950 . S
C1584 C1593 1.390 1_665 S
C1585 C1584 1.387 . S
C1585 C1587 1.387 . S
H1586 C1593 0.950 . S
C1587 C1585 1.387 . S
C1587 C1589 1.390 1_665 S
C1587 H1591 0.950 . S
H1588 C1584 0.950 . S
C1589 C1587 1.390 1_445 S
C1589 C1590 1.387 . S
C1589 H1592 0.950 . S
C1590 C1589 1.387 . S
C1590 C1593 1.387 . S
H1591 C1587 0.950 . S
H1592 C1589 0.950 . S
C1593 C1584 1.390 1_445 S
C1593 H1586 0.950 . S
C1593 C1590 1.387 . S
C1594 C1595 1.387 . S
C1594 H1598 0.950 . S
C1594 C1603 1.390 1_645 S
C1595 C1594 1.387 . S
C1595 C1597 1.387 . S
H1596 C1603 0.950 . S
C1597 C1595 1.387 . S
C1597 C1599 1.390 1_645 S
C1597 H1601 0.950 . S
H1598 C1594 0.950 . S
C1599 C1597 1.390 1_465 S
C1599 C1600 1.387 . S
C1599 H1602 0.950 . S
C1600 C1599 1.387 . S
C1600 C1603 1.387 . S
H1601 C1597 0.950 . S
H1602 C1599 0.950 . S
C1603 C1594 1.390 1_465 S
C1603 H1596 0.950 . S
C1603 C1600 1.387 . S
C1604 C1605 1.387 . S
C1604 H1608 0.950 . S
C1604 C1613 1.390 1_445 S
C1605 C1604 1.387 . S
C1605 C1607 1.387 . S
H1606 C1613 0.950 . S
C1607 C1605 1.387 . S
C1607 C1609 1.390 1_445 S
C1607 H1611 0.950 . S
H1608 C1604 0.950 . S
C1609 C1607 1.390 1_665 S
C1609 C1610 1.387 . S
C1609 H1612 0.950 . S
C1610 C1609 1.387 . S
C1610 C1613 1.387 . S
H1611 C1607 0.950 . S
H1612 C1609 0.950 . S
C1613 C1604 1.390 1_665 S
C1613 H1606 0.950 . S
C1613 C1610 1.387 . S
C1614 C1615 1.387 . S
C1614 H1618 0.950 . S
C1614 C1623 1.390 1_645 S
C1615 C1614 1.387 . S
C1615 C1617 1.387 . S
H1616 C1623 0.950 . S
C1617 C1615 1.387 . S
C1617 C1619 1.390 1_645 S
C1617 H1621 0.950 . S
H1618 C1614 0.950 . S
C1619 C1617 1.390 1_465 S
C1619 C1620 1.387 . S
C1619 H1622 0.950 . S
C1620 C1619 1.387 . S
C1620 C1623 1.387 . S
H1621 C1617 0.950 . S
H1622 C1619 0.950 . S
C1623 C1614 1.390 1_465 S
C1623 H1616 0.950 . S
C1623 C1620 1.387 . S
C1624 C1625 1.387 . S
C1624 H1628 0.950 . S
C1624 C1633 1.390 . S
C1625 C1624 1.387 . S
C1625 C1627 1.387 . S
H1626 C1633 0.950 . S
C1627 C1625 1.387 . S
C1627 C1629 1.390 . S
C1627 H1631 0.950 . S
H1628 C1624 0.950 . S
C1629 C1627 1.390 . S
C1629 C1630 1.387 . S
C1629 H1632 0.950 . S
C1630 C1629 1.387 . S
C1630 C1633 1.387 . S
H1631 C1627 0.950 . S
H1632 C1629 0.950 . S
C1633 C1624 1.390 . S
C1633 H1626 0.950 . S
C1633 C1630 1.387 . S
C1634 C1635 1.387 . S
C1634 H1638 0.950 . S
C1634 C1643 1.390 . S
C1635 C1634 1.387 . S
C1635 C1637 1.387 . S
H1636 C1643 0.950 . S
C1637 C1635 1.387 . S
C1637 C1639 1.390 . S
C1637 H1641 0.950 . S
H1638 C1634 0.950 . S
C1639 C1637 1.390 . S
C1639 C1640 1.387 . S
C1639 H1642 0.950 . S
C1640 C1639 1.387 . S
C1640 C1643 1.387 . S
H1641 C1637 0.950 . S
H1642 C1639 0.950 . S
C1643 C1634 1.390 . S
C1643 H1636 0.950 . S
C1643 C1640 1.387 . S
C1644 C1645 1.387 . S
C1644 H1648 0.950 . S
C1644 C1653 1.390 . S
C1645 C1644 1.387 . S
C1645 C1647 1.387 . S
H1646 C1653 0.950 . S
C1647 C1645 1.387 . S
C1647 C1649 1.390 . S
C1647 H1651 0.950 . S
H1648 C1644 0.950 . S
C1649 C1647 1.390 . S
C1649 C1650 1.387 . S
C1649 H1652 0.950 . S
C1650 C1649 1.387 . S
C1650 C1653 1.387 . S
H1651 C1647 0.950 . S
H1652 C1649 0.950 . S
C1653 C1644 1.390 . S
C1653 H1646 0.950 . S
C1653 C1650 1.387 . S
C1654 C1655 1.387 . S
C1654 H1658 0.950 . S
C1654 C1663 1.390 . S
C1655 C1654 1.387 . S
C1655 C1657 1.387 . S
H1656 C1663 0.950 . S
C1657 C1655 1.387 . S
C1657 C1659 1.390 . S
C1657 H1661 0.950 . S
H1658 C1654 0.950 . S
C1659 C1657 1.390 . S
C1659 C1660 1.387 . S
C1659 H1662 0.950 . S
C1660 C1659 1.387 . S
C1660 C1663 1.387 . S
H1661 C1657 0.950 . S
H1662 C1659 0.950 . S
C1663 C1654 1.390 . S
C1663 H1656 0.950 . S
C1663 C1660 1.387 . S
C1664 C1665 1.387 . S
C1664 H1668 0.950 . S
C1664 C1673 1.390 . S
C1665 C1664 1.387 . S
C1665 C1667 1.387 . S
H1666 C1673 0.950 . S
C1667 C1665 1.387 . S
C1667 C1669 1.390 . S
C1667 H1671 0.950 . S
H1668 C1664 0.950 . S
C1669 C1667 1.390 . S
C1669 C1670 1.387 . S
C1669 H1672 0.950 . S
C1670 C1669 1.387 . S
C1670 C1673 1.387 . S
H1671 C1667 0.950 . S
H1672 C1669 0.950 . S
C1673 C1664 1.390 . S
C1673 H1666 0.950 . S
C1673 C1670 1.387 . S
C1674 C1675 1.387 . S
C1674 H1678 0.950 . S
C1674 C1683 1.390 . S
C1675 C1674 1.387 . S
C1675 C1677 1.387 . S
H1676 C1683 0.950 . S
C1677 C1675 1.387 . S
C1677 C1679 1.390 . S
C1677 H1681 0.950 . S
H1678 C1674 0.950 . S
C1679 C1677 1.390 . S
C1679 C1680 1.387 . S
C1679 H1682 0.950 . S
C1680 C1679 1.387 . S
C1680 C1683 1.387 . S
H1681 C1677 0.950 . S
H1682 C1679 0.950 . S
C1683 C1674 1.390 . S
C1683 H1676 0.950 . S
C1683 C1680 1.387 . S
C1684 C1685 1.387 . S
C1684 H1688 0.950 . S
C1684 C1693 1.390 . S
C1685 C1684 1.387 . S
C1685 C1687 1.387 . S
H1686 C1693 0.950 . S
C1687 C1685 1.387 . S
C1687 C1689 1.390 . S
C1687 H1691 0.950 . S
H1688 C1684 0.950 . S
C1689 C1687 1.390 . S
C1689 C1690 1.387 . S
C1689 H1692 0.950 . S
C1690 C1689 1.387 . S
C1690 C1693 1.387 . S
H1691 C1687 0.950 . S
H1692 C1689 0.950 . S
C1693 C1684 1.390 . S
C1693 H1686 0.950 . S
C1693 C1690 1.387 . S
C1694 C1695 1.387 . S
C1694 H1698 0.950 . S
C1694 C1703 1.390 . S
C1695 C1694 1.387 . S
C1695 C1697 1.387 . S
H1696 C1703 0.950 . S
C1697 C1695 1.387 . S
C1697 C1699 1.390 . S
C1697 H1701 0.950 . S
H1698 C1694 0.950 . S
C1699 C1697 1.390 . S
C1699 C1700 1.387 . S
C1699 H1702 0.950 . S
C1700 C1699 1.387 . S
C1700 C1703 1.387 . S
H1701 C1697 0.950 . S
H1702 C1699 0.950 . S
C1703 C1694 1.390 . S
C1703 H1696 0.950 . S
C1703 C1700 1.387 . S
C1704 C1705 1.387 . S
C1704 H1708 0.950 . S
C1704 C1713 1.390 . S
C1705 C1704 1.387 . S
C1705 C1707 1.387 . S
H1706 C1713 0.950 . S
C1707 C1705 1.387 . S
C1707 C1709 1.390 . S
C1707 H1711 0.950 . S
H1708 C1704 0.950 . S
C1709 C1707 1.390 . S
C1709 C1710 1.387 . S
C1709 H1712 0.950 . S
C1710 C1709 1.387 . S
C1710 C1713 1.387 . S
H1711 C1707 0.950 . S
H1712 C1709 0.950 . S
C1713 C1704 1.390 . S
C1713 H1706 0.950 . S
C1713 C1710 1.387 . S
C1714 C1715 1.387 . S
C1714 H1718 0.950 . S
C1714 C1723 1.390 . S
C1715 C1714 1.387 . S
C1715 C1717 1.387 . S
H1716 C1723 0.950 . S
C1717 C1715 1.387 . S
C1717 C1719 1.390 . S
C1717 H1721 0.950 . S
H1718 C1714 0.950 . S
C1719 C1717 1.390 . S
C1719 C1720 1.387 . S
C1719 H1722 0.950 . S
C1720 C1719 1.387 . S
C1720 C1723 1.387 . S
H1721 C1717 0.950 . S
H1722 C1719 0.950 . S
C1723 C1714 1.390 . S
C1723 H1716 0.950 . S
C1723 C1720 1.387 . S
C1724 C1725 1.387 . S
C1724 H1728 0.950 . S
C1724 C1733 1.390 . S
C1725 C1724 1.387 . S
C1725 C1727 1.387 . S
H1726 C1733 0.950 . S
C1727 C1725 1.387 . S
C1727 C1729 1.390 . S
C1727 H1731 0.950 . S
H1728 C1724 0.950 . S
C1729 C1727 1.390 . S
C1729 C1730 1.387 . S
C1729 H1732 0.950 . S
C1730 C1729 1.387 . S
C1730 C1733 1.387 . S
H1731 C1727 0.950 . S
H1732 C1729 0.950 . S
C1733 C1724 1.390 . S
C1733 H1726 0.950 . S
C1733 C1730 1.387 . S
C1734 C1735 1.387 . S
C1734 H1738 0.950 . S
C1734 C1743 1.390 . S
C1735 C1734 1.387 . S
C1735 C1737 1.387 . S
H1736 C1743 0.950 . S
C1737 C1735 1.387 . S
C1737 C1739 1.390 . S
C1737 H1741 0.950 . S
H1738 C1734 0.950 . S
C1739 C1737 1.390 . S
C1739 C1740 1.387 . S
C1739 H1742 0.950 . S
C1740 C1739 1.387 . S
C1740 C1743 1.387 . S
H1741 C1737 0.950 . S
H1742 C1739 0.950 . S
C1743 C1734 1.390 . S
C1743 H1736 0.950 . S
C1743 C1740 1.387 . S
C1744 C1745 1.387 . S
C1744 H1748 0.950 . S
C1744 C1753 1.390 . S
C1745 C1744 1.387 . S
C1745 C1747 1.387 . S
H1746 C1753 0.950 . S
C1747 C1745 1.387 . S
C1747 C1749 1.390 . S
C1747 H1751 0.950 . S
H1748 C1744 0.950 . S
C1749 C1747 1.390 . S
C1749 C1750 1.387 . S
C1749 H1752 0.950 . S
C1750 C1749 1.387 . S
C1750 C1753 1.387 . S
H1751 C1747 0.950 . S
H1752 C1749 0.950 . S
C1753 C1744 1.390 . S
C1753 H1746 0.950 . S
C1753 C1750 1.387 . S
C1754 C1755 1.387 . S
C1754 H1758 0.950 . S
C1754 C1763 1.390 . S
C1755 C1754 1.387 . S
C1755 C1757 1.387 . S
H1756 C1763 0.950 . S
C1757 C1755 1.387 . S
C1757 C1759 1.390 . S
C1757 H1761 0.950 . S
H1758 C1754 0.950 . S
C1759 C1757 1.390 . S
C1759 C1760 1.387 . S
C1759 H1762 0.950 . S
C1760 C1759 1.387 . S
C1760 C1763 1.387 . S
H1761 C1757 0.950 . S
H1762 C1759 0.950 . S
C1763 C1754 1.390 . S
C1763 H1756 0.950 . S
C1763 C1760 1.387 . S
C1764 C1765 1.387 . S
C1764 H1768 0.950 . S
C1764 C1773 1.390 . S
C1765 C1764 1.387 . S
C1765 C1767 1.387 . S
H1766 C1773 0.950 . S
C1767 C1765 1.387 . S
C1767 C1769 1.390 . S
C1767 H1771 0.950 . S
H1768 C1764 0.950 . S
C1769 C1767 1.390 . S
C1769 C1770 1.387 . S
C1769 H1772 0.950 . S
C1770 C1769 1.387 . S
C1770 C1773 1.387 . S
H1771 C1767 0.950 . S
H1772 C1769 0.950 . S
C1773 C1764 1.390 . S
C1773 H1766 0.950 . S
C1773 C1770 1.387 . S
C1774 C1775 1.387 . S
C1774 H1778 0.950 . S
C1774 C1783 1.390 . S
C1775 C1774 1.387 . S
C1775 C1777 1.387 . S
H1776 C1783 0.950 . S
C1777 C1775 1.387 . S
C1777 C1779 1.390 . S
C1777 H1781 0.950 . S
H1778 C1774 0.950 . S
C1779 C1777 1.390 . S
C1779 C1780 1.387 . S
C1779 H1782 0.950 . S
C1780 C1779 1.387 . S
C1780 C1783 1.387 . S
H1781 C1777 0.950 . S
H1782 C1779 0.950 . S
C1783 C1774 1.390 . S
C1783 H1776 0.950 . S
C1783 C1780 1.387 . S
C1784 C1785 1.387 . S
C1784 H1788 0.950 . S
C1784 C1793 1.390 . S
C1785 C1784 1.387 . S
C1785 C1787 1.387 . S
H1786 C1793 0.950 . S
C1787 C1785 1.387 . S
C1787 C1789 1.390 . S
C1787 H1791 0.950 . S
H1788 C1784 0.950 . S
C1789 C1787 1.390 . S
C1789 C1790 1.387 . S
C1789 H1792 0.950 . S
C1790 C1789 1.387 . S
C1790 C1793 1.387 . S
H1791 C1787 0.950 . S
H1792 C1789 0.950 . S
C1793 C1784 1.390 . S
C1793 H1786 0.950 . S
C1793 C1790 1.387 . S
C1794 C1795 1.387 . S
C1794 H1798 0.950 . S
C1794 C1803 1.390 . S
C1795 C1794 1.387 . S
C1795 C1797 1.387 . S
H1796 C1803 0.950 . S
C1797 C1795 1.387 . S
C1797 C1799 1.390 . S
C1797 H1801 0.950 . S
H1798 C1794 0.950 . S
C1799 C1797 1.390 . S
C1799 C1800 1.387 . S
C1799 H1802 0.950 . S
C1800 C1799 1.387 . S
C1800 C1803 1.387 . S
H1801 C1797 0.950 . S
H1802 C1799 0.950 . S
C1803 C1794 1.390 . S
C1803 H1796 0.950 . S
C1803 C1800 1.387 . S
C1804 C1805 1.387 . S
C1804 H1808 0.950 . S
C1804 C1813 1.390 . S
C1805 C1804 1.387 . S
C1805 C1807 1.387 . S
H1806 C1813 0.950 . S
C1807 C1805 1.387 . S
C1807 C1809 1.390 . S
C1807 H1811 0.950 . S
H1808 C1804 0.950 . S
C1809 C1807 1.390 . S
C1809 C1810 1.387 . S
C1809 H1812 0.950 . S
C1810 C1809 1.387 . S
C1810 C1813 1.387 . S
H1811 C1807 0.950 . S
H1812 C1809 0.950 . S
C1813 C1804 1.390 . S
C1813 H1806 0.950 . S
C1813 C1810 1.387 . S
C1814 C1815 1.387 . S
C1814 H1818 0.950 . S
C1814 C1823 1.390 . S
C1815 C1814 1.387 . S
C1815 C1817 1.387 . S
H1816 C1823 0.950 . S
C1817 C1815 1.387 . S
C1817 C1819 1.390 . S
C1817 H1821 0.950 . S
H1818 C1814 0.950 . S
C1819 C1817 1.390 . S
C1819 C1820 1.387 . S
C1819 H1822 0.950 . S
C1820 C1819 1.387 . S
C1820 C1823 1.387 . S
H1821 C1817 0.950 . S
H1822 C1819 0.950 . S
C1823 C1814 1.390 . S
C1823 H1816 0.950 . S
C1823 C1820 1.387 . S
C1345 C67 1.509 . S
C1350 C823 1.509 . S
C1355 C151 1.509 . S
C1360 C739 1.509 . S
C1365 C991 1.509 . S
C1370 C235 1.509 . S
C1375 C319 1.507 . S
C1380 C907 1.507 . S
C1385 C1148 1.508 . S
C1390 C392 1.508 . S
C1395 C1064 1.507 . S
C1400 C476 1.507 . S
C1405 C1316 1.508 . S
C1410 C560 1.508 . S
C1415 C644 1.507 . S
C1420 C1232 1.507 . S
C1425 C242 1.702 . S
C1430 C74 1.702 . S
C1435 C326 1.702 . S
C1440 C158 1.702 . S
C1445 C567 1.702 . S
C1450 C399 1.702 . S
C1455 C483 1.702 . S
C1460 C651 1.702 . S
C1465 C914 1.702 . S
C1470 C746 1.702 . S
C1475 C998 1.702 . S
C1480 C830 1.702 . S
C1485 C1071 1.702 . S
C1490 C1239 1.702 . S
C1495 C1155 1.702 . S
C1500 C1323 1.702 . S
C1505 C494 1.680 . S
C1510 C63 1.680 . S
C1515 C410 1.680 . S
C1520 C147 1.680 . S
C1525 C231 1.680 . S
C1530 C662 1.680 . S
C1535 C578 1.681 . S
C1540 C315 1.679 . S
C1545 C735 1.681 . S
C1550 C1166 1.679 . S
C1555 C1082 1.680 . S
C1560 C819 1.680 . S
C1565 C903 1.680 . S
C1570 C1334 1.680 . S
C1575 C1250 1.681 . S
C1580 C987 1.679 . S
C1585 C140 1.501 . S
C1590 C56 1.501 . S
C1595 C308 1.501 . S
C1600 C224 1.501 . S
C1605 C487 1.501 . S
C1610 C403 1.501 . S
C1615 C571 1.501 . S
C1620 C655 1.501 . S
C1625 C812 1.501 . S
C1630 C728 1.501 . S
C1635 C980 1.501 . S
C1640 C896 1.501 . S
C1645 C1075 1.501 . S
C1650 C1159 1.501 . S
C1655 C1243 1.501 . S
C1660 C1327 1.501 . S
C1665 C69 1.317 . S
C1670 C58 1.317 . S
C1675 C153 1.312 . S
C1680 C142 1.312 . S
C1685 C237 1.317 . S
C1690 C226 1.317 . S
C1695 C310 1.317 . S
C1700 C321 1.317 . S
C1705 C394 1.311 . S
C1710 C405 1.311 . S
C1715 C489 1.317 . S
C1720 C478 1.317 . S
C1725 C562 1.311 . S
C1730 C573 1.311 . S
C1735 C646 1.317 . S
C1740 C657 1.317 . S
C1745 C730 1.317 1_545 S
C1750 C741 1.317 . S
C1755 C825 1.311 . S
C1760 C814 1.311 1_565 S
C1765 C898 1.317 1_565 S
C1770 C909 1.317 . S
C1775 C982 1.317 1_545 S
C1780 C993 1.317 . S
C1785 C1066 1.313 . S
C1790 C1077 1.313 1_565 S
C1795 C1150 1.317 . S
C1800 C1161 1.317 1_545 S
C1805 C1245 1.317 1_545 S
C1810 C1234 1.317 . S
C1815 C1318 1.317 . S
C1820 C1329 1.317 1_565 S
