# Generated by pormake.
# Topology ukt, (4)-cn, num edge types: 1
# Building blocks:
#     Node 0, Type 0, BuildingBlock: KUFVIS_clean_sbu_0, # of connection points: 4
#     Node 1, Type 0, BuildingBlock: KUFVIS_clean_sbu_0, # of connection points: 4
#     Node 2, Type 0, BuildingBlock: KUFVIS_clean_sbu_0, # of connection points: 4
#     Node 3, Type 0, BuildingBlock: KUFVIS_clean_sbu_0, # of connection points: 4
#     Node 4, Type 0, BuildingBlock: KUFVIS_clean_sbu_0, # of connection points: 4
#     Node 5, Type 0, BuildingBlock: KUFVIS_clean_sbu_0, # of connection points: 4
#     Node 6, Type 0, BuildingBlock: KUFVIS_clean_sbu_0, # of connection points: 4
#     Node 7, Type 0, BuildingBlock: KUFVIS_clean_sbu_0, # of connection points: 4
#     Node 8, Type 0, BuildingBlock: KUFVIS_clean_sbu_0, # of connection points: 4
#     Node 9, Type 0, BuildingBlock: KUFVIS_clean_sbu_0, # of connection points: 4
#     Node 10, Type 0, BuildingBlock: KUFVIS_clean_sbu_0, # of connection points: 4
#     Node 11, Type 0, BuildingBlock: KUFVIS_clean_sbu_0, # of connection points: 4
#     Node 12, Type 0, BuildingBlock: KUFVIS_clean_sbu_0, # of connection points: 4
#     Node 13, Type 0, BuildingBlock: KUFVIS_clean_sbu_0, # of connection points: 4
#     Node 14, Type 0, BuildingBlock: KUFVIS_clean_sbu_0, # of connection points: 4
#     Node 15, Type 0, BuildingBlock: KUFVIS_clean_sbu_0, # of connection points: 4
#     Edge 16, Type (0, 0), None
#     Edge 17, Type (0, 0), None
#     Edge 18, Type (0, 0), None
#     Edge 19, Type (0, 0), None
#     Edge 20, Type (0, 0), None
#     Edge 21, Type (0, 0), None
#     Edge 22, Type (0, 0), None
#     Edge 23, Type (0, 0), None
#     Edge 24, Type (0, 0), None
#     Edge 25, Type (0, 0), None
#     Edge 26, Type (0, 0), None
#     Edge 27, Type (0, 0), None
#     Edge 28, Type (0, 0), None
#     Edge 29, Type (0, 0), None
#     Edge 30, Type (0, 0), None
#     Edge 31, Type (0, 0), None
#     Edge 32, Type (0, 0), None
#     Edge 33, Type (0, 0), None
#     Edge 34, Type (0, 0), None
#     Edge 35, Type (0, 0), None
#     Edge 36, Type (0, 0), None
#     Edge 37, Type (0, 0), None
#     Edge 38, Type (0, 0), None
#     Edge 39, Type (0, 0), None
#     Edge 40, Type (0, 0), None
#     Edge 41, Type (0, 0), None
#     Edge 42, Type (0, 0), None
#     Edge 43, Type (0, 0), None
#     Edge 44, Type (0, 0), None
#     Edge 45, Type (0, 0), None
#     Edge 46, Type (0, 0), None
#     Edge 47, Type (0, 0), None
# Relax obj value: 0.276
# Max RMSD: 0.185
# Mean RMSD: 0.185
data_MOF--net-ukt--node1-KUFVIS_clean_sbu_0--edge1-none
_symmetry_space_group_name_H-M    P1
_symmetry_Int_Tables_number       1
_symmetry_cell_setting            triclinic
loop_
_symmetry_equiv_pos_as_xyz
'x, y, z'
_cell_length_a     18.690133
_cell_length_b     18.690202
_cell_length_c     21.355121
_cell_angle_alpha  90.000193
_cell_angle_beta   89.99979
_cell_angle_gamma 90.000105
loop_
_atom_site_label
_atom_site_type_symbol
_atom_site_fract_x
_atom_site_fract_y
_atom_site_fract_z
_atom_type_partial_charge
Mn0 Mn 0.51981 0.1633 -0.04128 0.0
Mn1 Mn 0.72921 0.23224 -0.0192 0.0
C2 C 0.64698 0.08324 -0.06973 0.0
C3 C 0.49891 0.04174 -0.11239 0.0
C4 C 0.56466 0.3646 -0.12501 0.0
O5 O 0.54964 0.19541 0.06394 0.0
O6 O 0.67017 0.21507 0.06705 0.0
C7 C 0.77619 0.10147 0.04401 0.0
N8 N 0.79434 0.16571 0.01877 0.0
C9 C 0.91971 0.14142 0.03588 0.0
C10 C 0.90154 0.07545 0.0624 0.0
C11 C 0.82976 0.05469 0.06492 0.0
C12 C 0.86447 0.18657 0.01388 0.0
H13 H 0.7209 0.08491 0.04484 0.0
C14 C 0.60633 0.22918 0.08881 0.0
O15 O 0.49009 0.10495 -0.13113 0.0
O16 O 0.51389 0.04605 -0.05281 0.0
N17 N 0.83641 0.25199 -0.0829 0.0
C18 C 0.86304 0.26588 0.85839 0.0
C19 C 0.92675 0.28907 0.84578 0.0
C20 C 0.9622 0.2994 -0.1055 0.0
C21 C 0.94988 0.26339 -0.04005 0.0
C22 C 0.8839 0.24542 -0.02912 0.0
H23 H 0.84373 0.25193 0.81835 0.0
O24 O 0.59067 0.06722 -0.03908 0.0
O25 O 0.64713 0.148 -0.05257 0.0
O26 O 0.50493 0.32346 -0.10699 0.0
O27 O 0.62683 0.36392 -0.09012 0.0
C28 C 1.00594 0.22845 -0.00233 0.0
C29 C 0.99093 0.16451 0.03001 0.0
H30 H 0.94258 0.03942 0.07944 0.0
H31 H 0.81567 1.00269 0.08341 0.0
H32 H 0.94962 0.2977 0.79998 0.0
H33 H 0.01788 0.30696 -0.11855 0.0
H34 H 0.06145 0.24414 -0.00799 0.0
H35 H 0.03445 0.13347 0.04963 0.0
Mn36 Mn 0.35708 0.51981 -0.04128 0.0
Mn37 Mn 0.28813 0.7292 -0.0192 0.0
C38 C 0.43714 0.64697 -0.06974 0.0
C39 C 0.47863 0.4989 -0.11239 0.0
C40 C 0.15577 0.56466 -0.12501 0.0
O41 O 0.32496 0.54964 0.06394 0.0
O42 O 0.30531 0.67016 0.06705 0.0
C43 C 0.4189 0.77619 0.04401 0.0
N44 N 0.35467 0.79433 0.01877 0.0
C45 C 0.37896 0.9197 0.03588 0.0
C46 C 0.44493 0.90154 0.0624 0.0
C47 C 0.46568 0.82975 0.06492 0.0
C48 C 0.33381 0.86446 0.01388 0.0
H49 H 0.43547 0.7209 0.04483 0.0
C50 C 0.29119 0.60633 0.08881 0.0
O51 O 0.41542 0.49008 -0.13113 0.0
O52 O 0.47432 0.51389 -0.0528 0.0
N53 N 0.26839 0.83641 -0.0829 0.0
C54 C 0.2545 0.86303 0.85839 0.0
C55 C 0.23131 0.92674 0.84578 0.0
C56 C 0.22097 0.96219 -0.1055 0.0
C57 C 0.25699 0.94988 -0.04005 0.0
C58 C 0.27495 0.88389 -0.02912 0.0
H59 H 0.26844 0.84372 0.81835 0.0
O60 O 0.45316 0.59066 -0.03908 0.0
O61 O 0.37238 0.64712 -0.05257 0.0
O62 O 0.19691 0.50493 -0.10699 0.0
O63 O 0.15645 0.62683 -0.09012 0.0
C64 C 0.29192 1.00593 -0.00233 0.0
C65 C 0.35587 0.99092 0.03001 0.0
H66 H 0.48095 0.94258 0.07944 0.0
H67 H 0.51769 0.81567 0.08341 0.0
H68 H 0.22267 0.94961 0.79998 0.0
H69 H 0.21342 0.01788 -0.11855 0.0
H70 H 0.27624 0.06145 -0.00799 0.0
H71 H 0.3869 0.03444 0.04963 0.0
Mn72 Mn 1.00057 0.35707 -0.04128 0.0
Mn73 Mn 0.79118 0.28813 -0.0192 0.0
C74 C 0.87341 0.43713 -0.06973 0.0
C75 C 0.02147 0.47863 -0.11239 0.0
C76 C 0.95572 0.15577 -0.12501 0.0
O77 O 0.97074 0.32496 0.06394 0.0
O78 O 0.85022 0.3053 0.06705 0.0
C79 C 0.74419 0.4189 0.04401 0.0
N80 N 0.72605 0.35466 0.01877 0.0
C81 C 0.60067 0.37895 0.03588 0.0
C82 C 0.61884 0.44493 0.0624 0.0
C83 C 0.69062 0.46568 0.06492 0.0
C84 C 0.65591 0.3338 0.01388 0.0
H85 H 0.79948 0.43546 0.04484 0.0
C86 C 0.91405 0.29119 0.08881 0.0
O87 O 0.03029 0.41542 -0.13113 0.0
O88 O 1.00649 0.47432 -0.05281 0.0
N89 N 0.68397 0.26838 -0.0829 0.0
C90 C 0.65734 0.25449 0.85839 0.0
C91 C 0.59363 0.2313 0.84578 0.0
C92 C 0.55818 0.22096 -0.1055 0.0
C93 C 0.5705 0.25698 -0.04005 0.0
C94 C 0.63649 0.27495 -0.02912 0.0
H95 H 0.67665 0.26844 0.81835 0.0
O96 O 0.92972 0.45315 -0.03908 0.0
O97 O 0.87326 0.37237 -0.05257 0.0
O98 O 0.01545 0.19691 -0.10699 0.0
O99 O 0.89355 0.15645 -0.09012 0.0
C100 C 0.51444 0.29192 -0.00233 0.0
C101 C 0.52945 0.35586 0.03001 0.0
H102 H 0.5778 0.48095 0.07944 0.0
H103 H 0.70471 0.51768 0.08341 0.0
H104 H 0.57076 0.22267 0.79998 0.0
H105 H 0.5025 0.21341 -0.11855 0.0
H106 H 0.45893 0.27623 -0.00799 0.0
H107 H 0.48593 0.3869 0.04963 0.0
Mn108 Mn 0.1633 1.00057 -0.04128 0.0
Mn109 Mn 0.23225 0.79117 -0.0192 0.0
C110 C 0.08325 0.8734 -0.06973 0.0
C111 C 0.04175 0.02147 -0.11239 0.0
C112 C 0.36461 0.95572 -0.12501 0.0
O113 O 0.19542 0.97073 0.06394 0.0
O114 O 0.21507 0.85021 0.06705 0.0
C115 C 0.10148 0.74419 0.04401 0.0
N116 N 0.16571 0.72604 0.01877 0.0
C117 C 0.14142 0.60067 0.03587 0.0
C118 C 0.07545 0.61883 0.0624 0.0
C119 C 0.0547 0.69062 0.06492 0.0
C120 C 0.18657 0.65591 0.01388 0.0
H121 H 0.08491 0.79948 0.04484 0.0
C122 C 0.22919 0.91405 0.08881 0.0
O123 O 0.10496 0.03029 -0.13113 0.0
O124 O 0.04606 1.00648 -0.05281 0.0
N125 N 0.25199 0.68396 -0.0829 0.0
C126 C 0.26589 0.65734 0.85839 0.0
C127 C 0.28908 0.59363 0.84578 0.0
C128 C 0.29941 0.55818 -0.1055 0.0
C129 C 0.2634 0.57049 -0.04005 0.0
C130 C 0.24543 0.63648 -0.02912 0.0
H131 H 0.25194 0.67665 0.81834 0.0
O132 O 0.06722 0.92971 -0.03908 0.0
O133 O 0.14801 0.87325 -0.05257 0.0
O134 O 0.32347 0.01545 -0.10699 0.0
O135 O 0.36393 0.89354 -0.09012 0.0
C136 C 0.22846 0.51444 -0.00233 0.0
C137 C 0.16451 0.52945 0.03001 0.0
H138 H 0.03943 0.57779 0.07944 0.0
H139 H 1.00269 0.70471 0.08341 0.0
H140 H 0.29771 0.57076 0.79998 0.0
H141 H 0.30697 0.5025 -0.11855 0.0
H142 H 0.24414 0.45892 -0.00799 0.0
H143 H 0.13348 0.48593 0.04963 0.0
Mn144 Mn 0.51981 0.35707 0.27253 0.0
Mn145 Mn 0.7292 0.28813 0.25045 0.0
C146 C 0.64697 0.43713 0.30099 0.0
C147 C 0.49891 0.47863 0.34364 0.0
C148 C 0.56466 0.15577 0.35626 0.0
O149 O 0.54964 0.32496 0.16731 0.0
O150 O 0.67016 0.30531 0.16421 0.0
C151 C 0.77619 0.4189 0.18725 0.0
N152 N 0.79433 0.35467 0.21248 0.0
C153 C 0.91971 0.37896 0.19538 0.0
C154 C 0.90154 0.44493 0.16886 0.0
C155 C 0.82976 0.46568 0.16634 0.0
C156 C 0.86447 0.33381 0.21738 0.0
H157 H 0.7209 0.43547 0.18642 0.0
C158 C 0.60633 0.29119 0.14245 0.0
O159 O 0.49009 0.41542 0.36238 0.0
O160 O 0.51389 0.47432 0.28406 0.0
N161 N 0.83641 0.26839 0.31415 0.0
C162 C 0.86304 0.25449 0.37286 0.0
C163 C 0.92675 0.2313 0.38548 0.0
C164 C 0.9622 0.22097 0.33675 0.0
C165 C 0.94988 0.25698 0.2713 0.0
C166 C 0.88389 0.27495 0.26037 0.0
H167 H 0.84373 0.26844 0.41291 0.0
O168 O 0.59066 0.45316 0.27034 0.0
O169 O 0.64713 0.37237 0.28383 0.0
O170 O 0.50493 0.19691 0.33825 0.0
O171 O 0.62683 0.15645 0.32137 0.0
C172 C 1.00594 0.29192 0.23358 0.0
C173 C 0.99093 0.35587 0.20125 0.0
H174 H 0.94258 0.48095 0.15182 0.0
H175 H 0.81567 0.51769 0.14785 0.0
H176 H 0.94962 0.22267 0.43128 0.0
H177 H 0.01788 0.21341 0.3498 0.0
H178 H 0.06145 0.27623 0.23925 0.0
H179 H 0.03445 0.3869 0.18162 0.0
Mn180 Mn 0.1633 0.51981 0.27253 0.0
Mn181 Mn 0.23224 0.7292 0.25045 0.0
C182 C 0.08324 0.64697 0.30099 0.0
C183 C 0.04175 0.49891 0.34364 0.0
C184 C 0.36461 0.56466 0.35626 0.0
O185 O 0.19542 0.54964 0.16731 0.0
O186 O 0.21507 0.67016 0.1642 0.0
C187 C 0.10147 0.77619 0.18725 0.0
N188 N 0.16571 0.79433 0.21248 0.0
C189 C 0.14142 0.9197 0.19538 0.0
C190 C 0.07545 0.90154 0.16886 0.0
C191 C 0.0547 0.82975 0.16634 0.0
C192 C 0.18657 0.86447 0.21738 0.0
H193 H 0.08491 0.7209 0.18642 0.0
C194 C 0.22919 0.60633 0.14245 0.0
O195 O 0.10496 0.49009 0.36238 0.0
O196 O 0.04606 0.51389 0.28406 0.0
N197 N 0.25199 0.83641 0.31415 0.0
C198 C 0.26588 0.86304 0.37286 0.0
C199 C 0.28907 0.92675 0.38548 0.0
C200 C 0.29941 0.96219 0.33675 0.0
C201 C 0.26339 0.94988 0.2713 0.0
C202 C 0.24543 0.88389 0.26037 0.0
H203 H 0.25193 0.84373 0.41291 0.0
O204 O 0.06722 0.59066 0.27034 0.0
O205 O 0.148 0.64712 0.28383 0.0
O206 O 0.32346 0.50493 0.33824 0.0
O207 O 0.36393 0.62683 0.32137 0.0
C208 C 0.22846 1.00594 0.23358 0.0
C209 C 0.16451 0.99092 0.20125 0.0
H210 H 0.03943 0.94258 0.15181 0.0
H211 H 1.00269 0.81567 0.14784 0.0
H212 H 0.29771 0.94961 0.43128 0.0
H213 H 0.30696 0.01788 0.3498 0.0
H214 H 0.24414 0.06145 0.23925 0.0
H215 H 0.13347 0.03444 0.18162 0.0
Mn216 Mn 1.00057 0.1633 0.27253 0.0
Mn217 Mn 0.79117 0.23225 0.25045 0.0
C218 C 0.8734 0.08324 0.30099 0.0
C219 C 0.02147 0.04175 0.34364 0.0
C220 C 0.95572 0.36461 0.35626 0.0
O221 O 0.97074 0.19542 0.16731 0.0
O222 O 0.85021 0.21507 0.16421 0.0
C223 C 0.74419 0.10148 0.18725 0.0
N224 N 0.72604 0.16571 0.21248 0.0
C225 C 0.60067 0.14142 0.19538 0.0
C226 C 0.61884 0.07545 0.16886 0.0
C227 C 0.69062 0.0547 0.16634 0.0
C228 C 0.65591 0.18657 0.21738 0.0
H229 H 0.79948 0.08491 0.18642 0.0
C230 C 0.91405 0.22919 0.14245 0.0
O231 O 0.03029 0.10496 0.36238 0.0
O232 O 1.00649 0.04606 0.28406 0.0
N233 N 0.68397 0.25199 0.31415 0.0
C234 C 0.65734 0.26588 0.37286 0.0
C235 C 0.59363 0.28907 0.38548 0.0
C236 C 0.55818 0.29941 0.33675 0.0
C237 C 0.5705 0.26339 0.2713 0.0
C238 C 0.63648 0.24543 0.26037 0.0
H239 H 0.67665 0.25193 0.41291 0.0
O240 O 0.92972 0.06722 0.27034 0.0
O241 O 0.87325 0.148 0.28383 0.0
O242 O 0.01545 0.32347 0.33825 0.0
O243 O 0.89355 0.36393 0.32137 0.0
C244 C 0.51444 0.22846 0.23358 0.0
C245 C 0.52945 0.16451 0.20125 0.0
H246 H 0.5778 0.03943 0.15182 0.0
H247 H 0.70471 1.00269 0.14784 0.0
H248 H 0.57076 0.29771 0.43128 0.0
H249 H 0.5025 0.30696 0.3498 0.0
H250 H 0.45893 0.24414 0.23925 0.0
H251 H 0.48593 0.13347 0.18162 0.0
Mn252 Mn 0.35707 1.00057 0.27253 0.0
Mn253 Mn 0.28813 0.79117 0.25045 0.0
C254 C 0.43713 0.8734 0.30099 0.0
C255 C 0.47863 0.02147 0.34364 0.0
C256 C 0.15577 0.95572 0.35626 0.0
O257 O 0.32496 0.97073 0.16731 0.0
O258 O 0.30531 0.85021 0.16421 0.0
C259 C 0.4189 0.74419 0.18725 0.0
N260 N 0.35467 0.72604 0.21248 0.0
C261 C 0.37896 0.60067 0.19538 0.0
C262 C 0.44493 0.61884 0.16886 0.0
C263 C 0.46568 0.69062 0.16634 0.0
C264 C 0.33381 0.65591 0.21738 0.0
H265 H 0.43547 0.79948 0.18642 0.0
C266 C 0.29119 0.91405 0.14245 0.0
O267 O 0.41542 0.03029 0.36238 0.0
O268 O 0.47432 1.00649 0.28406 0.0
N269 N 0.26839 0.68397 0.31415 0.0
C270 C 0.25449 0.65734 0.37286 0.0
C271 C 0.2313 0.59363 0.38548 0.0
C272 C 0.22097 0.55818 0.33675 0.0
C273 C 0.25698 0.5705 0.2713 0.0
C274 C 0.27495 0.63648 0.26037 0.0
H275 H 0.26844 0.67665 0.41291 0.0
O276 O 0.45316 0.92971 0.27034 0.0
O277 O 0.37237 0.87325 0.28383 0.0
O278 O 0.19691 0.01545 0.33824 0.0
O279 O 0.15645 0.89355 0.32137 0.0
C280 C 0.29192 0.51444 0.23358 0.0
C281 C 0.35587 0.52945 0.20125 0.0
H282 H 0.48095 0.5778 0.15181 0.0
H283 H 0.51769 0.70471 0.14784 0.0
H284 H 0.22267 0.57076 0.43128 0.0
H285 H 0.21341 0.5025 0.3498 0.0
H286 H 0.27623 0.45893 0.23924 0.0
H287 H 0.3869 0.48593 0.18162 0.0
Mn288 Mn 0.50057 0.8571 0.77256 0.0
Mn289 Mn 0.29118 0.78813 0.75043 0.0
C290 C 0.37352 0.93709 0.80094 0.0
C291 C 0.52142 0.97859 0.84376 0.0
C292 C 0.45574 0.65575 0.8562 0.0
O293 O 0.47076 0.82498 0.66731 0.0
O294 O 0.35024 0.80532 0.66419 0.0
C295 C 0.24419 0.9189 0.68723 0.0
N296 N 0.22605 0.85466 0.71246 0.0
C297 C 0.10067 0.87896 0.69537 0.0
C298 C 0.11883 0.94494 0.66886 0.0
C299 C 0.19062 0.96569 0.66633 0.0
C300 C 0.15591 0.83381 0.71736 0.0
H301 H 0.29948 0.93547 0.68641 0.0
C302 C 0.41408 0.7912 0.64245 0.0
O303 O 0.53028 0.91538 0.86248 0.0
O304 O 0.50654 0.97435 0.78416 0.0
N305 N 0.18398 0.76839 0.81413 0.0
C306 C 0.15736 0.75449 -0.12716 0.0
C307 C 0.09365 0.7313 -0.11454 0.0
C308 C 0.0582 0.72098 0.83674 0.0
C309 C 0.07049 0.75698 0.77128 0.0
C310 C 0.13648 0.77495 0.76035 0.0
H311 H 0.17666 0.76844 -0.08712 0.0
O312 O 0.4298 0.95329 0.77032 0.0
O313 O 0.37324 0.87234 0.78381 0.0
O314 O 0.51547 0.69692 0.83823 0.0
O315 O 0.39353 0.65644 0.82135 0.0
C316 C 0.01444 0.79192 0.73357 0.0
C317 C 0.02945 0.85587 0.70124 0.0
H318 H 0.07779 0.98096 0.65182 0.0
H319 H 0.2047 0.0177 0.64785 0.0
H320 H 0.07079 0.72265 -0.06874 0.0
H321 H 1.00251 0.71342 0.84979 0.0
H322 H 0.95892 0.77623 0.73923 0.0
H323 H 0.98593 0.88691 0.68162 0.0
Mn324 Mn 0.66328 0.50056 0.77256 0.0
Mn325 Mn 0.73225 0.29117 0.75043 0.0
C326 C 0.58328 0.37351 0.80094 0.0
C327 C 0.54179 0.52142 0.84377 0.0
C328 C 0.86463 0.45573 0.8562 0.0
O329 O 0.69539 0.47075 0.66732 0.0
O330 O 0.71506 0.35024 0.66419 0.0
C331 C 0.60147 0.24418 0.68724 0.0
N332 N 0.66571 0.22604 0.71246 0.0
C333 C 0.64142 0.10066 0.69537 0.0
C334 C 0.57544 0.11883 0.66885 0.0
C335 C 0.55469 0.19061 0.66633 0.0
C336 C 0.68657 0.15591 0.71736 0.0
H337 H 0.5849 0.29947 0.68641 0.0
C338 C 0.72918 0.41408 0.64245 0.0
O339 O 0.605 0.53027 0.86248 0.0
O340 O 0.54603 0.50653 0.78416 0.0
N341 N 0.75199 0.18397 0.81413 0.0
C342 C 0.76589 0.15735 -0.12716 0.0
C343 C 0.78908 0.09365 -0.11454 0.0
C344 C 0.7994 0.05819 0.83674 0.0
C345 C 0.7634 0.07049 0.77128 0.0
C346 C 0.74542 0.13648 0.76035 0.0
H347 H 0.75193 0.17666 -0.08712 0.0
O348 O 0.56709 0.42979 0.77033 0.0
O349 O 0.64803 0.37324 0.78381 0.0
O350 O 0.82346 0.51546 0.83823 0.0
O351 O 0.86394 0.39352 0.82136 0.0
C352 C 0.72846 0.01443 0.73357 0.0
C353 C 0.66451 0.02944 0.70124 0.0
H354 H 0.53941 0.07779 0.65182 0.0
H355 H 0.50268 0.2047 0.64785 0.0
H356 H 0.79772 0.07078 -0.06874 0.0
H357 H 0.80696 1.00251 0.84979 0.0
H358 H 0.74415 0.95892 0.73923 0.0
H359 H 0.63347 0.98592 0.68162 0.0
Mn360 Mn 0.01981 0.66327 0.77256 0.0
Mn361 Mn 0.22921 0.73225 0.75043 0.0
C362 C 0.14686 0.58328 0.80094 0.0
C363 C 0.99896 0.54178 0.84376 0.0
C364 C 0.06464 0.86462 0.8562 0.0
O365 O 0.04962 0.69539 0.66731 0.0
O366 O 0.17014 0.71506 0.66419 0.0
C367 C 0.27619 0.60147 0.68723 0.0
N368 N 0.29434 0.66571 0.71246 0.0
C369 C 0.41971 0.64141 0.69537 0.0
C370 C 0.40155 0.57544 0.66885 0.0
C371 C 0.32976 0.55469 0.66633 0.0
C372 C 0.36447 0.68657 0.71735 0.0
H373 H 0.2209 0.5849 0.68641 0.0
C374 C 0.1063 0.72918 0.64245 0.0
O375 O 0.99011 0.60499 0.86248 0.0
O376 O 0.01384 0.54602 0.78416 0.0
N377 N 0.33641 0.75198 0.81413 0.0
C378 C 0.36303 0.76588 -0.12716 0.0
C379 C 0.42673 0.78908 -0.11454 0.0
C380 C 0.46219 0.79939 0.83674 0.0
C381 C 0.44989 0.76339 0.77128 0.0
C382 C 0.3839 0.74542 0.76035 0.0
H383 H 0.34372 0.75193 -0.08712 0.0
O384 O 0.09058 0.56708 0.77032 0.0
O385 O 0.14714 0.64803 0.78381 0.0
O386 O 1.00491 0.82345 0.83823 0.0
O387 O 0.12685 0.86393 0.82136 0.0
C388 C 0.50594 0.72846 0.73356 0.0
C389 C 0.49093 0.6645 0.70124 0.0
H390 H 0.44259 0.53941 0.65182 0.0
H391 H 0.31568 0.50267 0.64785 0.0
H392 H 0.44959 0.79772 -0.06874 0.0
H393 H 0.51787 0.80695 0.84979 0.0
H394 H 0.56146 0.74414 0.73923 0.0
H395 H 0.53445 0.63347 0.68161 0.0
Mn396 Mn 0.8571 0.01981 0.77256 0.0
Mn397 Mn 0.78813 0.2292 0.75043 0.0
C398 C 0.9371 0.14686 0.80094 0.0
C399 C 0.97859 0.99895 0.84376 0.0
C400 C 0.65576 0.06464 0.8562 0.0
O401 O 0.82499 0.04962 0.66731 0.0
O402 O 0.80532 0.17014 0.66419 0.0
C403 C 0.91891 0.27619 0.68723 0.0
N404 N 0.85467 0.29433 0.71246 0.0
C405 C 0.87897 0.4197 0.69537 0.0
C406 C 0.94494 0.40154 0.66885 0.0
C407 C 0.96569 0.32976 0.66633 0.0
C408 C 0.83381 0.36446 0.71736 0.0
H409 H 0.93548 0.2209 0.68641 0.0
C410 C 0.7912 0.1063 0.64245 0.0
O411 O 0.91538 0.9901 0.86248 0.0
O412 O 0.97435 0.01384 0.78416 0.0
N413 N 0.76839 0.3364 0.81413 0.0
C414 C 0.75449 0.36302 -0.12716 0.0
C415 C 0.7313 0.42672 -0.11454 0.0
C416 C 0.72098 0.46218 0.83674 0.0
C417 C 0.75698 0.44988 0.77128 0.0
C418 C 0.77496 0.38389 0.76035 0.0
H419 H 0.76845 0.34371 -0.08712 0.0
O420 O 0.95329 0.09058 0.77032 0.0
O421 O 0.87235 0.14713 0.78381 0.0
O422 O 0.69692 1.00491 0.83823 0.0
O423 O 0.65645 0.12685 0.82136 0.0
C424 C 0.79192 0.50594 0.73357 0.0
C425 C 0.85588 0.49093 0.70124 0.0
H426 H 0.98097 0.44258 0.65182 0.0
H427 H 0.01771 0.31567 0.64785 0.0
H428 H 0.72266 0.44959 -0.06874 0.0
H429 H 0.71343 0.51786 0.84979 0.0
H430 H 0.77623 0.56145 0.73923 0.0
H431 H 0.88691 0.53445 0.68162 0.0
Mn432 Mn 0.50057 0.66328 0.45869 0.0
Mn433 Mn 0.29117 0.73225 0.48083 0.0
C434 C 0.37351 0.58328 0.43031 0.0
C435 C 0.52142 0.54179 0.38749 0.0
C436 C 0.45573 0.86462 0.37505 0.0
O437 O 0.47076 0.69539 0.56394 0.0
O438 O 0.35024 0.71506 0.56706 0.0
C439 C 0.24419 0.60147 0.54402 0.0
N440 N 0.22604 0.66571 0.5188 0.0
C441 C 0.10067 0.64141 0.53588 0.0
C442 C 0.11883 0.57544 0.5624 0.0
C443 C 0.19062 0.55469 0.56492 0.0
C444 C 0.15591 0.68657 0.5139 0.0
H445 H 0.29948 0.5849 0.54484 0.0
C446 C 0.41408 0.72918 0.5888 0.0
O447 O 0.53027 0.605 0.36877 0.0
O448 O 0.50654 0.54603 0.44709 0.0
N449 N 0.18397 0.75199 0.41712 0.0
C450 C 0.15735 0.76589 0.35842 0.0
C451 C 0.09365 0.78908 0.3458 0.0
C452 C 0.05819 0.7994 0.39452 0.0
C453 C 0.07049 0.7634 0.45997 0.0
C454 C 0.13648 0.74542 0.4709 0.0
H455 H 0.17666 0.75193 0.31837 0.0
O456 O 0.4298 0.56709 0.46093 0.0
O457 O 0.37324 0.64803 0.44744 0.0
O458 O 0.51547 0.82346 0.39302 0.0
O459 O 0.39353 0.86393 0.4099 0.0
C460 C 0.01443 0.72846 0.49769 0.0
C461 C 0.02945 0.6645 0.53001 0.0
H462 H 0.07779 0.53941 0.57943 0.0
H463 H 0.2047 0.50268 0.5834 0.0
H464 H 0.07079 0.79772 0.3 0.0
H465 H 1.00251 0.80695 0.38146 0.0
H466 H 0.95892 0.74415 0.49202 0.0
H467 H 0.98592 0.63347 0.54964 0.0
Mn468 Mn 0.8571 0.50057 0.4587 0.0
Mn469 Mn 0.78813 0.29117 0.48083 0.0
C470 C 0.9371 0.37351 0.43031 0.0
C471 C 0.97859 0.52142 0.38749 0.0
C472 C 0.65576 0.45573 0.37506 0.0
O473 O 0.82499 0.47076 0.56394 0.0
O474 O 0.80532 0.35024 0.56706 0.0
C475 C 0.91891 0.24419 0.54402 0.0
N476 N 0.85467 0.22604 0.5188 0.0
C477 C 0.87897 0.10067 0.53588 0.0
C478 C 0.94494 0.11883 0.5624 0.0
C479 C 0.96569 0.19062 0.56492 0.0
C480 C 0.83381 0.15591 0.5139 0.0
H481 H 0.93548 0.29948 0.54484 0.0
C482 C 0.7912 0.41408 0.58881 0.0
O483 O 0.91538 0.53027 0.36877 0.0
O484 O 0.97435 0.50654 0.4471 0.0
N485 N 0.76839 0.18397 0.41712 0.0
C486 C 0.75449 0.15735 0.35842 0.0
C487 C 0.7313 0.09365 0.3458 0.0
C488 C 0.72098 0.05819 0.39452 0.0
C489 C 0.75698 0.07049 0.45997 0.0
C490 C 0.77496 0.13648 0.4709 0.0
H491 H 0.76845 0.17666 0.31837 0.0
O492 O 0.95329 0.4298 0.46093 0.0
O493 O 0.87235 0.37324 0.44744 0.0
O494 O 0.69692 0.51547 0.39303 0.0
O495 O 0.65645 0.39353 0.4099 0.0
C496 C 0.79192 0.01444 0.49769 0.0
C497 C 0.85588 0.02945 0.53001 0.0
H498 H 0.98097 0.07779 0.57943 0.0
H499 H 0.0177 0.2047 0.5834 0.0
H500 H 0.72266 0.07079 0.3 0.0
H501 H 0.71342 1.00251 0.38146 0.0
H502 H 0.77623 0.95892 0.49202 0.0
H503 H 0.88691 0.98593 0.54963 0.0
Mn504 Mn 0.01981 0.8571 0.4587 0.0
Mn505 Mn 0.2292 0.78813 0.48083 0.0
C506 C 0.14686 0.9371 0.43031 0.0
C507 C 0.99896 0.97859 0.38749 0.0
C508 C 0.06464 0.65576 0.37505 0.0
O509 O 0.04962 0.82499 0.56394 0.0
O510 O 0.17014 0.80532 0.56706 0.0
C511 C 0.27619 0.91891 0.54402 0.0
N512 N 0.29433 0.85467 0.5188 0.0
C513 C 0.41971 0.87896 0.53588 0.0
C514 C 0.40154 0.94494 0.5624 0.0
C515 C 0.32976 0.96569 0.56492 0.0
C516 C 0.36447 0.83381 0.5139 0.0
H517 H 0.2209 0.93547 0.54484 0.0
C518 C 0.1063 0.7912 0.58881 0.0
O519 O 0.9901 0.91538 0.36877 0.0
O520 O 0.01384 0.97435 0.4471 0.0
N521 N 0.3364 0.76839 0.41712 0.0
C522 C 0.36302 0.75449 0.35841 0.0
C523 C 0.42673 0.7313 0.3458 0.0
C524 C 0.46218 0.72098 0.39451 0.0
C525 C 0.44988 0.75698 0.45997 0.0
C526 C 0.38389 0.77496 0.4709 0.0
H527 H 0.34372 0.76845 0.31837 0.0
O528 O 0.09058 0.95329 0.46093 0.0
O529 O 0.14714 0.87235 0.44744 0.0
O530 O 1.00491 0.69692 0.39302 0.0
O531 O 0.12685 0.65645 0.4099 0.0
C532 C 0.50594 0.79192 0.49768 0.0
C533 C 0.49093 0.85587 0.53001 0.0
H534 H 0.44259 0.98096 0.57943 0.0
H535 H 0.31567 0.0177 0.5834 0.0
H536 H 0.44959 0.72266 0.29999 0.0
H537 H 0.51787 0.71342 0.38146 0.0
H538 H 0.56145 0.77623 0.49202 0.0
H539 H 0.53445 0.88691 0.54963 0.0
Mn540 Mn 0.66328 0.01981 0.4587 0.0
Mn541 Mn 0.73225 0.2292 0.48083 0.0
C542 C 0.58328 0.14686 0.43031 0.0
C543 C 0.54179 0.99896 0.38749 0.0
C544 C 0.86462 0.06464 0.37505 0.0
O545 O 0.69539 0.04962 0.56394 0.0
O546 O 0.71506 0.17014 0.56706 0.0
C547 C 0.60147 0.27619 0.54402 0.0
N548 N 0.66571 0.29433 0.5188 0.0
C549 C 0.64141 0.41971 0.53589 0.0
C550 C 0.57544 0.40154 0.5624 0.0
C551 C 0.55469 0.32976 0.56492 0.0
C552 C 0.68657 0.36447 0.5139 0.0
H553 H 0.5849 0.2209 0.54484 0.0
C554 C 0.72918 0.1063 0.5888 0.0
O555 O 0.605 0.9901 0.36877 0.0
O556 O 0.54602 0.01384 0.44709 0.0
N557 N 0.75199 0.3364 0.41712 0.0
C558 C 0.76589 0.36302 0.35842 0.0
C559 C 0.78908 0.42673 0.3458 0.0
C560 C 0.7994 0.46218 0.39452 0.0
C561 C 0.7634 0.44988 0.45997 0.0
C562 C 0.74542 0.38389 0.4709 0.0
H563 H 0.75193 0.34371 0.31837 0.0
O564 O 0.56709 0.09058 0.46093 0.0
O565 O 0.64803 0.14714 0.44744 0.0
O566 O 0.82346 1.00491 0.39302 0.0
O567 O 0.86393 0.12685 0.4099 0.0
C568 C 0.72846 0.50594 0.49769 0.0
C569 C 0.6645 0.49093 0.53002 0.0
H570 H 0.53941 0.44258 0.57944 0.0
H571 H 0.50267 0.31567 0.58341 0.0
H572 H 0.79772 0.44959 0.3 0.0
H573 H 0.80695 0.51786 0.38146 0.0
H574 H 0.74415 0.56145 0.49203 0.0
H575 H 0.63347 0.53445 0.54964 0.0
loop_
_geom_bond_atom_site_label_1
_geom_bond_atom_site_label_2
_geom_bond_distance
_geom_bond_site_symmetry_2
_ccdc_geom_bond_type
Mn0 O5 2.095 . S
Mn0 O15 2.162 1_554 S
Mn0 O16 2.297 . S
Mn0 O24 2.385 1_554 S
Mn0 O25 2.209 . S
Mn0 O26 2.094 1_554 S
Mn1 O6 2.121 . S
Mn1 N8 2.257 . S
Mn1 N17 2.282 . S
Mn1 O25 2.215 . S
Mn1 O27 2.117 . S
C2 O24 1.234 1_554 S
C2 O25 1.283 . S
C3 O15 1.281 1_554 S
C3 O16 1.236 . S
C4 O26 1.240 . S
C4 O27 1.264 1_556 S
O5 Mn0 2.095 . S
O5 C14 1.250 . S
O6 Mn1 2.121 . S
O6 C14 1.258 . S
C7 N8 1.326 . S
C7 C11 1.460 . S
C7 H13 0.929 . S
N8 Mn1 2.257 . S
N8 C7 1.326 . S
N8 C12 1.362 . S
C9 C10 1.258 . S
C9 C12 1.431 . S
C9 C29 1.449 . S
C10 C9 1.258 . S
C10 C11 1.477 . S
C10 H30 0.931 . S
C11 C7 1.460 . S
C11 C10 1.477 . S
C11 H31 0.930 . S
C12 N8 1.362 . S
C12 C9 1.431 . S
C12 C22 1.476 . S
H13 C7 0.929 . S
C14 O5 1.250 . S
C14 O6 1.258 . S
O15 Mn0 2.162 1_556 S
O15 C3 1.281 1_556 S
O16 Mn0 2.297 . S
O16 C3 1.236 . S
N17 Mn1 2.282 . S
N17 C18 1.328 1_554 S
N17 C22 1.318 . S
C18 N17 1.328 1_556 S
C18 C19 1.457 . S
C18 H23 0.929 . S
C19 C18 1.457 . S
C19 C20 1.291 . S
C19 H32 0.931 . S
C20 C19 1.291 . S
C20 C21 1.373 1_556 S
C20 H33 0.929 . S
C21 C20 1.373 1_554 S
C21 C22 1.396 . S
C21 C28 1.403 . S
C22 C12 1.476 . S
C22 N17 1.318 . S
C22 C21 1.396 . S
H23 C18 0.929 . S
O24 Mn0 2.385 1_556 S
O24 C2 1.234 1_556 S
O25 Mn0 2.209 . S
O25 Mn1 2.215 . S
O25 C2 1.283 . S
O26 Mn0 2.094 1_556 S
O26 C4 1.240 . S
O27 Mn1 2.117 . S
O27 C4 1.264 1_554 S
C28 C21 1.403 . S
C28 C29 1.399 . S
C28 H34 0.929 . S
C29 C9 1.449 . S
C29 C28 1.399 . S
C29 H35 0.930 . S
H30 C10 0.931 . S
H31 C11 0.930 . S
H32 C19 0.931 . S
H33 C20 0.929 . S
H34 C28 0.929 . S
H35 C29 0.930 . S
Mn36 O41 2.095 . S
Mn36 O51 2.162 1_554 S
Mn36 O52 2.297 . S
Mn36 O60 2.385 1_554 S
Mn36 O61 2.209 . S
Mn36 O62 2.094 1_554 S
Mn37 O42 2.121 . S
Mn37 N44 2.257 . S
Mn37 N53 2.282 . S
Mn37 O61 2.215 . S
Mn37 O63 2.117 . S
C38 O60 1.234 1_554 S
C38 O61 1.283 . S
C39 O51 1.281 1_554 S
C39 O52 1.236 . S
C40 O62 1.240 . S
C40 O63 1.264 1_556 S
O41 Mn36 2.095 . S
O41 C50 1.250 . S
O42 Mn37 2.121 . S
O42 C50 1.258 . S
C43 N44 1.326 . S
C43 C47 1.460 . S
C43 H49 0.929 . S
N44 Mn37 2.257 . S
N44 C43 1.326 . S
N44 C48 1.362 . S
C45 C46 1.258 . S
C45 C48 1.431 . S
C45 C65 1.449 . S
C46 C45 1.258 . S
C46 C47 1.477 . S
C46 H66 0.931 . S
C47 C43 1.460 . S
C47 C46 1.477 . S
C47 H67 0.930 . S
C48 N44 1.362 . S
C48 C45 1.431 . S
C48 C58 1.476 . S
H49 C43 0.929 . S
C50 O41 1.250 . S
C50 O42 1.258 . S
O51 Mn36 2.162 1_556 S
O51 C39 1.281 1_556 S
O52 Mn36 2.297 . S
O52 C39 1.236 . S
N53 Mn37 2.282 . S
N53 C54 1.328 1_554 S
N53 C58 1.318 . S
C54 N53 1.328 1_556 S
C54 C55 1.457 . S
C54 H59 0.929 . S
C55 C54 1.457 . S
C55 C56 1.291 . S
C55 H68 0.931 . S
C56 C55 1.291 . S
C56 C57 1.373 1_556 S
C56 H69 0.929 . S
C57 C56 1.373 1_554 S
C57 C58 1.396 . S
C57 C64 1.403 . S
C58 C48 1.476 . S
C58 N53 1.318 . S
C58 C57 1.396 . S
H59 C54 0.929 . S
O60 Mn36 2.385 1_556 S
O60 C38 1.234 1_556 S
O61 Mn36 2.209 . S
O61 Mn37 2.215 . S
O61 C38 1.283 . S
O62 Mn36 2.094 1_556 S
O62 C40 1.240 . S
O63 Mn37 2.117 . S
O63 C40 1.264 1_554 S
C64 C57 1.403 . S
C64 C65 1.399 . S
C64 H70 0.929 . S
C65 C45 1.449 . S
C65 C64 1.399 . S
C65 H71 0.930 . S
H66 C46 0.931 . S
H67 C47 0.930 . S
H68 C55 0.931 . S
H69 C56 0.929 . S
H70 C64 0.929 . S
H71 C65 0.930 . S
Mn72 O77 2.095 . S
Mn72 O87 2.162 1_654 S
Mn72 O88 2.297 . S
Mn72 O96 2.385 1_554 S
Mn72 O97 2.209 . S
Mn72 O98 2.094 1_554 S
Mn73 O78 2.121 . S
Mn73 N80 2.257 . S
Mn73 N89 2.282 . S
Mn73 O97 2.215 . S
Mn73 O99 2.117 . S
C74 O96 1.234 1_554 S
C74 O97 1.283 . S
C75 O87 1.281 1_554 S
C75 O88 1.236 1_455 S
C76 O98 1.240 . S
C76 O99 1.264 1_556 S
O77 Mn72 2.095 . S
O77 C86 1.250 . S
O78 Mn73 2.121 . S
O78 C86 1.258 . S
C79 N80 1.326 . S
C79 C83 1.460 . S
C79 H85 0.929 . S
N80 Mn73 2.257 . S
N80 C79 1.326 . S
N80 C84 1.362 . S
C81 C82 1.258 . S
C81 C84 1.431 . S
C81 C101 1.449 . S
C82 C81 1.258 . S
C82 C83 1.477 . S
C82 H102 0.931 . S
C83 C79 1.460 . S
C83 C82 1.477 . S
C83 H103 0.930 . S
C84 N80 1.362 . S
C84 C81 1.431 . S
C84 C94 1.476 . S
H85 C79 0.929 . S
C86 O77 1.250 . S
C86 O78 1.258 . S
O87 Mn72 2.162 1_456 S
O87 C75 1.281 1_556 S
O88 Mn72 2.297 . S
O88 C75 1.236 1_655 S
N89 Mn73 2.282 . S
N89 C90 1.328 1_554 S
N89 C94 1.318 . S
C90 N89 1.328 1_556 S
C90 C91 1.457 . S
C90 H95 0.929 . S
C91 C90 1.457 . S
C91 C92 1.291 . S
C91 H104 0.931 . S
C92 C91 1.291 . S
C92 C93 1.373 1_556 S
C92 H105 0.929 . S
C93 C92 1.373 1_554 S
C93 C94 1.396 . S
C93 C100 1.403 . S
C94 C84 1.476 . S
C94 N89 1.318 . S
C94 C93 1.396 . S
H95 C90 0.929 . S
O96 Mn72 2.385 1_556 S
O96 C74 1.234 1_556 S
O97 Mn72 2.209 . S
O97 Mn73 2.215 . S
O97 C74 1.283 . S
O98 Mn72 2.094 1_556 S
O98 C76 1.240 . S
O99 Mn73 2.117 . S
O99 C76 1.264 1_554 S
C100 C93 1.403 . S
C100 C101 1.399 . S
C100 H106 0.929 . S
C101 C81 1.449 . S
C101 C100 1.399 . S
C101 H107 0.930 . S
H102 C82 0.931 . S
H103 C83 0.930 . S
H104 C91 0.931 . S
H105 C92 0.929 . S
H106 C100 0.929 . S
H107 C101 0.930 . S
Mn108 O113 2.095 . S
Mn108 O123 2.162 1_564 S
Mn108 O124 2.297 . S
Mn108 O132 2.385 1_554 S
Mn108 O133 2.209 . S
Mn108 O134 2.094 1_554 S
Mn109 O114 2.121 . S
Mn109 N116 2.257 . S
Mn109 N125 2.282 . S
Mn109 O133 2.215 . S
Mn109 O135 2.117 . S
C110 O132 1.234 1_554 S
C110 O133 1.283 . S
C111 O123 1.281 1_554 S
C111 O124 1.236 1_545 S
C112 O134 1.240 . S
C112 O135 1.264 1_556 S
O113 Mn108 2.095 . S
O113 C122 1.250 . S
O114 Mn109 2.121 . S
O114 C122 1.258 . S
C115 N116 1.326 . S
C115 C119 1.460 . S
C115 H121 0.929 . S
N116 Mn109 2.257 . S
N116 C115 1.326 . S
N116 C120 1.362 . S
C117 C118 1.258 . S
C117 C120 1.431 . S
C117 C137 1.449 . S
C118 C117 1.258 . S
C118 C119 1.477 . S
C118 H138 0.931 . S
C119 C115 1.460 . S
C119 C118 1.477 . S
C119 H139 0.930 . S
C120 N116 1.362 . S
C120 C117 1.431 . S
C120 C130 1.476 . S
H121 C115 0.929 . S
C122 O113 1.250 . S
C122 O114 1.258 . S
O123 Mn108 2.162 1_546 S
O123 C111 1.281 1_556 S
O124 Mn108 2.297 . S
O124 C111 1.236 1_565 S
N125 Mn109 2.282 . S
N125 C126 1.328 1_554 S
N125 C130 1.318 . S
C126 N125 1.328 1_556 S
C126 C127 1.457 . S
C126 H131 0.929 . S
C127 C126 1.457 . S
C127 C128 1.291 . S
C127 H140 0.931 . S
C128 C127 1.291 . S
C128 C129 1.373 1_556 S
C128 H141 0.929 . S
C129 C128 1.373 1_554 S
C129 C130 1.396 . S
C129 C136 1.403 . S
C130 C120 1.476 . S
C130 N125 1.318 . S
C130 C129 1.396 . S
H131 C126 0.929 . S
O132 Mn108 2.385 1_556 S
O132 C110 1.234 1_556 S
O133 Mn108 2.209 . S
O133 Mn109 2.215 . S
O133 C110 1.283 . S
O134 Mn108 2.094 1_556 S
O134 C112 1.240 . S
O135 Mn109 2.117 . S
O135 C112 1.264 1_554 S
C136 C129 1.403 . S
C136 C137 1.399 . S
C136 H142 0.929 . S
C137 C117 1.449 . S
C137 C136 1.399 . S
C137 H143 0.930 . S
H138 C118 0.931 . S
H139 C119 0.930 . S
H140 C127 0.931 . S
H141 C128 0.929 . S
H142 C136 0.929 . S
H143 C137 0.930 . S
Mn144 O149 2.095 . S
Mn144 O159 2.162 . S
Mn144 O160 2.297 . S
Mn144 O168 2.385 . S
Mn144 O169 2.209 . S
Mn144 O170 2.094 . S
Mn145 O150 2.121 . S
Mn145 N152 2.257 . S
Mn145 N161 2.282 . S
Mn145 O169 2.215 . S
Mn145 O171 2.117 . S
C146 O168 1.234 . S
C146 O169 1.283 . S
C147 O159 1.281 . S
C147 O160 1.236 . S
C148 O170 1.240 . S
C148 O171 1.264 . S
O149 Mn144 2.095 . S
O149 C158 1.250 . S
O150 Mn145 2.121 . S
O150 C158 1.258 . S
C151 N152 1.326 . S
C151 C155 1.460 . S
C151 H157 0.929 . S
N152 Mn145 2.257 . S
N152 C151 1.326 . S
N152 C156 1.362 . S
C153 C154 1.258 . S
C153 C156 1.431 . S
C153 C173 1.449 . S
C154 C153 1.258 . S
C154 C155 1.477 . S
C154 H174 0.931 . S
C155 C151 1.460 . S
C155 C154 1.477 . S
C155 H175 0.930 . S
C156 N152 1.362 . S
C156 C153 1.431 . S
C156 C166 1.476 . S
H157 C151 0.929 . S
C158 O149 1.250 . S
C158 O150 1.258 . S
O159 Mn144 2.162 . S
O159 C147 1.281 . S
O160 Mn144 2.297 . S
O160 C147 1.236 . S
N161 Mn145 2.282 . S
N161 C162 1.328 . S
N161 C166 1.318 . S
C162 N161 1.328 . S
C162 C163 1.457 . S
C162 H167 0.929 . S
C163 C162 1.457 . S
C163 C164 1.291 . S
C163 H176 0.931 . S
C164 C163 1.291 . S
C164 C165 1.373 . S
C164 H177 0.929 . S
C165 C164 1.373 . S
C165 C166 1.396 . S
C165 C172 1.403 . S
C166 C156 1.476 . S
C166 N161 1.318 . S
C166 C165 1.396 . S
H167 C162 0.929 . S
O168 Mn144 2.385 . S
O168 C146 1.234 . S
O169 Mn144 2.209 . S
O169 Mn145 2.215 . S
O169 C146 1.283 . S
O170 Mn144 2.094 . S
O170 C148 1.240 . S
O171 Mn145 2.117 . S
O171 C148 1.264 . S
C172 C165 1.403 . S
C172 C173 1.399 . S
C172 H178 0.929 . S
C173 C153 1.449 . S
C173 C172 1.399 . S
C173 H179 0.930 . S
H174 C154 0.931 . S
H175 C155 0.930 . S
H176 C163 0.931 . S
H177 C164 0.929 . S
H178 C172 0.929 . S
H179 C173 0.930 . S
Mn180 O185 2.095 . S
Mn180 O195 2.162 . S
Mn180 O196 2.297 . S
Mn180 O204 2.385 . S
Mn180 O205 2.209 . S
Mn180 O206 2.094 . S
Mn181 O186 2.121 . S
Mn181 N188 2.257 . S
Mn181 N197 2.282 . S
Mn181 O205 2.215 . S
Mn181 O207 2.117 . S
C182 O204 1.234 . S
C182 O205 1.283 . S
C183 O195 1.281 . S
C183 O196 1.236 . S
C184 O206 1.240 . S
C184 O207 1.264 . S
O185 Mn180 2.095 . S
O185 C194 1.250 . S
O186 Mn181 2.121 . S
O186 C194 1.258 . S
C187 N188 1.326 . S
C187 C191 1.460 . S
C187 H193 0.929 . S
N188 Mn181 2.257 . S
N188 C187 1.326 . S
N188 C192 1.362 . S
C189 C190 1.258 . S
C189 C192 1.431 . S
C189 C209 1.449 . S
C190 C189 1.258 . S
C190 C191 1.477 . S
C190 H210 0.931 . S
C191 C187 1.460 . S
C191 C190 1.477 . S
C191 H211 0.930 . S
C192 N188 1.362 . S
C192 C189 1.431 . S
C192 C202 1.476 . S
H193 C187 0.929 . S
C194 O185 1.250 . S
C194 O186 1.258 . S
O195 Mn180 2.162 . S
O195 C183 1.281 . S
O196 Mn180 2.297 . S
O196 C183 1.236 . S
N197 Mn181 2.282 . S
N197 C198 1.328 . S
N197 C202 1.318 . S
C198 N197 1.328 . S
C198 C199 1.457 . S
C198 H203 0.929 . S
C199 C198 1.457 . S
C199 C200 1.291 . S
C199 H212 0.931 . S
C200 C199 1.291 . S
C200 C201 1.373 . S
C200 H213 0.929 . S
C201 C200 1.373 . S
C201 C202 1.396 . S
C201 C208 1.403 . S
C202 C192 1.476 . S
C202 N197 1.318 . S
C202 C201 1.396 . S
H203 C198 0.929 . S
O204 Mn180 2.385 . S
O204 C182 1.234 . S
O205 Mn180 2.209 . S
O205 Mn181 2.215 . S
O205 C182 1.283 . S
O206 Mn180 2.094 . S
O206 C184 1.240 . S
O207 Mn181 2.117 . S
O207 C184 1.264 . S
C208 C201 1.403 . S
C208 C209 1.399 . S
C208 H214 0.929 . S
C209 C189 1.449 . S
C209 C208 1.399 . S
C209 H215 0.930 . S
H210 C190 0.931 . S
H211 C191 0.930 . S
H212 C199 0.931 . S
H213 C200 0.929 . S
H214 C208 0.929 . S
H215 C209 0.930 . S
Mn216 O221 2.095 . S
Mn216 O231 2.162 1_655 S
Mn216 O232 2.297 . S
Mn216 O240 2.385 . S
Mn216 O241 2.209 . S
Mn216 O242 2.094 . S
Mn217 O222 2.121 . S
Mn217 N224 2.257 . S
Mn217 N233 2.282 . S
Mn217 O241 2.215 . S
Mn217 O243 2.117 . S
C218 O240 1.234 . S
C218 O241 1.283 . S
C219 O231 1.281 . S
C219 O232 1.236 1_455 S
C220 O242 1.240 . S
C220 O243 1.264 . S
O221 Mn216 2.095 . S
O221 C230 1.250 . S
O222 Mn217 2.121 . S
O222 C230 1.258 . S
C223 N224 1.326 . S
C223 C227 1.460 . S
C223 H229 0.929 . S
N224 Mn217 2.257 . S
N224 C223 1.326 . S
N224 C228 1.362 . S
C225 C226 1.258 . S
C225 C228 1.431 . S
C225 C245 1.449 . S
C226 C225 1.258 . S
C226 C227 1.477 . S
C226 H246 0.931 . S
C227 C223 1.460 . S
C227 C226 1.477 . S
C227 H247 0.930 . S
C228 N224 1.362 . S
C228 C225 1.431 . S
C228 C238 1.476 . S
H229 C223 0.929 . S
C230 O221 1.250 . S
C230 O222 1.258 . S
O231 Mn216 2.162 1_455 S
O231 C219 1.281 . S
O232 Mn216 2.297 . S
O232 C219 1.236 1_655 S
N233 Mn217 2.282 . S
N233 C234 1.328 . S
N233 C238 1.318 . S
C234 N233 1.328 . S
C234 C235 1.457 . S
C234 H239 0.929 . S
C235 C234 1.457 . S
C235 C236 1.291 . S
C235 H248 0.931 . S
C236 C235 1.291 . S
C236 C237 1.373 . S
C236 H249 0.929 . S
C237 C236 1.373 . S
C237 C238 1.396 . S
C237 C244 1.403 . S
C238 C228 1.476 . S
C238 N233 1.318 . S
C238 C237 1.396 . S
H239 C234 0.929 . S
O240 Mn216 2.385 . S
O240 C218 1.234 . S
O241 Mn216 2.209 . S
O241 Mn217 2.215 . S
O241 C218 1.283 . S
O242 Mn216 2.094 . S
O242 C220 1.240 . S
O243 Mn217 2.117 . S
O243 C220 1.264 . S
C244 C237 1.403 . S
C244 C245 1.399 . S
C244 H250 0.929 . S
C245 C225 1.449 . S
C245 C244 1.399 . S
C245 H251 0.930 . S
H246 C226 0.931 . S
H247 C227 0.930 . S
H248 C235 0.931 . S
H249 C236 0.929 . S
H250 C244 0.929 . S
H251 C245 0.930 . S
Mn252 O257 2.095 . S
Mn252 O267 2.162 1_565 S
Mn252 O268 2.297 . S
Mn252 O276 2.385 . S
Mn252 O277 2.209 . S
Mn252 O278 2.094 . S
Mn253 O258 2.121 . S
Mn253 N260 2.257 . S
Mn253 N269 2.282 . S
Mn253 O277 2.215 . S
Mn253 O279 2.117 . S
C254 O276 1.234 . S
C254 O277 1.283 . S
C255 O267 1.281 . S
C255 O268 1.236 1_545 S
C256 O278 1.240 . S
C256 O279 1.264 . S
O257 Mn252 2.095 . S
O257 C266 1.250 . S
O258 Mn253 2.121 . S
O258 C266 1.258 . S
C259 N260 1.326 . S
C259 C263 1.460 . S
C259 H265 0.929 . S
N260 Mn253 2.257 . S
N260 C259 1.326 . S
N260 C264 1.362 . S
C261 C262 1.258 . S
C261 C264 1.431 . S
C261 C281 1.449 . S
C262 C261 1.258 . S
C262 C263 1.477 . S
C262 H282 0.931 . S
C263 C259 1.460 . S
C263 C262 1.477 . S
C263 H283 0.930 . S
C264 N260 1.362 . S
C264 C261 1.431 . S
C264 C274 1.476 . S
H265 C259 0.929 . S
C266 O257 1.250 . S
C266 O258 1.258 . S
O267 Mn252 2.162 1_545 S
O267 C255 1.281 . S
O268 Mn252 2.297 . S
O268 C255 1.236 1_565 S
N269 Mn253 2.282 . S
N269 C270 1.328 . S
N269 C274 1.318 . S
C270 N269 1.328 . S
C270 C271 1.457 . S
C270 H275 0.929 . S
C271 C270 1.457 . S
C271 C272 1.291 . S
C271 H284 0.931 . S
C272 C271 1.291 . S
C272 C273 1.373 . S
C272 H285 0.929 . S
C273 C272 1.373 . S
C273 C274 1.396 . S
C273 C280 1.403 . S
C274 C264 1.476 . S
C274 N269 1.318 . S
C274 C273 1.396 . S
H275 C270 0.929 . S
O276 Mn252 2.385 . S
O276 C254 1.234 . S
O277 Mn252 2.209 . S
O277 Mn253 2.215 . S
O277 C254 1.283 . S
O278 Mn252 2.094 . S
O278 C256 1.240 . S
O279 Mn253 2.117 . S
O279 C256 1.264 . S
C280 C273 1.403 . S
C280 C281 1.399 . S
C280 H286 0.929 . S
C281 C261 1.449 . S
C281 C280 1.399 . S
C281 H287 0.930 . S
H282 C262 0.931 . S
H283 C263 0.930 . S
H284 C271 0.931 . S
H285 C272 0.929 . S
H286 C280 0.929 . S
H287 C281 0.930 . S
Mn288 O293 2.095 . S
Mn288 O303 2.162 1_556 S
Mn288 O304 2.297 . S
Mn288 O312 2.385 1_556 S
Mn288 O313 2.209 . S
Mn288 O314 2.094 1_556 S
Mn289 O294 2.121 . S
Mn289 N296 2.257 . S
Mn289 N305 2.282 . S
Mn289 O313 2.215 . S
Mn289 O315 2.117 . S
C290 O312 1.234 1_556 S
C290 O313 1.283 . S
C291 O303 1.281 1_556 S
C291 O304 1.236 . S
C292 O314 1.240 . S
C292 O315 1.264 1_554 S
O293 Mn288 2.095 . S
O293 C302 1.250 . S
O294 Mn289 2.121 . S
O294 C302 1.258 . S
C295 N296 1.326 . S
C295 C299 1.460 . S
C295 H301 0.929 . S
N296 Mn289 2.257 . S
N296 C295 1.326 . S
N296 C300 1.362 . S
C297 C298 1.258 . S
C297 C300 1.431 . S
C297 C317 1.449 . S
C298 C297 1.258 . S
C298 C299 1.477 . S
C298 H318 0.931 . S
C299 C295 1.460 . S
C299 C298 1.477 . S
C299 H319 0.930 . S
C300 N296 1.362 . S
C300 C297 1.431 . S
C300 C310 1.476 . S
H301 C295 0.929 . S
C302 O293 1.250 . S
C302 O294 1.258 . S
O303 Mn288 2.162 1_554 S
O303 C291 1.281 1_554 S
O304 Mn288 2.297 . S
O304 C291 1.236 . S
N305 Mn289 2.282 . S
N305 C306 1.328 1_556 S
N305 C310 1.318 . S
C306 N305 1.328 1_554 S
C306 C307 1.457 . S
C306 H311 0.929 . S
C307 C306 1.457 . S
C307 C308 1.291 . S
C307 H320 0.931 . S
C308 C307 1.291 . S
C308 C309 1.373 1_554 S
C308 H321 0.929 . S
C309 C308 1.373 1_556 S
C309 C310 1.396 . S
C309 C316 1.403 . S
C310 C300 1.476 . S
C310 N305 1.318 . S
C310 C309 1.396 . S
H311 C306 0.929 . S
O312 Mn288 2.385 1_554 S
O312 C290 1.234 1_554 S
O313 Mn288 2.209 . S
O313 Mn289 2.215 . S
O313 C290 1.283 . S
O314 Mn288 2.094 1_554 S
O314 C292 1.240 . S
O315 Mn289 2.117 . S
O315 C292 1.264 1_556 S
C316 C309 1.403 . S
C316 C317 1.399 . S
C316 H322 0.929 . S
C317 C297 1.449 . S
C317 C316 1.399 . S
C317 H323 0.930 . S
H318 C298 0.931 . S
H319 C299 0.930 . S
H320 C307 0.931 . S
H321 C308 0.929 . S
H322 C316 0.929 . S
H323 C317 0.930 . S
Mn324 O329 2.095 . S
Mn324 O339 2.162 1_556 S
Mn324 O340 2.297 . S
Mn324 O348 2.385 1_556 S
Mn324 O349 2.209 . S
Mn324 O350 2.094 1_556 S
Mn325 O330 2.121 . S
Mn325 N332 2.257 . S
Mn325 N341 2.282 . S
Mn325 O349 2.215 . S
Mn325 O351 2.117 . S
C326 O348 1.234 1_556 S
C326 O349 1.283 . S
C327 O339 1.281 1_556 S
C327 O340 1.236 . S
C328 O350 1.240 . S
C328 O351 1.264 1_554 S
O329 Mn324 2.095 . S
O329 C338 1.250 . S
O330 Mn325 2.121 . S
O330 C338 1.258 . S
C331 N332 1.326 . S
C331 C335 1.460 . S
C331 H337 0.929 . S
N332 Mn325 2.257 . S
N332 C331 1.326 . S
N332 C336 1.362 . S
C333 C334 1.258 . S
C333 C336 1.431 . S
C333 C353 1.449 . S
C334 C333 1.258 . S
C334 C335 1.477 . S
C334 H354 0.931 . S
C335 C331 1.460 . S
C335 C334 1.477 . S
C335 H355 0.930 . S
C336 N332 1.362 . S
C336 C333 1.431 . S
C336 C346 1.476 . S
H337 C331 0.929 . S
C338 O329 1.250 . S
C338 O330 1.258 . S
O339 Mn324 2.162 1_554 S
O339 C327 1.281 1_554 S
O340 Mn324 2.297 . S
O340 C327 1.236 . S
N341 Mn325 2.282 . S
N341 C342 1.328 1_556 S
N341 C346 1.318 . S
C342 N341 1.328 1_554 S
C342 C343 1.457 . S
C342 H347 0.929 . S
C343 C342 1.457 . S
C343 C344 1.291 . S
C343 H356 0.931 . S
C344 C343 1.291 . S
C344 C345 1.373 1_554 S
C344 H357 0.929 . S
C345 C344 1.373 1_556 S
C345 C346 1.396 . S
C345 C352 1.403 . S
C346 C336 1.476 . S
C346 N341 1.318 . S
C346 C345 1.396 . S
H347 C342 0.929 . S
O348 Mn324 2.385 1_554 S
O348 C326 1.234 1_554 S
O349 Mn324 2.209 . S
O349 Mn325 2.215 . S
O349 C326 1.283 . S
O350 Mn324 2.094 1_554 S
O350 C328 1.240 . S
O351 Mn325 2.117 . S
O351 C328 1.264 1_556 S
C352 C345 1.403 . S
C352 C353 1.399 . S
C352 H358 0.929 . S
C353 C333 1.449 . S
C353 C352 1.399 . S
C353 H359 0.930 . S
H354 C334 0.931 . S
H355 C335 0.930 . S
H356 C343 0.931 . S
H357 C344 0.929 . S
H358 C352 0.929 . S
H359 C353 0.930 . S
Mn360 O365 2.095 . S
Mn360 O375 2.162 1_456 S
Mn360 O376 2.297 . S
Mn360 O384 2.385 1_556 S
Mn360 O385 2.209 . S
Mn360 O386 2.094 1_556 S
Mn361 O366 2.121 . S
Mn361 N368 2.257 . S
Mn361 N377 2.282 . S
Mn361 O385 2.215 . S
Mn361 O387 2.117 . S
C362 O384 1.234 1_556 S
C362 O385 1.283 . S
C363 O375 1.281 1_556 S
C363 O376 1.236 1_655 S
C364 O386 1.240 . S
C364 O387 1.264 1_554 S
O365 Mn360 2.095 . S
O365 C374 1.250 . S
O366 Mn361 2.121 . S
O366 C374 1.258 . S
C367 N368 1.326 . S
C367 C371 1.460 . S
C367 H373 0.929 . S
N368 Mn361 2.257 . S
N368 C367 1.326 . S
N368 C372 1.362 . S
C369 C370 1.258 . S
C369 C372 1.431 . S
C369 C389 1.449 . S
C370 C369 1.258 . S
C370 C371 1.477 . S
C370 H390 0.931 . S
C371 C367 1.460 . S
C371 C370 1.477 . S
C371 H391 0.930 . S
C372 N368 1.362 . S
C372 C369 1.431 . S
C372 C382 1.476 . S
H373 C367 0.929 . S
C374 O365 1.250 . S
C374 O366 1.258 . S
O375 Mn360 2.162 1_654 S
O375 C363 1.281 1_554 S
O376 Mn360 2.297 . S
O376 C363 1.236 1_455 S
N377 Mn361 2.282 . S
N377 C378 1.328 1_556 S
N377 C382 1.318 . S
C378 N377 1.328 1_554 S
C378 C379 1.457 . S
C378 H383 0.929 . S
C379 C378 1.457 . S
C379 C380 1.291 . S
C379 H392 0.931 . S
C380 C379 1.291 . S
C380 C381 1.373 1_554 S
C380 H393 0.929 . S
C381 C380 1.373 1_556 S
C381 C382 1.396 . S
C381 C388 1.403 . S
C382 C372 1.476 . S
C382 N377 1.318 . S
C382 C381 1.396 . S
H383 C378 0.929 . S
O384 Mn360 2.385 1_554 S
O384 C362 1.234 1_554 S
O385 Mn360 2.209 . S
O385 Mn361 2.215 . S
O385 C362 1.283 . S
O386 Mn360 2.094 1_554 S
O386 C364 1.240 . S
O387 Mn361 2.117 . S
O387 C364 1.264 1_556 S
C388 C381 1.403 . S
C388 C389 1.399 . S
C388 H394 0.929 . S
C389 C369 1.449 . S
C389 C388 1.399 . S
C389 H395 0.930 . S
H390 C370 0.931 . S
H391 C371 0.930 . S
H392 C379 0.931 . S
H393 C380 0.929 . S
H394 C388 0.929 . S
H395 C389 0.930 . S
Mn396 O401 2.095 . S
Mn396 O411 2.162 1_546 S
Mn396 O412 2.297 . S
Mn396 O420 2.385 1_556 S
Mn396 O421 2.209 . S
Mn396 O422 2.094 1_556 S
Mn397 O402 2.121 . S
Mn397 N404 2.257 . S
Mn397 N413 2.282 . S
Mn397 O421 2.215 . S
Mn397 O423 2.117 . S
C398 O420 1.234 1_556 S
C398 O421 1.283 . S
C399 O411 1.281 1_556 S
C399 O412 1.236 1_565 S
C400 O422 1.240 . S
C400 O423 1.264 1_554 S
O401 Mn396 2.095 . S
O401 C410 1.250 . S
O402 Mn397 2.121 . S
O402 C410 1.258 . S
C403 N404 1.326 . S
C403 C407 1.460 . S
C403 H409 0.929 . S
N404 Mn397 2.257 . S
N404 C403 1.326 . S
N404 C408 1.362 . S
C405 C406 1.258 . S
C405 C408 1.431 . S
C405 C425 1.449 . S
C406 C405 1.258 . S
C406 C407 1.477 . S
C406 H426 0.931 . S
C407 C403 1.460 . S
C407 C406 1.477 . S
C407 H427 0.930 . S
C408 N404 1.362 . S
C408 C405 1.431 . S
C408 C418 1.476 . S
H409 C403 0.929 . S
C410 O401 1.250 . S
C410 O402 1.258 . S
O411 Mn396 2.162 1_564 S
O411 C399 1.281 1_554 S
O412 Mn396 2.297 . S
O412 C399 1.236 1_545 S
N413 Mn397 2.282 . S
N413 C414 1.328 1_556 S
N413 C418 1.318 . S
C414 N413 1.328 1_554 S
C414 C415 1.457 . S
C414 H419 0.929 . S
C415 C414 1.457 . S
C415 C416 1.291 . S
C415 H428 0.931 . S
C416 C415 1.291 . S
C416 C417 1.373 1_554 S
C416 H429 0.929 . S
C417 C416 1.373 1_556 S
C417 C418 1.396 . S
C417 C424 1.403 . S
C418 C408 1.476 . S
C418 N413 1.318 . S
C418 C417 1.396 . S
H419 C414 0.929 . S
O420 Mn396 2.385 1_554 S
O420 C398 1.234 1_554 S
O421 Mn396 2.209 . S
O421 Mn397 2.215 . S
O421 C398 1.283 . S
O422 Mn396 2.094 1_554 S
O422 C400 1.240 . S
O423 Mn397 2.117 . S
O423 C400 1.264 1_556 S
C424 C417 1.403 . S
C424 C425 1.399 . S
C424 H430 0.929 . S
C425 C405 1.449 . S
C425 C424 1.399 . S
C425 H431 0.930 . S
H426 C406 0.931 . S
H427 C407 0.930 . S
H428 C415 0.931 . S
H429 C416 0.929 . S
H430 C424 0.929 . S
H431 C425 0.930 . S
Mn432 O437 2.095 . S
Mn432 O447 2.162 . S
Mn432 O448 2.297 . S
Mn432 O456 2.385 . S
Mn432 O457 2.209 . S
Mn432 O458 2.094 . S
Mn433 O438 2.121 . S
Mn433 N440 2.257 . S
Mn433 N449 2.282 . S
Mn433 O457 2.215 . S
Mn433 O459 2.117 . S
C434 O456 1.234 . S
C434 O457 1.283 . S
C435 O447 1.281 . S
C435 O448 1.236 . S
C436 O458 1.240 . S
C436 O459 1.264 . S
O437 Mn432 2.095 . S
O437 C446 1.250 . S
O438 Mn433 2.121 . S
O438 C446 1.258 . S
C439 N440 1.326 . S
C439 C443 1.460 . S
C439 H445 0.929 . S
N440 Mn433 2.257 . S
N440 C439 1.326 . S
N440 C444 1.362 . S
C441 C442 1.258 . S
C441 C444 1.431 . S
C441 C461 1.449 . S
C442 C441 1.258 . S
C442 C443 1.477 . S
C442 H462 0.931 . S
C443 C439 1.460 . S
C443 C442 1.477 . S
C443 H463 0.930 . S
C444 N440 1.362 . S
C444 C441 1.431 . S
C444 C454 1.476 . S
H445 C439 0.929 . S
C446 O437 1.250 . S
C446 O438 1.258 . S
O447 Mn432 2.162 . S
O447 C435 1.281 . S
O448 Mn432 2.297 . S
O448 C435 1.236 . S
N449 Mn433 2.282 . S
N449 C450 1.328 . S
N449 C454 1.318 . S
C450 N449 1.328 . S
C450 C451 1.457 . S
C450 H455 0.929 . S
C451 C450 1.457 . S
C451 C452 1.291 . S
C451 H464 0.931 . S
C452 C451 1.291 . S
C452 C453 1.373 . S
C452 H465 0.929 . S
C453 C452 1.373 . S
C453 C454 1.396 . S
C453 C460 1.403 . S
C454 C444 1.476 . S
C454 N449 1.318 . S
C454 C453 1.396 . S
H455 C450 0.929 . S
O456 Mn432 2.385 . S
O456 C434 1.234 . S
O457 Mn432 2.209 . S
O457 Mn433 2.215 . S
O457 C434 1.283 . S
O458 Mn432 2.094 . S
O458 C436 1.240 . S
O459 Mn433 2.117 . S
O459 C436 1.264 . S
C460 C453 1.403 . S
C460 C461 1.399 . S
C460 H466 0.929 . S
C461 C441 1.449 . S
C461 C460 1.399 . S
C461 H467 0.930 . S
H462 C442 0.931 . S
H463 C443 0.930 . S
H464 C451 0.931 . S
H465 C452 0.929 . S
H466 C460 0.929 . S
H467 C461 0.930 . S
Mn468 O473 2.095 . S
Mn468 O483 2.162 . S
Mn468 O484 2.297 . S
Mn468 O492 2.385 . S
Mn468 O493 2.209 . S
Mn468 O494 2.094 . S
Mn469 O474 2.121 . S
Mn469 N476 2.257 . S
Mn469 N485 2.282 . S
Mn469 O493 2.215 . S
Mn469 O495 2.117 . S
C470 O492 1.234 . S
C470 O493 1.283 . S
C471 O483 1.281 . S
C471 O484 1.236 . S
C472 O494 1.240 . S
C472 O495 1.264 . S
O473 Mn468 2.095 . S
O473 C482 1.250 . S
O474 Mn469 2.121 . S
O474 C482 1.258 . S
C475 N476 1.326 . S
C475 C479 1.460 . S
C475 H481 0.929 . S
N476 Mn469 2.257 . S
N476 C475 1.326 . S
N476 C480 1.362 . S
C477 C478 1.258 . S
C477 C480 1.431 . S
C477 C497 1.449 . S
C478 C477 1.258 . S
C478 C479 1.477 . S
C478 H498 0.931 . S
C479 C475 1.460 . S
C479 C478 1.477 . S
C479 H499 0.930 . S
C480 N476 1.362 . S
C480 C477 1.431 . S
C480 C490 1.476 . S
H481 C475 0.929 . S
C482 O473 1.250 . S
C482 O474 1.258 . S
O483 Mn468 2.162 . S
O483 C471 1.281 . S
O484 Mn468 2.297 . S
O484 C471 1.236 . S
N485 Mn469 2.282 . S
N485 C486 1.328 . S
N485 C490 1.318 . S
C486 N485 1.328 . S
C486 C487 1.457 . S
C486 H491 0.929 . S
C487 C486 1.457 . S
C487 C488 1.291 . S
C487 H500 0.931 . S
C488 C487 1.291 . S
C488 C489 1.373 . S
C488 H501 0.929 . S
C489 C488 1.373 . S
C489 C490 1.396 . S
C489 C496 1.403 . S
C490 C480 1.476 . S
C490 N485 1.318 . S
C490 C489 1.396 . S
H491 C486 0.929 . S
O492 Mn468 2.385 . S
O492 C470 1.234 . S
O493 Mn468 2.209 . S
O493 Mn469 2.215 . S
O493 C470 1.283 . S
O494 Mn468 2.094 . S
O494 C472 1.240 . S
O495 Mn469 2.117 . S
O495 C472 1.264 . S
C496 C489 1.403 . S
C496 C497 1.399 . S
C496 H502 0.929 . S
C497 C477 1.449 . S
C497 C496 1.399 . S
C497 H503 0.930 . S
H498 C478 0.931 . S
H499 C479 0.930 . S
H500 C487 0.931 . S
H501 C488 0.929 . S
H502 C496 0.929 . S
H503 C497 0.930 . S
Mn504 O509 2.095 . S
Mn504 O519 2.162 1_455 S
Mn504 O520 2.297 . S
Mn504 O528 2.385 . S
Mn504 O529 2.209 . S
Mn504 O530 2.094 . S
Mn505 O510 2.121 . S
Mn505 N512 2.257 . S
Mn505 N521 2.282 . S
Mn505 O529 2.215 . S
Mn505 O531 2.117 . S
C506 O528 1.234 . S
C506 O529 1.283 . S
C507 O519 1.281 . S
C507 O520 1.236 1_655 S
C508 O530 1.240 . S
C508 O531 1.264 . S
O509 Mn504 2.095 . S
O509 C518 1.250 . S
O510 Mn505 2.121 . S
O510 C518 1.258 . S
C511 N512 1.326 . S
C511 C515 1.460 . S
C511 H517 0.929 . S
N512 Mn505 2.257 . S
N512 C511 1.326 . S
N512 C516 1.362 . S
C513 C514 1.258 . S
C513 C516 1.431 . S
C513 C533 1.449 . S
C514 C513 1.258 . S
C514 C515 1.477 . S
C514 H534 0.931 . S
C515 C511 1.460 . S
C515 C514 1.477 . S
C515 H535 0.930 . S
C516 N512 1.362 . S
C516 C513 1.431 . S
C516 C526 1.476 . S
H517 C511 0.929 . S
C518 O509 1.250 . S
C518 O510 1.258 . S
O519 Mn504 2.162 1_655 S
O519 C507 1.281 . S
O520 Mn504 2.297 . S
O520 C507 1.236 1_455 S
N521 Mn505 2.282 . S
N521 C522 1.328 . S
N521 C526 1.318 . S
C522 N521 1.328 . S
C522 C523 1.457 . S
C522 H527 0.929 . S
C523 C522 1.457 . S
C523 C524 1.291 . S
C523 H536 0.931 . S
C524 C523 1.291 . S
C524 C525 1.373 . S
C524 H537 0.929 . S
C525 C524 1.373 . S
C525 C526 1.396 . S
C525 C532 1.403 . S
C526 C516 1.476 . S
C526 N521 1.318 . S
C526 C525 1.396 . S
H527 C522 0.929 . S
O528 Mn504 2.385 . S
O528 C506 1.234 . S
O529 Mn504 2.209 . S
O529 Mn505 2.215 . S
O529 C506 1.283 . S
O530 Mn504 2.094 . S
O530 C508 1.240 . S
O531 Mn505 2.117 . S
O531 C508 1.264 . S
C532 C525 1.403 . S
C532 C533 1.399 . S
C532 H538 0.929 . S
C533 C513 1.449 . S
C533 C532 1.399 . S
C533 H539 0.930 . S
H534 C514 0.931 . S
H535 C515 0.930 . S
H536 C523 0.931 . S
H537 C524 0.929 . S
H538 C532 0.929 . S
H539 C533 0.930 . S
Mn540 O545 2.095 . S
Mn540 O555 2.162 1_545 S
Mn540 O556 2.297 . S
Mn540 O564 2.385 . S
Mn540 O565 2.209 . S
Mn540 O566 2.094 . S
Mn541 O546 2.121 . S
Mn541 N548 2.257 . S
Mn541 N557 2.282 . S
Mn541 O565 2.215 . S
Mn541 O567 2.117 . S
C542 O564 1.234 . S
C542 O565 1.283 . S
C543 O555 1.281 . S
C543 O556 1.236 1_565 S
C544 O566 1.240 . S
C544 O567 1.264 . S
O545 Mn540 2.095 . S
O545 C554 1.250 . S
O546 Mn541 2.121 . S
O546 C554 1.258 . S
C547 N548 1.326 . S
C547 C551 1.460 . S
C547 H553 0.929 . S
N548 Mn541 2.257 . S
N548 C547 1.326 . S
N548 C552 1.362 . S
C549 C550 1.258 . S
C549 C552 1.431 . S
C549 C569 1.449 . S
C550 C549 1.258 . S
C550 C551 1.477 . S
C550 H570 0.931 . S
C551 C547 1.460 . S
C551 C550 1.477 . S
C551 H571 0.930 . S
C552 N548 1.362 . S
C552 C549 1.431 . S
C552 C562 1.476 . S
H553 C547 0.929 . S
C554 O545 1.250 . S
C554 O546 1.258 . S
O555 Mn540 2.162 1_565 S
O555 C543 1.281 . S
O556 Mn540 2.297 . S
O556 C543 1.236 1_545 S
N557 Mn541 2.282 . S
N557 C558 1.328 . S
N557 C562 1.318 . S
C558 N557 1.328 . S
C558 C559 1.457 . S
C558 H563 0.929 . S
C559 C558 1.457 . S
C559 C560 1.291 . S
C559 H572 0.931 . S
C560 C559 1.291 . S
C560 C561 1.373 . S
C560 H573 0.929 . S
C561 C560 1.373 . S
C561 C562 1.396 . S
C561 C568 1.403 . S
C562 C552 1.476 . S
C562 N557 1.318 . S
C562 C561 1.396 . S
H563 C558 0.929 . S
O564 Mn540 2.385 . S
O564 C542 1.234 . S
O565 Mn540 2.209 . S
O565 Mn541 2.215 . S
O565 C542 1.283 . S
O566 Mn540 2.094 . S
O566 C544 1.240 . S
O567 Mn541 2.117 . S
O567 C544 1.264 . S
C568 C561 1.403 . S
C568 C569 1.399 . S
C568 H574 0.929 . S
C569 C549 1.449 . S
C569 C568 1.399 . S
C569 H575 0.930 . S
H570 C550 0.931 . S
H571 C551 0.930 . S
H572 C559 0.931 . S
H573 C560 0.929 . S
H574 C568 0.929 . S
H575 C569 0.930 . S
C4 C326 1.191 . S
C362 C40 1.191 . S
C398 C76 1.191 . S
C290 C112 1.191 . S
C148 C542 1.191 . S
C434 C184 1.191 . S
C470 C220 1.191 . S
C506 C256 1.191 . S
C292 C38 1.191 . S
C328 C74 1.191 . S
C364 C110 1.191 . S
C2 C400 1.191 . S
C436 C254 1.191 . S
C472 C146 1.191 . S
C182 C508 1.191 . S
C544 C218 1.191 . S
C291 C3 2.930 1_566 S
C39 C327 2.930 1_554 S
C363 C75 2.930 1_656 S
C111 C399 2.930 1_444 S
C435 C147 2.930 . S
C183 C471 2.930 1_455 S
C507 C219 2.930 1_665 S
C543 C255 2.930 1_565 S
C158 C14 1.424 . S
C194 C50 1.424 . S
C86 C230 1.424 . S
C266 C122 1.424 . S
C302 C446 1.424 . S
C482 C338 1.424 . S
C518 C374 1.424 . S
C554 C410 1.424 . S
