# Generated by pormake.
# Topology crs, (6)-cn, num edge types: 1
# Building blocks:
#     Node 0, Type 0, BuildingBlock: KUMBUR_clean_sbu_0, # of connection points: 6
#     Node 1, Type 0, BuildingBlock: KUMBUR_clean_sbu_0, # of connection points: 6
#     Node 2, Type 0, BuildingBlock: KUMBUR_clean_sbu_0, # of connection points: 6
#     Node 3, Type 0, BuildingBlock: KUMBUR_clean_sbu_0, # of connection points: 6
#     Node 4, Type 0, BuildingBlock: KUMBUR_clean_sbu_0, # of connection points: 6
#     Node 5, Type 0, BuildingBlock: KUMBUR_clean_sbu_0, # of connection points: 6
#     Node 6, Type 0, BuildingBlock: KUMBUR_clean_sbu_0, # of connection points: 6
#     Node 7, Type 0, BuildingBlock: KUMBUR_clean_sbu_0, # of connection points: 6
#     Node 8, Type 0, BuildingBlock: KUMBUR_clean_sbu_0, # of connection points: 6
#     Node 9, Type 0, BuildingBlock: KUMBUR_clean_sbu_0, # of connection points: 6
#     Node 10, Type 0, BuildingBlock: KUMBUR_clean_sbu_0, # of connection points: 6
#     Node 11, Type 0, BuildingBlock: KUMBUR_clean_sbu_0, # of connection points: 6
#     Node 12, Type 0, BuildingBlock: KUMBUR_clean_sbu_0, # of connection points: 6
#     Node 13, Type 0, BuildingBlock: KUMBUR_clean_sbu_0, # of connection points: 6
#     Node 14, Type 0, BuildingBlock: KUMBUR_clean_sbu_0, # of connection points: 6
#     Node 15, Type 0, BuildingBlock: KUMBUR_clean_sbu_0, # of connection points: 6
#     Edge 16, Type (0, 0), BuildingBlock: KIFKEQ_clean_linker_1, # of connection points: 2
#     Edge 17, Type (0, 0), BuildingBlock: KIFKEQ_clean_linker_1, # of connection points: 2
#     Edge 18, Type (0, 0), BuildingBlock: KIFKEQ_clean_linker_1, # of connection points: 2
#     Edge 19, Type (0, 0), BuildingBlock: KIFKEQ_clean_linker_1, # of connection points: 2
#     Edge 20, Type (0, 0), BuildingBlock: KIFKEQ_clean_linker_1, # of connection points: 2
#     Edge 21, Type (0, 0), BuildingBlock: KIFKEQ_clean_linker_1, # of connection points: 2
#     Edge 22, Type (0, 0), BuildingBlock: KIFKEQ_clean_linker_1, # of connection points: 2
#     Edge 23, Type (0, 0), BuildingBlock: KIFKEQ_clean_linker_1, # of connection points: 2
#     Edge 24, Type (0, 0), BuildingBlock: KIFKEQ_clean_linker_1, # of connection points: 2
#     Edge 25, Type (0, 0), BuildingBlock: KIFKEQ_clean_linker_1, # of connection points: 2
#     Edge 26, Type (0, 0), BuildingBlock: KIFKEQ_clean_linker_1, # of connection points: 2
#     Edge 27, Type (0, 0), BuildingBlock: KIFKEQ_clean_linker_1, # of connection points: 2
#     Edge 28, Type (0, 0), BuildingBlock: KIFKEQ_clean_linker_1, # of connection points: 2
#     Edge 29, Type (0, 0), BuildingBlock: KIFKEQ_clean_linker_1, # of connection points: 2
#     Edge 30, Type (0, 0), BuildingBlock: KIFKEQ_clean_linker_1, # of connection points: 2
#     Edge 31, Type (0, 0), BuildingBlock: KIFKEQ_clean_linker_1, # of connection points: 2
#     Edge 32, Type (0, 0), BuildingBlock: KIFKEQ_clean_linker_1, # of connection points: 2
#     Edge 33, Type (0, 0), BuildingBlock: KIFKEQ_clean_linker_1, # of connection points: 2
#     Edge 34, Type (0, 0), BuildingBlock: KIFKEQ_clean_linker_1, # of connection points: 2
#     Edge 35, Type (0, 0), BuildingBlock: KIFKEQ_clean_linker_1, # of connection points: 2
#     Edge 36, Type (0, 0), BuildingBlock: KIFKEQ_clean_linker_1, # of connection points: 2
#     Edge 37, Type (0, 0), BuildingBlock: KIFKEQ_clean_linker_1, # of connection points: 2
#     Edge 38, Type (0, 0), BuildingBlock: KIFKEQ_clean_linker_1, # of connection points: 2
#     Edge 39, Type (0, 0), BuildingBlock: KIFKEQ_clean_linker_1, # of connection points: 2
#     Edge 40, Type (0, 0), BuildingBlock: KIFKEQ_clean_linker_1, # of connection points: 2
#     Edge 41, Type (0, 0), BuildingBlock: KIFKEQ_clean_linker_1, # of connection points: 2
#     Edge 42, Type (0, 0), BuildingBlock: KIFKEQ_clean_linker_1, # of connection points: 2
#     Edge 43, Type (0, 0), BuildingBlock: KIFKEQ_clean_linker_1, # of connection points: 2
#     Edge 44, Type (0, 0), BuildingBlock: KIFKEQ_clean_linker_1, # of connection points: 2
#     Edge 45, Type (0, 0), BuildingBlock: KIFKEQ_clean_linker_1, # of connection points: 2
#     Edge 46, Type (0, 0), BuildingBlock: KIFKEQ_clean_linker_1, # of connection points: 2
#     Edge 47, Type (0, 0), BuildingBlock: KIFKEQ_clean_linker_1, # of connection points: 2
#     Edge 48, Type (0, 0), BuildingBlock: KIFKEQ_clean_linker_1, # of connection points: 2
#     Edge 49, Type (0, 0), BuildingBlock: KIFKEQ_clean_linker_1, # of connection points: 2
#     Edge 50, Type (0, 0), BuildingBlock: KIFKEQ_clean_linker_1, # of connection points: 2
#     Edge 51, Type (0, 0), BuildingBlock: KIFKEQ_clean_linker_1, # of connection points: 2
#     Edge 52, Type (0, 0), BuildingBlock: KIFKEQ_clean_linker_1, # of connection points: 2
#     Edge 53, Type (0, 0), BuildingBlock: KIFKEQ_clean_linker_1, # of connection points: 2
#     Edge 54, Type (0, 0), BuildingBlock: KIFKEQ_clean_linker_1, # of connection points: 2
#     Edge 55, Type (0, 0), BuildingBlock: KIFKEQ_clean_linker_1, # of connection points: 2
#     Edge 56, Type (0, 0), BuildingBlock: KIFKEQ_clean_linker_1, # of connection points: 2
#     Edge 57, Type (0, 0), BuildingBlock: KIFKEQ_clean_linker_1, # of connection points: 2
#     Edge 58, Type (0, 0), BuildingBlock: KIFKEQ_clean_linker_1, # of connection points: 2
#     Edge 59, Type (0, 0), BuildingBlock: KIFKEQ_clean_linker_1, # of connection points: 2
#     Edge 60, Type (0, 0), BuildingBlock: KIFKEQ_clean_linker_1, # of connection points: 2
#     Edge 61, Type (0, 0), BuildingBlock: KIFKEQ_clean_linker_1, # of connection points: 2
#     Edge 62, Type (0, 0), BuildingBlock: KIFKEQ_clean_linker_1, # of connection points: 2
#     Edge 63, Type (0, 0), BuildingBlock: KIFKEQ_clean_linker_1, # of connection points: 2
# Relax obj value: 0.112
# Max RMSD: 0.220
# Mean RMSD: 0.170
data_MOF--net-crs--node1-KUMBUR_clean_sbu_0--edge1-KIFKEQ_clean_linker_1
_symmetry_space_group_name_H-M    P1
_symmetry_Int_Tables_number       1
_symmetry_cell_setting            triclinic
loop_
_symmetry_equiv_pos_as_xyz
'x, y, z'
_cell_length_a     55.499203
_cell_length_b     55.43863
_cell_length_c     44.216579
_cell_angle_alpha  75.67389
_cell_angle_beta   74.080055
_cell_angle_gamma 68.951306
loop_
_atom_site_label
_atom_site_type_symbol
_atom_site_fract_x
_atom_site_fract_y
_atom_site_fract_z
_atom_type_partial_charge
Tb0 Tb 0.98032 0.99904 0.04912 0.0
C1 C 0.03192 0.01608 0.90908 0.0
C2 C 0.06982 0.97688 0.90695 0.0
C3 C 0.05106 0.99794 0.85987 0.0
C4 C 0.05054 0.99624 0.92395 0.0
C5 C 0.03229 0.01746 0.87667 0.0
C6 C 0.06975 0.97766 0.875 0.0
C7 C 0.99681 0.05837 0.87911 0.0
N8 N 0.01387 0.03443 0.92613 0.0
C9 C 0.99728 0.0562 0.91113 0.0
C10 C 0.01417 0.03873 0.86189 0.0
Tb11 Tb 0.01655 0.02915 0.97846 0.0
N12 N 0.04998 0.9961 0.95489 0.0
C13 C 0.06914 0.97748 0.9697 0.0
C14 C 0.08879 0.95746 0.92241 0.0
C15 C 0.08853 0.95788 0.95385 0.0
H16 H 0.98372 0.07146 0.92438 0.0
H17 H 0.10325 0.94305 0.966 0.0
H18 H 0.08432 0.96289 0.86166 0.0
H19 H 0.98309 0.0752 0.86773 0.0
H20 H 0.0695 0.97679 0.99408 0.0
H21 H 0.88814 0.07694 0.07444 0.0
H22 H 0.10388 0.94225 0.9102 0.0
H23 H 0.01768 0.95493 0.09646 0.0
H24 H 0.92529 0.05049 0.04012 0.0
H25 H 0.01928 0.9448 0.15376 0.0
H26 H 0.05154 0.99857 0.83503 0.0
H27 H 0.8873 0.07114 0.13189 0.0
H28 H 0.90882 0.047 0.1784 0.0
H29 H 0.01383 0.04049 0.83705 0.0
H30 H 0.94461 0.0113 0.19998 0.0
N31 N 0.94607 0.02825 0.07751 0.0
C32 C 0.92554 0.04682 0.06508 0.0
C33 C 0.90382 0.05903 0.11692 0.0
C34 C 0.92461 0.03994 0.12967 0.0
C35 C 0.90417 0.06227 0.08456 0.0
C36 C 0.94555 0.02453 0.10918 0.0
H37 H 0.98581 0.97304 0.19101 0.0
N38 N 0.98441 0.98919 0.10116 0.0
C39 C 0.00412 0.96171 0.14494 0.0
C40 C 0.96548 1.00439 0.12138 0.0
C41 C 0.00316 0.96748 0.11257 0.0
C42 C 0.98522 0.97771 0.16588 0.0
C43 C 0.96535 0.99915 0.15429 0.0
O44 O 0.98028 0.96008 0.0635 0.0
O45 O 0.00357 0.99578 1.00174 0.0
O46 O 0.98304 0.0269 0.9643 0.0
O47 O 0.95553 0.01817 1.01332 0.0
O48 O 0.01269 0.964 0.03539 0.0
O49 O 0.94554 0.99148 0.05068 0.0
O50 O 0.01734 0.06745 0.95787 0.0
O51 O 0.99246 0.03236 0.02492 0.0
O52 O 0.01062 1.00654 0.06474 0.0
O53 O 0.03997 0.01221 1.01625 0.0
O54 O 0.98722 0.06537 0.99459 0.0
O55 O 0.05227 0.03656 0.97256 0.0
C56 C 0.01685 0.97187 1.00499 0.0
C57 C 0.93972 0.95089 0.07846 0.0
C58 C 0.91447 0.92327 0.07829 0.0
C59 C 0.92868 0.94052 0.06204 0.0
C60 C 0.91104 0.91668 0.1117 0.0
C61 C 0.93625 0.94457 0.11173 0.0
C62 C 0.92172 0.92753 0.12833 0.0
C63 C 0.9604 0.02438 0.98181 0.0
C64 C 0.9564 0.96636 0.05894 0.0
C65 C 0.94505 0.01497 0.17463 0.0
C66 C 0.92468 0.0353 0.16234 0.0
C67 C 0.98079 0.05647 0.02446 0.0
C68 C 0.05677 0.07948 0.94922 0.0
C69 C 0.07337 0.07972 0.96784 0.0
C70 C 0.08679 0.09829 0.9586 0.0
C71 C 0.08369 0.11643 0.93024 0.0
C72 C 0.05352 0.09781 0.92124 0.0
C73 C 0.06713 0.11613 0.91169 0.0
C74 C 0.03396 1.00805 0.04797 0.0
C75 C 0.04191 0.06091 0.95998 0.0
H76 H 0.93217 0.94505 0.03617 0.0
H77 H 0.90016 0.90325 0.12482 0.0
H78 H 0.945 0.95241 0.1246 0.0
H79 H 0.91905 0.92241 0.15402 0.0
H80 H 0.0755 0.06575 0.98974 0.0
H81 H 0.09359 0.13123 0.92282 0.0
H82 H 0.04051 0.09792 0.90683 0.0
H83 H 0.06462 0.13031 0.89009 0.0
Tb84 Tb 0.01044 0.27355 0.29207 0.0
C85 C 0.92932 0.24603 0.2607 0.0
C86 C 0.92672 0.21009 0.30436 0.0
C87 C 0.88758 0.23695 0.28347 0.0
C88 C 0.94142 0.22538 0.282 0.0
C89 C 0.90245 0.25145 0.26051 0.0
C90 C 0.89968 0.21636 0.30542 0.0
C91 C 0.90758 0.28298 0.21271 0.0
N92 N 0.94418 0.25979 0.23896 0.0
C93 C 0.93406 0.27687 0.21389 0.0
C94 C 0.89154 0.2706 0.23652 0.0
Tb95 Tb 0.98758 0.24806 0.24299 0.0
N96 N 0.96764 0.21986 0.28037 0.0
C97 C 0.9804 0.19829 0.29975 0.0
C98 C 0.93964 0.18874 0.3248 0.0
C99 C 0.96663 0.18269 0.32224 0.0
H100 H 0.9464 0.28649 0.19517 0.0
H101 H 0.97692 0.16598 0.33769 0.0
H102 H 0.88808 0.20502 0.32266 0.0
H103 H 0.89963 0.29718 0.19335 0.0
H104 H 0.00109 0.19278 0.29883 0.0
H105 H 0.01833 0.35718 0.19865 0.0
H106 H 0.92904 0.17661 0.34232 0.0
H107 H 0.05388 0.23402 0.33693 0.0
H108 H 0.99529 0.32938 0.23743 0.0
H109 H 0.10117 0.2229 0.33598 0.0
H110 H 0.86687 0.24108 0.28394 0.0
H111 H 0.06625 0.34732 0.19266 0.0
H112 H 0.10801 0.31906 0.21044 0.0
H113 H 0.87103 0.27527 0.23551 0.0
H114 H 0.13071 0.28212 0.24708 0.0
N115 N 0.02948 0.30236 0.25445 0.0
C116 C 0.01606 0.32411 0.23586 0.0
C117 C 0.05618 0.33469 0.21008 0.0
C118 C 0.06983 0.31306 0.22956 0.0
C119 C 0.02916 0.34031 0.21342 0.0
C120 C 0.0558 0.29712 0.25186 0.0
H121 H 0.12839 0.24627 0.29382 0.0
N122 N 0.05453 0.26154 0.29368 0.0
C123 C 0.09248 0.23755 0.31743 0.0
C124 C 0.06873 0.27599 0.27197 0.0
C125 C 0.06576 0.24365 0.31752 0.0
C126 C 0.10772 0.25082 0.29368 0.0
C127 C 0.0958 0.27072 0.27102 0.0
O128 O 0.00759 0.27376 0.34052 0.0
O129 O 0.97746 0.26159 0.28927 0.0
O130 O 0.96201 0.28936 0.24181 0.0
O131 O 0.97434 0.30386 0.2787 0.0
O132 O 0.98919 0.25079 0.33166 0.0
O133 O 0.00127 0.30984 0.30765 0.0
O134 O 0.99343 0.24762 0.1941 0.0
O135 O 0.02072 0.25982 0.24589 0.0
O136 O 0.03473 0.23164 0.29441 0.0
O137 O 0.02301 0.21739 0.25685 0.0
O138 O 0.00816 0.27178 0.20392 0.0
O139 O 0.99569 0.21193 0.22752 0.0
C140 C 0.97112 0.25086 0.31842 0.0
C141 C 0.01713 0.30829 0.35396 0.0
C142 C 0.01992 0.34076 0.38131 0.0
C143 C 0.00646 0.33335 0.36373 0.0
C144 C 0.04416 0.32349 0.38788 0.0
C145 C 0.04056 0.29113 0.36322 0.0
C146 C 0.05429 0.29888 0.37906 0.0
C147 C 0.95903 0.30753 0.25841 0.0
C148 C 0.0029 0.29898 0.33703 0.0
C149 C 0.1099 0.28605 0.24831 0.0
C150 C 0.09696 0.30714 0.22756 0.0
C151 C 0.02667 0.27106 0.2169 0.0
C152 C 0.9836 0.21461 0.17799 0.0
C153 C 0.99272 0.18868 0.17103 0.0
C154 C 0.98155 0.18225 0.14996 0.0
C155 C 0.96095 0.20155 0.13689 0.0
C156 C 0.9638 0.23355 0.16292 0.0
C157 C 0.95221 0.22695 0.14328 0.0
C158 C 0.0379 0.21353 0.2776 0.0
C159 C 0.99661 0.2227 0.19765 0.0
H160 H 0.98769 0.34654 0.35855 0.0
H161 H 0.05486 0.32875 0.40106 0.0
H162 H 0.04798 0.27122 0.35955 0.0
H163 H 0.0725 0.28534 0.38548 0.0
H164 H 0.0088 0.17396 0.18106 0.0
H165 H 0.95203 0.19708 0.12087 0.0
H166 H 0.95777 0.25385 0.16515 0.0
H167 H 0.93685 0.24183 0.13219 0.0
Tb168 Tb 0.74117 0.24738 0.4873 0.0
C169 C 0.72696 0.27986 0.61211 0.0
C170 C 0.68932 0.31895 0.60746 0.0
C171 C 0.69913 0.29778 0.65964 0.0
C172 C 0.71176 0.30012 0.59324 0.0
C173 C 0.72079 0.27851 0.64559 0.0
C174 C 0.68336 0.31789 0.64064 0.0
C175 C 0.75806 0.23936 0.64917 0.0
N176 N 0.74751 0.26132 0.59776 0.0
C177 C 0.76348 0.24152 0.61603 0.0
C178 C 0.73661 0.25793 0.66404 0.0
Tb179 Tb 0.75796 0.27091 0.54264 0.0
N180 N 0.71818 0.30069 0.56117 0.0
C181 C 0.7014 0.31841 0.54249 0.0
C182 C 0.67314 0.33795 0.58805 0.0
C183 C 0.67894 0.33734 0.55551 0.0
H184 H 0.78076 0.22727 0.60498 0.0
H185 H 0.66596 0.35131 0.54042 0.0
H186 H 0.6664 0.33236 0.65187 0.0
H187 H 0.7707 0.22354 0.66316 0.0
H188 H 0.70432 0.31766 0.51771 0.0
H189 H 0.82991 0.16189 0.49638 0.0
H190 H 0.65569 0.35265 0.59808 0.0
H191 H 0.72199 0.28934 0.4222 0.0
H192 H 0.79101 0.19484 0.51735 0.0
H193 H 0.73729 0.29421 0.36456 0.0
H194 H 0.69424 0.29715 0.68524 0.0
H195 H 0.846 0.16377 0.4384 0.0
H196 H 0.84157 0.18717 0.38364 0.0
H197 H 0.73255 0.25632 0.68975 0.0
H198 H 0.81742 0.22373 0.34808 0.0
N199 N 0.78086 0.21504 0.47211 0.0
C200 C 0.79555 0.19569 0.4921 0.0
C201 C 0.82787 0.17822 0.4475 0.0
C202 C 0.81411 0.19865 0.42695 0.0
C203 C 0.81874 0.17698 0.48018 0.0
C204 C 0.79057 0.21716 0.43998 0.0
H205 H 0.779 0.26354 0.34075 0.0
N206 N 0.7555 0.25651 0.43274 0.0
C207 C 0.74904 0.27861 0.37976 0.0
C208 C 0.77754 0.23842 0.41984 0.0
C209 C 0.74058 0.27569 0.41283 0.0
C210 C 0.77251 0.26127 0.36645 0.0
C211 C 0.7869 0.24071 0.38638 0.0
O212 O 0.70788 0.2599 0.46744 0.0
O213 O 0.72693 0.26166 0.53286 0.0
O214 O 0.75457 0.23108 0.56585 0.0
O215 O 0.74593 0.21386 0.52817 0.0
O216 O 0.70043 0.25469 0.51722 0.0
O217 O 0.73245 0.21892 0.47206 0.0
O218 O 0.79006 0.26331 0.5625 0.0
O219 O 0.77094 0.26153 0.49396 0.0
O220 O 0.73954 0.28959 0.46675 0.0
O221 O 0.75221 0.30517 0.50246 0.0
O222 O 0.79829 0.24732 0.52103 0.0
O223 O 0.76813 0.30339 0.54634 0.0
C224 C 0.70278 0.26161 0.54156 0.0
C225 C 0.68717 0.22926 0.46948 0.0
C226 C 0.6596 0.20158 0.49654 0.0
C227 C 0.68328 0.20719 0.49156 0.0
C228 C 0.64017 0.2179 0.47921 0.0
C229 C 0.66762 0.24516 0.45221 0.0
C230 C 0.64423 0.23951 0.45712 0.0
C231 C 0.75029 0.21176 0.5572 0.0
C232 C 0.71137 0.23636 0.46287 0.0
C233 C 0.80998 0.22215 0.37363 0.0
C234 C 0.82362 0.20125 0.39386 0.0
C235 C 0.79564 0.25006 0.49225 0.0
C236 C 0.81366 0.29284 0.54969 0.0
C237 C 0.81685 0.31622 0.53047 0.0
C238 C 0.84121 0.32083 0.52421 0.0
C239 C 0.86221 0.30183 0.53723 0.0
C240 C 0.83482 0.2744 0.5629 0.0
C241 C 0.85896 0.27882 0.55646 0.0
C242 C 0.74499 0.30863 0.47475 0.0
C243 C 0.78812 0.28782 0.55923 0.0
H244 H 0.69846 0.19441 0.50451 0.0
H245 H 0.62213 0.21341 0.48205 0.0
H246 H 0.67054 0.26197 0.43473 0.0
H247 H 0.62937 0.25172 0.44349 0.0
H248 H 0.80039 0.33109 0.52132 0.0
H249 H 0.88081 0.30537 0.53394 0.0
H250 H 0.83257 0.25666 0.5788 0.0
H251 H 0.87496 0.2647 0.56715 0.0
Tb252 Tb 0.73809 0.99856 0.74249 0.0
C253 C 0.76663 0.08059 0.77145 0.0
C254 C 0.8043 0.07988 0.72785 0.0
C255 C 0.77815 0.12059 0.74756 0.0
C256 C 0.78774 0.06681 0.75076 0.0
C257 C 0.76235 0.10737 0.77101 0.0
C258 C 0.79898 0.1069 0.72588 0.0
C259 C 0.72952 0.10528 0.81943 0.0
N260 N 0.75138 0.06741 0.79342 0.0
C261 C 0.73432 0.07889 0.81865 0.0
C262 C 0.74309 0.1198 0.79501 0.0
Tb263 Tb 0.76109 0.02399 0.79056 0.0
N264 N 0.79246 0.04058 0.75357 0.0
C265 C 0.8143 0.02636 0.73446 0.0
C266 C 0.82596 0.06542 0.70784 0.0
C267 C 0.83108 0.03852 0.71138 0.0
H268 H 0.72332 0.06804 0.83756 0.0
H269 H 0.84796 0.02706 0.69617 0.0
H270 H 0.81134 0.11724 0.70824 0.0
H271 H 0.71523 0.11442 0.83878 0.0
H272 H 0.81906 1.00573 0.73567 0.0
H273 H 0.65264 0.99066 0.83669 0.0
H274 H 0.83903 0.07475 0.6899 0.0
H275 H 0.77907 0.95602 0.6951 0.0
H276 H 0.68159 0.01342 0.79966 0.0
H277 H 0.78957 0.90941 0.69209 0.0
H278 H 0.77486 0.14124 0.74655 0.0
H279 H 0.6618 0.94338 0.83886 0.0
H280 H 0.69005 0.90219 0.81763 0.0
H281 H 0.73932 0.14028 0.7956 0.0
H282 H 0.7276 0.87991 0.77892 0.0
N283 N 0.70804 0.97987 0.77878 0.0
C284 C 0.68622 0.99306 0.79891 0.0
C285 C 0.67478 0.95338 0.8219 0.0
C286 C 0.69661 0.93997 0.80108 0.0
C287 C 0.66952 0.98006 0.82067 0.0
C288 C 0.71302 0.95389 0.77949 0.0
H289 H 0.76467 0.88242 0.73208 0.0
N290 N 0.74953 0.95525 0.73757 0.0
C291 C 0.7742 0.91798 0.71107 0.0
C292 C 0.73445 0.9412 0.75823 0.0
C293 C 0.76823 0.94436 0.71297 0.0
C294 C 0.76012 0.90284 0.73365 0.0
C295 C 0.73963 0.91449 0.75724 0.0
O296 O 0.7418 1.0026 0.69324 0.0
O297 O 0.74896 0.03181 0.74537 0.0
O298 O 0.72116 0.05165 0.78791 0.0
O299 O 0.70571 0.03394 0.75729 0.0
O300 O 0.76425 0.01677 0.70417 0.0
O301 O 0.70354 1.00825 0.72465 0.0
O302 O 0.75359 0.02305 0.83913 0.0
O303 O 0.74987 0.99088 0.78789 0.0
O304 O 0.77887 0.97219 0.74366 0.0
O305 O 0.79281 0.98733 0.77863 0.0
O306 O 0.7351 1.00557 0.82907 0.0
O307 O 0.79403 0.01722 0.8116 0.0
C308 C 0.76185 0.0362 0.71702 0.0
C309 C 0.70933 0.99439 0.67549 0.0
C310 C 0.67716 0.99417 0.64776 0.0
C311 C 0.68368 1.00436 0.66937 0.0
C312 C 0.69595 0.97344 0.6331 0.0
C313 C 0.72817 0.9742 0.65966 0.0
C314 C 0.72132 0.96345 0.63916 0.0
C315 C 0.7023 0.05187 0.77466 0.0
C316 C 0.71672 1.00733 0.69536 0.0
C317 C 0.72376 0.90047 0.77915 0.0
C318 C 0.70234 0.91317 0.80109 0.0
C319 C 0.73708 0.98631 0.81624 0.0
C320 C 0.78514 0.01784 0.8697 0.0
C321 C 0.81141 0.01262 0.87185 0.0
C322 C 0.81723 0.01195 0.90117 0.0
C323 C 0.79659 0.01689 0.92794 0.0
C324 C 0.76489 0.02265 0.89691 0.0
C325 C 0.77064 0.02219 0.92576 0.0
C326 C 0.7968 0.9705 0.75942 0.0
C327 C 0.77797 0.01951 0.83936 0.0
H328 H 0.66918 0.02059 0.68039 0.0
H329 H 0.69107 0.96534 0.61648 0.0
H330 H 0.74843 0.96721 0.66207 0.0
H331 H 0.73593 0.94783 0.62724 0.0
H332 H 0.82716 1.0091 0.85102 0.0
H333 H 0.80049 0.01714 0.95056 0.0
H334 H 0.74443 0.02707 0.89595 0.0
H335 H 0.75489 0.02616 0.94645 0.0
Tb336 Tb 0.51052 0.77173 0.29296 0.0
C337 C 0.4304 0.74604 0.25819 0.0
C338 C 0.42744 0.70962 0.30112 0.0
C339 C 0.38857 0.73702 0.27996 0.0
C340 C 0.4423 0.72502 0.27935 0.0
C341 C 0.40361 0.75165 0.25754 0.0
C342 C 0.40044 0.71612 0.30179 0.0
C343 C 0.40917 0.78366 0.2103 0.0
N344 N 0.44541 0.75994 0.23694 0.0
C345 C 0.43558 0.77736 0.21188 0.0
C346 C 0.39295 0.77112 0.23361 0.0
Tb347 Tb 0.48863 0.74759 0.24171 0.0
N348 N 0.46851 0.71919 0.27804 0.0
C349 C 0.48115 0.69718 0.29694 0.0
C350 C 0.44018 0.68788 0.3213 0.0
C351 C 0.4672 0.68149 0.31892 0.0
H352 H 0.44804 0.7871 0.19357 0.0
H353 H 0.47739 0.66441 0.33402 0.0
H354 H 0.38871 0.70469 0.31859 0.0
H355 H 0.4014 0.7981 0.19099 0.0
H356 H 0.5019 0.69128 0.29578 0.0
H357 H 0.51759 0.85754 0.20306 0.0
H358 H 0.42945 0.67565 0.33836 0.0
H359 H 0.55492 0.73088 0.33635 0.0
H360 H 0.49468 0.82962 0.24189 0.0
H361 H 0.60261 0.71849 0.33339 0.0
H362 H 0.3679 0.7413 0.28008 0.0
H363 H 0.56588 0.84647 0.1949 0.0
H364 H 0.60818 0.81667 0.21018 0.0
H365 H 0.37251 0.77591 0.23225 0.0
H366 H 0.63145 0.7784 0.24487 0.0
N367 N 0.52934 0.80112 0.25625 0.0
C368 C 0.51565 0.82365 0.23903 0.0
C369 C 0.55588 0.83373 0.21222 0.0
C370 C 0.56981 0.81134 0.23048 0.0
C371 C 0.52866 0.84001 0.21674 0.0
C372 C 0.55586 0.79529 0.25269 0.0
H373 H 0.62961 0.74178 0.29074 0.0
N374 N 0.55495 0.75893 0.29348 0.0
C375 C 0.5936 0.73365 0.31545 0.0
C376 C 0.56907 0.77343 0.27171 0.0
C377 C 0.56661 0.74045 0.31663 0.0
C378 C 0.60872 0.74687 0.29145 0.0
C379 C 0.59641 0.76749 0.26971 0.0
O380 O 0.50849 0.77082 0.34146 0.0
O381 O 0.47774 0.76025 0.28867 0.0
O382 O 0.46351 0.78906 0.24062 0.0
O383 O 0.47408 0.80196 0.28037 0.0
O384 O 0.48815 0.74942 0.33181 0.0
O385 O 0.50174 0.80746 0.30969 0.0
O386 O 0.4959 0.74734 0.19262 0.0
O387 O 0.52171 0.75879 0.24593 0.0
O388 O 0.53316 0.72949 0.2966 0.0
O389 O 0.5244 0.71718 0.25517 0.0
O390 O 0.50918 0.77193 0.20379 0.0
O391 O 0.49542 0.71197 0.22562 0.0
C392 C 0.47062 0.74954 0.31765 0.0
C393 C 0.51878 0.80453 0.35564 0.0
C394 C 0.52274 0.83631 0.38311 0.0
C395 C 0.50894 0.82962 0.36528 0.0
C396 C 0.54646 0.8182 0.39027 0.0
C397 C 0.54188 0.78665 0.36507 0.0
C398 C 0.55585 0.7936 0.38143 0.0
C399 C 0.45961 0.80641 0.25886 0.0
C400 C 0.50396 0.79594 0.33872 0.0
C401 C 0.61044 0.78287 0.24695 0.0
C402 C 0.59718 0.80472 0.22731 0.0
C403 C 0.52768 0.77061 0.2172 0.0
C404 C 0.48434 0.71635 0.17473 0.0
C405 C 0.49053 0.69026 0.1693 0.0
C406 C 0.47931 0.68525 0.14706 0.0
C407 C 0.46198 0.70632 0.13078 0.0
C408 C 0.46747 0.73683 0.15696 0.0
C409 C 0.45619 0.7318 0.13564 0.0
C410 C 0.53793 0.71243 0.27768 0.0
C411 C 0.49757 0.72285 0.19572 0.0
H412 H 0.49052 0.84342 0.35973 0.0
H413 H 0.55739 0.82287 0.40372 0.0
H414 H 0.54887 0.76681 0.36099 0.0
H415 H 0.57373 0.7795 0.38812 0.0
H416 H 0.50421 0.67419 0.18175 0.0
H417 H 0.45321 0.70305 0.11366 0.0
H418 H 0.46344 0.75703 0.15863 0.0
H419 H 0.44325 0.74788 0.12228 0.0
Tb420 Tb 0.24035 0.74831 0.4914 0.0
C421 C 0.22316 0.77631 0.61276 0.0
C422 C 0.18691 0.81693 0.60978 0.0
C423 C 0.19162 0.78946 0.6611 0.0
C424 C 0.20978 0.79893 0.59466 0.0
C425 C 0.21432 0.77167 0.64631 0.0
C426 C 0.17797 0.81204 0.6429 0.0
C427 C 0.25245 0.7335 0.64932 0.0
N428 N 0.24519 0.75937 0.59789 0.0
C429 C 0.2607 0.73909 0.61634 0.0
C430 C 0.22896 0.74966 0.66437 0.0
Tb431 Tb 0.25821 0.77249 0.54336 0.0
N432 N 0.21866 0.80305 0.56241 0.0
C433 C 0.20437 0.8246 0.54431 0.0
C434 C 0.17329 0.83925 0.59122 0.0
C435 C 0.18194 0.84295 0.55835 0.0
H436 H 0.27977 0.7268 0.60589 0.0
H437 H 0.17109 0.85984 0.54363 0.0
H438 H 0.16048 0.82565 0.6547 0.0
H439 H 0.26458 0.71701 0.66318 0.0
H440 H 0.20909 0.82806 0.51888 0.0
H441 H 0.32728 0.6602 0.4936 0.0
H442 H 0.15573 0.85345 0.60195 0.0
H443 H 0.21757 0.78969 0.42833 0.0
H444 H 0.29035 0.69328 0.51695 0.0
H445 H 0.23111 0.79692 0.37046 0.0
H446 H 0.18463 0.78611 0.68672 0.0
H447 H 0.3417 0.66401 0.43527 0.0
H448 H 0.33634 0.68977 0.38168 0.0
H449 H 0.22279 0.74551 0.69006 0.0
H450 H 0.31151 0.72785 0.34838 0.0
N451 N 0.27933 0.71619 0.47311 0.0
C452 C 0.29409 0.69548 0.49172 0.0
C453 C 0.32436 0.6787 0.44551 0.0
C454 C 0.31059 0.70034 0.42629 0.0
C455 C 0.31618 0.67641 0.47836 0.0
C456 C 0.28796 0.71898 0.44081 0.0
H457 H 0.27274 0.76787 0.34395 0.0
N458 N 0.25251 0.75802 0.4364 0.0
C459 C 0.24375 0.78124 0.38458 0.0
C460 C 0.27437 0.7407 0.422 0.0
C461 C 0.23636 0.77709 0.41779 0.0
C462 C 0.26718 0.76483 0.36976 0.0
C463 C 0.28249 0.74389 0.38834 0.0
O464 O 0.20388 0.76535 0.47791 0.0
O465 O 0.22345 0.77083 0.53149 0.0
O466 O 0.26259 0.72951 0.56136 0.0
O467 O 0.24444 0.71444 0.53112 0.0
O468 O 0.20944 0.74105 0.53309 0.0
O469 O 0.22711 0.72495 0.47296 0.0
O470 O 0.29273 0.75869 0.56128 0.0
O471 O 0.27493 0.75034 0.50324 0.0
O472 O 0.23968 0.79023 0.47004 0.0
O473 O 0.25365 0.80644 0.50371 0.0
O474 O 0.29068 0.77833 0.50282 0.0
O475 O 0.26749 0.79906 0.56143 0.0
C476 C 0.20648 0.75912 0.54849 0.0
C477 C 0.18021 0.73704 0.48061 0.0
C478 C 0.1557 0.70586 0.50408 0.0
C479 C 0.17929 0.71211 0.49709 0.0
C480 C 0.13294 0.72525 0.49527 0.0
C481 C 0.15734 0.7559 0.47193 0.0
C482 C 0.13379 0.75008 0.47951 0.0
C483 C 0.25364 0.71146 0.55712 0.0
C484 C 0.20488 0.7437 0.47017 0.0
C485 C 0.30502 0.7256 0.37409 0.0
C486 C 0.31903 0.70386 0.39302 0.0
C487 C 0.29271 0.7611 0.48666 0.0
C488 C 0.31247 0.78876 0.56448 0.0
C489 C 0.31778 0.80981 0.54143 0.0
C490 C 0.34072 0.81602 0.53911 0.0
C491 C 0.35786 0.80134 0.56011 0.0
C492 C 0.32974 0.7745 0.58526 0.0
C493 C 0.35233 0.78077 0.58305 0.0
C494 C 0.24618 0.8092 0.47648 0.0
C495 C 0.28888 0.78123 0.56894 0.0
H496 H 0.19698 0.69742 0.50357 0.0
H497 H 0.11468 0.72095 0.49912 0.0
H498 H 0.1578 0.77508 0.45877 0.0
H499 H 0.11632 0.7646 0.47229 0.0
H500 H 0.30418 0.82137 0.52584 0.0
H501 H 0.37513 0.80641 0.55951 0.0
H502 H 0.32558 0.75856 0.60349 0.0
H503 H 0.36537 0.76992 0.59945 0.0
Tb504 Tb 0.23775 0.49967 0.743 0.0
C505 C 0.26475 0.58161 0.77164 0.0
C506 C 0.30358 0.5804 0.72967 0.0
C507 C 0.27579 0.62175 0.74677 0.0
C508 C 0.28665 0.56751 0.75216 0.0
C509 C 0.25975 0.6087 0.77009 0.0
C510 C 0.29762 0.60763 0.72651 0.0
C511 C 0.22607 0.6073 0.81775 0.0
N512 N 0.24957 0.56848 0.79386 0.0
C513 C 0.23188 0.5805 0.81835 0.0
C514 C 0.2396 0.62164 0.79301 0.0
Tb515 Tb 0.26014 0.52461 0.79226 0.0
N516 N 0.29188 0.54112 0.75594 0.0
C517 C 0.31461 0.52657 0.73839 0.0
C518 C 0.32627 0.56555 0.71132 0.0
C519 C 0.3319 0.53851 0.71594 0.0
H520 H 0.22125 0.56964 0.83777 0.0
H521 H 0.34958 0.52677 0.70205 0.0
H522 H 0.31022 0.61782 0.70909 0.0
H523 H 0.2112 0.61683 0.83643 0.0
H524 H 0.31997 0.50576 0.74066 0.0
H525 H 0.15268 0.49111 0.83761 0.0
H526 H 0.33971 0.57471 0.69382 0.0
H527 H 0.27759 0.45837 0.69404 0.0
H528 H 0.18131 0.51419 0.80043 0.0
H529 H 0.28675 0.41248 0.6887 0.0
H530 H 0.27199 0.6426 0.74491 0.0
H531 H 0.16191 0.44389 0.83919 0.0
H532 H 0.18979 0.40309 0.81684 0.0
H533 H 0.2352 0.64238 0.79267 0.0
H534 H 0.22647 0.38152 0.77672 0.0
N535 N 0.20769 0.48089 0.7791 0.0
C536 C 0.18596 0.49387 0.7995 0.0
C537 C 0.17476 0.45404 0.82222 0.0
C538 C 0.19637 0.44089 0.80093 0.0
C539 C 0.16945 0.48068 0.82131 0.0
C540 C 0.21263 0.45498 0.77938 0.0
H541 H 0.26236 0.38495 0.72859 0.0
N542 N 0.24861 0.45686 0.73686 0.0
C543 C 0.27193 0.42059 0.70838 0.0
C544 C 0.23369 0.44263 0.75748 0.0
C545 C 0.26657 0.44662 0.71142 0.0
C546 C 0.25818 0.40512 0.73095 0.0
C547 C 0.23847 0.41619 0.75558 0.0
O548 O 0.24142 0.50507 0.6936 0.0
O549 O 0.24849 0.53281 0.74668 0.0
O550 O 0.21949 0.55129 0.79082 0.0
O551 O 0.20537 0.53492 0.75745 0.0
O552 O 0.26438 0.51805 0.70536 0.0
O553 O 0.20331 0.50898 0.72499 0.0
O554 O 0.25319 0.52446 0.84101 0.0
O555 O 0.2491 0.49164 0.78886 0.0
O556 O 0.27814 0.47239 0.74491 0.0
O557 O 0.29175 0.48771 0.78003 0.0
O558 O 0.23478 0.50541 0.8307 0.0
O559 O 0.29343 0.51708 0.81252 0.0
C560 C 0.26178 0.53737 0.71859 0.0
C561 C 0.20971 0.49659 0.67459 0.0
C562 C 0.17787 0.49588 0.64657 0.0
C563 C 0.18379 0.5054 0.66938 0.0
C564 C 0.19757 0.47679 0.62998 0.0
C565 C 0.22938 0.47818 0.6567 0.0
C566 C 0.22317 0.46793 0.63516 0.0
C567 C 0.20129 0.55216 0.77601 0.0
C568 C 0.21647 0.50914 0.69558 0.0
C569 C 0.22287 0.40192 0.77756 0.0
C570 C 0.20194 0.41422 0.80031 0.0
C571 C 0.23658 0.48653 0.8173 0.0
C572 C 0.28687 0.51646 0.87021 0.0
C573 C 0.31208 0.51718 0.8696 0.0
C574 C 0.31973 0.51453 0.89835 0.0
C575 C 0.30217 0.51125 0.92752 0.0
C576 C 0.26948 0.51332 0.89971 0.0
C577 C 0.27714 0.51074 0.92814 0.0
C578 C 0.29598 0.47072 0.76085 0.0
C579 C 0.27799 0.5196 0.84056 0.0
H580 H 0.16861 0.52037 0.68193 0.0
H581 H 0.1932 0.46912 0.61252 0.0
H582 H 0.24977 0.47227 0.65833 0.0
H583 H 0.23842 0.45364 0.62173 0.0
H584 H 0.32557 0.51995 0.84706 0.0
H585 H 0.30774 0.50946 0.94982 0.0
H586 H 0.24989 0.51287 0.90089 0.0
H587 H 0.26359 0.50844 0.95071 0.0
Tb588 Tb 0.9782 0.49714 0.55332 0.0
C589 C 0.03065 0.52145 0.41217 0.0
C590 C 0.06703 0.48169 0.40443 0.0
C591 C 0.04782 0.50909 0.35946 0.0
C592 C 0.04884 0.49937 0.42445 0.0
C593 C 0.03013 0.52685 0.37945 0.0
C594 C 0.06623 0.48652 0.37195 0.0
C595 C 0.99567 0.56756 0.38845 0.0
N596 N 0.01375 0.53794 0.43229 0.0
C597 C 0.99701 0.56134 0.42073 0.0
C598 C 0.01211 0.55011 0.36776 0.0
Tb599 Tb 0.01696 0.52606 0.48476 0.0
N600 N 0.0488 0.49533 0.45599 0.0
C601 C 0.06757 0.47432 0.46864 0.0
C602 C 0.08561 0.45982 0.41757 0.0
C603 C 0.08599 0.45625 0.44977 0.0
H604 H 0.98418 0.57482 0.43671 0.0
H605 H 0.10046 0.43953 0.46015 0.0
H606 H 0.07995 0.4731 0.35624 0.0
H607 H 0.98196 0.5858 0.37955 0.0
H608 H 0.06847 0.47075 0.4934 0.0
H609 H 0.88943 0.57883 0.5784 0.0
H610 H 0.09991 0.44577 0.40302 0.0
H611 H 0.01306 0.45057 0.60145 0.0
H612 H 0.92374 0.54919 0.54488 0.0
H613 H 0.01597 0.44125 0.65828 0.0
H614 H 0.04763 0.51278 0.33428 0.0
H615 H 0.89089 0.57478 0.63483 0.0
H616 H 0.91305 0.55054 0.68088 0.0
H617 H 0.01106 0.55497 0.34277 0.0
H618 H 0.94755 0.51319 0.70266 0.0
N619 N 0.94525 0.52733 0.58166 0.0
C620 C 0.92499 0.54651 0.56939 0.0
C621 C 0.90616 0.56137 0.62021 0.0
C622 C 0.92646 0.54142 0.63293 0.0
C623 C 0.90523 0.56365 0.58842 0.0
C624 C 0.94575 0.52437 0.6129 0.0
H625 H 0.98589 0.47219 0.69449 0.0
N626 N 0.98223 0.48675 0.60543 0.0
C627 C 0.00159 0.45885 0.64925 0.0
C628 C 0.96493 0.50335 0.6252 0.0
C629 C -0.00016 0.46412 0.61717 0.0
C630 C 0.98461 0.47639 0.6696 0.0
C631 C 0.9657 0.49877 0.65778 0.0
O632 O 0.9765 0.45885 0.56569 0.0
O633 O 0.00268 0.49336 0.5067 0.0
O634 O 0.98482 0.52372 0.46771 0.0
O635 O 0.95513 0.51848 0.51588 0.0
O636 O 0.00968 0.46128 0.54016 0.0
O637 O 0.94202 0.49181 0.55541 0.0
O638 O 0.02028 0.56371 0.47449 0.0
O639 O 0.99173 0.5298 0.53057 0.0
O640 O 0.00893 0.50289 0.56992 0.0
O641 O 0.03968 0.50302 0.5222 0.0
O642 O 0.98634 0.56237 0.49881 0.0
O643 O 0.05389 0.52941 0.48332 0.0
C644 C 0.01524 0.46924 0.50986 0.0
C645 C 0.93539 0.451 0.58204 0.0
C646 C 0.90863 0.42521 0.58095 0.0
C647 C 0.92038 0.44472 0.56635 0.0
C648 C 0.91095 0.41269 0.61228 0.0
C649 C 0.93752 0.43881 0.61345 0.0
C650 C 0.92497 0.41986 0.62865 0.0
C651 C 0.96133 0.5226 0.4842 0.0
C652 C 0.95214 0.46643 0.56237 0.0
C653 C 0.94721 0.51626 0.67759 0.0
C654 C 0.92759 0.53754 0.66519 0.0
C655 C 0.97934 0.5539 0.52872 0.0
C656 C 0.06239 0.56909 0.45579 0.0
C657 C 0.08062 0.57263 0.46922 0.0
C658 C 0.09394 0.59088 0.45359 0.0
C659 C 0.08996 0.60439 0.42295 0.0
C660 C 0.05856 0.58251 0.42528 0.0
C661 C 0.07265 0.59988 0.40876 0.0
C662 C 0.03316 0.50123 0.55371 0.0
C663 C 0.0449 0.55492 0.47693 0.0
H664 H 0.91961 0.45354 0.54164 0.0
H665 H 0.90227 0.39722 0.62378 0.0
H666 H 0.94954 0.4432 0.62563 0.0
H667 H 0.9269 0.41007 0.65269 0.0
H668 H 0.08338 0.56195 0.49279 0.0
H669 H 0.09945 0.61906 0.41036 0.0
H670 H 0.04419 0.58021 0.41478 0.0
H671 H 0.06942 0.61062 0.38543 0.0
Tb672 Tb 0.23845 0.25023 0.99134 0.0
C673 C 0.22274 0.28368 0.11244 0.0
C674 C 0.18778 0.32477 0.10593 0.0
C675 C 0.19273 0.30156 0.15912 0.0
C676 C 0.21008 0.30517 0.09257 0.0
C677 C 0.2142 0.28171 0.14598 0.0
C678 C 0.17953 0.32303 0.13913 0.0
C679 C 0.24908 0.24088 0.15173 0.0
N680 N 0.2432 0.26453 0.09907 0.0
C681 C 0.25694 0.24371 0.11859 0.0
C682 C 0.22751 0.2599 0.16553 0.0
Tb683 Tb 0.2573 0.27238 0.0442 0.0
N684 N 0.21842 0.30606 0.0604 0.0
C685 C 0.20264 0.32493 0.04105 0.0
C686 C 0.17369 0.34513 0.08567 0.0
C687 C 0.18082 0.34484 0.05315 0.0
H688 H 0.27466 0.22922 0.10907 0.0
H689 H 0.169 0.35957 0.03731 0.0
H690 H 0.16261 0.33798 0.14959 0.0
H691 H 0.26003 0.22421 0.16662 0.0
H692 H 0.20504 0.32435 1.01641 0.0
H693 H 0.32281 0.1615 0.99098 0.0
H694 H 0.15649 0.3604 0.095 0.0
H695 H 0.21512 0.29514 0.92985 0.0
H696 H 0.28709 0.19584 1.01528 0.0
H697 H 0.22641 0.30176 0.87154 0.0
H698 H 0.18602 0.30035 0.18473 0.0
H699 H 0.33539 0.16512 0.93243 0.0
H700 H 0.32835 0.19081 0.87903 0.0
H701 H 0.22156 0.25776 0.19128 0.0
H702 H 0.30313 0.22946 0.84674 0.0
N703 N 0.27693 0.21939 0.97164 0.0
C704 C 0.29105 0.19802 0.98996 0.0
C705 C 0.31911 0.18045 0.9431 0.0
C706 C 0.30539 0.20255 0.92425 0.0
C707 C 0.31199 0.17829 0.9761 0.0
C708 C 0.28417 0.22197 0.93931 0.0
H709 H 0.26563 0.27086 0.84369 0.0
N710 N 0.24924 0.26177 0.93623 0.0
C711 C 0.23909 0.28558 0.88511 0.0
C712 C 0.27012 0.24393 0.9211 0.0
C713 C 0.233 0.28179 0.91837 0.0
C714 C 0.2612 0.26813 0.86952 0.0
C715 C 0.27672 0.24674 0.8874 0.0
O716 O 0.20748 0.25679 0.96985 0.0
O717 O 0.2258 0.25975 0.03974 0.0
O718 O 0.26148 0.22958 0.06272 0.0
O719 O 0.24005 0.21754 0.03361 0.0
O720 O 0.19868 0.27515 1.01232 0.0
O721 O 0.22812 0.21737 0.9891 0.0
O722 O 0.29344 0.25265 0.05847 0.0
O723 O 0.27358 0.25215 1.00224 0.0
O724 O 0.24065 0.2909 0.969 0.0
O725 O 0.251 0.30759 1.00556 0.0
O726 O 0.28818 0.28078 1.00298 0.0
O727 O 0.27184 0.29276 0.06543 0.0
C728 C 0.20124 0.27202 0.04125 0.0
C729 C 0.18301 0.22796 0.98401 0.0
C730 C 0.15476 0.20047 1.00925 0.0
C731 C 0.17903 0.20514 1.00407 0.0
C732 C 0.13451 0.21922 0.99461 0.0
C733 C 0.1625 0.24615 0.96947 0.0
C734 C 0.13838 0.2419 0.97503 0.0
C735 C 0.25136 0.21244 0.05856 0.0
C736 C 0.20886 0.23237 0.97478 0.0
C737 C 0.29792 0.22762 0.8725 0.0
C738 C 0.31221 0.20557 0.89087 0.0
C739 C 0.29094 0.26369 0.98612 0.0
C740 C 0.31855 0.27891 0.05858 0.0
C741 C 0.32059 0.30332 0.04136 0.0
C742 C 0.34434 0.30901 0.03567 0.0
C743 C 0.36621 0.28954 0.0465 0.0
C744 C 0.34053 0.25993 0.06921 0.0
C745 C 0.3643 0.26517 0.06293 0.0
C746 C 0.2454 0.3102 0.97707 0.0
C747 C 0.29344 0.27316 0.06783 0.0
H748 H 0.19497 0.19074 1.01466 0.0
H749 H 0.116 0.21584 0.99686 0.0
H750 H 0.1653 0.2635 0.9531 0.0
H751 H 0.12292 0.25581 0.96327 0.0
H752 H 0.30357 0.31808 0.03328 0.0
H753 H 0.38453 0.29346 0.04365 0.0
H754 H 0.33916 0.24116 0.08289 0.0
H755 H 0.38107 0.25058 0.07166 0.0
Tb756 Tb 0.23816 0.99913 0.24168 0.0
C757 C 0.26534 0.07998 0.27444 0.0
C758 C 0.30601 0.07854 0.2356 0.0
C759 C 0.27817 0.11959 0.25333 0.0
C760 C 0.28781 0.06593 0.25564 0.0
C761 C 0.26065 0.10686 0.27407 0.0
C762 C 0.30081 0.10545 0.23414 0.0
C763 C 0.22362 0.10604 0.3177 0.0
N764 N 0.24903 0.067 0.29464 0.0
C765 C 0.22932 0.07941 0.31751 0.0
C766 C 0.2391 0.11997 0.29551 0.0
Tb767 Tb 0.26018 0.02295 0.2924 0.0
N768 N 0.29237 0.03983 0.2578 0.0
C769 C 0.3154 0.02532 0.24063 0.0
C770 C 0.32921 0.06369 0.21802 0.0
C771 C 0.33397 0.03695 0.22072 0.0
H772 H 0.21763 0.0687 0.33563 0.0
H773 H 0.35195 0.0252 0.2073 0.0
H774 H 0.31449 0.11539 0.21874 0.0
H775 H 0.20751 0.1157 0.33529 0.0
H776 H 0.32015 1.00474 0.24139 0.0
H777 H 0.15164 0.99358 0.33543 0.0
H778 H 0.34367 0.07262 0.20251 0.0
H779 H 0.27805 0.95653 0.19413 0.0
H780 H 0.18265 0.01469 0.30025 0.0
H781 H 0.28494 0.91138 0.18806 0.0
H782 H 0.27476 0.14022 0.25262 0.0
H783 H 0.15721 0.94759 0.33438 0.0
H784 H 0.18253 0.90707 0.31055 0.0
H785 H 0.23489 0.14055 0.29596 0.0
H786 H 0.21897 0.88454 0.271 0.0
N787 N 0.20685 0.98164 0.27732 0.0
C788 C 0.18575 0.99498 0.29811 0.0
C789 C 0.17115 0.95691 0.3183 0.0
C790 C 0.19223 0.94335 0.29683 0.0
C791 C 0.1679 0.98285 0.31885 0.0
C792 C 0.20996 0.95634 0.27644 0.0
H793 H 0.25708 0.88597 0.22532 0.0
N794 N 0.24734 0.95653 0.23547 0.0
C795 C 0.26979 0.92002 0.20718 0.0
C796 C 0.23078 0.94345 0.25474 0.0
C797 C 0.26584 0.94559 0.2108 0.0
C798 C 0.25405 0.90576 0.22821 0.0
C799 C 0.23399 0.91754 0.25205 0.0
O800 O 0.24274 1.00336 0.19221 0.0
O801 O 0.24946 0.03161 0.24629 0.0
O802 O 0.21907 0.04846 0.29204 0.0
O803 O 0.20639 0.03506 0.25464 0.0
O804 O 0.26528 0.01761 0.20478 0.0
O805 O 0.20396 0.01054 0.22268 0.0
O806 O 0.25448 0.02121 0.3416 0.0
O807 O 0.24921 0.99015 0.28814 0.0
O808 O 0.27831 0.9715 0.24326 0.0
O809 O 0.29156 0.98632 0.27905 0.0
O810 O 0.23373 1.00464 0.32965 0.0
O811 O 0.29375 0.01203 0.31255 0.0
C812 C 0.26306 0.0365 0.21852 0.0
C813 C 0.20967 0.9969 0.17345 0.0
C814 C 0.17678 0.99743 0.14627 0.0
C815 C 0.18383 1.00719 0.16784 0.0
C816 C 0.19518 0.97667 0.13132 0.0
C817 C 0.22817 0.97691 0.15701 0.0
C818 C 0.22074 0.96643 0.13678 0.0
C819 C 0.20185 0.05103 0.27492 0.0
C820 C 0.21758 1.00917 0.19362 0.0
C821 C 0.21669 0.90446 0.2726 0.0
C822 C 0.19591 0.91731 0.29503 0.0
C823 C 0.23626 0.98533 0.3165 0.0
C824 C 0.28721 0.02809 0.3603 0.0
C825 C 0.31165 0.01628 0.36965 0.0
C826 C 0.31811 0.02705 0.39074 0.0
C827 C 0.3006 0.05017 0.4015 0.0
C828 C 0.26959 0.05084 0.37214 0.0
C829 C 0.27651 0.06206 0.39207 0.0
C830 C 0.29601 0.96965 0.25943 0.0
C831 C 0.27954 0.01491 0.34104 0.0
H832 H 0.16962 0.02338 0.17918 0.0
H833 H 0.1899 0.96884 0.11478 0.0
H834 H 0.2486 0.96986 0.15876 0.0
H835 H 0.23507 0.95088 0.12452 0.0
H836 H 0.32519 0.99835 0.36144 0.0
H837 H 0.30557 0.0589 0.41739 0.0
H838 H 0.25016 0.0596 0.36699 0.0
H839 H 0.26289 0.07969 0.40081 0.0
Tb840 Tb 0.51134 0.27516 0.79019 0.0
C841 C 0.43127 0.24363 0.75733 0.0
C842 C 0.42801 0.20735 0.80051 0.0
C843 C 0.39074 0.23186 0.77508 0.0
C844 C 0.44252 0.2236 0.78004 0.0
C845 C 0.40545 0.24752 0.75417 0.0
C846 C 0.40199 0.21184 0.7982 0.0
C847 C 0.41154 0.28005 0.70756 0.0
N848 N 0.44608 0.25831 0.73721 0.0
C849 C 0.43708 0.27536 0.71148 0.0
C850 C 0.39551 0.26634 0.72928 0.0
Tb851 Tb 0.48858 0.24647 0.74374 0.0
N852 N 0.46785 0.21958 0.78153 0.0
C853 C 0.47958 0.19964 0.80338 0.0
C854 C 0.44018 0.18674 0.82238 0.0
C855 C 0.46609 0.18286 0.82374 0.0
H856 H 0.44952 0.28592 0.69452 0.0
H857 H 0.47563 0.16713 0.84081 0.0
H858 H 0.39056 0.19962 0.81381 0.0
H859 H 0.4043 0.29411 0.6877 0.0
H860 H 0.49915 0.19649 0.80603 0.0
H861 H 0.51469 0.35691 0.69084 0.0
H862 H 0.42974 0.17378 0.83834 0.0
H863 H 0.55778 0.23618 0.83192 0.0
H864 H 0.49409 0.32723 0.7287 0.0
H865 H 0.60379 0.23024 0.83097 0.0
H866 H 0.37084 0.23468 0.7731 0.0
H867 H 0.56106 0.35242 0.68756 0.0
H868 H 0.60269 0.32865 0.70693 0.0
H869 H 0.3758 0.26984 0.72604 0.0
H870 H 0.62712 0.2938 0.74383 0.0
N871 N 0.52746 0.30543 0.75082 0.0
C872 C 0.51381 0.32488 0.7299 0.0
C873 C 0.55191 0.3392 0.7053 0.0
C874 C 0.56615 0.31925 0.72587 0.0
C875 C 0.52573 0.34189 0.70722 0.0
C876 C 0.55343 0.30229 0.74851 0.0
H877 H 0.62778 0.25722 0.78971 0.0
N878 N 0.55537 0.26548 0.78986 0.0
C879 C 0.59404 0.24458 0.81297 0.0
C880 C 0.56766 0.28188 0.76856 0.0
C881 C 0.56784 0.248 0.81315 0.0
C882 C 0.60747 0.25985 0.78971 0.0
C883 C 0.59426 0.27903 0.7675 0.0
O884 O 0.51305 0.26766 0.83831 0.0
O885 O 0.48379 0.25474 0.79085 0.0
O886 O 0.45944 0.28592 0.74883 0.0
O887 O 0.47662 0.30583 0.77543 0.0
O888 O 0.47548 0.27324 0.82768 0.0
O889 O 0.50929 0.30719 0.8107 0.0
O890 O 0.49946 0.24412 0.69505 0.0
O891 O 0.52142 0.25936 0.74565 0.0
O892 O 0.53605 0.23321 0.79259 0.0
O893 O 0.52293 0.21553 0.75926 0.0
O894 O 0.50807 0.27119 0.70437 0.0
O895 O 0.4939 0.21061 0.72897 0.0
C896 C 0.46631 0.25978 0.81667 0.0
C897 C 0.51203 0.30005 0.86776 0.0
C898 C 0.5112 0.33218 0.89828 0.0
C899 C 0.51081 0.32588 0.86915 0.0
C900 C 0.51308 0.31254 0.92533 0.0
C901 C 0.51404 0.28105 0.89553 0.0
C902 C 0.51457 0.28727 0.9239 0.0
C903 C 0.45841 0.3061 0.76098 0.0
C904 C 0.51167 0.29177 0.83819 0.0
C905 C 0.60672 0.29586 0.74503 0.0
C906 C 0.59276 0.3158 0.72416 0.0
C907 C 0.52709 0.27032 0.71662 0.0
C908 C 0.48699 0.21482 0.67569 0.0
C909 C 0.49283 0.18903 0.66962 0.0
C910 C 0.48367 0.18503 0.64475 0.0
C911 C 0.46859 0.20678 0.62659 0.0
C912 C 0.47221 0.23602 0.65628 0.0
C913 C 0.4629 0.23198 0.63235 0.0
C914 C 0.53852 0.21369 0.77826 0.0
C915 C 0.49908 0.22024 0.69876 0.0
H916 H 0.50939 0.34085 0.84809 0.0
H917 H 0.51357 0.31679 0.94777 0.0
H918 H 0.51524 0.26113 0.89546 0.0
H919 H 0.51616 0.27235 0.94498 0.0
H920 H 0.5049 0.17241 0.68343 0.0
H921 H 0.46145 0.20425 0.60745 0.0
H922 H 0.46851 0.25601 0.65864 0.0
H923 H 0.45166 0.24859 0.61767 0.0
Tb924 Tb 0.00956 0.7728 0.79304 0.0
C925 C 0.92788 0.74661 0.76835 0.0
C926 C 0.92935 0.70724 0.80789 0.0
C927 C 0.8874 0.7359 0.79522 0.0
C928 C 0.94239 0.72399 0.78539 0.0
C929 C 0.9003 0.75226 0.77249 0.0
C930 C 0.90187 0.71353 0.81299 0.0
C931 C 0.90023 0.78835 0.72904 0.0
N932 N 0.94075 0.76238 0.74674 0.0
C933 C 0.92744 0.78198 0.72568 0.0
C934 C 0.88649 0.77375 0.75296 0.0
Tb935 Tb 0.98587 0.74883 0.74258 0.0
N936 N 0.96909 0.71832 0.78002 0.0
C937 C 0.98365 0.69542 0.79582 0.0
C938 C 0.94425 0.68455 0.82469 0.0
C939 C 0.97149 0.67857 0.81847 0.0
H940 H 0.93767 0.79291 0.70586 0.0
H941 H 0.98327 0.66078 0.831 0.0
H942 H 0.89164 0.70097 0.8303 0.0
H943 H 0.88995 0.80429 0.71278 0.0
H944 H 0.00468 0.68927 0.79152 0.0
H945 H 0.02192 0.8543 0.69972 0.0
H946 H 0.93494 0.67136 0.84224 0.0
H947 H 0.05182 0.72909 0.8379 0.0
H948 H 0.99727 0.82716 0.73785 0.0
H949 H 0.09928 0.71566 0.8377 0.0
H950 H 0.86626 0.74013 0.79887 0.0
H951 H 0.0698 0.84311 0.69593 0.0
H952 H 0.11059 0.81348 0.71528 0.0
H953 H 0.8654 0.77858 0.75533 0.0
H954 H 0.1317 0.77543 0.75203 0.0
N955 N 0.03058 0.79954 0.75561 0.0
C956 C 0.01805 0.82141 0.73655 0.0
C957 C 0.05901 0.83086 0.71284 0.0
C958 C 0.07172 0.80893 0.73285 0.0
C959 C 0.03203 0.83719 0.71484 0.0
C960 C 0.05678 0.79353 0.75444 0.0
H961 H 0.12774 0.73886 0.79741 0.0
N962 N 0.05369 0.75777 0.7957 0.0
C963 C 0.09108 0.73121 0.81954 0.0
C964 C 0.06874 0.77185 0.77484 0.0
C965 C 0.06428 0.7386 0.8192 0.0
C966 C 0.10702 0.74441 0.79686 0.0
C967 C 0.09585 0.76534 0.77458 0.0
O968 O 0.00704 0.77432 0.84105 0.0
O969 O 0.97624 0.76136 0.78977 0.0
O970 O 0.96693 0.79187 0.73658 0.0
O971 O 0.97245 0.80221 0.78162 0.0
O972 O 0.98877 0.74915 0.83189 0.0
O973 O 0.00067 0.80965 0.80698 0.0
O974 O 0.98003 0.75543 0.6963 0.0
O975 O 0.01612 0.76468 0.7451 0.0
O976 O 0.03307 0.73118 0.79252 0.0
O977 O 0.02243 0.71821 0.75273 0.0
O978 O 0.01739 0.75756 0.70223 0.0
O979 O 0.99024 0.71542 0.72278 0.0
C980 C 0.97034 0.7499 0.81868 0.0
C981 C 0.01751 0.80929 0.85184 0.0
C982 C 0.02048 0.84085 0.88044 0.0
C983 C 0.0061 0.83322 0.86433 0.0
C984 C 0.04601 0.8247 0.88353 0.0
C985 C 0.04297 0.7937 0.85618 0.0
C986 C 0.05711 0.80136 0.87153 0.0
C987 C 0.96023 0.80775 0.75762 0.0
C988 C 0.00254 0.79958 0.83646 0.0
C989 C 0.11085 0.78028 0.7527 0.0
C990 C 0.09882 0.80201 0.73186 0.0
C991 C 0.03021 0.76502 0.71635 0.0
C992 C 0.98308 0.7219 0.66755 0.0
C993 C 0.98657 0.69543 0.6661 0.0
C994 C 0.98533 0.68879 0.63757 0.0
C995 C 0.98037 0.70868 0.61125 0.0
C996 C 0.97803 0.7411 0.6405 0.0
C997 C 0.97668 0.73453 0.61277 0.0
C998 C 0.03738 0.71442 0.77337 0.0
C999 C 0.98436 0.73067 0.69631 0.0
H1000 H 0.98626 0.84543 0.86205 0.0
H1001 H 0.05733 0.83006 0.89578 0.0
H1002 H 0.05196 0.77517 0.84847 0.0
H1003 H 0.07669 0.78888 0.87457 0.0
H1004 H 0.99037 0.68027 0.6866 0.0
H1005 H 0.97914 0.70418 0.58932 0.0
H1006 H 0.9751 0.76148 0.64061 0.0
H1007 H 0.97275 0.74962 0.59226 0.0
Tb1008 Tb 0.73807 0.49898 0.24132 0.0
C1009 C 0.76317 0.57978 0.27587 0.0
C1010 C 0.8018 0.57999 0.23393 0.0
C1011 C 0.7738 0.6204 0.2533 0.0
C1012 C 0.78509 0.5665 0.25571 0.0
C1013 C 0.75777 0.60675 0.2756 0.0
C1014 C 0.79572 0.60706 0.2324 0.0
C1015 C 0.72273 0.60427 0.3215 0.0
N1016 N 0.74791 0.56606 0.29685 0.0
C1017 C 0.72886 0.57764 0.32079 0.0
C1018 C 0.73694 0.61903 0.29842 0.0
Tb1019 Tb 0.75939 0.52239 0.29303 0.0
N1020 N 0.7904 0.54029 0.2579 0.0
C1021 C 0.81317 0.52633 0.23986 0.0
C1022 C 0.82433 0.56586 0.2146 0.0
C1023 C 0.83017 0.53887 0.21786 0.0
H1024 H 0.71778 0.56641 0.33903 0.0
H1025 H 0.84782 0.52763 0.2034 0.0
H1026 H 0.80818 0.61774 0.21563 0.0
H1027 H 0.70712 0.61335 0.33995 0.0
H1028 H 0.81861 0.50556 0.24153 0.0
H1029 H 0.64951 0.49397 0.33082 0.0
H1030 H 0.83757 0.57551 0.19754 0.0
H1031 H 0.77984 0.45493 0.19549 0.0
H1032 H 0.6791 0.51586 0.29321 0.0
H1033 H 0.7902 0.40811 0.19421 0.0
H1034 H 0.76975 0.64116 0.25249 0.0
H1035 H 0.65913 0.44626 0.33584 0.0
H1036 H 0.68804 0.40414 0.31713 0.0
H1037 H 0.73223 0.63966 0.29906 0.0
H1038 H 0.72644 0.3807 0.28028 0.0
N1039 N 0.70696 0.48117 0.27638 0.0
C1040 C 0.68429 0.49516 0.29455 0.0
C1041 C 0.67256 0.45582 0.31904 0.0
C1042 C 0.69501 0.44168 0.29961 0.0
C1043 C 0.66707 0.48272 0.31625 0.0
C1044 C 0.71198 0.45506 0.27819 0.0
H1045 H 0.76442 0.38202 0.23432 0.0
N1046 N 0.74942 0.45535 0.23738 0.0
C1047 C 0.77452 0.4172 0.21259 0.0
C1048 C 0.73387 0.44175 0.258 0.0
C1049 C 0.76862 0.44373 0.21357 0.0
C1050 C 0.75993 0.40257 0.23522 0.0
C1051 C 0.739 0.41489 0.25792 0.0
O1052 O 0.74218 0.50195 0.19215 0.0
O1053 O 0.7491 0.53153 0.24613 0.0
O1054 O 0.71815 0.54715 0.2944 0.0
O1055 O 0.70734 0.53599 0.2536 0.0
O1056 O 0.76501 0.51707 0.20446 0.0
O1057 O 0.70361 0.51003 0.22286 0.0
O1058 O 0.7549 0.51904 0.34228 0.0
O1059 O 0.74837 0.48984 0.28817 0.0
O1060 O 0.77932 0.47394 0.24042 0.0
O1061 O 0.7903 0.48552 0.28077 0.0
O1062 O 0.73235 0.50437 0.32976 0.0
O1063 O 0.79359 0.51181 0.31185 0.0
C1064 C 0.76253 0.53615 0.21801 0.0
C1065 C 0.70877 0.49491 0.17485 0.0
C1066 C 0.67606 0.49507 0.14764 0.0
C1067 C 0.68322 0.50563 0.16833 0.0
C1068 C 0.69415 0.47336 0.13424 0.0
C1069 C 0.72682 0.47355 0.16048 0.0
C1070 C 0.71937 0.46261 0.14076 0.0
C1071 C 0.7019 0.5508 0.27561 0.0
C1072 C 0.71699 0.50788 0.19387 0.0
C1073 C 0.72264 0.40137 0.27979 0.0
C1074 C 0.70074 0.41472 0.30069 0.0
C1075 C 0.73487 0.48525 0.31625 0.0
C1076 C 0.78748 0.52673 0.36029 0.0
C1077 C 0.81325 0.51702 0.36599 0.0
C1078 C 0.81996 0.52762 0.38699 0.0
C1079 C 0.80115 0.54827 0.40177 0.0
C1080 C 0.76868 0.54706 0.37593 0.0
C1081 C 0.77563 0.55798 0.39615 0.0
C1082 C 0.7957 0.47046 0.25906 0.0
C1083 C 0.77997 0.51359 0.34081 0.0
H1084 H 0.6693 0.52259 0.17842 0.0
H1085 H 0.68879 0.46494 0.11836 0.0
H1086 H 0.74695 0.46568 0.16356 0.0
H1087 H 0.73338 0.44612 0.12992 0.0
H1088 H 0.82777 0.50084 0.35489 0.0
H1089 H 0.80617 0.55663 0.418 0.0
H1090 H 0.74841 0.55411 0.37339 0.0
H1091 H 0.76106 0.57363 0.40803 0.0
Tb1092 Tb 0.73964 0.75031 0.98975 0.0
C1093 C 0.72622 0.77751 0.11424 0.0
C1094 C 0.68758 0.81595 0.11191 0.0
C1095 C 0.69661 0.79123 0.1633 0.0
C1096 C 0.71074 0.79864 0.09636 0.0
C1097 C 0.71957 0.77403 0.14795 0.0
C1098 C 0.68058 0.81203 0.14533 0.0
C1099 C 0.75985 0.73798 0.14937 0.0
N1100 N 0.74813 0.76087 0.09882 0.0
C1101 C 0.76559 0.74204 0.11609 0.0
C1102 C 0.73655 0.7538 0.1654 0.0
Tb1103 Tb 0.75751 0.7722 0.04402 0.0
N1104 N 0.71815 0.80216 0.06394 0.0
C1105 C 0.70241 0.82239 0.046 0.0
C1106 C 0.67195 0.83672 0.0935 0.0
C1107 C 0.67932 0.83982 0.06044 0.0
H1108 H 0.78394 0.72962 0.10417 0.0
H1109 H 0.66704 0.85553 0.04593 0.0
H1110 H 0.6629 0.82515 0.15754 0.0
H1111 H 0.7735 0.72268 0.1626 0.0
H1112 H 0.70637 0.82485 0.02053 0.0
H1113 H 0.82932 0.66597 0.99136 0.0
H1114 H 0.654 0.8503 0.10456 0.0
H1115 H 0.71591 0.7931 0.92756 0.0
H1116 H 0.7906 0.69805 1.01514 0.0
H1117 H 0.72755 0.7988 0.86937 0.0
H1118 H 0.6912 0.78874 0.1891 0.0
H1119 H 0.84271 0.66922 0.93293 0.0
H1120 H 0.83483 0.6932 0.87924 0.0
H1121 H 0.73218 0.75066 0.19124 0.0
H1122 H 0.8079 0.72966 0.84624 0.0
N1123 N 0.77894 0.71936 0.97116 0.0
C1124 C 0.79444 0.69956 0.98981 0.0
C1125 C 0.8249 0.68335 0.94332 0.0
C1126 C 0.80979 0.70388 0.92413 0.0
C1127 C 0.81731 0.68136 0.97626 0.0
C1128 C 0.78677 0.72194 0.93881 0.0
H1129 H 0.76825 0.76893 0.84231 0.0
N1130 N 0.75048 0.76052 0.93473 0.0
C1131 C 0.74045 0.78319 0.88327 0.0
C1132 C 0.77209 0.74303 0.92013 0.0
C1133 C 0.73406 0.77981 0.91651 0.0
C1134 C 0.76337 0.76631 0.86813 0.0
C1135 C 0.77936 0.7458 0.88645 0.0
O1136 O 0.70646 0.75906 0.97117 0.0
O1137 O 0.72673 0.759 0.03857 0.0
O1138 O 0.75607 0.73151 0.06704 0.0
O1139 O 0.74489 0.71589 0.03031 0.0
O1140 O 0.69896 0.77236 1.01214 0.0
O1141 O 0.73074 0.71864 0.98154 0.0
O1142 O 0.79181 0.76482 0.06027 0.0
O1143 O 0.7704 0.76363 0.99516 0.0
O1144 O 0.7407 0.7912 0.96709 0.0
O1145 O 0.75189 0.80674 1.00382 0.0
O1146 O 0.79805 0.74984 0.02194 0.0
O1147 O 0.76431 0.80448 0.05355 0.0
C1148 C 0.70186 0.77003 0.0407 0.0
C1149 C 0.68635 0.72789 0.97503 0.0
C1150 C 0.65681 0.70236 1.00223 0.0
C1151 C 0.68022 0.70793 0.99925 0.0
C1152 C 0.63993 0.71675 0.98081 0.0
C1153 C 0.66937 0.74179 0.95375 0.0
C1154 C 0.64625 0.73629 0.95671 0.0
C1155 C 0.75134 0.71237 0.05857 0.0
C1156 C 0.7104 0.73479 0.96973 0.0
C1157 C 0.80204 0.72775 0.87199 0.0
C1158 C 0.81728 0.70692 0.89077 0.0
C1159 C 0.79521 0.7523 0.9933 0.0
C1160 C 0.80633 0.79862 0.06474 0.0
C1161 C 0.81699 0.81461 0.03855 0.0
C1162 C 0.83806 0.82203 0.04066 0.0
C1163 C 0.84791 0.81374 0.06894 0.0
C1164 C 0.81633 0.79058 0.09276 0.0
C1165 C 0.83704 0.79814 0.09484 0.0
C1166 C 0.74534 0.81034 0.97565 0.0
C1167 C 0.78529 0.78895 0.06444 0.0
H1168 H 0.69363 0.69655 1.01513 0.0
H1169 H 0.62235 0.71206 0.98179 0.0
H1170 H 0.67417 0.75688 0.93455 0.0
H1171 H 0.63346 0.74683 0.93994 0.0
H1172 H 0.80906 0.82116 0.01702 0.0
H1173 H 0.86366 0.81995 0.07124 0.0
H1174 H 0.80809 0.77832 0.11312 0.0
H1175 H 0.84455 0.79206 0.1166 0.0
Tb1176 Tb 0.47943 0.99893 0.5494 0.0
C1177 C 0.53447 0.01533 0.40874 0.0
C1178 C 0.57254 0.97637 0.40515 0.0
C1179 C 0.55439 0.99962 0.35806 0.0
C1180 C 0.55301 0.99493 0.42309 0.0
C1181 C 0.5351 0.0181 0.37598 0.0
C1182 C 0.57305 0.97878 0.37263 0.0
C1183 C 0.49826 0.05784 0.38073 0.0
N1184 N 0.51588 0.03255 0.42688 0.0
C1185 C 0.49849 0.05429 0.41309 0.0
C1186 C 0.51651 0.03954 0.36213 0.0
Tb1187 Tb 0.51867 0.0257 0.47926 0.0
N1188 N 0.55172 0.99311 0.45466 0.0
C1189 C 0.57013 0.97333 0.46944 0.0
C1190 C 0.59099 0.95596 0.42039 0.0
C1191 C 0.5898 0.95449 0.45265 0.0
H1192 H 0.48436 0.06853 0.42743 0.0
H1193 H 0.60403 0.9388 0.46468 0.0
H1194 H 0.58788 0.9647 0.35851 0.0
H1195 H 0.48407 0.07472 0.37014 0.0
H1196 H 0.56978 0.9713 0.49437 0.0
H1197 H 0.39192 0.08069 0.57907 0.0
H1198 H 0.60627 0.94131 0.40747 0.0
H1199 H 0.5152 0.95091 0.5954 0.0
H1200 H 0.42534 0.05201 0.54384 0.0
H1201 H 0.51914 0.93964 0.65188 0.0
H1202 H 0.55515 1.00137 0.33289 0.0
H1203 H 0.39439 0.07455 0.63553 0.0
H1204 H 0.41715 0.04838 0.68051 0.0
H1205 H 0.51633 0.04235 0.33704 0.0
H1206 H 0.45179 1.01001 0.70041 0.0
N1207 N 0.44753 0.02862 0.57952 0.0
C1208 C 0.42713 0.04841 0.56827 0.0
C1209 C 0.40932 0.06157 0.62011 0.0
C1210 C 0.4297 0.04098 0.63181 0.0
C1211 C 0.40782 0.06503 0.58832 0.0
C1212 C 0.44853 0.02451 0.61076 0.0
H1213 H 0.48979 0.96924 0.68996 0.0
N1214 N 0.48449 0.98694 0.60123 0.0
C1215 C 0.50464 0.95756 0.64377 0.0
C1216 C 0.46771 1.00291 0.62201 0.0
C1217 C 0.50231 0.96397 0.61181 0.0
C1218 C 0.48808 0.97433 0.66518 0.0
C1219 C 0.46906 0.99716 0.65451 0.0
O1220 O 0.47584 0.96136 0.55995 0.0
O1221 O 0.50414 0.99345 0.503 0.0
O1222 O 0.48629 0.02113 0.46474 0.0
O1223 O 0.45631 0.02277 0.5129 0.0
O1224 O 0.51044 0.96233 0.53779 0.0
O1225 O 0.44237 0.99566 0.55094 0.0
O1226 O 0.52113 0.06333 0.45888 0.0
O1227 O 0.49375 0.03098 0.52499 0.0
O1228 O 0.51036 1.00459 0.56568 0.0
O1229 O 0.54118 1.00671 0.51776 0.0
O1230 O 0.48936 0.06297 0.49252 0.0
O1231 O 0.55462 0.032 0.47641 0.0
C1232 C 0.51653 0.96928 0.50736 0.0
C1233 C 0.43408 0.95539 0.57625 0.0
C1234 C 0.40885 0.92772 0.57608 0.0
C1235 C 0.42137 0.94647 0.56017 0.0
C1236 C 0.40821 0.91863 0.60885 0.0
C1237 C 0.43329 0.94654 0.60897 0.0
C1238 C 0.42006 0.92835 0.62528 0.0
C1239 C 0.46228 0.02301 0.48175 0.0
C1240 C 0.45147 0.97016 0.55659 0.0
C1241 C 0.45103 0.01401 0.67537 0.0
C1242 C 0.43133 0.03587 0.66404 0.0
C1243 C 0.4822 0.05526 0.52258 0.0
C1244 C 0.56034 0.07465 0.45309 0.0
C1245 C 0.57173 0.07901 0.47503 0.0
C1246 C 0.58216 0.09981 0.46722 0.0
C1247 C 0.58225 0.11541 0.43682 0.0
C1248 C 0.56041 0.09033 0.42286 0.0
C1249 C 0.57167 0.11046 0.41464 0.0
C1250 C 0.53443 1.00394 0.54943 0.0
C1251 C 0.5451 0.05642 0.46337 0.0
H1252 H 0.42285 0.95274 0.53461 0.0
H1253 H 0.39881 0.90389 0.62155 0.0
H1254 H 0.44354 0.95298 0.62149 0.0
H1255 H 0.41969 0.92116 0.65045 0.0
H1256 H 0.57092 0.06741 0.49876 0.0
H1257 H 0.5903 0.13156 0.43041 0.0
H1258 H 0.55129 0.08733 0.40593 0.0
H1259 H 0.57161 0.12265 0.39137 0.0
Tb1260 Tb 0.47917 0.49625 0.04945 0.0
C1261 C 0.53256 0.52095 0.9099 0.0
C1262 C 0.56901 0.48144 0.90109 0.0
C1263 C 0.54913 0.50935 0.8568 0.0
C1264 C 0.55075 0.49859 0.92169 0.0
C1265 C 0.53174 0.52687 0.87725 0.0
C1266 C 0.56777 0.48667 0.86871 0.0
C1267 C 0.49808 0.56788 0.88709 0.0
N1268 N 0.51629 0.53744 0.93033 0.0
C1269 C 0.49983 0.56121 0.91924 0.0
C1270 C 0.51391 0.5505 0.86604 0.0
Tb1271 Tb 0.51982 0.52453 0.98264 0.0
N1272 N 0.5514 0.4944 0.95303 0.0
C1273 C 0.571 0.47391 0.96488 0.0
C1274 C 0.58844 0.46 0.91342 0.0
C1275 C 0.58966 0.45647 0.94535 0.0
H1276 H 0.48746 0.57462 0.9355 0.0
H1277 H 0.60488 0.44019 0.95506 0.0
H1278 H 0.5815 0.47363 0.85257 0.0
H1279 H 0.48455 0.5864 0.87855 0.0
H1280 H 0.57246 0.47045 0.98945 0.0
H1281 H 0.39096 0.57814 0.07592 0.0
H1282 H 0.6029 0.44642 0.89838 0.0
H1283 H 0.51327 0.44825 0.0971 0.0
H1284 H 0.4251 0.5489 0.04182 0.0
H1285 H 0.51596 0.43769 0.1541 0.0
H1286 H 0.54872 0.51344 0.83166 0.0
H1287 H 0.39226 0.57287 0.13265 0.0
H1288 H 0.41413 0.54744 0.17861 0.0
H1289 H 0.51262 0.55576 0.84112 0.0
H1290 H 0.44821 0.50928 0.19995 0.0
N1291 N 0.44633 0.52602 0.0785 0.0
C1292 C 0.42628 0.54567 0.06642 0.0
C1293 C 0.40745 0.55962 0.11776 0.0
C1294 C 0.42752 0.53918 0.13028 0.0
C1295 C 0.4066 0.56259 0.08581 0.0
C1296 C 0.44669 0.52235 0.10989 0.0
H1297 H 0.48612 0.46809 0.19105 0.0
N1298 N 0.48278 0.48455 0.10177 0.0
C1299 C 0.50177 0.45558 0.14533 0.0
C1300 C 0.4656 0.50087 0.12194 0.0
C1301 C 0.50015 0.46156 0.11315 0.0
C1302 C 0.48493 0.47282 0.16611 0.0
C1303 C 0.46627 0.4956 0.15461 0.0
O1304 O 0.47625 0.45842 0.06014 0.0
O1305 O 0.50487 0.49238 1.00373 0.0
O1306 O 0.48862 0.52182 0.96409 0.0
O1307 O 0.45724 0.51981 1.01131 0.0
O1308 O 0.51014 0.4599 0.03613 0.0
O1309 O 0.44284 0.49231 0.04932 0.0
O1310 O 0.52427 0.56159 0.97383 0.0
O1311 O 0.49365 0.52859 0.02795 0.0
O1312 O 0.50951 0.50136 0.0676 0.0
O1313 O 0.54126 0.50018 0.0208 0.0
O1314 O 0.4896 0.5612 0.99625 0.0
O1315 O 0.55716 0.52637 0.98218 0.0
C1316 C 0.51721 0.46824 1.00622 0.0
C1317 C 0.43421 0.45284 0.07745 0.0
C1318 C 0.40346 0.43003 0.07981 0.0
C1319 C 0.41722 0.44778 0.06343 0.0
C1320 C 0.40595 0.41838 0.11146 0.0
C1321 C 0.43653 0.44127 0.10895 0.0
C1322 C 0.42215 0.42427 0.12599 0.0
C1323 C 0.46418 0.52369 0.97964 0.0
C1324 C 0.45193 0.46685 0.05648 0.0
C1325 C 0.44793 0.51287 0.1748 0.0
C1326 C 0.42855 0.53461 0.16266 0.0
C1327 C 0.48173 0.55282 0.02597 0.0
C1328 C 0.56662 0.56596 0.95695 0.0
C1329 C 0.5797 0.57449 0.97288 0.0
C1330 C 0.59288 0.59264 0.9568 0.0
C1331 C 0.59383 0.60152 0.92395 0.0
C1332 C 0.56768 0.57453 0.92414 0.0
C1333 C 0.58159 0.59212 0.90762 0.0
C1334 C 0.53406 0.49919 0.05218 0.0
C1335 C 0.54874 0.55191 0.9769 0.0
H1336 H 0.41565 0.45699 0.03906 0.0
H1337 H 0.39611 0.40411 0.12467 0.0
H1338 H 0.44993 0.44474 0.11993 0.0
H1339 H 0.42422 0.41496 0.15013 0.0
H1340 H 0.57793 0.56846 0.99851 0.0
H1341 H 0.6037 0.61586 0.91114 0.0
H1342 H 0.55715 0.56835 0.91172 0.0
H1343 H 0.58218 0.59911 0.88238 0.0
H1344 H 0.94283 0.08409 0.06976 0.0
H1345 H 0.02591 0.06303 0.02888 0.0
H1346 H 0.94882 0.10738 0.10569 0.0
H1347 H 0.03203 0.08721 0.06394 0.0
H1348 H 0.01646 0.1684 0.09581 0.0
H1349 H 0.01947 0.13372 0.0686 0.0
H1350 H 0.9686 0.10431 0.15105 0.0
H1351 H 0.96556 0.13931 0.17804 0.0
C1352 C 0.96253 0.0834 0.06929 0.0
C1353 C 0.98399 0.07025 0.04758 0.0
C1354 C 0.96603 0.09712 0.08973 0.0
C1355 C 0.99102 0.099 0.08819 0.0
C1356 C 0.01251 0.08615 0.06608 0.0
C1357 C 0.00901 0.07206 0.0461 0.0
C1358 C 0.00696 0.15376 0.10866 0.0
C1359 C 0.99111 0.15634 0.13928 0.0
C1360 C 0.00848 0.13395 0.09296 0.0
C1361 C 0.99387 0.1164 0.10734 0.0
C1362 C 0.97972 0.11774 0.139 0.0
C1363 C 0.97832 0.13751 0.15473 0.0
H1364 H 0.84722 0.21945 0.48952 0.0
H1365 H 0.79952 0.27907 0.42856 0.0
H1366 H 0.88619 0.21855 0.44855 0.0
H1367 H 0.83907 0.27868 0.38631 0.0
H1368 H 0.91776 0.27923 0.31078 0.0
H1369 H 0.87629 0.27835 0.34892 0.0
H1370 H 0.92129 0.21942 0.41419 0.0
H1371 H 0.96146 0.22044 0.37638 0.0
C1372 C 0.84489 0.23247 0.46705 0.0
C1373 C 0.81937 0.2491 0.46327 0.0
C1374 C 0.86794 0.23214 0.44268 0.0
C1375 C 0.86755 0.24878 0.4124 0.0
C1376 C 0.84165 0.26533 0.40843 0.0
C1377 C 0.81834 0.26551 0.43306 0.0
C1378 C 0.91874 0.26571 0.33309 0.0
C1379 C 0.94384 0.24951 0.3395 0.0
C1380 C 0.89448 0.2653 0.3557 0.0
C1381 C 0.89373 0.2489 0.38637 0.0
C1382 C 0.91914 0.23268 0.39202 0.0
C1383 C 0.94306 0.23312 0.36964 0.0
H1384 H 0.73105 0.0873 0.7282 0.0
H1385 H 0.79068 0.04602 0.657 0.0
H1386 H 0.72796 0.12881 0.69102 0.0
H1387 H 0.78785 0.08717 0.61992 0.0
H1388 H 0.76099 0.16105 0.54652 0.0
H1389 H 0.76391 0.12039 0.58502 0.0
H1390 H 0.74467 0.16347 0.66192 0.0
H1391 H 0.74086 0.20401 0.62346 0.0
C1392 C 0.74387 0.08699 0.70484 0.0
C1393 C 0.76135 0.06285 0.69613 0.0
C1394 C 0.74208 0.11105 0.68316 0.0
C1395 C 0.7574 0.11207 0.65158 0.0
C1396 C 0.77514 0.08784 0.64333 0.0
C1397 C 0.777 0.06395 0.66497 0.0
C1398 C 0.75728 0.16199 0.57162 0.0
C1399 C 0.75118 0.18634 0.58126 0.0
C1400 C 0.75922 0.13835 0.59403 0.0
C1401 C 0.75489 0.13783 0.62733 0.0
C1402 C 0.74819 0.16236 0.63692 0.0
C1403 C 0.7464 0.18593 0.61449 0.0
H1404 H 0.95091 0.97967 0.98595 0.0
H1405 H 0.93222 0.06022 0.93923 0.0
H1406 H 0.92376 0.97132 0.95757 0.0
H1407 H 0.90257 0.05291 0.91286 0.0
H1408 H 0.8536 0.03524 0.86296 0.0
H1409 H 0.89362 0.03491 0.87648 0.0
H1410 H 0.88011 0.97924 0.9622 0.0
H1411 H 0.84176 0.97841 0.9474 0.0
C1412 C 0.9404 0.99573 0.96996 0.0
C1413 C 0.94279 0.02075 0.96533 0.0
C1414 C 0.9248 0.99102 0.95367 0.0
C1415 C 0.91032 0.01154 0.93336 0.0
C1416 C 0.91351 0.03651 0.92803 0.0
C1417 C 0.93003 0.04094 0.94352 0.0
C1418 C 0.85991 0.02227 0.88402 0.0
C1419 C 0.84439 1.00725 0.90453 0.0
C1420 C 0.88257 0.02237 0.89209 0.0
C1421 C 0.88987 1.00761 0.92091 0.0
C1422 C 0.87546 0.99085 0.93975 0.0
C1423 C 0.85318 0.99052 0.93148 0.0
H1424 H 0.08618 1.00217 0.02546 0.0
H1425 H 0.02359 0.01914 0.10808 0.0
H1426 H 0.11651 1.00758 0.05174 0.0
H1427 H 0.05393 0.02537 0.13416 0.0
H1428 H 0.13022 0.99024 0.17974 0.0
H1429 H 0.09181 0.99828 0.15735 0.0
H1430 H 0.12734 0.03911 0.06969 0.0
H1431 H 0.16599 0.0301 0.09194 0.0
C1432 C 0.07889 1.00712 0.04924 0.0
C1433 C 0.05264 1.00978 0.06487 0.0
C1434 C 0.09618 0.01065 0.06416 0.0
C1435 C 0.08758 0.01721 0.09497 0.0
C1436 C 0.06121 0.02012 0.11055 0.0
C1437 C 0.04392 0.01634 0.09569 0.0
C1438 C 0.12925 1.00169 0.15613 0.0
C1439 C 0.15091 1.00934 0.1373 0.0
C1440 C 0.10731 1.00633 0.14326 0.0
C1441 C 0.10692 0.01864 0.11138 0.0
C1442 C 0.12743 0.02888 0.09397 0.0
C1443 C 0.14939 0.02402 0.10675 0.0
H1444 H 0.02689 0.41594 0.521 0.0
H1445 H 0.0053 0.48299 0.44845 0.0
H1446 H 0.02259 0.38822 0.48893 0.0
H1447 H 0.00093 0.45564 0.41656 0.0
H1448 H 0.02789 0.38806 0.35518 0.0
H1449 H 0.02589 0.42074 0.38506 0.0
H1450 H 0.98914 0.37948 0.47106 0.0
H1451 H 0.99136 0.3469 0.44099 0.0
C1452 C 0.02154 0.42487 0.49806 0.0
C1453 C 0.0166 0.45201 0.48754 0.0
C1454 C 0.01869 0.40897 0.47979 0.0
C1455 C 0.01101 0.41962 0.45017 0.0
C1456 C 0.00691 0.44657 0.43914 0.0
C1457 C 0.00951 0.46245 0.4576 0.0
C1458 C 0.01827 0.38672 0.38014 0.0
C1459 C 0.00932 0.36517 0.39556 0.0
C1460 C 0.01739 0.40528 0.39745 0.0
C1461 C 0.00795 0.40249 0.43076 0.0
C1462 C 0.99714 0.382 0.44564 0.0
C1463 C 0.99784 0.3636 0.42828 0.0
H1464 H 0.69964 0.24727 0.60989 0.0
H1465 H 0.65087 0.28395 0.54043 0.0
H1466 H 0.65973 0.2509 0.65269 0.0
H1467 H 0.6118 0.28576 0.58152 0.0
H1468 H 0.53719 0.29875 0.65693 0.0
H1469 H 0.57799 0.29904 0.6193 0.0
H1470 H 0.62201 0.24226 0.68682 0.0
H1471 H 0.58018 0.24288 0.72525 0.0
C1472 C 0.68059 0.25706 0.6035 0.0
C1473 C 0.67936 0.26673 0.57084 0.0
C1474 C 0.65715 0.25855 0.6284 0.0
C1475 C 0.63103 0.26909 0.6221 0.0
C1476 C 0.63035 0.27828 0.58925 0.0
C1477 C 0.65345 0.27717 0.56486 0.0
C1478 C 0.55547 0.28636 0.66418 0.0
C1479 C 0.55441 0.27103 0.69501 0.0
C1480 C 0.5796 0.28618 0.64189 0.0
C1481 C 0.60483 0.27015 0.64829 0.0
C1482 C 0.60385 0.25506 0.67967 0.0
C1483 C 0.57942 0.25542 0.70227 0.0
H1484 H 0.70935 0.97681 0.87699 0.0
H1485 H 0.76623 0.93479 0.80459 0.0
H1486 H 0.71156 0.93574 0.91405 0.0
H1487 H 0.76843 0.89327 0.84167 0.0
H1488 H 0.75306 0.81903 0.90946 0.0
H1489 H 0.75014 0.85958 0.87131 0.0
H1490 H 0.73545 0.90124 0.94826 0.0
H1491 H 0.73735 0.8605 0.98658 0.0
C1492 C 0.72225 0.95873 0.8687 0.0
C1493 C 0.73727 0.95965 0.83717 0.0
C1494 C 0.72374 0.93486 0.89035 0.0
C1495 C 0.74038 0.91039 0.88175 0.0
C1496 C 0.75512 0.91122 0.84984 0.0
C1497 C 0.7538 0.93529 0.82818 0.0
C1498 C 0.74855 0.83681 0.91859 0.0
C1499 C 0.74467 0.83594 0.95181 0.0
C1500 C 0.74737 0.86039 0.89628 0.0
C1501 C 0.74227 0.88457 0.90592 0.0
C1502 C 0.73887 0.88361 0.93921 0.0
C1503 C 0.74019 0.85991 0.96151 0.0
H1504 H 0.1981 0.248 0.10723 0.0
H1505 H 0.14847 0.29572 0.04131 0.0
H1506 H 0.15876 0.24882 0.15008 0.0
H1507 H 0.10965 0.29529 0.08244 0.0
H1508 H 0.03615 0.30308 0.16002 0.0
H1509 H 0.07644 0.30433 0.12192 0.0
H1510 H 0.12128 0.24138 0.18379 0.0
H1511 H 0.07998 0.24102 0.22283 0.0
C1512 C 0.17892 0.25907 0.10167 0.0
C1513 C 0.17734 0.27245 0.07004 0.0
C1514 C 0.15579 0.25925 0.1266 0.0
C1515 C 0.12952 0.27238 0.12138 0.0
C1516 C 0.12842 0.28534 0.08943 0.0
C1517 C 0.15133 0.28546 0.06495 0.0
C1518 C 0.05455 0.28954 0.16595 0.0
C1519 C 0.05388 0.27224 0.19546 0.0
C1520 C 0.07837 0.28994 0.14332 0.0
C1521 C 0.10365 0.27254 0.14792 0.0
C1522 C 0.10308 0.25535 0.178 0.0
C1523 C 0.07896 0.25515 0.201 0.0
H1524 H 0.70758 0.47543 0.37712 0.0
H1525 H 0.76468 0.43386 0.30445 0.0
H1526 H 0.71053 0.43428 0.41424 0.0
H1527 H 0.76722 0.39221 0.34144 0.0
H1528 H 0.75071 0.31832 0.40865 0.0
H1529 H 0.7475 0.35896 0.37097 0.0
H1530 H 0.73609 0.39943 0.44787 0.0
H1531 H 0.73825 0.35843 0.4859 0.0
C1532 C 0.72059 0.45743 0.36873 0.0
C1533 C 0.73543 0.45849 0.33708 0.0
C1534 C 0.7225 0.43354 0.39041 0.0
C1535 C 0.73923 0.40918 0.38164 0.0
C1536 C 0.75383 0.41012 0.34966 0.0
C1537 C 0.75225 0.43424 0.32805 0.0
C1538 C 0.74673 0.33579 0.41799 0.0
C1539 C 0.74378 0.33447 0.45112 0.0
C1540 C 0.74546 0.35945 0.39589 0.0
C1541 C 0.74125 0.38332 0.40564 0.0
C1542 C 0.73881 0.38199 0.43881 0.0
C1543 C 0.74022 0.35817 0.46092 0.0
H1544 H 0.58671 0.99812 0.52684 0.0
H1545 H 0.52444 0.01363 0.61017 0.0
H1546 H 0.61698 1.00357 0.55316 0.0
H1547 H 0.55476 0.01971 0.63632 0.0
H1548 H 0.63147 0.9851 0.68086 0.0
H1549 H 0.59317 0.99246 0.65861 0.0
H1550 H 0.62702 0.03555 0.57176 0.0
H1551 H 0.6656 0.02726 0.59389 0.0
C1552 C 0.57948 1.00267 0.5508 0.0
C1553 C 0.55329 1.00503 0.56655 0.0
C1554 C 0.59673 1.00623 0.56574 0.0
C1555 C 0.58819 0.01239 0.59673 0.0
C1556 C 0.56196 0.01482 0.61252 0.0
C1557 C 0.54468 0.01111 0.5976 0.0
C1558 C 0.63013 0.99688 0.65748 0.0
C1559 C 0.65129 1.00544 0.63883 0.0
C1560 C 0.60827 1.00114 0.6447 0.0
C1561 C 0.60745 0.01396 0.61309 0.0
C1562 C 0.62746 0.02496 0.59585 0.0
C1563 C 0.64936 0.0205 0.60854 0.0
H1564 H 0.00211 0.98482 0.94645 0.0
H1565 H 0.03218 0.91825 1.01567 0.0
H1566 H 0.99795 0.95627 0.91599 0.0
H1567 H 0.0277 0.88936 0.98523 0.0
H1568 H 0.99539 0.84516 0.94191 0.0
H1569 H 0.99347 0.87815 0.97125 0.0
H1570 H 0.02391 0.92213 0.88309 0.0
H1571 H 0.02558 0.88911 0.85397 0.0
C1572 C 0.00842 0.96412 0.95499 0.0
C1573 C 0.01792 0.95412 0.98352 0.0
C1574 C 0.0058 0.94759 0.93746 0.0
C1575 C 0.01219 0.9204 0.94815 0.0
C1576 C 0.0221 0.91024 0.97642 0.0
C1577 C 0.02503 0.92681 0.99372 0.0
C1578 C 0.00055 0.86248 0.92869 0.0
C1579 C 0.01007 0.86482 0.89552 0.0
C1580 C 1e-05 0.88114 0.94557 0.0
C1581 C 0.0091 0.90261 0.92972 0.0
C1582 C 0.01672 0.90595 0.89619 0.0
C1583 C 0.01739 0.88718 0.87936 0.0
H1584 H 0.13623 0.10195 0.94034 0.0
H1585 H 0.07387 0.09771 0.02305 0.0
H1586 H 0.15891 0.11421 0.97059 0.0
H1587 H 0.09708 0.10922 0.05426 0.0
H1588 H 0.11076 0.19017 0.0487 0.0
H1589 H 0.09933 0.15159 0.05074 0.0
H1590 H 0.1805 0.11217 1.01055 0.0
H1591 H 0.19138 0.15176 1.0057 0.0
C1592 C 0.1278 0.10295 0.96536 0.0
C1593 C 0.10303 0.09971 0.9791 0.0
C1594 C 0.14102 0.10952 0.98306 0.0
C1595 C 0.12966 0.11315 1.01494 0.0
C1596 C 0.10618 0.107 0.02967 0.0
C1597 C 0.09291 0.10039 1.01183 0.0
C1598 C 0.12635 0.17299 0.04115 0.0
C1599 C 0.1515 0.17459 0.02508 0.0
C1600 C 0.11989 0.15057 0.04276 0.0
C1601 C 0.13875 0.1293 0.02894 0.0
C1602 C 0.16526 0.1288 0.01991 0.0
C1603 C 0.17157 0.15152 0.01741 0.0
H1604 H 0.66828 0.57066 0.32826 0.0
H1605 H 0.68155 0.584 0.22572 0.0
H1606 H 0.62837 0.60847 0.33002 0.0
H1607 H 0.64316 0.62299 0.22682 0.0
H1608 H 0.56083 0.6788 0.23435 0.0
H1609 H 0.59909 0.6401 0.23484 0.0
H1610 H 0.60722 0.65208 0.32412 0.0
H1611 H 0.56716 0.68921 0.32502 0.0
C1612 C 0.6627 0.58189 0.30605 0.0
C1613 C 0.67774 0.57406 0.27691 0.0
C1614 C 0.63987 0.60387 0.30692 0.0
C1615 C 0.63183 0.61917 0.27856 0.0
C1616 C 0.64767 0.61156 0.24938 0.0
C1617 C 0.66997 0.58916 0.24862 0.0
C1618 C 0.57053 0.67306 0.25436 0.0
C1619 C 0.56092 0.68777 0.27936 0.0
C1620 C 0.59301 0.65087 0.25441 0.0
C1621 C 0.60713 0.64269 0.27921 0.0
C1622 C 0.5972 0.65724 0.30452 0.0
C1623 C 0.5743 0.67914 0.30477 0.0
H1624 H 0.38432 0.81881 0.49355 0.0
H1625 H 0.30942 0.86643 0.54001 0.0
H1626 H 0.40285 0.85415 0.48586 0.0
H1627 H 0.32784 0.9018 0.53227 0.0
H1628 H 0.37443 0.95301 0.53595 0.0
H1629 H 0.35747 0.93293 0.50595 0.0
H1630 H 0.40569 0.85639 0.54314 0.0
H1631 H 0.42203 0.87631 0.57324 0.0
C1632 C 0.37135 0.8375 0.50012 0.0
C1633 C 0.34584 0.83971 0.51845 0.0
C1634 C 0.38197 0.8577 0.4958 0.0
C1635 C 0.36704 0.88011 0.50977 0.0
C1636 C 0.33988 0.88449 0.52173 0.0
C1637 C 0.32927 0.86422 0.52613 0.0
C1638 C 0.38139 0.9319 0.53742 0.0
C1639 C 0.3989 0.91602 0.55748 0.0
C1640 C 0.37196 0.92053 0.52005 0.0
C1641 C 0.38054 0.89321 0.52189 0.0
C1642 C 0.39912 0.87757 0.54073 0.0
C1643 C 0.40806 0.88885 0.55851 0.0
H1644 H 0.05988 0.68603 0.82482 0.0
H1645 H 0.06764 0.68749 0.72476 0.0
H1646 H 0.09826 0.64689 0.82635 0.0
H1647 H 0.10661 0.64892 0.72569 0.0
H1648 H 0.16333 0.56636 0.74026 0.0
H1649 H 0.1238 0.60424 0.74043 0.0
H1650 H 0.14339 0.62877 0.81363 0.0
H1651 H 0.1817 0.58995 0.81491 0.0
C1652 C 0.06998 0.67816 0.803 0.0
C1653 C 0.06058 0.69002 0.77468 0.0
C1654 C 0.09221 0.65561 0.80378 0.0
C1655 C 0.106 0.64429 0.77613 0.0
C1656 C 0.09649 0.65637 0.74776 0.0
C1657 C 0.07407 0.6787 0.74713 0.0
C1658 C 0.15912 0.57966 0.75667 0.0
C1659 C 0.17625 0.57497 0.77732 0.0
C1660 C 0.13644 0.60177 0.75649 0.0
C1661 C 0.13008 0.62017 0.77682 0.0
C1662 C 0.14709 0.61522 0.79775 0.0
C1663 C 0.16958 0.59295 0.79815 0.0
H1664 H 0.88101 0.33221 0.47717 0.0
H1665 H 0.80838 0.36795 0.53943 0.0
H1666 H 0.8973 0.36777 0.47649 0.0
H1667 H 0.82447 0.40353 0.53839 0.0
H1668 H 0.86845 0.45399 0.55002 0.0
H1669 H 0.84965 0.43851 0.517 0.0
H1670 H 0.90564 0.36126 0.5338 0.0
H1671 H 0.92381 0.37658 0.56696 0.0
C1672 C 0.8679 0.34852 0.48903 0.0
C1673 C 0.84402 0.34688 0.50951 0.0
C1674 C 0.87721 0.36886 0.48861 0.0
C1675 C 0.86252 0.38763 0.5085 0.0
C1676 C 0.83631 0.38902 0.52323 0.0
C1677 C 0.82706 0.36858 0.52381 0.0
C1678 C 0.87658 0.43373 0.54648 0.0
C1679 C 0.8969 0.41613 0.56166 0.0
C1680 C 0.86615 0.42506 0.52733 0.0
C1681 C 0.87647 0.39888 0.5225 0.0
C1682 C 0.89765 0.38171 0.53657 0.0
C1683 C 0.90766 0.39023 0.55614 0.0
H1684 H 0.33777 0.95812 0.28874 0.0
H1685 H 0.3116 0.92835 0.22655 0.0
H1686 H 0.3775 0.92025 0.2873 0.0
H1687 H 0.35011 0.89005 0.2264 0.0
H1688 H 0.43246 0.83155 0.21015 0.0
H1689 H 0.39452 0.87116 0.20911 0.0
H1690 H 0.3957 0.8762 0.30468 0.0
H1691 H 0.43415 0.8373 0.30497 0.0
C1692 C 0.34027 0.94351 0.27484 0.0
C1693 C 0.32096 0.94661 0.25786 0.0
C1694 C 0.36313 0.92146 0.27423 0.0
C1695 C 0.36744 0.90153 0.25684 0.0
C1696 C 0.34816 0.90483 0.23973 0.0
C1697 C 0.32555 0.92697 0.24008 0.0
C1698 C 0.4246 0.8411 0.23094 0.0
C1699 C 0.43654 0.83104 0.25761 0.0
C1700 C 0.4026 0.86393 0.23047 0.0
C1701 C 0.39155 0.87736 0.25686 0.0
C1702 C 0.40362 0.86712 0.28352 0.0
C1703 C 0.42578 0.84452 0.28379 0.0
H1704 H 0.33593 0.4566 0.79415 0.0
H1705 H 0.31313 0.4315 0.72446 0.0
H1706 H 0.37467 0.4175 0.79406 0.0
H1707 H 0.35127 0.39269 0.72442 0.0
H1708 H 0.40867 0.31211 0.75341 0.0
H1709 H 0.37039 0.35142 0.75351 0.0
H1710 H 0.41661 0.39535 0.76542 0.0
H1711 H 0.45465 0.35583 0.76607 0.0
C1712 C 0.33902 0.44285 0.77874 0.0
C1713 C 0.32071 0.44737 0.75967 0.0
C1714 C 0.36144 0.42032 0.77858 0.0
C1715 C 0.36632 0.40142 0.75944 0.0
C1716 C 0.34818 0.40621 0.7401 0.0
C1717 C 0.326 0.42876 0.74011 0.0
C1718 C 0.41088 0.33021 0.75546 0.0
C1719 C 0.43509 0.33059 0.75929 0.0
C1720 C 0.38875 0.35293 0.75565 0.0
C1721 C 0.39008 0.37697 0.7594 0.0
C1722 C 0.4144 0.37734 0.76299 0.0
C1723 C 0.43644 0.35456 0.76309 0.0
H1724 H 0.19804 0.72734 0.60671 0.0
H1725 H 0.15989 0.80204 0.55591 0.0
H1726 H 0.15822 0.73032 0.64822 0.0
H1727 H 0.12013 0.80606 0.59798 0.0
H1728 H 0.04047 0.79937 0.66183 0.0
H1729 H 0.08181 0.80017 0.62502 0.0
H1730 H 0.12424 0.73839 0.69015 0.0
H1731 H 0.08221 0.73728 0.72638 0.0
C1732 C 0.18141 0.74501 0.60475 0.0
C1733 C 0.18343 0.76487 0.57777 0.0
C1734 C 0.15795 0.74679 0.62904 0.0
C1735 C 0.13444 0.76844 0.62786 0.0
C1736 C 0.13675 0.78861 0.60094 0.0
C1737 C 0.16027 0.78668 0.57654 0.0
C1738 C 0.05863 0.78639 0.66895 0.0
C1739 C 0.05713 0.76918 0.69856 0.0
C1740 C 0.08298 0.78672 0.64728 0.0
C1741 C 0.10788 0.76935 0.6532 0.0
C1742 C 0.10638 0.75221 0.68325 0.0
C1743 C 0.08183 0.75188 0.70496 0.0
H1744 H 0.25906 0.93353 0.30212 0.0
H1745 H 0.21775 0.97539 0.38078 0.0
H1746 H 0.2612 0.8917 0.33911 0.0
H1747 H 0.22172 0.93404 0.41764 0.0
H1748 H 0.25853 0.85311 0.47959 0.0
H1749 H 0.25682 0.89378 0.441 0.0
H1750 H 0.23044 0.86496 0.37824 0.0
H1751 H 0.23084 0.82535 0.41714 0.0
C1752 C 0.25003 0.93405 0.32704 0.0
C1753 C 0.23744 0.9585 0.33771 0.0
C1754 C 0.25158 0.90985 0.34858 0.0
C1755 C 0.24176 0.90896 0.38196 0.0
C1756 C 0.22973 0.93339 0.39249 0.0
C1757 C 0.22732 0.95739 0.37098 0.0
C1758 C 0.25221 0.85526 0.4577 0.0
C1759 C 0.24506 0.83485 0.45219 0.0
C1760 C 0.25127 0.87886 0.43528 0.0
C1761 C 0.24366 0.88313 0.4058 0.0
C1762 C 0.23683 0.86271 0.4001 0.0
C1763 C 0.23718 0.83948 0.42283 0.0
H1764 H 0.02562 0.65835 0.59921 0.0
H1765 H 0.95138 0.65979 0.66366 0.0
H1766 H 0.02444 0.62254 0.57764 0.0
H1767 H 0.95019 0.62331 0.6425 0.0
H1768 H 0.93907 0.59265 0.55813 0.0
H1769 H 0.94218 0.61952 0.59245 0.0
H1770 H 0.02578 0.5788 0.5819 0.0
H1771 H 0.0224 0.55288 0.5473 0.0
C1772 C 0.00958 0.65015 0.60977 0.0
C1773 C 0.98875 0.66174 0.63342 0.0
C1774 C 0.00877 0.62961 0.59725 0.0
C1775 C 0.98697 0.62009 0.60786 0.0
C1776 C 0.96705 0.6304 0.63325 0.0
C1777 C 0.96794 0.65099 0.64587 0.0
C1778 C 0.95781 0.58869 0.56434 0.0
C1779 C 0.98011 0.56912 0.55184 0.0
C1780 C 0.95972 0.60425 0.58389 0.0
C1781 C 0.98421 0.60126 0.59056 0.0
C1782 C 0.00651 0.58175 0.57772 0.0
C1783 C 0.00449 0.56626 0.55841 0.0
H1784 H 0.30214 0.79403 0.42961 0.0
H1785 H 0.33782 0.71701 0.47748 0.0
H1786 H 0.34229 0.79063 0.38829 0.0
H1787 H 0.37771 0.71268 0.43555 0.0
H1788 H 0.45861 0.71859 0.37493 0.0
H1789 H 0.41679 0.71937 0.41155 0.0
H1790 H 0.37586 0.78061 0.34472 0.0
H1791 H 0.41842 0.78002 0.30828 0.0
C1792 C 0.31815 0.77574 0.43082 0.0
C1793 C 0.31532 0.75533 0.45691 0.0
C1794 C 0.34179 0.77376 0.40672 0.0
C1795 C 0.36467 0.75135 0.40727 0.0
C1796 C 0.36155 0.73068 0.43321 0.0
C1797 C 0.33789 0.73279 0.4574 0.0
C1798 C 0.44074 0.73212 0.36759 0.0
C1799 C 0.44282 0.74886 0.33765 0.0
C1800 C 0.41612 0.73255 0.38903 0.0
C1801 C 0.39151 0.75008 0.38241 0.0
C1802 C 0.39356 0.76677 0.35205 0.0
C1803 C 0.4184 0.76625 0.33043 0.0
H1804 H 0.22047 0.08278 0.21653 0.0
H1805 H 0.30205 0.05204 0.17241 0.0
H1806 H 0.21724 0.12416 0.17869 0.0
H1807 H 0.29946 0.09397 0.13613 0.0
H1808 H 0.28837 0.18474 0.09656 0.0
H1809 H 0.29108 0.14417 0.13553 0.0
H1810 H 0.2208 0.14069 0.11571 0.0
H1811 H 0.21852 0.18095 0.07589 0.0
C1812 C 0.238 0.08496 0.19945 0.0
C1813 C 0.26175 0.06374 0.19854 0.0
C1814 C 0.23609 0.10884 0.17732 0.0
C1815 C 0.25807 0.11301 0.15382 0.0
C1816 C 0.28199 0.09204 0.15362 0.0
C1817 C 0.28357 0.06783 0.17483 0.0
C1818 C 0.2734 0.17546 0.10032 0.0
C1819 C 0.2532 0.1867 0.08249 0.0
C1820 C 0.27504 0.15188 0.12284 0.0
C1821 C 0.25615 0.13863 0.12943 0.0
C1822 C 0.23573 0.15003 0.11189 0.0
C1823 C 0.23451 0.17325 0.08868 0.0
H1824 H 0.79846 0.7766 0.92731 0.0
H1825 H 0.84758 0.72694 0.99301 0.0
H1826 H 0.83802 0.77509 0.8845 0.0
H1827 H 0.8866 0.72663 0.95194 0.0
H1828 H 0.95982 0.71639 0.87392 0.0
H1829 H 0.91905 0.71586 0.91163 0.0
H1830 H 0.87617 0.78319 0.85256 0.0
H1831 H 0.91777 0.7828 0.81392 0.0
C1832 C 0.81755 0.765 0.93282 0.0
C1833 C 0.81897 0.75132 0.96435 0.0
C1834 C 0.84079 0.7644 0.90796 0.0
C1835 C 0.86692 0.75048 0.91323 0.0
C1836 C 0.86787 0.73716 0.94503 0.0
C1837 C 0.84488 0.73749 0.96942 0.0
C1838 C 0.94174 0.73105 0.86855 0.0
C1839 C 0.94296 0.74933 0.83992 0.0
C1840 C 0.91771 0.73106 0.89092 0.0
C1841 C 0.89289 0.74988 0.88691 0.0
C1842 C 0.89402 0.7681 0.85775 0.0
C1843 C 0.91831 0.7679 0.83504 0.0
H1844 H 0.22363 0.58679 0.72297 0.0
H1845 H 0.29813 0.54922 0.66581 0.0
H1846 H 0.22127 0.62822 0.6852 0.0
H1847 H 0.29655 0.59085 0.62923 0.0
H1848 H 0.29276 0.68161 0.59179 0.0
H1849 H 0.29481 0.64123 0.63134 0.0
H1850 H 0.21936 0.64381 0.61982 0.0
H1851 H 0.21788 0.68348 0.57918 0.0
C1852 C 0.23983 0.58734 0.70282 0.0
C1853 C 0.26129 0.56423 0.69809 0.0
C1854 C 0.2384 0.61125 0.68085 0.0
C1855 C 0.25873 0.61336 0.65369 0.0
C1856 C 0.28048 0.59044 0.64962 0.0
C1857 C 0.28143 0.56638 0.67085 0.0
C1858 C 0.27656 0.67364 0.59752 0.0
C1859 C 0.25519 0.68622 0.5817 0.0
C1860 C 0.27777 0.65027 0.62036 0.0
C1861 C 0.25722 0.63885 0.62937 0.0
C1862 C 0.2356 0.65174 0.614 0.0
C1863 C 0.23483 0.67458 0.59035 0.0
H1864 H 0.36704 0.02538 0.3564 0.0
H1865 H 0.32462 1.00244 0.45029 0.0
H1866 H 0.40499 0.01901 0.37838 0.0
H1867 H 0.36306 0.99435 0.47246 0.0
H1868 H 0.40952 0.03268 0.50527 0.0
H1869 H 0.37807 0.02502 0.48307 0.0
H1870 H 0.44013 0.99716 0.40394 0.0
H1871 H 0.47108 1.00687 0.42493 0.0
C1872 C 0.36641 0.01783 0.38157 0.0
C1873 C 0.34305 0.01482 0.40186 0.0
C1874 C 0.38813 0.01411 0.39428 0.0
C1875 C 0.38676 1.00709 0.42745 0.0
C1876 C 0.3644 1.00082 0.44702 0.0
C1877 C 0.34254 1.00505 0.43436 0.0
C1878 C 0.41639 0.02516 0.48298 0.0
C1879 C 0.44277 0.02049 0.46686 0.0
C1880 C 0.39846 0.02024 0.4705 0.0
C1881 C 0.40657 1.01006 0.44185 0.0
C1882 C 0.43307 1.00521 0.42586 0.0
C1883 C 0.45087 0.01075 0.43797 0.0
H1884 H 0.88691 0.8127 1.00288 0.0
H1885 H 0.8135 0.87374 0.02502 0.0
H1886 H 0.91104 0.84348 0.99518 0.0
H1887 H 0.83745 0.90452 0.0176 0.0
H1888 H 0.88778 0.94785 0.02998 0.0
H1889 H 0.87314 0.9276 0.9979 0.0
H1890 H 0.90606 0.85155 0.05182 0.0
H1891 H 0.9207 0.87168 0.08352 0.0
C1892 C 0.87587 0.8332 1.00362 0.0
C1893 C 0.84857 0.84081 1.01576 0.0
C1894 C 0.88969 0.85077 0.99952 0.0
C1895 C 0.87608 0.87587 1.00749 0.0
C1896 C 0.84844 0.88507 1.01196 0.0
C1897 C 0.83464 0.86746 1.01603 0.0
C1898 C 0.89201 0.92677 0.03469 0.0
C1899 C 0.90491 0.91127 0.05957 0.0
C1900 C 0.88389 0.91525 1.01615 0.0
C1901 C 0.88893 0.88803 0.02192 0.0
C1902 C 0.90252 0.87254 0.04622 0.0
C1903 C 0.91033 0.88406 0.06493 0.0
H1904 H 0.6214 0.1969 0.54923 0.0
H1905 H 0.68774 0.15193 0.48708 0.0
H1906 H 0.60198 0.1615 0.5633 0.0
H1907 H 0.66818 0.11693 0.50013 0.0
H1908 H 0.6224 0.06955 0.49772 0.0
H1909 H 0.644 0.08515 0.52716 0.0
H1910 H 0.58381 0.16081 0.51932 0.0
H1911 H 0.56279 0.14519 0.49025 0.0
C1912 C 0.63252 0.17877 0.54006 0.0
C1913 C 0.6556 0.17724 0.51647 0.0
C1914 C 0.6214 0.15854 0.54798 0.0
C1915 C 0.63294 0.13701 0.53168 0.0
C1916 C 0.65855 0.1334 0.51284 0.0
C1917 C 0.66983 0.15352 0.50523 0.0
C1918 C 0.61353 0.08921 0.50333 0.0
C1919 C 0.59154 0.10655 0.4911 0.0
C1920 C 0.62577 0.09809 0.52022 0.0
C1921 C 0.61588 0.1243 0.52524 0.0
C1922 C 0.59197 0.14046 0.51618 0.0
C1923 C 0.58006 0.13171 0.49907 0.0
H1924 H 0.8205 0.44187 0.30794 0.0
H1925 H 0.8258 0.44606 0.20781 0.0
H1926 H 0.85906 0.40307 0.30736 0.0
H1927 H 0.86555 0.40817 0.20634 0.0
H1928 H 0.92486 0.32667 0.21644 0.0
H1929 H 0.88553 0.36438 0.21723 0.0
H1930 H 0.90339 0.38513 0.29478 0.0
H1931 H 0.94129 0.34587 0.29579 0.0
C1932 C 0.83026 0.43474 0.28556 0.0
C1933 C 0.82008 0.44725 0.25788 0.0
C1934 C 0.85266 0.41241 0.2851 0.0
C1935 C 0.86614 0.40209 0.25672 0.0
C1936 C 0.85585 0.41485 0.22893 0.0
C1937 C 0.83303 0.43687 0.22961 0.0
C1938 C 0.92012 0.33878 0.23422 0.0
C1939 C 0.93614 0.33239 0.25662 0.0
C1940 C 0.8976 0.36104 0.23428 0.0
C1941 C 0.89058 0.37826 0.25627 0.0
C1942 C 0.90726 0.37231 0.27795 0.0
C1943 C 0.92946 0.34975 0.27826 0.0
H1944 H 0.13952 0.6036 0.42833 0.0
H1945 H 0.08474 0.59275 0.5175 0.0
H1946 H 0.16156 0.62071 0.4541 0.0
H1947 H 0.10838 0.6075 0.54403 0.0
H1948 H 0.11637 0.68856 0.54584 0.0
H1949 H 0.10752 0.6495 0.54377 0.0
H1950 H 0.18647 0.62024 0.48906 0.0
H1951 H 0.19437 0.6606 0.48855 0.0
C1952 C 0.13254 0.60429 0.45359 0.0
C1953 C 0.11003 0.59727 0.4705 0.0
C1954 C 0.14561 0.61354 0.46872 0.0
C1955 C 0.1367 0.61572 0.50131 0.0
C1956 C 0.11557 0.60651 0.51884 0.0
C1957 C 0.10215 0.59776 0.50356 0.0
C1958 C 0.13206 0.67352 0.53396 0.0
C1959 C 0.15535 0.67844 0.51558 0.0
C1960 C 0.12714 0.65079 0.53312 0.0
C1961 C 0.14579 0.63238 0.51449 0.0
C1962 C 0.17118 0.63477 0.50213 0.0
C1963 C 0.17584 0.65786 0.50222 0.0
H1964 H 0.6584 0.06126 0.74993 0.0
H1965 H 0.68885 0.09484 0.80345 0.0
H1966 H 0.61892 0.09966 0.75099 0.0
H1967 H 0.64982 0.13243 0.80528 0.0
H1968 H 0.58935 0.20961 0.77682 0.0
H1969 H 0.6279 0.17083 0.77568 0.0
H1970 H 0.57908 0.12362 0.78101 0.0
H1971 H 0.54055 0.16298 0.78127 0.0
C1972 C 0.65677 0.07667 0.7621 0.0
C1973 C 0.67729 0.07469 0.77649 0.0
C1974 C 0.63394 0.09875 0.76289 0.0
C1975 C 0.63092 0.11959 0.77806 0.0
C1976 C 0.65133 0.11732 0.79272 0.0
C1977 C 0.67397 0.09537 0.7919 0.0
C1978 C 0.58666 0.19089 0.77883 0.0
C1979 C 0.5616 0.18939 0.78042 0.0
C1980 C 0.60893 0.16847 0.77787 0.0
C1981 C 0.6069 0.14365 0.77865 0.0
C1982 C 0.58173 0.14222 0.78009 0.0
C1983 C 0.55948 0.1648 0.78065 0.0
H1984 H 0.79089 0.54628 0.15781 0.0
H1985 H 0.7317 0.5874 0.22945 0.0
H1986 H 0.78777 0.58746 0.1207 0.0
H1987 H 0.72873 0.62906 0.19238 0.0
H1988 H 0.74364 0.70394 0.12468 0.0
H1989 H 0.74707 0.66334 0.163 0.0
H1990 H 0.76257 0.62121 0.08627 0.0
H1991 H 0.75993 0.66201 0.04781 0.0
C1992 C 0.77733 0.56418 0.16595 0.0
C1993 C 0.76191 0.56297 0.19728 0.0
C1994 C 0.77531 0.5881 0.14428 0.0
C1995 C 0.75779 0.61234 0.15268 0.0
C1996 C 0.74269 0.61126 0.1844 0.0
C1997 C 0.74448 0.58713 0.20605 0.0
C1998 C 0.74832 0.68606 0.11567 0.0
C1999 C 0.75217 0.6868 0.08247 0.0
C2000 C 0.74986 0.66247 0.13804 0.0
C2001 C 0.75539 0.63817 0.12847 0.0
C2002 C 0.75878 0.63899 0.09523 0.0
C2003 C 0.75704 0.66269 0.07286 0.0
H2004 H 0.91021 0.5236 0.50801 0.0
H2005 H 0.97048 0.51758 0.4216 0.0
H2006 H 0.88084 0.5171 0.48128 0.0
H2007 H 0.94127 0.51015 0.39514 0.0
H2008 H 0.86348 0.54081 0.35395 0.0
H2009 H 0.90166 0.53498 0.37545 0.0
H2010 H 0.87312 0.48555 0.45966 0.0
H2011 H 0.83451 0.49233 0.43831 0.0
C2012 C 0.91722 0.5209 0.4833 0.0
C2013 C 0.94261 0.52139 0.46692 0.0
C2014 C 0.90052 0.51669 0.46809 0.0
C2015 C 0.90884 0.51271 0.43616 0.0
C2016 C 0.93423 0.51326 0.41969 0.0
C2017 C 0.9509 0.51769 0.43486 0.0
C2018 C 0.866 0.52798 0.37651 0.0
C2019 C 0.84624 0.51719 0.39474 0.0
C2020 C 0.88782 0.5246 0.38888 0.0
C2021 C 0.89 0.51042 0.41968 0.0
C2022 C 0.87157 0.49722 0.43626 0.0
C2023 C 0.84968 0.50079 0.42397 0.0
H2024 H 0.1326 0.48654 0.68174 0.0
H2025 H 0.16507 0.52722 0.59226 0.0
H2026 H 0.094 0.49211 0.66098 0.0
H2027 H 0.12624 0.53369 0.57165 0.0
H2028 H 0.08558 0.49443 0.53044 0.0
H2029 H 0.11638 0.50039 0.55548 0.0
H2030 H 0.05492 0.51813 0.63887 0.0
H2031 H 0.02405 0.51157 0.614 0.0
C2032 C 0.13086 0.4976 0.6581 0.0
C2033 C 0.15169 0.50619 0.63835 0.0
C2034 C 0.10883 0.5008 0.64616 0.0
C2035 C 0.10749 0.51263 0.61433 0.0
C2036 C 0.1271 0.52378 0.59593 0.0
C2037 C 0.14915 0.52036 0.60776 0.0
C2038 C 0.07863 0.4994 0.55421 0.0
C2039 C 0.05245 0.5022 0.57033 0.0
C2040 C 0.09619 0.50323 0.56841 0.0
C2041 C 0.08801 0.51011 0.59904 0.0
C2042 C 0.06185 0.51273 0.61533 0.0
C2043 C 0.04425 0.50876 0.60115 0.0
H2044 H 0.58069 0.73844 0.2219 0.0
H2045 H 0.53773 0.80407 0.16186 0.0
H2046 H 0.62205 0.73846 0.18279 0.0
H2047 H 0.57813 0.80504 0.1238 0.0
H2048 H 0.64932 0.79573 0.04203 0.0
H2049 H 0.61063 0.79574 0.08351 0.0
H2050 H 0.65994 0.74577 0.14955 0.0
H2051 H 0.69913 0.74473 0.10631 0.0
C2052 C 0.57989 0.75327 0.20069 0.0
C2053 C 0.55503 0.77145 0.19591 0.0
C2054 C 0.60404 0.7533 0.17767 0.0
C2055 C 0.60484 0.77141 0.14834 0.0
C2056 C 0.57982 0.7899 0.14455 0.0
C2057 C 0.55595 0.78966 0.16717 0.0
C2058 C 0.65225 0.78478 0.06539 0.0
C2059 C 0.67826 0.77072 0.06991 0.0
C2060 C 0.62943 0.78491 0.09008 0.0
C2061 C 0.63065 0.77107 0.12166 0.0
C2062 C 0.65691 0.75688 0.12634 0.0
C2063 C 0.67996 0.75653 0.1012 0.0
H2064 H 0.66513 0.52557 0.09205 0.0
H2065 H 0.62954 0.48883 0.1825 0.0
H2066 H 0.6267 0.53231 0.07047 0.0
H2067 H 0.59137 0.4946 0.16087 0.0
H2068 H 0.52347 0.51173 0.11162 0.0
H2069 H 0.55349 0.5196 0.13663 0.0
H2070 H 0.61676 0.49841 0.0559 0.0
H2071 H 0.58679 0.49125 0.03067 0.0
C2072 C 0.64859 0.51976 0.10755 0.0
C2073 C 0.65014 0.50652 0.13872 0.0
C2074 C 0.62677 0.52329 0.09517 0.0
C2075 C 0.60644 0.51314 0.11363 0.0
C2076 C 0.60676 0.5025 0.14596 0.0
C2077 C 0.62855 0.49919 0.15842 0.0
C2078 C 0.54389 0.50846 0.0994 0.0
C2079 C 0.55283 0.50064 0.06923 0.0
C2080 C 0.561 0.51319 0.11364 0.0
C2081 C 0.58742 0.51002 0.09808 0.0
C2082 C 0.59635 0.50178 0.06818 0.0
C2083 C 0.57927 0.49723 0.0539 0.0
H2084 H 0.41542 0.42387 0.01697 0.0
H2085 H 0.35717 0.41856 0.10424 0.0
H2086 H 0.39334 0.40658 0.99122 0.0
H2087 H 0.3366 0.39903 0.07953 0.0
H2088 H 0.30585 0.35545 0.0472 0.0
H2089 H 0.31377 0.39629 0.04426 0.0
H2090 H 0.39422 0.36401 0.99523 0.0
H2091 H 0.3855 0.3243 0.99553 0.0
C2092 C 0.3976 0.41952 0.0306 0.0
C2093 C 0.38831 0.42225 0.063 0.0
C2094 C 0.38507 0.40931 1.0158 0.0
C2095 C 0.3634 0.40091 0.03327 0.0
C2096 C 0.35305 0.40544 0.06497 0.0
C2097 C 0.36525 0.41611 0.07955 0.0
C2098 C 0.32481 0.35752 0.03428 0.0
C2099 C 0.34558 0.33607 0.02316 0.0
C2100 C 0.32946 0.38091 0.03297 0.0
C2101 C 0.35509 0.38284 0.02146 0.0
C2102 C 0.37436 0.36317 1.00514 0.0
C2103 C 0.3695 0.34008 1.00571 0.0
H2104 H 0.0726 0.19413 0.31915 0.0
H2105 H 0.05421 0.17441 0.24163 0.0
H2106 H 0.1119 0.15666 0.31763 0.0
H2107 H 0.09171 0.13493 0.24254 0.0
H2108 H 0.1738 0.07694 0.22812 0.0
H2109 H 0.13498 0.11533 0.22927 0.0
H2110 H 0.13353 0.11405 0.32806 0.0
H2111 H 0.17362 0.07678 0.32567 0.0
C2112 C 0.07691 0.182 0.30156 0.0
C2113 C 0.06046 0.18836 0.27969 0.0
C2114 C 0.09942 0.15972 0.30118 0.0
C2115 C 0.10584 0.14222 0.27968 0.0
C2116 C 0.0885 0.14796 0.25885 0.0
C2117 C 0.06646 0.17068 0.25863 0.0
C2118 C 0.16516 0.08491 0.25009 0.0
C2119 C 0.17704 0.07378 0.27673 0.0
C2120 C 0.14252 0.10701 0.25094 0.0
C2121 C 0.13037 0.11839 0.27884 0.0
C2122 C 0.14217 0.10675 0.30572 0.0
C2123 C 0.16527 0.08504 0.30453 0.0
H2124 H 0.25685 0.3179 0.91059 0.0
H2125 H 0.2336 0.36121 0.9877 0.0
H2126 H 0.25369 0.35834 0.872 0.0
H2127 H 0.23157 0.40175 0.94921 0.0
H2128 H 0.20765 0.47645 0.87708 0.0
H2129 H 0.20977 0.43534 0.91384 0.0
H2130 H 0.26909 0.39341 0.84258 0.0
H2131 H 0.26657 0.43502 0.80556 0.0
C2132 C 0.25053 0.33607 0.91957 0.0
C2133 C 0.24459 0.33572 0.95291 0.0
C2134 C 0.24923 0.35962 0.89707 0.0
C2135 C 0.24197 0.3843 0.9066 0.0
C2136 C 0.23662 0.3838 0.94006 0.0
C2137 C 0.23803 0.36018 0.96254 0.0
C2138 C 0.22105 0.45848 0.86894 0.0
C2139 C 0.23669 0.45965 0.83774 0.0
C2140 C 0.22253 0.43454 0.89047 0.0
C2141 C 0.23991 0.41016 0.88224 0.0
C2142 C 0.25522 0.41122 0.85057 0.0
C2143 C 0.25377 0.43538 0.82893 0.0
H2144 H 0.33307 0.21847 0.96867 0.0
H2145 H 0.30357 0.30109 0.93644 0.0
H2146 H 0.37205 0.2154 0.9254 0.0
H2147 H 0.34302 0.29883 0.89465 0.0
H2148 H 0.4153 0.29296 0.81228 0.0
H2149 H 0.37337 0.29259 0.8486 0.0
H2150 H 0.4131 0.21917 0.90151 0.0
H2151 H 0.45481 0.22012 0.86498 0.0
C2152 C 0.33401 0.23592 0.95155 0.0
C2153 C 0.31323 0.25971 0.9556 0.0
C2154 C 0.35733 0.23441 0.92678 0.0
C2155 C 0.362 0.25682 0.90498 0.0
C2156 C 0.34113 0.28061 0.90935 0.0
C2157 C 0.31783 0.28196 0.93381 0.0
C2158 C 0.41508 0.27604 0.83064 0.0
C2159 C 0.43913 0.25562 0.8333 0.0
C2160 C 0.3906 0.27605 0.85257 0.0
C2161 C 0.38842 0.2558 0.87932 0.0
C2162 C 0.41255 0.23519 0.88168 0.0
C2163 C 0.43702 0.23544 0.85991 0.0
H2164 H 0.47372 0.51395 0.91906 0.0
H2165 H 0.41061 0.53777 0.99906 0.0
H2166 H 0.44174 0.51218 0.89155 0.0
H2167 H 0.37888 0.53649 0.97103 0.0
H2168 H 0.33469 0.55819 0.88354 0.0
H2169 H 0.37267 0.5626 0.89756 0.0
H2170 H 0.39971 0.47917 0.92977 0.0
H2171 H 0.36147 0.47484 0.91644 0.0
C2172 C 0.45301 0.51944 0.93044 0.0
C2173 C 0.44463 0.52615 0.96123 0.0
C2174 C 0.43485 0.51829 0.91471 0.0
C2175 C 0.40806 0.52438 0.92926 0.0
C2176 C 0.39953 0.53195 0.95941 0.0
C2177 C 0.41766 0.53267 0.97537 0.0
C2178 C 0.34931 0.54076 0.89254 0.0
C2179 C 0.34549 0.51617 0.89878 0.0
C2180 C 0.37085 0.54328 0.9006 0.0
C2181 C 0.38891 0.52119 0.9145 0.0
C2182 C 0.38608 0.49636 0.9187 0.0
C2183 C 0.36435 0.49389 0.91108 0.0
H2184 H 0.68882 0.65213 1.00399 0.0
H2185 H 0.61213 0.69988 0.04615 0.0
H2186 H 0.67102 0.61684 1.00931 0.0
H2187 H 0.59417 0.66458 0.05126 0.0
H2188 H 0.58094 0.64404 0.95881 0.0
H2189 H 0.59543 0.6633 0.9917 0.0
H2190 H 0.64074 0.58616 0.03138 0.0
H2191 H 0.62581 0.56677 0.99843 0.0
C2192 C 0.66862 0.65437 1.01657 0.0
C2193 C 0.65146 0.67897 0.02332 0.0
C2194 C 0.65835 0.63413 0.01955 0.0
C2195 C 0.63101 0.63866 0.02923 0.0
C2196 C 0.61524 0.66099 0.04299 0.0
C2197 C 0.62554 0.68114 0.04017 0.0
C2198 C 0.59402 0.63125 0.97451 0.0
C2199 C 0.60285 0.60409 0.97559 0.0
C2200 C 0.6018 0.64215 0.99391 0.0
C2201 C 0.6188 0.62609 1.01453 0.0
C2202 C 0.62734 0.59884 1.01601 0.0
C2203 C 0.61914 0.58787 0.99692 0.0
H2204 H 0.94123 0.84033 0.70518 0.0
H2205 H 0.92519 0.82899 0.80785 0.0
H2206 H 0.90279 0.87983 0.70464 0.0
H2207 H 0.88606 0.86712 0.80775 0.0
H2208 H 0.83056 0.95002 0.80119 0.0
H2209 H 0.86974 0.91177 0.79968 0.0
H2210 H 0.85772 0.89924 0.71294 0.0
H2211 H 0.81966 0.93854 0.71354 0.0
C2212 C 0.92936 0.84617 0.72765 0.0
C2213 C 0.93661 0.8317 0.7565 0.0
C2214 C 0.90707 0.8688 0.72746 0.0
C2215 C 0.89102 0.8773 0.75618 0.0
C2216 C 0.89807 0.86214 0.78499 0.0
C2217 C 0.92059 0.83999 0.78511 0.0
C2218 C 0.83641 0.93929 0.78159 0.0
C2219 C 0.82151 0.94741 0.7577 0.0
C2220 C 0.85885 0.91693 0.7809 0.0
C2221 C 0.8672 0.90173 0.75636 0.0
C2222 C 0.85241 0.91019 0.73221 0.0
C2223 C 0.83009 0.93268 0.73281 0.0
H2224 H 0.52379 0.16177 0.59922 0.0
H2225 H 0.45466 0.15142 0.66749 0.0
H2226 H 0.52475 0.12754 0.57257 0.0
H2227 H 0.45553 0.11697 0.64116 0.0
H2228 H 0.44208 0.09248 0.5544 0.0
H2229 H 0.44529 0.11821 0.58993 0.0
H2230 H 0.52979 0.08209 0.57251 0.0
H2231 H 0.52619 0.0564 0.53742 0.0
C2232 C 0.50949 0.15131 0.60939 0.0
C2233 C 0.48947 0.15892 0.6359 0.0
C2234 C 0.50985 0.13179 0.59394 0.0
C2235 C 0.48994 0.11962 0.60432 0.0
C2236 C 0.47092 0.12615 0.63209 0.0
C2237 C 0.47067 0.14557 0.6476 0.0
C2238 C 0.4611 0.08906 0.55946 0.0
C2239 C 0.48356 0.07066 0.54515 0.0
C2240 C 0.46308 0.10408 0.57957 0.0
C2241 C 0.48778 0.10195 0.58488 0.0
C2242 C 0.51037 0.08413 0.56957 0.0
C2243 C 0.50827 0.06891 0.54989 0.0
H2244 H 0.47057 0.36628 0.93189 0.0
H2245 H 0.54969 0.35614 0.87701 0.0
H2246 H 0.47265 0.4019 0.95318 0.0
H2247 H 0.55192 0.39221 0.89809 0.0
H2248 H 0.55688 0.42548 0.98456 0.0
H2249 H 0.55514 0.39727 0.95083 0.0
H2250 H 0.47521 0.44538 0.94513 0.0
H2251 H 0.47709 0.47283 0.97894 0.0
C2252 C 0.48805 0.37247 0.92334 0.0
C2253 C 0.50979 0.35865 0.90234 0.0
C2254 C 0.48936 0.39285 0.93571 0.0
C2255 C 0.51261 0.39992 0.92774 0.0
C2256 C 0.53384 0.38711 0.90519 0.0
C2257 C 0.53243 0.36675 0.89262 0.0
C2258 C 0.53934 0.43052 0.97511 0.0
C2259 C 0.51769 0.45246 0.98296 0.0
C2260 C 0.53825 0.4143 0.95581 0.0
C2261 C 0.51509 0.41905 0.94479 0.0
C2262 C 0.49346 0.44102 0.95282 0.0
C2263 C 0.49472 0.45728 0.97172 0.0
H2264 H 0.49302 0.84454 0.4419 0.0
H2265 H 0.53382 0.88211 0.35649 0.0
H2266 H 0.49071 0.87783 0.47102 0.0
H2267 H 0.53173 0.91546 0.38541 0.0
H2268 H 0.5088 0.98065 0.44525 0.0
H2269 H 0.50564 0.95198 0.41419 0.0
H2270 H 0.52329 0.88699 0.49059 0.0
H2271 H 0.52668 0.91605 0.5216 0.0
C2272 C 0.50052 0.86058 0.42903 0.0
C2273 C 0.51306 0.86101 0.39669 0.0
C2274 C 0.49973 0.87939 0.44587 0.0
C2275 C 0.51153 0.89915 0.43086 0.0
C2276 C 0.52238 0.90065 0.39788 0.0
C2277 C 0.52333 0.8817 0.38111 0.0
C2278 C 0.51251 0.96035 0.45537 0.0
C2279 C 0.51833 0.95104 0.48601 0.0
C2280 C 0.51055 0.94371 0.43745 0.0
C2281 C 0.51391 0.91704 0.4498 0.0
C2282 C 0.5201 0.90748 0.48032 0.0
C2283 C 0.52241 0.92415 0.49801 0.0
H2284 H 0.52428 0.55216 0.0458 0.0
H2285 H 0.44085 0.59101 0.05532 0.0
H2286 H 0.52657 0.57887 0.0806 0.0
H2287 H 0.44273 0.61771 0.09066 0.0
H2288 H 0.44906 0.65283 0.16871 0.0
H2289 H 0.4505 0.61769 0.14318 0.0
H2290 H 0.5224 0.62495 0.07823 0.0
H2291 H 0.52087 0.65996 0.1041 0.0
C2292 C 0.50614 0.56553 0.05658 0.0
C2293 C 0.48201 0.56795 0.04958 0.0
C2294 C 0.50753 0.58133 0.07608 0.0
C2295 C 0.48477 0.6003 0.08913 0.0
C2296 C 0.4606 0.60284 0.08194 0.0
C2297 C 0.45937 0.58728 0.06192 0.0
C2298 C 0.46573 0.64615 0.14982 0.0
C2299 C 0.48515 0.65881 0.13895 0.0
C2300 C 0.46633 0.62631 0.13476 0.0
C2301 C 0.48633 0.61861 0.10821 0.0
C2302 C 0.50675 0.63012 0.09868 0.0
C2303 C 0.50606 0.65007 0.11371 0.0
loop_
_geom_bond_atom_site_label_1
_geom_bond_atom_site_label_2
_geom_bond_distance
_geom_bond_site_symmetry_2
_ccdc_geom_bond_type
Tb0 N31 2.660 1_565 S
Tb0 N38 2.600 . S
Tb0 O44 2.546 . S
Tb0 O45 2.610 1_654 S
Tb0 O47 2.320 1_564 S
Tb0 O48 2.552 1_554 S
Tb0 O49 2.413 . S
Tb0 O51 2.362 1_565 S
Tb0 O52 2.421 1_655 S
Tb0 C64 2.833 . S
C1 C4 1.432 1_545 S
C1 C5 1.414 . S
C1 N8 1.359 . S
C2 C4 1.417 . S
C2 C6 1.432 . S
C2 C14 1.410 . S
C3 C5 1.444 1_565 S
C3 C6 1.317 . S
C3 H26 0.929 . S
C4 C1 1.432 1_565 S
C4 C2 1.417 . S
C4 N12 1.360 . S
C5 C1 1.414 . S
C5 C3 1.444 1_545 S
C5 C10 1.385 . S
C6 C2 1.432 . S
C6 C3 1.317 . S
C6 H18 0.930 . S
C7 C9 1.392 . S
C7 C10 1.370 . S
C7 H19 0.928 . S
N8 C1 1.359 . S
N8 C9 1.327 . S
N8 Tb11 2.600 . S
C9 C7 1.392 . S
C9 N8 1.327 . S
C9 H16 0.930 1_455 S
C10 C5 1.385 . S
C10 C7 1.370 . S
C10 H29 0.930 . S
Tb11 N8 2.600 . S
Tb11 N12 2.660 1_545 S
Tb11 O45 2.362 1_545 S
Tb11 O46 2.421 1_455 S
Tb11 O50 2.546 . S
Tb11 O51 2.610 1_456 S
Tb11 O53 2.320 1_546 S
Tb11 O54 2.552 1_556 S
Tb11 O55 2.413 . S
Tb11 C75 2.833 . S
N12 C4 1.360 . S
N12 Tb11 2.660 1_565 S
N12 C13 1.305 . S
C13 N12 1.305 . S
C13 C15 1.407 . S
C13 H20 0.930 . S
C14 C2 1.410 . S
C14 C15 1.345 . S
C14 H22 0.930 . S
C15 C13 1.407 . S
C15 C14 1.345 . S
C15 H17 0.930 . S
H16 C9 0.930 1_655 S
H17 C15 0.930 . S
H18 C6 0.930 . S
H19 C7 0.928 . S
H20 C13 0.930 . S
H21 C35 0.930 . S
H22 C14 0.930 . S
H23 C41 0.930 1_455 S
H24 C32 0.930 . S
H25 C39 0.915 1_455 S
H26 C3 0.929 . S
H27 C33 0.930 . S
H28 C66 0.930 . S
H29 C10 0.930 . S
H30 C65 0.929 . S
N31 Tb0 2.660 1_545 S
N31 C32 1.305 . S
N31 C36 1.360 . S
C32 H24 0.930 . S
C32 N31 1.305 . S
C32 C35 1.407 . S
C33 H27 0.930 . S
C33 C34 1.410 . S
C33 C35 1.345 . S
C34 C33 1.410 . S
C34 C36 1.417 . S
C34 C66 1.432 . S
C35 H21 0.930 . S
C35 C32 1.407 . S
C35 C33 1.345 . S
C36 N31 1.360 . S
C36 C34 1.417 . S
C36 C40 1.432 1_545 S
H37 C42 0.930 . S
N38 Tb0 2.600 . S
N38 C40 1.359 . S
N38 C41 1.327 . S
C39 H25 0.915 1_655 S
C39 C41 1.392 . S
C39 C42 1.370 . S
C40 C36 1.432 1_565 S
C40 N38 1.359 . S
C40 C43 1.414 . S
C41 H23 0.930 1_655 S
C41 N38 1.327 . S
C41 C39 1.392 . S
C42 H37 0.930 . S
C42 C39 1.370 . S
C42 C43 1.385 . S
C43 C40 1.414 . S
C43 C42 1.385 . S
C43 C65 1.444 1_565 S
O44 Tb0 2.546 . S
O44 C64 1.251 . S
O45 Tb0 2.610 1_456 S
O45 Tb11 2.362 1_565 S
O45 C56 1.283 . S
O46 Tb11 2.421 1_655 S
O46 C63 1.262 . S
O47 Tb0 2.320 1_546 S
O47 C63 1.260 . S
O48 Tb0 2.552 1_556 S
O48 C56 1.243 1_655 S
O49 Tb0 2.413 . S
O49 C64 1.256 . S
O50 Tb11 2.546 . S
O50 C75 1.251 . S
O51 Tb0 2.362 1_545 S
O51 Tb11 2.610 1_654 S
O51 C67 1.283 . S
O52 Tb0 2.421 1_455 S
O52 C74 1.262 . S
O53 Tb11 2.320 1_564 S
O53 C74 1.260 . S
O54 Tb11 2.552 1_554 S
O54 C67 1.243 1_455 S
O55 Tb11 2.413 . S
O55 C75 1.256 . S
C56 O45 1.283 . S
C56 O48 1.243 1_455 S
C57 C59 1.382 . S
C57 C61 1.393 . S
C57 C64 1.500 . S
C58 C59 1.400 . S
C58 C60 1.384 . S
C59 C57 1.382 . S
C59 C58 1.400 . S
C59 H76 0.930 . S
C60 C58 1.384 . S
C60 C62 1.392 . S
C60 H77 0.931 . S
C61 C57 1.393 . S
C61 C62 1.401 . S
C61 H78 0.930 . S
C62 C60 1.392 . S
C62 C61 1.401 . S
C62 H79 0.930 . S
C63 O46 1.262 . S
C63 O47 1.260 . S
C64 Tb0 2.833 . S
C64 O44 1.251 . S
C64 O49 1.256 . S
C64 C57 1.500 . S
C65 H30 0.929 . S
C65 C43 1.444 1_545 S
C65 C66 1.317 . S
C66 H28 0.930 . S
C66 C34 1.432 . S
C66 C65 1.317 . S
C67 O51 1.283 . S
C67 O54 1.243 1_655 S
C68 C69 1.382 . S
C68 C72 1.393 . S
C68 C75 1.500 . S
C69 C68 1.382 . S
C69 C70 1.400 . S
C69 H80 0.930 . S
C70 C69 1.400 . S
C70 C71 1.384 . S
C71 C70 1.384 . S
C71 C73 1.392 . S
C71 H81 0.931 . S
C72 C68 1.393 . S
C72 C73 1.401 . S
C72 H82 0.930 . S
C73 C71 1.392 . S
C73 C72 1.401 . S
C73 H83 0.930 . S
C74 O52 1.262 . S
C74 O53 1.260 . S
C75 Tb11 2.833 . S
C75 O50 1.251 . S
C75 O55 1.256 . S
C75 C68 1.500 . S
H76 C59 0.930 . S
H77 C60 0.931 . S
H78 C61 0.930 . S
H79 C62 0.930 . S
H80 C69 0.930 . S
H81 C71 0.931 . S
H82 C72 0.930 . S
H83 C73 0.930 . S
Tb84 N115 2.660 . S
Tb84 N122 2.600 . S
Tb84 O128 2.546 . S
Tb84 O129 2.610 1_455 S
Tb84 O131 2.320 1_455 S
Tb84 O132 2.552 1_455 S
Tb84 O133 2.413 . S
Tb84 O135 2.362 . S
Tb84 O136 2.421 . S
Tb84 C148 2.833 . S
C85 C88 1.432 . S
C85 C89 1.414 . S
C85 N92 1.359 . S
C86 C88 1.417 . S
C86 C90 1.432 . S
C86 C98 1.410 . S
C87 C89 1.444 . S
C87 C90 1.317 . S
C87 H110 0.929 . S
C88 C85 1.432 . S
C88 C86 1.417 . S
C88 N96 1.360 . S
C89 C85 1.414 . S
C89 C87 1.444 . S
C89 C94 1.385 . S
C90 C86 1.432 . S
C90 C87 1.317 . S
C90 H102 0.930 . S
C91 C93 1.392 . S
C91 C94 1.370 . S
C91 H103 0.931 . S
N92 C85 1.359 . S
N92 C93 1.327 . S
N92 Tb95 2.600 . S
C93 C91 1.392 . S
C93 N92 1.327 . S
C93 H100 0.930 . S
C94 C89 1.385 . S
C94 C91 1.370 . S
C94 H113 0.930 . S
Tb95 N92 2.600 . S
Tb95 N96 2.660 . S
Tb95 O129 2.362 . S
Tb95 O130 2.421 . S
Tb95 O134 2.546 . S
Tb95 O135 2.610 1_655 S
Tb95 O137 2.320 1_655 S
Tb95 O138 2.552 1_655 S
Tb95 O139 2.413 . S
Tb95 C159 2.833 . S
N96 C88 1.360 . S
N96 Tb95 2.660 . S
N96 C97 1.305 . S
C97 N96 1.305 . S
C97 C99 1.407 . S
C97 H104 0.930 . S
C98 C86 1.410 . S
C98 C99 1.345 . S
C98 H106 0.930 . S
C99 C97 1.407 . S
C99 C98 1.345 . S
C99 H101 0.930 . S
H100 C93 0.930 . S
H101 C99 0.930 . S
H102 C90 0.930 . S
H103 C91 0.931 . S
H104 C97 0.930 . S
H105 C119 0.930 . S
H106 C98 0.930 . S
H107 C125 0.930 . S
H108 C116 0.930 . S
H109 C123 0.931 . S
H110 C87 0.929 . S
H111 C117 0.930 . S
H112 C150 0.930 . S
H113 C94 0.930 . S
H114 C149 0.929 . S
N115 Tb84 2.660 . S
N115 C116 1.305 . S
N115 C120 1.360 . S
C116 H108 0.930 . S
C116 N115 1.305 . S
C116 C119 1.407 . S
C117 H111 0.930 . S
C117 C118 1.410 . S
C117 C119 1.345 . S
C118 C117 1.410 . S
C118 C120 1.417 . S
C118 C150 1.432 . S
C119 H105 0.930 . S
C119 C116 1.407 . S
C119 C117 1.345 . S
C120 N115 1.360 . S
C120 C118 1.417 . S
C120 C124 1.432 . S
H121 C126 0.930 . S
N122 Tb84 2.600 . S
N122 C124 1.359 . S
N122 C125 1.327 . S
C123 H109 0.931 . S
C123 C125 1.392 . S
C123 C126 1.370 . S
C124 C120 1.432 . S
C124 N122 1.359 . S
C124 C127 1.414 . S
C125 H107 0.930 . S
C125 N122 1.327 . S
C125 C123 1.392 . S
C126 H121 0.930 . S
C126 C123 1.370 . S
C126 C127 1.385 . S
C127 C124 1.414 . S
C127 C126 1.385 . S
C127 C149 1.444 . S
O128 Tb84 2.546 . S
O128 C148 1.251 . S
O129 Tb84 2.610 1_655 S
O129 Tb95 2.362 . S
O129 C140 1.283 . S
O130 Tb95 2.421 . S
O130 C147 1.262 . S
O131 Tb84 2.320 1_655 S
O131 C147 1.260 . S
O132 Tb84 2.552 1_655 S
O132 C140 1.243 . S
O133 Tb84 2.413 . S
O133 C148 1.256 . S
O134 Tb95 2.546 . S
O134 C159 1.251 . S
O135 Tb84 2.362 . S
O135 Tb95 2.610 1_455 S
O135 C151 1.283 . S
O136 Tb84 2.421 . S
O136 C158 1.262 . S
O137 Tb95 2.320 1_455 S
O137 C158 1.260 . S
O138 Tb95 2.552 1_455 S
O138 C151 1.243 . S
O139 Tb95 2.413 . S
O139 C159 1.256 . S
C140 O129 1.283 . S
C140 O132 1.243 . S
C141 C143 1.382 1_455 S
C141 C145 1.393 . S
C141 C148 1.500 . S
C142 C143 1.400 . S
C142 C144 1.384 1_655 S
C143 C141 1.382 1_655 S
C143 C142 1.400 . S
C143 H160 0.930 . S
C144 C142 1.384 1_455 S
C144 C146 1.392 . S
C144 H161 0.931 . S
C145 C141 1.393 . S
C145 C146 1.401 . S
C145 H162 0.930 . S
C146 C144 1.392 . S
C146 C145 1.401 . S
C146 H163 0.930 . S
C147 O130 1.262 . S
C147 O131 1.260 . S
C148 Tb84 2.833 . S
C148 O128 1.251 . S
C148 O133 1.256 . S
C148 C141 1.500 . S
C149 H114 0.929 . S
C149 C127 1.444 . S
C149 C150 1.317 . S
C150 H112 0.930 . S
C150 C118 1.432 . S
C150 C149 1.317 . S
C151 O135 1.283 . S
C151 O138 1.243 . S
C152 C153 1.382 1_655 S
C152 C156 1.393 . S
C152 C159 1.500 . S
C153 C152 1.382 1_455 S
C153 C154 1.400 . S
C153 H164 0.930 . S
C154 C153 1.400 . S
C154 C155 1.384 1_455 S
C155 C154 1.384 1_655 S
C155 C157 1.392 . S
C155 H165 0.931 . S
C156 C152 1.393 . S
C156 C157 1.401 . S
C156 H166 0.930 . S
C157 C155 1.392 . S
C157 C156 1.401 . S
C157 H167 0.930 . S
C158 O136 1.262 . S
C158 O137 1.260 . S
C159 Tb95 2.833 . S
C159 O134 1.251 . S
C159 O139 1.256 . S
C159 C152 1.500 . S
H160 C143 0.930 . S
H161 C144 0.931 . S
H162 C145 0.930 . S
H163 C146 0.930 . S
H164 C153 0.930 . S
H165 C155 0.931 . S
H166 C156 0.930 . S
H167 C157 0.930 . S
Tb168 N199 2.660 . S
Tb168 N206 2.600 . S
Tb168 O212 2.546 . S
Tb168 O213 2.610 . S
Tb168 O215 2.320 . S
Tb168 O216 2.552 . S
Tb168 O217 2.413 . S
Tb168 O219 2.362 . S
Tb168 O220 2.421 . S
Tb168 C232 2.833 . S
C169 C172 1.432 . S
C169 C173 1.414 . S
C169 N176 1.359 . S
C170 C172 1.417 . S
C170 C174 1.432 . S
C170 C182 1.410 . S
C171 C173 1.444 . S
C171 C174 1.317 . S
C171 H194 0.929 . S
C172 C169 1.432 . S
C172 C170 1.417 . S
C172 N180 1.360 . S
C173 C169 1.414 . S
C173 C171 1.444 . S
C173 C178 1.385 . S
C174 C170 1.432 . S
C174 C171 1.317 . S
C174 H186 0.930 . S
C175 C177 1.392 . S
C175 C178 1.370 . S
C175 H187 0.931 . S
N176 C169 1.359 . S
N176 C177 1.327 . S
N176 Tb179 2.600 . S
C177 C175 1.392 . S
C177 N176 1.327 . S
C177 H184 0.930 . S
C178 C173 1.385 . S
C178 C175 1.370 . S
C178 H197 0.930 . S
Tb179 N176 2.600 . S
Tb179 N180 2.660 . S
Tb179 O213 2.362 . S
Tb179 O214 2.421 . S
Tb179 O218 2.546 . S
Tb179 O219 2.610 . S
Tb179 O221 2.320 . S
Tb179 O222 2.552 . S
Tb179 O223 2.413 . S
Tb179 C243 2.833 . S
N180 C172 1.360 . S
N180 Tb179 2.660 . S
N180 C181 1.305 . S
C181 N180 1.305 . S
C181 C183 1.407 . S
C181 H188 0.930 . S
C182 C170 1.410 . S
C182 C183 1.345 . S
C182 H190 0.930 . S
C183 C181 1.407 . S
C183 C182 1.345 . S
C183 H185 0.930 . S
H184 C177 0.930 . S
H185 C183 0.930 . S
H186 C174 0.930 . S
H187 C175 0.931 . S
H188 C181 0.930 . S
H189 C203 0.930 . S
H190 C182 0.930 . S
H191 C209 0.930 . S
H192 C200 0.930 . S
H193 C207 0.931 . S
H194 C171 0.929 . S
H195 C201 0.930 . S
H196 C234 0.930 . S
H197 C178 0.930 . S
H198 C233 0.929 . S
N199 Tb168 2.660 . S
N199 C200 1.305 . S
N199 C204 1.360 . S
C200 H192 0.930 . S
C200 N199 1.305 . S
C200 C203 1.407 . S
C201 H195 0.930 . S
C201 C202 1.410 . S
C201 C203 1.345 . S
C202 C201 1.410 . S
C202 C204 1.417 . S
C202 C234 1.432 . S
C203 H189 0.930 . S
C203 C200 1.407 . S
C203 C201 1.345 . S
C204 N199 1.360 . S
C204 C202 1.417 . S
C204 C208 1.432 . S
H205 C210 0.930 . S
N206 Tb168 2.600 . S
N206 C208 1.359 . S
N206 C209 1.327 . S
C207 H193 0.931 . S
C207 C209 1.392 . S
C207 C210 1.370 . S
C208 C204 1.432 . S
C208 N206 1.359 . S
C208 C211 1.414 . S
C209 H191 0.930 . S
C209 N206 1.327 . S
C209 C207 1.392 . S
C210 H205 0.930 . S
C210 C207 1.370 . S
C210 C211 1.385 . S
C211 C208 1.414 . S
C211 C210 1.385 . S
C211 C233 1.444 . S
O212 Tb168 2.546 . S
O212 C232 1.251 . S
O213 Tb168 2.610 . S
O213 Tb179 2.362 . S
O213 C224 1.283 . S
O214 Tb179 2.421 . S
O214 C231 1.262 . S
O215 Tb168 2.320 . S
O215 C231 1.260 . S
O216 Tb168 2.552 . S
O216 C224 1.243 . S
O217 Tb168 2.413 . S
O217 C232 1.256 . S
O218 Tb179 2.546 . S
O218 C243 1.251 . S
O219 Tb168 2.362 . S
O219 Tb179 2.610 . S
O219 C235 1.283 . S
O220 Tb168 2.421 . S
O220 C242 1.262 . S
O221 Tb179 2.320 . S
O221 C242 1.260 . S
O222 Tb179 2.552 . S
O222 C235 1.243 . S
O223 Tb179 2.413 . S
O223 C243 1.256 . S
C224 O213 1.283 . S
C224 O216 1.243 . S
C225 C227 1.382 . S
C225 C229 1.393 . S
C225 C232 1.500 . S
C226 C227 1.400 . S
C226 C228 1.384 . S
C227 C225 1.382 . S
C227 C226 1.400 . S
C227 H244 0.930 . S
C228 C226 1.384 . S
C228 C230 1.392 . S
C228 H245 0.931 . S
C229 C225 1.393 . S
C229 C230 1.401 . S
C229 H246 0.930 . S
C230 C228 1.392 . S
C230 C229 1.401 . S
C230 H247 0.930 . S
C231 O214 1.262 . S
C231 O215 1.260 . S
C232 Tb168 2.833 . S
C232 O212 1.251 . S
C232 O217 1.256 . S
C232 C225 1.500 . S
C233 H198 0.929 . S
C233 C211 1.444 . S
C233 C234 1.317 . S
C234 H196 0.930 . S
C234 C202 1.432 . S
C234 C233 1.317 . S
C235 O219 1.283 . S
C235 O222 1.243 . S
C236 C237 1.382 . S
C236 C240 1.393 . S
C236 C243 1.500 . S
C237 C236 1.382 . S
C237 C238 1.400 . S
C237 H248 0.930 . S
C238 C237 1.400 . S
C238 C239 1.384 . S
C239 C238 1.384 . S
C239 C241 1.392 . S
C239 H249 0.931 . S
C240 C236 1.393 . S
C240 C241 1.401 . S
C240 H250 0.930 . S
C241 C239 1.392 . S
C241 C240 1.401 . S
C241 H251 0.930 . S
C242 O220 1.262 . S
C242 O221 1.260 . S
C243 Tb179 2.833 . S
C243 O218 1.251 . S
C243 O223 1.256 . S
C243 C236 1.500 . S
H244 C227 0.930 . S
H245 C228 0.931 . S
H246 C229 0.930 . S
H247 C230 0.930 . S
H248 C237 0.930 . S
H249 C239 0.931 . S
H250 C240 0.930 . S
H251 C241 0.930 . S
Tb252 N283 2.660 . S
Tb252 N290 2.600 . S
Tb252 O296 2.546 . S
Tb252 O297 2.610 1_565 S
Tb252 O299 2.320 1_565 S
Tb252 O300 2.552 1_565 S
Tb252 O301 2.413 . S
Tb252 O303 2.362 . S
Tb252 O304 2.421 . S
Tb252 C316 2.833 . S
C253 C256 1.432 . S
C253 C257 1.414 . S
C253 N260 1.359 . S
C254 C256 1.417 . S
C254 C258 1.432 . S
C254 C266 1.410 . S
C255 C257 1.444 . S
C255 C258 1.317 . S
C255 H278 0.929 . S
C256 C253 1.432 . S
C256 C254 1.417 . S
C256 N264 1.360 . S
C257 C253 1.414 . S
C257 C255 1.444 . S
C257 C262 1.385 . S
C258 C254 1.432 . S
C258 C255 1.317 . S
C258 H270 0.930 . S
C259 C261 1.392 . S
C259 C262 1.370 . S
C259 H271 0.931 . S
N260 C253 1.359 . S
N260 C261 1.327 . S
N260 Tb263 2.600 . S
C261 C259 1.392 . S
C261 N260 1.327 . S
C261 H268 0.930 . S
C262 C257 1.385 . S
C262 C259 1.370 . S
C262 H281 0.930 . S
Tb263 N260 2.600 . S
Tb263 N264 2.660 . S
Tb263 O297 2.362 . S
Tb263 O298 2.421 . S
Tb263 O302 2.546 . S
Tb263 O303 2.610 1_545 S
Tb263 O305 2.320 1_545 S
Tb263 O306 2.552 1_545 S
Tb263 O307 2.413 . S
Tb263 C327 2.833 . S
N264 C256 1.360 . S
N264 Tb263 2.660 . S
N264 C265 1.305 . S
C265 N264 1.305 . S
C265 C267 1.407 . S
C265 H272 0.930 . S
C266 C254 1.410 . S
C266 C267 1.345 . S
C266 H274 0.930 . S
C267 C265 1.407 . S
C267 C266 1.345 . S
C267 H269 0.930 . S
H268 C261 0.930 . S
H269 C267 0.930 . S
H270 C258 0.930 . S
H271 C259 0.931 . S
H272 C265 0.930 . S
H273 C287 0.930 . S
H274 C266 0.930 . S
H275 C293 0.930 . S
H276 C284 0.930 . S
H277 C291 0.931 . S
H278 C255 0.929 . S
H279 C285 0.930 . S
H280 C318 0.930 . S
H281 C262 0.930 . S
H282 C317 0.929 . S
N283 Tb252 2.660 . S
N283 C284 1.305 . S
N283 C288 1.360 . S
C284 H276 0.930 . S
C284 N283 1.305 . S
C284 C287 1.407 . S
C285 H279 0.930 . S
C285 C286 1.410 . S
C285 C287 1.345 . S
C286 C285 1.410 . S
C286 C288 1.417 . S
C286 C318 1.432 . S
C287 H273 0.930 . S
C287 C284 1.407 . S
C287 C285 1.345 . S
C288 N283 1.360 . S
C288 C286 1.417 . S
C288 C292 1.432 . S
H289 C294 0.930 . S
N290 Tb252 2.600 . S
N290 C292 1.359 . S
N290 C293 1.327 . S
C291 H277 0.931 . S
C291 C293 1.392 . S
C291 C294 1.370 . S
C292 C288 1.432 . S
C292 N290 1.359 . S
C292 C295 1.414 . S
C293 H275 0.930 . S
C293 N290 1.327 . S
C293 C291 1.392 . S
C294 H289 0.930 . S
C294 C291 1.370 . S
C294 C295 1.385 . S
C295 C292 1.414 . S
C295 C294 1.385 . S
C295 C317 1.444 . S
O296 Tb252 2.546 . S
O296 C316 1.251 . S
O297 Tb252 2.610 1_545 S
O297 Tb263 2.362 . S
O297 C308 1.283 . S
O298 Tb263 2.421 . S
O298 C315 1.262 . S
O299 Tb252 2.320 1_545 S
O299 C315 1.260 . S
O300 Tb252 2.552 1_545 S
O300 C308 1.243 . S
O301 Tb252 2.413 . S
O301 C316 1.256 . S
O302 Tb263 2.546 . S
O302 C327 1.251 . S
O303 Tb252 2.362 . S
O303 Tb263 2.610 1_565 S
O303 C319 1.283 . S
O304 Tb252 2.421 . S
O304 C326 1.262 . S
O305 Tb263 2.320 1_565 S
O305 C326 1.260 . S
O306 Tb263 2.552 1_565 S
O306 C319 1.243 . S
O307 Tb263 2.413 . S
O307 C327 1.256 . S
C308 O297 1.283 . S
C308 O300 1.243 . S
C309 C311 1.382 1_565 S
C309 C313 1.393 . S
C309 C316 1.500 . S
C310 C311 1.400 . S
C310 C312 1.384 1_545 S
C311 C309 1.382 1_545 S
C311 C310 1.400 . S
C311 H328 0.930 . S
C312 C310 1.384 1_565 S
C312 C314 1.392 . S
C312 H329 0.931 . S
C313 C309 1.393 . S
C313 C314 1.401 . S
C313 H330 0.930 . S
C314 C312 1.392 . S
C314 C313 1.401 . S
C314 H331 0.930 . S
C315 O298 1.262 . S
C315 O299 1.260 . S
C316 Tb252 2.833 . S
C316 O296 1.251 . S
C316 O301 1.256 . S
C316 C309 1.500 . S
C317 H282 0.929 . S
C317 C295 1.444 . S
C317 C318 1.317 . S
C318 H280 0.930 . S
C318 C286 1.432 . S
C318 C317 1.317 . S
C319 O303 1.283 . S
C319 O306 1.243 . S
C320 C321 1.382 1_545 S
C320 C324 1.393 . S
C320 C327 1.500 . S
C321 C320 1.382 1_565 S
C321 C322 1.400 . S
C321 H332 0.930 . S
C322 C321 1.400 . S
C322 C323 1.384 1_565 S
C323 C322 1.384 1_545 S
C323 C325 1.392 . S
C323 H333 0.931 . S
C324 C320 1.393 . S
C324 C325 1.401 . S
C324 H334 0.930 . S
C325 C323 1.392 . S
C325 C324 1.401 . S
C325 H335 0.930 . S
C326 O304 1.262 . S
C326 O305 1.260 . S
C327 Tb263 2.833 . S
C327 O302 1.251 . S
C327 O307 1.256 . S
C327 C320 1.500 . S
H328 C311 0.930 . S
H329 C312 0.931 . S
H330 C313 0.930 . S
H331 C314 0.930 . S
H332 C321 0.930 . S
H333 C323 0.931 . S
H334 C324 0.930 . S
H335 C325 0.930 . S
Tb336 N367 2.660 . S
Tb336 N374 2.600 . S
Tb336 O380 2.546 . S
Tb336 O381 2.610 . S
Tb336 O383 2.320 . S
Tb336 O384 2.552 . S
Tb336 O385 2.413 . S
Tb336 O387 2.362 . S
Tb336 O388 2.421 . S
Tb336 C400 2.833 . S
C337 C340 1.432 . S
C337 C341 1.414 . S
C337 N344 1.359 . S
C338 C340 1.417 . S
C338 C342 1.432 . S
C338 C350 1.410 . S
C339 C341 1.444 . S
C339 C342 1.317 . S
C339 H362 0.929 . S
C340 C337 1.432 . S
C340 C338 1.417 . S
C340 N348 1.360 . S
C341 C337 1.414 . S
C341 C339 1.444 . S
C341 C346 1.385 . S
C342 C338 1.432 . S
C342 C339 1.317 . S
C342 H354 0.930 . S
C343 C345 1.392 . S
C343 C346 1.370 . S
C343 H355 0.931 . S
N344 C337 1.359 . S
N344 C345 1.327 . S
N344 Tb347 2.600 . S
C345 C343 1.392 . S
C345 N344 1.327 . S
C345 H352 0.930 . S
C346 C341 1.385 . S
C346 C343 1.370 . S
C346 H365 0.930 . S
Tb347 N344 2.600 . S
Tb347 N348 2.660 . S
Tb347 O381 2.362 . S
Tb347 O382 2.421 . S
Tb347 O386 2.546 . S
Tb347 O387 2.610 . S
Tb347 O389 2.320 . S
Tb347 O390 2.552 . S
Tb347 O391 2.413 . S
Tb347 C411 2.833 . S
N348 C340 1.360 . S
N348 Tb347 2.660 . S
N348 C349 1.305 . S
C349 N348 1.305 . S
C349 C351 1.407 . S
C349 H356 0.930 . S
C350 C338 1.410 . S
C350 C351 1.345 . S
C350 H358 0.930 . S
C351 C349 1.407 . S
C351 C350 1.345 . S
C351 H353 0.930 . S
H352 C345 0.930 . S
H353 C351 0.930 . S
H354 C342 0.930 . S
H355 C343 0.931 . S
H356 C349 0.930 . S
H357 C371 0.930 . S
H358 C350 0.930 . S
H359 C377 0.930 . S
H360 C368 0.930 . S
H361 C375 0.931 . S
H362 C339 0.929 . S
H363 C369 0.930 . S
H364 C402 0.930 . S
H365 C346 0.930 . S
H366 C401 0.929 . S
N367 Tb336 2.660 . S
N367 C368 1.305 . S
N367 C372 1.360 . S
C368 H360 0.930 . S
C368 N367 1.305 . S
C368 C371 1.407 . S
C369 H363 0.930 . S
C369 C370 1.410 . S
C369 C371 1.345 . S
C370 C369 1.410 . S
C370 C372 1.417 . S
C370 C402 1.432 . S
C371 H357 0.930 . S
C371 C368 1.407 . S
C371 C369 1.345 . S
C372 N367 1.360 . S
C372 C370 1.417 . S
C372 C376 1.432 . S
H373 C378 0.930 . S
N374 Tb336 2.600 . S
N374 C376 1.359 . S
N374 C377 1.327 . S
C375 H361 0.931 . S
C375 C377 1.392 . S
C375 C378 1.370 . S
C376 C372 1.432 . S
C376 N374 1.359 . S
C376 C379 1.414 . S
C377 H359 0.930 . S
C377 N374 1.327 . S
C377 C375 1.392 . S
C378 H373 0.930 . S
C378 C375 1.370 . S
C378 C379 1.385 . S
C379 C376 1.414 . S
C379 C378 1.385 . S
C379 C401 1.444 . S
O380 Tb336 2.546 . S
O380 C400 1.251 . S
O381 Tb336 2.610 . S
O381 Tb347 2.362 . S
O381 C392 1.283 . S
O382 Tb347 2.421 . S
O382 C399 1.262 . S
O383 Tb336 2.320 . S
O383 C399 1.260 . S
O384 Tb336 2.552 . S
O384 C392 1.243 . S
O385 Tb336 2.413 . S
O385 C400 1.256 . S
O386 Tb347 2.546 . S
O386 C411 1.251 . S
O387 Tb336 2.362 . S
O387 Tb347 2.610 . S
O387 C403 1.283 . S
O388 Tb336 2.421 . S
O388 C410 1.262 . S
O389 Tb347 2.320 . S
O389 C410 1.260 . S
O390 Tb347 2.552 . S
O390 C403 1.243 . S
O391 Tb347 2.413 . S
O391 C411 1.256 . S
C392 O381 1.283 . S
C392 O384 1.243 . S
C393 C395 1.382 . S
C393 C397 1.393 . S
C393 C400 1.500 . S
C394 C395 1.400 . S
C394 C396 1.384 . S
C395 C393 1.382 . S
C395 C394 1.400 . S
C395 H412 0.930 . S
C396 C394 1.384 . S
C396 C398 1.392 . S
C396 H413 0.931 . S
C397 C393 1.393 . S
C397 C398 1.401 . S
C397 H414 0.930 . S
C398 C396 1.392 . S
C398 C397 1.401 . S
C398 H415 0.930 . S
C399 O382 1.262 . S
C399 O383 1.260 . S
C400 Tb336 2.833 . S
C400 O380 1.251 . S
C400 O385 1.256 . S
C400 C393 1.500 . S
C401 H366 0.929 . S
C401 C379 1.444 . S
C401 C402 1.317 . S
C402 H364 0.930 . S
C402 C370 1.432 . S
C402 C401 1.317 . S
C403 O387 1.283 . S
C403 O390 1.243 . S
C404 C405 1.382 . S
C404 C408 1.393 . S
C404 C411 1.500 . S
C405 C404 1.382 . S
C405 C406 1.400 . S
C405 H416 0.930 . S
C406 C405 1.400 . S
C406 C407 1.384 . S
C407 C406 1.384 . S
C407 C409 1.392 . S
C407 H417 0.931 . S
C408 C404 1.393 . S
C408 C409 1.401 . S
C408 H418 0.930 . S
C409 C407 1.392 . S
C409 C408 1.401 . S
C409 H419 0.930 . S
C410 O388 1.262 . S
C410 O389 1.260 . S
C411 Tb347 2.833 . S
C411 O386 1.251 . S
C411 O391 1.256 . S
C411 C404 1.500 . S
H412 C395 0.930 . S
H413 C396 0.931 . S
H414 C397 0.930 . S
H415 C398 0.930 . S
H416 C405 0.930 . S
H417 C407 0.931 . S
H418 C408 0.930 . S
H419 C409 0.930 . S
Tb420 N451 2.660 . S
Tb420 N458 2.600 . S
Tb420 O464 2.546 . S
Tb420 O465 2.610 . S
Tb420 O467 2.320 . S
Tb420 O468 2.552 . S
Tb420 O469 2.413 . S
Tb420 O471 2.362 . S
Tb420 O472 2.421 . S
Tb420 C484 2.833 . S
C421 C424 1.432 . S
C421 C425 1.414 . S
C421 N428 1.359 . S
C422 C424 1.417 . S
C422 C426 1.432 . S
C422 C434 1.410 . S
C423 C425 1.444 . S
C423 C426 1.317 . S
C423 H446 0.929 . S
C424 C421 1.432 . S
C424 C422 1.417 . S
C424 N432 1.360 . S
C425 C421 1.414 . S
C425 C423 1.444 . S
C425 C430 1.385 . S
C426 C422 1.432 . S
C426 C423 1.317 . S
C426 H438 0.930 . S
C427 C429 1.392 . S
C427 C430 1.370 . S
C427 H439 0.931 . S
N428 C421 1.359 . S
N428 C429 1.327 . S
N428 Tb431 2.600 . S
C429 C427 1.392 . S
C429 N428 1.327 . S
C429 H436 0.930 . S
C430 C425 1.385 . S
C430 C427 1.370 . S
C430 H449 0.930 . S
Tb431 N428 2.600 . S
Tb431 N432 2.660 . S
Tb431 O465 2.362 . S
Tb431 O466 2.421 . S
Tb431 O470 2.546 . S
Tb431 O471 2.610 . S
Tb431 O473 2.320 . S
Tb431 O474 2.552 . S
Tb431 O475 2.413 . S
Tb431 C495 2.833 . S
N432 C424 1.360 . S
N432 Tb431 2.660 . S
N432 C433 1.305 . S
C433 N432 1.305 . S
C433 C435 1.407 . S
C433 H440 0.930 . S
C434 C422 1.410 . S
C434 C435 1.345 . S
C434 H442 0.930 . S
C435 C433 1.407 . S
C435 C434 1.345 . S
C435 H437 0.930 . S
H436 C429 0.930 . S
H437 C435 0.930 . S
H438 C426 0.930 . S
H439 C427 0.931 . S
H440 C433 0.930 . S
H441 C455 0.930 . S
H442 C434 0.930 . S
H443 C461 0.930 . S
H444 C452 0.930 . S
H445 C459 0.931 . S
H446 C423 0.929 . S
H447 C453 0.930 . S
H448 C486 0.930 . S
H449 C430 0.930 . S
H450 C485 0.929 . S
N451 Tb420 2.660 . S
N451 C452 1.305 . S
N451 C456 1.360 . S
C452 H444 0.930 . S
C452 N451 1.305 . S
C452 C455 1.407 . S
C453 H447 0.930 . S
C453 C454 1.410 . S
C453 C455 1.345 . S
C454 C453 1.410 . S
C454 C456 1.417 . S
C454 C486 1.432 . S
C455 H441 0.930 . S
C455 C452 1.407 . S
C455 C453 1.345 . S
C456 N451 1.360 . S
C456 C454 1.417 . S
C456 C460 1.432 . S
H457 C462 0.930 . S
N458 Tb420 2.600 . S
N458 C460 1.359 . S
N458 C461 1.327 . S
C459 H445 0.931 . S
C459 C461 1.392 . S
C459 C462 1.370 . S
C460 C456 1.432 . S
C460 N458 1.359 . S
C460 C463 1.414 . S
C461 H443 0.930 . S
C461 N458 1.327 . S
C461 C459 1.392 . S
C462 H457 0.930 . S
C462 C459 1.370 . S
C462 C463 1.385 . S
C463 C460 1.414 . S
C463 C462 1.385 . S
C463 C485 1.444 . S
O464 Tb420 2.546 . S
O464 C484 1.251 . S
O465 Tb420 2.610 . S
O465 Tb431 2.362 . S
O465 C476 1.283 . S
O466 Tb431 2.421 . S
O466 C483 1.262 . S
O467 Tb420 2.320 . S
O467 C483 1.260 . S
O468 Tb420 2.552 . S
O468 C476 1.243 . S
O469 Tb420 2.413 . S
O469 C484 1.256 . S
O470 Tb431 2.546 . S
O470 C495 1.251 . S
O471 Tb420 2.362 . S
O471 Tb431 2.610 . S
O471 C487 1.283 . S
O472 Tb420 2.421 . S
O472 C494 1.262 . S
O473 Tb431 2.320 . S
O473 C494 1.260 . S
O474 Tb431 2.552 . S
O474 C487 1.243 . S
O475 Tb431 2.413 . S
O475 C495 1.256 . S
C476 O465 1.283 . S
C476 O468 1.243 . S
C477 C479 1.382 . S
C477 C481 1.393 . S
C477 C484 1.500 . S
C478 C479 1.400 . S
C478 C480 1.384 . S
C479 C477 1.382 . S
C479 C478 1.400 . S
C479 H496 0.930 . S
C480 C478 1.384 . S
C480 C482 1.392 . S
C480 H497 0.931 . S
C481 C477 1.393 . S
C481 C482 1.401 . S
C481 H498 0.930 . S
C482 C480 1.392 . S
C482 C481 1.401 . S
C482 H499 0.930 . S
C483 O466 1.262 . S
C483 O467 1.260 . S
C484 Tb420 2.833 . S
C484 O464 1.251 . S
C484 O469 1.256 . S
C484 C477 1.500 . S
C485 H450 0.929 . S
C485 C463 1.444 . S
C485 C486 1.317 . S
C486 H448 0.930 . S
C486 C454 1.432 . S
C486 C485 1.317 . S
C487 O471 1.283 . S
C487 O474 1.243 . S
C488 C489 1.382 . S
C488 C492 1.393 . S
C488 C495 1.500 . S
C489 C488 1.382 . S
C489 C490 1.400 . S
C489 H500 0.930 . S
C490 C489 1.400 . S
C490 C491 1.384 . S
C491 C490 1.384 . S
C491 C493 1.392 . S
C491 H501 0.931 . S
C492 C488 1.393 . S
C492 C493 1.401 . S
C492 H502 0.930 . S
C493 C491 1.392 . S
C493 C492 1.401 . S
C493 H503 0.930 . S
C494 O472 1.262 . S
C494 O473 1.260 . S
C495 Tb431 2.833 . S
C495 O470 1.251 . S
C495 O475 1.256 . S
C495 C488 1.500 . S
H496 C479 0.930 . S
H497 C480 0.931 . S
H498 C481 0.930 . S
H499 C482 0.930 . S
H500 C489 0.930 . S
H501 C491 0.931 . S
H502 C492 0.930 . S
H503 C493 0.930 . S
Tb504 N535 2.660 . S
Tb504 N542 2.600 . S
Tb504 O548 2.546 . S
Tb504 O549 2.610 . S
Tb504 O551 2.320 . S
Tb504 O552 2.552 . S
Tb504 O553 2.413 . S
Tb504 O555 2.362 . S
Tb504 O556 2.421 . S
Tb504 C568 2.833 . S
C505 C508 1.432 . S
C505 C509 1.414 . S
C505 N512 1.359 . S
C506 C508 1.417 . S
C506 C510 1.432 . S
C506 C518 1.410 . S
C507 C509 1.444 . S
C507 C510 1.317 . S
C507 H530 0.929 . S
C508 C505 1.432 . S
C508 C506 1.417 . S
C508 N516 1.360 . S
C509 C505 1.414 . S
C509 C507 1.444 . S
C509 C514 1.385 . S
C510 C506 1.432 . S
C510 C507 1.317 . S
C510 H522 0.930 . S
C511 C513 1.392 . S
C511 C514 1.370 . S
C511 H523 0.931 . S
N512 C505 1.359 . S
N512 C513 1.327 . S
N512 Tb515 2.600 . S
C513 C511 1.392 . S
C513 N512 1.327 . S
C513 H520 0.930 . S
C514 C509 1.385 . S
C514 C511 1.370 . S
C514 H533 0.930 . S
Tb515 N512 2.600 . S
Tb515 N516 2.660 . S
Tb515 O549 2.362 . S
Tb515 O550 2.421 . S
Tb515 O554 2.546 . S
Tb515 O555 2.610 . S
Tb515 O557 2.320 . S
Tb515 O558 2.552 . S
Tb515 O559 2.413 . S
Tb515 C579 2.833 . S
N516 C508 1.360 . S
N516 Tb515 2.660 . S
N516 C517 1.305 . S
C517 N516 1.305 . S
C517 C519 1.407 . S
C517 H524 0.930 . S
C518 C506 1.410 . S
C518 C519 1.345 . S
C518 H526 0.930 . S
C519 C517 1.407 . S
C519 C518 1.345 . S
C519 H521 0.930 . S
H520 C513 0.930 . S
H521 C519 0.930 . S
H522 C510 0.930 . S
H523 C511 0.931 . S
H524 C517 0.930 . S
H525 C539 0.930 . S
H526 C518 0.930 . S
H527 C545 0.930 . S
H528 C536 0.930 . S
H529 C543 0.931 . S
H530 C507 0.929 . S
H531 C537 0.930 . S
H532 C570 0.930 . S
H533 C514 0.930 . S
H534 C569 0.929 . S
N535 Tb504 2.660 . S
N535 C536 1.305 . S
N535 C540 1.360 . S
C536 H528 0.930 . S
C536 N535 1.305 . S
C536 C539 1.407 . S
C537 H531 0.930 . S
C537 C538 1.410 . S
C537 C539 1.345 . S
C538 C537 1.410 . S
C538 C540 1.417 . S
C538 C570 1.432 . S
C539 H525 0.930 . S
C539 C536 1.407 . S
C539 C537 1.345 . S
C540 N535 1.360 . S
C540 C538 1.417 . S
C540 C544 1.432 . S
H541 C546 0.930 . S
N542 Tb504 2.600 . S
N542 C544 1.359 . S
N542 C545 1.327 . S
C543 H529 0.931 . S
C543 C545 1.392 . S
C543 C546 1.370 . S
C544 C540 1.432 . S
C544 N542 1.359 . S
C544 C547 1.414 . S
C545 H527 0.930 . S
C545 N542 1.327 . S
C545 C543 1.392 . S
C546 H541 0.930 . S
C546 C543 1.370 . S
C546 C547 1.385 . S
C547 C544 1.414 . S
C547 C546 1.385 . S
C547 C569 1.444 . S
O548 Tb504 2.546 . S
O548 C568 1.251 . S
O549 Tb504 2.610 . S
O549 Tb515 2.362 . S
O549 C560 1.283 . S
O550 Tb515 2.421 . S
O550 C567 1.262 . S
O551 Tb504 2.320 . S
O551 C567 1.260 . S
O552 Tb504 2.552 . S
O552 C560 1.243 . S
O553 Tb504 2.413 . S
O553 C568 1.256 . S
O554 Tb515 2.546 . S
O554 C579 1.251 . S
O555 Tb504 2.362 . S
O555 Tb515 2.610 . S
O555 C571 1.283 . S
O556 Tb504 2.421 . S
O556 C578 1.262 . S
O557 Tb515 2.320 . S
O557 C578 1.260 . S
O558 Tb515 2.552 . S
O558 C571 1.243 . S
O559 Tb515 2.413 . S
O559 C579 1.256 . S
C560 O549 1.283 . S
C560 O552 1.243 . S
C561 C563 1.382 . S
C561 C565 1.393 . S
C561 C568 1.500 . S
C562 C563 1.400 . S
C562 C564 1.384 . S
C563 C561 1.382 . S
C563 C562 1.400 . S
C563 H580 0.930 . S
C564 C562 1.384 . S
C564 C566 1.392 . S
C564 H581 0.931 . S
C565 C561 1.393 . S
C565 C566 1.401 . S
C565 H582 0.930 . S
C566 C564 1.392 . S
C566 C565 1.401 . S
C566 H583 0.930 . S
C567 O550 1.262 . S
C567 O551 1.260 . S
C568 Tb504 2.833 . S
C568 O548 1.251 . S
C568 O553 1.256 . S
C568 C561 1.500 . S
C569 H534 0.929 . S
C569 C547 1.444 . S
C569 C570 1.317 . S
C570 H532 0.930 . S
C570 C538 1.432 . S
C570 C569 1.317 . S
C571 O555 1.283 . S
C571 O558 1.243 . S
C572 C573 1.382 . S
C572 C576 1.393 . S
C572 C579 1.500 . S
C573 C572 1.382 . S
C573 C574 1.400 . S
C573 H584 0.930 . S
C574 C573 1.400 . S
C574 C575 1.384 . S
C575 C574 1.384 . S
C575 C577 1.392 . S
C575 H585 0.931 . S
C576 C572 1.393 . S
C576 C577 1.401 . S
C576 H586 0.930 . S
C577 C575 1.392 . S
C577 C576 1.401 . S
C577 H587 0.930 . S
C578 O556 1.262 . S
C578 O557 1.260 . S
C579 Tb515 2.833 . S
C579 O554 1.251 . S
C579 O559 1.256 . S
C579 C572 1.500 . S
H580 C563 0.930 . S
H581 C564 0.931 . S
H582 C565 0.930 . S
H583 C566 0.930 . S
H584 C573 0.930 . S
H585 C575 0.931 . S
H586 C576 0.930 . S
H587 C577 0.930 . S
Tb588 N619 2.660 . S
Tb588 N626 2.600 . S
Tb588 O632 2.546 . S
Tb588 O633 2.610 1_655 S
Tb588 O635 2.320 . S
Tb588 O636 2.552 . S
Tb588 O637 2.413 . S
Tb588 O639 2.362 . S
Tb588 O640 2.421 1_655 S
Tb588 C652 2.833 . S
C589 C592 1.432 . S
C589 C593 1.414 . S
C589 N596 1.359 . S
C590 C592 1.417 . S
C590 C594 1.432 . S
C590 C602 1.410 . S
C591 C593 1.444 . S
C591 C594 1.317 . S
C591 H614 0.929 . S
C592 C589 1.432 . S
C592 C590 1.417 . S
C592 N600 1.360 . S
C593 C589 1.414 . S
C593 C591 1.444 . S
C593 C598 1.385 . S
C594 C590 1.432 . S
C594 C591 1.317 . S
C594 H606 0.930 . S
C595 C597 1.392 . S
C595 C598 1.370 . S
C595 H607 0.928 . S
N596 C589 1.359 . S
N596 C597 1.327 . S
N596 Tb599 2.600 . S
C597 C595 1.392 . S
C597 N596 1.327 . S
C597 H604 0.930 1_455 S
C598 C593 1.385 . S
C598 C595 1.370 . S
C598 H617 0.930 . S
Tb599 N596 2.600 . S
Tb599 N600 2.660 . S
Tb599 O633 2.362 . S
Tb599 O634 2.421 1_455 S
Tb599 O638 2.546 . S
Tb599 O639 2.610 1_455 S
Tb599 O641 2.320 . S
Tb599 O642 2.552 . S
Tb599 O643 2.413 . S
Tb599 C663 2.833 . S
N600 C592 1.360 . S
N600 Tb599 2.660 . S
N600 C601 1.305 . S
C601 N600 1.305 . S
C601 C603 1.407 . S
C601 H608 0.930 . S
C602 C590 1.410 . S
C602 C603 1.345 . S
C602 H610 0.930 . S
C603 C601 1.407 . S
C603 C602 1.345 . S
C603 H605 0.930 . S
H604 C597 0.930 1_655 S
H605 C603 0.930 . S
H606 C594 0.930 . S
H607 C595 0.928 . S
H608 C601 0.930 . S
H609 C623 0.930 . S
H610 C602 0.930 . S
H611 C629 0.930 1_455 S
H612 C620 0.930 . S
H613 C627 0.915 1_455 S
H614 C591 0.929 . S
H615 C621 0.930 . S
H616 C654 0.930 . S
H617 C598 0.930 . S
H618 C653 0.929 . S
N619 Tb588 2.660 . S
N619 C620 1.305 . S
N619 C624 1.360 . S
C620 H612 0.930 . S
C620 N619 1.305 . S
C620 C623 1.407 . S
C621 H615 0.930 . S
C621 C622 1.410 . S
C621 C623 1.345 . S
C622 C621 1.410 . S
C622 C624 1.417 . S
C622 C654 1.432 . S
C623 H609 0.930 . S
C623 C620 1.407 . S
C623 C621 1.345 . S
C624 N619 1.360 . S
C624 C622 1.417 . S
C624 C628 1.432 . S
H625 C630 0.930 . S
N626 Tb588 2.600 . S
N626 C628 1.359 . S
N626 C629 1.327 . S
C627 H613 0.915 1_655 S
C627 C629 1.392 . S
C627 C630 1.370 . S
C628 C624 1.432 . S
C628 N626 1.359 . S
C628 C631 1.414 . S
C629 H611 0.930 1_655 S
C629 N626 1.327 . S
C629 C627 1.392 . S
C630 H625 0.930 . S
C630 C627 1.370 . S
C630 C631 1.385 . S
C631 C628 1.414 . S
C631 C630 1.385 . S
C631 C653 1.444 . S
O632 Tb588 2.546 . S
O632 C652 1.251 . S
O633 Tb588 2.610 1_455 S
O633 Tb599 2.362 . S
O633 C644 1.283 . S
O634 Tb599 2.421 1_655 S
O634 C651 1.262 . S
O635 Tb588 2.320 . S
O635 C651 1.260 . S
O636 Tb588 2.552 . S
O636 C644 1.243 1_655 S
O637 Tb588 2.413 . S
O637 C652 1.256 . S
O638 Tb599 2.546 . S
O638 C663 1.251 . S
O639 Tb588 2.362 . S
O639 Tb599 2.610 1_655 S
O639 C655 1.283 . S
O640 Tb588 2.421 1_455 S
O640 C662 1.262 . S
O641 Tb599 2.320 . S
O641 C662 1.260 . S
O642 Tb599 2.552 . S
O642 C655 1.243 1_455 S
O643 Tb599 2.413 . S
O643 C663 1.256 . S
C644 O633 1.283 . S
C644 O636 1.243 1_455 S
C645 C647 1.382 . S
C645 C649 1.393 . S
C645 C652 1.500 . S
C646 C647 1.400 . S
C646 C648 1.384 . S
C647 C645 1.382 . S
C647 C646 1.400 . S
C647 H664 0.930 . S
C648 C646 1.384 . S
C648 C650 1.392 . S
C648 H665 0.931 . S
C649 C645 1.393 . S
C649 C650 1.401 . S
C649 H666 0.930 . S
C650 C648 1.392 . S
C650 C649 1.401 . S
C650 H667 0.930 . S
C651 O634 1.262 . S
C651 O635 1.260 . S
C652 Tb588 2.833 . S
C652 O632 1.251 . S
C652 O637 1.256 . S
C652 C645 1.500 . S
C653 H618 0.929 . S
C653 C631 1.444 . S
C653 C654 1.317 . S
C654 H616 0.930 . S
C654 C622 1.432 . S
C654 C653 1.317 . S
C655 O639 1.283 . S
C655 O642 1.243 1_655 S
C656 C657 1.382 . S
C656 C660 1.393 . S
C656 C663 1.500 . S
C657 C656 1.382 . S
C657 C658 1.400 . S
C657 H668 0.930 . S
C658 C657 1.400 . S
C658 C659 1.384 . S
C659 C658 1.384 . S
C659 C661 1.392 . S
C659 H669 0.931 . S
C660 C656 1.393 . S
C660 C661 1.401 . S
C660 H670 0.930 . S
C661 C659 1.392 . S
C661 C660 1.401 . S
C661 H671 0.930 . S
C662 O640 1.262 . S
C662 O641 1.260 . S
C663 Tb599 2.833 . S
C663 O638 1.251 . S
C663 O643 1.256 . S
C663 C656 1.500 . S
H664 C647 0.930 . S
H665 C648 0.931 . S
H666 C649 0.930 . S
H667 C650 0.930 . S
H668 C657 0.930 . S
H669 C659 0.931 . S
H670 C660 0.930 . S
H671 C661 0.930 . S
Tb672 N703 2.660 . S
Tb672 N710 2.600 . S
Tb672 O716 2.546 . S
Tb672 O717 2.610 1_556 S
Tb672 O719 2.320 1_556 S
Tb672 O720 2.552 1_556 S
Tb672 O721 2.413 . S
Tb672 O723 2.362 . S
Tb672 O724 2.421 . S
Tb672 C736 2.833 . S
C673 C676 1.432 . S
C673 C677 1.414 . S
C673 N680 1.359 . S
C674 C676 1.417 . S
C674 C678 1.432 . S
C674 C686 1.410 . S
C675 C677 1.444 . S
C675 C678 1.317 . S
C675 H698 0.929 . S
C676 C673 1.432 . S
C676 C674 1.417 . S
C676 N684 1.360 . S
C677 C673 1.414 . S
C677 C675 1.444 . S
C677 C682 1.385 . S
C678 C674 1.432 . S
C678 C675 1.317 . S
C678 H690 0.930 . S
C679 C681 1.392 . S
C679 C682 1.370 . S
C679 H691 0.931 . S
N680 C673 1.359 . S
N680 C681 1.327 . S
N680 Tb683 2.600 . S
C681 C679 1.392 . S
C681 N680 1.327 . S
C681 H688 0.930 . S
C682 C677 1.385 . S
C682 C679 1.370 . S
C682 H701 0.930 . S
Tb683 N680 2.600 . S
Tb683 N684 2.660 . S
Tb683 O717 2.362 . S
Tb683 O718 2.421 . S
Tb683 O722 2.546 . S
Tb683 O723 2.610 1_554 S
Tb683 O725 2.320 1_554 S
Tb683 O726 2.552 1_554 S
Tb683 O727 2.413 . S
Tb683 C747 2.833 . S
N684 C676 1.360 . S
N684 Tb683 2.660 . S
N684 C685 1.305 . S
C685 N684 1.305 . S
C685 C687 1.407 . S
C685 H692 0.930 . S
C686 C674 1.410 . S
C686 C687 1.345 . S
C686 H694 0.930 . S
C687 C685 1.407 . S
C687 C686 1.345 . S
C687 H689 0.930 . S
H688 C681 0.930 . S
H689 C687 0.930 . S
H690 C678 0.930 . S
H691 C679 0.931 . S
H692 C685 0.930 . S
H693 C707 0.930 . S
H694 C686 0.930 . S
H695 C713 0.930 . S
H696 C704 0.930 . S
H697 C711 0.931 . S
H698 C675 0.929 . S
H699 C705 0.930 . S
H700 C738 0.930 . S
H701 C682 0.930 . S
H702 C737 0.929 . S
N703 Tb672 2.660 . S
N703 C704 1.305 . S
N703 C708 1.360 . S
C704 H696 0.930 . S
C704 N703 1.305 . S
C704 C707 1.407 . S
C705 H699 0.930 . S
C705 C706 1.410 . S
C705 C707 1.345 . S
C706 C705 1.410 . S
C706 C708 1.417 . S
C706 C738 1.432 . S
C707 H693 0.930 . S
C707 C704 1.407 . S
C707 C705 1.345 . S
C708 N703 1.360 . S
C708 C706 1.417 . S
C708 C712 1.432 . S
H709 C714 0.930 . S
N710 Tb672 2.600 . S
N710 C712 1.359 . S
N710 C713 1.327 . S
C711 H697 0.931 . S
C711 C713 1.392 . S
C711 C714 1.370 . S
C712 C708 1.432 . S
C712 N710 1.359 . S
C712 C715 1.414 . S
C713 H695 0.930 . S
C713 N710 1.327 . S
C713 C711 1.392 . S
C714 H709 0.930 . S
C714 C711 1.370 . S
C714 C715 1.385 . S
C715 C712 1.414 . S
C715 C714 1.385 . S
C715 C737 1.444 . S
O716 Tb672 2.546 . S
O716 C736 1.251 . S
O717 Tb672 2.610 1_554 S
O717 Tb683 2.362 . S
O717 C728 1.283 . S
O718 Tb683 2.421 . S
O718 C735 1.262 . S
O719 Tb672 2.320 1_554 S
O719 C735 1.260 . S
O720 Tb672 2.552 1_554 S
O720 C728 1.243 . S
O721 Tb672 2.413 . S
O721 C736 1.256 . S
O722 Tb683 2.546 . S
O722 C747 1.251 . S
O723 Tb672 2.362 . S
O723 Tb683 2.610 1_556 S
O723 C739 1.283 . S
O724 Tb672 2.421 . S
O724 C746 1.262 . S
O725 Tb683 2.320 1_556 S
O725 C746 1.260 . S
O726 Tb683 2.552 1_556 S
O726 C739 1.243 . S
O727 Tb683 2.413 . S
O727 C747 1.256 . S
C728 O717 1.283 . S
C728 O720 1.243 . S
C729 C731 1.382 . S
C729 C733 1.393 . S
C729 C736 1.500 . S
C730 C731 1.400 . S
C730 C732 1.384 . S
C731 C729 1.382 . S
C731 C730 1.400 . S
C731 H748 0.930 . S
C732 C730 1.384 . S
C732 C734 1.392 . S
C732 H749 0.931 . S
C733 C729 1.393 . S
C733 C734 1.401 . S
C733 H750 0.930 . S
C734 C732 1.392 . S
C734 C733 1.401 . S
C734 H751 0.930 . S
C735 O718 1.262 . S
C735 O719 1.260 . S
C736 Tb672 2.833 . S
C736 O716 1.251 . S
C736 O721 1.256 . S
C736 C729 1.500 . S
C737 H702 0.929 . S
C737 C715 1.444 . S
C737 C738 1.317 . S
C738 H700 0.930 . S
C738 C706 1.432 . S
C738 C737 1.317 . S
C739 O723 1.283 . S
C739 O726 1.243 . S
C740 C741 1.382 . S
C740 C744 1.393 . S
C740 C747 1.500 . S
C741 C740 1.382 . S
C741 C742 1.400 . S
C741 H752 0.930 . S
C742 C741 1.400 . S
C742 C743 1.384 . S
C743 C742 1.384 . S
C743 C745 1.392 . S
C743 H753 0.931 . S
C744 C740 1.393 . S
C744 C745 1.401 . S
C744 H754 0.930 . S
C745 C743 1.392 . S
C745 C744 1.401 . S
C745 H755 0.930 . S
C746 O724 1.262 . S
C746 O725 1.260 . S
C747 Tb683 2.833 . S
C747 O722 1.251 . S
C747 O727 1.256 . S
C747 C740 1.500 . S
H748 C731 0.930 . S
H749 C732 0.931 . S
H750 C733 0.930 . S
H751 C734 0.930 . S
H752 C741 0.930 . S
H753 C743 0.931 . S
H754 C744 0.930 . S
H755 C745 0.930 . S
Tb756 N787 2.660 . S
Tb756 N794 2.600 . S
Tb756 O800 2.546 . S
Tb756 O801 2.610 1_565 S
Tb756 O803 2.320 1_565 S
Tb756 O804 2.552 1_565 S
Tb756 O805 2.413 . S
Tb756 O807 2.362 . S
Tb756 O808 2.421 . S
Tb756 C820 2.833 . S
C757 C760 1.432 . S
C757 C761 1.414 . S
C757 N764 1.359 . S
C758 C760 1.417 . S
C758 C762 1.432 . S
C758 C770 1.410 . S
C759 C761 1.444 . S
C759 C762 1.317 . S
C759 H782 0.929 . S
C760 C757 1.432 . S
C760 C758 1.417 . S
C760 N768 1.360 . S
C761 C757 1.414 . S
C761 C759 1.444 . S
C761 C766 1.385 . S
C762 C758 1.432 . S
C762 C759 1.317 . S
C762 H774 0.930 . S
C763 C765 1.392 . S
C763 C766 1.370 . S
C763 H775 0.931 . S
N764 C757 1.359 . S
N764 C765 1.327 . S
N764 Tb767 2.600 . S
C765 C763 1.392 . S
C765 N764 1.327 . S
C765 H772 0.930 . S
C766 C761 1.385 . S
C766 C763 1.370 . S
C766 H785 0.930 . S
Tb767 N764 2.600 . S
Tb767 N768 2.660 . S
Tb767 O801 2.362 . S
Tb767 O802 2.421 . S
Tb767 O806 2.546 . S
Tb767 O807 2.610 1_545 S
Tb767 O809 2.320 1_545 S
Tb767 O810 2.552 1_545 S
Tb767 O811 2.413 . S
Tb767 C831 2.833 . S
N768 C760 1.360 . S
N768 Tb767 2.660 . S
N768 C769 1.305 . S
C769 N768 1.305 . S
C769 C771 1.407 . S
C769 H776 0.930 . S
C770 C758 1.410 . S
C770 C771 1.345 . S
C770 H778 0.930 . S
C771 C769 1.407 . S
C771 C770 1.345 . S
C771 H773 0.930 . S
H772 C765 0.930 . S
H773 C771 0.930 . S
H774 C762 0.930 . S
H775 C763 0.931 . S
H776 C769 0.930 . S
H777 C791 0.930 . S
H778 C770 0.930 . S
H779 C797 0.930 . S
H780 C788 0.930 . S
H781 C795 0.931 . S
H782 C759 0.929 . S
H783 C789 0.930 . S
H784 C822 0.930 . S
H785 C766 0.930 . S
H786 C821 0.929 . S
N787 Tb756 2.660 . S
N787 C788 1.305 . S
N787 C792 1.360 . S
C788 H780 0.930 . S
C788 N787 1.305 . S
C788 C791 1.407 . S
C789 H783 0.930 . S
C789 C790 1.410 . S
C789 C791 1.345 . S
C790 C789 1.410 . S
C790 C792 1.417 . S
C790 C822 1.432 . S
C791 H777 0.930 . S
C791 C788 1.407 . S
C791 C789 1.345 . S
C792 N787 1.360 . S
C792 C790 1.417 . S
C792 C796 1.432 . S
H793 C798 0.930 . S
N794 Tb756 2.600 . S
N794 C796 1.359 . S
N794 C797 1.327 . S
C795 H781 0.931 . S
C795 C797 1.392 . S
C795 C798 1.370 . S
C796 C792 1.432 . S
C796 N794 1.359 . S
C796 C799 1.414 . S
C797 H779 0.930 . S
C797 N794 1.327 . S
C797 C795 1.392 . S
C798 H793 0.930 . S
C798 C795 1.370 . S
C798 C799 1.385 . S
C799 C796 1.414 . S
C799 C798 1.385 . S
C799 C821 1.444 . S
O800 Tb756 2.546 . S
O800 C820 1.251 . S
O801 Tb756 2.610 1_545 S
O801 Tb767 2.362 . S
O801 C812 1.283 . S
O802 Tb767 2.421 . S
O802 C819 1.262 . S
O803 Tb756 2.320 1_545 S
O803 C819 1.260 . S
O804 Tb756 2.552 1_545 S
O804 C812 1.243 . S
O805 Tb756 2.413 . S
O805 C820 1.256 . S
O806 Tb767 2.546 . S
O806 C831 1.251 . S
O807 Tb756 2.362 . S
O807 Tb767 2.610 1_565 S
O807 C823 1.283 . S
O808 Tb756 2.421 . S
O808 C830 1.262 . S
O809 Tb767 2.320 1_565 S
O809 C830 1.260 . S
O810 Tb767 2.552 1_565 S
O810 C823 1.243 . S
O811 Tb767 2.413 . S
O811 C831 1.256 . S
C812 O801 1.283 . S
C812 O804 1.243 . S
C813 C815 1.382 1_565 S
C813 C817 1.393 . S
C813 C820 1.500 . S
C814 C815 1.400 . S
C814 C816 1.384 1_545 S
C815 C813 1.382 1_545 S
C815 C814 1.400 . S
C815 H832 0.930 . S
C816 C814 1.384 1_565 S
C816 C818 1.392 . S
C816 H833 0.931 . S
C817 C813 1.393 . S
C817 C818 1.401 . S
C817 H834 0.930 . S
C818 C816 1.392 . S
C818 C817 1.401 . S
C818 H835 0.930 . S
C819 O802 1.262 . S
C819 O803 1.260 . S
C820 Tb756 2.833 . S
C820 O800 1.251 . S
C820 O805 1.256 . S
C820 C813 1.500 . S
C821 H786 0.929 . S
C821 C799 1.444 . S
C821 C822 1.317 . S
C822 H784 0.930 . S
C822 C790 1.432 . S
C822 C821 1.317 . S
C823 O807 1.283 . S
C823 O810 1.243 . S
C824 C825 1.382 1_545 S
C824 C828 1.393 . S
C824 C831 1.500 . S
C825 C824 1.382 1_565 S
C825 C826 1.400 . S
C825 H836 0.930 . S
C826 C825 1.400 . S
C826 C827 1.384 1_565 S
C827 C826 1.384 1_545 S
C827 C829 1.392 . S
C827 H837 0.931 . S
C828 C824 1.393 . S
C828 C829 1.401 . S
C828 H838 0.930 . S
C829 C827 1.392 . S
C829 C828 1.401 . S
C829 H839 0.930 . S
C830 O808 1.262 . S
C830 O809 1.260 . S
C831 Tb767 2.833 . S
C831 O806 1.251 . S
C831 O811 1.256 . S
C831 C824 1.500 . S
H832 C815 0.930 . S
H833 C816 0.931 . S
H834 C817 0.930 . S
H835 C818 0.930 . S
H836 C825 0.930 . S
H837 C827 0.931 . S
H838 C828 0.930 . S
H839 C829 0.930 . S
Tb840 N871 2.660 . S
Tb840 N878 2.600 . S
Tb840 O884 2.546 . S
Tb840 O885 2.610 . S
Tb840 O887 2.320 . S
Tb840 O888 2.552 . S
Tb840 O889 2.413 . S
Tb840 O891 2.362 . S
Tb840 O892 2.421 . S
Tb840 C904 2.833 . S
C841 C844 1.432 . S
C841 C845 1.414 . S
C841 N848 1.359 . S
C842 C844 1.417 . S
C842 C846 1.432 . S
C842 C854 1.410 . S
C843 C845 1.444 . S
C843 C846 1.317 . S
C843 H866 0.929 . S
C844 C841 1.432 . S
C844 C842 1.417 . S
C844 N852 1.360 . S
C845 C841 1.414 . S
C845 C843 1.444 . S
C845 C850 1.385 . S
C846 C842 1.432 . S
C846 C843 1.317 . S
C846 H858 0.930 . S
C847 C849 1.392 . S
C847 C850 1.370 . S
C847 H859 0.931 . S
N848 C841 1.359 . S
N848 C849 1.327 . S
N848 Tb851 2.600 . S
C849 C847 1.392 . S
C849 N848 1.327 . S
C849 H856 0.930 . S
C850 C845 1.385 . S
C850 C847 1.370 . S
C850 H869 0.930 . S
Tb851 N848 2.600 . S
Tb851 N852 2.660 . S
Tb851 O885 2.362 . S
Tb851 O886 2.421 . S
Tb851 O890 2.546 . S
Tb851 O891 2.610 . S
Tb851 O893 2.320 . S
Tb851 O894 2.552 . S
Tb851 O895 2.413 . S
Tb851 C915 2.833 . S
N852 C844 1.360 . S
N852 Tb851 2.660 . S
N852 C853 1.305 . S
C853 N852 1.305 . S
C853 C855 1.407 . S
C853 H860 0.930 . S
C854 C842 1.410 . S
C854 C855 1.345 . S
C854 H862 0.930 . S
C855 C853 1.407 . S
C855 C854 1.345 . S
C855 H857 0.930 . S
H856 C849 0.930 . S
H857 C855 0.930 . S
H858 C846 0.930 . S
H859 C847 0.931 . S
H860 C853 0.930 . S
H861 C875 0.930 . S
H862 C854 0.930 . S
H863 C881 0.930 . S
H864 C872 0.930 . S
H865 C879 0.931 . S
H866 C843 0.929 . S
H867 C873 0.930 . S
H868 C906 0.930 . S
H869 C850 0.930 . S
H870 C905 0.929 . S
N871 Tb840 2.660 . S
N871 C872 1.305 . S
N871 C876 1.360 . S
C872 H864 0.930 . S
C872 N871 1.305 . S
C872 C875 1.407 . S
C873 H867 0.930 . S
C873 C874 1.410 . S
C873 C875 1.345 . S
C874 C873 1.410 . S
C874 C876 1.417 . S
C874 C906 1.432 . S
C875 H861 0.930 . S
C875 C872 1.407 . S
C875 C873 1.345 . S
C876 N871 1.360 . S
C876 C874 1.417 . S
C876 C880 1.432 . S
H877 C882 0.930 . S
N878 Tb840 2.600 . S
N878 C880 1.359 . S
N878 C881 1.327 . S
C879 H865 0.931 . S
C879 C881 1.392 . S
C879 C882 1.370 . S
C880 C876 1.432 . S
C880 N878 1.359 . S
C880 C883 1.414 . S
C881 H863 0.930 . S
C881 N878 1.327 . S
C881 C879 1.392 . S
C882 H877 0.930 . S
C882 C879 1.370 . S
C882 C883 1.385 . S
C883 C880 1.414 . S
C883 C882 1.385 . S
C883 C905 1.444 . S
O884 Tb840 2.546 . S
O884 C904 1.251 . S
O885 Tb840 2.610 . S
O885 Tb851 2.362 . S
O885 C896 1.283 . S
O886 Tb851 2.421 . S
O886 C903 1.262 . S
O887 Tb840 2.320 . S
O887 C903 1.260 . S
O888 Tb840 2.552 . S
O888 C896 1.243 . S
O889 Tb840 2.413 . S
O889 C904 1.256 . S
O890 Tb851 2.546 . S
O890 C915 1.251 . S
O891 Tb840 2.362 . S
O891 Tb851 2.610 . S
O891 C907 1.283 . S
O892 Tb840 2.421 . S
O892 C914 1.262 . S
O893 Tb851 2.320 . S
O893 C914 1.260 . S
O894 Tb851 2.552 . S
O894 C907 1.243 . S
O895 Tb851 2.413 . S
O895 C915 1.256 . S
C896 O885 1.283 . S
C896 O888 1.243 . S
C897 C899 1.382 . S
C897 C901 1.393 . S
C897 C904 1.500 . S
C898 C899 1.400 . S
C898 C900 1.384 . S
C899 C897 1.382 . S
C899 C898 1.400 . S
C899 H916 0.930 . S
C900 C898 1.384 . S
C900 C902 1.392 . S
C900 H917 0.931 . S
C901 C897 1.393 . S
C901 C902 1.401 . S
C901 H918 0.930 . S
C902 C900 1.392 . S
C902 C901 1.401 . S
C902 H919 0.930 . S
C903 O886 1.262 . S
C903 O887 1.260 . S
C904 Tb840 2.833 . S
C904 O884 1.251 . S
C904 O889 1.256 . S
C904 C897 1.500 . S
C905 H870 0.929 . S
C905 C883 1.444 . S
C905 C906 1.317 . S
C906 H868 0.930 . S
C906 C874 1.432 . S
C906 C905 1.317 . S
C907 O891 1.283 . S
C907 O894 1.243 . S
C908 C909 1.382 . S
C908 C912 1.393 . S
C908 C915 1.500 . S
C909 C908 1.382 . S
C909 C910 1.400 . S
C909 H920 0.930 . S
C910 C909 1.400 . S
C910 C911 1.384 . S
C911 C910 1.384 . S
C911 C913 1.392 . S
C911 H921 0.931 . S
C912 C908 1.393 . S
C912 C913 1.401 . S
C912 H922 0.930 . S
C913 C911 1.392 . S
C913 C912 1.401 . S
C913 H923 0.930 . S
C914 O892 1.262 . S
C914 O893 1.260 . S
C915 Tb851 2.833 . S
C915 O890 1.251 . S
C915 O895 1.256 . S
C915 C908 1.500 . S
H916 C899 0.930 . S
H917 C900 0.931 . S
H918 C901 0.930 . S
H919 C902 0.930 . S
H920 C909 0.930 . S
H921 C911 0.931 . S
H922 C912 0.930 . S
H923 C913 0.930 . S
Tb924 N955 2.660 . S
Tb924 N962 2.600 . S
Tb924 O968 2.546 . S
Tb924 O969 2.610 1_455 S
Tb924 O971 2.320 1_455 S
Tb924 O972 2.552 1_455 S
Tb924 O973 2.413 . S
Tb924 O975 2.362 . S
Tb924 O976 2.421 . S
Tb924 C988 2.833 . S
C925 C928 1.432 . S
C925 C929 1.414 . S
C925 N932 1.359 . S
C926 C928 1.417 . S
C926 C930 1.432 . S
C926 C938 1.410 . S
C927 C929 1.444 . S
C927 C930 1.317 . S
C927 H950 0.929 . S
C928 C925 1.432 . S
C928 C926 1.417 . S
C928 N936 1.360 . S
C929 C925 1.414 . S
C929 C927 1.444 . S
C929 C934 1.385 . S
C930 C926 1.432 . S
C930 C927 1.317 . S
C930 H942 0.930 . S
C931 C933 1.392 . S
C931 C934 1.370 . S
C931 H943 0.931 . S
N932 C925 1.359 . S
N932 C933 1.327 . S
N932 Tb935 2.600 . S
C933 C931 1.392 . S
C933 N932 1.327 . S
C933 H940 0.930 . S
C934 C929 1.385 . S
C934 C931 1.370 . S
C934 H953 0.930 . S
Tb935 N932 2.600 . S
Tb935 N936 2.660 . S
Tb935 O969 2.362 . S
Tb935 O970 2.421 . S
Tb935 O974 2.546 . S
Tb935 O975 2.610 1_655 S
Tb935 O977 2.320 1_655 S
Tb935 O978 2.552 1_655 S
Tb935 O979 2.413 . S
Tb935 C999 2.833 . S
N936 C928 1.360 . S
N936 Tb935 2.660 . S
N936 C937 1.305 . S
C937 N936 1.305 . S
C937 C939 1.407 . S
C937 H944 0.930 . S
C938 C926 1.410 . S
C938 C939 1.345 . S
C938 H946 0.930 . S
C939 C937 1.407 . S
C939 C938 1.345 . S
C939 H941 0.930 . S
H940 C933 0.930 . S
H941 C939 0.930 . S
H942 C930 0.930 . S
H943 C931 0.931 . S
H944 C937 0.930 . S
H945 C959 0.930 . S
H946 C938 0.930 . S
H947 C965 0.930 . S
H948 C956 0.930 . S
H949 C963 0.931 . S
H950 C927 0.929 . S
H951 C957 0.930 . S
H952 C990 0.930 . S
H953 C934 0.930 . S
H954 C989 0.929 . S
N955 Tb924 2.660 . S
N955 C956 1.305 . S
N955 C960 1.360 . S
C956 H948 0.930 . S
C956 N955 1.305 . S
C956 C959 1.407 . S
C957 H951 0.930 . S
C957 C958 1.410 . S
C957 C959 1.345 . S
C958 C957 1.410 . S
C958 C960 1.417 . S
C958 C990 1.432 . S
C959 H945 0.930 . S
C959 C956 1.407 . S
C959 C957 1.345 . S
C960 N955 1.360 . S
C960 C958 1.417 . S
C960 C964 1.432 . S
H961 C966 0.930 . S
N962 Tb924 2.600 . S
N962 C964 1.359 . S
N962 C965 1.327 . S
C963 H949 0.931 . S
C963 C965 1.392 . S
C963 C966 1.370 . S
C964 C960 1.432 . S
C964 N962 1.359 . S
C964 C967 1.414 . S
C965 H947 0.930 . S
C965 N962 1.327 . S
C965 C963 1.392 . S
C966 H961 0.930 . S
C966 C963 1.370 . S
C966 C967 1.385 . S
C967 C964 1.414 . S
C967 C966 1.385 . S
C967 C989 1.444 . S
O968 Tb924 2.546 . S
O968 C988 1.251 . S
O969 Tb924 2.610 1_655 S
O969 Tb935 2.362 . S
O969 C980 1.283 . S
O970 Tb935 2.421 . S
O970 C987 1.262 . S
O971 Tb924 2.320 1_655 S
O971 C987 1.260 . S
O972 Tb924 2.552 1_655 S
O972 C980 1.243 . S
O973 Tb924 2.413 . S
O973 C988 1.256 . S
O974 Tb935 2.546 . S
O974 C999 1.251 . S
O975 Tb924 2.362 . S
O975 Tb935 2.610 1_455 S
O975 C991 1.283 . S
O976 Tb924 2.421 . S
O976 C998 1.262 . S
O977 Tb935 2.320 1_455 S
O977 C998 1.260 . S
O978 Tb935 2.552 1_455 S
O978 C991 1.243 . S
O979 Tb935 2.413 . S
O979 C999 1.256 . S
C980 O969 1.283 . S
C980 O972 1.243 . S
C981 C983 1.382 1_455 S
C981 C985 1.393 . S
C981 C988 1.500 . S
C982 C983 1.400 . S
C982 C984 1.384 1_655 S
C983 C981 1.382 1_655 S
C983 C982 1.400 . S
C983 H1000 0.930 . S
C984 C982 1.384 1_455 S
C984 C986 1.392 . S
C984 H1001 0.931 . S
C985 C981 1.393 . S
C985 C986 1.401 . S
C985 H1002 0.930 . S
C986 C984 1.392 . S
C986 C985 1.401 . S
C986 H1003 0.930 . S
C987 O970 1.262 . S
C987 O971 1.260 . S
C988 Tb924 2.833 . S
C988 O968 1.251 . S
C988 O973 1.256 . S
C988 C981 1.500 . S
C989 H954 0.929 . S
C989 C967 1.444 . S
C989 C990 1.317 . S
C990 H952 0.930 . S
C990 C958 1.432 . S
C990 C989 1.317 . S
C991 O975 1.283 . S
C991 O978 1.243 . S
C992 C993 1.382 1_655 S
C992 C996 1.393 . S
C992 C999 1.500 . S
C993 C992 1.382 1_455 S
C993 C994 1.400 . S
C993 H1004 0.930 . S
C994 C993 1.400 . S
C994 C995 1.384 1_455 S
C995 C994 1.384 1_655 S
C995 C997 1.392 . S
C995 H1005 0.931 . S
C996 C992 1.393 . S
C996 C997 1.401 . S
C996 H1006 0.930 . S
C997 C995 1.392 . S
C997 C996 1.401 . S
C997 H1007 0.930 . S
C998 O976 1.262 . S
C998 O977 1.260 . S
C999 Tb935 2.833 . S
C999 O974 1.251 . S
C999 O979 1.256 . S
C999 C992 1.500 . S
H1000 C983 0.930 . S
H1001 C984 0.931 . S
H1002 C985 0.930 . S
H1003 C986 0.930 . S
H1004 C993 0.930 . S
H1005 C995 0.931 . S
H1006 C996 0.930 . S
H1007 C997 0.930 . S
Tb1008 N1039 2.660 . S
Tb1008 N1046 2.600 . S
Tb1008 O1052 2.546 . S
Tb1008 O1053 2.610 . S
Tb1008 O1055 2.320 . S
Tb1008 O1056 2.552 . S
Tb1008 O1057 2.413 . S
Tb1008 O1059 2.362 . S
Tb1008 O1060 2.421 . S
Tb1008 C1072 2.833 . S
C1009 C1012 1.432 . S
C1009 C1013 1.414 . S
C1009 N1016 1.359 . S
C1010 C1012 1.417 . S
C1010 C1014 1.432 . S
C1010 C1022 1.410 . S
C1011 C1013 1.444 . S
C1011 C1014 1.317 . S
C1011 H1034 0.929 . S
C1012 C1009 1.432 . S
C1012 C1010 1.417 . S
C1012 N1020 1.360 . S
C1013 C1009 1.414 . S
C1013 C1011 1.444 . S
C1013 C1018 1.385 . S
C1014 C1010 1.432 . S
C1014 C1011 1.317 . S
C1014 H1026 0.930 . S
C1015 C1017 1.392 . S
C1015 C1018 1.370 . S
C1015 H1027 0.931 . S
N1016 C1009 1.359 . S
N1016 C1017 1.327 . S
N1016 Tb1019 2.600 . S
C1017 C1015 1.392 . S
C1017 N1016 1.327 . S
C1017 H1024 0.930 . S
C1018 C1013 1.385 . S
C1018 C1015 1.370 . S
C1018 H1037 0.930 . S
Tb1019 N1016 2.600 . S
Tb1019 N1020 2.660 . S
Tb1019 O1053 2.362 . S
Tb1019 O1054 2.421 . S
Tb1019 O1058 2.546 . S
Tb1019 O1059 2.610 . S
Tb1019 O1061 2.320 . S
Tb1019 O1062 2.552 . S
Tb1019 O1063 2.413 . S
Tb1019 C1083 2.833 . S
N1020 C1012 1.360 . S
N1020 Tb1019 2.660 . S
N1020 C1021 1.305 . S
C1021 N1020 1.305 . S
C1021 C1023 1.407 . S
C1021 H1028 0.930 . S
C1022 C1010 1.410 . S
C1022 C1023 1.345 . S
C1022 H1030 0.930 . S
C1023 C1021 1.407 . S
C1023 C1022 1.345 . S
C1023 H1025 0.930 . S
H1024 C1017 0.930 . S
H1025 C1023 0.930 . S
H1026 C1014 0.930 . S
H1027 C1015 0.931 . S
H1028 C1021 0.930 . S
H1029 C1043 0.930 . S
H1030 C1022 0.930 . S
H1031 C1049 0.930 . S
H1032 C1040 0.930 . S
H1033 C1047 0.931 . S
H1034 C1011 0.929 . S
H1035 C1041 0.930 . S
H1036 C1074 0.930 . S
H1037 C1018 0.930 . S
H1038 C1073 0.929 . S
N1039 Tb1008 2.660 . S
N1039 C1040 1.305 . S
N1039 C1044 1.360 . S
C1040 H1032 0.930 . S
C1040 N1039 1.305 . S
C1040 C1043 1.407 . S
C1041 H1035 0.930 . S
C1041 C1042 1.410 . S
C1041 C1043 1.345 . S
C1042 C1041 1.410 . S
C1042 C1044 1.417 . S
C1042 C1074 1.432 . S
C1043 H1029 0.930 . S
C1043 C1040 1.407 . S
C1043 C1041 1.345 . S
C1044 N1039 1.360 . S
C1044 C1042 1.417 . S
C1044 C1048 1.432 . S
H1045 C1050 0.930 . S
N1046 Tb1008 2.600 . S
N1046 C1048 1.359 . S
N1046 C1049 1.327 . S
C1047 H1033 0.931 . S
C1047 C1049 1.392 . S
C1047 C1050 1.370 . S
C1048 C1044 1.432 . S
C1048 N1046 1.359 . S
C1048 C1051 1.414 . S
C1049 H1031 0.930 . S
C1049 N1046 1.327 . S
C1049 C1047 1.392 . S
C1050 H1045 0.930 . S
C1050 C1047 1.370 . S
C1050 C1051 1.385 . S
C1051 C1048 1.414 . S
C1051 C1050 1.385 . S
C1051 C1073 1.444 . S
O1052 Tb1008 2.546 . S
O1052 C1072 1.251 . S
O1053 Tb1008 2.610 . S
O1053 Tb1019 2.362 . S
O1053 C1064 1.283 . S
O1054 Tb1019 2.421 . S
O1054 C1071 1.262 . S
O1055 Tb1008 2.320 . S
O1055 C1071 1.260 . S
O1056 Tb1008 2.552 . S
O1056 C1064 1.243 . S
O1057 Tb1008 2.413 . S
O1057 C1072 1.256 . S
O1058 Tb1019 2.546 . S
O1058 C1083 1.251 . S
O1059 Tb1008 2.362 . S
O1059 Tb1019 2.610 . S
O1059 C1075 1.283 . S
O1060 Tb1008 2.421 . S
O1060 C1082 1.262 . S
O1061 Tb1019 2.320 . S
O1061 C1082 1.260 . S
O1062 Tb1019 2.552 . S
O1062 C1075 1.243 . S
O1063 Tb1019 2.413 . S
O1063 C1083 1.256 . S
C1064 O1053 1.283 . S
C1064 O1056 1.243 . S
C1065 C1067 1.382 . S
C1065 C1069 1.393 . S
C1065 C1072 1.500 . S
C1066 C1067 1.400 . S
C1066 C1068 1.384 . S
C1067 C1065 1.382 . S
C1067 C1066 1.400 . S
C1067 H1084 0.930 . S
C1068 C1066 1.384 . S
C1068 C1070 1.392 . S
C1068 H1085 0.931 . S
C1069 C1065 1.393 . S
C1069 C1070 1.401 . S
C1069 H1086 0.930 . S
C1070 C1068 1.392 . S
C1070 C1069 1.401 . S
C1070 H1087 0.930 . S
C1071 O1054 1.262 . S
C1071 O1055 1.260 . S
C1072 Tb1008 2.833 . S
C1072 O1052 1.251 . S
C1072 O1057 1.256 . S
C1072 C1065 1.500 . S
C1073 H1038 0.929 . S
C1073 C1051 1.444 . S
C1073 C1074 1.317 . S
C1074 H1036 0.930 . S
C1074 C1042 1.432 . S
C1074 C1073 1.317 . S
C1075 O1059 1.283 . S
C1075 O1062 1.243 . S
C1076 C1077 1.382 . S
C1076 C1080 1.393 . S
C1076 C1083 1.500 . S
C1077 C1076 1.382 . S
C1077 C1078 1.400 . S
C1077 H1088 0.930 . S
C1078 C1077 1.400 . S
C1078 C1079 1.384 . S
C1079 C1078 1.384 . S
C1079 C1081 1.392 . S
C1079 H1089 0.931 . S
C1080 C1076 1.393 . S
C1080 C1081 1.401 . S
C1080 H1090 0.930 . S
C1081 C1079 1.392 . S
C1081 C1080 1.401 . S
C1081 H1091 0.930 . S
C1082 O1060 1.262 . S
C1082 O1061 1.260 . S
C1083 Tb1019 2.833 . S
C1083 O1058 1.251 . S
C1083 O1063 1.256 . S
C1083 C1076 1.500 . S
H1084 C1067 0.930 . S
H1085 C1068 0.931 . S
H1086 C1069 0.930 . S
H1087 C1070 0.930 . S
H1088 C1077 0.930 . S
H1089 C1079 0.931 . S
H1090 C1080 0.930 . S
H1091 C1081 0.930 . S
Tb1092 N1123 2.660 . S
Tb1092 N1130 2.600 . S
Tb1092 O1136 2.546 . S
Tb1092 O1137 2.610 1_556 S
Tb1092 O1139 2.320 1_556 S
Tb1092 O1140 2.552 1_556 S
Tb1092 O1141 2.413 . S
Tb1092 O1143 2.362 . S
Tb1092 O1144 2.421 . S
Tb1092 C1156 2.833 . S
C1093 C1096 1.432 . S
C1093 C1097 1.414 . S
C1093 N1100 1.359 . S
C1094 C1096 1.417 . S
C1094 C1098 1.432 . S
C1094 C1106 1.410 . S
C1095 C1097 1.444 . S
C1095 C1098 1.317 . S
C1095 H1118 0.929 . S
C1096 C1093 1.432 . S
C1096 C1094 1.417 . S
C1096 N1104 1.360 . S
C1097 C1093 1.414 . S
C1097 C1095 1.444 . S
C1097 C1102 1.385 . S
C1098 C1094 1.432 . S
C1098 C1095 1.317 . S
C1098 H1110 0.930 . S
C1099 C1101 1.392 . S
C1099 C1102 1.370 . S
C1099 H1111 0.931 . S
N1100 C1093 1.359 . S
N1100 C1101 1.327 . S
N1100 Tb1103 2.600 . S
C1101 C1099 1.392 . S
C1101 N1100 1.327 . S
C1101 H1108 0.930 . S
C1102 C1097 1.385 . S
C1102 C1099 1.370 . S
C1102 H1121 0.930 . S
Tb1103 N1100 2.600 . S
Tb1103 N1104 2.660 . S
Tb1103 O1137 2.362 . S
Tb1103 O1138 2.421 . S
Tb1103 O1142 2.546 . S
Tb1103 O1143 2.610 1_554 S
Tb1103 O1145 2.320 1_554 S
Tb1103 O1146 2.552 1_554 S
Tb1103 O1147 2.413 . S
Tb1103 C1167 2.833 . S
N1104 C1096 1.360 . S
N1104 Tb1103 2.660 . S
N1104 C1105 1.305 . S
C1105 N1104 1.305 . S
C1105 C1107 1.407 . S
C1105 H1112 0.930 . S
C1106 C1094 1.410 . S
C1106 C1107 1.345 . S
C1106 H1114 0.930 . S
C1107 C1105 1.407 . S
C1107 C1106 1.345 . S
C1107 H1109 0.930 . S
H1108 C1101 0.930 . S
H1109 C1107 0.930 . S
H1110 C1098 0.930 . S
H1111 C1099 0.931 . S
H1112 C1105 0.930 . S
H1113 C1127 0.930 . S
H1114 C1106 0.930 . S
H1115 C1133 0.930 . S
H1116 C1124 0.930 . S
H1117 C1131 0.931 . S
H1118 C1095 0.929 . S
H1119 C1125 0.930 . S
H1120 C1158 0.930 . S
H1121 C1102 0.930 . S
H1122 C1157 0.929 . S
N1123 Tb1092 2.660 . S
N1123 C1124 1.305 . S
N1123 C1128 1.360 . S
C1124 H1116 0.930 . S
C1124 N1123 1.305 . S
C1124 C1127 1.407 . S
C1125 H1119 0.930 . S
C1125 C1126 1.410 . S
C1125 C1127 1.345 . S
C1126 C1125 1.410 . S
C1126 C1128 1.417 . S
C1126 C1158 1.432 . S
C1127 H1113 0.930 . S
C1127 C1124 1.407 . S
C1127 C1125 1.345 . S
C1128 N1123 1.360 . S
C1128 C1126 1.417 . S
C1128 C1132 1.432 . S
H1129 C1134 0.930 . S
N1130 Tb1092 2.600 . S
N1130 C1132 1.359 . S
N1130 C1133 1.327 . S
C1131 H1117 0.931 . S
C1131 C1133 1.392 . S
C1131 C1134 1.370 . S
C1132 C1128 1.432 . S
C1132 N1130 1.359 . S
C1132 C1135 1.414 . S
C1133 H1115 0.930 . S
C1133 N1130 1.327 . S
C1133 C1131 1.392 . S
C1134 H1129 0.930 . S
C1134 C1131 1.370 . S
C1134 C1135 1.385 . S
C1135 C1132 1.414 . S
C1135 C1134 1.385 . S
C1135 C1157 1.444 . S
O1136 Tb1092 2.546 . S
O1136 C1156 1.251 . S
O1137 Tb1092 2.610 1_554 S
O1137 Tb1103 2.362 . S
O1137 C1148 1.283 . S
O1138 Tb1103 2.421 . S
O1138 C1155 1.262 . S
O1139 Tb1092 2.320 1_554 S
O1139 C1155 1.260 . S
O1140 Tb1092 2.552 1_554 S
O1140 C1148 1.243 . S
O1141 Tb1092 2.413 . S
O1141 C1156 1.256 . S
O1142 Tb1103 2.546 . S
O1142 C1167 1.251 . S
O1143 Tb1092 2.362 . S
O1143 Tb1103 2.610 1_556 S
O1143 C1159 1.283 . S
O1144 Tb1092 2.421 . S
O1144 C1166 1.262 . S
O1145 Tb1103 2.320 1_556 S
O1145 C1166 1.260 . S
O1146 Tb1103 2.552 1_556 S
O1146 C1159 1.243 . S
O1147 Tb1103 2.413 . S
O1147 C1167 1.256 . S
C1148 O1137 1.283 . S
C1148 O1140 1.243 . S
C1149 C1151 1.382 . S
C1149 C1153 1.393 . S
C1149 C1156 1.500 . S
C1150 C1151 1.400 . S
C1150 C1152 1.384 . S
C1151 C1149 1.382 . S
C1151 C1150 1.400 . S
C1151 H1168 0.930 . S
C1152 C1150 1.384 . S
C1152 C1154 1.392 . S
C1152 H1169 0.931 . S
C1153 C1149 1.393 . S
C1153 C1154 1.401 . S
C1153 H1170 0.930 . S
C1154 C1152 1.392 . S
C1154 C1153 1.401 . S
C1154 H1171 0.930 . S
C1155 O1138 1.262 . S
C1155 O1139 1.260 . S
C1156 Tb1092 2.833 . S
C1156 O1136 1.251 . S
C1156 O1141 1.256 . S
C1156 C1149 1.500 . S
C1157 H1122 0.929 . S
C1157 C1135 1.444 . S
C1157 C1158 1.317 . S
C1158 H1120 0.930 . S
C1158 C1126 1.432 . S
C1158 C1157 1.317 . S
C1159 O1143 1.283 . S
C1159 O1146 1.243 . S
C1160 C1161 1.382 . S
C1160 C1164 1.393 . S
C1160 C1167 1.500 . S
C1161 C1160 1.382 . S
C1161 C1162 1.400 . S
C1161 H1172 0.930 . S
C1162 C1161 1.400 . S
C1162 C1163 1.384 . S
C1163 C1162 1.384 . S
C1163 C1165 1.392 . S
C1163 H1173 0.931 . S
C1164 C1160 1.393 . S
C1164 C1165 1.401 . S
C1164 H1174 0.930 . S
C1165 C1163 1.392 . S
C1165 C1164 1.401 . S
C1165 H1175 0.930 . S
C1166 O1144 1.262 . S
C1166 O1145 1.260 . S
C1167 Tb1103 2.833 . S
C1167 O1142 1.251 . S
C1167 O1147 1.256 . S
C1167 C1160 1.500 . S
H1168 C1151 0.930 . S
H1169 C1152 0.931 . S
H1170 C1153 0.930 . S
H1171 C1154 0.930 . S
H1172 C1161 0.930 . S
H1173 C1163 0.931 . S
H1174 C1164 0.930 . S
H1175 C1165 0.930 . S
Tb1176 N1207 2.660 1_565 S
Tb1176 N1214 2.600 . S
Tb1176 O1220 2.546 . S
Tb1176 O1221 2.610 . S
Tb1176 O1223 2.320 1_565 S
Tb1176 O1224 2.552 . S
Tb1176 O1225 2.413 . S
Tb1176 O1227 2.362 1_565 S
Tb1176 O1228 2.421 . S
Tb1176 C1240 2.833 . S
C1177 C1180 1.432 1_545 S
C1177 C1181 1.414 . S
C1177 N1184 1.359 . S
C1178 C1180 1.417 . S
C1178 C1182 1.432 . S
C1178 C1190 1.410 . S
C1179 C1181 1.444 1_565 S
C1179 C1182 1.317 . S
C1179 H1202 0.929 . S
C1180 C1177 1.432 1_565 S
C1180 C1178 1.417 . S
C1180 N1188 1.360 . S
C1181 C1177 1.414 . S
C1181 C1179 1.444 1_545 S
C1181 C1186 1.385 . S
C1182 C1178 1.432 . S
C1182 C1179 1.317 . S
C1182 H1194 0.930 . S
C1183 C1185 1.392 . S
C1183 C1186 1.370 . S
C1183 H1195 0.931 . S
N1184 C1177 1.359 . S
N1184 C1185 1.327 . S
N1184 Tb1187 2.600 . S
C1185 C1183 1.392 . S
C1185 N1184 1.327 . S
C1185 H1192 0.930 . S
C1186 C1181 1.385 . S
C1186 C1183 1.370 . S
C1186 H1205 0.930 . S
Tb1187 N1184 2.600 . S
Tb1187 N1188 2.660 1_545 S
Tb1187 O1221 2.362 1_545 S
Tb1187 O1222 2.421 . S
Tb1187 O1226 2.546 . S
Tb1187 O1227 2.610 . S
Tb1187 O1229 2.320 1_545 S
Tb1187 O1230 2.552 . S
Tb1187 O1231 2.413 . S
Tb1187 C1251 2.833 . S
N1188 C1180 1.360 . S
N1188 Tb1187 2.660 1_565 S
N1188 C1189 1.305 . S
C1189 N1188 1.305 . S
C1189 C1191 1.407 . S
C1189 H1196 0.930 . S
C1190 C1178 1.410 . S
C1190 C1191 1.345 . S
C1190 H1198 0.930 . S
C1191 C1189 1.407 . S
C1191 C1190 1.345 . S
C1191 H1193 0.930 . S
H1192 C1185 0.930 . S
H1193 C1191 0.930 . S
H1194 C1182 0.930 . S
H1195 C1183 0.931 . S
H1196 C1189 0.930 . S
H1197 C1211 0.930 . S
H1198 C1190 0.930 . S
H1199 C1217 0.930 . S
H1200 C1208 0.930 . S
H1201 C1215 0.931 . S
H1202 C1179 0.929 . S
H1203 C1209 0.930 . S
H1204 C1242 0.930 . S
H1205 C1186 0.930 . S
H1206 C1241 0.929 . S
N1207 Tb1176 2.660 1_545 S
N1207 C1208 1.305 . S
N1207 C1212 1.360 . S
C1208 H1200 0.930 . S
C1208 N1207 1.305 . S
C1208 C1211 1.407 . S
C1209 H1203 0.930 . S
C1209 C1210 1.410 . S
C1209 C1211 1.345 . S
C1210 C1209 1.410 . S
C1210 C1212 1.417 . S
C1210 C1242 1.432 . S
C1211 H1197 0.930 . S
C1211 C1208 1.407 . S
C1211 C1209 1.345 . S
C1212 N1207 1.360 . S
C1212 C1210 1.417 . S
C1212 C1216 1.432 1_545 S
H1213 C1218 0.930 . S
N1214 Tb1176 2.600 . S
N1214 C1216 1.359 . S
N1214 C1217 1.327 . S
C1215 H1201 0.931 . S
C1215 C1217 1.392 . S
C1215 C1218 1.370 . S
C1216 C1212 1.432 1_565 S
C1216 N1214 1.359 . S
C1216 C1219 1.414 . S
C1217 H1199 0.930 . S
C1217 N1214 1.327 . S
C1217 C1215 1.392 . S
C1218 H1213 0.930 . S
C1218 C1215 1.370 . S
C1218 C1219 1.385 . S
C1219 C1216 1.414 . S
C1219 C1218 1.385 . S
C1219 C1241 1.444 1_565 S
O1220 Tb1176 2.546 . S
O1220 C1240 1.251 . S
O1221 Tb1176 2.610 . S
O1221 Tb1187 2.362 1_565 S
O1221 C1232 1.283 . S
O1222 Tb1187 2.421 . S
O1222 C1239 1.262 . S
O1223 Tb1176 2.320 1_545 S
O1223 C1239 1.260 . S
O1224 Tb1176 2.552 . S
O1224 C1232 1.243 . S
O1225 Tb1176 2.413 . S
O1225 C1240 1.256 . S
O1226 Tb1187 2.546 . S
O1226 C1251 1.251 . S
O1227 Tb1176 2.362 1_545 S
O1227 Tb1187 2.610 . S
O1227 C1243 1.283 . S
O1228 Tb1176 2.421 . S
O1228 C1250 1.262 . S
O1229 Tb1187 2.320 1_565 S
O1229 C1250 1.260 . S
O1230 Tb1187 2.552 . S
O1230 C1243 1.243 . S
O1231 Tb1187 2.413 . S
O1231 C1251 1.256 . S
C1232 O1221 1.283 . S
C1232 O1224 1.243 . S
C1233 C1235 1.382 . S
C1233 C1237 1.393 . S
C1233 C1240 1.500 . S
C1234 C1235 1.400 . S
C1234 C1236 1.384 . S
C1235 C1233 1.382 . S
C1235 C1234 1.400 . S
C1235 H1252 0.930 . S
C1236 C1234 1.384 . S
C1236 C1238 1.392 . S
C1236 H1253 0.931 . S
C1237 C1233 1.393 . S
C1237 C1238 1.401 . S
C1237 H1254 0.930 . S
C1238 C1236 1.392 . S
C1238 C1237 1.401 . S
C1238 H1255 0.930 . S
C1239 O1222 1.262 . S
C1239 O1223 1.260 . S
C1240 Tb1176 2.833 . S
C1240 O1220 1.251 . S
C1240 O1225 1.256 . S
C1240 C1233 1.500 . S
C1241 H1206 0.929 . S
C1241 C1219 1.444 1_545 S
C1241 C1242 1.317 . S
C1242 H1204 0.930 . S
C1242 C1210 1.432 . S
C1242 C1241 1.317 . S
C1243 O1227 1.283 . S
C1243 O1230 1.243 . S
C1244 C1245 1.382 . S
C1244 C1248 1.393 . S
C1244 C1251 1.500 . S
C1245 C1244 1.382 . S
C1245 C1246 1.400 . S
C1245 H1256 0.930 . S
C1246 C1245 1.400 . S
C1246 C1247 1.384 . S
C1247 C1246 1.384 . S
C1247 C1249 1.392 . S
C1247 H1257 0.931 . S
C1248 C1244 1.393 . S
C1248 C1249 1.401 . S
C1248 H1258 0.930 . S
C1249 C1247 1.392 . S
C1249 C1248 1.401 . S
C1249 H1259 0.930 . S
C1250 O1228 1.262 . S
C1250 O1229 1.260 . S
C1251 Tb1187 2.833 . S
C1251 O1226 1.251 . S
C1251 O1231 1.256 . S
C1251 C1244 1.500 . S
H1252 C1235 0.930 . S
H1253 C1236 0.931 . S
H1254 C1237 0.930 . S
H1255 C1238 0.930 . S
H1256 C1245 0.930 . S
H1257 C1247 0.931 . S
H1258 C1248 0.930 . S
H1259 C1249 0.930 . S
Tb1260 N1291 2.660 . S
Tb1260 N1298 2.600 . S
Tb1260 O1304 2.546 . S
Tb1260 O1305 2.610 1_554 S
Tb1260 O1307 2.320 1_554 S
Tb1260 O1308 2.552 1_554 S
Tb1260 O1309 2.413 . S
Tb1260 O1311 2.362 . S
Tb1260 O1312 2.421 . S
Tb1260 C1324 2.833 . S
C1261 C1264 1.432 . S
C1261 C1265 1.414 . S
C1261 N1268 1.359 . S
C1262 C1264 1.417 . S
C1262 C1266 1.432 . S
C1262 C1274 1.410 . S
C1263 C1265 1.444 . S
C1263 C1266 1.317 . S
C1263 H1286 0.929 . S
C1264 C1261 1.432 . S
C1264 C1262 1.417 . S
C1264 N1272 1.360 . S
C1265 C1261 1.414 . S
C1265 C1263 1.444 . S
C1265 C1270 1.385 . S
C1266 C1262 1.432 . S
C1266 C1263 1.317 . S
C1266 H1278 0.930 . S
C1267 C1269 1.392 . S
C1267 C1270 1.370 . S
C1267 H1279 0.931 . S
N1268 C1261 1.359 . S
N1268 C1269 1.327 . S
N1268 Tb1271 2.600 . S
C1269 C1267 1.392 . S
C1269 N1268 1.327 . S
C1269 H1276 0.930 . S
C1270 C1265 1.385 . S
C1270 C1267 1.370 . S
C1270 H1289 0.930 . S
Tb1271 N1268 2.600 . S
Tb1271 N1272 2.660 . S
Tb1271 O1305 2.362 . S
Tb1271 O1306 2.421 . S
Tb1271 O1310 2.546 . S
Tb1271 O1311 2.610 1_556 S
Tb1271 O1313 2.320 1_556 S
Tb1271 O1314 2.552 1_556 S
Tb1271 O1315 2.413 . S
Tb1271 C1335 2.833 . S
N1272 C1264 1.360 . S
N1272 Tb1271 2.660 . S
N1272 C1273 1.305 . S
C1273 N1272 1.305 . S
C1273 C1275 1.407 . S
C1273 H1280 0.930 . S
C1274 C1262 1.410 . S
C1274 C1275 1.345 . S
C1274 H1282 0.930 . S
C1275 C1273 1.407 . S
C1275 C1274 1.345 . S
C1275 H1277 0.930 . S
H1276 C1269 0.930 . S
H1277 C1275 0.930 . S
H1278 C1266 0.930 . S
H1279 C1267 0.931 . S
H1280 C1273 0.930 . S
H1281 C1295 0.930 . S
H1282 C1274 0.930 . S
H1283 C1301 0.930 . S
H1284 C1292 0.930 . S
H1285 C1299 0.931 . S
H1286 C1263 0.929 . S
H1287 C1293 0.930 . S
H1288 C1326 0.930 . S
H1289 C1270 0.930 . S
H1290 C1325 0.929 . S
N1291 Tb1260 2.660 . S
N1291 C1292 1.305 . S
N1291 C1296 1.360 . S
C1292 H1284 0.930 . S
C1292 N1291 1.305 . S
C1292 C1295 1.407 . S
C1293 H1287 0.930 . S
C1293 C1294 1.410 . S
C1293 C1295 1.345 . S
C1294 C1293 1.410 . S
C1294 C1296 1.417 . S
C1294 C1326 1.432 . S
C1295 H1281 0.930 . S
C1295 C1292 1.407 . S
C1295 C1293 1.345 . S
C1296 N1291 1.360 . S
C1296 C1294 1.417 . S
C1296 C1300 1.432 . S
H1297 C1302 0.930 . S
N1298 Tb1260 2.600 . S
N1298 C1300 1.359 . S
N1298 C1301 1.327 . S
C1299 H1285 0.931 . S
C1299 C1301 1.392 . S
C1299 C1302 1.370 . S
C1300 C1296 1.432 . S
C1300 N1298 1.359 . S
C1300 C1303 1.414 . S
C1301 H1283 0.930 . S
C1301 N1298 1.327 . S
C1301 C1299 1.392 . S
C1302 H1297 0.930 . S
C1302 C1299 1.370 . S
C1302 C1303 1.385 . S
C1303 C1300 1.414 . S
C1303 C1302 1.385 . S
C1303 C1325 1.444 . S
O1304 Tb1260 2.546 . S
O1304 C1324 1.251 . S
O1305 Tb1260 2.610 1_556 S
O1305 Tb1271 2.362 . S
O1305 C1316 1.283 . S
O1306 Tb1271 2.421 . S
O1306 C1323 1.262 . S
O1307 Tb1260 2.320 1_556 S
O1307 C1323 1.260 . S
O1308 Tb1260 2.552 1_556 S
O1308 C1316 1.243 . S
O1309 Tb1260 2.413 . S
O1309 C1324 1.256 . S
O1310 Tb1271 2.546 . S
O1310 C1335 1.251 . S
O1311 Tb1260 2.362 . S
O1311 Tb1271 2.610 1_554 S
O1311 C1327 1.283 . S
O1312 Tb1260 2.421 . S
O1312 C1334 1.262 . S
O1313 Tb1271 2.320 1_554 S
O1313 C1334 1.260 . S
O1314 Tb1271 2.552 1_554 S
O1314 C1327 1.243 . S
O1315 Tb1271 2.413 . S
O1315 C1335 1.256 . S
C1316 O1305 1.283 . S
C1316 O1308 1.243 . S
C1317 C1319 1.382 . S
C1317 C1321 1.393 . S
C1317 C1324 1.500 . S
C1318 C1319 1.400 . S
C1318 C1320 1.384 . S
C1319 C1317 1.382 . S
C1319 C1318 1.400 . S
C1319 H1336 0.930 . S
C1320 C1318 1.384 . S
C1320 C1322 1.392 . S
C1320 H1337 0.931 . S
C1321 C1317 1.393 . S
C1321 C1322 1.401 . S
C1321 H1338 0.930 . S
C1322 C1320 1.392 . S
C1322 C1321 1.401 . S
C1322 H1339 0.930 . S
C1323 O1306 1.262 . S
C1323 O1307 1.260 . S
C1324 Tb1260 2.833 . S
C1324 O1304 1.251 . S
C1324 O1309 1.256 . S
C1324 C1317 1.500 . S
C1325 H1290 0.929 . S
C1325 C1303 1.444 . S
C1325 C1326 1.317 . S
C1326 H1288 0.930 . S
C1326 C1294 1.432 . S
C1326 C1325 1.317 . S
C1327 O1311 1.283 . S
C1327 O1314 1.243 . S
C1328 C1329 1.382 . S
C1328 C1332 1.393 . S
C1328 C1335 1.500 . S
C1329 C1328 1.382 . S
C1329 C1330 1.400 . S
C1329 H1340 0.930 . S
C1330 C1329 1.400 . S
C1330 C1331 1.384 . S
C1331 C1330 1.384 . S
C1331 C1333 1.392 . S
C1331 H1341 0.931 . S
C1332 C1328 1.393 . S
C1332 C1333 1.401 . S
C1332 H1342 0.930 . S
C1333 C1331 1.392 . S
C1333 C1332 1.401 . S
C1333 H1343 0.930 . S
C1334 O1312 1.262 . S
C1334 O1313 1.260 . S
C1335 Tb1271 2.833 . S
C1335 O1310 1.251 . S
C1335 O1315 1.256 . S
C1335 C1328 1.500 . S
H1336 C1319 0.930 . S
H1337 C1320 0.931 . S
H1338 C1321 0.930 . S
H1339 C1322 0.930 . S
H1340 C1329 0.930 . S
H1341 C1331 0.931 . S
H1342 C1332 0.930 . S
H1343 C1333 0.930 . S
H1344 C1352 0.950 . S
H1345 C1357 0.950 . S
H1346 C1354 0.950 . S
H1347 C1356 0.950 . S
H1348 C1358 0.950 . S
H1349 C1360 0.950 . S
H1350 C1362 0.950 . S
H1351 C1363 0.950 1_655 S
C1352 H1344 0.950 . S
C1352 C1353 1.386 . S
C1352 C1354 1.391 . S
C1353 C1352 1.386 . S
C1353 C1357 1.393 1_655 S
C1354 H1346 0.950 . S
C1354 C1352 1.391 . S
C1354 C1355 1.400 1_655 S
C1355 C1354 1.400 1_455 S
C1355 C1356 1.398 . S
C1355 C1361 1.491 . S
C1356 H1347 0.950 . S
C1356 C1355 1.398 . S
C1356 C1357 1.391 . S
C1357 H1345 0.950 . S
C1357 C1353 1.393 1_455 S
C1357 C1356 1.391 . S
C1358 H1348 0.950 . S
C1358 C1359 1.386 . S
C1358 C1360 1.391 . S
C1359 C1358 1.386 . S
C1359 C1363 1.393 . S
C1360 H1349 0.950 . S
C1360 C1358 1.391 . S
C1360 C1361 1.400 . S
C1361 C1355 1.491 . S
C1361 C1360 1.400 . S
C1361 C1362 1.398 1_455 S
C1362 H1350 0.950 . S
C1362 C1361 1.398 1_655 S
C1362 C1363 1.391 1_655 S
C1363 H1351 0.950 1_455 S
C1363 C1359 1.393 . S
C1363 C1362 1.391 1_455 S
H1364 C1372 0.950 . S
H1365 C1377 0.950 . S
H1366 C1374 0.950 . S
H1367 C1376 0.950 . S
H1368 C1378 0.950 . S
H1369 C1380 0.950 . S
H1370 C1382 0.950 . S
H1371 C1383 0.950 . S
C1372 H1364 0.950 . S
C1372 C1373 1.386 . S
C1372 C1374 1.391 . S
C1373 C1372 1.386 . S
C1373 C1377 1.393 . S
C1374 H1366 0.950 . S
C1374 C1372 1.391 . S
C1374 C1375 1.400 . S
C1375 C1374 1.400 . S
C1375 C1376 1.398 . S
C1375 C1381 1.491 . S
C1376 H1367 0.950 . S
C1376 C1375 1.398 . S
C1376 C1377 1.391 . S
C1377 H1365 0.950 . S
C1377 C1373 1.393 . S
C1377 C1376 1.391 . S
C1378 H1368 0.950 . S
C1378 C1379 1.386 . S
C1378 C1380 1.391 . S
C1379 C1378 1.386 . S
C1379 C1383 1.393 . S
C1380 H1369 0.950 . S
C1380 C1378 1.391 . S
C1380 C1381 1.400 . S
C1381 C1375 1.491 . S
C1381 C1380 1.400 . S
C1381 C1382 1.398 . S
C1382 H1370 0.950 . S
C1382 C1381 1.398 . S
C1382 C1383 1.391 . S
C1383 H1371 0.950 . S
C1383 C1379 1.393 . S
C1383 C1382 1.391 . S
H1384 C1392 0.950 . S
H1385 C1397 0.950 . S
H1386 C1394 0.950 . S
H1387 C1396 0.950 . S
H1388 C1398 0.950 . S
H1389 C1400 0.950 . S
H1390 C1402 0.950 . S
H1391 C1403 0.950 . S
C1392 H1384 0.950 . S
C1392 C1393 1.386 . S
C1392 C1394 1.391 . S
C1393 C1392 1.386 . S
C1393 C1397 1.393 . S
C1394 H1386 0.950 . S
C1394 C1392 1.391 . S
C1394 C1395 1.400 . S
C1395 C1394 1.400 . S
C1395 C1396 1.398 . S
C1395 C1401 1.491 . S
C1396 H1387 0.950 . S
C1396 C1395 1.398 . S
C1396 C1397 1.391 . S
C1397 H1385 0.950 . S
C1397 C1393 1.393 . S
C1397 C1396 1.391 . S
C1398 H1388 0.950 . S
C1398 C1399 1.386 . S
C1398 C1400 1.391 . S
C1399 C1398 1.386 . S
C1399 C1403 1.393 . S
C1400 H1389 0.950 . S
C1400 C1398 1.391 . S
C1400 C1401 1.400 . S
C1401 C1395 1.491 . S
C1401 C1400 1.400 . S
C1401 C1402 1.398 . S
C1402 H1390 0.950 . S
C1402 C1401 1.398 . S
C1402 C1403 1.391 . S
C1403 H1391 0.950 . S
C1403 C1399 1.393 . S
C1403 C1402 1.391 . S
H1404 C1412 0.950 . S
H1405 C1417 0.950 . S
H1406 C1414 0.950 . S
H1407 C1416 0.950 . S
H1408 C1418 0.950 . S
H1409 C1420 0.950 . S
H1410 C1422 0.950 . S
H1411 C1423 0.950 . S
C1412 H1404 0.950 . S
C1412 C1413 1.386 1_565 S
C1412 C1414 1.391 . S
C1413 C1412 1.386 1_545 S
C1413 C1417 1.393 . S
C1414 H1406 0.950 . S
C1414 C1412 1.391 . S
C1414 C1415 1.399 1_565 S
C1415 C1414 1.399 1_545 S
C1415 C1416 1.400 . S
C1415 C1421 1.489 1_545 S
C1416 H1407 0.950 . S
C1416 C1415 1.400 . S
C1416 C1417 1.391 . S
C1417 H1405 0.950 . S
C1417 C1413 1.393 . S
C1417 C1416 1.391 . S
C1418 H1408 0.950 . S
C1418 C1419 1.386 1_545 S
C1418 C1420 1.391 . S
C1419 C1418 1.386 1_565 S
C1419 C1423 1.393 . S
C1420 H1409 0.950 . S
C1420 C1418 1.391 . S
C1420 C1421 1.400 1_545 S
C1421 C1415 1.489 1_565 S
C1421 C1420 1.400 1_565 S
C1421 C1422 1.398 . S
C1422 H1410 0.950 . S
C1422 C1421 1.398 . S
C1422 C1423 1.391 . S
C1423 H1411 0.950 . S
C1423 C1419 1.393 . S
C1423 C1422 1.391 . S
H1424 C1432 0.950 . S
H1425 C1437 0.950 . S
H1426 C1434 0.950 . S
H1427 C1436 0.950 . S
H1428 C1438 0.950 . S
H1429 C1440 0.950 . S
H1430 C1442 0.946 1_565 S
H1431 C1443 0.950 . S
C1432 H1424 0.950 . S
C1432 C1433 1.386 . S
C1432 C1434 1.391 . S
C1433 C1432 1.386 . S
C1433 C1437 1.393 1_565 S
C1434 H1426 0.950 . S
C1434 C1432 1.391 . S
C1434 C1435 1.400 1_565 S
C1435 C1434 1.400 1_545 S
C1435 C1436 1.398 . S
C1435 C1441 1.491 . S
C1436 H1427 0.950 . S
C1436 C1435 1.398 . S
C1436 C1437 1.391 . S
C1437 H1425 0.950 . S
C1437 C1433 1.393 1_545 S
C1437 C1436 1.391 . S
C1438 H1428 0.950 . S
C1438 C1439 1.386 . S
C1438 C1440 1.391 . S
C1439 C1438 1.386 . S
C1439 C1443 1.393 . S
C1440 H1429 0.950 . S
C1440 C1438 1.391 . S
C1440 C1441 1.400 . S
C1441 C1435 1.491 . S
C1441 C1440 1.400 . S
C1441 C1442 1.398 . S
C1442 H1430 0.946 1_545 S
C1442 C1441 1.398 . S
C1442 C1443 1.395 . S
C1443 H1431 0.950 . S
C1443 C1439 1.393 . S
C1443 C1442 1.395 . S
H1444 C1452 0.950 . S
H1445 C1457 0.950 . S
H1446 C1454 0.950 . S
H1447 C1456 0.950 . S
H1448 C1458 0.950 . S
H1449 C1460 0.950 . S
H1450 C1462 0.949 1_455 S
H1451 C1463 0.950 . S
C1452 H1444 0.950 . S
C1452 C1453 1.386 . S
C1452 C1454 1.391 . S
C1453 C1452 1.386 . S
C1453 C1457 1.393 1_455 S
C1454 H1446 0.950 . S
C1454 C1452 1.391 . S
C1454 C1455 1.400 1_455 S
C1455 C1454 1.400 1_655 S
C1455 C1456 1.398 . S
C1455 C1461 1.491 . S
C1456 H1447 0.950 . S
C1456 C1455 1.398 . S
C1456 C1457 1.391 . S
C1457 H1445 0.950 . S
C1457 C1453 1.393 1_655 S
C1457 C1456 1.391 . S
C1458 H1448 0.950 . S
C1458 C1459 1.386 . S
C1458 C1460 1.391 . S
C1459 C1458 1.386 . S
C1459 C1463 1.393 . S
C1460 H1449 0.950 . S
C1460 C1458 1.391 . S
C1460 C1461 1.400 . S
C1461 C1455 1.491 . S
C1461 C1460 1.400 . S
C1461 C1462 1.398 . S
C1462 H1450 0.949 1_655 S
C1462 C1461 1.398 . S
C1462 C1463 1.391 . S
C1463 H1451 0.950 . S
C1463 C1459 1.393 . S
C1463 C1462 1.391 . S
H1464 C1472 0.950 . S
H1465 C1477 0.950 . S
H1466 C1474 0.950 . S
H1467 C1476 0.950 . S
H1468 C1478 0.950 . S
H1469 C1480 0.950 . S
H1470 C1482 0.950 . S
H1471 C1483 0.950 . S
C1472 H1464 0.950 . S
C1472 C1473 1.386 . S
C1472 C1474 1.391 . S
C1473 C1472 1.386 . S
C1473 C1477 1.393 . S
C1474 H1466 0.950 . S
C1474 C1472 1.391 . S
C1474 C1475 1.400 . S
C1475 C1474 1.400 . S
C1475 C1476 1.398 . S
C1475 C1481 1.491 . S
C1476 H1467 0.950 . S
C1476 C1475 1.398 . S
C1476 C1477 1.391 . S
C1477 H1465 0.950 . S
C1477 C1473 1.393 . S
C1477 C1476 1.391 . S
C1478 H1468 0.950 . S
C1478 C1479 1.386 . S
C1478 C1480 1.391 . S
C1479 C1478 1.386 . S
C1479 C1483 1.393 . S
C1480 H1469 0.950 . S
C1480 C1478 1.391 . S
C1480 C1481 1.400 . S
C1481 C1475 1.491 . S
C1481 C1480 1.400 . S
C1481 C1482 1.398 . S
C1482 H1470 0.950 . S
C1482 C1481 1.398 . S
C1482 C1483 1.391 . S
C1483 H1471 0.950 . S
C1483 C1479 1.393 . S
C1483 C1482 1.391 . S
H1484 C1492 0.950 . S
H1485 C1497 0.950 . S
H1486 C1494 0.950 . S
H1487 C1496 0.950 . S
H1488 C1498 0.950 . S
H1489 C1500 0.950 . S
H1490 C1502 0.950 . S
H1491 C1503 0.950 . S
C1492 H1484 0.950 . S
C1492 C1493 1.386 . S
C1492 C1494 1.391 . S
C1493 C1492 1.386 . S
C1493 C1497 1.393 . S
C1494 H1486 0.950 . S
C1494 C1492 1.391 . S
C1494 C1495 1.400 . S
C1495 C1494 1.400 . S
C1495 C1496 1.398 . S
C1495 C1501 1.491 . S
C1496 H1487 0.950 . S
C1496 C1495 1.398 . S
C1496 C1497 1.391 . S
C1497 H1485 0.950 . S
C1497 C1493 1.393 . S
C1497 C1496 1.391 . S
C1498 H1488 0.950 . S
C1498 C1499 1.386 . S
C1498 C1500 1.391 . S
C1499 C1498 1.386 . S
C1499 C1503 1.393 . S
C1500 H1489 0.950 . S
C1500 C1498 1.391 . S
C1500 C1501 1.400 . S
C1501 C1495 1.491 . S
C1501 C1500 1.400 . S
C1501 C1502 1.398 . S
C1502 H1490 0.950 . S
C1502 C1501 1.398 . S
C1502 C1503 1.391 . S
C1503 H1491 0.950 . S
C1503 C1499 1.393 . S
C1503 C1502 1.391 . S
H1504 C1512 0.950 . S
H1505 C1517 0.950 . S
H1506 C1514 0.950 . S
H1507 C1516 0.950 . S
H1508 C1518 0.950 . S
H1509 C1520 0.950 . S
H1510 C1522 0.950 . S
H1511 C1523 0.950 . S
C1512 H1504 0.950 . S
C1512 C1513 1.386 . S
C1512 C1514 1.391 . S
C1513 C1512 1.386 . S
C1513 C1517 1.393 . S
C1514 H1506 0.950 . S
C1514 C1512 1.391 . S
C1514 C1515 1.400 . S
C1515 C1514 1.400 . S
C1515 C1516 1.398 . S
C1515 C1521 1.491 . S
C1516 H1507 0.950 . S
C1516 C1515 1.398 . S
C1516 C1517 1.391 . S
C1517 H1505 0.950 . S
C1517 C1513 1.393 . S
C1517 C1516 1.391 . S
C1518 H1508 0.950 . S
C1518 C1519 1.386 . S
C1518 C1520 1.391 . S
C1519 C1518 1.386 . S
C1519 C1523 1.393 . S
C1520 H1509 0.950 . S
C1520 C1518 1.391 . S
C1520 C1521 1.400 . S
C1521 C1515 1.491 . S
C1521 C1520 1.400 . S
C1521 C1522 1.398 . S
C1522 H1510 0.950 . S
C1522 C1521 1.398 . S
C1522 C1523 1.391 . S
C1523 H1511 0.950 . S
C1523 C1519 1.393 . S
C1523 C1522 1.391 . S
H1524 C1532 0.950 . S
H1525 C1537 0.950 . S
H1526 C1534 0.950 . S
H1527 C1536 0.950 . S
H1528 C1538 0.950 . S
H1529 C1540 0.950 . S
H1530 C1542 0.950 . S
H1531 C1543 0.950 . S
C1532 H1524 0.950 . S
C1532 C1533 1.386 . S
C1532 C1534 1.391 . S
C1533 C1532 1.386 . S
C1533 C1537 1.393 . S
C1534 H1526 0.950 . S
C1534 C1532 1.391 . S
C1534 C1535 1.400 . S
C1535 C1534 1.400 . S
C1535 C1536 1.398 . S
C1535 C1541 1.491 . S
C1536 H1527 0.950 . S
C1536 C1535 1.398 . S
C1536 C1537 1.391 . S
C1537 H1525 0.950 . S
C1537 C1533 1.393 . S
C1537 C1536 1.391 . S
C1538 H1528 0.950 . S
C1538 C1539 1.386 . S
C1538 C1540 1.391 . S
C1539 C1538 1.386 . S
C1539 C1543 1.393 . S
C1540 H1529 0.950 . S
C1540 C1538 1.391 . S
C1540 C1541 1.400 . S
C1541 C1535 1.491 . S
C1541 C1540 1.400 . S
C1541 C1542 1.398 . S
C1542 H1530 0.950 . S
C1542 C1541 1.398 . S
C1542 C1543 1.391 . S
C1543 H1531 0.950 . S
C1543 C1539 1.393 . S
C1543 C1542 1.391 . S
H1544 C1552 0.950 . S
H1545 C1557 0.950 . S
H1546 C1554 0.950 . S
H1547 C1556 0.951 1_545 S
H1548 C1558 0.950 . S
H1549 C1560 0.950 . S
H1550 C1562 0.950 . S
H1551 C1563 0.950 . S
C1552 H1544 0.950 . S
C1552 C1553 1.386 . S
C1552 C1554 1.391 . S
C1553 C1552 1.386 . S
C1553 C1557 1.393 . S
C1554 H1546 0.950 . S
C1554 C1552 1.391 . S
C1554 C1555 1.400 1_565 S
C1555 C1554 1.400 1_545 S
C1555 C1556 1.399 1_545 S
C1555 C1561 1.491 . S
C1556 H1547 0.951 1_565 S
C1556 C1555 1.399 1_565 S
C1556 C1557 1.388 . S
C1557 H1545 0.950 . S
C1557 C1553 1.393 . S
C1557 C1556 1.388 . S
C1558 H1548 0.950 . S
C1558 C1559 1.386 . S
C1558 C1560 1.391 . S
C1559 C1558 1.386 . S
C1559 C1563 1.393 . S
C1560 H1549 0.950 . S
C1560 C1558 1.391 . S
C1560 C1561 1.400 . S
C1561 C1555 1.491 . S
C1561 C1560 1.400 . S
C1561 C1562 1.398 . S
C1562 H1550 0.950 . S
C1562 C1561 1.398 . S
C1562 C1563 1.391 . S
C1563 H1551 0.950 . S
C1563 C1559 1.393 . S
C1563 C1562 1.391 . S
H1564 C1572 0.950 1_655 S
H1565 C1577 0.950 . S
H1566 C1574 0.950 . S
H1567 C1576 0.950 . S
H1568 C1578 0.950 . S
H1569 C1580 0.950 1_455 S
H1570 C1582 0.950 . S
H1571 C1583 0.950 . S
C1572 H1564 0.950 1_455 S
C1572 C1573 1.390 . S
C1572 C1574 1.387 1_455 S
C1573 C1572 1.390 . S
C1573 C1577 1.393 . S
C1574 H1566 0.950 . S
C1574 C1572 1.387 1_655 S
C1574 C1575 1.400 . S
C1575 C1574 1.400 . S
C1575 C1576 1.398 1_655 S
C1575 C1581 1.491 . S
C1576 H1567 0.950 . S
C1576 C1575 1.398 1_455 S
C1576 C1577 1.391 . S
C1577 H1565 0.950 . S
C1577 C1573 1.393 . S
C1577 C1576 1.391 . S
C1578 H1568 0.950 . S
C1578 C1579 1.386 . S
C1578 C1580 1.391 . S
C1579 C1578 1.386 . S
C1579 C1583 1.393 . S
C1580 H1569 0.950 1_655 S
C1580 C1578 1.391 . S
C1580 C1581 1.400 . S
C1581 C1575 1.491 . S
C1581 C1580 1.400 . S
C1581 C1582 1.398 . S
C1582 H1570 0.950 . S
C1582 C1581 1.398 . S
C1582 C1583 1.391 . S
C1583 H1571 0.950 . S
C1583 C1579 1.393 . S
C1583 C1582 1.391 . S
H1584 C1592 0.950 . S
H1585 C1597 0.950 . S
H1586 C1594 0.950 . S
H1587 C1596 0.950 1_554 S
H1588 C1598 0.950 . S
H1589 C1600 0.950 . S
H1590 C1602 0.950 . S
H1591 C1603 0.950 . S
C1592 H1584 0.950 . S
C1592 C1593 1.386 . S
C1592 C1594 1.391 . S
C1593 C1592 1.386 . S
C1593 C1597 1.393 . S
C1594 H1586 0.950 . S
C1594 C1592 1.391 . S
C1594 C1595 1.400 . S
C1595 C1594 1.400 . S
C1595 C1596 1.398 . S
C1595 C1601 1.491 . S
C1596 H1587 0.950 1_556 S
C1596 C1595 1.398 . S
C1596 C1597 1.391 . S
C1597 H1585 0.950 . S
C1597 C1593 1.393 . S
C1597 C1596 1.391 . S
C1598 H1588 0.950 . S
C1598 C1599 1.386 1_554 S
C1598 C1600 1.391 . S
C1599 C1598 1.386 1_556 S
C1599 C1603 1.393 . S
C1600 H1589 0.950 . S
C1600 C1598 1.391 . S
C1600 C1601 1.400 1_554 S
C1601 C1595 1.491 . S
C1601 C1600 1.400 1_556 S
C1601 C1602 1.398 . S
C1602 H1590 0.950 . S
C1602 C1601 1.398 . S
C1602 C1603 1.391 . S
C1603 H1591 0.950 . S
C1603 C1599 1.393 . S
C1603 C1602 1.391 . S
H1604 C1612 0.950 . S
H1605 C1617 0.950 . S
H1606 C1614 0.950 . S
H1607 C1616 0.950 . S
H1608 C1618 0.950 . S
H1609 C1620 0.950 . S
H1610 C1622 0.950 . S
H1611 C1623 0.950 . S
C1612 H1604 0.950 . S
C1612 C1613 1.386 . S
C1612 C1614 1.391 . S
C1613 C1612 1.386 . S
C1613 C1617 1.393 . S
C1614 H1606 0.950 . S
C1614 C1612 1.391 . S
C1614 C1615 1.400 . S
C1615 C1614 1.400 . S
C1615 C1616 1.398 . S
C1615 C1621 1.491 . S
C1616 H1607 0.950 . S
C1616 C1615 1.398 . S
C1616 C1617 1.391 . S
C1617 H1605 0.950 . S
C1617 C1613 1.393 . S
C1617 C1616 1.391 . S
C1618 H1608 0.950 . S
C1618 C1619 1.386 . S
C1618 C1620 1.391 . S
C1619 C1618 1.386 . S
C1619 C1623 1.393 . S
C1620 H1609 0.950 . S
C1620 C1618 1.391 . S
C1620 C1621 1.400 . S
C1621 C1615 1.491 . S
C1621 C1620 1.400 . S
C1621 C1622 1.398 . S
C1622 H1610 0.950 . S
C1622 C1621 1.398 . S
C1622 C1623 1.391 . S
C1623 H1611 0.950 . S
C1623 C1619 1.393 . S
C1623 C1622 1.391 . S
H1624 C1632 0.950 . S
H1625 C1637 0.950 . S
H1626 C1634 0.950 . S
H1627 C1636 0.950 . S
H1628 C1638 0.950 . S
H1629 C1640 0.950 . S
H1630 C1642 0.950 . S
H1631 C1643 0.950 . S
C1632 H1624 0.950 . S
C1632 C1633 1.386 . S
C1632 C1634 1.391 . S
C1633 C1632 1.386 . S
C1633 C1637 1.393 . S
C1634 H1626 0.950 . S
C1634 C1632 1.391 . S
C1634 C1635 1.400 . S
C1635 C1634 1.400 . S
C1635 C1636 1.398 . S
C1635 C1641 1.491 . S
C1636 H1627 0.950 . S
C1636 C1635 1.398 . S
C1636 C1637 1.391 . S
C1637 H1625 0.950 . S
C1637 C1633 1.393 . S
C1637 C1636 1.391 . S
C1638 H1628 0.950 . S
C1638 C1639 1.386 . S
C1638 C1640 1.391 . S
C1639 C1638 1.386 . S
C1639 C1643 1.393 . S
C1640 H1629 0.950 . S
C1640 C1638 1.391 . S
C1640 C1641 1.400 . S
C1641 C1635 1.491 . S
C1641 C1640 1.400 . S
C1641 C1642 1.398 . S
C1642 H1630 0.950 . S
C1642 C1641 1.398 . S
C1642 C1643 1.391 . S
C1643 H1631 0.950 . S
C1643 C1639 1.393 . S
C1643 C1642 1.391 . S
H1644 C1652 0.950 . S
H1645 C1657 0.950 . S
H1646 C1654 0.950 . S
H1647 C1656 0.950 . S
H1648 C1658 0.950 . S
H1649 C1660 0.950 . S
H1650 C1662 0.950 . S
H1651 C1663 0.950 . S
C1652 H1644 0.950 . S
C1652 C1653 1.386 . S
C1652 C1654 1.391 . S
C1653 C1652 1.386 . S
C1653 C1657 1.393 . S
C1654 H1646 0.950 . S
C1654 C1652 1.391 . S
C1654 C1655 1.400 . S
C1655 C1654 1.400 . S
C1655 C1656 1.398 . S
C1655 C1661 1.491 . S
C1656 H1647 0.950 . S
C1656 C1655 1.398 . S
C1656 C1657 1.391 . S
C1657 H1645 0.950 . S
C1657 C1653 1.393 . S
C1657 C1656 1.391 . S
C1658 H1648 0.950 . S
C1658 C1659 1.386 . S
C1658 C1660 1.391 . S
C1659 C1658 1.386 . S
C1659 C1663 1.393 . S
C1660 H1649 0.950 . S
C1660 C1658 1.391 . S
C1660 C1661 1.400 . S
C1661 C1655 1.491 . S
C1661 C1660 1.400 . S
C1661 C1662 1.398 . S
C1662 H1650 0.950 . S
C1662 C1661 1.398 . S
C1662 C1663 1.391 . S
C1663 H1651 0.950 . S
C1663 C1659 1.393 . S
C1663 C1662 1.391 . S
H1664 C1672 0.950 . S
H1665 C1677 0.950 . S
H1666 C1674 0.950 . S
H1667 C1676 0.950 . S
H1668 C1678 0.950 . S
H1669 C1680 0.950 . S
H1670 C1682 0.950 . S
H1671 C1683 0.950 . S
C1672 H1664 0.950 . S
C1672 C1673 1.386 . S
C1672 C1674 1.391 . S
C1673 C1672 1.386 . S
C1673 C1677 1.393 . S
C1674 H1666 0.950 . S
C1674 C1672 1.391 . S
C1674 C1675 1.400 . S
C1675 C1674 1.400 . S
C1675 C1676 1.398 . S
C1675 C1681 1.491 . S
C1676 H1667 0.950 . S
C1676 C1675 1.398 . S
C1676 C1677 1.391 . S
C1677 H1665 0.950 . S
C1677 C1673 1.393 . S
C1677 C1676 1.391 . S
C1678 H1668 0.950 . S
C1678 C1679 1.386 . S
C1678 C1680 1.391 . S
C1679 C1678 1.386 . S
C1679 C1683 1.393 . S
C1680 H1669 0.950 . S
C1680 C1678 1.391 . S
C1680 C1681 1.400 . S
C1681 C1675 1.491 . S
C1681 C1680 1.400 . S
C1681 C1682 1.398 . S
C1682 H1670 0.950 . S
C1682 C1681 1.398 . S
C1682 C1683 1.391 . S
C1683 H1671 0.950 . S
C1683 C1679 1.393 . S
C1683 C1682 1.391 . S
H1684 C1692 0.950 . S
H1685 C1697 0.950 . S
H1686 C1694 0.950 . S
H1687 C1696 0.950 . S
H1688 C1698 0.950 . S
H1689 C1700 0.950 . S
H1690 C1702 0.950 . S
H1691 C1703 0.950 . S
C1692 H1684 0.950 . S
C1692 C1693 1.386 . S
C1692 C1694 1.391 . S
C1693 C1692 1.386 . S
C1693 C1697 1.393 . S
C1694 H1686 0.950 . S
C1694 C1692 1.391 . S
C1694 C1695 1.400 . S
C1695 C1694 1.400 . S
C1695 C1696 1.398 . S
C1695 C1701 1.491 . S
C1696 H1687 0.950 . S
C1696 C1695 1.398 . S
C1696 C1697 1.391 . S
C1697 H1685 0.950 . S
C1697 C1693 1.393 . S
C1697 C1696 1.391 . S
C1698 H1688 0.950 . S
C1698 C1699 1.386 . S
C1698 C1700 1.391 . S
C1699 C1698 1.386 . S
C1699 C1703 1.393 . S
C1700 H1689 0.950 . S
C1700 C1698 1.391 . S
C1700 C1701 1.400 . S
C1701 C1695 1.491 . S
C1701 C1700 1.400 . S
C1701 C1702 1.398 . S
C1702 H1690 0.950 . S
C1702 C1701 1.398 . S
C1702 C1703 1.391 . S
C1703 H1691 0.950 . S
C1703 C1699 1.393 . S
C1703 C1702 1.391 . S
H1704 C1712 0.950 . S
H1705 C1717 0.950 . S
H1706 C1714 0.950 . S
H1707 C1716 0.950 . S
H1708 C1718 0.950 . S
H1709 C1720 0.950 . S
H1710 C1722 0.950 . S
H1711 C1723 0.950 . S
C1712 H1704 0.950 . S
C1712 C1713 1.386 . S
C1712 C1714 1.391 . S
C1713 C1712 1.386 . S
C1713 C1717 1.393 . S
C1714 H1706 0.950 . S
C1714 C1712 1.391 . S
C1714 C1715 1.400 . S
C1715 C1714 1.400 . S
C1715 C1716 1.398 . S
C1715 C1721 1.491 . S
C1716 H1707 0.950 . S
C1716 C1715 1.398 . S
C1716 C1717 1.391 . S
C1717 H1705 0.950 . S
C1717 C1713 1.393 . S
C1717 C1716 1.391 . S
C1718 H1708 0.950 . S
C1718 C1719 1.386 . S
C1718 C1720 1.391 . S
C1719 C1718 1.386 . S
C1719 C1723 1.393 . S
C1720 H1709 0.950 . S
C1720 C1718 1.391 . S
C1720 C1721 1.400 . S
C1721 C1715 1.491 . S
C1721 C1720 1.400 . S
C1721 C1722 1.398 . S
C1722 H1710 0.950 . S
C1722 C1721 1.398 . S
C1722 C1723 1.391 . S
C1723 H1711 0.950 . S
C1723 C1719 1.393 . S
C1723 C1722 1.391 . S
H1724 C1732 0.950 . S
H1725 C1737 0.950 . S
H1726 C1734 0.950 . S
H1727 C1736 0.950 . S
H1728 C1738 0.950 . S
H1729 C1740 0.950 . S
H1730 C1742 0.950 . S
H1731 C1743 0.950 . S
C1732 H1724 0.950 . S
C1732 C1733 1.386 . S
C1732 C1734 1.391 . S
C1733 C1732 1.386 . S
C1733 C1737 1.393 . S
C1734 H1726 0.950 . S
C1734 C1732 1.391 . S
C1734 C1735 1.400 . S
C1735 C1734 1.400 . S
C1735 C1736 1.398 . S
C1735 C1741 1.491 . S
C1736 H1727 0.950 . S
C1736 C1735 1.398 . S
C1736 C1737 1.391 . S
C1737 H1725 0.950 . S
C1737 C1733 1.393 . S
C1737 C1736 1.391 . S
C1738 H1728 0.950 . S
C1738 C1739 1.386 . S
C1738 C1740 1.391 . S
C1739 C1738 1.386 . S
C1739 C1743 1.393 . S
C1740 H1729 0.950 . S
C1740 C1738 1.391 . S
C1740 C1741 1.400 . S
C1741 C1735 1.491 . S
C1741 C1740 1.400 . S
C1741 C1742 1.398 . S
C1742 H1730 0.950 . S
C1742 C1741 1.398 . S
C1742 C1743 1.391 . S
C1743 H1731 0.950 . S
C1743 C1739 1.393 . S
C1743 C1742 1.391 . S
H1744 C1752 0.950 . S
H1745 C1757 0.950 . S
H1746 C1754 0.950 . S
H1747 C1756 0.950 . S
H1748 C1758 0.950 . S
H1749 C1760 0.950 . S
H1750 C1762 0.950 . S
H1751 C1763 0.950 . S
C1752 H1744 0.950 . S
C1752 C1753 1.386 . S
C1752 C1754 1.391 . S
C1753 C1752 1.386 . S
C1753 C1757 1.393 . S
C1754 H1746 0.950 . S
C1754 C1752 1.391 . S
C1754 C1755 1.400 . S
C1755 C1754 1.400 . S
C1755 C1756 1.398 . S
C1755 C1761 1.491 . S
C1756 H1747 0.950 . S
C1756 C1755 1.398 . S
C1756 C1757 1.391 . S
C1757 H1745 0.950 . S
C1757 C1753 1.393 . S
C1757 C1756 1.391 . S
C1758 H1748 0.950 . S
C1758 C1759 1.386 . S
C1758 C1760 1.391 . S
C1759 C1758 1.386 . S
C1759 C1763 1.393 . S
C1760 H1749 0.950 . S
C1760 C1758 1.391 . S
C1760 C1761 1.400 . S
C1761 C1755 1.491 . S
C1761 C1760 1.400 . S
C1761 C1762 1.398 . S
C1762 H1750 0.950 . S
C1762 C1761 1.398 . S
C1762 C1763 1.391 . S
C1763 H1751 0.950 . S
C1763 C1759 1.393 . S
C1763 C1762 1.391 . S
H1764 C1772 0.950 . S
H1765 C1777 0.950 . S
H1766 C1774 0.950 . S
H1767 C1776 0.950 . S
H1768 C1778 0.950 . S
H1769 C1780 0.950 . S
H1770 C1782 0.950 . S
H1771 C1783 0.950 . S
C1772 H1764 0.950 . S
C1772 C1773 1.386 . S
C1772 C1774 1.391 . S
C1773 C1772 1.386 . S
C1773 C1777 1.393 1_455 S
C1774 H1766 0.950 . S
C1774 C1772 1.391 . S
C1774 C1775 1.400 . S
C1775 C1774 1.400 . S
C1775 C1776 1.398 1_455 S
C1775 C1781 1.491 . S
C1776 H1767 0.950 . S
C1776 C1775 1.398 1_655 S
C1776 C1777 1.391 . S
C1777 H1765 0.950 . S
C1777 C1773 1.393 1_655 S
C1777 C1776 1.391 . S
C1778 H1768 0.950 . S
C1778 C1779 1.386 . S
C1778 C1780 1.391 . S
C1779 C1778 1.386 . S
C1779 C1783 1.393 1_655 S
C1780 H1769 0.950 . S
C1780 C1778 1.391 . S
C1780 C1781 1.400 1_655 S
C1781 C1775 1.491 . S
C1781 C1780 1.400 1_455 S
C1781 C1782 1.398 . S
C1782 H1770 0.950 . S
C1782 C1781 1.398 . S
C1782 C1783 1.391 . S
C1783 H1771 0.950 . S
C1783 C1779 1.393 1_455 S
C1783 C1782 1.391 . S
H1784 C1792 0.950 . S
H1785 C1797 0.950 . S
H1786 C1794 0.950 . S
H1787 C1796 0.950 . S
H1788 C1798 0.950 . S
H1789 C1800 0.950 . S
H1790 C1802 0.950 . S
H1791 C1803 0.950 . S
C1792 H1784 0.950 . S
C1792 C1793 1.386 . S
C1792 C1794 1.391 . S
C1793 C1792 1.386 . S
C1793 C1797 1.393 . S
C1794 H1786 0.950 . S
C1794 C1792 1.391 . S
C1794 C1795 1.400 . S
C1795 C1794 1.400 . S
C1795 C1796 1.398 . S
C1795 C1801 1.491 . S
C1796 H1787 0.950 . S
C1796 C1795 1.398 . S
C1796 C1797 1.391 . S
C1797 H1785 0.950 . S
C1797 C1793 1.393 . S
C1797 C1796 1.391 . S
C1798 H1788 0.950 . S
C1798 C1799 1.386 . S
C1798 C1800 1.391 . S
C1799 C1798 1.386 . S
C1799 C1803 1.393 . S
C1800 H1789 0.950 . S
C1800 C1798 1.391 . S
C1800 C1801 1.400 . S
C1801 C1795 1.491 . S
C1801 C1800 1.400 . S
C1801 C1802 1.398 . S
C1802 H1790 0.950 . S
C1802 C1801 1.398 . S
C1802 C1803 1.391 . S
C1803 H1791 0.950 . S
C1803 C1799 1.393 . S
C1803 C1802 1.391 . S
H1804 C1812 0.950 . S
H1805 C1817 0.950 . S
H1806 C1814 0.950 . S
H1807 C1816 0.950 . S
H1808 C1818 0.950 . S
H1809 C1820 0.950 . S
H1810 C1822 0.950 . S
H1811 C1823 0.950 . S
C1812 H1804 0.950 . S
C1812 C1813 1.386 . S
C1812 C1814 1.391 . S
C1813 C1812 1.386 . S
C1813 C1817 1.393 . S
C1814 H1806 0.950 . S
C1814 C1812 1.391 . S
C1814 C1815 1.400 . S
C1815 C1814 1.400 . S
C1815 C1816 1.398 . S
C1815 C1821 1.491 . S
C1816 H1807 0.950 . S
C1816 C1815 1.398 . S
C1816 C1817 1.391 . S
C1817 H1805 0.950 . S
C1817 C1813 1.393 . S
C1817 C1816 1.391 . S
C1818 H1808 0.950 . S
C1818 C1819 1.386 . S
C1818 C1820 1.391 . S
C1819 C1818 1.386 . S
C1819 C1823 1.393 . S
C1820 H1809 0.950 . S
C1820 C1818 1.391 . S
C1820 C1821 1.400 . S
C1821 C1815 1.491 . S
C1821 C1820 1.400 . S
C1821 C1822 1.398 . S
C1822 H1810 0.950 . S
C1822 C1821 1.398 . S
C1822 C1823 1.391 . S
C1823 H1811 0.950 . S
C1823 C1819 1.393 . S
C1823 C1822 1.391 . S
H1824 C1832 0.950 . S
H1825 C1837 0.950 . S
H1826 C1834 0.950 . S
H1827 C1836 0.950 . S
H1828 C1838 0.950 . S
H1829 C1840 0.950 . S
H1830 C1842 0.950 . S
H1831 C1843 0.950 . S
C1832 H1824 0.950 . S
C1832 C1833 1.386 . S
C1832 C1834 1.391 . S
C1833 C1832 1.386 . S
C1833 C1837 1.393 . S
C1834 H1826 0.950 . S
C1834 C1832 1.391 . S
C1834 C1835 1.400 . S
C1835 C1834 1.400 . S
C1835 C1836 1.398 . S
C1835 C1841 1.491 . S
C1836 H1827 0.950 . S
C1836 C1835 1.398 . S
C1836 C1837 1.391 . S
C1837 H1825 0.950 . S
C1837 C1833 1.393 . S
C1837 C1836 1.391 . S
C1838 H1828 0.950 . S
C1838 C1839 1.386 . S
C1838 C1840 1.391 . S
C1839 C1838 1.386 . S
C1839 C1843 1.393 . S
C1840 H1829 0.950 . S
C1840 C1838 1.391 . S
C1840 C1841 1.400 . S
C1841 C1835 1.491 . S
C1841 C1840 1.400 . S
C1841 C1842 1.398 . S
C1842 H1830 0.950 . S
C1842 C1841 1.398 . S
C1842 C1843 1.391 . S
C1843 H1831 0.950 . S
C1843 C1839 1.393 . S
C1843 C1842 1.391 . S
H1844 C1852 0.950 . S
H1845 C1857 0.950 . S
H1846 C1854 0.950 . S
H1847 C1856 0.950 . S
H1848 C1858 0.950 . S
H1849 C1860 0.950 . S
H1850 C1862 0.950 . S
H1851 C1863 0.950 . S
C1852 H1844 0.950 . S
C1852 C1853 1.386 . S
C1852 C1854 1.391 . S
C1853 C1852 1.386 . S
C1853 C1857 1.393 . S
C1854 H1846 0.950 . S
C1854 C1852 1.391 . S
C1854 C1855 1.400 . S
C1855 C1854 1.400 . S
C1855 C1856 1.398 . S
C1855 C1861 1.491 . S
C1856 H1847 0.950 . S
C1856 C1855 1.398 . S
C1856 C1857 1.391 . S
C1857 H1845 0.950 . S
C1857 C1853 1.393 . S
C1857 C1856 1.391 . S
C1858 H1848 0.950 . S
C1858 C1859 1.386 . S
C1858 C1860 1.391 . S
C1859 C1858 1.386 . S
C1859 C1863 1.393 . S
C1860 H1849 0.950 . S
C1860 C1858 1.391 . S
C1860 C1861 1.400 . S
C1861 C1855 1.491 . S
C1861 C1860 1.400 . S
C1861 C1862 1.398 . S
C1862 H1850 0.950 . S
C1862 C1861 1.398 . S
C1862 C1863 1.391 . S
C1863 H1851 0.950 . S
C1863 C1859 1.393 . S
C1863 C1862 1.391 . S
H1864 C1872 0.950 . S
H1865 C1877 0.950 . S
H1866 C1874 0.950 . S
H1867 C1876 0.950 . S
H1868 C1878 0.950 . S
H1869 C1880 0.950 . S
H1870 C1882 0.950 . S
H1871 C1883 0.950 . S
C1872 H1864 0.950 . S
C1872 C1873 1.386 . S
C1872 C1874 1.391 . S
C1873 C1872 1.386 . S
C1873 C1877 1.393 1_565 S
C1874 H1866 0.950 . S
C1874 C1872 1.391 . S
C1874 C1875 1.400 . S
C1875 C1874 1.400 . S
C1875 C1876 1.398 1_565 S
C1875 C1881 1.489 . S
C1876 H1867 0.950 . S
C1876 C1875 1.398 1_545 S
C1876 C1877 1.391 . S
C1877 H1865 0.950 . S
C1877 C1873 1.393 1_545 S
C1877 C1876 1.391 . S
C1878 H1868 0.950 . S
C1878 C1879 1.386 . S
C1878 C1880 1.391 . S
C1879 C1878 1.386 . S
C1879 C1883 1.393 1_545 S
C1880 H1869 0.950 . S
C1880 C1878 1.391 . S
C1880 C1881 1.402 1_545 S
C1881 C1875 1.489 . S
C1881 C1880 1.402 1_565 S
C1881 C1882 1.398 . S
C1882 H1870 0.950 . S
C1882 C1881 1.398 . S
C1882 C1883 1.391 . S
C1883 H1871 0.950 . S
C1883 C1879 1.393 1_565 S
C1883 C1882 1.391 . S
H1884 C1892 0.950 . S
H1885 C1897 0.950 . S
H1886 C1894 0.950 . S
H1887 C1896 0.950 . S
H1888 C1898 0.935 1_556 S
H1889 C1900 0.950 1_556 S
H1890 C1902 0.950 . S
H1891 C1903 0.950 . S
C1892 H1884 0.950 . S
C1892 C1893 1.386 . S
C1892 C1894 1.391 . S
C1893 C1892 1.386 . S
C1893 C1897 1.393 1_554 S
C1894 H1886 0.950 . S
C1894 C1892 1.391 . S
C1894 C1895 1.400 . S
C1895 C1894 1.400 . S
C1895 C1896 1.398 1_554 S
C1895 C1901 1.491 . S
C1896 H1887 0.950 . S
C1896 C1895 1.398 1_556 S
C1896 C1897 1.391 . S
C1897 H1885 0.950 . S
C1897 C1893 1.393 1_556 S
C1897 C1896 1.391 . S
C1898 H1888 0.935 1_554 S
C1898 C1899 1.386 . S
C1898 C1900 1.391 . S
C1899 C1898 1.386 . S
C1899 C1903 1.393 . S
C1900 H1889 0.950 1_554 S
C1900 C1898 1.391 . S
C1900 C1901 1.400 . S
C1901 C1895 1.491 . S
C1901 C1900 1.400 . S
C1901 C1902 1.398 . S
C1902 H1890 0.950 . S
C1902 C1901 1.398 . S
C1902 C1903 1.391 . S
C1903 H1891 0.950 . S
C1903 C1899 1.393 . S
C1903 C1902 1.391 . S
H1904 C1912 0.950 . S
H1905 C1917 0.950 . S
H1906 C1914 0.950 . S
H1907 C1916 0.950 . S
H1908 C1918 0.950 . S
H1909 C1920 0.950 . S
H1910 C1922 0.950 . S
H1911 C1923 0.950 . S
C1912 H1904 0.950 . S
C1912 C1913 1.386 . S
C1912 C1914 1.391 . S
C1913 C1912 1.386 . S
C1913 C1917 1.393 . S
C1914 H1906 0.950 . S
C1914 C1912 1.391 . S
C1914 C1915 1.400 . S
C1915 C1914 1.400 . S
C1915 C1916 1.398 . S
C1915 C1921 1.491 . S
C1916 H1907 0.950 . S
C1916 C1915 1.398 . S
C1916 C1917 1.391 . S
C1917 H1905 0.950 . S
C1917 C1913 1.393 . S
C1917 C1916 1.391 . S
C1918 H1908 0.950 . S
C1918 C1919 1.386 . S
C1918 C1920 1.391 . S
C1919 C1918 1.386 . S
C1919 C1923 1.393 . S
C1920 H1909 0.950 . S
C1920 C1918 1.391 . S
C1920 C1921 1.400 . S
C1921 C1915 1.491 . S
C1921 C1920 1.400 . S
C1921 C1922 1.398 . S
C1922 H1910 0.950 . S
C1922 C1921 1.398 . S
C1922 C1923 1.391 . S
C1923 H1911 0.950 . S
C1923 C1919 1.393 . S
C1923 C1922 1.391 . S
H1924 C1932 0.950 . S
H1925 C1937 0.950 . S
H1926 C1934 0.950 . S
H1927 C1936 0.950 . S
H1928 C1938 0.950 . S
H1929 C1940 0.950 . S
H1930 C1942 0.950 . S
H1931 C1943 0.950 . S
C1932 H1924 0.950 . S
C1932 C1933 1.386 . S
C1932 C1934 1.391 . S
C1933 C1932 1.386 . S
C1933 C1937 1.393 . S
C1934 H1926 0.950 . S
C1934 C1932 1.391 . S
C1934 C1935 1.400 . S
C1935 C1934 1.400 . S
C1935 C1936 1.398 . S
C1935 C1941 1.491 . S
C1936 H1927 0.950 . S
C1936 C1935 1.398 . S
C1936 C1937 1.391 . S
C1937 H1925 0.950 . S
C1937 C1933 1.393 . S
C1937 C1936 1.391 . S
C1938 H1928 0.950 . S
C1938 C1939 1.386 . S
C1938 C1940 1.391 . S
C1939 C1938 1.386 . S
C1939 C1943 1.393 . S
C1940 H1929 0.950 . S
C1940 C1938 1.391 . S
C1940 C1941 1.400 . S
C1941 C1935 1.491 . S
C1941 C1940 1.400 . S
C1941 C1942 1.398 . S
C1942 H1930 0.950 . S
C1942 C1941 1.398 . S
C1942 C1943 1.391 . S
C1943 H1931 0.950 . S
C1943 C1939 1.393 . S
C1943 C1942 1.391 . S
H1944 C1952 0.950 . S
H1945 C1957 0.950 . S
H1946 C1954 0.950 . S
H1947 C1956 0.950 . S
H1948 C1958 0.950 . S
H1949 C1960 0.950 . S
H1950 C1962 0.950 . S
H1951 C1963 0.950 . S
C1952 H1944 0.950 . S
C1952 C1953 1.386 . S
C1952 C1954 1.391 . S
C1953 C1952 1.386 . S
C1953 C1957 1.393 . S
C1954 H1946 0.950 . S
C1954 C1952 1.391 . S
C1954 C1955 1.400 . S
C1955 C1954 1.400 . S
C1955 C1956 1.398 . S
C1955 C1961 1.491 . S
C1956 H1947 0.950 . S
C1956 C1955 1.398 . S
C1956 C1957 1.391 . S
C1957 H1945 0.950 . S
C1957 C1953 1.393 . S
C1957 C1956 1.391 . S
C1958 H1948 0.950 . S
C1958 C1959 1.386 . S
C1958 C1960 1.391 . S
C1959 C1958 1.386 . S
C1959 C1963 1.393 . S
C1960 H1949 0.950 . S
C1960 C1958 1.391 . S
C1960 C1961 1.400 . S
C1961 C1955 1.491 . S
C1961 C1960 1.400 . S
C1961 C1962 1.398 . S
C1962 H1950 0.950 . S
C1962 C1961 1.398 . S
C1962 C1963 1.391 . S
C1963 H1951 0.950 . S
C1963 C1959 1.393 . S
C1963 C1962 1.391 . S
H1964 C1972 0.950 . S
H1965 C1977 0.950 . S
H1966 C1974 0.950 . S
H1967 C1976 0.950 . S
H1968 C1978 0.950 . S
H1969 C1980 0.950 . S
H1970 C1982 0.950 . S
H1971 C1983 0.950 . S
C1972 H1964 0.950 . S
C1972 C1973 1.386 . S
C1972 C1974 1.391 . S
C1973 C1972 1.386 . S
C1973 C1977 1.393 . S
C1974 H1966 0.950 . S
C1974 C1972 1.391 . S
C1974 C1975 1.400 . S
C1975 C1974 1.400 . S
C1975 C1976 1.398 . S
C1975 C1981 1.491 . S
C1976 H1967 0.950 . S
C1976 C1975 1.398 . S
C1976 C1977 1.391 . S
C1977 H1965 0.950 . S
C1977 C1973 1.393 . S
C1977 C1976 1.391 . S
C1978 H1968 0.950 . S
C1978 C1979 1.386 . S
C1978 C1980 1.391 . S
C1979 C1978 1.386 . S
C1979 C1983 1.393 . S
C1980 H1969 0.950 . S
C1980 C1978 1.391 . S
C1980 C1981 1.400 . S
C1981 C1975 1.491 . S
C1981 C1980 1.400 . S
C1981 C1982 1.398 . S
C1982 H1970 0.950 . S
C1982 C1981 1.398 . S
C1982 C1983 1.391 . S
C1983 H1971 0.950 . S
C1983 C1979 1.393 . S
C1983 C1982 1.391 . S
H1984 C1992 0.950 . S
H1985 C1997 0.950 . S
H1986 C1994 0.950 . S
H1987 C1996 0.950 . S
H1988 C1998 0.950 . S
H1989 C2000 0.950 . S
H1990 C2002 0.950 . S
H1991 C2003 0.950 . S
C1992 H1984 0.950 . S
C1992 C1993 1.386 . S
C1992 C1994 1.391 . S
C1993 C1992 1.386 . S
C1993 C1997 1.393 . S
C1994 H1986 0.950 . S
C1994 C1992 1.391 . S
C1994 C1995 1.400 . S
C1995 C1994 1.400 . S
C1995 C1996 1.398 . S
C1995 C2001 1.491 . S
C1996 H1987 0.950 . S
C1996 C1995 1.398 . S
C1996 C1997 1.391 . S
C1997 H1985 0.950 . S
C1997 C1993 1.393 . S
C1997 C1996 1.391 . S
C1998 H1988 0.950 . S
C1998 C1999 1.386 . S
C1998 C2000 1.391 . S
C1999 C1998 1.386 . S
C1999 C2003 1.393 . S
C2000 H1989 0.950 . S
C2000 C1998 1.391 . S
C2000 C2001 1.400 . S
C2001 C1995 1.491 . S
C2001 C2000 1.400 . S
C2001 C2002 1.398 . S
C2002 H1990 0.950 . S
C2002 C2001 1.398 . S
C2002 C2003 1.391 . S
C2003 H1991 0.950 . S
C2003 C1999 1.393 . S
C2003 C2002 1.391 . S
H2004 C2012 0.950 . S
H2005 C2017 0.950 . S
H2006 C2014 0.950 . S
H2007 C2016 0.950 . S
H2008 C2018 0.950 . S
H2009 C2020 0.950 . S
H2010 C2022 0.950 . S
H2011 C2023 0.950 . S
C2012 H2004 0.950 . S
C2012 C2013 1.386 . S
C2012 C2014 1.391 . S
C2013 C2012 1.386 . S
C2013 C2017 1.393 . S
C2014 H2006 0.950 . S
C2014 C2012 1.391 . S
C2014 C2015 1.400 . S
C2015 C2014 1.400 . S
C2015 C2016 1.398 . S
C2015 C2021 1.491 . S
C2016 H2007 0.950 . S
C2016 C2015 1.398 . S
C2016 C2017 1.391 . S
C2017 H2005 0.950 . S
C2017 C2013 1.393 . S
C2017 C2016 1.391 . S
C2018 H2008 0.950 . S
C2018 C2019 1.386 . S
C2018 C2020 1.391 . S
C2019 C2018 1.386 . S
C2019 C2023 1.393 . S
C2020 H2009 0.950 . S
C2020 C2018 1.391 . S
C2020 C2021 1.400 . S
C2021 C2015 1.491 . S
C2021 C2020 1.400 . S
C2021 C2022 1.398 . S
C2022 H2010 0.950 . S
C2022 C2021 1.398 . S
C2022 C2023 1.391 . S
C2023 H2011 0.950 . S
C2023 C2019 1.393 . S
C2023 C2022 1.391 . S
H2024 C2032 0.950 . S
H2025 C2037 0.950 . S
H2026 C2034 0.950 . S
H2027 C2036 0.950 . S
H2028 C2038 0.950 . S
H2029 C2040 0.950 . S
H2030 C2042 0.950 . S
H2031 C2043 0.950 . S
C2032 H2024 0.950 . S
C2032 C2033 1.386 . S
C2032 C2034 1.391 . S
C2033 C2032 1.386 . S
C2033 C2037 1.393 . S
C2034 H2026 0.950 . S
C2034 C2032 1.391 . S
C2034 C2035 1.400 . S
C2035 C2034 1.400 . S
C2035 C2036 1.398 . S
C2035 C2041 1.491 . S
C2036 H2027 0.950 . S
C2036 C2035 1.398 . S
C2036 C2037 1.391 . S
C2037 H2025 0.950 . S
C2037 C2033 1.393 . S
C2037 C2036 1.391 . S
C2038 H2028 0.950 . S
C2038 C2039 1.386 . S
C2038 C2040 1.391 . S
C2039 C2038 1.386 . S
C2039 C2043 1.393 . S
C2040 H2029 0.950 . S
C2040 C2038 1.391 . S
C2040 C2041 1.400 . S
C2041 C2035 1.491 . S
C2041 C2040 1.400 . S
C2041 C2042 1.398 . S
C2042 H2030 0.950 . S
C2042 C2041 1.398 . S
C2042 C2043 1.391 . S
C2043 H2031 0.950 . S
C2043 C2039 1.393 . S
C2043 C2042 1.391 . S
H2044 C2052 0.950 . S
H2045 C2057 0.950 . S
H2046 C2054 0.950 . S
H2047 C2056 0.950 . S
H2048 C2058 0.950 . S
H2049 C2060 0.950 . S
H2050 C2062 0.950 . S
H2051 C2063 0.950 . S
C2052 H2044 0.950 . S
C2052 C2053 1.386 . S
C2052 C2054 1.391 . S
C2053 C2052 1.386 . S
C2053 C2057 1.393 . S
C2054 H2046 0.950 . S
C2054 C2052 1.391 . S
C2054 C2055 1.400 . S
C2055 C2054 1.400 . S
C2055 C2056 1.398 . S
C2055 C2061 1.491 . S
C2056 H2047 0.950 . S
C2056 C2055 1.398 . S
C2056 C2057 1.391 . S
C2057 H2045 0.950 . S
C2057 C2053 1.393 . S
C2057 C2056 1.391 . S
C2058 H2048 0.950 . S
C2058 C2059 1.386 . S
C2058 C2060 1.391 . S
C2059 C2058 1.386 . S
C2059 C2063 1.393 . S
C2060 H2049 0.950 . S
C2060 C2058 1.391 . S
C2060 C2061 1.400 . S
C2061 C2055 1.491 . S
C2061 C2060 1.400 . S
C2061 C2062 1.398 . S
C2062 H2050 0.950 . S
C2062 C2061 1.398 . S
C2062 C2063 1.391 . S
C2063 H2051 0.950 . S
C2063 C2059 1.393 . S
C2063 C2062 1.391 . S
H2064 C2072 0.950 . S
H2065 C2077 0.950 . S
H2066 C2074 0.950 . S
H2067 C2076 0.950 . S
H2068 C2078 0.950 . S
H2069 C2080 0.950 . S
H2070 C2082 0.950 . S
H2071 C2083 0.950 . S
C2072 H2064 0.950 . S
C2072 C2073 1.386 . S
C2072 C2074 1.391 . S
C2073 C2072 1.386 . S
C2073 C2077 1.393 . S
C2074 H2066 0.950 . S
C2074 C2072 1.391 . S
C2074 C2075 1.400 . S
C2075 C2074 1.400 . S
C2075 C2076 1.398 . S
C2075 C2081 1.491 . S
C2076 H2067 0.950 . S
C2076 C2075 1.398 . S
C2076 C2077 1.391 . S
C2077 H2065 0.950 . S
C2077 C2073 1.393 . S
C2077 C2076 1.391 . S
C2078 H2068 0.950 . S
C2078 C2079 1.386 . S
C2078 C2080 1.391 . S
C2079 C2078 1.386 . S
C2079 C2083 1.393 . S
C2080 H2069 0.950 . S
C2080 C2078 1.391 . S
C2080 C2081 1.400 . S
C2081 C2075 1.491 . S
C2081 C2080 1.400 . S
C2081 C2082 1.398 . S
C2082 H2070 0.950 . S
C2082 C2081 1.398 . S
C2082 C2083 1.391 . S
C2083 H2071 0.950 . S
C2083 C2079 1.393 . S
C2083 C2082 1.391 . S
H2084 C2092 0.950 1_556 S
H2085 C2097 0.950 . S
H2086 C2094 0.950 1_556 S
H2087 C2096 0.950 . S
H2088 C2098 0.950 . S
H2089 C2100 0.950 . S
H2090 C2102 0.950 . S
H2091 C2103 0.950 . S
C2092 H2084 0.950 1_554 S
C2092 C2093 1.386 . S
C2092 C2094 1.391 . S
C2093 C2092 1.386 . S
C2093 C2097 1.393 . S
C2094 H2086 0.950 1_554 S
C2094 C2092 1.391 . S
C2094 C2095 1.400 . S
C2095 C2094 1.400 . S
C2095 C2096 1.398 . S
C2095 C2101 1.491 . S
C2096 H2087 0.950 . S
C2096 C2095 1.398 . S
C2096 C2097 1.391 . S
C2097 H2085 0.950 . S
C2097 C2093 1.393 . S
C2097 C2096 1.391 . S
C2098 H2088 0.950 . S
C2098 C2099 1.386 . S
C2098 C2100 1.391 . S
C2099 C2098 1.386 . S
C2099 C2103 1.393 1_554 S
C2100 H2089 0.950 . S
C2100 C2098 1.391 . S
C2100 C2101 1.400 . S
C2101 C2095 1.491 . S
C2101 C2100 1.400 . S
C2101 C2102 1.398 1_554 S
C2102 H2090 0.950 . S
C2102 C2101 1.398 1_556 S
C2102 C2103 1.391 . S
C2103 H2091 0.950 . S
C2103 C2099 1.393 1_556 S
C2103 C2102 1.391 . S
H2104 C2112 0.950 . S
H2105 C2117 0.950 . S
H2106 C2114 0.950 . S
H2107 C2116 0.950 . S
H2108 C2118 0.950 . S
H2109 C2120 0.950 . S
H2110 C2122 0.950 . S
H2111 C2123 0.950 . S
C2112 H2104 0.950 . S
C2112 C2113 1.386 . S
C2112 C2114 1.391 . S
C2113 C2112 1.386 . S
C2113 C2117 1.393 . S
C2114 H2106 0.950 . S
C2114 C2112 1.391 . S
C2114 C2115 1.400 . S
C2115 C2114 1.400 . S
C2115 C2116 1.398 . S
C2115 C2121 1.491 . S
C2116 H2107 0.950 . S
C2116 C2115 1.398 . S
C2116 C2117 1.391 . S
C2117 H2105 0.950 . S
C2117 C2113 1.393 . S
C2117 C2116 1.391 . S
C2118 H2108 0.950 . S
C2118 C2119 1.386 . S
C2118 C2120 1.391 . S
C2119 C2118 1.386 . S
C2119 C2123 1.393 . S
C2120 H2109 0.950 . S
C2120 C2118 1.391 . S
C2120 C2121 1.400 . S
C2121 C2115 1.491 . S
C2121 C2120 1.400 . S
C2121 C2122 1.398 . S
C2122 H2110 0.950 . S
C2122 C2121 1.398 . S
C2122 C2123 1.391 . S
C2123 H2111 0.950 . S
C2123 C2119 1.393 . S
C2123 C2122 1.391 . S
H2124 C2132 0.950 . S
H2125 C2137 0.950 . S
H2126 C2134 0.950 . S
H2127 C2136 0.950 . S
H2128 C2138 0.950 . S
H2129 C2140 0.950 . S
H2130 C2142 0.950 . S
H2131 C2143 0.950 . S
C2132 H2124 0.950 . S
C2132 C2133 1.386 . S
C2132 C2134 1.391 . S
C2133 C2132 1.386 . S
C2133 C2137 1.393 . S
C2134 H2126 0.950 . S
C2134 C2132 1.391 . S
C2134 C2135 1.400 . S
C2135 C2134 1.400 . S
C2135 C2136 1.398 . S
C2135 C2141 1.491 . S
C2136 H2127 0.950 . S
C2136 C2135 1.398 . S
C2136 C2137 1.391 . S
C2137 H2125 0.950 . S
C2137 C2133 1.393 . S
C2137 C2136 1.391 . S
C2138 H2128 0.950 . S
C2138 C2139 1.386 . S
C2138 C2140 1.391 . S
C2139 C2138 1.386 . S
C2139 C2143 1.393 . S
C2140 H2129 0.950 . S
C2140 C2138 1.391 . S
C2140 C2141 1.400 . S
C2141 C2135 1.491 . S
C2141 C2140 1.400 . S
C2141 C2142 1.398 . S
C2142 H2130 0.950 . S
C2142 C2141 1.398 . S
C2142 C2143 1.391 . S
C2143 H2131 0.950 . S
C2143 C2139 1.393 . S
C2143 C2142 1.391 . S
H2144 C2152 0.950 . S
H2145 C2157 0.950 . S
H2146 C2154 0.950 . S
H2147 C2156 0.950 . S
H2148 C2158 0.950 . S
H2149 C2160 0.950 . S
H2150 C2162 0.950 . S
H2151 C2163 0.950 . S
C2152 H2144 0.950 . S
C2152 C2153 1.386 . S
C2152 C2154 1.391 . S
C2153 C2152 1.386 . S
C2153 C2157 1.393 . S
C2154 H2146 0.950 . S
C2154 C2152 1.391 . S
C2154 C2155 1.400 . S
C2155 C2154 1.400 . S
C2155 C2156 1.398 . S
C2155 C2161 1.491 . S
C2156 H2147 0.950 . S
C2156 C2155 1.398 . S
C2156 C2157 1.391 . S
C2157 H2145 0.950 . S
C2157 C2153 1.393 . S
C2157 C2156 1.391 . S
C2158 H2148 0.950 . S
C2158 C2159 1.386 . S
C2158 C2160 1.391 . S
C2159 C2158 1.386 . S
C2159 C2163 1.393 . S
C2160 H2149 0.950 . S
C2160 C2158 1.391 . S
C2160 C2161 1.400 . S
C2161 C2155 1.491 . S
C2161 C2160 1.400 . S
C2161 C2162 1.398 . S
C2162 H2150 0.950 . S
C2162 C2161 1.398 . S
C2162 C2163 1.391 . S
C2163 H2151 0.950 . S
C2163 C2159 1.393 . S
C2163 C2162 1.391 . S
H2164 C2172 0.950 . S
H2165 C2177 0.950 . S
H2166 C2174 0.950 . S
H2167 C2176 0.950 . S
H2168 C2178 0.950 . S
H2169 C2180 0.950 . S
H2170 C2182 0.950 . S
H2171 C2183 0.950 . S
C2172 H2164 0.950 . S
C2172 C2173 1.386 . S
C2172 C2174 1.391 . S
C2173 C2172 1.386 . S
C2173 C2177 1.393 . S
C2174 H2166 0.950 . S
C2174 C2172 1.391 . S
C2174 C2175 1.400 . S
C2175 C2174 1.400 . S
C2175 C2176 1.398 . S
C2175 C2181 1.491 . S
C2176 H2167 0.950 . S
C2176 C2175 1.398 . S
C2176 C2177 1.391 . S
C2177 H2165 0.950 . S
C2177 C2173 1.393 . S
C2177 C2176 1.391 . S
C2178 H2168 0.950 . S
C2178 C2179 1.386 . S
C2178 C2180 1.391 . S
C2179 C2178 1.386 . S
C2179 C2183 1.393 . S
C2180 H2169 0.950 . S
C2180 C2178 1.391 . S
C2180 C2181 1.400 . S
C2181 C2175 1.491 . S
C2181 C2180 1.400 . S
C2181 C2182 1.398 . S
C2182 H2170 0.950 . S
C2182 C2181 1.398 . S
C2182 C2183 1.391 . S
C2183 H2171 0.950 . S
C2183 C2179 1.393 . S
C2183 C2182 1.391 . S
H2184 C2192 0.955 . S
H2185 C2197 0.950 . S
H2186 C2194 0.950 . S
H2187 C2196 0.950 . S
H2188 C2198 0.950 . S
H2189 C2200 0.950 . S
H2190 C2202 0.950 . S
H2191 C2203 0.950 . S
C2192 H2184 0.955 . S
C2192 C2193 1.386 1_554 S
C2192 C2194 1.385 1_554 S
C2193 C2192 1.386 1_556 S
C2193 C2197 1.393 . S
C2194 H2186 0.950 . S
C2194 C2192 1.385 1_556 S
C2194 C2195 1.400 . S
C2195 C2194 1.400 . S
C2195 C2196 1.398 . S
C2195 C2201 1.491 . S
C2196 H2187 0.950 . S
C2196 C2195 1.398 . S
C2196 C2197 1.391 . S
C2197 H2185 0.950 . S
C2197 C2193 1.393 . S
C2197 C2196 1.391 . S
C2198 H2188 0.950 . S
C2198 C2199 1.386 . S
C2198 C2200 1.391 . S
C2199 C2198 1.386 . S
C2199 C2203 1.393 . S
C2200 H2189 0.950 . S
C2200 C2198 1.391 . S
C2200 C2201 1.400 . S
C2201 C2195 1.491 . S
C2201 C2200 1.400 . S
C2201 C2202 1.398 . S
C2202 H2190 0.950 . S
C2202 C2201 1.398 . S
C2202 C2203 1.391 . S
C2203 H2191 0.950 . S
C2203 C2199 1.393 . S
C2203 C2202 1.391 . S
H2204 C2212 0.950 . S
H2205 C2217 0.950 . S
H2206 C2214 0.950 . S
H2207 C2216 0.950 . S
H2208 C2218 0.950 . S
H2209 C2220 0.950 . S
H2210 C2222 0.950 . S
H2211 C2223 0.950 . S
C2212 H2204 0.950 . S
C2212 C2213 1.386 . S
C2212 C2214 1.391 . S
C2213 C2212 1.386 . S
C2213 C2217 1.393 . S
C2214 H2206 0.950 . S
C2214 C2212 1.391 . S
C2214 C2215 1.400 . S
C2215 C2214 1.400 . S
C2215 C2216 1.398 . S
C2215 C2221 1.491 . S
C2216 H2207 0.950 . S
C2216 C2215 1.398 . S
C2216 C2217 1.391 . S
C2217 H2205 0.950 . S
C2217 C2213 1.393 . S
C2217 C2216 1.391 . S
C2218 H2208 0.950 . S
C2218 C2219 1.386 . S
C2218 C2220 1.391 . S
C2219 C2218 1.386 . S
C2219 C2223 1.393 . S
C2220 H2209 0.950 . S
C2220 C2218 1.391 . S
C2220 C2221 1.400 . S
C2221 C2215 1.491 . S
C2221 C2220 1.400 . S
C2221 C2222 1.398 . S
C2222 H2210 0.950 . S
C2222 C2221 1.398 . S
C2222 C2223 1.391 . S
C2223 H2211 0.950 . S
C2223 C2219 1.393 . S
C2223 C2222 1.391 . S
H2224 C2232 0.950 . S
H2225 C2237 0.950 . S
H2226 C2234 0.950 . S
H2227 C2236 0.950 . S
H2228 C2238 0.950 . S
H2229 C2240 0.950 . S
H2230 C2242 0.950 . S
H2231 C2243 0.950 . S
C2232 H2224 0.950 . S
C2232 C2233 1.386 . S
C2232 C2234 1.391 . S
C2233 C2232 1.386 . S
C2233 C2237 1.393 . S
C2234 H2226 0.950 . S
C2234 C2232 1.391 . S
C2234 C2235 1.400 . S
C2235 C2234 1.400 . S
C2235 C2236 1.398 . S
C2235 C2241 1.491 . S
C2236 H2227 0.950 . S
C2236 C2235 1.398 . S
C2236 C2237 1.391 . S
C2237 H2225 0.950 . S
C2237 C2233 1.393 . S
C2237 C2236 1.391 . S
C2238 H2228 0.950 . S
C2238 C2239 1.386 . S
C2238 C2240 1.391 . S
C2239 C2238 1.386 . S
C2239 C2243 1.393 . S
C2240 H2229 0.950 . S
C2240 C2238 1.391 . S
C2240 C2241 1.400 . S
C2241 C2235 1.491 . S
C2241 C2240 1.400 . S
C2241 C2242 1.398 . S
C2242 H2230 0.950 . S
C2242 C2241 1.398 . S
C2242 C2243 1.391 . S
C2243 H2231 0.950 . S
C2243 C2239 1.393 . S
C2243 C2242 1.391 . S
H2244 C2252 0.950 . S
H2245 C2257 0.950 . S
H2246 C2254 0.950 . S
H2247 C2256 0.950 . S
H2248 C2258 0.950 . S
H2249 C2260 0.950 . S
H2250 C2262 0.950 . S
H2251 C2263 0.950 . S
C2252 H2244 0.950 . S
C2252 C2253 1.386 . S
C2252 C2254 1.391 . S
C2253 C2252 1.386 . S
C2253 C2257 1.393 . S
C2254 H2246 0.950 . S
C2254 C2252 1.391 . S
C2254 C2255 1.400 . S
C2255 C2254 1.400 . S
C2255 C2256 1.398 . S
C2255 C2261 1.491 . S
C2256 H2247 0.950 . S
C2256 C2255 1.398 . S
C2256 C2257 1.391 . S
C2257 H2245 0.950 . S
C2257 C2253 1.393 . S
C2257 C2256 1.391 . S
C2258 H2248 0.950 . S
C2258 C2259 1.386 . S
C2258 C2260 1.391 . S
C2259 C2258 1.386 . S
C2259 C2263 1.393 . S
C2260 H2249 0.950 . S
C2260 C2258 1.391 . S
C2260 C2261 1.400 . S
C2261 C2255 1.491 . S
C2261 C2260 1.400 . S
C2261 C2262 1.398 . S
C2262 H2250 0.950 . S
C2262 C2261 1.398 . S
C2262 C2263 1.391 . S
C2263 H2251 0.950 . S
C2263 C2259 1.393 . S
C2263 C2262 1.391 . S
H2264 C2272 0.950 . S
H2265 C2277 0.950 . S
H2266 C2274 0.950 . S
H2267 C2276 0.950 . S
H2268 C2278 0.950 . S
H2269 C2280 0.950 . S
H2270 C2282 0.950 . S
H2271 C2283 0.950 . S
C2272 H2264 0.950 . S
C2272 C2273 1.386 . S
C2272 C2274 1.391 . S
C2273 C2272 1.386 . S
C2273 C2277 1.393 . S
C2274 H2266 0.950 . S
C2274 C2272 1.391 . S
C2274 C2275 1.400 . S
C2275 C2274 1.400 . S
C2275 C2276 1.398 . S
C2275 C2281 1.491 . S
C2276 H2267 0.950 . S
C2276 C2275 1.398 . S
C2276 C2277 1.391 . S
C2277 H2265 0.950 . S
C2277 C2273 1.393 . S
C2277 C2276 1.391 . S
C2278 H2268 0.950 . S
C2278 C2279 1.386 . S
C2278 C2280 1.391 . S
C2279 C2278 1.386 . S
C2279 C2283 1.393 . S
C2280 H2269 0.950 . S
C2280 C2278 1.391 . S
C2280 C2281 1.400 . S
C2281 C2275 1.491 . S
C2281 C2280 1.400 . S
C2281 C2282 1.398 . S
C2282 H2270 0.950 . S
C2282 C2281 1.398 . S
C2282 C2283 1.391 . S
C2283 H2271 0.950 . S
C2283 C2279 1.393 . S
C2283 C2282 1.391 . S
H2284 C2292 0.950 . S
H2285 C2297 0.950 . S
H2286 C2294 0.950 . S
H2287 C2296 0.950 . S
H2288 C2298 0.950 . S
H2289 C2300 0.950 . S
H2290 C2302 0.950 . S
H2291 C2303 0.950 . S
C2292 H2284 0.950 . S
C2292 C2293 1.386 . S
C2292 C2294 1.391 . S
C2293 C2292 1.386 . S
C2293 C2297 1.393 . S
C2294 H2286 0.950 . S
C2294 C2292 1.391 . S
C2294 C2295 1.400 . S
C2295 C2294 1.400 . S
C2295 C2296 1.398 . S
C2295 C2301 1.491 . S
C2296 H2287 0.950 . S
C2296 C2295 1.398 . S
C2296 C2297 1.391 . S
C2297 H2285 0.950 . S
C2297 C2293 1.393 . S
C2297 C2296 1.391 . S
C2298 H2288 0.950 . S
C2298 C2299 1.386 . S
C2298 C2300 1.391 . S
C2299 C2298 1.386 . S
C2299 C2303 1.393 . S
C2300 H2289 0.950 . S
C2300 C2298 1.391 . S
C2300 C2301 1.400 . S
C2301 C2295 1.491 . S
C2301 C2300 1.400 . S
C2301 C2302 1.398 . S
C2302 H2290 0.950 . S
C2302 C2301 1.398 . S
C2302 C2303 1.391 . S
C2303 H2291 0.950 . S
C2303 C2299 1.393 . S
C2303 C2302 1.391 . S
C1353 C67 1.232 . S
C1359 C154 1.064 . S
C1373 C235 1.974 . S
C1379 C140 2.028 . S
C1393 C308 2.033 . S
C1399 C231 2.039 . S
C1413 C63 1.337 . S
C1419 C322 1.072 . S
C1433 C74 1.339 . S
C1439 C814 1.045 . S
C1453 C644 1.217 . S
C1459 C142 1.067 . S
C1473 C224 1.959 . S
C1479 C907 2.036 . S
C1493 C319 2.032 . S
C1499 C1166 2.039 . S
C1513 C728 1.966 . S
C1519 C151 2.033 . S
C1533 C1075 2.030 . S
C1539 C242 2.042 . S
C1553 C1250 1.342 . S
C1559 C310 1.041 . S
C1573 C56 1.258 . S
C1579 C982 1.124 . S
C1593 C70 0.418 . S
C1599 C730 0.739 . S
C1613 C1071 1.926 . S
C1619 C410 1.926 . S
C1633 C490 0.742 . S
C1639 C1234 0.423 . S
C1653 C998 1.926 . S
C1659 C567 1.927 . S
C1673 C238 0.745 . S
C1679 C646 0.414 . S
C1693 C830 1.930 . S
C1699 C399 1.922 . S
C1713 C578 1.931 . S
C1719 C903 1.921 . S
C1733 C476 1.974 . S
C1739 C991 2.028 . S
C1753 C823 2.028 . S
C1759 C494 2.033 . S
C1773 C994 1.094 . S
C1779 C655 1.218 . S
C1793 C487 1.953 . S
C1799 C392 2.039 . S
C1813 C812 2.031 . S
C1819 C735 2.034 . S
C1833 C1159 1.952 . S
C1839 C980 2.039 . S
C1853 C560 2.033 . S
C1859 C483 2.037 . S
C1873 C826 1.055 . S
C1879 C1239 1.337 . S
C1893 C1162 0.718 . S
C1899 C58 0.452 . S
C1913 C226 0.653 . S
C1919 C1246 0.503 . S
C1933 C1082 1.927 . S
C1939 C147 1.926 . S
C1953 C658 0.437 . S
C1959 C478 0.719 . S
C1973 C315 1.923 . S
C1979 C914 1.930 . S
C1993 C1064 2.023 . S
C1999 C1155 2.036 . S
C2013 C651 1.349 . S
C2019 C1078 1.107 . S
C2033 C562 1.103 . S
C2039 C662 1.351 . S
C2053 C403 2.029 . S
C2059 C1148 1.974 . S
C2073 C1066 1.048 . S
C2079 C1334 1.339 . S
C2093 C1318 0.420 . S
C2099 C742 0.737 . S
C2113 C158 1.922 . S
C2119 C819 1.930 . S
C2133 C746 2.037 . S
C2139 C571 2.022 . S
C2153 C739 1.966 . S
C2159 C896 2.032 . S
C2173 C1323 1.337 . S
C2179 C574 1.063 . S
C2193 C1150 0.736 . S
C2199 C1330 0.432 . S
C2213 C987 1.924 . S
C2219 C326 1.928 . S
C2233 C910 1.096 . S
C2239 C1243 1.219 . S
C2253 C898 1.097 . S
C2259 C1316 1.258 . S
C2273 C394 1.067 . S
C2279 C1232 1.216 . S
C2293 C1327 1.224 . S
C2299 C406 1.105 . S
