# Generated by pormake.
# Topology rkf, (6)-cn, num edge types: 1
# Building blocks:
#     Node 0, Type 0, BuildingBlock: BETGAK_clean_sbu_0, # of connection points: 6
#     Node 1, Type 0, BuildingBlock: BETGAK_clean_sbu_0, # of connection points: 6
#     Node 2, Type 0, BuildingBlock: BETGAK_clean_sbu_0, # of connection points: 6
#     Node 3, Type 0, BuildingBlock: BETGAK_clean_sbu_0, # of connection points: 6
#     Node 4, Type 0, BuildingBlock: BETGAK_clean_sbu_0, # of connection points: 6
#     Node 5, Type 0, BuildingBlock: BETGAK_clean_sbu_0, # of connection points: 6
#     Edge 6, Type (0, 0), BuildingBlock: UVAHIK_clean_linker_0, # of connection points: 2
#     Edge 7, Type (0, 0), BuildingBlock: UVAHIK_clean_linker_0, # of connection points: 2
#     Edge 8, Type (0, 0), BuildingBlock: UVAHIK_clean_linker_0, # of connection points: 2
#     Edge 9, Type (0, 0), BuildingBlock: UVAHIK_clean_linker_0, # of connection points: 2
#     Edge 10, Type (0, 0), BuildingBlock: UVAHIK_clean_linker_0, # of connection points: 2
#     Edge 11, Type (0, 0), BuildingBlock: UVAHIK_clean_linker_0, # of connection points: 2
#     Edge 12, Type (0, 0), BuildingBlock: UVAHIK_clean_linker_0, # of connection points: 2
#     Edge 13, Type (0, 0), BuildingBlock: UVAHIK_clean_linker_0, # of connection points: 2
#     Edge 14, Type (0, 0), BuildingBlock: UVAHIK_clean_linker_0, # of connection points: 2
#     Edge 15, Type (0, 0), BuildingBlock: UVAHIK_clean_linker_0, # of connection points: 2
#     Edge 16, Type (0, 0), BuildingBlock: UVAHIK_clean_linker_0, # of connection points: 2
#     Edge 17, Type (0, 0), BuildingBlock: UVAHIK_clean_linker_0, # of connection points: 2
#     Edge 18, Type (0, 0), BuildingBlock: UVAHIK_clean_linker_0, # of connection points: 2
#     Edge 19, Type (0, 0), BuildingBlock: UVAHIK_clean_linker_0, # of connection points: 2
#     Edge 20, Type (0, 0), BuildingBlock: UVAHIK_clean_linker_0, # of connection points: 2
#     Edge 21, Type (0, 0), BuildingBlock: UVAHIK_clean_linker_0, # of connection points: 2
#     Edge 22, Type (0, 0), BuildingBlock: UVAHIK_clean_linker_0, # of connection points: 2
#     Edge 23, Type (0, 0), BuildingBlock: UVAHIK_clean_linker_0, # of connection points: 2
# Relax obj value: 0.559
# Max RMSD: 0.250
# Mean RMSD: 0.250
data_MOF--net-rkf--node1-BETGAK_clean_sbu_0--edge1-UVAHIK_clean_linker_0
_symmetry_space_group_name_H-M    P1
_symmetry_Int_Tables_number       1
_symmetry_cell_setting            triclinic
loop_
_symmetry_equiv_pos_as_xyz
'x, y, z'
_cell_length_a     31.777936
_cell_length_b     31.797707
_cell_length_c     59.691675
_cell_angle_alpha  90.210453
_cell_angle_beta   89.294106
_cell_angle_gamma 119.99697
loop_
_atom_site_label
_atom_site_type_symbol
_atom_site_fract_x
_atom_site_fract_y
_atom_site_fract_z
_atom_type_partial_charge
La0 La 0.27732 0.08813 0.09946 0.0
La1 La 0.33579 0.18893 1.08618 0.0
C2 C 0.24951 -0.00026 0.10595 0.0
C3 C 0.25155 0.97038 0.12428 0.0
C4 C 0.2174 0.92077 0.12524 0.0
C5 C 0.21625 0.89293 0.1435 0.0
C6 C 0.24941 0.91435 0.16109 0.0
C7 C 0.28494 0.96384 0.15954 0.0
C8 C 0.2858 -0.00828 0.14134 0.0
C9 C 0.22648 0.13057 0.08783 0.0
C10 C 0.30215 0.1624 0.13931 0.0
C11 C 0.37047 0.27851 1.07913 0.0
C12 C 0.38023 0.31022 1.05975 0.0
C13 C 0.40947 0.36056 1.0622 0.0
C14 C 0.41827 0.39141 1.04396 0.0
C15 C 0.39793 0.37221 1.02299 0.0
C16 C 0.36906 0.3215 1.02062 0.0
C17 C 0.36036 0.29075 1.03884 0.0
C18 C 0.38725 0.14598 0.09197 0.0
C19 C 0.297 0.11154 1.04558 0.0
O20 O 0.22211 0.01903 0.10964 0.0
O21 O 0.29121 0.03048 0.0966 0.0
O22 O 0.21286 0.09714 0.10311 0.0
O23 O 0.26484 0.13559 1.07951 0.0
O24 O 0.2875 0.11641 0.13423 0.0
O25 O 0.31955 0.19545 0.12281 0.0
O26 O 0.39682 0.25761 1.08037 0.0
O27 O 0.32463 0.24839 1.08377 0.0
O28 O 0.39425 0.17672 1.07623 0.0
O29 O 0.35258 0.1409 0.1047 0.0
O30 O 0.31554 0.15837 1.05119 0.0
O31 O 0.28329 0.07887 1.06214 0.0
H32 H 0.19065 0.90387 0.11219 0.0
H33 H 0.18789 0.85518 0.14432 0.0
H34 H 0.31129 0.98132 0.17268 0.0
H35 H 0.31241 0.03011 0.14084 0.0
H36 H 0.42523 0.37602 1.07826 0.0
H37 H 0.44094 0.43022 1.04625 0.0
H38 H 0.35211 0.30557 1.00481 0.0
H39 H 0.33764 0.25189 1.0367 0.0
La40 La 0.26074 0.27469 0.43326 0.0
La41 La 0.22569 0.33981 0.42124 0.0
C42 C 0.31762 0.24225 0.43918 0.0
C43 C 0.34501 0.23898 0.45806 0.0
C44 C 0.32503 0.22887 0.47977 0.0
C45 C 0.35108 0.22485 0.49745 0.0
C46 C 0.39795 0.23157 0.49385 0.0
C47 C 0.41825 0.24285 0.47212 0.0
C48 C 0.3919 0.24641 0.45437 0.0
C49 C 0.16742 0.23062 0.42197 0.0
C50 C 0.21503 0.30252 0.47407 0.0
C51 C 0.17574 0.38048 0.41594 0.0
C52 C 0.15576 0.39466 0.39742 0.0
C53 C 0.13623 0.42488 0.4016 0.0
C54 C 0.11569 0.43763 0.38422 0.0
C55 C 0.11453 0.4203 0.36242 0.0
C56 C 0.13492 0.3905 0.35832 0.0
C57 C 0.15546 0.37787 0.37569 0.0
C58 C 0.31999 0.38497 0.42638 0.0
C59 C 0.25886 0.29689 0.37954 0.0
O60 O 0.27023 0.21558 0.44052 0.0
O61 O 0.33181 0.28618 0.43194 0.0
O62 O 0.18508 0.21419 0.4369 0.0
O63 O 0.20256 0.26776 0.41378 0.0
O64 O 0.24136 0.28224 0.46831 0.0
O65 O 0.20422 0.32522 0.45818 0.0
O66 O 0.22306 0.404 0.41735 0.0
O67 O 0.15708 0.33373 0.41907 0.0
O68 O 0.29751 0.39427 0.41097 0.0
O69 O 0.28918 0.35121 0.43916 0.0
O70 O 0.23504 0.32021 0.38565 0.0
O71 O 0.27415 0.27897 0.39578 0.0
H72 H 0.28902 0.22341 0.48305 0.0
H73 H 0.3338 0.21516 0.51383 0.0
H74 H 0.45441 0.2488 0.46881 0.0
H75 H 0.40804 0.25476 0.43772 0.0
H76 H 0.13647 0.43825 0.41835 0.0
H77 H 0.10058 0.46085 0.38785 0.0
H78 H 0.13377 0.37575 0.34181 0.0
H79 H 0.17041 0.35442 0.37224 0.0
La80 La 0.06413 0.26896 0.7686 0.0
La81 La 0.96222 0.22383 0.7568 0.0
C82 C 0.15224 0.33169 0.77383 0.0
C83 C 0.18118 0.36514 0.79165 0.0
C84 C 0.23101 0.3816 0.79258 0.0
C85 C 0.25843 0.41052 0.81039 0.0
C86 C 0.23635 0.42355 0.82753 0.0
C87 C 0.18662 0.40847 0.82599 0.0
C88 C 0.15919 0.37919 0.80828 0.0
C89 C 0.0228 0.17521 0.75783 0.0
C90 C -0.00877 0.21972 0.80959 0.0
C91 C 0.87236 0.16753 0.75182 0.0
C92 C 0.83593 0.14784 0.73405 0.0
C93 C 0.83209 0.17802 0.71807 0.0
C94 C 0.79705 0.158 0.70139 0.0
C95 C 0.76555 0.10747 0.70028 0.0
C96 C 0.76902 0.0776 0.7166 0.0
C97 C 0.80378 0.09766 0.73335 0.0
C98 C 0.00425 0.31846 0.76114 0.0
C99 C 0.03803 0.26137 0.71481 0.0
O100 O 0.13405 0.28551 0.77828 0.0
O101 O 0.12064 0.34069 0.76434 0.0
O102 O 0.05717 0.19648 0.7724 0.0
O103 O 0.01658 0.2076 0.74965 0.0
O104 O 0.03677 0.25215 0.80387 0.0
O105 O 0.95791 0.20204 0.79341 0.0
O106 O 0.89196 0.21387 0.75617 0.0
O107 O 0.90424 0.15291 0.75196 0.0
O108 O 0.97297 0.29315 0.74593 0.0
O109 O 0.01041 0.29033 0.77411 0.0
O110 O -0.00877 0.23381 0.72115 0.0
O111 O 0.07149 0.28087 0.7309 0.0
H112 H 0.24844 0.37088 0.77987 0.0
H113 H 0.29638 0.42073 0.81122 0.0
H114 H 0.16861 0.41829 0.83877 0.0
H115 H 0.12063 0.3666 0.80784 0.0
H116 H 0.85634 0.21697 0.71833 0.0
H117 H 0.79502 0.18204 0.68919 0.0
H118 H 0.74605 0.0385 0.71601 0.0
H119 H 0.80606 0.07384 0.74561 0.0
La120 La 0.88227 0.07822 0.10524 0.0
La121 La 0.80659 0.97844 0.09565 0.0
C122 C 0.92354 0.16484 0.11845 0.0
C123 C 0.92068 0.19215 0.13784 0.0
C124 C 0.93488 0.1866 0.15928 0.0
C125 C 0.93249 0.21367 0.17721 0.0
C126 C 0.91554 0.24655 0.17411 0.0
C127 C 0.90086 0.25157 0.15266 0.0
C128 C 0.90366 0.22482 0.13471 0.0
C129 C 0.9159 0.02218 0.09072 0.0
C130 C 0.84454 0.00084 0.14669 0.0
C131 C 0.75183 0.89149 1.08387 0.0
C132 C 0.73915 0.85953 1.06444 0.0
C133 C 0.70887 0.8095 1.06762 0.0
C134 C 0.69907 0.77754 1.0498 0.0
C135 C 0.71969 0.79524 1.02853 0.0
C136 C 0.749 0.84577 1.02532 0.0
C137 C 0.7585 0.87771 1.04315 0.0
C138 C 0.77281 0.03339 0.11222 0.0
C139 C 0.86117 0.05587 1.05326 0.0
O140 O 0.94124 0.13587 0.12155 0.0
O141 O 0.88519 0.14533 0.1057 0.0
O142 O 0.93733 0.06863 0.08712 0.0
O143 O 0.88002 0.01015 0.10344 0.0
O144 O 0.86655 0.04747 0.14036 0.0
O145 O 0.82122 0.96666 0.1312 0.0
O146 O 0.73916 0.92476 1.08343 0.0
O147 O 0.79572 0.90822 0.09152 0.0
O148 O 0.75772 0.98886 0.11785 0.0
O149 O 0.8063 0.04574 0.09768 0.0
O150 O 0.8297 0.0103 1.06018 0.0
O151 O 0.88453 0.08986 1.06858 0.0
H152 H 0.94827 0.16178 0.16221 0.0
H153 H 0.94506 0.20961 0.1934 0.0
H154 H 0.88722 0.27617 0.14973 0.0
H155 H 0.89253 0.22975 0.11829 0.0
H156 H 0.69354 0.79505 1.08402 0.0
H157 H 0.67591 0.73896 1.05274 0.0
H158 H 0.76606 0.86061 1.00924 0.0
H159 H 0.78171 0.91633 1.04042 0.0
La160 La 0.87733 0.8826 0.43934 0.0
La161 La 0.90648 0.81084 0.42771 0.0
C162 C 0.82801 0.91914 0.45373 0.0
C163 C 0.79697 0.91441 0.47318 0.0
C164 C 0.81547 0.92571 0.49495 0.0
C165 C 0.78538 0.92273 0.51285 0.0
C166 C 0.73616 0.90807 0.50935 0.0
C167 C 0.71758 0.89571 0.4876 0.0
C168 C 0.74776 0.89907 0.4697 0.0
C169 C 0.96744 0.92119 0.42439 0.0
C170 C 0.92066 0.84616 0.47928 0.0
C171 C 0.94264 0.76054 0.41378 0.0
C172 C 0.96305 0.75143 0.39347 0.0
C173 C -0.01421 0.72357 0.3951 0.0
C174 C 0.00868 0.71705 0.37641 0.0
C175 C 0.00948 0.73869 0.3558 0.0
C176 C -0.01467 0.76555 0.35414 0.0
C177 C 0.96207 0.77167 0.37282 0.0
C178 C 0.81737 0.77252 0.4447 0.0
C179 C 0.8803 0.86507 0.38699 0.0
O180 O 0.87492 0.93883 0.45683 0.0
O181 O 0.8109 0.88123 0.44059 0.0
O182 O 0.94056 0.9409 0.42187 0.0
O183 O 0.94504 0.88414 0.43648 0.0
O184 O 0.89419 0.86657 0.47379 0.0
O185 O 0.9329 0.8247 0.46319 0.0
O186 O 0.89614 0.74566 0.41378 0.0
O187 O 0.96804 0.8038 0.4225 0.0
O188 O 0.84821 0.75874 0.44946 0.0
O189 O 0.8372 0.80694 0.43066 0.0
O190 O 0.89613 0.83468 0.39303 0.0
O191 O 0.86813 0.88649 0.40287 0.0
H192 H 0.85327 0.93759 0.49815 0.0
H193 H 0.80117 0.9334 0.52932 0.0
H194 H 0.6798 0.88379 0.48436 0.0
H195 H 0.7327 0.89007 0.45302 0.0
H196 H -0.01346 0.70749 0.41096 0.0
H197 H 0.02625 0.69557 0.37818 0.0
H198 H -0.01425 0.78326 0.33861 0.0
H199 H 0.94426 0.79293 0.37125 0.0
La200 La 0.07629 0.88386 0.76979 0.0
La201 La 0.1756 0.90655 0.75841 0.0
C202 C -0.00965 0.83958 0.78453 0.0
C203 C 0.96385 0.81139 0.80456 0.0
C204 C 0.96875 0.83367 0.82545 0.0
C205 C 0.94185 0.8062 0.84393 0.0
C206 C 0.90972 0.75589 0.84193 0.0
C207 C 0.90552 0.73362 0.82108 0.0
C208 C 0.93213 0.76115 0.80257 0.0
C209 C 0.13237 0.97245 0.75427 0.0
C210 C 0.15563 0.92477 0.80975 0.0
C211 C 0.26141 0.93819 0.74416 0.0
C212 C 0.2902 0.95582 0.72348 0.0
C213 C 0.3407 0.97626 0.72444 0.0
C214 C 0.36944 -0.0035 0.70528 0.0
C215 C 0.34806 -0.00296 0.68487 0.0
C216 C 0.29708 0.97529 0.68395 0.0
C217 C 0.26839 0.95451 0.70306 0.0
C218 C 0.12089 0.81892 0.77582 0.0
C219 C 0.09578 0.88227 0.71773 0.0
O220 O 0.01931 0.88655 0.7867 0.0
O221 O 0.00942 0.81957 0.77188 0.0
O222 O 0.08569 0.94769 0.75147 0.0
O223 O 0.14472 0.94908 0.7668 0.0
O224 O 0.10877 0.90156 0.80414 0.0
O225 O 0.18918 0.93341 0.79392 0.0
O226 O 0.22838 0.89216 0.74485 0.0
O227 O 0.2454 0.96571 0.75253 0.0
O228 O 0.16598 0.84808 0.7805 0.0
O229 O 0.10797 0.83957 0.76159 0.0
O230 O 0.14153 0.89599 0.72375 0.0
O231 O 0.06261 0.8728 0.73356 0.0
H232 H -0.00722 0.87236 0.8275 0.0
H233 H 0.94525 0.82473 0.85964 0.0
H234 H 0.88147 0.69495 0.81901 0.0
H235 H 0.92766 0.74315 0.7866 0.0
H236 H 0.35799 0.97722 0.74012 0.0
H237 H 0.40841 0.01215 0.70652 0.0
H238 H 0.2793 0.97563 0.66865 0.0
H239 H 0.22939 0.93833 0.70197 0.0
C240 C 0.89698 0.96491 1.0589 0.0
C241 C 0.92599 0.98918 1.0774 0.0
C242 C 0.91825 0.95816 1.0396 0.0
C243 C 0.0404 -0.00225 1.01577 0.0
H244 H 0.04755 0.12223 1.02311 0.0
C245 C 0.14267 0.11349 1.07898 0.0
C246 C 0.19203 0.13562 1.07326 0.0
C247 C 0.10854 0.1037 1.06231 0.0
C248 C 0.04652 0.08826 1.01965 0.0
H249 H -0.00521 0.01154 0.09313 0.0
H250 H 0.02985 -0.00673 1.06095 0.0
H251 H 0.96934 0.0495 1.01887 0.0
H252 H 0.24492 0.17283 1.04651 0.0
H253 H 0.18488 0.14999 1.01713 0.0
H254 H 0.11769 0.03632 1.01875 0.0
C255 C -0.00804 0.98338 1.0602 0.0
C256 C 0.00153 0.04613 1.01708 0.0
C257 C 0.97206 -0.0059 1.07878 0.0
C258 C 0.20693 0.15374 1.05128 0.0
C259 C 0.17274 0.14154 1.03441 0.0
C260 C 0.08573 0.04001 1.01721 0.0
C261 C 0.96787 0.97303 1.03949 0.0
C262 C -0.0016 0.00067 1.02005 0.0
C263 C 0.1233 0.11411 1.03969 0.0
C264 C 0.08804 0.08425 1.02252 0.0
H265 H 0.86 0.95692 1.0581 0.0
H266 H 0.89818 0.94854 1.0241 0.0
H267 H 0.03892 0.96303 1.01681 0.0
H268 H 0.13018 0.09994 0.0958 0.0
H269 H 0.07034 0.08295 1.06674 0.0
C270 C 0.00742 0.90628 0.39166 0.0
C271 C 0.01084 0.93433 0.41052 0.0
C272 C 0.03353 0.92902 0.37212 0.0
C273 C 0.11087 0.05126 0.34814 0.0
H274 H -0.00795 0.05527 0.35718 0.0
C275 C 0.09621 0.14965 0.41263 0.0
C276 C 0.12644 0.19879 0.40739 0.0
C277 C 0.07026 0.11675 0.39564 0.0
C278 C 0.02531 0.05507 0.3532 0.0
H279 H 0.05384 0.00407 0.42632 0.0
H280 H 0.10459 0.04208 0.39364 0.0
H281 H -0.01146 0.97789 0.35275 0.0
H282 H 0.14602 0.25331 0.38132 0.0
H283 H 0.10569 0.19505 0.35138 0.0
H284 H 0.1481 0.12855 0.35077 0.0
C285 C 0.07872 0.00353 0.39289 0.0
C286 C 0.02355 0.01055 0.35053 0.0
C287 C 0.04963 0.98189 0.41176 0.0
C288 C 0.12457 0.21527 0.3857 0.0
C289 C 0.10082 0.18216 0.36851 0.0
C290 C 0.11275 0.09605 0.34963 0.0
C291 C 0.0657 0.97924 0.37212 0.0
C292 C 0.06674 0.00878 0.35285 0.0
C293 C 0.07601 0.13243 0.37318 0.0
C294 C 0.07046 0.09736 0.35565 0.0
H295 H 0.98046 0.86852 0.39091 0.0
H296 H 0.02363 0.90898 0.35652 0.0
H297 H 0.14469 0.05077 0.3487 0.0
H298 H 0.09621 0.13603 0.42924 0.0
H299 H 0.05078 0.07837 0.39965 0.0
C300 C 0.16189 0.05712 0.74302 0.0
C301 C 0.16508 0.0151 0.74065 0.0
C302 C 0.17191 0.08787 0.72469 0.0
C303 C 0.10474 0.0347 0.68277 0.0
H304 H 0.11564 0.16094 0.68684 0.0
C305 C -0.00259 0.13038 0.7218 0.0
C306 C 0.01778 0.13543 0.74322 0.0
C307 C 0.00939 0.10871 0.70439 0.0
C308 C 0.1116 0.12525 0.68465 0.0
H309 H 0.19346 0.97952 0.7195 0.0
H310 H 0.20105 0.02689 0.68627 0.0
H311 H 0.18846 0.15502 0.68225 0.0
H312 H 0.05762 0.11279 0.76442 0.0
H313 H 0.07436 0.07042 0.73447 0.0
H314 H 0.02916 0.00498 0.69071 0.0
C315 C 0.1933 0.03783 0.70229 0.0
C316 C 0.15354 0.12191 0.68169 0.0
C317 C 0.18704 0.00941 0.7212 0.0
C318 C 0.04224 0.11025 0.74803 0.0
C319 C 0.05193 0.08625 0.73086 0.0
C320 C 0.06301 0.03783 0.68683 0.0
C321 C 0.17979 0.07355 0.70337 0.0
C322 C 0.15061 0.07685 0.68507 0.0
C323 C 0.03895 0.08885 0.70864 0.0
C324 C 0.06759 0.08342 0.69051 0.0
H325 H 0.14623 0.06311 0.75808 0.0
H326 H 0.16326 0.11666 0.72635 0.0
H327 H 0.10122 -0.00096 0.68387 0.0
H328 H 0.97664 0.14776 0.71779 0.0
H329 H -0.00107 0.11098 0.68742 0.0
C330 C 0.40047 0.44634 1.00698 0.0
C331 C 0.40452 0.40464 1.00386 0.0
C332 C 0.39941 0.47274 0.98854 0.0
C333 C 0.412 0.48156 0.92599 0.0
H334 H 0.29843 0.49658 0.93045 0.0
C335 C 0.24158 0.43184 0.86918 0.0
C336 C 0.2638 0.4479 0.84805 0.0
C337 C 0.26881 0.44847 0.88863 0.0
C338 C 0.33059 0.49316 0.92895 0.0
H339 H 0.41515 0.36059 0.97914 0.0
H340 H 0.41146 0.40517 0.94707 0.0
H341 H 0.333 0.48475 0.96425 0.0
H342 H 0.33135 0.49715 0.83088 0.0
H343 H 0.37926 0.52595 0.86504 0.0
H344 H 0.40656 0.48516 0.8905 0.0
C345 C 0.40968 0.41814 0.96366 0.0
C346 C 0.35085 0.48693 0.94838 0.0
C347 C 0.41097 0.39196 0.98205 0.0
C348 C 0.31336 0.48342 0.84691 0.0
C349 C 0.34075 0.50003 0.86645 0.0
C350 C 0.39143 0.48731 0.90653 0.0
C351 C 0.40219 0.45785 0.96663 0.0
C352 C 0.39011 0.4783 0.94701 0.0
C353 C 0.31903 0.48153 0.88747 0.0
C354 C 0.34882 0.49036 0.90777 0.0
H355 H 0.39543 0.45707 1.02358 0.0
H356 H 0.39427 0.50353 0.99142 0.0
H357 H 0.44304 0.47627 0.92442 0.0
H358 H 0.20373 0.40396 0.87073 0.0
H359 H 0.25097 0.43265 0.90446 0.0
C360 C 0.04422 0.42684 0.34792 0.0
C361 C 0.0897 0.43048 0.34415 0.0
C362 C 0.01681 0.4274 0.3299 0.0
C363 C 0.01947 0.43844 0.26714 0.0
H364 H 0.892 0.32388 0.2727 0.0
C365 C 0.93064 0.3264 0.1897 0.0
C366 C 0.91559 0.27706 0.193 0.0
C367 C 0.93759 0.35668 0.20798 0.0
C368 C 0.92737 0.35614 0.27082 0.0
H369 H 0.14445 0.4431 0.31894 0.0
H370 H 0.09632 0.44183 0.28762 0.0
H371 H 0.93749 0.36255 0.30614 0.0
H372 H 0.8913 0.21987 0.21791 0.0
H373 H 0.90595 0.2726 0.24968 0.0
H374 H 0.01188 0.42855 0.23182 0.0
C375 C 0.08157 0.43916 0.30433 0.0
C376 C 0.9533 0.37894 0.29009 0.0
C377 C 0.10901 0.43902 0.32231 0.0
C378 C 0.90417 0.25797 0.21482 0.0
C379 C 0.91168 0.28825 0.23307 0.0
C380 C -0.00601 0.41501 0.24787 0.0
C381 C 0.03422 0.4312 0.30779 0.0
C382 C 0.00107 0.41835 0.28841 0.0
C383 C 0.93024 0.33839 0.22997 0.0
C384 C 0.94906 0.37161 0.24953 0.0
H385 H 0.02839 0.42041 0.3646 0.0
H386 H 0.9809 0.42212 0.33322 0.0
H387 H 0.05546 0.46984 0.26527 0.0
H388 H 0.9397 0.34236 0.1731 0.0
H389 H 0.95101 0.39488 0.20492 0.0
C390 C 0.74918 0.10305 0.65929 0.0
C391 C 0.73256 0.08535 0.68102 0.0
C392 C 0.72234 0.07758 0.64072 0.0
C393 C 0.6589 0.02154 0.60255 0.0
H394 H 0.63232 0.88894 0.60751 0.0
C395 C 0.67384 0.92726 0.52484 0.0
C396 C 0.70555 0.90903 0.52812 0.0
C397 C 0.65136 0.9359 0.54312 0.0
C398 C 0.63908 0.92572 0.60581 0.0
H399 H 0.67243 0.02949 0.70038 0.0
H400 H 0.62565 0.98443 0.66775 0.0
H401 H 0.6414 0.93551 0.64127 0.0
H402 H 0.73428 0.88068 0.5529 0.0
H403 H 0.69746 0.89798 0.58473 0.0
H404 H 0.66207 0.0138 0.56723 0.0
C405 C 0.65978 0.01781 0.66515 0.0
C406 C 0.64363 0.95228 0.62521 0.0
C407 C 0.68667 0.04349 0.6838 0.0
C408 C 0.71108 0.89594 0.54986 0.0
C409 C 0.68908 0.90505 0.56812 0.0
C410 C 0.65503 -0.00475 0.58318 0.0
C411 C 0.67823 0.03368 0.6434 0.0
C412 C 0.65685 0.00152 0.62374 0.0
C413 C 0.66058 0.92706 0.56507 0.0
C414 C 0.64831 0.94811 0.58465 0.0
H415 H 0.78457 0.13477 0.65647 0.0
H416 H 0.73821 0.09052 0.62425 0.0
H417 H 0.6678 0.05903 0.6009 0.0
H418 H 0.66865 0.93771 0.50831 0.0
H419 H 0.62891 0.95202 0.54012 0.0
C420 C 0.70909 0.77267 0.98795 0.0
C421 C 0.71373 0.76131 1.01013 0.0
C422 C 0.71185 0.74537 0.97027 0.0
C423 C 0.71506 0.68187 0.93404 0.0
H424 H 0.82787 0.66722 0.94216 0.0
C425 C 0.8294 0.69309 0.85821 0.0
C426 C 0.87869 0.72769 0.86124 0.0
C427 C 0.79839 0.67241 0.87669 0.0
C428 C 0.79608 0.67072 0.93959 0.0
H429 H 0.72075 0.70982 1.0313 0.0
H430 H 0.72405 0.66125 1.00044 0.0
H431 H 0.78748 0.67762 0.97463 0.0
H432 H 0.93507 0.76379 0.88595 0.0
H433 H 0.88103 0.73005 0.91801 0.0
H434 H 0.72697 0.68057 0.89892 0.0
C435 C 0.7194 0.69196 0.99667 0.0
C436 C 0.77235 0.67599 0.95829 0.0
C437 C 0.71705 0.71959 1.01438 0.0
C438 C 0.89703 0.7382 0.88306 0.0
C439 C 0.86602 0.718 0.9015 0.0
C440 C 0.7393 0.67747 0.91533 0.0
C441 C 0.71889 0.70576 0.97438 0.0
C442 C 0.73347 0.68476 0.95562 0.0
C443 C 0.81592 0.68632 0.89855 0.0
C444 C 0.78197 0.67499 0.91788 0.0
H445 H 0.70545 0.80398 0.98416 0.0
H446 H 0.71177 0.75756 0.95337 0.0
H447 H 0.68421 0.68696 0.93145 0.0
H448 H 0.81404 0.68408 0.84161 0.0
H449 H 0.76021 0.64747 0.87382 0.0
C450 C 0.02094 0.73207 0.31455 0.0
C451 C 0.03791 0.73598 0.33649 0.0
C452 C 0.05055 0.73623 0.29626 0.0
C453 C 0.17988 0.79691 0.28222 0.0
H454 H 0.12918 0.74429 0.22365 0.0
C455 C 0.22834 0.8368 0.1813 0.0
C456 C 0.24314 0.88653 0.18197 0.0
C457 C 0.21416 0.80904 0.20095 0.0
C458 C 0.14452 0.75858 0.23991 0.0
H459 H 0.09826 0.74424 0.35645 0.0
H460 H 0.14929 0.75003 0.32454 0.0
H461 H 0.07947 0.70665 0.25691 0.0
H462 H 0.25722 0.94653 0.20399 0.0
H463 H 0.23281 0.89861 0.23797 0.0
H464 H 0.24441 0.84958 0.26518 0.0
C465 C 0.11342 0.74468 0.32146 0.0
C466 C 0.11571 0.73737 0.25896 0.0
C467 C 0.08391 0.74088 0.33977 0.0
C468 C 0.24671 0.90853 0.20284 0.0
C469 C 0.2327 0.88091 0.22242 0.0
C470 C 0.20881 0.81784 0.2632 0.0
C471 C 0.09772 0.74405 0.2995 0.0
C472 C 0.13209 0.75793 0.2802 0.0
C473 C 0.21469 0.83057 0.22163 0.0
C474 C 0.1904 0.80056 0.24176 0.0
H475 H -0.01468 0.72737 0.31146 0.0
H476 H 0.03734 0.73605 0.27961 0.0
H477 H 0.1938 0.8138 0.29828 0.0
H478 H 0.22604 0.81898 0.16549 0.0
H479 H 0.20103 0.77044 0.19986 0.0
C480 C 0.42238 0.06684 0.66727 0.0
C481 C 0.37864 0.02256 0.66494 0.0
C482 C 0.44771 0.09406 0.64841 0.0
C483 C 0.44717 0.09171 0.58548 0.0
H484 H 0.48327 0.22679 0.59247 0.0
C485 C 0.41898 0.23719 0.53448 0.0
C486 C 0.42381 0.22388 0.51255 0.0
C487 C 0.43523 0.22198 0.55262 0.0
C488 C 0.4734 0.18918 0.59017 0.0
H489 H 0.32962 0.97029 0.64086 0.0
H490 H 0.37168 0.01863 0.60823 0.0
H491 H 0.46869 0.17695 0.62541 0.0
H492 H 0.45419 0.18834 0.49236 0.0
H493 H 0.48478 0.16392 0.52395 0.0
H494 H 0.4465 0.10243 0.55033 0.0
C495 C 0.38736 0.03226 0.6245 0.0
C496 C 0.46579 0.16061 0.60915 0.0
C497 C 0.36251 0.00478 0.6433 0.0
C498 C 0.44961 0.19908 0.50903 0.0
C499 C 0.46664 0.18451 0.52721 0.0
C500 C 0.45367 0.11997 0.56652 0.0
C501 C 0.42951 0.07798 0.6268 0.0
C502 C 0.44999 0.11081 0.60704 0.0
C503 C 0.45759 0.19376 0.5493 0.0
C504 C 0.46426 0.16838 0.56868 0.0
H505 H 0.43592 0.08182 0.68367 0.0
H506 H 0.48051 0.12861 0.65085 0.0
H507 H 0.43676 0.05395 0.58319 0.0
H508 H 0.40054 0.25749 0.53775 0.0
H509 H 0.42715 0.22974 0.56928 0.0
C510 C 0.46154 0.1434 1.08074 0.0
C511 C 0.4241 0.1313 0.09662 0.0
C512 C 0.49936 0.13419 1.0848 0.0
C513 C 0.53623 0.06025 0.1174 0.0
H514 H 0.66613 0.16207 0.10086 0.0
C515 C 0.70324 0.036 0.1308 0.0
C516 C 0.73962 0.05364 0.11406 0.0
C517 C 0.66666 0.04839 0.13091 0.0
C518 C 0.63017 0.13293 0.10535 0.0
H519 H 0.39637 0.09829 0.1291 0.0
H520 H 0.46277 0.08123 0.13619 0.0
H521 H 0.59774 0.17584 0.09709 0.0
H522 H 0.76699 0.09959 1.08466 0.0
H523 H 0.70281 0.12072 1.08449 0.0
H524 H 0.56829 0.01674 0.12504 0.0
C525 C 0.46268 0.09835 0.12056 0.0
C526 C 0.59082 0.14094 0.10328 0.0
C527 C 0.42463 0.10804 0.11653 0.0
C528 C 0.73972 0.08569 0.0979 0.0
C529 C 0.70276 0.09779 0.09786 0.0
C530 C 0.5756 0.05205 0.11932 0.0
C531 C 0.50105 0.11223 0.10486 0.0
C532 C 0.54318 0.10453 0.10898 0.0
C533 C 0.66499 0.07848 0.11411 0.0
C534 C 0.62322 0.0881 0.1131 0.0
H535 H 0.46215 0.16084 1.06508 0.0
H536 H 0.52743 0.14433 1.07208 0.0
H537 H 0.50008 0.03124 0.12174 0.0
H538 H 0.7023 0.01141 0.14357 0.0
H539 H 0.63926 0.03371 0.14406 0.0
C540 C 0.39486 0.42175 0.45129 0.0
C541 C 0.37204 0.42027 0.43101 0.0
C542 C 0.44275 0.45959 0.45538 0.0
C543 C 0.52825 0.5865 0.43793 0.0
H544 H 0.63136 0.56601 0.45896 0.0
C545 C 0.73112 0.73761 0.4314 0.0
C546 C 0.7642 0.73819 0.44695 0.0
C547 C 0.68233 0.70002 0.43173 0.0
C548 C 0.60297 0.5728 0.45347 0.0
H549 H 0.38271 0.45594 0.3988 0.0
H550 H 0.46455 0.52087 0.40597 0.0
H551 H 0.54882 0.49712 0.45613 0.0
H552 H 0.77144 0.70131 0.47579 0.0
H553 H 0.6865 0.63729 0.47704 0.0
H554 H 0.5816 0.66189 0.43536 0.0
C555 C 0.44574 0.49374 0.41889 0.0
C556 C 0.55552 0.53303 0.45181 0.0
C557 C 0.39869 0.45615 0.41476 0.0
C558 C 0.74687 0.70174 0.46348 0.0
C559 C 0.69812 0.66457 0.46401 0.0
C560 C 0.57542 0.62626 0.43981 0.0
C561 C 0.46824 0.49672 0.43937 0.0
C562 C 0.51773 0.53923 0.44359 0.0
C563 C 0.66517 0.6623 0.44782 0.0
C564 C 0.61389 0.62009 0.44723 0.0
H565 H 0.3754 0.39463 0.46413 0.0
H566 H 0.45921 0.4607 0.47131 0.0
H567 H 0.49986 0.59276 0.43185 0.0
H568 H 0.74339 0.7649 0.41832 0.0
H569 H 0.65864 0.69965 0.41877 0.0
C570 C 0.04261 0.39575 0.78452 0.0
C571 C 0.01901 0.37034 0.76502 0.0
C572 C 0.05255 0.44382 0.78788 0.0
C573 C 0.01055 0.52856 0.76965 0.0
H574 H 0.13525 0.63099 0.79008 0.0
C575 C 0.06736 0.7328 0.76249 0.0
C576 C 0.09985 0.76554 0.77822 0.0
C577 C 0.05474 0.68362 0.76288 0.0
C578 C 0.0998 0.60282 0.78473 0.0
H579 H -0.0111 0.37621 0.73354 0.0
H580 H 0.00584 0.45869 0.7394 0.0
H581 H 0.12009 0.54794 0.78762 0.0
H582 H 0.14226 0.77182 0.80745 0.0
H583 H 0.11898 0.68632 0.80873 0.0
H584 H -0.01007 0.58293 0.7668 0.0
C585 C 0.01612 0.44176 0.75229 0.0
C586 C 0.09122 0.55504 0.78328 0.0
C587 C 0.00666 0.39436 0.74888 0.0
C588 C 0.11733 0.74753 0.79501 0.0
C589 C 0.1044 0.69846 0.79556 0.0
C590 C 0.01894 0.57616 0.77126 0.0
C591 C 0.03857 0.46709 0.77193 0.0
C592 C 0.04673 0.51736 0.77538 0.0
C593 C 0.07394 0.66585 0.77915 0.0
C594 C 0.06393 0.6143 0.77855 0.0
H595 H 0.05236 0.37822 0.79731 0.0
H596 H 0.06996 0.46228 0.80322 0.0
H597 H 0.9755 0.50035 0.76385 0.0
H598 H 0.05359 0.7456 0.74922 0.0
H599 H 0.03153 0.66006 0.74981 0.0
C600 C 0.28086 0.14293 0.18182 0.0
C601 C 0.29845 0.17707 0.16395 0.0
C602 C 0.27668 0.15598 0.2044 0.0
C603 C 0.28013 0.25939 0.24109 0.0
H604 H 0.2808 0.18088 0.29025 0.0
C605 C 0.24562 0.2995 0.33632 0.0
C606 C 0.26392 0.28518 0.35456 0.0
C607 C 0.24959 0.28708 0.31353 0.0
C608 C 0.28084 0.20406 0.27703 0.0
H609 H 0.32529 0.25331 0.15747 0.0
H610 H 0.31856 0.2759 0.19606 0.0
H611 H 0.289 0.15964 0.2519 0.0
H612 H 0.30102 0.24523 0.36152 0.0
H613 H 0.30819 0.22443 0.32285 0.0
H614 H 0.27267 0.30422 0.26634 0.0
C615 C 0.30724 0.23827 0.19277 0.0
C616 C 0.28502 0.19117 0.25442 0.0
C617 C 0.31155 0.2252 0.17018 0.0
C618 C 0.28624 0.25759 0.34853 0.0
C619 C 0.29005 0.24505 0.32585 0.0
C620 C 0.27573 0.27217 0.26373 0.0
C621 C 0.28964 0.20415 0.21075 0.0
C622 C 0.28492 0.21837 0.23557 0.0
C623 C 0.27184 0.25922 0.30746 0.0
C624 C 0.27608 0.24507 0.28257 0.0
H625 H 0.2699 0.10539 0.17838 0.0
H626 H 0.26227 0.12742 0.21687 0.0
H627 H 0.27915 0.28193 0.22782 0.0
H628 H 0.2277 0.32028 0.33962 0.0
H629 H 0.23416 0.29893 0.30065 0.0
C630 C 0.19524 0.26439 0.51425 0.0
C631 C 0.19673 0.29907 0.49882 0.0
C632 C 0.17756 0.26016 0.53683 0.0
C633 C 0.15108 0.32778 0.58363 0.0
H634 H 0.07737 0.20151 0.61185 0.0
C635 C 0.10018 0.30467 0.68205 0.0
C636 C 0.05452 0.26635 0.68971 0.0
C637 C 0.11639 0.30885 0.65921 0.0
C638 C 0.09779 0.23739 0.6045 0.0
H639 H 0.17993 0.35704 0.49686 0.0
H640 H 0.15123 0.35101 0.53583 0.0
H641 H 0.10693 0.20834 0.57309 0.0
H642 H -0.0086 0.20144 0.67767 0.0
H643 H 0.01981 0.2077 0.63861 0.0
H644 H 0.14294 0.35691 0.61522 0.0
C645 C 0.16334 0.32626 0.53039 0.0
C646 C 0.11537 0.24142 0.58189 0.0
C647 C 0.17993 0.3297 0.50761 0.0
C648 C 0.02643 0.232 0.67304 0.0
C649 C 0.04321 0.23549 0.6503 0.0
C650 C 0.13456 0.32384 0.60643 0.0
C651 C 0.16122 0.2911 0.54577 0.0
C652 C 0.14239 0.28674 0.57059 0.0
C653 C 0.08868 0.27423 0.64254 0.0
C654 C 0.10705 0.27848 0.61764 0.0
H655 H 0.20738 0.23965 0.50879 0.0
H656 H 0.17749 0.23266 0.54749 0.0
H657 H 0.17167 0.36368 0.57632 0.0
H658 H 0.12381 0.33208 0.69383 0.0
H659 H 0.15166 0.3392 0.65475 0.0
C660 C 0.9292 0.1677 0.84147 0.0
C661 C 0.97723 0.20234 0.83454 0.0
C662 C 0.91657 0.15146 0.86429 0.0
C663 C 0.9666 0.17745 0.92558 0.0
H664 H 0.84854 0.0574 0.93943 0.0
C665 C 0.90539 0.11903 1.02124 0.0
C666 C 0.87257 0.07034 1.02787 0.0
C667 C 0.9174 0.13373 0.9983 0.0
C668 C 0.88204 0.09102 0.93633 0.0
H669 H 0.04923 0.24591 0.84816 0.0
H670 H 0.02814 0.21812 0.88693 0.0
H671 H 0.86999 0.08388 0.90062 0.0
H672 H 0.82767 -0.00078 1.01343 0.0
H673 H 0.84824 0.02413 0.97402 0.0
H674 H 0.97927 0.18419 0.96116 0.0
C675 C -0.00084 0.20338 0.87487 0.0
C676 C 0.89444 0.10696 0.91344 0.0
C677 C 0.01173 0.21958 0.85206 0.0
C678 C 0.85266 0.03714 1.00979 0.0
C679 C 0.86469 0.05191 0.9867 0.0
C680 C 0.95419 0.16157 0.94843 0.0
C681 C 0.95104 0.16863 0.88195 0.0
C682 C 0.93724 0.15088 0.90712 0.0
C683 C 0.89765 0.10089 0.98004 0.0
C684 C 0.91135 0.11777 0.95478 0.0
H685 H 0.90071 0.15279 0.82913 0.0
H686 H 0.87894 0.12546 0.86799 0.0
H687 H -0.00036 0.21155 0.92261 0.0
H688 H 0.92227 0.14666 1.03398 0.0
H689 H 0.94217 0.17181 0.99506 0.0
C690 C 0.87192 0.02171 0.18841 0.0
C691 C 0.84773 0.98663 0.17142 0.0
C692 C 0.87572 0.00869 0.21098 0.0
C693 C 0.8571 0.90042 0.24871 0.0
H694 H 0.87702 0.98933 0.29714 0.0
C695 C 0.88935 0.85731 0.34342 0.0
C696 C 0.87718 0.87749 0.36195 0.0
C697 C 0.88637 0.86999 0.32061 0.0
C698 C 0.87109 0.96321 0.28414 0.0
H699 H 0.80861 0.90877 0.16654 0.0
H700 H 0.81472 0.88636 0.20505 0.0
H701 H 0.86971 0.01094 0.2589 0.0
H702 H 0.85257 0.92854 0.36931 0.0
H703 H 0.84724 0.94984 0.33074 0.0
H704 H 0.85789 0.85243 0.27409 0.0
C705 C 0.83157 0.9246 0.20108 0.0
C706 C 0.86741 0.97623 0.26158 0.0
C707 C 0.82762 0.93765 0.17853 0.0
C708 C 0.86234 0.91139 0.35614 0.0
C709 C 0.85961 0.9242 0.33347 0.0
C710 C 0.86104 0.88749 0.2713 0.0
C711 C 0.85579 0.95961 0.21819 0.0
C712 C 0.86012 0.94531 0.24297 0.0
C713 C 0.87141 0.90401 0.31479 0.0
C714 C 0.86797 0.91832 0.28991 0.0
H715 H 0.88846 0.05989 0.18427 0.0
H716 H 0.89537 0.03785 0.22274 0.0
H717 H 0.85215 0.87478 0.23563 0.0
H718 H 0.90142 0.83151 0.34649 0.0
H719 H 0.89666 0.85325 0.30748 0.0
C720 C 0.92743 0.87274 0.52115 0.0
C721 C 0.9386 0.84922 0.50375 0.0
C722 C 0.94481 0.87661 0.54352 0.0
C723 C 0.03601 0.85891 0.5799 0.0
H724 H 0.96735 0.87812 0.62917 0.0
C725 C 0.11242 0.89064 0.67417 0.0
C726 C 0.08019 0.87868 0.69279 0.0
C727 C 0.09656 0.88765 0.65146 0.0
C728 C -0.01257 0.87233 0.61594 0.0
H729 H 0.97838 0.81132 0.49784 0.0
H730 H 0.00773 0.81733 0.53608 0.0
H731 H 0.93766 0.87059 0.59124 0.0
H732 H 0.00458 0.85419 0.70051 0.0
H733 H 0.97758 0.84856 0.66216 0.0
H734 H 0.08535 0.85984 0.60479 0.0
C735 C -0.01423 0.83369 0.53258 0.0
C736 C 0.9703 0.86858 0.59354 0.0
C737 C 0.9683 0.82979 0.51021 0.0
C738 C 0.03141 0.86387 0.68724 0.0
C739 C 0.01565 0.86099 0.6647 0.0
C740 C 0.05326 0.8628 0.60234 0.0
C741 C 0.97472 0.85729 0.55009 0.0
C742 C -0.00617 0.86161 0.57466 0.0
C743 C 0.04751 0.87279 0.64592 0.0
C744 C 0.02947 0.86944 0.62122 0.0
H745 H 0.90517 0.88876 0.51748 0.0
H746 H 0.93511 0.89582 0.55561 0.0
H747 H 0.05665 0.85424 0.56657 0.0
H748 H 0.15034 0.9027 0.67708 0.0
H749 H 0.12347 0.8979 0.63821 0.0
C750 C 0.13812 0.94685 0.8495 0.0
C751 C 0.17063 0.94336 0.8341 0.0
C752 C 0.15212 0.96544 0.87168 0.0
C753 C 0.24597 -0.0086 0.91734 0.0
H754 H 0.19731 0.06991 0.94439 0.0
C755 C 0.27631 0.04753 1.0142 0.0
C756 C 0.28514 0.09405 1.02094 0.0
C757 C 0.26359 0.03024 0.99177 0.0
C758 C 0.21167 0.04819 0.93732 0.0
H759 H 0.24458 0.95744 0.83154 0.0
H760 H 0.26822 0.98794 0.86988 0.0
H761 H 0.17345 0.03848 0.90627 0.0
H762 H 0.28553 0.15773 1.00796 0.0
H763 H 0.26238 0.12753 0.9695 0.0
H764 H 0.28346 0.00033 0.94853 0.0
C765 C 0.23153 0.97661 0.86475 0.0
C766 C 0.19745 0.02953 0.91514 0.0
C767 C 0.21784 0.95899 0.84239 0.0
C768 C 0.27984 0.12204 1.00393 0.0
C769 C 0.26598 0.10426 0.98158 0.0
C770 C 0.25931 0.00914 0.93969 0.0
C771 C 0.19923 0.98077 0.88008 0.0
C772 C 0.21434 0.00073 0.90437 0.0
C773 C 0.25764 0.05784 0.97475 0.0
C774 C 0.24283 0.03834 0.95038 0.0
H775 H 0.10148 0.93567 0.84431 0.0
H776 H 0.12532 0.96709 0.88244 0.0
H777 H 0.26009 0.96942 0.91033 0.0
H778 H 0.27934 0.02406 1.02637 0.0
H779 H 0.25736 -0.00571 0.98791 0.0
loop_
_geom_bond_atom_site_label_1
_geom_bond_atom_site_label_2
_geom_bond_distance
_geom_bond_site_symmetry_2
_ccdc_geom_bond_type
La0 C2 2.928 . S
La0 O20 2.521 . S
La0 O21 2.628 . S
La0 O22 2.554 . S
La0 O23 2.757 1_554 S
La0 O24 2.470 . S
La0 O29 2.482 . S
La0 O31 2.503 1_554 S
La1 C11 2.928 . S
La1 O23 2.482 . S
La1 O25 2.503 1_556 S
La1 O26 2.521 . S
La1 O27 2.628 . S
La1 O28 2.554 . S
La1 O29 2.757 1_556 S
La1 O30 2.470 . S
C2 La0 2.928 . S
C2 C3 1.503 . S
C2 O20 1.261 . S
C2 O21 1.243 . S
C3 C2 1.503 . S
C3 C4 1.394 . S
C3 C8 1.373 . S
C4 C3 1.394 . S
C4 C5 1.380 . S
C4 H32 0.930 . S
C5 C4 1.380 . S
C5 C6 1.376 . S
C5 H33 0.930 1_545 S
C6 C5 1.376 . S
C6 C7 1.370 . S
C7 C6 1.370 . S
C7 C8 1.396 . S
C7 H34 0.929 . S
C8 C3 1.373 . S
C8 C7 1.396 . S
C8 H35 0.929 . S
C9 O22 1.240 . S
C9 O23 1.289 1_554 S
C10 O24 1.258 . S
C10 O25 1.256 . S
C11 La1 2.928 . S
C11 C12 1.503 . S
C11 O26 1.261 . S
C11 O27 1.243 . S
C12 C11 1.503 . S
C12 C13 1.394 . S
C12 C17 1.373 . S
C13 C12 1.394 . S
C13 C14 1.380 . S
C13 H36 0.930 . S
C14 C13 1.380 . S
C14 C15 1.376 . S
C14 H37 0.930 . S
C15 C14 1.376 . S
C15 C16 1.370 . S
C16 C15 1.370 . S
C16 C17 1.396 . S
C16 H38 0.929 . S
C17 C12 1.373 . S
C17 C16 1.396 . S
C17 H39 0.929 . S
C18 O28 1.240 1_554 S
C18 O29 1.289 . S
C19 O30 1.258 . S
C19 O31 1.256 . S
O20 La0 2.521 . S
O20 C2 1.261 . S
O21 La0 2.628 . S
O21 C2 1.243 . S
O22 La0 2.554 . S
O22 C9 1.240 . S
O23 La0 2.757 1_556 S
O23 La1 2.482 . S
O23 C9 1.289 1_556 S
O24 La0 2.470 . S
O24 C10 1.258 . S
O25 La1 2.503 1_554 S
O25 C10 1.256 . S
O26 La1 2.521 . S
O26 C11 1.261 . S
O27 La1 2.628 . S
O27 C11 1.243 . S
O28 La1 2.554 . S
O28 C18 1.240 1_556 S
O29 La0 2.482 . S
O29 La1 2.757 1_554 S
O29 C18 1.289 . S
O30 La1 2.470 . S
O30 C19 1.258 . S
O31 La0 2.503 1_556 S
O31 C19 1.256 . S
H32 C4 0.930 . S
H33 C5 0.930 1_565 S
H34 C7 0.929 . S
H35 C8 0.929 . S
H36 C13 0.930 . S
H37 C14 0.930 . S
H38 C16 0.929 . S
H39 C17 0.929 . S
La40 C42 2.928 . S
La40 O60 2.521 . S
La40 O61 2.628 . S
La40 O62 2.554 . S
La40 O63 2.757 . S
La40 O64 2.470 . S
La40 O69 2.482 . S
La40 O71 2.503 . S
La41 C51 2.928 . S
La41 O63 2.482 . S
La41 O65 2.503 . S
La41 O66 2.521 . S
La41 O67 2.628 . S
La41 O68 2.554 . S
La41 O69 2.757 . S
La41 O70 2.470 . S
C42 La40 2.928 . S
C42 C43 1.503 . S
C42 O60 1.261 . S
C42 O61 1.243 . S
C43 C42 1.503 . S
C43 C44 1.394 . S
C43 C48 1.373 . S
C44 C43 1.394 . S
C44 C45 1.380 . S
C44 H72 0.930 . S
C45 C44 1.380 . S
C45 C46 1.376 . S
C45 H73 0.930 . S
C46 C45 1.376 . S
C46 C47 1.370 . S
C47 C46 1.370 . S
C47 C48 1.396 . S
C47 H74 0.929 . S
C48 C43 1.373 . S
C48 C47 1.396 . S
C48 H75 0.929 . S
C49 O62 1.240 . S
C49 O63 1.289 . S
C50 O64 1.258 . S
C50 O65 1.256 . S
C51 La41 2.928 . S
C51 C52 1.503 . S
C51 O66 1.261 . S
C51 O67 1.243 . S
C52 C51 1.503 . S
C52 C53 1.394 . S
C52 C57 1.373 . S
C53 C52 1.394 . S
C53 C54 1.380 . S
C53 H76 0.930 . S
C54 C53 1.380 . S
C54 C55 1.376 . S
C54 H77 0.930 . S
C55 C54 1.376 . S
C55 C56 1.370 . S
C56 C55 1.370 . S
C56 C57 1.396 . S
C56 H78 0.929 . S
C57 C52 1.373 . S
C57 C56 1.396 . S
C57 H79 0.929 . S
C58 O68 1.240 . S
C58 O69 1.289 . S
C59 O70 1.258 . S
C59 O71 1.256 . S
O60 La40 2.521 . S
O60 C42 1.261 . S
O61 La40 2.628 . S
O61 C42 1.243 . S
O62 La40 2.554 . S
O62 C49 1.240 . S
O63 La40 2.757 . S
O63 La41 2.482 . S
O63 C49 1.289 . S
O64 La40 2.470 . S
O64 C50 1.258 . S
O65 La41 2.503 . S
O65 C50 1.256 . S
O66 La41 2.521 . S
O66 C51 1.261 . S
O67 La41 2.628 . S
O67 C51 1.243 . S
O68 La41 2.554 . S
O68 C58 1.240 . S
O69 La40 2.482 . S
O69 La41 2.757 . S
O69 C58 1.289 . S
O70 La41 2.470 . S
O70 C59 1.258 . S
O71 La40 2.503 . S
O71 C59 1.256 . S
H72 C44 0.930 . S
H73 C45 0.930 . S
H74 C47 0.929 . S
H75 C48 0.929 . S
H76 C53 0.930 . S
H77 C54 0.930 . S
H78 C56 0.929 . S
H79 C57 0.929 . S
La80 C82 2.928 . S
La80 O100 2.521 . S
La80 O101 2.628 . S
La80 O102 2.554 . S
La80 O103 2.757 . S
La80 O104 2.470 1_455 S
La80 O109 2.482 . S
La80 O111 2.503 . S
La81 C91 2.928 . S
La81 O103 2.482 1_655 S
La81 O105 2.503 . S
La81 O106 2.521 . S
La81 O107 2.628 . S
La81 O108 2.554 . S
La81 O109 2.757 1_655 S
La81 O110 2.470 1_655 S
C82 La80 2.928 . S
C82 C83 1.503 . S
C82 O100 1.261 . S
C82 O101 1.243 . S
C83 C82 1.503 . S
C83 C84 1.394 . S
C83 C88 1.373 . S
C84 C83 1.394 . S
C84 C85 1.380 . S
C84 H112 0.930 . S
C85 C84 1.380 . S
C85 C86 1.376 . S
C85 H113 0.930 . S
C86 C85 1.376 . S
C86 C87 1.370 . S
C87 C86 1.370 . S
C87 C88 1.396 . S
C87 H114 0.929 . S
C88 C83 1.373 . S
C88 C87 1.396 . S
C88 H115 0.929 . S
C89 O102 1.240 . S
C89 O103 1.289 . S
C90 O104 1.258 . S
C90 O105 1.256 . S
C91 La81 2.928 . S
C91 C92 1.503 . S
C91 O106 1.261 . S
C91 O107 1.243 . S
C92 C91 1.503 . S
C92 C93 1.394 . S
C92 C97 1.373 . S
C93 C92 1.394 . S
C93 C94 1.380 . S
C93 H116 0.930 . S
C94 C93 1.380 . S
C94 C95 1.376 . S
C94 H117 0.930 . S
C95 C94 1.376 . S
C95 C96 1.370 . S
C96 C95 1.370 . S
C96 C97 1.396 . S
C96 H118 0.929 . S
C97 C92 1.373 . S
C97 C96 1.396 . S
C97 H119 0.929 . S
C98 O108 1.240 . S
C98 O109 1.289 1_655 S
C99 O110 1.258 . S
C99 O111 1.256 . S
O100 La80 2.521 . S
O100 C82 1.261 . S
O101 La80 2.628 . S
O101 C82 1.243 . S
O102 La80 2.554 . S
O102 C89 1.240 . S
O103 La80 2.757 . S
O103 La81 2.482 1_455 S
O103 C89 1.289 . S
O104 La80 2.470 1_655 S
O104 C90 1.258 . S
O105 La81 2.503 . S
O105 C90 1.256 . S
O106 La81 2.521 . S
O106 C91 1.261 . S
O107 La81 2.628 . S
O107 C91 1.243 . S
O108 La81 2.554 . S
O108 C98 1.240 . S
O109 La80 2.482 . S
O109 La81 2.757 1_455 S
O109 C98 1.289 1_455 S
O110 La81 2.470 1_455 S
O110 C99 1.258 . S
O111 La80 2.503 . S
O111 C99 1.256 . S
H112 C84 0.930 . S
H113 C85 0.930 . S
H114 C87 0.929 . S
H115 C88 0.929 . S
H116 C93 0.930 . S
H117 C94 0.930 . S
H118 C96 0.929 . S
H119 C97 0.929 . S
La120 C122 2.928 . S
La120 O140 2.521 . S
La120 O141 2.628 . S
La120 O142 2.554 . S
La120 O143 2.757 1_554 S
La120 O144 2.470 1_545 S
La120 O149 2.482 . S
La120 O151 2.503 1_554 S
La121 C131 2.928 . S
La121 O143 2.482 1_565 S
La121 O145 2.503 1_556 S
La121 O146 2.521 . S
La121 O147 2.628 . S
La121 O148 2.554 . S
La121 O149 2.757 1_566 S
La121 O150 2.470 1_565 S
C122 La120 2.928 . S
C122 C123 1.503 . S
C122 O140 1.261 . S
C122 O141 1.243 . S
C123 C122 1.503 . S
C123 C124 1.394 . S
C123 C128 1.373 . S
C124 C123 1.394 . S
C124 C125 1.380 . S
C124 H152 0.930 . S
C125 C124 1.380 . S
C125 C126 1.376 . S
C125 H153 0.930 . S
C126 C125 1.376 . S
C126 C127 1.370 . S
C127 C126 1.370 . S
C127 C128 1.396 . S
C127 H154 0.929 . S
C128 C123 1.373 . S
C128 C127 1.396 . S
C128 H155 0.929 . S
C129 O142 1.240 . S
C129 O143 1.289 1_554 S
C130 O144 1.258 . S
C130 O145 1.256 . S
C131 La121 2.928 . S
C131 C132 1.503 . S
C131 O146 1.261 . S
C131 O147 1.243 . S
C132 C131 1.503 . S
C132 C133 1.394 . S
C132 C137 1.373 . S
C133 C132 1.394 . S
C133 C134 1.380 . S
C133 H156 0.930 . S
C134 C133 1.380 . S
C134 C135 1.376 . S
C134 H157 0.930 . S
C135 C134 1.376 . S
C135 C136 1.370 . S
C136 C135 1.370 . S
C136 C137 1.396 . S
C136 H158 0.929 . S
C137 C132 1.373 . S
C137 C136 1.396 . S
C137 H159 0.929 . S
C138 O148 1.240 1_554 S
C138 O149 1.289 1_565 S
C139 O150 1.258 . S
C139 O151 1.256 . S
O140 La120 2.521 . S
O140 C122 1.261 . S
O141 La120 2.628 . S
O141 C122 1.243 . S
O142 La120 2.554 . S
O142 C129 1.240 . S
O143 La120 2.757 1_556 S
O143 La121 2.482 1_545 S
O143 C129 1.289 1_556 S
O144 La120 2.470 1_565 S
O144 C130 1.258 . S
O145 La121 2.503 1_554 S
O145 C130 1.256 . S
O146 La121 2.521 . S
O146 C131 1.261 . S
O147 La121 2.628 . S
O147 C131 1.243 . S
O148 La121 2.554 . S
O148 C138 1.240 1_556 S
O149 La120 2.482 . S
O149 La121 2.757 1_544 S
O149 C138 1.289 1_545 S
O150 La121 2.470 1_545 S
O150 C139 1.258 . S
O151 La120 2.503 1_556 S
O151 C139 1.256 . S
H152 C124 0.930 . S
H153 C125 0.930 . S
H154 C127 0.929 . S
H155 C128 0.929 . S
H156 C133 0.930 . S
H157 C134 0.930 . S
H158 C136 0.929 . S
H159 C137 0.929 . S
La160 C162 2.928 . S
La160 O180 2.521 . S
La160 O181 2.628 . S
La160 O182 2.554 . S
La160 O183 2.757 . S
La160 O184 2.470 . S
La160 O189 2.482 . S
La160 O191 2.503 . S
La161 C171 2.928 . S
La161 O183 2.482 . S
La161 O185 2.503 . S
La161 O186 2.521 . S
La161 O187 2.628 . S
La161 O188 2.554 . S
La161 O189 2.757 . S
La161 O190 2.470 . S
C162 La160 2.928 . S
C162 C163 1.503 . S
C162 O180 1.261 . S
C162 O181 1.243 . S
C163 C162 1.503 . S
C163 C164 1.394 . S
C163 C168 1.373 . S
C164 C163 1.394 . S
C164 C165 1.380 . S
C164 H192 0.930 . S
C165 C164 1.380 . S
C165 C166 1.376 . S
C165 H193 0.930 . S
C166 C165 1.376 . S
C166 C167 1.370 . S
C167 C166 1.370 . S
C167 C168 1.396 . S
C167 H194 0.929 . S
C168 C163 1.373 . S
C168 C167 1.396 . S
C168 H195 0.929 . S
C169 O182 1.240 . S
C169 O183 1.289 . S
C170 O184 1.258 . S
C170 O185 1.256 . S
C171 La161 2.928 . S
C171 C172 1.503 . S
C171 O186 1.261 . S
C171 O187 1.243 . S
C172 C171 1.503 . S
C172 C173 1.394 . S
C172 C177 1.373 1_655 S
C173 C172 1.394 . S
C173 C174 1.380 . S
C173 H196 0.930 . S
C174 C173 1.380 . S
C174 C175 1.376 1_655 S
C174 H197 0.930 . S
C175 C174 1.376 1_455 S
C175 C176 1.370 . S
C176 C175 1.370 . S
C176 C177 1.396 . S
C176 H198 0.929 . S
C177 C172 1.373 1_455 S
C177 C176 1.396 . S
C177 H199 0.929 . S
C178 O188 1.240 . S
C178 O189 1.289 . S
C179 O190 1.258 . S
C179 O191 1.256 . S
O180 La160 2.521 . S
O180 C162 1.261 . S
O181 La160 2.628 . S
O181 C162 1.243 . S
O182 La160 2.554 . S
O182 C169 1.240 . S
O183 La160 2.757 . S
O183 La161 2.482 . S
O183 C169 1.289 . S
O184 La160 2.470 . S
O184 C170 1.258 . S
O185 La161 2.503 . S
O185 C170 1.256 . S
O186 La161 2.521 . S
O186 C171 1.261 . S
O187 La161 2.628 . S
O187 C171 1.243 . S
O188 La161 2.554 . S
O188 C178 1.240 . S
O189 La160 2.482 . S
O189 La161 2.757 . S
O189 C178 1.289 . S
O190 La161 2.470 . S
O190 C179 1.258 . S
O191 La160 2.503 . S
O191 C179 1.256 . S
H192 C164 0.930 . S
H193 C165 0.930 . S
H194 C167 0.929 . S
H195 C168 0.929 . S
H196 C173 0.930 . S
H197 C174 0.930 . S
H198 C176 0.929 . S
H199 C177 0.929 . S
La200 C202 2.928 . S
La200 O220 2.521 . S
La200 O221 2.628 . S
La200 O222 2.554 . S
La200 O223 2.757 . S
La200 O224 2.470 . S
La200 O229 2.482 . S
La200 O231 2.503 . S
La201 C211 2.928 . S
La201 O223 2.482 . S
La201 O225 2.503 . S
La201 O226 2.521 . S
La201 O227 2.628 . S
La201 O228 2.554 . S
La201 O229 2.757 . S
La201 O230 2.470 . S
C202 La200 2.928 . S
C202 C203 1.503 . S
C202 O220 1.261 . S
C202 O221 1.243 . S
C203 C202 1.503 . S
C203 C204 1.394 . S
C203 C208 1.373 . S
C204 C203 1.394 . S
C204 C205 1.380 . S
C204 H232 0.930 . S
C205 C204 1.380 . S
C205 C206 1.376 . S
C205 H233 0.930 1_455 S
C206 C205 1.376 . S
C206 C207 1.370 . S
C207 C206 1.370 . S
C207 C208 1.396 . S
C207 H234 0.929 . S
C208 C203 1.373 . S
C208 C207 1.396 . S
C208 H235 0.929 . S
C209 O222 1.240 . S
C209 O223 1.289 . S
C210 O224 1.258 . S
C210 O225 1.256 . S
C211 La201 2.928 . S
C211 C212 1.503 . S
C211 O226 1.261 . S
C211 O227 1.243 . S
C212 C211 1.503 . S
C212 C213 1.394 . S
C212 C217 1.373 1_565 S
C213 C212 1.394 . S
C213 C214 1.380 . S
C213 H236 0.930 . S
C214 C213 1.380 . S
C214 C215 1.376 1_565 S
C214 H237 0.930 . S
C215 C214 1.376 1_545 S
C215 C216 1.370 . S
C216 C215 1.370 . S
C216 C217 1.396 . S
C216 H238 0.929 . S
C217 C212 1.373 1_545 S
C217 C216 1.396 . S
C217 H239 0.929 . S
C218 O228 1.240 . S
C218 O229 1.289 . S
C219 O230 1.258 . S
C219 O231 1.256 . S
O220 La200 2.521 . S
O220 C202 1.261 . S
O221 La200 2.628 . S
O221 C202 1.243 . S
O222 La200 2.554 . S
O222 C209 1.240 . S
O223 La200 2.757 . S
O223 La201 2.482 . S
O223 C209 1.289 . S
O224 La200 2.470 . S
O224 C210 1.258 . S
O225 La201 2.503 . S
O225 C210 1.256 . S
O226 La201 2.521 . S
O226 C211 1.261 . S
O227 La201 2.628 . S
O227 C211 1.243 . S
O228 La201 2.554 . S
O228 C218 1.240 . S
O229 La200 2.482 . S
O229 La201 2.757 . S
O229 C218 1.289 . S
O230 La201 2.470 . S
O230 C219 1.258 . S
O231 La200 2.503 . S
O231 C219 1.256 . S
H232 C204 0.930 . S
H233 C205 0.930 1_655 S
H234 C207 0.929 . S
H235 C208 0.929 . S
H236 C213 0.930 . S
H237 C214 0.930 . S
H238 C216 0.929 . S
H239 C217 0.929 . S
C240 C241 1.349 1_546 S
C240 C242 1.327 . S
C240 H265 0.950 . S
C241 C240 1.349 1_564 S
C241 C257 1.349 . S
C242 C240 1.327 . S
C242 C261 1.429 1_556 S
C242 H266 0.950 . S
C243 C260 1.574 . S
C243 C262 1.368 . S
C243 H267 0.949 . S
H244 C248 0.949 . S
C245 C246 1.349 . S
C245 C247 1.327 . S
C245 H268 0.950 . S
C246 C245 1.349 . S
C246 C258 1.349 1_554 S
C247 C245 1.327 . S
C247 C263 1.429 . S
C247 H269 0.950 . S
C248 H244 0.949 . S
C248 C256 1.574 . S
C248 C264 1.368 1_556 S
H249 C257 0.950 . S
H250 C255 0.953 . S
H251 C256 0.949 . S
H252 C258 0.950 . S
H253 C259 0.950 . S
H254 C260 0.949 . S
C255 H250 0.953 . S
C255 C257 1.327 . S
C255 C261 1.426 1_565 S
C256 C248 1.574 . S
C256 H251 0.949 . S
C256 C262 1.368 1_556 S
C257 C241 1.349 . S
C257 H249 0.950 . S
C257 C255 1.327 . S
C258 C246 1.349 1_556 S
C258 H252 0.950 . S
C258 C259 1.327 . S
C259 H253 0.950 . S
C259 C258 1.327 . S
C259 C263 1.429 1_556 S
C260 C243 1.574 . S
C260 H254 0.949 . S
C260 C264 1.368 . S
C261 C242 1.429 1_554 S
C261 C255 1.426 1_545 S
C261 C262 1.523 1_655 S
C262 C243 1.368 . S
C262 C256 1.368 1_554 S
C262 C261 1.523 1_455 S
C263 C247 1.429 . S
C263 C259 1.429 1_554 S
C263 C264 1.523 . S
C264 C248 1.368 1_554 S
C264 C260 1.368 . S
C264 C263 1.523 . S
H265 C240 0.950 . S
H266 C242 0.950 . S
H267 C243 0.949 . S
H268 C245 0.950 . S
H269 C247 0.950 . S
C270 C271 1.349 . S
C270 C272 1.327 . S
C270 H295 0.950 . S
C271 C270 1.349 . S
C271 C287 1.349 1_655 S
C272 C270 1.327 . S
C272 C291 1.429 1_655 S
C272 H296 0.950 . S
C273 C290 1.574 . S
C273 C292 1.368 . S
C273 H297 0.949 . S
H274 C278 0.949 . S
C275 C276 1.349 . S
C275 C277 1.327 . S
C275 H298 0.950 . S
C276 C275 1.349 . S
C276 C288 1.349 . S
C277 C275 1.327 . S
C277 C293 1.429 . S
C277 H299 0.950 . S
C278 H274 0.949 . S
C278 C286 1.574 . S
C278 C294 1.368 . S
H279 C287 0.950 . S
H280 C285 0.950 . S
H281 C286 0.949 . S
H282 C288 0.950 . S
H283 C289 0.950 . S
H284 C290 0.949 . S
C285 H280 0.950 . S
C285 C287 1.327 . S
C285 C291 1.429 . S
C286 C278 1.574 . S
C286 H281 0.949 . S
C286 C292 1.368 . S
C287 C271 1.349 1_455 S
C287 H279 0.950 . S
C287 C285 1.327 . S
C288 C276 1.349 . S
C288 H282 0.950 . S
C288 C289 1.327 . S
C289 H283 0.950 . S
C289 C288 1.327 . S
C289 C293 1.429 . S
C290 C273 1.574 . S
C290 H284 0.949 . S
C290 C294 1.368 . S
C291 C272 1.429 1_455 S
C291 C285 1.429 . S
C291 C292 1.523 1_565 S
C292 C273 1.368 . S
C292 C286 1.368 . S
C292 C291 1.523 1_545 S
C293 C277 1.429 . S
C293 C289 1.429 . S
C293 C294 1.523 . S
C294 C278 1.368 . S
C294 C290 1.368 . S
C294 C293 1.523 . S
H295 C270 0.950 . S
H296 C272 0.950 . S
H297 C273 0.949 . S
H298 C275 0.950 . S
H299 C277 0.950 . S
C300 C301 1.349 1_545 S
C300 C302 1.327 . S
C300 H325 0.950 . S
C301 C300 1.349 1_565 S
C301 C317 1.349 . S
C302 C300 1.327 . S
C302 C321 1.429 . S
C302 H326 0.950 . S
C303 C320 1.574 . S
C303 C322 1.368 . S
C303 H327 0.949 . S
H304 C308 0.949 . S
C305 C306 1.349 . S
C305 C307 1.327 . S
C305 H328 0.950 . S
C306 C305 1.349 . S
C306 C318 1.349 1_655 S
C307 C305 1.327 . S
C307 C323 1.428 1_655 S
C307 H329 0.950 . S
C308 H304 0.949 . S
C308 C316 1.574 . S
C308 C324 1.368 . S
H309 C317 0.950 . S
H310 C315 0.950 . S
H311 C316 0.949 . S
H312 C318 0.950 . S
H313 C319 0.950 . S
H314 C320 0.949 . S
C315 H310 0.950 . S
C315 C317 1.327 . S
C315 C321 1.429 1_565 S
C316 C308 1.574 . S
C316 H311 0.949 . S
C316 C322 1.368 . S
C317 C301 1.349 . S
C317 H309 0.950 . S
C317 C315 1.327 . S
C318 C306 1.349 1_455 S
C318 H312 0.950 . S
C318 C319 1.327 . S
C319 H313 0.950 . S
C319 C318 1.327 . S
C319 C323 1.429 . S
C320 C303 1.574 . S
C320 H314 0.949 . S
C320 C324 1.368 . S
C321 C302 1.429 . S
C321 C315 1.429 1_545 S
C321 C322 1.523 . S
C322 C303 1.368 . S
C322 C316 1.368 . S
C322 C321 1.523 . S
C323 C307 1.428 1_455 S
C323 C319 1.429 . S
C323 C324 1.523 . S
C324 C308 1.368 . S
C324 C320 1.368 . S
C324 C323 1.523 . S
H325 C300 0.950 . S
H326 C302 0.950 . S
H327 C303 0.949 . S
H328 C305 0.950 . S
H329 C307 0.950 . S
C330 C331 1.349 . S
C330 C332 1.327 . S
C330 H355 0.950 . S
C331 C330 1.349 . S
C331 C347 1.349 . S
C332 C330 1.327 . S
C332 C351 1.429 . S
C332 H356 0.950 . S
C333 C350 1.574 . S
C333 C352 1.368 . S
C333 H357 0.949 . S
H334 C338 0.949 . S
C335 C336 1.349 . S
C335 C337 1.327 . S
C335 H358 0.950 . S
C336 C335 1.349 . S
C336 C348 1.349 . S
C337 C335 1.327 . S
C337 C353 1.429 . S
C337 H359 0.950 . S
C338 H334 0.949 . S
C338 C346 1.574 . S
C338 C354 1.368 . S
H339 C347 0.950 . S
H340 C345 0.950 . S
H341 C346 0.949 . S
H342 C348 0.950 . S
H343 C349 0.950 . S
H344 C350 0.949 . S
C345 H340 0.950 . S
C345 C347 1.327 . S
C345 C351 1.429 . S
C346 C338 1.574 . S
C346 H341 0.949 . S
C346 C352 1.368 . S
C347 C331 1.349 . S
C347 H339 0.950 . S
C347 C345 1.327 . S
C348 C336 1.349 . S
C348 H342 0.950 . S
C348 C349 1.327 . S
C349 H343 0.950 . S
C349 C348 1.327 . S
C349 C353 1.429 . S
C350 C333 1.574 . S
C350 H344 0.949 . S
C350 C354 1.368 . S
C351 C332 1.429 . S
C351 C345 1.429 . S
C351 C352 1.523 . S
C352 C333 1.368 . S
C352 C346 1.368 . S
C352 C351 1.523 . S
C353 C337 1.429 . S
C353 C349 1.429 . S
C353 C354 1.523 . S
C354 C338 1.368 . S
C354 C350 1.368 . S
C354 C353 1.523 . S
H355 C330 0.950 . S
H356 C332 0.950 . S
H357 C333 0.949 . S
H358 C335 0.950 . S
H359 C337 0.950 . S
C360 C361 1.349 . S
C360 C362 1.327 . S
C360 H385 0.950 . S
C361 C360 1.349 . S
C361 C377 1.349 . S
C362 C360 1.327 . S
C362 C381 1.429 . S
C362 H386 0.950 . S
C363 C380 1.574 . S
C363 C382 1.368 . S
C363 H387 0.949 . S
H364 C368 0.949 . S
C365 C366 1.349 . S
C365 C367 1.327 . S
C365 H388 0.950 . S
C366 C365 1.349 . S
C366 C378 1.349 . S
C367 C365 1.327 . S
C367 C383 1.429 . S
C367 H389 0.950 . S
C368 H364 0.949 . S
C368 C376 1.574 1_655 S
C368 C384 1.368 . S
H369 C377 0.950 . S
H370 C375 0.950 . S
H371 C376 0.949 . S
H372 C378 0.950 . S
H373 C379 0.950 . S
H374 C380 0.949 . S
C375 H370 0.950 . S
C375 C377 1.327 . S
C375 C381 1.429 . S
C376 C368 1.574 1_455 S
C376 H371 0.949 . S
C376 C382 1.368 . S
C377 C361 1.349 . S
C377 H369 0.950 . S
C377 C375 1.327 . S
C378 C366 1.349 . S
C378 H372 0.950 . S
C378 C379 1.327 . S
C379 H373 0.950 . S
C379 C378 1.327 . S
C379 C383 1.429 . S
C380 C363 1.574 . S
C380 H374 0.949 . S
C380 C384 1.368 1_455 S
C381 C362 1.429 . S
C381 C375 1.429 . S
C381 C382 1.523 . S
C382 C363 1.368 . S
C382 C376 1.368 . S
C382 C381 1.523 . S
C383 C367 1.429 . S
C383 C379 1.429 . S
C383 C384 1.523 . S
C384 C368 1.368 . S
C384 C380 1.368 1_655 S
C384 C383 1.523 . S
H385 C360 0.950 . S
H386 C362 0.950 . S
H387 C363 0.949 . S
H388 C365 0.950 . S
H389 C367 0.950 . S
C390 C391 1.349 . S
C390 C392 1.327 . S
C390 H415 0.950 . S
C391 C390 1.349 . S
C391 C407 1.349 . S
C392 C390 1.327 . S
C392 C411 1.429 . S
C392 H416 0.950 . S
C393 C410 1.574 . S
C393 C412 1.368 . S
C393 H417 0.949 . S
H394 C398 0.949 . S
C395 C396 1.349 . S
C395 C397 1.327 . S
C395 H418 0.950 . S
C396 C395 1.349 . S
C396 C408 1.349 . S
C397 C395 1.327 . S
C397 C413 1.429 . S
C397 H419 0.950 . S
C398 H394 0.949 . S
C398 C406 1.574 1_565 S
C398 C414 1.368 . S
H399 C407 0.950 . S
H400 C405 0.950 . S
H401 C406 0.949 . S
H402 C408 0.950 . S
H403 C409 0.950 . S
H404 C410 0.949 1_565 S
C405 H400 0.950 . S
C405 C407 1.327 . S
C405 C411 1.429 . S
C406 C398 1.574 1_545 S
C406 H401 0.949 . S
C406 C412 1.368 . S
C407 C391 1.349 . S
C407 H399 0.950 . S
C407 C405 1.327 . S
C408 C396 1.349 . S
C408 H402 0.950 . S
C408 C409 1.327 . S
C409 H403 0.950 . S
C409 C408 1.327 . S
C409 C413 1.429 . S
C410 C393 1.574 . S
C410 H404 0.949 1_545 S
C410 C414 1.368 1_545 S
C411 C392 1.429 . S
C411 C405 1.429 . S
C411 C412 1.523 . S
C412 C393 1.368 . S
C412 C406 1.368 . S
C412 C411 1.523 . S
C413 C397 1.429 . S
C413 C409 1.429 . S
C413 C414 1.523 . S
C414 C398 1.368 . S
C414 C410 1.368 1_565 S
C414 C413 1.523 . S
H415 C390 0.950 . S
H416 C392 0.950 . S
H417 C393 0.949 . S
H418 C395 0.950 . S
H419 C397 0.950 . S
C420 C421 1.349 . S
C420 C422 1.327 . S
C420 H445 0.950 . S
C421 C420 1.349 . S
C421 C437 1.349 . S
C422 C420 1.327 . S
C422 C441 1.429 . S
C422 H446 0.950 . S
C423 C440 1.574 . S
C423 C442 1.368 . S
C423 H447 0.949 . S
H424 C428 0.949 . S
C425 C426 1.349 1_655 S
C425 C427 1.327 . S
C425 H448 0.950 . S
C426 C425 1.349 1_455 S
C426 C438 1.349 . S
C427 C425 1.327 . S
C427 C443 1.429 . S
C427 H449 0.950 . S
C428 H424 0.949 . S
C428 C436 1.574 . S
C428 C444 1.368 . S
H429 C437 0.950 . S
H430 C435 0.950 . S
H431 C436 0.949 . S
H432 C438 0.950 . S
H433 C439 0.950 . S
H434 C440 0.949 . S
C435 H430 0.950 . S
C435 C437 1.327 . S
C435 C441 1.429 . S
C436 C428 1.574 . S
C436 H431 0.949 . S
C436 C442 1.368 . S
C437 C421 1.349 . S
C437 H429 0.950 . S
C437 C435 1.327 . S
C438 C426 1.349 . S
C438 H432 0.950 . S
C438 C439 1.327 . S
C439 H433 0.950 . S
C439 C438 1.327 . S
C439 C443 1.429 1_455 S
C440 C423 1.574 . S
C440 H434 0.949 . S
C440 C444 1.368 . S
C441 C422 1.429 . S
C441 C435 1.429 . S
C441 C442 1.523 . S
C442 C423 1.368 . S
C442 C436 1.368 . S
C442 C441 1.523 . S
C443 C427 1.429 . S
C443 C439 1.429 1_655 S
C443 C444 1.523 . S
C444 C428 1.368 . S
C444 C440 1.368 . S
C444 C443 1.523 . S
H445 C420 0.950 . S
H446 C422 0.950 . S
H447 C423 0.949 . S
H448 C425 0.950 . S
H449 C427 0.950 . S
C450 C451 1.349 1_655 S
C450 C452 1.327 1_655 S
C450 H475 0.950 . S
C451 C450 1.349 1_455 S
C451 C467 1.349 . S
C452 C450 1.327 1_455 S
C452 C471 1.429 . S
C452 H476 0.950 . S
C453 C470 1.574 . S
C453 C472 1.368 . S
C453 H477 0.949 . S
H454 C458 0.949 . S
C455 C456 1.349 1_565 S
C455 C457 1.327 . S
C455 H478 0.950 1_565 S
C456 C455 1.349 1_545 S
C456 C468 1.349 . S
C457 C455 1.327 . S
C457 C473 1.429 . S
C457 H479 0.950 . S
C458 H454 0.949 . S
C458 C466 1.574 . S
C458 C474 1.368 . S
H459 C467 0.950 . S
H460 C465 0.950 . S
H461 C466 0.949 . S
H462 C468 0.950 . S
H463 C469 0.950 . S
H464 C470 0.949 . S
C465 H460 0.950 . S
C465 C467 1.327 . S
C465 C471 1.429 . S
C466 C458 1.574 . S
C466 H461 0.949 . S
C466 C472 1.368 . S
C467 C451 1.349 . S
C467 H459 0.950 . S
C467 C465 1.327 . S
C468 C456 1.349 . S
C468 H462 0.950 . S
C468 C469 1.327 1_545 S
C469 H463 0.950 . S
C469 C468 1.327 1_565 S
C469 C473 1.429 . S
C470 C453 1.574 . S
C470 H464 0.949 . S
C470 C474 1.368 . S
C471 C452 1.429 . S
C471 C465 1.429 . S
C471 C472 1.523 . S
C472 C453 1.368 . S
C472 C466 1.368 . S
C472 C471 1.523 . S
C473 C457 1.429 . S
C473 C469 1.429 . S
C473 C474 1.523 . S
C474 C458 1.368 . S
C474 C470 1.368 . S
C474 C473 1.523 . S
H475 C450 0.950 . S
H476 C452 0.950 . S
H477 C453 0.949 . S
H478 C455 0.950 1_545 S
H479 C457 0.950 . S
C480 C481 1.363 . S
C480 C482 1.327 . S
C480 H505 0.950 . S
C481 C480 1.363 . S
C481 C497 1.355 1_545 S
C482 C480 1.327 . S
C482 C501 1.429 . S
C482 H506 0.950 . S
C483 C500 1.574 . S
C483 C502 1.368 . S
C483 H507 0.949 . S
H484 C488 0.949 . S
C485 C486 1.349 . S
C485 C487 1.327 . S
C485 H508 0.950 . S
C486 C485 1.349 . S
C486 C498 1.349 . S
C487 C485 1.327 . S
C487 C503 1.429 . S
C487 H509 0.950 . S
C488 H484 0.949 . S
C488 C496 1.574 . S
C488 C504 1.368 . S
H489 C497 0.950 . S
H490 C495 0.950 . S
H491 C496 0.949 . S
H492 C498 0.950 . S
H493 C499 0.950 . S
H494 C500 0.949 . S
C495 H490 0.950 . S
C495 C497 1.327 1_545 S
C495 C501 1.429 . S
C496 C488 1.574 . S
C496 H491 0.949 . S
C496 C502 1.368 . S
C497 C481 1.355 1_565 S
C497 H489 0.950 . S
C497 C495 1.327 1_565 S
C498 C486 1.349 . S
C498 H492 0.950 . S
C498 C499 1.327 . S
C499 H493 0.950 . S
C499 C498 1.327 . S
C499 C503 1.429 . S
C500 C483 1.574 . S
C500 H494 0.949 . S
C500 C504 1.368 . S
C501 C482 1.429 . S
C501 C495 1.429 . S
C501 C502 1.523 . S
C502 C483 1.368 . S
C502 C496 1.368 . S
C502 C501 1.523 . S
C503 C487 1.429 . S
C503 C499 1.429 . S
C503 C504 1.523 . S
C504 C488 1.368 . S
C504 C500 1.368 . S
C504 C503 1.523 . S
H505 C480 0.950 . S
H506 C482 0.950 . S
H507 C483 0.949 . S
H508 C485 0.950 . S
H509 C487 0.950 . S
C510 C511 1.349 1_556 S
C510 C512 1.327 . S
C510 H535 0.950 . S
C511 C510 1.349 1_554 S
C511 C527 1.349 . S
C512 C510 1.327 . S
C512 C531 1.429 1_556 S
C512 H536 0.950 . S
C513 C530 1.574 . S
C513 C532 1.368 . S
C513 H537 0.949 . S
H514 C518 0.949 . S
C515 C516 1.349 . S
C515 C517 1.327 1_565 S
C515 H538 0.950 . S
C516 C515 1.349 . S
C516 C528 1.349 1_564 S
C517 C515 1.327 1_545 S
C517 C533 1.429 . S
C517 H539 0.950 1_545 S
C518 H514 0.949 . S
C518 C526 1.574 . S
C518 C534 1.368 1_556 S
H519 C527 0.950 . S
H520 C525 0.950 . S
H521 C526 0.949 . S
H522 C528 0.950 . S
H523 C529 0.950 . S
H524 C530 0.949 . S
C525 H520 0.950 . S
C525 C527 1.327 . S
C525 C531 1.429 . S
C526 C518 1.574 . S
C526 H521 0.949 . S
C526 C532 1.368 1_556 S
C527 C511 1.349 . S
C527 H519 0.950 . S
C527 C525 1.327 . S
C528 C516 1.349 1_546 S
C528 H522 0.950 . S
C528 C529 1.327 . S
C529 H523 0.950 . S
C529 C528 1.327 . S
C529 C533 1.429 1_556 S
C530 C513 1.574 . S
C530 H524 0.949 . S
C530 C534 1.368 . S
C531 C512 1.429 1_554 S
C531 C525 1.429 . S
C531 C532 1.523 . S
C532 C513 1.368 . S
C532 C526 1.368 1_554 S
C532 C531 1.523 . S
C533 C517 1.429 . S
C533 C529 1.429 1_554 S
C533 C534 1.523 . S
C534 C518 1.368 1_554 S
C534 C530 1.368 . S
C534 C533 1.523 . S
H535 C510 0.950 . S
H536 C512 0.950 . S
H537 C513 0.949 . S
H538 C515 0.950 . S
H539 C517 0.950 1_565 S
C540 C541 1.349 . S
C540 C542 1.327 . S
C540 H565 0.950 . S
C541 C540 1.349 . S
C541 C557 1.349 . S
C542 C540 1.327 . S
C542 C561 1.429 . S
C542 H566 0.950 . S
C543 C560 1.574 . S
C543 C562 1.368 . S
C543 H567 0.949 . S
H544 C548 0.949 . S
C545 C546 1.349 . S
C545 C547 1.327 . S
C545 H568 0.950 . S
C546 C545 1.349 . S
C546 C558 1.349 . S
C547 C545 1.327 . S
C547 C563 1.429 . S
C547 H569 0.950 . S
C548 H544 0.949 . S
C548 C556 1.574 . S
C548 C564 1.368 . S
H549 C557 0.950 . S
H550 C555 0.950 . S
H551 C556 0.949 . S
H552 C558 0.950 . S
H553 C559 0.950 . S
H554 C560 0.949 . S
C555 H550 0.950 . S
C555 C557 1.327 . S
C555 C561 1.429 . S
C556 C548 1.574 . S
C556 H551 0.949 . S
C556 C562 1.368 . S
C557 C541 1.349 . S
C557 H549 0.950 . S
C557 C555 1.327 . S
C558 C546 1.349 . S
C558 H552 0.950 . S
C558 C559 1.327 . S
C559 H553 0.950 . S
C559 C558 1.327 . S
C559 C563 1.429 . S
C560 C543 1.574 . S
C560 H554 0.949 . S
C560 C564 1.368 . S
C561 C542 1.429 . S
C561 C555 1.429 . S
C561 C562 1.523 . S
C562 C543 1.368 . S
C562 C556 1.368 . S
C562 C561 1.523 . S
C563 C547 1.429 . S
C563 C559 1.429 . S
C563 C564 1.523 . S
C564 C548 1.368 . S
C564 C560 1.368 . S
C564 C563 1.523 . S
H565 C540 0.950 . S
H566 C542 0.950 . S
H567 C543 0.949 . S
H568 C545 0.950 . S
H569 C547 0.950 . S
C570 C571 1.349 1_455 S
C570 C572 1.327 . S
C570 H595 0.950 . S
C571 C570 1.349 1_655 S
C571 C587 1.349 . S
C572 C570 1.327 . S
C572 C591 1.429 . S
C572 H596 0.950 . S
C573 C590 1.574 . S
C573 C592 1.368 . S
C573 H597 0.949 . S
H574 C578 0.949 . S
C575 C576 1.349 . S
C575 C577 1.327 . S
C575 H598 0.950 . S
C576 C575 1.349 . S
C576 C588 1.349 . S
C577 C575 1.327 . S
C577 C593 1.429 . S
C577 H599 0.950 . S
C578 H574 0.949 . S
C578 C586 1.574 . S
C578 C594 1.368 . S
H579 C587 0.950 . S
H580 C585 0.950 1_655 S
H581 C586 0.949 . S
H582 C588 0.950 . S
H583 C589 0.950 . S
H584 C590 0.949 . S
C585 H580 0.950 1_455 S
C585 C587 1.327 1_455 S
C585 C591 1.429 . S
C586 C578 1.574 . S
C586 H581 0.949 . S
C586 C592 1.368 . S
C587 C571 1.349 . S
C587 H579 0.950 . S
C587 C585 1.327 1_655 S
C588 C576 1.349 . S
C588 H582 0.950 . S
C588 C589 1.327 . S
C589 H583 0.950 . S
C589 C588 1.327 . S
C589 C593 1.429 . S
C590 C573 1.574 . S
C590 H584 0.949 . S
C590 C594 1.368 . S
C591 C572 1.429 . S
C591 C585 1.429 . S
C591 C592 1.523 . S
C592 C573 1.368 . S
C592 C586 1.368 . S
C592 C591 1.523 . S
C593 C577 1.429 . S
C593 C589 1.429 . S
C593 C594 1.523 . S
C594 C578 1.368 . S
C594 C590 1.368 . S
C594 C593 1.523 . S
H595 C570 0.950 . S
H596 C572 0.950 . S
H597 C573 0.949 . S
H598 C575 0.950 . S
H599 C577 0.950 . S
C600 C601 1.349 . S
C600 C602 1.327 . S
C600 H625 0.950 . S
C601 C600 1.349 . S
C601 C617 1.349 . S
C602 C600 1.327 . S
C602 C621 1.429 . S
C602 H626 0.950 . S
C603 C620 1.574 . S
C603 C622 1.368 . S
C603 H627 0.949 . S
H604 C608 0.949 . S
C605 C606 1.349 . S
C605 C607 1.327 . S
C605 H628 0.950 . S
C606 C605 1.349 . S
C606 C618 1.349 . S
C607 C605 1.327 . S
C607 C623 1.429 . S
C607 H629 0.950 . S
C608 H604 0.949 . S
C608 C616 1.574 . S
C608 C624 1.368 . S
H609 C617 0.950 . S
H610 C615 0.950 . S
H611 C616 0.949 . S
H612 C618 0.950 . S
H613 C619 0.950 . S
H614 C620 0.949 . S
C615 H610 0.950 . S
C615 C617 1.327 . S
C615 C621 1.429 . S
C616 C608 1.574 . S
C616 H611 0.949 . S
C616 C622 1.368 . S
C617 C601 1.349 . S
C617 H609 0.950 . S
C617 C615 1.327 . S
C618 C606 1.349 . S
C618 H612 0.950 . S
C618 C619 1.327 . S
C619 H613 0.950 . S
C619 C618 1.327 . S
C619 C623 1.429 . S
C620 C603 1.574 . S
C620 H614 0.949 . S
C620 C624 1.368 . S
C621 C602 1.429 . S
C621 C615 1.429 . S
C621 C622 1.523 . S
C622 C603 1.368 . S
C622 C616 1.368 . S
C622 C621 1.523 . S
C623 C607 1.429 . S
C623 C619 1.429 . S
C623 C624 1.523 . S
C624 C608 1.368 . S
C624 C620 1.368 . S
C624 C623 1.523 . S
H625 C600 0.950 . S
H626 C602 0.950 . S
H627 C603 0.949 . S
H628 C605 0.950 . S
H629 C607 0.950 . S
C630 C631 1.349 . S
C630 C632 1.327 . S
C630 H655 0.950 . S
C631 C630 1.349 . S
C631 C647 1.349 . S
C632 C630 1.327 . S
C632 C651 1.429 . S
C632 H656 0.950 . S
C633 C650 1.574 . S
C633 C652 1.368 . S
C633 H657 0.949 . S
H634 C638 0.949 . S
C635 C636 1.349 . S
C635 C637 1.327 . S
C635 H658 0.950 . S
C636 C635 1.349 . S
C636 C648 1.349 . S
C637 C635 1.327 . S
C637 C653 1.429 . S
C637 H659 0.950 . S
C638 H634 0.949 . S
C638 C646 1.574 . S
C638 C654 1.368 . S
H639 C647 0.950 . S
H640 C645 0.950 . S
H641 C646 0.949 . S
H642 C648 0.950 . S
H643 C649 0.950 . S
H644 C650 0.949 . S
C645 H640 0.950 . S
C645 C647 1.327 . S
C645 C651 1.429 . S
C646 C638 1.574 . S
C646 H641 0.949 . S
C646 C652 1.368 . S
C647 C631 1.349 . S
C647 H639 0.950 . S
C647 C645 1.327 . S
C648 C636 1.349 . S
C648 H642 0.950 . S
C648 C649 1.327 . S
C649 H643 0.950 . S
C649 C648 1.327 . S
C649 C653 1.429 . S
C650 C633 1.574 . S
C650 H644 0.949 . S
C650 C654 1.368 . S
C651 C632 1.429 . S
C651 C645 1.429 . S
C651 C652 1.523 . S
C652 C633 1.368 . S
C652 C646 1.368 . S
C652 C651 1.523 . S
C653 C637 1.429 . S
C653 C649 1.429 . S
C653 C654 1.523 . S
C654 C638 1.368 . S
C654 C650 1.368 . S
C654 C653 1.523 . S
H655 C630 0.950 . S
H656 C632 0.950 . S
H657 C633 0.949 . S
H658 C635 0.950 . S
H659 C637 0.950 . S
C660 C661 1.349 . S
C660 C662 1.327 . S
C660 H685 0.950 . S
C661 C660 1.349 . S
C661 C677 1.349 . S
C662 C660 1.327 . S
C662 C681 1.429 . S
C662 H686 0.950 . S
C663 C680 1.574 . S
C663 C682 1.368 . S
C663 H687 0.949 . S
H664 C668 0.949 . S
C665 C666 1.349 . S
C665 C667 1.327 . S
C665 H688 0.950 . S
C666 C665 1.349 . S
C666 C678 1.349 . S
C667 C665 1.327 . S
C667 C683 1.429 . S
C667 H689 0.950 . S
C668 H664 0.949 . S
C668 C676 1.574 . S
C668 C684 1.368 . S
H669 C677 0.950 . S
H670 C675 0.950 . S
H671 C676 0.949 . S
H672 C678 0.950 . S
H673 C679 0.950 . S
H674 C680 0.949 . S
C675 H670 0.950 . S
C675 C677 1.327 . S
C675 C681 1.429 . S
C676 C668 1.574 . S
C676 H671 0.949 . S
C676 C682 1.368 . S
C677 C661 1.349 . S
C677 H669 0.950 . S
C677 C675 1.327 . S
C678 C666 1.349 . S
C678 H672 0.950 . S
C678 C679 1.327 . S
C679 H673 0.950 . S
C679 C678 1.327 . S
C679 C683 1.429 . S
C680 C663 1.574 . S
C680 H674 0.949 . S
C680 C684 1.368 . S
C681 C662 1.429 . S
C681 C675 1.429 . S
C681 C682 1.523 . S
C682 C663 1.368 . S
C682 C676 1.368 . S
C682 C681 1.523 . S
C683 C667 1.429 . S
C683 C679 1.429 . S
C683 C684 1.523 . S
C684 C668 1.368 . S
C684 C680 1.368 . S
C684 C683 1.523 . S
H685 C660 0.950 . S
H686 C662 0.950 . S
H687 C663 0.949 . S
H688 C665 0.950 . S
H689 C667 0.950 . S
C690 C691 1.349 . S
C690 C692 1.327 . S
C690 H715 0.950 . S
C691 C690 1.349 . S
C691 C707 1.349 . S
C692 C690 1.327 . S
C692 C711 1.429 . S
C692 H716 0.950 . S
C693 C710 1.574 . S
C693 C712 1.368 . S
C693 H717 0.949 . S
H694 C698 0.949 . S
C695 C696 1.349 . S
C695 C697 1.327 . S
C695 H718 0.950 . S
C696 C695 1.349 . S
C696 C708 1.349 . S
C697 C695 1.327 . S
C697 C713 1.429 . S
C697 H719 0.950 . S
C698 H694 0.949 . S
C698 C706 1.574 . S
C698 C714 1.368 . S
H699 C707 0.950 . S
H700 C705 0.950 . S
H701 C706 0.949 . S
H702 C708 0.950 . S
H703 C709 0.950 . S
H704 C710 0.949 . S
C705 H700 0.950 . S
C705 C707 1.327 . S
C705 C711 1.429 . S
C706 C698 1.574 . S
C706 H701 0.949 . S
C706 C712 1.368 . S
C707 C691 1.349 . S
C707 H699 0.950 . S
C707 C705 1.327 . S
C708 C696 1.349 . S
C708 H702 0.950 . S
C708 C709 1.327 . S
C709 H703 0.950 . S
C709 C708 1.327 . S
C709 C713 1.429 . S
C710 C693 1.574 . S
C710 H704 0.949 . S
C710 C714 1.368 . S
C711 C692 1.429 . S
C711 C705 1.429 . S
C711 C712 1.523 . S
C712 C693 1.368 . S
C712 C706 1.368 . S
C712 C711 1.523 . S
C713 C697 1.429 . S
C713 C709 1.429 . S
C713 C714 1.523 . S
C714 C698 1.368 . S
C714 C710 1.368 . S
C714 C713 1.523 . S
H715 C690 0.950 . S
H716 C692 0.950 . S
H717 C693 0.949 . S
H718 C695 0.950 . S
H719 C697 0.950 . S
C720 C721 1.349 . S
C720 C722 1.327 . S
C720 H745 0.950 . S
C721 C720 1.349 . S
C721 C737 1.349 . S
C722 C720 1.327 . S
C722 C741 1.429 . S
C722 H746 0.950 . S
C723 C740 1.574 . S
C723 C742 1.368 . S
C723 H747 0.949 . S
H724 C728 0.949 . S
C725 C726 1.349 . S
C725 C727 1.327 . S
C725 H748 0.950 . S
C726 C725 1.349 . S
C726 C738 1.349 . S
C727 C725 1.327 . S
C727 C743 1.429 . S
C727 H749 0.950 . S
C728 H724 0.949 . S
C728 C736 1.574 . S
C728 C744 1.368 . S
H729 C737 0.950 . S
H730 C735 0.950 . S
H731 C736 0.949 . S
H732 C738 0.950 . S
H733 C739 0.950 . S
H734 C740 0.949 . S
C735 H730 0.950 . S
C735 C737 1.327 . S
C735 C741 1.429 . S
C736 C728 1.574 . S
C736 H731 0.949 . S
C736 C742 1.368 . S
C737 C721 1.349 . S
C737 H729 0.950 . S
C737 C735 1.327 . S
C738 C726 1.349 . S
C738 H732 0.950 . S
C738 C739 1.327 . S
C739 H733 0.950 . S
C739 C738 1.327 . S
C739 C743 1.429 . S
C740 C723 1.574 . S
C740 H734 0.949 . S
C740 C744 1.368 . S
C741 C722 1.429 . S
C741 C735 1.429 . S
C741 C742 1.523 1_655 S
C742 C723 1.368 . S
C742 C736 1.368 . S
C742 C741 1.523 1_455 S
C743 C727 1.429 . S
C743 C739 1.429 . S
C743 C744 1.523 . S
C744 C728 1.368 . S
C744 C740 1.368 . S
C744 C743 1.523 . S
H745 C720 0.950 . S
H746 C722 0.950 . S
H747 C723 0.949 . S
H748 C725 0.950 . S
H749 C727 0.950 . S
C750 C751 1.349 1_545 S
C750 C752 1.327 . S
C750 H775 0.950 . S
C751 C750 1.349 1_565 S
C751 C767 1.349 . S
C752 C750 1.327 . S
C752 C771 1.429 1_545 S
C752 H776 0.950 . S
C753 C770 1.574 . S
C753 C772 1.368 1_565 S
C753 H777 0.949 . S
H754 C758 0.949 . S
C755 C756 1.349 . S
C755 C757 1.327 . S
C755 H778 0.950 . S
C756 C755 1.349 . S
C756 C768 1.349 . S
C757 C755 1.327 . S
C757 C773 1.429 . S
C757 H779 0.950 1_545 S
C758 H754 0.949 . S
C758 C766 1.574 . S
C758 C774 1.368 . S
H759 C767 0.950 . S
H760 C765 0.950 . S
H761 C766 0.949 . S
H762 C768 0.950 . S
H763 C769 0.950 . S
H764 C770 0.949 . S
C765 H760 0.950 . S
C765 C767 1.327 . S
C765 C771 1.429 . S
C766 C758 1.574 . S
C766 H761 0.949 . S
C766 C772 1.368 . S
C767 C751 1.349 . S
C767 H759 0.950 . S
C767 C765 1.327 . S
C768 C756 1.349 . S
C768 H762 0.950 . S
C768 C769 1.327 . S
C769 H763 0.950 . S
C769 C768 1.327 . S
C769 C773 1.429 . S
C770 C753 1.574 . S
C770 H764 0.949 . S
C770 C774 1.368 1_565 S
C771 C752 1.429 1_565 S
C771 C765 1.429 . S
C771 C772 1.523 1_565 S
C772 C753 1.368 1_545 S
C772 C766 1.368 . S
C772 C771 1.523 1_545 S
C773 C757 1.429 . S
C773 C769 1.429 . S
C773 C774 1.523 . S
C774 C758 1.368 . S
C774 C770 1.368 1_545 S
C774 C773 1.523 . S
H775 C750 0.950 . S
H776 C752 0.950 . S
H777 C753 0.949 . S
H778 C755 0.950 . S
H779 C757 0.950 1_565 S
C241 C129 1.114 1_565 S
C246 C9 1.114 . S
C271 C169 1.114 . S
C276 C49 1.114 . S
C301 C209 1.114 . S
C306 C89 1.114 1_655 S
C331 C15 0.583 . S
C336 C86 0.542 . S
C361 C55 0.583 . S
C366 C126 0.541 . S
C391 C95 0.583 . S
C396 C166 0.542 . S
C421 C135 0.583 . S
C426 C206 0.541 . S
C451 C175 0.583 . S
C456 C6 0.542 . S
C481 C215 0.591 . S
C486 C46 0.542 . S
C511 C18 1.005 . S
C516 C138 1.005 . S
C541 C58 1.007 . S
C546 C178 1.007 . S
C571 C98 1.006 . S
C576 C218 1.006 . S
C601 C10 3.913 . S
C606 C59 3.975 . S
C631 C50 3.913 . S
C636 C99 3.975 . S
C661 C90 3.913 . S
C666 C139 3.975 . S
C691 C130 3.914 . S
C696 C179 3.975 . S
C721 C170 3.914 . S
C726 C219 3.975 . S
C751 C210 3.913 . S
C756 C19 3.975 . S
