# Generated by pormake.
# Topology wkh, (6)-cn, num edge types: 1
# Building blocks:
#     Node 0, Type 0, BuildingBlock: IZENUY_clean_sbu_0, # of connection points: 6
#     Node 1, Type 0, BuildingBlock: IZENUY_clean_sbu_0, # of connection points: 6
#     Node 2, Type 0, BuildingBlock: IZENUY_clean_sbu_0, # of connection points: 6
#     Node 3, Type 0, BuildingBlock: IZENUY_clean_sbu_0, # of connection points: 6
#     Node 4, Type 0, BuildingBlock: IZENUY_clean_sbu_0, # of connection points: 6
#     Node 5, Type 0, BuildingBlock: IZENUY_clean_sbu_0, # of connection points: 6
#     Node 6, Type 0, BuildingBlock: IZENUY_clean_sbu_0, # of connection points: 6
#     Node 7, Type 0, BuildingBlock: IZENUY_clean_sbu_0, # of connection points: 6
#     Node 8, Type 0, BuildingBlock: IZENUY_clean_sbu_0, # of connection points: 6
#     Node 9, Type 0, BuildingBlock: IZENUY_clean_sbu_0, # of connection points: 6
#     Node 10, Type 0, BuildingBlock: IZENUY_clean_sbu_0, # of connection points: 6
#     Node 11, Type 0, BuildingBlock: IZENUY_clean_sbu_0, # of connection points: 6
#     Edge 12, Type (0, 0), None
#     Edge 13, Type (0, 0), None
#     Edge 14, Type (0, 0), None
#     Edge 15, Type (0, 0), None
#     Edge 16, Type (0, 0), None
#     Edge 17, Type (0, 0), None
#     Edge 18, Type (0, 0), None
#     Edge 19, Type (0, 0), None
#     Edge 20, Type (0, 0), None
#     Edge 21, Type (0, 0), None
#     Edge 22, Type (0, 0), None
#     Edge 23, Type (0, 0), None
#     Edge 24, Type (0, 0), None
#     Edge 25, Type (0, 0), None
#     Edge 26, Type (0, 0), None
#     Edge 27, Type (0, 0), None
#     Edge 28, Type (0, 0), None
#     Edge 29, Type (0, 0), None
#     Edge 30, Type (0, 0), None
#     Edge 31, Type (0, 0), None
#     Edge 32, Type (0, 0), None
#     Edge 33, Type (0, 0), None
#     Edge 34, Type (0, 0), None
#     Edge 35, Type (0, 0), None
#     Edge 36, Type (0, 0), None
#     Edge 37, Type (0, 0), None
#     Edge 38, Type (0, 0), None
#     Edge 39, Type (0, 0), None
#     Edge 40, Type (0, 0), None
#     Edge 41, Type (0, 0), None
#     Edge 42, Type (0, 0), None
#     Edge 43, Type (0, 0), None
#     Edge 44, Type (0, 0), None
#     Edge 45, Type (0, 0), None
#     Edge 46, Type (0, 0), None
#     Edge 47, Type (0, 0), None
# Relax obj value: 0.282
# Max RMSD: 0.258
# Mean RMSD: 0.258
data_MOF--net-wkh--node1-IZENUY_clean_sbu_0--edge1-none
_symmetry_space_group_name_H-M    P1
_symmetry_Int_Tables_number       1
_symmetry_cell_setting            triclinic
loop_
_symmetry_equiv_pos_as_xyz
'x, y, z'
_cell_length_a     12.565868
_cell_length_b     12.565936
_cell_length_c     35.743895
_cell_angle_alpha  89.997936
_cell_angle_beta   90.001036
_cell_angle_gamma 120.00073
loop_
_atom_site_label
_atom_site_type_symbol
_atom_site_fract_x
_atom_site_fract_y
_atom_site_fract_z
_atom_type_partial_charge
Fe0 Fe 0.20034 0.29815 1.04562 0.0
Fe1 Fe 0.41473 0.24652 1.05536 0.0
O2 O 0.34497 0.33488 0.06758 0.0
Fe3 Fe 0.41777 0.45259 0.10107 0.0
O4 O 0.28127 0.3913 0.12924 0.0
O5 O 0.1291 0.32084 0.08837 0.0
O6 O 0.12926 0.14597 1.06153 0.0
C7 C 0.17519 0.08033 1.05773 0.0
C8 C 0.27751 0.52969 1.0547 0.0
O9 O 0.27369 0.11649 1.0409 0.0
C10 C 0.63228 0.46305 0.07292 0.0
O11 O 0.24857 0.26284 0.99919 0.0
O12 O 0.44162 0.31458 1.00949 0.0
O13 O 0.36706 0.55641 0.07775 0.0
O14 O 0.25435 0.45023 1.03017 0.0
C15 C 0.42389 0.2461 0.13139 0.0
O16 O 0.57257 0.35071 0.06733 0.0
O17 O 0.57396 0.523 0.07771 0.0
C18 C 0.35384 0.28454 0.98687 0.0
O19 O 0.3904 0.18158 0.10187 0.0
O20 O 0.46098 0.36079 0.13105 0.0
C21 C 0.16905 0.34701 0.12162 0.0
Fe22 Fe 0.98789 0.40543 0.26773 0.0
Fe23 Fe 0.92492 0.18801 0.21229 0.0
O24 O 1.03282 0.33264 0.23424 0.0
Fe25 Fe 0.19094 0.40242 0.22203 0.0
O26 O 0.23151 0.37804 0.26854 0.0
O27 O 0.12289 0.44863 0.29772 0.0
O28 O 0.91268 0.26892 0.29591 0.0
C29 C 0.84475 0.1567 0.28829 0.0
C30 C 0.19195 0.61995 0.2396 0.0
O31 O 0.83099 0.11675 0.25503 0.0
C32 C 0.09197 0.34158 0.15354 0.0
O33 O 0.83337 0.35472 0.24442 0.0
O34 O 0.82683 0.242 0.19684 0.0
O35 O 0.24459 0.56025 0.23402 0.0
O36 O 0.07367 0.56162 0.24437 0.0
C37 C 0.1176 0.16287 0.22438 0.0
O38 O 1.00845 0.23626 0.16586 0.0
O39 O 0.14982 0.42936 0.17616 0.0
C40 C 0.77053 0.26516 0.22136 0.0
O41 O 1.00603 0.11694 0.22819 0.0
O42 O 0.17993 0.26138 0.20755 0.0
C43 C 0.20048 0.41152 0.29806 0.0
Fe44 Fe 0.75961 0.91256 0.37895 0.0
Fe45 Fe 0.81123 0.17859 0.3887 0.0
O46 O 0.72287 1.02046 0.40091 0.0
Fe47 Fe 0.60515 0.97552 0.4344 0.0
O48 O 0.66644 0.90031 0.46257 0.0
O49 O 0.73693 0.81863 0.4217 0.0
O50 O 0.91179 0.99367 0.39485 0.0
C51 C 0.97742 0.10524 0.39106 0.0
C52 C 0.52806 0.75817 0.38803 0.0
O53 O 0.94125 0.16757 0.37422 0.0
C54 C 0.59469 0.17959 0.40626 0.0
O55 O 0.7949 0.9961 0.33252 0.0
O56 O 0.74317 0.13747 0.34283 0.0
O57 O 0.50134 0.82101 0.41108 0.0
O58 O 0.60753 0.81448 0.3635 0.0
C59 C 0.81164 0.18812 0.46472 0.0
O60 O 0.70704 0.23224 0.40068 0.0
O61 O 0.53474 0.06132 0.41104 0.0
C62 C 0.7731 0.07962 0.32021 0.0
O63 O 0.87616 0.21915 0.43521 0.0
O64 O 0.69694 0.11053 0.46438 0.0
C65 C 0.71074 0.83238 0.45496 0.0
Fe66 Fe 0.6523 0.59278 0.60106 0.0
Fe67 Fe 0.86973 0.74724 0.54562 0.0
O68 O 0.72509 0.7105 0.56758 0.0
Fe69 Fe 0.65532 0.79886 0.55536 0.0
O70 O 0.6797 0.8638 0.60187 0.0
O71 O 0.60909 0.68458 0.63105 0.0
O72 O 0.7888 0.65407 0.62924 0.0
C73 C 0.90103 0.69837 0.62162 0.0
C74 C 0.43778 0.58232 0.57293 0.0
O75 O 0.94098 0.72456 0.58836 0.0
C76 C 0.71616 0.76073 0.48688 0.0
O77 O 0.703 0.48897 0.57775 0.0
O78 O 0.81573 0.59516 0.53017 0.0
O79 O 0.49749 0.69468 0.56735 0.0
O80 O 0.49611 0.52238 0.57771 0.0
C81 C 0.89487 0.96505 0.55772 0.0
O82 O 0.82148 0.78252 0.49919 0.0
O83 O 0.62838 0.7308 0.50949 0.0
C84 C 0.79257 0.51569 0.5547 0.0
O85 O 0.9408 0.89942 0.56152 0.0
O86 O 0.79636 0.92888 0.54088 0.0
C87 C 0.64621 0.79927 0.63139 0.0
Fe88 Fe 0.08219 0.63991 0.76773 0.0
Fe89 Fe 0.14515 0.85735 0.71228 0.0
O90 O 0.03725 0.7127 0.73424 0.0
Fe91 Fe 0.87912 0.64293 0.72203 0.0
O92 O 0.83855 0.66728 0.76854 0.0
O93 O 0.94719 0.59671 0.79771 0.0
O94 O 0.1574 0.77642 0.7959 0.0
C95 C 0.22533 0.88865 0.78828 0.0
C96 C 0.87812 0.42539 0.73959 0.0
O97 O 0.23908 0.9286 0.75503 0.0
C98 C 0.9781 0.70379 0.65354 0.0
O99 O 0.2367 0.69062 0.74441 0.0
O100 O 0.24323 0.80335 0.69684 0.0
O101 O 0.82548 0.48509 0.73401 0.0
O102 O 0.9964 0.48372 0.74437 0.0
C103 C 0.95246 0.88245 0.7244 0.0
O104 O 0.06162 0.80911 0.66585 0.0
O105 O 0.92025 0.616 0.67616 0.0
C106 C 0.29954 0.78018 0.72136 0.0
O107 O 0.06404 0.92841 0.72819 0.0
O108 O 0.89014 0.78396 0.70756 0.0
C109 C 0.86959 0.6338 0.79806 0.0
Fe110 Fe 0.31046 0.13279 0.87894 0.0
Fe111 Fe 0.25884 0.86677 0.8887 0.0
O112 O 0.3472 0.0249 0.9009 0.0
Fe113 Fe 0.46494 0.06984 0.93438 0.0
O114 O 0.40367 0.14507 0.96256 0.0
O115 O 0.33311 0.22671 0.92168 0.0
O116 O 0.15828 0.05168 0.89484 0.0
C117 C 0.09264 0.94011 0.89103 0.0
C118 C 0.542 0.28719 0.88802 0.0
O119 O 0.12882 0.87777 0.87421 0.0
C120 C 0.47537 0.86576 0.90625 0.0
O121 O 0.27519 0.04926 0.83251 0.0
O122 O 0.3269 0.90787 0.84283 0.0
O123 O 0.56875 0.22434 0.91106 0.0
O124 O 0.46254 0.23089 0.86349 0.0
C125 C 0.25843 0.85727 0.96472 0.0
O126 O 0.36301 0.81311 0.90068 0.0
O127 O 0.53532 0.98403 0.91103 0.0
C128 C 0.29698 0.96573 0.8202 0.0
O129 O 0.1939 0.82622 0.9352 0.0
O130 O 0.37313 0.93484 0.96437 0.0
C131 C 0.35932 0.21295 0.95494 0.0
Fe132 Fe 0.81111 0.64292 0.9094 0.0
Fe133 Fe 0.60504 0.6399 0.8637 0.0
O134 O 0.72275 0.71268 0.89719 0.0
Fe135 Fe 0.7595 0.85731 0.91914 0.0
O136 O 0.91168 0.92839 0.90324 0.0
O137 O 0.94114 0.78395 0.92387 0.0
O138 O 0.87605 0.66726 0.8629 0.0
C139 C 0.81153 0.6338 0.83338 0.0
C140 C 0.77309 0.70379 0.9779 0.0
O141 O 0.69684 0.5967 0.83371 0.0
C142 C 0.52795 0.78015 0.91007 0.0
O143 O 0.70692 0.48508 0.89743 0.0
O144 O 0.53463 0.4837 0.88705 0.0
O145 O 0.7948 0.80907 0.96558 0.0
O146 O 0.74305 0.61602 0.95527 0.0
C147 C 0.71062 0.88863 0.84315 0.0
O148 O 0.50122 0.69059 0.88702 0.0
O149 O 0.60742 0.80331 0.93459 0.0
C150 C 0.59458 0.42537 0.89183 0.0
O151 O 0.66632 0.77641 0.83552 0.0
O152 O 0.73681 0.92857 0.8764 0.0
C153 C 0.97731 0.88245 0.90704 0.0
Fe154 Fe 0.19087 0.79879 0.07607 0.0
Fe155 Fe 0.98782 0.5927 1.03038 0.0
O156 O 1.03275 0.71043 1.06386 0.0
Fe157 Fe 0.92486 0.74716 0.08582 0.0
O158 O 1.00597 0.89934 0.06992 0.0
O159 O 0.17988 0.92882 0.09055 0.0
O160 O 0.23144 0.86373 1.02956 0.0
C161 C 0.20038 0.79921 1.00004 0.0
C162 C 0.092 0.76075 0.14457 0.0
O163 O 0.12281 0.68451 1.00039 0.0
C164 C 0.77047 0.51563 0.07674 0.0
O165 O 0.24454 0.69462 1.06409 0.0
O166 O 0.07363 0.52231 1.05373 0.0
O167 O 1.00841 0.78244 0.13225 0.0
O168 O 0.14973 0.73072 0.12194 0.0
C169 C 0.84469 0.69831 1.00982 0.0
O170 O 0.83331 0.48888 1.0537 0.0
O171 O 0.82677 0.59508 0.10127 0.0
C172 C 0.1919 0.58227 1.05851 0.0
O173 O 0.91258 0.65396 1.0022 0.0
O174 O 0.83093 0.7245 1.04308 0.0
C175 C 0.11753 0.965 0.07373 0.0
Fe176 Fe 0.4148 0.17853 0.24274 0.0
Fe177 Fe 0.41782 0.97547 0.19705 0.0
O178 O 0.34503 1.02041 0.23053 0.0
Fe179 Fe 0.2004 0.91253 0.25249 0.0
O180 O 0.12933 0.99363 0.23659 0.0
O181 O 0.27377 0.16754 0.25721 0.0
O182 O 0.39044 0.21911 0.19623 0.0
C183 C 0.42389 0.18805 0.16671 0.0
C184 C 0.35394 0.07966 0.31124 0.0
O185 O 0.46101 0.11046 0.16705 0.0
C186 C 0.27755 0.75814 0.24341 0.0
O187 O 0.57263 0.23219 0.23076 0.0
O188 O 0.57402 0.06128 0.2204 0.0
O189 O 0.24866 0.99607 0.29892 0.0
O190 O 0.44171 0.13738 0.2886 0.0
C191 C 0.16909 0.83234 0.17649 0.0
O192 O 0.36714 0.82098 0.22037 0.0
O193 O 0.25439 0.81444 0.26794 0.0
C194 C 0.63234 0.17956 0.22518 0.0
O195 O 0.28132 0.90023 0.16887 0.0
O196 O 0.12913 0.81859 0.20975 0.0
C197 C 0.17526 0.1052 0.24038 0.0
Fe198 Fe 0.46505 0.40547 0.36371 0.0
Fe199 Fe 0.31057 0.18805 0.41916 0.0
O200 O 0.34732 0.33268 0.3972 0.0
Fe201 Fe 0.25896 0.40244 0.4094 0.0
O202 O 0.19402 0.37808 0.3629 0.0
O203 O 0.37324 0.44865 0.33372 0.0
O204 O 0.40378 0.26897 0.33554 0.0
C205 C 0.35943 0.15674 0.34316 0.0
C206 C 0.47548 0.61999 0.39184 0.0
O207 O 0.33322 0.11678 0.37642 0.0
C208 C 0.29698 0.34159 0.47791 0.0
O209 O 0.56886 0.35479 0.38703 0.0
O210 O 0.46265 0.24203 0.4346 0.0
O211 O 0.36313 0.56027 0.39742 0.0
O212 O 0.53544 0.56167 0.38707 0.0
C213 C 0.09275 0.1629 0.40706 0.0
O214 O 0.27529 0.23631 0.46559 0.0
O215 O 0.32702 0.42935 0.45527 0.0
C216 C 0.54211 0.26519 0.41008 0.0
O217 O 0.15839 0.11697 0.40326 0.0
O218 O 0.12892 0.26141 0.42388 0.0
C219 C 0.25854 0.41153 0.33338 0.0
Fe220 Fe 0.08226 0.45268 0.53038 0.0
Fe221 Fe 0.1452 0.2982 0.58582 0.0
O222 O 0.03732 0.33494 0.56386 0.0
Fe223 Fe 0.8792 0.24658 0.57607 0.0
O224 O 0.83862 0.18165 0.52957 0.0
O225 O 0.94727 0.36087 0.50039 0.0
O226 O 0.1575 0.39142 0.50221 0.0
C227 C 0.22539 0.34708 0.50983 0.0
C228 C 0.87817 0.46311 0.55851 0.0
O229 O 0.23914 0.32087 0.54309 0.0
C230 C 0.97807 0.28459 0.64457 0.0
O231 O 0.23675 0.55649 0.5537 0.0
O232 O 0.24329 0.45028 0.60127 0.0
O233 O 0.82554 0.35076 0.56409 0.0
O234 O 0.99645 0.52306 0.55373 0.0
C235 C 0.95253 0.08038 0.57372 0.0
O236 O 0.06165 0.2629 0.63225 0.0
O237 O 0.92034 0.31463 0.62194 0.0
C238 C 0.29959 0.52974 0.57674 0.0
O239 O 0.0641 0.14602 0.56992 0.0
O240 O 0.89019 0.11655 0.59055 0.0
C241 C 0.86969 0.24618 0.50005 0.0
Fe242 Fe 0.65525 0.86679 0.74273 0.0
Fe243 Fe 0.65225 0.06987 0.69705 0.0
O244 O 0.72503 0.02492 0.73053 0.0
Fe245 Fe 0.86967 0.1328 0.75249 0.0
O246 O 0.94073 0.05168 0.7366 0.0
O247 O 0.79627 0.87777 0.75722 0.0
O248 O 0.67966 0.82625 0.69623 0.0
C249 C 0.64621 0.85732 0.66671 0.0
C250 C 0.71606 0.96572 0.81123 0.0
O251 O 0.60907 0.93489 0.66706 0.0
C252 C 0.79253 0.2872 0.74341 0.0
O253 O 0.49743 0.81313 0.73074 0.0
O254 O 0.49605 0.98406 0.7204 0.0
O255 O 0.82139 0.04926 0.79892 0.0
O256 O 0.62829 0.90788 0.7886 0.0
C257 C 0.90099 0.21299 0.6765 0.0
O258 O 0.70292 0.22436 0.72037 0.0
O259 O 0.81569 0.23091 0.76794 0.0
C260 C 0.43772 0.86578 0.72517 0.0
O261 O 0.78875 0.14512 0.66888 0.0
O262 O 0.94095 0.22673 0.70975 0.0
C263 C 0.89479 0.94011 0.7404 0.0
loop_
_geom_bond_atom_site_label_1
_geom_bond_atom_site_label_2
_geom_bond_distance
_geom_bond_site_symmetry_2
_ccdc_geom_bond_type
Fe0 O2 1.918 1_556 S
Fe0 O5 1.997 1_556 S
Fe0 O6 2.002 . S
Fe0 O11 1.976 . S
Fe0 O14 1.996 . S
Fe1 O2 1.918 1_556 S
Fe1 O9 1.997 . S
Fe1 O12 1.996 . S
Fe1 O16 1.976 . S
Fe1 O19 2.002 1_556 S
O2 Fe0 1.918 1_554 S
O2 Fe1 1.918 1_554 S
O2 Fe3 1.918 . S
Fe3 O2 1.918 . S
Fe3 O4 2.002 . S
Fe3 O13 1.976 . S
Fe3 O17 1.996 . S
Fe3 O20 1.997 . S
O4 Fe3 2.002 . S
O4 C21 1.295 . S
O5 Fe0 1.997 1_554 S
O5 C21 1.235 . S
O6 Fe0 2.002 . S
O6 C7 1.295 . S
C7 O6 1.295 . S
C7 O9 1.235 . S
C8 O13 1.287 1_556 S
C8 O14 1.255 . S
O9 Fe1 1.997 . S
O9 C7 1.235 . S
C10 O16 1.287 1_554 S
C10 O17 1.255 . S
O11 Fe0 1.976 . S
O11 C18 1.287 . S
O12 Fe1 1.996 . S
O12 C18 1.255 . S
O13 Fe3 1.976 . S
O13 C8 1.287 1_554 S
O14 Fe0 1.996 . S
O14 C8 1.255 . S
C15 O19 1.295 . S
C15 O20 1.235 . S
O16 Fe1 1.976 . S
O16 C10 1.287 1_556 S
O17 Fe3 1.996 . S
O17 C10 1.255 . S
C18 O11 1.287 . S
C18 O12 1.255 . S
O19 Fe1 2.002 1_554 S
O19 C15 1.295 . S
O20 Fe3 1.997 . S
O20 C15 1.235 . S
C21 O4 1.295 . S
C21 O5 1.235 . S
Fe22 O24 1.918 . S
Fe22 O27 1.997 1_655 S
Fe22 O28 2.002 . S
Fe22 O33 1.976 . S
Fe22 O36 1.996 . S
Fe23 O24 1.918 . S
Fe23 O31 1.997 . S
Fe23 O34 1.996 . S
Fe23 O38 1.976 . S
Fe23 O41 2.002 . S
O24 Fe22 1.918 . S
O24 Fe23 1.918 . S
O24 Fe25 1.918 1_655 S
Fe25 O24 1.918 1_455 S
Fe25 O26 2.002 . S
Fe25 O35 1.976 . S
Fe25 O39 1.996 . S
Fe25 O42 1.997 . S
O26 Fe25 2.002 . S
O26 C43 1.295 . S
O27 Fe22 1.997 1_455 S
O27 C43 1.235 . S
O28 Fe22 2.002 . S
O28 C29 1.295 . S
C29 O28 1.295 . S
C29 O31 1.235 . S
C30 O35 1.287 . S
C30 O36 1.255 1_455 S
O31 Fe23 1.997 . S
O31 C29 1.235 . S
C32 O38 1.287 1_455 S
C32 O39 1.255 . S
O33 Fe22 1.976 . S
O33 C40 1.287 . S
O34 Fe23 1.996 . S
O34 C40 1.255 . S
O35 Fe25 1.976 . S
O35 C30 1.287 . S
O36 Fe22 1.996 . S
O36 C30 1.255 1_655 S
C37 O41 1.295 1_455 S
C37 O42 1.235 . S
O38 Fe23 1.976 . S
O38 C32 1.287 1_655 S
O39 Fe25 1.996 . S
O39 C32 1.255 . S
C40 O33 1.287 . S
C40 O34 1.255 . S
O41 Fe23 2.002 . S
O41 C37 1.295 1_655 S
O42 Fe25 1.997 . S
O42 C37 1.235 . S
C43 O26 1.295 . S
C43 O27 1.235 . S
Fe44 O46 1.918 . S
Fe44 O49 1.997 . S
Fe44 O50 2.002 . S
Fe44 O55 1.976 . S
Fe44 O58 1.996 . S
Fe45 O46 1.918 1_545 S
Fe45 O53 1.997 . S
Fe45 O56 1.996 . S
Fe45 O60 1.976 . S
Fe45 O63 2.002 . S
O46 Fe44 1.918 . S
O46 Fe45 1.918 1_565 S
O46 Fe47 1.918 . S
Fe47 O46 1.918 . S
Fe47 O48 2.002 . S
Fe47 O57 1.976 . S
Fe47 O61 1.996 . S
Fe47 O64 1.997 1_565 S
O48 Fe47 2.002 . S
O48 C65 1.295 . S
O49 Fe44 1.997 . S
O49 C65 1.235 . S
O50 Fe44 2.002 . S
O50 C51 1.295 1_565 S
C51 O50 1.295 1_545 S
C51 O53 1.235 . S
C52 O57 1.287 . S
C52 O58 1.255 . S
O53 Fe45 1.997 . S
O53 C51 1.235 . S
C54 O60 1.287 . S
C54 O61 1.255 1_545 S
O55 Fe44 1.976 . S
O55 C62 1.287 1_565 S
O56 Fe45 1.996 . S
O56 C62 1.255 . S
O57 Fe47 1.976 . S
O57 C52 1.287 . S
O58 Fe44 1.996 . S
O58 C52 1.255 . S
C59 O63 1.295 . S
C59 O64 1.235 . S
O60 Fe45 1.976 . S
O60 C54 1.287 . S
O61 Fe47 1.996 . S
O61 C54 1.255 1_565 S
C62 O55 1.287 1_545 S
C62 O56 1.255 . S
O63 Fe45 2.002 . S
O63 C59 1.295 . S
O64 Fe47 1.997 1_545 S
O64 C59 1.235 . S
C65 O48 1.295 . S
C65 O49 1.235 . S
Fe66 O68 1.918 . S
Fe66 O71 1.997 . S
Fe66 O72 2.002 . S
Fe66 O77 1.976 . S
Fe66 O80 1.996 . S
Fe67 O68 1.918 . S
Fe67 O75 1.997 . S
Fe67 O78 1.996 . S
Fe67 O82 1.976 . S
Fe67 O85 2.002 . S
O68 Fe66 1.918 . S
O68 Fe67 1.918 . S
O68 Fe69 1.918 . S
Fe69 O68 1.918 . S
Fe69 O70 2.002 . S
Fe69 O79 1.976 . S
Fe69 O83 1.996 . S
Fe69 O86 1.997 . S
O70 Fe69 2.002 . S
O70 C87 1.295 . S
O71 Fe66 1.997 . S
O71 C87 1.235 . S
O72 Fe66 2.002 . S
O72 C73 1.295 . S
C73 O72 1.295 . S
C73 O75 1.235 . S
C74 O79 1.287 . S
C74 O80 1.255 . S
O75 Fe67 1.997 . S
O75 C73 1.235 . S
C76 O82 1.287 . S
C76 O83 1.255 . S
O77 Fe66 1.976 . S
O77 C84 1.287 . S
O78 Fe67 1.996 . S
O78 C84 1.255 . S
O79 Fe69 1.976 . S
O79 C74 1.287 . S
O80 Fe66 1.996 . S
O80 C74 1.255 . S
C81 O85 1.295 . S
C81 O86 1.235 . S
O82 Fe67 1.976 . S
O82 C76 1.287 . S
O83 Fe69 1.996 . S
O83 C76 1.255 . S
C84 O77 1.287 . S
C84 O78 1.255 . S
O85 Fe67 2.002 . S
O85 C81 1.295 . S
O86 Fe69 1.997 . S
O86 C81 1.235 . S
C87 O70 1.295 . S
C87 O71 1.235 . S
Fe88 O90 1.918 . S
Fe88 O93 1.997 1_455 S
Fe88 O94 2.002 . S
Fe88 O99 1.976 . S
Fe88 O102 1.996 . S
Fe89 O90 1.918 . S
Fe89 O97 1.997 . S
Fe89 O100 1.996 . S
Fe89 O104 1.976 . S
Fe89 O107 2.002 . S
O90 Fe88 1.918 . S
O90 Fe89 1.918 . S
O90 Fe91 1.918 1_455 S
Fe91 O90 1.918 1_655 S
Fe91 O92 2.002 . S
Fe91 O101 1.976 . S
Fe91 O105 1.996 . S
Fe91 O108 1.997 . S
O92 Fe91 2.002 . S
O92 C109 1.295 . S
O93 Fe88 1.997 1_655 S
O93 C109 1.235 . S
O94 Fe88 2.002 . S
O94 C95 1.295 . S
C95 O94 1.295 . S
C95 O97 1.235 . S
C96 O101 1.287 . S
C96 O102 1.255 1_655 S
O97 Fe89 1.997 . S
O97 C95 1.235 . S
C98 O104 1.287 1_655 S
C98 O105 1.255 . S
O99 Fe88 1.976 . S
O99 C106 1.287 . S
O100 Fe89 1.996 . S
O100 C106 1.255 . S
O101 Fe91 1.976 . S
O101 C96 1.287 . S
O102 Fe88 1.996 . S
O102 C96 1.255 1_455 S
C103 O107 1.295 1_655 S
C103 O108 1.235 . S
O104 Fe89 1.976 . S
O104 C98 1.287 1_455 S
O105 Fe91 1.996 . S
O105 C98 1.255 . S
C106 O99 1.287 . S
C106 O100 1.255 . S
O107 Fe89 2.002 . S
O107 C103 1.295 1_455 S
O108 Fe91 1.997 . S
O108 C103 1.235 . S
C109 O92 1.295 . S
C109 O93 1.235 . S
Fe110 O112 1.918 . S
Fe110 O115 1.997 . S
Fe110 O116 2.002 . S
Fe110 O121 1.976 . S
Fe110 O124 1.996 . S
Fe111 O112 1.918 1_565 S
Fe111 O119 1.997 . S
Fe111 O122 1.996 . S
Fe111 O126 1.976 . S
Fe111 O129 2.002 . S
O112 Fe110 1.918 . S
O112 Fe111 1.918 1_545 S
O112 Fe113 1.918 . S
Fe113 O112 1.918 . S
Fe113 O114 2.002 . S
Fe113 O123 1.976 . S
Fe113 O127 1.996 . S
Fe113 O130 1.997 1_545 S
O114 Fe113 2.002 . S
O114 C131 1.295 . S
O115 Fe110 1.997 . S
O115 C131 1.235 . S
O116 Fe110 2.002 . S
O116 C117 1.295 1_545 S
C117 O116 1.295 1_565 S
C117 O119 1.235 . S
C118 O123 1.287 . S
C118 O124 1.255 . S
O119 Fe111 1.997 . S
O119 C117 1.235 . S
C120 O126 1.287 . S
C120 O127 1.255 1_565 S
O121 Fe110 1.976 . S
O121 C128 1.287 1_545 S
O122 Fe111 1.996 . S
O122 C128 1.255 . S
O123 Fe113 1.976 . S
O123 C118 1.287 . S
O124 Fe110 1.996 . S
O124 C118 1.255 . S
C125 O129 1.295 . S
C125 O130 1.235 . S
O126 Fe111 1.976 . S
O126 C120 1.287 . S
O127 Fe113 1.996 . S
O127 C120 1.255 1_545 S
C128 O121 1.287 1_565 S
C128 O122 1.255 . S
O129 Fe111 2.002 . S
O129 C125 1.295 . S
O130 Fe113 1.997 1_565 S
O130 C125 1.235 . S
C131 O114 1.295 . S
C131 O115 1.235 . S
Fe132 O134 1.918 . S
Fe132 O137 1.997 . S
Fe132 O138 2.002 . S
Fe132 O143 1.976 . S
Fe132 O146 1.996 . S
Fe133 O134 1.918 . S
Fe133 O141 1.997 . S
Fe133 O144 1.996 . S
Fe133 O148 1.976 . S
Fe133 O151 2.002 . S
O134 Fe132 1.918 . S
O134 Fe133 1.918 . S
O134 Fe135 1.918 . S
Fe135 O134 1.918 . S
Fe135 O136 2.002 . S
Fe135 O145 1.976 . S
Fe135 O149 1.996 . S
Fe135 O152 1.997 . S
O136 Fe135 2.002 . S
O136 C153 1.295 . S
O137 Fe132 1.997 . S
O137 C153 1.235 . S
O138 Fe132 2.002 . S
O138 C139 1.295 . S
C139 O138 1.295 . S
C139 O141 1.235 . S
C140 O145 1.287 . S
C140 O146 1.255 . S
O141 Fe133 1.997 . S
O141 C139 1.235 . S
C142 O148 1.287 . S
C142 O149 1.255 . S
O143 Fe132 1.976 . S
O143 C150 1.287 . S
O144 Fe133 1.996 . S
O144 C150 1.255 . S
O145 Fe135 1.976 . S
O145 C140 1.287 . S
O146 Fe132 1.996 . S
O146 C140 1.255 . S
C147 O151 1.295 . S
C147 O152 1.235 . S
O148 Fe133 1.976 . S
O148 C142 1.287 . S
O149 Fe135 1.996 . S
O149 C142 1.255 . S
C150 O143 1.287 . S
C150 O144 1.255 . S
O151 Fe133 2.002 . S
O151 C147 1.295 . S
O152 Fe135 1.997 . S
O152 C147 1.235 . S
C153 O136 1.295 . S
C153 O137 1.235 . S
Fe154 O156 1.918 1_454 S
Fe154 O159 1.997 . S
Fe154 O160 2.002 1_554 S
Fe154 O165 1.976 . S
Fe154 O168 1.996 . S
Fe155 O156 1.918 . S
Fe155 O163 1.997 1_655 S
Fe155 O166 1.996 . S
Fe155 O170 1.976 . S
Fe155 O173 2.002 . S
O156 Fe154 1.918 1_656 S
O156 Fe155 1.918 . S
O156 Fe157 1.918 1_556 S
Fe157 O156 1.918 1_554 S
Fe157 O158 2.002 . S
Fe157 O167 1.976 . S
Fe157 O171 1.996 . S
Fe157 O174 1.997 1_554 S
O158 Fe157 2.002 . S
O158 C175 1.295 1_655 S
O159 Fe154 1.997 . S
O159 C175 1.235 . S
O160 Fe154 2.002 1_556 S
O160 C161 1.295 . S
C161 O160 1.295 . S
C161 O163 1.235 . S
C162 O167 1.287 1_455 S
C162 O168 1.255 . S
O163 Fe155 1.997 1_455 S
O163 C161 1.235 . S
C164 O170 1.287 1_554 S
C164 O171 1.255 . S
O165 Fe154 1.976 . S
O165 C172 1.287 1_554 S
O166 Fe155 1.996 . S
O166 C172 1.255 1_655 S
O167 Fe157 1.976 . S
O167 C162 1.287 1_655 S
O168 Fe154 1.996 . S
O168 C162 1.255 . S
C169 O173 1.295 . S
C169 O174 1.235 . S
O170 Fe155 1.976 . S
O170 C164 1.287 1_556 S
O171 Fe157 1.996 . S
O171 C164 1.255 . S
C172 O165 1.287 1_556 S
C172 O166 1.255 1_455 S
O173 Fe155 2.002 . S
O173 C169 1.295 . S
O174 Fe157 1.997 1_556 S
O174 C169 1.235 . S
C175 O158 1.295 1_455 S
C175 O159 1.235 . S
Fe176 O178 1.918 1_545 S
Fe176 O181 1.997 . S
Fe176 O182 2.002 . S
Fe176 O187 1.976 . S
Fe176 O190 1.996 . S
Fe177 O178 1.918 . S
Fe177 O185 1.997 1_565 S
Fe177 O188 1.996 . S
Fe177 O192 1.976 . S
Fe177 O195 2.002 . S
O178 Fe176 1.918 1_565 S
O178 Fe177 1.918 . S
O178 Fe179 1.918 . S
Fe179 O178 1.918 . S
Fe179 O180 2.002 . S
Fe179 O189 1.976 . S
Fe179 O193 1.996 . S
Fe179 O196 1.997 . S
O180 Fe179 2.002 . S
O180 C197 1.295 1_565 S
O181 Fe176 1.997 . S
O181 C197 1.235 . S
O182 Fe176 2.002 . S
O182 C183 1.295 . S
C183 O182 1.295 . S
C183 O185 1.235 . S
C184 O189 1.287 1_545 S
C184 O190 1.255 . S
O185 Fe177 1.997 1_545 S
O185 C183 1.235 . S
C186 O192 1.287 . S
C186 O193 1.255 . S
O187 Fe176 1.976 . S
O187 C194 1.287 . S
O188 Fe177 1.996 . S
O188 C194 1.255 1_565 S
O189 Fe179 1.976 . S
O189 C184 1.287 1_565 S
O190 Fe176 1.996 . S
O190 C184 1.255 . S
C191 O195 1.295 . S
C191 O196 1.235 . S
O192 Fe177 1.976 . S
O192 C186 1.287 . S
O193 Fe179 1.996 . S
O193 C186 1.255 . S
C194 O187 1.287 . S
C194 O188 1.255 1_545 S
O195 Fe177 2.002 . S
O195 C191 1.295 . S
O196 Fe179 1.997 . S
O196 C191 1.235 . S
C197 O180 1.295 1_545 S
C197 O181 1.235 . S
Fe198 O200 1.918 . S
Fe198 O203 1.997 . S
Fe198 O204 2.002 . S
Fe198 O209 1.976 . S
Fe198 O212 1.996 . S
Fe199 O200 1.918 . S
Fe199 O207 1.997 . S
Fe199 O210 1.996 . S
Fe199 O214 1.976 . S
Fe199 O217 2.002 . S
O200 Fe198 1.918 . S
O200 Fe199 1.918 . S
O200 Fe201 1.918 . S
Fe201 O200 1.918 . S
Fe201 O202 2.002 . S
Fe201 O211 1.976 . S
Fe201 O215 1.996 . S
Fe201 O218 1.997 . S
O202 Fe201 2.002 . S
O202 C219 1.295 . S
O203 Fe198 1.997 . S
O203 C219 1.235 . S
O204 Fe198 2.002 . S
O204 C205 1.295 . S
C205 O204 1.295 . S
C205 O207 1.235 . S
C206 O211 1.287 . S
C206 O212 1.255 . S
O207 Fe199 1.997 . S
O207 C205 1.235 . S
C208 O214 1.287 . S
C208 O215 1.255 . S
O209 Fe198 1.976 . S
O209 C216 1.287 . S
O210 Fe199 1.996 . S
O210 C216 1.255 . S
O211 Fe201 1.976 . S
O211 C206 1.287 . S
O212 Fe198 1.996 . S
O212 C206 1.255 . S
C213 O217 1.295 . S
C213 O218 1.235 . S
O214 Fe199 1.976 . S
O214 C208 1.287 . S
O215 Fe201 1.996 . S
O215 C208 1.255 . S
C216 O209 1.287 . S
C216 O210 1.255 . S
O217 Fe199 2.002 . S
O217 C213 1.295 . S
O218 Fe201 1.997 . S
O218 C213 1.235 . S
C219 O202 1.295 . S
C219 O203 1.235 . S
Fe220 O222 1.918 . S
Fe220 O225 1.997 1_455 S
Fe220 O226 2.002 . S
Fe220 O231 1.976 . S
Fe220 O234 1.996 . S
Fe221 O222 1.918 . S
Fe221 O229 1.997 . S
Fe221 O232 1.996 . S
Fe221 O236 1.976 . S
Fe221 O239 2.002 . S
O222 Fe220 1.918 . S
O222 Fe221 1.918 . S
O222 Fe223 1.918 1_455 S
Fe223 O222 1.918 1_655 S
Fe223 O224 2.002 . S
Fe223 O233 1.976 . S
Fe223 O237 1.996 . S
Fe223 O240 1.997 . S
O224 Fe223 2.002 . S
O224 C241 1.295 . S
O225 Fe220 1.997 1_655 S
O225 C241 1.235 . S
O226 Fe220 2.002 . S
O226 C227 1.295 . S
C227 O226 1.295 . S
C227 O229 1.235 . S
C228 O233 1.287 . S
C228 O234 1.255 1_655 S
O229 Fe221 1.997 . S
O229 C227 1.235 . S
C230 O236 1.287 1_655 S
C230 O237 1.255 . S
O231 Fe220 1.976 . S
O231 C238 1.287 . S
O232 Fe221 1.996 . S
O232 C238 1.255 . S
O233 Fe223 1.976 . S
O233 C228 1.287 . S
O234 Fe220 1.996 . S
O234 C228 1.255 1_455 S
C235 O239 1.295 1_655 S
C235 O240 1.235 . S
O236 Fe221 1.976 . S
O236 C230 1.287 1_455 S
O237 Fe223 1.996 . S
O237 C230 1.255 . S
C238 O231 1.287 . S
C238 O232 1.255 . S
O239 Fe221 2.002 . S
O239 C235 1.295 1_455 S
O240 Fe223 1.997 . S
O240 C235 1.235 . S
C241 O224 1.295 . S
C241 O225 1.235 . S
Fe242 O244 1.918 1_565 S
Fe242 O247 1.997 . S
Fe242 O248 2.002 . S
Fe242 O253 1.976 . S
Fe242 O256 1.996 . S
Fe243 O244 1.918 . S
Fe243 O251 1.997 1_545 S
Fe243 O254 1.996 . S
Fe243 O258 1.976 . S
Fe243 O261 2.002 . S
O244 Fe242 1.918 1_545 S
O244 Fe243 1.918 . S
O244 Fe245 1.918 . S
Fe245 O244 1.918 . S
Fe245 O246 2.002 . S
Fe245 O255 1.976 . S
Fe245 O259 1.996 . S
Fe245 O262 1.997 . S
O246 Fe245 2.002 . S
O246 C263 1.295 1_545 S
O247 Fe242 1.997 . S
O247 C263 1.235 . S
O248 Fe242 2.002 . S
O248 C249 1.295 . S
C249 O248 1.295 . S
C249 O251 1.235 . S
C250 O255 1.287 1_565 S
C250 O256 1.255 . S
O251 Fe243 1.997 1_565 S
O251 C249 1.235 . S
C252 O258 1.287 . S
C252 O259 1.255 . S
O253 Fe242 1.976 . S
O253 C260 1.287 . S
O254 Fe243 1.996 . S
O254 C260 1.255 1_545 S
O255 Fe245 1.976 . S
O255 C250 1.287 1_545 S
O256 Fe242 1.996 . S
O256 C250 1.255 . S
C257 O261 1.295 . S
C257 O262 1.235 . S
O258 Fe243 1.976 . S
O258 C252 1.287 . S
O259 Fe245 1.996 . S
O259 C252 1.255 . S
C260 O253 1.287 . S
C260 O254 1.255 1_565 S
O261 Fe243 2.002 . S
O261 C257 1.295 . S
O262 Fe245 1.997 . S
O262 C257 1.235 . S
C263 O246 1.295 1_565 S
C263 O247 1.235 . S
C164 C10 2.042 . S
C186 C30 2.042 . S
C216 C54 2.042 . S
C238 C74 2.042 . S
C252 C96 2.042 . S
C142 C120 2.042 . S
C150 C118 2.042 . S
C172 C8 2.042 . S
C194 C40 2.042 . S
C206 C52 2.042 . S
C228 C84 2.042 . S
C260 C106 2.042 . S
C18 C131 1.625 . S
C32 C21 1.625 . S
C29 C62 1.625 . S
C65 C76 1.625 . S
C73 C98 1.625 . S
C128 C95 1.625 . S
C140 C169 1.625 . S
C162 C191 1.625 . S
C184 C205 1.625 . S
C208 C227 1.625 . S
C230 C257 1.625 . S
C147 C250 1.625 . S
C183 C15 1.560 . S
C43 C219 1.560 . S
C59 C241 1.560 . S
C87 C249 1.560 . S
C109 C139 1.560 . S
C161 C125 1.560 . S
C7 C175 0.339 1_546 S
C197 C37 0.339 . S
C213 C51 0.340 1_455 S
C235 C81 0.340 1_545 S
C103 C263 0.340 . S
C117 C153 0.340 1_455 S
