# Generated by pormake.
# Topology umw, (4)-cn, num edge types: 1
# Building blocks:
#     Node 0, Type 0, BuildingBlock: CEKHIL_clean_sbu_0, # of connection points: 4
#     Node 1, Type 0, BuildingBlock: CEKHIL_clean_sbu_0, # of connection points: 4
#     Node 2, Type 0, BuildingBlock: CEKHIL_clean_sbu_0, # of connection points: 4
#     Node 3, Type 0, BuildingBlock: CEKHIL_clean_sbu_0, # of connection points: 4
#     Node 4, Type 0, BuildingBlock: CEKHIL_clean_sbu_0, # of connection points: 4
#     Node 5, Type 0, BuildingBlock: CEKHIL_clean_sbu_0, # of connection points: 4
#     Node 6, Type 0, BuildingBlock: CEKHIL_clean_sbu_0, # of connection points: 4
#     Node 7, Type 0, BuildingBlock: CEKHIL_clean_sbu_0, # of connection points: 4
#     Edge 8, Type (0, 0), BuildingBlock: KIFKEQ_clean_linker_1, # of connection points: 2
#     Edge 9, Type (0, 0), BuildingBlock: KIFKEQ_clean_linker_1, # of connection points: 2
#     Edge 10, Type (0, 0), BuildingBlock: KIFKEQ_clean_linker_1, # of connection points: 2
#     Edge 11, Type (0, 0), BuildingBlock: KIFKEQ_clean_linker_1, # of connection points: 2
#     Edge 12, Type (0, 0), BuildingBlock: KIFKEQ_clean_linker_1, # of connection points: 2
#     Edge 13, Type (0, 0), BuildingBlock: KIFKEQ_clean_linker_1, # of connection points: 2
#     Edge 14, Type (0, 0), BuildingBlock: KIFKEQ_clean_linker_1, # of connection points: 2
#     Edge 15, Type (0, 0), BuildingBlock: KIFKEQ_clean_linker_1, # of connection points: 2
#     Edge 16, Type (0, 0), BuildingBlock: KIFKEQ_clean_linker_1, # of connection points: 2
#     Edge 17, Type (0, 0), BuildingBlock: KIFKEQ_clean_linker_1, # of connection points: 2
#     Edge 18, Type (0, 0), BuildingBlock: KIFKEQ_clean_linker_1, # of connection points: 2
#     Edge 19, Type (0, 0), BuildingBlock: KIFKEQ_clean_linker_1, # of connection points: 2
#     Edge 20, Type (0, 0), BuildingBlock: KIFKEQ_clean_linker_1, # of connection points: 2
#     Edge 21, Type (0, 0), BuildingBlock: KIFKEQ_clean_linker_1, # of connection points: 2
#     Edge 22, Type (0, 0), BuildingBlock: KIFKEQ_clean_linker_1, # of connection points: 2
#     Edge 23, Type (0, 0), BuildingBlock: KIFKEQ_clean_linker_1, # of connection points: 2
# Relax obj value: 0.134
# Max RMSD: 0.105
# Mean RMSD: 0.105
data_MOF--net-umw--node1-CEKHIL_clean_sbu_0--edge1-KIFKEQ_clean_linker_1
_symmetry_space_group_name_H-M    P1
_symmetry_Int_Tables_number       1
_symmetry_cell_setting            triclinic
loop_
_symmetry_equiv_pos_as_xyz
'x, y, z'
_cell_length_a     40.885664
_cell_length_b     40.830925
_cell_length_c     26.378831
_cell_angle_alpha  90.14837
_cell_angle_beta   89.943589
_cell_angle_gamma 90.037443
loop_
_atom_site_label
_atom_site_type_symbol
_atom_site_fract_x
_atom_site_fract_y
_atom_site_fract_z
_atom_type_partial_charge
Co0 Co 0.42799 0.20453 0.28902 0.0
O1 O 0.41545 0.24979 0.30018 0.0
O2 O 0.38603 0.20689 0.32303 0.0
C3 C 0.44601 0.20978 0.20838 0.0
O4 O 0.43184 0.15448 0.28397 0.0
Co5 Co 0.50075 0.18537 0.26599 0.0
O6 O 0.48246 0.14071 0.2579 0.0
C7 C 0.48163 0.2102 0.3661 0.0
C8 C 0.38949 0.23855 0.32276 0.0
C9 C 0.45327 0.13306 0.27005 0.0
O10 O 0.45129 0.20479 0.35608 0.0
O11 O 0.50446 0.20763 0.33317 0.0
O12 O 0.41474 0.20686 0.21694 0.0
O13 O 0.46402 0.21246 0.24792 0.0
Co14 Co 0.82339 0.43105 0.53672 0.0
O15 O 0.77828 0.42199 0.55433 0.0
O16 O 0.81943 0.38767 0.56579 0.0
C17 C 0.81314 0.45348 0.46006 0.0
O18 O 0.87279 0.4306 0.52458 0.0
Co19 Co 0.85044 0.50111 0.5129 0.0
O20 O 0.89049 0.47785 0.49076 0.0
C21 C 0.8343 0.48129 0.61825 0.0
C22 C 0.78849 0.39396 0.57143 0.0
C23 C 0.89546 0.44851 0.50503 0.0
O24 O 0.82996 0.45117 0.60538 0.0
O25 O 0.84023 0.50441 0.58686 0.0
O26 O 0.81497 0.42172 0.46432 0.0
O27 O 0.81599 0.46968 0.50148 0.0
Co28 Co 0.60087 0.8274 0.78932 0.0
O29 O 0.61331 0.7825 0.80249 0.0
O30 O 0.64404 0.82563 0.81999 0.0
C31 C 0.58037 0.81872 0.71074 0.0
O32 O 0.59714 0.87729 0.78193 0.0
Co33 Co 0.52845 0.84794 0.76618 0.0
O34 O 0.54786 0.8912 0.75104 0.0
C35 C 0.54872 0.82878 0.86963 0.0
C36 C 0.64009 0.79406 0.82213 0.0
C37 C 0.57668 0.89877 0.76527 0.0
O38 O 0.57928 0.82907 0.85772 0.0
O39 O 0.52543 0.83313 0.83799 0.0
O40 O 0.61177 0.823 0.71642 0.0
O41 O 0.56368 0.81808 0.75178 0.0
Co42 Co 0.20633 0.60073 0.04058 0.0
O43 O 0.25085 0.61625 0.04762 0.0
O44 O 0.20686 0.64474 0.06826 0.0
C45 C 0.21162 0.57754 0.96273 0.0
O46 O 0.15664 0.59392 0.0389 0.0
Co47 Co 0.19047 0.52614 0.02937 0.0
O48 O 0.14468 0.54129 0.02166 0.0
C49 C 0.21689 0.55277 0.12437 0.0
C50 C 0.2386 0.64272 0.0675 0.0
C51 C 0.13588 0.57074 0.03034 0.0
O52 O 0.20897 0.58195 0.11082 0.0
O53 O 0.21513 0.52797 0.09475 0.0
O54 O 0.20665 0.60902 0.96654 0.0
O55 O 0.21579 0.56266 0.00492 0.0
Co56 Co 0.42746 0.82059 0.30899 0.0
O57 O 0.41157 0.77629 0.29992 0.0
O58 O 0.3844 0.82088 0.27829 0.0
C59 C 0.44804 0.81431 0.38804 0.0
O60 O 0.4348 0.87021 0.3124 0.0
Co61 Co 0.50162 0.8358 0.32755 0.0
O62 O 0.48636 0.88153 0.33635 0.0
C63 C 0.47855 0.81176 0.22849 0.0
C64 C 0.38588 0.78906 0.27873 0.0
C65 C 0.45754 0.89067 0.32455 0.0
O66 O 0.44865 0.8182 0.24026 0.0
O67 O 0.50217 0.81349 0.26016 0.0
O68 O 0.41684 0.81999 0.3824 0.0
O69 O 0.46407 0.81029 0.34684 0.0
Co70 Co 0.20597 0.4278 0.55717 0.0
O71 O 0.25163 0.41515 0.54964 0.0
O72 O 0.20937 0.38602 0.52325 0.0
C73 C 0.20802 0.4457 0.63843 0.0
O74 O 0.1561 0.43068 0.55708 0.0
Co75 Co 0.18276 0.49928 0.5798 0.0
O76 O 0.13838 0.47974 0.5845 0.0
C77 C 0.21231 0.48213 0.48146 0.0
C78 C 0.2409 0.38922 0.52605 0.0
C79 C 0.13302 0.45053 0.56963 0.0
O80 O 0.20841 0.45141 0.49054 0.0
O81 O 0.2069 0.50458 0.51435 0.0
O82 O 0.20581 0.41439 0.62919 0.0
O83 O 0.21162 0.46405 0.5994 0.0
Co84 Co 0.60118 0.21091 0.80861 0.0
O85 O 0.61295 0.25606 0.79672 0.0
O86 O 0.64508 0.21372 0.78067 0.0
C87 C 0.57815 0.21849 0.88586 0.0
O88 O 0.59788 0.16096 0.81545 0.0
Co89 Co 0.528 0.19022 0.8242 0.0
O90 O 0.54691 0.14665 0.839 0.0
C91 C 0.55193 0.21398 0.72554 0.0
C92 C 0.64038 0.2452 0.77837 0.0
C93 C 0.57653 0.13933 0.82886 0.0
O94 O 0.58181 0.20905 0.73876 0.0
O95 O 0.5277 0.2115 0.75604 0.0
O96 O 0.60982 0.21528 0.88225 0.0
O97 O 0.56285 0.21933 0.84359 0.0
Co98 Co 0.82336 0.60622 0.05951 0.0
O99 O 0.77884 0.61869 0.04466 0.0
O100 O 0.8221 0.64939 0.02829 0.0
C101 C 0.81322 0.5862 0.13793 0.0
O102 O 0.87305 0.60178 0.06905 0.0
Co103 Co 0.84157 0.53318 0.0832 0.0
O104 O 0.88495 0.55186 0.1 0.0
C105 C 0.82302 0.55378 0.97976 0.0
C106 C 0.79058 0.6454 0.02518 0.0
C107 C 0.89354 0.5806 0.0866 0.0
O108 O 0.82612 0.58429 -0.00864 0.0
O109 O 0.82479 0.5306 0.01223 0.0
O110 O 0.81793 0.61756 0.13219 0.0
O111 O 0.81294 0.5694 0.09695 0.0
H112 H 0.54005 0.23482 0.39778 0.0
H113 H 0.4452 0.20368 0.45239 0.0
H114 H 0.55835 0.24282 0.48457 0.0
H115 H 0.46386 0.21098 0.53926 0.0
H116 H 0.49792 0.24472 0.68996 0.0
H117 H 0.48131 0.25081 0.60207 0.0
H118 H 0.57165 0.20553 0.55341 0.0
H119 H 0.58871 0.20021 0.6416 0.0
C120 C 0.52305 0.2298 0.42832 0.0
C121 C 0.4913 0.21817 0.41837 0.0
C122 C 0.5336 0.23434 0.47795 0.0
C123 C 0.51266 0.22725 0.51855 0.0
C124 C 0.48045 0.21699 0.50862 0.0
C125 C 0.46979 0.21262 0.4589 0.0
C126 C 0.51441 0.23641 0.66044 0.0
C127 C 0.54435 0.22145 0.67245 0.0
C128 C 0.50484 0.23985 0.61021 0.0
C129 C 0.52493 0.22819 0.57107 0.0
C130 C 0.55575 0.21495 0.5829 0.0
C131 C 0.56548 0.21176 0.6333 0.0
H132 H 0.86691 0.52982 0.66639 0.0
H133 H 0.79452 0.45418 0.68966 0.0
H134 H 0.85962 0.54839 0.75321 0.0
H135 H 0.78607 0.47366 0.77636 0.0
H136 H 0.81388 0.49221 0.94266 0.0
H137 H 0.81408 0.47489 0.85511 0.0
H138 H 0.82146 0.57587 0.80737 0.0
H139 H 0.82263 0.59337 0.89583 0.0
C140 C 0.8493 0.51729 0.69021 0.0
C141 C 0.83135 0.49054 0.67171 0.0
C142 C 0.84482 0.52817 0.73968 0.0
C143 C 0.82194 0.5128 0.77139 0.0
C144 C 0.80408 0.48583 0.7529 0.0
C145 C 0.80896 0.47459 0.70348 0.0
C146 C 0.81539 0.51087 0.91365 0.0
C147 C 0.81894 0.54418 0.92627 0.0
C148 C 0.81515 0.50087 0.8633 0.0
C149 C 0.81816 0.52395 0.82436 0.0
C150 C 0.81982 0.55746 0.83675 0.0
C151 C 0.82029 0.56751 0.88734 0.0
H152 H 0.43764 0.80813 0.1462 0.0
H153 H 0.53917 0.79931 0.19038 0.0
H154 H 0.45392 0.80539 0.05737 0.0
H155 H 0.55535 0.79833 0.10252 0.0
H156 H 0.57711 0.78703 0.93692 0.0
H157 H 0.5574 0.77379 0.02204 0.0
H158 H 0.47942 0.84455 0.00475 0.0
H159 H 0.49814 0.85625 0.91947 0.0
C160 C 0.46332 0.80531 0.13705 0.0
C161 C 0.48714 0.80482 0.17529 0.0
C162 C 0.47268 0.80394 0.08622 0.0
C163 C 0.50601 0.80245 0.0729 0.0
C164 C 0.52949 0.79939 0.11128 0.0
C165 C 0.52015 0.80034 0.16188 0.0
C166 C 0.55588 0.79972 0.95176 0.0
C167 C 0.53917 0.82272 0.92219 0.0
C168 C 0.54448 0.79209 0.00021 0.0
C169 C 0.51661 0.80788 0.02 0.0
C170 C 0.50031 0.83119 -0.00975 0.0
C171 C 0.51131 0.83829 0.9417 0.0
H172 H 0.21206 0.44575 0.39437 0.0
H173 H 0.23433 0.54232 0.45274 0.0
H174 H 0.22128 0.46535 0.30857 0.0
H175 H 0.24434 0.56164 0.367 0.0
H176 H 0.20174 0.58927 0.20805 0.0
H177 H 0.20841 0.57289 0.29619 0.0
H178 H 0.26041 0.48607 0.24789 0.0
H179 H 0.2529 0.50195 0.15985 0.0
C180 C 0.21953 0.47096 0.38897 0.0
C181 C 0.22188 0.49261 0.43018 0.0
C182 C 0.22506 0.48217 0.33984 0.0
C183 C 0.23332 0.51513 0.33111 0.0
C184 C 0.23746 0.53628 0.37257 0.0
C185 C 0.23174 0.52515 0.42163 0.0
C186 C 0.21515 0.56705 0.21638 0.0
C187 C 0.22614 0.5465 0.17726 0.0
C188 C 0.21912 0.55772 0.26683 0.0
C189 C 0.23447 0.52788 0.2788 0.0
C190 C 0.2478 0.50876 0.23968 0.0
C191 C 0.24355 0.51791 0.18936 0.0
H192 H 0.39235 0.30537 0.3324 0.0
H193 H 0.33513 0.22145 0.37746 0.0
H194 H 0.35689 0.34093 0.38269 0.0
H195 H 0.30008 0.25683 0.42859 0.0
H196 H 0.2239 0.33435 0.47279 0.0
H197 H 0.25904 0.29841 0.42317 0.0
H198 H 0.34343 0.35475 0.46927 0.0
H199 H 0.30796 0.39129 0.5182 0.0
C200 C 0.37213 0.29449 0.35289 0.0
C201 C 0.36657 0.26051 0.35067 0.0
C202 C 0.35195 0.31488 0.38222 0.0
C203 C 0.32562 0.30186 0.41016 0.0
C204 C 0.31984 0.26789 0.40729 0.0
C205 C 0.34003 0.24752 0.37798 0.0
C206 C 0.24999 0.33899 0.47273 0.0
C207 C 0.26306 0.36578 0.49961 0.0
C208 C 0.27023 0.31822 0.4443 0.0
C209 C 0.3042 0.3236 0.44184 0.0
C210 C 0.31736 0.35009 0.46951 0.0
C211 C 0.29706 0.3709 0.49803 0.0
H212 H 0.79407 0.32756 0.58406 0.0
H213 H 0.73407 0.41026 0.62511 0.0
H214 H 0.75882 0.29154 0.63362 0.0
H215 H 0.70032 0.37526 0.67777 0.0
H216 H 0.6257 0.30298 0.7333 0.0
H217 H 0.66056 0.33734 0.68169 0.0
H218 H 0.74217 0.27258 0.71082 0.0
H219 H 0.70603 0.2368 0.75944 0.0
C220 C 0.77336 0.33803 0.60395 0.0
C221 C 0.76658 0.37166 0.60012 0.0
C222 C 0.75325 0.31744 0.63302 0.0
C223 C 0.72629 0.33009 0.66022 0.0
C224 C 0.72002 0.364 0.6566 0.0
C225 C 0.73956 0.38433 0.62647 0.0
C226 C 0.65117 0.2962 0.72897 0.0
C227 C 0.66313 0.26727 0.7508 0.0
C228 C 0.67143 0.31612 0.69942 0.0
C229 C 0.70467 0.30829 0.69182 0.0
C230 C 0.71673 0.27944 0.7146 0.0
C231 C 0.69611 0.25899 0.74313 0.0
H232 H 0.73452 0.63039 0.97574 0.0
H233 H 0.79868 0.71152 0.0084 0.0
H234 H 0.70028 0.66553 0.92472 0.0
H235 H 0.76282 0.748 0.96052 0.0
H236 H 0.70608 0.80247 0.83766 0.0
H237 H 0.74308 0.76714 0.88539 0.0
H238 H 0.66149 0.70392 0.92255 0.0
H239 H 0.62577 0.7377 0.87157 0.0
C240 C 0.7409 0.65608 0.97285 0.0
C241 C 0.76919 0.66819 -0.00352 0.0
C242 C 0.721 0.67654 0.94372 0.0
C243 C 0.72807 0.71018 0.93844 0.0
C244 C 0.75647 0.72232 0.96259 0.0
C245 C 0.777 0.70148 -0.00936 0.0
C246 C 0.69634 0.78071 0.8556 0.0
C247 C 0.66313 0.77258 0.85015 0.0
C248 C 0.71749 0.76052 0.88361 0.0
C249 C 0.70576 0.73211 0.90816 0.0
C250 C 0.67218 0.72466 0.90322 0.0
C251 C 0.6514 0.74426 0.87408 0.0
H252 H 0.30522 0.64244 0.07668 0.0
H253 H 0.21962 0.69785 0.11962 0.0
H254 H 0.33921 0.67846 0.12829 0.0
H255 H 0.25362 0.73368 0.17204 0.0
H256 H 0.33219 0.80901 0.22448 0.0
H257 H 0.29633 0.77544 0.17143 0.0
H258 H 0.349 0.68881 0.2173 0.0
H259 H 0.38504 0.72235 0.26953 0.0
C260 C 0.29365 0.6625 0.09677 0.0
C261 C 0.25964 0.66716 0.09395 0.0
C262 C 0.31314 0.683 0.12687 0.0
C263 C 0.29919 0.70879 0.15507 0.0
C264 C 0.26529 0.7142 0.15078 0.0
C265 C 0.24576 0.69361 0.12069 0.0
C266 C 0.33589 0.78275 0.22366 0.0
C267 C 0.3616 0.76843 0.25124 0.0
C268 C 0.31528 0.76347 0.19322 0.0
C269 C 0.31995 0.72938 0.18942 0.0
C270 C 0.34506 0.71503 0.21832 0.0
C271 C 0.36557 0.73426 0.24877 0.0
H272 H 0.3996 0.92281 0.30264 0.0
H273 H 0.50165 0.94017 0.33666 0.0
H274 H 0.39228 0.98176 0.28701 0.0
H275 H 0.4942 0.99809 0.3205 0.0
H276 H 0.48329 0.08435 0.2176 0.0
H277 H 0.47898 0.0257 0.23159 0.0
H278 H 0.40145 0.04172 0.33979 0.0
H279 H 0.4058 0.1012 0.32606 0.0
C280 C 0.42032 0.93907 0.30733 0.0
C281 C 0.45131 0.92653 0.32051 0.0
C282 C 0.41606 0.97276 0.29845 0.0
C283 C 0.44279 0.99429 0.30191 0.0
C284 C 0.47328 0.98194 0.31694 0.0
C285 C 0.47746 0.94864 0.32637 0.0
C286 C 0.46493 0.07553 0.24387 0.0
C287 C 0.44533 0.09756 0.27145 0.0
C288 C 0.46248 0.04189 0.25181 0.0
C289 C 0.44031 0.02929 0.2874 0.0
C290 C 0.41879 0.0509 0.31219 0.0
C291 C 0.42128 0.08488 0.30428 0.0
H292 H 0.94569 0.46394 0.44099 0.0
H293 H 0.92298 0.40884 0.57606 0.0
H294 H 1.00414 0.45545 0.4563 0.0
H295 H 0.98149 0.40137 0.59209 0.0
H296 H 0.08056 0.46522 0.62911 0.0
H297 H 0.02278 0.45501 0.61039 0.0
H298 H 0.04996 0.40489 0.47253 0.0
H299 H 0.10799 0.41398 0.49219 0.0
C300 C 0.95317 0.44931 0.47316 0.0
C301 C 0.92978 0.43711 0.50735 0.0
C302 C 0.98656 0.44443 0.48185 0.0
C303 C 0.99715 0.42793 0.52549 0.0
C304 C 0.97382 0.41414 0.55817 0.0
C305 C 0.94039 0.41828 0.54878 0.0
C306 C 0.0742 0.45135 0.59546 0.0
C307 C 0.09867 0.44036 0.56214 0.0
C308 C 0.04123 0.44541 0.58487 0.0
C309 C 0.03208 0.42916 0.54008 0.0
C310 C 0.05651 0.41733 0.50739 0.0
C311 C 0.0896 0.42244 0.51875 0.0
H312 H 0.63024 0.92846 0.81008 0.0
H313 H 0.54107 0.94993 0.72858 0.0
H314 H 0.63705 0.9872 0.82829 0.0
H315 H 0.54782 1.00777 0.74762 0.0
H316 H 0.54182 0.08857 0.86878 0.0
H317 H 0.54858 0.03048 0.85119 0.0
H318 H 0.63672 0.05057 0.76707 0.0
H319 H 0.62992 0.10947 0.78397 0.0
C320 C 0.61252 0.9456 0.79513 0.0
C321 C 0.58484 0.93428 0.76842 0.0
C322 C 0.61646 0.97916 0.80564 0.0
C323 C 0.59271 1.00175 0.78982 0.0
C324 C 0.56629 0.99071 0.76057 0.0
C325 C 0.56249 0.9575 0.74972 0.0
C326 C 0.56302 0.08081 0.84723 0.0
C327 C 0.58502 0.10389 0.82709 0.0
C328 C 0.56685 0.04747 0.83726 0.0
C329 C 0.59291 0.03624 0.80736 0.0
C330 C 0.61643 0.05876 0.79029 0.0
C331 C 0.6125 0.09241 0.80005 0.0
H332 H 0.92704 0.62749 0.03175 0.0
H333 H 0.94125 0.54908 0.13921 0.0
H334 H 0.98647 0.62997 0.01782 0.0
H335 H 0.99994 0.55154 0.12496 0.0
H336 H 0.08589 0.52678 0.02216 0.0
H337 H 0.02827 0.53522 0.0393 0.0
H338 H 0.04581 0.63795 0.06631 0.0
H339 H 0.10445 0.62961 0.0496 0.0
C340 C 0.94278 0.61141 0.05335 0.0
C341 C 0.92926 0.58769 0.08598 0.0
C342 C 0.97677 0.61282 0.04526 0.0
C343 C 0.99767 0.59048 0.06956 0.0
C344 C 0.98433 0.56863 0.105 0.0
C345 C 0.95065 0.5673 0.11319 0.0
C346 C 0.07776 0.55133 0.03132 0.0
C347 C 0.10014 0.57744 0.03496 0.0
C348 C 0.04461 0.55609 0.04138 0.0
C349 C 0.03265 0.58711 0.05492 0.0
C350 C 0.05446 0.61373 0.05615 0.0
C351 C 0.08799 0.6089 0.0466 0.0
H352 H 0.60043 0.21335 0.98452 0.0
H353 H 0.51244 0.22242 0.89506 0.0
H354 H 0.56693 0.21136 0.06154 0.0
H355 H 0.47936 0.2186 0.97042 0.0
H356 H 0.42859 0.24135 0.12094 0.0
H357 H 0.46138 0.24538 0.04341 0.0
H358 H 0.53116 0.17692 0.1059 0.0
H359 H 0.49957 0.17461 0.18313 0.0
C360 C 0.57406 0.21477 0.98128 0.0
C361 C 0.55921 0.21784 0.93368 0.0
C362 C 0.55475 0.21336 0.02526 0.0
C363 C 0.52024 0.21468 0.02233 0.0
C364 C 0.50569 0.21804 0.97456 0.0
C365 C 0.52486 0.21983 0.93105 0.0
C366 C 0.45063 0.22681 0.11741 0.0
C367 C 0.46146 0.20762 0.15798 0.0
C368 C 0.46957 0.22914 0.07316 0.0
C369 C 0.49937 0.21183 0.06852 0.0
C370 C 0.50906 0.19144 0.10846 0.0
C371 C 0.49056 0.18969 0.15269 0.0
H372 H 0.79022 0.52526 0.15262 0.0
H373 H 0.83269 0.60708 0.23319 0.0
H374 H 0.79057 0.49288 0.22925 0.0
H375 H 0.83369 0.57402 0.31087 0.0
H376 H 0.79721 0.51702 0.4487 0.0
H377 H 0.79757 0.54975 0.37231 0.0
H378 H 0.82714 0.46485 0.28549 0.0
H379 H 0.82604 0.43156 0.36282 0.0
C380 C 0.7997 0.53638 0.18693 0.0
C381 C 0.81146 0.56879 0.1869 0.0
C382 C 0.80018 0.51758 0.23083 0.0
C383 C 0.81252 0.53057 0.27613 0.0
C384 C 0.8238 0.5633 0.27656 0.0
C385 C 0.8232 0.58231 0.23227 0.0
C386 C 0.80372 0.50518 0.4133 0.0
C387 C 0.81158 0.47163 0.41172 0.0
C388 C 0.80422 0.52414 0.36952 0.0
C389 C 0.81268 0.51014 0.32279 0.0
C390 C 0.82022 0.47638 0.32092 0.0
C391 C 0.81957 0.45724 0.36504 0.0
H392 H 0.51895 0.79725 0.69557 0.0
H393 H 0.60128 0.83922 0.61609 0.0
H394 H 0.48656 0.79887 0.61892 0.0
H395 H 0.56824 0.84136 0.53837 0.0
H396 H 0.51191 0.80035 0.40148 0.0
H397 H 0.54424 0.80378 0.47778 0.0
H398 H 0.45915 0.83605 0.56128 0.0
H399 H 0.42612 0.83232 0.48365 0.0
C400 C 0.53017 0.80695 0.66153 0.0
C401 C 0.56277 0.81808 0.66182 0.0
C402 C 0.51135 0.80819 0.61766 0.0
C403 C 0.52454 0.82062 0.57263 0.0
C404 C 0.55737 0.83148 0.57252 0.0
C405 C 0.57638 0.83016 0.6168 0.0
C406 C 0.49987 0.80835 0.43594 0.0
C407 C 0.46627 0.81604 0.43645 0.0
C408 C 0.51867 0.81058 0.47973 0.0
C409 C 0.50448 0.82042 0.5256 0.0
C410 C 0.4708 0.82817 0.52645 0.0
C411 C 0.45183 0.82602 0.48217 0.0
H412 H 0.20508 0.59951 0.86416 0.0
H413 H 0.21453 0.51152 0.95349 0.0
H414 H 0.20324 0.56599 0.78709 0.0
H415 H 0.21083 0.47833 0.878 0.0
H416 H 0.2372 0.42824 0.72787 0.0
H417 H 0.23855 0.46061 0.80611 0.0
H418 H 0.17087 0.52981 0.74019 0.0
H419 H 0.17116 0.49856 0.66223 0.0
C420 C 0.20645 0.57311 0.8674 0.0
C421 C 0.20984 0.55832 0.91501 0.0
C422 C 0.20515 0.55376 0.82332 0.0
C423 C 0.20685 0.51921 0.82606 0.0
C424 C 0.21006 0.5047 0.87392 0.0
C425 C 0.21179 0.52392 0.91754 0.0
C426 C 0.22222 0.45005 0.73075 0.0
C427 C 0.20409 0.46084 0.68898 0.0
C428 C 0.22299 0.46876 0.77548 0.0
C429 C 0.20516 0.49832 0.77949 0.0
C430 C 0.18574 0.50791 0.73829 0.0
C431 C 0.18553 0.48963 0.69358 0.0
loop_
_geom_bond_atom_site_label_1
_geom_bond_atom_site_label_2
_geom_bond_distance
_geom_bond_site_symmetry_2
_ccdc_geom_bond_type
Co0 O1 2.216 . S
Co0 O2 2.091 . S
Co0 O4 2.004 . S
Co0 O10 2.021 . S
Co0 O12 2.137 . S
Co0 O13 2.244 . S
O1 Co0 2.216 . S
O1 C8 1.247 . S
O2 Co0 2.091 . S
O2 C8 1.261 . S
C3 O12 1.247 . S
C3 O13 1.272 . S
O4 Co0 2.004 . S
O4 C9 1.259 . S
Co5 O6 2.061 . S
Co5 O11 2.052 . S
Co5 O13 2.135 . S
O6 Co5 2.061 . S
O6 C9 1.235 . S
C7 O10 1.238 . S
C7 O11 1.241 . S
C8 O1 1.247 . S
C8 O2 1.261 . S
C9 O4 1.259 . S
C9 O6 1.235 . S
O10 Co0 2.021 . S
O10 C7 1.238 . S
O11 Co5 2.052 . S
O11 C7 1.241 . S
O12 Co0 2.137 . S
O12 C3 1.247 . S
O13 Co0 2.244 . S
O13 C3 1.272 . S
O13 Co5 2.135 . S
Co14 O15 2.216 . S
Co14 O16 2.091 . S
Co14 O18 2.004 . S
Co14 O24 2.021 . S
Co14 O26 2.137 . S
Co14 O27 2.244 . S
O15 Co14 2.216 . S
O15 C22 1.247 . S
O16 Co14 2.091 . S
O16 C22 1.261 . S
C17 O26 1.247 . S
C17 O27 1.272 . S
O18 Co14 2.004 . S
O18 C23 1.259 . S
Co19 O20 2.061 . S
Co19 O25 2.052 . S
Co19 O27 2.135 . S
O20 Co19 2.061 . S
O20 C23 1.235 . S
C21 O24 1.238 . S
C21 O25 1.241 . S
C22 O15 1.247 . S
C22 O16 1.261 . S
C23 O18 1.259 . S
C23 O20 1.235 . S
O24 Co14 2.021 . S
O24 C21 1.238 . S
O25 Co19 2.052 . S
O25 C21 1.241 . S
O26 Co14 2.137 . S
O26 C17 1.247 . S
O27 Co14 2.244 . S
O27 C17 1.272 . S
O27 Co19 2.135 . S
Co28 O29 2.216 . S
Co28 O30 2.091 . S
Co28 O32 2.004 . S
Co28 O38 2.021 . S
Co28 O40 2.137 . S
Co28 O41 2.244 . S
O29 Co28 2.216 . S
O29 C36 1.247 . S
O30 Co28 2.091 . S
O30 C36 1.261 . S
C31 O40 1.247 . S
C31 O41 1.272 . S
O32 Co28 2.004 . S
O32 C37 1.259 . S
Co33 O34 2.061 . S
Co33 O39 2.052 . S
Co33 O41 2.135 . S
O34 Co33 2.061 . S
O34 C37 1.235 . S
C35 O38 1.238 . S
C35 O39 1.241 . S
C36 O29 1.247 . S
C36 O30 1.261 . S
C37 O32 1.259 . S
C37 O34 1.235 . S
O38 Co28 2.021 . S
O38 C35 1.238 . S
O39 Co33 2.052 . S
O39 C35 1.241 . S
O40 Co28 2.137 . S
O40 C31 1.247 . S
O41 Co28 2.244 . S
O41 C31 1.272 . S
O41 Co33 2.135 . S
Co42 O43 2.216 . S
Co42 O44 2.091 . S
Co42 O46 2.004 . S
Co42 O52 2.021 . S
Co42 O54 2.137 1_554 S
Co42 O55 2.244 . S
O43 Co42 2.216 . S
O43 C50 1.247 . S
O44 Co42 2.091 . S
O44 C50 1.261 . S
C45 O54 1.247 . S
C45 O55 1.272 1_556 S
O46 Co42 2.004 . S
O46 C51 1.259 . S
Co47 O48 2.061 . S
Co47 O53 2.052 . S
Co47 O55 2.135 . S
O48 Co47 2.061 . S
O48 C51 1.235 . S
C49 O52 1.238 . S
C49 O53 1.241 . S
C50 O43 1.247 . S
C50 O44 1.261 . S
C51 O46 1.259 . S
C51 O48 1.235 . S
O52 Co42 2.021 . S
O52 C49 1.238 . S
O53 Co47 2.052 . S
O53 C49 1.241 . S
O54 Co42 2.137 1_556 S
O54 C45 1.247 . S
O55 Co42 2.244 . S
O55 C45 1.272 1_554 S
O55 Co47 2.135 . S
Co56 O57 2.216 . S
Co56 O58 2.091 . S
Co56 O60 2.004 . S
Co56 O66 2.021 . S
Co56 O68 2.137 . S
Co56 O69 2.244 . S
O57 Co56 2.216 . S
O57 C64 1.247 . S
O58 Co56 2.091 . S
O58 C64 1.261 . S
C59 O68 1.247 . S
C59 O69 1.272 . S
O60 Co56 2.004 . S
O60 C65 1.259 . S
Co61 O62 2.061 . S
Co61 O67 2.052 . S
Co61 O69 2.135 . S
O62 Co61 2.061 . S
O62 C65 1.235 . S
C63 O66 1.238 . S
C63 O67 1.241 . S
C64 O57 1.247 . S
C64 O58 1.261 . S
C65 O60 1.259 . S
C65 O62 1.235 . S
O66 Co56 2.021 . S
O66 C63 1.238 . S
O67 Co61 2.052 . S
O67 C63 1.241 . S
O68 Co56 2.137 . S
O68 C59 1.247 . S
O69 Co56 2.244 . S
O69 C59 1.272 . S
O69 Co61 2.135 . S
Co70 O71 2.216 . S
Co70 O72 2.091 . S
Co70 O74 2.004 . S
Co70 O80 2.021 . S
Co70 O82 2.137 . S
Co70 O83 2.244 . S
O71 Co70 2.216 . S
O71 C78 1.247 . S
O72 Co70 2.091 . S
O72 C78 1.261 . S
C73 O82 1.247 . S
C73 O83 1.272 . S
O74 Co70 2.004 . S
O74 C79 1.259 . S
Co75 O76 2.061 . S
Co75 O81 2.052 . S
Co75 O83 2.135 . S
O76 Co75 2.061 . S
O76 C79 1.235 . S
C77 O80 1.238 . S
C77 O81 1.241 . S
C78 O71 1.247 . S
C78 O72 1.261 . S
C79 O74 1.259 . S
C79 O76 1.235 . S
O80 Co70 2.021 . S
O80 C77 1.238 . S
O81 Co75 2.052 . S
O81 C77 1.241 . S
O82 Co70 2.137 . S
O82 C73 1.247 . S
O83 Co70 2.244 . S
O83 C73 1.272 . S
O83 Co75 2.135 . S
Co84 O85 2.216 . S
Co84 O86 2.091 . S
Co84 O88 2.004 . S
Co84 O94 2.021 . S
Co84 O96 2.137 . S
Co84 O97 2.244 . S
O85 Co84 2.216 . S
O85 C92 1.247 . S
O86 Co84 2.091 . S
O86 C92 1.261 . S
C87 O96 1.247 . S
C87 O97 1.272 . S
O88 Co84 2.004 . S
O88 C93 1.259 . S
Co89 O90 2.061 . S
Co89 O95 2.052 . S
Co89 O97 2.135 . S
O90 Co89 2.061 . S
O90 C93 1.235 . S
C91 O94 1.238 . S
C91 O95 1.241 . S
C92 O85 1.247 . S
C92 O86 1.261 . S
C93 O88 1.259 . S
C93 O90 1.235 . S
O94 Co84 2.021 . S
O94 C91 1.238 . S
O95 Co89 2.052 . S
O95 C91 1.241 . S
O96 Co84 2.137 . S
O96 C87 1.247 . S
O97 Co84 2.244 . S
O97 C87 1.272 . S
O97 Co89 2.135 . S
Co98 O99 2.216 . S
Co98 O100 2.091 . S
Co98 O102 2.004 . S
Co98 O108 2.021 1_554 S
Co98 O110 2.137 . S
Co98 O111 2.244 . S
O99 Co98 2.216 . S
O99 C106 1.247 . S
O100 Co98 2.091 . S
O100 C106 1.261 . S
C101 O110 1.247 . S
C101 O111 1.272 . S
O102 Co98 2.004 . S
O102 C107 1.259 . S
Co103 O104 2.061 . S
Co103 O109 2.052 1_554 S
Co103 O111 2.135 . S
O104 Co103 2.061 . S
O104 C107 1.235 . S
C105 O108 1.238 . S
C105 O109 1.241 . S
C106 O99 1.247 . S
C106 O100 1.261 . S
C107 O102 1.259 . S
C107 O104 1.235 . S
O108 Co98 2.021 1_556 S
O108 C105 1.238 . S
O109 Co103 2.052 1_556 S
O109 C105 1.241 . S
O110 Co98 2.137 . S
O110 C101 1.247 . S
O111 Co98 2.244 . S
O111 C101 1.272 . S
O111 Co103 2.135 . S
H112 C120 0.950 . S
H113 C125 0.950 . S
H114 C122 0.950 . S
H115 C124 0.950 . S
H116 C126 0.950 . S
H117 C128 0.950 . S
H118 C130 0.950 . S
H119 C131 0.950 . S
C120 H112 0.950 . S
C120 C121 1.386 . S
C120 C122 1.391 . S
C121 C120 1.386 . S
C121 C125 1.393 . S
C122 H114 0.950 . S
C122 C120 1.391 . S
C122 C123 1.400 . S
C123 C122 1.400 . S
C123 C124 1.398 . S
C123 C129 1.491 . S
C124 H115 0.950 . S
C124 C123 1.398 . S
C124 C125 1.391 . S
C125 H113 0.950 . S
C125 C121 1.393 . S
C125 C124 1.391 . S
C126 H116 0.950 . S
C126 C127 1.386 . S
C126 C128 1.391 . S
C127 C126 1.386 . S
C127 C131 1.393 . S
C128 H117 0.950 . S
C128 C126 1.391 . S
C128 C129 1.400 . S
C129 C123 1.491 . S
C129 C128 1.400 . S
C129 C130 1.398 . S
C130 H118 0.950 . S
C130 C129 1.398 . S
C130 C131 1.391 . S
C131 H119 0.950 . S
C131 C127 1.393 . S
C131 C130 1.391 . S
H132 C140 0.950 . S
H133 C145 0.950 . S
H134 C142 0.950 . S
H135 C144 0.950 . S
H136 C146 0.950 . S
H137 C148 0.950 . S
H138 C150 0.950 . S
H139 C151 0.950 . S
C140 H132 0.950 . S
C140 C141 1.386 . S
C140 C142 1.391 . S
C141 C140 1.386 . S
C141 C145 1.393 . S
C142 H134 0.950 . S
C142 C140 1.391 . S
C142 C143 1.400 . S
C143 C142 1.400 . S
C143 C144 1.398 . S
C143 C149 1.491 . S
C144 H135 0.950 . S
C144 C143 1.398 . S
C144 C145 1.391 . S
C145 H133 0.950 . S
C145 C141 1.393 . S
C145 C144 1.391 . S
C146 H136 0.950 . S
C146 C147 1.386 . S
C146 C148 1.391 . S
C147 C146 1.386 . S
C147 C151 1.393 . S
C148 H137 0.950 . S
C148 C146 1.391 . S
C148 C149 1.400 . S
C149 C143 1.491 . S
C149 C148 1.400 . S
C149 C150 1.398 . S
C150 H138 0.950 . S
C150 C149 1.398 . S
C150 C151 1.391 . S
C151 H139 0.950 . S
C151 C147 1.393 . S
C151 C150 1.391 . S
H152 C160 0.950 . S
H153 C165 0.950 . S
H154 C162 0.950 . S
H155 C164 0.950 . S
H156 C166 0.950 . S
H157 C168 0.950 . S
H158 C170 0.946 1_554 S
H159 C171 0.950 . S
C160 H152 0.950 . S
C160 C161 1.386 . S
C160 C162 1.391 . S
C161 C160 1.386 . S
C161 C165 1.393 . S
C162 H154 0.950 . S
C162 C160 1.391 . S
C162 C163 1.400 . S
C163 C162 1.400 . S
C163 C164 1.398 . S
C163 C169 1.491 . S
C164 H155 0.950 . S
C164 C163 1.398 . S
C164 C165 1.391 . S
C165 H153 0.950 . S
C165 C161 1.393 . S
C165 C164 1.391 . S
C166 H156 0.950 . S
C166 C167 1.386 . S
C166 C168 1.391 1_556 S
C167 C166 1.386 . S
C167 C171 1.393 . S
C168 H157 0.950 . S
C168 C166 1.391 1_554 S
C168 C169 1.400 . S
C169 C163 1.491 . S
C169 C168 1.400 . S
C169 C170 1.391 1_554 S
C170 H158 0.946 1_556 S
C170 C169 1.391 1_556 S
C170 C171 1.401 . S
C171 H159 0.950 . S
C171 C167 1.393 . S
C171 C170 1.401 . S
H172 C180 0.950 . S
H173 C185 0.950 . S
H174 C182 0.950 . S
H175 C184 0.950 . S
H176 C186 0.950 . S
H177 C188 0.950 . S
H178 C190 0.950 . S
H179 C191 0.950 . S
C180 H172 0.950 . S
C180 C181 1.386 . S
C180 C182 1.391 . S
C181 C180 1.386 . S
C181 C185 1.393 . S
C182 H174 0.950 . S
C182 C180 1.391 . S
C182 C183 1.400 . S
C183 C182 1.400 . S
C183 C184 1.398 . S
C183 C189 1.491 . S
C184 H175 0.950 . S
C184 C183 1.398 . S
C184 C185 1.391 . S
C185 H173 0.950 . S
C185 C181 1.393 . S
C185 C184 1.391 . S
C186 H176 0.950 . S
C186 C187 1.386 . S
C186 C188 1.391 . S
C187 C186 1.386 . S
C187 C191 1.393 . S
C188 H177 0.950 . S
C188 C186 1.391 . S
C188 C189 1.400 . S
C189 C183 1.491 . S
C189 C188 1.400 . S
C189 C190 1.398 . S
C190 H178 0.950 . S
C190 C189 1.398 . S
C190 C191 1.391 . S
C191 H179 0.950 . S
C191 C187 1.393 . S
C191 C190 1.391 . S
H192 C200 0.950 . S
H193 C205 0.950 . S
H194 C202 0.950 . S
H195 C204 0.950 . S
H196 C206 0.950 . S
H197 C208 0.950 . S
H198 C210 0.950 . S
H199 C211 0.950 . S
C200 H192 0.950 . S
C200 C201 1.386 . S
C200 C202 1.391 . S
C201 C200 1.386 . S
C201 C205 1.393 . S
C202 H194 0.950 . S
C202 C200 1.391 . S
C202 C203 1.400 . S
C203 C202 1.400 . S
C203 C204 1.398 . S
C203 C209 1.491 . S
C204 H195 0.950 . S
C204 C203 1.398 . S
C204 C205 1.391 . S
C205 H193 0.950 . S
C205 C201 1.393 . S
C205 C204 1.391 . S
C206 H196 0.950 . S
C206 C207 1.386 . S
C206 C208 1.391 . S
C207 C206 1.386 . S
C207 C211 1.393 . S
C208 H197 0.950 . S
C208 C206 1.391 . S
C208 C209 1.400 . S
C209 C203 1.491 . S
C209 C208 1.400 . S
C209 C210 1.398 . S
C210 H198 0.950 . S
C210 C209 1.398 . S
C210 C211 1.391 . S
C211 H199 0.950 . S
C211 C207 1.393 . S
C211 C210 1.391 . S
H212 C220 0.950 . S
H213 C225 0.950 . S
H214 C222 0.950 . S
H215 C224 0.950 . S
H216 C226 0.950 . S
H217 C228 0.950 . S
H218 C230 0.950 . S
H219 C231 0.950 . S
C220 H212 0.950 . S
C220 C221 1.386 . S
C220 C222 1.391 . S
C221 C220 1.386 . S
C221 C225 1.393 . S
C222 H214 0.950 . S
C222 C220 1.391 . S
C222 C223 1.400 . S
C223 C222 1.400 . S
C223 C224 1.398 . S
C223 C229 1.491 . S
C224 H215 0.950 . S
C224 C223 1.398 . S
C224 C225 1.391 . S
C225 H213 0.950 . S
C225 C221 1.393 . S
C225 C224 1.391 . S
C226 H216 0.950 . S
C226 C227 1.386 . S
C226 C228 1.391 . S
C227 C226 1.386 . S
C227 C231 1.393 . S
C228 H217 0.950 . S
C228 C226 1.391 . S
C228 C229 1.400 . S
C229 C223 1.491 . S
C229 C228 1.400 . S
C229 C230 1.398 . S
C230 H218 0.950 . S
C230 C229 1.398 . S
C230 C231 1.391 . S
C231 H219 0.950 . S
C231 C227 1.393 . S
C231 C230 1.391 . S
H232 C240 0.950 . S
H233 C245 0.950 . S
H234 C242 0.950 1_554 S
H235 C244 0.950 . S
H236 C246 0.950 . S
H237 C248 0.950 . S
H238 C250 0.950 . S
H239 C251 0.950 . S
C240 H232 0.950 . S
C240 C241 1.386 . S
C240 C242 1.391 1_554 S
C241 C240 1.386 . S
C241 C245 1.393 1_554 S
C242 H234 0.950 1_556 S
C242 C240 1.391 1_556 S
C242 C243 1.400 . S
C243 C242 1.400 . S
C243 C244 1.398 . S
C243 C249 1.491 . S
C244 H235 0.950 . S
C244 C243 1.398 . S
C244 C245 1.391 . S
C245 H233 0.950 . S
C245 C241 1.393 1_556 S
C245 C244 1.391 . S
C246 H236 0.950 . S
C246 C247 1.386 . S
C246 C248 1.391 . S
C247 C246 1.386 . S
C247 C251 1.393 . S
C248 H237 0.950 . S
C248 C246 1.391 . S
C248 C249 1.400 . S
C249 C243 1.491 . S
C249 C248 1.400 . S
C249 C250 1.398 . S
C250 H238 0.950 . S
C250 C249 1.398 . S
C250 C251 1.391 . S
C251 H239 0.950 . S
C251 C247 1.393 . S
C251 C250 1.391 . S
H252 C260 0.950 . S
H253 C265 0.950 . S
H254 C262 0.950 . S
H255 C264 0.950 . S
H256 C266 0.950 . S
H257 C268 0.950 . S
H258 C270 0.950 . S
H259 C271 0.950 . S
C260 H252 0.950 . S
C260 C261 1.386 . S
C260 C262 1.391 . S
C261 C260 1.386 . S
C261 C265 1.393 . S
C262 H254 0.950 . S
C262 C260 1.391 . S
C262 C263 1.400 . S
C263 C262 1.400 . S
C263 C264 1.398 . S
C263 C269 1.491 . S
C264 H255 0.950 . S
C264 C263 1.398 . S
C264 C265 1.391 . S
C265 H253 0.950 . S
C265 C261 1.393 . S
C265 C264 1.391 . S
C266 H256 0.950 . S
C266 C267 1.386 . S
C266 C268 1.391 . S
C267 C266 1.386 . S
C267 C271 1.393 . S
C268 H257 0.950 . S
C268 C266 1.391 . S
C268 C269 1.400 . S
C269 C263 1.491 . S
C269 C268 1.400 . S
C269 C270 1.398 . S
C270 H258 0.950 . S
C270 C269 1.398 . S
C270 C271 1.391 . S
C271 H259 0.950 . S
C271 C267 1.393 . S
C271 C270 1.391 . S
H272 C280 0.950 . S
H273 C285 0.950 . S
H274 C282 0.950 . S
H275 C284 0.950 . S
H276 C286 0.950 . S
H277 C288 0.950 . S
H278 C290 0.950 . S
H279 C291 0.950 . S
C280 H272 0.950 . S
C280 C281 1.386 . S
C280 C282 1.391 . S
C281 C280 1.386 . S
C281 C285 1.393 . S
C282 H274 0.950 . S
C282 C280 1.391 . S
C282 C283 1.400 . S
C283 C282 1.400 . S
C283 C284 1.398 . S
C283 C289 1.491 1_565 S
C284 H275 0.950 . S
C284 C283 1.398 . S
C284 C285 1.391 . S
C285 H273 0.950 . S
C285 C281 1.393 . S
C285 C284 1.391 . S
C286 H276 0.950 . S
C286 C287 1.386 . S
C286 C288 1.391 . S
C287 C286 1.386 . S
C287 C291 1.393 . S
C288 H277 0.950 . S
C288 C286 1.391 . S
C288 C289 1.400 . S
C289 C283 1.491 1_545 S
C289 C288 1.400 . S
C289 C290 1.398 . S
C290 H278 0.950 . S
C290 C289 1.398 . S
C290 C291 1.391 . S
C291 H279 0.950 . S
C291 C287 1.393 . S
C291 C290 1.391 . S
H292 C300 0.950 . S
H293 C305 0.950 . S
H294 C302 0.950 . S
H295 C304 0.950 . S
H296 C306 0.950 . S
H297 C308 0.950 . S
H298 C310 0.950 . S
H299 C311 0.950 . S
C300 H292 0.950 . S
C300 C301 1.386 . S
C300 C302 1.391 . S
C301 C300 1.386 . S
C301 C305 1.393 . S
C302 H294 0.950 . S
C302 C300 1.391 . S
C302 C303 1.400 . S
C303 C302 1.400 . S
C303 C304 1.398 . S
C303 C309 1.491 1_655 S
C304 H295 0.950 . S
C304 C303 1.398 . S
C304 C305 1.391 . S
C305 H293 0.950 . S
C305 C301 1.393 . S
C305 C304 1.391 . S
C306 H296 0.950 . S
C306 C307 1.386 . S
C306 C308 1.391 . S
C307 C306 1.386 . S
C307 C311 1.393 . S
C308 H297 0.950 . S
C308 C306 1.391 . S
C308 C309 1.400 . S
C309 C303 1.491 1_455 S
C309 C308 1.400 . S
C309 C310 1.398 . S
C310 H298 0.950 . S
C310 C309 1.398 . S
C310 C311 1.391 . S
C311 H299 0.950 . S
C311 C307 1.393 . S
C311 C310 1.391 . S
H312 C320 0.950 . S
H313 C325 0.950 . S
H314 C322 0.950 . S
H315 C324 0.950 . S
H316 C326 0.950 . S
H317 C328 0.950 . S
H318 C330 0.950 . S
H319 C331 0.950 . S
C320 H312 0.950 . S
C320 C321 1.386 . S
C320 C322 1.391 . S
C321 C320 1.386 . S
C321 C325 1.393 . S
C322 H314 0.950 . S
C322 C320 1.391 . S
C322 C323 1.400 . S
C323 C322 1.400 . S
C323 C324 1.398 . S
C323 C329 1.491 1_565 S
C324 H315 0.950 . S
C324 C323 1.398 . S
C324 C325 1.391 . S
C325 H313 0.950 . S
C325 C321 1.393 . S
C325 C324 1.391 . S
C326 H316 0.950 . S
C326 C327 1.386 . S
C326 C328 1.391 . S
C327 C326 1.386 . S
C327 C331 1.393 . S
C328 H317 0.950 . S
C328 C326 1.391 . S
C328 C329 1.400 . S
C329 C323 1.491 1_545 S
C329 C328 1.400 . S
C329 C330 1.398 . S
C330 H318 0.950 . S
C330 C329 1.398 . S
C330 C331 1.391 . S
C331 H319 0.950 . S
C331 C327 1.393 . S
C331 C330 1.391 . S
H332 C340 0.950 1_556 S
H333 C345 0.950 . S
H334 C342 0.950 1_556 S
H335 C344 0.950 . S
H336 C346 0.950 . S
H337 C348 0.950 . S
H338 C350 0.950 1_556 S
H339 C351 0.950 1_556 S
C340 H332 0.950 1_554 S
C340 C341 1.386 . S
C340 C342 1.391 . S
C341 C340 1.386 . S
C341 C345 1.393 . S
C342 H334 0.950 1_554 S
C342 C340 1.391 . S
C342 C343 1.400 . S
C343 C342 1.400 . S
C343 C344 1.398 . S
C343 C349 1.491 1_655 S
C344 H335 0.950 . S
C344 C343 1.398 . S
C344 C345 1.391 . S
C345 H333 0.950 . S
C345 C341 1.393 . S
C345 C344 1.391 . S
C346 H336 0.950 . S
C346 C347 1.386 . S
C346 C348 1.391 . S
C347 C346 1.386 . S
C347 C351 1.393 . S
C348 H337 0.950 . S
C348 C346 1.391 . S
C348 C349 1.400 . S
C349 C343 1.491 1_455 S
C349 C348 1.400 . S
C349 C350 1.398 . S
C350 H338 0.950 1_554 S
C350 C349 1.398 . S
C350 C351 1.391 . S
C351 H339 0.950 1_554 S
C351 C347 1.393 . S
C351 C350 1.391 . S
H352 C360 0.950 . S
H353 C365 0.950 . S
H354 C362 0.950 . S
H355 C364 0.950 . S
H356 C366 0.950 . S
H357 C368 0.950 . S
H358 C370 0.950 . S
H359 C371 0.950 . S
C360 H352 0.950 . S
C360 C361 1.386 . S
C360 C362 1.391 1_556 S
C361 C360 1.386 . S
C361 C365 1.393 . S
C362 H354 0.950 . S
C362 C360 1.391 1_554 S
C362 C363 1.400 . S
C363 C362 1.400 . S
C363 C364 1.398 1_554 S
C363 C369 1.491 . S
C364 H355 0.950 . S
C364 C363 1.398 1_556 S
C364 C365 1.391 . S
C365 H353 0.950 . S
C365 C361 1.393 . S
C365 C364 1.391 . S
C366 H356 0.950 . S
C366 C367 1.386 . S
C366 C368 1.391 . S
C367 C366 1.386 . S
C367 C371 1.393 . S
C368 H357 0.950 . S
C368 C366 1.391 . S
C368 C369 1.400 . S
C369 C363 1.491 . S
C369 C368 1.400 . S
C369 C370 1.398 . S
C370 H358 0.950 . S
C370 C369 1.398 . S
C370 C371 1.391 . S
C371 H359 0.950 . S
C371 C367 1.393 . S
C371 C370 1.391 . S
H372 C380 0.950 . S
H373 C385 0.950 . S
H374 C382 0.950 . S
H375 C384 0.950 . S
H376 C386 0.950 . S
H377 C388 0.950 . S
H378 C390 0.950 . S
H379 C391 0.950 . S
C380 H372 0.950 . S
C380 C381 1.386 . S
C380 C382 1.391 . S
C381 C380 1.386 . S
C381 C385 1.393 . S
C382 H374 0.950 . S
C382 C380 1.391 . S
C382 C383 1.400 . S
C383 C382 1.400 . S
C383 C384 1.398 . S
C383 C389 1.491 . S
C384 H375 0.950 . S
C384 C383 1.398 . S
C384 C385 1.391 . S
C385 H373 0.950 . S
C385 C381 1.393 . S
C385 C384 1.391 . S
C386 H376 0.950 . S
C386 C387 1.386 . S
C386 C388 1.391 . S
C387 C386 1.386 . S
C387 C391 1.393 . S
C388 H377 0.950 . S
C388 C386 1.391 . S
C388 C389 1.400 . S
C389 C383 1.491 . S
C389 C388 1.400 . S
C389 C390 1.398 . S
C390 H378 0.950 . S
C390 C389 1.398 . S
C390 C391 1.391 . S
C391 H379 0.950 . S
C391 C387 1.393 . S
C391 C390 1.391 . S
H392 C400 0.950 . S
H393 C405 0.950 . S
H394 C402 0.950 . S
H395 C404 0.950 . S
H396 C406 0.950 . S
H397 C408 0.950 . S
H398 C410 0.950 . S
H399 C411 0.950 . S
C400 H392 0.950 . S
C400 C401 1.386 . S
C400 C402 1.391 . S
C401 C400 1.386 . S
C401 C405 1.393 . S
C402 H394 0.950 . S
C402 C400 1.391 . S
C402 C403 1.400 . S
C403 C402 1.400 . S
C403 C404 1.398 . S
C403 C409 1.491 . S
C404 H395 0.950 . S
C404 C403 1.398 . S
C404 C405 1.391 . S
C405 H393 0.950 . S
C405 C401 1.393 . S
C405 C404 1.391 . S
C406 H396 0.950 . S
C406 C407 1.386 . S
C406 C408 1.391 . S
C407 C406 1.386 . S
C407 C411 1.393 . S
C408 H397 0.950 . S
C408 C406 1.391 . S
C408 C409 1.400 . S
C409 C403 1.491 . S
C409 C408 1.400 . S
C409 C410 1.398 . S
C410 H398 0.950 . S
C410 C409 1.398 . S
C410 C411 1.391 . S
C411 H399 0.950 . S
C411 C407 1.393 . S
C411 C410 1.391 . S
H412 C420 0.950 . S
H413 C425 0.950 . S
H414 C422 0.950 . S
H415 C424 0.950 . S
H416 C426 0.950 . S
H417 C428 0.950 . S
H418 C430 0.950 . S
H419 C431 0.950 . S
C420 H412 0.950 . S
C420 C421 1.386 . S
C420 C422 1.391 . S
C421 C420 1.386 . S
C421 C425 1.393 . S
C422 H414 0.950 . S
C422 C420 1.391 . S
C422 C423 1.400 . S
C423 C422 1.400 . S
C423 C424 1.398 . S
C423 C429 1.491 . S
C424 H415 0.950 . S
C424 C423 1.398 . S
C424 C425 1.391 . S
C425 H413 0.950 . S
C425 C421 1.393 . S
C425 C424 1.391 . S
C426 H416 0.950 . S
C426 C427 1.386 . S
C426 C428 1.391 . S
C427 C426 1.386 . S
C427 C431 1.393 . S
C428 H417 0.950 . S
C428 C426 1.391 . S
C428 C429 1.400 . S
C429 C423 1.491 . S
C429 C428 1.400 . S
C429 C430 1.398 . S
C430 H418 0.950 . S
C430 C429 1.398 . S
C430 C431 1.391 . S
C431 H419 0.950 . S
C431 C427 1.393 . S
C431 C430 1.391 . S
C121 C7 0.687 . S
C127 C91 0.658 . S
C141 C21 0.670 . S
C147 C105 0.656 . S
C161 C63 0.658 . S
C167 C35 0.666 . S
C181 C77 0.655 . S
C187 C49 0.682 . S
C201 C8 1.548 . S
C207 C78 1.546 . S
C221 C22 1.536 . S
C227 C92 1.539 . S
C241 C106 1.543 . S
C247 C36 1.547 . S
C261 C50 1.547 . S
C267 C64 1.549 . S
C281 C65 1.493 . S
C287 C9 1.509 . S
C301 C23 1.500 . S
C307 C79 1.504 . S
C321 C37 1.494 . S
C327 C93 1.507 . S
C341 C107 1.508 . S
C347 C51 1.493 . S
C361 C87 1.531 . S
C367 C3 1.523 . S
C381 C101 1.523 . S
C387 C17 1.532 . S
C401 C31 1.524 . S
C407 C59 1.530 . S
C421 C45 1.531 . S
C427 C73 1.523 . S
