# Generated by pormake.
# Topology lll, (7)-cn, num edge types: 1
# Building blocks:
#     Node 0, Type 0, BuildingBlock: NUHQUE_clean_sbu_2, # of connection points: 7
#     Node 1, Type 0, BuildingBlock: NUHQUE_clean_sbu_2, # of connection points: 7
#     Node 2, Type 0, BuildingBlock: NUHQUE_clean_sbu_2, # of connection points: 7
#     Node 3, Type 0, BuildingBlock: NUHQUE_clean_sbu_2, # of connection points: 7
#     Node 4, Type 0, BuildingBlock: NUHQUE_clean_sbu_2, # of connection points: 7
#     Node 5, Type 0, BuildingBlock: NUHQUE_clean_sbu_2, # of connection points: 7
#     Node 6, Type 0, BuildingBlock: NUHQUE_clean_sbu_2, # of connection points: 7
#     Node 7, Type 0, BuildingBlock: NUHQUE_clean_sbu_2, # of connection points: 7
#     Node 8, Type 0, BuildingBlock: NUHQUE_clean_sbu_2, # of connection points: 7
#     Node 9, Type 0, BuildingBlock: NUHQUE_clean_sbu_2, # of connection points: 7
#     Node 10, Type 0, BuildingBlock: NUHQUE_clean_sbu_2, # of connection points: 7
#     Node 11, Type 0, BuildingBlock: NUHQUE_clean_sbu_2, # of connection points: 7
#     Node 12, Type 0, BuildingBlock: NUHQUE_clean_sbu_2, # of connection points: 7
#     Node 13, Type 0, BuildingBlock: NUHQUE_clean_sbu_2, # of connection points: 7
#     Node 14, Type 0, BuildingBlock: NUHQUE_clean_sbu_2, # of connection points: 7
#     Node 15, Type 0, BuildingBlock: NUHQUE_clean_sbu_2, # of connection points: 7
#     Edge 16, Type (0, 0), BuildingBlock: UVAHIK_clean_linker_0, # of connection points: 2
#     Edge 17, Type (0, 0), BuildingBlock: UVAHIK_clean_linker_0, # of connection points: 2
#     Edge 18, Type (0, 0), BuildingBlock: UVAHIK_clean_linker_0, # of connection points: 2
#     Edge 19, Type (0, 0), BuildingBlock: UVAHIK_clean_linker_0, # of connection points: 2
#     Edge 20, Type (0, 0), BuildingBlock: UVAHIK_clean_linker_0, # of connection points: 2
#     Edge 21, Type (0, 0), BuildingBlock: UVAHIK_clean_linker_0, # of connection points: 2
#     Edge 22, Type (0, 0), BuildingBlock: UVAHIK_clean_linker_0, # of connection points: 2
#     Edge 23, Type (0, 0), BuildingBlock: UVAHIK_clean_linker_0, # of connection points: 2
#     Edge 24, Type (0, 0), BuildingBlock: UVAHIK_clean_linker_0, # of connection points: 2
#     Edge 25, Type (0, 0), BuildingBlock: UVAHIK_clean_linker_0, # of connection points: 2
#     Edge 26, Type (0, 0), BuildingBlock: UVAHIK_clean_linker_0, # of connection points: 2
#     Edge 27, Type (0, 0), BuildingBlock: UVAHIK_clean_linker_0, # of connection points: 2
#     Edge 28, Type (0, 0), BuildingBlock: UVAHIK_clean_linker_0, # of connection points: 2
#     Edge 29, Type (0, 0), BuildingBlock: UVAHIK_clean_linker_0, # of connection points: 2
#     Edge 30, Type (0, 0), BuildingBlock: UVAHIK_clean_linker_0, # of connection points: 2
#     Edge 31, Type (0, 0), BuildingBlock: UVAHIK_clean_linker_0, # of connection points: 2
#     Edge 32, Type (0, 0), BuildingBlock: UVAHIK_clean_linker_0, # of connection points: 2
#     Edge 33, Type (0, 0), BuildingBlock: UVAHIK_clean_linker_0, # of connection points: 2
#     Edge 34, Type (0, 0), BuildingBlock: UVAHIK_clean_linker_0, # of connection points: 2
#     Edge 35, Type (0, 0), BuildingBlock: UVAHIK_clean_linker_0, # of connection points: 2
#     Edge 36, Type (0, 0), BuildingBlock: UVAHIK_clean_linker_0, # of connection points: 2
#     Edge 37, Type (0, 0), BuildingBlock: UVAHIK_clean_linker_0, # of connection points: 2
#     Edge 38, Type (0, 0), BuildingBlock: UVAHIK_clean_linker_0, # of connection points: 2
#     Edge 39, Type (0, 0), BuildingBlock: UVAHIK_clean_linker_0, # of connection points: 2
#     Edge 40, Type (0, 0), BuildingBlock: UVAHIK_clean_linker_0, # of connection points: 2
#     Edge 41, Type (0, 0), BuildingBlock: UVAHIK_clean_linker_0, # of connection points: 2
#     Edge 42, Type (0, 0), BuildingBlock: UVAHIK_clean_linker_0, # of connection points: 2
#     Edge 43, Type (0, 0), BuildingBlock: UVAHIK_clean_linker_0, # of connection points: 2
#     Edge 44, Type (0, 0), BuildingBlock: UVAHIK_clean_linker_0, # of connection points: 2
#     Edge 45, Type (0, 0), BuildingBlock: UVAHIK_clean_linker_0, # of connection points: 2
#     Edge 46, Type (0, 0), BuildingBlock: UVAHIK_clean_linker_0, # of connection points: 2
#     Edge 47, Type (0, 0), BuildingBlock: UVAHIK_clean_linker_0, # of connection points: 2
#     Edge 48, Type (0, 0), BuildingBlock: UVAHIK_clean_linker_0, # of connection points: 2
#     Edge 49, Type (0, 0), BuildingBlock: UVAHIK_clean_linker_0, # of connection points: 2
#     Edge 50, Type (0, 0), BuildingBlock: UVAHIK_clean_linker_0, # of connection points: 2
#     Edge 51, Type (0, 0), BuildingBlock: UVAHIK_clean_linker_0, # of connection points: 2
#     Edge 52, Type (0, 0), BuildingBlock: UVAHIK_clean_linker_0, # of connection points: 2
#     Edge 53, Type (0, 0), BuildingBlock: UVAHIK_clean_linker_0, # of connection points: 2
#     Edge 54, Type (0, 0), BuildingBlock: UVAHIK_clean_linker_0, # of connection points: 2
#     Edge 55, Type (0, 0), BuildingBlock: UVAHIK_clean_linker_0, # of connection points: 2
#     Edge 56, Type (0, 0), BuildingBlock: UVAHIK_clean_linker_0, # of connection points: 2
#     Edge 57, Type (0, 0), BuildingBlock: UVAHIK_clean_linker_0, # of connection points: 2
#     Edge 58, Type (0, 0), BuildingBlock: UVAHIK_clean_linker_0, # of connection points: 2
#     Edge 59, Type (0, 0), BuildingBlock: UVAHIK_clean_linker_0, # of connection points: 2
#     Edge 60, Type (0, 0), BuildingBlock: UVAHIK_clean_linker_0, # of connection points: 2
#     Edge 61, Type (0, 0), BuildingBlock: UVAHIK_clean_linker_0, # of connection points: 2
#     Edge 62, Type (0, 0), BuildingBlock: UVAHIK_clean_linker_0, # of connection points: 2
#     Edge 63, Type (0, 0), BuildingBlock: UVAHIK_clean_linker_0, # of connection points: 2
#     Edge 64, Type (0, 0), BuildingBlock: UVAHIK_clean_linker_0, # of connection points: 2
#     Edge 65, Type (0, 0), BuildingBlock: UVAHIK_clean_linker_0, # of connection points: 2
#     Edge 66, Type (0, 0), BuildingBlock: UVAHIK_clean_linker_0, # of connection points: 2
#     Edge 67, Type (0, 0), BuildingBlock: UVAHIK_clean_linker_0, # of connection points: 2
#     Edge 68, Type (0, 0), BuildingBlock: UVAHIK_clean_linker_0, # of connection points: 2
#     Edge 69, Type (0, 0), BuildingBlock: UVAHIK_clean_linker_0, # of connection points: 2
#     Edge 70, Type (0, 0), BuildingBlock: UVAHIK_clean_linker_0, # of connection points: 2
#     Edge 71, Type (0, 0), BuildingBlock: UVAHIK_clean_linker_0, # of connection points: 2
# Relax obj value: 0.447
# Max RMSD: 0.287
# Mean RMSD: 0.287
data_MOF--net-lll--node1-NUHQUE_clean_sbu_2--edge1-UVAHIK_clean_linker_0
_symmetry_space_group_name_H-M    P1
_symmetry_Int_Tables_number       1
_symmetry_cell_setting            triclinic
loop_
_symmetry_equiv_pos_as_xyz
'x, y, z'
_cell_length_a     59.231048
_cell_length_b     59.151443
_cell_length_c     58.988365
_cell_angle_alpha  90.06536
_cell_angle_beta   90.092427
_cell_angle_gamma 89.883209
loop_
_atom_site_label
_atom_site_type_symbol
_atom_site_fract_x
_atom_site_fract_y
_atom_site_fract_z
_atom_type_partial_charge
O0 O 0.67066 0.08552 1.00991 0.0
Tb1 Tb 0.67789 0.12114 1.01457 0.0
Eu2 Eu 0.64949 0.15027 0.06238 0.0
C3 C 0.65815 0.07933 0.99256 0.0
O4 O 0.6427 0.09354 0.98524 0.0
C5 C 0.64151 0.15862 1.00949 0.0
O6 O 0.67852 0.16953 0.07718 0.0
C7 C 0.61324 0.15004 0.08682 0.0
C8 C 0.69577 0.17457 0.06413 0.0
O9 O 0.69456 0.17038 0.04229 0.0
C10 C 0.69006 0.11875 0.06586 0.0
C11 C 0.6042 0.13866 0.10725 0.0
C12 C 0.58595 0.12361 0.10495 0.0
C13 C 0.57667 0.1128 0.12398 0.0
C14 C 0.58559 0.11764 0.14552 0.0
C15 C 0.6037 0.13271 0.14821 0.0
C16 C 0.61309 0.14301 0.12898 0.0
O17 O 0.64516 0.13675 1.00704 0.0
O18 O 0.64526 0.1685 0.0291 0.0
O19 O 0.6989 0.11113 0.98594 0.0
O20 O 0.69399 0.14609 0.99255 0.0
C21 C 0.70322 0.13141 0.97896 0.0
O22 O 0.66809 0.11778 0.06803 0.0
O23 O 0.6982 0.12333 0.04566 0.0
O24 O 0.62962 0.16482 0.08969 0.0
O25 O 0.61578 0.13732 0.06863 0.0
H26 H 0.57918 0.12009 0.08824 0.0
H27 H 0.57839 0.10965 0.16035 0.0
H28 H 0.62701 0.1547 0.13106 0.0
O29 O 0.87799 0.22095 0.24696 0.0
Tb30 Tb 0.84708 0.21106 0.26377 0.0
Eu31 Eu 0.83299 0.17613 0.31946 0.0
C32 C 0.88844 0.20641 0.23378 0.0
O33 O 0.88102 0.18551 0.23287 0.0
C34 C 0.82455 0.16609 0.26791 0.0
O35 O 0.81333 0.20071 0.34063 0.0
C36 C 0.84465 0.14015 0.34171 0.0
C37 C 0.80357 0.21838 0.33127 0.0
O38 O 0.8032 0.2202 0.3091 0.0
C39 C 0.85625 0.22345 0.31448 0.0
C40 C 0.85621 0.12964 0.36132 0.0
C41 C 0.87126 0.11168 0.35702 0.0
C42 C 0.88008 0.09872 0.37487 0.0
C43 C 0.87419 0.10427 0.39718 0.0
C44 C 0.85923 0.12202 0.40188 0.0
C45 C 0.85036 0.13492 0.38393 0.0
O46 O 0.84503 0.17469 0.26692 0.0
O47 O 0.81409 0.16676 0.28753 0.0
O48 O 0.83129 0.21747 0.23082 0.0
O49 O 0.8112 0.21833 0.26048 0.0
C50 C 0.81085 0.21965 0.23849 0.0
O51 O 0.86107 0.20176 0.31647 0.0
O52 O 0.84934 0.23138 0.29472 0.0
O53 O 0.82556 0.15103 0.3452 0.0
O54 O 0.8571 0.14884 0.32543 0.0
H55 H 0.87515 0.10704 0.33967 0.0
H56 H 0.88106 0.09446 0.41112 0.0
H57 H 0.83831 0.14826 0.38751 0.0
O58 O 0.77445 0.39756 0.5089 0.0
Tb59 Tb 0.79439 0.38863 0.53823 0.0
Eu60 Eu 0.83788 0.37321 0.57088 0.0
C61 C 0.78346 0.41059 0.49336 0.0
O62 O 0.80229 0.42131 0.4981 0.0
C63 C 0.83451 0.36355 0.51674 0.0
O64 O 0.83036 0.34473 0.59473 0.0
C65 C 0.87552 0.39133 0.58356 0.0
C66 C 0.82558 0.34876 0.61614 0.0
O67 O 0.82682 0.36944 0.62412 0.0
C68 C 0.79603 0.4077 0.58486 0.0
C69 C 0.88473 0.40144 0.60449 0.0
C70 C 0.9002 0.41925 0.60284 0.0
C71 C 0.90997 0.42859 0.62243 0.0
C72 C 0.90393 0.42 0.64376 0.0
C73 C 0.88854 0.4021 0.64578 0.0
C74 C 0.87902 0.39288 0.62602 0.0
O75 O 0.82255 0.38221 0.51547 0.0
O76 O 0.83986 0.35508 0.5367 0.0
O77 O 0.76587 0.36781 0.54846 0.0
O78 O 0.79933 0.35685 0.55609 0.0
C79 C 0.77803 0.35233 0.5583 0.0
O80 O 0.80888 0.39018 0.58961 0.0
O81 O 0.79377 0.41462 0.56381 0.0
O82 O 0.87166 0.36945 0.58432 0.0
O83 O 0.8597 0.40287 0.5728 0.0
H84 H 0.9047 0.42575 0.58628 0.0
H85 H 0.9115 0.4271 0.65891 0.0
H86 H 0.86775 0.37861 0.62739 0.0
O87 O 0.61176 0.29227 0.75232 0.0
Tb88 Tb 0.62179 0.31333 0.78069 0.0
Eu89 Eu 0.62984 0.35654 0.81823 0.0
C90 C 0.59604 0.29927 0.73821 0.0
O91 O 0.58687 0.31928 0.74131 0.0
C92 C 0.64292 0.35776 0.76458 0.0
O93 O 0.65266 0.34027 0.84402 0.0
C94 C 0.61637 0.39519 0.83364 0.0
C95 C 0.64457 0.33668 0.8645 0.0
O96 O 0.62541 0.34621 0.87031 0.0
C97 C 0.59645 0.31136 0.82598 0.0
C98 C 0.60558 0.40509 0.8539 0.0
C99 C 0.58896 0.42169 0.85094 0.0
C100 C 0.57874 0.43207 0.86972 0.0
C101 C 0.58495 0.42521 0.89167 0.0
C102 C 0.60171 0.40866 0.89503 0.0
C103 C 0.61219 0.39895 0.87599 0.0
O104 O 0.62632 0.34362 0.76032 0.0
O105 O 0.64983 0.36126 0.78556 0.0
O106 O 0.64765 0.28757 0.78629 0.0
O107 O 0.65109 0.31972 0.80213 0.0
C108 C 0.66005 0.29988 0.79966 0.0
O109 O 0.60808 0.32881 0.83327 0.0
O110 O 0.59495 0.30632 0.80435 0.0
O111 O 0.63715 0.38763 0.83614 0.0
O112 O 0.60362 0.38234 0.82052 0.0
H113 H 0.58408 0.42664 0.83392 0.0
H114 H 0.5769 0.43301 0.90619 0.0
H115 H 0.62585 0.38708 0.87843 0.0
O116 O 0.70601 0.31829 0.27073 0.0
Tb117 Tb 0.68027 0.31527 0.24495 0.0
Eu118 Eu 0.64077 0.33932 0.21088 0.0
C119 C 0.71543 0.33825 0.27273 0.0
O120 O 0.71009 0.35393 0.25788 0.0
C121 C 0.63659 0.32794 0.26372 0.0
O122 O 0.65543 0.31376 0.18696 0.0
C123 C 0.60804 0.36115 0.19132 0.0
C124 C 0.66298 0.32126 0.16746 0.0
O125 O 0.65775 0.34195 0.16134 0.0
C126 C 0.69494 0.34594 0.20404 0.0
C127 C 0.6002 0.3737 0.1711 0.0
C128 C 0.58301 0.38996 0.17383 0.0
C129 C 0.57292 0.40021 0.15485 0.0
C130 C 0.58072 0.39456 0.13315 0.0
C131 C 0.59781 0.37845 0.13004 0.0
C132 C 0.6076 0.36804 0.14908 0.0
O133 O 0.65695 0.3361 0.26335 0.0
O134 O 0.6273 0.3237 0.2439 0.0
O135 O 0.67985 0.27872 0.25045 0.0
O136 O 0.65695 0.29323 0.22686 0.0
C137 C 0.66363 0.27446 0.23607 0.0
O138 O 0.67508 0.35654 0.20455 0.0
O139 O 0.69888 0.32777 0.21627 0.0
O140 O 0.61135 0.33925 0.18901 0.0
O141 O 0.62254 0.37102 0.20512 0.0
H142 H 0.57678 0.39386 0.19066 0.0
H143 H 0.57336 0.40276 0.11845 0.0
H144 H 0.62016 0.35499 0.14665 0.0
O145 O 0.59162 0.17495 0.529 0.0
Tb146 Tb 0.62562 0.17501 0.51546 0.0
Eu147 Eu 0.65208 0.14504 0.4666 0.0
C148 C 0.58712 0.1623 0.54673 0.0
O149 O 0.6001 0.14471 0.55066 0.0
C150 C 0.65717 0.13465 0.51897 0.0
O151 O 0.671 0.17398 0.45116 0.0
C152 C 0.65143 0.10926 0.4413 0.0
C153 C 0.67625 0.19183 0.46336 0.0
O154 O 0.67301 0.19145 0.48536 0.0
C155 C 0.61969 0.18611 0.4639 0.0
C156 C 0.64046 0.10057 0.42048 0.0
C157 C 0.62511 0.0826 0.42243 0.0
C158 C 0.61456 0.0734 0.40322 0.0
C159 C 0.6198 0.08222 0.3818 0.0
C160 C 0.63531 0.10002 0.37935 0.0
C161 C 0.64546 0.1093 0.39884 0.0
O162 O 0.63547 0.13967 0.51916 0.0
O163 O 0.6688 0.13864 0.50044 0.0
O164 O 0.62877 0.19705 0.54504 0.0
O165 O 0.65827 0.18223 0.53083 0.0
C166 C 0.65041 0.19449 0.54726 0.0
O167 O 0.61953 0.16405 0.46126 0.0
O168 O 0.62488 0.19457 0.4839 0.0
O169 O 0.66673 0.12525 0.43917 0.0
O170 O 0.63824 0.11196 0.45907 0.0
H171 H 0.62118 0.07592 0.43907 0.0
H172 H 0.61182 0.07511 0.36687 0.0
H173 H 0.65749 0.12295 0.39706 0.0
O174 O 0.78971 0.08128 0.79316 0.0
Tb175 Tb 0.80303 0.11066 0.77575 0.0
Eu176 Eu 0.84263 0.1112 0.72239 0.0
C177 C 0.79725 0.07615 0.81349 0.0
O178 O 0.815 0.08694 0.82132 0.0
C179 C 0.85322 0.12154 0.77437 0.0
O180 O 0.82402 0.1397 0.70595 0.0
C181 C 0.87392 0.09449 0.69674 0.0
C182 C 0.81281 0.15317 0.71955 0.0
O183 O 0.81452 0.15 0.74144 0.0
C184 C 0.79094 0.10115 0.72426 0.0
C185 C 0.87911 0.08144 0.67601 0.0
C186 C 0.89367 0.06283 0.67787 0.0
C187 C 0.90145 0.05143 0.65852 0.0
C188 C 0.89418 0.05873 0.63703 0.0
C189 C 0.87978 0.07759 0.63472 0.0
C190 C 0.87211 0.0887 0.6544 0.0
O191 O 0.83921 0.1046 0.77789 0.0
O192 O 0.85703 0.12801 0.75344 0.0
O193 O 0.78446 0.12779 0.80294 0.0
O194 O 0.81024 0.1455 0.78566 0.0
C195 C 0.79568 0.1466 0.80195 0.0
O196 O 0.81058 0.09068 0.72292 0.0
O197 O 0.78536 0.11224 0.74294 0.0
O198 O 0.86576 0.11505 0.69428 0.0
O199 O 0.86557 0.0835 0.71425 0.0
H200 H 0.8994 0.05751 0.69451 0.0
H201 H 0.90032 0.05009 0.62204 0.0
H202 H 0.86155 0.1036 0.65283 0.0
O203 O 0.90041 0.27305 1.01244 0.0
Tb204 Tb 0.87612 0.28519 0.98789 0.0
Eu205 Eu 0.85177 0.33228 0.95958 0.0
C206 C 0.91238 0.28767 0.02414 0.0
O207 O 0.9106 0.30927 0.01924 0.0
C208 C 0.84766 0.32331 1.01506 0.0
O209 O 0.81735 0.31771 0.95191 0.0
C210 C 0.8603 0.37175 0.94254 0.0
C211 C 0.8069 0.30518 0.96707 0.0
O212 O 0.81565 0.30292 0.98731 0.0
C213 C 0.88809 0.29677 0.9401 0.0
C214 C 0.86996 0.3836 0.92273 0.0
C215 C 0.88544 0.40118 0.92673 0.0
C216 C 0.89468 0.41358 0.90869 0.0
C217 C 0.88791 0.40833 0.88648 0.0
C218 C 0.87249 0.39083 0.88206 0.0
C219 C 0.86372 0.37827 0.90028 0.0
O220 O 0.85705 0.30302 1.01428 0.0
O221 O 0.8464 0.33697 0.99739 0.0
O222 O 0.87078 0.24945 0.98051 0.0
O223 O 0.84767 0.27391 0.96751 0.0
C224 C 0.85308 0.2526 0.96778 0.0
O225 O 0.86855 0.30669 0.93692 0.0
O226 O 0.89714 0.29708 0.96047 0.0
O227 O 0.84063 0.36161 0.94024 0.0
O228 O 0.87465 0.36065 0.95551 0.0
H229 H 0.89042 0.40506 0.94399 0.0
H230 H 0.89465 0.41798 0.87244 0.0
H231 H 0.85179 0.36478 0.89702 0.0
O232 O 0.18136 0.59426 0.50514 0.0
Tb233 Tb 0.17531 0.6276 0.5192 0.0
Eu234 Eu 0.14632 0.64753 0.57552 0.0
C235 C 0.16828 0.58637 0.48895 0.0
O236 O 0.149 0.59663 0.48493 0.0
C237 C 0.13086 0.65248 0.5244 0.0
O238 O 0.17308 0.6714 0.58773 0.0
C239 C 0.11442 0.6411 0.60487 0.0
C240 C 0.1879 0.67929 0.57326 0.0
O241 O 0.18539 0.67479 0.55166 0.0
C242 C 0.19067 0.62127 0.56926 0.0
C243 C 0.10782 0.62644 0.62412 0.0
C244 C 0.09383 0.60773 0.61999 0.0
C245 C 0.08555 0.59458 0.63788 0.0
C246 C 0.09169 0.60009 0.66017 0.0
C247 C 0.1056 0.61876 0.66481 0.0
C248 C 0.11352 0.632 0.64667 0.0
O249 O 0.13903 0.63177 0.52276 0.0
O250 O 0.13363 0.66384 0.54343 0.0
O251 O 0.18838 0.63611 0.48553 0.0
O252 O 0.17988 0.66251 0.50829 0.0
C253 C 0.187 0.65785 0.48803 0.0
O254 O 0.16907 0.61732 0.57238 0.0
O255 O 0.19746 0.62764 0.54898 0.0
O256 O 0.13081 0.65575 0.60801 0.0
O257 O 0.11471 0.6317 0.58463 0.0
H258 H 0.089 0.60355 0.60277 0.0
H259 H 0.08463 0.59049 0.67409 0.0
H260 H 0.12389 0.64668 0.65015 0.0
O261 O 0.38241 0.67775 0.7787 0.0
Tb262 Tb 0.36355 0.70912 0.78214 0.0
Eu263 Eu 0.34958 0.66819 0.81435 0.0
C264 C 0.39133 0.67045 0.75955 0.0
O265 O 0.40321 0.65169 0.75978 0.0
C266 C 0.32537 0.67856 0.76705 0.0
O267 O 0.33003 0.6418 0.8329 0.0
C268 C 0.39103 0.65849 0.8249 0.0
C269 C 0.32882 0.64073 0.85505 0.0
O270 O 0.33639 0.65746 0.86754 0.0
C271 C 0.34742 0.71934 0.83261 0.0
C272 C 0.40163 0.64946 0.84571 0.0
C273 C 0.41933 0.63384 0.84339 0.0
C274 C 0.42776 0.6222 0.86231 0.0
C275 C 0.4182 0.62623 0.88368 0.0
C276 C 0.40043 0.64168 0.88642 0.0
C277 C 0.39246 0.6537 0.86742 0.0
O278 O 0.32997 0.69982 0.77107 0.0
O279 O 0.33593 0.66279 0.77866 0.0
O280 O 0.38932 0.73128 0.76707 0.0
O281 O 0.3572 0.72799 0.75136 0.0
C282 C 0.37692 0.73729 0.74984 0.0
O283 O 0.3377 0.69923 0.83342 0.0
O284 O 0.36025 0.72547 0.81532 0.0
O285 O 0.37759 0.64436 0.81438 0.0
O286 O 0.38301 0.6792 0.82561 0.0
H287 H 0.42615 0.63032 0.82669 0.0
H288 H 0.42405 0.61665 0.89823 0.0
H289 H 0.37859 0.66547 0.86935 0.0
O290 O 0.27255 0.87471 0.0272 0.0
Tb291 Tb 0.295 0.86666 0.05522 0.0
Eu292 Eu 0.34354 0.87068 0.0877 0.0
C293 C 0.27636 0.89275 1.01477 0.0
O294 O 0.29189 0.90718 0.02134 0.0
C295 C 0.34054 0.86172 0.03401 0.0
O296 O 0.36367 0.84914 0.11167 0.0
C297 C 0.36068 0.91078 0.09279 0.0
C298 C 0.36003 0.84968 0.13362 0.0
O299 O 0.34309 0.86153 0.14168 0.0
C300 C 0.29155 0.87702 0.10524 0.0
C301 C 0.36811 0.92443 0.11241 0.0
C302 C 0.38229 0.94304 0.10873 0.0
C303 C 0.39249 0.95432 0.12707 0.0
C304 C 0.38821 0.94672 0.14923 0.0
C305 C 0.37409 0.92808 0.15335 0.0
C306 C 0.36394 0.91713 0.13473 0.0
O307 O 0.324 0.87632 0.03534 0.0
O308 O 0.34953 0.85431 0.05303 0.0
O309 O 0.27845 0.83366 0.05534 0.0
O310 O 0.3123 0.83618 0.06691 0.0
C311 C 0.29566 0.82246 0.06329 0.0
O312 O 0.31101 0.86635 0.10831 0.0
O313 O 0.2861 0.88529 0.08529 0.0
O314 O 0.37279 0.89254 0.08933 0.0
O315 O 0.33888 0.90734 0.09014 0.0
H316 H 0.38583 0.94835 0.09152 0.0
H317 H 0.39696 0.9546 0.16331 0.0
H318 H 0.35321 0.90266 0.1375 0.0
O319 O 0.10186 0.77403 0.25955 0.0
Tb320 Tb 0.10322 0.79403 0.29032 0.0
Eu321 Eu 0.09705 0.84093 0.32419 0.0
C322 C 0.08528 0.77801 0.24524 0.0
O323 O 0.06932 0.79226 0.25124 0.0
C324 C 0.11741 0.8403 0.27325 0.0
O325 O 0.12108 0.83362 0.35257 0.0
C326 C 0.07519 0.87725 0.33527 0.0
C327 C 0.11391 0.82908 0.37317 0.0
O328 O 0.09238 0.82993 0.37819 0.0
C329 C 0.07386 0.78992 0.33273 0.0
C330 C 0.06348 0.88645 0.35534 0.0
C331 C 0.04555 0.90167 0.35252 0.0
C332 C 0.03536 0.91193 0.37145 0.0
C333 C 0.04303 0.90636 0.39336 0.0
C334 C 0.06115 0.89127 0.39647 0.0
C335 C 0.07138 0.88165 0.37729 0.0
O336 O 0.10327 0.82385 0.26887 0.0
O337 O 0.12027 0.84719 0.29423 0.0
O338 O 0.13196 0.77352 0.30116 0.0
O339 O 0.12942 0.80767 0.31242 0.0
C340 C 0.14128 0.78925 0.31346 0.0
O341 O 0.08129 0.80966 0.33988 0.0
O342 O 0.07541 0.78364 0.31141 0.0
O343 O 0.09716 0.8749 0.33751 0.0
O344 O 0.06552 0.86034 0.32432 0.0
H345 H 0.03979 0.90582 0.33557 0.0
H346 H 0.03518 0.91417 0.40798 0.0
H347 H 0.08615 0.87114 0.37943 0.0
O348 O 0.23331 0.87536 0.76556 0.0
Tb349 Tb 0.22705 0.86568 0.73056 0.0
Eu350 Eu 0.16916 0.8599 0.70377 0.0
C351 C 0.21642 0.8794 0.77944 0.0
O352 O 0.19566 0.87891 0.77161 0.0
C353 C 0.18766 0.83465 0.74848 0.0
O354 O 0.19381 0.8346 0.68983 0.0
C355 C 0.12809 0.8571 0.68879 0.0
C356 C 0.20286 0.83803 0.66983 0.0
O357 O 0.19474 0.85407 0.65679 0.0
C358 C 0.2054 0.89622 0.69369 0.0
C359 C 0.11332 0.86563 0.67034 0.0
C360 C 0.09421 0.87873 0.67603 0.0
C361 C 0.07902 0.88595 0.6592 0.0
C362 C 0.08317 0.88006 0.6366 0.0
C363 C 0.10202 0.86709 0.63052 0.0
C364 C 0.11727 0.86006 0.64739 0.0
O365 O 0.20873 0.83531 0.74107 0.0
O366 O 0.1718 0.84831 0.74043 0.0
O367 O 0.26322 0.87086 0.72708 0.0
O368 O 0.24653 0.84868 0.704 0.0
C369 C 0.2658 0.85771 0.7096 0.0
O370 O 0.18605 0.88894 0.68595 0.0
O371 O 0.20884 0.89368 0.71558 0.0
O372 O 0.14393 0.84232 0.68355 0.0
O373 O 0.13448 0.87196 0.70416 0.0
H374 H 0.09092 0.88292 0.69362 0.0
H375 H 0.07181 0.886 0.62344 0.0
H376 H 0.1318 0.84996 0.64266 0.0
O377 O 0.13344 0.70892 1.00525 0.0
Tb378 Tb 0.14638 0.68322 0.98251 0.0
Eu379 Eu 0.14156 0.63275 0.96027 0.0
C380 C 0.11337 0.70596 1.01421 0.0
O381 O 0.10063 0.68953 1.00637 0.0
C382 C 0.15316 0.64194 1.01222 0.0
O383 O 0.1596 0.60372 0.944 0.0
C384 C 0.09879 0.62363 0.96008 0.0
C385 C 0.15275 0.59404 0.92519 0.0
O386 O 0.1355 0.60237 0.91395 0.0
C387 C 0.13915 0.67843 0.93171 0.0
C388 C 0.08274 0.62068 0.94122 0.0
C389 C 0.06487 0.60531 0.94341 0.0
C390 C 0.05191 0.59899 0.92442 0.0
C391 C 0.05716 0.60843 0.90317 0.0
C392 C 0.07496 0.62398 0.90065 0.0
C393 C 0.08748 0.6302 0.91994 0.0
O394 O 0.13967 0.65934 1.00967 0.0
O395 O 0.15955 0.63068 0.99415 0.0
O396 O 0.17739 0.70292 0.9809 0.0
O397 O 0.17901 0.66727 0.97601 0.0
C398 C 0.1907 0.6858 0.97695 0.0
O399 O 0.14923 0.65849 0.9326 0.0
O400 O 0.12951 0.68667 0.95005 0.0
O401 O 0.11454 0.60804 0.96088 0.0
O402 O 0.10663 0.64416 0.96364 0.0
H403 H 0.06155 0.59776 0.9598 0.0
H404 H 0.04816 0.60256 0.8883 0.0
H405 H 0.10154 0.64178 0.91834 0.0
O406 O 0.28551 0.59939 0.28429 0.0
Tb407 Tb 0.29877 0.62909 0.26739 0.0
Eu408 Eu 0.33556 0.63436 0.20023 0.0
C409 C 0.29578 0.59088 0.30213 0.0
O410 O 0.31569 0.59882 0.30787 0.0
C411 C 0.34471 0.64547 0.25243 0.0
O412 O 0.31497 0.65064 0.17248 0.0
C413 C 0.36685 0.60941 0.18244 0.0
C414 C 0.32236 0.66699 0.15947 0.0
O415 O 0.31 0.67342 0.14211 0.0
C416 C 0.2864 0.62339 0.21823 0.0
C417 C 0.37517 0.59945 0.1611 0.0
C418 C 0.39029 0.58131 0.16272 0.0
C419 C 0.40004 0.57176 0.14329 0.0
C420 C 0.39395 0.58028 0.12191 0.0
C421 C 0.37876 0.59855 0.1198 0.0
C422 C 0.36953 0.60826 0.13962 0.0
O423 O 0.33297 0.62673 0.2547 0.0
O424 O 0.349 0.65274 0.23169 0.0
O425 O 0.29657 0.64535 0.30062 0.0
O426 O 0.29483 0.66567 0.27094 0.0
C427 C 0.29499 0.66586 0.29298 0.0
O428 O 0.30762 0.61664 0.21886 0.0
O429 O 0.27684 0.62831 0.23775 0.0
O430 O 0.36854 0.63147 0.18461 0.0
O431 O 0.34834 0.60091 0.19134 0.0
H432 H 0.39467 0.57474 0.17932 0.0
H433 H 0.40175 0.57325 0.10684 0.0
H434 H 0.35802 0.62247 0.13835 0.0
O435 O 0.36772 0.77381 0.52414 0.0
Tb436 Tb 0.36517 0.79802 0.49633 0.0
Eu437 Eu 0.37321 0.84411 0.46222 0.0
C438 C 0.38491 0.7751 0.53829 0.0
O439 O 0.40121 0.78945 0.5338 0.0
C440 C 0.36212 0.8456 0.51652 0.0
O441 O 0.34067 0.8515 0.44483 0.0
C442 C 0.40265 0.87266 0.44708 0.0
C443 C 0.33676 0.84613 0.42364 0.0
O444 O 0.35278 0.83699 0.41127 0.0
C445 C 0.38309 0.79052 0.44781 0.0
C446 C 0.41575 0.87772 0.42641 0.0
C447 C 0.43589 0.88988 0.42874 0.0
C448 C 0.44743 0.89789 0.40961 0.0
C449 C 0.43877 0.89312 0.38795 0.0
C450 C 0.41869 0.88078 0.38508 0.0
C451 C 0.4072 0.8731 0.40453 0.0
O452 O 0.3728 0.82627 0.51861 0.0
O453 O 0.35824 0.85411 0.49629 0.0
O454 O 0.33033 0.78632 0.49401 0.0
O455 O 0.34076 0.81387 0.47363 0.0
C456 C 0.32396 0.80079 0.47867 0.0
O457 O 0.37625 0.81114 0.44258 0.0
O458 O 0.38566 0.78388 0.46909 0.0
O459 O 0.38074 0.87562 0.44545 0.0
O460 O 0.40846 0.85488 0.45929 0.0
H461 H 0.44221 0.89374 0.44557 0.0
H462 H 0.44706 0.90023 0.37323 0.0
H463 H 0.39145 0.864 0.40269 0.0
C464 C 0.7297 0.11971 0.94831 0.0
C465 C 0.71723 0.13678 0.95919 0.0
C466 C 0.74577 0.12534 0.93196 0.0
C467 C 0.79099 0.14833 0.92678 0.0
H468 H 0.79002 0.20336 0.89133 0.0
C469 C 0.8225 0.24017 0.94193 0.0
C470 C 0.84288 0.23548 0.95297 0.0
C471 C 0.81232 0.2239 0.92828 0.0
C472 C 0.79071 0.18785 0.90103 0.0
H473 H 0.70953 0.17256 0.95978 0.0
H474 H 0.7376 0.1825 0.93147 0.0
H475 H 0.75661 0.17931 0.89244 0.0
H476 H 0.87004 0.21119 0.95661 0.0
H477 H 0.85269 0.1828 0.9321 0.0
H478 H 0.82349 0.15815 0.9382 0.0
C479 C 0.7351 0.16478 0.93537 0.0
C480 C 0.77168 0.17394 0.90137 0.0
C481 C 0.71928 0.15919 0.95189 0.0
C482 C 0.85388 0.21487 0.94882 0.0
C483 C 0.84399 0.19871 0.93465 0.0
C484 C 0.80975 0.16248 0.92689 0.0
C485 C 0.74935 0.14808 0.92615 0.0
C486 C 0.77099 0.15529 0.91605 0.0
C487 C 0.82257 0.2026 0.925 0.0
C488 C 0.80881 0.18358 0.91594 0.0
H489 H 0.72806 0.1022 0.95343 0.0
H490 H 0.75653 0.11217 0.92511 0.0
H491 H 0.79113 0.13384 0.93799 0.0
H492 H 0.814 0.25614 0.94451 0.0
H493 H 0.79571 0.22766 0.92159 0.0
C494 C 0.65105 0.25013 0.20407 0.0
C495 C 0.65905 0.252 0.22644 0.0
C496 C 0.65568 0.23065 0.19143 0.0
C497 C 0.69871 0.2136 0.17242 0.0
H498 H 0.72499 0.16457 0.20672 0.0
C499 C 0.79128 0.2149 0.20104 0.0
C500 C 0.7904 0.21592 0.22484 0.0
C501 C 0.77234 0.2079 0.18859 0.0
C502 C 0.71789 0.17777 0.19616 0.0
H503 H 0.67321 0.23364 0.25476 0.0
H504 H 0.681 0.19982 0.23326 0.0
H505 H 0.68435 0.16927 0.20601 0.0
H506 H 0.76919 0.21064 0.25426 0.0
H507 H 0.73654 0.19837 0.23281 0.0
H508 H 0.73248 0.22413 0.1655 0.0
C509 C 0.67176 0.21321 0.22484 0.0
C510 C 0.69446 0.18036 0.19558 0.0
C511 C 0.6675 0.23277 0.23732 0.0
C512 C 0.77034 0.21015 0.23594 0.0
C513 C 0.75178 0.20264 0.22364 0.0
C514 C 0.72214 0.21112 0.17307 0.0
C515 C 0.66842 0.21303 0.20112 0.0
C516 C 0.68518 0.20052 0.18704 0.0
C517 C 0.75267 0.20101 0.19988 0.0
C518 C 0.73175 0.19501 0.18756 0.0
H519 H 0.6439 0.26465 0.19546 0.0
H520 H 0.65221 0.23078 0.1734 0.0
H521 H 0.69204 0.22861 0.16431 0.0
H522 H 0.80667 0.21912 0.19211 0.0
H523 H 0.77317 0.20748 0.17027 0.0
C524 C 0.74647 0.33329 0.57817 0.0
C525 C 0.76913 0.33343 0.57146 0.0
C526 C 0.73785 0.31489 0.59005 0.0
C527 C 0.72292 0.27487 0.61769 0.0
H528 H 0.73738 0.22186 0.58202 0.0
C529 C 0.65765 0.22264 0.57756 0.0
C530 C 0.66389 0.20284 0.56621 0.0
C531 C 0.67264 0.23266 0.59276 0.0
C532 C 0.73338 0.236 0.59296 0.0
H533 H 0.80094 0.31536 0.57265 0.0
H534 H 0.78578 0.2829 0.59292 0.0
H535 H 0.7617 0.25395 0.5804 0.0
H536 H 0.68842 0.17571 0.56435 0.0
H537 H 0.71409 0.19244 0.59192 0.0
H538 H 0.69353 0.25716 0.62888 0.0
C539 C 0.77469 0.29701 0.58929 0.0
C540 C 0.74747 0.25468 0.59188 0.0
C541 C 0.78334 0.31549 0.57758 0.0
C542 C 0.68372 0.19148 0.57244 0.0
C543 C 0.69833 0.20103 0.58827 0.0
C544 C 0.70878 0.25604 0.61884 0.0
C545 C 0.75175 0.29628 0.59521 0.0
C546 C 0.74138 0.27488 0.60276 0.0
C547 C 0.69387 0.22269 0.5971 0.0
C548 C 0.71279 0.23724 0.60477 0.0
H549 H 0.73531 0.34717 0.57385 0.0
H550 H 0.71998 0.3147 0.59393 0.0
H551 H 0.71837 0.29 0.627 0.0
H552 H 0.6421 0.23133 0.57329 0.0
H553 H 0.66842 0.24928 0.59919 0.0
C554 C 0.69879 0.30618 0.81478 0.0
C555 C 0.68009 0.29196 0.81176 0.0
C556 C 0.71823 0.29805 0.82555 0.0
C557 C 0.74065 0.25063 0.85979 0.0
H558 H 0.78573 0.24564 0.81265 0.0
C559 C 0.77302 0.1679 0.83028 0.0
C560 C 0.79209 0.16648 0.81639 0.0
C561 C 0.76766 0.18822 0.84101 0.0
C562 C 0.77398 0.24723 0.8266 0.0
H563 H 0.66606 0.25895 0.8186 0.0
H564 H 0.69976 0.24477 0.8377 0.0
H565 H 0.75833 0.27584 0.81106 0.0
H566 H 0.82215 0.1839 0.80501 0.0
H567 H 0.813 0.21938 0.82412 0.0
H568 H 0.75511 0.2209 0.87436 0.0
C569 C 0.69959 0.26212 0.8318 0.0
C570 C 0.75819 0.26469 0.82562 0.0
C571 C 0.68048 0.27003 0.82056 0.0
C572 C 0.80702 0.18483 0.81527 0.0
C573 C 0.80185 0.20507 0.82629 0.0
C574 C 0.75658 0.23327 0.86094 0.0
C575 C 0.71883 0.27585 0.83395 0.0
C576 C 0.74023 0.26522 0.84105 0.0
C577 C 0.78147 0.2074 0.83824 0.0
C578 C 0.77204 0.23018 0.84313 0.0
H579 H 0.69861 0.32327 0.80819 0.0
H580 H 0.73296 0.30881 0.82679 0.0
H581 H 0.7272 0.25111 0.87213 0.0
H582 H 0.76143 0.15382 0.83163 0.0
H583 H 0.75167 0.18931 0.84982 0.0
C584 C 0.30908 0.78912 0.44139 0.0
C585 C 0.30484 0.79668 0.46353 0.0
C586 C 0.29184 0.77918 0.42865 0.0
C587 C 0.26068 0.73876 0.4239 0.0
H588 H 0.19714 0.75241 0.43138 0.0
C589 C 0.18877 0.6977 0.47542 0.0
C590 C 0.1927 0.67481 0.47083 0.0
C591 C 0.19653 0.71423 0.46062 0.0
C592 C 0.21478 0.74831 0.42875 0.0
H593 H 0.27941 0.80171 0.48924 0.0
H594 H 0.24892 0.78531 0.46673 0.0
H595 H 0.2246 0.7829 0.4313 0.0
H596 H 0.20569 0.65091 0.44623 0.0
H597 H 0.21956 0.67996 0.42017 0.0
H598 H 0.2515 0.704 0.42464 0.0
C599 C 0.26547 0.78688 0.45909 0.0
C600 C 0.23046 0.76586 0.42849 0.0
C601 C 0.28286 0.79616 0.47208 0.0
C602 C 0.20286 0.66856 0.45028 0.0
C603 C 0.2107 0.68516 0.43536 0.0
C604 C 0.24508 0.72115 0.42465 0.0
C605 C 0.27003 0.77727 0.43772 0.0
C606 C 0.25365 0.76109 0.42796 0.0
C607 C 0.20845 0.70823 0.44085 0.0
C608 C 0.22223 0.72572 0.42929 0.0
H609 H 0.32609 0.78922 0.43463 0.0
H610 H 0.29582 0.77186 0.41229 0.0
H611 H 0.27847 0.7345 0.42322 0.0
H612 H 0.18062 0.70291 0.49101 0.0
H613 H 0.19469 0.73172 0.46571 0.0
C614 C 0.30469 0.87037 0.70044 0.0
C615 C 0.28727 0.8546 0.69754 0.0
C616 C 0.32583 0.86666 0.69072 0.0
C617 C 0.35934 0.82238 0.6592 0.0
H618 H 0.39487 0.82655 0.71414 0.0
C619 C 0.40257 0.7658 0.73163 0.0
C620 C 0.38361 0.75166 0.73072 0.0
C621 C 0.40592 0.78205 0.71466 0.0
C622 C 0.38602 0.82558 0.69809 0.0
H623 H 0.27758 0.82338 0.68119 0.0
H624 H 0.31486 0.81575 0.66572 0.0
H625 H 0.36644 0.8543 0.70684 0.0
H626 H 0.35518 0.74103 0.71022 0.0
H627 H 0.36074 0.76877 0.68112 0.0
H628 H 0.37764 0.792 0.65202 0.0
C629 C 0.31222 0.83157 0.67458 0.0
C630 C 0.36934 0.84167 0.69388 0.0
C631 C 0.29086 0.83567 0.68376 0.0
C632 C 0.36967 0.75213 0.71156 0.0
C633 C 0.3732 0.76788 0.69454 0.0
C634 C 0.37617 0.8063 0.66343 0.0
C635 C 0.33029 0.84655 0.6788 0.0
C636 C 0.35396 0.83848 0.67593 0.0
C637 C 0.39039 0.78413 0.69661 0.0
C638 C 0.38714 0.806 0.68464 0.0
H639 H 0.3021 0.88541 0.71061 0.0
H640 H 0.33909 0.87884 0.69387 0.0
H641 H 0.34863 0.82027 0.64445 0.0
H642 H 0.4138 0.76539 0.74613 0.0
H643 H 0.41946 0.79416 0.71664 0.0
C644 C 0.27827 0.78441 0.06415 0.0
C645 C 0.29769 0.79776 0.06298 0.0
C646 C 0.27942 0.76145 0.05897 0.0
C647 C 0.28583 0.71217 0.04793 0.0
H648 H 0.29794 0.71672 0.98354 0.0
C649 C 0.22651 0.70714 0.97468 0.0
C650 C 0.21536 0.68676 0.97887 0.0
C651 C 0.24863 0.71017 0.98209 0.0
C652 C 0.29518 0.71461 1.00157 0.0
H653 H 0.33381 0.79768 0.05708 0.0
H654 H 0.3356 0.75752 0.04687 0.0
H655 H 0.31573 0.74315 1.00966 0.0
H656 H 0.21892 0.65272 0.99199 0.0
H657 H 0.25749 0.65839 1.00595 0.0
H658 H 0.26316 0.68546 0.03957 0.0
C659 C 0.31968 0.76467 0.05241 0.0
C660 C 0.30542 0.72971 0.01659 0.0
C661 C 0.31861 0.78758 0.05819 0.0
C662 C 0.22729 0.66862 0.98857 0.0
C663 C 0.24933 0.67182 0.99651 0.0
C664 C 0.27572 0.69698 0.03295 0.0
C665 C 0.29992 0.75161 0.05198 0.0
C666 C 0.29905 0.72994 0.03953 0.0
C667 C 0.25975 0.69302 0.99434 0.0
C668 C 0.27859 0.69962 1.00944 0.0
H669 H 0.262 0.79196 0.06781 0.0
H670 H 0.26383 0.75191 0.05842 0.0
H671 H 0.28096 0.71183 0.06563 0.0
H672 H 0.2176 0.72128 0.96713 0.0
H673 H 0.25605 0.7268 0.98036 0.0
C674 C 0.16935 0.76643 0.3347 0.0
C675 C 0.16303 0.78711 0.32509 0.0
C676 C 0.19119 0.76341 0.34302 0.0
C677 C 0.24509 0.77753 0.3241 0.0
H678 H 0.26296 0.73672 0.37219 0.0
C679 C 0.30112 0.70696 0.29926 0.0
C680 C 0.293 0.68618 0.30708 0.0
C681 C 0.2963 0.72683 0.31112 0.0
C682 C 0.25836 0.74809 0.35858 0.0
H683 H 0.17364 0.82133 0.31769 0.0
H684 H 0.21258 0.81548 0.33075 0.0
H685 H 0.22908 0.75982 0.37652 0.0
H686 H 0.27558 0.66922 0.33432 0.0
H687 H 0.26505 0.70362 0.35378 0.0
H688 H 0.27193 0.76416 0.30471 0.0
C689 C 0.20047 0.8019 0.33252 0.0
C690 C 0.23912 0.76157 0.36129 0.0
C691 C 0.17832 0.80519 0.32502 0.0
C692 C 0.28167 0.68521 0.32782 0.0
C693 C 0.27594 0.70512 0.33917 0.0
C694 C 0.26386 0.76367 0.32112 0.0
C695 C 0.20722 0.7808 0.34112 0.0
C696 C 0.23138 0.77496 0.34324 0.0
C697 C 0.28205 0.7264 0.33026 0.0
C698 C 0.26948 0.74718 0.33746 0.0
H699 H 0.15765 0.75238 0.33506 0.0
H700 H 0.19602 0.74685 0.3492 0.0
H701 H 0.23964 0.78793 0.30999 0.0
H702 H 0.31057 0.70794 0.28359 0.0
H703 H 0.30249 0.74261 0.30431 0.0
C704 C 0.58869 0.30033 0.86629 0.0
C705 C 0.59087 0.29397 0.84339 0.0
C706 C 0.59063 0.2843 0.88369 0.0
C707 C 0.61767 0.22875 0.89479 0.0
H708 H 0.58566 0.2326 0.95191 0.0
C709 C 0.63211 0.16384 0.9679 0.0
C710 C 0.63308 0.17257 0.99009 0.0
C711 C 0.62535 0.17757 0.94963 0.0
C712 C 0.59492 0.23135 0.93615 0.0
H713 H 0.59553 0.2653 0.82097 0.0
H714 H 0.5985 0.2373 0.85125 0.0
H715 H 0.57547 0.25795 0.92096 0.0
H716 H 0.62752 0.20276 1.01027 0.0
H717 H 0.61584 0.22647 0.97869 0.0
H718 H 0.63731 0.20234 0.9101 0.0
C719 C 0.5956 0.25481 0.85578 0.0
C720 C 0.58903 0.24593 0.91832 0.0
C721 C 0.59343 0.27085 0.83834 0.0
C722 C 0.62689 0.19532 0.9935 0.0
C723 C 0.62004 0.20896 0.97532 0.0
C724 C 0.62355 0.21415 0.91262 0.0
C725 C 0.59502 0.26142 0.87874 0.0
C726 C 0.60038 0.24496 0.89738 0.0
C727 C 0.61924 0.20038 0.95307 0.0
C728 C 0.61237 0.21532 0.93365 0.0
H729 H 0.58691 0.31799 0.87086 0.0
H730 H 0.59013 0.29015 0.90108 0.0
H731 H 0.62716 0.22775 0.87915 0.0
H732 H 0.63687 0.14646 0.96455 0.0
H733 H 0.62478 0.17025 0.93281 0.0
C734 C 0.82175 0.16106 0.22525 0.0
C735 C 0.81154 0.1606 0.24678 0.0
C736 C 0.80925 0.15607 0.20555 0.0
C737 C 0.75481 0.12929 0.18632 0.0
H738 H 0.7671 0.16094 0.13023 0.0
C739 C 0.69498 0.12216 0.10834 0.0
C740 C 0.70456 0.12187 0.0865 0.0
C741 C 0.70824 0.12671 0.12758 0.0
C742 C 0.76356 0.15168 0.14564 0.0
H743 H 0.77989 0.15462 0.26417 0.0
H744 H 0.75822 0.14639 0.23019 0.0
H745 H 0.79013 0.1685 0.16361 0.0
H746 H 0.73589 0.12614 0.06806 0.0
H747 H 0.75902 0.13358 0.10152 0.0
H748 H 0.72842 0.11225 0.16827 0.0
C749 C 0.77601 0.15006 0.22835 0.0
C750 C 0.77681 0.15608 0.16494 0.0
C751 C 0.78849 0.155 0.24799 0.0
C752 C 0.72787 0.12607 0.08455 0.0
C753 C 0.74115 0.1306 0.1038 0.0
C754 C 0.74164 0.1248 0.16701 0.0
C755 C 0.78613 0.15045 0.20674 0.0
C756 C 0.77254 0.14515 0.18572 0.0
C757 C 0.73155 0.13106 0.12567 0.0
C758 C 0.74573 0.13595 0.14633 0.0
H759 H 0.83944 0.16525 0.22357 0.0
H760 H 0.81787 0.15636 0.18939 0.0
H761 H 0.75116 0.12003 0.20169 0.0
H762 H 0.67707 0.11929 0.1106 0.0
H763 H 0.70003 0.12727 0.14396 0.0
C764 C 0.84884 0.32858 0.49661 0.0
C765 C 0.8393 0.35039 0.49554 0.0
C766 C 0.85112 0.31524 0.477 0.0
C767 C 0.85227 0.31789 0.41379 0.0
H768 H 0.83829 0.25402 0.41767 0.0
C769 C 0.84758 0.26079 0.33348 0.0
C770 C 0.85547 0.23836 0.33503 0.0
C771 C 0.84554 0.27444 0.35287 0.0
C772 C 0.84258 0.27174 0.41627 0.0
H773 H 0.82505 0.37524 0.47258 0.0
H774 H 0.82914 0.35214 0.43852 0.0
H775 H 0.83545 0.27773 0.45141 0.0
H776 H 0.86741 0.21287 0.35857 0.0
H777 H 0.8644 0.23674 0.39221 0.0
H778 H 0.85958 0.31192 0.37872 0.0
C779 C 0.835 0.34534 0.45452 0.0
C780 C 0.84092 0.28541 0.43571 0.0
C781 C 0.83261 0.35864 0.47415 0.0
C782 C 0.86139 0.23006 0.3566 0.0
C783 C 0.85942 0.24374 0.37601 0.0
C784 C 0.85404 0.3042 0.39438 0.0
C785 C 0.84403 0.3233 0.45566 0.0
C786 C 0.84579 0.3087 0.43482 0.0
C787 C 0.85143 0.26617 0.37449 0.0
C788 C 0.8493 0.28087 0.39527 0.0
H789 H 0.85413 0.32154 0.5127 0.0
H790 H 0.85846 0.29854 0.4786 0.0
H791 H 0.85641 0.33565 0.41239 0.0
H792 H 0.84254 0.26776 0.31727 0.0
H793 H 0.83892 0.29139 0.35091 0.0
C794 C 0.67716 0.37784 0.74947 0.0
C795 C 0.65605 0.36772 0.74542 0.0
C796 C 0.69048 0.38571 0.73153 0.0
C797 C 0.69773 0.38035 0.66859 0.0
H798 H 0.73963 0.42979 0.67789 0.0
C799 C 0.75564 0.41298 0.59639 0.0
C800 C 0.77869 0.41325 0.60216 0.0
C801 C 0.73907 0.41097 0.6133 0.0
C802 C 0.728 0.41597 0.67501 0.0
H803 H 0.63222 0.35859 0.71908 0.0
H804 H 0.65498 0.37306 0.68785 0.0
H805 H 0.71347 0.41946 0.70801 0.0
H806 H 0.80231 0.41274 0.63019 0.0
H807 H 0.77347 0.41025 0.65966 0.0
H808 H 0.71226 0.37715 0.63542 0.0
C809 C 0.66163 0.37436 0.7049 0.0
C810 C 0.71304 0.40987 0.69238 0.0
C811 C 0.6484 0.36621 0.72288 0.0
C812 C 0.78469 0.41301 0.62524 0.0
C813 C 0.76814 0.41145 0.64212 0.0
C814 C 0.71246 0.38669 0.65111 0.0
C815 C 0.68305 0.38403 0.70888 0.0
C816 C 0.69789 0.39168 0.68965 0.0
C817 C 0.74517 0.40958 0.63635 0.0
C818 C 0.72803 0.40437 0.6542 0.0
H819 H 0.68379 0.37915 0.76655 0.0
H820 H 0.70696 0.39254 0.73551 0.0
H821 H 0.68673 0.36603 0.66575 0.0
H822 H 0.75049 0.41253 0.57877 0.0
H823 H 0.72152 0.4097 0.60829 0.0
C824 C 0.61728 0.29513 0.28324 0.0
C825 C 0.62962 0.31541 0.28456 0.0
C826 C 0.61428 0.28148 0.30255 0.0
C827 C 0.61658 0.28181 0.36575 0.0
H828 H 0.62808 0.21759 0.3596 0.0
C829 C 0.62552 0.22394 0.44492 0.0
C830 C 0.61863 0.20121 0.44354 0.0
C831 C 0.62597 0.23776 0.42557 0.0
C832 C 0.62441 0.2354 0.36172 0.0
H833 H 0.64781 0.33747 0.30751 0.0
H834 H 0.6421 0.31412 0.3411 0.0
H835 H 0.62916 0.24182 0.32621 0.0
H836 H 0.60654 0.17543 0.42043 0.0
H837 H 0.60637 0.19963 0.387 0.0
H838 H 0.61149 0.27553 0.40111 0.0
C839 C 0.63477 0.30865 0.32518 0.0
C840 C 0.62508 0.24936 0.34244 0.0
C841 C 0.63805 0.32208 0.30587 0.0
C842 C 0.61192 0.19283 0.42223 0.0
C843 C 0.61207 0.20674 0.40291 0.0
C844 C 0.61565 0.26784 0.38499 0.0
C845 C 0.62323 0.28791 0.32377 0.0
C846 C 0.62134 0.27281 0.34418 0.0
C847 C 0.61921 0.22947 0.40418 0.0
C848 C 0.61971 0.24438 0.38339 0.0
H849 H 0.61081 0.28927 0.26709 0.0
H850 H 0.60513 0.26575 0.30081 0.0
H851 H 0.61334 0.29973 0.36778 0.0
H852 H 0.63118 0.23097 0.4609 0.0
H853 H 0.63212 0.25489 0.42741 0.0
C854 C 0.69223 0.122 0.53973 0.0
C855 C 0.6696 0.12927 0.54049 0.0
C856 C 0.70471 0.11854 0.55969 0.0
C857 C 0.69901 0.11171 0.62287 0.0
H858 H 0.76309 0.12488 0.62199 0.0
C859 C 0.75464 0.11298 0.70484 0.0
C860 C 0.77636 0.10329 0.70355 0.0
C861 C 0.74133 0.1159 0.68528 0.0
C862 C 0.74526 0.12089 0.62253 0.0
H863 H 0.64252 0.13865 0.56329 0.0
H864 H 0.66423 0.13301 0.59801 0.0
H865 H 0.74057 0.13065 0.58791 0.0
H866 H 0.801 0.08928 0.68026 0.0
H867 H 0.77792 0.09445 0.6463 0.0
H868 H 0.70379 0.10239 0.65774 0.0
C869 C 0.6723 0.12943 0.58195 0.0
C870 C 0.73225 0.12414 0.60286 0.0
C871 C 0.65974 0.13271 0.56193 0.0
C872 C 0.78435 0.09665 0.68206 0.0
C873 C 0.77114 0.0998 0.66248 0.0
C874 C 0.71201 0.10866 0.64263 0.0
C875 C 0.6951 0.12245 0.5812 0.0
C876 C 0.7089 0.11944 0.60257 0.0
C877 C 0.74942 0.1095 0.66376 0.0
C878 C 0.73539 0.11306 0.64274 0.0
H879 H 0.70044 0.11907 0.5236 0.0
H880 H 0.72196 0.11268 0.55815 0.0
H881 H 0.68124 0.10755 0.62347 0.0
H882 H 0.74791 0.11845 0.721 0.0
H883 H 0.72484 0.12364 0.687 0.0
C884 C 0.89805 0.2564 0.93049 0.0
C885 C 0.89366 0.27868 0.92345 0.0
C886 C 0.89588 0.23822 0.91521 0.0
C887 C 0.86894 0.22578 0.85841 0.0
H888 H 0.89711 0.16704 0.86582 0.0
C889 C 0.86844 0.15884 0.78772 0.0
C890 C 0.86004 0.13723 0.79311 0.0
C891 C 0.87329 0.17463 0.80468 0.0
C892 C 0.88901 0.18334 0.86366 0.0
H893 H 0.88601 0.29953 0.89435 0.0
H894 H 0.88433 0.26854 0.86746 0.0
H895 H 0.90617 0.19761 0.89231 0.0
H896 H 0.85093 0.11526 0.82098 0.0
H897 H 0.85992 0.14298 0.85086 0.0
H898 H 0.85294 0.21179 0.829 0.0
C899 C 0.88782 0.26455 0.88501 0.0
C900 C 0.89414 0.20096 0.87891 0.0
C901 C 0.88934 0.28255 0.90037 0.0
C902 C 0.85729 0.1317 0.81617 0.0
C903 C 0.86252 0.14753 0.83328 0.0
C904 C 0.86437 0.20843 0.84293 0.0
C905 C 0.88978 0.24192 0.89234 0.0
C906 C 0.88437 0.22264 0.87641 0.0
C907 C 0.87024 0.16932 0.82765 0.0
C908 C 0.87437 0.18704 0.84525 0.0
H909 H 0.90145 0.2528 0.94815 0.0
H910 H 0.89775 0.22125 0.92176 0.0
H911 H 0.86017 0.24167 0.85611 0.0
H912 H 0.87079 0.16391 0.77025 0.0
H913 H 0.87933 0.1912 0.79977 0.0
C914 C 0.83778 0.31819 0.05651 0.0
C915 C 0.83486 0.3299 0.03596 0.0
C916 C 0.82395 0.32281 0.07531 0.0
C917 C 0.78052 0.36411 0.098 0.0
H918 H 0.76648 0.3139 0.13751 0.0
C919 C 0.70855 0.36439 0.16738 0.0
C920 C 0.71294 0.35184 0.1872 0.0
C921 C 0.72435 0.36472 0.14944 0.0
C922 C 0.77025 0.32821 0.12676 0.0
H923 H 0.81492 0.35595 0.01945 0.0
H924 H 0.79061 0.36348 0.0517 0.0
H925 H 0.79147 0.30804 0.10559 0.0
H926 H 0.73867 0.33199 0.20442 0.0
H927 H 0.76566 0.33274 0.17376 0.0
H928 H 0.75834 0.38395 0.11903 0.0
C929 C 0.80394 0.3511 0.05367 0.0
C930 C 0.78487 0.32488 0.1084 0.0
C931 C 0.81797 0.3467 0.035 0.0
C932 C 0.73428 0.34144 0.18932 0.0
C933 C 0.74984 0.34169 0.17156 0.0
C934 C 0.76549 0.36732 0.11623 0.0
C935 C 0.80645 0.33904 0.07412 0.0
C936 C 0.79053 0.3428 0.09377 0.0
C937 C 0.74481 0.35249 0.15097 0.0
C938 C 0.76031 0.34944 0.13103 0.0
H939 H 0.85062 0.30521 0.05801 0.0
H940 H 0.827 0.31347 0.09079 0.0
H941 H 0.7845 0.37851 0.08746 0.0
H942 H 0.69241 0.37269 0.1651 0.0
H943 H 0.7199 0.37334 0.13388 0.0
C944 C 0.06486 0.77954 0.37284 0.0
C945 C 0.06987 0.7726 0.35059 0.0
C946 C 0.06824 0.76493 0.39121 0.0
C947 C 0.08058 0.7053 0.40823 0.0
H948 H 0.11142 0.73456 0.45828 0.0
C949 C 0.12337 0.65519 0.48221 0.0
C950 C 0.12175 0.6645 0.50411 0.0
C951 C 0.11577 0.66732 0.46318 0.0
C952 C 0.10255 0.72608 0.44465 0.0
H953 H 0.08072 0.74409 0.33018 0.0
H954 H 0.08635 0.71852 0.36217 0.0
H955 H 0.09882 0.75693 0.42615 0.0
H956 H 0.11036 0.69382 0.52306 0.0
H957 H 0.09689 0.71465 0.49023 0.0
H958 H 0.08456 0.67436 0.42684 0.0
C959 C 0.07982 0.73532 0.36545 0.0
C960 C 0.09524 0.73898 0.42615 0.0
C961 C 0.0764 0.74997 0.34702 0.0
C962 C 0.11204 0.68609 0.50649 0.0
C963 C 0.10442 0.69816 0.48756 0.0
C964 C 0.08788 0.69235 0.42684 0.0
C965 C 0.07673 0.74293 0.38787 0.0
C966 C 0.08402 0.72885 0.40771 0.0
C967 C 0.10634 0.68909 0.46558 0.0
C968 C 0.09887 0.70259 0.44539 0.0
H969 H 0.05964 0.79677 0.37623 0.0
H970 H 0.06505 0.77123 0.40815 0.0
H971 H 0.07195 0.6969 0.39441 0.0
H972 H 0.13092 0.63871 0.47967 0.0
H973 H 0.11778 0.65985 0.44654 0.0
C974 C 0.30846 0.68713 0.7289 0.0
C975 C 0.31066 0.67242 0.74747 0.0
C976 C 0.29588 0.68089 0.70974 0.0
C977 C 0.26776 0.63045 0.68205 0.0
H978 H 0.24107 0.67702 0.64445 0.0
C979 C 0.19951 0.61659 0.61086 0.0
C980 C 0.20564 0.62486 0.58936 0.0
C981 C 0.21276 0.6213 0.63006 0.0
C982 C 0.24852 0.66386 0.65473 0.0
H983 H 0.30088 0.63977 0.76065 0.0
H984 H 0.27767 0.62944 0.72811 0.0
H985 H 0.26199 0.68772 0.67826 0.0
H986 H 0.23079 0.64447 0.57134 0.0
H987 H 0.25326 0.65347 0.60501 0.0
H988 H 0.25299 0.6067 0.6587 0.0
C989 C 0.28642 0.64546 0.72768 0.0
C990 C 0.26076 0.66994 0.67416 0.0
C991 C 0.29957 0.65147 0.74659 0.0
C992 C 0.22554 0.63773 0.58756 0.0
C993 C 0.23841 0.64298 0.60685 0.0
C994 C 0.255 0.62442 0.66287 0.0
C995 C 0.28448 0.65997 0.70876 0.0
C996 C 0.27083 0.65336 0.68814 0.0
C997 C 0.23214 0.63486 0.62832 0.0
C998 C 0.24543 0.64109 0.64889 0.0
H999 H 0.31714 0.70324 0.72881 0.0
H1000 H 0.29558 0.69244 0.69554 0.0
H1001 H 0.27547 0.61703 0.69181 0.0
H1002 H 0.18434 0.60662 0.61291 0.0
H1003 H 0.2075 0.61489 0.64641 0.0
C1004 C 0.35647 0.75598 0.85267 0.0
C1005 C 0.34531 0.73498 0.85251 0.0
C1006 C 0.35597 0.77001 0.87188 0.0
C1007 C 0.34502 0.76899 0.93432 0.0
H1008 H 0.34427 0.83415 0.9275 0.0
C1009 C 0.33172 0.85509 0.9927 0.0
C1010 C 0.34373 0.84888 1.01237 0.0
C1011 C 0.33241 0.84163 0.97311 0.0
C1012 C 0.34432 0.81599 0.92983 0.0
H1013 H 0.3245 0.7126 0.8727 0.0
H1014 H 0.32325 0.73718 0.90594 0.0
H1015 H 0.34307 0.81013 0.89401 0.0
H1016 H 0.36632 0.82364 0.02643 0.0
H1017 H 0.36794 0.80046 0.99218 0.0
H1018 H 0.34566 0.77489 0.97019 0.0
C1019 C 0.33277 0.74269 0.8913 0.0
C1020 C 0.34391 0.80213 0.91049 0.0
C1021 C 0.3333 0.72862 0.87208 0.0
C1022 C 0.35693 0.82908 1.01164 0.0
C1023 C 0.35763 0.81559 0.99201 0.0
C1024 C 0.3454 0.78286 0.95367 0.0
C1025 C 0.34425 0.76356 0.8916 0.0
C1026 C 0.34429 0.77838 0.91238 0.0
C1027 C 0.34516 0.8215 0.97249 0.0
C1028 C 0.34508 0.80661 0.95176 0.0
H1029 H 0.36603 0.7615 0.83806 0.0
H1030 H 0.36531 0.78571 0.8714 0.0
H1031 H 0.34561 0.75084 0.93662 0.0
H1032 H 0.32122 0.8701 0.99258 0.0
H1033 H 0.32233 0.84671 0.95866 0.0
C1034 C 0.12991 0.84332 0.23241 0.0
C1035 C 0.13383 0.84753 0.25557 0.0
C1036 C 0.14653 0.84827 0.21618 0.0
C1037 C 0.20743 0.85137 0.20917 0.0
H1038 H 0.19581 0.88883 0.15662 0.0
C1039 C 0.27941 0.87302 0.14607 0.0
C1040 C 0.27384 0.87615 0.12312 0.0
C1041 C 0.26241 0.87097 0.16253 0.0
C1042 C 0.1994 0.87795 0.17091 0.0
H1043 H 0.15844 0.86026 0.27971 0.0
H1044 H 0.18745 0.86825 0.25152 0.0
H1045 H 0.16569 0.88187 0.18381 0.0
H1046 H 0.24592 0.87925 0.09951 0.0
H1047 H 0.21658 0.87459 0.12764 0.0
H1048 H 0.24067 0.84641 0.19606 0.0
C1049 C 0.17142 0.86142 0.24591 0.0
C1050 C 0.18205 0.87412 0.1866 0.0
C1051 C 0.15468 0.85699 0.26204 0.0
C1052 C 0.25089 0.8772 0.11707 0.0
C1053 C 0.23394 0.87464 0.13338 0.0
C1054 C 0.22464 0.85474 0.19323 0.0
C1055 C 0.16762 0.85698 0.22284 0.0
C1056 C 0.1859 0.86086 0.20594 0.0
C1057 C 0.23933 0.87144 0.15644 0.0
C1058 C 0.22098 0.86815 0.1738 0.0
H1059 H 0.11412 0.83593 0.22686 0.0
H1060 H 0.14317 0.84461 0.1985 0.0
H1061 H 0.21082 0.8409 0.22385 0.0
H1062 H 0.29692 0.87224 0.15133 0.0
H1063 H 0.26749 0.86906 0.18005 0.0
C1064 C 0.19876 0.80955 0.78119 0.0
C1065 C 0.18185 0.8182 0.76679 0.0
C1066 C 0.19348 0.79405 0.79838 0.0
C1067 C 0.15203 0.75088 0.81571 0.0
H1068 H 0.1757 0.76094 0.8762 0.0
C1069 C 0.14815 0.68463 0.89012 0.0
C1070 C 0.14146 0.69327 0.91134 0.0
C1071 C 0.152 0.69923 0.87166 0.0
C1072 C 0.16893 0.75786 0.85941 0.0
H1073 H 0.14606 0.81703 0.75922 0.0
H1074 H 0.13694 0.78956 0.78894 0.0
H1075 H 0.18459 0.78761 0.84588 0.0
H1076 H 0.13326 0.72415 0.92947 0.0
H1077 H 0.14036 0.74935 0.89767 0.0
H1078 H 0.13659 0.7209 0.82931 0.0
C1079 C 0.15429 0.79492 0.78695 0.0
C1080 C 0.17415 0.7731 0.84198 0.0
C1081 C 0.15951 0.81079 0.77 0.0
C1082 C 0.13833 0.71678 0.91345 0.0
C1083 C 0.14257 0.73133 0.89522 0.0
C1084 C 0.14715 0.73536 0.8331 0.0
C1085 C 0.1712 0.78642 0.80145 0.0
C1086 C 0.16568 0.76992 0.81991 0.0
C1087 C 0.1497 0.72283 0.87414 0.0
C1088 C 0.15538 0.73877 0.85524 0.0
H1089 H 0.21613 0.81493 0.77933 0.0
H1090 H 0.20694 0.78781 0.80914 0.0
H1091 H 0.14535 0.74782 0.79889 0.0
H1092 H 0.15067 0.66663 0.88784 0.0
H1093 H 0.15747 0.69211 0.85566 0.0
C1094 C 0.18288 0.62266 0.03591 0.0
C1095 C 0.16483 0.63809 0.03435 0.0
C1096 C 0.19569 0.62083 0.05584 0.0
C1097 C 0.20993 0.6526 0.10875 0.0
H1098 H 0.23538 0.59514 0.1275 0.0
C1099 C 0.2543 0.64 0.19579 0.0
C1100 C 0.27378 0.62638 0.19656 0.0
C1101 C 0.24145 0.64174 0.17587 0.0
C1102 C 0.22864 0.61139 0.12239 0.0
H1103 H 0.14577 0.66327 0.05303 0.0
H1104 H 0.16763 0.65965 0.08796 0.0
H1105 H 0.21137 0.59692 0.09394 0.0
H1106 H 0.2949 0.60374 0.17695 0.0
H1107 H 0.27251 0.6068 0.14213 0.0
H1108 H 0.22702 0.66697 0.13741 0.0
C1109 C 0.17228 0.64927 0.07357 0.0
C1110 C 0.21481 0.61243 0.10306 0.0
C1111 C 0.15953 0.65118 0.05356 0.0
C1112 C 0.2801 0.61453 0.17688 0.0
C1113 C 0.26714 0.61615 0.15697 0.0
C1114 C 0.22364 0.65152 0.12815 0.0
C1115 C 0.19079 0.63429 0.07494 0.0
C1116 C 0.20523 0.63306 0.09589 0.0
C1117 C 0.24754 0.62968 0.15621 0.0
C1118 C 0.23322 0.63091 0.13525 0.0
H1119 H 0.18765 0.61242 0.02145 0.0
H1120 H 0.20992 0.60932 0.05597 0.0
H1121 H 0.20333 0.6689 0.10364 0.0
H1122 H 0.24883 0.64923 0.21068 0.0
H1123 H 0.22636 0.65211 0.17608 0.0
C1124 C 0.34903 0.6508 0.29462 0.0
C1125 C 0.34972 0.65996 0.27263 0.0
C1126 C 0.35353 0.66424 0.31374 0.0
C1127 C 0.35636 0.72438 0.3329 0.0
H1128 H 0.38952 0.69955 0.38388 0.0
C1129 C 0.38596 0.78193 0.40623 0.0
C1130 C 0.38431 0.77393 0.42865 0.0
C1131 C 0.38294 0.76744 0.38768 0.0
C1132 C 0.38001 0.70674 0.36994 0.0
H1133 H 0.35636 0.69054 0.25361 0.0
H1134 H 0.3645 0.71391 0.28682 0.0
H1135 H 0.38168 0.67587 0.35086 0.0
H1136 H 0.3788 0.74393 0.44889 0.0
H1137 H 0.37354 0.71851 0.41646 0.0
H1138 H 0.35451 0.75516 0.35194 0.0
C1139 C 0.36002 0.69637 0.2894 0.0
C1140 C 0.37549 0.6931 0.35091 0.0
C1141 C 0.35549 0.6829 0.27026 0.0
C1142 C 0.38051 0.75068 0.43192 0.0
C1143 C 0.37739 0.7361 0.41324 0.0
C1144 C 0.36082 0.73796 0.35191 0.0
C1145 C 0.35904 0.68729 0.31148 0.0
C1146 C 0.36369 0.70174 0.332 0.0
C1147 C 0.378 0.74438 0.3908 0.0
C1148 C 0.37289 0.72946 0.37071 0.0
H1149 H 0.34491 0.63317 0.29711 0.0
H1150 H 0.35233 0.65659 0.33036 0.0
H1151 H 0.34687 0.73161 0.31898 0.0
H1152 H 0.38897 0.79968 0.40294 0.0
H1153 H 0.38419 0.77447 0.37079 0.0
C1154 C 0.33347 0.87207 0.53356 0.0
C1155 C 0.35064 0.85588 0.53666 0.0
C1156 C 0.3204 0.87969 0.55184 0.0
C1157 C 0.30441 0.86432 0.61163 0.0
H1158 H 0.27401 0.92242 0.60904 0.0
C1159 C 0.24682 0.90144 0.68371 0.0
C1160 C 0.22416 0.89924 0.67694 0.0
C1161 C 0.26437 0.89978 0.66771 0.0
C1162 C 0.28254 0.90624 0.61006 0.0
H1163 H 0.36794 0.83568 0.56193 0.0
H1164 H 0.346 0.84976 0.594 0.0
H1165 H 0.30157 0.91243 0.57995 0.0
H1166 H 0.20226 0.89761 0.64739 0.0
H1167 H 0.23275 0.89485 0.61978 0.0
H1168 H 0.28528 0.85858 0.64201 0.0
C1169 C 0.34202 0.85609 0.57726 0.0
C1170 C 0.2982 0.90028 0.59321 0.0
C1171 C 0.35489 0.84816 0.55883 0.0
C1172 C 0.2195 0.89828 0.65349 0.0
C1173 C 0.23696 0.89686 0.63755 0.0
C1174 C 0.28907 0.87052 0.62869 0.0
C1175 C 0.32422 0.87172 0.57405 0.0
C1176 C 0.30909 0.87899 0.59336 0.0
C1177 C 0.25957 0.89656 0.64459 0.0
C1178 C 0.27775 0.89137 0.62792 0.0
H1179 H 0.32941 0.87826 0.51677 0.0
H1180 H 0.3067 0.89127 0.54823 0.0
H1181 H 0.31189 0.84764 0.61244 0.0
H1182 H 0.25099 0.90365 0.70142 0.0
H1183 H 0.28172 0.90067 0.67336 0.0
C1184 C 0.69106 0.2898 0.16553 0.0
C1185 C 0.68183 0.30953 0.15613 0.0
C1186 C 0.71017 0.27986 0.15598 0.0
C1187 C 0.73745 0.27593 0.10043 0.0
H1188 H 0.76703 0.22762 0.13334 0.0
C1189 C 0.73162 0.19638 0.05967 0.0
C1190 C 0.71583 0.18569 0.07378 0.0
C1191 C 0.74749 0.21121 0.06894 0.0
C1192 C 0.7596 0.24139 0.12378 0.0
H1193 H 0.68587 0.33479 0.12982 0.0
H1194 H 0.71943 0.31783 0.1135 0.0
H1195 H 0.75396 0.26103 0.1537 0.0
H1196 H 0.70706 0.1784 0.10867 0.0
H1197 H 0.73404 0.20442 0.12476 0.0
H1198 H 0.74164 0.25598 0.07088 0.0
C1199 C 0.71171 0.30963 0.12792 0.0
C1200 C 0.75174 0.26038 0.13549 0.0
C1201 C 0.69235 0.31934 0.13724 0.0
C1202 C 0.71841 0.18722 0.09735 0.0
C1203 C 0.73432 0.20188 0.1066 0.0
C1204 C 0.74562 0.25718 0.08876 0.0
C1205 C 0.72066 0.28947 0.13685 0.0
C1206 C 0.73809 0.27637 0.12425 0.0
C1207 C 0.7475 0.21566 0.09237 0.0
C1208 C 0.75387 0.23842 0.10084 0.0
H1209 H 0.68357 0.28199 0.1803 0.0
H1210 H 0.71609 0.26413 0.16319 0.0
H1211 H 0.72785 0.28823 0.09086 0.0
H1212 H 0.73051 0.19485 0.04141 0.0
H1213 H 0.75786 0.22111 0.05759 0.0
C1214 C 0.69174 0.23132 0.46469 0.0
C1215 C 0.68413 0.21263 0.45209 0.0
C1216 C 0.7005 0.25033 0.45368 0.0
C1217 C 0.71208 0.27288 0.39509 0.0
H1218 H 0.77243 0.27899 0.41945 0.0
C1219 C 0.79662 0.23528 0.36927 0.0
C1220 C 0.7939 0.23633 0.3457 0.0
C1221 C 0.78517 0.25033 0.38329 0.0
C1222 C 0.75559 0.27775 0.41235 0.0
H1223 H 0.67762 0.20009 0.41815 0.0
H1224 H 0.69336 0.23238 0.39909 0.0
H1225 H 0.74158 0.26994 0.44463 0.0
H1226 H 0.77976 0.256 0.3181 0.0
H1227 H 0.75952 0.28232 0.34261 0.0
H1228 H 0.72654 0.27704 0.36244 0.0
C1229 C 0.69253 0.23286 0.41741 0.0
C1230 C 0.73771 0.27282 0.42693 0.0
C1231 C 0.68389 0.21396 0.42838 0.0
C1232 C 0.78153 0.25431 0.3363 0.0
C1233 C 0.77003 0.2695 0.35038 0.0
C1234 C 0.73008 0.27698 0.38044 0.0
C1235 C 0.70172 0.251 0.42986 0.0
C1236 C 0.71632 0.26764 0.41795 0.0
C1237 C 0.77056 0.26682 0.3741 0.0
C1238 C 0.75239 0.27645 0.38873 0.0
H1239 H 0.69165 0.23097 0.48305 0.0
H1240 H 0.70716 0.26407 0.46381 0.0
H1241 H 0.69542 0.27048 0.38788 0.0
H1242 H 0.80671 0.22208 0.37704 0.0
H1243 H 0.78631 0.24746 0.40137 0.0
C1244 C 0.8188 0.3081 0.62357 0.0
C1245 C 0.81617 0.33068 0.63022 0.0
C1246 C 0.80811 0.29099 0.63556 0.0
C1247 C 0.78835 0.27464 0.68996 0.0
H1248 H 0.7607 0.22646 0.65495 0.0
C1249 C 0.78797 0.18662 0.72579 0.0
C1250 C 0.7994 0.17213 0.71077 0.0
C1251 C 0.77811 0.20653 0.71787 0.0
C1252 C 0.768 0.23987 0.6651 0.0
H1253 H 0.80097 0.35319 0.65502 0.0
H1254 H 0.7824 0.32288 0.67627 0.0
H1255 H 0.76883 0.26253 0.63705 0.0
H1256 H 0.80736 0.16564 0.67552 0.0
H1257 H 0.79095 0.20055 0.66175 0.0
H1258 H 0.79043 0.25116 0.71725 0.0
C1259 C 0.79253 0.31864 0.66159 0.0
C1260 C 0.77245 0.26054 0.65487 0.0
C1261 C 0.80326 0.33585 0.64955 0.0
C1262 C 0.79901 0.17673 0.6875 0.0
C1263 C 0.78926 0.19664 0.6796 0.0
C1264 C 0.78435 0.25376 0.70012 0.0
C1265 C 0.79454 0.29615 0.65435 0.0
C1266 C 0.78382 0.27756 0.66684 0.0
C1267 C 0.77962 0.21224 0.69484 0.0
C1268 C 0.77559 0.23571 0.68726 0.0
H1269 H 0.82884 0.30365 0.60889 0.0
H1270 H 0.81045 0.27365 0.63009 0.0
H1271 H 0.79712 0.28759 0.69952 0.0
H1272 H 0.78757 0.18319 0.74383 0.0
H1273 H 0.77049 0.21805 0.72994 0.0
C1274 C 0.77975 0.2898 0.93855 0.0
C1275 C 0.78655 0.29214 0.9612 0.0
C1276 C 0.76038 0.27755 0.93319 0.0
C1277 C 0.70623 0.27293 0.95555 0.0
H1278 H 0.69683 0.24474 0.89704 0.0
C1279 C 0.64189 0.3103 0.89749 0.0
C1280 C 0.65397 0.31851 0.8787 0.0
C1281 C 0.6505 0.29252 0.91049 0.0
C1282 C 0.69902 0.25215 0.91369 0.0
H1283 H 0.77914 0.28249 0.99593 0.0
H1284 H 0.74454 0.2621 0.98654 0.0
H1285 H 0.73247 0.23874 0.91718 0.0
H1286 H 0.68419 0.31442 0.85866 0.0
H1287 H 0.69962 0.2841 0.88147 0.0
H1288 H 0.6745 0.28915 0.95058 0.0
C1289 C 0.75453 0.26928 0.97298 0.0
C1290 C 0.71931 0.24863 0.92524 0.0
C1291 C 0.77414 0.28122 0.97831 0.0
C1292 C 0.67445 0.30829 0.87284 0.0
C1293 C 0.68306 0.29061 0.88576 0.0
C1294 C 0.68621 0.27682 0.94376 0.0
C1295 C 0.74723 0.26775 0.95042 0.0
C1296 C 0.72387 0.26098 0.94506 0.0
C1297 C 0.67142 0.28279 0.905 0.0
C1298 C 0.68379 0.26862 0.92154 0.0
H1299 H 0.78921 0.29766 0.92499 0.0
H1300 H 0.75489 0.27704 0.91566 0.0
H1301 H 0.70915 0.28231 0.97106 0.0
H1302 H 0.62588 0.31774 0.90233 0.0
H1303 H 0.64126 0.28698 0.92531 0.0
C1304 C 0.22636 0.80314 0.67197 0.0
C1305 C 0.22205 0.82421 0.66208 0.0
C1306 C 0.2424 0.78868 0.66251 0.0
C1307 C 0.25985 0.77791 0.60493 0.0
H1308 H 0.27129 0.72062 0.63453 0.0
C1309 C 0.22423 0.69959 0.56591 0.0
C1310 C 0.20781 0.69193 0.58127 0.0
C1311 C 0.24236 0.7127 0.57348 0.0
C1312 C 0.26887 0.73655 0.62577 0.0
H1313 H 0.23347 0.84826 0.6369 0.0
H1314 H 0.26197 0.82331 0.62072 0.0
H1315 H 0.27685 0.75573 0.65545 0.0
H1316 H 0.1984 0.69045 0.61675 0.0
H1317 H 0.22921 0.71405 0.62975 0.0
H1318 H 0.25008 0.75881 0.57593 0.0
C1319 C 0.25233 0.81745 0.63514 0.0
C1320 C 0.27189 0.75668 0.63779 0.0
C1321 C 0.23591 0.83172 0.64432 0.0
C1322 C 0.21057 0.69639 0.60445 0.0
C1323 C 0.22858 0.70951 0.61197 0.0
C1324 C 0.25715 0.75785 0.59285 0.0
C1325 C 0.25468 0.79515 0.6431 0.0
C1326 C 0.26456 0.77727 0.62833 0.0
C1327 C 0.24436 0.71828 0.59654 0.0
C1328 C 0.25906 0.73704 0.60407 0.0
H1329 H 0.21628 0.79715 0.68603 0.0
H1330 H 0.24351 0.77172 0.66927 0.0
H1331 H 0.2547 0.7934 0.59665 0.0
H1332 H 0.22274 0.69606 0.54794 0.0
H1333 H 0.25417 0.71939 0.56121 0.0
C1334 C 0.31793 0.60021 0.85323 0.0
C1335 C 0.31854 0.62064 0.8654 0.0
C1336 C 0.30555 0.5819 0.8613 0.0
C1337 C 0.26112 0.55902 0.86931 0.0
H1338 H 0.2411 0.55692 0.93162 0.0
C1339 C 0.17375 0.57814 0.89255 0.0
C1340 C 0.16723 0.57654 0.91526 0.0
C1341 C 0.19338 0.56729 0.88525 0.0
C1342 C 0.24651 0.55641 0.91412 0.0
H1343 H 0.30858 0.63738 0.89645 0.0
H1344 H 0.28595 0.60603 0.91008 0.0
H1345 H 0.27892 0.56929 0.9233 0.0
H1346 H 0.17311 0.55931 0.94708 0.0
H1347 H 0.20663 0.53923 0.93403 0.0
H1348 H 0.22854 0.54657 0.86009 0.0
C1349 C 0.29539 0.60371 0.89455 0.0
C1350 C 0.26826 0.56394 0.90935 0.0
C1351 C 0.30814 0.62189 0.88665 0.0
C1352 C 0.17827 0.56113 0.92956 0.0
C1353 C 0.19752 0.54976 0.92209 0.0
C1354 C 0.23952 0.55098 0.87411 0.0
C1355 C 0.29317 0.58382 0.88149 0.0
C1356 C 0.27496 0.56742 0.88682 0.0
C1357 C 0.20652 0.55445 0.90056 0.0
C1358 C 0.23119 0.55185 0.89638 0.0
H1359 H 0.3264 0.59862 0.83704 0.0
H1360 H 0.30473 0.56668 0.85111 0.0
H1361 H 0.26578 0.56095 0.85168 0.0
H1362 H 0.16533 0.58985 0.8812 0.0
H1363 H 0.19947 0.57132 0.86845 0.0
C1364 C 0.35624 0.68853 0.14738 0.0
C1365 C 0.3434 0.67898 0.16476 0.0
C1366 C 0.37386 0.70327 0.15252 0.0
C1367 C 0.38745 0.74308 0.19908 0.0
H1368 H 0.41953 0.76784 0.14788 0.0
C1369 C 0.3951 0.82799 0.14248 0.0
C1370 C 0.37336 0.83505 0.14871 0.0
C1371 C 0.40594 0.81075 0.15449 0.0
C1372 C 0.41126 0.76145 0.16287 0.0
H1373 H 0.33883 0.67697 0.20081 0.0
H1374 H 0.3712 0.7003 0.21028 0.0
H1375 H 0.41387 0.72779 0.15022 0.0
H1376 H 0.34706 0.83192 0.1739 0.0
H1377 H 0.36464 0.80104 0.19365 0.0
H1378 H 0.38605 0.77654 0.21243 0.0
C1379 C 0.36751 0.69723 0.19258 0.0
C1380 C 0.40755 0.7382 0.16392 0.0
C1381 C 0.34937 0.68314 0.18731 0.0
C1382 C 0.36365 0.82642 0.16847 0.0
C1383 C 0.37409 0.80872 0.18004 0.0
C1384 C 0.39218 0.76617 0.19861 0.0
C1385 C 0.37922 0.70865 0.17527 0.0
C1386 C 0.39294 0.72926 0.18038 0.0
C1387 C 0.39476 0.79956 0.17231 0.0
C1388 C 0.40128 0.77601 0.17895 0.0
H1389 H 0.35186 0.68559 0.12977 0.0
H1390 H 0.3819 0.71169 0.13843 0.0
H1391 H 0.37717 0.73701 0.21291 0.0
H1392 H 0.4033 0.83507 0.12771 0.0
H1393 H 0.42235 0.80519 0.14867 0.0
C1394 C 0.30574 0.82907 0.401 0.0
C1395 C 0.31317 0.84561 0.41629 0.0
C1396 C 0.28275 0.82435 0.39915 0.0
C1397 C 0.23258 0.82156 0.39294 0.0
H1398 H 0.19734 0.82837 0.44805 0.0
C1399 C 0.13744 0.83771 0.40647 0.0
C1400 C 0.13032 0.82218 0.39008 0.0
C1401 C 0.15842 0.83482 0.41685 0.0
C1402 C 0.20709 0.82622 0.43267 0.0
H1403 H 0.30268 0.87207 0.43949 0.0
H1404 H 0.26261 0.86462 0.43544 0.0
H1405 H 0.23772 0.83689 0.44852 0.0
H1406 H 0.13691 0.79001 0.37392 0.0
H1407 H 0.17333 0.78453 0.39255 0.0
H1408 H 0.20208 0.81112 0.37724 0.0
C1409 C 0.2744 0.8544 0.42584 0.0
C1410 C 0.23009 0.83139 0.43277 0.0
C1411 C 0.29731 0.85892 0.42787 0.0
C1412 C 0.14244 0.80218 0.3865 0.0
C1413 C 0.16316 0.79908 0.39715 0.0
C1414 C 0.20984 0.81608 0.39301 0.0
C1415 C 0.26695 0.83632 0.41237 0.0
C1416 C 0.24293 0.82959 0.41273 0.0
C1417 C 0.17215 0.81639 0.41075 0.0
C1418 C 0.19681 0.81858 0.4127 0.0
H1419 H 0.31768 0.81848 0.392 0.0
H1420 H 0.27763 0.81031 0.38856 0.0
H1421 H 0.24173 0.82033 0.37711 0.0
H1422 H 0.1281 0.85323 0.40931 0.0
H1423 H 0.16497 0.84837 0.42732 0.0
C1424 C 0.78997 0.05935 0.85173 0.0
C1425 C 0.78299 0.06287 0.82921 0.0
C1426 C 0.77481 0.05126 0.86793 0.0
C1427 C 0.71467 0.05482 0.87926 0.0
H1428 H 0.72957 0.0189 0.93217 0.0
C1429 C 0.65656 0.05847 0.95566 0.0
C1430 C 0.66798 0.06317 0.97602 0.0
C1431 C 0.66822 0.04955 0.93707 0.0
C1432 C 0.72511 0.02896 0.9175 0.0
H1433 H 0.75514 0.05872 0.80563 0.0
H1434 H 0.72872 0.04455 0.83392 0.0
H1435 H 0.75548 0.01975 0.89995 0.0
H1436 H 0.69997 0.05947 0.99367 0.0
H1437 H 0.72031 0.04472 0.9613 0.0
H1438 H 0.68517 0.06527 0.89706 0.0
C1439 C 0.74585 0.04837 0.83909 0.0
C1440 C 0.73994 0.02939 0.89903 0.0
C1441 C 0.76104 0.05638 0.82286 0.0
C1442 C 0.69063 0.05628 0.9782 0.0
C1443 C 0.70236 0.04769 0.95953 0.0
C1444 C 0.69998 0.05454 0.89773 0.0
C1445 C 0.75231 0.04655 0.86197 0.0
C1446 C 0.73514 0.0428 0.87995 0.0
C1447 C 0.69159 0.04539 0.93837 0.0
C1448 C 0.70526 0.04211 0.91738 0.0
H1449 H 0.80679 0.06407 0.85717 0.0
H1450 H 0.78031 0.05019 0.88541 0.0
H1451 H 0.71061 0.06563 0.86502 0.0
H1452 H 0.63901 0.06321 0.95352 0.0
H1453 H 0.65919 0.04728 0.92125 0.0
C1454 C 0.92462 0.25739 0.05105 0.0
C1455 C 0.92401 0.28037 0.0451 0.0
C1456 C 0.9315 0.2508 0.07271 0.0
C1457 C 0.92837 0.2733 0.12962 0.0
H1458 H 0.95559 0.2159 0.14587 0.0
C1459 C 0.91249 0.23705 0.21736 0.0
C1460 C 0.90481 0.2146 0.21678 0.0
C1461 C 0.92405 0.24615 0.19886 0.0
C1462 C 0.948 0.23202 0.14164 0.0
H1463 H 0.93212 0.3143 0.05649 0.0
H1464 H 0.94409 0.30276 0.09435 0.0
H1465 H 0.95954 0.23025 0.10724 0.0
H1466 H 0.90504 0.18349 0.19727 0.0
H1467 H 0.92445 0.19943 0.16488 0.0
H1468 H 0.91546 0.27452 0.16327 0.0
C1469 C 0.93898 0.28988 0.08233 0.0
C1470 C 0.95033 0.24025 0.11954 0.0
C1471 C 0.93218 0.29647 0.06061 0.0
C1472 C 0.9106 0.2009 0.1982 0.0
C1473 C 0.92193 0.21005 0.17963 0.0
C1474 C 0.9259 0.26502 0.1516 0.0
C1475 C 0.93786 0.26707 0.08888 0.0
C1476 C 0.93983 0.26059 0.11311 0.0
C1477 C 0.92794 0.23305 0.17932 0.0
C1478 C 0.93495 0.24387 0.15767 0.0
H1479 H 0.91861 0.24455 0.03942 0.0
H1480 H 0.93029 0.23311 0.07726 0.0
H1481 H 0.91982 0.28888 0.12517 0.0
H1482 H 0.90859 0.24794 0.2316 0.0
H1483 H 0.92893 0.26377 0.19944 0.0
C1484 C 0.75541 0.39814 0.46435 0.0
C1485 C 0.77659 0.40737 0.46957 0.0
C1486 C 0.75053 0.39105 0.4423 0.0
C1487 C 0.77116 0.39377 0.38273 0.0
H1488 H 0.7344 0.33995 0.37662 0.0
C1489 C 0.73342 0.32827 0.30993 0.0
C1490 C 0.7281 0.34447 0.29337 0.0
C1491 C 0.74255 0.33497 0.33076 0.0
C1492 C 0.74506 0.35474 0.37796 0.0
H1493 H 0.80905 0.41708 0.4557 0.0
H1494 H 0.8009 0.40408 0.41757 0.0
H1495 H 0.74333 0.35427 0.4141 0.0
H1496 H 0.72906 0.38023 0.28523 0.0
H1497 H 0.74403 0.39191 0.32147 0.0
H1498 H 0.77382 0.39364 0.34667 0.0
C1499 C 0.78775 0.40279 0.43022 0.0
C1500 C 0.74978 0.36327 0.39951 0.0
C1501 C 0.79245 0.41029 0.45215 0.0
C1502 C 0.73301 0.36729 0.2976 0.0
C1503 C 0.7418 0.374 0.31845 0.0
C1504 C 0.76679 0.38501 0.3612 0.0
C1505 C 0.7669 0.39264 0.42511 0.0
C1506 C 0.76251 0.38316 0.40216 0.0
C1507 C 0.74629 0.35801 0.33549 0.0
C1508 C 0.75325 0.36568 0.35849 0.0
H1509 H 0.74285 0.39577 0.47747 0.0
H1510 H 0.73405 0.38391 0.43887 0.0
H1511 H 0.78094 0.40916 0.38403 0.0
H1512 H 0.72995 0.31052 0.30708 0.0
H1513 H 0.74621 0.32215 0.34333 0.0
C1514 C 0.59512 0.26195 0.71814 0.0
C1515 C 0.58872 0.28482 0.71909 0.0
C1516 C 0.58839 0.24835 0.69996 0.0
C1517 C 0.57347 0.25158 0.64026 0.0
H1518 H 0.55267 0.19003 0.64865 0.0
C1519 C 0.56425 0.19391 0.56331 0.0
C1520 C 0.57483 0.17277 0.56593 0.0
C1521 C 0.55876 0.20699 0.5823 0.0
C1522 C 0.55851 0.20716 0.64598 0.0
H1523 H 0.5701 0.31132 0.70179 0.0
H1524 H 0.55871 0.28761 0.66982 0.0
H1525 H 0.55833 0.21442 0.68161 0.0
H1526 H 0.58548 0.14771 0.59059 0.0
H1527 H 0.5765 0.17054 0.62344 0.0
H1528 H 0.57498 0.24417 0.6049 0.0
C1529 C 0.56883 0.28022 0.68323 0.0
C1530 C 0.56171 0.22111 0.66487 0.0
C1531 C 0.57532 0.29376 0.70155 0.0
C1532 C 0.57752 0.16399 0.5879 0.0
C1533 C 0.57226 0.17714 0.60686 0.0
C1534 C 0.57053 0.23758 0.62141 0.0
C1535 C 0.57534 0.2574 0.68223 0.0
C1536 C 0.56965 0.24331 0.66221 0.0
C1537 C 0.56389 0.19927 0.60428 0.0
C1538 C 0.56346 0.21501 0.62403 0.0
H1539 H 0.60537 0.25453 0.73142 0.0
H1540 H 0.59389 0.23088 0.69949 0.0
H1541 H 0.57982 0.26855 0.63771 0.0
H1542 H 0.56163 0.20105 0.54661 0.0
H1543 H 0.55167 0.22367 0.57968 0.0
C1544 C 0.16551 0.56536 0.45216 0.0
C1545 C 0.17817 0.57138 0.47141 0.0
C1546 C 0.17624 0.55676 0.43287 0.0
C1547 C 0.23236 0.53889 0.40924 0.0
H1548 H 0.21253 0.57462 0.35787 0.0
C1549 C 0.29163 0.57203 0.3399 0.0
C1550 C 0.28296 0.57656 0.31817 0.0
C1551 C 0.2778 0.56284 0.3567 0.0
C1552 C 0.21809 0.564 0.37176 0.0
H1553 H 0.21165 0.57062 0.48639 0.0
H1554 H 0.23033 0.55622 0.45278 0.0
H1555 H 0.18936 0.57303 0.39151 0.0
H1556 H 0.25365 0.5728 0.29639 0.0
H1557 H 0.22965 0.55647 0.32561 0.0
H1558 H 0.26182 0.53097 0.38965 0.0
C1559 C 0.21213 0.55796 0.45246 0.0
C1560 C 0.2047 0.56306 0.39117 0.0
C1561 C 0.20139 0.56637 0.47179 0.0
C1562 C 0.26078 0.56983 0.31305 0.0
C1563 C 0.24698 0.56055 0.32983 0.0
C1564 C 0.24583 0.53989 0.38977 0.0
C1565 C 0.19986 0.55416 0.43238 0.0
C1566 C 0.21198 0.55111 0.41046 0.0
C1567 C 0.25502 0.55787 0.35212 0.0
C1568 C 0.23917 0.55307 0.37107 0.0
H1569 H 0.14754 0.56868 0.45142 0.0
H1570 H 0.16617 0.55343 0.4179 0.0
H1571 H 0.23832 0.52922 0.42364 0.0
H1572 H 0.30867 0.5769 0.3444 0.0
H1573 H 0.28456 0.56114 0.37368 0.0
C1574 C 0.36949 0.67995 0.72459 0.0
C1575 C 0.38888 0.68275 0.73795 0.0
C1576 C 0.36826 0.68935 0.70281 0.0
C1577 C 0.40523 0.711 0.65656 0.0
H1578 H 0.34972 0.7371 0.63342 0.0
C1579 C 0.40356 0.76454 0.57497 0.0
C1580 C 0.3851 0.76245 0.56009 0.0
C1581 C 0.40344 0.75399 0.59617 0.0
C1582 C 0.36529 0.7296 0.63948 0.0
H1583 H 0.42253 0.69675 0.73896 0.0
H1584 H 0.42038 0.71374 0.70126 0.0
H1585 H 0.35042 0.72055 0.67127 0.0
H1586 H 0.35202 0.74737 0.55593 0.0
H1587 H 0.35193 0.72864 0.59293 0.0
H1588 H 0.42009 0.71997 0.62481 0.0
C1589 C 0.40605 0.7042 0.70735 0.0
C1590 C 0.36571 0.7201 0.66126 0.0
C1591 C 0.40721 0.69477 0.72909 0.0
C1592 C 0.36656 0.74928 0.56691 0.0
C1593 C 0.36643 0.7387 0.58822 0.0
C1594 C 0.40479 0.72041 0.63482 0.0
C1595 C 0.38663 0.70145 0.69377 0.0
C1596 C 0.38578 0.71092 0.67024 0.0
C1597 C 0.38488 0.74097 0.60317 0.0
C1598 C 0.38489 0.73004 0.62602 0.0
H1599 H 0.35566 0.66973 0.73063 0.0
H1600 H 0.3532 0.68646 0.69279 0.0
H1601 H 0.42086 0.70358 0.66255 0.0
H1602 H 0.41808 0.77465 0.57041 0.0
H1603 H 0.41779 0.75647 0.6073 0.0
C1604 C 0.20371 0.87763 0.81978 0.0
C1605 C 0.22057 0.88286 0.80389 0.0
C1606 C 0.2079 0.87987 0.84301 0.0
C1607 C 0.24141 0.91026 0.88447 0.0
H1608 H 0.23394 0.85786 0.92313 0.0
C1609 C 0.27698 0.90803 0.97534 0.0
C1610 C 0.26641 0.89461 0.99182 0.0
C1611 C 0.26946 0.90782 0.9529 0.0
C1612 C 0.23566 0.87285 0.91278 0.0
H1613 H 0.25486 0.89487 0.79977 0.0
H1614 H 0.26192 0.89949 0.84047 0.0
H1615 H 0.22432 0.85532 0.88302 0.0
H1616 H 0.23904 0.87118 0.99791 0.0
H1617 H 0.22513 0.87163 0.95896 0.0
H1618 H 0.25212 0.9281 0.91407 0.0
C1619 C 0.24558 0.89345 0.83487 0.0
C1620 C 0.23029 0.87129 0.88974 0.0
C1621 C 0.24157 0.89073 0.81165 0.0
C1622 C 0.24758 0.88164 0.98556 0.0
C1623 C 0.23977 0.88174 0.96314 0.0
C1624 C 0.24635 0.91199 0.90759 0.0
C1625 C 0.22885 0.88784 0.85074 0.0
C1626 C 0.23343 0.88988 0.87534 0.0
C1627 C 0.25089 0.89449 0.94637 0.0
C1628 C 0.24391 0.89319 0.92205 0.0
H1629 H 0.18743 0.87133 0.81429 0.0
H1630 H 0.19474 0.87547 0.85494 0.0
H1631 H 0.24371 0.92491 0.87371 0.0
H1632 H 0.29172 0.91802 0.97954 0.0
H1633 H 0.27883 0.91753 0.94055 0.0
C1634 C 0.12177 0.73359 0.04537 0.0
C1635 C 0.10747 0.71719 0.03585 0.0
C1636 C 0.11808 0.74151 0.06741 0.0
C1637 C 0.11652 0.7425 0.11871 0.0
H1638 H 0.05658 0.74893 0.14419 0.0
C1639 C 0.10296 0.75401 0.21493 0.0
C1640 C 0.08613 0.76933 0.22172 0.0
C1641 C 0.10479 0.74745 0.1922 0.0
C1642 C 0.07346 0.74743 0.13734 0.0
H1643 H 0.0775 0.69698 0.04168 0.0
H1644 H 0.07136 0.71037 0.08007 0.0
H1645 H 0.06083 0.7405 0.10409 0.0
H1646 H 0.05779 0.78952 0.21002 0.0
H1647 H 0.06127 0.77856 0.17052 0.0
H1648 H 0.12916 0.7502 0.15179 0.0
C1649 C 0.08524 0.71744 0.07052 0.0
C1650 C 0.0759 0.74232 0.11434 0.0
C1651 C 0.08882 0.70968 0.04845 0.0
C1652 C 0.07088 0.77757 0.20541 0.0
C1653 C 0.07282 0.77119 0.1827 0.0
C1654 C 0.11408 0.74781 0.14167 0.0
C1655 C 0.1001 0.7331 0.08048 0.0
C1656 C 0.09746 0.73968 0.10473 0.0
C1657 C 0.08993 0.75621 0.17573 0.0
C1658 C 0.09252 0.75026 0.15132 0.0
H1659 H 0.13624 0.7398 0.03608 0.0
H1660 H 0.12957 0.75395 0.07434 0.0
H1661 H 0.13339 0.74025 0.11203 0.0
H1662 H 0.11493 0.74731 0.22711 0.0
H1663 H 0.11791 0.73556 0.18754 0.0
C1664 C 0.64387 0.09324 0.33836 0.0
C1665 C 0.64065 0.10858 0.35627 0.0
C1666 C 0.64609 0.10087 0.31612 0.0
C1667 C 0.65667 0.12003 0.27015 0.0
H1668 H 0.61346 0.16612 0.25273 0.0
C1669 C 0.63585 0.13618 0.17593 0.0
C1670 C 0.61261 0.13743 0.17129 0.0
C1671 C 0.64376 0.13792 0.19827 0.0
C1672 C 0.62565 0.15323 0.25728 0.0
H1673 H 0.63853 0.14412 0.36501 0.0
H1674 H 0.64288 0.15759 0.32603 0.0
H1675 H 0.61993 0.15836 0.29269 0.0
H1676 H 0.57961 0.14298 0.18609 0.0
H1677 H 0.59321 0.1458 0.22483 0.0
H1678 H 0.66111 0.11368 0.23478 0.0
C1679 C 0.64326 0.13956 0.3292 0.0
C1680 C 0.62962 0.14898 0.28027 0.0
C1681 C 0.64098 0.13187 0.35156 0.0
C1682 C 0.5976 0.14169 0.1892 0.0
C1683 C 0.60548 0.1436 0.21142 0.0
C1684 C 0.65254 0.12411 0.24717 0.0
C1685 C 0.64532 0.12411 0.31112 0.0
C1686 C 0.64453 0.1317 0.28701 0.0
C1687 C 0.62862 0.14128 0.21636 0.0
C1688 C 0.6363 0.14015 0.24044 0.0
H1689 H 0.64406 0.07519 0.34147 0.0
H1690 H 0.64734 0.08839 0.30274 0.0
H1691 H 0.66871 0.10699 0.27469 0.0
H1692 H 0.64781 0.13284 0.16245 0.0
H1693 H 0.66167 0.13603 0.20139 0.0
C1694 C 0.85935 0.14423 0.43813 0.0
C1695 C 0.85219 0.12531 0.42572 0.0
C1696 C 0.8577 0.14435 0.46186 0.0
C1697 C 0.83432 0.1122 0.51141 0.0
H1698 H 0.89046 0.12978 0.54021 0.0
C1699 C 0.89071 0.08744 0.59478 0.0
C1700 C 0.8741 0.08659 0.61177 0.0
C1701 C 0.88568 0.09597 0.57329 0.0
C1702 C 0.87467 0.12474 0.53246 0.0
H1703 H 0.83644 0.09243 0.42792 0.0
H1704 H 0.83353 0.09251 0.46901 0.0
H1705 H 0.88424 0.13859 0.50043 0.0
H1706 H 0.83911 0.09428 0.61937 0.0
H1707 H 0.83038 0.10954 0.58185 0.0
H1708 H 0.82535 0.09716 0.54314 0.0
C1709 C 0.8402 0.10741 0.46076 0.0
C1710 C 0.87093 0.13013 0.50967 0.0
C1711 C 0.8419 0.1073 0.43717 0.0
C1712 C 0.85233 0.09476 0.60672 0.0
C1713 C 0.84728 0.10334 0.58515 0.0
C1714 C 0.8381 0.10673 0.5342 0.0
C1715 C 0.84885 0.12554 0.47352 0.0
C1716 C 0.85097 0.12337 0.49865 0.0
C1717 C 0.86391 0.10404 0.56813 0.0
C1718 C 0.85861 0.11235 0.54483 0.0
H1719 H 0.86753 0.15822 0.42963 0.0
H1720 H 0.86424 0.15874 0.47113 0.0
H1721 H 0.8186 0.10702 0.50359 0.0
H1722 H 0.90776 0.08169 0.59813 0.0
H1723 H 0.89884 0.09588 0.56057 0.0
C1724 C 0.89998 0.38984 0.68483 0.0
C1725 C 0.88285 0.39314 0.66865 0.0
C1726 C 0.89469 0.38381 0.70707 0.0
C1727 C 0.84882 0.38917 0.74846 0.0
H1728 H 0.88955 0.35349 0.78557 0.0
C1729 C 0.86775 0.36425 0.84901 0.0
C1730 C 0.86594 0.38611 0.85819 0.0
C1731 C 0.8651 0.36074 0.82563 0.0
C1732 C 0.8777 0.36317 0.77546 0.0
H1733 H 0.84674 0.39166 0.66291 0.0
H1734 H 0.83744 0.38085 0.70186 0.0
H1735 H 0.89424 0.35393 0.74455 0.0
H1736 H 0.85835 0.42109 0.85042 0.0
H1737 H 0.85391 0.41511 0.80989 0.0
H1738 H 0.8325 0.39869 0.77941 0.0
C1739 C 0.85499 0.38322 0.69734 0.0
C1740 C 0.88058 0.36364 0.75192 0.0
C1741 C 0.86032 0.38921 0.67498 0.0
C1742 C 0.86004 0.40408 0.84379 0.0
C1743 C 0.8573 0.40059 0.82054 0.0
C1744 C 0.84592 0.38868 0.772 0.0
C1745 C 0.87212 0.38087 0.71378 0.0
C1746 C 0.86665 0.37724 0.73819 0.0
C1747 C 0.86039 0.379 0.81103 0.0
C1748 C 0.8608 0.37627 0.78588 0.0
H1749 H 0.91753 0.39241 0.68041 0.0
H1750 H 0.90833 0.38242 0.71924 0.0
H1751 H 0.83781 0.3999 0.73847 0.0
H1752 H 0.87232 0.35009 0.85973 0.0
H1753 H 0.86734 0.34384 0.8189 0.0
C1754 C 0.58749 0.36685 0.09077 0.0
C1755 C 0.60437 0.37239 0.10655 0.0
C1756 C 0.59244 0.36542 0.06771 0.0
C1757 C 0.63145 0.38984 0.02655 0.0
H1758 H 0.59789 0.35187 0.98486 0.0
C1759 C 0.61167 0.37876 0.9238 0.0
C1760 C 0.60818 0.40168 0.91843 0.0
C1761 C 0.6161 0.37213 0.94617 0.0
C1762 C 0.60775 0.36239 0.99616 0.0
H1763 H 0.63996 0.37934 0.11086 0.0
H1764 H 0.64882 0.3767 0.07027 0.0
H1765 H 0.59738 0.34349 0.02525 0.0
H1766 H 0.60779 0.43566 0.93226 0.0
H1767 H 0.61482 0.42414 0.97116 0.0
H1768 H 0.6416 0.40891 0.99749 0.0
C1769 C 0.63165 0.37371 0.07578 0.0
C1770 C 0.60727 0.35771 0.01939 0.0
C1771 C 0.62667 0.37501 0.099 0.0
C1772 C 0.61002 0.41784 0.93583 0.0
C1773 C 0.6144 0.41123 0.95814 0.0
C1774 C 0.63199 0.39449 1.0033 0.0
C1775 C 0.61443 0.36954 0.0598 0.0
C1776 C 0.61849 0.37182 0.03496 0.0
C1777 C 0.61717 0.38827 0.96369 0.0
C1778 C 0.61954 0.38128 0.98788 0.0
H1779 H 0.57016 0.36468 0.09619 0.0
H1780 H 0.57868 0.36242 0.05599 0.0
H1781 H 0.64021 0.40115 0.03801 0.0
H1782 H 0.61026 0.36585 0.91086 0.0
H1783 H 0.61838 0.35432 0.94976 0.0
C1784 C 0.11532 0.60793 0.70469 0.0
C1785 C 0.11027 0.62491 0.68882 0.0
C1786 C 0.11615 0.61284 0.72783 0.0
C1787 C 0.09247 0.65326 0.76887 0.0
H1788 H 0.12942 0.61895 0.81087 0.0
C1789 C 0.06523 0.6354 0.86064 0.0
C1790 C 0.08164 0.63187 0.87754 0.0
C1791 C 0.07153 0.63965 0.83822 0.0
C1792 C 0.1192 0.62905 0.79949 0.0
H1793 H 0.10341 0.66067 0.68473 0.0
H1794 H 0.10534 0.66942 0.72522 0.0
H1795 H 0.1373 0.61707 0.77049 0.0
H1796 H 0.11777 0.63174 0.88404 0.0
H1797 H 0.12866 0.63994 0.84526 0.0
H1798 H 0.07436 0.66523 0.79789 0.0
C1799 C 0.10825 0.65218 0.71976 0.0
C1800 C 0.12355 0.62772 0.77623 0.0
C1801 C 0.10741 0.64723 0.69653 0.0
C1802 C 0.10455 0.63426 0.87164 0.0
C1803 C 0.11086 0.63872 0.84924 0.0
C1804 C 0.0882 0.65471 0.79216 0.0
C1805 C 0.11204 0.63491 0.73575 0.0
C1806 C 0.10981 0.63924 0.76056 0.0
C1807 C 0.09445 0.64077 0.83209 0.0
C1808 C 0.10106 0.64207 0.80773 0.0
H1809 H 0.11785 0.59061 0.69926 0.0
H1810 H 0.11889 0.59903 0.73956 0.0
H1811 H 0.08143 0.6623 0.75736 0.0
H1812 H 0.04741 0.63425 0.86457 0.0
H1813 H 0.05837 0.64101 0.82554 0.0
C1814 C 0.37536 0.63074 0.09187 0.0
C1815 C 0.37347 0.60755 0.09677 0.0
C1816 C 0.37327 0.63856 0.06946 0.0
C1817 C 0.35291 0.62219 1.01191 0.0
H1818 H 0.40124 0.66046 0.99007 0.0
C1819 C 0.38002 0.62358 0.91849 0.0
C1820 C 0.38942 0.64316 0.90899 0.0
C1821 C 0.37349 0.6231 0.94124 0.0
C1822 C 0.3873 0.65018 0.99587 0.0
H1823 H 0.36665 0.57462 0.08222 0.0
H1824 H 0.36281 0.58816 0.04341 0.0
H1825 H 0.39808 0.65258 0.03053 0.0
H1826 H 0.39843 0.67797 0.91549 0.0
H1827 H 0.38676 0.67734 0.95548 0.0
H1828 H 0.34238 0.61935 0.97728 0.0
C1829 C 0.36599 0.60037 0.05673 0.0
C1830 C 0.38552 0.64562 0.01914 0.0
C1831 C 0.36834 0.59256 0.07898 0.0
C1832 C 0.39108 0.66271 0.9224 0.0
C1833 C 0.38464 0.66222 0.94534 0.0
C1834 C 0.35461 0.62684 0.98869 0.0
C1835 C 0.36887 0.6234 0.05156 0.0
C1836 C 0.3687 0.63101 0.02738 0.0
C1837 C 0.37628 0.64219 0.95522 0.0
C1838 C 0.37225 0.64033 0.98022 0.0
H1839 H 0.3794 0.64269 0.10519 0.0
H1840 H 0.37542 0.65642 0.06611 0.0
H1841 H 0.33948 0.61122 0.01769 0.0
H1842 H 0.37866 0.60825 0.9085 0.0
H1843 H 0.36742 0.60728 0.94813 0.0
C1844 C 0.36987 0.93445 0.19535 0.0
C1845 C 0.37164 0.91935 0.17701 0.0
C1846 C 0.37054 0.92664 0.21772 0.0
C1847 C 0.39068 0.87759 0.2516 0.0
H1848 H 0.36235 0.91095 0.3005 0.0
C1849 C 0.42385 0.87367 0.34335 0.0
C1850 C 0.40928 0.87788 0.36171 0.0
C1851 C 0.41602 0.87478 0.32101 0.0
C1852 C 0.37013 0.90109 0.28714 0.0
H1853 H 0.37477 0.88397 0.16803 0.0
H1854 H 0.37488 0.87016 0.20697 0.0
H1855 H 0.35323 0.92025 0.26145 0.0
H1856 H 0.37455 0.88509 0.37078 0.0
H1857 H 0.36066 0.8862 0.33178 0.0
H1858 H 0.40725 0.85814 0.27729 0.0
C1859 C 0.37351 0.88819 0.2041 0.0
C1860 C 0.36514 0.90671 0.2646 0.0
C1861 C 0.37304 0.89607 0.18168 0.0
C1862 C 0.38628 0.88172 0.35711 0.0
C1863 C 0.37837 0.88269 0.33467 0.0
C1864 C 0.39548 0.87181 0.27414 0.0
C1865 C 0.37278 0.90342 0.2225 0.0
C1866 C 0.37582 0.89548 0.24646 0.0
C1867 C 0.39328 0.87988 0.31625 0.0
C1868 C 0.38578 0.88388 0.29228 0.0
H1869 H 0.36854 0.95248 0.19243 0.0
H1870 H 0.37021 0.93902 0.23125 0.0
H1871 H 0.3994 0.86855 0.23825 0.0
H1872 H 0.4416 0.8703 0.34623 0.0
H1873 H 0.42817 0.87267 0.30747 0.0
C1874 C 0.07171 0.90306 0.43616 0.0
C1875 C 0.06992 0.88605 0.4196 0.0
C1876 C 0.07988 0.89807 0.45785 0.0
C1877 C 0.08776 0.85 0.49733 0.0
H1878 H 0.12026 0.89491 0.53235 0.0
C1879 C 0.12432 0.8683 0.59436 0.0
C1880 C 0.10507 0.8613 0.60627 0.0
C1881 C 0.12466 0.86743 0.5706 0.0
C1882 C 0.11161 0.88195 0.52274 0.0
H1883 H 0.07527 0.85037 0.41309 0.0
H1884 H 0.09045 0.84185 0.45044 0.0
H1885 H 0.11244 0.90178 0.49244 0.0
H1886 H 0.07189 0.84637 0.60304 0.0
H1887 H 0.07232 0.84494 0.56192 0.0
H1888 H 0.08704 0.83012 0.52759 0.0
C1889 C 0.08517 0.85902 0.44684 0.0
C1890 C 0.10677 0.88607 0.49988 0.0
C1891 C 0.07676 0.86397 0.42525 0.0
C1892 C 0.08693 0.85189 0.5942 0.0
C1893 C 0.08726 0.85097 0.57059 0.0
C1894 C 0.09275 0.84581 0.52012 0.0
C1895 C 0.08667 0.87595 0.46353 0.0
C1896 C 0.09419 0.87045 0.48705 0.0
C1897 C 0.10579 0.85944 0.55841 0.0
C1898 C 0.10412 0.86203 0.53332 0.0
H1899 H 0.06688 0.92031 0.43237 0.0
H1900 H 0.08043 0.91152 0.47031 0.0
H1901 H 0.07797 0.83758 0.48811 0.0
H1902 H 0.13847 0.87572 0.60332 0.0
H1903 H 0.13934 0.87378 0.56175 0.0
C1904 C 0.53953 0.10078 0.10677 0.0
C1905 C 0.55766 0.09647 0.12161 0.0
C1906 C 0.52117 0.08592 0.10558 0.0
C1907 C 0.49006 0.04484 0.0987 0.0
H1908 H 0.46714 0.02221 0.15588 0.0
C1909 C 0.42555 0.97122 0.1063 0.0
C1910 C 0.40903 0.97291 0.12334 0.0
C1911 C 0.44259 0.98749 0.10449 0.0
C1912 C 0.47318 0.02852 0.13977 0.0
H1913 H 0.57113 0.07251 0.14597 0.0
H1914 H 0.5391 0.04684 0.14407 0.0
H1915 H 0.49923 0.04786 0.15571 0.0
H1916 H 0.39675 0.99378 0.15095 0.0
H1917 H 0.42648 0.02206 0.14785 0.0
H1918 H 0.46386 0.02542 0.0828 0.0
C1919 C 0.53888 0.0619 0.13365 0.0
C1920 C 0.49176 0.04302 0.13965 0.0
C1921 C 0.55723 0.07665 0.13476 0.0
C1922 C 0.40944 0.99175 0.1379 0.0
C1923 C 0.42649 0.00794 0.13614 0.0
C1924 C 0.47151 0.03016 0.0988 0.0
C1925 C 0.5205 0.06648 0.11927 0.0
C1926 C 0.50049 0.05129 0.11914 0.0
C1927 C 0.44354 0.00578 0.11972 0.0
C1928 C 0.46286 0.02183 0.11936 0.0
H1929 H 0.5392 0.11597 0.09654 0.0
H1930 H 0.50719 0.09 0.09444 0.0
H1931 H 0.49646 0.05083 0.08261 0.0
H1932 H 0.42591 0.9568 0.09497 0.0
H1933 H 0.45557 0.98522 0.09177 0.0
C1934 C 0.91259 0.07913 0.35543 0.0
C1935 C 0.89433 0.07846 0.3706 0.0
C1936 C 0.92703 0.06043 0.35322 0.0
C1937 C 0.94623 0.01118 0.38599 0.0
H1938 H 0.96963 0.98886 0.32884 0.0
C1939 C -0.00169 0.92943 0.38229 0.0
C1940 C 0.01758 0.9294 0.36846 0.0
C1941 C 0.98249 0.94692 0.38078 0.0
C1942 C 0.9634 0.99503 0.34495 0.0
H1943 H 0.8759 0.05716 0.39404 0.0
H1944 H 0.90096 0.02478 0.39024 0.0
H1945 H 0.94362 0.02108 0.32913 0.0
H1946 H 0.03519 0.94747 0.3419 0.0
H1947 H 0.00771 0.97817 0.33942 0.0
H1948 H 0.9661 0.98557 0.40194 0.0
C1949 C 0.90453 0.03985 0.38048 0.0
C1950 C 0.94851 0.01347 0.3451 0.0
C1951 C 0.89018 0.05842 0.38266 0.0
C1952 C 0.02037 0.94691 0.35261 0.0
C1953 C 0.0046 0.9645 0.35118 0.0
C1954 C 0.96112 0.99289 0.38586 0.0
C1955 C 0.9234 0.04079 0.36614 0.0
C1956 C 0.93963 0.02161 0.36563 0.0
C1957 C 0.98566 0.96491 0.36552 0.0
C1958 C 0.96978 0.98445 0.36536 0.0
H1959 H 0.91619 0.09436 0.34593 0.0
H1960 H 0.94147 0.06166 0.34206 0.0
H1961 H 0.94008 0.01736 0.40214 0.0
H1962 H -0.00446 0.91598 0.39442 0.0
H1963 H 0.96785 0.94642 0.39173 0.0
C1964 C 0.05154 0.5791 0.61784 0.0
C1965 C 0.06925 0.57606 0.63346 0.0
C1966 C 0.03526 0.56234 0.61478 0.0
C1967 C 0.00882 0.5155 0.64508 0.0
H1968 H 0.98415 0.50003 0.58612 0.0
C1969 C 0.94475 0.44527 0.60491 0.0
C1970 C 0.92716 0.44671 0.62084 0.0
C1971 C 0.96217 0.46118 0.60497 0.0
C1972 C 0.99097 0.50411 0.60267 0.0
H1973 H 0.08423 0.55266 0.65746 0.0
H1974 H 0.05566 0.5234 0.65221 0.0
H1975 H 0.01572 0.52652 0.58878 0.0
H1976 H 0.91336 0.46666 0.64841 0.0
H1977 H 0.94378 0.49435 0.64856 0.0
H1978 H 0.9842 0.49311 0.65901 0.0
C1979 C 0.05428 0.5389 0.64254 0.0
C1980 C 0.00891 0.51936 0.60421 0.0
C1981 C 0.07061 0.55564 0.64555 0.0
C1982 C 0.92691 0.46485 0.63623 0.0
C1983 C 0.94432 0.48068 0.63633 0.0
C1984 C 0.99085 0.50039 0.64356 0.0
C1985 C 0.03627 0.54221 0.62734 0.0
C1986 C 0.01796 0.52527 0.62545 0.0
C1987 C 0.96235 0.47878 0.62099 0.0
C1988 C 0.98163 0.49464 0.62236 0.0
H1989 H 0.04979 0.59478 0.60853 0.0
H1990 H 0.02142 0.5655 0.60318 0.0
H1991 H 0.01526 0.51991 0.66171 0.0
H1992 H 0.94552 0.43135 0.59299 0.0
H1993 H 0.97592 0.45922 0.59304 0.0
C1994 C 0.46299 0.60283 0.87557 0.0
C1995 C 0.44526 0.60441 0.85982 0.0
C1996 C 0.47796 0.5846 0.87493 0.0
C1997 C 0.49858 0.53738 0.83926 0.0
H1998 H 0.51294 0.51046 0.89746 0.0
C1999 C 0.54254 0.45186 0.87965 0.0
C2000 C 0.56225 0.45071 0.86647 0.0
C2001 C 0.52777 0.47017 0.87752 0.0
C2002 C 0.50893 0.51762 0.88105 0.0
H2003 H 0.42967 0.58849 0.83062 0.0
H2004 H 0.45582 0.55656 0.82951 0.0
H2005 H 0.48882 0.54374 0.89589 0.0
H2006 H 0.5818 0.46775 0.84058 0.0
H2007 H 0.55607 0.49975 0.83693 0.0
H2008 H 0.51841 0.51091 0.82443 0.0
C2009 C 0.4583 0.56955 0.84221 0.0
C2010 C 0.49537 0.53691 0.88017 0.0
C2011 C 0.44334 0.58785 0.84283 0.0
C2012 C 0.5666 0.46801 0.85076 0.0
C2013 C 0.55185 0.48634 0.84867 0.0
C2014 C 0.51219 0.51805 0.84014 0.0
C2015 C 0.47548 0.56749 0.85856 0.0
C2016 C 0.4901 0.54707 0.85928 0.0
C2017 C 0.53241 0.48778 0.86223 0.0
C2018 C 0.51752 0.50797 0.86107 0.0
H2019 H 0.46504 0.61553 0.88866 0.0
H2020 H 0.49132 0.58376 0.88746 0.0
H2021 H 0.49491 0.54488 0.82292 0.0
H2022 H 0.53856 0.43861 0.89164 0.0
H2023 H 0.51272 0.47058 0.88792 0.0
C2024 C 0.53486 0.41389 0.14254 0.0
C2025 C 0.55357 0.41611 0.15706 0.0
C2026 C 0.51763 0.43 0.14255 0.0
C2027 C 0.49201 0.47689 0.17505 0.0
H2028 H 0.47169 0.49635 0.11563 0.0
C2029 C 0.43412 0.55481 0.1622 0.0
C2030 C 0.41719 0.55346 0.14551 0.0
C2031 C 0.45034 0.53775 0.16435 0.0
C2032 C 0.47691 0.49092 0.13237 0.0
H2033 H 0.56835 0.43643 0.18377 0.0
H2034 H 0.53807 0.4648 0.18383 0.0
H2035 H 0.50042 0.46708 0.11872 0.0
H2036 H 0.4039 0.53294 0.11814 0.0
H2037 H 0.43212 0.50304 0.12194 0.0
H2038 H 0.46842 0.50079 0.18867 0.0
C2039 C 0.53679 0.45049 0.17244 0.0
C2040 C 0.49343 0.47413 0.13415 0.0
C2041 C 0.55412 0.43428 0.17243 0.0
C2042 C 0.41687 0.53461 0.131 0.0
C2043 C 0.43307 0.51749 0.13318 0.0
C2044 C 0.4754 0.49368 0.17327 0.0
C2045 C 0.51862 0.44879 0.1571 0.0
C2046 C 0.50114 0.46684 0.1555 0.0
C2047 C 0.45006 0.51887 0.14985 0.0
C2048 C 0.46761 0.50089 0.15188 0.0
H2049 H 0.5337 0.3998 0.13085 0.0
H2050 H 0.50361 0.42785 0.13094 0.0
H2051 H 0.49743 0.4715 0.19174 0.0
H2052 H 0.43508 0.5693 0.17341 0.0
H2053 H 0.46338 0.53959 0.1771 0.0
C2054 C 0.57836 0.05422 0.39222 0.0
C2055 C 0.59814 0.05453 0.40543 0.0
C2056 C 0.5632 0.03624 0.39379 0.0
C2057 C 0.54496 0.98985 0.43096 0.0
H2058 H 0.51982 0.96535 0.37539 0.0
C2059 C 0.48574 0.91103 0.3971 0.0
C2060 C 0.46734 0.91298 0.41202 0.0
C2061 C 0.50322 0.92686 0.3976 0.0
C2062 C 0.52686 0.97183 0.39106 0.0
H2063 H 0.61742 0.03612 0.43071 0.0
H2064 H 0.59076 0.00482 0.43362 0.0
H2065 H 0.54714 -0.00396 0.37353 0.0
H2066 H 0.45326 0.93275 0.4396 0.0
H2067 H 0.48386 0.96022 0.44059 0.0
H2068 H 0.52458 0.9656 0.44848 0.0
C2069 C 0.58697 0.01861 0.42215 0.0
C2070 C 0.54231 0.9896 0.39 0.0
C2071 C 0.60221 0.03656 0.4205 0.0
C2072 C 0.46732 0.93056 0.42808 0.0
C2073 C 0.48484 0.94635 0.42863 0.0
C2074 C 0.52938 0.97214 0.43204 0.0
C2075 C 0.56739 0.01818 0.40868 0.0
C2076 C 0.55142 -0.0011 0.40993 0.0
C2077 C 0.50274 0.94494 0.41307 0.0
C2078 C 0.52009 0.963 0.41209 0.0
H2079 H 0.57447 0.06799 0.38077 0.0
H2080 H 0.54805 0.03659 0.38348 0.0
H2081 H 0.5516 -0.00324 0.44662 0.0
H2082 H 0.48644 0.89748 0.38476 0.0
H2083 H 0.51698 0.9251 0.38565 0.0
C2084 C 0.0606 0.91945 0.67804 0.0
C2085 C 0.05883 0.89991 0.66459 0.0
C2086 C 0.04232 0.93445 0.67988 0.0
C2087 C 0.99261 0.95222 0.64709 0.0
H2088 H 0.97495 0.98382 0.70187 0.0
C2089 C 0.91617 0.01286 0.64813 0.0
C2090 C 0.91831 0.03289 0.66075 0.0
C2091 C 0.93236 0.99569 0.65 0.0
C2092 C 0.97982 0.97531 0.68636 0.0
H2093 H 0.03602 0.87982 0.64407 0.0
H2094 H 0.00425 0.90584 0.64732 0.0
H2095 H 0.00493 0.9554 0.70346 0.0
H2096 H 0.9393 0.05075 0.68498 0.0
H2097 H 0.96766 0.02106 0.688 0.0
H2098 H 0.96803 0.97234 0.62981 0.0
C2099 C 0.01985 0.9099 0.65601 0.0
C2100 C -0.00303 0.95899 0.68731 0.0
C2101 C 0.03803 0.89497 0.65421 0.0
C2102 C 0.93696 0.03535 0.67531 0.0
C2103 C 0.95321 0.01828 0.67708 0.0
C2104 C 0.97561 0.96859 0.6461 0.0
C2105 C 0.02198 0.93015 0.66829 0.0
C2106 C 0.00353 0.94724 0.66768 0.0
C2107 C 0.95119 -0.00176 0.6644 0.0
C2108 C 0.96897 0.98038 0.6657 0.0
H2109 H 0.07645 0.92374 0.68614 0.0
H2110 H 0.0445 0.94994 0.68944 0.0
H2111 H -0.00243 0.9438 0.63155 0.0
H2112 H 0.90186 0.01038 0.63695 0.0
H2113 H 0.93003 0.98036 0.64024 0.0
C2114 C 0.03752 0.56175 0.93937 0.0
C2115 C 0.03409 0.58125 0.92614 0.0
C2116 C 0.02164 0.54423 0.93934 0.0
C2117 C 0.97734 0.5197 0.90323 0.0
H2118 H 0.96059 0.48639 0.95723 0.0
C2119 C 0.90843 0.44745 0.93086 0.0
C2120 C 0.91124 0.43215 0.91278 0.0
C2121 C 0.92336 0.4656 0.93377 0.0
C2122 C 0.96502 0.49561 0.94203 0.0
H2123 H 0.01063 0.59798 0.90337 0.0
H2124 H 0.98311 0.56737 0.90316 0.0
H2125 H 0.98599 0.51887 0.96037 0.0
H2126 H 0.9327 0.42342 0.88429 0.0
H2127 H 0.95843 0.45509 0.88921 0.0
H2128 H 0.95645 0.49655 0.88487 0.0
C2129 C -0.00175 0.56551 0.91332 0.0
C2130 C 0.9797 0.5141 0.9438 0.0
C2131 C 0.01404 0.58305 0.91344 0.0
C2132 C 0.92967 0.43514 0.89808 0.0
C2133 C 0.94447 0.4533 0.9009 0.0
C2134 C 0.96285 0.50116 0.90145 0.0
C2135 C 0.00201 0.54573 0.92598 0.0
C2136 C 0.98603 0.52636 0.9244 0.0
C2137 C 0.94136 0.46891 0.91861 0.0
C2138 C 0.95656 0.48883 0.92079 0.0
H2139 H 0.05289 0.55959 0.94911 0.0
H2140 H 0.02516 0.52914 0.94911 0.0
H2141 H 0.98205 0.5286 0.88792 0.0
H2142 H 0.89432 0.44582 0.94238 0.0
H2143 H 0.92041 0.47741 0.94749 0.0
loop_
_geom_bond_atom_site_label_1
_geom_bond_atom_site_label_2
_geom_bond_distance
_geom_bond_site_symmetry_2
_ccdc_geom_bond_type
O0 Tb1 2.330 . S
O0 C3 1.236 1_554 S
Tb1 O0 2.330 . S
Tb1 O17 2.326 . S
Tb1 O19 2.500 . S
Tb1 O20 2.473 . S
Tb1 O23 2.324 . S
Eu2 O6 2.292 . S
Eu2 C7 2.852 . S
Eu2 O18 2.324 . S
Eu2 O22 2.326 . S
Eu2 O24 2.500 . S
Eu2 O25 2.473 . S
C3 O0 1.236 1_556 S
C3 O4 1.230 1_556 S
O4 C3 1.230 1_554 S
C5 O17 1.242 . S
C5 O18 1.258 . S
O6 Eu2 2.292 . S
O6 C8 1.255 . S
C7 Eu2 2.852 . S
C7 C11 1.503 . S
C7 O24 1.273 . S
C7 O25 1.257 . S
C8 O6 1.255 . S
C8 O9 1.247 . S
O9 C8 1.247 . S
C10 O22 1.242 . S
C10 O23 1.258 . S
C11 C7 1.503 . S
C11 C12 1.379 . S
C11 C16 1.392 . S
C12 C11 1.379 . S
C12 C13 1.404 . S
C12 H26 0.929 . S
C13 C12 1.404 . S
C13 C14 1.389 . S
C14 C13 1.389 . S
C14 C15 1.399 . S
C14 H27 0.931 . S
C15 C14 1.399 . S
C15 C16 1.390 . S
C16 C11 1.392 . S
C16 C15 1.390 . S
C16 H28 0.929 . S
O17 Tb1 2.326 . S
O17 C5 1.242 . S
O18 Eu2 2.324 . S
O18 C5 1.258 . S
O19 Tb1 2.500 . S
O19 C21 1.273 . S
O20 Tb1 2.473 . S
O20 C21 1.257 . S
C21 O19 1.273 . S
C21 O20 1.257 . S
O22 Eu2 2.326 . S
O22 C10 1.242 . S
O23 Tb1 2.324 . S
O23 C10 1.258 . S
O24 Eu2 2.500 . S
O24 C7 1.273 . S
O25 Eu2 2.473 . S
O25 C7 1.257 . S
H26 C12 0.929 . S
H27 C14 0.931 . S
H28 C16 0.929 . S
O29 Tb30 2.292 . S
O29 C32 1.255 . S
Tb30 O29 2.292 . S
Tb30 O46 2.326 . S
Tb30 O48 2.500 . S
Tb30 O49 2.473 . S
Tb30 O52 2.324 . S
Eu31 O35 2.292 . S
Eu31 C36 2.852 . S
Eu31 O47 2.324 . S
Eu31 O51 2.326 . S
Eu31 O53 2.500 . S
Eu31 O54 2.473 . S
C32 O29 1.255 . S
C32 O33 1.247 . S
O33 C32 1.247 . S
C34 O46 1.242 . S
C34 O47 1.258 . S
O35 Eu31 2.292 . S
O35 C37 1.255 . S
C36 Eu31 2.852 . S
C36 C40 1.503 . S
C36 O53 1.273 . S
C36 O54 1.257 . S
C37 O35 1.255 . S
C37 O38 1.247 . S
O38 C37 1.247 . S
C39 O51 1.242 . S
C39 O52 1.258 . S
C40 C36 1.503 . S
C40 C41 1.379 . S
C40 C45 1.392 . S
C41 C40 1.379 . S
C41 C42 1.404 . S
C41 H55 0.929 . S
C42 C41 1.404 . S
C42 C43 1.389 . S
C43 C42 1.389 . S
C43 C44 1.399 . S
C43 H56 0.931 . S
C44 C43 1.399 . S
C44 C45 1.390 . S
C45 C40 1.392 . S
C45 C44 1.390 . S
C45 H57 0.929 . S
O46 Tb30 2.326 . S
O46 C34 1.242 . S
O47 Eu31 2.324 . S
O47 C34 1.258 . S
O48 Tb30 2.500 . S
O48 C50 1.273 . S
O49 Tb30 2.473 . S
O49 C50 1.257 . S
C50 O48 1.273 . S
C50 O49 1.257 . S
O51 Eu31 2.326 . S
O51 C39 1.242 . S
O52 Tb30 2.324 . S
O52 C39 1.258 . S
O53 Eu31 2.500 . S
O53 C36 1.273 . S
O54 Eu31 2.473 . S
O54 C36 1.257 . S
H55 C41 0.929 . S
H56 C43 0.931 . S
H57 C45 0.929 . S
O58 Tb59 2.292 . S
O58 C61 1.255 . S
Tb59 O58 2.292 . S
Tb59 O75 2.326 . S
Tb59 O77 2.500 . S
Tb59 O78 2.473 . S
Tb59 O81 2.324 . S
Eu60 O64 2.292 . S
Eu60 C65 2.852 . S
Eu60 O76 2.324 . S
Eu60 O80 2.326 . S
Eu60 O82 2.500 . S
Eu60 O83 2.473 . S
C61 O58 1.255 . S
C61 O62 1.247 . S
O62 C61 1.247 . S
C63 O75 1.242 . S
C63 O76 1.258 . S
O64 Eu60 2.292 . S
O64 C66 1.255 . S
C65 Eu60 2.852 . S
C65 C69 1.503 . S
C65 O82 1.273 . S
C65 O83 1.257 . S
C66 O64 1.255 . S
C66 O67 1.247 . S
O67 C66 1.247 . S
C68 O80 1.242 . S
C68 O81 1.258 . S
C69 C65 1.503 . S
C69 C70 1.379 . S
C69 C74 1.392 . S
C70 C69 1.379 . S
C70 C71 1.404 . S
C70 H84 0.929 . S
C71 C70 1.404 . S
C71 C72 1.389 . S
C72 C71 1.389 . S
C72 C73 1.399 . S
C72 H85 0.931 . S
C73 C72 1.399 . S
C73 C74 1.390 . S
C74 C69 1.392 . S
C74 C73 1.390 . S
C74 H86 0.929 . S
O75 Tb59 2.326 . S
O75 C63 1.242 . S
O76 Eu60 2.324 . S
O76 C63 1.258 . S
O77 Tb59 2.500 . S
O77 C79 1.273 . S
O78 Tb59 2.473 . S
O78 C79 1.257 . S
C79 O77 1.273 . S
C79 O78 1.257 . S
O80 Eu60 2.326 . S
O80 C68 1.242 . S
O81 Tb59 2.324 . S
O81 C68 1.258 . S
O82 Eu60 2.500 . S
O82 C65 1.273 . S
O83 Eu60 2.473 . S
O83 C65 1.257 . S
H84 C70 0.929 . S
H85 C72 0.931 . S
H86 C74 0.929 . S
O87 Tb88 2.292 . S
O87 C90 1.255 . S
Tb88 O87 2.292 . S
Tb88 O104 2.326 . S
Tb88 O106 2.500 . S
Tb88 O107 2.473 . S
Tb88 O110 2.324 . S
Eu89 O93 2.292 . S
Eu89 C94 2.852 . S
Eu89 O105 2.324 . S
Eu89 O109 2.326 . S
Eu89 O111 2.500 . S
Eu89 O112 2.473 . S
C90 O87 1.255 . S
C90 O91 1.247 . S
O91 C90 1.247 . S
C92 O104 1.242 . S
C92 O105 1.258 . S
O93 Eu89 2.292 . S
O93 C95 1.255 . S
C94 Eu89 2.852 . S
C94 C98 1.503 . S
C94 O111 1.273 . S
C94 O112 1.257 . S
C95 O93 1.255 . S
C95 O96 1.247 . S
O96 C95 1.247 . S
C97 O109 1.242 . S
C97 O110 1.258 . S
C98 C94 1.503 . S
C98 C99 1.379 . S
C98 C103 1.392 . S
C99 C98 1.379 . S
C99 C100 1.404 . S
C99 H113 0.929 . S
C100 C99 1.404 . S
C100 C101 1.389 . S
C101 C100 1.389 . S
C101 C102 1.399 . S
C101 H114 0.931 . S
C102 C101 1.399 . S
C102 C103 1.390 . S
C103 C98 1.392 . S
C103 C102 1.390 . S
C103 H115 0.929 . S
O104 Tb88 2.326 . S
O104 C92 1.242 . S
O105 Eu89 2.324 . S
O105 C92 1.258 . S
O106 Tb88 2.500 . S
O106 C108 1.273 . S
O107 Tb88 2.473 . S
O107 C108 1.257 . S
C108 O106 1.273 . S
C108 O107 1.257 . S
O109 Eu89 2.326 . S
O109 C97 1.242 . S
O110 Tb88 2.324 . S
O110 C97 1.258 . S
O111 Eu89 2.500 . S
O111 C94 1.273 . S
O112 Eu89 2.473 . S
O112 C94 1.257 . S
H113 C99 0.929 . S
H114 C101 0.931 . S
H115 C103 0.929 . S
O116 Tb117 2.292 . S
O116 C119 1.255 . S
Tb117 O116 2.292 . S
Tb117 O133 2.326 . S
Tb117 O135 2.500 . S
Tb117 O136 2.473 . S
Tb117 O139 2.324 . S
Eu118 O122 2.292 . S
Eu118 C123 2.852 . S
Eu118 O134 2.324 . S
Eu118 O138 2.326 . S
Eu118 O140 2.500 . S
Eu118 O141 2.473 . S
C119 O116 1.255 . S
C119 O120 1.247 . S
O120 C119 1.247 . S
C121 O133 1.242 . S
C121 O134 1.258 . S
O122 Eu118 2.292 . S
O122 C124 1.255 . S
C123 Eu118 2.852 . S
C123 C127 1.503 . S
C123 O140 1.273 . S
C123 O141 1.257 . S
C124 O122 1.255 . S
C124 O125 1.247 . S
O125 C124 1.247 . S
C126 O138 1.242 . S
C126 O139 1.258 . S
C127 C123 1.503 . S
C127 C128 1.379 . S
C127 C132 1.392 . S
C128 C127 1.379 . S
C128 C129 1.404 . S
C128 H142 0.929 . S
C129 C128 1.404 . S
C129 C130 1.389 . S
C130 C129 1.389 . S
C130 C131 1.399 . S
C130 H143 0.931 . S
C131 C130 1.399 . S
C131 C132 1.390 . S
C132 C127 1.392 . S
C132 C131 1.390 . S
C132 H144 0.929 . S
O133 Tb117 2.326 . S
O133 C121 1.242 . S
O134 Eu118 2.324 . S
O134 C121 1.258 . S
O135 Tb117 2.500 . S
O135 C137 1.273 . S
O136 Tb117 2.473 . S
O136 C137 1.257 . S
C137 O135 1.273 . S
C137 O136 1.257 . S
O138 Eu118 2.326 . S
O138 C126 1.242 . S
O139 Tb117 2.324 . S
O139 C126 1.258 . S
O140 Eu118 2.500 . S
O140 C123 1.273 . S
O141 Eu118 2.473 . S
O141 C123 1.257 . S
H142 C128 0.929 . S
H143 C130 0.931 . S
H144 C132 0.929 . S
O145 Tb146 2.292 . S
O145 C148 1.255 . S
Tb146 O145 2.292 . S
Tb146 O162 2.326 . S
Tb146 O164 2.500 . S
Tb146 O165 2.473 . S
Tb146 O168 2.324 . S
Eu147 O151 2.292 . S
Eu147 C152 2.852 . S
Eu147 O163 2.324 . S
Eu147 O167 2.326 . S
Eu147 O169 2.500 . S
Eu147 O170 2.473 . S
C148 O145 1.255 . S
C148 O149 1.247 . S
O149 C148 1.247 . S
C150 O162 1.242 . S
C150 O163 1.258 . S
O151 Eu147 2.292 . S
O151 C153 1.255 . S
C152 Eu147 2.852 . S
C152 C156 1.503 . S
C152 O169 1.273 . S
C152 O170 1.257 . S
C153 O151 1.255 . S
C153 O154 1.247 . S
O154 C153 1.247 . S
C155 O167 1.242 . S
C155 O168 1.258 . S
C156 C152 1.503 . S
C156 C157 1.379 . S
C156 C161 1.392 . S
C157 C156 1.379 . S
C157 C158 1.404 . S
C157 H171 0.929 . S
C158 C157 1.404 . S
C158 C159 1.389 . S
C159 C158 1.389 . S
C159 C160 1.399 . S
C159 H172 0.931 . S
C160 C159 1.399 . S
C160 C161 1.390 . S
C161 C156 1.392 . S
C161 C160 1.390 . S
C161 H173 0.929 . S
O162 Tb146 2.326 . S
O162 C150 1.242 . S
O163 Eu147 2.324 . S
O163 C150 1.258 . S
O164 Tb146 2.500 . S
O164 C166 1.273 . S
O165 Tb146 2.473 . S
O165 C166 1.257 . S
C166 O164 1.273 . S
C166 O165 1.257 . S
O167 Eu147 2.326 . S
O167 C155 1.242 . S
O168 Tb146 2.324 . S
O168 C155 1.258 . S
O169 Eu147 2.500 . S
O169 C152 1.273 . S
O170 Eu147 2.473 . S
O170 C152 1.257 . S
H171 C157 0.929 . S
H172 C159 0.931 . S
H173 C161 0.929 . S
O174 Tb175 2.292 . S
O174 C177 1.255 . S
Tb175 O174 2.292 . S
Tb175 O191 2.326 . S
Tb175 O193 2.500 . S
Tb175 O194 2.473 . S
Tb175 O197 2.324 . S
Eu176 O180 2.292 . S
Eu176 C181 2.852 . S
Eu176 O192 2.324 . S
Eu176 O196 2.326 . S
Eu176 O198 2.500 . S
Eu176 O199 2.473 . S
C177 O174 1.255 . S
C177 O178 1.247 . S
O178 C177 1.247 . S
C179 O191 1.242 . S
C179 O192 1.258 . S
O180 Eu176 2.292 . S
O180 C182 1.255 . S
C181 Eu176 2.852 . S
C181 C185 1.503 . S
C181 O198 1.273 . S
C181 O199 1.257 . S
C182 O180 1.255 . S
C182 O183 1.247 . S
O183 C182 1.247 . S
C184 O196 1.242 . S
C184 O197 1.258 . S
C185 C181 1.503 . S
C185 C186 1.379 . S
C185 C190 1.392 . S
C186 C185 1.379 . S
C186 C187 1.404 . S
C186 H200 0.929 . S
C187 C186 1.404 . S
C187 C188 1.389 . S
C188 C187 1.389 . S
C188 C189 1.399 . S
C188 H201 0.931 . S
C189 C188 1.399 . S
C189 C190 1.390 . S
C190 C185 1.392 . S
C190 C189 1.390 . S
C190 H202 0.929 . S
O191 Tb175 2.326 . S
O191 C179 1.242 . S
O192 Eu176 2.324 . S
O192 C179 1.258 . S
O193 Tb175 2.500 . S
O193 C195 1.273 . S
O194 Tb175 2.473 . S
O194 C195 1.257 . S
C195 O193 1.273 . S
C195 O194 1.257 . S
O196 Eu176 2.326 . S
O196 C184 1.242 . S
O197 Tb175 2.324 . S
O197 C184 1.258 . S
O198 Eu176 2.500 . S
O198 C181 1.273 . S
O199 Eu176 2.473 . S
O199 C181 1.257 . S
H200 C186 0.929 . S
H201 C188 0.931 . S
H202 C190 0.929 . S
O203 Tb204 2.330 . S
O203 C206 1.236 1_556 S
Tb204 O203 2.330 . S
Tb204 O220 2.326 . S
Tb204 O222 2.500 . S
Tb204 O223 2.473 . S
Tb204 O226 2.324 . S
Eu205 O209 2.292 . S
Eu205 C210 2.852 . S
Eu205 O221 2.324 . S
Eu205 O225 2.326 . S
Eu205 O227 2.500 . S
Eu205 O228 2.473 . S
C206 O203 1.236 1_554 S
C206 O207 1.230 1_554 S
O207 C206 1.230 1_556 S
C208 O220 1.242 . S
C208 O221 1.258 . S
O209 Eu205 2.292 . S
O209 C211 1.255 . S
C210 Eu205 2.852 . S
C210 C214 1.503 . S
C210 O227 1.273 . S
C210 O228 1.257 . S
C211 O209 1.255 . S
C211 O212 1.247 . S
O212 C211 1.247 . S
C213 O225 1.242 . S
C213 O226 1.258 . S
C214 C210 1.503 . S
C214 C215 1.379 . S
C214 C219 1.392 . S
C215 C214 1.379 . S
C215 C216 1.404 . S
C215 H229 0.929 . S
C216 C215 1.404 . S
C216 C217 1.389 . S
C217 C216 1.389 . S
C217 C218 1.399 . S
C217 H230 0.931 . S
C218 C217 1.399 . S
C218 C219 1.390 . S
C219 C214 1.392 . S
C219 C218 1.390 . S
C219 H231 0.929 . S
O220 Tb204 2.326 . S
O220 C208 1.242 . S
O221 Eu205 2.324 . S
O221 C208 1.258 . S
O222 Tb204 2.500 . S
O222 C224 1.273 . S
O223 Tb204 2.473 . S
O223 C224 1.257 . S
C224 O222 1.273 . S
C224 O223 1.257 . S
O225 Eu205 2.326 . S
O225 C213 1.242 . S
O226 Tb204 2.324 . S
O226 C213 1.258 . S
O227 Eu205 2.500 . S
O227 C210 1.273 . S
O228 Eu205 2.473 . S
O228 C210 1.257 . S
H229 C215 0.929 . S
H230 C217 0.931 . S
H231 C219 0.929 . S
O232 Tb233 2.292 . S
O232 C235 1.255 . S
Tb233 O232 2.292 . S
Tb233 O249 2.326 . S
Tb233 O251 2.500 . S
Tb233 O252 2.473 . S
Tb233 O255 2.324 . S
Eu234 O238 2.292 . S
Eu234 C239 2.852 . S
Eu234 O250 2.324 . S
Eu234 O254 2.326 . S
Eu234 O256 2.500 . S
Eu234 O257 2.473 . S
C235 O232 1.255 . S
C235 O236 1.247 . S
O236 C235 1.247 . S
C237 O249 1.242 . S
C237 O250 1.258 . S
O238 Eu234 2.292 . S
O238 C240 1.255 . S
C239 Eu234 2.852 . S
C239 C243 1.503 . S
C239 O256 1.273 . S
C239 O257 1.257 . S
C240 O238 1.255 . S
C240 O241 1.247 . S
O241 C240 1.247 . S
C242 O254 1.242 . S
C242 O255 1.258 . S
C243 C239 1.503 . S
C243 C244 1.379 . S
C243 C248 1.392 . S
C244 C243 1.379 . S
C244 C245 1.404 . S
C244 H258 0.929 . S
C245 C244 1.404 . S
C245 C246 1.389 . S
C246 C245 1.389 . S
C246 C247 1.399 . S
C246 H259 0.931 . S
C247 C246 1.399 . S
C247 C248 1.390 . S
C248 C243 1.392 . S
C248 C247 1.390 . S
C248 H260 0.929 . S
O249 Tb233 2.326 . S
O249 C237 1.242 . S
O250 Eu234 2.324 . S
O250 C237 1.258 . S
O251 Tb233 2.500 . S
O251 C253 1.273 . S
O252 Tb233 2.473 . S
O252 C253 1.257 . S
C253 O251 1.273 . S
C253 O252 1.257 . S
O254 Eu234 2.326 . S
O254 C242 1.242 . S
O255 Tb233 2.324 . S
O255 C242 1.258 . S
O256 Eu234 2.500 . S
O256 C239 1.273 . S
O257 Eu234 2.473 . S
O257 C239 1.257 . S
H258 C244 0.929 . S
H259 C246 0.931 . S
H260 C248 0.929 . S
O261 Tb262 2.292 . S
O261 C264 1.255 . S
Tb262 O261 2.292 . S
Tb262 O278 2.326 . S
Tb262 O280 2.500 . S
Tb262 O281 2.473 . S
Tb262 O284 2.324 . S
Eu263 O267 2.292 . S
Eu263 C268 2.852 . S
Eu263 O279 2.324 . S
Eu263 O283 2.326 . S
Eu263 O285 2.500 . S
Eu263 O286 2.473 . S
C264 O261 1.255 . S
C264 O265 1.247 . S
O265 C264 1.247 . S
C266 O278 1.242 . S
C266 O279 1.258 . S
O267 Eu263 2.292 . S
O267 C269 1.255 . S
C268 Eu263 2.852 . S
C268 C272 1.503 . S
C268 O285 1.273 . S
C268 O286 1.257 . S
C269 O267 1.255 . S
C269 O270 1.247 . S
O270 C269 1.247 . S
C271 O283 1.242 . S
C271 O284 1.258 . S
C272 C268 1.503 . S
C272 C273 1.379 . S
C272 C277 1.392 . S
C273 C272 1.379 . S
C273 C274 1.404 . S
C273 H287 0.929 . S
C274 C273 1.404 . S
C274 C275 1.389 . S
C275 C274 1.389 . S
C275 C276 1.399 . S
C275 H288 0.931 . S
C276 C275 1.399 . S
C276 C277 1.390 . S
C277 C272 1.392 . S
C277 C276 1.390 . S
C277 H289 0.929 . S
O278 Tb262 2.326 . S
O278 C266 1.242 . S
O279 Eu263 2.324 . S
O279 C266 1.258 . S
O280 Tb262 2.500 . S
O280 C282 1.273 . S
O281 Tb262 2.473 . S
O281 C282 1.257 . S
C282 O280 1.273 . S
C282 O281 1.257 . S
O283 Eu263 2.326 . S
O283 C271 1.242 . S
O284 Tb262 2.324 . S
O284 C271 1.258 . S
O285 Eu263 2.500 . S
O285 C268 1.273 . S
O286 Eu263 2.473 . S
O286 C268 1.257 . S
H287 C273 0.929 . S
H288 C275 0.931 . S
H289 C277 0.929 . S
O290 Tb291 2.330 . S
O290 C293 1.236 1_554 S
Tb291 O290 2.330 . S
Tb291 O307 2.326 . S
Tb291 O309 2.500 . S
Tb291 O310 2.473 . S
Tb291 O313 2.324 . S
Eu292 O296 2.292 . S
Eu292 C297 2.852 . S
Eu292 O308 2.324 . S
Eu292 O312 2.326 . S
Eu292 O314 2.500 . S
Eu292 O315 2.473 . S
C293 O290 1.236 1_556 S
C293 O294 1.230 1_556 S
O294 C293 1.230 1_554 S
C295 O307 1.242 . S
C295 O308 1.258 . S
O296 Eu292 2.292 . S
O296 C298 1.255 . S
C297 Eu292 2.852 . S
C297 C301 1.503 . S
C297 O314 1.273 . S
C297 O315 1.257 . S
C298 O296 1.255 . S
C298 O299 1.247 . S
O299 C298 1.247 . S
C300 O312 1.242 . S
C300 O313 1.258 . S
C301 C297 1.503 . S
C301 C302 1.379 . S
C301 C306 1.392 . S
C302 C301 1.379 . S
C302 C303 1.404 . S
C302 H316 0.929 . S
C303 C302 1.404 . S
C303 C304 1.389 . S
C304 C303 1.389 . S
C304 C305 1.399 . S
C304 H317 0.931 . S
C305 C304 1.399 . S
C305 C306 1.390 . S
C306 C301 1.392 . S
C306 C305 1.390 . S
C306 H318 0.929 . S
O307 Tb291 2.326 . S
O307 C295 1.242 . S
O308 Eu292 2.324 . S
O308 C295 1.258 . S
O309 Tb291 2.500 . S
O309 C311 1.273 . S
O310 Tb291 2.473 . S
O310 C311 1.257 . S
C311 O309 1.273 . S
C311 O310 1.257 . S
O312 Eu292 2.326 . S
O312 C300 1.242 . S
O313 Tb291 2.324 . S
O313 C300 1.258 . S
O314 Eu292 2.500 . S
O314 C297 1.273 . S
O315 Eu292 2.473 . S
O315 C297 1.257 . S
H316 C302 0.929 . S
H317 C304 0.931 . S
H318 C306 0.929 . S
O319 Tb320 2.292 . S
O319 C322 1.255 . S
Tb320 O319 2.292 . S
Tb320 O336 2.326 . S
Tb320 O338 2.500 . S
Tb320 O339 2.473 . S
Tb320 O342 2.324 . S
Eu321 O325 2.292 . S
Eu321 C326 2.852 . S
Eu321 O337 2.324 . S
Eu321 O341 2.326 . S
Eu321 O343 2.500 . S
Eu321 O344 2.473 . S
C322 O319 1.255 . S
C322 O323 1.247 . S
O323 C322 1.247 . S
C324 O336 1.242 . S
C324 O337 1.258 . S
O325 Eu321 2.292 . S
O325 C327 1.255 . S
C326 Eu321 2.852 . S
C326 C330 1.503 . S
C326 O343 1.273 . S
C326 O344 1.257 . S
C327 O325 1.255 . S
C327 O328 1.247 . S
O328 C327 1.247 . S
C329 O341 1.242 . S
C329 O342 1.258 . S
C330 C326 1.503 . S
C330 C331 1.379 . S
C330 C335 1.392 . S
C331 C330 1.379 . S
C331 C332 1.404 . S
C331 H345 0.929 . S
C332 C331 1.404 . S
C332 C333 1.389 . S
C333 C332 1.389 . S
C333 C334 1.399 . S
C333 H346 0.931 . S
C334 C333 1.399 . S
C334 C335 1.390 . S
C335 C330 1.392 . S
C335 C334 1.390 . S
C335 H347 0.929 . S
O336 Tb320 2.326 . S
O336 C324 1.242 . S
O337 Eu321 2.324 . S
O337 C324 1.258 . S
O338 Tb320 2.500 . S
O338 C340 1.273 . S
O339 Tb320 2.473 . S
O339 C340 1.257 . S
C340 O338 1.273 . S
C340 O339 1.257 . S
O341 Eu321 2.326 . S
O341 C329 1.242 . S
O342 Tb320 2.324 . S
O342 C329 1.258 . S
O343 Eu321 2.500 . S
O343 C326 1.273 . S
O344 Eu321 2.473 . S
O344 C326 1.257 . S
H345 C331 0.929 . S
H346 C333 0.931 . S
H347 C335 0.929 . S
O348 Tb349 2.292 . S
O348 C351 1.255 . S
Tb349 O348 2.292 . S
Tb349 O365 2.326 . S
Tb349 O367 2.500 . S
Tb349 O368 2.473 . S
Tb349 O371 2.324 . S
Eu350 O354 2.292 . S
Eu350 C355 2.852 . S
Eu350 O366 2.324 . S
Eu350 O370 2.326 . S
Eu350 O372 2.500 . S
Eu350 O373 2.473 . S
C351 O348 1.255 . S
C351 O352 1.247 . S
O352 C351 1.247 . S
C353 O365 1.242 . S
C353 O366 1.258 . S
O354 Eu350 2.292 . S
O354 C356 1.255 . S
C355 Eu350 2.852 . S
C355 C359 1.503 . S
C355 O372 1.273 . S
C355 O373 1.257 . S
C356 O354 1.255 . S
C356 O357 1.247 . S
O357 C356 1.247 . S
C358 O370 1.242 . S
C358 O371 1.258 . S
C359 C355 1.503 . S
C359 C360 1.379 . S
C359 C364 1.392 . S
C360 C359 1.379 . S
C360 C361 1.404 . S
C360 H374 0.929 . S
C361 C360 1.404 . S
C361 C362 1.389 . S
C362 C361 1.389 . S
C362 C363 1.399 . S
C362 H375 0.931 . S
C363 C362 1.399 . S
C363 C364 1.390 . S
C364 C359 1.392 . S
C364 C363 1.390 . S
C364 H376 0.929 . S
O365 Tb349 2.326 . S
O365 C353 1.242 . S
O366 Eu350 2.324 . S
O366 C353 1.258 . S
O367 Tb349 2.500 . S
O367 C369 1.273 . S
O368 Tb349 2.473 . S
O368 C369 1.257 . S
C369 O367 1.273 . S
C369 O368 1.257 . S
O370 Eu350 2.326 . S
O370 C358 1.242 . S
O371 Tb349 2.324 . S
O371 C358 1.258 . S
O372 Eu350 2.500 . S
O372 C355 1.273 . S
O373 Eu350 2.473 . S
O373 C355 1.257 . S
H374 C360 0.929 . S
H375 C362 0.931 . S
H376 C364 0.929 . S
O377 Tb378 2.330 . S
O377 C380 1.236 1_556 S
Tb378 O377 2.330 . S
Tb378 O394 2.326 . S
Tb378 O396 2.500 . S
Tb378 O397 2.473 . S
Tb378 O400 2.324 . S
Eu379 O383 2.292 . S
Eu379 C384 2.852 . S
Eu379 O395 2.324 . S
Eu379 O399 2.326 . S
Eu379 O401 2.500 . S
Eu379 O402 2.473 . S
C380 O377 1.236 1_554 S
C380 O381 1.230 1_554 S
O381 C380 1.230 1_556 S
C382 O394 1.242 . S
C382 O395 1.258 . S
O383 Eu379 2.292 . S
O383 C385 1.255 . S
C384 Eu379 2.852 . S
C384 C388 1.503 . S
C384 O401 1.273 . S
C384 O402 1.257 . S
C385 O383 1.255 . S
C385 O386 1.247 . S
O386 C385 1.247 . S
C387 O399 1.242 . S
C387 O400 1.258 . S
C388 C384 1.503 . S
C388 C389 1.379 . S
C388 C393 1.392 . S
C389 C388 1.379 . S
C389 C390 1.404 . S
C389 H403 0.929 . S
C390 C389 1.404 . S
C390 C391 1.389 . S
C391 C390 1.389 . S
C391 C392 1.399 . S
C391 H404 0.931 . S
C392 C391 1.399 . S
C392 C393 1.390 . S
C393 C388 1.392 . S
C393 C392 1.390 . S
C393 H405 0.929 . S
O394 Tb378 2.326 . S
O394 C382 1.242 . S
O395 Eu379 2.324 . S
O395 C382 1.258 . S
O396 Tb378 2.500 . S
O396 C398 1.273 . S
O397 Tb378 2.473 . S
O397 C398 1.257 . S
C398 O396 1.273 . S
C398 O397 1.257 . S
O399 Eu379 2.326 . S
O399 C387 1.242 . S
O400 Tb378 2.324 . S
O400 C387 1.258 . S
O401 Eu379 2.500 . S
O401 C384 1.273 . S
O402 Eu379 2.473 . S
O402 C384 1.257 . S
H403 C389 0.929 . S
H404 C391 0.931 . S
H405 C393 0.929 . S
O406 Tb407 2.292 . S
O406 C409 1.255 . S
Tb407 O406 2.292 . S
Tb407 O423 2.326 . S
Tb407 O425 2.500 . S
Tb407 O426 2.473 . S
Tb407 O429 2.324 . S
Eu408 O412 2.292 . S
Eu408 C413 2.852 . S
Eu408 O424 2.324 . S
Eu408 O428 2.326 . S
Eu408 O430 2.500 . S
Eu408 O431 2.473 . S
C409 O406 1.255 . S
C409 O410 1.247 . S
O410 C409 1.247 . S
C411 O423 1.242 . S
C411 O424 1.258 . S
O412 Eu408 2.292 . S
O412 C414 1.255 . S
C413 Eu408 2.852 . S
C413 C417 1.503 . S
C413 O430 1.273 . S
C413 O431 1.257 . S
C414 O412 1.255 . S
C414 O415 1.247 . S
O415 C414 1.247 . S
C416 O428 1.242 . S
C416 O429 1.258 . S
C417 C413 1.503 . S
C417 C418 1.379 . S
C417 C422 1.392 . S
C418 C417 1.379 . S
C418 C419 1.404 . S
C418 H432 0.929 . S
C419 C418 1.404 . S
C419 C420 1.389 . S
C420 C419 1.389 . S
C420 C421 1.399 . S
C420 H433 0.931 . S
C421 C420 1.399 . S
C421 C422 1.390 . S
C422 C417 1.392 . S
C422 C421 1.390 . S
C422 H434 0.929 . S
O423 Tb407 2.326 . S
O423 C411 1.242 . S
O424 Eu408 2.324 . S
O424 C411 1.258 . S
O425 Tb407 2.500 . S
O425 C427 1.273 . S
O426 Tb407 2.473 . S
O426 C427 1.257 . S
C427 O425 1.273 . S
C427 O426 1.257 . S
O428 Eu408 2.326 . S
O428 C416 1.242 . S
O429 Tb407 2.324 . S
O429 C416 1.258 . S
O430 Eu408 2.500 . S
O430 C413 1.273 . S
O431 Eu408 2.473 . S
O431 C413 1.257 . S
H432 C418 0.929 . S
H433 C420 0.931 . S
H434 C422 0.929 . S
O435 Tb436 2.292 . S
O435 C438 1.255 . S
Tb436 O435 2.292 . S
Tb436 O452 2.326 . S
Tb436 O454 2.500 . S
Tb436 O455 2.473 . S
Tb436 O458 2.324 . S
Eu437 O441 2.292 . S
Eu437 C442 2.852 . S
Eu437 O453 2.324 . S
Eu437 O457 2.326 . S
Eu437 O459 2.500 . S
Eu437 O460 2.473 . S
C438 O435 1.255 . S
C438 O439 1.247 . S
O439 C438 1.247 . S
C440 O452 1.242 . S
C440 O453 1.258 . S
O441 Eu437 2.292 . S
O441 C443 1.255 . S
C442 Eu437 2.852 . S
C442 C446 1.503 . S
C442 O459 1.273 . S
C442 O460 1.257 . S
C443 O441 1.255 . S
C443 O444 1.247 . S
O444 C443 1.247 . S
C445 O457 1.242 . S
C445 O458 1.258 . S
C446 C442 1.503 . S
C446 C447 1.379 . S
C446 C451 1.392 . S
C447 C446 1.379 . S
C447 C448 1.404 . S
C447 H461 0.929 . S
C448 C447 1.404 . S
C448 C449 1.389 . S
C449 C448 1.389 . S
C449 C450 1.399 . S
C449 H462 0.931 . S
C450 C449 1.399 . S
C450 C451 1.390 . S
C451 C446 1.392 . S
C451 C450 1.390 . S
C451 H463 0.929 . S
O452 Tb436 2.326 . S
O452 C440 1.242 . S
O453 Eu437 2.324 . S
O453 C440 1.258 . S
O454 Tb436 2.500 . S
O454 C456 1.273 . S
O455 Tb436 2.473 . S
O455 C456 1.257 . S
C456 O454 1.273 . S
C456 O455 1.257 . S
O457 Eu437 2.326 . S
O457 C445 1.242 . S
O458 Tb436 2.324 . S
O458 C445 1.258 . S
O459 Eu437 2.500 . S
O459 C442 1.273 . S
O460 Eu437 2.473 . S
O460 C442 1.257 . S
H461 C447 0.929 . S
H462 C449 0.931 . S
H463 C451 0.929 . S
C464 C465 1.356 . S
C464 C466 1.325 1_554 S
C464 H489 0.945 1_554 S
C465 C464 1.356 . S
C465 C481 1.349 . S
C466 C464 1.325 1_556 S
C466 C485 1.429 1_556 S
C466 H490 0.950 . S
C467 C484 1.574 . S
C467 C486 1.368 . S
C467 H491 0.949 . S
H468 C472 0.949 . S
C469 C470 1.356 . S
C469 C471 1.325 1_556 S
C469 H492 0.945 1_556 S
C470 C469 1.356 . S
C470 C482 1.349 . S
C471 C469 1.325 1_554 S
C471 C487 1.429 1_554 S
C471 H493 0.950 . S
C472 H468 0.949 . S
C472 C480 1.574 . S
C472 C488 1.368 . S
H473 C481 0.950 . S
H474 C479 0.950 . S
H475 C480 0.949 . S
H476 C482 0.950 . S
H477 C483 0.950 . S
H478 C484 0.949 . S
C479 H474 0.950 . S
C479 C481 1.327 . S
C479 C485 1.429 . S
C480 C472 1.574 . S
C480 H475 0.949 . S
C480 C486 1.368 1_556 S
C481 C465 1.349 . S
C481 H473 0.950 . S
C481 C479 1.327 . S
C482 C470 1.349 . S
C482 H476 0.950 . S
C482 C483 1.327 . S
C483 H477 0.950 . S
C483 C482 1.327 . S
C483 C487 1.429 . S
C484 C467 1.574 . S
C484 H478 0.949 . S
C484 C488 1.368 1_554 S
C485 C466 1.429 1_554 S
C485 C479 1.429 . S
C485 C486 1.523 . S
C486 C467 1.368 . S
C486 C480 1.368 1_554 S
C486 C485 1.523 . S
C487 C471 1.429 1_556 S
C487 C483 1.429 . S
C487 C488 1.523 . S
C488 C472 1.368 . S
C488 C484 1.368 1_556 S
C488 C487 1.523 . S
H489 C464 0.945 1_556 S
H490 C466 0.950 . S
H491 C467 0.949 . S
H492 C469 0.945 1_554 S
H493 C471 0.950 . S
C494 C495 1.349 . S
C494 C496 1.327 . S
C494 H519 0.950 . S
C495 C494 1.349 . S
C495 C511 1.349 . S
C496 C494 1.327 . S
C496 C515 1.429 . S
C496 H520 0.950 . S
C497 C514 1.574 . S
C497 C516 1.368 . S
C497 H521 0.949 . S
H498 C502 0.949 . S
C499 C500 1.349 . S
C499 C501 1.327 . S
C499 H522 0.950 . S
C500 C499 1.349 . S
C500 C512 1.349 . S
C501 C499 1.327 . S
C501 C517 1.429 . S
C501 H523 0.950 . S
C502 H498 0.949 . S
C502 C510 1.574 . S
C502 C518 1.368 . S
H503 C511 0.950 . S
H504 C509 0.950 . S
H505 C510 0.949 . S
H506 C512 0.950 . S
H507 C513 0.950 . S
H508 C514 0.949 . S
C509 H504 0.950 . S
C509 C511 1.327 . S
C509 C515 1.429 . S
C510 C502 1.574 . S
C510 H505 0.949 . S
C510 C516 1.368 . S
C511 C495 1.349 . S
C511 H503 0.950 . S
C511 C509 1.327 . S
C512 C500 1.349 . S
C512 H506 0.950 . S
C512 C513 1.327 . S
C513 H507 0.950 . S
C513 C512 1.327 . S
C513 C517 1.429 . S
C514 C497 1.574 . S
C514 H508 0.949 . S
C514 C518 1.368 . S
C515 C496 1.429 . S
C515 C509 1.429 . S
C515 C516 1.523 . S
C516 C497 1.368 . S
C516 C510 1.368 . S
C516 C515 1.523 . S
C517 C501 1.429 . S
C517 C513 1.429 . S
C517 C518 1.523 . S
C518 C502 1.368 . S
C518 C514 1.368 . S
C518 C517 1.523 . S
H519 C494 0.950 . S
H520 C496 0.950 . S
H521 C497 0.949 . S
H522 C499 0.950 . S
H523 C501 0.950 . S
C524 C525 1.349 . S
C524 C526 1.327 . S
C524 H549 0.950 . S
C525 C524 1.349 . S
C525 C541 1.349 . S
C526 C524 1.327 . S
C526 C545 1.429 . S
C526 H550 0.950 . S
C527 C544 1.574 . S
C527 C546 1.368 . S
C527 H551 0.949 . S
H528 C532 0.949 . S
C529 C530 1.349 . S
C529 C531 1.327 . S
C529 H552 0.950 . S
C530 C529 1.349 . S
C530 C542 1.349 . S
C531 C529 1.327 . S
C531 C547 1.429 . S
C531 H553 0.950 . S
C532 H528 0.949 . S
C532 C540 1.574 . S
C532 C548 1.368 . S
H533 C541 0.950 . S
H534 C539 0.950 . S
H535 C540 0.949 . S
H536 C542 0.950 . S
H537 C543 0.950 . S
H538 C544 0.949 . S
C539 H534 0.950 . S
C539 C541 1.327 . S
C539 C545 1.429 . S
C540 C532 1.574 . S
C540 H535 0.949 . S
C540 C546 1.368 . S
C541 C525 1.349 . S
C541 H533 0.950 . S
C541 C539 1.327 . S
C542 C530 1.349 . S
C542 H536 0.950 . S
C542 C543 1.327 . S
C543 H537 0.950 . S
C543 C542 1.327 . S
C543 C547 1.429 . S
C544 C527 1.574 . S
C544 H538 0.949 . S
C544 C548 1.368 . S
C545 C526 1.429 . S
C545 C539 1.429 . S
C545 C546 1.523 . S
C546 C527 1.368 . S
C546 C540 1.368 . S
C546 C545 1.523 . S
C547 C531 1.429 . S
C547 C543 1.429 . S
C547 C548 1.523 . S
C548 C532 1.368 . S
C548 C544 1.368 . S
C548 C547 1.523 . S
H549 C524 0.950 . S
H550 C526 0.950 . S
H551 C527 0.949 . S
H552 C529 0.950 . S
H553 C531 0.950 . S
C554 C555 1.349 . S
C554 C556 1.327 . S
C554 H579 0.950 . S
C555 C554 1.349 . S
C555 C571 1.349 . S
C556 C554 1.327 . S
C556 C575 1.429 . S
C556 H580 0.950 . S
C557 C574 1.574 . S
C557 C576 1.368 . S
C557 H581 0.949 . S
H558 C562 0.949 . S
C559 C560 1.349 . S
C559 C561 1.327 . S
C559 H582 0.950 . S
C560 C559 1.349 . S
C560 C572 1.349 . S
C561 C559 1.327 . S
C561 C577 1.429 . S
C561 H583 0.950 . S
C562 H558 0.949 . S
C562 C570 1.574 . S
C562 C578 1.368 . S
H563 C571 0.950 . S
H564 C569 0.950 . S
H565 C570 0.949 . S
H566 C572 0.950 . S
H567 C573 0.950 . S
H568 C574 0.949 . S
C569 H564 0.950 . S
C569 C571 1.327 . S
C569 C575 1.429 . S
C570 C562 1.574 . S
C570 H565 0.949 . S
C570 C576 1.368 . S
C571 C555 1.349 . S
C571 H563 0.950 . S
C571 C569 1.327 . S
C572 C560 1.349 . S
C572 H566 0.950 . S
C572 C573 1.327 . S
C573 H567 0.950 . S
C573 C572 1.327 . S
C573 C577 1.429 . S
C574 C557 1.574 . S
C574 H568 0.949 . S
C574 C578 1.368 . S
C575 C556 1.429 . S
C575 C569 1.429 . S
C575 C576 1.523 . S
C576 C557 1.368 . S
C576 C570 1.368 . S
C576 C575 1.523 . S
C577 C561 1.429 . S
C577 C573 1.429 . S
C577 C578 1.523 . S
C578 C562 1.368 . S
C578 C574 1.368 . S
C578 C577 1.523 . S
H579 C554 0.950 . S
H580 C556 0.950 . S
H581 C557 0.949 . S
H582 C559 0.950 . S
H583 C561 0.950 . S
C584 C585 1.349 . S
C584 C586 1.327 . S
C584 H609 0.950 . S
C585 C584 1.349 . S
C585 C601 1.349 . S
C586 C584 1.327 . S
C586 C605 1.429 . S
C586 H610 0.950 . S
C587 C604 1.574 . S
C587 C606 1.368 . S
C587 H611 0.949 . S
H588 C592 0.949 . S
C589 C590 1.349 . S
C589 C591 1.327 . S
C589 H612 0.950 . S
C590 C589 1.349 . S
C590 C602 1.349 . S
C591 C589 1.327 . S
C591 C607 1.429 . S
C591 H613 0.950 . S
C592 H588 0.949 . S
C592 C600 1.574 . S
C592 C608 1.368 . S
H593 C601 0.950 . S
H594 C599 0.950 . S
H595 C600 0.949 . S
H596 C602 0.950 . S
H597 C603 0.950 . S
H598 C604 0.949 . S
C599 H594 0.950 . S
C599 C601 1.327 . S
C599 C605 1.429 . S
C600 C592 1.574 . S
C600 H595 0.949 . S
C600 C606 1.368 . S
C601 C585 1.349 . S
C601 H593 0.950 . S
C601 C599 1.327 . S
C602 C590 1.349 . S
C602 H596 0.950 . S
C602 C603 1.327 . S
C603 H597 0.950 . S
C603 C602 1.327 . S
C603 C607 1.429 . S
C604 C587 1.574 . S
C604 H598 0.949 . S
C604 C608 1.368 . S
C605 C586 1.429 . S
C605 C599 1.429 . S
C605 C606 1.523 . S
C606 C587 1.368 . S
C606 C600 1.368 . S
C606 C605 1.523 . S
C607 C591 1.429 . S
C607 C603 1.429 . S
C607 C608 1.523 . S
C608 C592 1.368 . S
C608 C604 1.368 . S
C608 C607 1.523 . S
H609 C584 0.950 . S
H610 C586 0.950 . S
H611 C587 0.949 . S
H612 C589 0.950 . S
H613 C591 0.950 . S
C614 C615 1.349 . S
C614 C616 1.327 . S
C614 H639 0.950 . S
C615 C614 1.349 . S
C615 C631 1.349 . S
C616 C614 1.327 . S
C616 C635 1.429 . S
C616 H640 0.950 . S
C617 C634 1.574 . S
C617 C636 1.368 . S
C617 H641 0.949 . S
H618 C622 0.949 . S
C619 C620 1.349 . S
C619 C621 1.327 . S
C619 H642 0.950 . S
C620 C619 1.349 . S
C620 C632 1.349 . S
C621 C619 1.327 . S
C621 C637 1.429 . S
C621 H643 0.950 . S
C622 H618 0.949 . S
C622 C630 1.574 . S
C622 C638 1.368 . S
H623 C631 0.950 . S
H624 C629 0.950 . S
H625 C630 0.949 . S
H626 C632 0.950 . S
H627 C633 0.950 . S
H628 C634 0.949 . S
C629 H624 0.950 . S
C629 C631 1.327 . S
C629 C635 1.429 . S
C630 C622 1.574 . S
C630 H625 0.949 . S
C630 C636 1.368 . S
C631 C615 1.349 . S
C631 H623 0.950 . S
C631 C629 1.327 . S
C632 C620 1.349 . S
C632 H626 0.950 . S
C632 C633 1.327 . S
C633 H627 0.950 . S
C633 C632 1.327 . S
C633 C637 1.429 . S
C634 C617 1.574 . S
C634 H628 0.949 . S
C634 C638 1.368 . S
C635 C616 1.429 . S
C635 C629 1.429 . S
C635 C636 1.523 . S
C636 C617 1.368 . S
C636 C630 1.368 . S
C636 C635 1.523 . S
C637 C621 1.429 . S
C637 C633 1.429 . S
C637 C638 1.523 . S
C638 C622 1.368 . S
C638 C634 1.368 . S
C638 C637 1.523 . S
H639 C614 0.950 . S
H640 C616 0.950 . S
H641 C617 0.949 . S
H642 C619 0.950 . S
H643 C621 0.950 . S
C644 C645 1.349 1_556 S
C644 C646 1.327 . S
C644 H669 0.950 . S
C645 C644 1.349 1_554 S
C645 C661 1.349 . S
C646 C644 1.327 . S
C646 C665 1.429 1_556 S
C646 H670 0.950 . S
C647 C664 1.574 . S
C647 C666 1.368 . S
C647 H671 0.949 . S
H648 C652 0.949 . S
C649 C650 1.349 1_554 S
C649 C651 1.327 . S
C649 H672 0.950 . S
C650 C649 1.349 1_556 S
C650 C662 1.349 . S
C651 C649 1.327 . S
C651 C667 1.429 1_554 S
C651 H673 0.950 . S
C652 H648 0.949 . S
C652 C660 1.574 . S
C652 C668 1.368 . S
H653 C661 0.950 . S
H654 C659 0.950 . S
H655 C660 0.949 . S
H656 C662 0.950 . S
H657 C663 0.950 . S
H658 C664 0.949 . S
C659 H654 0.950 . S
C659 C661 1.327 . S
C659 C665 1.429 . S
C660 C652 1.574 . S
C660 H655 0.949 . S
C660 C666 1.368 1_556 S
C661 C645 1.349 . S
C661 H653 0.950 . S
C661 C659 1.327 . S
C662 C650 1.349 . S
C662 H656 0.950 . S
C662 C663 1.327 . S
C663 H657 0.950 . S
C663 C662 1.327 . S
C663 C667 1.429 . S
C664 C647 1.574 . S
C664 H658 0.949 . S
C664 C668 1.368 1_554 S
C665 C646 1.429 1_554 S
C665 C659 1.429 . S
C665 C666 1.523 . S
C666 C647 1.368 . S
C666 C660 1.368 1_554 S
C666 C665 1.523 . S
C667 C651 1.429 1_556 S
C667 C663 1.429 . S
C667 C668 1.523 . S
C668 C652 1.368 . S
C668 C664 1.368 1_556 S
C668 C667 1.523 . S
H669 C644 0.950 . S
H670 C646 0.950 . S
H671 C647 0.949 . S
H672 C649 0.950 . S
H673 C651 0.950 . S
C674 C675 1.349 . S
C674 C676 1.327 . S
C674 H699 0.950 . S
C675 C674 1.349 . S
C675 C691 1.349 . S
C676 C674 1.327 . S
C676 C695 1.429 . S
C676 H700 0.950 . S
C677 C694 1.574 . S
C677 C696 1.368 . S
C677 H701 0.949 . S
H678 C682 0.949 . S
C679 C680 1.349 . S
C679 C681 1.327 . S
C679 H702 0.950 . S
C680 C679 1.349 . S
C680 C692 1.349 . S
C681 C679 1.327 . S
C681 C697 1.429 . S
C681 H703 0.950 . S
C682 H678 0.949 . S
C682 C690 1.574 . S
C682 C698 1.368 . S
H683 C691 0.950 . S
H684 C689 0.950 . S
H685 C690 0.949 . S
H686 C692 0.950 . S
H687 C693 0.950 . S
H688 C694 0.949 . S
C689 H684 0.950 . S
C689 C691 1.327 . S
C689 C695 1.429 . S
C690 C682 1.574 . S
C690 H685 0.949 . S
C690 C696 1.368 . S
C691 C675 1.349 . S
C691 H683 0.950 . S
C691 C689 1.327 . S
C692 C680 1.349 . S
C692 H686 0.950 . S
C692 C693 1.327 . S
C693 H687 0.950 . S
C693 C692 1.327 . S
C693 C697 1.429 . S
C694 C677 1.574 . S
C694 H688 0.949 . S
C694 C698 1.368 . S
C695 C676 1.429 . S
C695 C689 1.429 . S
C695 C696 1.523 . S
C696 C677 1.368 . S
C696 C690 1.368 . S
C696 C695 1.523 . S
C697 C681 1.429 . S
C697 C693 1.429 . S
C697 C698 1.523 . S
C698 C682 1.368 . S
C698 C694 1.368 . S
C698 C697 1.523 . S
H699 C674 0.950 . S
H700 C676 0.950 . S
H701 C677 0.949 . S
H702 C679 0.950 . S
H703 C681 0.950 . S
C704 C705 1.349 . S
C704 C706 1.327 . S
C704 H729 0.950 . S
C705 C704 1.349 . S
C705 C721 1.349 . S
C706 C704 1.327 . S
C706 C725 1.429 . S
C706 H730 0.950 . S
C707 C724 1.574 . S
C707 C726 1.368 . S
C707 H731 0.949 . S
H708 C712 0.949 . S
C709 C710 1.349 . S
C709 C711 1.327 . S
C709 H732 0.950 . S
C710 C709 1.349 . S
C710 C722 1.349 . S
C711 C709 1.327 . S
C711 C727 1.429 . S
C711 H733 0.950 . S
C712 H708 0.949 . S
C712 C720 1.574 . S
C712 C728 1.368 . S
H713 C721 0.950 . S
H714 C719 0.950 . S
H715 C720 0.949 . S
H716 C722 0.950 1_554 S
H717 C723 0.950 . S
H718 C724 0.949 . S
C719 H714 0.950 . S
C719 C721 1.327 . S
C719 C725 1.429 . S
C720 C712 1.574 . S
C720 H715 0.949 . S
C720 C726 1.368 . S
C721 C705 1.349 . S
C721 H713 0.950 . S
C721 C719 1.327 . S
C722 C710 1.349 . S
C722 H716 0.950 1_556 S
C722 C723 1.327 . S
C723 H717 0.950 . S
C723 C722 1.327 . S
C723 C727 1.429 . S
C724 C707 1.574 . S
C724 H718 0.949 . S
C724 C728 1.368 . S
C725 C706 1.429 . S
C725 C719 1.429 . S
C725 C726 1.523 . S
C726 C707 1.368 . S
C726 C720 1.368 . S
C726 C725 1.523 . S
C727 C711 1.429 . S
C727 C723 1.429 . S
C727 C728 1.523 . S
C728 C712 1.368 . S
C728 C724 1.368 . S
C728 C727 1.523 . S
H729 C704 0.950 . S
H730 C706 0.950 . S
H731 C707 0.949 . S
H732 C709 0.950 . S
H733 C711 0.950 . S
C734 C735 1.349 . S
C734 C736 1.327 . S
C734 H759 0.950 . S
C735 C734 1.349 . S
C735 C751 1.349 . S
C736 C734 1.327 . S
C736 C755 1.429 . S
C736 H760 0.950 . S
C737 C754 1.574 . S
C737 C756 1.368 . S
C737 H761 0.949 . S
H738 C742 0.949 . S
C739 C740 1.349 . S
C739 C741 1.327 . S
C739 H762 0.950 . S
C740 C739 1.349 . S
C740 C752 1.349 . S
C741 C739 1.327 . S
C741 C757 1.429 . S
C741 H763 0.950 . S
C742 H738 0.949 . S
C742 C750 1.574 . S
C742 C758 1.368 . S
H743 C751 0.950 . S
H744 C749 0.950 . S
H745 C750 0.949 . S
H746 C752 0.950 . S
H747 C753 0.950 . S
H748 C754 0.949 . S
C749 H744 0.950 . S
C749 C751 1.327 . S
C749 C755 1.429 . S
C750 C742 1.574 . S
C750 H745 0.949 . S
C750 C756 1.368 . S
C751 C735 1.349 . S
C751 H743 0.950 . S
C751 C749 1.327 . S
C752 C740 1.349 . S
C752 H746 0.950 . S
C752 C753 1.327 . S
C753 H747 0.950 . S
C753 C752 1.327 . S
C753 C757 1.429 . S
C754 C737 1.574 . S
C754 H748 0.949 . S
C754 C758 1.368 . S
C755 C736 1.429 . S
C755 C749 1.429 . S
C755 C756 1.523 . S
C756 C737 1.368 . S
C756 C750 1.368 . S
C756 C755 1.523 . S
C757 C741 1.429 . S
C757 C753 1.429 . S
C757 C758 1.523 . S
C758 C742 1.368 . S
C758 C754 1.368 . S
C758 C757 1.523 . S
H759 C734 0.950 . S
H760 C736 0.950 . S
H761 C737 0.949 . S
H762 C739 0.950 . S
H763 C741 0.950 . S
C764 C765 1.349 . S
C764 C766 1.327 . S
C764 H789 0.950 . S
C765 C764 1.349 . S
C765 C781 1.349 . S
C766 C764 1.327 . S
C766 C785 1.429 . S
C766 H790 0.950 . S
C767 C784 1.574 . S
C767 C786 1.368 . S
C767 H791 0.949 . S
H768 C772 0.949 . S
C769 C770 1.349 . S
C769 C771 1.327 . S
C769 H792 0.950 . S
C770 C769 1.349 . S
C770 C782 1.349 . S
C771 C769 1.327 . S
C771 C787 1.429 . S
C771 H793 0.950 . S
C772 H768 0.949 . S
C772 C780 1.574 . S
C772 C788 1.368 . S
H773 C781 0.950 . S
H774 C779 0.950 . S
H775 C780 0.949 . S
H776 C782 0.950 . S
H777 C783 0.950 . S
H778 C784 0.949 . S
C779 H774 0.950 . S
C779 C781 1.327 . S
C779 C785 1.429 . S
C780 C772 1.574 . S
C780 H775 0.949 . S
C780 C786 1.368 . S
C781 C765 1.349 . S
C781 H773 0.950 . S
C781 C779 1.327 . S
C782 C770 1.349 . S
C782 H776 0.950 . S
C782 C783 1.327 . S
C783 H777 0.950 . S
C783 C782 1.327 . S
C783 C787 1.429 . S
C784 C767 1.574 . S
C784 H778 0.949 . S
C784 C788 1.368 . S
C785 C766 1.429 . S
C785 C779 1.429 . S
C785 C786 1.523 . S
C786 C767 1.368 . S
C786 C780 1.368 . S
C786 C785 1.523 . S
C787 C771 1.429 . S
C787 C783 1.429 . S
C787 C788 1.523 . S
C788 C772 1.368 . S
C788 C784 1.368 . S
C788 C787 1.523 . S
H789 C764 0.950 . S
H790 C766 0.950 . S
H791 C767 0.949 . S
H792 C769 0.950 . S
H793 C771 0.950 . S
C794 C795 1.349 . S
C794 C796 1.327 . S
C794 H819 0.950 . S
C795 C794 1.349 . S
C795 C811 1.349 . S
C796 C794 1.327 . S
C796 C815 1.429 . S
C796 H820 0.950 . S
C797 C814 1.574 . S
C797 C816 1.368 . S
C797 H821 0.949 . S
H798 C802 0.949 . S
C799 C800 1.349 . S
C799 C801 1.327 . S
C799 H822 0.950 . S
C800 C799 1.349 . S
C800 C812 1.349 . S
C801 C799 1.327 . S
C801 C817 1.429 . S
C801 H823 0.950 . S
C802 H798 0.949 . S
C802 C810 1.574 . S
C802 C818 1.368 . S
H803 C811 0.950 . S
H804 C809 0.950 . S
H805 C810 0.949 . S
H806 C812 0.950 . S
H807 C813 0.950 . S
H808 C814 0.949 . S
C809 H804 0.950 . S
C809 C811 1.327 . S
C809 C815 1.429 . S
C810 C802 1.574 . S
C810 H805 0.949 . S
C810 C816 1.368 . S
C811 C795 1.349 . S
C811 H803 0.950 . S
C811 C809 1.327 . S
C812 C800 1.349 . S
C812 H806 0.950 . S
C812 C813 1.327 . S
C813 H807 0.950 . S
C813 C812 1.327 . S
C813 C817 1.429 . S
C814 C797 1.574 . S
C814 H808 0.949 . S
C814 C818 1.368 . S
C815 C796 1.429 . S
C815 C809 1.429 . S
C815 C816 1.523 . S
C816 C797 1.368 . S
C816 C810 1.368 . S
C816 C815 1.523 . S
C817 C801 1.429 . S
C817 C813 1.429 . S
C817 C818 1.523 . S
C818 C802 1.368 . S
C818 C814 1.368 . S
C818 C817 1.523 . S
H819 C794 0.950 . S
H820 C796 0.950 . S
H821 C797 0.949 . S
H822 C799 0.950 . S
H823 C801 0.950 . S
C824 C825 1.349 . S
C824 C826 1.327 . S
C824 H849 0.950 . S
C825 C824 1.349 . S
C825 C841 1.349 . S
C826 C824 1.327 . S
C826 C845 1.429 . S
C826 H850 0.950 . S
C827 C844 1.574 . S
C827 C846 1.368 . S
C827 H851 0.949 . S
H828 C832 0.949 . S
C829 C830 1.349 . S
C829 C831 1.327 . S
C829 H852 0.950 . S
C830 C829 1.349 . S
C830 C842 1.349 . S
C831 C829 1.327 . S
C831 C847 1.429 . S
C831 H853 0.950 . S
C832 H828 0.949 . S
C832 C840 1.574 . S
C832 C848 1.368 . S
H833 C841 0.950 . S
H834 C839 0.950 . S
H835 C840 0.949 . S
H836 C842 0.950 . S
H837 C843 0.950 . S
H838 C844 0.949 . S
C839 H834 0.950 . S
C839 C841 1.327 . S
C839 C845 1.429 . S
C840 C832 1.574 . S
C840 H835 0.949 . S
C840 C846 1.368 . S
C841 C825 1.349 . S
C841 H833 0.950 . S
C841 C839 1.327 . S
C842 C830 1.349 . S
C842 H836 0.950 . S
C842 C843 1.327 . S
C843 H837 0.950 . S
C843 C842 1.327 . S
C843 C847 1.429 . S
C844 C827 1.574 . S
C844 H838 0.949 . S
C844 C848 1.368 . S
C845 C826 1.429 . S
C845 C839 1.429 . S
C845 C846 1.523 . S
C846 C827 1.368 . S
C846 C840 1.368 . S
C846 C845 1.523 . S
C847 C831 1.429 . S
C847 C843 1.429 . S
C847 C848 1.523 . S
C848 C832 1.368 . S
C848 C844 1.368 . S
C848 C847 1.523 . S
H849 C824 0.950 . S
H850 C826 0.950 . S
H851 C827 0.949 . S
H852 C829 0.950 . S
H853 C831 0.950 . S
C854 C855 1.349 . S
C854 C856 1.327 . S
C854 H879 0.950 . S
C855 C854 1.349 . S
C855 C871 1.349 . S
C856 C854 1.327 . S
C856 C875 1.429 . S
C856 H880 0.950 . S
C857 C874 1.574 . S
C857 C876 1.368 . S
C857 H881 0.949 . S
H858 C862 0.949 . S
C859 C860 1.349 . S
C859 C861 1.327 . S
C859 H882 0.950 . S
C860 C859 1.349 . S
C860 C872 1.349 . S
C861 C859 1.327 . S
C861 C877 1.429 . S
C861 H883 0.950 . S
C862 H858 0.949 . S
C862 C870 1.574 . S
C862 C878 1.368 . S
H863 C871 0.950 . S
H864 C869 0.950 . S
H865 C870 0.949 . S
H866 C872 0.950 . S
H867 C873 0.950 . S
H868 C874 0.949 . S
C869 H864 0.950 . S
C869 C871 1.327 . S
C869 C875 1.429 . S
C870 C862 1.574 . S
C870 H865 0.949 . S
C870 C876 1.368 . S
C871 C855 1.349 . S
C871 H863 0.950 . S
C871 C869 1.327 . S
C872 C860 1.349 . S
C872 H866 0.950 . S
C872 C873 1.327 . S
C873 H867 0.950 . S
C873 C872 1.327 . S
C873 C877 1.429 . S
C874 C857 1.574 . S
C874 H868 0.949 . S
C874 C878 1.368 . S
C875 C856 1.429 . S
C875 C869 1.429 . S
C875 C876 1.523 . S
C876 C857 1.368 . S
C876 C870 1.368 . S
C876 C875 1.523 . S
C877 C861 1.429 . S
C877 C873 1.429 . S
C877 C878 1.523 . S
C878 C862 1.368 . S
C878 C874 1.368 . S
C878 C877 1.523 . S
H879 C854 0.950 . S
H880 C856 0.950 . S
H881 C857 0.949 . S
H882 C859 0.950 . S
H883 C861 0.950 . S
C884 C885 1.349 . S
C884 C886 1.327 . S
C884 H909 0.950 . S
C885 C884 1.349 . S
C885 C901 1.349 . S
C886 C884 1.327 . S
C886 C905 1.429 . S
C886 H910 0.950 . S
C887 C904 1.574 . S
C887 C906 1.368 . S
C887 H911 0.949 . S
H888 C892 0.949 . S
C889 C890 1.349 . S
C889 C891 1.327 . S
C889 H912 0.950 . S
C890 C889 1.349 . S
C890 C902 1.349 . S
C891 C889 1.327 . S
C891 C907 1.429 . S
C891 H913 0.950 . S
C892 H888 0.949 . S
C892 C900 1.574 . S
C892 C908 1.368 . S
H893 C901 0.950 . S
H894 C899 0.950 . S
H895 C900 0.949 . S
H896 C902 0.950 . S
H897 C903 0.950 . S
H898 C904 0.949 . S
C899 H894 0.950 . S
C899 C901 1.327 . S
C899 C905 1.429 . S
C900 C892 1.574 . S
C900 H895 0.949 . S
C900 C906 1.368 . S
C901 C885 1.349 . S
C901 H893 0.950 . S
C901 C899 1.327 . S
C902 C890 1.349 . S
C902 H896 0.950 . S
C902 C903 1.327 . S
C903 H897 0.950 . S
C903 C902 1.327 . S
C903 C907 1.429 . S
C904 C887 1.574 . S
C904 H898 0.949 . S
C904 C908 1.368 . S
C905 C886 1.429 . S
C905 C899 1.429 . S
C905 C906 1.523 . S
C906 C887 1.368 . S
C906 C900 1.368 . S
C906 C905 1.523 . S
C907 C891 1.429 . S
C907 C903 1.429 . S
C907 C908 1.523 . S
C908 C892 1.368 . S
C908 C904 1.368 . S
C908 C907 1.523 . S
H909 C884 0.950 . S
H910 C886 0.950 . S
H911 C887 0.949 . S
H912 C889 0.950 . S
H913 C891 0.950 . S
C914 C915 1.349 . S
C914 C916 1.327 . S
C914 H939 0.950 . S
C915 C914 1.349 . S
C915 C931 1.349 . S
C916 C914 1.327 . S
C916 C935 1.429 . S
C916 H940 0.950 . S
C917 C934 1.574 . S
C917 C936 1.368 . S
C917 H941 0.949 . S
H918 C922 0.949 . S
C919 C920 1.349 . S
C919 C921 1.327 . S
C919 H942 0.950 . S
C920 C919 1.349 . S
C920 C932 1.349 . S
C921 C919 1.327 . S
C921 C937 1.429 . S
C921 H943 0.950 . S
C922 H918 0.949 . S
C922 C930 1.574 . S
C922 C938 1.368 . S
H923 C931 0.954 . S
H924 C929 0.950 . S
H925 C930 0.949 . S
H926 C932 0.950 . S
H927 C933 0.950 . S
H928 C934 0.949 . S
C929 H924 0.950 . S
C929 C931 1.327 . S
C929 C935 1.429 . S
C930 C922 1.574 . S
C930 H925 0.949 . S
C930 C936 1.368 . S
C931 C915 1.349 . S
C931 H923 0.954 . S
C931 C929 1.327 . S
C932 C920 1.349 . S
C932 H926 0.950 . S
C932 C933 1.327 . S
C933 H927 0.950 . S
C933 C932 1.327 . S
C933 C937 1.429 . S
C934 C917 1.574 . S
C934 H928 0.949 . S
C934 C938 1.368 . S
C935 C916 1.429 . S
C935 C929 1.429 . S
C935 C936 1.523 . S
C936 C917 1.368 . S
C936 C930 1.368 . S
C936 C935 1.523 . S
C937 C921 1.429 . S
C937 C933 1.429 . S
C937 C938 1.523 . S
C938 C922 1.368 . S
C938 C934 1.368 . S
C938 C937 1.523 . S
H939 C914 0.950 . S
H940 C916 0.950 . S
H941 C917 0.949 . S
H942 C919 0.950 . S
H943 C921 0.950 . S
C944 C945 1.349 . S
C944 C946 1.327 . S
C944 H969 0.950 . S
C945 C944 1.349 . S
C945 C961 1.349 . S
C946 C944 1.327 . S
C946 C965 1.429 . S
C946 H970 0.950 . S
C947 C964 1.574 . S
C947 C966 1.368 . S
C947 H971 0.949 . S
H948 C952 0.949 . S
C949 C950 1.349 . S
C949 C951 1.327 . S
C949 H972 0.950 . S
C950 C949 1.349 . S
C950 C962 1.349 . S
C951 C949 1.327 . S
C951 C967 1.429 . S
C951 H973 0.950 . S
C952 H948 0.949 . S
C952 C960 1.574 . S
C952 C968 1.368 . S
H953 C961 0.950 . S
H954 C959 0.950 . S
H955 C960 0.949 . S
H956 C962 0.950 . S
H957 C963 0.950 . S
H958 C964 0.949 . S
C959 H954 0.950 . S
C959 C961 1.327 . S
C959 C965 1.429 . S
C960 C952 1.574 . S
C960 H955 0.949 . S
C960 C966 1.368 . S
C961 C945 1.349 . S
C961 H953 0.950 . S
C961 C959 1.327 . S
C962 C950 1.349 . S
C962 H956 0.950 . S
C962 C963 1.327 . S
C963 H957 0.950 . S
C963 C962 1.327 . S
C963 C967 1.429 . S
C964 C947 1.574 . S
C964 H958 0.949 . S
C964 C968 1.368 . S
C965 C946 1.429 . S
C965 C959 1.429 . S
C965 C966 1.523 . S
C966 C947 1.368 . S
C966 C960 1.368 . S
C966 C965 1.523 . S
C967 C951 1.429 . S
C967 C963 1.429 . S
C967 C968 1.523 . S
C968 C952 1.368 . S
C968 C964 1.368 . S
C968 C967 1.523 . S
H969 C944 0.950 . S
H970 C946 0.950 . S
H971 C947 0.949 . S
H972 C949 0.950 . S
H973 C951 0.950 . S
C974 C975 1.349 . S
C974 C976 1.327 . S
C974 H999 0.950 . S
C975 C974 1.349 . S
C975 C991 1.349 . S
C976 C974 1.327 . S
C976 C995 1.429 . S
C976 H1000 0.950 . S
C977 C994 1.574 . S
C977 C996 1.368 . S
C977 H1001 0.949 . S
H978 C982 0.949 . S
C979 C980 1.349 . S
C979 C981 1.327 . S
C979 H1002 0.950 . S
C980 C979 1.349 . S
C980 C992 1.349 . S
C981 C979 1.327 . S
C981 C997 1.429 . S
C981 H1003 0.950 . S
C982 H978 0.949 . S
C982 C990 1.574 . S
C982 C998 1.368 . S
H983 C991 0.950 . S
H984 C989 0.950 . S
H985 C990 0.949 . S
H986 C992 0.950 . S
H987 C993 0.950 . S
H988 C994 0.949 . S
C989 H984 0.950 . S
C989 C991 1.327 . S
C989 C995 1.429 . S
C990 C982 1.574 . S
C990 H985 0.949 . S
C990 C996 1.368 . S
C991 C975 1.349 . S
C991 H983 0.950 . S
C991 C989 1.327 . S
C992 C980 1.349 . S
C992 H986 0.950 . S
C992 C993 1.327 . S
C993 H987 0.950 . S
C993 C992 1.327 . S
C993 C997 1.429 . S
C994 C977 1.574 . S
C994 H988 0.949 . S
C994 C998 1.368 . S
C995 C976 1.429 . S
C995 C989 1.429 . S
C995 C996 1.523 . S
C996 C977 1.368 . S
C996 C990 1.368 . S
C996 C995 1.523 . S
C997 C981 1.429 . S
C997 C993 1.429 . S
C997 C998 1.523 . S
C998 C982 1.368 . S
C998 C994 1.368 . S
C998 C997 1.523 . S
H999 C974 0.950 . S
H1000 C976 0.950 . S
H1001 C977 0.949 . S
H1002 C979 0.950 . S
H1003 C981 0.950 . S
C1004 C1005 1.349 . S
C1004 C1006 1.327 . S
C1004 H1029 0.950 . S
C1005 C1004 1.349 . S
C1005 C1021 1.349 . S
C1006 C1004 1.327 . S
C1006 C1025 1.429 . S
C1006 H1030 0.950 . S
C1007 C1024 1.574 . S
C1007 C1026 1.368 . S
C1007 H1031 0.949 . S
H1008 C1012 0.949 . S
C1009 C1010 1.349 . S
C1009 C1011 1.327 . S
C1009 H1032 0.950 . S
C1010 C1009 1.349 . S
C1010 C1022 1.349 . S
C1011 C1009 1.327 . S
C1011 C1027 1.429 . S
C1011 H1033 0.950 . S
C1012 H1008 0.949 . S
C1012 C1020 1.574 . S
C1012 C1028 1.368 . S
H1013 C1021 0.950 . S
H1014 C1019 0.950 . S
H1015 C1020 0.949 . S
H1016 C1022 0.950 1_554 S
H1017 C1023 0.950 . S
H1018 C1024 0.949 . S
C1019 H1014 0.950 . S
C1019 C1021 1.327 . S
C1019 C1025 1.429 . S
C1020 C1012 1.574 . S
C1020 H1015 0.949 . S
C1020 C1026 1.368 . S
C1021 C1005 1.349 . S
C1021 H1013 0.950 . S
C1021 C1019 1.327 . S
C1022 C1010 1.349 . S
C1022 H1016 0.950 1_556 S
C1022 C1023 1.327 . S
C1023 H1017 0.950 . S
C1023 C1022 1.327 . S
C1023 C1027 1.429 . S
C1024 C1007 1.574 . S
C1024 H1018 0.949 . S
C1024 C1028 1.368 . S
C1025 C1006 1.429 . S
C1025 C1019 1.429 . S
C1025 C1026 1.523 . S
C1026 C1007 1.368 . S
C1026 C1020 1.368 . S
C1026 C1025 1.523 . S
C1027 C1011 1.429 . S
C1027 C1023 1.429 . S
C1027 C1028 1.523 . S
C1028 C1012 1.368 . S
C1028 C1024 1.368 . S
C1028 C1027 1.523 . S
H1029 C1004 0.950 . S
H1030 C1006 0.950 . S
H1031 C1007 0.949 . S
H1032 C1009 0.950 . S
H1033 C1011 0.950 . S
C1034 C1035 1.349 . S
C1034 C1036 1.327 . S
C1034 H1059 0.950 . S
C1035 C1034 1.349 . S
C1035 C1051 1.349 . S
C1036 C1034 1.327 . S
C1036 C1055 1.429 . S
C1036 H1060 0.950 . S
C1037 C1054 1.574 . S
C1037 C1056 1.368 . S
C1037 H1061 0.949 . S
H1038 C1042 0.949 . S
C1039 C1040 1.349 . S
C1039 C1041 1.327 . S
C1039 H1062 0.950 . S
C1040 C1039 1.349 . S
C1040 C1052 1.349 . S
C1041 C1039 1.327 . S
C1041 C1057 1.429 . S
C1041 H1063 0.950 . S
C1042 H1038 0.949 . S
C1042 C1050 1.574 . S
C1042 C1058 1.368 . S
H1043 C1051 0.950 . S
H1044 C1049 0.950 . S
H1045 C1050 0.949 . S
H1046 C1052 0.950 . S
H1047 C1053 0.950 . S
H1048 C1054 0.949 . S
C1049 H1044 0.950 . S
C1049 C1051 1.327 . S
C1049 C1055 1.429 . S
C1050 C1042 1.574 . S
C1050 H1045 0.949 . S
C1050 C1056 1.368 . S
C1051 C1035 1.349 . S
C1051 H1043 0.950 . S
C1051 C1049 1.327 . S
C1052 C1040 1.349 . S
C1052 H1046 0.950 . S
C1052 C1053 1.327 . S
C1053 H1047 0.950 . S
C1053 C1052 1.327 . S
C1053 C1057 1.429 . S
C1054 C1037 1.574 . S
C1054 H1048 0.949 . S
C1054 C1058 1.368 . S
C1055 C1036 1.429 . S
C1055 C1049 1.429 . S
C1055 C1056 1.523 . S
C1056 C1037 1.368 . S
C1056 C1050 1.368 . S
C1056 C1055 1.523 . S
C1057 C1041 1.429 . S
C1057 C1053 1.429 . S
C1057 C1058 1.523 . S
C1058 C1042 1.368 . S
C1058 C1054 1.368 . S
C1058 C1057 1.523 . S
H1059 C1034 0.950 . S
H1060 C1036 0.950 . S
H1061 C1037 0.949 . S
H1062 C1039 0.950 . S
H1063 C1041 0.950 . S
C1064 C1065 1.349 . S
C1064 C1066 1.327 . S
C1064 H1089 0.950 . S
C1065 C1064 1.349 . S
C1065 C1081 1.349 . S
C1066 C1064 1.327 . S
C1066 C1085 1.429 . S
C1066 H1090 0.950 . S
C1067 C1084 1.574 . S
C1067 C1086 1.368 . S
C1067 H1091 0.949 . S
H1068 C1072 0.949 . S
C1069 C1070 1.349 . S
C1069 C1071 1.327 . S
C1069 H1092 0.950 . S
C1070 C1069 1.349 . S
C1070 C1082 1.349 . S
C1071 C1069 1.327 . S
C1071 C1087 1.429 . S
C1071 H1093 0.950 . S
C1072 H1068 0.949 . S
C1072 C1080 1.574 . S
C1072 C1088 1.368 . S
H1073 C1081 0.950 . S
H1074 C1079 0.950 . S
H1075 C1080 0.949 . S
H1076 C1082 0.950 . S
H1077 C1083 0.950 . S
H1078 C1084 0.949 . S
C1079 H1074 0.950 . S
C1079 C1081 1.327 . S
C1079 C1085 1.429 . S
C1080 C1072 1.574 . S
C1080 H1075 0.949 . S
C1080 C1086 1.368 . S
C1081 C1065 1.349 . S
C1081 H1073 0.950 . S
C1081 C1079 1.327 . S
C1082 C1070 1.349 . S
C1082 H1076 0.950 . S
C1082 C1083 1.327 . S
C1083 H1077 0.950 . S
C1083 C1082 1.327 . S
C1083 C1087 1.429 . S
C1084 C1067 1.574 . S
C1084 H1078 0.949 . S
C1084 C1088 1.368 . S
C1085 C1066 1.429 . S
C1085 C1079 1.429 . S
C1085 C1086 1.523 . S
C1086 C1067 1.368 . S
C1086 C1080 1.368 . S
C1086 C1085 1.523 . S
C1087 C1071 1.429 . S
C1087 C1083 1.429 . S
C1087 C1088 1.523 . S
C1088 C1072 1.368 . S
C1088 C1084 1.368 . S
C1088 C1087 1.523 . S
H1089 C1064 0.950 . S
H1090 C1066 0.950 . S
H1091 C1067 0.949 . S
H1092 C1069 0.950 . S
H1093 C1071 0.950 . S
C1094 C1095 1.349 . S
C1094 C1096 1.327 . S
C1094 H1119 0.950 1_554 S
C1095 C1094 1.349 . S
C1095 C1111 1.349 . S
C1096 C1094 1.327 . S
C1096 C1115 1.429 . S
C1096 H1120 0.950 . S
C1097 C1114 1.574 . S
C1097 C1116 1.368 . S
C1097 H1121 0.949 . S
H1098 C1102 0.949 . S
C1099 C1100 1.349 . S
C1099 C1101 1.327 . S
C1099 H1122 0.950 . S
C1100 C1099 1.349 . S
C1100 C1112 1.349 . S
C1101 C1099 1.327 . S
C1101 C1117 1.429 . S
C1101 H1123 0.950 . S
C1102 H1098 0.949 . S
C1102 C1110 1.574 . S
C1102 C1118 1.368 . S
H1103 C1111 0.950 . S
H1104 C1109 0.950 . S
H1105 C1110 0.949 . S
H1106 C1112 0.950 . S
H1107 C1113 0.950 . S
H1108 C1114 0.949 . S
C1109 H1104 0.950 . S
C1109 C1111 1.327 . S
C1109 C1115 1.429 . S
C1110 C1102 1.574 . S
C1110 H1105 0.949 . S
C1110 C1116 1.368 . S
C1111 C1095 1.349 . S
C1111 H1103 0.950 . S
C1111 C1109 1.327 . S
C1112 C1100 1.349 . S
C1112 H1106 0.950 . S
C1112 C1113 1.327 . S
C1113 H1107 0.950 . S
C1113 C1112 1.327 . S
C1113 C1117 1.429 . S
C1114 C1097 1.574 . S
C1114 H1108 0.949 . S
C1114 C1118 1.368 . S
C1115 C1096 1.429 . S
C1115 C1109 1.429 . S
C1115 C1116 1.523 . S
C1116 C1097 1.368 . S
C1116 C1110 1.368 . S
C1116 C1115 1.523 . S
C1117 C1101 1.429 . S
C1117 C1113 1.429 . S
C1117 C1118 1.523 . S
C1118 C1102 1.368 . S
C1118 C1114 1.368 . S
C1118 C1117 1.523 . S
H1119 C1094 0.950 1_556 S
H1120 C1096 0.950 . S
H1121 C1097 0.949 . S
H1122 C1099 0.950 . S
H1123 C1101 0.950 . S
C1124 C1125 1.349 . S
C1124 C1126 1.327 . S
C1124 H1149 0.950 . S
C1125 C1124 1.349 . S
C1125 C1141 1.349 . S
C1126 C1124 1.327 . S
C1126 C1145 1.429 . S
C1126 H1150 0.950 . S
C1127 C1144 1.574 . S
C1127 C1146 1.368 . S
C1127 H1151 0.949 . S
H1128 C1132 0.949 . S
C1129 C1130 1.349 . S
C1129 C1131 1.327 . S
C1129 H1152 0.950 . S
C1130 C1129 1.349 . S
C1130 C1142 1.349 . S
C1131 C1129 1.327 . S
C1131 C1147 1.429 . S
C1131 H1153 0.950 . S
C1132 H1128 0.949 . S
C1132 C1140 1.574 . S
C1132 C1148 1.368 . S
H1133 C1141 0.950 . S
H1134 C1139 0.950 . S
H1135 C1140 0.949 . S
H1136 C1142 0.950 . S
H1137 C1143 0.950 . S
H1138 C1144 0.949 . S
C1139 H1134 0.950 . S
C1139 C1141 1.327 . S
C1139 C1145 1.429 . S
C1140 C1132 1.574 . S
C1140 H1135 0.949 . S
C1140 C1146 1.368 . S
C1141 C1125 1.349 . S
C1141 H1133 0.950 . S
C1141 C1139 1.327 . S
C1142 C1130 1.349 . S
C1142 H1136 0.950 . S
C1142 C1143 1.327 . S
C1143 H1137 0.950 . S
C1143 C1142 1.327 . S
C1143 C1147 1.429 . S
C1144 C1127 1.574 . S
C1144 H1138 0.949 . S
C1144 C1148 1.368 . S
C1145 C1126 1.429 . S
C1145 C1139 1.429 . S
C1145 C1146 1.523 . S
C1146 C1127 1.368 . S
C1146 C1140 1.368 . S
C1146 C1145 1.523 . S
C1147 C1131 1.429 . S
C1147 C1143 1.429 . S
C1147 C1148 1.523 . S
C1148 C1132 1.368 . S
C1148 C1144 1.368 . S
C1148 C1147 1.523 . S
H1149 C1124 0.950 . S
H1150 C1126 0.950 . S
H1151 C1127 0.949 . S
H1152 C1129 0.950 . S
H1153 C1131 0.950 . S
C1154 C1155 1.349 . S
C1154 C1156 1.327 . S
C1154 H1179 0.950 . S
C1155 C1154 1.349 . S
C1155 C1171 1.349 . S
C1156 C1154 1.327 . S
C1156 C1175 1.429 . S
C1156 H1180 0.950 . S
C1157 C1174 1.574 . S
C1157 C1176 1.368 . S
C1157 H1181 0.949 . S
H1158 C1162 0.949 . S
C1159 C1160 1.349 . S
C1159 C1161 1.327 . S
C1159 H1182 0.950 . S
C1160 C1159 1.349 . S
C1160 C1172 1.349 . S
C1161 C1159 1.327 . S
C1161 C1177 1.429 . S
C1161 H1183 0.950 . S
C1162 H1158 0.949 . S
C1162 C1170 1.574 . S
C1162 C1178 1.368 . S
H1163 C1171 0.950 . S
H1164 C1169 0.950 . S
H1165 C1170 0.949 . S
H1166 C1172 0.950 . S
H1167 C1173 0.950 . S
H1168 C1174 0.949 . S
C1169 H1164 0.950 . S
C1169 C1171 1.327 . S
C1169 C1175 1.429 . S
C1170 C1162 1.574 . S
C1170 H1165 0.949 . S
C1170 C1176 1.368 . S
C1171 C1155 1.349 . S
C1171 H1163 0.950 . S
C1171 C1169 1.327 . S
C1172 C1160 1.349 . S
C1172 H1166 0.950 . S
C1172 C1173 1.327 . S
C1173 H1167 0.950 . S
C1173 C1172 1.327 . S
C1173 C1177 1.429 . S
C1174 C1157 1.574 . S
C1174 H1168 0.949 . S
C1174 C1178 1.368 . S
C1175 C1156 1.429 . S
C1175 C1169 1.429 . S
C1175 C1176 1.523 . S
C1176 C1157 1.368 . S
C1176 C1170 1.368 . S
C1176 C1175 1.523 . S
C1177 C1161 1.429 . S
C1177 C1173 1.429 . S
C1177 C1178 1.523 . S
C1178 C1162 1.368 . S
C1178 C1174 1.368 . S
C1178 C1177 1.523 . S
H1179 C1154 0.950 . S
H1180 C1156 0.950 . S
H1181 C1157 0.949 . S
H1182 C1159 0.950 . S
H1183 C1161 0.950 . S
C1184 C1185 1.349 . S
C1184 C1186 1.327 . S
C1184 H1209 0.950 . S
C1185 C1184 1.349 . S
C1185 C1201 1.349 . S
C1186 C1184 1.327 . S
C1186 C1205 1.429 . S
C1186 H1210 0.950 . S
C1187 C1204 1.574 . S
C1187 C1206 1.368 . S
C1187 H1211 0.949 . S
H1188 C1192 0.949 . S
C1189 C1190 1.349 . S
C1189 C1191 1.327 . S
C1189 H1212 0.950 . S
C1190 C1189 1.349 . S
C1190 C1202 1.349 . S
C1191 C1189 1.327 . S
C1191 C1207 1.429 . S
C1191 H1213 0.950 . S
C1192 H1188 0.949 . S
C1192 C1200 1.574 . S
C1192 C1208 1.368 . S
H1193 C1201 0.950 . S
H1194 C1199 0.950 . S
H1195 C1200 0.949 . S
H1196 C1202 0.950 . S
H1197 C1203 0.950 . S
H1198 C1204 0.949 . S
C1199 H1194 0.950 . S
C1199 C1201 1.327 . S
C1199 C1205 1.429 . S
C1200 C1192 1.574 . S
C1200 H1195 0.949 . S
C1200 C1206 1.368 . S
C1201 C1185 1.349 . S
C1201 H1193 0.950 . S
C1201 C1199 1.327 . S
C1202 C1190 1.349 . S
C1202 H1196 0.950 . S
C1202 C1203 1.327 . S
C1203 H1197 0.950 . S
C1203 C1202 1.327 . S
C1203 C1207 1.429 . S
C1204 C1187 1.574 . S
C1204 H1198 0.949 . S
C1204 C1208 1.368 . S
C1205 C1186 1.429 . S
C1205 C1199 1.429 . S
C1205 C1206 1.523 . S
C1206 C1187 1.368 . S
C1206 C1200 1.368 . S
C1206 C1205 1.523 . S
C1207 C1191 1.429 . S
C1207 C1203 1.429 . S
C1207 C1208 1.523 . S
C1208 C1192 1.368 . S
C1208 C1204 1.368 . S
C1208 C1207 1.523 . S
H1209 C1184 0.950 . S
H1210 C1186 0.950 . S
H1211 C1187 0.949 . S
H1212 C1189 0.950 . S
H1213 C1191 0.950 . S
C1214 C1215 1.349 . S
C1214 C1216 1.327 . S
C1214 H1239 0.950 . S
C1215 C1214 1.349 . S
C1215 C1231 1.349 . S
C1216 C1214 1.327 . S
C1216 C1235 1.429 . S
C1216 H1240 0.950 . S
C1217 C1234 1.574 . S
C1217 C1236 1.368 . S
C1217 H1241 0.949 . S
H1218 C1222 0.949 . S
C1219 C1220 1.349 . S
C1219 C1221 1.327 . S
C1219 H1242 0.950 . S
C1220 C1219 1.349 . S
C1220 C1232 1.349 . S
C1221 C1219 1.327 . S
C1221 C1237 1.429 . S
C1221 H1243 0.950 . S
C1222 H1218 0.949 . S
C1222 C1230 1.574 . S
C1222 C1238 1.368 . S
H1223 C1231 0.950 . S
H1224 C1229 0.950 . S
H1225 C1230 0.949 . S
H1226 C1232 0.950 . S
H1227 C1233 0.950 . S
H1228 C1234 0.949 . S
C1229 H1224 0.950 . S
C1229 C1231 1.327 . S
C1229 C1235 1.429 . S
C1230 C1222 1.574 . S
C1230 H1225 0.949 . S
C1230 C1236 1.368 . S
C1231 C1215 1.349 . S
C1231 H1223 0.950 . S
C1231 C1229 1.327 . S
C1232 C1220 1.349 . S
C1232 H1226 0.950 . S
C1232 C1233 1.327 . S
C1233 H1227 0.950 . S
C1233 C1232 1.327 . S
C1233 C1237 1.429 . S
C1234 C1217 1.574 . S
C1234 H1228 0.949 . S
C1234 C1238 1.368 . S
C1235 C1216 1.429 . S
C1235 C1229 1.429 . S
C1235 C1236 1.523 . S
C1236 C1217 1.368 . S
C1236 C1230 1.368 . S
C1236 C1235 1.523 . S
C1237 C1221 1.429 . S
C1237 C1233 1.429 . S
C1237 C1238 1.523 . S
C1238 C1222 1.368 . S
C1238 C1234 1.368 . S
C1238 C1237 1.523 . S
H1239 C1214 0.950 . S
H1240 C1216 0.950 . S
H1241 C1217 0.949 . S
H1242 C1219 0.950 . S
H1243 C1221 0.950 . S
C1244 C1245 1.349 . S
C1244 C1246 1.327 . S
C1244 H1269 0.950 . S
C1245 C1244 1.349 . S
C1245 C1261 1.349 . S
C1246 C1244 1.327 . S
C1246 C1265 1.429 . S
C1246 H1270 0.950 . S
C1247 C1264 1.574 . S
C1247 C1266 1.368 . S
C1247 H1271 0.949 . S
H1248 C1252 0.949 . S
C1249 C1250 1.349 . S
C1249 C1251 1.327 . S
C1249 H1272 0.950 . S
C1250 C1249 1.349 . S
C1250 C1262 1.349 . S
C1251 C1249 1.327 . S
C1251 C1267 1.429 . S
C1251 H1273 0.950 . S
C1252 H1248 0.949 . S
C1252 C1260 1.574 . S
C1252 C1268 1.368 . S
H1253 C1261 0.950 . S
H1254 C1259 0.950 . S
H1255 C1260 0.949 . S
H1256 C1262 0.950 . S
H1257 C1263 0.950 . S
H1258 C1264 0.949 . S
C1259 H1254 0.950 . S
C1259 C1261 1.327 . S
C1259 C1265 1.429 . S
C1260 C1252 1.574 . S
C1260 H1255 0.949 . S
C1260 C1266 1.368 . S
C1261 C1245 1.349 . S
C1261 H1253 0.950 . S
C1261 C1259 1.327 . S
C1262 C1250 1.349 . S
C1262 H1256 0.950 . S
C1262 C1263 1.327 . S
C1263 H1257 0.950 . S
C1263 C1262 1.327 . S
C1263 C1267 1.429 . S
C1264 C1247 1.574 . S
C1264 H1258 0.949 . S
C1264 C1268 1.368 . S
C1265 C1246 1.429 . S
C1265 C1259 1.429 . S
C1265 C1266 1.523 . S
C1266 C1247 1.368 . S
C1266 C1260 1.368 . S
C1266 C1265 1.523 . S
C1267 C1251 1.429 . S
C1267 C1263 1.429 . S
C1267 C1268 1.523 . S
C1268 C1252 1.368 . S
C1268 C1264 1.368 . S
C1268 C1267 1.523 . S
H1269 C1244 0.950 . S
H1270 C1246 0.950 . S
H1271 C1247 0.949 . S
H1272 C1249 0.950 . S
H1273 C1251 0.950 . S
C1274 C1275 1.349 . S
C1274 C1276 1.327 . S
C1274 H1299 0.950 . S
C1275 C1274 1.349 . S
C1275 C1291 1.349 . S
C1276 C1274 1.327 . S
C1276 C1295 1.429 . S
C1276 H1300 0.950 . S
C1277 C1294 1.574 . S
C1277 C1296 1.368 . S
C1277 H1301 0.949 . S
H1278 C1282 0.949 . S
C1279 C1280 1.349 . S
C1279 C1281 1.327 . S
C1279 H1302 0.950 . S
C1280 C1279 1.349 . S
C1280 C1292 1.349 . S
C1281 C1279 1.327 . S
C1281 C1297 1.429 . S
C1281 H1303 0.950 . S
C1282 H1278 0.949 . S
C1282 C1290 1.574 . S
C1282 C1298 1.368 . S
H1283 C1291 0.950 . S
H1284 C1289 0.950 . S
H1285 C1290 0.949 . S
H1286 C1292 0.950 . S
H1287 C1293 0.950 . S
H1288 C1294 0.949 . S
C1289 H1284 0.950 . S
C1289 C1291 1.327 . S
C1289 C1295 1.429 . S
C1290 C1282 1.574 . S
C1290 H1285 0.949 . S
C1290 C1296 1.368 . S
C1291 C1275 1.349 . S
C1291 H1283 0.950 . S
C1291 C1289 1.327 . S
C1292 C1280 1.349 . S
C1292 H1286 0.950 . S
C1292 C1293 1.327 . S
C1293 H1287 0.950 . S
C1293 C1292 1.327 . S
C1293 C1297 1.429 . S
C1294 C1277 1.574 . S
C1294 H1288 0.949 . S
C1294 C1298 1.368 . S
C1295 C1276 1.429 . S
C1295 C1289 1.429 . S
C1295 C1296 1.523 . S
C1296 C1277 1.368 . S
C1296 C1290 1.368 . S
C1296 C1295 1.523 . S
C1297 C1281 1.429 . S
C1297 C1293 1.429 . S
C1297 C1298 1.523 . S
C1298 C1282 1.368 . S
C1298 C1294 1.368 . S
C1298 C1297 1.523 . S
H1299 C1274 0.950 . S
H1300 C1276 0.950 . S
H1301 C1277 0.949 . S
H1302 C1279 0.950 . S
H1303 C1281 0.950 . S
C1304 C1305 1.349 . S
C1304 C1306 1.327 . S
C1304 H1329 0.950 . S
C1305 C1304 1.349 . S
C1305 C1321 1.349 . S
C1306 C1304 1.327 . S
C1306 C1325 1.429 . S
C1306 H1330 0.950 . S
C1307 C1324 1.574 . S
C1307 C1326 1.368 . S
C1307 H1331 0.949 . S
H1308 C1312 0.949 . S
C1309 C1310 1.349 . S
C1309 C1311 1.327 . S
C1309 H1332 0.950 . S
C1310 C1309 1.349 . S
C1310 C1322 1.349 . S
C1311 C1309 1.327 . S
C1311 C1327 1.429 . S
C1311 H1333 0.950 . S
C1312 H1308 0.949 . S
C1312 C1320 1.574 . S
C1312 C1328 1.368 . S
H1313 C1321 0.950 . S
H1314 C1319 0.950 . S
H1315 C1320 0.949 . S
H1316 C1322 0.950 . S
H1317 C1323 0.950 . S
H1318 C1324 0.949 . S
C1319 H1314 0.950 . S
C1319 C1321 1.327 . S
C1319 C1325 1.429 . S
C1320 C1312 1.574 . S
C1320 H1315 0.949 . S
C1320 C1326 1.368 . S
C1321 C1305 1.349 . S
C1321 H1313 0.950 . S
C1321 C1319 1.327 . S
C1322 C1310 1.349 . S
C1322 H1316 0.950 . S
C1322 C1323 1.327 . S
C1323 H1317 0.950 . S
C1323 C1322 1.327 . S
C1323 C1327 1.429 . S
C1324 C1307 1.574 . S
C1324 H1318 0.949 . S
C1324 C1328 1.368 . S
C1325 C1306 1.429 . S
C1325 C1319 1.429 . S
C1325 C1326 1.523 . S
C1326 C1307 1.368 . S
C1326 C1320 1.368 . S
C1326 C1325 1.523 . S
C1327 C1311 1.429 . S
C1327 C1323 1.429 . S
C1327 C1328 1.523 . S
C1328 C1312 1.368 . S
C1328 C1324 1.368 . S
C1328 C1327 1.523 . S
H1329 C1304 0.950 . S
H1330 C1306 0.950 . S
H1331 C1307 0.949 . S
H1332 C1309 0.950 . S
H1333 C1311 0.950 . S
C1334 C1335 1.349 . S
C1334 C1336 1.327 . S
C1334 H1359 0.950 . S
C1335 C1334 1.349 . S
C1335 C1351 1.349 . S
C1336 C1334 1.327 . S
C1336 C1355 1.429 . S
C1336 H1360 0.950 . S
C1337 C1354 1.574 . S
C1337 C1356 1.368 . S
C1337 H1361 0.949 . S
H1338 C1342 0.949 . S
C1339 C1340 1.349 . S
C1339 C1341 1.327 . S
C1339 H1362 0.950 . S
C1340 C1339 1.349 . S
C1340 C1352 1.349 . S
C1341 C1339 1.327 . S
C1341 C1357 1.429 . S
C1341 H1363 0.950 . S
C1342 H1338 0.949 . S
C1342 C1350 1.574 . S
C1342 C1358 1.368 . S
H1343 C1351 0.950 . S
H1344 C1349 0.950 . S
H1345 C1350 0.949 . S
H1346 C1352 0.950 . S
H1347 C1353 0.950 . S
H1348 C1354 0.949 . S
C1349 H1344 0.950 . S
C1349 C1351 1.327 . S
C1349 C1355 1.429 . S
C1350 C1342 1.574 . S
C1350 H1345 0.949 . S
C1350 C1356 1.368 . S
C1351 C1335 1.349 . S
C1351 H1343 0.950 . S
C1351 C1349 1.327 . S
C1352 C1340 1.349 . S
C1352 H1346 0.950 . S
C1352 C1353 1.327 . S
C1353 H1347 0.950 . S
C1353 C1352 1.327 . S
C1353 C1357 1.429 . S
C1354 C1337 1.574 . S
C1354 H1348 0.949 . S
C1354 C1358 1.368 . S
C1355 C1336 1.429 . S
C1355 C1349 1.429 . S
C1355 C1356 1.523 . S
C1356 C1337 1.368 . S
C1356 C1350 1.368 . S
C1356 C1355 1.523 . S
C1357 C1341 1.429 . S
C1357 C1353 1.429 . S
C1357 C1358 1.523 . S
C1358 C1342 1.368 . S
C1358 C1354 1.368 . S
C1358 C1357 1.523 . S
H1359 C1334 0.950 . S
H1360 C1336 0.950 . S
H1361 C1337 0.949 . S
H1362 C1339 0.950 . S
H1363 C1341 0.950 . S
C1364 C1365 1.349 . S
C1364 C1366 1.327 . S
C1364 H1389 0.950 . S
C1365 C1364 1.349 . S
C1365 C1381 1.349 . S
C1366 C1364 1.327 . S
C1366 C1385 1.429 . S
C1366 H1390 0.950 . S
C1367 C1384 1.574 . S
C1367 C1386 1.368 . S
C1367 H1391 0.949 . S
H1368 C1372 0.949 . S
C1369 C1370 1.349 . S
C1369 C1371 1.327 . S
C1369 H1392 0.950 . S
C1370 C1369 1.349 . S
C1370 C1382 1.349 . S
C1371 C1369 1.327 . S
C1371 C1387 1.429 . S
C1371 H1393 0.950 . S
C1372 H1368 0.949 . S
C1372 C1380 1.574 . S
C1372 C1388 1.368 . S
H1373 C1381 0.950 . S
H1374 C1379 0.950 . S
H1375 C1380 0.949 . S
H1376 C1382 0.950 . S
H1377 C1383 0.950 . S
H1378 C1384 0.949 . S
C1379 H1374 0.950 . S
C1379 C1381 1.327 . S
C1379 C1385 1.429 . S
C1380 C1372 1.574 . S
C1380 H1375 0.949 . S
C1380 C1386 1.368 . S
C1381 C1365 1.349 . S
C1381 H1373 0.950 . S
C1381 C1379 1.327 . S
C1382 C1370 1.349 . S
C1382 H1376 0.950 . S
C1382 C1383 1.327 . S
C1383 H1377 0.950 . S
C1383 C1382 1.327 . S
C1383 C1387 1.429 . S
C1384 C1367 1.574 . S
C1384 H1378 0.949 . S
C1384 C1388 1.368 . S
C1385 C1366 1.429 . S
C1385 C1379 1.429 . S
C1385 C1386 1.523 . S
C1386 C1367 1.368 . S
C1386 C1380 1.368 . S
C1386 C1385 1.523 . S
C1387 C1371 1.429 . S
C1387 C1383 1.429 . S
C1387 C1388 1.523 . S
C1388 C1372 1.368 . S
C1388 C1384 1.368 . S
C1388 C1387 1.523 . S
H1389 C1364 0.950 . S
H1390 C1366 0.950 . S
H1391 C1367 0.949 . S
H1392 C1369 0.950 . S
H1393 C1371 0.950 . S
C1394 C1395 1.349 . S
C1394 C1396 1.327 . S
C1394 H1419 0.950 . S
C1395 C1394 1.349 . S
C1395 C1411 1.349 . S
C1396 C1394 1.327 . S
C1396 C1415 1.429 . S
C1396 H1420 0.950 . S
C1397 C1414 1.574 . S
C1397 C1416 1.368 . S
C1397 H1421 0.949 . S
H1398 C1402 0.949 . S
C1399 C1400 1.349 . S
C1399 C1401 1.327 . S
C1399 H1422 0.950 . S
C1400 C1399 1.349 . S
C1400 C1412 1.349 . S
C1401 C1399 1.327 . S
C1401 C1417 1.429 . S
C1401 H1423 0.950 . S
C1402 H1398 0.949 . S
C1402 C1410 1.574 . S
C1402 C1418 1.368 . S
H1403 C1411 0.950 . S
H1404 C1409 0.950 . S
H1405 C1410 0.949 . S
H1406 C1412 0.950 . S
H1407 C1413 0.950 . S
H1408 C1414 0.949 . S
C1409 H1404 0.950 . S
C1409 C1411 1.327 . S
C1409 C1415 1.429 . S
C1410 C1402 1.574 . S
C1410 H1405 0.949 . S
C1410 C1416 1.368 . S
C1411 C1395 1.349 . S
C1411 H1403 0.950 . S
C1411 C1409 1.327 . S
C1412 C1400 1.349 . S
C1412 H1406 0.950 . S
C1412 C1413 1.327 . S
C1413 H1407 0.950 . S
C1413 C1412 1.327 . S
C1413 C1417 1.429 . S
C1414 C1397 1.574 . S
C1414 H1408 0.949 . S
C1414 C1418 1.368 . S
C1415 C1396 1.429 . S
C1415 C1409 1.429 . S
C1415 C1416 1.523 . S
C1416 C1397 1.368 . S
C1416 C1410 1.368 . S
C1416 C1415 1.523 . S
C1417 C1401 1.429 . S
C1417 C1413 1.429 . S
C1417 C1418 1.523 . S
C1418 C1402 1.368 . S
C1418 C1414 1.368 . S
C1418 C1417 1.523 . S
H1419 C1394 0.950 . S
H1420 C1396 0.950 . S
H1421 C1397 0.949 . S
H1422 C1399 0.950 . S
H1423 C1401 0.950 . S
C1424 C1425 1.349 . S
C1424 C1426 1.327 . S
C1424 H1449 0.950 . S
C1425 C1424 1.349 . S
C1425 C1441 1.349 . S
C1426 C1424 1.327 . S
C1426 C1445 1.429 . S
C1426 H1450 0.950 . S
C1427 C1444 1.574 . S
C1427 C1446 1.368 . S
C1427 H1451 0.949 . S
H1428 C1432 0.949 . S
C1429 C1430 1.349 . S
C1429 C1431 1.327 . S
C1429 H1452 0.950 . S
C1430 C1429 1.349 . S
C1430 C1442 1.349 . S
C1431 C1429 1.327 . S
C1431 C1447 1.429 . S
C1431 H1453 0.950 . S
C1432 H1428 0.949 . S
C1432 C1440 1.574 . S
C1432 C1448 1.368 . S
H1433 C1441 0.950 . S
H1434 C1439 0.950 . S
H1435 C1440 0.949 . S
H1436 C1442 0.950 . S
H1437 C1443 0.950 . S
H1438 C1444 0.949 . S
C1439 H1434 0.950 . S
C1439 C1441 1.327 . S
C1439 C1445 1.429 . S
C1440 C1432 1.574 . S
C1440 H1435 0.949 . S
C1440 C1446 1.368 . S
C1441 C1425 1.349 . S
C1441 H1433 0.950 . S
C1441 C1439 1.327 . S
C1442 C1430 1.349 . S
C1442 H1436 0.950 . S
C1442 C1443 1.327 . S
C1443 H1437 0.950 . S
C1443 C1442 1.327 . S
C1443 C1447 1.429 . S
C1444 C1427 1.574 . S
C1444 H1438 0.949 . S
C1444 C1448 1.368 . S
C1445 C1426 1.429 . S
C1445 C1439 1.429 . S
C1445 C1446 1.523 . S
C1446 C1427 1.368 . S
C1446 C1440 1.368 . S
C1446 C1445 1.523 . S
C1447 C1431 1.429 . S
C1447 C1443 1.429 . S
C1447 C1448 1.523 . S
C1448 C1432 1.368 . S
C1448 C1444 1.368 . S
C1448 C1447 1.523 . S
H1449 C1424 0.950 . S
H1450 C1426 0.950 . S
H1451 C1427 0.949 . S
H1452 C1429 0.950 . S
H1453 C1431 0.950 . S
C1454 C1455 1.349 . S
C1454 C1456 1.327 . S
C1454 H1479 0.950 . S
C1455 C1454 1.349 . S
C1455 C1471 1.349 . S
C1456 C1454 1.327 . S
C1456 C1475 1.429 . S
C1456 H1480 0.950 . S
C1457 C1474 1.574 . S
C1457 C1476 1.368 . S
C1457 H1481 0.949 . S
H1458 C1462 0.949 . S
C1459 C1460 1.349 . S
C1459 C1461 1.327 . S
C1459 H1482 0.950 . S
C1460 C1459 1.349 . S
C1460 C1472 1.349 . S
C1461 C1459 1.327 . S
C1461 C1477 1.429 . S
C1461 H1483 0.950 . S
C1462 H1458 0.949 . S
C1462 C1470 1.574 . S
C1462 C1478 1.368 . S
H1463 C1471 0.950 . S
H1464 C1469 0.950 . S
H1465 C1470 0.949 . S
H1466 C1472 0.950 . S
H1467 C1473 0.950 . S
H1468 C1474 0.949 . S
C1469 H1464 0.950 . S
C1469 C1471 1.327 . S
C1469 C1475 1.429 . S
C1470 C1462 1.574 . S
C1470 H1465 0.949 . S
C1470 C1476 1.368 . S
C1471 C1455 1.349 . S
C1471 H1463 0.950 . S
C1471 C1469 1.327 . S
C1472 C1460 1.349 . S
C1472 H1466 0.950 . S
C1472 C1473 1.327 . S
C1473 H1467 0.950 . S
C1473 C1472 1.327 . S
C1473 C1477 1.429 . S
C1474 C1457 1.574 . S
C1474 H1468 0.949 . S
C1474 C1478 1.368 . S
C1475 C1456 1.429 . S
C1475 C1469 1.429 . S
C1475 C1476 1.523 . S
C1476 C1457 1.368 . S
C1476 C1470 1.368 . S
C1476 C1475 1.523 . S
C1477 C1461 1.429 . S
C1477 C1473 1.429 . S
C1477 C1478 1.523 . S
C1478 C1462 1.368 . S
C1478 C1474 1.368 . S
C1478 C1477 1.523 . S
H1479 C1454 0.950 . S
H1480 C1456 0.950 . S
H1481 C1457 0.949 . S
H1482 C1459 0.950 . S
H1483 C1461 0.950 . S
C1484 C1485 1.349 . S
C1484 C1486 1.327 . S
C1484 H1509 0.950 . S
C1485 C1484 1.349 . S
C1485 C1501 1.349 . S
C1486 C1484 1.327 . S
C1486 C1505 1.429 . S
C1486 H1510 0.950 . S
C1487 C1504 1.574 . S
C1487 C1506 1.368 . S
C1487 H1511 0.949 . S
H1488 C1492 0.949 . S
C1489 C1490 1.349 . S
C1489 C1491 1.327 . S
C1489 H1512 0.950 . S
C1490 C1489 1.349 . S
C1490 C1502 1.349 . S
C1491 C1489 1.327 . S
C1491 C1507 1.429 . S
C1491 H1513 0.950 . S
C1492 H1488 0.949 . S
C1492 C1500 1.574 . S
C1492 C1508 1.368 . S
H1493 C1501 0.950 . S
H1494 C1499 0.950 . S
H1495 C1500 0.949 . S
H1496 C1502 0.950 . S
H1497 C1503 0.950 . S
H1498 C1504 0.949 . S
C1499 H1494 0.950 . S
C1499 C1501 1.327 . S
C1499 C1505 1.429 . S
C1500 C1492 1.574 . S
C1500 H1495 0.949 . S
C1500 C1506 1.368 . S
C1501 C1485 1.349 . S
C1501 H1493 0.950 . S
C1501 C1499 1.327 . S
C1502 C1490 1.349 . S
C1502 H1496 0.950 . S
C1502 C1503 1.327 . S
C1503 H1497 0.950 . S
C1503 C1502 1.327 . S
C1503 C1507 1.429 . S
C1504 C1487 1.574 . S
C1504 H1498 0.949 . S
C1504 C1508 1.368 . S
C1505 C1486 1.429 . S
C1505 C1499 1.429 . S
C1505 C1506 1.523 . S
C1506 C1487 1.368 . S
C1506 C1500 1.368 . S
C1506 C1505 1.523 . S
C1507 C1491 1.429 . S
C1507 C1503 1.429 . S
C1507 C1508 1.523 . S
C1508 C1492 1.368 . S
C1508 C1504 1.368 . S
C1508 C1507 1.523 . S
H1509 C1484 0.950 . S
H1510 C1486 0.950 . S
H1511 C1487 0.949 . S
H1512 C1489 0.950 . S
H1513 C1491 0.950 . S
C1514 C1515 1.349 . S
C1514 C1516 1.327 . S
C1514 H1539 0.950 . S
C1515 C1514 1.349 . S
C1515 C1531 1.349 . S
C1516 C1514 1.327 . S
C1516 C1535 1.429 . S
C1516 H1540 0.950 . S
C1517 C1534 1.574 . S
C1517 C1536 1.368 . S
C1517 H1541 0.949 . S
H1518 C1522 0.949 . S
C1519 C1520 1.349 . S
C1519 C1521 1.327 . S
C1519 H1542 0.950 . S
C1520 C1519 1.349 . S
C1520 C1532 1.349 . S
C1521 C1519 1.327 . S
C1521 C1537 1.429 . S
C1521 H1543 0.950 . S
C1522 H1518 0.949 . S
C1522 C1530 1.574 . S
C1522 C1538 1.368 . S
H1523 C1531 0.950 . S
H1524 C1529 0.950 . S
H1525 C1530 0.949 . S
H1526 C1532 0.950 . S
H1527 C1533 0.950 . S
H1528 C1534 0.949 . S
C1529 H1524 0.950 . S
C1529 C1531 1.327 . S
C1529 C1535 1.429 . S
C1530 C1522 1.574 . S
C1530 H1525 0.949 . S
C1530 C1536 1.368 . S
C1531 C1515 1.349 . S
C1531 H1523 0.950 . S
C1531 C1529 1.327 . S
C1532 C1520 1.349 . S
C1532 H1526 0.950 . S
C1532 C1533 1.327 . S
C1533 H1527 0.950 . S
C1533 C1532 1.327 . S
C1533 C1537 1.429 . S
C1534 C1517 1.574 . S
C1534 H1528 0.949 . S
C1534 C1538 1.368 . S
C1535 C1516 1.429 . S
C1535 C1529 1.429 . S
C1535 C1536 1.523 . S
C1536 C1517 1.368 . S
C1536 C1530 1.368 . S
C1536 C1535 1.523 . S
C1537 C1521 1.429 . S
C1537 C1533 1.429 . S
C1537 C1538 1.523 . S
C1538 C1522 1.368 . S
C1538 C1534 1.368 . S
C1538 C1537 1.523 . S
H1539 C1514 0.950 . S
H1540 C1516 0.950 . S
H1541 C1517 0.949 . S
H1542 C1519 0.950 . S
H1543 C1521 0.950 . S
C1544 C1545 1.349 . S
C1544 C1546 1.327 . S
C1544 H1569 0.950 . S
C1545 C1544 1.349 . S
C1545 C1561 1.349 . S
C1546 C1544 1.327 . S
C1546 C1565 1.429 . S
C1546 H1570 0.950 . S
C1547 C1564 1.574 . S
C1547 C1566 1.368 . S
C1547 H1571 0.949 . S
H1548 C1552 0.949 . S
C1549 C1550 1.349 . S
C1549 C1551 1.327 . S
C1549 H1572 0.950 . S
C1550 C1549 1.349 . S
C1550 C1562 1.349 . S
C1551 C1549 1.327 . S
C1551 C1567 1.429 . S
C1551 H1573 0.950 . S
C1552 H1548 0.949 . S
C1552 C1560 1.574 . S
C1552 C1568 1.368 . S
H1553 C1561 0.950 . S
H1554 C1559 0.950 . S
H1555 C1560 0.949 . S
H1556 C1562 0.950 . S
H1557 C1563 0.950 . S
H1558 C1564 0.949 . S
C1559 H1554 0.950 . S
C1559 C1561 1.327 . S
C1559 C1565 1.429 . S
C1560 C1552 1.574 . S
C1560 H1555 0.949 . S
C1560 C1566 1.368 . S
C1561 C1545 1.349 . S
C1561 H1553 0.950 . S
C1561 C1559 1.327 . S
C1562 C1550 1.349 . S
C1562 H1556 0.950 . S
C1562 C1563 1.327 . S
C1563 H1557 0.950 . S
C1563 C1562 1.327 . S
C1563 C1567 1.429 . S
C1564 C1547 1.574 . S
C1564 H1558 0.949 . S
C1564 C1568 1.368 . S
C1565 C1546 1.429 . S
C1565 C1559 1.429 . S
C1565 C1566 1.523 . S
C1566 C1547 1.368 . S
C1566 C1560 1.368 . S
C1566 C1565 1.523 . S
C1567 C1551 1.429 . S
C1567 C1563 1.429 . S
C1567 C1568 1.523 . S
C1568 C1552 1.368 . S
C1568 C1564 1.368 . S
C1568 C1567 1.523 . S
H1569 C1544 0.950 . S
H1570 C1546 0.950 . S
H1571 C1547 0.949 . S
H1572 C1549 0.950 . S
H1573 C1551 0.950 . S
C1574 C1575 1.349 . S
C1574 C1576 1.327 . S
C1574 H1599 0.950 . S
C1575 C1574 1.349 . S
C1575 C1591 1.349 . S
C1576 C1574 1.327 . S
C1576 C1595 1.429 . S
C1576 H1600 0.950 . S
C1577 C1594 1.574 . S
C1577 C1596 1.368 . S
C1577 H1601 0.949 . S
H1578 C1582 0.949 . S
C1579 C1580 1.349 . S
C1579 C1581 1.327 . S
C1579 H1602 0.950 . S
C1580 C1579 1.349 . S
C1580 C1592 1.349 . S
C1581 C1579 1.327 . S
C1581 C1597 1.429 . S
C1581 H1603 0.950 . S
C1582 H1578 0.949 . S
C1582 C1590 1.574 . S
C1582 C1598 1.368 . S
H1583 C1591 0.950 . S
H1584 C1589 0.950 . S
H1585 C1590 0.949 . S
H1586 C1592 0.950 . S
H1587 C1593 0.950 . S
H1588 C1594 0.949 . S
C1589 H1584 0.950 . S
C1589 C1591 1.327 . S
C1589 C1595 1.429 . S
C1590 C1582 1.574 . S
C1590 H1585 0.949 . S
C1590 C1596 1.368 . S
C1591 C1575 1.349 . S
C1591 H1583 0.950 . S
C1591 C1589 1.327 . S
C1592 C1580 1.349 . S
C1592 H1586 0.950 . S
C1592 C1593 1.327 . S
C1593 H1587 0.950 . S
C1593 C1592 1.327 . S
C1593 C1597 1.429 . S
C1594 C1577 1.574 . S
C1594 H1588 0.949 . S
C1594 C1598 1.368 . S
C1595 C1576 1.429 . S
C1595 C1589 1.429 . S
C1595 C1596 1.523 . S
C1596 C1577 1.368 . S
C1596 C1590 1.368 . S
C1596 C1595 1.523 . S
C1597 C1581 1.429 . S
C1597 C1593 1.429 . S
C1597 C1598 1.523 . S
C1598 C1582 1.368 . S
C1598 C1594 1.368 . S
C1598 C1597 1.523 . S
H1599 C1574 0.950 . S
H1600 C1576 0.950 . S
H1601 C1577 0.949 . S
H1602 C1579 0.950 . S
H1603 C1581 0.950 . S
C1604 C1605 1.349 . S
C1604 C1606 1.327 . S
C1604 H1629 0.950 . S
C1605 C1604 1.349 . S
C1605 C1621 1.349 . S
C1606 C1604 1.327 . S
C1606 C1625 1.429 . S
C1606 H1630 0.950 . S
C1607 C1624 1.574 . S
C1607 C1626 1.368 . S
C1607 H1631 0.949 . S
H1608 C1612 0.949 . S
C1609 C1610 1.349 . S
C1609 C1611 1.327 . S
C1609 H1632 0.950 . S
C1610 C1609 1.349 . S
C1610 C1622 1.349 . S
C1611 C1609 1.327 . S
C1611 C1627 1.429 . S
C1611 H1633 0.950 . S
C1612 H1608 0.949 . S
C1612 C1620 1.574 . S
C1612 C1628 1.368 . S
H1613 C1621 0.950 . S
H1614 C1619 0.950 . S
H1615 C1620 0.949 . S
H1616 C1622 0.950 . S
H1617 C1623 0.950 . S
H1618 C1624 0.949 . S
C1619 H1614 0.950 . S
C1619 C1621 1.327 . S
C1619 C1625 1.429 . S
C1620 C1612 1.574 . S
C1620 H1615 0.949 . S
C1620 C1626 1.368 . S
C1621 C1605 1.349 . S
C1621 H1613 0.950 . S
C1621 C1619 1.327 . S
C1622 C1610 1.349 . S
C1622 H1616 0.950 . S
C1622 C1623 1.327 . S
C1623 H1617 0.950 . S
C1623 C1622 1.327 . S
C1623 C1627 1.429 . S
C1624 C1607 1.574 . S
C1624 H1618 0.949 . S
C1624 C1628 1.368 . S
C1625 C1606 1.429 . S
C1625 C1619 1.429 . S
C1625 C1626 1.523 . S
C1626 C1607 1.368 . S
C1626 C1620 1.368 . S
C1626 C1625 1.523 . S
C1627 C1611 1.429 . S
C1627 C1623 1.429 . S
C1627 C1628 1.523 . S
C1628 C1612 1.368 . S
C1628 C1624 1.368 . S
C1628 C1627 1.523 . S
H1629 C1604 0.950 . S
H1630 C1606 0.950 . S
H1631 C1607 0.949 . S
H1632 C1609 0.950 . S
H1633 C1611 0.950 . S
C1634 C1635 1.349 . S
C1634 C1636 1.327 . S
C1634 H1659 0.950 . S
C1635 C1634 1.349 . S
C1635 C1651 1.349 . S
C1636 C1634 1.327 . S
C1636 C1655 1.429 . S
C1636 H1660 0.950 . S
C1637 C1654 1.574 . S
C1637 C1656 1.368 . S
C1637 H1661 0.949 . S
H1638 C1642 0.949 . S
C1639 C1640 1.349 . S
C1639 C1641 1.327 . S
C1639 H1662 0.950 . S
C1640 C1639 1.349 . S
C1640 C1652 1.349 . S
C1641 C1639 1.327 . S
C1641 C1657 1.429 . S
C1641 H1663 0.950 . S
C1642 H1638 0.949 . S
C1642 C1650 1.574 . S
C1642 C1658 1.368 . S
H1643 C1651 0.950 . S
H1644 C1649 0.950 . S
H1645 C1650 0.949 . S
H1646 C1652 0.950 . S
H1647 C1653 0.950 . S
H1648 C1654 0.949 . S
C1649 H1644 0.950 . S
C1649 C1651 1.327 . S
C1649 C1655 1.429 . S
C1650 C1642 1.574 . S
C1650 H1645 0.949 . S
C1650 C1656 1.368 . S
C1651 C1635 1.349 . S
C1651 H1643 0.950 . S
C1651 C1649 1.327 . S
C1652 C1640 1.349 . S
C1652 H1646 0.950 . S
C1652 C1653 1.327 . S
C1653 H1647 0.950 . S
C1653 C1652 1.327 . S
C1653 C1657 1.429 . S
C1654 C1637 1.574 . S
C1654 H1648 0.949 . S
C1654 C1658 1.368 . S
C1655 C1636 1.429 . S
C1655 C1649 1.429 . S
C1655 C1656 1.523 . S
C1656 C1637 1.368 . S
C1656 C1650 1.368 . S
C1656 C1655 1.523 . S
C1657 C1641 1.429 . S
C1657 C1653 1.429 . S
C1657 C1658 1.523 . S
C1658 C1642 1.368 . S
C1658 C1654 1.368 . S
C1658 C1657 1.523 . S
H1659 C1634 0.950 . S
H1660 C1636 0.950 . S
H1661 C1637 0.949 . S
H1662 C1639 0.950 . S
H1663 C1641 0.950 . S
C1664 C1665 1.349 . S
C1664 C1666 1.327 . S
C1664 H1689 0.950 . S
C1665 C1664 1.349 . S
C1665 C1681 1.349 . S
C1666 C1664 1.327 . S
C1666 C1685 1.429 . S
C1666 H1690 0.950 . S
C1667 C1684 1.574 . S
C1667 C1686 1.368 . S
C1667 H1691 0.949 . S
H1668 C1672 0.949 . S
C1669 C1670 1.349 . S
C1669 C1671 1.327 . S
C1669 H1692 0.950 . S
C1670 C1669 1.349 . S
C1670 C1682 1.349 . S
C1671 C1669 1.327 . S
C1671 C1687 1.429 . S
C1671 H1693 0.950 . S
C1672 H1668 0.949 . S
C1672 C1680 1.574 . S
C1672 C1688 1.368 . S
H1673 C1681 0.950 . S
H1674 C1679 0.950 . S
H1675 C1680 0.949 . S
H1676 C1682 0.950 . S
H1677 C1683 0.950 . S
H1678 C1684 0.949 . S
C1679 H1674 0.950 . S
C1679 C1681 1.327 . S
C1679 C1685 1.429 . S
C1680 C1672 1.574 . S
C1680 H1675 0.949 . S
C1680 C1686 1.368 . S
C1681 C1665 1.349 . S
C1681 H1673 0.950 . S
C1681 C1679 1.327 . S
C1682 C1670 1.349 . S
C1682 H1676 0.950 . S
C1682 C1683 1.327 . S
C1683 H1677 0.950 . S
C1683 C1682 1.327 . S
C1683 C1687 1.429 . S
C1684 C1667 1.574 . S
C1684 H1678 0.949 . S
C1684 C1688 1.368 . S
C1685 C1666 1.429 . S
C1685 C1679 1.429 . S
C1685 C1686 1.523 . S
C1686 C1667 1.368 . S
C1686 C1680 1.368 . S
C1686 C1685 1.523 . S
C1687 C1671 1.429 . S
C1687 C1683 1.429 . S
C1687 C1688 1.523 . S
C1688 C1672 1.368 . S
C1688 C1684 1.368 . S
C1688 C1687 1.523 . S
H1689 C1664 0.950 . S
H1690 C1666 0.950 . S
H1691 C1667 0.949 . S
H1692 C1669 0.950 . S
H1693 C1671 0.950 . S
C1694 C1695 1.349 . S
C1694 C1696 1.327 . S
C1694 H1719 0.950 . S
C1695 C1694 1.349 . S
C1695 C1711 1.349 . S
C1696 C1694 1.327 . S
C1696 C1715 1.429 . S
C1696 H1720 0.950 . S
C1697 C1714 1.574 . S
C1697 C1716 1.368 . S
C1697 H1721 0.949 . S
H1698 C1702 0.949 . S
C1699 C1700 1.349 . S
C1699 C1701 1.327 . S
C1699 H1722 0.950 . S
C1700 C1699 1.349 . S
C1700 C1712 1.349 . S
C1701 C1699 1.327 . S
C1701 C1717 1.429 . S
C1701 H1723 0.950 . S
C1702 H1698 0.949 . S
C1702 C1710 1.574 . S
C1702 C1718 1.368 . S
H1703 C1711 0.950 . S
H1704 C1709 0.950 . S
H1705 C1710 0.949 . S
H1706 C1712 0.950 . S
H1707 C1713 0.950 . S
H1708 C1714 0.949 . S
C1709 H1704 0.950 . S
C1709 C1711 1.327 . S
C1709 C1715 1.429 . S
C1710 C1702 1.574 . S
C1710 H1705 0.949 . S
C1710 C1716 1.368 . S
C1711 C1695 1.349 . S
C1711 H1703 0.950 . S
C1711 C1709 1.327 . S
C1712 C1700 1.349 . S
C1712 H1706 0.950 . S
C1712 C1713 1.327 . S
C1713 H1707 0.950 . S
C1713 C1712 1.327 . S
C1713 C1717 1.429 . S
C1714 C1697 1.574 . S
C1714 H1708 0.949 . S
C1714 C1718 1.368 . S
C1715 C1696 1.429 . S
C1715 C1709 1.429 . S
C1715 C1716 1.523 . S
C1716 C1697 1.368 . S
C1716 C1710 1.368 . S
C1716 C1715 1.523 . S
C1717 C1701 1.429 . S
C1717 C1713 1.429 . S
C1717 C1718 1.523 . S
C1718 C1702 1.368 . S
C1718 C1714 1.368 . S
C1718 C1717 1.523 . S
H1719 C1694 0.950 . S
H1720 C1696 0.950 . S
H1721 C1697 0.949 . S
H1722 C1699 0.950 . S
H1723 C1701 0.950 . S
C1724 C1725 1.349 . S
C1724 C1726 1.327 . S
C1724 H1749 0.950 . S
C1725 C1724 1.349 . S
C1725 C1741 1.349 . S
C1726 C1724 1.327 . S
C1726 C1745 1.429 . S
C1726 H1750 0.950 . S
C1727 C1744 1.574 . S
C1727 C1746 1.368 . S
C1727 H1751 0.949 . S
H1728 C1732 0.949 . S
C1729 C1730 1.349 . S
C1729 C1731 1.327 . S
C1729 H1752 0.950 . S
C1730 C1729 1.349 . S
C1730 C1742 1.349 . S
C1731 C1729 1.327 . S
C1731 C1747 1.429 . S
C1731 H1753 0.950 . S
C1732 H1728 0.949 . S
C1732 C1740 1.574 . S
C1732 C1748 1.368 . S
H1733 C1741 0.950 . S
H1734 C1739 0.950 . S
H1735 C1740 0.949 . S
H1736 C1742 0.950 . S
H1737 C1743 0.950 . S
H1738 C1744 0.949 . S
C1739 H1734 0.950 . S
C1739 C1741 1.327 . S
C1739 C1745 1.429 . S
C1740 C1732 1.574 . S
C1740 H1735 0.949 . S
C1740 C1746 1.368 . S
C1741 C1725 1.349 . S
C1741 H1733 0.950 . S
C1741 C1739 1.327 . S
C1742 C1730 1.349 . S
C1742 H1736 0.950 . S
C1742 C1743 1.327 . S
C1743 H1737 0.950 . S
C1743 C1742 1.327 . S
C1743 C1747 1.429 . S
C1744 C1727 1.574 . S
C1744 H1738 0.949 . S
C1744 C1748 1.368 . S
C1745 C1726 1.429 . S
C1745 C1739 1.429 . S
C1745 C1746 1.523 . S
C1746 C1727 1.368 . S
C1746 C1740 1.368 . S
C1746 C1745 1.523 . S
C1747 C1731 1.429 . S
C1747 C1743 1.429 . S
C1747 C1748 1.523 . S
C1748 C1732 1.368 . S
C1748 C1744 1.368 . S
C1748 C1747 1.523 . S
H1749 C1724 0.950 . S
H1750 C1726 0.950 . S
H1751 C1727 0.949 . S
H1752 C1729 0.950 . S
H1753 C1731 0.950 . S
C1754 C1755 1.349 . S
C1754 C1756 1.327 . S
C1754 H1779 0.950 . S
C1755 C1754 1.349 . S
C1755 C1771 1.349 . S
C1756 C1754 1.327 . S
C1756 C1775 1.429 . S
C1756 H1780 0.950 . S
C1757 C1774 1.574 1_554 S
C1757 C1776 1.368 . S
C1757 H1781 0.949 . S
H1758 C1762 0.949 . S
C1759 C1760 1.349 . S
C1759 C1761 1.327 . S
C1759 H1782 0.950 . S
C1760 C1759 1.349 . S
C1760 C1772 1.349 . S
C1761 C1759 1.327 . S
C1761 C1777 1.429 . S
C1761 H1783 0.950 . S
C1762 H1758 0.949 . S
C1762 C1770 1.574 1_556 S
C1762 C1778 1.368 . S
H1763 C1771 0.950 . S
H1764 C1769 0.950 . S
H1765 C1770 0.949 . S
H1766 C1772 0.950 . S
H1767 C1773 0.950 . S
H1768 C1774 0.949 . S
C1769 H1764 0.950 . S
C1769 C1771 1.327 . S
C1769 C1775 1.429 . S
C1770 C1762 1.574 1_554 S
C1770 H1765 0.949 . S
C1770 C1776 1.368 . S
C1771 C1755 1.349 . S
C1771 H1763 0.950 . S
C1771 C1769 1.327 . S
C1772 C1760 1.349 . S
C1772 H1766 0.950 . S
C1772 C1773 1.327 . S
C1773 H1767 0.950 . S
C1773 C1772 1.327 . S
C1773 C1777 1.429 . S
C1774 C1757 1.574 1_556 S
C1774 H1768 0.949 . S
C1774 C1778 1.368 . S
C1775 C1756 1.429 . S
C1775 C1769 1.429 . S
C1775 C1776 1.523 . S
C1776 C1757 1.368 . S
C1776 C1770 1.368 . S
C1776 C1775 1.523 . S
C1777 C1761 1.429 . S
C1777 C1773 1.429 . S
C1777 C1778 1.523 . S
C1778 C1762 1.368 . S
C1778 C1774 1.368 . S
C1778 C1777 1.523 . S
H1779 C1754 0.950 . S
H1780 C1756 0.950 . S
H1781 C1757 0.949 . S
H1782 C1759 0.950 . S
H1783 C1761 0.950 . S
C1784 C1785 1.349 . S
C1784 C1786 1.327 . S
C1784 H1809 0.950 . S
C1785 C1784 1.349 . S
C1785 C1801 1.349 . S
C1786 C1784 1.327 . S
C1786 C1805 1.429 . S
C1786 H1810 0.950 . S
C1787 C1804 1.574 . S
C1787 C1806 1.368 . S
C1787 H1811 0.949 . S
H1788 C1792 0.949 . S
C1789 C1790 1.349 . S
C1789 C1791 1.327 . S
C1789 H1812 0.950 . S
C1790 C1789 1.349 . S
C1790 C1802 1.349 . S
C1791 C1789 1.327 . S
C1791 C1807 1.429 . S
C1791 H1813 0.950 . S
C1792 H1788 0.949 . S
C1792 C1800 1.574 . S
C1792 C1808 1.368 . S
H1793 C1801 0.950 . S
H1794 C1799 0.950 . S
H1795 C1800 0.949 . S
H1796 C1802 0.950 . S
H1797 C1803 0.950 . S
H1798 C1804 0.949 . S
C1799 H1794 0.950 . S
C1799 C1801 1.327 . S
C1799 C1805 1.429 . S
C1800 C1792 1.574 . S
C1800 H1795 0.949 . S
C1800 C1806 1.368 . S
C1801 C1785 1.349 . S
C1801 H1793 0.950 . S
C1801 C1799 1.327 . S
C1802 C1790 1.349 . S
C1802 H1796 0.950 . S
C1802 C1803 1.327 . S
C1803 H1797 0.950 . S
C1803 C1802 1.327 . S
C1803 C1807 1.429 . S
C1804 C1787 1.574 . S
C1804 H1798 0.949 . S
C1804 C1808 1.368 . S
C1805 C1786 1.429 . S
C1805 C1799 1.429 . S
C1805 C1806 1.523 . S
C1806 C1787 1.368 . S
C1806 C1800 1.368 . S
C1806 C1805 1.523 . S
C1807 C1791 1.429 . S
C1807 C1803 1.429 . S
C1807 C1808 1.523 . S
C1808 C1792 1.368 . S
C1808 C1804 1.368 . S
C1808 C1807 1.523 . S
H1809 C1784 0.950 . S
H1810 C1786 0.950 . S
H1811 C1787 0.949 . S
H1812 C1789 0.950 . S
H1813 C1791 0.950 . S
C1814 C1815 1.349 . S
C1814 C1816 1.327 . S
C1814 H1839 0.950 . S
C1815 C1814 1.349 . S
C1815 C1831 1.349 . S
C1816 C1814 1.327 . S
C1816 C1835 1.429 . S
C1816 H1840 0.950 . S
C1817 C1834 1.574 1_554 S
C1817 C1836 1.368 . S
C1817 H1841 0.949 . S
H1818 C1822 0.949 . S
C1819 C1820 1.349 . S
C1819 C1821 1.327 . S
C1819 H1842 0.950 . S
C1820 C1819 1.349 . S
C1820 C1832 1.349 . S
C1821 C1819 1.327 . S
C1821 C1837 1.429 . S
C1821 H1843 0.950 . S
C1822 H1818 0.949 . S
C1822 C1830 1.574 1_556 S
C1822 C1838 1.368 . S
H1823 C1831 0.950 . S
H1824 C1829 0.950 . S
H1825 C1830 0.949 . S
H1826 C1832 0.950 . S
H1827 C1833 0.950 . S
H1828 C1834 0.949 . S
C1829 H1824 0.950 . S
C1829 C1831 1.327 . S
C1829 C1835 1.429 . S
C1830 C1822 1.574 1_554 S
C1830 H1825 0.949 . S
C1830 C1836 1.368 . S
C1831 C1815 1.349 . S
C1831 H1823 0.950 . S
C1831 C1829 1.327 . S
C1832 C1820 1.349 . S
C1832 H1826 0.950 . S
C1832 C1833 1.327 . S
C1833 H1827 0.950 . S
C1833 C1832 1.327 . S
C1833 C1837 1.429 . S
C1834 C1817 1.574 1_556 S
C1834 H1828 0.949 . S
C1834 C1838 1.368 . S
C1835 C1816 1.429 . S
C1835 C1829 1.429 . S
C1835 C1836 1.523 . S
C1836 C1817 1.368 . S
C1836 C1830 1.368 . S
C1836 C1835 1.523 . S
C1837 C1821 1.429 . S
C1837 C1833 1.429 . S
C1837 C1838 1.523 . S
C1838 C1822 1.368 . S
C1838 C1834 1.368 . S
C1838 C1837 1.523 . S
H1839 C1814 0.950 . S
H1840 C1816 0.950 . S
H1841 C1817 0.949 . S
H1842 C1819 0.950 . S
H1843 C1821 0.950 . S
C1844 C1845 1.349 . S
C1844 C1846 1.327 . S
C1844 H1869 0.950 . S
C1845 C1844 1.349 . S
C1845 C1861 1.349 . S
C1846 C1844 1.327 . S
C1846 C1865 1.429 . S
C1846 H1870 0.950 . S
C1847 C1864 1.574 . S
C1847 C1866 1.368 . S
C1847 H1871 0.949 . S
H1848 C1852 0.949 . S
C1849 C1850 1.349 . S
C1849 C1851 1.327 . S
C1849 H1872 0.950 . S
C1850 C1849 1.349 . S
C1850 C1862 1.349 . S
C1851 C1849 1.327 . S
C1851 C1867 1.429 . S
C1851 H1873 0.950 . S
C1852 H1848 0.949 . S
C1852 C1860 1.574 . S
C1852 C1868 1.368 . S
H1853 C1861 0.950 . S
H1854 C1859 0.950 . S
H1855 C1860 0.949 . S
H1856 C1862 0.950 . S
H1857 C1863 0.950 . S
H1858 C1864 0.949 . S
C1859 H1854 0.950 . S
C1859 C1861 1.327 . S
C1859 C1865 1.429 . S
C1860 C1852 1.574 . S
C1860 H1855 0.949 . S
C1860 C1866 1.368 . S
C1861 C1845 1.349 . S
C1861 H1853 0.950 . S
C1861 C1859 1.327 . S
C1862 C1850 1.349 . S
C1862 H1856 0.950 . S
C1862 C1863 1.327 . S
C1863 H1857 0.950 . S
C1863 C1862 1.327 . S
C1863 C1867 1.429 . S
C1864 C1847 1.574 . S
C1864 H1858 0.949 . S
C1864 C1868 1.368 . S
C1865 C1846 1.429 . S
C1865 C1859 1.429 . S
C1865 C1866 1.523 . S
C1866 C1847 1.368 . S
C1866 C1860 1.368 . S
C1866 C1865 1.523 . S
C1867 C1851 1.429 . S
C1867 C1863 1.429 . S
C1867 C1868 1.523 . S
C1868 C1852 1.368 . S
C1868 C1864 1.368 . S
C1868 C1867 1.523 . S
H1869 C1844 0.950 . S
H1870 C1846 0.950 . S
H1871 C1847 0.949 . S
H1872 C1849 0.950 . S
H1873 C1851 0.950 . S
C1874 C1875 1.349 . S
C1874 C1876 1.327 . S
C1874 H1899 0.950 . S
C1875 C1874 1.349 . S
C1875 C1891 1.349 . S
C1876 C1874 1.327 . S
C1876 C1895 1.429 . S
C1876 H1900 0.950 . S
C1877 C1894 1.574 . S
C1877 C1896 1.368 . S
C1877 H1901 0.949 . S
H1878 C1882 0.949 . S
C1879 C1880 1.349 . S
C1879 C1881 1.327 . S
C1879 H1902 0.950 . S
C1880 C1879 1.349 . S
C1880 C1892 1.349 . S
C1881 C1879 1.327 . S
C1881 C1897 1.429 . S
C1881 H1903 0.950 . S
C1882 H1878 0.949 . S
C1882 C1890 1.574 . S
C1882 C1898 1.368 . S
H1883 C1891 0.950 . S
H1884 C1889 0.950 . S
H1885 C1890 0.949 . S
H1886 C1892 0.950 . S
H1887 C1893 0.950 . S
H1888 C1894 0.949 . S
C1889 H1884 0.950 . S
C1889 C1891 1.327 . S
C1889 C1895 1.429 . S
C1890 C1882 1.574 . S
C1890 H1885 0.949 . S
C1890 C1896 1.368 . S
C1891 C1875 1.349 . S
C1891 H1883 0.950 . S
C1891 C1889 1.327 . S
C1892 C1880 1.349 . S
C1892 H1886 0.950 . S
C1892 C1893 1.327 . S
C1893 H1887 0.950 . S
C1893 C1892 1.327 . S
C1893 C1897 1.429 . S
C1894 C1877 1.574 . S
C1894 H1888 0.949 . S
C1894 C1898 1.368 . S
C1895 C1876 1.429 . S
C1895 C1889 1.429 . S
C1895 C1896 1.523 . S
C1896 C1877 1.368 . S
C1896 C1890 1.368 . S
C1896 C1895 1.523 . S
C1897 C1881 1.429 . S
C1897 C1893 1.429 . S
C1897 C1898 1.523 . S
C1898 C1882 1.368 . S
C1898 C1894 1.368 . S
C1898 C1897 1.523 . S
H1899 C1874 0.950 . S
H1900 C1876 0.950 . S
H1901 C1877 0.949 . S
H1902 C1879 0.950 . S
H1903 C1881 0.950 . S
C1904 C1905 1.349 . S
C1904 C1906 1.327 . S
C1904 H1929 0.950 . S
C1905 C1904 1.349 . S
C1905 C1921 1.349 . S
C1906 C1904 1.327 . S
C1906 C1925 1.429 . S
C1906 H1930 0.950 . S
C1907 C1924 1.574 . S
C1907 C1926 1.368 1_565 S
C1907 H1931 0.949 . S
H1908 C1912 0.949 . S
C1909 C1910 1.349 . S
C1909 C1911 1.327 . S
C1909 H1932 0.950 . S
C1910 C1909 1.349 . S
C1910 C1922 1.349 . S
C1911 C1909 1.327 . S
C1911 C1927 1.429 . S
C1911 H1933 0.950 . S
C1912 H1908 0.949 . S
C1912 C1920 1.574 . S
C1912 C1928 1.368 1_545 S
H1913 C1921 0.950 . S
H1914 C1919 0.950 1_565 S
H1915 C1920 0.949 . S
H1916 C1922 0.950 . S
H1917 C1923 0.950 1_545 S
H1918 C1924 0.949 . S
C1919 H1914 0.950 1_545 S
C1919 C1921 1.327 . S
C1919 C1925 1.429 . S
C1920 C1912 1.574 . S
C1920 H1915 0.949 . S
C1920 C1926 1.368 . S
C1921 C1905 1.349 . S
C1921 H1913 0.950 . S
C1921 C1919 1.327 . S
C1922 C1910 1.349 . S
C1922 H1916 0.950 . S
C1922 C1923 1.327 . S
C1923 H1917 0.950 1_565 S
C1923 C1922 1.327 . S
C1923 C1927 1.429 . S
C1924 C1907 1.574 . S
C1924 H1918 0.949 . S
C1924 C1928 1.368 . S
C1925 C1906 1.429 . S
C1925 C1919 1.429 . S
C1925 C1926 1.523 . S
C1926 C1907 1.368 1_545 S
C1926 C1920 1.368 . S
C1926 C1925 1.523 . S
C1927 C1911 1.429 . S
C1927 C1923 1.429 . S
C1927 C1928 1.523 . S
C1928 C1912 1.368 1_565 S
C1928 C1924 1.368 . S
C1928 C1927 1.523 . S
H1929 C1904 0.950 . S
H1930 C1906 0.950 . S
H1931 C1907 0.949 . S
H1932 C1909 0.950 . S
H1933 C1911 0.950 . S
C1934 C1935 1.349 . S
C1934 C1936 1.327 . S
C1934 H1959 0.950 . S
C1935 C1934 1.349 . S
C1935 C1951 1.349 . S
C1936 C1934 1.327 . S
C1936 C1955 1.429 . S
C1936 H1960 0.950 1_655 S
C1937 C1954 1.574 1_545 S
C1937 C1956 1.368 . S
C1937 H1961 0.949 . S
H1938 C1942 0.949 . S
C1939 C1940 1.349 . S
C1939 C1941 1.327 . S
C1939 H1962 0.950 . S
C1940 C1939 1.349 . S
C1940 C1952 1.349 . S
C1941 C1939 1.327 . S
C1941 C1957 1.429 . S
C1941 H1963 0.950 1_455 S
C1942 H1938 0.949 . S
C1942 C1950 1.574 1_565 S
C1942 C1958 1.368 . S
H1943 C1951 0.950 . S
H1944 C1949 0.950 . S
H1945 C1950 0.949 . S
H1946 C1952 0.950 . S
H1947 C1953 0.950 . S
H1948 C1954 0.949 . S
C1949 H1944 0.950 . S
C1949 C1951 1.327 . S
C1949 C1955 1.429 . S
C1950 C1942 1.574 1_545 S
C1950 H1945 0.949 . S
C1950 C1956 1.368 1_455 S
C1951 C1935 1.349 . S
C1951 H1943 0.950 . S
C1951 C1949 1.327 . S
C1952 C1940 1.349 . S
C1952 H1946 0.950 . S
C1952 C1953 1.327 . S
C1953 H1947 0.950 . S
C1953 C1952 1.327 . S
C1953 C1957 1.429 . S
C1954 C1937 1.574 1_565 S
C1954 H1948 0.949 . S
C1954 C1958 1.368 1_655 S
C1955 C1936 1.429 . S
C1955 C1949 1.429 . S
C1955 C1956 1.523 . S
C1956 C1937 1.368 . S
C1956 C1950 1.368 1_655 S
C1956 C1955 1.523 . S
C1957 C1941 1.429 . S
C1957 C1953 1.429 . S
C1957 C1958 1.523 . S
C1958 C1942 1.368 . S
C1958 C1954 1.368 1_455 S
C1958 C1957 1.523 . S
H1959 C1934 0.950 . S
H1960 C1936 0.950 1_455 S
H1961 C1937 0.949 . S
H1962 C1939 0.950 . S
H1963 C1941 0.950 1_655 S
C1964 C1965 1.349 . S
C1964 C1966 1.327 . S
C1964 H1989 0.950 . S
C1965 C1964 1.349 . S
C1965 C1981 1.349 . S
C1966 C1964 1.327 . S
C1966 C1985 1.429 . S
C1966 H1990 0.950 . S
C1967 C1984 1.574 1_455 S
C1967 C1986 1.368 . S
C1967 H1991 0.949 . S
H1968 C1972 0.949 . S
C1969 C1970 1.349 . S
C1969 C1971 1.327 . S
C1969 H1992 0.950 . S
C1970 C1969 1.349 . S
C1970 C1982 1.349 . S
C1971 C1969 1.327 . S
C1971 C1987 1.429 . S
C1971 H1993 0.950 . S
C1972 H1968 0.949 . S
C1972 C1980 1.574 1_655 S
C1972 C1988 1.368 . S
H1973 C1981 0.950 . S
H1974 C1979 0.950 . S
H1975 C1980 0.949 . S
H1976 C1982 0.950 . S
H1977 C1983 0.950 . S
H1978 C1984 0.949 . S
C1979 H1974 0.950 . S
C1979 C1981 1.327 . S
C1979 C1985 1.429 . S
C1980 C1972 1.574 1_455 S
C1980 H1975 0.949 . S
C1980 C1986 1.368 . S
C1981 C1965 1.349 . S
C1981 H1973 0.950 . S
C1981 C1979 1.327 . S
C1982 C1970 1.349 . S
C1982 H1976 0.950 . S
C1982 C1983 1.327 . S
C1983 H1977 0.950 . S
C1983 C1982 1.327 . S
C1983 C1987 1.429 . S
C1984 C1967 1.574 1_655 S
C1984 H1978 0.949 . S
C1984 C1988 1.368 . S
C1985 C1966 1.429 . S
C1985 C1979 1.429 . S
C1985 C1986 1.523 . S
C1986 C1967 1.368 . S
C1986 C1980 1.368 . S
C1986 C1985 1.523 . S
C1987 C1971 1.429 . S
C1987 C1983 1.429 . S
C1987 C1988 1.523 . S
C1988 C1972 1.368 . S
C1988 C1984 1.368 . S
C1988 C1987 1.523 . S
H1989 C1964 0.950 . S
H1990 C1966 0.950 . S
H1991 C1967 0.949 . S
H1992 C1969 0.950 . S
H1993 C1971 0.950 . S
C1994 C1995 1.349 . S
C1994 C1996 1.327 . S
C1994 H2019 0.950 . S
C1995 C1994 1.349 . S
C1995 C2011 1.349 . S
C1996 C1994 1.327 . S
C1996 C2015 1.429 . S
C1996 H2020 0.950 . S
C1997 C2014 1.574 . S
C1997 C2016 1.368 . S
C1997 H2021 0.949 . S
H1998 C2002 0.949 . S
C1999 C2000 1.349 . S
C1999 C2001 1.327 . S
C1999 H2022 0.950 . S
C2000 C1999 1.349 . S
C2000 C2012 1.349 . S
C2001 C1999 1.327 . S
C2001 C2017 1.429 . S
C2001 H2023 0.950 . S
C2002 H1998 0.949 . S
C2002 C2010 1.574 . S
C2002 C2018 1.368 . S
H2003 C2011 0.950 . S
H2004 C2009 0.950 . S
H2005 C2010 0.949 . S
H2006 C2012 0.950 . S
H2007 C2013 0.950 . S
H2008 C2014 0.949 . S
C2009 H2004 0.950 . S
C2009 C2011 1.327 . S
C2009 C2015 1.429 . S
C2010 C2002 1.574 . S
C2010 H2005 0.949 . S
C2010 C2016 1.368 . S
C2011 C1995 1.349 . S
C2011 H2003 0.950 . S
C2011 C2009 1.327 . S
C2012 C2000 1.349 . S
C2012 H2006 0.950 . S
C2012 C2013 1.327 . S
C2013 H2007 0.950 . S
C2013 C2012 1.327 . S
C2013 C2017 1.429 . S
C2014 C1997 1.574 . S
C2014 H2008 0.949 . S
C2014 C2018 1.368 . S
C2015 C1996 1.429 . S
C2015 C2009 1.429 . S
C2015 C2016 1.523 . S
C2016 C1997 1.368 . S
C2016 C2010 1.368 . S
C2016 C2015 1.523 . S
C2017 C2001 1.429 . S
C2017 C2013 1.429 . S
C2017 C2018 1.523 . S
C2018 C2002 1.368 . S
C2018 C2014 1.368 . S
C2018 C2017 1.523 . S
H2019 C1994 0.950 . S
H2020 C1996 0.950 . S
H2021 C1997 0.949 . S
H2022 C1999 0.950 . S
H2023 C2001 0.950 . S
C2024 C2025 1.349 . S
C2024 C2026 1.327 . S
C2024 H2049 0.950 . S
C2025 C2024 1.349 . S
C2025 C2041 1.349 . S
C2026 C2024 1.327 . S
C2026 C2045 1.429 . S
C2026 H2050 0.950 . S
C2027 C2044 1.574 . S
C2027 C2046 1.368 . S
C2027 H2051 0.949 . S
H2028 C2032 0.949 . S
C2029 C2030 1.349 . S
C2029 C2031 1.327 . S
C2029 H2052 0.950 . S
C2030 C2029 1.349 . S
C2030 C2042 1.349 . S
C2031 C2029 1.327 . S
C2031 C2047 1.429 . S
C2031 H2053 0.950 . S
C2032 H2028 0.949 . S
C2032 C2040 1.574 . S
C2032 C2048 1.368 . S
H2033 C2041 0.950 . S
H2034 C2039 0.950 . S
H2035 C2040 0.949 . S
H2036 C2042 0.950 . S
H2037 C2043 0.950 . S
H2038 C2044 0.949 . S
C2039 H2034 0.950 . S
C2039 C2041 1.327 . S
C2039 C2045 1.429 . S
C2040 C2032 1.574 . S
C2040 H2035 0.949 . S
C2040 C2046 1.368 . S
C2041 C2025 1.349 . S
C2041 H2033 0.950 . S
C2041 C2039 1.327 . S
C2042 C2030 1.349 . S
C2042 H2036 0.950 . S
C2042 C2043 1.327 . S
C2043 H2037 0.950 . S
C2043 C2042 1.327 . S
C2043 C2047 1.429 . S
C2044 C2027 1.574 . S
C2044 H2038 0.949 . S
C2044 C2048 1.368 . S
C2045 C2026 1.429 . S
C2045 C2039 1.429 . S
C2045 C2046 1.523 . S
C2046 C2027 1.368 . S
C2046 C2040 1.368 . S
C2046 C2045 1.523 . S
C2047 C2031 1.429 . S
C2047 C2043 1.429 . S
C2047 C2048 1.523 . S
C2048 C2032 1.368 . S
C2048 C2044 1.368 . S
C2048 C2047 1.523 . S
H2049 C2024 0.950 . S
H2050 C2026 0.950 . S
H2051 C2027 0.949 . S
H2052 C2029 0.950 . S
H2053 C2031 0.950 . S
C2054 C2055 1.349 . S
C2054 C2056 1.327 . S
C2054 H2079 0.950 . S
C2055 C2054 1.349 . S
C2055 C2071 1.349 . S
C2056 C2054 1.327 . S
C2056 C2075 1.429 . S
C2056 H2080 0.950 . S
C2057 C2074 1.574 1_545 S
C2057 C2076 1.368 . S
C2057 H2081 0.949 . S
H2058 C2062 0.949 . S
C2059 C2060 1.349 . S
C2059 C2061 1.327 . S
C2059 H2082 0.950 . S
C2060 C2059 1.349 . S
C2060 C2072 1.349 . S
C2061 C2059 1.327 . S
C2061 C2077 1.429 . S
C2061 H2083 0.950 . S
C2062 H2058 0.949 . S
C2062 C2070 1.574 1_565 S
C2062 C2078 1.368 . S
H2063 C2071 0.950 . S
H2064 C2069 0.950 . S
H2065 C2070 0.949 . S
H2066 C2072 0.950 . S
H2067 C2073 0.950 . S
H2068 C2074 0.949 . S
C2069 H2064 0.950 . S
C2069 C2071 1.327 . S
C2069 C2075 1.429 . S
C2070 C2062 1.574 1_545 S
C2070 H2065 0.949 . S
C2070 C2076 1.368 . S
C2071 C2055 1.349 . S
C2071 H2063 0.950 . S
C2071 C2069 1.327 . S
C2072 C2060 1.349 . S
C2072 H2066 0.950 . S
C2072 C2073 1.327 . S
C2073 H2067 0.950 . S
C2073 C2072 1.327 . S
C2073 C2077 1.429 . S
C2074 C2057 1.574 1_565 S
C2074 H2068 0.949 . S
C2074 C2078 1.368 . S
C2075 C2056 1.429 . S
C2075 C2069 1.429 . S
C2075 C2076 1.523 . S
C2076 C2057 1.368 . S
C2076 C2070 1.368 . S
C2076 C2075 1.523 . S
C2077 C2061 1.429 . S
C2077 C2073 1.429 . S
C2077 C2078 1.523 . S
C2078 C2062 1.368 . S
C2078 C2074 1.368 . S
C2078 C2077 1.523 . S
H2079 C2054 0.950 . S
H2080 C2056 0.950 . S
H2081 C2057 0.949 . S
H2082 C2059 0.950 . S
H2083 C2061 0.950 . S
C2084 C2085 1.349 . S
C2084 C2086 1.327 . S
C2084 H2109 0.950 . S
C2085 C2084 1.349 . S
C2085 C2101 1.349 . S
C2086 C2084 1.327 . S
C2086 C2105 1.429 . S
C2086 H2110 0.950 1_565 S
C2087 C2104 1.574 1_455 S
C2087 C2106 1.368 . S
C2087 H2111 0.949 . S
H2088 C2092 0.949 . S
C2089 C2090 1.349 . S
C2089 C2091 1.327 . S
C2089 H2112 0.950 . S
C2090 C2089 1.349 . S
C2090 C2102 1.349 . S
C2091 C2089 1.327 . S
C2091 C2107 1.429 . S
C2091 H2113 0.950 1_545 S
C2092 H2088 0.949 . S
C2092 C2100 1.574 1_655 S
C2092 C2108 1.368 . S
H2093 C2101 0.950 . S
H2094 C2099 0.950 . S
H2095 C2100 0.949 . S
H2096 C2102 0.950 . S
H2097 C2103 0.950 . S
H2098 C2104 0.949 . S
C2099 H2094 0.950 . S
C2099 C2101 1.327 . S
C2099 C2105 1.429 . S
C2100 C2092 1.574 1_455 S
C2100 H2095 0.949 . S
C2100 C2106 1.368 1_545 S
C2101 C2085 1.349 . S
C2101 H2093 0.950 . S
C2101 C2099 1.327 . S
C2102 C2090 1.349 . S
C2102 H2096 0.950 . S
C2102 C2103 1.327 . S
C2103 H2097 0.950 . S
C2103 C2102 1.327 . S
C2103 C2107 1.429 . S
C2104 C2087 1.574 1_655 S
C2104 H2098 0.949 . S
C2104 C2108 1.368 1_565 S
C2105 C2086 1.429 . S
C2105 C2099 1.429 . S
C2105 C2106 1.523 . S
C2106 C2087 1.368 . S
C2106 C2100 1.368 1_565 S
C2106 C2105 1.523 . S
C2107 C2091 1.429 . S
C2107 C2103 1.429 . S
C2107 C2108 1.523 . S
C2108 C2092 1.368 . S
C2108 C2104 1.368 1_545 S
C2108 C2107 1.523 . S
H2109 C2084 0.950 . S
H2110 C2086 0.950 1_545 S
H2111 C2087 0.949 . S
H2112 C2089 0.950 . S
H2113 C2091 0.950 1_565 S
C2114 C2115 1.349 . S
C2114 C2116 1.327 . S
C2114 H2139 0.950 . S
C2115 C2114 1.349 . S
C2115 C2131 1.349 . S
C2116 C2114 1.327 . S
C2116 C2135 1.429 . S
C2116 H2140 0.950 . S
C2117 C2134 1.574 . S
C2117 C2136 1.368 1_655 S
C2117 H2141 0.949 . S
H2118 C2122 0.949 . S
C2119 C2120 1.349 . S
C2119 C2121 1.327 . S
C2119 H2142 0.950 . S
C2120 C2119 1.349 . S
C2120 C2132 1.349 . S
C2121 C2119 1.327 . S
C2121 C2137 1.429 . S
C2121 H2143 0.950 . S
C2122 H2118 0.949 . S
C2122 C2130 1.574 . S
C2122 C2138 1.368 1_455 S
H2123 C2131 0.950 1_655 S
H2124 C2129 0.977 . S
H2125 C2130 0.949 . S
H2126 C2132 0.950 1_455 S
H2127 C2133 0.977 . S
H2128 C2134 0.949 . S
C2129 H2124 0.977 . S
C2129 C2131 1.318 1_655 S
C2129 C2135 1.411 1_655 S
C2130 C2122 1.574 . S
C2130 H2125 0.949 . S
C2130 C2136 1.368 . S
C2131 C2115 1.349 . S
C2131 H2123 0.950 1_455 S
C2131 C2129 1.318 1_455 S
C2132 C2120 1.349 . S
C2132 H2126 0.950 1_655 S
C2132 C2133 1.318 1_655 S
C2133 H2127 0.977 . S
C2133 C2132 1.318 1_455 S
C2133 C2137 1.411 1_455 S
C2134 C2117 1.574 . S
C2134 H2128 0.949 . S
C2134 C2138 1.368 . S
C2135 C2116 1.429 . S
C2135 C2129 1.411 1_455 S
C2135 C2136 1.523 . S
C2136 C2117 1.368 1_455 S
C2136 C2130 1.368 . S
C2136 C2135 1.523 . S
C2137 C2121 1.429 . S
C2137 C2133 1.411 1_655 S
C2137 C2138 1.523 . S
C2138 C2122 1.368 1_655 S
C2138 C2134 1.368 . S
C2138 C2137 1.523 . S
H2139 C2114 0.950 . S
H2140 C2116 0.950 . S
H2141 C2117 0.949 . S
H2142 C2119 0.950 . S
H2143 C2121 0.950 . S
C465 C21 0.374 . S
C470 C224 0.374 . S
C495 C137 0.374 . S
C500 C50 0.374 . S
C525 C79 0.374 . S
C530 C166 0.374 . S
C555 C108 0.374 . S
C560 C195 0.374 . S
C585 C456 0.374 . S
C590 C253 0.374 . S
C615 C369 0.374 . S
C620 C282 0.374 . S
C645 C311 0.374 . S
C650 C398 0.374 . S
C675 C340 0.374 . S
C680 C427 0.374 . S
C705 C97 2.058 . S
C710 C5 2.039 1_556 S
C735 C34 2.039 . S
C740 C10 2.058 . S
C765 C63 2.039 . S
C770 C39 2.058 . S
C795 C92 2.039 . S
C800 C68 2.058 . S
C825 C121 2.039 . S
C830 C155 2.058 . S
C855 C150 2.039 . S
C860 C184 2.058 . S
C885 C213 2.058 . S
C890 C179 2.039 . S
C915 C208 2.039 1_554 S
C920 C126 2.058 . S
C945 C329 2.058 . S
C950 C237 2.039 . S
C975 C266 2.039 . S
C980 C242 2.058 . S
C1005 C271 2.058 . S
C1010 C295 2.039 1_556 S
C1035 C324 2.039 . S
C1040 C300 2.058 . S
C1065 C353 2.039 . S
C1070 C387 2.058 . S
C1095 C382 2.039 1_554 S
C1100 C416 2.058 . S
C1125 C411 2.039 . S
C1130 C445 2.058 . S
C1155 C440 2.039 . S
C1160 C358 2.058 . S
C1185 C124 1.120 . S
C1190 C8 1.120 . S
C1215 C153 1.120 . S
C1220 C37 1.120 . S
C1245 C66 1.120 . S
C1250 C182 1.120 . S
C1275 C211 1.120 . S
C1280 C95 1.120 . S
C1305 C356 1.120 . S
C1310 C240 1.120 . S
C1335 C269 1.120 . S
C1340 C385 1.120 . S
C1365 C414 1.120 . S
C1370 C298 1.120 . S
C1395 C443 1.120 . S
C1400 C327 1.120 . S
C1425 C177 2.332 . S
C1430 C3 2.332 . S
C1455 C206 2.332 . S
C1460 C32 2.332 . S
C1485 C61 2.332 . S
C1490 C119 2.332 . S
C1515 C90 2.332 . S
C1520 C148 2.332 . S
C1545 C235 2.332 . S
C1550 C409 2.332 . S
C1575 C264 2.332 . S
C1580 C438 2.332 . S
C1605 C351 2.332 . S
C1610 C293 2.332 . S
C1635 C380 2.332 . S
C1640 C322 2.332 . S
C1665 C160 2.315 . S
C1670 C15 2.315 . S
C1695 C44 2.315 . S
C1700 C189 2.315 . S
C1725 C73 2.315 . S
C1730 C218 2.315 . S
C1755 C131 2.315 . S
C1760 C102 2.315 . S
C1785 C247 2.315 . S
C1790 C392 2.315 . S
C1815 C421 2.315 . S
C1820 C276 2.315 . S
C1845 C305 2.315 . S
C1850 C450 2.315 . S
C1875 C334 2.315 . S
C1880 C363 2.315 . S
C1905 C13 1.872 . S
C1910 C303 1.872 . S
C1935 C42 1.872 . S
C1940 C332 1.872 . S
C1965 C245 1.872 . S
C1970 C71 1.872 . S
C1995 C274 1.872 . S
C2000 C100 1.872 . S
C2025 C129 1.872 . S
C2030 C419 1.872 . S
C2055 C158 1.872 . S
C2060 C448 1.872 . S
C2085 C361 1.872 . S
C2090 C187 1.872 . S
C2115 C390 1.872 . S
C2120 C216 1.872 . S
