# Generated by pormake.
# Topology uns, (4)-cn, num edge types: 1
# Building blocks:
#     Node 0, Type 0, BuildingBlock: MUDLON_clean_sbu_0, # of connection points: 4
#     Node 1, Type 0, BuildingBlock: MUDLON_clean_sbu_0, # of connection points: 4
#     Node 2, Type 0, BuildingBlock: MUDLON_clean_sbu_0, # of connection points: 4
#     Node 3, Type 0, BuildingBlock: MUDLON_clean_sbu_0, # of connection points: 4
#     Node 4, Type 0, BuildingBlock: MUDLON_clean_sbu_0, # of connection points: 4
#     Node 5, Type 0, BuildingBlock: MUDLON_clean_sbu_0, # of connection points: 4
#     Node 6, Type 0, BuildingBlock: MUDLON_clean_sbu_0, # of connection points: 4
#     Node 7, Type 0, BuildingBlock: MUDLON_clean_sbu_0, # of connection points: 4
#     Node 8, Type 0, BuildingBlock: MUDLON_clean_sbu_0, # of connection points: 4
#     Node 9, Type 0, BuildingBlock: MUDLON_clean_sbu_0, # of connection points: 4
#     Node 10, Type 0, BuildingBlock: MUDLON_clean_sbu_0, # of connection points: 4
#     Node 11, Type 0, BuildingBlock: MUDLON_clean_sbu_0, # of connection points: 4
#     Node 12, Type 0, BuildingBlock: MUDLON_clean_sbu_0, # of connection points: 4
#     Node 13, Type 0, BuildingBlock: MUDLON_clean_sbu_0, # of connection points: 4
#     Node 14, Type 0, BuildingBlock: MUDLON_clean_sbu_0, # of connection points: 4
#     Node 15, Type 0, BuildingBlock: MUDLON_clean_sbu_0, # of connection points: 4
#     Node 16, Type 0, BuildingBlock: MUDLON_clean_sbu_0, # of connection points: 4
#     Node 17, Type 0, BuildingBlock: MUDLON_clean_sbu_0, # of connection points: 4
#     Node 18, Type 0, BuildingBlock: MUDLON_clean_sbu_0, # of connection points: 4
#     Node 19, Type 0, BuildingBlock: MUDLON_clean_sbu_0, # of connection points: 4
#     Node 20, Type 0, BuildingBlock: MUDLON_clean_sbu_0, # of connection points: 4
#     Node 21, Type 0, BuildingBlock: MUDLON_clean_sbu_0, # of connection points: 4
#     Node 22, Type 0, BuildingBlock: MUDLON_clean_sbu_0, # of connection points: 4
#     Node 23, Type 0, BuildingBlock: MUDLON_clean_sbu_0, # of connection points: 4
#     Node 24, Type 0, BuildingBlock: MUDLON_clean_sbu_0, # of connection points: 4
#     Node 25, Type 0, BuildingBlock: MUDLON_clean_sbu_0, # of connection points: 4
#     Node 26, Type 0, BuildingBlock: MUDLON_clean_sbu_0, # of connection points: 4
#     Node 27, Type 0, BuildingBlock: MUDLON_clean_sbu_0, # of connection points: 4
#     Node 28, Type 0, BuildingBlock: MUDLON_clean_sbu_0, # of connection points: 4
#     Node 29, Type 0, BuildingBlock: MUDLON_clean_sbu_0, # of connection points: 4
#     Node 30, Type 0, BuildingBlock: MUDLON_clean_sbu_0, # of connection points: 4
#     Node 31, Type 0, BuildingBlock: MUDLON_clean_sbu_0, # of connection points: 4
#     Node 32, Type 0, BuildingBlock: MUDLON_clean_sbu_0, # of connection points: 4
#     Node 33, Type 0, BuildingBlock: MUDLON_clean_sbu_0, # of connection points: 4
#     Node 34, Type 0, BuildingBlock: MUDLON_clean_sbu_0, # of connection points: 4
#     Node 35, Type 0, BuildingBlock: MUDLON_clean_sbu_0, # of connection points: 4
#     Edge 36, Type (0, 0), BuildingBlock: UVAHIK_clean_linker_0, # of connection points: 2
#     Edge 37, Type (0, 0), BuildingBlock: UVAHIK_clean_linker_0, # of connection points: 2
#     Edge 38, Type (0, 0), BuildingBlock: UVAHIK_clean_linker_0, # of connection points: 2
#     Edge 39, Type (0, 0), BuildingBlock: UVAHIK_clean_linker_0, # of connection points: 2
#     Edge 40, Type (0, 0), BuildingBlock: UVAHIK_clean_linker_0, # of connection points: 2
#     Edge 41, Type (0, 0), BuildingBlock: UVAHIK_clean_linker_0, # of connection points: 2
#     Edge 42, Type (0, 0), BuildingBlock: UVAHIK_clean_linker_0, # of connection points: 2
#     Edge 43, Type (0, 0), BuildingBlock: UVAHIK_clean_linker_0, # of connection points: 2
#     Edge 44, Type (0, 0), BuildingBlock: UVAHIK_clean_linker_0, # of connection points: 2
#     Edge 45, Type (0, 0), BuildingBlock: UVAHIK_clean_linker_0, # of connection points: 2
#     Edge 46, Type (0, 0), BuildingBlock: UVAHIK_clean_linker_0, # of connection points: 2
#     Edge 47, Type (0, 0), BuildingBlock: UVAHIK_clean_linker_0, # of connection points: 2
#     Edge 48, Type (0, 0), BuildingBlock: UVAHIK_clean_linker_0, # of connection points: 2
#     Edge 49, Type (0, 0), BuildingBlock: UVAHIK_clean_linker_0, # of connection points: 2
#     Edge 50, Type (0, 0), BuildingBlock: UVAHIK_clean_linker_0, # of connection points: 2
#     Edge 51, Type (0, 0), BuildingBlock: UVAHIK_clean_linker_0, # of connection points: 2
#     Edge 52, Type (0, 0), BuildingBlock: UVAHIK_clean_linker_0, # of connection points: 2
#     Edge 53, Type (0, 0), BuildingBlock: UVAHIK_clean_linker_0, # of connection points: 2
#     Edge 54, Type (0, 0), BuildingBlock: UVAHIK_clean_linker_0, # of connection points: 2
#     Edge 55, Type (0, 0), BuildingBlock: UVAHIK_clean_linker_0, # of connection points: 2
#     Edge 56, Type (0, 0), BuildingBlock: UVAHIK_clean_linker_0, # of connection points: 2
#     Edge 57, Type (0, 0), BuildingBlock: UVAHIK_clean_linker_0, # of connection points: 2
#     Edge 58, Type (0, 0), BuildingBlock: UVAHIK_clean_linker_0, # of connection points: 2
#     Edge 59, Type (0, 0), BuildingBlock: UVAHIK_clean_linker_0, # of connection points: 2
#     Edge 60, Type (0, 0), BuildingBlock: UVAHIK_clean_linker_0, # of connection points: 2
#     Edge 61, Type (0, 0), BuildingBlock: UVAHIK_clean_linker_0, # of connection points: 2
#     Edge 62, Type (0, 0), BuildingBlock: UVAHIK_clean_linker_0, # of connection points: 2
#     Edge 63, Type (0, 0), BuildingBlock: UVAHIK_clean_linker_0, # of connection points: 2
#     Edge 64, Type (0, 0), BuildingBlock: UVAHIK_clean_linker_0, # of connection points: 2
#     Edge 65, Type (0, 0), BuildingBlock: UVAHIK_clean_linker_0, # of connection points: 2
#     Edge 66, Type (0, 0), BuildingBlock: UVAHIK_clean_linker_0, # of connection points: 2
#     Edge 67, Type (0, 0), BuildingBlock: UVAHIK_clean_linker_0, # of connection points: 2
#     Edge 68, Type (0, 0), BuildingBlock: UVAHIK_clean_linker_0, # of connection points: 2
#     Edge 69, Type (0, 0), BuildingBlock: UVAHIK_clean_linker_0, # of connection points: 2
#     Edge 70, Type (0, 0), BuildingBlock: UVAHIK_clean_linker_0, # of connection points: 2
#     Edge 71, Type (0, 0), BuildingBlock: UVAHIK_clean_linker_0, # of connection points: 2
#     Edge 72, Type (0, 0), BuildingBlock: UVAHIK_clean_linker_0, # of connection points: 2
#     Edge 73, Type (0, 0), BuildingBlock: UVAHIK_clean_linker_0, # of connection points: 2
#     Edge 74, Type (0, 0), BuildingBlock: UVAHIK_clean_linker_0, # of connection points: 2
#     Edge 75, Type (0, 0), BuildingBlock: UVAHIK_clean_linker_0, # of connection points: 2
#     Edge 76, Type (0, 0), BuildingBlock: UVAHIK_clean_linker_0, # of connection points: 2
#     Edge 77, Type (0, 0), BuildingBlock: UVAHIK_clean_linker_0, # of connection points: 2
#     Edge 78, Type (0, 0), BuildingBlock: UVAHIK_clean_linker_0, # of connection points: 2
#     Edge 79, Type (0, 0), BuildingBlock: UVAHIK_clean_linker_0, # of connection points: 2
#     Edge 80, Type (0, 0), BuildingBlock: UVAHIK_clean_linker_0, # of connection points: 2
#     Edge 81, Type (0, 0), BuildingBlock: UVAHIK_clean_linker_0, # of connection points: 2
#     Edge 82, Type (0, 0), BuildingBlock: UVAHIK_clean_linker_0, # of connection points: 2
#     Edge 83, Type (0, 0), BuildingBlock: UVAHIK_clean_linker_0, # of connection points: 2
#     Edge 84, Type (0, 0), BuildingBlock: UVAHIK_clean_linker_0, # of connection points: 2
#     Edge 85, Type (0, 0), BuildingBlock: UVAHIK_clean_linker_0, # of connection points: 2
#     Edge 86, Type (0, 0), BuildingBlock: UVAHIK_clean_linker_0, # of connection points: 2
#     Edge 87, Type (0, 0), BuildingBlock: UVAHIK_clean_linker_0, # of connection points: 2
#     Edge 88, Type (0, 0), BuildingBlock: UVAHIK_clean_linker_0, # of connection points: 2
#     Edge 89, Type (0, 0), BuildingBlock: UVAHIK_clean_linker_0, # of connection points: 2
#     Edge 90, Type (0, 0), BuildingBlock: UVAHIK_clean_linker_0, # of connection points: 2
#     Edge 91, Type (0, 0), BuildingBlock: UVAHIK_clean_linker_0, # of connection points: 2
#     Edge 92, Type (0, 0), BuildingBlock: UVAHIK_clean_linker_0, # of connection points: 2
#     Edge 93, Type (0, 0), BuildingBlock: UVAHIK_clean_linker_0, # of connection points: 2
#     Edge 94, Type (0, 0), BuildingBlock: UVAHIK_clean_linker_0, # of connection points: 2
#     Edge 95, Type (0, 0), BuildingBlock: UVAHIK_clean_linker_0, # of connection points: 2
#     Edge 96, Type (0, 0), BuildingBlock: UVAHIK_clean_linker_0, # of connection points: 2
#     Edge 97, Type (0, 0), BuildingBlock: UVAHIK_clean_linker_0, # of connection points: 2
#     Edge 98, Type (0, 0), BuildingBlock: UVAHIK_clean_linker_0, # of connection points: 2
#     Edge 99, Type (0, 0), BuildingBlock: UVAHIK_clean_linker_0, # of connection points: 2
#     Edge 100, Type (0, 0), BuildingBlock: UVAHIK_clean_linker_0, # of connection points: 2
#     Edge 101, Type (0, 0), BuildingBlock: UVAHIK_clean_linker_0, # of connection points: 2
#     Edge 102, Type (0, 0), BuildingBlock: UVAHIK_clean_linker_0, # of connection points: 2
#     Edge 103, Type (0, 0), BuildingBlock: UVAHIK_clean_linker_0, # of connection points: 2
#     Edge 104, Type (0, 0), BuildingBlock: UVAHIK_clean_linker_0, # of connection points: 2
#     Edge 105, Type (0, 0), BuildingBlock: UVAHIK_clean_linker_0, # of connection points: 2
#     Edge 106, Type (0, 0), BuildingBlock: UVAHIK_clean_linker_0, # of connection points: 2
#     Edge 107, Type (0, 0), BuildingBlock: UVAHIK_clean_linker_0, # of connection points: 2
# Relax obj value: 0.028
# Max RMSD: 0.173
# Mean RMSD: 0.173
data_MOF--net-uns--node1-MUDLON_clean_sbu_0--edge1-UVAHIK_clean_linker_0
_symmetry_space_group_name_H-M    P1
_symmetry_Int_Tables_number       1
_symmetry_cell_setting            triclinic
loop_
_symmetry_equiv_pos_as_xyz
'x, y, z'
_cell_length_a     76.067485
_cell_length_b     76.167669
_cell_length_c     74.184194
_cell_angle_alpha  89.938415
_cell_angle_beta   89.959716
_cell_angle_gamma 119.9595
loop_
_atom_site_label
_atom_site_type_symbol
_atom_site_fract_x
_atom_site_fract_y
_atom_site_fract_z
_atom_type_partial_charge
Mg0 Mg 0.27421 0.19232 0.0621 0.0
C1 C 0.31644 0.22996 0.06527 0.0
O2 O 0.32075 0.21727 0.07347 0.0
C3 C 0.25667 0.15854 0.03422 0.0
O4 O 0.24122 0.16158 0.03605 0.0
C5 C 0.28665 0.19517 0.10188 0.0
O6 O 0.28849 0.21322 0.10052 0.0
O7 O 0.27949 0.18305 0.08858 0.0
O8 O 0.29916 0.22313 0.05787 0.0
O9 O 0.24667 0.19451 0.05905 0.0
C10 C 0.24756 0.21158 0.06087 0.0
O11 O 0.26453 0.22711 0.06665 0.0
O12 O 0.27296 0.16987 0.04284 0.0
Mg13 Mg 0.8198 0.0822 0.06538 0.0
C14 C 0.8057 0.04321 0.04767 0.0
O15 O 0.8002 0.05351 0.03714 0.0
C16 C 0.8319 0.11461 0.09188 0.0
O17 O 0.82952 0.12203 0.07666 0.0
C18 C 0.86106 0.10828 0.05143 0.0
O19 O 0.86353 0.10249 0.06747 0.0
O20 O 0.84303 0.10202 0.04592 0.0
O21 O 0.8153 0.05165 0.06209 0.0
O22 O 0.78938 0.07812 0.06267 0.0
C23 C 0.77896 0.07048 0.07694 0.0
O24 O 0.78757 0.06663 0.09056 0.0
O25 O 0.82952 0.09682 0.09176 0.0
Mg26 Mg 0.93237 0.74036 0.06674 0.0
C27 C 0.97536 0.7624 0.05402 0.0
O28 O 0.96888 0.74371 0.04875 0.0
C29 C 0.89867 0.73025 0.0933 0.0
O30 O 0.88893 0.72686 0.07794 0.0
C31 C 0.91856 0.75657 0.03524 0.0
O32 O 0.93794 0.77027 0.03509 0.0
O33 O 0.91228 0.74175 0.04621 0.0
O34 O 0.96322 0.76624 0.06275 0.0
O35 O 0.93565 0.71336 0.06651 0.0
C36 C 0.94089 0.70958 0.08169 0.0
O37 O 0.94283 0.72125 0.09545 0.0
O38 O 0.91787 0.73784 0.09298 0.0
Mg39 Mg 0.19215 0.26387 0.44272 0.0
C40 C 0.20723 0.23956 0.45998 0.0
O41 O 0.21128 0.25458 0.47105 0.0
C42 C 0.17233 0.27886 0.41722 0.0
O43 O 0.16805 0.28351 0.43304 0.0
C44 C 0.16769 0.27048 0.47369 0.0
O45 O 0.18263 0.28935 0.47404 0.0
O46 O 0.16862 0.25804 0.46282 0.0
O47 O 0.19827 0.2387 0.44522 0.0
O48 O 0.22214 0.29096 0.4456 0.0
C49 C 0.23164 0.29664 0.43064 0.0
O50 O 0.2225 0.28652 0.41601 0.0
O51 O 0.1814 0.26861 0.41666 0.0
Mg52 Mg 0.73975 0.92545 0.44387 0.0
C53 C 0.77635 0.95969 0.46147 0.0
O54 O 0.77188 0.94458 0.47255 0.0
C55 C 0.72339 0.89384 0.41542 0.0
O56 O 0.719 0.88336 0.43047 0.0
C57 C 0.74088 0.89869 0.47623 0.0
O58 O 0.73119 0.90557 0.48598 0.0
O59 O 0.7452 0.90432 0.45987 0.0
O60 O 0.76603 0.95613 0.44704 0.0
O61 O 0.71399 0.92942 0.45109 0.0
C62 C 0.69882 0.92314 0.44052 0.0
O63 O 0.69731 0.91137 0.427 0.0
O64 O 0.73357 0.91312 0.41638 0.0
Mg65 Mg 0.08772 0.81576 0.44624 0.0
C66 C 0.09215 0.77802 0.44304 0.0
O67 O 0.10908 0.79069 0.43472 0.0
C68 C 0.10524 0.85454 0.46587 0.0
O69 O 0.09247 0.85527 0.45439 0.0
C70 C 0.09848 0.81393 0.40666 0.0
O71 O 0.08194 0.79607 0.40744 0.0
O72 O 0.10336 0.82559 0.42028 0.0
O73 O 0.08184 0.78491 0.45066 0.0
O74 O 0.05791 0.81352 0.44812 0.0
C75 C 0.04167 0.79644 0.44683 0.0
O76 O 0.04298 0.78049 0.44215 0.0
O77 O 0.10691 0.83869 0.4661 0.0
Mg78 Mg 0.74784 0.8192 0.9437 0.0
C79 C 0.77475 0.80802 0.96233 0.0
O80 O 0.75897 0.80231 0.97296 0.0
C81 C 0.73235 0.81827 0.90563 0.0
O82 O 0.72647 0.79899 0.90763 0.0
C83 C 0.76598 0.85631 0.96602 0.0
O84 O 0.7811 0.85839 0.95591 0.0
O85 O 0.74881 0.84022 0.96435 0.0
O86 O 0.77536 0.81701 0.94763 0.0
O87 O 0.7226 0.78792 0.94572 0.0
C88 C 0.7265 0.77462 0.93954 0.0
O89 O 0.74483 0.78058 0.9334 0.0
O90 O 0.74323 0.83065 0.9179 0.0
Mg91 Mg 0.19881 0.92566 0.94514 0.0
C92 C 0.23587 0.92151 0.93622 0.0
O93 O 0.22336 0.9088 0.92418 0.0
C94 C 0.1636 0.91004 0.97124 0.0
O95 O 0.16502 0.92726 0.96624 0.0
C96 C 0.17785 0.89293 0.9177 0.0
O97 O 0.17269 0.88268 0.9329 0.0
O98 O 0.18812 0.91222 0.91842 0.0
O99 O 0.22921 0.92934 0.94756 0.0
O100 O 0.20347 0.95635 0.94897 0.0
C101 C 0.2178 0.96753 0.95973 0.0
O102 O 0.22834 0.96007 0.96715 0.0
O103 O 0.17646 0.90548 0.9651 0.0
Mg104 Mg 0.08637 0.26919 0.94332 0.0
C105 C 0.0523 0.23878 0.96486 0.0
O106 O 0.06534 0.25148 0.97663 0.0
C107 C 0.0958 0.27839 0.90311 0.0
O108 O 0.07859 0.27848 0.90346 0.0
C109 C 0.10725 0.25198 0.96361 0.0
O110 O 0.095 0.23767 0.95247 0.0
O111 O 0.10741 0.26879 0.96337 0.0
O112 O 0.05715 0.24148 0.94823 0.0
O113 O 0.07949 0.29396 0.94399 0.0
C114 C 0.06203 0.28882 0.93755 0.0
O115 O 0.05007 0.26974 0.93319 0.0
O116 O 0.10155 0.27319 0.91725 0.0
Mg117 Mg 0.82213 0.73999 0.56259 0.0
C118 C 0.81929 0.77313 0.54351 0.0
O119 O 0.82546 0.76558 0.53069 0.0
C120 C 0.8185 0.72668 0.60141 0.0
O121 O 0.79994 0.72306 0.59851 0.0
C122 C 0.86187 0.75949 0.54353 0.0
O123 O 0.86376 0.77347 0.55499 0.0
O124 O 0.84517 0.74274 0.54321 0.0
O125 O 0.8173 0.766 0.55941 0.0
O126 O 0.79211 0.71331 0.55969 0.0
C127 C 0.77861 0.71338 0.54964 0.0
O128 O 0.78377 0.72873 0.53866 0.0
O129 O 0.83179 0.73551 0.58914 0.0
Mg130 Mg 0.27691 0.08057 0.56118 0.0
C131 C 0.31946 0.08521 0.56214 0.0
O132 O 0.32452 0.10251 0.57005 0.0
C133 C 0.26677 0.09863 0.52724 0.0
O134 O 0.26244 0.08158 0.5192 0.0
C135 C 0.29427 0.1134 0.58874 0.0
O136 O 0.29887 0.12354 0.57349 0.0
O137 O 0.28371 0.09412 0.58816 0.0
O138 O 0.30171 0.07475 0.55559 0.0
O139 O 0.25045 0.05001 0.55943 0.0
C140 C 0.23352 0.04561 0.55229 0.0
O141 O 0.23036 0.06034 0.54726 0.0
O142 O 0.27345 0.10171 0.54335 0.0
Mg143 Mg 0.93094 0.19172 0.56267 0.0
C144 C 0.97716 0.21295 0.56221 0.0
O145 O 0.97476 0.22754 0.569 0.0
C146 C 0.89749 0.1744 0.58952 0.0
O147 O 0.88805 0.17248 0.57419 0.0
C148 C 0.90863 0.151 0.5469 0.0
O149 O 0.91802 0.14917 0.56102 0.0
O150 O 0.91116 0.16847 0.54328 0.0
O151 O 0.96148 0.19575 0.55933 0.0
O152 O 0.93454 0.22201 0.55932 0.0
C153 C 0.93483 0.23112 0.57383 0.0
O154 O 0.9315 0.22138 0.58918 0.0
O155 O 0.91656 0.18117 0.58916 0.0
Mg156 Mg 0.94579 0.52745 0.39486 0.0
C157 C 0.97113 0.57197 0.38482 0.0
O158 O 0.95354 0.56847 0.3785 0.0
C159 C 0.92462 0.4865 0.37876 0.0
O160 O 0.91269 0.48562 0.39198 0.0
C161 C 0.96243 0.53169 0.43269 0.0
O162 O 0.96843 0.55078 0.42917 0.0
O163 O 0.95114 0.51824 0.42132 0.0
O164 O 0.97276 0.55713 0.39065 0.0
O165 O 0.91947 0.53197 0.39272 0.0
C166 C 0.91064 0.52811 0.37746 0.0
O167 O 0.91708 0.5209 0.36458 0.0
O168 O 0.94107 0.50314 0.37613 0.0
Mg169 Mg 0.4879 0.42105 0.39647 0.0
C170 C 0.48273 0.38587 0.3761 0.0
O171 O 0.48463 0.39927 0.36394 0.0
C172 C 0.49993 0.4535 0.42285 0.0
O173 O 0.49757 0.46085 0.40758 0.0
C174 C 0.52703 0.44125 0.37699 0.0
O175 O 0.52877 0.42906 0.38849 0.0
O176 O 0.51038 0.44146 0.37667 0.0
O177 O 0.48422 0.39082 0.39266 0.0
O178 O 0.45689 0.41561 0.39447 0.0
C179 C 0.44702 0.40799 0.40901 0.0
O180 O 0.45643 0.40504 0.4225 0.0
O181 O 0.4978 0.43581 0.42276 0.0
Mg182 Mg 0.59424 0.07434 0.40172 0.0
C183 C 0.63388 0.09844 0.38445 0.0
O184 O 0.62404 0.08193 0.3747 0.0
C185 C 0.56027 0.06301 0.42818 0.0
O186 O 0.55088 0.06079 0.41278 0.0
C187 C 0.58013 0.0917 0.37161 0.0
O188 O 0.59884 0.10666 0.37352 0.0
O189 O 0.57422 0.07567 0.38098 0.0
O190 O 0.6249 0.10043 0.39816 0.0
O191 O 0.59939 0.04856 0.40114 0.0
C192 C 0.61012 0.04939 0.41465 0.0
O193 O 0.61583 0.06454 0.42598 0.0
O194 O 0.57942 0.07029 0.42802 0.0
Mg195 Mg 0.86059 0.60291 0.777 0.0
C196 C 0.87003 0.57472 0.79506 0.0
O197 O 0.86983 0.58678 0.80762 0.0
C198 C 0.8401 0.61539 0.74913 0.0
O199 O 0.82988 0.61459 0.76368 0.0
C200 C 0.83402 0.60829 0.80651 0.0
O201 O 0.84886 0.62716 0.8075 0.0
O202 O 0.83558 0.5962 0.79566 0.0
O203 O 0.86577 0.57715 0.77897 0.0
O204 O 0.89055 0.62832 0.78331 0.0
C205 C 0.89767 0.64549 0.77562 0.0
O206 O 0.88551 0.6493 0.76593 0.0
O207 O 0.85342 0.60995 0.75024 0.0
Mg208 Mg 0.41067 0.25695 0.77708 0.0
C209 C 0.43451 0.29647 0.7944 0.0
O210 O 0.41853 0.28619 0.80475 0.0
C211 C 0.39404 0.22362 0.7505 0.0
O212 O 0.38612 0.21447 0.76587 0.0
C213 C 0.42981 0.23561 0.79345 0.0
O214 O 0.44072 0.24455 0.77904 0.0
O215 O 0.41468 0.23789 0.79691 0.0
O216 O 0.43618 0.28784 0.78032 0.0
O217 O 0.38384 0.26022 0.77965 0.0
C218 C 0.37989 0.26644 0.76508 0.0
O219 O 0.39141 0.26926 0.75093 0.0
O220 O 0.40677 0.24256 0.75071 0.0
Mg221 Mg 0.75656 0.15235 0.7794 0.0
C222 C 0.75907 0.11398 0.77446 0.0
O223 O 0.77374 0.1259 0.76344 0.0
C224 C 0.77082 0.18212 0.81089 0.0
O225 O 0.75115 0.17321 0.81361 0.0
C226 C 0.78935 0.1695 0.75147 0.0
O227 O 0.79972 0.17509 0.76658 0.0
O228 O 0.77003 0.16035 0.75234 0.0
O229 O 0.75076 0.12156 0.78423 0.0
O230 O 0.72667 0.1498 0.78253 0.0
C231 C 0.71061 0.13285 0.77986 0.0
O232 O 0.71232 0.11779 0.77319 0.0
O233 O 0.77746 0.17575 0.79819 0.0
Mg234 Mg 0.4112 0.15461 0.27665 0.0
C235 C 0.43692 0.14168 0.29493 0.0
O236 O 0.42051 0.13504 0.30489 0.0
C237 C 0.3979 0.15407 0.23721 0.0
O238 O 0.39412 0.13529 0.23795 0.0
C239 C 0.42484 0.19494 0.29144 0.0
O240 O 0.43399 0.19786 0.27577 0.0
O241 O 0.41295 0.17677 0.29651 0.0
O242 O 0.43842 0.15196 0.28084 0.0
O243 O 0.38579 0.1234 0.27877 0.0
C244 C 0.38935 0.11074 0.27067 0.0
O245 O 0.40738 0.11737 0.26349 0.0
O246 O 0.40655 0.16572 0.25059 0.0
Mg247 Mg 0.86128 0.25876 0.28183 0.0
C248 C 0.90454 0.27876 0.29459 0.0
O249 O 0.89881 0.29077 0.30198 0.0
C250 C 0.83321 0.24038 0.31572 0.0
O251 O 0.8465 0.25693 0.32408 0.0
C252 C 0.85242 0.22728 0.25493 0.0
O253 O 0.85376 0.21949 0.27033 0.0
O254 O 0.85446 0.24494 0.25505 0.0
O255 O 0.89118 0.26252 0.28711 0.0
O256 O 0.86602 0.28964 0.28333 0.0
C257 C 0.85423 0.29432 0.29152 0.0
O258 O 0.83674 0.27977 0.29757 0.0
O259 O 0.83638 0.23767 0.29936 0.0
Mg260 Mg 0.75557 0.60596 0.27987 0.0
C261 C 0.70901 0.57905 0.27921 0.0
O262 O 0.71017 0.5948 0.27084 0.0
C263 C 0.76548 0.6201 0.24116 0.0
O264 O 0.75034 0.62342 0.24403 0.0
C265 C 0.77744 0.58701 0.29571 0.0
O266 O 0.76763 0.57556 0.28185 0.0
O267 O 0.77557 0.60242 0.29894 0.0
O268 O 0.72536 0.57913 0.28315 0.0
O269 O 0.752 0.63238 0.28353 0.0
C270 C 0.73941 0.63291 0.29447 0.0
O271 O 0.73007 0.61808 0.30615 0.0
O272 O 0.76995 0.61119 0.25334 0.0
Mg273 Mg 0.48743 0.06732 0.89428 0.0
C274 C 0.48741 0.10238 0.87652 0.0
O275 O 0.49277 0.09447 0.86339 0.0
C276 C 0.48415 0.05591 0.93425 0.0
O277 O 0.46737 0.05677 0.93303 0.0
C278 C 0.52795 0.08645 0.87668 0.0
O279 O 0.53011 0.09942 0.88936 0.0
O280 O 0.51077 0.07037 0.87505 0.0
O281 O 0.48464 0.09457 0.89219 0.0
O282 O 0.4566 0.04259 0.88945 0.0
C283 C 0.4496 0.02541 0.8971 0.0
O284 O 0.4621 0.02135 0.90596 0.0
O285 O 0.49592 0.06099 0.92065 0.0
Mg286 Mg 0.94211 0.41746 0.89491 0.0
C287 C 0.96628 0.39839 0.88167 0.0
O288 O 0.94831 0.38513 0.87542 0.0
C289 C 0.93579 0.43857 0.86101 0.0
O290 O 0.93758 0.42511 0.85133 0.0
C291 C 0.9649 0.44914 0.9215 0.0
O292 O 0.97327 0.45706 0.90587 0.0
O293 O 0.94966 0.43124 0.9217 0.0
O294 O 0.96862 0.41462 0.88876 0.0
O295 O 0.91599 0.3865 0.89362 0.0
C296 C 0.90135 0.3818 0.88275 0.0
O297 O 0.90074 0.39628 0.87365 0.0
O298 O 0.93747 0.43848 0.87809 0.0
Mg299 Mg 0.59653 0.52399 0.89583 0.0
C300 C 0.64276 0.54518 0.89609 0.0
O301 O 0.64025 0.55947 0.90342 0.0
C302 C 0.56237 0.50751 0.92155 0.0
O303 O 0.55426 0.5082 0.90612 0.0
C304 C 0.57827 0.48579 0.87492 0.0
O305 O 0.5908 0.48406 0.886 0.0
O306 O 0.57733 0.50202 0.87538 0.0
O307 O 0.62713 0.5281 0.89271 0.0
O308 O 0.60035 0.55441 0.89343 0.0
C309 C 0.60136 0.56328 0.90827 0.0
O310 O 0.59878 0.55328 0.92338 0.0
O311 O 0.58101 0.51234 0.92171 0.0
Mg312 Mg 0.60898 0.86247 0.73354 0.0
C313 C 0.63529 0.90636 0.72246 0.0
O314 O 0.618 0.90289 0.71542 0.0
C315 C 0.59593 0.83344 0.70048 0.0
O316 O 0.58909 0.84496 0.694 0.0
C317 C 0.62575 0.86712 0.77145 0.0
O318 O 0.63266 0.88628 0.76748 0.0
O319 O 0.61379 0.85361 0.76041 0.0
O320 O 0.63646 0.8916 0.72917 0.0
O321 O 0.58382 0.86856 0.73043 0.0
C322 C 0.56563 0.85562 0.72629 0.0
O323 O 0.56029 0.83636 0.72545 0.0
O324 O 0.60516 0.83798 0.71555 0.0
Mg325 Mg 0.14808 0.74869 0.7283 0.0
C326 C 0.14382 0.71334 0.70895 0.0
O327 O 0.14432 0.72582 0.69645 0.0
C328 C 0.16489 0.78191 0.75562 0.0
O329 O 0.17022 0.79199 0.74034 0.0
C330 C 0.18865 0.76935 0.71193 0.0
O331 O 0.1897 0.75851 0.72525 0.0
O332 O 0.17182 0.76876 0.70924 0.0
O333 O 0.14569 0.71894 0.72535 0.0
O334 O 0.11695 0.74186 0.72372 0.0
C335 C 0.10965 0.75239 0.73008 0.0
O336 O 0.12194 0.77007 0.73737 0.0
O337 O 0.15589 0.76262 0.75509 0.0
Mg338 Mg 0.26457 0.40538 0.73147 0.0
C339 C 0.30919 0.42844 0.72273 0.0
O340 O 0.30466 0.40965 0.71977 0.0
C341 C 0.22961 0.39173 0.7567 0.0
O342 O 0.22071 0.38676 0.74088 0.0
C343 C 0.25168 0.42232 0.69982 0.0
O344 O 0.27111 0.43587 0.69988 0.0
O345 O 0.2451 0.4074 0.71071 0.0
O346 O 0.29534 0.43174 0.72862 0.0
O347 O 0.26776 0.37835 0.73048 0.0
C348 C 0.27149 0.37319 0.74573 0.0
O349 O 0.27217 0.38365 0.76004 0.0
O350 O 0.24893 0.4017 0.75727 0.0
Mg351 Mg 0.52551 0.93317 0.10961 0.0
C352 C 0.54921 0.91198 0.11763 0.0
O353 O 0.56298 0.931 0.12039 0.0
C354 C 0.50342 0.94566 0.08408 0.0
O355 O 0.49943 0.95092 0.09975 0.0
C356 C 0.48813 0.91053 0.13148 0.0
O357 O 0.48787 0.89673 0.12069 0.0
O358 O 0.50311 0.92854 0.13047 0.0
O359 O 0.5317 0.90792 0.1121 0.0
O360 O 0.55505 0.96109 0.11131 0.0
C361 C 0.56383 0.96803 0.09621 0.0
O362 O 0.55412 0.95904 0.08137 0.0
O363 O 0.51312 0.93603 0.08381 0.0
Mg364 Mg 0.08276 0.59577 0.10891 0.0
C365 C 0.10619 0.63603 0.12534 0.0
O366 O 0.09012 0.6261 0.13567 0.0
C367 C 0.0623 0.56351 0.08246 0.0
O368 O 0.05346 0.55577 0.09799 0.0
C369 C 0.08699 0.57351 0.14339 0.0
O370 O 0.08034 0.5834 0.15313 0.0
O371 O 0.08844 0.57592 0.12637 0.0
O372 O 0.10807 0.62689 0.11173 0.0
O373 O 0.05561 0.59822 0.11333 0.0
C374 C 0.05109 0.60473 0.09925 0.0
O375 O 0.06237 0.60834 0.08478 0.0
O376 O 0.07723 0.5816 0.08228 0.0
Mg377 Mg 0.41808 0.48034 0.11087 0.0
C378 C 0.4 0.43612 0.12171 0.0
O379 O 0.38627 0.43955 0.12902 0.0
C380 C 0.44054 0.5217 0.12668 0.0
O381 O 0.4307 0.52393 0.11314 0.0
C382 C 0.45022 0.49286 0.08379 0.0
O383 O 0.45882 0.49303 0.0992 0.0
O384 O 0.43177 0.4887 0.08401 0.0
O385 O 0.41578 0.45087 0.11479 0.0
O386 O 0.38712 0.47527 0.11415 0.0
C387 C 0.38275 0.47955 0.12951 0.0
O388 O 0.39722 0.48806 0.1416 0.0
O389 O 0.4384 0.50423 0.1295 0.0
Mg390 Mg 0.08257 0.48698 0.60832 0.0
C391 C 0.10903 0.47503 0.62691 0.0
O392 O 0.09333 0.46945 0.6376 0.0
C393 C 0.06847 0.48579 0.56966 0.0
O394 O 0.06329 0.46667 0.57158 0.0
C395 C 0.1017 0.52255 0.63299 0.0
O396 O 0.11736 0.52228 0.62581 0.0
O397 O 0.08394 0.50863 0.62862 0.0
O398 O 0.10971 0.48411 0.61225 0.0
O399 O 0.05689 0.45587 0.61037 0.0
C400 C 0.06057 0.44231 0.60448 0.0
O401 O 0.07891 0.44791 0.59858 0.0
O402 O 0.07841 0.49818 0.58225 0.0
Mg403 Mg 0.52747 0.59745 0.61133 0.0
C404 C 0.56736 0.61389 0.59654 0.0
O405 O 0.55655 0.61828 0.58555 0.0
C406 C 0.49293 0.57998 0.63742 0.0
O407 O 0.49211 0.59553 0.63074 0.0
C408 C 0.51427 0.56454 0.58533 0.0
O409 O 0.51751 0.55757 0.60043 0.0
O410 O 0.51616 0.58214 0.58545 0.0
O411 O 0.55883 0.60386 0.61078 0.0
O412 O 0.53064 0.62742 0.61545 0.0
C413 C 0.541 0.63595 0.62952 0.0
O414 O 0.54768 0.626 0.63916 0.0
O415 O 0.5072 0.57698 0.63227 0.0
Mg416 Mg 0.41724 0.93507 0.61449 0.0
C417 C 0.38225 0.89618 0.62906 0.0
O418 O 0.39649 0.8993 0.64074 0.0
C419 C 0.4272 0.94946 0.57538 0.0
O420 O 0.41029 0.95003 0.57703 0.0
C421 C 0.44565 0.92197 0.62813 0.0
O422 O 0.44278 0.91611 0.61121 0.0
O423 O 0.43692 0.9314 0.63401 0.0
O424 O 0.38686 0.90805 0.61557 0.0
O425 O 0.41081 0.95951 0.61943 0.0
C426 C 0.42193 0.97756 0.61375 0.0
O427 O 0.43994 0.98295 0.60709 0.0
O428 O 0.43283 0.94248 0.58838 0.0
Mg429 Mg 0.15574 0.40757 0.23261 0.0
C430 C 0.1573 0.44271 0.2137 0.0
O431 O 0.15976 0.43245 0.20068 0.0
C432 C 0.15492 0.39551 0.27213 0.0
O433 O 0.13785 0.39588 0.27197 0.0
C434 C 0.18772 0.40059 0.21427 0.0
O435 O 0.18625 0.39133 0.22962 0.0
O436 O 0.17577 0.40744 0.21134 0.0
O437 O 0.15645 0.43669 0.22988 0.0
O438 O 0.12343 0.38454 0.23113 0.0
C439 C 0.1118 0.39047 0.23771 0.0
O440 O 0.11997 0.40929 0.24329 0.0
O441 O 0.16612 0.40125 0.25813 0.0
Mg442 Mg 0.60501 0.74849 0.22969 0.0
C443 C 0.62868 0.73302 0.24592 0.0
O444 O 0.61318 0.72863 0.25654 0.0
C445 C 0.58776 0.76474 0.20266 0.0
O446 O 0.57152 0.74886 0.20915 0.0
C447 C 0.62013 0.78272 0.25526 0.0
O448 O 0.62831 0.79147 0.23982 0.0
O449 O 0.60759 0.76373 0.25537 0.0
O450 O 0.63038 0.74275 0.23143 0.0
O451 O 0.5787 0.71822 0.22546 0.0
C452 C 0.58172 0.70858 0.21294 0.0
O453 O 0.59931 0.71757 0.20458 0.0
O454 O 0.60511 0.76839 0.20824 0.0
Mg455 Mg 0.26438 0.85669 0.23228 0.0
C456 C 0.299 0.84697 0.22332 0.0
O457 O 0.28432 0.82845 0.21999 0.0
C458 C 0.2517 0.8565 0.27168 0.0
O459 O 0.26703 0.87513 0.27119 0.0
C460 C 0.24873 0.83181 0.19679 0.0
O461 O 0.26767 0.84265 0.19144 0.0
O462 O 0.24363 0.83549 0.21207 0.0
O463 O 0.29462 0.85996 0.22932 0.0
O464 O 0.26998 0.88782 0.23062 0.0
C465 C 0.28642 0.90068 0.23827 0.0
O466 O 0.29834 0.89436 0.24483 0.0
O467 O 0.24838 0.84508 0.25806 0.0
C468 C 0.29638 0.17208 0.11777 0.0
C469 C 0.29603 0.19037 0.11731 0.0
C470 C 0.30721 0.16855 0.13118 0.0
C471 C 0.34952 0.1958 0.16355 0.0
H472 H 0.32956 0.14215 0.18367 0.0
C473 C 0.38901 0.17872 0.22294 0.0
C474 C 0.38914 0.16032 0.22229 0.0
C475 C 0.3783 0.18315 0.21002 0.0
C476 C 0.3355 0.15719 0.17804 0.0
H477 H 0.30633 0.219 0.13103 0.0
H478 H 0.32488 0.21268 0.15456 0.0
H479 H 0.30878 0.14794 0.1622 0.0
H480 H 0.37887 0.13263 0.20697 0.0
H481 H 0.36056 0.14047 0.18447 0.0
H482 H 0.37625 0.20501 0.17947 0.0
C483 C 0.31709 0.20121 0.14435 0.0
C484 C 0.32354 0.16052 0.16572 0.0
C485 C 0.30626 0.20475 0.13093 0.0
C486 C 0.37902 0.14689 0.208 0.0
C487 C 0.36834 0.1513 0.19515 0.0
C488 C 0.36148 0.19247 0.17593 0.0
C489 C 0.31796 0.18319 0.14451 0.0
C490 C 0.33042 0.17984 0.1582 0.0
C491 C 0.36745 0.16927 0.19619 0.0
C492 C 0.35469 0.17308 0.18323 0.0
H493 H 0.28878 0.16069 0.10747 0.0
H494 H 0.30767 0.15458 0.13072 0.0
H495 H 0.35548 0.21082 0.15786 0.0
H496 H 0.39657 0.18939 0.23378 0.0
H497 H 0.3779 0.19711 0.21129 0.0
C498 C 0.839 0.14632 0.10798 0.0
C499 C 0.83574 0.12645 0.10877 0.0
C500 C 0.84121 0.15728 0.12372 0.0
C501 C 0.85285 0.15984 0.17243 0.0
H502 H 0.82595 0.19168 0.17456 0.0
C503 C 0.8469 0.19617 0.23866 0.0
C504 C 0.84964 0.21585 0.23794 0.0
C505 C 0.8452 0.18544 0.22287 0.0
C506 C 0.83378 0.18309 0.17413 0.0
H507 H 0.83266 0.1027 0.12684 0.0
H508 H 0.83646 0.12187 0.15445 0.0
H509 H 0.82328 0.17253 0.1474 0.0
H510 H 0.85251 0.23956 0.21994 0.0
H511 H 0.84967 0.22084 0.19226 0.0
H512 H 0.86334 0.1704 0.19917 0.0
C513 C 0.83744 0.12901 0.14157 0.0
C514 C 0.83223 0.17206 0.15854 0.0
C515 C 0.83522 0.11798 0.12575 0.0
C516 C 0.85035 0.22443 0.22098 0.0
C517 C 0.84865 0.21365 0.20512 0.0
C518 C 0.8544 0.17087 0.18802 0.0
C519 C 0.84021 0.14872 0.14074 0.0
C520 C 0.84176 0.1603 0.15747 0.0
C521 C 0.84623 0.19407 0.20588 0.0
C522 C 0.84485 0.18262 0.1891 0.0
H523 H 0.83964 0.15342 0.09516 0.0
H524 H 0.84374 0.17255 0.12252 0.0
H525 H 0.86063 0.1512 0.172 0.0
H526 H 0.84616 0.18899 0.25147 0.0
H527 H 0.84295 0.17028 0.22403 0.0
C528 C 0.79851 0.63185 0.22475 0.0
C529 C 0.77895 0.62947 0.22529 0.0
C530 C 0.8121 0.64306 0.21091 0.0
C531 C 0.82109 0.68237 0.17641 0.0
H532 H 0.8599 0.66847 0.15704 0.0
C533 C 0.86643 0.71726 0.11085 0.0
C534 C 0.8869 0.72228 0.11024 0.0
C535 C 0.85432 0.70725 0.12581 0.0
C536 C 0.84933 0.6727 0.16248 0.0
H537 H 0.75804 0.63617 0.21117 0.0
H538 H 0.78135 0.65501 0.18681 0.0
H539 H 0.83619 0.64727 0.18046 0.0
H540 H 0.91081 0.7211 0.12512 0.0
H541 H 0.88955 0.70347 0.15128 0.0
H542 H 0.83394 0.70752 0.15811 0.0
C543 C 0.78653 0.64884 0.19736 0.0
C544 C 0.83569 0.66053 0.17593 0.0
C545 C 0.77303 0.63782 0.21126 0.0
C546 C 0.89514 0.71758 0.12521 0.0
C547 C 0.88292 0.7073 0.14012 0.0
C548 C 0.83458 0.6944 0.16288 0.0
C549 C 0.80643 0.65203 0.19717 0.0
C550 C 0.82125 0.66509 0.183 0.0
C551 C 0.86228 0.70178 0.14047 0.0
C552 C 0.84879 0.68966 0.15566 0.0
H553 H 0.80363 0.62574 0.23539 0.0
H554 H 0.8273 0.64526 0.21136 0.0
H555 H 0.8106 0.68674 0.18179 0.0
H556 H 0.85959 0.72062 0.09954 0.0
H557 H 0.83847 0.70311 0.12557 0.0
C558 C 0.18043 0.29064 0.38492 0.0
C559 C 0.16926 0.28815 0.40078 0.0
C560 C 0.17958 0.30216 0.3705 0.0
C561 C 0.16677 0.34254 0.3614 0.0
H562 H 0.16818 0.32927 0.31119 0.0
C563 C 0.14787 0.3809 0.30335 0.0
C564 C 0.15945 0.38579 0.28745 0.0
C565 C 0.15052 0.36986 0.31711 0.0
C566 C 0.16803 0.33332 0.32516 0.0
H567 H 0.14758 0.29481 0.41348 0.0
H568 H 0.14564 0.31423 0.38833 0.0
H569 H 0.16906 0.30728 0.33479 0.0
H570 H 0.18325 0.3832 0.27373 0.0
H571 H 0.18787 0.36388 0.2978 0.0
H572 H 0.16544 0.36837 0.35181 0.0
C573 C 0.15557 0.30791 0.38715 0.0
C574 C 0.16852 0.32069 0.3387 0.0
C575 C 0.15653 0.29658 0.40154 0.0
C576 C 0.17412 0.37977 0.28583 0.0
C577 C 0.17664 0.36853 0.29955 0.0
C578 C 0.16618 0.35506 0.3479 0.0
C579 C 0.16748 0.31135 0.37161 0.0
C580 C 0.16765 0.32501 0.35702 0.0
C581 C 0.16472 0.36327 0.31529 0.0
C582 C 0.1666 0.35052 0.3296 0.0
H583 H 0.1905 0.28446 0.38396 0.0
H584 H 0.18903 0.30452 0.3588 0.0
H585 H 0.16663 0.3467 0.37533 0.0
H586 H 0.13641 0.38524 0.30505 0.0
H587 H 0.14095 0.36593 0.32896 0.0
C588 C 0.62489 0.78474 0.28896 0.0
C589 C 0.6278 0.79448 0.27221 0.0
C590 C 0.63457 0.79593 0.30446 0.0
C591 C 0.67884 0.84528 0.31802 0.0
H592 H 0.65389 0.83073 0.3653 0.0
C593 C 0.71576 0.89386 0.38228 0.0
C594 C 0.71416 0.88317 0.39824 0.0
C595 C 0.70536 0.88348 0.36666 0.0
C596 C 0.66116 0.83489 0.3522 0.0
H597 H 0.6423 0.82373 0.25885 0.0
H598 H 0.65863 0.8432 0.28582 0.0
H599 H 0.63465 0.81185 0.33893 0.0
H600 H 0.70085 0.8531 0.41004 0.0
H601 H 0.68299 0.83519 0.38296 0.0
H602 H 0.70533 0.86838 0.33135 0.0
C603 C 0.6494 0.82688 0.28696 0.0
C604 C 0.65011 0.82403 0.33707 0.0
C605 C 0.63986 0.81571 0.27149 0.0
C606 C 0.70237 0.86189 0.39806 0.0
C607 C 0.69196 0.85158 0.38254 0.0
C608 C 0.68985 0.8562 0.33316 0.0
C609 C 0.64728 0.81714 0.3036 0.0
C610 C 0.65882 0.82901 0.31976 0.0
C611 C 0.69307 0.86222 0.3667 0.0
C612 C 0.6812 0.85106 0.35046 0.0
H613 H 0.61582 0.76839 0.28996 0.0
H614 H 0.63267 0.78785 0.31698 0.0
H615 H 0.68623 0.84936 0.30498 0.0
H616 H 0.72464 0.91025 0.38197 0.0
H617 H 0.70649 0.89216 0.35471 0.0
C618 C 0.10886 0.80501 0.37743 0.0
C619 C 0.11297 0.81898 0.39143 0.0
C620 C 0.12342 0.80877 0.36414 0.0
C621 C 0.17115 0.84964 0.34381 0.0
H622 H 0.17885 0.80512 0.329 0.0
C623 C 0.24018 0.86342 0.30115 0.0
C624 C 0.2367 0.85021 0.28664 0.0
C625 C 0.22512 0.85894 0.31408 0.0
C626 C 0.17678 0.81768 0.33285 0.0
H627 H 0.13552 0.84816 0.40209 0.0
H628 H 0.16088 0.85466 0.37903 0.0
H629 H 0.15213 0.79906 0.35056 0.0
H630 H 0.21482 0.82145 0.27481 0.0
H631 H 0.1885 0.81362 0.2974 0.0
H632 H 0.19582 0.86828 0.32619 0.0
C633 C 0.14633 0.84084 0.3782 0.0
C634 C 0.16141 0.8142 0.34519 0.0
C635 C 0.13178 0.83709 0.39148 0.0
C636 C 0.21805 0.83195 0.28582 0.0
C637 C 0.20296 0.82745 0.2988 0.0
C638 C 0.18652 0.85312 0.33151 0.0
C639 C 0.14247 0.82661 0.36448 0.0
C640 C 0.15844 0.83016 0.3509 0.0
C641 C 0.20615 0.84111 0.31288 0.0
C642 C 0.18962 0.83721 0.32593 0.0
H643 H 0.09454 0.79091 0.37694 0.0
H644 H 0.11977 0.79761 0.35363 0.0
H645 H 0.16912 0.86223 0.34763 0.0
H646 H 0.25439 0.87756 0.3023 0.0
H647 H 0.22829 0.8696 0.32494 0.0
C648 C 0.64787 0.8768 0.79895 0.0
C649 C 0.63445 0.86169 0.78702 0.0
C650 C 0.65812 0.87238 0.81227 0.0
C651 C 0.65852 0.82982 0.83675 0.0
H652 H 0.71512 0.8695 0.84491 0.0
C653 C 0.7107 0.81036 0.87804 0.0
C654 C 0.72366 0.82468 0.89076 0.0
C655 C 0.70035 0.81539 0.86534 0.0
C656 C 0.69929 0.85833 0.84294 0.0
H657 H 0.62087 0.82987 0.78018 0.0
H658 H 0.63884 0.82219 0.80327 0.0
H659 H 0.69531 0.87691 0.82357 0.0
H660 H 0.73641 0.85582 0.89957 0.0
H661 H 0.71837 0.86463 0.8773 0.0
H662 H 0.66259 0.81116 0.85599 0.0
C663 C 0.64131 0.83746 0.80248 0.0
C664 C 0.68787 0.8626 0.83072 0.0
C665 C 0.631 0.84187 0.78918 0.0
C666 C 0.72661 0.84443 0.88996 0.0
C667 C 0.71626 0.84948 0.87718 0.0
C668 C 0.66996 0.82553 0.84891 0.0
C669 C 0.6553 0.85274 0.81401 0.0
C670 C 0.66732 0.84837 0.82741 0.0
C671 C 0.70268 0.83489 0.86494 0.0
C672 C 0.69052 0.83969 0.85211 0.0
H673 H 0.65085 0.89222 0.79776 0.0
H674 H 0.66841 0.88446 0.82112 0.0
H675 H 0.64269 0.81862 0.83483 0.0
H676 H 0.70811 0.79503 0.87815 0.0
H677 H 0.69036 0.80388 0.8559 0.0
C678 C 0.18359 0.89223 0.88427 0.0
C679 C 0.17438 0.88192 0.90036 0.0
C680 C 0.18208 0.88143 0.86849 0.0
C681 C 0.17257 0.83097 0.85353 0.0
H682 H 0.1659 0.84882 0.8064 0.0
C683 C 0.15826 0.78262 0.78886 0.0
C684 C 0.16741 0.79297 0.77279 0.0
C685 C 0.15927 0.79337 0.80454 0.0
C686 C 0.16802 0.84373 0.81944 0.0
H687 H 0.15567 0.85214 0.91219 0.0
H688 H 0.15285 0.83346 0.88476 0.0
H689 H 0.1668 0.86788 0.83311 0.0
H690 H 0.18538 0.8228 0.76082 0.0
H691 H 0.18741 0.8414 0.78808 0.0
H692 H 0.17388 0.80688 0.83987 0.0
C693 C 0.16158 0.84985 0.88438 0.0
C694 C 0.16851 0.85468 0.83477 0.0
C695 C 0.16308 0.86061 0.9001 0.0
C696 C 0.17803 0.81429 0.77291 0.0
C697 C 0.17907 0.825 0.78854 0.0
C698 C 0.17211 0.82004 0.8382 0.0
C699 C 0.17136 0.86007 0.86844 0.0
C700 C 0.17077 0.84844 0.85203 0.0
C701 C 0.16946 0.81472 0.80452 0.0
C702 C 0.16985 0.82628 0.82093 0.0
H703 H 0.1925 0.90862 0.884 0.0
H704 H 0.18991 0.88981 0.85649 0.0
H705 H 0.17469 0.82589 0.86657 0.0
H706 H 0.14987 0.76621 0.78923 0.0
H707 H 0.15155 0.78492 0.81655 0.0
C708 C 0.10295 0.29227 0.87162 0.0
C709 C 0.10974 0.28743 0.88748 0.0
C710 C 0.1165 0.30299 0.85766 0.0
C711 C 0.1706 0.33891 0.8491 0.0
H712 H 0.15532 0.32547 0.79905 0.0
C713 C 0.22572 0.38041 0.78912 0.0
C714 C 0.21719 0.38292 0.7732 0.0
C715 C 0.21325 0.36921 0.80362 0.0
C716 C 0.15976 0.32965 0.81294 0.0
H717 H 0.13614 0.28967 0.90084 0.0
H718 H 0.15981 0.30839 0.87642 0.0
H719 H 0.13244 0.30413 0.82272 0.0
H720 H 0.18902 0.37669 0.76045 0.0
H721 H 0.16748 0.35785 0.78574 0.0
H722 H 0.19783 0.36464 0.83931 0.0
C723 C 0.14398 0.30398 0.87488 0.0
C724 C 0.14664 0.31732 0.82653 0.0
C725 C 0.13036 0.29308 0.8888 0.0
C726 C 0.19608 0.37489 0.77245 0.0
C727 C 0.18368 0.36388 0.78692 0.0
C728 C 0.18372 0.35135 0.83548 0.0
C729 C 0.13725 0.3093 0.85923 0.0
C730 C 0.15179 0.32186 0.84479 0.0
C731 C 0.192 0.36038 0.80253 0.0
C732 C 0.17839 0.347 0.8172 0.0
H733 H 0.0872 0.28822 0.87014 0.0
H734 H 0.11082 0.30696 0.84587 0.0
H735 H 0.17495 0.34298 0.86304 0.0
H736 H 0.24192 0.38628 0.79008 0.0
H737 H 0.22022 0.36679 0.81536 0.0
C738 C 0.84057 0.71636 0.61845 0.0
C739 C 0.8228 0.71768 0.61743 0.0
C740 C 0.84323 0.70546 0.63241 0.0
C741 C 0.81303 0.66465 0.66554 0.0
H742 H 0.86521 0.68132 0.68761 0.0
C743 C 0.82126 0.62832 0.73089 0.0
C744 C 0.83765 0.62477 0.73245 0.0
C745 C 0.81972 0.63887 0.71611 0.0
C746 C 0.85058 0.67632 0.68142 0.0
H747 H 0.79437 0.70943 0.63087 0.0
H748 H 0.79921 0.69099 0.65534 0.0
H749 H 0.86251 0.70228 0.66403 0.0
H750 H 0.86515 0.62931 0.71946 0.0
H751 H 0.86245 0.64779 0.69354 0.0
H752 H 0.80104 0.63887 0.68307 0.0
C753 C 0.81087 0.69784 0.6451 0.0
C754 C 0.84901 0.68836 0.66789 0.0
C755 C 0.80818 0.70861 0.63113 0.0
C756 C 0.85228 0.63169 0.71863 0.0
C757 C 0.85083 0.64244 0.70387 0.0
C758 C 0.81457 0.6527 0.67908 0.0
C759 C 0.8282 0.69569 0.64573 0.0
C760 C 0.83016 0.68279 0.65989 0.0
C761 C 0.83461 0.6463 0.70251 0.0
C762 C 0.83332 0.65846 0.68732 0.0
H763 H 0.85211 0.72309 0.60808 0.0
H764 H 0.85672 0.70408 0.63236 0.0
H765 H 0.79835 0.65955 0.65941 0.0
H766 H 0.80973 0.62325 0.74129 0.0
H767 H 0.80714 0.64173 0.71563 0.0
C768 C 0.38996 0.22248 0.71673 0.0
C769 C 0.38626 0.21232 0.73333 0.0
C770 C 0.38062 0.21175 0.70094 0.0
C771 C 0.35399 0.16004 0.68109 0.0
H772 H 0.33 0.18284 0.64943 0.0
C773 C 0.30073 0.11394 0.62217 0.0
C774 C 0.30323 0.12437 0.60586 0.0
C775 C 0.31058 0.12452 0.63789 0.0
C776 C 0.33678 0.17631 0.65799 0.0
H777 H 0.37041 0.1828 0.74622 0.0
H778 H 0.35427 0.16421 0.71882 0.0
H779 H 0.349 0.2018 0.67583 0.0
H780 H 0.31785 0.15417 0.59343 0.0
H781 H 0.33506 0.17241 0.62056 0.0
H782 H 0.34185 0.13459 0.66322 0.0
C783 C 0.3644 0.18043 0.71791 0.0
C784 C 0.34774 0.18724 0.67313 0.0
C785 C 0.3736 0.19114 0.73367 0.0
C786 C 0.31549 0.1456 0.60574 0.0
C787 C 0.32532 0.15613 0.62138 0.0
C788 C 0.34309 0.14913 0.6659 0.0
C789 C 0.3675 0.19061 0.70139 0.0
C790 C 0.35647 0.17925 0.6849 0.0
C791 C 0.32315 0.14576 0.63766 0.0
C792 C 0.33433 0.15712 0.65413 0.0
H793 H 0.39959 0.23879 0.716 0.0
H794 H 0.38354 0.22004 0.68839 0.0
H795 H 0.36069 0.15351 0.68975 0.0
H796 H 0.29141 0.0976 0.62275 0.0
H797 H 0.30832 0.11604 0.65023 0.0
C798 C 0.89669 0.17896 0.62312 0.0
C799 C 0.88634 0.17138 0.60675 0.0
C800 C 0.88605 0.17817 0.63885 0.0
C801 C 0.83719 0.17375 0.65347 0.0
H802 H 0.85278 0.1642 0.70058 0.0
C803 C 0.78937 0.16246 0.71822 0.0
C804 C 0.80009 0.17131 0.7342 0.0
C805 C 0.79972 0.1626 0.7025 0.0
C806 C 0.84835 0.16711 0.68754 0.0
H807 H 0.85658 0.15619 0.59431 0.0
H808 H 0.8381 0.1544 0.62165 0.0
H809 H 0.87113 0.16341 0.67391 0.0
H810 H 0.83019 0.18784 0.74593 0.0
H811 H 0.8481 0.18824 0.71862 0.0
H812 H 0.81436 0.17737 0.66712 0.0
C813 C 0.85446 0.16145 0.62232 0.0
C814 C 0.8589 0.16665 0.67223 0.0
C815 C 0.86508 0.16232 0.60664 0.0
C816 C 0.82139 0.18077 0.73392 0.0
C817 C 0.83169 0.18087 0.71827 0.0
C818 C 0.8266 0.17414 0.66878 0.0
C819 C 0.86481 0.16972 0.63858 0.0
C820 C 0.85348 0.16999 0.65496 0.0
C821 C 0.82101 0.17154 0.70242 0.0
C822 C 0.83208 0.17089 0.68603 0.0
H823 H 0.91308 0.18616 0.62366 0.0
H824 H 0.89458 0.18483 0.65106 0.0
H825 H 0.83279 0.17677 0.64047 0.0
H826 H 0.77296 0.15496 0.71797 0.0
H827 H 0.79098 0.15517 0.69056 0.0
C828 C 0.96854 0.50689 0.45018 0.0
C829 C 0.97125 0.52646 0.44828 0.0
C830 C 0.97886 0.50271 0.46365 0.0
C831 C 0.02432 0.52856 0.49309 0.0
H832 H 0.99969 0.47674 0.5177 0.0
C833 C 0.06222 0.51138 0.55359 0.0
C834 C 0.05996 0.4919 0.55443 0.0
C835 C 0.05199 0.5161 0.54041 0.0
C836 C 1.00689 0.49122 0.51081 0.0
H837 H 0.98632 0.55676 0.45958 0.0
H838 H 1.00389 0.54938 0.48321 0.0
H839 H 0.97988 0.48365 0.49598 0.0
H840 H 0.04582 0.46242 0.54151 0.0
H841 H 0.02828 0.47071 0.51857 0.0
H842 H 0.05131 0.53613 0.50803 0.0
C843 C 0.99419 0.53734 0.47406 0.0
C844 C 0.9955 0.49519 0.49834 0.0
C845 C 0.98394 0.54153 0.46057 0.0
C846 C 0.04786 0.47754 0.54137 0.0
C847 C 0.03763 0.48224 0.52827 0.0
C848 C 0.03569 0.52461 0.50562 0.0
C849 C 0.99209 0.51797 0.47559 0.0
C850 C 1.00407 0.51389 0.48924 0.0
C851 C 0.03923 0.50144 0.52782 0.0
C852 C 0.02716 0.50584 0.51458 0.0
H853 H 0.95897 0.49493 0.4409 0.0
H854 H 0.97697 0.48766 0.46428 0.0
H855 H 0.03158 0.543 0.48615 0.0
H856 H 0.07135 0.52279 0.56345 0.0
H857 H 0.05352 0.53102 0.54051 0.0
C858 C 0.50173 0.45639 0.45679 0.0
C859 C 0.50306 0.46512 0.43978 0.0
C860 C 0.50298 0.46708 0.4726 0.0
C861 C 0.4963 0.50955 0.48885 0.0
H862 H 0.52516 0.50736 0.53102 0.0
C863 C 0.51171 0.56132 0.55142 0.0
C864 C 0.51064 0.55272 0.56845 0.0
C865 C 0.51024 0.5505 0.53564 0.0
C866 C 0.51681 0.50796 0.51944 0.0
H867 H 0.50745 0.49223 0.4261 0.0
H868 H 0.50989 0.51081 0.45345 0.0
H869 H 0.52415 0.48873 0.50398 0.0
H870 H 0.50635 0.52567 0.58219 0.0
H871 H 0.50346 0.50687 0.55488 0.0
H872 H 0.48897 0.52879 0.50431 0.0
C873 C 0.50745 0.49558 0.45468 0.0
C874 C 0.51625 0.49725 0.50391 0.0
C875 C 0.5062 0.48494 0.43896 0.0
C876 C 0.50741 0.53287 0.56932 0.0
C877 C 0.50591 0.5221 0.55362 0.0
C878 C 0.49686 0.52025 0.50438 0.0
C879 C 0.50557 0.48673 0.47172 0.0
C880 C 0.50602 0.49792 0.48839 0.0
C881 C 0.50764 0.53085 0.53656 0.0
C882 C 0.50711 0.51959 0.5199 0.0
H883 H 0.49922 0.44112 0.45791 0.0
H884 H 0.50134 0.45973 0.48549 0.0
H885 H 0.48798 0.51017 0.47726 0.0
H886 H 0.51429 0.5766 0.55027 0.0
H887 H 0.51175 0.55778 0.52273 0.0
C888 C 0.55619 0.04938 0.45983 0.0
C889 C 0.54809 0.05419 0.44483 0.0
C890 C 0.54368 0.03837 0.47437 0.0
C891 C 0.48915 1.00338 0.48496 0.0
H892 H 0.50745 0.01232 0.53459 0.0
C893 C 0.43433 0.96655 0.54516 0.0
C894 C 0.44083 0.95938 0.5597 0.0
C895 C 0.44765 0.97752 0.53112 0.0
C896 C 0.50218 0.00948 0.52077 0.0
H897 H 0.52076 0.05221 0.43383 0.0
H898 H 0.49922 0.03369 0.45924 0.0
H899 H 0.53042 0.03362 0.51076 0.0
H900 H 0.46647 0.95787 0.57068 0.0
H901 H 0.48971 0.97699 0.54616 0.0
H902 H 0.46086 0.97943 0.49498 0.0
C903 C 0.51504 0.03778 0.45962 0.0
C904 C 0.51537 0.02171 0.50708 0.0
C905 C 0.52747 0.0486 0.44509 0.0
C906 C 0.46091 0.96311 0.55968 0.0
C907 C 0.4743 0.97423 0.54569 0.0
C908 C 0.47597 0.99127 0.49863 0.0
C909 C 0.52281 0.03203 0.47427 0.0
C910 C 0.50899 0.01893 0.48898 0.0
C911 C 0.46789 0.98173 0.53131 0.0
C912 C 0.48225 0.99421 0.51672 0.0
H913 H 0.57198 0.05333 0.46001 0.0
H914 H 0.55022 0.03416 0.48533 0.0
H915 H 0.4838 1.00039 0.47117 0.0
H916 H 0.419 0.96403 0.54474 0.0
H917 H 0.44223 0.9832 0.52036 0.0
C918 C 0.50249 0.04026 0.94964 0.0
C919 C 0.48761 0.04607 0.95012 0.0
C920 C 0.50421 0.02896 0.96375 0.0
C921 C 0.4745 0.99548 1.00202 0.0
H922 H 0.52666 1.00295 0.01686 0.0
C923 C 0.48608 0.96148 0.06767 0.0
C924 C 0.49934 0.95364 0.06729 0.0
C925 C 0.484 0.97139 0.05263 0.0
C926 C 0.51195 1.0005 0.01271 0.0
H927 H 0.46341 0.04522 0.96623 0.0
H928 H 0.46679 0.02615 0.99103 0.0
H929 H 0.52507 0.02404 0.99287 0.0
H930 H 0.52048 0.94965 0.05058 0.0
H931 H 0.51689 0.96706 0.02426 0.0
H932 H 0.46147 0.97224 0.02218 0.0
C933 C 0.47679 0.02977 0.97952 0.0
C934 C 0.51102 0.01261 0.99894 0.0
C935 C 0.47497 0.04092 0.96535 0.0
C936 C 0.51004 0.95541 0.05129 0.0
C937 C 0.50814 0.96555 0.03628 0.0
C938 C 0.47546 0.98351 0.01588 0.0
C939 C 0.49119 0.0233 0.97879 0.0
C940 C 0.49228 0.01035 0.99344 0.0
C941 C 0.49529 0.9739 0.03687 0.0
C942 C 0.49419 0.98591 0.02146 0.0
H943 H 0.5124 0.04383 0.93807 0.0
H944 H 0.51534 0.02413 0.96255 0.0
H945 H 0.45974 0.99292 0.99793 0.0
H946 H 0.47763 0.96041 0.07978 0.0
H947 H 0.47409 0.97775 0.05361 0.0
C948 C 0.99038 0.48073 0.93722 0.0
C949 C 0.974 0.46076 0.93831 0.0
C950 C 0.99989 0.49166 0.95279 0.0
C951 C 0.99298 0.4937 1.00201 0.0
H952 H 0.05163 0.52741 1.00183 0.0
C953 C 0.03768 0.53149 0.06679 0.0
C954 C 0.05373 0.55163 0.06567 0.0
C955 C 0.02838 0.52041 0.05124 0.0
C956 C 0.03524 0.51827 1.00205 0.0
H957 H 0.95463 0.43671 0.95677 0.0
H958 H 0.97136 0.45579 0.98407 0.0
H959 H 0.03426 0.50786 0.97508 0.0
H960 H 0.07285 0.57576 0.04719 0.0
H961 H 0.05651 0.55636 0.0199 0.0
H962 H 0.99397 0.5041 0.02899 0.0
C963 C 0.97672 0.46306 0.97109 0.0
C964 C 0.02525 0.50702 0.9867 0.0
C965 C 0.96715 0.45208 0.95544 0.0
C966 C 0.06057 0.56027 0.04853 0.0
C967 C 0.05123 0.54912 0.0329 0.0
C968 C 1.00298 0.50493 0.01736 0.0
C969 C 0.99335 0.48294 0.96994 0.0
C970 C 1.00397 0.49462 0.98645 0.0
C971 C 0.03483 0.52912 0.03408 0.0
C972 C 0.02424 0.51736 0.0176 0.0
H973 H 0.99601 0.488 0.92428 0.0
H974 H 0.01234 0.50704 0.95135 0.0
H975 H 0.97659 0.48459 1.00224 0.0
H976 H 0.03207 0.52426 0.07975 0.0
H977 H 0.0161 0.50493 0.0527 0.0
C978 C 0.52977 0.49781 0.93755 0.0
C979 C 0.55047 0.50369 0.93846 0.0
C980 C 0.51874 0.49612 0.95317 0.0
C981 C 0.51895 0.49151 1.00295 0.0
H982 H 0.48173 0.51238 1.00109 0.0
C983 C 0.48217 0.50118 0.06731 0.0
C984 C 0.46157 0.49569 0.06669 0.0
C985 C 0.49279 0.50231 0.05157 0.0
C986 C 0.49186 0.50626 1.00181 0.0
H987 H 0.57565 0.51191 0.95668 0.0
H988 H 0.55639 0.50902 0.98404 0.0
H989 H 0.50067 0.51348 0.97416 0.0
H990 H 0.4361 0.48752 0.04884 0.0
H991 H 0.45465 0.4894 0.02124 0.0
H992 H 0.51017 0.48431 0.03059 0.0
C993 C 0.54865 0.50557 0.97118 0.0
C994 C 0.50275 0.50688 0.98635 0.0
C995 C 0.55972 0.50725 0.95549 0.0
C996 C 0.45197 0.49186 0.0498 0.0
C997 C 0.46263 0.49298 0.03398 0.0
C998 C 0.50806 0.49088 0.01841 0.0
C999 C 0.52808 0.50029 0.97019 0.0
C1000 C 0.51646 0.49953 0.9867 0.0
C1001 C 0.48313 0.49794 0.0347 0.0
C1002 C 0.49442 0.49831 0.01807 0.0
H1003 H 0.52208 0.49481 0.92468 0.0
H1004 H 0.50286 0.49161 0.95189 0.0
H1005 H 0.52911 0.48543 1.00368 0.0
H1006 H 0.49015 0.5044 0.08005 0.0
H1007 H 0.50864 0.50662 0.05266 0.0
C1008 C 0.24056 1.00123 0.97376 0.0
C1009 C 0.22243 0.98833 0.96461 0.0
C1010 C 0.24474 0.02034 0.97964 0.0
C1011 C 0.22987 0.05981 0.97452 0.0
H1012 H 0.25535 0.07659 0.02143 0.0
C1013 C 0.23632 0.12875 0.01393 0.0
C1014 C 0.25424 0.14083 0.02372 0.0
C1015 C 0.23309 0.11102 0.00535 0.0
C1016 C 0.24849 0.0723 0.0082 0.0
H1017 H 0.19466 0.9857 0.95407 0.0
H1018 H 0.2018 0.0191 0.96466 0.0
H1019 H 0.24798 0.04403 0.00923 0.0
H1020 H 0.28311 0.14397 0.03162 0.0
H1021 H 0.2775 0.11306 0.01661 0.0
H1022 H 0.23011 0.0881 0.97377 0.0
C1023 C 0.21292 0.01447 0.96709 0.0
C1024 C 0.24425 0.05357 1.00116 0.0
C1025 C 0.20878 0.99528 0.96106 0.0
C1026 C 0.26912 0.13503 0.02425 0.0
C1027 C 0.26584 0.11722 0.01575 0.0
C1028 C 0.23404 0.07857 0.98163 0.0
C1029 C 0.23085 0.02713 0.97671 0.0
C1030 C 0.23498 0.04707 0.98418 0.0
C1031 C 0.24765 0.10482 0.00641 0.0
C1032 C 0.24349 0.08508 0.99854 0.0
H1033 H 0.25156 0.99651 0.97655 0.0
H1034 H 0.25894 0.02979 0.98656 0.0
H1035 H 0.22294 0.05545 0.96133 0.0
H1036 H 0.22453 0.13275 0.0132 0.0
H1037 H 0.21886 0.10179 0.99841 0.0
C1038 C 0.0151 0.21391 0.95948 0.0
C1039 C 0.03186 0.22309 0.97118 0.0
C1040 C 0.99548 0.20111 0.96631 0.0
C1041 C 0.96679 0.19129 0.00913 0.0
H1042 H 0.92666 0.14107 0.98688 0.0
C1043 C 0.89845 0.1313 0.04852 0.0
C1044 C 0.87918 0.12185 0.04042 0.0
C1045 C 0.91584 0.14389 0.03856 0.0
C1046 C 0.93763 0.15521 0.9931 0.0
H1047 H 0.04129 0.22503 0.99904 0.0
H1048 H 1.00753 0.20263 0.01077 0.0
H1049 H 0.95961 0.16203 0.97209 0.0
H1050 H 0.86316 0.11814 0.0153 0.0
H1051 H 0.89386 0.14019 0.99768 0.0
H1052 H 0.94517 0.1844 0.03028 0.0
C1053 C 0.00927 0.20569 0.99642 0.0
C1054 C 0.9565 0.1672 0.98465 0.0
C1055 C 0.02871 0.21845 0.98965 0.0
C1056 C 0.87777 0.12527 0.02196 0.0
C1057 C 0.89533 0.13778 0.01186 0.0
C1058 C 0.94808 0.17933 0.01756 0.0
C1059 C 0.9923 0.19727 0.98496 0.0
C1060 C 0.9715 0.18516 0.99281 0.0
C1061 C 0.91456 0.14733 0.02012 0.0
C1062 C 0.93343 0.16093 0.00989 0.0
H1063 H 0.01703 0.21723 0.94518 0.0
H1064 H 0.98276 0.19486 0.95709 0.0
H1065 H 0.9777 0.20531 0.01556 0.0
H1066 H 0.90018 0.12904 0.06269 0.0
H1067 H 0.93041 0.15076 0.04529 0.0
C1068 C 0.88306 0.74864 0.02782 0.0
C1069 C 0.90401 0.75981 0.02433 0.0
C1070 C 0.86962 0.7532 0.01885 0.0
C1071 C 0.86863 0.79507 0.99358 0.0
H1072 H 0.81331 0.75339 0.98344 0.0
C1073 C 0.80931 0.81122 0.95838 0.0
C1074 C 0.7904 0.80258 0.96717 0.0
C1075 C 0.82381 0.80585 0.96348 0.0
C1076 C 0.82871 0.76522 0.98621 0.0
H1077 H 0.92713 0.78403 0.00807 0.0
H1078 H 0.90371 0.79156 0.99206 0.0
H1079 H 0.83722 0.74386 0.99537 0.0
H1080 H 0.77187 0.78129 0.98801 0.0
H1081 H 0.79686 0.77189 0.99663 0.0
H1082 H 0.85996 0.81638 0.98432 0.0
C1083 C 0.89764 0.77963 1.00209 0.0
C1084 C 0.84243 0.75977 0.99315 0.0
C1085 C 0.91109 0.77518 0.01119 0.0
C1086 C 0.78627 0.78833 0.98096 0.0
C1087 C 0.80056 0.78278 0.98584 0.0
C1088 C 0.85493 0.80049 0.98646 0.0
C1089 C 0.87673 0.76895 0.006 0.0
C1090 C 0.86251 0.77463 0.99726 0.0
C1091 C 0.81952 0.79147 0.97723 0.0
C1092 C 0.8347 0.78566 0.98301 0.0
H1093 H 0.87707 0.7368 0.03795 0.0
H1094 H 0.85371 0.74479 0.02247 0.0
H1095 H 0.88383 0.80702 0.99677 0.0
H1096 H 0.81296 0.82224 0.94772 0.0
H1097 H 0.83829 0.81277 0.95656 0.0
C1098 C 0.01464 0.23662 0.55907 0.0
C1099 C 0.99761 0.21741 0.556 0.0
C1100 C 0.03357 0.24179 0.5517 0.0
C1101 C 0.0634 0.22055 0.5307 0.0
H1102 H 0.09415 0.27432 0.50993 0.0
C1103 C 0.13269 0.24403 0.48368 0.0
C1104 C 0.14916 0.26395 0.48487 0.0
C1105 C 0.11481 0.2381 0.49344 0.0
C1106 C 0.08596 0.25935 0.51588 0.0
H1107 H 0.9874 0.18833 0.54318 0.0
H1108 H 0.02042 0.19738 0.53023 0.0
H1109 H 0.0621 0.26428 0.52503 0.0
H1110 H 0.15978 0.2931 0.49768 0.0
H1111 H 0.12873 0.28271 0.51486 0.0
H1112 H 0.08726 0.2156 0.52139 0.0
C1113 C 0.01916 0.20843 0.53848 0.0
C1114 C 0.06751 0.25357 0.52457 0.0
C1115 C 1.00018 0.20324 0.54587 0.0
C1116 C 0.14741 0.27767 0.49636 0.0
C1117 C 0.12951 0.27173 0.50613 0.0
C1118 C 0.0819 0.22635 0.52201 0.0
C1119 C 0.03604 0.22792 0.54102 0.0
C1120 C 0.05593 0.23407 0.53208 0.0
C1121 C 0.11288 0.25191 0.50468 0.0
C1122 C 0.09342 0.24582 0.51443 0.0
H1123 H 0.01331 0.2479 0.56689 0.0
H1124 H 0.04627 0.25678 0.55428 0.0
H1125 H 0.05506 0.20551 0.53651 0.0
H1126 H 0.13344 0.23303 0.47495 0.0
H1127 H 0.10229 0.22279 0.49178 0.0
C1128 C 0.81576 0.79573 0.52112 0.0
C1129 C 0.81257 0.78783 0.53872 0.0
C1130 C 0.80775 0.80785 0.51564 0.0
C1131 C 0.78667 0.83961 0.53154 0.0
H1132 H 0.76244 0.82817 0.48393 0.0
C1133 C 0.74426 0.87956 0.50259 0.0
C1134 C 0.74784 0.88531 0.48432 0.0
C1135 C 0.75139 0.86737 0.51013 0.0
C1136 C 0.76931 0.83175 0.49718 0.0
H1137 H 0.79898 0.78718 0.56459 0.0
H1138 H 0.78492 0.80848 0.55497 0.0
H1139 H 0.77676 0.80819 0.49561 0.0
H1140 H 0.76182 0.88269 0.45972 0.0
H1141 H 0.77431 0.86177 0.47282 0.0
H1142 H 0.77932 0.86336 0.53297 0.0
C1143 C 0.79372 0.80526 0.54543 0.0
C1144 C 0.77754 0.82025 0.5039 0.0
C1145 C 0.80176 0.79303 0.55094 0.0
C1146 C 0.75865 0.87851 0.47381 0.0
C1147 C 0.76574 0.86637 0.48132 0.0
C1148 C 0.77844 0.85119 0.52478 0.0
C1149 C 0.79627 0.81246 0.52758 0.0
C1150 C 0.7866 0.8242 0.52105 0.0
C1151 C 0.76221 0.86059 0.49957 0.0
C1152 C 0.76991 0.84759 0.50738 0.0
H1153 H 0.82417 0.79224 0.51136 0.0
H1154 H 0.81044 0.8135 0.50193 0.0
H1155 H 0.7936 0.84312 0.54477 0.0
H1156 H 0.736 0.88452 0.51109 0.0
H1157 H 0.74821 0.86307 0.52419 0.0
C1158 C 0.20069 0.01947 0.5383 0.0
C1159 C 0.21872 0.02425 0.54746 0.0
C1160 C 0.18775 0.99977 0.53207 0.0
C1161 C 0.188 0.95307 0.51881 0.0
H1162 H 0.1296 0.92996 0.51847 0.0
C1163 C 0.13327 0.87337 0.48862 0.0
C1164 C 0.11759 0.87224 0.47774 0.0
C1165 C 0.1452 0.89067 0.49912 0.0
C1166 C 0.1459 0.93622 0.51836 0.0
H1167 H 0.23686 0.01174 0.55774 0.0
H1168 H 0.21419 0.97736 0.54703 0.0
H1169 H 0.15089 0.96233 0.53335 0.0
H1170 H 0.10206 0.88836 0.46963 0.0
H1171 H 0.12275 0.91824 0.48768 0.0
H1172 H 0.18299 0.92709 0.50353 0.0
C1173 C 0.21021 0.98894 0.54444 0.0
C1174 C 0.15811 0.95482 0.52689 0.0
C1175 C 0.22314 0.00865 0.55071 0.0
C1176 C 0.11397 0.88863 0.47783 0.0
C1177 C 0.12577 0.90578 0.48833 0.0
C1178 C 0.17576 0.93444 0.51025 0.0
C1179 C 0.19248 0.98429 0.5348 0.0
C1180 C 0.17936 0.96368 0.52698 0.0
C1181 C 0.14161 0.90712 0.49906 0.0
C1182 C 0.15456 0.92595 0.50964 0.0
H1183 H 0.1968 0.03107 0.53549 0.0
H1184 H 0.17437 0.99686 0.52454 0.0
H1185 H 0.20431 0.95951 0.51841 0.0
H1186 H 0.13647 0.86103 0.48886 0.0
H1187 H 0.15719 0.89113 0.50733 0.0
C1188 C 0.78824 0.89055 0.9795 0.0
C1189 C 0.76898 0.87308 0.9782 0.0
C1190 C 0.7912 0.90705 0.98997 0.0
C1191 C 0.76337 0.93096 0.00889 0.0
H1192 H 0.81464 0.96525 0.0329 0.0
C1193 C 0.78968 0.01385 0.02647 0.0
C1194 C 0.80057 0.02233 0.04246 0.0
C1195 C 0.78479 0.99438 0.02108 0.0
C1196 C 0.80011 0.95573 0.0265 0.0
H1197 H 0.73781 0.85911 0.98741 0.0
H1198 H 0.74302 0.88792 0.00591 0.0
H1199 H 0.80791 0.93311 0.01984 0.0
H1200 H 0.81476 0.01678 0.0654 0.0
H1201 H 0.80609 0.98252 0.05599 0.0
H1202 H 0.75554 0.95352 0.01559 0.0
C1203 C 0.7558 0.88892 0.99858 0.0
C1204 C 0.79634 0.93738 0.0188 0.0
C1205 C 0.75282 0.87234 0.98805 0.0
C1206 C 0.80638 0.01072 0.053 0.0
C1207 C 0.80148 0.99112 0.04756 0.0
C1208 C 0.76713 0.94927 0.01662 0.0
C1209 C 0.77501 0.90659 0.99952 0.0
C1210 C 0.77809 0.92495 0.00953 0.0
C1211 C 0.79059 0.9827 0.03151 0.0
C1212 C 0.78574 0.96215 0.02515 0.0
H1213 H 0.80107 0.89171 0.97211 0.0
H1214 H 0.80612 0.92044 0.99007 0.0
H1215 H 0.74921 0.92191 1.0018 0.0
H1216 H 0.78498 0.02231 0.01794 0.0
H1217 H 0.77678 0.98865 0.00847 0.0
C1218 C 0.13293 0.90149 0.9901 0.0
C1219 C 0.14618 0.89559 0.98257 0.0
C1220 C 0.11556 0.88758 0.99957 0.0
C1221 C 0.07989 0.83271 1.0033 0.0
H1222 H 0.06097 0.84737 0.04619 0.0
C1223 C 0.00998 0.77304 0.04207 0.0
C1224 C 0.99607 0.77852 0.0487 0.0
C1225 C 0.02892 0.78767 0.03548 0.0
C1226 C 0.06591 0.84308 0.03412 0.0
H1227 H 0.15176 0.87048 0.97957 0.0
H1228 H 0.12146 0.8462 0.99614 0.0
H1229 H 0.09306 0.87206 0.03222 0.0
H1230 H 0.99146 0.80389 0.05405 0.0
H1231 H 0.02454 0.82958 0.04222 0.0
H1232 H 0.05271 0.80394 0.00489 0.0
C1233 C 0.12443 0.86159 0.99456 0.0
C1234 C 0.08435 0.85723 0.02612 0.0
C1235 C 0.14189 0.87554 0.98516 0.0
C1236 C 1.00185 0.79917 0.04908 0.0
C1237 C 0.02085 0.81389 0.04233 0.0
C1238 C 0.06146 0.81863 0.01122 0.0
C1239 C 0.1109 0.86737 1.00169 0.0
C1240 C 0.09159 0.85221 0.01062 0.0
C1241 C 0.0345 0.80827 0.03514 0.0
C1242 C 0.0542 0.82355 0.02678 0.0
H1243 H 0.13574 0.9168 0.9884 0.0
H1244 H 0.10543 0.89254 0.00472 0.0
H1245 H 0.08474 0.82844 0.99116 0.0
H1246 H 1.00617 0.7573 0.04176 0.0
H1247 H 0.03915 0.78276 0.03052 0.0
C1248 C 0.13592 0.26367 0.98615 0.0
C1249 C 0.12062 0.2482 0.97569 0.0
C1250 C 0.14893 0.25979 0.99674 0.0
C1251 C 0.16794 0.22343 1.0003 0.0
H1252 H 0.18576 0.2463 0.04794 0.0
C1253 C 0.21408 0.19922 0.04515 0.0
C1254 C 0.23094 0.21476 0.05414 0.0
C1255 C 0.19974 0.20304 0.03694 0.0
C1256 C 0.18104 0.2399 0.03459 0.0
H1257 H 0.10663 0.21634 0.96872 0.0
H1258 H 0.12888 0.2096 0.98717 0.0
H1259 H 0.16295 0.25403 0.03087 0.0
H1260 H 0.2454 0.24635 0.06213 0.0
H1261 H 0.22052 0.25299 0.04777 0.0
H1262 H 0.18602 0.2094 1.00389 0.0
C1263 C 0.13124 0.22485 0.98696 0.0
C1264 C 0.16799 0.24439 0.02479 0.0
C1265 C 0.11835 0.22872 0.97642 0.0
C1266 C 0.23263 0.23399 0.05532 0.0
C1267 C 0.21828 0.23781 0.04714 0.0
C1268 C 0.18092 0.21895 0.01008 0.0
C1269 C 0.1469 0.24035 0.99708 0.0
C1270 C 0.16118 0.23612 0.00753 0.0
C1271 C 0.20186 0.2225 0.03751 0.0
C1272 C 0.18761 0.22705 0.02738 0.0
H1273 H 0.13807 0.27884 0.98591 0.0
H1274 H 0.16089 0.27213 0.00429 0.0
H1275 H 0.1634 0.21713 0.98691 0.0
H1276 H 0.21224 0.18422 0.044 0.0
H1277 H 0.18709 0.19078 0.02992 0.0
C1278 C 0.87883 0.74802 0.52087 0.0
C1279 C 0.87914 0.76341 0.53155 0.0
C1280 C 0.89569 0.75188 0.51026 0.0
C1281 C 0.95115 0.78796 0.50653 0.0
H1282 H 0.94547 0.76413 0.45923 0.0
C1283 C 0.02096 0.80991 0.46149 0.0
C1284 C 0.02197 0.79384 0.45319 0.0
C1285 C 1.00293 0.8067 0.46956 0.0
C1286 C 0.94731 0.77081 0.47247 0.0
H1287 H 0.89721 0.79511 0.53897 0.0
H1288 H 0.92621 0.80186 0.52037 0.0
H1289 H 0.91518 0.75722 0.4763 0.0
H1290 H 1.00444 0.76198 0.44619 0.0
H1291 H 0.97309 0.75643 0.46025 0.0
H1292 H 0.98321 0.80148 0.50278 0.0
C1293 C 0.91322 0.78667 0.52045 0.0
C1294 C 0.92993 0.7668 0.48229 0.0
C1295 C 0.89648 0.78281 0.53106 0.0
C1296 C 1.00425 0.77472 0.45247 0.0
C1297 C 0.98621 0.77153 0.46048 0.0
C1298 C 0.96847 0.792 0.49671 0.0
C1299 C 0.91321 0.77123 0.51006 0.0
C1300 C 0.93161 0.77534 0.49947 0.0
C1301 C 0.98543 0.78737 0.46948 0.0
C1302 C 0.96682 0.78349 0.47956 0.0
H1303 H 0.86573 0.73291 0.52094 0.0
H1304 H 0.89517 0.73956 0.50256 0.0
H1305 H 0.9531 0.79447 0.51985 0.0
H1306 H 0.03427 0.82485 0.46227 0.0
H1307 H 1.00278 0.81933 0.47611 0.0
C1308 C 0.22284 0.22619 0.4817 0.0
C1309 C 0.21301 0.22421 0.46514 0.0
C1310 C 0.22818 0.21194 0.48715 0.0
C1311 C 0.2379 0.17166 0.47096 0.0
H1312 H 0.23069 0.1567 0.52153 0.0
C1313 C 0.25272 0.10934 0.50135 0.0
C1314 C 0.26192 0.11329 0.51846 0.0
C1315 C 0.2467 0.12243 0.49381 0.0
C1316 C 0.23303 0.16085 0.50741 0.0
H1317 H 0.20135 0.20564 0.4412 0.0
H1318 H 0.21066 0.18048 0.45084 0.0
H1319 H 0.21969 0.17963 0.51024 0.0
H1320 H 0.27259 0.13457 0.54073 0.0
H1321 H 0.26231 0.15733 0.52757 0.0
H1322 H 0.25132 0.15279 0.46823 0.0
C1323 C 0.21429 0.19326 0.45953 0.0
C1324 C 0.22668 0.17401 0.5009 0.0
C1325 C 0.20887 0.20761 0.45404 0.0
C1326 C 0.26545 0.13093 0.52758 0.0
C1327 C 0.25941 0.14394 0.52008 0.0
C1328 C 0.24426 0.15841 0.47749 0.0
C1329 C 0.22385 0.19517 0.47627 0.0
C1330 C 0.22932 0.17989 0.48266 0.0
C1331 C 0.24967 0.13973 0.50322 0.0
C1332 C 0.24219 0.1531 0.49588 0.0
H1333 H 0.22644 0.23882 0.49059 0.0
H1334 H 0.2359 0.2142 0.49993 0.0
H1335 H 0.24029 0.17595 0.45686 0.0
H1336 H 0.24975 0.0959 0.49393 0.0
H1337 H 0.23917 0.11864 0.48084 0.0
C1338 C 0.80338 0.98352 0.48251 0.0
C1339 C 0.79153 0.98064 0.46707 0.0
C1340 C 0.81594 1.00289 0.48942 0.0
C1341 C 0.84167 0.05785 0.47961 0.0
H1342 H 0.84022 0.06137 0.53169 0.0
C1343 C 0.88505 0.13384 0.52051 0.0
C1344 C 0.89504 0.13274 0.53608 0.0
C1345 C 0.87198 0.11618 0.51084 0.0
C1346 C 0.84093 0.06067 0.51714 0.0
H1347 H 0.78436 0.99614 0.44632 0.0
H1348 H 0.80646 0.03022 0.45849 0.0
H1349 H 0.81878 0.02916 0.51686 0.0
H1350 H 0.8993 0.11218 0.55343 0.0
H1351 H 0.87678 0.08181 0.53674 0.0
H1352 H 0.86406 0.08955 0.48008 0.0
C1353 C 0.80596 0.01734 0.4652 0.0
C1354 C 0.82864 0.04216 0.50862 0.0
C1355 C 0.79329 0.99781 0.45823 0.0
C1356 C 0.89182 0.11368 0.54159 0.0
C1357 C 0.87877 0.09617 0.53205 0.0
C1358 C 0.85404 0.0765 0.48819 0.0
C1359 C 0.81704 0.02003 0.48116 0.0
C1360 C 0.82915 0.04035 0.48978 0.0
C1361 C 0.86851 0.0971 0.51666 0.0
C1362 C 0.85412 0.078 0.50711 0.0
H1363 H 0.80262 0.97071 0.48958 0.0
H1364 H 0.82464 1.00441 0.50146 0.0
H1365 H 0.84243 0.05699 0.46508 0.0
H1366 H 0.88723 0.14828 0.51587 0.0
H1367 H 0.86427 0.11741 0.49905 0.0
C1368 C 0.93165 0.46758 0.35439 0.0
C1369 C 0.91841 0.46841 0.36717 0.0
C1370 C 0.92547 0.45011 0.34388 0.0
C1371 C 0.87926 0.40388 0.32792 0.0
H1372 H 0.91461 0.38116 0.32282 0.0
C1373 C 0.84903 0.32074 0.30691 0.0
C1374 C 0.86136 0.31578 0.29647 0.0
C1375 C 0.85643 0.34049 0.31329 0.0
C1376 C 0.90464 0.38744 0.32382 0.0
H1377 H 0.88821 0.45153 0.37873 0.0
H1378 H 0.87755 0.42141 0.36056 0.0
H1379 H 0.92703 0.4137 0.33795 0.0
H1380 H 0.89105 0.32802 0.28408 0.0
H1381 H 0.90384 0.36254 0.29495 0.0
H1382 H 0.8568 0.37764 0.31398 0.0
C1383 C 0.89264 0.43421 0.3585 0.0
C1384 C 0.91178 0.40612 0.33253 0.0
C1385 C 0.89885 0.45149 0.36904 0.0
C1386 C 0.88111 0.33126 0.29209 0.0
C1387 C 0.88852 0.35105 0.29847 0.0
C1388 C 0.87215 0.38529 0.31916 0.0
C1389 C 0.90584 0.43322 0.3458 0.0
C1390 C 0.89904 0.41439 0.335 0.0
C1391 C 0.87637 0.35588 0.30938 0.0
C1392 C 0.88459 0.37659 0.31728 0.0
H1393 H 0.94682 0.48034 0.3526 0.0
H1394 H 0.93597 0.44989 0.33416 0.0
H1395 H 0.86916 0.40999 0.32928 0.0
H1396 H 0.83378 0.30923 0.31063 0.0
H1397 H 0.84668 0.34349 0.32183 0.0
C1398 C 0.56214 0.45298 0.36555 0.0
C1399 C 0.54451 0.45459 0.36517 0.0
C1400 C 0.57909 0.46581 0.35515 0.0
C1401 C 0.59636 0.50066 0.31584 0.0
H1402 H 0.64909 0.52111 0.3382 0.0
C1403 C 0.67147 0.56415 0.28406 0.0
C1404 C 0.68917 0.56288 0.28638 0.0
C1405 C 0.65325 0.55026 0.29251 0.0
C1406 C 0.63453 0.51533 0.33161 0.0
H1407 H 0.53085 0.47088 0.35317 0.0
H1408 H 0.56066 0.49354 0.33502 0.0
H1409 H 0.61857 0.49883 0.35514 0.0
H1410 H 0.70126 0.5454 0.29888 0.0
H1411 H 0.66952 0.52106 0.31338 0.0
H1412 H 0.61247 0.51735 0.29229 0.0
C1413 C 0.56123 0.48214 0.34334 0.0
C1414 C 0.61696 0.50254 0.34137 0.0
C1415 C 0.54417 0.46922 0.3538 0.0
C1416 C 0.68799 0.54692 0.29684 0.0
C1417 C 0.66979 0.53304 0.30529 0.0
C1418 C 0.614 0.51351 0.30604 0.0
C1419 C 0.57901 0.48074 0.34405 0.0
C1420 C 0.59762 0.4949 0.33361 0.0
C1421 C 0.65226 0.53474 0.30354 0.0
C1422 C 0.63334 0.52093 0.31377 0.0
H1423 H 0.56296 0.4418 0.374 0.0
H1424 H 0.59229 0.46395 0.35579 0.0
H1425 H 0.58176 0.49492 0.30935 0.0
H1426 H 0.67179 0.57626 0.27614 0.0
H1427 H 0.64015 0.55216 0.29093 0.0
C1428 C 0.54465 0.08237 0.36236 0.0
C1429 C 0.56574 0.09466 0.36021 0.0
C1430 C 0.53127 0.08675 0.35302 0.0
C1431 C 0.53002 0.12945 0.32944 0.0
H1432 H 0.47631 0.08723 0.31536 0.0
C1433 C 0.47204 0.14593 0.29237 0.0
C1434 C 0.45245 0.13613 0.29992 0.0
C1435 C 0.4865 0.14063 0.29781 0.0
C1436 C 0.49127 0.09921 0.31923 0.0
H1437 H 0.58924 0.12061 0.34585 0.0
H1438 H 0.56602 0.12781 0.32917 0.0
H1439 H 0.50018 0.07802 0.32804 0.0
H1440 H 0.43263 0.11277 0.31881 0.0
H1441 H 0.45756 0.10352 0.32803 0.0
H1442 H 0.52099 0.15059 0.32055 0.0
C1443 C 0.55973 0.11517 0.33848 0.0
C1444 C 0.50495 0.09393 0.32661 0.0
C1445 C 0.57308 0.11092 0.34796 0.0
C1446 C 0.44758 0.12072 0.31273 0.0
C1447 C 0.46184 0.11528 0.31795 0.0
C1448 C 0.51639 0.13471 0.3219 0.0
C1449 C 0.53862 0.10341 0.34113 0.0
C1450 C 0.52444 0.10897 0.33211 0.0
C1451 C 0.48151 0.12519 0.31066 0.0
C1452 C 0.49672 0.11966 0.31699 0.0
H1453 H 0.53848 0.06981 0.37179 0.0
H1454 H 0.51517 0.07745 0.35564 0.0
H1455 H 0.54473 0.14152 0.33373 0.0
H1456 H 0.47628 0.15785 0.28247 0.0
H1457 H 0.50152 0.14851 0.2919 0.0
C1458 C 0.66594 0.53637 0.87887 0.0
C1459 C 0.66326 0.55002 0.88968 0.0
C1460 C 0.68493 0.54204 0.87121 0.0
C1461 C 0.73282 0.58802 0.85794 0.0
H1462 H 0.7534 0.5509 0.85273 0.0
C1463 C 0.81302 0.61438 0.82924 0.0
C1464 C 0.81516 0.60122 0.81733 0.0
C1465 C 0.79498 0.60785 0.83895 0.0
C1466 C 0.7478 0.56142 0.85391 0.0
H1467 H 0.67877 0.58005 0.90154 0.0
H1468 H 0.71174 0.58976 0.88847 0.0
H1469 H 0.72118 0.53978 0.86821 0.0
H1470 H 0.79991 0.5707 0.80648 0.0
H1471 H 0.76848 0.55943 0.82318 0.0
H1472 H 0.75924 0.60959 0.84351 0.0
C1473 C 0.69912 0.57482 0.88556 0.0
C1474 C 0.7293 0.55503 0.86281 0.0
C1475 C 0.68019 0.56917 0.89319 0.0
C1476 C 0.79887 0.58127 0.81555 0.0
C1477 C 0.78083 0.57474 0.82524 0.0
C1478 C 0.75127 0.5944 0.84904 0.0
C1479 C 0.70169 0.56151 0.87418 0.0
C1480 C 0.72155 0.56825 0.86495 0.0
C1481 C 0.77857 0.58797 0.837 0.0
C1482 C 0.75904 0.5812 0.84686 0.0
H1483 H 0.65324 0.52152 0.87583 0.0
H1484 H 0.68628 0.53142 0.86244 0.0
H1485 H 0.72718 0.59853 0.85899 0.0
H1486 H 0.82526 0.62981 0.83102 0.0
H1487 H 0.79394 0.61839 0.84807 0.0
C1488 C 0.45197 0.22085 0.80021 0.0
C1489 C 0.43541 0.22324 0.80508 0.0
C1490 C 0.45767 0.20941 0.81084 0.0
C1491 C 0.439 0.16903 0.8454 0.0
H1492 H 0.4963 0.18656 0.84908 0.0
C1493 C 0.46974 0.12232 0.88288 0.0
C1494 C 0.48323 0.11902 0.87238 0.0
C1495 C 0.46419 0.13656 0.87745 0.0
C1496 C 0.48024 0.18146 0.8482 0.0
H1497 H 0.4118 0.21529 0.82506 0.0
H1498 H 0.42191 0.19528 0.84384 0.0
H1499 H 0.48571 0.20846 0.83456 0.0
H1500 H 0.50205 0.12862 0.84839 0.0
H1501 H 0.49275 0.15357 0.83919 0.0
H1502 H 0.43366 0.14185 0.85894 0.0
C1503 C 0.43038 0.20223 0.83164 0.0
C1504 C 0.47414 0.19397 0.83981 0.0
C1505 C 0.42463 0.21376 0.82092 0.0
C1506 C 0.49161 0.13077 0.85678 0.0
C1507 C 0.48635 0.14516 0.85154 0.0
C1508 C 0.44515 0.15652 0.85394 0.0
C1509 C 0.44707 0.2 0.82675 0.0
C1510 C 0.45342 0.18769 0.83779 0.0
C1511 C 0.47235 0.14804 0.86163 0.0
C1512 C 0.46583 0.16237 0.85499 0.0
H1513 H 0.46058 0.22778 0.78806 0.0
H1514 H 0.47028 0.20768 0.80637 0.0
H1515 H 0.42293 0.16363 0.84404 0.0
H1516 H 0.46293 0.1134 0.89491 0.0
H1517 H 0.45343 0.13851 0.88554 0.0
C1518 C 0.87078 0.35531 0.86628 0.0
C1519 C 0.8866 0.36022 0.87861 0.0
C1520 C 0.85796 0.33524 0.86095 0.0
C1521 C 0.85573 0.28565 0.85768 0.0
H1522 H 0.79882 0.266 0.84809 0.0
C1523 C 0.80531 0.2126 0.81639 0.0
C1524 C 0.78474 0.2007 0.82121 0.0
C1525 C 0.81782 0.23112 0.82502 0.0
C1526 C 0.81462 0.27109 0.85088 0.0
H1527 H 0.90099 0.34763 0.89533 0.0
H1528 H 0.87842 0.31252 0.88619 0.0
H1529 H 0.81972 0.29966 0.86072 0.0
H1530 H 0.76149 0.19863 0.83947 0.0
H1531 H 0.7833 0.2306 0.85466 0.0
H1532 H 0.85054 0.25694 0.84797 0.0
C1533 C 0.87612 0.32429 0.88045 0.0
C1534 C 0.8267 0.29056 0.85793 0.0
C1535 C 0.88895 0.34442 0.88582 0.0
C1536 C 0.77721 0.20744 0.83529 0.0
C1537 C 0.78971 0.2259 0.84394 0.0
C1538 C 0.84364 0.26614 0.85061 0.0
C1539 C 0.86057 0.31946 0.86779 0.0
C1540 C 0.84747 0.29821 0.86128 0.0
C1541 C 0.8101 0.23819 0.83872 0.0
C1542 C 0.82293 0.25864 0.84698 0.0
H1543 H 0.86853 0.36706 0.86038 0.0
H1544 H 0.84637 0.3322 0.85101 0.0
H1545 H 0.8717 0.29106 0.85991 0.0
H1546 H 0.81162 0.20792 0.80557 0.0
H1547 H 0.83338 0.24021 0.8205 0.0
C1548 C 0.43822 0.2321 0.29444 0.0
C1549 C 0.42856 0.21278 0.30244 0.0
C1550 C 0.44233 0.24927 0.30438 0.0
C1551 C 0.45142 0.27079 0.34973 0.0
H1552 H 0.44078 0.31022 0.32661 0.0
C1553 C 0.4696 0.34859 0.38213 0.0
C1554 C 0.47742 0.36516 0.37016 0.0
C1555 C 0.46266 0.32884 0.37565 0.0
C1556 C 0.44402 0.29947 0.33324 0.0
H1557 H 0.41578 0.19641 0.32736 0.0
H1558 H 0.42324 0.22676 0.34496 0.0
H1559 H 0.42975 0.27771 0.3122 0.0
H1560 H 0.48512 0.37402 0.34217 0.0
H1561 H 0.47349 0.34007 0.33109 0.0
H1562 H 0.4662 0.29296 0.3706 0.0
C1563 C 0.42752 0.22843 0.33086 0.0
C1564 C 0.43761 0.28078 0.32499 0.0
C1565 C 0.42315 0.21108 0.32078 0.0
C1566 C 0.47893 0.36164 0.35178 0.0
C1567 C 0.4721 0.34208 0.34537 0.0
C1568 C 0.45796 0.28965 0.35801 0.0
C1569 C 0.43705 0.24771 0.32269 0.0
C1570 C 0.44166 0.2664 0.33287 0.0
C1571 C 0.46341 0.32533 0.3571 0.0
C1572 C 0.4548 0.30443 0.34959 0.0
H1573 H 0.44264 0.23405 0.28037 0.0
H1574 H 0.44993 0.26389 0.29772 0.0
H1575 H 0.45481 0.26003 0.35611 0.0
H1576 H 0.46821 0.35079 0.39637 0.0
H1577 H 0.45608 0.31629 0.38507 0.0
C1578 C 0.6629 0.11176 0.36279 0.0
C1579 C 0.65467 0.11423 0.37893 0.0
C1580 C 0.68228 0.12631 0.35709 0.0
C1581 C 0.73146 0.16817 0.3725 0.0
H1582 H 0.739 0.18148 0.32157 0.0
C1583 C 0.80842 0.23001 0.34156 0.0
C1584 C 0.81367 0.22586 0.32454 0.0
C1585 C 0.78931 0.21702 0.34915 0.0
C1586 C 0.73726 0.17779 0.3358 0.0
H1587 H 0.66061 0.13403 0.40186 0.0
H1588 H 0.69477 0.15966 0.39184 0.0
H1589 H 0.70522 0.15832 0.33308 0.0
H1590 H 0.80311 0.20433 0.30247 0.0
H1591 H 0.77012 0.18165 0.31574 0.0
H1592 H 0.76366 0.18756 0.37512 0.0
C1593 C 0.68606 0.14629 0.38365 0.0
C1594 C 0.71784 0.16453 0.34243 0.0
C1595 C 0.66648 0.13168 0.38934 0.0
C1596 C 0.79957 0.20812 0.31554 0.0
C1597 C 0.78054 0.19516 0.32311 0.0
C1598 C 0.75099 0.18146 0.36585 0.0
C1599 C 0.69411 0.14383 0.36735 0.0
C1600 C 0.71469 0.15928 0.3608 0.0
C1601 C 0.77499 0.19957 0.33988 0.0
C1602 C 0.75419 0.1862 0.34734 0.0
H1603 H 0.65435 0.09851 0.35442 0.0
H1604 H 0.68809 0.12371 0.34466 0.0
H1605 H 0.72959 0.16435 0.38671 0.0
H1606 H 0.81887 0.24355 0.34887 0.0
H1607 H 0.78555 0.22097 0.36203 0.0
C1608 C 0.88168 0.52391 0.35854 0.0
C1609 C 0.89449 0.53306 0.37339 0.0
C1610 C 0.86761 0.52963 0.35334 0.0
C1611 C 0.85836 0.57234 0.3541 0.0
H1612 H 0.80478 0.53192 0.33783 0.0
C1613 C 0.80075 0.59315 0.32224 0.0
C1614 C 0.79018 0.58163 0.30708 0.0
C1615 C 0.81258 0.58758 0.33275 0.0
C1616 C 0.81973 0.54344 0.3422 0.0
H1617 H 0.9024 0.55529 0.39461 0.0
H1618 H 0.8778 0.56553 0.38533 0.0
H1619 H 0.8267 0.52123 0.35217 0.0
H1620 H 0.78398 0.55533 0.29104 0.0
H1621 H 0.80455 0.54591 0.309 0.0
H1622 H 0.85161 0.59455 0.34354 0.0
C1623 C 0.87868 0.55383 0.37779 0.0
C1624 C 0.83227 0.53729 0.35048 0.0
C1625 C 0.89263 0.54786 0.38318 0.0
C1626 C 0.79177 0.56453 0.30266 0.0
C1627 C 0.8035 0.559 0.31309 0.0
C1628 C 0.84582 0.57852 0.34569 0.0
C1629 C 0.86609 0.54484 0.36272 0.0
C1630 C 0.85192 0.55162 0.35615 0.0
C1631 C 0.81399 0.57033 0.32834 0.0
C1632 C 0.82653 0.56411 0.3392 0.0
H1633 H 0.88272 0.51246 0.3507 0.0
H1634 H 0.85834 0.52255 0.34156 0.0
H1635 H 0.87347 0.58375 0.35821 0.0
H1636 H 0.79986 0.60641 0.32603 0.0
H1637 H 0.82039 0.59662 0.34443 0.0
C1638 C 0.54439 0.07671 0.852 0.0
C1639 C 0.54537 0.09091 0.86465 0.0
C1640 C 0.56119 0.08114 0.84107 0.0
C1641 C 0.60959 0.12416 0.82385 0.0
H1642 H 0.62539 0.08344 0.81744 0.0
C1643 C 0.68896 0.14354 0.7971 0.0
C1644 C 0.69055 0.12914 0.78643 0.0
C1645 C 0.67038 0.13899 0.80496 0.0
C1646 C 0.62106 0.09492 0.81881 0.0
H1647 H 0.5648 0.12102 0.87552 0.0
H1648 H 0.59386 0.12861 0.85664 0.0
H1649 H 0.59449 0.07499 0.83405 0.0
H1650 H 0.67355 0.09895 0.77506 0.0
H1651 H 0.6412 0.09122 0.78841 0.0
H1652 H 0.63621 0.14414 0.80873 0.0
C1653 C 0.58012 0.11413 0.85499 0.0
C1654 C 0.6033 0.09005 0.82838 0.0
C1655 C 0.56344 0.10968 0.86594 0.0
C1656 C 0.67294 0.11038 0.78328 0.0
C1657 C 0.65438 0.10587 0.79108 0.0
C1658 C 0.62732 0.12901 0.81424 0.0
C1659 C 0.57928 0.09992 0.84244 0.0
C1660 C 0.59745 0.10467 0.83121 0.0
C1661 C 0.65289 0.11996 0.8023 0.0
C1662 C 0.63343 0.11453 0.81174 0.0
H1663 H 0.53071 0.06212 0.85063 0.0
H1664 H 0.55996 0.0699 0.83144 0.0
H1665 H 0.60539 0.13571 0.8255 0.0
H1666 H 0.70222 0.1581 0.7999 0.0
H1667 H 0.66994 0.15018 0.81364 0.0
C1668 C 0.92677 0.4523 0.83375 0.0
C1669 C 0.93055 0.45301 0.85238 0.0
C1670 C 0.92106 0.46548 0.82589 0.0
C1671 C 0.9217 0.51392 0.83424 0.0
H1672 H 0.87812 0.49384 0.7992 0.0
C1673 C 0.88081 0.55788 0.81792 0.0
C1674 C 0.87629 0.55965 0.79986 0.0
C1675 C 0.88785 0.54478 0.82278 0.0
C1676 C 0.8905 0.49975 0.80879 0.0
H1677 H 0.93136 0.46829 0.8773 0.0
H1678 H 0.92135 0.49101 0.86371 0.0
H1679 H 0.89004 0.47139 0.81053 0.0
H1680 H 0.87522 0.54853 0.77277 0.0
H1681 H 0.88757 0.52542 0.78134 0.0
H1682 H 0.92202 0.54211 0.83277 0.0
C1683 C 0.92302 0.48048 0.85507 0.0
C1684 C 0.89735 0.48689 0.81528 0.0
C1685 C 0.92866 0.46733 0.8629 0.0
C1686 C 0.87856 0.54754 0.78679 0.0
C1687 C 0.88559 0.53428 0.79171 0.0
C1688 C 0.91486 0.5267 0.8278 0.0
C1689 C 0.9191 0.47974 0.83646 0.0
C1690 C 0.91279 0.49372 0.82836 0.0
C1691 C 0.89061 0.53299 0.80976 0.0
C1692 C 0.8989 0.51969 0.81526 0.0
H1693 H 0.92805 0.44145 0.82523 0.0
H1694 H 0.91834 0.4646 0.81151 0.0
H1695 H 0.93395 0.51988 0.84396 0.0
H1696 H 0.87911 0.5668 0.82842 0.0
H1697 H 0.89112 0.54386 0.83685 0.0
C1698 C 0.56664 0.45099 0.86285 0.0
C1699 C 0.56493 0.46855 0.86296 0.0
C1700 C 0.55351 0.43415 0.85253 0.0
C1701 C 0.50268 0.40971 0.83174 0.0
H1702 H 0.52059 0.37476 0.81055 0.0
C1703 C 0.44682 0.32637 0.81488 0.0
C1704 C 0.44995 0.31753 0.79947 0.0
C1705 C 0.46114 0.34598 0.82018 0.0
C1706 C 0.51534 0.38445 0.81615 0.0
H1707 H 0.54827 0.48227 0.85186 0.0
H1708 H 0.52537 0.45283 0.83366 0.0
H1709 H 0.54545 0.4072 0.82353 0.0
H1710 H 0.47069 0.32259 0.77744 0.0
H1711 H 0.49584 0.35708 0.78669 0.0
H1712 H 0.47259 0.38701 0.82435 0.0
C1713 C 0.53678 0.45205 0.84178 0.0
C1714 C 0.52958 0.40298 0.82381 0.0
C1715 C 0.54998 0.46898 0.85213 0.0
C1716 C 0.46781 0.32893 0.78939 0.0
C1717 C 0.48226 0.34865 0.79475 0.0
C1718 C 0.48845 0.39121 0.82407 0.0
C1719 C 0.53825 0.43432 0.84198 0.0
C1720 C 0.5234 0.41568 0.83206 0.0
C1721 C 0.47908 0.35742 0.81024 0.0
C1722 C 0.49452 0.37811 0.81654 0.0
H1723 H 0.57795 0.45006 0.87102 0.0
H1724 H 0.55495 0.42072 0.85331 0.0
H1725 H 0.49728 0.41897 0.83803 0.0
H1726 H 0.43329 0.31808 0.82304 0.0
H1727 H 0.4583 0.35199 0.83236 0.0
C1728 C 0.53897 0.66797 0.62567 0.0
C1729 C 0.54575 0.65656 0.63532 0.0
C1730 C 0.54369 0.68736 0.63165 0.0
C1731 C 0.55969 0.71928 0.67293 0.0
H1732 H 0.57705 0.76452 0.63998 0.0
C1733 C 0.59724 0.80117 0.69894 0.0
C1734 C 0.59118 0.8142 0.69129 0.0
C1735 C 0.59141 0.78231 0.69119 0.0
C1736 C 0.57203 0.75199 0.64934 0.0
H1737 H 0.56306 0.65683 0.65869 0.0
H1738 H 0.57131 0.69027 0.66886 0.0
H1739 H 0.56669 0.73072 0.62814 0.0
H1740 H 0.57465 0.81774 0.66908 0.0
H1741 H 0.56445 0.78476 0.65556 0.0
H1742 H 0.56512 0.74039 0.69412 0.0
C1743 C 0.56208 0.68426 0.65688 0.0
C1744 C 0.56605 0.73261 0.64254 0.0
C1745 C 0.55742 0.66504 0.65094 0.0
C1746 C 0.57961 0.80811 0.67535 0.0
C1747 C 0.57381 0.78921 0.66755 0.0
C1748 C 0.56568 0.73857 0.67969 0.0
C1749 C 0.55519 0.69566 0.64744 0.0
C1750 C 0.5601 0.71605 0.65429 0.0
C1751 C 0.57936 0.77593 0.67555 0.0
C1752 C 0.57222 0.75526 0.66803 0.0
H1753 H 0.52998 0.66191 0.61357 0.0
H1754 H 0.53806 0.6957 0.62408 0.0
H1755 H 0.55474 0.70683 0.68237 0.0
H1756 H 0.60624 0.80536 0.71115 0.0
H1757 H 0.5963 0.77266 0.69753 0.0
C1758 C 0.22485 0.78124 0.70403 0.0
C1759 C 0.20689 0.78166 0.70053 0.0
C1760 C 0.24222 0.79254 0.69358 0.0
C1761 C 0.26758 0.83684 0.66327 0.0
H1762 H 0.30169 0.81364 0.65273 0.0
C1763 C 0.34452 0.88142 0.62485 0.0
C1764 C 0.36083 0.88071 0.63307 0.0
C1765 C 0.32448 0.86828 0.63047 0.0
C1766 C 0.29238 0.82039 0.65559 0.0
H1767 H 0.19325 0.7945 0.6832 0.0
H1768 H 0.22379 0.81434 0.66479 0.0
H1769 H 0.26895 0.79296 0.66732 0.0
H1770 H 0.36873 0.86509 0.65313 0.0
H1771 H 0.33402 0.84221 0.66271 0.0
H1772 H 0.29129 0.86441 0.65171 0.0
C1773 C 0.22435 0.80524 0.67576 0.0
C1774 C 0.27359 0.80853 0.664 0.0
C1775 C 0.20682 0.79382 0.68626 0.0
C1776 C 0.35656 0.86607 0.64649 0.0
C1777 C 0.3366 0.85285 0.65195 0.0
C1778 C 0.28641 0.84872 0.65477 0.0
C1779 C 0.24226 0.80465 0.67925 0.0
C1780 C 0.26114 0.81672 0.66839 0.0
C1781 C 0.3203 0.85397 0.64423 0.0
C1782 C 0.29926 0.84077 0.65122 0.0
H1783 H 0.22559 0.77217 0.71493 0.0
H1784 H 0.25579 0.792 0.69697 0.0
H1785 H 0.25847 0.84371 0.66652 0.0
H1786 H 0.34728 0.89257 0.61453 0.0
H1787 H 0.31226 0.86943 0.62414 0.0
C1788 C 0.2447 0.44137 0.67585 0.0
C1789 C 0.23737 0.42578 0.68879 0.0
C1790 C 0.23141 0.44596 0.66665 0.0
C1791 C 0.17637 0.4262 0.65699 0.0
H1792 H 0.19388 0.48295 0.64908 0.0
C1793 C 0.12031 0.45494 0.64523 0.0
C1794 C 0.12457 0.46942 0.63164 0.0
C1795 C 0.13455 0.4493 0.65002 0.0
C1796 C 0.18886 0.46703 0.65096 0.0
H1797 H 0.21018 0.40253 0.70193 0.0
H1798 H 0.18711 0.41076 0.68627 0.0
H1799 H 0.21763 0.47341 0.66151 0.0
H1800 H 0.14727 0.48938 0.61242 0.0
H1801 H 0.17251 0.47973 0.62111 0.0
H1802 H 0.14736 0.41995 0.64706 0.0
C1803 C 0.20308 0.41924 0.68288 0.0
C1804 C 0.20249 0.4615 0.65806 0.0
C1805 C 0.21635 0.41454 0.69197 0.0
C1806 C 0.14353 0.47817 0.62293 0.0
C1807 C 0.15798 0.47271 0.62795 0.0
C1808 C 0.16272 0.43174 0.65007 0.0
C1809 C 0.21043 0.43519 0.67024 0.0
C1810 C 0.19636 0.44101 0.66143 0.0
C1811 C 0.15357 0.45812 0.6415 0.0
C1812 C 0.1687 0.45223 0.64721 0.0
H1813 H 0.26079 0.45027 0.67298 0.0
H1814 H 0.23765 0.45807 0.65679 0.0
H1815 H 0.17116 0.41025 0.65896 0.0
H1816 H 0.10586 0.44781 0.6522 0.0
H1817 H 0.13076 0.43822 0.66067 0.0
C1818 C 0.32503 0.84003 0.20921 0.0
C1819 C 0.32023 0.85358 0.21774 0.0
C1820 C 0.34451 0.8468 0.20225 0.0
C1821 C 0.38967 0.89342 0.18574 0.0
H1822 H 0.41485 0.86001 0.18699 0.0
C1823 C 0.46896 0.91971 0.15389 0.0
C1824 C 0.4707 0.905 0.14384 0.0
C1825 C 0.45182 0.91421 0.16473 0.0
C1826 C 0.40799 0.86949 0.1864 0.0
H1827 H 0.33251 0.88483 0.22619 0.0
H1828 H 0.36646 0.89652 0.21424 0.0
H1829 H 0.38279 0.8488 0.20268 0.0
H1830 H 0.45587 0.8729 0.13763 0.0
H1831 H 0.42622 0.86344 0.15626 0.0
H1832 H 0.4147 0.91394 0.16921 0.0
C1833 C 0.35507 0.88071 0.21267 0.0
C1834 C 0.38957 0.86304 0.19541 0.0
C1835 C 0.33561 0.87394 0.21965 0.0
C1836 C 0.45511 0.88467 0.14516 0.0
C1837 C 0.4381 0.87919 0.15599 0.0
C1838 C 0.4081 0.89986 0.17671 0.0
C1839 C 0.35971 0.86731 0.20362 0.0
C1840 C 0.38001 0.87478 0.19501 0.0
C1841 C 0.43611 0.89386 0.16585 0.0
C1842 C 0.41737 0.88785 0.1767 0.0
H1843 H 0.31358 0.82428 0.20743 0.0
H1844 H 0.34744 0.83606 0.19522 0.0
H1845 H 0.38266 0.90275 0.18493 0.0
H1846 H 0.48068 0.9355 0.15319 0.0
H1847 H 0.4509 0.92589 0.17226 0.0
C1848 C 0.14321 0.46567 0.22123 0.0
C1849 C 0.15283 0.45905 0.20899 0.0
C1850 C 0.13641 0.47889 0.21557 0.0
C1851 C 0.12055 0.49359 0.17384 0.0
H1852 H 0.12533 0.53894 0.20143 0.0
C1853 C 0.10334 0.55199 0.14173 0.0
C1854 C 0.09372 0.56023 0.15207 0.0
C1855 C 0.11014 0.53982 0.14969 0.0
C1856 C 0.12362 0.52617 0.19365 0.0
H1857 H 0.16396 0.46217 0.18158 0.0
H1858 H 0.15245 0.48523 0.17189 0.0
H1859 H 0.13861 0.51804 0.21379 0.0
H1860 H 0.0837 0.56201 0.17903 0.0
H1861 H 0.09524 0.54036 0.19292 0.0
H1862 H 0.10549 0.5014 0.15378 0.0
C1863 C 0.14967 0.47989 0.18571 0.0
C1864 C 0.13128 0.51422 0.20074 0.0
C1865 C 0.1564 0.46674 0.19131 0.0
C1866 C 0.09106 0.55593 0.17065 0.0
C1867 C 0.0978 0.54362 0.17864 0.0
C1868 C 0.11284 0.5054 0.16682 0.0
C1869 C 0.13908 0.4857 0.19758 0.0
C1870 C 0.13014 0.49798 0.19075 0.0
C1871 C 0.10739 0.53535 0.16824 0.0
C1872 C 0.11455 0.52208 0.17646 0.0
H1873 H 0.14015 0.45996 0.23492 0.0
H1874 H 0.12831 0.48307 0.22506 0.0
H1875 H 0.11893 0.48089 0.16597 0.0
H1876 H 0.10586 0.55509 0.12742 0.0
H1877 H 0.11783 0.53414 0.14127 0.0
C1878 C 0.54613 0.67839 0.21422 0.0
C1879 C 0.56603 0.68783 0.20736 0.0
C1880 C 0.53148 0.65907 0.20814 0.0
C1881 C 0.52608 0.61359 0.18415 0.0
H1882 H 0.47261 0.60419 0.17165 0.0
C1883 C 0.46468 0.53764 0.15278 0.0
C1884 C 0.45365 0.53933 0.13834 0.0
C1885 C 0.47721 0.55457 0.16343 0.0
C1886 C 0.48749 0.60656 0.17504 0.0
H1887 H 0.58612 0.68413 0.18891 0.0
H1888 H 0.5608 0.6509 0.17835 0.0
H1889 H 0.49685 0.63586 0.18622 0.0
H1890 H 0.44706 0.56019 0.12392 0.0
H1891 H 0.46894 0.58952 0.1422 0.0
H1892 H 0.51706 0.58468 0.17234 0.0
C1893 C 0.55644 0.65817 0.18855 0.0
C1894 C 0.50131 0.62465 0.18361 0.0
C1895 C 0.57097 0.67739 0.19454 0.0
C1896 C 0.45529 0.55827 0.13493 0.0
C1897 C 0.46774 0.57512 0.14555 0.0
C1898 C 0.51227 0.59551 0.17561 0.0
C1899 C 0.53647 0.64874 0.19517 0.0
C1900 C 0.52095 0.62859 0.18793 0.0
C1901 C 0.47895 0.57356 0.15991 0.0
C1902 C 0.49292 0.59191 0.1706 0.0
H1903 H 0.54182 0.68601 0.22411 0.0
H1904 H 0.51626 0.6522 0.21361 0.0
H1905 H 0.54096 0.61596 0.18753 0.0
H1906 H 0.46371 0.52328 0.15582 0.0
H1907 H 0.48547 0.55275 0.17447 0.0
C1908 C 0.14155 0.68899 0.6853 0.0
C1909 C 0.14037 0.69305 0.70361 0.0
C1910 C 0.13752 0.66985 0.6797 0.0
C1911 C 0.11072 0.61587 0.69208 0.0
H1912 H 0.14534 0.61289 0.65527 0.0
C1913 C 0.08932 0.54351 0.64926 0.0
C1914 C 0.10516 0.53986 0.64464 0.0
C1915 C 0.09342 0.5612 0.6586 0.0
C1916 C 0.13559 0.61335 0.66569 0.0
H1917 H 0.13398 0.68001 0.73044 0.0
H1918 H 0.12685 0.64628 0.72057 0.0
H1919 H 0.15351 0.64561 0.66769 0.0
H1920 H 0.13752 0.5514 0.64721 0.0
H1921 H 0.14454 0.58183 0.66353 0.0
H1922 H 0.09275 0.58346 0.68994 0.0
C1923 C 0.13088 0.65807 0.71058 0.0
C1924 C 0.14019 0.63219 0.67269 0.0
C1925 C 0.13511 0.6774 0.71625 0.0
C1926 C 0.12496 0.5538 0.65031 0.0
C1927 C 0.12903 0.57136 0.65962 0.0
C1928 C 0.10602 0.59694 0.68497 0.0
C1929 C 0.13208 0.6541 0.69221 0.0
C1930 C 0.12773 0.63375 0.68584 0.0
C1931 C 0.11343 0.57557 0.66351 0.0
C1932 C 0.11839 0.59547 0.67162 0.0
H1933 H 0.14551 0.70062 0.67516 0.0
H1934 H 0.13833 0.66729 0.66544 0.0
H1935 H 0.10073 0.61657 0.70212 0.0
H1936 H 0.07389 0.53309 0.6451 0.0
H1937 H 0.08104 0.564 0.66131 0.0
C1938 C 0.34507 0.44086 0.71327 0.0
C1939 C 0.32966 0.44522 0.71763 0.0
C1940 C 0.36381 0.45596 0.7067 0.0
C1941 C 0.39716 0.51173 0.70169 0.0
H1942 H 0.41981 0.49614 0.66211 0.0
C1943 C 0.46163 0.56996 0.65576 0.0
C1944 C 0.47637 0.56543 0.64944 0.0
C1945 C 0.44496 0.55578 0.66577 0.0
C1946 C 0.41391 0.50072 0.67333 0.0
H1947 H 0.32216 0.46915 0.71901 0.0
H1948 H 0.35491 0.49559 0.70731 0.0
H1949 H 0.38843 0.47088 0.67629 0.0
H1950 H 0.48536 0.54255 0.64921 0.0
H1951 H 0.45624 0.51775 0.6668 0.0
H1952 H 0.42257 0.5417 0.69845 0.0
C1953 C 0.35253 0.48045 0.70916 0.0
C1954 C 0.39585 0.4862 0.6815 0.0
C1955 C 0.33372 0.46529 0.71584 0.0
C1956 C 0.4743 0.54654 0.65385 0.0
C1957 C 0.45752 0.53227 0.66382 0.0
C1958 C 0.41524 0.52628 0.69349 0.0
C1959 C 0.36769 0.47588 0.70419 0.0
C1960 C 0.38717 0.49148 0.69577 0.0
C1961 C 0.44248 0.53661 0.6697 0.0
C1962 C 0.42382 0.52098 0.67914 0.0
H1963 H 0.34258 0.42562 0.71465 0.0
H1964 H 0.37522 0.45193 0.70345 0.0
H1965 H 0.3911 0.51631 0.71279 0.0
H1966 H 0.46272 0.58437 0.65267 0.0
H1967 H 0.43362 0.55961 0.66989 0.0
C1968 C 0.55828 0.88331 0.71773 0.0
C1969 C 0.55148 0.86254 0.72004 0.0
C1970 C 0.54569 0.88976 0.7099 0.0
C1971 C 0.50121 0.87105 0.67959 0.0
H1972 H 0.5034 0.92147 0.69231 0.0
C1973 C 0.46858 0.90757 0.63251 0.0
C1974 C 0.45799 0.91656 0.64001 0.0
C1975 C 0.47937 0.90129 0.64343 0.0
C1976 C 0.50244 0.90725 0.68869 0.0
H1977 H 0.52566 0.83234 0.71669 0.0
H1978 H 0.50361 0.84355 0.70343 0.0
H1979 H 0.52238 0.90952 0.71011 0.0
H1980 H 0.45081 0.9263 0.66502 0.0
H1981 H 0.46958 0.91512 0.68423 0.0
H1982 H 0.48111 0.86858 0.65836 0.0
C1983 C 0.51886 0.85489 0.70726 0.0
C1984 C 0.51352 0.90049 0.69879 0.0
C1985 C 0.53148 0.84844 0.71501 0.0
C1986 C 0.45883 0.91948 0.65879 0.0
C1987 C 0.46964 0.91311 0.66979 0.0
C1988 C 0.49015 0.87778 0.66955 0.0
C1989 C 0.52593 0.87562 0.70422 0.0
C1990 C 0.51321 0.88237 0.69427 0.0
C1991 C 0.47985 0.90369 0.66225 0.0
C1992 C 0.49081 0.89611 0.67377 0.0
H1993 H 0.5736 0.89463 0.72139 0.0
H1994 H 0.5518 0.90582 0.70765 0.0
H1995 H 0.50072 0.85717 0.67551 0.0
H1996 H 0.46847 0.90523 0.6181 0.0
H1997 H 0.48741 0.89457 0.63706 0.0
C1998 C 0.2181 0.39791 0.20533 0.0
C1999 C 0.20504 0.40561 0.20192 0.0
C2000 C 0.23596 0.40464 0.19536 0.0
C2001 C 0.26401 0.43293 0.1542 0.0
H2002 H 0.31099 0.44471 0.18324 0.0
C2003 C 0.34485 0.45843 0.12478 0.0
C2004 C 0.36148 0.47283 0.13488 0.0
C2005 C 0.32496 0.45031 0.13141 0.0
C2006 C 0.29809 0.44165 0.17491 0.0
H2007 H 0.20012 0.42577 0.18467 0.0
H2008 H 0.23142 0.43766 0.16738 0.0
H2009 H 0.27776 0.42966 0.19727 0.0
H2010 H 0.37007 0.49086 0.1593 0.0
H2011 H 0.33568 0.47704 0.17061 0.0
H2012 H 0.28468 0.44541 0.13187 0.0
C2013 C 0.22776 0.42628 0.1777 0.0
C2014 C 0.27892 0.43273 0.18293 0.0
C2015 C 0.20982 0.41949 0.18767 0.0
C2016 C 0.35768 0.47962 0.15125 0.0
C2017 C 0.33792 0.47158 0.15782 0.0
C2018 C 0.28329 0.44184 0.14612 0.0
C2019 C 0.24133 0.41933 0.18174 0.0
C2020 C 0.26159 0.42828 0.17274 0.0
C2021 C 0.32133 0.45643 0.14825 0.0
C2022 C 0.3006 0.44648 0.15643 0.0
H2023 H 0.21484 0.38706 0.21607 0.0
H2024 H 0.24579 0.39859 0.1986 0.0
H2025 H 0.251 0.4296 0.14592 0.0
H2026 H 0.34724 0.45283 0.11214 0.0
H2027 H 0.31254 0.43864 0.1237 0.0
C2028 C 0.57379 0.901 0.12717 0.0
C2029 C 0.55381 0.89579 0.12262 0.0
C2030 C 0.57821 0.88641 0.13364 0.0
C2031 C 0.55813 0.83093 0.13793 0.0
H2032 H 0.5955 0.8473 0.17821 0.0
C2033 C 0.56614 0.77369 0.18367 0.0
C2034 C 0.58541 0.77894 0.19047 0.0
C2035 C 0.56321 0.78755 0.17361 0.0
C2036 C 0.58529 0.84253 0.16678 0.0
H2037 H 0.52289 0.87088 0.1208 0.0
H2038 H 0.53056 0.84531 0.1323 0.0
H2039 H 0.58828 0.87184 0.1641 0.0
H2040 H 0.6169 0.8028 0.19149 0.0
H2041 H 0.61182 0.82705 0.1738 0.0
H2042 H 0.55493 0.80147 0.14088 0.0
C2043 C 0.54287 0.86074 0.13069 0.0
C2044 C 0.58111 0.85663 0.15867 0.0
C2045 C 0.53844 0.8754 0.12412 0.0
C2046 C 0.60185 0.79825 0.18647 0.0
C2047 C 0.5989 0.8122 0.17645 0.0
C2048 C 0.5623 0.81679 0.14608 0.0
C2049 C 0.56278 0.86615 0.13585 0.0
C2050 C 0.56742 0.85104 0.14416 0.0
C2051 C 0.57947 0.80712 0.17011 0.0
C2052 C 0.57587 0.82238 0.16068 0.0
H2053 H 0.58608 0.91652 0.12603 0.0
H2054 H 0.59378 0.89108 0.13707 0.0
H2055 H 0.54773 0.82614 0.12665 0.0
H2056 H 0.55311 0.75894 0.18645 0.0
H2057 H 0.54801 0.78314 0.16913 0.0
C2058 C 0.24015 0.80777 0.17068 0.0
C2059 C 0.23397 0.81389 0.18619 0.0
C2060 C 0.22668 0.78984 0.16167 0.0
C2061 C 0.17183 0.75168 0.15706 0.0
H2062 H 0.19136 0.7155 0.14259 0.0
C2063 C 0.1175 0.66708 0.1441 0.0
C2064 C 0.1214 0.65737 0.12982 0.0
C2065 C 0.13152 0.68701 0.14881 0.0
C2066 C 0.18572 0.72555 0.14627 0.0
H2067 H 0.20852 0.8061 0.20406 0.0
H2068 H 0.18516 0.77496 0.18847 0.0
H2069 H 0.21515 0.74895 0.15466 0.0
H2070 H 0.14327 0.66117 0.10924 0.0
H2071 H 0.16798 0.69621 0.11755 0.0
H2072 H 0.14237 0.72819 0.14901 0.0
C2073 C 0.20036 0.78406 0.18313 0.0
C2074 C 0.19936 0.74475 0.15321 0.0
C2075 C 0.21382 0.80192 0.19215 0.0
C2076 C 0.13979 0.66819 0.12031 0.0
C2077 C 0.15397 0.68823 0.12512 0.0
C2078 C 0.15823 0.73252 0.15015 0.0
C2079 C 0.20666 0.77763 0.16789 0.0
C2080 C 0.19253 0.75792 0.15901 0.0
C2081 C 0.14995 0.69789 0.13942 0.0
C2082 C 0.1649 0.71903 0.145 0.0
H2083 H 0.25555 0.81659 0.16569 0.0
H2084 H 0.23199 0.7855 0.14987 0.0
H2085 H 0.16608 0.76156 0.16101 0.0
H2086 H 0.10354 0.65927 0.15178 0.0
H2087 H 0.12804 0.69377 0.1601 0.0
C2088 C 0.34568 0.2597 0.08034 0.0
C2089 C 0.32942 0.25212 0.06809 0.0
C2090 C 0.35566 0.28012 0.08544 0.0
C2091 C 0.34563 0.3226 0.08877 0.0
H2092 H 0.40298 0.35448 0.09989 0.0
C2093 C 0.37733 0.39867 0.12545 0.0
C2094 C 0.39522 0.41497 0.11843 0.0
C2095 C 0.37097 0.3788 0.12008 0.0
C2096 C 0.38695 0.3458 0.09677 0.0
H2097 H 0.31183 0.26042 0.05067 0.0
H2098 H 0.32945 0.29602 0.05926 0.0
H2099 H 0.38935 0.32053 0.08714 0.0
H2100 H 0.42105 0.42299 0.10096 0.0
H2101 H 0.40986 0.38832 0.09148 0.0
H2102 H 0.34319 0.34784 0.09805 0.0
C2103 C 0.33418 0.28609 0.0653 0.0
C2104 C 0.37911 0.32629 0.08959 0.0
C2105 C 0.32418 0.26569 0.06024 0.0
C2106 C 0.40719 0.4108 0.10666 0.0
C2107 C 0.40079 0.39089 0.10124 0.0
C2108 C 0.35344 0.34202 0.09595 0.0
C2109 C 0.34962 0.29343 0.07837 0.0
C2110 C 0.35834 0.31445 0.08548 0.0
C2111 C 0.3823 0.37471 0.10749 0.0
C2112 C 0.37417 0.35387 0.10011 0.0
H2113 H 0.3501 0.24967 0.0867 0.0
H2114 H 0.3674 0.2852 0.0956 0.0
H2115 H 0.32951 0.31384 0.08606 0.0
H2116 H 0.36782 0.40129 0.13466 0.0
H2117 H 0.3569 0.36665 0.1255 0.0
C2118 C 0.59854 0.98914 0.10986 0.0
C2119 C 0.58546 0.98404 0.09498 0.0
C2120 C 0.6195 1.00201 0.10771 0.0
C2121 C 0.65883 0.01844 0.07232 0.0
H2122 H 0.69376 0.05645 0.10855 0.0
C2123 C 0.7461 0.0646 0.0632 0.0
C2124 C 0.75733 0.06492 0.07835 0.0
C2125 C 0.72525 0.05765 0.06473 0.0
C2126 C 0.68421 0.04584 0.09832 0.0
H2127 H 0.58398 0.98953 0.06646 0.0
H2128 H 0.62028 0.01213 0.06283 0.0
H2129 H 0.65699 0.039 0.11258 0.0
H2130 H 0.75561 0.05894 0.10711 0.0
H2131 H 0.71957 0.04682 0.10971 0.0
H2132 H 0.68598 0.02489 0.05825 0.0
C2133 C 0.61451 0.00582 0.07605 0.0
C2134 C 0.66313 0.03581 0.10065 0.0
C2135 C 0.59365 0.99295 0.07818 0.0
C2136 C 0.74743 0.05883 0.09512 0.0
C2137 C 0.72673 0.05202 0.09666 0.0
C2138 C 0.67988 0.02844 0.06999 0.0
C2139 C 0.62778 0.01008 0.09065 0.0
C2140 C 0.65018 0.0218 0.08778 0.0
C2141 C 0.71528 0.05105 0.08147 0.0
C2142 C 0.69286 0.04205 0.08308 0.0
H2143 H 0.59271 0.98245 0.12296 0.0
H2144 H 0.62929 1.00487 0.11924 0.0
H2145 H 0.64936 0.0075 0.06225 0.0
H2146 H 0.75329 0.06921 0.0501 0.0
H2147 H 0.7169 0.05729 0.05278 0.0
C2148 C 0.9512 0.68535 0.06902 0.0
C2149 C 0.94663 0.69374 0.08391 0.0
C2150 C 0.95902 0.67228 0.07158 0.0
C2151 C 0.9871 0.66044 0.10568 0.0
H2152 H 0.97539 0.61544 0.07406 0.0
C2153 C 0.02654 0.61281 0.11491 0.0
C2154 C 0.03459 0.60972 0.09897 0.0
C2155 C 0.01277 0.61999 0.11417 0.0
C2156 C 0.97885 0.62799 0.083 0.0
H2157 H 0.94548 0.69403 0.11314 0.0
H2158 H 0.95863 0.67109 0.11754 0.0
H2159 H 0.95698 0.63386 0.07031 0.0
H2160 H 0.03368 0.61069 0.06976 0.0
H2161 H 0.00993 0.62312 0.06849 0.0
H2162 H 0.00924 0.65489 0.11813 0.0
C2163 C 0.95676 0.67496 0.1039 0.0
C2164 C 0.96834 0.63858 0.0808 0.0
C2165 C 0.9491 0.68804 0.10135 0.0
C2166 C 0.02787 0.61301 0.08232 0.0
C2167 C 0.01408 0.62001 0.08157 0.0
C2168 C 0.99758 0.64985 0.10788 0.0
C2169 C 0.96231 0.66729 0.08908 0.0
C2170 C 0.97251 0.65512 0.09197 0.0
C2171 C 1.00665 0.624 0.09746 0.0
C2172 C 0.99382 0.63369 0.0964 0.0
H2173 H 0.94954 0.6895 0.05542 0.0
H2174 H 0.96325 0.66678 0.05984 0.0
H2175 H 0.99099 0.67329 0.11436 0.0
H2176 H 0.03143 0.61042 0.12794 0.0
H2177 H 1.00716 0.62272 0.12666 0.0
C2178 C 0.26616 0.31903 0.44432 0.0
C2179 C 0.25311 0.31302 0.42936 0.0
C2180 C 0.28705 0.33242 0.44211 0.0
C2181 C 0.32654 0.34932 0.40665 0.0
H2182 H 0.36059 0.38939 0.44195 0.0
C2183 C 0.41314 0.39972 0.39585 0.0
C2184 C 0.42513 0.40133 0.41084 0.0
C2185 C 0.39212 0.39159 0.39778 0.0
C2186 C 0.35129 0.37821 0.43198 0.0
H2187 H 0.2515 0.3174 0.40064 0.0
H2188 H 0.28754 0.34091 0.39691 0.0
H2189 H 0.32386 0.37028 0.44641 0.0
H2190 H 0.42455 0.39643 0.43972 0.0
H2191 H 0.38822 0.38227 0.44301 0.0
H2192 H 0.35389 0.35693 0.39239 0.0
C2193 C 0.2819 0.33491 0.41024 0.0
C2194 C 0.33023 0.36722 0.43457 0.0
C2195 C 0.26118 0.3215 0.41241 0.0
C2196 C 0.41579 0.39535 0.42785 0.0
C2197 C 0.39491 0.38735 0.42979 0.0
C2198 C 0.34754 0.3603 0.40406 0.0
C2199 C 0.29523 0.34011 0.42493 0.0
C2200 C 0.31759 0.35252 0.422 0.0
C2201 C 0.38272 0.38505 0.41476 0.0
C2202 C 0.36023 0.37473 0.41678 0.0
H2203 H 0.2604 0.3127 0.45754 0.0
H2204 H 0.29687 0.33603 0.45373 0.0
H2205 H 0.31736 0.33786 0.39684 0.0
H2206 H 0.41988 0.40422 0.38257 0.0
H2207 H 0.3832 0.39023 0.38595 0.0
C2208 C 0.62856 0.03627 0.43303 0.0
C2209 C 0.61671 0.03428 0.41779 0.0
C2210 C 0.6356 0.02279 0.43613 0.0
C2211 C 0.6275 0.97211 0.42501 0.0
H2212 H 0.68342 0.99551 0.44058 0.0
C2213 C 0.67055 0.92715 0.4277 0.0
C2214 C 0.6855 0.93222 0.44101 0.0
C2215 C 0.66032 0.93805 0.42603 0.0
C2216 C 0.66767 0.98863 0.43656 0.0
H2217 H 0.60264 0.01617 0.394 0.0
H2218 H 0.61509 0.99244 0.39942 0.0
H2219 H 0.66944 0.01747 0.43459 0.0
H2220 H 0.70038 0.95192 0.4638 0.0
H2221 H 0.68221 0.97064 0.46116 0.0
H2222 H 0.6258 0.94321 0.42697 0.0
C2223 C 0.6188 1.00451 0.409 0.0
C2224 C 0.65966 1.00127 0.43303 0.0
C2225 C 0.61175 0.01814 0.40585 0.0
C2226 C 0.68906 0.94767 0.45332 0.0
C2227 C 0.67877 0.95854 0.45169 0.0
C2228 C 0.63551 0.95941 0.42861 0.0
C2229 C 0.63102 0.00686 0.42409 0.0
C2230 C 0.63947 0.99319 0.42728 0.0
C2231 C 0.6647 0.95428 0.43768 0.0
C2232 C 0.65571 0.96751 0.43448 0.0
H2233 H 0.63258 0.0484 0.44263 0.0
H2234 H 0.64463 0.02483 0.44805 0.0
H2235 H 0.61183 0.96539 0.42078 0.0
H2236 H 0.66736 0.91532 0.41799 0.0
H2237 H 0.6497 0.93437 0.41503 0.0
C2238 C 0.064 0.74224 0.44781 0.0
C2239 C 0.08292 0.75585 0.44014 0.0
C2240 C 0.05367 0.72184 0.44271 0.0
C2241 C 0.05891 0.68178 0.41848 0.0
H2242 H 1.00142 0.65977 0.40989 0.0
C2243 C 1.00343 0.59729 0.40018 0.0
C2244 C 0.9873 0.59314 0.38844 0.0
C2245 C 0.01666 0.61714 0.40597 0.0
C2246 C 0.01749 0.66571 0.41203 0.0
H2247 H 0.10628 0.75833 0.42178 0.0
H2248 H 0.08819 0.72284 0.41278 0.0
H2249 H 0.02141 0.69372 0.42205 0.0
H2250 H 0.97328 0.60682 0.37265 0.0
H2251 H 0.99654 0.64135 0.38238 0.0
H2252 H 0.05494 0.65378 0.408 0.0
C2253 C 0.08138 0.72788 0.42285 0.0
C2254 C 0.02893 0.68511 0.41931 0.0
C2255 C 0.09175 0.74829 0.428 0.0
C2256 C 0.98542 0.60943 0.38182 0.0
C2257 C 0.99867 0.62924 0.38754 0.0
C2258 C 0.04742 0.66229 0.41118 0.0
C2259 C 0.06195 0.71451 0.42976 0.0
C2260 C 0.04979 0.69345 0.42263 0.0
C2261 C 0.01409 0.63329 0.4001 0.0
C2262 C 0.02657 0.65405 0.40776 0.0
H2263 H 0.05679 0.74749 0.45729 0.0
H2264 H 0.03895 0.71189 0.44863 0.0
H2265 H 0.07491 0.68765 0.42096 0.0
H2266 H 1.00528 0.5851 0.40561 0.0
H2267 H 0.0283 0.61966 0.4157 0.0
C2268 C 0.60905 0.59423 0.92585 0.0
C2269 C 0.60827 0.58525 0.9091 0.0
C2270 C 0.61828 0.61524 0.92751 0.0
C2271 C 0.6577 0.6615 0.90543 0.0
H2272 H 0.64302 0.68786 0.94241 0.0
C2273 C 0.71632 0.73864 0.93348 0.0
C2274 C 0.71056 0.75315 0.93721 0.0
C2275 C 0.70182 0.71875 0.92926 0.0
C2276 C 0.64722 0.68083 0.93186 0.0
H2277 H 0.61545 0.59129 0.88069 0.0
H2278 H 0.63129 0.62811 0.88349 0.0
H2279 H 0.61986 0.65234 0.93517 0.0
H2280 H 0.68494 0.758 0.93992 0.0
H2281 H 0.6594 0.72304 0.93236 0.0
H2282 H 0.68494 0.68994 0.902 0.0
C2283 C 0.62511 0.61885 0.89545 0.0
C2284 C 0.63403 0.66038 0.92782 0.0
C2285 C 0.61589 0.59773 0.8938 0.0
C2286 C 0.68982 0.74712 0.9372 0.0
C2287 C 0.67522 0.72711 0.93284 0.0
C2288 C 0.6708 0.68192 0.9094 0.0
C2289 C 0.62692 0.6279 0.91244 0.0
C2290 C 0.63935 0.6503 0.91488 0.0
C2291 C 0.68112 0.71279 0.92847 0.0
C2292 C 0.66602 0.6917 0.92302 0.0
H2293 H 0.60325 0.58508 0.93792 0.0
H2294 H 0.61954 0.62155 0.94083 0.0
H2295 H 0.66245 0.65431 0.89549 0.0
H2296 H 0.73215 0.74272 0.93358 0.0
H2297 H 0.7069 0.70803 0.92652 0.0
C2298 C 0.26528 0.92101 0.92143 0.0
C2299 C 0.25798 0.92911 0.93456 0.0
C2300 C 0.28609 0.92987 0.91805 0.0
C2301 C 0.33329 0.979 0.92194 0.0
H2302 H 0.35938 0.94797 0.90966 0.0
C2303 C 0.41379 0.01749 0.89164 0.0
C2304 C 0.42733 0.01185 0.89891 0.0
C2305 C 0.39303 0.00624 0.89552 0.0
C2306 C 0.35235 0.95686 0.91314 0.0
H2307 H 0.26702 0.95238 0.95501 0.0
H2308 H 0.30335 0.9677 0.94924 0.0
H2309 H 0.3238 0.93037 0.91899 0.0
H2310 H 0.42942 0.98937 0.91533 0.0
H2311 H 0.39325 0.96979 0.92207 0.0
H2312 H 0.36182 0.00548 0.91631 0.0
C2313 C 0.29292 0.95466 0.94136 0.0
C2314 C 0.33191 0.94677 0.91836 0.0
C2315 C 0.27208 0.94576 0.94478 0.0
C2316 C 0.41945 0.99416 0.90947 0.0
C2317 C 0.39867 0.98288 0.91332 0.0
C2318 C 0.35367 0.98907 0.91667 0.0
C2319 C 0.30015 0.94709 0.92769 0.0
C2320 C 0.32211 0.95772 0.92281 0.0
C2321 C 0.38526 0.98904 0.90672 0.0
C2322 C 0.36346 0.97815 0.91214 0.0
H2323 H 0.25487 0.9082 0.9133 0.0
H2324 H 0.29109 0.92371 0.90735 0.0
H2325 H 0.32619 0.98793 0.92504 0.0
H2326 H 0.41929 0.03098 0.88341 0.0
H2327 H 0.38308 0.0112 0.88992 0.0
C2328 C 0.06793 0.32463 0.93665 0.0
C2329 C 0.05597 0.30391 0.93247 0.0
C2330 C 0.0623 0.3386 0.93047 0.0
C2331 C 0.03356 0.34536 0.89412 0.0
H2332 H 0.02449 0.37991 0.92656 0.0
C2333 C 0.97871 0.37388 0.87708 0.0
C2334 C 0.98209 0.39255 0.88381 0.0
C2335 C 0.99175 0.3666 0.88152 0.0
C2336 C 0.02736 0.37073 0.9172 0.0
H2337 H 0.02856 0.28169 0.91877 0.0
H2338 H 0.01913 0.30586 0.90797 0.0
H2339 H 0.04013 0.36075 0.93792 0.0
H2340 H 1.00259 0.41875 0.89973 0.0
H2341 H 0.02559 0.40614 0.90727 0.0
H2342 H 0.02059 0.35492 0.87346 0.0
C2343 C 0.03283 0.31137 0.91592 0.0
C2344 C 0.03629 0.35973 0.92376 0.0
C2345 C 0.03822 0.29749 0.92226 0.0
C2346 C 0.9995 0.40428 0.89433 0.0
C2347 C 0.01259 0.39697 0.89879 0.0
C2348 C 0.02484 0.35645 0.88754 0.0
C2349 C 0.04487 0.33207 0.91975 0.0
C2350 C 0.03883 0.34642 0.9124 0.0
C2351 C 0.00862 0.37781 0.89278 0.0
C2352 C 0.02096 0.36874 0.89912 0.0
H2353 H 0.08168 0.33006 0.94448 0.0
H2354 H 0.07179 0.35451 0.93367 0.0
H2355 H 0.03564 0.33544 0.885 0.0
H2356 H 0.96546 0.36443 0.86896 0.0
H2357 H 0.988 0.35168 0.87679 0.0
C2358 C 0.75064 0.68589 0.5681 0.0
C2359 C 0.75684 0.69861 0.55284 0.0
C2360 C 0.73007 0.67453 0.57277 0.0
C2361 C 0.68276 0.67599 0.5664 0.0
H2362 H 0.65624 0.62199 0.58711 0.0
C2363 C 0.59689 0.63133 0.57574 0.0
C2364 C 0.58897 0.62118 0.59217 0.0
C2365 C 0.61732 0.63932 0.5715 0.0
C2366 C 0.66353 0.63716 0.58153 0.0
H2367 H 0.74613 0.70821 0.52985 0.0
H2368 H 0.71036 0.68813 0.53773 0.0
H2369 H 0.6919 0.63791 0.57778 0.0
H2370 H 0.59632 0.61095 0.61682 0.0
H2371 H 0.63242 0.62513 0.60935 0.0
H2372 H 0.6546 0.67536 0.57005 0.0
C2373 C 0.72141 0.68734 0.54639 0.0
C2374 C 0.68393 0.64626 0.57615 0.0
C2375 C 0.74193 0.69874 0.54178 0.0
C2376 C 0.60197 0.61874 0.60408 0.0
C2377 C 0.62259 0.62678 0.59978 0.0
C2378 C 0.66249 0.66693 0.57172 0.0
C2379 C 0.71526 0.67561 0.56225 0.0
C2380 C 0.69369 0.66571 0.56829 0.0
C2381 C 0.63053 0.63747 0.58354 0.0
C2382 C 0.65252 0.64731 0.57911 0.0
H2383 H 0.76174 0.68545 0.57695 0.0
H2384 H 0.7259 0.6657 0.58508 0.0
H2385 H 0.68992 0.69121 0.56092 0.0
H2386 H 0.58734 0.63333 0.5661 0.0
H2387 H 0.62282 0.64707 0.55872 0.0
C2388 C 0.35276 0.08766 0.57001 0.0
C2389 C 0.33243 0.07591 0.56448 0.0
C2390 C 0.36399 0.07838 0.57494 0.0
C2391 C 0.35698 0.03268 0.59587 0.0
H2392 H 0.40869 0.04445 0.57556 0.0
C2393 C 0.39186 0.98254 0.61176 0.0
C2394 C 0.41301 0.99084 0.61123 0.0
C2395 C 0.38306 0.99416 0.60691 0.0
C2396 C 0.39448 0.04123 0.5817 0.0
H2397 H 0.30822 0.04521 0.55919 0.0
H2398 H 0.32769 0.02911 0.5682 0.0
H2399 H 0.39189 0.06257 0.5645 0.0
H2400 H 0.44158 0.01821 0.60595 0.0
H2401 H 0.42634 0.03886 0.59835 0.0
H2402 H 0.35961 0.01197 0.61352 0.0
C2403 C 0.33492 0.04549 0.56858 0.0
C2404 C 0.38481 0.05154 0.57521 0.0
C2405 C 0.32385 0.05475 0.56331 0.0
C2406 C 0.42522 0.01133 0.60646 0.0
C2407 C 0.41643 0.02311 0.60189 0.0
C2408 C 0.3668 0.02271 0.60263 0.0
C2409 C 0.35495 0.05717 0.57476 0.0
C2410 C 0.36581 0.04708 0.58203 0.0
C2411 C 0.39517 0.01458 0.60168 0.0
C2412 C 0.38554 0.02652 0.59544 0.0
H2413 H 0.3598 0.10398 0.57106 0.0
H2414 H 0.37942 0.0877 0.57966 0.0
H2415 H 0.34248 0.02923 0.60157 0.0
H2416 H 0.38194 0.96674 0.61516 0.0
H2417 H 0.36667 0.98679 0.60662 0.0
C2418 C 0.05002 0.4061 0.59937 0.0
C2419 C 0.04445 0.42091 0.60223 0.0
C2420 C 0.03548 0.38626 0.59506 0.0
C2421 C 0.98058 0.34902 0.59572 0.0
H2422 H 0.99713 0.32177 0.56125 0.0
C2423 C 0.94164 0.26231 0.59054 0.0
C2424 C 0.94176 0.25311 0.57415 0.0
C2425 C 0.95095 0.28335 0.59194 0.0
C2426 C 0.99201 0.32916 0.57063 0.0
H2427 H 0.0191 0.42633 0.60334 0.0
H2428 H 0.99349 0.39144 0.5956 0.0
H2429 H 0.01966 0.35734 0.56786 0.0
H2430 H 0.95062 0.25881 0.54604 0.0
H2431 H 0.9666 0.29568 0.54837 0.0
H2432 H 0.9528 0.32079 0.59835 0.0
C2433 C 0.00918 0.39525 0.59684 0.0
C2434 C 1.00513 0.34955 0.57467 0.0
C2435 C 0.02382 0.41522 0.6013 0.0
C2436 C 0.95035 0.26542 0.55888 0.0
C2437 C 0.95965 0.28657 0.56027 0.0
C2438 C 0.96736 0.3286 0.59159 0.0
C2439 C 0.01493 0.38063 0.5933 0.0
C2440 C 0.99986 0.35959 0.58766 0.0
C2441 C 0.96059 0.29583 0.57697 0.0
C2442 C 0.97313 0.31824 0.57935 0.0
H2443 H 0.06575 0.40992 0.6002 0.0
H2444 H 0.04042 0.37531 0.593 0.0
H2445 H 0.97599 0.35626 0.60575 0.0
H2446 H 0.93507 0.25331 0.60258 0.0
H2447 H 0.95151 0.28981 0.60507 0.0
C2448 C 0.92815 0.67908 0.76795 0.0
C2449 C 0.91997 0.65913 0.77434 0.0
C2450 C 0.94895 0.69096 0.76431 0.0
C2451 C 0.99875 0.69216 0.76999 0.0
H2452 H 0.01457 0.72843 0.72886 0.0
C2453 C 0.07495 0.72186 0.73254 0.0
C2454 C 0.08739 0.74308 0.73257 0.0
C2455 C 0.05455 0.71283 0.73759 0.0
C2456 C 0.01033 0.71843 0.74042 0.0
H2457 H 0.92735 0.63616 0.78226 0.0
H2458 H 0.96316 0.65632 0.77528 0.0
H2459 H 0.97921 0.71061 0.73873 0.0
H2460 H 0.08785 0.77143 0.73706 0.0
H2461 H 0.0518 0.7555 0.74519 0.0
H2462 H 0.02981 0.6993 0.77092 0.0
C2463 C 0.95384 0.66325 0.77357 0.0
C2464 C 0.99009 0.7083 0.74624 0.0
C2465 C 0.93315 0.65155 0.77754 0.0
C2466 C 0.07866 0.75506 0.73689 0.0
C2467 C 0.05808 0.74598 0.74155 0.0
C2468 C 0.01884 0.70193 0.76391 0.0
C2469 C 0.96206 0.68304 0.76661 0.0
C2470 C 0.98392 0.69487 0.76105 0.0
C2471 C 0.046 0.72478 0.74238 0.0
C2472 C 0.02479 0.71504 0.74902 0.0
H2473 H 0.9184 0.6854 0.76542 0.0
H2474 H 0.95465 0.70626 0.75944 0.0
H2475 H 0.9949 0.68245 0.78171 0.0
H2476 H 0.08118 0.71217 0.72941 0.0
H2477 H 0.04548 0.69644 0.73803 0.0
C2478 C 0.28305 0.35015 0.73256 0.0
C2479 C 0.27707 0.3572 0.74754 0.0
C2480 C 0.29076 0.33698 0.73494 0.0
C2481 C 0.31619 0.32275 0.76971 0.0
H2482 H 0.30732 0.28017 0.73612 0.0
C2483 C 0.35467 0.2744 0.77956 0.0
C2484 C 0.36384 0.27205 0.764 0.0
C2485 C 0.34117 0.28185 0.77825 0.0
C2486 C 0.31 0.29206 0.7456 0.0
H2487 H 0.2733 0.35498 0.7766 0.0
H2488 H 0.28631 0.33189 0.78066 0.0
H2489 H 0.28909 0.29874 0.73212 0.0
H2490 H 0.36529 0.27476 0.73484 0.0
H2491 H 0.34204 0.28777 0.73261 0.0
H2492 H 0.33738 0.31643 0.78297 0.0
C2493 C 0.2856 0.33687 0.76714 0.0
C2494 C 0.29958 0.30272 0.74328 0.0
C2495 C 0.27802 0.35005 0.76478 0.0
C2496 C 0.35858 0.27647 0.74712 0.0
C2497 C 0.34508 0.2838 0.74581 0.0
C2498 C 0.32658 0.3121 0.77203 0.0
C2499 C 0.29256 0.33057 0.75232 0.0
C2500 C 0.30271 0.31836 0.7552 0.0
C2501 C 0.33648 0.28695 0.76136 0.0
C2502 C 0.32383 0.2968 0.75988 0.0
H2503 H 0.28256 0.35544 0.71911 0.0
H2504 H 0.2961 0.33253 0.72323 0.0
H2505 H 0.31926 0.33492 0.77899 0.0
H2506 H 0.3584 0.2711 0.79276 0.0
H2507 H 0.33463 0.28389 0.79049 0.0
C2508 C 0.64976 0.94381 0.71908 0.0
C2509 C 0.65156 0.92754 0.72586 0.0
C2510 C 0.66316 0.96366 0.72458 0.0
C2511 C 0.71241 0.99681 0.74718 0.0
H2512 H 0.68713 0.02887 0.75832 0.0
C2513 C 0.75759 0.08336 0.76039 0.0
C2514 C 0.74963 0.09166 0.77267 0.0
C2515 C 0.74692 0.06269 0.75626 0.0
C2516 C 0.69443 0.02008 0.7555 0.0
H2517 H 0.66957 0.91956 0.74307 0.0
H2518 H 0.69291 0.95422 0.75271 0.0
H2519 H 0.6665 0.99456 0.74702 0.0
H2520 H 0.72476 0.0844 0.79112 0.0
H2521 H 0.70632 0.04829 0.78413 0.0
H2522 H 0.74035 0.02237 0.7559 0.0
C2523 C 0.68117 0.95162 0.74307 0.0
C2524 C 0.68264 1.00048 0.74873 0.0
C2525 C 0.66777 0.93173 0.73753 0.0
C2526 C 0.73132 0.07856 0.78153 0.0
C2527 C 0.72064 0.05787 0.7774 0.0
C2528 C 0.72426 0.01649 0.75394 0.0
C2529 C 0.67868 0.96777 0.73703 0.0
C2530 C 0.69147 0.98862 0.74434 0.0
C2531 C 0.72802 0.04978 0.76432 0.0
C2532 C 0.71542 0.02841 0.75812 0.0
H2533 H 0.63756 0.94117 0.70997 0.0
H2534 H 0.66109 0.97578 0.71933 0.0
H2535 H 0.71972 0.98813 0.7439 0.0
H2536 H 0.77167 0.09298 0.75332 0.0
H2537 H 0.75303 0.05705 0.74606 0.0
C2538 C 0.30627 0.93335 0.25462 0.0
C2539 C 0.29144 0.92186 0.24169 0.0
C2540 C 0.31144 0.9533 0.25824 0.0
C2541 C 0.31433 0.99771 0.2375 0.0
H2542 H 0.32672 0.01865 0.28633 0.0
C2543 C 0.3763 0.07836 0.25385 0.0
C2544 C 0.37337 0.08944 0.2675 0.0
C2545 C 0.36179 0.05824 0.25054 0.0
C2546 C 0.32299 0.01305 0.27265 0.0
H2547 H 0.27021 0.92233 0.22251 0.0
H2548 H 0.27971 0.95774 0.22856 0.0
H2549 H 0.3088 0.98207 0.28125 0.0
H2550 H 0.35269 0.0881 0.28826 0.0
H2551 H 0.32727 0.05237 0.28272 0.0
H2552 H 0.32933 0.02871 0.22887 0.0
C2553 C 0.28715 0.95104 0.23597 0.0
C2554 C 0.31288 0.99211 0.26972 0.0
C2555 C 0.28173 0.93081 0.23251 0.0
C2556 C 0.35537 0.07993 0.27768 0.0
C2557 C 0.34087 0.05953 0.27452 0.0
C2558 C 0.32458 0.01865 0.24042 0.0
C2559 C 0.30207 0.96246 0.24892 0.0
C2560 C 0.30908 0.98424 0.25209 0.0
C2561 C 0.34397 0.0485 0.26088 0.0
C2562 C 0.32964 0.02655 0.258 0.0
H2563 H 0.314 0.92694 0.26205 0.0
H2564 H 0.32323 0.96176 0.26805 0.0
H2565 H 0.31167 0.99213 0.22377 0.0
H2566 H 0.38991 0.08521 0.24565 0.0
H2567 H 0.36482 0.0501 0.24016 0.0
C2568 C 0.94077 0.30645 0.29587 0.0
C2569 C 0.92643 0.28643 0.29117 0.0
C2570 C 0.96073 0.3153 0.28964 0.0
C2571 C 1.00082 0.30741 0.27165 0.0
H2572 H 0.01702 0.35781 0.24633 0.0
C2573 C 0.08067 0.35545 0.23816 0.0
C2574 C 0.08984 0.37648 0.24094 0.0
C2575 C 0.06019 0.34256 0.24276 0.0
C2576 C 0.01288 0.34387 0.25348 0.0
H2577 H 0.92231 0.25952 0.27737 0.0
H2578 H 0.95752 0.27502 0.2668 0.0
H2579 H 0.98308 0.33876 0.25902 0.0
H2580 H 0.08454 0.40039 0.25049 0.0
H2581 H 0.04953 0.37822 0.25868 0.0
H2582 H 0.03099 0.31298 0.26669 0.0
C2583 C 0.95309 0.28383 0.27513 0.0
C2584 C 0.99339 0.33294 0.26071 0.0
C2585 C 0.93295 0.27499 0.28119 0.0
C2586 C 0.07804 0.3843 0.24807 0.0
C2587 C 0.05778 0.37153 0.25267 0.0
C2588 C 0.02055 0.31855 0.26459 0.0
C2589 C 0.96693 0.30429 0.27877 0.0
C2590 C 0.98728 0.31483 0.27018 0.0
C2591 C 0.04853 0.35048 0.25015 0.0
C2592 C 0.02696 0.33718 0.25577 0.0
H2593 H 0.93638 0.3157 0.3036 0.0
H2594 H 0.9712 0.33102 0.29286 0.0
H2595 H 0.99641 0.29342 0.27883 0.0
H2596 H 0.08937 0.34894 0.23275 0.0
H2597 H 0.05351 0.32642 0.24052 0.0
C2598 C 0.73864 0.66029 0.27618 0.0
C2599 C 0.73227 0.6476 0.29145 0.0
C2600 C 0.72948 0.67171 0.27168 0.0
C2601 C 0.68111 0.67103 0.27876 0.0
H2602 H 0.70901 0.72446 0.25689 0.0
C2603 C 0.64065 0.71627 0.26762 0.0
C2604 C 0.64297 0.72588 0.25088 0.0
C2605 C 0.65293 0.70825 0.27235 0.0
C2606 C 0.70101 0.70946 0.26282 0.0
H2607 H 0.71217 0.63803 0.3146 0.0
H2608 H 0.69655 0.65828 0.30704 0.0
H2609 H 0.72841 0.70833 0.26651 0.0
H2610 H 0.66058 0.73516 0.22619 0.0
H2611 H 0.68223 0.72095 0.23452 0.0
H2612 H 0.65378 0.67207 0.27514 0.0
C2613 C 0.70826 0.659 0.29823 0.0
C2614 C 0.71211 0.70022 0.26836 0.0
C2615 C 0.71734 0.64751 0.30268 0.0
C2616 C 0.65838 0.72781 0.23916 0.0
C2617 C 0.6708 0.71974 0.24396 0.0
C2618 C 0.67009 0.68025 0.27329 0.0
C2619 C 0.71377 0.67078 0.28239 0.0
C2620 C 0.70229 0.68094 0.27655 0.0
C2621 C 0.66793 0.70955 0.2605 0.0
C2622 C 0.67989 0.69963 0.26541 0.0
H2623 H 0.75008 0.66072 0.26719 0.0
H2624 H 0.73406 0.68052 0.25935 0.0
H2625 H 0.67293 0.65596 0.28451 0.0
H2626 H 0.62911 0.71468 0.27711 0.0
H2627 H 0.65059 0.70089 0.28535 0.0
loop_
_geom_bond_atom_site_label_1
_geom_bond_atom_site_label_2
_geom_bond_distance
_geom_bond_site_symmetry_2
_ccdc_geom_bond_type
Mg0 O7 2.141 . S
Mg0 O8 2.048 . S
Mg0 O9 2.048 . S
Mg0 O12 2.141 . S
C1 O2 1.313 . S
C1 O8 1.195 . S
O2 C1 1.313 . S
C3 O4 1.245 . S
C3 O12 1.289 . S
O4 C3 1.245 . S
C5 O6 1.245 . S
C5 O7 1.289 . S
O6 C5 1.245 . S
O7 Mg0 2.141 . S
O7 C5 1.289 . S
O8 Mg0 2.048 . S
O8 C1 1.195 . S
O9 Mg0 2.048 . S
O9 C10 1.195 . S
C10 O9 1.195 . S
C10 O11 1.313 . S
O11 C10 1.313 . S
O12 Mg0 2.141 . S
O12 C3 1.289 . S
Mg13 O20 2.141 . S
Mg13 O21 2.048 . S
Mg13 O22 2.048 . S
Mg13 O25 2.141 . S
C14 O15 1.313 . S
C14 O21 1.195 . S
O15 C14 1.313 . S
C16 O17 1.245 . S
C16 O25 1.289 . S
O17 C16 1.245 . S
C18 O19 1.245 . S
C18 O20 1.289 . S
O19 C18 1.245 . S
O20 Mg13 2.141 . S
O20 C18 1.289 . S
O21 Mg13 2.048 . S
O21 C14 1.195 . S
O22 Mg13 2.048 . S
O22 C23 1.195 . S
C23 O22 1.195 . S
C23 O24 1.313 . S
O24 C23 1.313 . S
O25 Mg13 2.141 . S
O25 C16 1.289 . S
Mg26 O33 2.141 . S
Mg26 O34 2.048 . S
Mg26 O35 2.048 . S
Mg26 O38 2.141 . S
C27 O28 1.313 . S
C27 O34 1.195 . S
O28 C27 1.313 . S
C29 O30 1.245 . S
C29 O38 1.289 . S
O30 C29 1.245 . S
C31 O32 1.245 . S
C31 O33 1.289 . S
O32 C31 1.245 . S
O33 Mg26 2.141 . S
O33 C31 1.289 . S
O34 Mg26 2.048 . S
O34 C27 1.195 . S
O35 Mg26 2.048 . S
O35 C36 1.195 . S
C36 O35 1.195 . S
C36 O37 1.313 . S
O37 C36 1.313 . S
O38 Mg26 2.141 . S
O38 C29 1.289 . S
Mg39 O46 2.141 . S
Mg39 O47 2.048 . S
Mg39 O48 2.048 . S
Mg39 O51 2.141 . S
C40 O41 1.313 . S
C40 O47 1.195 . S
O41 C40 1.313 . S
C42 O43 1.245 . S
C42 O51 1.289 . S
O43 C42 1.245 . S
C44 O45 1.245 . S
C44 O46 1.289 . S
O45 C44 1.245 . S
O46 Mg39 2.141 . S
O46 C44 1.289 . S
O47 Mg39 2.048 . S
O47 C40 1.195 . S
O48 Mg39 2.048 . S
O48 C49 1.195 . S
C49 O48 1.195 . S
C49 O50 1.313 . S
O50 C49 1.313 . S
O51 Mg39 2.141 . S
O51 C42 1.289 . S
Mg52 O59 2.141 . S
Mg52 O60 2.048 . S
Mg52 O61 2.048 . S
Mg52 O64 2.141 . S
C53 O54 1.313 . S
C53 O60 1.195 . S
O54 C53 1.313 . S
C55 O56 1.245 . S
C55 O64 1.289 . S
O56 C55 1.245 . S
C57 O58 1.245 . S
C57 O59 1.289 . S
O58 C57 1.245 . S
O59 Mg52 2.141 . S
O59 C57 1.289 . S
O60 Mg52 2.048 . S
O60 C53 1.195 . S
O61 Mg52 2.048 . S
O61 C62 1.195 . S
C62 O61 1.195 . S
C62 O63 1.313 . S
O63 C62 1.313 . S
O64 Mg52 2.141 . S
O64 C55 1.289 . S
Mg65 O72 2.141 . S
Mg65 O73 2.048 . S
Mg65 O74 2.048 . S
Mg65 O77 2.141 . S
C66 O67 1.313 . S
C66 O73 1.195 . S
O67 C66 1.313 . S
C68 O69 1.245 . S
C68 O77 1.289 . S
O69 C68 1.245 . S
C70 O71 1.245 . S
C70 O72 1.289 . S
O71 C70 1.245 . S
O72 Mg65 2.141 . S
O72 C70 1.289 . S
O73 Mg65 2.048 . S
O73 C66 1.195 . S
O74 Mg65 2.048 . S
O74 C75 1.195 . S
C75 O74 1.195 . S
C75 O76 1.313 . S
O76 C75 1.313 . S
O77 Mg65 2.141 . S
O77 C68 1.289 . S
Mg78 O85 2.141 . S
Mg78 O86 2.048 . S
Mg78 O87 2.048 . S
Mg78 O90 2.141 . S
C79 O80 1.313 . S
C79 O86 1.195 . S
O80 C79 1.313 . S
C81 O82 1.245 . S
C81 O90 1.289 . S
O82 C81 1.245 . S
C83 O84 1.245 . S
C83 O85 1.289 . S
O84 C83 1.245 . S
O85 Mg78 2.141 . S
O85 C83 1.289 . S
O86 Mg78 2.048 . S
O86 C79 1.195 . S
O87 Mg78 2.048 . S
O87 C88 1.195 . S
C88 O87 1.195 . S
C88 O89 1.313 . S
O89 C88 1.313 . S
O90 Mg78 2.141 . S
O90 C81 1.289 . S
Mg91 O98 2.141 . S
Mg91 O99 2.048 . S
Mg91 O100 2.048 . S
Mg91 O103 2.141 . S
C92 O93 1.313 . S
C92 O99 1.195 . S
O93 C92 1.313 . S
C94 O95 1.245 . S
C94 O103 1.289 . S
O95 C94 1.245 . S
C96 O97 1.245 . S
C96 O98 1.289 . S
O97 C96 1.245 . S
O98 Mg91 2.141 . S
O98 C96 1.289 . S
O99 Mg91 2.048 . S
O99 C92 1.195 . S
O100 Mg91 2.048 . S
O100 C101 1.195 . S
C101 O100 1.195 . S
C101 O102 1.313 . S
O102 C101 1.313 . S
O103 Mg91 2.141 . S
O103 C94 1.289 . S
Mg104 O111 2.141 . S
Mg104 O112 2.048 . S
Mg104 O113 2.048 . S
Mg104 O116 2.141 . S
C105 O106 1.313 . S
C105 O112 1.195 . S
O106 C105 1.313 . S
C107 O108 1.245 . S
C107 O116 1.289 . S
O108 C107 1.245 . S
C109 O110 1.245 . S
C109 O111 1.289 . S
O110 C109 1.245 . S
O111 Mg104 2.141 . S
O111 C109 1.289 . S
O112 Mg104 2.048 . S
O112 C105 1.195 . S
O113 Mg104 2.048 . S
O113 C114 1.195 . S
C114 O113 1.195 . S
C114 O115 1.313 . S
O115 C114 1.313 . S
O116 Mg104 2.141 . S
O116 C107 1.289 . S
Mg117 O124 2.141 . S
Mg117 O125 2.048 . S
Mg117 O126 2.048 . S
Mg117 O129 2.141 . S
C118 O119 1.313 . S
C118 O125 1.195 . S
O119 C118 1.313 . S
C120 O121 1.245 . S
C120 O129 1.289 . S
O121 C120 1.245 . S
C122 O123 1.245 . S
C122 O124 1.289 . S
O123 C122 1.245 . S
O124 Mg117 2.141 . S
O124 C122 1.289 . S
O125 Mg117 2.048 . S
O125 C118 1.195 . S
O126 Mg117 2.048 . S
O126 C127 1.195 . S
C127 O126 1.195 . S
C127 O128 1.313 . S
O128 C127 1.313 . S
O129 Mg117 2.141 . S
O129 C120 1.289 . S
Mg130 O137 2.141 . S
Mg130 O138 2.048 . S
Mg130 O139 2.048 . S
Mg130 O142 2.141 . S
C131 O132 1.313 . S
C131 O138 1.195 . S
O132 C131 1.313 . S
C133 O134 1.245 . S
C133 O142 1.289 . S
O134 C133 1.245 . S
C135 O136 1.245 . S
C135 O137 1.289 . S
O136 C135 1.245 . S
O137 Mg130 2.141 . S
O137 C135 1.289 . S
O138 Mg130 2.048 . S
O138 C131 1.195 . S
O139 Mg130 2.048 . S
O139 C140 1.195 . S
C140 O139 1.195 . S
C140 O141 1.313 . S
O141 C140 1.313 . S
O142 Mg130 2.141 . S
O142 C133 1.289 . S
Mg143 O150 2.141 . S
Mg143 O151 2.048 . S
Mg143 O152 2.048 . S
Mg143 O155 2.141 . S
C144 O145 1.313 . S
C144 O151 1.195 . S
O145 C144 1.313 . S
C146 O147 1.245 . S
C146 O155 1.289 . S
O147 C146 1.245 . S
C148 O149 1.245 . S
C148 O150 1.289 . S
O149 C148 1.245 . S
O150 Mg143 2.141 . S
O150 C148 1.289 . S
O151 Mg143 2.048 . S
O151 C144 1.195 . S
O152 Mg143 2.048 . S
O152 C153 1.195 . S
C153 O152 1.195 . S
C153 O154 1.313 . S
O154 C153 1.313 . S
O155 Mg143 2.141 . S
O155 C146 1.289 . S
Mg156 O163 2.141 . S
Mg156 O164 2.048 . S
Mg156 O165 2.048 . S
Mg156 O168 2.141 . S
C157 O158 1.313 . S
C157 O164 1.195 . S
O158 C157 1.313 . S
C159 O160 1.245 . S
C159 O168 1.289 . S
O160 C159 1.245 . S
C161 O162 1.245 . S
C161 O163 1.289 . S
O162 C161 1.245 . S
O163 Mg156 2.141 . S
O163 C161 1.289 . S
O164 Mg156 2.048 . S
O164 C157 1.195 . S
O165 Mg156 2.048 . S
O165 C166 1.195 . S
C166 O165 1.195 . S
C166 O167 1.313 . S
O167 C166 1.313 . S
O168 Mg156 2.141 . S
O168 C159 1.289 . S
Mg169 O176 2.141 . S
Mg169 O177 2.048 . S
Mg169 O178 2.048 . S
Mg169 O181 2.141 . S
C170 O171 1.313 . S
C170 O177 1.195 . S
O171 C170 1.313 . S
C172 O173 1.245 . S
C172 O181 1.289 . S
O173 C172 1.245 . S
C174 O175 1.245 . S
C174 O176 1.289 . S
O175 C174 1.245 . S
O176 Mg169 2.141 . S
O176 C174 1.289 . S
O177 Mg169 2.048 . S
O177 C170 1.195 . S
O178 Mg169 2.048 . S
O178 C179 1.195 . S
C179 O178 1.195 . S
C179 O180 1.313 . S
O180 C179 1.313 . S
O181 Mg169 2.141 . S
O181 C172 1.289 . S
Mg182 O189 2.141 . S
Mg182 O190 2.048 . S
Mg182 O191 2.048 . S
Mg182 O194 2.141 . S
C183 O184 1.313 . S
C183 O190 1.195 . S
O184 C183 1.313 . S
C185 O186 1.245 . S
C185 O194 1.289 . S
O186 C185 1.245 . S
C187 O188 1.245 . S
C187 O189 1.289 . S
O188 C187 1.245 . S
O189 Mg182 2.141 . S
O189 C187 1.289 . S
O190 Mg182 2.048 . S
O190 C183 1.195 . S
O191 Mg182 2.048 . S
O191 C192 1.195 . S
C192 O191 1.195 . S
C192 O193 1.313 . S
O193 C192 1.313 . S
O194 Mg182 2.141 . S
O194 C185 1.289 . S
Mg195 O202 2.141 . S
Mg195 O203 2.048 . S
Mg195 O204 2.048 . S
Mg195 O207 2.141 . S
C196 O197 1.313 . S
C196 O203 1.195 . S
O197 C196 1.313 . S
C198 O199 1.245 . S
C198 O207 1.289 . S
O199 C198 1.245 . S
C200 O201 1.245 . S
C200 O202 1.289 . S
O201 C200 1.245 . S
O202 Mg195 2.141 . S
O202 C200 1.289 . S
O203 Mg195 2.048 . S
O203 C196 1.195 . S
O204 Mg195 2.048 . S
O204 C205 1.195 . S
C205 O204 1.195 . S
C205 O206 1.313 . S
O206 C205 1.313 . S
O207 Mg195 2.141 . S
O207 C198 1.289 . S
Mg208 O215 2.141 . S
Mg208 O216 2.048 . S
Mg208 O217 2.048 . S
Mg208 O220 2.141 . S
C209 O210 1.313 . S
C209 O216 1.195 . S
O210 C209 1.313 . S
C211 O212 1.245 . S
C211 O220 1.289 . S
O212 C211 1.245 . S
C213 O214 1.245 . S
C213 O215 1.289 . S
O214 C213 1.245 . S
O215 Mg208 2.141 . S
O215 C213 1.289 . S
O216 Mg208 2.048 . S
O216 C209 1.195 . S
O217 Mg208 2.048 . S
O217 C218 1.195 . S
C218 O217 1.195 . S
C218 O219 1.313 . S
O219 C218 1.313 . S
O220 Mg208 2.141 . S
O220 C211 1.289 . S
Mg221 O228 2.141 . S
Mg221 O229 2.048 . S
Mg221 O230 2.048 . S
Mg221 O233 2.141 . S
C222 O223 1.313 . S
C222 O229 1.195 . S
O223 C222 1.313 . S
C224 O225 1.245 . S
C224 O233 1.289 . S
O225 C224 1.245 . S
C226 O227 1.245 . S
C226 O228 1.289 . S
O227 C226 1.245 . S
O228 Mg221 2.141 . S
O228 C226 1.289 . S
O229 Mg221 2.048 . S
O229 C222 1.195 . S
O230 Mg221 2.048 . S
O230 C231 1.195 . S
C231 O230 1.195 . S
C231 O232 1.313 . S
O232 C231 1.313 . S
O233 Mg221 2.141 . S
O233 C224 1.289 . S
Mg234 O241 2.141 . S
Mg234 O242 2.048 . S
Mg234 O243 2.048 . S
Mg234 O246 2.141 . S
C235 O236 1.313 . S
C235 O242 1.195 . S
O236 C235 1.313 . S
C237 O238 1.245 . S
C237 O246 1.289 . S
O238 C237 1.245 . S
C239 O240 1.245 . S
C239 O241 1.289 . S
O240 C239 1.245 . S
O241 Mg234 2.141 . S
O241 C239 1.289 . S
O242 Mg234 2.048 . S
O242 C235 1.195 . S
O243 Mg234 2.048 . S
O243 C244 1.195 . S
C244 O243 1.195 . S
C244 O245 1.313 . S
O245 C244 1.313 . S
O246 Mg234 2.141 . S
O246 C237 1.289 . S
Mg247 O254 2.141 . S
Mg247 O255 2.048 . S
Mg247 O256 2.048 . S
Mg247 O259 2.141 . S
C248 O249 1.313 . S
C248 O255 1.195 . S
O249 C248 1.313 . S
C250 O251 1.245 . S
C250 O259 1.289 . S
O251 C250 1.245 . S
C252 O253 1.245 . S
C252 O254 1.289 . S
O253 C252 1.245 . S
O254 Mg247 2.141 . S
O254 C252 1.289 . S
O255 Mg247 2.048 . S
O255 C248 1.195 . S
O256 Mg247 2.048 . S
O256 C257 1.195 . S
C257 O256 1.195 . S
C257 O258 1.313 . S
O258 C257 1.313 . S
O259 Mg247 2.141 . S
O259 C250 1.289 . S
Mg260 O267 2.141 . S
Mg260 O268 2.048 . S
Mg260 O269 2.048 . S
Mg260 O272 2.141 . S
C261 O262 1.313 . S
C261 O268 1.195 . S
O262 C261 1.313 . S
C263 O264 1.245 . S
C263 O272 1.289 . S
O264 C263 1.245 . S
C265 O266 1.245 . S
C265 O267 1.289 . S
O266 C265 1.245 . S
O267 Mg260 2.141 . S
O267 C265 1.289 . S
O268 Mg260 2.048 . S
O268 C261 1.195 . S
O269 Mg260 2.048 . S
O269 C270 1.195 . S
C270 O269 1.195 . S
C270 O271 1.313 . S
O271 C270 1.313 . S
O272 Mg260 2.141 . S
O272 C263 1.289 . S
Mg273 O280 2.141 . S
Mg273 O281 2.048 . S
Mg273 O282 2.048 . S
Mg273 O285 2.141 . S
C274 O275 1.313 . S
C274 O281 1.195 . S
O275 C274 1.313 . S
C276 O277 1.245 . S
C276 O285 1.289 . S
O277 C276 1.245 . S
C278 O279 1.245 . S
C278 O280 1.289 . S
O279 C278 1.245 . S
O280 Mg273 2.141 . S
O280 C278 1.289 . S
O281 Mg273 2.048 . S
O281 C274 1.195 . S
O282 Mg273 2.048 . S
O282 C283 1.195 . S
C283 O282 1.195 . S
C283 O284 1.313 . S
O284 C283 1.313 . S
O285 Mg273 2.141 . S
O285 C276 1.289 . S
Mg286 O293 2.141 . S
Mg286 O294 2.048 . S
Mg286 O295 2.048 . S
Mg286 O298 2.141 . S
C287 O288 1.313 . S
C287 O294 1.195 . S
O288 C287 1.313 . S
C289 O290 1.245 . S
C289 O298 1.289 . S
O290 C289 1.245 . S
C291 O292 1.245 . S
C291 O293 1.289 . S
O292 C291 1.245 . S
O293 Mg286 2.141 . S
O293 C291 1.289 . S
O294 Mg286 2.048 . S
O294 C287 1.195 . S
O295 Mg286 2.048 . S
O295 C296 1.195 . S
C296 O295 1.195 . S
C296 O297 1.313 . S
O297 C296 1.313 . S
O298 Mg286 2.141 . S
O298 C289 1.289 . S
Mg299 O306 2.141 . S
Mg299 O307 2.048 . S
Mg299 O308 2.048 . S
Mg299 O311 2.141 . S
C300 O301 1.313 . S
C300 O307 1.195 . S
O301 C300 1.313 . S
C302 O303 1.245 . S
C302 O311 1.289 . S
O303 C302 1.245 . S
C304 O305 1.245 . S
C304 O306 1.289 . S
O305 C304 1.245 . S
O306 Mg299 2.141 . S
O306 C304 1.289 . S
O307 Mg299 2.048 . S
O307 C300 1.195 . S
O308 Mg299 2.048 . S
O308 C309 1.195 . S
C309 O308 1.195 . S
C309 O310 1.313 . S
O310 C309 1.313 . S
O311 Mg299 2.141 . S
O311 C302 1.289 . S
Mg312 O319 2.141 . S
Mg312 O320 2.048 . S
Mg312 O321 2.048 . S
Mg312 O324 2.141 . S
C313 O314 1.313 . S
C313 O320 1.195 . S
O314 C313 1.313 . S
C315 O316 1.245 . S
C315 O324 1.289 . S
O316 C315 1.245 . S
C317 O318 1.245 . S
C317 O319 1.289 . S
O318 C317 1.245 . S
O319 Mg312 2.141 . S
O319 C317 1.289 . S
O320 Mg312 2.048 . S
O320 C313 1.195 . S
O321 Mg312 2.048 . S
O321 C322 1.195 . S
C322 O321 1.195 . S
C322 O323 1.313 . S
O323 C322 1.313 . S
O324 Mg312 2.141 . S
O324 C315 1.289 . S
Mg325 O332 2.141 . S
Mg325 O333 2.048 . S
Mg325 O334 2.048 . S
Mg325 O337 2.141 . S
C326 O327 1.313 . S
C326 O333 1.195 . S
O327 C326 1.313 . S
C328 O329 1.245 . S
C328 O337 1.289 . S
O329 C328 1.245 . S
C330 O331 1.245 . S
C330 O332 1.289 . S
O331 C330 1.245 . S
O332 Mg325 2.141 . S
O332 C330 1.289 . S
O333 Mg325 2.048 . S
O333 C326 1.195 . S
O334 Mg325 2.048 . S
O334 C335 1.195 . S
C335 O334 1.195 . S
C335 O336 1.313 . S
O336 C335 1.313 . S
O337 Mg325 2.141 . S
O337 C328 1.289 . S
Mg338 O345 2.141 . S
Mg338 O346 2.048 . S
Mg338 O347 2.048 . S
Mg338 O350 2.141 . S
C339 O340 1.313 . S
C339 O346 1.195 . S
O340 C339 1.313 . S
C341 O342 1.245 . S
C341 O350 1.289 . S
O342 C341 1.245 . S
C343 O344 1.245 . S
C343 O345 1.289 . S
O344 C343 1.245 . S
O345 Mg338 2.141 . S
O345 C343 1.289 . S
O346 Mg338 2.048 . S
O346 C339 1.195 . S
O347 Mg338 2.048 . S
O347 C348 1.195 . S
C348 O347 1.195 . S
C348 O349 1.313 . S
O349 C348 1.313 . S
O350 Mg338 2.141 . S
O350 C341 1.289 . S
Mg351 O358 2.141 . S
Mg351 O359 2.048 . S
Mg351 O360 2.048 . S
Mg351 O363 2.141 . S
C352 O353 1.313 . S
C352 O359 1.195 . S
O353 C352 1.313 . S
C354 O355 1.245 . S
C354 O363 1.289 . S
O355 C354 1.245 . S
C356 O357 1.245 . S
C356 O358 1.289 . S
O357 C356 1.245 . S
O358 Mg351 2.141 . S
O358 C356 1.289 . S
O359 Mg351 2.048 . S
O359 C352 1.195 . S
O360 Mg351 2.048 . S
O360 C361 1.195 . S
C361 O360 1.195 . S
C361 O362 1.313 . S
O362 C361 1.313 . S
O363 Mg351 2.141 . S
O363 C354 1.289 . S
Mg364 O371 2.141 . S
Mg364 O372 2.048 . S
Mg364 O373 2.048 . S
Mg364 O376 2.141 . S
C365 O366 1.313 . S
C365 O372 1.195 . S
O366 C365 1.313 . S
C367 O368 1.245 . S
C367 O376 1.289 . S
O368 C367 1.245 . S
C369 O370 1.245 . S
C369 O371 1.289 . S
O370 C369 1.245 . S
O371 Mg364 2.141 . S
O371 C369 1.289 . S
O372 Mg364 2.048 . S
O372 C365 1.195 . S
O373 Mg364 2.048 . S
O373 C374 1.195 . S
C374 O373 1.195 . S
C374 O375 1.313 . S
O375 C374 1.313 . S
O376 Mg364 2.141 . S
O376 C367 1.289 . S
Mg377 O384 2.141 . S
Mg377 O385 2.048 . S
Mg377 O386 2.048 . S
Mg377 O389 2.141 . S
C378 O379 1.313 . S
C378 O385 1.195 . S
O379 C378 1.313 . S
C380 O381 1.245 . S
C380 O389 1.289 . S
O381 C380 1.245 . S
C382 O383 1.245 . S
C382 O384 1.289 . S
O383 C382 1.245 . S
O384 Mg377 2.141 . S
O384 C382 1.289 . S
O385 Mg377 2.048 . S
O385 C378 1.195 . S
O386 Mg377 2.048 . S
O386 C387 1.195 . S
C387 O386 1.195 . S
C387 O388 1.313 . S
O388 C387 1.313 . S
O389 Mg377 2.141 . S
O389 C380 1.289 . S
Mg390 O397 2.141 . S
Mg390 O398 2.048 . S
Mg390 O399 2.048 . S
Mg390 O402 2.141 . S
C391 O392 1.313 . S
C391 O398 1.195 . S
O392 C391 1.313 . S
C393 O394 1.245 . S
C393 O402 1.289 . S
O394 C393 1.245 . S
C395 O396 1.245 . S
C395 O397 1.289 . S
O396 C395 1.245 . S
O397 Mg390 2.141 . S
O397 C395 1.289 . S
O398 Mg390 2.048 . S
O398 C391 1.195 . S
O399 Mg390 2.048 . S
O399 C400 1.195 . S
C400 O399 1.195 . S
C400 O401 1.313 . S
O401 C400 1.313 . S
O402 Mg390 2.141 . S
O402 C393 1.289 . S
Mg403 O410 2.141 . S
Mg403 O411 2.048 . S
Mg403 O412 2.048 . S
Mg403 O415 2.141 . S
C404 O405 1.313 . S
C404 O411 1.195 . S
O405 C404 1.313 . S
C406 O407 1.245 . S
C406 O415 1.289 . S
O407 C406 1.245 . S
C408 O409 1.245 . S
C408 O410 1.289 . S
O409 C408 1.245 . S
O410 Mg403 2.141 . S
O410 C408 1.289 . S
O411 Mg403 2.048 . S
O411 C404 1.195 . S
O412 Mg403 2.048 . S
O412 C413 1.195 . S
C413 O412 1.195 . S
C413 O414 1.313 . S
O414 C413 1.313 . S
O415 Mg403 2.141 . S
O415 C406 1.289 . S
Mg416 O423 2.141 . S
Mg416 O424 2.048 . S
Mg416 O425 2.048 . S
Mg416 O428 2.141 . S
C417 O418 1.313 . S
C417 O424 1.195 . S
O418 C417 1.313 . S
C419 O420 1.245 . S
C419 O428 1.289 . S
O420 C419 1.245 . S
C421 O422 1.245 . S
C421 O423 1.289 . S
O422 C421 1.245 . S
O423 Mg416 2.141 . S
O423 C421 1.289 . S
O424 Mg416 2.048 . S
O424 C417 1.195 . S
O425 Mg416 2.048 . S
O425 C426 1.195 . S
C426 O425 1.195 . S
C426 O427 1.313 . S
O427 C426 1.313 . S
O428 Mg416 2.141 . S
O428 C419 1.289 . S
Mg429 O436 2.141 . S
Mg429 O437 2.048 . S
Mg429 O438 2.048 . S
Mg429 O441 2.141 . S
C430 O431 1.313 . S
C430 O437 1.195 . S
O431 C430 1.313 . S
C432 O433 1.245 . S
C432 O441 1.289 . S
O433 C432 1.245 . S
C434 O435 1.245 . S
C434 O436 1.289 . S
O435 C434 1.245 . S
O436 Mg429 2.141 . S
O436 C434 1.289 . S
O437 Mg429 2.048 . S
O437 C430 1.195 . S
O438 Mg429 2.048 . S
O438 C439 1.195 . S
C439 O438 1.195 . S
C439 O440 1.313 . S
O440 C439 1.313 . S
O441 Mg429 2.141 . S
O441 C432 1.289 . S
Mg442 O449 2.141 . S
Mg442 O450 2.048 . S
Mg442 O451 2.048 . S
Mg442 O454 2.141 . S
C443 O444 1.313 . S
C443 O450 1.195 . S
O444 C443 1.313 . S
C445 O446 1.245 . S
C445 O454 1.289 . S
O446 C445 1.245 . S
C447 O448 1.245 . S
C447 O449 1.289 . S
O448 C447 1.245 . S
O449 Mg442 2.141 . S
O449 C447 1.289 . S
O450 Mg442 2.048 . S
O450 C443 1.195 . S
O451 Mg442 2.048 . S
O451 C452 1.195 . S
C452 O451 1.195 . S
C452 O453 1.313 . S
O453 C452 1.313 . S
O454 Mg442 2.141 . S
O454 C445 1.289 . S
Mg455 O462 2.141 . S
Mg455 O463 2.048 . S
Mg455 O464 2.048 . S
Mg455 O467 2.141 . S
C456 O457 1.313 . S
C456 O463 1.195 . S
O457 C456 1.313 . S
C458 O459 1.245 . S
C458 O467 1.289 . S
O459 C458 1.245 . S
C460 O461 1.245 . S
C460 O462 1.289 . S
O461 C460 1.245 . S
O462 Mg455 2.141 . S
O462 C460 1.289 . S
O463 Mg455 2.048 . S
O463 C456 1.195 . S
O464 Mg455 2.048 . S
O464 C465 1.195 . S
C465 O464 1.195 . S
C465 O466 1.313 . S
O466 C465 1.313 . S
O467 Mg455 2.141 . S
O467 C458 1.289 . S
C468 C469 1.349 . S
C468 C470 1.327 . S
C468 H493 0.950 . S
C469 C468 1.349 . S
C469 C485 1.349 . S
C470 C468 1.327 . S
C470 C489 1.429 . S
C470 H494 0.950 . S
C471 C488 1.574 . S
C471 C490 1.368 . S
C471 H495 0.949 . S
H472 C476 0.949 . S
C473 C474 1.349 . S
C473 C475 1.327 . S
C473 H496 0.950 . S
C474 C473 1.349 . S
C474 C486 1.349 . S
C475 C473 1.327 . S
C475 C491 1.429 . S
C475 H497 0.950 . S
C476 H472 0.949 . S
C476 C484 1.574 . S
C476 C492 1.368 . S
H477 C485 0.950 . S
H478 C483 0.950 . S
H479 C484 0.949 . S
H480 C486 0.950 . S
H481 C487 0.950 . S
H482 C488 0.949 . S
C483 H478 0.950 . S
C483 C485 1.327 . S
C483 C489 1.429 . S
C484 C476 1.574 . S
C484 H479 0.949 . S
C484 C490 1.368 . S
C485 C469 1.349 . S
C485 H477 0.950 . S
C485 C483 1.327 . S
C486 C474 1.349 . S
C486 H480 0.950 . S
C486 C487 1.327 . S
C487 H481 0.950 . S
C487 C486 1.327 . S
C487 C491 1.429 . S
C488 C471 1.574 . S
C488 H482 0.949 . S
C488 C492 1.368 . S
C489 C470 1.429 . S
C489 C483 1.429 . S
C489 C490 1.523 . S
C490 C471 1.368 . S
C490 C484 1.368 . S
C490 C489 1.523 . S
C491 C475 1.429 . S
C491 C487 1.429 . S
C491 C492 1.523 . S
C492 C476 1.368 . S
C492 C488 1.368 . S
C492 C491 1.523 . S
H493 C468 0.950 . S
H494 C470 0.950 . S
H495 C471 0.949 . S
H496 C473 0.950 . S
H497 C475 0.950 . S
C498 C499 1.349 . S
C498 C500 1.327 . S
C498 H523 0.950 . S
C499 C498 1.349 . S
C499 C515 1.349 . S
C500 C498 1.327 . S
C500 C519 1.429 . S
C500 H524 0.950 . S
C501 C518 1.574 . S
C501 C520 1.368 . S
C501 H525 0.949 . S
H502 C506 0.949 . S
C503 C504 1.349 . S
C503 C505 1.327 . S
C503 H526 0.950 . S
C504 C503 1.349 . S
C504 C516 1.349 . S
C505 C503 1.327 . S
C505 C521 1.429 . S
C505 H527 0.950 . S
C506 H502 0.949 . S
C506 C514 1.574 . S
C506 C522 1.368 . S
H507 C515 0.950 . S
H508 C513 0.950 . S
H509 C514 0.949 . S
H510 C516 0.950 . S
H511 C517 0.950 . S
H512 C518 0.949 . S
C513 H508 0.950 . S
C513 C515 1.327 . S
C513 C519 1.429 . S
C514 C506 1.574 . S
C514 H509 0.949 . S
C514 C520 1.368 . S
C515 C499 1.349 . S
C515 H507 0.950 . S
C515 C513 1.327 . S
C516 C504 1.349 . S
C516 H510 0.950 . S
C516 C517 1.327 . S
C517 H511 0.950 . S
C517 C516 1.327 . S
C517 C521 1.429 . S
C518 C501 1.574 . S
C518 H512 0.949 . S
C518 C522 1.368 . S
C519 C500 1.429 . S
C519 C513 1.429 . S
C519 C520 1.523 . S
C520 C501 1.368 . S
C520 C514 1.368 . S
C520 C519 1.523 . S
C521 C505 1.429 . S
C521 C517 1.429 . S
C521 C522 1.523 . S
C522 C506 1.368 . S
C522 C518 1.368 . S
C522 C521 1.523 . S
H523 C498 0.950 . S
H524 C500 0.950 . S
H525 C501 0.949 . S
H526 C503 0.950 . S
H527 C505 0.950 . S
C528 C529 1.349 . S
C528 C530 1.327 . S
C528 H553 0.950 . S
C529 C528 1.349 . S
C529 C545 1.349 . S
C530 C528 1.327 . S
C530 C549 1.429 . S
C530 H554 0.950 . S
C531 C548 1.574 . S
C531 C550 1.368 . S
C531 H555 0.949 . S
H532 C536 0.949 . S
C533 C534 1.349 . S
C533 C535 1.327 . S
C533 H556 0.950 . S
C534 C533 1.349 . S
C534 C546 1.349 . S
C535 C533 1.327 . S
C535 C551 1.429 . S
C535 H557 0.950 . S
C536 H532 0.949 . S
C536 C544 1.574 . S
C536 C552 1.368 . S
H537 C545 0.950 . S
H538 C543 0.950 . S
H539 C544 0.949 . S
H540 C546 0.950 . S
H541 C547 0.950 . S
H542 C548 0.949 . S
C543 H538 0.950 . S
C543 C545 1.327 . S
C543 C549 1.429 . S
C544 C536 1.574 . S
C544 H539 0.949 . S
C544 C550 1.368 . S
C545 C529 1.349 . S
C545 H537 0.950 . S
C545 C543 1.327 . S
C546 C534 1.349 . S
C546 H540 0.950 . S
C546 C547 1.327 . S
C547 H541 0.950 . S
C547 C546 1.327 . S
C547 C551 1.429 . S
C548 C531 1.574 . S
C548 H542 0.949 . S
C548 C552 1.368 . S
C549 C530 1.429 . S
C549 C543 1.429 . S
C549 C550 1.523 . S
C550 C531 1.368 . S
C550 C544 1.368 . S
C550 C549 1.523 . S
C551 C535 1.429 . S
C551 C547 1.429 . S
C551 C552 1.523 . S
C552 C536 1.368 . S
C552 C548 1.368 . S
C552 C551 1.523 . S
H553 C528 0.950 . S
H554 C530 0.950 . S
H555 C531 0.949 . S
H556 C533 0.950 . S
H557 C535 0.950 . S
C558 C559 1.349 . S
C558 C560 1.327 . S
C558 H583 0.950 . S
C559 C558 1.349 . S
C559 C575 1.349 . S
C560 C558 1.327 . S
C560 C579 1.429 . S
C560 H584 0.950 . S
C561 C578 1.574 . S
C561 C580 1.368 . S
C561 H585 0.949 . S
H562 C566 0.949 . S
C563 C564 1.349 . S
C563 C565 1.327 . S
C563 H586 0.950 . S
C564 C563 1.349 . S
C564 C576 1.349 . S
C565 C563 1.327 . S
C565 C581 1.429 . S
C565 H587 0.950 . S
C566 H562 0.949 . S
C566 C574 1.574 . S
C566 C582 1.368 . S
H567 C575 0.950 . S
H568 C573 0.950 . S
H569 C574 0.949 . S
H570 C576 0.950 . S
H571 C577 0.950 . S
H572 C578 0.949 . S
C573 H568 0.950 . S
C573 C575 1.327 . S
C573 C579 1.429 . S
C574 C566 1.574 . S
C574 H569 0.949 . S
C574 C580 1.368 . S
C575 C559 1.349 . S
C575 H567 0.950 . S
C575 C573 1.327 . S
C576 C564 1.349 . S
C576 H570 0.950 . S
C576 C577 1.327 . S
C577 H571 0.950 . S
C577 C576 1.327 . S
C577 C581 1.429 . S
C578 C561 1.574 . S
C578 H572 0.949 . S
C578 C582 1.368 . S
C579 C560 1.429 . S
C579 C573 1.429 . S
C579 C580 1.523 . S
C580 C561 1.368 . S
C580 C574 1.368 . S
C580 C579 1.523 . S
C581 C565 1.429 . S
C581 C577 1.429 . S
C581 C582 1.523 . S
C582 C566 1.368 . S
C582 C578 1.368 . S
C582 C581 1.523 . S
H583 C558 0.950 . S
H584 C560 0.950 . S
H585 C561 0.949 . S
H586 C563 0.950 . S
H587 C565 0.950 . S
C588 C589 1.349 . S
C588 C590 1.327 . S
C588 H613 0.950 . S
C589 C588 1.349 . S
C589 C605 1.349 . S
C590 C588 1.327 . S
C590 C609 1.429 . S
C590 H614 0.950 . S
C591 C608 1.574 . S
C591 C610 1.368 . S
C591 H615 0.949 . S
H592 C596 0.949 . S
C593 C594 1.349 . S
C593 C595 1.327 . S
C593 H616 0.950 . S
C594 C593 1.349 . S
C594 C606 1.349 . S
C595 C593 1.327 . S
C595 C611 1.429 . S
C595 H617 0.950 . S
C596 H592 0.949 . S
C596 C604 1.574 . S
C596 C612 1.368 . S
H597 C605 0.950 . S
H598 C603 0.950 . S
H599 C604 0.949 . S
H600 C606 0.950 . S
H601 C607 0.950 . S
H602 C608 0.949 . S
C603 H598 0.950 . S
C603 C605 1.327 . S
C603 C609 1.429 . S
C604 C596 1.574 . S
C604 H599 0.949 . S
C604 C610 1.368 . S
C605 C589 1.349 . S
C605 H597 0.950 . S
C605 C603 1.327 . S
C606 C594 1.349 . S
C606 H600 0.950 . S
C606 C607 1.327 . S
C607 H601 0.950 . S
C607 C606 1.327 . S
C607 C611 1.429 . S
C608 C591 1.574 . S
C608 H602 0.949 . S
C608 C612 1.368 . S
C609 C590 1.429 . S
C609 C603 1.429 . S
C609 C610 1.523 . S
C610 C591 1.368 . S
C610 C604 1.368 . S
C610 C609 1.523 . S
C611 C595 1.429 . S
C611 C607 1.429 . S
C611 C612 1.523 . S
C612 C596 1.368 . S
C612 C608 1.368 . S
C612 C611 1.523 . S
H613 C588 0.950 . S
H614 C590 0.950 . S
H615 C591 0.949 . S
H616 C593 0.950 . S
H617 C595 0.950 . S
C618 C619 1.349 . S
C618 C620 1.327 . S
C618 H643 0.950 . S
C619 C618 1.349 . S
C619 C635 1.349 . S
C620 C618 1.327 . S
C620 C639 1.429 . S
C620 H644 0.950 . S
C621 C638 1.574 . S
C621 C640 1.368 . S
C621 H645 0.949 . S
H622 C626 0.949 . S
C623 C624 1.349 . S
C623 C625 1.327 . S
C623 H646 0.950 . S
C624 C623 1.349 . S
C624 C636 1.349 . S
C625 C623 1.327 . S
C625 C641 1.429 . S
C625 H647 0.950 . S
C626 H622 0.949 . S
C626 C634 1.574 . S
C626 C642 1.368 . S
H627 C635 0.950 . S
H628 C633 0.950 . S
H629 C634 0.949 . S
H630 C636 0.950 . S
H631 C637 0.950 . S
H632 C638 0.949 . S
C633 H628 0.950 . S
C633 C635 1.327 . S
C633 C639 1.429 . S
C634 C626 1.574 . S
C634 H629 0.949 . S
C634 C640 1.368 . S
C635 C619 1.349 . S
C635 H627 0.950 . S
C635 C633 1.327 . S
C636 C624 1.349 . S
C636 H630 0.950 . S
C636 C637 1.327 . S
C637 H631 0.950 . S
C637 C636 1.327 . S
C637 C641 1.429 . S
C638 C621 1.574 . S
C638 H632 0.949 . S
C638 C642 1.368 . S
C639 C620 1.429 . S
C639 C633 1.429 . S
C639 C640 1.523 . S
C640 C621 1.368 . S
C640 C634 1.368 . S
C640 C639 1.523 . S
C641 C625 1.429 . S
C641 C637 1.429 . S
C641 C642 1.523 . S
C642 C626 1.368 . S
C642 C638 1.368 . S
C642 C641 1.523 . S
H643 C618 0.950 . S
H644 C620 0.950 . S
H645 C621 0.949 . S
H646 C623 0.950 . S
H647 C625 0.950 . S
C648 C649 1.349 . S
C648 C650 1.327 . S
C648 H673 0.950 . S
C649 C648 1.349 . S
C649 C665 1.349 . S
C650 C648 1.327 . S
C650 C669 1.429 . S
C650 H674 0.950 . S
C651 C668 1.574 . S
C651 C670 1.368 . S
C651 H675 0.949 . S
H652 C656 0.949 . S
C653 C654 1.349 . S
C653 C655 1.327 . S
C653 H676 0.950 . S
C654 C653 1.349 . S
C654 C666 1.349 . S
C655 C653 1.327 . S
C655 C671 1.429 . S
C655 H677 0.950 . S
C656 H652 0.949 . S
C656 C664 1.574 . S
C656 C672 1.368 . S
H657 C665 0.950 . S
H658 C663 0.950 . S
H659 C664 0.949 . S
H660 C666 0.950 . S
H661 C667 0.950 . S
H662 C668 0.949 . S
C663 H658 0.950 . S
C663 C665 1.327 . S
C663 C669 1.429 . S
C664 C656 1.574 . S
C664 H659 0.949 . S
C664 C670 1.368 . S
C665 C649 1.349 . S
C665 H657 0.950 . S
C665 C663 1.327 . S
C666 C654 1.349 . S
C666 H660 0.950 . S
C666 C667 1.327 . S
C667 H661 0.950 . S
C667 C666 1.327 . S
C667 C671 1.429 . S
C668 C651 1.574 . S
C668 H662 0.949 . S
C668 C672 1.368 . S
C669 C650 1.429 . S
C669 C663 1.429 . S
C669 C670 1.523 . S
C670 C651 1.368 . S
C670 C664 1.368 . S
C670 C669 1.523 . S
C671 C655 1.429 . S
C671 C667 1.429 . S
C671 C672 1.523 . S
C672 C656 1.368 . S
C672 C668 1.368 . S
C672 C671 1.523 . S
H673 C648 0.950 . S
H674 C650 0.950 . S
H675 C651 0.949 . S
H676 C653 0.950 . S
H677 C655 0.950 . S
C678 C679 1.349 . S
C678 C680 1.327 . S
C678 H703 0.950 . S
C679 C678 1.349 . S
C679 C695 1.349 . S
C680 C678 1.327 . S
C680 C699 1.429 . S
C680 H704 0.950 . S
C681 C698 1.574 . S
C681 C700 1.368 . S
C681 H705 0.949 . S
H682 C686 0.949 . S
C683 C684 1.349 . S
C683 C685 1.327 . S
C683 H706 0.950 . S
C684 C683 1.349 . S
C684 C696 1.349 . S
C685 C683 1.327 . S
C685 C701 1.429 . S
C685 H707 0.950 . S
C686 H682 0.949 . S
C686 C694 1.574 . S
C686 C702 1.368 . S
H687 C695 0.950 . S
H688 C693 0.950 . S
H689 C694 0.949 . S
H690 C696 0.950 . S
H691 C697 0.950 . S
H692 C698 0.949 . S
C693 H688 0.950 . S
C693 C695 1.327 . S
C693 C699 1.429 . S
C694 C686 1.574 . S
C694 H689 0.949 . S
C694 C700 1.368 . S
C695 C679 1.349 . S
C695 H687 0.950 . S
C695 C693 1.327 . S
C696 C684 1.349 . S
C696 H690 0.950 . S
C696 C697 1.327 . S
C697 H691 0.950 . S
C697 C696 1.327 . S
C697 C701 1.429 . S
C698 C681 1.574 . S
C698 H692 0.949 . S
C698 C702 1.368 . S
C699 C680 1.429 . S
C699 C693 1.429 . S
C699 C700 1.523 . S
C700 C681 1.368 . S
C700 C694 1.368 . S
C700 C699 1.523 . S
C701 C685 1.429 . S
C701 C697 1.429 . S
C701 C702 1.523 . S
C702 C686 1.368 . S
C702 C698 1.368 . S
C702 C701 1.523 . S
H703 C678 0.950 . S
H704 C680 0.950 . S
H705 C681 0.949 . S
H706 C683 0.950 . S
H707 C685 0.950 . S
C708 C709 1.349 . S
C708 C710 1.327 . S
C708 H733 0.950 . S
C709 C708 1.349 . S
C709 C725 1.349 . S
C710 C708 1.327 . S
C710 C729 1.429 . S
C710 H734 0.950 . S
C711 C728 1.574 . S
C711 C730 1.368 . S
C711 H735 0.949 . S
H712 C716 0.949 . S
C713 C714 1.349 . S
C713 C715 1.327 . S
C713 H736 0.950 . S
C714 C713 1.349 . S
C714 C726 1.349 . S
C715 C713 1.327 . S
C715 C731 1.429 . S
C715 H737 0.950 . S
C716 H712 0.949 . S
C716 C724 1.574 . S
C716 C732 1.368 . S
H717 C725 0.950 . S
H718 C723 0.950 . S
H719 C724 0.949 . S
H720 C726 0.950 . S
H721 C727 0.950 . S
H722 C728 0.949 . S
C723 H718 0.950 . S
C723 C725 1.327 . S
C723 C729 1.429 . S
C724 C716 1.574 . S
C724 H719 0.949 . S
C724 C730 1.368 . S
C725 C709 1.349 . S
C725 H717 0.950 . S
C725 C723 1.327 . S
C726 C714 1.349 . S
C726 H720 0.950 . S
C726 C727 1.327 . S
C727 H721 0.950 . S
C727 C726 1.327 . S
C727 C731 1.429 . S
C728 C711 1.574 . S
C728 H722 0.949 . S
C728 C732 1.368 . S
C729 C710 1.429 . S
C729 C723 1.429 . S
C729 C730 1.523 . S
C730 C711 1.368 . S
C730 C724 1.368 . S
C730 C729 1.523 . S
C731 C715 1.429 . S
C731 C727 1.429 . S
C731 C732 1.523 . S
C732 C716 1.368 . S
C732 C728 1.368 . S
C732 C731 1.523 . S
H733 C708 0.950 . S
H734 C710 0.950 . S
H735 C711 0.949 . S
H736 C713 0.950 . S
H737 C715 0.950 . S
C738 C739 1.349 . S
C738 C740 1.327 . S
C738 H763 0.950 . S
C739 C738 1.349 . S
C739 C755 1.349 . S
C740 C738 1.327 . S
C740 C759 1.429 . S
C740 H764 0.950 . S
C741 C758 1.574 . S
C741 C760 1.368 . S
C741 H765 0.949 . S
H742 C746 0.949 . S
C743 C744 1.349 . S
C743 C745 1.327 . S
C743 H766 0.950 . S
C744 C743 1.349 . S
C744 C756 1.349 . S
C745 C743 1.327 . S
C745 C761 1.429 . S
C745 H767 0.950 . S
C746 H742 0.949 . S
C746 C754 1.574 . S
C746 C762 1.368 . S
H747 C755 0.950 . S
H748 C753 0.950 . S
H749 C754 0.949 . S
H750 C756 0.950 . S
H751 C757 0.950 . S
H752 C758 0.949 . S
C753 H748 0.950 . S
C753 C755 1.327 . S
C753 C759 1.429 . S
C754 C746 1.574 . S
C754 H749 0.949 . S
C754 C760 1.368 . S
C755 C739 1.349 . S
C755 H747 0.950 . S
C755 C753 1.327 . S
C756 C744 1.349 . S
C756 H750 0.950 . S
C756 C757 1.327 . S
C757 H751 0.950 . S
C757 C756 1.327 . S
C757 C761 1.429 . S
C758 C741 1.574 . S
C758 H752 0.949 . S
C758 C762 1.368 . S
C759 C740 1.429 . S
C759 C753 1.429 . S
C759 C760 1.523 . S
C760 C741 1.368 . S
C760 C754 1.368 . S
C760 C759 1.523 . S
C761 C745 1.429 . S
C761 C757 1.429 . S
C761 C762 1.523 . S
C762 C746 1.368 . S
C762 C758 1.368 . S
C762 C761 1.523 . S
H763 C738 0.950 . S
H764 C740 0.950 . S
H765 C741 0.949 . S
H766 C743 0.950 . S
H767 C745 0.950 . S
C768 C769 1.349 . S
C768 C770 1.327 . S
C768 H793 0.950 . S
C769 C768 1.349 . S
C769 C785 1.349 . S
C770 C768 1.327 . S
C770 C789 1.429 . S
C770 H794 0.950 . S
C771 C788 1.574 . S
C771 C790 1.368 . S
C771 H795 0.949 . S
H772 C776 0.949 . S
C773 C774 1.349 . S
C773 C775 1.327 . S
C773 H796 0.950 . S
C774 C773 1.349 . S
C774 C786 1.349 . S
C775 C773 1.327 . S
C775 C791 1.429 . S
C775 H797 0.950 . S
C776 H772 0.949 . S
C776 C784 1.574 . S
C776 C792 1.368 . S
H777 C785 0.950 . S
H778 C783 0.950 . S
H779 C784 0.949 . S
H780 C786 0.950 . S
H781 C787 0.950 . S
H782 C788 0.949 . S
C783 H778 0.950 . S
C783 C785 1.327 . S
C783 C789 1.429 . S
C784 C776 1.574 . S
C784 H779 0.949 . S
C784 C790 1.368 . S
C785 C769 1.349 . S
C785 H777 0.950 . S
C785 C783 1.327 . S
C786 C774 1.349 . S
C786 H780 0.950 . S
C786 C787 1.327 . S
C787 H781 0.950 . S
C787 C786 1.327 . S
C787 C791 1.429 . S
C788 C771 1.574 . S
C788 H782 0.949 . S
C788 C792 1.368 . S
C789 C770 1.429 . S
C789 C783 1.429 . S
C789 C790 1.523 . S
C790 C771 1.368 . S
C790 C784 1.368 . S
C790 C789 1.523 . S
C791 C775 1.429 . S
C791 C787 1.429 . S
C791 C792 1.523 . S
C792 C776 1.368 . S
C792 C788 1.368 . S
C792 C791 1.523 . S
H793 C768 0.950 . S
H794 C770 0.950 . S
H795 C771 0.949 . S
H796 C773 0.950 . S
H797 C775 0.950 . S
C798 C799 1.349 . S
C798 C800 1.327 . S
C798 H823 0.950 . S
C799 C798 1.349 . S
C799 C815 1.349 . S
C800 C798 1.327 . S
C800 C819 1.429 . S
C800 H824 0.950 . S
C801 C818 1.574 . S
C801 C820 1.368 . S
C801 H825 0.949 . S
H802 C806 0.949 . S
C803 C804 1.349 . S
C803 C805 1.327 . S
C803 H826 0.950 . S
C804 C803 1.349 . S
C804 C816 1.349 . S
C805 C803 1.327 . S
C805 C821 1.429 . S
C805 H827 0.950 . S
C806 H802 0.949 . S
C806 C814 1.574 . S
C806 C822 1.368 . S
H807 C815 0.950 . S
H808 C813 0.950 . S
H809 C814 0.949 . S
H810 C816 0.950 . S
H811 C817 0.950 . S
H812 C818 0.949 . S
C813 H808 0.950 . S
C813 C815 1.327 . S
C813 C819 1.429 . S
C814 C806 1.574 . S
C814 H809 0.949 . S
C814 C820 1.368 . S
C815 C799 1.349 . S
C815 H807 0.950 . S
C815 C813 1.327 . S
C816 C804 1.349 . S
C816 H810 0.950 . S
C816 C817 1.327 . S
C817 H811 0.950 . S
C817 C816 1.327 . S
C817 C821 1.429 . S
C818 C801 1.574 . S
C818 H812 0.949 . S
C818 C822 1.368 . S
C819 C800 1.429 . S
C819 C813 1.429 . S
C819 C820 1.523 . S
C820 C801 1.368 . S
C820 C814 1.368 . S
C820 C819 1.523 . S
C821 C805 1.429 . S
C821 C817 1.429 . S
C821 C822 1.523 . S
C822 C806 1.368 . S
C822 C818 1.368 . S
C822 C821 1.523 . S
H823 C798 0.950 . S
H824 C800 0.950 . S
H825 C801 0.949 . S
H826 C803 0.950 . S
H827 C805 0.950 . S
C828 C829 1.349 . S
C828 C830 1.327 . S
C828 H853 0.950 . S
C829 C828 1.349 . S
C829 C845 1.349 . S
C830 C828 1.327 . S
C830 C849 1.429 . S
C830 H854 0.950 . S
C831 C848 1.574 1_655 S
C831 C850 1.368 . S
C831 H855 0.949 . S
H832 C836 0.949 . S
C833 C834 1.349 . S
C833 C835 1.327 . S
C833 H856 0.950 . S
C834 C833 1.349 . S
C834 C846 1.349 . S
C835 C833 1.327 . S
C835 C851 1.429 . S
C835 H857 0.950 . S
C836 H832 0.949 . S
C836 C844 1.574 1_455 S
C836 C852 1.368 . S
H837 C845 0.950 . S
H838 C843 0.950 . S
H839 C844 0.949 . S
H840 C846 0.950 . S
H841 C847 0.950 . S
H842 C848 0.949 . S
C843 H838 0.950 . S
C843 C845 1.327 . S
C843 C849 1.429 . S
C844 C836 1.574 1_655 S
C844 H839 0.949 . S
C844 C850 1.368 . S
C845 C829 1.349 . S
C845 H837 0.950 . S
C845 C843 1.327 . S
C846 C834 1.349 . S
C846 H840 0.950 . S
C846 C847 1.327 . S
C847 H841 0.950 . S
C847 C846 1.327 . S
C847 C851 1.429 . S
C848 C831 1.574 1_455 S
C848 H842 0.949 . S
C848 C852 1.368 . S
C849 C830 1.429 . S
C849 C843 1.429 . S
C849 C850 1.523 . S
C850 C831 1.368 . S
C850 C844 1.368 . S
C850 C849 1.523 . S
C851 C835 1.429 . S
C851 C847 1.429 . S
C851 C852 1.523 . S
C852 C836 1.368 . S
C852 C848 1.368 . S
C852 C851 1.523 . S
H853 C828 0.950 . S
H854 C830 0.950 . S
H855 C831 0.949 . S
H856 C833 0.950 . S
H857 C835 0.950 . S
C858 C859 1.349 . S
C858 C860 1.327 . S
C858 H883 0.950 . S
C859 C858 1.349 . S
C859 C875 1.349 . S
C860 C858 1.327 . S
C860 C879 1.429 . S
C860 H884 0.950 . S
C861 C878 1.574 . S
C861 C880 1.368 . S
C861 H885 0.949 . S
H862 C866 0.949 . S
C863 C864 1.349 . S
C863 C865 1.327 . S
C863 H886 0.950 . S
C864 C863 1.349 . S
C864 C876 1.349 . S
C865 C863 1.327 . S
C865 C881 1.429 . S
C865 H887 0.950 . S
C866 H862 0.949 . S
C866 C874 1.574 . S
C866 C882 1.368 . S
H867 C875 0.950 . S
H868 C873 0.950 . S
H869 C874 0.949 . S
H870 C876 0.950 . S
H871 C877 0.950 . S
H872 C878 0.949 . S
C873 H868 0.950 . S
C873 C875 1.327 . S
C873 C879 1.429 . S
C874 C866 1.574 . S
C874 H869 0.949 . S
C874 C880 1.368 . S
C875 C859 1.349 . S
C875 H867 0.950 . S
C875 C873 1.327 . S
C876 C864 1.349 . S
C876 H870 0.950 . S
C876 C877 1.327 . S
C877 H871 0.950 . S
C877 C876 1.327 . S
C877 C881 1.429 . S
C878 C861 1.574 . S
C878 H872 0.949 . S
C878 C882 1.368 . S
C879 C860 1.429 . S
C879 C873 1.429 . S
C879 C880 1.523 . S
C880 C861 1.368 . S
C880 C874 1.368 . S
C880 C879 1.523 . S
C881 C865 1.429 . S
C881 C877 1.429 . S
C881 C882 1.523 . S
C882 C866 1.368 . S
C882 C878 1.368 . S
C882 C881 1.523 . S
H883 C858 0.950 . S
H884 C860 0.950 . S
H885 C861 0.949 . S
H886 C863 0.950 . S
H887 C865 0.950 . S
C888 C889 1.349 . S
C888 C890 1.327 . S
C888 H913 0.950 . S
C889 C888 1.349 . S
C889 C905 1.349 . S
C890 C888 1.327 . S
C890 C909 1.429 . S
C890 H914 0.950 . S
C891 C908 1.574 . S
C891 C910 1.368 1_565 S
C891 H915 0.949 . S
H892 C896 0.949 . S
C893 C894 1.349 . S
C893 C895 1.327 . S
C893 H916 0.950 . S
C894 C893 1.349 . S
C894 C906 1.349 . S
C895 C893 1.327 . S
C895 C911 1.429 . S
C895 H917 0.950 . S
C896 H892 0.949 . S
C896 C904 1.574 . S
C896 C912 1.368 1_545 S
H897 C905 0.950 . S
H898 C903 0.907 1_565 S
H899 C904 0.949 . S
H900 C906 0.950 . S
H901 C907 0.907 1_545 S
H902 C908 0.949 . S
C903 H898 0.907 1_545 S
C903 C905 1.327 . S
C903 C909 1.429 . S
C904 C896 1.574 . S
C904 H899 0.949 . S
C904 C910 1.368 . S
C905 C889 1.349 . S
C905 H897 0.950 . S
C905 C903 1.327 . S
C906 C894 1.349 . S
C906 H900 0.950 . S
C906 C907 1.327 . S
C907 H901 0.907 1_565 S
C907 C906 1.327 . S
C907 C911 1.429 . S
C908 C891 1.574 . S
C908 H902 0.949 . S
C908 C912 1.368 . S
C909 C890 1.429 . S
C909 C903 1.429 . S
C909 C910 1.523 . S
C910 C891 1.368 1_545 S
C910 C904 1.368 . S
C910 C909 1.523 . S
C911 C895 1.429 . S
C911 C907 1.429 . S
C911 C912 1.523 . S
C912 C896 1.368 1_565 S
C912 C908 1.368 . S
C912 C911 1.523 . S
H913 C888 0.950 . S
H914 C890 0.950 . S
H915 C891 0.949 . S
H916 C893 0.950 . S
H917 C895 0.950 . S
C918 C919 1.349 . S
C918 C920 1.327 . S
C918 H943 0.950 . S
C919 C918 1.349 . S
C919 C935 1.349 . S
C920 C918 1.327 . S
C920 C939 1.429 . S
C920 H944 0.950 . S
C921 C938 1.574 . S
C921 C940 1.368 1_554 S
C921 H945 0.949 . S
H922 C926 0.949 . S
C923 C924 1.349 . S
C923 C925 1.327 . S
C923 H946 0.950 . S
C924 C923 1.349 . S
C924 C936 1.349 . S
C925 C923 1.327 . S
C925 C941 1.429 . S
C925 H947 0.950 . S
C926 H922 0.949 . S
C926 C934 1.574 . S
C926 C942 1.368 1_556 S
H927 C935 0.950 . S
H928 C933 0.950 . S
H929 C934 0.949 . S
H930 C936 0.950 . S
H931 C937 0.950 . S
H932 C938 0.949 . S
C933 H928 0.950 . S
C933 C935 1.327 . S
C933 C939 1.429 . S
C934 C926 1.574 . S
C934 H929 0.949 . S
C934 C940 1.368 1_565 S
C935 C919 1.349 . S
C935 H927 0.950 . S
C935 C933 1.327 . S
C936 C924 1.349 . S
C936 H930 0.950 . S
C936 C937 1.327 . S
C937 H931 0.950 . S
C937 C936 1.327 . S
C937 C941 1.429 . S
C938 C921 1.574 . S
C938 H932 0.949 . S
C938 C942 1.368 1_545 S
C939 C920 1.429 . S
C939 C933 1.429 . S
C939 C940 1.523 . S
C940 C921 1.368 1_556 S
C940 C934 1.368 1_545 S
C940 C939 1.523 . S
C941 C925 1.429 . S
C941 C937 1.429 . S
C941 C942 1.523 . S
C942 C926 1.368 1_554 S
C942 C938 1.368 1_565 S
C942 C941 1.523 . S
H943 C918 0.950 . S
H944 C920 0.950 . S
H945 C921 0.949 . S
H946 C923 0.950 . S
H947 C925 0.950 . S
C948 C949 1.349 . S
C948 C950 1.327 . S
C948 H973 0.950 . S
C949 C948 1.349 . S
C949 C965 1.349 . S
C950 C948 1.327 . S
C950 C969 1.429 . S
C950 H974 0.950 . S
C951 C968 1.574 1_556 S
C951 C970 1.368 . S
C951 H975 0.949 . S
H952 C956 0.949 . S
C953 C954 1.349 . S
C953 C955 1.327 . S
C953 H976 0.950 . S
C954 C953 1.349 . S
C954 C966 1.349 . S
C955 C953 1.327 . S
C955 C971 1.429 . S
C955 H977 0.950 . S
C956 H952 0.949 . S
C956 C964 1.574 1_554 S
C956 C972 1.368 . S
H957 C965 0.950 . S
H958 C963 0.950 . S
H959 C964 0.949 . S
H960 C966 0.950 . S
H961 C967 0.950 . S
H962 C968 0.949 . S
C963 H958 0.950 . S
C963 C965 1.327 . S
C963 C969 1.429 . S
C964 C956 1.574 1_556 S
C964 H959 0.949 . S
C964 C970 1.368 1_455 S
C965 C949 1.349 . S
C965 H957 0.950 . S
C965 C963 1.327 . S
C966 C954 1.349 . S
C966 H960 0.950 . S
C966 C967 1.327 . S
C967 H961 0.950 . S
C967 C966 1.327 . S
C967 C971 1.429 . S
C968 C951 1.574 1_554 S
C968 H962 0.949 . S
C968 C972 1.368 1_655 S
C969 C950 1.429 . S
C969 C963 1.429 . S
C969 C970 1.523 . S
C970 C951 1.368 . S
C970 C964 1.368 1_655 S
C970 C969 1.523 . S
C971 C955 1.429 . S
C971 C967 1.429 . S
C971 C972 1.523 . S
C972 C956 1.368 . S
C972 C968 1.368 1_455 S
C972 C971 1.523 . S
H973 C948 0.950 . S
H974 C950 0.950 . S
H975 C951 0.949 . S
H976 C953 0.950 . S
H977 C955 0.950 . S
C978 C979 1.349 . S
C978 C980 1.327 . S
C978 H1003 0.950 . S
C979 C978 1.349 . S
C979 C995 1.349 . S
C980 C978 1.327 . S
C980 C999 1.429 . S
C980 H1004 0.950 . S
C981 C998 1.574 1_556 S
C981 C1000 1.368 . S
C981 H1005 0.949 . S
H982 C986 0.949 . S
C983 C984 1.349 . S
C983 C985 1.327 . S
C983 H1006 0.950 . S
C984 C983 1.349 . S
C984 C996 1.349 . S
C985 C983 1.327 . S
C985 C1001 1.429 . S
C985 H1007 0.950 . S
C986 H982 0.949 . S
C986 C994 1.574 1_554 S
C986 C1002 1.368 . S
H987 C995 0.950 . S
H988 C993 0.950 . S
H989 C994 0.949 . S
H990 C996 0.950 . S
H991 C997 0.950 . S
H992 C998 0.949 . S
C993 H988 0.950 . S
C993 C995 1.327 . S
C993 C999 1.429 . S
C994 C986 1.574 1_556 S
C994 H989 0.949 . S
C994 C1000 1.368 . S
C995 C979 1.349 . S
C995 H987 0.950 . S
C995 C993 1.327 . S
C996 C984 1.349 . S
C996 H990 0.950 . S
C996 C997 1.327 . S
C997 H991 0.950 . S
C997 C996 1.327 . S
C997 C1001 1.429 . S
C998 C981 1.574 1_554 S
C998 H992 0.949 . S
C998 C1002 1.368 . S
C999 C980 1.429 . S
C999 C993 1.429 . S
C999 C1000 1.523 . S
C1000 C981 1.368 . S
C1000 C994 1.368 . S
C1000 C999 1.523 . S
C1001 C985 1.429 . S
C1001 C997 1.429 . S
C1001 C1002 1.523 . S
C1002 C986 1.368 . S
C1002 C998 1.368 . S
C1002 C1001 1.523 . S
H1003 C978 0.950 . S
H1004 C980 0.950 . S
H1005 C981 0.949 . S
H1006 C983 0.950 . S
H1007 C985 0.950 . S
C1008 C1009 1.349 . S
C1008 C1010 1.327 1_565 S
C1008 H1033 0.950 . S
C1009 C1008 1.349 . S
C1009 C1025 1.349 . S
C1010 C1008 1.327 1_545 S
C1010 C1029 1.429 . S
C1010 H1034 0.950 . S
C1011 C1028 1.574 1_556 S
C1011 C1030 1.368 . S
C1011 H1035 0.949 . S
H1012 C1016 0.949 . S
C1013 C1014 1.349 . S
C1013 C1015 1.327 . S
C1013 H1036 0.950 . S
C1014 C1013 1.349 . S
C1014 C1026 1.349 . S
C1015 C1013 1.327 . S
C1015 C1031 1.429 . S
C1015 H1037 0.950 . S
C1016 H1012 0.949 . S
C1016 C1024 1.574 . S
C1016 C1032 1.368 . S
H1017 C1025 0.950 . S
H1018 C1023 0.950 . S
H1019 C1024 0.949 . S
H1020 C1026 0.950 . S
H1021 C1027 0.950 . S
H1022 C1028 0.958 . S
C1023 H1018 0.950 . S
C1023 C1025 1.327 1_545 S
C1023 C1029 1.429 . S
C1024 C1016 1.574 . S
C1024 H1019 0.949 . S
C1024 C1030 1.368 1_554 S
C1025 C1009 1.349 . S
C1025 H1017 0.950 . S
C1025 C1023 1.327 1_565 S
C1026 C1014 1.349 . S
C1026 H1020 0.950 . S
C1026 C1027 1.327 . S
C1027 H1021 0.950 . S
C1027 C1026 1.327 . S
C1027 C1031 1.429 . S
C1028 C1011 1.574 1_554 S
C1028 H1022 0.958 . S
C1028 C1032 1.368 . S
C1029 C1010 1.429 . S
C1029 C1023 1.429 . S
C1029 C1030 1.523 . S
C1030 C1011 1.368 . S
C1030 C1024 1.368 1_556 S
C1030 C1029 1.523 . S
C1031 C1015 1.429 . S
C1031 C1027 1.429 . S
C1031 C1032 1.523 . S
C1032 C1016 1.368 . S
C1032 C1028 1.368 . S
C1032 C1031 1.523 . S
H1033 C1008 0.950 . S
H1034 C1010 0.950 . S
H1035 C1011 0.949 . S
H1036 C1013 0.950 . S
H1037 C1015 0.950 . S
C1038 C1039 1.349 . S
C1038 C1040 1.327 1_455 S
C1038 H1063 0.950 . S
C1039 C1038 1.349 . S
C1039 C1055 1.349 . S
C1040 C1038 1.327 1_655 S
C1040 C1059 1.429 . S
C1040 H1064 0.950 . S
C1041 C1058 1.574 1_556 S
C1041 C1060 1.368 . S
C1041 H1065 0.949 . S
H1042 C1046 0.949 . S
C1043 C1044 1.349 . S
C1043 C1045 1.327 . S
C1043 H1066 0.950 . S
C1044 C1043 1.349 . S
C1044 C1056 1.349 . S
C1045 C1043 1.327 . S
C1045 C1061 1.429 . S
C1045 H1067 0.950 . S
C1046 H1042 0.949 . S
C1046 C1054 1.574 . S
C1046 C1062 1.368 . S
H1047 C1055 0.950 . S
H1048 C1053 0.950 . S
H1049 C1054 0.949 . S
H1050 C1056 0.950 . S
H1051 C1057 0.950 . S
H1052 C1058 0.949 . S
C1053 H1048 0.950 . S
C1053 C1055 1.327 1_655 S
C1053 C1059 1.429 . S
C1054 C1046 1.574 . S
C1054 H1049 0.949 . S
C1054 C1060 1.368 1_554 S
C1055 C1039 1.349 . S
C1055 H1047 0.950 . S
C1055 C1053 1.327 1_455 S
C1056 C1044 1.349 . S
C1056 H1050 0.950 . S
C1056 C1057 1.327 . S
C1057 H1051 0.950 . S
C1057 C1056 1.327 . S
C1057 C1061 1.429 . S
C1058 C1041 1.574 1_554 S
C1058 H1052 0.949 . S
C1058 C1062 1.368 . S
C1059 C1040 1.429 . S
C1059 C1053 1.429 . S
C1059 C1060 1.523 . S
C1060 C1041 1.368 . S
C1060 C1054 1.368 1_556 S
C1060 C1059 1.523 . S
C1061 C1045 1.429 . S
C1061 C1057 1.429 . S
C1061 C1062 1.523 . S
C1062 C1046 1.368 . S
C1062 C1058 1.368 . S
C1062 C1061 1.523 . S
H1063 C1038 0.950 . S
H1064 C1040 0.950 . S
H1065 C1041 0.949 . S
H1066 C1043 0.950 . S
H1067 C1045 0.950 . S
C1068 C1069 1.349 . S
C1068 C1070 1.327 . S
C1068 H1093 0.950 . S
C1069 C1068 1.349 . S
C1069 C1085 1.349 . S
C1070 C1068 1.327 . S
C1070 C1089 1.429 . S
C1070 H1094 0.950 . S
C1071 C1088 1.574 . S
C1071 C1090 1.368 . S
C1071 H1095 0.949 . S
H1072 C1076 0.949 . S
C1073 C1074 1.349 . S
C1073 C1075 1.327 . S
C1073 H1096 0.950 . S
C1074 C1073 1.349 . S
C1074 C1086 1.349 . S
C1075 C1073 1.327 . S
C1075 C1091 1.429 . S
C1075 H1097 0.950 . S
C1076 H1072 0.949 . S
C1076 C1084 1.574 1_556 S
C1076 C1092 1.368 . S
H1077 C1085 0.950 . S
H1078 C1083 0.950 . S
H1079 C1084 0.949 . S
H1080 C1086 0.950 . S
H1081 C1087 0.950 . S
H1082 C1088 0.949 . S
C1083 H1078 0.950 . S
C1083 C1085 1.327 . S
C1083 C1089 1.429 . S
C1084 C1076 1.574 1_554 S
C1084 H1079 0.949 . S
C1084 C1090 1.368 . S
C1085 C1069 1.349 . S
C1085 H1077 0.950 . S
C1085 C1083 1.327 . S
C1086 C1074 1.349 . S
C1086 H1080 0.950 . S
C1086 C1087 1.327 . S
C1087 H1081 0.950 . S
C1087 C1086 1.327 . S
C1087 C1091 1.429 . S
C1088 C1071 1.574 . S
C1088 H1082 0.949 . S
C1088 C1092 1.368 1_554 S
C1089 C1070 1.429 . S
C1089 C1083 1.429 . S
C1089 C1090 1.523 . S
C1090 C1071 1.368 . S
C1090 C1084 1.368 . S
C1090 C1089 1.523 . S
C1091 C1075 1.429 . S
C1091 C1087 1.429 . S
C1091 C1092 1.523 . S
C1092 C1076 1.368 . S
C1092 C1088 1.368 1_556 S
C1092 C1091 1.523 . S
H1093 C1068 0.950 . S
H1094 C1070 0.950 . S
H1095 C1071 0.949 . S
H1096 C1073 0.950 . S
H1097 C1075 0.950 . S
C1098 C1099 1.349 1_455 S
C1098 C1100 1.327 . S
C1098 H1123 0.950 . S
C1099 C1098 1.349 1_655 S
C1099 C1115 1.349 . S
C1100 C1098 1.327 . S
C1100 C1119 1.429 . S
C1100 H1124 0.950 . S
C1101 C1118 1.574 . S
C1101 C1120 1.368 . S
C1101 H1125 0.949 . S
H1102 C1106 0.949 . S
C1103 C1104 1.349 . S
C1103 C1105 1.327 . S
C1103 H1126 0.950 . S
C1104 C1103 1.349 . S
C1104 C1116 1.349 . S
C1105 C1103 1.327 . S
C1105 C1121 1.429 . S
C1105 H1127 0.950 . S
C1106 H1102 0.949 . S
C1106 C1114 1.574 . S
C1106 C1122 1.368 . S
H1107 C1115 0.950 . S
H1108 C1113 0.950 1_655 S
H1109 C1114 0.949 . S
H1110 C1116 0.950 . S
H1111 C1117 0.950 . S
H1112 C1118 0.949 . S
C1113 H1108 0.950 1_455 S
C1113 C1115 1.327 1_455 S
C1113 C1119 1.429 . S
C1114 C1106 1.574 . S
C1114 H1109 0.949 . S
C1114 C1120 1.368 . S
C1115 C1099 1.349 . S
C1115 H1107 0.950 . S
C1115 C1113 1.327 1_655 S
C1116 C1104 1.349 . S
C1116 H1110 0.950 . S
C1116 C1117 1.327 . S
C1117 H1111 0.950 . S
C1117 C1116 1.327 . S
C1117 C1121 1.429 . S
C1118 C1101 1.574 . S
C1118 H1112 0.949 . S
C1118 C1122 1.368 . S
C1119 C1100 1.429 . S
C1119 C1113 1.429 . S
C1119 C1120 1.523 . S
C1120 C1101 1.368 . S
C1120 C1114 1.368 . S
C1120 C1119 1.523 . S
C1121 C1105 1.429 . S
C1121 C1117 1.429 . S
C1121 C1122 1.523 . S
C1122 C1106 1.368 . S
C1122 C1118 1.368 . S
C1122 C1121 1.523 . S
H1123 C1098 0.950 . S
H1124 C1100 0.950 . S
H1125 C1101 0.949 . S
H1126 C1103 0.950 . S
H1127 C1105 0.950 . S
C1128 C1129 1.349 . S
C1128 C1130 1.327 . S
C1128 H1153 0.950 . S
C1129 C1128 1.349 . S
C1129 C1145 1.349 . S
C1130 C1128 1.327 . S
C1130 C1149 1.429 . S
C1130 H1154 0.950 . S
C1131 C1148 1.574 . S
C1131 C1150 1.368 . S
C1131 H1155 0.949 . S
H1132 C1136 0.949 . S
C1133 C1134 1.349 . S
C1133 C1135 1.327 . S
C1133 H1156 0.950 . S
C1134 C1133 1.349 . S
C1134 C1146 1.349 . S
C1135 C1133 1.327 . S
C1135 C1151 1.429 . S
C1135 H1157 0.950 . S
C1136 H1132 0.949 . S
C1136 C1144 1.574 . S
C1136 C1152 1.368 . S
H1137 C1145 0.950 . S
H1138 C1143 0.950 . S
H1139 C1144 0.949 . S
H1140 C1146 0.950 . S
H1141 C1147 0.950 . S
H1142 C1148 0.949 . S
C1143 H1138 0.950 . S
C1143 C1145 1.327 . S
C1143 C1149 1.429 . S
C1144 C1136 1.574 . S
C1144 H1139 0.949 . S
C1144 C1150 1.368 . S
C1145 C1129 1.349 . S
C1145 H1137 0.950 . S
C1145 C1143 1.327 . S
C1146 C1134 1.349 . S
C1146 H1140 0.950 . S
C1146 C1147 1.327 . S
C1147 H1141 0.950 . S
C1147 C1146 1.327 . S
C1147 C1151 1.429 . S
C1148 C1131 1.574 . S
C1148 H1142 0.949 . S
C1148 C1152 1.368 . S
C1149 C1130 1.429 . S
C1149 C1143 1.429 . S
C1149 C1150 1.523 . S
C1150 C1131 1.368 . S
C1150 C1144 1.368 . S
C1150 C1149 1.523 . S
C1151 C1135 1.429 . S
C1151 C1147 1.429 . S
C1151 C1152 1.523 . S
C1152 C1136 1.368 . S
C1152 C1148 1.368 . S
C1152 C1151 1.523 . S
H1153 C1128 0.950 . S
H1154 C1130 0.950 . S
H1155 C1131 0.949 . S
H1156 C1133 0.950 . S
H1157 C1135 0.950 . S
C1158 C1159 1.349 . S
C1158 C1160 1.327 1_545 S
C1158 H1183 0.950 . S
C1159 C1158 1.349 . S
C1159 C1175 1.349 1_545 S
C1160 C1158 1.327 1_565 S
C1160 C1179 1.429 . S
C1160 H1184 0.948 . S
C1161 C1178 1.574 . S
C1161 C1180 1.368 . S
C1161 H1185 0.949 . S
H1162 C1166 0.949 . S
C1163 C1164 1.349 . S
C1163 C1165 1.327 . S
C1163 H1186 0.950 . S
C1164 C1163 1.349 . S
C1164 C1176 1.349 . S
C1165 C1163 1.327 . S
C1165 C1181 1.429 . S
C1165 H1187 0.950 . S
C1166 H1162 0.949 . S
C1166 C1174 1.574 . S
C1166 C1182 1.368 . S
H1167 C1175 0.950 . S
H1168 C1173 0.950 . S
H1169 C1174 0.949 . S
H1170 C1176 0.950 . S
H1171 C1177 0.950 . S
H1172 C1178 0.949 . S
C1173 H1168 0.950 . S
C1173 C1175 1.327 . S
C1173 C1179 1.429 . S
C1174 C1166 1.574 . S
C1174 H1169 0.949 . S
C1174 C1180 1.368 . S
C1175 C1159 1.349 1_565 S
C1175 H1167 0.950 . S
C1175 C1173 1.327 . S
C1176 C1164 1.349 . S
C1176 H1170 0.950 . S
C1176 C1177 1.327 . S
C1177 H1171 0.950 . S
C1177 C1176 1.327 . S
C1177 C1181 1.429 . S
C1178 C1161 1.574 . S
C1178 H1172 0.949 . S
C1178 C1182 1.368 . S
C1179 C1160 1.429 . S
C1179 C1173 1.429 . S
C1179 C1180 1.523 . S
C1180 C1161 1.368 . S
C1180 C1174 1.368 . S
C1180 C1179 1.523 . S
C1181 C1165 1.429 . S
C1181 C1177 1.429 . S
C1181 C1182 1.523 . S
C1182 C1166 1.368 . S
C1182 C1178 1.368 . S
C1182 C1181 1.523 . S
H1183 C1158 0.950 . S
H1184 C1160 0.948 . S
H1185 C1161 0.949 . S
H1186 C1163 0.950 . S
H1187 C1165 0.950 . S
C1188 C1189 1.349 . S
C1188 C1190 1.327 . S
C1188 H1213 0.950 . S
C1189 C1188 1.349 . S
C1189 C1205 1.349 . S
C1190 C1188 1.327 . S
C1190 C1209 1.429 . S
C1190 H1214 0.950 . S
C1191 C1208 1.574 . S
C1191 C1210 1.368 . S
C1191 H1215 0.949 . S
H1192 C1196 0.949 . S
C1193 C1194 1.349 . S
C1193 C1195 1.327 1_545 S
C1193 H1216 0.950 . S
C1194 C1193 1.349 . S
C1194 C1206 1.349 . S
C1195 C1193 1.327 1_565 S
C1195 C1211 1.429 . S
C1195 H1217 0.950 . S
C1196 H1192 0.949 . S
C1196 C1204 1.574 1_554 S
C1196 C1212 1.368 . S
H1197 C1205 0.950 . S
H1198 C1203 0.950 . S
H1199 C1204 0.949 . S
H1200 C1206 0.950 . S
H1201 C1207 0.950 . S
H1202 C1208 0.949 . S
C1203 H1198 0.950 . S
C1203 C1205 1.327 . S
C1203 C1209 1.429 . S
C1204 C1196 1.574 1_556 S
C1204 H1199 0.949 . S
C1204 C1210 1.368 . S
C1205 C1189 1.349 . S
C1205 H1197 0.950 . S
C1205 C1203 1.327 . S
C1206 C1194 1.349 . S
C1206 H1200 0.950 . S
C1206 C1207 1.327 1_545 S
C1207 H1201 0.950 . S
C1207 C1206 1.327 1_565 S
C1207 C1211 1.429 . S
C1208 C1191 1.574 . S
C1208 H1202 0.949 . S
C1208 C1212 1.368 1_556 S
C1209 C1190 1.429 . S
C1209 C1203 1.429 . S
C1209 C1210 1.523 . S
C1210 C1191 1.368 . S
C1210 C1204 1.368 . S
C1210 C1209 1.523 . S
C1211 C1195 1.429 . S
C1211 C1207 1.429 . S
C1211 C1212 1.523 . S
C1212 C1196 1.368 . S
C1212 C1208 1.368 1_554 S
C1212 C1211 1.523 . S
H1213 C1188 0.950 . S
H1214 C1190 0.950 . S
H1215 C1191 0.949 . S
H1216 C1193 0.950 . S
H1217 C1195 0.950 . S
C1218 C1219 1.349 . S
C1218 C1220 1.327 . S
C1218 H1243 0.950 . S
C1219 C1218 1.349 . S
C1219 C1235 1.349 . S
C1220 C1218 1.327 . S
C1220 C1239 1.429 . S
C1220 H1244 0.950 . S
C1221 C1238 1.574 . S
C1221 C1240 1.368 . S
C1221 H1245 0.949 . S
H1222 C1226 0.949 . S
C1223 C1224 1.349 . S
C1223 C1225 1.325 . S
C1223 H1246 0.950 . S
C1224 C1223 1.349 . S
C1224 C1236 1.349 1_655 S
C1225 C1223 1.325 . S
C1225 C1241 1.431 1_655 S
C1225 H1247 0.949 1_554 S
C1226 H1222 0.949 . S
C1226 C1234 1.574 . S
C1226 C1242 1.368 . S
H1227 C1235 0.950 . S
H1228 C1233 0.950 . S
H1229 C1234 0.949 . S
H1230 C1236 0.950 . S
H1231 C1237 0.950 . S
H1232 C1238 0.949 . S
C1233 H1228 0.950 . S
C1233 C1235 1.327 . S
C1233 C1239 1.429 . S
C1234 C1226 1.574 . S
C1234 H1229 0.949 . S
C1234 C1240 1.368 1_554 S
C1235 C1219 1.349 . S
C1235 H1227 0.950 . S
C1235 C1233 1.327 . S
C1236 C1224 1.349 1_455 S
C1236 H1230 0.950 . S
C1236 C1237 1.327 . S
C1237 H1231 0.950 . S
C1237 C1236 1.327 . S
C1237 C1241 1.429 . S
C1238 C1221 1.574 . S
C1238 H1232 0.949 . S
C1238 C1242 1.368 1_556 S
C1239 C1220 1.429 . S
C1239 C1233 1.429 . S
C1239 C1240 1.523 . S
C1240 C1221 1.368 . S
C1240 C1234 1.368 1_556 S
C1240 C1239 1.523 . S
C1241 C1225 1.431 1_455 S
C1241 C1237 1.429 . S
C1241 C1242 1.523 . S
C1242 C1226 1.368 . S
C1242 C1238 1.368 1_554 S
C1242 C1241 1.523 . S
H1243 C1218 0.950 . S
H1244 C1220 0.950 . S
H1245 C1221 0.949 . S
H1246 C1223 0.950 . S
H1247 C1225 0.949 1_556 S
C1248 C1249 1.349 . S
C1248 C1250 1.327 . S
C1248 H1273 0.950 . S
C1249 C1248 1.349 . S
C1249 C1265 1.349 . S
C1250 C1248 1.327 . S
C1250 C1269 1.429 . S
C1250 H1274 0.950 . S
C1251 C1268 1.574 . S
C1251 C1270 1.368 . S
C1251 H1275 0.949 . S
H1252 C1256 0.949 . S
C1253 C1254 1.349 . S
C1253 C1255 1.327 . S
C1253 H1276 0.950 . S
C1254 C1253 1.349 . S
C1254 C1266 1.349 . S
C1255 C1253 1.327 . S
C1255 C1271 1.429 . S
C1255 H1277 0.950 1_554 S
C1256 H1252 0.949 . S
C1256 C1264 1.574 . S
C1256 C1272 1.368 . S
H1257 C1265 0.950 . S
H1258 C1263 0.950 . S
H1259 C1264 0.949 . S
H1260 C1266 0.950 . S
H1261 C1267 0.950 . S
H1262 C1268 0.949 . S
C1263 H1258 0.950 . S
C1263 C1265 1.327 . S
C1263 C1269 1.429 . S
C1264 C1256 1.574 . S
C1264 H1259 0.949 . S
C1264 C1270 1.368 1_554 S
C1265 C1249 1.349 . S
C1265 H1257 0.950 . S
C1265 C1263 1.327 . S
C1266 C1254 1.349 . S
C1266 H1260 0.950 . S
C1266 C1267 1.327 . S
C1267 H1261 0.950 . S
C1267 C1266 1.327 . S
C1267 C1271 1.429 . S
C1268 C1251 1.574 . S
C1268 H1262 0.949 . S
C1268 C1272 1.368 1_556 S
C1269 C1250 1.429 . S
C1269 C1263 1.429 . S
C1269 C1270 1.523 . S
C1270 C1251 1.368 . S
C1270 C1264 1.368 1_556 S
C1270 C1269 1.523 . S
C1271 C1255 1.429 . S
C1271 C1267 1.429 . S
C1271 C1272 1.523 . S
C1272 C1256 1.368 . S
C1272 C1268 1.368 1_554 S
C1272 C1271 1.523 . S
H1273 C1248 0.950 . S
H1274 C1250 0.950 . S
H1275 C1251 0.949 . S
H1276 C1253 0.950 . S
H1277 C1255 0.950 1_556 S
C1278 C1279 1.349 . S
C1278 C1280 1.327 . S
C1278 H1303 0.950 . S
C1279 C1278 1.349 . S
C1279 C1295 1.349 . S
C1280 C1278 1.327 . S
C1280 C1299 1.429 . S
C1280 H1304 0.950 . S
C1281 C1298 1.574 . S
C1281 C1300 1.368 . S
C1281 H1305 0.949 . S
H1282 C1286 0.949 . S
C1283 C1284 1.349 . S
C1283 C1285 1.334 . S
C1283 H1306 0.950 . S
C1284 C1283 1.349 . S
C1284 C1296 1.349 1_455 S
C1285 C1283 1.334 . S
C1285 C1301 1.423 1_455 S
C1285 H1307 0.949 . S
C1286 H1282 0.949 . S
C1286 C1294 1.574 . S
C1286 C1302 1.368 . S
H1287 C1295 0.950 . S
H1288 C1293 0.950 . S
H1289 C1294 0.949 . S
H1290 C1296 0.950 . S
H1291 C1297 0.950 . S
H1292 C1298 0.949 . S
C1293 H1288 0.950 . S
C1293 C1295 1.327 . S
C1293 C1299 1.429 . S
C1294 C1286 1.574 . S
C1294 H1289 0.949 . S
C1294 C1300 1.368 . S
C1295 C1279 1.349 . S
C1295 H1287 0.950 . S
C1295 C1293 1.327 . S
C1296 C1284 1.349 1_655 S
C1296 H1290 0.950 . S
C1296 C1297 1.327 . S
C1297 H1291 0.950 . S
C1297 C1296 1.327 . S
C1297 C1301 1.429 . S
C1298 C1281 1.574 . S
C1298 H1292 0.949 . S
C1298 C1302 1.368 . S
C1299 C1280 1.429 . S
C1299 C1293 1.429 . S
C1299 C1300 1.523 . S
C1300 C1281 1.368 . S
C1300 C1294 1.368 . S
C1300 C1299 1.523 . S
C1301 C1285 1.423 1_655 S
C1301 C1297 1.429 . S
C1301 C1302 1.523 . S
C1302 C1286 1.368 . S
C1302 C1298 1.368 . S
C1302 C1301 1.523 . S
H1303 C1278 0.950 . S
H1304 C1280 0.950 . S
H1305 C1281 0.949 . S
H1306 C1283 0.950 . S
H1307 C1285 0.949 . S
C1308 C1309 1.349 . S
C1308 C1310 1.327 . S
C1308 H1333 0.950 . S
C1309 C1308 1.349 . S
C1309 C1325 1.349 . S
C1310 C1308 1.327 . S
C1310 C1329 1.429 . S
C1310 H1334 0.950 . S
C1311 C1328 1.574 . S
C1311 C1330 1.368 . S
C1311 H1335 0.949 . S
H1312 C1316 0.949 . S
C1313 C1314 1.349 . S
C1313 C1315 1.327 . S
C1313 H1336 0.950 . S
C1314 C1313 1.349 . S
C1314 C1326 1.349 . S
C1315 C1313 1.327 . S
C1315 C1331 1.429 . S
C1315 H1337 0.950 . S
C1316 H1312 0.949 . S
C1316 C1324 1.574 . S
C1316 C1332 1.368 . S
H1317 C1325 0.950 . S
H1318 C1323 0.950 . S
H1319 C1324 0.949 . S
H1320 C1326 0.950 . S
H1321 C1327 0.950 . S
H1322 C1328 0.949 . S
C1323 H1318 0.950 . S
C1323 C1325 1.327 . S
C1323 C1329 1.429 . S
C1324 C1316 1.574 . S
C1324 H1319 0.949 . S
C1324 C1330 1.368 . S
C1325 C1309 1.349 . S
C1325 H1317 0.950 . S
C1325 C1323 1.327 . S
C1326 C1314 1.349 . S
C1326 H1320 0.950 . S
C1326 C1327 1.327 . S
C1327 H1321 0.950 . S
C1327 C1326 1.327 . S
C1327 C1331 1.429 . S
C1328 C1311 1.574 . S
C1328 H1322 0.949 . S
C1328 C1332 1.368 . S
C1329 C1310 1.429 . S
C1329 C1323 1.429 . S
C1329 C1330 1.523 . S
C1330 C1311 1.368 . S
C1330 C1324 1.368 . S
C1330 C1329 1.523 . S
C1331 C1315 1.429 . S
C1331 C1327 1.429 . S
C1331 C1332 1.523 . S
C1332 C1316 1.368 . S
C1332 C1328 1.368 . S
C1332 C1331 1.523 . S
H1333 C1308 0.950 . S
H1334 C1310 0.950 . S
H1335 C1311 0.949 . S
H1336 C1313 0.950 . S
H1337 C1315 0.950 . S
C1338 C1339 1.349 . S
C1338 C1340 1.327 1_565 S
C1338 H1363 0.950 . S
C1339 C1338 1.349 . S
C1339 C1355 1.349 1_565 S
C1340 C1338 1.327 1_545 S
C1340 C1359 1.429 . S
C1340 H1364 0.950 . S
C1341 C1358 1.574 . S
C1341 C1360 1.368 . S
C1341 H1365 0.949 . S
H1342 C1346 0.949 . S
C1343 C1344 1.349 . S
C1343 C1345 1.327 . S
C1343 H1366 0.950 . S
C1344 C1343 1.349 . S
C1344 C1356 1.349 . S
C1345 C1343 1.327 . S
C1345 C1361 1.429 . S
C1345 H1367 0.950 . S
C1346 H1342 0.949 . S
C1346 C1354 1.574 . S
C1346 C1362 1.368 . S
H1347 C1355 0.950 . S
H1348 C1353 0.950 . S
H1349 C1354 0.949 . S
H1350 C1356 0.950 . S
H1351 C1357 0.950 . S
H1352 C1358 0.949 . S
C1353 H1348 0.950 . S
C1353 C1355 1.327 . S
C1353 C1359 1.429 . S
C1354 C1346 1.574 . S
C1354 H1349 0.949 . S
C1354 C1360 1.368 . S
C1355 C1339 1.349 1_545 S
C1355 H1347 0.950 . S
C1355 C1353 1.327 . S
C1356 C1344 1.349 . S
C1356 H1350 0.950 . S
C1356 C1357 1.327 . S
C1357 H1351 0.950 . S
C1357 C1356 1.327 . S
C1357 C1361 1.429 . S
C1358 C1341 1.574 . S
C1358 H1352 0.949 . S
C1358 C1362 1.368 . S
C1359 C1340 1.429 . S
C1359 C1353 1.429 . S
C1359 C1360 1.523 . S
C1360 C1341 1.368 . S
C1360 C1354 1.368 . S
C1360 C1359 1.523 . S
C1361 C1345 1.429 . S
C1361 C1357 1.429 . S
C1361 C1362 1.523 . S
C1362 C1346 1.368 . S
C1362 C1358 1.368 . S
C1362 C1361 1.523 . S
H1363 C1338 0.950 . S
H1364 C1340 0.950 . S
H1365 C1341 0.949 . S
H1366 C1343 0.950 . S
H1367 C1345 0.950 . S
C1368 C1369 1.349 . S
C1368 C1370 1.327 . S
C1368 H1393 0.950 . S
C1369 C1368 1.349 . S
C1369 C1385 1.349 . S
C1370 C1368 1.327 . S
C1370 C1389 1.429 . S
C1370 H1394 0.950 . S
C1371 C1388 1.574 . S
C1371 C1390 1.368 . S
C1371 H1395 0.949 . S
H1372 C1376 0.949 . S
C1373 C1374 1.349 . S
C1373 C1375 1.327 . S
C1373 H1396 0.950 . S
C1374 C1373 1.349 . S
C1374 C1386 1.349 . S
C1375 C1373 1.327 . S
C1375 C1391 1.429 . S
C1375 H1397 0.950 . S
C1376 H1372 0.949 . S
C1376 C1384 1.574 . S
C1376 C1392 1.368 . S
H1377 C1385 0.950 . S
H1378 C1383 0.950 . S
H1379 C1384 0.949 . S
H1380 C1386 0.950 . S
H1381 C1387 0.950 . S
H1382 C1388 0.949 . S
C1383 H1378 0.950 . S
C1383 C1385 1.327 . S
C1383 C1389 1.429 . S
C1384 C1376 1.574 . S
C1384 H1379 0.949 . S
C1384 C1390 1.368 . S
C1385 C1369 1.349 . S
C1385 H1377 0.950 . S
C1385 C1383 1.327 . S
C1386 C1374 1.349 . S
C1386 H1380 0.950 . S
C1386 C1387 1.327 . S
C1387 H1381 0.950 . S
C1387 C1386 1.327 . S
C1387 C1391 1.429 . S
C1388 C1371 1.574 . S
C1388 H1382 0.949 . S
C1388 C1392 1.368 . S
C1389 C1370 1.429 . S
C1389 C1383 1.429 . S
C1389 C1390 1.523 . S
C1390 C1371 1.368 . S
C1390 C1384 1.368 . S
C1390 C1389 1.523 . S
C1391 C1375 1.429 . S
C1391 C1387 1.429 . S
C1391 C1392 1.523 . S
C1392 C1376 1.368 . S
C1392 C1388 1.368 . S
C1392 C1391 1.523 . S
H1393 C1368 0.950 . S
H1394 C1370 0.950 . S
H1395 C1371 0.949 . S
H1396 C1373 0.950 . S
H1397 C1375 0.950 . S
C1398 C1399 1.349 . S
C1398 C1400 1.327 . S
C1398 H1423 0.950 . S
C1399 C1398 1.349 . S
C1399 C1415 1.349 . S
C1400 C1398 1.327 . S
C1400 C1419 1.429 . S
C1400 H1424 0.950 . S
C1401 C1418 1.574 . S
C1401 C1420 1.368 . S
C1401 H1425 0.949 . S
H1402 C1406 0.949 . S
C1403 C1404 1.349 . S
C1403 C1405 1.327 . S
C1403 H1426 0.950 . S
C1404 C1403 1.349 . S
C1404 C1416 1.349 . S
C1405 C1403 1.327 . S
C1405 C1421 1.429 . S
C1405 H1427 0.950 . S
C1406 H1402 0.949 . S
C1406 C1414 1.574 . S
C1406 C1422 1.368 . S
H1407 C1415 0.950 . S
H1408 C1413 0.950 . S
H1409 C1414 0.949 . S
H1410 C1416 0.950 . S
H1411 C1417 0.950 . S
H1412 C1418 0.949 . S
C1413 H1408 0.950 . S
C1413 C1415 1.327 . S
C1413 C1419 1.429 . S
C1414 C1406 1.574 . S
C1414 H1409 0.949 . S
C1414 C1420 1.368 . S
C1415 C1399 1.349 . S
C1415 H1407 0.950 . S
C1415 C1413 1.327 . S
C1416 C1404 1.349 . S
C1416 H1410 0.950 . S
C1416 C1417 1.327 . S
C1417 H1411 0.950 . S
C1417 C1416 1.327 . S
C1417 C1421 1.429 . S
C1418 C1401 1.574 . S
C1418 H1412 0.949 . S
C1418 C1422 1.368 . S
C1419 C1400 1.429 . S
C1419 C1413 1.429 . S
C1419 C1420 1.523 . S
C1420 C1401 1.368 . S
C1420 C1414 1.368 . S
C1420 C1419 1.523 . S
C1421 C1405 1.429 . S
C1421 C1417 1.429 . S
C1421 C1422 1.523 . S
C1422 C1406 1.368 . S
C1422 C1418 1.368 . S
C1422 C1421 1.523 . S
H1423 C1398 0.950 . S
H1424 C1400 0.950 . S
H1425 C1401 0.949 . S
H1426 C1403 0.950 . S
H1427 C1405 0.950 . S
C1428 C1429 1.349 . S
C1428 C1430 1.327 . S
C1428 H1453 0.950 . S
C1429 C1428 1.349 . S
C1429 C1445 1.349 . S
C1430 C1428 1.327 . S
C1430 C1449 1.429 . S
C1430 H1454 0.950 . S
C1431 C1448 1.574 . S
C1431 C1450 1.368 . S
C1431 H1455 0.949 . S
H1432 C1436 0.949 . S
C1433 C1434 1.349 . S
C1433 C1435 1.327 . S
C1433 H1456 0.950 . S
C1434 C1433 1.349 . S
C1434 C1446 1.349 . S
C1435 C1433 1.327 . S
C1435 C1451 1.429 . S
C1435 H1457 0.950 . S
C1436 H1432 0.949 . S
C1436 C1444 1.574 . S
C1436 C1452 1.368 . S
H1437 C1445 0.950 . S
H1438 C1443 0.950 . S
H1439 C1444 0.949 . S
H1440 C1446 0.950 . S
H1441 C1447 0.950 . S
H1442 C1448 0.949 . S
C1443 H1438 0.950 . S
C1443 C1445 1.327 . S
C1443 C1449 1.429 . S
C1444 C1436 1.574 . S
C1444 H1439 0.949 . S
C1444 C1450 1.368 . S
C1445 C1429 1.349 . S
C1445 H1437 0.950 . S
C1445 C1443 1.327 . S
C1446 C1434 1.349 . S
C1446 H1440 0.950 . S
C1446 C1447 1.327 . S
C1447 H1441 0.950 . S
C1447 C1446 1.327 . S
C1447 C1451 1.429 . S
C1448 C1431 1.574 . S
C1448 H1442 0.949 . S
C1448 C1452 1.368 . S
C1449 C1430 1.429 . S
C1449 C1443 1.429 . S
C1449 C1450 1.523 . S
C1450 C1431 1.368 . S
C1450 C1444 1.368 . S
C1450 C1449 1.523 . S
C1451 C1435 1.429 . S
C1451 C1447 1.429 . S
C1451 C1452 1.523 . S
C1452 C1436 1.368 . S
C1452 C1448 1.368 . S
C1452 C1451 1.523 . S
H1453 C1428 0.950 . S
H1454 C1430 0.950 . S
H1455 C1431 0.949 . S
H1456 C1433 0.950 . S
H1457 C1435 0.950 . S
C1458 C1459 1.349 . S
C1458 C1460 1.327 . S
C1458 H1483 0.950 . S
C1459 C1458 1.349 . S
C1459 C1475 1.349 . S
C1460 C1458 1.327 . S
C1460 C1479 1.429 . S
C1460 H1484 0.950 . S
C1461 C1478 1.574 . S
C1461 C1480 1.368 . S
C1461 H1485 0.949 . S
H1462 C1466 0.949 . S
C1463 C1464 1.349 . S
C1463 C1465 1.327 . S
C1463 H1486 0.950 . S
C1464 C1463 1.349 . S
C1464 C1476 1.349 . S
C1465 C1463 1.327 . S
C1465 C1481 1.429 . S
C1465 H1487 0.950 . S
C1466 H1462 0.949 . S
C1466 C1474 1.574 . S
C1466 C1482 1.368 . S
H1467 C1475 0.950 . S
H1468 C1473 0.950 . S
H1469 C1474 0.949 . S
H1470 C1476 0.950 . S
H1471 C1477 0.950 . S
H1472 C1478 0.949 . S
C1473 H1468 0.950 . S
C1473 C1475 1.327 . S
C1473 C1479 1.429 . S
C1474 C1466 1.574 . S
C1474 H1469 0.949 . S
C1474 C1480 1.368 . S
C1475 C1459 1.349 . S
C1475 H1467 0.950 . S
C1475 C1473 1.327 . S
C1476 C1464 1.349 . S
C1476 H1470 0.950 . S
C1476 C1477 1.327 . S
C1477 H1471 0.950 . S
C1477 C1476 1.327 . S
C1477 C1481 1.429 . S
C1478 C1461 1.574 . S
C1478 H1472 0.949 . S
C1478 C1482 1.368 . S
C1479 C1460 1.429 . S
C1479 C1473 1.429 . S
C1479 C1480 1.523 . S
C1480 C1461 1.368 . S
C1480 C1474 1.368 . S
C1480 C1479 1.523 . S
C1481 C1465 1.429 . S
C1481 C1477 1.429 . S
C1481 C1482 1.523 . S
C1482 C1466 1.368 . S
C1482 C1478 1.368 . S
C1482 C1481 1.523 . S
H1483 C1458 0.950 . S
H1484 C1460 0.950 . S
H1485 C1461 0.949 . S
H1486 C1463 0.950 . S
H1487 C1465 0.950 . S
C1488 C1489 1.349 . S
C1488 C1490 1.327 . S
C1488 H1513 0.950 . S
C1489 C1488 1.349 . S
C1489 C1505 1.349 . S
C1490 C1488 1.327 . S
C1490 C1509 1.429 . S
C1490 H1514 0.950 . S
C1491 C1508 1.574 . S
C1491 C1510 1.368 . S
C1491 H1515 0.949 . S
H1492 C1496 0.949 . S
C1493 C1494 1.349 . S
C1493 C1495 1.327 . S
C1493 H1516 0.950 . S
C1494 C1493 1.349 . S
C1494 C1506 1.349 . S
C1495 C1493 1.327 . S
C1495 C1511 1.429 . S
C1495 H1517 0.950 . S
C1496 H1492 0.949 . S
C1496 C1504 1.574 . S
C1496 C1512 1.368 . S
H1497 C1505 0.950 . S
H1498 C1503 0.950 . S
H1499 C1504 0.949 . S
H1500 C1506 0.950 . S
H1501 C1507 0.950 . S
H1502 C1508 0.949 . S
C1503 H1498 0.950 . S
C1503 C1505 1.327 . S
C1503 C1509 1.429 . S
C1504 C1496 1.574 . S
C1504 H1499 0.949 . S
C1504 C1510 1.368 . S
C1505 C1489 1.349 . S
C1505 H1497 0.950 . S
C1505 C1503 1.327 . S
C1506 C1494 1.349 . S
C1506 H1500 0.950 . S
C1506 C1507 1.327 . S
C1507 H1501 0.950 . S
C1507 C1506 1.327 . S
C1507 C1511 1.429 . S
C1508 C1491 1.574 . S
C1508 H1502 0.949 . S
C1508 C1512 1.368 . S
C1509 C1490 1.429 . S
C1509 C1503 1.429 . S
C1509 C1510 1.523 . S
C1510 C1491 1.368 . S
C1510 C1504 1.368 . S
C1510 C1509 1.523 . S
C1511 C1495 1.429 . S
C1511 C1507 1.429 . S
C1511 C1512 1.523 . S
C1512 C1496 1.368 . S
C1512 C1508 1.368 . S
C1512 C1511 1.523 . S
H1513 C1488 0.950 . S
H1514 C1490 0.950 . S
H1515 C1491 0.949 . S
H1516 C1493 0.950 . S
H1517 C1495 0.950 . S
C1518 C1519 1.349 . S
C1518 C1520 1.327 . S
C1518 H1543 0.950 . S
C1519 C1518 1.349 . S
C1519 C1535 1.349 . S
C1520 C1518 1.327 . S
C1520 C1539 1.429 . S
C1520 H1544 0.950 . S
C1521 C1538 1.574 . S
C1521 C1540 1.368 . S
C1521 H1545 0.949 . S
H1522 C1526 0.949 . S
C1523 C1524 1.349 . S
C1523 C1525 1.327 . S
C1523 H1546 0.950 . S
C1524 C1523 1.349 . S
C1524 C1536 1.349 . S
C1525 C1523 1.327 . S
C1525 C1541 1.429 . S
C1525 H1547 0.950 . S
C1526 H1522 0.949 . S
C1526 C1534 1.574 . S
C1526 C1542 1.368 . S
H1527 C1535 0.950 . S
H1528 C1533 0.950 . S
H1529 C1534 0.949 . S
H1530 C1536 0.950 . S
H1531 C1537 0.950 . S
H1532 C1538 0.949 . S
C1533 H1528 0.950 . S
C1533 C1535 1.327 . S
C1533 C1539 1.429 . S
C1534 C1526 1.574 . S
C1534 H1529 0.949 . S
C1534 C1540 1.368 . S
C1535 C1519 1.349 . S
C1535 H1527 0.950 . S
C1535 C1533 1.327 . S
C1536 C1524 1.349 . S
C1536 H1530 0.950 . S
C1536 C1537 1.327 . S
C1537 H1531 0.950 . S
C1537 C1536 1.327 . S
C1537 C1541 1.429 . S
C1538 C1521 1.574 . S
C1538 H1532 0.949 . S
C1538 C1542 1.368 . S
C1539 C1520 1.429 . S
C1539 C1533 1.429 . S
C1539 C1540 1.523 . S
C1540 C1521 1.368 . S
C1540 C1534 1.368 . S
C1540 C1539 1.523 . S
C1541 C1525 1.429 . S
C1541 C1537 1.429 . S
C1541 C1542 1.523 . S
C1542 C1526 1.368 . S
C1542 C1538 1.368 . S
C1542 C1541 1.523 . S
H1543 C1518 0.950 . S
H1544 C1520 0.950 . S
H1545 C1521 0.949 . S
H1546 C1523 0.950 . S
H1547 C1525 0.950 . S
C1548 C1549 1.349 . S
C1548 C1550 1.327 . S
C1548 H1573 0.950 . S
C1549 C1548 1.349 . S
C1549 C1565 1.349 . S
C1550 C1548 1.327 . S
C1550 C1569 1.429 . S
C1550 H1574 0.950 . S
C1551 C1568 1.574 . S
C1551 C1570 1.368 . S
C1551 H1575 0.949 . S
H1552 C1556 0.949 . S
C1553 C1554 1.349 . S
C1553 C1555 1.327 . S
C1553 H1576 0.950 . S
C1554 C1553 1.349 . S
C1554 C1566 1.349 . S
C1555 C1553 1.327 . S
C1555 C1571 1.429 . S
C1555 H1577 0.950 . S
C1556 H1552 0.949 . S
C1556 C1564 1.574 . S
C1556 C1572 1.368 . S
H1557 C1565 0.950 . S
H1558 C1563 0.950 . S
H1559 C1564 0.949 . S
H1560 C1566 0.950 . S
H1561 C1567 0.950 . S
H1562 C1568 0.949 . S
C1563 H1558 0.950 . S
C1563 C1565 1.327 . S
C1563 C1569 1.429 . S
C1564 C1556 1.574 . S
C1564 H1559 0.949 . S
C1564 C1570 1.368 . S
C1565 C1549 1.349 . S
C1565 H1557 0.950 . S
C1565 C1563 1.327 . S
C1566 C1554 1.349 . S
C1566 H1560 0.950 . S
C1566 C1567 1.327 . S
C1567 H1561 0.950 . S
C1567 C1566 1.327 . S
C1567 C1571 1.429 . S
C1568 C1551 1.574 . S
C1568 H1562 0.949 . S
C1568 C1572 1.368 . S
C1569 C1550 1.429 . S
C1569 C1563 1.429 . S
C1569 C1570 1.523 . S
C1570 C1551 1.368 . S
C1570 C1564 1.368 . S
C1570 C1569 1.523 . S
C1571 C1555 1.429 . S
C1571 C1567 1.429 . S
C1571 C1572 1.523 . S
C1572 C1556 1.368 . S
C1572 C1568 1.368 . S
C1572 C1571 1.523 . S
H1573 C1548 0.950 . S
H1574 C1550 0.950 . S
H1575 C1551 0.949 . S
H1576 C1553 0.950 . S
H1577 C1555 0.950 . S
C1578 C1579 1.349 . S
C1578 C1580 1.327 . S
C1578 H1603 0.950 . S
C1579 C1578 1.349 . S
C1579 C1595 1.349 . S
C1580 C1578 1.327 . S
C1580 C1599 1.429 . S
C1580 H1604 0.950 . S
C1581 C1598 1.574 . S
C1581 C1600 1.368 . S
C1581 H1605 0.949 . S
H1582 C1586 0.949 . S
C1583 C1584 1.349 . S
C1583 C1585 1.327 . S
C1583 H1606 0.950 . S
C1584 C1583 1.349 . S
C1584 C1596 1.349 . S
C1585 C1583 1.327 . S
C1585 C1601 1.429 . S
C1585 H1607 0.950 . S
C1586 H1582 0.949 . S
C1586 C1594 1.574 . S
C1586 C1602 1.368 . S
H1587 C1595 0.950 . S
H1588 C1593 0.950 . S
H1589 C1594 0.949 . S
H1590 C1596 0.950 . S
H1591 C1597 0.950 . S
H1592 C1598 0.949 . S
C1593 H1588 0.950 . S
C1593 C1595 1.327 . S
C1593 C1599 1.429 . S
C1594 C1586 1.574 . S
C1594 H1589 0.949 . S
C1594 C1600 1.368 . S
C1595 C1579 1.349 . S
C1595 H1587 0.950 . S
C1595 C1593 1.327 . S
C1596 C1584 1.349 . S
C1596 H1590 0.950 . S
C1596 C1597 1.327 . S
C1597 H1591 0.950 . S
C1597 C1596 1.327 . S
C1597 C1601 1.429 . S
C1598 C1581 1.574 . S
C1598 H1592 0.949 . S
C1598 C1602 1.368 . S
C1599 C1580 1.429 . S
C1599 C1593 1.429 . S
C1599 C1600 1.523 . S
C1600 C1581 1.368 . S
C1600 C1594 1.368 . S
C1600 C1599 1.523 . S
C1601 C1585 1.429 . S
C1601 C1597 1.429 . S
C1601 C1602 1.523 . S
C1602 C1586 1.368 . S
C1602 C1598 1.368 . S
C1602 C1601 1.523 . S
H1603 C1578 0.950 . S
H1604 C1580 0.950 . S
H1605 C1581 0.949 . S
H1606 C1583 0.950 . S
H1607 C1585 0.950 . S
C1608 C1609 1.349 . S
C1608 C1610 1.327 . S
C1608 H1633 0.950 . S
C1609 C1608 1.349 . S
C1609 C1625 1.349 . S
C1610 C1608 1.327 . S
C1610 C1629 1.429 . S
C1610 H1634 0.950 . S
C1611 C1628 1.574 . S
C1611 C1630 1.368 . S
C1611 H1635 0.949 . S
H1612 C1616 0.949 . S
C1613 C1614 1.349 . S
C1613 C1615 1.327 . S
C1613 H1636 0.950 . S
C1614 C1613 1.349 . S
C1614 C1626 1.349 . S
C1615 C1613 1.327 . S
C1615 C1631 1.429 . S
C1615 H1637 0.950 . S
C1616 H1612 0.949 . S
C1616 C1624 1.574 . S
C1616 C1632 1.368 . S
H1617 C1625 0.950 . S
H1618 C1623 0.950 . S
H1619 C1624 0.949 . S
H1620 C1626 0.950 . S
H1621 C1627 0.950 . S
H1622 C1628 0.949 . S
C1623 H1618 0.950 . S
C1623 C1625 1.327 . S
C1623 C1629 1.429 . S
C1624 C1616 1.574 . S
C1624 H1619 0.949 . S
C1624 C1630 1.368 . S
C1625 C1609 1.349 . S
C1625 H1617 0.950 . S
C1625 C1623 1.327 . S
C1626 C1614 1.349 . S
C1626 H1620 0.950 . S
C1626 C1627 1.327 . S
C1627 H1621 0.950 . S
C1627 C1626 1.327 . S
C1627 C1631 1.429 . S
C1628 C1611 1.574 . S
C1628 H1622 0.949 . S
C1628 C1632 1.368 . S
C1629 C1610 1.429 . S
C1629 C1623 1.429 . S
C1629 C1630 1.523 . S
C1630 C1611 1.368 . S
C1630 C1624 1.368 . S
C1630 C1629 1.523 . S
C1631 C1615 1.429 . S
C1631 C1627 1.429 . S
C1631 C1632 1.523 . S
C1632 C1616 1.368 . S
C1632 C1628 1.368 . S
C1632 C1631 1.523 . S
H1633 C1608 0.950 . S
H1634 C1610 0.950 . S
H1635 C1611 0.949 . S
H1636 C1613 0.950 . S
H1637 C1615 0.950 . S
C1638 C1639 1.349 . S
C1638 C1640 1.327 . S
C1638 H1663 0.950 . S
C1639 C1638 1.349 . S
C1639 C1655 1.349 . S
C1640 C1638 1.327 . S
C1640 C1659 1.429 . S
C1640 H1664 0.950 . S
C1641 C1658 1.574 . S
C1641 C1660 1.368 . S
C1641 H1665 0.949 . S
H1642 C1646 0.949 . S
C1643 C1644 1.349 . S
C1643 C1645 1.327 . S
C1643 H1666 0.950 . S
C1644 C1643 1.349 . S
C1644 C1656 1.349 . S
C1645 C1643 1.327 . S
C1645 C1661 1.429 . S
C1645 H1667 0.950 . S
C1646 H1642 0.949 . S
C1646 C1654 1.574 . S
C1646 C1662 1.368 . S
H1647 C1655 0.950 . S
H1648 C1653 0.950 . S
H1649 C1654 0.949 . S
H1650 C1656 0.950 . S
H1651 C1657 0.950 . S
H1652 C1658 0.949 . S
C1653 H1648 0.950 . S
C1653 C1655 1.327 . S
C1653 C1659 1.429 . S
C1654 C1646 1.574 . S
C1654 H1649 0.949 . S
C1654 C1660 1.368 . S
C1655 C1639 1.349 . S
C1655 H1647 0.950 . S
C1655 C1653 1.327 . S
C1656 C1644 1.349 . S
C1656 H1650 0.950 . S
C1656 C1657 1.327 . S
C1657 H1651 0.950 . S
C1657 C1656 1.327 . S
C1657 C1661 1.429 . S
C1658 C1641 1.574 . S
C1658 H1652 0.949 . S
C1658 C1662 1.368 . S
C1659 C1640 1.429 . S
C1659 C1653 1.429 . S
C1659 C1660 1.523 . S
C1660 C1641 1.368 . S
C1660 C1654 1.368 . S
C1660 C1659 1.523 . S
C1661 C1645 1.429 . S
C1661 C1657 1.429 . S
C1661 C1662 1.523 . S
C1662 C1646 1.368 . S
C1662 C1658 1.368 . S
C1662 C1661 1.523 . S
H1663 C1638 0.950 . S
H1664 C1640 0.950 . S
H1665 C1641 0.949 . S
H1666 C1643 0.950 . S
H1667 C1645 0.950 . S
C1668 C1669 1.349 . S
C1668 C1670 1.327 . S
C1668 H1693 0.950 . S
C1669 C1668 1.349 . S
C1669 C1685 1.349 . S
C1670 C1668 1.327 . S
C1670 C1689 1.429 . S
C1670 H1694 0.950 . S
C1671 C1688 1.574 . S
C1671 C1690 1.368 . S
C1671 H1695 0.949 . S
H1672 C1676 0.949 . S
C1673 C1674 1.349 . S
C1673 C1675 1.327 . S
C1673 H1696 0.950 . S
C1674 C1673 1.349 . S
C1674 C1686 1.349 . S
C1675 C1673 1.327 . S
C1675 C1691 1.429 . S
C1675 H1697 0.950 . S
C1676 H1672 0.949 . S
C1676 C1684 1.574 . S
C1676 C1692 1.368 . S
H1677 C1685 0.950 . S
H1678 C1683 0.950 . S
H1679 C1684 0.949 . S
H1680 C1686 0.950 . S
H1681 C1687 0.950 . S
H1682 C1688 0.949 . S
C1683 H1678 0.950 . S
C1683 C1685 1.327 . S
C1683 C1689 1.429 . S
C1684 C1676 1.574 . S
C1684 H1679 0.949 . S
C1684 C1690 1.368 . S
C1685 C1669 1.349 . S
C1685 H1677 0.950 . S
C1685 C1683 1.327 . S
C1686 C1674 1.349 . S
C1686 H1680 0.950 . S
C1686 C1687 1.327 . S
C1687 H1681 0.950 . S
C1687 C1686 1.327 . S
C1687 C1691 1.429 . S
C1688 C1671 1.574 . S
C1688 H1682 0.949 . S
C1688 C1692 1.368 . S
C1689 C1670 1.429 . S
C1689 C1683 1.429 . S
C1689 C1690 1.523 . S
C1690 C1671 1.368 . S
C1690 C1684 1.368 . S
C1690 C1689 1.523 . S
C1691 C1675 1.429 . S
C1691 C1687 1.429 . S
C1691 C1692 1.523 . S
C1692 C1676 1.368 . S
C1692 C1688 1.368 . S
C1692 C1691 1.523 . S
H1693 C1668 0.950 . S
H1694 C1670 0.950 . S
H1695 C1671 0.949 . S
H1696 C1673 0.950 . S
H1697 C1675 0.950 . S
C1698 C1699 1.349 . S
C1698 C1700 1.327 . S
C1698 H1723 0.950 . S
C1699 C1698 1.349 . S
C1699 C1715 1.349 . S
C1700 C1698 1.327 . S
C1700 C1719 1.429 . S
C1700 H1724 0.950 . S
C1701 C1718 1.574 . S
C1701 C1720 1.368 . S
C1701 H1725 0.949 . S
H1702 C1706 0.949 . S
C1703 C1704 1.349 . S
C1703 C1705 1.327 . S
C1703 H1726 0.950 . S
C1704 C1703 1.349 . S
C1704 C1716 1.349 . S
C1705 C1703 1.327 . S
C1705 C1721 1.429 . S
C1705 H1727 0.950 . S
C1706 H1702 0.949 . S
C1706 C1714 1.574 . S
C1706 C1722 1.368 . S
H1707 C1715 0.950 . S
H1708 C1713 0.950 . S
H1709 C1714 0.949 . S
H1710 C1716 0.950 . S
H1711 C1717 0.950 . S
H1712 C1718 0.949 . S
C1713 H1708 0.950 . S
C1713 C1715 1.327 . S
C1713 C1719 1.429 . S
C1714 C1706 1.574 . S
C1714 H1709 0.949 . S
C1714 C1720 1.368 . S
C1715 C1699 1.349 . S
C1715 H1707 0.950 . S
C1715 C1713 1.327 . S
C1716 C1704 1.349 . S
C1716 H1710 0.950 . S
C1716 C1717 1.327 . S
C1717 H1711 0.950 . S
C1717 C1716 1.327 . S
C1717 C1721 1.429 . S
C1718 C1701 1.574 . S
C1718 H1712 0.949 . S
C1718 C1722 1.368 . S
C1719 C1700 1.429 . S
C1719 C1713 1.429 . S
C1719 C1720 1.523 . S
C1720 C1701 1.368 . S
C1720 C1714 1.368 . S
C1720 C1719 1.523 . S
C1721 C1705 1.429 . S
C1721 C1717 1.429 . S
C1721 C1722 1.523 . S
C1722 C1706 1.368 . S
C1722 C1718 1.368 . S
C1722 C1721 1.523 . S
H1723 C1698 0.950 . S
H1724 C1700 0.950 . S
H1725 C1701 0.949 . S
H1726 C1703 0.950 . S
H1727 C1705 0.950 . S
C1728 C1729 1.349 . S
C1728 C1730 1.327 . S
C1728 H1753 0.950 . S
C1729 C1728 1.349 . S
C1729 C1745 1.349 . S
C1730 C1728 1.327 . S
C1730 C1749 1.429 . S
C1730 H1754 0.950 . S
C1731 C1748 1.574 . S
C1731 C1750 1.368 . S
C1731 H1755 0.949 . S
H1732 C1736 0.949 . S
C1733 C1734 1.349 . S
C1733 C1735 1.327 . S
C1733 H1756 0.950 . S
C1734 C1733 1.349 . S
C1734 C1746 1.349 . S
C1735 C1733 1.327 . S
C1735 C1751 1.429 . S
C1735 H1757 0.950 . S
C1736 H1732 0.949 . S
C1736 C1744 1.574 . S
C1736 C1752 1.368 . S
H1737 C1745 0.950 . S
H1738 C1743 0.950 . S
H1739 C1744 0.949 . S
H1740 C1746 0.950 . S
H1741 C1747 0.950 . S
H1742 C1748 0.949 . S
C1743 H1738 0.950 . S
C1743 C1745 1.327 . S
C1743 C1749 1.429 . S
C1744 C1736 1.574 . S
C1744 H1739 0.949 . S
C1744 C1750 1.368 . S
C1745 C1729 1.349 . S
C1745 H1737 0.950 . S
C1745 C1743 1.327 . S
C1746 C1734 1.349 . S
C1746 H1740 0.950 . S
C1746 C1747 1.327 . S
C1747 H1741 0.950 . S
C1747 C1746 1.327 . S
C1747 C1751 1.429 . S
C1748 C1731 1.574 . S
C1748 H1742 0.949 . S
C1748 C1752 1.368 . S
C1749 C1730 1.429 . S
C1749 C1743 1.429 . S
C1749 C1750 1.523 . S
C1750 C1731 1.368 . S
C1750 C1744 1.368 . S
C1750 C1749 1.523 . S
C1751 C1735 1.429 . S
C1751 C1747 1.429 . S
C1751 C1752 1.523 . S
C1752 C1736 1.368 . S
C1752 C1748 1.368 . S
C1752 C1751 1.523 . S
H1753 C1728 0.950 . S
H1754 C1730 0.950 . S
H1755 C1731 0.949 . S
H1756 C1733 0.950 . S
H1757 C1735 0.950 . S
C1758 C1759 1.349 . S
C1758 C1760 1.327 . S
C1758 H1783 0.950 . S
C1759 C1758 1.349 . S
C1759 C1775 1.349 . S
C1760 C1758 1.327 . S
C1760 C1779 1.429 . S
C1760 H1784 0.950 . S
C1761 C1778 1.574 . S
C1761 C1780 1.368 . S
C1761 H1785 0.949 . S
H1762 C1766 0.949 . S
C1763 C1764 1.349 . S
C1763 C1765 1.327 . S
C1763 H1786 0.950 . S
C1764 C1763 1.349 . S
C1764 C1776 1.349 . S
C1765 C1763 1.327 . S
C1765 C1781 1.429 . S
C1765 H1787 0.950 . S
C1766 H1762 0.949 . S
C1766 C1774 1.574 . S
C1766 C1782 1.368 . S
H1767 C1775 0.950 . S
H1768 C1773 0.950 . S
H1769 C1774 0.949 . S
H1770 C1776 0.950 . S
H1771 C1777 0.950 . S
H1772 C1778 0.949 . S
C1773 H1768 0.950 . S
C1773 C1775 1.327 . S
C1773 C1779 1.429 . S
C1774 C1766 1.574 . S
C1774 H1769 0.949 . S
C1774 C1780 1.368 . S
C1775 C1759 1.349 . S
C1775 H1767 0.950 . S
C1775 C1773 1.327 . S
C1776 C1764 1.349 . S
C1776 H1770 0.950 . S
C1776 C1777 1.327 . S
C1777 H1771 0.950 . S
C1777 C1776 1.327 . S
C1777 C1781 1.429 . S
C1778 C1761 1.574 . S
C1778 H1772 0.949 . S
C1778 C1782 1.368 . S
C1779 C1760 1.429 . S
C1779 C1773 1.429 . S
C1779 C1780 1.523 . S
C1780 C1761 1.368 . S
C1780 C1774 1.368 . S
C1780 C1779 1.523 . S
C1781 C1765 1.429 . S
C1781 C1777 1.429 . S
C1781 C1782 1.523 . S
C1782 C1766 1.368 . S
C1782 C1778 1.368 . S
C1782 C1781 1.523 . S
H1783 C1758 0.950 . S
H1784 C1760 0.950 . S
H1785 C1761 0.949 . S
H1786 C1763 0.950 . S
H1787 C1765 0.950 . S
C1788 C1789 1.349 . S
C1788 C1790 1.327 . S
C1788 H1813 0.950 . S
C1789 C1788 1.349 . S
C1789 C1805 1.349 . S
C1790 C1788 1.327 . S
C1790 C1809 1.429 . S
C1790 H1814 0.950 . S
C1791 C1808 1.574 . S
C1791 C1810 1.368 . S
C1791 H1815 0.949 . S
H1792 C1796 0.949 . S
C1793 C1794 1.349 . S
C1793 C1795 1.327 . S
C1793 H1816 0.950 . S
C1794 C1793 1.349 . S
C1794 C1806 1.349 . S
C1795 C1793 1.327 . S
C1795 C1811 1.429 . S
C1795 H1817 0.950 . S
C1796 H1792 0.949 . S
C1796 C1804 1.574 . S
C1796 C1812 1.368 . S
H1797 C1805 0.950 . S
H1798 C1803 0.950 . S
H1799 C1804 0.949 . S
H1800 C1806 0.950 . S
H1801 C1807 0.950 . S
H1802 C1808 0.949 . S
C1803 H1798 0.950 . S
C1803 C1805 1.327 . S
C1803 C1809 1.429 . S
C1804 C1796 1.574 . S
C1804 H1799 0.949 . S
C1804 C1810 1.368 . S
C1805 C1789 1.349 . S
C1805 H1797 0.950 . S
C1805 C1803 1.327 . S
C1806 C1794 1.349 . S
C1806 H1800 0.950 . S
C1806 C1807 1.327 . S
C1807 H1801 0.950 . S
C1807 C1806 1.327 . S
C1807 C1811 1.429 . S
C1808 C1791 1.574 . S
C1808 H1802 0.949 . S
C1808 C1812 1.368 . S
C1809 C1790 1.429 . S
C1809 C1803 1.429 . S
C1809 C1810 1.523 . S
C1810 C1791 1.368 . S
C1810 C1804 1.368 . S
C1810 C1809 1.523 . S
C1811 C1795 1.429 . S
C1811 C1807 1.429 . S
C1811 C1812 1.523 . S
C1812 C1796 1.368 . S
C1812 C1808 1.368 . S
C1812 C1811 1.523 . S
H1813 C1788 0.950 . S
H1814 C1790 0.950 . S
H1815 C1791 0.949 . S
H1816 C1793 0.950 . S
H1817 C1795 0.950 . S
C1818 C1819 1.349 . S
C1818 C1820 1.327 . S
C1818 H1843 0.950 . S
C1819 C1818 1.349 . S
C1819 C1835 1.349 . S
C1820 C1818 1.327 . S
C1820 C1839 1.429 . S
C1820 H1844 0.950 . S
C1821 C1838 1.574 . S
C1821 C1840 1.368 . S
C1821 H1845 0.949 . S
H1822 C1826 0.949 . S
C1823 C1824 1.349 . S
C1823 C1825 1.327 . S
C1823 H1846 0.950 . S
C1824 C1823 1.349 . S
C1824 C1836 1.349 . S
C1825 C1823 1.327 . S
C1825 C1841 1.429 . S
C1825 H1847 0.950 . S
C1826 H1822 0.949 . S
C1826 C1834 1.574 . S
C1826 C1842 1.368 . S
H1827 C1835 0.950 . S
H1828 C1833 0.950 . S
H1829 C1834 0.949 . S
H1830 C1836 0.950 . S
H1831 C1837 0.950 . S
H1832 C1838 0.949 . S
C1833 H1828 0.950 . S
C1833 C1835 1.327 . S
C1833 C1839 1.429 . S
C1834 C1826 1.574 . S
C1834 H1829 0.949 . S
C1834 C1840 1.368 . S
C1835 C1819 1.349 . S
C1835 H1827 0.950 . S
C1835 C1833 1.327 . S
C1836 C1824 1.349 . S
C1836 H1830 0.950 . S
C1836 C1837 1.327 . S
C1837 H1831 0.950 . S
C1837 C1836 1.327 . S
C1837 C1841 1.429 . S
C1838 C1821 1.574 . S
C1838 H1832 0.949 . S
C1838 C1842 1.368 . S
C1839 C1820 1.429 . S
C1839 C1833 1.429 . S
C1839 C1840 1.523 . S
C1840 C1821 1.368 . S
C1840 C1834 1.368 . S
C1840 C1839 1.523 . S
C1841 C1825 1.429 . S
C1841 C1837 1.429 . S
C1841 C1842 1.523 . S
C1842 C1826 1.368 . S
C1842 C1838 1.368 . S
C1842 C1841 1.523 . S
H1843 C1818 0.950 . S
H1844 C1820 0.950 . S
H1845 C1821 0.949 . S
H1846 C1823 0.950 . S
H1847 C1825 0.950 . S
C1848 C1849 1.349 . S
C1848 C1850 1.327 . S
C1848 H1873 0.950 . S
C1849 C1848 1.349 . S
C1849 C1865 1.349 . S
C1850 C1848 1.327 . S
C1850 C1869 1.429 . S
C1850 H1874 0.950 . S
C1851 C1868 1.574 . S
C1851 C1870 1.368 . S
C1851 H1875 0.949 . S
H1852 C1856 0.949 . S
C1853 C1854 1.349 . S
C1853 C1855 1.327 . S
C1853 H1876 0.950 . S
C1854 C1853 1.349 . S
C1854 C1866 1.349 . S
C1855 C1853 1.327 . S
C1855 C1871 1.429 . S
C1855 H1877 0.950 . S
C1856 H1852 0.949 . S
C1856 C1864 1.574 . S
C1856 C1872 1.368 . S
H1857 C1865 0.950 . S
H1858 C1863 0.950 . S
H1859 C1864 0.949 . S
H1860 C1866 0.950 . S
H1861 C1867 0.950 . S
H1862 C1868 0.949 . S
C1863 H1858 0.950 . S
C1863 C1865 1.327 . S
C1863 C1869 1.429 . S
C1864 C1856 1.574 . S
C1864 H1859 0.949 . S
C1864 C1870 1.368 . S
C1865 C1849 1.349 . S
C1865 H1857 0.950 . S
C1865 C1863 1.327 . S
C1866 C1854 1.349 . S
C1866 H1860 0.950 . S
C1866 C1867 1.327 . S
C1867 H1861 0.950 . S
C1867 C1866 1.327 . S
C1867 C1871 1.429 . S
C1868 C1851 1.574 . S
C1868 H1862 0.949 . S
C1868 C1872 1.368 . S
C1869 C1850 1.429 . S
C1869 C1863 1.429 . S
C1869 C1870 1.523 . S
C1870 C1851 1.368 . S
C1870 C1864 1.368 . S
C1870 C1869 1.523 . S
C1871 C1855 1.429 . S
C1871 C1867 1.429 . S
C1871 C1872 1.523 . S
C1872 C1856 1.368 . S
C1872 C1868 1.368 . S
C1872 C1871 1.523 . S
H1873 C1848 0.950 . S
H1874 C1850 0.950 . S
H1875 C1851 0.949 . S
H1876 C1853 0.950 . S
H1877 C1855 0.950 . S
C1878 C1879 1.349 . S
C1878 C1880 1.327 . S
C1878 H1903 0.950 . S
C1879 C1878 1.349 . S
C1879 C1895 1.349 . S
C1880 C1878 1.327 . S
C1880 C1899 1.429 . S
C1880 H1904 0.950 . S
C1881 C1898 1.574 . S
C1881 C1900 1.368 . S
C1881 H1905 0.949 . S
H1882 C1886 0.949 . S
C1883 C1884 1.349 . S
C1883 C1885 1.327 . S
C1883 H1906 0.950 . S
C1884 C1883 1.349 . S
C1884 C1896 1.349 . S
C1885 C1883 1.327 . S
C1885 C1901 1.429 . S
C1885 H1907 0.950 . S
C1886 H1882 0.949 . S
C1886 C1894 1.574 . S
C1886 C1902 1.368 . S
H1887 C1895 0.950 . S
H1888 C1893 0.950 . S
H1889 C1894 0.949 . S
H1890 C1896 0.950 . S
H1891 C1897 0.950 . S
H1892 C1898 0.949 . S
C1893 H1888 0.950 . S
C1893 C1895 1.327 . S
C1893 C1899 1.429 . S
C1894 C1886 1.574 . S
C1894 H1889 0.949 . S
C1894 C1900 1.368 . S
C1895 C1879 1.349 . S
C1895 H1887 0.950 . S
C1895 C1893 1.327 . S
C1896 C1884 1.349 . S
C1896 H1890 0.950 . S
C1896 C1897 1.327 . S
C1897 H1891 0.950 . S
C1897 C1896 1.327 . S
C1897 C1901 1.429 . S
C1898 C1881 1.574 . S
C1898 H1892 0.949 . S
C1898 C1902 1.368 . S
C1899 C1880 1.429 . S
C1899 C1893 1.429 . S
C1899 C1900 1.523 . S
C1900 C1881 1.368 . S
C1900 C1894 1.368 . S
C1900 C1899 1.523 . S
C1901 C1885 1.429 . S
C1901 C1897 1.429 . S
C1901 C1902 1.523 . S
C1902 C1886 1.368 . S
C1902 C1898 1.368 . S
C1902 C1901 1.523 . S
H1903 C1878 0.950 . S
H1904 C1880 0.950 . S
H1905 C1881 0.949 . S
H1906 C1883 0.950 . S
H1907 C1885 0.950 . S
C1908 C1909 1.349 . S
C1908 C1910 1.327 . S
C1908 H1933 0.950 . S
C1909 C1908 1.349 . S
C1909 C1925 1.349 . S
C1910 C1908 1.327 . S
C1910 C1929 1.429 . S
C1910 H1934 0.950 . S
C1911 C1928 1.574 . S
C1911 C1930 1.368 . S
C1911 H1935 0.949 . S
H1912 C1916 0.949 . S
C1913 C1914 1.349 . S
C1913 C1915 1.327 . S
C1913 H1936 0.950 . S
C1914 C1913 1.349 . S
C1914 C1926 1.349 . S
C1915 C1913 1.327 . S
C1915 C1931 1.429 . S
C1915 H1937 0.950 . S
C1916 H1912 0.949 . S
C1916 C1924 1.574 . S
C1916 C1932 1.368 . S
H1917 C1925 0.950 . S
H1918 C1923 0.950 . S
H1919 C1924 0.949 . S
H1920 C1926 0.950 . S
H1921 C1927 0.950 . S
H1922 C1928 0.949 . S
C1923 H1918 0.950 . S
C1923 C1925 1.327 . S
C1923 C1929 1.429 . S
C1924 C1916 1.574 . S
C1924 H1919 0.949 . S
C1924 C1930 1.368 . S
C1925 C1909 1.349 . S
C1925 H1917 0.950 . S
C1925 C1923 1.327 . S
C1926 C1914 1.349 . S
C1926 H1920 0.950 . S
C1926 C1927 1.327 . S
C1927 H1921 0.950 . S
C1927 C1926 1.327 . S
C1927 C1931 1.429 . S
C1928 C1911 1.574 . S
C1928 H1922 0.949 . S
C1928 C1932 1.368 . S
C1929 C1910 1.429 . S
C1929 C1923 1.429 . S
C1929 C1930 1.523 . S
C1930 C1911 1.368 . S
C1930 C1924 1.368 . S
C1930 C1929 1.523 . S
C1931 C1915 1.429 . S
C1931 C1927 1.429 . S
C1931 C1932 1.523 . S
C1932 C1916 1.368 . S
C1932 C1928 1.368 . S
C1932 C1931 1.523 . S
H1933 C1908 0.950 . S
H1934 C1910 0.950 . S
H1935 C1911 0.949 . S
H1936 C1913 0.950 . S
H1937 C1915 0.950 . S
C1938 C1939 1.349 . S
C1938 C1940 1.327 . S
C1938 H1963 0.950 . S
C1939 C1938 1.349 . S
C1939 C1955 1.349 . S
C1940 C1938 1.327 . S
C1940 C1959 1.429 . S
C1940 H1964 0.950 . S
C1941 C1958 1.574 . S
C1941 C1960 1.368 . S
C1941 H1965 0.949 . S
H1942 C1946 0.949 . S
C1943 C1944 1.349 . S
C1943 C1945 1.327 . S
C1943 H1966 0.950 . S
C1944 C1943 1.349 . S
C1944 C1956 1.349 . S
C1945 C1943 1.327 . S
C1945 C1961 1.429 . S
C1945 H1967 0.950 . S
C1946 H1942 0.949 . S
C1946 C1954 1.574 . S
C1946 C1962 1.368 . S
H1947 C1955 0.950 . S
H1948 C1953 0.950 . S
H1949 C1954 0.949 . S
H1950 C1956 0.950 . S
H1951 C1957 0.950 . S
H1952 C1958 0.949 . S
C1953 H1948 0.950 . S
C1953 C1955 1.327 . S
C1953 C1959 1.429 . S
C1954 C1946 1.574 . S
C1954 H1949 0.949 . S
C1954 C1960 1.368 . S
C1955 C1939 1.349 . S
C1955 H1947 0.950 . S
C1955 C1953 1.327 . S
C1956 C1944 1.349 . S
C1956 H1950 0.950 . S
C1956 C1957 1.327 . S
C1957 H1951 0.950 . S
C1957 C1956 1.327 . S
C1957 C1961 1.429 . S
C1958 C1941 1.574 . S
C1958 H1952 0.949 . S
C1958 C1962 1.368 . S
C1959 C1940 1.429 . S
C1959 C1953 1.429 . S
C1959 C1960 1.523 . S
C1960 C1941 1.368 . S
C1960 C1954 1.368 . S
C1960 C1959 1.523 . S
C1961 C1945 1.429 . S
C1961 C1957 1.429 . S
C1961 C1962 1.523 . S
C1962 C1946 1.368 . S
C1962 C1958 1.368 . S
C1962 C1961 1.523 . S
H1963 C1938 0.950 . S
H1964 C1940 0.950 . S
H1965 C1941 0.949 . S
H1966 C1943 0.950 . S
H1967 C1945 0.950 . S
C1968 C1969 1.349 . S
C1968 C1970 1.327 . S
C1968 H1993 0.950 . S
C1969 C1968 1.349 . S
C1969 C1985 1.349 . S
C1970 C1968 1.327 . S
C1970 C1989 1.429 . S
C1970 H1994 0.950 . S
C1971 C1988 1.574 . S
C1971 C1990 1.368 . S
C1971 H1995 0.949 . S
H1972 C1976 0.949 . S
C1973 C1974 1.349 . S
C1973 C1975 1.327 . S
C1973 H1996 0.950 . S
C1974 C1973 1.349 . S
C1974 C1986 1.349 . S
C1975 C1973 1.327 . S
C1975 C1991 1.429 . S
C1975 H1997 0.950 . S
C1976 H1972 0.949 . S
C1976 C1984 1.574 . S
C1976 C1992 1.368 . S
H1977 C1985 0.950 . S
H1978 C1983 0.950 . S
H1979 C1984 0.949 . S
H1980 C1986 0.950 . S
H1981 C1987 0.950 . S
H1982 C1988 0.949 . S
C1983 H1978 0.950 . S
C1983 C1985 1.327 . S
C1983 C1989 1.429 . S
C1984 C1976 1.574 . S
C1984 H1979 0.949 . S
C1984 C1990 1.368 . S
C1985 C1969 1.349 . S
C1985 H1977 0.950 . S
C1985 C1983 1.327 . S
C1986 C1974 1.349 . S
C1986 H1980 0.950 . S
C1986 C1987 1.327 . S
C1987 H1981 0.950 . S
C1987 C1986 1.327 . S
C1987 C1991 1.429 . S
C1988 C1971 1.574 . S
C1988 H1982 0.949 . S
C1988 C1992 1.368 . S
C1989 C1970 1.429 . S
C1989 C1983 1.429 . S
C1989 C1990 1.523 . S
C1990 C1971 1.368 . S
C1990 C1984 1.368 . S
C1990 C1989 1.523 . S
C1991 C1975 1.429 . S
C1991 C1987 1.429 . S
C1991 C1992 1.523 . S
C1992 C1976 1.368 . S
C1992 C1988 1.368 . S
C1992 C1991 1.523 . S
H1993 C1968 0.950 . S
H1994 C1970 0.950 . S
H1995 C1971 0.949 . S
H1996 C1973 0.950 . S
H1997 C1975 0.950 . S
C1998 C1999 1.349 . S
C1998 C2000 1.327 . S
C1998 H2023 0.950 . S
C1999 C1998 1.349 . S
C1999 C2015 1.349 . S
C2000 C1998 1.327 . S
C2000 C2019 1.429 . S
C2000 H2024 0.950 . S
C2001 C2018 1.574 . S
C2001 C2020 1.368 . S
C2001 H2025 0.949 . S
H2002 C2006 0.949 . S
C2003 C2004 1.349 . S
C2003 C2005 1.327 . S
C2003 H2026 0.950 . S
C2004 C2003 1.349 . S
C2004 C2016 1.349 . S
C2005 C2003 1.327 . S
C2005 C2021 1.429 . S
C2005 H2027 0.950 . S
C2006 H2002 0.949 . S
C2006 C2014 1.574 . S
C2006 C2022 1.368 . S
H2007 C2015 0.950 . S
H2008 C2013 0.950 . S
H2009 C2014 0.949 . S
H2010 C2016 0.950 . S
H2011 C2017 0.950 . S
H2012 C2018 0.949 . S
C2013 H2008 0.950 . S
C2013 C2015 1.327 . S
C2013 C2019 1.429 . S
C2014 C2006 1.574 . S
C2014 H2009 0.949 . S
C2014 C2020 1.368 . S
C2015 C1999 1.349 . S
C2015 H2007 0.950 . S
C2015 C2013 1.327 . S
C2016 C2004 1.349 . S
C2016 H2010 0.950 . S
C2016 C2017 1.327 . S
C2017 H2011 0.950 . S
C2017 C2016 1.327 . S
C2017 C2021 1.429 . S
C2018 C2001 1.574 . S
C2018 H2012 0.949 . S
C2018 C2022 1.368 . S
C2019 C2000 1.429 . S
C2019 C2013 1.429 . S
C2019 C2020 1.523 . S
C2020 C2001 1.368 . S
C2020 C2014 1.368 . S
C2020 C2019 1.523 . S
C2021 C2005 1.429 . S
C2021 C2017 1.429 . S
C2021 C2022 1.523 . S
C2022 C2006 1.368 . S
C2022 C2018 1.368 . S
C2022 C2021 1.523 . S
H2023 C1998 0.950 . S
H2024 C2000 0.950 . S
H2025 C2001 0.949 . S
H2026 C2003 0.950 . S
H2027 C2005 0.950 . S
C2028 C2029 1.349 . S
C2028 C2030 1.327 . S
C2028 H2053 0.950 . S
C2029 C2028 1.349 . S
C2029 C2045 1.349 . S
C2030 C2028 1.327 . S
C2030 C2049 1.429 . S
C2030 H2054 0.950 . S
C2031 C2048 1.574 . S
C2031 C2050 1.368 . S
C2031 H2055 0.949 . S
H2032 C2036 0.949 . S
C2033 C2034 1.349 . S
C2033 C2035 1.327 . S
C2033 H2056 0.950 . S
C2034 C2033 1.349 . S
C2034 C2046 1.349 . S
C2035 C2033 1.327 . S
C2035 C2051 1.429 . S
C2035 H2057 0.950 . S
C2036 H2032 0.949 . S
C2036 C2044 1.574 . S
C2036 C2052 1.368 . S
H2037 C2045 0.950 . S
H2038 C2043 0.950 . S
H2039 C2044 0.949 . S
H2040 C2046 0.950 . S
H2041 C2047 0.950 . S
H2042 C2048 0.949 . S
C2043 H2038 0.950 . S
C2043 C2045 1.327 . S
C2043 C2049 1.429 . S
C2044 C2036 1.574 . S
C2044 H2039 0.949 . S
C2044 C2050 1.368 . S
C2045 C2029 1.349 . S
C2045 H2037 0.950 . S
C2045 C2043 1.327 . S
C2046 C2034 1.349 . S
C2046 H2040 0.950 . S
C2046 C2047 1.327 . S
C2047 H2041 0.950 . S
C2047 C2046 1.327 . S
C2047 C2051 1.429 . S
C2048 C2031 1.574 . S
C2048 H2042 0.949 . S
C2048 C2052 1.368 . S
C2049 C2030 1.429 . S
C2049 C2043 1.429 . S
C2049 C2050 1.523 . S
C2050 C2031 1.368 . S
C2050 C2044 1.368 . S
C2050 C2049 1.523 . S
C2051 C2035 1.429 . S
C2051 C2047 1.429 . S
C2051 C2052 1.523 . S
C2052 C2036 1.368 . S
C2052 C2048 1.368 . S
C2052 C2051 1.523 . S
H2053 C2028 0.950 . S
H2054 C2030 0.950 . S
H2055 C2031 0.949 . S
H2056 C2033 0.950 . S
H2057 C2035 0.950 . S
C2058 C2059 1.349 . S
C2058 C2060 1.327 . S
C2058 H2083 0.950 . S
C2059 C2058 1.349 . S
C2059 C2075 1.349 . S
C2060 C2058 1.327 . S
C2060 C2079 1.429 . S
C2060 H2084 0.950 . S
C2061 C2078 1.574 . S
C2061 C2080 1.368 . S
C2061 H2085 0.949 . S
H2062 C2066 0.949 . S
C2063 C2064 1.349 . S
C2063 C2065 1.327 . S
C2063 H2086 0.950 . S
C2064 C2063 1.349 . S
C2064 C2076 1.349 . S
C2065 C2063 1.327 . S
C2065 C2081 1.429 . S
C2065 H2087 0.950 . S
C2066 H2062 0.949 . S
C2066 C2074 1.574 . S
C2066 C2082 1.368 . S
H2067 C2075 0.950 . S
H2068 C2073 0.950 . S
H2069 C2074 0.949 . S
H2070 C2076 0.950 . S
H2071 C2077 0.950 . S
H2072 C2078 0.949 . S
C2073 H2068 0.950 . S
C2073 C2075 1.327 . S
C2073 C2079 1.429 . S
C2074 C2066 1.574 . S
C2074 H2069 0.949 . S
C2074 C2080 1.368 . S
C2075 C2059 1.349 . S
C2075 H2067 0.950 . S
C2075 C2073 1.327 . S
C2076 C2064 1.349 . S
C2076 H2070 0.950 . S
C2076 C2077 1.327 . S
C2077 H2071 0.950 . S
C2077 C2076 1.327 . S
C2077 C2081 1.429 . S
C2078 C2061 1.574 . S
C2078 H2072 0.949 . S
C2078 C2082 1.368 . S
C2079 C2060 1.429 . S
C2079 C2073 1.429 . S
C2079 C2080 1.523 . S
C2080 C2061 1.368 . S
C2080 C2074 1.368 . S
C2080 C2079 1.523 . S
C2081 C2065 1.429 . S
C2081 C2077 1.429 . S
C2081 C2082 1.523 . S
C2082 C2066 1.368 . S
C2082 C2078 1.368 . S
C2082 C2081 1.523 . S
H2083 C2058 0.950 . S
H2084 C2060 0.950 . S
H2085 C2061 0.949 . S
H2086 C2063 0.950 . S
H2087 C2065 0.950 . S
C2088 C2089 1.349 . S
C2088 C2090 1.327 . S
C2088 H2113 0.950 . S
C2089 C2088 1.349 . S
C2089 C2105 1.349 . S
C2090 C2088 1.327 . S
C2090 C2109 1.429 . S
C2090 H2114 0.950 . S
C2091 C2108 1.574 . S
C2091 C2110 1.368 . S
C2091 H2115 0.949 . S
H2092 C2096 0.949 . S
C2093 C2094 1.349 . S
C2093 C2095 1.327 . S
C2093 H2116 0.950 . S
C2094 C2093 1.349 . S
C2094 C2106 1.349 . S
C2095 C2093 1.327 . S
C2095 C2111 1.429 . S
C2095 H2117 0.950 . S
C2096 H2092 0.949 . S
C2096 C2104 1.574 . S
C2096 C2112 1.368 . S
H2097 C2105 0.950 . S
H2098 C2103 0.950 . S
H2099 C2104 0.949 . S
H2100 C2106 0.950 . S
H2101 C2107 0.950 . S
H2102 C2108 0.949 . S
C2103 H2098 0.950 . S
C2103 C2105 1.327 . S
C2103 C2109 1.429 . S
C2104 C2096 1.574 . S
C2104 H2099 0.949 . S
C2104 C2110 1.368 . S
C2105 C2089 1.349 . S
C2105 H2097 0.950 . S
C2105 C2103 1.327 . S
C2106 C2094 1.349 . S
C2106 H2100 0.950 . S
C2106 C2107 1.327 . S
C2107 H2101 0.950 . S
C2107 C2106 1.327 . S
C2107 C2111 1.429 . S
C2108 C2091 1.574 . S
C2108 H2102 0.949 . S
C2108 C2112 1.368 . S
C2109 C2090 1.429 . S
C2109 C2103 1.429 . S
C2109 C2110 1.523 . S
C2110 C2091 1.368 . S
C2110 C2104 1.368 . S
C2110 C2109 1.523 . S
C2111 C2095 1.429 . S
C2111 C2107 1.429 . S
C2111 C2112 1.523 . S
C2112 C2096 1.368 . S
C2112 C2108 1.368 . S
C2112 C2111 1.523 . S
H2113 C2088 0.950 . S
H2114 C2090 0.950 . S
H2115 C2091 0.949 . S
H2116 C2093 0.950 . S
H2117 C2095 0.950 . S
C2118 C2119 1.349 . S
C2118 C2120 1.327 . S
C2118 H2143 0.950 . S
C2119 C2118 1.349 . S
C2119 C2135 1.349 . S
C2120 C2118 1.327 . S
C2120 C2139 1.429 . S
C2120 H2144 0.950 . S
C2121 C2138 1.574 . S
C2121 C2140 1.368 . S
C2121 H2145 0.949 . S
H2122 C2126 0.949 . S
C2123 C2124 1.349 . S
C2123 C2125 1.327 1_545 S
C2123 H2146 0.950 . S
C2124 C2123 1.349 . S
C2124 C2136 1.349 . S
C2125 C2123 1.327 1_565 S
C2125 C2141 1.429 1_565 S
C2125 H2147 0.950 . S
C2126 H2122 0.949 . S
C2126 C2134 1.574 1_545 S
C2126 C2142 1.368 1_545 S
H2127 C2135 0.950 . S
H2128 C2133 0.950 . S
H2129 C2134 0.949 . S
H2130 C2136 0.950 . S
H2131 C2137 0.950 . S
H2132 C2138 0.949 . S
C2133 H2128 0.950 . S
C2133 C2135 1.327 . S
C2133 C2139 1.429 . S
C2134 C2126 1.574 1_565 S
C2134 H2129 0.949 . S
C2134 C2140 1.368 . S
C2135 C2119 1.349 . S
C2135 H2127 0.950 . S
C2135 C2133 1.327 . S
C2136 C2124 1.349 . S
C2136 H2130 0.950 . S
C2136 C2137 1.327 . S
C2137 H2131 0.950 . S
C2137 C2136 1.327 . S
C2137 C2141 1.429 . S
C2138 C2121 1.574 . S
C2138 H2132 0.949 . S
C2138 C2142 1.368 . S
C2139 C2120 1.429 . S
C2139 C2133 1.429 . S
C2139 C2140 1.523 . S
C2140 C2121 1.368 . S
C2140 C2134 1.368 . S
C2140 C2139 1.523 . S
C2141 C2125 1.429 1_545 S
C2141 C2137 1.429 . S
C2141 C2142 1.523 1_545 S
C2142 C2126 1.368 1_565 S
C2142 C2138 1.368 . S
C2142 C2141 1.523 1_565 S
H2143 C2118 0.950 . S
H2144 C2120 0.950 . S
H2145 C2121 0.949 . S
H2146 C2123 0.950 . S
H2147 C2125 0.950 . S
C2148 C2149 1.349 . S
C2148 C2150 1.327 . S
C2148 H2173 0.950 . S
C2149 C2148 1.349 . S
C2149 C2165 1.349 . S
C2150 C2148 1.327 . S
C2150 C2169 1.429 . S
C2150 H2174 0.950 . S
C2151 C2168 1.574 . S
C2151 C2170 1.368 . S
C2151 H2175 0.949 . S
H2152 C2156 0.949 . S
C2153 C2154 1.349 . S
C2153 C2155 1.327 . S
C2153 H2176 0.950 . S
C2154 C2153 1.349 . S
C2154 C2166 1.349 . S
C2155 C2153 1.327 . S
C2155 C2171 1.429 . S
C2155 H2177 0.950 . S
C2156 H2152 0.949 . S
C2156 C2164 1.577 . S
C2156 C2172 1.368 . S
H2157 C2165 0.950 . S
H2158 C2163 0.926 1_455 S
H2159 C2164 0.946 1_655 S
H2160 C2166 0.950 . S
H2161 C2167 0.950 . S
H2162 C2168 0.949 . S
C2163 H2158 0.926 1_655 S
C2163 C2165 1.359 . S
C2163 C2169 1.421 . S
C2164 C2156 1.577 . S
C2164 H2159 0.946 1_455 S
C2164 C2170 1.368 . S
C2165 C2149 1.349 . S
C2165 H2157 0.950 . S
C2165 C2163 1.359 . S
C2166 C2154 1.349 . S
C2166 H2160 0.950 . S
C2166 C2167 1.327 . S
C2167 H2161 0.950 . S
C2167 C2166 1.327 . S
C2167 C2171 1.429 . S
C2168 C2151 1.574 . S
C2168 H2162 0.949 . S
C2168 C2172 1.368 . S
C2169 C2150 1.429 . S
C2169 C2163 1.421 . S
C2169 C2170 1.523 1_655 S
C2170 C2151 1.368 . S
C2170 C2164 1.368 . S
C2170 C2169 1.523 1_455 S
C2171 C2155 1.429 . S
C2171 C2167 1.429 . S
C2171 C2172 1.523 . S
C2172 C2156 1.368 . S
C2172 C2168 1.368 . S
C2172 C2171 1.523 . S
H2173 C2148 0.950 . S
H2174 C2150 0.950 . S
H2175 C2151 0.949 . S
H2176 C2153 0.950 . S
H2177 C2155 0.950 . S
C2178 C2179 1.349 . S
C2178 C2180 1.327 . S
C2178 H2203 0.950 . S
C2179 C2178 1.349 . S
C2179 C2195 1.349 . S
C2180 C2178 1.327 . S
C2180 C2199 1.429 . S
C2180 H2204 0.950 . S
C2181 C2198 1.574 . S
C2181 C2200 1.368 . S
C2181 H2205 0.949 . S
H2182 C2186 0.949 . S
C2183 C2184 1.349 . S
C2183 C2185 1.327 . S
C2183 H2206 0.950 . S
C2184 C2183 1.349 . S
C2184 C2196 1.349 . S
C2185 C2183 1.327 . S
C2185 C2201 1.429 . S
C2185 H2207 0.950 . S
C2186 H2182 0.949 . S
C2186 C2194 1.574 . S
C2186 C2202 1.368 . S
H2187 C2195 0.950 . S
H2188 C2193 0.950 . S
H2189 C2194 0.949 . S
H2190 C2196 0.950 . S
H2191 C2197 0.950 . S
H2192 C2198 0.949 . S
C2193 H2188 0.950 . S
C2193 C2195 1.327 . S
C2193 C2199 1.429 . S
C2194 C2186 1.574 . S
C2194 H2189 0.949 . S
C2194 C2200 1.368 . S
C2195 C2179 1.349 . S
C2195 H2187 0.950 . S
C2195 C2193 1.327 . S
C2196 C2184 1.349 . S
C2196 H2190 0.950 . S
C2196 C2197 1.327 . S
C2197 H2191 0.950 . S
C2197 C2196 1.327 . S
C2197 C2201 1.429 . S
C2198 C2181 1.574 . S
C2198 H2192 0.949 . S
C2198 C2202 1.368 . S
C2199 C2180 1.429 . S
C2199 C2193 1.429 . S
C2199 C2200 1.523 . S
C2200 C2181 1.368 . S
C2200 C2194 1.368 . S
C2200 C2199 1.523 . S
C2201 C2185 1.429 . S
C2201 C2197 1.429 . S
C2201 C2202 1.523 . S
C2202 C2186 1.368 . S
C2202 C2198 1.368 . S
C2202 C2201 1.523 . S
H2203 C2178 0.950 . S
H2204 C2180 0.950 . S
H2205 C2181 0.949 . S
H2206 C2183 0.950 . S
H2207 C2185 0.950 . S
C2208 C2209 1.349 . S
C2208 C2210 1.327 . S
C2208 H2233 0.950 . S
C2209 C2208 1.349 . S
C2209 C2225 1.349 . S
C2210 C2208 1.327 . S
C2210 C2229 1.429 . S
C2210 H2234 0.950 . S
C2211 C2228 1.571 . S
C2211 C2230 1.368 . S
C2211 H2235 0.949 . S
H2212 C2216 0.949 . S
C2213 C2214 1.349 . S
C2213 C2215 1.327 . S
C2213 H2236 0.950 . S
C2214 C2213 1.349 . S
C2214 C2226 1.349 . S
C2215 C2213 1.327 . S
C2215 C2231 1.429 . S
C2215 H2237 0.950 . S
C2216 H2212 0.949 . S
C2216 C2224 1.574 . S
C2216 C2232 1.368 . S
H2217 C2225 0.950 . S
H2218 C2223 0.950 . S
H2219 C2224 0.949 . S
H2220 C2226 0.950 . S
H2221 C2227 0.929 1_545 S
H2222 C2228 0.952 1_565 S
C2223 H2218 0.950 . S
C2223 C2225 1.327 . S
C2223 C2229 1.429 . S
C2224 C2216 1.574 . S
C2224 H2219 0.949 . S
C2224 C2230 1.368 . S
C2225 C2209 1.349 . S
C2225 H2217 0.950 . S
C2225 C2223 1.327 . S
C2226 C2214 1.349 . S
C2226 H2220 0.950 . S
C2226 C2227 1.353 . S
C2227 H2221 0.929 1_565 S
C2227 C2226 1.353 . S
C2227 C2231 1.423 . S
C2228 C2211 1.571 . S
C2228 H2222 0.952 1_545 S
C2228 C2232 1.368 . S
C2229 C2210 1.429 . S
C2229 C2223 1.429 . S
C2229 C2230 1.523 . S
C2230 C2211 1.368 . S
C2230 C2224 1.368 . S
C2230 C2229 1.523 . S
C2231 C2215 1.429 . S
C2231 C2227 1.423 . S
C2231 C2232 1.523 1_565 S
C2232 C2216 1.368 . S
C2232 C2228 1.368 . S
C2232 C2231 1.523 1_545 S
H2233 C2208 0.950 . S
H2234 C2210 0.950 . S
H2235 C2211 0.949 . S
H2236 C2213 0.950 . S
H2237 C2215 0.950 . S
C2238 C2239 1.349 . S
C2238 C2240 1.327 . S
C2238 H2263 0.950 . S
C2239 C2238 1.349 . S
C2239 C2255 1.349 . S
C2240 C2238 1.327 . S
C2240 C2259 1.429 . S
C2240 H2264 0.950 1_455 S
C2241 C2258 1.574 . S
C2241 C2260 1.368 . S
C2241 H2265 0.949 1_655 S
H2242 C2246 0.949 . S
C2243 C2244 1.349 . S
C2243 C2245 1.327 . S
C2243 H2266 0.950 . S
C2244 C2243 1.349 . S
C2244 C2256 1.349 . S
C2245 C2243 1.327 . S
C2245 C2261 1.429 . S
C2245 H2267 0.950 . S
C2246 H2242 0.949 . S
C2246 C2254 1.574 . S
C2246 C2262 1.368 . S
H2247 C2255 0.950 . S
H2248 C2253 0.950 . S
H2249 C2254 0.949 . S
H2250 C2256 0.950 . S
H2251 C2257 0.950 . S
H2252 C2258 0.949 . S
C2253 H2248 0.950 . S
C2253 C2255 1.327 . S
C2253 C2259 1.429 . S
C2254 C2246 1.574 . S
C2254 H2249 0.949 . S
C2254 C2260 1.368 . S
C2255 C2239 1.349 . S
C2255 H2247 0.950 . S
C2255 C2253 1.327 . S
C2256 C2244 1.349 . S
C2256 H2250 0.950 . S
C2256 C2257 1.327 . S
C2257 H2251 0.950 . S
C2257 C2256 1.327 . S
C2257 C2261 1.429 . S
C2258 C2241 1.574 . S
C2258 H2252 0.949 . S
C2258 C2262 1.368 . S
C2259 C2240 1.429 . S
C2259 C2253 1.429 . S
C2259 C2260 1.523 1_455 S
C2260 C2241 1.368 . S
C2260 C2254 1.368 . S
C2260 C2259 1.523 1_655 S
C2261 C2245 1.429 . S
C2261 C2257 1.429 . S
C2261 C2262 1.523 . S
C2262 C2246 1.368 . S
C2262 C2258 1.368 . S
C2262 C2261 1.523 . S
H2263 C2238 0.950 . S
H2264 C2240 0.950 1_655 S
H2265 C2241 0.949 1_455 S
H2266 C2243 0.950 . S
H2267 C2245 0.950 . S
C2268 C2269 1.349 . S
C2268 C2270 1.327 . S
C2268 H2293 0.950 . S
C2269 C2268 1.349 . S
C2269 C2285 1.349 . S
C2270 C2268 1.327 . S
C2270 C2289 1.429 . S
C2270 H2294 0.950 . S
C2271 C2288 1.574 . S
C2271 C2290 1.368 . S
C2271 H2295 0.949 . S
H2272 C2276 0.949 . S
C2273 C2274 1.349 . S
C2273 C2275 1.327 . S
C2273 H2296 0.950 . S
C2274 C2273 1.349 . S
C2274 C2286 1.349 . S
C2275 C2273 1.327 . S
C2275 C2291 1.429 . S
C2275 H2297 0.950 . S
C2276 H2272 0.949 . S
C2276 C2284 1.574 . S
C2276 C2292 1.368 . S
H2277 C2285 0.950 . S
H2278 C2283 0.950 . S
H2279 C2284 0.949 . S
H2280 C2286 0.950 . S
H2281 C2287 0.950 . S
H2282 C2288 0.949 . S
C2283 H2278 0.950 . S
C2283 C2285 1.327 . S
C2283 C2289 1.429 . S
C2284 C2276 1.574 . S
C2284 H2279 0.949 . S
C2284 C2290 1.368 . S
C2285 C2269 1.349 . S
C2285 H2277 0.950 . S
C2285 C2283 1.327 . S
C2286 C2274 1.349 . S
C2286 H2280 0.950 . S
C2286 C2287 1.327 . S
C2287 H2281 0.950 . S
C2287 C2286 1.327 . S
C2287 C2291 1.429 . S
C2288 C2271 1.574 . S
C2288 H2282 0.949 . S
C2288 C2292 1.368 . S
C2289 C2270 1.429 . S
C2289 C2283 1.429 . S
C2289 C2290 1.523 . S
C2290 C2271 1.368 . S
C2290 C2284 1.368 . S
C2290 C2289 1.523 . S
C2291 C2275 1.429 . S
C2291 C2287 1.429 . S
C2291 C2292 1.523 . S
C2292 C2276 1.368 . S
C2292 C2288 1.368 . S
C2292 C2291 1.523 . S
H2293 C2268 0.950 . S
H2294 C2270 0.950 . S
H2295 C2271 0.949 . S
H2296 C2273 0.950 . S
H2297 C2275 0.950 . S
C2298 C2299 1.349 . S
C2298 C2300 1.327 . S
C2298 H2323 0.950 . S
C2299 C2298 1.349 . S
C2299 C2315 1.349 . S
C2300 C2298 1.327 . S
C2300 C2319 1.429 . S
C2300 H2324 0.950 . S
C2301 C2318 1.574 . S
C2301 C2320 1.368 . S
C2301 H2325 0.949 . S
H2302 C2306 0.949 . S
C2303 C2304 1.349 . S
C2303 C2305 1.327 . S
C2303 H2326 0.950 . S
C2304 C2303 1.349 . S
C2304 C2316 1.349 . S
C2305 C2303 1.327 . S
C2305 C2321 1.429 . S
C2305 H2327 0.950 . S
C2306 H2302 0.949 . S
C2306 C2314 1.574 . S
C2306 C2322 1.368 . S
H2307 C2315 0.950 . S
H2308 C2313 0.950 1_545 S
H2309 C2314 0.927 1_565 S
H2310 C2316 0.950 . S
H2311 C2317 0.950 . S
H2312 C2318 0.949 . S
C2313 H2308 0.950 1_565 S
C2313 C2315 1.327 . S
C2313 C2319 1.429 . S
C2314 C2306 1.574 . S
C2314 H2309 0.927 1_545 S
C2314 C2320 1.395 . S
C2315 C2299 1.349 . S
C2315 H2307 0.950 . S
C2315 C2313 1.327 . S
C2316 C2304 1.349 . S
C2316 H2310 0.950 . S
C2316 C2317 1.327 . S
C2317 H2311 0.950 . S
C2317 C2316 1.327 . S
C2317 C2321 1.429 . S
C2318 C2301 1.574 . S
C2318 H2312 0.949 . S
C2318 C2322 1.368 . S
C2319 C2300 1.429 . S
C2319 C2313 1.429 . S
C2319 C2320 1.523 1_565 S
C2320 C2301 1.368 . S
C2320 C2314 1.395 . S
C2320 C2319 1.523 1_545 S
C2321 C2305 1.429 . S
C2321 C2317 1.429 . S
C2321 C2322 1.523 . S
C2322 C2306 1.368 . S
C2322 C2318 1.368 . S
C2322 C2321 1.523 . S
H2323 C2298 0.950 . S
H2324 C2300 0.950 . S
H2325 C2301 0.949 . S
H2326 C2303 0.950 . S
H2327 C2305 0.950 . S
C2328 C2329 1.349 . S
C2328 C2330 1.327 . S
C2328 H2353 0.950 . S
C2329 C2328 1.349 . S
C2329 C2345 1.349 . S
C2330 C2328 1.327 . S
C2330 C2349 1.429 . S
C2330 H2354 0.950 . S
C2331 C2348 1.574 . S
C2331 C2350 1.368 . S
C2331 H2355 0.949 . S
H2332 C2336 0.949 . S
C2333 C2334 1.349 . S
C2333 C2335 1.327 . S
C2333 H2356 0.950 . S
C2334 C2333 1.349 . S
C2334 C2346 1.349 . S
C2335 C2333 1.327 . S
C2335 C2351 1.429 . S
C2335 H2357 0.950 . S
C2336 H2332 0.949 . S
C2336 C2344 1.574 . S
C2336 C2352 1.368 . S
H2337 C2345 0.950 . S
H2338 C2343 0.950 1_655 S
H2339 C2344 0.949 1_455 S
H2340 C2346 0.950 . S
H2341 C2347 0.950 . S
H2342 C2348 0.949 . S
C2343 H2338 0.950 1_455 S
C2343 C2345 1.327 . S
C2343 C2349 1.429 . S
C2344 C2336 1.574 . S
C2344 H2339 0.949 1_655 S
C2344 C2350 1.368 . S
C2345 C2329 1.349 . S
C2345 H2337 0.950 . S
C2345 C2343 1.327 . S
C2346 C2334 1.349 . S
C2346 H2340 0.950 . S
C2346 C2347 1.327 . S
C2347 H2341 0.950 . S
C2347 C2346 1.327 . S
C2347 C2351 1.429 . S
C2348 C2331 1.574 . S
C2348 H2342 0.949 . S
C2348 C2352 1.368 . S
C2349 C2330 1.429 . S
C2349 C2343 1.429 . S
C2349 C2350 1.523 1_455 S
C2350 C2331 1.368 . S
C2350 C2344 1.368 . S
C2350 C2349 1.523 1_655 S
C2351 C2335 1.429 . S
C2351 C2347 1.429 . S
C2351 C2352 1.523 . S
C2352 C2336 1.368 . S
C2352 C2348 1.368 . S
C2352 C2351 1.523 . S
H2353 C2328 0.950 . S
H2354 C2330 0.950 . S
H2355 C2331 0.949 . S
H2356 C2333 0.950 . S
H2357 C2335 0.950 . S
C2358 C2359 1.349 . S
C2358 C2360 1.327 . S
C2358 H2383 0.950 . S
C2359 C2358 1.349 . S
C2359 C2375 1.349 . S
C2360 C2358 1.327 . S
C2360 C2379 1.429 . S
C2360 H2384 0.950 . S
C2361 C2378 1.574 . S
C2361 C2380 1.368 . S
C2361 H2385 0.949 . S
H2362 C2366 0.949 . S
C2363 C2364 1.349 . S
C2363 C2365 1.327 . S
C2363 H2386 0.950 . S
C2364 C2363 1.349 . S
C2364 C2376 1.349 . S
C2365 C2363 1.327 . S
C2365 C2381 1.429 . S
C2365 H2387 0.950 . S
C2366 H2362 0.949 . S
C2366 C2374 1.574 . S
C2366 C2382 1.368 . S
H2367 C2375 0.950 . S
H2368 C2373 0.950 . S
H2369 C2374 0.949 . S
H2370 C2376 0.950 . S
H2371 C2377 0.950 . S
H2372 C2378 0.949 . S
C2373 H2368 0.950 . S
C2373 C2375 1.327 . S
C2373 C2379 1.429 . S
C2374 C2366 1.574 . S
C2374 H2369 0.949 . S
C2374 C2380 1.368 . S
C2375 C2359 1.349 . S
C2375 H2367 0.950 . S
C2375 C2373 1.327 . S
C2376 C2364 1.349 . S
C2376 H2370 0.950 . S
C2376 C2377 1.327 . S
C2377 H2371 0.950 . S
C2377 C2376 1.327 . S
C2377 C2381 1.429 . S
C2378 C2361 1.574 . S
C2378 H2372 0.949 . S
C2378 C2382 1.368 . S
C2379 C2360 1.429 . S
C2379 C2373 1.429 . S
C2379 C2380 1.523 . S
C2380 C2361 1.368 . S
C2380 C2374 1.368 . S
C2380 C2379 1.523 . S
C2381 C2365 1.429 . S
C2381 C2377 1.429 . S
C2381 C2382 1.523 . S
C2382 C2366 1.368 . S
C2382 C2378 1.368 . S
C2382 C2381 1.523 . S
H2383 C2358 0.950 . S
H2384 C2360 0.950 . S
H2385 C2361 0.949 . S
H2386 C2363 0.950 . S
H2387 C2365 0.950 . S
C2388 C2389 1.349 . S
C2388 C2390 1.327 . S
C2388 H2413 0.950 . S
C2389 C2388 1.349 . S
C2389 C2405 1.349 . S
C2390 C2388 1.327 . S
C2390 C2409 1.429 . S
C2390 H2414 0.950 . S
C2391 C2408 1.574 . S
C2391 C2410 1.368 . S
C2391 H2415 0.949 . S
H2392 C2396 0.949 . S
C2393 C2394 1.349 . S
C2393 C2395 1.327 . S
C2393 H2416 0.950 . S
C2394 C2393 1.349 . S
C2394 C2406 1.349 . S
C2395 C2393 1.327 . S
C2395 C2411 1.429 . S
C2395 H2417 0.950 . S
C2396 H2392 0.949 . S
C2396 C2404 1.586 . S
C2396 C2412 1.368 . S
H2397 C2405 0.950 . S
H2398 C2403 0.918 1_565 S
H2399 C2404 0.938 1_545 S
H2400 C2406 0.950 . S
H2401 C2407 0.950 . S
H2402 C2408 0.949 . S
C2403 H2398 0.918 1_545 S
C2403 C2405 1.368 . S
C2403 C2409 1.420 . S
C2404 C2396 1.586 . S
C2404 H2399 0.938 1_565 S
C2404 C2410 1.368 . S
C2405 C2389 1.349 . S
C2405 H2397 0.950 . S
C2405 C2403 1.368 . S
C2406 C2394 1.349 . S
C2406 H2400 0.950 . S
C2406 C2407 1.327 . S
C2407 H2401 0.950 . S
C2407 C2406 1.327 . S
C2407 C2411 1.429 . S
C2408 C2391 1.574 . S
C2408 H2402 0.949 . S
C2408 C2412 1.368 . S
C2409 C2390 1.429 . S
C2409 C2403 1.420 . S
C2409 C2410 1.523 1_545 S
C2410 C2391 1.368 . S
C2410 C2404 1.368 . S
C2410 C2409 1.523 1_565 S
C2411 C2395 1.429 . S
C2411 C2407 1.429 . S
C2411 C2412 1.523 . S
C2412 C2396 1.368 . S
C2412 C2408 1.368 . S
C2412 C2411 1.523 . S
H2413 C2388 0.950 . S
H2414 C2390 0.950 . S
H2415 C2391 0.949 . S
H2416 C2393 0.950 . S
H2417 C2395 0.950 . S
C2418 C2419 1.349 . S
C2418 C2420 1.327 . S
C2418 H2443 0.950 . S
C2419 C2418 1.349 . S
C2419 C2435 1.349 . S
C2420 C2418 1.327 . S
C2420 C2439 1.429 . S
C2420 H2444 0.950 . S
C2421 C2438 1.574 . S
C2421 C2440 1.368 . S
C2421 H2445 0.949 . S
H2422 C2426 0.949 . S
C2423 C2424 1.349 . S
C2423 C2425 1.327 . S
C2423 H2446 0.950 . S
C2424 C2423 1.349 . S
C2424 C2436 1.349 . S
C2425 C2423 1.327 . S
C2425 C2441 1.429 . S
C2425 H2447 0.950 . S
C2426 H2422 0.949 . S
C2426 C2434 1.574 . S
C2426 C2442 1.368 . S
H2427 C2435 0.950 . S
H2428 C2433 0.950 . S
H2429 C2434 0.949 . S
H2430 C2436 0.950 . S
H2431 C2437 0.920 1_455 S
H2432 C2438 0.937 1_655 S
C2433 H2428 0.950 . S
C2433 C2435 1.327 . S
C2433 C2439 1.429 . S
C2434 C2426 1.574 . S
C2434 H2429 0.949 . S
C2434 C2440 1.368 . S
C2435 C2419 1.349 . S
C2435 H2427 0.950 . S
C2435 C2433 1.327 . S
C2436 C2424 1.349 . S
C2436 H2430 0.950 . S
C2436 C2437 1.329 . S
C2437 H2431 0.920 1_655 S
C2437 C2436 1.329 . S
C2437 C2441 1.458 . S
C2438 C2421 1.574 . S
C2438 H2432 0.937 1_455 S
C2438 C2442 1.382 . S
C2439 C2420 1.429 . S
C2439 C2433 1.429 . S
C2439 C2440 1.523 . S
C2440 C2421 1.368 . S
C2440 C2434 1.368 . S
C2440 C2439 1.523 . S
C2441 C2425 1.429 . S
C2441 C2437 1.458 . S
C2441 C2442 1.523 1_655 S
C2442 C2426 1.368 . S
C2442 C2438 1.382 . S
C2442 C2441 1.523 1_455 S
H2443 C2418 0.950 . S
H2444 C2420 0.950 . S
H2445 C2421 0.949 . S
H2446 C2423 0.950 . S
H2447 C2425 0.950 . S
C2448 C2449 1.349 . S
C2448 C2450 1.327 . S
C2448 H2473 0.950 . S
C2449 C2448 1.349 . S
C2449 C2465 1.349 . S
C2450 C2448 1.327 . S
C2450 C2469 1.429 . S
C2450 H2474 0.950 . S
C2451 C2468 1.574 1_655 S
C2451 C2470 1.368 . S
C2451 H2475 0.949 . S
H2452 C2456 0.949 . S
C2453 C2454 1.349 . S
C2453 C2455 1.327 . S
C2453 H2476 0.950 . S
C2454 C2453 1.349 . S
C2454 C2466 1.349 . S
C2455 C2453 1.327 . S
C2455 C2471 1.429 . S
C2455 H2477 0.950 . S
C2456 H2452 0.949 . S
C2456 C2464 1.574 1_455 S
C2456 C2472 1.368 . S
H2457 C2465 0.950 . S
H2458 C2463 0.950 . S
H2459 C2464 0.949 . S
H2460 C2466 0.950 . S
H2461 C2467 0.950 . S
H2462 C2468 0.949 . S
C2463 H2458 0.950 . S
C2463 C2465 1.327 . S
C2463 C2469 1.429 . S
C2464 C2456 1.574 1_655 S
C2464 H2459 0.949 . S
C2464 C2470 1.368 . S
C2465 C2449 1.349 . S
C2465 H2457 0.950 . S
C2465 C2463 1.327 . S
C2466 C2454 1.349 . S
C2466 H2460 0.950 . S
C2466 C2467 1.327 . S
C2467 H2461 0.950 . S
C2467 C2466 1.327 . S
C2467 C2471 1.429 . S
C2468 C2451 1.574 1_455 S
C2468 H2462 0.949 . S
C2468 C2472 1.368 . S
C2469 C2450 1.429 . S
C2469 C2463 1.429 . S
C2469 C2470 1.523 . S
C2470 C2451 1.368 . S
C2470 C2464 1.368 . S
C2470 C2469 1.523 . S
C2471 C2455 1.429 . S
C2471 C2467 1.429 . S
C2471 C2472 1.523 . S
C2472 C2456 1.368 . S
C2472 C2468 1.368 . S
C2472 C2471 1.523 . S
H2473 C2448 0.950 . S
H2474 C2450 0.950 . S
H2475 C2451 0.949 . S
H2476 C2453 0.950 . S
H2477 C2455 0.950 . S
C2478 C2479 1.349 . S
C2478 C2480 1.327 . S
C2478 H2503 0.950 . S
C2479 C2478 1.349 . S
C2479 C2495 1.349 . S
C2480 C2478 1.327 . S
C2480 C2499 1.429 . S
C2480 H2504 0.950 . S
C2481 C2498 1.574 . S
C2481 C2500 1.368 . S
C2481 H2505 0.949 . S
H2482 C2486 0.949 . S
C2483 C2484 1.349 . S
C2483 C2485 1.327 . S
C2483 H2506 0.950 . S
C2484 C2483 1.349 . S
C2484 C2496 1.349 . S
C2485 C2483 1.327 . S
C2485 C2501 1.429 . S
C2485 H2507 0.950 . S
C2486 H2482 0.949 . S
C2486 C2494 1.574 . S
C2486 C2502 1.368 . S
H2487 C2495 0.950 . S
H2488 C2493 0.950 . S
H2489 C2494 0.949 . S
H2490 C2496 0.950 . S
H2491 C2497 0.950 . S
H2492 C2498 0.949 . S
C2493 H2488 0.950 . S
C2493 C2495 1.327 . S
C2493 C2499 1.429 . S
C2494 C2486 1.574 . S
C2494 H2489 0.949 . S
C2494 C2500 1.368 . S
C2495 C2479 1.349 . S
C2495 H2487 0.950 . S
C2495 C2493 1.327 . S
C2496 C2484 1.349 . S
C2496 H2490 0.950 . S
C2496 C2497 1.327 . S
C2497 H2491 0.950 . S
C2497 C2496 1.327 . S
C2497 C2501 1.429 . S
C2498 C2481 1.574 . S
C2498 H2492 0.949 . S
C2498 C2502 1.368 . S
C2499 C2480 1.429 . S
C2499 C2493 1.429 . S
C2499 C2500 1.523 . S
C2500 C2481 1.368 . S
C2500 C2494 1.368 . S
C2500 C2499 1.523 . S
C2501 C2485 1.429 . S
C2501 C2497 1.429 . S
C2501 C2502 1.523 . S
C2502 C2486 1.368 . S
C2502 C2498 1.368 . S
C2502 C2501 1.523 . S
H2503 C2478 0.950 . S
H2504 C2480 0.950 . S
H2505 C2481 0.949 . S
H2506 C2483 0.950 . S
H2507 C2485 0.950 . S
C2508 C2509 1.349 . S
C2508 C2510 1.327 . S
C2508 H2533 0.950 . S
C2509 C2508 1.349 . S
C2509 C2525 1.349 . S
C2510 C2508 1.327 . S
C2510 C2529 1.429 . S
C2510 H2534 0.950 . S
C2511 C2528 1.574 1_565 S
C2511 C2530 1.368 . S
C2511 H2535 0.949 . S
H2512 C2516 0.949 . S
C2513 C2514 1.349 . S
C2513 C2515 1.327 . S
C2513 H2536 0.950 . S
C2514 C2513 1.349 . S
C2514 C2526 1.349 . S
C2515 C2513 1.327 . S
C2515 C2531 1.429 . S
C2515 H2537 0.950 . S
C2516 H2512 0.949 . S
C2516 C2524 1.574 1_545 S
C2516 C2532 1.368 . S
H2517 C2525 0.950 . S
H2518 C2523 0.950 . S
H2519 C2524 0.949 . S
H2520 C2526 0.950 . S
H2521 C2527 0.950 . S
H2522 C2528 0.949 . S
C2523 H2518 0.950 . S
C2523 C2525 1.327 . S
C2523 C2529 1.429 . S
C2524 C2516 1.574 1_565 S
C2524 H2519 0.949 . S
C2524 C2530 1.368 . S
C2525 C2509 1.349 . S
C2525 H2517 0.950 . S
C2525 C2523 1.327 . S
C2526 C2514 1.349 . S
C2526 H2520 0.950 . S
C2526 C2527 1.327 . S
C2527 H2521 0.950 . S
C2527 C2526 1.327 . S
C2527 C2531 1.429 . S
C2528 C2511 1.574 1_545 S
C2528 H2522 0.949 . S
C2528 C2532 1.368 . S
C2529 C2510 1.429 . S
C2529 C2523 1.429 . S
C2529 C2530 1.523 . S
C2530 C2511 1.368 . S
C2530 C2524 1.368 . S
C2530 C2529 1.523 . S
C2531 C2515 1.429 . S
C2531 C2527 1.429 . S
C2531 C2532 1.523 . S
C2532 C2516 1.368 . S
C2532 C2528 1.368 . S
C2532 C2531 1.523 . S
H2533 C2508 0.950 . S
H2534 C2510 0.950 . S
H2535 C2511 0.949 . S
H2536 C2513 0.950 . S
H2537 C2515 0.950 . S
C2538 C2539 1.349 . S
C2538 C2540 1.327 . S
C2538 H2563 0.950 . S
C2539 C2538 1.349 . S
C2539 C2555 1.349 . S
C2540 C2538 1.327 . S
C2540 C2559 1.429 . S
C2540 H2564 0.950 . S
C2541 C2558 1.574 1_565 S
C2541 C2560 1.368 . S
C2541 H2565 0.949 . S
H2542 C2546 0.949 . S
C2543 C2544 1.349 . S
C2543 C2545 1.327 . S
C2543 H2566 0.950 . S
C2544 C2543 1.349 . S
C2544 C2556 1.349 . S
C2545 C2543 1.327 . S
C2545 C2561 1.429 . S
C2545 H2567 0.950 . S
C2546 H2542 0.949 . S
C2546 C2554 1.574 1_545 S
C2546 C2562 1.368 . S
H2547 C2555 0.950 . S
H2548 C2553 0.950 . S
H2549 C2554 0.949 . S
H2550 C2556 0.950 . S
H2551 C2557 0.950 . S
H2552 C2558 0.949 . S
C2553 H2548 0.950 . S
C2553 C2555 1.327 . S
C2553 C2559 1.429 . S
C2554 C2546 1.574 1_565 S
C2554 H2549 0.949 . S
C2554 C2560 1.368 . S
C2555 C2539 1.349 . S
C2555 H2547 0.950 . S
C2555 C2553 1.327 . S
C2556 C2544 1.349 . S
C2556 H2550 0.950 . S
C2556 C2557 1.327 . S
C2557 H2551 0.950 . S
C2557 C2556 1.327 . S
C2557 C2561 1.429 . S
C2558 C2541 1.574 1_545 S
C2558 H2552 0.949 . S
C2558 C2562 1.368 . S
C2559 C2540 1.429 . S
C2559 C2553 1.429 . S
C2559 C2560 1.523 . S
C2560 C2541 1.368 . S
C2560 C2554 1.368 . S
C2560 C2559 1.523 . S
C2561 C2545 1.429 . S
C2561 C2557 1.429 . S
C2561 C2562 1.523 . S
C2562 C2546 1.368 . S
C2562 C2558 1.368 . S
C2562 C2561 1.523 . S
H2563 C2538 0.950 . S
H2564 C2540 0.950 . S
H2565 C2541 0.949 . S
H2566 C2543 0.950 . S
H2567 C2545 0.950 . S
C2568 C2569 1.349 . S
C2568 C2570 1.327 . S
C2568 H2593 0.950 . S
C2569 C2568 1.349 . S
C2569 C2585 1.349 . S
C2570 C2568 1.327 . S
C2570 C2589 1.429 . S
C2570 H2594 0.950 . S
C2571 C2588 1.574 1_655 S
C2571 C2590 1.368 . S
C2571 H2595 0.949 . S
H2572 C2576 0.949 . S
C2573 C2574 1.349 . S
C2573 C2575 1.327 . S
C2573 H2596 0.950 . S
C2574 C2573 1.349 . S
C2574 C2586 1.349 . S
C2575 C2573 1.327 . S
C2575 C2591 1.429 . S
C2575 H2597 0.950 . S
C2576 H2572 0.949 . S
C2576 C2584 1.574 1_455 S
C2576 C2592 1.368 . S
H2577 C2585 0.950 . S
H2578 C2583 0.950 . S
H2579 C2584 0.949 . S
H2580 C2586 0.950 . S
H2581 C2587 0.950 . S
H2582 C2588 0.949 . S
C2583 H2578 0.950 . S
C2583 C2585 1.327 . S
C2583 C2589 1.429 . S
C2584 C2576 1.574 1_655 S
C2584 H2579 0.949 . S
C2584 C2590 1.368 . S
C2585 C2569 1.349 . S
C2585 H2577 0.950 . S
C2585 C2583 1.327 . S
C2586 C2574 1.349 . S
C2586 H2580 0.950 . S
C2586 C2587 1.327 . S
C2587 H2581 0.950 . S
C2587 C2586 1.327 . S
C2587 C2591 1.429 . S
C2588 C2571 1.574 1_455 S
C2588 H2582 0.949 . S
C2588 C2592 1.368 . S
C2589 C2570 1.429 . S
C2589 C2583 1.429 . S
C2589 C2590 1.523 . S
C2590 C2571 1.368 . S
C2590 C2584 1.368 . S
C2590 C2589 1.523 . S
C2591 C2575 1.429 . S
C2591 C2587 1.429 . S
C2591 C2592 1.523 . S
C2592 C2576 1.368 . S
C2592 C2588 1.368 . S
C2592 C2591 1.523 . S
H2593 C2568 0.950 . S
H2594 C2570 0.950 . S
H2595 C2571 0.949 . S
H2596 C2573 0.950 . S
H2597 C2575 0.950 . S
C2598 C2599 1.349 . S
C2598 C2600 1.327 . S
C2598 H2623 0.950 . S
C2599 C2598 1.349 . S
C2599 C2615 1.349 . S
C2600 C2598 1.327 . S
C2600 C2619 1.429 . S
C2600 H2624 0.950 . S
C2601 C2618 1.574 . S
C2601 C2620 1.368 . S
C2601 H2625 0.949 . S
H2602 C2606 0.949 . S
C2603 C2604 1.349 . S
C2603 C2605 1.327 . S
C2603 H2626 0.950 . S
C2604 C2603 1.349 . S
C2604 C2616 1.349 . S
C2605 C2603 1.327 . S
C2605 C2621 1.429 . S
C2605 H2627 0.950 . S
C2606 H2602 0.949 . S
C2606 C2614 1.574 . S
C2606 C2622 1.368 . S
H2607 C2615 0.950 . S
H2608 C2613 0.950 . S
H2609 C2614 0.949 . S
H2610 C2616 0.950 . S
H2611 C2617 0.950 . S
H2612 C2618 0.949 . S
C2613 H2608 0.950 . S
C2613 C2615 1.327 . S
C2613 C2619 1.429 . S
C2614 C2606 1.574 . S
C2614 H2609 0.949 . S
C2614 C2620 1.368 . S
C2615 C2599 1.349 . S
C2615 H2607 0.950 . S
C2615 C2613 1.327 . S
C2616 C2604 1.349 . S
C2616 H2610 0.950 . S
C2616 C2617 1.327 . S
C2617 H2611 0.950 . S
C2617 C2616 1.327 . S
C2617 C2621 1.429 . S
C2618 C2601 1.574 . S
C2618 H2612 0.949 . S
C2618 C2622 1.368 . S
C2619 C2600 1.429 . S
C2619 C2613 1.429 . S
C2619 C2620 1.523 . S
C2620 C2601 1.368 . S
C2620 C2614 1.368 . S
C2620 C2619 1.523 . S
C2621 C2605 1.429 . S
C2621 C2617 1.429 . S
C2621 C2622 1.523 . S
C2622 C2606 1.368 . S
C2622 C2618 1.368 . S
C2622 C2621 1.523 . S
H2623 C2598 0.950 . S
H2624 C2600 0.950 . S
H2625 C2601 0.949 . S
H2626 C2603 0.950 . S
H2627 C2605 0.950 . S
C469 C5 1.724 . S
C474 C237 1.724 . S
C499 C16 1.750 . S
C504 C252 1.750 . S
C529 C263 1.723 . S
C534 C29 1.750 . S
C559 C42 1.750 . S
C564 C432 1.723 . S
C589 C447 1.750 . S
C594 C55 1.750 . S
C619 C70 1.724 . S
C624 C458 1.724 . S
C649 C317 1.724 . S
C654 C81 1.724 . S
C679 C96 1.750 . S
C684 C328 1.750 . S
C709 C107 1.723 . S
C714 C341 1.750 . S
C739 C120 1.723 . S
C744 C198 1.750 . S
C769 C211 1.750 . S
C774 C135 1.750 . S
C799 C146 1.724 . S
C804 C226 1.724 . S
C829 C161 1.723 . S
C834 C393 1.723 . S
C859 C172 1.750 . S
C864 C408 1.750 . S
C889 C185 1.750 . S
C894 C419 1.723 . S
C919 C276 1.723 . S
C924 C354 1.750 . S
C949 C291 1.750 . S
C954 C367 1.750 . S
C979 C302 1.724 . S
C984 C382 1.724 . S
C1009 C101 1.588 . S
C1014 C3 1.592 . S
C1039 C105 1.577 . S
C1044 C18 1.536 . S
C1069 C31 1.536 . S
C1074 C79 1.577 . S
C1099 C144 1.577 . S
C1104 C44 1.536 . S
C1129 C118 1.577 . S
C1134 C57 1.536 . S
C1159 C140 1.588 . S
C1164 C68 1.592 . S
C1189 C83 1.592 . S
C1194 C14 1.588 . S
C1219 C94 1.536 . S
C1224 C27 1.588 . S
C1249 C109 1.592 . S
C1254 C10 1.577 . S
C1279 C122 1.592 . S
C1284 C75 1.577 . S
C1309 C40 1.588 . S
C1314 C133 1.536 . S
C1339 C53 1.588 . S
C1344 C148 1.592 . S
C1369 C159 1.592 . S
C1374 C257 1.588 . S
C1399 C174 1.536 . S
C1404 C261 1.577 . S
C1429 C187 1.536 . S
C1434 C235 1.577 . S
C1459 C300 1.577 . S
C1464 C200 1.536 . S
C1489 C213 1.536 . S
C1494 C274 1.577 . S
C1519 C296 1.588 . S
C1524 C224 1.592 . S
C1549 C239 1.592 . S
C1554 C170 1.588 . S
C1579 C183 1.588 . S
C1584 C250 1.536 . S
C1609 C166 1.577 . S
C1614 C265 1.592 . S
C1639 C278 1.592 . S
C1644 C231 1.577 . S
C1669 C289 1.536 . S
C1674 C196 1.588 . S
C1699 C304 1.592 . S
C1704 C209 1.588 . S
C1729 C413 1.588 . S
C1734 C315 1.592 . S
C1759 C330 1.536 . S
C1764 C417 1.577 . S
C1789 C343 1.536 . S
C1794 C391 1.577 . S
C1819 C456 1.577 . S
C1824 C356 1.536 . S
C1849 C430 1.577 . S
C1854 C369 1.536 . S
C1879 C452 1.588 . S
C1884 C380 1.592 . S
C1909 C326 1.588 . S
C1914 C395 1.592 . S
C1939 C339 1.588 . S
C1944 C406 1.536 . S
C1969 C322 1.577 . S
C1974 C421 1.592 . S
C1999 C434 1.592 . S
C2004 C387 1.577 . S
C2029 C352 1.588 . S
C2034 C445 1.536 . S
C2059 C460 1.592 . S
C2064 C365 1.588 . S
C2089 C1 1.738 . S
C2094 C378 1.738 . S
C2119 C361 1.685 . S
C2124 C23 1.685 . S
C2149 C36 1.685 . S
C2154 C374 1.685 . S
C2179 C49 1.685 . S
C2184 C179 1.685 . S
C2209 C192 1.685 . S
C2214 C62 1.685 . S
C2239 C66 1.738 . S
C2244 C157 1.738 . S
C2269 C309 1.738 . S
C2274 C88 1.738 . S
C2299 C92 1.685 . S
C2304 C283 1.738 . S
C2329 C114 1.738 . S
C2334 C287 1.685 . S
C2359 C127 1.738 . S
C2364 C404 1.685 . S
C2389 C131 1.685 . S
C2394 C426 1.738 . S
C2419 C400 1.738 . S
C2424 C153 1.738 . S
C2449 C205 1.685 . S
C2454 C335 1.685 . S
C2479 C348 1.685 . S
C2484 C218 1.685 . S
C2509 C313 1.738 . S
C2514 C222 1.738 . S
C2539 C465 1.738 . S
C2544 C244 1.738 . S
C2569 C248 1.685 . S
C2574 C439 1.738 . S
C2599 C270 1.738 . S
C2604 C443 1.685 . S
