# Generated by pormake.
# Topology qtz-e, (6)-cn, num edge types: 1
# Building blocks:
#     Node 0, Type 0, BuildingBlock: KUMJIN_clean_sbu_0, # of connection points: 6
#     Node 1, Type 0, BuildingBlock: KUMJIN_clean_sbu_0, # of connection points: 6
#     Node 2, Type 0, BuildingBlock: KUMJIN_clean_sbu_0, # of connection points: 6
#     Node 3, Type 0, BuildingBlock: KUMJIN_clean_sbu_0, # of connection points: 6
#     Node 4, Type 0, BuildingBlock: KUMJIN_clean_sbu_0, # of connection points: 6
#     Node 5, Type 0, BuildingBlock: KUMJIN_clean_sbu_0, # of connection points: 6
#     Edge 6, Type (0, 0), BuildingBlock: AJUNOK_clean_linker_0, # of connection points: 2
#     Edge 7, Type (0, 0), BuildingBlock: AJUNOK_clean_linker_0, # of connection points: 2
#     Edge 8, Type (0, 0), BuildingBlock: AJUNOK_clean_linker_0, # of connection points: 2
#     Edge 9, Type (0, 0), BuildingBlock: AJUNOK_clean_linker_0, # of connection points: 2
#     Edge 10, Type (0, 0), BuildingBlock: AJUNOK_clean_linker_0, # of connection points: 2
#     Edge 11, Type (0, 0), BuildingBlock: AJUNOK_clean_linker_0, # of connection points: 2
#     Edge 12, Type (0, 0), BuildingBlock: AJUNOK_clean_linker_0, # of connection points: 2
#     Edge 13, Type (0, 0), BuildingBlock: AJUNOK_clean_linker_0, # of connection points: 2
#     Edge 14, Type (0, 0), BuildingBlock: AJUNOK_clean_linker_0, # of connection points: 2
#     Edge 15, Type (0, 0), BuildingBlock: AJUNOK_clean_linker_0, # of connection points: 2
#     Edge 16, Type (0, 0), BuildingBlock: AJUNOK_clean_linker_0, # of connection points: 2
#     Edge 17, Type (0, 0), BuildingBlock: AJUNOK_clean_linker_0, # of connection points: 2
#     Edge 18, Type (0, 0), BuildingBlock: AJUNOK_clean_linker_0, # of connection points: 2
#     Edge 19, Type (0, 0), BuildingBlock: AJUNOK_clean_linker_0, # of connection points: 2
#     Edge 20, Type (0, 0), BuildingBlock: AJUNOK_clean_linker_0, # of connection points: 2
#     Edge 21, Type (0, 0), BuildingBlock: AJUNOK_clean_linker_0, # of connection points: 2
#     Edge 22, Type (0, 0), BuildingBlock: AJUNOK_clean_linker_0, # of connection points: 2
#     Edge 23, Type (0, 0), BuildingBlock: AJUNOK_clean_linker_0, # of connection points: 2
# Relax obj value: 0.064
# Max RMSD: 0.154
# Mean RMSD: 0.154
data_MOF--net-qtz-e--node1-KUMJIN_clean_sbu_0--edge1-AJUNOK_clean_linker_0
_symmetry_space_group_name_H-M    P1
_symmetry_Int_Tables_number       1
_symmetry_cell_setting            triclinic
loop_
_symmetry_equiv_pos_as_xyz
'x, y, z'
_cell_length_a     22.10483
_cell_length_b     22.245332
_cell_length_c     37.413331
_cell_angle_alpha  90.098583
_cell_angle_beta   89.627881
_cell_angle_gamma 119.98603
loop_
_atom_site_label
_atom_site_type_symbol
_atom_site_fract_x
_atom_site_fract_y
_atom_site_fract_z
_atom_type_partial_charge
Eu0 Eu 0.25956 0.5353 0.06254 0.0
C1 C 0.08767 0.23166 0.0416 0.0
C2 C 0.13621 0.19269 0.08805 0.0
C3 C 1.01248 0.12561 0.07486 0.0
C4 C 0.14515 0.24127 0.06119 0.0
C5 C 0.02117 0.17288 0.04782 0.0
C6 C 0.06975 0.13561 0.09498 0.0
C7 C 0.97637 0.20946 0.99895 0.0
N8 N 0.09645 0.27887 1.0162 0.0
C9 C 0.04282 0.26695 0.99386 0.0
C10 C 0.96519 0.16275 0.02642 0.0
Eu11 Eu 0.20949 0.3767 1.01049 0.0
N12 N 0.20916 0.2978 0.0544 0.0
C13 C 0.26618 0.30654 0.07317 0.0
C14 C 0.19423 0.20274 0.10744 0.0
C15 C 0.25939 0.25954 0.09978 0.0
H16 H 0.05072 0.30253 0.97232 0.0
H17 H 0.30457 0.26744 0.11467 0.0
H18 H 0.0622 0.09843 0.11569 0.0
H19 H 0.9338 0.20132 0.98171 0.0
H20 H 0.31777 0.34944 0.06877 0.0
H21 H 0.33447 0.75394 0.97211 0.0
H22 H 0.18932 0.16679 0.12829 0.0
H23 H 0.34749 0.52417 0.13491 0.0
H24 H 0.25993 0.63651 0.99609 0.0
H25 H 0.45325 0.59857 0.16855 0.0
H26 H 0.96169 0.08076 0.08024 0.0
H27 H 0.44707 0.83335 1.00096 0.0
H28 H 0.53139 0.85534 0.05051 0.0
H29 H 0.91351 0.11831 0.03042 0.0
H30 H 0.56256 0.81376 0.10433 0.0
N31 N 0.33125 0.64642 0.03673 0.0
C32 C 0.30977 0.66946 1.00838 0.0
C33 C 0.41495 0.78119 1.01129 0.0
C34 C 0.4353 0.75859 0.04136 0.0
C35 C 0.35156 0.73655 0.99491 0.0
C36 C 0.39155 0.69011 0.05376 0.0
H37 H 0.53356 0.71869 0.14857 0.0
N38 N 0.3654 0.60059 0.09524 0.0
C39 C 0.44139 0.61848 0.14485 0.0
C40 C 0.40881 0.66687 0.08414 0.0
C41 C 0.38078 0.57629 0.12548 0.0
C42 C 0.48659 0.68622 0.1335 0.0
C43 C 0.47072 0.71124 0.10282 0.0
O44 O 0.20749 0.53983 0.11136 0.0
O45 O 0.19061 0.41852 0.0612 0.0
O46 O 0.11827 0.40329 1.01203 0.0
O47 O 0.18204 0.52159 1.02042 0.0
O48 O 0.2395 0.46085 0.10832 0.0
O49 O 0.20833 0.59724 0.06499 0.0
O50 O 0.17858 0.35472 0.95469 0.0
O51 O 0.24648 0.48938 1.00843 0.0
O52 O 0.36052 0.5364 0.0513 0.0
O53 O 0.32482 0.42587 0.02754 0.0
O54 O 0.29448 0.45636 0.97402 0.0
O55 O 0.23681 0.30922 0.97795 0.0
C56 C 0.1962 0.40359 0.09324 0.0
C57 C 0.22401 0.65204 0.12042 0.0
C58 C 0.27727 0.7149 0.17504 0.0
C59 C 0.24594 0.65311 0.15562 0.0
C60 C 0.28588 0.77606 0.15924 0.0
C61 C 0.23233 0.7134 0.10504 0.0
C62 C 0.26336 0.77512 0.12442 0.0
C63 C 0.12184 0.46518 1.01473 0.0
C64 C 0.1966 0.58829 0.09911 0.0
C65 C 0.51481 0.77907 0.09035 0.0
C66 C 0.49716 0.80268 0.05967 0.0
C67 C 0.29015 0.50977 0.98316 0.0
C68 C 0.19524 0.27702 0.91554 0.0
C69 C 0.24917 0.27697 0.89432 0.0
C70 C 0.23385 0.24275 0.86051 0.0
C71 C 0.16423 0.208 0.84898 0.0
C72 C 0.12646 0.24095 0.90292 0.0
C73 C 0.11121 0.20664 0.87009 0.0
C74 C 0.37373 0.48799 0.03955 0.0
C75 C 0.2103 0.31935 0.94895 0.0
H76 H 0.23917 0.6061 0.16804 0.0
H77 H 0.30809 0.82411 0.1742 0.0
H78 H 0.21554 0.71385 0.07795 0.0
H79 H 0.26959 0.82221 0.1125 0.0
H80 H 0.30271 0.30505 0.90346 0.0
H81 H 0.15064 0.18113 0.82356 0.0
H82 H 0.08433 0.24011 0.91829 0.0
H83 H 0.05784 0.17929 0.86073 0.0
Eu84 Eu 0.73813 0.25315 0.39677 0.0
C85 C 0.89141 0.10913 0.39589 0.0
C86 C 1.00038 0.18408 0.42558 0.0
C87 C 0.93605 0.06126 0.44012 0.0
C88 C 0.94703 0.17452 0.40174 0.0
C89 C 0.88657 0.05121 0.41397 0.0
C90 C 0.99306 0.12773 0.4459 0.0
C91 C 0.79046 0.97755 0.3756 0.0
N92 N 0.84499 0.10153 0.37037 0.0
C93 C 0.79788 0.0367 0.3584 0.0
C94 C 0.8338 0.98488 0.40421 0.0
Eu95 Eu 0.85184 0.20447 0.34714 0.0
N96 N 0.95235 0.22747 0.38146 0.0
C97 C 1.01497 0.28799 0.37949 0.0
C98 C 0.06103 0.249 0.4268 0.0
C99 C 0.06914 0.30028 0.4027 0.0
H100 H 0.76557 0.03003 0.33554 0.0
H101 H 0.11739 0.34892 0.40145 0.0
H102 H 0.03267 0.13445 0.46494 0.0
H103 H 0.75163 0.92639 0.3666 0.0
H104 H 0.02391 0.32717 0.3599 0.0
H105 H 0.61267 0.34062 0.30098 0.0
H106 H 0.10343 0.25863 0.44459 0.0
H107 H 0.77518 0.3045 0.48383 0.0
H108 H 0.64606 0.26049 0.32736 0.0
H109 H 0.79417 0.40209 0.52147 0.0
H110 H 0.93234 0.01766 0.45488 0.0
H111 H 0.64458 0.45152 0.33108 0.0
H112 H 0.69412 0.52747 0.385 0.0
H113 H 0.82822 0.93905 0.41741 0.0
H114 H 0.74215 0.54331 0.44561 0.0
N115 N 0.70155 0.32705 0.37073 0.0
C116 C 0.66226 0.30935 0.34041 0.0
C117 C 0.66042 0.41686 0.34255 0.0
C118 C 0.69507 0.43184 0.3753 0.0
C119 C 0.64229 0.35437 0.32552 0.0
C120 C 0.71427 0.38473 0.38913 0.0
H121 H 0.77776 0.49597 0.49697 0.0
N122 N 0.75382 0.34415 0.43644 0.0
C123 C 0.78024 0.40093 0.49369 0.0
C124 C 0.74078 0.39333 0.42319 0.0
C125 C 0.77062 0.34594 0.47174 0.0
C126 C 0.77067 0.45364 0.47983 0.0
C127 C 0.74946 0.44971 0.44438 0.0
O128 O 0.67713 0.17904 0.43897 0.0
O129 O 0.79144 0.18824 0.3979 0.0
O130 O 0.73339 0.11533 0.34947 0.0
O131 O 0.68358 0.18346 0.35046 0.0
O132 O 0.80835 0.25277 0.44043 0.0
O133 O 0.62465 0.20032 0.39688 0.0
O134 O 0.82408 0.14692 0.29636 0.0
O135 O 0.77965 0.24552 0.34378 0.0
O136 O 0.83799 0.3558 0.38929 0.0
O137 O 0.91449 0.31926 0.36747 0.0
O138 O 0.8649 0.29264 0.31122 0.0
O139 O 0.93237 0.22506 0.30578 0.0
C140 C 0.81953 0.20514 0.4284 0.0
C141 C 0.56978 0.17357 0.45239 0.0
C142 C 0.54819 0.21251 0.50885 0.0
C143 C 0.59273 0.2026 0.48627 0.0
C144 C 0.48003 0.19255 0.4979 0.0
C145 C 0.5013 0.15282 0.44168 0.0
C146 C 0.45665 0.1625 0.46441 0.0
C147 C 0.6762 0.1214 0.34836 0.0
C148 C 0.61761 0.16877 0.42699 0.0
C149 C 0.7348 0.4992 0.42991 0.0
C150 C 0.70767 0.4903 0.39538 0.0
C151 C 0.8074 0.29069 0.31958 0.0
C152 C 0.90625 0.1677 0.24671 0.0
C153 C 0.96322 0.21897 0.22597 0.0
C154 C 0.97429 0.20506 0.18994 0.0
C155 C 0.92887 0.13915 0.17577 0.0
C156 C 0.8626 0.10271 0.23114 0.0
C157 C 0.87414 0.08858 0.19622 0.0
C158 C 0.90099 0.36846 0.3793 0.0
C159 C 0.88708 0.18171 0.28314 0.0
H160 H 0.64527 0.21855 0.49501 0.0
H161 H 0.44487 0.19964 0.51543 0.0
H162 H 0.48289 0.1303 0.4155 0.0
H163 H 0.40417 0.1472 0.45596 0.0
H164 H 0.9969 0.26986 0.23723 0.0
H165 H 0.93603 0.12647 0.14866 0.0
H166 H 0.81872 0.06258 0.24595 0.0
H167 H 0.83982 0.03811 0.18473 0.0
Eu168 Eu 0.50354 0.75909 0.73205 0.0
C169 C 0.81335 0.83824 0.70129 0.0
C170 C 0.86791 0.92454 0.74756 0.0
C171 C 0.92331 0.85995 0.72685 0.0
C172 C 0.8128 0.88737 0.72338 0.0
C173 C 0.8693 0.82487 0.70208 0.0
C174 C 0.92254 0.90967 0.74963 0.0
C175 C 0.81652 0.74698 0.65225 0.0
N176 N 0.76032 0.80537 0.67792 0.0
C177 C 0.76206 0.76189 0.65276 0.0
C178 C 0.86992 0.77783 0.67739 0.0
Eu179 Eu 0.66804 0.82988 0.67996 0.0
N180 N 0.75918 0.90017 0.72049 0.0
C181 C 0.75938 0.95237 0.73994 0.0
C182 C 0.86702 0.97631 0.76841 0.0
C183 C 0.81289 0.9908 0.76427 0.0
H184 H 0.72074 0.73804 0.63329 0.0
H185 H 0.81195 0.03117 0.78004 0.0
H186 H 0.96506 0.93726 0.76823 0.0
H187 H 0.81722 0.7117 0.63252 0.0
H188 H 0.71751 0.96362 0.73775 0.0
H189 H 0.27356 0.66031 0.64767 0.0
H190 H 0.90825 1.00596 0.78736 0.0
H191 H 0.57962 0.91025 0.78258 0.0
H192 H 0.38079 0.66786 0.6719 0.0
H193 H 0.54651 0.99123 0.80727 0.0
H194 H 0.96647 0.84997 0.72814 0.0
H195 H 0.23177 0.73702 0.67149 0.0
H196 H 0.24945 0.83276 0.71311 0.0
H197 H 0.91203 0.7662 0.677 0.0
H198 H 0.32266 0.921 0.75709 0.0
N199 N 0.40215 0.75109 0.70687 0.0
C200 C 0.3647 0.70365 0.68113 0.0
C201 C 0.27945 0.74121 0.68175 0.0
C202 C 0.31768 0.7893 0.70846 0.0
C203 C 0.30315 0.69824 0.66801 0.0
C204 C 0.37952 0.79285 0.72091 0.0
H205 H 0.43299 0.98038 0.79215 0.0
N206 N 0.48229 0.8469 0.75606 0.0
C207 C 0.51003 0.94867 0.79071 0.0
C208 C 0.42053 0.84194 0.7463 0.0
C209 C 0.52794 0.90103 0.77705 0.0
C210 C 0.44598 0.94251 0.78204 0.0
C211 C 0.40091 0.88961 0.75908 0.0
O212 O 0.47018 0.71137 0.78413 0.0
O213 O 0.61696 0.79163 0.73326 0.0
O214 O 0.63034 0.71266 0.69171 0.0
O215 O 0.51469 0.66848 0.71251 0.0
O216 O 0.57654 0.80577 0.77961 0.0
O217 O 0.41199 0.65477 0.73729 0.0
O218 O 0.69176 0.84111 0.62255 0.0
O219 O 0.55321 0.77868 0.67816 0.0
O220 O 0.51092 0.83852 0.69263 0.0
O221 O 0.62998 0.90833 0.69392 0.0
O222 O 0.60067 0.74911 0.63956 0.0
O223 O 0.70811 0.93049 0.65215 0.0
C224 C 0.63257 0.81242 0.7652 0.0
C225 C 0.35007 0.64604 0.79144 0.0
C226 C 0.29543 0.63605 0.84947 0.0
C227 C 0.34804 0.6361 0.82838 0.0
C228 C 0.2449 0.64742 0.83311 0.0
C229 C 0.29686 0.65299 0.77516 0.0
C230 C 0.24517 0.65481 0.79603 0.0
C231 C 0.56715 0.65972 0.70165 0.0
C232 C 0.4133 0.65822 0.77216 0.0
C233 C 0.33841 0.88492 0.74746 0.0
C234 C 0.29681 0.83478 0.72232 0.0
C235 C 0.54154 0.73997 0.65129 0.0
C236 C 0.77173 0.95057 0.59687 0.0
C237 C 0.76569 0.98858 0.56779 0.0
C238 C 0.82319 0.02803 0.54437 0.0
C239 C 0.88538 0.02675 0.55014 0.0
C240 C 0.83512 0.95185 0.60187 0.0
C241 C 0.89123 0.98935 0.57857 0.0
C242 C 0.56642 0.90016 0.68967 0.0
C243 C 0.71116 0.90668 0.62073 0.0
H244 H 0.38776 0.62804 0.84066 0.0
H245 H 0.20432 0.64881 0.84884 0.0
H246 H 0.29553 0.65809 0.74659 0.0
H247 H 0.20521 0.66186 0.78342 0.0
H248 H 0.71696 0.98807 0.56371 0.0
H249 H 0.92992 0.05499 0.5325 0.0
H250 H 0.84094 0.92304 0.62361 0.0
H251 H 0.93971 0.98937 0.58254 0.0
Eu252 Eu 0.74504 0.48121 0.06252 0.0
C253 C 0.97915 0.77338 0.03896 0.0
C254 C 0.95325 0.83259 0.08592 0.0
C255 C 0.07384 0.87075 0.07027 0.0
C256 C 0.93046 0.7797 0.05983 0.0
C257 C 0.05128 0.8203 0.04332 0.0
C258 C 0.02495 0.87678 0.09157 0.0
C259 C 0.07391 0.76826 0.9921 0.0
N260 N 0.95626 0.72368 1.01333 0.0
C261 C 1.00215 0.72293 0.98883 0.0
C262 C 0.09873 0.81632 1.01989 0.0
Eu263 Eu 0.83424 0.6446 1.01215 0.0
N264 N 0.86116 0.73588 0.05401 0.0
C265 C 0.81251 0.74573 0.07194 0.0
C266 C 0.90342 0.84048 0.10526 0.0
C267 C 0.83287 0.79758 0.09782 0.0
H268 H 0.98369 0.68567 0.96728 0.0
H269 H 0.7939 0.80404 0.11225 0.0
H270 H 0.04314 0.9169 0.11181 0.0
H271 H 0.11 0.76588 0.97326 0.0
H272 H 0.75751 0.71383 0.06732 0.0
H273 H 0.68282 0.27091 0.96823 0.0
H274 H 0.91889 0.88031 0.12551 0.0
H275 H 0.63734 0.49938 0.12127 0.0
H276 H 0.75892 0.37769 1.00199 0.0
H277 H 0.51184 0.44426 0.13483 0.0
H278 H 0.129 0.90643 0.07432 0.0
H279 H 0.55451 0.21282 0.97578 0.0
H280 H 0.45105 0.2074 1.00713 0.0
H281 H 0.15442 0.85138 0.02242 0.0
H282 H 0.40472 0.25422 0.05254 0.0
N283 N 0.67482 0.3806 0.02806 0.0
C284 C 0.70307 0.35265 1.00561 0.0
C285 C 0.5877 0.25959 0.99073 0.0
C286 C 0.55912 0.28675 1.01496 0.0
C287 C 0.66008 0.29209 0.98647 0.0
C288 C 0.60466 0.34768 0.03381 0.0
H289 H 0.4271 0.34246 0.10019 0.0
N290 N 0.62446 0.43083 0.07836 0.0
C291 C 0.52998 0.42384 0.11366 0.0
C292 C 0.57862 0.37295 0.06 0.0
C293 C 0.60131 0.45499 0.10584 0.0
C294 C 0.48225 0.3663 0.09405 0.0
C295 C 0.50631 0.33953 0.06718 0.0
O296 O 0.76797 0.4665 0.11723 0.0
O297 O 0.8283 0.59412 0.06495 0.0
O298 O 0.90931 0.59744 1.01471 0.0
O299 O 0.84013 0.48557 0.03776 0.0
O300 O 0.75933 0.55674 0.10709 0.0
O301 O 0.75475 0.3913 0.07692 0.0
O302 O 0.86388 0.66962 0.95568 0.0
O303 O 0.78517 0.52929 1.0094 0.0
O304 O 0.6648 0.50216 0.03972 0.0
O305 O 0.72429 0.62128 0.03064 0.0
O306 O 0.75372 0.5734 0.97214 0.0
O307 O 0.80723 0.71345 0.98251 0.0
C308 C 0.81537 0.61009 0.09546 0.0
C309 C 0.70607 0.35079 0.13408 0.0
C310 C 0.67038 0.30789 0.19431 0.0
C311 C 0.72123 0.35326 0.17021 0.0
C312 C 0.60259 0.26166 0.18221 0.0
C313 C 0.63943 0.30176 0.12174 0.0
C314 C 0.58745 0.25837 0.14587 0.0
C315 C 0.89975 0.53479 0.02425 0.0
C316 C 0.7582 0.40483 0.11088 0.0
C317 C 0.46051 0.28037 0.04754 0.0
C318 C 0.48688 0.25388 0.02159 0.0
C319 C 0.74888 0.51597 0.98168 0.0
C320 C 0.85406 0.75864 0.92345 0.0
C321 C 0.80593 0.75489 0.89719 0.0
C322 C 0.82737 0.80523 0.86951 0.0
C323 C 0.89731 0.85881 0.86857 0.0
C324 C 0.92348 0.81273 0.92148 0.0
C325 C 0.9448 0.86231 0.89422 0.0
C326 C 0.66573 0.56042 0.03364 0.0
C327 C 0.8316 0.70502 0.95209 0.0
H328 H 0.77364 0.38937 0.17936 0.0
H329 H 0.56254 0.22624 0.20058 0.0
H330 H 0.62733 0.29708 0.0937 0.0
H331 H 0.53584 0.22142 0.13632 0.0
H332 H 0.75205 0.71331 0.8984 0.0
H333 H 0.91521 0.8982 0.84789 0.0
H334 H 0.96122 0.81656 0.94103 0.0
H335 H 0.99857 0.90394 0.89299 0.0
Eu336 Eu 0.28132 0.74045 0.39522 0.0
C337 C 0.21981 0.97565 0.36287 0.0
C338 C 0.13748 0.95654 0.41039 0.0
C339 C 0.21363 0.07336 0.38797 0.0
C340 C 0.16846 0.93117 0.38609 0.0
C341 C 0.24203 0.04712 0.36286 0.0
C342 C 0.16144 0.0281 0.41176 0.0
C343 C 0.31459 0.06013 0.31156 0.0
N344 N 0.24548 0.94834 0.33895 0.0
C345 C 0.29064 0.98884 0.31268 0.0
C346 C 0.29083 0.08961 0.33705 0.0
Eu347 Eu 0.20958 0.82901 0.3442 0.0
N348 N 0.14647 0.86249 0.38368 0.0
C349 C 0.09009 0.81569 0.40328 0.0
C350 C 0.08222 0.90905 0.43188 0.0
C351 C 0.05771 0.8382 0.42788 0.0
H352 H 0.30972 0.9663 0.29316 0.0
H353 H 1.01421 0.80084 0.44393 0.0
H354 H 0.13878 0.04869 0.43047 0.0
H355 H 0.35151 0.09226 0.29114 0.0
H356 H 0.0708 0.76088 0.40097 0.0
H357 H 0.45353 0.69605 0.30801 0.0
H358 H 0.05715 0.92638 0.45099 0.0
H359 H 0.14824 0.62826 0.44865 0.0
H360 H 0.4053 0.76367 0.33594 0.0
H361 H 0.09872 0.50825 0.47022 0.0
H362 H 0.23049 0.12822 0.38867 0.0
H363 H 0.40556 0.5727 0.32441 0.0
H364 H 0.32448 0.47209 0.36303 0.0
H365 H 0.3093 0.1448 0.33612 0.0
H366 H 0.23295 0.42341 0.40906 0.0
N367 N 0.32556 0.67793 0.36435 0.0
C368 C 0.38149 0.70907 0.3417 0.0
C369 C 0.38256 0.60162 0.3357 0.0
C370 C 0.32769 0.57093 0.36052 0.0
C371 C 0.40974 0.67115 0.32635 0.0
C372 C 0.29936 0.61072 0.37437 0.0
H373 H 0.14602 0.4352 0.44816 0.0
N374 N 0.22086 0.62253 0.41308 0.0
C375 C 0.14032 0.52858 0.45049 0.0
C376 C 0.24634 0.58254 0.39986 0.0
C377 C 0.16857 0.5967 0.43813 0.0
C378 C 0.16698 0.48736 0.43782 0.0
C379 C 0.22054 0.51406 0.41215 0.0
O380 O 0.30773 0.74535 0.45133 0.0
O381 O 0.25123 0.82333 0.39785 0.0
O382 O 0.32864 0.90907 0.35323 0.0
O383 O 0.37223 0.83861 0.37324 0.0
O384 O 0.21459 0.75144 0.43827 0.0
O385 O 0.3882 0.77388 0.41033 0.0
O386 O 0.19489 0.83583 0.28657 0.0
O387 O 0.25203 0.7577 0.3412 0.0
O388 O 0.18761 0.65732 0.36777 0.0
O389 O 0.12645 0.7164 0.36381 0.0
O390 O 0.28827 0.83687 0.3037 0.0
O391 O 0.10544 0.77235 0.31904 0.0
C392 C 0.21925 0.80857 0.4276 0.0
C393 C 0.39291 0.71442 0.4616 0.0
C394 C 0.41575 0.67553 0.5176 0.0
C395 C 0.38753 0.70964 0.49869 0.0
C396 C 0.44145 0.63808 0.49878 0.0
C397 C 0.42033 0.67852 0.44281 0.0
C398 C 0.44262 0.63881 0.46143 0.0
C399 C 0.38198 0.89883 0.3616 0.0
C400 C 0.37123 0.75909 0.44394 0.0
C401 C 0.24982 0.47499 0.39897 0.0
C402 C 0.3025 0.50296 0.37289 0.0
C403 C 0.29151 0.78337 0.31424 0.0
C404 C 0.08488 0.81028 0.26238 0.0
C405 C 0.04628 0.76609 0.23331 0.0
C406 C 1.0064 0.78377 0.21022 0.0
C407 C 1.00733 0.84657 0.21657 0.0
C408 C 0.08391 0.87215 0.26752 0.0
C409 C 0.04568 0.89011 0.24473 0.0
C410 C 0.12851 0.65725 0.36487 0.0
C411 C 0.12789 0.79334 0.28661 0.0
H412 H 0.36564 0.73685 0.51307 0.0
H413 H 0.46404 0.61154 0.51282 0.0
H414 H 0.4255 0.68175 0.41403 0.0
H415 H 0.46378 0.61119 0.44697 0.0
H416 H 0.04635 0.71792 0.22912 0.0
H417 H 0.97799 0.86211 0.19958 0.0
H418 H 0.11311 0.90685 0.28917 0.0
H419 H 0.04553 0.93818 0.249 0.0
Eu420 Eu 0.56477 0.28256 0.72869 0.0
C421 C 0.25168 0.17403 0.70504 0.0
C422 C 0.20699 0.08691 0.75172 0.0
C423 C 0.14023 0.14135 0.73362 0.0
C424 C 0.2589 0.12727 0.72621 0.0
C425 C 0.19194 0.18115 0.70819 0.0
C426 C 0.14782 0.09441 0.7554 0.0
C427 C 0.23818 0.26536 0.66028 0.0
N428 N 0.30299 0.21248 0.6812 0.0
C429 C 0.29652 0.2566 0.65831 0.0
C430 C 0.18583 0.22782 0.68552 0.0
Eu431 Eu 0.40048 0.19605 0.67883 0.0
N432 N 0.31707 0.12184 0.72216 0.0
C433 C 0.3256 0.07553 0.74242 0.0
C434 C 0.21622 0.04043 0.77289 0.0
C435 C 0.27574 0.03466 0.76815 0.0
H436 H 0.33686 0.28549 0.63864 0.0
H437 H 0.28355 0.99913 0.78456 0.0
H438 H 0.10753 0.064 0.77491 0.0
H439 H 0.23362 0.30098 0.64233 0.0
H440 H 0.37164 0.07101 0.73984 0.0
H441 H 0.75964 0.40103 0.6222 0.0
H442 H 0.17782 1.00885 0.79294 0.0
H443 H 0.5743 0.20483 0.80398 0.0
H444 H 0.65887 0.38154 0.65952 0.0
H445 H 0.64753 0.16123 0.82946 0.0
H446 H 0.09412 0.14631 0.73658 0.0
H447 H 0.8264 0.34271 0.63761 0.0
H448 H 0.84887 0.27101 0.68149 0.0
H449 H 0.14072 0.23472 0.68705 0.0
H450 H 0.82061 0.20892 0.73895 0.0
N451 N 0.6625 0.30586 0.69244 0.0
C452 C 0.68543 0.35313 0.66527 0.0
C453 C 0.7808 0.33228 0.65331 0.0
C454 C 0.76179 0.28998 0.68371 0.0
C455 C 0.7433 0.36528 0.64452 0.0
C456 C 0.70181 0.27794 0.70316 0.0
H457 H 0.74708 0.16971 0.79473 0.0
N458 N 0.63 0.23561 0.75454 0.0
C459 C 0.65868 0.18375 0.80294 0.0
C460 C 0.6863 0.24343 0.73564 0.0
C461 C 0.61699 0.20823 0.78829 0.0
C462 C 0.71489 0.1887 0.78327 0.0
C463 C 0.72976 0.21939 0.74933 0.0
O464 O 0.58693 0.33704 0.77949 0.0
O465 O 0.45027 0.24634 0.73058 0.0
O466 O 0.43008 0.31176 0.68835 0.0
O467 O 0.54929 0.36384 0.70146 0.0
O468 O 0.49234 0.23291 0.77645 0.0
O469 O 0.64889 0.39037 0.73274 0.0
O470 O 0.37112 0.18684 0.62225 0.0
O471 O 0.51586 0.24155 0.67498 0.0
O472 O 0.5447 0.17445 0.72275 0.0
O473 O 0.44376 0.1208 0.68817 0.0
O474 O 0.46778 0.27492 0.63852 0.0
O475 O 0.35528 0.09587 0.65008 0.0
C476 C 0.43577 0.2255 0.7627 0.0
C477 C 0.70717 0.40354 0.78745 0.0
C478 C 0.75552 0.40487 0.8458 0.0
C479 C 0.70584 0.40916 0.82451 0.0
C480 C 0.8068 0.39426 0.82929 0.0
C481 C 0.76217 0.39892 0.77116 0.0
C482 C 0.811 0.39305 0.79208 0.0
C483 C 0.49338 0.36782 0.69339 0.0
C484 C 0.64457 0.38982 0.76751 0.0
C485 C 0.78716 0.22779 0.72907 0.0
C486 C 0.80304 0.26286 0.69627 0.0
C487 C 0.52556 0.27715 0.64679 0.0
C488 C 0.29063 0.07803 0.59539 0.0
C489 C 0.29535 0.03795 0.56663 0.0
C490 C 0.2376 0.9992 0.54341 0.0
C491 C 0.17673 1.00313 0.54914 0.0
C492 C 0.22836 0.07928 0.60012 0.0
C493 C 0.17223 0.04249 0.57709 0.0
C494 C 0.49717 0.12092 0.70483 0.0
C495 C 0.35123 0.12118 0.61932 0.0
H496 H 0.66509 0.41611 0.83667 0.0
H497 H 0.84441 0.3883 0.84502 0.0
H498 H 0.76595 0.397 0.74242 0.0
H499 H 0.85159 0.38664 0.77943 0.0
H500 H 0.34307 0.03623 0.56269 0.0
H501 H 0.13192 0.97501 0.53193 0.0
H502 H 0.22334 0.10939 0.62153 0.0
H503 H 0.12462 0.04435 0.58098 0.0
C504 C 0.2458 0.68442 0.27342 0.0
C505 C 0.30387 0.74438 0.28667 0.0
C506 C 0.24065 0.66985 0.23681 0.0
C507 C 0.29393 0.71449 0.21307 0.0
H508 H 0.20004 0.65498 0.29013 0.0
H509 H 0.19151 0.62854 0.22668 0.0
S510 S 0.46566 0.86367 0.23724 0.0
N511 N 0.42196 0.83821 0.27537 0.0
N512 N 0.41327 0.80935 0.20659 0.0
C513 C 0.35701 0.76683 0.22715 0.0
C514 C 0.36196 0.78183 0.26423 0.0
C515 C 0.57494 0.32426 0.58817 0.0
C516 C 0.56763 0.27866 0.61601 0.0
C517 C 0.57558 0.30563 0.55263 0.0
C518 C 0.57157 0.24233 0.54439 0.0
H519 H 0.56996 0.36949 0.59363 0.0
H520 H 0.5726 0.33753 0.53163 0.0
S521 S 0.57822 0.11829 0.6077 0.0
N522 N 0.57539 0.17742 0.63332 0.0
N523 N 0.57828 0.14303 0.56609 0.0
C524 C 0.57733 0.20286 0.5719 0.0
C525 C 0.5757 0.22138 0.60813 0.0
C526 C 0.34961 0.60935 0.94107 0.0
C527 C 0.28786 0.55217 0.95372 0.0
C528 C 0.3504 0.64143 0.90869 0.0
C529 C 0.28989 0.61575 0.88749 0.0
H530 H 0.39792 0.6277 0.95562 0.0
H531 H 0.3996 0.68396 0.89912 0.0
S532 S 0.11569 0.46533 0.90844 0.0
N533 N 0.16522 0.47098 0.94245 0.0
N534 N 0.16677 0.53036 0.88185 0.0
C535 C 0.22737 0.56031 0.90065 0.0
C536 C 0.22652 0.52825 0.93358 0.0
C537 C 0.77293 0.35781 0.2799 0.0
C538 C 0.766 0.29424 0.29033 0.0
C539 C 0.73629 0.36126 0.25031 0.0
C540 C 0.69321 0.30143 0.23011 0.0
H541 H 0.80691 0.40478 0.29453 0.0
H542 H 0.7439 0.41133 0.24223 0.0
S543 S 0.66618 0.12487 0.24397 0.0
N544 N 0.71857 0.1721 0.2764 0.0
N545 N 0.6493 0.17827 0.22138 0.0
C546 C 0.68627 0.23785 0.24041 0.0
C547 C 0.72354 0.2345 0.2702 0.0
C548 C 0.44897 0.6526 0.61391 0.0
C549 C 0.48643 0.72167 0.62558 0.0
C550 C 0.42017 0.63677 0.57967 0.0
C551 C 0.42995 0.68996 0.55603 0.0
H552 H 0.44702 0.61139 0.63019 0.0
H553 H 0.39467 0.58332 0.57075 0.0
S554 S 0.52614 0.87952 0.5745 0.0
N555 N 0.53066 0.84297 0.6119 0.0
N556 N 0.4791 0.81454 0.54723 0.0
C557 C 0.46397 0.75903 0.56842 0.0
C558 C 0.49166 0.77458 0.60342 0.0
C559 C 0.69101 0.42331 0.93643 0.0
C560 C 0.75265 0.47392 0.9525 0.0
C561 C 0.69301 0.39438 0.90352 0.0
C562 C 0.75644 0.41846 0.88459 0.0
H563 H 0.64084 0.40781 0.94877 0.0
H564 H 0.64399 0.35649 0.89166 0.0
S565 S 0.93228 0.55242 0.91499 0.0
N566 N 0.87865 0.54613 0.94742 0.0
N567 N 0.8824 0.49496 0.88497 0.0
C568 C 0.81868 0.46707 0.90114 0.0
C569 C 0.81668 0.49477 0.93506 0.0
C570 C 0.50112 0.5669 0.0548 0.0
C571 C 0.44916 0.50817 0.0364 0.0
C572 C 0.57266 0.58817 0.05176 0.0
C573 C 0.59519 0.55204 0.02977 0.0
H574 H 0.48659 0.59599 0.07247 0.0
H575 H 0.60993 0.63081 0.06806 0.0
S576 S 0.48306 0.39978 0.97284 0.0
N577 N 0.42754 0.41749 0.99341 0.0
N578 N 0.56113 0.458 0.98726 0.0
C579 C 0.54445 0.49535 1.00999 0.0
C580 C 0.47183 0.47316 1.01344 0.0
C581 C 0.0659 0.53223 0.34722 0.0
C582 C 0.0647 0.58687 0.3658 0.0
C583 C 1.01365 0.46249 0.35208 0.0
C584 C 0.95788 0.44335 0.37632 0.0
H585 H 0.10862 0.54343 0.32902 0.0
H586 H 1.01701 0.42341 0.33634 0.0
S587 S 0.93328 0.56632 0.43378 0.0
N588 N 1.00452 0.61693 0.41041 0.0
N589 N 0.90681 0.48627 0.42021 0.0
C590 C 0.9562 0.49772 0.39522 0.0
C591 C 1.0093 0.56911 0.38985 0.0
C592 C 0.57042 0.06563 0.71707 0.0
C593 C 0.51145 0.06197 0.70031 0.0
C594 C 0.59171 0.01678 0.71098 0.0
C595 C 0.55288 0.95929 0.6891 0.0
H596 H 0.60039 0.106 0.73583 0.0
H597 H 0.63643 0.02191 0.72538 0.0
S598 S 0.39278 0.92157 0.63903 0.0
N599 N 0.41489 0.99497 0.66004 0.0
N600 N 0.45148 0.90004 0.65049 0.0
C601 C 0.493 0.9536 0.67236 0.0
C602 C 0.47272 1.00505 0.6777 0.0
C603 C 0.48153 0.53097 0.70804 0.0
C604 C 0.54849 0.58512 0.69707 0.0
C605 C 0.46118 0.46023 0.70438 0.0
C606 C 0.50678 0.44024 0.68952 0.0
H607 H 0.44436 0.5429 0.72039 0.0
H608 H 0.41087 0.42125 0.71486 0.0
S609 S 0.6846 0.55901 0.65323 0.0
N610 N 0.65798 0.61148 0.66865 0.0
N611 N 0.61967 0.47975 0.66095 0.0
C612 C 0.57237 0.49331 0.67693 0.0
C613 C 0.59328 0.56519 0.68096 0.0
C614 C 0.07386 0.54425 1.00228 0.0
C615 C 0.06119 0.47652 1.01001 0.0
C616 C 0.02157 0.56241 1.00577 0.0
C617 C 0.95377 0.51372 1.01705 0.0
H618 H 0.12579 0.58491 0.99479 0.0
H619 H 0.0353 0.61562 1.00079 0.0
S620 S 0.89131 0.32672 0.03678 0.0
N621 N 0.97468 0.35952 0.02671 0.0
N622 N 0.87566 0.39156 0.03281 0.0
C623 C 0.93939 0.44437 0.02271 0.0
C624 C 0.99302 0.42626 1.01917 0.0
C625 C 0.47597 0.02163 0.34462 0.0
C626 C 0.45748 0.95417 0.35563 0.0
C627 C 0.5466 0.07379 0.34041 0.0
C628 C 0.60259 0.06147 0.34716 0.0
H629 H 0.43578 0.03488 0.33984 0.0
H630 H 0.55727 0.12506 0.33262 0.0
S631 S 0.58434 0.8933 0.3744 0.0
N632 N 0.50341 0.87761 0.37103 0.0
N633 N 0.63408 0.97593 0.36402 0.0
C634 C 0.58511 0.99405 0.35695 0.0
C635 C 0.51339 0.94063 0.36105 0.0
C636 C 0.34542 0.26192 0.77708 0.0
C637 C 0.38076 0.22625 0.78651 0.0
C638 C 0.29926 0.26817 0.80127 0.0
C639 C 0.28828 0.24141 0.83648 0.0
H640 H 0.35391 0.28584 0.751 0.0
H641 H 0.27211 0.29462 0.79238 0.0
S642 S 0.36684 0.14257 0.87448 0.0
N643 N 0.39958 0.16228 0.83358 0.0
N644 N 0.31549 0.17633 0.87888 0.0
C645 C 0.32352 0.20612 0.84623 0.0
C646 C 0.36911 0.19828 0.82143 0.0
C647 C 1.01588 0.27228 0.13157 0.0
C648 C 0.03162 0.2574 0.16594 0.0
C649 C 0.06876 0.31714 0.10739 0.0
C650 C 0.14002 0.34774 0.11605 0.0
H651 H 0.96192 0.24947 0.12339 0.0
H652 H 0.05359 0.3289 0.08205 0.0
S653 S 0.20996 0.32242 0.20123 0.0
N654 N 0.12436 0.27537 0.20641 0.0
N655 N 0.2232 0.35815 0.16118 0.0
C656 C 0.15636 0.33224 0.15 0.0
C657 C 0.10258 0.28752 0.17477 0.0
C658 C 0.77079 0.0453 0.48717 0.0
C659 C 0.82136 0.07273 0.51449 0.0
C660 C 0.77222 0.08682 0.45803 0.0
C661 C 0.82416 0.15749 0.45513 0.0
H662 H 0.73024 0.99126 0.48814 0.0
H663 H 0.73148 0.06389 0.43813 0.0
S664 S 0.96725 0.25501 0.51953 0.0
N665 N 0.92435 0.17578 0.53634 0.0
N666 N 0.92606 0.25279 0.48247 0.0
C667 C 0.87438 0.18524 0.48229 0.0
C668 C 0.8734 0.14324 0.51157 0.0
C669 C 0.70833 0.85536 0.81953 0.0
C670 C 0.68866 0.81391 0.78846 0.0
C671 C 0.75251 0.85181 0.84548 0.0
C672 C 0.77773 0.80516 0.84218 0.0
H673 H 0.68871 0.89071 0.82403 0.0
H674 H 0.76653 0.88549 0.86857 0.0
S675 S 0.74212 0.68407 0.76658 0.0
N676 N 0.69825 0.72385 0.75649 0.0
N677 N 0.78111 0.71744 0.80499 0.0
C678 C 0.75912 0.76363 0.81126 0.0
C679 C 0.71455 0.76772 0.78458 0.0
C680 C 0.88899 0.71907 0.18002 0.0
C681 C 0.95998 0.73728 0.18064 0.0
C682 C 0.84425 0.68008 0.15191 0.0
C683 C 0.86812 0.65845 0.12225 0.0
H684 H 0.86746 0.73491 0.20175 0.0
H685 H 0.78993 0.6666 0.15346 0.0
S686 S 0.04943 0.69203 0.1101 0.0
N687 N 0.0521 0.73025 0.14848 0.0
N688 N 0.96819 0.65717 0.09575 0.0
C689 C 0.93909 0.67623 0.12229 0.0
C690 C 0.98478 0.71548 0.15133 0.0
C691 C 0.28041 0.97555 0.48379 0.0
C692 C 0.23633 0.95112 0.51424 0.0
C693 C 0.27329 0.9308 0.45485 0.0
C694 C 0.22191 0.85954 0.45523 0.0
H695 H 0.31996 0.02982 0.48209 0.0
H696 H 0.3091 0.95187 0.43241 0.0
S697 S 0.09297 0.76976 0.52817 0.0
N698 N 0.13901 0.85071 0.54219 0.0
N699 N 0.12631 0.76776 0.48888 0.0
C700 C 0.17778 0.83505 0.48547 0.0
C701 C 0.18468 0.88029 0.51454 0.0
loop_
_geom_bond_atom_site_label_1
_geom_bond_atom_site_label_2
_geom_bond_distance
_geom_bond_site_symmetry_2
_ccdc_geom_bond_type
Eu0 N31 2.657 . S
Eu0 N38 2.609 . S
Eu0 O44 2.558 . S
Eu0 O45 2.612 . S
Eu0 O47 2.339 . S
Eu0 O48 2.563 . S
Eu0 O49 2.419 . S
Eu0 O51 2.380 1_554 S
Eu0 O52 2.432 . S
Eu0 C64 2.848 . S
C1 C4 1.429 . S
C1 C5 1.411 1_455 S
C1 N8 1.377 1_554 S
C2 C4 1.420 . S
C2 C6 1.423 1_455 S
C2 C14 1.392 . S
C3 C5 1.420 . S
C3 C6 1.351 . S
C3 H26 0.931 . S
C4 C1 1.429 . S
C4 C2 1.420 . S
C4 N12 1.362 . S
C5 C1 1.411 1_655 S
C5 C3 1.420 . S
C5 C10 1.395 1_554 S
C6 C2 1.423 1_655 S
C6 C3 1.351 . S
C6 H18 0.930 . S
C7 C9 1.400 . S
C7 C10 1.386 . S
C7 H19 0.930 . S
N8 C1 1.377 1_556 S
N8 C9 1.321 1_455 S
N8 Eu11 2.609 . S
C9 C7 1.400 . S
C9 N8 1.321 1_655 S
C9 H16 0.930 1_655 S
C10 C5 1.395 1_556 S
C10 C7 1.386 . S
C10 H29 0.930 . S
Eu11 N8 2.609 . S
Eu11 N12 2.657 1_556 S
Eu11 O45 2.380 1_556 S
Eu11 O46 2.432 . S
Eu11 O50 2.558 . S
Eu11 O51 2.612 . S
Eu11 O53 2.339 1_556 S
Eu11 O54 2.563 . S
Eu11 O55 2.419 . S
Eu11 C75 2.848 . S
N12 C4 1.362 . S
N12 Eu11 2.657 1_554 S
N12 C13 1.334 . S
C13 N12 1.334 . S
C13 C15 1.413 . S
C13 H20 0.929 . S
C14 C2 1.392 . S
C14 C15 1.367 . S
C14 H22 0.930 . S
C15 C13 1.413 . S
C15 C14 1.367 . S
C15 H17 0.930 . S
H16 C9 0.930 1_455 S
H17 C15 0.930 . S
H18 C6 0.930 . S
H19 C7 0.930 . S
H20 C13 0.929 . S
H21 C35 0.930 . S
H22 C14 0.930 . S
H23 C41 0.930 . S
H24 C32 0.929 . S
H25 C39 0.930 . S
H26 C3 0.931 . S
H27 C33 0.930 . S
H28 C66 0.930 . S
H29 C10 0.930 . S
H30 C65 0.931 . S
N31 Eu0 2.657 . S
N31 C32 1.334 1_554 S
N31 C36 1.362 . S
C32 H24 0.929 . S
C32 N31 1.334 1_556 S
C32 C35 1.413 . S
C33 H27 0.930 . S
C33 C34 1.392 . S
C33 C35 1.367 . S
C34 C33 1.392 . S
C34 C36 1.420 1_556 S
C34 C66 1.423 . S
C35 H21 0.930 . S
C35 C32 1.413 . S
C35 C33 1.367 . S
C36 N31 1.362 . S
C36 C34 1.420 1_554 S
C36 C40 1.429 . S
H37 C42 0.930 . S
N38 Eu0 2.609 . S
N38 C40 1.377 . S
N38 C41 1.321 . S
C39 H25 0.930 . S
C39 C41 1.400 . S
C39 C42 1.386 . S
C40 C36 1.429 . S
C40 N38 1.377 . S
C40 C43 1.411 . S
C41 H23 0.930 . S
C41 N38 1.321 . S
C41 C39 1.400 . S
C42 H37 0.930 . S
C42 C39 1.386 . S
C42 C43 1.395 . S
C43 C40 1.411 . S
C43 C42 1.395 . S
C43 C65 1.420 . S
O44 Eu0 2.558 . S
O44 C64 1.257 . S
O45 Eu0 2.612 . S
O45 Eu11 2.380 1_554 S
O45 C56 1.276 . S
O46 Eu11 2.432 . S
O46 C63 1.264 1_556 S
O47 Eu0 2.339 . S
O47 C63 1.254 . S
O48 Eu0 2.563 . S
O48 C56 1.235 . S
O49 Eu0 2.419 . S
O49 C64 1.249 . S
O50 Eu11 2.558 . S
O50 C75 1.257 . S
O51 Eu0 2.380 1_556 S
O51 Eu11 2.612 . S
O51 C67 1.276 . S
O52 Eu0 2.432 . S
O52 C74 1.264 . S
O53 Eu11 2.339 1_554 S
O53 C74 1.254 . S
O54 Eu11 2.563 . S
O54 C67 1.235 . S
O55 Eu11 2.419 . S
O55 C75 1.249 . S
C56 O45 1.276 . S
C56 O48 1.235 . S
C57 C59 1.393 . S
C57 C61 1.395 . S
C57 C64 1.492 . S
C58 C59 1.392 . S
C58 C60 1.386 . S
C59 C57 1.393 . S
C59 C58 1.392 . S
C59 H76 0.930 . S
C60 C58 1.386 . S
C60 C62 1.395 . S
C60 H77 0.930 . S
C61 C57 1.395 . S
C61 C62 1.379 . S
C61 H78 0.930 . S
C62 C60 1.395 . S
C62 C61 1.379 . S
C62 H79 0.930 . S
C63 O46 1.264 1_554 S
C63 O47 1.254 . S
C64 Eu0 2.848 . S
C64 O44 1.257 . S
C64 O49 1.249 . S
C64 C57 1.492 . S
C65 H30 0.931 . S
C65 C43 1.420 . S
C65 C66 1.351 1_554 S
C66 H28 0.930 . S
C66 C34 1.423 . S
C66 C65 1.351 1_556 S
C67 O51 1.276 . S
C67 O54 1.235 . S
C68 C69 1.393 . S
C68 C72 1.395 . S
C68 C75 1.492 . S
C69 C68 1.393 . S
C69 C70 1.392 . S
C69 H80 0.930 . S
C70 C69 1.392 . S
C70 C71 1.386 . S
C71 C70 1.386 . S
C71 C73 1.395 . S
C71 H81 0.930 . S
C72 C68 1.395 . S
C72 C73 1.379 . S
C72 H82 0.930 . S
C73 C71 1.395 . S
C73 C72 1.379 . S
C73 H83 0.930 . S
C74 O52 1.264 . S
C74 O53 1.254 . S
C75 Eu11 2.848 . S
C75 O50 1.257 . S
C75 O55 1.249 . S
C75 C68 1.492 . S
H76 C59 0.930 . S
H77 C60 0.930 . S
H78 C61 0.930 . S
H79 C62 0.930 . S
H80 C69 0.930 . S
H81 C71 0.930 . S
H82 C72 0.930 . S
H83 C73 0.930 . S
Eu84 N115 2.657 . S
Eu84 N122 2.609 . S
Eu84 O128 2.558 . S
Eu84 O129 2.612 . S
Eu84 O131 2.339 . S
Eu84 O132 2.563 . S
Eu84 O133 2.419 . S
Eu84 O135 2.380 . S
Eu84 O136 2.432 . S
Eu84 C148 2.848 . S
C85 C88 1.429 . S
C85 C89 1.411 1_545 S
C85 N92 1.377 . S
C86 C88 1.420 . S
C86 C90 1.423 1_545 S
C86 C98 1.392 . S
C87 C89 1.420 . S
C87 C90 1.351 . S
C87 H110 0.931 . S
C88 C85 1.429 . S
C88 C86 1.420 . S
C88 N96 1.362 . S
C89 C85 1.411 1_565 S
C89 C87 1.420 . S
C89 C94 1.395 . S
C90 C86 1.423 1_565 S
C90 C87 1.351 . S
C90 H102 0.930 . S
C91 C93 1.400 . S
C91 C94 1.386 . S
C91 H103 0.930 . S
N92 C85 1.377 . S
N92 C93 1.321 1_545 S
N92 Eu95 2.609 . S
C93 C91 1.400 . S
C93 N92 1.321 1_565 S
C93 H100 0.930 1_565 S
C94 C89 1.395 . S
C94 C91 1.386 . S
C94 H113 0.930 . S
Eu95 N92 2.609 . S
Eu95 N96 2.657 . S
Eu95 O129 2.380 . S
Eu95 O130 2.432 . S
Eu95 O134 2.558 . S
Eu95 O135 2.612 . S
Eu95 O137 2.339 . S
Eu95 O138 2.563 . S
Eu95 O139 2.419 . S
Eu95 C159 2.848 . S
N96 C88 1.362 . S
N96 Eu95 2.657 . S
N96 C97 1.334 . S
C97 N96 1.334 . S
C97 C99 1.413 1_655 S
C97 H104 0.929 . S
C98 C86 1.392 . S
C98 C99 1.367 1_655 S
C98 H106 0.930 1_655 S
C99 C97 1.413 1_455 S
C99 C98 1.367 1_455 S
C99 H101 0.930 . S
H100 C93 0.930 1_545 S
H101 C99 0.930 . S
H102 C90 0.930 . S
H103 C91 0.930 . S
H104 C97 0.929 . S
H105 C119 0.930 . S
H106 C98 0.930 1_455 S
H107 C125 0.930 . S
H108 C116 0.929 . S
H109 C123 0.930 . S
H110 C87 0.931 . S
H111 C117 0.930 . S
H112 C150 0.930 . S
H113 C94 0.930 . S
H114 C149 0.931 . S
N115 Eu84 2.657 . S
N115 C116 1.334 . S
N115 C120 1.362 . S
C116 H108 0.929 . S
C116 N115 1.334 . S
C116 C119 1.413 . S
C117 H111 0.930 . S
C117 C118 1.392 . S
C117 C119 1.367 . S
C118 C117 1.392 . S
C118 C120 1.420 . S
C118 C150 1.423 . S
C119 H105 0.930 . S
C119 C116 1.413 . S
C119 C117 1.367 . S
C120 N115 1.362 . S
C120 C118 1.420 . S
C120 C124 1.429 . S
H121 C126 0.930 . S
N122 Eu84 2.609 . S
N122 C124 1.377 . S
N122 C125 1.321 . S
C123 H109 0.930 . S
C123 C125 1.400 . S
C123 C126 1.386 . S
C124 C120 1.429 . S
C124 N122 1.377 . S
C124 C127 1.411 . S
C125 H107 0.930 . S
C125 N122 1.321 . S
C125 C123 1.400 . S
C126 H121 0.930 . S
C126 C123 1.386 . S
C126 C127 1.395 . S
C127 C124 1.411 . S
C127 C126 1.395 . S
C127 C149 1.420 . S
O128 Eu84 2.558 . S
O128 C148 1.257 . S
O129 Eu84 2.612 . S
O129 Eu95 2.380 . S
O129 C140 1.276 . S
O130 Eu95 2.432 . S
O130 C147 1.264 . S
O131 Eu84 2.339 . S
O131 C147 1.254 . S
O132 Eu84 2.563 . S
O132 C140 1.235 . S
O133 Eu84 2.419 . S
O133 C148 1.249 . S
O134 Eu95 2.558 . S
O134 C159 1.257 . S
O135 Eu84 2.380 . S
O135 Eu95 2.612 . S
O135 C151 1.276 . S
O136 Eu84 2.432 . S
O136 C158 1.264 . S
O137 Eu95 2.339 . S
O137 C158 1.254 . S
O138 Eu95 2.563 . S
O138 C151 1.235 . S
O139 Eu95 2.419 . S
O139 C159 1.249 . S
C140 O129 1.276 . S
C140 O132 1.235 . S
C141 C143 1.393 . S
C141 C145 1.395 . S
C141 C148 1.492 . S
C142 C143 1.392 . S
C142 C144 1.386 . S
C143 C141 1.393 . S
C143 C142 1.392 . S
C143 H160 0.930 . S
C144 C142 1.386 . S
C144 C146 1.395 . S
C144 H161 0.930 . S
C145 C141 1.395 . S
C145 C146 1.379 . S
C145 H162 0.930 . S
C146 C144 1.395 . S
C146 C145 1.379 . S
C146 H163 0.930 . S
C147 O130 1.264 . S
C147 O131 1.254 . S
C148 Eu84 2.848 . S
C148 O128 1.257 . S
C148 O133 1.249 . S
C148 C141 1.492 . S
C149 H114 0.931 . S
C149 C127 1.420 . S
C149 C150 1.351 . S
C150 H112 0.930 . S
C150 C118 1.423 . S
C150 C149 1.351 . S
C151 O135 1.276 . S
C151 O138 1.235 . S
C152 C153 1.393 . S
C152 C156 1.395 . S
C152 C159 1.492 . S
C153 C152 1.393 . S
C153 C154 1.392 1_655 S
C153 H164 0.930 1_655 S
C154 C153 1.392 1_455 S
C154 C155 1.386 . S
C155 C154 1.386 . S
C155 C157 1.395 1_455 S
C155 H165 0.930 . S
C156 C152 1.395 . S
C156 C157 1.379 . S
C156 H166 0.930 . S
C157 C155 1.395 1_655 S
C157 C156 1.379 . S
C157 H167 0.930 . S
C158 O136 1.264 . S
C158 O137 1.254 . S
C159 Eu95 2.848 . S
C159 O134 1.257 . S
C159 O139 1.249 . S
C159 C152 1.492 . S
H160 C143 0.930 . S
H161 C144 0.930 . S
H162 C145 0.930 . S
H163 C146 0.930 . S
H164 C153 0.930 1_455 S
H165 C155 0.930 . S
H166 C156 0.930 . S
H167 C157 0.930 . S
Eu168 N199 2.657 . S
Eu168 N206 2.609 . S
Eu168 O212 2.558 . S
Eu168 O213 2.612 . S
Eu168 O215 2.339 . S
Eu168 O216 2.563 . S
Eu168 O217 2.419 . S
Eu168 O219 2.380 . S
Eu168 O220 2.432 . S
Eu168 C232 2.848 . S
C169 C172 1.429 . S
C169 C173 1.411 . S
C169 N176 1.377 . S
C170 C172 1.420 . S
C170 C174 1.423 . S
C170 C182 1.392 . S
C171 C173 1.420 . S
C171 C174 1.351 . S
C171 H194 0.931 . S
C172 C169 1.429 . S
C172 C170 1.420 . S
C172 N180 1.362 . S
C173 C169 1.411 . S
C173 C171 1.420 . S
C173 C178 1.395 . S
C174 C170 1.423 . S
C174 C171 1.351 . S
C174 H186 0.930 . S
C175 C177 1.400 . S
C175 C178 1.386 . S
C175 H187 0.930 . S
N176 C169 1.377 . S
N176 C177 1.321 . S
N176 Eu179 2.609 . S
C177 C175 1.400 . S
C177 N176 1.321 . S
C177 H184 0.930 . S
C178 C173 1.395 . S
C178 C175 1.386 . S
C178 H197 0.930 . S
Eu179 N176 2.609 . S
Eu179 N180 2.657 . S
Eu179 O213 2.380 . S
Eu179 O214 2.432 . S
Eu179 O218 2.558 . S
Eu179 O219 2.612 . S
Eu179 O221 2.339 . S
Eu179 O222 2.563 . S
Eu179 O223 2.419 . S
Eu179 C243 2.848 . S
N180 C172 1.362 . S
N180 Eu179 2.657 . S
N180 C181 1.334 . S
C181 N180 1.334 . S
C181 C183 1.413 1_565 S
C181 H188 0.929 . S
C182 C170 1.392 . S
C182 C183 1.367 1_565 S
C182 H190 0.930 1_565 S
C183 C181 1.413 1_545 S
C183 C182 1.367 1_545 S
C183 H185 0.930 . S
H184 C177 0.930 . S
H185 C183 0.930 . S
H186 C174 0.930 . S
H187 C175 0.930 . S
H188 C181 0.929 . S
H189 C203 0.930 . S
H190 C182 0.930 1_545 S
H191 C209 0.930 . S
H192 C200 0.929 . S
H193 C207 0.930 . S
H194 C171 0.931 . S
H195 C201 0.930 . S
H196 C234 0.930 . S
H197 C178 0.930 . S
H198 C233 0.931 . S
N199 Eu168 2.657 . S
N199 C200 1.334 . S
N199 C204 1.362 . S
C200 H192 0.929 . S
C200 N199 1.334 . S
C200 C203 1.413 . S
C201 H195 0.930 . S
C201 C202 1.392 . S
C201 C203 1.367 . S
C202 C201 1.392 . S
C202 C204 1.420 . S
C202 C234 1.423 . S
C203 H189 0.930 . S
C203 C200 1.413 . S
C203 C201 1.367 . S
C204 N199 1.362 . S
C204 C202 1.420 . S
C204 C208 1.429 . S
H205 C210 0.930 . S
N206 Eu168 2.609 . S
N206 C208 1.377 . S
N206 C209 1.321 . S
C207 H193 0.930 . S
C207 C209 1.400 . S
C207 C210 1.386 . S
C208 C204 1.429 . S
C208 N206 1.377 . S
C208 C211 1.411 . S
C209 H191 0.930 . S
C209 N206 1.321 . S
C209 C207 1.400 . S
C210 H205 0.930 . S
C210 C207 1.386 . S
C210 C211 1.395 . S
C211 C208 1.411 . S
C211 C210 1.395 . S
C211 C233 1.420 . S
O212 Eu168 2.558 . S
O212 C232 1.257 . S
O213 Eu168 2.612 . S
O213 Eu179 2.380 . S
O213 C224 1.276 . S
O214 Eu179 2.432 . S
O214 C231 1.264 . S
O215 Eu168 2.339 . S
O215 C231 1.254 . S
O216 Eu168 2.563 . S
O216 C224 1.235 . S
O217 Eu168 2.419 . S
O217 C232 1.249 . S
O218 Eu179 2.558 . S
O218 C243 1.257 . S
O219 Eu168 2.380 . S
O219 Eu179 2.612 . S
O219 C235 1.276 . S
O220 Eu168 2.432 . S
O220 C242 1.264 . S
O221 Eu179 2.339 . S
O221 C242 1.254 . S
O222 Eu179 2.563 . S
O222 C235 1.235 . S
O223 Eu179 2.419 . S
O223 C243 1.249 . S
C224 O213 1.276 . S
C224 O216 1.235 . S
C225 C227 1.393 . S
C225 C229 1.395 . S
C225 C232 1.492 . S
C226 C227 1.392 . S
C226 C228 1.386 . S
C227 C225 1.393 . S
C227 C226 1.392 . S
C227 H244 0.930 . S
C228 C226 1.386 . S
C228 C230 1.395 . S
C228 H245 0.930 . S
C229 C225 1.395 . S
C229 C230 1.379 . S
C229 H246 0.930 . S
C230 C228 1.395 . S
C230 C229 1.379 . S
C230 H247 0.930 . S
C231 O214 1.264 . S
C231 O215 1.254 . S
C232 Eu168 2.848 . S
C232 O212 1.257 . S
C232 O217 1.249 . S
C232 C225 1.492 . S
C233 H198 0.931 . S
C233 C211 1.420 . S
C233 C234 1.351 . S
C234 H196 0.930 . S
C234 C202 1.423 . S
C234 C233 1.351 . S
C235 O219 1.276 . S
C235 O222 1.235 . S
C236 C237 1.393 . S
C236 C240 1.395 . S
C236 C243 1.492 . S
C237 C236 1.393 . S
C237 C238 1.392 1_565 S
C237 H248 0.930 1_565 S
C238 C237 1.392 1_545 S
C238 C239 1.386 . S
C239 C238 1.386 . S
C239 C241 1.395 1_545 S
C239 H249 0.930 . S
C240 C236 1.395 . S
C240 C241 1.379 . S
C240 H250 0.930 . S
C241 C239 1.395 1_565 S
C241 C240 1.379 . S
C241 H251 0.930 . S
C242 O220 1.264 . S
C242 O221 1.254 . S
C243 Eu179 2.848 . S
C243 O218 1.257 . S
C243 O223 1.249 . S
C243 C236 1.492 . S
H244 C227 0.930 . S
H245 C228 0.930 . S
H246 C229 0.930 . S
H247 C230 0.930 . S
H248 C237 0.930 1_545 S
H249 C239 0.930 . S
H250 C240 0.930 . S
H251 C241 0.930 . S
Eu252 N283 2.657 . S
Eu252 N290 2.609 . S
Eu252 O296 2.558 . S
Eu252 O297 2.612 . S
Eu252 O299 2.339 . S
Eu252 O300 2.563 . S
Eu252 O301 2.419 . S
Eu252 O303 2.380 1_554 S
Eu252 O304 2.432 . S
Eu252 C316 2.848 . S
C253 C256 1.429 . S
C253 C257 1.411 1_655 S
C253 N260 1.377 1_554 S
C254 C256 1.420 . S
C254 C258 1.423 1_655 S
C254 C266 1.392 . S
C255 C257 1.420 . S
C255 C258 1.351 . S
C255 H278 0.931 . S
C256 C253 1.429 . S
C256 C254 1.420 . S
C256 N264 1.362 . S
C257 C253 1.411 1_455 S
C257 C255 1.420 . S
C257 C262 1.395 1_554 S
C258 C254 1.423 1_455 S
C258 C255 1.351 . S
C258 H270 0.930 . S
C259 C261 1.400 . S
C259 C262 1.386 . S
C259 H271 0.930 . S
N260 C253 1.377 1_556 S
N260 C261 1.321 1_655 S
N260 Eu263 2.609 . S
C261 C259 1.400 . S
C261 N260 1.321 1_455 S
C261 H268 0.930 1_455 S
C262 C257 1.395 1_556 S
C262 C259 1.386 . S
C262 H281 0.930 . S
Eu263 N260 2.609 . S
Eu263 N264 2.657 1_556 S
Eu263 O297 2.380 1_556 S
Eu263 O298 2.432 . S
Eu263 O302 2.558 . S
Eu263 O303 2.612 . S
Eu263 O305 2.339 1_556 S
Eu263 O306 2.563 . S
Eu263 O307 2.419 . S
Eu263 C327 2.848 . S
N264 C256 1.362 . S
N264 Eu263 2.657 1_554 S
N264 C265 1.334 . S
C265 N264 1.334 . S
C265 C267 1.413 . S
C265 H272 0.929 . S
C266 C254 1.392 . S
C266 C267 1.367 . S
C266 H274 0.930 . S
C267 C265 1.413 . S
C267 C266 1.367 . S
C267 H269 0.930 . S
H268 C261 0.930 1_655 S
H269 C267 0.930 . S
H270 C258 0.930 . S
H271 C259 0.930 . S
H272 C265 0.929 . S
H273 C287 0.930 . S
H274 C266 0.930 . S
H275 C293 0.930 . S
H276 C284 0.929 . S
H277 C291 0.930 . S
H278 C255 0.931 . S
H279 C285 0.930 . S
H280 C318 0.930 . S
H281 C262 0.930 . S
H282 C317 0.931 . S
N283 Eu252 2.657 . S
N283 C284 1.334 1_554 S
N283 C288 1.362 . S
C284 H276 0.929 . S
C284 N283 1.334 1_556 S
C284 C287 1.413 . S
C285 H279 0.930 . S
C285 C286 1.392 . S
C285 C287 1.367 . S
C286 C285 1.392 . S
C286 C288 1.420 1_556 S
C286 C318 1.423 . S
C287 H273 0.930 . S
C287 C284 1.413 . S
C287 C285 1.367 . S
C288 N283 1.362 . S
C288 C286 1.420 1_554 S
C288 C292 1.429 . S
H289 C294 0.930 . S
N290 Eu252 2.609 . S
N290 C292 1.377 . S
N290 C293 1.321 . S
C291 H277 0.930 . S
C291 C293 1.400 . S
C291 C294 1.386 . S
C292 C288 1.429 . S
C292 N290 1.377 . S
C292 C295 1.411 . S
C293 H275 0.930 . S
C293 N290 1.321 . S
C293 C291 1.400 . S
C294 H289 0.930 . S
C294 C291 1.386 . S
C294 C295 1.395 . S
C295 C292 1.411 . S
C295 C294 1.395 . S
C295 C317 1.420 . S
O296 Eu252 2.558 . S
O296 C316 1.257 . S
O297 Eu252 2.612 . S
O297 Eu263 2.380 1_554 S
O297 C308 1.276 . S
O298 Eu263 2.432 . S
O298 C315 1.264 1_556 S
O299 Eu252 2.339 . S
O299 C315 1.254 . S
O300 Eu252 2.563 . S
O300 C308 1.235 . S
O301 Eu252 2.419 . S
O301 C316 1.249 . S
O302 Eu263 2.558 . S
O302 C327 1.257 . S
O303 Eu252 2.380 1_556 S
O303 Eu263 2.612 . S
O303 C319 1.276 . S
O304 Eu252 2.432 . S
O304 C326 1.264 . S
O305 Eu263 2.339 1_554 S
O305 C326 1.254 . S
O306 Eu263 2.563 . S
O306 C319 1.235 . S
O307 Eu263 2.419 . S
O307 C327 1.249 . S
C308 O297 1.276 . S
C308 O300 1.235 . S
C309 C311 1.393 . S
C309 C313 1.395 . S
C309 C316 1.492 . S
C310 C311 1.392 . S
C310 C312 1.386 . S
C311 C309 1.393 . S
C311 C310 1.392 . S
C311 H328 0.930 . S
C312 C310 1.386 . S
C312 C314 1.395 . S
C312 H329 0.930 . S
C313 C309 1.395 . S
C313 C314 1.379 . S
C313 H330 0.930 . S
C314 C312 1.395 . S
C314 C313 1.379 . S
C314 H331 0.930 . S
C315 O298 1.264 1_554 S
C315 O299 1.254 . S
C316 Eu252 2.848 . S
C316 O296 1.257 . S
C316 O301 1.249 . S
C316 C309 1.492 . S
C317 H282 0.931 . S
C317 C295 1.420 . S
C317 C318 1.351 1_554 S
C318 H280 0.930 . S
C318 C286 1.423 . S
C318 C317 1.351 1_556 S
C319 O303 1.276 . S
C319 O306 1.235 . S
C320 C321 1.393 . S
C320 C324 1.395 . S
C320 C327 1.492 . S
C321 C320 1.393 . S
C321 C322 1.392 . S
C321 H332 0.930 . S
C322 C321 1.392 . S
C322 C323 1.386 . S
C323 C322 1.386 . S
C323 C325 1.395 . S
C323 H333 0.930 . S
C324 C320 1.395 . S
C324 C325 1.379 . S
C324 H334 0.930 . S
C325 C323 1.395 . S
C325 C324 1.379 . S
C325 H335 0.930 . S
C326 O304 1.264 . S
C326 O305 1.254 . S
C327 Eu263 2.848 . S
C327 O302 1.257 . S
C327 O307 1.249 . S
C327 C320 1.492 . S
H328 C311 0.930 . S
H329 C312 0.930 . S
H330 C313 0.930 . S
H331 C314 0.930 . S
H332 C321 0.930 . S
H333 C323 0.930 . S
H334 C324 0.930 . S
H335 C325 0.930 . S
Eu336 N367 2.657 . S
Eu336 N374 2.609 . S
Eu336 O380 2.558 . S
Eu336 O381 2.612 . S
Eu336 O383 2.339 . S
Eu336 O384 2.563 . S
Eu336 O385 2.419 . S
Eu336 O387 2.380 . S
Eu336 O388 2.432 . S
Eu336 C400 2.848 . S
C337 C340 1.429 . S
C337 C341 1.411 1_565 S
C337 N344 1.377 . S
C338 C340 1.420 . S
C338 C342 1.423 1_565 S
C338 C350 1.392 . S
C339 C341 1.420 . S
C339 C342 1.351 . S
C339 H362 0.931 . S
C340 C337 1.429 . S
C340 C338 1.420 . S
C340 N348 1.362 . S
C341 C337 1.411 1_545 S
C341 C339 1.420 . S
C341 C346 1.395 . S
C342 C338 1.423 1_545 S
C342 C339 1.351 . S
C342 H354 0.930 . S
C343 C345 1.400 . S
C343 C346 1.386 . S
C343 H355 0.930 . S
N344 C337 1.377 . S
N344 C345 1.321 1_565 S
N344 Eu347 2.609 . S
C345 C343 1.400 . S
C345 N344 1.321 1_545 S
C345 H352 0.930 1_545 S
C346 C341 1.395 . S
C346 C343 1.386 . S
C346 H365 0.930 . S
Eu347 N344 2.609 . S
Eu347 N348 2.657 . S
Eu347 O381 2.380 . S
Eu347 O382 2.432 . S
Eu347 O386 2.558 . S
Eu347 O387 2.612 . S
Eu347 O389 2.339 . S
Eu347 O390 2.563 . S
Eu347 O391 2.419 . S
Eu347 C411 2.848 . S
N348 C340 1.362 . S
N348 Eu347 2.657 . S
N348 C349 1.334 . S
C349 N348 1.334 . S
C349 C351 1.413 1_455 S
C349 H356 0.929 . S
C350 C338 1.392 . S
C350 C351 1.367 1_455 S
C350 H358 0.930 1_455 S
C351 C349 1.413 1_655 S
C351 C350 1.367 1_655 S
C351 H353 0.930 . S
H352 C345 0.930 1_565 S
H353 C351 0.930 . S
H354 C342 0.930 . S
H355 C343 0.930 . S
H356 C349 0.929 . S
H357 C371 0.930 . S
H358 C350 0.930 1_655 S
H359 C377 0.930 . S
H360 C368 0.929 . S
H361 C375 0.930 . S
H362 C339 0.931 . S
H363 C369 0.930 . S
H364 C402 0.930 . S
H365 C346 0.930 . S
H366 C401 0.931 . S
N367 Eu336 2.657 . S
N367 C368 1.334 . S
N367 C372 1.362 . S
C368 H360 0.929 . S
C368 N367 1.334 . S
C368 C371 1.413 . S
C369 H363 0.930 . S
C369 C370 1.392 . S
C369 C371 1.367 . S
C370 C369 1.392 . S
C370 C372 1.420 . S
C370 C402 1.423 . S
C371 H357 0.930 . S
C371 C368 1.413 . S
C371 C369 1.367 . S
C372 N367 1.362 . S
C372 C370 1.420 . S
C372 C376 1.429 . S
H373 C378 0.930 . S
N374 Eu336 2.609 . S
N374 C376 1.377 . S
N374 C377 1.321 . S
C375 H361 0.930 . S
C375 C377 1.400 . S
C375 C378 1.386 . S
C376 C372 1.429 . S
C376 N374 1.377 . S
C376 C379 1.411 . S
C377 H359 0.930 . S
C377 N374 1.321 . S
C377 C375 1.400 . S
C378 H373 0.930 . S
C378 C375 1.386 . S
C378 C379 1.395 . S
C379 C376 1.411 . S
C379 C378 1.395 . S
C379 C401 1.420 . S
O380 Eu336 2.558 . S
O380 C400 1.257 . S
O381 Eu336 2.612 . S
O381 Eu347 2.380 . S
O381 C392 1.276 . S
O382 Eu347 2.432 . S
O382 C399 1.264 . S
O383 Eu336 2.339 . S
O383 C399 1.254 . S
O384 Eu336 2.563 . S
O384 C392 1.235 . S
O385 Eu336 2.419 . S
O385 C400 1.249 . S
O386 Eu347 2.558 . S
O386 C411 1.257 . S
O387 Eu336 2.380 . S
O387 Eu347 2.612 . S
O387 C403 1.276 . S
O388 Eu336 2.432 . S
O388 C410 1.264 . S
O389 Eu347 2.339 . S
O389 C410 1.254 . S
O390 Eu347 2.563 . S
O390 C403 1.235 . S
O391 Eu347 2.419 . S
O391 C411 1.249 . S
C392 O381 1.276 . S
C392 O384 1.235 . S
C393 C395 1.393 . S
C393 C397 1.395 . S
C393 C400 1.492 . S
C394 C395 1.392 . S
C394 C396 1.386 . S
C395 C393 1.393 . S
C395 C394 1.392 . S
C395 H412 0.930 . S
C396 C394 1.386 . S
C396 C398 1.395 . S
C396 H413 0.930 . S
C397 C393 1.395 . S
C397 C398 1.379 . S
C397 H414 0.930 . S
C398 C396 1.395 . S
C398 C397 1.379 . S
C398 H415 0.930 . S
C399 O382 1.264 . S
C399 O383 1.254 . S
C400 Eu336 2.848 . S
C400 O380 1.257 . S
C400 O385 1.249 . S
C400 C393 1.492 . S
C401 H366 0.931 . S
C401 C379 1.420 . S
C401 C402 1.351 . S
C402 H364 0.930 . S
C402 C370 1.423 . S
C402 C401 1.351 . S
C403 O387 1.276 . S
C403 O390 1.235 . S
C404 C405 1.393 . S
C404 C408 1.395 . S
C404 C411 1.492 . S
C405 C404 1.393 . S
C405 C406 1.392 1_455 S
C405 H416 0.930 1_455 S
C406 C405 1.392 1_655 S
C406 C407 1.386 . S
C407 C406 1.386 . S
C407 C409 1.395 1_655 S
C407 H417 0.930 . S
C408 C404 1.395 . S
C408 C409 1.379 . S
C408 H418 0.930 . S
C409 C407 1.395 1_455 S
C409 C408 1.379 . S
C409 H419 0.930 . S
C410 O388 1.264 . S
C410 O389 1.254 . S
C411 Eu347 2.848 . S
C411 O386 1.257 . S
C411 O391 1.249 . S
C411 C404 1.492 . S
H412 C395 0.930 . S
H413 C396 0.930 . S
H414 C397 0.930 . S
H415 C398 0.930 . S
H416 C405 0.930 1_655 S
H417 C407 0.930 . S
H418 C408 0.930 . S
H419 C409 0.930 . S
Eu420 N451 2.657 . S
Eu420 N458 2.609 . S
Eu420 O464 2.558 . S
Eu420 O465 2.612 . S
Eu420 O467 2.339 . S
Eu420 O468 2.563 . S
Eu420 O469 2.419 . S
Eu420 O471 2.380 . S
Eu420 O472 2.432 . S
Eu420 C484 2.848 . S
C421 C424 1.429 . S
C421 C425 1.411 . S
C421 N428 1.377 . S
C422 C424 1.420 . S
C422 C426 1.423 . S
C422 C434 1.392 . S
C423 C425 1.420 . S
C423 C426 1.351 . S
C423 H446 0.931 . S
C424 C421 1.429 . S
C424 C422 1.420 . S
C424 N432 1.362 . S
C425 C421 1.411 . S
C425 C423 1.420 . S
C425 C430 1.395 . S
C426 C422 1.423 . S
C426 C423 1.351 . S
C426 H438 0.930 . S
C427 C429 1.400 . S
C427 C430 1.386 . S
C427 H439 0.930 . S
N428 C421 1.377 . S
N428 C429 1.321 . S
N428 Eu431 2.609 . S
C429 C427 1.400 . S
C429 N428 1.321 . S
C429 H436 0.930 . S
C430 C425 1.395 . S
C430 C427 1.386 . S
C430 H449 0.930 . S
Eu431 N428 2.609 . S
Eu431 N432 2.657 . S
Eu431 O465 2.380 . S
Eu431 O466 2.432 . S
Eu431 O470 2.558 . S
Eu431 O471 2.612 . S
Eu431 O473 2.339 . S
Eu431 O474 2.563 . S
Eu431 O475 2.419 . S
Eu431 C495 2.848 . S
N432 C424 1.362 . S
N432 Eu431 2.657 . S
N432 C433 1.334 . S
C433 N432 1.334 . S
C433 C435 1.413 1_545 S
C433 H440 0.929 . S
C434 C422 1.392 . S
C434 C435 1.367 1_545 S
C434 H442 0.930 1_545 S
C435 C433 1.413 1_565 S
C435 C434 1.367 1_565 S
C435 H437 0.930 . S
H436 C429 0.930 . S
H437 C435 0.930 . S
H438 C426 0.930 . S
H439 C427 0.930 . S
H440 C433 0.929 . S
H441 C455 0.930 . S
H442 C434 0.930 1_565 S
H443 C461 0.930 . S
H444 C452 0.929 . S
H445 C459 0.930 . S
H446 C423 0.931 . S
H447 C453 0.930 . S
H448 C486 0.930 . S
H449 C430 0.930 . S
H450 C485 0.931 . S
N451 Eu420 2.657 . S
N451 C452 1.334 . S
N451 C456 1.362 . S
C452 H444 0.929 . S
C452 N451 1.334 . S
C452 C455 1.413 . S
C453 H447 0.930 . S
C453 C454 1.392 . S
C453 C455 1.367 . S
C454 C453 1.392 . S
C454 C456 1.420 . S
C454 C486 1.423 . S
C455 H441 0.930 . S
C455 C452 1.413 . S
C455 C453 1.367 . S
C456 N451 1.362 . S
C456 C454 1.420 . S
C456 C460 1.429 . S
H457 C462 0.930 . S
N458 Eu420 2.609 . S
N458 C460 1.377 . S
N458 C461 1.321 . S
C459 H445 0.930 . S
C459 C461 1.400 . S
C459 C462 1.386 . S
C460 C456 1.429 . S
C460 N458 1.377 . S
C460 C463 1.411 . S
C461 H443 0.930 . S
C461 N458 1.321 . S
C461 C459 1.400 . S
C462 H457 0.930 . S
C462 C459 1.386 . S
C462 C463 1.395 . S
C463 C460 1.411 . S
C463 C462 1.395 . S
C463 C485 1.420 . S
O464 Eu420 2.558 . S
O464 C484 1.257 . S
O465 Eu420 2.612 . S
O465 Eu431 2.380 . S
O465 C476 1.276 . S
O466 Eu431 2.432 . S
O466 C483 1.264 . S
O467 Eu420 2.339 . S
O467 C483 1.254 . S
O468 Eu420 2.563 . S
O468 C476 1.235 . S
O469 Eu420 2.419 . S
O469 C484 1.249 . S
O470 Eu431 2.558 . S
O470 C495 1.257 . S
O471 Eu420 2.380 . S
O471 Eu431 2.612 . S
O471 C487 1.276 . S
O472 Eu420 2.432 . S
O472 C494 1.264 . S
O473 Eu431 2.339 . S
O473 C494 1.254 . S
O474 Eu431 2.563 . S
O474 C487 1.235 . S
O475 Eu431 2.419 . S
O475 C495 1.249 . S
C476 O465 1.276 . S
C476 O468 1.235 . S
C477 C479 1.393 . S
C477 C481 1.395 . S
C477 C484 1.492 . S
C478 C479 1.392 . S
C478 C480 1.386 . S
C479 C477 1.393 . S
C479 C478 1.392 . S
C479 H496 0.930 . S
C480 C478 1.386 . S
C480 C482 1.395 . S
C480 H497 0.930 . S
C481 C477 1.395 . S
C481 C482 1.379 . S
C481 H498 0.930 . S
C482 C480 1.395 . S
C482 C481 1.379 . S
C482 H499 0.930 . S
C483 O466 1.264 . S
C483 O467 1.254 . S
C484 Eu420 2.848 . S
C484 O464 1.257 . S
C484 O469 1.249 . S
C484 C477 1.492 . S
C485 H450 0.931 . S
C485 C463 1.420 . S
C485 C486 1.351 . S
C486 H448 0.930 . S
C486 C454 1.423 . S
C486 C485 1.351 . S
C487 O471 1.276 . S
C487 O474 1.235 . S
C488 C489 1.393 . S
C488 C492 1.395 . S
C488 C495 1.492 . S
C489 C488 1.393 . S
C489 C490 1.392 1_545 S
C489 H500 0.930 1_545 S
C490 C489 1.392 1_565 S
C490 C491 1.386 . S
C491 C490 1.386 . S
C491 C493 1.395 1_565 S
C491 H501 0.930 . S
C492 C488 1.395 . S
C492 C493 1.379 . S
C492 H502 0.930 . S
C493 C491 1.395 1_545 S
C493 C492 1.379 . S
C493 H503 0.930 . S
C494 O472 1.264 . S
C494 O473 1.254 . S
C495 Eu431 2.848 . S
C495 O470 1.257 . S
C495 O475 1.249 . S
C495 C488 1.492 . S
H496 C479 0.930 . S
H497 C480 0.930 . S
H498 C481 0.930 . S
H499 C482 0.930 . S
H500 C489 0.930 1_565 S
H501 C491 0.930 . S
H502 C492 0.930 . S
H503 C493 0.930 . S
C504 C505 1.369 . S
C504 C506 1.419 . S
C504 H508 0.930 . S
C505 C504 1.369 . S
C505 C514 1.429 . S
C506 C504 1.419 . S
C506 C507 1.363 . S
C506 H509 0.929 . S
C507 C506 1.363 . S
C507 C513 1.428 . S
H508 C504 0.930 . S
H509 C506 0.929 . S
S510 N511 1.613 . S
S510 N512 1.610 . S
N511 S510 1.613 . S
N511 C514 1.350 . S
N512 S510 1.610 . S
N512 C513 1.351 . S
C513 C507 1.428 . S
C513 N512 1.351 . S
C513 C514 1.434 . S
C514 C505 1.429 . S
C514 N511 1.350 . S
C514 C513 1.434 . S
C515 C516 1.369 . S
C515 C517 1.419 . S
C515 H519 0.930 . S
C516 C515 1.369 . S
C516 C525 1.429 . S
C517 C515 1.419 . S
C517 C518 1.363 . S
C517 H520 0.929 . S
C518 C517 1.363 . S
C518 C524 1.428 . S
H519 C515 0.930 . S
H520 C517 0.929 . S
S521 N522 1.613 . S
S521 N523 1.610 . S
N522 S521 1.613 . S
N522 C525 1.350 . S
N523 S521 1.610 . S
N523 C524 1.351 . S
C524 C518 1.428 . S
C524 N523 1.351 . S
C524 C525 1.434 . S
C525 C516 1.429 . S
C525 N522 1.350 . S
C525 C524 1.434 . S
C526 C527 1.369 . S
C526 C528 1.419 . S
C526 H530 0.930 . S
C527 C526 1.369 . S
C527 C536 1.429 . S
C528 C526 1.419 . S
C528 C529 1.363 . S
C528 H531 0.929 . S
C529 C528 1.363 . S
C529 C535 1.428 . S
H530 C526 0.930 . S
H531 C528 0.929 . S
S532 N533 1.613 . S
S532 N534 1.610 . S
N533 S532 1.613 . S
N533 C536 1.350 . S
N534 S532 1.610 . S
N534 C535 1.351 . S
C535 C529 1.428 . S
C535 N534 1.351 . S
C535 C536 1.434 . S
C536 C527 1.429 . S
C536 N533 1.350 . S
C536 C535 1.434 . S
C537 C538 1.369 . S
C537 C539 1.419 . S
C537 H541 0.930 . S
C538 C537 1.369 . S
C538 C547 1.429 . S
C539 C537 1.419 . S
C539 C540 1.363 . S
C539 H542 0.929 . S
C540 C539 1.363 . S
C540 C546 1.428 . S
H541 C537 0.930 . S
H542 C539 0.929 . S
S543 N544 1.613 . S
S543 N545 1.610 . S
N544 S543 1.613 . S
N544 C547 1.350 . S
N545 S543 1.610 . S
N545 C546 1.351 . S
C546 C540 1.428 . S
C546 N545 1.351 . S
C546 C547 1.434 . S
C547 C538 1.429 . S
C547 N544 1.350 . S
C547 C546 1.434 . S
C548 C549 1.369 . S
C548 C550 1.419 . S
C548 H552 0.930 . S
C549 C548 1.369 . S
C549 C558 1.429 . S
C550 C548 1.419 . S
C550 C551 1.363 . S
C550 H553 0.929 . S
C551 C550 1.363 . S
C551 C557 1.428 . S
H552 C548 0.930 . S
H553 C550 0.929 . S
S554 N555 1.613 . S
S554 N556 1.610 . S
N555 S554 1.613 . S
N555 C558 1.350 . S
N556 S554 1.610 . S
N556 C557 1.351 . S
C557 C551 1.428 . S
C557 N556 1.351 . S
C557 C558 1.434 . S
C558 C549 1.429 . S
C558 N555 1.350 . S
C558 C557 1.434 . S
C559 C560 1.369 . S
C559 C561 1.419 . S
C559 H563 0.930 . S
C560 C559 1.369 . S
C560 C569 1.429 . S
C561 C559 1.419 . S
C561 C562 1.363 . S
C561 H564 0.929 . S
C562 C561 1.363 . S
C562 C568 1.428 . S
H563 C559 0.930 . S
H564 C561 0.929 . S
S565 N566 1.613 . S
S565 N567 1.610 . S
N566 S565 1.613 . S
N566 C569 1.350 . S
N567 S565 1.610 . S
N567 C568 1.351 . S
C568 C562 1.428 . S
C568 N567 1.351 . S
C568 C569 1.434 . S
C569 C560 1.429 . S
C569 N566 1.350 . S
C569 C568 1.434 . S
C570 C571 1.369 . S
C570 C572 1.419 . S
C570 H574 0.930 . S
C571 C570 1.369 . S
C571 C580 1.429 1_554 S
C572 C570 1.419 . S
C572 C573 1.363 . S
C572 H575 0.929 . S
C573 C572 1.363 . S
C573 C579 1.428 1_554 S
H574 C570 0.930 . S
H575 C572 0.929 . S
S576 N577 1.613 . S
S576 N578 1.610 . S
N577 S576 1.613 . S
N577 C580 1.350 . S
N578 S576 1.610 . S
N578 C579 1.351 . S
C579 C573 1.428 1_556 S
C579 N578 1.351 . S
C579 C580 1.434 . S
C580 C571 1.429 1_556 S
C580 N577 1.350 . S
C580 C579 1.434 . S
C581 C582 1.369 . S
C581 C583 1.419 . S
C581 H585 0.930 . S
C582 C581 1.369 . S
C582 C591 1.429 1_455 S
C583 C581 1.419 . S
C583 C584 1.363 1_455 S
C583 H586 0.929 . S
C584 C583 1.363 1_655 S
C584 C590 1.428 . S
H585 C581 0.930 . S
H586 C583 0.929 . S
S587 N588 1.613 . S
S587 N589 1.610 . S
N588 S587 1.613 . S
N588 C591 1.350 . S
N589 S587 1.610 . S
N589 C590 1.351 . S
C590 C584 1.428 . S
C590 N589 1.351 . S
C590 C591 1.434 . S
C591 C582 1.429 1_655 S
C591 N588 1.350 . S
C591 C590 1.434 . S
C592 C593 1.369 . S
C592 C594 1.419 . S
C592 H596 0.930 . S
C593 C592 1.369 . S
C593 C602 1.429 1_545 S
C594 C592 1.419 . S
C594 C595 1.363 1_545 S
C594 H597 0.929 . S
C595 C594 1.363 1_565 S
C595 C601 1.428 . S
H596 C592 0.930 . S
H597 C594 0.929 . S
S598 N599 1.613 . S
S598 N600 1.610 . S
N599 S598 1.613 . S
N599 C602 1.350 . S
N600 S598 1.610 . S
N600 C601 1.351 . S
C601 C595 1.428 . S
C601 N600 1.351 . S
C601 C602 1.434 . S
C602 C593 1.429 1_565 S
C602 N599 1.350 . S
C602 C601 1.434 . S
C603 C604 1.369 . S
C603 C605 1.419 . S
C603 H607 0.930 . S
C604 C603 1.369 . S
C604 C613 1.429 . S
C605 C603 1.419 . S
C605 C606 1.363 . S
C605 H608 0.929 . S
C606 C605 1.363 . S
C606 C612 1.428 . S
H607 C603 0.930 . S
H608 C605 0.929 . S
S609 N610 1.613 . S
S609 N611 1.610 . S
N610 S609 1.613 . S
N610 C613 1.350 . S
N611 S609 1.610 . S
N611 C612 1.351 . S
C612 C606 1.428 . S
C612 N611 1.351 . S
C612 C613 1.434 . S
C613 C604 1.429 . S
C613 N610 1.350 . S
C613 C612 1.434 . S
C614 C615 1.355 1_656 S
C614 C616 1.419 . S
C614 H618 0.946 . S
C615 C614 1.355 1_454 S
C615 C624 1.429 . S
C616 C614 1.419 . S
C616 C617 1.354 1_556 S
C616 H619 0.939 . S
C617 C616 1.354 1_554 S
C617 C623 1.428 1_655 S
H618 C614 0.946 . S
H619 C616 0.939 . S
S620 N621 1.613 . S
S620 N622 1.610 . S
N621 S620 1.613 . S
N621 C624 1.350 . S
N622 S620 1.610 . S
N622 C623 1.351 . S
C623 C617 1.428 1_455 S
C623 N622 1.351 . S
C623 C624 1.434 . S
C624 C615 1.429 . S
C624 N621 1.350 . S
C624 C623 1.434 . S
C625 C626 1.369 1_545 S
C625 C627 1.419 . S
C625 H629 0.930 . S
C626 C625 1.369 1_565 S
C626 C635 1.429 . S
C627 C625 1.419 . S
C627 C628 1.363 . S
C627 H630 0.929 . S
C628 C627 1.363 . S
C628 C634 1.428 1_545 S
H629 C625 0.930 . S
H630 C627 0.929 . S
S631 N632 1.613 . S
S631 N633 1.610 . S
N632 S631 1.613 . S
N632 C635 1.350 . S
N633 S631 1.610 . S
N633 C634 1.351 . S
C634 C628 1.428 1_565 S
C634 N633 1.351 . S
C634 C635 1.434 . S
C635 C626 1.429 . S
C635 N632 1.350 . S
C635 C634 1.434 . S
C636 C637 1.369 . S
C636 C638 1.419 . S
C636 H640 0.930 . S
C637 C636 1.369 . S
C637 C646 1.429 . S
C638 C636 1.419 . S
C638 C639 1.363 . S
C638 H641 0.929 . S
C639 C638 1.363 . S
C639 C645 1.428 . S
H640 C636 0.930 . S
H641 C638 0.929 . S
S642 N643 1.613 . S
S642 N644 1.610 . S
N643 S642 1.613 . S
N643 C646 1.350 . S
N644 S642 1.610 . S
N644 C645 1.351 . S
C645 C639 1.428 . S
C645 N644 1.351 . S
C645 C646 1.434 . S
C646 C637 1.429 . S
C646 N643 1.350 . S
C646 C645 1.434 . S
C647 C648 1.369 . S
C647 C649 1.419 . S
C647 H651 0.930 . S
C648 C647 1.369 . S
C648 C657 1.429 . S
C649 C647 1.419 . S
C649 C650 1.363 . S
C649 H652 0.929 . S
C650 C649 1.363 . S
C650 C656 1.428 . S
H651 C647 0.930 . S
H652 C649 0.929 . S
S653 N654 1.613 . S
S653 N655 1.610 . S
N654 S653 1.613 . S
N654 C657 1.350 . S
N655 S653 1.610 . S
N655 C656 1.351 . S
C656 C650 1.428 . S
C656 N655 1.351 . S
C656 C657 1.434 . S
C657 C648 1.429 . S
C657 N654 1.350 . S
C657 C656 1.434 . S
C658 C659 1.369 . S
C658 C660 1.419 . S
C658 H662 0.930 1_545 S
C659 C658 1.369 . S
C659 C668 1.429 . S
C660 C658 1.419 . S
C660 C661 1.363 . S
C660 H663 0.929 . S
C661 C660 1.363 . S
C661 C667 1.428 . S
H662 C658 0.930 1_565 S
H663 C660 0.929 . S
S664 N665 1.613 . S
S664 N666 1.610 . S
N665 S664 1.613 . S
N665 C668 1.350 . S
N666 S664 1.610 . S
N666 C667 1.351 . S
C667 C661 1.428 . S
C667 N666 1.351 . S
C667 C668 1.434 . S
C668 C659 1.429 . S
C668 N665 1.350 . S
C668 C667 1.434 . S
C669 C670 1.369 . S
C669 C671 1.419 . S
C669 H673 0.930 . S
C670 C669 1.369 . S
C670 C679 1.429 . S
C671 C669 1.419 . S
C671 C672 1.363 . S
C671 H674 0.929 . S
C672 C671 1.363 . S
C672 C678 1.428 . S
H673 C669 0.930 . S
H674 C671 0.929 . S
S675 N676 1.613 . S
S675 N677 1.610 . S
N676 S675 1.613 . S
N676 C679 1.350 . S
N677 S675 1.610 . S
N677 C678 1.351 . S
C678 C672 1.428 . S
C678 N677 1.351 . S
C678 C679 1.434 . S
C679 C670 1.429 . S
C679 N676 1.350 . S
C679 C678 1.434 . S
C680 C681 1.369 . S
C680 C682 1.419 . S
C680 H684 0.930 . S
C681 C680 1.369 . S
C681 C690 1.429 . S
C682 C680 1.419 . S
C682 C683 1.363 . S
C682 H685 0.929 . S
C683 C682 1.363 . S
C683 C689 1.428 . S
H684 C680 0.930 . S
H685 C682 0.929 . S
S686 N687 1.613 . S
S686 N688 1.610 1_455 S
N687 S686 1.613 . S
N687 C690 1.350 1_455 S
N688 S686 1.610 1_655 S
N688 C689 1.351 . S
C689 C683 1.428 . S
C689 N688 1.351 . S
C689 C690 1.434 . S
C690 C681 1.429 . S
C690 N687 1.350 1_655 S
C690 C689 1.434 . S
C691 C692 1.369 . S
C691 C693 1.419 . S
C691 H695 0.930 . S
C692 C691 1.369 . S
C692 C701 1.429 . S
C693 C691 1.419 . S
C693 C694 1.363 . S
C693 H696 0.929 . S
C694 C693 1.363 . S
C694 C700 1.428 . S
H695 C691 0.930 . S
H696 C693 0.929 . S
S697 N698 1.613 . S
S697 N699 1.610 . S
N698 S697 1.613 . S
N698 C701 1.350 . S
N699 S697 1.610 . S
N699 C700 1.351 . S
C700 C694 1.428 . S
C700 N699 1.351 . S
C700 C701 1.434 . S
C701 C692 1.429 . S
C701 N698 1.350 . S
C701 C700 1.434 . S
C505 C403 1.191 . S
C507 C58 1.046 . S
C516 C487 1.183 . S
C518 C142 1.064 . S
C527 C67 1.180 . S
C529 C226 1.060 . S
C538 C151 1.180 . S
C540 C310 1.056 . S
C549 C235 1.186 . S
C551 C394 1.064 . S
C560 C319 1.180 . S
C562 C478 1.058 . S
C571 C74 2.025 . S
C573 C326 2.021 . S
C582 C410 2.019 . S
C584 C158 2.018 . S
C593 C494 2.022 . S
C595 C242 2.018 . S
C604 C231 1.933 . S
C606 C483 1.932 . S
C615 C63 1.936 . S
C617 C315 1.938 . S
C626 C399 1.931 . S
C628 C147 1.938 . S
C637 C476 1.287 . S
C639 C70 1.284 . S
C648 C154 1.288 . S
C650 C56 1.285 . S
C659 C238 1.286 . S
C661 C140 1.287 . S
C670 C224 1.292 . S
C672 C322 1.280 . S
C681 C406 1.275 . S
C683 C308 1.295 . S
C692 C490 1.280 . S
C694 C392 1.291 . S
