# Generated by pormake.
# Topology bcu-f, (3)-cn, num edge types: 1
# Building blocks:
#     Node 0, Type 0, BuildingBlock: WUSLED_clean_sbu_0, # of connection points: 3
#     Node 1, Type 0, BuildingBlock: WUSLED_clean_sbu_0, # of connection points: 3
#     Node 2, Type 0, BuildingBlock: WUSLED_clean_sbu_0, # of connection points: 3
#     Node 3, Type 0, BuildingBlock: WUSLED_clean_sbu_0, # of connection points: 3
#     Node 4, Type 0, BuildingBlock: WUSLED_clean_sbu_0, # of connection points: 3
#     Node 5, Type 0, BuildingBlock: WUSLED_clean_sbu_0, # of connection points: 3
#     Node 6, Type 0, BuildingBlock: WUSLED_clean_sbu_0, # of connection points: 3
#     Node 7, Type 0, BuildingBlock: WUSLED_clean_sbu_0, # of connection points: 3
#     Node 8, Type 0, BuildingBlock: WUSLED_clean_sbu_0, # of connection points: 3
#     Node 9, Type 0, BuildingBlock: WUSLED_clean_sbu_0, # of connection points: 3
#     Node 10, Type 0, BuildingBlock: WUSLED_clean_sbu_0, # of connection points: 3
#     Node 11, Type 0, BuildingBlock: WUSLED_clean_sbu_0, # of connection points: 3
#     Node 12, Type 0, BuildingBlock: WUSLED_clean_sbu_0, # of connection points: 3
#     Node 13, Type 0, BuildingBlock: WUSLED_clean_sbu_0, # of connection points: 3
#     Node 14, Type 0, BuildingBlock: WUSLED_clean_sbu_0, # of connection points: 3
#     Node 15, Type 0, BuildingBlock: WUSLED_clean_sbu_0, # of connection points: 3
#     Edge 16, Type (0, 0), BuildingBlock: CIFDUS_clean_linker_0, # of connection points: 2
#     Edge 17, Type (0, 0), BuildingBlock: CIFDUS_clean_linker_0, # of connection points: 2
#     Edge 18, Type (0, 0), BuildingBlock: CIFDUS_clean_linker_0, # of connection points: 2
#     Edge 19, Type (0, 0), BuildingBlock: CIFDUS_clean_linker_0, # of connection points: 2
#     Edge 20, Type (0, 0), BuildingBlock: CIFDUS_clean_linker_0, # of connection points: 2
#     Edge 21, Type (0, 0), BuildingBlock: CIFDUS_clean_linker_0, # of connection points: 2
#     Edge 22, Type (0, 0), BuildingBlock: CIFDUS_clean_linker_0, # of connection points: 2
#     Edge 23, Type (0, 0), BuildingBlock: CIFDUS_clean_linker_0, # of connection points: 2
#     Edge 24, Type (0, 0), BuildingBlock: CIFDUS_clean_linker_0, # of connection points: 2
#     Edge 25, Type (0, 0), BuildingBlock: CIFDUS_clean_linker_0, # of connection points: 2
#     Edge 26, Type (0, 0), BuildingBlock: CIFDUS_clean_linker_0, # of connection points: 2
#     Edge 27, Type (0, 0), BuildingBlock: CIFDUS_clean_linker_0, # of connection points: 2
#     Edge 28, Type (0, 0), BuildingBlock: CIFDUS_clean_linker_0, # of connection points: 2
#     Edge 29, Type (0, 0), BuildingBlock: CIFDUS_clean_linker_0, # of connection points: 2
#     Edge 30, Type (0, 0), BuildingBlock: CIFDUS_clean_linker_0, # of connection points: 2
#     Edge 31, Type (0, 0), BuildingBlock: CIFDUS_clean_linker_0, # of connection points: 2
#     Edge 32, Type (0, 0), BuildingBlock: CIFDUS_clean_linker_0, # of connection points: 2
#     Edge 33, Type (0, 0), BuildingBlock: CIFDUS_clean_linker_0, # of connection points: 2
#     Edge 34, Type (0, 0), BuildingBlock: CIFDUS_clean_linker_0, # of connection points: 2
#     Edge 35, Type (0, 0), BuildingBlock: CIFDUS_clean_linker_0, # of connection points: 2
#     Edge 36, Type (0, 0), BuildingBlock: CIFDUS_clean_linker_0, # of connection points: 2
#     Edge 37, Type (0, 0), BuildingBlock: CIFDUS_clean_linker_0, # of connection points: 2
#     Edge 38, Type (0, 0), BuildingBlock: CIFDUS_clean_linker_0, # of connection points: 2
#     Edge 39, Type (0, 0), BuildingBlock: CIFDUS_clean_linker_0, # of connection points: 2
# Relax obj value: 0.004
# Max RMSD: 0.006
# Mean RMSD: 0.006
data_MOF--net-bcu-f--node1-WUSLED_clean_sbu_0--edge1-CIFDUS_clean_linker_0
_symmetry_space_group_name_H-M    P1
_symmetry_Int_Tables_number       1
_symmetry_cell_setting            triclinic
loop_
_symmetry_equiv_pos_as_xyz
'x, y, z'
_cell_length_a     71.899975
_cell_length_b     71.549307
_cell_length_c     58.063993
_cell_angle_alpha  90.218808
_cell_angle_beta   89.588545
_cell_angle_gamma 90.120749
loop_
_atom_site_label
_atom_site_type_symbol
_atom_site_fract_x
_atom_site_fract_y
_atom_site_fract_z
_atom_type_partial_charge
C0 C 0.35458 0.154 0.1696 0.0
C1 C 0.35369 0.17335 0.17339 0.0
C2 C 0.35973 0.16879 0.21422 0.0
C3 C 0.35632 0.18068 0.19546 0.0
C4 C 0.36087 0.1494 0.21022 0.0
C5 C 0.35831 0.14209 0.18808 0.0
U6 U 0.33442 0.15955 0.11005 0.0
O7 O 0.34422 0.14979 0.07609 0.0
O8 O 0.31706 0.14062 0.08943 0.0
C9 C 0.32973 0.1388 0.07317 0.0
C10 C 0.3507 0.14614 0.14671 0.0
C11 C 0.33379 0.11945 0.06632 0.0
C12 C 0.34844 0.08945 0.07325 0.0
C13 C 0.34558 0.10816 0.07943 0.0
C14 C 0.32782 0.09325 0.04077 0.0
C15 C 0.33945 0.08172 0.05394 0.0
C16 C 0.32505 0.11193 0.04691 0.0
C17 C 0.31131 0.20559 0.09438 0.0
C18 C 0.30355 0.2146 0.0553 0.0
C19 C 0.28761 0.22905 0.08766 0.0
C20 C 0.29813 0.21833 0.10283 0.0
C21 C 0.29014 0.22729 0.06368 0.0
C22 C 0.31396 0.20378 0.0705 0.0
C23 C 0.32157 0.19383 0.11068 0.0
O24 O 0.33297 0.1436 0.14232 0.0
O25 O 0.35991 0.15378 0.12949 0.0
O26 O 0.33881 0.18968 0.10492 0.0
O27 O 0.31219 0.1795 0.1188 0.0
H28 H 0.35073 0.18276 0.15931 0.0
H29 H 0.35561 0.19569 0.19784 0.0
H30 H 0.36323 0.13983 0.22429 0.0
H31 H 0.3589 0.12709 0.18547 0.0
H32 H 0.35762 0.08103 0.08364 0.0
H33 H 0.3524 0.11376 0.09456 0.0
H34 H 0.32041 0.08772 1.02606 0.0
H35 H 0.31579 0.12044 0.03672 0.0
H36 H 0.30605 0.21305 0.03699 0.0
H37 H 0.27721 0.23841 0.09474 0.0
H38 H 0.29577 0.21978 0.1212 0.0
H39 H 0.32398 0.19392 0.06359 0.0
C40 C 0.906 0.35776 0.16906 0.0
C41 C 0.88688 0.35637 0.1737 0.0
C42 C 0.89247 0.36165 0.21456 0.0
C43 C 0.88017 0.35837 0.19622 0.0
C44 C 0.91163 0.36326 0.20972 0.0
C45 C 0.91832 0.36132 0.18714 0.0
U46 U 0.89853 0.33975 0.10855 0.0
O47 O 0.90733 0.35083 0.07484 0.0
O48 O 0.91641 0.32297 0.08572 0.0
C49 C 0.91792 0.33631 0.0703 0.0
C50 C 0.91319 0.35461 0.1456 0.0
C51 C 0.93696 0.34056 0.06259 0.0
C52 C 0.96935 0.34744 0.07079 0.0
C53 C 0.95111 0.34437 0.07846 0.0
C54 C 0.95935 0.34343 0.0313 0.0
C55 C 0.97371 0.34684 0.04712 0.0
C56 C 0.94115 0.34029 0.039 0.0
C57 C 0.85155 0.31802 0.09399 0.0
C58 C 0.84653 0.29789 0.06081 0.0
C59 C 0.82019 0.30926 0.08301 0.0
C60 C 0.83229 0.3189 0.09762 0.0
C61 C 0.82719 0.29848 0.0646 0.0
C62 C 0.85861 0.30764 0.07533 0.0
C63 C 0.8641 0.32755 0.11012 0.0
O64 O 0.9153 0.33696 0.13988 0.0
O65 O 0.90528 0.36456 0.12939 0.0
O66 O 0.86847 0.34488 0.10492 0.0
O67 O 0.8784 0.31766 0.11695 0.0
H68 H 0.87716 0.35355 0.15993 0.0
H69 H 0.86533 0.35732 0.19925 0.0
H70 H 0.92151 0.36554 0.22344 0.0
H71 H 0.93314 0.36228 0.18386 0.0
H72 H 0.98006 0.35025 0.08338 0.0
H73 H 0.94807 0.34473 0.09677 0.0
H74 H 0.96227 0.34266 1.013 0.0
H75 H 0.93038 0.33735 1.02652 0.0
H76 H 0.85232 0.28991 0.04659 0.0
H77 H 0.80538 0.30986 0.08647 0.0
H78 H 0.82661 0.32685 0.11195 0.0
H79 H 0.87346 0.30692 0.07216 0.0
C80 C 0.695 0.90889 0.16914 0.0
C81 C 0.70413 0.89436 0.18064 0.0
C82 C 0.68251 0.89722 0.21295 0.0
C83 C 0.69799 0.88864 0.20243 0.0
C84 C 0.6733 0.91161 0.2012 0.0
C85 C 0.67952 0.91741 0.17951 0.0
U86 U 0.71983 0.90067 0.11168 0.0
O87 O 0.71277 0.91034 0.07692 0.0
O88 O 0.73921 0.91878 0.09253 0.0
C89 C 0.7277 0.92092 0.07528 0.0
C90 C 0.70146 0.9154 0.14644 0.0
C91 C 0.72447 0.94035 0.06836 0.0
C92 C 0.71006 0.97064 0.07467 0.0
C93 C 0.71248 0.95197 0.08107 0.0
C94 C 0.73153 0.96618 0.04277 0.0
C95 C 0.71964 0.97801 0.0555 0.0
C96 C 0.7339 0.94753 0.04915 0.0
C97 C 0.74123 0.85342 0.09759 0.0
C98 C 0.76211 0.84905 0.06494 0.0
C99 C 0.75068 0.82218 0.08606 0.0
C100 C 0.74059 0.83403 0.10071 0.0
C101 C 0.76163 0.82957 0.06808 0.0
C102 C 0.75194 0.86088 0.07952 0.0
C103 C 0.73071 0.86572 0.11324 0.0
O104 O 0.71958 0.91689 0.14386 0.0
O105 O 0.69322 0.90771 0.12861 0.0
O106 O 0.7142 0.87075 0.10597 0.0
O107 O 0.74025 0.87962 0.12222 0.0
H108 H 0.71602 0.88749 0.17281 0.0
H109 H 0.70523 0.87738 0.21093 0.0
H110 H 0.66145 0.9186 0.20895 0.0
H111 H 0.67231 0.92863 0.17087 0.0
H112 H 0.70066 0.97929 0.08472 0.0
H113 H 0.70512 0.94663 0.09601 0.0
H114 H 0.73937 0.97144 1.02817 0.0
H115 H 0.74329 0.93876 0.03924 0.0
H116 H 0.77022 0.85515 0.05107 0.0
H117 H 0.75016 0.80725 0.08905 0.0
H118 H 0.73237 0.82805 0.11456 0.0
H119 H 0.75247 0.87584 0.07674 0.0
C120 C 0.14736 0.69936 0.1701 0.0
C121 C 0.16647 0.69753 0.17425 0.0
C122 C 0.15999 0.68809 0.21377 0.0
C123 C 0.17273 0.69187 0.19587 0.0
C124 C 0.14086 0.69023 0.2096 0.0
C125 C 0.13461 0.69578 0.18791 0.0
U126 U 0.156 0.72156 0.11172 0.0
O127 O 0.14711 0.7128 0.07706 0.0
O128 O 0.13876 0.74018 0.09086 0.0
C129 C 0.13706 0.72791 0.07409 0.0
C130 C 0.14062 0.70494 0.14728 0.0
C131 C 0.11812 0.72494 0.06529 0.0
C132 C 0.08455 0.72452 0.07057 0.0
C133 C 0.10244 0.72592 0.07979 0.0
C134 C 0.09786 0.72042 0.03245 0.0
C135 C 0.08204 0.72205 0.04672 0.0
C136 C 0.1157 0.7219 0.04165 0.0
C137 C 0.20346 0.742 0.09745 0.0
C138 C 0.21221 0.75104 0.05854 0.0
C139 C 0.23008 0.76232 0.091 0.0
C140 C 0.21836 0.75251 0.10604 0.0
C141 C 0.22712 0.76169 0.06709 0.0
C142 C 0.20041 0.74136 0.0736 0.0
C143 C 0.19085 0.73235 0.11354 0.0
O144 O 0.13957 0.72305 0.14384 0.0
O145 O 0.14797 0.69582 0.12975 0.0
O146 O 0.18578 0.71537 0.10749 0.0
O147 O 0.177 0.74254 0.12141 0.0
H148 H 0.17654 0.70041 0.16074 0.0
H149 H 0.18756 0.69058 0.19864 0.0
H150 H 0.13071 0.68727 0.22297 0.0
H151 H 0.11981 0.69716 0.185 0.0
H152 H 0.07269 0.726 0.08204 0.0
H153 H 0.104 0.7282 0.09813 0.0
H154 H 0.09646 0.71816 1.01409 0.0
H155 H 0.12765 0.72099 0.03021 0.0
H156 H 0.20945 0.75049 0.04024 0.0
H157 H 0.24154 0.77028 0.09807 0.0
H158 H 0.22086 0.75323 0.1244 0.0
H159 H 0.18883 0.7335 0.06665 0.0
C160 C 0.35685 0.90706 0.88748 0.0
C161 C 0.35793 0.8878 0.88301 0.0
C162 C 0.36743 0.89405 0.84341 0.0
C163 C 0.36326 0.88135 0.86117 0.0
C164 C 0.36613 0.91332 0.84797 0.0
C165 C 0.36091 0.91976 0.86984 0.0
U166 U 0.33409 0.90021 0.94635 0.0
O167 O 0.34281 0.90998 0.98058 0.0
O168 O 0.31609 0.91907 0.96647 0.0
C169 C 0.3283 0.92098 0.98304 0.0
C170 C 0.35144 0.91411 0.91036 0.0
C171 C 0.33234 0.94037 0.98978 0.0
C172 C 0.34783 0.97009 0.98312 0.0
C173 C 0.34475 0.95141 0.97695 0.0
C174 C 0.32615 0.96677 1.01501 0.0
C175 C 0.33846 0.97803 1.00215 0.0
C176 C 0.32315 0.94811 1.00887 0.0
C177 C 0.31131 0.85403 0.96226 0.0
C178 C 0.30312 0.84551 1.00153 0.0
C179 C 0.2877 0.83039 0.9695 0.0
C180 C 0.29833 0.84102 0.95408 0.0
C181 C 0.28992 0.83253 0.99344 0.0
C182 C 0.31363 0.85623 0.9861 0.0
C183 C 0.3217 0.86571 0.94576 0.0
O184 O 0.33345 0.91594 0.91385 0.0
O185 O 0.36011 0.90654 0.92786 0.0
O186 O 0.3388 0.87017 0.95159 0.0
O187 O 0.31233 0.87983 0.93732 0.0
H188 H 0.35468 0.87779 0.8964 0.0
H189 H 0.36393 0.86642 0.85811 0.0
H190 H 0.36944 0.92345 0.83473 0.0
H191 H 0.36012 0.93467 0.873 0.0
H192 H 0.35753 0.97829 0.97299 0.0
H193 H 0.35193 0.94563 0.96208 0.0
H194 H 0.31845 0.97248 0.02949 0.0
H195 H 0.31342 0.93979 1.01885 0.0
H196 H 0.3054 0.84736 1.01981 0.0
H197 H 0.27747 0.82079 0.96262 0.0
H198 H 0.29621 0.83926 0.93574 0.0
H199 H 0.32348 0.86631 0.99282 0.0
C200 C 0.14784 0.35657 0.88856 0.0
C201 C 0.16696 0.35534 0.8839 0.0
C202 C 0.16138 0.36089 0.84316 0.0
C203 C 0.17368 0.35756 0.86144 0.0
C204 C 0.14222 0.36234 0.84801 0.0
C205 C 0.13552 0.36018 0.87055 0.0
U206 U 0.1559 0.33858 0.94862 0.0
O207 O 0.14732 0.34945 0.98265 0.0
O208 O 0.13863 0.32139 0.97156 0.0
C209 C 0.13713 0.33463 0.98723 0.0
C210 C 0.14071 0.35327 0.91199 0.0
C211 C 0.1182 0.3382 0.99593 0.0
C212 C 0.0848 0.34004 0.99016 0.0
C213 C 0.10283 0.33828 0.98116 0.0
C214 C 0.0974 0.34241 1.02865 0.0
C215 C 0.08186 0.34181 1.01407 0.0
C216 C 0.11538 0.34058 1.01965 0.0
C217 C 0.20315 0.3175 0.96214 0.0
C218 C 0.21193 0.3085 1.00086 0.0
C219 C 0.23005 0.29769 0.96808 0.0
C220 C 0.21824 0.30733 0.95328 0.0
C221 C 0.22699 0.29812 0.99203 0.0
C222 C 0.20004 0.31803 0.98602 0.0
C223 C 0.19041 0.32682 0.94622 0.0
O224 O 0.13884 0.33557 0.91751 0.0
O225 O 0.14856 0.36332 0.92827 0.0
O226 O 0.1859 0.34412 0.95149 0.0
O227 O 0.17613 0.31665 0.93972 0.0
H228 H 0.17669 0.35249 0.89761 0.0
H229 H 0.18853 0.35663 0.8584 0.0
H230 H 0.13235 0.36467 0.83433 0.0
H231 H 0.12069 0.36104 0.87385 0.0
H232 H 0.07316 0.33935 0.97845 0.0
H233 H 0.10474 0.33649 0.96275 0.0
H234 H 0.09567 0.3441 0.04708 0.0
H235 H 0.12709 0.34065 0.03129 0.0
H236 H 0.2091 0.3089 1.0192 0.0
H237 H 0.24164 0.28997 0.96079 0.0
H238 H 0.22079 0.30673 0.93487 0.0
H239 H 0.18832 0.32566 0.99314 0.0
C240 C 0.69731 0.1522 0.88855 0.0
C241 C 0.69971 0.17119 0.88339 0.0
C242 C 0.68834 0.16579 0.8445 0.0
C243 C 0.69521 0.17794 0.86157 0.0
C244 C 0.6858 0.14679 0.84989 0.0
C245 C 0.69024 0.14007 0.87176 0.0
U246 U 0.72164 0.15851 0.94583 0.0
O247 O 0.7142 0.14873 0.98059 0.0
O248 O 0.74036 0.13966 0.9644 0.0
C249 C 0.72883 0.13779 0.98189 0.0
C250 C 0.70288 0.1448 0.91103 0.0
C251 C 0.72516 0.11844 0.98894 0.0
C252 C 0.71043 0.08826 0.98282 0.0
C253 C 0.71309 0.10691 0.97637 0.0
C254 C 0.73177 0.0926 1.01452 0.0
C255 C 0.71984 0.08084 1.00191 0.0
C256 C 0.73437 0.11122 1.00809 0.0
C257 C 0.7456 0.2044 0.9598 0.0
C258 C 0.76479 0.20736 0.99386 0.0
C259 C 0.76077 0.2339 0.96856 0.0
C260 C 0.7493 0.22311 0.95438 0.0
C261 C 0.76879 0.22609 0.98835 0.0
C262 C 0.75327 0.19662 0.97971 0.0
C263 C 0.73424 0.19293 0.94428 0.0
O264 O 0.72087 0.14247 0.91349 0.0
O265 O 0.69489 0.15265 0.92907 0.0
O266 O 0.71755 0.18861 0.952 0.0
O267 O 0.74298 0.17867 0.93489 0.0
H268 H 0.70531 0.18072 0.89614 0.0
H269 H 0.69755 0.19259 0.85787 0.0
H270 H 0.68036 0.13712 0.83721 0.0
H271 H 0.68835 0.12535 0.87547 0.0
H272 H 0.701 0.07966 0.97287 0.0
H273 H 0.70589 0.11229 0.96147 0.0
H274 H 0.73949 0.08731 0.02904 0.0
H275 H 0.74383 0.11992 1.01788 0.0
H276 H 0.77054 0.20102 1.00914 0.0
H277 H 0.76373 0.24821 0.96373 0.0
H278 H 0.74351 0.2293 0.93902 0.0
H279 H 0.7505 0.18218 0.98417 0.0
C280 C 0.90812 0.69687 0.89229 0.0
C281 C 0.89426 0.70666 0.88048 0.0
C282 C 0.89651 0.68471 0.8484 0.0
C283 C 0.88857 0.70068 0.85866 0.0
C284 C 0.91026 0.67486 0.86045 0.0
C285 C 0.91602 0.68092 0.88218 0.0
U286 U 0.9005 0.72322 0.94884 0.0
O287 O 0.90834 0.71559 0.98419 0.0
O288 O 0.91943 0.74121 0.96853 0.0
C289 C 0.91992 0.72973 0.98614 0.0
C290 C 0.91449 0.70306 0.9151 0.0
C291 C 0.93857 0.72517 0.99464 0.0
C292 C 0.97091 0.71692 0.9878 0.0
C293 C 0.953 0.72015 0.97945 0.0
C294 C 0.95999 0.72311 1.02667 0.0
C295 C 0.97464 0.71854 1.0115 0.0
C296 C 0.94213 0.72643 1.01828 0.0
C297 C 0.85564 0.74922 0.96084 0.0
C298 C 0.85263 0.76868 0.99502 0.0
C299 C 0.82634 0.76458 0.96959 0.0
C300 C 0.83709 0.75298 0.95535 0.0
C301 C 0.83403 0.77265 0.98952 0.0
C302 C 0.86333 0.75704 0.98082 0.0
C303 C 0.86698 0.73734 0.9456 0.0
O304 O 0.91752 0.7211 0.91736 0.0
O305 O 0.90559 0.69575 0.93276 0.0
O306 O 0.87019 0.7204 0.9533 0.0
O307 O 0.88187 0.74545 0.93696 0.0
H308 H 0.88788 0.71894 0.88811 0.0
H309 H 0.8778 0.70842 0.84993 0.0
H310 H 0.91677 0.66262 0.85292 0.0
H311 H 0.92673 0.67319 0.89107 0.0
H312 H 0.98186 0.7132 0.97573 0.0
H313 H 0.95047 0.71899 0.96112 0.0
H314 H 0.96243 0.72466 0.04496 0.0
H315 H 0.93114 0.7303 0.03024 0.0
H316 H 0.85888 0.77447 1.0104 0.0
H317 H 0.81211 0.7675 0.96477 0.0
H318 H 0.83096 0.74706 0.93996 0.0
H319 H 0.87763 0.75419 0.98537 0.0
C320 C 0.85834 0.6536 0.67267 0.0
C321 C 0.85088 0.67027 0.68151 0.0
C322 C 0.86814 0.66614 0.7171 0.0
C323 C 0.85571 0.67647 0.70355 0.0
C324 C 0.87567 0.6495 0.70801 0.0
C325 C 0.87078 0.64329 0.68599 0.0
U326 U 0.83533 0.6615 0.61486 0.0
O327 O 0.84383 0.6532 0.57987 0.0
O328 O 0.81739 0.64298 0.59428 0.0
C329 C 0.82941 0.64209 0.57716 0.0
C330 C 0.85315 0.64683 0.64966 0.0
C331 C 0.83346 0.62322 0.56836 0.0
C332 C 0.85242 0.59513 0.56719 0.0
C333 C 0.84865 0.61286 0.57637 0.0
C334 C 0.82566 0.59785 0.54229 0.0
C335 C 0.84096 0.58744 0.55001 0.0
C336 C 0.82197 0.61557 0.55137 0.0
C337 C 0.81259 0.70812 0.60197 0.0
C338 C 0.79271 0.71229 0.56874 0.0
C339 C 0.80283 0.73923 0.59081 0.0
C340 C 0.81268 0.72749 0.60554 0.0
C341 C 0.79266 0.73176 0.57231 0.0
C342 C 0.80266 0.70058 0.5834 0.0
C343 C 0.82299 0.69592 0.61758 0.0
O344 O 0.83521 0.64461 0.64639 0.0
O345 O 0.86163 0.65513 0.63235 0.0
O346 O 0.83996 0.69174 0.61079 0.0
O347 O 0.81371 0.68145 0.62556 0.0
H348 H 0.84123 0.67841 0.67141 0.0
H349 H 0.84948 0.68921 0.71008 0.0
H350 H 0.88551 0.64136 0.71779 0.0
H351 H 0.87674 0.63043 0.67936 0.0
H352 H 0.8642 0.58738 0.57363 0.0
H353 H 0.85761 0.61851 0.58962 0.0
H354 H 0.81672 0.59244 0.52887 0.0
H355 H 0.81021 0.62338 0.54497 0.0
H356 H 0.78522 0.70614 0.55447 0.0
H357 H 0.80293 0.75414 0.59411 0.0
H358 H 0.82032 0.73353 0.61977 0.0
H359 H 0.80259 0.68564 0.58025 0.0
C360 C 0.40445 0.86034 0.66755 0.0
C361 C 0.38534 0.8629 0.6715 0.0
C362 C 0.39138 0.87137 0.71143 0.0
C363 C 0.37886 0.86846 0.69324 0.0
C364 C 0.4105 0.86865 0.70738 0.0
C365 C 0.41696 0.86321 0.68561 0.0
U366 U 0.39692 0.83763 0.60896 0.0
O367 O 0.40769 0.84524 0.57472 0.0
O368 O 0.41459 0.81797 0.58953 0.0
C369 C 0.41761 0.82989 0.57276 0.0
C370 C 0.41148 0.85434 0.64488 0.0
C371 C 0.43722 0.83257 0.56633 0.0
C372 C 0.46767 0.84614 0.57337 0.0
C373 C 0.44891 0.8441 0.57946 0.0
C374 C 0.46318 0.82518 0.54099 0.0
C375 C 0.47505 0.83664 0.5541 0.0
C376 C 0.44444 0.82319 0.54706 0.0
C377 C 0.34938 0.81828 0.59318 0.0
C378 C 0.345 0.79812 0.5599 0.0
C379 C 0.31826 0.80926 0.58154 0.0
C380 C 0.33007 0.819 0.59641 0.0
C381 C 0.3256 0.79858 0.56324 0.0
C382 C 0.35679 0.80794 0.57471 0.0
C383 C 0.36167 0.82805 0.60938 0.0
O384 O 0.41211 0.83617 0.64167 0.0
O385 O 0.40485 0.86343 0.6271 0.0
O386 O 0.36756 0.84459 0.60274 0.0
O387 O 0.37487 0.81772 0.61831 0.0
H388 H 0.37544 0.86056 0.6578 0.0
H389 H 0.36405 0.87024 0.69591 0.0
H390 H 0.42049 0.87096 0.72098 0.0
H391 H 0.43175 0.86124 0.68286 0.0
H392 H 0.47636 0.85522 0.5837 0.0
H393 H 0.44353 0.85143 0.59444 0.0
H394 H 0.46845 0.8174 0.5263 0.0
H395 H 0.43562 0.81416 0.53682 0.0
H396 H 0.35106 0.79022 0.54579 0.0
H397 H 0.3034 0.80976 0.58468 0.0
H398 H 0.32414 0.82692 0.6106 0.0
H399 H 0.37169 0.80734 0.57188 0.0
C400 C 0.20372 0.38068 0.66611 0.0
C401 C 0.20039 0.36344 0.67672 0.0
C402 C 0.18866 0.37925 0.71108 0.0
C403 C 0.1929 0.36271 0.69896 0.0
C404 C 0.19167 0.39654 0.70015 0.0
C405 C 0.19912 0.39725 0.67782 0.0
U406 U 0.21539 0.40475 0.60894 0.0
O407 O 0.19093 0.42264 0.60349 0.0
O408 O 0.21572 0.43405 0.62034 0.0
C409 C 0.19941 0.43764 0.61133 0.0
C410 C 0.21245 0.38104 0.64316 0.0
C411 C 0.199 0.45402 0.59617 0.0
C412 C 0.18864 0.48569 0.58875 0.0
C413 C 0.18827 0.46959 0.60234 0.0
C414 C 0.21026 0.47063 0.56242 0.0
C415 C 0.19982 0.48648 0.56878 0.0
C416 C 0.20984 0.45454 0.576 0.0
C417 C 0.24631 0.3792 0.56568 0.0
C418 C 0.25948 0.35958 0.53552 0.0
C419 C 0.26669 0.35341 0.57546 0.0
C420 C 0.25537 0.36833 0.58224 0.0
C421 C 0.26903 0.34893 0.55198 0.0
C422 C 0.24828 0.3746 0.54232 0.0
C423 C 0.23509 0.39553 0.57247 0.0
O424 O 0.22647 0.3927 0.64073 0.0
O425 O 0.20099 0.38113 0.62562 0.0
O426 O 0.21707 0.39266 0.57401 0.0
O427 O 0.24172 0.40552 0.58961 0.0
H428 H 0.20376 0.35051 0.66786 0.0
H429 H 0.19043 0.34916 0.70666 0.0
H430 H 0.1887 0.40955 0.70903 0.0
H431 H 0.20156 0.41071 0.66985 0.0
H432 H 0.18062 0.4977 0.59428 0.0
H433 H 0.17987 0.46943 0.61791 0.0
H434 H 0.21883 0.47071 0.547 0.0
H435 H 0.21819 0.44258 0.57097 0.0
H436 H 0.26066 0.35634 0.51734 0.0
H437 H 0.27397 0.34569 0.58861 0.0
H438 H 0.25394 0.37158 0.60041 0.0
H439 H 0.24126 0.38274 0.52931 0.0
C440 C 0.67766 0.20878 0.66735 0.0
C441 C 0.69419 0.20014 0.6742 0.0
C442 C 0.68026 0.19223 0.71124 0.0
C443 C 0.69548 0.19189 0.6959 0.0
C444 C 0.66361 0.20072 0.70424 0.0
C445 C 0.66229 0.20885 0.68243 0.0
U446 U 0.65366 0.22119 0.61052 0.0
O447 O 0.63631 0.1963 0.60451 0.0
O448 O 0.62429 0.22103 0.62132 0.0
C449 C 0.6211 0.20461 0.61191 0.0
C450 C 0.67706 0.21805 0.64473 0.0
C451 C 0.60537 0.20399 0.59592 0.0
C452 C 0.57499 0.19191 0.58545 0.0
C453 C 0.59003 0.19249 0.60061 0.0
C454 C 0.59058 0.21434 0.56075 0.0
C455 C 0.57508 0.20284 0.56533 0.0
C456 C 0.60559 0.21488 0.57589 0.0
C457 C 0.67892 0.2527 0.56781 0.0
C458 C 0.69282 0.27584 0.54254 0.0
C459 C 0.71031 0.26387 0.57479 0.0
C460 C 0.69527 0.25243 0.58085 0.0
C461 C 0.70922 0.27582 0.55564 0.0
C462 C 0.67782 0.26438 0.54859 0.0
C463 C 0.66273 0.24137 0.57449 0.0
O464 O 0.66532 0.23202 0.64278 0.0
O465 O 0.67732 0.20691 0.62667 0.0
O466 O 0.6656 0.22326 0.57563 0.0
O467 O 0.65306 0.24793 0.59201 0.0
H468 H 0.70622 0.19998 0.66284 0.0
H469 H 0.70855 0.18564 0.70088 0.0
H470 H 0.6516 0.20101 0.7156 0.0
H471 H 0.64932 0.21531 0.67747 0.0
H472 H 0.5634 0.18273 0.58935 0.0
H473 H 0.58969 0.18394 0.61597 0.0
H474 H 0.591 0.22312 0.5456 0.0
H475 H 0.61735 0.22386 0.57204 0.0
H476 H 0.69137 0.28508 0.52793 0.0
H477 H 0.72279 0.26336 0.5851 0.0
H478 H 0.69631 0.24348 0.59581 0.0
H479 H 0.66524 0.26483 0.53843 0.0
C480 C 0.85001 0.38029 0.39186 0.0
C481 C 0.85345 0.36308 0.38111 0.0
C482 C 0.86539 0.37902 0.34705 0.0
C483 C 0.8611 0.36243 0.35894 0.0
C484 C 0.86229 0.39627 0.35816 0.0
C485 C 0.85467 0.3969 0.3804 0.0
U486 U 0.83598 0.40503 0.44792 0.0
O487 O 0.8593 0.42446 0.45368 0.0
O488 O 0.83443 0.43393 0.43548 0.0
C489 C 0.85018 0.43875 0.44521 0.0
C490 C 0.84086 0.38062 0.41458 0.0
C491 C 0.84897 0.45525 0.46027 0.0
C492 C 0.85614 0.48787 0.46778 0.0
C493 C 0.85823 0.47178 0.45423 0.0
C494 C 0.83574 0.47089 0.49375 0.0
C495 C 0.84466 0.48767 0.48752 0.0
C496 C 0.83789 0.45482 0.48024 0.0
C497 C 0.80502 0.3796 0.49124 0.0
C498 C 0.78179 0.3658 0.51649 0.0
C499 C 0.79495 0.34755 0.48515 0.0
C500 C 0.80608 0.36277 0.47882 0.0
C501 C 0.78253 0.34894 0.50395 0.0
C502 C 0.79295 0.38098 0.51018 0.0
C503 C 0.81574 0.39608 0.48402 0.0
O504 O 0.8262 0.39149 0.41625 0.0
O505 O 0.85195 0.38185 0.43243 0.0
O506 O 0.83389 0.39399 0.48317 0.0
O507 O 0.80907 0.40487 0.46608 0.0
H508 H 0.85001 0.35013 0.38977 0.0
H509 H 0.86363 0.34891 0.35109 0.0
H510 H 0.86527 0.40931 0.34945 0.0
H511 H 0.8521 0.41033 0.38849 0.0
H512 H 0.86303 0.50062 0.46238 0.0
H513 H 0.86679 0.47234 0.43881 0.0
H514 H 0.827 0.47022 0.50899 0.0
H515 H 0.83067 0.44213 0.48517 0.0
H516 H 0.77219 0.36749 0.5308 0.0
H517 H 0.79601 0.33471 0.47528 0.0
H518 H 0.81532 0.36152 0.46408 0.0
H519 H 0.79188 0.39392 0.51983 0.0
C520 C 0.65025 0.85758 0.38808 0.0
C521 C 0.66666 0.84975 0.37913 0.0
C522 C 0.66334 0.86797 0.34401 0.0
C523 C 0.67314 0.85487 0.35727 0.0
C524 C 0.64703 0.87595 0.35329 0.0
C525 C 0.64055 0.87077 0.37511 0.0
U526 U 0.65616 0.83325 0.44579 0.0
O527 O 0.64601 0.84102 0.48034 0.0
O528 O 0.63708 0.8146 0.46456 0.0
C529 C 0.63504 0.82634 0.48184 0.0
C530 C 0.64295 0.85187 0.41068 0.0
C531 C 0.61571 0.83009 0.48872 0.0
C532 C 0.58599 0.8453 0.48257 0.0
C533 C 0.60461 0.84252 0.47625 0.0
C534 C 0.5895 0.82333 0.51389 0.0
C535 C 0.57818 0.83564 0.5014 0.0
C536 C 0.60809 0.82061 0.5076 0.0
C537 C 0.70141 0.80953 0.46102 0.0
C538 C 0.70341 0.79071 0.49563 0.0
C539 C 0.73069 0.79512 0.47147 0.0
C540 C 0.72029 0.80621 0.45653 0.0
C541 C 0.72232 0.78713 0.49109 0.0
C542 C 0.69305 0.80185 0.48074 0.0
C543 C 0.6904 0.82067 0.44491 0.0
O544 O 0.64063 0.83378 0.41336 0.0
O545 O 0.65065 0.86003 0.42856 0.0
O546 O 0.68602 0.83755 0.45211 0.0
O547 O 0.67637 0.81175 0.43549 0.0
H548 H 0.67434 0.83953 0.38896 0.0
H549 H 0.68563 0.8483 0.35059 0.0
H550 H 0.63932 0.88631 0.34375 0.0
H551 H 0.6279 0.87701 0.38183 0.0
H552 H 0.57773 0.85502 0.47272 0.0
H553 H 0.6103 0.84992 0.46155 0.0
H554 H 0.58389 0.8154 0.52821 0.0
H555 H 0.61646 0.81087 0.5173 0.0
H556 H 0.69663 0.78497 0.51075 0.0
H557 H 0.74517 0.79248 0.46739 0.0
H558 H 0.72693 0.81203 0.44135 0.0
H559 H 0.67849 0.80436 0.4845 0.0
C560 C 0.1966 0.65034 0.38755 0.0
C561 C 0.19442 0.66957 0.38372 0.0
C562 C 0.18419 0.66334 0.34452 0.0
C563 C 0.18817 0.67601 0.36242 0.0
C564 C 0.18647 0.64409 0.34846 0.0
C565 C 0.19259 0.63766 0.36981 0.0
U566 U 0.22307 0.65781 0.44334 0.0
O567 O 0.21729 0.64814 0.47857 0.0
O568 O 0.24303 0.63958 0.46093 0.0
C569 C 0.23234 0.63776 0.47923 0.0
C570 C 0.20354 0.64335 0.40967 0.0
C571 C 0.22986 0.61858 0.4877 0.0
C572 C 0.21339 0.58887 0.48841 0.0
C573 C 0.21549 0.60699 0.47969 0.0
C574 C 0.24014 0.59375 0.5129 0.0
C575 C 0.22573 0.58205 0.5051 0.0
C576 C 0.24215 0.61183 0.50428 0.0
C577 C 0.24575 0.70426 0.45664 0.0
C578 C 0.26503 0.70736 0.4906 0.0
C579 C 0.26062 0.73391 0.46545 0.0
C580 C 0.24922 0.72302 0.45126 0.0
C581 C 0.26878 0.72615 0.48518 0.0
C582 C 0.25361 0.69652 0.47646 0.0
C583 C 0.23437 0.69265 0.44128 0.0
O584 O 0.22171 0.64179 0.41096 0.0
O585 O 0.19597 0.65078 0.42824 0.0
O586 O 0.21803 0.68775 0.44958 0.0
O587 O 0.24331 0.67874 0.43138 0.0
H588 H 0.19765 0.67959 0.39716 0.0
H589 H 0.18676 0.69092 0.35982 0.0
H590 H 0.18334 0.63398 0.3351 0.0
H591 H 0.19426 0.62278 0.37245 0.0
H592 H 0.20226 0.58013 0.48194 0.0
H593 H 0.20591 0.61197 0.46678 0.0
H594 H 0.2497 0.58903 0.52598 0.0
H595 H 0.25329 0.62061 0.51068 0.0
H596 H 0.27089 0.70104 0.50584 0.0
H597 H 0.26337 0.74828 0.46069 0.0
H598 H 0.24329 0.72918 0.43597 0.0
H599 H 0.25101 0.68204 0.48089 0.0
C600 C 0.37946 0.21321 0.39028 0.0
C601 C 0.36238 0.21005 0.37951 0.0
C602 C 0.3783 0.19794 0.34544 0.0
C603 C 0.36178 0.20246 0.35734 0.0
C604 C 0.39544 0.2008 0.35652 0.0
C605 C 0.39601 0.20835 0.37879 0.0
U606 U 0.40208 0.22366 0.44861 0.0
O607 O 0.41827 0.19813 0.45486 0.0
O608 O 0.43168 0.22253 0.43905 0.0
C609 C 0.43397 0.20593 0.4482 0.0
C610 C 0.37965 0.22199 0.41321 0.0
C611 C 0.44933 0.20464 0.46466 0.0
C612 C 0.47955 0.19234 0.47507 0.0
C613 C 0.46467 0.19325 0.45972 0.0
C614 C 0.46377 0.21414 0.50054 0.0
C615 C 0.47931 0.20284 0.49563 0.0
C616 C 0.44891 0.21502 0.48519 0.0
C617 C 0.37657 0.2558 0.49035 0.0
C618 C 0.35866 0.27318 0.51881 0.0
C619 C 0.35036 0.27474 0.47848 0.0
C620 C 0.36487 0.2625 0.473 0.0
C621 C 0.34721 0.28036 0.50141 0.0
C622 C 0.37326 0.26104 0.51329 0.0
C623 C 0.39252 0.2438 0.48463 0.0
O624 O 0.39196 0.23538 0.41615 0.0
O625 O 0.37847 0.2105 0.43077 0.0
O626 O 0.38885 0.22586 0.48287 0.0
O627 O 0.40335 0.25003 0.468 0.0
H628 H 0.34947 0.21361 0.3882 0.0
H629 H 0.34834 0.2001 0.34953 0.0
H630 H 0.40842 0.19761 0.34781 0.0
H631 H 0.40936 0.21063 0.3869 0.0
H632 H 0.49118 0.18331 0.4709 0.0
H633 H 0.46518 0.18512 0.44395 0.0
H634 H 0.46323 0.22259 0.51604 0.0
H635 H 0.43715 0.22394 0.48923 0.0
H636 H 0.35669 0.27739 0.53659 0.0
H637 H 0.34162 0.27986 0.46476 0.0
H638 H 0.36715 0.25847 0.45519 0.0
H639 H 0.38216 0.25597 0.52688 0.0
H640 H 0.341 0.9937 0.04494 0.0
H641 H 0.34122 1.00769 0.97268 0.0
H642 H 0.34303 0.04085 0.98233 0.0
H643 H 0.34272 0.06597 1.01123 0.0
H644 H 0.34053 0.05201 0.08347 0.0
H645 H 0.34146 1.01881 0.07385 0.0
C646 C 0.34137 1.00399 0.03128 0.0
C647 C 0.34087 0.99815 1.00811 0.0
C648 C 0.34205 1.02308 0.03694 0.0
C649 C 0.34178 1.01171 0.99066 0.0
C650 C 0.34267 0.03072 0.99616 0.0
C651 C 0.34237 0.05567 1.02489 0.0
C652 C 0.34145 0.06154 0.04804 0.0
C653 C 0.34252 0.03657 1.01924 0.0
C654 C 0.34144 0.04797 0.06551 0.0
C655 C 0.34182 1.02894 0.06002 0.0
H656 H 1.00475 0.33141 0.06541 0.0
H657 H 0.98646 0.36696 1.01021 0.0
H658 H 1.01832 0.36895 0.99539 0.0
H659 H 0.0513 0.36 0.99766 0.0
H660 H 0.06922 0.32386 0.05256 0.0
H661 H 0.03771 0.32313 0.06824 0.0
C662 C 1.00777 0.33983 0.05033 0.0
C663 C 0.99323 0.349 0.03893 0.0
C664 C 1.02609 0.34085 0.04186 0.0
C665 C 0.99736 0.35959 1.01917 0.0
C666 C 1.01558 0.36079 1.01073 0.0
C667 C 0.0483 0.3519 1.013 0.0
C668 C 0.06268 0.34204 1.0239 0.0
C669 C 0.03003 0.35132 1.02181 0.0
C670 C 0.05854 0.33183 0.04397 0.0
C671 C 0.04047 0.33128 0.05289 0.0
H672 H 0.7172 0.06585 0.04494 0.0
H673 H 0.71814 0.05063 0.97293 0.0
H674 H 0.71693 1.0176 0.98314 0.0
H675 H 0.71724 0.99298 1.01248 0.0
H676 H 0.71803 1.00823 0.08448 0.0
H677 H 0.71685 0.04125 0.07428 0.0
C678 C 0.71722 0.05532 0.03146 0.0
C679 C 0.71786 0.06078 1.0082 0.0
C680 C 0.71686 0.03632 0.03745 0.0
C681 C 0.71747 0.0469 0.99097 0.0
C682 C 0.71692 1.02797 0.9968 0.0
C683 C 0.71724 1.00352 1.02596 0.0
C684 C 0.71782 0.99807 0.04922 0.0
C685 C 0.71688 1.02252 1.01997 0.0
C686 C 0.7174 1.01195 0.06644 0.0
C687 C 0.71687 0.03087 0.06062 0.0
H688 H 0.05047 0.70547 0.06358 0.0
H689 H 0.07091 0.7389 1.00703 0.0
H690 H 0.03985 0.73984 0.9906 0.0
H691 H 1.0066 0.73244 0.99309 0.0
H692 H 0.98577 0.6997 0.04996 0.0
H693 H 1.01716 0.69752 0.06565 0.0
C694 C 0.04812 0.71303 0.04773 0.0
C695 C 0.06308 0.72205 0.03657 0.0
C696 C 0.03011 0.71375 0.03848 0.0
C697 C 0.05977 0.73157 1.01584 0.0
C698 C 0.04196 0.73224 1.00649 0.0
C699 C 1.00896 0.7246 1.00874 0.0
C700 C 0.99386 0.71626 1.02032 0.0
C701 C 1.02701 0.72349 1.01772 0.0
C702 C 0.99713 0.70642 0.04082 0.0
C703 C 1.01508 0.70511 0.04977 0.0
H704 H 0.81643 0.55954 0.54062 0.0
H705 H 0.87472 0.57357 0.53632 0.0
H706 H 0.88118 0.54368 0.51737 0.0
H707 H 0.87002 0.51404 0.50061 0.0
H708 H 0.81156 0.5005 0.50437 0.0
H709 H 0.80544 0.52966 0.52494 0.0
C710 C 0.83054 0.55607 0.53547 0.0
C711 C 0.84504 0.56882 0.53975 0.0
C712 C 0.83412 0.53894 0.52445 0.0
C713 C 0.86332 0.56396 0.53338 0.0
C714 C 0.867 0.54692 0.52241 0.0
C715 C 0.85594 0.51751 0.50589 0.0
C716 C 0.84127 0.5051 0.50092 0.0
C717 C 0.85248 0.53439 0.51763 0.0
C718 C 0.82314 0.50968 0.50819 0.0
C719 C 0.8196 0.52641 0.51984 0.0
H720 H 0.56267 0.83776 0.54435 0.0
H721 H 0.54857 0.83822 0.47221 0.0
H722 H 0.51559 0.83978 0.48216 0.0
H723 H 0.49065 0.83942 0.51127 0.0
H724 H 0.50473 0.8372 0.58336 0.0
H725 H 0.53776 0.83798 0.57347 0.0
C726 C 0.55239 0.83811 0.53079 0.0
C727 C 0.55815 0.83778 0.50756 0.0
C728 C 0.5334 0.83867 0.53661 0.0
C729 C 0.54461 0.83866 0.49023 0.0
C730 C 0.5257 0.8394 0.4959 0.0
C731 C 0.50094 0.83901 0.52483 0.0
C732 C 0.49516 0.83816 0.54803 0.0
C733 C 0.51994 0.83915 0.51902 0.0
C734 C 0.50872 0.83805 0.56538 0.0
C735 C 0.52764 0.83836 0.55973 0.0
H736 H 0.19376 0.56468 0.51891 0.0
H737 H 0.25304 0.5565 0.51298 0.0
H738 H 0.25014 0.526 0.53135 0.0
H739 H 0.23105 0.50235 0.55076 0.0
H740 H 0.17173 0.51024 0.55667 0.0
H741 H 0.17436 0.54013 0.53661 0.0
C742 C 0.206 0.5561 0.52134 0.0
C743 C 0.2236 0.56292 0.51471 0.0
C744 C 0.20424 0.53858 0.53204 0.0
C745 C 0.23936 0.5517 0.51823 0.0
C746 C 0.23771 0.53423 0.52865 0.0
C747 C 0.21864 0.51045 0.54734 0.0
C748 C 0.20122 0.50406 0.55526 0.0
C749 C 0.22026 0.52762 0.53588 0.0
C750 C 0.18534 0.51493 0.55102 0.0
C751 C 0.18682 0.53199 0.53946 0.0
H752 H 0.53811 0.20216 0.57613 0.0
H753 H 0.57608 0.20247 0.51822 0.0
H754 H 0.54992 0.20248 0.49168 0.0
H755 H 0.51627 0.20282 0.48487 0.0
H756 H 0.47827 0.20157 0.54273 0.0
H757 H 0.50444 0.20146 0.56929 0.0
C758 C 0.54068 0.202 0.55771 0.0
C759 C 0.55907 0.20236 0.54923 0.0
C760 C 0.52556 0.2019 0.54251 0.0
C761 C 0.5621 0.20247 0.52526 0.0
C762 C 0.54713 0.20236 0.51005 0.0
C763 C 0.51369 0.20229 0.50328 0.0
C764 C 0.4953 0.20223 0.51175 0.0
C765 C 0.52881 0.20214 0.51847 0.0
C766 C 0.49227 0.20187 0.53571 0.0
C767 C 0.50723 0.20171 0.55093 0.0
H768 H 0.27885 0.26357 0.0682 0.0
H769 H 0.27519 0.21581 1.02274 0.0
H770 H 0.25595 0.23366 0.99637 0.0
H771 H 0.23938 0.26251 0.98665 0.0
H772 H 0.24207 0.30991 0.03265 0.0
H773 H 0.26206 0.29234 0.05866 0.0
C774 C 0.27372 0.25698 0.05264 0.0
C775 C 0.27856 0.23835 0.04751 0.0
C776 C 0.26236 0.26722 0.03771 0.0
C777 C 0.27199 0.2302 1.02701 0.0
C778 C 0.26084 0.24035 1.01197 0.0
C779 C 0.24449 0.26904 1.00227 0.0
C780 C 0.23929 0.28749 1.00769 0.0
C781 C 0.2559 0.25884 1.01717 0.0
C782 C 0.24575 0.29567 1.02819 0.0
C783 C 0.25724 0.28566 0.04301 0.0
H784 H 0.76474 0.26225 1.00249 0.0
H785 H 0.80175 0.21502 1.00684 0.0
H786 H 0.82305 0.23323 0.03062 0.0
H787 H 0.83119 0.26254 0.05023 0.0
H788 H 0.79436 0.30989 0.04584 0.0
H789 H 0.77301 0.2917 1.02195 0.0
C790 C 0.77753 0.256 1.0085 0.0
C791 C 0.78162 0.23729 1.00291 0.0
C792 C 0.78975 0.26657 1.02215 0.0
C793 C 0.79814 0.22931 1.01113 0.0
C794 C 0.81039 0.23975 1.02461 0.0
C795 C 0.81858 0.26893 0.04385 0.0
C796 C 0.8144 0.28755 0.04974 0.0
C797 C 0.80635 0.25839 0.03022 0.0
C798 C 0.79783 0.29553 0.04169 0.0
C799 C 0.78565 0.28517 1.02797 0.0
H800 H 0.79741 0.83418 0.05367 0.0
H801 H 0.75057 0.79666 0.04834 0.0
H802 H 0.76877 0.77577 1.0236 0.0
H803 H 0.79808 0.76807 1.00363 0.0
H804 H 0.8448 0.80576 1.00882 0.0
H805 H 0.82657 0.82665 0.03345 0.0
C806 C 0.79113 0.82151 0.04691 0.0
C807 C 0.77265 0.817 0.05282 0.0
C808 C 0.80168 0.80956 0.03273 0.0
C809 C 0.76482 0.80037 0.04424 0.0
C810 C 0.77519 0.78846 0.03001 0.0
C811 C 0.80421 0.78094 1.01 0.0
C812 C 0.82278 0.78533 1.0044 0.0
C813 C 0.79364 0.7929 1.02416 0.0
C814 C 0.83061 0.80192 1.01308 0.0
C815 C 0.82017 0.81393 1.02707 0.0
H816 H 0.23906 0.79757 0.07166 0.0
H817 H 0.2426 0.74961 1.02662 0.0
H818 H 0.2625 0.76715 1.00004 0.0
H819 H 0.279 0.79605 0.98974 0.0
H820 H 0.27446 0.84438 0.03419 0.0
H821 H 0.25528 0.82659 0.06112 0.0
C822 C 0.24433 0.79092 0.05612 0.0
C823 C 0.23939 0.77232 0.05113 0.0
C824 C 0.25568 0.80111 0.04088 0.0
C825 C 0.24607 0.76397 0.03075 0.0
C826 C 0.25751 0.77397 1.0156 0.0
C827 C 0.27368 0.80278 1.00519 0.0
C828 C 0.27828 0.82155 1.00988 0.0
C829 C 0.26236 0.79256 1.02046 0.0
C830 C 0.27147 0.82988 0.03025 0.0
C831 C 0.26035 0.81976 0.04561 0.0
H832 H 0.75751 0.72655 0.55658 0.0
H833 H 0.80378 0.76495 0.55348 0.0
H834 H 0.78614 0.7855 0.5282 0.0
H835 H 0.75752 0.79255 0.50695 0.0
H836 H 0.71138 0.75395 0.50993 0.0
H837 H 0.729 0.73352 0.53527 0.0
C838 C 0.76378 0.73934 0.5502 0.0
C839 C 0.78194 0.74419 0.55687 0.0
C840 C 0.75356 0.75108 0.53571 0.0
C841 C 0.78977 0.76098 0.54879 0.0
C842 C 0.77972 0.77269 0.53424 0.0
C843 C 0.75139 0.7796 0.51301 0.0
C844 C 0.73315 0.7748 0.50656 0.0
C845 C 0.76161 0.76788 0.52759 0.0
C846 C 0.7253 0.75809 0.51485 0.0
C847 C 0.7354 0.74634 0.52924 0.0
H848 H 0.26423 0.76219 0.49957 0.0
H849 H 0.30185 0.71543 0.50368 0.0
H850 H 0.3227 0.73369 0.52799 0.0
H851 H 0.3302 0.76284 0.54831 0.0
H852 H 0.29282 0.80976 0.54409 0.0
H853 H 0.27196 0.79157 0.51957 0.0
C854 C 0.27707 0.75606 0.50563 0.0
C855 C 0.28144 0.73745 0.49984 0.0
C856 C 0.28903 0.76666 0.51961 0.0
C857 C 0.29802 0.72963 0.50812 0.0
C858 C 0.31001 0.7401 0.52192 0.0
C859 C 0.31758 0.76915 0.54182 0.0
C860 C 0.3131 0.78764 0.54798 0.0
C861 C 0.30565 0.75861 0.52779 0.0
C862 C 0.29651 0.7955 0.53978 0.0
C863 C 0.28462 0.78513 0.52568 0.0
H864 H 0.29269 0.34853 0.5151 0.0
H865 H 0.2744 0.31493 0.5726 0.0
H866 H 0.29679 0.29073 0.56197 0.0
H867 H 0.32203 0.27934 0.53671 0.0
H868 H 0.33967 0.31274 0.4788 0.0
H869 H 0.31668 0.33652 0.48886 0.0
C870 C 0.29334 0.3358 0.52512 0.0
C871 C 0.28189 0.33367 0.54471 0.0
C872 C 0.30611 0.32185 0.51879 0.0
C873 C 0.28323 0.31714 0.55767 0.0
C874 C 0.29597 0.30322 0.55153 0.0
C875 C 0.32083 0.29184 0.52633 0.0
C876 C 0.33257 0.29428 0.50707 0.0
C877 C 0.3076 0.3055 0.53225 0.0
C878 C 0.33069 0.31043 0.49358 0.0
C879 C 0.31762 0.3241 0.4994 0.0
H880 H 0.77278 0.33655 0.54675 0.0
H881 H 0.7635 0.32605 0.47448 0.0
H882 H 0.741 0.30169 0.4841 0.0
H883 H 0.72268 0.28453 0.51297 0.0
H884 H 0.73074 0.29624 0.5852 0.0
H885 H 0.75501 0.31887 0.57564 0.0
C886 C 0.76579 0.32899 0.53309 0.0
C887 C 0.7698 0.33323 0.50992 0.0
C888 C 0.7526 0.31521 0.53873 0.0
C889 C 0.76087 0.32298 0.49246 0.0
C890 C 0.74787 0.30913 0.49794 0.0
C891 C 0.72969 0.29208 0.52663 0.0
C892 C 0.72479 0.28872 0.54977 0.0
C893 C 0.74343 0.30532 0.52101 0.0
C894 C 0.73432 0.29837 0.56725 0.0
C895 C 0.74812 0.31143 0.5618 0.0
H896 H 0.35571 0.20939 0.31092 0.0
H897 H 0.39938 0.17008 0.3259 0.0
H898 H 0.3979 0.15797 0.28653 0.0
H899 H 0.38384 0.15825 0.24798 0.0
H900 H 0.33919 0.19674 0.23392 0.0
H901 H 0.34145 0.20942 0.2728 0.0
C902 C 0.36478 0.19803 0.30569 0.0
C903 C 0.37757 0.19062 0.32143 0.0
C904 C 0.36372 0.19101 0.28314 0.0
C905 C 0.38951 0.17619 0.31412 0.0
C906 C 0.3886 0.16917 0.29163 0.0
C907 C 0.3745 0.16932 0.25347 0.0
C908 C 0.36141 0.17655 0.23794 0.0
C909 C 0.3757 0.17642 0.27602 0.0
C910 C 0.34962 0.19109 0.24531 0.0
C911 C 0.35079 0.19828 0.26763 0.0
H912 H 0.85408 0.35595 0.31252 0.0
H913 H 0.89275 0.40055 0.3273 0.0
H914 H 0.90429 0.39939 0.28762 0.0
H915 H 0.90347 0.38557 0.24872 0.0
H916 H 0.86552 0.34014 0.23472 0.0
H917 H 0.85369 0.34178 0.2741 0.0
C918 C 0.8652 0.36527 0.30718 0.0
C919 C 0.87257 0.37826 0.32295 0.0
C920 C 0.87186 0.36444 0.28442 0.0
C921 C 0.88668 0.39052 0.3155 0.0
C922 C 0.89336 0.38981 0.29283 0.0
C923 C 0.89272 0.37592 0.25433 0.0
C924 C 0.88537 0.36281 0.23867 0.0
C925 C 0.88607 0.3768 0.27714 0.0
C926 C 0.87125 0.35059 0.24622 0.0
C927 C 0.86454 0.35142 0.26882 0.0
H928 H 0.70358 0.89048 0.25078 0.0
H929 H 0.64682 0.89075 0.22719 0.0
H930 H 0.63593 0.88168 0.26551 0.0
H931 H 0.64252 0.87359 0.30563 0.0
H932 H 0.69922 0.87404 0.32958 0.0
H933 H 0.71016 0.88249 0.29109 0.0
C934 C 0.68884 0.88839 0.254 0.0
C935 C 0.67603 0.8913 0.23617 0.0
C936 C 0.68267 0.88324 0.2761 0.0
C937 C 0.65695 0.88879 0.24068 0.0
C938 C 0.65072 0.88353 0.26256 0.0
C939 C 0.65726 0.87573 0.30253 0.0
C940 C 0.67 0.87319 0.32055 0.0
C941 C 0.66345 0.8808 0.28042 0.0
C942 C 0.68909 0.87567 0.31602 0.0
C943 C 0.69537 0.88061 0.29402 0.0
H944 H 0.19596 0.65202 0.3021 0.0
H945 H 0.15806 0.69006 0.33594 0.0
H946 H 0.14729 0.70115 0.29857 0.0
H947 H 0.14851 0.69989 0.25621 0.0
H948 H 0.18645 0.66181 0.22248 0.0
H949 H 0.19733 0.6509 0.25983 0.0
C950 C 0.18524 0.66264 0.30128 0.0
C951 C 0.17778 0.67015 0.32177 0.0
C952 C 0.17915 0.66897 0.27975 0.0
C953 C 0.16414 0.68415 0.32043 0.0
C954 C 0.15791 0.69044 0.29907 0.0
C955 C 0.15907 0.68912 0.25706 0.0
C956 C 0.16664 0.68167 0.23658 0.0
C957 C 0.16529 0.68292 0.27861 0.0
C958 C 0.18053 0.66792 0.23797 0.0
C959 C 0.18669 0.6616 0.25932 0.0
H960 H 0.35591 0.90647 0.80164 0.0
H961 H 0.39227 0.86632 0.83333 0.0
H962 H 0.40265 0.85557 0.79537 0.0
H963 H 0.4018 0.85793 0.75317 0.0
H964 H 0.36558 0.89821 0.72148 0.0
H965 H 0.35473 0.90853 0.75942 0.0
C966 C 0.36618 0.89544 0.80022 0.0
C967 C 0.37335 0.88725 0.82028 0.0
C968 C 0.37211 0.88934 0.77835 0.0
C969 C 0.38641 0.87275 0.81816 0.0
C970 C 0.39243 0.86666 0.79647 0.0
C971 C 0.39161 0.86905 0.75459 0.0
C972 C 0.38456 0.87733 0.73453 0.0
C973 C 0.38544 0.87492 0.77645 0.0
C974 C 0.37112 0.89149 0.73663 0.0
C975 C 0.36498 0.89747 0.75832 0.0
H976 H 0.19999 0.3561 0.74523 0.0
H977 H 0.16134 0.40063 0.73123 0.0
H978 H 0.14974 0.39916 0.77086 0.0
H979 H 0.15044 0.38503 0.80947 0.0
H980 H 0.18835 0.33964 0.82263 0.0
H981 H 0.2003 0.34165 0.78334 0.0
C982 C 0.18887 0.36535 0.75073 0.0
C983 C 0.18151 0.3784 0.73519 0.0
C984 C 0.18215 0.36432 0.77344 0.0
C985 C 0.1674 0.39056 0.74284 0.0
C986 C 0.16067 0.38966 0.76548 0.0
C987 C 0.1612 0.37547 0.80369 0.0
C988 C 0.16852 0.36226 0.81909 0.0
C989 C 0.16792 0.37656 0.78092 0.0
C990 C 0.18266 0.35016 0.81133 0.0
C991 C 0.18943 0.35121 0.78879 0.0
H992 H 0.66894 0.20753 0.75194 0.0
H993 H 0.69568 0.1588 0.72303 0.0
H994 H 0.70008 0.14611 0.76162 0.0
H995 H 0.69728 0.14936 0.8036 0.0
H996 H 0.67065 0.19812 0.83262 0.0
H997 H 0.66526 0.21031 0.79397 0.0
C998 C 0.67551 0.19402 0.75409 0.0
C999 C 0.682 0.18413 0.73465 0.0
C1000 C 0.67811 0.18688 0.77634 0.0
C1001 C 0.69074 0.16678 0.73773 0.0
C1002 C 0.69321 0.15949 0.75978 0.0
C1003 C 0.69007 0.16254 0.80146 0.0
C1004 C 0.68438 0.17281 0.82098 0.0
C1005 C 0.68709 0.16949 0.77921 0.0
C1006 C 0.67535 0.19003 0.8179 0.0
C1007 C 0.67219 0.19697 0.79581 0.0
H1008 H 0.87248 0.64511 0.75576 0.0
H1009 H 0.87529 0.70196 0.73135 0.0
H1010 H 0.88366 0.71275 0.76985 0.0
H1011 H 0.89096 0.70598 0.81029 0.0
H1012 H 0.88882 0.64906 0.83441 0.0
H1013 H 0.8798 0.63833 0.79608 0.0
C1014 C 0.8751 0.65984 0.75878 0.0
C1015 C 0.87325 0.67268 0.74062 0.0
C1016 C 0.88012 0.66594 0.78091 0.0
C1017 C 0.87637 0.69178 0.74502 0.0
C1018 C 0.88127 0.69796 0.76702 0.0
C1019 C 0.88835 0.69125 0.8072 0.0
C1020 C 0.89059 0.67834 0.82518 0.0
C1021 C 0.88322 0.68517 0.78509 0.0
C1022 C 0.88741 0.65926 0.82081 0.0
C1023 C 0.88217 0.65313 0.79892 0.0
loop_
_geom_bond_atom_site_label_1
_geom_bond_atom_site_label_2
_geom_bond_distance
_geom_bond_site_symmetry_2
_ccdc_geom_bond_type
C0 C1 1.264 . S
C0 C5 1.479 . S
C0 C10 1.465 . S
C1 C0 1.264 . S
C1 C3 1.339 . S
C1 H28 0.931 . S
C2 C3 1.395 . S
C2 C4 1.320 . S
C3 C1 1.339 . S
C3 C2 1.395 . S
C3 H29 0.929 . S
C4 C2 1.320 . S
C4 C5 1.405 . S
C4 H30 0.930 . S
C5 C0 1.479 . S
C5 C4 1.405 . S
C5 H31 0.931 . S
U6 O7 2.454 . S
U6 O8 2.458 . S
U6 C9 2.984 . S
U6 C10 2.847 . S
U6 C23 2.882 . S
U6 O24 2.441 . S
U6 O25 2.420 . S
U6 O26 2.455 . S
U6 O27 2.449 . S
O7 U6 2.454 . S
O7 C9 1.353 . S
O8 U6 2.458 . S
O8 C9 1.286 . S
C9 U6 2.984 . S
C9 O7 1.353 . S
C9 O8 1.286 . S
C9 C11 1.363 . S
C10 C0 1.465 . S
C10 U6 2.847 . S
C10 O24 1.249 . S
C10 O25 1.202 . S
C11 C9 1.363 . S
C11 C13 1.408 . S
C11 C16 1.342 . S
C12 C13 1.310 . S
C12 C15 1.461 . S
C12 H32 0.932 . S
C13 C11 1.408 . S
C13 C12 1.310 . S
C13 H33 0.930 . S
C14 C15 1.474 . S
C14 C16 1.285 . S
C14 H34 0.929 1_554 S
C15 C12 1.461 . S
C15 C14 1.474 . S
C16 C11 1.342 . S
C16 C14 1.285 . S
C16 H35 0.930 . S
C17 C20 1.424 . S
C17 C22 1.245 . S
C17 C23 1.428 . S
C18 C21 1.260 . S
C18 C22 1.477 . S
C18 H36 0.932 1_554 S
C19 C20 1.384 . S
C19 C21 1.479 . S
C19 H37 0.929 . S
C20 C17 1.424 . S
C20 C19 1.384 . S
C20 H38 0.928 . S
C21 C18 1.260 . S
C21 C19 1.479 . S
C22 C17 1.245 . S
C22 C18 1.477 . S
C22 H39 0.932 . S
C23 U6 2.882 . S
C23 C17 1.428 . S
C23 O26 1.301 . S
C23 O27 1.282 . S
O24 U6 2.441 . S
O24 C10 1.249 . S
O25 U6 2.420 . S
O25 C10 1.202 . S
O26 U6 2.455 . S
O26 C23 1.301 . S
O27 U6 2.449 . S
O27 C23 1.282 . S
H28 C1 0.931 . S
H29 C3 0.929 . S
H30 C4 0.930 . S
H31 C5 0.931 . S
H32 C12 0.932 . S
H33 C13 0.930 . S
H34 C14 0.929 1_556 S
H35 C16 0.930 . S
H36 C18 0.932 1_556 S
H37 C19 0.929 . S
H38 C20 0.928 . S
H39 C22 0.932 . S
C40 C41 1.264 . S
C40 C45 1.479 . S
C40 C50 1.465 . S
C41 C40 1.264 . S
C41 C43 1.339 . S
C41 H68 0.931 . S
C42 C43 1.395 . S
C42 C44 1.320 . S
C43 C41 1.339 . S
C43 C42 1.395 . S
C43 H69 0.929 . S
C44 C42 1.320 . S
C44 C45 1.405 . S
C44 H70 0.930 . S
C45 C40 1.479 . S
C45 C44 1.405 . S
C45 H71 0.931 . S
U46 O47 2.454 . S
U46 O48 2.458 . S
U46 C49 2.984 . S
U46 C50 2.847 . S
U46 C63 2.882 . S
U46 O64 2.441 . S
U46 O65 2.420 . S
U46 O66 2.455 . S
U46 O67 2.449 . S
O47 U46 2.454 . S
O47 C49 1.353 . S
O48 U46 2.458 . S
O48 C49 1.286 . S
C49 U46 2.984 . S
C49 O47 1.353 . S
C49 O48 1.286 . S
C49 C51 1.363 . S
C50 C40 1.465 . S
C50 U46 2.847 . S
C50 O64 1.249 . S
C50 O65 1.202 . S
C51 C49 1.363 . S
C51 C53 1.408 . S
C51 C56 1.342 . S
C52 C53 1.310 . S
C52 C55 1.461 . S
C52 H72 0.932 . S
C53 C51 1.408 . S
C53 C52 1.310 . S
C53 H73 0.930 . S
C54 C55 1.474 . S
C54 C56 1.285 . S
C54 H74 0.929 1_554 S
C55 C52 1.461 . S
C55 C54 1.474 . S
C56 C51 1.342 . S
C56 C54 1.285 . S
C56 H75 0.930 . S
C57 C60 1.424 . S
C57 C62 1.245 . S
C57 C63 1.428 . S
C58 C61 1.260 . S
C58 C62 1.477 . S
C58 H76 0.932 1_554 S
C59 C60 1.384 . S
C59 C61 1.479 . S
C59 H77 0.929 . S
C60 C57 1.424 . S
C60 C59 1.384 . S
C60 H78 0.928 . S
C61 C58 1.260 . S
C61 C59 1.479 . S
C62 C57 1.245 . S
C62 C58 1.477 . S
C62 H79 0.932 . S
C63 U46 2.882 . S
C63 C57 1.428 . S
C63 O66 1.301 . S
C63 O67 1.282 . S
O64 U46 2.441 . S
O64 C50 1.249 . S
O65 U46 2.420 . S
O65 C50 1.202 . S
O66 U46 2.455 . S
O66 C63 1.301 . S
O67 U46 2.449 . S
O67 C63 1.282 . S
H68 C41 0.931 . S
H69 C43 0.929 . S
H70 C44 0.930 . S
H71 C45 0.931 . S
H72 C52 0.932 . S
H73 C53 0.930 . S
H74 C54 0.929 1_556 S
H75 C56 0.930 . S
H76 C58 0.932 1_556 S
H77 C59 0.929 . S
H78 C60 0.928 . S
H79 C62 0.932 . S
C80 C81 1.264 . S
C80 C85 1.479 . S
C80 C90 1.465 . S
C81 C80 1.264 . S
C81 C83 1.339 . S
C81 H108 0.931 . S
C82 C83 1.395 . S
C82 C84 1.320 . S
C83 C81 1.339 . S
C83 C82 1.395 . S
C83 H109 0.929 . S
C84 C82 1.320 . S
C84 C85 1.405 . S
C84 H110 0.930 . S
C85 C80 1.479 . S
C85 C84 1.405 . S
C85 H111 0.931 . S
U86 O87 2.454 . S
U86 O88 2.458 . S
U86 C89 2.984 . S
U86 C90 2.847 . S
U86 C103 2.882 . S
U86 O104 2.441 . S
U86 O105 2.420 . S
U86 O106 2.455 . S
U86 O107 2.449 . S
O87 U86 2.454 . S
O87 C89 1.353 . S
O88 U86 2.458 . S
O88 C89 1.286 . S
C89 U86 2.984 . S
C89 O87 1.353 . S
C89 O88 1.286 . S
C89 C91 1.363 . S
C90 C80 1.465 . S
C90 U86 2.847 . S
C90 O104 1.249 . S
C90 O105 1.202 . S
C91 C89 1.363 . S
C91 C93 1.408 . S
C91 C96 1.342 . S
C92 C93 1.310 . S
C92 C95 1.461 . S
C92 H112 0.932 . S
C93 C91 1.408 . S
C93 C92 1.310 . S
C93 H113 0.930 . S
C94 C95 1.474 . S
C94 C96 1.285 . S
C94 H114 0.929 1_554 S
C95 C92 1.461 . S
C95 C94 1.474 . S
C96 C91 1.342 . S
C96 C94 1.285 . S
C96 H115 0.930 . S
C97 C100 1.424 . S
C97 C102 1.245 . S
C97 C103 1.428 . S
C98 C101 1.260 . S
C98 C102 1.477 . S
C98 H116 0.932 1_554 S
C99 C100 1.384 . S
C99 C101 1.479 . S
C99 H117 0.929 . S
C100 C97 1.424 . S
C100 C99 1.384 . S
C100 H118 0.928 . S
C101 C98 1.260 . S
C101 C99 1.479 . S
C102 C97 1.245 . S
C102 C98 1.477 . S
C102 H119 0.932 . S
C103 U86 2.882 . S
C103 C97 1.428 . S
C103 O106 1.301 . S
C103 O107 1.282 . S
O104 U86 2.441 . S
O104 C90 1.249 . S
O105 U86 2.420 . S
O105 C90 1.202 . S
O106 U86 2.455 . S
O106 C103 1.301 . S
O107 U86 2.449 . S
O107 C103 1.282 . S
H108 C81 0.931 . S
H109 C83 0.929 . S
H110 C84 0.930 . S
H111 C85 0.931 . S
H112 C92 0.932 . S
H113 C93 0.930 . S
H114 C94 0.929 1_556 S
H115 C96 0.930 . S
H116 C98 0.932 1_556 S
H117 C99 0.929 . S
H118 C100 0.928 . S
H119 C102 0.932 . S
C120 C121 1.264 . S
C120 C125 1.479 . S
C120 C130 1.465 . S
C121 C120 1.264 . S
C121 C123 1.339 . S
C121 H148 0.931 . S
C122 C123 1.395 . S
C122 C124 1.320 . S
C123 C121 1.339 . S
C123 C122 1.395 . S
C123 H149 0.929 . S
C124 C122 1.320 . S
C124 C125 1.405 . S
C124 H150 0.930 . S
C125 C120 1.479 . S
C125 C124 1.405 . S
C125 H151 0.931 . S
U126 O127 2.454 . S
U126 O128 2.458 . S
U126 C129 2.984 . S
U126 C130 2.847 . S
U126 C143 2.882 . S
U126 O144 2.441 . S
U126 O145 2.420 . S
U126 O146 2.455 . S
U126 O147 2.449 . S
O127 U126 2.454 . S
O127 C129 1.353 . S
O128 U126 2.458 . S
O128 C129 1.286 . S
C129 U126 2.984 . S
C129 O127 1.353 . S
C129 O128 1.286 . S
C129 C131 1.363 . S
C130 C120 1.465 . S
C130 U126 2.847 . S
C130 O144 1.249 . S
C130 O145 1.202 . S
C131 C129 1.363 . S
C131 C133 1.408 . S
C131 C136 1.342 . S
C132 C133 1.310 . S
C132 C135 1.461 . S
C132 H152 0.932 . S
C133 C131 1.408 . S
C133 C132 1.310 . S
C133 H153 0.930 . S
C134 C135 1.474 . S
C134 C136 1.285 . S
C134 H154 0.929 1_554 S
C135 C132 1.461 . S
C135 C134 1.474 . S
C136 C131 1.342 . S
C136 C134 1.285 . S
C136 H155 0.930 . S
C137 C140 1.424 . S
C137 C142 1.245 . S
C137 C143 1.428 . S
C138 C141 1.260 . S
C138 C142 1.477 . S
C138 H156 0.932 1_554 S
C139 C140 1.384 . S
C139 C141 1.479 . S
C139 H157 0.929 . S
C140 C137 1.424 . S
C140 C139 1.384 . S
C140 H158 0.928 . S
C141 C138 1.260 . S
C141 C139 1.479 . S
C142 C137 1.245 . S
C142 C138 1.477 . S
C142 H159 0.932 . S
C143 U126 2.882 . S
C143 C137 1.428 . S
C143 O146 1.301 . S
C143 O147 1.282 . S
O144 U126 2.441 . S
O144 C130 1.249 . S
O145 U126 2.420 . S
O145 C130 1.202 . S
O146 U126 2.455 . S
O146 C143 1.301 . S
O147 U126 2.449 . S
O147 C143 1.282 . S
H148 C121 0.931 . S
H149 C123 0.929 . S
H150 C124 0.930 . S
H151 C125 0.931 . S
H152 C132 0.932 . S
H153 C133 0.930 . S
H154 C134 0.929 1_556 S
H155 C136 0.930 . S
H156 C138 0.932 1_556 S
H157 C139 0.929 . S
H158 C140 0.928 . S
H159 C142 0.932 . S
C160 C161 1.264 . S
C160 C165 1.479 . S
C160 C170 1.465 . S
C161 C160 1.264 . S
C161 C163 1.339 . S
C161 H188 0.931 . S
C162 C163 1.395 . S
C162 C164 1.320 . S
C163 C161 1.339 . S
C163 C162 1.395 . S
C163 H189 0.929 . S
C164 C162 1.320 . S
C164 C165 1.405 . S
C164 H190 0.930 . S
C165 C160 1.479 . S
C165 C164 1.405 . S
C165 H191 0.931 . S
U166 O167 2.454 . S
U166 O168 2.458 . S
U166 C169 2.984 . S
U166 C170 2.847 . S
U166 C183 2.882 . S
U166 O184 2.441 . S
U166 O185 2.420 . S
U166 O186 2.455 . S
U166 O187 2.449 . S
O167 U166 2.454 . S
O167 C169 1.353 . S
O168 U166 2.458 . S
O168 C169 1.286 . S
C169 U166 2.984 . S
C169 O167 1.353 . S
C169 O168 1.286 . S
C169 C171 1.363 . S
C170 C160 1.465 . S
C170 U166 2.847 . S
C170 O184 1.249 . S
C170 O185 1.202 . S
C171 C169 1.363 . S
C171 C173 1.408 . S
C171 C176 1.342 . S
C172 C173 1.310 . S
C172 C175 1.461 . S
C172 H192 0.932 . S
C173 C171 1.408 . S
C173 C172 1.310 . S
C173 H193 0.930 . S
C174 C175 1.474 . S
C174 C176 1.285 . S
C174 H194 0.929 1_556 S
C175 C172 1.461 . S
C175 C174 1.474 . S
C176 C171 1.342 . S
C176 C174 1.285 . S
C176 H195 0.930 . S
C177 C180 1.424 . S
C177 C182 1.245 . S
C177 C183 1.428 . S
C178 C181 1.260 . S
C178 C182 1.477 . S
C178 H196 0.932 1_556 S
C179 C180 1.384 . S
C179 C181 1.479 . S
C179 H197 0.929 . S
C180 C177 1.424 . S
C180 C179 1.384 . S
C180 H198 0.928 . S
C181 C178 1.260 . S
C181 C179 1.479 . S
C182 C177 1.245 . S
C182 C178 1.477 . S
C182 H199 0.932 . S
C183 U166 2.882 . S
C183 C177 1.428 . S
C183 O186 1.301 . S
C183 O187 1.282 . S
O184 U166 2.441 . S
O184 C170 1.249 . S
O185 U166 2.420 . S
O185 C170 1.202 . S
O186 U166 2.455 . S
O186 C183 1.301 . S
O187 U166 2.449 . S
O187 C183 1.282 . S
H188 C161 0.931 . S
H189 C163 0.929 . S
H190 C164 0.930 . S
H191 C165 0.931 . S
H192 C172 0.932 . S
H193 C173 0.930 . S
H194 C174 0.929 1_554 S
H195 C176 0.930 . S
H196 C178 0.932 1_554 S
H197 C179 0.929 . S
H198 C180 0.928 . S
H199 C182 0.932 . S
C200 C201 1.264 . S
C200 C205 1.479 . S
C200 C210 1.465 . S
C201 C200 1.264 . S
C201 C203 1.339 . S
C201 H228 0.931 . S
C202 C203 1.395 . S
C202 C204 1.320 . S
C203 C201 1.339 . S
C203 C202 1.395 . S
C203 H229 0.929 . S
C204 C202 1.320 . S
C204 C205 1.405 . S
C204 H230 0.930 . S
C205 C200 1.479 . S
C205 C204 1.405 . S
C205 H231 0.931 . S
U206 O207 2.454 . S
U206 O208 2.458 . S
U206 C209 2.984 . S
U206 C210 2.847 . S
U206 C223 2.882 . S
U206 O224 2.441 . S
U206 O225 2.420 . S
U206 O226 2.455 . S
U206 O227 2.449 . S
O207 U206 2.454 . S
O207 C209 1.353 . S
O208 U206 2.458 . S
O208 C209 1.286 . S
C209 U206 2.984 . S
C209 O207 1.353 . S
C209 O208 1.286 . S
C209 C211 1.363 . S
C210 C200 1.465 . S
C210 U206 2.847 . S
C210 O224 1.249 . S
C210 O225 1.202 . S
C211 C209 1.363 . S
C211 C213 1.408 . S
C211 C216 1.342 . S
C212 C213 1.310 . S
C212 C215 1.461 . S
C212 H232 0.932 . S
C213 C211 1.408 . S
C213 C212 1.310 . S
C213 H233 0.930 . S
C214 C215 1.474 . S
C214 C216 1.285 . S
C214 H234 0.929 1_556 S
C215 C212 1.461 . S
C215 C214 1.474 . S
C216 C211 1.342 . S
C216 C214 1.285 . S
C216 H235 0.930 . S
C217 C220 1.424 . S
C217 C222 1.245 . S
C217 C223 1.428 . S
C218 C221 1.260 . S
C218 C222 1.477 . S
C218 H236 0.932 1_556 S
C219 C220 1.384 . S
C219 C221 1.479 . S
C219 H237 0.929 . S
C220 C217 1.424 . S
C220 C219 1.384 . S
C220 H238 0.928 . S
C221 C218 1.260 . S
C221 C219 1.479 . S
C222 C217 1.245 . S
C222 C218 1.477 . S
C222 H239 0.932 . S
C223 U206 2.882 . S
C223 C217 1.428 . S
C223 O226 1.301 . S
C223 O227 1.282 . S
O224 U206 2.441 . S
O224 C210 1.249 . S
O225 U206 2.420 . S
O225 C210 1.202 . S
O226 U206 2.455 . S
O226 C223 1.301 . S
O227 U206 2.449 . S
O227 C223 1.282 . S
H228 C201 0.931 . S
H229 C203 0.929 . S
H230 C204 0.930 . S
H231 C205 0.931 . S
H232 C212 0.932 . S
H233 C213 0.930 . S
H234 C214 0.929 1_554 S
H235 C216 0.930 . S
H236 C218 0.932 1_554 S
H237 C219 0.929 . S
H238 C220 0.928 . S
H239 C222 0.932 . S
C240 C241 1.264 . S
C240 C245 1.479 . S
C240 C250 1.465 . S
C241 C240 1.264 . S
C241 C243 1.339 . S
C241 H268 0.931 . S
C242 C243 1.395 . S
C242 C244 1.320 . S
C243 C241 1.339 . S
C243 C242 1.395 . S
C243 H269 0.929 . S
C244 C242 1.320 . S
C244 C245 1.405 . S
C244 H270 0.930 . S
C245 C240 1.479 . S
C245 C244 1.405 . S
C245 H271 0.931 . S
U246 O247 2.454 . S
U246 O248 2.458 . S
U246 C249 2.984 . S
U246 C250 2.847 . S
U246 C263 2.882 . S
U246 O264 2.441 . S
U246 O265 2.420 . S
U246 O266 2.455 . S
U246 O267 2.449 . S
O247 U246 2.454 . S
O247 C249 1.353 . S
O248 U246 2.458 . S
O248 C249 1.286 . S
C249 U246 2.984 . S
C249 O247 1.353 . S
C249 O248 1.286 . S
C249 C251 1.363 . S
C250 C240 1.465 . S
C250 U246 2.847 . S
C250 O264 1.249 . S
C250 O265 1.202 . S
C251 C249 1.363 . S
C251 C253 1.408 . S
C251 C256 1.342 . S
C252 C253 1.310 . S
C252 C255 1.461 . S
C252 H272 0.932 . S
C253 C251 1.408 . S
C253 C252 1.310 . S
C253 H273 0.930 . S
C254 C255 1.474 . S
C254 C256 1.285 . S
C254 H274 0.929 1_556 S
C255 C252 1.461 . S
C255 C254 1.474 . S
C256 C251 1.342 . S
C256 C254 1.285 . S
C256 H275 0.930 . S
C257 C260 1.424 . S
C257 C262 1.245 . S
C257 C263 1.428 . S
C258 C261 1.260 . S
C258 C262 1.477 . S
C258 H276 0.932 1_556 S
C259 C260 1.384 . S
C259 C261 1.479 . S
C259 H277 0.929 . S
C260 C257 1.424 . S
C260 C259 1.384 . S
C260 H278 0.928 . S
C261 C258 1.260 . S
C261 C259 1.479 . S
C262 C257 1.245 . S
C262 C258 1.477 . S
C262 H279 0.932 . S
C263 U246 2.882 . S
C263 C257 1.428 . S
C263 O266 1.301 . S
C263 O267 1.282 . S
O264 U246 2.441 . S
O264 C250 1.249 . S
O265 U246 2.420 . S
O265 C250 1.202 . S
O266 U246 2.455 . S
O266 C263 1.301 . S
O267 U246 2.449 . S
O267 C263 1.282 . S
H268 C241 0.931 . S
H269 C243 0.929 . S
H270 C244 0.930 . S
H271 C245 0.931 . S
H272 C252 0.932 . S
H273 C253 0.930 . S
H274 C254 0.929 1_554 S
H275 C256 0.930 . S
H276 C258 0.932 1_554 S
H277 C259 0.929 . S
H278 C260 0.928 . S
H279 C262 0.932 . S
C280 C281 1.264 . S
C280 C285 1.479 . S
C280 C290 1.465 . S
C281 C280 1.264 . S
C281 C283 1.339 . S
C281 H308 0.931 . S
C282 C283 1.395 . S
C282 C284 1.320 . S
C283 C281 1.339 . S
C283 C282 1.395 . S
C283 H309 0.929 . S
C284 C282 1.320 . S
C284 C285 1.405 . S
C284 H310 0.930 . S
C285 C280 1.479 . S
C285 C284 1.405 . S
C285 H311 0.931 . S
U286 O287 2.454 . S
U286 O288 2.458 . S
U286 C289 2.984 . S
U286 C290 2.847 . S
U286 C303 2.882 . S
U286 O304 2.441 . S
U286 O305 2.420 . S
U286 O306 2.455 . S
U286 O307 2.449 . S
O287 U286 2.454 . S
O287 C289 1.353 . S
O288 U286 2.458 . S
O288 C289 1.286 . S
C289 U286 2.984 . S
C289 O287 1.353 . S
C289 O288 1.286 . S
C289 C291 1.363 . S
C290 C280 1.465 . S
C290 U286 2.847 . S
C290 O304 1.249 . S
C290 O305 1.202 . S
C291 C289 1.363 . S
C291 C293 1.408 . S
C291 C296 1.342 . S
C292 C293 1.310 . S
C292 C295 1.461 . S
C292 H312 0.932 . S
C293 C291 1.408 . S
C293 C292 1.310 . S
C293 H313 0.930 . S
C294 C295 1.474 . S
C294 C296 1.285 . S
C294 H314 0.929 1_556 S
C295 C292 1.461 . S
C295 C294 1.474 . S
C296 C291 1.342 . S
C296 C294 1.285 . S
C296 H315 0.930 . S
C297 C300 1.424 . S
C297 C302 1.245 . S
C297 C303 1.428 . S
C298 C301 1.260 . S
C298 C302 1.477 . S
C298 H316 0.932 1_556 S
C299 C300 1.384 . S
C299 C301 1.479 . S
C299 H317 0.929 . S
C300 C297 1.424 . S
C300 C299 1.384 . S
C300 H318 0.928 . S
C301 C298 1.260 . S
C301 C299 1.479 . S
C302 C297 1.245 . S
C302 C298 1.477 . S
C302 H319 0.932 . S
C303 U286 2.882 . S
C303 C297 1.428 . S
C303 O306 1.301 . S
C303 O307 1.282 . S
O304 U286 2.441 . S
O304 C290 1.249 . S
O305 U286 2.420 . S
O305 C290 1.202 . S
O306 U286 2.455 . S
O306 C303 1.301 . S
O307 U286 2.449 . S
O307 C303 1.282 . S
H308 C281 0.931 . S
H309 C283 0.929 . S
H310 C284 0.930 . S
H311 C285 0.931 . S
H312 C292 0.932 . S
H313 C293 0.930 . S
H314 C294 0.929 1_554 S
H315 C296 0.930 . S
H316 C298 0.932 1_554 S
H317 C299 0.929 . S
H318 C300 0.928 . S
H319 C302 0.932 . S
C320 C321 1.264 . S
C320 C325 1.479 . S
C320 C330 1.465 . S
C321 C320 1.264 . S
C321 C323 1.339 . S
C321 H348 0.931 . S
C322 C323 1.395 . S
C322 C324 1.320 . S
C323 C321 1.339 . S
C323 C322 1.395 . S
C323 H349 0.929 . S
C324 C322 1.320 . S
C324 C325 1.405 . S
C324 H350 0.930 . S
C325 C320 1.479 . S
C325 C324 1.405 . S
C325 H351 0.931 . S
U326 O327 2.454 . S
U326 O328 2.458 . S
U326 C329 2.984 . S
U326 C330 2.847 . S
U326 C343 2.882 . S
U326 O344 2.441 . S
U326 O345 2.420 . S
U326 O346 2.455 . S
U326 O347 2.449 . S
O327 U326 2.454 . S
O327 C329 1.353 . S
O328 U326 2.458 . S
O328 C329 1.286 . S
C329 U326 2.984 . S
C329 O327 1.353 . S
C329 O328 1.286 . S
C329 C331 1.363 . S
C330 C320 1.465 . S
C330 U326 2.847 . S
C330 O344 1.249 . S
C330 O345 1.202 . S
C331 C329 1.363 . S
C331 C333 1.408 . S
C331 C336 1.342 . S
C332 C333 1.310 . S
C332 C335 1.461 . S
C332 H352 0.932 . S
C333 C331 1.408 . S
C333 C332 1.310 . S
C333 H353 0.930 . S
C334 C335 1.474 . S
C334 C336 1.285 . S
C334 H354 0.929 . S
C335 C332 1.461 . S
C335 C334 1.474 . S
C336 C331 1.342 . S
C336 C334 1.285 . S
C336 H355 0.930 . S
C337 C340 1.424 . S
C337 C342 1.245 . S
C337 C343 1.428 . S
C338 C341 1.260 . S
C338 C342 1.477 . S
C338 H356 0.932 . S
C339 C340 1.384 . S
C339 C341 1.479 . S
C339 H357 0.929 . S
C340 C337 1.424 . S
C340 C339 1.384 . S
C340 H358 0.928 . S
C341 C338 1.260 . S
C341 C339 1.479 . S
C342 C337 1.245 . S
C342 C338 1.477 . S
C342 H359 0.932 . S
C343 U326 2.882 . S
C343 C337 1.428 . S
C343 O346 1.301 . S
C343 O347 1.282 . S
O344 U326 2.441 . S
O344 C330 1.249 . S
O345 U326 2.420 . S
O345 C330 1.202 . S
O346 U326 2.455 . S
O346 C343 1.301 . S
O347 U326 2.449 . S
O347 C343 1.282 . S
H348 C321 0.931 . S
H349 C323 0.929 . S
H350 C324 0.930 . S
H351 C325 0.931 . S
H352 C332 0.932 . S
H353 C333 0.930 . S
H354 C334 0.929 . S
H355 C336 0.930 . S
H356 C338 0.932 . S
H357 C339 0.929 . S
H358 C340 0.928 . S
H359 C342 0.932 . S
C360 C361 1.264 . S
C360 C365 1.479 . S
C360 C370 1.465 . S
C361 C360 1.264 . S
C361 C363 1.339 . S
C361 H388 0.931 . S
C362 C363 1.395 . S
C362 C364 1.320 . S
C363 C361 1.339 . S
C363 C362 1.395 . S
C363 H389 0.929 . S
C364 C362 1.320 . S
C364 C365 1.405 . S
C364 H390 0.930 . S
C365 C360 1.479 . S
C365 C364 1.405 . S
C365 H391 0.931 . S
U366 O367 2.454 . S
U366 O368 2.458 . S
U366 C369 2.984 . S
U366 C370 2.847 . S
U366 C383 2.882 . S
U366 O384 2.441 . S
U366 O385 2.420 . S
U366 O386 2.455 . S
U366 O387 2.449 . S
O367 U366 2.454 . S
O367 C369 1.353 . S
O368 U366 2.458 . S
O368 C369 1.286 . S
C369 U366 2.984 . S
C369 O367 1.353 . S
C369 O368 1.286 . S
C369 C371 1.363 . S
C370 C360 1.465 . S
C370 U366 2.847 . S
C370 O384 1.249 . S
C370 O385 1.202 . S
C371 C369 1.363 . S
C371 C373 1.408 . S
C371 C376 1.342 . S
C372 C373 1.310 . S
C372 C375 1.461 . S
C372 H392 0.932 . S
C373 C371 1.408 . S
C373 C372 1.310 . S
C373 H393 0.930 . S
C374 C375 1.474 . S
C374 C376 1.285 . S
C374 H394 0.929 . S
C375 C372 1.461 . S
C375 C374 1.474 . S
C376 C371 1.342 . S
C376 C374 1.285 . S
C376 H395 0.930 . S
C377 C380 1.424 . S
C377 C382 1.245 . S
C377 C383 1.428 . S
C378 C381 1.260 . S
C378 C382 1.477 . S
C378 H396 0.932 . S
C379 C380 1.384 . S
C379 C381 1.479 . S
C379 H397 0.929 . S
C380 C377 1.424 . S
C380 C379 1.384 . S
C380 H398 0.928 . S
C381 C378 1.260 . S
C381 C379 1.479 . S
C382 C377 1.245 . S
C382 C378 1.477 . S
C382 H399 0.932 . S
C383 U366 2.882 . S
C383 C377 1.428 . S
C383 O386 1.301 . S
C383 O387 1.282 . S
O384 U366 2.441 . S
O384 C370 1.249 . S
O385 U366 2.420 . S
O385 C370 1.202 . S
O386 U366 2.455 . S
O386 C383 1.301 . S
O387 U366 2.449 . S
O387 C383 1.282 . S
H388 C361 0.931 . S
H389 C363 0.929 . S
H390 C364 0.930 . S
H391 C365 0.931 . S
H392 C372 0.932 . S
H393 C373 0.930 . S
H394 C374 0.929 . S
H395 C376 0.930 . S
H396 C378 0.932 . S
H397 C379 0.929 . S
H398 C380 0.928 . S
H399 C382 0.932 . S
C400 C401 1.264 . S
C400 C405 1.479 . S
C400 C410 1.465 . S
C401 C400 1.264 . S
C401 C403 1.339 . S
C401 H428 0.931 . S
C402 C403 1.395 . S
C402 C404 1.320 . S
C403 C401 1.339 . S
C403 C402 1.395 . S
C403 H429 0.929 . S
C404 C402 1.320 . S
C404 C405 1.405 . S
C404 H430 0.930 . S
C405 C400 1.479 . S
C405 C404 1.405 . S
C405 H431 0.931 . S
U406 O407 2.454 . S
U406 O408 2.458 . S
U406 C409 2.984 . S
U406 C410 2.847 . S
U406 C423 2.882 . S
U406 O424 2.441 . S
U406 O425 2.420 . S
U406 O426 2.455 . S
U406 O427 2.449 . S
O407 U406 2.454 . S
O407 C409 1.353 . S
O408 U406 2.458 . S
O408 C409 1.286 . S
C409 U406 2.984 . S
C409 O407 1.353 . S
C409 O408 1.286 . S
C409 C411 1.363 . S
C410 C400 1.465 . S
C410 U406 2.847 . S
C410 O424 1.249 . S
C410 O425 1.202 . S
C411 C409 1.363 . S
C411 C413 1.408 . S
C411 C416 1.342 . S
C412 C413 1.310 . S
C412 C415 1.461 . S
C412 H432 0.932 . S
C413 C411 1.408 . S
C413 C412 1.310 . S
C413 H433 0.930 . S
C414 C415 1.474 . S
C414 C416 1.285 . S
C414 H434 0.929 . S
C415 C412 1.461 . S
C415 C414 1.474 . S
C416 C411 1.342 . S
C416 C414 1.285 . S
C416 H435 0.930 . S
C417 C420 1.424 . S
C417 C422 1.245 . S
C417 C423 1.428 . S
C418 C421 1.260 . S
C418 C422 1.477 . S
C418 H436 0.932 . S
C419 C420 1.384 . S
C419 C421 1.479 . S
C419 H437 0.929 . S
C420 C417 1.424 . S
C420 C419 1.384 . S
C420 H438 0.928 . S
C421 C418 1.260 . S
C421 C419 1.479 . S
C422 C417 1.245 . S
C422 C418 1.477 . S
C422 H439 0.932 . S
C423 U406 2.882 . S
C423 C417 1.428 . S
C423 O426 1.301 . S
C423 O427 1.282 . S
O424 U406 2.441 . S
O424 C410 1.249 . S
O425 U406 2.420 . S
O425 C410 1.202 . S
O426 U406 2.455 . S
O426 C423 1.301 . S
O427 U406 2.449 . S
O427 C423 1.282 . S
H428 C401 0.931 . S
H429 C403 0.929 . S
H430 C404 0.930 . S
H431 C405 0.931 . S
H432 C412 0.932 . S
H433 C413 0.930 . S
H434 C414 0.929 . S
H435 C416 0.930 . S
H436 C418 0.932 . S
H437 C419 0.929 . S
H438 C420 0.928 . S
H439 C422 0.932 . S
C440 C441 1.264 . S
C440 C445 1.479 . S
C440 C450 1.465 . S
C441 C440 1.264 . S
C441 C443 1.339 . S
C441 H468 0.931 . S
C442 C443 1.395 . S
C442 C444 1.320 . S
C443 C441 1.339 . S
C443 C442 1.395 . S
C443 H469 0.929 . S
C444 C442 1.320 . S
C444 C445 1.405 . S
C444 H470 0.930 . S
C445 C440 1.479 . S
C445 C444 1.405 . S
C445 H471 0.931 . S
U446 O447 2.454 . S
U446 O448 2.458 . S
U446 C449 2.984 . S
U446 C450 2.847 . S
U446 C463 2.882 . S
U446 O464 2.441 . S
U446 O465 2.420 . S
U446 O466 2.455 . S
U446 O467 2.449 . S
O447 U446 2.454 . S
O447 C449 1.353 . S
O448 U446 2.458 . S
O448 C449 1.286 . S
C449 U446 2.984 . S
C449 O447 1.353 . S
C449 O448 1.286 . S
C449 C451 1.363 . S
C450 C440 1.465 . S
C450 U446 2.847 . S
C450 O464 1.249 . S
C450 O465 1.202 . S
C451 C449 1.363 . S
C451 C453 1.408 . S
C451 C456 1.342 . S
C452 C453 1.310 . S
C452 C455 1.461 . S
C452 H472 0.932 . S
C453 C451 1.408 . S
C453 C452 1.310 . S
C453 H473 0.930 . S
C454 C455 1.474 . S
C454 C456 1.285 . S
C454 H474 0.929 . S
C455 C452 1.461 . S
C455 C454 1.474 . S
C456 C451 1.342 . S
C456 C454 1.285 . S
C456 H475 0.930 . S
C457 C460 1.424 . S
C457 C462 1.245 . S
C457 C463 1.428 . S
C458 C461 1.260 . S
C458 C462 1.477 . S
C458 H476 0.932 . S
C459 C460 1.384 . S
C459 C461 1.479 . S
C459 H477 0.929 . S
C460 C457 1.424 . S
C460 C459 1.384 . S
C460 H478 0.928 . S
C461 C458 1.260 . S
C461 C459 1.479 . S
C462 C457 1.245 . S
C462 C458 1.477 . S
C462 H479 0.932 . S
C463 U446 2.882 . S
C463 C457 1.428 . S
C463 O466 1.301 . S
C463 O467 1.282 . S
O464 U446 2.441 . S
O464 C450 1.249 . S
O465 U446 2.420 . S
O465 C450 1.202 . S
O466 U446 2.455 . S
O466 C463 1.301 . S
O467 U446 2.449 . S
O467 C463 1.282 . S
H468 C441 0.931 . S
H469 C443 0.929 . S
H470 C444 0.930 . S
H471 C445 0.931 . S
H472 C452 0.932 . S
H473 C453 0.930 . S
H474 C454 0.929 . S
H475 C456 0.930 . S
H476 C458 0.932 . S
H477 C459 0.929 . S
H478 C460 0.928 . S
H479 C462 0.932 . S
C480 C481 1.264 . S
C480 C485 1.479 . S
C480 C490 1.465 . S
C481 C480 1.264 . S
C481 C483 1.339 . S
C481 H508 0.931 . S
C482 C483 1.395 . S
C482 C484 1.320 . S
C483 C481 1.339 . S
C483 C482 1.395 . S
C483 H509 0.929 . S
C484 C482 1.320 . S
C484 C485 1.405 . S
C484 H510 0.930 . S
C485 C480 1.479 . S
C485 C484 1.405 . S
C485 H511 0.931 . S
U486 O487 2.454 . S
U486 O488 2.458 . S
U486 C489 2.984 . S
U486 C490 2.847 . S
U486 C503 2.882 . S
U486 O504 2.441 . S
U486 O505 2.420 . S
U486 O506 2.455 . S
U486 O507 2.449 . S
O487 U486 2.454 . S
O487 C489 1.353 . S
O488 U486 2.458 . S
O488 C489 1.286 . S
C489 U486 2.984 . S
C489 O487 1.353 . S
C489 O488 1.286 . S
C489 C491 1.363 . S
C490 C480 1.465 . S
C490 U486 2.847 . S
C490 O504 1.249 . S
C490 O505 1.202 . S
C491 C489 1.363 . S
C491 C493 1.408 . S
C491 C496 1.342 . S
C492 C493 1.310 . S
C492 C495 1.461 . S
C492 H512 0.932 . S
C493 C491 1.408 . S
C493 C492 1.310 . S
C493 H513 0.930 . S
C494 C495 1.474 . S
C494 C496 1.285 . S
C494 H514 0.929 . S
C495 C492 1.461 . S
C495 C494 1.474 . S
C496 C491 1.342 . S
C496 C494 1.285 . S
C496 H515 0.930 . S
C497 C500 1.424 . S
C497 C502 1.245 . S
C497 C503 1.428 . S
C498 C501 1.260 . S
C498 C502 1.477 . S
C498 H516 0.932 . S
C499 C500 1.384 . S
C499 C501 1.479 . S
C499 H517 0.929 . S
C500 C497 1.424 . S
C500 C499 1.384 . S
C500 H518 0.928 . S
C501 C498 1.260 . S
C501 C499 1.479 . S
C502 C497 1.245 . S
C502 C498 1.477 . S
C502 H519 0.932 . S
C503 U486 2.882 . S
C503 C497 1.428 . S
C503 O506 1.301 . S
C503 O507 1.282 . S
O504 U486 2.441 . S
O504 C490 1.249 . S
O505 U486 2.420 . S
O505 C490 1.202 . S
O506 U486 2.455 . S
O506 C503 1.301 . S
O507 U486 2.449 . S
O507 C503 1.282 . S
H508 C481 0.931 . S
H509 C483 0.929 . S
H510 C484 0.930 . S
H511 C485 0.931 . S
H512 C492 0.932 . S
H513 C493 0.930 . S
H514 C494 0.929 . S
H515 C496 0.930 . S
H516 C498 0.932 . S
H517 C499 0.929 . S
H518 C500 0.928 . S
H519 C502 0.932 . S
C520 C521 1.264 . S
C520 C525 1.479 . S
C520 C530 1.465 . S
C521 C520 1.264 . S
C521 C523 1.339 . S
C521 H548 0.931 . S
C522 C523 1.395 . S
C522 C524 1.320 . S
C523 C521 1.339 . S
C523 C522 1.395 . S
C523 H549 0.929 . S
C524 C522 1.320 . S
C524 C525 1.405 . S
C524 H550 0.930 . S
C525 C520 1.479 . S
C525 C524 1.405 . S
C525 H551 0.931 . S
U526 O527 2.454 . S
U526 O528 2.458 . S
U526 C529 2.984 . S
U526 C530 2.847 . S
U526 C543 2.882 . S
U526 O544 2.441 . S
U526 O545 2.420 . S
U526 O546 2.455 . S
U526 O547 2.449 . S
O527 U526 2.454 . S
O527 C529 1.353 . S
O528 U526 2.458 . S
O528 C529 1.286 . S
C529 U526 2.984 . S
C529 O527 1.353 . S
C529 O528 1.286 . S
C529 C531 1.363 . S
C530 C520 1.465 . S
C530 U526 2.847 . S
C530 O544 1.249 . S
C530 O545 1.202 . S
C531 C529 1.363 . S
C531 C533 1.408 . S
C531 C536 1.342 . S
C532 C533 1.310 . S
C532 C535 1.461 . S
C532 H552 0.932 . S
C533 C531 1.408 . S
C533 C532 1.310 . S
C533 H553 0.930 . S
C534 C535 1.474 . S
C534 C536 1.285 . S
C534 H554 0.929 . S
C535 C532 1.461 . S
C535 C534 1.474 . S
C536 C531 1.342 . S
C536 C534 1.285 . S
C536 H555 0.930 . S
C537 C540 1.424 . S
C537 C542 1.245 . S
C537 C543 1.428 . S
C538 C541 1.260 . S
C538 C542 1.477 . S
C538 H556 0.932 . S
C539 C540 1.384 . S
C539 C541 1.479 . S
C539 H557 0.929 . S
C540 C537 1.424 . S
C540 C539 1.384 . S
C540 H558 0.928 . S
C541 C538 1.260 . S
C541 C539 1.479 . S
C542 C537 1.245 . S
C542 C538 1.477 . S
C542 H559 0.932 . S
C543 U526 2.882 . S
C543 C537 1.428 . S
C543 O546 1.301 . S
C543 O547 1.282 . S
O544 U526 2.441 . S
O544 C530 1.249 . S
O545 U526 2.420 . S
O545 C530 1.202 . S
O546 U526 2.455 . S
O546 C543 1.301 . S
O547 U526 2.449 . S
O547 C543 1.282 . S
H548 C521 0.931 . S
H549 C523 0.929 . S
H550 C524 0.930 . S
H551 C525 0.931 . S
H552 C532 0.932 . S
H553 C533 0.930 . S
H554 C534 0.929 . S
H555 C536 0.930 . S
H556 C538 0.932 . S
H557 C539 0.929 . S
H558 C540 0.928 . S
H559 C542 0.932 . S
C560 C561 1.264 . S
C560 C565 1.479 . S
C560 C570 1.465 . S
C561 C560 1.264 . S
C561 C563 1.339 . S
C561 H588 0.931 . S
C562 C563 1.395 . S
C562 C564 1.320 . S
C563 C561 1.339 . S
C563 C562 1.395 . S
C563 H589 0.929 . S
C564 C562 1.320 . S
C564 C565 1.405 . S
C564 H590 0.930 . S
C565 C560 1.479 . S
C565 C564 1.405 . S
C565 H591 0.931 . S
U566 O567 2.454 . S
U566 O568 2.458 . S
U566 C569 2.984 . S
U566 C570 2.847 . S
U566 C583 2.882 . S
U566 O584 2.441 . S
U566 O585 2.420 . S
U566 O586 2.455 . S
U566 O587 2.449 . S
O567 U566 2.454 . S
O567 C569 1.353 . S
O568 U566 2.458 . S
O568 C569 1.286 . S
C569 U566 2.984 . S
C569 O567 1.353 . S
C569 O568 1.286 . S
C569 C571 1.363 . S
C570 C560 1.465 . S
C570 U566 2.847 . S
C570 O584 1.249 . S
C570 O585 1.202 . S
C571 C569 1.363 . S
C571 C573 1.408 . S
C571 C576 1.342 . S
C572 C573 1.310 . S
C572 C575 1.461 . S
C572 H592 0.932 . S
C573 C571 1.408 . S
C573 C572 1.310 . S
C573 H593 0.930 . S
C574 C575 1.474 . S
C574 C576 1.285 . S
C574 H594 0.929 . S
C575 C572 1.461 . S
C575 C574 1.474 . S
C576 C571 1.342 . S
C576 C574 1.285 . S
C576 H595 0.930 . S
C577 C580 1.424 . S
C577 C582 1.245 . S
C577 C583 1.428 . S
C578 C581 1.260 . S
C578 C582 1.477 . S
C578 H596 0.932 . S
C579 C580 1.384 . S
C579 C581 1.479 . S
C579 H597 0.929 . S
C580 C577 1.424 . S
C580 C579 1.384 . S
C580 H598 0.928 . S
C581 C578 1.260 . S
C581 C579 1.479 . S
C582 C577 1.245 . S
C582 C578 1.477 . S
C582 H599 0.932 . S
C583 U566 2.882 . S
C583 C577 1.428 . S
C583 O586 1.301 . S
C583 O587 1.282 . S
O584 U566 2.441 . S
O584 C570 1.249 . S
O585 U566 2.420 . S
O585 C570 1.202 . S
O586 U566 2.455 . S
O586 C583 1.301 . S
O587 U566 2.449 . S
O587 C583 1.282 . S
H588 C561 0.931 . S
H589 C563 0.929 . S
H590 C564 0.930 . S
H591 C565 0.931 . S
H592 C572 0.932 . S
H593 C573 0.930 . S
H594 C574 0.929 . S
H595 C576 0.930 . S
H596 C578 0.932 . S
H597 C579 0.929 . S
H598 C580 0.928 . S
H599 C582 0.932 . S
C600 C601 1.264 . S
C600 C605 1.479 . S
C600 C610 1.465 . S
C601 C600 1.264 . S
C601 C603 1.339 . S
C601 H628 0.931 . S
C602 C603 1.395 . S
C602 C604 1.320 . S
C603 C601 1.339 . S
C603 C602 1.395 . S
C603 H629 0.929 . S
C604 C602 1.320 . S
C604 C605 1.405 . S
C604 H630 0.930 . S
C605 C600 1.479 . S
C605 C604 1.405 . S
C605 H631 0.931 . S
U606 O607 2.454 . S
U606 O608 2.458 . S
U606 C609 2.984 . S
U606 C610 2.847 . S
U606 C623 2.882 . S
U606 O624 2.441 . S
U606 O625 2.420 . S
U606 O626 2.455 . S
U606 O627 2.449 . S
O607 U606 2.454 . S
O607 C609 1.353 . S
O608 U606 2.458 . S
O608 C609 1.286 . S
C609 U606 2.984 . S
C609 O607 1.353 . S
C609 O608 1.286 . S
C609 C611 1.363 . S
C610 C600 1.465 . S
C610 U606 2.847 . S
C610 O624 1.249 . S
C610 O625 1.202 . S
C611 C609 1.363 . S
C611 C613 1.408 . S
C611 C616 1.342 . S
C612 C613 1.310 . S
C612 C615 1.461 . S
C612 H632 0.932 . S
C613 C611 1.408 . S
C613 C612 1.310 . S
C613 H633 0.930 . S
C614 C615 1.474 . S
C614 C616 1.285 . S
C614 H634 0.929 . S
C615 C612 1.461 . S
C615 C614 1.474 . S
C616 C611 1.342 . S
C616 C614 1.285 . S
C616 H635 0.930 . S
C617 C620 1.424 . S
C617 C622 1.245 . S
C617 C623 1.428 . S
C618 C621 1.260 . S
C618 C622 1.477 . S
C618 H636 0.932 . S
C619 C620 1.384 . S
C619 C621 1.479 . S
C619 H637 0.929 . S
C620 C617 1.424 . S
C620 C619 1.384 . S
C620 H638 0.928 . S
C621 C618 1.260 . S
C621 C619 1.479 . S
C622 C617 1.245 . S
C622 C618 1.477 . S
C622 H639 0.932 . S
C623 U606 2.882 . S
C623 C617 1.428 . S
C623 O626 1.301 . S
C623 O627 1.282 . S
O624 U606 2.441 . S
O624 C610 1.249 . S
O625 U606 2.420 . S
O625 C610 1.202 . S
O626 U606 2.455 . S
O626 C623 1.301 . S
O627 U606 2.449 . S
O627 C623 1.282 . S
H628 C601 0.931 . S
H629 C603 0.929 . S
H630 C604 0.930 . S
H631 C605 0.931 . S
H632 C612 0.932 . S
H633 C613 0.930 . S
H634 C614 0.929 . S
H635 C616 0.930 . S
H636 C618 0.932 . S
H637 C619 0.929 . S
H638 C620 0.928 . S
H639 C622 0.932 . S
H640 C646 0.930 . S
H641 C649 0.930 . S
H642 C650 0.930 1_545 S
H643 C651 0.930 . S
H644 C654 0.930 . S
H645 C655 0.930 1_565 S
C646 H640 0.930 . S
C646 C647 1.355 1_554 S
C646 C648 1.415 . S
C647 C646 1.355 1_556 S
C647 C649 1.419 . S
C648 C646 1.415 . S
C648 C653 1.425 1_564 S
C648 C655 1.409 1_565 S
C649 H641 0.930 . S
C649 C647 1.419 . S
C649 C650 1.362 . S
C650 H642 0.930 1_565 S
C650 C649 1.362 . S
C650 C653 1.409 1_565 S
C651 H643 0.930 . S
C651 C652 1.355 1_556 S
C651 C653 1.415 . S
C652 C651 1.355 1_554 S
C652 C654 1.419 . S
C653 C648 1.425 1_546 S
C653 C650 1.409 1_545 S
C653 C651 1.415 . S
C654 H644 0.930 . S
C654 C652 1.419 . S
C654 C655 1.362 . S
C655 H645 0.930 1_545 S
C655 C648 1.409 1_545 S
C655 C654 1.362 . S
H656 C662 0.930 . S
H657 C665 0.930 . S
H658 C666 0.930 . S
H659 C667 0.930 . S
H660 C670 0.930 . S
H661 C671 0.930 . S
C662 H656 0.930 . S
C662 C663 1.355 . S
C662 C664 1.415 . S
C663 C662 1.355 . S
C663 C665 1.419 1_554 S
C664 C662 1.415 . S
C664 C669 1.425 1_654 S
C664 C671 1.409 1_655 S
C665 H657 0.930 . S
C665 C663 1.419 1_556 S
C665 C666 1.362 . S
C666 H658 0.930 . S
C666 C665 1.362 . S
C666 C669 1.409 1_655 S
C667 H659 0.930 . S
C667 C668 1.355 . S
C667 C669 1.415 . S
C668 C667 1.355 . S
C668 C670 1.419 1_556 S
C669 C664 1.425 1_456 S
C669 C666 1.409 1_455 S
C669 C667 1.415 . S
C670 H660 0.930 . S
C670 C668 1.419 1_554 S
C670 C671 1.362 . S
C671 H661 0.930 . S
C671 C664 1.409 1_455 S
C671 C670 1.362 . S
H672 C678 0.930 . S
H673 C681 0.930 . S
H674 C682 0.930 1_565 S
H675 C683 0.930 . S
H676 C686 0.930 . S
H677 C687 0.930 1_545 S
C678 H672 0.930 . S
C678 C679 1.355 1_554 S
C678 C680 1.415 . S
C679 C678 1.355 1_556 S
C679 C681 1.419 . S
C680 C678 1.415 . S
C680 C685 1.425 1_544 S
C680 C687 1.409 1_545 S
C681 H673 0.930 . S
C681 C679 1.419 . S
C681 C682 1.362 . S
C682 H674 0.930 1_545 S
C682 C681 1.362 . S
C682 C685 1.409 1_545 S
C683 H675 0.930 . S
C683 C684 1.355 1_556 S
C683 C685 1.415 . S
C684 C683 1.355 1_554 S
C684 C686 1.419 . S
C685 C680 1.425 1_566 S
C685 C682 1.409 1_565 S
C685 C683 1.415 . S
C686 H676 0.930 . S
C686 C684 1.419 . S
C686 C687 1.362 . S
C687 H677 0.930 1_565 S
C687 C680 1.409 1_565 S
C687 C686 1.362 . S
H688 C694 0.930 . S
H689 C697 0.930 . S
H690 C698 0.930 . S
H691 C699 0.930 . S
H692 C702 0.930 . S
H693 C703 0.930 . S
C694 H688 0.930 . S
C694 C695 1.355 . S
C694 C696 1.415 . S
C695 C694 1.355 . S
C695 C697 1.419 1_554 S
C696 C694 1.415 . S
C696 C701 1.425 1_454 S
C696 C703 1.409 1_455 S
C697 H689 0.930 . S
C697 C695 1.419 1_556 S
C697 C698 1.362 . S
C698 H690 0.930 . S
C698 C697 1.362 . S
C698 C701 1.409 1_455 S
C699 H691 0.930 . S
C699 C700 1.355 . S
C699 C701 1.415 . S
C700 C699 1.355 . S
C700 C702 1.419 1_556 S
C701 C696 1.425 1_656 S
C701 C698 1.409 1_655 S
C701 C699 1.415 . S
C702 H692 0.930 . S
C702 C700 1.419 1_554 S
C702 C703 1.362 . S
C703 H693 0.930 . S
C703 C696 1.409 1_655 S
C703 C702 1.362 . S
H704 C710 0.930 . S
H705 C713 0.930 . S
H706 C714 0.930 . S
H707 C715 0.930 . S
H708 C718 0.930 . S
H709 C719 0.930 . S
C710 H704 0.930 . S
C710 C711 1.355 . S
C710 C712 1.415 . S
C711 C710 1.355 . S
C711 C713 1.419 . S
C712 C710 1.415 . S
C712 C717 1.425 . S
C712 C719 1.409 . S
C713 H705 0.930 . S
C713 C711 1.419 . S
C713 C714 1.362 . S
C714 H706 0.930 . S
C714 C713 1.362 . S
C714 C717 1.409 . S
C715 H707 0.930 . S
C715 C716 1.355 . S
C715 C717 1.415 . S
C716 C715 1.355 . S
C716 C718 1.419 . S
C717 C712 1.425 . S
C717 C714 1.409 . S
C717 C715 1.415 . S
C718 H708 0.930 . S
C718 C716 1.419 . S
C718 C719 1.362 . S
C719 H709 0.930 . S
C719 C712 1.409 . S
C719 C718 1.362 . S
H720 C726 0.930 . S
H721 C729 0.930 . S
H722 C730 0.930 . S
H723 C731 0.930 . S
H724 C734 0.930 . S
H725 C735 0.930 . S
C726 H720 0.930 . S
C726 C727 1.355 . S
C726 C728 1.415 . S
C727 C726 1.355 . S
C727 C729 1.419 . S
C728 C726 1.415 . S
C728 C733 1.425 . S
C728 C735 1.409 . S
C729 H721 0.930 . S
C729 C727 1.419 . S
C729 C730 1.362 . S
C730 H722 0.930 . S
C730 C729 1.362 . S
C730 C733 1.409 . S
C731 H723 0.930 . S
C731 C732 1.355 . S
C731 C733 1.415 . S
C732 C731 1.355 . S
C732 C734 1.419 . S
C733 C728 1.425 . S
C733 C730 1.409 . S
C733 C731 1.415 . S
C734 H724 0.930 . S
C734 C732 1.419 . S
C734 C735 1.362 . S
C735 H725 0.930 . S
C735 C728 1.409 . S
C735 C734 1.362 . S
H736 C742 0.930 . S
H737 C745 0.930 . S
H738 C746 0.930 . S
H739 C747 0.930 . S
H740 C750 0.930 . S
H741 C751 0.930 . S
C742 H736 0.930 . S
C742 C743 1.355 . S
C742 C744 1.415 . S
C743 C742 1.355 . S
C743 C745 1.419 . S
C744 C742 1.415 . S
C744 C749 1.425 . S
C744 C751 1.409 . S
C745 H737 0.930 . S
C745 C743 1.419 . S
C745 C746 1.362 . S
C746 H738 0.930 . S
C746 C745 1.362 . S
C746 C749 1.409 . S
C747 H739 0.930 . S
C747 C748 1.355 . S
C747 C749 1.415 . S
C748 C747 1.355 . S
C748 C750 1.419 . S
C749 C744 1.425 . S
C749 C746 1.409 . S
C749 C747 1.415 . S
C750 H740 0.930 . S
C750 C748 1.419 . S
C750 C751 1.362 . S
C751 H741 0.930 . S
C751 C744 1.409 . S
C751 C750 1.362 . S
H752 C758 0.930 . S
H753 C761 0.930 . S
H754 C762 0.930 . S
H755 C763 0.930 . S
H756 C766 0.930 . S
H757 C767 0.930 . S
C758 H752 0.930 . S
C758 C759 1.355 . S
C758 C760 1.415 . S
C759 C758 1.355 . S
C759 C761 1.419 . S
C760 C758 1.415 . S
C760 C765 1.425 . S
C760 C767 1.409 . S
C761 H753 0.930 . S
C761 C759 1.419 . S
C761 C762 1.362 . S
C762 H754 0.930 . S
C762 C761 1.362 . S
C762 C765 1.409 . S
C763 H755 0.930 . S
C763 C764 1.355 . S
C763 C765 1.415 . S
C764 C763 1.355 . S
C764 C766 1.419 . S
C765 C760 1.425 . S
C765 C762 1.409 . S
C765 C763 1.415 . S
C766 H756 0.930 . S
C766 C764 1.419 . S
C766 C767 1.362 . S
C767 H757 0.930 . S
C767 C760 1.409 . S
C767 C766 1.362 . S
H768 C774 0.930 . S
H769 C777 0.930 . S
H770 C778 0.930 . S
H771 C779 0.930 . S
H772 C782 0.930 . S
H773 C783 0.930 . S
C774 H768 0.930 . S
C774 C775 1.355 . S
C774 C776 1.415 . S
C775 C774 1.355 . S
C775 C777 1.419 1_554 S
C776 C774 1.415 . S
C776 C781 1.425 1_554 S
C776 C783 1.409 . S
C777 H769 0.930 . S
C777 C775 1.419 1_556 S
C777 C778 1.362 . S
C778 H770 0.930 . S
C778 C777 1.362 . S
C778 C781 1.409 . S
C779 H771 0.930 . S
C779 C780 1.355 . S
C779 C781 1.415 . S
C780 C779 1.355 . S
C780 C782 1.419 1_556 S
C781 C776 1.425 1_556 S
C781 C778 1.409 . S
C781 C779 1.415 . S
C782 H772 0.930 . S
C782 C780 1.419 1_554 S
C782 C783 1.362 . S
C783 H773 0.930 . S
C783 C776 1.409 . S
C783 C782 1.362 . S
H784 C790 0.930 . S
H785 C793 0.930 . S
H786 C794 0.930 . S
H787 C795 0.930 . S
H788 C798 0.930 . S
H789 C799 0.930 . S
C790 H784 0.930 . S
C790 C791 1.355 . S
C790 C792 1.415 . S
C791 C790 1.355 . S
C791 C793 1.419 . S
C792 C790 1.415 . S
C792 C797 1.425 1_556 S
C792 C799 1.409 . S
C793 H785 0.930 . S
C793 C791 1.419 . S
C793 C794 1.362 1_556 S
C794 H786 0.930 . S
C794 C793 1.362 1_554 S
C794 C797 1.409 . S
C795 H787 0.930 . S
C795 C796 1.355 . S
C795 C797 1.415 . S
C796 C795 1.355 . S
C796 C798 1.419 . S
C797 C792 1.425 1_554 S
C797 C794 1.409 . S
C797 C795 1.415 . S
C798 H788 0.930 . S
C798 C796 1.419 . S
C798 C799 1.362 1_554 S
C799 H789 0.930 . S
C799 C792 1.409 . S
C799 C798 1.362 1_556 S
H800 C806 0.924 1_556 S
H801 C809 0.930 . S
H802 C810 0.930 . S
H803 C811 0.924 1_554 S
H804 C814 0.930 . S
H805 C815 0.930 . S
C806 H800 0.924 1_554 S
C806 C807 1.355 . S
C806 C808 1.415 1_554 S
C807 C806 1.355 . S
C807 C809 1.419 . S
C808 C806 1.415 1_556 S
C808 C813 1.425 1_556 S
C808 C815 1.409 . S
C809 H801 0.930 . S
C809 C807 1.419 . S
C809 C810 1.362 . S
C810 H802 0.930 . S
C810 C809 1.362 . S
C810 C813 1.409 . S
C811 H803 0.924 1_556 S
C811 C812 1.355 . S
C811 C813 1.415 1_556 S
C812 C811 1.355 . S
C812 C814 1.419 . S
C813 C808 1.425 1_554 S
C813 C810 1.409 . S
C813 C811 1.415 1_554 S
C814 H804 0.930 . S
C814 C812 1.419 . S
C814 C815 1.362 . S
C815 H805 0.930 . S
C815 C808 1.409 . S
C815 C814 1.362 . S
H816 C822 0.930 . S
H817 C825 0.930 . S
H818 C826 0.930 . S
H819 C827 0.930 . S
H820 C830 0.930 . S
H821 C831 0.930 . S
C822 H816 0.930 . S
C822 C823 1.355 . S
C822 C824 1.415 . S
C823 C822 1.355 . S
C823 C825 1.419 1_554 S
C824 C822 1.415 . S
C824 C829 1.425 1_554 S
C824 C831 1.409 . S
C825 H817 0.930 . S
C825 C823 1.419 1_556 S
C825 C826 1.362 . S
C826 H818 0.930 . S
C826 C825 1.362 . S
C826 C829 1.409 . S
C827 H819 0.930 . S
C827 C828 1.355 . S
C827 C829 1.415 . S
C828 C827 1.355 . S
C828 C830 1.419 1_556 S
C829 C824 1.425 1_556 S
C829 C826 1.409 . S
C829 C827 1.415 . S
C830 H820 0.930 . S
C830 C828 1.419 1_554 S
C830 C831 1.362 . S
C831 H821 0.930 . S
C831 C824 1.409 . S
C831 C830 1.362 . S
H832 C838 0.930 . S
H833 C841 0.930 . S
H834 C842 0.930 . S
H835 C843 0.930 . S
H836 C846 0.930 . S
H837 C847 0.930 . S
C838 H832 0.930 . S
C838 C839 1.355 . S
C838 C840 1.415 . S
C839 C838 1.355 . S
C839 C841 1.419 . S
C840 C838 1.415 . S
C840 C845 1.425 . S
C840 C847 1.409 . S
C841 H833 0.930 . S
C841 C839 1.419 . S
C841 C842 1.362 . S
C842 H834 0.930 . S
C842 C841 1.362 . S
C842 C845 1.409 . S
C843 H835 0.930 . S
C843 C844 1.355 . S
C843 C845 1.415 . S
C844 C843 1.355 . S
C844 C846 1.419 . S
C845 C840 1.425 . S
C845 C842 1.409 . S
C845 C843 1.415 . S
C846 H836 0.930 . S
C846 C844 1.419 . S
C846 C847 1.362 . S
C847 H837 0.930 . S
C847 C840 1.409 . S
C847 C846 1.362 . S
H848 C854 0.930 . S
H849 C857 0.930 . S
H850 C858 0.930 . S
H851 C859 0.930 . S
H852 C862 0.930 . S
H853 C863 0.930 . S
C854 H848 0.930 . S
C854 C855 1.355 . S
C854 C856 1.415 . S
C855 C854 1.355 . S
C855 C857 1.419 . S
C856 C854 1.415 . S
C856 C861 1.425 . S
C856 C863 1.409 . S
C857 H849 0.930 . S
C857 C855 1.419 . S
C857 C858 1.362 . S
C858 H850 0.930 . S
C858 C857 1.362 . S
C858 C861 1.409 . S
C859 H851 0.930 . S
C859 C860 1.355 . S
C859 C861 1.415 . S
C860 C859 1.355 . S
C860 C862 1.419 . S
C861 C856 1.425 . S
C861 C858 1.409 . S
C861 C859 1.415 . S
C862 H852 0.930 . S
C862 C860 1.419 . S
C862 C863 1.362 . S
C863 H853 0.930 . S
C863 C856 1.409 . S
C863 C862 1.362 . S
H864 C870 0.930 . S
H865 C873 0.930 . S
H866 C874 0.930 . S
H867 C875 0.930 . S
H868 C878 0.930 . S
H869 C879 0.930 . S
C870 H864 0.930 . S
C870 C871 1.355 . S
C870 C872 1.415 . S
C871 C870 1.355 . S
C871 C873 1.419 . S
C872 C870 1.415 . S
C872 C877 1.425 . S
C872 C879 1.409 . S
C873 H865 0.930 . S
C873 C871 1.419 . S
C873 C874 1.362 . S
C874 H866 0.930 . S
C874 C873 1.362 . S
C874 C877 1.409 . S
C875 H867 0.930 . S
C875 C876 1.355 . S
C875 C877 1.415 . S
C876 C875 1.355 . S
C876 C878 1.419 . S
C877 C872 1.425 . S
C877 C874 1.409 . S
C877 C875 1.415 . S
C878 H868 0.930 . S
C878 C876 1.419 . S
C878 C879 1.362 . S
C879 H869 0.930 . S
C879 C872 1.409 . S
C879 C878 1.362 . S
H880 C886 0.930 . S
H881 C889 0.930 . S
H882 C890 0.930 . S
H883 C891 0.930 . S
H884 C894 0.930 . S
H885 C895 0.930 . S
C886 H880 0.930 . S
C886 C887 1.355 . S
C886 C888 1.415 . S
C887 C886 1.355 . S
C887 C889 1.419 . S
C888 C886 1.415 . S
C888 C893 1.425 . S
C888 C895 1.409 . S
C889 H881 0.930 . S
C889 C887 1.419 . S
C889 C890 1.362 . S
C890 H882 0.930 . S
C890 C889 1.362 . S
C890 C893 1.409 . S
C891 H883 0.930 . S
C891 C892 1.355 . S
C891 C893 1.415 . S
C892 C891 1.355 . S
C892 C894 1.419 . S
C893 C888 1.425 . S
C893 C890 1.409 . S
C893 C891 1.415 . S
C894 H884 0.930 . S
C894 C892 1.419 . S
C894 C895 1.362 . S
C895 H885 0.930 . S
C895 C888 1.409 . S
C895 C894 1.362 . S
H896 C902 0.930 . S
H897 C905 0.930 . S
H898 C906 0.930 . S
H899 C907 0.930 . S
H900 C910 0.930 . S
H901 C911 0.930 . S
C902 H896 0.930 . S
C902 C903 1.355 . S
C902 C904 1.415 . S
C903 C902 1.355 . S
C903 C905 1.419 . S
C904 C902 1.415 . S
C904 C909 1.425 . S
C904 C911 1.409 . S
C905 H897 0.930 . S
C905 C903 1.419 . S
C905 C906 1.362 . S
C906 H898 0.930 . S
C906 C905 1.362 . S
C906 C909 1.409 . S
C907 H899 0.930 . S
C907 C908 1.355 . S
C907 C909 1.415 . S
C908 C907 1.355 . S
C908 C910 1.419 . S
C909 C904 1.425 . S
C909 C906 1.409 . S
C909 C907 1.415 . S
C910 H900 0.930 . S
C910 C908 1.419 . S
C910 C911 1.362 . S
C911 H901 0.930 . S
C911 C904 1.409 . S
C911 C910 1.362 . S
H912 C918 0.930 . S
H913 C921 0.930 . S
H914 C922 0.930 . S
H915 C923 0.930 . S
H916 C926 0.930 . S
H917 C927 0.930 . S
C918 H912 0.930 . S
C918 C919 1.355 . S
C918 C920 1.415 . S
C919 C918 1.355 . S
C919 C921 1.419 . S
C920 C918 1.415 . S
C920 C925 1.425 . S
C920 C927 1.409 . S
C921 H913 0.930 . S
C921 C919 1.419 . S
C921 C922 1.362 . S
C922 H914 0.930 . S
C922 C921 1.362 . S
C922 C925 1.409 . S
C923 H915 0.930 . S
C923 C924 1.355 . S
C923 C925 1.415 . S
C924 C923 1.355 . S
C924 C926 1.419 . S
C925 C920 1.425 . S
C925 C922 1.409 . S
C925 C923 1.415 . S
C926 H916 0.930 . S
C926 C924 1.419 . S
C926 C927 1.362 . S
C927 H917 0.930 . S
C927 C920 1.409 . S
C927 C926 1.362 . S
H928 C934 0.930 . S
H929 C937 0.930 . S
H930 C938 0.930 . S
H931 C939 0.930 . S
H932 C942 0.930 . S
H933 C943 0.930 . S
C934 H928 0.930 . S
C934 C935 1.355 . S
C934 C936 1.415 . S
C935 C934 1.355 . S
C935 C937 1.419 . S
C936 C934 1.415 . S
C936 C941 1.425 . S
C936 C943 1.409 . S
C937 H929 0.930 . S
C937 C935 1.419 . S
C937 C938 1.362 . S
C938 H930 0.930 . S
C938 C937 1.362 . S
C938 C941 1.409 . S
C939 H931 0.930 . S
C939 C940 1.355 . S
C939 C941 1.415 . S
C940 C939 1.355 . S
C940 C942 1.419 . S
C941 C936 1.425 . S
C941 C938 1.409 . S
C941 C939 1.415 . S
C942 H932 0.930 . S
C942 C940 1.419 . S
C942 C943 1.362 . S
C943 H933 0.930 . S
C943 C936 1.409 . S
C943 C942 1.362 . S
H944 C950 0.930 . S
H945 C953 0.930 . S
H946 C954 0.930 . S
H947 C955 0.930 . S
H948 C958 0.930 . S
H949 C959 0.930 . S
C950 H944 0.930 . S
C950 C951 1.355 . S
C950 C952 1.415 . S
C951 C950 1.355 . S
C951 C953 1.419 . S
C952 C950 1.415 . S
C952 C957 1.425 . S
C952 C959 1.409 . S
C953 H945 0.930 . S
C953 C951 1.419 . S
C953 C954 1.362 . S
C954 H946 0.930 . S
C954 C953 1.362 . S
C954 C957 1.409 . S
C955 H947 0.930 . S
C955 C956 1.355 . S
C955 C957 1.415 . S
C956 C955 1.355 . S
C956 C958 1.419 . S
C957 C952 1.425 . S
C957 C954 1.409 . S
C957 C955 1.415 . S
C958 H948 0.930 . S
C958 C956 1.419 . S
C958 C959 1.362 . S
C959 H949 0.930 . S
C959 C952 1.409 . S
C959 C958 1.362 . S
H960 C966 0.930 . S
H961 C969 0.930 . S
H962 C970 0.930 . S
H963 C971 0.930 . S
H964 C974 0.930 . S
H965 C975 0.930 . S
C966 H960 0.930 . S
C966 C967 1.355 . S
C966 C968 1.415 . S
C967 C966 1.355 . S
C967 C969 1.419 . S
C968 C966 1.415 . S
C968 C973 1.425 . S
C968 C975 1.409 . S
C969 H961 0.930 . S
C969 C967 1.419 . S
C969 C970 1.362 . S
C970 H962 0.930 . S
C970 C969 1.362 . S
C970 C973 1.409 . S
C971 H963 0.930 . S
C971 C972 1.355 . S
C971 C973 1.415 . S
C972 C971 1.355 . S
C972 C974 1.419 . S
C973 C968 1.425 . S
C973 C970 1.409 . S
C973 C971 1.415 . S
C974 H964 0.930 . S
C974 C972 1.419 . S
C974 C975 1.362 . S
C975 H965 0.930 . S
C975 C968 1.409 . S
C975 C974 1.362 . S
H976 C982 0.930 . S
H977 C985 0.930 . S
H978 C986 0.930 . S
H979 C987 0.930 . S
H980 C990 0.930 . S
H981 C991 0.930 . S
C982 H976 0.930 . S
C982 C983 1.355 . S
C982 C984 1.415 . S
C983 C982 1.355 . S
C983 C985 1.419 . S
C984 C982 1.415 . S
C984 C989 1.425 . S
C984 C991 1.409 . S
C985 H977 0.930 . S
C985 C983 1.419 . S
C985 C986 1.362 . S
C986 H978 0.930 . S
C986 C985 1.362 . S
C986 C989 1.409 . S
C987 H979 0.930 . S
C987 C988 1.355 . S
C987 C989 1.415 . S
C988 C987 1.355 . S
C988 C990 1.419 . S
C989 C984 1.425 . S
C989 C986 1.409 . S
C989 C987 1.415 . S
C990 H980 0.930 . S
C990 C988 1.419 . S
C990 C991 1.362 . S
C991 H981 0.930 . S
C991 C984 1.409 . S
C991 C990 1.362 . S
H992 C998 0.930 . S
H993 C1001 0.930 . S
H994 C1002 0.930 . S
H995 C1003 0.930 . S
H996 C1006 0.930 . S
H997 C1007 0.930 . S
C998 H992 0.930 . S
C998 C999 1.355 . S
C998 C1000 1.415 . S
C999 C998 1.355 . S
C999 C1001 1.419 . S
C1000 C998 1.415 . S
C1000 C1005 1.425 . S
C1000 C1007 1.409 . S
C1001 H993 0.930 . S
C1001 C999 1.419 . S
C1001 C1002 1.362 . S
C1002 H994 0.930 . S
C1002 C1001 1.362 . S
C1002 C1005 1.409 . S
C1003 H995 0.930 . S
C1003 C1004 1.355 . S
C1003 C1005 1.415 . S
C1004 C1003 1.355 . S
C1004 C1006 1.419 . S
C1005 C1000 1.425 . S
C1005 C1002 1.409 . S
C1005 C1003 1.415 . S
C1006 H996 0.930 . S
C1006 C1004 1.419 . S
C1006 C1007 1.362 . S
C1007 H997 0.930 . S
C1007 C1000 1.409 . S
C1007 C1006 1.362 . S
H1008 C1014 0.930 . S
H1009 C1017 0.930 . S
H1010 C1018 0.930 . S
H1011 C1019 0.930 . S
H1012 C1022 0.930 . S
H1013 C1023 0.930 . S
C1014 H1008 0.930 . S
C1014 C1015 1.355 . S
C1014 C1016 1.415 . S
C1015 C1014 1.355 . S
C1015 C1017 1.419 . S
C1016 C1014 1.415 . S
C1016 C1021 1.425 . S
C1016 C1023 1.409 . S
C1017 H1009 0.930 . S
C1017 C1015 1.419 . S
C1017 C1018 1.362 . S
C1018 H1010 0.930 . S
C1018 C1017 1.362 . S
C1018 C1021 1.409 . S
C1019 H1011 0.930 . S
C1019 C1020 1.355 . S
C1019 C1021 1.415 . S
C1020 C1019 1.355 . S
C1020 C1022 1.419 . S
C1021 C1016 1.425 . S
C1021 C1018 1.409 . S
C1021 C1019 1.415 . S
C1022 H1012 0.930 . S
C1022 C1020 1.419 . S
C1022 C1023 1.362 . S
C1023 H1013 0.930 . S
C1023 C1016 1.409 . S
C1023 C1022 1.362 . S
C647 C175 1.746 . S
C652 C15 1.750 . S
C663 C55 1.772 . S
C668 C215 1.756 . S
C679 C255 1.745 . S
C684 C95 1.750 . S
C695 C135 1.764 . S
C700 C295 1.775 . S
C711 C335 1.769 . S
C716 C495 1.751 . S
C727 C535 1.745 . S
C732 C375 1.752 . S
C743 C575 1.764 . S
C748 C415 1.775 . S
C759 C455 1.772 . S
C764 C615 1.773 . S
C775 C21 1.811 . S
C780 C221 1.805 . S
C791 C261 1.803 . S
C796 C61 1.795 . S
C807 C101 1.798 . S
C812 C301 1.805 . S
C823 C141 1.810 . S
C828 C181 1.813 . S
C839 C341 1.800 . S
C844 C541 1.807 . S
C855 C581 1.799 . S
C860 C381 1.792 . S
C871 C421 1.790 . S
C876 C621 1.796 . S
C887 C501 1.789 . S
C892 C461 1.794 . S
C903 C602 1.902 . S
C908 C2 1.915 . S
C919 C482 1.903 . S
C924 C42 1.915 . S
C935 C82 1.923 . S
C940 C522 1.926 . S
C951 C562 1.925 . S
C956 C122 1.918 . S
C967 C162 1.926 . S
C972 C362 1.919 . S
C983 C402 1.905 . S
C988 C202 1.917 . S
C999 C442 1.925 . S
C1004 C242 1.926 . S
C1015 C322 1.919 . S
C1020 C282 1.908 . S
