# Generated by pormake.
# Topology umc, (4)-cn, num edge types: 1
# Building blocks:
#     Node 0, Type 0, BuildingBlock: KOZSID_clean_sbu_0, # of connection points: 4
#     Node 1, Type 0, BuildingBlock: KOZSID_clean_sbu_0, # of connection points: 4
#     Node 2, Type 0, BuildingBlock: KOZSID_clean_sbu_0, # of connection points: 4
#     Node 3, Type 0, BuildingBlock: KOZSID_clean_sbu_0, # of connection points: 4
#     Node 4, Type 0, BuildingBlock: KOZSID_clean_sbu_0, # of connection points: 4
#     Node 5, Type 0, BuildingBlock: KOZSID_clean_sbu_0, # of connection points: 4
#     Node 6, Type 0, BuildingBlock: KOZSID_clean_sbu_0, # of connection points: 4
#     Node 7, Type 0, BuildingBlock: KOZSID_clean_sbu_0, # of connection points: 4
#     Node 8, Type 0, BuildingBlock: KOZSID_clean_sbu_0, # of connection points: 4
#     Node 9, Type 0, BuildingBlock: KOZSID_clean_sbu_0, # of connection points: 4
#     Node 10, Type 0, BuildingBlock: KOZSID_clean_sbu_0, # of connection points: 4
#     Node 11, Type 0, BuildingBlock: KOZSID_clean_sbu_0, # of connection points: 4
#     Node 12, Type 0, BuildingBlock: KOZSID_clean_sbu_0, # of connection points: 4
#     Node 13, Type 0, BuildingBlock: KOZSID_clean_sbu_0, # of connection points: 4
#     Node 14, Type 0, BuildingBlock: KOZSID_clean_sbu_0, # of connection points: 4
#     Node 15, Type 0, BuildingBlock: KOZSID_clean_sbu_0, # of connection points: 4
#     Edge 16, Type (0, 0), BuildingBlock: KIFKEQ_clean_linker_1, # of connection points: 2
#     Edge 17, Type (0, 0), BuildingBlock: KIFKEQ_clean_linker_1, # of connection points: 2
#     Edge 18, Type (0, 0), BuildingBlock: KIFKEQ_clean_linker_1, # of connection points: 2
#     Edge 19, Type (0, 0), BuildingBlock: KIFKEQ_clean_linker_1, # of connection points: 2
#     Edge 20, Type (0, 0), BuildingBlock: KIFKEQ_clean_linker_1, # of connection points: 2
#     Edge 21, Type (0, 0), BuildingBlock: KIFKEQ_clean_linker_1, # of connection points: 2
#     Edge 22, Type (0, 0), BuildingBlock: KIFKEQ_clean_linker_1, # of connection points: 2
#     Edge 23, Type (0, 0), BuildingBlock: KIFKEQ_clean_linker_1, # of connection points: 2
#     Edge 24, Type (0, 0), BuildingBlock: KIFKEQ_clean_linker_1, # of connection points: 2
#     Edge 25, Type (0, 0), BuildingBlock: KIFKEQ_clean_linker_1, # of connection points: 2
#     Edge 26, Type (0, 0), BuildingBlock: KIFKEQ_clean_linker_1, # of connection points: 2
#     Edge 27, Type (0, 0), BuildingBlock: KIFKEQ_clean_linker_1, # of connection points: 2
#     Edge 28, Type (0, 0), BuildingBlock: KIFKEQ_clean_linker_1, # of connection points: 2
#     Edge 29, Type (0, 0), BuildingBlock: KIFKEQ_clean_linker_1, # of connection points: 2
#     Edge 30, Type (0, 0), BuildingBlock: KIFKEQ_clean_linker_1, # of connection points: 2
#     Edge 31, Type (0, 0), BuildingBlock: KIFKEQ_clean_linker_1, # of connection points: 2
#     Edge 32, Type (0, 0), BuildingBlock: KIFKEQ_clean_linker_1, # of connection points: 2
#     Edge 33, Type (0, 0), BuildingBlock: KIFKEQ_clean_linker_1, # of connection points: 2
#     Edge 34, Type (0, 0), BuildingBlock: KIFKEQ_clean_linker_1, # of connection points: 2
#     Edge 35, Type (0, 0), BuildingBlock: KIFKEQ_clean_linker_1, # of connection points: 2
#     Edge 36, Type (0, 0), BuildingBlock: KIFKEQ_clean_linker_1, # of connection points: 2
#     Edge 37, Type (0, 0), BuildingBlock: KIFKEQ_clean_linker_1, # of connection points: 2
#     Edge 38, Type (0, 0), BuildingBlock: KIFKEQ_clean_linker_1, # of connection points: 2
#     Edge 39, Type (0, 0), BuildingBlock: KIFKEQ_clean_linker_1, # of connection points: 2
#     Edge 40, Type (0, 0), BuildingBlock: KIFKEQ_clean_linker_1, # of connection points: 2
#     Edge 41, Type (0, 0), BuildingBlock: KIFKEQ_clean_linker_1, # of connection points: 2
#     Edge 42, Type (0, 0), BuildingBlock: KIFKEQ_clean_linker_1, # of connection points: 2
#     Edge 43, Type (0, 0), BuildingBlock: KIFKEQ_clean_linker_1, # of connection points: 2
#     Edge 44, Type (0, 0), BuildingBlock: KIFKEQ_clean_linker_1, # of connection points: 2
#     Edge 45, Type (0, 0), BuildingBlock: KIFKEQ_clean_linker_1, # of connection points: 2
#     Edge 46, Type (0, 0), BuildingBlock: KIFKEQ_clean_linker_1, # of connection points: 2
#     Edge 47, Type (0, 0), BuildingBlock: KIFKEQ_clean_linker_1, # of connection points: 2
# Relax obj value: 0.055
# Max RMSD: 0.170
# Mean RMSD: 0.170
data_MOF--net-umc--node1-KOZSID_clean_sbu_0--edge1-KIFKEQ_clean_linker_1
_symmetry_space_group_name_H-M    P1
_symmetry_Int_Tables_number       1
_symmetry_cell_setting            triclinic
loop_
_symmetry_equiv_pos_as_xyz
'x, y, z'
_cell_length_a     67.935429
_cell_length_b     40.103014
_cell_length_c     63.328092
_cell_angle_alpha  90.007491
_cell_angle_beta   90.066047
_cell_angle_gamma 89.990413
loop_
_atom_site_label
_atom_site_type_symbol
_atom_site_fract_x
_atom_site_fract_y
_atom_site_fract_z
_atom_type_partial_charge
C0 C 0.37298 0.05221 0.3421 0.0
C1 C 0.36192 0.02349 0.339 0.0
C2 C 0.35229 0.01731 0.35758 0.0
C3 C 0.35805 0.04235 0.371 0.0
N4 N 0.37074 0.06388 0.36206 0.0
Co5 Co 0.38295 0.10306 0.3761 0.0
N6 N 0.37689 0.0853 0.40463 0.0
C7 C 0.36371 0.06119 0.40901 0.0
C8 C 0.36255 0.05387 0.43012 0.0
C9 C 0.37566 0.07493 0.4397 0.0
C10 C 0.38405 0.09416 0.42382 0.0
N11 N 0.3951 0.14227 0.39019 0.0
C12 C 0.40046 0.14683 0.41068 0.0
C13 C 0.40769 0.17881 0.41378 0.0
C14 C 0.40661 0.19479 0.39461 0.0
C15 C 0.39878 0.17179 0.38088 0.0
N16 N 0.38884 0.12039 0.34743 0.0
C17 C 0.39309 0.15226 0.34267 0.0
C18 C 0.39659 0.15682 0.32148 0.0
C19 C 0.39431 0.12588 0.31241 0.0
C20 C 0.38958 0.10407 0.32862 0.0
N21 N 0.35736 0.12701 0.37574 0.0
C22 C 0.32408 0.16957 0.37376 0.0
C23 C 0.32919 0.14888 0.35668 0.0
C24 C 0.34588 0.12801 0.35794 0.0
C25 C 0.33552 0.16711 0.39214 0.0
C26 C 0.35179 0.14558 0.3929 0.0
N27 N 0.40873 0.08038 0.37645 0.0
C28 C 0.4438 0.08332 0.37049 0.0
C29 C 0.4464 0.05034 0.37726 0.0
C30 C 0.42951 0.0327 0.3837 0.0
C31 C 0.41085 0.0481 0.3831 0.0
C32 C 0.42506 0.0977 0.3702 0.0
H33 H 0.39815 0.03396 0.38806 0.0
H34 H 0.42389 0.12316 0.36499 0.0
H35 H 0.34983 0.11345 0.34425 0.0
H36 H 0.36022 0.14488 0.4073 0.0
C37 C 0.35494 0.04282 0.39279 0.0
C38 C 0.38456 0.06865 0.32552 0.0
C39 C 0.39714 0.12267 0.42785 0.0
C40 C 0.39705 0.1753 0.35886 0.0
H41 H 0.36094 0.00844 0.32486 0.0
H42 H 0.34298 0.99616 0.36117 0.0
H43 H 0.35366 0.03486 0.43761 0.0
H44 H 0.37846 0.07629 0.4565 0.0
H45 H 0.41287 0.18961 0.42843 0.0
H46 H 0.41135 0.21993 0.39105 0.0
H47 H 0.40105 0.17958 0.31365 0.0
H48 H 0.39589 0.12002 0.29582 0.0
H49 H 0.3208 0.1497 0.34215 0.0
H50 H 0.33199 0.18195 0.40592 0.0
H51 H 0.45626 0.0984 0.36575 0.0
H52 H 0.43061 0.00707 0.38892 0.0
C53 C 0.65933 0.95321 0.34261 0.0
C54 C 0.67061 0.98152 0.33906 0.0
C55 C 0.68048 0.98799 0.3575 0.0
C56 C 0.67468 0.96341 0.37123 0.0
N57 N 0.66178 0.9419 0.3626 0.0
Co58 Co 0.64971 0.903 0.37698 0.0
N59 N 0.65585 0.92149 0.40532 0.0
C60 C 0.66905 0.9457 0.40945 0.0
C61 C 0.67024 0.95353 0.43049 0.0
C62 C 0.65714 0.9327 0.44027 0.0
C63 C 0.64871 0.91308 0.42457 0.0
N64 N 0.63785 0.86395 0.39141 0.0
C65 C 0.63267 0.85974 0.41196 0.0
C66 C 0.62562 0.82772 0.41535 0.0
C67 C 0.62664 0.81138 0.3963 0.0
C68 C 0.63424 0.83421 0.38234 0.0
N69 N 0.6436 0.88514 0.34847 0.0
C70 C 0.63936 0.8532 0.34394 0.0
C71 C 0.6356 0.84837 0.32281 0.0
C72 C 0.63767 0.87923 0.31356 0.0
C73 C 0.64258 0.90125 0.3296 0.0
N74 N 0.67536 0.87916 0.37673 0.0
C75 C 0.70897 0.83708 0.37561 0.0
C76 C 0.70274 0.85479 0.35761 0.0
C77 C 0.68613 0.87588 0.35855 0.0
C78 C 0.69827 0.84201 0.39429 0.0
C79 C 0.68166 0.86284 0.39451 0.0
N80 N 0.62388 0.92551 0.37731 0.0
C81 C 0.58868 0.92185 0.3724 0.0
C82 C 0.58608 0.95492 0.37899 0.0
C83 C 0.60307 0.9732 0.38435 0.0
C84 C 0.62179 0.95803 0.38347 0.0
C85 C 0.60749 0.90778 0.37166 0.0
H86 H 0.63453 0.97248 0.38794 0.0
H87 H 0.60868 0.88226 0.36658 0.0
H88 H 0.68171 0.88887 0.34439 0.0
H89 H 0.67357 0.86475 0.40906 0.0
C90 C 0.67788 0.96353 0.39303 0.0
C91 C 0.64734 0.93674 0.32638 0.0
C92 C 0.63581 0.88445 0.42887 0.0
C93 C 0.6357 0.83035 0.36031 0.0
H94 H 0.67158 0.99605 0.3247 0.0
H95 H 0.68997 0.00905 0.36078 0.0
H96 H 0.67917 0.97267 0.43781 0.0
H97 H 0.65442 0.93167 0.45709 0.0
H98 H 0.62054 0.81718 0.4301 0.0
H99 H 0.62194 0.78613 0.39296 0.0
H100 H 0.63108 0.82549 0.31515 0.0
H101 H 0.63581 0.8849 0.29697 0.0
H102 H 0.71064 0.85241 0.34284 0.0
H103 H 0.70224 0.8289 0.40862 0.0
H104 H 0.57623 0.90678 0.36761 0.0
H105 H 0.60193 0.99881 0.38961 0.0
C106 C 0.37288 0.953 0.17225 0.0
C107 C 0.36191 0.98172 0.17568 0.0
C108 C 0.35208 0.98828 0.15723 0.0
C109 C 0.35761 0.96339 0.14359 0.0
N110 N 0.37033 0.94162 0.15227 0.0
Co111 Co 0.38206 0.90231 0.13795 0.0
N112 N 0.3758 0.92052 0.10957 0.0
C113 C 0.36273 0.94493 0.10543 0.0
C114 C 0.36143 0.95253 0.08436 0.0
C115 C 0.37433 0.93136 0.07457 0.0
C116 C 0.38275 0.91178 0.09029 0.0
N117 N 0.39364 0.86293 0.12358 0.0
C118 C 0.39875 0.85848 0.10302 0.0
C119 C 0.40565 0.82634 0.09971 0.0
C120 C 0.40463 0.81018 0.11881 0.0
C121 C 0.39717 0.83322 0.13273 0.0
N122 N 0.38823 0.8846 0.16648 0.0
C123 C 0.39228 0.8526 0.17108 0.0
C124 C 0.39601 0.84778 0.19221 0.0
C125 C 0.3941 0.8787 0.20141 0.0
C126 C 0.38932 0.90074 0.18534 0.0
N127 N 0.35632 0.87902 0.13854 0.0
C128 C 0.3226 0.83738 0.14037 0.0
C129 C 0.32871 0.85621 0.15797 0.0
C130 C 0.34544 0.87692 0.1567 0.0
C131 C 0.33347 0.84109 0.12167 0.0
C132 C 0.35005 0.86189 0.12107 0.0
N133 N 0.40797 0.92433 0.13729 0.0
C134 C 0.44315 0.92016 0.14198 0.0
C135 C 0.44589 0.95291 0.13486 0.0
C136 C 0.42899 0.97131 0.12936 0.0
C137 C 0.4102 0.95658 0.13066 0.0
C138 C 0.42427 0.90648 0.14306 0.0
H139 H 0.39752 0.9711 0.1261 0.0
H140 H 0.42296 0.88115 0.14847 0.0
H141 H 0.34987 0.89055 0.17061 0.0
H142 H 0.35819 0.86305 0.10652 0.0
C143 C 0.35422 0.96325 0.12183 0.0
C144 C 0.38462 0.93625 0.1886 0.0
C145 C 0.39559 0.88303 0.08603 0.0
C146 C 0.39576 0.82957 0.15477 0.0
H147 H 0.3611 0.99645 0.18997 0.0
H148 H 0.34277 0.00954 0.15389 0.0
H149 H 0.3526 0.9718 0.07704 0.0
H150 H 0.37697 0.93015 0.05774 0.0
H151 H 0.41062 0.8156 0.08497 0.0
H152 H 0.40922 0.7849 0.12222 0.0
H153 H 0.40038 0.82484 0.19991 0.0
H154 H 0.39594 0.88438 0.218 0.0
H155 H 0.3207 0.85492 0.17271 0.0
H156 H 0.32971 0.82708 0.10763 0.0
H157 H 0.45554 0.90504 0.14692 0.0
H158 H 0.43025 0.99669 0.12369 0.0
C159 C 0.65891 0.05658 0.17393 0.0
C160 C 0.66904 0.02679 0.17668 0.0
C161 C 0.67647 0.0182 0.15747 0.0
C162 C 0.67041 0.04294 0.14407 0.0
N163 N 0.65971 0.06709 0.15352 0.0
Co164 Co 0.64741 0.10676 0.13932 0.0
N165 N 0.65513 0.09031 0.11054 0.0
C166 C 0.66509 0.06198 0.10614 0.0
C167 C 0.66749 0.05601 0.08503 0.0
C168 C 0.65842 0.08204 0.07522 0.0
C169 C 0.65114 0.10267 0.09104 0.0
N170 N 0.63556 0.1468 0.12508 0.0
C171 C 0.6339 0.15455 0.10421 0.0
C172 C 0.625 0.18533 0.10136 0.0
C173 C 0.6208 0.19739 0.12105 0.0
C174 C 0.62742 0.17347 0.13482 0.0
N175 N 0.63892 0.12213 0.16816 0.0
C176 C 0.62916 0.15066 0.17268 0.0
C177 C 0.62404 0.1535 0.19354 0.0
C178 C 0.63057 0.12478 0.20286 0.0
C179 C 0.63936 0.10596 0.1871 0.0
N180 N 0.67299 0.13211 0.14181 0.0
C181 C 0.70768 0.17269 0.14176 0.0
C182 C 0.69022 0.18314 0.15141 0.0
C183 C 0.6735 0.16274 0.15147 0.0
C184 C 0.70749 0.14073 0.1326 0.0
C185 C 0.69022 0.12106 0.13285 0.0
N186 N 0.62185 0.0825 0.13679 0.0
C187 C 0.58631 0.08341 0.13993 0.0
C188 C 0.58492 0.04946 0.13532 0.0
C189 C 0.60249 0.03237 0.13087 0.0
C190 C 0.62072 0.04924 0.13176 0.0
C191 C 0.60459 0.09917 0.14052 0.0
H192 H 0.63376 0.03506 0.12853 0.0
H193 H 0.60433 0.12502 0.14419 0.0
H194 H 0.66108 0.17291 0.15922 0.0
H195 H 0.69115 0.09711 0.12554 0.0
C196 C 0.67211 0.04158 0.12222 0.0
C197 C 0.64793 0.0729 0.19093 0.0
C198 C 0.64065 0.13373 0.08662 0.0
C199 C 0.62456 0.17375 0.15676 0.0
H200 H 0.6704 0.012 0.19088 0.0
H201 H 0.68444 0.99567 0.15353 0.0
H202 H 0.67485 0.03511 0.07764 0.0
H203 H 0.65728 0.08533 0.05831 0.0
H204 H 0.62175 0.19764 0.08655 0.0
H205 H 0.61339 0.22052 0.12485 0.0
H206 H 0.61614 0.17374 0.20103 0.0
H207 H 0.62889 0.11823 0.21933 0.0
H208 H 0.68909 0.20757 0.15857 0.0
H209 H 0.72061 0.13071 0.12528 0.0
H210 H 0.57323 0.09811 0.14296 0.0
H211 H 0.60225 0.00601 0.12715 0.0
C212 C 0.64097 0.90034 0.68654 0.0
C213 C 0.63451 0.87888 0.70227 0.0
C214 C 0.63241 0.848 0.6931 0.0
C215 C 0.63747 0.85221 0.67227 0.0
N216 N 0.64252 0.88385 0.66782 0.0
Co217 Co 0.64924 0.90126 0.63935 0.0
N218 N 0.63702 0.86267 0.62472 0.0
C219 C 0.63253 0.83331 0.63381 0.0
C220 C 0.62408 0.81125 0.61991 0.0
C221 C 0.62345 0.82765 0.60087 0.0
C222 C 0.63172 0.85889 0.60414 0.0
N223 N 0.65618 0.91919 0.61113 0.0
C224 C 0.64947 0.91074 0.59169 0.0
C225 C 0.65938 0.92854 0.57613 0.0
C226 C 0.6727 0.9486 0.58623 0.0
C227 C 0.67031 0.94195 0.6073 0.0
N228 N 0.66157 0.93976 0.65385 0.0
C229 C 0.67531 0.96002 0.64557 0.0
C230 C 0.6817 0.9839 0.6595 0.0
C231 C 0.67133 0.97825 0.67771 0.0
C232 C 0.65905 0.95125 0.67379 0.0
N233 N 0.67456 0.87657 0.64023 0.0
C234 C 0.70801 0.83418 0.64223 0.0
C235 C 0.69717 0.83809 0.6235 0.0
C236 C 0.6807 0.85916 0.62283 0.0
C237 C 0.70208 0.85333 0.65976 0.0
C238 C 0.68542 0.87428 0.65843 0.0
N239 N 0.62371 0.92473 0.63845 0.0
C240 C 0.60344 0.97281 0.63056 0.0
C241 C 0.58643 0.95588 0.63732 0.0
C242 C 0.58862 0.92306 0.64444 0.0
C243 C 0.60716 0.90803 0.64473 0.0
C244 C 0.62196 0.9569 0.63143 0.0
H245 H 0.60798 0.88261 0.65005 0.0
H246 H 0.63485 0.97052 0.62643 0.0
H247 H 0.67263 0.86059 0.60821 0.0
H248 H 0.68102 0.88794 0.67234 0.0
C249 C 0.63357 0.82958 0.65585 0.0
C250 C 0.64631 0.93577 0.68976 0.0
C251 C 0.6356 0.88341 0.58723 0.0
C252 C 0.67921 0.95937 0.6239 0.0
H253 H 0.63129 0.88479 0.71855 0.0
H254 H 0.6267 0.82567 0.70049 0.0
H255 H 0.6184 0.78663 0.62333 0.0
H256 H 0.61764 0.81764 0.58628 0.0
H257 H 0.65762 0.92663 0.55919 0.0
H258 H 0.6827 0.96629 0.57906 0.0
H259 H 0.6921 0.0038 0.65656 0.0
H260 H 0.67277 0.99226 0.69224 0.0
H261 H 0.70127 0.82478 0.6093 0.0
H262 H 0.70983 0.85141 0.67465 0.0
H263 H 0.6025 0.99828 0.62499 0.0
H264 H 0.57596 0.90872 0.6495 0.0
C265 C 0.39071 0.10432 0.68531 0.0
C266 C 0.39554 0.12606 0.70153 0.0
C267 C 0.39769 0.15706 0.69252 0.0
C268 C 0.39401 0.15259 0.67135 0.0
N269 N 0.38978 0.12073 0.66655 0.0
Co270 Co 0.38361 0.10354 0.63788 0.0
N271 N 0.39547 0.14292 0.62375 0.0
C272 C 0.39946 0.17226 0.63315 0.0
C273 C 0.40773 0.19495 0.61956 0.0
C274 C 0.40877 0.17899 0.60039 0.0
C275 C 0.4009 0.14738 0.60327 0.0
N276 N 0.37719 0.08596 0.60939 0.0
C277 C 0.38387 0.09525 0.5901 0.0
C278 C 0.37438 0.07738 0.57425 0.0
C279 C 0.36141 0.05632 0.584 0.0
C280 C 0.36356 0.06251 0.60516 0.0
N281 N 0.37171 0.06417 0.65192 0.0
C282 C 0.35879 0.04286 0.64312 0.0
C283 C 0.35315 0.01778 0.65656 0.0
C284 C 0.36309 0.02376 0.67502 0.0
C285 C 0.37422 0.05236 0.67181 0.0
N286 N 0.35795 0.1272 0.63863 0.0
C287 C 0.3238 0.16791 0.64062 0.0
C288 C 0.33498 0.16527 0.62205 0.0
C289 C 0.35178 0.14496 0.62137 0.0
C290 C 0.32995 0.14871 0.65804 0.0
C291 C 0.34689 0.1285 0.65669 0.0
N292 N 0.40945 0.08109 0.63716 0.0
C293 C 0.43038 0.03391 0.62912 0.0
C294 C 0.4471 0.05118 0.63639 0.0
C295 C 0.44443 0.08374 0.64383 0.0
C296 C 0.42572 0.09816 0.64394 0.0
C297 C 0.41168 0.04919 0.62981 0.0
H298 H 0.4245 0.1234 0.64953 0.0
H299 H 0.39903 0.03527 0.62442 0.0
H300 H 0.3601 0.1445 0.60691 0.0
H301 H 0.35128 0.11447 0.67046 0.0
C302 C 0.39791 0.17566 0.65519 0.0
C303 C 0.38589 0.06882 0.68834 0.0
C304 C 0.39742 0.12317 0.58607 0.0
C305 C 0.35507 0.0439 0.62144 0.0
H306 H 0.39732 0.12011 0.7181 0.0
H307 H 0.40221 0.17978 0.70036 0.0
H308 H 0.41298 0.21976 0.62325 0.0
H309 H 0.41453 0.18957 0.58595 0.0
H310 H 0.37622 0.07978 0.55735 0.0
H311 H 0.35184 0.03821 0.57654 0.0
H312 H 0.34362 0.99686 0.6531 0.0
H313 H 0.36218 0.00881 0.68921 0.0
H314 H 0.33119 0.17965 0.60816 0.0
H315 H 0.32174 0.14922 0.67268 0.0
H316 H 0.43168 0.00862 0.6233 0.0
H317 H 0.45685 0.09834 0.6493 0.0
C318 C 0.63783 0.10803 0.8279 0.0
C319 C 0.62822 0.12672 0.81259 0.0
C320 C 0.62229 0.15563 0.82209 0.0
C321 C 0.62836 0.15295 0.84267 0.0
N322 N 0.63816 0.12431 0.84683 0.0
Co323 Co 0.64691 0.10833 0.87548 0.0
N324 N 0.63506 0.14787 0.89019 0.0
C325 C 0.62678 0.17471 0.88078 0.0
C326 C 0.61994 0.198 0.89484 0.0
C327 C 0.62409 0.18528 0.91438 0.0
C328 C 0.63329 0.15483 0.91116 0.0
N329 N 0.65498 0.09126 0.90401 0.0
C330 C 0.65099 0.10299 0.92366 0.0
C331 C 0.65945 0.08307 0.93917 0.0
C332 C 0.66879 0.05764 0.92903 0.0
C333 C 0.66561 0.06345 0.908 0.0
N334 N 0.65912 0.06913 0.86085 0.0
C335 C 0.67057 0.04548 0.8698 0.0
C336 C 0.67738 0.0221 0.85584 0.0
C337 C 0.66952 0.03096 0.83684 0.0
C338 C 0.65809 0.05914 0.84038 0.0
N339 N 0.67242 0.13399 0.87298 0.0
C340 C 0.70695 0.17464 0.8733 0.0
C341 C 0.70712 0.1422 0.88156 0.0
C342 C 0.68988 0.12255 0.8813 0.0
C343 C 0.68942 0.18558 0.8641 0.0
C344 C 0.67272 0.1651 0.8639 0.0
N345 N 0.62151 0.08377 0.87802 0.0
C346 C 0.60248 0.03348 0.8844 0.0
C347 C 0.58488 0.05009 0.87942 0.0
C348 C 0.58603 0.08386 0.87433 0.0
C349 C 0.60418 0.10003 0.87391 0.0
C350 C 0.6206 0.05066 0.88344 0.0
H351 H 0.60379 0.12581 0.87004 0.0
H352 H 0.63376 0.03688 0.88692 0.0
H353 H 0.69105 0.0984 0.88818 0.0
H354 H 0.66021 0.17546 0.8564 0.0
C355 C 0.62381 0.17556 0.85887 0.0
C356 C 0.64582 0.07447 0.82402 0.0
C357 C 0.6396 0.13299 0.92847 0.0
C358 C 0.6727 0.04363 0.89163 0.0
H359 H 0.62527 0.11991 0.79638 0.0
H360 H 0.61384 0.17562 0.81503 0.0
H361 H 0.61228 0.22101 0.89133 0.0
H362 H 0.62045 0.19683 0.92932 0.0
H363 H 0.65904 0.08659 0.95611 0.0
H364 H 0.67698 0.03737 0.93613 0.0
H365 H 0.68634 1.00042 0.85922 0.0
H366 H 0.67155 0.01761 0.82215 0.0
H367 H 0.72036 0.13226 0.88873 0.0
H368 H 0.68854 0.21004 0.85689 0.0
H369 H 0.60232 0.00726 0.88849 0.0
H370 H 0.57284 0.09798 0.87075 0.0
C371 C 0.38979 0.90191 0.82863 0.0
C372 C 0.39454 0.88016 0.8124 0.0
C373 C 0.39655 0.84911 0.82137 0.0
C374 C 0.39288 0.85354 0.84254 0.0
N375 N 0.38877 0.88544 0.84737 0.0
Co376 Co 0.38263 0.9026 0.87604 0.0
N377 N 0.39435 0.86305 0.89015 0.0
C378 C 0.39822 0.83369 0.88073 0.0
C379 C 0.4064 0.81086 0.89432 0.0
C380 C 0.4075 0.82676 0.91351 0.0
C381 C 0.39977 0.85848 0.91063 0.0
N382 N 0.37625 0.92014 0.90453 0.0
C383 C 0.38292 0.91075 0.92382 0.0
C384 C 0.3735 0.92868 0.93968 0.0
C385 C 0.36058 0.94989 0.92993 0.0
C386 C 0.3627 0.94372 0.90876 0.0
N387 N 0.37087 0.94214 0.86201 0.0
C388 C 0.35805 0.96359 0.87081 0.0
C389 C 0.35255 0.98883 0.85742 0.0
C390 C 0.36247 0.98282 0.83898 0.0
C391 C 0.37343 0.954 0.84215 0.0
N392 N 0.35695 0.87924 0.87519 0.0
C393 C 0.32288 0.83856 0.87304 0.0
C394 C 0.334 0.84118 0.89166 0.0
C395 C 0.35076 0.86149 0.89242 0.0
C396 C 0.32899 0.85781 0.85565 0.0
C397 C 0.34591 0.87803 0.85708 0.0
N398 N 0.4085 0.92474 0.8769 0.0
C399 C 0.42958 0.97146 0.8854 0.0
C400 C 0.44623 0.95397 0.87823 0.0
C401 C 0.44347 0.92158 0.87056 0.0
C402 C 0.4247 0.90748 0.87017 0.0
C403 C 0.41082 0.95651 0.88442 0.0
H404 H 0.42339 0.88233 0.86445 0.0
H405 H 0.39822 0.97055 0.88976 0.0
H406 H 0.35906 0.86192 0.90692 0.0
H407 H 0.35032 0.89208 0.84334 0.0
C408 C 0.39667 0.83037 0.85868 0.0
C409 C 0.38504 0.93745 0.82562 0.0
C410 C 0.39639 0.8827 0.92784 0.0
C411 C 0.3543 0.96249 0.89249 0.0
H412 H 0.39634 0.88614 0.79585 0.0
H413 H 0.40099 0.82635 0.81352 0.0
H414 H 0.41154 0.786 0.89062 0.0
H415 H 0.41321 0.81608 0.92795 0.0
H416 H 0.37536 0.92624 0.95657 0.0
H417 H 0.35109 0.96808 0.93738 0.0
H418 H 0.34313 0.00989 0.8609 0.0
H419 H 0.36167 0.99793 0.82486 0.0
H420 H 0.33022 0.82674 0.90552 0.0
H421 H 0.32081 0.85729 0.84098 0.0
H422 H 0.43099 0.99664 0.89137 0.0
H423 H 0.45585 0.90687 0.86514 0.0
C424 C 0.8735 0.55747 0.34024 0.0
C425 C 0.86332 0.52777 0.33733 0.0
C426 C 0.85605 0.51886 0.35655 0.0
C427 C 0.86221 0.54338 0.37006 0.0
N428 N 0.87273 0.56781 0.36066 0.0
Co429 Co 0.88542 0.60703 0.37497 0.0
N430 N 0.87761 0.59048 0.4037 0.0
C431 C 0.86688 0.56292 0.40798 0.0
C432 C 0.8643 0.55697 0.42907 0.0
C433 C 0.874 0.58222 0.43897 0.0
C434 C 0.88188 0.60239 0.42325 0.0
N435 N 0.89826 0.64605 0.38937 0.0
C436 C 0.90059 0.65294 0.41031 0.0
C437 C 0.91062 0.68267 0.41334 0.0
C438 C 0.91489 0.69489 0.39371 0.0
C439 C 0.90724 0.67208 0.37979 0.0
N440 N 0.8934 0.62304 0.34611 0.0
C441 C 0.90285 0.65187 0.34156 0.0
C442 C 0.90744 0.65516 0.32057 0.0
C443 C 0.90083 0.62653 0.3112 0.0
C444 C 0.89257 0.60727 0.32705 0.0
N445 N 0.86004 0.63327 0.37304 0.0
C446 C 0.8254 0.67389 0.37351 0.0
C447 C 0.84347 0.68617 0.36651 0.0
C448 C 0.86021 0.66579 0.36625 0.0
C449 C 0.82482 0.64019 0.37953 0.0
C450 C 0.84215 0.62056 0.37926 0.0
N451 N 0.91078 0.58185 0.37695 0.0
C452 C 0.94608 0.58065 0.37134 0.0
C453 C 0.94744 0.54786 0.37849 0.0
C454 C 0.93002 0.53236 0.38529 0.0
C455 C 0.91189 0.54962 0.38421 0.0
C456 C 0.92796 0.59697 0.37086 0.0
H457 H 0.8989 0.53659 0.38917 0.0
H458 H 0.92829 0.62199 0.36541 0.0
H459 H 0.87315 0.67738 0.36061 0.0
H460 H 0.84075 0.59531 0.38439 0.0
C461 C 0.86012 0.54228 0.39188 0.0
C462 C 0.88442 0.57391 0.3233 0.0
C463 C 0.89341 0.63232 0.42781 0.0
C464 C 0.90897 0.67356 0.3577 0.0
H465 H 0.86179 0.5134 0.32297 0.0
H466 H 0.84798 0.49639 0.36038 0.0
H467 H 0.85657 0.53639 0.43637 0.0
H468 H 0.87528 0.58515 0.4559 0.0
H469 H 0.91449 0.69421 0.42822 0.0
H470 H 0.92286 0.71753 0.39003 0.0
H471 H 0.91536 0.67538 0.31309 0.0
H472 H 0.9023 0.62015 0.29467 0.0
H473 H 0.84479 0.7117 0.36109 0.0
H474 H 0.81119 0.62919 0.38499 0.0
H475 H 0.9591 0.59402 0.36626 0.0
H476 H 0.9303 0.5069 0.39098 0.0
C477 C 0.16017 0.45312 0.34288 0.0
C478 C 0.17092 0.48222 0.33995 0.0
C479 C 0.18042 0.48854 0.35861 0.0
C480 C 0.1749 0.46321 0.37191 0.0
N481 N 0.16246 0.44137 0.36282 0.0
Co482 Co 0.15062 0.40173 0.37669 0.0
N483 N 0.15652 0.4194 0.4053 0.0
C484 C 0.16952 0.44374 0.40981 0.0
C485 C 0.17062 0.45087 0.43096 0.0
C486 C 0.15765 0.42947 0.44041 0.0
C487 C 0.14939 0.41024 0.42442 0.0
N488 N 0.1388 0.36213 0.3906 0.0
C489 C 0.1334 0.35734 0.41105 0.0
C490 C 0.12642 0.32518 0.41402 0.0
C491 C 0.1277 0.30934 0.39482 0.0
C492 C 0.13538 0.33259 0.38119 0.0
N493 N 0.14496 0.38445 0.34792 0.0
C494 C 0.14104 0.35249 0.34306 0.0
C495 C 0.13769 0.34794 0.32184 0.0
C496 C 0.13972 0.37898 0.31285 0.0
C497 C 0.14416 0.40084 0.32914 0.0
N498 N 0.17642 0.37844 0.37634 0.0
C499 C 0.20986 0.33627 0.37421 0.0
C500 C 0.20468 0.35713 0.35724 0.0
C501 C 0.18791 0.3778 0.35856 0.0
C502 C 0.19844 0.33843 0.39259 0.0
C503 C 0.18209 0.35978 0.39343 0.0
N504 N 0.12462 0.42368 0.37705 0.0
C505 C 0.08966 0.41994 0.37046 0.0
C506 C 0.08663 0.45231 0.37807 0.0
C507 C 0.10318 0.4701 0.38527 0.0
C508 C 0.12205 0.45546 0.38447 0.0
C509 C 0.10855 0.40617 0.37019 0.0
H510 H 0.13453 0.46974 0.3899 0.0
H511 H 0.11005 0.38102 0.36451 0.0
H512 H 0.18389 0.39247 0.34493 0.0
H513 H 0.17366 0.36021 0.40781 0.0
C514 C 0.17807 0.46256 0.39369 0.0
C515 C 0.1489 0.43639 0.32612 0.0
C516 C 0.13643 0.38154 0.42828 0.0
C517 C 0.13723 0.32926 0.35917 0.0
H518 H 0.17179 0.49741 0.32587 0.0
H519 H 0.18951 0.50992 0.36232 0.0
H520 H 0.17934 0.47003 0.43855 0.0
H521 H 0.15485 0.4279 0.4572 0.0
H522 H 0.12127 0.31419 0.42862 0.0
H523 H 0.12317 0.28411 0.39118 0.0
H524 H 0.13349 0.32509 0.31393 0.0
H525 H 0.13817 0.38487 0.29625 0.0
H526 H 0.21306 0.35654 0.34271 0.0
H527 H 0.20203 0.32347 0.40631 0.0
H528 H 0.07741 0.40492 0.36502 0.0
H529 H 0.10163 0.4953 0.39119 0.0
C530 C 0.87351 0.44994 0.17224 0.0
C531 C 0.86321 0.47956 0.17495 0.0
C532 C 0.85583 0.48806 0.15569 0.0
C533 C 0.86203 0.46336 0.14233 0.0
N534 N 0.87274 0.43929 0.15187 0.0
Co535 Co 0.88505 0.39947 0.13787 0.0
N536 N 0.87727 0.41559 0.10902 0.0
C537 C 0.86722 0.4438 0.1045 0.0
C538 C 0.86479 0.44951 0.08335 0.0
C539 C 0.87392 0.42344 0.07367 0.0
C540 C 0.88128 0.40305 0.08957 0.0
N541 N 0.89701 0.35937 0.12382 0.0
C542 C 0.89874 0.3515 0.10298 0.0
C543 C 0.90782 0.32083 0.10025 0.0
C544 C 0.91204 0.30898 0.12 0.0
C545 C 0.90528 0.33291 0.13367 0.0
N546 N 0.89347 0.38435 0.16679 0.0
C547 C 0.90315 0.3558 0.1715 0.0
C548 C 0.90825 0.35323 0.1924 0.0
C549 C 0.90177 0.38211 0.20155 0.0
C550 C 0.89303 0.40074 0.18566 0.0
N551 N 0.85949 0.37407 0.14035 0.0
C552 C 0.82505 0.33327 0.1395 0.0
C553 C 0.84249 0.32238 0.14891 0.0
C554 C 0.85914 0.34295 0.1494 0.0
C555 C 0.82488 0.36584 0.13139 0.0
C556 C 0.84211 0.38559 0.13191 0.0
N557 N 0.91059 0.42376 0.13526 0.0
C558 C 0.94619 0.42255 0.13747 0.0
C559 C 0.94765 0.45603 0.13166 0.0
C560 C 0.92999 0.47336 0.12793 0.0
C561 C 0.91171 0.4568 0.12972 0.0
C562 C 0.92786 0.40718 0.13914 0.0
H563 H 0.89865 0.47097 0.12655 0.0
H564 H 0.92809 0.38169 0.14368 0.0
H565 H 0.87159 0.33262 0.15704 0.0
H566 H 0.84108 0.40989 0.12511 0.0
C567 C 0.86027 0.46448 0.12046 0.0
C568 C 0.88461 0.43395 0.18925 0.0
C569 C 0.89193 0.37208 0.0853 0.0
C570 C 0.90798 0.33271 0.15565 0.0
H571 H 0.8617 0.49419 0.18921 0.0
H572 H 0.84774 0.51045 0.1517 0.0
H573 H 0.8574 0.4703 0.07586 0.0
H574 H 0.87507 0.42001 0.05677 0.0
H575 H 0.91115 0.30845 0.08549 0.0
H576 H 0.91954 0.28597 0.1239 0.0
H577 H 0.91617 0.3331 0.2 0.0
H578 H 0.9035 0.38895 0.21798 0.0
H579 H 0.84334 0.29785 0.15603 0.0
H580 H 0.81168 0.37576 0.12413 0.0
H581 H 0.95923 0.40806 0.14109 0.0
H582 H 0.93024 0.49937 0.12336 0.0
C583 C 0.15999 0.55084 0.17244 0.0
C584 C 0.17094 0.52212 0.17598 0.0
C585 C 0.18071 0.51535 0.15755 0.0
C586 C 0.17519 0.54014 0.14383 0.0
N587 N 0.16252 0.56205 0.15243 0.0
Co588 Co 0.15087 0.60134 0.13799 0.0
N589 N 0.15705 0.58288 0.10966 0.0
C590 C 0.17009 0.55839 0.10561 0.0
C591 C 0.17139 0.55069 0.08455 0.0
C592 C 0.15854 0.57188 0.07469 0.0
C593 C 0.15013 0.59156 0.09034 0.0
N594 N 0.13934 0.64067 0.1235 0.0
C595 C 0.13423 0.64501 0.10291 0.0
C596 C 0.12738 0.67716 0.09951 0.0
C597 C 0.12844 0.69345 0.11858 0.0
C598 C 0.13587 0.67046 0.13256 0.0
N599 N 0.14482 0.61931 0.16648 0.0
C600 C 0.14085 0.65138 0.17098 0.0
C601 C 0.13719 0.65639 0.1921 0.0
C602 C 0.13907 0.62554 0.2014 0.0
C603 C 0.14376 0.60334 0.18539 0.0
N604 N 0.17666 0.62448 0.13853 0.0
C605 C 0.2104 0.66609 0.14034 0.0
C606 C 0.20431 0.64731 0.15795 0.0
C607 C 0.18757 0.62662 0.15669 0.0
C608 C 0.19951 0.6623 0.12163 0.0
C609 C 0.18292 0.64152 0.12104 0.0
N610 N 0.12491 0.57948 0.1374 0.0
C611 C 0.0898 0.58364 0.14268 0.0
C612 C 0.08696 0.55093 0.13555 0.0
C613 C 0.10372 0.53271 0.12941 0.0
C614 C 0.12254 0.54736 0.13057 0.0
C615 C 0.1087 0.59733 0.14344 0.0
H616 H 0.13515 0.53282 0.12582 0.0
H617 H 0.11009 0.62271 0.14874 0.0
H618 H 0.18315 0.61305 0.17062 0.0
H619 H 0.17477 0.6403 0.10648 0.0
C620 C 0.17856 0.54013 0.12207 0.0
C621 C 0.14835 0.5678 0.18875 0.0
C622 C 0.13735 0.62034 0.08598 0.0
C623 C 0.13735 0.67427 0.15459 0.0
H624 H 0.17178 0.50756 0.19033 0.0
H625 H 0.19 0.49404 0.15429 0.0
H626 H 0.18021 0.53136 0.07729 0.0
H627 H 0.15593 0.57305 0.05784 0.0
H628 H 0.12243 0.68783 0.08473 0.0
H629 H 0.12391 0.71878 0.12191 0.0
H630 H 0.13288 0.67942 0.19972 0.0
H631 H 0.13725 0.62001 0.21801 0.0
H632 H 0.21234 0.64865 0.1727 0.0
H633 H 0.20326 0.67626 0.10758 0.0
H634 H 0.07743 0.59903 0.14727 0.0
H635 H 0.10235 0.50724 0.12394 0.0
C636 C 0.14096 0.3986 0.6861 0.0
C637 C 0.13445 0.37715 0.70181 0.0
C638 C 0.13217 0.34635 0.69259 0.0
C639 C 0.13716 0.3506 0.67175 0.0
N640 N 0.14235 0.3822 0.66733 0.0
Co641 Co 0.14908 0.39959 0.63884 0.0
N642 N 0.13668 0.36114 0.62419 0.0
C643 C 0.13205 0.33185 0.63329 0.0
C644 C 0.12355 0.30985 0.61939 0.0
C645 C 0.12303 0.3262 0.60034 0.0
C646 C 0.13143 0.35734 0.60359 0.0
N647 N 0.15605 0.41747 0.6106 0.0
C648 C 0.14938 0.409 0.59113 0.0
C649 C 0.15937 0.42671 0.57558 0.0
C650 C 0.17269 0.44674 0.58571 0.0
C651 C 0.17023 0.44015 0.60678 0.0
N652 N 0.16155 0.43796 0.65336 0.0
C653 C 0.17532 0.45814 0.64505 0.0
C654 C 0.18186 0.4819 0.65899 0.0
C655 C 0.17156 0.47626 0.67724 0.0
C656 C 0.15918 0.44939 0.67334 0.0
N657 N 0.17431 0.37463 0.63966 0.0
C658 C 0.20756 0.33184 0.64157 0.0
C659 C 0.19665 0.33576 0.62289 0.0
C660 C 0.18029 0.35706 0.62226 0.0
C661 C 0.20182 0.35118 0.65908 0.0
C662 C 0.18524 0.37231 0.6578 0.0
N663 N 0.12363 0.42333 0.63798 0.0
C664 C 0.10349 0.4715 0.62989 0.0
C665 C 0.08644 0.45482 0.63677 0.0
C666 C 0.08854 0.42208 0.64407 0.0
C667 C 0.10703 0.40686 0.64438 0.0
C668 C 0.12197 0.45543 0.63082 0.0
H669 H 0.10777 0.38149 0.64979 0.0
H670 H 0.13489 0.46888 0.62573 0.0
H671 H 0.17219 0.35853 0.60767 0.0
H672 H 0.18096 0.38609 0.67171 0.0
C673 C 0.13312 0.32809 0.65532 0.0
C674 C 0.14651 0.43393 0.68941 0.0
C675 C 0.13551 0.38169 0.58663 0.0
C676 C 0.17917 0.45749 0.62338 0.0
H677 H 0.13132 0.383 0.71812 0.0
H678 H 0.12639 0.32407 0.69997 0.0
H679 H 0.11779 0.28528 0.62281 0.0
H680 H 0.11724 0.3162 0.58573 0.0
H681 H 0.15767 0.42476 0.55864 0.0
H682 H 0.18276 0.46433 0.57855 0.0
H683 H 0.19232 0.5017 0.65603 0.0
H684 H 0.17314 0.49017 0.69179 0.0
H685 H 0.20061 0.32227 0.60871 0.0
H686 H 0.20965 0.34926 0.67392 0.0
H687 H 0.10262 0.4969 0.62418 0.0
H688 H 0.07584 0.40794 0.64925 0.0
C689 C 0.89317 0.60691 0.68565 0.0
C690 C 0.8997 0.62818 0.70147 0.0
C691 C 0.9017 0.65918 0.69247 0.0
C692 C 0.89653 0.65524 0.67165 0.0
N693 N 0.89149 0.62364 0.66701 0.0
Co694 Co 0.88469 0.60664 0.63841 0.0
N695 N 0.89658 0.64576 0.62399 0.0
C696 C 0.90099 0.67498 0.63331 0.0
C697 C 0.90884 0.69776 0.61948 0.0
C698 C 0.90913 0.68201 0.60023 0.0
C699 C 0.90131 0.65041 0.60332 0.0
N700 N 0.8777 0.58907 0.61004 0.0
C701 C 0.88404 0.59821 0.59058 0.0
C702 C 0.87433 0.58014 0.57498 0.0
C703 C 0.86143 0.55932 0.58504 0.0
C704 C 0.86388 0.56577 0.60613 0.0
N705 N 0.87267 0.56766 0.65273 0.0
C706 C 0.8591 0.54716 0.64431 0.0
C707 C 0.85285 0.52301 0.65811 0.0
C708 C 0.86314 0.52869 0.67638 0.0
C709 C 0.87524 0.55597 0.67263 0.0
N710 N 0.85922 0.63087 0.63957 0.0
C711 C 0.82506 0.67166 0.64176 0.0
C712 C 0.83609 0.66882 0.6231 0.0
C713 C 0.85286 0.64846 0.62232 0.0
C714 C 0.83145 0.65276 0.65924 0.0
C715 C 0.84841 0.63257 0.6578 0.0
N716 N 0.91034 0.58357 0.63725 0.0
C717 C 0.93071 0.53558 0.62945 0.0
C718 C 0.94771 0.55263 0.63618 0.0
C719 C 0.94546 0.58552 0.64317 0.0
C720 C 0.92688 0.60044 0.64345 0.0
C721 C 0.91216 0.55139 0.63028 0.0
H722 H 0.926 0.62586 0.64875 0.0
H723 H 0.89929 0.53763 0.62533 0.0
H724 H 0.86096 0.64775 0.60773 0.0
H725 H 0.85298 0.61876 0.6716 0.0
C726 C 0.90018 0.6782 0.65538 0.0
C727 C 0.88788 0.57143 0.68875 0.0
C728 C 0.89719 0.62651 0.58613 0.0
C729 C 0.85522 0.54792 0.62265 0.0
H730 H 0.90301 0.62206 0.7177 0.0
H731 H 0.90739 0.68144 0.69998 0.0
H732 H 0.91424 0.72251 0.62306 0.0
H733 H 0.91431 0.69271 0.58557 0.0
H734 H 0.8759 0.58241 0.55804 0.0
H735 H 0.85162 0.54135 0.57783 0.0
H736 H 0.84259 0.50293 0.65504 0.0
H737 H 0.86176 0.5145 0.69084 0.0
H738 H 0.8322 0.68301 0.60917 0.0
H739 H 0.8234 0.65343 0.67397 0.0
H740 H 0.93167 0.51005 0.62398 0.0
H741 H 0.95809 0.59999 0.64819 0.0
C742 C 0.14159 0.60635 0.82792 0.0
C743 C 0.13512 0.62808 0.81232 0.0
C744 C 0.13306 0.65882 0.82168 0.0
C745 C 0.13815 0.65428 0.84248 0.0
N746 N 0.14317 0.62254 0.84675 0.0
Co747 Co 0.14995 0.60474 0.87514 0.0
N748 N 0.13784 0.64323 0.89 0.0
C749 C 0.13337 0.67272 0.88106 0.0
C750 C 0.12503 0.69468 0.89509 0.0
C751 C 0.12447 0.67807 0.91405 0.0
C752 C 0.13266 0.64682 0.91062 0.0
N753 N 0.15697 0.58645 0.90328 0.0
C754 C 0.15037 0.59473 0.92278 0.0
C755 C 0.16031 0.57667 0.93823 0.0
C756 C 0.17354 0.55663 0.92799 0.0
C757 C 0.17106 0.56354 0.90696 0.0
N758 N 0.16215 0.56635 0.86042 0.0
C759 C 0.17588 0.5459 0.8686 0.0
C760 C 0.18224 0.52221 0.85453 0.0
C761 C 0.17187 0.52818 0.83634 0.0
C762 C 0.15962 0.55517 0.8404 0.0
N763 N 0.17525 0.62929 0.87433 0.0
C764 C 0.20823 0.67238 0.87226 0.0
C765 C 0.19759 0.66814 0.89105 0.0
C766 C 0.18135 0.64666 0.89176 0.0
C767 C 0.20246 0.65309 0.85475 0.0
C768 C 0.18601 0.63178 0.8561 0.0
N769 N 0.12443 0.58148 0.87599 0.0
C770 C 0.10405 0.53367 0.88395 0.0
C771 C 0.08709 0.5509 0.87732 0.0
C772 C 0.08934 0.58368 0.87021 0.0
C773 C 0.10792 0.59844 0.86981 0.0
C774 C 0.12262 0.54932 0.88297 0.0
H775 H 0.1088 0.62385 0.86454 0.0
H776 H 0.13549 0.53552 0.88788 0.0
H777 H 0.17339 0.64499 0.90641 0.0
H778 H 0.18162 0.6181 0.84219 0.0
C779 C 0.13434 0.6767 0.85903 0.0
C780 C 0.14693 0.57097 0.82445 0.0
C781 C 0.13661 0.62212 0.92743 0.0
C782 C 0.17985 0.54626 0.89026 0.0
H783 H 0.13188 0.62244 0.796 0.0
H784 H 0.12739 0.68129 0.81441 0.0
H785 H 0.11939 0.71938 0.8918 0.0
H786 H 0.11877 0.68796 0.92871 0.0
H787 H 0.15865 0.57839 0.95518 0.0
H788 H 0.18353 0.53879 0.93505 0.0
H789 H 0.19264 0.50225 0.85736 0.0
H790 H 0.17331 0.51442 0.82172 0.0
H791 H 0.20164 0.68162 0.90522 0.0
H792 H 0.21014 0.65527 0.83984 0.0
H793 H 0.10301 0.5082 0.8895 0.0
H794 H 0.07671 0.5982 0.86524 0.0
C795 C 0.89543 0.39829 0.82669 0.0
C796 C 0.90502 0.37962 0.81138 0.0
C797 C 0.91079 0.35055 0.82081 0.0
C798 C 0.90466 0.35311 0.84135 0.0
N799 N 0.89496 0.38182 0.84555 0.0
Co800 Co 0.88619 0.39764 0.87422 0.0
N801 N 0.89786 0.35786 0.88886 0.0
C802 C 0.90604 0.331 0.87941 0.0
C803 C 0.91281 0.30757 0.89343 0.0
C804 C 0.90871 0.32022 0.913 0.0
C805 C 0.89961 0.35077 0.90982 0.0
N806 N 0.87812 0.41457 0.90277 0.0
C807 C 0.88204 0.40268 0.9224 0.0
C808 C 0.87359 0.42254 0.93793 0.0
C809 C 0.86433 0.4481 0.92782 0.0
C810 C 0.86755 0.44242 0.90679 0.0
N811 N 0.87416 0.43708 0.85965 0.0
C812 C 0.86273 0.46072 0.86861 0.0
C813 C 0.85605 0.4843 0.8547 0.0
C814 C 0.86397 0.47558 0.83572 0.0
C815 C 0.87531 0.44727 0.83923 0.0
N816 N 0.86059 0.37226 0.87151 0.0
C817 C 0.82577 0.33197 0.87118 0.0
C818 C 0.82587 0.36414 0.87997 0.0
C819 C 0.84319 0.38361 0.87994 0.0
C820 C 0.84338 0.32108 0.86206 0.0
C821 C 0.86017 0.34135 0.86218 0.0
N822 N 0.91167 0.42189 0.87698 0.0
C823 C 0.93089 0.47192 0.88359 0.0
C824 C 0.94842 0.45511 0.87863 0.0
C825 C 0.94715 0.4214 0.87346 0.0
C826 C 0.92894 0.40545 0.87292 0.0
C827 C 0.91269 0.45495 0.88251 0.0
H828 H 0.92923 0.37969 0.86898 0.0
H829 H 0.89958 0.46886 0.88597 0.0
H830 H 0.84208 0.40766 0.88699 0.0
H831 H 0.8727 0.33088 0.85481 0.0
C832 C 0.90907 0.3303 0.8575 0.0
C833 C 0.88759 0.432 0.82287 0.0
C834 C 0.89339 0.37259 0.92718 0.0
C835 C 0.86055 0.4624 0.89044 0.0
H836 H 0.90808 0.38655 0.79522 0.0
H837 H 0.91919 0.33053 0.81373 0.0
H838 H 0.92041 0.28452 0.88988 0.0
H839 H 0.91232 0.30856 0.92791 0.0
H840 H 0.87394 0.41888 0.95486 0.0
H841 H 0.85617 0.46837 0.93494 0.0
H842 H 0.84714 0.50602 0.85811 0.0
H843 H 0.86204 0.48909 0.82108 0.0
H844 H 0.81264 0.37453 0.88684 0.0
H845 H 0.84456 0.29646 0.85519 0.0
H846 H 0.93116 0.49811 0.88775 0.0
H847 H 0.96028 0.40715 0.86988 0.0
H848 H 0.37275 0.15529 0.4548 0.0
H849 H 0.42976 0.10878 0.45171 0.0
H850 H 0.37565 0.15995 0.49301 0.0
H851 H 0.43346 0.11489 0.49 0.0
H852 H 0.42002 0.08618 0.55935 0.0
H853 H 0.42243 0.09106 0.52107 0.0
H854 H 0.38846 0.18221 0.5235 0.0
H855 H 0.38504 0.17566 0.56161 0.0
C856 C 0.38624 0.14714 0.46235 0.0
C857 C 0.40108 0.13189 0.45035 0.0
C858 C 0.388 0.14983 0.48434 0.0
C859 C 0.40479 0.13765 0.49499 0.0
C860 C 0.42012 0.12399 0.48265 0.0
C861 C 0.41819 0.1209 0.46062 0.0
C862 C 0.41349 0.10764 0.55167 0.0
C863 C 0.4026 0.13076 0.56354 0.0
C864 C 0.41488 0.11059 0.52963 0.0
C865 C 0.40552 0.13696 0.5188 0.0
C866 C 0.39555 0.16113 0.53098 0.0
C867 C 0.3939 0.15783 0.55298 0.0
H868 H 0.61365 0.92159 0.56051 0.0
H869 H 0.64764 0.83099 0.56258 0.0
H870 H 0.61127 0.91712 0.52218 0.0
H871 H 0.64426 0.82492 0.52442 0.0
H872 H 0.66019 0.85187 0.45585 0.0
H873 H 0.65739 0.84738 0.49409 0.0
H874 H 0.59983 0.89335 0.4911 0.0
H875 H 0.60342 0.89923 0.45278 0.0
C876 C 0.61998 0.90001 0.55277 0.0
C877 C 0.63056 0.87641 0.5646 0.0
C878 C 0.6186 0.89731 0.53071 0.0
C879 C 0.62768 0.87071 0.51984 0.0
C880 C 0.63738 0.84616 0.53196 0.0
C881 C 0.63901 0.8492 0.55397 0.0
C882 C 0.64678 0.86028 0.46342 0.0
C883 C 0.63197 0.87566 0.45143 0.0
C884 C 0.64508 0.85768 0.48541 0.0
C885 C 0.62837 0.87012 0.49605 0.0
C886 C 0.61309 0.88403 0.48372 0.0
C887 C 0.61496 0.887 0.4617 0.0
H888 H 0.37086 0.85166 0.05881 0.0
H889 H 0.42841 0.89612 0.0624 0.0
H890 H 0.3739 0.84695 0.02061 0.0
H891 H 0.43221 0.88997 0.02412 0.0
H892 H 0.41924 0.91916 0.95464 0.0
H893 H 0.42147 0.91427 0.99295 0.0
H894 H 0.38679 0.82392 0.99034 0.0
H895 H 0.3836 0.83046 0.95219 0.0
C896 C 0.38447 0.85939 0.05137 0.0
C897 C 0.39944 0.87407 0.06349 0.0
C898 C 0.38631 0.85664 0.0294 0.0
C899 C 0.40331 0.86821 0.0189 0.0
C900 C 0.41872 0.88135 0.03137 0.0
C901 C 0.41673 0.88448 0.05338 0.0
C902 C 0.41253 0.89785 0.96229 0.0
C903 C 0.4015 0.87496 0.95037 0.0
C904 C 0.41381 0.89491 0.98434 0.0
C905 C 0.40418 0.86878 0.99511 0.0
C906 C 0.39409 0.84481 0.98289 0.0
C907 C 0.39256 0.8481 0.96088 0.0
H908 H 0.65587 0.18306 0.9522 0.0
H909 H 0.61537 0.10071 0.95593 0.0
H910 H 0.65377 0.1906 0.99054 0.0
H911 H 0.61367 0.10711 0.99422 0.0
H912 H 0.60701 0.13058 0.06295 0.0
H913 H 0.60395 0.13699 0.02459 0.0
H914 H 0.66555 0.16353 0.02113 0.0
H915 H 0.66815 0.15814 0.05944 0.0
C916 C 0.6462 0.16703 0.96124 0.0
C917 C 0.63566 0.14149 0.95112 0.0
C918 C 0.64517 0.17099 0.98326 0.0
C919 C 0.63368 0.14931 0.99575 0.0
C920 C 0.62247 0.12468 0.98533 0.0
C921 C 0.62344 0.12088 0.96333 0.0
C922 C 0.61967 0.13873 0.05395 0.0
C923 C 0.63777 0.14405 0.0641 0.0
C924 C 0.61805 0.14199 0.03192 0.0
C925 C 0.63455 0.15043 0.01949 0.0
C926 C 0.65241 0.15741 0.02998 0.0
C927 C 0.65397 0.15431 0.05198 0.0
H928 H 0.88153 0.67786 0.56304 0.0
H929 H 0.92015 0.59312 0.55783 0.0
H930 H 0.88324 0.68629 0.52486 0.0
H931 H 0.9213 0.6003 0.51954 0.0
H932 H 0.92728 0.62527 0.45078 0.0
H933 H 0.93112 0.62985 0.48917 0.0
H934 H 0.87051 0.66179 0.49418 0.0
H935 H 0.86719 0.65831 0.45587 0.0
C936 C 0.89078 0.66152 0.55372 0.0
C937 C 0.90101 0.63521 0.56346 0.0
C938 C 0.89153 0.66596 0.53174 0.0
C939 C 0.9023 0.64387 0.51881 0.0
C940 C 0.91309 0.61824 0.52878 0.0
C941 C 0.91244 0.614 0.55078 0.0
C942 C 0.91504 0.63422 0.46015 0.0
C943 C 0.89699 0.64163 0.45041 0.0
C944 C 0.91709 0.6364 0.4822 0.0
C945 C 0.90107 0.64582 0.49508 0.0
C946 C 0.88331 0.65486 0.48502 0.0
C947 C 0.88134 0.65288 0.463 0.0
H948 H 0.14754 0.3289 0.56225 0.0
H949 H 0.11389 0.41981 0.55955 0.0
H950 H 0.14427 0.32234 0.52412 0.0
H951 H 0.11164 0.41486 0.52124 0.0
H952 H 0.10398 0.39673 0.45197 0.0
H953 H 0.10023 0.39113 0.49027 0.0
H954 H 0.15737 0.34373 0.49354 0.0
H955 H 0.16031 0.34791 0.45531 0.0
C956 C 0.13902 0.34709 0.55351 0.0
C957 C 0.13062 0.37452 0.56396 0.0
C958 C 0.13745 0.34376 0.5315 0.0
C959 C 0.12786 0.36823 0.51919 0.0
C960 C 0.11887 0.39508 0.5299 0.0
C961 C 0.12018 0.39807 0.55195 0.0
C962 C 0.11537 0.38418 0.46094 0.0
C963 C 0.1323 0.37236 0.45073 0.0
C964 C 0.11343 0.3814 0.48297 0.0
C965 C 0.12857 0.36726 0.49539 0.0
C966 C 0.14516 0.35425 0.48481 0.0
C967 C 0.14693 0.35663 0.46281 0.0
H968 H 0.87718 0.32238 0.95082 0.0
H969 H 0.91758 0.40486 0.95475 0.0
H970 H 0.87924 0.31483 0.98916 0.0
H971 H 0.91922 0.39848 0.99303 0.0
H972 H 0.92564 0.37546 0.06184 0.0
H973 H 0.92885 0.3689 0.02351 0.0
H974 H 0.86737 0.34169 0.0197 0.0
H975 H 0.86462 0.3472 0.05798 0.0
C976 C 0.88683 0.33843 0.9599 0.0
C977 C 0.89734 0.36402 0.94984 0.0
C978 C 0.88783 0.33447 0.98193 0.0
C979 C 0.89926 0.35621 0.99448 0.0
C980 C 0.91046 0.38086 0.98411 0.0
C981 C 0.90952 0.38466 0.96211 0.0
C982 C 0.91303 0.36713 0.05277 0.0
C983 C 0.89492 0.36166 0.06282 0.0
C984 C 0.91475 0.36379 0.03075 0.0
C985 C 0.89832 0.35513 0.01822 0.0
C986 C 0.88046 0.34798 0.02862 0.0
C987 C 0.87881 0.35116 0.0506 0.0
H988 H 0.16183 0.65267 0.059 0.0
H989 H 0.10491 0.60585 0.06199 0.0
H990 H 0.15898 0.65726 0.02076 0.0
H991 H 0.10129 0.6118 0.02367 0.0
H992 H 0.11472 0.58392 0.95415 0.0
H993 H 0.11256 0.58812 0.99251 0.0
H994 H 0.14586 0.67996 0.99043 0.0
H995 H 0.14899 0.67418 0.95223 0.0
C996 C 0.14838 0.64439 0.05141 0.0
C997 C 0.13353 0.62915 0.06339 0.0
C998 C 0.14666 0.64704 0.02942 0.0
C999 C 0.1299 0.63479 0.01874 0.0
C1000 C 0.1146 0.62099 0.03105 0.0
C1001 C 0.11648 0.61797 0.05308 0.0
C1002 C 0.12116 0.60536 0.96194 0.0
C1003 C 0.13175 0.62896 0.95013 0.0
C1004 C 0.11992 0.60791 0.98401 0.0
C1005 C 0.12914 0.63432 0.99494 0.0
C1006 C 0.13888 0.65886 0.98285 0.0
C1007 C 0.14036 0.65599 0.96082 0.0
H1008 H 0.55184 0.92493 0.39224 0.0
H1009 H 0.57395 0.01848 0.36832 0.0
H1010 H 0.51849 0.9471 0.3918 0.0
H1011 H 0.54056 0.04116 0.3686 0.0
H1012 H 0.47645 0.05849 0.34862 0.0
H1013 H 0.50981 0.03655 0.35001 0.0
H1014 H 0.49607 0.98543 0.40815 0.0
H1015 H 0.46257 0.00753 0.40677 0.0
C1016 C 0.54964 0.95031 0.3869 0.0
C1017 C 0.56575 0.96971 0.38012 0.0
C1018 C 0.53043 0.96321 0.38689 0.0
C1019 C 0.52661 0.99599 0.38008 0.0
C1020 C 0.54276 0.01565 0.37367 0.0
C1021 C 0.56203 1.00275 0.37375 0.0
C1022 C 0.48051 0.0428 0.36184 0.0
C1023 C 0.46665 0.03509 0.37767 0.0
C1024 C 0.49977 0.0302 0.36265 0.0
C1025 C 0.5059 0.00933 0.37928 0.0
C1026 C 0.49196 1.00113 0.39495 0.0
C1027 C 0.47265 0.01378 0.39415 0.0
H1028 H 0.48004 0.92174 0.12234 0.0
H1029 H 0.45819 0.01684 0.14409 0.0
H1030 H 0.51349 0.94352 0.12256 0.0
H1031 H 0.4916 0.03911 0.14341 0.0
H1032 H 0.55491 0.05803 0.1636 0.0
H1033 H 0.52179 0.03519 0.16252 0.0
H1034 H 0.53648 0.98046 0.10595 0.0
H1035 H 0.5699 0.00331 0.10718 0.0
C1036 C 0.48232 0.94737 0.12714 0.0
C1037 C 0.46627 0.96734 0.13344 0.0
C1038 C 0.50158 0.96002 0.12701 0.0
C1039 C 0.50546 0.9931 0.13315 0.0
C1040 C 0.48934 0.01334 0.13893 0.0
C1041 C 0.47006 1.00067 0.13906 0.0
C1042 C 0.55111 0.0412 0.15085 0.0
C1043 C 0.56513 0.03283 0.13535 0.0
C1044 C 0.53199 0.02817 0.15018 0.0
C1045 C 0.52618 0.00625 0.13398 0.0
C1046 C 0.54036 0.99709 0.11876 0.0
C1047 C 0.55958 0.01014 0.11947 0.0
H1048 H 0.55881 0.95488 0.66868 0.0
H1049 H 0.56849 0.99218 0.60565 0.0
H1050 H 0.52533 0.97684 0.66807 0.0
H1051 H 0.53478 0.01441 0.60504 0.0
H1052 H 0.46566 0.01566 0.60483 0.0
H1053 H 0.49945 0.9938 0.60469 0.0
H1054 H 0.50799 0.03095 0.668 0.0
H1055 H 0.47442 0.05252 0.66814 0.0
C1056 C 0.5538 0.96789 0.65468 0.0
C1057 C 0.56641 0.9717 0.63721 0.0
C1058 C 0.53459 0.98065 0.65437 0.0
C1059 C 0.52723 0.99737 0.63648 0.0
C1060 C 0.53985 1.00141 0.61901 0.0
C1061 C 0.55925 0.98899 0.61944 0.0
C1062 C 0.47472 0.01887 0.61877 0.0
C1063 C 0.46727 0.0359 0.63649 0.0
C1064 C 0.49416 0.00666 0.61861 0.0
C1065 C 0.50655 0.01066 0.63631 0.0
C1066 C 0.49892 0.02719 0.65412 0.0
C1067 C 0.47966 0.03975 0.65417 0.0
H1068 H 0.56777 0.01079 0.91006 0.0
H1069 H 0.55746 0.05178 0.84806 0.0
H1070 H 0.5342 0.9878 0.91023 0.0
H1071 H 0.52417 0.02898 0.84817 0.0
H1072 H 0.47355 0.95318 0.84662 0.0
H1073 H 0.50724 0.97423 0.84724 0.0
H1074 H 0.49874 0.00924 0.91102 0.0
H1075 H 0.46484 0.98793 0.9104 0.0
C1076 C 0.55844 0.01452 0.89639 0.0
C1077 C 0.56529 0.03309 0.87905 0.0
C1078 C 0.53914 1.00169 0.89656 0.0
C1079 C 0.52641 0.00663 0.87924 0.0
C1080 C 0.53354 0.02448 0.86173 0.0
C1081 C 0.55263 0.03765 0.86169 0.0
C1082 C 0.47883 0.96537 0.8608 0.0
C1083 C 0.46644 0.96885 0.87846 0.0
C1084 C 0.49815 0.97759 0.86112 0.0
C1085 C 0.50579 0.99336 0.8792 0.0
C1086 C 0.49342 0.99693 0.89691 0.0
C1087 C 0.47392 0.98507 0.89648 0.0
H1088 H 0.96543 0.5122 0.41045 0.0
H1089 H 0.97413 0.54558 0.34641 0.0
H1090 H 0.99901 0.48925 0.41083 0.0
H1091 H 1.00744 0.52302 0.34676 0.0
H1092 H 0.05868 0.44905 0.34696 0.0
H1093 H 0.02494 0.46967 0.34754 0.0
H1094 H 0.03428 0.50928 0.41012 0.0
H1095 H 0.06821 0.48817 0.40961 0.0
C1096 C 0.97441 0.51427 0.39639 0.0
C1097 C 0.96706 0.53074 0.3784 0.0
C1098 C 0.99373 0.50148 0.39667 0.0
C1099 C 1.00606 0.50434 0.37884 0.0
C1100 C 0.99843 0.52007 0.36073 0.0
C1101 C 0.97931 0.53316 0.36055 0.0
C1102 C 0.05358 0.46208 0.3609 0.0
C1103 C 0.06626 0.46686 0.37825 0.0
C1104 C 0.03421 0.47412 0.36118 0.0
C1105 C 0.02676 0.49114 0.3789 0.0
C1106 C 0.03941 0.496 0.39629 0.0
C1107 C 0.05895 0.48425 0.39591 0.0
H1108 H 0.05678 0.55795 0.16404 0.0
H1109 H 0.07072 0.51155 0.10441 0.0
H1110 H 0.02324 0.53694 0.16166 0.0
H1111 H 0.03702 0.49077 0.10184 0.0
H1112 H 0.98149 0.42909 0.11533 0.0
H1113 H 1.01463 0.45172 0.11608 0.0
H1114 H 0.99246 0.5426 0.1439 0.0
H1115 H 0.95923 0.51913 0.14403 0.0
C1116 C 0.05267 0.54346 0.1503 0.0
C1117 C 0.06658 0.53656 0.1344 0.0
C1118 C 0.03331 0.53148 0.14888 0.0
C1119 C 0.02717 0.51224 0.13148 0.0
C1120 C 0.04114 0.50512 0.11564 0.0
C1121 C 0.06056 0.51701 0.11711 0.0
C1122 C 0.98362 0.45389 0.1217 0.0
C1123 C 0.96757 0.47203 0.12989 0.0
C1124 C 1.00271 0.46709 0.12189 0.0
C1125 C 1.00647 0.49902 0.13019 0.0
C1126 C 0.99031 0.51769 0.13772 0.0
C1127 C 0.97114 0.50441 0.13754 0.0
H1128 H 0.97547 0.5546 0.66747 0.0
H1129 H 0.96554 0.51523 0.60496 0.0
H1130 H 1.00886 0.53227 0.66717 0.0
H1131 H 0.99916 0.49261 0.60468 0.0
H1132 H 0.06834 0.49011 0.60477 0.0
H1133 H 0.03472 0.51275 0.60419 0.0
H1134 H 0.02574 0.47763 0.66787 0.0
H1135 H 0.05912 0.4552 0.66841 0.0
C1136 C 0.9804 0.54111 0.65363 0.0
C1137 C 0.96774 0.53681 0.63622 0.0
C1138 C 0.99957 0.52812 0.65351 0.0
C1139 C 1.00682 0.51067 0.63588 0.0
C1140 C 0.99416 0.50619 0.61845 0.0
C1141 C 0.97481 0.51884 0.61869 0.0
C1142 C 0.05923 0.48755 0.61869 0.0
C1143 C 0.06648 0.47083 0.63664 0.0
C1144 C 0.03987 0.50019 0.61829 0.0
C1145 C 0.02741 0.49698 0.63597 0.0
C1146 C 0.03487 0.4808 0.65401 0.0
C1147 C 0.05403 0.46778 0.65429 0.0
H1148 H 0.05964 0.55168 0.84584 0.0
H1149 H 0.06896 0.51584 0.9093 0.0
H1150 H 0.026 0.53052 0.84655 0.0
H1151 H 0.03507 0.4944 0.91001 0.0
H1152 H 0.96592 0.49358 0.90949 0.0
H1153 H 0.99962 0.51609 0.90965 0.0
H1154 H 1.00898 0.47594 0.84722 0.0
H1155 H 0.97559 0.45365 0.84712 0.0
C1156 C 0.05451 0.53915 0.85995 0.0
C1157 C 0.06704 0.53545 0.87751 0.0
C1158 C 0.03521 0.5269 0.86033 0.0
C1159 C 0.02773 0.51084 0.87836 0.0
C1160 C 0.04027 0.50694 0.89594 0.0
C1161 C 0.05975 0.51886 0.89545 0.0
C1162 C 0.97514 0.48999 0.89574 0.0
C1163 C 0.96807 0.47187 0.87829 0.0
C1164 C 0.9945 0.50252 0.89591 0.0
C1165 C 1.00708 0.49773 0.87847 0.0
C1166 C 0.99974 0.48031 0.86087 0.0
C1167 C 0.98059 0.46744 0.86083 0.0
H1168 H 0.2102 0.27041 0.38598 0.0
H1169 H 0.24758 0.34635 0.35927 0.0
H1170 H 0.23746 0.23055 0.38467 0.0
H1171 H 0.27501 0.30648 0.35821 0.0
H1172 H 0.3238 0.23529 0.38589 0.0
H1173 H 0.29656 0.27521 0.38479 0.0
H1174 H 0.25893 0.1997 0.35789 0.0
H1175 H 0.28633 0.15978 0.35873 0.0
C1176 C 0.22426 0.27867 0.37986 0.0
C1177 C 0.22663 0.31177 0.37281 0.0
C1178 C 0.23989 0.25567 0.37896 0.0
C1179 C 0.25853 0.26515 0.37136 0.0
C1180 C 0.26093 0.29826 0.36429 0.0
C1181 C 0.24515 0.32111 0.36477 0.0
C1182 C 0.30973 0.22714 0.37971 0.0
C1183 C 0.30733 0.19414 0.37247 0.0
C1184 C 0.29411 0.25017 0.37894 0.0
C1185 C 0.27545 0.24081 0.37128 0.0
C1186 C 0.27303 0.20781 0.36401 0.0
C1187 C 0.28879 0.18494 0.36438 0.0
H1188 H 0.71912 0.79171 0.34458 0.0
H1189 H 0.73793 0.82779 0.40553 0.0
H1190 H 0.74644 0.7518 0.34444 0.0
H1191 H 0.76498 0.78778 0.40551 0.0
H1192 H 0.8239 0.73845 0.38774 0.0
H1193 H 0.79619 0.77701 0.38787 0.0
H1194 H 0.75875 0.70022 0.36205 0.0
H1195 H 0.78675 0.66146 0.36175 0.0
C1196 C 0.72912 0.79135 0.35791 0.0
C1197 C 0.72618 0.81324 0.37505 0.0
C1198 C 0.74471 0.7681 0.35794 0.0
C1199 C 0.75806 0.76629 0.37498 0.0
C1200 C 0.7552 0.78842 0.392 0.0
C1201 C 0.73951 0.81132 0.39209 0.0
C1202 C 0.80979 0.72965 0.38204 0.0
C1203 C 0.80773 0.69667 0.37464 0.0
C1204 C 0.79377 0.75182 0.38227 0.0
C1205 C 0.77507 0.742 0.37494 0.0
C1206 C 0.77291 0.70892 0.36764 0.0
C1207 C 0.78895 0.68652 0.36766 0.0
H1208 H 0.2223 0.70625 0.17358 0.0
H1209 H 0.23765 0.6809 0.10942 0.0
H1210 H 0.2488 0.74742 0.17432 0.0
H1211 H 0.26391 0.72211 0.11012 0.0
H1212 H 0.29531 0.82253 0.10942 0.0
H1213 H 0.26905 0.78134 0.11011 0.0
H1214 H 0.28421 0.75615 0.17435 0.0
H1215 H 0.31072 0.79731 0.17363 0.0
C1216 C 0.23141 0.70906 0.15969 0.0
C1217 C 0.22753 0.69009 0.14138 0.0
C1218 C 0.24667 0.73287 0.1601 0.0
C1219 C 0.25853 0.73862 0.14221 0.0
C1220 C 0.2549 0.71916 0.12409 0.0
C1221 C 0.23973 0.69534 0.12369 0.0
C1222 C 0.29324 0.80812 0.1237 0.0
C1223 C 0.30546 0.8134 0.14141 0.0
C1224 C 0.27807 0.78432 0.12409 0.0
C1225 C 0.27445 0.76489 0.14222 0.0
C1226 C 0.28633 0.77067 0.16013 0.0
C1227 C 0.30159 0.79448 0.15972 0.0
H1228 H 0.71961 0.21973 0.17117 0.0
H1229 H 0.73677 0.17767 0.11111 0.0
H1230 H 0.74687 0.25884 0.16921 0.0
H1231 H 0.76461 0.2162 0.10971 0.0
H1232 H 0.82427 0.26725 0.12817 0.0
H1233 H 0.79641 0.2287 0.1282 0.0
H1234 H 0.75808 0.30841 0.14824 0.0
H1235 H 0.78606 0.3471 0.14817 0.0
C1236 C 0.72901 0.2188 0.1574 0.0
C1237 C 0.72553 0.19534 0.14117 0.0
C1238 C 0.74479 0.24138 0.15635 0.0
C1239 C 0.75795 0.24107 0.13922 0.0
C1240 C 0.75487 0.21717 0.12322 0.0
C1241 C 0.73888 0.19482 0.12411 0.0
C1242 C 0.80989 0.27665 0.13254 0.0
C1243 C 0.80751 0.3104 0.13827 0.0
C1244 C 0.79385 0.25452 0.13241 0.0
C1245 C 0.77491 0.26524 0.13831 0.0
C1246 C 0.77245 0.2991 0.1438 0.0
C1247 C 0.78848 0.32141 0.14359 0.0
H1248 H 0.71127 0.77269 0.62316 0.0
H1249 H 0.74334 0.83951 0.66407 0.0
H1250 H 0.73861 0.7337 0.62389 0.0
H1251 H 0.77092 0.80034 0.66473 0.0
H1252 H 0.81157 0.70977 0.67535 0.0
H1253 H 0.78344 0.74769 0.67642 0.0
H1254 H 0.77064 0.7248 0.61122 0.0
H1255 H 0.79797 0.68587 0.61048 0.0
C1256 C 0.72423 0.77938 0.63216 0.0
C1257 C 0.72496 0.80977 0.64336 0.0
C1258 C 0.74005 0.75681 0.63259 0.0
C1259 C 0.7573 0.76364 0.6442 0.0
C1260 C 0.75793 0.79377 0.65574 0.0
C1261 C 0.74203 0.8164 0.65534 0.0
C1262 C 0.80261 0.71238 0.66131 0.0
C1263 C 0.80733 0.69445 0.64281 0.0
C1264 C 0.78653 0.73464 0.66183 0.0
C1265 C 0.77453 0.7397 0.6439 0.0
C1266 C 0.77919 0.72154 0.6255 0.0
C1267 C 0.7952 0.69934 0.62499 0.0
H1268 H 0.21018 0.2699 0.62305 0.0
H1269 H 0.24322 0.33721 0.66272 0.0
H1270 H 0.23736 0.23053 0.62363 0.0
H1271 H 0.27064 0.29769 0.66321 0.0
H1272 H 0.31081 0.20654 0.67411 0.0
H1273 H 0.28287 0.24488 0.67528 0.0
H1274 H 0.26931 0.22126 0.61036 0.0
H1275 H 0.29657 0.18206 0.6095 0.0
C1276 C 0.22333 0.27659 0.63175 0.0
C1277 C 0.22438 0.30721 0.64264 0.0
C1278 C 0.23905 0.25382 0.63208 0.0
C1279 C 0.25651 0.26071 0.6433 0.0
C1280 C 0.25747 0.29108 0.65454 0.0
C1281 C 0.24167 0.31391 0.65424 0.0
C1282 C 0.30172 0.20911 0.66015 0.0
C1283 C 0.30618 0.19091 0.6417 0.0
C1284 C 0.28576 0.23158 0.66073 0.0
C1285 C 0.27362 0.23654 0.64291 0.0
C1286 C 0.27801 0.21809 0.62455 0.0
C1287 C 0.29394 0.19573 0.62396 0.0
H1288 H 0.70816 0.24114 0.88352 0.0
H1289 H 0.74586 0.15963 0.86506 0.0
H1290 H 0.73639 0.27889 0.88335 0.0
H1291 H 0.77419 0.19749 0.86495 0.0
H1292 H 0.81417 0.28417 0.84211 0.0
H1293 H 0.78645 0.24595 0.84382 0.0
H1294 H 0.76786 0.29087 0.90235 0.0
H1295 H 0.7961 0.32849 0.90122 0.0
C1296 C 0.72249 0.23121 0.87942 0.0
C1297 C 0.72462 0.19722 0.8742 0.0
C1298 C 0.73874 0.25289 0.8795 0.0
C1299 C 0.75765 0.24143 0.87406 0.0
C1300 C 0.75985 0.20736 0.86902 0.0
C1301 C 0.74361 0.18553 0.86926 0.0
C1302 C 0.80447 0.28579 0.85561 0.0
C1303 C 0.8078 0.30965 0.87164 0.0
C1304 C 0.78842 0.26374 0.85651 0.0
C1305 C 0.77488 0.265 0.87328 0.0
C1306 C 0.77787 0.28922 0.88909 0.0
C1307 C 0.7941 0.31104 0.88836 0.0
H1308 H 0.21011 0.73458 0.89034 0.0
H1309 H 0.24389 0.66756 0.85127 0.0
H1310 H 0.23687 0.77474 0.88959 0.0
H1311 H 0.27093 0.70782 0.85065 0.0
H1312 H 0.31025 0.79968 0.83953 0.0
H1313 H 0.28258 0.76081 0.83832 0.0
H1314 H 0.26866 0.78469 0.90309 0.0
H1315 H 0.29561 0.82444 0.90398 0.0
C1316 C 0.22334 0.72816 0.88174 0.0
C1317 C 0.22476 0.6974 0.87107 0.0
C1318 C 0.2388 0.75135 0.88131 0.0
C1319 C 0.25635 0.74471 0.87023 0.0
C1320 C 0.25766 0.7142 0.8592 0.0
C1321 C 0.2421 0.69096 0.85958 0.0
C1322 C 0.30113 0.79706 0.85344 0.0
C1323 C 0.30538 0.81545 0.87187 0.0
C1324 C 0.28534 0.7743 0.85283 0.0
C1325 C 0.2732 0.76925 0.87061 0.0
C1326 C 0.27737 0.78793 0.88894 0.0
C1327 C 0.29311 0.81061 0.88954 0.0
H1328 H 0.35636 0.06325 0.29499 0.0
H1329 H 0.41637 0.03617 0.30867 0.0
H1330 H 0.35742 0.03012 0.2625 0.0
H1331 H 0.41763 0.00299 0.27602 0.0
H1332 H 0.41538 0.97327 0.20379 0.0
H1333 H 0.41653 0.00646 0.23644 0.0
H1334 H 0.35876 0.97028 0.25316 0.0
H1335 H 0.35782 0.93718 0.22063 0.0
C1336 C 0.36989 0.05054 0.29081 0.0
C1337 C 0.38629 0.0523 0.30429 0.0
C1338 C 0.37046 0.03125 0.27233 0.0
C1339 C 0.38754 0.01342 0.26667 0.0
C1340 C 0.40425 0.01637 0.27979 0.0
C1341 C 0.40357 0.03543 0.29846 0.0
C1342 C 0.40315 0.97198 0.21473 0.0
C1343 C 0.3866 0.95245 0.20983 0.0
C1344 C 0.40375 0.99105 0.23339 0.0
C1345 C 0.38765 0.99143 0.24742 0.0
C1346 C 0.37131 0.97109 0.24264 0.0
C1347 C 0.37083 0.95179 0.22415 0.0
H1348 H 0.61534 0.04474 0.20924 0.0
H1349 H 0.67707 0.06231 0.22 0.0
H1350 H 0.61382 0.01073 0.24152 0.0
H1351 H 0.67576 0.0282 0.25205 0.0
H1352 H 0.67231 0.93397 0.29269 0.0
H1353 H 0.67158 0.96812 0.26058 0.0
H1354 H 0.6171 0.01295 0.28114 0.0
H1355 H 0.61804 0.97875 0.31335 0.0
C1356 C 0.6285 0.04172 0.21872 0.0
C1357 C 0.64633 0.05606 0.21208 0.0
C1358 C 0.62768 0.02217 0.23717 0.0
C1359 C 0.64474 0.0162 0.2493 0.0
C1360 C 0.66241 0.03163 0.24295 0.0
C1361 C 0.66315 0.05146 0.2247 0.0
C1362 C 0.66 0.95065 0.29008 0.0
C1363 C 0.64508 0.95337 0.30532 0.0
C1364 C 0.65968 0.97056 0.27183 0.0
C1365 C 0.64436 0.99362 0.26826 0.0
C1366 C 0.62906 0.9954 0.28324 0.0
C1367 C 0.62953 0.97574 0.30165 0.0
H1368 H 0.65618 0.0924 0.78344 0.0
H1369 H 0.62871 0.01336 0.81888 0.0
H1370 H 0.65372 0.05867 0.75117 0.0
H1371 H 0.6271 0.97902 0.78685 0.0
H1372 H 0.65801 0.91919 0.73024 0.0
H1373 H 0.65513 0.95291 0.76236 0.0
H1374 H 0.62623 0.03043 0.72678 0.0
H1375 H 0.62815 0.99584 0.69484 0.0
C1376 C 0.64923 0.06812 0.78425 0.0
C1377 C 0.64234 0.05581 0.80369 0.0
C1378 C 0.64796 0.04869 0.7658 0.0
C1379 C 0.64026 0.01608 0.76643 0.0
C1380 C 0.63318 0.00393 0.78582 0.0
C1381 C 0.63401 0.02366 0.80413 0.0
C1382 C 0.65028 0.94277 0.72943 0.0
C1383 C 0.64267 0.95427 0.71008 0.0
C1384 C 0.64887 0.96232 0.7478 0.0
C1385 C 0.64041 0.99437 0.74717 0.0
C1386 C 0.63283 0.0059 0.72782 0.0
C1387 C 0.63381 0.986 0.70958 0.0
H1388 H 0.41675 0.9706 0.80914 0.0
H1389 H 0.35713 0.94206 0.79476 0.0
H1390 H 0.41815 0.00345 0.77637 0.0
H1391 H 0.35832 0.9748 0.76213 0.0
H1392 H 0.35854 0.06715 0.71979 0.0
H1393 H 0.35928 0.03437 0.75244 0.0
H1394 H 0.41764 0.99957 0.73688 0.0
H1395 H 0.4167 0.03249 0.70412 0.0
C1396 C 0.40407 0.97096 0.79875 0.0
C1397 C 0.38686 0.95375 0.80441 0.0
C1398 C 0.40482 0.98981 0.78001 0.0
C1399 C 0.38826 0.99221 0.76664 0.0
C1400 C 0.37125 0.97409 0.77215 0.0
C1401 C 0.37059 0.95502 0.79072 0.0
C1402 C 0.37162 0.05287 0.72357 0.0
C1403 C 0.38761 0.0525 0.70955 0.0
C1404 C 0.37199 0.03377 0.74214 0.0
C1405 C 0.38844 0.01393 0.74729 0.0
C1406 C 0.40476 0.01459 0.73354 0.0
C1407 C 0.40428 0.03348 0.71481 0.0
H1408 H 0.85667 0.43978 0.22 0.0
H1409 H 0.91611 0.4685 0.20513 0.0
H1410 H 0.85758 0.47466 0.25173 0.0
H1411 H 0.91717 0.50378 0.23683 0.0
H1412 H 0.91604 0.53983 0.30738 0.0
H1413 H 0.91719 0.50472 0.2756 0.0
H1414 H 0.85751 0.53349 0.26064 0.0
H1415 H 0.85652 0.56821 0.29243 0.0
C1416 C 0.87005 0.45322 0.22376 0.0
C1417 C 0.88635 0.4513 0.21019 0.0
C1418 C 0.87053 0.4736 0.2418 0.0
C1419 C 0.88737 0.49257 0.24684 0.0
C1420 C 0.90397 0.48953 0.23361 0.0
C1421 C 0.90342 0.46926 0.21546 0.0
C1422 C 0.90335 0.53906 0.29701 0.0
C1423 C 0.88623 0.55686 0.30227 0.0
C1424 C 0.90395 0.51887 0.27882 0.0
C1425 C 0.88735 0.51576 0.26556 0.0
C1426 C 0.87047 0.53461 0.27059 0.0
C1427 C 0.86994 0.5549 0.28866 0.0
H1428 H 0.11675 0.467 0.3085 0.0
H1429 H 0.17751 0.44346 0.29623 0.0
H1430 H 0.11537 0.49992 0.27575 0.0
H1431 H 0.17633 0.47633 0.26364 0.0
H1432 H 0.17471 0.56865 0.22127 0.0
H1433 H 0.17395 0.53585 0.25392 0.0
H1434 H 0.11716 0.49629 0.23628 0.0
H1435 H 0.11813 0.52921 0.20353 0.0
C1436 C 0.12971 0.46848 0.29859 0.0
C1437 C 0.14722 0.45269 0.30486 0.0
C1438 C 0.12896 0.48739 0.27986 0.0
C1439 C 0.14582 0.49126 0.2671 0.0
C1440 C 0.16316 0.4745 0.27319 0.0
C1441 C 0.16381 0.45536 0.29173 0.0
C1442 C 0.16194 0.55338 0.22461 0.0
C1443 C 0.14638 0.55174 0.21002 0.0
C1444 C 0.16157 0.53424 0.24318 0.0
C1445 C 0.14557 0.51305 0.24775 0.0
C1446 C 0.12968 0.51238 0.23341 0.0
C1447 C 0.13017 0.5313 0.21468 0.0
H1448 H 0.15856 0.58838 0.78407 0.0
H1449 H 0.12893 0.51087 0.81886 0.0
H1450 H 0.15574 0.55521 0.75169 0.0
H1451 H 0.12713 0.47682 0.78668 0.0
H1452 H 0.15828 0.41668 0.72979 0.0
H1453 H 0.15563 0.44998 0.76213 0.0
H1454 H 0.12719 0.52851 0.72704 0.0
H1455 H 0.12881 0.49434 0.69489 0.0
C1456 C 0.15089 0.56473 0.7847 0.0
C1457 C 0.14333 0.55283 0.80397 0.0
C1458 C 0.14951 0.5455 0.76618 0.0
C1459 C 0.14116 0.51337 0.76657 0.0
C1460 C 0.13363 0.50145 0.78582 0.0
C1461 C 0.13455 0.52103 0.80421 0.0
C1462 C 0.15069 0.4404 0.72912 0.0
C1463 C 0.14311 0.45229 0.70984 0.0
C1464 C 0.14941 0.4597 0.74762 0.0
C1465 C 0.14114 0.49189 0.74719 0.0
C1466 C 0.13362 0.50384 0.72792 0.0
C1467 C 0.13444 0.48419 0.70956 0.0
H1468 H 0.90599 0.51126 0.69394 0.0
H1469 H 0.87607 0.58792 0.72922 0.0
H1470 H 0.9077 0.47655 0.72584 0.0
H1471 H 0.87876 0.55408 0.76132 0.0
H1472 H 0.90476 0.49314 0.81799 0.0
H1473 H 0.90657 0.52766 0.78606 0.0
H1474 H 0.88006 0.44829 0.74996 0.0
H1475 H 0.87739 0.41439 0.78213 0.0
C1476 C 0.90027 0.52108 0.70864 0.0
C1477 C 0.89143 0.55285 0.7091 0.0
C1478 C 0.90113 0.50111 0.72687 0.0
C1479 C 0.89347 0.51259 0.74618 0.0
C1480 C 0.88507 0.54469 0.74679 0.0
C1481 C 0.88376 0.56431 0.72843 0.0
C1482 C 0.89952 0.48293 0.80318 0.0
C1483 C 0.89116 0.4508 0.8026 0.0
C1484 C 0.90047 0.50277 0.78491 0.0
C1485 C 0.89348 0.49076 0.76542 0.0
C1486 C 0.88576 0.45818 0.76466 0.0
C1487 C 0.88436 0.43864 0.78306 0.0
loop_
_geom_bond_atom_site_label_1
_geom_bond_atom_site_label_2
_geom_bond_distance
_geom_bond_site_symmetry_2
_ccdc_geom_bond_type
C0 C1 1.443 . S
C0 N4 1.376 . S
C0 C38 1.389 . S
C1 C0 1.443 . S
C1 C2 1.340 . S
C1 H41 0.951 . S
C2 C1 1.340 . S
C2 C3 1.439 . S
C2 H42 0.950 1_545 S
C3 C2 1.439 . S
C3 N4 1.374 . S
C3 C37 1.395 . S
N4 C0 1.376 . S
N4 C3 1.374 . S
N4 Co5 2.008 . S
Co5 N4 2.008 . S
Co5 N6 1.995 . S
Co5 N11 2.008 . S
Co5 N16 1.995 . S
Co5 N21 2.282 . S
Co5 N27 2.282 . S
N6 Co5 1.995 . S
N6 C7 1.376 . S
N6 C10 1.383 . S
C7 N6 1.376 . S
C7 C8 1.446 . S
C7 C37 1.391 . S
C8 C7 1.446 . S
C8 C9 1.339 . S
C8 H43 0.949 . S
C9 C8 1.339 . S
C9 C10 1.439 . S
C9 H44 0.950 . S
C10 N6 1.383 . S
C10 C9 1.439 . S
C10 C39 1.392 . S
N11 Co5 2.008 . S
N11 C12 1.376 . S
N11 C15 1.374 . S
C12 N11 1.376 . S
C12 C13 1.443 . S
C12 C39 1.389 . S
C13 C12 1.443 . S
C13 C14 1.340 . S
C13 H45 0.951 . S
C14 C13 1.340 . S
C14 C15 1.439 . S
C14 H46 0.950 . S
C15 N11 1.374 . S
C15 C14 1.439 . S
C15 C40 1.395 . S
N16 Co5 1.995 . S
N16 C17 1.376 . S
N16 C20 1.383 . S
C17 N16 1.376 . S
C17 C18 1.446 . S
C17 C40 1.391 . S
C18 C17 1.446 . S
C18 C19 1.339 . S
C18 H47 0.949 . S
C19 C18 1.339 . S
C19 C20 1.439 . S
C19 H48 0.950 . S
C20 N16 1.383 . S
C20 C19 1.439 . S
C20 C38 1.392 . S
N21 Co5 2.282 . S
N21 C24 1.332 . S
N21 C26 1.332 . S
C22 C23 1.386 . S
C22 C25 1.388 . S
C23 C22 1.386 . S
C23 C24 1.382 . S
C23 H49 0.950 . S
C24 N21 1.332 . S
C24 C23 1.382 . S
C24 H35 0.952 . S
C25 C22 1.388 . S
C25 C26 1.382 . S
C25 H50 0.950 . S
C26 N21 1.332 . S
C26 C25 1.382 . S
C26 H36 0.948 . S
N27 Co5 2.282 . S
N27 C31 1.332 . S
N27 C32 1.332 . S
C28 C29 1.388 . S
C28 C32 1.382 . S
C28 H51 0.950 . S
C29 C28 1.388 . S
C29 C30 1.386 . S
C30 C29 1.386 . S
C30 C31 1.382 . S
C30 H52 0.950 . S
C31 N27 1.332 . S
C31 C30 1.382 . S
C31 H33 0.952 . S
C32 N27 1.332 . S
C32 C28 1.382 . S
C32 H34 0.948 . S
H33 C31 0.952 . S
H34 C32 0.948 . S
H35 C24 0.952 . S
H36 C26 0.948 . S
C37 C3 1.395 . S
C37 C7 1.391 . S
C38 C0 1.389 . S
C38 C20 1.392 . S
C39 C10 1.392 . S
C39 C12 1.389 . S
C40 C15 1.395 . S
C40 C17 1.391 . S
H41 C1 0.951 . S
H42 C2 0.950 1_565 S
H43 C8 0.949 . S
H44 C9 0.950 . S
H45 C13 0.951 . S
H46 C14 0.950 . S
H47 C18 0.949 . S
H48 C19 0.950 . S
H49 C23 0.950 . S
H50 C25 0.950 . S
H51 C28 0.950 . S
H52 C30 0.950 . S
C53 C54 1.443 . S
C53 N57 1.376 . S
C53 C91 1.389 . S
C54 C53 1.443 . S
C54 C55 1.340 . S
C54 H94 0.951 . S
C55 C54 1.340 . S
C55 C56 1.439 . S
C55 H95 0.950 1_565 S
C56 C55 1.439 . S
C56 N57 1.374 . S
C56 C90 1.395 . S
N57 C53 1.376 . S
N57 C56 1.374 . S
N57 Co58 2.008 . S
Co58 N57 2.008 . S
Co58 N59 1.995 . S
Co58 N64 2.008 . S
Co58 N69 1.995 . S
Co58 N74 2.282 . S
Co58 N80 2.282 . S
N59 Co58 1.995 . S
N59 C60 1.376 . S
N59 C63 1.383 . S
C60 N59 1.376 . S
C60 C61 1.446 . S
C60 C90 1.391 . S
C61 C60 1.446 . S
C61 C62 1.339 . S
C61 H96 0.949 . S
C62 C61 1.339 . S
C62 C63 1.439 . S
C62 H97 0.950 . S
C63 N59 1.383 . S
C63 C62 1.439 . S
C63 C92 1.392 . S
N64 Co58 2.008 . S
N64 C65 1.376 . S
N64 C68 1.374 . S
C65 N64 1.376 . S
C65 C66 1.443 . S
C65 C92 1.389 . S
C66 C65 1.443 . S
C66 C67 1.340 . S
C66 H98 0.951 . S
C67 C66 1.340 . S
C67 C68 1.439 . S
C67 H99 0.950 . S
C68 N64 1.374 . S
C68 C67 1.439 . S
C68 C93 1.395 . S
N69 Co58 1.995 . S
N69 C70 1.376 . S
N69 C73 1.383 . S
C70 N69 1.376 . S
C70 C71 1.446 . S
C70 C93 1.391 . S
C71 C70 1.446 . S
C71 C72 1.339 . S
C71 H100 0.949 . S
C72 C71 1.339 . S
C72 C73 1.439 . S
C72 H101 0.950 . S
C73 N69 1.383 . S
C73 C72 1.439 . S
C73 C91 1.392 . S
N74 Co58 2.282 . S
N74 C77 1.332 . S
N74 C79 1.332 . S
C75 C76 1.386 . S
C75 C78 1.388 . S
C76 C75 1.386 . S
C76 C77 1.382 . S
C76 H102 0.950 . S
C77 N74 1.332 . S
C77 C76 1.382 . S
C77 H88 0.952 . S
C78 C75 1.388 . S
C78 C79 1.382 . S
C78 H103 0.950 . S
C79 N74 1.332 . S
C79 C78 1.382 . S
C79 H89 0.948 . S
N80 Co58 2.282 . S
N80 C84 1.332 . S
N80 C85 1.332 . S
C81 C82 1.388 . S
C81 C85 1.382 . S
C81 H104 0.950 . S
C82 C81 1.388 . S
C82 C83 1.386 . S
C83 C82 1.386 . S
C83 C84 1.382 . S
C83 H105 0.950 . S
C84 N80 1.332 . S
C84 C83 1.382 . S
C84 H86 0.952 . S
C85 N80 1.332 . S
C85 C81 1.382 . S
C85 H87 0.948 . S
H86 C84 0.952 . S
H87 C85 0.948 . S
H88 C77 0.952 . S
H89 C79 0.948 . S
C90 C56 1.395 . S
C90 C60 1.391 . S
C91 C53 1.389 . S
C91 C73 1.392 . S
C92 C63 1.392 . S
C92 C65 1.389 . S
C93 C68 1.395 . S
C93 C70 1.391 . S
H94 C54 0.951 . S
H95 C55 0.950 1_545 S
H96 C61 0.949 . S
H97 C62 0.950 . S
H98 C66 0.951 . S
H99 C67 0.950 . S
H100 C71 0.949 . S
H101 C72 0.950 . S
H102 C76 0.950 . S
H103 C78 0.950 . S
H104 C81 0.950 . S
H105 C83 0.950 . S
C106 C107 1.443 . S
C106 N110 1.376 . S
C106 C144 1.389 . S
C107 C106 1.443 . S
C107 C108 1.340 . S
C107 H147 0.951 . S
C108 C107 1.340 . S
C108 C109 1.439 . S
C108 H148 0.950 1_565 S
C109 C108 1.439 . S
C109 N110 1.374 . S
C109 C143 1.395 . S
N110 C106 1.376 . S
N110 C109 1.374 . S
N110 Co111 2.008 . S
Co111 N110 2.008 . S
Co111 N112 1.995 . S
Co111 N117 2.008 . S
Co111 N122 1.995 . S
Co111 N127 2.282 . S
Co111 N133 2.282 . S
N112 Co111 1.995 . S
N112 C113 1.376 . S
N112 C116 1.383 . S
C113 N112 1.376 . S
C113 C114 1.446 . S
C113 C143 1.391 . S
C114 C113 1.446 . S
C114 C115 1.339 . S
C114 H149 0.949 . S
C115 C114 1.339 . S
C115 C116 1.439 . S
C115 H150 0.950 . S
C116 N112 1.383 . S
C116 C115 1.439 . S
C116 C145 1.392 . S
N117 Co111 2.008 . S
N117 C118 1.376 . S
N117 C121 1.374 . S
C118 N117 1.376 . S
C118 C119 1.443 . S
C118 C145 1.389 . S
C119 C118 1.443 . S
C119 C120 1.340 . S
C119 H151 0.951 . S
C120 C119 1.340 . S
C120 C121 1.439 . S
C120 H152 0.950 . S
C121 N117 1.374 . S
C121 C120 1.439 . S
C121 C146 1.395 . S
N122 Co111 1.995 . S
N122 C123 1.376 . S
N122 C126 1.383 . S
C123 N122 1.376 . S
C123 C124 1.446 . S
C123 C146 1.391 . S
C124 C123 1.446 . S
C124 C125 1.339 . S
C124 H153 0.949 . S
C125 C124 1.339 . S
C125 C126 1.439 . S
C125 H154 0.950 . S
C126 N122 1.383 . S
C126 C125 1.439 . S
C126 C144 1.392 . S
N127 Co111 2.282 . S
N127 C130 1.332 . S
N127 C132 1.332 . S
C128 C129 1.386 . S
C128 C131 1.388 . S
C129 C128 1.386 . S
C129 C130 1.382 . S
C129 H155 0.950 . S
C130 N127 1.332 . S
C130 C129 1.382 . S
C130 H141 0.952 . S
C131 C128 1.388 . S
C131 C132 1.382 . S
C131 H156 0.950 . S
C132 N127 1.332 . S
C132 C131 1.382 . S
C132 H142 0.948 . S
N133 Co111 2.282 . S
N133 C137 1.332 . S
N133 C138 1.332 . S
C134 C135 1.388 . S
C134 C138 1.382 . S
C134 H157 0.950 . S
C135 C134 1.388 . S
C135 C136 1.386 . S
C136 C135 1.386 . S
C136 C137 1.382 . S
C136 H158 0.950 . S
C137 N133 1.332 . S
C137 C136 1.382 . S
C137 H139 0.952 . S
C138 N133 1.332 . S
C138 C134 1.382 . S
C138 H140 0.948 . S
H139 C137 0.952 . S
H140 C138 0.948 . S
H141 C130 0.952 . S
H142 C132 0.948 . S
C143 C109 1.395 . S
C143 C113 1.391 . S
C144 C106 1.389 . S
C144 C126 1.392 . S
C145 C116 1.392 . S
C145 C118 1.389 . S
C146 C121 1.395 . S
C146 C123 1.391 . S
H147 C107 0.951 . S
H148 C108 0.950 1_545 S
H149 C114 0.949 . S
H150 C115 0.950 . S
H151 C119 0.951 . S
H152 C120 0.950 . S
H153 C124 0.949 . S
H154 C125 0.950 . S
H155 C129 0.950 . S
H156 C131 0.950 . S
H157 C134 0.950 . S
H158 C136 0.950 . S
C159 C160 1.443 . S
C159 N163 1.376 . S
C159 C197 1.389 . S
C160 C159 1.443 . S
C160 C161 1.340 . S
C160 H200 0.951 . S
C161 C160 1.340 . S
C161 C162 1.439 . S
C161 H201 0.950 1_545 S
C162 C161 1.439 . S
C162 N163 1.374 . S
C162 C196 1.395 . S
N163 C159 1.376 . S
N163 C162 1.374 . S
N163 Co164 2.008 . S
Co164 N163 2.008 . S
Co164 N165 1.995 . S
Co164 N170 2.008 . S
Co164 N175 1.995 . S
Co164 N180 2.282 . S
Co164 N186 2.282 . S
N165 Co164 1.995 . S
N165 C166 1.376 . S
N165 C169 1.383 . S
C166 N165 1.376 . S
C166 C167 1.446 . S
C166 C196 1.391 . S
C167 C166 1.446 . S
C167 C168 1.339 . S
C167 H202 0.949 . S
C168 C167 1.339 . S
C168 C169 1.439 . S
C168 H203 0.950 . S
C169 N165 1.383 . S
C169 C168 1.439 . S
C169 C198 1.392 . S
N170 Co164 2.008 . S
N170 C171 1.376 . S
N170 C174 1.374 . S
C171 N170 1.376 . S
C171 C172 1.443 . S
C171 C198 1.389 . S
C172 C171 1.443 . S
C172 C173 1.340 . S
C172 H204 0.951 . S
C173 C172 1.340 . S
C173 C174 1.439 . S
C173 H205 0.950 . S
C174 N170 1.374 . S
C174 C173 1.439 . S
C174 C199 1.395 . S
N175 Co164 1.995 . S
N175 C176 1.376 . S
N175 C179 1.383 . S
C176 N175 1.376 . S
C176 C177 1.446 . S
C176 C199 1.391 . S
C177 C176 1.446 . S
C177 C178 1.339 . S
C177 H206 0.949 . S
C178 C177 1.339 . S
C178 C179 1.439 . S
C178 H207 0.950 . S
C179 N175 1.383 . S
C179 C178 1.439 . S
C179 C197 1.392 . S
N180 Co164 2.282 . S
N180 C183 1.332 . S
N180 C185 1.332 . S
C181 C182 1.386 . S
C181 C184 1.388 . S
C182 C181 1.386 . S
C182 C183 1.382 . S
C182 H208 0.950 . S
C183 N180 1.332 . S
C183 C182 1.382 . S
C183 H194 0.952 . S
C184 C181 1.388 . S
C184 C185 1.382 . S
C184 H209 0.950 . S
C185 N180 1.332 . S
C185 C184 1.382 . S
C185 H195 0.948 . S
N186 Co164 2.282 . S
N186 C190 1.332 . S
N186 C191 1.332 . S
C187 C188 1.388 . S
C187 C191 1.382 . S
C187 H210 0.950 . S
C188 C187 1.388 . S
C188 C189 1.386 . S
C189 C188 1.386 . S
C189 C190 1.382 . S
C189 H211 0.950 . S
C190 N186 1.332 . S
C190 C189 1.382 . S
C190 H192 0.952 . S
C191 N186 1.332 . S
C191 C187 1.382 . S
C191 H193 0.948 . S
H192 C190 0.952 . S
H193 C191 0.948 . S
H194 C183 0.952 . S
H195 C185 0.948 . S
C196 C162 1.395 . S
C196 C166 1.391 . S
C197 C159 1.389 . S
C197 C179 1.392 . S
C198 C169 1.392 . S
C198 C171 1.389 . S
C199 C174 1.395 . S
C199 C176 1.391 . S
H200 C160 0.951 . S
H201 C161 0.950 1_565 S
H202 C167 0.949 . S
H203 C168 0.950 . S
H204 C172 0.951 . S
H205 C173 0.950 . S
H206 C177 0.949 . S
H207 C178 0.950 . S
H208 C182 0.950 . S
H209 C184 0.950 . S
H210 C187 0.950 . S
H211 C189 0.950 . S
C212 C213 1.443 . S
C212 N216 1.376 . S
C212 C250 1.389 . S
C213 C212 1.443 . S
C213 C214 1.340 . S
C213 H253 0.951 . S
C214 C213 1.340 . S
C214 C215 1.439 . S
C214 H254 0.950 . S
C215 C214 1.439 . S
C215 N216 1.374 . S
C215 C249 1.395 . S
N216 C212 1.376 . S
N216 C215 1.374 . S
N216 Co217 2.008 . S
Co217 N216 2.008 . S
Co217 N218 1.995 . S
Co217 N223 2.008 . S
Co217 N228 1.995 . S
Co217 N233 2.282 . S
Co217 N239 2.282 . S
N218 Co217 1.995 . S
N218 C219 1.376 . S
N218 C222 1.383 . S
C219 N218 1.376 . S
C219 C220 1.446 . S
C219 C249 1.391 . S
C220 C219 1.446 . S
C220 C221 1.339 . S
C220 H255 0.949 . S
C221 C220 1.339 . S
C221 C222 1.439 . S
C221 H256 0.950 . S
C222 N218 1.383 . S
C222 C221 1.439 . S
C222 C251 1.392 . S
N223 Co217 2.008 . S
N223 C224 1.376 . S
N223 C227 1.374 . S
C224 N223 1.376 . S
C224 C225 1.443 . S
C224 C251 1.389 . S
C225 C224 1.443 . S
C225 C226 1.340 . S
C225 H257 0.951 . S
C226 C225 1.340 . S
C226 C227 1.439 . S
C226 H258 0.950 . S
C227 N223 1.374 . S
C227 C226 1.439 . S
C227 C252 1.395 . S
N228 Co217 1.995 . S
N228 C229 1.376 . S
N228 C232 1.383 . S
C229 N228 1.376 . S
C229 C230 1.446 . S
C229 C252 1.391 . S
C230 C229 1.446 . S
C230 C231 1.339 . S
C230 H259 0.949 . S
C231 C230 1.339 . S
C231 C232 1.439 . S
C231 H260 0.950 . S
C232 N228 1.383 . S
C232 C231 1.439 . S
C232 C250 1.392 . S
N233 Co217 2.282 . S
N233 C236 1.332 . S
N233 C238 1.332 . S
C234 C235 1.386 . S
C234 C237 1.388 . S
C235 C234 1.386 . S
C235 C236 1.382 . S
C235 H261 0.950 . S
C236 N233 1.332 . S
C236 C235 1.382 . S
C236 H247 0.952 . S
C237 C234 1.388 . S
C237 C238 1.382 . S
C237 H262 0.950 . S
C238 N233 1.332 . S
C238 C237 1.382 . S
C238 H248 0.948 . S
N239 Co217 2.282 . S
N239 C243 1.332 . S
N239 C244 1.332 . S
C240 C241 1.388 . S
C240 C244 1.382 . S
C240 H263 0.950 . S
C241 C240 1.388 . S
C241 C242 1.386 . S
C242 C241 1.386 . S
C242 C243 1.382 . S
C242 H264 0.950 . S
C243 N239 1.332 . S
C243 C242 1.382 . S
C243 H245 0.952 . S
C244 N239 1.332 . S
C244 C240 1.382 . S
C244 H246 0.948 . S
H245 C243 0.952 . S
H246 C244 0.948 . S
H247 C236 0.952 . S
H248 C238 0.948 . S
C249 C215 1.395 . S
C249 C219 1.391 . S
C250 C212 1.389 . S
C250 C232 1.392 . S
C251 C222 1.392 . S
C251 C224 1.389 . S
C252 C227 1.395 . S
C252 C229 1.391 . S
H253 C213 0.951 . S
H254 C214 0.950 . S
H255 C220 0.949 . S
H256 C221 0.950 . S
H257 C225 0.951 . S
H258 C226 0.950 . S
H259 C230 0.949 . S
H260 C231 0.950 . S
H261 C235 0.950 . S
H262 C237 0.950 . S
H263 C240 0.950 . S
H264 C242 0.950 . S
C265 C266 1.443 . S
C265 N269 1.376 . S
C265 C303 1.389 . S
C266 C265 1.443 . S
C266 C267 1.340 . S
C266 H306 0.951 . S
C267 C266 1.340 . S
C267 C268 1.439 . S
C267 H307 0.950 . S
C268 C267 1.439 . S
C268 N269 1.374 . S
C268 C302 1.395 . S
N269 C265 1.376 . S
N269 C268 1.374 . S
N269 Co270 2.008 . S
Co270 N269 2.008 . S
Co270 N271 1.995 . S
Co270 N276 2.008 . S
Co270 N281 1.995 . S
Co270 N286 2.282 . S
Co270 N292 2.282 . S
N271 Co270 1.995 . S
N271 C272 1.376 . S
N271 C275 1.383 . S
C272 N271 1.376 . S
C272 C273 1.446 . S
C272 C302 1.391 . S
C273 C272 1.446 . S
C273 C274 1.339 . S
C273 H308 0.949 . S
C274 C273 1.339 . S
C274 C275 1.439 . S
C274 H309 0.950 . S
C275 N271 1.383 . S
C275 C274 1.439 . S
C275 C304 1.392 . S
N276 Co270 2.008 . S
N276 C277 1.376 . S
N276 C280 1.374 . S
C277 N276 1.376 . S
C277 C278 1.443 . S
C277 C304 1.389 . S
C278 C277 1.443 . S
C278 C279 1.340 . S
C278 H310 0.951 . S
C279 C278 1.340 . S
C279 C280 1.439 . S
C279 H311 0.950 . S
C280 N276 1.374 . S
C280 C279 1.439 . S
C280 C305 1.395 . S
N281 Co270 1.995 . S
N281 C282 1.376 . S
N281 C285 1.383 . S
C282 N281 1.376 . S
C282 C283 1.446 . S
C282 C305 1.391 . S
C283 C282 1.446 . S
C283 C284 1.339 . S
C283 H312 0.949 . S
C284 C283 1.339 . S
C284 C285 1.439 . S
C284 H313 0.950 . S
C285 N281 1.383 . S
C285 C284 1.439 . S
C285 C303 1.392 . S
N286 Co270 2.282 . S
N286 C289 1.332 . S
N286 C291 1.332 . S
C287 C288 1.386 . S
C287 C290 1.388 . S
C288 C287 1.386 . S
C288 C289 1.382 . S
C288 H314 0.950 . S
C289 N286 1.332 . S
C289 C288 1.382 . S
C289 H300 0.952 . S
C290 C287 1.388 . S
C290 C291 1.382 . S
C290 H315 0.950 . S
C291 N286 1.332 . S
C291 C290 1.382 . S
C291 H301 0.948 . S
N292 Co270 2.282 . S
N292 C296 1.332 . S
N292 C297 1.332 . S
C293 C294 1.388 . S
C293 C297 1.382 . S
C293 H316 0.950 . S
C294 C293 1.388 . S
C294 C295 1.386 . S
C295 C294 1.386 . S
C295 C296 1.382 . S
C295 H317 0.950 . S
C296 N292 1.332 . S
C296 C295 1.382 . S
C296 H298 0.952 . S
C297 N292 1.332 . S
C297 C293 1.382 . S
C297 H299 0.948 . S
H298 C296 0.952 . S
H299 C297 0.948 . S
H300 C289 0.952 . S
H301 C291 0.948 . S
C302 C268 1.395 . S
C302 C272 1.391 . S
C303 C265 1.389 . S
C303 C285 1.392 . S
C304 C275 1.392 . S
C304 C277 1.389 . S
C305 C280 1.395 . S
C305 C282 1.391 . S
H306 C266 0.951 . S
H307 C267 0.950 . S
H308 C273 0.949 . S
H309 C274 0.950 . S
H310 C278 0.951 . S
H311 C279 0.950 . S
H312 C283 0.949 . S
H313 C284 0.950 . S
H314 C288 0.950 . S
H315 C290 0.950 . S
H316 C293 0.950 . S
H317 C295 0.950 . S
C318 C319 1.443 . S
C318 N322 1.376 . S
C318 C356 1.389 . S
C319 C318 1.443 . S
C319 C320 1.340 . S
C319 H359 0.951 . S
C320 C319 1.340 . S
C320 C321 1.439 . S
C320 H360 0.950 . S
C321 C320 1.439 . S
C321 N322 1.374 . S
C321 C355 1.395 . S
N322 C318 1.376 . S
N322 C321 1.374 . S
N322 Co323 2.008 . S
Co323 N322 2.008 . S
Co323 N324 1.995 . S
Co323 N329 2.008 . S
Co323 N334 1.995 . S
Co323 N339 2.282 . S
Co323 N345 2.282 . S
N324 Co323 1.995 . S
N324 C325 1.376 . S
N324 C328 1.383 . S
C325 N324 1.376 . S
C325 C326 1.446 . S
C325 C355 1.391 . S
C326 C325 1.446 . S
C326 C327 1.339 . S
C326 H361 0.949 . S
C327 C326 1.339 . S
C327 C328 1.439 . S
C327 H362 0.950 . S
C328 N324 1.383 . S
C328 C327 1.439 . S
C328 C357 1.392 . S
N329 Co323 2.008 . S
N329 C330 1.376 . S
N329 C333 1.374 . S
C330 N329 1.376 . S
C330 C331 1.443 . S
C330 C357 1.389 . S
C331 C330 1.443 . S
C331 C332 1.340 . S
C331 H363 0.951 . S
C332 C331 1.340 . S
C332 C333 1.439 . S
C332 H364 0.950 . S
C333 N329 1.374 . S
C333 C332 1.439 . S
C333 C358 1.395 . S
N334 Co323 1.995 . S
N334 C335 1.376 . S
N334 C338 1.383 . S
C335 N334 1.376 . S
C335 C336 1.446 . S
C335 C358 1.391 . S
C336 C335 1.446 . S
C336 C337 1.339 . S
C336 H365 0.949 . S
C337 C336 1.339 . S
C337 C338 1.439 . S
C337 H366 0.950 . S
C338 N334 1.383 . S
C338 C337 1.439 . S
C338 C356 1.392 . S
N339 Co323 2.282 . S
N339 C342 1.332 . S
N339 C344 1.332 . S
C340 C341 1.386 . S
C340 C343 1.388 . S
C341 C340 1.386 . S
C341 C342 1.382 . S
C341 H367 0.950 . S
C342 N339 1.332 . S
C342 C341 1.382 . S
C342 H353 0.952 . S
C343 C340 1.388 . S
C343 C344 1.382 . S
C343 H368 0.950 . S
C344 N339 1.332 . S
C344 C343 1.382 . S
C344 H354 0.948 . S
N345 Co323 2.282 . S
N345 C349 1.332 . S
N345 C350 1.332 . S
C346 C347 1.388 . S
C346 C350 1.382 . S
C346 H369 0.950 . S
C347 C346 1.388 . S
C347 C348 1.386 . S
C348 C347 1.386 . S
C348 C349 1.382 . S
C348 H370 0.950 . S
C349 N345 1.332 . S
C349 C348 1.382 . S
C349 H351 0.952 . S
C350 N345 1.332 . S
C350 C346 1.382 . S
C350 H352 0.948 . S
H351 C349 0.952 . S
H352 C350 0.948 . S
H353 C342 0.952 . S
H354 C344 0.948 . S
C355 C321 1.395 . S
C355 C325 1.391 . S
C356 C318 1.389 . S
C356 C338 1.392 . S
C357 C328 1.392 . S
C357 C330 1.389 . S
C358 C333 1.395 . S
C358 C335 1.391 . S
H359 C319 0.951 . S
H360 C320 0.950 . S
H361 C326 0.949 . S
H362 C327 0.950 . S
H363 C331 0.951 . S
H364 C332 0.950 . S
H365 C336 0.949 . S
H366 C337 0.950 . S
H367 C341 0.950 . S
H368 C343 0.950 . S
H369 C346 0.950 . S
H370 C348 0.950 . S
C371 C372 1.443 . S
C371 N375 1.376 . S
C371 C409 1.389 . S
C372 C371 1.443 . S
C372 C373 1.340 . S
C372 H412 0.951 . S
C373 C372 1.340 . S
C373 C374 1.439 . S
C373 H413 0.950 . S
C374 C373 1.439 . S
C374 N375 1.374 . S
C374 C408 1.395 . S
N375 C371 1.376 . S
N375 C374 1.374 . S
N375 Co376 2.008 . S
Co376 N375 2.008 . S
Co376 N377 1.995 . S
Co376 N382 2.008 . S
Co376 N387 1.995 . S
Co376 N392 2.282 . S
Co376 N398 2.282 . S
N377 Co376 1.995 . S
N377 C378 1.376 . S
N377 C381 1.383 . S
C378 N377 1.376 . S
C378 C379 1.446 . S
C378 C408 1.391 . S
C379 C378 1.446 . S
C379 C380 1.339 . S
C379 H414 0.949 . S
C380 C379 1.339 . S
C380 C381 1.439 . S
C380 H415 0.950 . S
C381 N377 1.383 . S
C381 C380 1.439 . S
C381 C410 1.392 . S
N382 Co376 2.008 . S
N382 C383 1.376 . S
N382 C386 1.374 . S
C383 N382 1.376 . S
C383 C384 1.443 . S
C383 C410 1.389 . S
C384 C383 1.443 . S
C384 C385 1.340 . S
C384 H416 0.951 . S
C385 C384 1.340 . S
C385 C386 1.439 . S
C385 H417 0.950 . S
C386 N382 1.374 . S
C386 C385 1.439 . S
C386 C411 1.395 . S
N387 Co376 1.995 . S
N387 C388 1.376 . S
N387 C391 1.383 . S
C388 N387 1.376 . S
C388 C389 1.446 . S
C388 C411 1.391 . S
C389 C388 1.446 . S
C389 C390 1.339 . S
C389 H418 0.949 . S
C390 C389 1.339 . S
C390 C391 1.439 . S
C390 H419 0.950 . S
C391 N387 1.383 . S
C391 C390 1.439 . S
C391 C409 1.392 . S
N392 Co376 2.282 . S
N392 C395 1.332 . S
N392 C397 1.332 . S
C393 C394 1.386 . S
C393 C396 1.388 . S
C394 C393 1.386 . S
C394 C395 1.382 . S
C394 H420 0.950 . S
C395 N392 1.332 . S
C395 C394 1.382 . S
C395 H406 0.952 . S
C396 C393 1.388 . S
C396 C397 1.382 . S
C396 H421 0.950 . S
C397 N392 1.332 . S
C397 C396 1.382 . S
C397 H407 0.948 . S
N398 Co376 2.282 . S
N398 C402 1.332 . S
N398 C403 1.332 . S
C399 C400 1.388 . S
C399 C403 1.382 . S
C399 H422 0.950 . S
C400 C399 1.388 . S
C400 C401 1.386 . S
C401 C400 1.386 . S
C401 C402 1.382 . S
C401 H423 0.950 . S
C402 N398 1.332 . S
C402 C401 1.382 . S
C402 H404 0.952 . S
C403 N398 1.332 . S
C403 C399 1.382 . S
C403 H405 0.948 . S
H404 C402 0.952 . S
H405 C403 0.948 . S
H406 C395 0.952 . S
H407 C397 0.948 . S
C408 C374 1.395 . S
C408 C378 1.391 . S
C409 C371 1.389 . S
C409 C391 1.392 . S
C410 C381 1.392 . S
C410 C383 1.389 . S
C411 C386 1.395 . S
C411 C388 1.391 . S
H412 C372 0.951 . S
H413 C373 0.950 . S
H414 C379 0.949 . S
H415 C380 0.950 . S
H416 C384 0.951 . S
H417 C385 0.950 . S
H418 C389 0.949 . S
H419 C390 0.950 . S
H420 C394 0.950 . S
H421 C396 0.950 . S
H422 C399 0.950 . S
H423 C401 0.950 . S
C424 C425 1.443 . S
C424 N428 1.376 . S
C424 C462 1.389 . S
C425 C424 1.443 . S
C425 C426 1.340 . S
C425 H465 0.951 . S
C426 C425 1.340 . S
C426 C427 1.439 . S
C426 H466 0.950 . S
C427 C426 1.439 . S
C427 N428 1.374 . S
C427 C461 1.395 . S
N428 C424 1.376 . S
N428 C427 1.374 . S
N428 Co429 2.008 . S
Co429 N428 2.008 . S
Co429 N430 1.995 . S
Co429 N435 2.008 . S
Co429 N440 1.995 . S
Co429 N445 2.282 . S
Co429 N451 2.282 . S
N430 Co429 1.995 . S
N430 C431 1.376 . S
N430 C434 1.383 . S
C431 N430 1.376 . S
C431 C432 1.446 . S
C431 C461 1.391 . S
C432 C431 1.446 . S
C432 C433 1.339 . S
C432 H467 0.949 . S
C433 C432 1.339 . S
C433 C434 1.439 . S
C433 H468 0.950 . S
C434 N430 1.383 . S
C434 C433 1.439 . S
C434 C463 1.392 . S
N435 Co429 2.008 . S
N435 C436 1.376 . S
N435 C439 1.374 . S
C436 N435 1.376 . S
C436 C437 1.443 . S
C436 C463 1.389 . S
C437 C436 1.443 . S
C437 C438 1.340 . S
C437 H469 0.951 . S
C438 C437 1.340 . S
C438 C439 1.439 . S
C438 H470 0.950 . S
C439 N435 1.374 . S
C439 C438 1.439 . S
C439 C464 1.395 . S
N440 Co429 1.995 . S
N440 C441 1.376 . S
N440 C444 1.383 . S
C441 N440 1.376 . S
C441 C442 1.446 . S
C441 C464 1.391 . S
C442 C441 1.446 . S
C442 C443 1.339 . S
C442 H471 0.949 . S
C443 C442 1.339 . S
C443 C444 1.439 . S
C443 H472 0.950 . S
C444 N440 1.383 . S
C444 C443 1.439 . S
C444 C462 1.392 . S
N445 Co429 2.282 . S
N445 C448 1.332 . S
N445 C450 1.332 . S
C446 C447 1.386 . S
C446 C449 1.388 . S
C447 C446 1.386 . S
C447 C448 1.382 . S
C447 H473 0.950 . S
C448 N445 1.332 . S
C448 C447 1.382 . S
C448 H459 0.952 . S
C449 C446 1.388 . S
C449 C450 1.382 . S
C449 H474 0.950 . S
C450 N445 1.332 . S
C450 C449 1.382 . S
C450 H460 0.948 . S
N451 Co429 2.282 . S
N451 C455 1.332 . S
N451 C456 1.332 . S
C452 C453 1.388 . S
C452 C456 1.382 . S
C452 H475 0.950 . S
C453 C452 1.388 . S
C453 C454 1.386 . S
C454 C453 1.386 . S
C454 C455 1.382 . S
C454 H476 0.950 . S
C455 N451 1.332 . S
C455 C454 1.382 . S
C455 H457 0.952 . S
C456 N451 1.332 . S
C456 C452 1.382 . S
C456 H458 0.948 . S
H457 C455 0.952 . S
H458 C456 0.948 . S
H459 C448 0.952 . S
H460 C450 0.948 . S
C461 C427 1.395 . S
C461 C431 1.391 . S
C462 C424 1.389 . S
C462 C444 1.392 . S
C463 C434 1.392 . S
C463 C436 1.389 . S
C464 C439 1.395 . S
C464 C441 1.391 . S
H465 C425 0.951 . S
H466 C426 0.950 . S
H467 C432 0.949 . S
H468 C433 0.950 . S
H469 C437 0.951 . S
H470 C438 0.950 . S
H471 C442 0.949 . S
H472 C443 0.950 . S
H473 C447 0.950 . S
H474 C449 0.950 . S
H475 C452 0.950 . S
H476 C454 0.950 . S
C477 C478 1.443 . S
C477 N481 1.376 . S
C477 C515 1.389 . S
C478 C477 1.443 . S
C478 C479 1.340 . S
C478 H518 0.951 . S
C479 C478 1.340 . S
C479 C480 1.439 . S
C479 H519 0.950 . S
C480 C479 1.439 . S
C480 N481 1.374 . S
C480 C514 1.395 . S
N481 C477 1.376 . S
N481 C480 1.374 . S
N481 Co482 2.008 . S
Co482 N481 2.008 . S
Co482 N483 1.995 . S
Co482 N488 2.008 . S
Co482 N493 1.995 . S
Co482 N498 2.282 . S
Co482 N504 2.282 . S
N483 Co482 1.995 . S
N483 C484 1.376 . S
N483 C487 1.383 . S
C484 N483 1.376 . S
C484 C485 1.446 . S
C484 C514 1.391 . S
C485 C484 1.446 . S
C485 C486 1.339 . S
C485 H520 0.949 . S
C486 C485 1.339 . S
C486 C487 1.439 . S
C486 H521 0.950 . S
C487 N483 1.383 . S
C487 C486 1.439 . S
C487 C516 1.392 . S
N488 Co482 2.008 . S
N488 C489 1.376 . S
N488 C492 1.374 . S
C489 N488 1.376 . S
C489 C490 1.443 . S
C489 C516 1.389 . S
C490 C489 1.443 . S
C490 C491 1.340 . S
C490 H522 0.951 . S
C491 C490 1.340 . S
C491 C492 1.439 . S
C491 H523 0.950 . S
C492 N488 1.374 . S
C492 C491 1.439 . S
C492 C517 1.395 . S
N493 Co482 1.995 . S
N493 C494 1.376 . S
N493 C497 1.383 . S
C494 N493 1.376 . S
C494 C495 1.446 . S
C494 C517 1.391 . S
C495 C494 1.446 . S
C495 C496 1.339 . S
C495 H524 0.949 . S
C496 C495 1.339 . S
C496 C497 1.439 . S
C496 H525 0.950 . S
C497 N493 1.383 . S
C497 C496 1.439 . S
C497 C515 1.392 . S
N498 Co482 2.282 . S
N498 C501 1.332 . S
N498 C503 1.332 . S
C499 C500 1.386 . S
C499 C502 1.388 . S
C500 C499 1.386 . S
C500 C501 1.382 . S
C500 H526 0.950 . S
C501 N498 1.332 . S
C501 C500 1.382 . S
C501 H512 0.952 . S
C502 C499 1.388 . S
C502 C503 1.382 . S
C502 H527 0.950 . S
C503 N498 1.332 . S
C503 C502 1.382 . S
C503 H513 0.948 . S
N504 Co482 2.282 . S
N504 C508 1.332 . S
N504 C509 1.332 . S
C505 C506 1.388 . S
C505 C509 1.382 . S
C505 H528 0.950 . S
C506 C505 1.388 . S
C506 C507 1.386 . S
C507 C506 1.386 . S
C507 C508 1.382 . S
C507 H529 0.950 . S
C508 N504 1.332 . S
C508 C507 1.382 . S
C508 H510 0.952 . S
C509 N504 1.332 . S
C509 C505 1.382 . S
C509 H511 0.948 . S
H510 C508 0.952 . S
H511 C509 0.948 . S
H512 C501 0.952 . S
H513 C503 0.948 . S
C514 C480 1.395 . S
C514 C484 1.391 . S
C515 C477 1.389 . S
C515 C497 1.392 . S
C516 C487 1.392 . S
C516 C489 1.389 . S
C517 C492 1.395 . S
C517 C494 1.391 . S
H518 C478 0.951 . S
H519 C479 0.950 . S
H520 C485 0.949 . S
H521 C486 0.950 . S
H522 C490 0.951 . S
H523 C491 0.950 . S
H524 C495 0.949 . S
H525 C496 0.950 . S
H526 C500 0.950 . S
H527 C502 0.950 . S
H528 C505 0.950 . S
H529 C507 0.950 . S
C530 C531 1.443 . S
C530 N534 1.376 . S
C530 C568 1.389 . S
C531 C530 1.443 . S
C531 C532 1.340 . S
C531 H571 0.951 . S
C532 C531 1.340 . S
C532 C533 1.439 . S
C532 H572 0.950 . S
C533 C532 1.439 . S
C533 N534 1.374 . S
C533 C567 1.395 . S
N534 C530 1.376 . S
N534 C533 1.374 . S
N534 Co535 2.008 . S
Co535 N534 2.008 . S
Co535 N536 1.995 . S
Co535 N541 2.008 . S
Co535 N546 1.995 . S
Co535 N551 2.282 . S
Co535 N557 2.282 . S
N536 Co535 1.995 . S
N536 C537 1.376 . S
N536 C540 1.383 . S
C537 N536 1.376 . S
C537 C538 1.446 . S
C537 C567 1.391 . S
C538 C537 1.446 . S
C538 C539 1.339 . S
C538 H573 0.949 . S
C539 C538 1.339 . S
C539 C540 1.439 . S
C539 H574 0.950 . S
C540 N536 1.383 . S
C540 C539 1.439 . S
C540 C569 1.392 . S
N541 Co535 2.008 . S
N541 C542 1.376 . S
N541 C545 1.374 . S
C542 N541 1.376 . S
C542 C543 1.443 . S
C542 C569 1.389 . S
C543 C542 1.443 . S
C543 C544 1.340 . S
C543 H575 0.951 . S
C544 C543 1.340 . S
C544 C545 1.439 . S
C544 H576 0.950 . S
C545 N541 1.374 . S
C545 C544 1.439 . S
C545 C570 1.395 . S
N546 Co535 1.995 . S
N546 C547 1.376 . S
N546 C550 1.383 . S
C547 N546 1.376 . S
C547 C548 1.446 . S
C547 C570 1.391 . S
C548 C547 1.446 . S
C548 C549 1.339 . S
C548 H577 0.949 . S
C549 C548 1.339 . S
C549 C550 1.439 . S
C549 H578 0.950 . S
C550 N546 1.383 . S
C550 C549 1.439 . S
C550 C568 1.392 . S
N551 Co535 2.282 . S
N551 C554 1.332 . S
N551 C556 1.332 . S
C552 C553 1.386 . S
C552 C555 1.388 . S
C553 C552 1.386 . S
C553 C554 1.382 . S
C553 H579 0.950 . S
C554 N551 1.332 . S
C554 C553 1.382 . S
C554 H565 0.952 . S
C555 C552 1.388 . S
C555 C556 1.382 . S
C555 H580 0.950 . S
C556 N551 1.332 . S
C556 C555 1.382 . S
C556 H566 0.948 . S
N557 Co535 2.282 . S
N557 C561 1.332 . S
N557 C562 1.332 . S
C558 C559 1.388 . S
C558 C562 1.382 . S
C558 H581 0.950 . S
C559 C558 1.388 . S
C559 C560 1.386 . S
C560 C559 1.386 . S
C560 C561 1.382 . S
C560 H582 0.950 . S
C561 N557 1.332 . S
C561 C560 1.382 . S
C561 H563 0.952 . S
C562 N557 1.332 . S
C562 C558 1.382 . S
C562 H564 0.948 . S
H563 C561 0.952 . S
H564 C562 0.948 . S
H565 C554 0.952 . S
H566 C556 0.948 . S
C567 C533 1.395 . S
C567 C537 1.391 . S
C568 C530 1.389 . S
C568 C550 1.392 . S
C569 C540 1.392 . S
C569 C542 1.389 . S
C570 C545 1.395 . S
C570 C547 1.391 . S
H571 C531 0.951 . S
H572 C532 0.950 . S
H573 C538 0.949 . S
H574 C539 0.950 . S
H575 C543 0.951 . S
H576 C544 0.950 . S
H577 C548 0.949 . S
H578 C549 0.950 . S
H579 C553 0.950 . S
H580 C555 0.950 . S
H581 C558 0.950 . S
H582 C560 0.950 . S
C583 C584 1.443 . S
C583 N587 1.376 . S
C583 C621 1.389 . S
C584 C583 1.443 . S
C584 C585 1.340 . S
C584 H624 0.951 . S
C585 C584 1.340 . S
C585 C586 1.439 . S
C585 H625 0.950 . S
C586 C585 1.439 . S
C586 N587 1.374 . S
C586 C620 1.395 . S
N587 C583 1.376 . S
N587 C586 1.374 . S
N587 Co588 2.008 . S
Co588 N587 2.008 . S
Co588 N589 1.995 . S
Co588 N594 2.008 . S
Co588 N599 1.995 . S
Co588 N604 2.282 . S
Co588 N610 2.282 . S
N589 Co588 1.995 . S
N589 C590 1.376 . S
N589 C593 1.383 . S
C590 N589 1.376 . S
C590 C591 1.446 . S
C590 C620 1.391 . S
C591 C590 1.446 . S
C591 C592 1.339 . S
C591 H626 0.949 . S
C592 C591 1.339 . S
C592 C593 1.439 . S
C592 H627 0.950 . S
C593 N589 1.383 . S
C593 C592 1.439 . S
C593 C622 1.392 . S
N594 Co588 2.008 . S
N594 C595 1.376 . S
N594 C598 1.374 . S
C595 N594 1.376 . S
C595 C596 1.443 . S
C595 C622 1.389 . S
C596 C595 1.443 . S
C596 C597 1.340 . S
C596 H628 0.951 . S
C597 C596 1.340 . S
C597 C598 1.439 . S
C597 H629 0.950 . S
C598 N594 1.374 . S
C598 C597 1.439 . S
C598 C623 1.395 . S
N599 Co588 1.995 . S
N599 C600 1.376 . S
N599 C603 1.383 . S
C600 N599 1.376 . S
C600 C601 1.446 . S
C600 C623 1.391 . S
C601 C600 1.446 . S
C601 C602 1.339 . S
C601 H630 0.949 . S
C602 C601 1.339 . S
C602 C603 1.439 . S
C602 H631 0.950 . S
C603 N599 1.383 . S
C603 C602 1.439 . S
C603 C621 1.392 . S
N604 Co588 2.282 . S
N604 C607 1.332 . S
N604 C609 1.332 . S
C605 C606 1.386 . S
C605 C608 1.388 . S
C606 C605 1.386 . S
C606 C607 1.382 . S
C606 H632 0.950 . S
C607 N604 1.332 . S
C607 C606 1.382 . S
C607 H618 0.952 . S
C608 C605 1.388 . S
C608 C609 1.382 . S
C608 H633 0.950 . S
C609 N604 1.332 . S
C609 C608 1.382 . S
C609 H619 0.948 . S
N610 Co588 2.282 . S
N610 C614 1.332 . S
N610 C615 1.332 . S
C611 C612 1.388 . S
C611 C615 1.382 . S
C611 H634 0.950 . S
C612 C611 1.388 . S
C612 C613 1.386 . S
C613 C612 1.386 . S
C613 C614 1.382 . S
C613 H635 0.950 . S
C614 N610 1.332 . S
C614 C613 1.382 . S
C614 H616 0.952 . S
C615 N610 1.332 . S
C615 C611 1.382 . S
C615 H617 0.948 . S
H616 C614 0.952 . S
H617 C615 0.948 . S
H618 C607 0.952 . S
H619 C609 0.948 . S
C620 C586 1.395 . S
C620 C590 1.391 . S
C621 C583 1.389 . S
C621 C603 1.392 . S
C622 C593 1.392 . S
C622 C595 1.389 . S
C623 C598 1.395 . S
C623 C600 1.391 . S
H624 C584 0.951 . S
H625 C585 0.950 . S
H626 C591 0.949 . S
H627 C592 0.950 . S
H628 C596 0.951 . S
H629 C597 0.950 . S
H630 C601 0.949 . S
H631 C602 0.950 . S
H632 C606 0.950 . S
H633 C608 0.950 . S
H634 C611 0.950 . S
H635 C613 0.950 . S
C636 C637 1.443 . S
C636 N640 1.376 . S
C636 C674 1.389 . S
C637 C636 1.443 . S
C637 C638 1.340 . S
C637 H677 0.951 . S
C638 C637 1.340 . S
C638 C639 1.439 . S
C638 H678 0.950 . S
C639 C638 1.439 . S
C639 N640 1.374 . S
C639 C673 1.395 . S
N640 C636 1.376 . S
N640 C639 1.374 . S
N640 Co641 2.008 . S
Co641 N640 2.008 . S
Co641 N642 1.995 . S
Co641 N647 2.008 . S
Co641 N652 1.995 . S
Co641 N657 2.282 . S
Co641 N663 2.282 . S
N642 Co641 1.995 . S
N642 C643 1.376 . S
N642 C646 1.383 . S
C643 N642 1.376 . S
C643 C644 1.446 . S
C643 C673 1.391 . S
C644 C643 1.446 . S
C644 C645 1.339 . S
C644 H679 0.949 . S
C645 C644 1.339 . S
C645 C646 1.439 . S
C645 H680 0.950 . S
C646 N642 1.383 . S
C646 C645 1.439 . S
C646 C675 1.392 . S
N647 Co641 2.008 . S
N647 C648 1.376 . S
N647 C651 1.374 . S
C648 N647 1.376 . S
C648 C649 1.443 . S
C648 C675 1.389 . S
C649 C648 1.443 . S
C649 C650 1.340 . S
C649 H681 0.951 . S
C650 C649 1.340 . S
C650 C651 1.439 . S
C650 H682 0.950 . S
C651 N647 1.374 . S
C651 C650 1.439 . S
C651 C676 1.395 . S
N652 Co641 1.995 . S
N652 C653 1.376 . S
N652 C656 1.383 . S
C653 N652 1.376 . S
C653 C654 1.446 . S
C653 C676 1.391 . S
C654 C653 1.446 . S
C654 C655 1.339 . S
C654 H683 0.949 . S
C655 C654 1.339 . S
C655 C656 1.439 . S
C655 H684 0.950 . S
C656 N652 1.383 . S
C656 C655 1.439 . S
C656 C674 1.392 . S
N657 Co641 2.282 . S
N657 C660 1.332 . S
N657 C662 1.332 . S
C658 C659 1.386 . S
C658 C661 1.388 . S
C659 C658 1.386 . S
C659 C660 1.382 . S
C659 H685 0.950 . S
C660 N657 1.332 . S
C660 C659 1.382 . S
C660 H671 0.952 . S
C661 C658 1.388 . S
C661 C662 1.382 . S
C661 H686 0.950 . S
C662 N657 1.332 . S
C662 C661 1.382 . S
C662 H672 0.948 . S
N663 Co641 2.282 . S
N663 C667 1.332 . S
N663 C668 1.332 . S
C664 C665 1.388 . S
C664 C668 1.382 . S
C664 H687 0.950 . S
C665 C664 1.388 . S
C665 C666 1.386 . S
C666 C665 1.386 . S
C666 C667 1.382 . S
C666 H688 0.950 . S
C667 N663 1.332 . S
C667 C666 1.382 . S
C667 H669 0.952 . S
C668 N663 1.332 . S
C668 C664 1.382 . S
C668 H670 0.948 . S
H669 C667 0.952 . S
H670 C668 0.948 . S
H671 C660 0.952 . S
H672 C662 0.948 . S
C673 C639 1.395 . S
C673 C643 1.391 . S
C674 C636 1.389 . S
C674 C656 1.392 . S
C675 C646 1.392 . S
C675 C648 1.389 . S
C676 C651 1.395 . S
C676 C653 1.391 . S
H677 C637 0.951 . S
H678 C638 0.950 . S
H679 C644 0.949 . S
H680 C645 0.950 . S
H681 C649 0.951 . S
H682 C650 0.950 . S
H683 C654 0.949 . S
H684 C655 0.950 . S
H685 C659 0.950 . S
H686 C661 0.950 . S
H687 C664 0.950 . S
H688 C666 0.950 . S
C689 C690 1.443 . S
C689 N693 1.376 . S
C689 C727 1.389 . S
C690 C689 1.443 . S
C690 C691 1.340 . S
C690 H730 0.951 . S
C691 C690 1.340 . S
C691 C692 1.439 . S
C691 H731 0.950 . S
C692 C691 1.439 . S
C692 N693 1.374 . S
C692 C726 1.395 . S
N693 C689 1.376 . S
N693 C692 1.374 . S
N693 Co694 2.008 . S
Co694 N693 2.008 . S
Co694 N695 1.995 . S
Co694 N700 2.008 . S
Co694 N705 1.995 . S
Co694 N710 2.282 . S
Co694 N716 2.282 . S
N695 Co694 1.995 . S
N695 C696 1.376 . S
N695 C699 1.383 . S
C696 N695 1.376 . S
C696 C697 1.446 . S
C696 C726 1.391 . S
C697 C696 1.446 . S
C697 C698 1.339 . S
C697 H732 0.949 . S
C698 C697 1.339 . S
C698 C699 1.439 . S
C698 H733 0.950 . S
C699 N695 1.383 . S
C699 C698 1.439 . S
C699 C728 1.392 . S
N700 Co694 2.008 . S
N700 C701 1.376 . S
N700 C704 1.374 . S
C701 N700 1.376 . S
C701 C702 1.443 . S
C701 C728 1.389 . S
C702 C701 1.443 . S
C702 C703 1.340 . S
C702 H734 0.951 . S
C703 C702 1.340 . S
C703 C704 1.439 . S
C703 H735 0.950 . S
C704 N700 1.374 . S
C704 C703 1.439 . S
C704 C729 1.395 . S
N705 Co694 1.995 . S
N705 C706 1.376 . S
N705 C709 1.383 . S
C706 N705 1.376 . S
C706 C707 1.446 . S
C706 C729 1.391 . S
C707 C706 1.446 . S
C707 C708 1.339 . S
C707 H736 0.949 . S
C708 C707 1.339 . S
C708 C709 1.439 . S
C708 H737 0.950 . S
C709 N705 1.383 . S
C709 C708 1.439 . S
C709 C727 1.392 . S
N710 Co694 2.282 . S
N710 C713 1.332 . S
N710 C715 1.332 . S
C711 C712 1.386 . S
C711 C714 1.388 . S
C712 C711 1.386 . S
C712 C713 1.382 . S
C712 H738 0.950 . S
C713 N710 1.332 . S
C713 C712 1.382 . S
C713 H724 0.952 . S
C714 C711 1.388 . S
C714 C715 1.382 . S
C714 H739 0.950 . S
C715 N710 1.332 . S
C715 C714 1.382 . S
C715 H725 0.948 . S
N716 Co694 2.282 . S
N716 C720 1.332 . S
N716 C721 1.332 . S
C717 C718 1.388 . S
C717 C721 1.382 . S
C717 H740 0.950 . S
C718 C717 1.388 . S
C718 C719 1.386 . S
C719 C718 1.386 . S
C719 C720 1.382 . S
C719 H741 0.950 . S
C720 N716 1.332 . S
C720 C719 1.382 . S
C720 H722 0.952 . S
C721 N716 1.332 . S
C721 C717 1.382 . S
C721 H723 0.948 . S
H722 C720 0.952 . S
H723 C721 0.948 . S
H724 C713 0.952 . S
H725 C715 0.948 . S
C726 C692 1.395 . S
C726 C696 1.391 . S
C727 C689 1.389 . S
C727 C709 1.392 . S
C728 C699 1.392 . S
C728 C701 1.389 . S
C729 C704 1.395 . S
C729 C706 1.391 . S
H730 C690 0.951 . S
H731 C691 0.950 . S
H732 C697 0.949 . S
H733 C698 0.950 . S
H734 C702 0.951 . S
H735 C703 0.950 . S
H736 C707 0.949 . S
H737 C708 0.950 . S
H738 C712 0.950 . S
H739 C714 0.950 . S
H740 C717 0.950 . S
H741 C719 0.950 . S
C742 C743 1.443 . S
C742 N746 1.376 . S
C742 C780 1.389 . S
C743 C742 1.443 . S
C743 C744 1.340 . S
C743 H783 0.951 . S
C744 C743 1.340 . S
C744 C745 1.439 . S
C744 H784 0.950 . S
C745 C744 1.439 . S
C745 N746 1.374 . S
C745 C779 1.395 . S
N746 C742 1.376 . S
N746 C745 1.374 . S
N746 Co747 2.008 . S
Co747 N746 2.008 . S
Co747 N748 1.995 . S
Co747 N753 2.008 . S
Co747 N758 1.995 . S
Co747 N763 2.282 . S
Co747 N769 2.282 . S
N748 Co747 1.995 . S
N748 C749 1.376 . S
N748 C752 1.383 . S
C749 N748 1.376 . S
C749 C750 1.446 . S
C749 C779 1.391 . S
C750 C749 1.446 . S
C750 C751 1.339 . S
C750 H785 0.949 . S
C751 C750 1.339 . S
C751 C752 1.439 . S
C751 H786 0.950 . S
C752 N748 1.383 . S
C752 C751 1.439 . S
C752 C781 1.392 . S
N753 Co747 2.008 . S
N753 C754 1.376 . S
N753 C757 1.374 . S
C754 N753 1.376 . S
C754 C755 1.443 . S
C754 C781 1.389 . S
C755 C754 1.443 . S
C755 C756 1.340 . S
C755 H787 0.951 . S
C756 C755 1.340 . S
C756 C757 1.439 . S
C756 H788 0.950 . S
C757 N753 1.374 . S
C757 C756 1.439 . S
C757 C782 1.395 . S
N758 Co747 1.995 . S
N758 C759 1.376 . S
N758 C762 1.383 . S
C759 N758 1.376 . S
C759 C760 1.446 . S
C759 C782 1.391 . S
C760 C759 1.446 . S
C760 C761 1.339 . S
C760 H789 0.949 . S
C761 C760 1.339 . S
C761 C762 1.439 . S
C761 H790 0.950 . S
C762 N758 1.383 . S
C762 C761 1.439 . S
C762 C780 1.392 . S
N763 Co747 2.282 . S
N763 C766 1.332 . S
N763 C768 1.332 . S
C764 C765 1.386 . S
C764 C767 1.388 . S
C765 C764 1.386 . S
C765 C766 1.382 . S
C765 H791 0.950 . S
C766 N763 1.332 . S
C766 C765 1.382 . S
C766 H777 0.952 . S
C767 C764 1.388 . S
C767 C768 1.382 . S
C767 H792 0.950 . S
C768 N763 1.332 . S
C768 C767 1.382 . S
C768 H778 0.948 . S
N769 Co747 2.282 . S
N769 C773 1.332 . S
N769 C774 1.332 . S
C770 C771 1.388 . S
C770 C774 1.382 . S
C770 H793 0.950 . S
C771 C770 1.388 . S
C771 C772 1.386 . S
C772 C771 1.386 . S
C772 C773 1.382 . S
C772 H794 0.950 . S
C773 N769 1.332 . S
C773 C772 1.382 . S
C773 H775 0.952 . S
C774 N769 1.332 . S
C774 C770 1.382 . S
C774 H776 0.948 . S
H775 C773 0.952 . S
H776 C774 0.948 . S
H777 C766 0.952 . S
H778 C768 0.948 . S
C779 C745 1.395 . S
C779 C749 1.391 . S
C780 C742 1.389 . S
C780 C762 1.392 . S
C781 C752 1.392 . S
C781 C754 1.389 . S
C782 C757 1.395 . S
C782 C759 1.391 . S
H783 C743 0.951 . S
H784 C744 0.950 . S
H785 C750 0.949 . S
H786 C751 0.950 . S
H787 C755 0.951 . S
H788 C756 0.950 . S
H789 C760 0.949 . S
H790 C761 0.950 . S
H791 C765 0.950 . S
H792 C767 0.950 . S
H793 C770 0.950 . S
H794 C772 0.950 . S
C795 C796 1.443 . S
C795 N799 1.376 . S
C795 C833 1.389 . S
C796 C795 1.443 . S
C796 C797 1.340 . S
C796 H836 0.951 . S
C797 C796 1.340 . S
C797 C798 1.439 . S
C797 H837 0.950 . S
C798 C797 1.439 . S
C798 N799 1.374 . S
C798 C832 1.395 . S
N799 C795 1.376 . S
N799 C798 1.374 . S
N799 Co800 2.008 . S
Co800 N799 2.008 . S
Co800 N801 1.995 . S
Co800 N806 2.008 . S
Co800 N811 1.995 . S
Co800 N816 2.282 . S
Co800 N822 2.282 . S
N801 Co800 1.995 . S
N801 C802 1.376 . S
N801 C805 1.383 . S
C802 N801 1.376 . S
C802 C803 1.446 . S
C802 C832 1.391 . S
C803 C802 1.446 . S
C803 C804 1.339 . S
C803 H838 0.949 . S
C804 C803 1.339 . S
C804 C805 1.439 . S
C804 H839 0.950 . S
C805 N801 1.383 . S
C805 C804 1.439 . S
C805 C834 1.392 . S
N806 Co800 2.008 . S
N806 C807 1.376 . S
N806 C810 1.374 . S
C807 N806 1.376 . S
C807 C808 1.443 . S
C807 C834 1.389 . S
C808 C807 1.443 . S
C808 C809 1.340 . S
C808 H840 0.951 . S
C809 C808 1.340 . S
C809 C810 1.439 . S
C809 H841 0.950 . S
C810 N806 1.374 . S
C810 C809 1.439 . S
C810 C835 1.395 . S
N811 Co800 1.995 . S
N811 C812 1.376 . S
N811 C815 1.383 . S
C812 N811 1.376 . S
C812 C813 1.446 . S
C812 C835 1.391 . S
C813 C812 1.446 . S
C813 C814 1.339 . S
C813 H842 0.949 . S
C814 C813 1.339 . S
C814 C815 1.439 . S
C814 H843 0.950 . S
C815 N811 1.383 . S
C815 C814 1.439 . S
C815 C833 1.392 . S
N816 Co800 2.282 . S
N816 C819 1.332 . S
N816 C821 1.332 . S
C817 C818 1.386 . S
C817 C820 1.388 . S
C818 C817 1.386 . S
C818 C819 1.382 . S
C818 H844 0.950 . S
C819 N816 1.332 . S
C819 C818 1.382 . S
C819 H830 0.952 . S
C820 C817 1.388 . S
C820 C821 1.382 . S
C820 H845 0.950 . S
C821 N816 1.332 . S
C821 C820 1.382 . S
C821 H831 0.948 . S
N822 Co800 2.282 . S
N822 C826 1.332 . S
N822 C827 1.332 . S
C823 C824 1.388 . S
C823 C827 1.382 . S
C823 H846 0.950 . S
C824 C823 1.388 . S
C824 C825 1.386 . S
C825 C824 1.386 . S
C825 C826 1.382 . S
C825 H847 0.950 . S
C826 N822 1.332 . S
C826 C825 1.382 . S
C826 H828 0.952 . S
C827 N822 1.332 . S
C827 C823 1.382 . S
C827 H829 0.948 . S
H828 C826 0.952 . S
H829 C827 0.948 . S
H830 C819 0.952 . S
H831 C821 0.948 . S
C832 C798 1.395 . S
C832 C802 1.391 . S
C833 C795 1.389 . S
C833 C815 1.392 . S
C834 C805 1.392 . S
C834 C807 1.389 . S
C835 C810 1.395 . S
C835 C812 1.391 . S
H836 C796 0.951 . S
H837 C797 0.950 . S
H838 C803 0.949 . S
H839 C804 0.950 . S
H840 C808 0.951 . S
H841 C809 0.950 . S
H842 C813 0.949 . S
H843 C814 0.950 . S
H844 C818 0.950 . S
H845 C820 0.950 . S
H846 C823 0.950 . S
H847 C825 0.950 . S
H848 C856 0.950 . S
H849 C861 0.950 . S
H850 C858 0.950 . S
H851 C860 0.950 . S
H852 C862 0.950 . S
H853 C864 0.950 . S
H854 C866 0.950 . S
H855 C867 0.950 . S
C856 H848 0.950 . S
C856 C857 1.386 . S
C856 C858 1.391 . S
C857 C856 1.386 . S
C857 C861 1.393 . S
C858 H850 0.950 . S
C858 C856 1.391 . S
C858 C859 1.400 . S
C859 C858 1.400 . S
C859 C860 1.398 . S
C859 C865 1.491 . S
C860 H851 0.950 . S
C860 C859 1.398 . S
C860 C861 1.391 . S
C861 H849 0.950 . S
C861 C857 1.393 . S
C861 C860 1.391 . S
C862 H852 0.950 . S
C862 C863 1.386 . S
C862 C864 1.391 . S
C863 C862 1.386 . S
C863 C867 1.393 . S
C864 H853 0.950 . S
C864 C862 1.391 . S
C864 C865 1.400 . S
C865 C859 1.491 . S
C865 C864 1.400 . S
C865 C866 1.398 . S
C866 H854 0.950 . S
C866 C865 1.398 . S
C866 C867 1.391 . S
C867 H855 0.950 . S
C867 C863 1.393 . S
C867 C866 1.391 . S
H868 C876 0.950 . S
H869 C881 0.950 . S
H870 C878 0.950 . S
H871 C880 0.950 . S
H872 C882 0.950 . S
H873 C884 0.950 . S
H874 C886 0.950 . S
H875 C887 0.950 . S
C876 H868 0.950 . S
C876 C877 1.386 . S
C876 C878 1.391 . S
C877 C876 1.386 . S
C877 C881 1.393 . S
C878 H870 0.950 . S
C878 C876 1.391 . S
C878 C879 1.400 . S
C879 C878 1.400 . S
C879 C880 1.398 . S
C879 C885 1.491 . S
C880 H871 0.950 . S
C880 C879 1.398 . S
C880 C881 1.391 . S
C881 H869 0.950 . S
C881 C877 1.393 . S
C881 C880 1.391 . S
C882 H872 0.950 . S
C882 C883 1.386 . S
C882 C884 1.391 . S
C883 C882 1.386 . S
C883 C887 1.393 . S
C884 H873 0.950 . S
C884 C882 1.391 . S
C884 C885 1.400 . S
C885 C879 1.491 . S
C885 C884 1.400 . S
C885 C886 1.398 . S
C886 H874 0.950 . S
C886 C885 1.398 . S
C886 C887 1.391 . S
C887 H875 0.950 . S
C887 C883 1.393 . S
C887 C886 1.391 . S
H888 C896 0.950 . S
H889 C901 0.950 . S
H890 C898 0.950 . S
H891 C900 0.950 . S
H892 C902 0.950 . S
H893 C904 0.950 . S
H894 C906 0.950 . S
H895 C907 0.950 . S
C896 H888 0.950 . S
C896 C897 1.386 . S
C896 C898 1.391 . S
C897 C896 1.386 . S
C897 C901 1.393 . S
C898 H890 0.950 . S
C898 C896 1.391 . S
C898 C899 1.400 . S
C899 C898 1.400 . S
C899 C900 1.398 . S
C899 C905 1.491 1_554 S
C900 H891 0.950 . S
C900 C899 1.398 . S
C900 C901 1.391 . S
C901 H889 0.950 . S
C901 C897 1.393 . S
C901 C900 1.391 . S
C902 H892 0.950 . S
C902 C903 1.386 . S
C902 C904 1.391 . S
C903 C902 1.386 . S
C903 C907 1.393 . S
C904 H893 0.950 . S
C904 C902 1.391 . S
C904 C905 1.400 . S
C905 C899 1.491 1_556 S
C905 C904 1.400 . S
C905 C906 1.398 . S
C906 H894 0.950 . S
C906 C905 1.398 . S
C906 C907 1.391 . S
C907 H895 0.950 . S
C907 C903 1.393 . S
C907 C906 1.391 . S
H908 C916 0.950 . S
H909 C921 0.950 . S
H910 C918 0.950 . S
H911 C920 0.950 . S
H912 C922 0.950 . S
H913 C924 0.950 . S
H914 C926 0.950 . S
H915 C927 0.950 . S
C916 H908 0.950 . S
C916 C917 1.386 . S
C916 C918 1.391 . S
C917 C916 1.386 . S
C917 C921 1.393 . S
C918 H910 0.950 . S
C918 C916 1.391 . S
C918 C919 1.400 . S
C919 C918 1.400 . S
C919 C920 1.398 . S
C919 C925 1.491 1_556 S
C920 H911 0.950 . S
C920 C919 1.398 . S
C920 C921 1.391 . S
C921 H909 0.950 . S
C921 C917 1.393 . S
C921 C920 1.391 . S
C922 H912 0.950 . S
C922 C923 1.386 . S
C922 C924 1.391 . S
C923 C922 1.386 . S
C923 C927 1.393 . S
C924 H913 0.950 . S
C924 C922 1.391 . S
C924 C925 1.400 . S
C925 C919 1.491 1_554 S
C925 C924 1.400 . S
C925 C926 1.398 . S
C926 H914 0.950 . S
C926 C925 1.398 . S
C926 C927 1.391 . S
C927 H915 0.950 . S
C927 C923 1.393 . S
C927 C926 1.391 . S
H928 C936 0.950 . S
H929 C941 0.950 . S
H930 C938 0.950 . S
H931 C940 0.950 . S
H932 C942 0.950 . S
H933 C944 0.950 . S
H934 C946 0.950 . S
H935 C947 0.950 . S
C936 H928 0.950 . S
C936 C937 1.386 . S
C936 C938 1.391 . S
C937 C936 1.386 . S
C937 C941 1.393 . S
C938 H930 0.950 . S
C938 C936 1.391 . S
C938 C939 1.400 . S
C939 C938 1.400 . S
C939 C940 1.398 . S
C939 C945 1.491 . S
C940 H931 0.950 . S
C940 C939 1.398 . S
C940 C941 1.391 . S
C941 H929 0.950 . S
C941 C937 1.393 . S
C941 C940 1.391 . S
C942 H932 0.950 . S
C942 C943 1.386 . S
C942 C944 1.391 . S
C943 C942 1.386 . S
C943 C947 1.393 . S
C944 H933 0.950 . S
C944 C942 1.391 . S
C944 C945 1.400 . S
C945 C939 1.491 . S
C945 C944 1.400 . S
C945 C946 1.398 . S
C946 H934 0.950 . S
C946 C945 1.398 . S
C946 C947 1.391 . S
C947 H935 0.950 . S
C947 C943 1.393 . S
C947 C946 1.391 . S
H948 C956 0.950 . S
H949 C961 0.950 . S
H950 C958 0.950 . S
H951 C960 0.950 . S
H952 C962 0.950 . S
H953 C964 0.950 . S
H954 C966 0.950 . S
H955 C967 0.950 . S
C956 H948 0.950 . S
C956 C957 1.386 . S
C956 C958 1.391 . S
C957 C956 1.386 . S
C957 C961 1.393 . S
C958 H950 0.950 . S
C958 C956 1.391 . S
C958 C959 1.400 . S
C959 C958 1.400 . S
C959 C960 1.398 . S
C959 C965 1.491 . S
C960 H951 0.950 . S
C960 C959 1.398 . S
C960 C961 1.391 . S
C961 H949 0.950 . S
C961 C957 1.393 . S
C961 C960 1.391 . S
C962 H952 0.950 . S
C962 C963 1.386 . S
C962 C964 1.391 . S
C963 C962 1.386 . S
C963 C967 1.393 . S
C964 H953 0.950 . S
C964 C962 1.391 . S
C964 C965 1.400 . S
C965 C959 1.491 . S
C965 C964 1.400 . S
C965 C966 1.398 . S
C966 H954 0.950 . S
C966 C965 1.398 . S
C966 C967 1.391 . S
C967 H955 0.950 . S
C967 C963 1.393 . S
C967 C966 1.391 . S
H968 C976 0.950 . S
H969 C981 0.950 . S
H970 C978 0.950 . S
H971 C980 0.950 . S
H972 C982 0.950 . S
H973 C984 0.950 . S
H974 C986 0.950 . S
H975 C987 0.950 . S
C976 H968 0.950 . S
C976 C977 1.386 . S
C976 C978 1.391 . S
C977 C976 1.386 . S
C977 C981 1.393 . S
C978 H970 0.950 . S
C978 C976 1.391 . S
C978 C979 1.400 . S
C979 C978 1.400 . S
C979 C980 1.398 . S
C979 C985 1.491 1_556 S
C980 H971 0.950 . S
C980 C979 1.398 . S
C980 C981 1.391 . S
C981 H969 0.950 . S
C981 C977 1.393 . S
C981 C980 1.391 . S
C982 H972 0.950 . S
C982 C983 1.386 . S
C982 C984 1.391 . S
C983 C982 1.386 . S
C983 C987 1.393 . S
C984 H973 0.950 . S
C984 C982 1.391 . S
C984 C985 1.400 . S
C985 C979 1.491 1_554 S
C985 C984 1.400 . S
C985 C986 1.398 . S
C986 H974 0.950 . S
C986 C985 1.398 . S
C986 C987 1.391 . S
C987 H975 0.950 . S
C987 C983 1.393 . S
C987 C986 1.391 . S
H988 C996 0.950 . S
H989 C1001 0.950 . S
H990 C998 0.950 . S
H991 C1000 0.950 . S
H992 C1002 0.950 . S
H993 C1004 0.950 . S
H994 C1006 0.950 . S
H995 C1007 0.950 . S
C996 H988 0.950 . S
C996 C997 1.386 . S
C996 C998 1.391 . S
C997 C996 1.386 . S
C997 C1001 1.393 . S
C998 H990 0.950 . S
C998 C996 1.391 . S
C998 C999 1.400 . S
C999 C998 1.400 . S
C999 C1000 1.398 . S
C999 C1005 1.491 1_554 S
C1000 H991 0.950 . S
C1000 C999 1.398 . S
C1000 C1001 1.391 . S
C1001 H989 0.950 . S
C1001 C997 1.393 . S
C1001 C1000 1.391 . S
C1002 H992 0.950 . S
C1002 C1003 1.386 . S
C1002 C1004 1.391 . S
C1003 C1002 1.386 . S
C1003 C1007 1.393 . S
C1004 H993 0.950 . S
C1004 C1002 1.391 . S
C1004 C1005 1.400 . S
C1005 C999 1.491 1_556 S
C1005 C1004 1.400 . S
C1005 C1006 1.398 . S
C1006 H994 0.950 . S
C1006 C1005 1.398 . S
C1006 C1007 1.391 . S
C1007 H995 0.950 . S
C1007 C1003 1.393 . S
C1007 C1006 1.391 . S
H1008 C1016 0.950 . S
H1009 C1021 0.940 1_545 S
H1010 C1018 0.950 . S
H1011 C1020 0.950 . S
H1012 C1022 0.950 . S
H1013 C1024 0.950 . S
H1014 C1026 0.950 . S
H1015 C1027 0.940 1_565 S
C1016 H1008 0.950 . S
C1016 C1017 1.386 . S
C1016 C1018 1.391 . S
C1017 C1016 1.386 . S
C1017 C1021 1.410 . S
C1018 H1010 0.950 . S
C1018 C1016 1.391 . S
C1018 C1019 1.400 . S
C1019 C1018 1.400 . S
C1019 C1020 1.398 1_565 S
C1019 C1025 1.491 1_565 S
C1020 H1011 0.950 . S
C1020 C1019 1.398 1_545 S
C1020 C1021 1.384 1_545 S
C1021 H1009 0.940 1_565 S
C1021 C1017 1.410 . S
C1021 C1020 1.384 1_565 S
C1022 H1012 0.950 . S
C1022 C1023 1.386 . S
C1022 C1024 1.391 . S
C1023 C1022 1.386 . S
C1023 C1027 1.410 . S
C1024 H1013 0.950 . S
C1024 C1022 1.391 . S
C1024 C1025 1.400 . S
C1025 C1019 1.491 1_545 S
C1025 C1024 1.400 . S
C1025 C1026 1.398 1_545 S
C1026 H1014 0.950 . S
C1026 C1025 1.398 1_565 S
C1026 C1027 1.384 1_565 S
C1027 H1015 0.940 1_545 S
C1027 C1023 1.410 . S
C1027 C1026 1.384 1_545 S
H1028 C1036 0.950 . S
H1029 C1041 0.950 1_545 S
H1030 C1038 0.950 . S
H1031 C1040 0.950 . S
H1032 C1042 0.950 . S
H1033 C1044 0.950 . S
H1034 C1046 0.950 . S
H1035 C1047 0.950 1_565 S
C1036 H1028 0.950 . S
C1036 C1037 1.386 . S
C1036 C1038 1.391 . S
C1037 C1036 1.386 . S
C1037 C1041 1.393 . S
C1038 H1030 0.950 . S
C1038 C1036 1.391 . S
C1038 C1039 1.400 . S
C1039 C1038 1.400 . S
C1039 C1040 1.398 1_565 S
C1039 C1045 1.491 1_565 S
C1040 H1031 0.950 . S
C1040 C1039 1.398 1_545 S
C1040 C1041 1.391 1_545 S
C1041 H1029 0.950 1_565 S
C1041 C1037 1.393 . S
C1041 C1040 1.391 1_565 S
C1042 H1032 0.950 . S
C1042 C1043 1.386 . S
C1042 C1044 1.391 . S
C1043 C1042 1.386 . S
C1043 C1047 1.393 . S
C1044 H1033 0.950 . S
C1044 C1042 1.391 . S
C1044 C1045 1.400 . S
C1045 C1039 1.491 1_545 S
C1045 C1044 1.400 . S
C1045 C1046 1.398 1_545 S
C1046 H1034 0.950 . S
C1046 C1045 1.398 1_565 S
C1046 C1047 1.391 1_565 S
C1047 H1035 0.950 1_545 S
C1047 C1043 1.393 . S
C1047 C1046 1.391 1_545 S
H1048 C1056 0.950 . S
H1049 C1061 0.950 1_545 S
H1050 C1058 0.950 . S
H1051 C1060 0.950 . S
H1052 C1062 0.950 . S
H1053 C1064 0.950 . S
H1054 C1066 0.950 . S
H1055 C1067 0.950 1_565 S
C1056 H1048 0.950 . S
C1056 C1057 1.386 . S
C1056 C1058 1.391 . S
C1057 C1056 1.386 . S
C1057 C1061 1.393 . S
C1058 H1050 0.950 . S
C1058 C1056 1.391 . S
C1058 C1059 1.400 . S
C1059 C1058 1.400 . S
C1059 C1060 1.398 1_565 S
C1059 C1065 1.491 1_565 S
C1060 H1051 0.950 . S
C1060 C1059 1.398 1_545 S
C1060 C1061 1.391 1_545 S
C1061 H1049 0.950 1_565 S
C1061 C1057 1.393 . S
C1061 C1060 1.391 1_565 S
C1062 H1052 0.950 . S
C1062 C1063 1.386 . S
C1062 C1064 1.391 . S
C1063 C1062 1.386 . S
C1063 C1067 1.393 . S
C1064 H1053 0.950 . S
C1064 C1062 1.391 . S
C1064 C1065 1.400 . S
C1065 C1059 1.491 1_545 S
C1065 C1064 1.400 . S
C1065 C1066 1.398 1_545 S
C1066 H1054 0.950 . S
C1066 C1065 1.398 1_565 S
C1066 C1067 1.391 1_565 S
C1067 H1055 0.950 1_545 S
C1067 C1063 1.393 . S
C1067 C1066 1.391 1_545 S
H1068 C1076 0.950 1_565 S
H1069 C1081 0.950 . S
H1070 C1078 0.950 . S
H1071 C1080 0.950 . S
H1072 C1082 0.950 1_545 S
H1073 C1084 0.950 . S
H1074 C1086 0.950 . S
H1075 C1087 0.950 . S
C1076 H1068 0.950 1_545 S
C1076 C1077 1.386 . S
C1076 C1078 1.391 1_545 S
C1077 C1076 1.386 . S
C1077 C1081 1.393 . S
C1078 H1070 0.950 . S
C1078 C1076 1.391 1_565 S
C1078 C1079 1.400 1_565 S
C1079 C1078 1.400 1_545 S
C1079 C1080 1.398 . S
C1079 C1085 1.491 1_545 S
C1080 H1071 0.950 . S
C1080 C1079 1.398 . S
C1080 C1081 1.391 . S
C1081 H1069 0.950 . S
C1081 C1077 1.393 . S
C1081 C1080 1.391 . S
C1082 H1072 0.950 1_565 S
C1082 C1083 1.386 . S
C1082 C1084 1.391 1_565 S
C1083 C1082 1.386 . S
C1083 C1087 1.393 . S
C1084 H1073 0.950 . S
C1084 C1082 1.391 1_545 S
C1084 C1085 1.400 1_545 S
C1085 C1079 1.491 1_565 S
C1085 C1084 1.400 1_565 S
C1085 C1086 1.398 . S
C1086 H1074 0.950 . S
C1086 C1085 1.398 . S
C1086 C1087 1.391 . S
C1087 H1075 0.950 . S
C1087 C1083 1.393 . S
C1087 C1086 1.391 . S
H1088 C1096 0.950 . S
H1089 C1101 0.950 . S
H1090 C1098 0.950 . S
H1091 C1100 0.950 . S
H1092 C1102 0.950 . S
H1093 C1104 0.950 . S
H1094 C1106 0.950 . S
H1095 C1107 0.950 . S
C1096 H1088 0.950 . S
C1096 C1097 1.386 . S
C1096 C1098 1.391 . S
C1097 C1096 1.386 . S
C1097 C1101 1.393 . S
C1098 H1090 0.950 . S
C1098 C1096 1.391 . S
C1098 C1099 1.400 . S
C1099 C1098 1.400 . S
C1099 C1100 1.398 . S
C1099 C1105 1.491 1_655 S
C1100 H1091 0.950 . S
C1100 C1099 1.398 . S
C1100 C1101 1.391 . S
C1101 H1089 0.950 . S
C1101 C1097 1.393 . S
C1101 C1100 1.391 . S
C1102 H1092 0.950 . S
C1102 C1103 1.386 . S
C1102 C1104 1.391 . S
C1103 C1102 1.386 . S
C1103 C1107 1.393 . S
C1104 H1093 0.950 . S
C1104 C1102 1.391 . S
C1104 C1105 1.400 . S
C1105 C1099 1.491 1_455 S
C1105 C1104 1.400 . S
C1105 C1106 1.398 . S
C1106 H1094 0.950 . S
C1106 C1105 1.398 . S
C1106 C1107 1.391 . S
C1107 H1095 0.950 . S
C1107 C1103 1.393 . S
C1107 C1106 1.391 . S
H1108 C1116 0.950 . S
H1109 C1121 0.950 . S
H1110 C1118 0.950 . S
H1111 C1120 0.950 . S
H1112 C1122 0.950 . S
H1113 C1124 0.950 . S
H1114 C1126 0.950 . S
H1115 C1127 0.950 . S
C1116 H1108 0.950 . S
C1116 C1117 1.386 . S
C1116 C1118 1.391 . S
C1117 C1116 1.386 . S
C1117 C1121 1.393 . S
C1118 H1110 0.950 . S
C1118 C1116 1.391 . S
C1118 C1119 1.400 . S
C1119 C1118 1.400 . S
C1119 C1120 1.398 . S
C1119 C1125 1.491 1_455 S
C1120 H1111 0.950 . S
C1120 C1119 1.398 . S
C1120 C1121 1.391 . S
C1121 H1109 0.950 . S
C1121 C1117 1.393 . S
C1121 C1120 1.391 . S
C1122 H1112 0.950 . S
C1122 C1123 1.386 . S
C1122 C1124 1.391 . S
C1123 C1122 1.386 . S
C1123 C1127 1.393 . S
C1124 H1113 0.950 . S
C1124 C1122 1.391 . S
C1124 C1125 1.400 . S
C1125 C1119 1.491 1_655 S
C1125 C1124 1.400 . S
C1125 C1126 1.398 . S
C1126 H1114 0.950 . S
C1126 C1125 1.398 . S
C1126 C1127 1.391 . S
C1127 H1115 0.950 . S
C1127 C1123 1.393 . S
C1127 C1126 1.391 . S
H1128 C1136 0.950 . S
H1129 C1141 0.950 . S
H1130 C1138 0.950 . S
H1131 C1140 0.950 . S
H1132 C1142 0.950 . S
H1133 C1144 0.950 . S
H1134 C1146 0.950 . S
H1135 C1147 0.950 . S
C1136 H1128 0.950 . S
C1136 C1137 1.386 . S
C1136 C1138 1.391 . S
C1137 C1136 1.386 . S
C1137 C1141 1.393 . S
C1138 H1130 0.950 . S
C1138 C1136 1.391 . S
C1138 C1139 1.400 . S
C1139 C1138 1.400 . S
C1139 C1140 1.398 . S
C1139 C1145 1.491 1_655 S
C1140 H1131 0.950 . S
C1140 C1139 1.398 . S
C1140 C1141 1.391 . S
C1141 H1129 0.950 . S
C1141 C1137 1.393 . S
C1141 C1140 1.391 . S
C1142 H1132 0.950 . S
C1142 C1143 1.386 . S
C1142 C1144 1.391 . S
C1143 C1142 1.386 . S
C1143 C1147 1.393 . S
C1144 H1133 0.950 . S
C1144 C1142 1.391 . S
C1144 C1145 1.400 . S
C1145 C1139 1.491 1_455 S
C1145 C1144 1.400 . S
C1145 C1146 1.398 . S
C1146 H1134 0.950 . S
C1146 C1145 1.398 . S
C1146 C1147 1.391 . S
C1147 H1135 0.950 . S
C1147 C1143 1.393 . S
C1147 C1146 1.391 . S
H1148 C1156 0.950 . S
H1149 C1161 0.950 . S
H1150 C1158 0.950 . S
H1151 C1160 0.950 . S
H1152 C1162 0.950 . S
H1153 C1164 0.950 . S
H1154 C1166 0.950 . S
H1155 C1167 0.950 . S
C1156 H1148 0.950 . S
C1156 C1157 1.386 . S
C1156 C1158 1.391 . S
C1157 C1156 1.386 . S
C1157 C1161 1.393 . S
C1158 H1150 0.950 . S
C1158 C1156 1.391 . S
C1158 C1159 1.400 . S
C1159 C1158 1.400 . S
C1159 C1160 1.398 . S
C1159 C1165 1.491 1_455 S
C1160 H1151 0.950 . S
C1160 C1159 1.398 . S
C1160 C1161 1.391 . S
C1161 H1149 0.950 . S
C1161 C1157 1.393 . S
C1161 C1160 1.391 . S
C1162 H1152 0.950 . S
C1162 C1163 1.386 . S
C1162 C1164 1.391 . S
C1163 C1162 1.386 . S
C1163 C1167 1.393 . S
C1164 H1153 0.950 . S
C1164 C1162 1.391 . S
C1164 C1165 1.400 . S
C1165 C1159 1.491 1_655 S
C1165 C1164 1.400 . S
C1165 C1166 1.398 . S
C1166 H1154 0.950 . S
C1166 C1165 1.398 . S
C1166 C1167 1.391 . S
C1167 H1155 0.950 . S
C1167 C1163 1.393 . S
C1167 C1166 1.391 . S
H1168 C1176 0.950 . S
H1169 C1181 0.950 . S
H1170 C1178 0.950 . S
H1171 C1180 0.950 . S
H1172 C1182 0.950 . S
H1173 C1184 0.950 . S
H1174 C1186 0.950 . S
H1175 C1187 0.950 . S
C1176 H1168 0.950 . S
C1176 C1177 1.386 . S
C1176 C1178 1.391 . S
C1177 C1176 1.386 . S
C1177 C1181 1.393 . S
C1178 H1170 0.950 . S
C1178 C1176 1.391 . S
C1178 C1179 1.400 . S
C1179 C1178 1.400 . S
C1179 C1180 1.398 . S
C1179 C1185 1.491 . S
C1180 H1171 0.950 . S
C1180 C1179 1.398 . S
C1180 C1181 1.391 . S
C1181 H1169 0.950 . S
C1181 C1177 1.393 . S
C1181 C1180 1.391 . S
C1182 H1172 0.950 . S
C1182 C1183 1.386 . S
C1182 C1184 1.391 . S
C1183 C1182 1.386 . S
C1183 C1187 1.393 . S
C1184 H1173 0.950 . S
C1184 C1182 1.391 . S
C1184 C1185 1.400 . S
C1185 C1179 1.491 . S
C1185 C1184 1.400 . S
C1185 C1186 1.398 . S
C1186 H1174 0.950 . S
C1186 C1185 1.398 . S
C1186 C1187 1.391 . S
C1187 H1175 0.950 . S
C1187 C1183 1.393 . S
C1187 C1186 1.391 . S
H1188 C1196 0.950 . S
H1189 C1201 0.950 . S
H1190 C1198 0.950 . S
H1191 C1200 0.950 . S
H1192 C1202 0.950 . S
H1193 C1204 0.950 . S
H1194 C1206 0.950 . S
H1195 C1207 0.950 . S
C1196 H1188 0.950 . S
C1196 C1197 1.386 . S
C1196 C1198 1.391 . S
C1197 C1196 1.386 . S
C1197 C1201 1.393 . S
C1198 H1190 0.950 . S
C1198 C1196 1.391 . S
C1198 C1199 1.400 . S
C1199 C1198 1.400 . S
C1199 C1200 1.398 . S
C1199 C1205 1.491 . S
C1200 H1191 0.950 . S
C1200 C1199 1.398 . S
C1200 C1201 1.391 . S
C1201 H1189 0.950 . S
C1201 C1197 1.393 . S
C1201 C1200 1.391 . S
C1202 H1192 0.950 . S
C1202 C1203 1.386 . S
C1202 C1204 1.391 . S
C1203 C1202 1.386 . S
C1203 C1207 1.393 . S
C1204 H1193 0.950 . S
C1204 C1202 1.391 . S
C1204 C1205 1.400 . S
C1205 C1199 1.491 . S
C1205 C1204 1.400 . S
C1205 C1206 1.398 . S
C1206 H1194 0.950 . S
C1206 C1205 1.398 . S
C1206 C1207 1.391 . S
C1207 H1195 0.950 . S
C1207 C1203 1.393 . S
C1207 C1206 1.391 . S
H1208 C1216 0.950 . S
H1209 C1221 0.950 . S
H1210 C1218 0.950 . S
H1211 C1220 0.950 . S
H1212 C1222 0.950 . S
H1213 C1224 0.950 . S
H1214 C1226 0.950 . S
H1215 C1227 0.950 . S
C1216 H1208 0.950 . S
C1216 C1217 1.386 . S
C1216 C1218 1.391 . S
C1217 C1216 1.386 . S
C1217 C1221 1.393 . S
C1218 H1210 0.950 . S
C1218 C1216 1.391 . S
C1218 C1219 1.400 . S
C1219 C1218 1.400 . S
C1219 C1220 1.398 . S
C1219 C1225 1.491 . S
C1220 H1211 0.950 . S
C1220 C1219 1.398 . S
C1220 C1221 1.391 . S
C1221 H1209 0.950 . S
C1221 C1217 1.393 . S
C1221 C1220 1.391 . S
C1222 H1212 0.950 . S
C1222 C1223 1.386 . S
C1222 C1224 1.391 . S
C1223 C1222 1.386 . S
C1223 C1227 1.393 . S
C1224 H1213 0.950 . S
C1224 C1222 1.391 . S
C1224 C1225 1.400 . S
C1225 C1219 1.491 . S
C1225 C1224 1.400 . S
C1225 C1226 1.398 . S
C1226 H1214 0.950 . S
C1226 C1225 1.398 . S
C1226 C1227 1.391 . S
C1227 H1215 0.950 . S
C1227 C1223 1.393 . S
C1227 C1226 1.391 . S
H1228 C1236 0.950 . S
H1229 C1241 0.950 . S
H1230 C1238 0.950 . S
H1231 C1240 0.950 . S
H1232 C1242 0.950 . S
H1233 C1244 0.950 . S
H1234 C1246 0.950 . S
H1235 C1247 0.950 . S
C1236 H1228 0.950 . S
C1236 C1237 1.386 . S
C1236 C1238 1.391 . S
C1237 C1236 1.386 . S
C1237 C1241 1.393 . S
C1238 H1230 0.950 . S
C1238 C1236 1.391 . S
C1238 C1239 1.400 . S
C1239 C1238 1.400 . S
C1239 C1240 1.398 . S
C1239 C1245 1.491 . S
C1240 H1231 0.950 . S
C1240 C1239 1.398 . S
C1240 C1241 1.391 . S
C1241 H1229 0.950 . S
C1241 C1237 1.393 . S
C1241 C1240 1.391 . S
C1242 H1232 0.950 . S
C1242 C1243 1.386 . S
C1242 C1244 1.391 . S
C1243 C1242 1.386 . S
C1243 C1247 1.393 . S
C1244 H1233 0.950 . S
C1244 C1242 1.391 . S
C1244 C1245 1.400 . S
C1245 C1239 1.491 . S
C1245 C1244 1.400 . S
C1245 C1246 1.398 . S
C1246 H1234 0.950 . S
C1246 C1245 1.398 . S
C1246 C1247 1.391 . S
C1247 H1235 0.950 . S
C1247 C1243 1.393 . S
C1247 C1246 1.391 . S
H1248 C1256 0.950 . S
H1249 C1261 0.950 . S
H1250 C1258 0.950 . S
H1251 C1260 0.950 . S
H1252 C1262 0.950 . S
H1253 C1264 0.950 . S
H1254 C1266 0.950 . S
H1255 C1267 0.950 . S
C1256 H1248 0.950 . S
C1256 C1257 1.386 . S
C1256 C1258 1.391 . S
C1257 C1256 1.386 . S
C1257 C1261 1.393 . S
C1258 H1250 0.950 . S
C1258 C1256 1.391 . S
C1258 C1259 1.400 . S
C1259 C1258 1.400 . S
C1259 C1260 1.398 . S
C1259 C1265 1.491 . S
C1260 H1251 0.950 . S
C1260 C1259 1.398 . S
C1260 C1261 1.391 . S
C1261 H1249 0.950 . S
C1261 C1257 1.393 . S
C1261 C1260 1.391 . S
C1262 H1252 0.950 . S
C1262 C1263 1.386 . S
C1262 C1264 1.391 . S
C1263 C1262 1.386 . S
C1263 C1267 1.393 . S
C1264 H1253 0.950 . S
C1264 C1262 1.391 . S
C1264 C1265 1.400 . S
C1265 C1259 1.491 . S
C1265 C1264 1.400 . S
C1265 C1266 1.398 . S
C1266 H1254 0.950 . S
C1266 C1265 1.398 . S
C1266 C1267 1.391 . S
C1267 H1255 0.950 . S
C1267 C1263 1.393 . S
C1267 C1266 1.391 . S
H1268 C1276 0.950 . S
H1269 C1281 0.950 . S
H1270 C1278 0.950 . S
H1271 C1280 0.950 . S
H1272 C1282 0.950 . S
H1273 C1284 0.950 . S
H1274 C1286 0.950 . S
H1275 C1287 0.950 . S
C1276 H1268 0.950 . S
C1276 C1277 1.386 . S
C1276 C1278 1.391 . S
C1277 C1276 1.386 . S
C1277 C1281 1.393 . S
C1278 H1270 0.950 . S
C1278 C1276 1.391 . S
C1278 C1279 1.400 . S
C1279 C1278 1.400 . S
C1279 C1280 1.398 . S
C1279 C1285 1.491 . S
C1280 H1271 0.950 . S
C1280 C1279 1.398 . S
C1280 C1281 1.391 . S
C1281 H1269 0.950 . S
C1281 C1277 1.393 . S
C1281 C1280 1.391 . S
C1282 H1272 0.950 . S
C1282 C1283 1.386 . S
C1282 C1284 1.391 . S
C1283 C1282 1.386 . S
C1283 C1287 1.393 . S
C1284 H1273 0.950 . S
C1284 C1282 1.391 . S
C1284 C1285 1.400 . S
C1285 C1279 1.491 . S
C1285 C1284 1.400 . S
C1285 C1286 1.398 . S
C1286 H1274 0.950 . S
C1286 C1285 1.398 . S
C1286 C1287 1.391 . S
C1287 H1275 0.950 . S
C1287 C1283 1.393 . S
C1287 C1286 1.391 . S
H1288 C1296 0.950 . S
H1289 C1301 0.950 . S
H1290 C1298 0.950 . S
H1291 C1300 0.950 . S
H1292 C1302 0.950 . S
H1293 C1304 0.950 . S
H1294 C1306 0.950 . S
H1295 C1307 0.950 . S
C1296 H1288 0.950 . S
C1296 C1297 1.386 . S
C1296 C1298 1.391 . S
C1297 C1296 1.386 . S
C1297 C1301 1.393 . S
C1298 H1290 0.950 . S
C1298 C1296 1.391 . S
C1298 C1299 1.400 . S
C1299 C1298 1.400 . S
C1299 C1300 1.398 . S
C1299 C1305 1.491 . S
C1300 H1291 0.950 . S
C1300 C1299 1.398 . S
C1300 C1301 1.391 . S
C1301 H1289 0.950 . S
C1301 C1297 1.393 . S
C1301 C1300 1.391 . S
C1302 H1292 0.950 . S
C1302 C1303 1.386 . S
C1302 C1304 1.391 . S
C1303 C1302 1.386 . S
C1303 C1307 1.393 . S
C1304 H1293 0.950 . S
C1304 C1302 1.391 . S
C1304 C1305 1.400 . S
C1305 C1299 1.491 . S
C1305 C1304 1.400 . S
C1305 C1306 1.398 . S
C1306 H1294 0.950 . S
C1306 C1305 1.398 . S
C1306 C1307 1.391 . S
C1307 H1295 0.950 . S
C1307 C1303 1.393 . S
C1307 C1306 1.391 . S
H1308 C1316 0.950 . S
H1309 C1321 0.950 . S
H1310 C1318 0.950 . S
H1311 C1320 0.950 . S
H1312 C1322 0.950 . S
H1313 C1324 0.950 . S
H1314 C1326 0.950 . S
H1315 C1327 0.950 . S
C1316 H1308 0.950 . S
C1316 C1317 1.386 . S
C1316 C1318 1.391 . S
C1317 C1316 1.386 . S
C1317 C1321 1.393 . S
C1318 H1310 0.950 . S
C1318 C1316 1.391 . S
C1318 C1319 1.400 . S
C1319 C1318 1.400 . S
C1319 C1320 1.398 . S
C1319 C1325 1.491 . S
C1320 H1311 0.950 . S
C1320 C1319 1.398 . S
C1320 C1321 1.391 . S
C1321 H1309 0.950 . S
C1321 C1317 1.393 . S
C1321 C1320 1.391 . S
C1322 H1312 0.950 . S
C1322 C1323 1.386 . S
C1322 C1324 1.391 . S
C1323 C1322 1.386 . S
C1323 C1327 1.393 . S
C1324 H1313 0.950 . S
C1324 C1322 1.391 . S
C1324 C1325 1.400 . S
C1325 C1319 1.491 . S
C1325 C1324 1.400 . S
C1325 C1326 1.398 . S
C1326 H1314 0.950 . S
C1326 C1325 1.398 . S
C1326 C1327 1.391 . S
C1327 H1315 0.950 . S
C1327 C1323 1.393 . S
C1327 C1326 1.391 . S
H1328 C1336 0.950 . S
H1329 C1341 0.950 . S
H1330 C1338 0.950 1_565 S
H1331 C1340 0.950 . S
H1332 C1342 0.950 . S
H1333 C1344 0.950 1_545 S
H1334 C1346 0.950 . S
H1335 C1347 0.950 . S
C1336 H1328 0.950 . S
C1336 C1337 1.386 . S
C1336 C1338 1.391 . S
C1337 C1336 1.386 . S
C1337 C1341 1.393 . S
C1338 H1330 0.950 1_545 S
C1338 C1336 1.391 . S
C1338 C1339 1.400 . S
C1339 C1338 1.400 . S
C1339 C1340 1.398 . S
C1339 C1345 1.491 1_545 S
C1340 H1331 0.950 . S
C1340 C1339 1.398 . S
C1340 C1341 1.391 . S
C1341 H1329 0.950 . S
C1341 C1337 1.393 . S
C1341 C1340 1.391 . S
C1342 H1332 0.950 . S
C1342 C1343 1.386 . S
C1342 C1344 1.391 . S
C1343 C1342 1.386 . S
C1343 C1347 1.393 . S
C1344 H1333 0.950 1_565 S
C1344 C1342 1.391 . S
C1344 C1345 1.400 . S
C1345 C1339 1.491 1_565 S
C1345 C1344 1.400 . S
C1345 C1346 1.398 . S
C1346 H1334 0.950 . S
C1346 C1345 1.398 . S
C1346 C1347 1.391 . S
C1347 H1335 0.950 . S
C1347 C1343 1.393 . S
C1347 C1346 1.391 . S
H1348 C1356 0.950 . S
H1349 C1361 0.950 . S
H1350 C1358 0.950 . S
H1351 C1360 0.950 . S
H1352 C1362 0.950 . S
H1353 C1364 0.950 . S
H1354 C1366 0.950 . S
H1355 C1367 0.950 . S
C1356 H1348 0.950 . S
C1356 C1357 1.386 . S
C1356 C1358 1.391 . S
C1357 C1356 1.386 . S
C1357 C1361 1.393 . S
C1358 H1350 0.950 . S
C1358 C1356 1.391 . S
C1358 C1359 1.400 . S
C1359 C1358 1.400 . S
C1359 C1360 1.398 . S
C1359 C1365 1.491 1_545 S
C1360 H1351 0.950 . S
C1360 C1359 1.398 . S
C1360 C1361 1.391 . S
C1361 H1349 0.950 . S
C1361 C1357 1.393 . S
C1361 C1360 1.391 . S
C1362 H1352 0.950 . S
C1362 C1363 1.386 . S
C1362 C1364 1.391 . S
C1363 C1362 1.386 . S
C1363 C1367 1.393 . S
C1364 H1353 0.950 . S
C1364 C1362 1.391 . S
C1364 C1365 1.400 . S
C1365 C1359 1.491 1_565 S
C1365 C1364 1.400 . S
C1365 C1366 1.398 . S
C1366 H1354 0.950 . S
C1366 C1365 1.398 . S
C1366 C1367 1.391 . S
C1367 H1355 0.950 . S
C1367 C1363 1.393 . S
C1367 C1366 1.391 . S
H1368 C1376 0.950 . S
H1369 C1381 0.950 . S
H1370 C1378 0.950 . S
H1371 C1380 0.950 1_565 S
H1372 C1382 0.950 . S
H1373 C1384 0.950 . S
H1374 C1386 0.950 1_545 S
H1375 C1387 0.950 . S
C1376 H1368 0.950 . S
C1376 C1377 1.386 . S
C1376 C1378 1.391 . S
C1377 C1376 1.386 . S
C1377 C1381 1.393 . S
C1378 H1370 0.950 . S
C1378 C1376 1.391 . S
C1378 C1379 1.400 . S
C1379 C1378 1.400 . S
C1379 C1380 1.398 . S
C1379 C1385 1.491 1_545 S
C1380 H1371 0.950 1_545 S
C1380 C1379 1.398 . S
C1380 C1381 1.391 . S
C1381 H1369 0.950 . S
C1381 C1377 1.393 . S
C1381 C1380 1.391 . S
C1382 H1372 0.950 . S
C1382 C1383 1.386 . S
C1382 C1384 1.391 . S
C1383 C1382 1.386 . S
C1383 C1387 1.393 . S
C1384 H1373 0.950 . S
C1384 C1382 1.391 . S
C1384 C1385 1.400 . S
C1385 C1379 1.491 1_565 S
C1385 C1384 1.400 . S
C1385 C1386 1.398 . S
C1386 H1374 0.950 1_565 S
C1386 C1385 1.398 . S
C1386 C1387 1.391 . S
C1387 H1375 0.950 . S
C1387 C1383 1.393 . S
C1387 C1386 1.391 . S
H1388 C1396 0.950 . S
H1389 C1401 0.950 . S
H1390 C1398 0.950 . S
H1391 C1400 0.950 . S
H1392 C1402 0.950 . S
H1393 C1404 0.950 . S
H1394 C1406 0.950 . S
H1395 C1407 0.950 . S
C1396 H1388 0.950 . S
C1396 C1397 1.386 . S
C1396 C1398 1.391 . S
C1397 C1396 1.386 . S
C1397 C1401 1.393 . S
C1398 H1390 0.950 . S
C1398 C1396 1.391 . S
C1398 C1399 1.400 . S
C1399 C1398 1.400 . S
C1399 C1400 1.398 . S
C1399 C1405 1.491 1_565 S
C1400 H1391 0.950 . S
C1400 C1399 1.398 . S
C1400 C1401 1.391 . S
C1401 H1389 0.950 . S
C1401 C1397 1.393 . S
C1401 C1400 1.391 . S
C1402 H1392 0.950 . S
C1402 C1403 1.386 . S
C1402 C1404 1.391 . S
C1403 C1402 1.386 . S
C1403 C1407 1.393 . S
C1404 H1393 0.950 . S
C1404 C1402 1.391 . S
C1404 C1405 1.400 . S
C1405 C1399 1.491 1_545 S
C1405 C1404 1.400 . S
C1405 C1406 1.398 . S
C1406 H1394 0.950 . S
C1406 C1405 1.398 . S
C1406 C1407 1.391 . S
C1407 H1395 0.950 . S
C1407 C1403 1.393 . S
C1407 C1406 1.391 . S
H1408 C1416 0.950 . S
H1409 C1421 0.950 . S
H1410 C1418 0.950 . S
H1411 C1420 0.950 . S
H1412 C1422 0.950 . S
H1413 C1424 0.950 . S
H1414 C1426 0.950 . S
H1415 C1427 0.950 . S
C1416 H1408 0.950 . S
C1416 C1417 1.386 . S
C1416 C1418 1.391 . S
C1417 C1416 1.386 . S
C1417 C1421 1.393 . S
C1418 H1410 0.950 . S
C1418 C1416 1.391 . S
C1418 C1419 1.400 . S
C1419 C1418 1.400 . S
C1419 C1420 1.398 . S
C1419 C1425 1.491 . S
C1420 H1411 0.950 . S
C1420 C1419 1.398 . S
C1420 C1421 1.391 . S
C1421 H1409 0.950 . S
C1421 C1417 1.393 . S
C1421 C1420 1.391 . S
C1422 H1412 0.950 . S
C1422 C1423 1.386 . S
C1422 C1424 1.391 . S
C1423 C1422 1.386 . S
C1423 C1427 1.393 . S
C1424 H1413 0.950 . S
C1424 C1422 1.391 . S
C1424 C1425 1.400 . S
C1425 C1419 1.491 . S
C1425 C1424 1.400 . S
C1425 C1426 1.398 . S
C1426 H1414 0.950 . S
C1426 C1425 1.398 . S
C1426 C1427 1.391 . S
C1427 H1415 0.950 . S
C1427 C1423 1.393 . S
C1427 C1426 1.391 . S
H1428 C1436 0.950 . S
H1429 C1441 0.950 . S
H1430 C1438 0.950 . S
H1431 C1440 0.950 . S
H1432 C1442 0.950 . S
H1433 C1444 0.950 . S
H1434 C1446 0.950 . S
H1435 C1447 0.950 . S
C1436 H1428 0.950 . S
C1436 C1437 1.386 . S
C1436 C1438 1.391 . S
C1437 C1436 1.386 . S
C1437 C1441 1.393 . S
C1438 H1430 0.950 . S
C1438 C1436 1.391 . S
C1438 C1439 1.400 . S
C1439 C1438 1.400 . S
C1439 C1440 1.398 . S
C1439 C1445 1.491 . S
C1440 H1431 0.950 . S
C1440 C1439 1.398 . S
C1440 C1441 1.391 . S
C1441 H1429 0.950 . S
C1441 C1437 1.393 . S
C1441 C1440 1.391 . S
C1442 H1432 0.950 . S
C1442 C1443 1.386 . S
C1442 C1444 1.391 . S
C1443 C1442 1.386 . S
C1443 C1447 1.393 . S
C1444 H1433 0.950 . S
C1444 C1442 1.391 . S
C1444 C1445 1.400 . S
C1445 C1439 1.491 . S
C1445 C1444 1.400 . S
C1445 C1446 1.398 . S
C1446 H1434 0.950 . S
C1446 C1445 1.398 . S
C1446 C1447 1.391 . S
C1447 H1435 0.950 . S
C1447 C1443 1.393 . S
C1447 C1446 1.391 . S
H1448 C1456 0.950 . S
H1449 C1461 0.950 . S
H1450 C1458 0.950 . S
H1451 C1460 0.950 . S
H1452 C1462 0.950 . S
H1453 C1464 0.950 . S
H1454 C1466 0.950 . S
H1455 C1467 0.950 . S
C1456 H1448 0.950 . S
C1456 C1457 1.386 . S
C1456 C1458 1.391 . S
C1457 C1456 1.386 . S
C1457 C1461 1.393 . S
C1458 H1450 0.950 . S
C1458 C1456 1.391 . S
C1458 C1459 1.400 . S
C1459 C1458 1.400 . S
C1459 C1460 1.398 . S
C1459 C1465 1.491 . S
C1460 H1451 0.950 . S
C1460 C1459 1.398 . S
C1460 C1461 1.391 . S
C1461 H1449 0.950 . S
C1461 C1457 1.393 . S
C1461 C1460 1.391 . S
C1462 H1452 0.950 . S
C1462 C1463 1.386 . S
C1462 C1464 1.391 . S
C1463 C1462 1.386 . S
C1463 C1467 1.393 . S
C1464 H1453 0.950 . S
C1464 C1462 1.391 . S
C1464 C1465 1.400 . S
C1465 C1459 1.491 . S
C1465 C1464 1.400 . S
C1465 C1466 1.398 . S
C1466 H1454 0.950 . S
C1466 C1465 1.398 . S
C1466 C1467 1.391 . S
C1467 H1455 0.950 . S
C1467 C1463 1.393 . S
C1467 C1466 1.391 . S
H1468 C1476 0.950 . S
H1469 C1481 0.950 . S
H1470 C1478 0.950 . S
H1471 C1480 0.950 . S
H1472 C1482 0.950 . S
H1473 C1484 0.950 . S
H1474 C1486 0.950 . S
H1475 C1487 0.950 . S
C1476 H1468 0.950 . S
C1476 C1477 1.386 . S
C1476 C1478 1.391 . S
C1477 C1476 1.386 . S
C1477 C1481 1.393 . S
C1478 H1470 0.950 . S
C1478 C1476 1.391 . S
C1478 C1479 1.400 . S
C1479 C1478 1.400 . S
C1479 C1480 1.398 . S
C1479 C1485 1.491 . S
C1480 H1471 0.950 . S
C1480 C1479 1.398 . S
C1480 C1481 1.391 . S
C1481 H1469 0.950 . S
C1481 C1477 1.393 . S
C1481 C1480 1.391 . S
C1482 H1472 0.950 . S
C1482 C1483 1.386 . S
C1482 C1484 1.391 . S
C1483 C1482 1.386 . S
C1483 C1487 1.393 . S
C1484 H1473 0.950 . S
C1484 C1482 1.391 . S
C1484 C1485 1.400 . S
C1485 C1479 1.491 . S
C1485 C1484 1.400 . S
C1485 C1486 1.398 . S
C1486 H1474 0.950 . S
C1486 C1485 1.398 . S
C1486 C1487 1.391 . S
C1487 H1475 0.950 . S
C1487 C1483 1.393 . S
C1487 C1486 1.391 . S
C857 C39 1.875 . S
C863 C304 1.870 . S
C877 C251 1.874 . S
C883 C92 1.871 . S
C897 C145 1.868 . S
C903 C410 1.877 . S
C917 C357 1.877 . S
C923 C198 1.868 . S
C937 C728 1.876 . S
C943 C463 1.870 . S
C957 C675 1.865 . S
C963 C516 1.880 . S
C977 C834 1.866 . S
C983 C569 1.879 . S
C997 C622 1.872 . S
C1003 C781 1.873 . S
C1017 C82 1.546 . S
C1023 C29 1.550 . S
C1037 C135 1.546 . S
C1043 C188 1.551 . S
C1057 C241 1.552 . S
C1063 C294 1.548 . S
C1077 C347 1.543 . S
C1083 C400 1.547 . S
C1097 C453 1.550 . S
C1103 C506 1.550 . S
C1117 C612 1.542 . S
C1123 C559 1.547 . S
C1137 C718 1.545 . S
C1143 C665 1.551 . S
C1157 C771 1.552 . S
C1163 C824 1.547 . S
C1177 C499 1.532 . S
C1183 C22 1.537 . S
C1197 C75 1.534 . S
C1203 C446 1.537 . S
C1217 C605 1.536 . S
C1223 C128 1.536 . S
C1237 C181 1.534 . S
C1243 C552 1.538 . S
C1257 C234 1.537 . S
C1263 C711 1.531 . S
C1277 C658 1.536 . S
C1283 C287 1.534 . S
C1297 C340 1.537 . S
C1303 C817 1.533 . S
C1317 C764 1.537 . S
C1323 C393 1.534 . S
C1337 C38 1.939 . S
C1343 C144 1.942 . S
C1357 C197 1.926 . S
C1363 C91 1.929 . S
C1377 C356 1.941 . S
C1383 C250 1.946 . S
C1397 C409 1.948 . S
C1403 C303 1.950 . S
C1417 C568 1.943 . S
C1423 C462 1.941 . S
C1437 C515 1.930 . S
C1443 C621 1.927 . S
C1457 C780 1.938 . S
C1463 C674 1.941 . S
C1477 C727 1.949 . S
C1483 C833 1.946 . S
