# Generated by pormake.
# Topology mmt, (4)-cn, num edge types: 1
# Building blocks:
#     Node 0, Type 0, BuildingBlock: KUFVIS_clean_sbu_0, # of connection points: 4
#     Node 1, Type 0, BuildingBlock: KUFVIS_clean_sbu_0, # of connection points: 4
#     Node 2, Type 0, BuildingBlock: KUFVIS_clean_sbu_0, # of connection points: 4
#     Node 3, Type 0, BuildingBlock: KUFVIS_clean_sbu_0, # of connection points: 4
#     Node 4, Type 0, BuildingBlock: KUFVIS_clean_sbu_0, # of connection points: 4
#     Node 5, Type 0, BuildingBlock: KUFVIS_clean_sbu_0, # of connection points: 4
#     Node 6, Type 0, BuildingBlock: KUFVIS_clean_sbu_0, # of connection points: 4
#     Node 7, Type 0, BuildingBlock: KUFVIS_clean_sbu_0, # of connection points: 4
#     Edge 8, Type (0, 0), BuildingBlock: MIFKUJ_clean_linker_0, # of connection points: 2
#     Edge 9, Type (0, 0), BuildingBlock: MIFKUJ_clean_linker_0, # of connection points: 2
#     Edge 10, Type (0, 0), BuildingBlock: MIFKUJ_clean_linker_0, # of connection points: 2
#     Edge 11, Type (0, 0), BuildingBlock: MIFKUJ_clean_linker_0, # of connection points: 2
#     Edge 12, Type (0, 0), BuildingBlock: MIFKUJ_clean_linker_0, # of connection points: 2
#     Edge 13, Type (0, 0), BuildingBlock: MIFKUJ_clean_linker_0, # of connection points: 2
#     Edge 14, Type (0, 0), BuildingBlock: MIFKUJ_clean_linker_0, # of connection points: 2
#     Edge 15, Type (0, 0), BuildingBlock: MIFKUJ_clean_linker_0, # of connection points: 2
#     Edge 16, Type (0, 0), BuildingBlock: MIFKUJ_clean_linker_0, # of connection points: 2
#     Edge 17, Type (0, 0), BuildingBlock: MIFKUJ_clean_linker_0, # of connection points: 2
#     Edge 18, Type (0, 0), BuildingBlock: MIFKUJ_clean_linker_0, # of connection points: 2
#     Edge 19, Type (0, 0), BuildingBlock: MIFKUJ_clean_linker_0, # of connection points: 2
#     Edge 20, Type (0, 0), BuildingBlock: MIFKUJ_clean_linker_0, # of connection points: 2
#     Edge 21, Type (0, 0), BuildingBlock: MIFKUJ_clean_linker_0, # of connection points: 2
#     Edge 22, Type (0, 0), BuildingBlock: MIFKUJ_clean_linker_0, # of connection points: 2
#     Edge 23, Type (0, 0), BuildingBlock: MIFKUJ_clean_linker_0, # of connection points: 2
# Relax obj value: 0.035
# Max RMSD: 0.059
# Mean RMSD: 0.059
data_MOF--net-mmt--node1-KUFVIS_clean_sbu_0--edge1-MIFKUJ_clean_linker_0
_symmetry_space_group_name_H-M    P1
_symmetry_Int_Tables_number       1
_symmetry_cell_setting            triclinic
loop_
_symmetry_equiv_pos_as_xyz
'x, y, z'
_cell_length_a     28.826466
_cell_length_b     48.44132
_cell_length_c     56.38008
_cell_angle_alpha  90.065883
_cell_angle_beta   89.982178
_cell_angle_gamma 89.899443
loop_
_atom_site_label
_atom_site_type_symbol
_atom_site_fract_x
_atom_site_fract_y
_atom_site_fract_z
_atom_type_partial_charge
Mn0 Mn 0.10653 0.57334 0.35222 0.0
Mn1 Mn 0.09173 0.6158 0.30534 0.0
C2 C 0.05837 0.55984 0.32131 0.0
C3 C 0.08563 0.55964 0.39053 0.0
C4 C 0.17709 0.5796 0.31213 0.0
O5 O 0.13309 0.60996 0.36401 0.0
O6 O 0.11432 0.63721 0.33311 0.0
C7 C 0.01379 0.64899 0.32439 0.0
N8 N 0.03214 0.633 0.30685 0.0
C9 C 0.96428 0.63904 0.28258 0.0
C10 C 0.94485 0.65587 0.30025 0.0
C11 C 0.96962 0.66073 0.3213 0.0
C12 C 0.00834 0.62784 0.2867 0.0
H13 H 0.03269 0.65267 0.3406 0.0
C14 C 0.13078 0.63348 0.35392 0.0
O15 O 0.12643 0.55422 0.3819 0.0
O16 O 0.05764 0.57373 0.37718 0.0
N17 N 0.06974 0.5987 0.27694 0.0
C18 C 0.09244 0.58092 0.2622 0.0
C19 C 0.07254 0.574 0.24028 0.0
C20 C 0.02968 0.58553 0.23372 0.0
C21 C 0.00662 0.60339 0.24932 0.0
C22 C 0.02856 0.60996 0.27071 0.0
H23 H 0.1258 0.57242 0.26696 0.0
O24 O 0.07479 0.54194 0.3362 0.0
O25 O 0.06913 0.58554 0.32545 0.0
O26 O 0.16361 0.56763 0.33107 0.0
O27 O 0.15367 0.59854 0.30179 0.0
C28 C 0.96276 0.61497 0.24447 0.0
C29 C 0.94143 0.63261 0.26118 0.0
H30 H 0.91079 0.66495 0.29793 0.0
H31 H 0.95472 0.67351 0.3351 0.0
H32 H 0.09055 0.56016 0.22834 0.0
H33 H 0.01494 0.58077 0.21657 0.0
H34 H 0.94489 0.61017 0.22809 0.0
H35 H 0.90739 0.64104 0.25744 0.0
Mn36 Mn 0.40188 0.93927 0.36029 0.0
Mn37 Mn 0.41036 0.89484 0.31446 0.0
C38 C 0.45248 0.94872 0.32922 0.0
C39 C 0.42328 0.95269 0.3987 0.0
C40 C 0.32964 0.93443 0.32118 0.0
O41 O 0.36955 0.90431 0.37239 0.0
O42 O 0.38821 0.87479 0.3429 0.0
C43 C 0.48625 0.85907 0.33195 0.0
N44 N 0.46874 0.87625 0.31507 0.0
C45 C 0.5338 0.86787 0.2894 0.0
C46 C 0.55247 0.8499 0.30641 0.0
C47 C 0.52878 0.8457 0.32789 0.0
C48 C 0.49193 0.88112 0.29469 0.0
H49 H 0.46776 0.85552 0.34832 0.0
C50 C 0.37089 0.88012 0.36331 0.0
O51 O 0.38398 0.9601 0.38944 0.0
O52 O 0.44977 0.93696 0.38583 0.0
N53 N 0.43159 0.9113 0.28563 0.0
C54 C 0.40879 0.92913 0.271 0.0
C55 C 0.42851 0.93613 0.24904 0.0
C56 C 0.47071 0.92409 0.24206 0.0
C57 C 0.49288 0.90526 0.25716 0.0
C58 C 0.47213 0.89954 0.27904 0.0
H59 H 0.37583 0.93799 0.276 0.0
O60 O 0.43951 0.96814 0.34365 0.0
O61 O 0.43695 0.92419 0.334 0.0
O62 O 0.34649 0.94757 0.33878 0.0
O63 O 0.34926 0.91338 0.31184 0.0
C64 C 0.53411 0.89136 0.25109 0.0
C65 C 0.55463 0.87273 0.26723 0.0
H66 H 0.58493 0.83925 0.30317 0.0
H67 H 0.543 0.83194 0.34114 0.0
H68 H 0.41095 0.9505 0.23741 0.0
H69 H 0.48555 0.92925 0.22498 0.0
H70 H 0.54988 0.89462 0.23391 0.0
H71 H 0.58602 0.86188 0.26231 0.0
Mn72 Mn 0.60551 0.44183 0.15305 0.0
Mn73 Mn 0.58441 0.41211 0.2062 0.0
C74 C 0.55655 0.46318 0.18004 0.0
C75 C 0.58767 0.44828 0.11294 0.0
C76 C 0.67312 0.44303 0.19501 0.0
O77 O 0.62827 0.4022 0.14805 0.0
O78 O 0.60858 0.38415 0.18346 0.0
C79 C 0.50639 0.37621 0.19172 0.0
N80 N 0.52367 0.39639 0.20602 0.0
C81 C 0.45132 0.40021 0.22709 0.0
C82 C 0.43281 0.37934 0.21268 0.0
C83 C 0.46044 0.36735 0.19488 0.0
C84 C 0.49733 0.40817 0.22312 0.0
H85 H 0.52751 0.36701 0.17799 0.0
C86 C 0.6255 0.38193 0.1625 0.0
O87 O 0.62869 0.45362 0.12126 0.0
O88 O 0.55784 0.43792 0.12767 0.0
N89 N 0.56092 0.43655 0.23007 0.0
C90 C 0.58365 0.45692 0.24203 0.0
C91 C 0.5608 0.47112 0.26037 0.0
C92 C 0.51503 0.46407 0.26636 0.0
C93 C 0.49254 0.44285 0.25398 0.0
C94 C 0.51725 0.42921 0.23605 0.0
H95 H 0.61891 0.46235 0.23761 0.0
O96 O 0.57585 0.47727 0.16319 0.0
O97 O 0.5658 0.4369 0.18042 0.0
O98 O 0.66221 0.45004 0.17391 0.0
O99 O 0.64696 0.42841 0.20827 0.0
C100 C 0.44639 0.43491 0.25852 0.0
C101 C 0.42574 0.41367 0.24503 0.0
H102 H 0.39735 0.3725 0.21501 0.0
H103 H 0.44633 0.35132 0.18362 0.0
H104 H 0.57844 0.48745 0.26987 0.0
H105 H 0.49751 0.47509 0.28049 0.0
H106 H 0.42631 0.44522 0.27216 0.0
H107 H 0.39006 0.40797 0.24849 0.0
Mn108 Mn 0.90113 0.07109 0.16075 0.0
Mn109 Mn 0.91563 0.10551 0.21242 0.0
C110 C 0.95098 0.05349 0.18933 0.0
C111 C 0.91995 0.06183 0.12112 0.0
C112 C 0.83423 0.06803 0.20343 0.0
O113 O 0.87377 0.10891 0.15287 0.0
O114 O 0.88227 0.12839 0.18873 0.0
C115 C 0.98119 0.14696 0.19338 0.0
N116 N 0.97056 0.12731 0.20975 0.0
C117 C 0.04215 0.13508 0.23061 0.0
C118 C 0.05377 0.15552 0.21406 0.0
C119 C 0.02322 0.16141 0.19531 0.0
C120 C 0.99987 0.12132 0.22771 0.0
H121 H 0.95776 0.15158 0.17897 0.0
C122 C 0.86796 0.12893 0.16727 0.0
O123 O 0.87954 0.05576 0.12982 0.0
O124 O 0.94869 0.07441 0.13516 0.0
N125 N 0.94693 0.08702 0.23767 0.0
C126 C 0.93082 0.06641 0.25185 0.0
C127 C 0.95699 0.05821 0.2716 0.0
C128 C 0.99933 0.07128 0.27663 0.0
C129 C 0.01497 0.09263 0.26193 0.0
C130 C 0.98695 0.1003 0.24276 0.0
H131 H 0.89801 0.05653 0.24825 0.0
O132 O 0.93354 0.03785 0.17295 0.0
O133 O 0.93993 0.07967 0.18828 0.0
O134 O 0.84476 0.06242 0.18191 0.0
O135 O 0.85907 0.08335 0.21678 0.0
C136 C 0.05733 0.10651 0.26546 0.0
C137 C 0.07104 0.12762 0.24973 0.0
H138 H 0.08615 0.16672 0.2155 0.0
H139 H 0.03201 0.17709 0.18241 0.0
H140 H 0.94414 0.04213 0.28307 0.0
H141 H 0.01942 0.06492 0.29191 0.0
H142 H 0.07982 0.10094 0.28009 0.0
H143 H 0.10392 0.13794 0.25247 0.0
Mn144 Mn 0.90853 0.43305 0.65019 0.0
Mn145 Mn 0.92801 0.39784 0.70099 0.0
C146 C 0.9598 0.4502 0.67807 0.0
C147 C 0.92595 0.44229 0.61048 0.0
C148 C 0.84221 0.43287 0.69278 0.0
O149 O 0.88209 0.39494 0.64269 0.0
O150 O 0.90041 0.37307 0.67666 0.0
C151 C 1.00158 0.36046 0.68322 0.0
N152 N 0.98695 0.37987 0.69904 0.0
C153 C 0.06028 0.37891 0.71941 0.0
C154 C 0.07604 0.35878 0.70342 0.0
C155 C 0.04658 0.34956 0.68522 0.0
C156 C 0.01505 0.38895 0.71657 0.0
H157 H 0.97908 0.35339 0.66916 0.0
C158 C 0.88324 0.37337 0.65569 0.0
O159 O 0.88571 0.44838 0.61947 0.0
O160 O 0.95517 0.42977 0.62428 0.0
N161 N 0.95484 0.419 0.72618 0.0
C162 C 0.93489 0.43917 0.73964 0.0
C163 C 0.96005 0.45093 0.75843 0.0
C164 C 0.00521 0.44164 0.76334 0.0
C165 C 0.02474 0.42057 0.74947 0.0
C166 C 0.99786 0.40946 0.73111 0.0
H167 H 0.90015 0.44637 0.736 0.0
O168 O 0.94147 0.46638 0.66235 0.0
O169 O 0.94833 0.42428 0.6768 0.0
O170 O 0.8532 0.44121 0.67204 0.0
O171 O 0.86728 0.41628 0.70488 0.0
C172 C 0.07012 0.41048 0.75289 0.0
C173 C 0.08792 0.38972 0.73783 0.0
H174 H 0.11079 0.35039 0.70485 0.0
H175 H 0.05857 0.33412 0.67275 0.0
H176 H 0.94471 0.46716 0.76907 0.0
H177 H 0.02463 0.45089 0.77774 0.0
H178 H 0.09182 0.41879 0.76684 0.0
H179 H 0.12305 0.38237 0.74044 0.0
Mn180 Mn 0.5927 0.0706 0.66468 0.0
Mn181 Mn 0.5835 0.11146 0.7131 0.0
C182 C 0.54092 0.05942 0.69479 0.0
C183 C 0.57277 0.05866 0.62569 0.0
C184 C 0.65969 0.06934 0.70734 0.0
O185 O 0.62574 0.10583 0.65374 0.0
O186 O 0.61868 0.12989 0.68761 0.0
C187 C 0.5228 0.15322 0.69063 0.0
N188 N 0.53102 0.13488 0.70844 0.0
C189 C 0.46217 0.14909 0.72916 0.0
C190 C 0.45292 0.1682 0.7111 0.0
C191 C 0.48317 0.17008 0.69163 0.0
C192 C 0.50138 0.13222 0.72681 0.0
H193 H 0.54643 0.15508 0.67586 0.0
C194 C 0.63338 0.12722 0.66636 0.0
O195 O 0.61177 0.05095 0.63512 0.0
O196 O 0.54582 0.07392 0.63872 0.0
N197 N 0.55065 0.09724 0.73983 0.0
C198 C 0.56551 0.07851 0.75619 0.0
C199 C 0.53918 0.07413 0.7768 0.0
C200 C 0.49904 0.08991 0.78086 0.0
C201 C 0.48534 0.10972 0.76414 0.0
C202 C 0.51211 0.11256 0.74361 0.0
H203 H 0.59723 0.06702 0.75353 0.0
O204 O 0.5549 0.04093 0.67976 0.0
O205 O 0.55608 0.0844 0.69131 0.0
O206 O 0.64756 0.06116 0.68668 0.0
O207 O 0.63774 0.08771 0.71917 0.0
C208 C 0.44722 0.1275 0.76744 0.0
C209 C 0.43489 0.14669 0.74975 0.0
H210 H 0.4229 0.18163 0.71207 0.0
H211 H 0.47633 0.18478 0.67761 0.0
H212 H 0.55032 0.05904 0.78975 0.0
H213 H 0.4794 0.08693 0.79703 0.0
H214 H 0.42807 0.12721 0.78383 0.0
H215 H 0.40511 0.16 0.75246 0.0
Mn216 Mn 0.4092 0.56813 0.85009 0.0
Mn217 Mn 0.42026 0.60675 0.80055 0.0
C218 C 0.46111 0.55518 0.82051 0.0
C219 C 0.42958 0.55736 0.88921 0.0
C220 C 0.34126 0.56671 0.80802 0.0
O221 O 0.37775 0.60445 0.85984 0.0
O222 O 0.38817 0.62781 0.82578 0.0
C223 C 0.48595 0.64778 0.82005 0.0
N224 N 0.47523 0.62838 0.80344 0.0
C225 C 0.5452 0.6377 0.78171 0.0
C226 C 0.55704 0.65782 0.79854 0.0
C227 C 0.52745 0.66272 0.81791 0.0
C228 C 0.50412 0.6229 0.78516 0.0
H229 H 0.46288 0.6519 0.83473 0.0
C230 C 0.37278 0.62595 0.84699 0.0
O231 O 0.39 0.54996 0.88028 0.0
O232 O 0.45655 0.57191 0.8757 0.0
N233 N 0.45028 0.5895 0.77419 0.0
C234 C 0.43251 0.57055 0.75879 0.0
C235 C 0.45782 0.56329 0.73844 0.0
C236 C 0.50022 0.57636 0.73364 0.0
C237 C 0.5168 0.59663 0.74924 0.0
C238 C 0.49067 0.60252 0.76954 0.0
H239 H 0.39932 0.56097 0.76205 0.0
O240 O 0.44626 0.53733 0.83584 0.0
O241 O 0.44622 0.58033 0.82325 0.0
O242 O 0.35376 0.55849 0.82859 0.0
O243 O 0.36368 0.58465 0.79606 0.0
C244 C 0.55734 0.61195 0.74496 0.0
C245 C 0.57191 0.63223 0.76132 0.0
H246 H 0.58861 0.66973 0.7967 0.0
H247 H 0.5363 0.67822 0.83097 0.0
H248 H 0.44438 0.54793 0.72631 0.0
H249 H 0.51935 0.57102 0.71774 0.0
H250 H 0.57708 0.60858 0.72889 0.0
H251 H 0.60319 0.64388 0.75784 0.0
Mn252 Mn 0.09561 0.93265 0.86093 0.0
Mn253 Mn 0.08192 0.89591 0.81034 0.0
C254 C 0.04673 0.9491 0.83131 0.0
C255 C 0.07539 0.94344 0.90008 0.0
C256 C 0.1656 0.93198 0.81983 0.0
O257 O 0.12192 0.89491 0.87005 0.0
O258 O 0.10862 0.87252 0.83578 0.0
C259 C 0.009 0.85782 0.82744 0.0
N260 N 0.02429 0.87655 0.81126 0.0
C261 C 0.95576 0.87072 0.78744 0.0
C262 C 0.93933 0.85124 0.80379 0.0
C263 C 0.96599 0.84486 0.82393 0.0
C264 C 0.99877 0.88302 0.79194 0.0
H265 H 0.02951 0.85279 0.84288 0.0
C266 C 0.12326 0.87321 0.8572 0.0
O267 O 0.11617 0.94904 0.89162 0.0
O268 O 0.04698 0.93052 0.88609 0.0
N269 N 0.05643 0.91521 0.78385 0.0
C270 C 0.0764 0.93528 0.7704 0.0
C271 C 0.05451 0.94388 0.74945 0.0
C272 C 0.0124 0.93173 0.74254 0.0
C273 C 0.99223 0.91136 0.75681 0.0
C274 C 0.01614 0.90323 0.77724 0.0
H275 H 0.10912 0.94438 0.77543 0.0
O276 O 0.06381 0.96549 0.84725 0.0
O277 O 0.05786 0.92308 0.83333 0.0
O278 O 0.15294 0.94021 0.84036 0.0
O279 O 0.14173 0.91534 0.80724 0.0
C280 C 0.94934 0.89882 0.75161 0.0
C281 C 0.93096 0.87865 0.76701 0.0
H282 H 0.90619 0.84119 0.80114 0.0
H283 H 0.95348 0.82992 0.83666 0.0
H284 H 0.07049 0.95952 0.73851 0.0
H285 H 0.99604 0.93801 0.72613 0.0
H286 H 0.92997 0.90476 0.73596 0.0
H287 H 0.89765 0.86944 0.76301 0.0
H288 H 0.23082 0.5346 0.32355 0.0
H289 H 0.29821 0.51682 0.30208 0.0
H290 H 0.28951 0.58501 0.25314 0.0
H291 H 0.22169 0.60262 0.27413 0.0
H292 H 0.29943 0.53896 0.22956 0.0
H293 H 0.37487 0.58043 0.29653 0.0
H294 H 0.39088 0.5888 0.33889 0.0
H295 H 0.42835 0.50364 0.34797 0.0
H296 H 0.41192 0.49465 0.30573 0.0
H297 H 0.56213 0.51016 0.20622 0.0
H298 H 0.49986 0.53217 0.22929 0.0
H299 H 0.40583 0.4674 0.20818 0.0
H300 H 0.46785 0.44577 0.18487 0.0
H301 H 0.45002 0.51454 0.26658 0.0
H302 H 0.29793 0.49392 0.20199 0.0
H303 H 0.28483 0.48832 0.159 0.0
H304 H 0.40519 0.53752 0.14429 0.0
H305 H 0.41862 0.54373 0.18716 0.0
C306 C 0.24351 0.54603 0.30839 0.0
C307 C 0.22064 0.57007 0.3006 0.0
C308 C 0.28219 0.53583 0.29614 0.0
C309 C 0.29915 0.54963 0.27603 0.0
C310 C 0.27701 0.57393 0.26854 0.0
C311 C 0.23825 0.58404 0.28066 0.0
C312 C 0.33863 0.5382 0.2621 0.0
C313 C 0.33231 0.5336 0.23771 0.0
C314 C 0.38182 0.53144 0.2726 0.0
C315 C 0.39164 0.53681 0.29802 0.0
C316 C 0.38611 0.56343 0.30761 0.0
C317 C 0.39534 0.5683 0.33159 0.0
C318 C 0.41048 0.54675 0.34613 0.0
C319 C 0.41653 0.5203 0.3367 0.0
C320 C 0.40729 0.51531 0.31274 0.0
C321 C 0.52812 0.5007 0.20666 0.0
C322 C 0.51987 0.47591 0.19451 0.0
C323 C 0.49269 0.51318 0.21983 0.0
C324 C 0.44817 0.50144 0.22048 0.0
C325 C 0.43977 0.47694 0.20784 0.0
C326 C 0.47524 0.46444 0.19476 0.0
C327 C 0.41041 0.51488 0.23423 0.0
C328 C 0.41703 0.51978 0.25853 0.0
C329 C 0.36769 0.52227 0.22362 0.0
C330 C 0.35948 0.51906 0.19779 0.0
C331 C 0.32146 0.50364 0.18957 0.0
C332 C 0.31401 0.50035 0.16523 0.0
C333 C 0.34424 0.51249 0.14893 0.0
C334 C 0.38189 0.52805 0.15693 0.0
C335 C 0.38946 0.53144 0.18125 0.0
H336 H 0.33844 0.50988 0.13009 0.0
H337 H 0.41763 0.55056 0.36469 0.0
H338 H 0.95055 1.00225 0.20838 0.0
H339 H 0.01208 0.97952 0.23034 0.0
H340 H 0.09114 0.05529 0.22987 0.0
H341 H 0.03316 0.07591 0.20383 0.0
H342 H 0.14779 0.02167 0.22541 0.0
H343 H 0.02777 0.01512 0.29036 0.0
H344 H 0.95174 1.00164 0.30716 0.0
H345 H 0.96765 0.92026 0.27808 0.0
H346 H 0.044 0.93318 0.26163 0.0
H347 H 0.2967 0.9873 0.32146 0.0
H348 H 0.22978 0.00556 0.29978 0.0
H349 H 0.19862 0.92392 0.27383 0.0
H350 H 0.26609 0.90551 0.29511 0.0
H351 H 0.11943 0.9564 0.29147 0.0
H352 H 0.24798 0.96131 0.23754 0.0
H353 H 0.32776 0.97371 0.22604 0.0
H354 H 0.29669 0.0595 0.23704 0.0
H355 H 0.2169 0.04755 0.24908 0.0
C356 C 0.98097 0.01408 0.21324 0.0
C357 C 0.9858 0.04152 0.20565 0.0
C358 C 0.01601 1.00118 0.22637 0.0
C359 C 0.05609 0.01575 0.23319 0.0
C360 C 0.06078 0.04326 0.22533 0.0
C361 C 0.02691 0.05555 0.21099 0.0
C362 C 0.09475 1.00199 0.24667 0.0
C363 C 0.14094 0.00802 0.24022 0.0
C364 C 0.08728 0.98273 0.26535 0.0
C365 C 0.04073 0.97538 0.27429 0.0
C366 C 0.01451 0.99457 0.28725 0.0
C367 C 0.97163 0.98696 0.29684 0.0
C368 C 0.95459 0.96027 0.29337 0.0
C369 C 0.98069 0.941 0.2806 0.0
C370 C 0.02386 0.9484 0.27129 0.0
C371 C 0.27532 0.97316 0.31137 0.0
C372 C 0.28673 0.94498 0.30994 0.0
C373 C 0.23727 0.98365 0.29892 0.0
C374 C 0.20956 0.9661 0.28511 0.0
C375 C 0.21971 0.93778 0.28437 0.0
C376 C 0.25829 0.92734 0.29647 0.0
C377 C 0.17091 0.97756 0.27087 0.0
C378 C 0.12536 0.97064 0.27693 0.0
C379 C 0.17889 0.99623 0.25211 0.0
C380 C 0.22659 1.0035 0.24444 0.0
C381 C 0.25826 0.9828 0.23771 0.0
C382 C 0.30348 0.98974 0.23107 0.0
C383 C 0.31733 0.01737 0.23087 0.0
C384 C 0.28593 0.0381 0.23724 0.0
C385 C 0.2407 0.03126 0.24396 0.0
H386 H 0.35236 0.02271 0.22572 0.0
H387 H 0.92135 0.95446 0.30075 0.0
H388 H 0.71003 0.43111 0.23856 0.0
H389 H 0.77885 0.45097 0.25689 0.0
H390 H 0.80478 0.49873 0.19378 0.0
H391 H 0.73612 0.47866 0.17503 0.0
H392 H 0.88467 0.47769 0.21219 0.0
H393 H 0.75227 0.52807 0.24072 0.0
H394 H 0.67471 0.53227 0.25885 0.0
H395 H 0.72571 0.49538 0.32298 0.0
H396 H 0.80341 0.49048 0.30506 0.0
H397 H 0.97496 0.58333 0.31071 0.0
H398 H 0.91543 0.56572 0.28389 0.0
H399 H 0.99992 0.49352 0.27079 0.0
H400 H 0.06183 0.51343 0.29462 0.0
H401 H 0.86377 0.5276 0.2883 0.0
H402 H 0.9712 0.45502 0.23273 0.0
H403 H 0.04502 0.45156 0.21064 0.0
H404 H 0.03893 0.53818 0.19501 0.0
H405 H 0.96518 0.54207 0.21743 0.0
C406 C 0.73046 0.44566 0.22841 0.0
C407 C 0.71716 0.45343 0.20532 0.0
C408 C 0.76979 0.45706 0.239 0.0
C409 C 0.79651 0.47666 0.22686 0.0
C410 C 0.78452 0.4837 0.2035 0.0
C411 C 0.74517 0.47224 0.19283 0.0
C412 C 0.83589 0.49055 0.23888 0.0
C413 C 0.88017 0.48876 0.22878 0.0
C414 C 0.82996 0.50514 0.26042 0.0
C415 C 0.78357 0.50871 0.27147 0.0
C416 C 0.74689 0.52072 0.25864 0.0
C417 C 0.7029 0.52322 0.26888 0.0
C418 C 0.69527 0.51404 0.29203 0.0
C419 C 0.73167 0.50245 0.30503 0.0
C420 C 0.7757 0.49982 0.29485 0.0
C421 C 0.98188 0.56467 0.30075 0.0
C422 C 0.02409 0.55067 0.30351 0.0
C423 C 0.94733 0.55411 0.28587 0.0
C424 C 0.95301 0.52835 0.27455 0.0
C425 C 0.99496 0.514 0.27798 0.0
C426 C 0.03027 0.52521 0.292 0.0
C427 C 0.91333 0.51546 0.26144 0.0
C428 C 0.86868 0.51701 0.27153 0.0
C429 C 0.91879 0.50103 0.23966 0.0
C430 C 0.96366 0.49903 0.22714 0.0
C431 C 0.98597 0.47336 0.22476 0.0
C432 C 0.02772 0.47132 0.21226 0.0
C433 C 0.04693 0.49474 0.20169 0.0
C434 C 0.02437 0.5202 0.20357 0.0
C435 C 0.98289 0.52239 0.21633 0.0
H436 H 0.0791 0.49311 0.19188 0.0
H437 H 0.66117 0.51595 0.29991 0.0
H438 H 0.77635 0.02941 0.18355 0.0
H439 H 0.7086 0.00763 0.20169 0.0
H440 H 0.72843 0.05634 0.26493 0.0
H441 H 0.79591 0.07832 0.24702 0.0
H442 H 0.7057 0.97646 0.24144 0.0
H443 H 0.62167 0.06951 0.28966 0.0
H444 H 0.61307 0.1198 0.28424 0.0
H445 H 0.62767 0.11005 0.2089 0.0
H446 H 0.63561 0.05969 0.21382 0.0
H447 H 0.54089 0.9296 0.32892 0.0
H448 H 0.60505 0.947 0.30518 0.0
H449 H 0.50917 0.99682 0.2647 0.0
H450 H 0.44629 0.98222 0.29085 0.0
H451 H 0.57138 0.02729 0.27473 0.0
H452 H 0.61426 0.93589 0.22676 0.0
H453 H 0.63831 0.88703 0.2238 0.0
H454 H 0.70872 0.89339 0.29066 0.0
H455 H 0.68726 0.94266 0.29325 0.0
C456 C 0.76613 0.0357 0.20124 0.0
C457 C 0.79174 0.05564 0.21379 0.0
C458 C 0.72745 0.02316 0.2116 0.0
C459 C 0.7133 0.03049 0.2346 0.0
C460 C 0.73835 0.05062 0.24705 0.0
C461 C 0.77712 0.06307 0.23678 0.0
C462 C 0.67369 0.01617 0.24602 0.0
C463 C 0.67592 0.98748 0.24853 0.0
C464 C 0.63515 0.03058 0.25534 0.0
C465 C 0.62971 0.06084 0.25217 0.0
C466 C 0.62284 0.07808 0.27193 0.0
C467 C 0.6181 0.1066 0.26894 0.0
C468 C 0.61997 0.11812 0.24624 0.0
C469 C 0.6264 0.10112 0.22647 0.0
C470 C 0.63108 0.07259 0.22937 0.0
C471 C 0.53365 0.94384 0.31458 0.0
C472 C 0.4887 0.95431 0.31142 0.0
C473 C 0.57043 0.95348 0.30059 0.0
C474 C 0.56268 0.97294 0.28246 0.0
C475 C 0.5168 0.98202 0.27855 0.0
C476 C 0.4806 0.97351 0.29334 0.0
C477 C 0.60204 0.98686 0.2698 0.0
C478 C 0.60036 0.01586 0.26734 0.0
C479 C 0.64094 0.97266 0.2602 0.0
C480 C 0.64696 0.94243 0.26084 0.0
C481 C 0.63394 0.92663 0.24107 0.0
C482 C 0.64802 0.89907 0.2392 0.0
C483 C 0.67449 0.88701 0.25719 0.0
C484 C 0.68764 0.90262 0.2769 0.0
C485 C 0.67481 0.9304 0.27849 0.0
H486 H 0.68501 0.86561 0.25578 0.0
H487 H 0.61635 0.1402 0.24396 0.0
H488 H 0.55048 0.5721 0.82255 0.0
H489 H 0.61619 0.55228 0.80157 0.0
H490 H 0.52245 0.50271 0.75956 0.0
H491 H 0.45791 0.5191 0.78376 0.0
H492 H 0.58233 0.47205 0.76885 0.0
H493 H 0.63566 0.56709 0.7267 0.0
H494 H 0.66341 0.61531 0.72882 0.0
H495 H 0.72739 0.59876 0.79605 0.0
H496 H 0.70246 0.5501 0.79352 0.0
H497 H 0.78451 0.47361 0.67616 0.0
H498 H 0.71834 0.49457 0.69648 0.0
H499 H 0.73752 0.43912 0.75546 0.0
H500 H 0.80349 0.41788 0.73529 0.0
H501 H 0.72004 0.52164 0.73843 0.0
H502 H 0.63139 0.42762 0.78149 0.0
H503 H 0.61837 0.37816 0.77341 0.0
H504 H 0.62946 0.39309 0.69857 0.0
H505 H 0.64201 0.44265 0.70618 0.0
C506 C 0.54419 0.55725 0.80853 0.0
C507 C 0.49917 0.54753 0.80433 0.0
C508 C 0.58199 0.54624 0.79603 0.0
C509 C 0.57538 0.52631 0.77811 0.0
C510 C 0.52952 0.51773 0.77333 0.0
C511 C 0.49226 0.52736 0.78692 0.0
C512 C 0.61528 0.51206 0.76592 0.0
C513 C 0.61199 0.48329 0.76207 0.0
C514 C 0.65559 0.5258 0.75743 0.0
C515 C 0.66482 0.55551 0.76061 0.0
C516 C 0.65473 0.57397 0.74217 0.0
C517 C 0.67074 0.6012 0.74322 0.0
C518 C 0.69616 0.61027 0.76282 0.0
C519 C 0.70691 0.59189 0.78108 0.0
C520 C 0.69226 0.56445 0.77973 0.0
C521 C 0.77439 0.46559 0.69332 0.0
C522 C 0.79956 0.44407 0.70408 0.0
C523 C 0.73661 0.47768 0.70494 0.0
C524 C 0.72289 0.46837 0.72745 0.0
C525 C 0.74714 0.44645 0.73799 0.0
C526 C 0.78503 0.4344 0.72643 0.0
C527 C 0.68495 0.48265 0.74043 0.0
C528 C 0.68941 0.51095 0.74481 0.0
C529 C 0.64573 0.46858 0.74921 0.0
C530 C 0.63811 0.4388 0.74444 0.0
C531 C 0.63093 0.42035 0.76331 0.0
C532 C 0.62364 0.3923 0.75881 0.0
C533 C 0.62318 0.38248 0.7355 0.0
C534 C 0.62994 0.40071 0.71663 0.0
C535 C 0.63727 0.42877 0.72103 0.0
H536 H 0.61756 0.36076 0.73205 0.0
H537 H 0.70806 0.63142 0.76369 0.0
H538 H 0.69379 0.017 0.70158 0.0
H539 H 0.76109 0.9963 0.72161 0.0
H540 H 0.78719 0.07328 0.75757 0.0
H541 H 0.7193 0.09385 0.73828 0.0
H542 H 0.86784 0.04126 0.73079 0.0
H543 H 0.74652 0.03606 0.79095 0.0
H544 H 0.66815 0.02308 0.80442 0.0
H545 H 0.69637 0.93819 0.78769 0.0
H546 H 0.77466 0.95079 0.77369 0.0
H547 H 0.04434 0.99938 0.81034 0.0
H548 H 0.98051 0.02018 0.78858 0.0
H549 H 0.90467 0.94343 0.79294 0.0
H550 H 0.96516 0.92482 0.81859 0.0
H551 H 0.84698 0.97659 0.79802 0.0
H552 H 0.95525 0.97941 0.73027 0.0
H553 H 0.02939 0.9893 0.70979 0.0
H554 H 0.02424 0.07301 0.73479 0.0
H555 H 0.94988 0.06351 0.755 0.0
C556 C 0.71401 0.02951 0.71369 0.0
C557 C 0.70129 0.05699 0.71843 0.0
C558 C 0.75225 0.01766 0.72513 0.0
C559 C 0.77882 0.03332 0.74105 0.0
C560 C 0.76694 0.06093 0.74535 0.0
C561 C 0.72813 0.07257 0.73438 0.0
C562 C 0.81886 0.02082 0.75343 0.0
C563 C 0.86359 0.02722 0.74562 0.0
C564 C 0.81295 1.00202 0.77225 0.0
C565 C 0.7662 0.99442 0.78101 0.0
C566 C 0.73583 0.01468 0.78991 0.0
C567 C 0.69147 0.00738 0.79769 0.0
C568 C 0.67723 0.97984 0.79685 0.0
C569 C 0.70741 0.95952 0.78829 0.0
C570 C 0.75178 0.96673 0.78044 0.0
C571 C 0.01418 0.9869 0.80634 0.0
C572 C 0.01089 0.9598 0.81494 0.0
C573 C 0.97779 0.99867 0.79339 0.0
C574 C 0.93782 0.98327 0.78785 0.0
C575 C 0.93487 0.95602 0.79651 0.0
C576 C 0.97018 0.94489 0.81062 0.0
C577 C 0.89747 0.99614 0.7751 0.0
C578 C 0.85214 0.99018 0.783 0.0
C579 C 0.90281 0.01483 0.75586 0.0
C580 C 0.94807 0.02047 0.7446 0.0
C581 C 0.97065 0.99968 0.73169 0.0
C582 C 0.01237 0.0053 0.72001 0.0
C583 C 0.03187 0.03165 0.72129 0.0
C584 C 0.00931 0.05255 0.73396 0.0
C585 C 0.96727 0.0471 0.7454 0.0
H586 H 0.06423 0.03595 0.7123 0.0
H587 H 0.64287 0.97423 0.80287 0.0
H588 H 0.29516 0.58526 0.76891 0.0
H589 H 0.22887 0.56449 0.74913 0.0
H590 H 0.22644 0.49936 0.80125 0.0
H591 H 0.29255 0.52049 0.82162 0.0
H592 H 0.22168 0.51729 0.72771 0.0
H593 H 0.11324 0.47492 0.80585 0.0
H594 H 0.09779 0.48517 0.84801 0.0
H595 H 0.13116 0.57045 0.8364 0.0
H596 H 0.14619 0.56079 0.79414 0.0
H597 H 0.04686 0.4295 0.68192 0.0
H598 H 0.11072 0.44762 0.70603 0.0
H599 H 0.02234 0.51393 0.73029 0.0
H600 H 0.95813 0.49525 0.70663 0.0
H601 H 0.07213 0.49419 0.76635 0.0
H602 H 0.10281 0.52399 0.68655 0.0
H603 H 0.11475 0.51767 0.64356 0.0
H604 H 0.23192 0.46521 0.65728 0.0
H605 H 0.22028 0.47094 0.70038 0.0
C606 C 0.28048 0.5666 0.77634 0.0
C607 C 0.29934 0.55455 0.79689 0.0
C608 C 0.24256 0.55469 0.76492 0.0
C609 C 0.22254 0.53037 0.77367 0.0
C610 C 0.24089 0.51833 0.79432 0.0
C611 C 0.27877 0.53041 0.80592 0.0
C612 C 0.1834 0.51745 0.76057 0.0
C613 C 0.18907 0.51216 0.73624 0.0
C614 C 0.14063 0.51091 0.77156 0.0
C615 C 0.13146 0.51703 0.79691 0.0
C616 C 0.11722 0.49586 0.8123 0.0
C617 C 0.10851 0.50157 0.83621 0.0
C618 C 0.11369 0.52842 0.8449 0.0
C619 C 0.12739 0.54964 0.82968 0.0
C620 C 0.13607 0.54405 0.80575 0.0
C621 C 0.04105 0.44766 0.69277 0.0
C622 C 0.99744 0.46052 0.6932 0.0
C623 C 0.07757 0.45817 0.7063 0.0
C624 C 0.07133 0.48216 0.71999 0.0
C625 C 0.02781 0.49525 0.72008 0.0
C626 C 0.99129 0.4847 0.70655 0.0
C627 C 0.11052 0.49417 0.73358 0.0
C628 C 0.10493 0.49913 0.75795 0.0
C629 C 0.1531 0.50097 0.72256 0.0
C630 C 0.16041 0.49769 0.69667 0.0
C631 C 0.13094 0.51097 0.68039 0.0
C632 C 0.13768 0.50751 0.65601 0.0
C633 C 0.174 0.49099 0.6477 0.0
C634 C 0.20376 0.47797 0.66375 0.0
C635 C 0.19714 0.48133 0.68815 0.0
H636 H 0.17916 0.48833 0.62882 0.0
H637 H 0.10696 0.53279 0.86341 0.0
H638 H 0.19893 0.92491 0.77468 0.0
H639 H 0.26621 0.94688 0.75661 0.0
H640 H 0.29827 0.98653 0.82315 0.0
H641 H 0.23035 0.96512 0.8413 0.0
H642 H 0.3004 0.02254 0.78913 0.0
H643 H 0.36702 0.93347 0.80058 0.0
H644 H 0.37137 0.88272 0.79818 0.0
H645 H 0.36785 0.88694 0.72213 0.0
H646 H 0.36327 0.93778 0.72409 0.0
H647 H 0.54947 0.01991 0.72829 0.0
H648 H 0.48907 1.00194 0.75442 0.0
H649 H 0.39195 0.0607 0.72515 0.0
H650 H 0.45384 0.08034 0.70084 0.0
H651 H 0.42176 0.97524 0.74194 0.0
H652 H 0.31609 0.06782 0.74361 0.0
H653 H 0.29967 0.11524 0.75734 0.0
H654 H 0.38003 0.10065 0.82023 0.0
H655 H 0.39913 0.05376 0.80607 0.0
C656 C 0.2205 0.93806 0.78561 0.0
C657 C 0.20893 0.94334 0.80947 0.0
C658 C 0.25921 0.95051 0.77523 0.0
C659 C 0.28755 0.96825 0.78853 0.0
C660 C 0.27685 0.97297 0.81251 0.0
C661 C 0.23799 0.96066 0.82288 0.0
C662 C 0.32642 0.98338 0.77707 0.0
C663 C 0.32727 0.01217 0.77896 0.0
C664 C 0.36141 0.96995 0.76381 0.0
C665 C 0.36436 0.93941 0.76249 0.0
C666 C 0.36686 0.92357 0.78335 0.0
C667 C 0.36945 0.89479 0.78207 0.0
C668 C 0.36966 0.8816 0.76002 0.0
C669 C 0.36759 0.89718 0.7392 0.0
C670 C 0.36512 0.92599 0.74038 0.0
C671 C 0.51554 0.02957 0.72817 0.0
C672 C 0.50642 0.0518 0.71298 0.0
C673 C 0.48083 0.01925 0.74302 0.0
C674 C 0.4354 0.02997 0.74219 0.0
C675 C 0.42661 0.0526 0.72717 0.0
C676 C 0.46196 0.06365 0.71293 0.0
C677 C 0.39693 0.01484 0.75444 0.0
C678 C 0.39553 0.98581 0.75235 0.0
C679 C 0.36198 0.02801 0.76811 0.0
C680 C 0.36078 0.05783 0.77326 0.0
C681 C 0.33198 0.07523 0.75981 0.0
C682 C 0.32181 0.10189 0.76778 0.0
C683 C 0.33876 0.11096 0.78965 0.0
C684 C 0.36699 0.09363 0.80327 0.0
C685 C 0.37843 0.06728 0.79499 0.0
H686 H 0.33021 0.13143 0.79601 0.0
H687 H 0.37154 0.8593 0.75907 0.0
H688 H 1.00194 0.56732 0.41233 0.0
H689 H 0.97487 0.54696 0.44944 0.0
H690 H 0.10744 0.50698 0.45871 0.0
H691 H 0.13463 0.52704 0.42135 0.0
H692 H 0.03752 0.47158 0.46684 0.0
H693 H 0.07698 0.56298 0.49221 0.0
H694 H 0.07599 0.61386 0.49115 0.0
H695 H 0.9287 0.6138 0.50251 0.0
H696 H 0.9287 0.56287 0.50331 0.0
H697 H 0.00828 0.43305 0.5878 0.0
H698 H 0.03405 0.45215 0.54996 0.0
H699 H 0.90106 0.49168 0.54086 0.0
H700 H 0.87516 0.47286 0.57892 0.0
H701 H 0.97084 0.52716 0.53252 0.0
H702 H 0.93171 0.43557 0.50749 0.0
H703 H 0.93314 0.3847 0.50875 0.0
H704 H 0.08032 0.38514 0.497 0.0
H705 H 0.07988 0.43605 0.49599 0.0
C706 C 0.02553 0.55439 0.42234 0.0
C707 C 0.07052 0.54886 0.41389 0.0
C708 C 0.01001 0.5428 0.44362 0.0
C709 C 0.03921 0.52558 0.457 0.0
C710 C 0.08428 0.52019 0.44869 0.0
C711 C 0.09986 0.53179 0.42739 0.0
C712 C 0.02224 0.51265 0.47931 0.0
C713 C 0.02356 0.48377 0.48135 0.0
C714 C 0.0029 0.52847 0.49801 0.0
C715 C 0.00279 0.5591 0.49758 0.0
C716 C 0.04432 0.5738 0.49429 0.0
C717 C 0.04395 0.60265 0.49377 0.0
C718 C 1.00229 0.61705 0.4967 0.0
C719 C 0.96093 0.60262 0.50021 0.0
C720 C 0.9611 0.57376 0.50072 0.0
C721 C 0.98425 0.44551 0.57762 0.0
C722 C 0.93961 0.45139 0.58637 0.0
C723 C 0.99903 0.45638 0.55594 0.0
C724 C 0.96943 0.47325 0.54246 0.0
C725 C 0.92452 0.47874 0.55094 0.0
C726 C 0.90968 0.46784 0.57265 0.0
C727 C 0.98607 0.48609 0.52005 0.0
C728 C 0.98473 0.51497 0.518 0.0
C729 C 0.00545 0.47027 0.50136 0.0
C730 C 0.00581 0.43965 0.50189 0.0
C731 C 0.96444 0.42483 0.50536 0.0
C732 C 0.96506 0.39599 0.50599 0.0
C733 C 0.00681 0.3817 0.50301 0.0
C734 C 0.04801 0.39623 0.49933 0.0
C735 C 0.04759 0.42509 0.4987 0.0
H736 H 0.00722 0.35936 0.50351 0.0
H737 H 1.00208 0.63939 0.49629 0.0
H738 H 0.50519 0.94245 0.42169 0.0
H739 H 0.53059 0.96058 0.46005 0.0
H740 H 0.40025 1.00352 0.46788 0.0
H741 H 0.37492 0.98581 0.42935 0.0
H742 H 0.47056 0.03655 0.47951 0.0
H743 H 0.42457 0.94429 0.49941 0.0
H744 H 0.42387 0.89355 0.49585 0.0
H745 H 0.56978 0.8908 0.51097 0.0
H746 H 0.57149 0.94158 0.51431 0.0
H747 H 0.49155 0.0695 0.60226 0.0
H748 H 0.46685 0.05185 0.56362 0.0
H749 H 0.59731 0.00898 0.55604 0.0
H750 H 0.62193 0.02622 0.59484 0.0
H751 H 0.52722 0.97596 0.54422 0.0
H752 H 0.57319 0.0682 0.52447 0.0
H753 H 0.57394 0.11894 0.528 0.0
H754 H 0.42816 0.12176 0.51255 0.0
H755 H 0.4264 0.07097 0.50925 0.0
C756 C 0.4818 0.95562 0.43164 0.0
C757 C 0.43795 0.9626 0.42247 0.0
C758 C 0.49633 0.96592 0.45363 0.0
C759 C 0.4672 0.98325 0.46703 0.0
C760 C 0.42338 0.99021 0.45791 0.0
C761 C 0.40886 0.97996 0.4359 0.0
C762 C 0.48271 0.99453 0.49033 0.0
C763 C 0.48233 0.02326 0.49377 0.0
C764 C 0.49919 0.9773 0.5088 0.0
C765 C 0.49823 0.94676 0.50688 0.0
C766 C 0.45658 0.93288 0.5018 0.0
C767 C 0.45599 0.90411 0.49985 0.0
C768 C 0.49678 0.88897 0.50312 0.0
C769 C 0.53823 0.90256 0.50841 0.0
C770 C 0.53901 0.93133 0.51035 0.0
C771 C 0.51514 0.05648 0.5923 0.0
C772 C 0.55878 0.04933 0.60164 0.0
C773 C 0.50102 0.04645 0.57015 0.0
C774 C 0.53034 0.02923 0.55675 0.0
C775 C 0.57403 0.0222 0.566 0.0
C776 C 0.58815 0.03219 0.58817 0.0
C777 C 0.51506 0.01798 0.5334 0.0
C778 C 0.51546 0.98926 0.52995 0.0
C779 C 0.4986 0.03521 0.51493 0.0
C780 C 0.49958 0.06576 0.51685 0.0
C781 C 0.54121 0.07962 0.52201 0.0
C782 C 0.54183 0.10839 0.52394 0.0
C783 C 0.5011 0.12356 0.52056 0.0
C784 C 0.45967 0.10998 0.51519 0.0
C785 C 0.45885 0.0812 0.51327 0.0
H786 H 0.50165 0.14583 0.52205 0.0
H787 H 0.49625 0.86669 0.5016 0.0
H788 H 0.63959 0.47542 0.07965 0.0
H789 H 0.61359 0.4932 0.04125 0.0
H790 H 0.47836 0.45773 0.05286 0.0
H791 H 0.5042 0.4397 0.09115 0.0
H792 H 0.50625 0.45082 0.00725 0.0
H793 H 0.4968 0.52559 0.06315 0.0
H794 H 0.52651 0.55748 0.09367 0.0
H795 H 0.62835 0.58793 0.04468 0.0
H796 H 0.59964 0.55592 0.01396 0.0
H797 H 0.38044 0.52684 0.92139 0.0
H798 H 0.40785 0.50807 0.95913 0.0
H799 H 0.54081 0.54679 0.94831 0.0
H800 H 0.51332 0.56607 0.91077 0.0
H801 H 0.51492 0.55182 0.99339 0.0
H802 H 0.52404 0.47741 0.9373 0.0
H803 H 0.49459 0.4454 0.9068 0.0
H804 H 0.39388 0.41414 0.95601 0.0
H805 H 0.42234 0.44625 0.98672 0.0
C806 C 0.6045 0.47109 0.0739 0.0
C807 C 0.57392 0.45623 0.08852 0.0
C808 C 0.58959 0.48142 0.052 0.0
C809 C 0.54377 0.47719 0.04432 0.0
C810 C 0.5138 0.46135 0.05843 0.0
C811 C 0.52865 0.45106 0.08034 0.0
C812 C 0.52657 0.48999 0.02198 0.0
C813 C 0.50767 0.47294 1.00433 0.0
C814 C 0.5292 0.5188 0.01793 0.0
C815 C 0.54638 0.53815 0.03634 0.0
C816 C 0.52577 0.53893 0.05895 0.0
C817 C 0.54239 0.55706 0.07627 0.0
C818 C 0.57938 0.57467 0.07114 0.0
C819 C 0.59974 0.57425 0.04864 0.0
C820 C 0.58329 0.55613 0.03126 0.0
C821 C 0.41539 0.53157 0.92713 0.0
C822 C 0.44475 0.54787 0.913 0.0
C823 C 0.43114 0.52066 0.94866 0.0
C824 C 0.47673 0.52557 0.95641 0.0
C825 C 0.50558 0.5426 0.9427 0.0
C826 C 0.48979 0.55361 0.92121 0.0
C827 C 0.49459 0.51266 0.9786 0.0
C828 C 0.51358 0.5297 0.99625 0.0
C829 C 0.49209 0.48382 0.98263 0.0
C830 C 0.47503 0.46442 0.96423 0.0
C831 C 0.49539 0.46386 0.94156 0.0
C832 C 0.47891 0.44567 0.92424 0.0
C833 C 0.44231 0.4278 0.92944 0.0
C834 C 0.42219 0.42802 0.95199 0.0
C835 C 0.4385 0.44619 0.96937 0.0
H836 H 0.4296 0.41373 0.91601 0.0
H837 H 0.59219 0.58869 0.08457 0.0
H838 H 0.99144 0.93609 0.9219 0.0
H839 H 0.96507 0.95618 0.9594 0.0
H840 H 0.09896 0.99416 0.96913 0.0
H841 H 0.12581 0.97375 0.93187 0.0
H842 H 0.06776 0.97397 0.01017 0.0
H843 H 0.00563 0.03118 0.9483 0.0
H844 H 0.96214 0.04096 0.91159 0.0
H845 H 0.83772 0.00945 0.94343 0.0
H846 H 0.88064 0.99912 0.98024 0.0
H847 H 0.00316 0.07013 0.09886 0.0
H848 H 0.02913 0.05062 0.06107 0.0
H849 H 0.89554 0.0122 0.05157 0.0
H850 H 0.86908 0.03202 0.08915 0.0
H851 H 0.92656 0.03271 0.01038 0.0
H852 H 0.9889 0.97542 0.07223 0.0
H853 H 0.03248 0.96571 0.10892 0.0
H854 H 0.15668 0.9975 0.07706 0.0
H855 H 0.11366 0.00776 0.04027 0.0
C856 C 0.01544 0.94849 0.93213 0.0
C857 C 0.06068 0.9534 0.92383 0.0
C858 C 1.00021 0.96012 0.95351 0.0
C859 C 0.02974 0.97712 0.96692 0.0
C860 C 0.07545 0.98123 0.95908 0.0
C861 C 0.09075 0.96954 0.93774 0.0
C862 C 0.01279 0.99105 0.98886 0.0
C863 C 0.03722 0.98709 0.01013 0.0
C864 C 0.9724 0.00778 0.989 0.0
C865 C 0.94646 0.01413 0.96694 0.0
C866 C 0.96907 0.02615 0.94741 0.0
C867 C 0.94451 0.03182 0.9266 0.0
C868 C 0.89722 0.02577 0.92516 0.0
C869 C 0.87436 0.01409 0.94456 0.0
C870 C 0.89878 0.00835 0.96541 0.0
C871 C 0.9791 0.05779 0.0886 0.0
C872 C 0.9341 0.05252 0.09709 0.0
C873 C 0.99411 0.0465 0.06706 0.0
C874 C 0.96459 0.02949 0.05365 0.0
C875 C 0.91903 0.02514 0.06162 0.0
C876 C 0.90395 0.03649 0.08314 0.0
C877 C 0.98154 0.01563 0.03167 0.0
C878 C 0.95711 0.0196 0.01041 0.0
C879 C 0.02195 0.99892 0.03154 0.0
C880 C 0.04795 0.9926 0.05358 0.0
C881 C 0.02543 0.98052 0.07311 0.0
C882 C 0.05004 0.9749 0.09391 0.0
C883 C 0.0973 0.98105 0.09534 0.0
C884 C 0.12007 0.99278 0.07594 0.0
C885 C 0.09559 0.99848 0.0551 0.0
H886 H 0.11629 0.97668 0.11147 0.0
H887 H 0.87827 0.03017 0.90903 0.0
H888 H 0.21771 0.63971 0.37186 0.0
H889 H 0.25454 0.683 0.38381 0.0
H890 H 0.12381 0.72559 0.37527 0.0
H891 H 0.0882 0.68268 0.36163 0.0
H892 H 0.18188 0.75369 0.35471 0.0
H893 H 0.18412 0.71467 0.43196 0.0
H894 H 0.19793 0.67965 0.46288 0.0
H895 H 0.34412 0.68189 0.4484 0.0
H896 H 0.33115 0.71665 0.41716 0.0
H897 H 0.28721 0.87987 0.38608 0.0
H898 H 0.2416 0.83873 0.39628 0.0
H899 H 0.35756 0.78677 0.37753 0.0
H900 H 0.40266 0.82758 0.36687 0.0
H901 H 0.29995 0.76685 0.41768 0.0
H902 H 0.29015 0.80069 0.33566 0.0
H903 H 0.27471 0.83791 0.30687 0.0
H904 H 0.1364 0.84689 0.33417 0.0
H905 H 0.15141 0.81004 0.36344 0.0
C906 C 0.19674 0.65823 0.37314 0.0
C907 C 0.15016 0.65792 0.36595 0.0
C908 C 0.21771 0.68303 0.38008 0.0
C909 C 0.19204 0.70781 0.38074 0.0
C910 C 0.14465 0.70697 0.37483 0.0
C911 C 0.12414 0.68239 0.36719 0.0
C912 C 0.21542 0.73492 0.38497 0.0
C913 C 0.2067 0.75658 0.36894 0.0
C914 C 0.24855 0.73902 0.40326 0.0
C915 C 0.25659 0.71815 0.42209 0.0
C916 C 0.21919 0.70757 0.43525 0.0
C917 C 0.22687 0.68778 0.45286 0.0
C918 C 0.27186 0.67852 0.45757 0.0
C919 C 0.30928 0.68908 0.44472 0.0
C920 C 0.30179 0.70886 0.42709 0.0
C921 C 0.30345 0.85972 0.38502 0.0
C922 C 0.34831 0.85683 0.37559 0.0
C923 C 0.27738 0.83626 0.39077 0.0
C924 C 0.29619 0.80972 0.38751 0.0
C925 C 0.3425 0.80703 0.38028 0.0
C926 C 0.36816 0.83036 0.3741 0.0
C927 C 0.26604 0.78494 0.38751 0.0
C928 C 0.27396 0.76383 0.40402 0.0
C929 C 0.23152 0.7814 0.36998 0.0
C930 C 0.22205 0.80286 0.35188 0.0
C931 C 0.25655 0.81072 0.3356 0.0
C932 C 0.24789 0.83174 0.31921 0.0
C933 C 0.20465 0.84482 0.31874 0.0
C934 C 0.16991 0.83679 0.33459 0.0
C935 C 0.17848 0.81585 0.35108 0.0
H936 H 0.19803 0.86112 0.30606 0.0
H937 H 0.27774 0.66319 0.4712 0.0
H938 H 0.82268 0.16512 0.19582 0.0
H939 H 0.77832 0.20582 0.18468 0.0
H940 H 0.80842 0.19062 0.11093 0.0
H941 H 0.85279 0.14894 0.12196 0.0
H942 H 0.82283 0.25037 0.13363 0.0
H943 H 0.71015 0.1791 0.11888 0.0
H944 H 0.66862 0.13614 0.1287 0.0
H945 H 0.61736 0.17307 0.19285 0.0
H946 H 0.65904 0.21617 0.18353 0.0
H947 H 0.67086 0.36705 0.12115 0.0
H948 H 0.70757 0.32252 0.11211 0.0
H949 H 0.66161 0.29072 0.17958 0.0
H950 H 0.624 0.33434 0.18836 0.0
H951 H 0.65317 0.25215 0.14842 0.0
H952 H 0.77417 0.31704 0.16949 0.0
H953 H 0.82033 0.35956 0.16509 0.0
H954 H 0.85986 0.33493 0.09472 0.0
H955 H 0.81341 0.29239 0.09863 0.0
C956 C 0.82019 0.17033 0.17718 0.0
C957 C 0.84149 0.15376 0.15977 0.0
C958 C 0.79464 0.19362 0.17087 0.0
C959 C 0.79009 0.20118 0.14703 0.0
C960 C 0.81163 0.18504 0.12946 0.0
C961 C 0.83675 0.16125 0.13577 0.0
C962 C 0.76228 0.22602 0.14115 0.0
C963 C 0.78549 0.25073 0.13608 0.0
C964 C 0.71388 0.22649 0.1451 0.0
C965 C 0.68788 0.20083 0.15053 0.0
C966 C 0.69021 0.17801 0.13513 0.0
C967 C 0.6666 0.15365 0.1406 0.0
C968 C 0.64039 0.15187 0.16139 0.0
C969 C 0.63762 0.1745 0.17673 0.0
C970 C 0.66114 0.19892 0.17133 0.0
C971 C 0.6681 0.35045 0.13392 0.0
C972 C 0.64471 0.3545 0.15559 0.0
C973 C 0.68933 0.32501 0.12877 0.0
C974 C 0.68796 0.30327 0.14529 0.0
C975 C 0.66321 0.30705 0.16648 0.0
C976 C 0.64184 0.33222 0.17154 0.0
C977 C 0.71377 0.2769 0.14148 0.0
C978 C 0.6902 0.25185 0.145 0.0
C979 C 0.76204 0.27623 0.1366 0.0
C980 C 0.78983 0.30177 0.13421 0.0
C981 C 0.79241 0.32082 0.15301 0.0
C982 C 0.81866 0.34489 0.15062 0.0
C983 C 0.84287 0.34999 0.1296 0.0
C984 C 0.84097 0.33099 0.11096 0.0
C985 C 0.8147 0.3069 0.11325 0.0
H986 H 0.8632 0.36863 0.12779 0.0
H987 H 0.62218 0.13298 0.1656 0.0
H988 H 0.64084 0.14687 0.62031 0.0
H989 H 0.68075 0.18953 0.60776 0.0
H990 H 0.72921 0.20172 0.67941 0.0
H991 H 0.68963 0.16009 0.69187 0.0
H992 H 0.68824 0.24716 0.6633 0.0
H993 H 0.8008 0.17971 0.63463 0.0
H994 H 0.82639 0.14068 0.60968 0.0
H995 H 0.79134 0.18633 0.54692 0.0
H996 H 0.765 0.22552 0.57155 0.0
H997 H 0.88896 0.32226 0.67569 0.0
H998 H 0.84431 0.28135 0.66567 0.0
H999 H 0.78331 0.32382 0.60624 0.0
H1000 H 0.82778 0.36551 0.61629 0.0
H1001 H 0.8177 0.25592 0.6058 0.0
H1002 H 0.71174 0.32635 0.63781 0.0
H1003 H 0.69633 0.36467 0.66565 0.0
H1004 H 0.72529 0.31131 0.72459 0.0
H1005 H 0.74158 0.27282 0.69707 0.0
C1006 C 0.66062 0.15855 0.63319 0.0
C1007 C 0.66158 0.15037 0.65713 0.0
C1008 C 0.68326 0.1829 0.62605 0.0
C1009 C 0.70745 0.19905 0.64274 0.0
C1010 C 0.71015 0.18994 0.66628 0.0
C1011 C 0.68751 0.16604 0.67338 0.0
C1012 C 0.72881 0.22607 0.63668 0.0
C1013 C 0.71604 0.24908 0.65043 0.0
C1014 C 0.76461 0.22889 0.61965 0.0
C1015 C 0.78033 0.20535 0.60491 0.0
C1016 C 0.79814 0.18131 0.61551 0.0
C1017 C 0.81287 0.15919 0.60144 0.0
C1018 C 0.81032 0.16098 0.57673 0.0
C1019 C 0.79317 0.18494 0.56606 0.0
C1020 C 0.77835 0.20711 0.58006 0.0
C1021 C 0.86668 0.32298 0.66024 0.0
C1022 C 0.86147 0.34744 0.64703 0.0
C1023 C 0.84145 0.29941 0.65444 0.0
C1024 C 0.81059 0.29961 0.63527 0.0
C1025 C 0.80728 0.32327 0.62103 0.0
C1026 C 0.83255 0.34708 0.62688 0.0
C1027 C 0.77761 0.2764 0.63282 0.0
C1028 C 0.78841 0.25419 0.61779 0.0
C1029 C 0.7401 0.27408 0.6488 0.0
C1030 C 0.72815 0.2968 0.66539 0.0
C1031 C 0.71497 0.32285 0.65671 0.0
C1032 C 0.70609 0.34458 0.67242 0.0
C1033 C 0.71002 0.34044 0.69686 0.0
C1034 C 0.72234 0.31449 0.70565 0.0
C1035 C 0.73132 0.2927 0.69001 0.0
H1036 H 0.70362 0.35734 0.70899 0.0
H1037 H 0.82176 0.14384 0.56586 0.0
H1038 H 0.36745 0.64725 0.89257 0.0
H1039 H 0.32894 0.69064 0.90459 0.0
H1040 H 0.27885 0.70131 0.83304 0.0
H1041 H 0.31774 0.65913 0.82105 0.0
H1042 H 0.3167 0.74686 0.84712 0.0
H1043 H 0.20885 0.68035 0.88102 0.0
H1044 H 0.18657 0.64226 0.90768 0.0
H1045 H 0.22837 0.69024 0.96807 0.0
H1046 H 0.2514 0.7285 0.94171 0.0
H1047 H 0.11374 0.8212 0.83972 0.0
H1048 H 0.15963 0.7806 0.84949 0.0
H1049 H 0.22867 0.8257 0.90508 0.0
H1050 H 0.18286 0.86708 0.89522 0.0
H1051 H 0.19473 0.75759 0.90856 0.0
H1052 H 0.29528 0.827 0.87084 0.0
H1053 H 0.30693 0.86391 0.84129 0.0
H1054 H 0.27092 0.80779 0.78527 0.0
H1055 H 0.25834 0.7707 0.81454 0.0
C1056 C 0.34777 0.65883 0.87959 0.0
C1057 C 0.34607 0.65001 0.85582 0.0
C1058 C 0.32582 0.68359 0.88643 0.0
C1059 C 0.30131 0.69947 0.86965 0.0
C1060 C 0.29813 0.6898 0.84625 0.0
C1061 C 0.32035 0.66557 0.83942 0.0
C1062 C 0.27986 0.72665 0.87552 0.0
C1063 C 0.29049 0.74917 0.86081 0.0
C1064 C 0.24618 0.73008 0.89362 0.0
C1065 C 0.23243 0.7071 0.9094 0.0
C1066 C 0.21366 0.68266 0.89997 0.0
C1067 C 0.20082 0.66107 0.91503 0.0
C1068 C 0.20622 0.66379 0.93955 0.0
C1069 C 0.22433 0.68814 0.94907 0.0
C1070 C 0.23727 0.70978 0.93409 0.0
C1071 C 0.13804 0.82253 0.85433 0.0
C1072 C 0.14513 0.8476 0.86643 0.0
C1073 C 0.16399 0.79917 0.85999 0.0
C1074 C 0.19753 0.80022 0.87792 0.0
C1075 C 0.20266 0.82452 0.89126 0.0
C1076 C 0.17656 0.84812 0.88556 0.0
C1077 C 0.23102 0.77711 0.87976 0.0
C1078 C 0.22242 0.75544 0.89566 0.0
C1079 C 0.26629 0.77417 0.86255 0.0
C1080 C 0.2756 0.79616 0.84489 0.0
C1081 C 0.28964 0.82259 0.85223 0.0
C1082 C 0.29642 0.84354 0.83554 0.0
C1083 C 0.28953 0.83822 0.81143 0.0
C1084 C 0.2762 0.81189 0.80395 0.0
C1085 C 0.26931 0.7909 0.82058 0.0
H1086 H 0.29447 0.85448 0.79854 0.0
H1087 H 0.19624 0.64705 0.95118 0.0
loop_
_geom_bond_atom_site_label_1
_geom_bond_atom_site_label_2
_geom_bond_distance
_geom_bond_site_symmetry_2
_ccdc_geom_bond_type
Mn0 O5 2.095 . S
Mn0 O15 2.162 . S
Mn0 O16 2.297 . S
Mn0 O24 2.385 . S
Mn0 O25 2.209 . S
Mn0 O26 2.094 . S
Mn1 O6 2.121 . S
Mn1 N8 2.257 . S
Mn1 N17 2.282 . S
Mn1 O25 2.215 . S
Mn1 O27 2.117 . S
C2 O24 1.234 . S
C2 O25 1.283 . S
C3 O15 1.281 . S
C3 O16 1.236 . S
C4 O26 1.240 . S
C4 O27 1.264 . S
O5 Mn0 2.095 . S
O5 C14 1.250 . S
O6 Mn1 2.121 . S
O6 C14 1.258 . S
C7 N8 1.326 . S
C7 C11 1.460 . S
C7 H13 0.929 . S
N8 Mn1 2.257 . S
N8 C7 1.326 . S
N8 C12 1.362 . S
C9 C10 1.258 . S
C9 C12 1.431 . S
C9 C29 1.449 . S
C10 C9 1.258 . S
C10 C11 1.477 . S
C10 H30 0.931 . S
C11 C7 1.460 . S
C11 C10 1.477 . S
C11 H31 0.930 . S
C12 N8 1.362 . S
C12 C9 1.431 . S
C12 C22 1.476 . S
H13 C7 0.929 . S
C14 O5 1.250 . S
C14 O6 1.258 . S
O15 Mn0 2.162 . S
O15 C3 1.281 . S
O16 Mn0 2.297 . S
O16 C3 1.236 . S
N17 Mn1 2.282 . S
N17 C18 1.328 . S
N17 C22 1.318 . S
C18 N17 1.328 . S
C18 C19 1.457 . S
C18 H23 0.929 . S
C19 C18 1.457 . S
C19 C20 1.291 . S
C19 H32 0.931 . S
C20 C19 1.291 . S
C20 C21 1.373 . S
C20 H33 0.929 . S
C21 C20 1.373 . S
C21 C22 1.396 . S
C21 C28 1.403 . S
C22 C12 1.476 . S
C22 N17 1.318 . S
C22 C21 1.396 . S
H23 C18 0.929 . S
O24 Mn0 2.385 . S
O24 C2 1.234 . S
O25 Mn0 2.209 . S
O25 Mn1 2.215 . S
O25 C2 1.283 . S
O26 Mn0 2.094 . S
O26 C4 1.240 . S
O27 Mn1 2.117 . S
O27 C4 1.264 . S
C28 C21 1.403 . S
C28 C29 1.399 . S
C28 H34 0.929 . S
C29 C9 1.449 . S
C29 C28 1.399 . S
C29 H35 0.930 1_455 S
H30 C10 0.931 . S
H31 C11 0.930 . S
H32 C19 0.931 . S
H33 C20 0.929 . S
H34 C28 0.929 . S
H35 C29 0.930 1_655 S
Mn36 O41 2.095 . S
Mn36 O51 2.162 . S
Mn36 O52 2.297 . S
Mn36 O60 2.385 . S
Mn36 O61 2.209 . S
Mn36 O62 2.094 . S
Mn37 O42 2.121 . S
Mn37 N44 2.257 . S
Mn37 N53 2.282 . S
Mn37 O61 2.215 . S
Mn37 O63 2.117 . S
C38 O60 1.234 . S
C38 O61 1.283 . S
C39 O51 1.281 . S
C39 O52 1.236 . S
C40 O62 1.240 . S
C40 O63 1.264 . S
O41 Mn36 2.095 . S
O41 C50 1.250 . S
O42 Mn37 2.121 . S
O42 C50 1.258 . S
C43 N44 1.326 . S
C43 C47 1.460 . S
C43 H49 0.929 . S
N44 Mn37 2.257 . S
N44 C43 1.326 . S
N44 C48 1.362 . S
C45 C46 1.258 . S
C45 C48 1.431 . S
C45 C65 1.449 . S
C46 C45 1.258 . S
C46 C47 1.477 . S
C46 H66 0.931 . S
C47 C43 1.460 . S
C47 C46 1.477 . S
C47 H67 0.930 . S
C48 N44 1.362 . S
C48 C45 1.431 . S
C48 C58 1.476 . S
H49 C43 0.929 . S
C50 O41 1.250 . S
C50 O42 1.258 . S
O51 Mn36 2.162 . S
O51 C39 1.281 . S
O52 Mn36 2.297 . S
O52 C39 1.236 . S
N53 Mn37 2.282 . S
N53 C54 1.328 . S
N53 C58 1.318 . S
C54 N53 1.328 . S
C54 C55 1.457 . S
C54 H59 0.929 . S
C55 C54 1.457 . S
C55 C56 1.291 . S
C55 H68 0.931 1_565 S
C56 C55 1.291 . S
C56 C57 1.373 . S
C56 H69 0.929 . S
C57 C56 1.373 . S
C57 C58 1.396 . S
C57 C64 1.403 . S
C58 C48 1.476 . S
C58 N53 1.318 . S
C58 C57 1.396 . S
H59 C54 0.929 . S
O60 Mn36 2.385 . S
O60 C38 1.234 . S
O61 Mn36 2.209 . S
O61 Mn37 2.215 . S
O61 C38 1.283 . S
O62 Mn36 2.094 . S
O62 C40 1.240 . S
O63 Mn37 2.117 . S
O63 C40 1.264 . S
C64 C57 1.403 . S
C64 C65 1.399 . S
C64 H70 0.929 . S
C65 C45 1.449 . S
C65 C64 1.399 . S
C65 H71 0.930 . S
H66 C46 0.931 . S
H67 C47 0.930 . S
H68 C55 0.931 1_545 S
H69 C56 0.929 . S
H70 C64 0.929 . S
H71 C65 0.930 . S
Mn72 O77 2.095 . S
Mn72 O87 2.162 . S
Mn72 O88 2.297 . S
Mn72 O96 2.385 . S
Mn72 O97 2.209 . S
Mn72 O98 2.094 . S
Mn73 O78 2.121 . S
Mn73 N80 2.257 . S
Mn73 N89 2.282 . S
Mn73 O97 2.215 . S
Mn73 O99 2.117 . S
C74 O96 1.234 . S
C74 O97 1.283 . S
C75 O87 1.281 . S
C75 O88 1.236 . S
C76 O98 1.240 . S
C76 O99 1.264 . S
O77 Mn72 2.095 . S
O77 C86 1.250 . S
O78 Mn73 2.121 . S
O78 C86 1.258 . S
C79 N80 1.326 . S
C79 C83 1.460 . S
C79 H85 0.929 . S
N80 Mn73 2.257 . S
N80 C79 1.326 . S
N80 C84 1.362 . S
C81 C82 1.258 . S
C81 C84 1.431 . S
C81 C101 1.449 . S
C82 C81 1.258 . S
C82 C83 1.477 . S
C82 H102 0.931 . S
C83 C79 1.460 . S
C83 C82 1.477 . S
C83 H103 0.930 . S
C84 N80 1.362 . S
C84 C81 1.431 . S
C84 C94 1.476 . S
H85 C79 0.929 . S
C86 O77 1.250 . S
C86 O78 1.258 . S
O87 Mn72 2.162 . S
O87 C75 1.281 . S
O88 Mn72 2.297 . S
O88 C75 1.236 . S
N89 Mn73 2.282 . S
N89 C90 1.328 . S
N89 C94 1.318 . S
C90 N89 1.328 . S
C90 C91 1.457 . S
C90 H95 0.929 . S
C91 C90 1.457 . S
C91 C92 1.291 . S
C91 H104 0.931 . S
C92 C91 1.291 . S
C92 C93 1.373 . S
C92 H105 0.929 . S
C93 C92 1.373 . S
C93 C94 1.396 . S
C93 C100 1.403 . S
C94 C84 1.476 . S
C94 N89 1.318 . S
C94 C93 1.396 . S
H95 C90 0.929 . S
O96 Mn72 2.385 . S
O96 C74 1.234 . S
O97 Mn72 2.209 . S
O97 Mn73 2.215 . S
O97 C74 1.283 . S
O98 Mn72 2.094 . S
O98 C76 1.240 . S
O99 Mn73 2.117 . S
O99 C76 1.264 . S
C100 C93 1.403 . S
C100 C101 1.399 . S
C100 H106 0.929 . S
C101 C81 1.449 . S
C101 C100 1.399 . S
C101 H107 0.930 . S
H102 C82 0.931 . S
H103 C83 0.930 . S
H104 C91 0.931 . S
H105 C92 0.929 . S
H106 C100 0.929 . S
H107 C101 0.930 . S
Mn108 O113 2.095 . S
Mn108 O123 2.162 . S
Mn108 O124 2.297 . S
Mn108 O132 2.385 . S
Mn108 O133 2.209 . S
Mn108 O134 2.094 . S
Mn109 O114 2.121 . S
Mn109 N116 2.257 . S
Mn109 N125 2.282 . S
Mn109 O133 2.215 . S
Mn109 O135 2.117 . S
C110 O132 1.234 . S
C110 O133 1.283 . S
C111 O123 1.281 . S
C111 O124 1.236 . S
C112 O134 1.240 . S
C112 O135 1.264 . S
O113 Mn108 2.095 . S
O113 C122 1.250 . S
O114 Mn109 2.121 . S
O114 C122 1.258 . S
C115 N116 1.326 . S
C115 C119 1.460 . S
C115 H121 0.929 . S
N116 Mn109 2.257 . S
N116 C115 1.326 . S
N116 C120 1.362 . S
C117 C118 1.258 . S
C117 C120 1.431 . S
C117 C137 1.449 . S
C118 C117 1.258 . S
C118 C119 1.477 . S
C118 H138 0.931 . S
C119 C115 1.460 . S
C119 C118 1.477 . S
C119 H139 0.930 . S
C120 N116 1.362 . S
C120 C117 1.431 . S
C120 C130 1.476 . S
H121 C115 0.929 . S
C122 O113 1.250 . S
C122 O114 1.258 . S
O123 Mn108 2.162 . S
O123 C111 1.281 . S
O124 Mn108 2.297 . S
O124 C111 1.236 . S
N125 Mn109 2.282 . S
N125 C126 1.328 . S
N125 C130 1.318 . S
C126 N125 1.328 . S
C126 C127 1.457 . S
C126 H131 0.929 . S
C127 C126 1.457 . S
C127 C128 1.291 . S
C127 H140 0.931 1_545 S
C128 C127 1.291 . S
C128 C129 1.373 . S
C128 H141 0.929 . S
C129 C128 1.373 . S
C129 C130 1.396 . S
C129 C136 1.403 . S
C130 C120 1.476 . S
C130 N125 1.318 . S
C130 C129 1.396 . S
H131 C126 0.929 . S
O132 Mn108 2.385 . S
O132 C110 1.234 . S
O133 Mn108 2.209 . S
O133 Mn109 2.215 . S
O133 C110 1.283 . S
O134 Mn108 2.094 . S
O134 C112 1.240 . S
O135 Mn109 2.117 . S
O135 C112 1.264 . S
C136 C129 1.403 . S
C136 C137 1.399 . S
C136 H142 0.929 . S
C137 C117 1.449 . S
C137 C136 1.399 . S
C137 H143 0.930 1_655 S
H138 C118 0.931 . S
H139 C119 0.930 . S
H140 C127 0.931 1_565 S
H141 C128 0.929 . S
H142 C136 0.929 . S
H143 C137 0.930 1_455 S
Mn144 O149 2.095 . S
Mn144 O159 2.162 . S
Mn144 O160 2.297 . S
Mn144 O168 2.385 . S
Mn144 O169 2.209 . S
Mn144 O170 2.094 . S
Mn145 O150 2.121 . S
Mn145 N152 2.257 . S
Mn145 N161 2.282 . S
Mn145 O169 2.215 . S
Mn145 O171 2.117 . S
C146 O168 1.234 . S
C146 O169 1.283 . S
C147 O159 1.281 . S
C147 O160 1.236 . S
C148 O170 1.240 . S
C148 O171 1.264 . S
O149 Mn144 2.095 . S
O149 C158 1.250 . S
O150 Mn145 2.121 . S
O150 C158 1.258 . S
C151 N152 1.326 . S
C151 C155 1.460 . S
C151 H157 0.929 . S
N152 Mn145 2.257 . S
N152 C151 1.326 . S
N152 C156 1.362 . S
C153 C154 1.258 . S
C153 C156 1.431 . S
C153 C173 1.449 . S
C154 C153 1.258 . S
C154 C155 1.477 . S
C154 H174 0.931 . S
C155 C151 1.460 . S
C155 C154 1.477 . S
C155 H175 0.930 . S
C156 N152 1.362 . S
C156 C153 1.431 . S
C156 C166 1.476 . S
H157 C151 0.929 . S
C158 O149 1.250 . S
C158 O150 1.258 . S
O159 Mn144 2.162 . S
O159 C147 1.281 . S
O160 Mn144 2.297 . S
O160 C147 1.236 . S
N161 Mn145 2.282 . S
N161 C162 1.328 . S
N161 C166 1.318 . S
C162 N161 1.328 . S
C162 C163 1.457 . S
C162 H167 0.929 . S
C163 C162 1.457 . S
C163 C164 1.291 . S
C163 H176 0.931 . S
C164 C163 1.291 . S
C164 C165 1.373 . S
C164 H177 0.929 . S
C165 C164 1.373 . S
C165 C166 1.396 . S
C165 C172 1.403 . S
C166 C156 1.476 . S
C166 N161 1.318 . S
C166 C165 1.396 . S
H167 C162 0.929 . S
O168 Mn144 2.385 . S
O168 C146 1.234 . S
O169 Mn144 2.209 . S
O169 Mn145 2.215 . S
O169 C146 1.283 . S
O170 Mn144 2.094 . S
O170 C148 1.240 . S
O171 Mn145 2.117 . S
O171 C148 1.264 . S
C172 C165 1.403 . S
C172 C173 1.399 . S
C172 H178 0.929 . S
C173 C153 1.449 . S
C173 C172 1.399 . S
C173 H179 0.930 1_655 S
H174 C154 0.931 . S
H175 C155 0.930 . S
H176 C163 0.931 . S
H177 C164 0.929 . S
H178 C172 0.929 . S
H179 C173 0.930 1_455 S
Mn180 O185 2.095 . S
Mn180 O195 2.162 . S
Mn180 O196 2.297 . S
Mn180 O204 2.385 . S
Mn180 O205 2.209 . S
Mn180 O206 2.094 . S
Mn181 O186 2.121 . S
Mn181 N188 2.257 . S
Mn181 N197 2.282 . S
Mn181 O205 2.215 . S
Mn181 O207 2.117 . S
C182 O204 1.234 . S
C182 O205 1.283 . S
C183 O195 1.281 . S
C183 O196 1.236 . S
C184 O206 1.240 . S
C184 O207 1.264 . S
O185 Mn180 2.095 . S
O185 C194 1.250 . S
O186 Mn181 2.121 . S
O186 C194 1.258 . S
C187 N188 1.326 . S
C187 C191 1.460 . S
C187 H193 0.929 . S
N188 Mn181 2.257 . S
N188 C187 1.326 . S
N188 C192 1.362 . S
C189 C190 1.258 . S
C189 C192 1.431 . S
C189 C209 1.449 . S
C190 C189 1.258 . S
C190 C191 1.477 . S
C190 H210 0.931 . S
C191 C187 1.460 . S
C191 C190 1.477 . S
C191 H211 0.930 . S
C192 N188 1.362 . S
C192 C189 1.431 . S
C192 C202 1.476 . S
H193 C187 0.929 . S
C194 O185 1.250 . S
C194 O186 1.258 . S
O195 Mn180 2.162 . S
O195 C183 1.281 . S
O196 Mn180 2.297 . S
O196 C183 1.236 . S
N197 Mn181 2.282 . S
N197 C198 1.328 . S
N197 C202 1.318 . S
C198 N197 1.328 . S
C198 C199 1.457 . S
C198 H203 0.929 . S
C199 C198 1.457 . S
C199 C200 1.291 . S
C199 H212 0.931 1_545 S
C200 C199 1.291 . S
C200 C201 1.373 . S
C200 H213 0.929 . S
C201 C200 1.373 . S
C201 C202 1.396 . S
C201 C208 1.403 . S
C202 C192 1.476 . S
C202 N197 1.318 . S
C202 C201 1.396 . S
H203 C198 0.929 . S
O204 Mn180 2.385 . S
O204 C182 1.234 . S
O205 Mn180 2.209 . S
O205 Mn181 2.215 . S
O205 C182 1.283 . S
O206 Mn180 2.094 . S
O206 C184 1.240 . S
O207 Mn181 2.117 . S
O207 C184 1.264 . S
C208 C201 1.403 . S
C208 C209 1.399 . S
C208 H214 0.929 . S
C209 C189 1.449 . S
C209 C208 1.399 . S
C209 H215 0.930 . S
H210 C190 0.931 . S
H211 C191 0.930 . S
H212 C199 0.931 1_565 S
H213 C200 0.929 . S
H214 C208 0.929 . S
H215 C209 0.930 . S
Mn216 O221 2.095 . S
Mn216 O231 2.162 . S
Mn216 O232 2.297 . S
Mn216 O240 2.385 . S
Mn216 O241 2.209 . S
Mn216 O242 2.094 . S
Mn217 O222 2.121 . S
Mn217 N224 2.257 . S
Mn217 N233 2.282 . S
Mn217 O241 2.215 . S
Mn217 O243 2.117 . S
C218 O240 1.234 . S
C218 O241 1.283 . S
C219 O231 1.281 . S
C219 O232 1.236 . S
C220 O242 1.240 . S
C220 O243 1.264 . S
O221 Mn216 2.095 . S
O221 C230 1.250 . S
O222 Mn217 2.121 . S
O222 C230 1.258 . S
C223 N224 1.326 . S
C223 C227 1.460 . S
C223 H229 0.929 . S
N224 Mn217 2.257 . S
N224 C223 1.326 . S
N224 C228 1.362 . S
C225 C226 1.258 . S
C225 C228 1.431 . S
C225 C245 1.449 . S
C226 C225 1.258 . S
C226 C227 1.477 . S
C226 H246 0.931 . S
C227 C223 1.460 . S
C227 C226 1.477 . S
C227 H247 0.930 . S
C228 N224 1.362 . S
C228 C225 1.431 . S
C228 C238 1.476 . S
H229 C223 0.929 . S
C230 O221 1.250 . S
C230 O222 1.258 . S
O231 Mn216 2.162 . S
O231 C219 1.281 . S
O232 Mn216 2.297 . S
O232 C219 1.236 . S
N233 Mn217 2.282 . S
N233 C234 1.328 . S
N233 C238 1.318 . S
C234 N233 1.328 . S
C234 C235 1.457 . S
C234 H239 0.929 . S
C235 C234 1.457 . S
C235 C236 1.291 . S
C235 H248 0.931 . S
C236 C235 1.291 . S
C236 C237 1.373 . S
C236 H249 0.929 . S
C237 C236 1.373 . S
C237 C238 1.396 . S
C237 C244 1.403 . S
C238 C228 1.476 . S
C238 N233 1.318 . S
C238 C237 1.396 . S
H239 C234 0.929 . S
O240 Mn216 2.385 . S
O240 C218 1.234 . S
O241 Mn216 2.209 . S
O241 Mn217 2.215 . S
O241 C218 1.283 . S
O242 Mn216 2.094 . S
O242 C220 1.240 . S
O243 Mn217 2.117 . S
O243 C220 1.264 . S
C244 C237 1.403 . S
C244 C245 1.399 . S
C244 H250 0.929 . S
C245 C225 1.449 . S
C245 C244 1.399 . S
C245 H251 0.930 . S
H246 C226 0.931 . S
H247 C227 0.930 . S
H248 C235 0.931 . S
H249 C236 0.929 . S
H250 C244 0.929 . S
H251 C245 0.930 . S
Mn252 O257 2.095 . S
Mn252 O267 2.162 . S
Mn252 O268 2.297 . S
Mn252 O276 2.385 . S
Mn252 O277 2.209 . S
Mn252 O278 2.094 . S
Mn253 O258 2.121 . S
Mn253 N260 2.257 . S
Mn253 N269 2.282 . S
Mn253 O277 2.215 . S
Mn253 O279 2.117 . S
C254 O276 1.234 . S
C254 O277 1.283 . S
C255 O267 1.281 . S
C255 O268 1.236 . S
C256 O278 1.240 . S
C256 O279 1.264 . S
O257 Mn252 2.095 . S
O257 C266 1.250 . S
O258 Mn253 2.121 . S
O258 C266 1.258 . S
C259 N260 1.326 . S
C259 C263 1.460 . S
C259 H265 0.929 . S
N260 Mn253 2.257 . S
N260 C259 1.326 . S
N260 C264 1.362 . S
C261 C262 1.258 . S
C261 C264 1.431 . S
C261 C281 1.449 . S
C262 C261 1.258 . S
C262 C263 1.477 . S
C262 H282 0.931 . S
C263 C259 1.460 . S
C263 C262 1.477 . S
C263 H283 0.930 . S
C264 N260 1.362 . S
C264 C261 1.431 . S
C264 C274 1.476 . S
H265 C259 0.929 . S
C266 O257 1.250 . S
C266 O258 1.258 . S
O267 Mn252 2.162 . S
O267 C255 1.281 . S
O268 Mn252 2.297 . S
O268 C255 1.236 . S
N269 Mn253 2.282 . S
N269 C270 1.328 . S
N269 C274 1.318 . S
C270 N269 1.328 . S
C270 C271 1.457 . S
C270 H275 0.929 . S
C271 C270 1.457 . S
C271 C272 1.291 . S
C271 H284 0.931 1_565 S
C272 C271 1.291 . S
C272 C273 1.373 . S
C272 H285 0.929 . S
C273 C272 1.373 . S
C273 C274 1.396 . S
C273 C280 1.403 . S
C274 C264 1.476 . S
C274 N269 1.318 . S
C274 C273 1.396 . S
H275 C270 0.929 . S
O276 Mn252 2.385 . S
O276 C254 1.234 . S
O277 Mn252 2.209 . S
O277 Mn253 2.215 . S
O277 C254 1.283 . S
O278 Mn252 2.094 . S
O278 C256 1.240 . S
O279 Mn253 2.117 . S
O279 C256 1.264 . S
C280 C273 1.403 . S
C280 C281 1.399 . S
C280 H286 0.929 . S
C281 C261 1.449 . S
C281 C280 1.399 . S
C281 H287 0.930 1_455 S
H282 C262 0.931 . S
H283 C263 0.930 . S
H284 C271 0.931 1_545 S
H285 C272 0.929 . S
H286 C280 0.929 . S
H287 C281 0.930 1_655 S
H288 C306 0.951 . S
H289 C308 0.951 . S
H290 C310 0.950 . S
H291 C311 0.950 . S
H292 C313 0.950 . S
H293 C316 0.950 . S
H294 C317 0.950 . S
H295 C319 0.950 . S
H296 C320 0.950 . S
H297 C321 0.951 . S
H298 C323 0.951 . S
H299 C325 0.950 . S
H300 C326 0.950 . S
H301 C328 0.950 . S
H302 C331 0.950 . S
H303 C332 0.950 . S
H304 C334 0.950 . S
H305 C335 0.950 . S
C306 H288 0.951 . S
C306 C307 1.366 . S
C306 C308 1.388 . S
C307 C306 1.366 . S
C307 C311 1.385 . S
C308 H289 0.951 . S
C308 C306 1.388 . S
C308 C309 1.366 . S
C309 C308 1.366 . S
C309 C310 1.414 . S
C309 C312 1.499 . S
C310 H290 0.950 . S
C310 C309 1.414 . S
C310 C311 1.374 . S
C311 H291 0.950 . S
C311 C307 1.385 . S
C311 C310 1.374 . S
C312 C309 1.499 . S
C312 C313 1.373 . S
C312 C314 1.389 . S
C313 H292 0.950 . S
C313 C312 1.373 . S
C313 C329 1.377 . S
C314 C312 1.389 . S
C314 C315 1.524 . S
C314 C328 1.377 . S
C315 C314 1.524 . S
C315 C316 1.397 . S
C315 C320 1.363 . S
C316 H293 0.950 . S
C316 C315 1.397 . S
C316 C317 1.334 . S
C317 H294 0.950 . S
C317 C316 1.334 . S
C317 C318 1.287 . S
C318 C317 1.287 . S
C318 C319 1.524 . S
C318 H337 0.913 . S
C319 H295 0.950 . S
C319 C318 1.524 . S
C319 C320 1.415 . S
C320 H296 0.950 . S
C320 C315 1.363 . S
C320 C319 1.415 . S
C321 H297 0.951 . S
C321 C322 1.366 . S
C321 C323 1.388 . S
C322 C321 1.366 . S
C322 C326 1.385 . S
C323 H298 0.951 . S
C323 C321 1.388 . S
C323 C324 1.366 . S
C324 C323 1.366 . S
C324 C325 1.414 . S
C324 C327 1.499 . S
C325 H299 0.950 . S
C325 C324 1.414 . S
C325 C326 1.374 . S
C326 H300 0.950 . S
C326 C322 1.385 . S
C326 C325 1.374 . S
C327 C324 1.499 . S
C327 C328 1.373 . S
C327 C329 1.389 . S
C328 H301 0.950 . S
C328 C314 1.377 . S
C328 C327 1.373 . S
C329 C313 1.377 . S
C329 C327 1.389 . S
C329 C330 1.524 . S
C330 C329 1.524 . S
C330 C331 1.397 . S
C330 C335 1.363 . S
C331 H302 0.950 . S
C331 C330 1.397 . S
C331 C332 1.334 . S
C332 H303 0.950 . S
C332 C331 1.334 . S
C332 C333 1.287 . S
C333 C332 1.287 . S
C333 C334 1.524 . S
C333 H336 0.999 . S
C334 H304 0.950 . S
C334 C333 1.524 . S
C334 C335 1.415 . S
C335 H305 0.950 . S
C335 C330 1.363 . S
C335 C334 1.415 . S
H336 C333 0.999 . S
H337 C318 0.913 . S
H338 C356 0.951 1_565 S
H339 C358 0.951 1_565 S
H340 C360 0.950 . S
H341 C361 0.950 . S
H342 C363 0.950 . S
H343 C366 0.950 1_545 S
H344 C367 0.950 . S
H345 C369 0.950 . S
H346 C370 0.950 . S
H347 C371 0.951 1_545 S
H348 C373 0.951 . S
H349 C375 0.950 . S
H350 C376 0.950 . S
H351 C378 0.950 . S
H352 C381 0.950 1_565 S
H353 C382 0.950 . S
H354 C384 0.950 . S
H355 C385 0.950 . S
C356 H338 0.951 1_545 S
C356 C357 1.366 . S
C356 C358 1.388 1_655 S
C357 C356 1.366 . S
C357 C361 1.385 . S
C358 H339 0.951 1_545 S
C358 C356 1.388 1_455 S
C358 C359 1.366 . S
C359 C358 1.366 . S
C359 C360 1.414 . S
C359 C362 1.499 . S
C360 H340 0.950 . S
C360 C359 1.414 . S
C360 C361 1.374 1_455 S
C361 H341 0.950 . S
C361 C357 1.385 . S
C361 C360 1.374 1_655 S
C362 C359 1.499 . S
C362 C363 1.373 . S
C362 C364 1.389 1_545 S
C363 H342 0.950 . S
C363 C362 1.373 . S
C363 C379 1.377 . S
C364 C362 1.389 1_565 S
C364 C365 1.524 . S
C364 C378 1.377 . S
C365 C364 1.524 . S
C365 C366 1.397 1_455 S
C365 C370 1.363 . S
C366 H343 0.950 1_565 S
C366 C365 1.397 1_655 S
C366 C367 1.334 . S
C367 H344 0.950 . S
C367 C366 1.334 . S
C367 C368 1.287 . S
C368 C367 1.287 . S
C368 C369 1.524 . S
C368 H387 0.913 . S
C369 H345 0.950 . S
C369 C368 1.524 . S
C369 C370 1.415 1_655 S
C370 H346 0.950 . S
C370 C365 1.363 . S
C370 C369 1.415 1_455 S
C371 H347 0.951 1_565 S
C371 C372 1.366 . S
C371 C373 1.388 1_565 S
C372 C371 1.366 . S
C372 C376 1.385 . S
C373 H348 0.951 . S
C373 C371 1.388 1_545 S
C373 C374 1.366 1_545 S
C374 C373 1.366 1_565 S
C374 C375 1.414 . S
C374 C377 1.499 . S
C375 H349 0.950 . S
C375 C374 1.414 . S
C375 C376 1.374 . S
C376 H350 0.950 . S
C376 C372 1.385 . S
C376 C375 1.374 . S
C377 C374 1.499 . S
C377 C378 1.373 . S
C377 C379 1.389 1_565 S
C378 H351 0.950 . S
C378 C364 1.377 . S
C378 C377 1.373 . S
C379 C363 1.377 . S
C379 C377 1.389 1_545 S
C379 C380 1.524 . S
C380 C379 1.524 . S
C380 C381 1.397 . S
C380 C385 1.363 . S
C381 H352 0.950 1_545 S
C381 C380 1.397 . S
C381 C382 1.334 . S
C382 H353 0.950 . S
C382 C381 1.334 . S
C382 C383 1.287 . S
C383 C382 1.287 . S
C383 C384 1.524 . S
C383 H386 0.999 . S
C384 H354 0.950 . S
C384 C383 1.524 . S
C384 C385 1.415 . S
C385 H355 0.950 . S
C385 C380 1.363 . S
C385 C384 1.415 . S
H386 C383 0.999 . S
H387 C368 0.913 . S
H388 C406 0.951 . S
H389 C408 0.951 . S
H390 C410 0.950 . S
H391 C411 0.950 . S
H392 C413 0.950 . S
H393 C416 0.950 . S
H394 C417 0.950 . S
H395 C419 0.950 . S
H396 C420 0.950 . S
H397 C421 0.951 . S
H398 C423 0.951 . S
H399 C425 0.950 . S
H400 C426 0.950 . S
H401 C428 0.950 . S
H402 C431 0.950 . S
H403 C432 0.950 . S
H404 C434 0.950 . S
H405 C435 0.950 . S
C406 H388 0.951 . S
C406 C407 1.366 . S
C406 C408 1.388 . S
C407 C406 1.366 . S
C407 C411 1.385 . S
C408 H389 0.951 . S
C408 C406 1.388 . S
C408 C409 1.366 . S
C409 C408 1.366 . S
C409 C410 1.414 . S
C409 C412 1.499 . S
C410 H390 0.950 . S
C410 C409 1.414 . S
C410 C411 1.374 . S
C411 H391 0.950 . S
C411 C407 1.385 . S
C411 C410 1.374 . S
C412 C409 1.499 . S
C412 C413 1.373 . S
C412 C414 1.389 . S
C413 H392 0.950 . S
C413 C412 1.373 . S
C413 C429 1.377 . S
C414 C412 1.389 . S
C414 C415 1.524 . S
C414 C428 1.377 . S
C415 C414 1.524 . S
C415 C416 1.397 . S
C415 C420 1.363 . S
C416 H393 0.950 . S
C416 C415 1.397 . S
C416 C417 1.334 . S
C417 H394 0.950 . S
C417 C416 1.334 . S
C417 C418 1.287 . S
C418 C417 1.287 . S
C418 C419 1.524 . S
C418 H437 0.913 . S
C419 H395 0.950 . S
C419 C418 1.524 . S
C419 C420 1.415 . S
C420 H396 0.950 . S
C420 C415 1.363 . S
C420 C419 1.415 . S
C421 H397 0.951 . S
C421 C422 1.366 . S
C421 C423 1.388 1_455 S
C422 C421 1.366 . S
C422 C426 1.385 . S
C423 H398 0.951 . S
C423 C421 1.388 1_655 S
C423 C424 1.366 . S
C424 C423 1.366 . S
C424 C425 1.414 . S
C424 C427 1.499 . S
C425 H399 0.950 . S
C425 C424 1.414 . S
C425 C426 1.374 1_655 S
C426 H400 0.950 . S
C426 C422 1.385 . S
C426 C425 1.374 1_455 S
C427 C424 1.499 . S
C427 C428 1.373 . S
C427 C429 1.389 . S
C428 H401 0.950 . S
C428 C414 1.377 . S
C428 C427 1.373 . S
C429 C413 1.377 . S
C429 C427 1.389 . S
C429 C430 1.524 . S
C430 C429 1.524 . S
C430 C431 1.397 1_655 S
C430 C435 1.363 . S
C431 H402 0.950 . S
C431 C430 1.397 1_455 S
C431 C432 1.334 . S
C432 H403 0.950 . S
C432 C431 1.334 . S
C432 C433 1.287 . S
C433 C432 1.287 . S
C433 C434 1.524 . S
C433 H436 0.999 . S
C434 H404 0.950 . S
C434 C433 1.524 . S
C434 C435 1.415 1_455 S
C435 H405 0.950 . S
C435 C430 1.363 . S
C435 C434 1.415 1_655 S
H436 C433 0.999 . S
H437 C418 0.913 . S
H438 C456 0.951 . S
H439 C458 0.951 . S
H440 C460 0.950 1_565 S
H441 C461 0.950 . S
H442 C463 0.950 . S
H443 C466 0.950 . S
H444 C467 0.950 . S
H445 C469 0.950 . S
H446 C470 0.950 . S
H447 C471 0.951 . S
H448 C473 0.951 . S
H449 C475 0.950 . S
H450 C476 0.950 . S
H451 C478 0.950 . S
H452 C481 0.950 . S
H453 C482 0.950 . S
H454 C484 0.950 . S
H455 C485 0.950 . S
C456 H438 0.951 . S
C456 C457 1.366 . S
C456 C458 1.388 . S
C457 C456 1.366 . S
C457 C461 1.385 . S
C458 H439 0.951 . S
C458 C456 1.388 . S
C458 C459 1.366 . S
C459 C458 1.366 . S
C459 C460 1.414 . S
C459 C462 1.499 . S
C460 H440 0.950 1_545 S
C460 C459 1.414 . S
C460 C461 1.374 . S
C461 H441 0.950 . S
C461 C457 1.385 . S
C461 C460 1.374 . S
C462 C459 1.499 . S
C462 C463 1.373 1_545 S
C462 C464 1.389 . S
C463 H442 0.950 . S
C463 C462 1.373 1_565 S
C463 C479 1.377 . S
C464 C462 1.389 . S
C464 C465 1.524 . S
C464 C478 1.377 . S
C465 C464 1.524 . S
C465 C466 1.397 . S
C465 C470 1.363 . S
C466 H443 0.950 . S
C466 C465 1.397 . S
C466 C467 1.334 . S
C467 H444 0.950 . S
C467 C466 1.334 . S
C467 C468 1.287 . S
C468 C467 1.287 . S
C468 C469 1.524 . S
C468 H487 0.913 . S
C469 H445 0.950 . S
C469 C468 1.524 . S
C469 C470 1.415 . S
C470 H446 0.950 . S
C470 C465 1.363 . S
C470 C469 1.415 . S
C471 H447 0.951 . S
C471 C472 1.366 . S
C471 C473 1.388 . S
C472 C471 1.366 . S
C472 C476 1.385 . S
C473 H448 0.951 . S
C473 C471 1.388 . S
C473 C474 1.366 . S
C474 C473 1.366 . S
C474 C475 1.414 . S
C474 C477 1.499 . S
C475 H449 0.950 . S
C475 C474 1.414 . S
C475 C476 1.374 . S
C476 H450 0.950 . S
C476 C472 1.385 . S
C476 C475 1.374 . S
C477 C474 1.499 . S
C477 C478 1.373 1_565 S
C477 C479 1.389 . S
C478 H451 0.950 . S
C478 C464 1.377 . S
C478 C477 1.373 1_545 S
C479 C463 1.377 . S
C479 C477 1.389 . S
C479 C480 1.524 . S
C480 C479 1.524 . S
C480 C481 1.397 . S
C480 C485 1.363 . S
C481 H452 0.950 . S
C481 C480 1.397 . S
C481 C482 1.334 . S
C482 H453 0.950 . S
C482 C481 1.334 . S
C482 C483 1.287 . S
C483 C482 1.287 . S
C483 C484 1.524 . S
C483 H486 0.999 . S
C484 H454 0.950 . S
C484 C483 1.524 . S
C484 C485 1.415 . S
C485 H455 0.950 . S
C485 C480 1.363 . S
C485 C484 1.415 . S
H486 C483 0.999 . S
H487 C468 0.913 . S
H488 C506 0.951 . S
H489 C508 0.951 . S
H490 C510 0.950 . S
H491 C511 0.950 . S
H492 C513 0.950 . S
H493 C516 0.950 . S
H494 C517 0.950 . S
H495 C519 0.950 . S
H496 C520 0.950 . S
H497 C521 0.951 . S
H498 C523 0.951 . S
H499 C525 0.950 . S
H500 C526 0.950 . S
H501 C528 0.950 . S
H502 C531 0.950 . S
H503 C532 0.950 . S
H504 C534 0.950 . S
H505 C535 0.950 . S
C506 H488 0.951 . S
C506 C507 1.366 . S
C506 C508 1.388 . S
C507 C506 1.366 . S
C507 C511 1.385 . S
C508 H489 0.951 . S
C508 C506 1.388 . S
C508 C509 1.366 . S
C509 C508 1.366 . S
C509 C510 1.414 . S
C509 C512 1.499 . S
C510 H490 0.950 . S
C510 C509 1.414 . S
C510 C511 1.374 . S
C511 H491 0.950 . S
C511 C507 1.385 . S
C511 C510 1.374 . S
C512 C509 1.499 . S
C512 C513 1.373 . S
C512 C514 1.389 . S
C513 H492 0.950 . S
C513 C512 1.373 . S
C513 C529 1.377 . S
C514 C512 1.389 . S
C514 C515 1.524 . S
C514 C528 1.377 . S
C515 C514 1.524 . S
C515 C516 1.397 . S
C515 C520 1.363 . S
C516 H493 0.950 . S
C516 C515 1.397 . S
C516 C517 1.334 . S
C517 H494 0.950 . S
C517 C516 1.334 . S
C517 C518 1.287 . S
C518 C517 1.287 . S
C518 C519 1.524 . S
C518 H537 0.913 . S
C519 H495 0.950 . S
C519 C518 1.524 . S
C519 C520 1.415 . S
C520 H496 0.950 . S
C520 C515 1.363 . S
C520 C519 1.415 . S
C521 H497 0.951 . S
C521 C522 1.366 . S
C521 C523 1.388 . S
C522 C521 1.366 . S
C522 C526 1.385 . S
C523 H498 0.951 . S
C523 C521 1.388 . S
C523 C524 1.366 . S
C524 C523 1.366 . S
C524 C525 1.414 . S
C524 C527 1.499 . S
C525 H499 0.950 . S
C525 C524 1.414 . S
C525 C526 1.374 . S
C526 H500 0.950 . S
C526 C522 1.385 . S
C526 C525 1.374 . S
C527 C524 1.499 . S
C527 C528 1.373 . S
C527 C529 1.389 . S
C528 H501 0.950 . S
C528 C514 1.377 . S
C528 C527 1.373 . S
C529 C513 1.377 . S
C529 C527 1.389 . S
C529 C530 1.524 . S
C530 C529 1.524 . S
C530 C531 1.397 . S
C530 C535 1.363 . S
C531 H502 0.950 . S
C531 C530 1.397 . S
C531 C532 1.334 . S
C532 H503 0.950 . S
C532 C531 1.334 . S
C532 C533 1.287 . S
C533 C532 1.287 . S
C533 C534 1.524 . S
C533 H536 0.999 . S
C534 H504 0.950 . S
C534 C533 1.524 . S
C534 C535 1.415 . S
C535 H505 0.950 . S
C535 C530 1.363 . S
C535 C534 1.415 . S
H536 C533 0.999 . S
H537 C518 0.913 . S
H538 C556 0.951 . S
H539 C558 0.951 1_565 S
H540 C560 0.950 . S
H541 C561 0.950 . S
H542 C563 0.950 . S
H543 C566 0.950 . S
H544 C567 0.950 . S
H545 C569 0.950 . S
H546 C570 0.950 . S
H547 C571 0.951 . S
H548 C573 0.951 1_545 S
H549 C575 0.950 . S
H550 C576 0.950 . S
H551 C578 0.950 . S
H552 C581 0.950 . S
H553 C582 0.950 . S
H554 C584 0.950 . S
H555 C585 0.950 . S
C556 H538 0.951 . S
C556 C557 1.366 . S
C556 C558 1.388 . S
C557 C556 1.366 . S
C557 C561 1.385 . S
C558 H539 0.951 1_545 S
C558 C556 1.388 . S
C558 C559 1.366 . S
C559 C558 1.366 . S
C559 C560 1.414 . S
C559 C562 1.499 . S
C560 H540 0.950 . S
C560 C559 1.414 . S
C560 C561 1.374 . S
C561 H541 0.950 . S
C561 C557 1.385 . S
C561 C560 1.374 . S
C562 C559 1.499 . S
C562 C563 1.373 . S
C562 C564 1.389 1_545 S
C563 H542 0.950 . S
C563 C562 1.373 . S
C563 C579 1.377 . S
C564 C562 1.389 1_565 S
C564 C565 1.524 . S
C564 C578 1.377 . S
C565 C564 1.524 . S
C565 C566 1.397 . S
C565 C570 1.363 . S
C566 H543 0.950 . S
C566 C565 1.397 . S
C566 C567 1.334 . S
C567 H544 0.950 . S
C567 C566 1.334 . S
C567 C568 1.287 . S
C568 C567 1.287 . S
C568 C569 1.524 . S
C568 H587 0.913 . S
C569 H545 0.950 . S
C569 C568 1.524 . S
C569 C570 1.415 . S
C570 H546 0.950 . S
C570 C565 1.363 . S
C570 C569 1.415 . S
C571 H547 0.951 . S
C571 C572 1.366 . S
C571 C573 1.388 1_455 S
C572 C571 1.366 . S
C572 C576 1.385 . S
C573 H548 0.951 1_565 S
C573 C571 1.388 1_655 S
C573 C574 1.366 . S
C574 C573 1.366 . S
C574 C575 1.414 1_655 S
C574 C577 1.499 . S
C575 H549 0.950 . S
C575 C574 1.414 1_455 S
C575 C576 1.374 . S
C576 H550 0.950 . S
C576 C572 1.385 . S
C576 C575 1.374 . S
C577 C574 1.499 . S
C577 C578 1.373 . S
C577 C579 1.389 1_565 S
C578 H551 0.950 . S
C578 C564 1.377 . S
C578 C577 1.373 . S
C579 C563 1.377 . S
C579 C577 1.389 1_545 S
C579 C580 1.524 . S
C580 C579 1.524 . S
C580 C581 1.397 1_655 S
C580 C585 1.363 . S
C581 H552 0.950 . S
C581 C580 1.397 1_455 S
C581 C582 1.334 . S
C582 H553 0.950 . S
C582 C581 1.334 . S
C582 C583 1.287 . S
C583 C582 1.287 . S
C583 C584 1.524 1_455 S
C583 H586 0.999 . S
C584 H554 0.950 . S
C584 C583 1.524 1_655 S
C584 C585 1.415 . S
C585 H555 0.950 . S
C585 C580 1.363 . S
C585 C584 1.415 . S
H586 C583 0.999 . S
H587 C568 0.913 . S
H588 C606 0.951 . S
H589 C608 0.951 . S
H590 C610 0.950 . S
H591 C611 0.950 . S
H592 C613 0.950 . S
H593 C616 0.950 . S
H594 C617 0.950 . S
H595 C619 0.950 . S
H596 C620 0.950 . S
H597 C621 0.951 1_455 S
H598 C623 0.951 . S
H599 C625 0.950 . S
H600 C626 0.950 . S
H601 C628 0.950 . S
H602 C631 0.950 . S
H603 C632 0.950 . S
H604 C634 0.950 . S
H605 C635 0.950 . S
C606 H588 0.951 . S
C606 C607 1.366 . S
C606 C608 1.388 . S
C607 C606 1.366 . S
C607 C611 1.385 . S
C608 H589 0.951 . S
C608 C606 1.388 . S
C608 C609 1.366 . S
C609 C608 1.366 . S
C609 C610 1.414 . S
C609 C612 1.499 . S
C610 H590 0.950 . S
C610 C609 1.414 . S
C610 C611 1.374 . S
C611 H591 0.950 . S
C611 C607 1.385 . S
C611 C610 1.374 . S
C612 C609 1.499 . S
C612 C613 1.373 . S
C612 C614 1.389 . S
C613 H592 0.950 . S
C613 C612 1.373 . S
C613 C629 1.377 . S
C614 C612 1.389 . S
C614 C615 1.524 . S
C614 C628 1.377 . S
C615 C614 1.524 . S
C615 C616 1.397 . S
C615 C620 1.363 . S
C616 H593 0.950 . S
C616 C615 1.397 . S
C616 C617 1.334 . S
C617 H594 0.950 . S
C617 C616 1.334 . S
C617 C618 1.287 . S
C618 C617 1.287 . S
C618 C619 1.524 . S
C618 H637 0.913 . S
C619 H595 0.950 . S
C619 C618 1.524 . S
C619 C620 1.415 . S
C620 H596 0.950 . S
C620 C615 1.363 . S
C620 C619 1.415 . S
C621 H597 0.951 1_655 S
C621 C622 1.366 . S
C621 C623 1.388 1_655 S
C622 C621 1.366 . S
C622 C626 1.385 . S
C623 H598 0.951 . S
C623 C621 1.388 1_455 S
C623 C624 1.366 . S
C624 C623 1.366 . S
C624 C625 1.414 1_455 S
C624 C627 1.499 . S
C625 H599 0.950 . S
C625 C624 1.414 1_655 S
C625 C626 1.374 . S
C626 H600 0.950 . S
C626 C622 1.385 . S
C626 C625 1.374 . S
C627 C624 1.499 . S
C627 C628 1.373 . S
C627 C629 1.389 . S
C628 H601 0.950 . S
C628 C614 1.377 . S
C628 C627 1.373 . S
C629 C613 1.377 . S
C629 C627 1.389 . S
C629 C630 1.524 . S
C630 C629 1.524 . S
C630 C631 1.397 . S
C630 C635 1.363 . S
C631 H602 0.950 . S
C631 C630 1.397 . S
C631 C632 1.334 . S
C632 H603 0.950 . S
C632 C631 1.334 . S
C632 C633 1.287 . S
C633 C632 1.287 . S
C633 C634 1.524 . S
C633 H636 0.999 . S
C634 H604 0.950 . S
C634 C633 1.524 . S
C634 C635 1.415 . S
C635 H605 0.950 . S
C635 C630 1.363 . S
C635 C634 1.415 . S
H636 C633 0.999 . S
H637 C618 0.913 . S
H638 C656 0.951 . S
H639 C658 0.951 . S
H640 C660 0.950 . S
H641 C661 0.950 . S
H642 C663 0.950 . S
H643 C666 0.950 . S
H644 C667 0.950 . S
H645 C669 0.950 . S
H646 C670 0.950 . S
H647 C671 0.951 . S
H648 C673 0.951 . S
H649 C675 0.950 . S
H650 C676 0.950 . S
H651 C678 0.950 . S
H652 C681 0.950 . S
H653 C682 0.950 . S
H654 C684 0.950 . S
H655 C685 0.950 . S
C656 H638 0.951 . S
C656 C657 1.366 . S
C656 C658 1.388 . S
C657 C656 1.366 . S
C657 C661 1.385 . S
C658 H639 0.951 . S
C658 C656 1.388 . S
C658 C659 1.366 . S
C659 C658 1.366 . S
C659 C660 1.414 . S
C659 C662 1.499 . S
C660 H640 0.950 . S
C660 C659 1.414 . S
C660 C661 1.374 . S
C661 H641 0.950 . S
C661 C657 1.385 . S
C661 C660 1.374 . S
C662 C659 1.499 . S
C662 C663 1.373 1_565 S
C662 C664 1.389 . S
C663 H642 0.950 . S
C663 C662 1.373 1_545 S
C663 C679 1.377 . S
C664 C662 1.389 . S
C664 C665 1.524 . S
C664 C678 1.377 . S
C665 C664 1.524 . S
C665 C666 1.397 . S
C665 C670 1.363 . S
C666 H643 0.950 . S
C666 C665 1.397 . S
C666 C667 1.334 . S
C667 H644 0.950 . S
C667 C666 1.334 . S
C667 C668 1.287 . S
C668 C667 1.287 . S
C668 C669 1.524 . S
C668 H687 0.913 . S
C669 H645 0.950 . S
C669 C668 1.524 . S
C669 C670 1.415 . S
C670 H646 0.950 . S
C670 C665 1.363 . S
C670 C669 1.415 . S
C671 H647 0.951 . S
C671 C672 1.366 . S
C671 C673 1.388 . S
C672 C671 1.366 . S
C672 C676 1.385 . S
C673 H648 0.951 . S
C673 C671 1.388 . S
C673 C674 1.366 . S
C674 C673 1.366 . S
C674 C675 1.414 . S
C674 C677 1.499 . S
C675 H649 0.950 . S
C675 C674 1.414 . S
C675 C676 1.374 . S
C676 H650 0.950 . S
C676 C672 1.385 . S
C676 C675 1.374 . S
C677 C674 1.499 . S
C677 C678 1.373 1_545 S
C677 C679 1.389 . S
C678 H651 0.950 . S
C678 C664 1.377 . S
C678 C677 1.373 1_565 S
C679 C663 1.377 . S
C679 C677 1.389 . S
C679 C680 1.524 . S
C680 C679 1.524 . S
C680 C681 1.397 . S
C680 C685 1.363 . S
C681 H652 0.950 . S
C681 C680 1.397 . S
C681 C682 1.334 . S
C682 H653 0.950 . S
C682 C681 1.334 . S
C682 C683 1.287 . S
C683 C682 1.287 . S
C683 C684 1.524 . S
C683 H686 0.999 . S
C684 H654 0.950 . S
C684 C683 1.524 . S
C684 C685 1.415 . S
C685 H655 0.950 . S
C685 C680 1.363 . S
C685 C684 1.415 . S
H686 C683 0.999 . S
H687 C668 0.913 . S
H688 C706 0.951 . S
H689 C708 0.951 1_655 S
H690 C710 0.950 . S
H691 C711 0.950 . S
H692 C713 0.950 . S
H693 C716 0.950 . S
H694 C717 0.950 . S
H695 C719 0.950 . S
H696 C720 0.950 . S
H697 C721 0.951 . S
H698 C723 0.951 1_455 S
H699 C725 0.950 . S
H700 C726 0.950 . S
H701 C728 0.950 . S
H702 C731 0.950 . S
H703 C732 0.950 . S
H704 C734 0.950 . S
H705 C735 0.950 . S
C706 H688 0.951 . S
C706 C707 1.366 . S
C706 C708 1.388 . S
C707 C706 1.366 . S
C707 C711 1.385 . S
C708 H689 0.951 1_455 S
C708 C706 1.388 . S
C708 C709 1.366 . S
C709 C708 1.366 . S
C709 C710 1.414 . S
C709 C712 1.499 . S
C710 H690 0.950 . S
C710 C709 1.414 . S
C710 C711 1.374 . S
C711 H691 0.950 . S
C711 C707 1.385 . S
C711 C710 1.374 . S
C712 C709 1.499 . S
C712 C713 1.373 . S
C712 C714 1.389 . S
C713 H692 0.950 . S
C713 C712 1.373 . S
C713 C729 1.377 1_455 S
C714 C712 1.389 . S
C714 C715 1.524 . S
C714 C728 1.377 1_455 S
C715 C714 1.524 . S
C715 C716 1.397 . S
C715 C720 1.363 1_455 S
C716 H693 0.950 . S
C716 C715 1.397 . S
C716 C717 1.334 . S
C717 H694 0.950 . S
C717 C716 1.334 . S
C717 C718 1.287 . S
C718 C717 1.287 . S
C718 C719 1.524 1_455 S
C718 H737 0.913 . S
C719 H695 0.950 . S
C719 C718 1.524 1_655 S
C719 C720 1.415 . S
C720 H696 0.950 . S
C720 C715 1.363 1_655 S
C720 C719 1.415 . S
C721 H697 0.951 . S
C721 C722 1.366 . S
C721 C723 1.388 . S
C722 C721 1.366 . S
C722 C726 1.385 . S
C723 H698 0.951 1_655 S
C723 C721 1.388 . S
C723 C724 1.366 . S
C724 C723 1.366 . S
C724 C725 1.414 . S
C724 C727 1.499 . S
C725 H699 0.950 . S
C725 C724 1.414 . S
C725 C726 1.374 . S
C726 H700 0.950 . S
C726 C722 1.385 . S
C726 C725 1.374 . S
C727 C724 1.499 . S
C727 C728 1.373 . S
C727 C729 1.389 . S
C728 H701 0.950 . S
C728 C714 1.377 1_655 S
C728 C727 1.373 . S
C729 C713 1.377 1_655 S
C729 C727 1.389 . S
C729 C730 1.524 . S
C730 C729 1.524 . S
C730 C731 1.397 . S
C730 C735 1.363 1_655 S
C731 H702 0.950 . S
C731 C730 1.397 . S
C731 C732 1.334 . S
C732 H703 0.950 . S
C732 C731 1.334 . S
C732 C733 1.287 . S
C733 C732 1.287 . S
C733 C734 1.524 1_655 S
C733 H736 0.999 . S
C734 H704 0.950 . S
C734 C733 1.524 1_455 S
C734 C735 1.415 . S
C735 H705 0.950 . S
C735 C730 1.363 1_455 S
C735 C734 1.415 . S
H736 C733 0.999 . S
H737 C718 0.913 . S
H738 C756 0.951 . S
H739 C758 0.951 . S
H740 C760 0.950 . S
H741 C761 0.950 . S
H742 C763 0.950 . S
H743 C766 0.950 . S
H744 C767 0.950 . S
H745 C769 0.950 . S
H746 C770 0.950 . S
H747 C771 0.951 . S
H748 C773 0.951 . S
H749 C775 0.950 . S
H750 C776 0.950 . S
H751 C778 0.950 . S
H752 C781 0.950 . S
H753 C782 0.950 . S
H754 C784 0.950 . S
H755 C785 0.950 . S
C756 H738 0.951 . S
C756 C757 1.366 . S
C756 C758 1.388 . S
C757 C756 1.366 . S
C757 C761 1.385 . S
C758 H739 0.951 . S
C758 C756 1.388 . S
C758 C759 1.366 . S
C759 C758 1.366 . S
C759 C760 1.414 . S
C759 C762 1.499 . S
C760 H740 0.950 . S
C760 C759 1.414 . S
C760 C761 1.374 . S
C761 H741 0.950 . S
C761 C757 1.385 . S
C761 C760 1.374 . S
C762 C759 1.499 . S
C762 C763 1.373 1_565 S
C762 C764 1.389 . S
C763 H742 0.950 . S
C763 C762 1.373 1_545 S
C763 C779 1.377 . S
C764 C762 1.389 . S
C764 C765 1.524 . S
C764 C778 1.377 . S
C765 C764 1.524 . S
C765 C766 1.397 . S
C765 C770 1.363 . S
C766 H743 0.950 . S
C766 C765 1.397 . S
C766 C767 1.334 . S
C767 H744 0.950 . S
C767 C766 1.334 . S
C767 C768 1.287 . S
C768 C767 1.287 . S
C768 C769 1.524 . S
C768 H787 0.913 . S
C769 H745 0.950 . S
C769 C768 1.524 . S
C769 C770 1.415 . S
C770 H746 0.950 . S
C770 C765 1.363 . S
C770 C769 1.415 . S
C771 H747 0.951 . S
C771 C772 1.366 . S
C771 C773 1.388 . S
C772 C771 1.366 . S
C772 C776 1.385 . S
C773 H748 0.951 . S
C773 C771 1.388 . S
C773 C774 1.366 . S
C774 C773 1.366 . S
C774 C775 1.414 . S
C774 C777 1.499 . S
C775 H749 0.950 . S
C775 C774 1.414 . S
C775 C776 1.374 . S
C776 H750 0.950 . S
C776 C772 1.385 . S
C776 C775 1.374 . S
C777 C774 1.499 . S
C777 C778 1.373 1_545 S
C777 C779 1.389 . S
C778 H751 0.950 . S
C778 C764 1.377 . S
C778 C777 1.373 1_565 S
C779 C763 1.377 . S
C779 C777 1.389 . S
C779 C780 1.524 . S
C780 C779 1.524 . S
C780 C781 1.397 . S
C780 C785 1.363 . S
C781 H752 0.950 . S
C781 C780 1.397 . S
C781 C782 1.334 . S
C782 H753 0.950 . S
C782 C781 1.334 . S
C782 C783 1.287 . S
C783 C782 1.287 . S
C783 C784 1.524 . S
C783 H786 0.999 . S
C784 H754 0.950 . S
C784 C783 1.524 . S
C784 C785 1.415 . S
C785 H755 0.950 . S
C785 C780 1.363 . S
C785 C784 1.415 . S
H786 C783 0.999 . S
H787 C768 0.913 . S
H788 C806 0.951 . S
H789 C808 0.951 . S
H790 C810 0.950 . S
H791 C811 0.950 . S
H792 C813 0.950 . S
H793 C816 0.950 . S
H794 C817 0.950 . S
H795 C819 0.950 . S
H796 C820 0.950 . S
H797 C821 0.951 . S
H798 C823 0.951 . S
H799 C825 0.950 . S
H800 C826 0.950 . S
H801 C828 0.950 . S
H802 C831 0.950 . S
H803 C832 0.950 . S
H804 C834 0.950 . S
H805 C835 0.950 . S
C806 H788 0.951 . S
C806 C807 1.366 . S
C806 C808 1.388 . S
C807 C806 1.366 . S
C807 C811 1.385 . S
C808 H789 0.951 . S
C808 C806 1.388 . S
C808 C809 1.366 . S
C809 C808 1.366 . S
C809 C810 1.414 . S
C809 C812 1.499 . S
C810 H790 0.950 . S
C810 C809 1.414 . S
C810 C811 1.374 . S
C811 H791 0.950 . S
C811 C807 1.385 . S
C811 C810 1.374 . S
C812 C809 1.499 . S
C812 C813 1.373 . S
C812 C814 1.389 . S
C813 H792 0.950 . S
C813 C812 1.373 . S
C813 C829 1.377 1_554 S
C814 C812 1.389 . S
C814 C815 1.524 . S
C814 C828 1.377 1_554 S
C815 C814 1.524 . S
C815 C816 1.397 . S
C815 C820 1.363 1_554 S
C816 H793 0.950 . S
C816 C815 1.397 . S
C816 C817 1.334 . S
C817 H794 0.950 . S
C817 C816 1.334 . S
C817 C818 1.287 . S
C818 C817 1.287 . S
C818 C819 1.524 1_554 S
C818 H837 0.913 . S
C819 H795 0.950 . S
C819 C818 1.524 1_556 S
C819 C820 1.415 . S
C820 H796 0.950 . S
C820 C815 1.363 1_556 S
C820 C819 1.415 . S
C821 H797 0.951 . S
C821 C822 1.366 . S
C821 C823 1.388 . S
C822 C821 1.366 . S
C822 C826 1.385 . S
C823 H798 0.951 . S
C823 C821 1.388 . S
C823 C824 1.366 . S
C824 C823 1.366 . S
C824 C825 1.414 . S
C824 C827 1.499 . S
C825 H799 0.950 . S
C825 C824 1.414 . S
C825 C826 1.374 . S
C826 H800 0.950 . S
C826 C822 1.385 . S
C826 C825 1.374 . S
C827 C824 1.499 . S
C827 C828 1.373 . S
C827 C829 1.389 . S
C828 H801 0.950 . S
C828 C814 1.377 1_556 S
C828 C827 1.373 . S
C829 C813 1.377 1_556 S
C829 C827 1.389 . S
C829 C830 1.524 . S
C830 C829 1.524 . S
C830 C831 1.397 . S
C830 C835 1.363 1_556 S
C831 H802 0.950 . S
C831 C830 1.397 . S
C831 C832 1.334 . S
C832 H803 0.950 . S
C832 C831 1.334 . S
C832 C833 1.287 . S
C833 C832 1.287 . S
C833 C834 1.524 1_556 S
C833 H836 0.999 . S
C834 H804 0.950 . S
C834 C833 1.524 1_554 S
C834 C835 1.415 . S
C835 H805 0.950 . S
C835 C830 1.363 1_554 S
C835 C834 1.415 . S
H836 C833 0.999 . S
H837 C818 0.913 . S
H838 C856 0.951 . S
H839 C858 0.951 . S
H840 C860 0.952 1_545 S
H841 C861 0.950 1_545 S
H842 C863 0.950 . S
H843 C866 0.950 . S
H844 C867 0.950 . S
H845 C869 0.950 . S
H846 C870 0.950 1_554 S
H847 C871 0.951 . S
H848 C873 0.951 . S
H849 C875 0.952 1_565 S
H850 C876 0.950 1_565 S
H851 C878 0.950 . S
H852 C881 0.950 . S
H853 C882 0.950 . S
H854 C884 0.950 . S
H855 C885 0.950 1_556 S
C856 H838 0.951 . S
C856 C857 1.366 . S
C856 C858 1.388 . S
C857 C856 1.366 . S
C857 C861 1.385 . S
C858 H839 0.951 . S
C858 C856 1.388 . S
C858 C859 1.366 . S
C859 C858 1.366 . S
C859 C860 1.413 . S
C859 C862 1.499 . S
C860 H840 0.952 1_565 S
C860 C859 1.413 . S
C860 C861 1.373 . S
C861 H841 0.950 1_565 S
C861 C857 1.385 . S
C861 C860 1.373 . S
C862 C859 1.499 . S
C862 C863 1.373 1_565 S
C862 C864 1.389 1_455 S
C863 H842 0.950 . S
C863 C862 1.373 1_545 S
C863 C879 1.377 1_556 S
C864 C862 1.389 1_655 S
C864 C865 1.524 . S
C864 C878 1.377 1_556 S
C865 C864 1.524 . S
C865 C866 1.397 . S
C865 C870 1.363 . S
C866 H843 0.950 . S
C866 C865 1.397 . S
C866 C867 1.334 . S
C867 H844 0.950 . S
C867 C866 1.334 . S
C867 C868 1.287 . S
C868 C867 1.287 . S
C868 C869 1.524 . S
C868 H887 0.913 . S
C869 H845 0.950 . S
C869 C868 1.524 . S
C869 C870 1.415 . S
C870 H846 0.950 1_556 S
C870 C865 1.363 . S
C870 C869 1.415 . S
C871 H847 0.951 . S
C871 C872 1.366 . S
C871 C873 1.388 . S
C872 C871 1.366 . S
C872 C876 1.385 . S
C873 H848 0.951 . S
C873 C871 1.388 . S
C873 C874 1.366 . S
C874 C873 1.366 . S
C874 C875 1.413 . S
C874 C877 1.499 . S
C875 H849 0.952 1_545 S
C875 C874 1.413 . S
C875 C876 1.373 . S
C876 H850 0.950 1_545 S
C876 C872 1.385 . S
C876 C875 1.373 . S
C877 C874 1.499 . S
C877 C878 1.373 1_545 S
C877 C879 1.389 1_655 S
C878 H851 0.950 . S
C878 C864 1.377 1_554 S
C878 C877 1.373 1_565 S
C879 C863 1.377 1_554 S
C879 C877 1.389 1_455 S
C879 C880 1.524 . S
C880 C879 1.524 . S
C880 C881 1.397 . S
C880 C885 1.363 . S
C881 H852 0.950 . S
C881 C880 1.397 . S
C881 C882 1.334 . S
C882 H853 0.950 . S
C882 C881 1.334 . S
C882 C883 1.287 . S
C883 C882 1.287 . S
C883 C884 1.524 . S
C883 H886 0.999 . S
C884 H854 0.950 . S
C884 C883 1.524 . S
C884 C885 1.415 . S
C885 H855 0.950 1_554 S
C885 C880 1.363 . S
C885 C884 1.415 . S
H886 C883 0.999 . S
H887 C868 0.913 . S
H888 C906 0.951 . S
H889 C908 0.951 . S
H890 C910 0.950 . S
H891 C911 0.950 . S
H892 C913 0.950 . S
H893 C916 0.950 . S
H894 C917 0.950 . S
H895 C919 0.950 . S
H896 C920 0.950 . S
H897 C921 0.951 . S
H898 C923 0.951 . S
H899 C925 0.950 . S
H900 C926 0.950 . S
H901 C928 0.950 . S
H902 C931 0.950 . S
H903 C932 0.950 . S
H904 C934 0.950 . S
H905 C935 0.950 . S
C906 H888 0.951 . S
C906 C907 1.366 . S
C906 C908 1.388 . S
C907 C906 1.366 . S
C907 C911 1.385 . S
C908 H889 0.951 . S
C908 C906 1.388 . S
C908 C909 1.366 . S
C909 C908 1.366 . S
C909 C910 1.414 . S
C909 C912 1.499 . S
C910 H890 0.950 . S
C910 C909 1.414 . S
C910 C911 1.374 . S
C911 H891 0.950 . S
C911 C907 1.385 . S
C911 C910 1.374 . S
C912 C909 1.499 . S
C912 C913 1.373 . S
C912 C914 1.389 . S
C913 H892 0.950 . S
C913 C912 1.373 . S
C913 C929 1.377 . S
C914 C912 1.389 . S
C914 C915 1.524 . S
C914 C928 1.377 . S
C915 C914 1.524 . S
C915 C916 1.397 . S
C915 C920 1.363 . S
C916 H893 0.950 . S
C916 C915 1.397 . S
C916 C917 1.334 . S
C917 H894 0.950 . S
C917 C916 1.334 . S
C917 C918 1.287 . S
C918 C917 1.287 . S
C918 C919 1.524 . S
C918 H937 0.913 . S
C919 H895 0.950 . S
C919 C918 1.524 . S
C919 C920 1.415 . S
C920 H896 0.950 . S
C920 C915 1.363 . S
C920 C919 1.415 . S
C921 H897 0.951 . S
C921 C922 1.366 . S
C921 C923 1.388 . S
C922 C921 1.366 . S
C922 C926 1.385 . S
C923 H898 0.951 . S
C923 C921 1.388 . S
C923 C924 1.366 . S
C924 C923 1.366 . S
C924 C925 1.414 . S
C924 C927 1.499 . S
C925 H899 0.950 . S
C925 C924 1.414 . S
C925 C926 1.374 . S
C926 H900 0.950 . S
C926 C922 1.385 . S
C926 C925 1.374 . S
C927 C924 1.499 . S
C927 C928 1.373 . S
C927 C929 1.389 . S
C928 H901 0.950 . S
C928 C914 1.377 . S
C928 C927 1.373 . S
C929 C913 1.377 . S
C929 C927 1.389 . S
C929 C930 1.524 . S
C930 C929 1.524 . S
C930 C931 1.397 . S
C930 C935 1.363 . S
C931 H902 0.950 . S
C931 C930 1.397 . S
C931 C932 1.334 . S
C932 H903 0.950 . S
C932 C931 1.334 . S
C932 C933 1.287 . S
C933 C932 1.287 . S
C933 C934 1.524 . S
C933 H936 0.999 . S
C934 H904 0.950 . S
C934 C933 1.524 . S
C934 C935 1.415 . S
C935 H905 0.950 . S
C935 C930 1.363 . S
C935 C934 1.415 . S
H936 C933 0.999 . S
H937 C918 0.913 . S
H938 C956 0.951 . S
H939 C958 0.951 . S
H940 C960 0.950 . S
H941 C961 0.950 . S
H942 C963 0.950 . S
H943 C966 0.950 . S
H944 C967 0.950 . S
H945 C969 0.950 . S
H946 C970 0.950 . S
H947 C971 0.951 . S
H948 C973 0.951 . S
H949 C975 0.950 . S
H950 C976 0.950 . S
H951 C978 0.950 . S
H952 C981 0.950 . S
H953 C982 0.950 . S
H954 C984 0.950 . S
H955 C985 0.950 . S
C956 H938 0.951 . S
C956 C957 1.366 . S
C956 C958 1.388 . S
C957 C956 1.366 . S
C957 C961 1.385 . S
C958 H939 0.951 . S
C958 C956 1.388 . S
C958 C959 1.366 . S
C959 C958 1.366 . S
C959 C960 1.414 . S
C959 C962 1.499 . S
C960 H940 0.950 . S
C960 C959 1.414 . S
C960 C961 1.374 . S
C961 H941 0.950 . S
C961 C957 1.385 . S
C961 C960 1.374 . S
C962 C959 1.499 . S
C962 C963 1.373 . S
C962 C964 1.389 . S
C963 H942 0.950 . S
C963 C962 1.373 . S
C963 C979 1.377 . S
C964 C962 1.389 . S
C964 C965 1.524 . S
C964 C978 1.377 . S
C965 C964 1.524 . S
C965 C966 1.397 . S
C965 C970 1.363 . S
C966 H943 0.950 . S
C966 C965 1.397 . S
C966 C967 1.334 . S
C967 H944 0.950 . S
C967 C966 1.334 . S
C967 C968 1.287 . S
C968 C967 1.287 . S
C968 C969 1.524 . S
C968 H987 0.913 . S
C969 H945 0.950 . S
C969 C968 1.524 . S
C969 C970 1.415 . S
C970 H946 0.950 . S
C970 C965 1.363 . S
C970 C969 1.415 . S
C971 H947 0.951 . S
C971 C972 1.366 . S
C971 C973 1.388 . S
C972 C971 1.366 . S
C972 C976 1.385 . S
C973 H948 0.951 . S
C973 C971 1.388 . S
C973 C974 1.366 . S
C974 C973 1.366 . S
C974 C975 1.414 . S
C974 C977 1.499 . S
C975 H949 0.950 . S
C975 C974 1.414 . S
C975 C976 1.374 . S
C976 H950 0.950 . S
C976 C972 1.385 . S
C976 C975 1.374 . S
C977 C974 1.499 . S
C977 C978 1.373 . S
C977 C979 1.389 . S
C978 H951 0.950 . S
C978 C964 1.377 . S
C978 C977 1.373 . S
C979 C963 1.377 . S
C979 C977 1.389 . S
C979 C980 1.524 . S
C980 C979 1.524 . S
C980 C981 1.397 . S
C980 C985 1.363 . S
C981 H952 0.950 . S
C981 C980 1.397 . S
C981 C982 1.334 . S
C982 H953 0.950 . S
C982 C981 1.334 . S
C982 C983 1.287 . S
C983 C982 1.287 . S
C983 C984 1.524 . S
C983 H986 0.999 . S
C984 H954 0.950 . S
C984 C983 1.524 . S
C984 C985 1.415 . S
C985 H955 0.950 . S
C985 C980 1.363 . S
C985 C984 1.415 . S
H986 C983 0.999 . S
H987 C968 0.913 . S
H988 C1006 0.951 . S
H989 C1008 0.951 . S
H990 C1010 0.950 . S
H991 C1011 0.950 . S
H992 C1013 0.950 . S
H993 C1016 0.950 . S
H994 C1017 0.950 . S
H995 C1019 0.950 . S
H996 C1020 0.950 . S
H997 C1021 0.951 . S
H998 C1023 0.951 . S
H999 C1025 0.950 . S
H1000 C1026 0.950 . S
H1001 C1028 0.950 . S
H1002 C1031 0.950 . S
H1003 C1032 0.950 . S
H1004 C1034 0.950 . S
H1005 C1035 0.950 . S
C1006 H988 0.951 . S
C1006 C1007 1.366 . S
C1006 C1008 1.388 . S
C1007 C1006 1.366 . S
C1007 C1011 1.385 . S
C1008 H989 0.951 . S
C1008 C1006 1.388 . S
C1008 C1009 1.366 . S
C1009 C1008 1.366 . S
C1009 C1010 1.414 . S
C1009 C1012 1.499 . S
C1010 H990 0.950 . S
C1010 C1009 1.414 . S
C1010 C1011 1.374 . S
C1011 H991 0.950 . S
C1011 C1007 1.385 . S
C1011 C1010 1.374 . S
C1012 C1009 1.499 . S
C1012 C1013 1.373 . S
C1012 C1014 1.389 . S
C1013 H992 0.950 . S
C1013 C1012 1.373 . S
C1013 C1029 1.377 . S
C1014 C1012 1.389 . S
C1014 C1015 1.524 . S
C1014 C1028 1.377 . S
C1015 C1014 1.524 . S
C1015 C1016 1.397 . S
C1015 C1020 1.363 . S
C1016 H993 0.950 . S
C1016 C1015 1.397 . S
C1016 C1017 1.334 . S
C1017 H994 0.950 . S
C1017 C1016 1.334 . S
C1017 C1018 1.287 . S
C1018 C1017 1.287 . S
C1018 C1019 1.524 . S
C1018 H1037 0.913 . S
C1019 H995 0.950 . S
C1019 C1018 1.524 . S
C1019 C1020 1.415 . S
C1020 H996 0.950 . S
C1020 C1015 1.363 . S
C1020 C1019 1.415 . S
C1021 H997 0.951 . S
C1021 C1022 1.366 . S
C1021 C1023 1.388 . S
C1022 C1021 1.366 . S
C1022 C1026 1.385 . S
C1023 H998 0.951 . S
C1023 C1021 1.388 . S
C1023 C1024 1.366 . S
C1024 C1023 1.366 . S
C1024 C1025 1.414 . S
C1024 C1027 1.499 . S
C1025 H999 0.950 . S
C1025 C1024 1.414 . S
C1025 C1026 1.374 . S
C1026 H1000 0.950 . S
C1026 C1022 1.385 . S
C1026 C1025 1.374 . S
C1027 C1024 1.499 . S
C1027 C1028 1.373 . S
C1027 C1029 1.389 . S
C1028 H1001 0.950 . S
C1028 C1014 1.377 . S
C1028 C1027 1.373 . S
C1029 C1013 1.377 . S
C1029 C1027 1.389 . S
C1029 C1030 1.524 . S
C1030 C1029 1.524 . S
C1030 C1031 1.397 . S
C1030 C1035 1.363 . S
C1031 H1002 0.950 . S
C1031 C1030 1.397 . S
C1031 C1032 1.334 . S
C1032 H1003 0.950 . S
C1032 C1031 1.334 . S
C1032 C1033 1.287 . S
C1033 C1032 1.287 . S
C1033 C1034 1.524 . S
C1033 H1036 0.999 . S
C1034 H1004 0.950 . S
C1034 C1033 1.524 . S
C1034 C1035 1.415 . S
C1035 H1005 0.950 . S
C1035 C1030 1.363 . S
C1035 C1034 1.415 . S
H1036 C1033 0.999 . S
H1037 C1018 0.913 . S
H1038 C1056 0.951 . S
H1039 C1058 0.951 . S
H1040 C1060 0.950 . S
H1041 C1061 0.950 . S
H1042 C1063 0.950 . S
H1043 C1066 0.950 . S
H1044 C1067 0.950 . S
H1045 C1069 0.950 . S
H1046 C1070 0.950 . S
H1047 C1071 0.951 . S
H1048 C1073 0.951 . S
H1049 C1075 0.950 . S
H1050 C1076 0.950 . S
H1051 C1078 0.950 . S
H1052 C1081 0.950 . S
H1053 C1082 0.950 . S
H1054 C1084 0.950 . S
H1055 C1085 0.950 . S
C1056 H1038 0.951 . S
C1056 C1057 1.366 . S
C1056 C1058 1.388 . S
C1057 C1056 1.366 . S
C1057 C1061 1.385 . S
C1058 H1039 0.951 . S
C1058 C1056 1.388 . S
C1058 C1059 1.366 . S
C1059 C1058 1.366 . S
C1059 C1060 1.414 . S
C1059 C1062 1.499 . S
C1060 H1040 0.950 . S
C1060 C1059 1.414 . S
C1060 C1061 1.374 . S
C1061 H1041 0.950 . S
C1061 C1057 1.385 . S
C1061 C1060 1.374 . S
C1062 C1059 1.499 . S
C1062 C1063 1.373 . S
C1062 C1064 1.389 . S
C1063 H1042 0.950 . S
C1063 C1062 1.373 . S
C1063 C1079 1.377 . S
C1064 C1062 1.389 . S
C1064 C1065 1.524 . S
C1064 C1078 1.377 . S
C1065 C1064 1.524 . S
C1065 C1066 1.397 . S
C1065 C1070 1.363 . S
C1066 H1043 0.950 . S
C1066 C1065 1.397 . S
C1066 C1067 1.334 . S
C1067 H1044 0.950 . S
C1067 C1066 1.334 . S
C1067 C1068 1.287 . S
C1068 C1067 1.287 . S
C1068 C1069 1.524 . S
C1068 H1087 0.913 . S
C1069 H1045 0.950 . S
C1069 C1068 1.524 . S
C1069 C1070 1.415 . S
C1070 H1046 0.950 . S
C1070 C1065 1.363 . S
C1070 C1069 1.415 . S
C1071 H1047 0.951 . S
C1071 C1072 1.366 . S
C1071 C1073 1.388 . S
C1072 C1071 1.366 . S
C1072 C1076 1.385 . S
C1073 H1048 0.951 . S
C1073 C1071 1.388 . S
C1073 C1074 1.366 . S
C1074 C1073 1.366 . S
C1074 C1075 1.414 . S
C1074 C1077 1.499 . S
C1075 H1049 0.950 . S
C1075 C1074 1.414 . S
C1075 C1076 1.374 . S
C1076 H1050 0.950 . S
C1076 C1072 1.385 . S
C1076 C1075 1.374 . S
C1077 C1074 1.499 . S
C1077 C1078 1.373 . S
C1077 C1079 1.389 . S
C1078 H1051 0.950 . S
C1078 C1064 1.377 . S
C1078 C1077 1.373 . S
C1079 C1063 1.377 . S
C1079 C1077 1.389 . S
C1079 C1080 1.524 . S
C1080 C1079 1.524 . S
C1080 C1081 1.397 . S
C1080 C1085 1.363 . S
C1081 H1052 0.950 . S
C1081 C1080 1.397 . S
C1081 C1082 1.334 . S
C1082 H1053 0.950 . S
C1082 C1081 1.334 . S
C1082 C1083 1.287 . S
C1083 C1082 1.287 . S
C1083 C1084 1.524 . S
C1083 H1086 0.999 . S
C1084 H1054 0.950 . S
C1084 C1083 1.524 . S
C1084 C1085 1.415 . S
C1085 H1055 0.950 . S
C1085 C1080 1.363 . S
C1085 C1084 1.415 . S
H1086 C1083 0.999 . S
H1087 C1068 0.913 . S
C307 C4 1.286 . S
C322 C74 1.294 . S
C357 C110 1.295 . S
C372 C40 1.287 . S
C407 C76 1.287 . S
C422 C2 1.294 . S
C457 C112 1.287 . S
C472 C38 1.294 . S
C507 C218 1.294 . S
C522 C148 1.287 . S
C557 C184 1.286 . S
C572 C254 1.295 . S
C607 C220 1.286 . S
C622 C146 1.294 . S
C657 C256 1.287 . S
C672 C182 1.294 . S
C707 C3 1.519 . S
C722 C147 1.519 . S
C757 C39 1.519 . S
C772 C183 1.519 . S
C807 C75 1.519 . S
C822 C219 1.519 . S
C857 C255 1.519 . S
C872 C111 1.519 . S
C907 C14 1.447 . S
C922 C50 1.448 . S
C957 C122 1.447 . S
C972 C86 1.448 . S
C1007 C194 1.447 . S
C1022 C158 1.448 . S
C1057 C230 1.447 . S
C1072 C266 1.448 . S
