# Generated by pormake.
# Topology upd, (4)-cn, num edge types: 1
# Building blocks:
#     Node 0, Type 0, BuildingBlock: KOZSID_clean_sbu_0, # of connection points: 4
#     Node 1, Type 0, BuildingBlock: KOZSID_clean_sbu_0, # of connection points: 4
#     Node 2, Type 0, BuildingBlock: KOZSID_clean_sbu_0, # of connection points: 4
#     Node 3, Type 0, BuildingBlock: KOZSID_clean_sbu_0, # of connection points: 4
#     Node 4, Type 0, BuildingBlock: KOZSID_clean_sbu_0, # of connection points: 4
#     Node 5, Type 0, BuildingBlock: KOZSID_clean_sbu_0, # of connection points: 4
#     Node 6, Type 0, BuildingBlock: KOZSID_clean_sbu_0, # of connection points: 4
#     Node 7, Type 0, BuildingBlock: KOZSID_clean_sbu_0, # of connection points: 4
#     Node 8, Type 0, BuildingBlock: KOZSID_clean_sbu_0, # of connection points: 4
#     Node 9, Type 0, BuildingBlock: KOZSID_clean_sbu_0, # of connection points: 4
#     Node 10, Type 0, BuildingBlock: KOZSID_clean_sbu_0, # of connection points: 4
#     Node 11, Type 0, BuildingBlock: KOZSID_clean_sbu_0, # of connection points: 4
#     Node 12, Type 0, BuildingBlock: KOZSID_clean_sbu_0, # of connection points: 4
#     Node 13, Type 0, BuildingBlock: KOZSID_clean_sbu_0, # of connection points: 4
#     Node 14, Type 0, BuildingBlock: KOZSID_clean_sbu_0, # of connection points: 4
#     Node 15, Type 0, BuildingBlock: KOZSID_clean_sbu_0, # of connection points: 4
#     Node 16, Type 0, BuildingBlock: KOZSID_clean_sbu_0, # of connection points: 4
#     Node 17, Type 0, BuildingBlock: KOZSID_clean_sbu_0, # of connection points: 4
#     Node 18, Type 0, BuildingBlock: KOZSID_clean_sbu_0, # of connection points: 4
#     Node 19, Type 0, BuildingBlock: KOZSID_clean_sbu_0, # of connection points: 4
#     Node 20, Type 0, BuildingBlock: KOZSID_clean_sbu_0, # of connection points: 4
#     Node 21, Type 0, BuildingBlock: KOZSID_clean_sbu_0, # of connection points: 4
#     Node 22, Type 0, BuildingBlock: KOZSID_clean_sbu_0, # of connection points: 4
#     Node 23, Type 0, BuildingBlock: KOZSID_clean_sbu_0, # of connection points: 4
#     Node 24, Type 0, BuildingBlock: KOZSID_clean_sbu_0, # of connection points: 4
#     Node 25, Type 0, BuildingBlock: KOZSID_clean_sbu_0, # of connection points: 4
#     Node 26, Type 0, BuildingBlock: KOZSID_clean_sbu_0, # of connection points: 4
#     Node 27, Type 0, BuildingBlock: KOZSID_clean_sbu_0, # of connection points: 4
#     Node 28, Type 0, BuildingBlock: KOZSID_clean_sbu_0, # of connection points: 4
#     Node 29, Type 0, BuildingBlock: KOZSID_clean_sbu_0, # of connection points: 4
#     Node 30, Type 0, BuildingBlock: KOZSID_clean_sbu_0, # of connection points: 4
#     Node 31, Type 0, BuildingBlock: KOZSID_clean_sbu_0, # of connection points: 4
#     Edge 32, Type (0, 0), BuildingBlock: OJICUG_clean_linker_0, # of connection points: 2
#     Edge 33, Type (0, 0), BuildingBlock: OJICUG_clean_linker_0, # of connection points: 2
#     Edge 34, Type (0, 0), BuildingBlock: OJICUG_clean_linker_0, # of connection points: 2
#     Edge 35, Type (0, 0), BuildingBlock: OJICUG_clean_linker_0, # of connection points: 2
#     Edge 36, Type (0, 0), BuildingBlock: OJICUG_clean_linker_0, # of connection points: 2
#     Edge 37, Type (0, 0), BuildingBlock: OJICUG_clean_linker_0, # of connection points: 2
#     Edge 38, Type (0, 0), BuildingBlock: OJICUG_clean_linker_0, # of connection points: 2
#     Edge 39, Type (0, 0), BuildingBlock: OJICUG_clean_linker_0, # of connection points: 2
#     Edge 40, Type (0, 0), BuildingBlock: OJICUG_clean_linker_0, # of connection points: 2
#     Edge 41, Type (0, 0), BuildingBlock: OJICUG_clean_linker_0, # of connection points: 2
#     Edge 42, Type (0, 0), BuildingBlock: OJICUG_clean_linker_0, # of connection points: 2
#     Edge 43, Type (0, 0), BuildingBlock: OJICUG_clean_linker_0, # of connection points: 2
#     Edge 44, Type (0, 0), BuildingBlock: OJICUG_clean_linker_0, # of connection points: 2
#     Edge 45, Type (0, 0), BuildingBlock: OJICUG_clean_linker_0, # of connection points: 2
#     Edge 46, Type (0, 0), BuildingBlock: OJICUG_clean_linker_0, # of connection points: 2
#     Edge 47, Type (0, 0), BuildingBlock: OJICUG_clean_linker_0, # of connection points: 2
#     Edge 48, Type (0, 0), BuildingBlock: OJICUG_clean_linker_0, # of connection points: 2
#     Edge 49, Type (0, 0), BuildingBlock: OJICUG_clean_linker_0, # of connection points: 2
#     Edge 50, Type (0, 0), BuildingBlock: OJICUG_clean_linker_0, # of connection points: 2
#     Edge 51, Type (0, 0), BuildingBlock: OJICUG_clean_linker_0, # of connection points: 2
#     Edge 52, Type (0, 0), BuildingBlock: OJICUG_clean_linker_0, # of connection points: 2
#     Edge 53, Type (0, 0), BuildingBlock: OJICUG_clean_linker_0, # of connection points: 2
#     Edge 54, Type (0, 0), BuildingBlock: OJICUG_clean_linker_0, # of connection points: 2
#     Edge 55, Type (0, 0), BuildingBlock: OJICUG_clean_linker_0, # of connection points: 2
#     Edge 56, Type (0, 0), BuildingBlock: OJICUG_clean_linker_0, # of connection points: 2
#     Edge 57, Type (0, 0), BuildingBlock: OJICUG_clean_linker_0, # of connection points: 2
#     Edge 58, Type (0, 0), BuildingBlock: OJICUG_clean_linker_0, # of connection points: 2
#     Edge 59, Type (0, 0), BuildingBlock: OJICUG_clean_linker_0, # of connection points: 2
#     Edge 60, Type (0, 0), BuildingBlock: OJICUG_clean_linker_0, # of connection points: 2
#     Edge 61, Type (0, 0), BuildingBlock: OJICUG_clean_linker_0, # of connection points: 2
#     Edge 62, Type (0, 0), BuildingBlock: OJICUG_clean_linker_0, # of connection points: 2
#     Edge 63, Type (0, 0), BuildingBlock: OJICUG_clean_linker_0, # of connection points: 2
#     Edge 64, Type (0, 0), BuildingBlock: OJICUG_clean_linker_0, # of connection points: 2
#     Edge 65, Type (0, 0), BuildingBlock: OJICUG_clean_linker_0, # of connection points: 2
#     Edge 66, Type (0, 0), BuildingBlock: OJICUG_clean_linker_0, # of connection points: 2
#     Edge 67, Type (0, 0), BuildingBlock: OJICUG_clean_linker_0, # of connection points: 2
#     Edge 68, Type (0, 0), BuildingBlock: OJICUG_clean_linker_0, # of connection points: 2
#     Edge 69, Type (0, 0), BuildingBlock: OJICUG_clean_linker_0, # of connection points: 2
#     Edge 70, Type (0, 0), BuildingBlock: OJICUG_clean_linker_0, # of connection points: 2
#     Edge 71, Type (0, 0), BuildingBlock: OJICUG_clean_linker_0, # of connection points: 2
#     Edge 72, Type (0, 0), BuildingBlock: OJICUG_clean_linker_0, # of connection points: 2
#     Edge 73, Type (0, 0), BuildingBlock: OJICUG_clean_linker_0, # of connection points: 2
#     Edge 74, Type (0, 0), BuildingBlock: OJICUG_clean_linker_0, # of connection points: 2
#     Edge 75, Type (0, 0), BuildingBlock: OJICUG_clean_linker_0, # of connection points: 2
#     Edge 76, Type (0, 0), BuildingBlock: OJICUG_clean_linker_0, # of connection points: 2
#     Edge 77, Type (0, 0), BuildingBlock: OJICUG_clean_linker_0, # of connection points: 2
#     Edge 78, Type (0, 0), BuildingBlock: OJICUG_clean_linker_0, # of connection points: 2
#     Edge 79, Type (0, 0), BuildingBlock: OJICUG_clean_linker_0, # of connection points: 2
#     Edge 80, Type (0, 0), BuildingBlock: OJICUG_clean_linker_0, # of connection points: 2
#     Edge 81, Type (0, 0), BuildingBlock: OJICUG_clean_linker_0, # of connection points: 2
#     Edge 82, Type (0, 0), BuildingBlock: OJICUG_clean_linker_0, # of connection points: 2
#     Edge 83, Type (0, 0), BuildingBlock: OJICUG_clean_linker_0, # of connection points: 2
#     Edge 84, Type (0, 0), BuildingBlock: OJICUG_clean_linker_0, # of connection points: 2
#     Edge 85, Type (0, 0), BuildingBlock: OJICUG_clean_linker_0, # of connection points: 2
#     Edge 86, Type (0, 0), BuildingBlock: OJICUG_clean_linker_0, # of connection points: 2
#     Edge 87, Type (0, 0), BuildingBlock: OJICUG_clean_linker_0, # of connection points: 2
#     Edge 88, Type (0, 0), BuildingBlock: OJICUG_clean_linker_0, # of connection points: 2
#     Edge 89, Type (0, 0), BuildingBlock: OJICUG_clean_linker_0, # of connection points: 2
#     Edge 90, Type (0, 0), BuildingBlock: OJICUG_clean_linker_0, # of connection points: 2
#     Edge 91, Type (0, 0), BuildingBlock: OJICUG_clean_linker_0, # of connection points: 2
#     Edge 92, Type (0, 0), BuildingBlock: OJICUG_clean_linker_0, # of connection points: 2
#     Edge 93, Type (0, 0), BuildingBlock: OJICUG_clean_linker_0, # of connection points: 2
#     Edge 94, Type (0, 0), BuildingBlock: OJICUG_clean_linker_0, # of connection points: 2
#     Edge 95, Type (0, 0), BuildingBlock: OJICUG_clean_linker_0, # of connection points: 2
# Relax obj value: 0.029
# Max RMSD: 0.129
# Mean RMSD: 0.088
data_MOF--net-upd--node1-KOZSID_clean_sbu_0--edge1-OJICUG_clean_linker_0
_symmetry_space_group_name_H-M    P1
_symmetry_Int_Tables_number       1
_symmetry_cell_setting            triclinic
loop_
_symmetry_equiv_pos_as_xyz
'x, y, z'
_cell_length_a     38.570979
_cell_length_b     31.128453
_cell_length_c     80.684265
_cell_angle_alpha  90.001034
_cell_angle_beta   89.999201
_cell_angle_gamma 89.982914
loop_
_atom_site_label
_atom_site_type_symbol
_atom_site_fract_x
_atom_site_fract_y
_atom_site_fract_z
_atom_type_partial_charge
C0 C 0.04876 0.14037 0.34439 0.0
C1 C 0.0128 0.14017 0.34512 0.0
C2 C 0.00141 0.16507 0.33231 0.0
C3 C 0.03091 0.17879 0.32446 0.0
N4 N 0.06047 0.16354 0.3313 0.0
Co5 Co 0.10917 0.17663 0.32423 0.0
N6 N 0.09269 0.21851 0.307 0.0
C7 C 0.05948 0.23004 0.30391 0.0
C8 C 0.0561 0.25941 0.29136 0.0
C9 C 0.08908 0.26668 0.28593 0.0
C10 C 0.11075 0.24095 0.29544 0.0
N11 N 0.1579 0.18917 0.31697 0.0
C12 C 0.16973 0.21282 0.30402 0.0
C13 C 0.20551 0.20921 0.30234 0.0
C14 C 0.21667 0.1829 0.3147 0.0
C15 C 0.18728 0.17143 0.32308 0.0
N16 N 0.12571 0.13538 0.34168 0.0
C17 C 0.15895 0.12468 0.34509 0.0
C18 C 0.16267 0.09865 0.35864 0.0
C19 C 0.1299 0.09297 0.3645 0.0
C20 C 0.1079 0.11565 0.35401 0.0
N21 N 0.10697 0.12919 0.30751 0.0
C22 C 0.10578 0.06458 0.28263 0.0
C23 C 0.13237 0.0664 0.29442 0.0
C24 C 0.13247 0.09855 0.30659 0.0
C25 C 0.07943 0.09538 0.2838 0.0
C26 C 0.08045 0.12687 0.29621 0.0
N27 N 0.11116 0.22378 0.34102 0.0
C28 C 0.13928 0.25764 0.36453 0.0
C29 C 0.11012 0.28324 0.36772 0.0
C30 C 0.08215 0.27968 0.35674 0.0
C31 C 0.08322 0.25017 0.34363 0.0
C32 C 0.13935 0.2287 0.35119 0.0
H33 H 0.06079 0.24866 0.33596 0.0
H34 H 0.1622 0.20985 0.34959 0.0
H35 H 0.15363 0.09802 0.31504 0.0
H36 H 0.05963 0.1493 0.29625 0.0
C37 C 0.0319 0.21005 0.31206 0.0
C38 C 0.07068 0.11997 0.35687 0.0
C39 C 0.1481 0.23789 0.29267 0.0
C40 C 0.18633 0.14213 0.3361 0.0
H41 H 0.99655 0.12474 0.3543 0.0
H42 H 0.97487 0.17371 0.32948 0.0
H43 H 0.03239 0.27294 0.28643 0.0
H44 H 0.0963 0.28783 0.27586 0.0
H45 H 0.22197 0.2231 0.29291 0.0
H46 H 0.24296 0.17223 0.31697 0.0
H47 H 0.18651 0.08676 0.36403 0.0
H48 H 0.12339 0.07534 0.3756 0.0
H49 H 0.1531 0.04294 0.29439 0.0
H50 H 0.05833 0.09594 0.27495 0.0
H51 H 0.16172 0.25876 0.37258 0.0
H52 H 0.05924 0.29941 0.35825 0.0
C53 C 0.11885 0.76234 0.59191 0.0
C54 C 0.11734 0.71781 0.59265 0.0
C55 C 0.10378 0.70415 0.57783 0.0
C56 C 0.09792 0.7409 0.56884 0.0
N57 N 0.1068 0.77678 0.5771 0.0
Co58 Co 0.10232 0.83644 0.56859 0.0
N59 N 0.06855 0.81891 0.55123 0.0
C60 C 0.06405 0.77847 0.54571 0.0
C61 C 0.04093 0.77579 0.53285 0.0
C62 C 0.03019 0.81715 0.53004 0.0
C63 C 0.04763 0.84296 0.54133 0.0
N64 N 0.09786 0.89631 0.56017 0.0
C65 C 0.074 0.91411 0.54986 0.0
C66 C 0.08083 0.95748 0.54741 0.0
C67 C 0.11045 0.96668 0.55607 0.0
C68 C 0.11994 0.92874 0.56343 0.0
N69 N 0.13633 0.8536 0.58591 0.0
C70 C 0.15427 0.89067 0.58626 0.0
C71 C 0.17397 0.89514 0.6003 0.0
C72 C 0.16822 0.85855 0.60933 0.0
C73 C 0.14563 0.83321 0.60014 0.0
N74 N 0.14043 0.82621 0.55294 0.0
C75 C 0.19513 0.81295 0.53039 0.0
C76 C 0.19678 0.79684 0.54665 0.0
C77 C 0.16939 0.80408 0.55772 0.0
C78 C 0.16519 0.83556 0.52576 0.0
C79 C 0.13825 0.84145 0.53708 0.0
N80 N 0.06445 0.84658 0.58416 0.0
C81 C 0.03949 0.88895 0.60603 0.0
C82 C 0.01392 0.85776 0.60869 0.0
C83 C 0.01355 0.82143 0.5984 0.0
C84 C 0.03895 0.81654 0.58619 0.0
C85 C 0.06438 0.88281 0.59372 0.0
H86 H 0.03838 0.788 0.57863 0.0
H87 H 0.08411 0.90694 0.59224 0.0
H88 H 0.1717 0.79182 0.57018 0.0
H89 H 0.11576 0.85883 0.53293 0.0
C90 C 0.07904 0.74364 0.55406 0.0
C91 C 0.13453 0.78947 0.60486 0.0
C92 C 0.04693 0.89025 0.54084 0.0
C93 C 0.14619 0.92385 0.57523 0.0
H94 H 0.12543 0.69729 0.60276 0.0
H95 H 0.09775 0.67145 0.57431 0.0
H96 H 0.03273 0.74714 0.52635 0.0
H97 H 0.01242 0.82727 0.52042 0.0
H98 H 0.06629 0.98003 0.53994 0.0
H99 H 0.12301 0.99764 0.55721 0.0
H100 H 0.18898 0.92285 0.60406 0.0
H101 H 0.17902 0.85202 0.62142 0.0
H102 H 0.21898 0.77862 0.55088 0.0
H103 H 0.16264 0.84959 0.51355 0.0
H104 H 0.04104 0.91735 0.61375 0.0
H105 H 0.99392 0.79681 0.59982 0.0
C106 C 0.45102 0.8534 0.8427 0.0
C107 C 0.487 0.85265 0.84324 0.0
C108 C 0.49768 0.82818 0.83016 0.0
C109 C 0.46777 0.81567 0.82235 0.0
N110 N 0.43864 0.83118 0.8295 0.0
Co111 Co 0.3896 0.81991 0.82245 0.0
N112 N 0.405 0.77866 0.80475 0.0
C113 C 0.43794 0.76636 0.80147 0.0
C114 C 0.44061 0.73748 0.78872 0.0
C115 C 0.40742 0.73127 0.78338 0.0
C116 C 0.38634 0.75712 0.79313 0.0
N117 N 0.34056 0.80938 0.81516 0.0
C118 C 0.32808 0.78672 0.80207 0.0
C119 C 0.2924 0.79175 0.80046 0.0
C120 C 0.28195 0.81789 0.81302 0.0
C121 C 0.31166 0.82787 0.82144 0.0
N122 N 0.37407 0.86027 0.84042 0.0
C123 C 0.34105 0.87138 0.84412 0.0
C124 C 0.33793 0.8963 0.858 0.0
C125 C 0.37088 0.90087 0.86376 0.0
C126 C 0.39241 0.87873 0.85288 0.0
N127 N 0.39258 0.86847 0.80627 0.0
C128 C 0.39522 0.93556 0.78243 0.0
C129 C 0.36927 0.93422 0.79455 0.0
C130 C 0.36838 0.90077 0.80616 0.0
C131 C 0.42018 0.90292 0.78271 0.0
C132 C 0.4185 0.87026 0.79464 0.0
N133 N 0.38691 0.77176 0.83874 0.0
C134 C 0.35879 0.73797 0.86225 0.0
C135 C 0.38796 0.71236 0.86541 0.0
C136 C 0.41573 0.71546 0.8543 0.0
C137 C 0.41464 0.74493 0.84119 0.0
C138 C 0.3587 0.76686 0.8489 0.0
H139 H 0.43695 0.74622 0.83344 0.0
H140 H 0.3359 0.78584 0.84732 0.0
H141 H 0.3477 0.90172 0.81488 0.0
H142 H 0.43835 0.84657 0.79405 0.0
C143 C 0.46597 0.78522 0.80967 0.0
C144 C 0.42974 0.87408 0.85539 0.0
C145 C 0.34893 0.76102 0.79058 0.0
C146 C 0.3133 0.85582 0.83488 0.0
H147 H 0.50373 0.86725 0.85242 0.0
H148 H 0.52401 0.8191 0.82712 0.0
H149 H 0.46401 0.7235 0.78363 0.0
H150 H 0.39969 0.71066 0.77323 0.0
H151 H 0.27555 0.77876 0.791 0.0
H152 H 0.25591 0.82923 0.81546 0.0
H153 H 0.31436 0.90835 0.86361 0.0
H154 H 0.37785 0.91751 0.87503 0.0
H155 H 0.34963 0.95902 0.79522 0.0
H156 H 0.44069 0.90185 0.77356 0.0
H157 H 0.33645 0.73702 0.87036 0.0
H158 H 0.43856 0.69555 0.85576 0.0
C159 C 0.37619 0.23584 0.09331 0.0
C160 C 0.37854 0.28028 0.09428 0.0
C161 C 0.39657 0.29348 0.08065 0.0
C162 C 0.40396 0.25661 0.07206 0.0
N163 N 0.39137 0.22062 0.07926 0.0
Co164 Co 0.39737 0.16014 0.07105 0.0
N165 N 0.42931 0.17878 0.05271 0.0
C166 C 0.43856 0.21963 0.0491 0.0
C167 C 0.45938 0.22309 0.03543 0.0
C168 C 0.46457 0.18192 0.03019 0.0
C169 C 0.44624 0.15551 0.04093 0.0
N170 N 0.40299 0.09963 0.06274 0.0
C171 C 0.42242 0.08359 0.05007 0.0
C172 C 0.41882 0.03931 0.0488 0.0
C173 C 0.39603 0.02706 0.06082 0.0
C174 C 0.38713 0.06425 0.06884 0.0
N175 N 0.3663 0.14138 0.08977 0.0
C176 C 0.35589 0.10072 0.09301 0.0
C177 C 0.33752 0.09666 0.10744 0.0
C178 C 0.33654 0.13699 0.11401 0.0
C179 C 0.35413 0.16369 0.10308 0.0
N180 N 0.3565 0.16715 0.05603 0.0
C181 C 0.30242 0.17088 0.03228 0.0
C182 C 0.30293 0.13927 0.04458 0.0
C183 C 0.32984 0.13802 0.05617 0.0
C184 C 0.32862 0.20191 0.03264 0.0
C185 C 0.3549 0.19969 0.04458 0.0
N186 N 0.43779 0.15302 0.0859 0.0
C187 C 0.46734 0.11229 0.10707 0.0
C188 C 0.49087 0.14571 0.1097 0.0
C189 C 0.48817 0.18232 0.0997 0.0
C190 C 0.46166 0.18523 0.08791 0.0
C191 C 0.44147 0.11644 0.09514 0.0
H192 H 0.46054 0.21403 0.08073 0.0
H193 H 0.42423 0.08996 0.09387 0.0
H194 H 0.32854 0.11274 0.06496 0.0
H195 H 0.37385 0.22437 0.04404 0.0
C196 C 0.42588 0.25424 0.05832 0.0
C197 C 0.35994 0.20958 0.10624 0.0
C198 C 0.44487 0.10872 0.03906 0.0
C199 C 0.36595 0.06653 0.08285 0.0
H200 H 0.36888 0.30098 0.10402 0.0
H201 H 0.40451 0.32594 0.07769 0.0
H202 H 0.4688 0.25224 0.02971 0.0
H203 H 0.47957 0.1725 0.01945 0.0
H204 H 0.43159 0.01787 0.04019 0.0
H205 H 0.38752 0.99473 0.06362 0.0
H206 H 0.32724 0.06753 0.11287 0.0
H207 H 0.32504 0.14529 0.12581 0.0
H208 H 0.28268 0.11524 0.04529 0.0
H209 H 0.32956 0.22727 0.02346 0.0
H210 H 0.46804 0.08339 0.11453 0.0
H211 H 0.50627 0.20872 0.10098 0.0
C212 C 0.04659 0.85304 0.16955 0.0
C213 C 0.01079 0.84813 0.16956 0.0
C214 C 0.00282 0.82308 0.18292 0.0
C215 C 0.03401 0.81392 0.19024 0.0
N216 N 0.06143 0.83217 0.18251 0.0
Co217 Co 0.11177 0.82401 0.18814 0.0
N218 N 0.10053 0.78059 0.2057 0.0
C219 C 0.06882 0.76476 0.20939 0.0
C220 C 0.06908 0.7353 0.22201 0.0
C221 C 0.10295 0.73251 0.22682 0.0
C222 C 0.12143 0.7608 0.21689 0.0
N223 N 0.16199 0.8173 0.19418 0.0
C224 C 0.17693 0.79571 0.20693 0.0
C225 C 0.2124 0.80351 0.20772 0.0
C226 C 0.22016 0.83067 0.19503 0.0
C227 C 0.18916 0.8384 0.18736 0.0
N228 N 0.12322 0.86613 0.17017 0.0
C229 C 0.15505 0.88027 0.16575 0.0
C230 C 0.15492 0.90782 0.15252 0.0
C231 C 0.12103 0.91049 0.14786 0.0
C232 C 0.1025 0.88404 0.15852 0.0
N233 N 0.10824 0.87124 0.20487 0.0
C234 C 0.10613 0.93541 0.22989 0.0
C235 C 0.1301 0.93738 0.21688 0.0
C236 C 0.13071 0.90539 0.20467 0.0
C237 C 0.08268 0.90107 0.22985 0.0
C238 C 0.08408 0.86984 0.21734 0.0
N239 N 0.1151 0.77693 0.17133 0.0
C240 C 0.14578 0.74185 0.14882 0.0
C241 C 0.11635 0.71786 0.14435 0.0
C242 C 0.0869 0.72278 0.1544 0.0
C243 C 0.0871 0.75136 0.16781 0.0
C244 C 0.14448 0.77115 0.16204 0.0
H245 H 0.06383 0.75294 0.1749 0.0
H246 H 0.16745 0.78934 0.16431 0.0
H247 H 0.14984 0.9089 0.19526 0.0
H248 H 0.06557 0.84452 0.21817 0.0
C249 C 0.03898 0.78212 0.20222 0.0
C250 C 0.06576 0.87465 0.15634 0.0
C251 C 0.15852 0.76884 0.21891 0.0
C252 C 0.18459 0.86653 0.17411 0.0
H253 H 0.99239 0.85961 0.16048 0.0
H254 H 0.97754 0.8106 0.1862 0.0
H255 H 0.04708 0.71907 0.2275 0.0
H256 H 0.11281 0.71274 0.2368 0.0
H257 H 0.23081 0.79177 0.21676 0.0
H258 H 0.24525 0.8442 0.19206 0.0
H259 H 0.17692 0.92328 0.14671 0.0
H260 H 0.11119 0.92881 0.13747 0.0
H261 H 0.14839 0.96367 0.21601 0.0
H262 H 0.06369 0.89757 0.23964 0.0
H263 H 0.16994 0.73865 0.14215 0.0
H264 H 0.06308 0.70575 0.1518 0.0
C265 C 0.39345 0.75895 0.42186 0.0
C266 C 0.40391 0.71632 0.42055 0.0
C267 C 0.41656 0.70447 0.43577 0.0
C268 C 0.41436 0.74057 0.44546 0.0
N269 N 0.40143 0.77451 0.43718 0.0
Co270 Co 0.40207 0.83508 0.44506 0.0
N271 N 0.43679 0.82253 0.46254 0.0
C272 C 0.44313 0.7833 0.46883 0.0
C273 C 0.46549 0.78415 0.48201 0.0
C274 C 0.47413 0.82654 0.48406 0.0
C275 C 0.45594 0.84944 0.47211 0.0
N276 N 0.40283 0.89591 0.45254 0.0
C277 C 0.42583 0.91703 0.46234 0.0
C278 C 0.41552 0.95933 0.46476 0.0
C279 C 0.38476 0.96444 0.45644 0.0
C280 C 0.378 0.9252 0.44939 0.0
N281 N 0.36684 0.84722 0.42785 0.0
C282 C 0.34459 0.88048 0.42808 0.0
C283 C 0.32078 0.87876 0.41547 0.0
C284 C 0.32868 0.84216 0.40676 0.0
C285 C 0.35743 0.82384 0.4144 0.0
N286 N 0.36493 0.8228 0.46103 0.0
C287 C 0.31054 0.81013 0.48377 0.0
C288 C 0.3395 0.83512 0.48787 0.0
C289 C 0.3663 0.84066 0.4765 0.0
C290 C 0.30984 0.79088 0.46799 0.0
C291 C 0.3372 0.79768 0.45682 0.0
N292 N 0.43908 0.84739 0.42929 0.0
C293 C 0.4615 0.88938 0.4067 0.0
C294 C 0.48929 0.86078 0.40486 0.0
C295 C 0.4921 0.82627 0.41592 0.0
C296 C 0.46687 0.8203 0.42807 0.0
C297 C 0.43666 0.88208 0.41898 0.0
H298 H 0.46945 0.79313 0.43625 0.0
H299 H 0.41502 0.90389 0.41988 0.0
H300 H 0.38787 0.86024 0.48024 0.0
H301 H 0.33574 0.78304 0.44471 0.0
C302 C 0.43175 0.74642 0.46052 0.0
C303 C 0.37427 0.78352 0.40898 0.0
C304 C 0.45458 0.89669 0.47143 0.0
C305 C 0.35069 0.91569 0.43851 0.0
H306 H 0.40396 0.6959 0.40975 0.0
H307 H 0.42864 0.67415 0.43892 0.0
H308 H 0.4744 0.7571 0.48922 0.0
H309 H 0.49103 0.83922 0.49359 0.0
H310 H 0.42826 0.98352 0.47222 0.0
H311 H 0.36935 0.99342 0.45556 0.0
H312 H 0.30083 0.90204 0.41257 0.0
H313 H 0.31479 0.83043 0.39603 0.0
H314 H 0.34129 0.85153 0.49967 0.0
H315 H 0.28836 0.77074 0.46424 0.0
H316 H 0.45826 0.91633 0.39835 0.0
H317 H 0.51346 0.80375 0.41508 0.0
C318 C 0.45547 0.15032 0.66991 0.0
C319 C 0.49132 0.15428 0.66925 0.0
C320 C 0.50085 0.17859 0.68257 0.0
C321 C 0.47045 0.18838 0.6905 0.0
N322 N 0.44207 0.17113 0.68325 0.0
Co323 Co 0.39239 0.18088 0.68969 0.0
N324 N 0.40595 0.22314 0.70734 0.0
C325 C 0.43843 0.23639 0.71107 0.0
C326 C 0.43979 0.26562 0.72374 0.0
C327 C 0.40619 0.27096 0.72859 0.0
C328 C 0.38622 0.24427 0.71864 0.0
N329 N 0.34272 0.19019 0.6962 0.0
C330 C 0.32901 0.21311 0.70893 0.0
C331 C 0.2933 0.20754 0.70994 0.0
C332 C 0.28411 0.18065 0.69739 0.0
C333 C 0.31453 0.17083 0.68954 0.0
N334 N 0.37875 0.13911 0.67192 0.0
C335 C 0.3464 0.12543 0.66818 0.0
C336 C 0.34511 0.09761 0.65504 0.0
C337 C 0.37856 0.09415 0.64976 0.0
C338 C 0.39828 0.12047 0.65997 0.0
N339 N 0.39543 0.13317 0.70628 0.0
C340 C 0.39693 0.06831 0.73105 0.0
C341 C 0.37121 0.06902 0.71883 0.0
C342 C 0.37089 0.10133 0.70678 0.0
C343 C 0.42247 0.10024 0.73033 0.0
C344 C 0.42135 0.13184 0.71792 0.0
N345 N 0.3895 0.22825 0.67308 0.0
C346 C 0.36177 0.26003 0.64906 0.0
C347 C 0.38965 0.28813 0.64658 0.0
C348 C 0.4167 0.28688 0.65815 0.0
C349 C 0.41606 0.25712 0.67119 0.0
C350 C 0.36211 0.23089 0.6623 0.0
H351 H 0.43773 0.25748 0.67938 0.0
H352 H 0.34032 0.20997 0.66333 0.0
H353 H 0.35025 0.09988 0.6981 0.0
H354 H 0.44153 0.15516 0.71817 0.0
C355 C 0.46726 0.21872 0.70313 0.0
C356 C 0.4349 0.12914 0.65708 0.0
C357 C 0.34881 0.23912 0.72073 0.0
C358 C 0.3176 0.1413 0.67662 0.0
H359 H 0.50877 0.14243 0.65982 0.0
H360 H 0.52664 0.18986 0.68556 0.0
H361 H 0.46259 0.28049 0.72906 0.0
H362 H 0.39746 0.29159 0.73855 0.0
H363 H 0.27561 0.22046 0.71906 0.0
H364 H 0.25844 0.16847 0.69467 0.0
H365 H 0.32242 0.08278 0.6496 0.0
H366 H 0.3873 0.07553 0.63923 0.0
H367 H 0.35125 0.04459 0.71844 0.0
H368 H 0.44296 0.1016 0.73948 0.0
H369 H 0.34014 0.25932 0.64051 0.0
H370 H 0.43855 0.30857 0.65714 0.0
C371 C 0.12114 0.23193 0.91999 0.0
C372 C 0.11816 0.27634 0.91914 0.0
C373 C 0.10009 0.28896 0.93284 0.0
C374 C 0.09332 0.25181 0.94136 0.0
N375 N 0.10634 0.2162 0.93405 0.0
Co376 Co 0.10135 0.15548 0.94215 0.0
N377 N 0.06923 0.17315 0.96056 0.0
C378 C 0.05955 0.21375 0.96435 0.0
C379 C 0.03851 0.21645 0.97796 0.0
C380 C 0.03358 0.17503 0.98296 0.0
C381 C 0.05227 0.14924 0.97213 0.0
N382 N 0.09664 0.09475 0.95034 0.0
C383 C 0.07706 0.07799 0.9628 0.0
C384 C 0.08128 0.03377 0.96395 0.0
C385 C 0.10456 0.02229 0.95203 0.0
C386 C 0.11311 0.05984 0.94419 0.0
N387 N 0.13257 0.13769 0.92336 0.0
C388 C 0.14366 0.09732 0.92006 0.0
C389 C 0.16181 0.09379 0.90555 0.0
C390 C 0.16193 0.13414 0.89898 0.0
C391 C 0.14413 0.16038 0.91002 0.0
N392 N 0.14222 0.16329 0.95712 0.0
C393 C 0.19674 0.16879 0.9806 0.0
C394 C 0.19646 0.13688 0.96841 0.0
C395 C 0.16932 0.13475 0.95695 0.0
C396 C 0.17 0.1991 0.98031 0.0
C397 C 0.14352 0.19601 0.96851 0.0
N398 N 0.06095 0.14766 0.92737 0.0
C399 C 0.03173 0.10672 0.90617 0.0
C400 C 0.00766 0.13968 0.90376 0.0
C401 C 0.00991 0.17607 0.91389 0.0
C402 C 0.03654 0.17932 0.92558 0.0
C403 C 0.05774 0.1112 0.91802 0.0
H404 H 0.03729 0.20796 0.93286 0.0
H405 H 0.07547 0.08514 0.91913 0.0
H406 H 0.17083 0.10933 0.94823 0.0
H407 H 0.12421 0.22022 0.9691 0.0
C408 C 0.07161 0.24879 0.95517 0.0
C409 C 0.13759 0.20618 0.90695 0.0
C410 C 0.05374 0.10236 0.97365 0.0
C411 C 0.13421 0.0628 0.93017 0.0
H412 H 0.12744 0.2974 0.90944 0.0
H413 H 0.09175 0.3212 0.9359 0.0
H414 H 0.02864 0.24526 0.98376 0.0
H415 H 0.01841 0.16501 0.99356 0.0
H416 H 0.06851 0.01184 0.97237 0.0
H417 H 0.11349 0.99018 0.94913 0.0
H418 H 0.17242 0.06493 0.90004 0.0
H419 H 0.17299 0.1427 0.88713 0.0
H420 H 0.21707 0.11332 0.96768 0.0
H421 H 0.16881 0.2246 0.98942 0.0
H422 H 0.03131 0.078 0.8986 0.0
H423 H 0.99139 0.20208 0.91276 0.0
C424 C 0.83542 0.77588 0.68325 0.0
C425 C 0.84665 0.73423 0.68608 0.0
C426 C 0.85413 0.73154 0.70271 0.0
C427 C 0.84695 0.77156 0.70907 0.0
N428 N 0.83514 0.79892 0.69751 0.0
Co429 Co 0.8243 0.86068 0.70075 0.0
N430 N 0.85201 0.86376 0.72155 0.0
C431 C 0.86218 0.82933 0.73049 0.0
C432 C 0.87788 0.84014 0.74513 0.0
C433 C 0.87688 0.88404 0.74571 0.0
C434 C 0.86061 0.89786 0.73128 0.0
N435 N 0.81402 0.92296 0.70345 0.0
C436 C 0.82809 0.95264 0.71381 0.0
C437 C 0.81379 0.99295 0.71094 0.0
C438 C 0.78875 0.9878 0.69908 0.0
C439 C 0.78946 0.94496 0.69514 0.0
N440 N 0.79613 0.85661 0.68018 0.0
C441 C 0.77188 0.88483 0.67518 0.0
C442 C 0.75928 0.87564 0.65966 0.0
C443 C 0.77701 0.83984 0.65453 0.0
C444 C 0.79929 0.82866 0.66734 0.0
N445 N 0.78335 0.84584 0.71419 0.0
C446 C 0.7325 0.81838 0.73696 0.0
C447 C 0.74904 0.8582 0.73869 0.0
C448 C 0.77457 0.87075 0.72751 0.0
C449 C 0.74011 0.79422 0.72266 0.0
C450 C 0.76504 0.80894 0.71129 0.0
N451 N 0.86511 0.87475 0.68743 0.0
C452 C 0.88768 0.90207 0.66173 0.0
C453 C 0.91746 0.87661 0.66344 0.0
C454 C 0.9218 0.85338 0.67818 0.0
C455 C 0.89545 0.85308 0.69004 0.0
C456 C 0.86201 0.901 0.67393 0.0
H457 H 0.89875 0.83303 0.7008 0.0
H458 H 0.83867 0.91919 0.67185 0.0
H459 H 0.78789 0.90011 0.73017 0.0
H460 H 0.77051 0.78949 0.70053 0.0
C461 C 0.85828 0.78743 0.72435 0.0
C462 C 0.82387 0.79234 0.6671 0.0
C463 C 0.84944 0.94267 0.72852 0.0
C464 C 0.76969 0.92511 0.68277 0.0
H465 H 0.84959 0.70881 0.67703 0.0
H466 H 0.86556 0.70449 0.70913 0.0
H467 H 0.88845 0.81867 0.7544 0.0
H468 H 0.88584 0.9033 0.756 0.0
H469 H 0.81956 0.02258 0.71739 0.0
H470 H 0.77204 0.01238 0.69395 0.0
H471 H 0.74182 0.895 0.65227 0.0
H472 H 0.77466 0.82535 0.64243 0.0
H473 H 0.74324 0.87946 0.74894 0.0
H474 H 0.7281 0.76333 0.72048 0.0
H475 H 0.88318 0.92077 0.65062 0.0
H476 H 0.94485 0.83429 0.6803 0.0
C477 C 0.88915 0.06103 0.42697 0.0
C478 C 0.87423 0.03918 0.41379 0.0
C479 C 0.87459 0.9966 0.41786 0.0
C480 C 0.88984 0.99476 0.43319 0.0
N481 N 0.8984 0.03374 0.43938 0.0
Co482 Co 0.92543 0.04546 0.46022 0.0
N483 N 0.93255 0.98249 0.46459 0.0
C484 C 0.91964 0.94952 0.45557 0.0
C485 C 0.92835 0.90983 0.46164 0.0
C486 C 0.94791 0.91782 0.47541 0.0
C487 C 0.95004 0.96214 0.47696 0.0
N488 N 0.95321 0.0574 0.48077 0.0
C489 C 0.96938 0.03011 0.49143 0.0
C490 C 0.98601 0.05222 0.50408 0.0
C491 C 0.98017 0.09487 0.50136 0.0
C492 C 0.96041 0.09647 0.48726 0.0
N493 N 0.91816 0.1083 0.45592 0.0
C494 C 0.92761 0.14128 0.46584 0.0
C495 C 0.92075 0.18093 0.4592 0.0
C496 C 0.90687 0.17281 0.44395 0.0
C497 C 0.90626 0.12849 0.44214 0.0
N498 N 0.8818 0.04386 0.47354 0.0
C499 C 0.8176 0.0447 0.49054 0.0
C500 C 0.8434 0.07483 0.49414 0.0
C501 C 0.87504 0.07371 0.48564 0.0
C502 C 0.82491 0.01355 0.4786 0.0
C503 C 0.8568 0.01361 0.47043 0.0
N504 N 0.968 0.04762 0.44661 0.0
C505 C 0.01054 0.09311 0.43353 0.0
C506 C 0.01139 0.06616 0.41961 0.0
C507 C 0.99381 0.02691 0.42063 0.0
C508 C 0.9731 0.01793 0.43436 0.0
C509 C 0.98897 0.08308 0.4469 0.0
H510 H 0.95942 0.98818 0.4342 0.0
H511 H 0.98788 0.10568 0.45687 0.0
H512 H 0.89345 0.09748 0.48905 0.0
H513 H 0.86025 0.989 0.46152 0.0
C514 C 0.90032 0.95694 0.44115 0.0
C515 C 0.89645 0.10718 0.42671 0.0
C516 C 0.96918 0.98321 0.49034 0.0
C517 C 0.94765 0.13407 0.48 0.0
H518 H 0.86534 0.05232 0.40213 0.0
H519 H 0.86655 0.96997 0.41014 0.0
H520 H 0.92149 0.87875 0.4566 0.0
H521 H 0.95942 0.89378 0.48339 0.0
H522 H 0.00062 0.03884 0.51431 0.0
H523 H 0.98907 0.12154 0.50884 0.0
H524 H 0.92703 0.21204 0.46439 0.0
H525 H 0.89943 0.19674 0.43489 0.0
H526 H 0.83935 0.09912 0.50356 0.0
H527 H 0.80582 0.98958 0.47524 0.0
H528 H 0.02522 0.12274 0.43385 0.0
H529 H 0.99395 0.00419 0.41048 0.0
C530 C 0.67038 0.23192 0.18451 0.0
C531 C 0.65942 0.27373 0.18721 0.0
C532 C 0.65154 0.27667 0.20379 0.0
C533 C 0.65822 0.23661 0.21024 0.0
N534 N 0.67006 0.20898 0.19879 0.0
Co535 Co 0.68035 0.14711 0.20214 0.0
N536 N 0.65211 0.1446 0.22279 0.0
C537 C 0.6422 0.17928 0.23167 0.0
C538 C 0.62647 0.16891 0.24634 0.0
C539 C 0.62712 0.12503 0.24701 0.0
C540 C 0.64317 0.11074 0.23258 0.0
N541 N 0.69003 0.08475 0.20496 0.0
C542 C 0.67521 0.05529 0.21518 0.0
C543 C 0.68882 0.01465 0.21222 0.0
C544 C 0.71433 0.01939 0.20056 0.0
C545 C 0.7145 0.06232 0.19676 0.0
N546 N 0.70913 0.15071 0.18175 0.0
C547 C 0.73332 0.1222 0.17693 0.0
C548 C 0.74658 0.13139 0.16153 0.0
C549 C 0.72935 0.1675 0.1563 0.0
C550 C 0.70664 0.17874 0.16892 0.0
N551 N 0.72102 0.1615 0.21578 0.0
C552 C 0.77146 0.18848 0.23876 0.0
C553 C 0.75482 0.14869 0.24038 0.0
C554 C 0.72943 0.1364 0.22909 0.0
C555 C 0.76426 0.21278 0.22444 0.0
C556 C 0.73957 0.19824 0.21296 0.0
N557 N 0.63987 0.1334 0.18859 0.0
C558 C 0.61813 0.10589 0.16279 0.0
C559 C 0.58833 0.1314 0.16423 0.0
C560 C 0.58358 0.15493 0.17888 0.0
C561 C 0.60957 0.15535 0.19092 0.0
C562 C 0.64332 0.10696 0.17518 0.0
H563 H 0.60604 0.17559 0.20162 0.0
H564 H 0.66662 0.08857 0.17331 0.0
H565 H 0.71593 0.10711 0.23168 0.0
H566 H 0.73446 0.21773 0.20217 0.0
C567 C 0.64652 0.22106 0.22549 0.0
C568 C 0.68227 0.21517 0.16848 0.0
C569 C 0.65362 0.06564 0.2298 0.0
C570 C 0.73485 0.08185 0.18452 0.0
H571 H 0.65696 0.29909 0.17811 0.0
H572 H 0.64021 0.30394 0.21011 0.0
H573 H 0.61617 0.19065 0.25558 0.0
H574 H 0.61811 0.1062 0.2574 0.0
H575 H 0.68224 0.98497 0.21846 0.0
H576 H 0.73068 0.99445 0.19543 0.0
H577 H 0.7642 0.11191 0.15427 0.0
H578 H 0.73232 0.1823 0.14428 0.0
H579 H 0.76039 0.1273 0.2506 0.0
H580 H 0.77636 0.24364 0.22235 0.0
H581 H 0.62303 0.08701 0.15176 0.0
H582 H 0.56047 0.17404 0.18082 0.0
C583 C 0.61055 0.93968 0.92711 0.0
C584 C 0.62737 0.96139 0.91444 0.0
C585 C 0.62629 0.00403 0.91841 0.0
C586 C 0.60908 0.00594 0.93327 0.0
N587 N 0.59994 0.96696 0.93925 0.0
Co588 Co 0.57163 0.95507 0.95962 0.0
N589 N 0.56324 0.018 0.96365 0.0
C590 C 0.57607 0.05105 0.95464 0.0
C591 C 0.56598 0.09065 0.96029 0.0
C592 C 0.54549 0.08253 0.97373 0.0
C593 C 0.54428 0.03824 0.97556 0.0
N594 N 0.54279 0.94306 0.97983 0.0
C595 C 0.52545 0.9702 0.99013 0.0
C596 C 0.50881 0.94802 1.00277 0.0
C597 C 0.51568 0.9055 1.00036 0.0
C598 C 0.53611 0.90405 0.98648 0.0
N599 N 0.57984 0.89218 0.95553 0.0
C600 C 0.56947 0.85925 0.96528 0.0
C601 C 0.57576 0.81957 0.9586 0.0
C602 C 0.59027 0.82752 0.9435 0.0
C603 C 0.59233 0.87189 0.94186 0.0
N604 N 0.61447 0.95768 0.97356 0.0
C605 C 0.67861 0.95747 0.99071 0.0
C606 C 0.65366 0.92575 0.99363 0.0
C607 C 0.62202 0.9266 0.98508 0.0
C608 C 0.67028 0.99001 0.97949 0.0
C609 C 0.63845 0.98964 0.97126 0.0
N610 N 0.53002 0.95185 0.94536 0.0
C611 C 0.48875 0.90521 0.93193 0.0
C612 C 0.48888 0.93128 0.91776 0.0
C613 C 0.50627 0.97065 0.9187 0.0
C614 C 0.52586 0.98063 0.9327 0.0
C615 C 0.50914 0.91631 0.94562 0.0
H616 H 0.53953 0.01039 0.93247 0.0
H617 H 0.50943 0.89447 0.95585 0.0
H618 H 0.60429 0.90155 0.98794 0.0
H619 H 0.63427 0.0154 0.96294 0.0
C620 C 0.59708 0.04374 0.94075 0.0
C621 C 0.60364 0.89347 0.92664 0.0
C622 C 0.52449 0.01705 0.98872 0.0
C623 C 0.54912 0.86657 0.9793 0.0
H624 H 0.63812 0.9479 0.90319 0.0
H625 H 0.63529 0.03062 0.91091 0.0
H626 H 0.57258 0.12175 0.95519 0.0
H627 H 0.53275 0.10651 0.98131 0.0
H628 H 0.49342 0.96123 0.01276 0.0
H629 H 0.50684 0.8788 0.00784 0.0
H630 H 0.56849 0.7886 0.96361 0.0
H631 H 0.59688 0.80318 0.9345 0.0
H632 H 0.6584 0.90034 1.00251 0.0
H633 H 0.6886 0.01534 0.97666 0.0
H634 H 0.47413 0.87554 0.93226 0.0
H635 H 0.50681 0.99269 0.90833 0.0
C636 C 0.8276 0.22778 0.82962 0.0
C637 C 0.83871 0.26949 0.82685 0.0
C638 C 0.84636 0.27228 0.81023 0.0
C639 C 0.83939 0.23223 0.80384 0.0
N640 N 0.82761 0.20477 0.81536 0.0
Co641 Co 0.81694 0.14302 0.81207 0.0
N642 N 0.84507 0.14011 0.79142 0.0
C643 C 0.85507 0.17457 0.78245 0.0
C644 C 0.87131 0.16376 0.76795 0.0
C645 C 0.87094 0.11983 0.76751 0.0
C646 C 0.85449 0.10598 0.7819 0.0
N647 N 0.80676 0.0808 0.80927 0.0
C648 C 0.82136 0.0511 0.79907 0.0
C649 C 0.80684 0.01084 0.80177 0.0
C650 C 0.78123 0.01605 0.81336 0.0
C651 C 0.7818 0.05888 0.81733 0.0
N652 N 0.78837 0.147 0.8325 0.0
C653 C 0.76394 0.11887 0.83735 0.0
C654 C 0.75089 0.12821 0.85277 0.0
C655 C 0.76849 0.16407 0.85799 0.0
C656 C 0.79122 0.17499 0.84534 0.0
N657 N 0.77626 0.15778 0.7985 0.0
C658 C 0.72505 0.18474 0.77587 0.0
C659 C 0.7421 0.14526 0.77398 0.0
C660 C 0.76787 0.13301 0.78509 0.0
C661 C 0.73244 0.20879 0.79022 0.0
C662 C 0.75754 0.19429 0.80152 0.0
N663 N 0.8574 0.12888 0.82553 0.0
C664 C 0.87944 0.10074 0.85117 0.0
C665 C 0.9094 0.12589 0.84961 0.0
C666 C 0.91405 0.14954 0.83499 0.0
C667 C 0.88782 0.15046 0.82309 0.0
C668 C 0.85398 0.10233 0.83891 0.0
H669 H 0.89131 0.17078 0.81241 0.0
H670 H 0.83054 0.08424 0.84084 0.0
H671 H 0.78166 0.10399 0.78232 0.0
H672 H 0.7628 0.2136 0.81234 0.0
C673 C 0.85089 0.21647 0.78856 0.0
C674 C 0.8158 0.21122 0.8457 0.0
C675 C 0.8441 0.06095 0.78482 0.0
C676 C 0.76177 0.07868 0.82965 0.0
H677 H 0.84142 0.29489 0.83592 0.0
H678 H 0.85773 0.29942 0.80385 0.0
H679 H 0.88197 0.18524 0.75871 0.0
H680 H 0.8805 0.10054 0.75735 0.0
H681 H 0.81302 0.98112 0.79547 0.0
H682 H 0.76437 0.99146 0.81836 0.0
H683 H 0.73308 0.10904 0.86003 0.0
H684 H 0.76572 0.17896 0.87 0.0
H685 H 0.73653 0.12409 0.76369 0.0
H686 H 0.72014 0.23945 0.7925 0.0
H687 H 0.87467 0.08178 0.86219 0.0
H688 H 0.93726 0.16839 0.83299 0.0
C689 C 0.60897 0.06879 0.58556 0.0
C690 C 0.62257 0.04618 0.59888 0.0
C691 C 0.61999 0.00362 0.59499 0.0
C692 C 0.6051 0.00267 0.57956 0.0
N693 N 0.59901 0.04207 0.57312 0.0
Co694 Co 0.57386 0.05539 0.55195 0.0
N695 N 0.56452 0.99294 0.54746 0.0
C696 C 0.57637 0.95926 0.55642 0.0
C697 C 0.5672 0.92007 0.55005 0.0
C698 C 0.54851 0.92914 0.53613 0.0
C699 C 0.54709 0.97359 0.53484 0.0
N700 N 0.54716 0.06892 0.53121 0.0
C701 C 0.53032 0.04268 0.5204 0.0
C702 C 0.51394 0.066 0.50799 0.0
C703 C 0.52102 0.10826 0.51091 0.0
C704 C 0.54099 0.10848 0.52495 0.0
N705 N 0.58422 0.1177 0.55617 0.0
C706 C 0.57672 0.15098 0.54601 0.0
C707 C 0.58465 0.19027 0.55264 0.0
C708 C 0.59726 0.18171 0.56808 0.0
C709 C 0.59656 0.13737 0.57001 0.0
N710 N 0.61782 0.05083 0.53902 0.0
C711 C 0.68245 0.04814 0.52245 0.0
C712 C 0.6568 0.07751 0.51781 0.0
C713 C 0.62495 0.07819 0.52613 0.0
C714 C 0.67477 0.01948 0.53525 0.0
C715 C 0.64267 0.02124 0.5432 0.0
N716 N 0.53095 0.06045 0.56521 0.0
C717 C 0.4944 0.10964 0.58027 0.0
C718 C 0.49006 0.07949 0.593 0.0
C719 C 0.5021 0.03769 0.5902 0.0
C720 C 0.52219 0.02882 0.57623 0.0
C721 C 0.51406 0.09902 0.56632 0.0
H722 H 0.53235 0.99702 0.5752 0.0
H723 H 0.51753 0.12353 0.55718 0.0
H724 H 0.60667 0.10132 0.52192 0.0
H725 H 0.6389 0.99851 0.55282 0.0
C726 C 0.59437 0.96557 0.57127 0.0
C727 C 0.6046 0.11547 0.58562 0.0
C728 C 0.52925 0.99572 0.52127 0.0
C729 C 0.55591 0.14497 0.53205 0.0
H730 H 0.63237 0.05913 0.61041 0.0
H731 H 0.62687 0.97657 0.60275 0.0
H732 H 0.57318 0.88863 0.55502 0.0
H733 H 0.53725 0.90564 0.52784 0.0
H734 H 0.49861 0.05375 0.4978 0.0
H735 H 0.51291 0.13556 0.50356 0.0
H736 H 0.5793 0.2216 0.5474 0.0
H737 H 0.60423 0.20579 0.57713 0.0
H738 H 0.66113 0.09983 0.50772 0.0
H739 H 0.69374 0.99621 0.53943 0.0
H740 H 0.48476 0.14215 0.58145 0.0
H741 H 0.49754 0.01231 0.59911 0.0
C742 C 0.64663 0.76856 0.32589 0.0
C743 C 0.6266 0.73237 0.32265 0.0
C744 C 0.61908 0.73287 0.30603 0.0
C745 C 0.63397 0.76963 0.29998 0.0
N746 N 0.6506 0.79208 0.31177 0.0
Co747 Co 0.66881 0.85155 0.30939 0.0
N748 N 0.64004 0.8632 0.28943 0.0
C749 C 0.62556 0.83249 0.2799 0.0
C750 C 0.61028 0.84828 0.26585 0.0
C751 C 0.6161 0.89157 0.26631 0.0
C752 C 0.63457 0.9001 0.28078 0.0
N753 N 0.68669 0.91126 0.30769 0.0
C754 C 0.67529 0.9451 0.29853 0.0
C755 C 0.69496 0.98149 0.30189 0.0
C756 C 0.72057 0.9693 0.31269 0.0
C757 C 0.71487 0.92649 0.31564 0.0
N758 N 0.69788 0.8389 0.32896 0.0
C759 C 0.7269 0.85979 0.33336 0.0
C760 C 0.74164 0.84311 0.34749 0.0
C761 C 0.72016 0.81015 0.35229 0.0
C762 C 0.69318 0.80897 0.34093 0.0
N763 N 0.7062 0.83135 0.29474 0.0
C764 C 0.75601 0.80129 0.27197 0.0
C765 C 0.7413 0.84223 0.2704 0.0
C766 C 0.71634 0.85618 0.28162 0.0
C767 C 0.74623 0.77641 0.28577 0.0
C768 C 0.72162 0.79222 0.29708 0.0
N769 N 0.63164 0.87129 0.32393 0.0
C770 C 0.61507 0.89806 0.35075 0.0
C771 C 0.58268 0.87819 0.34921 0.0
C772 C 0.57409 0.85868 0.33414 0.0
C773 C 0.59877 0.8561 0.32157 0.0
C774 C 0.63921 0.89434 0.3379 0.0
H775 H 0.59205 0.83885 0.31046 0.0
H776 H 0.66477 0.90742 0.33979 0.0
H777 H 0.70496 0.88703 0.27935 0.0
H778 H 0.71451 0.7724 0.30753 0.0
C779 C 0.62432 0.78973 0.2852 0.0
C780 C 0.66288 0.78016 0.342 0.0
C781 C 0.65057 0.94215 0.28452 0.0
C782 C 0.73362 0.90053 0.32671 0.0
H783 H 0.61654 0.70879 0.3311 0.0
H784 H 0.60186 0.71119 0.29954 0.0
H785 H 0.5967 0.83044 0.25634 0.0
H786 H 0.60873 0.91367 0.25661 0.0
H787 H 0.69216 0.01311 0.29648 0.0
H788 H 0.74088 0.98933 0.31779 0.0
H789 H 0.76378 0.85545 0.35421 0.0
H790 H 0.72323 0.79038 0.36323 0.0
H791 H 0.74859 0.8636 0.26041 0.0
H792 H 0.75665 0.74449 0.28762 0.0
H793 H 0.62254 0.91378 0.36218 0.0
H794 H 0.54896 0.84383 0.33235 0.0
C795 C 0.88731 0.93352 0.08499 0.0
C796 C 0.87309 0.95553 0.09831 0.0
C797 C 0.87556 0.99827 0.09467 0.0
C798 C 0.89097 0.99993 0.07938 0.0
N799 N 0.89749 0.96082 0.07277 0.0
Co800 Co 0.92332 0.94856 0.0517 0.0
N801 N 0.93263 0.01123 0.04765 0.0
C802 C 0.92026 0.0445 0.05668 0.0
C803 C 0.93036 0.08393 0.05087 0.0
C804 C 0.95031 0.07544 0.03727 0.0
C805 C 0.95128 0.0311 0.03556 0.0
N806 N 0.95085 0.93606 0.03112 0.0
C807 C 0.96903 0.96269 0.02096 0.0
C808 C 0.98527 0.94011 0.00832 0.0
C809 C 0.97728 0.89782 0.01059 0.0
C810 C 0.95672 0.89691 0.02444 0.0
N811 N 0.91302 0.88605 0.05545 0.0
C812 C 0.92066 0.85334 0.04504 0.0
C813 C 0.91293 0.81368 0.05137 0.0
C814 C 0.90026 0.82138 0.06687 0.0
C815 C 0.90064 0.86564 0.06912 0.0
N816 N 0.8796 0.95346 0.03849 0.0
C817 C 0.81471 0.95557 0.02202 0.0
C818 C 0.84083 0.92714 0.01708 0.0
C819 C 0.87281 0.92677 0.02535 0.0
C820 C 0.82215 0.98376 0.035 0.0
C821 C 0.85438 0.98237 0.04287 0.0
N822 N 0.96581 0.94314 0.06522 0.0
C823 C 0.0026 0.8937 0.08004 0.0
C824 C 0.00677 0.92343 0.09293 0.0
C825 C 0.99433 0.96518 0.09039 0.0
C826 C 0.97419 0.97436 0.07647 0.0
C827 C 0.98288 0.90465 0.06614 0.0
H828 H 0.96374 0.00607 0.07564 0.0
H829 H 0.97955 0.88047 0.05684 0.0
H830 H 0.89141 0.90436 0.02089 0.0
H831 H 0.85786 0.00479 0.05261 0.0
C832 C 0.90178 0.03746 0.07136 0.0
C833 C 0.89201 0.88682 0.08484 0.0
C834 C 0.97098 0.00948 0.02248 0.0
C835 C 0.94157 0.86011 0.03116 0.0
H836 H 0.86295 0.94207 0.10969 0.0
H837 H 0.86824 0.02496 0.10253 0.0
H838 H 0.92459 0.11513 0.05612 0.0
H839 H 0.96311 0.09918 0.02962 0.0
H840 H 0.00103 0.95294 0.99838 0.0
H841 H 0.98528 0.87096 1.00298 0.0
H842 H 0.91848 0.78265 0.04592 0.0
H843 H 0.89347 0.79673 0.07571 0.0
H844 H 0.83679 0.90529 0.00681 0.0
H845 H 0.80291 0.00636 0.03943 0.0
H846 H 0.0125 0.86127 0.08103 0.0
H847 H 0.99871 0.99027 0.09944 0.0
C848 C 0.54825 0.65048 0.84184 0.0
C849 C 0.51227 0.65227 0.84223 0.0
C850 C 0.50223 0.67673 0.82904 0.0
C851 C 0.53245 0.68878 0.82143 0.0
N852 N 0.56121 0.67287 0.8288 0.0
Co853 Co 0.6106 0.68478 0.82236 0.0
N854 N 0.59602 0.72708 0.80492 0.0
C855 C 0.56332 0.74036 0.80172 0.0
C856 C 0.5612 0.76994 0.78919 0.0
C857 C 0.59452 0.77558 0.78392 0.0
C858 C 0.61511 0.7487 0.7935 0.0
N859 N 0.65993 0.69524 0.81548 0.0
C860 C 0.67288 0.71788 0.8025 0.0
C861 C 0.70856 0.71245 0.80108 0.0
C862 C 0.71851 0.68597 0.81363 0.0
C863 C 0.68852 0.67617 0.82185 0.0
N864 N 0.62534 0.64383 0.8402 0.0
C865 C 0.65812 0.63231 0.84414 0.0
C866 C 0.66033 0.60499 0.8574 0.0
C867 C 0.62698 0.59961 0.86258 0.0
C868 C 0.60636 0.62432 0.85216 0.0
N869 N 0.60822 0.6371 0.80579 0.0
C870 C 0.60661 0.57148 0.78136 0.0
C871 C 0.6318 0.57179 0.79384 0.0
C872 C 0.63214 0.60448 0.80578 0.0
C873 C 0.5819 0.60442 0.78154 0.0
C874 C 0.5831 0.63644 0.79374 0.0
N875 N 0.61276 0.73221 0.83902 0.0
C876 C 0.64292 0.76905 0.86124 0.0
C877 C 0.61276 0.79119 0.86596 0.0
C878 C 0.58314 0.78465 0.8562 0.0
C879 C 0.58389 0.756 0.84281 0.0
C880 C 0.64229 0.73984 0.848 0.0
H881 H 0.56038 0.75279 0.83599 0.0
H882 H 0.66587 0.72314 0.84547 0.0
H883 H 0.65217 0.60269 0.81481 0.0
H884 H 0.56358 0.66058 0.79304 0.0
C885 C 0.53497 0.72072 0.80935 0.0
C886 C 0.56922 0.63006 0.85473 0.0
C887 C 0.65243 0.74378 0.79092 0.0
C888 C 0.68629 0.64801 0.83522 0.0
H889 H 0.49498 0.63894 0.85143 0.0
H890 H 0.47614 0.68667 0.82595 0.0
H891 H 0.53803 0.78448 0.78409 0.0
H892 H 0.60265 0.79634 0.77389 0.0
H893 H 0.72573 0.72536 0.79173 0.0
H894 H 0.74439 0.67425 0.81617 0.0
H895 H 0.68347 0.59131 0.86285 0.0
H896 H 0.61883 0.58049 0.87308 0.0
H897 H 0.65119 0.5467 0.79455 0.0
H898 H 0.56197 0.60615 0.77211 0.0
H899 H 0.66711 0.77368 0.86779 0.0
H900 H 0.55885 0.80039 0.85906 0.0
C901 C 0.62188 0.27216 0.09385 0.0
C902 C 0.61871 0.22778 0.09471 0.0
C903 C 0.60026 0.21534 0.08111 0.0
C904 C 0.59346 0.25257 0.07264 0.0
N905 N 0.60683 0.28806 0.07988 0.0
Co906 Co 0.60162 0.34893 0.07195 0.0
N907 N 0.56944 0.33145 0.05354 0.0
C908 C 0.55983 0.29088 0.04967 0.0
C909 C 0.53913 0.28824 0.03594 0.0
C910 C 0.53444 0.32967 0.03089 0.0
C911 C 0.5529 0.3554 0.04183 0.0
N912 N 0.59654 0.40984 0.06399 0.0
C913 C 0.57719 0.42667 0.05145 0.0
C914 C 0.58101 0.47097 0.0505 0.0
C915 C 0.60386 0.48245 0.0626 0.0
C916 C 0.61256 0.44481 0.07034 0.0
N917 N 0.63319 0.36649 0.09064 0.0
C918 C 0.6443 0.4068 0.09399 0.0
C919 C 0.66298 0.41003 0.10836 0.0
C920 C 0.66346 0.36952 0.11477 0.0
C921 C 0.64527 0.34352 0.1038 0.0
N922 N 0.64226 0.34159 0.05682 0.0
C923 C 0.69621 0.33656 0.03305 0.0
C924 C 0.69554 0.36917 0.04496 0.0
C925 C 0.66868 0.37105 0.05657 0.0
C926 C 0.67017 0.30538 0.03378 0.0
C927 C 0.64397 0.30827 0.04572 0.0
N928 N 0.5614 0.35624 0.08692 0.0
C929 C 0.53285 0.39595 0.10868 0.0
C930 C 0.50869 0.36302 0.11091 0.0
C931 C 0.51053 0.32733 0.1004 0.0
C932 C 0.53686 0.32468 0.08853 0.0
C933 C 0.55855 0.39209 0.09664 0.0
H934 H 0.53727 0.29655 0.08096 0.0
H935 H 0.57633 0.4181 0.0957 0.0
H936 H 0.6698 0.39702 0.06507 0.0
H937 H 0.62517 0.2834 0.04548 0.0
C938 C 0.57173 0.25575 0.05885 0.0
C939 C 0.63876 0.29771 0.10681 0.0
C940 C 0.55466 0.40226 0.04024 0.0
C941 C 0.63414 0.44161 0.08419 0.0
H942 H 0.62812 0.20662 0.10435 0.0
H943 H 0.59175 0.18316 0.07806 0.0
H944 H 0.52941 0.25945 0.03006 0.0
H945 H 0.51965 0.33969 0.02017 0.0
H946 H 0.56837 0.49291 0.04203 0.0
H947 H 0.61264 0.51456 0.06559 0.0
H948 H 0.67367 0.4388 0.1139 0.0
H949 H 0.67497 0.36069 0.1265 0.0
H950 H 0.71562 0.39345 0.04535 0.0
H951 H 0.66931 0.27932 0.0249 0.0
H952 H 0.53273 0.42417 0.11653 0.0
H953 H 0.4919 0.3014 0.10136 0.0
C954 C 0.95572 0.35434 0.34373 0.0
C955 C 0.99159 0.3509 0.34453 0.0
C956 C 0.0015 0.32575 0.33152 0.0
C957 C 0.9713 0.3149 0.32364 0.0
N958 N 0.94268 0.33238 0.3306 0.0
Co959 Co 0.89318 0.32167 0.32407 0.0
N960 N 0.90739 0.27903 0.30667 0.0
C961 C 0.94006 0.26627 0.30304 0.0
C962 C 0.94187 0.23697 0.2904 0.0
C963 C 0.90838 0.23115 0.28545 0.0
C964 C 0.88803 0.2576 0.29532 0.0
N965 N 0.84366 0.31109 0.31759 0.0
C966 C 0.83033 0.28758 0.30493 0.0
C967 C 0.79451 0.29209 0.30396 0.0
C968 C 0.78488 0.31892 0.31646 0.0
C969 C 0.81515 0.32975 0.32424 0.0
N970 N 0.8789 0.36419 0.34146 0.0
C971 C 0.84639 0.37769 0.34497 0.0
C972 C 0.84469 0.40654 0.35776 0.0
C973 C 0.87806 0.411 0.36304 0.0
C974 C 0.89814 0.38418 0.35318 0.0
N975 N 0.89589 0.36868 0.30719 0.0
C976 C 0.89766 0.4329 0.28217 0.0
C977 C 0.87066 0.43101 0.29373 0.0
C978 C 0.87026 0.39905 0.30593 0.0
C979 C 0.92418 0.40239 0.28364 0.0
C980 C 0.92285 0.37104 0.29612 0.0
N981 N 0.89066 0.27492 0.34101 0.0
C982 C 0.86349 0.24377 0.36532 0.0
C983 C 0.89113 0.21514 0.36761 0.0
C984 C 0.91785 0.21605 0.35586 0.0
C985 C 0.91707 0.24575 0.34279 0.0
C986 C 0.86368 0.27285 0.35204 0.0
H987 H 0.93848 0.24502 0.33446 0.0
H988 H 0.84207 0.29409 0.35118 0.0
H989 H 0.8487 0.39953 0.31412 0.0
H990 H 0.94377 0.34874 0.29643 0.0
C991 C 0.96861 0.28426 0.31109 0.0
C992 C 0.93482 0.37635 0.35623 0.0
C993 C 0.8506 0.26219 0.29312 0.0
C994 C 0.8178 0.36036 0.3368 0.0
H995 H 0.00883 0.36381 0.35384 0.0
H996 H 0.02746 0.31491 0.32863 0.0
H997 H 0.96487 0.22238 0.28517 0.0
H998 H 0.89997 0.21038 0.27547 0.0
H999 H 0.77702 0.27863 0.29488 0.0
H1000 H 0.75903 0.33059 0.31913 0.0
H1001 H 0.82179 0.42137 0.363 0.0
H1002 H 0.88652 0.4306 0.37335 0.0
H1003 H 0.84979 0.45427 0.29348 0.0
H1004 H 0.94563 0.40196 0.27499 0.0
H1005 H 0.84214 0.24484 0.37402 0.0
H1006 H 0.93951 0.19402 0.35671 0.0
C1007 C 0.88201 0.73603 0.59214 0.0
C1008 C 0.88355 0.78058 0.59265 0.0
C1009 C 0.89705 0.79371 0.57775 0.0
C1010 C 0.90284 0.75665 0.56893 0.0
N1011 N 0.89397 0.72107 0.57739 0.0
Co1012 Co 0.89841 0.66113 0.56919 0.0
N1013 N 0.93221 0.67799 0.55175 0.0
C1014 C 0.93673 0.71822 0.54601 0.0
C1015 C 0.95988 0.72041 0.53314 0.0
C1016 C 0.97058 0.67894 0.53055 0.0
C1017 C 0.95311 0.65355 0.54198 0.0
N1018 N 0.90281 0.60095 0.56109 0.0
C1019 C 0.92663 0.58275 0.55086 0.0
C1020 C 0.91969 0.53934 0.54861 0.0
C1021 C 0.89007 0.5305 0.55732 0.0
C1022 C 0.88067 0.56869 0.56451 0.0
N1023 N 0.86439 0.64465 0.5866 0.0
C1024 C 0.8464 0.60762 0.58714 0.0
C1025 C 0.82676 0.60366 0.60123 0.0
C1026 C 0.83262 0.64051 0.61008 0.0
C1027 C 0.8552 0.66551 0.60074 0.0
N1028 N 0.86036 0.67085 0.55346 0.0
C1029 C 0.80619 0.68408 0.53063 0.0
C1030 C 0.80423 0.7004 0.54686 0.0
C1031 C 0.83139 0.69321 0.55806 0.0
C1032 C 0.83607 0.66115 0.5262 0.0
C1033 C 0.86273 0.65523 0.53765 0.0
N1034 N 0.93628 0.65151 0.58479 0.0
C1035 C 0.96152 0.60976 0.60676 0.0
C1036 C 0.9872 0.64096 0.60917 0.0
C1037 C 0.98744 0.67698 0.59873 0.0
C1038 C 0.96184 0.68156 0.5866 0.0
C1039 C 0.93642 0.6156 0.59453 0.0
H1040 H 0.96235 0.70985 0.57891 0.0
H1041 H 0.91662 0.59148 0.59323 0.0
H1042 H 0.82894 0.70575 0.57048 0.0
H1043 H 0.8852 0.6376 0.53365 0.0
C1044 C 0.92174 0.75337 0.55417 0.0
C1045 C 0.86644 0.70934 0.60526 0.0
C1046 C 0.95372 0.60623 0.54172 0.0
C1047 C 0.85443 0.57406 0.57629 0.0
H1048 H 0.87555 0.80144 0.60267 0.0
H1049 H 0.9031 0.82628 0.57405 0.0
H1050 H 0.96809 0.74881 0.52649 0.0
H1051 H 0.98834 0.66844 0.52099 0.0
H1052 H 0.93416 0.51654 0.54122 0.0
H1053 H 0.87744 0.49963 0.5586 0.0
H1054 H 0.81175 0.57609 0.60514 0.0
H1055 H 0.8219 0.64744 0.62216 0.0
H1056 H 0.782 0.7188 0.55093 0.0
H1057 H 0.83879 0.64691 0.51403 0.0
H1058 H 0.96009 0.58161 0.61462 0.0
H1059 H 0.00714 0.70158 0.59994 0.0
C1060 C 0.5489 0.35979 0.66968 0.0
C1061 C 0.51294 0.36134 0.66915 0.0
C1062 C 0.50128 0.33756 0.68224 0.0
C1063 C 0.53065 0.32324 0.69006 0.0
N1064 N 0.56034 0.33694 0.68289 0.0
Co1065 Co 0.60882 0.32301 0.69006 0.0
N1066 N 0.59188 0.2819 0.70742 0.0
C1067 C 0.55862 0.27015 0.71014 0.0
C1068 C 0.55485 0.24066 0.72262 0.0
C1069 C 0.58766 0.23336 0.72832 0.0
C1070 C 0.60961 0.25926 0.71905 0.0
N1071 N 0.65729 0.31086 0.6978 0.0
C1072 C 0.66869 0.28809 0.71107 0.0
C1073 C 0.70429 0.29264 0.71322 0.0
C1074 C 0.7158 0.31855 0.7008 0.0
C1075 C 0.68674 0.32893 0.69196 0.0
N1076 N 0.6259 0.36235 0.67211 0.0
C1077 C 0.65933 0.37123 0.66841 0.0
C1078 C 0.66352 0.39517 0.65433 0.0
C1079 C 0.63084 0.40121 0.6484 0.0
C1080 C 0.60842 0.38093 0.6594 0.0
N1081 N 0.60676 0.37145 0.70629 0.0
C1082 C 0.6058 0.438 0.73034 0.0
C1083 C 0.63079 0.43705 0.71776 0.0
C1084 C 0.63079 0.40392 0.70601 0.0
C1085 C 0.58092 0.40528 0.73042 0.0
C1086 C 0.58178 0.37281 0.71839 0.0
N1087 N 0.61072 0.2749 0.67371 0.0
C1088 C 0.64165 0.23556 0.6524 0.0
C1089 C 0.61099 0.21617 0.64675 0.0
C1090 C 0.58061 0.225 0.65566 0.0
C1091 C 0.58118 0.25347 0.66911 0.0
C1092 C 0.64091 0.26469 0.66566 0.0
H1093 H 0.55707 0.25858 0.67527 0.0
H1094 H 0.66501 0.27927 0.66894 0.0
H1095 H 0.65067 0.40522 0.69686 0.0
H1096 H 0.56211 0.34891 0.71928 0.0
C1097 C 0.53135 0.29127 0.70219 0.0
C1098 C 0.57101 0.37797 0.65678 0.0
C1099 C 0.64688 0.26233 0.72209 0.0
C1100 C 0.6863 0.35562 0.67813 0.0
H1101 H 0.49684 0.3766 0.65987 0.0
H1102 H 0.47464 0.32962 0.68514 0.0
H1103 H 0.53097 0.22725 0.72742 0.0
H1104 H 0.59454 0.21216 0.73843 0.0
H1105 H 0.72041 0.27931 0.72291 0.0
H1106 H 0.74214 0.3292 0.69866 0.0
H1107 H 0.68756 0.40578 0.64875 0.0
H1108 H 0.6246 0.41761 0.63698 0.0
H1109 H 0.65029 0.46197 0.71686 0.0
H1110 H 0.56113 0.40404 0.73992 0.0
H1111 H 0.66632 0.2289 0.64656 0.0
H1112 H 0.55596 0.21131 0.65206 0.0
C1113 C 0.87582 0.26897 0.92035 0.0
C1114 C 0.87853 0.22453 0.91965 0.0
C1115 C 0.89655 0.21207 0.93339 0.0
C1116 C 0.90356 0.24935 0.94178 0.0
N1117 N 0.89077 0.2849 0.93434 0.0
Co1118 Co 0.89609 0.34574 0.94226 0.0
N1119 N 0.92825 0.32823 0.96067 0.0
C1120 C 0.93786 0.28765 0.96452 0.0
C1121 C 0.95902 0.28506 0.9781 0.0
C1122 C 0.96411 0.32654 0.983 0.0
C1123 C 0.94539 0.35224 0.97214 0.0
N1124 N 0.901 0.40657 0.9503 0.0
C1125 C 0.92065 0.42343 0.96272 0.0
C1126 C 0.91646 0.46766 0.96381 0.0
C1127 C 0.89312 0.47905 0.95189 0.0
C1128 C 0.88451 0.44143 0.94412 0.0
N1129 N 0.86492 0.36337 0.92342 0.0
C1130 C 0.85406 0.40375 0.91999 0.0
C1131 C 0.83583 0.4071 0.90549 0.0
C1132 C 0.83543 0.36659 0.89907 0.0
C1133 C 0.85317 0.34047 0.91017 0.0
N1134 N 0.85525 0.3385 0.95729 0.0
C1135 C 0.80118 0.33467 0.98105 0.0
C1136 C 0.80112 0.36555 0.96847 0.0
C1137 C 0.82803 0.36685 0.95688 0.0
C1138 C 0.82795 0.30438 0.98098 0.0
C1139 C 0.85419 0.30662 0.96903 0.0
N1140 N 0.93647 0.3531 0.92744 0.0
C1141 C 0.9662 0.39409 0.90643 0.0
C1142 C 0.99008 0.36094 0.904 0.0
C1143 C 0.98743 0.32435 0.914 0.0
C1144 C 0.96064 0.32117 0.92561 0.0
C1145 C 0.94 0.38965 0.91818 0.0
H1146 H 0.95959 0.2924 0.93281 0.0
H1147 H 0.92243 0.41587 0.9193 0.0
H1148 H 0.82626 0.39154 0.94785 0.0
H1149 H 0.87355 0.28248 0.9698 0.0
C1150 C 0.92545 0.25252 0.95551 0.0
C1151 C 0.85942 0.29455 0.90725 0.0
C1152 C 0.94402 0.39914 0.97358 0.0
C1153 C 0.86348 0.43835 0.93007 0.0
H1154 H 0.86911 0.20333 0.91002 0.0
H1155 H 0.90473 0.17982 0.93654 0.0
H1156 H 0.96881 0.2563 0.98397 0.0
H1157 H 0.97938 0.33665 0.99355 0.0
H1158 H 0.92928 0.48967 0.97218 0.0
H1159 H 0.88423 0.51114 0.94894 0.0
H1160 H 0.82525 0.4359 0.89993 0.0
H1161 H 0.82418 0.35779 0.88728 0.0
H1162 H 0.78043 0.38895 0.96755 0.0
H1163 H 0.82937 0.27961 0.99037 0.0
H1164 H 0.96692 0.42295 0.89894 0.0
H1165 H 0.00577 0.29815 0.91283 0.0
C1166 C 0.95562 0.64865 0.1701 0.0
C1167 C 0.99139 0.65384 0.17012 0.0
C1168 C 0.99927 0.6784 0.18362 0.0
C1169 C 0.96804 0.68702 0.19102 0.0
N1170 N 0.9407 0.66889 0.18319 0.0
Co1171 Co 0.89034 0.67644 0.18889 0.0
N1172 N 0.90136 0.7194 0.20666 0.0
C1173 C 0.93301 0.73528 0.21043 0.0
C1174 C 0.93262 0.76451 0.22313 0.0
C1175 C 0.8987 0.76714 0.22789 0.0
C1176 C 0.88033 0.739 0.21785 0.0
N1177 N 0.8401 0.68248 0.19501 0.0
C1178 C 0.82502 0.70381 0.20779 0.0
C1179 C 0.78962 0.69559 0.20859 0.0
C1180 C 0.78203 0.66847 0.19587 0.0
C1181 C 0.81306 0.66119 0.18816 0.0
N1182 N 0.87907 0.63487 0.1707 0.0
C1183 C 0.84731 0.62061 0.16624 0.0
C1184 C 0.84754 0.59356 0.15285 0.0
C1185 C 0.88141 0.59139 0.14813 0.0
C1186 C 0.89985 0.61762 0.15892 0.0
N1187 N 0.89424 0.62864 0.20536 0.0
C1188 C 0.89709 0.5632 0.22987 0.0
C1189 C 0.87326 0.5614 0.2168 0.0
C1190 C 0.87226 0.59403 0.20485 0.0
C1191 C 0.92004 0.59804 0.23015 0.0
C1192 C 0.91829 0.6299 0.21788 0.0
N1193 N 0.88667 0.724 0.17233 0.0
C1194 C 0.85588 0.75917 0.1499 0.0
C1195 C 0.88529 0.78318 0.14541 0.0
C1196 C 0.91475 0.77835 0.15546 0.0
C1197 C 0.91459 0.74974 0.16886 0.0
C1198 C 0.85724 0.72981 0.16308 0.0
H1199 H 0.93786 0.7482 0.17595 0.0
H1200 H 0.83431 0.71154 0.16537 0.0
H1201 H 0.85323 0.59058 0.1954 0.0
H1202 H 0.93643 0.65556 0.21895 0.0
C1203 C 0.96292 0.71835 0.20317 0.0
C1204 C 0.93654 0.62738 0.15677 0.0
C1205 C 0.84318 0.73105 0.21974 0.0
C1206 C 0.81774 0.63364 0.17475 0.0
H1207 H 0.00982 0.64288 0.16095 0.0
H1208 H 0.02449 0.69094 0.18696 0.0
H1209 H 0.95455 0.78076 0.22868 0.0
H1210 H 0.88875 0.78679 0.23788 0.0
H1211 H 0.77113 0.70712 0.21764 0.0
H1212 H 0.75701 0.65481 0.19285 0.0
H1213 H 0.8256 0.57808 0.147 0.0
H1214 H 0.8913 0.57352 0.13764 0.0
H1215 H 0.85536 0.53477 0.21567 0.0
H1216 H 0.93889 0.60143 0.24001 0.0
H1217 H 0.83169 0.76236 0.14324 0.0
H1218 H 0.93854 0.79542 0.15288 0.0
C1219 C 0.60848 0.7411 0.42198 0.0
C1220 C 0.59839 0.78394 0.42109 0.0
C1221 C 0.58667 0.79529 0.43653 0.0
C1222 C 0.589 0.75873 0.44594 0.0
N1223 N 0.60108 0.72496 0.43728 0.0
Co1224 Co 0.59991 0.66404 0.44472 0.0
N1225 N 0.56603 0.67643 0.4626 0.0
C1226 C 0.56092 0.71544 0.46934 0.0
C1227 C 0.53981 0.7144 0.48298 0.0
C1228 C 0.53061 0.67215 0.48484 0.0
C1229 C 0.5471 0.64949 0.47226 0.0
N1230 N 0.59857 0.60284 0.45175 0.0
C1231 C 0.57552 0.58163 0.46151 0.0
C1232 C 0.58448 0.53853 0.46285 0.0
C1233 C 0.61475 0.53315 0.45418 0.0
C1234 C 0.62244 0.57293 0.44785 0.0
N1235 N 0.63434 0.65215 0.42712 0.0
C1236 C 0.65604 0.61834 0.42683 0.0
C1237 C 0.6794 0.62027 0.41403 0.0
C1238 C 0.67177 0.65758 0.40574 0.0
C1239 C 0.64358 0.67608 0.41377 0.0
N1240 N 0.63775 0.67471 0.46049 0.0
C1241 C 0.69215 0.68666 0.48329 0.0
C1242 C 0.66336 0.6612 0.48721 0.0
C1243 C 0.63659 0.65601 0.47582 0.0
C1244 C 0.69288 0.70636 0.4676 0.0
C1245 C 0.66551 0.69991 0.45639 0.0
N1246 N 0.56214 0.65329 0.42921 0.0
C1247 C 0.53798 0.61242 0.40673 0.0
C1248 C 0.51027 0.64135 0.40546 0.0
C1249 C 0.50853 0.67563 0.41667 0.0
C1250 C 0.53458 0.68086 0.42849 0.0
C1251 C 0.56365 0.619 0.41866 0.0
H1252 H 0.53275 0.70777 0.43684 0.0
H1253 H 0.58513 0.59687 0.41913 0.0
H1254 H 0.6151 0.63621 0.47948 0.0
H1255 H 0.66688 0.71507 0.44437 0.0
C1256 C 0.57242 0.75248 0.46119 0.0
C1257 C 0.62691 0.71687 0.40874 0.0
C1258 C 0.54779 0.60223 0.4713 0.0
C1259 C 0.64951 0.58248 0.43685 0.0
H1260 H 0.59795 0.80485 0.41043 0.0
H1261 H 0.5751 0.82566 0.44004 0.0
H1262 H 0.5322 0.74119 0.49068 0.0
H1263 H 0.5147 0.65934 0.49472 0.0
H1264 H 0.57111 0.51374 0.46974 0.0
H1265 H 0.62911 0.50359 0.4525 0.0
H1266 H 0.69879 0.59664 0.41072 0.0
H1267 H 0.6854 0.66958 0.39498 0.0
H1268 H 0.66163 0.64434 0.49892 0.0
H1269 H 0.71432 0.72673 0.46398 0.0
H1270 H 0.54048 0.5857 0.39821 0.0
H1271 H 0.48735 0.69847 0.41624 0.0
C1272 C 0.32717 0.2725 0.1842 0.0
C1273 C 0.33792 0.23053 0.18671 0.0
C1274 C 0.34533 0.22686 0.20332 0.0
C1275 C 0.33861 0.26669 0.20997 0.0
N1276 N 0.32718 0.29485 0.19862 0.0
Co1277 Co 0.31707 0.35665 0.20227 0.0
N1278 N 0.34483 0.35815 0.22308 0.0
C1279 C 0.35428 0.32307 0.23183 0.0
C1280 C 0.36969 0.33278 0.24664 0.0
C1281 C 0.36933 0.37664 0.24753 0.0
C1282 C 0.35378 0.39158 0.23307 0.0
N1283 N 0.30762 0.41896 0.20538 0.0
C1284 C 0.32244 0.44795 0.2158 0.0
C1285 C 0.30908 0.48879 0.213 0.0
C1286 C 0.28372 0.48464 0.20122 0.0
C1287 C 0.28339 0.44185 0.1972 0.0
N1288 N 0.28876 0.35402 0.18172 0.0
C1289 C 0.26478 0.38283 0.17693 0.0
C1290 C 0.2518 0.37426 0.16143 0.0
C1291 C 0.269 0.33823 0.15609 0.0
C1292 C 0.29144 0.32646 0.16874 0.0
N1293 N 0.27602 0.34207 0.21563 0.0
C1294 C 0.22514 0.31476 0.23835 0.0
C1295 C 0.24167 0.35459 0.24008 0.0
C1296 C 0.26731 0.36699 0.22895 0.0
C1297 C 0.23263 0.29066 0.22401 0.0
C1298 C 0.25751 0.30538 0.21265 0.0
N1299 N 0.35791 0.37064 0.18903 0.0
C1300 C 0.38064 0.39983 0.1637 0.0
C1301 C 0.41039 0.37425 0.16517 0.0
C1302 C 0.41455 0.34966 0.17959 0.0
C1303 C 0.38809 0.34846 0.1914 0.0
C1304 C 0.35495 0.3979 0.17583 0.0
H1305 H 0.39122 0.32756 0.20193 0.0
H1306 H 0.33173 0.4164 0.17393 0.0
H1307 H 0.28079 0.39621 0.2317 0.0
H1308 H 0.26283 0.28605 0.20184 0.0
C1309 C 0.34993 0.28155 0.22539 0.0
C1310 C 0.31572 0.28996 0.16821 0.0
C1311 C 0.34383 0.43691 0.23042 0.0
C1312 C 0.26322 0.4229 0.18475 0.0
H1313 H 0.34054 0.20553 0.17747 0.0
H1314 H 0.35639 0.19928 0.20954 0.0
H1315 H 0.37962 0.31062 0.25583 0.0
H1316 H 0.37821 0.39503 0.25806 0.0
H1317 H 0.31574 0.51822 0.21939 0.0
H1318 H 0.26761 0.5099 0.19615 0.0
H1319 H 0.23437 0.39407 0.1542 0.0
H1320 H 0.26623 0.32379 0.14399 0.0
H1321 H 0.23588 0.37589 0.25031 0.0
H1322 H 0.22062 0.25979 0.22181 0.0
H1323 H 0.37621 0.41947 0.15283 0.0
H1324 H 0.43756 0.33037 0.18152 0.0
C1325 C 0.39169 0.56113 0.92559 0.0
C1326 C 0.37917 0.53757 0.91227 0.0
C1327 C 0.38237 0.49525 0.91646 0.0
C1328 C 0.39686 0.49533 0.93197 0.0
N1329 N 0.40216 0.53513 0.93818 0.0
Co1330 Co 0.42777 0.54997 0.95911 0.0
N1331 N 0.43873 0.48807 0.96381 0.0
C1332 C 0.42747 0.4537 0.95509 0.0
C1333 C 0.43837 0.4151 0.96139 0.0
C1334 C 0.45761 0.42533 0.97503 0.0
C1335 C 0.45737 0.4698 0.97628 0.0
N1336 N 0.4549 0.56519 0.97953 0.0
C1337 C 0.47328 0.53996 0.99014 0.0
C1338 C 0.48889 0.56413 1.00253 0.0
C1339 C 0.48017 0.60598 0.99966 0.0
C1340 C 0.45984 0.60511 0.98573 0.0
N1341 N 0.41593 0.61164 0.9547 0.0
C1342 C 0.42231 0.64551 0.96473 0.0
C1343 C 0.41239 0.68414 0.95806 0.0
C1344 C 0.39966 0.67441 0.94271 0.0
C1345 C 0.40276 0.63028 0.94087 0.0
N1346 N 0.38422 0.54434 0.97238 0.0
C1347 C 0.31919 0.54215 0.98869 0.0
C1348 C 0.34474 0.57166 0.99329 0.0
C1349 C 0.3768 0.57199 0.98515 0.0
C1350 C 0.32737 0.51259 0.97626 0.0
C1351 C 0.35969 0.51413 0.96843 0.0
N1352 N 0.47016 0.55624 0.94552 0.0
C1353 C 0.50658 0.60627 0.93078 0.0
C1354 C 0.51172 0.57644 0.91801 0.0
C1355 C 0.49974 0.53447 0.92057 0.0
C1356 C 0.47925 0.52505 0.93438 0.0
C1357 C 0.48657 0.59513 0.94457 0.0
H1358 H 0.46923 0.49314 0.93525 0.0
H1359 H 0.48253 0.61948 0.95371 0.0
H1360 H 0.39492 0.59525 0.98936 0.0
H1361 H 0.36384 0.49082 0.95903 0.0
C1362 C 0.40877 0.45891 0.94037 0.0
C1363 C 0.3955 0.6079 0.92535 0.0
C1364 C 0.47575 0.49306 0.98938 0.0
C1365 C 0.44355 0.64085 0.97865 0.0
H1366 H 0.36993 0.54954 0.90049 0.0
H1367 H 0.37653 0.46772 0.90876 0.0
H1368 H 0.43342 0.38332 0.95648 0.0
H1369 H 0.47065 0.40263 0.98306 0.0
H1370 H 0.50457 0.55262 0.01273 0.0
H1371 H 0.48737 0.63368 0.00699 0.0
H1372 H 0.41621 0.71586 0.96323 0.0
H1373 H 0.39068 0.69733 0.93357 0.0
H1374 H 0.34013 0.5945 1.00318 0.0
H1375 H 0.30858 0.48894 0.97223 0.0
H1376 H 0.51588 0.63895 0.92979 0.0
H1377 H 0.50478 0.5093 0.91163 0.0
C1378 C 0.16677 0.72523 0.68296 0.0
C1379 C 0.15557 0.76694 0.68567 0.0
C1380 C 0.14819 0.76999 0.70231 0.0
C1381 C 0.1554 0.73009 0.70878 0.0
N1382 N 0.1671 0.70249 0.69729 0.0
Co1383 Co 0.17798 0.64083 0.70069 0.0
N1384 N 0.15027 0.63815 0.72148 0.0
C1385 C 0.14027 0.67273 0.73038 0.0
C1386 C 0.1245 0.66213 0.74503 0.0
C1387 C 0.12524 0.61822 0.74564 0.0
C1388 C 0.14142 0.60417 0.73121 0.0
N1389 N 0.18831 0.57866 0.70356 0.0
C1390 C 0.174 0.5491 0.7139 0.0
C1391 C 0.1883 0.50873 0.71111 0.0
C1392 C 0.21357 0.51376 0.69935 0.0
C1393 C 0.21298 0.55657 0.69537 0.0
N1394 N 0.20617 0.64454 0.68012 0.0
C1395 C 0.23051 0.61631 0.67522 0.0
C1396 C 0.24308 0.62521 0.65968 0.0
C1397 C 0.22525 0.66082 0.65443 0.0
C1398 C 0.20292 0.67219 0.6672 0.0
N1399 N 0.21889 0.65597 0.7141 0.0
C1400 C 0.26958 0.68415 0.73682 0.0
C1401 C 0.25306 0.64433 0.7387 0.0
C1402 C 0.22759 0.63143 0.72753 0.0
C1403 C 0.26203 0.70787 0.7224 0.0
C1404 C 0.2372 0.69279 0.71107 0.0
N1405 N 0.13721 0.62645 0.68742 0.0
C1406 C 0.1145 0.59846 0.66186 0.0
C1407 C 0.08464 0.62377 0.66357 0.0
C1408 C 0.08036 0.6473 0.67823 0.0
C1409 C 0.10683 0.64803 0.69002 0.0
C1410 C 0.14028 0.59994 0.674 0.0
H1411 H 0.10356 0.66831 0.70072 0.0
H1412 H 0.16368 0.58183 0.67193 0.0
H1413 H 0.21423 0.60212 0.73029 0.0
H1414 H 0.23178 0.71193 0.70022 0.0
C1415 C 0.14419 0.71454 0.72414 0.0
C1416 C 0.17825 0.7084 0.66685 0.0
C1417 C 0.15217 0.55921 0.72843 0.0
C1418 C 0.23278 0.57621 0.68295 0.0
H1419 H 0.15259 0.79217 0.67655 0.0
H1420 H 0.13682 0.79718 0.70866 0.0
H1421 H 0.11399 0.68375 0.75426 0.0
H1422 H 0.11613 0.5991 0.75594 0.0
H1423 H 0.18229 0.47911 0.71752 0.0
H1424 H 0.23026 0.48908 0.69428 0.0
H1425 H 0.2606 0.60576 0.65236 0.0
H1426 H 0.22757 0.67506 0.64228 0.0
H1427 H 0.25881 0.62338 0.74904 0.0
H1428 H 0.27399 0.73873 0.72011 0.0
H1429 H 0.11894 0.57953 0.6508 0.0
H1430 H 0.05725 0.6663 0.68035 0.0
C1431 C 0.10883 0.43788 0.42669 0.0
C1432 C 0.12116 0.46031 0.41305 0.0
C1433 C 0.11933 0.50292 0.41697 0.0
C1434 C 0.10576 0.50417 0.43266 0.0
N1435 N 0.09974 0.4649 0.43922 0.0
Co1436 Co 0.07476 0.45222 0.46054 0.0
N1437 N 0.06621 0.51482 0.46502 0.0
C1438 C 0.07833 0.54823 0.45601 0.0
C1439 C 0.06938 0.5876 0.46232 0.0
C1440 C 0.05059 0.57889 0.47626 0.0
C1441 C 0.04908 0.5345 0.47766 0.0
N1442 N 0.04807 0.43919 0.48131 0.0
C1443 C 0.03128 0.46577 0.49202 0.0
C1444 C 0.01519 0.44291 0.50463 0.0
C1445 C 0.02209 0.4005 0.50184 0.0
C1446 C 0.04182 0.39978 0.48771 0.0
N1447 N 0.08445 0.38984 0.4564 0.0
C1448 C 0.07748 0.35679 0.46674 0.0
C1449 C 0.08607 0.31743 0.46028 0.0
C1450 C 0.09854 0.32582 0.44477 0.0
C1451 C 0.09661 0.36997 0.44261 0.0
N1452 N 0.11896 0.45618 0.47333 0.0
C1453 C 0.1839 0.45728 0.48963 0.0
C1454 C 0.15745 0.42965 0.49476 0.0
C1455 C 0.12548 0.42975 0.48657 0.0
C1456 C 0.17684 0.48526 0.47653 0.0
C1457 C 0.14454 0.48432 0.4687 0.0
N1458 N 0.03162 0.4477 0.44746 0.0
C1459 C 0.99423 0.39882 0.43277 0.0
C1460 C 0.98984 0.42881 0.42 0.0
C1461 C 0.00231 0.47051 0.42262 0.0
C1462 C 0.02287 0.47931 0.43644 0.0
C1463 C 0.01437 0.40936 0.44656 0.0
H1464 H 0.03338 0.51097 0.43735 0.0
H1465 H 0.01798 0.38489 0.45571 0.0
H1466 H 0.10665 0.4079 0.49119 0.0
H1467 H 0.14122 0.50643 0.45881 0.0
C1468 C 0.09579 0.54148 0.44105 0.0
C1469 C 0.10401 0.39123 0.42686 0.0
C1470 C 0.0307 0.5127 0.4911 0.0
C1471 C 0.05681 0.36303 0.48076 0.0
H1472 H 0.12944 0.44745 0.40124 0.0
H1473 H 0.12557 0.52984 0.40901 0.0
H1474 H 0.07531 0.61892 0.45722 0.0
H1475 H 0.03907 0.60251 0.48442 0.0
H1476 H 0.00043 0.45566 0.51493 0.0
H1477 H 0.01419 0.37346 0.50938 0.0
H1478 H 0.08154 0.28615 0.46573 0.0
H1479 H 0.10658 0.30206 0.43575 0.0
H1480 H 0.16126 0.40805 0.50513 0.0
H1481 H 0.19642 0.50728 0.47201 0.0
H1482 H 0.98436 0.36639 0.43172 0.0
H1483 H 0.99775 0.4958 0.41366 0.0
C1484 C 0.35221 0.73389 0.3262 0.0
C1485 C 0.37201 0.77021 0.32285 0.0
C1486 C 0.3798 0.76923 0.30627 0.0
C1487 C 0.36524 0.73214 0.30034 0.0
N1488 N 0.34852 0.70995 0.31217 0.0
Co1489 Co 0.3303 0.65045 0.30999 0.0
N1490 N 0.35946 0.63822 0.2902 0.0
C1491 C 0.37424 0.66864 0.28063 0.0
C1492 C 0.38982 0.65245 0.26674 0.0
C1493 C 0.38387 0.6092 0.26732 0.0
C1494 C 0.365 0.6011 0.28171 0.0
N1495 N 0.31235 0.59074 0.30846 0.0
C1496 C 0.32377 0.55668 0.29943 0.0
C1497 C 0.30394 0.52045 0.30281 0.0
C1498 C 0.27822 0.53295 0.3135 0.0
C1499 C 0.28401 0.57579 0.31636 0.0
N1500 N 0.30089 0.6637 0.32938 0.0
C1501 C 0.27182 0.64294 0.33381 0.0
C1502 C 0.2571 0.65985 0.34789 0.0
C1503 C 0.27865 0.69281 0.35265 0.0
C1504 C 0.30561 0.69377 0.34128 0.0
N1505 N 0.29323 0.67031 0.29509 0.0
C1506 C 0.24406 0.6999 0.27195 0.0
C1507 C 0.25865 0.65885 0.27064 0.0
C1508 C 0.28331 0.64513 0.28204 0.0
C1509 C 0.25356 0.72514 0.28569 0.0
C1510 C 0.27785 0.70955 0.2972 0.0
N1511 N 0.36714 0.63107 0.32478 0.0
C1512 C 0.38304 0.60488 0.35177 0.0
C1513 C 0.41537 0.62496 0.35039 0.0
C1514 C 0.42431 0.6443 0.33534 0.0
C1515 C 0.40001 0.64644 0.3226 0.0
C1516 C 0.35926 0.60825 0.33877 0.0
H1517 H 0.40698 0.66349 0.31148 0.0
H1518 H 0.33369 0.59506 0.34053 0.0
H1519 H 0.29464 0.61419 0.27995 0.0
H1520 H 0.28476 0.72963 0.30761 0.0
C1521 C 0.37528 0.71159 0.28572 0.0
C1522 C 0.33598 0.72243 0.34232 0.0
C1523 C 0.34858 0.55929 0.28545 0.0
C1524 C 0.26515 0.60205 0.32728 0.0
H1525 H 0.38167 0.79426 0.33122 0.0
H1526 H 0.39698 0.79089 0.29973 0.0
H1527 H 0.40364 0.67 0.25723 0.0
H1528 H 0.3914 0.58687 0.25773 0.0
H1529 H 0.30668 0.48876 0.29746 0.0
H1530 H 0.25775 0.51313 0.31857 0.0
H1531 H 0.23496 0.64763 0.35465 0.0
H1532 H 0.27567 0.71267 0.36357 0.0
H1533 H 0.25152 0.63722 0.2607 0.0
H1534 H 0.2432 0.75717 0.28735 0.0
H1535 H 0.37535 0.58924 0.36319 0.0
H1536 H 0.44944 0.65925 0.33368 0.0
C1537 C 0.11421 0.56738 0.08385 0.0
C1538 C 0.12908 0.54533 0.097 0.0
C1539 C 0.12636 0.5026 0.09338 0.0
C1540 C 0.11017 0.50098 0.07826 0.0
N1541 N 0.10337 0.54012 0.07175 0.0
Co1542 Co 0.07637 0.55253 0.05103 0.0
N1543 N 0.06634 0.48993 0.04719 0.0
C1544 C 0.07873 0.45659 0.05617 0.0
C1545 C 0.06805 0.41723 0.05052 0.0
C1546 C 0.0477 0.42585 0.03707 0.0
C1547 C 0.0471 0.47018 0.03527 0.0
N1548 N 0.04788 0.56524 0.03078 0.0
C1549 C 0.02929 0.53869 0.02075 0.0
C1550 C 0.01266 0.56137 0.00825 0.0
C1551 C 0.02085 0.60361 0.01046 0.0
C1552 C 0.04191 0.60441 0.02414 0.0
N1553 N 0.08722 0.615 0.05462 0.0
C1554 C 0.07907 0.6478 0.04435 0.0
C1555 C 0.08723 0.6874 0.05061 0.0
C1556 C 0.10067 0.67959 0.06595 0.0
C1557 C 0.10028 0.63532 0.06817 0.0
N1558 N 0.11927 0.54703 0.03726 0.0
C1559 C 0.18309 0.54372 0.0199 0.0
C1560 C 0.1575 0.57362 0.01568 0.0
C1561 C 0.12602 0.57451 0.02435 0.0
C1562 C 0.17561 0.5146 0.03256 0.0
C1563 C 0.14393 0.51672 0.04092 0.0
N1564 N 0.03468 0.55852 0.06511 0.0
C1565 C 0.99863 0.60836 0.08017 0.0
C1566 C 0.99494 0.5789 0.09318 0.0
C1567 C 0.0073 0.53712 0.09066 0.0
C1568 C 0.02684 0.52761 0.07658 0.0
C1569 C 0.01772 0.59708 0.0661 0.0
H1570 H 0.0372 0.49587 0.07575 0.0
H1571 H 0.02061 0.62104 0.05669 0.0
H1572 H 0.10777 0.59798 0.02043 0.0
H1573 H 0.14042 0.49373 0.05046 0.0
C1574 C 0.09831 0.46352 0.07053 0.0
C1575 C 0.1094 0.61406 0.08381 0.0
C1576 C 0.02732 0.4919 0.02224 0.0
C1577 C 0.05743 0.64116 0.03071 0.0
H1578 H 0.13971 0.55876 0.10828 0.0
H1579 H 0.13388 0.47589 0.10118 0.0
H1580 H 0.07383 0.38601 0.05574 0.0
H1581 H 0.03447 0.4022 0.02954 0.0
H1582 H 0.99653 0.54863 0.99843 0.0
H1583 H 0.01266 0.63052 1.00292 0.0
H1584 H 0.08146 0.71847 0.04525 0.0
H1585 H 0.10794 0.70418 0.07472 0.0
H1586 H 0.16164 0.59629 1.0057 0.0
H1587 H 0.1945 0.49084 0.03639 0.0
H1588 H 0.98876 0.64081 0.08114 0.0
H1589 H 0.00328 0.51219 0.09982 0.0
C1590 C 0.16802 0.27271 0.82912 0.0
C1591 C 0.15625 0.23129 0.82633 0.0
C1592 C 0.14807 0.22893 0.80977 0.0
C1593 C 0.15539 0.26892 0.80341 0.0
N1594 N 0.1679 0.29595 0.81491 0.0
Co1595 Co 0.17935 0.35752 0.81169 0.0
N1596 N 0.15077 0.36132 0.79119 0.0
C1597 C 0.14001 0.3272 0.78224 0.0
C1598 C 0.12368 0.33853 0.76781 0.0
C1599 C 0.12483 0.38243 0.76741 0.0
C1600 C 0.14181 0.39576 0.78173 0.0
N1601 N 0.19029 0.41957 0.80898 0.0
C1602 C 0.17589 0.44969 0.79892 0.0
C1603 C 0.19082 0.48968 0.80171 0.0
C1604 C 0.21654 0.48384 0.81319 0.0
C1605 C 0.2156 0.44093 0.81702 0.0
N1606 N 0.20837 0.35267 0.83196 0.0
C1607 C 0.23326 0.38026 0.83674 0.0
C1608 C 0.24658 0.37045 0.85206 0.0
C1609 C 0.22868 0.33486 0.85729 0.0
C1610 C 0.20553 0.32452 0.84474 0.0
N1611 N 0.21945 0.34207 0.79787 0.0
C1612 C 0.26918 0.31378 0.77478 0.0
C1613 C 0.25276 0.3537 0.77304 0.0
C1614 C 0.22775 0.36668 0.78441 0.0
C1615 C 0.26202 0.28993 0.7892 0.0
C1616 C 0.23764 0.30507 0.80072 0.0
N1617 N 0.13939 0.37226 0.8254 0.0
C1618 C 0.11833 0.39982 0.85132 0.0
C1619 C 0.08805 0.37525 0.84979 0.0
C1620 C 0.08272 0.35234 0.83506 0.0
C1621 C 0.10863 0.3514 0.82301 0.0
C1622 C 0.14346 0.39825 0.8389 0.0
H1623 H 0.10462 0.33154 0.81225 0.0
H1624 H 0.16716 0.41583 0.8408 0.0
H1625 H 0.21442 0.39612 0.78181 0.0
H1626 H 0.23249 0.28587 0.81159 0.0
C1627 C 0.14371 0.28514 0.78824 0.0
C1628 C 0.18052 0.28875 0.84517 0.0
C1629 C 0.15315 0.44045 0.78461 0.0
C1630 C 0.23568 0.42056 0.82916 0.0
H1631 H 0.15346 0.2058 0.83536 0.0
H1632 H 0.13614 0.20213 0.8034 0.0
H1633 H 0.11252 0.31739 0.75859 0.0
H1634 H 0.11544 0.40201 0.7573 0.0
H1635 H 0.18488 0.5196 0.79549 0.0
H1636 H 0.23375 0.50805 0.81819 0.0
H1637 H 0.26476 0.38922 0.85927 0.0
H1638 H 0.23155 0.31983 0.86927 0.0
H1639 H 0.25827 0.37468 0.76268 0.0
H1640 H 0.27393 0.25897 0.79135 0.0
H1641 H 0.12358 0.41825 0.86242 0.0
H1642 H 0.05923 0.334 0.83307 0.0
C1643 C 0.3886 0.43895 0.58595 0.0
C1644 C 0.37425 0.46238 0.59887 0.0
C1645 C 0.37606 0.50463 0.59438 0.0
C1646 C 0.39153 0.50468 0.57908 0.0
N1647 N 0.39883 0.4649 0.5733 0.0
Co1648 Co 0.42577 0.45033 0.55271 0.0
N1649 N 0.43516 0.51254 0.54778 0.0
C1650 C 0.42335 0.54676 0.55645 0.0
C1651 C 0.43342 0.58553 0.55 0.0
C1652 C 0.45268 0.57558 0.53633 0.0
C1653 C 0.45323 0.5311 0.53519 0.0
N1654 N 0.45348 0.4355 0.53241 0.0
C1655 C 0.47053 0.46118 0.52149 0.0
C1656 C 0.48654 0.43735 0.50911 0.0
C1657 C 0.47937 0.39523 0.51229 0.0
C1658 C 0.45948 0.39563 0.52636 0.0
N1659 N 0.41615 0.38828 0.55754 0.0
C1660 C 0.42452 0.35415 0.54798 0.0
C1661 C 0.41613 0.31538 0.55498 0.0
C1662 C 0.40241 0.32531 0.57011 0.0
C1663 C 0.40341 0.36971 0.57147 0.0
N1664 N 0.38252 0.45355 0.53914 0.0
C1665 C 0.31891 0.45551 0.52167 0.0
C1666 C 0.34363 0.42371 0.51852 0.0
C1667 C 0.37501 0.42345 0.52725 0.0
C1668 C 0.32701 0.48687 0.53341 0.0
C1669 C 0.35859 0.48538 0.54183 0.0
N1670 N 0.46798 0.44667 0.56654 0.0
C1671 C 0.50906 0.4001 0.58018 0.0
C1672 C 0.51109 0.42825 0.5937 0.0
C1673 C 0.49468 0.46819 0.59224 0.0
C1674 C 0.47408 0.47701 0.57846 0.0
C1675 C 0.48766 0.41007 0.56672 0.0
H1676 H 0.46136 0.50741 0.57828 0.0
H1677 H 0.48571 0.38668 0.55706 0.0
H1678 H 0.3926 0.39844 0.52416 0.0
H1679 H 0.36268 0.51023 0.55058 0.0
C1680 C 0.40352 0.54136 0.57084 0.0
C1681 C 0.39458 0.39259 0.58668 0.0
C1682 C 0.47146 0.50813 0.52197 0.0
C1683 C 0.44516 0.35927 0.53389 0.0
H1684 H 0.36484 0.45045 0.61062 0.0
H1685 H 0.36887 0.53215 0.60183 0.0
H1686 H 0.42759 0.61727 0.55471 0.0
H1687 H 0.46497 0.59848 0.52812 0.0
H1688 H 0.50149 0.44924 0.49873 0.0
H1689 H 0.48737 0.36762 0.50509 0.0
H1690 H 0.42139 0.28361 0.55014 0.0
H1691 H 0.39409 0.30246 0.57941 0.0
H1692 H 0.33895 0.39913 0.50928 0.0
H1693 H 0.30873 0.51211 0.53643 0.0
H1694 H 0.52274 0.36973 0.58021 0.0
H1695 H 0.49572 0.49174 0.60209 0.0
C1696 C 0.0756 0.34492 0.40528 0.0
C1697 C 0.10553 0.36535 0.41125 0.0
H1698 H 0.05349 0.30284 0.38718 0.0
C1699 C 0.13694 0.35926 0.40278 0.0
H1700 H 0.05111 0.34881 0.41169 0.0
C1701 C 0.13838 0.33332 0.38856 0.0
C1702 C 0.10847 0.31241 0.38255 0.0
H1703 H 0.16046 0.37432 0.40725 0.0
H1704 H 0.16301 0.32981 0.38227 0.0
C1705 C 0.07701 0.31881 0.39113 0.0
C1706 C 0.97978 0.82706 0.63238 0.0
C1707 C 0.98867 0.86255 0.62249 0.0
H1708 H 0.95065 0.80367 0.65301 0.0
C1709 C 0.97417 0.90286 0.62625 0.0
H1710 H 0.99078 0.79566 0.62997 0.0
C1711 C 0.9514 0.9076 0.63961 0.0
C1712 C 0.94263 0.87216 0.64956 0.0
H1713 H 0.98026 0.93078 0.61879 0.0
H1714 H 0.94091 0.93915 0.64223 0.0
C1715 C 0.95711 0.83183 0.64576 0.0
C1716 C 0.36204 0.63794 0.90109 0.0
C1717 C 0.39359 0.63273 0.90952 0.0
H1718 H 0.33553 0.66599 0.88041 0.0
C1719 C 0.42332 0.65311 0.9033 0.0
H1720 H 0.33869 0.62288 0.90576 0.0
C1721 C 0.42156 0.67834 0.88894 0.0
C1722 C 0.38995 0.6839 0.88041 0.0
H1723 H 0.44789 0.64989 0.9097 0.0
H1724 H 0.44492 0.69435 0.88479 0.0
C1725 C 0.36025 0.66304 0.88666 0.0
C1726 C 0.53296 0.10306 0.12687 0.0
C1727 C 0.51707 0.1426 0.12318 0.0
H1728 H 0.5669 0.06815 0.1429 0.0
C1729 C 0.52506 0.17854 0.13301 0.0
H1730 H 0.52782 0.07484 0.11943 0.0
C1731 C 0.54796 0.17482 0.14636 0.0
C1732 C 0.56339 0.13508 0.15023 0.0
H1733 H 0.51306 0.2094 0.13065 0.0
H1734 H 0.55371 0.20328 0.15357 0.0
C1735 C 0.55569 0.09931 0.14026 0.0
C1736 C 0.13877 0.6968 0.11578 0.0
C1737 C 0.11595 0.68932 0.12918 0.0
H1738 H 0.15566 0.67804 0.09148 0.0
C1739 C 0.09209 0.65505 0.12759 0.0
H1740 H 0.15728 0.72286 0.11606 0.0
C1741 C 0.09018 0.63071 0.11297 0.0
C1742 C 0.11251 0.63914 0.09962 0.0
H1743 H 0.07466 0.6467 0.13757 0.0
H1744 H 0.07098 0.60542 0.11203 0.0
C1745 C 0.13751 0.67154 0.10141 0.0
C1746 C 0.52362 0.8295 0.3815 0.0
C1747 C 0.51416 0.86554 0.39096 0.0
H1748 H 0.55264 0.80552 0.36088 0.0
C1749 C 0.5278 0.90598 0.38673 0.0
H1750 H 0.51334 0.79798 0.38437 0.0
C1751 C 0.55037 0.91028 0.37324 0.0
C1752 C 0.55915 0.87432 0.36361 0.0
H1753 H 0.52115 0.93423 0.3939 0.0
H1754 H 0.56052 0.94173 0.37018 0.0
C1755 C 0.54577 0.83388 0.36794 0.0
C1756 C 0.36064 0.33599 0.62527 0.0
C1757 C 0.39104 0.31727 0.63179 0.0
H1758 H 0.33792 0.37435 0.60594 0.0
C1759 C 0.4227 0.32535 0.62362 0.0
H1760 H 0.33585 0.33109 0.63127 0.0
C1761 C 0.42378 0.35063 0.60925 0.0
C1762 C 0.39335 0.36863 0.60272 0.0
H1763 H 0.44661 0.3111 0.628 0.0
H1764 H 0.44835 0.35557 0.60304 0.0
C1765 C 0.36179 0.3612 0.61087 0.0
C1766 C 0.96567 0.09692 0.88658 0.0
C1767 C 0.9814 0.13651 0.89033 0.0
H1768 H 0.93145 0.0622 0.87061 0.0
C1769 C 0.97307 0.1726 0.88065 0.0
H1770 H 0.97115 0.06858 0.89391 0.0
C1771 C 0.94994 0.16904 0.86741 0.0
C1772 C 0.93459 0.12929 0.8635 0.0
H1773 H 0.98496 0.20349 0.88307 0.0
H1774 H 0.94392 0.19761 0.86032 0.0
C1775 C 0.94264 0.09333 0.8733 0.0
C1776 C 0.82021 0.73275 0.62568 0.0
C1777 C 0.85547 0.72973 0.62134 0.0
H1778 H 0.78276 0.75177 0.64392 0.0
C1779 C 0.88018 0.74756 0.63217 0.0
H1780 H 0.80042 0.7203 0.61746 0.0
C1781 C 0.86983 0.76761 0.64699 0.0
C1782 C 0.83457 0.77038 0.65133 0.0
H1783 H 0.90751 0.74611 0.62912 0.0
H1784 H 0.88935 0.78124 0.65507 0.0
C1785 C 0.80999 0.75172 0.64067 0.0
C1786 C 0.04157 0.13644 0.38382 0.0
C1787 C 0.05544 0.10596 0.3729 0.0
H1788 H 0.01645 0.14793 0.40695 0.0
C1789 C 0.05531 0.06246 0.37738 0.0
H1790 H 0.04126 0.17018 0.38052 0.0
C1791 C 0.04231 0.04967 0.39276 0.0
C1792 C 0.02812 0.08001 0.40381 0.0
H1793 H 0.06573 0.03843 0.36903 0.0
H1794 H 0.0435 0.01594 0.39595 0.0
C1795 C 0.02786 0.12362 0.39907 0.0
C1796 C 0.68535 0.27513 0.12714 0.0
C1797 C 0.6501 0.27678 0.12272 0.0
H1798 H 0.72303 0.25658 0.14538 0.0
C1799 C 0.62563 0.25817 0.13347 0.0
H1800 H 0.70479 0.28907 0.11909 0.0
C1801 C 0.63622 0.23829 0.14826 0.0
C1802 C 0.67147 0.23649 0.15263 0.0
H1803 H 0.59828 0.25902 0.13041 0.0
H1804 H 0.61687 0.22413 0.1563 0.0
C1805 C 0.69583 0.25594 0.14206 0.0
C1806 C 0.47377 0.87285 0.89738 0.0
C1807 C 0.47298 0.91661 0.90187 0.0
H1808 H 0.46054 0.82529 0.87916 0.0
C1809 C 0.4587 0.94632 0.8906 0.0
H1810 H 0.48542 0.8491 0.90544 0.0
C1811 C 0.44574 0.9327 0.87531 0.0
C1812 C 0.44577 0.88898 0.87113 0.0
H1813 H 0.45723 0.98016 0.89359 0.0
H1814 H 0.43498 0.95622 0.86685 0.0
C1815 C 0.46008 0.85918 0.88222 0.0
C1816 C 0.81285 0.27217 0.88686 0.0
C1817 C 0.84807 0.27347 0.89136 0.0
H1818 H 0.77517 0.25355 0.86863 0.0
C1819 C 0.87248 0.25428 0.88072 0.0
H1820 H 0.79344 0.28654 0.89482 0.0
C1821 C 0.86186 0.2342 0.86596 0.0
C1822 C 0.82663 0.23274 0.86152 0.0
H1823 H 0.89979 0.25481 0.88384 0.0
H1824 H 0.88116 0.21961 0.85802 0.0
C1825 C 0.80233 0.25272 0.87198 0.0
C1826 C 0.4374 0.13679 0.62625 0.0
C1827 C 0.45023 0.11771 0.64077 0.0
H1828 H 0.43874 0.13876 0.59978 0.0
C1829 C 0.47562 0.08571 0.63957 0.0
H1830 H 0.41741 0.1612 0.62694 0.0
C1831 C 0.48843 0.0734 0.62409 0.0
C1832 C 0.47546 0.09207 0.60942 0.0
H1833 H 0.48544 0.0701 0.65061 0.0
H1834 H 0.50884 0.04955 0.62369 0.0
C1835 C 0.44973 0.12397 0.61073 0.0
C1836 C 0.65136 0.79196 0.37256 0.0
C1837 C 0.65118 0.76392 0.35882 0.0
H1838 H 0.64909 0.7987 0.39886 0.0
C1839 C 0.64291 0.72057 0.36188 0.0
H1840 H 0.65848 0.82536 0.37098 0.0
C1841 C 0.63241 0.7067 0.37767 0.0
C1842 C 0.63354 0.73442 0.39148 0.0
H1843 H 0.64628 0.69642 0.35246 0.0
H1844 H 0.62527 0.6733 0.37927 0.0
C1845 C 0.64444 0.777 0.38866 0.0
C1846 C 0.02308 0.91668 0.13937 0.0
C1847 C 0.04905 0.88532 0.14026 0.0
H1848 H 0.9886 0.95221 0.12389 0.0
C1849 C 0.06133 0.8665 0.12558 0.0
H1850 H 0.01364 0.93209 0.15053 0.0
C1851 C 0.04809 0.87915 0.1102 0.0
C1852 C 0.02193 0.91058 0.10921 0.0
H1853 H 0.08172 0.84256 0.12601 0.0
H1854 H 0.0588 0.86471 0.09913 0.0
C1855 C 0.00933 0.92877 0.12404 0.0
C1856 C 0.58799 0.8537 0.8826 0.0
C1857 C 0.61183 0.8194 0.88116 0.0
H1858 H 0.56654 0.90331 0.89809 0.0
C1859 C 0.63403 0.81138 0.89473 0.0
H1860 H 0.57094 0.86208 0.87246 0.0
C1861 C 0.63218 0.83622 0.90919 0.0
C1862 C 0.60738 0.86894 0.91077 0.0
H1863 H 0.6524 0.78513 0.89448 0.0
H1864 H 0.64961 0.82912 0.91935 0.0
C1865 C 0.58566 0.87788 0.89724 0.0
C1866 C 0.47408 0.32896 0.13379 0.0
C1867 C 0.48262 0.36559 0.12445 0.0
H1868 H 0.44469 0.30291 0.15386 0.0
C1869 C 0.46721 0.40509 0.12863 0.0
H1870 H 0.48574 0.2981 0.13105 0.0
C1871 C 0.4442 0.40803 0.14194 0.0
C1872 C 0.43583 0.3715 0.15136 0.0
H1873 H 0.47284 0.43385 0.12158 0.0
H1874 H 0.43322 0.4391 0.14493 0.0
C1875 C 0.45095 0.33188 0.14707 0.0
C1876 C 0.92551 0.15009 0.40431 0.0
C1877 C 0.89503 0.13251 0.41097 0.0
H1878 H 0.94833 0.18997 0.38567 0.0
C1879 C 0.8633 0.14139 0.40317 0.0
H1880 H 0.95023 0.14406 0.41024 0.0
C1881 C 0.86206 0.16742 0.38898 0.0
C1882 C 0.89253 0.18558 0.38231 0.0
H1883 H 0.8394 0.12859 0.40819 0.0
H1884 H 0.83713 0.17327 0.38324 0.0
C1885 C 0.92433 0.17621 0.39016 0.0
C1886 C 0.0504 0.59205 0.63998 0.0
C1887 C 0.0593 0.62778 0.64975 0.0
H1888 H 0.02113 0.56824 0.6194 0.0
C1889 C 0.0447 0.66798 0.64585 0.0
H1890 H 0.061 0.5606 0.64268 0.0
C1891 C 0.02176 0.67233 0.63257 0.0
C1892 C 0.01271 0.63656 0.62287 0.0
H1893 H 0.05127 0.69634 0.65295 0.0
H1894 H 0.01067 0.70365 0.63008 0.0
C1895 C 0.02734 0.59637 0.62672 0.0
C1896 C 0.63324 0.17085 0.60391 0.0
C1897 C 0.60721 0.14 0.60154 0.0
H1898 H 0.65407 0.22004 0.61936 0.0
C1899 C 0.58352 0.13243 0.61442 0.0
H1900 H 0.65225 0.17675 0.59429 0.0
C1901 C 0.58524 0.15608 0.6292 0.0
C1902 C 0.61046 0.18849 0.63142 0.0
H1903 H 0.56346 0.10835 0.61299 0.0
H1904 H 0.56669 0.14874 0.63885 0.0
C1905 C 0.63454 0.19521 0.6185 0.0
C1906 C 0.05563 0.40734 0.87383 0.0
C1907 C 0.06317 0.37165 0.86379 0.0
H1908 H 0.02745 0.43175 0.89461 0.0
C1909 C 0.04749 0.33199 0.86752 0.0
H1910 H 0.0671 0.4384 0.87129 0.0
C1911 C 0.02444 0.32827 0.88079 0.0
C1912 C 0.0165 0.36413 0.89066 0.0
H1913 H 0.05313 0.30361 0.86025 0.0
H1914 H 0.01223 0.29748 0.88304 0.0
C1915 C 0.03264 0.4036 0.88712 0.0
C1916 C 0.91153 0.87001 0.11393 0.0
C1917 C 0.88909 0.86163 0.10062 0.0
H1918 H 0.92712 0.85415 0.13852 0.0
C1919 C 0.86403 0.82932 0.10246 0.0
H1920 H 0.93078 0.89524 0.11295 0.0
C1921 C 0.86279 0.80413 0.11685 0.0
C1922 C 0.88568 0.81162 0.13022 0.0
H1923 H 0.84579 0.82286 0.09256 0.0
H1924 H 0.84423 0.77814 0.11716 0.0
C1925 C 0.90963 0.84578 0.12857 0.0
C1926 C 0.47437 0.67338 0.38277 0.0
C1927 C 0.48442 0.63708 0.39195 0.0
H1928 H 0.44467 0.69773 0.36242 0.0
C1929 C 0.47068 0.5967 0.38767 0.0
H1930 H 0.48464 0.70487 0.3857 0.0
C1931 C 0.44776 0.59265 0.37432 0.0
C1932 C 0.43865 0.62879 0.36488 0.0
H1933 H 0.47771 0.56827 0.39465 0.0
H1934 H 0.43773 0.5612 0.37116 0.0
C1935 C 0.45183 0.66924 0.36935 0.0
C1936 C 0.31317 0.23093 0.12666 0.0
C1937 C 0.34843 0.22988 0.12223 0.0
H1938 H 0.2753 0.24878 0.14493 0.0
C1939 C 0.37274 0.24859 0.13305 0.0
H1940 H 0.29385 0.21689 0.11857 0.0
C1941 C 0.36198 0.26795 0.14791 0.0
C1942 C 0.32671 0.26918 0.15229 0.0
H1943 H 0.40008 0.24823 0.12997 0.0
H1944 H 0.3812 0.28218 0.156 0.0
C1945 C 0.30251 0.24971 0.14164 0.0
C1946 C 0.55222 0.62251 0.90092 0.0
C1947 C 0.52725 0.58957 0.90181 0.0
H1948 H 0.58426 0.66164 0.88527 0.0
C1949 C 0.51588 0.57054 0.8869 0.0
H1950 H 0.56214 0.63758 0.91203 0.0
C1951 C 0.52932 0.58369 0.87163 0.0
C1952 C 0.5537 0.61698 0.87085 0.0
H1953 H 0.49615 0.54582 0.88692 0.0
H1954 H 0.52064 0.5679 0.86041 0.0
C1955 C 0.56507 0.63624 0.88561 0.0
C1956 C 0.13193 0.73237 0.64683 0.0
C1957 C 0.16727 0.72982 0.65103 0.0
H1958 H 0.09392 0.75328 0.62901 0.0
C1959 C 0.19164 0.74825 0.64021 0.0
H1960 H 0.11258 0.71891 0.65503 0.0
C1961 C 0.18114 0.76677 0.62518 0.0
C1962 C 0.14581 0.76957 0.62098 0.0
H1963 H 0.21892 0.74841 0.64335 0.0
H1964 H 0.20077 0.77906 0.61684 0.0
C1965 C 0.1213 0.75198 0.63197 0.0
C1966 C 0.98776 0.4342 0.38889 0.0
C1967 C 0.97492 0.416 0.40367 0.0
H1968 H 0.98479 0.43634 0.36235 0.0
C1969 C 0.9492 0.38404 0.40256 0.0
H1970 H 0.00812 0.45812 0.38914 0.0
C1971 C 0.93695 0.37051 0.38712 0.0
C1972 C 0.94979 0.38894 0.37248 0.0
H1973 H 0.93827 0.36964 0.41359 0.0
H1974 H 0.91708 0.34593 0.38658 0.0
C1975 C 0.97499 0.4212 0.37349 0.0
C1976 C 0.34833 0.70968 0.37271 0.0
C1977 C 0.34815 0.73813 0.35911 0.0
H1978 H 0.35178 0.70206 0.39896 0.0
C1979 C 0.35664 0.78136 0.36227 0.0
H1980 H 0.34101 0.67636 0.37105 0.0
C1981 C 0.36766 0.79473 0.37805 0.0
C1982 C 0.36702 0.76655 0.39171 0.0
H1983 H 0.35304 0.80577 0.35298 0.0
H1984 H 0.37485 0.82807 0.37976 0.0
C1985 C 0.35596 0.72408 0.3888 0.0
C1986 C 0.99302 0.57388 0.12433 0.0
C1987 C 0.98017 0.59199 0.10952 0.0
H1988 H 0.98896 0.57044 0.15082 0.0
C1989 C 0.954 0.62339 0.1106 0.0
H1990 H 0.01378 0.55048 0.12412 0.0
C1991 C 0.9409 0.63597 0.12601 0.0
C1992 C 0.95332 0.61709 0.14066 0.0
H1993 H 0.94309 0.63778 0.09956 0.0
H1994 H 0.92043 0.6598 0.1265 0.0
C1995 C 0.97939 0.58588 0.13969 0.0
C1996 C 0.1942 0.24711 0.87138 0.0
C1997 C 0.16983 0.26724 0.861 0.0
H1998 H 0.20338 0.21363 0.89425 0.0
C1999 C 0.13468 0.26607 0.86558 0.0
H2000 H 0.2213 0.24594 0.8679 0.0
C2001 C 0.12422 0.24618 0.88039 0.0
C2002 C 0.14874 0.22698 0.89098 0.0
H2003 H 0.11531 0.28076 0.8577 0.0
H2004 H 0.09695 0.24585 0.88362 0.0
C2005 C 0.18388 0.22799 0.88634 0.0
C2006 C 0.52653 0.37213 0.61499 0.0
C2007 C 0.52796 0.41516 0.60958 0.0
H2008 H 0.53917 0.32686 0.63414 0.0
C2009 C 0.54358 0.44586 0.62002 0.0
H2010 H 0.51403 0.34763 0.60758 0.0
C2011 C 0.55683 0.434 0.63547 0.0
C2012 C 0.55573 0.39103 0.64064 0.0
H2013 H 0.5457 0.47915 0.6163 0.0
H2014 H 0.56834 0.45833 0.64334 0.0
C2015 C 0.54044 0.3602 0.63031 0.0
C2016 C 0.20844 0.31037 0.26857 0.0
C2017 C 0.20257 0.29768 0.252 0.0
H2018 H 0.19487 0.30278 0.29415 0.0
C2019 C 0.17627 0.26719 0.24894 0.0
H2020 H 0.22883 0.33268 0.27179 0.0
C2021 C 0.15774 0.24867 0.26208 0.0
C2022 C 0.1646 0.26083 0.27851 0.0
H2023 H 0.1702 0.25706 0.23644 0.0
H2024 H 0.13861 0.22411 0.25946 0.0
C2025 C 0.18924 0.29285 0.28156 0.0
C2026 C 0.04319 0.92874 0.5134 0.0
C2027 C 0.02646 0.91256 0.52759 0.0
H2028 H 0.03809 0.96396 0.49059 0.0
C2029 C 0.99041 0.91788 0.52907 0.0
H2030 H 0.0709 0.92458 0.51187 0.0
C2031 C 0.97164 0.9401 0.51683 0.0
C2032 C 0.98861 0.9572 0.50288 0.0
H2033 H 0.97691 0.9054 0.53981 0.0
H2034 H 0.94397 0.94451 0.51835 0.0
C2035 C 0.02449 0.95106 0.50123 0.0
C2036 C 0.31905 0.73141 0.74706 0.0
C2037 C 0.29244 0.70149 0.75035 0.0
H2038 H 0.3576 0.77388 0.75723 0.0
C2039 C 0.2867 0.68946 0.76701 0.0
H2040 H 0.32498 0.74107 0.7345 0.0
C2041 C 0.30639 0.70699 0.77985 0.0
C2042 C 0.33156 0.73826 0.77657 0.0
H2043 H 0.2661 0.6676 0.77038 0.0
H2044 H 0.30087 0.69752 0.7925 0.0
C2045 C 0.33816 0.74986 0.76005 0.0
C2046 C 0.5019 0.08614 0.02628 0.0
C2047 C 0.46545 0.08684 0.02569 0.0
H2048 H 0.54911 0.0637 0.01496 0.0
C2049 C 0.44866 0.06604 0.01246 0.0
H2050 H 0.51547 0.10194 0.03633 0.0
C2051 C 0.46783 0.0441 1.00032 0.0
C2052 C 0.50422 0.04286 1.00106 0.0
H2053 H 0.42062 0.0663 0.01165 0.0
H2054 H 0.45426 0.02764 0.99043 0.0
C2055 C 0.52109 0.06439 0.01408 0.0
C2056 C 0.19352 0.74552 0.26206 0.0
C2057 C 0.22052 0.71632 0.2586 0.0
H2058 H 0.15264 0.78496 0.25214 0.0
C2059 C 0.22536 0.7031 0.24203 0.0
H2060 H 0.18851 0.75601 0.27462 0.0
C2061 C 0.20411 0.71857 0.22937 0.0
C2062 C 0.17813 0.7487 0.2328 0.0
H2063 H 0.24623 0.6816 0.23863 0.0
H2064 H 0.20882 0.70821 0.21675 0.0
C2065 C 0.17265 0.7617 0.24925 0.0
C2066 C 0.50435 0.94446 0.47993 0.0
C2067 C 0.47391 0.92226 0.48412 0.0
H2068 H 0.54585 0.98505 0.48848 0.0
C2069 C 0.4616 0.92457 0.5005 0.0
H2070 H 0.51423 0.94323 0.46737 0.0
C2071 C 0.47954 0.94838 0.5125 0.0
C2072 C 0.5101 0.97045 0.50837 0.0
H2073 H 0.43807 0.90784 0.50397 0.0
H2074 H 0.46955 0.94962 0.52504 0.0
C2075 C 0.52233 0.96831 0.49196 0.0
C2076 C 0.31852 0.26694 0.7643 0.0
C2077 C 0.29162 0.29652 0.76113 0.0
H2078 H 0.35741 0.22528 0.75396 0.0
C2079 C 0.28533 0.30845 0.74451 0.0
H2080 H 0.32484 0.2574 0.77684 0.0
C2081 C 0.30498 0.29134 0.73159 0.0
C2082 C 0.33059 0.26057 0.73477 0.0
H2083 H 0.26445 0.33006 0.74126 0.0
H2084 H 0.29927 0.30094 0.71897 0.0
C2085 C 0.33757 0.24887 0.75124 0.0
C2086 C 0.99599 0.07899 0.9854 0.0
C2087 C 0.03237 0.07968 0.98653 0.0
H2088 H 0.94808 0.05634 0.99595 0.0
C2089 C 0.04833 0.05834 0.99987 0.0
H2090 H 0.98305 0.09524 0.97526 0.0
C2091 C 0.0284 0.03598 0.01161 0.0
C2092 C 0.99208 0.03489 0.01035 0.0
H2093 H 0.07629 0.05861 1.0011 0.0
H2094 H 0.04133 0.01925 0.02163 0.0
C2095 C 0.97604 0.05684 0.9972 0.0
C2096 C 0.71541 0.81382 0.76715 0.0
C2097 C 0.70955 0.80153 0.75053 0.0
H2098 H 0.70114 0.80653 0.79266 0.0
C2099 C 0.68269 0.77191 0.74733 0.0
H2100 H 0.7362 0.83549 0.77045 0.0
C2101 C 0.66337 0.75406 0.76037 0.0
C2102 C 0.67009 0.7659 0.77685 0.0
H2103 H 0.67669 0.76208 0.73479 0.0
H2104 H 0.64367 0.73029 0.75762 0.0
C2105 C 0.69555 0.79686 0.78004 0.0
C2106 C 0.82076 0.23518 0.24941 0.0
C2107 C 0.79407 0.20522 0.25245 0.0
H2108 H 0.85929 0.277 0.25995 0.0
C2109 C 0.78802 0.19253 0.269 0.0
H2110 H 0.82694 0.24528 0.23693 0.0
C2111 C 0.8076 0.20937 0.282 0.0
C2112 C 0.83283 0.24069 0.27897 0.0
H2113 H 0.76732 0.17061 0.27218 0.0
H2114 H 0.80201 0.19924 0.29457 0.0
C2115 C 0.83969 0.25301 0.26256 0.0
C2116 C 0.70782 0.18954 0.74571 0.0
C2117 C 0.70198 0.20161 0.76235 0.0
H2118 H 0.69404 0.19794 0.7202 0.0
C2119 C 0.67525 0.23138 0.76563 0.0
H2120 H 0.72849 0.16776 0.74234 0.0
C2121 C 0.65633 0.24999 0.75262 0.0
C2122 C 0.66325 0.23862 0.73611 0.0
H2123 H 0.66919 0.24098 0.77818 0.0
H2124 H 0.63696 0.27414 0.75541 0.0
C2125 C 0.68829 0.20719 0.73285 0.0
C2126 C 0.80699 0.75564 0.26259 0.0
C2127 C 0.77999 0.78461 0.25884 0.0
H2128 H 0.84825 0.71606 0.2531 0.0
C2129 C 0.7756 0.79732 0.24218 0.0
H2130 H 0.81168 0.74553 0.27522 0.0
C2131 C 0.79724 0.78154 0.22972 0.0
C2132 C 0.82323 0.75163 0.23344 0.0
H2133 H 0.75477 0.81863 0.23856 0.0
H2134 H 0.79283 0.79146 0.21702 0.0
C2135 C 0.82827 0.73917 0.24998 0.0
C2136 C 0.55135 0.44612 0.0139 0.0
C2137 C 0.53434 0.42492 0.02698 0.0
H2138 H 0.54609 0.48447 0.99184 0.0
C2139 C 0.49789 0.42566 0.02745 0.0
H2140 H 0.5794 0.44585 0.0132 0.0
C2141 C 0.4789 0.44744 0.0152 0.0
C2142 C 0.49597 0.46903 1.00226 0.0
H2143 H 0.48414 0.40957 0.03738 0.0
H2144 H 0.45085 0.44774 0.01587 0.0
C2145 C 0.53237 0.46811 1.00171 0.0
C2146 C 0.97555 0.54489 0.50216 0.0
C2147 C 0.01135 0.53812 0.50385 0.0
H2148 H 0.92943 0.57221 0.51278 0.0
C2149 C 0.02846 0.55481 0.51782 0.0
H2150 H 0.96188 0.53242 0.49147 0.0
C2151 C 0.00991 0.57736 0.53005 0.0
C2152 C 0.97395 0.58343 0.52852 0.0
H2153 H 0.05609 0.55001 0.51934 0.0
H2154 H 0.02352 0.5896 0.5408 0.0
C2155 C 0.95707 0.56751 0.51433 0.0
C2156 C 0.02197 0.44448 0.99699 0.0
C2157 C 0.00606 0.46656 0.01015 0.0
H2158 H 0.01474 0.40602 0.97509 0.0
C2159 C 0.96975 0.46569 0.01144 0.0
H2160 H 0.04993 0.44481 0.99572 0.0
C2161 C 0.94968 0.4434 0.99974 0.0
C2162 C 0.96551 0.4219 0.98639 0.0
H2163 H 0.95691 0.48251 0.02146 0.0
H2164 H 0.92172 0.44326 1.001 0.0
C2165 C 0.00189 0.42239 0.98522 0.0
C2166 C 0.49176 0.57432 0.48338 0.0
C2167 C 0.52812 0.5769 0.484 0.0
H2168 H 0.44532 0.55044 0.49499 0.0
C2169 C 0.5456 0.55756 0.49737 0.0
H2170 H 0.47767 0.58956 0.47337 0.0
C2171 C 0.5272 0.53526 0.50964 0.0
C2172 C 0.49092 0.5324 0.50895 0.0
H2173 H 0.57354 0.55996 0.49836 0.0
H2174 H 0.54127 0.52038 0.51975 0.0
C2175 C 0.47332 0.55219 0.49574 0.0
C2176 C 0.07456 0.0131 0.2634 0.0
C2177 C 0.10576 0.03128 0.26917 0.0
H2178 H 0.05002 0.96957 0.24652 0.0
C2179 C 0.13701 0.01754 0.26186 0.0
H2180 H 0.04997 0.02234 0.26879 0.0
C2181 C 0.13708 0.98662 0.24923 0.0
C2182 C 0.1059 0.96852 0.24341 0.0
H2183 H 0.16156 0.03104 0.26574 0.0
H2184 H 0.16177 0.97659 0.24415 0.0
C2185 C 0.07463 0.98227 0.25071 0.0
C2186 C 0.25919 0.80785 0.52414 0.0
C2187 C 0.22468 0.80784 0.51849 0.0
H2188 H 0.31296 0.80675 0.51787 0.0
C2189 C 0.21879 0.80495 0.50128 0.0
H2190 H 0.26507 0.81031 0.53722 0.0
C2191 C 0.24649 0.80442 0.49006 0.0
C2192 C 0.28098 0.80608 0.4957 0.0
H2193 H 0.19269 0.80373 0.49638 0.0
H2194 H 0.24069 0.80421 0.47693 0.0
C2195 C 0.28686 0.80657 0.51294 0.0
C2196 C 0.36523 0.01906 0.75083 0.0
C2197 C 0.39674 0.03479 0.74442 0.0
H2198 H 0.33993 0.97543 0.76732 0.0
C2199 C 0.42785 0.01796 0.75086 0.0
H2200 H 0.34067 0.03155 0.74648 0.0
C2201 C 0.42742 0.98623 0.76322 0.0
C2202 C 0.39587 0.97016 0.76947 0.0
H2203 H 0.45267 0.02879 0.7462 0.0
H2204 H 0.45195 0.97454 0.76793 0.0
C2205 C 0.3648 0.98717 0.76307 0.0
C2206 C 0.26197 0.20933 0.01256 0.0
C2207 C 0.27531 0.17073 0.01904 0.0
H2208 H 0.2275 0.23919 0.99524 0.0
C2209 C 0.26278 0.13167 0.01262 0.0
H2210 H 0.27067 0.24007 0.01726 0.0
C2211 C 0.23747 0.13116 1.00023 0.0
C2212 C 0.22413 0.1697 0.99371 0.0
H2213 H 0.27274 0.10125 0.01705 0.0
H2214 H 0.22808 0.10036 0.99591 0.0
C2215 C 0.2368 0.20882 1.00004 0.0
C2216 C 0.87814 0.01582 0.76421 0.0
C2217 C 0.8461 0.02962 0.77065 0.0
H2218 H 0.90442 0.97866 0.74549 0.0
C2219 C 0.81551 0.01487 0.76308 0.0
H2220 H 0.90213 0.02683 0.76973 0.0
C2221 C 0.8168 0.98635 0.74969 0.0
C2222 C 0.84874 0.97313 0.743 0.0
H2223 H 0.79042 0.02544 0.76754 0.0
H2224 H 0.79266 0.97486 0.74446 0.0
C2225 C 0.87944 0.98832 0.75037 0.0
C2226 C 0.73376 0.00818 0.51092 0.0
C2227 C 0.71699 0.0474 0.51418 0.0
H2228 H 0.77867 0.97656 0.50129 0.0
C2229 C 0.73379 0.08584 0.50975 0.0
H2230 H 0.7215 0.97792 0.51399 0.0
C2231 C 0.76652 0.08504 0.50225 0.0
C2232 C 0.78323 0.04577 0.49898 0.0
H2233 H 0.72184 0.11665 0.51225 0.0
H2234 H 0.77848 0.11521 0.4988 0.0
C2235 C 0.76645 0.00738 0.50345 0.0
C2236 C 0.68328 0.01751 0.25064 0.0
C2237 C 0.65238 0.03449 0.24408 0.0
H2238 H 0.70679 0.97371 0.26773 0.0
C2239 C 0.62078 0.02234 0.25143 0.0
H2240 H 0.70815 0.02678 0.24553 0.0
C2241 C 0.62021 0.99419 0.26506 0.0
C2242 C 0.65108 0.97593 0.27116 0.0
H2243 H 0.59653 0.03486 0.24668 0.0
H2244 H 0.59553 0.98564 0.27055 0.0
C2245 C 0.68257 0.98775 0.26363 0.0
C2246 C 0.72922 0.99515 1.00405 0.0
C2247 C 0.71316 0.95669 0.99906 0.0
H2248 H 0.77376 0.02513 0.01474 0.0
C2249 C 0.7309 0.91774 1.00164 0.0
H2250 H 0.71627 0.02574 1.00246 0.0
C2251 C 0.76386 0.91733 0.00895 0.0
C2252 C 0.77994 0.95586 0.01388 0.0
H2253 H 0.71957 0.88753 0.99779 0.0
H2254 H 0.77654 0.88672 0.01092 0.0
C2255 C 0.76214 0.99475 0.0113 0.0
C2256 C 0.63733 0.48881 0.74959 0.0
C2257 C 0.60592 0.47246 0.74333 0.0
H2258 H 0.66228 0.5328 0.76612 0.0
C2259 C 0.57469 0.48912 0.7497 0.0
H2260 H 0.66194 0.47655 0.7452 0.0
C2261 C 0.57488 0.52103 0.76198 0.0
C2262 C 0.60631 0.53735 0.76824 0.0
H2263 H 0.54994 0.47782 0.74511 0.0
H2264 H 0.55028 0.53252 0.76668 0.0
C2265 C 0.63752 0.52078 0.76183 0.0
C2266 C 0.7608 0.37383 1.00039 0.0
C2267 C 0.77409 0.3348 0.9943 0.0
H2268 H 0.7257 0.40504 0.01696 0.0
C2269 C 0.76163 0.29619 1.00116 0.0
H2270 H 0.77006 0.40428 0.99566 0.0
C2271 C 0.73666 0.29667 0.01377 0.0
C2272 C 0.72329 0.33575 0.0198 0.0
H2273 H 0.77091 0.26546 0.99671 0.0
H2274 H 0.7281 0.26631 0.01888 0.0
C2275 C 0.73568 0.37429 0.01288 0.0
C2276 C 0.92892 0.48485 0.26312 0.0
C2277 C 0.89779 0.46605 0.26866 0.0
H2278 H 0.95332 0.52936 0.24655 0.0
C2279 C 0.86658 0.47934 0.26119 0.0
H2280 H 0.95348 0.4759 0.26862 0.0
C2281 C 0.86643 0.51062 0.24871 0.0
C2282 C 0.89751 0.52951 0.24317 0.0
H2283 H 0.84208 0.46532 0.26487 0.0
H2284 H 0.84173 0.52036 0.24356 0.0
C2285 C 0.92878 0.51606 0.25056 0.0
C2286 C 0.715 0.69033 0.51259 0.0
C2287 C 0.72138 0.69089 0.49539 0.0
H2288 H 0.7361 0.68663 0.53702 0.0
C2289 C 0.756 0.69277 0.48997 0.0
H2290 H 0.68875 0.68999 0.51734 0.0
C2291 C 0.78337 0.69228 0.50138 0.0
C2292 C 0.77699 0.68928 0.51855 0.0
H2293 H 0.76213 0.6931 0.47688 0.0
H2294 H 0.80962 0.69358 0.49665 0.0
C2295 C 0.74233 0.68915 0.52397 0.0
C2296 C 0.31594 0.51466 0.26449 0.0
C2297 C 0.34759 0.52567 0.27204 0.0
H2298 H 0.28982 0.47655 0.24627 0.0
C2299 C 0.3782 0.50681 0.26591 0.0
H2300 H 0.29191 0.52913 0.26864 0.0
C2301 C 0.37724 0.47899 0.25219 0.0
C2302 C 0.34548 0.46773 0.24478 0.0
H2303 H 0.40299 0.51468 0.27144 0.0
H2304 H 0.4013 0.46602 0.24741 0.0
C2305 C 0.31481 0.4852 0.2514 0.0
C2306 C 0.26753 0.58155 1.0003 0.0
C2307 C 0.28423 0.5425 0.99662 0.0
H2308 H 0.22279 0.61261 0.0105 0.0
C2309 C 0.26704 0.50385 1.00037 0.0
H2310 H 0.27977 0.61194 0.99739 0.0
C2311 C 0.23416 0.50425 0.00771 0.0
C2312 C 0.21754 0.5433 0.01148 0.0
H2313 H 0.27917 0.47317 0.99783 0.0
H2314 H 0.22169 0.47385 0.01037 0.0
C2315 C 0.23461 0.58195 0.00761 0.0
C2316 C 0.12073 0.48652 0.76371 0.0
C2317 C 0.15224 0.47166 0.77039 0.0
H2318 H 0.09589 0.52463 0.74484 0.0
C2319 C 0.18339 0.48552 0.76308 0.0
H2320 H 0.09633 0.47629 0.76905 0.0
C2321 C 0.18316 0.51423 0.74975 0.0
C2322 C 0.15174 0.52845 0.74281 0.0
H2323 H 0.2081 0.47419 0.76773 0.0
H2324 H 0.20771 0.52515 0.74478 0.0
C2325 C 0.12048 0.51413 0.7499 0.0
C2326 C 0.23401 0.41778 0.5026 0.0
C2327 C 0.21859 0.45678 0.49776 0.0
H2328 H 0.2775 0.38676 0.51396 0.0
C2329 C 0.23676 0.49525 0.50058 0.0
H2330 H 0.22098 0.38749 0.50042 0.0
C2331 C 0.2694 0.49477 0.50811 0.0
C2332 C 0.28473 0.45581 0.51306 0.0
H2333 H 0.22559 0.52591 0.49715 0.0
H2334 H 0.2827 0.52502 0.50999 0.0
C2335 C 0.26667 0.4173 0.51015 0.0
loop_
_geom_bond_atom_site_label_1
_geom_bond_atom_site_label_2
_geom_bond_distance
_geom_bond_site_symmetry_2
_ccdc_geom_bond_type
C0 C1 1.443 . S
C0 N4 1.376 . S
C0 C38 1.389 . S
C1 C0 1.443 . S
C1 C2 1.340 . S
C1 H41 0.951 . S
C2 C1 1.340 . S
C2 C3 1.439 . S
C2 H42 0.950 . S
C3 C2 1.439 . S
C3 N4 1.374 . S
C3 C37 1.395 . S
N4 C0 1.376 . S
N4 C3 1.374 . S
N4 Co5 2.008 . S
Co5 N4 2.008 . S
Co5 N6 1.995 . S
Co5 N11 2.008 . S
Co5 N16 1.995 . S
Co5 N21 2.282 . S
Co5 N27 2.282 . S
N6 Co5 1.995 . S
N6 C7 1.376 . S
N6 C10 1.383 . S
C7 N6 1.376 . S
C7 C8 1.446 . S
C7 C37 1.391 . S
C8 C7 1.446 . S
C8 C9 1.339 . S
C8 H43 0.949 . S
C9 C8 1.339 . S
C9 C10 1.439 . S
C9 H44 0.950 . S
C10 N6 1.383 . S
C10 C9 1.439 . S
C10 C39 1.392 . S
N11 Co5 2.008 . S
N11 C12 1.376 . S
N11 C15 1.374 . S
C12 N11 1.376 . S
C12 C13 1.443 . S
C12 C39 1.389 . S
C13 C12 1.443 . S
C13 C14 1.340 . S
C13 H45 0.951 . S
C14 C13 1.340 . S
C14 C15 1.439 . S
C14 H46 0.950 . S
C15 N11 1.374 . S
C15 C14 1.439 . S
C15 C40 1.395 . S
N16 Co5 1.995 . S
N16 C17 1.376 . S
N16 C20 1.383 . S
C17 N16 1.376 . S
C17 C18 1.446 . S
C17 C40 1.391 . S
C18 C17 1.446 . S
C18 C19 1.339 . S
C18 H47 0.949 . S
C19 C18 1.339 . S
C19 C20 1.439 . S
C19 H48 0.950 . S
C20 N16 1.383 . S
C20 C19 1.439 . S
C20 C38 1.392 . S
N21 Co5 2.282 . S
N21 C24 1.332 . S
N21 C26 1.332 . S
C22 C23 1.386 . S
C22 C25 1.388 . S
C23 C22 1.386 . S
C23 C24 1.382 . S
C23 H49 0.950 . S
C24 N21 1.332 . S
C24 C23 1.382 . S
C24 H35 0.952 . S
C25 C22 1.388 . S
C25 C26 1.382 . S
C25 H50 0.950 . S
C26 N21 1.332 . S
C26 C25 1.382 . S
C26 H36 0.948 . S
N27 Co5 2.282 . S
N27 C31 1.332 . S
N27 C32 1.332 . S
C28 C29 1.388 . S
C28 C32 1.382 . S
C28 H51 0.950 . S
C29 C28 1.388 . S
C29 C30 1.386 . S
C30 C29 1.386 . S
C30 C31 1.382 . S
C30 H52 0.950 . S
C31 N27 1.332 . S
C31 C30 1.382 . S
C31 H33 0.952 . S
C32 N27 1.332 . S
C32 C28 1.382 . S
C32 H34 0.948 . S
H33 C31 0.952 . S
H34 C32 0.948 . S
H35 C24 0.952 . S
H36 C26 0.948 . S
C37 C3 1.395 . S
C37 C7 1.391 . S
C38 C0 1.389 . S
C38 C20 1.392 . S
C39 C10 1.392 . S
C39 C12 1.389 . S
C40 C15 1.395 . S
C40 C17 1.391 . S
H41 C1 0.951 . S
H42 C2 0.950 . S
H43 C8 0.949 . S
H44 C9 0.950 . S
H45 C13 0.951 . S
H46 C14 0.950 . S
H47 C18 0.949 . S
H48 C19 0.950 . S
H49 C23 0.950 . S
H50 C25 0.950 . S
H51 C28 0.950 . S
H52 C30 0.950 . S
C53 C54 1.443 . S
C53 N57 1.376 . S
C53 C91 1.389 . S
C54 C53 1.443 . S
C54 C55 1.340 . S
C54 H94 0.951 . S
C55 C54 1.340 . S
C55 C56 1.439 . S
C55 H95 0.950 . S
C56 C55 1.439 . S
C56 N57 1.374 . S
C56 C90 1.395 . S
N57 C53 1.376 . S
N57 C56 1.374 . S
N57 Co58 2.008 . S
Co58 N57 2.008 . S
Co58 N59 1.995 . S
Co58 N64 2.008 . S
Co58 N69 1.995 . S
Co58 N74 2.282 . S
Co58 N80 2.282 . S
N59 Co58 1.995 . S
N59 C60 1.376 . S
N59 C63 1.383 . S
C60 N59 1.376 . S
C60 C61 1.446 . S
C60 C90 1.391 . S
C61 C60 1.446 . S
C61 C62 1.339 . S
C61 H96 0.949 . S
C62 C61 1.339 . S
C62 C63 1.439 . S
C62 H97 0.950 . S
C63 N59 1.383 . S
C63 C62 1.439 . S
C63 C92 1.392 . S
N64 Co58 2.008 . S
N64 C65 1.376 1_565 S
N64 C68 1.374 1_565 S
C65 N64 1.376 1_545 S
C65 C66 1.443 . S
C65 C92 1.389 1_545 S
C66 C65 1.443 . S
C66 C67 1.340 . S
C66 H98 0.951 . S
C67 C66 1.340 . S
C67 C68 1.439 . S
C67 H99 0.950 . S
C68 N64 1.374 1_545 S
C68 C67 1.439 . S
C68 C93 1.395 . S
N69 Co58 1.995 . S
N69 C70 1.376 . S
N69 C73 1.383 . S
C70 N69 1.376 . S
C70 C71 1.446 . S
C70 C93 1.391 1_565 S
C71 C70 1.446 . S
C71 C72 1.339 . S
C71 H100 0.949 1_565 S
C72 C71 1.339 . S
C72 C73 1.439 . S
C72 H101 0.950 . S
C73 N69 1.383 . S
C73 C72 1.439 . S
C73 C91 1.392 . S
N74 Co58 2.282 . S
N74 C77 1.332 . S
N74 C79 1.332 . S
C75 C76 1.386 . S
C75 C78 1.388 . S
C76 C75 1.386 . S
C76 C77 1.382 . S
C76 H102 0.950 . S
C77 N74 1.332 . S
C77 C76 1.382 . S
C77 H88 0.952 . S
C78 C75 1.388 . S
C78 C79 1.382 . S
C78 H103 0.950 . S
C79 N74 1.332 . S
C79 C78 1.382 . S
C79 H89 0.948 . S
N80 Co58 2.282 . S
N80 C84 1.332 . S
N80 C85 1.332 . S
C81 C82 1.388 . S
C81 C85 1.382 . S
C81 H104 0.950 . S
C82 C81 1.388 . S
C82 C83 1.386 . S
C83 C82 1.386 . S
C83 C84 1.382 . S
C83 H105 0.950 1_455 S
C84 N80 1.332 . S
C84 C83 1.382 . S
C84 H86 0.952 . S
C85 N80 1.332 . S
C85 C81 1.382 . S
C85 H87 0.948 . S
H86 C84 0.952 . S
H87 C85 0.948 . S
H88 C77 0.952 . S
H89 C79 0.948 . S
C90 C56 1.395 . S
C90 C60 1.391 . S
C91 C53 1.389 . S
C91 C73 1.392 . S
C92 C63 1.392 . S
C92 C65 1.389 1_565 S
C93 C68 1.395 . S
C93 C70 1.391 1_545 S
H94 C54 0.951 . S
H95 C55 0.950 . S
H96 C61 0.949 . S
H97 C62 0.950 . S
H98 C66 0.951 . S
H99 C67 0.950 . S
H100 C71 0.949 1_545 S
H101 C72 0.950 . S
H102 C76 0.950 . S
H103 C78 0.950 . S
H104 C81 0.950 . S
H105 C83 0.950 1_655 S
C106 C107 1.443 . S
C106 N110 1.376 . S
C106 C144 1.389 . S
C107 C106 1.443 . S
C107 C108 1.340 . S
C107 H147 0.951 . S
C108 C107 1.340 . S
C108 C109 1.439 . S
C108 H148 0.950 . S
C109 C108 1.439 . S
C109 N110 1.374 . S
C109 C143 1.395 . S
N110 C106 1.376 . S
N110 C109 1.374 . S
N110 Co111 2.008 . S
Co111 N110 2.008 . S
Co111 N112 1.995 . S
Co111 N117 2.008 . S
Co111 N122 1.995 . S
Co111 N127 2.282 . S
Co111 N133 2.282 . S
N112 Co111 1.995 . S
N112 C113 1.376 . S
N112 C116 1.383 . S
C113 N112 1.376 . S
C113 C114 1.446 . S
C113 C143 1.391 . S
C114 C113 1.446 . S
C114 C115 1.339 . S
C114 H149 0.949 . S
C115 C114 1.339 . S
C115 C116 1.439 . S
C115 H150 0.950 . S
C116 N112 1.383 . S
C116 C115 1.439 . S
C116 C145 1.392 . S
N117 Co111 2.008 . S
N117 C118 1.376 . S
N117 C121 1.374 . S
C118 N117 1.376 . S
C118 C119 1.443 . S
C118 C145 1.389 . S
C119 C118 1.443 . S
C119 C120 1.340 . S
C119 H151 0.951 . S
C120 C119 1.340 . S
C120 C121 1.439 . S
C120 H152 0.950 . S
C121 N117 1.374 . S
C121 C120 1.439 . S
C121 C146 1.395 . S
N122 Co111 1.995 . S
N122 C123 1.376 . S
N122 C126 1.383 . S
C123 N122 1.376 . S
C123 C124 1.446 . S
C123 C146 1.391 . S
C124 C123 1.446 . S
C124 C125 1.339 . S
C124 H153 0.949 . S
C125 C124 1.339 . S
C125 C126 1.439 . S
C125 H154 0.950 . S
C126 N122 1.383 . S
C126 C125 1.439 . S
C126 C144 1.392 . S
N127 Co111 2.282 . S
N127 C130 1.332 . S
N127 C132 1.332 . S
C128 C129 1.386 . S
C128 C131 1.388 . S
C129 C128 1.386 . S
C129 C130 1.382 . S
C129 H155 0.950 . S
C130 N127 1.332 . S
C130 C129 1.382 . S
C130 H141 0.952 . S
C131 C128 1.388 . S
C131 C132 1.382 . S
C131 H156 0.950 . S
C132 N127 1.332 . S
C132 C131 1.382 . S
C132 H142 0.948 . S
N133 Co111 2.282 . S
N133 C137 1.332 . S
N133 C138 1.332 . S
C134 C135 1.388 . S
C134 C138 1.382 . S
C134 H157 0.950 . S
C135 C134 1.388 . S
C135 C136 1.386 . S
C136 C135 1.386 . S
C136 C137 1.382 . S
C136 H158 0.950 . S
C137 N133 1.332 . S
C137 C136 1.382 . S
C137 H139 0.952 . S
C138 N133 1.332 . S
C138 C134 1.382 . S
C138 H140 0.948 . S
H139 C137 0.952 . S
H140 C138 0.948 . S
H141 C130 0.952 . S
H142 C132 0.948 . S
C143 C109 1.395 . S
C143 C113 1.391 . S
C144 C106 1.389 . S
C144 C126 1.392 . S
C145 C116 1.392 . S
C145 C118 1.389 . S
C146 C121 1.395 . S
C146 C123 1.391 . S
H147 C107 0.951 . S
H148 C108 0.950 . S
H149 C114 0.949 . S
H150 C115 0.950 . S
H151 C119 0.951 . S
H152 C120 0.950 . S
H153 C124 0.949 . S
H154 C125 0.950 . S
H155 C129 0.950 . S
H156 C131 0.950 . S
H157 C134 0.950 . S
H158 C136 0.950 . S
C159 C160 1.443 . S
C159 N163 1.376 . S
C159 C197 1.389 . S
C160 C159 1.443 . S
C160 C161 1.340 . S
C160 H200 0.951 . S
C161 C160 1.340 . S
C161 C162 1.439 . S
C161 H201 0.950 . S
C162 C161 1.439 . S
C162 N163 1.374 . S
C162 C196 1.395 . S
N163 C159 1.376 . S
N163 C162 1.374 . S
N163 Co164 2.008 . S
Co164 N163 2.008 . S
Co164 N165 1.995 . S
Co164 N170 2.008 . S
Co164 N175 1.995 . S
Co164 N180 2.282 . S
Co164 N186 2.282 . S
N165 Co164 1.995 . S
N165 C166 1.376 . S
N165 C169 1.383 . S
C166 N165 1.376 . S
C166 C167 1.446 . S
C166 C196 1.391 . S
C167 C166 1.446 . S
C167 C168 1.339 . S
C167 H202 0.949 . S
C168 C167 1.339 . S
C168 C169 1.439 . S
C168 H203 0.950 . S
C169 N165 1.383 . S
C169 C168 1.439 . S
C169 C198 1.392 . S
N170 Co164 2.008 . S
N170 C171 1.376 1_545 S
N170 C174 1.374 1_545 S
C171 N170 1.376 1_565 S
C171 C172 1.443 . S
C171 C198 1.389 1_565 S
C172 C171 1.443 . S
C172 C173 1.340 . S
C172 H204 0.951 . S
C173 C172 1.340 . S
C173 C174 1.439 . S
C173 H205 0.950 . S
C174 N170 1.374 1_565 S
C174 C173 1.439 . S
C174 C199 1.395 . S
N175 Co164 1.995 . S
N175 C176 1.376 . S
N175 C179 1.383 . S
C176 N175 1.376 . S
C176 C177 1.446 . S
C176 C199 1.391 1_545 S
C177 C176 1.446 . S
C177 C178 1.339 . S
C177 H206 0.949 1_545 S
C178 C177 1.339 . S
C178 C179 1.439 . S
C178 H207 0.950 . S
C179 N175 1.383 . S
C179 C178 1.439 . S
C179 C197 1.392 . S
N180 Co164 2.282 . S
N180 C183 1.332 . S
N180 C185 1.332 . S
C181 C182 1.386 . S
C181 C184 1.388 . S
C182 C181 1.386 . S
C182 C183 1.382 . S
C182 H208 0.950 . S
C183 N180 1.332 . S
C183 C182 1.382 . S
C183 H194 0.952 . S
C184 C181 1.388 . S
C184 C185 1.382 . S
C184 H209 0.950 . S
C185 N180 1.332 . S
C185 C184 1.382 . S
C185 H195 0.948 . S
N186 Co164 2.282 . S
N186 C190 1.332 . S
N186 C191 1.332 . S
C187 C188 1.388 . S
C187 C191 1.382 . S
C187 H210 0.950 . S
C188 C187 1.388 . S
C188 C189 1.386 . S
C189 C188 1.386 . S
C189 C190 1.382 . S
C189 H211 0.950 . S
C190 N186 1.332 . S
C190 C189 1.382 . S
C190 H192 0.952 . S
C191 N186 1.332 . S
C191 C187 1.382 . S
C191 H193 0.948 . S
H192 C190 0.952 . S
H193 C191 0.948 . S
H194 C183 0.952 . S
H195 C185 0.948 . S
C196 C162 1.395 . S
C196 C166 1.391 . S
C197 C159 1.389 . S
C197 C179 1.392 . S
C198 C169 1.392 . S
C198 C171 1.389 1_545 S
C199 C174 1.395 . S
C199 C176 1.391 1_565 S
H200 C160 0.951 . S
H201 C161 0.950 . S
H202 C167 0.949 . S
H203 C168 0.950 . S
H204 C172 0.951 . S
H205 C173 0.950 . S
H206 C177 0.949 1_565 S
H207 C178 0.950 . S
H208 C182 0.950 . S
H209 C184 0.950 . S
H210 C187 0.950 . S
H211 C189 0.950 . S
C212 C213 1.443 . S
C212 N216 1.376 . S
C212 C250 1.389 . S
C213 C212 1.443 . S
C213 C214 1.340 . S
C213 H253 0.951 . S
C214 C213 1.340 . S
C214 C215 1.439 . S
C214 H254 0.950 . S
C215 C214 1.439 . S
C215 N216 1.374 . S
C215 C249 1.395 . S
N216 C212 1.376 . S
N216 C215 1.374 . S
N216 Co217 2.008 . S
Co217 N216 2.008 . S
Co217 N218 1.995 . S
Co217 N223 2.008 . S
Co217 N228 1.995 . S
Co217 N233 2.282 . S
Co217 N239 2.282 . S
N218 Co217 1.995 . S
N218 C219 1.376 . S
N218 C222 1.383 . S
C219 N218 1.376 . S
C219 C220 1.446 . S
C219 C249 1.391 . S
C220 C219 1.446 . S
C220 C221 1.339 . S
C220 H255 0.949 . S
C221 C220 1.339 . S
C221 C222 1.439 . S
C221 H256 0.950 . S
C222 N218 1.383 . S
C222 C221 1.439 . S
C222 C251 1.392 . S
N223 Co217 2.008 . S
N223 C224 1.376 . S
N223 C227 1.374 . S
C224 N223 1.376 . S
C224 C225 1.443 . S
C224 C251 1.389 . S
C225 C224 1.443 . S
C225 C226 1.340 . S
C225 H257 0.951 . S
C226 C225 1.340 . S
C226 C227 1.439 . S
C226 H258 0.950 . S
C227 N223 1.374 . S
C227 C226 1.439 . S
C227 C252 1.395 . S
N228 Co217 1.995 . S
N228 C229 1.376 . S
N228 C232 1.383 . S
C229 N228 1.376 . S
C229 C230 1.446 . S
C229 C252 1.391 . S
C230 C229 1.446 . S
C230 C231 1.339 . S
C230 H259 0.949 . S
C231 C230 1.339 . S
C231 C232 1.439 . S
C231 H260 0.950 . S
C232 N228 1.383 . S
C232 C231 1.439 . S
C232 C250 1.392 . S
N233 Co217 2.282 . S
N233 C236 1.332 . S
N233 C238 1.332 . S
C234 C235 1.386 . S
C234 C237 1.388 . S
C235 C234 1.386 . S
C235 C236 1.382 . S
C235 H261 0.950 . S
C236 N233 1.332 . S
C236 C235 1.382 . S
C236 H247 0.952 . S
C237 C234 1.388 . S
C237 C238 1.382 . S
C237 H262 0.950 . S
C238 N233 1.332 . S
C238 C237 1.382 . S
C238 H248 0.948 . S
N239 Co217 2.282 . S
N239 C243 1.332 . S
N239 C244 1.332 . S
C240 C241 1.388 . S
C240 C244 1.382 . S
C240 H263 0.950 . S
C241 C240 1.388 . S
C241 C242 1.386 . S
C242 C241 1.386 . S
C242 C243 1.382 . S
C242 H264 0.950 . S
C243 N239 1.332 . S
C243 C242 1.382 . S
C243 H245 0.952 . S
C244 N239 1.332 . S
C244 C240 1.382 . S
C244 H246 0.948 . S
H245 C243 0.952 . S
H246 C244 0.948 . S
H247 C236 0.952 . S
H248 C238 0.948 . S
C249 C215 1.395 . S
C249 C219 1.391 . S
C250 C212 1.389 . S
C250 C232 1.392 . S
C251 C222 1.392 . S
C251 C224 1.389 . S
C252 C227 1.395 . S
C252 C229 1.391 . S
H253 C213 0.951 . S
H254 C214 0.950 . S
H255 C220 0.949 . S
H256 C221 0.950 . S
H257 C225 0.951 . S
H258 C226 0.950 . S
H259 C230 0.949 . S
H260 C231 0.950 . S
H261 C235 0.950 . S
H262 C237 0.950 . S
H263 C240 0.950 . S
H264 C242 0.950 . S
C265 C266 1.443 . S
C265 N269 1.376 . S
C265 C303 1.389 . S
C266 C265 1.443 . S
C266 C267 1.340 . S
C266 H306 0.951 . S
C267 C266 1.340 . S
C267 C268 1.439 . S
C267 H307 0.950 . S
C268 C267 1.439 . S
C268 N269 1.374 . S
C268 C302 1.395 . S
N269 C265 1.376 . S
N269 C268 1.374 . S
N269 Co270 2.008 . S
Co270 N269 2.008 . S
Co270 N271 1.995 . S
Co270 N276 2.008 . S
Co270 N281 1.995 . S
Co270 N286 2.282 . S
Co270 N292 2.282 . S
N271 Co270 1.995 . S
N271 C272 1.376 . S
N271 C275 1.383 . S
C272 N271 1.376 . S
C272 C273 1.446 . S
C272 C302 1.391 . S
C273 C272 1.446 . S
C273 C274 1.339 . S
C273 H308 0.949 . S
C274 C273 1.339 . S
C274 C275 1.439 . S
C274 H309 0.950 . S
C275 N271 1.383 . S
C275 C274 1.439 . S
C275 C304 1.392 . S
N276 Co270 2.008 . S
N276 C277 1.376 1_565 S
N276 C280 1.374 1_565 S
C277 N276 1.376 1_545 S
C277 C278 1.443 . S
C277 C304 1.389 1_545 S
C278 C277 1.443 . S
C278 C279 1.340 . S
C278 H310 0.951 . S
C279 C278 1.340 . S
C279 C280 1.439 . S
C279 H311 0.950 . S
C280 N276 1.374 1_545 S
C280 C279 1.439 . S
C280 C305 1.395 . S
N281 Co270 1.995 . S
N281 C282 1.376 . S
N281 C285 1.383 . S
C282 N281 1.376 . S
C282 C283 1.446 . S
C282 C305 1.391 1_565 S
C283 C282 1.446 . S
C283 C284 1.339 . S
C283 H312 0.949 1_565 S
C284 C283 1.339 . S
C284 C285 1.439 . S
C284 H313 0.950 . S
C285 N281 1.383 . S
C285 C284 1.439 . S
C285 C303 1.392 . S
N286 Co270 2.282 . S
N286 C289 1.332 . S
N286 C291 1.332 . S
C287 C288 1.386 . S
C287 C290 1.388 . S
C288 C287 1.386 . S
C288 C289 1.382 . S
C288 H314 0.950 . S
C289 N286 1.332 . S
C289 C288 1.382 . S
C289 H300 0.952 . S
C290 C287 1.388 . S
C290 C291 1.382 . S
C290 H315 0.950 . S
C291 N286 1.332 . S
C291 C290 1.382 . S
C291 H301 0.948 . S
N292 Co270 2.282 . S
N292 C296 1.332 . S
N292 C297 1.332 . S
C293 C294 1.388 . S
C293 C297 1.382 . S
C293 H316 0.950 . S
C294 C293 1.388 . S
C294 C295 1.386 . S
C295 C294 1.386 . S
C295 C296 1.382 . S
C295 H317 0.950 . S
C296 N292 1.332 . S
C296 C295 1.382 . S
C296 H298 0.952 . S
C297 N292 1.332 . S
C297 C293 1.382 . S
C297 H299 0.948 . S
H298 C296 0.952 . S
H299 C297 0.948 . S
H300 C289 0.952 . S
H301 C291 0.948 . S
C302 C268 1.395 . S
C302 C272 1.391 . S
C303 C265 1.389 . S
C303 C285 1.392 . S
C304 C275 1.392 . S
C304 C277 1.389 1_565 S
C305 C280 1.395 . S
C305 C282 1.391 1_545 S
H306 C266 0.951 . S
H307 C267 0.950 . S
H308 C273 0.949 . S
H309 C274 0.950 . S
H310 C278 0.951 . S
H311 C279 0.950 . S
H312 C283 0.949 1_545 S
H313 C284 0.950 . S
H314 C288 0.950 . S
H315 C290 0.950 . S
H316 C293 0.950 . S
H317 C295 0.950 . S
C318 C319 1.443 . S
C318 N322 1.376 . S
C318 C356 1.389 . S
C319 C318 1.443 . S
C319 C320 1.340 . S
C319 H359 0.951 . S
C320 C319 1.340 . S
C320 C321 1.439 . S
C320 H360 0.950 . S
C321 C320 1.439 . S
C321 N322 1.374 . S
C321 C355 1.395 . S
N322 C318 1.376 . S
N322 C321 1.374 . S
N322 Co323 2.008 . S
Co323 N322 2.008 . S
Co323 N324 1.995 . S
Co323 N329 2.008 . S
Co323 N334 1.995 . S
Co323 N339 2.282 . S
Co323 N345 2.282 . S
N324 Co323 1.995 . S
N324 C325 1.376 . S
N324 C328 1.383 . S
C325 N324 1.376 . S
C325 C326 1.446 . S
C325 C355 1.391 . S
C326 C325 1.446 . S
C326 C327 1.339 . S
C326 H361 0.949 . S
C327 C326 1.339 . S
C327 C328 1.439 . S
C327 H362 0.950 . S
C328 N324 1.383 . S
C328 C327 1.439 . S
C328 C357 1.392 . S
N329 Co323 2.008 . S
N329 C330 1.376 . S
N329 C333 1.374 . S
C330 N329 1.376 . S
C330 C331 1.443 . S
C330 C357 1.389 . S
C331 C330 1.443 . S
C331 C332 1.340 . S
C331 H363 0.951 . S
C332 C331 1.340 . S
C332 C333 1.439 . S
C332 H364 0.950 . S
C333 N329 1.374 . S
C333 C332 1.439 . S
C333 C358 1.395 . S
N334 Co323 1.995 . S
N334 C335 1.376 . S
N334 C338 1.383 . S
C335 N334 1.376 . S
C335 C336 1.446 . S
C335 C358 1.391 . S
C336 C335 1.446 . S
C336 C337 1.339 . S
C336 H365 0.949 . S
C337 C336 1.339 . S
C337 C338 1.439 . S
C337 H366 0.950 . S
C338 N334 1.383 . S
C338 C337 1.439 . S
C338 C356 1.392 . S
N339 Co323 2.282 . S
N339 C342 1.332 . S
N339 C344 1.332 . S
C340 C341 1.386 . S
C340 C343 1.388 . S
C341 C340 1.386 . S
C341 C342 1.382 . S
C341 H367 0.950 . S
C342 N339 1.332 . S
C342 C341 1.382 . S
C342 H353 0.952 . S
C343 C340 1.388 . S
C343 C344 1.382 . S
C343 H368 0.950 . S
C344 N339 1.332 . S
C344 C343 1.382 . S
C344 H354 0.948 . S
N345 Co323 2.282 . S
N345 C349 1.332 . S
N345 C350 1.332 . S
C346 C347 1.388 . S
C346 C350 1.382 . S
C346 H369 0.950 . S
C347 C346 1.388 . S
C347 C348 1.386 . S
C348 C347 1.386 . S
C348 C349 1.382 . S
C348 H370 0.950 . S
C349 N345 1.332 . S
C349 C348 1.382 . S
C349 H351 0.952 . S
C350 N345 1.332 . S
C350 C346 1.382 . S
C350 H352 0.948 . S
H351 C349 0.952 . S
H352 C350 0.948 . S
H353 C342 0.952 . S
H354 C344 0.948 . S
C355 C321 1.395 . S
C355 C325 1.391 . S
C356 C318 1.389 . S
C356 C338 1.392 . S
C357 C328 1.392 . S
C357 C330 1.389 . S
C358 C333 1.395 . S
C358 C335 1.391 . S
H359 C319 0.951 . S
H360 C320 0.950 . S
H361 C326 0.949 . S
H362 C327 0.950 . S
H363 C331 0.951 . S
H364 C332 0.950 . S
H365 C336 0.949 . S
H366 C337 0.950 . S
H367 C341 0.950 . S
H368 C343 0.950 . S
H369 C346 0.950 . S
H370 C348 0.950 . S
C371 C372 1.443 . S
C371 N375 1.376 . S
C371 C409 1.389 . S
C372 C371 1.443 . S
C372 C373 1.340 . S
C372 H412 0.951 . S
C373 C372 1.340 . S
C373 C374 1.439 . S
C373 H413 0.950 . S
C374 C373 1.439 . S
C374 N375 1.374 . S
C374 C408 1.395 . S
N375 C371 1.376 . S
N375 C374 1.374 . S
N375 Co376 2.008 . S
Co376 N375 2.008 . S
Co376 N377 1.995 . S
Co376 N382 2.008 . S
Co376 N387 1.995 . S
Co376 N392 2.282 . S
Co376 N398 2.282 . S
N377 Co376 1.995 . S
N377 C378 1.376 . S
N377 C381 1.383 . S
C378 N377 1.376 . S
C378 C379 1.446 . S
C378 C408 1.391 . S
C379 C378 1.446 . S
C379 C380 1.339 . S
C379 H414 0.949 . S
C380 C379 1.339 . S
C380 C381 1.439 . S
C380 H415 0.950 . S
C381 N377 1.383 . S
C381 C380 1.439 . S
C381 C410 1.392 . S
N382 Co376 2.008 . S
N382 C383 1.376 1_545 S
N382 C386 1.374 1_545 S
C383 N382 1.376 1_565 S
C383 C384 1.443 . S
C383 C410 1.389 1_565 S
C384 C383 1.443 . S
C384 C385 1.340 . S
C384 H416 0.951 . S
C385 C384 1.340 . S
C385 C386 1.439 . S
C385 H417 0.950 . S
C386 N382 1.374 1_565 S
C386 C385 1.439 . S
C386 C411 1.395 . S
N387 Co376 1.995 . S
N387 C388 1.376 . S
N387 C391 1.383 . S
C388 N387 1.376 . S
C388 C389 1.446 . S
C388 C411 1.391 1_545 S
C389 C388 1.446 . S
C389 C390 1.339 . S
C389 H418 0.949 1_545 S
C390 C389 1.339 . S
C390 C391 1.439 . S
C390 H419 0.950 . S
C391 N387 1.383 . S
C391 C390 1.439 . S
C391 C409 1.392 . S
N392 Co376 2.282 . S
N392 C395 1.332 . S
N392 C397 1.332 . S
C393 C394 1.386 . S
C393 C396 1.388 . S
C394 C393 1.386 . S
C394 C395 1.382 . S
C394 H420 0.950 . S
C395 N392 1.332 . S
C395 C394 1.382 . S
C395 H406 0.952 . S
C396 C393 1.388 . S
C396 C397 1.382 . S
C396 H421 0.950 . S
C397 N392 1.332 . S
C397 C396 1.382 . S
C397 H407 0.948 . S
N398 Co376 2.282 . S
N398 C402 1.332 . S
N398 C403 1.332 . S
C399 C400 1.388 . S
C399 C403 1.382 . S
C399 H422 0.950 . S
C400 C399 1.388 . S
C400 C401 1.386 . S
C401 C400 1.386 . S
C401 C402 1.382 . S
C401 H423 0.950 1_455 S
C402 N398 1.332 . S
C402 C401 1.382 . S
C402 H404 0.952 . S
C403 N398 1.332 . S
C403 C399 1.382 . S
C403 H405 0.948 . S
H404 C402 0.952 . S
H405 C403 0.948 . S
H406 C395 0.952 . S
H407 C397 0.948 . S
C408 C374 1.395 . S
C408 C378 1.391 . S
C409 C371 1.389 . S
C409 C391 1.392 . S
C410 C381 1.392 . S
C410 C383 1.389 1_545 S
C411 C386 1.395 . S
C411 C388 1.391 1_565 S
H412 C372 0.951 . S
H413 C373 0.950 . S
H414 C379 0.949 . S
H415 C380 0.950 . S
H416 C384 0.951 . S
H417 C385 0.950 . S
H418 C389 0.949 1_565 S
H419 C390 0.950 . S
H420 C394 0.950 . S
H421 C396 0.950 . S
H422 C399 0.950 . S
H423 C401 0.950 1_655 S
C424 C425 1.443 . S
C424 N428 1.376 . S
C424 C462 1.389 . S
C425 C424 1.443 . S
C425 C426 1.340 . S
C425 H465 0.951 . S
C426 C425 1.340 . S
C426 C427 1.439 . S
C426 H466 0.950 . S
C427 C426 1.439 . S
C427 N428 1.374 . S
C427 C461 1.395 . S
N428 C424 1.376 . S
N428 C427 1.374 . S
N428 Co429 2.008 . S
Co429 N428 2.008 . S
Co429 N430 1.995 . S
Co429 N435 2.008 . S
Co429 N440 1.995 . S
Co429 N445 2.282 . S
Co429 N451 2.282 . S
N430 Co429 1.995 . S
N430 C431 1.376 . S
N430 C434 1.383 . S
C431 N430 1.376 . S
C431 C432 1.446 . S
C431 C461 1.391 . S
C432 C431 1.446 . S
C432 C433 1.339 . S
C432 H467 0.949 . S
C433 C432 1.339 . S
C433 C434 1.439 . S
C433 H468 0.950 . S
C434 N430 1.383 . S
C434 C433 1.439 . S
C434 C463 1.392 . S
N435 Co429 2.008 . S
N435 C436 1.376 . S
N435 C439 1.374 . S
C436 N435 1.376 . S
C436 C437 1.443 . S
C436 C463 1.389 . S
C437 C436 1.443 . S
C437 C438 1.340 . S
C437 H469 0.951 . S
C438 C437 1.340 . S
C438 C439 1.439 . S
C438 H470 0.950 . S
C439 N435 1.374 . S
C439 C438 1.439 . S
C439 C464 1.395 . S
N440 Co429 1.995 . S
N440 C441 1.376 . S
N440 C444 1.383 . S
C441 N440 1.376 . S
C441 C442 1.446 . S
C441 C464 1.391 . S
C442 C441 1.446 . S
C442 C443 1.339 . S
C442 H471 0.949 . S
C443 C442 1.339 . S
C443 C444 1.439 . S
C443 H472 0.950 . S
C444 N440 1.383 . S
C444 C443 1.439 . S
C444 C462 1.392 . S
N445 Co429 2.282 . S
N445 C448 1.332 . S
N445 C450 1.332 . S
C446 C447 1.386 . S
C446 C449 1.388 . S
C447 C446 1.386 . S
C447 C448 1.382 . S
C447 H473 0.950 . S
C448 N445 1.332 . S
C448 C447 1.382 . S
C448 H459 0.952 . S
C449 C446 1.388 . S
C449 C450 1.382 . S
C449 H474 0.950 . S
C450 N445 1.332 . S
C450 C449 1.382 . S
C450 H460 0.948 . S
N451 Co429 2.282 . S
N451 C455 1.332 . S
N451 C456 1.332 . S
C452 C453 1.388 . S
C452 C456 1.382 . S
C452 H475 0.950 . S
C453 C452 1.388 . S
C453 C454 1.386 . S
C454 C453 1.386 . S
C454 C455 1.382 . S
C454 H476 0.950 . S
C455 N451 1.332 . S
C455 C454 1.382 . S
C455 H457 0.952 . S
C456 N451 1.332 . S
C456 C452 1.382 . S
C456 H458 0.948 . S
H457 C455 0.952 . S
H458 C456 0.948 . S
H459 C448 0.952 . S
H460 C450 0.948 . S
C461 C427 1.395 . S
C461 C431 1.391 . S
C462 C424 1.389 . S
C462 C444 1.392 . S
C463 C434 1.392 . S
C463 C436 1.389 . S
C464 C439 1.395 . S
C464 C441 1.391 . S
H465 C425 0.951 . S
H466 C426 0.950 . S
H467 C432 0.949 . S
H468 C433 0.950 . S
H469 C437 0.951 . S
H470 C438 0.950 . S
H471 C442 0.949 . S
H472 C443 0.950 . S
H473 C447 0.950 . S
H474 C449 0.950 . S
H475 C452 0.950 . S
H476 C454 0.950 . S
C477 C478 1.443 1_545 S
C477 N481 1.376 1_545 S
C477 C515 1.389 . S
C478 C477 1.443 1_565 S
C478 C479 1.340 . S
C478 H518 0.951 1_565 S
C479 C478 1.340 . S
C479 C480 1.439 . S
C479 H519 0.950 . S
C480 C479 1.439 . S
C480 N481 1.374 . S
C480 C514 1.395 . S
N481 C477 1.376 1_565 S
N481 C480 1.374 . S
N481 Co482 2.008 1_565 S
Co482 N481 2.008 1_545 S
Co482 N483 1.995 1_545 S
Co482 N488 2.008 . S
Co482 N493 1.995 . S
Co482 N498 2.282 . S
Co482 N504 2.282 . S
N483 Co482 1.995 1_565 S
N483 C484 1.376 . S
N483 C487 1.383 . S
C484 N483 1.376 . S
C484 C485 1.446 . S
C484 C514 1.391 . S
C485 C484 1.446 . S
C485 C486 1.339 . S
C485 H520 0.949 . S
C486 C485 1.339 . S
C486 C487 1.439 . S
C486 H521 0.950 . S
C487 N483 1.383 . S
C487 C486 1.439 . S
C487 C516 1.392 . S
N488 Co482 2.008 . S
N488 C489 1.376 . S
N488 C492 1.374 . S
C489 N488 1.376 . S
C489 C490 1.443 . S
C489 C516 1.389 1_545 S
C490 C489 1.443 . S
C490 C491 1.340 . S
C490 H522 0.951 . S
C491 C490 1.340 . S
C491 C492 1.439 . S
C491 H523 0.950 . S
C492 N488 1.374 . S
C492 C491 1.439 . S
C492 C517 1.395 . S
N493 Co482 1.995 . S
N493 C494 1.376 . S
N493 C497 1.383 . S
C494 N493 1.376 . S
C494 C495 1.446 . S
C494 C517 1.391 . S
C495 C494 1.446 . S
C495 C496 1.339 . S
C495 H524 0.949 . S
C496 C495 1.339 . S
C496 C497 1.439 . S
C496 H525 0.950 . S
C497 N493 1.383 . S
C497 C496 1.439 . S
C497 C515 1.392 . S
N498 Co482 2.282 . S
N498 C501 1.332 . S
N498 C503 1.332 1_545 S
C499 C500 1.386 1_565 S
C499 C502 1.388 . S
C500 C499 1.386 1_545 S
C500 C501 1.382 . S
C500 H526 0.950 . S
C501 N498 1.332 . S
C501 C500 1.382 . S
C501 H512 0.952 . S
C502 C499 1.388 . S
C502 C503 1.382 . S
C502 H527 0.950 . S
C503 N498 1.332 1_565 S
C503 C502 1.382 . S
C503 H513 0.948 . S
N504 Co482 2.282 . S
N504 C508 1.332 1_545 S
N504 C509 1.332 . S
C505 C506 1.388 . S
C505 C509 1.382 1_455 S
C505 H528 0.950 . S
C506 C505 1.388 . S
C506 C507 1.395 1_545 S
C507 C506 1.395 1_565 S
C507 C508 1.365 1_455 S
C507 H529 0.957 . S
C508 N504 1.332 1_565 S
C508 C507 1.365 1_655 S
C508 H510 0.952 . S
C509 N504 1.332 . S
C509 C505 1.382 1_655 S
C509 H511 0.948 . S
H510 C508 0.952 . S
H511 C509 0.948 . S
H512 C501 0.952 . S
H513 C503 0.948 . S
C514 C480 1.395 . S
C514 C484 1.391 . S
C515 C477 1.389 . S
C515 C497 1.392 . S
C516 C487 1.392 . S
C516 C489 1.389 1_565 S
C517 C492 1.395 . S
C517 C494 1.391 . S
H518 C478 0.951 1_545 S
H519 C479 0.950 . S
H520 C485 0.949 . S
H521 C486 0.950 . S
H522 C490 0.951 . S
H523 C491 0.950 . S
H524 C495 0.949 . S
H525 C496 0.950 . S
H526 C500 0.950 . S
H527 C502 0.950 . S
H528 C505 0.950 . S
H529 C507 0.957 . S
C530 C531 1.443 . S
C530 N534 1.376 . S
C530 C568 1.389 . S
C531 C530 1.443 . S
C531 C532 1.340 . S
C531 H571 0.951 . S
C532 C531 1.340 . S
C532 C533 1.439 . S
C532 H572 0.950 . S
C533 C532 1.439 . S
C533 N534 1.374 . S
C533 C567 1.395 . S
N534 C530 1.376 . S
N534 C533 1.374 . S
N534 Co535 2.008 . S
Co535 N534 2.008 . S
Co535 N536 1.995 . S
Co535 N541 2.008 . S
Co535 N546 1.995 . S
Co535 N551 2.282 . S
Co535 N557 2.282 . S
N536 Co535 1.995 . S
N536 C537 1.376 . S
N536 C540 1.383 . S
C537 N536 1.376 . S
C537 C538 1.446 . S
C537 C567 1.391 . S
C538 C537 1.446 . S
C538 C539 1.339 . S
C538 H573 0.949 . S
C539 C538 1.339 . S
C539 C540 1.439 . S
C539 H574 0.950 . S
C540 N536 1.383 . S
C540 C539 1.439 . S
C540 C569 1.392 . S
N541 Co535 2.008 . S
N541 C542 1.376 . S
N541 C545 1.374 . S
C542 N541 1.376 . S
C542 C543 1.443 . S
C542 C569 1.389 . S
C543 C542 1.443 . S
C543 C544 1.340 . S
C543 H575 0.951 . S
C544 C543 1.340 . S
C544 C545 1.439 . S
C544 H576 0.950 . S
C545 N541 1.374 . S
C545 C544 1.439 . S
C545 C570 1.395 . S
N546 Co535 1.995 . S
N546 C547 1.376 . S
N546 C550 1.383 . S
C547 N546 1.376 . S
C547 C548 1.446 . S
C547 C570 1.391 . S
C548 C547 1.446 . S
C548 C549 1.339 . S
C548 H577 0.949 . S
C549 C548 1.339 . S
C549 C550 1.439 . S
C549 H578 0.950 . S
C550 N546 1.383 . S
C550 C549 1.439 . S
C550 C568 1.392 . S
N551 Co535 2.282 . S
N551 C554 1.332 . S
N551 C556 1.332 . S
C552 C553 1.386 . S
C552 C555 1.388 . S
C553 C552 1.386 . S
C553 C554 1.382 . S
C553 H579 0.950 . S
C554 N551 1.332 . S
C554 C553 1.382 . S
C554 H565 0.952 . S
C555 C552 1.388 . S
C555 C556 1.382 . S
C555 H580 0.950 . S
C556 N551 1.332 . S
C556 C555 1.382 . S
C556 H566 0.948 . S
N557 Co535 2.282 . S
N557 C561 1.332 . S
N557 C562 1.332 . S
C558 C559 1.388 . S
C558 C562 1.382 . S
C558 H581 0.950 . S
C559 C558 1.388 . S
C559 C560 1.386 . S
C560 C559 1.386 . S
C560 C561 1.382 . S
C560 H582 0.950 . S
C561 N557 1.332 . S
C561 C560 1.382 . S
C561 H563 0.952 . S
C562 N557 1.332 . S
C562 C558 1.382 . S
C562 H564 0.948 . S
H563 C561 0.952 . S
H564 C562 0.948 . S
H565 C554 0.952 . S
H566 C556 0.948 . S
C567 C533 1.395 . S
C567 C537 1.391 . S
C568 C530 1.389 . S
C568 C550 1.392 . S
C569 C540 1.392 . S
C569 C542 1.389 . S
C570 C545 1.395 . S
C570 C547 1.391 . S
H571 C531 0.951 . S
H572 C532 0.950 . S
H573 C538 0.949 . S
H574 C539 0.950 . S
H575 C543 0.951 . S
H576 C544 0.950 . S
H577 C548 0.949 . S
H578 C549 0.950 . S
H579 C553 0.950 . S
H580 C555 0.950 . S
H581 C558 0.950 . S
H582 C560 0.950 . S
C583 C584 1.443 1_565 S
C583 N587 1.376 1_565 S
C583 C621 1.389 . S
C584 C583 1.443 1_545 S
C584 C585 1.340 . S
C584 H624 0.951 1_545 S
C585 C584 1.340 . S
C585 C586 1.439 . S
C585 H625 0.950 . S
C586 C585 1.439 . S
C586 N587 1.374 . S
C586 C620 1.395 . S
N587 C583 1.376 1_545 S
N587 C586 1.374 . S
N587 Co588 2.008 1_545 S
Co588 N587 2.008 1_565 S
Co588 N589 1.995 1_565 S
Co588 N594 2.008 . S
Co588 N599 1.995 . S
Co588 N604 2.282 . S
Co588 N610 2.282 . S
N589 Co588 1.995 1_545 S
N589 C590 1.376 . S
N589 C593 1.383 . S
C590 N589 1.376 . S
C590 C591 1.446 . S
C590 C620 1.391 . S
C591 C590 1.446 . S
C591 C592 1.339 . S
C591 H626 0.949 . S
C592 C591 1.339 . S
C592 C593 1.439 . S
C592 H627 0.950 . S
C593 N589 1.383 . S
C593 C592 1.439 . S
C593 C622 1.392 . S
N594 Co588 2.008 . S
N594 C595 1.376 . S
N594 C598 1.374 . S
C595 N594 1.376 . S
C595 C596 1.443 . S
C595 C622 1.389 1_565 S
C596 C595 1.443 . S
C596 C597 1.340 . S
C596 H628 0.951 . S
C597 C596 1.340 . S
C597 C598 1.439 . S
C597 H629 0.950 . S
C598 N594 1.374 . S
C598 C597 1.439 . S
C598 C623 1.395 . S
N599 Co588 1.995 . S
N599 C600 1.376 . S
N599 C603 1.383 . S
C600 N599 1.376 . S
C600 C601 1.446 . S
C600 C623 1.391 . S
C601 C600 1.446 . S
C601 C602 1.339 . S
C601 H630 0.949 . S
C602 C601 1.339 . S
C602 C603 1.439 . S
C602 H631 0.950 . S
C603 N599 1.383 . S
C603 C602 1.439 . S
C603 C621 1.392 . S
N604 Co588 2.282 . S
N604 C607 1.332 . S
N604 C609 1.332 1_565 S
C605 C606 1.386 1_545 S
C605 C608 1.388 . S
C606 C605 1.386 1_565 S
C606 C607 1.382 . S
C606 H632 0.950 . S
C607 N604 1.332 . S
C607 C606 1.382 . S
C607 H618 0.952 . S
C608 C605 1.388 . S
C608 C609 1.382 . S
C608 H633 0.950 . S
C609 N604 1.332 1_545 S
C609 C608 1.382 . S
C609 H619 0.948 . S
N610 Co588 2.282 . S
N610 C614 1.332 1_565 S
N610 C615 1.332 . S
C611 C612 1.388 . S
C611 C615 1.382 . S
C611 H634 0.950 . S
C612 C611 1.388 . S
C612 C613 1.386 1_565 S
C613 C612 1.386 1_545 S
C613 C614 1.382 . S
C613 H635 0.950 . S
C614 N610 1.332 1_545 S
C614 C613 1.382 . S
C614 H616 0.952 . S
C615 N610 1.332 . S
C615 C611 1.382 . S
C615 H617 0.948 . S
H616 C614 0.952 . S
H617 C615 0.948 . S
H618 C607 0.952 . S
H619 C609 0.948 . S
C620 C586 1.395 . S
C620 C590 1.391 . S
C621 C583 1.389 . S
C621 C603 1.392 . S
C622 C593 1.392 . S
C622 C595 1.389 1_545 S
C623 C598 1.395 . S
C623 C600 1.391 . S
H624 C584 0.951 1_565 S
H625 C585 0.950 . S
H626 C591 0.949 . S
H627 C592 0.950 . S
H628 C596 0.951 . S
H629 C597 0.950 . S
H630 C601 0.949 . S
H631 C602 0.950 . S
H632 C606 0.950 . S
H633 C608 0.950 . S
H634 C611 0.950 . S
H635 C613 0.950 . S
C636 C637 1.443 . S
C636 N640 1.376 . S
C636 C674 1.389 . S
C637 C636 1.443 . S
C637 C638 1.340 . S
C637 H677 0.951 . S
C638 C637 1.340 . S
C638 C639 1.439 . S
C638 H678 0.950 . S
C639 C638 1.439 . S
C639 N640 1.374 . S
C639 C673 1.395 . S
N640 C636 1.376 . S
N640 C639 1.374 . S
N640 Co641 2.008 . S
Co641 N640 2.008 . S
Co641 N642 1.995 . S
Co641 N647 2.008 . S
Co641 N652 1.995 . S
Co641 N657 2.282 . S
Co641 N663 2.282 . S
N642 Co641 1.995 . S
N642 C643 1.376 . S
N642 C646 1.383 . S
C643 N642 1.376 . S
C643 C644 1.446 . S
C643 C673 1.391 . S
C644 C643 1.446 . S
C644 C645 1.339 . S
C644 H679 0.949 . S
C645 C644 1.339 . S
C645 C646 1.439 . S
C645 H680 0.950 . S
C646 N642 1.383 . S
C646 C645 1.439 . S
C646 C675 1.392 . S
N647 Co641 2.008 . S
N647 C648 1.376 . S
N647 C651 1.374 . S
C648 N647 1.376 . S
C648 C649 1.443 . S
C648 C675 1.389 . S
C649 C648 1.443 . S
C649 C650 1.340 . S
C649 H681 0.951 . S
C650 C649 1.340 . S
C650 C651 1.439 . S
C650 H682 0.950 . S
C651 N647 1.374 . S
C651 C650 1.439 . S
C651 C676 1.395 . S
N652 Co641 1.995 . S
N652 C653 1.376 . S
N652 C656 1.383 . S
C653 N652 1.376 . S
C653 C654 1.446 . S
C653 C676 1.391 . S
C654 C653 1.446 . S
C654 C655 1.339 . S
C654 H683 0.949 . S
C655 C654 1.339 . S
C655 C656 1.439 . S
C655 H684 0.950 . S
C656 N652 1.383 . S
C656 C655 1.439 . S
C656 C674 1.392 . S
N657 Co641 2.282 . S
N657 C660 1.332 . S
N657 C662 1.332 . S
C658 C659 1.386 . S
C658 C661 1.388 . S
C659 C658 1.386 . S
C659 C660 1.382 . S
C659 H685 0.950 . S
C660 N657 1.332 . S
C660 C659 1.382 . S
C660 H671 0.952 . S
C661 C658 1.388 . S
C661 C662 1.382 . S
C661 H686 0.950 . S
C662 N657 1.332 . S
C662 C661 1.382 . S
C662 H672 0.948 . S
N663 Co641 2.282 . S
N663 C667 1.332 . S
N663 C668 1.332 . S
C664 C665 1.388 . S
C664 C668 1.382 . S
C664 H687 0.950 . S
C665 C664 1.388 . S
C665 C666 1.386 . S
C666 C665 1.386 . S
C666 C667 1.382 . S
C666 H688 0.950 . S
C667 N663 1.332 . S
C667 C666 1.382 . S
C667 H669 0.952 . S
C668 N663 1.332 . S
C668 C664 1.382 . S
C668 H670 0.948 . S
H669 C667 0.952 . S
H670 C668 0.948 . S
H671 C660 0.952 . S
H672 C662 0.948 . S
C673 C639 1.395 . S
C673 C643 1.391 . S
C674 C636 1.389 . S
C674 C656 1.392 . S
C675 C646 1.392 . S
C675 C648 1.389 . S
C676 C651 1.395 . S
C676 C653 1.391 . S
H677 C637 0.951 . S
H678 C638 0.950 . S
H679 C644 0.949 . S
H680 C645 0.950 . S
H681 C649 0.951 . S
H682 C650 0.950 . S
H683 C654 0.949 . S
H684 C655 0.950 . S
H685 C659 0.950 . S
H686 C661 0.950 . S
H687 C664 0.950 . S
H688 C666 0.950 . S
C689 C690 1.443 1_545 S
C689 N693 1.376 1_545 S
C689 C727 1.389 . S
C690 C689 1.443 1_565 S
C690 C691 1.340 . S
C690 H730 0.951 1_565 S
C691 C690 1.340 . S
C691 C692 1.439 . S
C691 H731 0.950 . S
C692 C691 1.439 . S
C692 N693 1.374 . S
C692 C726 1.395 . S
N693 C689 1.376 1_565 S
N693 C692 1.374 . S
N693 Co694 2.008 1_565 S
Co694 N693 2.008 1_545 S
Co694 N695 1.995 1_545 S
Co694 N700 2.008 . S
Co694 N705 1.995 . S
Co694 N710 2.282 . S
Co694 N716 2.282 . S
N695 Co694 1.995 1_565 S
N695 C696 1.376 . S
N695 C699 1.383 . S
C696 N695 1.376 . S
C696 C697 1.446 . S
C696 C726 1.391 . S
C697 C696 1.446 . S
C697 C698 1.339 . S
C697 H732 0.949 . S
C698 C697 1.339 . S
C698 C699 1.439 . S
C698 H733 0.950 . S
C699 N695 1.383 . S
C699 C698 1.439 . S
C699 C728 1.392 . S
N700 Co694 2.008 . S
N700 C701 1.376 . S
N700 C704 1.374 . S
C701 N700 1.376 . S
C701 C702 1.443 . S
C701 C728 1.389 1_545 S
C702 C701 1.443 . S
C702 C703 1.340 . S
C702 H734 0.951 . S
C703 C702 1.340 . S
C703 C704 1.439 . S
C703 H735 0.950 . S
C704 N700 1.374 . S
C704 C703 1.439 . S
C704 C729 1.395 . S
N705 Co694 1.995 . S
N705 C706 1.376 . S
N705 C709 1.383 . S
C706 N705 1.376 . S
C706 C707 1.446 . S
C706 C729 1.391 . S
C707 C706 1.446 . S
C707 C708 1.339 . S
C707 H736 0.949 . S
C708 C707 1.339 . S
C708 C709 1.439 . S
C708 H737 0.950 . S
C709 N705 1.383 . S
C709 C708 1.439 . S
C709 C727 1.392 . S
N710 Co694 2.282 . S
N710 C713 1.332 . S
N710 C715 1.332 1_545 S
C711 C712 1.386 1_565 S
C711 C714 1.388 . S
C712 C711 1.386 1_545 S
C712 C713 1.382 . S
C712 H738 0.950 . S
C713 N710 1.332 . S
C713 C712 1.382 . S
C713 H724 0.952 . S
C714 C711 1.388 . S
C714 C715 1.382 . S
C714 H739 0.950 . S
C715 N710 1.332 1_565 S
C715 C714 1.382 . S
C715 H725 0.948 . S
N716 Co694 2.282 . S
N716 C720 1.332 1_545 S
N716 C721 1.332 . S
C717 C718 1.388 . S
C717 C721 1.382 . S
C717 H740 0.950 . S
C718 C717 1.388 . S
C718 C719 1.386 1_545 S
C719 C718 1.386 1_565 S
C719 C720 1.382 . S
C719 H741 0.950 . S
C720 N716 1.332 1_565 S
C720 C719 1.382 . S
C720 H722 0.952 . S
C721 N716 1.332 . S
C721 C717 1.382 . S
C721 H723 0.948 . S
H722 C720 0.952 . S
H723 C721 0.948 . S
H724 C713 0.952 . S
H725 C715 0.948 . S
C726 C692 1.395 . S
C726 C696 1.391 . S
C727 C689 1.389 . S
C727 C709 1.392 . S
C728 C699 1.392 . S
C728 C701 1.389 1_565 S
C729 C704 1.395 . S
C729 C706 1.391 . S
H730 C690 0.951 1_545 S
H731 C691 0.950 . S
H732 C697 0.949 . S
H733 C698 0.950 . S
H734 C702 0.951 . S
H735 C703 0.950 . S
H736 C707 0.949 . S
H737 C708 0.950 . S
H738 C712 0.950 . S
H739 C714 0.950 . S
H740 C717 0.950 . S
H741 C719 0.950 . S
C742 C743 1.443 . S
C742 N746 1.376 . S
C742 C780 1.389 . S
C743 C742 1.443 . S
C743 C744 1.340 . S
C743 H783 0.951 . S
C744 C743 1.340 . S
C744 C745 1.439 . S
C744 H784 0.950 . S
C745 C744 1.439 . S
C745 N746 1.374 . S
C745 C779 1.395 . S
N746 C742 1.376 . S
N746 C745 1.374 . S
N746 Co747 2.008 . S
Co747 N746 2.008 . S
Co747 N748 1.995 . S
Co747 N753 2.008 . S
Co747 N758 1.995 . S
Co747 N763 2.282 . S
Co747 N769 2.282 . S
N748 Co747 1.995 . S
N748 C749 1.376 . S
N748 C752 1.383 . S
C749 N748 1.376 . S
C749 C750 1.446 . S
C749 C779 1.391 . S
C750 C749 1.446 . S
C750 C751 1.339 . S
C750 H785 0.949 . S
C751 C750 1.339 . S
C751 C752 1.439 . S
C751 H786 0.950 . S
C752 N748 1.383 . S
C752 C751 1.439 . S
C752 C781 1.392 . S
N753 Co747 2.008 . S
N753 C754 1.376 . S
N753 C757 1.374 . S
C754 N753 1.376 . S
C754 C755 1.443 . S
C754 C781 1.389 . S
C755 C754 1.443 . S
C755 C756 1.340 . S
C755 H787 0.951 . S
C756 C755 1.340 . S
C756 C757 1.439 . S
C756 H788 0.950 . S
C757 N753 1.374 . S
C757 C756 1.439 . S
C757 C782 1.395 . S
N758 Co747 1.995 . S
N758 C759 1.376 . S
N758 C762 1.383 . S
C759 N758 1.376 . S
C759 C760 1.446 . S
C759 C782 1.391 . S
C760 C759 1.446 . S
C760 C761 1.339 . S
C760 H789 0.949 . S
C761 C760 1.339 . S
C761 C762 1.439 . S
C761 H790 0.950 . S
C762 N758 1.383 . S
C762 C761 1.439 . S
C762 C780 1.392 . S
N763 Co747 2.282 . S
N763 C766 1.332 . S
N763 C768 1.332 . S
C764 C765 1.386 . S
C764 C767 1.388 . S
C765 C764 1.386 . S
C765 C766 1.382 . S
C765 H791 0.950 . S
C766 N763 1.332 . S
C766 C765 1.382 . S
C766 H777 0.952 . S
C767 C764 1.388 . S
C767 C768 1.382 . S
C767 H792 0.950 . S
C768 N763 1.332 . S
C768 C767 1.382 . S
C768 H778 0.948 . S
N769 Co747 2.282 . S
N769 C773 1.332 . S
N769 C774 1.332 . S
C770 C771 1.388 . S
C770 C774 1.382 . S
C770 H793 0.950 . S
C771 C770 1.388 . S
C771 C772 1.386 . S
C772 C771 1.386 . S
C772 C773 1.382 . S
C772 H794 0.950 . S
C773 N769 1.332 . S
C773 C772 1.382 . S
C773 H775 0.952 . S
C774 N769 1.332 . S
C774 C770 1.382 . S
C774 H776 0.948 . S
H775 C773 0.952 . S
H776 C774 0.948 . S
H777 C766 0.952 . S
H778 C768 0.948 . S
C779 C745 1.395 . S
C779 C749 1.391 . S
C780 C742 1.389 . S
C780 C762 1.392 . S
C781 C752 1.392 . S
C781 C754 1.389 . S
C782 C757 1.395 . S
C782 C759 1.391 . S
H783 C743 0.951 . S
H784 C744 0.950 . S
H785 C750 0.949 . S
H786 C751 0.950 . S
H787 C755 0.951 . S
H788 C756 0.950 . S
H789 C760 0.949 . S
H790 C761 0.950 . S
H791 C765 0.950 . S
H792 C767 0.950 . S
H793 C770 0.950 . S
H794 C772 0.950 . S
C795 C796 1.443 1_565 S
C795 N799 1.376 1_565 S
C795 C833 1.389 . S
C796 C795 1.443 1_545 S
C796 C797 1.340 . S
C796 H836 0.951 1_545 S
C797 C796 1.340 . S
C797 C798 1.439 . S
C797 H837 0.950 . S
C798 C797 1.439 . S
C798 N799 1.374 . S
C798 C832 1.395 . S
N799 C795 1.376 1_545 S
N799 C798 1.374 . S
N799 Co800 2.008 1_545 S
Co800 N799 2.008 1_565 S
Co800 N801 1.995 1_565 S
Co800 N806 2.008 . S
Co800 N811 1.995 . S
Co800 N816 2.282 . S
Co800 N822 2.282 . S
N801 Co800 1.995 1_545 S
N801 C802 1.376 . S
N801 C805 1.383 . S
C802 N801 1.376 . S
C802 C803 1.446 . S
C802 C832 1.391 . S
C803 C802 1.446 . S
C803 C804 1.339 . S
C803 H838 0.949 . S
C804 C803 1.339 . S
C804 C805 1.439 . S
C804 H839 0.950 . S
C805 N801 1.383 . S
C805 C804 1.439 . S
C805 C834 1.392 . S
N806 Co800 2.008 . S
N806 C807 1.376 . S
N806 C810 1.374 . S
C807 N806 1.376 . S
C807 C808 1.443 . S
C807 C834 1.389 1_565 S
C808 C807 1.443 . S
C808 C809 1.340 . S
C808 H840 0.951 . S
C809 C808 1.340 . S
C809 C810 1.439 . S
C809 H841 0.950 . S
C810 N806 1.374 . S
C810 C809 1.439 . S
C810 C835 1.395 . S
N811 Co800 1.995 . S
N811 C812 1.376 . S
N811 C815 1.383 . S
C812 N811 1.376 . S
C812 C813 1.446 . S
C812 C835 1.391 . S
C813 C812 1.446 . S
C813 C814 1.339 . S
C813 H842 0.949 . S
C814 C813 1.339 . S
C814 C815 1.439 . S
C814 H843 0.950 . S
C815 N811 1.383 . S
C815 C814 1.439 . S
C815 C833 1.392 . S
N816 Co800 2.282 . S
N816 C819 1.332 . S
N816 C821 1.332 1_565 S
C817 C818 1.386 1_545 S
C817 C820 1.388 . S
C818 C817 1.386 1_565 S
C818 C819 1.382 . S
C818 H844 0.950 . S
C819 N816 1.332 . S
C819 C818 1.382 . S
C819 H830 0.952 . S
C820 C817 1.388 . S
C820 C821 1.382 . S
C820 H845 0.950 . S
C821 N816 1.332 1_545 S
C821 C820 1.382 . S
C821 H831 0.948 . S
N822 Co800 2.282 . S
N822 C826 1.332 1_565 S
N822 C827 1.332 . S
C823 C824 1.388 . S
C823 C827 1.382 1_455 S
C823 H846 0.950 . S
C824 C823 1.388 . S
C824 C825 1.395 1_565 S
C825 C824 1.395 1_545 S
C825 C826 1.365 1_455 S
C825 H847 0.957 . S
C826 N822 1.332 1_545 S
C826 C825 1.365 1_655 S
C826 H828 0.952 . S
C827 N822 1.332 . S
C827 C823 1.382 1_655 S
C827 H829 0.948 . S
H828 C826 0.952 . S
H829 C827 0.948 . S
H830 C819 0.952 . S
H831 C821 0.948 . S
C832 C798 1.395 . S
C832 C802 1.391 . S
C833 C795 1.389 . S
C833 C815 1.392 . S
C834 C805 1.392 . S
C834 C807 1.389 1_545 S
C835 C810 1.395 . S
C835 C812 1.391 . S
H836 C796 0.951 1_565 S
H837 C797 0.950 . S
H838 C803 0.949 . S
H839 C804 0.950 . S
H840 C808 0.951 . S
H841 C809 0.950 . S
H842 C813 0.949 . S
H843 C814 0.950 . S
H844 C818 0.950 . S
H845 C820 0.950 . S
H846 C823 0.950 . S
H847 C825 0.957 . S
C848 C849 1.443 . S
C848 N852 1.376 . S
C848 C886 1.389 . S
C849 C848 1.443 . S
C849 C850 1.340 . S
C849 H889 0.951 . S
C850 C849 1.340 . S
C850 C851 1.439 . S
C850 H890 0.950 . S
C851 C850 1.439 . S
C851 N852 1.374 . S
C851 C885 1.395 . S
N852 C848 1.376 . S
N852 C851 1.374 . S
N852 Co853 2.008 . S
Co853 N852 2.008 . S
Co853 N854 1.995 . S
Co853 N859 2.008 . S
Co853 N864 1.995 . S
Co853 N869 2.282 . S
Co853 N875 2.282 . S
N854 Co853 1.995 . S
N854 C855 1.376 . S
N854 C858 1.383 . S
C855 N854 1.376 . S
C855 C856 1.446 . S
C855 C885 1.391 . S
C856 C855 1.446 . S
C856 C857 1.339 . S
C856 H891 0.949 . S
C857 C856 1.339 . S
C857 C858 1.439 . S
C857 H892 0.950 . S
C858 N854 1.383 . S
C858 C857 1.439 . S
C858 C887 1.392 . S
N859 Co853 2.008 . S
N859 C860 1.376 . S
N859 C863 1.374 . S
C860 N859 1.376 . S
C860 C861 1.443 . S
C860 C887 1.389 . S
C861 C860 1.443 . S
C861 C862 1.340 . S
C861 H893 0.951 . S
C862 C861 1.340 . S
C862 C863 1.439 . S
C862 H894 0.950 . S
C863 N859 1.374 . S
C863 C862 1.439 . S
C863 C888 1.395 . S
N864 Co853 1.995 . S
N864 C865 1.376 . S
N864 C868 1.383 . S
C865 N864 1.376 . S
C865 C866 1.446 . S
C865 C888 1.391 . S
C866 C865 1.446 . S
C866 C867 1.339 . S
C866 H895 0.949 . S
C867 C866 1.339 . S
C867 C868 1.439 . S
C867 H896 0.950 . S
C868 N864 1.383 . S
C868 C867 1.439 . S
C868 C886 1.392 . S
N869 Co853 2.282 . S
N869 C872 1.332 . S
N869 C874 1.332 . S
C870 C871 1.386 . S
C870 C873 1.388 . S
C871 C870 1.386 . S
C871 C872 1.382 . S
C871 H897 0.950 . S
C872 N869 1.332 . S
C872 C871 1.382 . S
C872 H883 0.952 . S
C873 C870 1.388 . S
C873 C874 1.382 . S
C873 H898 0.950 . S
C874 N869 1.332 . S
C874 C873 1.382 . S
C874 H884 0.948 . S
N875 Co853 2.282 . S
N875 C879 1.332 . S
N875 C880 1.332 . S
C876 C877 1.388 . S
C876 C880 1.382 . S
C876 H899 0.950 . S
C877 C876 1.388 . S
C877 C878 1.386 . S
C878 C877 1.386 . S
C878 C879 1.382 . S
C878 H900 0.950 . S
C879 N875 1.332 . S
C879 C878 1.382 . S
C879 H881 0.952 . S
C880 N875 1.332 . S
C880 C876 1.382 . S
C880 H882 0.948 . S
H881 C879 0.952 . S
H882 C880 0.948 . S
H883 C872 0.952 . S
H884 C874 0.948 . S
C885 C851 1.395 . S
C885 C855 1.391 . S
C886 C848 1.389 . S
C886 C868 1.392 . S
C887 C858 1.392 . S
C887 C860 1.389 . S
C888 C863 1.395 . S
C888 C865 1.391 . S
H889 C849 0.951 . S
H890 C850 0.950 . S
H891 C856 0.949 . S
H892 C857 0.950 . S
H893 C861 0.951 . S
H894 C862 0.950 . S
H895 C866 0.949 . S
H896 C867 0.950 . S
H897 C871 0.950 . S
H898 C873 0.950 . S
H899 C876 0.950 . S
H900 C878 0.950 . S
C901 C902 1.443 . S
C901 N905 1.376 . S
C901 C939 1.389 . S
C902 C901 1.443 . S
C902 C903 1.340 . S
C902 H942 0.951 . S
C903 C902 1.340 . S
C903 C904 1.439 . S
C903 H943 0.950 . S
C904 C903 1.439 . S
C904 N905 1.374 . S
C904 C938 1.395 . S
N905 C901 1.376 . S
N905 C904 1.374 . S
N905 Co906 2.008 . S
Co906 N905 2.008 . S
Co906 N907 1.995 . S
Co906 N912 2.008 . S
Co906 N917 1.995 . S
Co906 N922 2.282 . S
Co906 N928 2.282 . S
N907 Co906 1.995 . S
N907 C908 1.376 . S
N907 C911 1.383 . S
C908 N907 1.376 . S
C908 C909 1.446 . S
C908 C938 1.391 . S
C909 C908 1.446 . S
C909 C910 1.339 . S
C909 H944 0.949 . S
C910 C909 1.339 . S
C910 C911 1.439 . S
C910 H945 0.950 . S
C911 N907 1.383 . S
C911 C910 1.439 . S
C911 C940 1.392 . S
N912 Co906 2.008 . S
N912 C913 1.376 . S
N912 C916 1.374 . S
C913 N912 1.376 . S
C913 C914 1.443 . S
C913 C940 1.389 . S
C914 C913 1.443 . S
C914 C915 1.340 . S
C914 H946 0.951 . S
C915 C914 1.340 . S
C915 C916 1.439 . S
C915 H947 0.950 . S
C916 N912 1.374 . S
C916 C915 1.439 . S
C916 C941 1.395 . S
N917 Co906 1.995 . S
N917 C918 1.376 . S
N917 C921 1.383 . S
C918 N917 1.376 . S
C918 C919 1.446 . S
C918 C941 1.391 . S
C919 C918 1.446 . S
C919 C920 1.339 . S
C919 H948 0.949 . S
C920 C919 1.339 . S
C920 C921 1.439 . S
C920 H949 0.950 . S
C921 N917 1.383 . S
C921 C920 1.439 . S
C921 C939 1.392 . S
N922 Co906 2.282 . S
N922 C925 1.332 . S
N922 C927 1.332 . S
C923 C924 1.386 . S
C923 C926 1.388 . S
C924 C923 1.386 . S
C924 C925 1.382 . S
C924 H950 0.950 . S
C925 N922 1.332 . S
C925 C924 1.382 . S
C925 H936 0.952 . S
C926 C923 1.388 . S
C926 C927 1.382 . S
C926 H951 0.950 . S
C927 N922 1.332 . S
C927 C926 1.382 . S
C927 H937 0.948 . S
N928 Co906 2.282 . S
N928 C932 1.332 . S
N928 C933 1.332 . S
C929 C930 1.388 . S
C929 C933 1.382 . S
C929 H952 0.950 . S
C930 C929 1.388 . S
C930 C931 1.386 . S
C931 C930 1.386 . S
C931 C932 1.382 . S
C931 H953 0.950 . S
C932 N928 1.332 . S
C932 C931 1.382 . S
C932 H934 0.952 . S
C933 N928 1.332 . S
C933 C929 1.382 . S
C933 H935 0.948 . S
H934 C932 0.952 . S
H935 C933 0.948 . S
H936 C925 0.952 . S
H937 C927 0.948 . S
C938 C904 1.395 . S
C938 C908 1.391 . S
C939 C901 1.389 . S
C939 C921 1.392 . S
C940 C911 1.392 . S
C940 C913 1.389 . S
C941 C916 1.395 . S
C941 C918 1.391 . S
H942 C902 0.951 . S
H943 C903 0.950 . S
H944 C909 0.949 . S
H945 C910 0.950 . S
H946 C914 0.951 . S
H947 C915 0.950 . S
H948 C919 0.949 . S
H949 C920 0.950 . S
H950 C924 0.950 . S
H951 C926 0.950 . S
H952 C929 0.950 . S
H953 C931 0.950 . S
C954 C955 1.443 . S
C954 N958 1.376 . S
C954 C992 1.389 . S
C955 C954 1.443 . S
C955 C956 1.340 . S
C955 H995 0.951 . S
C956 C955 1.340 . S
C956 C957 1.439 . S
C956 H996 0.950 . S
C957 C956 1.439 . S
C957 N958 1.374 . S
C957 C991 1.395 . S
N958 C954 1.376 . S
N958 C957 1.374 . S
N958 Co959 2.008 . S
Co959 N958 2.008 . S
Co959 N960 1.995 . S
Co959 N965 2.008 . S
Co959 N970 1.995 . S
Co959 N975 2.282 . S
Co959 N981 2.282 . S
N960 Co959 1.995 . S
N960 C961 1.376 . S
N960 C964 1.383 . S
C961 N960 1.376 . S
C961 C962 1.446 . S
C961 C991 1.391 . S
C962 C961 1.446 . S
C962 C963 1.339 . S
C962 H997 0.949 . S
C963 C962 1.339 . S
C963 C964 1.439 . S
C963 H998 0.950 . S
C964 N960 1.383 . S
C964 C963 1.439 . S
C964 C993 1.392 . S
N965 Co959 2.008 . S
N965 C966 1.376 . S
N965 C969 1.374 . S
C966 N965 1.376 . S
C966 C967 1.443 . S
C966 C993 1.389 . S
C967 C966 1.443 . S
C967 C968 1.340 . S
C967 H999 0.951 . S
C968 C967 1.340 . S
C968 C969 1.439 . S
C968 H1000 0.950 . S
C969 N965 1.374 . S
C969 C968 1.439 . S
C969 C994 1.395 . S
N970 Co959 1.995 . S
N970 C971 1.376 . S
N970 C974 1.383 . S
C971 N970 1.376 . S
C971 C972 1.446 . S
C971 C994 1.391 . S
C972 C971 1.446 . S
C972 C973 1.339 . S
C972 H1001 0.949 . S
C973 C972 1.339 . S
C973 C974 1.439 . S
C973 H1002 0.950 . S
C974 N970 1.383 . S
C974 C973 1.439 . S
C974 C992 1.392 . S
N975 Co959 2.282 . S
N975 C978 1.332 . S
N975 C980 1.332 . S
C976 C977 1.386 . S
C976 C979 1.388 . S
C977 C976 1.386 . S
C977 C978 1.382 . S
C977 H1003 0.950 . S
C978 N975 1.332 . S
C978 C977 1.382 . S
C978 H989 0.952 . S
C979 C976 1.388 . S
C979 C980 1.382 . S
C979 H1004 0.950 . S
C980 N975 1.332 . S
C980 C979 1.382 . S
C980 H990 0.948 . S
N981 Co959 2.282 . S
N981 C985 1.332 . S
N981 C986 1.332 . S
C982 C983 1.388 . S
C982 C986 1.382 . S
C982 H1005 0.950 . S
C983 C982 1.388 . S
C983 C984 1.386 . S
C984 C983 1.386 . S
C984 C985 1.382 . S
C984 H1006 0.950 . S
C985 N981 1.332 . S
C985 C984 1.382 . S
C985 H987 0.952 . S
C986 N981 1.332 . S
C986 C982 1.382 . S
C986 H988 0.948 . S
H987 C985 0.952 . S
H988 C986 0.948 . S
H989 C978 0.952 . S
H990 C980 0.948 . S
C991 C957 1.395 . S
C991 C961 1.391 . S
C992 C954 1.389 . S
C992 C974 1.392 . S
C993 C964 1.392 . S
C993 C966 1.389 . S
C994 C969 1.395 . S
C994 C971 1.391 . S
H995 C955 0.951 . S
H996 C956 0.950 . S
H997 C962 0.949 . S
H998 C963 0.950 . S
H999 C967 0.951 . S
H1000 C968 0.950 . S
H1001 C972 0.949 . S
H1002 C973 0.950 . S
H1003 C977 0.950 . S
H1004 C979 0.950 . S
H1005 C982 0.950 . S
H1006 C984 0.950 . S
C1007 C1008 1.443 . S
C1007 N1011 1.376 . S
C1007 C1045 1.389 . S
C1008 C1007 1.443 . S
C1008 C1009 1.340 . S
C1008 H1048 0.951 . S
C1009 C1008 1.340 . S
C1009 C1010 1.439 . S
C1009 H1049 0.950 . S
C1010 C1009 1.439 . S
C1010 N1011 1.374 . S
C1010 C1044 1.395 . S
N1011 C1007 1.376 . S
N1011 C1010 1.374 . S
N1011 Co1012 2.008 . S
Co1012 N1011 2.008 . S
Co1012 N1013 1.995 . S
Co1012 N1018 2.008 . S
Co1012 N1023 1.995 . S
Co1012 N1028 2.282 . S
Co1012 N1034 2.282 . S
N1013 Co1012 1.995 . S
N1013 C1014 1.376 . S
N1013 C1017 1.383 . S
C1014 N1013 1.376 . S
C1014 C1015 1.446 . S
C1014 C1044 1.391 . S
C1015 C1014 1.446 . S
C1015 C1016 1.339 . S
C1015 H1050 0.949 . S
C1016 C1015 1.339 . S
C1016 C1017 1.439 . S
C1016 H1051 0.950 . S
C1017 N1013 1.383 . S
C1017 C1016 1.439 . S
C1017 C1046 1.392 . S
N1018 Co1012 2.008 . S
N1018 C1019 1.376 . S
N1018 C1022 1.374 . S
C1019 N1018 1.376 . S
C1019 C1020 1.443 . S
C1019 C1046 1.389 . S
C1020 C1019 1.443 . S
C1020 C1021 1.340 . S
C1020 H1052 0.951 . S
C1021 C1020 1.340 . S
C1021 C1022 1.439 . S
C1021 H1053 0.950 . S
C1022 N1018 1.374 . S
C1022 C1021 1.439 . S
C1022 C1047 1.395 . S
N1023 Co1012 1.995 . S
N1023 C1024 1.376 . S
N1023 C1027 1.383 . S
C1024 N1023 1.376 . S
C1024 C1025 1.446 . S
C1024 C1047 1.391 . S
C1025 C1024 1.446 . S
C1025 C1026 1.339 . S
C1025 H1054 0.949 . S
C1026 C1025 1.339 . S
C1026 C1027 1.439 . S
C1026 H1055 0.950 . S
C1027 N1023 1.383 . S
C1027 C1026 1.439 . S
C1027 C1045 1.392 . S
N1028 Co1012 2.282 . S
N1028 C1031 1.332 . S
N1028 C1033 1.332 . S
C1029 C1030 1.386 . S
C1029 C1032 1.388 . S
C1030 C1029 1.386 . S
C1030 C1031 1.382 . S
C1030 H1056 0.950 . S
C1031 N1028 1.332 . S
C1031 C1030 1.382 . S
C1031 H1042 0.952 . S
C1032 C1029 1.388 . S
C1032 C1033 1.382 . S
C1032 H1057 0.950 . S
C1033 N1028 1.332 . S
C1033 C1032 1.382 . S
C1033 H1043 0.948 . S
N1034 Co1012 2.282 . S
N1034 C1038 1.332 . S
N1034 C1039 1.332 . S
C1035 C1036 1.388 . S
C1035 C1039 1.382 . S
C1035 H1058 0.950 . S
C1036 C1035 1.388 . S
C1036 C1037 1.386 . S
C1037 C1036 1.386 . S
C1037 C1038 1.382 . S
C1037 H1059 0.950 1_655 S
C1038 N1034 1.332 . S
C1038 C1037 1.382 . S
C1038 H1040 0.952 . S
C1039 N1034 1.332 . S
C1039 C1035 1.382 . S
C1039 H1041 0.948 . S
H1040 C1038 0.952 . S
H1041 C1039 0.948 . S
H1042 C1031 0.952 . S
H1043 C1033 0.948 . S
C1044 C1010 1.395 . S
C1044 C1014 1.391 . S
C1045 C1007 1.389 . S
C1045 C1027 1.392 . S
C1046 C1017 1.392 . S
C1046 C1019 1.389 . S
C1047 C1022 1.395 . S
C1047 C1024 1.391 . S
H1048 C1008 0.951 . S
H1049 C1009 0.950 . S
H1050 C1015 0.949 . S
H1051 C1016 0.950 . S
H1052 C1020 0.951 . S
H1053 C1021 0.950 . S
H1054 C1025 0.949 . S
H1055 C1026 0.950 . S
H1056 C1030 0.950 . S
H1057 C1032 0.950 . S
H1058 C1035 0.950 . S
H1059 C1037 0.950 1_455 S
C1060 C1061 1.443 . S
C1060 N1064 1.376 . S
C1060 C1098 1.389 . S
C1061 C1060 1.443 . S
C1061 C1062 1.340 . S
C1061 H1101 0.951 . S
C1062 C1061 1.340 . S
C1062 C1063 1.439 . S
C1062 H1102 0.950 . S
C1063 C1062 1.439 . S
C1063 N1064 1.374 . S
C1063 C1097 1.395 . S
N1064 C1060 1.376 . S
N1064 C1063 1.374 . S
N1064 Co1065 2.008 . S
Co1065 N1064 2.008 . S
Co1065 N1066 1.995 . S
Co1065 N1071 2.008 . S
Co1065 N1076 1.995 . S
Co1065 N1081 2.282 . S
Co1065 N1087 2.282 . S
N1066 Co1065 1.995 . S
N1066 C1067 1.376 . S
N1066 C1070 1.383 . S
C1067 N1066 1.376 . S
C1067 C1068 1.446 . S
C1067 C1097 1.391 . S
C1068 C1067 1.446 . S
C1068 C1069 1.339 . S
C1068 H1103 0.949 . S
C1069 C1068 1.339 . S
C1069 C1070 1.439 . S
C1069 H1104 0.950 . S
C1070 N1066 1.383 . S
C1070 C1069 1.439 . S
C1070 C1099 1.392 . S
N1071 Co1065 2.008 . S
N1071 C1072 1.376 . S
N1071 C1075 1.374 . S
C1072 N1071 1.376 . S
C1072 C1073 1.443 . S
C1072 C1099 1.389 . S
C1073 C1072 1.443 . S
C1073 C1074 1.340 . S
C1073 H1105 0.951 . S
C1074 C1073 1.340 . S
C1074 C1075 1.439 . S
C1074 H1106 0.950 . S
C1075 N1071 1.374 . S
C1075 C1074 1.439 . S
C1075 C1100 1.395 . S
N1076 Co1065 1.995 . S
N1076 C1077 1.376 . S
N1076 C1080 1.383 . S
C1077 N1076 1.376 . S
C1077 C1078 1.446 . S
C1077 C1100 1.391 . S
C1078 C1077 1.446 . S
C1078 C1079 1.339 . S
C1078 H1107 0.949 . S
C1079 C1078 1.339 . S
C1079 C1080 1.439 . S
C1079 H1108 0.950 . S
C1080 N1076 1.383 . S
C1080 C1079 1.439 . S
C1080 C1098 1.392 . S
N1081 Co1065 2.282 . S
N1081 C1084 1.332 . S
N1081 C1086 1.332 . S
C1082 C1083 1.386 . S
C1082 C1085 1.388 . S
C1083 C1082 1.386 . S
C1083 C1084 1.382 . S
C1083 H1109 0.950 . S
C1084 N1081 1.332 . S
C1084 C1083 1.382 . S
C1084 H1095 0.952 . S
C1085 C1082 1.388 . S
C1085 C1086 1.382 . S
C1085 H1110 0.950 . S
C1086 N1081 1.332 . S
C1086 C1085 1.382 . S
C1086 H1096 0.948 . S
N1087 Co1065 2.282 . S
N1087 C1091 1.332 . S
N1087 C1092 1.332 . S
C1088 C1089 1.388 . S
C1088 C1092 1.382 . S
C1088 H1111 0.950 . S
C1089 C1088 1.388 . S
C1089 C1090 1.386 . S
C1090 C1089 1.386 . S
C1090 C1091 1.382 . S
C1090 H1112 0.950 . S
C1091 N1087 1.332 . S
C1091 C1090 1.382 . S
C1091 H1093 0.952 . S
C1092 N1087 1.332 . S
C1092 C1088 1.382 . S
C1092 H1094 0.948 . S
H1093 C1091 0.952 . S
H1094 C1092 0.948 . S
H1095 C1084 0.952 . S
H1096 C1086 0.948 . S
C1097 C1063 1.395 . S
C1097 C1067 1.391 . S
C1098 C1060 1.389 . S
C1098 C1080 1.392 . S
C1099 C1070 1.392 . S
C1099 C1072 1.389 . S
C1100 C1075 1.395 . S
C1100 C1077 1.391 . S
H1101 C1061 0.951 . S
H1102 C1062 0.950 . S
H1103 C1068 0.949 . S
H1104 C1069 0.950 . S
H1105 C1073 0.951 . S
H1106 C1074 0.950 . S
H1107 C1078 0.949 . S
H1108 C1079 0.950 . S
H1109 C1083 0.950 . S
H1110 C1085 0.950 . S
H1111 C1088 0.950 . S
H1112 C1090 0.950 . S
C1113 C1114 1.443 . S
C1113 N1117 1.376 . S
C1113 C1151 1.389 . S
C1114 C1113 1.443 . S
C1114 C1115 1.340 . S
C1114 H1154 0.951 . S
C1115 C1114 1.340 . S
C1115 C1116 1.439 . S
C1115 H1155 0.950 . S
C1116 C1115 1.439 . S
C1116 N1117 1.374 . S
C1116 C1150 1.395 . S
N1117 C1113 1.376 . S
N1117 C1116 1.374 . S
N1117 Co1118 2.008 . S
Co1118 N1117 2.008 . S
Co1118 N1119 1.995 . S
Co1118 N1124 2.008 . S
Co1118 N1129 1.995 . S
Co1118 N1134 2.282 . S
Co1118 N1140 2.282 . S
N1119 Co1118 1.995 . S
N1119 C1120 1.376 . S
N1119 C1123 1.383 . S
C1120 N1119 1.376 . S
C1120 C1121 1.446 . S
C1120 C1150 1.391 . S
C1121 C1120 1.446 . S
C1121 C1122 1.339 . S
C1121 H1156 0.949 . S
C1122 C1121 1.339 . S
C1122 C1123 1.439 . S
C1122 H1157 0.950 . S
C1123 N1119 1.383 . S
C1123 C1122 1.439 . S
C1123 C1152 1.392 . S
N1124 Co1118 2.008 . S
N1124 C1125 1.376 . S
N1124 C1128 1.374 . S
C1125 N1124 1.376 . S
C1125 C1126 1.443 . S
C1125 C1152 1.389 . S
C1126 C1125 1.443 . S
C1126 C1127 1.340 . S
C1126 H1158 0.951 . S
C1127 C1126 1.340 . S
C1127 C1128 1.439 . S
C1127 H1159 0.950 . S
C1128 N1124 1.374 . S
C1128 C1127 1.439 . S
C1128 C1153 1.395 . S
N1129 Co1118 1.995 . S
N1129 C1130 1.376 . S
N1129 C1133 1.383 . S
C1130 N1129 1.376 . S
C1130 C1131 1.446 . S
C1130 C1153 1.391 . S
C1131 C1130 1.446 . S
C1131 C1132 1.339 . S
C1131 H1160 0.949 . S
C1132 C1131 1.339 . S
C1132 C1133 1.439 . S
C1132 H1161 0.950 . S
C1133 N1129 1.383 . S
C1133 C1132 1.439 . S
C1133 C1151 1.392 . S
N1134 Co1118 2.282 . S
N1134 C1137 1.332 . S
N1134 C1139 1.332 . S
C1135 C1136 1.386 . S
C1135 C1138 1.388 . S
C1136 C1135 1.386 . S
C1136 C1137 1.382 . S
C1136 H1162 0.950 . S
C1137 N1134 1.332 . S
C1137 C1136 1.382 . S
C1137 H1148 0.952 . S
C1138 C1135 1.388 . S
C1138 C1139 1.382 . S
C1138 H1163 0.950 . S
C1139 N1134 1.332 . S
C1139 C1138 1.382 . S
C1139 H1149 0.948 . S
N1140 Co1118 2.282 . S
N1140 C1144 1.332 . S
N1140 C1145 1.332 . S
C1141 C1142 1.388 . S
C1141 C1145 1.382 . S
C1141 H1164 0.950 . S
C1142 C1141 1.388 . S
C1142 C1143 1.386 . S
C1143 C1142 1.386 . S
C1143 C1144 1.382 . S
C1143 H1165 0.950 1_655 S
C1144 N1140 1.332 . S
C1144 C1143 1.382 . S
C1144 H1146 0.952 . S
C1145 N1140 1.332 . S
C1145 C1141 1.382 . S
C1145 H1147 0.948 . S
H1146 C1144 0.952 . S
H1147 C1145 0.948 . S
H1148 C1137 0.952 . S
H1149 C1139 0.948 . S
C1150 C1116 1.395 . S
C1150 C1120 1.391 . S
C1151 C1113 1.389 . S
C1151 C1133 1.392 . S
C1152 C1123 1.392 . S
C1152 C1125 1.389 . S
C1153 C1128 1.395 . S
C1153 C1130 1.391 . S
H1154 C1114 0.951 . S
H1155 C1115 0.950 . S
H1156 C1121 0.949 . S
H1157 C1122 0.950 . S
H1158 C1126 0.951 . S
H1159 C1127 0.950 . S
H1160 C1131 0.949 . S
H1161 C1132 0.950 . S
H1162 C1136 0.950 . S
H1163 C1138 0.950 . S
H1164 C1141 0.950 . S
H1165 C1143 0.950 1_455 S
C1166 C1167 1.443 . S
C1166 N1170 1.376 . S
C1166 C1204 1.389 . S
C1167 C1166 1.443 . S
C1167 C1168 1.340 . S
C1167 H1207 0.951 . S
C1168 C1167 1.340 . S
C1168 C1169 1.439 . S
C1168 H1208 0.950 . S
C1169 C1168 1.439 . S
C1169 N1170 1.374 . S
C1169 C1203 1.395 . S
N1170 C1166 1.376 . S
N1170 C1169 1.374 . S
N1170 Co1171 2.008 . S
Co1171 N1170 2.008 . S
Co1171 N1172 1.995 . S
Co1171 N1177 2.008 . S
Co1171 N1182 1.995 . S
Co1171 N1187 2.282 . S
Co1171 N1193 2.282 . S
N1172 Co1171 1.995 . S
N1172 C1173 1.376 . S
N1172 C1176 1.383 . S
C1173 N1172 1.376 . S
C1173 C1174 1.446 . S
C1173 C1203 1.391 . S
C1174 C1173 1.446 . S
C1174 C1175 1.339 . S
C1174 H1209 0.949 . S
C1175 C1174 1.339 . S
C1175 C1176 1.439 . S
C1175 H1210 0.950 . S
C1176 N1172 1.383 . S
C1176 C1175 1.439 . S
C1176 C1205 1.392 . S
N1177 Co1171 2.008 . S
N1177 C1178 1.376 . S
N1177 C1181 1.374 . S
C1178 N1177 1.376 . S
C1178 C1179 1.443 . S
C1178 C1205 1.389 . S
C1179 C1178 1.443 . S
C1179 C1180 1.340 . S
C1179 H1211 0.951 . S
C1180 C1179 1.340 . S
C1180 C1181 1.439 . S
C1180 H1212 0.950 . S
C1181 N1177 1.374 . S
C1181 C1180 1.439 . S
C1181 C1206 1.395 . S
N1182 Co1171 1.995 . S
N1182 C1183 1.376 . S
N1182 C1186 1.383 . S
C1183 N1182 1.376 . S
C1183 C1184 1.446 . S
C1183 C1206 1.391 . S
C1184 C1183 1.446 . S
C1184 C1185 1.339 . S
C1184 H1213 0.949 . S
C1185 C1184 1.339 . S
C1185 C1186 1.439 . S
C1185 H1214 0.950 . S
C1186 N1182 1.383 . S
C1186 C1185 1.439 . S
C1186 C1204 1.392 . S
N1187 Co1171 2.282 . S
N1187 C1190 1.332 . S
N1187 C1192 1.332 . S
C1188 C1189 1.386 . S
C1188 C1191 1.388 . S
C1189 C1188 1.386 . S
C1189 C1190 1.382 . S
C1189 H1215 0.950 . S
C1190 N1187 1.332 . S
C1190 C1189 1.382 . S
C1190 H1201 0.952 . S
C1191 C1188 1.388 . S
C1191 C1192 1.382 . S
C1191 H1216 0.950 . S
C1192 N1187 1.332 . S
C1192 C1191 1.382 . S
C1192 H1202 0.948 . S
N1193 Co1171 2.282 . S
N1193 C1197 1.332 . S
N1193 C1198 1.332 . S
C1194 C1195 1.388 . S
C1194 C1198 1.382 . S
C1194 H1217 0.950 . S
C1195 C1194 1.388 . S
C1195 C1196 1.386 . S
C1196 C1195 1.386 . S
C1196 C1197 1.382 . S
C1196 H1218 0.950 . S
C1197 N1193 1.332 . S
C1197 C1196 1.382 . S
C1197 H1199 0.952 . S
C1198 N1193 1.332 . S
C1198 C1194 1.382 . S
C1198 H1200 0.948 . S
H1199 C1197 0.952 . S
H1200 C1198 0.948 . S
H1201 C1190 0.952 . S
H1202 C1192 0.948 . S
C1203 C1169 1.395 . S
C1203 C1173 1.391 . S
C1204 C1166 1.389 . S
C1204 C1186 1.392 . S
C1205 C1176 1.392 . S
C1205 C1178 1.389 . S
C1206 C1181 1.395 . S
C1206 C1183 1.391 . S
H1207 C1167 0.951 . S
H1208 C1168 0.950 . S
H1209 C1174 0.949 . S
H1210 C1175 0.950 . S
H1211 C1179 0.951 . S
H1212 C1180 0.950 . S
H1213 C1184 0.949 . S
H1214 C1185 0.950 . S
H1215 C1189 0.950 . S
H1216 C1191 0.950 . S
H1217 C1194 0.950 . S
H1218 C1196 0.950 . S
C1219 C1220 1.443 . S
C1219 N1223 1.376 . S
C1219 C1257 1.389 . S
C1220 C1219 1.443 . S
C1220 C1221 1.340 . S
C1220 H1260 0.951 . S
C1221 C1220 1.340 . S
C1221 C1222 1.439 . S
C1221 H1261 0.950 . S
C1222 C1221 1.439 . S
C1222 N1223 1.374 . S
C1222 C1256 1.395 . S
N1223 C1219 1.376 . S
N1223 C1222 1.374 . S
N1223 Co1224 2.008 . S
Co1224 N1223 2.008 . S
Co1224 N1225 1.995 . S
Co1224 N1230 2.008 . S
Co1224 N1235 1.995 . S
Co1224 N1240 2.282 . S
Co1224 N1246 2.282 . S
N1225 Co1224 1.995 . S
N1225 C1226 1.376 . S
N1225 C1229 1.383 . S
C1226 N1225 1.376 . S
C1226 C1227 1.446 . S
C1226 C1256 1.391 . S
C1227 C1226 1.446 . S
C1227 C1228 1.339 . S
C1227 H1262 0.949 . S
C1228 C1227 1.339 . S
C1228 C1229 1.439 . S
C1228 H1263 0.950 . S
C1229 N1225 1.383 . S
C1229 C1228 1.439 . S
C1229 C1258 1.392 . S
N1230 Co1224 2.008 . S
N1230 C1231 1.376 . S
N1230 C1234 1.374 . S
C1231 N1230 1.376 . S
C1231 C1232 1.443 . S
C1231 C1258 1.389 . S
C1232 C1231 1.443 . S
C1232 C1233 1.340 . S
C1232 H1264 0.951 . S
C1233 C1232 1.340 . S
C1233 C1234 1.439 . S
C1233 H1265 0.950 . S
C1234 N1230 1.374 . S
C1234 C1233 1.439 . S
C1234 C1259 1.395 . S
N1235 Co1224 1.995 . S
N1235 C1236 1.376 . S
N1235 C1239 1.383 . S
C1236 N1235 1.376 . S
C1236 C1237 1.446 . S
C1236 C1259 1.391 . S
C1237 C1236 1.446 . S
C1237 C1238 1.339 . S
C1237 H1266 0.949 . S
C1238 C1237 1.339 . S
C1238 C1239 1.439 . S
C1238 H1267 0.950 . S
C1239 N1235 1.383 . S
C1239 C1238 1.439 . S
C1239 C1257 1.392 . S
N1240 Co1224 2.282 . S
N1240 C1243 1.332 . S
N1240 C1245 1.332 . S
C1241 C1242 1.386 . S
C1241 C1244 1.388 . S
C1242 C1241 1.386 . S
C1242 C1243 1.382 . S
C1242 H1268 0.950 . S
C1243 N1240 1.332 . S
C1243 C1242 1.382 . S
C1243 H1254 0.952 . S
C1244 C1241 1.388 . S
C1244 C1245 1.382 . S
C1244 H1269 0.950 . S
C1245 N1240 1.332 . S
C1245 C1244 1.382 . S
C1245 H1255 0.948 . S
N1246 Co1224 2.282 . S
N1246 C1250 1.332 . S
N1246 C1251 1.332 . S
C1247 C1248 1.388 . S
C1247 C1251 1.382 . S
C1247 H1270 0.950 . S
C1248 C1247 1.388 . S
C1248 C1249 1.386 . S
C1249 C1248 1.386 . S
C1249 C1250 1.382 . S
C1249 H1271 0.950 . S
C1250 N1246 1.332 . S
C1250 C1249 1.382 . S
C1250 H1252 0.952 . S
C1251 N1246 1.332 . S
C1251 C1247 1.382 . S
C1251 H1253 0.948 . S
H1252 C1250 0.952 . S
H1253 C1251 0.948 . S
H1254 C1243 0.952 . S
H1255 C1245 0.948 . S
C1256 C1222 1.395 . S
C1256 C1226 1.391 . S
C1257 C1219 1.389 . S
C1257 C1239 1.392 . S
C1258 C1229 1.392 . S
C1258 C1231 1.389 . S
C1259 C1234 1.395 . S
C1259 C1236 1.391 . S
H1260 C1220 0.951 . S
H1261 C1221 0.950 . S
H1262 C1227 0.949 . S
H1263 C1228 0.950 . S
H1264 C1232 0.951 . S
H1265 C1233 0.950 . S
H1266 C1237 0.949 . S
H1267 C1238 0.950 . S
H1268 C1242 0.950 . S
H1269 C1244 0.950 . S
H1270 C1247 0.950 . S
H1271 C1249 0.950 . S
C1272 C1273 1.443 . S
C1272 N1276 1.376 . S
C1272 C1310 1.389 . S
C1273 C1272 1.443 . S
C1273 C1274 1.340 . S
C1273 H1313 0.951 . S
C1274 C1273 1.340 . S
C1274 C1275 1.439 . S
C1274 H1314 0.950 . S
C1275 C1274 1.439 . S
C1275 N1276 1.374 . S
C1275 C1309 1.395 . S
N1276 C1272 1.376 . S
N1276 C1275 1.374 . S
N1276 Co1277 2.008 . S
Co1277 N1276 2.008 . S
Co1277 N1278 1.995 . S
Co1277 N1283 2.008 . S
Co1277 N1288 1.995 . S
Co1277 N1293 2.282 . S
Co1277 N1299 2.282 . S
N1278 Co1277 1.995 . S
N1278 C1279 1.376 . S
N1278 C1282 1.383 . S
C1279 N1278 1.376 . S
C1279 C1280 1.446 . S
C1279 C1309 1.391 . S
C1280 C1279 1.446 . S
C1280 C1281 1.339 . S
C1280 H1315 0.949 . S
C1281 C1280 1.339 . S
C1281 C1282 1.439 . S
C1281 H1316 0.950 . S
C1282 N1278 1.383 . S
C1282 C1281 1.439 . S
C1282 C1311 1.392 . S
N1283 Co1277 2.008 . S
N1283 C1284 1.376 . S
N1283 C1287 1.374 . S
C1284 N1283 1.376 . S
C1284 C1285 1.443 . S
C1284 C1311 1.389 . S
C1285 C1284 1.443 . S
C1285 C1286 1.340 . S
C1285 H1317 0.951 . S
C1286 C1285 1.340 . S
C1286 C1287 1.439 . S
C1286 H1318 0.950 . S
C1287 N1283 1.374 . S
C1287 C1286 1.439 . S
C1287 C1312 1.395 . S
N1288 Co1277 1.995 . S
N1288 C1289 1.376 . S
N1288 C1292 1.383 . S
C1289 N1288 1.376 . S
C1289 C1290 1.446 . S
C1289 C1312 1.391 . S
C1290 C1289 1.446 . S
C1290 C1291 1.339 . S
C1290 H1319 0.949 . S
C1291 C1290 1.339 . S
C1291 C1292 1.439 . S
C1291 H1320 0.950 . S
C1292 N1288 1.383 . S
C1292 C1291 1.439 . S
C1292 C1310 1.392 . S
N1293 Co1277 2.282 . S
N1293 C1296 1.332 . S
N1293 C1298 1.332 . S
C1294 C1295 1.386 . S
C1294 C1297 1.388 . S
C1295 C1294 1.386 . S
C1295 C1296 1.382 . S
C1295 H1321 0.950 . S
C1296 N1293 1.332 . S
C1296 C1295 1.382 . S
C1296 H1307 0.952 . S
C1297 C1294 1.388 . S
C1297 C1298 1.382 . S
C1297 H1322 0.950 . S
C1298 N1293 1.332 . S
C1298 C1297 1.382 . S
C1298 H1308 0.948 . S
N1299 Co1277 2.282 . S
N1299 C1303 1.332 . S
N1299 C1304 1.332 . S
C1300 C1301 1.388 . S
C1300 C1304 1.382 . S
C1300 H1323 0.950 . S
C1301 C1300 1.388 . S
C1301 C1302 1.386 . S
C1302 C1301 1.386 . S
C1302 C1303 1.382 . S
C1302 H1324 0.950 . S
C1303 N1299 1.332 . S
C1303 C1302 1.382 . S
C1303 H1305 0.952 . S
C1304 N1299 1.332 . S
C1304 C1300 1.382 . S
C1304 H1306 0.948 . S
H1305 C1303 0.952 . S
H1306 C1304 0.948 . S
H1307 C1296 0.952 . S
H1308 C1298 0.948 . S
C1309 C1275 1.395 . S
C1309 C1279 1.391 . S
C1310 C1272 1.389 . S
C1310 C1292 1.392 . S
C1311 C1282 1.392 . S
C1311 C1284 1.389 . S
C1312 C1287 1.395 . S
C1312 C1289 1.391 . S
H1313 C1273 0.951 . S
H1314 C1274 0.950 . S
H1315 C1280 0.949 . S
H1316 C1281 0.950 . S
H1317 C1285 0.951 . S
H1318 C1286 0.950 . S
H1319 C1290 0.949 . S
H1320 C1291 0.950 . S
H1321 C1295 0.950 . S
H1322 C1297 0.950 . S
H1323 C1300 0.950 . S
H1324 C1302 0.950 . S
C1325 C1326 1.443 . S
C1325 N1329 1.376 . S
C1325 C1363 1.389 . S
C1326 C1325 1.443 . S
C1326 C1327 1.340 . S
C1326 H1366 0.951 . S
C1327 C1326 1.340 . S
C1327 C1328 1.439 . S
C1327 H1367 0.950 . S
C1328 C1327 1.439 . S
C1328 N1329 1.374 . S
C1328 C1362 1.395 . S
N1329 C1325 1.376 . S
N1329 C1328 1.374 . S
N1329 Co1330 2.008 . S
Co1330 N1329 2.008 . S
Co1330 N1331 1.995 . S
Co1330 N1336 2.008 . S
Co1330 N1341 1.995 . S
Co1330 N1346 2.282 . S
Co1330 N1352 2.282 . S
N1331 Co1330 1.995 . S
N1331 C1332 1.376 . S
N1331 C1335 1.383 . S
C1332 N1331 1.376 . S
C1332 C1333 1.446 . S
C1332 C1362 1.391 . S
C1333 C1332 1.446 . S
C1333 C1334 1.339 . S
C1333 H1368 0.949 . S
C1334 C1333 1.339 . S
C1334 C1335 1.439 . S
C1334 H1369 0.950 . S
C1335 N1331 1.383 . S
C1335 C1334 1.439 . S
C1335 C1364 1.392 . S
N1336 Co1330 2.008 . S
N1336 C1337 1.376 . S
N1336 C1340 1.374 . S
C1337 N1336 1.376 . S
C1337 C1338 1.443 . S
C1337 C1364 1.389 . S
C1338 C1337 1.443 . S
C1338 C1339 1.340 . S
C1338 H1370 0.951 . S
C1339 C1338 1.340 . S
C1339 C1340 1.439 . S
C1339 H1371 0.950 . S
C1340 N1336 1.374 . S
C1340 C1339 1.439 . S
C1340 C1365 1.395 . S
N1341 Co1330 1.995 . S
N1341 C1342 1.376 . S
N1341 C1345 1.383 . S
C1342 N1341 1.376 . S
C1342 C1343 1.446 . S
C1342 C1365 1.391 . S
C1343 C1342 1.446 . S
C1343 C1344 1.339 . S
C1343 H1372 0.949 . S
C1344 C1343 1.339 . S
C1344 C1345 1.439 . S
C1344 H1373 0.950 . S
C1345 N1341 1.383 . S
C1345 C1344 1.439 . S
C1345 C1363 1.392 . S
N1346 Co1330 2.282 . S
N1346 C1349 1.332 . S
N1346 C1351 1.332 . S
C1347 C1348 1.386 . S
C1347 C1350 1.388 . S
C1348 C1347 1.386 . S
C1348 C1349 1.382 . S
C1348 H1374 0.950 . S
C1349 N1346 1.332 . S
C1349 C1348 1.382 . S
C1349 H1360 0.952 . S
C1350 C1347 1.388 . S
C1350 C1351 1.382 . S
C1350 H1375 0.950 . S
C1351 N1346 1.332 . S
C1351 C1350 1.382 . S
C1351 H1361 0.948 . S
N1352 Co1330 2.282 . S
N1352 C1356 1.332 . S
N1352 C1357 1.332 . S
C1353 C1354 1.388 . S
C1353 C1357 1.382 . S
C1353 H1376 0.950 . S
C1354 C1353 1.388 . S
C1354 C1355 1.386 . S
C1355 C1354 1.386 . S
C1355 C1356 1.382 . S
C1355 H1377 0.950 . S
C1356 N1352 1.332 . S
C1356 C1355 1.382 . S
C1356 H1358 0.952 . S
C1357 N1352 1.332 . S
C1357 C1353 1.382 . S
C1357 H1359 0.948 . S
H1358 C1356 0.952 . S
H1359 C1357 0.948 . S
H1360 C1349 0.952 . S
H1361 C1351 0.948 . S
C1362 C1328 1.395 . S
C1362 C1332 1.391 . S
C1363 C1325 1.389 . S
C1363 C1345 1.392 . S
C1364 C1335 1.392 . S
C1364 C1337 1.389 . S
C1365 C1340 1.395 . S
C1365 C1342 1.391 . S
H1366 C1326 0.951 . S
H1367 C1327 0.950 . S
H1368 C1333 0.949 . S
H1369 C1334 0.950 . S
H1370 C1338 0.951 . S
H1371 C1339 0.950 . S
H1372 C1343 0.949 . S
H1373 C1344 0.950 . S
H1374 C1348 0.950 . S
H1375 C1350 0.950 . S
H1376 C1353 0.950 . S
H1377 C1355 0.950 . S
C1378 C1379 1.443 . S
C1378 N1382 1.376 . S
C1378 C1416 1.389 . S
C1379 C1378 1.443 . S
C1379 C1380 1.340 . S
C1379 H1419 0.951 . S
C1380 C1379 1.340 . S
C1380 C1381 1.439 . S
C1380 H1420 0.950 . S
C1381 C1380 1.439 . S
C1381 N1382 1.374 . S
C1381 C1415 1.395 . S
N1382 C1378 1.376 . S
N1382 C1381 1.374 . S
N1382 Co1383 2.008 . S
Co1383 N1382 2.008 . S
Co1383 N1384 1.995 . S
Co1383 N1389 2.008 . S
Co1383 N1394 1.995 . S
Co1383 N1399 2.282 . S
Co1383 N1405 2.282 . S
N1384 Co1383 1.995 . S
N1384 C1385 1.376 . S
N1384 C1388 1.383 . S
C1385 N1384 1.376 . S
C1385 C1386 1.446 . S
C1385 C1415 1.391 . S
C1386 C1385 1.446 . S
C1386 C1387 1.339 . S
C1386 H1421 0.949 . S
C1387 C1386 1.339 . S
C1387 C1388 1.439 . S
C1387 H1422 0.950 . S
C1388 N1384 1.383 . S
C1388 C1387 1.439 . S
C1388 C1417 1.392 . S
N1389 Co1383 2.008 . S
N1389 C1390 1.376 . S
N1389 C1393 1.374 . S
C1390 N1389 1.376 . S
C1390 C1391 1.443 . S
C1390 C1417 1.389 . S
C1391 C1390 1.443 . S
C1391 C1392 1.340 . S
C1391 H1423 0.951 . S
C1392 C1391 1.340 . S
C1392 C1393 1.439 . S
C1392 H1424 0.950 . S
C1393 N1389 1.374 . S
C1393 C1392 1.439 . S
C1393 C1418 1.395 . S
N1394 Co1383 1.995 . S
N1394 C1395 1.376 . S
N1394 C1398 1.383 . S
C1395 N1394 1.376 . S
C1395 C1396 1.446 . S
C1395 C1418 1.391 . S
C1396 C1395 1.446 . S
C1396 C1397 1.339 . S
C1396 H1425 0.949 . S
C1397 C1396 1.339 . S
C1397 C1398 1.439 . S
C1397 H1426 0.950 . S
C1398 N1394 1.383 . S
C1398 C1397 1.439 . S
C1398 C1416 1.392 . S
N1399 Co1383 2.282 . S
N1399 C1402 1.332 . S
N1399 C1404 1.332 . S
C1400 C1401 1.386 . S
C1400 C1403 1.388 . S
C1401 C1400 1.386 . S
C1401 C1402 1.382 . S
C1401 H1427 0.950 . S
C1402 N1399 1.332 . S
C1402 C1401 1.382 . S
C1402 H1413 0.952 . S
C1403 C1400 1.388 . S
C1403 C1404 1.382 . S
C1403 H1428 0.950 . S
C1404 N1399 1.332 . S
C1404 C1403 1.382 . S
C1404 H1414 0.948 . S
N1405 Co1383 2.282 . S
N1405 C1409 1.332 . S
N1405 C1410 1.332 . S
C1406 C1407 1.388 . S
C1406 C1410 1.382 . S
C1406 H1429 0.950 . S
C1407 C1406 1.388 . S
C1407 C1408 1.386 . S
C1408 C1407 1.386 . S
C1408 C1409 1.382 . S
C1408 H1430 0.950 . S
C1409 N1405 1.332 . S
C1409 C1408 1.382 . S
C1409 H1411 0.952 . S
C1410 N1405 1.332 . S
C1410 C1406 1.382 . S
C1410 H1412 0.948 . S
H1411 C1409 0.952 . S
H1412 C1410 0.948 . S
H1413 C1402 0.952 . S
H1414 C1404 0.948 . S
C1415 C1381 1.395 . S
C1415 C1385 1.391 . S
C1416 C1378 1.389 . S
C1416 C1398 1.392 . S
C1417 C1388 1.392 . S
C1417 C1390 1.389 . S
C1418 C1393 1.395 . S
C1418 C1395 1.391 . S
H1419 C1379 0.951 . S
H1420 C1380 0.950 . S
H1421 C1386 0.949 . S
H1422 C1387 0.950 . S
H1423 C1391 0.951 . S
H1424 C1392 0.950 . S
H1425 C1396 0.949 . S
H1426 C1397 0.950 . S
H1427 C1401 0.950 . S
H1428 C1403 0.950 . S
H1429 C1406 0.950 . S
H1430 C1408 0.950 . S
C1431 C1432 1.443 . S
C1431 N1435 1.376 . S
C1431 C1469 1.389 . S
C1432 C1431 1.443 . S
C1432 C1433 1.340 . S
C1432 H1472 0.951 . S
C1433 C1432 1.340 . S
C1433 C1434 1.439 . S
C1433 H1473 0.950 . S
C1434 C1433 1.439 . S
C1434 N1435 1.374 . S
C1434 C1468 1.395 . S
N1435 C1431 1.376 . S
N1435 C1434 1.374 . S
N1435 Co1436 2.008 . S
Co1436 N1435 2.008 . S
Co1436 N1437 1.995 . S
Co1436 N1442 2.008 . S
Co1436 N1447 1.995 . S
Co1436 N1452 2.282 . S
Co1436 N1458 2.282 . S
N1437 Co1436 1.995 . S
N1437 C1438 1.376 . S
N1437 C1441 1.383 . S
C1438 N1437 1.376 . S
C1438 C1439 1.446 . S
C1438 C1468 1.391 . S
C1439 C1438 1.446 . S
C1439 C1440 1.339 . S
C1439 H1474 0.949 . S
C1440 C1439 1.339 . S
C1440 C1441 1.439 . S
C1440 H1475 0.950 . S
C1441 N1437 1.383 . S
C1441 C1440 1.439 . S
C1441 C1470 1.392 . S
N1442 Co1436 2.008 . S
N1442 C1443 1.376 . S
N1442 C1446 1.374 . S
C1443 N1442 1.376 . S
C1443 C1444 1.443 . S
C1443 C1470 1.389 . S
C1444 C1443 1.443 . S
C1444 C1445 1.340 . S
C1444 H1476 0.951 . S
C1445 C1444 1.340 . S
C1445 C1446 1.439 . S
C1445 H1477 0.950 . S
C1446 N1442 1.374 . S
C1446 C1445 1.439 . S
C1446 C1471 1.395 . S
N1447 Co1436 1.995 . S
N1447 C1448 1.376 . S
N1447 C1451 1.383 . S
C1448 N1447 1.376 . S
C1448 C1449 1.446 . S
C1448 C1471 1.391 . S
C1449 C1448 1.446 . S
C1449 C1450 1.339 . S
C1449 H1478 0.949 . S
C1450 C1449 1.339 . S
C1450 C1451 1.439 . S
C1450 H1479 0.950 . S
C1451 N1447 1.383 . S
C1451 C1450 1.439 . S
C1451 C1469 1.392 . S
N1452 Co1436 2.282 . S
N1452 C1455 1.332 . S
N1452 C1457 1.332 . S
C1453 C1454 1.386 . S
C1453 C1456 1.388 . S
C1454 C1453 1.386 . S
C1454 C1455 1.382 . S
C1454 H1480 0.950 . S
C1455 N1452 1.332 . S
C1455 C1454 1.382 . S
C1455 H1466 0.952 . S
C1456 C1453 1.388 . S
C1456 C1457 1.382 . S
C1456 H1481 0.950 . S
C1457 N1452 1.332 . S
C1457 C1456 1.382 . S
C1457 H1467 0.948 . S
N1458 Co1436 2.282 . S
N1458 C1462 1.332 . S
N1458 C1463 1.332 . S
C1459 C1460 1.388 . S
C1459 C1463 1.382 1_655 S
C1459 H1482 0.950 . S
C1460 C1459 1.388 . S
C1460 C1461 1.395 . S
C1461 C1460 1.395 . S
C1461 C1462 1.366 1_655 S
C1461 H1483 0.957 . S
C1462 N1458 1.332 . S
C1462 C1461 1.366 1_455 S
C1462 H1464 0.952 . S
C1463 N1458 1.332 . S
C1463 C1459 1.382 1_455 S
C1463 H1465 0.948 . S
H1464 C1462 0.952 . S
H1465 C1463 0.948 . S
H1466 C1455 0.952 . S
H1467 C1457 0.948 . S
C1468 C1434 1.395 . S
C1468 C1438 1.391 . S
C1469 C1431 1.389 . S
C1469 C1451 1.392 . S
C1470 C1441 1.392 . S
C1470 C1443 1.389 . S
C1471 C1446 1.395 . S
C1471 C1448 1.391 . S
H1472 C1432 0.951 . S
H1473 C1433 0.950 . S
H1474 C1439 0.949 . S
H1475 C1440 0.950 . S
H1476 C1444 0.951 . S
H1477 C1445 0.950 . S
H1478 C1449 0.949 . S
H1479 C1450 0.950 . S
H1480 C1454 0.950 . S
H1481 C1456 0.950 . S
H1482 C1459 0.950 . S
H1483 C1461 0.957 . S
C1484 C1485 1.443 . S
C1484 N1488 1.376 . S
C1484 C1522 1.389 . S
C1485 C1484 1.443 . S
C1485 C1486 1.340 . S
C1485 H1525 0.951 . S
C1486 C1485 1.340 . S
C1486 C1487 1.439 . S
C1486 H1526 0.950 . S
C1487 C1486 1.439 . S
C1487 N1488 1.374 . S
C1487 C1521 1.395 . S
N1488 C1484 1.376 . S
N1488 C1487 1.374 . S
N1488 Co1489 2.008 . S
Co1489 N1488 2.008 . S
Co1489 N1490 1.995 . S
Co1489 N1495 2.008 . S
Co1489 N1500 1.995 . S
Co1489 N1505 2.282 . S
Co1489 N1511 2.282 . S
N1490 Co1489 1.995 . S
N1490 C1491 1.376 . S
N1490 C1494 1.383 . S
C1491 N1490 1.376 . S
C1491 C1492 1.446 . S
C1491 C1521 1.391 . S
C1492 C1491 1.446 . S
C1492 C1493 1.339 . S
C1492 H1527 0.949 . S
C1493 C1492 1.339 . S
C1493 C1494 1.439 . S
C1493 H1528 0.950 . S
C1494 N1490 1.383 . S
C1494 C1493 1.439 . S
C1494 C1523 1.392 . S
N1495 Co1489 2.008 . S
N1495 C1496 1.376 . S
N1495 C1499 1.374 . S
C1496 N1495 1.376 . S
C1496 C1497 1.443 . S
C1496 C1523 1.389 . S
C1497 C1496 1.443 . S
C1497 C1498 1.340 . S
C1497 H1529 0.951 . S
C1498 C1497 1.340 . S
C1498 C1499 1.439 . S
C1498 H1530 0.950 . S
C1499 N1495 1.374 . S
C1499 C1498 1.439 . S
C1499 C1524 1.395 . S
N1500 Co1489 1.995 . S
N1500 C1501 1.376 . S
N1500 C1504 1.383 . S
C1501 N1500 1.376 . S
C1501 C1502 1.446 . S
C1501 C1524 1.391 . S
C1502 C1501 1.446 . S
C1502 C1503 1.339 . S
C1502 H1531 0.949 . S
C1503 C1502 1.339 . S
C1503 C1504 1.439 . S
C1503 H1532 0.950 . S
C1504 N1500 1.383 . S
C1504 C1503 1.439 . S
C1504 C1522 1.392 . S
N1505 Co1489 2.282 . S
N1505 C1508 1.332 . S
N1505 C1510 1.332 . S
C1506 C1507 1.386 . S
C1506 C1509 1.388 . S
C1507 C1506 1.386 . S
C1507 C1508 1.382 . S
C1507 H1533 0.950 . S
C1508 N1505 1.332 . S
C1508 C1507 1.382 . S
C1508 H1519 0.952 . S
C1509 C1506 1.388 . S
C1509 C1510 1.382 . S
C1509 H1534 0.950 . S
C1510 N1505 1.332 . S
C1510 C1509 1.382 . S
C1510 H1520 0.948 . S
N1511 Co1489 2.282 . S
N1511 C1515 1.332 . S
N1511 C1516 1.332 . S
C1512 C1513 1.388 . S
C1512 C1516 1.382 . S
C1512 H1535 0.950 . S
C1513 C1512 1.388 . S
C1513 C1514 1.386 . S
C1514 C1513 1.386 . S
C1514 C1515 1.382 . S
C1514 H1536 0.950 . S
C1515 N1511 1.332 . S
C1515 C1514 1.382 . S
C1515 H1517 0.952 . S
C1516 N1511 1.332 . S
C1516 C1512 1.382 . S
C1516 H1518 0.948 . S
H1517 C1515 0.952 . S
H1518 C1516 0.948 . S
H1519 C1508 0.952 . S
H1520 C1510 0.948 . S
C1521 C1487 1.395 . S
C1521 C1491 1.391 . S
C1522 C1484 1.389 . S
C1522 C1504 1.392 . S
C1523 C1494 1.392 . S
C1523 C1496 1.389 . S
C1524 C1499 1.395 . S
C1524 C1501 1.391 . S
H1525 C1485 0.951 . S
H1526 C1486 0.950 . S
H1527 C1492 0.949 . S
H1528 C1493 0.950 . S
H1529 C1497 0.951 . S
H1530 C1498 0.950 . S
H1531 C1502 0.949 . S
H1532 C1503 0.950 . S
H1533 C1507 0.950 . S
H1534 C1509 0.950 . S
H1535 C1512 0.950 . S
H1536 C1514 0.950 . S
C1537 C1538 1.443 . S
C1537 N1541 1.376 . S
C1537 C1575 1.389 . S
C1538 C1537 1.443 . S
C1538 C1539 1.340 . S
C1538 H1578 0.951 . S
C1539 C1538 1.340 . S
C1539 C1540 1.439 . S
C1539 H1579 0.950 . S
C1540 C1539 1.439 . S
C1540 N1541 1.374 . S
C1540 C1574 1.395 . S
N1541 C1537 1.376 . S
N1541 C1540 1.374 . S
N1541 Co1542 2.008 . S
Co1542 N1541 2.008 . S
Co1542 N1543 1.995 . S
Co1542 N1548 2.008 . S
Co1542 N1553 1.995 . S
Co1542 N1558 2.282 . S
Co1542 N1564 2.282 . S
N1543 Co1542 1.995 . S
N1543 C1544 1.376 . S
N1543 C1547 1.383 . S
C1544 N1543 1.376 . S
C1544 C1545 1.446 . S
C1544 C1574 1.391 . S
C1545 C1544 1.446 . S
C1545 C1546 1.339 . S
C1545 H1580 0.949 . S
C1546 C1545 1.339 . S
C1546 C1547 1.439 . S
C1546 H1581 0.950 . S
C1547 N1543 1.383 . S
C1547 C1546 1.439 . S
C1547 C1576 1.392 . S
N1548 Co1542 2.008 . S
N1548 C1549 1.376 . S
N1548 C1552 1.374 . S
C1549 N1548 1.376 . S
C1549 C1550 1.443 . S
C1549 C1576 1.389 . S
C1550 C1549 1.443 . S
C1550 C1551 1.340 . S
C1550 H1582 0.951 . S
C1551 C1550 1.340 . S
C1551 C1552 1.439 . S
C1551 H1583 0.950 . S
C1552 N1548 1.374 . S
C1552 C1551 1.439 . S
C1552 C1577 1.395 . S
N1553 Co1542 1.995 . S
N1553 C1554 1.376 . S
N1553 C1557 1.383 . S
C1554 N1553 1.376 . S
C1554 C1555 1.446 . S
C1554 C1577 1.391 . S
C1555 C1554 1.446 . S
C1555 C1556 1.339 . S
C1555 H1584 0.949 . S
C1556 C1555 1.339 . S
C1556 C1557 1.439 . S
C1556 H1585 0.950 . S
C1557 N1553 1.383 . S
C1557 C1556 1.439 . S
C1557 C1575 1.392 . S
N1558 Co1542 2.282 . S
N1558 C1561 1.332 . S
N1558 C1563 1.332 . S
C1559 C1560 1.386 . S
C1559 C1562 1.388 . S
C1560 C1559 1.386 . S
C1560 C1561 1.382 . S
C1560 H1586 0.950 . S
C1561 N1558 1.332 . S
C1561 C1560 1.382 . S
C1561 H1572 0.952 . S
C1562 C1559 1.388 . S
C1562 C1563 1.382 . S
C1562 H1587 0.950 . S
C1563 N1558 1.332 . S
C1563 C1562 1.382 . S
C1563 H1573 0.948 . S
N1564 Co1542 2.282 . S
N1564 C1568 1.332 . S
N1564 C1569 1.332 . S
C1565 C1566 1.388 . S
C1565 C1569 1.382 1_655 S
C1565 H1588 0.950 . S
C1566 C1565 1.388 . S
C1566 C1567 1.395 . S
C1567 C1566 1.395 . S
C1567 C1568 1.366 1_655 S
C1567 H1589 0.957 . S
C1568 N1564 1.332 . S
C1568 C1567 1.366 1_455 S
C1568 H1570 0.952 . S
C1569 N1564 1.332 . S
C1569 C1565 1.382 1_455 S
C1569 H1571 0.948 . S
H1570 C1568 0.952 . S
H1571 C1569 0.948 . S
H1572 C1561 0.952 . S
H1573 C1563 0.948 . S
C1574 C1540 1.395 . S
C1574 C1544 1.391 . S
C1575 C1537 1.389 . S
C1575 C1557 1.392 . S
C1576 C1547 1.392 . S
C1576 C1549 1.389 . S
C1577 C1552 1.395 . S
C1577 C1554 1.391 . S
H1578 C1538 0.951 . S
H1579 C1539 0.950 . S
H1580 C1545 0.949 . S
H1581 C1546 0.950 . S
H1582 C1550 0.951 . S
H1583 C1551 0.950 . S
H1584 C1555 0.949 . S
H1585 C1556 0.950 . S
H1586 C1560 0.950 . S
H1587 C1562 0.950 . S
H1588 C1565 0.950 . S
H1589 C1567 0.957 . S
C1590 C1591 1.443 . S
C1590 N1594 1.376 . S
C1590 C1628 1.389 . S
C1591 C1590 1.443 . S
C1591 C1592 1.340 . S
C1591 H1631 0.951 . S
C1592 C1591 1.340 . S
C1592 C1593 1.439 . S
C1592 H1632 0.950 . S
C1593 C1592 1.439 . S
C1593 N1594 1.374 . S
C1593 C1627 1.395 . S
N1594 C1590 1.376 . S
N1594 C1593 1.374 . S
N1594 Co1595 2.008 . S
Co1595 N1594 2.008 . S
Co1595 N1596 1.995 . S
Co1595 N1601 2.008 . S
Co1595 N1606 1.995 . S
Co1595 N1611 2.282 . S
Co1595 N1617 2.282 . S
N1596 Co1595 1.995 . S
N1596 C1597 1.376 . S
N1596 C1600 1.383 . S
C1597 N1596 1.376 . S
C1597 C1598 1.446 . S
C1597 C1627 1.391 . S
C1598 C1597 1.446 . S
C1598 C1599 1.339 . S
C1598 H1633 0.949 . S
C1599 C1598 1.339 . S
C1599 C1600 1.439 . S
C1599 H1634 0.950 . S
C1600 N1596 1.383 . S
C1600 C1599 1.439 . S
C1600 C1629 1.392 . S
N1601 Co1595 2.008 . S
N1601 C1602 1.376 . S
N1601 C1605 1.374 . S
C1602 N1601 1.376 . S
C1602 C1603 1.443 . S
C1602 C1629 1.389 . S
C1603 C1602 1.443 . S
C1603 C1604 1.340 . S
C1603 H1635 0.951 . S
C1604 C1603 1.340 . S
C1604 C1605 1.439 . S
C1604 H1636 0.950 . S
C1605 N1601 1.374 . S
C1605 C1604 1.439 . S
C1605 C1630 1.395 . S
N1606 Co1595 1.995 . S
N1606 C1607 1.376 . S
N1606 C1610 1.383 . S
C1607 N1606 1.376 . S
C1607 C1608 1.446 . S
C1607 C1630 1.391 . S
C1608 C1607 1.446 . S
C1608 C1609 1.339 . S
C1608 H1637 0.949 . S
C1609 C1608 1.339 . S
C1609 C1610 1.439 . S
C1609 H1638 0.950 . S
C1610 N1606 1.383 . S
C1610 C1609 1.439 . S
C1610 C1628 1.392 . S
N1611 Co1595 2.282 . S
N1611 C1614 1.332 . S
N1611 C1616 1.332 . S
C1612 C1613 1.386 . S
C1612 C1615 1.388 . S
C1613 C1612 1.386 . S
C1613 C1614 1.382 . S
C1613 H1639 0.950 . S
C1614 N1611 1.332 . S
C1614 C1613 1.382 . S
C1614 H1625 0.952 . S
C1615 C1612 1.388 . S
C1615 C1616 1.382 . S
C1615 H1640 0.950 . S
C1616 N1611 1.332 . S
C1616 C1615 1.382 . S
C1616 H1626 0.948 . S
N1617 Co1595 2.282 . S
N1617 C1621 1.332 . S
N1617 C1622 1.332 . S
C1618 C1619 1.388 . S
C1618 C1622 1.382 . S
C1618 H1641 0.950 . S
C1619 C1618 1.388 . S
C1619 C1620 1.386 . S
C1620 C1619 1.386 . S
C1620 C1621 1.382 . S
C1620 H1642 0.950 . S
C1621 N1617 1.332 . S
C1621 C1620 1.382 . S
C1621 H1623 0.952 . S
C1622 N1617 1.332 . S
C1622 C1618 1.382 . S
C1622 H1624 0.948 . S
H1623 C1621 0.952 . S
H1624 C1622 0.948 . S
H1625 C1614 0.952 . S
H1626 C1616 0.948 . S
C1627 C1593 1.395 . S
C1627 C1597 1.391 . S
C1628 C1590 1.389 . S
C1628 C1610 1.392 . S
C1629 C1600 1.392 . S
C1629 C1602 1.389 . S
C1630 C1605 1.395 . S
C1630 C1607 1.391 . S
H1631 C1591 0.951 . S
H1632 C1592 0.950 . S
H1633 C1598 0.949 . S
H1634 C1599 0.950 . S
H1635 C1603 0.951 . S
H1636 C1604 0.950 . S
H1637 C1608 0.949 . S
H1638 C1609 0.950 . S
H1639 C1613 0.950 . S
H1640 C1615 0.950 . S
H1641 C1618 0.950 . S
H1642 C1620 0.950 . S
C1643 C1644 1.443 . S
C1643 N1647 1.376 . S
C1643 C1681 1.389 . S
C1644 C1643 1.443 . S
C1644 C1645 1.340 . S
C1644 H1684 0.951 . S
C1645 C1644 1.340 . S
C1645 C1646 1.439 . S
C1645 H1685 0.950 . S
C1646 C1645 1.439 . S
C1646 N1647 1.374 . S
C1646 C1680 1.395 . S
N1647 C1643 1.376 . S
N1647 C1646 1.374 . S
N1647 Co1648 2.008 . S
Co1648 N1647 2.008 . S
Co1648 N1649 1.995 . S
Co1648 N1654 2.008 . S
Co1648 N1659 1.995 . S
Co1648 N1664 2.282 . S
Co1648 N1670 2.282 . S
N1649 Co1648 1.995 . S
N1649 C1650 1.376 . S
N1649 C1653 1.383 . S
C1650 N1649 1.376 . S
C1650 C1651 1.446 . S
C1650 C1680 1.391 . S
C1651 C1650 1.446 . S
C1651 C1652 1.339 . S
C1651 H1686 0.949 . S
C1652 C1651 1.339 . S
C1652 C1653 1.439 . S
C1652 H1687 0.950 . S
C1653 N1649 1.383 . S
C1653 C1652 1.439 . S
C1653 C1682 1.392 . S
N1654 Co1648 2.008 . S
N1654 C1655 1.376 . S
N1654 C1658 1.374 . S
C1655 N1654 1.376 . S
C1655 C1656 1.443 . S
C1655 C1682 1.389 . S
C1656 C1655 1.443 . S
C1656 C1657 1.340 . S
C1656 H1688 0.951 . S
C1657 C1656 1.340 . S
C1657 C1658 1.439 . S
C1657 H1689 0.950 . S
C1658 N1654 1.374 . S
C1658 C1657 1.439 . S
C1658 C1683 1.395 . S
N1659 Co1648 1.995 . S
N1659 C1660 1.376 . S
N1659 C1663 1.383 . S
C1660 N1659 1.376 . S
C1660 C1661 1.446 . S
C1660 C1683 1.391 . S
C1661 C1660 1.446 . S
C1661 C1662 1.339 . S
C1661 H1690 0.949 . S
C1662 C1661 1.339 . S
C1662 C1663 1.439 . S
C1662 H1691 0.950 . S
C1663 N1659 1.383 . S
C1663 C1662 1.439 . S
C1663 C1681 1.392 . S
N1664 Co1648 2.282 . S
N1664 C1667 1.332 . S
N1664 C1669 1.332 . S
C1665 C1666 1.386 . S
C1665 C1668 1.388 . S
C1666 C1665 1.386 . S
C1666 C1667 1.382 . S
C1666 H1692 0.950 . S
C1667 N1664 1.332 . S
C1667 C1666 1.382 . S
C1667 H1678 0.952 . S
C1668 C1665 1.388 . S
C1668 C1669 1.382 . S
C1668 H1693 0.950 . S
C1669 N1664 1.332 . S
C1669 C1668 1.382 . S
C1669 H1679 0.948 . S
N1670 Co1648 2.282 . S
N1670 C1674 1.332 . S
N1670 C1675 1.332 . S
C1671 C1672 1.388 . S
C1671 C1675 1.382 . S
C1671 H1694 0.950 . S
C1672 C1671 1.388 . S
C1672 C1673 1.386 . S
C1673 C1672 1.386 . S
C1673 C1674 1.382 . S
C1673 H1695 0.950 . S
C1674 N1670 1.332 . S
C1674 C1673 1.382 . S
C1674 H1676 0.952 . S
C1675 N1670 1.332 . S
C1675 C1671 1.382 . S
C1675 H1677 0.948 . S
H1676 C1674 0.952 . S
H1677 C1675 0.948 . S
H1678 C1667 0.952 . S
H1679 C1669 0.948 . S
C1680 C1646 1.395 . S
C1680 C1650 1.391 . S
C1681 C1643 1.389 . S
C1681 C1663 1.392 . S
C1682 C1653 1.392 . S
C1682 C1655 1.389 . S
C1683 C1658 1.395 . S
C1683 C1660 1.391 . S
H1684 C1644 0.951 . S
H1685 C1645 0.950 . S
H1686 C1651 0.949 . S
H1687 C1652 0.950 . S
H1688 C1656 0.951 . S
H1689 C1657 0.950 . S
H1690 C1661 0.949 . S
H1691 C1662 0.950 . S
H1692 C1666 0.950 . S
H1693 C1668 0.950 . S
H1694 C1671 0.950 . S
H1695 C1673 0.950 . S
C1696 C1697 1.387 . S
C1696 H1700 0.950 . S
C1696 C1705 1.390 . S
C1697 C1696 1.387 . S
C1697 C1699 1.387 . S
H1698 C1705 0.950 . S
C1699 C1697 1.387 . S
C1699 C1701 1.390 . S
C1699 H1703 0.950 . S
H1700 C1696 0.950 . S
C1701 C1699 1.390 . S
C1701 C1702 1.387 . S
C1701 H1704 0.950 . S
C1702 C1701 1.387 . S
C1702 C1705 1.387 . S
H1703 C1699 0.950 . S
H1704 C1701 0.950 . S
C1705 C1696 1.390 . S
C1705 H1698 0.950 . S
C1705 C1702 1.387 . S
C1706 C1707 1.387 . S
C1706 H1710 0.950 . S
C1706 C1715 1.390 . S
C1707 C1706 1.387 . S
C1707 C1709 1.387 . S
H1708 C1715 0.950 . S
C1709 C1707 1.387 . S
C1709 C1711 1.390 . S
C1709 H1713 0.950 . S
H1710 C1706 0.950 . S
C1711 C1709 1.390 . S
C1711 C1712 1.387 . S
C1711 H1714 0.950 . S
C1712 C1711 1.387 . S
C1712 C1715 1.387 . S
H1713 C1709 0.950 . S
H1714 C1711 0.950 . S
C1715 C1706 1.390 . S
C1715 H1708 0.950 . S
C1715 C1712 1.387 . S
C1716 C1717 1.387 . S
C1716 H1720 0.950 . S
C1716 C1725 1.390 . S
C1717 C1716 1.387 . S
C1717 C1719 1.387 . S
H1718 C1725 0.950 . S
C1719 C1717 1.387 . S
C1719 C1721 1.390 . S
C1719 H1723 0.950 . S
H1720 C1716 0.950 . S
C1721 C1719 1.390 . S
C1721 C1722 1.387 . S
C1721 H1724 0.950 . S
C1722 C1721 1.387 . S
C1722 C1725 1.387 . S
H1723 C1719 0.950 . S
H1724 C1721 0.950 . S
C1725 C1716 1.390 . S
C1725 H1718 0.950 . S
C1725 C1722 1.387 . S
C1726 C1727 1.387 . S
C1726 H1730 0.950 . S
C1726 C1735 1.390 . S
C1727 C1726 1.387 . S
C1727 C1729 1.387 . S
H1728 C1735 0.950 . S
C1729 C1727 1.387 . S
C1729 C1731 1.390 . S
C1729 H1733 0.950 . S
H1730 C1726 0.950 . S
C1731 C1729 1.390 . S
C1731 C1732 1.387 . S
C1731 H1734 0.950 . S
C1732 C1731 1.387 . S
C1732 C1735 1.387 . S
H1733 C1729 0.950 . S
H1734 C1731 0.950 . S
C1735 C1726 1.390 . S
C1735 H1728 0.950 . S
C1735 C1732 1.387 . S
C1736 C1737 1.387 . S
C1736 H1740 0.950 . S
C1736 C1745 1.390 . S
C1737 C1736 1.387 . S
C1737 C1739 1.387 . S
H1738 C1745 0.950 . S
C1739 C1737 1.387 . S
C1739 C1741 1.390 . S
C1739 H1743 0.950 . S
H1740 C1736 0.950 . S
C1741 C1739 1.390 . S
C1741 C1742 1.387 . S
C1741 H1744 0.950 . S
C1742 C1741 1.387 . S
C1742 C1745 1.387 . S
H1743 C1739 0.950 . S
H1744 C1741 0.950 . S
C1745 C1736 1.390 . S
C1745 H1738 0.950 . S
C1745 C1742 1.387 . S
C1746 C1747 1.387 . S
C1746 H1750 0.950 . S
C1746 C1755 1.390 . S
C1747 C1746 1.387 . S
C1747 C1749 1.387 . S
H1748 C1755 0.950 . S
C1749 C1747 1.387 . S
C1749 C1751 1.390 . S
C1749 H1753 0.950 . S
H1750 C1746 0.950 . S
C1751 C1749 1.390 . S
C1751 C1752 1.387 . S
C1751 H1754 0.950 . S
C1752 C1751 1.387 . S
C1752 C1755 1.387 . S
H1753 C1749 0.950 . S
H1754 C1751 0.950 . S
C1755 C1746 1.390 . S
C1755 H1748 0.950 . S
C1755 C1752 1.387 . S
C1756 C1757 1.387 . S
C1756 H1760 0.950 . S
C1756 C1765 1.390 . S
C1757 C1756 1.387 . S
C1757 C1759 1.387 . S
H1758 C1765 0.950 . S
C1759 C1757 1.387 . S
C1759 C1761 1.390 . S
C1759 H1763 0.950 . S
H1760 C1756 0.950 . S
C1761 C1759 1.390 . S
C1761 C1762 1.387 . S
C1761 H1764 0.950 . S
C1762 C1761 1.387 . S
C1762 C1765 1.387 . S
H1763 C1759 0.950 . S
H1764 C1761 0.950 . S
C1765 C1756 1.390 . S
C1765 H1758 0.950 . S
C1765 C1762 1.387 . S
C1766 C1767 1.387 . S
C1766 H1770 0.950 . S
C1766 C1775 1.390 . S
C1767 C1766 1.387 . S
C1767 C1769 1.387 . S
H1768 C1775 0.950 . S
C1769 C1767 1.387 . S
C1769 C1771 1.390 . S
C1769 H1773 0.950 . S
H1770 C1766 0.950 . S
C1771 C1769 1.390 . S
C1771 C1772 1.387 . S
C1771 H1774 0.950 . S
C1772 C1771 1.387 . S
C1772 C1775 1.387 . S
H1773 C1769 0.950 . S
H1774 C1771 0.950 . S
C1775 C1766 1.390 . S
C1775 H1768 0.950 . S
C1775 C1772 1.387 . S
C1776 C1777 1.387 . S
C1776 H1780 0.950 . S
C1776 C1785 1.390 . S
C1777 C1776 1.387 . S
C1777 C1779 1.387 . S
H1778 C1785 0.950 . S
C1779 C1777 1.387 . S
C1779 C1781 1.390 . S
C1779 H1783 0.950 . S
H1780 C1776 0.950 . S
C1781 C1779 1.390 . S
C1781 C1782 1.387 . S
C1781 H1784 0.950 . S
C1782 C1781 1.387 . S
C1782 C1785 1.387 . S
H1783 C1779 0.950 . S
H1784 C1781 0.950 . S
C1785 C1776 1.390 . S
C1785 H1778 0.950 . S
C1785 C1782 1.387 . S
C1786 C1787 1.387 . S
C1786 H1790 0.950 . S
C1786 C1795 1.390 . S
C1787 C1786 1.387 . S
C1787 C1789 1.387 . S
H1788 C1795 0.950 . S
C1789 C1787 1.387 . S
C1789 C1791 1.390 . S
C1789 H1793 0.950 . S
H1790 C1786 0.950 . S
C1791 C1789 1.390 . S
C1791 C1792 1.387 . S
C1791 H1794 0.950 1_545 S
C1792 C1791 1.387 . S
C1792 C1795 1.387 . S
H1793 C1789 0.950 . S
H1794 C1791 0.950 1_565 S
C1795 C1786 1.390 . S
C1795 H1788 0.950 . S
C1795 C1792 1.387 . S
C1796 C1797 1.387 . S
C1796 H1800 0.950 . S
C1796 C1805 1.390 . S
C1797 C1796 1.387 . S
C1797 C1799 1.387 . S
H1798 C1805 0.950 . S
C1799 C1797 1.387 . S
C1799 C1801 1.390 . S
C1799 H1803 0.950 . S
H1800 C1796 0.950 . S
C1801 C1799 1.390 . S
C1801 C1802 1.387 . S
C1801 H1804 0.950 . S
C1802 C1801 1.387 . S
C1802 C1805 1.387 . S
H1803 C1799 0.950 . S
H1804 C1801 0.950 . S
C1805 C1796 1.390 . S
C1805 H1798 0.950 . S
C1805 C1802 1.387 . S
C1806 C1807 1.387 . S
C1806 H1810 0.950 . S
C1806 C1815 1.390 . S
C1807 C1806 1.387 . S
C1807 C1809 1.387 . S
H1808 C1815 0.950 . S
C1809 C1807 1.387 . S
C1809 C1811 1.390 . S
C1809 H1813 0.950 1_565 S
H1810 C1806 0.950 . S
C1811 C1809 1.390 . S
C1811 C1812 1.387 . S
C1811 H1814 0.950 . S
C1812 C1811 1.387 . S
C1812 C1815 1.387 . S
H1813 C1809 0.950 1_545 S
H1814 C1811 0.950 . S
C1815 C1806 1.390 . S
C1815 H1808 0.950 . S
C1815 C1812 1.387 . S
C1816 C1817 1.387 . S
C1816 H1820 0.950 . S
C1816 C1825 1.390 . S
C1817 C1816 1.387 . S
C1817 C1819 1.387 . S
H1818 C1825 0.950 . S
C1819 C1817 1.387 . S
C1819 C1821 1.390 . S
C1819 H1823 0.950 . S
H1820 C1816 0.950 . S
C1821 C1819 1.390 . S
C1821 C1822 1.387 . S
C1821 H1824 0.950 . S
C1822 C1821 1.387 . S
C1822 C1825 1.387 . S
H1823 C1819 0.950 . S
H1824 C1821 0.950 . S
C1825 C1816 1.390 . S
C1825 H1818 0.950 . S
C1825 C1822 1.387 . S
C1826 C1827 1.387 . S
C1826 H1830 0.950 . S
C1826 C1835 1.390 . S
C1827 C1826 1.387 . S
C1827 C1829 1.387 . S
H1828 C1835 0.950 . S
C1829 C1827 1.387 . S
C1829 C1831 1.390 . S
C1829 H1833 0.950 . S
H1830 C1826 0.950 . S
C1831 C1829 1.390 . S
C1831 C1832 1.387 . S
C1831 H1834 0.950 . S
C1832 C1831 1.387 . S
C1832 C1835 1.387 . S
H1833 C1829 0.950 . S
H1834 C1831 0.950 . S
C1835 C1826 1.390 . S
C1835 H1828 0.950 . S
C1835 C1832 1.387 . S
C1836 C1837 1.387 . S
C1836 H1840 0.950 . S
C1836 C1845 1.390 . S
C1837 C1836 1.387 . S
C1837 C1839 1.387 . S
H1838 C1845 0.950 . S
C1839 C1837 1.387 . S
C1839 C1841 1.390 . S
C1839 H1843 0.950 . S
H1840 C1836 0.950 . S
C1841 C1839 1.390 . S
C1841 C1842 1.387 . S
C1841 H1844 0.950 . S
C1842 C1841 1.387 . S
C1842 C1845 1.387 . S
H1843 C1839 0.950 . S
H1844 C1841 0.950 . S
C1845 C1836 1.390 . S
C1845 H1838 0.950 . S
C1845 C1842 1.387 . S
C1846 C1847 1.387 . S
C1846 H1850 0.950 . S
C1846 C1855 1.390 . S
C1847 C1846 1.387 . S
C1847 C1849 1.387 . S
H1848 C1855 0.950 . S
C1849 C1847 1.387 . S
C1849 C1851 1.390 . S
C1849 H1853 0.950 . S
H1850 C1846 0.950 . S
C1851 C1849 1.390 . S
C1851 C1852 1.387 . S
C1851 H1854 0.950 . S
C1852 C1851 1.387 . S
C1852 C1855 1.387 . S
H1853 C1849 0.950 . S
H1854 C1851 0.950 . S
C1855 C1846 1.390 . S
C1855 H1848 0.950 . S
C1855 C1852 1.387 . S
C1856 C1857 1.387 . S
C1856 H1860 0.950 . S
C1856 C1865 1.390 . S
C1857 C1856 1.387 . S
C1857 C1859 1.387 . S
H1858 C1865 0.950 . S
C1859 C1857 1.387 . S
C1859 C1861 1.390 . S
C1859 H1863 0.950 . S
H1860 C1856 0.950 . S
C1861 C1859 1.390 . S
C1861 C1862 1.387 . S
C1861 H1864 0.950 . S
C1862 C1861 1.387 . S
C1862 C1865 1.387 . S
H1863 C1859 0.950 . S
H1864 C1861 0.950 . S
C1865 C1856 1.390 . S
C1865 H1858 0.950 . S
C1865 C1862 1.387 . S
C1866 C1867 1.387 . S
C1866 H1870 0.950 . S
C1866 C1875 1.390 . S
C1867 C1866 1.387 . S
C1867 C1869 1.387 . S
H1868 C1875 0.950 . S
C1869 C1867 1.387 . S
C1869 C1871 1.390 . S
C1869 H1873 0.950 . S
H1870 C1866 0.950 . S
C1871 C1869 1.390 . S
C1871 C1872 1.387 . S
C1871 H1874 0.950 . S
C1872 C1871 1.387 . S
C1872 C1875 1.387 . S
H1873 C1869 0.950 . S
H1874 C1871 0.950 . S
C1875 C1866 1.390 . S
C1875 H1868 0.950 . S
C1875 C1872 1.387 . S
C1876 C1877 1.387 . S
C1876 H1880 0.950 . S
C1876 C1885 1.390 . S
C1877 C1876 1.387 . S
C1877 C1879 1.387 . S
H1878 C1885 0.950 . S
C1879 C1877 1.387 . S
C1879 C1881 1.390 . S
C1879 H1883 0.950 . S
H1880 C1876 0.950 . S
C1881 C1879 1.390 . S
C1881 C1882 1.387 . S
C1881 H1884 0.950 . S
C1882 C1881 1.387 . S
C1882 C1885 1.387 . S
H1883 C1879 0.950 . S
H1884 C1881 0.950 . S
C1885 C1876 1.390 . S
C1885 H1878 0.950 . S
C1885 C1882 1.387 . S
C1886 C1887 1.387 . S
C1886 H1890 0.950 . S
C1886 C1895 1.390 . S
C1887 C1886 1.387 . S
C1887 C1889 1.387 . S
H1888 C1895 0.950 . S
C1889 C1887 1.387 . S
C1889 C1891 1.390 . S
C1889 H1893 0.950 . S
H1890 C1886 0.950 . S
C1891 C1889 1.390 . S
C1891 C1892 1.387 . S
C1891 H1894 0.950 . S
C1892 C1891 1.387 . S
C1892 C1895 1.387 . S
H1893 C1889 0.950 . S
H1894 C1891 0.950 . S
C1895 C1886 1.390 . S
C1895 H1888 0.950 . S
C1895 C1892 1.387 . S
C1896 C1897 1.387 . S
C1896 H1900 0.950 . S
C1896 C1905 1.390 . S
C1897 C1896 1.387 . S
C1897 C1899 1.387 . S
H1898 C1905 0.950 . S
C1899 C1897 1.387 . S
C1899 C1901 1.390 . S
C1899 H1903 0.950 . S
H1900 C1896 0.950 . S
C1901 C1899 1.390 . S
C1901 C1902 1.387 . S
C1901 H1904 0.950 . S
C1902 C1901 1.387 . S
C1902 C1905 1.387 . S
H1903 C1899 0.950 . S
H1904 C1901 0.950 . S
C1905 C1896 1.390 . S
C1905 H1898 0.950 . S
C1905 C1902 1.387 . S
C1906 C1907 1.387 . S
C1906 H1910 0.950 . S
C1906 C1915 1.390 . S
C1907 C1906 1.387 . S
C1907 C1909 1.387 . S
H1908 C1915 0.950 . S
C1909 C1907 1.387 . S
C1909 C1911 1.390 . S
C1909 H1913 0.950 . S
H1910 C1906 0.950 . S
C1911 C1909 1.390 . S
C1911 C1912 1.387 . S
C1911 H1914 0.950 . S
C1912 C1911 1.387 . S
C1912 C1915 1.387 . S
H1913 C1909 0.950 . S
H1914 C1911 0.950 . S
C1915 C1906 1.390 . S
C1915 H1908 0.950 . S
C1915 C1912 1.387 . S
C1916 C1917 1.387 . S
C1916 H1920 0.950 . S
C1916 C1925 1.390 . S
C1917 C1916 1.387 . S
C1917 C1919 1.387 . S
H1918 C1925 0.950 . S
C1919 C1917 1.387 . S
C1919 C1921 1.390 . S
C1919 H1923 0.950 . S
H1920 C1916 0.950 . S
C1921 C1919 1.390 . S
C1921 C1922 1.387 . S
C1921 H1924 0.950 . S
C1922 C1921 1.387 . S
C1922 C1925 1.387 . S
H1923 C1919 0.950 . S
H1924 C1921 0.950 . S
C1925 C1916 1.390 . S
C1925 H1918 0.950 . S
C1925 C1922 1.387 . S
C1926 C1927 1.387 . S
C1926 H1930 0.950 . S
C1926 C1935 1.390 . S
C1927 C1926 1.387 . S
C1927 C1929 1.387 . S
H1928 C1935 0.950 . S
C1929 C1927 1.387 . S
C1929 C1931 1.390 . S
C1929 H1933 0.950 . S
H1930 C1926 0.950 . S
C1931 C1929 1.390 . S
C1931 C1932 1.387 . S
C1931 H1934 0.950 . S
C1932 C1931 1.387 . S
C1932 C1935 1.387 . S
H1933 C1929 0.950 . S
H1934 C1931 0.950 . S
C1935 C1926 1.390 . S
C1935 H1928 0.950 . S
C1935 C1932 1.387 . S
C1936 C1937 1.387 . S
C1936 H1940 0.950 . S
C1936 C1945 1.390 . S
C1937 C1936 1.387 . S
C1937 C1939 1.387 . S
H1938 C1945 0.950 . S
C1939 C1937 1.387 . S
C1939 C1941 1.390 . S
C1939 H1943 0.950 . S
H1940 C1936 0.950 . S
C1941 C1939 1.390 . S
C1941 C1942 1.387 . S
C1941 H1944 0.950 . S
C1942 C1941 1.387 . S
C1942 C1945 1.387 . S
H1943 C1939 0.950 . S
H1944 C1941 0.950 . S
C1945 C1936 1.390 . S
C1945 H1938 0.950 . S
C1945 C1942 1.387 . S
C1946 C1947 1.387 . S
C1946 H1950 0.950 . S
C1946 C1955 1.390 . S
C1947 C1946 1.387 . S
C1947 C1949 1.387 . S
H1948 C1955 0.950 . S
C1949 C1947 1.387 . S
C1949 C1951 1.390 . S
C1949 H1953 0.950 . S
H1950 C1946 0.950 . S
C1951 C1949 1.390 . S
C1951 C1952 1.387 . S
C1951 H1954 0.950 . S
C1952 C1951 1.387 . S
C1952 C1955 1.387 . S
H1953 C1949 0.950 . S
H1954 C1951 0.950 . S
C1955 C1946 1.390 . S
C1955 H1948 0.950 . S
C1955 C1952 1.387 . S
C1956 C1957 1.387 . S
C1956 H1960 0.950 . S
C1956 C1965 1.390 . S
C1957 C1956 1.387 . S
C1957 C1959 1.387 . S
H1958 C1965 0.950 . S
C1959 C1957 1.387 . S
C1959 C1961 1.390 . S
C1959 H1963 0.950 . S
H1960 C1956 0.950 . S
C1961 C1959 1.390 . S
C1961 C1962 1.387 . S
C1961 H1964 0.950 . S
C1962 C1961 1.387 . S
C1962 C1965 1.387 . S
H1963 C1959 0.950 . S
H1964 C1961 0.950 . S
C1965 C1956 1.390 . S
C1965 H1958 0.950 . S
C1965 C1962 1.387 . S
C1966 C1967 1.387 . S
C1966 H1970 0.950 . S
C1966 C1975 1.390 . S
C1967 C1966 1.387 . S
C1967 C1969 1.387 . S
H1968 C1975 0.950 . S
C1969 C1967 1.387 . S
C1969 C1971 1.390 . S
C1969 H1973 0.950 . S
H1970 C1966 0.950 . S
C1971 C1969 1.390 . S
C1971 C1972 1.387 . S
C1971 H1974 0.950 . S
C1972 C1971 1.387 . S
C1972 C1975 1.387 . S
H1973 C1969 0.950 . S
H1974 C1971 0.950 . S
C1975 C1966 1.390 . S
C1975 H1968 0.950 . S
C1975 C1972 1.387 . S
C1976 C1977 1.387 . S
C1976 H1980 0.950 . S
C1976 C1985 1.390 . S
C1977 C1976 1.387 . S
C1977 C1979 1.387 . S
H1978 C1985 0.950 . S
C1979 C1977 1.387 . S
C1979 C1981 1.390 . S
C1979 H1983 0.950 . S
H1980 C1976 0.950 . S
C1981 C1979 1.390 . S
C1981 C1982 1.387 . S
C1981 H1984 0.950 . S
C1982 C1981 1.387 . S
C1982 C1985 1.387 . S
H1983 C1979 0.950 . S
H1984 C1981 0.950 . S
C1985 C1976 1.390 . S
C1985 H1978 0.950 . S
C1985 C1982 1.387 . S
C1986 C1987 1.387 . S
C1986 H1990 0.950 . S
C1986 C1995 1.390 . S
C1987 C1986 1.387 . S
C1987 C1989 1.387 . S
H1988 C1995 0.950 . S
C1989 C1987 1.387 . S
C1989 C1991 1.390 . S
C1989 H1993 0.950 . S
H1990 C1986 0.950 . S
C1991 C1989 1.390 . S
C1991 C1992 1.387 . S
C1991 H1994 0.950 . S
C1992 C1991 1.387 . S
C1992 C1995 1.387 . S
H1993 C1989 0.950 . S
H1994 C1991 0.950 . S
C1995 C1986 1.390 . S
C1995 H1988 0.950 . S
C1995 C1992 1.387 . S
C1996 C1997 1.387 . S
C1996 H2000 0.950 . S
C1996 C2005 1.390 . S
C1997 C1996 1.387 . S
C1997 C1999 1.387 . S
H1998 C2005 0.950 . S
C1999 C1997 1.387 . S
C1999 C2001 1.390 . S
C1999 H2003 0.950 . S
H2000 C1996 0.950 . S
C2001 C1999 1.390 . S
C2001 C2002 1.387 . S
C2001 H2004 0.950 . S
C2002 C2001 1.387 . S
C2002 C2005 1.387 . S
H2003 C1999 0.950 . S
H2004 C2001 0.950 . S
C2005 C1996 1.390 . S
C2005 H1998 0.950 . S
C2005 C2002 1.387 . S
C2006 C2007 1.387 . S
C2006 H2010 0.950 . S
C2006 C2015 1.390 . S
C2007 C2006 1.387 . S
C2007 C2009 1.387 . S
H2008 C2015 0.950 . S
C2009 C2007 1.387 . S
C2009 C2011 1.390 . S
C2009 H2013 0.950 . S
H2010 C2006 0.950 . S
C2011 C2009 1.390 . S
C2011 C2012 1.387 . S
C2011 H2014 0.950 . S
C2012 C2011 1.387 . S
C2012 C2015 1.387 . S
H2013 C2009 0.950 . S
H2014 C2011 0.950 . S
C2015 C2006 1.390 . S
C2015 H2008 0.950 . S
C2015 C2012 1.387 . S
C2016 C2017 1.387 . S
C2016 H2020 0.950 . S
C2016 C2025 1.390 . S
C2017 C2016 1.387 . S
C2017 C2019 1.387 . S
H2018 C2025 0.950 . S
C2019 C2017 1.387 . S
C2019 C2021 1.390 . S
C2019 H2023 0.950 . S
H2020 C2016 0.950 . S
C2021 C2019 1.390 . S
C2021 C2022 1.387 . S
C2021 H2024 0.950 . S
C2022 C2021 1.387 . S
C2022 C2025 1.387 . S
H2023 C2019 0.950 . S
H2024 C2021 0.950 . S
C2025 C2016 1.390 . S
C2025 H2018 0.950 . S
C2025 C2022 1.387 . S
C2026 C2027 1.387 1_545 S
C2026 H2030 0.950 . S
C2026 C2035 1.379 1_455 S
C2027 C2026 1.387 1_565 S
C2027 C2029 1.387 . S
H2028 C2035 0.956 . S
C2029 C2027 1.387 . S
C2029 C2031 1.390 . S
C2029 H2033 0.950 . S
H2030 C2026 0.950 . S
C2031 C2029 1.390 . S
C2031 C2032 1.387 1_455 S
C2031 H2034 0.950 1_455 S
C2032 C2031 1.387 1_655 S
C2032 C2035 1.393 1_565 S
H2033 C2029 0.950 . S
H2034 C2031 0.950 1_655 S
C2035 C2026 1.379 1_655 S
C2035 H2028 0.956 . S
C2035 C2032 1.393 1_545 S
C2036 C2037 1.387 . S
C2036 H2040 0.950 . S
C2036 C2045 1.390 . S
C2037 C2036 1.387 . S
C2037 C2039 1.387 . S
H2038 C2045 0.950 . S
C2039 C2037 1.387 . S
C2039 C2041 1.390 . S
C2039 H2043 0.950 . S
H2040 C2036 0.950 . S
C2041 C2039 1.390 . S
C2041 C2042 1.387 . S
C2041 H2044 0.950 . S
C2042 C2041 1.387 . S
C2042 C2045 1.387 . S
H2043 C2039 0.950 . S
H2044 C2041 0.950 . S
C2045 C2036 1.390 . S
C2045 H2038 0.950 . S
C2045 C2042 1.387 . S
C2046 C2047 1.387 . S
C2046 H2050 0.950 . S
C2046 C2055 1.390 . S
C2047 C2046 1.387 . S
C2047 C2049 1.387 1_545 S
H2048 C2055 0.950 . S
C2049 C2047 1.387 1_565 S
C2049 C2051 1.390 1_554 S
C2049 H2053 0.950 . S
H2050 C2046 0.950 . S
C2051 C2049 1.390 1_556 S
C2051 C2052 1.387 1_565 S
C2051 H2054 0.950 . S
C2052 C2051 1.387 1_545 S
C2052 C2055 1.387 1_556 S
H2053 C2049 0.950 . S
H2054 C2051 0.950 . S
C2055 C2046 1.390 . S
C2055 H2048 0.950 . S
C2055 C2052 1.387 1_554 S
C2056 C2057 1.387 . S
C2056 H2060 0.950 . S
C2056 C2065 1.390 . S
C2057 C2056 1.387 . S
C2057 C2059 1.387 . S
H2058 C2065 0.950 . S
C2059 C2057 1.387 . S
C2059 C2061 1.390 . S
C2059 H2063 0.950 . S
H2060 C2056 0.950 . S
C2061 C2059 1.390 . S
C2061 C2062 1.387 . S
C2061 H2064 0.950 . S
C2062 C2061 1.387 . S
C2062 C2065 1.387 . S
H2063 C2059 0.950 . S
H2064 C2061 0.950 . S
C2065 C2056 1.390 . S
C2065 H2058 0.950 . S
C2065 C2062 1.387 . S
C2066 C2067 1.387 . S
C2066 H2070 0.950 1_565 S
C2066 C2075 1.390 . S
C2067 C2066 1.387 . S
C2067 C2069 1.387 . S
H2068 C2075 0.950 . S
C2069 C2067 1.387 . S
C2069 C2071 1.390 . S
C2069 H2073 0.950 . S
H2070 C2066 0.950 1_545 S
C2071 C2069 1.390 . S
C2071 C2072 1.387 . S
C2071 H2074 0.950 . S
C2072 C2071 1.387 . S
C2072 C2075 1.387 . S
H2073 C2069 0.950 . S
H2074 C2071 0.950 . S
C2075 C2066 1.390 . S
C2075 H2068 0.950 . S
C2075 C2072 1.387 . S
C2076 C2077 1.387 . S
C2076 H2080 0.950 . S
C2076 C2085 1.390 . S
C2077 C2076 1.387 . S
C2077 C2079 1.387 . S
H2078 C2085 0.950 . S
C2079 C2077 1.387 . S
C2079 C2081 1.390 . S
C2079 H2083 0.950 . S
H2080 C2076 0.950 . S
C2081 C2079 1.390 . S
C2081 C2082 1.387 . S
C2081 H2084 0.950 . S
C2082 C2081 1.387 . S
C2082 C2085 1.387 . S
H2083 C2079 0.950 . S
H2084 C2081 0.950 . S
C2085 C2076 1.390 . S
C2085 H2078 0.950 . S
C2085 C2082 1.387 . S
C2086 C2087 1.387 . S
C2086 H2090 0.950 . S
C2086 C2095 1.375 1_455 S
C2087 C2086 1.387 . S
C2087 C2089 1.387 1_545 S
H2088 C2095 0.959 . S
C2089 C2087 1.387 1_565 S
C2089 C2091 1.390 1_556 S
C2089 H2093 0.950 . S
H2090 C2086 0.950 . S
C2091 C2089 1.390 1_554 S
C2091 C2092 1.387 1_465 S
C2091 H2094 0.950 1_455 S
C2092 C2091 1.387 1_645 S
C2092 C2095 1.395 1_554 S
H2093 C2089 0.950 . S
H2094 C2091 0.950 1_655 S
C2095 C2086 1.375 1_655 S
C2095 H2088 0.959 . S
C2095 C2092 1.395 1_556 S
C2096 C2097 1.387 . S
C2096 H2100 0.950 . S
C2096 C2105 1.390 . S
C2097 C2096 1.387 . S
C2097 C2099 1.387 . S
H2098 C2105 0.950 . S
C2099 C2097 1.387 . S
C2099 C2101 1.390 . S
C2099 H2103 0.950 . S
H2100 C2096 0.950 . S
C2101 C2099 1.390 . S
C2101 C2102 1.387 . S
C2101 H2104 0.950 . S
C2102 C2101 1.387 . S
C2102 C2105 1.387 . S
H2103 C2099 0.950 . S
H2104 C2101 0.950 . S
C2105 C2096 1.390 . S
C2105 H2098 0.950 . S
C2105 C2102 1.387 . S
C2106 C2107 1.387 . S
C2106 H2110 0.950 . S
C2106 C2115 1.390 . S
C2107 C2106 1.387 . S
C2107 C2109 1.387 . S
H2108 C2115 0.950 . S
C2109 C2107 1.387 . S
C2109 C2111 1.390 . S
C2109 H2113 0.950 . S
H2110 C2106 0.950 . S
C2111 C2109 1.390 . S
C2111 C2112 1.387 . S
C2111 H2114 0.950 . S
C2112 C2111 1.387 . S
C2112 C2115 1.387 . S
H2113 C2109 0.950 . S
H2114 C2111 0.950 . S
C2115 C2106 1.390 . S
C2115 H2108 0.950 . S
C2115 C2112 1.387 . S
C2116 C2117 1.387 . S
C2116 H2120 0.950 . S
C2116 C2125 1.390 . S
C2117 C2116 1.387 . S
C2117 C2119 1.387 . S
H2118 C2125 0.950 . S
C2119 C2117 1.387 . S
C2119 C2121 1.390 . S
C2119 H2123 0.950 . S
H2120 C2116 0.950 . S
C2121 C2119 1.390 . S
C2121 C2122 1.387 . S
C2121 H2124 0.950 . S
C2122 C2121 1.387 . S
C2122 C2125 1.387 . S
H2123 C2119 0.950 . S
H2124 C2121 0.950 . S
C2125 C2116 1.390 . S
C2125 H2118 0.950 . S
C2125 C2122 1.387 . S
C2126 C2127 1.387 . S
C2126 H2130 0.950 . S
C2126 C2135 1.390 . S
C2127 C2126 1.387 . S
C2127 C2129 1.387 . S
H2128 C2135 0.950 . S
C2129 C2127 1.387 . S
C2129 C2131 1.390 . S
C2129 H2133 0.950 . S
H2130 C2126 0.950 . S
C2131 C2129 1.390 . S
C2131 C2132 1.387 . S
C2131 H2134 0.950 . S
C2132 C2131 1.387 . S
C2132 C2135 1.387 . S
H2133 C2129 0.950 . S
H2134 C2131 0.950 . S
C2135 C2126 1.390 . S
C2135 H2128 0.950 . S
C2135 C2132 1.387 . S
C2136 C2137 1.387 . S
C2136 H2140 0.950 . S
C2136 C2145 1.390 1_554 S
C2137 C2136 1.387 . S
C2137 C2139 1.387 . S
H2138 C2145 0.950 . S
C2139 C2137 1.387 . S
C2139 C2141 1.390 . S
C2139 H2143 0.950 . S
H2140 C2136 0.950 . S
C2141 C2139 1.390 . S
C2141 C2142 1.387 1_554 S
C2141 H2144 0.950 . S
C2142 C2141 1.387 1_556 S
C2142 C2145 1.387 . S
H2143 C2139 0.950 . S
H2144 C2141 0.950 . S
C2145 C2136 1.390 1_556 S
C2145 H2138 0.950 . S
C2145 C2142 1.387 . S
C2146 C2147 1.387 . S
C2146 H2150 0.950 . S
C2146 C2155 1.390 1_455 S
C2147 C2146 1.387 . S
C2147 C2149 1.387 1_455 S
H2148 C2155 0.950 . S
C2149 C2147 1.387 1_655 S
C2149 C2151 1.390 . S
C2149 H2153 0.950 1_655 S
H2150 C2146 0.950 . S
C2151 C2149 1.390 . S
C2151 C2152 1.387 . S
C2151 H2154 0.950 . S
C2152 C2151 1.387 . S
C2152 C2155 1.387 . S
H2153 C2149 0.950 1_455 S
H2154 C2151 0.950 . S
C2155 C2146 1.390 1_655 S
C2155 H2148 0.950 . S
C2155 C2152 1.387 . S
C2156 C2157 1.377 1_656 S
C2156 H2160 0.940 1_655 S
C2156 C2165 1.412 . S
C2157 C2156 1.377 1_454 S
C2157 C2159 1.390 . S
H2158 C2165 0.950 . S
C2159 C2157 1.390 . S
C2159 C2161 1.386 1_454 S
C2159 H2163 0.952 . S
H2160 C2156 0.940 1_455 S
C2161 C2159 1.386 1_656 S
C2161 C2162 1.387 . S
C2161 H2164 0.950 . S
C2162 C2161 1.387 . S
C2162 C2165 1.387 . S
H2163 C2159 0.952 . S
H2164 C2161 0.950 . S
C2165 C2156 1.412 . S
C2165 H2158 0.950 . S
C2165 C2162 1.387 . S
C2166 C2167 1.387 . S
C2166 H2170 0.950 . S
C2166 C2175 1.390 . S
C2167 C2166 1.387 . S
C2167 C2169 1.387 . S
H2168 C2175 0.950 . S
C2169 C2167 1.387 . S
C2169 C2171 1.390 . S
C2169 H2173 0.950 . S
H2170 C2166 0.950 . S
C2171 C2169 1.390 . S
C2171 C2172 1.387 . S
C2171 H2174 0.950 . S
C2172 C2171 1.387 . S
C2172 C2175 1.387 . S
H2173 C2169 0.950 . S
H2174 C2171 0.950 . S
C2175 C2166 1.390 . S
C2175 H2168 0.950 . S
C2175 C2172 1.387 . S
C2176 C2177 1.387 . S
C2176 H2180 0.950 . S
C2176 C2185 1.390 1_545 S
C2177 C2176 1.387 . S
C2177 C2179 1.387 . S
H2178 C2185 0.950 . S
C2179 C2177 1.387 . S
C2179 C2181 1.390 1_545 S
C2179 H2183 0.950 . S
H2180 C2176 0.950 . S
C2181 C2179 1.390 1_565 S
C2181 C2182 1.387 . S
C2181 H2184 0.950 . S
C2182 C2181 1.387 . S
C2182 C2185 1.387 . S
H2183 C2179 0.950 . S
H2184 C2181 0.950 . S
C2185 C2176 1.390 1_565 S
C2185 H2178 0.950 . S
C2185 C2182 1.387 . S
C2186 C2187 1.387 . S
C2186 H2190 0.950 1_565 S
C2186 C2195 1.390 . S
C2187 C2186 1.387 . S
C2187 C2189 1.387 . S
H2188 C2195 0.950 1_545 S
C2189 C2187 1.387 . S
C2189 C2191 1.390 . S
C2189 H2193 0.950 . S
H2190 C2186 0.950 1_545 S
C2191 C2189 1.390 . S
C2191 C2192 1.387 . S
C2191 H2194 0.950 . S
C2192 C2191 1.387 . S
C2192 C2195 1.387 . S
H2193 C2189 0.950 . S
H2194 C2191 0.950 . S
C2195 C2186 1.390 . S
C2195 H2188 0.950 1_565 S
C2195 C2192 1.387 . S
C2196 C2197 1.387 . S
C2196 H2200 0.950 . S
C2196 C2205 1.390 1_545 S
C2197 C2196 1.387 . S
C2197 C2199 1.387 . S
H2198 C2205 0.950 . S
C2199 C2197 1.387 . S
C2199 C2201 1.390 1_545 S
C2199 H2203 0.950 . S
H2200 C2196 0.950 . S
C2201 C2199 1.390 1_565 S
C2201 C2202 1.387 . S
C2201 H2204 0.950 . S
C2202 C2201 1.387 . S
C2202 C2205 1.387 . S
H2203 C2199 0.950 . S
H2204 C2201 0.950 . S
C2205 C2196 1.390 1_565 S
C2205 H2198 0.950 . S
C2205 C2202 1.387 . S
C2206 C2207 1.387 . S
C2206 H2210 0.950 . S
C2206 C2215 1.390 1_554 S
C2207 C2206 1.387 . S
C2207 C2209 1.387 . S
H2208 C2215 0.950 . S
C2209 C2207 1.387 . S
C2209 C2211 1.390 1_554 S
C2209 H2213 0.950 1_545 S
H2210 C2206 0.950 . S
C2211 C2209 1.390 1_556 S
C2211 C2212 1.387 . S
C2211 H2214 0.950 1_545 S
C2212 C2211 1.387 . S
C2212 C2215 1.387 . S
H2213 C2209 0.950 1_565 S
H2214 C2211 0.950 1_565 S
C2215 C2206 1.390 1_556 S
C2215 H2208 0.950 . S
C2215 C2212 1.387 . S
C2216 C2217 1.387 . S
C2216 H2220 0.950 . S
C2216 C2225 1.390 1_545 S
C2217 C2216 1.387 . S
C2217 C2219 1.387 . S
H2218 C2225 0.950 . S
C2219 C2217 1.387 . S
C2219 C2221 1.390 1_545 S
C2219 H2223 0.950 . S
H2220 C2216 0.950 . S
C2221 C2219 1.390 1_565 S
C2221 C2222 1.387 . S
C2221 H2224 0.950 . S
C2222 C2221 1.387 . S
C2222 C2225 1.387 . S
H2223 C2219 0.950 . S
H2224 C2221 0.950 . S
C2225 C2216 1.390 1_565 S
C2225 H2218 0.950 . S
C2225 C2222 1.387 . S
C2226 C2227 1.387 . S
C2226 H2230 0.950 . S
C2226 C2235 1.390 . S
C2227 C2226 1.387 . S
C2227 C2229 1.387 1_565 S
H2228 C2235 0.950 . S
C2229 C2227 1.387 1_545 S
C2229 C2231 1.390 . S
C2229 H2233 0.950 . S
H2230 C2226 0.950 . S
C2231 C2229 1.390 . S
C2231 C2232 1.387 1_545 S
C2231 H2234 0.950 . S
C2232 C2231 1.387 1_565 S
C2232 C2235 1.387 . S
H2233 C2229 0.950 . S
H2234 C2231 0.950 . S
C2235 C2226 1.390 . S
C2235 H2228 0.950 . S
C2235 C2232 1.387 . S
C2236 C2237 1.387 . S
C2236 H2240 0.950 . S
C2236 C2245 1.390 1_545 S
C2237 C2236 1.387 . S
C2237 C2239 1.387 . S
H2238 C2245 0.950 . S
C2239 C2237 1.387 . S
C2239 C2241 1.390 1_545 S
C2239 H2243 0.950 . S
H2240 C2236 0.950 . S
C2241 C2239 1.390 1_565 S
C2241 C2242 1.387 . S
C2241 H2244 0.950 . S
C2242 C2241 1.387 . S
C2242 C2245 1.387 . S
H2243 C2239 0.950 . S
H2244 C2241 0.950 . S
C2245 C2236 1.390 1_565 S
C2245 H2238 0.950 . S
C2245 C2242 1.387 . S
C2246 C2247 1.387 . S
C2246 H2250 0.950 . S
C2246 C2255 1.390 1_556 S
C2247 C2246 1.387 . S
C2247 C2249 1.387 1_545 S
H2248 C2255 0.950 . S
C2249 C2247 1.387 1_565 S
C2249 C2251 1.390 1_556 S
C2249 H2253 0.950 . S
H2250 C2246 0.950 . S
C2251 C2249 1.390 1_554 S
C2251 C2252 1.387 1_565 S
C2251 H2254 0.950 . S
C2252 C2251 1.387 1_545 S
C2252 C2255 1.387 . S
H2253 C2249 0.950 . S
H2254 C2251 0.950 . S
C2255 C2246 1.390 1_554 S
C2255 H2248 0.950 . S
C2255 C2252 1.387 . S
C2256 C2257 1.387 . S
C2256 H2260 0.950 . S
C2256 C2265 1.390 . S
C2257 C2256 1.387 . S
C2257 C2259 1.387 . S
H2258 C2265 0.950 . S
C2259 C2257 1.387 . S
C2259 C2261 1.390 . S
C2259 H2263 0.950 . S
H2260 C2256 0.950 . S
C2261 C2259 1.390 . S
C2261 C2262 1.387 . S
C2261 H2264 0.950 . S
C2262 C2261 1.387 . S
C2262 C2265 1.387 . S
H2263 C2259 0.950 . S
H2264 C2261 0.950 . S
C2265 C2256 1.390 . S
C2265 H2258 0.950 . S
C2265 C2262 1.387 . S
C2266 C2267 1.387 . S
C2266 H2270 0.950 . S
C2266 C2275 1.390 1_556 S
C2267 C2266 1.387 . S
C2267 C2269 1.387 . S
H2268 C2275 0.950 . S
C2269 C2267 1.387 . S
C2269 C2271 1.390 1_556 S
C2269 H2273 0.950 . S
H2270 C2266 0.950 . S
C2271 C2269 1.390 1_554 S
C2271 C2272 1.387 . S
C2271 H2274 0.950 . S
C2272 C2271 1.387 . S
C2272 C2275 1.387 . S
H2273 C2269 0.950 . S
H2274 C2271 0.950 . S
C2275 C2266 1.390 1_554 S
C2275 H2268 0.950 . S
C2275 C2272 1.387 . S
C2276 C2277 1.387 . S
C2276 H2280 0.950 . S
C2276 C2285 1.390 . S
C2277 C2276 1.387 . S
C2277 C2279 1.387 . S
H2278 C2285 0.950 . S
C2279 C2277 1.387 . S
C2279 C2281 1.390 . S
C2279 H2283 0.950 . S
H2280 C2276 0.950 . S
C2281 C2279 1.390 . S
C2281 C2282 1.387 . S
C2281 H2284 0.950 . S
C2282 C2281 1.387 . S
C2282 C2285 1.387 . S
H2283 C2279 0.950 . S
H2284 C2281 0.950 . S
C2285 C2276 1.390 . S
C2285 H2278 0.950 . S
C2285 C2282 1.387 . S
C2286 C2287 1.387 . S
C2286 H2290 0.950 . S
C2286 C2295 1.390 . S
C2287 C2286 1.387 . S
C2287 C2289 1.387 . S
H2288 C2295 0.950 . S
C2289 C2287 1.387 . S
C2289 C2291 1.390 . S
C2289 H2293 0.950 . S
H2290 C2286 0.950 . S
C2291 C2289 1.390 . S
C2291 C2292 1.387 . S
C2291 H2294 0.950 . S
C2292 C2291 1.387 . S
C2292 C2295 1.387 . S
H2293 C2289 0.950 . S
H2294 C2291 0.950 . S
C2295 C2286 1.390 . S
C2295 H2288 0.950 . S
C2295 C2292 1.387 . S
C2296 C2297 1.387 . S
C2296 H2300 0.950 . S
C2296 C2305 1.390 . S
C2297 C2296 1.387 . S
C2297 C2299 1.387 . S
H2298 C2305 0.950 . S
C2299 C2297 1.387 . S
C2299 C2301 1.390 . S
C2299 H2303 0.950 . S
H2300 C2296 0.950 . S
C2301 C2299 1.390 . S
C2301 C2302 1.387 . S
C2301 H2304 0.950 . S
C2302 C2301 1.387 . S
C2302 C2305 1.387 . S
H2303 C2299 0.950 . S
H2304 C2301 0.950 . S
C2305 C2296 1.390 . S
C2305 H2298 0.950 . S
C2305 C2302 1.387 . S
C2306 C2307 1.387 . S
C2306 H2310 0.950 . S
C2306 C2315 1.390 1_556 S
C2307 C2306 1.387 . S
C2307 C2309 1.387 . S
H2308 C2315 0.950 . S
C2309 C2307 1.387 . S
C2309 C2311 1.390 1_556 S
C2309 H2313 0.950 . S
H2310 C2306 0.950 . S
C2311 C2309 1.390 1_554 S
C2311 C2312 1.387 . S
C2311 H2314 0.950 . S
C2312 C2311 1.387 . S
C2312 C2315 1.387 . S
H2313 C2309 0.950 . S
H2314 C2311 0.950 . S
C2315 C2306 1.390 1_554 S
C2315 H2308 0.950 . S
C2315 C2312 1.387 . S
C2316 C2317 1.387 . S
C2316 H2320 0.950 . S
C2316 C2325 1.390 . S
C2317 C2316 1.387 . S
C2317 C2319 1.387 . S
H2318 C2325 0.950 . S
C2319 C2317 1.387 . S
C2319 C2321 1.390 . S
C2319 H2323 0.950 . S
H2320 C2316 0.950 . S
C2321 C2319 1.390 . S
C2321 C2322 1.387 . S
C2321 H2324 0.950 . S
C2322 C2321 1.387 . S
C2322 C2325 1.387 . S
H2323 C2319 0.950 . S
H2324 C2321 0.950 . S
C2325 C2316 1.390 . S
C2325 H2318 0.950 . S
C2325 C2322 1.387 . S
C2326 C2327 1.387 . S
C2326 H2330 0.950 . S
C2326 C2335 1.390 . S
C2327 C2326 1.387 . S
C2327 C2329 1.387 . S
H2328 C2335 0.950 . S
C2329 C2327 1.387 . S
C2329 C2331 1.390 . S
C2329 H2333 0.950 . S
H2330 C2326 0.950 . S
C2331 C2329 1.390 . S
C2331 C2332 1.387 . S
C2331 H2334 0.950 . S
C2332 C2331 1.387 . S
C2332 C2335 1.387 . S
H2333 C2329 0.950 . S
H2334 C2331 0.950 . S
C2335 C2326 1.390 . S
C2335 H2328 0.950 . S
C2335 C2332 1.387 . S
C1697 C1469 1.670 . S
C1702 C29 1.703 . S
C1707 C82 1.323 1_655 S
C1712 C453 1.299 . S
C1717 C1363 1.672 . S
C1722 C135 1.704 . S
C1727 C188 1.326 . S
C1732 C559 1.302 . S
C1737 C241 1.704 . S
C1742 C1575 1.672 . S
C1747 C294 1.323 . S
C1752 C771 1.299 . S
C1757 C347 1.705 . S
C1762 C1681 1.672 . S
C1767 C400 1.326 1_655 S
C1772 C665 1.302 . S
C1777 C1045 2.001 . S
C1782 C462 2.040 . S
C1787 C38 1.443 . S
C1792 C506 1.441 . S
C1797 C939 2.001 . S
C1802 C568 2.041 . S
C1807 C612 1.441 . S
C1812 C144 1.442 . S
C1817 C1151 2.001 . S
C1822 C674 2.041 . S
C1827 C356 1.442 . S
C1832 C718 1.441 . S
C1837 C780 2.041 . S
C1842 C1257 2.001 . S
C1847 C250 1.441 . S
C1852 C824 1.441 . S
C1857 C877 1.703 . S
C1862 C621 1.670 . S
C1867 C930 1.323 . S
C1872 C1301 1.299 . S
C1877 C515 1.670 . S
C1882 C983 1.702 . S
C1887 C1407 1.302 . S
C1892 C1036 1.325 1_455 S
C1897 C727 1.672 . S
C1902 C1089 1.704 . S
C1907 C1619 1.302 . S
C1912 C1142 1.325 1_455 S
C1917 C833 1.671 . S
C1922 C1195 1.704 . S
C1927 C1248 1.323 . S
C1932 C1513 1.299 . S
C1937 C197 2.001 . S
C1942 C1310 2.040 . S
C1947 C1354 1.440 . S
C1952 C886 1.442 . S
C1957 C1416 2.041 . S
C1962 C91 2.002 . S
C1967 C1460 1.441 . S
C1972 C992 1.441 . S
C1977 C1522 2.041 . S
C1982 C303 2.001 . S
C1987 C1566 1.441 . S
C1992 C1204 1.441 . S
C1997 C1628 2.040 . S
C2002 C409 2.001 . S
C2007 C1672 1.441 . S
C2012 C1098 1.443 . S
C2017 C1294 1.630 . S
C2022 C39 1.663 . S
C2027 C92 2.374 . S
C2032 C516 2.335 . S
C2037 C1400 1.633 . S
C2042 C145 1.665 . S
C2047 C198 2.375 . S
C2052 C622 2.335 . S
C2057 C1506 1.632 . S
C2062 C251 1.664 . S
C2067 C304 2.373 . S
C2072 C728 2.334 . S
C2077 C1612 1.632 . S
C2082 C357 1.665 . S
C2087 C410 2.375 . S
C2092 C834 2.335 . S
C2097 C446 1.632 . S
C2102 C887 1.664 . S
C2107 C552 1.633 . S
C2112 C993 1.665 . S
C2117 C658 1.631 . S
C2122 C1099 1.664 . S
C2127 C764 1.633 . S
C2132 C1205 1.665 . S
C2137 C940 2.375 . S
C2142 C1364 2.336 . S
C2147 C1470 2.335 . S
C2152 C1046 2.374 . S
C2157 C1576 2.335 . S
C2162 C1152 2.375 . S
C2167 C1258 2.375 . S
C2172 C1682 2.335 . S
C2177 C22 1.582 . S
C2182 C234 1.582 . S
C2187 C75 1.748 . S
C2192 C287 1.748 . S
C2197 C340 1.580 . S
C2202 C128 1.580 . S
C2207 C181 1.749 . S
C2212 C393 1.749 . S
C2217 C675 1.939 . S
C2222 C463 1.939 . S
C2227 C711 1.856 . S
C2232 C499 1.856 . S
C2237 C569 1.939 . S
C2242 C781 1.939 . S
C2247 C605 1.856 . S
C2252 C817 1.856 . S
C2257 C1082 1.579 . S
C2262 C870 1.579 . S
C2267 C1135 1.747 . S
C2272 C923 1.747 . S
C2277 C976 1.582 . S
C2282 C1188 1.582 . S
C2287 C1241 1.747 . S
C2292 C1029 1.747 . S
C2297 C1523 1.939 . S
C2302 C1311 1.939 . S
C2307 C1347 1.857 . S
C2312 C1559 1.857 . S
C2317 C1629 1.939 . S
C2322 C1417 1.939 . S
C2327 C1453 1.857 . S
C2332 C1665 1.857 . S
