# Generated by pormake.
# Topology ukf, (4)-cn, num edge types: 1
# Building blocks:
#     Node 0, Type 0, BuildingBlock: TATPOV_clean_sbu_0, # of connection points: 4
#     Node 1, Type 0, BuildingBlock: TATPOV_clean_sbu_0, # of connection points: 4
#     Node 2, Type 0, BuildingBlock: TATPOV_clean_sbu_0, # of connection points: 4
#     Node 3, Type 0, BuildingBlock: TATPOV_clean_sbu_0, # of connection points: 4
#     Node 4, Type 0, BuildingBlock: TATPOV_clean_sbu_0, # of connection points: 4
#     Node 5, Type 0, BuildingBlock: TATPOV_clean_sbu_0, # of connection points: 4
#     Node 6, Type 0, BuildingBlock: TATPOV_clean_sbu_0, # of connection points: 4
#     Node 7, Type 0, BuildingBlock: TATPOV_clean_sbu_0, # of connection points: 4
#     Node 8, Type 0, BuildingBlock: TATPOV_clean_sbu_0, # of connection points: 4
#     Node 9, Type 0, BuildingBlock: TATPOV_clean_sbu_0, # of connection points: 4
#     Node 10, Type 0, BuildingBlock: TATPOV_clean_sbu_0, # of connection points: 4
#     Node 11, Type 0, BuildingBlock: TATPOV_clean_sbu_0, # of connection points: 4
#     Edge 12, Type (0, 0), BuildingBlock: CIFDUS_clean_linker_0, # of connection points: 2
#     Edge 13, Type (0, 0), BuildingBlock: CIFDUS_clean_linker_0, # of connection points: 2
#     Edge 14, Type (0, 0), BuildingBlock: CIFDUS_clean_linker_0, # of connection points: 2
#     Edge 15, Type (0, 0), BuildingBlock: CIFDUS_clean_linker_0, # of connection points: 2
#     Edge 16, Type (0, 0), BuildingBlock: CIFDUS_clean_linker_0, # of connection points: 2
#     Edge 17, Type (0, 0), BuildingBlock: CIFDUS_clean_linker_0, # of connection points: 2
#     Edge 18, Type (0, 0), BuildingBlock: CIFDUS_clean_linker_0, # of connection points: 2
#     Edge 19, Type (0, 0), BuildingBlock: CIFDUS_clean_linker_0, # of connection points: 2
#     Edge 20, Type (0, 0), BuildingBlock: CIFDUS_clean_linker_0, # of connection points: 2
#     Edge 21, Type (0, 0), BuildingBlock: CIFDUS_clean_linker_0, # of connection points: 2
#     Edge 22, Type (0, 0), BuildingBlock: CIFDUS_clean_linker_0, # of connection points: 2
#     Edge 23, Type (0, 0), BuildingBlock: CIFDUS_clean_linker_0, # of connection points: 2
#     Edge 24, Type (0, 0), BuildingBlock: CIFDUS_clean_linker_0, # of connection points: 2
#     Edge 25, Type (0, 0), BuildingBlock: CIFDUS_clean_linker_0, # of connection points: 2
#     Edge 26, Type (0, 0), BuildingBlock: CIFDUS_clean_linker_0, # of connection points: 2
#     Edge 27, Type (0, 0), BuildingBlock: CIFDUS_clean_linker_0, # of connection points: 2
#     Edge 28, Type (0, 0), BuildingBlock: CIFDUS_clean_linker_0, # of connection points: 2
#     Edge 29, Type (0, 0), BuildingBlock: CIFDUS_clean_linker_0, # of connection points: 2
#     Edge 30, Type (0, 0), BuildingBlock: CIFDUS_clean_linker_0, # of connection points: 2
#     Edge 31, Type (0, 0), BuildingBlock: CIFDUS_clean_linker_0, # of connection points: 2
#     Edge 32, Type (0, 0), BuildingBlock: CIFDUS_clean_linker_0, # of connection points: 2
#     Edge 33, Type (0, 0), BuildingBlock: CIFDUS_clean_linker_0, # of connection points: 2
#     Edge 34, Type (0, 0), BuildingBlock: CIFDUS_clean_linker_0, # of connection points: 2
#     Edge 35, Type (0, 0), BuildingBlock: CIFDUS_clean_linker_0, # of connection points: 2
# Relax obj value: 0.150
# Max RMSD: 0.164
# Mean RMSD: 0.164
data_MOF--net-ukf--node1-TATPOV_clean_sbu_0--edge1-CIFDUS_clean_linker_0
_symmetry_space_group_name_H-M    P1
_symmetry_Int_Tables_number       1
_symmetry_cell_setting            triclinic
loop_
_symmetry_equiv_pos_as_xyz
'x, y, z'
_cell_length_a     27.466036
_cell_length_b     27.702279
_cell_length_c     56.127255
_cell_angle_alpha  90.247187
_cell_angle_beta   89.739956
_cell_angle_gamma 119.17979
loop_
_atom_site_label
_atom_site_type_symbol
_atom_site_fract_x
_atom_site_fract_y
_atom_site_fract_z
_atom_type_partial_charge
Zn0 Zn 0.37728 0.23799 1.00823 0.0
Zn1 Zn 0.36864 0.20729 0.05307 0.0
O2 O 0.29386 0.15435 0.03603 0.0
O3 O 0.29764 0.18791 1.00021 0.0
O4 O 0.35572 0.18014 0.08757 0.0
O5 O 0.4067 0.31633 1.01806 0.0
O6 O 0.39417 0.29098 0.05573 0.0
C7 C 0.27126 0.15159 1.01583 0.0
C8 C 0.45267 0.19807 0.02001 0.0
O9 O 0.43354 0.19589 0.04099 0.0
O10 O 0.43304 0.21196 1.00261 0.0
C11 C 0.38025 0.21201 0.10514 0.0
O12 O 0.41588 0.26426 0.10104 0.0
C13 C 0.40994 0.32853 0.03993 0.0
Zn14 Zn 0.14796 0.39651 0.37364 0.0
Zn15 Zn 0.17427 0.40332 0.41803 0.0
O16 O 0.15855 0.32486 0.40638 0.0
O17 O 0.12867 0.31851 0.36961 0.0
O18 O 0.19439 0.40699 0.45307 0.0
O19 O 0.0894 0.41634 0.38029 0.0
O20 O 0.10992 0.42307 0.41837 0.0
C21 C 0.14066 0.29742 0.38697 0.0
C22 C 0.25967 0.48045 0.38133 0.0
O23 O 0.24627 0.46585 0.40297 0.0
O24 O 0.22475 0.45591 0.36489 0.0
C25 C 0.16618 0.36951 0.46825 0.0
O26 O 0.12151 0.32451 0.46117 0.0
C27 C 0.08123 0.42684 0.40139 0.0
Zn28 Zn 0.74347 0.12118 0.70234 0.0
Zn29 Zn 0.7565 0.13084 0.74801 0.0
O30 O 0.81825 0.11393 0.73475 0.0
O31 O 0.79879 0.09634 0.6967 0.0
O32 O 0.76779 0.13688 0.78397 0.0
O33 O 0.66369 0.06664 0.70552 0.0
O34 O 0.67284 0.0714 0.74447 0.0
C35 C 0.82886 0.10027 0.71435 0.0
C36 C 0.77279 0.2297 0.71776 0.0
O37 O 0.76927 0.20801 0.73815 0.0
O38 O 0.76571 0.20137 0.69906 0.0
C39 C 0.80576 0.18062 0.79369 0.0
O40 O 0.83937 0.22211 0.78004 0.0
C41 C 0.6424 0.05173 0.72601 0.0
Zn42 Zn 0.61461 0.73425 0.99705 0.0
Zn43 Zn 0.61212 0.76376 0.04307 0.0
O44 O 0.6883 0.82088 0.02892 0.0
O45 O 0.69074 0.79783 0.99151 0.0
O46 O 0.61719 0.78958 0.07751 0.0
O47 O 0.60453 0.66161 1.00849 0.0
O48 O 0.59415 0.68245 0.04543 0.0
C49 C 0.7135 0.83025 1.00888 0.0
C50 C 0.52743 0.76203 1.00747 0.0
O51 O 0.54779 0.77123 0.02844 0.0
O52 O 0.5478 0.74506 0.99128 0.0
C53 C 0.59502 0.75725 0.09515 0.0
O54 O 0.56577 0.70376 0.09132 0.0
C55 C 0.5942 0.6483 0.0302 0.0
Zn56 Zn 0.83267 0.61017 0.3581 0.0
Zn57 Zn 0.81862 0.61239 0.40305 0.0
O58 O 0.83495 0.68878 0.38859 0.0
O59 O 0.85774 0.68857 0.35106 0.0
O60 O 0.80745 0.62185 0.43835 0.0
O61 O 0.88608 0.58269 0.36233 0.0
O62 O 0.87789 0.58574 0.40123 0.0
C63 C 0.85019 0.71325 0.36845 0.0
C64 C 0.72274 0.53079 0.37179 0.0
O65 O 0.74247 0.54825 0.39253 0.0
O66 O 0.75247 0.55318 0.35357 0.0
C67 C 0.8196 0.5996 0.45545 0.0
O68 O 0.84185 0.56806 0.45068 0.0
C69 C 0.89789 0.57372 0.383 0.0
Zn70 Zn 0.20935 0.82155 0.68377 0.0
Zn71 Zn 0.1984 0.82415 0.72967 0.0
O72 O 0.14228 0.84567 0.71452 0.0
O73 O 0.16184 0.8549 0.67624 0.0
O74 O 0.18835 0.82683 0.76556 0.0
O75 O 0.29115 0.8677 0.68566 0.0
O76 O 0.28378 0.87447 0.7244 0.0
C77 C 0.13321 0.85703 0.69348 0.0
C78 C 0.16615 0.71471 0.70426 0.0
O79 O 0.17436 0.74235 0.72346 0.0
O80 O 0.17588 0.73891 0.68432 0.0
C81 C 0.21061 0.80629 0.77909 0.0
O82 O 0.23972 0.78523 0.76934 0.0
C83 C 0.31383 0.88581 0.70566 0.0
Zn84 Zn 0.73469 0.58303 0.69339 0.0
Zn85 Zn 0.75936 0.58737 0.64741 0.0
O86 O 0.81487 0.66537 0.66112 0.0
O87 O 0.79103 0.66139 0.69885 0.0
O88 O 0.7818 0.58936 0.61269 0.0
O89 O 0.65738 0.5635 0.68459 0.0
O90 O 0.67541 0.56486 0.64625 0.0
C91 C 0.82208 0.68825 0.68162 0.0
C92 C 0.76886 0.5046 0.68134 0.0
O93 O 0.7719 0.52503 0.66071 0.0
O94 O 0.75434 0.523 0.69909 0.0
C95 C 0.76804 0.61045 0.59567 0.0
O96 O 0.73804 0.63456 0.60033 0.0
C97 C 0.64129 0.5573 0.66316 0.0
Zn98 Zn 0.14232 0.75757 1.01322 0.0
Zn99 Zn 0.15766 0.77323 0.96762 0.0
O100 O 0.13677 0.83192 0.98033 0.0
O101 O 0.11079 0.80801 1.01747 0.0
O102 O 0.16912 0.78655 0.93183 0.0
O103 O 0.09431 0.67691 1.0084 0.0
O104 O 0.09961 0.68977 0.9696 0.0
C105 C 0.1181 0.83967 1.00008 0.0
C106 C 0.25435 0.7921 1.00071 0.0
O107 O 0.23434 0.78693 0.97979 0.0
O108 O 0.22391 0.78558 1.01873 0.0
C109 C 0.19143 0.76214 0.92068 0.0
O110 O 0.20591 0.73067 0.93281 0.0
C111 C 0.08163 0.65758 0.98752 0.0
Zn112 Zn 0.37783 0.13809 0.34329 0.0
Zn113 Zn 0.3739 0.16197 0.29735 0.0
O114 O 0.29877 0.14986 0.31196 0.0
O115 O 0.30209 0.12772 0.34934 0.0
O116 O 0.3733 0.18225 0.26256 0.0
O117 O 0.38791 0.07421 0.33374 0.0
O118 O 0.3897 0.09602 0.2959 0.0
C119 C 0.27694 0.13726 0.33276 0.0
C120 C 0.46203 0.24756 0.33107 0.0
O121 O 0.43972 0.23279 0.31057 0.0
O122 O 0.44374 0.21411 0.34837 0.0
C123 C 0.35381 0.14817 0.24528 0.0
O124 O 0.32958 0.09489 0.24968 0.0
C125 C 0.39318 0.06552 0.31199 0.0
Zn126 Zn 0.21183 0.37217 0.70552 0.0
Zn127 Zn 0.19674 0.35466 0.66055 0.0
O128 O 0.14568 0.2797 0.67792 0.0
O129 O 0.17094 0.2938 0.7155 0.0
O130 O 0.18111 0.33717 0.62524 0.0
O131 O 0.29365 0.41173 0.70158 0.0
O132 O 0.28325 0.39188 0.66332 0.0
C133 C 0.14074 0.26161 0.69924 0.0
C134 C 0.16212 0.43137 0.68573 0.0
O135 O 0.17071 0.41192 0.66651 0.0
O136 O 0.17306 0.41754 0.70561 0.0
C137 C 0.20757 0.37445 0.60974 0.0
O138 O 0.24582 0.42362 0.61695 0.0
C139 C 0.31479 0.41486 0.68121 0.0
Zn140 Zn 0.85951 0.23468 0.02875 0.0
Zn141 Zn 0.83923 0.22131 0.98187 0.0
O142 O 0.85662 0.15956 0.99215 0.0
O143 O 0.87702 0.17301 0.0303 0.0
O144 O 0.82882 0.21115 0.946 0.0
O145 O 0.91995 0.31198 0.02347 0.0
O146 O 0.90115 0.30275 0.9851 0.0
C147 C 0.87069 0.14544 1.01146 0.0
C148 C 0.74727 0.20884 1.01637 0.0
O149 O 0.7639 0.20873 0.99511 0.0
O150 O 0.78017 0.21866 0.03373 0.0
C151 C 0.79462 0.16526 0.93646 0.0
O152 O 0.76406 0.12283 0.95027 0.0
C153 C 0.92896 0.3323 1.00274 0.0
Zn154 Zn 0.60217 0.85432 0.33122 0.0
Zn155 Zn 0.59717 0.82139 0.28635 0.0
O156 O 0.67645 0.84214 0.29844 0.0
O157 O 0.68319 0.87798 0.33413 0.0
O158 O 0.59454 0.79563 0.25219 0.0
O159 O 0.57342 0.90477 0.32118 0.0
O160 O 0.57318 0.88135 0.28358 0.0
C161 C 0.70454 0.86385 0.31736 0.0
C162 C 0.52228 0.74024 0.32484 0.0
O163 O 0.53661 0.75165 0.30305 0.0
O164 O 0.54585 0.77685 0.34075 0.0
C165 C 0.61339 0.82851 0.23454 0.0
O166 O 0.63736 0.88204 0.23841 0.0
C167 C 0.56391 0.90887 0.29947 0.0
H168 H 0.13904 0.92312 0.96883 0.0
H169 H 0.09772 0.87536 0.04244 0.0
H170 H 0.13246 0.97129 0.05381 0.0
H171 H 0.19596 0.06884 0.04416 0.0
H172 H 0.23562 0.11676 0.97052 0.0
H173 H 0.17898 0.02114 0.95797 0.0
C174 C 0.1358 0.93342 0.98723 0.0
C175 C 0.11812 0.89235 1.00484 0.0
C176 C 0.15658 -0.01097 0.99381 0.0
C177 C 0.11266 0.90628 0.02851 0.0
C178 C 0.13285 0.96134 0.03513 0.0
C179 C 0.19062 0.05862 0.02533 0.0
C180 C 0.22166 0.09955 1.00843 0.0
C181 C 0.15839 0.00326 1.01816 0.0
C182 C 0.21312 0.08593 0.98403 0.0
C183 C 0.18098 0.03103 0.97677 0.0
H184 H 0.12518 0.24328 0.34496 0.0
H185 H 0.16808 0.23908 0.41858 0.0
H186 H 0.20245 0.17526 0.4081 0.0
H187 H 0.23869 0.13885 0.37721 0.0
H188 H 0.20853 0.15562 0.30303 0.0
H189 H 0.14969 0.19545 0.3146 0.0
C190 C 0.14076 0.22746 0.3589 0.0
C191 C 0.1453 0.24707 0.38248 0.0
C192 C 0.16355 0.19367 0.35251 0.0
C193 C 0.1648 0.22531 0.40027 0.0
C194 C 0.18481 0.18912 0.39423 0.0
C195 C 0.21817 0.14985 0.3635 0.0
C196 C 0.22907 0.1454 0.33922 0.0
C197 C 0.18733 0.17576 0.37024 0.0
C198 C 0.2015 0.15928 0.3218 0.0
C199 C 0.16813 0.18238 0.32843 0.0
H200 H 0.91293 0.12144 0.74574 0.0
H201 H 0.86605 0.08174 0.67196 0.0
H202 H 0.96317 0.11825 0.66072 0.0
H203 H 0.06067 0.18363 0.67057 0.0
H204 H 0.1078 0.22218 0.74437 0.0
H205 H 0.01189 0.16249 0.75674 0.0
C206 C 0.92371 0.11889 0.72734 0.0
C207 C 0.88252 0.10135 0.70964 0.0
C208 C 0.98001 0.14074 0.72083 0.0
C209 C 0.89709 0.09676 0.68595 0.0
C210 C 0.95282 0.11788 0.6794 0.0
C211 C 0.05041 0.17737 0.6894 0.0
C212 C 0.09085 0.20942 0.70639 0.0
C213 C -0.00524 0.1436 0.69648 0.0
C214 C 0.07718 0.19938 0.73077 0.0
C215 C 0.02208 0.16543 0.73794 0.0
H216 H 0.78313 0.90374 0.04168 0.0
H217 H 0.7546 0.87925 0.96594 0.0
H218 H 0.81351 0.97789 0.95919 0.0
H219 H 0.85316 0.07164 0.97578 0.0
H220 H 0.88119 0.09597 0.05159 0.0
H221 H 0.84406 -0.00281 0.05713 0.0
C222 C 0.79125 0.91979 0.02364 0.0
C223 C 0.76302 0.88459 1.00448 0.0
C224 C 0.82446 0.97678 0.01987 0.0
C225 C 0.77503 0.90562 0.98112 0.0
C226 C 0.80848 0.9622 0.97721 0.0
C227 C 0.85283 0.05559 0.99341 0.0
C228 C 0.86778 0.09085 1.01331 0.0
C229 C 0.83039 -0.00157 0.9966 0.0
C230 C 0.86857 0.06959 0.03596 0.0
C231 C 0.84702 0.01293 0.03922 0.0
H232 H 0.75252 0.87167 0.36037 0.0
H233 H 0.76918 0.84409 0.28572 0.0
H234 H 0.83072 0.8067 0.29573 0.0
H235 H 0.85983 0.76227 0.32564 0.0
H236 H 0.83075 0.77757 0.40027 0.0
H237 H 0.79534 0.84055 0.39035 0.0
C238 C 0.77093 0.85912 0.34618 0.0
C239 C 0.7552 0.8595 0.32232 0.0
C240 C 0.80331 0.83446 0.35217 0.0
C241 C 0.77995 0.84353 0.30422 0.0
C242 C 0.81482 0.82175 0.30997 0.0
C243 C 0.84719 0.78048 0.33986 0.0
C244 C 0.84653 0.76397 0.36365 0.0
C245 C 0.82376 0.81385 0.33392 0.0
C246 C 0.83089 0.78881 0.3818 0.0
C247 C 0.81025 0.82455 0.3761 0.0
H248 H 0.90155 0.75863 0.65038 0.0
H249 H 0.85715 0.73769 0.725 0.0
H250 H 0.9525 0.80351 0.73569 0.0
H251 H 0.0511 0.84559 0.72429 0.0
H252 H 0.0958 0.86734 0.64974 0.0
H253 H -0.002 0.82485 0.63876 0.0
C254 C 0.9123 0.76983 0.66892 0.0
C255 C 0.87288 0.7413 0.68685 0.0
C256 C 0.96765 0.80745 0.67508 0.0
C257 C 0.88705 0.75767 0.71077 0.0
C258 C 0.94178 0.79533 0.71699 0.0
C259 C 0.03967 0.84311 0.70567 0.0
C260 C 0.08048 0.8569 0.6879 0.0
C261 C 0.98309 0.81732 0.69938 0.0
C262 C 0.06506 0.85523 0.66386 0.0
C263 C 0.00895 0.83045 0.65749 0.0
H264 H 0.66702 0.19242 0.98393 0.0
H265 H 0.69922 0.20445 0.05957 0.0
H266 H 0.60842 0.19663 0.06756 0.0
H267 H 0.52288 0.19372 0.05301 0.0
H268 H 0.49187 0.18406 0.97733 0.0
H269 H 0.57862 0.18292 0.96955 0.0
C270 C 0.65403 0.19288 1.00217 0.0
C271 C 0.69026 0.19963 0.02106 0.0
C272 C 0.60186 0.18888 1.0067 0.0
C273 C 0.67248 0.19979 0.04462 0.0
C274 C 0.62046 0.19529 0.04925 0.0
C275 C 0.53466 0.19048 0.03485 0.0
C276 C 0.50112 0.18945 1.01582 0.0
C277 C 0.58522 0.19085 0.03042 0.0
C278 C 0.51711 0.18537 0.99235 0.0
C279 C 0.56683 0.18482 0.98784 0.0
H280 H 0.30455 0.51083 0.3372 0.0
H281 H 0.33863 0.55596 0.41143 0.0
H282 H 0.42531 0.63869 0.40042 0.0
H283 H 0.48744 0.7012 0.3696 0.0
H284 H 0.45238 0.65616 0.29538 0.0
H285 H 0.36997 0.56987 0.30661 0.0
C286 C 0.33104 0.53853 0.35103 0.0
C287 C 0.31478 0.52755 0.3751 0.0
C288 C 0.38045 0.58605 0.34458 0.0
C289 C 0.35002 0.56353 0.39277 0.0
C290 C 0.3995 0.61091 0.38648 0.0
C291 C 0.46206 0.67237 0.35585 0.0
C292 C 0.47578 0.68547 0.33165 0.0
C293 C 0.41452 0.62307 0.36242 0.0
C294 C 0.44271 0.64729 0.31411 0.0
C295 C 0.39548 0.598 0.32052 0.0
H296 H 0.79079 0.28908 0.67726 0.0
H297 H 0.77217 0.29742 0.75336 0.0
H298 H 0.77341 0.38576 0.74885 0.0
H299 H 0.77184 0.45621 0.72298 0.0
H300 H 0.78885 0.44651 0.64681 0.0
H301 H 0.79647 0.36298 0.65176 0.0
C302 C 0.78749 0.31037 0.69293 0.0
C303 C 0.78071 0.2863 0.7156 0.0
C304 C 0.78756 0.36065 0.69018 0.0
C305 C 0.77719 0.31487 0.7357 0.0
C306 C 0.77768 0.36528 0.73312 0.0
C307 C 0.77765 0.43613 0.70745 0.0
C308 C 0.7791 0.45729 0.68452 0.0
C309 C 0.78155 0.38786 0.71039 0.0
C310 C 0.78727 0.43101 0.66464 0.0
C311 C 0.79153 0.38316 0.66745 0.0
H312 H 0.31792 0.77328 0.96876 0.0
H313 H 0.31659 0.82546 0.04122 0.0
H314 H 0.40263 0.8233 0.04945 0.0
H315 H 0.47402 0.79945 0.03704 0.0
H316 H 0.47361 0.74445 0.96488 0.0
H317 H 0.39261 0.7548 0.95566 0.0
C318 C 0.33701 0.78515 0.98622 0.0
C319 C 0.31075 0.79925 1.00436 0.0
C320 C 0.3858 0.78254 0.99102 0.0
C321 C 0.33582 0.81414 0.02696 0.0
C322 C 0.38493 0.81273 0.03172 0.0
C323 C 0.45641 0.78996 1.01926 0.0
C324 C 0.47964 0.77068 1.00179 0.0
C325 C 0.40952 0.79567 1.01406 0.0
C326 C 0.45642 0.75898 0.97878 0.0
C327 C 0.41008 0.76497 0.97344 0.0
H328 H 0.50603 0.29794 0.37335 0.0
H329 H 0.52275 0.32449 0.29729 0.0
H330 H 0.60183 0.41673 0.30349 0.0
H331 H 0.66908 0.48731 0.33022 0.0
H332 H 0.65356 0.46097 0.40629 0.0
H333 H 0.57018 0.37135 0.40033 0.0
C334 C 0.52693 0.32388 0.35811 0.0
C335 C 0.50891 0.30405 0.33487 0.0
C336 C 0.57228 0.37693 0.3618 0.0
C337 C 0.53595 0.33856 0.31536 0.0
C338 C 0.58114 0.39134 0.31888 0.0
C339 C 0.64723 0.46232 0.34556 0.0
C340 C 0.66788 0.48067 0.36867 0.0
C341 C 0.60001 0.41061 0.34199 0.0
C342 C 0.63865 0.44787 0.38831 0.0
C343 C 0.59118 0.39645 0.38491 0.0
H344 H 0.14448 0.48257 0.72342 0.0
H345 H 0.14585 0.48009 0.64647 0.0
H346 H 0.13928 0.56485 0.64563 0.0
H347 H 0.14678 0.64579 0.66666 0.0
H348 H 0.15101 0.65078 0.74359 0.0
H349 H 0.14113 0.55833 0.74448 0.0
C350 C 0.14243 0.49998 0.70642 0.0
C351 C 0.14671 0.47556 0.68503 0.0
C352 C 0.1403 0.54947 0.70607 0.0
C353 C 0.14318 0.4983 0.6632 0.0
C354 C 0.1397 0.54693 0.66271 0.0
C355 C 0.14476 0.62643 0.68366 0.0
C356 C 0.15069 0.65561 0.70502 0.0
C357 C 0.14043 0.57391 0.68403 0.0
C358 C 0.14715 0.62952 0.72687 0.0
C359 C 0.14166 0.57671 0.7274 0.0
H360 H 0.41545 0.27187 0.14613 0.0
H361 H 0.3191 0.10456 0.12015 0.0
H362 H 0.3016 0.07013 0.16109 0.0
H363 H 0.31486 0.08744 0.20435 0.0
H364 H 0.41031 0.25525 0.22999 0.0
H365 H 0.42663 0.28934 0.18915 0.0
C366 C 0.39061 0.22782 0.14937 0.0
C367 C 0.36886 0.1909 0.13 0.0
C368 C 0.38044 0.20832 0.17295 0.0
C369 C 0.33644 0.134 0.13465 0.0
C370 C 0.32642 0.11424 0.15809 0.0
C371 C 0.33908 0.1315 0.20103 0.0
C372 C 0.36138 0.16862 0.22033 0.0
C373 C 0.34835 0.151 0.1774 0.0
C374 C 0.39255 0.22561 0.21559 0.0
C375 C 0.40204 0.24522 0.19219 0.0
H376 H 0.11667 0.29741 0.50508 0.0
H377 H 0.25247 0.46007 0.48902 0.0
H378 H 0.27768 0.47524 0.53107 0.0
H379 H 0.26012 0.44354 0.57256 0.0
H380 H 0.12475 0.28089 0.58885 0.0
H381 H 0.1007 0.26461 0.54661 0.0
C382 C 0.15189 0.33614 0.51074 0.0
C383 C 0.18243 0.37757 0.49381 0.0
C384 C 0.16627 0.3447 0.53505 0.0
C385 C 0.22808 0.42741 0.50157 0.0
C386 C 0.24256 0.4362 0.52566 0.0
C387 C 0.22541 0.40442 0.56691 0.0
C388 C 0.19422 0.36361 0.58396 0.0
C389 C 0.21176 0.39531 0.54258 0.0
C390 C 0.14953 0.3131 0.57619 0.0
C391 C 0.13567 0.30376 0.55201 0.0
H392 H 0.85604 0.24232 0.90286 0.0
H393 H 0.72224 0.07464 0.91068 0.0
H394 H 0.71409 0.06431 0.86743 0.0
H395 H 0.74462 0.10287 0.82724 0.0
H396 H 0.87898 0.27037 0.81956 0.0
H397 H 0.88715 0.28051 0.86276 0.0
C398 C 0.82502 0.2035 0.89514 0.0
C399 C 0.78975 0.1594 0.9101 0.0
C400 C 0.82065 0.19769 0.87019 0.0
C401 C 0.74996 0.10936 0.89968 0.0
C402 C 0.74524 0.10336 0.8749 0.0
C403 C 0.77577 0.14158 0.83499 0.0
C404 C 0.81109 0.18575 0.82006 0.0
C405 C 0.78034 0.14724 0.85996 0.0
C406 C 0.85122 0.23558 0.83052 0.0
C407 C 0.85592 0.2415 0.85528 0.0
H408 H 0.5605 0.69905 0.13658 0.0
H409 H 0.64798 0.86569 0.10932 0.0
H410 H 0.66183 0.90226 0.14988 0.0
H411 H 0.64891 0.88708 0.19314 0.0
H412 H 0.56199 0.7203 0.2203 0.0
H413 H 0.54839 0.68386 0.17977 0.0
C414 C 0.58254 0.7434 0.13946 0.0
C415 C 0.60303 0.77948 0.11983 0.0
C416 C 0.59061 0.76422 0.16286 0.0
C417 C 0.63169 0.83685 0.12402 0.0
C418 C 0.63967 0.85786 0.14725 0.0
C419 C 0.62708 0.84275 0.19023 0.0
C420 C 0.60652 0.80658 0.20984 0.0
C421 C 0.61933 0.82195 0.16681 0.0
C422 C 0.57835 0.74922 0.20563 0.0
C423 C 0.57045 0.72827 0.18241 0.0
H424 H 0.74629 0.65115 0.55525 0.0
H425 H 0.82533 0.55881 0.5799 0.0
H426 H 0.8487 0.54797 0.53896 0.0
H427 H 0.84528 0.56299 0.49602 0.0
H428 H 0.76671 0.65569 0.47131 0.0
H429 H 0.74479 0.66803 0.51232 0.0
C430 C 0.76877 0.62877 0.55171 0.0
C431 C 0.78383 0.60574 0.57073 0.0
C432 C 0.78214 0.6226 0.52804 0.0
C433 C 0.81309 0.57699 0.56569 0.0
C434 C 0.82647 0.57068 0.54224 0.0
C435 C 0.82343 0.58598 0.49957 0.0
C436 C 0.80757 0.60819 0.4805 0.0
C437 C 0.81095 0.59303 0.52325 0.0
C438 C 0.77946 0.63805 0.48555 0.0
C439 C 0.76683 0.64513 0.50905 0.0
H440 H 0.15645 0.81362 0.8887 0.0
H441 H 0.24733 0.72338 0.89361 0.0
H442 H 0.26181 0.73001 0.85069 0.0
H443 H 0.24792 0.75981 0.81164 0.0
H444 H 0.15613 0.84882 0.8058 0.0
H445 H 0.14293 0.84429 0.84907 0.0
C446 C 0.17957 0.79558 0.88038 0.0
C447 C 0.20067 0.76798 0.89448 0.0
C448 C 0.18757 0.79919 0.85546 0.0
C449 C 0.23041 0.74473 0.88332 0.0
C450 C 0.2388 0.74849 0.8587 0.0
C451 C 0.2251 0.77841 0.81976 0.0
C452 C 0.20308 0.80463 0.8054 0.0
C453 C 0.21741 0.77538 0.84459 0.0
C454 C 0.17354 0.82833 0.81637 0.0
C455 C 0.16596 0.82575 0.84114 0.0
H456 H 0.50974 0.5823 0.06013 0.0
H457 H 0.63706 0.58532 1.01385 0.0
H458 H 0.59356 0.48489 1.01571 0.0
H459 H 0.51208 0.39686 0.0249 0.0
H460 H 0.381 0.39035 0.06944 0.0
H461 H 0.43304 0.4917 0.07407 0.0
C462 C 0.52871 0.56085 0.05112 0.0
C463 C 0.57621 0.59072 0.03673 0.0
C464 C 0.50213 0.50273 0.05154 0.0
C465 C 0.60032 0.56286 0.02489 0.0
C466 C 0.57532 0.50554 0.02583 0.0
C467 C 0.49537 0.41773 0.0359 0.0
C468 C 0.44271 0.3871 0.04645 0.0
C469 C 0.525 0.47516 0.03816 0.0
C470 C 0.42148 0.41371 0.06105 0.0
C471 C 0.45113 0.47144 0.06359 0.0
H472 H 0.95643 0.56422 0.42119 0.0
H473 H 0.90355 0.50812 0.34906 0.0
H474 H 0.94844 0.45203 0.35027 0.0
H475 H 0.00629 0.42245 0.37004 0.0
H476 H 0.06929 0.48165 0.44057 0.0
H477 H 0.01553 0.53132 0.44206 0.0
C478 C 0.95502 0.53977 0.40581 0.0
C479 C 0.92742 0.54132 0.38495 0.0
C480 C 0.98221 0.50766 0.40636 0.0
C481 C 0.92544 0.50893 0.3652 0.0
C482 C 0.95072 0.47626 0.36587 0.0
C483 C 0.00825 0.44588 0.3859 0.0
C484 C 0.04222 0.44881 0.40504 0.0
C485 C 0.97972 0.47591 0.38614 0.0
C486 C 0.04333 0.47866 0.42556 0.0
C487 C 0.01306 0.50751 0.4263 0.0
H488 H 0.57208 0.00441 0.68953 0.0
H489 H 0.57492 0.01948 0.76613 0.0
H490 H 0.47241 0.96923 0.76695 0.0
H491 H 0.38184 0.92428 0.74515 0.0
H492 H 0.38471 0.91632 0.66818 0.0
H493 H 0.48533 0.96158 0.6684 0.0
C494 C 0.55065 -0.00333 0.70653 0.0
C495 C 0.58122 0.01588 0.72772 0.0
C496 C 0.49255 0.96965 0.70677 0.0
C497 C 0.55237 0.00496 0.74953 0.0
C498 C 0.4938 0.97663 0.74997 0.0
C499 C 0.40462 0.93285 0.72847 0.0
C500 C 0.37545 0.91691 0.7067 0.0
C501 C 0.46338 0.95951 0.7286 0.0
C502 C 0.40567 0.92806 0.68524 0.0
C503 C 0.46343 0.95383 0.68528 0.0
H504 H 0.57169 0.57154 0.69185 0.0
H505 H 0.57664 0.49637 0.62516 0.0
H506 H 0.47411 0.44712 0.62369 0.0
H507 H 0.38298 0.41786 0.64424 0.0
H508 H 0.38379 0.49162 0.71241 0.0
H509 H 0.48398 0.54823 0.71051 0.0
C510 C 0.55045 0.54486 0.6768 0.0
C511 C 0.58145 0.53694 0.65884 0.0
C512 C 0.49235 0.51551 0.6766 0.0
C513 C 0.55349 0.50311 0.63923 0.0
C514 C 0.49493 0.47452 0.63855 0.0
C515 C 0.40525 0.44649 0.65856 0.0
C516 C 0.37585 0.44953 0.67864 0.0
C517 C 0.46385 0.47901 0.65759 0.0
C518 C 0.40521 0.48733 0.69697 0.0
C519 C 0.46265 0.52019 0.69588 0.0
H520 H 0.08808 0.58522 1.01663 0.0
H521 H 0.01089 0.59462 0.9514 0.0
H522 H 0.96002 0.49298 0.9488 0.0
H523 H 0.93291 0.40168 0.96722 0.0
H524 H 0.01318 0.39649 0.03244 0.0
H525 H 0.06836 0.49668 0.03266 0.0
C526 C 0.05997 0.56513 1.00183 0.0
C527 C 0.05201 0.59703 0.98455 0.0
C528 C 0.03184 0.50756 1.00041 0.0
C529 C 0.01697 0.57062 0.96508 0.0
C530 C 0.98806 0.51269 0.96361 0.0
C531 C 0.96328 0.42256 0.98118 0.0
C532 C 0.96851 0.39178 0.99995 0.0
C533 C -0.00543 0.48068 0.98142 0.0
C534 C 0.00792 0.41927 1.01796 0.0
C535 C 0.0394 0.47656 1.01816 0.0
H536 H 0.46881 0.88867 0.31979 0.0
H537 H 0.58739 -0.00877 0.26667 0.0
H538 H 0.53816 0.04512 0.26275 0.0
H539 H 0.46835 0.06971 0.27893 0.0
H540 H 0.35293 0.96633 0.33306 0.0
H541 H 0.39288 0.90486 0.33169 0.0
C542 C 0.48338 0.92246 0.30713 0.0
C543 C 0.53189 0.93702 0.29386 0.0
C544 C 0.45526 0.95276 0.30516 0.0
C545 C 0.55017 0.9799 0.27716 0.0
C546 C 0.52213 0.0106 0.27501 0.0
C547 C 0.45102 0.03275 0.28982 0.0
C548 C 0.40811 0.02254 0.30621 0.0
C549 C 0.47553 -0.00161 0.28948 0.0
C550 C 0.38619 0.97498 0.32045 0.0
C551 C 0.40918 0.94006 0.31978 0.0
loop_
_geom_bond_atom_site_label_1
_geom_bond_atom_site_label_2
_geom_bond_distance
_geom_bond_site_symmetry_2
_ccdc_geom_bond_type
Zn0 O3 2.032 1_556 S
Zn0 O5 2.049 1_556 S
Zn0 O10 2.067 1_556 S
Zn1 O2 1.962 . S
Zn1 O4 1.986 . S
Zn1 O6 1.996 . S
Zn1 O9 1.943 . S
O2 Zn1 1.962 . S
O2 C7 1.254 . S
O3 Zn0 2.032 1_554 S
O3 C7 1.269 . S
O4 Zn1 1.986 . S
O4 C11 1.262 . S
O5 Zn0 2.049 1_554 S
O5 C13 1.260 . S
O6 Zn1 1.996 . S
O6 C13 1.257 . S
C7 O2 1.254 . S
C7 O3 1.269 . S
C8 O9 1.249 . S
C8 O10 1.270 . S
O9 Zn1 1.943 . S
O9 C8 1.249 . S
O10 Zn0 2.067 1_554 S
O10 C8 1.270 . S
C11 O4 1.262 . S
C11 O12 1.232 . S
O12 C11 1.232 . S
C13 O5 1.260 . S
C13 O6 1.257 . S
Zn14 O17 2.031 . S
Zn14 O19 2.049 . S
Zn14 O24 2.067 . S
Zn15 O16 1.962 . S
Zn15 O18 1.986 . S
Zn15 O20 1.996 . S
Zn15 O23 1.943 . S
O16 Zn15 1.962 . S
O16 C21 1.254 . S
O17 Zn14 2.031 . S
O17 C21 1.269 . S
O18 Zn15 1.986 . S
O18 C25 1.262 . S
O19 Zn14 2.049 . S
O19 C27 1.260 . S
O20 Zn15 1.996 . S
O20 C27 1.257 . S
C21 O16 1.254 . S
C21 O17 1.269 . S
C22 O23 1.249 . S
C22 O24 1.270 . S
O23 Zn15 1.943 . S
O23 C22 1.249 . S
O24 Zn14 2.067 . S
O24 C22 1.270 . S
C25 O18 1.262 . S
C25 O26 1.232 . S
O26 C25 1.232 . S
C27 O19 1.260 . S
C27 O20 1.257 . S
Zn28 O31 2.031 . S
Zn28 O33 2.049 . S
Zn28 O38 2.067 . S
Zn29 O30 1.962 . S
Zn29 O32 1.986 . S
Zn29 O34 1.996 . S
Zn29 O37 1.943 . S
O30 Zn29 1.962 . S
O30 C35 1.254 . S
O31 Zn28 2.031 . S
O31 C35 1.269 . S
O32 Zn29 1.986 . S
O32 C39 1.262 . S
O33 Zn28 2.049 . S
O33 C41 1.260 . S
O34 Zn29 1.996 . S
O34 C41 1.257 . S
C35 O30 1.254 . S
C35 O31 1.269 . S
C36 O37 1.249 . S
C36 O38 1.270 . S
O37 Zn29 1.943 . S
O37 C36 1.249 . S
O38 Zn28 2.067 . S
O38 C36 1.270 . S
C39 O32 1.262 . S
C39 O40 1.232 . S
O40 C39 1.232 . S
C41 O33 1.260 . S
C41 O34 1.257 . S
Zn42 O45 2.032 1_556 S
Zn42 O47 2.049 1_556 S
Zn42 O52 2.067 1_556 S
Zn43 O44 1.962 . S
Zn43 O46 1.986 . S
Zn43 O48 1.996 . S
Zn43 O51 1.943 . S
O44 Zn43 1.962 . S
O44 C49 1.254 . S
O45 Zn42 2.032 1_554 S
O45 C49 1.269 . S
O46 Zn43 1.986 . S
O46 C53 1.262 . S
O47 Zn42 2.049 1_554 S
O47 C55 1.260 . S
O48 Zn43 1.996 . S
O48 C55 1.257 . S
C49 O44 1.254 . S
C49 O45 1.269 . S
C50 O51 1.249 . S
C50 O52 1.270 . S
O51 Zn43 1.943 . S
O51 C50 1.249 . S
O52 Zn42 2.067 1_554 S
O52 C50 1.270 . S
C53 O46 1.262 . S
C53 O54 1.232 . S
O54 C53 1.232 . S
C55 O47 1.260 . S
C55 O48 1.257 . S
Zn56 O59 2.031 . S
Zn56 O61 2.049 . S
Zn56 O66 2.067 . S
Zn57 O58 1.962 . S
Zn57 O60 1.986 . S
Zn57 O62 1.996 . S
Zn57 O65 1.943 . S
O58 Zn57 1.962 . S
O58 C63 1.254 . S
O59 Zn56 2.031 . S
O59 C63 1.269 . S
O60 Zn57 1.986 . S
O60 C67 1.262 . S
O61 Zn56 2.049 . S
O61 C69 1.260 . S
O62 Zn57 1.996 . S
O62 C69 1.257 . S
C63 O58 1.254 . S
C63 O59 1.269 . S
C64 O65 1.249 . S
C64 O66 1.270 . S
O65 Zn57 1.943 . S
O65 C64 1.249 . S
O66 Zn56 2.067 . S
O66 C64 1.270 . S
C67 O60 1.262 . S
C67 O68 1.232 . S
O68 C67 1.232 . S
C69 O61 1.260 . S
C69 O62 1.257 . S
Zn70 O73 2.031 . S
Zn70 O75 2.049 . S
Zn70 O80 2.067 . S
Zn71 O72 1.962 . S
Zn71 O74 1.986 . S
Zn71 O76 1.996 . S
Zn71 O79 1.943 . S
O72 Zn71 1.962 . S
O72 C77 1.254 . S
O73 Zn70 2.031 . S
O73 C77 1.269 . S
O74 Zn71 1.986 . S
O74 C81 1.262 . S
O75 Zn70 2.049 . S
O75 C83 1.260 . S
O76 Zn71 1.996 . S
O76 C83 1.257 . S
C77 O72 1.254 . S
C77 O73 1.269 . S
C78 O79 1.249 . S
C78 O80 1.270 . S
O79 Zn71 1.943 . S
O79 C78 1.249 . S
O80 Zn70 2.067 . S
O80 C78 1.270 . S
C81 O74 1.262 . S
C81 O82 1.232 . S
O82 C81 1.232 . S
C83 O75 1.260 . S
C83 O76 1.257 . S
Zn84 O87 2.031 . S
Zn84 O89 2.049 . S
Zn84 O94 2.067 . S
Zn85 O86 1.962 . S
Zn85 O88 1.986 . S
Zn85 O90 1.996 . S
Zn85 O93 1.943 . S
O86 Zn85 1.962 . S
O86 C91 1.254 . S
O87 Zn84 2.031 . S
O87 C91 1.269 . S
O88 Zn85 1.986 . S
O88 C95 1.262 . S
O89 Zn84 2.049 . S
O89 C97 1.260 . S
O90 Zn85 1.996 . S
O90 C97 1.257 . S
C91 O86 1.254 . S
C91 O87 1.269 . S
C92 O93 1.249 . S
C92 O94 1.270 . S
O93 Zn85 1.943 . S
O93 C92 1.249 . S
O94 Zn84 2.067 . S
O94 C92 1.270 . S
C95 O88 1.262 . S
C95 O96 1.232 . S
O96 C95 1.232 . S
C97 O89 1.260 . S
C97 O90 1.257 . S
Zn98 O101 2.032 1_554 S
Zn98 O103 2.049 1_554 S
Zn98 O108 2.067 1_554 S
Zn99 O100 1.962 . S
Zn99 O102 1.986 . S
Zn99 O104 1.996 . S
Zn99 O107 1.943 . S
O100 Zn99 1.962 . S
O100 C105 1.254 . S
O101 Zn98 2.032 1_556 S
O101 C105 1.269 . S
O102 Zn99 1.986 . S
O102 C109 1.262 . S
O103 Zn98 2.049 1_556 S
O103 C111 1.260 . S
O104 Zn99 1.996 . S
O104 C111 1.257 . S
C105 O100 1.254 . S
C105 O101 1.269 . S
C106 O107 1.249 . S
C106 O108 1.270 . S
O107 Zn99 1.943 . S
O107 C106 1.249 . S
O108 Zn98 2.067 1_556 S
O108 C106 1.270 . S
C109 O102 1.262 . S
C109 O110 1.232 . S
O110 C109 1.232 . S
C111 O103 1.260 . S
C111 O104 1.257 . S
Zn112 O115 2.031 . S
Zn112 O117 2.049 . S
Zn112 O122 2.067 . S
Zn113 O114 1.962 . S
Zn113 O116 1.986 . S
Zn113 O118 1.996 . S
Zn113 O121 1.943 . S
O114 Zn113 1.962 . S
O114 C119 1.254 . S
O115 Zn112 2.031 . S
O115 C119 1.269 . S
O116 Zn113 1.986 . S
O116 C123 1.262 . S
O117 Zn112 2.049 . S
O117 C125 1.260 . S
O118 Zn113 1.996 . S
O118 C125 1.257 . S
C119 O114 1.254 . S
C119 O115 1.269 . S
C120 O121 1.249 . S
C120 O122 1.270 . S
O121 Zn113 1.943 . S
O121 C120 1.249 . S
O122 Zn112 2.067 . S
O122 C120 1.270 . S
C123 O116 1.262 . S
C123 O124 1.232 . S
O124 C123 1.232 . S
C125 O117 1.260 . S
C125 O118 1.257 . S
Zn126 O129 2.031 . S
Zn126 O131 2.049 . S
Zn126 O136 2.067 . S
Zn127 O128 1.962 . S
Zn127 O130 1.986 . S
Zn127 O132 1.996 . S
Zn127 O135 1.943 . S
O128 Zn127 1.962 . S
O128 C133 1.254 . S
O129 Zn126 2.031 . S
O129 C133 1.269 . S
O130 Zn127 1.986 . S
O130 C137 1.262 . S
O131 Zn126 2.049 . S
O131 C139 1.260 . S
O132 Zn127 1.996 . S
O132 C139 1.257 . S
C133 O128 1.254 . S
C133 O129 1.269 . S
C134 O135 1.249 . S
C134 O136 1.270 . S
O135 Zn127 1.943 . S
O135 C134 1.249 . S
O136 Zn126 2.067 . S
O136 C134 1.270 . S
C137 O130 1.262 . S
C137 O138 1.232 . S
O138 C137 1.232 . S
C139 O131 1.260 . S
C139 O132 1.257 . S
Zn140 O143 2.032 1_554 S
Zn140 O145 2.049 1_554 S
Zn140 O150 2.067 1_554 S
Zn141 O142 1.962 . S
Zn141 O144 1.986 . S
Zn141 O146 1.996 . S
Zn141 O149 1.943 . S
O142 Zn141 1.962 . S
O142 C147 1.254 . S
O143 Zn140 2.032 1_556 S
O143 C147 1.269 . S
O144 Zn141 1.986 . S
O144 C151 1.262 . S
O145 Zn140 2.049 1_556 S
O145 C153 1.260 . S
O146 Zn141 1.996 . S
O146 C153 1.257 . S
C147 O142 1.254 . S
C147 O143 1.269 . S
C148 O149 1.249 . S
C148 O150 1.270 . S
O149 Zn141 1.943 . S
O149 C148 1.249 . S
O150 Zn140 2.067 1_556 S
O150 C148 1.270 . S
C151 O144 1.262 . S
C151 O152 1.232 . S
O152 C151 1.232 . S
C153 O145 1.260 . S
C153 O146 1.257 . S
Zn154 O157 2.031 . S
Zn154 O159 2.049 . S
Zn154 O164 2.067 . S
Zn155 O156 1.962 . S
Zn155 O158 1.986 . S
Zn155 O160 1.996 . S
Zn155 O163 1.943 . S
O156 Zn155 1.962 . S
O156 C161 1.254 . S
O157 Zn154 2.031 . S
O157 C161 1.269 . S
O158 Zn155 1.986 . S
O158 C165 1.262 . S
O159 Zn154 2.049 . S
O159 C167 1.260 . S
O160 Zn155 1.996 . S
O160 C167 1.257 . S
C161 O156 1.254 . S
C161 O157 1.269 . S
C162 O163 1.249 . S
C162 O164 1.270 . S
O163 Zn155 1.943 . S
O163 C162 1.249 . S
O164 Zn154 2.067 . S
O164 C162 1.270 . S
C165 O158 1.262 . S
C165 O166 1.232 . S
O166 C165 1.232 . S
C167 O159 1.260 . S
C167 O160 1.257 . S
H168 C174 0.930 . S
H169 C177 0.926 1_554 S
H170 C178 0.930 . S
H171 C179 0.930 . S
H172 C182 0.926 1_556 S
H173 C183 0.930 . S
C174 H168 0.930 . S
C174 C175 1.355 . S
C174 C176 1.415 . S
C175 C174 1.355 . S
C175 C177 1.445 . S
C176 C174 1.415 . S
C176 C181 1.425 1_566 S
C176 C183 1.409 1_565 S
C177 H169 0.926 1_556 S
C177 C175 1.445 . S
C177 C178 1.343 1_556 S
C178 H170 0.930 . S
C178 C177 1.343 1_554 S
C178 C181 1.409 1_565 S
C179 H171 0.930 . S
C179 C180 1.355 . S
C179 C181 1.415 . S
C180 C179 1.355 . S
C180 C182 1.445 . S
C181 C176 1.425 1_544 S
C181 C178 1.409 1_545 S
C181 C179 1.415 . S
C182 H172 0.926 1_554 S
C182 C180 1.445 . S
C182 C183 1.343 1_554 S
C183 H173 0.930 . S
C183 C176 1.409 1_545 S
C183 C182 1.343 1_556 S
H184 C190 0.930 . S
H185 C193 0.930 . S
H186 C194 0.930 . S
H187 C195 0.930 . S
H188 C198 0.930 . S
H189 C199 0.930 . S
C190 H184 0.930 . S
C190 C191 1.355 . S
C190 C192 1.415 . S
C191 C190 1.355 . S
C191 C193 1.419 . S
C192 C190 1.415 . S
C192 C197 1.425 . S
C192 C199 1.409 . S
C193 H185 0.930 . S
C193 C191 1.419 . S
C193 C194 1.362 . S
C194 H186 0.930 . S
C194 C193 1.362 . S
C194 C197 1.409 . S
C195 H187 0.930 . S
C195 C196 1.355 . S
C195 C197 1.415 . S
C196 C195 1.355 . S
C196 C198 1.419 . S
C197 C192 1.425 . S
C197 C194 1.409 . S
C197 C195 1.415 . S
C198 H188 0.930 . S
C198 C196 1.419 . S
C198 C199 1.362 . S
C199 H189 0.930 . S
C199 C192 1.409 . S
C199 C198 1.362 . S
H200 C206 0.930 . S
H201 C209 0.930 . S
H202 C210 0.930 . S
H203 C211 0.930 . S
H204 C214 0.930 . S
H205 C215 0.930 . S
C206 H200 0.930 . S
C206 C207 1.355 . S
C206 C208 1.415 . S
C207 C206 1.355 . S
C207 C209 1.419 . S
C208 C206 1.415 . S
C208 C213 1.425 1_655 S
C208 C215 1.409 1_655 S
C209 H201 0.930 . S
C209 C207 1.419 . S
C209 C210 1.362 . S
C210 H202 0.930 . S
C210 C209 1.362 . S
C210 C213 1.409 1_655 S
C211 H203 0.930 . S
C211 C212 1.355 . S
C211 C213 1.415 . S
C212 C211 1.355 . S
C212 C214 1.419 . S
C213 C208 1.425 1_455 S
C213 C210 1.409 1_455 S
C213 C211 1.415 . S
C214 H204 0.930 . S
C214 C212 1.419 . S
C214 C215 1.362 . S
C215 H205 0.930 . S
C215 C208 1.409 1_455 S
C215 C214 1.362 . S
H216 C222 0.930 . S
H217 C225 0.930 . S
H218 C226 0.930 . S
H219 C227 0.930 . S
H220 C230 0.930 . S
H221 C231 0.930 . S
C222 H216 0.930 . S
C222 C223 1.355 . S
C222 C224 1.415 . S
C223 C222 1.355 . S
C223 C225 1.419 1_554 S
C224 C222 1.415 . S
C224 C229 1.425 1_564 S
C224 C231 1.409 1_565 S
C225 H217 0.930 . S
C225 C223 1.419 1_556 S
C225 C226 1.362 . S
C226 H218 0.930 . S
C226 C225 1.362 . S
C226 C229 1.409 1_565 S
C227 H219 0.930 . S
C227 C228 1.355 . S
C227 C229 1.415 . S
C228 C227 1.355 . S
C228 C230 1.419 1_556 S
C229 C224 1.425 1_546 S
C229 C226 1.409 1_545 S
C229 C227 1.415 . S
C230 H220 0.930 . S
C230 C228 1.419 1_554 S
C230 C231 1.362 . S
C231 H221 0.930 . S
C231 C224 1.409 1_545 S
C231 C230 1.362 . S
H232 C238 0.930 . S
H233 C241 0.930 . S
H234 C242 0.930 . S
H235 C243 0.930 . S
H236 C246 0.930 . S
H237 C247 0.930 . S
C238 H232 0.930 . S
C238 C239 1.355 . S
C238 C240 1.415 . S
C239 C238 1.355 . S
C239 C241 1.419 . S
C240 C238 1.415 . S
C240 C245 1.425 . S
C240 C247 1.409 . S
C241 H233 0.930 . S
C241 C239 1.419 . S
C241 C242 1.362 . S
C242 H234 0.930 . S
C242 C241 1.362 . S
C242 C245 1.409 . S
C243 H235 0.930 . S
C243 C244 1.355 . S
C243 C245 1.415 . S
C244 C243 1.355 . S
C244 C246 1.419 . S
C245 C240 1.425 . S
C245 C242 1.409 . S
C245 C243 1.415 . S
C246 H236 0.930 . S
C246 C244 1.419 . S
C246 C247 1.362 . S
C247 H237 0.930 . S
C247 C240 1.409 . S
C247 C246 1.362 . S
H248 C254 0.930 . S
H249 C257 0.930 . S
H250 C258 0.930 . S
H251 C259 0.930 . S
H252 C262 0.930 . S
H253 C263 0.930 . S
C254 H248 0.930 . S
C254 C255 1.355 . S
C254 C256 1.415 . S
C255 C254 1.355 . S
C255 C257 1.419 . S
C256 C254 1.415 . S
C256 C261 1.425 1_655 S
C256 C263 1.409 1_655 S
C257 H249 0.930 . S
C257 C255 1.419 . S
C257 C258 1.362 . S
C258 H250 0.930 . S
C258 C257 1.362 . S
C258 C261 1.409 1_655 S
C259 H251 0.930 . S
C259 C260 1.355 . S
C259 C261 1.415 . S
C260 C259 1.355 . S
C260 C262 1.419 . S
C261 C256 1.425 1_455 S
C261 C258 1.409 1_455 S
C261 C259 1.415 . S
C262 H252 0.930 . S
C262 C260 1.419 . S
C262 C263 1.362 . S
C263 H253 0.930 . S
C263 C256 1.409 1_455 S
C263 C262 1.362 . S
H264 C270 0.930 . S
H265 C273 0.930 . S
H266 C274 0.930 . S
H267 C275 0.930 . S
H268 C278 0.930 . S
H269 C279 0.930 . S
C270 H264 0.930 . S
C270 C271 1.355 . S
C270 C272 1.415 . S
C271 C270 1.355 . S
C271 C273 1.419 1_556 S
C272 C270 1.415 . S
C272 C277 1.425 1_556 S
C272 C279 1.409 . S
C273 H265 0.930 . S
C273 C271 1.419 1_554 S
C273 C274 1.362 . S
C274 H266 0.930 . S
C274 C273 1.362 . S
C274 C277 1.409 . S
C275 H267 0.930 . S
C275 C276 1.355 . S
C275 C277 1.415 . S
C276 C275 1.355 . S
C276 C278 1.419 1_554 S
C277 C272 1.425 1_554 S
C277 C274 1.409 . S
C277 C275 1.415 . S
C278 H268 0.930 . S
C278 C276 1.419 1_556 S
C278 C279 1.362 . S
C279 H269 0.930 . S
C279 C272 1.409 . S
C279 C278 1.362 . S
H280 C286 0.930 . S
H281 C289 0.930 . S
H282 C290 0.930 . S
H283 C291 0.930 . S
H284 C294 0.930 . S
H285 C295 0.930 . S
C286 H280 0.930 . S
C286 C287 1.355 . S
C286 C288 1.415 . S
C287 C286 1.355 . S
C287 C289 1.419 . S
C288 C286 1.415 . S
C288 C293 1.425 . S
C288 C295 1.409 . S
C289 H281 0.930 . S
C289 C287 1.419 . S
C289 C290 1.362 . S
C290 H282 0.930 . S
C290 C289 1.362 . S
C290 C293 1.409 . S
C291 H283 0.930 . S
C291 C292 1.355 . S
C291 C293 1.415 . S
C292 C291 1.355 . S
C292 C294 1.419 . S
C293 C288 1.425 . S
C293 C290 1.409 . S
C293 C291 1.415 . S
C294 H284 0.930 . S
C294 C292 1.419 . S
C294 C295 1.362 . S
C295 H285 0.930 . S
C295 C288 1.409 . S
C295 C294 1.362 . S
H296 C302 0.930 . S
H297 C305 0.930 . S
H298 C306 0.930 . S
H299 C307 0.930 . S
H300 C310 0.930 . S
H301 C311 0.930 . S
C302 H296 0.930 . S
C302 C303 1.355 . S
C302 C304 1.415 . S
C303 C302 1.355 . S
C303 C305 1.419 . S
C304 C302 1.415 . S
C304 C309 1.425 . S
C304 C311 1.409 . S
C305 H297 0.930 . S
C305 C303 1.419 . S
C305 C306 1.362 . S
C306 H298 0.930 . S
C306 C305 1.362 . S
C306 C309 1.409 . S
C307 H299 0.930 . S
C307 C308 1.355 . S
C307 C309 1.415 . S
C308 C307 1.355 . S
C308 C310 1.419 . S
C309 C304 1.425 . S
C309 C306 1.409 . S
C309 C307 1.415 . S
C310 H300 0.930 . S
C310 C308 1.419 . S
C310 C311 1.362 . S
C311 H301 0.930 . S
C311 C304 1.409 . S
C311 C310 1.362 . S
H312 C318 0.930 . S
H313 C321 0.930 . S
H314 C322 0.930 . S
H315 C323 0.930 . S
H316 C326 0.930 . S
H317 C327 0.930 . S
C318 H312 0.930 . S
C318 C319 1.355 . S
C318 C320 1.415 . S
C319 C318 1.355 . S
C319 C321 1.419 1_556 S
C320 C318 1.415 . S
C320 C325 1.425 1_556 S
C320 C327 1.409 . S
C321 H313 0.930 . S
C321 C319 1.419 1_554 S
C321 C322 1.362 . S
C322 H314 0.930 . S
C322 C321 1.362 . S
C322 C325 1.409 . S
C323 H315 0.930 . S
C323 C324 1.355 . S
C323 C325 1.415 . S
C324 C323 1.355 . S
C324 C326 1.419 1_554 S
C325 C320 1.425 1_554 S
C325 C322 1.409 . S
C325 C323 1.415 . S
C326 H316 0.930 . S
C326 C324 1.419 1_556 S
C326 C327 1.362 . S
C327 H317 0.930 . S
C327 C320 1.409 . S
C327 C326 1.362 . S
H328 C334 0.930 . S
H329 C337 0.930 . S
H330 C338 0.930 . S
H331 C339 0.930 . S
H332 C342 0.930 . S
H333 C343 0.930 . S
C334 H328 0.930 . S
C334 C335 1.355 . S
C334 C336 1.415 . S
C335 C334 1.355 . S
C335 C337 1.419 . S
C336 C334 1.415 . S
C336 C341 1.425 . S
C336 C343 1.409 . S
C337 H329 0.930 . S
C337 C335 1.419 . S
C337 C338 1.362 . S
C338 H330 0.930 . S
C338 C337 1.362 . S
C338 C341 1.409 . S
C339 H331 0.930 . S
C339 C340 1.355 . S
C339 C341 1.415 . S
C340 C339 1.355 . S
C340 C342 1.419 . S
C341 C336 1.425 . S
C341 C338 1.409 . S
C341 C339 1.415 . S
C342 H332 0.930 . S
C342 C340 1.419 . S
C342 C343 1.362 . S
C343 H333 0.930 . S
C343 C336 1.409 . S
C343 C342 1.362 . S
H344 C350 0.930 . S
H345 C353 0.930 . S
H346 C354 0.930 . S
H347 C355 0.930 . S
H348 C358 0.930 . S
H349 C359 0.930 . S
C350 H344 0.930 . S
C350 C351 1.355 . S
C350 C352 1.415 . S
C351 C350 1.355 . S
C351 C353 1.419 . S
C352 C350 1.415 . S
C352 C357 1.425 . S
C352 C359 1.409 . S
C353 H345 0.930 . S
C353 C351 1.419 . S
C353 C354 1.362 . S
C354 H346 0.930 . S
C354 C353 1.362 . S
C354 C357 1.409 . S
C355 H347 0.930 . S
C355 C356 1.355 . S
C355 C357 1.415 . S
C356 C355 1.355 . S
C356 C358 1.419 . S
C357 C352 1.425 . S
C357 C354 1.409 . S
C357 C355 1.415 . S
C358 H348 0.930 . S
C358 C356 1.419 . S
C358 C359 1.362 . S
C359 H349 0.930 . S
C359 C352 1.409 . S
C359 C358 1.362 . S
H360 C366 0.930 . S
H361 C369 0.930 . S
H362 C370 0.930 . S
H363 C371 0.930 . S
H364 C374 0.930 . S
H365 C375 0.930 . S
C366 H360 0.930 . S
C366 C367 1.355 . S
C366 C368 1.415 . S
C367 C366 1.355 . S
C367 C369 1.419 . S
C368 C366 1.415 . S
C368 C373 1.425 . S
C368 C375 1.409 . S
C369 H361 0.930 . S
C369 C367 1.419 . S
C369 C370 1.362 . S
C370 H362 0.930 . S
C370 C369 1.362 . S
C370 C373 1.409 . S
C371 H363 0.930 . S
C371 C372 1.355 . S
C371 C373 1.415 . S
C372 C371 1.355 . S
C372 C374 1.419 . S
C373 C368 1.425 . S
C373 C370 1.409 . S
C373 C371 1.415 . S
C374 H364 0.930 . S
C374 C372 1.419 . S
C374 C375 1.362 . S
C375 H365 0.930 . S
C375 C368 1.409 . S
C375 C374 1.362 . S
H376 C382 0.930 . S
H377 C385 0.930 . S
H378 C386 0.930 . S
H379 C387 0.930 . S
H380 C390 0.930 . S
H381 C391 0.930 . S
C382 H376 0.930 . S
C382 C383 1.355 . S
C382 C384 1.415 . S
C383 C382 1.355 . S
C383 C385 1.419 . S
C384 C382 1.415 . S
C384 C389 1.425 . S
C384 C391 1.409 . S
C385 H377 0.930 . S
C385 C383 1.419 . S
C385 C386 1.362 . S
C386 H378 0.930 . S
C386 C385 1.362 . S
C386 C389 1.409 . S
C387 H379 0.930 . S
C387 C388 1.355 . S
C387 C389 1.415 . S
C388 C387 1.355 . S
C388 C390 1.419 . S
C389 C384 1.425 . S
C389 C386 1.409 . S
C389 C387 1.415 . S
C390 H380 0.930 . S
C390 C388 1.419 . S
C390 C391 1.362 . S
C391 H381 0.930 . S
C391 C384 1.409 . S
C391 C390 1.362 . S
H392 C398 0.930 . S
H393 C401 0.930 . S
H394 C402 0.930 . S
H395 C403 0.930 . S
H396 C406 0.930 . S
H397 C407 0.930 . S
C398 H392 0.930 . S
C398 C399 1.355 . S
C398 C400 1.415 . S
C399 C398 1.355 . S
C399 C401 1.419 . S
C400 C398 1.415 . S
C400 C405 1.425 . S
C400 C407 1.409 . S
C401 H393 0.930 . S
C401 C399 1.419 . S
C401 C402 1.362 . S
C402 H394 0.930 . S
C402 C401 1.362 . S
C402 C405 1.409 . S
C403 H395 0.930 . S
C403 C404 1.355 . S
C403 C405 1.415 . S
C404 C403 1.355 . S
C404 C406 1.419 . S
C405 C400 1.425 . S
C405 C402 1.409 . S
C405 C403 1.415 . S
C406 H396 0.930 . S
C406 C404 1.419 . S
C406 C407 1.362 . S
C407 H397 0.930 . S
C407 C400 1.409 . S
C407 C406 1.362 . S
H408 C414 0.930 . S
H409 C417 0.930 . S
H410 C418 0.930 . S
H411 C419 0.930 . S
H412 C422 0.930 . S
H413 C423 0.930 . S
C414 H408 0.930 . S
C414 C415 1.355 . S
C414 C416 1.415 . S
C415 C414 1.355 . S
C415 C417 1.419 . S
C416 C414 1.415 . S
C416 C421 1.425 . S
C416 C423 1.409 . S
C417 H409 0.930 . S
C417 C415 1.419 . S
C417 C418 1.362 . S
C418 H410 0.930 . S
C418 C417 1.362 . S
C418 C421 1.409 . S
C419 H411 0.930 . S
C419 C420 1.355 . S
C419 C421 1.415 . S
C420 C419 1.355 . S
C420 C422 1.419 . S
C421 C416 1.425 . S
C421 C418 1.409 . S
C421 C419 1.415 . S
C422 H412 0.930 . S
C422 C420 1.419 . S
C422 C423 1.362 . S
C423 H413 0.930 . S
C423 C416 1.409 . S
C423 C422 1.362 . S
H424 C430 0.930 . S
H425 C433 0.930 . S
H426 C434 0.930 . S
H427 C435 0.930 . S
H428 C438 0.930 . S
H429 C439 0.930 . S
C430 H424 0.930 . S
C430 C431 1.355 . S
C430 C432 1.415 . S
C431 C430 1.355 . S
C431 C433 1.419 . S
C432 C430 1.415 . S
C432 C437 1.425 . S
C432 C439 1.409 . S
C433 H425 0.930 . S
C433 C431 1.419 . S
C433 C434 1.362 . S
C434 H426 0.930 . S
C434 C433 1.362 . S
C434 C437 1.409 . S
C435 H427 0.930 . S
C435 C436 1.355 . S
C435 C437 1.415 . S
C436 C435 1.355 . S
C436 C438 1.419 . S
C437 C432 1.425 . S
C437 C434 1.409 . S
C437 C435 1.415 . S
C438 H428 0.930 . S
C438 C436 1.419 . S
C438 C439 1.362 . S
C439 H429 0.930 . S
C439 C432 1.409 . S
C439 C438 1.362 . S
H440 C446 0.930 . S
H441 C449 0.930 . S
H442 C450 0.930 . S
H443 C451 0.930 . S
H444 C454 0.930 . S
H445 C455 0.930 . S
C446 H440 0.930 . S
C446 C447 1.355 . S
C446 C448 1.415 . S
C447 C446 1.355 . S
C447 C449 1.419 . S
C448 C446 1.415 . S
C448 C453 1.425 . S
C448 C455 1.409 . S
C449 H441 0.930 . S
C449 C447 1.419 . S
C449 C450 1.362 . S
C450 H442 0.930 . S
C450 C449 1.362 . S
C450 C453 1.409 . S
C451 H443 0.930 . S
C451 C452 1.355 . S
C451 C453 1.415 . S
C452 C451 1.355 . S
C452 C454 1.419 . S
C453 C448 1.425 . S
C453 C450 1.409 . S
C453 C451 1.415 . S
C454 H444 0.930 . S
C454 C452 1.419 . S
C454 C455 1.362 . S
C455 H445 0.930 . S
C455 C448 1.409 . S
C455 C454 1.362 . S
H456 C462 0.930 . S
H457 C465 0.930 . S
H458 C466 0.930 1_556 S
H459 C467 0.930 . S
H460 C470 0.930 . S
H461 C471 0.930 . S
C462 H456 0.930 . S
C462 C463 1.355 . S
C462 C464 1.415 . S
C463 C462 1.355 . S
C463 C465 1.419 . S
C464 C462 1.415 . S
C464 C469 1.425 . S
C464 C471 1.409 . S
C465 H457 0.930 . S
C465 C463 1.419 . S
C465 C466 1.362 . S
C466 H458 0.930 1_554 S
C466 C465 1.362 . S
C466 C469 1.409 . S
C467 H459 0.930 . S
C467 C468 1.355 . S
C467 C469 1.415 . S
C468 C467 1.355 . S
C468 C470 1.419 . S
C469 C464 1.425 . S
C469 C466 1.409 . S
C469 C467 1.415 . S
C470 H460 0.930 . S
C470 C468 1.419 . S
C470 C471 1.362 . S
C471 H461 0.930 . S
C471 C464 1.409 . S
C471 C470 1.362 . S
H472 C478 0.930 . S
H473 C481 0.930 . S
H474 C482 0.930 . S
H475 C483 0.930 . S
H476 C486 0.930 . S
H477 C487 0.930 . S
C478 H472 0.930 . S
C478 C479 1.355 1_455 S
C478 C480 1.415 . S
C479 C478 1.355 1_655 S
C479 C481 1.419 . S
C480 C478 1.415 . S
C480 C485 1.425 1_455 S
C480 C487 1.409 . S
C481 H473 0.930 . S
C481 C479 1.419 . S
C481 C482 1.362 . S
C482 H474 0.930 . S
C482 C481 1.362 . S
C482 C485 1.409 . S
C483 H475 0.930 . S
C483 C484 1.355 1_655 S
C483 C485 1.415 . S
C484 C483 1.355 1_455 S
C484 C486 1.419 . S
C485 C480 1.425 1_655 S
C485 C482 1.409 . S
C485 C483 1.415 . S
C486 H476 0.930 . S
C486 C484 1.419 . S
C486 C487 1.362 . S
C487 H477 0.930 . S
C487 C480 1.409 . S
C487 C486 1.362 . S
H488 C494 0.930 . S
H489 C497 0.930 . S
H490 C498 0.930 . S
H491 C499 0.930 . S
H492 C502 0.930 . S
H493 C503 0.930 . S
C494 H488 0.930 . S
C494 C495 1.355 1_565 S
C494 C496 1.415 . S
C495 C494 1.355 1_545 S
C495 C497 1.419 . S
C496 C494 1.415 . S
C496 C501 1.425 1_565 S
C496 C503 1.409 . S
C497 H489 0.930 . S
C497 C495 1.419 . S
C497 C498 1.362 . S
C498 H490 0.930 . S
C498 C497 1.362 . S
C498 C501 1.409 . S
C499 H491 0.930 . S
C499 C500 1.355 1_545 S
C499 C501 1.415 . S
C500 C499 1.355 1_565 S
C500 C502 1.419 . S
C501 C496 1.425 1_545 S
C501 C498 1.409 . S
C501 C499 1.415 . S
C502 H492 0.930 . S
C502 C500 1.419 . S
C502 C503 1.362 . S
C503 H493 0.930 . S
C503 C496 1.409 . S
C503 C502 1.362 . S
H504 C510 0.930 . S
H505 C513 0.930 . S
H506 C514 0.930 . S
H507 C515 0.930 . S
H508 C518 0.930 . S
H509 C519 0.930 . S
C510 H504 0.930 . S
C510 C511 1.355 . S
C510 C512 1.415 . S
C511 C510 1.355 . S
C511 C513 1.419 . S
C512 C510 1.415 . S
C512 C517 1.425 . S
C512 C519 1.409 . S
C513 H505 0.930 . S
C513 C511 1.419 . S
C513 C514 1.362 . S
C514 H506 0.930 . S
C514 C513 1.362 . S
C514 C517 1.409 . S
C515 H507 0.930 . S
C515 C516 1.355 . S
C515 C517 1.415 . S
C516 C515 1.355 . S
C516 C518 1.419 . S
C517 C512 1.425 . S
C517 C514 1.409 . S
C517 C515 1.415 . S
C518 H508 0.930 . S
C518 C516 1.419 . S
C518 C519 1.362 . S
C519 H509 0.930 . S
C519 C512 1.409 . S
C519 C518 1.362 . S
H520 C526 0.930 . S
H521 C529 0.930 . S
H522 C530 0.930 . S
H523 C531 0.930 . S
H524 C534 0.930 1_554 S
H525 C535 0.930 1_554 S
C526 H520 0.930 . S
C526 C527 1.355 . S
C526 C528 1.415 . S
C527 C526 1.355 . S
C527 C529 1.419 . S
C528 C526 1.415 . S
C528 C533 1.425 1_455 S
C528 C535 1.409 1_455 S
C529 H521 0.930 . S
C529 C527 1.419 . S
C529 C530 1.362 . S
C530 H522 0.930 . S
C530 C529 1.362 . S
C530 C533 1.409 1_455 S
C531 H523 0.930 . S
C531 C532 1.355 . S
C531 C533 1.415 . S
C532 C531 1.355 . S
C532 C534 1.419 . S
C533 C528 1.425 1_655 S
C533 C530 1.409 1_655 S
C533 C531 1.415 . S
C534 H524 0.930 1_556 S
C534 C532 1.419 . S
C534 C535 1.362 . S
C535 H525 0.930 1_556 S
C535 C528 1.409 1_655 S
C535 C534 1.362 . S
H536 C542 0.930 . S
H537 C545 0.930 . S
H538 C546 0.930 . S
H539 C547 0.930 . S
H540 C550 0.930 . S
H541 C551 0.930 . S
C542 H536 0.930 . S
C542 C543 1.355 . S
C542 C544 1.415 . S
C543 C542 1.355 . S
C543 C545 1.419 1_565 S
C544 C542 1.415 . S
C544 C549 1.425 1_565 S
C544 C551 1.409 . S
C545 H537 0.930 . S
C545 C543 1.419 1_545 S
C545 C546 1.362 . S
C546 H538 0.930 . S
C546 C545 1.362 . S
C546 C549 1.409 . S
C547 H539 0.930 . S
C547 C548 1.355 . S
C547 C549 1.415 . S
C548 C547 1.355 . S
C548 C550 1.419 1_545 S
C549 C544 1.425 1_545 S
C549 C546 1.409 . S
C549 C547 1.415 . S
C550 H540 0.930 . S
C550 C548 1.419 1_565 S
C550 C551 1.362 . S
C551 H541 0.930 . S
C551 C544 1.409 . S
C551 C550 1.362 . S
C175 C105 1.355 . S
C180 C7 1.324 . S
C191 C21 1.362 . S
C196 C119 1.318 . S
C207 C35 1.318 . S
C212 C133 1.362 . S
C223 C49 1.320 . S
C228 C147 1.360 . S
C239 C161 1.362 . S
C244 C63 1.318 . S
C255 C91 1.321 . S
C260 C77 1.359 . S
C271 C148 1.290 . S
C276 C8 1.299 . S
C287 C22 1.301 . S
C292 C162 1.340 . S
C303 C36 1.315 . S
C308 C92 1.287 . S
C319 C106 1.287 . S
C324 C50 1.307 . S
C335 C120 1.298 . S
C340 C64 1.338 . S
C351 C134 1.347 . S
C356 C78 1.325 . S
C367 C11 1.567 . S
C372 C123 1.574 . S
C383 C25 1.574 . S
C388 C137 1.573 . S
C399 C151 1.566 . S
C404 C39 1.561 . S
C415 C53 1.564 . S
C420 C165 1.572 . S
C431 C95 1.575 . S
C436 C67 1.571 . S
C447 C109 1.573 . S
C452 C81 1.564 . S
C463 C55 1.252 . S
C468 C13 1.332 . S
C479 C69 1.254 . S
C484 C27 1.279 . S
C495 C41 1.253 . S
C500 C83 1.280 . S
C511 C97 1.283 . S
C516 C139 1.251 . S
C527 C111 1.320 . S
C532 C153 1.246 . S
C543 C167 1.344 . S
C548 C125 1.294 . S
