# Generated by pormake.
# Topology sra, (4)-cn, num edge types: 1
# Building blocks:
#     Node 0, Type 0, BuildingBlock: KUFVIS_clean_sbu_0, # of connection points: 4
#     Node 1, Type 0, BuildingBlock: KUFVIS_clean_sbu_0, # of connection points: 4
#     Node 2, Type 0, BuildingBlock: KUFVIS_clean_sbu_0, # of connection points: 4
#     Node 3, Type 0, BuildingBlock: KUFVIS_clean_sbu_0, # of connection points: 4
#     Node 4, Type 0, BuildingBlock: KUFVIS_clean_sbu_0, # of connection points: 4
#     Node 5, Type 0, BuildingBlock: KUFVIS_clean_sbu_0, # of connection points: 4
#     Node 6, Type 0, BuildingBlock: KUFVIS_clean_sbu_0, # of connection points: 4
#     Node 7, Type 0, BuildingBlock: KUFVIS_clean_sbu_0, # of connection points: 4
#     Edge 8, Type (0, 0), BuildingBlock: XIVTED_clean_linker_0, # of connection points: 2
#     Edge 9, Type (0, 0), BuildingBlock: XIVTED_clean_linker_0, # of connection points: 2
#     Edge 10, Type (0, 0), BuildingBlock: XIVTED_clean_linker_0, # of connection points: 2
#     Edge 11, Type (0, 0), BuildingBlock: XIVTED_clean_linker_0, # of connection points: 2
#     Edge 12, Type (0, 0), BuildingBlock: XIVTED_clean_linker_0, # of connection points: 2
#     Edge 13, Type (0, 0), BuildingBlock: XIVTED_clean_linker_0, # of connection points: 2
#     Edge 14, Type (0, 0), BuildingBlock: XIVTED_clean_linker_0, # of connection points: 2
#     Edge 15, Type (0, 0), BuildingBlock: XIVTED_clean_linker_0, # of connection points: 2
#     Edge 16, Type (0, 0), BuildingBlock: XIVTED_clean_linker_0, # of connection points: 2
#     Edge 17, Type (0, 0), BuildingBlock: XIVTED_clean_linker_0, # of connection points: 2
#     Edge 18, Type (0, 0), BuildingBlock: XIVTED_clean_linker_0, # of connection points: 2
#     Edge 19, Type (0, 0), BuildingBlock: XIVTED_clean_linker_0, # of connection points: 2
#     Edge 20, Type (0, 0), BuildingBlock: XIVTED_clean_linker_0, # of connection points: 2
#     Edge 21, Type (0, 0), BuildingBlock: XIVTED_clean_linker_0, # of connection points: 2
#     Edge 22, Type (0, 0), BuildingBlock: XIVTED_clean_linker_0, # of connection points: 2
#     Edge 23, Type (0, 0), BuildingBlock: XIVTED_clean_linker_0, # of connection points: 2
# Relax obj value: 0.055
# Max RMSD: 0.085
# Mean RMSD: 0.085
data_MOF--net-sra--node1-KUFVIS_clean_sbu_0--edge1-XIVTED_clean_linker_0
_symmetry_space_group_name_H-M    P1
_symmetry_Int_Tables_number       1
_symmetry_cell_setting            triclinic
loop_
_symmetry_equiv_pos_as_xyz
'x, y, z'
_cell_length_a     26.861373
_cell_length_b     52.763291
_cell_length_c     33.398663
_cell_angle_alpha  89.930994
_cell_angle_beta   90.00597
_cell_angle_gamma 90.010291
loop_
_atom_site_label
_atom_site_type_symbol
_atom_site_fract_x
_atom_site_fract_y
_atom_site_fract_z
_atom_type_partial_charge
Mn0 Mn 0.98489 0.11483 0.157 0.0
Mn1 Mn 0.97531 0.06088 0.21097 0.0
C2 C 0.90803 0.10092 0.17888 0.0
C3 C -0.00381 0.15876 0.15524 0.0
C4 C -0.00703 0.06175 0.12094 0.0
O5 O 0.05597 0.1087 0.17595 0.0
O6 O 0.0437 0.07474 0.21594 0.0
C7 C 0.98798 0.08214 0.29237 0.0
N8 N 0.96057 0.06854 0.26563 0.0
C9 C 0.8971 0.06051 0.31488 0.0
C10 C 0.92495 0.07416 0.34307 0.0
C11 C 0.97051 0.08509 0.33171 0.0
C12 C 0.9166 0.05803 0.2762 0.0
H13 H 0.02276 0.09079 0.2837 0.0
C14 C 0.07121 0.09234 0.20141 0.0
O15 O 0.00517 0.14484 0.12397 0.0
O16 O 0.98208 0.14707 0.18742 0.0
N17 N 0.91035 0.04597 0.20935 0.0
C18 C 0.8862 0.03516 0.17781 0.0
C19 C 0.83912 0.02421 0.18376 0.0
C20 C 0.81749 0.02439 0.22204 0.0
C21 C 0.84297 0.03566 0.25402 0.0
C22 C 0.89002 0.04603 0.2464 0.0
H23 H 0.90266 0.03495 0.14833 0.0
O24 O 0.91113 0.11645 0.14884 0.0
O25 O 0.94984 0.09403 0.19493 0.0
O26 O 0.9908 0.08577 0.11644 0.0
O27 O 0.98926 0.05084 0.15502 0.0
C28 C 0.82316 0.03742 0.29298 0.0
C29 C 0.85015 0.04987 0.32337 0.0
H30 H 0.91139 0.07667 0.37336 0.0
H31 H 0.992 0.09585 0.35319 0.0
H32 H 0.81955 0.01563 0.1589 0.0
H33 H 0.78125 0.0159 0.22654 0.0
H34 H 0.78685 0.02963 0.29978 0.0
H35 H 0.83411 0.0515 0.35301 0.0
Mn36 Mn 0.009 0.39317 0.15475 0.0
Mn37 Mn 0.018 0.44743 0.20783 0.0
C38 C 0.08574 0.40732 0.17673 0.0
C39 C -0.00159 0.3492 0.15283 0.0
C40 C 0.00174 0.44633 0.11788 0.0
O41 O 0.93773 0.39893 0.17369 0.0
O42 O 0.949 0.43414 0.21093 0.0
C43 C 0.00158 0.42665 0.28914 0.0
N44 N 0.03051 0.4398 0.26286 0.0
C45 C 0.09258 0.44738 0.31341 0.0
C46 C 0.06329 0.43405 0.34109 0.0
C47 C 0.01765 0.42361 0.32887 0.0
C48 C 0.07448 0.44995 0.2743 0.0
H49 H 0.96657 0.4185 0.27983 0.0
C50 C 0.92171 0.41625 0.1971 0.0
O51 O 0.9892 0.36319 0.12165 0.0
O52 O 0.01232 0.36083 0.18509 0.0
N53 N 0.08316 0.46205 0.20764 0.0
C54 C 0.10836 0.47288 0.17662 0.0
C55 C 0.15536 0.48365 0.18352 0.0
C56 C 0.1758 0.48326 0.22221 0.0
C57 C 0.1492 0.472 0.25367 0.0
C58 C 0.10228 0.46183 0.24508 0.0
H59 H 0.0928 0.47323 0.14682 0.0
O60 O 0.08277 0.39184 0.14667 0.0
O61 O 0.0438 0.41412 0.19275 0.0
O62 O 0.00267 0.42224 0.11384 0.0
O63 O 0.00629 0.45738 0.15168 0.0
C64 C 0.16771 0.47009 0.29304 0.0
C65 C 0.13948 0.45774 0.32286 0.0
H66 H 0.07571 0.43152 0.3717 0.0
H67 H -0.00503 0.41318 0.35001 0.0
H68 H 0.1758 0.49223 0.15909 0.0
H69 H 0.21195 0.49164 0.22733 0.0
H70 H 0.2039 0.47772 0.30064 0.0
H71 H 0.15448 0.45604 0.35285 0.0
Mn72 Mn 0.98546 0.894 0.84558 0.0
Mn73 Mn 0.97712 0.94732 0.79005 0.0
C74 C 0.90892 0.90788 0.82278 0.0
C75 C -0.00373 0.85009 0.84863 0.0
C76 C -0.00563 0.94734 0.88019 0.0
O77 O 0.05691 0.89986 0.82714 0.0
O78 O 0.0451 0.93292 0.78512 0.0
C79 C 0.98795 0.92471 0.70939 0.0
N80 N 0.96169 0.9392 0.73567 0.0
C81 C 0.89835 0.94744 0.68639 0.0
C82 C 0.92528 0.93306 0.65856 0.0
C83 C 0.97015 0.92154 0.67019 0.0
C84 C 0.91818 0.95014 0.72494 0.0
H85 H 0.02192 0.91543 0.7184 0.0
C86 C 0.07235 0.91561 0.8008 0.0
O87 O 0.00508 0.86432 0.87958 0.0
O88 O 0.98271 0.86147 0.816 0.0
N89 N 0.9126 0.96272 0.79157 0.0
C90 C 0.8889 0.97392 0.82298 0.0
C91 C 0.84222 0.98528 0.81692 0.0
C92 C 0.82051 0.98507 0.77867 0.0
C93 C 0.8455 0.97337 0.74684 0.0
C94 C 0.89218 0.96262 0.75456 0.0
H95 H 0.90541 0.97417 0.85244 0.0
O96 O 0.91152 0.8926 0.85318 0.0
O97 O 0.951 0.91449 0.80693 0.0
O98 O 0.99109 0.92342 0.88534 0.0
O99 O 0.99171 0.9579 0.84576 0.0
C100 C 0.82551 0.97153 0.70794 0.0
C101 C 0.85185 0.95852 0.67777 0.0
H102 H 0.91142 0.93036 0.6284 0.0
H103 H 0.99079 0.91009 0.64906 0.0
H104 H 0.82303 0.99419 0.84167 0.0
H105 H 0.78459 0.99388 0.77412 0.0
H106 H 0.78953 0.97965 0.70102 0.0
H107 H 0.83559 0.95677 0.64822 0.0
Mn108 Mn 0.00818 0.6158 0.84478 0.0
Mn109 Mn 0.01791 0.5629 0.78862 0.0
C110 C 0.08528 0.60188 0.8238 0.0
C111 C -0.00273 0.65972 0.84738 0.0
C112 C -0.00163 0.56218 0.87846 0.0
O113 O 0.93738 0.61011 0.82506 0.0
O114 O 0.95 0.57735 0.7828 0.0
C115 C 0.00916 0.58638 0.70834 0.0
N116 N 0.03484 0.57168 0.73476 0.0
C117 C 0.10005 0.5645 0.6867 0.0
C118 C 0.07379 0.57915 0.65873 0.0
C119 C 0.02825 0.59022 0.66968 0.0
C120 C 0.07893 0.56112 0.72467 0.0
H121 H 0.97462 0.5953 0.71683 0.0
C122 C 0.92246 0.59456 0.79834 0.0
O123 O 0.9876 0.64555 0.8783 0.0
O124 O 0.01189 0.6483 0.81518 0.0
N125 N 0.08231 0.5474 0.7909 0.0
C126 C 0.10486 0.53555 0.82231 0.0
C127 C 0.15178 0.52435 0.81685 0.0
C128 C 0.17493 0.52536 0.77918 0.0
C129 C 0.15103 0.53765 0.7473 0.0
C130 C 0.10401 0.54819 0.75438 0.0
H131 H 0.08729 0.53471 0.85134 0.0
O132 O 0.08169 0.61714 0.85408 0.0
O133 O 0.0438 0.59546 0.80675 0.0
O134 O 0.00131 0.58609 0.88407 0.0
O135 O 0.00192 0.55187 0.8439 0.0
C136 C 0.1724 0.54027 0.70899 0.0
C137 C 0.14701 0.55373 0.67875 0.0
H138 H 0.08863 0.58236 0.629 0.0
H139 H 0.00808 0.60184 0.64844 0.0
H140 H 0.17011 0.51497 0.84163 0.0
H141 H 0.2111 0.51673 0.77512 0.0
H142 H 0.20869 0.53237 0.70258 0.0
H143 H 0.16428 0.55603 0.64966 0.0
Mn144 Mn 0.48432 0.61642 0.65616 0.0
Mn145 Mn 0.47705 0.56311 0.71182 0.0
C146 C 0.40823 0.60243 0.67977 0.0
C147 C 0.49514 0.66038 0.65349 0.0
C148 C 0.4929 0.56309 0.62152 0.0
O149 O 0.55614 0.61054 0.67371 0.0
O150 O 0.54495 0.57764 0.71615 0.0
C151 C 0.48862 0.58588 0.7923 0.0
N152 N 0.46221 0.57127 0.76628 0.0
C153 C 0.39965 0.56283 0.81612 0.0
C154 C 0.42677 0.57733 0.84369 0.0
C155 C 0.4713 0.58903 0.83165 0.0
C156 C 0.41896 0.56021 0.77739 0.0
H157 H 0.52233 0.59528 0.78297 0.0
C158 C 0.57197 0.59488 0.70002 0.0
O159 O 0.5033 0.64631 0.62224 0.0
O160 O 0.48214 0.64883 0.68609 0.0
N161 N 0.41263 0.54757 0.71083 0.0
C162 C 0.38872 0.53619 0.67967 0.0
C163 C 0.34237 0.5246 0.68619 0.0
C164 C 0.3212 0.52472 0.72464 0.0
C165 C 0.34638 0.53662 0.7562 0.0
C166 C 0.39272 0.54762 0.74802 0.0
H167 H 0.40486 0.53597 0.65008 0.0
O168 O 0.41018 0.61781 0.64948 0.0
O169 O 0.45062 0.59585 0.69505 0.0
O170 O 0.48926 0.58701 0.61628 0.0
O171 O 0.491 0.55258 0.65602 0.0
C172 C 0.32695 0.53836 0.79529 0.0
C173 C 0.3535 0.55151 0.82519 0.0
H174 H 0.41329 0.57999 0.87397 0.0
H175 H 0.49206 0.60057 0.85257 0.0
H176 H 0.32302 0.51553 0.66165 0.0
H177 H 0.28557 0.51568 0.72956 0.0
H178 H 0.29124 0.53005 0.80255 0.0
H179 H 0.33764 0.5532 0.85489 0.0
Mn180 Mn 0.50886 0.89475 0.65537 0.0
Mn181 Mn 0.5176 0.94747 0.71207 0.0
C182 C 0.58558 0.90838 0.67817 0.0
C183 C 0.49782 0.85083 0.65191 0.0
C184 C 0.49974 0.94844 0.62196 0.0
O185 O 0.43752 0.90049 0.67414 0.0
O186 O 0.44966 0.93299 0.71704 0.0
C187 C 0.50742 0.92403 0.79228 0.0
N188 N 0.53347 0.93879 0.76617 0.0
C189 C 0.59722 0.94654 0.81529 0.0
C190 C 0.57051 0.93187 0.84295 0.0
C191 C 0.52554 0.92046 0.83131 0.0
C192 C 0.57707 0.94963 0.77691 0.0
H193 H 0.47337 0.91484 0.78325 0.0
C194 C 0.42228 0.9159 0.70098 0.0
O195 O 0.48896 0.86523 0.6211 0.0
O196 O 0.51165 0.86204 0.68455 0.0
N197 N 0.5821 0.9629 0.71054 0.0
C198 C 0.60554 0.97444 0.67925 0.0
C199 C 0.65227 0.98573 0.68531 0.0
C200 C 0.67431 0.98512 0.72343 0.0
C201 C 0.64958 0.97309 0.75514 0.0
C202 C 0.60283 0.96242 0.74744 0.0
H203 H 0.58877 0.97499 0.6499 0.0
O204 O 0.58278 0.89336 0.64752 0.0
O205 O 0.54359 0.91486 0.69427 0.0
O206 O 0.50309 0.92457 0.61614 0.0
O207 O 0.50255 0.95858 0.65667 0.0
C208 C 0.66989 0.97086 0.79389 0.0
C209 C 0.64379 0.95754 0.82391 0.0
H210 H 0.58462 0.92886 0.87297 0.0
H211 H 0.50508 0.90879 0.8523 0.0
H212 H 0.67126 0.99489 0.66065 0.0
H213 H 0.71029 0.99387 0.72798 0.0
H214 H 0.70593 0.9789 0.80079 0.0
H215 H 0.6603 0.95549 0.85333 0.0
Mn216 Mn 0.48563 0.39468 0.3453 0.0
Mn217 Mn 0.47615 0.44874 0.29152 0.0
C218 C 0.40885 0.40842 0.32279 0.0
C219 C 0.49686 0.3508 0.34809 0.0
C220 C 0.4915 0.44801 0.38154 0.0
O221 O 0.55693 0.40063 0.32658 0.0
O222 O 0.54545 0.43581 0.28915 0.0
C223 C 0.49399 0.4277 0.21064 0.0
N224 N 0.46448 0.44081 0.2365 0.0
C225 C 0.40288 0.44783 0.18535 0.0
C226 C 0.43276 0.43454 0.1581 0.0
C227 C 0.47847 0.42439 0.17083 0.0
C228 C 0.42045 0.45067 0.22456 0.0
H229 H 0.52905 0.41978 0.22034 0.0
C230 C 0.57288 0.41802 0.30321 0.0
O231 O 0.50567 0.36501 0.37904 0.0
O232 O 0.483 0.36217 0.31553 0.0
N233 N 0.41071 0.46302 0.29097 0.0
C234 C 0.38495 0.47388 0.32161 0.0
C235 C 0.33787 0.48442 0.31416 0.0
C236 C 0.31793 0.48376 0.27531 0.0
C237 C 0.34508 0.47245 0.24426 0.0
C238 C 0.39207 0.46254 0.25338 0.0
H239 H 0.40014 0.47446 0.35153 0.0
O240 O 0.41186 0.3931 0.3531 0.0
O241 O 0.45078 0.41533 0.30682 0.0
O242 O 0.49123 0.42393 0.38577 0.0
O243 O 0.48692 0.45897 0.34764 0.0
C244 C 0.32708 0.47026 0.20478 0.0
C245 C 0.35589 0.4579 0.17538 0.0
H246 H 0.42077 0.4318 0.12744 0.0
H247 H 0.50161 0.414 0.15003 0.0
H248 H 0.317 0.49303 0.33828 0.0
H249 H 0.28174 0.49197 0.26975 0.0
H250 H 0.29084 0.47767 0.19679 0.0
H251 H 0.34129 0.45598 0.14531 0.0
Mn252 Mn 0.50887 0.1164 0.34653 0.0
Mn253 Mn 0.51424 0.06327 0.29063 0.0
C254 C 0.58455 0.10199 0.32283 0.0
C255 C 0.49887 0.16039 0.3488 0.0
C256 C 0.49812 0.06321 0.38106 0.0
O257 O 0.43684 0.11089 0.32945 0.0
O258 O 0.44695 0.07871 0.28549 0.0
C259 C 0.50479 0.08567 0.20964 0.0
N260 N 0.53036 0.07107 0.23622 0.0
C261 C 0.5935 0.06193 0.18719 0.0
C262 C 0.56727 0.07649 0.15909 0.0
C263 C 0.52283 0.08851 0.17044 0.0
C264 C 0.5734 0.05959 0.22573 0.0
H265 H 0.47119 0.09527 0.21843 0.0
C266 C 0.4206 0.09585 0.30251 0.0
O267 O 0.49069 0.14645 0.38026 0.0
O268 O 0.51152 0.1487 0.31629 0.0
N269 N 0.578 0.04702 0.29245 0.0
C270 C 0.60113 0.03567 0.32405 0.0
C271 C 0.64744 0.02387 0.31829 0.0
C272 C 0.66941 0.0238 0.28013 0.0
C273 C 0.64498 0.03563 0.24809 0.0
C274 C 0.59867 0.04686 0.25553 0.0
H275 H 0.58448 0.03565 0.35346 0.0
O276 O 0.58296 0.1174 0.35303 0.0
O277 O 0.54198 0.09568 0.30753 0.0
O278 O 0.50354 0.08701 0.38657 0.0
O279 O 0.4989 0.05293 0.34638 0.0
C280 C 0.66521 0.03715 0.20923 0.0
C281 C 0.63954 0.05032 0.17883 0.0
H282 H 0.58135 0.07892 0.12894 0.0
H283 H 0.5027 0.10006 0.1491 0.0
H284 H 0.66619 0.01487 0.34321 0.0
H285 H 0.70513 0.01472 0.27582 0.0
H286 H 0.70085 0.02861 0.2025 0.0
H287 H 0.65598 0.05179 0.1493 0.0
H288 H 0.987 0.31807 0.08734 0.0
H289 H 0.99249 0.19103 0.21867 0.0
H290 H 0.00469 0.31645 0.21574 0.0
H291 H 0.00582 0.19034 0.08992 0.0
H292 H 0.99202 0.23717 0.21737 0.0
H293 H 0.98791 0.2715 0.08683 0.0
C294 C 0.99072 0.30794 0.11541 0.0
C295 C -0.00424 0.32117 0.15165 0.0
C296 C -0.00473 0.22701 0.18934 0.0
C297 C -0.00302 0.26804 0.15126 0.0
C298 C -0.00443 0.2006 0.19006 0.0
C299 C -0.00074 0.18678 0.15434 0.0
C300 C -0.00177 0.23987 0.15259 0.0
C301 C 0.00314 0.20027 0.11818 0.0
C302 C 0.99152 0.28139 0.11507 0.0
C303 C 0.00076 0.30709 0.18709 0.0
N304 N 0.00225 0.2261 0.11819 0.0
N305 N 0.00117 0.28137 0.18599 0.0
H306 H 0.00655 0.81921 0.91476 0.0
H307 H 0.00103 0.69209 0.78416 0.0
H308 H 0.99093 0.81713 0.78621 0.0
H309 H 0.98772 0.69117 0.91291 0.0
H310 H 0.0019 0.73815 0.78544 0.0
H311 H 0.00527 0.7726 0.91586 0.0
C312 C 0.00323 0.80898 0.8868 0.0
C313 C -0.00113 0.82208 0.85033 0.0
C314 C -0.00144 0.72798 0.81349 0.0
C315 C -0.00283 0.76896 0.85139 0.0
C316 C -0.00196 0.7016 0.81278 0.0
C317 C -0.00575 0.68773 0.84849 0.0
C318 C -0.0043 0.7408 0.85023 0.0
C319 C 0.99046 0.70115 0.88466 0.0
C320 C 0.0022 0.78242 0.88747 0.0
C321 C -0.00566 0.80788 0.81503 0.0
N322 N 0.99155 0.727 0.88466 0.0
N323 N -0.00634 0.78218 0.81647 0.0
H324 H 0.4925 0.69275 0.7167 0.0
H325 H 0.48672 0.82005 0.58577 0.0
H326 H 0.50328 0.69189 0.58779 0.0
H327 H 0.503 0.81776 0.71427 0.0
H328 H 0.48727 0.77342 0.58474 0.0
H329 H 0.49185 0.73882 0.71528 0.0
C330 C 0.49497 0.70227 0.68801 0.0
C331 C 0.49802 0.6884 0.6523 0.0
C332 C 0.49064 0.7832 0.6131 0.0
C333 C 0.49683 0.7415 0.65041 0.0
C334 C 0.49004 0.80977 0.61373 0.0
C335 C 0.49481 0.82282 0.65016 0.0
C336 C 0.49567 0.76968 0.64919 0.0
C337 C 0.4993 0.80856 0.68546 0.0
C338 C 0.49456 0.72866 0.68722 0.0
C339 C 0.50112 0.70185 0.61605 0.0
N340 N 0.49958 0.78286 0.68406 0.0
N341 N 0.5002 0.7277 0.61598 0.0
H342 H 0.5088 0.32015 0.41422 0.0
H343 H 0.50138 0.19244 0.28507 0.0
H344 H 0.49073 0.31762 0.2859 0.0
H345 H 0.4914 0.19221 0.41402 0.0
H346 H 0.50225 0.23853 0.28573 0.0
H347 H 0.50819 0.27357 0.4157 0.0
C348 C 0.50507 0.30982 0.38637 0.0
C349 C 0.49981 0.32279 0.34986 0.0
C350 C 0.49966 0.22849 0.31396 0.0
C351 C 0.4989 0.26967 0.35138 0.0
C352 C 0.49914 0.20211 0.31361 0.0
C353 C 0.49624 0.18842 0.34956 0.0
C354 C 0.49765 0.2415 0.35057 0.0
C355 C 0.49344 0.20204 0.3856 0.0
C356 C 0.50444 0.28327 0.38728 0.0
C357 C 0.49482 0.30847 0.31473 0.0
N358 N 0.49445 0.22788 0.38523 0.0
N359 N 0.49453 0.28277 0.31639 0.0
H360 H 0.38914 0.10451 0.22657 0.0
H361 H 0.10835 0.07196 0.27038 0.0
H362 H 0.33542 0.0937 0.34695 0.0
H363 H 0.15098 0.11752 0.16843 0.0
H364 H 0.19262 0.07584 0.29673 0.0
H365 H 0.30334 0.10597 0.20251 0.0
C366 C 0.35918 0.10248 0.24792 0.0
C367 C 0.36907 0.09878 0.28869 0.0
C368 C 0.1834 0.08509 0.26872 0.0
C369 C 0.27111 0.10013 0.26141 0.0
C370 C 0.13542 0.08274 0.25342 0.0
C371 C 0.12257 0.09436 0.21697 0.0
C372 C 0.21918 0.09873 0.2471 0.0
C373 C 0.15926 0.10823 0.19658 0.0
C374 C 0.31028 0.10348 0.23421 0.0
C375 C 0.32901 0.09661 0.31527 0.0
N376 N 0.20614 0.10982 0.21175 0.0
N377 N 0.28155 0.09694 0.30107 0.0
H378 H 0.62869 0.45786 0.27764 0.0
H379 H 0.85817 0.37534 0.20116 0.0
H380 H 0.63606 0.3771 0.29764 0.0
H381 H 0.86622 0.45572 0.22439 0.0
H382 H 0.77316 0.37502 0.22851 0.0
H383 H 0.71288 0.45684 0.25073 0.0
C384 C 0.64816 0.43989 0.27654 0.0
C385 C 0.62536 0.41753 0.28999 0.0
C386 C 0.79371 0.39267 0.22751 0.0
C387 C 0.72178 0.41619 0.25865 0.0
C388 C 0.84193 0.39292 0.21162 0.0
C389 C 0.86929 0.4156 0.21051 0.0
C390 C 0.77267 0.41532 0.2417 0.0
C391 C 0.84665 0.43778 0.22481 0.0
C392 C 0.69627 0.43933 0.26119 0.0
C393 C 0.65247 0.39481 0.28789 0.0
N394 N 0.7997 0.43708 0.23965 0.0
N395 N 0.69925 0.39466 0.27216 0.0
H396 H 0.10663 0.92763 0.72644 0.0
H397 H 0.38836 0.92678 0.77585 0.0
H398 H 0.15513 0.89849 0.84083 0.0
H399 H 0.33926 0.8996 0.66054 0.0
H400 H 0.30313 0.92327 0.8007 0.0
H401 H 0.19185 0.92426 0.70159 0.0
C402 C 0.13515 0.92046 0.74634 0.0
C403 C 0.1238 0.9133 0.78581 0.0
C404 C 0.31124 0.91789 0.77009 0.0
C405 C 0.22127 0.90996 0.75765 0.0
C406 C 0.3597 0.92001 0.75575 0.0
C407 C 0.37087 0.91344 0.71602 0.0
C408 C 0.27342 0.90996 0.74418 0.0
C409 C 0.33218 0.90479 0.69137 0.0
C410 C 0.18361 0.91843 0.73199 0.0
C411 C 0.16235 0.90415 0.8102 0.0
N412 N 0.28481 0.90368 0.70568 0.0
N413 N 0.20974 0.90312 0.79591 0.0
H414 H 0.60695 0.58354 0.77433 0.0
H415 H 0.88857 0.58311 0.72358 0.0
H416 H 0.6545 0.61124 0.65881 0.0
H417 H 0.83969 0.61127 0.83835 0.0
H418 H 0.8032 0.58654 0.6987 0.0
H419 H 0.69247 0.58675 0.7984 0.0
C420 C 0.63534 0.59036 0.75402 0.0
C421 C 0.62363 0.59719 0.71448 0.0
C422 C 0.81142 0.59214 0.72919 0.0
C423 C 0.72148 0.60032 0.74175 0.0
C424 C 0.85992 0.59006 0.74354 0.0
C425 C 0.87115 0.59691 0.78314 0.0
C426 C 0.77371 0.60036 0.75498 0.0
C427 C 0.83256 0.60585 0.80763 0.0
C428 C 0.68399 0.5923 0.76791 0.0
C429 C 0.66202 0.60588 0.68952 0.0
N430 N 0.78522 0.60693 0.79333 0.0
N431 N 0.70962 0.60682 0.7034 0.0
H432 H 0.60233 0.89769 0.75592 0.0
H433 H 0.89246 0.89814 0.74469 0.0
H434 H 0.67611 0.92269 0.64838 0.0
H435 H 0.81827 0.92174 0.85275 0.0
H436 H 0.81352 0.90137 0.7084 0.0
H437 H 0.68132 0.90066 0.79218 0.0
C438 C 0.63516 0.90431 0.74024 0.0
C439 C 0.63274 0.91104 0.69973 0.0
C440 C 0.81469 0.90621 0.73989 0.0
C441 C 0.72309 0.91317 0.74019 0.0
C442 C 0.85956 0.90453 0.76049 0.0
C443 C 0.86184 0.91078 0.80117 0.0
C444 C 0.77154 0.91315 0.76066 0.0
C445 C 0.81791 0.91742 0.82107 0.0
C446 C 0.68005 0.90586 0.76081 0.0
C447 C 0.67658 0.918 0.67994 0.0
N448 N 0.77422 0.91839 0.80056 0.0
N449 N 0.7203 0.91885 0.70042 0.0
H450 H 0.39371 0.61312 0.75762 0.0
H451 H 0.17227 0.58538 0.85675 0.0
H452 H 0.31704 0.58758 0.6518 0.0
H453 H 0.10731 0.6126 0.74686 0.0
H454 H 0.25343 0.58251 0.8229 0.0
H455 H 0.31618 0.60976 0.79549 0.0
C456 C 0.36057 0.60621 0.74269 0.0
C457 C 0.36178 0.59951 0.70218 0.0
C458 C 0.22129 0.58901 0.80625 0.0
C459 C 0.27309 0.59633 0.74471 0.0
C460 C 0.17525 0.59052 0.82542 0.0
C461 C 0.13336 0.5985 0.80401 0.0
C462 C 0.22508 0.59601 0.76574 0.0
C463 C 0.13876 0.60553 0.7638 0.0
C464 C 0.3165 0.60429 0.76425 0.0
C465 C 0.31751 0.5922 0.68337 0.0
N466 N 0.18384 0.60392 0.74574 0.0
N467 N 0.2746 0.59086 0.70486 0.0
H468 H 0.60093 0.11148 0.24457 0.0
H469 H 0.89115 0.11005 0.25706 0.0
H470 H 0.67458 0.08705 0.3525 0.0
H471 H 0.81734 0.08776 0.14813 0.0
H472 H 0.81192 0.10689 0.29287 0.0
H473 H 0.67978 0.10786 0.20825 0.0
C474 C 0.63366 0.10479 0.26032 0.0
C475 C 0.63128 0.09849 0.30099 0.0
C476 C 0.81321 0.10231 0.26128 0.0
C477 C 0.72151 0.09569 0.26048 0.0
C478 C 0.85825 0.10397 0.24095 0.0
C479 C 0.86071 0.09806 0.20016 0.0
C480 C 0.77009 0.09571 0.24018 0.0
C481 C 0.81681 0.0918 0.1799 0.0
C482 C 0.67849 0.10289 0.23971 0.0
C483 C 0.67502 0.09144 0.32083 0.0
N484 N 0.77296 0.09081 0.20017 0.0
N485 N 0.71867 0.09029 0.30034 0.0
H486 H 0.1757 0.42068 0.14493 0.0
H487 H 0.3186 0.42143 0.35426 0.0
H488 H 0.10414 0.39896 0.25519 0.0
H489 H 0.39087 0.39984 0.24433 0.0
H490 H 0.23873 0.4236 0.31816 0.0
H491 H 0.25561 0.42343 0.18092 0.0
C492 C 0.17687 0.41686 0.17679 0.0
C493 C 0.13339 0.41053 0.19764 0.0
C494 C 0.2723 0.41873 0.30196 0.0
C495 C 0.22363 0.41336 0.23851 0.0
C496 C 0.31759 0.41753 0.32244 0.0
C497 C 0.36124 0.41138 0.30173 0.0
C498 C 0.27103 0.41356 0.26072 0.0
C499 C 0.35816 0.4057 0.26083 0.0
C500 C 0.22217 0.41839 0.1972 0.0
C501 C 0.13669 0.40496 0.23858 0.0
N502 N 0.31383 0.40715 0.24148 0.0
N503 N 0.18101 0.40673 0.25786 0.0
H504 H -0.00072 0.07612 0.04172 0.0
H505 H 0.00096 0.93338 0.95942 0.0
H506 H -0.00192 0.00985 0.11778 0.0
H507 H -0.00131 0.99936 0.88274 0.0
H508 H 0.00453 0.96122 0.0177 0.0
H509 H 0.00361 0.04844 0.98314 0.0
C510 C 0.00018 0.0558 0.04621 0.0
C511 C -0.00184 0.0454 0.08493 0.0
C512 C 0.00346 0.96961 0.98811 0.0
C513 C 0.00299 0.01353 0.01777 0.0
C514 C 0.00147 0.9537 0.95473 0.0
C515 C -0.00063 0.96395 0.91593 0.0
C516 C 0.00328 0.99605 0.98283 0.0
C517 C 0.00021 0.9905 0.91196 0.0
C518 C 0.0026 0.03998 0.01268 0.0
C519 C -0.00053 0.01884 0.08866 0.0
N520 N 0.00191 0.00558 0.94493 0.0
N521 N 0.00164 1.00389 0.05559 0.0
H522 H 0.99036 0.57541 0.95785 0.0
H523 H -0.00383 0.43211 0.03844 0.0
H524 H -0.00494 0.5101 0.88006 0.0
H525 H -0.00427 0.49811 0.11484 0.0
H526 H 0.99111 0.46006 0.97995 0.0
H527 H 0.98733 0.54707 0.0156 0.0
C528 C 0.99046 0.55514 0.9528 0.0
C529 C -0.00686 0.54523 0.91385 0.0
C530 C 0.99193 0.46838 0.00957 0.0
C531 C 0.98992 0.51253 0.98017 0.0
C532 C -0.00522 0.45241 0.04302 0.0
C533 C -0.00345 0.46267 0.08179 0.0
C534 C 0.99081 0.49481 0.01487 0.0
C535 C -0.00538 0.48921 0.08568 0.0
C536 C 0.9888 0.53892 0.98588 0.0
C537 C -0.00692 0.5187 0.90942 0.0
N538 N 0.99199 0.50427 0.05275 0.0
N539 N 0.99173 0.50332 0.94212 0.0
H540 H 0.49844 0.43375 0.46087 0.0
H541 H 0.49751 0.5768 0.54208 0.0
H542 H 0.49427 0.49989 0.38456 0.0
H543 H 0.49814 0.51111 0.61941 0.0
H544 H 0.50052 0.54874 0.48405 0.0
H545 H 0.50237 0.46162 0.51934 0.0
C546 C 0.49856 0.45408 0.45631 0.0
C547 C 0.4959 0.46439 0.41757 0.0
C548 C 0.5002 0.54046 0.51373 0.0
C549 C 0.5003 0.49644 0.48451 0.0
C550 C 0.49854 0.55651 0.54696 0.0
C551 C 0.49744 0.5464 0.58587 0.0
C552 C 0.50071 0.51405 0.51927 0.0
C553 C 0.49888 0.51986 0.59009 0.0
C554 C 0.50077 0.46999 0.48976 0.0
C555 C 0.49619 0.49095 0.41371 0.0
N556 N 0.50026 0.50465 0.55727 0.0
N557 N 0.49821 0.50598 0.44666 0.0
H558 H 0.49535 1.00045 0.62125 0.0
H559 H 0.4886 0.01141 0.38217 0.0
H560 H 0.49248 0.93575 0.54215 0.0
H561 H 0.49649 0.07612 0.46102 0.0
H562 H 0.48508 0.98362 0.44044 0.0
H563 H 0.49094 0.02839 0.56316 0.0
C564 C 0.4935 0.99204 0.59172 0.0
C565 C 0.49442 0.96557 0.58678 0.0
C566 C 0.48736 1.0039 0.44504 0.0
C567 C 0.48954 0.99772 0.51982 0.0
C568 C 0.48929 0.01987 0.4117 0.0
C569 C 0.49299 0.04628 0.41649 0.0
C570 C 0.48917 0.01429 0.48369 0.0
C571 C 0.49375 0.05594 0.45569 0.0
C572 C 0.49107 0.00809 0.55849 0.0
C573 C 0.49198 0.95597 0.54759 0.0
N574 N 0.49204 0.03996 0.4877 0.0
N575 N 0.48981 0.97201 0.5157 0.0
loop_
_geom_bond_atom_site_label_1
_geom_bond_atom_site_label_2
_geom_bond_distance
_geom_bond_site_symmetry_2
_ccdc_geom_bond_type
Mn0 O5 2.095 . S
Mn0 O15 2.162 . S
Mn0 O16 2.297 . S
Mn0 O24 2.385 1_455 S
Mn0 O25 2.209 1_455 S
Mn0 O26 2.094 . S
Mn1 O6 2.103 1_655 S
Mn1 N8 2.262 . S
Mn1 N17 2.301 . S
Mn1 O25 2.224 . S
Mn1 O27 2.117 . S
C2 O24 1.234 . S
C2 O25 1.283 . S
C3 O15 1.281 . S
C3 O16 1.236 . S
C4 O26 1.240 . S
C4 O27 1.263 1_455 S
O5 Mn0 2.095 . S
O5 C14 1.250 . S
O6 Mn1 2.103 1_455 S
O6 C14 1.258 . S
C7 N8 1.326 1_455 S
C7 C11 1.460 1_455 S
C7 H13 0.929 . S
N8 Mn1 2.262 . S
N8 C7 1.326 1_655 S
N8 C12 1.362 . S
C9 C10 1.258 . S
C9 C12 1.431 . S
C9 C29 1.449 . S
C10 C9 1.258 . S
C10 C11 1.477 . S
C10 H30 0.931 . S
C11 C7 1.460 1_655 S
C11 C10 1.477 . S
C11 H31 0.930 1_655 S
C12 N8 1.362 . S
C12 C9 1.431 . S
C12 C22 1.476 . S
H13 C7 0.929 . S
C14 O5 1.250 . S
C14 O6 1.258 . S
O15 Mn0 2.162 . S
O15 C3 1.281 . S
O16 Mn0 2.297 . S
O16 C3 1.236 . S
N17 Mn1 2.301 . S
N17 C18 1.328 . S
N17 C22 1.318 . S
C18 N17 1.328 . S
C18 C19 1.457 . S
C18 H23 0.929 . S
C19 C18 1.457 . S
C19 C20 1.291 . S
C19 H32 0.931 . S
C20 C19 1.291 . S
C20 C21 1.373 . S
C20 H33 0.929 . S
C21 C20 1.373 . S
C21 C22 1.396 . S
C21 C28 1.403 . S
C22 C12 1.476 . S
C22 N17 1.318 . S
C22 C21 1.396 . S
H23 C18 0.929 . S
O24 Mn0 2.385 1_655 S
O24 C2 1.234 . S
O25 Mn0 2.209 1_655 S
O25 Mn1 2.224 . S
O25 C2 1.283 . S
O26 Mn0 2.094 . S
O26 C4 1.240 . S
O27 Mn1 2.117 . S
O27 C4 1.263 1_655 S
C28 C21 1.403 . S
C28 C29 1.399 . S
C28 H34 0.929 . S
C29 C9 1.449 . S
C29 C28 1.399 . S
C29 H35 0.930 . S
H30 C10 0.931 . S
H31 C11 0.930 1_455 S
H32 C19 0.931 . S
H33 C20 0.929 . S
H34 C28 0.929 . S
H35 C29 0.930 . S
Mn36 O41 2.095 1_455 S
Mn36 O51 2.162 . S
Mn36 O52 2.297 . S
Mn36 O60 2.385 . S
Mn36 O61 2.209 . S
Mn36 O62 2.094 . S
Mn37 O42 2.121 1_455 S
Mn37 N44 2.257 . S
Mn37 N53 2.282 . S
Mn37 O61 2.215 . S
Mn37 O63 2.117 . S
C38 O60 1.234 . S
C38 O61 1.283 . S
C39 O51 1.281 . S
C39 O52 1.236 . S
C40 O62 1.240 . S
C40 O63 1.264 . S
O41 Mn36 2.095 1_655 S
O41 C50 1.250 . S
O42 Mn37 2.121 1_655 S
O42 C50 1.258 . S
C43 N44 1.332 . S
C43 C47 1.462 . S
C43 H49 0.921 1_455 S
N44 Mn37 2.257 . S
N44 C43 1.332 . S
N44 C48 1.362 . S
C45 C46 1.258 . S
C45 C48 1.431 . S
C45 C65 1.449 . S
C46 C45 1.258 . S
C46 C47 1.477 . S
C46 H66 0.931 . S
C47 C43 1.462 . S
C47 C46 1.477 . S
C47 H67 0.930 1_455 S
C48 N44 1.362 . S
C48 C45 1.431 . S
C48 C58 1.476 . S
H49 C43 0.921 1_655 S
C50 O41 1.250 . S
C50 O42 1.258 . S
O51 Mn36 2.162 . S
O51 C39 1.281 . S
O52 Mn36 2.297 . S
O52 C39 1.236 . S
N53 Mn37 2.282 . S
N53 C54 1.328 . S
N53 C58 1.318 . S
C54 N53 1.328 . S
C54 C55 1.457 . S
C54 H59 0.929 . S
C55 C54 1.457 . S
C55 C56 1.291 . S
C55 H68 0.931 . S
C56 C55 1.291 . S
C56 C57 1.373 . S
C56 H69 0.929 . S
C57 C56 1.373 . S
C57 C58 1.396 . S
C57 C64 1.403 . S
C58 C48 1.476 . S
C58 N53 1.318 . S
C58 C57 1.396 . S
H59 C54 0.929 . S
O60 Mn36 2.385 . S
O60 C38 1.234 . S
O61 Mn36 2.209 . S
O61 Mn37 2.215 . S
O61 C38 1.283 . S
O62 Mn36 2.094 . S
O62 C40 1.240 . S
O63 Mn37 2.117 . S
O63 C40 1.264 . S
C64 C57 1.403 . S
C64 C65 1.399 . S
C64 H70 0.929 . S
C65 C45 1.449 . S
C65 C64 1.399 . S
C65 H71 0.930 . S
H66 C46 0.931 . S
H67 C47 0.930 1_655 S
H68 C55 0.931 . S
H69 C56 0.929 . S
H70 C64 0.929 . S
H71 C65 0.930 . S
Mn72 O77 2.095 . S
Mn72 O87 2.162 . S
Mn72 O88 2.297 . S
Mn72 O96 2.385 1_455 S
Mn72 O97 2.209 1_455 S
Mn72 O98 2.094 . S
Mn73 O78 2.103 1_655 S
Mn73 N80 2.262 . S
Mn73 N89 2.301 . S
Mn73 O97 2.224 . S
Mn73 O99 2.117 . S
C74 O96 1.234 . S
C74 O97 1.283 . S
C75 O87 1.281 . S
C75 O88 1.236 . S
C76 O98 1.240 . S
C76 O99 1.263 1_455 S
O77 Mn72 2.095 . S
O77 C86 1.250 . S
O78 Mn73 2.103 1_455 S
O78 C86 1.258 . S
C79 N80 1.326 1_455 S
C79 C83 1.460 1_455 S
C79 H85 0.929 . S
N80 Mn73 2.262 . S
N80 C79 1.326 1_655 S
N80 C84 1.362 . S
C81 C82 1.258 . S
C81 C84 1.431 . S
C81 C101 1.449 . S
C82 C81 1.258 . S
C82 C83 1.477 . S
C82 H102 0.931 . S
C83 C79 1.460 1_655 S
C83 C82 1.477 . S
C83 H103 0.930 1_655 S
C84 N80 1.362 . S
C84 C81 1.431 . S
C84 C94 1.476 . S
H85 C79 0.929 . S
C86 O77 1.250 . S
C86 O78 1.258 . S
O87 Mn72 2.162 . S
O87 C75 1.281 . S
O88 Mn72 2.297 . S
O88 C75 1.236 . S
N89 Mn73 2.301 . S
N89 C90 1.328 . S
N89 C94 1.318 . S
C90 N89 1.328 . S
C90 C91 1.457 . S
C90 H95 0.929 . S
C91 C90 1.457 . S
C91 C92 1.291 . S
C91 H104 0.931 . S
C92 C91 1.291 . S
C92 C93 1.373 . S
C92 H105 0.929 . S
C93 C92 1.373 . S
C93 C94 1.396 . S
C93 C100 1.403 . S
C94 C84 1.476 . S
C94 N89 1.318 . S
C94 C93 1.396 . S
H95 C90 0.929 . S
O96 Mn72 2.385 1_655 S
O96 C74 1.234 . S
O97 Mn72 2.209 1_655 S
O97 Mn73 2.224 . S
O97 C74 1.283 . S
O98 Mn72 2.094 . S
O98 C76 1.240 . S
O99 Mn73 2.117 . S
O99 C76 1.263 1_655 S
C100 C93 1.403 . S
C100 C101 1.399 . S
C100 H106 0.929 . S
C101 C81 1.449 . S
C101 C100 1.399 . S
C101 H107 0.930 . S
H102 C82 0.931 . S
H103 C83 0.930 1_455 S
H104 C91 0.931 . S
H105 C92 0.929 . S
H106 C100 0.929 . S
H107 C101 0.930 . S
Mn108 O113 2.095 1_455 S
Mn108 O123 2.162 . S
Mn108 O124 2.297 . S
Mn108 O132 2.385 . S
Mn108 O133 2.209 . S
Mn108 O134 2.094 . S
Mn109 O114 2.121 1_455 S
Mn109 N116 2.257 . S
Mn109 N125 2.282 . S
Mn109 O133 2.215 . S
Mn109 O135 2.117 . S
C110 O132 1.234 . S
C110 O133 1.283 . S
C111 O123 1.281 . S
C111 O124 1.236 . S
C112 O134 1.240 . S
C112 O135 1.264 . S
O113 Mn108 2.095 1_655 S
O113 C122 1.250 . S
O114 Mn109 2.121 1_655 S
O114 C122 1.258 . S
C115 N116 1.332 . S
C115 C119 1.462 . S
C115 H121 0.921 1_455 S
N116 Mn109 2.257 . S
N116 C115 1.332 . S
N116 C120 1.362 . S
C117 C118 1.258 . S
C117 C120 1.431 . S
C117 C137 1.449 . S
C118 C117 1.258 . S
C118 C119 1.477 . S
C118 H138 0.931 . S
C119 C115 1.462 . S
C119 C118 1.477 . S
C119 H139 0.930 1_455 S
C120 N116 1.362 . S
C120 C117 1.431 . S
C120 C130 1.476 . S
H121 C115 0.921 1_655 S
C122 O113 1.250 . S
C122 O114 1.258 . S
O123 Mn108 2.162 . S
O123 C111 1.281 . S
O124 Mn108 2.297 . S
O124 C111 1.236 . S
N125 Mn109 2.282 . S
N125 C126 1.328 . S
N125 C130 1.318 . S
C126 N125 1.328 . S
C126 C127 1.457 . S
C126 H131 0.929 . S
C127 C126 1.457 . S
C127 C128 1.291 . S
C127 H140 0.931 . S
C128 C127 1.291 . S
C128 C129 1.373 . S
C128 H141 0.929 . S
C129 C128 1.373 . S
C129 C130 1.396 . S
C129 C136 1.403 . S
C130 C120 1.476 . S
C130 N125 1.318 . S
C130 C129 1.396 . S
H131 C126 0.929 . S
O132 Mn108 2.385 . S
O132 C110 1.234 . S
O133 Mn108 2.209 . S
O133 Mn109 2.215 . S
O133 C110 1.283 . S
O134 Mn108 2.094 . S
O134 C112 1.240 . S
O135 Mn109 2.117 . S
O135 C112 1.264 . S
C136 C129 1.403 . S
C136 C137 1.399 . S
C136 H142 0.929 . S
C137 C117 1.449 . S
C137 C136 1.399 . S
C137 H143 0.930 . S
H138 C118 0.931 . S
H139 C119 0.930 1_655 S
H140 C127 0.931 . S
H141 C128 0.929 . S
H142 C136 0.929 . S
H143 C137 0.930 . S
Mn144 O149 2.095 . S
Mn144 O159 2.162 . S
Mn144 O160 2.297 . S
Mn144 O168 2.385 . S
Mn144 O169 2.209 . S
Mn144 O170 2.094 . S
Mn145 O150 2.121 . S
Mn145 N152 2.257 . S
Mn145 N161 2.282 . S
Mn145 O169 2.215 . S
Mn145 O171 2.117 . S
C146 O168 1.234 . S
C146 O169 1.283 . S
C147 O159 1.281 . S
C147 O160 1.236 . S
C148 O170 1.240 . S
C148 O171 1.264 . S
O149 Mn144 2.095 . S
O149 C158 1.250 . S
O150 Mn145 2.121 . S
O150 C158 1.258 . S
C151 N152 1.326 . S
C151 C155 1.460 . S
C151 H157 0.929 . S
N152 Mn145 2.257 . S
N152 C151 1.326 . S
N152 C156 1.362 . S
C153 C154 1.258 . S
C153 C156 1.431 . S
C153 C173 1.449 . S
C154 C153 1.258 . S
C154 C155 1.477 . S
C154 H174 0.931 . S
C155 C151 1.460 . S
C155 C154 1.477 . S
C155 H175 0.930 . S
C156 N152 1.362 . S
C156 C153 1.431 . S
C156 C166 1.476 . S
H157 C151 0.929 . S
C158 O149 1.250 . S
C158 O150 1.258 . S
O159 Mn144 2.162 . S
O159 C147 1.281 . S
O160 Mn144 2.297 . S
O160 C147 1.236 . S
N161 Mn145 2.282 . S
N161 C162 1.328 . S
N161 C166 1.318 . S
C162 N161 1.328 . S
C162 C163 1.457 . S
C162 H167 0.929 . S
C163 C162 1.457 . S
C163 C164 1.291 . S
C163 H176 0.931 . S
C164 C163 1.291 . S
C164 C165 1.373 . S
C164 H177 0.929 . S
C165 C164 1.373 . S
C165 C166 1.396 . S
C165 C172 1.403 . S
C166 C156 1.476 . S
C166 N161 1.318 . S
C166 C165 1.396 . S
H167 C162 0.929 . S
O168 Mn144 2.385 . S
O168 C146 1.234 . S
O169 Mn144 2.209 . S
O169 Mn145 2.215 . S
O169 C146 1.283 . S
O170 Mn144 2.094 . S
O170 C148 1.240 . S
O171 Mn145 2.117 . S
O171 C148 1.264 . S
C172 C165 1.403 . S
C172 C173 1.399 . S
C172 H178 0.929 . S
C173 C153 1.449 . S
C173 C172 1.399 . S
C173 H179 0.930 . S
H174 C154 0.931 . S
H175 C155 0.930 . S
H176 C163 0.931 . S
H177 C164 0.929 . S
H178 C172 0.929 . S
H179 C173 0.930 . S
Mn180 O185 2.095 . S
Mn180 O195 2.162 . S
Mn180 O196 2.297 . S
Mn180 O204 2.385 . S
Mn180 O205 2.209 . S
Mn180 O206 2.094 . S
Mn181 O186 2.121 . S
Mn181 N188 2.257 . S
Mn181 N197 2.282 . S
Mn181 O205 2.215 . S
Mn181 O207 2.117 . S
C182 O204 1.234 . S
C182 O205 1.283 . S
C183 O195 1.281 . S
C183 O196 1.236 . S
C184 O206 1.240 . S
C184 O207 1.264 . S
O185 Mn180 2.095 . S
O185 C194 1.250 . S
O186 Mn181 2.121 . S
O186 C194 1.258 . S
C187 N188 1.326 . S
C187 C191 1.460 . S
C187 H193 0.929 . S
N188 Mn181 2.257 . S
N188 C187 1.326 . S
N188 C192 1.362 . S
C189 C190 1.258 . S
C189 C192 1.431 . S
C189 C209 1.449 . S
C190 C189 1.258 . S
C190 C191 1.477 . S
C190 H210 0.931 . S
C191 C187 1.460 . S
C191 C190 1.477 . S
C191 H211 0.930 . S
C192 N188 1.362 . S
C192 C189 1.431 . S
C192 C202 1.476 . S
H193 C187 0.929 . S
C194 O185 1.250 . S
C194 O186 1.258 . S
O195 Mn180 2.162 . S
O195 C183 1.281 . S
O196 Mn180 2.297 . S
O196 C183 1.236 . S
N197 Mn181 2.282 . S
N197 C198 1.328 . S
N197 C202 1.318 . S
C198 N197 1.328 . S
C198 C199 1.457 . S
C198 H203 0.929 . S
C199 C198 1.457 . S
C199 C200 1.291 . S
C199 H212 0.931 . S
C200 C199 1.291 . S
C200 C201 1.373 . S
C200 H213 0.929 . S
C201 C200 1.373 . S
C201 C202 1.396 . S
C201 C208 1.403 . S
C202 C192 1.476 . S
C202 N197 1.318 . S
C202 C201 1.396 . S
H203 C198 0.929 . S
O204 Mn180 2.385 . S
O204 C182 1.234 . S
O205 Mn180 2.209 . S
O205 Mn181 2.215 . S
O205 C182 1.283 . S
O206 Mn180 2.094 . S
O206 C184 1.240 . S
O207 Mn181 2.117 . S
O207 C184 1.264 . S
C208 C201 1.403 . S
C208 C209 1.399 . S
C208 H214 0.929 . S
C209 C189 1.449 . S
C209 C208 1.399 . S
C209 H215 0.930 . S
H210 C190 0.931 . S
H211 C191 0.930 . S
H212 C199 0.931 . S
H213 C200 0.929 . S
H214 C208 0.929 . S
H215 C209 0.930 . S
Mn216 O221 2.095 . S
Mn216 O231 2.162 . S
Mn216 O232 2.297 . S
Mn216 O240 2.385 . S
Mn216 O241 2.209 . S
Mn216 O242 2.094 . S
Mn217 O222 2.121 . S
Mn217 N224 2.257 . S
Mn217 N233 2.282 . S
Mn217 O241 2.215 . S
Mn217 O243 2.117 . S
C218 O240 1.234 . S
C218 O241 1.283 . S
C219 O231 1.281 . S
C219 O232 1.236 . S
C220 O242 1.240 . S
C220 O243 1.264 . S
O221 Mn216 2.095 . S
O221 C230 1.250 . S
O222 Mn217 2.121 . S
O222 C230 1.258 . S
C223 N224 1.326 . S
C223 C227 1.460 . S
C223 H229 0.929 . S
N224 Mn217 2.257 . S
N224 C223 1.326 . S
N224 C228 1.362 . S
C225 C226 1.258 . S
C225 C228 1.431 . S
C225 C245 1.449 . S
C226 C225 1.258 . S
C226 C227 1.477 . S
C226 H246 0.931 . S
C227 C223 1.460 . S
C227 C226 1.477 . S
C227 H247 0.930 . S
C228 N224 1.362 . S
C228 C225 1.431 . S
C228 C238 1.476 . S
H229 C223 0.929 . S
C230 O221 1.250 . S
C230 O222 1.258 . S
O231 Mn216 2.162 . S
O231 C219 1.281 . S
O232 Mn216 2.297 . S
O232 C219 1.236 . S
N233 Mn217 2.282 . S
N233 C234 1.328 . S
N233 C238 1.318 . S
C234 N233 1.328 . S
C234 C235 1.457 . S
C234 H239 0.929 . S
C235 C234 1.457 . S
C235 C236 1.291 . S
C235 H248 0.931 . S
C236 C235 1.291 . S
C236 C237 1.373 . S
C236 H249 0.929 . S
C237 C236 1.373 . S
C237 C238 1.396 . S
C237 C244 1.403 . S
C238 C228 1.476 . S
C238 N233 1.318 . S
C238 C237 1.396 . S
H239 C234 0.929 . S
O240 Mn216 2.385 . S
O240 C218 1.234 . S
O241 Mn216 2.209 . S
O241 Mn217 2.215 . S
O241 C218 1.283 . S
O242 Mn216 2.094 . S
O242 C220 1.240 . S
O243 Mn217 2.117 . S
O243 C220 1.264 . S
C244 C237 1.403 . S
C244 C245 1.399 . S
C244 H250 0.929 . S
C245 C225 1.449 . S
C245 C244 1.399 . S
C245 H251 0.930 . S
H246 C226 0.931 . S
H247 C227 0.930 . S
H248 C235 0.931 . S
H249 C236 0.929 . S
H250 C244 0.929 . S
H251 C245 0.930 . S
Mn252 O257 2.095 . S
Mn252 O267 2.162 . S
Mn252 O268 2.297 . S
Mn252 O276 2.385 . S
Mn252 O277 2.209 . S
Mn252 O278 2.094 . S
Mn253 O258 2.121 . S
Mn253 N260 2.257 . S
Mn253 N269 2.282 . S
Mn253 O277 2.215 . S
Mn253 O279 2.117 . S
C254 O276 1.234 . S
C254 O277 1.283 . S
C255 O267 1.281 . S
C255 O268 1.236 . S
C256 O278 1.240 . S
C256 O279 1.264 . S
O257 Mn252 2.095 . S
O257 C266 1.250 . S
O258 Mn253 2.121 . S
O258 C266 1.258 . S
C259 N260 1.326 . S
C259 C263 1.460 . S
C259 H265 0.929 . S
N260 Mn253 2.257 . S
N260 C259 1.326 . S
N260 C264 1.362 . S
C261 C262 1.258 . S
C261 C264 1.431 . S
C261 C281 1.449 . S
C262 C261 1.258 . S
C262 C263 1.477 . S
C262 H282 0.931 . S
C263 C259 1.460 . S
C263 C262 1.477 . S
C263 H283 0.930 . S
C264 N260 1.362 . S
C264 C261 1.431 . S
C264 C274 1.476 . S
H265 C259 0.929 . S
C266 O257 1.250 . S
C266 O258 1.258 . S
O267 Mn252 2.162 . S
O267 C255 1.281 . S
O268 Mn252 2.297 . S
O268 C255 1.236 . S
N269 Mn253 2.282 . S
N269 C270 1.328 . S
N269 C274 1.318 . S
C270 N269 1.328 . S
C270 C271 1.457 . S
C270 H275 0.929 . S
C271 C270 1.457 . S
C271 C272 1.291 . S
C271 H284 0.931 . S
C272 C271 1.291 . S
C272 C273 1.373 . S
C272 H285 0.929 . S
C273 C272 1.373 . S
C273 C274 1.396 . S
C273 C280 1.403 . S
C274 C264 1.476 . S
C274 N269 1.318 . S
C274 C273 1.396 . S
H275 C270 0.929 . S
O276 Mn252 2.385 . S
O276 C254 1.234 . S
O277 Mn252 2.209 . S
O277 Mn253 2.215 . S
O277 C254 1.283 . S
O278 Mn252 2.094 . S
O278 C256 1.240 . S
O279 Mn253 2.117 . S
O279 C256 1.264 . S
C280 C273 1.403 . S
C280 C281 1.399 . S
C280 H286 0.929 . S
C281 C261 1.449 . S
C281 C280 1.399 . S
C281 H287 0.930 . S
H282 C262 0.931 . S
H283 C263 0.930 . S
H284 C271 0.931 . S
H285 C272 0.929 . S
H286 C280 0.929 . S
H287 C281 0.930 . S
H288 C294 0.930 . S
H289 C298 0.930 . S
H290 C303 0.929 . S
H291 C301 0.929 . S
H292 C296 0.929 . S
H293 C302 0.929 . S
C294 H288 0.930 . S
C294 C295 1.367 1_655 S
C294 C302 1.378 . S
C295 C294 1.367 1_455 S
C295 C303 1.433 . S
C296 H292 0.929 . S
C296 C298 1.378 . S
C296 C300 1.350 . S
C297 C300 1.463 . S
C297 C302 1.350 1_455 S
C297 N305 1.427 . S
C298 H289 0.930 . S
C298 C296 1.378 . S
C298 C299 1.367 . S
C299 C298 1.367 . S
C299 C301 1.433 1_455 S
C300 C296 1.350 . S
C300 C297 1.463 . S
C300 N304 1.427 1_455 S
C301 H291 0.929 . S
C301 C299 1.433 1_655 S
C301 N304 1.384 . S
C302 H293 0.929 . S
C302 C294 1.378 . S
C302 C297 1.350 1_655 S
C303 H290 0.929 . S
C303 C295 1.433 . S
C303 N305 1.384 . S
N304 C300 1.427 1_655 S
N304 C301 1.384 . S
N305 C297 1.427 . S
N305 C303 1.384 . S
H306 C312 0.930 . S
H307 C316 0.930 . S
H308 C321 0.929 . S
H309 C319 0.929 . S
H310 C314 0.929 . S
H311 C320 0.929 . S
C312 H306 0.930 . S
C312 C313 1.363 1_655 S
C312 C320 1.378 . S
C313 C312 1.363 1_455 S
C313 C321 1.437 . S
C314 H310 0.929 . S
C314 C316 1.378 . S
C314 C318 1.350 . S
C315 C318 1.463 . S
C315 C320 1.350 1_455 S
C315 N323 1.427 . S
C316 H307 0.930 . S
C316 C314 1.378 . S
C316 C317 1.367 . S
C317 C316 1.367 . S
C317 C319 1.433 1_455 S
C318 C314 1.350 . S
C318 C315 1.463 . S
C318 N322 1.427 1_455 S
C319 H309 0.929 . S
C319 C317 1.433 1_655 S
C319 N322 1.384 . S
C320 H311 0.929 . S
C320 C312 1.378 . S
C320 C315 1.350 1_655 S
C321 H308 0.929 . S
C321 C313 1.437 . S
C321 N323 1.384 . S
N322 C318 1.427 1_655 S
N322 C319 1.384 . S
N323 C315 1.427 . S
N323 C321 1.384 . S
H324 C330 0.930 . S
H325 C334 0.930 . S
H326 C339 0.929 . S
H327 C337 0.929 . S
H328 C332 0.929 . S
H329 C338 0.929 . S
C330 H324 0.930 . S
C330 C331 1.367 . S
C330 C338 1.378 . S
C331 C330 1.367 . S
C331 C339 1.433 . S
C332 H328 0.929 . S
C332 C334 1.378 . S
C332 C336 1.350 . S
C333 C336 1.463 . S
C333 C338 1.350 . S
C333 N341 1.427 . S
C334 H325 0.930 . S
C334 C332 1.378 . S
C334 C335 1.367 . S
C335 C334 1.367 . S
C335 C337 1.433 . S
C336 C332 1.350 . S
C336 C333 1.463 . S
C336 N340 1.427 . S
C337 H327 0.929 . S
C337 C335 1.433 . S
C337 N340 1.384 . S
C338 H329 0.929 . S
C338 C330 1.378 . S
C338 C333 1.350 . S
C339 H326 0.929 . S
C339 C331 1.433 . S
C339 N341 1.384 . S
N340 C336 1.427 . S
N340 C337 1.384 . S
N341 C333 1.427 . S
N341 C339 1.384 . S
H342 C348 0.930 . S
H343 C352 0.930 . S
H344 C357 0.929 . S
H345 C355 0.929 . S
H346 C350 0.929 . S
H347 C356 0.929 . S
C348 H342 0.930 . S
C348 C349 1.367 . S
C348 C356 1.378 . S
C349 C348 1.367 . S
C349 C357 1.433 . S
C350 H346 0.929 . S
C350 C352 1.378 . S
C350 C354 1.350 . S
C351 C354 1.463 . S
C351 C356 1.350 . S
C351 N359 1.427 . S
C352 H343 0.930 . S
C352 C350 1.378 . S
C352 C353 1.367 . S
C353 C352 1.367 . S
C353 C355 1.433 . S
C354 C350 1.350 . S
C354 C351 1.463 . S
C354 N358 1.427 . S
C355 H345 0.929 . S
C355 C353 1.433 . S
C355 N358 1.384 . S
C356 H347 0.929 . S
C356 C348 1.378 . S
C356 C351 1.350 . S
C357 H344 0.929 . S
C357 C349 1.433 . S
C357 N359 1.384 . S
N358 C354 1.427 . S
N358 C355 1.384 . S
N359 C351 1.427 . S
N359 C357 1.384 . S
H360 C366 0.930 . S
H361 C370 0.930 . S
H362 C375 0.929 . S
H363 C373 0.929 . S
H364 C368 0.929 . S
H365 C374 0.929 . S
C366 H360 0.930 . S
C366 C367 1.367 . S
C366 C374 1.378 . S
C367 C366 1.367 . S
C367 C375 1.433 . S
C368 H364 0.929 . S
C368 C370 1.378 . S
C368 C372 1.350 . S
C369 C372 1.463 . S
C369 C374 1.350 . S
C369 N377 1.427 . S
C370 H361 0.930 . S
C370 C368 1.378 . S
C370 C371 1.367 . S
C371 C370 1.367 . S
C371 C373 1.433 . S
C372 C368 1.350 . S
C372 C369 1.463 . S
C372 N376 1.427 . S
C373 H363 0.929 . S
C373 C371 1.433 . S
C373 N376 1.384 . S
C374 H365 0.929 . S
C374 C366 1.378 . S
C374 C369 1.350 . S
C375 H362 0.929 . S
C375 C367 1.433 . S
C375 N377 1.384 . S
N376 C372 1.427 . S
N376 C373 1.384 . S
N377 C369 1.427 . S
N377 C375 1.384 . S
H378 C384 0.930 . S
H379 C388 0.930 . S
H380 C393 0.929 . S
H381 C391 0.929 . S
H382 C386 0.929 . S
H383 C392 0.929 . S
C384 H378 0.930 . S
C384 C385 1.367 . S
C384 C392 1.378 . S
C385 C384 1.367 . S
C385 C393 1.433 . S
C386 H382 0.929 . S
C386 C388 1.378 . S
C386 C390 1.350 . S
C387 C390 1.463 . S
C387 C392 1.350 . S
C387 N395 1.427 . S
C388 H379 0.930 . S
C388 C386 1.378 . S
C388 C389 1.367 . S
C389 C388 1.367 . S
C389 C391 1.433 . S
C390 C386 1.350 . S
C390 C387 1.463 . S
C390 N394 1.427 . S
C391 H381 0.929 . S
C391 C389 1.433 . S
C391 N394 1.384 . S
C392 H383 0.929 . S
C392 C384 1.378 . S
C392 C387 1.350 . S
C393 H380 0.929 . S
C393 C385 1.433 . S
C393 N395 1.384 . S
N394 C390 1.427 . S
N394 C391 1.384 . S
N395 C387 1.427 . S
N395 C393 1.384 . S
H396 C402 0.930 . S
H397 C406 0.930 . S
H398 C411 0.929 . S
H399 C409 0.929 . S
H400 C404 0.929 . S
H401 C410 0.929 . S
C402 H396 0.930 . S
C402 C403 1.367 . S
C402 C410 1.378 . S
C403 C402 1.367 . S
C403 C411 1.433 . S
C404 H400 0.929 . S
C404 C406 1.378 . S
C404 C408 1.350 . S
C405 C408 1.463 . S
C405 C410 1.350 . S
C405 N413 1.427 . S
C406 H397 0.930 . S
C406 C404 1.378 . S
C406 C407 1.367 . S
C407 C406 1.367 . S
C407 C409 1.433 . S
C408 C404 1.350 . S
C408 C405 1.463 . S
C408 N412 1.427 . S
C409 H399 0.929 . S
C409 C407 1.433 . S
C409 N412 1.384 . S
C410 H401 0.929 . S
C410 C402 1.378 . S
C410 C405 1.350 . S
C411 H398 0.929 . S
C411 C403 1.433 . S
C411 N413 1.384 . S
N412 C408 1.427 . S
N412 C409 1.384 . S
N413 C405 1.427 . S
N413 C411 1.384 . S
H414 C420 0.930 . S
H415 C424 0.930 . S
H416 C429 0.929 . S
H417 C427 0.929 . S
H418 C422 0.929 . S
H419 C428 0.929 . S
C420 H414 0.930 . S
C420 C421 1.367 . S
C420 C428 1.378 . S
C421 C420 1.367 . S
C421 C429 1.433 . S
C422 H418 0.929 . S
C422 C424 1.378 . S
C422 C426 1.350 . S
C423 C426 1.463 . S
C423 C428 1.350 . S
C423 N431 1.427 . S
C424 H415 0.930 . S
C424 C422 1.378 . S
C424 C425 1.367 . S
C425 C424 1.367 . S
C425 C427 1.433 . S
C426 C422 1.350 . S
C426 C423 1.463 . S
C426 N430 1.427 . S
C427 H417 0.929 . S
C427 C425 1.433 . S
C427 N430 1.384 . S
C428 H419 0.929 . S
C428 C420 1.378 . S
C428 C423 1.350 . S
C429 H416 0.929 . S
C429 C421 1.433 . S
C429 N431 1.384 . S
N430 C426 1.427 . S
N430 C427 1.384 . S
N431 C423 1.427 . S
N431 C429 1.384 . S
H432 C438 0.930 . S
H433 C442 0.930 . S
H434 C447 0.929 . S
H435 C445 0.929 . S
H436 C440 0.929 . S
H437 C446 0.929 . S
C438 H432 0.930 . S
C438 C439 1.367 . S
C438 C446 1.378 . S
C439 C438 1.367 . S
C439 C447 1.433 . S
C440 H436 0.929 . S
C440 C442 1.378 . S
C440 C444 1.350 . S
C441 C444 1.463 . S
C441 C446 1.350 . S
C441 N449 1.427 . S
C442 H433 0.930 . S
C442 C440 1.378 . S
C442 C443 1.367 . S
C443 C442 1.367 . S
C443 C445 1.433 . S
C444 C440 1.350 . S
C444 C441 1.463 . S
C444 N448 1.427 . S
C445 H435 0.929 . S
C445 C443 1.433 . S
C445 N448 1.384 . S
C446 H437 0.929 . S
C446 C438 1.378 . S
C446 C441 1.350 . S
C447 H434 0.929 . S
C447 C439 1.433 . S
C447 N449 1.384 . S
N448 C444 1.427 . S
N448 C445 1.384 . S
N449 C441 1.427 . S
N449 C447 1.384 . S
H450 C456 0.930 . S
H451 C460 0.930 . S
H452 C465 0.929 . S
H453 C463 0.929 . S
H454 C458 0.929 . S
H455 C464 0.929 . S
C456 H450 0.930 . S
C456 C457 1.367 . S
C456 C464 1.378 . S
C457 C456 1.367 . S
C457 C465 1.433 . S
C458 H454 0.929 . S
C458 C460 1.378 . S
C458 C462 1.350 . S
C459 C462 1.463 . S
C459 C464 1.350 . S
C459 N467 1.427 . S
C460 H451 0.930 . S
C460 C458 1.378 . S
C460 C461 1.367 . S
C461 C460 1.367 . S
C461 C463 1.433 . S
C462 C458 1.350 . S
C462 C459 1.463 . S
C462 N466 1.427 . S
C463 H453 0.929 . S
C463 C461 1.433 . S
C463 N466 1.384 . S
C464 H455 0.929 . S
C464 C456 1.378 . S
C464 C459 1.350 . S
C465 H452 0.929 . S
C465 C457 1.433 . S
C465 N467 1.384 . S
N466 C462 1.427 . S
N466 C463 1.384 . S
N467 C459 1.427 . S
N467 C465 1.384 . S
H468 C474 0.930 . S
H469 C478 0.930 . S
H470 C483 0.929 . S
H471 C481 0.929 . S
H472 C476 0.929 . S
H473 C482 0.929 . S
C474 H468 0.930 . S
C474 C475 1.367 . S
C474 C482 1.378 . S
C475 C474 1.367 . S
C475 C483 1.433 . S
C476 H472 0.929 . S
C476 C478 1.378 . S
C476 C480 1.350 . S
C477 C480 1.463 . S
C477 C482 1.350 . S
C477 N485 1.427 . S
C478 H469 0.930 . S
C478 C476 1.378 . S
C478 C479 1.367 . S
C479 C478 1.367 . S
C479 C481 1.433 . S
C480 C476 1.350 . S
C480 C477 1.463 . S
C480 N484 1.427 . S
C481 H471 0.929 . S
C481 C479 1.433 . S
C481 N484 1.384 . S
C482 H473 0.929 . S
C482 C474 1.378 . S
C482 C477 1.350 . S
C483 H470 0.929 . S
C483 C475 1.433 . S
C483 N485 1.384 . S
N484 C480 1.427 . S
N484 C481 1.384 . S
N485 C477 1.427 . S
N485 C483 1.384 . S
H486 C492 0.930 . S
H487 C496 0.930 . S
H488 C501 0.929 . S
H489 C499 0.929 . S
H490 C494 0.929 . S
H491 C500 0.929 . S
C492 H486 0.930 . S
C492 C493 1.367 . S
C492 C500 1.378 . S
C493 C492 1.367 . S
C493 C501 1.433 . S
C494 H490 0.929 . S
C494 C496 1.378 . S
C494 C498 1.350 . S
C495 C498 1.463 . S
C495 C500 1.350 . S
C495 N503 1.427 . S
C496 H487 0.930 . S
C496 C494 1.378 . S
C496 C497 1.367 . S
C497 C496 1.367 . S
C497 C499 1.433 . S
C498 C494 1.350 . S
C498 C495 1.463 . S
C498 N502 1.427 . S
C499 H489 0.929 . S
C499 C497 1.433 . S
C499 N502 1.384 . S
C500 H491 0.929 . S
C500 C492 1.378 . S
C500 C495 1.350 . S
C501 H488 0.929 . S
C501 C493 1.433 . S
C501 N503 1.384 . S
N502 C498 1.427 . S
N502 C499 1.384 . S
N503 C495 1.427 . S
N503 C501 1.384 . S
H504 C510 0.930 . S
H505 C514 0.930 . S
H506 C519 0.929 . S
H507 C517 0.929 . S
H508 C512 0.929 1_554 S
H509 C518 0.929 1_556 S
C510 H504 0.930 . S
C510 C511 1.367 . S
C510 C518 1.378 . S
C511 C510 1.367 . S
C511 C519 1.433 1_455 S
C512 H508 0.929 1_556 S
C512 C514 1.378 . S
C512 C516 1.350 1_655 S
C513 C516 1.463 1_544 S
C513 C518 1.350 . S
C513 N521 1.427 1_455 S
C514 H505 0.930 . S
C514 C512 1.378 . S
C514 C515 1.367 1_655 S
C515 C514 1.367 1_455 S
C515 C517 1.433 . S
C516 C512 1.350 1_455 S
C516 C513 1.463 1_566 S
C516 N520 1.427 . S
C517 H507 0.929 . S
C517 C515 1.433 . S
C517 N520 1.384 . S
C518 H509 0.929 1_554 S
C518 C510 1.378 . S
C518 C513 1.350 . S
C519 H506 0.929 . S
C519 C511 1.433 1_655 S
C519 N521 1.384 . S
N520 C516 1.427 . S
N520 C517 1.384 . S
N521 C513 1.427 1_655 S
N521 C519 1.384 . S
H522 C528 0.930 . S
H523 C532 0.930 . S
H524 C537 0.929 . S
H525 C535 0.929 . S
H526 C530 0.929 1_556 S
H527 C536 0.929 1_554 S
C528 H522 0.930 . S
C528 C529 1.367 1_655 S
C528 C536 1.378 . S
C529 C528 1.367 1_455 S
C529 C537 1.433 . S
C530 H526 0.929 1_554 S
C530 C532 1.378 . S
C530 C534 1.350 . S
C531 C534 1.463 1_556 S
C531 C536 1.350 1_455 S
C531 N539 1.427 . S
C532 H523 0.930 . S
C532 C530 1.378 . S
C532 C533 1.367 . S
C533 C532 1.367 . S
C533 C535 1.433 1_455 S
C534 C530 1.350 . S
C534 C531 1.463 1_554 S
C534 N538 1.427 1_455 S
C535 H525 0.929 . S
C535 C533 1.433 1_655 S
C535 N538 1.384 . S
C536 H527 0.929 1_556 S
C536 C528 1.378 . S
C536 C531 1.350 1_655 S
C537 H524 0.929 . S
C537 C529 1.433 . S
C537 N539 1.384 . S
N538 C534 1.427 1_655 S
N538 C535 1.384 . S
N539 C531 1.427 . S
N539 C537 1.384 . S
H540 C546 0.930 . S
H541 C550 0.930 . S
H542 C555 0.929 . S
H543 C553 0.929 . S
H544 C548 0.929 . S
H545 C554 0.929 . S
C546 H540 0.930 . S
C546 C547 1.367 . S
C546 C554 1.378 . S
C547 C546 1.367 . S
C547 C555 1.433 . S
C548 H544 0.929 . S
C548 C550 1.378 . S
C548 C552 1.350 . S
C549 C552 1.463 . S
C549 C554 1.350 . S
C549 N557 1.427 . S
C550 H541 0.930 . S
C550 C548 1.378 . S
C550 C551 1.367 . S
C551 C550 1.367 . S
C551 C553 1.433 . S
C552 C548 1.350 . S
C552 C549 1.463 . S
C552 N556 1.427 . S
C553 H543 0.929 . S
C553 C551 1.433 . S
C553 N556 1.384 . S
C554 H545 0.929 . S
C554 C546 1.378 . S
C554 C549 1.350 . S
C555 H542 0.929 . S
C555 C547 1.433 . S
C555 N557 1.384 . S
N556 C552 1.427 . S
N556 C553 1.384 . S
N557 C549 1.427 . S
N557 C555 1.384 . S
H558 C564 0.930 . S
H559 C568 0.930 . S
H560 C573 0.929 . S
H561 C571 0.929 . S
H562 C566 0.929 1_565 S
H563 C572 0.929 1_545 S
C564 H558 0.930 . S
C564 C565 1.367 . S
C564 C572 1.378 . S
C565 C564 1.367 . S
C565 C573 1.433 . S
C566 H562 0.929 1_545 S
C566 C568 1.378 . S
C566 C570 1.350 . S
C567 C570 1.463 1_565 S
C567 C572 1.350 . S
C567 N575 1.427 . S
C568 H559 0.930 . S
C568 C566 1.378 . S
C568 C569 1.367 . S
C569 C568 1.367 . S
C569 C571 1.433 . S
C570 C566 1.350 . S
C570 C567 1.463 1_545 S
C570 N574 1.427 . S
C571 H561 0.929 . S
C571 C569 1.433 . S
C571 N574 1.384 . S
C572 H563 0.929 1_565 S
C572 C564 1.378 . S
C572 C567 1.350 . S
C573 H560 0.929 . S
C573 C565 1.433 . S
C573 N575 1.384 . S
N574 C570 1.427 . S
N574 C571 1.384 . S
N575 C567 1.427 . S
N575 C573 1.384 . S
C295 C39 1.434 . S
C299 C3 1.432 . S
C313 C75 1.436 . S
C317 C111 1.433 . S
C331 C147 1.432 . S
C335 C183 1.434 . S
C349 C219 1.436 . S
C353 C255 1.435 . S
C367 C266 1.325 . S
C371 C14 1.319 . S
C385 C230 1.317 . S
C389 C50 1.327 . S
C403 C86 1.320 . S
C407 C194 1.323 . S
C421 C158 1.320 . S
C425 C122 1.323 . S
C439 C182 1.464 . S
C443 C74 1.461 . S
C457 C146 1.456 . S
C461 C110 1.462 . S
C475 C254 1.463 . S
C479 C2 1.458 . S
C493 C38 1.459 . S
C497 C218 1.454 . S
C511 C4 1.323 . S
C515 C76 1.322 . S
C529 C112 1.323 . S
C533 C40 1.321 . S
C547 C220 1.323 . S
C551 C148 1.323 . S
C565 C184 1.316 . S
C569 C256 1.317 . S
