# Generated by pormake.
# Topology wkd, (5)-cn, num edge types: 1
# Building blocks:
#     Node 0, Type 0, BuildingBlock: BEQFEK_clean_sbu_0, # of connection points: 5
#     Node 1, Type 0, BuildingBlock: BEQFEK_clean_sbu_0, # of connection points: 5
#     Node 2, Type 0, BuildingBlock: BEQFEK_clean_sbu_0, # of connection points: 5
#     Node 3, Type 0, BuildingBlock: BEQFEK_clean_sbu_0, # of connection points: 5
#     Node 4, Type 0, BuildingBlock: BEQFEK_clean_sbu_0, # of connection points: 5
#     Node 5, Type 0, BuildingBlock: BEQFEK_clean_sbu_0, # of connection points: 5
#     Node 6, Type 0, BuildingBlock: BEQFEK_clean_sbu_0, # of connection points: 5
#     Node 7, Type 0, BuildingBlock: BEQFEK_clean_sbu_0, # of connection points: 5
#     Node 8, Type 0, BuildingBlock: BEQFEK_clean_sbu_0, # of connection points: 5
#     Node 9, Type 0, BuildingBlock: BEQFEK_clean_sbu_0, # of connection points: 5
#     Node 10, Type 0, BuildingBlock: BEQFEK_clean_sbu_0, # of connection points: 5
#     Node 11, Type 0, BuildingBlock: BEQFEK_clean_sbu_0, # of connection points: 5
#     Edge 12, Type (0, 0), BuildingBlock: UVAHIK_clean_linker_0, # of connection points: 2
#     Edge 13, Type (0, 0), BuildingBlock: UVAHIK_clean_linker_0, # of connection points: 2
#     Edge 14, Type (0, 0), BuildingBlock: UVAHIK_clean_linker_0, # of connection points: 2
#     Edge 15, Type (0, 0), BuildingBlock: UVAHIK_clean_linker_0, # of connection points: 2
#     Edge 16, Type (0, 0), BuildingBlock: UVAHIK_clean_linker_0, # of connection points: 2
#     Edge 17, Type (0, 0), BuildingBlock: UVAHIK_clean_linker_0, # of connection points: 2
#     Edge 18, Type (0, 0), BuildingBlock: UVAHIK_clean_linker_0, # of connection points: 2
#     Edge 19, Type (0, 0), BuildingBlock: UVAHIK_clean_linker_0, # of connection points: 2
#     Edge 20, Type (0, 0), BuildingBlock: UVAHIK_clean_linker_0, # of connection points: 2
#     Edge 21, Type (0, 0), BuildingBlock: UVAHIK_clean_linker_0, # of connection points: 2
#     Edge 22, Type (0, 0), BuildingBlock: UVAHIK_clean_linker_0, # of connection points: 2
#     Edge 23, Type (0, 0), BuildingBlock: UVAHIK_clean_linker_0, # of connection points: 2
#     Edge 24, Type (0, 0), BuildingBlock: UVAHIK_clean_linker_0, # of connection points: 2
#     Edge 25, Type (0, 0), BuildingBlock: UVAHIK_clean_linker_0, # of connection points: 2
#     Edge 26, Type (0, 0), BuildingBlock: UVAHIK_clean_linker_0, # of connection points: 2
#     Edge 27, Type (0, 0), BuildingBlock: UVAHIK_clean_linker_0, # of connection points: 2
#     Edge 28, Type (0, 0), BuildingBlock: UVAHIK_clean_linker_0, # of connection points: 2
#     Edge 29, Type (0, 0), BuildingBlock: UVAHIK_clean_linker_0, # of connection points: 2
#     Edge 30, Type (0, 0), BuildingBlock: UVAHIK_clean_linker_0, # of connection points: 2
#     Edge 31, Type (0, 0), BuildingBlock: UVAHIK_clean_linker_0, # of connection points: 2
#     Edge 32, Type (0, 0), BuildingBlock: UVAHIK_clean_linker_0, # of connection points: 2
#     Edge 33, Type (0, 0), BuildingBlock: UVAHIK_clean_linker_0, # of connection points: 2
#     Edge 34, Type (0, 0), BuildingBlock: UVAHIK_clean_linker_0, # of connection points: 2
#     Edge 35, Type (0, 0), BuildingBlock: UVAHIK_clean_linker_0, # of connection points: 2
#     Edge 36, Type (0, 0), BuildingBlock: UVAHIK_clean_linker_0, # of connection points: 2
#     Edge 37, Type (0, 0), BuildingBlock: UVAHIK_clean_linker_0, # of connection points: 2
#     Edge 38, Type (0, 0), BuildingBlock: UVAHIK_clean_linker_0, # of connection points: 2
#     Edge 39, Type (0, 0), BuildingBlock: UVAHIK_clean_linker_0, # of connection points: 2
#     Edge 40, Type (0, 0), BuildingBlock: UVAHIK_clean_linker_0, # of connection points: 2
#     Edge 41, Type (0, 0), BuildingBlock: UVAHIK_clean_linker_0, # of connection points: 2
# Relax obj value: 0.038
# Max RMSD: 0.098
# Mean RMSD: 0.098
data_MOF--net-wkd--node1-BEQFEK_clean_sbu_0--edge1-UVAHIK_clean_linker_0
_symmetry_space_group_name_H-M    P1
_symmetry_Int_Tables_number       1
_symmetry_cell_setting            triclinic
loop_
_symmetry_equiv_pos_as_xyz
'x, y, z'
_cell_length_a     30.100836
_cell_length_b     30.090236
_cell_length_c     172.25122
_cell_angle_alpha  89.976896
_cell_angle_beta   90.002667
_cell_angle_gamma 119.97167
loop_
_atom_site_label
_atom_site_type_symbol
_atom_site_fract_x
_atom_site_fract_y
_atom_site_fract_z
_atom_type_partial_charge
Co0 Co 0.99608 0.33274 0.04263 0.0
Co1 Co 0.04848 0.28384 0.05244 0.0
C2 C 0.96356 0.22142 0.04122 0.0
O3 O 0.95945 0.26012 0.03933 0.0
O4 O 0.99609 0.22503 0.04629 0.0
C5 C 0.91583 0.34909 0.03644 0.0
O6 O 0.88395 0.30276 0.03903 0.0
C7 C 0.05605 0.21758 0.06432 0.0
C8 C 0.13917 0.25939 0.0668 0.0
C9 C 0.09337 0.2167 0.069 0.0
N10 N 0.07895 0.25899 0.05968 0.0
N11 N 0.12868 0.28346 0.06113 0.0
C12 C -0.00082 0.18286 0.06467 0.0
H13 H 0.97922 0.20204 0.06213 0.0
H14 H 0.98642 0.17158 0.07076 0.0
H15 H 0.98859 0.14771 0.06125 0.0
C16 C 0.98264 0.36548 0.05824 0.0
N17 N 0.99694 0.33903 0.05356 0.0
N18 N 0.01978 0.31947 0.05771 0.0
C19 C 0.02115 0.3334 0.06519 0.0
C20 C 0.99747 0.36277 0.06577 0.0
C21 C 0.96014 0.39703 0.05541 0.0
H22 H 0.98353 0.42174 0.05054 0.0
H23 H 0.92087 0.3711 0.0532 0.0
H24 H 0.95833 0.4215 0.06008 0.0
O25 O 0.06694 0.36672 0.03861 0.0
O26 O 0.10411 0.3314 0.04536 0.0
H27 H 0.08635 0.3329 0.07005 0.0
H28 H 0.04494 0.33779 0.0772 0.0
C29 C 0.04599 0.32013 0.07161 0.0
H30 H 0.02546 0.27799 0.0724 0.0
H31 H 0.1553 0.31728 0.05837 0.0
O32 O 0.96366 0.36833 0.03758 0.0
C33 C 0.10592 0.36239 0.04017 0.0
Co34 Co 0.66256 0.00482 0.2093 0.0
Co35 Co 0.76374 0.05328 0.21912 0.0
C36 C 0.73989 0.97045 0.20748 0.0
O37 O 0.69773 0.9681 0.20568 0.0
O38 O 0.76922 0.00137 0.21267 0.0
C39 C 0.567 0.92598 0.20288 0.0
O40 O 0.58266 0.89442 0.20517 0.0
C41 C 0.83573 0.05746 0.23106 0.0
C42 C 0.88027 0.14064 0.23345 0.0
C43 C 0.87475 0.09391 0.23572 0.0
N44 N 0.81907 0.08176 0.22635 0.0
N45 N 0.84623 0.13149 0.22776 0.0
C46 C 0.81142 0.00032 0.23143 0.0
H47 H 0.77251 0.98173 0.22882 0.0
H48 H 0.809 0.98741 0.23754 0.0
H49 H 0.83511 0.9883 0.22808 0.0
C50 C 0.61651 0.98876 0.22493 0.0
N51 N 0.65725 0.00361 0.22023 0.0
N52 N 0.69945 0.02406 0.22443 0.0
C53 C 0.68663 0.02268 0.23197 0.0
C54 C 0.63373 -1e-05 0.23252 0.0
C55 C 0.56238 0.96586 0.22214 0.0
H56 H 0.55983 0.99191 0.21783 0.0
H57 H 0.55108 0.92895 0.21919 0.0
H58 H 0.53531 0.95873 0.22698 0.0
O59 O 0.70007 0.07619 0.2056 0.0
O60 O 0.77265 0.11073 0.21231 0.0
H61 H 0.75482 0.08607 0.23667 0.0
H62 H 0.70548 0.0507 0.24378 0.0
C63 C 0.72426 0.04733 0.23845 0.0
H64 H 0.74214 0.02377 0.2398 0.0
H65 H 0.84069 0.15908 0.22495 0.0
O66 O 0.59453 0.97362 0.20428 0.0
C67 C 0.74377 0.11428 0.20723 0.0
Co68 Co 0.66236 0.6715 0.37628 0.0
Co69 Co 0.71325 0.77105 0.38652 0.0
C70 C 0.77385 0.75147 0.37469 0.0
O71 O 0.73472 0.70895 0.37283 0.0
O72 O 0.77138 0.77986 0.37996 0.0
C73 C 0.61589 0.60121 0.36406 0.0
O74 O 0.62537 0.6435 0.36044 0.0
C75 C 0.78337 0.8492 0.39764 0.0
C76 C 0.73176 0.87229 0.40318 0.0
C77 C 0.78114 0.88011 0.40342 0.0
N78 N 0.73723 0.82401 0.39417 0.0
N79 N 0.70683 0.83858 0.39744 0.0
C80 C 0.82656 0.83946 0.39598 0.0
H81 H 0.81127 0.79892 0.39422 0.0
H82 H 0.85181 0.84815 0.40112 0.0
H83 H 0.84968 0.86442 0.3911 0.0
C84 C 0.63061 0.6227 0.3917 0.0
N85 N 0.65739 0.66417 0.38716 0.0
N86 N 0.68012 0.70554 0.39151 0.0
C87 C 0.66957 0.69142 0.39902 0.0
C88 C 0.63739 0.63854 0.3994 0.0
C89 C 0.5947 0.57025 0.38859 0.0
H90 H 0.57289 0.5732 0.38362 0.0
H91 H 0.61735 0.55288 0.38643 0.0
H92 H 0.56725 0.54485 0.39306 0.0
O93 O 0.62719 0.70822 0.3728 0.0
O94 O 0.66359 0.77944 0.37985 0.0
H95 H 0.66992 0.74987 0.40611 0.0
H96 H 0.68543 0.70716 0.41129 0.0
C97 C 0.69027 0.72776 0.40573 0.0
H98 H 0.73164 0.75487 0.40485 0.0
H99 H 0.66846 0.8241 0.39592 0.0
O100 O 0.62906 0.60374 0.37113 0.0
C101 C 0.63173 0.75118 0.37467 0.0
Co102 Co 0.98858 0.6706 0.54248 0.0
Co103 Co 0.93794 0.71888 0.55284 0.0
C104 C 0.0183 0.78124 0.541 0.0
O105 O 0.02267 0.74283 0.53902 0.0
O106 O 0.98726 0.77762 0.54633 0.0
C107 C 0.0677 0.65676 0.5353 0.0
O108 O 0.09912 0.70427 0.53746 0.0
C109 C 0.93263 0.78465 0.56504 0.0
C110 C 0.84977 0.74343 0.56772 0.0
C111 C 0.89602 0.78576 0.56985 0.0
N112 N 0.9089 0.74351 0.56036 0.0
N113 N 0.85935 0.71934 0.56194 0.0
C114 C 0.98955 0.81918 0.56522 0.0
H115 H 0.00902 0.79981 0.56257 0.0
H116 H 0.00311 0.83058 0.57127 0.0
H117 H -0.00019 0.85428 0.5618 0.0
C118 C 0.00743 0.63953 0.55785 0.0
N119 N 0.99133 0.6654 0.55338 0.0
N120 N 0.96992 0.68524 0.55779 0.0
C121 C 0.97182 0.6725 0.56525 0.0
C122 C 0.99581 0.64333 0.56552 0.0
C123 C 0.03185 0.61036 0.55476 0.0
H124 H 0.06706 0.63698 0.55152 0.0
H125 H 0.04223 0.59207 0.55947 0.0
H126 H 0.00518 0.58057 0.55065 0.0
O127 O 0.91662 0.63494 0.53903 0.0
O128 O 0.88036 0.66949 0.54617 0.0
H129 H 0.94384 0.66046 0.5771 0.0
H130 H 0.96785 0.72425 0.57332 0.0
C131 C 0.946 0.68288 0.57186 0.0
H132 H 0.90665 0.67303 0.57014 0.0
H133 H 0.83219 0.68581 0.55918 0.0
O134 O 0.02051 0.63569 0.53708 0.0
C135 C 0.87759 0.63829 0.54095 0.0
Co136 Co 0.32124 -0.00014 0.70947 0.0
Co137 Co 0.22079 0.94826 0.71947 0.0
C138 C 0.24191 0.03175 0.70804 0.0
O139 O 0.28457 0.03568 0.70611 0.0
O140 O 0.2135 -0.00014 0.71321 0.0
C141 C 0.41736 0.08002 0.70315 0.0
O142 O 0.40316 0.11196 0.7058 0.0
C143 C 0.14764 0.94093 0.73147 0.0
C144 C 0.10699 0.85789 0.73403 0.0
C145 C 0.10991 0.90366 0.7362 0.0
N146 N 0.16608 0.91803 0.72681 0.0
N147 N 0.14122 0.86835 0.72831 0.0
C148 C 0.16941 0.99779 0.73175 0.0
H149 H 0.2083 0.01785 0.72913 0.0
H150 H 0.17128 0.01082 0.73783 0.0
H151 H 0.14437 0.00794 0.72837 0.0
C152 C 0.36869 0.01505 0.725 0.0
N153 N 0.32755 0.00028 0.72039 0.0
N154 N 0.28554 0.97775 0.72462 0.0
C155 C 0.29876 0.97706 0.73209 0.0
C156 C 0.35183 0.00091 0.73257 0.0
C157 C 0.42244 0.0371 0.72207 0.0
H158 H 0.4232 0.0133 0.71721 0.0
H159 H 0.43578 0.07629 0.71981 0.0
H160 H 0.44904 0.03906 0.72669 0.0
O161 O 0.28454 0.92854 0.70565 0.0
O162 O 0.2125 0.89204 0.7125 0.0
H163 H 0.23374 0.91188 0.73709 0.0
H164 H 0.28054 0.95382 0.74414 0.0
C165 C 0.26127 0.95238 0.73859 0.0
H166 H 0.23953 0.97276 0.73941 0.0
H167 H 0.14846 0.84173 0.72556 0.0
O168 O 0.38881 0.03218 0.70429 0.0
C169 C 0.24139 0.8897 0.70731 0.0
Co170 Co 0.32474 0.3312 0.87608 0.0
Co171 Co 0.2733 0.22912 0.8857 0.0
C172 C 0.21331 0.25384 0.87433 0.0
O173 O 0.25274 0.29635 0.87257 0.0
O174 O 0.21556 0.22414 0.87939 0.0
C175 C 0.34185 0.42813 0.87008 0.0
O176 O 0.29555 0.41348 0.8727 0.0
C177 C 0.20482 0.15566 0.8974 0.0
C178 C 0.24479 0.11276 0.9001 0.0
C179 C 0.20252 0.11705 0.90214 0.0
N180 N 0.24664 0.17332 0.89287 0.0
N181 N 0.26997 0.14707 0.89444 0.0
C182 C 0.17119 0.17913 0.89763 0.0
H183 H 0.19141 0.21829 0.8951 0.0
H184 H 0.1595 0.18086 0.90368 0.0
H185 H 0.1362 0.15527 0.89414 0.0
C186 C 0.35589 0.37602 0.89178 0.0
N187 N 0.32958 0.33571 0.88702 0.0
N188 N 0.309 0.29301 0.8911 0.0
C189 C 0.32211 0.30495 0.89862 0.0
C190 C 0.35197 0.3579 0.8993 0.0
C191 C 0.38859 0.43012 0.88904 0.0
H192 H 0.41316 0.4311 0.88416 0.0
H193 H 0.36349 0.44457 0.88685 0.0
H194 H 0.41328 0.45573 0.89374 0.0
O195 O 0.35842 0.29388 0.87216 0.0
O196 O 0.32135 0.22071 0.87875 0.0
H197 H 0.31983 0.23826 0.90345 0.0
H198 H 0.32513 0.28455 0.91063 0.0
C199 C 0.30768 0.26635 0.905 0.0
H200 H 0.2655 0.24543 0.90572 0.0
H201 H 0.30388 0.15355 0.89179 0.0
O202 O 0.36115 0.39949 0.87114 0.0
C203 C 0.35327 0.25016 0.87367 0.0
Co204 Co 0.65898 0.99807 0.8227 0.0
Co205 Co 0.7127 0.94825 0.81339 0.0
C206 C 0.7694 0.03108 0.82523 0.0
O207 O 0.72986 0.03461 0.82671 0.0
O208 O 0.76815 -0.00043 0.82017 0.0
C209 C 0.6402 0.07724 0.82846 0.0
O210 O 0.68679 0.10911 0.82597 0.0
C211 C 0.78398 0.94318 0.80201 0.0
C212 C 0.74643 0.85957 0.80004 0.0
C213 C 0.78816 0.90594 0.79783 0.0
N214 N 0.74129 0.91975 0.8064 0.0
N215 N 0.71924 0.86979 0.80521 0.0
C216 C 0.82097 -0.00027 0.8021 0.0
H217 H 0.81336 0.01798 0.79708 0.0
H218 H 0.86095 0.00733 0.80162 0.0
H219 H 0.81658 0.01745 0.80746 0.0
C220 C 0.63199 0.0136 0.80679 0.0
N221 N 0.6572 -0.00079 0.81173 0.0
N222 N 0.6786 0.9773 0.80779 0.0
C223 C 0.66701 0.9765 0.80021 0.0
C224 C 0.63744 -0.00022 0.79933 0.0
C225 C 0.59861 0.03472 0.80932 0.0
H226 H 0.57296 0.01075 0.81407 0.0
H227 H 0.62316 0.07411 0.8116 0.0
H228 H 0.57499 0.03599 0.80447 0.0
O229 O 0.6242 0.92653 0.82641 0.0
O230 O 0.66253 0.89095 0.82002 0.0
H231 H 0.66927 0.91161 0.79558 0.0
H232 H 0.66582 0.95292 0.78825 0.0
C233 C 0.68211 0.95194 0.79397 0.0
H234 H 0.72437 0.9727 0.79344 0.0
H235 H 0.68543 0.8426 0.8079 0.0
O236 O 0.62132 0.02936 0.82741 0.0
C237 C 0.62947 0.88801 0.82492 0.0
Co238 Co 0.66425 0.6682 0.98933 0.0
Co239 Co 0.76662 0.72068 0.97975 0.0
C240 C 0.74227 0.77831 0.99172 0.0
O241 O 0.69901 0.73928 0.99328 0.0
O242 O 0.77179 0.77622 0.98662 0.0
C243 C 0.56691 0.64984 0.99526 0.0
O244 O 0.58157 0.69639 0.99274 0.0
C245 C 0.83956 0.7919 0.9681 0.0
C246 C 0.88869 0.75775 0.96608 0.0
C247 C 0.8813 0.79778 0.96382 0.0
N248 N 0.82273 0.74989 0.9726 0.0
N249 N 0.85241 0.72982 0.97137 0.0
C250 C 0.81747 0.8268 0.9682 0.0
H251 H 0.79501 0.8213 0.97356 0.0
H252 H 0.79136 0.81804 0.96318 0.0
H253 H 0.8485 0.86742 0.96772 0.0
C254 C 0.61994 0.64018 0.97354 0.0
N255 N 0.66006 0.66586 0.97837 0.0
N256 N 0.7029 0.68652 0.97432 0.0
C257 C 0.69132 0.67381 0.96678 0.0
C258 C 0.63839 0.64444 0.96604 0.0
C259 C 0.56572 0.60722 0.9762 0.0
H260 H 0.56435 0.58146 0.98092 0.0
H261 H 0.55148 0.63207 0.97858 0.0
H262 H 0.54015 0.58371 0.97141 0.0
O263 O 0.70147 0.63343 0.99292 0.0
O264 O 0.77443 0.67053 0.98627 0.0
H265 H 0.75847 0.67552 0.96227 0.0
H266 H 0.71247 0.66843 0.9549 0.0
C267 C 0.73028 0.68707 0.96049 0.0
H268 H 0.75105 0.72906 0.95957 0.0
H269 H 0.84786 0.69696 0.97414 0.0
O270 O 0.59576 0.63081 0.99419 0.0
C271 C 0.74481 0.63802 0.99128 0.0
Co272 Co 0.99569 0.67166 0.15595 0.0
Co273 Co 0.04507 0.77463 0.14649 0.0
C274 C 0.96199 0.74881 0.15827 0.0
O275 O 0.9588 0.70597 0.15985 0.0
O276 O 0.99342 0.77886 0.15319 0.0
C277 C 0.91711 0.57406 0.16194 0.0
O278 O 0.88494 0.58865 0.15954 0.0
C279 C 0.05033 0.85037 0.13496 0.0
C280 C 0.13401 0.89662 0.13309 0.0
C281 C 0.08771 0.89179 0.13079 0.0
N282 N 0.07363 0.83134 0.13943 0.0
N283 N 0.12363 0.85934 0.13829 0.0
C284 C 0.99376 0.83062 0.13496 0.0
H285 H 0.97594 0.80482 0.12992 0.0
H286 H 0.986 0.8629 0.13445 0.0
H287 H 0.97577 0.80841 0.14031 0.0
C288 C 0.98066 0.62828 0.14013 0.0
N289 N 0.99468 0.66814 0.14499 0.0
N290 N 0.01647 0.71118 0.14099 0.0
C291 C 0.01761 0.69997 0.13343 0.0
C292 C 0.99462 0.64709 0.13264 0.0
C293 C 0.95986 0.57401 0.14276 0.0
H294 H 0.98428 0.57279 0.14748 0.0
H295 H 0.9207 0.55936 0.14512 0.0
H296 H 0.95821 0.54871 0.13795 0.0
O297 O 0.06717 0.70889 0.15968 0.0
O298 O 0.10232 0.78243 0.15319 0.0
H299 H 0.0826 0.76689 0.12879 0.0
H300 H 0.04178 0.72163 0.12148 0.0
C301 C 0.0424 0.73925 0.12716 0.0
H302 H 0.02158 0.76066 0.12651 0.0
H303 H 0.15075 0.85291 0.14107 0.0
O304 O 0.96483 0.60296 0.16076 0.0
C305 C 0.10548 0.75271 0.15815 0.0
Co306 Co 0.3281 0.00675 0.32348 0.0
Co307 Co 0.27234 0.04829 0.3128 0.0
C308 C 0.21495 0.96867 0.32485 0.0
O309 O 0.25542 0.96817 0.32687 0.0
O310 O 0.21574 0.99777 0.31941 0.0
C311 C 0.3492 0.92996 0.32947 0.0
O312 O 0.30642 0.89769 0.32592 0.0
C313 C 0.20054 0.05165 0.3014 0.0
C314 C 0.24536 0.13197 0.29735 0.0
C315 C 0.19907 0.08702 0.29637 0.0
N316 N 0.24596 0.07472 0.30511 0.0
N317 N 0.27244 0.1227 0.30267 0.0
C318 C 0.15874 0.99809 0.30311 0.0
H319 H 0.17421 0.97152 0.30278 0.0
H320 H 0.12569 0.98528 0.29912 0.0
H321 H 0.14512 0.99657 0.30914 0.0
C322 C 0.36376 0.99208 0.30809 0.0
N323 N 0.33454 0.00416 0.31255 0.0
N324 N 0.30918 0.01928 0.30807 0.0
C325 C 0.32033 0.01592 0.3006 0.0
C326 C 0.35572 -0.00096 0.30034 0.0
C327 C 0.40279 0.97989 0.31125 0.0
H328 H 0.42002 0.00213 0.31662 0.0
H329 H 0.38368 0.93843 0.31268 0.0
H330 H 0.43377 0.98887 0.30698 0.0
O331 O 0.35832 0.07846 0.32691 0.0
O332 O 0.31952 0.10816 0.3193 0.0
H333 H 0.3134 0.07013 0.29341 0.0
H334 H 0.3034 0.01327 0.28831 0.0
C335 C 0.29686 0.02798 0.29384 0.0
H336 H 0.255 0.01013 0.29474 0.0
H337 H 0.30907 0.14917 0.30465 0.0
O338 O 0.36542 0.97779 0.32902 0.0
C339 C 0.35123 0.11477 0.32469 0.0
Co340 Co 0.32085 0.33734 0.48989 0.0
Co341 Co 0.22353 0.28667 0.47921 0.0
C342 C 0.2388 0.22664 0.49167 0.0
O343 O 0.28122 0.26566 0.4936 0.0
O344 O 0.21196 0.22877 0.4861 0.0
C345 C 0.414 0.35071 0.49675 0.0
O346 O 0.3991 0.30465 0.494 0.0
C347 C 0.14909 0.21791 0.46755 0.0
C348 C 0.12505 0.26935 0.4622 0.0
C349 C 0.11902 0.22073 0.46169 0.0
N350 N 0.17218 0.26307 0.47133 0.0
N351 N 0.15696 0.29329 0.46817 0.0
C352 C 0.15986 0.17524 0.46906 0.0
H353 H 0.19922 0.19075 0.4714 0.0
H354 H 0.15534 0.15306 0.46368 0.0
H355 H 0.13227 0.14896 0.47345 0.0
C356 C 0.37301 0.36493 0.47464 0.0
N357 N 0.33057 0.3401 0.47905 0.0
N358 N 0.28996 0.31778 0.47452 0.0
C359 C 0.30566 0.32698 0.46705 0.0
C360 C 0.35866 0.35695 0.4669 0.0
C361 C 0.42583 0.39853 0.47779 0.0
H362 H 0.42491 0.42444 0.48229 0.0
H363 H 0.43929 0.37412 0.48057 0.0
H364 H 0.45331 0.42158 0.47314 0.0
O365 O 0.28512 0.37454 0.49276 0.0
O366 O 0.21517 0.3379 0.48544 0.0
H367 H 0.24735 0.33082 0.46052 0.0
H368 H 0.29225 0.32252 0.45464 0.0
C369 C 0.27062 0.31169 0.46019 0.0
H370 H 0.24441 0.26963 0.46026 0.0
H371 H 0.16989 0.331 0.46992 0.0
O372 O 0.38688 0.37144 0.49548 0.0
C373 C 0.24292 0.37049 0.49057 0.0
Co374 Co 0.98827 0.33182 0.65629 0.0
Co375 Co 0.93841 0.23046 0.64646 0.0
C376 C 0.01959 0.25278 0.65845 0.0
O377 O 0.02371 0.29587 0.66012 0.0
O378 O 0.98833 0.22387 0.65326 0.0
C379 C 0.06717 0.42697 0.66284 0.0
O380 O 0.09854 0.41063 0.66075 0.0
C381 C 0.93443 0.15745 0.6346 0.0
C382 C 0.85076 0.10837 0.63301 0.0
C383 C 0.89753 0.11526 0.6305 0.0
N384 N 0.91038 0.17474 0.63925 0.0
N385 N 0.8604 0.14519 0.63826 0.0
C386 C 0.9913 0.17915 0.63446 0.0
H387 H 0.0094 0.20298 0.63967 0.0
H388 H 0.00768 0.20383 0.62927 0.0
H389 H 0.00048 0.14777 0.63412 0.0
C390 C 0.00571 0.37784 0.64064 0.0
N391 N 0.99048 0.33703 0.64534 0.0
N392 N 0.96903 0.29476 0.64116 0.0
C393 C 0.96974 0.30753 0.63362 0.0
C394 C 0.99327 0.36055 0.63306 0.0
C395 C 0.03011 0.43212 0.64342 0.0
H396 H 0.06569 0.44168 0.64664 0.0
H397 H 0.03995 0.45962 0.63856 0.0
H398 H 0.0037 0.43607 0.64749 0.0
O399 O 0.91638 0.29511 0.65984 0.0
O400 O 0.88065 0.22285 0.65303 0.0
H401 H 0.93779 0.28844 0.62202 0.0
H402 H 0.96558 0.25154 0.6256 0.0
C403 C 0.94277 0.26973 0.62724 0.0
H404 H 0.9046 0.23935 0.62927 0.0
H405 H 0.8328 0.15001 0.6412 0.0
O406 O 0.01972 0.39999 0.66127 0.0
C407 C 0.87764 0.25204 0.6581 0.0
C408 C 0.80922 0.86836 0.99513 0.0
C409 C 0.76011 0.82579 0.99634 0.0
C410 C 0.82798 0.91114 1.0 0.0
C411 C 0.78933 0.9766 0.01442 0.0
H412 H 0.92979 0.03401 0.02147 0.0
C413 C 0.89872 0.16859 0.03109 0.0
C414 C 0.93283 0.17248 0.03699 0.0
C415 C 0.87402 0.12458 0.02649 0.0
C416 C 0.89034 0.01811 0.01962 0.0
H417 H 0.69148 0.79578 0.00345 0.0
H418 H 0.72439 0.87028 0.01194 0.0
H419 H 0.89412 0.96205 0.01247 0.0
H420 H 0.9657 0.13194 0.04291 0.0
H421 H 0.92217 0.05497 0.03492 0.0
H422 H 0.78546 0.03238 0.02167 0.0
C423 C 0.74827 0.87066 0.0072 0.0
C424 C 0.87013 0.97734 0.01437 0.0
C425 C 0.72951 0.82784 0.00235 0.0
C426 C 0.93997 0.13042 0.03839 0.0
C427 C 0.9153 0.08642 0.03377 0.0
C428 C 0.80962 0.01753 0.01966 0.0
C429 C 0.79806 0.9124 0.00617 0.0
C430 C 0.81945 0.9562 0.01169 0.0
C431 C 0.88285 0.08343 0.02768 0.0
C432 C 0.86038 0.03876 0.02232 0.0
H433 H 0.83372 0.86826 0.99054 0.0
H434 H 0.86616 0.9431 0.99896 0.0
H435 H 0.75024 0.96134 0.01243 0.0
H436 H 0.8922 0.20018 0.02985 0.0
H437 H 0.84955 0.12366 0.02181 0.0
C438 C 0.93397 0.81267 0.16133 0.0
C439 C 0.9311 0.76538 0.16284 0.0
C440 C 0.90833 0.83021 0.16609 0.0
C441 C 0.85888 0.81705 0.18594 0.0
H442 H 0.78996 0.88648 0.17765 0.0
C443 C 0.72662 0.90843 0.19681 0.0
C444 C 0.75656 0.93922 0.20302 0.0
C445 C 0.7444 0.88287 0.1921 0.0
C446 C 0.80865 0.86675 0.18005 0.0
H447 H 0.89741 0.69861 0.17039 0.0
H448 H 0.85268 0.72926 0.17865 0.0
H449 H 0.82599 0.84953 0.16878 0.0
H450 H 0.82784 0.96552 0.20932 0.0
H451 H 0.85884 0.92082 0.20107 0.0
H452 H 0.84163 0.8344 0.19722 0.0
C453 C 0.8753 0.75301 0.17385 0.0
C454 C 0.82971 0.84607 0.17497 0.0
C455 C 0.90071 0.73535 0.16907 0.0
C456 C 0.80384 0.94223 0.20458 0.0
C457 C 0.82153 0.91644 0.19988 0.0
C458 C 0.83806 0.838 0.19102 0.0
C459 C 0.87943 0.80094 0.17248 0.0
C460 C 0.85527 0.8212 0.17786 0.0
C461 C 0.7924 0.88726 0.1935 0.0
C462 C 0.81291 0.86327 0.18813 0.0
H463 H 0.95696 0.83675 0.15657 0.0
H464 H 0.91253 0.86749 0.16492 0.0
H465 H 0.8788 0.79856 0.18833 0.0
H466 H 0.68987 0.90495 0.19546 0.0
H467 H 0.72073 0.85999 0.18731 0.0
C468 C 0.82533 0.73868 0.36441 0.0
C469 C 0.82211 0.7695 0.37027 0.0
C470 C 0.869 0.75728 0.35975 0.0
C471 C 0.97537 0.87857 0.35255 0.0
H472 H 0.03204 0.79411 0.34581 0.0
C473 C 0.16571 0.90677 0.33554 0.0
C474 C 0.16722 0.93823 0.32938 0.0
C475 C 0.1228 0.88276 0.34038 0.0
C476 C 0.01675 0.8182 0.34767 0.0
H477 H 0.86331 0.84341 0.37602 0.0
H478 H 0.93965 0.87572 0.3679 0.0
H479 H 0.96118 0.75976 0.35511 0.0
H480 H 0.12367 0.96712 0.32329 0.0
H481 H 0.04878 0.92484 0.33169 0.0
H482 H 0.0311 0.93716 0.34519 0.0
C483 C 0.90798 0.83738 0.36686 0.0
C484 C 0.97598 0.79843 0.35295 0.0
C485 C 0.86435 0.81873 0.37154 0.0
C486 C 0.12398 0.94337 0.32799 0.0
C487 C 0.08117 0.91947 0.33284 0.0
C488 C 0.0159 0.89821 0.34725 0.0
C489 C 0.91042 0.80717 0.36083 0.0
C490 C 0.95485 0.82843 0.35544 0.0
C491 C 0.08053 0.88977 0.33919 0.0
C492 C 0.03696 0.86823 0.34474 0.0
H493 H 0.79359 0.70052 0.36328 0.0
H494 H 0.86952 0.73321 0.35512 0.0
H495 H 0.95954 0.90243 0.35427 0.0
H496 H 0.19828 0.90185 0.33678 0.0
H497 H 0.12357 0.86031 0.34525 0.0
C498 C 0.17016 0.13676 0.49493 0.0
C499 C 0.21927 0.17895 0.4963 0.0
C500 C 0.15046 0.09348 0.49972 0.0
C501 C 0.18797 0.02638 0.51403 0.0
H502 H 0.04694 0.96716 0.5209 0.0
C503 C 0.08092 0.83407 0.53062 0.0
C504 C 0.04715 0.82982 0.5366 0.0
C505 C 0.10438 0.87781 0.52595 0.0
C506 C 0.08653 0.98355 0.51909 0.0
H507 H 0.28674 0.20793 0.50365 0.0
H508 H 0.25227 0.13275 0.51198 0.0
H509 H 0.08263 0.03994 0.51201 0.0
H510 H 0.01319 0.86929 0.54252 0.0
H511 H 0.05458 0.94587 0.53439 0.0
H512 H 0.19207 0.97044 0.52121 0.0
C513 C 0.2291 0.13294 0.50719 0.0
C514 C 0.10676 0.02479 0.51391 0.0
C515 C 0.24874 0.1762 0.50242 0.0
C516 C 0.03878 0.87115 0.53795 0.0
C517 C 0.0622 0.91489 0.53326 0.0
C518 C 0.1677 0.98504 0.5192 0.0
C519 C 0.1795 0.09136 0.50596 0.0
C520 C 0.15771 0.04669 0.51132 0.0
C521 C 0.09463 0.91836 0.52713 0.0
C522 C 0.11675 0.96317 0.52179 0.0
H523 H 0.1465 0.13748 0.49025 0.0
H524 H 0.11239 0.06171 0.49855 0.0
H525 H 0.22725 0.04216 0.5121 0.0
H526 H 0.08833 0.80304 0.52941 0.0
H527 H 0.12883 0.87908 0.52124 0.0
C528 C 0.17408 0.05464 0.70511 0.0
C529 C 0.22334 0.06195 0.70373 0.0
C530 C 0.15455 0.07893 0.70044 0.0
C531 C 0.19115 0.18422 0.68625 0.0
H532 H 0.05107 0.09983 0.67912 0.0
C533 C 0.08189 0.26493 0.66903 0.0
C534 C 0.04898 0.23447 0.66303 0.0
C535 C 0.10584 0.24589 0.67385 0.0
C536 C 0.09039 0.12378 0.681 0.0
H537 H 0.2915 0.10239 0.69656 0.0
H538 H 0.25729 0.14435 0.68843 0.0
H539 H 0.08742 0.06416 0.68813 0.0
H540 H 0.01717 0.16078 0.65724 0.0
H541 H 0.05942 0.12784 0.66562 0.0
H542 H 0.19433 0.24355 0.67899 0.0
C543 C 0.23385 0.12007 0.69314 0.0
C544 C 0.11098 0.10358 0.68626 0.0
C545 C 0.25336 0.09576 0.69779 0.0
C546 C 0.04202 0.18519 0.66182 0.0
C547 C 0.06594 0.16614 0.66666 0.0
C548 C 0.1705 0.20449 0.68099 0.0
C549 C 0.18386 0.11116 0.69431 0.0
C550 C 0.16162 0.13351 0.68894 0.0
C551 C 0.09745 0.19597 0.67281 0.0
C552 C 0.11991 0.17443 0.67829 0.0
H553 H 0.15001 0.02911 0.70966 0.0
H554 H 0.11621 0.07199 0.70158 0.0
H555 H 0.23018 0.20838 0.68824 0.0
H556 H 0.08821 0.30309 0.67013 0.0
H557 H 0.12957 0.26971 0.67857 0.0
C558 C 0.81661 0.09171 0.83612 0.0
C559 C 0.81661 0.06177 0.82985 0.0
C560 C 0.85952 0.11707 0.84092 0.0
C561 C 0.94022 0.13365 0.85299 0.0
H562 H 0.07841 0.20428 0.84469 0.0
C563 C 0.12119 0.18954 0.8715 0.0
C564 C 0.16511 0.23714 0.86996 0.0
C565 C 0.07753 0.17175 0.86684 0.0
C566 C 0.04004 0.18512 0.8471 0.0
H567 H 0.86255 0.03658 0.82355 0.0
H568 H 0.93747 0.08097 0.83194 0.0
H569 H 0.0054 0.16791 0.83583 0.0
H570 H 0.19664 0.30432 0.8625 0.0
H571 H 0.12049 0.27327 0.85442 0.0
H572 H 0.97491 0.15073 0.86427 0.0
C573 C 0.90422 0.08484 0.83312 0.0
C574 C -0.00173 0.16386 0.84202 0.0
C575 C 0.86119 0.05922 0.82834 0.0
C576 C 0.16365 0.26732 0.86383 0.0
C577 C 0.12013 0.24944 0.85916 0.0
C578 C 0.98201 0.15465 0.85807 0.0
C579 C 0.90353 0.11337 0.83954 0.0
C580 C 0.94792 0.13769 0.84491 0.0
C581 C 0.07693 0.2011 0.86053 0.0
C582 C 0.03237 0.18042 0.85518 0.0
H583 H 0.78302 0.09471 0.83744 0.0
H584 H 0.85815 0.13938 0.84575 0.0
H585 H 0.90185 0.11326 0.8554 0.0
H586 H 0.12094 0.16536 0.87618 0.0
H587 H 0.04491 0.13419 0.86801 0.0
C588 C 0.05022 0.12937 0.07536 0.0
C589 C 0.08774 0.18167 0.07546 0.0
C590 C 0.04697 0.09697 0.08145 0.0
C591 C 0.12571 0.08595 0.09683 0.0
H592 H 0.99582 0.98736 0.10609 0.0
C593 C 0.11879 0.97689 0.12452 0.0
C594 C 0.08196 0.92456 0.12493 0.0
C595 C 0.11668 0.0077 0.11864 0.0
C596 C 0.03234 0.01431 0.10351 0.0
H597 H 0.15124 0.24087 0.08203 0.0
H598 H 0.14567 0.18456 0.09258 0.0
H599 H 0.99733 0.04154 0.09538 0.0
H600 H 0.01455 0.8632 0.11938 0.0
H601 H 0.01075 0.91694 0.1091 0.0
H602 H 0.16086 0.05872 0.10484 0.0
C603 C 0.11888 0.16845 0.0878 0.0
C604 C 0.03318 0.04533 0.09738 0.0
C605 C 0.12197 0.20074 0.08175 0.0
C606 C 0.04255 0.9037 0.11937 0.0
C607 C 0.04056 0.93451 0.11345 0.0
C608 C 0.12487 0.05491 0.10291 0.0
C609 C 0.08157 0.11614 0.0877 0.0
C610 C 0.07996 0.08181 0.09403 0.0
C611 C 0.07804 0.98676 0.11295 0.0
C612 C 0.07827 0.01903 0.10638 0.0
H613 H 0.02434 0.11296 0.0705 0.0
H614 H 0.01831 0.05665 0.08115 0.0
H615 H 0.16228 0.11297 0.09427 0.0
H616 H 0.14958 0.99401 0.12874 0.0
H617 H 0.14562 0.04798 0.11853 0.0
C618 C 0.91991 0.12179 0.24843 0.0
C619 C 0.90319 0.08699 0.2422 0.0
C620 C 0.94889 0.11798 0.25443 0.0
C621 C 0.98416 0.03091 0.2641 0.0
H622 H 0.10258 0.15798 0.27079 0.0
C623 C 0.13752 0.03953 0.28558 0.0
C624 C 0.1587 0.08051 0.29086 0.0
C625 C 0.10359 0.0371 0.27981 0.0
C626 C 0.06925 0.12218 0.26909 0.0
H627 H 0.90514 0.02147 0.23734 0.0
H628 H 0.9551 0.01423 0.24794 0.0
H629 H 0.04872 0.15942 0.2604 0.0
H630 H 0.16076 0.15053 0.29438 0.0
H631 H 0.10064 0.1458 0.28449 0.0
H632 H 0.00471 0.99374 0.27286 0.0
C633 C 0.94486 0.04397 0.24821 0.0
C634 C 0.03845 0.12303 0.26311 0.0
C635 C 0.91591 0.04793 0.24215 0.0
C636 C 0.14478 0.11847 0.29038 0.0
C637 C 0.11067 0.1159 0.28467 0.0
C638 C 0.01494 0.03007 0.27014 0.0
C639 C 0.96214 0.07937 0.25436 0.0
C640 C 0.99535 0.07753 0.26058 0.0
C641 C 0.09041 0.07576 0.27921 0.0
C642 C 0.05765 0.07582 0.27274 0.0
H643 H 0.91061 0.15221 0.24867 0.0
H644 H 0.96101 0.1454 0.25915 0.0
H645 H 0.95099 0.99526 0.26231 0.0
H646 H 0.14887 0.01058 0.28569 0.0
H647 H 0.0893 0.00605 0.27564 0.0
C648 C 0.05412 0.13212 0.45744 0.0
C649 C 0.09024 0.18293 0.45557 0.0
C650 C 0.02432 0.09765 0.45162 0.0
C651 C 0.98365 0.09619 0.43104 0.0
H652 H 0.92921 0.94967 0.43315 0.0
C653 C 0.87075 0.94714 0.40688 0.0
C654 C 0.82057 0.91162 0.4092 0.0
C655 C 0.90701 0.9789 0.41237 0.0
C656 C 0.94442 0.99057 0.4325 0.0
H657 H 0.12552 0.23741 0.4462 0.0
H658 H 0.07616 0.17694 0.43598 0.0
H659 H 0.98809 0.00785 0.44297 0.0
H660 H 0.76893 0.88029 0.419 0.0
H661 H 0.83297 0.93473 0.42865 0.0
H662 H 0.94087 0.07842 0.42043 0.0
C663 C 0.06868 0.16374 0.44193 0.0
C664 C 0.97777 0.02399 0.43815 0.0
C665 C 0.09741 0.19841 0.44778 0.0
C666 C 0.80746 0.90747 0.41709 0.0
C667 C 0.844 0.93828 0.4226 0.0
C668 C 0.95134 0.06286 0.42532 0.0
C669 C 0.03088 0.11308 0.44377 0.0
C670 C 0.9974 0.07732 0.43756 0.0
C671 C 0.89383 0.97466 0.42027 0.0
C672 C 0.931 0.00982 0.42605 0.0
H673 H 0.04767 0.11959 0.46344 0.0
H674 H 0.99516 0.05942 0.45332 0.0
H675 H 0.99667 0.13666 0.43042 0.0
H676 H 0.88148 0.95128 0.40081 0.0
H677 H 0.94526 0.00688 0.41046 0.0
C678 C 0.86841 0.02991 0.62446 0.0
C679 C 0.904 0.08266 0.6247 0.0
C680 C 0.87128 -0.00107 0.61868 0.0
C681 C 0.95628 0.99292 0.60363 0.0
H682 H 0.82695 0.89021 0.59474 0.0
C683 C 0.93955 0.87368 0.57601 0.0
C684 C 0.90241 0.82127 0.57628 0.0
C685 C 0.94276 0.90675 0.58199 0.0
C686 C 0.86339 0.91834 0.59721 0.0
H687 H 0.97 0.14452 0.61894 0.0
H688 H 0.97513 0.09045 0.60884 0.0
H689 H 0.82728 0.94553 0.60504 0.0
H690 H 0.83988 0.7625 0.58305 0.0
H691 H 0.84547 0.81991 0.59342 0.0
H692 H 0.99223 0.96565 0.59569 0.0
C693 C 0.9457 0.07278 0.61324 0.0
C694 C 0.86359 0.95004 0.60313 0.0
C695 C 0.94295 0.10378 0.61907 0.0
C696 C 0.86881 0.8027 0.58265 0.0
C697 C 0.8719 0.83563 0.58858 0.0
C698 C 0.95607 0.96121 0.59766 0.0
C699 C 0.90945 0.02007 0.61293 0.0
C700 C 0.90996 0.98737 0.60648 0.0
C701 C 0.90853 0.88812 0.58829 0.0
C702 C 0.90953 0.92321 0.59445 0.0
H703 H 0.83804 0.01252 0.62874 0.0
H704 H 0.8433 0.95835 0.61871 0.0
H705 H 0.99265 0.02105 0.60612 0.0
H706 H 0.96498 0.88967 0.57109 0.0
H707 H 0.97093 0.94716 0.58155 0.0
C708 C 0.06568 0.87497 0.74898 0.0
C709 C 0.08061 0.90923 0.74269 0.0
C710 C 0.03635 0.87779 0.75502 0.0
C711 C -0.00209 0.96259 0.76463 0.0
H712 H 0.88371 0.83427 0.77192 0.0
C713 C 0.84576 0.95169 0.78649 0.0
C714 C 0.82695 0.91197 0.792 0.0
C715 C 0.87889 0.95404 0.7806 0.0
C716 C 0.91587 0.87043 0.77004 0.0
H717 H 0.07482 0.97245 0.73774 0.0
H718 H 0.02436 0.97803 0.7484 0.0
H719 H 0.93714 0.83361 0.76139 0.0
H720 H 0.82859 0.84411 0.79576 0.0
H721 H 0.88712 0.84869 0.78561 0.0
H722 H 0.97669 -0.00063 0.77334 0.0
C723 C 0.03628 0.94955 0.74868 0.0
C724 C 0.94641 0.87003 0.76398 0.0
C725 C 0.06554 0.94656 0.7426 0.0
C726 C 0.84248 0.87514 0.79158 0.0
C727 C 0.87575 0.87762 0.78573 0.0
C728 C 0.9674 0.96299 0.77074 0.0
C729 C 0.021 0.91484 0.75493 0.0
C730 C 0.98798 0.91601 0.76124 0.0
C731 C 0.89375 0.91661 0.78009 0.0
C732 C 0.9262 0.91683 0.77355 0.0
H733 H 0.07676 0.84584 0.74925 0.0
H734 H 0.02578 0.85093 0.7598 0.0
H735 H 0.02992 0.9986 0.76267 0.0
H736 H 0.83324 0.9797 0.78651 0.0
H737 H 0.89134 0.98412 0.77628 0.0
C738 C 0.96525 0.85567 0.95748 0.0
C739 C 0.91228 0.83707 0.95794 0.0
C740 C 0.99469 0.89052 0.95169 0.0
C741 C 0.98488 0.93232 0.93209 0.0
H742 H 0.12048 0.04624 0.93659 0.0
C743 C 0.11481 0.07483 0.90832 0.0
C744 C 0.16688 0.0889 0.9086 0.0
C745 C 0.08191 0.04761 0.91447 0.0
C746 C 0.08284 0.01439 0.93522 0.0
H747 H 0.84828 0.83903 0.95252 0.0
H748 H 0.89983 0.90052 0.94246 0.0
H749 H 0.06644 0.99272 0.94717 0.0
H750 H 0.225 0.0846 0.91546 0.0
H751 H 0.16775 0.03656 0.92607 0.0
H752 H 0.00172 0.9532 0.92012 0.0
C753 C 0.91864 0.88848 0.94664 0.0
C754 C 0.05187 0.98379 0.94129 0.0
C755 C 0.88923 0.85386 0.95247 0.0
C756 C 0.18514 0.07462 0.91509 0.0
C757 C 0.1524 0.04751 0.92122 0.0
C758 C 0.01596 0.96284 0.92601 0.0
C759 C 0.97168 0.90704 0.94617 0.0
C760 C 0.00285 0.94196 0.93978 0.0
C761 C 0.10039 0.03371 0.921 0.0
C762 C 0.06565 0.00374 0.92749 0.0
H763 H 0.98394 0.84304 0.96158 0.0
H764 H 0.03532 0.90347 0.95142 0.0
H765 H 0.94748 0.90003 0.93073 0.0
H766 H 0.09908 0.0838 0.90332 0.0
H767 H 0.04205 0.03758 0.91412 0.0
C768 C 0.48269 0.63745 1.00002 0.0
C769 C 0.51814 0.62013 0.99954 0.0
C770 C 0.43729 0.60971 0.00426 0.0
C771 C 0.35283 0.48125 0.01298 0.0
H772 H 0.30234 0.55466 0.02529 0.0
C773 C 0.19377 0.382 0.03603 0.0
C774 C 0.15385 0.39342 0.03574 0.0
C775 C 0.23814 0.41018 0.0316 0.0
C776 C 0.31586 0.5337 0.02183 0.0
H777 H 0.53386 0.56021 0.00315 0.0
H778 H 0.45572 0.5128 0.01067 0.0
H779 H 0.37949 0.60263 0.01744 0.0
H780 H 0.12977 0.44413 0.03069 0.0
H781 H 0.20751 0.49356 0.02303 0.0
H782 H 0.28966 0.41238 0.01753 0.0
C783 C 0.46214 0.54705 0.00764 0.0
C784 C 0.3599 0.56112 0.0173 0.0
C785 C 0.50719 0.57447 0.00335 0.0
C786 C 0.15971 0.43422 0.03103 0.0
C787 C 0.20431 0.46273 0.02668 0.0
C788 C 0.30915 0.45392 0.01757 0.0
C789 C 0.4266 0.5643 0.00816 0.0
C790 C 0.37901 0.53523 0.01283 0.0
C791 C 0.24375 0.4507 0.02687 0.0
C792 C 0.29027 0.47986 0.02204 0.0
H793 H 0.48992 0.67237 0.99712 0.0
H794 H 0.41043 0.62372 0.00443 0.0
H795 H 0.36581 0.45998 0.0095 0.0
H796 H 0.19048 0.35083 0.0396 0.0
H797 H 0.26822 0.40044 0.03191 0.0
C798 C 0.93388 0.51487 0.16999 0.0
C799 C 0.89866 0.52568 0.16632 0.0
C800 C 0.91684 0.47045 0.17443 0.0
C801 C 0.80222 0.37081 0.18478 0.0
H802 H 0.87859 0.29836 0.18476 0.0
C803 C 0.72674 0.1705 0.19848 0.0
C804 C 0.76145 0.16307 0.203 0.0
C805 C 0.74345 0.21556 0.19422 0.0
C806 C 0.8572 0.31852 0.18488 0.0
H807 H 0.81789 0.49775 0.16427 0.0
H808 H 0.78805 0.41936 0.17185 0.0
H809 H 0.90687 0.37384 0.17657 0.0
H810 H 0.84088 0.19749 0.20663 0.0
H811 H 0.87013 0.27617 0.1991 0.0
H812 H 0.75196 0.31457 0.19298 0.0
C813 C 0.82889 0.44588 0.17146 0.0
C814 C 0.87338 0.36181 0.18019 0.0
C815 C 0.84597 0.49064 0.16707 0.0
C816 C 0.81318 0.20202 0.20322 0.0
C817 C 0.83 0.24691 0.19888 0.0
C818 C 0.78578 0.32721 0.1894 0.0
C819 C 0.86413 0.43543 0.17524 0.0
C820 C 0.8462 0.38863 0.1801 0.0
C821 C 0.7953 0.25397 0.19431 0.0
C822 C 0.81319 0.30073 0.18951 0.0
H823 H 0.97477 0.54121 0.16958 0.0
H824 H 0.94508 0.46418 0.17735 0.0
H825 H 0.78087 0.39099 0.18496 0.0
H826 H 0.68659 0.14135 0.1982 0.0
H827 H 0.71596 0.21983 0.19071 0.0
C828 C 0.42005 0.94537 0.33863 0.0
C829 C 0.37791 0.91113 0.33409 0.0
C830 C 0.44656 0.92767 0.34315 0.0
C831 C 0.47377 0.82209 0.34492 0.0
H832 H 0.50969 0.86952 0.36615 0.0
C833 C 0.56059 0.73534 0.36555 0.0
C834 C 0.60029 0.76891 0.37053 0.0
C835 C 0.53235 0.75231 0.36132 0.0
C836 C 0.50054 0.85638 0.36021 0.0
H837 H 0.33093 0.83149 0.33066 0.0
H838 H 0.37755 0.80063 0.33853 0.0
H839 H 0.46307 0.9 0.35824 0.0
H840 H 0.64096 0.84658 0.37503 0.0
H841 H 0.59229 0.87653 0.36752 0.0
H842 H 0.51183 0.77914 0.34681 0.0
C843 C 0.39002 0.8412 0.33858 0.0
C844 C 0.47373 0.87376 0.35568 0.0
C845 C 0.36321 0.85885 0.3341 0.0
C846 C 0.61052 0.81969 0.37127 0.0
C847 C 0.58245 0.83679 0.36698 0.0
C848 C 0.50087 0.80498 0.34942 0.0
C849 C 0.43181 0.87541 0.34318 0.0
C850 C 0.46003 0.85675 0.34799 0.0
C851 C 0.5433 0.80339 0.36191 0.0
C852 C 0.5145 0.8218 0.35713 0.0
H853 H 0.43244 0.98591 0.33875 0.0
H854 H 0.479 0.95502 0.34656 0.0
H855 H 0.46439 0.8089 0.33898 0.0
H856 H 0.55135 0.69583 0.36488 0.0
H857 H 0.50181 0.72524 0.35759 0.0
C858 C 0.82218 0.56463 0.53223 0.0
C859 C 0.82846 0.60575 0.53688 0.0
C860 C 0.7766 0.53479 0.52817 0.0
C861 C 0.64055 0.50284 0.52709 0.0
H862 H 0.64916 0.45866 0.50627 0.0
C863 C 0.47208 0.42299 0.50546 0.0
C864 C 0.46149 0.37829 0.50138 0.0
C865 C 0.51634 0.44883 0.50996 0.0
C866 C 0.64617 0.4703 0.5121 0.0
H867 H 0.79159 0.64754 0.54097 0.0
H868 H 0.7125 0.59634 0.53371 0.0
H869 H 0.72721 0.50781 0.51384 0.0
H870 H 0.4893 0.32594 0.49876 0.0
H871 H 0.56724 0.3717 0.50658 0.0
H872 H 0.55947 0.46633 0.52523 0.0
C873 C 0.74241 0.58643 0.53333 0.0
C874 C 0.69083 0.49834 0.51646 0.0
C875 C 0.78788 0.616 0.53746 0.0
C876 C 0.49637 0.36023 0.50185 0.0
C877 C 0.54103 0.38648 0.50629 0.0
C878 C 0.59596 0.47523 0.5227 0.0
C879 C 0.73633 0.54562 0.5286 0.0
C880 C 0.68861 0.51506 0.52401 0.0
C881 C 0.55125 0.43088 0.51042 0.0
C882 C 0.59837 0.45882 0.51516 0.0
H883 H 0.85251 0.55535 0.53172 0.0
H884 H 0.77291 0.50305 0.52472 0.0
H885 H 0.63726 0.51424 0.53293 0.0
H886 H 0.44597 0.43792 0.50523 0.0
H887 H 0.52358 0.48329 0.51302 0.0
C888 C 0.05146 0.4876 0.67068 0.0
C889 C 0.08625 0.47556 0.66716 0.0
C890 C 0.06905 0.53256 0.67498 0.0
C891 C 0.18428 0.63275 0.68518 0.0
H892 H 0.10885 0.70613 0.68467 0.0
C893 C 0.2593 0.83444 0.69848 0.0
C894 C 0.2243 0.84128 0.70301 0.0
C895 C 0.24304 0.78941 0.69423 0.0
C896 C 0.13002 0.68576 0.68491 0.0
H897 H 0.16684 0.50173 0.66528 0.0
H898 H 0.19767 0.58114 0.67262 0.0
H899 H 0.0803 0.62973 0.67671 0.0
H900 H 0.14483 0.806 0.70667 0.0
H901 H 0.11637 0.72753 0.69915 0.0
H902 H 0.23465 0.68984 0.69327 0.0
C903 C 0.15672 0.55517 0.67221 0.0
C904 C 0.11365 0.6419 0.68037 0.0
C905 C 0.13908 0.50982 0.66796 0.0
C906 C 0.17275 0.80192 0.70324 0.0
C907 C 0.15638 0.75714 0.69891 0.0
C908 C 0.20098 0.677 0.68966 0.0
C909 C 0.1219 0.56697 0.67581 0.0
C910 C 0.14036 0.61461 0.68048 0.0
C911 C 0.19135 0.75057 0.69434 0.0
C912 C 0.17382 0.70372 0.6896 0.0
H913 H 0.01048 0.46183 0.67022 0.0
H914 H 0.04108 0.53979 0.67779 0.0
H915 H 0.20531 0.61229 0.68551 0.0
H916 H 0.29933 0.86394 0.69819 0.0
H917 H 0.27071 0.78542 0.69072 0.0
C918 C 0.42591 0.26834 0.86471 0.0
C919 C 0.38453 0.23322 0.8693 0.0
C920 C 0.45465 0.25237 0.8604 0.0
C921 C 0.48344 0.14644 0.85855 0.0
H922 H 0.5293 0.20353 0.83797 0.0
C923 C 0.56496 0.06139 0.8366 0.0
C924 C 0.61063 0.09622 0.8328 0.0
C925 C 0.53807 0.07898 0.84103 0.0
C926 C 0.51711 0.18762 0.84373 0.0
H927 H 0.34106 0.15374 0.87298 0.0
H928 H 0.3904 0.12555 0.86529 0.0
H929 H 0.48076 0.23198 0.84582 0.0
H930 H 0.66326 0.1768 0.83052 0.0
H931 H 0.61571 0.20754 0.83822 0.0
H932 H 0.51895 0.10127 0.85635 0.0
C933 C 0.40133 0.16573 0.86515 0.0
C934 C 0.48944 0.20399 0.84825 0.0
C935 C 0.37284 0.18182 0.86953 0.0
C936 C 0.62826 0.14903 0.83339 0.0
C937 C 0.60099 0.16662 0.83777 0.0
C938 C 0.51068 0.12975 0.854 0.0
C939 C 0.44247 0.20078 0.8605 0.0
C940 C 0.47223 0.18358 0.85572 0.0
C941 C 0.55593 0.13174 0.8417 0.0
C942 C 0.52771 0.15012 0.84655 0.0
H943 H 0.43626 0.30835 0.86446 0.0
H944 H 0.48667 0.28064 0.85702 0.0
H945 H 0.47166 0.13058 0.86432 0.0
H946 H 0.55026 0.02043 0.83626 0.0
H947 H 0.5031 0.05123 0.84392 0.0
C948 C 0.55505 0.8328 0.83355 0.0
C949 C 0.59722 0.83938 0.82914 0.0
C950 C 0.52565 0.78785 0.83778 0.0
C951 C 0.49714 0.65323 0.83974 0.0
H952 H 0.44958 0.66422 0.8602 0.0
C953 C 0.41643 0.48739 0.86182 0.0
C954 C 0.37073 0.47632 0.86563 0.0
C955 C 0.44282 0.53163 0.85732 0.0
C956 C 0.4622 0.66055 0.85447 0.0
H957 H 0.64132 0.80361 0.82567 0.0
H958 H 0.59082 0.72566 0.83321 0.0
H959 H 0.4981 0.74118 0.85234 0.0
H960 H 0.3174 0.50354 0.86783 0.0
H961 H 0.36404 0.5814 0.86001 0.0
H962 H 0.46212 0.57265 0.84198 0.0
C963 C 0.57979 0.75484 0.83328 0.0
C964 C 0.48988 0.70458 0.84995 0.0
C965 C 0.60895 0.79967 0.82898 0.0
C966 C 0.35247 0.51097 0.86496 0.0
C967 C 0.37922 0.55558 0.86051 0.0
C968 C 0.46987 0.60931 0.84429 0.0
C969 C 0.53795 0.74851 0.83777 0.0
C970 C 0.50779 0.70149 0.84253 0.0
C971 C 0.42438 0.56605 0.85659 0.0
C972 C 0.45227 0.61256 0.85171 0.0
H973 H 0.54466 0.86244 0.83374 0.0
H974 H 0.49312 0.7839 0.84105 0.0
H975 H 0.50948 0.64924 0.83401 0.0
H976 H 0.43162 0.46155 0.86222 0.0
H977 H 0.47789 0.53909 0.85444 0.0
C978 C 0.84421 0.36069 0.03131 0.0
C979 C 0.89695 0.37834 0.03198 0.0
C980 C 0.82683 0.38814 0.02692 0.0
C981 C 0.87124 0.51661 0.01818 0.0
H982 H 0.74903 0.44323 0.00554 0.0
C983 C 0.81281 0.6175 0.99522 0.0
C984 C 0.76141 0.60583 0.99546 0.0
C985 C 0.82883 0.58871 0.99954 0.0
C986 C 0.78306 0.46417 0.00908 0.0
H987 H 0.97281 0.43851 0.02854 0.0
H988 H 0.94263 0.48541 0.02077 0.0
H989 H 0.7777 0.39523 0.01351 0.0
H990 H 0.68624 0.55378 1.00027 0.0
H991 H 0.71425 0.50334 0.00773 0.0
H992 H 0.87696 0.5855 0.01363 0.0
C993 C 0.91457 0.45112 0.02376 0.0
C994 C 0.79937 0.43674 0.01368 0.0
C995 C 0.9319 0.42399 0.02819 0.0
C996 C 0.72616 0.56394 0.99997 0.0
C997 C 0.74209 0.53484 0.00421 0.0
C998 C 0.8552 0.54396 0.01353 0.0
C999 C 0.86184 0.43361 0.02307 0.0
C1000 C 0.84372 0.46263 0.01828 0.0
C1001 C 0.79368 0.54731 0.00411 0.0
C1002 C 0.81098 0.51804 0.00893 0.0
H1003 H 0.81633 0.32575 0.03419 0.0
H1004 H 0.78598 0.37392 0.02661 0.0
H1005 H 0.90497 0.53788 0.02177 0.0
H1006 H 0.84092 0.64949 0.9918 0.0
H1007 H 0.86876 0.59881 0.9993 0.0
C1008 C 0.48458 0.85402 0.19764 0.0
C1009 C 0.51876 0.90691 0.19846 0.0
C1010 C 0.43977 0.83637 0.19326 0.0
C1011 C 0.38461 0.87415 0.17738 0.0
H1012 H 0.25359 0.76907 0.18546 0.0
C1013 C 0.19336 0.82119 0.16223 0.0
C1014 C 0.15416 0.76957 0.16237 0.0
C1015 C 0.2383 0.83726 0.16651 0.0
C1016 C 0.28995 0.79786 0.18305 0.0
H1017 H 0.53258 0.98274 0.19536 0.0
H1018 H 0.45469 0.95181 0.18767 0.0
H1019 H 0.33095 0.79765 0.19321 0.0
H1020 H 0.13208 0.69405 0.16692 0.0
H1021 H 0.21086 0.72175 0.17419 0.0
H1022 H 0.34408 0.87401 0.16718 0.0
C1023 C 0.46265 0.92408 0.1904 0.0
C1024 C 0.3342 0.8143 0.18751 0.0
C1025 C 0.50707 0.94173 0.19484 0.0
C1026 C 0.16133 0.73422 0.16675 0.0
C1027 C 0.20642 0.75018 0.17096 0.0
C1028 C 0.34047 0.85738 0.17288 0.0
C1029 C 0.42866 0.87126 0.18954 0.0
C1030 C 0.38189 0.85282 0.18474 0.0
C1031 C 0.24528 0.80199 0.17096 0.0
C1032 C 0.29251 0.8192 0.17567 0.0
H1033 H 0.49249 0.82625 0.20037 0.0
H1034 H 0.4143 0.79541 0.19265 0.0
H1035 H 0.42105 0.90346 0.17506 0.0
H1036 H 0.18893 0.84944 0.15894 0.0
H1037 H 0.26707 0.87759 0.16645 0.0
C1038 C 0.56889 0.54777 0.35254 0.0
C1039 C 0.58967 0.55139 0.35997 0.0
C1040 C 0.5436 0.50071 0.34869 0.0
C1041 C 0.48027 0.3606 0.35216 0.0
H1042 H 0.49612 0.35529 0.32989 0.0
C1043 C 0.40727 0.17071 0.33543 0.0
C1044 C 0.37974 0.16529 0.32856 0.0
C1045 C 0.43322 0.21799 0.33921 0.0
C1046 C 0.49105 0.35631 0.3361 0.0
H1047 H 0.60067 0.50856 0.36917 0.0
H1048 H 0.5577 0.42664 0.36237 0.0
H1049 H 0.54157 0.43743 0.33663 0.0
H1050 H 0.35852 0.20555 0.32022 0.0
H1051 H 0.40437 0.28835 0.32681 0.0
H1052 H 0.43036 0.27924 0.35162 0.0
C1053 C 0.55994 0.45995 0.35958 0.0
C1054 C 0.51695 0.40333 0.33996 0.0
C1055 C 0.58488 0.50698 0.36346 0.0
C1056 C 0.37928 0.20841 0.3255 0.0
C1057 C 0.40572 0.25586 0.32925 0.0
C1058 C 0.45475 0.31355 0.34831 0.0
C1059 C 0.53886 0.4562 0.35215 0.0
C1060 C 0.51178 0.40609 0.34804 0.0
C1061 C 0.43265 0.261 0.33616 0.0
C1062 C 0.45982 0.31096 0.34024 0.0
H1063 H 0.57164 0.58123 0.34972 0.0
H1064 H 0.5271 0.49913 0.34304 0.0
H1065 H 0.47462 0.36137 0.35836 0.0
H1066 H 0.40841 0.1383 0.33794 0.0
H1067 H 0.45412 0.22102 0.34449 0.0
C1068 C 0.05107 0.58191 0.52701 0.0
C1069 C 0.08629 0.62819 0.53061 0.0
C1070 C 0.0681 0.55534 0.52239 0.0
C1071 C 0.1822 0.57163 0.51163 0.0
H1072 H 0.10782 0.42284 0.51198 0.0
C1073 C 0.25965 0.44624 0.49868 0.0
C1074 C 0.22526 0.40318 0.49431 0.0
C1075 C 0.24263 0.47542 0.50264 0.0
C1076 C 0.12861 0.46438 0.51176 0.0
H1077 H 0.16708 0.68255 0.53229 0.0
H1078 H 0.19699 0.63532 0.52441 0.0
H1079 H 0.07919 0.46983 0.52012 0.0
H1080 H 0.14618 0.35761 0.49054 0.0
H1081 H 0.11632 0.4084 0.49757 0.0
H1082 H 0.23249 0.56575 0.50341 0.0
C1083 C 0.1561 0.62018 0.52499 0.0
C1084 C 0.11221 0.49138 0.51641 0.0
C1085 C 0.139 0.6471 0.52956 0.0
C1086 C 0.17363 0.39055 0.49386 0.0
C1087 C 0.15647 0.4194 0.49791 0.0
C1088 C 0.19893 0.54456 0.50703 0.0
C1089 C 0.12083 0.57403 0.52132 0.0
C1090 C 0.13872 0.54538 0.5164 0.0
C1091 C 0.19075 0.46183 0.50239 0.0
C1092 C 0.17224 0.49068 0.50705 0.0
H1093 H 0.01015 0.56647 0.52765 0.0
H1094 H 0.03978 0.5205 0.51955 0.0
H1095 H 0.20305 0.61313 0.51136 0.0
H1096 H 0.29973 0.45715 0.49913 0.0
H1097 H 0.26979 0.50774 0.50609 0.0
C1098 C 0.47563 0.06394 0.69477 0.0
C1099 C 0.46531 0.09888 0.69865 0.0
C1100 C 0.52002 0.08127 0.69033 0.0
C1101 C 0.62157 0.19693 0.68042 0.0
H1102 H 0.69172 0.11831 0.68017 0.0
C1103 C 0.82213 0.2702 0.66684 0.0
C1104 C 0.82873 0.23525 0.66225 0.0
C1105 C 0.777 0.25409 0.67105 0.0
C1106 C 0.67222 0.14036 0.68013 0.0
H1107 H 0.49393 0.17947 0.701 0.0
H1108 H 0.57232 0.2098 0.69341 0.0
H1109 H 0.61597 0.0901 0.68827 0.0
H1110 H 0.7927 0.15607 0.65842 0.0
H1111 H 0.71396 0.12788 0.66586 0.0
H1112 H 0.67881 0.24777 0.67238 0.0
C1113 C 0.54545 0.16897 0.69366 0.0
C1114 C 0.62876 0.12421 0.68476 0.0
C1115 C 0.50069 0.1516 0.69805 0.0
C1116 C 0.78885 0.18395 0.66189 0.0
C1117 C 0.74391 0.16773 0.66618 0.0
C1118 C 0.66538 0.21335 0.67585 0.0
C1119 C 0.55556 0.13398 0.68972 0.0
C1120 C 0.60269 0.15212 0.68494 0.0
C1121 C 0.7377 0.20259 0.67084 0.0
C1122 C 0.69097 0.18508 0.67563 0.0
H1123 H 0.44901 0.02305 0.69506 0.0
H1124 H 0.52598 0.05324 0.68728 0.0
H1125 H 0.60204 0.21892 0.68032 0.0
H1126 H 0.85202 0.31004 0.66723 0.0
H1127 H 0.77337 0.28169 0.67464 0.0
C1128 C 0.94596 0.57874 0.12281 0.0
C1129 C 0.99296 0.6179 0.12567 0.0
C1130 C 0.94464 0.55025 0.11631 0.0
C1131 C 0.02424 0.51124 0.10537 0.0
H1132 H 0.92814 0.48427 0.08859 0.0
C1133 C 0.04067 0.42717 0.07627 0.0
C1134 C 0.99526 0.39097 0.07262 0.0
C1135 C 0.03891 0.45399 0.08276 0.0
C1136 C 0.95473 0.49082 0.09327 0.0
H1137 H 0.07531 0.65787 0.12416 0.0
H1138 H 0.07324 0.60826 0.11278 0.0
H1139 H 0.92742 0.5324 0.09995 0.0
H1140 H 0.91254 0.3545 0.07271 0.0
H1141 H 0.90903 0.40067 0.0842 0.0
H1142 H 0.05133 0.46941 0.09878 0.0
C1143 C 0.0374 0.59945 0.11553 0.0
C1144 C 0.95436 0.51848 0.09977 0.0
C1145 C 0.03863 0.62809 0.12198 0.0
C1146 C 0.94799 0.3823 0.07548 0.0
C1147 C 0.94611 0.40892 0.08201 0.0
C1148 C 0.0244 0.48334 0.09891 0.0
C1149 C 0.99041 0.56015 0.11264 0.0
C1150 C 0.98945 0.52937 0.10585 0.0
C1151 C 0.9916 0.44498 0.08575 0.0
C1152 C 0.99 0.47319 0.09274 0.0
H1153 H 0.91036 0.57019 0.12562 0.0
H1154 H 0.90794 0.51988 0.11425 0.0
H1155 H 0.05114 0.51828 0.11003 0.0
H1156 H 0.07757 0.43495 0.07406 0.0
H1157 H 0.07471 0.48223 0.08538 0.0
C1158 C 0.57949 0.02546 0.24003 0.0
C1159 C 0.6035 0.99597 0.23947 0.0
C1160 C 0.55144 0.02251 0.24666 0.0
C1161 C 0.5313 0.97935 0.26728 0.0
H1162 H 0.41269 0.99697 0.26522 0.0
C1163 C 0.39006 0.95296 0.2924 0.0
C1164 C 0.38319 0.99544 0.29345 0.0
C1165 C 0.41616 0.94996 0.28587 0.0
C1166 C 0.44576 0.992 0.26587 0.0
H1167 H 0.61759 0.94039 0.24523 0.0
H1168 H 0.5667 0.93327 0.25673 0.0
H1169 H 0.45849 0.99582 0.25364 0.0
H1170 H 0.39967 0.06881 0.28868 0.0
H1171 H 0.44316 0.06245 0.27713 0.0
H1172 H 0.51718 0.97427 0.27955 0.0
C1173 C 0.57038 0.95973 0.25218 0.0
C1174 C 0.47232 0.99172 0.25924 0.0
C1175 C 0.59917 0.96339 0.24559 0.0
C1176 C 0.40316 0.03497 0.28791 0.0
C1177 C 0.42828 0.03151 0.28133 0.0
C1178 C 0.50407 0.97869 0.2739 0.0
C1179 C 0.54617 0.98935 0.25281 0.0
C1180 C 0.51604 0.98633 0.25986 0.0
C1181 C 0.43497 0.98901 0.28025 0.0
C1182 C 0.46161 0.98585 0.27325 0.0
H1183 H 0.58305 0.05131 0.23538 0.0
H1184 H 0.53458 0.0469 0.24698 0.0
H1185 H 0.56511 0.9758 0.26802 0.0
H1186 H 0.37485 0.9219 0.29657 0.0
H1187 H 0.42083 0.91677 0.28514 0.0
C1188 C 0.40488 0.35892 0.45477 0.0
C1189 C 0.39048 0.38436 0.46015 0.0
C1190 C 0.43286 0.38465 0.44815 0.0
C1191 C 0.4549 0.4893 0.43515 0.0
H1192 H 0.57946 0.49051 0.42903 0.0
C1193 C 0.58528 0.62486 0.41135 0.0
C1194 C 0.61006 0.60766 0.4063 0.0
C1195 C 0.55886 0.5959 0.41783 0.0
C1196 C 0.5443 0.4899 0.43058 0.0
H1197 H 0.39328 0.4557 0.46298 0.0
H1198 H 0.44165 0.50074 0.45134 0.0
H1199 H 0.53253 0.44237 0.44054 0.0
H1200 H 0.62668 0.54675 0.40401 0.0
H1201 H 0.57877 0.49478 0.41521 0.0
H1202 H 0.46553 0.53568 0.42518 0.0
C1203 C 0.43167 0.46117 0.45223 0.0
C1204 C 0.51761 0.46249 0.43719 0.0
C1205 C 0.40437 0.43568 0.45888 0.0
C1206 C 0.60772 0.56072 0.40782 0.0
C1207 C 0.58072 0.5313 0.41427 0.0
C1208 C 0.48111 0.51609 0.42851 0.0
C1209 C 0.44589 0.43582 0.44677 0.0
C1210 C 0.47309 0.4626 0.43959 0.0
C1211 C 0.55583 0.54851 0.41935 0.0
C1212 C 0.52661 0.51745 0.4262 0.0
H1213 H 0.39406 0.31913 0.45566 0.0
H1214 H 0.44311 0.36421 0.444 0.0
H1215 H 0.42013 0.48923 0.4368 0.0
H1216 H 0.5859 0.66061 0.41025 0.0
H1217 H 0.54105 0.61093 0.42167 0.0
C1218 C 0.9746 0.56209 0.57235 0.0
C1219 C 0.00032 0.61581 0.57229 0.0
C1220 C 0.97707 0.53576 0.57886 0.0
C1221 C 0.00758 0.55332 0.59993 0.0
H1222 H 0.00454 0.42375 0.59752 0.0
C1223 C 0.97179 0.41947 0.62595 0.0
C1224 C 0.99698 0.39095 0.62612 0.0
C1225 C 0.97458 0.44779 0.61936 0.0
C1226 C 0.00612 0.4602 0.59832 0.0
H1227 H 0.04911 0.68458 0.57882 0.0
H1228 H 0.05522 0.63889 0.59015 0.0
H1229 H 0.00774 0.47245 0.58608 0.0
H1230 H 0.04467 0.3691 0.61967 0.0
H1231 H 0.05129 0.42003 0.6082 0.0
H1232 H 0.00796 0.54207 0.61216 0.0
C1233 C 0.03206 0.61676 0.58527 0.0
C1234 C 0.00713 0.48782 0.59173 0.0
C1235 C 0.02898 0.64302 0.57878 0.0
C1236 C 0.025 0.39098 0.61963 0.0
C1237 C 0.0284 0.41985 0.61306 0.0
C1238 C 0.00722 0.52602 0.60651 0.0
C1239 C 0.00581 0.56271 0.58542 0.0
C1240 C 0.00728 0.53448 0.59244 0.0
C1241 C 0.00313 0.4486 0.61283 0.0
C1242 C 0.00586 0.47877 0.6058 0.0
H1243 H 0.95172 0.54046 0.56741 0.0
H1244 H 0.95546 0.49424 0.5788 0.0
H1245 H 0.00707 0.58874 0.60073 0.0
H1246 H 0.94936 0.41927 0.63088 0.0
H1247 H 0.95363 0.46838 0.61935 0.0
C1248 C 0.37451 0.95788 0.74292 0.0
C1249 C 0.38289 0.00327 0.73934 0.0
C1250 C 0.4045 0.95977 0.74923 0.0
C1251 C 0.48482 0.04312 0.76496 0.0
H1252 H 0.5375 0.949 0.76568 0.0
C1253 C 0.61957 0.0497 0.78947 0.0
C1254 C 0.61115 0.00234 0.79226 0.0
C1255 C 0.59403 0.05192 0.78283 0.0
C1256 C 0.52262 0.97516 0.76562 0.0
H1257 H 0.42885 0.08606 0.7394 0.0
H1258 H 0.48147 0.08965 0.75054 0.0
H1259 H 0.48823 0.94888 0.75445 0.0
H1260 H 0.56884 0.92017 0.79055 0.0
H1261 H 0.52354 0.92362 0.77901 0.0
H1262 H 0.51824 0.0687 0.7762 0.0
C1263 C 0.45153 0.05264 0.7485 0.0
C1264 C 0.49451 0.97515 0.75917 0.0
C1265 C 0.42172 0.05066 0.74214 0.0
C1266 C 0.57649 0.95717 0.78839 0.0
C1267 C 0.55078 0.95927 0.78178 0.0
C1268 C 0.51267 0.0429 0.77144 0.0
C1269 C 0.44332 0.00716 0.75209 0.0
C1270 C 0.47496 0.00882 0.7588 0.0
C1271 C 0.55931 0.00668 0.7789 0.0
C1272 C 0.53154 0.00859 0.77188 0.0
H1273 H 0.34497 0.92092 0.7408 0.0
H1274 H 0.39699 0.92414 0.75193 0.0
H1275 H 0.46979 0.06917 0.76486 0.0
H1276 H 0.64615 0.08496 0.79241 0.0
H1277 H 0.6019 0.08908 0.78072 0.0
C1278 C 0.57069 0.62585 0.95615 0.0
C1279 C 0.60884 0.6168 0.9591 0.0
C1280 C 0.54252 0.59933 0.94959 0.0
C1281 C 0.54628 0.52396 0.93281 0.0
H1282 H 0.4004 0.47538 0.93172 0.0
C1283 C 0.4154 0.37783 0.90992 0.0
C1284 C 0.37984 0.38778 0.9062 0.0
C1285 C 0.44301 0.407 0.91632 0.0
C1286 C 0.44121 0.48917 0.93191 0.0
H1287 H 0.64674 0.57226 0.95779 0.0
H1288 H 0.59723 0.52521 0.94641 0.0
H1289 H 0.44926 0.52403 0.94304 0.0
H1290 H 0.34503 0.43562 0.90613 0.0
H1291 H 0.39329 0.48687 0.9174 0.0
H1292 H 0.53799 0.48833 0.92175 0.0
C1293 C 0.58978 0.55368 0.94898 0.0
C1294 C 0.46926 0.51713 0.93839 0.0
C1295 C 0.61801 0.58038 0.95551 0.0
C1296 C 0.37216 0.42727 0.90896 0.0
C1297 C 0.39954 0.45629 0.91541 0.0
C1298 C 0.5182 0.49576 0.92638 0.0
C1299 C 0.55183 0.56297 0.94592 0.0
C1300 C 0.52209 0.53458 0.93894 0.0
C1301 C 0.43546 0.4466 0.91913 0.0
C1302 C 0.46533 0.47779 0.92588 0.0
H1303 H 0.56302 0.65375 0.95888 0.0
H1304 H 0.51396 0.60779 0.94735 0.0
H1305 H 0.58708 0.53771 0.93297 0.0
H1306 H 0.42217 0.3478 0.90781 0.0
H1307 H 0.47006 0.39833 0.9191 0.0
loop_
_geom_bond_atom_site_label_1
_geom_bond_atom_site_label_2
_geom_bond_distance
_geom_bond_site_symmetry_2
_ccdc_geom_bond_type
Co0 O3 1.970 1_455 S
Co0 N17 1.989 . S
Co0 O25 1.967 . S
Co0 O32 1.920 1_455 S
Co1 O4 1.966 . S
Co1 N10 2.022 . S
Co1 N18 1.993 . S
Co1 O26 1.941 . S
C2 O3 1.258 . S
C2 O4 1.263 1_655 S
O3 Co0 1.970 1_655 S
O3 C2 1.258 . S
O4 Co1 1.966 . S
O4 C2 1.263 1_455 S
C5 O6 1.235 . S
C5 O32 1.289 . S
O6 C5 1.235 . S
C7 C9 1.400 . S
C7 N10 1.351 . S
C7 C12 1.501 1_455 S
C8 C9 1.387 . S
C8 N11 1.341 . S
C9 C7 1.400 . S
C9 C8 1.387 . S
N10 Co1 2.022 . S
N10 C7 1.351 . S
N10 N11 1.365 . S
N11 C8 1.341 . S
N11 N10 1.365 . S
N11 H31 0.862 . S
C12 C7 1.501 1_655 S
C12 H13 0.961 . S
C12 H14 0.961 . S
C12 H15 0.960 . S
H13 C12 0.961 . S
H14 C12 0.961 . S
H15 C12 0.960 . S
C16 N17 1.342 1_655 S
C16 C20 1.401 1_655 S
C16 C21 1.499 . S
N17 Co0 1.989 . S
N17 C16 1.342 1_455 S
N17 N18 1.388 . S
N18 Co1 1.993 . S
N18 N17 1.388 . S
N18 C19 1.346 . S
C19 N18 1.346 . S
C19 C20 1.396 . S
C19 C29 1.510 . S
C20 C16 1.401 1_455 S
C20 C19 1.396 . S
C21 C16 1.499 . S
C21 H22 0.959 . S
C21 H23 0.960 . S
C21 H24 0.961 1_655 S
H22 C21 0.959 . S
H23 C21 0.960 . S
H24 C21 0.961 1_455 S
O25 Co0 1.967 . S
O25 C33 1.258 . S
O26 Co1 1.941 . S
O26 C33 1.266 . S
H27 C29 0.959 . S
H28 C29 0.961 1_655 S
C29 C19 1.510 . S
C29 H27 0.959 . S
C29 H28 0.961 1_455 S
C29 H30 0.960 . S
H30 C29 0.960 . S
H31 N11 0.862 . S
O32 Co0 1.920 1_655 S
O32 C5 1.289 . S
C33 O25 1.258 . S
C33 O26 1.266 . S
Co34 O37 1.970 1_545 S
Co34 N51 1.989 . S
Co34 O59 1.967 . S
Co34 O66 1.920 . S
Co35 O38 1.966 . S
Co35 N44 2.022 . S
Co35 N52 1.993 . S
Co35 O60 1.941 . S
C36 O37 1.258 . S
C36 O38 1.263 1_565 S
O37 Co34 1.970 1_565 S
O37 C36 1.258 . S
O38 Co35 1.966 . S
O38 C36 1.263 1_545 S
C39 O40 1.235 . S
C39 O66 1.289 1_565 S
O40 C39 1.235 . S
C41 C43 1.400 . S
C41 N44 1.351 . S
C41 C46 1.483 1_545 S
C42 C43 1.387 . S
C42 N45 1.341 . S
C43 C41 1.400 . S
C43 C42 1.387 . S
N44 Co35 2.022 . S
N44 C41 1.351 . S
N44 N45 1.365 . S
N45 C42 1.341 . S
N45 N44 1.365 . S
N45 H65 0.862 . S
C46 C41 1.483 1_565 S
C46 H47 0.957 . S
C46 H48 0.975 . S
C46 H49 0.968 1_565 S
H47 C46 0.957 . S
H48 C46 0.975 . S
H49 C46 0.968 1_545 S
C50 N51 1.342 . S
C50 C54 1.401 . S
C50 C55 1.499 1_545 S
N51 Co34 1.989 . S
N51 C50 1.342 . S
N51 N52 1.388 . S
N52 Co35 1.993 . S
N52 N51 1.388 . S
N52 C53 1.346 . S
C53 N52 1.346 . S
C53 C54 1.396 . S
C53 C63 1.510 . S
C54 C50 1.401 . S
C54 C53 1.396 . S
C55 C50 1.499 1_565 S
C55 H56 0.959 . S
C55 H57 0.960 . S
C55 H58 0.961 1_565 S
H56 C55 0.959 . S
H57 C55 0.960 . S
H58 C55 0.961 1_545 S
O59 Co34 1.967 . S
O59 C67 1.258 . S
O60 Co35 1.941 . S
O60 C67 1.266 . S
H61 C63 0.959 . S
H62 C63 0.961 . S
C63 C53 1.510 . S
C63 H61 0.959 . S
C63 H62 0.961 . S
C63 H64 0.960 . S
H64 C63 0.960 . S
H65 N45 0.862 . S
O66 Co34 1.920 . S
O66 C39 1.289 1_545 S
C67 O59 1.258 . S
C67 O60 1.266 . S
Co68 O71 1.970 . S
Co68 N85 1.989 . S
Co68 O93 1.967 . S
Co68 O100 1.920 . S
Co69 O72 1.966 . S
Co69 N78 2.022 . S
Co69 N86 1.993 . S
Co69 O94 1.941 . S
C70 O71 1.258 . S
C70 O72 1.263 . S
O71 Co68 1.970 . S
O71 C70 1.258 . S
O72 Co69 1.966 . S
O72 C70 1.263 . S
C73 O74 1.235 . S
C73 O100 1.289 . S
O74 C73 1.235 . S
C75 C77 1.400 . S
C75 N78 1.351 . S
C75 C80 1.501 . S
C76 C77 1.387 . S
C76 N79 1.341 . S
C77 C75 1.400 . S
C77 C76 1.387 . S
N78 Co69 2.022 . S
N78 C75 1.351 . S
N78 N79 1.365 . S
N79 C76 1.341 . S
N79 N78 1.365 . S
N79 H99 0.862 . S
C80 C75 1.501 . S
C80 H81 0.961 . S
C80 H82 0.961 . S
C80 H83 0.960 . S
H81 C80 0.961 . S
H82 C80 0.961 . S
H83 C80 0.960 . S
C84 N85 1.342 . S
C84 C88 1.401 . S
C84 C89 1.499 . S
N85 Co68 1.989 . S
N85 C84 1.342 . S
N85 N86 1.388 . S
N86 Co69 1.993 . S
N86 N85 1.388 . S
N86 C87 1.346 . S
C87 N86 1.346 . S
C87 C88 1.396 . S
C87 C97 1.510 . S
C88 C84 1.401 . S
C88 C87 1.396 . S
C89 C84 1.499 . S
C89 H90 0.959 . S
C89 H91 0.960 . S
C89 H92 0.961 . S
H90 C89 0.959 . S
H91 C89 0.960 . S
H92 C89 0.961 . S
O93 Co68 1.967 . S
O93 C101 1.258 . S
O94 Co69 1.941 . S
O94 C101 1.266 . S
H95 C97 0.959 . S
H96 C97 0.961 . S
C97 C87 1.510 . S
C97 H95 0.959 . S
C97 H96 0.961 . S
C97 H98 0.960 . S
H98 C97 0.960 . S
H99 N79 0.862 . S
O100 Co68 1.920 . S
O100 C73 1.289 . S
C101 O93 1.258 . S
C101 O94 1.266 . S
Co102 O105 1.970 1_655 S
Co102 N119 1.989 . S
Co102 O127 1.967 . S
Co102 O134 1.920 . S
Co103 O106 1.966 . S
Co103 N112 2.022 . S
Co103 N120 1.993 . S
Co103 O128 1.941 . S
C104 O105 1.258 . S
C104 O106 1.263 1_455 S
O105 Co102 1.970 1_455 S
O105 C104 1.258 . S
O106 Co103 1.966 . S
O106 C104 1.263 1_655 S
C107 O108 1.235 . S
C107 O134 1.289 1_455 S
O108 C107 1.235 . S
C109 C111 1.400 . S
C109 N112 1.351 . S
C109 C114 1.501 . S
C110 C111 1.387 . S
C110 N113 1.341 . S
C111 C109 1.400 . S
C111 C110 1.387 . S
N112 Co103 2.022 . S
N112 C109 1.351 . S
N112 N113 1.365 . S
N113 C110 1.341 . S
N113 N112 1.365 . S
N113 H133 0.862 . S
C114 C109 1.501 . S
C114 H115 0.961 1_655 S
C114 H116 0.961 1_655 S
C114 H117 0.960 . S
H115 C114 0.961 1_455 S
H116 C114 0.961 1_455 S
H117 C114 0.960 . S
C118 N119 1.342 . S
C118 C122 1.401 . S
C118 C123 1.499 1_655 S
N119 Co102 1.989 . S
N119 C118 1.342 . S
N119 N120 1.388 . S
N120 Co103 1.993 . S
N120 N119 1.388 . S
N120 C121 1.346 . S
C121 N120 1.346 . S
C121 C122 1.396 . S
C121 C131 1.510 . S
C122 C118 1.401 . S
C122 C121 1.396 . S
C123 C118 1.499 1_455 S
C123 H124 0.959 . S
C123 H125 0.960 . S
C123 H126 0.961 1_455 S
H124 C123 0.959 . S
H125 C123 0.960 . S
H126 C123 0.961 1_655 S
O127 Co102 1.967 . S
O127 C135 1.258 . S
O128 Co103 1.941 . S
O128 C135 1.266 . S
H129 C131 0.959 . S
H130 C131 0.961 . S
C131 C121 1.510 . S
C131 H129 0.959 . S
C131 H130 0.961 . S
C131 H132 0.960 . S
H132 C131 0.960 . S
H133 N113 0.862 . S
O134 Co102 1.920 . S
O134 C107 1.289 1_655 S
C135 O127 1.258 . S
C135 O128 1.266 . S
Co136 O139 1.970 1_565 S
Co136 N153 1.989 . S
Co136 O161 1.967 . S
Co136 O168 1.920 1_565 S
Co137 O140 1.966 . S
Co137 N146 2.022 . S
Co137 N154 1.993 . S
Co137 O162 1.941 . S
C138 O139 1.258 . S
C138 O140 1.263 1_545 S
O139 Co136 1.970 1_545 S
O139 C138 1.258 . S
O140 Co137 1.966 . S
O140 C138 1.263 1_565 S
C141 O142 1.235 . S
C141 O168 1.289 . S
O142 C141 1.235 . S
C143 C145 1.400 . S
C143 N146 1.351 . S
C143 C148 1.501 1_565 S
C144 C145 1.387 . S
C144 N147 1.341 . S
C145 C143 1.400 . S
C145 C144 1.387 . S
N146 Co137 2.022 . S
N146 C143 1.351 . S
N146 N147 1.365 . S
N147 C144 1.341 . S
N147 N146 1.365 . S
N147 H167 0.862 . S
C148 C143 1.501 1_545 S
C148 H149 0.961 . S
C148 H150 0.961 . S
C148 H151 0.960 . S
H149 C148 0.961 . S
H150 C148 0.961 . S
H151 C148 0.960 . S
C152 N153 1.336 . S
C152 C156 1.401 . S
C152 C157 1.505 1_565 S
N153 Co136 1.989 . S
N153 C152 1.336 . S
N153 N154 1.388 . S
N154 Co137 1.993 . S
N154 N153 1.388 . S
N154 C155 1.346 . S
C155 N154 1.346 . S
C155 C156 1.396 . S
C155 C165 1.510 . S
C156 C152 1.401 . S
C156 C155 1.396 . S
C157 C152 1.505 1_545 S
C157 H158 0.959 . S
C157 H159 0.960 . S
C157 H160 0.961 1_545 S
H158 C157 0.959 . S
H159 C157 0.960 . S
H160 C157 0.961 1_565 S
O161 Co136 1.967 . S
O161 C169 1.258 . S
O162 Co137 1.941 . S
O162 C169 1.266 . S
H163 C165 0.959 . S
H164 C165 0.961 1_545 S
C165 C155 1.510 . S
C165 H163 0.959 . S
C165 H164 0.961 1_565 S
C165 H166 0.960 . S
H166 C165 0.960 . S
H167 N147 0.862 . S
O168 Co136 1.920 1_545 S
O168 C141 1.289 . S
C169 O161 1.258 . S
C169 O162 1.266 . S
Co170 O173 1.970 . S
Co170 N187 1.989 . S
Co170 O195 1.967 . S
Co170 O202 1.920 . S
Co171 O174 1.966 . S
Co171 N180 2.022 . S
Co171 N188 1.993 . S
Co171 O196 1.941 . S
C172 O173 1.258 . S
C172 O174 1.263 . S
O173 Co170 1.970 . S
O173 C172 1.258 . S
O174 Co171 1.966 . S
O174 C172 1.263 . S
C175 O176 1.235 . S
C175 O202 1.289 . S
O176 C175 1.235 . S
C177 C179 1.400 . S
C177 N180 1.351 . S
C177 C182 1.501 . S
C178 C179 1.387 . S
C178 N181 1.341 . S
C179 C177 1.400 . S
C179 C178 1.387 . S
N180 Co171 2.022 . S
N180 C177 1.351 . S
N180 N181 1.365 . S
N181 C178 1.341 . S
N181 N180 1.365 . S
N181 H201 0.862 . S
C182 C177 1.501 . S
C182 H183 0.961 . S
C182 H184 0.961 . S
C182 H185 0.960 . S
H183 C182 0.961 . S
H184 C182 0.961 . S
H185 C182 0.960 . S
C186 N187 1.342 . S
C186 C190 1.401 . S
C186 C191 1.499 . S
N187 Co170 1.989 . S
N187 C186 1.342 . S
N187 N188 1.388 . S
N188 Co171 1.993 . S
N188 N187 1.388 . S
N188 C189 1.346 . S
C189 N188 1.346 . S
C189 C190 1.396 . S
C189 C199 1.510 . S
C190 C186 1.401 . S
C190 C189 1.396 . S
C191 C186 1.499 . S
C191 H192 0.959 . S
C191 H193 0.960 . S
C191 H194 0.961 . S
H192 C191 0.959 . S
H193 C191 0.960 . S
H194 C191 0.961 . S
O195 Co170 1.967 . S
O195 C203 1.258 . S
O196 Co171 1.941 . S
O196 C203 1.266 . S
H197 C199 0.959 . S
H198 C199 0.961 . S
C199 C189 1.510 . S
C199 H197 0.959 . S
C199 H198 0.961 . S
C199 H200 0.960 . S
H200 C199 0.960 . S
H201 N181 0.862 . S
O202 Co170 1.920 . S
O202 C175 1.289 . S
C203 O195 1.258 . S
C203 O196 1.266 . S
Co204 O207 1.970 1_565 S
Co204 N221 1.989 . S
Co204 O229 1.967 . S
Co204 O236 1.920 1_565 S
Co205 O208 1.966 . S
Co205 N214 2.022 . S
Co205 N222 1.993 . S
Co205 O230 1.941 . S
C206 O207 1.258 . S
C206 O208 1.263 1_545 S
O207 Co204 1.970 1_545 S
O207 C206 1.258 . S
O208 Co205 1.966 . S
O208 C206 1.263 1_565 S
C209 O210 1.235 . S
C209 O236 1.289 . S
O210 C209 1.235 . S
C211 C213 1.400 . S
C211 N214 1.351 . S
C211 C216 1.501 1_565 S
C212 C213 1.387 . S
C212 N215 1.341 . S
C213 C211 1.400 . S
C213 C212 1.387 . S
N214 Co205 2.022 . S
N214 C211 1.351 . S
N214 N215 1.365 . S
N215 C212 1.341 . S
N215 N214 1.365 . S
N215 H235 0.862 . S
C216 C211 1.501 1_545 S
C216 H217 0.961 . S
C216 H218 0.961 . S
C216 H219 0.960 . S
H217 C216 0.961 . S
H218 C216 0.961 . S
H219 C216 0.960 . S
C220 N221 1.354 . S
C220 C224 1.407 . S
C220 C225 1.485 1_565 S
N221 Co204 1.989 . S
N221 C220 1.354 . S
N221 N222 1.388 . S
N222 Co205 1.993 . S
N222 N221 1.388 . S
N222 C223 1.346 . S
C223 N222 1.346 . S
C223 C224 1.396 . S
C223 C233 1.510 . S
C224 C220 1.407 . S
C224 C223 1.396 . S
C225 C220 1.485 1_545 S
C225 H226 0.959 . S
C225 H227 0.960 . S
C225 H228 0.961 1_545 S
H226 C225 0.959 . S
H227 C225 0.960 . S
H228 C225 0.961 1_565 S
O229 Co204 1.967 . S
O229 C237 1.258 . S
O230 Co205 1.941 . S
O230 C237 1.266 . S
H231 C233 0.959 . S
H232 C233 0.961 1_545 S
C233 C223 1.510 . S
C233 H231 0.959 . S
C233 H232 0.961 1_565 S
C233 H234 0.960 . S
H234 C233 0.960 . S
H235 N215 0.862 . S
O236 Co204 1.920 1_545 S
O236 C209 1.289 . S
C237 O229 1.258 . S
C237 O230 1.266 . S
Co238 O241 1.970 . S
Co238 N255 1.989 . S
Co238 O263 1.967 . S
Co238 O270 1.920 . S
Co239 O242 1.966 . S
Co239 N248 2.022 . S
Co239 N256 1.993 . S
Co239 O264 1.941 . S
C240 O241 1.258 . S
C240 O242 1.263 . S
O241 Co238 1.970 . S
O241 C240 1.258 . S
O242 Co239 1.966 . S
O242 C240 1.263 . S
C243 O244 1.235 . S
C243 O270 1.289 . S
O244 C243 1.235 . S
C245 C247 1.400 . S
C245 N248 1.351 . S
C245 C250 1.501 . S
C246 C247 1.387 . S
C246 N249 1.341 . S
C247 C245 1.400 . S
C247 C246 1.387 . S
N248 Co239 2.022 . S
N248 C245 1.351 . S
N248 N249 1.365 . S
N249 C246 1.341 . S
N249 N248 1.365 . S
N249 H269 0.862 . S
C250 C245 1.501 . S
C250 H251 0.961 . S
C250 H252 0.961 . S
C250 H253 0.960 . S
H251 C250 0.961 . S
H252 C250 0.961 . S
H253 C250 0.960 . S
C254 N255 1.342 . S
C254 C258 1.401 . S
C254 C259 1.499 . S
N255 Co238 1.989 . S
N255 C254 1.342 . S
N255 N256 1.388 . S
N256 Co239 1.993 . S
N256 N255 1.388 . S
N256 C257 1.346 . S
C257 N256 1.346 . S
C257 C258 1.396 . S
C257 C267 1.510 . S
C258 C254 1.401 . S
C258 C257 1.396 . S
C259 C254 1.499 . S
C259 H260 0.959 . S
C259 H261 0.960 . S
C259 H262 0.961 . S
H260 C259 0.959 . S
H261 C259 0.960 . S
H262 C259 0.961 . S
O263 Co238 1.967 . S
O263 C271 1.258 . S
O264 Co239 1.941 . S
O264 C271 1.266 . S
H265 C267 0.959 . S
H266 C267 0.961 . S
C267 C257 1.510 . S
C267 H265 0.959 . S
C267 H266 0.961 . S
C267 H268 0.960 . S
H268 C267 0.960 . S
H269 N249 0.862 . S
O270 Co238 1.920 . S
O270 C243 1.289 . S
C271 O263 1.258 . S
C271 O264 1.266 . S
Co272 O275 1.970 1_455 S
Co272 N289 1.989 . S
Co272 O297 1.967 . S
Co272 O304 1.920 1_455 S
Co273 O276 1.966 . S
Co273 N282 2.022 . S
Co273 N290 1.993 . S
Co273 O298 1.941 . S
C274 O275 1.258 . S
C274 O276 1.263 1_655 S
O275 Co272 1.970 1_655 S
O275 C274 1.258 . S
O276 Co273 1.966 . S
O276 C274 1.263 1_455 S
C277 O278 1.235 . S
C277 O304 1.289 . S
O278 C277 1.235 . S
C279 C281 1.400 . S
C279 N282 1.351 . S
C279 C284 1.501 1_455 S
C280 C281 1.387 . S
C280 N283 1.341 . S
C281 C279 1.400 . S
C281 C280 1.387 . S
N282 Co273 2.022 . S
N282 C279 1.351 . S
N282 N283 1.365 . S
N283 C280 1.341 . S
N283 N282 1.365 . S
N283 H303 0.862 . S
C284 C279 1.501 1_655 S
C284 H285 0.961 . S
C284 H286 0.961 . S
C284 H287 0.960 . S
H285 C284 0.961 . S
H286 C284 0.961 . S
H287 C284 0.960 . S
C288 N289 1.342 1_655 S
C288 C292 1.401 1_655 S
C288 C293 1.499 . S
N289 Co272 1.989 . S
N289 C288 1.342 1_455 S
N289 N290 1.388 . S
N290 Co273 1.993 . S
N290 N289 1.388 . S
N290 C291 1.346 . S
C291 N290 1.346 . S
C291 C292 1.396 . S
C291 C301 1.510 . S
C292 C288 1.401 1_455 S
C292 C291 1.396 . S
C293 C288 1.499 . S
C293 H294 0.959 . S
C293 H295 0.960 . S
C293 H296 0.961 1_655 S
H294 C293 0.959 . S
H295 C293 0.960 . S
H296 C293 0.961 1_455 S
O297 Co272 1.967 . S
O297 C305 1.258 . S
O298 Co273 1.941 . S
O298 C305 1.266 . S
H299 C301 0.959 . S
H300 C301 0.961 1_655 S
C301 C291 1.510 . S
C301 H299 0.959 . S
C301 H300 0.961 1_455 S
C301 H302 0.960 . S
H302 C301 0.960 . S
H303 N283 0.862 . S
O304 Co272 1.920 1_655 S
O304 C277 1.289 . S
C305 O297 1.258 . S
C305 O298 1.266 . S
Co306 O309 1.970 1_545 S
Co306 N323 1.989 . S
Co306 O331 1.967 . S
Co306 O338 1.920 . S
Co307 O310 1.966 . S
Co307 N316 2.022 . S
Co307 N324 1.993 . S
Co307 O332 1.941 . S
C308 O309 1.258 . S
C308 O310 1.263 1_565 S
O309 Co306 1.970 1_565 S
O309 C308 1.258 . S
O310 Co307 1.966 . S
O310 C308 1.263 1_545 S
C311 O312 1.235 . S
C311 O338 1.289 1_565 S
O312 C311 1.235 . S
C313 C315 1.400 . S
C313 N316 1.351 . S
C313 C318 1.490 1_545 S
C314 C315 1.387 . S
C314 N317 1.341 . S
C315 C313 1.400 . S
C315 C314 1.387 . S
N316 Co307 2.022 . S
N316 C313 1.351 . S
N316 N317 1.365 . S
N317 C314 1.341 . S
N317 N316 1.365 . S
N317 H337 0.862 . S
C318 C313 1.490 1_565 S
C318 H319 0.968 . S
C318 H320 0.977 . S
C318 H321 0.948 1_565 S
H319 C318 0.968 . S
H320 C318 0.977 . S
H321 C318 0.948 1_545 S
C322 N323 1.342 . S
C322 C326 1.401 . S
C322 C327 1.499 1_545 S
N323 Co306 1.989 . S
N323 C322 1.342 . S
N323 N324 1.388 . S
N324 Co307 1.993 . S
N324 N323 1.388 . S
N324 C325 1.346 . S
C325 N324 1.346 . S
C325 C326 1.396 . S
C325 C335 1.510 . S
C326 C322 1.401 . S
C326 C325 1.396 . S
C327 C322 1.499 1_565 S
C327 H328 0.959 . S
C327 H329 0.960 . S
C327 H330 0.961 1_565 S
H328 C327 0.959 . S
H329 C327 0.960 . S
H330 C327 0.961 1_545 S
O331 Co306 1.967 . S
O331 C339 1.258 . S
O332 Co307 1.941 . S
O332 C339 1.266 . S
H333 C335 0.959 . S
H334 C335 0.961 . S
C335 C325 1.510 . S
C335 H333 0.959 . S
C335 H334 0.961 . S
C335 H336 0.960 . S
H336 C335 0.960 . S
H337 N317 0.862 . S
O338 Co306 1.920 . S
O338 C311 1.289 1_545 S
C339 O331 1.258 . S
C339 O332 1.266 . S
Co340 O343 1.970 . S
Co340 N357 1.989 . S
Co340 O365 1.967 . S
Co340 O372 1.920 . S
Co341 O344 1.966 . S
Co341 N350 2.022 . S
Co341 N358 1.993 . S
Co341 O366 1.941 . S
C342 O343 1.258 . S
C342 O344 1.263 . S
O343 Co340 1.970 . S
O343 C342 1.258 . S
O344 Co341 1.966 . S
O344 C342 1.263 . S
C345 O346 1.235 . S
C345 O372 1.289 . S
O346 C345 1.235 . S
C347 C349 1.400 . S
C347 N350 1.351 . S
C347 C352 1.501 . S
C348 C349 1.387 . S
C348 N351 1.341 . S
C349 C347 1.400 . S
C349 C348 1.387 . S
N350 Co341 2.022 . S
N350 C347 1.351 . S
N350 N351 1.365 . S
N351 C348 1.341 . S
N351 N350 1.365 . S
N351 H371 0.862 . S
C352 C347 1.501 . S
C352 H353 0.961 . S
C352 H354 0.961 . S
C352 H355 0.960 . S
H353 C352 0.961 . S
H354 C352 0.961 . S
H355 C352 0.960 . S
C356 N357 1.342 . S
C356 C360 1.401 . S
C356 C361 1.499 . S
N357 Co340 1.989 . S
N357 C356 1.342 . S
N357 N358 1.388 . S
N358 Co341 1.993 . S
N358 N357 1.388 . S
N358 C359 1.346 . S
C359 N358 1.346 . S
C359 C360 1.396 . S
C359 C369 1.510 . S
C360 C356 1.401 . S
C360 C359 1.396 . S
C361 C356 1.499 . S
C361 H362 0.959 . S
C361 H363 0.960 . S
C361 H364 0.961 . S
H362 C361 0.959 . S
H363 C361 0.960 . S
H364 C361 0.961 . S
O365 Co340 1.967 . S
O365 C373 1.258 . S
O366 Co341 1.941 . S
O366 C373 1.266 . S
H367 C369 0.959 . S
H368 C369 0.961 . S
C369 C359 1.510 . S
C369 H367 0.959 . S
C369 H368 0.961 . S
C369 H370 0.960 . S
H370 C369 0.960 . S
H371 N351 0.862 . S
O372 Co340 1.920 . S
O372 C345 1.289 . S
C373 O365 1.258 . S
C373 O366 1.266 . S
Co374 O377 1.970 1_655 S
Co374 N391 1.989 . S
Co374 O399 1.967 . S
Co374 O406 1.920 . S
Co375 O378 1.966 . S
Co375 N384 2.022 . S
Co375 N392 1.993 . S
Co375 O400 1.941 . S
C376 O377 1.258 . S
C376 O378 1.263 1_455 S
O377 Co374 1.970 1_455 S
O377 C376 1.258 . S
O378 Co375 1.966 . S
O378 C376 1.263 1_655 S
C379 O380 1.235 . S
C379 O406 1.289 1_455 S
O380 C379 1.235 . S
C381 C383 1.400 . S
C381 N384 1.351 . S
C381 C386 1.501 . S
C382 C383 1.387 . S
C382 N385 1.341 . S
C383 C381 1.400 . S
C383 C382 1.387 . S
N384 Co375 2.022 . S
N384 C381 1.351 . S
N384 N385 1.365 . S
N385 C382 1.341 . S
N385 N384 1.365 . S
N385 H405 0.862 . S
C386 C381 1.501 . S
C386 H387 0.961 1_655 S
C386 H388 0.961 1_655 S
C386 H389 0.960 . S
H387 C386 0.961 1_455 S
H388 C386 0.961 1_455 S
H389 C386 0.960 . S
C390 N391 1.342 . S
C390 C394 1.401 . S
C390 C395 1.499 1_655 S
N391 Co374 1.989 . S
N391 C390 1.342 . S
N391 N392 1.388 . S
N392 Co375 1.993 . S
N392 N391 1.388 . S
N392 C393 1.346 . S
C393 N392 1.346 . S
C393 C394 1.396 . S
C393 C403 1.510 . S
C394 C390 1.401 . S
C394 C393 1.396 . S
C395 C390 1.499 1_455 S
C395 H396 0.959 . S
C395 H397 0.960 . S
C395 H398 0.961 1_455 S
H396 C395 0.959 . S
H397 C395 0.960 . S
H398 C395 0.961 1_655 S
O399 Co374 1.967 . S
O399 C407 1.258 . S
O400 Co375 1.941 . S
O400 C407 1.266 . S
H401 C403 0.959 . S
H402 C403 0.961 . S
C403 C393 1.510 . S
C403 H401 0.959 . S
C403 H402 0.961 . S
C403 H404 0.960 . S
H404 C403 0.960 . S
H405 N385 0.862 . S
O406 Co374 1.920 . S
O406 C379 1.289 1_655 S
C407 O399 1.258 . S
C407 O400 1.266 . S
C408 C409 1.349 1_554 S
C408 C410 1.327 . S
C408 H433 0.950 . S
C409 C408 1.349 1_556 S
C409 C425 1.349 . S
C410 C408 1.327 . S
C410 C429 1.429 . S
C410 H434 0.950 . S
C411 C428 1.574 1_565 S
C411 C430 1.368 . S
C411 H435 0.949 . S
H412 C416 0.949 . S
C413 C414 1.349 . S
C413 C415 1.327 . S
C413 H436 0.950 . S
C414 C413 1.349 . S
C414 C426 1.349 . S
C415 C413 1.327 . S
C415 C431 1.429 . S
C415 H437 0.950 . S
C416 H412 0.949 . S
C416 C424 1.574 1_545 S
C416 C432 1.368 . S
H417 C425 0.950 . S
H418 C423 0.962 . S
H419 C424 0.949 . S
H420 C426 0.950 . S
H421 C427 0.950 . S
H422 C428 0.949 . S
C423 H418 0.962 . S
C423 C425 1.327 1_554 S
C423 C429 1.429 . S
C424 C416 1.574 1_565 S
C424 H419 0.949 . S
C424 C430 1.368 . S
C425 C409 1.349 . S
C425 H417 0.950 . S
C425 C423 1.327 1_556 S
C426 C414 1.349 . S
C426 H420 0.950 . S
C426 C427 1.327 . S
C427 H421 0.950 . S
C427 C426 1.327 . S
C427 C431 1.429 . S
C428 C411 1.574 1_545 S
C428 H422 0.949 . S
C428 C432 1.368 . S
C429 C410 1.429 . S
C429 C423 1.429 . S
C429 C430 1.523 . S
C430 C411 1.368 . S
C430 C424 1.368 . S
C430 C429 1.523 . S
C431 C415 1.429 . S
C431 C427 1.429 . S
C431 C432 1.523 . S
C432 C416 1.368 . S
C432 C428 1.368 . S
C432 C431 1.523 . S
H433 C408 0.950 . S
H434 C410 0.950 . S
H435 C411 0.949 . S
H436 C413 0.950 . S
H437 C415 0.950 . S
C438 C439 1.349 . S
C438 C440 1.327 . S
C438 H463 0.950 . S
C439 C438 1.349 . S
C439 C455 1.349 . S
C440 C438 1.327 . S
C440 C459 1.429 . S
C440 H464 0.950 . S
C441 C458 1.574 . S
C441 C460 1.368 . S
C441 H465 0.949 . S
H442 C446 0.949 . S
C443 C444 1.349 . S
C443 C445 1.327 . S
C443 H466 0.950 . S
C444 C443 1.349 . S
C444 C456 1.349 . S
C445 C443 1.327 . S
C445 C461 1.429 . S
C445 H467 0.950 . S
C446 H442 0.949 . S
C446 C454 1.574 . S
C446 C462 1.368 . S
H447 C455 0.950 . S
H448 C453 0.950 . S
H449 C454 0.949 . S
H450 C456 0.950 1_545 S
H451 C457 0.950 . S
H452 C458 0.949 . S
C453 H448 0.950 . S
C453 C455 1.327 . S
C453 C459 1.429 . S
C454 C446 1.574 . S
C454 H449 0.949 . S
C454 C460 1.368 . S
C455 C439 1.349 . S
C455 H447 0.950 . S
C455 C453 1.327 . S
C456 C444 1.349 . S
C456 H450 0.950 1_565 S
C456 C457 1.327 . S
C457 H451 0.950 . S
C457 C456 1.327 . S
C457 C461 1.429 . S
C458 C441 1.574 . S
C458 H452 0.949 . S
C458 C462 1.368 . S
C459 C440 1.429 . S
C459 C453 1.429 . S
C459 C460 1.523 . S
C460 C441 1.368 . S
C460 C454 1.368 . S
C460 C459 1.523 . S
C461 C445 1.429 . S
C461 C457 1.429 . S
C461 C462 1.523 . S
C462 C446 1.368 . S
C462 C458 1.368 . S
C462 C461 1.523 . S
H463 C438 0.950 . S
H464 C440 0.950 . S
H465 C441 0.949 . S
H466 C443 0.950 . S
H467 C445 0.950 . S
C468 C469 1.349 . S
C468 C470 1.327 . S
C468 H493 0.950 . S
C469 C468 1.349 . S
C469 C485 1.349 . S
C470 C468 1.327 . S
C470 C489 1.429 . S
C470 H494 0.950 . S
C471 C488 1.574 1_655 S
C471 C490 1.368 . S
C471 H495 0.949 . S
H472 C476 0.949 . S
C473 C474 1.349 . S
C473 C475 1.327 . S
C473 H496 0.950 . S
C474 C473 1.349 . S
C474 C486 1.349 . S
C475 C473 1.327 . S
C475 C491 1.429 . S
C475 H497 0.950 . S
C476 H472 0.949 . S
C476 C484 1.574 . S
C476 C492 1.368 1_655 S
H477 C485 0.950 . S
H478 C483 0.950 . S
H479 C484 0.949 . S
H480 C486 0.950 . S
H481 C487 0.950 . S
H482 C488 0.949 . S
C483 H478 0.950 . S
C483 C485 1.327 . S
C483 C489 1.429 . S
C484 C476 1.574 . S
C484 H479 0.949 . S
C484 C490 1.368 . S
C485 C469 1.349 . S
C485 H477 0.950 . S
C485 C483 1.327 . S
C486 C474 1.349 . S
C486 H480 0.950 . S
C486 C487 1.327 . S
C487 H481 0.950 . S
C487 C486 1.327 . S
C487 C491 1.429 . S
C488 C471 1.574 1_455 S
C488 H482 0.949 . S
C488 C492 1.368 . S
C489 C470 1.429 . S
C489 C483 1.429 . S
C489 C490 1.523 . S
C490 C471 1.368 . S
C490 C484 1.368 . S
C490 C489 1.523 . S
C491 C475 1.429 . S
C491 C487 1.429 . S
C491 C492 1.523 . S
C492 C476 1.368 1_455 S
C492 C488 1.368 . S
C492 C491 1.523 . S
H493 C468 0.950 . S
H494 C470 0.950 . S
H495 C471 0.949 . S
H496 C473 0.950 . S
H497 C475 0.950 . S
C498 C499 1.349 . S
C498 C500 1.327 . S
C498 H523 0.950 . S
C499 C498 1.349 . S
C499 C515 1.349 . S
C500 C498 1.327 . S
C500 C519 1.429 . S
C500 H524 0.950 . S
C501 C518 1.574 1_545 S
C501 C520 1.368 . S
C501 H525 0.949 . S
H502 C506 0.949 . S
C503 C504 1.349 . S
C503 C505 1.327 . S
C503 H526 0.950 . S
C504 C503 1.349 . S
C504 C516 1.349 . S
C505 C503 1.327 . S
C505 C521 1.429 . S
C505 H527 0.950 . S
C506 H502 0.949 . S
C506 C514 1.574 1_565 S
C506 C522 1.368 . S
H507 C515 0.950 . S
H508 C513 0.950 . S
H509 C514 0.949 . S
H510 C516 0.964 . S
H511 C517 0.950 . S
H512 C518 0.949 . S
C513 H508 0.950 . S
C513 C515 1.327 . S
C513 C519 1.429 . S
C514 C506 1.574 1_545 S
C514 H509 0.949 . S
C514 C520 1.368 . S
C515 C499 1.349 . S
C515 H507 0.950 . S
C515 C513 1.327 . S
C516 C504 1.349 . S
C516 H510 0.964 . S
C516 C517 1.327 . S
C517 H511 0.950 . S
C517 C516 1.327 . S
C517 C521 1.429 . S
C518 C501 1.574 1_565 S
C518 H512 0.949 . S
C518 C522 1.368 . S
C519 C500 1.429 . S
C519 C513 1.429 . S
C519 C520 1.523 . S
C520 C501 1.368 . S
C520 C514 1.368 . S
C520 C519 1.523 . S
C521 C505 1.429 . S
C521 C517 1.429 . S
C521 C522 1.523 . S
C522 C506 1.368 . S
C522 C518 1.368 . S
C522 C521 1.523 . S
H523 C498 0.950 . S
H524 C500 0.950 . S
H525 C501 0.949 . S
H526 C503 0.950 . S
H527 C505 0.950 . S
C528 C529 1.349 . S
C528 C530 1.327 . S
C528 H553 0.950 . S
C529 C528 1.349 . S
C529 C545 1.349 . S
C530 C528 1.327 . S
C530 C549 1.429 . S
C530 H554 0.950 . S
C531 C548 1.574 . S
C531 C550 1.368 . S
C531 H555 0.949 . S
H532 C536 0.949 . S
C533 C534 1.349 . S
C533 C535 1.327 . S
C533 H556 0.950 . S
C534 C533 1.349 . S
C534 C546 1.349 . S
C535 C533 1.327 . S
C535 C551 1.429 . S
C535 H557 0.950 . S
C536 H532 0.949 . S
C536 C544 1.574 . S
C536 C552 1.368 . S
H537 C545 0.950 . S
H538 C543 0.950 . S
H539 C544 0.949 . S
H540 C546 0.950 1_655 S
H541 C547 0.950 . S
H542 C548 0.949 . S
C543 H538 0.950 . S
C543 C545 1.327 . S
C543 C549 1.429 . S
C544 C536 1.574 . S
C544 H539 0.949 . S
C544 C550 1.368 . S
C545 C529 1.349 . S
C545 H537 0.950 . S
C545 C543 1.327 . S
C546 C534 1.349 . S
C546 H540 0.950 1_455 S
C546 C547 1.327 . S
C547 H541 0.950 . S
C547 C546 1.327 . S
C547 C551 1.429 . S
C548 C531 1.574 . S
C548 H542 0.949 . S
C548 C552 1.368 . S
C549 C530 1.429 . S
C549 C543 1.429 . S
C549 C550 1.523 . S
C550 C531 1.368 . S
C550 C544 1.368 . S
C550 C549 1.523 . S
C551 C535 1.429 . S
C551 C547 1.429 . S
C551 C552 1.523 . S
C552 C536 1.368 . S
C552 C548 1.368 . S
C552 C551 1.523 . S
H553 C528 0.950 . S
H554 C530 0.950 . S
H555 C531 0.949 . S
H556 C533 0.950 . S
H557 C535 0.950 . S
C558 C559 1.349 . S
C558 C560 1.327 . S
C558 H583 0.950 . S
C559 C558 1.349 . S
C559 C575 1.349 . S
C560 C558 1.327 . S
C560 C579 1.429 . S
C560 H584 0.950 . S
C561 C578 1.574 1_655 S
C561 C580 1.368 . S
C561 H585 0.949 . S
H562 C566 0.949 . S
C563 C564 1.349 . S
C563 C565 1.327 . S
C563 H586 0.950 . S
C564 C563 1.349 . S
C564 C576 1.349 . S
C565 C563 1.327 . S
C565 C581 1.429 . S
C565 H587 0.950 . S
C566 H562 0.949 . S
C566 C574 1.574 1_455 S
C566 C582 1.368 . S
H567 C575 0.950 1_565 S
H568 C573 0.950 . S
H569 C574 0.949 . S
H570 C576 0.950 . S
H571 C577 0.950 . S
H572 C578 0.949 . S
C573 H568 0.950 . S
C573 C575 1.327 . S
C573 C579 1.429 . S
C574 C566 1.574 1_655 S
C574 H569 0.949 . S
C574 C580 1.368 . S
C575 C559 1.349 . S
C575 H567 0.950 1_545 S
C575 C573 1.327 . S
C576 C564 1.349 . S
C576 H570 0.950 . S
C576 C577 1.327 . S
C577 H571 0.950 . S
C577 C576 1.327 . S
C577 C581 1.429 . S
C578 C561 1.574 1_455 S
C578 H572 0.949 . S
C578 C582 1.368 . S
C579 C560 1.429 . S
C579 C573 1.429 . S
C579 C580 1.523 . S
C580 C561 1.368 . S
C580 C574 1.368 . S
C580 C579 1.523 . S
C581 C565 1.429 . S
C581 C577 1.429 . S
C581 C582 1.523 . S
C582 C566 1.368 . S
C582 C578 1.368 . S
C582 C581 1.523 . S
H583 C558 0.950 . S
H584 C560 0.950 . S
H585 C561 0.949 . S
H586 C563 0.950 . S
H587 C565 0.950 . S
C588 C589 1.349 . S
C588 C590 1.327 . S
C588 H613 0.950 1_455 S
C589 C588 1.349 . S
C589 C605 1.349 . S
C590 C588 1.327 . S
C590 C609 1.429 . S
C590 H614 0.950 1_455 S
C591 C608 1.574 . S
C591 C610 1.368 . S
C591 H615 0.949 . S
H592 C596 0.949 1_655 S
C593 C594 1.349 . S
C593 C595 1.327 . S
C593 H616 0.950 . S
C594 C593 1.349 . S
C594 C606 1.349 . S
C595 C593 1.327 . S
C595 C611 1.429 . S
C595 H617 0.950 1_565 S
C596 H592 0.949 1_455 S
C596 C604 1.574 1_565 S
C596 C612 1.368 . S
H597 C605 0.950 . S
H598 C603 0.950 . S
H599 C604 0.949 1_665 S
H600 C606 0.950 1_655 S
H601 C607 0.950 1_655 S
H602 C608 0.949 . S
C603 H598 0.950 . S
C603 C605 1.327 . S
C603 C609 1.429 . S
C604 C596 1.574 1_545 S
C604 H599 0.949 1_445 S
C604 C610 1.368 . S
C605 C589 1.349 . S
C605 H597 0.950 . S
C605 C603 1.327 . S
C606 C594 1.349 . S
C606 H600 0.950 1_455 S
C606 C607 1.327 . S
C607 H601 0.950 1_455 S
C607 C606 1.327 . S
C607 C611 1.429 . S
C608 C591 1.574 . S
C608 H602 0.949 . S
C608 C612 1.368 1_545 S
C609 C590 1.429 . S
C609 C603 1.429 . S
C609 C610 1.523 . S
C610 C591 1.368 . S
C610 C604 1.368 . S
C610 C609 1.523 . S
C611 C595 1.429 . S
C611 C607 1.429 . S
C611 C612 1.523 . S
C612 C596 1.368 . S
C612 C608 1.368 1_565 S
C612 C611 1.523 . S
H613 C588 0.950 1_655 S
H614 C590 0.950 1_655 S
H615 C591 0.949 . S
H616 C593 0.950 . S
H617 C595 0.950 1_545 S
C618 C619 1.349 . S
C618 C620 1.327 . S
C618 H643 0.950 . S
C619 C618 1.349 . S
C619 C635 1.349 . S
C620 C618 1.327 . S
C620 C639 1.429 . S
C620 H644 0.950 . S
C621 C638 1.574 1_655 S
C621 C640 1.368 . S
C621 H645 0.949 1_545 S
H622 C626 0.949 . S
C623 C624 1.349 . S
C623 C625 1.327 . S
C623 H646 0.950 1_545 S
C624 C623 1.349 . S
C624 C636 1.349 . S
C625 C623 1.327 . S
C625 C641 1.429 . S
C625 H647 0.950 1_545 S
C626 H622 0.949 . S
C626 C634 1.574 . S
C626 C642 1.368 . S
H627 C635 0.950 1_565 S
H628 C633 0.950 1_565 S
H629 C634 0.949 1_655 S
H630 C636 0.950 . S
H631 C637 0.950 . S
H632 C638 0.949 1_565 S
C633 H628 0.950 1_545 S
C633 C635 1.327 . S
C633 C639 1.429 . S
C634 C626 1.574 . S
C634 H629 0.949 1_455 S
C634 C640 1.368 1_455 S
C635 C619 1.349 . S
C635 H627 0.950 1_545 S
C635 C633 1.327 . S
C636 C624 1.349 . S
C636 H630 0.950 . S
C636 C637 1.327 . S
C637 H631 0.950 . S
C637 C636 1.327 . S
C637 C641 1.429 . S
C638 C621 1.574 1_455 S
C638 H632 0.949 1_545 S
C638 C642 1.368 . S
C639 C620 1.429 . S
C639 C633 1.429 . S
C639 C640 1.523 . S
C640 C621 1.368 . S
C640 C634 1.368 1_655 S
C640 C639 1.523 . S
C641 C625 1.429 . S
C641 C637 1.429 . S
C641 C642 1.523 . S
C642 C626 1.368 . S
C642 C638 1.368 . S
C642 C641 1.523 . S
H643 C618 0.950 . S
H644 C620 0.950 . S
H645 C621 0.949 1_565 S
H646 C623 0.950 1_565 S
H647 C625 0.950 1_565 S
C648 C649 1.349 . S
C648 C650 1.327 . S
C648 H673 0.950 . S
C649 C648 1.349 . S
C649 C665 1.349 . S
C650 C648 1.327 . S
C650 C669 1.429 . S
C650 H674 0.950 . S
C651 C668 1.574 1_455 S
C651 C670 1.368 . S
C651 H675 0.949 . S
H652 C656 0.949 . S
C653 C654 1.349 . S
C653 C655 1.327 . S
C653 H676 0.950 . S
C654 C653 1.349 . S
C654 C666 1.349 . S
C655 C653 1.327 . S
C655 C671 1.429 . S
C655 H677 0.950 1_565 S
C656 H652 0.949 . S
C656 C664 1.574 1_565 S
C656 C672 1.368 . S
H657 C665 0.950 . S
H658 C663 0.950 . S
H659 C664 0.949 . S
H660 C666 0.950 . S
H661 C667 0.950 . S
H662 C668 0.949 . S
C663 H658 0.950 . S
C663 C665 1.327 . S
C663 C669 1.429 . S
C664 C656 1.574 1_545 S
C664 H659 0.949 . S
C664 C670 1.368 1_655 S
C665 C649 1.349 . S
C665 H657 0.950 . S
C665 C663 1.327 . S
C666 C654 1.349 . S
C666 H660 0.950 . S
C666 C667 1.327 . S
C667 H661 0.950 . S
C667 C666 1.327 . S
C667 C671 1.429 . S
C668 C651 1.574 1_655 S
C668 H662 0.949 . S
C668 C672 1.368 1_545 S
C669 C650 1.429 . S
C669 C663 1.429 . S
C669 C670 1.523 . S
C670 C651 1.368 . S
C670 C664 1.368 1_455 S
C670 C669 1.523 . S
C671 C655 1.429 . S
C671 C667 1.429 . S
C671 C672 1.523 . S
C672 C656 1.368 . S
C672 C668 1.368 1_565 S
C672 C671 1.523 . S
H673 C648 0.950 . S
H674 C650 0.950 . S
H675 C651 0.949 . S
H676 C653 0.950 . S
H677 C655 0.950 1_545 S
C678 C679 1.349 . S
C678 C680 1.327 . S
C678 H703 0.950 . S
C679 C678 1.349 . S
C679 C695 1.349 . S
C680 C678 1.327 . S
C680 C699 1.429 . S
C680 H704 0.950 1_545 S
C681 C698 1.574 1_545 S
C681 C700 1.368 . S
C681 H705 0.949 . S
H682 C686 0.949 . S
C683 C684 1.349 . S
C683 C685 1.327 . S
C683 H706 0.950 . S
C684 C683 1.349 . S
C684 C696 1.349 . S
C685 C683 1.327 . S
C685 C701 1.429 . S
C685 H707 0.950 . S
C686 H682 0.949 . S
C686 C694 1.574 . S
C686 C702 1.368 . S
H687 C695 0.950 . S
H688 C693 0.950 . S
H689 C694 0.949 . S
H690 C696 0.950 . S
H691 C697 0.950 . S
H692 C698 0.949 1_545 S
C693 H688 0.950 . S
C693 C695 1.327 . S
C693 C699 1.429 . S
C694 C686 1.574 . S
C694 H689 0.949 . S
C694 C700 1.368 1_565 S
C695 C679 1.349 . S
C695 H687 0.950 . S
C695 C693 1.327 . S
C696 C684 1.349 . S
C696 H690 0.950 . S
C696 C697 1.327 . S
C697 H691 0.950 . S
C697 C696 1.327 . S
C697 C701 1.429 . S
C698 C681 1.574 1_565 S
C698 H692 0.949 1_565 S
C698 C702 1.368 . S
C699 C680 1.429 . S
C699 C693 1.429 . S
C699 C700 1.523 . S
C700 C681 1.368 . S
C700 C694 1.368 1_545 S
C700 C699 1.523 . S
C701 C685 1.429 . S
C701 C697 1.429 . S
C701 C702 1.523 . S
C702 C686 1.368 . S
C702 C698 1.368 . S
C702 C701 1.523 . S
H703 C678 0.950 . S
H704 C680 0.950 1_565 S
H705 C681 0.949 . S
H706 C683 0.950 . S
H707 C685 0.950 . S
C708 C709 1.349 . S
C708 C710 1.327 . S
C708 H733 0.950 . S
C709 C708 1.349 . S
C709 C725 1.349 . S
C710 C708 1.327 . S
C710 C729 1.429 . S
C710 H734 0.950 . S
C711 C728 1.574 . S
C711 C730 1.368 1_655 S
C711 H735 0.949 1_665 S
H712 C716 0.949 . S
C713 C714 1.349 . S
C713 C715 1.327 . S
C713 H736 0.950 1_565 S
C714 C713 1.349 . S
C714 C726 1.349 . S
C715 C713 1.327 . S
C715 C731 1.429 . S
C715 H737 0.950 1_565 S
C716 H712 0.949 . S
C716 C724 1.574 . S
C716 C732 1.368 . S
H717 C725 0.950 1_545 S
H718 C723 0.950 1_545 S
H719 C724 0.949 . S
H720 C726 0.950 . S
H721 C727 0.950 . S
H722 C728 0.949 1_545 S
C723 H718 0.950 1_565 S
C723 C725 1.327 . S
C723 C729 1.429 . S
C724 C716 1.574 . S
C724 H719 0.949 . S
C724 C730 1.368 1_655 S
C725 C709 1.349 . S
C725 H717 0.950 1_565 S
C725 C723 1.327 . S
C726 C714 1.349 . S
C726 H720 0.950 . S
C726 C727 1.327 . S
C727 H721 0.950 . S
C727 C726 1.327 . S
C727 C731 1.429 . S
C728 C711 1.574 . S
C728 H722 0.949 1_565 S
C728 C732 1.368 . S
C729 C710 1.429 . S
C729 C723 1.429 . S
C729 C730 1.523 . S
C730 C711 1.368 1_455 S
C730 C724 1.368 1_455 S
C730 C729 1.523 . S
C731 C715 1.429 . S
C731 C727 1.429 . S
C731 C732 1.523 . S
C732 C716 1.368 . S
C732 C728 1.368 . S
C732 C731 1.523 . S
H733 C708 0.950 . S
H734 C710 0.950 . S
H735 C711 0.949 1_445 S
H736 C713 0.950 1_545 S
H737 C715 0.950 1_545 S
C738 C739 1.349 . S
C738 C740 1.327 . S
C738 H763 0.950 . S
C739 C738 1.349 . S
C739 C755 1.349 . S
C740 C738 1.327 . S
C740 C759 1.429 . S
C740 H764 0.950 . S
C741 C758 1.574 1_655 S
C741 C760 1.368 . S
C741 H765 0.949 . S
H742 C746 0.949 . S
C743 C744 1.349 . S
C743 C745 1.327 . S
C743 H766 0.950 . S
C744 C743 1.349 . S
C744 C756 1.349 . S
C745 C743 1.327 . S
C745 C761 1.429 . S
C745 H767 0.951 . S
C746 H742 0.949 . S
C746 C754 1.574 1_545 S
C746 C762 1.368 . S
H747 C755 0.950 . S
H748 C753 0.950 . S
H749 C754 0.949 1_545 S
H750 C756 0.950 . S
H751 C757 0.950 . S
H752 C758 0.949 . S
C753 H748 0.950 . S
C753 C755 1.327 . S
C753 C759 1.429 . S
C754 C746 1.574 1_565 S
C754 H749 0.949 1_565 S
C754 C760 1.368 1_455 S
C755 C739 1.349 . S
C755 H747 0.950 . S
C755 C753 1.327 . S
C756 C744 1.349 . S
C756 H750 0.950 . S
C756 C757 1.327 . S
C757 H751 0.950 . S
C757 C756 1.327 . S
C757 C761 1.429 . S
C758 C741 1.574 1_455 S
C758 H752 0.949 . S
C758 C762 1.368 1_565 S
C759 C740 1.429 . S
C759 C753 1.429 . S
C759 C760 1.523 . S
C760 C741 1.368 . S
C760 C754 1.368 1_655 S
C760 C759 1.523 . S
C761 C745 1.429 . S
C761 C757 1.429 . S
C761 C762 1.523 . S
C762 C746 1.368 . S
C762 C758 1.368 1_545 S
C762 C761 1.523 . S
H763 C738 0.950 . S
H764 C740 0.950 . S
H765 C741 0.949 . S
H766 C743 0.950 . S
H767 C745 0.951 . S
C768 C769 1.349 . S
C768 C770 1.327 . S
C768 H793 0.950 . S
C769 C768 1.349 . S
C769 C785 1.349 . S
C770 C768 1.327 . S
C770 C789 1.429 . S
C770 H794 0.950 . S
C771 C788 1.574 . S
C771 C790 1.368 . S
C771 H795 0.949 . S
H772 C776 0.949 . S
C773 C774 1.349 . S
C773 C775 1.327 . S
C773 H796 0.950 . S
C774 C773 1.349 . S
C774 C786 1.349 . S
C775 C773 1.327 . S
C775 C791 1.429 . S
C775 H797 0.950 . S
C776 H772 0.949 . S
C776 C784 1.574 . S
C776 C792 1.368 . S
H777 C785 0.950 . S
H778 C783 0.950 . S
H779 C784 0.949 . S
H780 C786 0.950 . S
H781 C787 0.950 . S
H782 C788 0.949 . S
C783 H778 0.950 . S
C783 C785 1.327 . S
C783 C789 1.429 . S
C784 C776 1.574 . S
C784 H779 0.949 . S
C784 C790 1.368 . S
C785 C769 1.349 . S
C785 H777 0.950 . S
C785 C783 1.327 . S
C786 C774 1.349 . S
C786 H780 0.950 . S
C786 C787 1.327 . S
C787 H781 0.950 . S
C787 C786 1.327 . S
C787 C791 1.429 . S
C788 C771 1.574 . S
C788 H782 0.949 . S
C788 C792 1.368 . S
C789 C770 1.429 . S
C789 C783 1.429 . S
C789 C790 1.523 . S
C790 C771 1.368 . S
C790 C784 1.368 . S
C790 C789 1.523 . S
C791 C775 1.429 . S
C791 C787 1.429 . S
C791 C792 1.523 . S
C792 C776 1.368 . S
C792 C788 1.368 . S
C792 C791 1.523 . S
H793 C768 0.950 . S
H794 C770 0.950 . S
H795 C771 0.949 . S
H796 C773 0.950 . S
H797 C775 0.950 . S
C798 C799 1.349 . S
C798 C800 1.327 . S
C798 H823 0.950 . S
C799 C798 1.349 . S
C799 C815 1.349 . S
C800 C798 1.327 . S
C800 C819 1.429 . S
C800 H824 0.950 . S
C801 C818 1.574 . S
C801 C820 1.368 . S
C801 H825 0.949 . S
H802 C806 0.949 . S
C803 C804 1.349 . S
C803 C805 1.327 . S
C803 H826 0.950 . S
C804 C803 1.349 . S
C804 C816 1.349 . S
C805 C803 1.327 . S
C805 C821 1.429 . S
C805 H827 0.950 . S
C806 H802 0.949 . S
C806 C814 1.574 . S
C806 C822 1.368 . S
H807 C815 0.950 . S
H808 C813 0.950 . S
H809 C814 0.949 . S
H810 C816 0.950 . S
H811 C817 0.950 . S
H812 C818 0.949 . S
C813 H808 0.950 . S
C813 C815 1.327 . S
C813 C819 1.429 . S
C814 C806 1.574 . S
C814 H809 0.949 . S
C814 C820 1.368 . S
C815 C799 1.349 . S
C815 H807 0.950 . S
C815 C813 1.327 . S
C816 C804 1.349 . S
C816 H810 0.950 . S
C816 C817 1.327 . S
C817 H811 0.950 . S
C817 C816 1.327 . S
C817 C821 1.429 . S
C818 C801 1.574 . S
C818 H812 0.949 . S
C818 C822 1.368 . S
C819 C800 1.429 . S
C819 C813 1.429 . S
C819 C820 1.523 . S
C820 C801 1.368 . S
C820 C814 1.368 . S
C820 C819 1.523 . S
C821 C805 1.429 . S
C821 C817 1.429 . S
C821 C822 1.523 . S
C822 C806 1.368 . S
C822 C818 1.368 . S
C822 C821 1.523 . S
H823 C798 0.950 . S
H824 C800 0.950 . S
H825 C801 0.949 . S
H826 C803 0.950 . S
H827 C805 0.950 . S
C828 C829 1.349 . S
C828 C830 1.327 . S
C828 H853 0.950 . S
C829 C828 1.349 . S
C829 C845 1.349 . S
C830 C828 1.327 . S
C830 C849 1.429 . S
C830 H854 0.950 . S
C831 C848 1.574 . S
C831 C850 1.368 . S
C831 H855 0.949 . S
H832 C836 0.949 . S
C833 C834 1.349 . S
C833 C835 1.327 . S
C833 H856 0.950 . S
C834 C833 1.349 . S
C834 C846 1.349 . S
C835 C833 1.327 . S
C835 C851 1.429 . S
C835 H857 0.950 . S
C836 H832 0.949 . S
C836 C844 1.574 . S
C836 C852 1.368 . S
H837 C845 0.950 . S
H838 C843 0.950 . S
H839 C844 0.949 . S
H840 C846 0.950 . S
H841 C847 0.950 . S
H842 C848 0.949 . S
C843 H838 0.950 . S
C843 C845 1.327 . S
C843 C849 1.429 . S
C844 C836 1.574 . S
C844 H839 0.949 . S
C844 C850 1.368 . S
C845 C829 1.349 . S
C845 H837 0.950 . S
C845 C843 1.327 . S
C846 C834 1.349 . S
C846 H840 0.950 . S
C846 C847 1.327 . S
C847 H841 0.950 . S
C847 C846 1.327 . S
C847 C851 1.429 . S
C848 C831 1.574 . S
C848 H842 0.949 . S
C848 C852 1.368 . S
C849 C830 1.429 . S
C849 C843 1.429 . S
C849 C850 1.523 . S
C850 C831 1.368 . S
C850 C844 1.368 . S
C850 C849 1.523 . S
C851 C835 1.429 . S
C851 C847 1.429 . S
C851 C852 1.523 . S
C852 C836 1.368 . S
C852 C848 1.368 . S
C852 C851 1.523 . S
H853 C828 0.950 . S
H854 C830 0.950 . S
H855 C831 0.949 . S
H856 C833 0.950 . S
H857 C835 0.950 . S
C858 C859 1.349 . S
C858 C860 1.327 . S
C858 H883 0.950 . S
C859 C858 1.349 . S
C859 C875 1.349 . S
C860 C858 1.327 . S
C860 C879 1.429 . S
C860 H884 0.950 . S
C861 C878 1.574 . S
C861 C880 1.368 . S
C861 H885 0.949 . S
H862 C866 0.949 . S
C863 C864 1.349 . S
C863 C865 1.327 . S
C863 H886 0.950 . S
C864 C863 1.349 . S
C864 C876 1.349 . S
C865 C863 1.327 . S
C865 C881 1.429 . S
C865 H887 0.950 . S
C866 H862 0.949 . S
C866 C874 1.574 . S
C866 C882 1.368 . S
H867 C875 0.950 . S
H868 C873 0.950 . S
H869 C874 0.949 . S
H870 C876 0.950 . S
H871 C877 0.950 . S
H872 C878 0.949 . S
C873 H868 0.950 . S
C873 C875 1.327 . S
C873 C879 1.429 . S
C874 C866 1.574 . S
C874 H869 0.949 . S
C874 C880 1.368 . S
C875 C859 1.349 . S
C875 H867 0.950 . S
C875 C873 1.327 . S
C876 C864 1.349 . S
C876 H870 0.950 . S
C876 C877 1.327 . S
C877 H871 0.950 . S
C877 C876 1.327 . S
C877 C881 1.429 . S
C878 C861 1.574 . S
C878 H872 0.949 . S
C878 C882 1.368 . S
C879 C860 1.429 . S
C879 C873 1.429 . S
C879 C880 1.523 . S
C880 C861 1.368 . S
C880 C874 1.368 . S
C880 C879 1.523 . S
C881 C865 1.429 . S
C881 C877 1.429 . S
C881 C882 1.523 . S
C882 C866 1.368 . S
C882 C878 1.368 . S
C882 C881 1.523 . S
H883 C858 0.950 . S
H884 C860 0.950 . S
H885 C861 0.949 . S
H886 C863 0.950 . S
H887 C865 0.950 . S
C888 C889 1.349 . S
C888 C890 1.327 . S
C888 H913 0.950 . S
C889 C888 1.349 . S
C889 C905 1.349 . S
C890 C888 1.327 . S
C890 C909 1.429 . S
C890 H914 0.950 . S
C891 C908 1.574 . S
C891 C910 1.368 . S
C891 H915 0.949 . S
H892 C896 0.949 . S
C893 C894 1.349 . S
C893 C895 1.327 . S
C893 H916 0.950 . S
C894 C893 1.349 . S
C894 C906 1.349 . S
C895 C893 1.327 . S
C895 C911 1.429 . S
C895 H917 0.950 . S
C896 H892 0.949 . S
C896 C904 1.574 . S
C896 C912 1.368 . S
H897 C905 0.950 . S
H898 C903 0.950 . S
H899 C904 0.949 . S
H900 C906 0.950 . S
H901 C907 0.950 . S
H902 C908 0.949 . S
C903 H898 0.950 . S
C903 C905 1.327 . S
C903 C909 1.429 . S
C904 C896 1.574 . S
C904 H899 0.949 . S
C904 C910 1.368 . S
C905 C889 1.349 . S
C905 H897 0.950 . S
C905 C903 1.327 . S
C906 C894 1.349 . S
C906 H900 0.950 . S
C906 C907 1.327 . S
C907 H901 0.950 . S
C907 C906 1.327 . S
C907 C911 1.429 . S
C908 C891 1.574 . S
C908 H902 0.949 . S
C908 C912 1.368 . S
C909 C890 1.429 . S
C909 C903 1.429 . S
C909 C910 1.523 . S
C910 C891 1.368 . S
C910 C904 1.368 . S
C910 C909 1.523 . S
C911 C895 1.429 . S
C911 C907 1.429 . S
C911 C912 1.523 . S
C912 C896 1.368 . S
C912 C908 1.368 . S
C912 C911 1.523 . S
H913 C888 0.950 . S
H914 C890 0.950 . S
H915 C891 0.949 . S
H916 C893 0.950 . S
H917 C895 0.950 . S
C918 C919 1.349 . S
C918 C920 1.327 . S
C918 H943 0.950 . S
C919 C918 1.349 . S
C919 C935 1.349 . S
C920 C918 1.327 . S
C920 C939 1.429 . S
C920 H944 0.950 . S
C921 C938 1.574 . S
C921 C940 1.368 . S
C921 H945 0.949 . S
H922 C926 0.949 . S
C923 C924 1.349 . S
C923 C925 1.327 . S
C923 H946 0.950 . S
C924 C923 1.349 . S
C924 C936 1.349 . S
C925 C923 1.327 . S
C925 C941 1.429 . S
C925 H947 0.950 . S
C926 H922 0.949 . S
C926 C934 1.574 . S
C926 C942 1.368 . S
H927 C935 0.950 . S
H928 C933 0.950 . S
H929 C934 0.949 . S
H930 C936 0.950 . S
H931 C937 0.950 . S
H932 C938 0.949 . S
C933 H928 0.950 . S
C933 C935 1.327 . S
C933 C939 1.429 . S
C934 C926 1.574 . S
C934 H929 0.949 . S
C934 C940 1.368 . S
C935 C919 1.349 . S
C935 H927 0.950 . S
C935 C933 1.327 . S
C936 C924 1.349 . S
C936 H930 0.950 . S
C936 C937 1.327 . S
C937 H931 0.950 . S
C937 C936 1.327 . S
C937 C941 1.429 . S
C938 C921 1.574 . S
C938 H932 0.949 . S
C938 C942 1.368 . S
C939 C920 1.429 . S
C939 C933 1.429 . S
C939 C940 1.523 . S
C940 C921 1.368 . S
C940 C934 1.368 . S
C940 C939 1.523 . S
C941 C925 1.429 . S
C941 C937 1.429 . S
C941 C942 1.523 . S
C942 C926 1.368 . S
C942 C938 1.368 . S
C942 C941 1.523 . S
H943 C918 0.950 . S
H944 C920 0.950 . S
H945 C921 0.949 . S
H946 C923 0.950 . S
H947 C925 0.950 . S
C948 C949 1.349 . S
C948 C950 1.327 . S
C948 H973 0.950 . S
C949 C948 1.349 . S
C949 C965 1.349 . S
C950 C948 1.327 . S
C950 C969 1.429 . S
C950 H974 0.950 . S
C951 C968 1.574 . S
C951 C970 1.368 . S
C951 H975 0.949 . S
H952 C956 0.949 . S
C953 C954 1.349 . S
C953 C955 1.327 . S
C953 H976 0.950 . S
C954 C953 1.349 . S
C954 C966 1.349 . S
C955 C953 1.327 . S
C955 C971 1.429 . S
C955 H977 0.950 . S
C956 H952 0.949 . S
C956 C964 1.574 . S
C956 C972 1.368 . S
H957 C965 0.950 . S
H958 C963 0.950 . S
H959 C964 0.949 . S
H960 C966 0.950 . S
H961 C967 0.950 . S
H962 C968 0.949 . S
C963 H958 0.950 . S
C963 C965 1.327 . S
C963 C969 1.429 . S
C964 C956 1.574 . S
C964 H959 0.949 . S
C964 C970 1.368 . S
C965 C949 1.349 . S
C965 H957 0.950 . S
C965 C963 1.327 . S
C966 C954 1.349 . S
C966 H960 0.950 . S
C966 C967 1.327 . S
C967 H961 0.950 . S
C967 C966 1.327 . S
C967 C971 1.429 . S
C968 C951 1.574 . S
C968 H962 0.949 . S
C968 C972 1.368 . S
C969 C950 1.429 . S
C969 C963 1.429 . S
C969 C970 1.523 . S
C970 C951 1.368 . S
C970 C964 1.368 . S
C970 C969 1.523 . S
C971 C955 1.429 . S
C971 C967 1.429 . S
C971 C972 1.523 . S
C972 C956 1.368 . S
C972 C968 1.368 . S
C972 C971 1.523 . S
H973 C948 0.950 . S
H974 C950 0.950 . S
H975 C951 0.949 . S
H976 C953 0.950 . S
H977 C955 0.950 . S
C978 C979 1.349 . S
C978 C980 1.327 . S
C978 H1003 0.950 . S
C979 C978 1.349 . S
C979 C995 1.349 . S
C980 C978 1.327 . S
C980 C999 1.429 . S
C980 H1004 0.950 . S
C981 C998 1.574 . S
C981 C1000 1.368 . S
C981 H1005 0.949 . S
H982 C986 0.949 . S
C983 C984 1.379 . S
C983 C985 1.300 1_556 S
C983 H1006 0.949 . S
C984 C983 1.379 . S
C984 C996 1.349 . S
C985 C983 1.300 1_554 S
C985 C1001 1.429 . S
C985 H1007 0.950 . S
C986 H982 0.949 . S
C986 C994 1.574 . S
C986 C1002 1.368 . S
H987 C995 0.950 . S
H988 C993 0.950 . S
H989 C994 0.949 . S
H990 C996 0.950 . S
H991 C997 0.950 . S
H992 C998 0.949 . S
C993 H988 0.950 . S
C993 C995 1.327 . S
C993 C999 1.429 . S
C994 C986 1.574 . S
C994 H989 0.949 . S
C994 C1000 1.368 . S
C995 C979 1.349 . S
C995 H987 0.950 . S
C995 C993 1.327 . S
C996 C984 1.349 . S
C996 H990 0.950 . S
C996 C997 1.327 . S
C997 H991 0.950 . S
C997 C996 1.327 . S
C997 C1001 1.429 1_556 S
C998 C981 1.574 . S
C998 H992 0.949 . S
C998 C1002 1.368 . S
C999 C980 1.429 . S
C999 C993 1.429 . S
C999 C1000 1.523 . S
C1000 C981 1.368 . S
C1000 C994 1.368 . S
C1000 C999 1.523 . S
C1001 C985 1.429 . S
C1001 C997 1.429 1_554 S
C1001 C1002 1.523 . S
C1002 C986 1.368 . S
C1002 C998 1.368 . S
C1002 C1001 1.523 . S
H1003 C978 0.950 . S
H1004 C980 0.950 . S
H1005 C981 0.949 . S
H1006 C983 0.949 . S
H1007 C985 0.950 . S
C1008 C1009 1.349 . S
C1008 C1010 1.327 . S
C1008 H1033 0.950 . S
C1009 C1008 1.349 . S
C1009 C1025 1.349 . S
C1010 C1008 1.327 . S
C1010 C1029 1.429 . S
C1010 H1034 0.950 . S
C1011 C1028 1.574 . S
C1011 C1030 1.368 . S
C1011 H1035 0.949 . S
H1012 C1016 0.949 . S
C1013 C1014 1.349 . S
C1013 C1015 1.327 . S
C1013 H1036 0.950 . S
C1014 C1013 1.349 . S
C1014 C1026 1.349 . S
C1015 C1013 1.327 . S
C1015 C1031 1.429 . S
C1015 H1037 0.950 . S
C1016 H1012 0.949 . S
C1016 C1024 1.574 . S
C1016 C1032 1.368 . S
H1017 C1025 0.950 . S
H1018 C1023 0.950 . S
H1019 C1024 0.949 . S
H1020 C1026 0.950 . S
H1021 C1027 0.950 . S
H1022 C1028 0.949 . S
C1023 H1018 0.950 . S
C1023 C1025 1.327 . S
C1023 C1029 1.429 . S
C1024 C1016 1.574 . S
C1024 H1019 0.949 . S
C1024 C1030 1.368 . S
C1025 C1009 1.349 . S
C1025 H1017 0.950 . S
C1025 C1023 1.327 . S
C1026 C1014 1.349 . S
C1026 H1020 0.950 . S
C1026 C1027 1.327 . S
C1027 H1021 0.950 . S
C1027 C1026 1.327 . S
C1027 C1031 1.429 . S
C1028 C1011 1.574 . S
C1028 H1022 0.949 . S
C1028 C1032 1.368 . S
C1029 C1010 1.429 . S
C1029 C1023 1.429 . S
C1029 C1030 1.523 . S
C1030 C1011 1.368 . S
C1030 C1024 1.368 . S
C1030 C1029 1.523 . S
C1031 C1015 1.429 . S
C1031 C1027 1.429 . S
C1031 C1032 1.523 . S
C1032 C1016 1.368 . S
C1032 C1028 1.368 . S
C1032 C1031 1.523 . S
H1033 C1008 0.950 . S
H1034 C1010 0.950 . S
H1035 C1011 0.949 . S
H1036 C1013 0.950 . S
H1037 C1015 0.950 . S
C1038 C1039 1.349 . S
C1038 C1040 1.327 . S
C1038 H1063 0.950 . S
C1039 C1038 1.349 . S
C1039 C1055 1.349 . S
C1040 C1038 1.327 . S
C1040 C1059 1.429 . S
C1040 H1064 0.950 . S
C1041 C1058 1.574 . S
C1041 C1060 1.368 . S
C1041 H1065 0.949 . S
H1042 C1046 0.949 . S
C1043 C1044 1.349 . S
C1043 C1045 1.327 . S
C1043 H1066 0.950 . S
C1044 C1043 1.349 . S
C1044 C1056 1.349 . S
C1045 C1043 1.327 . S
C1045 C1061 1.429 . S
C1045 H1067 0.950 . S
C1046 H1042 0.949 . S
C1046 C1054 1.574 . S
C1046 C1062 1.368 . S
H1047 C1055 0.950 . S
H1048 C1053 0.950 . S
H1049 C1054 0.949 . S
H1050 C1056 0.950 . S
H1051 C1057 0.950 . S
H1052 C1058 0.949 . S
C1053 H1048 0.950 . S
C1053 C1055 1.327 . S
C1053 C1059 1.429 . S
C1054 C1046 1.574 . S
C1054 H1049 0.949 . S
C1054 C1060 1.368 . S
C1055 C1039 1.349 . S
C1055 H1047 0.950 . S
C1055 C1053 1.327 . S
C1056 C1044 1.349 . S
C1056 H1050 0.950 . S
C1056 C1057 1.327 . S
C1057 H1051 0.950 . S
C1057 C1056 1.327 . S
C1057 C1061 1.429 . S
C1058 C1041 1.574 . S
C1058 H1052 0.949 . S
C1058 C1062 1.368 . S
C1059 C1040 1.429 . S
C1059 C1053 1.429 . S
C1059 C1060 1.523 . S
C1060 C1041 1.368 . S
C1060 C1054 1.368 . S
C1060 C1059 1.523 . S
C1061 C1045 1.429 . S
C1061 C1057 1.429 . S
C1061 C1062 1.523 . S
C1062 C1046 1.368 . S
C1062 C1058 1.368 . S
C1062 C1061 1.523 . S
H1063 C1038 0.950 . S
H1064 C1040 0.950 . S
H1065 C1041 0.949 . S
H1066 C1043 0.950 . S
H1067 C1045 0.950 . S
C1068 C1069 1.349 . S
C1068 C1070 1.327 . S
C1068 H1093 0.950 1_455 S
C1069 C1068 1.349 . S
C1069 C1085 1.349 . S
C1070 C1068 1.327 . S
C1070 C1089 1.429 . S
C1070 H1094 0.950 . S
C1071 C1088 1.574 . S
C1071 C1090 1.368 . S
C1071 H1095 0.949 . S
H1072 C1076 0.949 . S
C1073 C1074 1.349 . S
C1073 C1075 1.327 . S
C1073 H1096 0.950 . S
C1074 C1073 1.349 . S
C1074 C1086 1.349 . S
C1075 C1073 1.327 . S
C1075 C1091 1.429 . S
C1075 H1097 0.950 . S
C1076 H1072 0.949 . S
C1076 C1084 1.574 . S
C1076 C1092 1.368 . S
H1077 C1085 0.950 . S
H1078 C1083 0.950 . S
H1079 C1084 0.949 . S
H1080 C1086 0.950 . S
H1081 C1087 0.950 . S
H1082 C1088 0.949 . S
C1083 H1078 0.950 . S
C1083 C1085 1.327 . S
C1083 C1089 1.429 . S
C1084 C1076 1.574 . S
C1084 H1079 0.949 . S
C1084 C1090 1.368 . S
C1085 C1069 1.349 . S
C1085 H1077 0.950 . S
C1085 C1083 1.327 . S
C1086 C1074 1.349 . S
C1086 H1080 0.950 . S
C1086 C1087 1.327 . S
C1087 H1081 0.950 . S
C1087 C1086 1.327 . S
C1087 C1091 1.429 . S
C1088 C1071 1.574 . S
C1088 H1082 0.949 . S
C1088 C1092 1.368 . S
C1089 C1070 1.429 . S
C1089 C1083 1.429 . S
C1089 C1090 1.523 . S
C1090 C1071 1.368 . S
C1090 C1084 1.368 . S
C1090 C1089 1.523 . S
C1091 C1075 1.429 . S
C1091 C1087 1.429 . S
C1091 C1092 1.523 . S
C1092 C1076 1.368 . S
C1092 C1088 1.368 . S
C1092 C1091 1.523 . S
H1093 C1068 0.950 1_655 S
H1094 C1070 0.950 . S
H1095 C1071 0.949 . S
H1096 C1073 0.950 . S
H1097 C1075 0.950 . S
C1098 C1099 1.349 . S
C1098 C1100 1.327 . S
C1098 H1123 0.933 1_545 S
C1099 C1098 1.349 . S
C1099 C1115 1.349 . S
C1100 C1098 1.327 . S
C1100 C1119 1.429 . S
C1100 H1124 0.950 . S
C1101 C1118 1.574 . S
C1101 C1120 1.368 . S
C1101 H1125 0.949 . S
H1102 C1106 0.949 . S
C1103 C1104 1.349 . S
C1103 C1105 1.327 . S
C1103 H1126 0.950 . S
C1104 C1103 1.349 . S
C1104 C1116 1.349 . S
C1105 C1103 1.327 . S
C1105 C1121 1.429 . S
C1105 H1127 0.950 . S
C1106 H1102 0.949 . S
C1106 C1114 1.574 . S
C1106 C1122 1.368 . S
H1107 C1115 0.950 . S
H1108 C1113 0.950 . S
H1109 C1114 0.949 . S
H1110 C1116 0.950 . S
H1111 C1117 0.950 . S
H1112 C1118 0.949 . S
C1113 H1108 0.950 . S
C1113 C1115 1.327 . S
C1113 C1119 1.429 . S
C1114 C1106 1.574 . S
C1114 H1109 0.949 . S
C1114 C1120 1.368 . S
C1115 C1099 1.349 . S
C1115 H1107 0.950 . S
C1115 C1113 1.327 . S
C1116 C1104 1.349 . S
C1116 H1110 0.950 . S
C1116 C1117 1.327 . S
C1117 H1111 0.950 . S
C1117 C1116 1.327 . S
C1117 C1121 1.429 . S
C1118 C1101 1.574 . S
C1118 H1112 0.949 . S
C1118 C1122 1.368 . S
C1119 C1100 1.429 . S
C1119 C1113 1.429 . S
C1119 C1120 1.523 . S
C1120 C1101 1.368 . S
C1120 C1114 1.368 . S
C1120 C1119 1.523 . S
C1121 C1105 1.429 . S
C1121 C1117 1.429 . S
C1121 C1122 1.523 . S
C1122 C1106 1.368 . S
C1122 C1118 1.368 . S
C1122 C1121 1.523 . S
H1123 C1098 0.933 1_565 S
H1124 C1100 0.950 . S
H1125 C1101 0.949 . S
H1126 C1103 0.950 . S
H1127 C1105 0.950 . S
C1128 C1129 1.349 1_655 S
C1128 C1130 1.327 . S
C1128 H1153 0.950 . S
C1129 C1128 1.349 1_455 S
C1129 C1145 1.349 . S
C1130 C1128 1.327 . S
C1130 C1149 1.429 1_655 S
C1130 H1154 0.950 . S
C1131 C1148 1.574 . S
C1131 C1150 1.368 . S
C1131 H1155 0.949 . S
H1132 C1136 0.949 . S
C1133 C1134 1.349 . S
C1133 C1135 1.327 . S
C1133 H1156 0.950 . S
C1134 C1133 1.349 . S
C1134 C1146 1.349 1_455 S
C1135 C1133 1.327 . S
C1135 C1151 1.429 . S
C1135 H1157 0.950 . S
C1136 H1132 0.949 . S
C1136 C1144 1.574 . S
C1136 C1152 1.368 1_655 S
H1137 C1145 0.950 . S
H1138 C1143 0.950 . S
H1139 C1144 0.949 . S
H1140 C1146 0.950 . S
H1141 C1147 0.950 . S
H1142 C1148 0.949 . S
C1143 H1138 0.950 . S
C1143 C1145 1.327 . S
C1143 C1149 1.429 . S
C1144 C1136 1.574 . S
C1144 H1139 0.949 . S
C1144 C1150 1.368 1_655 S
C1145 C1129 1.349 . S
C1145 H1137 0.950 . S
C1145 C1143 1.327 . S
C1146 C1134 1.349 1_655 S
C1146 H1140 0.950 . S
C1146 C1147 1.327 . S
C1147 H1141 0.950 . S
C1147 C1146 1.327 . S
C1147 C1151 1.429 1_655 S
C1148 C1131 1.574 . S
C1148 H1142 0.949 . S
C1148 C1152 1.368 . S
C1149 C1130 1.429 1_455 S
C1149 C1143 1.429 . S
C1149 C1150 1.523 . S
C1150 C1131 1.368 . S
C1150 C1144 1.368 1_455 S
C1150 C1149 1.523 . S
C1151 C1135 1.429 . S
C1151 C1147 1.429 1_455 S
C1151 C1152 1.523 . S
C1152 C1136 1.368 1_455 S
C1152 C1148 1.368 . S
C1152 C1151 1.523 . S
H1153 C1128 0.950 . S
H1154 C1130 0.950 . S
H1155 C1131 0.949 . S
H1156 C1133 0.950 . S
H1157 C1135 0.950 . S
C1158 C1159 1.349 . S
C1158 C1160 1.327 . S
C1158 H1183 0.950 . S
C1159 C1158 1.349 . S
C1159 C1175 1.349 1_545 S
C1160 C1158 1.327 . S
C1160 C1179 1.429 . S
C1160 H1184 0.950 . S
C1161 C1178 1.574 . S
C1161 C1180 1.368 1_565 S
C1161 H1185 0.949 . S
H1162 C1166 0.949 . S
C1163 C1164 1.349 1_565 S
C1163 C1165 1.327 . S
C1163 H1186 0.950 . S
C1164 C1163 1.349 1_545 S
C1164 C1176 1.349 . S
C1165 C1163 1.327 . S
C1165 C1181 1.429 1_565 S
C1165 H1187 0.950 . S
C1166 H1162 0.949 . S
C1166 C1174 1.574 . S
C1166 C1182 1.368 . S
H1167 C1175 0.950 . S
H1168 C1173 0.950 . S
H1169 C1174 0.949 . S
H1170 C1176 0.950 . S
H1171 C1177 0.950 . S
H1172 C1178 0.949 . S
C1173 H1168 0.950 . S
C1173 C1175 1.327 . S
C1173 C1179 1.429 1_565 S
C1174 C1166 1.574 . S
C1174 H1169 0.949 . S
C1174 C1180 1.368 . S
C1175 C1159 1.349 1_565 S
C1175 H1167 0.950 . S
C1175 C1173 1.327 . S
C1176 C1164 1.349 . S
C1176 H1170 0.950 . S
C1176 C1177 1.327 . S
C1177 H1171 0.950 . S
C1177 C1176 1.327 . S
C1177 C1181 1.429 . S
C1178 C1161 1.574 . S
C1178 H1172 0.949 . S
C1178 C1182 1.368 1_565 S
C1179 C1160 1.429 . S
C1179 C1173 1.429 1_545 S
C1179 C1180 1.523 . S
C1180 C1161 1.368 1_545 S
C1180 C1174 1.368 . S
C1180 C1179 1.523 . S
C1181 C1165 1.429 1_545 S
C1181 C1177 1.429 . S
C1181 C1182 1.523 . S
C1182 C1166 1.368 . S
C1182 C1178 1.368 1_545 S
C1182 C1181 1.523 . S
H1183 C1158 0.950 . S
H1184 C1160 0.950 . S
H1185 C1161 0.949 . S
H1186 C1163 0.950 . S
H1187 C1165 0.950 . S
C1188 C1189 1.349 . S
C1188 C1190 1.327 . S
C1188 H1213 0.950 . S
C1189 C1188 1.349 . S
C1189 C1205 1.349 . S
C1190 C1188 1.327 . S
C1190 C1209 1.429 . S
C1190 H1214 0.950 . S
C1191 C1208 1.574 . S
C1191 C1210 1.368 . S
C1191 H1215 0.949 . S
H1192 C1196 0.949 . S
C1193 C1194 1.349 . S
C1193 C1195 1.327 . S
C1193 H1216 0.950 . S
C1194 C1193 1.349 . S
C1194 C1206 1.349 . S
C1195 C1193 1.327 . S
C1195 C1211 1.429 . S
C1195 H1217 0.950 . S
C1196 H1192 0.949 . S
C1196 C1204 1.574 . S
C1196 C1212 1.368 . S
H1197 C1205 0.950 . S
H1198 C1203 0.950 . S
H1199 C1204 0.949 . S
H1200 C1206 0.950 . S
H1201 C1207 0.950 . S
H1202 C1208 0.949 . S
C1203 H1198 0.950 . S
C1203 C1205 1.327 . S
C1203 C1209 1.429 . S
C1204 C1196 1.574 . S
C1204 H1199 0.949 . S
C1204 C1210 1.368 . S
C1205 C1189 1.349 . S
C1205 H1197 0.950 . S
C1205 C1203 1.327 . S
C1206 C1194 1.349 . S
C1206 H1200 0.950 . S
C1206 C1207 1.327 . S
C1207 H1201 0.950 . S
C1207 C1206 1.327 . S
C1207 C1211 1.429 . S
C1208 C1191 1.574 . S
C1208 H1202 0.949 . S
C1208 C1212 1.368 . S
C1209 C1190 1.429 . S
C1209 C1203 1.429 . S
C1209 C1210 1.523 . S
C1210 C1191 1.368 . S
C1210 C1204 1.368 . S
C1210 C1209 1.523 . S
C1211 C1195 1.429 . S
C1211 C1207 1.429 . S
C1211 C1212 1.523 . S
C1212 C1196 1.368 . S
C1212 C1208 1.368 . S
C1212 C1211 1.523 . S
H1213 C1188 0.950 . S
H1214 C1190 0.950 . S
H1215 C1191 0.949 . S
H1216 C1193 0.950 . S
H1217 C1195 0.950 . S
C1218 C1219 1.349 . S
C1218 C1220 1.327 . S
C1218 H1243 0.950 . S
C1219 C1218 1.349 . S
C1219 C1235 1.349 . S
C1220 C1218 1.327 . S
C1220 C1239 1.429 . S
C1220 H1244 0.950 . S
C1221 C1238 1.574 . S
C1221 C1240 1.368 . S
C1221 H1245 0.949 . S
H1222 C1226 0.949 . S
C1223 C1224 1.349 . S
C1223 C1225 1.327 . S
C1223 H1246 0.950 . S
C1224 C1223 1.349 . S
C1224 C1236 1.349 . S
C1225 C1223 1.327 . S
C1225 C1241 1.429 . S
C1225 H1247 0.950 . S
C1226 H1222 0.949 . S
C1226 C1234 1.574 . S
C1226 C1242 1.368 . S
H1227 C1235 0.950 . S
H1228 C1233 0.950 . S
H1229 C1234 0.949 . S
H1230 C1236 0.950 . S
H1231 C1237 0.950 . S
H1232 C1238 0.949 . S
C1233 H1228 0.950 . S
C1233 C1235 1.327 . S
C1233 C1239 1.429 . S
C1234 C1226 1.574 . S
C1234 H1229 0.949 . S
C1234 C1240 1.368 . S
C1235 C1219 1.349 . S
C1235 H1227 0.950 . S
C1235 C1233 1.327 . S
C1236 C1224 1.349 . S
C1236 H1230 0.950 . S
C1236 C1237 1.327 . S
C1237 H1231 0.950 . S
C1237 C1236 1.327 . S
C1237 C1241 1.429 . S
C1238 C1221 1.574 . S
C1238 H1232 0.949 . S
C1238 C1242 1.368 . S
C1239 C1220 1.429 . S
C1239 C1233 1.429 . S
C1239 C1240 1.523 . S
C1240 C1221 1.368 . S
C1240 C1234 1.368 . S
C1240 C1239 1.523 . S
C1241 C1225 1.429 . S
C1241 C1237 1.429 . S
C1241 C1242 1.523 . S
C1242 C1226 1.368 . S
C1242 C1238 1.368 . S
C1242 C1241 1.523 . S
H1243 C1218 0.950 . S
H1244 C1220 0.950 . S
H1245 C1221 0.949 . S
H1246 C1223 0.950 . S
H1247 C1225 0.950 . S
C1248 C1249 1.349 . S
C1248 C1250 1.327 . S
C1248 H1273 0.950 . S
C1249 C1248 1.349 . S
C1249 C1265 1.349 1_565 S
C1250 C1248 1.327 . S
C1250 C1269 1.429 . S
C1250 H1274 0.950 . S
C1251 C1268 1.574 . S
C1251 C1270 1.368 1_545 S
C1251 H1275 0.949 . S
H1252 C1256 0.949 . S
C1253 C1254 1.349 1_545 S
C1253 C1255 1.327 . S
C1253 H1276 0.950 . S
C1254 C1253 1.349 1_565 S
C1254 C1266 1.349 . S
C1255 C1253 1.327 . S
C1255 C1271 1.429 1_545 S
C1255 H1277 0.950 . S
C1256 H1252 0.949 . S
C1256 C1264 1.574 . S
C1256 C1272 1.368 . S
H1257 C1265 0.950 . S
H1258 C1263 0.950 . S
H1259 C1264 0.949 . S
H1260 C1266 0.950 . S
H1261 C1267 0.950 . S
H1262 C1268 0.949 . S
C1263 H1258 0.950 . S
C1263 C1265 1.327 . S
C1263 C1269 1.429 1_545 S
C1264 C1256 1.574 . S
C1264 H1259 0.949 . S
C1264 C1270 1.368 . S
C1265 C1249 1.349 1_545 S
C1265 H1257 0.950 . S
C1265 C1263 1.327 . S
C1266 C1254 1.349 . S
C1266 H1260 0.950 . S
C1266 C1267 1.327 . S
C1267 H1261 0.950 . S
C1267 C1266 1.327 . S
C1267 C1271 1.429 . S
C1268 C1251 1.574 . S
C1268 H1262 0.949 . S
C1268 C1272 1.368 1_545 S
C1269 C1250 1.429 . S
C1269 C1263 1.429 1_565 S
C1269 C1270 1.523 . S
C1270 C1251 1.368 1_565 S
C1270 C1264 1.368 . S
C1270 C1269 1.523 . S
C1271 C1255 1.429 1_565 S
C1271 C1267 1.429 . S
C1271 C1272 1.523 . S
C1272 C1256 1.368 . S
C1272 C1268 1.368 1_565 S
C1272 C1271 1.523 . S
H1273 C1248 0.950 . S
H1274 C1250 0.950 . S
H1275 C1251 0.949 . S
H1276 C1253 0.950 . S
H1277 C1255 0.950 . S
C1278 C1279 1.349 . S
C1278 C1280 1.327 . S
C1278 H1303 0.950 . S
C1279 C1278 1.349 . S
C1279 C1295 1.349 . S
C1280 C1278 1.327 . S
C1280 C1299 1.429 . S
C1280 H1304 0.950 . S
C1281 C1298 1.574 . S
C1281 C1300 1.368 . S
C1281 H1305 0.949 . S
H1282 C1286 0.949 . S
C1283 C1284 1.349 . S
C1283 C1285 1.327 . S
C1283 H1306 0.950 . S
C1284 C1283 1.349 . S
C1284 C1296 1.349 . S
C1285 C1283 1.327 . S
C1285 C1301 1.429 . S
C1285 H1307 0.950 . S
C1286 H1282 0.949 . S
C1286 C1294 1.574 . S
C1286 C1302 1.368 . S
H1287 C1295 0.950 . S
H1288 C1293 0.950 . S
H1289 C1294 0.949 . S
H1290 C1296 0.950 . S
H1291 C1297 0.950 . S
H1292 C1298 0.949 . S
C1293 H1288 0.950 . S
C1293 C1295 1.327 . S
C1293 C1299 1.429 . S
C1294 C1286 1.574 . S
C1294 H1289 0.949 . S
C1294 C1300 1.368 . S
C1295 C1279 1.349 . S
C1295 H1287 0.950 . S
C1295 C1293 1.327 . S
C1296 C1284 1.349 . S
C1296 H1290 0.950 . S
C1296 C1297 1.327 . S
C1297 H1291 0.950 . S
C1297 C1296 1.327 . S
C1297 C1301 1.429 . S
C1298 C1281 1.574 . S
C1298 H1292 0.949 . S
C1298 C1302 1.368 . S
C1299 C1280 1.429 . S
C1299 C1293 1.429 . S
C1299 C1300 1.523 . S
C1300 C1281 1.368 . S
C1300 C1294 1.368 . S
C1300 C1299 1.523 . S
C1301 C1285 1.429 . S
C1301 C1297 1.429 . S
C1301 C1302 1.523 . S
C1302 C1286 1.368 . S
C1302 C1298 1.368 . S
C1302 C1301 1.523 . S
H1303 C1278 0.950 . S
H1304 C1280 0.950 . S
H1305 C1281 0.949 . S
H1306 C1283 0.950 . S
H1307 C1285 0.950 . S
C409 C240 1.807 . S
C414 C2 1.807 . S
C439 C274 1.807 . S
C444 C36 1.807 . S
C469 C70 1.807 . S
C474 C308 1.807 . S
C499 C342 1.807 . S
C504 C104 1.807 . S
C529 C138 1.807 . S
C534 C376 1.807 . S
C559 C206 1.807 . S
C564 C172 1.807 . S
C589 C9 1.237 . S
C594 C281 1.237 . S
C619 C43 1.236 . S
C624 C315 1.236 . S
C649 C349 1.237 . S
C654 C77 1.237 . S
C679 C383 1.236 . S
C684 C111 1.236 . S
C709 C145 1.236 . S
C714 C213 1.236 . S
C739 C247 1.237 . S
C744 C179 1.237 . S
C769 C243 1.549 1_554 S
C774 C33 1.563 . S
C799 C277 1.549 . S
C804 C67 1.562 . S
C829 C311 1.549 . S
C834 C101 1.562 . S
C859 C135 1.562 . S
C864 C345 1.549 . S
C889 C379 1.549 . S
C894 C169 1.563 . S
C919 C203 1.562 . S
C924 C209 1.548 . S
C949 C237 1.563 . S
C954 C175 1.549 . S
C979 C5 1.548 . S
C984 C271 1.562 . S
C1009 C39 1.548 . S
C1014 C305 1.562 . S
C1039 C73 1.549 . S
C1044 C339 1.563 . S
C1069 C107 1.549 . S
C1074 C373 1.563 . S
C1099 C141 1.548 . S
C1104 C407 1.562 . S
C1129 C292 1.282 . S
C1134 C20 1.282 . S
C1159 C54 1.282 . S
C1164 C326 1.282 . S
C1189 C360 1.281 . S
C1194 C88 1.281 . S
C1219 C122 1.282 . S
C1224 C394 1.282 . S
C1249 C156 1.282 . S
C1254 C224 1.282 . S
C1279 C258 1.281 . S
C1284 C190 1.281 . S
