# Generated by pormake.
# Topology sml, (6)-cn, num edge types: 1
# Building blocks:
#     Node 0, Type 0, BuildingBlock: VOLQOD_clean_sbu_1, # of connection points: 6
#     Node 1, Type 0, BuildingBlock: VOLQOD_clean_sbu_1, # of connection points: 6
#     Node 2, Type 0, BuildingBlock: VOLQOD_clean_sbu_1, # of connection points: 6
#     Node 3, Type 0, BuildingBlock: VOLQOD_clean_sbu_1, # of connection points: 6
#     Node 4, Type 0, BuildingBlock: VOLQOD_clean_sbu_1, # of connection points: 6
#     Node 5, Type 0, BuildingBlock: VOLQOD_clean_sbu_1, # of connection points: 6
#     Edge 6, Type (0, 0), BuildingBlock: UVAHIK_clean_linker_0, # of connection points: 2
#     Edge 7, Type (0, 0), BuildingBlock: UVAHIK_clean_linker_0, # of connection points: 2
#     Edge 8, Type (0, 0), BuildingBlock: UVAHIK_clean_linker_0, # of connection points: 2
#     Edge 9, Type (0, 0), BuildingBlock: UVAHIK_clean_linker_0, # of connection points: 2
#     Edge 10, Type (0, 0), BuildingBlock: UVAHIK_clean_linker_0, # of connection points: 2
#     Edge 11, Type (0, 0), BuildingBlock: UVAHIK_clean_linker_0, # of connection points: 2
#     Edge 12, Type (0, 0), BuildingBlock: UVAHIK_clean_linker_0, # of connection points: 2
#     Edge 13, Type (0, 0), BuildingBlock: UVAHIK_clean_linker_0, # of connection points: 2
#     Edge 14, Type (0, 0), BuildingBlock: UVAHIK_clean_linker_0, # of connection points: 2
#     Edge 15, Type (0, 0), BuildingBlock: UVAHIK_clean_linker_0, # of connection points: 2
#     Edge 16, Type (0, 0), BuildingBlock: UVAHIK_clean_linker_0, # of connection points: 2
#     Edge 17, Type (0, 0), BuildingBlock: UVAHIK_clean_linker_0, # of connection points: 2
#     Edge 18, Type (0, 0), BuildingBlock: UVAHIK_clean_linker_0, # of connection points: 2
#     Edge 19, Type (0, 0), BuildingBlock: UVAHIK_clean_linker_0, # of connection points: 2
#     Edge 20, Type (0, 0), BuildingBlock: UVAHIK_clean_linker_0, # of connection points: 2
#     Edge 21, Type (0, 0), BuildingBlock: UVAHIK_clean_linker_0, # of connection points: 2
#     Edge 22, Type (0, 0), BuildingBlock: UVAHIK_clean_linker_0, # of connection points: 2
#     Edge 23, Type (0, 0), BuildingBlock: UVAHIK_clean_linker_0, # of connection points: 2
# Relax obj value: 0.294
# Max RMSD: 0.187
# Mean RMSD: 0.187
data_MOF--net-sml--node1-VOLQOD_clean_sbu_1--edge1-UVAHIK_clean_linker_0
_symmetry_space_group_name_H-M    P1
_symmetry_Int_Tables_number       1
_symmetry_cell_setting            triclinic
loop_
_symmetry_equiv_pos_as_xyz
'x, y, z'
_cell_length_a     54.988976
_cell_length_b     55.005167
_cell_length_c     19.484732
_cell_angle_alpha  89.760923
_cell_angle_beta   90.130089
_cell_angle_gamma 120.02547
loop_
_atom_site_label
_atom_site_type_symbol
_atom_site_fract_x
_atom_site_fract_y
_atom_site_fract_z
_atom_type_partial_charge
O0 O 0.11322 0.39461 0.97159 0.0
Zn1 Zn 0.15045 0.42802 0.94663 0.0
O2 O 0.18126 0.42048 0.96392 0.0
Zn3 Zn 0.2064 0.44593 0.03373 0.0
Zn4 Zn 0.16551 0.3814 -0.00738 0.0
Zn5 Zn 0.20302 0.42641 0.88165 0.0
O6 O 0.24639 0.46978 0.00073 0.0
O7 O 0.24313 0.45633 0.89242 0.0
O8 O 0.15572 0.46158 0.00055 0.0
O9 O 0.19352 0.47255 0.06366 0.0
O10 O 0.20576 0.42401 0.1162 0.0
O11 O 0.17623 0.37949 0.08923 0.0
O12 O 0.17874 0.3604 0.93397 0.0
O13 O 0.14771 0.43515 0.84646 0.0
O14 O 0.20349 0.39162 0.8534 0.0
O15 O 0.18653 0.43735 0.80577 0.0
C16 C 0.10563 0.36921 -0.01377 0.0
C17 C 0.25752 0.47153 0.94239 0.0
C18 C 0.19258 0.398 0.1316 0.0
C19 C 0.17361 0.47673 0.04589 0.0
C20 C 0.19345 0.36722 0.8795 0.0
C21 C 0.16471 0.43945 0.79764 0.0
O22 O 0.12345 0.36103 -0.00728 0.0
O23 O 0.71926 0.11377 0.33455 0.0
Zn24 Zn 0.71899 0.14812 0.30094 0.0
O25 O 0.75641 0.18069 0.30602 0.0
Zn26 Zn 0.75848 0.2066 0.37545 0.0
Zn27 Zn 0.78231 0.16735 0.32607 0.0
Zn28 Zn 0.76617 0.20075 0.22095 0.0
O29 O 0.77617 0.2466 0.34082 0.0
O30 O 0.76985 0.23864 0.2289 0.0
O31 O 0.69143 0.15423 0.35586 0.0
O32 O 0.71932 0.19539 0.40539 0.0
O33 O 0.77817 0.20334 0.45842 0.0
O34 O 0.7922 0.17361 0.42566 0.0
O35 O 0.81703 0.18659 0.26685 0.0
O36 O 0.7066 0.13953 0.20234 0.0
O37 O 0.80397 0.20808 0.19097 0.0
O38 O 0.73864 0.17815 0.14876 0.0
C39 C 0.73828 0.10708 0.32989 0.0
C40 C 0.7765 0.25521 0.27979 0.0
C41 C 0.78942 0.18845 0.47148 0.0
C42 C 0.69499 0.17434 0.39476 0.0
C43 C 0.82194 0.20191 0.21362 0.0
C44 C 0.71651 0.15415 0.14812 0.0
O45 O 0.76365 0.1254 0.31632 0.0
O46 O 0.60818 0.72434 0.67385 0.0
Zn47 Zn 0.57419 0.726 0.64326 0.0
O48 O 0.58005 0.76385 0.65308 0.0
Zn49 Zn 0.55405 0.76414 0.71957 0.0
Zn50 Zn 0.61865 0.78872 0.68221 0.0
Zn51 Zn 0.5735 0.77686 0.5672 0.0
O52 O 0.53331 0.78336 0.6848 0.0
O53 O 0.54288 0.78639 0.5736 0.0
O54 O 0.54007 0.69793 0.69601 0.0
O55 O 0.52523 0.72456 0.74513 0.0
O56 O 0.57449 0.78172 0.80595 0.0
O57 O 0.61943 0.79738 0.78232 0.0
O58 O 0.63759 0.82406 0.62513 0.0
O59 O 0.56861 0.71429 0.54425 0.0
O60 O 0.60797 0.81208 0.53729 0.0
O61 O 0.5638 0.74817 0.49487 0.0
C62 C 0.63387 0.74339 0.67893 0.0
C63 C 0.5299 0.78946 0.62374 0.0
C64 C 0.60007 0.79314 0.82458 0.0
C65 C 0.52256 0.70058 0.73343 0.0
C66 C 0.6311 0.82914 0.56611 0.0
C67 C 0.56359 0.72498 0.49198 0.0
O68 O 0.64131 0.76933 0.67598 0.0
O69 O 0.88405 0.60805 0.00913 0.0
Zn70 Zn 0.8483 0.57388 -0.02056 0.0
O71 O 0.81629 0.58011 -0.01201 0.0
Zn72 Zn 0.78909 0.55405 0.05344 0.0
Zn73 Zn 0.82998 0.61868 0.017 0.0
Zn74 Zn 0.79722 0.57397 0.90158 0.0
O75 O 0.7496 0.5322 0.01581 0.0
O76 O 0.75727 0.54282 0.9053 0.0
O77 O 0.84207 0.54031 0.03581 0.0
O78 O 0.80019 0.52597 0.08246 0.0
O79 O 0.78985 0.57446 0.13835 0.0
O80 O 0.82 0.61929 0.11544 0.0
O81 O 0.81468 0.63807 0.95808 0.0
O82 O 0.85463 0.56747 0.88052 0.0
O83 O 0.79625 0.60828 0.87117 0.0
O84 O 0.81692 0.56481 0.83081 0.0
C85 C 0.89064 0.63364 0.01636 0.0
C86 C 0.74078 0.52902 0.95421 0.0
C87 C 0.80366 0.60005 0.1567 0.0
C88 C 0.82159 0.52318 0.07328 0.0
C89 C 0.80281 0.63157 0.89953 0.0
C90 C 0.83923 0.56336 0.82811 0.0
O91 O 0.87212 0.64107 0.01464 0.0
O92 O 0.27414 0.88217 0.34471 0.0
Zn93 Zn 0.27443 0.84714 0.31721 0.0
O94 O 0.23675 0.81398 0.3267 0.0
Zn95 Zn 0.23808 0.78662 0.38754 0.0
Zn96 Zn 0.21071 0.82533 0.36194 0.0
Zn97 Zn 0.22303 0.79601 0.23939 0.0
O98 O 0.2222 0.74811 0.346 0.0
O99 O 0.21279 0.75558 0.24 0.0
O100 O 0.30295 0.843 0.37432 0.0
O101 O 0.27779 0.79957 0.41505 0.0
O102 O 0.21783 0.784 0.47419 0.0
O103 O 0.20008 0.81206 0.45866 0.0
O104 O 0.17593 0.81092 0.3035 0.0
O105 O 0.28758 0.85307 0.21882 0.0
O106 O 0.18829 0.79643 0.21071 0.0
O107 O 0.25228 0.81565 0.16903 0.0
C108 C 0.25458 0.88709 0.36077 0.0
C109 C 0.21324 0.73928 0.28577 0.0
C110 C 0.20437 0.79562 0.49628 0.0
C111 C 0.3011 0.82234 0.40859 0.0
C112 C 0.17106 0.80137 0.24253 0.0
C113 C 0.27632 0.83768 0.1666 0.0
O114 O 0.22922 0.86736 0.36661 0.0
O115 O 0.39073 0.27562 0.68138 0.0
Zn116 Zn 0.42476 0.27482 0.64704 0.0
O117 O 0.41954 0.23715 0.65482 0.0
Zn118 Zn 0.44578 0.23663 0.72012 0.0
Zn119 Zn 0.38111 0.21205 0.6837 0.0
Zn120 Zn 0.42615 0.2246 0.56906 0.0
O121 O 0.46638 0.21743 0.68459 0.0
O122 O 0.459 0.21846 0.57301 0.0
O123 O 0.45932 0.30302 0.69882 0.0
O124 O 0.47502 0.27618 0.74325 0.0
O125 O 0.42579 0.2197 0.80779 0.0
O126 O 0.38088 0.2045 0.78452 0.0
O127 O 0.36295 0.17612 0.62944 0.0
O128 O 0.42878 0.28652 0.54766 0.0
O129 O 0.39331 0.18724 0.54376 0.0
O130 O 0.43238 0.25238 0.49613 0.0
C131 C 0.36501 0.25637 0.68276 0.0
C132 C 0.4713 0.21393 0.62263 0.0
C133 C 0.40031 0.20887 0.82686 0.0
C134 C 0.47747 0.30022 0.73345 0.0
C135 C 0.3703 0.17006 0.57301 0.0
C136 C 0.43238 0.2755 0.4942 0.0
O137 O 0.35775 0.23064 0.67505 0.0
C138 C 0.35054 0.28961 0.72795 0.0
C139 C 0.34324 0.26391 0.69654 0.0
C140 C 0.32988 0.29619 0.74466 0.0
C141 C 0.26107 0.28429 0.70019 0.0
H142 H 0.26041 0.3083 0.88682 0.0
C143 C 0.19803 0.32429 0.88789 0.0
C144 C 0.20144 0.34754 0.84973 0.0
C145 C 0.20987 0.3085 0.86503 0.0
C146 C 0.26003 0.30124 0.8348 0.0
H147 H 0.30868 0.2253 0.65607 0.0
H148 H 0.27252 0.23729 0.68401 0.0
H149 H 0.29313 0.29246 0.8553 0.0
H150 H 0.21783 0.37097 0.75489 0.0
H151 H 0.23835 0.34323 0.71495 0.0
H152 H 0.22868 0.29424 0.67913 0.0
C153 C 0.29425 0.25206 0.69623 0.0
C154 C 0.27891 0.29245 0.8167 0.0
C155 C 0.3149 0.24522 0.68055 0.0
C156 C 0.21506 0.35334 0.78579 0.0
C157 C 0.22665 0.33735 0.76262 0.0
C158 C 0.24241 0.29352 0.71807 0.0
C159 C 0.30158 0.27742 0.7293 0.0
C160 C 0.27989 0.28435 0.74907 0.0
C161 C 0.22501 0.31545 0.80323 0.0
C162 C 0.24201 0.3024 0.78537 0.0
H163 H 0.37217 0.30441 0.74107 0.0
H164 H 0.336 0.31601 0.76961 0.0
H165 H 0.26155 0.27816 0.64767 0.0
H166 H 0.18752 0.31917 0.93719 0.0
H167 H 0.20814 0.29152 0.89692 0.0
C168 C 0.06746 0.32386 0.03429 0.0
C169 C 0.07563 0.34905 -0.00139 0.0
C170 C 0.03926 0.30572 0.0503 0.0
C171 C 0.97288 0.3063 0.07196 0.0
H172 H 0.93989 0.22533 0.07891 0.0
C173 C 0.85601 0.23384 0.12563 0.0
C174 C 0.84963 0.21445 0.17947 0.0
C175 C 0.88288 0.24799 0.0975 0.0
C176 C 0.94894 0.24792 0.07734 0.0
H177 H 0.06054 0.37432 0.94873 0.0
H178 H 0.01128 0.34229 0.97472 0.0
H179 H 0.9882 0.25457 0.03853 0.0
H180 H 0.86617 0.19368 0.24349 0.0
H181 H 0.91333 0.21849 0.19361 0.0
H182 H 0.93359 0.29963 0.11011 0.0
C183 C 0.02671 0.33693 -0.0077 0.0
C184 C 0.97658 0.26468 0.05446 0.0
C185 C 0.05494 0.35524 -0.02293 0.0
C186 C 0.87044 0.20858 0.20232 0.0
C187 C 0.89736 0.22265 0.17363 0.0
C188 C 0.94525 0.28957 0.094 0.0
C189 C 0.01858 0.31223 0.03028 0.0
C190 C 0.9889 0.2941 0.05179 0.0
C191 C 0.90394 0.24295 0.12213 0.0
C192 C 0.93306 0.26026 0.0971 0.0
H193 H 0.08294 0.31856 0.05182 0.0
H194 H 0.03383 0.28709 0.08035 0.0
H195 H 0.98184 0.32888 0.07223 0.0
H196 H 0.84048 0.23877 0.10634 0.0
H197 H 0.88735 0.26329 0.05718 0.0
C198 C 0.703 0.0574 0.35881 0.0
C199 C 0.73078 0.0776 0.34228 0.0
C200 C 0.6959 0.02979 0.37311 0.0
C201 C 0.68293 0.96992 0.367 0.0
H202 H 0.73042 0.9563 0.49002 0.0
C203 C 0.64725 0.85876 0.46047 0.0
C204 C 0.64971 0.85607 0.53149 0.0
C205 C 0.66196 0.88495 0.42866 0.0
C206 C 0.71696 0.95977 0.45558 0.0
H207 H 0.77287 0.0845 0.32677 0.0
H208 H 0.7603 0.03601 0.35126 0.0
H209 H 0.74584 0.00401 0.45041 0.0
H210 H 0.67073 0.87834 0.62429 0.0
H211 H 0.69571 0.92432 0.56928 0.0
H212 H 0.65332 0.9262 0.37501 0.0
C213 C 0.74413 0.04173 0.35379 0.0
C214 C 0.72593 0.98704 0.43229 0.0
C215 C 0.75127 0.06945 0.33947 0.0
C216 C 0.66842 0.87981 0.56945 0.0
C217 C 0.68286 0.90614 0.53776 0.0
C218 C 0.67392 0.94277 0.39047 0.0
C219 C 0.71638 0.02165 0.371 0.0
C220 C 0.70866 0.99246 0.38909 0.0
C221 C 0.67911 0.90911 0.46737 0.0
C222 C 0.69055 0.93743 0.43616 0.0
H223 H 0.68669 0.06293 0.3617 0.0
H224 H 0.67443 0.01496 0.38742 0.0
H225 H 0.66937 0.97336 0.33284 0.0
H226 H 0.63334 0.8407 0.42967 0.0
H227 H 0.65916 0.88639 0.37405 0.0
C228 C 0.68416 0.7554 0.68848 0.0
C229 C 0.6554 0.73519 0.68984 0.0
C230 C 0.70438 0.7476 0.70069 0.0
C231 C 0.74052 0.72792 0.77346 0.0
H232 H 0.72719 0.65519 0.71318 0.0
C233 C 0.7903 0.6694 0.90409 0.0
C234 C 0.7945 0.65031 0.86555 0.0
C235 C 0.77838 0.68403 0.87364 0.0
C236 C 0.73167 0.67583 0.72941 0.0
H237 H 0.62536 0.69094 0.70484 0.0
H238 H 0.66045 0.67751 0.72764 0.0
H239 H 0.69641 0.6721 0.67406 0.0
H240 H 0.7919 0.63335 0.76377 0.0
H241 H 0.77204 0.65957 0.71009 0.0
H242 H 0.776 0.73171 0.82836 0.0
C243 C 0.66749 0.69928 0.71561 0.0
C244 C 0.71369 0.68533 0.70779 0.0
C245 C 0.64732 0.70702 0.70302 0.0
C246 C 0.78844 0.64759 0.79501 0.0
C247 C 0.77693 0.66252 0.76435 0.0
C248 C 0.75871 0.71852 0.79466 0.0
C249 C 0.69625 0.71947 0.71477 0.0
C250 C 0.71742 0.71111 0.73107 0.0
C251 C 0.7708 0.68012 0.80382 0.0
C252 C 0.75407 0.69204 0.77425 0.0
H253 H 0.69109 0.77728 0.67811 0.0
H254 H 0.72638 0.7636 0.69896 0.0
H255 H 0.74393 0.74785 0.79257 0.0
H256 H 0.79475 0.6719 0.95861 0.0
H257 H 0.77372 0.69718 0.90584 0.0
C258 C 0.1406 0.78893 0.13852 0.0
C259 C 0.14389 0.79344 0.20967 0.0
C260 C 0.11408 0.77744 0.10848 0.0
C261 C 0.0394 0.75684 0.14209 0.0
H262 H 0.02478 0.69741 0.0135 0.0
C263 C 0.94054 0.64697 0.03951 0.0
C264 C 0.92033 0.65508 0.02857 0.0
C265 C 0.96836 0.66702 0.05361 0.0
C266 C 0.02848 0.71388 0.04947 0.0
H267 H 0.12229 0.79102 0.30461 0.0
H268 H 0.07587 0.77015 0.25268 0.0
H269 H 0.07231 0.72805 0.05384 0.0
H270 H 0.91367 0.69074 0.02233 0.0
H271 H 0.96243 0.72581 0.04586 0.0
H272 H 0.99515 0.74144 0.14066 0.0
C273 C 0.09378 0.77594 0.21969 0.0
C274 C 0.05585 0.73178 0.07184 0.0
C275 C 0.1204 0.78779 0.24961 0.0
C276 C 0.92869 0.68377 0.0309 0.0
C277 C 0.9566 0.70387 0.04468 0.0
C278 C 0.01193 0.73876 0.12003 0.0
C279 C 0.09021 0.76984 0.14908 0.0
C280 C 0.0616 0.75316 0.11942 0.0
C281 C 0.97671 0.69569 0.05663 0.0
C282 C 0.0061 0.7167 0.07459 0.0
H283 H 0.15841 0.79349 0.10622 0.0
H284 H 0.11218 0.77369 0.05369 0.0
H285 H 0.04314 0.77333 0.17802 0.0
H286 H 0.93482 0.62505 0.03842 0.0
H287 H 0.98318 0.65993 0.06381 0.0
C288 C 0.32612 0.12304 0.56941 0.0
C289 C 0.35272 0.14197 0.54238 0.0
C290 C 0.31061 0.09582 0.54322 0.0
C291 C 0.30756 0.05077 0.39694 0.0
H292 H 0.27296 0.99083 0.53154 0.0
C293 C 0.28745 0.9389 0.35282 0.0
C294 C 0.26155 0.9163 0.37421 0.0
C295 C 0.29448 0.96646 0.36756 0.0
C296 C 0.28214 0.00735 0.49325 0.0
H297 H 0.38354 0.14735 0.46541 0.0
H298 H 0.35704 0.09997 0.42138 0.0
H299 H 0.2924 0.0394 0.56787 0.0
H300 H 0.22255 0.90489 0.42712 0.0
H301 H 0.23518 0.95318 0.45393 0.0
H302 H 0.29848 0.01857 0.32307 0.0
C303 C 0.34774 0.10617 0.46167 0.0
C304 C 0.2932 0.03519 0.51394 0.0
C305 C 0.36309 0.13337 0.48739 0.0
C306 C 0.24266 0.92186 0.40988 0.0
C307 C 0.24988 0.94944 0.42544 0.0
C308 C 0.29679 0.02295 0.37646 0.0
C309 C 0.32148 0.08693 0.4898 0.0
C310 C 0.30659 0.05728 0.46629 0.0
C311 C 0.27591 0.97195 0.40469 0.0
C312 C 0.28448 0.00106 0.42468 0.0
H313 H 0.31743 0.12909 0.61144 0.0
H314 H 0.29026 0.08166 0.56537 0.0
H315 H 0.31716 0.06721 0.35862 0.0
H316 H 0.3024 0.93531 0.32501 0.0
H317 H 0.31482 0.98345 0.35162 0.0
C318 C 0.13235 0.41785 0.70088 0.0
C319 C 0.1568 0.44092 0.72694 0.0
C320 C 0.13151 0.41012 0.63235 0.0
C321 C 0.18416 0.41104 0.52582 0.0
H322 H 0.1309 0.38431 0.37562 0.0
C323 C 0.21225 0.4091 0.24927 0.0
C324 C 0.19168 0.39017 0.20404 0.0
C325 C 0.20668 0.40741 0.31923 0.0
C326 C 0.14558 0.39096 0.41806 0.0
H327 H 0.19695 0.477 0.70116 0.0
H328 H 0.19504 0.46416 0.58096 0.0
H329 H 0.12039 0.40226 0.47946 0.0
H330 H 0.15102 0.35211 0.19684 0.0
H331 H 0.14127 0.34934 0.31949 0.0
H332 H 0.20964 0.40035 0.46468 0.0
C333 C 0.17703 0.45153 0.61344 0.0
C334 C 0.1397 0.40156 0.47675 0.0
C335 C 0.17799 0.45905 0.68179 0.0
C336 C 0.16715 0.36719 0.23062 0.0
C337 C 0.16144 0.36567 0.30067 0.0
C338 C 0.18994 0.4003 0.46765 0.0
C339 C 0.15497 0.42575 0.59021 0.0
C340 C 0.15951 0.41269 0.52969 0.0
C341 C 0.18041 0.38684 0.34466 0.0
C342 C 0.1712 0.39113 0.41222 0.0
H343 H 0.11584 0.40354 0.73521 0.0
H344 H 0.11418 0.39029 0.61501 0.0
H345 H 0.19929 0.41864 0.56738 0.0
H346 H 0.2315 0.42676 0.23004 0.0
H347 H 0.22177 0.42399 0.352 0.0
C348 C 0.69633 0.1518 0.03335 0.0
C349 C 0.7074 0.14092 0.08118 0.0
C350 C 0.69916 0.14864 0.96329 0.0
C351 C 0.73441 0.16765 0.83797 0.0
H352 H 0.75753 0.11818 0.75739 0.0
C353 C 0.79838 0.20267 0.59389 0.0
C354 C 0.79121 0.18203 0.54375 0.0
C355 C 0.7904 0.1949 0.66199 0.0
C356 C 0.75096 0.13215 0.77848 0.0
H357 H 0.7274 0.11601 0.09538 0.0
H358 H 0.73423 0.1121 0.97451 0.0
H359 H 0.72953 0.10386 0.86108 0.0
H360 H 0.77253 0.13735 0.52563 0.0
H361 H 0.75702 0.12369 0.64245 0.0
H362 H 0.75371 0.19489 0.75311 0.0
C363 C 0.72238 0.12211 -0.01097 0.0
C364 C 0.73507 0.12403 0.83878 0.0
C365 C 0.71844 0.12427 0.05884 0.0
C366 C 0.77851 0.15372 0.56363 0.0
C367 C 0.76952 0.14588 0.63105 0.0
C368 C 0.74941 0.17529 0.77676 0.0
C369 C 0.71461 0.13605 0.9405 0.0
C370 C 0.72708 0.14196 0.87032 0.0
C371 C 0.77391 0.16633 0.68027 0.0
C372 C 0.7585 0.15801 0.74678 0.0
H373 H 0.68777 0.16477 0.04994 0.0
H374 H 0.69148 0.15833 0.92746 0.0
H375 H 0.72947 0.18257 0.86063 0.0
H376 H 0.80838 0.22465 0.57963 0.0
H377 H 0.79551 0.21135 0.69913 0.0
C378 C 0.58368 0.70884 0.40159 0.0
C379 C 0.56196 0.71326 0.42385 0.0
C380 C 0.58886 0.70883 0.33142 0.0
C381 C 0.56325 0.71413 0.15835 0.0
H382 H 0.63786 0.77909 0.13753 0.0
C383 C 0.58475 0.7909 0.94502 0.0
C384 C 0.60563 0.79397 0.89872 0.0
C385 C 0.58334 0.77976 0.01007 0.0
C386 C 0.61717 0.76072 0.14246 0.0
H387 H 0.52629 0.71711 0.39245 0.0
H388 H 0.53467 0.71632 0.27053 0.0
H389 H 0.62481 0.75269 0.24537 0.0
H390 H 0.64397 0.79209 0.88778 0.0
H391 H 0.64166 0.77305 0.00257 0.0
H392 H 0.55507 0.72329 0.05707 0.0
C393 C 0.54798 0.71316 0.30619 0.0
C394 C 0.60976 0.74538 0.20366 0.0
C395 C 0.54315 0.71367 0.37601 0.0
C396 C 0.6275 0.78978 0.92221 0.0
C397 C 0.62609 0.77865 -0.01237 0.0
C398 C 0.57058 0.72955 0.09759 0.0
C399 C 0.57202 0.71275 0.28341 0.0
C400 C 0.58229 0.72274 0.2132 0.0
C401 C 0.60294 0.77184 0.0299 0.0
C402 C 0.59713 0.75368 0.09049 0.0
H403 H 0.59852 0.70864 0.43798 0.0
H404 H 0.60735 0.70821 0.31498 0.0
H405 H 0.54208 0.69659 0.16414 0.0
H406 H 0.5679 0.79441 0.9287 0.0
H407 H 0.56576 0.77543 0.04301 0.0
C408 C 0.87168 0.58626 0.73217 0.0
C409 C 0.84898 0.56181 0.75958 0.0
C410 C 0.87208 0.59219 0.66222 0.0
C411 C 0.81704 0.58216 0.55154 0.0
H412 H 0.87029 0.6129 0.40173 0.0
C413 C 0.78599 0.58581 0.27556 0.0
C414 C 0.80562 0.6061 0.23065 0.0
C415 C 0.79258 0.58594 0.34459 0.0
C416 C 0.85546 0.60498 0.44386 0.0
H417 H 0.81194 0.5222 0.73569 0.0
H418 H 0.81314 0.53207 0.61335 0.0
H419 H 0.88337 0.59795 0.5075 0.0
H420 H 0.84588 0.64468 0.22424 0.0
H421 H 0.85721 0.64505 0.34543 0.0
H422 H 0.78915 0.58918 0.48913 0.0
C423 C 0.83015 0.54695 0.64557 0.0
C424 C 0.86285 0.59611 0.5037 0.0
C425 C 0.82964 0.54115 0.71527 0.0
C426 C 0.83039 0.62861 0.2576 0.0
C427 C 0.83706 0.62867 0.32677 0.0
C428 C 0.80978 0.59127 0.49238 0.0
C429 C 0.8499 0.5735 0.62002 0.0
C430 C 0.8433 0.58382 0.55693 0.0
C431 C 0.81889 0.60643 0.36986 0.0
C432 C 0.82858 0.60202 0.43714 0.0
H433 H 0.88665 0.60255 0.76582 0.0
H434 H 0.8876 0.61273 0.64328 0.0
H435 H 0.80197 0.5736 0.59314 0.0
H436 H 0.76661 0.56838 0.25628 0.0
H437 H 0.77806 0.56852 0.37647 0.0
C438 C 0.1994 0.81808 0.6017 0.0
C439 C 0.20008 0.79537 0.57084 0.0
C440 C 0.20654 0.82417 0.67072 0.0
C441 C 0.22403 0.7988 0.82949 0.0
H442 H 0.28442 0.87621 0.84447 0.0
C443 C 0.29214 0.8276 0.05901 0.0
C444 C 0.28856 0.84676 0.09862 0.0
C445 C 0.28779 0.82645 -0.01154 0.0
C446 C 0.26765 0.85458 0.84067 0.0
H447 H 0.20406 0.75865 0.58998 0.0
H448 H 0.21638 0.76915 0.70996 0.0
H449 H 0.25559 0.86066 0.7405 0.0
H450 H 0.28243 0.88265 0.09619 0.0
H451 H 0.27463 0.88061 0.97253 0.0
H452 H 0.23627 0.79255 0.9289 0.0
C453 C 0.21087 0.78259 0.68113 0.0
C454 C 0.25088 0.84575 0.78189 0.0
C455 C 0.20383 0.77655 0.61223 0.0
C456 C 0.28548 0.86785 0.06612 0.0
C457 C 0.28079 0.86653 -0.00457 0.0
C458 C 0.24088 0.80755 0.88774 0.0
C459 C 0.21408 0.80744 0.70969 0.0
C460 C 0.2291 0.81767 0.77552 0.0
C461 C 0.27946 0.84423 0.95754 0.0
C462 C 0.2631 0.83537 0.89341 0.0
H463 H 0.19625 0.83281 0.57126 0.0
H464 H 0.20813 0.84305 0.6922 0.0
H465 H 0.20721 0.77717 0.82634 0.0
H466 H 0.29446 0.81114 0.08348 0.0
H467 H 0.2875 0.80949 0.95968 0.0
C468 C 0.45244 0.28871 0.37829 0.0
C469 C 0.43288 0.28717 0.42645 0.0
C470 C 0.44733 0.28929 0.30857 0.0
C471 C 0.38594 0.25415 0.2052 0.0
H472 H 0.44127 0.28118 0.05938 0.0
C473 C 0.37195 0.21127 0.92349 0.0
C474 C 0.39493 0.20879 0.90097 0.0
C475 C 0.37246 0.22229 -0.01168 0.0
C476 C 0.42557 0.27355 0.09964 0.0
H477 H 0.39434 0.28805 0.44142 0.0
H478 H 0.38502 0.28857 0.31851 0.0
H479 H 0.45221 0.30689 0.16732 0.0
H480 H 0.43414 0.21158 0.9323 0.0
H481 H 0.43477 0.23046 0.04541 0.0
H482 H 0.3598 0.22011 0.13796 0.0
C483 C 0.40435 0.28953 0.33462 0.0
C484 C 0.43171 0.28838 0.16093 0.0
C485 C 0.40977 0.28947 0.40472 0.0
C486 C 0.4164 0.21375 0.9477 0.0
C487 C 0.41693 0.22482 0.0121 0.0
C488 C 0.3797 0.2394 0.14346 0.0
C489 C 0.42227 0.28774 0.28616 0.0
C490 C 0.41255 0.27802 0.21555 0.0
C491 C 0.39586 0.23077 0.03103 0.0
C492 C 0.40007 0.24828 0.09175 0.0
H493 H 0.47031 0.28682 0.39436 0.0
H494 H 0.46149 0.28774 0.2726 0.0
H495 H 0.37083 0.24549 0.24666 0.0
H496 H 0.35498 0.20747 0.88882 0.0
H497 H 0.35578 0.22634 0.00257 0.0
C498 C 0.18789 0.51382 0.13575 0.0
C499 C 0.17201 0.50039 0.07695 0.0
C500 C 0.18795 0.53734 0.16259 0.0
C501 C 0.17982 0.59614 0.10871 0.0
H502 H 0.17571 0.60769 0.30359 0.0
C503 C 0.18772 0.69795 0.20821 0.0
C504 C 0.20387 0.70981 0.26757 0.0
C505 C 0.1802 0.67073 0.18839 0.0
C506 C 0.17717 0.60491 0.24907 0.0
H507 H 0.14314 0.5007 0.00131 0.0
H508 H 0.14358 0.5421 0.04789 0.0
H509 H 0.169 0.56278 0.26292 0.0
H510 H 0.22432 0.70221 0.35352 0.0
H511 H 0.212 0.65501 0.3178 0.0
H512 H 0.18911 0.63842 0.0945 0.0
C513 C 0.15595 0.53433 0.07304 0.0
C514 C 0.17319 0.57915 0.22585 0.0
C515 C 0.15562 0.51058 0.04661 0.0
C516 C 0.21178 0.69361 0.30762 0.0
C517 C 0.20456 0.66647 0.28729 0.0
C518 C 0.1841 0.62196 0.13189 0.0
C519 C 0.17237 0.54811 0.1308 0.0
C520 C 0.17466 0.57461 0.15547 0.0
C521 C 0.18897 0.65481 0.2269 0.0
C522 C 0.18301 0.62677 0.20241 0.0
H523 H 0.20064 0.50642 0.16057 0.0
H524 H 0.20098 0.54769 0.20684 0.0
H525 H 0.18152 0.59336 0.05426 0.0
H526 H 0.18098 0.70977 0.1767 0.0
H527 H 0.16764 0.66224 0.1425 0.0
C528 C 0.64365 0.14953 0.42438 0.0
C529 C 0.67043 0.17361 0.42791 0.0
C530 C 0.62048 0.14935 0.45436 0.0
C531 C 0.57352 0.16209 0.47817 0.0
H532 H 0.58134 0.20478 0.64287 0.0
C533 C 0.4989 0.20326 0.53864 0.0
C534 C 0.49179 0.20473 0.60714 0.0
C535 C 0.51866 0.19532 0.52315 0.0
C536 C 0.57859 0.19236 0.59747 0.0
H537 H 0.69389 0.21626 0.46652 0.0
H538 H 0.65357 0.21618 0.51687 0.0
H539 H 0.61975 0.19773 0.60701 0.0
H540 H 0.49954 0.19842 0.71316 0.0
H541 H 0.53393 0.18412 0.6859 0.0
H542 H 0.5323 0.15652 0.4689 0.0
C543 C 0.65045 0.19718 0.49244 0.0
C544 C 0.60077 0.18864 0.57638 0.0
C545 C 0.67359 0.19731 0.46294 0.0
C546 C 0.50465 0.19764 0.65986 0.0
C547 C 0.52441 0.18954 0.64426 0.0
C548 C 0.55129 0.16564 0.49953 0.0
C549 C 0.62357 0.17329 0.48815 0.0
C550 C 0.59879 0.17413 0.51544 0.0
C551 C 0.53174 0.18844 0.57567 0.0
C552 C 0.55385 0.18149 0.55833 0.0
H553 H 0.64053 0.13083 0.39827 0.0
H554 H 0.60012 0.13047 0.45086 0.0
H555 H 0.57127 0.15092 0.43082 0.0
H556 H 0.48952 0.20868 0.49666 0.0
H557 H 0.52419 0.19529 0.46985 0.0
C558 C 0.30204 0.48849 0.87674 0.0
C559 C 0.28746 0.49222 0.93096 0.0
C560 C 0.32958 0.50906 0.86162 0.0
C561 C 0.39107 0.57476 0.92734 0.0
H562 H 0.40827 0.58895 0.73332 0.0
C563 C 0.48222 0.6778 0.81554 0.0
C564 C 0.49825 0.67529 0.76282 0.0
C565 C 0.45845 0.65408 0.8411 0.0
C566 C 0.40391 0.585 0.78769 0.0
H567 H 0.29049 0.51999 0.01324 0.0
H568 H 0.33828 0.55649 -0.01466 0.0
H569 H 0.36309 0.55013 0.76896 0.0
H570 H 0.50223 0.64582 0.69668 0.0
H571 H 0.46037 0.60443 0.74073 0.0
H572 H 0.43171 0.61067 0.9453 0.0
C573 C 0.32873 0.53738 0.9554 0.0
C574 C 0.37803 0.56266 0.80828 0.0
C575 C 0.30128 0.51653 0.97126 0.0
C576 C 0.49032 0.64848 0.73722 0.0
C577 C 0.46633 0.6248 0.76221 0.0
C578 C 0.41687 0.59738 0.90661 0.0
C579 C 0.34305 0.53411 0.89955 0.0
C580 C 0.3712 0.55727 0.87836 0.0
C581 C 0.45004 0.62743 0.8139 0.0
C582 C 0.42345 0.60273 0.83657 0.0
H583 H 0.29206 0.46976 0.8454 0.0
H584 H 0.34016 0.50544 0.81947 0.0
H585 H 0.38672 0.57101 -0.01828 0.0
H586 H 0.48787 0.69814 0.83667 0.0
H587 H 0.44612 0.6567 0.88061 0.0
C588 C 0.79456 0.30467 0.32047 0.0
C589 C 0.78522 0.285 0.26682 0.0
C590 C 0.80305 0.33283 0.30707 0.0
C591 C 0.82533 0.38465 0.16469 0.0
H592 H 0.79884 0.423 0.28311 0.0
C593 C 0.84562 0.49553 0.09912 0.0
C594 C 0.82216 0.49911 0.10591 0.0
C595 C 0.84534 0.47199 0.12743 0.0
C596 C 0.80641 0.41257 0.24954 0.0
H597 H 0.77735 0.27955 0.15709 0.0
H598 H 0.79155 0.3282 0.13424 0.0
H599 H 0.79006 0.37634 0.31465 0.0
H600 H 0.78029 0.48108 0.1494 0.0
H601 H 0.77961 0.43997 0.1971 0.0
H602 H 0.84032 0.42011 0.0977 0.0
C603 C 0.79294 0.32211 0.18641 0.0
C604 C 0.80166 0.38597 0.26803 0.0
C605 C 0.78453 0.2941 0.19969 0.0
C606 C 0.79874 0.47903 0.14309 0.0
C607 C 0.79844 0.45552 0.17109 0.0
C608 C 0.82997 0.41116 0.14607 0.0
C609 C 0.80236 0.34184 0.2398 0.0
C610 C 0.81043 0.37142 0.22488 0.0
C611 C 0.82159 0.45152 0.16296 0.0
C612 C 0.81995 0.42514 0.18742 0.0
H613 H 0.79544 0.29838 0.37274 0.0
H614 H 0.81035 0.34758 0.34926 0.0
H615 H 0.83281 0.3742 0.13097 0.0
H616 H 0.86408 0.51072 0.07127 0.0
H617 H 0.86365 0.4697 0.12098 0.0
C618 C 0.35239 0.84959 0.43928 0.0
C619 C 0.32645 0.8244 0.44098 0.0
C620 C 0.37633 0.85092 0.46834 0.0
C621 C 0.42578 0.8414 0.48942 0.0
H622 H 0.41967 0.79643 0.64926 0.0
C623 C 0.50357 0.80303 0.54201 0.0
C624 C 0.50994 0.79956 0.60998 0.0
C625 C 0.48367 0.81104 0.52823 0.0
C626 C 0.42198 0.80953 0.60531 0.0
H627 H 0.30531 0.78098 0.47542 0.0
H628 H 0.34689 0.78313 0.52421 0.0
H629 H 0.38001 0.80182 0.61573 0.0
H630 H 0.50107 0.80282 0.71693 0.0
H631 H 0.46657 0.8173 0.69279 0.0
H632 H 0.46782 0.84925 0.47927 0.0
C633 C 0.34877 0.80207 0.50191 0.0
C634 C 0.39907 0.8123 0.5855 0.0
C635 C 0.3249 0.80077 0.47326 0.0
C636 C 0.49649 0.80509 0.66396 0.0
C637 C 0.47665 0.81329 0.65013 0.0
C638 C 0.44878 0.8388 0.50954 0.0
C639 C 0.37482 0.82708 0.49951 0.0
C640 C 0.4004 0.82755 0.52611 0.0
C641 C 0.46974 0.81601 0.58203 0.0
C642 C 0.44687 0.82214 0.56651 0.0
H643 H 0.35427 0.86823 0.41518 0.0
H644 H 0.39602 0.8706 0.46623 0.0
H645 H 0.42754 0.85322 0.44329 0.0
H646 H 0.51346 0.79891 0.49909 0.0
H647 H 0.47855 0.8124 0.47517 0.0
C648 C 0.69165 0.49368 -0.00924 0.0
C649 C 0.71111 0.50835 0.93826 0.0
C650 C 0.66403 0.47327 0.97478 0.0
C651 C 0.61427 0.41862 0.92538 0.0
H652 H 0.57694 0.42588 0.764 0.0
C653 C 0.52394 0.32283 0.79339 0.0
C654 C 0.50202 0.32526 0.76304 0.0
C655 C 0.54733 0.34631 0.82065 0.0
C656 C 0.58681 0.4236 0.80985 0.0
H657 H 0.71661 0.51334 0.82776 0.0
H658 H 0.66896 0.47753 0.80014 0.0
H659 H 0.62101 0.46577 0.80201 0.0
H660 H 0.48733 0.35427 0.73875 0.0
H661 H 0.52806 0.39527 0.78747 0.0
H662 H 0.5799 0.37658 0.93372 0.0
C663 C 0.67471 0.48209 0.85368 0.0
C664 C 0.6123 0.44639 0.83114 0.0
C665 C 0.70219 0.50253 0.8696 0.0
C666 C 0.50393 0.35171 0.76134 0.0
C667 C 0.52732 0.37523 0.78908 0.0
C668 C 0.58868 0.3959 0.90437 0.0
C669 C 0.65532 0.46703 0.90598 0.0
C670 C 0.62668 0.44397 0.88819 0.0
C671 C 0.54937 0.37282 0.81879 0.0
C672 C 0.57497 0.39789 0.84539 0.0
H673 H 0.69779 0.49776 0.0442 0.0
H674 H 0.64954 0.46231 0.01635 0.0
H675 H 0.6248 0.41591 0.96927 0.0
H676 H 0.52326 0.30282 0.79534 0.0
H677 H 0.56414 0.34374 0.84182 0.0
loop_
_geom_bond_atom_site_label_1
_geom_bond_atom_site_label_2
_geom_bond_distance
_geom_bond_site_symmetry_2
_ccdc_geom_bond_type
O0 Zn1 1.953 1_554 S
O0 C16 1.225 . S
Zn1 O0 1.953 1_556 S
Zn1 O2 1.949 1_556 S
Zn1 O8 1.919 1_556 S
Zn1 O13 1.924 . S
O2 Zn1 1.949 1_554 S
O2 Zn3 1.923 . S
O2 Zn4 1.950 . S
O2 Zn5 1.945 1_554 S
Zn3 O2 1.923 . S
Zn3 O6 1.933 . S
Zn3 O9 1.941 . S
Zn3 O10 1.965 . S
Zn4 O2 1.950 . S
Zn4 O11 1.938 . S
Zn4 O12 1.906 . S
Zn4 O22 1.953 . S
Zn5 O2 1.945 1_556 S
Zn5 O7 1.932 . S
Zn5 O14 1.977 . S
Zn5 O15 1.910 . S
O6 Zn3 1.933 . S
O6 C17 1.226 1_554 S
O7 Zn5 1.932 . S
O7 C17 1.307 . S
O8 Zn1 1.919 1_554 S
O8 C19 1.253 . S
O9 Zn3 1.941 . S
O9 C19 1.283 . S
O10 Zn3 1.965 . S
O10 C18 1.303 . S
O11 Zn4 1.938 . S
O11 C18 1.247 . S
O12 Zn4 1.906 . S
O12 C20 1.304 1_554 S
O13 Zn1 1.924 . S
O13 C21 1.311 . S
O14 Zn5 1.977 . S
O14 C20 1.272 . S
O15 Zn5 1.910 . S
O15 C21 1.231 . S
C16 O0 1.225 . S
C16 O22 1.298 . S
C17 O6 1.226 1_556 S
C17 O7 1.307 . S
C18 O10 1.303 . S
C18 O11 1.247 . S
C19 O8 1.253 . S
C19 O9 1.283 . S
C20 O12 1.304 1_556 S
C20 O14 1.272 . S
C21 O13 1.311 . S
C21 O15 1.231 . S
O22 Zn4 1.953 . S
O22 C16 1.298 . S
O23 Zn24 1.953 . S
O23 C39 1.225 . S
Zn24 O23 1.953 . S
Zn24 O25 1.949 . S
Zn24 O31 1.919 . S
Zn24 O36 1.924 . S
O25 Zn24 1.949 . S
O25 Zn26 1.923 . S
O25 Zn27 1.950 . S
O25 Zn28 1.945 . S
Zn26 O25 1.923 . S
Zn26 O29 1.933 . S
Zn26 O32 1.941 . S
Zn26 O33 1.965 . S
Zn27 O25 1.950 . S
Zn27 O34 1.938 . S
Zn27 O35 1.906 . S
Zn27 O45 1.953 . S
Zn28 O25 1.945 . S
Zn28 O30 1.932 . S
Zn28 O37 1.977 . S
Zn28 O38 1.910 . S
O29 Zn26 1.933 . S
O29 C40 1.226 . S
O30 Zn28 1.932 . S
O30 C40 1.307 . S
O31 Zn24 1.919 . S
O31 C42 1.253 . S
O32 Zn26 1.941 . S
O32 C42 1.283 . S
O33 Zn26 1.965 . S
O33 C41 1.303 . S
O34 Zn27 1.938 . S
O34 C41 1.247 . S
O35 Zn27 1.906 . S
O35 C43 1.304 . S
O36 Zn24 1.924 . S
O36 C44 1.311 . S
O37 Zn28 1.977 . S
O37 C43 1.272 . S
O38 Zn28 1.910 . S
O38 C44 1.231 . S
C39 O23 1.225 . S
C39 O45 1.298 . S
C40 O29 1.226 . S
C40 O30 1.307 . S
C41 O33 1.303 . S
C41 O34 1.247 . S
C42 O31 1.253 . S
C42 O32 1.283 . S
C43 O35 1.304 . S
C43 O37 1.272 . S
C44 O36 1.311 . S
C44 O38 1.231 . S
O45 Zn27 1.953 . S
O45 C39 1.298 . S
O46 Zn47 1.953 . S
O46 C62 1.225 . S
Zn47 O46 1.953 . S
Zn47 O48 1.949 . S
Zn47 O54 1.919 . S
Zn47 O59 1.924 . S
O48 Zn47 1.949 . S
O48 Zn49 1.923 . S
O48 Zn50 1.950 . S
O48 Zn51 1.945 . S
Zn49 O48 1.923 . S
Zn49 O52 1.933 . S
Zn49 O55 1.941 . S
Zn49 O56 1.965 . S
Zn50 O48 1.950 . S
Zn50 O57 1.938 . S
Zn50 O58 1.906 . S
Zn50 O68 1.953 . S
Zn51 O48 1.945 . S
Zn51 O53 1.932 . S
Zn51 O60 1.977 . S
Zn51 O61 1.910 . S
O52 Zn49 1.933 . S
O52 C63 1.226 . S
O53 Zn51 1.932 . S
O53 C63 1.307 . S
O54 Zn47 1.919 . S
O54 C65 1.253 . S
O55 Zn49 1.941 . S
O55 C65 1.283 . S
O56 Zn49 1.965 . S
O56 C64 1.303 . S
O57 Zn50 1.938 . S
O57 C64 1.247 . S
O58 Zn50 1.906 . S
O58 C66 1.304 . S
O59 Zn47 1.924 . S
O59 C67 1.311 . S
O60 Zn51 1.977 . S
O60 C66 1.272 . S
O61 Zn51 1.910 . S
O61 C67 1.231 . S
C62 O46 1.225 . S
C62 O68 1.298 . S
C63 O52 1.226 . S
C63 O53 1.307 . S
C64 O56 1.303 . S
C64 O57 1.247 . S
C65 O54 1.253 . S
C65 O55 1.283 . S
C66 O58 1.304 . S
C66 O60 1.272 . S
C67 O59 1.311 . S
C67 O61 1.231 . S
O68 Zn50 1.953 . S
O68 C62 1.298 . S
O69 Zn70 1.953 1_554 S
O69 C85 1.225 . S
Zn70 O69 1.953 1_556 S
Zn70 O71 1.949 1_556 S
Zn70 O77 1.919 1_556 S
Zn70 O82 1.924 . S
O71 Zn70 1.949 1_554 S
O71 Zn72 1.923 . S
O71 Zn73 1.950 . S
O71 Zn74 1.945 1_554 S
Zn72 O71 1.923 . S
Zn72 O75 1.933 . S
Zn72 O78 1.941 . S
Zn72 O79 1.965 . S
Zn73 O71 1.950 . S
Zn73 O80 1.938 . S
Zn73 O81 1.906 . S
Zn73 O91 1.953 . S
Zn74 O71 1.945 1_556 S
Zn74 O76 1.932 . S
Zn74 O83 1.977 . S
Zn74 O84 1.910 . S
O75 Zn72 1.933 . S
O75 C86 1.226 1_554 S
O76 Zn74 1.932 . S
O76 C86 1.307 . S
O77 Zn70 1.919 1_554 S
O77 C88 1.253 . S
O78 Zn72 1.941 . S
O78 C88 1.283 . S
O79 Zn72 1.965 . S
O79 C87 1.303 . S
O80 Zn73 1.938 . S
O80 C87 1.247 . S
O81 Zn73 1.906 . S
O81 C89 1.304 1_554 S
O82 Zn70 1.924 . S
O82 C90 1.311 . S
O83 Zn74 1.977 . S
O83 C89 1.272 . S
O84 Zn74 1.910 . S
O84 C90 1.231 . S
C85 O69 1.225 . S
C85 O91 1.298 . S
C86 O75 1.226 1_556 S
C86 O76 1.307 . S
C87 O79 1.303 . S
C87 O80 1.247 . S
C88 O77 1.253 . S
C88 O78 1.283 . S
C89 O81 1.304 1_556 S
C89 O83 1.272 . S
C90 O82 1.311 . S
C90 O84 1.231 . S
O91 Zn73 1.953 . S
O91 C85 1.298 . S
O92 Zn93 1.953 . S
O92 C108 1.225 . S
Zn93 O92 1.953 . S
Zn93 O94 1.949 . S
Zn93 O100 1.919 . S
Zn93 O105 1.924 . S
O94 Zn93 1.949 . S
O94 Zn95 1.923 . S
O94 Zn96 1.950 . S
O94 Zn97 1.945 . S
Zn95 O94 1.923 . S
Zn95 O98 1.933 . S
Zn95 O101 1.941 . S
Zn95 O102 1.965 . S
Zn96 O94 1.950 . S
Zn96 O103 1.938 . S
Zn96 O104 1.906 . S
Zn96 O114 1.953 . S
Zn97 O94 1.945 . S
Zn97 O99 1.932 . S
Zn97 O106 1.977 . S
Zn97 O107 1.910 . S
O98 Zn95 1.933 . S
O98 C109 1.226 . S
O99 Zn97 1.932 . S
O99 C109 1.307 . S
O100 Zn93 1.919 . S
O100 C111 1.253 . S
O101 Zn95 1.941 . S
O101 C111 1.283 . S
O102 Zn95 1.965 . S
O102 C110 1.303 . S
O103 Zn96 1.938 . S
O103 C110 1.247 . S
O104 Zn96 1.906 . S
O104 C112 1.304 . S
O105 Zn93 1.924 . S
O105 C113 1.311 . S
O106 Zn97 1.977 . S
O106 C112 1.272 . S
O107 Zn97 1.910 . S
O107 C113 1.231 . S
C108 O92 1.225 . S
C108 O114 1.298 . S
C109 O98 1.226 . S
C109 O99 1.307 . S
C110 O102 1.303 . S
C110 O103 1.247 . S
C111 O100 1.253 . S
C111 O101 1.283 . S
C112 O104 1.304 . S
C112 O106 1.272 . S
C113 O105 1.311 . S
C113 O107 1.231 . S
O114 Zn96 1.953 . S
O114 C108 1.298 . S
O115 Zn116 1.953 . S
O115 C131 1.225 . S
Zn116 O115 1.953 . S
Zn116 O117 1.949 . S
Zn116 O123 1.919 . S
Zn116 O128 1.924 . S
O117 Zn116 1.949 . S
O117 Zn118 1.923 . S
O117 Zn119 1.950 . S
O117 Zn120 1.945 . S
Zn118 O117 1.923 . S
Zn118 O121 1.933 . S
Zn118 O124 1.941 . S
Zn118 O125 1.965 . S
Zn119 O117 1.950 . S
Zn119 O126 1.938 . S
Zn119 O127 1.906 . S
Zn119 O137 1.953 . S
Zn120 O117 1.945 . S
Zn120 O122 1.932 . S
Zn120 O129 1.977 . S
Zn120 O130 1.910 . S
O121 Zn118 1.933 . S
O121 C132 1.226 . S
O122 Zn120 1.932 . S
O122 C132 1.307 . S
O123 Zn116 1.919 . S
O123 C134 1.253 . S
O124 Zn118 1.941 . S
O124 C134 1.283 . S
O125 Zn118 1.965 . S
O125 C133 1.303 . S
O126 Zn119 1.938 . S
O126 C133 1.247 . S
O127 Zn119 1.906 . S
O127 C135 1.304 . S
O128 Zn116 1.924 . S
O128 C136 1.311 . S
O129 Zn120 1.977 . S
O129 C135 1.272 . S
O130 Zn120 1.910 . S
O130 C136 1.231 . S
C131 O115 1.225 . S
C131 O137 1.298 . S
C132 O121 1.226 . S
C132 O122 1.307 . S
C133 O125 1.303 . S
C133 O126 1.247 . S
C134 O123 1.253 . S
C134 O124 1.283 . S
C135 O127 1.304 . S
C135 O129 1.272 . S
C136 O128 1.311 . S
C136 O130 1.231 . S
O137 Zn119 1.953 . S
O137 C131 1.298 . S
C138 C139 1.349 . S
C138 C140 1.327 . S
C138 H163 0.950 . S
C139 C138 1.349 . S
C139 C155 1.349 . S
C140 C138 1.327 . S
C140 C159 1.429 . S
C140 H164 0.950 . S
C141 C158 1.574 . S
C141 C160 1.368 . S
C141 H165 0.949 . S
H142 C146 0.949 . S
C143 C144 1.349 . S
C143 C145 1.327 . S
C143 H166 0.950 . S
C144 C143 1.349 . S
C144 C156 1.349 . S
C145 C143 1.327 . S
C145 C161 1.429 . S
C145 H167 0.950 . S
C146 H142 0.949 . S
C146 C154 1.574 . S
C146 C162 1.368 . S
H147 C155 0.950 . S
H148 C153 0.950 . S
H149 C154 0.949 . S
H150 C156 0.950 1_554 S
H151 C157 0.950 . S
H152 C158 0.949 . S
C153 H148 0.950 . S
C153 C155 1.327 . S
C153 C159 1.429 . S
C154 C146 1.574 . S
C154 H149 0.949 . S
C154 C160 1.368 . S
C155 C139 1.349 . S
C155 H147 0.950 . S
C155 C153 1.327 . S
C156 C144 1.349 . S
C156 H150 0.950 1_556 S
C156 C157 1.327 . S
C157 H151 0.950 . S
C157 C156 1.327 . S
C157 C161 1.429 . S
C158 C141 1.574 . S
C158 H152 0.949 . S
C158 C162 1.368 . S
C159 C140 1.429 . S
C159 C153 1.429 . S
C159 C160 1.523 . S
C160 C141 1.368 . S
C160 C154 1.368 . S
C160 C159 1.523 . S
C161 C145 1.429 . S
C161 C157 1.429 . S
C161 C162 1.523 . S
C162 C146 1.368 . S
C162 C158 1.368 . S
C162 C161 1.523 . S
H163 C138 0.950 . S
H164 C140 0.950 . S
H165 C141 0.949 . S
H166 C143 0.950 . S
H167 C145 0.950 . S
C168 C169 1.349 . S
C168 C170 1.327 . S
C168 H193 0.950 . S
C169 C168 1.349 . S
C169 C185 1.349 . S
C170 C168 1.327 . S
C170 C189 1.429 . S
C170 H194 0.950 . S
C171 C188 1.574 1_455 S
C171 C190 1.368 . S
C171 H195 0.949 . S
H172 C176 0.949 . S
C173 C174 1.349 . S
C173 C175 1.327 . S
C173 H196 0.950 . S
C174 C173 1.349 . S
C174 C186 1.349 . S
C175 C173 1.327 . S
C175 C191 1.429 . S
C175 H197 0.950 . S
C176 H172 0.949 . S
C176 C184 1.574 . S
C176 C192 1.368 . S
H177 C185 0.950 . S
H178 C183 0.950 . S
H179 C184 0.978 . S
H180 C186 0.950 . S
H181 C187 0.950 . S
H182 C188 0.949 . S
C183 H178 0.950 . S
C183 C185 1.327 . S
C183 C189 1.429 . S
C184 C176 1.574 . S
C184 H179 0.978 . S
C184 C190 1.368 1_655 S
C185 C169 1.349 . S
C185 H177 0.950 . S
C185 C183 1.327 . S
C186 C174 1.349 . S
C186 H180 0.950 . S
C186 C187 1.327 . S
C187 H181 0.950 . S
C187 C186 1.327 . S
C187 C191 1.429 . S
C188 C171 1.574 1_655 S
C188 H182 0.949 . S
C188 C192 1.368 . S
C189 C170 1.429 . S
C189 C183 1.429 . S
C189 C190 1.523 . S
C190 C171 1.368 . S
C190 C184 1.368 1_455 S
C190 C189 1.523 . S
C191 C175 1.429 . S
C191 C187 1.429 . S
C191 C192 1.523 . S
C192 C176 1.368 . S
C192 C188 1.368 . S
C192 C191 1.523 . S
H193 C168 0.950 . S
H194 C170 0.950 . S
H195 C171 0.949 . S
H196 C173 0.950 . S
H197 C175 0.950 . S
C198 C199 1.349 . S
C198 C200 1.327 . S
C198 H223 0.950 . S
C199 C198 1.349 . S
C199 C215 1.349 . S
C200 C198 1.327 . S
C200 C219 1.429 . S
C200 H224 0.950 . S
C201 C218 1.574 . S
C201 C220 1.368 1_565 S
C201 H225 0.949 . S
H202 C206 0.949 . S
C203 C204 1.349 . S
C203 C205 1.327 . S
C203 H226 0.950 . S
C204 C203 1.349 . S
C204 C216 1.349 . S
C205 C203 1.327 . S
C205 C221 1.429 . S
C205 H227 0.950 . S
C206 H202 0.949 . S
C206 C214 1.574 1_565 S
C206 C222 1.368 . S
H207 C215 0.950 . S
H208 C213 0.950 . S
H209 C214 0.949 . S
H210 C216 0.950 . S
H211 C217 0.950 . S
H212 C218 0.949 . S
C213 H208 0.950 . S
C213 C215 1.327 . S
C213 C219 1.429 . S
C214 C206 1.574 1_545 S
C214 H209 0.949 . S
C214 C220 1.368 . S
C215 C199 1.349 . S
C215 H207 0.950 . S
C215 C213 1.327 . S
C216 C204 1.349 . S
C216 H210 0.950 . S
C216 C217 1.327 . S
C217 H211 0.950 . S
C217 C216 1.327 . S
C217 C221 1.429 . S
C218 C201 1.574 . S
C218 H212 0.949 . S
C218 C222 1.368 . S
C219 C200 1.429 . S
C219 C213 1.429 . S
C219 C220 1.523 . S
C220 C201 1.368 1_545 S
C220 C214 1.368 . S
C220 C219 1.523 . S
C221 C205 1.429 . S
C221 C217 1.429 . S
C221 C222 1.523 . S
C222 C206 1.368 . S
C222 C218 1.368 . S
C222 C221 1.523 . S
H223 C198 0.950 . S
H224 C200 0.950 . S
H225 C201 0.949 . S
H226 C203 0.950 . S
H227 C205 0.950 . S
C228 C229 1.349 . S
C228 C230 1.327 . S
C228 H253 0.950 . S
C229 C228 1.349 . S
C229 C245 1.349 . S
C230 C228 1.327 . S
C230 C249 1.429 . S
C230 H254 0.950 . S
C231 C248 1.574 . S
C231 C250 1.368 . S
C231 H255 0.949 . S
H232 C236 0.949 . S
C233 C234 1.349 . S
C233 C235 1.327 . S
C233 H256 0.950 1_556 S
C234 C233 1.349 . S
C234 C246 1.349 . S
C235 C233 1.327 . S
C235 C251 1.429 . S
C235 H257 0.950 . S
C236 H232 0.949 . S
C236 C244 1.574 . S
C236 C252 1.368 . S
H237 C245 0.950 . S
H238 C243 0.950 . S
H239 C244 0.949 . S
H240 C246 0.950 . S
H241 C247 0.950 . S
H242 C248 0.949 . S
C243 H238 0.950 . S
C243 C245 1.327 . S
C243 C249 1.429 . S
C244 C236 1.574 . S
C244 H239 0.949 . S
C244 C250 1.368 . S
C245 C229 1.349 . S
C245 H237 0.950 . S
C245 C243 1.327 . S
C246 C234 1.349 . S
C246 H240 0.950 . S
C246 C247 1.327 . S
C247 H241 0.950 . S
C247 C246 1.327 . S
C247 C251 1.429 . S
C248 C231 1.574 . S
C248 H242 0.949 . S
C248 C252 1.368 . S
C249 C230 1.429 . S
C249 C243 1.429 . S
C249 C250 1.523 . S
C250 C231 1.368 . S
C250 C244 1.368 . S
C250 C249 1.523 . S
C251 C235 1.429 . S
C251 C247 1.429 . S
C251 C252 1.523 . S
C252 C236 1.368 . S
C252 C248 1.368 . S
C252 C251 1.523 . S
H253 C228 0.950 . S
H254 C230 0.950 . S
H255 C231 0.949 . S
H256 C233 0.950 1_554 S
H257 C235 0.950 . S
C258 C259 1.349 . S
C258 C260 1.327 . S
C258 H283 0.950 . S
C259 C258 1.349 . S
C259 C275 1.349 . S
C260 C258 1.327 . S
C260 C279 1.429 . S
C260 H284 0.950 . S
C261 C278 1.574 1_455 S
C261 C280 1.368 . S
C261 H285 0.949 . S
H262 C266 0.949 . S
C263 C264 1.349 . S
C263 C265 1.327 . S
C263 H286 0.950 . S
C264 C263 1.349 . S
C264 C276 1.349 . S
C265 C263 1.327 . S
C265 C281 1.429 . S
C265 H287 0.950 . S
C266 H262 0.949 . S
C266 C274 1.574 . S
C266 C282 1.368 1_455 S
H267 C275 0.950 . S
H268 C273 0.950 . S
H269 C274 0.949 . S
H270 C276 0.950 1_556 S
H271 C277 0.950 . S
H272 C278 0.949 . S
C273 H268 0.950 . S
C273 C275 1.327 . S
C273 C279 1.429 . S
C274 C266 1.574 . S
C274 H269 0.949 . S
C274 C280 1.368 . S
C275 C259 1.349 . S
C275 H267 0.950 . S
C275 C273 1.327 . S
C276 C264 1.349 . S
C276 H270 0.950 1_554 S
C276 C277 1.327 . S
C277 H271 0.950 . S
C277 C276 1.327 . S
C277 C281 1.429 . S
C278 C261 1.574 1_655 S
C278 H272 0.949 . S
C278 C282 1.368 . S
C279 C260 1.429 . S
C279 C273 1.429 . S
C279 C280 1.523 . S
C280 C261 1.368 . S
C280 C274 1.368 . S
C280 C279 1.523 . S
C281 C265 1.429 . S
C281 C277 1.429 . S
C281 C282 1.523 . S
C282 C266 1.368 1_655 S
C282 C278 1.368 . S
C282 C281 1.523 . S
H283 C258 0.950 . S
H284 C260 0.950 . S
H285 C261 0.949 . S
H286 C263 0.950 . S
H287 C265 0.950 . S
C288 C289 1.349 . S
C288 C290 1.327 . S
C288 H313 0.950 . S
C289 C288 1.349 . S
C289 C305 1.349 . S
C290 C288 1.327 . S
C290 C309 1.429 . S
C290 H314 0.950 . S
C291 C308 1.574 . S
C291 C310 1.368 . S
C291 H315 0.949 . S
H292 C296 0.949 . S
C293 C294 1.349 . S
C293 C295 1.327 . S
C293 H316 0.950 . S
C294 C293 1.349 . S
C294 C306 1.349 . S
C295 C293 1.327 . S
C295 C311 1.429 . S
C295 H317 0.950 . S
C296 H292 0.949 . S
C296 C304 1.574 1_565 S
C296 C312 1.368 . S
H297 C305 0.950 . S
H298 C303 0.950 . S
H299 C304 0.949 . S
H300 C306 0.950 . S
H301 C307 0.950 . S
H302 C308 0.949 . S
C303 H298 0.950 . S
C303 C305 1.327 . S
C303 C309 1.429 . S
C304 C296 1.574 1_545 S
C304 H299 0.949 . S
C304 C310 1.368 . S
C305 C289 1.349 . S
C305 H297 0.950 . S
C305 C303 1.327 . S
C306 C294 1.349 . S
C306 H300 0.950 . S
C306 C307 1.327 . S
C307 H301 0.950 . S
C307 C306 1.327 . S
C307 C311 1.429 . S
C308 C291 1.574 . S
C308 H302 0.949 . S
C308 C312 1.368 1_545 S
C309 C290 1.429 . S
C309 C303 1.429 . S
C309 C310 1.523 . S
C310 C291 1.368 . S
C310 C304 1.368 . S
C310 C309 1.523 . S
C311 C295 1.429 . S
C311 C307 1.429 . S
C311 C312 1.523 . S
C312 C296 1.368 . S
C312 C308 1.368 1_565 S
C312 C311 1.523 . S
H313 C288 0.950 . S
H314 C290 0.950 . S
H315 C291 0.949 . S
H316 C293 0.950 . S
H317 C295 0.950 . S
C318 C319 1.349 . S
C318 C320 1.327 . S
C318 H343 0.950 . S
C319 C318 1.349 . S
C319 C335 1.349 . S
C320 C318 1.327 . S
C320 C339 1.429 . S
C320 H344 0.950 . S
C321 C338 1.574 . S
C321 C340 1.368 . S
C321 H345 0.949 . S
H322 C326 0.949 . S
C323 C324 1.349 . S
C323 C325 1.327 . S
C323 H346 0.950 . S
C324 C323 1.349 . S
C324 C336 1.349 . S
C325 C323 1.327 . S
C325 C341 1.429 . S
C325 H347 0.950 . S
C326 H322 0.949 . S
C326 C334 1.574 . S
C326 C342 1.368 . S
H327 C335 0.950 . S
H328 C333 0.950 . S
H329 C334 0.949 . S
H330 C336 0.950 . S
H331 C337 0.950 . S
H332 C338 0.949 . S
C333 H328 0.950 . S
C333 C335 1.327 . S
C333 C339 1.429 . S
C334 C326 1.574 . S
C334 H329 0.949 . S
C334 C340 1.368 . S
C335 C319 1.349 . S
C335 H327 0.950 . S
C335 C333 1.327 . S
C336 C324 1.349 . S
C336 H330 0.950 . S
C336 C337 1.327 . S
C337 H331 0.950 . S
C337 C336 1.327 . S
C337 C341 1.429 . S
C338 C321 1.574 . S
C338 H332 0.949 . S
C338 C342 1.368 . S
C339 C320 1.429 . S
C339 C333 1.429 . S
C339 C340 1.523 . S
C340 C321 1.368 . S
C340 C334 1.368 . S
C340 C339 1.523 . S
C341 C325 1.429 . S
C341 C337 1.429 . S
C341 C342 1.523 . S
C342 C326 1.368 . S
C342 C338 1.368 . S
C342 C341 1.523 . S
H343 C318 0.950 . S
H344 C320 0.950 . S
H345 C321 0.949 . S
H346 C323 0.950 . S
H347 C325 0.950 . S
C348 C349 1.349 . S
C348 C350 1.327 . S
C348 H373 0.950 . S
C349 C348 1.349 . S
C349 C365 1.349 . S
C350 C348 1.327 . S
C350 C369 1.429 1_554 S
C350 H374 0.950 1_554 S
C351 C368 1.574 . S
C351 C370 1.368 . S
C351 H375 0.949 . S
H352 C356 0.949 . S
C353 C354 1.349 . S
C353 C355 1.327 . S
C353 H376 0.950 . S
C354 C353 1.349 . S
C354 C366 1.349 . S
C355 C353 1.327 . S
C355 C371 1.429 . S
C355 H377 0.950 . S
C356 H352 0.949 . S
C356 C364 1.574 . S
C356 C372 1.368 . S
H357 C365 0.950 . S
H358 C363 0.950 . S
H359 C364 0.949 . S
H360 C366 0.950 . S
H361 C367 0.950 . S
H362 C368 0.949 . S
C363 H358 0.950 . S
C363 C365 1.327 . S
C363 C369 1.429 1_554 S
C364 C356 1.574 . S
C364 H359 0.949 . S
C364 C370 1.368 . S
C365 C349 1.349 . S
C365 H357 0.950 . S
C365 C363 1.327 . S
C366 C354 1.349 . S
C366 H360 0.950 . S
C366 C367 1.327 . S
C367 H361 0.950 . S
C367 C366 1.327 . S
C367 C371 1.429 . S
C368 C351 1.574 . S
C368 H362 0.949 . S
C368 C372 1.368 . S
C369 C350 1.429 1_556 S
C369 C363 1.429 1_556 S
C369 C370 1.523 . S
C370 C351 1.368 . S
C370 C364 1.368 . S
C370 C369 1.523 . S
C371 C355 1.429 . S
C371 C367 1.429 . S
C371 C372 1.523 . S
C372 C356 1.368 . S
C372 C368 1.368 . S
C372 C371 1.523 . S
H373 C348 0.950 . S
H374 C350 0.950 1_556 S
H375 C351 0.949 . S
H376 C353 0.950 . S
H377 C355 0.950 . S
C378 C379 1.349 . S
C378 C380 1.327 . S
C378 H403 0.950 . S
C379 C378 1.349 . S
C379 C395 1.349 . S
C380 C378 1.327 . S
C380 C399 1.429 . S
C380 H404 0.950 . S
C381 C398 1.574 . S
C381 C400 1.368 . S
C381 H405 0.949 . S
H382 C386 0.949 . S
C383 C384 1.349 . S
C383 C385 1.327 . S
C383 H406 0.950 . S
C384 C383 1.349 . S
C384 C396 1.349 . S
C385 C383 1.327 . S
C385 C401 1.429 1_556 S
C385 H407 0.954 . S
C386 H382 0.949 . S
C386 C394 1.574 . S
C386 C402 1.368 . S
H387 C395 0.950 . S
H388 C393 0.950 . S
H389 C394 0.949 . S
H390 C396 0.950 . S
H391 C397 0.950 1_554 S
H392 C398 0.949 . S
C393 H388 0.950 . S
C393 C395 1.327 . S
C393 C399 1.429 . S
C394 C386 1.574 . S
C394 H389 0.949 . S
C394 C400 1.368 . S
C395 C379 1.349 . S
C395 H387 0.950 . S
C395 C393 1.327 . S
C396 C384 1.349 . S
C396 H390 0.950 . S
C396 C397 1.327 . S
C397 H391 0.950 1_556 S
C397 C396 1.327 . S
C397 C401 1.429 1_556 S
C398 C381 1.574 . S
C398 H392 0.949 . S
C398 C402 1.368 . S
C399 C380 1.429 . S
C399 C393 1.429 . S
C399 C400 1.523 . S
C400 C381 1.368 . S
C400 C394 1.368 . S
C400 C399 1.523 . S
C401 C385 1.429 1_554 S
C401 C397 1.429 1_554 S
C401 C402 1.523 . S
C402 C386 1.368 . S
C402 C398 1.368 . S
C402 C401 1.523 . S
H403 C378 0.950 . S
H404 C380 0.950 . S
H405 C381 0.949 . S
H406 C383 0.950 . S
H407 C385 0.954 . S
C408 C409 1.349 . S
C408 C410 1.327 . S
C408 H433 0.950 . S
C409 C408 1.349 . S
C409 C425 1.349 . S
C410 C408 1.327 . S
C410 C429 1.429 . S
C410 H434 0.950 . S
C411 C428 1.574 . S
C411 C430 1.368 . S
C411 H435 0.949 . S
H412 C416 0.949 . S
C413 C414 1.349 . S
C413 C415 1.327 . S
C413 H436 0.950 . S
C414 C413 1.349 . S
C414 C426 1.349 . S
C415 C413 1.327 . S
C415 C431 1.429 . S
C415 H437 0.950 . S
C416 H412 0.949 . S
C416 C424 1.574 . S
C416 C432 1.368 . S
H417 C425 0.950 . S
H418 C423 0.950 . S
H419 C424 0.949 . S
H420 C426 0.950 . S
H421 C427 0.950 . S
H422 C428 0.949 . S
C423 H418 0.950 . S
C423 C425 1.327 . S
C423 C429 1.429 . S
C424 C416 1.574 . S
C424 H419 0.949 . S
C424 C430 1.368 . S
C425 C409 1.349 . S
C425 H417 0.950 . S
C425 C423 1.327 . S
C426 C414 1.349 . S
C426 H420 0.950 . S
C426 C427 1.327 . S
C427 H421 0.950 . S
C427 C426 1.327 . S
C427 C431 1.429 . S
C428 C411 1.574 . S
C428 H422 0.949 . S
C428 C432 1.368 . S
C429 C410 1.429 . S
C429 C423 1.429 . S
C429 C430 1.523 . S
C430 C411 1.368 . S
C430 C424 1.368 . S
C430 C429 1.523 . S
C431 C415 1.429 . S
C431 C427 1.429 . S
C431 C432 1.523 . S
C432 C416 1.368 . S
C432 C428 1.368 . S
C432 C431 1.523 . S
H433 C408 0.950 . S
H434 C410 0.950 . S
H435 C411 0.949 . S
H436 C413 0.950 . S
H437 C415 0.950 . S
C438 C439 1.349 . S
C438 C440 1.327 . S
C438 H463 0.950 . S
C439 C438 1.349 . S
C439 C455 1.349 . S
C440 C438 1.327 . S
C440 C459 1.429 . S
C440 H464 0.950 . S
C441 C458 1.574 . S
C441 C460 1.368 . S
C441 H465 0.949 . S
H442 C446 0.949 . S
C443 C444 1.349 . S
C443 C445 1.327 . S
C443 H466 0.950 . S
C444 C443 1.349 . S
C444 C456 1.349 . S
C445 C443 1.327 . S
C445 C461 1.429 1_554 S
C445 H467 0.950 . S
C446 H442 0.949 . S
C446 C454 1.574 . S
C446 C462 1.368 . S
H447 C455 0.950 . S
H448 C453 0.950 . S
H449 C454 0.949 . S
H450 C456 0.950 . S
H451 C457 0.950 . S
H452 C458 0.949 . S
C453 H448 0.950 . S
C453 C455 1.327 . S
C453 C459 1.429 . S
C454 C446 1.574 . S
C454 H449 0.949 . S
C454 C460 1.368 . S
C455 C439 1.349 . S
C455 H447 0.950 . S
C455 C453 1.327 . S
C456 C444 1.349 . S
C456 H450 0.950 . S
C456 C457 1.327 . S
C457 H451 0.950 . S
C457 C456 1.327 . S
C457 C461 1.429 1_554 S
C458 C441 1.574 . S
C458 H452 0.949 . S
C458 C462 1.368 . S
C459 C440 1.429 . S
C459 C453 1.429 . S
C459 C460 1.523 . S
C460 C441 1.368 . S
C460 C454 1.368 . S
C460 C459 1.523 . S
C461 C445 1.429 1_556 S
C461 C457 1.429 1_556 S
C461 C462 1.523 . S
C462 C446 1.368 . S
C462 C458 1.368 . S
C462 C461 1.523 . S
H463 C438 0.950 . S
H464 C440 0.950 . S
H465 C441 0.949 . S
H466 C443 0.950 . S
H467 C445 0.950 . S
C468 C469 1.349 . S
C468 C470 1.327 . S
C468 H493 0.950 . S
C469 C468 1.349 . S
C469 C485 1.349 . S
C470 C468 1.327 . S
C470 C489 1.429 . S
C470 H494 0.950 . S
C471 C488 1.574 . S
C471 C490 1.368 . S
C471 H495 0.949 . S
H472 C476 0.949 . S
C473 C474 1.349 . S
C473 C475 1.327 . S
C473 H496 0.950 . S
C474 C473 1.349 . S
C474 C486 1.349 . S
C475 C473 1.327 . S
C475 C491 1.429 1_556 S
C475 H497 0.950 1_556 S
C476 H472 0.949 . S
C476 C484 1.574 . S
C476 C492 1.368 . S
H477 C485 0.950 . S
H478 C483 0.950 . S
H479 C484 0.949 . S
H480 C486 0.950 . S
H481 C487 0.946 1_554 S
H482 C488 0.949 . S
C483 H478 0.950 . S
C483 C485 1.327 . S
C483 C489 1.429 . S
C484 C476 1.574 . S
C484 H479 0.949 . S
C484 C490 1.368 . S
C485 C469 1.349 . S
C485 H477 0.950 . S
C485 C483 1.327 . S
C486 C474 1.349 . S
C486 H480 0.950 . S
C486 C487 1.327 . S
C487 H481 0.946 1_556 S
C487 C486 1.327 . S
C487 C491 1.429 1_556 S
C488 C471 1.574 . S
C488 H482 0.949 . S
C488 C492 1.368 . S
C489 C470 1.429 . S
C489 C483 1.429 . S
C489 C490 1.523 . S
C490 C471 1.368 . S
C490 C484 1.368 . S
C490 C489 1.523 . S
C491 C475 1.429 1_554 S
C491 C487 1.429 1_554 S
C491 C492 1.523 . S
C492 C476 1.368 . S
C492 C488 1.368 . S
C492 C491 1.523 . S
H493 C468 0.950 . S
H494 C470 0.950 . S
H495 C471 0.949 . S
H496 C473 0.950 . S
H497 C475 0.950 1_554 S
C498 C499 1.349 . S
C498 C500 1.327 . S
C498 H523 0.950 . S
C499 C498 1.349 . S
C499 C515 1.349 . S
C500 C498 1.327 . S
C500 C519 1.429 . S
C500 H524 0.950 . S
C501 C518 1.574 . S
C501 C520 1.368 . S
C501 H525 0.949 . S
H502 C506 0.949 . S
C503 C504 1.349 . S
C503 C505 1.327 . S
C503 H526 0.950 . S
C504 C503 1.349 . S
C504 C516 1.349 . S
C505 C503 1.327 . S
C505 C521 1.429 . S
C505 H527 0.950 . S
C506 H502 0.949 . S
C506 C514 1.574 . S
C506 C522 1.368 . S
H507 C515 0.950 1_556 S
H508 C513 0.950 . S
H509 C514 0.949 . S
H510 C516 0.950 . S
H511 C517 0.950 . S
H512 C518 0.949 . S
C513 H508 0.950 . S
C513 C515 1.327 . S
C513 C519 1.429 . S
C514 C506 1.574 . S
C514 H509 0.949 . S
C514 C520 1.368 . S
C515 C499 1.349 . S
C515 H507 0.950 1_554 S
C515 C513 1.327 . S
C516 C504 1.349 . S
C516 H510 0.950 . S
C516 C517 1.327 . S
C517 H511 0.950 . S
C517 C516 1.327 . S
C517 C521 1.429 . S
C518 C501 1.574 . S
C518 H512 0.949 . S
C518 C522 1.368 . S
C519 C500 1.429 . S
C519 C513 1.429 . S
C519 C520 1.523 . S
C520 C501 1.368 . S
C520 C514 1.368 . S
C520 C519 1.523 . S
C521 C505 1.429 . S
C521 C517 1.429 . S
C521 C522 1.523 . S
C522 C506 1.368 . S
C522 C518 1.368 . S
C522 C521 1.523 . S
H523 C498 0.950 . S
H524 C500 0.950 . S
H525 C501 0.949 . S
H526 C503 0.950 . S
H527 C505 0.950 . S
C528 C529 1.349 . S
C528 C530 1.327 . S
C528 H553 0.950 . S
C529 C528 1.349 . S
C529 C545 1.349 . S
C530 C528 1.327 . S
C530 C549 1.429 . S
C530 H554 0.950 . S
C531 C548 1.574 . S
C531 C550 1.368 . S
C531 H555 0.949 . S
H532 C536 0.949 . S
C533 C534 1.349 . S
C533 C535 1.327 . S
C533 H556 0.950 . S
C534 C533 1.349 . S
C534 C546 1.349 . S
C535 C533 1.327 . S
C535 C551 1.429 . S
C535 H557 0.950 . S
C536 H532 0.949 . S
C536 C544 1.574 . S
C536 C552 1.368 . S
H537 C545 0.950 . S
H538 C543 0.950 . S
H539 C544 0.949 . S
H540 C546 0.950 . S
H541 C547 0.950 . S
H542 C548 0.949 . S
C543 H538 0.950 . S
C543 C545 1.327 . S
C543 C549 1.429 . S
C544 C536 1.574 . S
C544 H539 0.949 . S
C544 C550 1.368 . S
C545 C529 1.349 . S
C545 H537 0.950 . S
C545 C543 1.327 . S
C546 C534 1.349 . S
C546 H540 0.950 . S
C546 C547 1.327 . S
C547 H541 0.950 . S
C547 C546 1.327 . S
C547 C551 1.429 . S
C548 C531 1.574 . S
C548 H542 0.949 . S
C548 C552 1.368 . S
C549 C530 1.429 . S
C549 C543 1.429 . S
C549 C550 1.523 . S
C550 C531 1.368 . S
C550 C544 1.368 . S
C550 C549 1.523 . S
C551 C535 1.429 . S
C551 C547 1.429 . S
C551 C552 1.523 . S
C552 C536 1.368 . S
C552 C548 1.368 . S
C552 C551 1.523 . S
H553 C528 0.950 . S
H554 C530 0.950 . S
H555 C531 0.949 . S
H556 C533 0.950 . S
H557 C535 0.950 . S
C558 C559 1.349 . S
C558 C560 1.327 . S
C558 H583 0.950 . S
C559 C558 1.349 . S
C559 C575 1.349 . S
C560 C558 1.327 . S
C560 C579 1.429 . S
C560 H584 0.950 . S
C561 C578 1.574 . S
C561 C580 1.368 . S
C561 H585 0.949 . S
H562 C566 0.949 . S
C563 C564 1.349 . S
C563 C565 1.327 . S
C563 H586 0.950 . S
C564 C563 1.349 . S
C564 C576 1.349 . S
C565 C563 1.327 . S
C565 C581 1.429 . S
C565 H587 0.950 . S
C566 H562 0.949 . S
C566 C574 1.574 . S
C566 C582 1.368 . S
H567 C575 0.950 1_554 S
H568 C573 0.950 1_554 S
H569 C574 0.949 . S
H570 C576 0.950 . S
H571 C577 0.950 . S
H572 C578 0.949 . S
C573 H568 0.950 1_556 S
C573 C575 1.327 . S
C573 C579 1.429 . S
C574 C566 1.574 . S
C574 H569 0.949 . S
C574 C580 1.368 . S
C575 C559 1.349 . S
C575 H567 0.950 1_556 S
C575 C573 1.327 . S
C576 C564 1.349 . S
C576 H570 0.950 . S
C576 C577 1.327 . S
C577 H571 0.950 . S
C577 C576 1.327 . S
C577 C581 1.429 . S
C578 C561 1.574 . S
C578 H572 0.949 . S
C578 C582 1.368 . S
C579 C560 1.429 . S
C579 C573 1.429 . S
C579 C580 1.523 . S
C580 C561 1.368 . S
C580 C574 1.368 . S
C580 C579 1.523 . S
C581 C565 1.429 . S
C581 C577 1.429 . S
C581 C582 1.523 . S
C582 C566 1.368 . S
C582 C578 1.368 . S
C582 C581 1.523 . S
H583 C558 0.950 . S
H584 C560 0.950 . S
H585 C561 0.949 . S
H586 C563 0.950 . S
H587 C565 0.950 . S
C588 C589 1.349 . S
C588 C590 1.327 . S
C588 H613 0.950 . S
C589 C588 1.349 . S
C589 C605 1.349 . S
C590 C588 1.327 . S
C590 C609 1.429 . S
C590 H614 0.950 . S
C591 C608 1.574 . S
C591 C610 1.368 . S
C591 H615 0.949 . S
H592 C596 0.949 . S
C593 C594 1.349 . S
C593 C595 1.327 . S
C593 H616 0.950 . S
C594 C593 1.349 . S
C594 C606 1.349 . S
C595 C593 1.327 . S
C595 C611 1.429 . S
C595 H617 0.950 . S
C596 H592 0.949 . S
C596 C604 1.574 . S
C596 C612 1.368 . S
H597 C605 0.950 . S
H598 C603 0.950 . S
H599 C604 0.949 . S
H600 C606 0.950 . S
H601 C607 0.950 . S
H602 C608 0.949 . S
C603 H598 0.950 . S
C603 C605 1.327 . S
C603 C609 1.429 . S
C604 C596 1.574 . S
C604 H599 0.949 . S
C604 C610 1.368 . S
C605 C589 1.349 . S
C605 H597 0.950 . S
C605 C603 1.327 . S
C606 C594 1.349 . S
C606 H600 0.950 . S
C606 C607 1.327 . S
C607 H601 0.950 . S
C607 C606 1.327 . S
C607 C611 1.429 . S
C608 C591 1.574 . S
C608 H602 0.949 . S
C608 C612 1.368 . S
C609 C590 1.429 . S
C609 C603 1.429 . S
C609 C610 1.523 . S
C610 C591 1.368 . S
C610 C604 1.368 . S
C610 C609 1.523 . S
C611 C595 1.429 . S
C611 C607 1.429 . S
C611 C612 1.523 . S
C612 C596 1.368 . S
C612 C608 1.368 . S
C612 C611 1.523 . S
H613 C588 0.950 . S
H614 C590 0.950 . S
H615 C591 0.949 . S
H616 C593 0.950 . S
H617 C595 0.950 . S
C618 C619 1.349 . S
C618 C620 1.327 . S
C618 H643 0.950 . S
C619 C618 1.349 . S
C619 C635 1.349 . S
C620 C618 1.327 . S
C620 C639 1.429 . S
C620 H644 0.950 . S
C621 C638 1.574 . S
C621 C640 1.368 . S
C621 H645 0.949 . S
H622 C626 0.949 . S
C623 C624 1.349 . S
C623 C625 1.327 . S
C623 H646 0.950 . S
C624 C623 1.349 . S
C624 C636 1.349 . S
C625 C623 1.327 . S
C625 C641 1.429 . S
C625 H647 0.950 . S
C626 H622 0.949 . S
C626 C634 1.574 . S
C626 C642 1.368 . S
H627 C635 0.950 . S
H628 C633 0.950 . S
H629 C634 0.949 . S
H630 C636 0.950 . S
H631 C637 0.950 . S
H632 C638 0.949 . S
C633 H628 0.950 . S
C633 C635 1.327 . S
C633 C639 1.429 . S
C634 C626 1.574 . S
C634 H629 0.949 . S
C634 C640 1.368 . S
C635 C619 1.349 . S
C635 H627 0.950 . S
C635 C633 1.327 . S
C636 C624 1.349 . S
C636 H630 0.950 . S
C636 C637 1.327 . S
C637 H631 0.950 . S
C637 C636 1.327 . S
C637 C641 1.429 . S
C638 C621 1.574 . S
C638 H632 0.949 . S
C638 C642 1.368 . S
C639 C620 1.429 . S
C639 C633 1.429 . S
C639 C640 1.523 . S
C640 C621 1.368 . S
C640 C634 1.368 . S
C640 C639 1.523 . S
C641 C625 1.429 . S
C641 C637 1.429 . S
C641 C642 1.523 . S
C642 C626 1.368 . S
C642 C638 1.368 . S
C642 C641 1.523 . S
H643 C618 0.950 . S
H644 C620 0.950 . S
H645 C621 0.949 . S
H646 C623 0.950 . S
H647 C625 0.950 . S
C648 C649 1.349 . S
C648 C650 1.327 . S
C648 H673 0.950 . S
C649 C648 1.349 . S
C649 C665 1.349 . S
C650 C648 1.327 . S
C650 C669 1.429 . S
C650 H674 0.950 . S
C651 C668 1.574 . S
C651 C670 1.368 . S
C651 H675 0.949 . S
H652 C656 0.949 . S
C653 C654 1.349 . S
C653 C655 1.327 . S
C653 H676 0.950 . S
C654 C653 1.349 . S
C654 C666 1.349 . S
C655 C653 1.327 . S
C655 C671 1.429 . S
C655 H677 0.950 . S
C656 H652 0.949 . S
C656 C664 1.574 . S
C656 C672 1.368 . S
H657 C665 0.950 . S
H658 C663 0.950 . S
H659 C664 0.949 . S
H660 C666 0.950 . S
H661 C667 0.950 . S
H662 C668 0.949 . S
C663 H658 0.950 . S
C663 C665 1.327 . S
C663 C669 1.429 . S
C664 C656 1.574 . S
C664 H659 0.949 . S
C664 C670 1.368 . S
C665 C649 1.349 . S
C665 H657 0.950 . S
C665 C663 1.327 . S
C666 C654 1.349 . S
C666 H660 0.950 . S
C666 C667 1.327 . S
C667 H661 0.950 . S
C667 C666 1.327 . S
C667 C671 1.429 . S
C668 C651 1.574 . S
C668 H662 0.949 . S
C668 C672 1.368 . S
C669 C650 1.429 . S
C669 C663 1.429 . S
C669 C670 1.523 . S
C670 C651 1.368 . S
C670 C664 1.368 . S
C670 C669 1.523 . S
C671 C655 1.429 . S
C671 C667 1.429 . S
C671 C672 1.523 . S
C672 C656 1.368 . S
C672 C668 1.368 . S
C672 C671 1.523 . S
H673 C648 0.950 . S
H674 C650 0.950 . S
H675 C651 0.949 . S
H676 C653 0.950 . S
H677 C655 0.950 . S
C139 C131 1.424 . S
C144 C20 1.419 . S
C169 C16 1.424 . S
C174 C43 1.419 . S
C199 C39 1.424 . S
C204 C66 1.419 . S
C229 C62 1.424 . S
C234 C89 1.419 . S
C259 C112 1.419 . S
C264 C85 1.424 . S
C289 C135 1.419 . S
C294 C108 1.424 . S
C319 C21 0.539 . S
C324 C18 0.426 . S
C349 C44 0.539 . S
C354 C41 0.426 . S
C379 C67 0.539 . S
C384 C64 0.426 . S
C409 C90 0.539 . S
C414 C87 0.426 . S
C439 C110 0.426 . S
C444 C113 0.539 . S
C469 C136 0.539 . S
C474 C133 0.426 . S
C499 C19 1.578 . S
C504 C109 1.609 . S
C529 C42 1.578 . S
C534 C132 1.609 . S
C559 C17 1.609 . S
C564 C65 1.578 . S
C589 C40 1.609 . S
C594 C88 1.577 . S
C619 C111 1.578 . S
C624 C63 1.609 . S
C649 C86 1.609 . S
C654 C134 1.578 . S
