# Generated by pormake.
# Topology wiv, (6)-cn, num edge types: 1
# Building blocks:
#     Node 0, Type 0, BuildingBlock: KUMBUR_clean_sbu_1, # of connection points: 6
#     Node 1, Type 0, BuildingBlock: KUMBUR_clean_sbu_1, # of connection points: 6
#     Node 2, Type 0, BuildingBlock: KUMBUR_clean_sbu_1, # of connection points: 6
#     Node 3, Type 0, BuildingBlock: KUMBUR_clean_sbu_1, # of connection points: 6
#     Node 4, Type 0, BuildingBlock: KUMBUR_clean_sbu_1, # of connection points: 6
#     Node 5, Type 0, BuildingBlock: KUMBUR_clean_sbu_1, # of connection points: 6
#     Node 6, Type 0, BuildingBlock: KUMBUR_clean_sbu_1, # of connection points: 6
#     Node 7, Type 0, BuildingBlock: KUMBUR_clean_sbu_1, # of connection points: 6
#     Node 8, Type 0, BuildingBlock: KUMBUR_clean_sbu_1, # of connection points: 6
#     Node 9, Type 0, BuildingBlock: KUMBUR_clean_sbu_1, # of connection points: 6
#     Node 10, Type 0, BuildingBlock: KUMBUR_clean_sbu_1, # of connection points: 6
#     Node 11, Type 0, BuildingBlock: KUMBUR_clean_sbu_1, # of connection points: 6
#     Node 12, Type 0, BuildingBlock: KUMBUR_clean_sbu_1, # of connection points: 6
#     Node 13, Type 0, BuildingBlock: KUMBUR_clean_sbu_1, # of connection points: 6
#     Node 14, Type 0, BuildingBlock: KUMBUR_clean_sbu_1, # of connection points: 6
#     Node 15, Type 0, BuildingBlock: KUMBUR_clean_sbu_1, # of connection points: 6
#     Edge 16, Type (0, 0), BuildingBlock: EZIPEK_clean_linker_0, # of connection points: 2
#     Edge 17, Type (0, 0), BuildingBlock: EZIPEK_clean_linker_0, # of connection points: 2
#     Edge 18, Type (0, 0), BuildingBlock: EZIPEK_clean_linker_0, # of connection points: 2
#     Edge 19, Type (0, 0), BuildingBlock: EZIPEK_clean_linker_0, # of connection points: 2
#     Edge 20, Type (0, 0), BuildingBlock: EZIPEK_clean_linker_0, # of connection points: 2
#     Edge 21, Type (0, 0), BuildingBlock: EZIPEK_clean_linker_0, # of connection points: 2
#     Edge 22, Type (0, 0), BuildingBlock: EZIPEK_clean_linker_0, # of connection points: 2
#     Edge 23, Type (0, 0), BuildingBlock: EZIPEK_clean_linker_0, # of connection points: 2
#     Edge 24, Type (0, 0), BuildingBlock: EZIPEK_clean_linker_0, # of connection points: 2
#     Edge 25, Type (0, 0), BuildingBlock: EZIPEK_clean_linker_0, # of connection points: 2
#     Edge 26, Type (0, 0), BuildingBlock: EZIPEK_clean_linker_0, # of connection points: 2
#     Edge 27, Type (0, 0), BuildingBlock: EZIPEK_clean_linker_0, # of connection points: 2
#     Edge 28, Type (0, 0), BuildingBlock: EZIPEK_clean_linker_0, # of connection points: 2
#     Edge 29, Type (0, 0), BuildingBlock: EZIPEK_clean_linker_0, # of connection points: 2
#     Edge 30, Type (0, 0), BuildingBlock: EZIPEK_clean_linker_0, # of connection points: 2
#     Edge 31, Type (0, 0), BuildingBlock: EZIPEK_clean_linker_0, # of connection points: 2
#     Edge 32, Type (0, 0), BuildingBlock: EZIPEK_clean_linker_0, # of connection points: 2
#     Edge 33, Type (0, 0), BuildingBlock: EZIPEK_clean_linker_0, # of connection points: 2
#     Edge 34, Type (0, 0), BuildingBlock: EZIPEK_clean_linker_0, # of connection points: 2
#     Edge 35, Type (0, 0), BuildingBlock: EZIPEK_clean_linker_0, # of connection points: 2
#     Edge 36, Type (0, 0), BuildingBlock: EZIPEK_clean_linker_0, # of connection points: 2
#     Edge 37, Type (0, 0), BuildingBlock: EZIPEK_clean_linker_0, # of connection points: 2
#     Edge 38, Type (0, 0), BuildingBlock: EZIPEK_clean_linker_0, # of connection points: 2
#     Edge 39, Type (0, 0), BuildingBlock: EZIPEK_clean_linker_0, # of connection points: 2
#     Edge 40, Type (0, 0), BuildingBlock: EZIPEK_clean_linker_0, # of connection points: 2
#     Edge 41, Type (0, 0), BuildingBlock: EZIPEK_clean_linker_0, # of connection points: 2
#     Edge 42, Type (0, 0), BuildingBlock: EZIPEK_clean_linker_0, # of connection points: 2
#     Edge 43, Type (0, 0), BuildingBlock: EZIPEK_clean_linker_0, # of connection points: 2
#     Edge 44, Type (0, 0), BuildingBlock: EZIPEK_clean_linker_0, # of connection points: 2
#     Edge 45, Type (0, 0), BuildingBlock: EZIPEK_clean_linker_0, # of connection points: 2
#     Edge 46, Type (0, 0), BuildingBlock: EZIPEK_clean_linker_0, # of connection points: 2
#     Edge 47, Type (0, 0), BuildingBlock: EZIPEK_clean_linker_0, # of connection points: 2
#     Edge 48, Type (0, 0), BuildingBlock: EZIPEK_clean_linker_0, # of connection points: 2
#     Edge 49, Type (0, 0), BuildingBlock: EZIPEK_clean_linker_0, # of connection points: 2
#     Edge 50, Type (0, 0), BuildingBlock: EZIPEK_clean_linker_0, # of connection points: 2
#     Edge 51, Type (0, 0), BuildingBlock: EZIPEK_clean_linker_0, # of connection points: 2
#     Edge 52, Type (0, 0), BuildingBlock: EZIPEK_clean_linker_0, # of connection points: 2
#     Edge 53, Type (0, 0), BuildingBlock: EZIPEK_clean_linker_0, # of connection points: 2
#     Edge 54, Type (0, 0), BuildingBlock: EZIPEK_clean_linker_0, # of connection points: 2
#     Edge 55, Type (0, 0), BuildingBlock: EZIPEK_clean_linker_0, # of connection points: 2
#     Edge 56, Type (0, 0), BuildingBlock: EZIPEK_clean_linker_0, # of connection points: 2
#     Edge 57, Type (0, 0), BuildingBlock: EZIPEK_clean_linker_0, # of connection points: 2
#     Edge 58, Type (0, 0), BuildingBlock: EZIPEK_clean_linker_0, # of connection points: 2
#     Edge 59, Type (0, 0), BuildingBlock: EZIPEK_clean_linker_0, # of connection points: 2
#     Edge 60, Type (0, 0), BuildingBlock: EZIPEK_clean_linker_0, # of connection points: 2
#     Edge 61, Type (0, 0), BuildingBlock: EZIPEK_clean_linker_0, # of connection points: 2
#     Edge 62, Type (0, 0), BuildingBlock: EZIPEK_clean_linker_0, # of connection points: 2
#     Edge 63, Type (0, 0), BuildingBlock: EZIPEK_clean_linker_0, # of connection points: 2
# Relax obj value: 0.187
# Max RMSD: 0.235
# Mean RMSD: 0.235
data_MOF--net-wiv--node1-KUMBUR_clean_sbu_1--edge1-EZIPEK_clean_linker_0
_symmetry_space_group_name_H-M    P1
_symmetry_Int_Tables_number       1
_symmetry_cell_setting            triclinic
loop_
_symmetry_equiv_pos_as_xyz
'x, y, z'
_cell_length_a     36.360225
_cell_length_b     36.400488
_cell_length_c     19.94835
_cell_angle_alpha  90.218774
_cell_angle_beta   90.027098
_cell_angle_gamma 90.253035
loop_
_atom_site_label
_atom_site_type_symbol
_atom_site_fract_x
_atom_site_fract_y
_atom_site_fract_z
_atom_type_partial_charge
Tb0 Tb 0.37846 0.09919 0.07592 0.0
C1 C 0.2316 0.15161 0.20318 0.0
N2 N 0.26211 0.14499 0.16701 0.0
C3 C 0.23618 0.18293 0.07718 0.0
C4 C 0.1957 0.18031 0.17233 0.0
C5 C 0.26393 0.16084 0.10524 0.0
C6 C 0.20394 0.19385 0.11033 0.0
C7 C 0.15266 0.11174 0.29634 0.0
C8 C 0.22395 0.11772 0.25811 0.0
C9 C 0.12609 0.14674 0.25449 0.0
C10 C 0.14704 0.179 0.19638 0.0
Tb11 Tb 0.30132 0.09497 0.20152 0.0
N12 N 0.24242 0.07888 0.24487 0.0
C13 C 0.1417 0.0637 0.30206 0.0
C14 C 0.22305 0.03781 0.25445 0.0
C15 C 0.176 0.02865 0.28176 0.0
H16 H 0.28704 0.15459 0.07466 0.0
H17 H 0.16796 1.00041 0.28117 0.0
H18 H 0.37402 0.0224 0.98824 0.0
H19 H 0.49159 0.18495 0.15795 0.0
H20 H 0.23957 0.01399 0.24294 0.0
H21 H 0.11338 0.05593 0.30652 0.0
H22 H 0.42609 0.17034 0.13725 0.0
H23 H 0.23939 0.1902 0.02506 0.0
H24 H 0.09668 0.14501 0.2543 0.0
H25 H 0.12847 0.19636 0.16855 0.0
H26 H 0.41877 0.97873 0.93936 0.0
H27 H 0.18235 0.2078 0.08364 0.0
H28 H 0.53928 0.13961 0.12663 0.0
N29 N 0.41535 0.05448 0.03653 0.0
C30 C 0.45179 0.06029 0.04639 0.0
C31 C 0.42816 1.0011 0.97041 0.0
C32 C 0.47796 0.0365 0.01822 0.0
C33 C 0.40306 0.02595 0.9979 0.0
C34 C 0.46576 0.00612 0.98119 0.0
N35 N 0.43717 0.11709 0.09702 0.0
C36 C 0.4469 0.15054 0.12386 0.0
C37 C 0.50035 0.10045 0.0867 0.0
C38 C 0.46301 0.09243 0.07843 0.0
C39 C 0.51064 0.13349 0.11747 0.0
C40 C 0.48383 0.15896 0.13539 0.0
H41 H 0.48513 0.98723 0.95858 0.0
H42 H 0.53577 0.02777 1.00108 0.0
H43 H 0.55493 0.08166 0.07064 0.0
O44 O 0.40909 0.13306 1.01028 0.0
O45 O 0.4032 0.0956 0.17407 0.0
O46 O 0.35787 0.11714 0.24266 0.0
O47 O 0.35928 0.1074 0.97856 0.0
O48 O 0.36005 0.15346 0.11514 0.0
O49 O 0.31702 0.15315 0.20013 0.0
O50 O 0.27626 0.07901 0.29104 0.0
O51 O 0.28072 0.08742 0.08909 0.0
O52 O 0.33089 0.07296 0.02514 0.0
O53 O 0.33401 0.07994 0.28612 0.0
O54 O 0.31493 0.0395 0.16123 0.0
O55 O 0.37491 0.04451 0.12977 0.0
C56 C 0.39411 0.11144 0.23023 0.0
C57 C 0.40709 0.10764 0.90159 0.0
C58 C 0.39922 0.06926 0.80346 0.0
C59 C 0.43529 0.05614 0.8115 0.0
C60 C 0.44447 0.09796 0.90396 0.0
C61 C 0.45817 0.0715 0.86005 0.0
C62 C 0.38526 0.09494 0.84867 0.0
C63 C 0.3399 0.17106 0.16043 0.0
C64 C 0.38876 0.12449 0.95934 0.0
C65 C 0.51531 0.04508 0.0245 0.0
C66 C 0.5263 0.07613 0.06147 0.0
C67 C 0.29557 0.08046 0.02744 0.0
C68 C 0.30534 0.08669 0.39577 0.0
C69 C 0.32131 0.06305 0.56837 0.0
C70 C 0.33466 0.10249 0.57985 0.0
C71 C 0.31757 0.1251 0.41156 0.0
C72 C 0.30137 0.05663 0.4495 0.0
C73 C 0.33061 0.13857 0.48048 0.0
C74 C 0.34789 0.02424 0.15619 0.0
C75 C 0.30549 0.07414 0.32444 0.0
H76 H 0.44624 0.03545 0.77787 0.0
H77 H 0.46254 0.10903 0.94207 0.0
H78 H 0.48626 0.06224 0.86469 0.0
H79 H 0.35693 0.10379 0.84438 0.0
H80 H 0.34385 0.10884 0.6312 0.0
H81 H 0.319 0.14429 0.37039 0.0
H82 H 0.29113 0.03236 0.42209 0.0
H83 H 0.33709 0.16775 0.47204 0.0
Tb84 Tb 0.1117 0.70491 0.81595 0.0
C85 C 0.09463 0.54176 0.90913 0.0
N86 N 0.07044 0.56999 0.91293 0.0
C87 C 0.02458 0.53305 0.85785 0.0
C88 C 0.08554 0.50946 0.87396 0.0
C89 C 0.03493 0.5651 0.89167 0.0
C90 C 0.04989 0.50501 0.84953 0.0
C91 C 0.15737 0.52133 0.92235 0.0
C92 C 0.13015 0.5474 0.93364 0.0
C93 C 0.14892 0.49133 0.88095 0.0
C94 C 0.11313 0.48429 0.8593 0.0
Tb95 Tb 0.09681 0.62429 0.94711 0.0
N96 N 0.13898 0.58016 0.9624 0.0
C97 C 0.19282 0.52834 0.94818 0.0
C98 C 0.17106 0.58453 0.99686 0.0
C99 C 0.19877 0.55862 0.98963 0.0
H100 H 0.0142 0.58569 0.90013 0.0
H101 H 0.22509 0.56266 1.01327 0.0
H102 H 0.20706 0.68684 0.75647 0.0
H103 H 0.03764 0.85679 0.78388 0.0
H104 H 0.17567 0.6085 0.02762 0.0
H105 H 0.21617 0.51152 0.93611 0.0
H106 H 0.04408 0.78315 0.8233 0.0
H107 H 0.99692 0.5298 0.83879 0.0
H108 H 0.16978 0.47371 0.86402 0.0
H109 H 0.10755 0.46009 0.82921 0.0
H110 H 0.26692 0.71462 0.76026 0.0
H111 H 0.04141 0.48 0.82501 0.0
H112 H 0.09141 0.89726 0.71216 0.0
N113 N 0.17566 0.72981 0.79558 0.0
C114 C 0.17754 0.76376 0.77253 0.0
C115 C 0.24323 0.7312 0.77261 0.0
C116 C 0.21815 0.79146 0.77394 0.0
C117 C 0.2083 0.71322 0.77819 0.0
C118 C 0.24856 0.7694 0.77881 0.0
N119 N 0.10204 0.76709 0.78068 0.0
C120 C 0.06668 0.79429 0.79447 0.0
C121 C 0.13903 0.848 0.69725 0.0
C122 C 0.13811 0.77725 0.7413 0.0
C123 C 0.0958 0.86824 0.72032 0.0
C124 C 0.06184 0.84218 0.76733 0.0
H125 H 0.27584 0.78111 0.77421 0.0
H126 H 0.24884 0.85257 0.7506 0.0
H127 H 0.18922 0.89623 0.70481 0.0
O128 O 0.08469 0.72798 0.73336 0.0
O129 O 0.11154 0.72171 0.92909 0.0
O130 O 0.0776 0.67853 0.98512 0.0
O131 O 0.08343 0.66997 0.74992 0.0
O132 O 0.05573 0.69822 0.86122 0.0
O133 O 0.04926 0.63784 0.88775 0.0
O134 O 0.10286 0.6341 0.049 0.0
O135 O 0.11233 0.60175 0.84838 0.0
O136 O 0.12719 0.64737 0.77221 0.0
O137 O 0.06524 0.59201 1.01326 0.0
O138 O 0.15304 0.64917 0.93677 0.0
O139 O 0.15942 0.67093 0.82977 0.0
C140 C 0.09593 0.71001 0.98696 0.0
C141 C 0.10133 0.69135 0.64633 0.0
C142 C 0.11061 0.68654 0.51675 0.0
C143 C 0.15001 0.69995 0.53794 0.0
C144 C 0.13883 0.6962 0.65439 0.0
C145 C 0.16201 0.70228 0.60246 0.0
C146 C 0.08567 0.68472 0.58443 0.0
C147 C 0.03618 0.66714 0.85966 0.0
C148 C 0.07965 0.69597 0.70621 0.0
C149 C 0.22209 0.83965 0.74677 0.0
C150 C 0.18494 0.867 0.71026 0.0
C151 C 0.12392 0.61131 0.78882 0.0
C152 C 0.09488 0.58375 0.11751 0.0
C153 C 0.11634 0.58773 0.23059 0.0
C154 C 0.13718 0.55584 0.22282 0.0
C155 C 0.11445 0.55091 0.10848 0.0
C156 C 0.09409 0.6002 0.17923 0.0
C157 C 0.13553 0.53691 0.16165 0.0
C158 C 0.17334 0.655 0.88237 0.0
C159 C 0.08095 0.60704 0.06471 0.0
H160 H 0.12791 0.69178 0.51865 0.0
H161 H 0.1501 0.69824 0.70324 0.0
H162 H 0.19033 0.70993 0.6121 0.0
H163 H 0.0572 0.67727 0.58767 0.0
H164 H 0.15388 0.54561 0.26357 0.0
H165 H 0.11406 0.53663 0.06113 0.0
H166 H 0.07793 0.62509 0.18619 0.0
H167 H 0.15121 0.51199 0.15525 0.0
Tb168 Tb 0.63361 0.90345 0.07699 0.0
C169 C 0.77996 0.8549 0.23267 0.0
N170 N 0.75076 0.85635 0.19139 0.0
C171 C 0.77714 0.80379 0.12885 0.0
C172 C 0.81706 0.82375 0.21794 0.0
C173 C 0.75185 0.83306 0.13712 0.0
C174 C 0.80859 0.79862 0.16842 0.0
C175 C 0.85588 0.90836 0.31152 0.0
C176 C 0.78558 0.89522 0.27231 0.0
C177 C 0.88421 0.8697 0.28797 0.0
C178 C 0.86524 0.82988 0.24384 0.0
Tb179 Tb 0.70922 0.90854 0.20481 0.0
N180 N 0.76658 0.93066 0.24225 0.0
C181 C 0.86526 0.95628 0.29867 0.0
C182 C 0.78456 0.97235 0.23594 0.0
C183 C 0.83098 0.98629 0.2611 0.0
H184 H 0.7319 0.83626 0.09866 0.0
H185 H 0.83882 0.01428 0.25146 0.0
H186 H 0.63361 0.99261 0.02774 0.0
H187 H 0.52432 0.80902 0.10984 0.0
H188 H 0.76743 0.99368 0.2151 0.0
H189 H 0.89209 0.96755 0.30941 0.0
H190 H 0.58325 0.82764 0.06048 0.0
H191 H 0.77329 0.78566 0.08623 0.0
H192 H 0.91374 0.87208 0.29293 0.0
H193 H 0.88463 0.80936 0.22711 0.0
H194 H 0.60325 0.04423 0.08522 0.0
H195 H 0.82841 0.77789 0.15436 0.0
H196 H 0.48633 0.85598 0.16887 0.0
N197 N 0.59667 0.95298 0.06791 0.0
C198 C 0.56426 0.94658 0.0985 0.0
C199 C 0.59141 0.017 0.08837 0.0
C200 C 0.54654 0.97444 0.134 0.0
C201 C 0.60803 0.98792 0.05409 0.0
C202 C 0.5617 0.00979 0.13166 0.0
N203 N 0.57476 0.8844 0.07875 0.0
C204 C 0.56419 0.84842 0.07648 0.0
C205 C 0.52071 0.90137 0.13743 0.0
C206 C 0.55217 0.91073 0.10187 0.0
C207 C 0.51022 0.86434 0.14029 0.0
C208 C 0.5315 0.83782 0.10741 0.0
H209 H 0.55038 0.03165 0.16209 0.0
H210 H 0.50406 0.98558 0.20664 0.0
H211 H 0.48087 0.92037 0.20512 0.0
O212 O 0.65864 0.87254 1.00231 0.0
O213 O 0.60951 0.87718 0.16524 0.0
O214 O 0.6518 0.88996 0.24835 0.0
O215 O 0.60899 0.90411 0.98187 0.0
O216 O 0.65246 0.84821 0.11204 0.0
O217 O 0.69173 0.85064 0.20458 0.0
O218 O 0.72971 0.93216 0.29488 0.0
O219 O 0.72707 0.90925 0.09061 0.0
O220 O 0.67988 0.93609 0.0361 0.0
O221 O 0.67299 0.92498 0.28192 0.0
O222 O 0.69648 0.96241 0.16046 0.0
O223 O 0.63646 0.95002 0.15124 0.0
C224 C 0.6175 0.87899 0.22914 0.0
C225 C 0.62297 0.85494 0.90864 0.0
C226 C 0.62093 0.84145 0.79036 0.0
C227 C 0.60982 0.80538 0.80351 0.0
C228 C 0.6143 0.81818 0.92291 0.0
C229 C 0.60648 0.79375 0.87015 0.0
C230 C 0.62533 0.86639 0.84284 0.0
C231 C 0.67163 0.83191 0.16055 0.0
C232 C 0.63413 0.88216 0.95809 0.0
C233 C 0.51659 0.96506 0.1747 0.0
C234 C 0.50331 0.92858 0.17462 0.0
C235 C 0.71363 0.92354 0.03264 0.0
C236 C 0.69698 0.91306 0.39079 0.0
C237 C 0.67326 0.90045 0.56516 0.0
C238 C 0.67476 0.85871 0.55257 0.0
C239 C 0.69885 0.87262 0.38352 0.0
C240 C 0.68898 0.93247 0.45853 0.0
C241 C 0.69107 0.84547 0.43822 0.0
C242 C 0.6625 0.97419 0.16588 0.0
C243 C 0.69862 0.93294 0.32534 0.0
H244 H 0.6049 0.78634 0.76268 0.0
H245 H 0.61439 0.80813 0.97367 0.0
H246 H 0.59919 0.76552 0.88086 0.0
H247 H 0.63351 0.89455 0.83209 0.0
H248 H 0.66819 0.84096 0.5952 0.0
H249 H 0.70552 0.86147 0.33458 0.0
H250 H 0.69115 0.96172 0.44768 0.0
H251 H 0.69474 0.81902 0.41206 0.0
Tb252 Tb 0.90056 0.306 0.82404 0.0
C253 C 0.94731 0.45959 0.95444 0.0
N254 N 0.957 0.42403 0.96353 0.0
C255 C 0.01788 0.44246 0.9956 0.0
C256 C 0.97259 0.4882 0.96677 0.0
C257 C 0.99161 0.41497 0.98437 0.0
C258 C 0.00815 0.47929 0.9881 0.0
C259 C 0.90093 0.50376 0.92328 0.0
C260 C 0.91118 0.46756 0.93733 0.0
C261 C 0.927 0.53203 0.93049 0.0
C262 C 0.96134 0.52462 0.95839 0.0
Tb263 Tb 0.91028 0.38322 0.95227 0.0
N264 N 0.88654 0.43961 0.93197 0.0
C265 C 0.8651 0.51036 0.90107 0.0
C266 C 0.85095 0.44596 0.91293 0.0
C267 C 0.84008 0.48131 0.89499 0.0
H268 H 0.99869 0.3865 0.9927 0.0
H269 H 0.81239 0.4863 0.87746 0.0
H270 H 0.81032 0.34319 0.79968 0.0
H271 H 0.95342 0.14334 0.82241 0.0
H272 H 0.83149 0.42361 0.90836 0.0
H273 H 0.85686 0.53774 0.88734 0.0
H274 H 0.95674 0.21802 0.85577 0.0
H275 H 0.04538 0.43524 1.0109 0.0
H276 H 0.92052 0.55999 0.91644 0.0
H277 H 0.97935 0.54721 0.97119 0.0
H278 H 0.75245 0.32315 0.75093 0.0
H279 H 0.0283 0.50058 0.99853 0.0
H280 H 0.89907 0.10992 0.7394 0.0
N281 N 0.83717 0.29133 0.7956 0.0
C282 C 0.83317 0.25854 0.76616 0.0
C283 C 0.77332 0.30282 0.75917 0.0
C284 C 0.78937 0.23838 0.75296 0.0
C285 C 0.80773 0.31458 0.78644 0.0
C286 C 0.76372 0.26587 0.74575 0.0
N287 N 0.90647 0.24205 0.79755 0.0
C288 C 0.93475 0.20984 0.82229 0.0
C289 C 0.86322 0.16624 0.70736 0.0
C290 C 0.87301 0.23704 0.74922 0.0
C291 C 0.89932 0.1395 0.74468 0.0
C292 C 0.93303 0.16099 0.79991 0.0
H293 H 0.7365 0.25907 0.7277 0.0
H294 H 0.75127 0.18334 0.71907 0.0
H295 H 0.80509 0.12911 0.69054 0.0
O296 O 0.92504 0.2841 0.73489 0.0
O297 O 0.90964 0.2858 0.93596 0.0
O298 O 0.93249 0.33313 0.99893 0.0
O299 O 0.91493 0.34103 0.74373 0.0
O300 O 0.95836 0.31802 0.85813 0.0
O301 O 0.9576 0.37929 0.882 0.0
O302 O 0.87781 0.40806 0.02648 0.0
O303 O 0.90909 0.4054 0.85233 0.0
O304 O 0.87476 0.36273 0.79753 0.0
O305 O 0.92942 0.38033 0.05043 0.0
O306 O 0.85329 0.36151 0.93604 0.0
O307 O 0.8531 0.30323 0.89174 0.0
C308 C 0.92043 0.29917 0.99715 0.0
C309 C 0.9014 0.31479 0.63701 0.0
C310 C 0.87616 0.33679 0.46714 0.0
C311 C 0.83625 0.32866 0.48565 0.0
C312 C 0.86219 0.30849 0.64885 0.0
C313 C 0.83126 0.31062 0.59968 0.0
C314 C 0.91571 0.32636 0.5673 0.0
C315 C 0.97464 0.35086 0.85555 0.0
C316 C 0.92335 0.31492 0.70172 0.0
C317 C 0.77974 0.19098 0.72584 0.0
C318 C 0.8141 0.15662 0.70282 0.0
C319 C 0.8863 0.39795 0.80392 0.0
C320 C 0.90946 0.42618 0.12488 0.0
C321 C 0.90806 0.42836 0.24392 0.0
C322 C 0.93805 0.45253 0.24573 0.0
C323 C 0.93989 0.45008 0.12521 0.0
C324 C 0.89148 0.4187 0.18389 0.0
C325 C 0.95314 0.46456 0.18553 0.0
C326 C 0.83649 0.32961 0.92557 0.0
C327 C 0.9018 0.39972 0.07231 0.0
H328 H 0.81591 0.33224 0.44533 0.0
H329 H 0.85474 0.31059 0.69766 0.0
H330 H 0.80704 0.3035 0.6302 0.0
H331 H 0.94533 0.32972 0.57376 0.0
H332 H 0.95076 0.46022 0.29288 0.0
H333 H 0.95494 0.45586 0.08091 0.0
H334 H 0.86863 0.39924 0.18406 0.0
H335 H 0.97685 0.48263 0.18571 0.0
Tb336 Tb 0.38008 0.41693 0.19933 0.0
C337 C 0.23571 0.33698 0.02085 0.0
N338 N 0.26863 0.33437 0.04934 0.0
C339 C 0.26024 0.2674 0.03899 0.0
C340 C 0.20367 0.30023 0.02043 0.0
C341 C 0.28207 0.29934 0.04911 0.0
C342 C 0.22193 0.26766 0.02735 0.0
C343 C 0.15459 0.38679 0.95506 0.0
C344 C 0.22602 0.3792 0.99426 0.0
C345 C 0.13117 0.34306 0.96422 0.0
C346 C 0.15496 0.30233 0.99544 0.0
Tb347 Tb 0.30089 0.39219 0.06388 0.0
N348 N 0.24077 0.41302 0.03564 0.0
C349 C 0.13968 0.43127 0.98275 0.0
C350 C 0.21833 0.45092 0.05279 0.0
C351 C 0.17084 0.46157 0.02949 0.0
H352 H 0.31093 0.29547 0.04848 0.0
H353 H 0.16064 0.4879 0.0455 0.0
H354 H 0.32213 0.47649 0.26972 0.0
H355 H 0.51686 0.43657 0.09769 0.0
H356 H 0.23275 0.472 0.08062 0.0
H357 H 0.11115 0.43876 0.97688 0.0
H358 H 0.46656 0.40076 0.14758 0.0
H359 H 0.27465 0.24162 0.03652 0.0
H360 H 0.10169 0.34195 0.95773 0.0
H361 H 0.13919 0.27712 0.99802 0.0
H362 H 0.31174 0.54336 0.26617 0.0
H363 H 0.20765 0.24317 1.01242 0.0
H364 H 0.51133 0.50412 0.08694 0.0
N365 N 0.37167 0.47866 0.21461 0.0
C366 C 0.39908 0.5007 0.19122 0.0
C367 C 0.33632 0.53167 0.24438 0.0
C368 C 0.39476 0.53906 0.18863 0.0
C369 C 0.34178 0.49366 0.24517 0.0
C370 C 0.36241 0.55434 0.21389 0.0
N371 N 0.4322 0.44707 0.16442 0.0
C372 C 0.46343 0.43002 0.14226 0.0
C373 C 0.45807 0.50588 0.13528 0.0
C374 C 0.43016 0.4843 0.16442 0.0
C375 C 0.48915 0.48839 0.10918 0.0
C376 C 0.49224 0.45033 0.11449 0.0
H377 H 0.3574 0.58349 0.20981 0.0
H378 H 0.41892 0.59001 0.15435 0.0
H379 H 0.47486 0.56118 0.1097 0.0
O380 O 0.42814 0.41339 0.25779 0.0
O381 O 0.40336 0.38184 0.12323 0.0
O382 O 0.36225 0.38723 0.03528 0.0
O383 O 0.37449 0.40929 0.3025 0.0
O384 O 0.37435 0.35627 0.18787 0.0
O385 O 0.32422 0.34514 0.11783 0.0
O386 O 0.30751 0.42558 0.97482 0.0
O387 O 0.2778 0.39631 0.17411 0.0
O388 O 0.3257 0.41236 0.2475 0.0
O389 O 0.30198 0.36599 0.9717 0.0
O390 O 0.30659 0.45191 0.08789 0.0
O391 O 0.36755 0.45076 0.11007 0.0
C392 C 0.39658 0.38118 0.05859 0.0
C393 C 0.4174 0.44525 0.35876 0.0
C394 C 0.40298 0.47602 0.46226 0.0
C395 C 0.42702 0.50473 0.44695 0.0
C396 C 0.44087 0.47449 0.34212 0.0
C397 C 0.44624 0.50377 0.38684 0.0
C398 C 0.3984 0.44639 0.41876 0.0
C399 C 0.35052 0.33378 0.15815 0.0
C400 C 0.40939 0.41491 0.31284 0.0
C401 C 0.42203 0.5606 0.15821 0.0
C402 C 0.45368 0.54406 0.13188 0.0
C403 C 0.2908 0.40409 0.23741 0.0
C404 C 0.30873 0.39358 0.86277 0.0
C405 C 0.33552 0.41755 0.69617 0.0
C406 C 0.34274 0.37924 0.66862 0.0
C407 C 0.31658 0.35607 0.83102 0.0
C408 C 0.31344 0.42655 0.81499 0.0
C409 C 0.33764 0.34855 0.71627 0.0
C410 C 0.33861 0.4692 0.08929 0.0
C411 C 0.30495 0.39612 0.93734 0.0
H412 H 0.43209 0.52664 0.48271 0.0
H413 H 0.45451 0.4746 0.29471 0.0
H414 H 0.4657 0.5254 0.37624 0.0
H415 H 0.38049 0.42366 0.43265 0.0
H416 H 0.35222 0.37348 0.61795 0.0
H417 H 0.31095 0.335 0.86903 0.0
H418 H 0.30797 0.45172 0.84397 0.0
H419 H 0.3451 0.32382 0.68739 0.0
Tb420 Tb 0.39773 0.70672 0.96716 0.0
C421 C 0.45766 0.56407 0.82988 0.0
N422 N 0.46159 0.5983 0.80473 0.0
C423 C 0.52509 0.58873 0.78715 0.0
C424 C 0.48841 0.54291 0.84382 0.0
C425 C 0.49371 0.60961 0.77664 0.0
C426 C 0.52253 0.55843 0.82918 0.0
C427 C 0.41736 0.51519 0.86638 0.0
C428 C 0.42277 0.55114 0.84349 0.0
C429 C 0.44834 0.49342 0.88011 0.0
C430 C 0.48382 0.50788 0.872 0.0
Tb431 Tb 0.41353 0.63446 0.82317 0.0
N432 N 0.39441 0.57492 0.83791 0.0
C433 C 0.38131 0.50357 0.87952 0.0
C434 C 0.35889 0.56317 0.84746 0.0
C435 C 0.35197 0.52764 0.87016 0.0
H436 H 0.49547 0.63596 0.75192 0.0
H437 H 0.32412 0.51894 0.88113 0.0
H438 H 0.3045 0.69064 0.02335 0.0
H439 H 0.49179 0.84932 0.99267 0.0
H440 H 0.33623 0.5818 0.84315 0.0
H441 H 0.37569 0.47636 0.89857 0.0
H442 H 0.4778 0.77566 0.96137 0.0
H443 H 0.5515 0.59783 0.76909 0.0
H444 H 0.44547 0.46631 0.90084 0.0
H445 H 0.50712 0.49138 0.88641 0.0
H446 H 0.25076 0.72972 0.05535 0.0
H447 H 0.54689 0.54796 0.85072 0.0
H448 H 0.44257 0.897 0.06129 0.0
N449 N 0.34035 0.73476 1.00246 0.0
C450 C 0.34312 0.7695 0.02065 0.0
C451 C 0.27544 0.7423 0.03685 0.0
C452 C 0.30534 0.80037 0.02058 0.0
C453 C 0.30723 0.72003 0.02119 0.0
C454 C 0.27323 0.78056 0.02652 0.0
N455 N 0.419 0.76623 1.00648 0.0
C456 C 0.45672 0.78957 0.98989 0.0
C457 C 0.39137 0.85221 0.08476 0.0
C458 C 0.38501 0.78065 0.04687 0.0
C459 C 0.43573 0.86812 0.05729 0.0
C460 C 0.46643 0.83765 1.01143 0.0
H461 H 0.24763 0.79474 0.03589 0.0
H462 H 0.28093 0.86415 0.0428 0.0
H463 H 0.34491 0.90368 0.08352 0.0
O464 O 0.41002 0.71431 0.06903 0.0
O465 O 0.3983 0.72678 0.85411 0.0
O466 O 0.43757 0.68842 0.80001 0.0
O467 O 0.41997 0.66217 0.0221 0.0
O468 O 0.4561 0.70231 0.93214 0.0
O469 O 0.46337 0.64408 0.88981 0.0
O470 O 0.38516 0.65634 0.74119 0.0
O471 O 0.39898 0.60939 0.91768 0.0
O472 O 0.36912 0.65108 0.98451 0.0
O473 O 0.41927 0.60811 0.72992 0.0
O474 O 0.35544 0.64564 0.84604 0.0
O475 O 0.34615 0.69759 0.91164 0.0
C476 C 0.41739 0.71831 0.7973 0.0
C477 C 0.39486 0.66299 0.13306 0.0
C478 C 0.38371 0.68544 0.2559 0.0
C479 C 0.36138 0.71315 0.21464 0.0
C480 C 0.35717 0.66938 0.12677 0.0
C481 C 0.34379 0.7003 0.15856 0.0
C482 C 0.40866 0.66498 0.1991 0.0
C483 C 0.4758 0.67147 0.92858 0.0
C484 C 0.41719 0.67966 0.07901 0.0
C485 C 0.30667 0.84939 0.04367 0.0
C486 C 0.34697 0.87439 0.07524 0.0
C487 C 0.37647 0.61619 0.96704 0.0
C488 C 0.3665 0.61258 0.66159 0.0
C489 C 0.32791 0.61649 0.56281 0.0
C490 C 0.30984 0.58392 0.58098 0.0
C491 C 0.35056 0.57843 0.67671 0.0
C492 C 0.35466 0.63153 0.60569 0.0
C493 C 0.3214 0.56482 0.63787 0.0
C494 C 0.33387 0.67117 0.87146 0.0
C495 C 0.39564 0.62976 0.70165 0.0
H496 H 0.37268 0.69842 0.24752 0.0
H497 H 0.34152 0.658 0.08639 0.0
H498 H 0.31945 0.71434 0.14266 0.0
H499 H 0.43407 0.6515 0.2085 0.0
H500 H 0.28923 0.57182 0.54839 0.0
H501 H 0.3605 0.56246 0.71799 0.0
H502 H 0.36905 0.65662 0.59204 0.0
H503 H 0.30878 0.53877 0.65027 0.0
Tb504 Tb 0.63299 0.591 0.23053 0.0
C505 C 0.78795 0.61479 0.12455 0.0
N506 N 0.7565 0.63279 0.13674 0.0
C507 C 0.79215 0.68918 0.16214 0.0
C508 C 0.82973 0.64009 0.12129 0.0
C509 C 0.75865 0.66948 0.15326 0.0
C510 C 0.82708 0.67544 0.14582 0.0
C511 C 0.82175 0.54953 0.04484 0.0
C512 C 0.78354 0.5712 0.08839 0.0
C513 C 0.865 0.57815 0.03214 0.0
C514 C 0.8678 0.62334 0.07177 0.0
Tb515 Tb 0.70468 0.5996 0.09975 0.0
N516 N 0.75008 0.55585 0.08352 0.0
C517 C 0.81353 0.51159 0.02463 0.0
C518 C 0.74668 0.52221 0.05197 0.0
C519 C 0.77665 0.50017 0.02979 0.0
H520 H 0.73417 0.68505 0.1604 0.0
H521 H 0.77026 0.47299 1.0109 0.0
H522 H 0.62078 0.49942 0.23114 0.0
H523 H 0.54286 0.70594 0.25084 0.0
H524 H 0.71974 0.51102 0.04154 0.0
H525 H 0.82241 0.53582 0.03507 0.0
H526 H 0.603 0.67549 0.26097 0.0
H527 H 0.7904 0.7176 0.17785 0.0
H528 H 0.8882 0.56774 1.00661 0.0
H529 H 0.89204 0.64025 0.06501 0.0
H530 H 0.56734 0.45752 0.23417 0.0
H531 H 0.85093 0.69332 0.1466 0.0
H532 H 0.48805 0.66895 0.22975 0.0
N533 N 0.58796 0.54801 0.23023 0.0
C534 C 0.55401 0.56251 0.23794 0.0
C535 C 0.56334 0.48696 0.23558 0.0
C536 C 0.52336 0.53964 0.24683 0.0
C537 C 0.59331 0.51069 0.23225 0.0
C538 C 0.52839 0.50149 0.24482 0.0
N539 N 0.58068 0.62185 0.24477 0.0
C540 C 0.57854 0.65899 0.25449 0.0
C541 C 0.51557 0.61652 0.24366 0.0
C542 C 0.55025 0.6005 0.24228 0.0
C543 C 0.51348 0.65489 0.23812 0.0
C544 C 0.54471 0.67627 0.249 0.0
H545 H 0.50579 0.48272 0.24952 0.0
H546 H 0.46513 0.53897 0.26724 0.0
H547 H 0.45816 0.60517 0.25837 0.0
O548 O 0.62553 0.61287 0.32738 0.0
O549 O 0.6035 0.61826 0.14871 0.0
O550 O 0.64603 0.61579 0.0625 0.0
O551 O 0.63958 0.55563 0.31196 0.0
O552 O 0.66004 0.64654 0.22299 0.0
O553 O 0.67892 0.65237 0.11443 0.0
O554 O 0.70066 0.57993 0.99965 0.0
O555 O 0.72693 0.60617 0.20689 0.0
O556 O 0.68702 0.56723 0.24856 0.0
O557 O 0.7338 0.62643 0.02526 0.0
O558 O 0.6857 0.54248 0.12197 0.0
O559 O 0.62626 0.5518 0.14506 0.0
C560 C 0.61165 0.62337 0.0854 0.0
C561 C 0.60367 0.56988 0.40677 0.0
C562 C 0.59353 0.56785 0.52558 0.0
C563 C 0.56541 0.54191 0.51779 0.0
C564 C 0.5762 0.54292 0.3985 0.0
C565 C 0.55607 0.53017 0.45346 0.0
C566 C 0.61082 0.58338 0.47013 0.0
C567 C 0.6672 0.66753 0.17001 0.0
C568 C 0.62972 0.58074 0.35467 0.0
C569 C 0.48916 0.55575 0.2588 0.0
C570 C 0.48497 0.59383 0.25325 0.0
C571 C 0.71573 0.58783 0.26046 0.0
C572 C 0.71441 0.62258 0.91265 0.0
C573 C 0.68088 0.62234 0.74404 0.0
C574 C 0.68264 0.66366 0.74529 0.0
C575 C 0.71591 0.66375 0.90991 0.0
C576 C 0.70276 0.59836 0.85265 0.0
C577 C 0.7054 0.68655 0.84953 0.0
C578 C 0.65152 0.53064 0.11822 0.0
C579 C 0.72308 0.60495 0.97714 0.0
H580 H 0.55204 0.52992 0.56103 0.0
H581 H 0.57125 0.53022 0.35131 0.0
H582 H 0.5349 0.50951 0.44648 0.0
H583 H 0.63291 0.60326 0.47733 0.0
H584 H 0.6734 0.67712 0.69889 0.0
H585 H 0.72431 0.67893 0.9542 0.0
H586 H 0.70628 0.57005 0.86961 0.0
H587 H 0.71076 0.71494 0.86634 0.0
Tb588 Tb 0.60053 0.29373 0.94738 0.0
C589 C 0.63915 0.44791 0.85138 0.0
N590 N 0.60782 0.42979 0.83636 0.0
C591 C 0.57582 0.48526 0.82888 0.0
C592 C 0.63849 0.48487 0.86929 0.0
C593 C 0.57616 0.44769 0.82469 0.0
C594 C 0.60587 0.50402 0.85769 0.0
C595 C 0.70516 0.44892 0.84917 0.0
C596 C 0.67161 0.42999 0.84137 0.0
C597 C 0.705 0.48417 0.87859 0.0
C598 C 0.6712 0.50175 0.89048 0.0
Tb599 Tb 0.61134 0.36985 0.82103 0.0
N600 N 0.66973 0.39541 0.8162 0.0
C601 C 0.73717 0.43204 0.82589 0.0
C602 C 0.70013 0.38084 0.7859 0.0
C603 C 0.7344 0.39826 0.79261 0.0
H604 H 0.55179 0.43276 0.80993 0.0
H605 H 0.75869 0.3853 0.77332 0.0
H606 H 0.68888 0.27147 0.99464 0.0
H607 H 0.47588 0.2089 0.96874 0.0
H608 H 0.69812 0.35519 0.75863 0.0
H609 H 0.76373 0.44532 0.831 0.0
H610 H 0.5104 0.26502 0.95455 0.0
H611 H 0.55262 0.49805 0.80646 0.0
H612 H 0.73049 0.49856 0.88926 0.0
H613 H 0.67041 0.52894 0.91206 0.0
H614 H 0.73185 0.22145 0.9812 0.0
H615 H 0.6052 0.53331 0.86477 0.0
H616 H 0.54552 0.16418 0.96726 0.0
N617 N 0.64422 0.24673 0.94264 0.0
C618 C 0.62944 0.21358 0.93129 0.0
C619 C 0.70408 0.21733 0.96302 0.0
C620 C 0.65799 0.17404 0.92959 0.0
C621 C 0.679 0.24722 0.96909 0.0
C622 C 0.69492 0.18238 0.93718 0.0
N623 N 0.56314 0.24155 0.94329 0.0
C624 C 0.52581 0.23971 0.95308 0.0
C625 C 0.55983 0.16648 0.96427 0.0
C626 C 0.58239 0.21053 0.94455 0.0
C627 C 0.51973 0.1703 0.96938 0.0
C628 C 0.50536 0.20632 0.96317 0.0
H629 H 0.71502 0.16058 0.93866 0.0
H630 H 0.65686 0.10519 0.95353 0.0
H631 H 0.57906 0.09734 0.97848 0.0
O632 O 0.56225 0.30246 0.02386 0.0
O633 O 0.60811 0.27393 0.83539 0.0
O634 O 0.58341 0.32159 0.77943 0.0
O635 O 0.60705 0.26555 0.03814 0.0
O636 O 0.54879 0.31576 0.90525 0.0
O637 O 0.55965 0.37595 0.88263 0.0
O638 O 0.62802 0.39027 0.72786 0.0
O639 O 0.6009 0.39528 0.91826 0.0
O640 O 0.61845 0.35051 0.99241 0.0
O641 O 0.5722 0.3705 0.74402 0.0
O642 O 0.65708 0.33113 0.84434 0.0
O643 O 0.65355 0.3223 0.95538 0.0
C644 C 0.59701 0.28865 0.77623 0.0
C645 C 0.5903 0.30256 0.12964 0.0
C646 C 0.5766 0.33298 0.29932 0.0
C647 C 0.61809 0.34298 0.3017 0.0
C648 C 0.62952 0.31358 0.13505 0.0
C649 C 0.64715 0.32965 0.19633 0.0
C650 C 0.56217 0.3076 0.18647 0.0
C651 C 0.53786 0.35024 0.90805 0.0
C652 C 0.58038 0.28334 0.06721 0.0
C653 C 0.63897 0.12877 0.95006 0.0
C654 C 0.59031 0.12432 0.97131 0.0
C655 C 0.61354 0.38647 0.97752 0.0
C656 C 0.5831 0.40865 0.65005 0.0
C657 C 0.57989 0.41156 0.52954 0.0
C658 C 0.54926 0.43544 0.53612 0.0
C659 C 0.55267 0.43179 0.65634 0.0
C660 C 0.59849 0.40192 0.58772 0.0
C661 C 0.53729 0.44701 0.59913 0.0
C662 C 0.67378 0.32999 0.90319 0.0
C663 C 0.59581 0.38431 0.70213 0.0
H664 H 0.62854 0.35457 0.34888 0.0
H665 H 0.64753 0.30892 0.09261 0.0
H666 H 0.67579 0.33363 0.17966 0.0
H667 H 0.53607 0.29715 0.1657 0.0
H668 H 0.53295 0.44376 0.49351 0.0
H669 H 0.53975 0.43701 0.70388 0.0
H670 H 0.62322 0.38603 0.58613 0.0
H671 H 0.51415 0.46542 0.60356 0.0
Tb672 Tb 0.87152 0.60491 0.57212 0.0
C673 C 0.74476 0.67966 0.75538 0.0
N674 N 0.76704 0.67103 0.70371 0.0
C675 C 0.75245 0.73057 0.65406 0.0
C676 C 0.71537 0.7191 0.74923 0.0
C677 C 0.76514 0.6941 0.64951 0.0
C678 C 0.72724 0.74312 0.70129 0.0
C679 C 0.66164 0.64314 0.84194 0.0
C680 C 0.73186 0.64058 0.79427 0.0
C681 C 0.64253 0.68795 0.8254 0.0
C682 C 0.6684 0.72334 0.78136 0.0
Tb683 Tb 0.79874 0.61224 0.70666 0.0
N684 N 0.74066 0.60257 0.75865 0.0
C685 C 0.64067 0.59903 0.82465 0.0
C686 C 0.71312 0.56649 0.75211 0.0
C687 C 0.66587 0.56296 0.78198 0.0
H688 H 0.77923 0.68669 0.60442 0.0
H689 H 0.65091 0.5385 0.76763 0.0
H690 H 0.84779 0.51864 0.52548 0.0
H691 H 0.99894 0.67077 0.6078 0.0
H692 H 0.72354 0.5428 0.72538 0.0
H693 H 0.61146 0.59615 0.82487 0.0
H694 H 0.93602 0.66838 0.56711 0.0
H695 H 0.7621 0.74948 0.61788 0.0
H696 H 0.6137 0.69263 0.83513 0.0
H697 H 0.65398 0.74802 0.76846 0.0
H698 H 0.8703 0.46054 0.5675 0.0
H699 H 0.71423 0.76957 0.69506 0.0
H700 H 0.0334 0.6139 0.62601 0.0
N701 N 0.89608 0.54842 0.55387 0.0
C702 C 0.93185 0.54616 0.57183 0.0
C703 C 0.88873 0.48387 0.56671 0.0
C704 C 0.94691 0.5129 0.59371 0.0
C705 C 0.87581 0.51731 0.5429 0.0
C706 C 0.92375 0.48205 0.59563 0.0
N707 N 0.93364 0.61017 0.5656 0.0
C708 C 0.95145 0.64315 0.56991 0.0
C709 C 0.98872 0.57809 0.59609 0.0
C710 C 0.95185 0.57828 0.57524 0.0
C711 C 0.00628 0.61203 0.6054 0.0
C712 C 0.9872 0.64452 0.5941 0.0
H713 H 0.93266 0.4567 0.61856 0.0
H714 H 0.99551 0.4873 0.63549 0.0
H715 H 0.03289 0.54379 0.63345 0.0
O716 O 0.84378 0.63999 0.50682 0.0
O717 O 0.9004 0.63066 0.65438 0.0
O718 O 0.85932 0.62499 0.74238 0.0
O719 O 0.8887 0.60518 0.47262 0.0
O720 O 0.86089 0.66258 0.60595 0.0
O721 O 0.8229 0.6656 0.69954 0.0
O722 O 0.7791 0.58555 0.79236 0.0
O723 O 0.77867 0.61154 0.59627 0.0
O724 O 0.82051 0.57656 0.54341 0.0
O725 O 0.83606 0.60094 0.78301 0.0
O726 O 0.80602 0.55568 0.66772 0.0
O727 O 0.86691 0.56189 0.65181 0.0
C728 C 0.89367 0.63219 0.7183 0.0
C729 C 0.87726 0.65919 0.41078 0.0
C730 C 0.89071 0.63256 0.30441 0.0
C731 C 0.92854 0.63627 0.31945 0.0
C732 C 0.91353 0.67127 0.41811 0.0
C733 C 0.93958 0.65927 0.37179 0.0
C734 C 0.86562 0.65099 0.3461 0.0
C735 C 0.84329 0.68128 0.65362 0.0
C736 C 0.8648 0.63064 0.45699 0.0
C737 C 0.98353 0.51234 0.61644 0.0
C738 C 0.00484 0.54464 0.61531 0.0
C739 C 0.78874 0.5931 0.541 0.0
C740 C 0.80795 0.61054 0.88586 0.0
C741 C 0.81283 0.61154 0.01713 0.0
C742 C 0.80437 0.65324 1.00558 0.0
C743 C 0.80591 0.64856 0.88467 0.0
C744 C 0.80823 0.59111 0.94513 0.0
C745 C 0.80216 0.66883 0.94256 0.0
C746 C 0.83904 0.54094 0.67084 0.0
C747 C 0.81007 0.5903 0.82325 0.0
H748 H 0.94957 0.62084 0.29381 0.0
H749 H 0.92231 0.6842 0.46399 0.0
H750 H 0.96826 0.6647 0.37977 0.0
H751 H 0.83629 0.64829 0.33725 0.0
H752 H 0.81013 0.62942 0.02015 0.0
H753 H 0.80498 0.66279 0.83735 0.0
H754 H 0.80625 0.56204 0.93587 0.0
H755 H 0.7974 0.69808 0.93894 0.0
Tb756 Tb 0.60177 0.21331 0.31265 0.0
C757 C 0.59565 0.06518 0.47943 0.0
N758 N 0.5804 0.09818 0.49228 0.0
C759 C 0.52762 0.06932 0.5403 0.0
C760 C 0.57594 0.03304 0.48942 0.0
C761 C 0.54644 0.10107 0.52089 0.0
C762 C 0.54276 0.03505 0.52528 0.0
C763 C 0.64577 0.03132 0.42858 0.0
C764 C 0.631 0.06378 0.4542 0.0
C765 C 0.62318 1.00055 0.42576 0.0
C766 C 0.58927 1.001 0.45928 0.0
Tb767 Tb 0.61355 0.14582 0.45435 0.0
N768 N 0.64947 0.09554 0.4475 0.0
C769 C 0.6818 0.03184 0.40359 0.0
C770 C 0.68643 0.09555 0.4353 0.0
C771 C 0.70308 0.0635 0.41157 0.0
H772 H 0.53446 0.12782 0.52963 0.0
H773 H 0.73148 0.06377 0.39593 0.0
H774 H 0.70071 0.22004 0.2515 0.0
H775 H 0.48788 0.33792 0.26216 0.0
H776 H 0.70208 0.12073 0.43773 0.0
H777 H 0.69367 0.0082 0.37902 0.0
H778 H 0.5117 0.26821 0.30359 0.0
H779 H 0.50132 0.0712 0.56544 0.0
H780 H 0.63223 0.97615 0.39987 0.0
H781 H 0.573 0.97706 0.45861 0.0
H782 H 0.74836 0.26603 0.2555 0.0
H783 H 0.52832 0.01067 0.54103 0.0
H784 H 0.5345 0.39377 0.20724 0.0
N785 N 0.65761 0.25239 0.29544 0.0
C786 C 0.64921 0.28738 0.28678 0.0
C787 C 0.72119 0.274 0.27208 0.0
C788 C 0.68068 0.32464 0.29558 0.0
C789 C 0.69281 0.24647 0.27142 0.0
C790 C 0.71612 0.31088 0.29283 0.0
N791 N 0.57496 0.2702 0.27824 0.0
C792 C 0.5325 0.2862 0.2829 0.0
C793 C 0.59376 0.35935 0.20492 0.0
C794 C 0.60928 0.29072 0.2483 0.0
C795 C 0.54572 0.36693 0.21773 0.0
C796 C 0.51666 0.33158 0.25524 0.0
H797 H 0.73923 0.32968 0.29137 0.0
H798 H 0.69508 0.39194 0.27762 0.0
H799 H 0.62876 0.41894 0.21948 0.0
O800 O 0.57567 0.23259 0.22553 0.0
O801 O 0.60483 0.23607 0.42506 0.0
O802 O 0.57784 0.19046 0.48333 0.0
O803 O 0.5798 0.1756 0.24291 0.0
O804 O 0.54905 0.19713 0.36193 0.0
O805 O 0.56044 0.13855 0.39494 0.0
O806 O 0.65912 0.16094 0.51247 0.0
O807 O 0.62662 0.11495 0.36408 0.0
O808 O 0.61732 0.15437 0.27547 0.0
O809 O 0.60765 0.14232 0.55746 0.0
O810 O 0.65832 0.18335 0.42466 0.0
O811 O 0.65659 0.18817 0.31358 0.0
C812 C 0.59187 0.22341 0.48511 0.0
C813 C 0.59905 0.19773 0.14059 0.0
C814 C 0.61564 0.1753 0.02003 0.0
C815 C 0.65345 0.16925 0.05605 0.0
C816 C 0.63615 0.2007 0.15497 0.0
C817 C 0.66247 0.18574 0.11527 0.0
C818 C 0.58673 0.19026 0.07613 0.0
C819 C 0.53766 0.16247 0.36636 0.0
C820 C 0.57483 0.20084 0.19792 0.0
C821 C 0.67268 0.37268 0.27048 0.0
C822 C 0.63177 0.38971 0.22672 0.0
C823 C 0.62479 0.12044 0.29974 0.0
C824 C 0.66247 0.12405 0.60946 0.0
C825 C 0.66334 0.11069 0.72572 0.0
C826 C 0.7015 0.10572 0.72466 0.0
C827 C 0.70077 0.11909 0.6059 0.0
C828 C 0.64384 0.11348 0.66647 0.0
C829 C 0.71989 0.10755 0.66308 0.0
C830 C 0.67584 0.18185 0.36758 0.0
C831 C 0.64257 0.14935 0.56635 0.0
H832 H 0.63262 0.17153 0.02871 0.0
H833 H 0.64449 0.21038 0.20275 0.0
H834 H 0.69051 0.18408 0.13319 0.0
H835 H 0.55789 0.19594 0.06965 0.0
H836 H 0.71695 0.10339 0.77085 0.0
H837 H 0.71606 0.12641 0.56135 0.0
H838 H 0.61422 0.11754 0.66922 0.0
H839 H 0.74931 0.10407 0.6611 0.0
Tb840 Tb 0.13696 0.39962 0.55939 0.0
C841 C 0.2744 0.3432 0.7441 0.0
N842 N 0.24586 0.34233 0.70253 0.0
C843 C 0.2658 0.27944 0.67408 0.0
C844 C 0.30112 0.30385 0.76621 0.0
C845 C 0.24797 0.31324 0.6587 0.0
C846 C 0.2897 0.27422 0.72917 0.0
C847 C 0.36057 0.39115 0.78574 0.0
C848 C 0.29144 0.38521 0.74491 0.0
C849 C 0.37826 0.34582 0.80645 0.0
C850 C 0.34938 0.30428 0.79737 0.0
Tb851 Tb 0.21296 0.40118 0.69604 0.0
N852 N 0.27335 0.42215 0.72334 0.0
C853 C 0.37321 0.43944 0.78231 0.0
C854 C 0.29302 0.4632 0.72646 0.0
C855 C 0.34014 0.47356 0.75342 0.0
H856 H 0.23568 0.3154 0.60995 0.0
H857 H 0.34968 0.50137 0.74713 0.0
H858 H 0.12265 0.47668 0.47533 0.0
H859 H 0.04532 0.29457 0.65139 0.0
H860 H 0.27758 0.48647 0.70894 0.0
H861 H 0.40102 0.44859 0.79107 0.0
H862 H 0.10443 0.31789 0.60911 0.0
H863 H 0.26303 0.25728 0.63816 0.0
H864 H 0.40623 0.34266 0.82318 0.0
H865 H 0.36258 0.27807 0.8051 0.0
H866 H 0.06916 0.51445 0.44368 0.0
H867 H 0.30662 0.25028 0.73226 0.0
H868 H 0.99049 0.33387 0.64593 0.0
N869 N 0.09046 0.43625 0.52473 0.0
C870 C 0.0563 0.42383 0.53924 0.0
C871 C 0.06509 0.48908 0.47063 0.0
C872 C 0.02504 0.44387 0.52093 0.0
C873 C 0.09537 0.46813 0.48997 0.0
C874 C 0.02965 0.47684 0.48595 0.0
N875 N 0.08321 0.37014 0.58192 0.0
C876 C 0.08059 0.33498 0.60547 0.0
C877 C 0.01811 0.37754 0.59176 0.0
C878 C 0.05259 0.39011 0.57043 0.0
C879 C 0.01591 0.34362 0.62456 0.0
C880 C 0.04702 0.32154 0.62888 0.0
H881 H 0.00615 0.49309 0.47103 0.0
H882 H 0.96603 0.4442 0.52142 0.0
H883 H 0.96089 0.39132 0.59942 0.0
O884 O 0.13279 0.354 0.49608 0.0
O885 O 0.10988 0.39933 0.65593 0.0
O886 O 0.1544 0.38449 0.73464 0.0
O887 O 0.13796 0.40949 0.45611 0.0
O888 O 0.16862 0.35008 0.58828 0.0
O889 O 0.18612 0.34839 0.69619 0.0
O890 O 0.23824 0.42098 0.78388 0.0
O891 O 0.23358 0.39763 0.58343 0.0
O892 O 0.18778 0.42618 0.52667 0.0
O893 O 0.18067 0.42254 0.77607 0.0
O894 O 0.19914 0.45355 0.64428 0.0
O895 O 0.13897 0.45378 0.6142 0.0
C896 C 0.11869 0.38819 0.71598 0.0
C897 C 0.10585 0.3661 0.39058 0.0
C898 C 0.1029 0.35558 0.27082 0.0
C899 C 0.07317 0.3313 0.28072 0.0
C900 C 0.07482 0.34384 0.40034 0.0
C901 C 0.05783 0.32735 0.34483 0.0
C902 C 0.11691 0.3748 0.32631 0.0
C903 C 0.17129 0.33159 0.64501 0.0
C904 C 0.13224 0.37486 0.4431 0.0
C905 C 0.99037 0.43049 0.53889 0.0
C906 C 0.98724 0.39918 0.57931 0.0
C907 C 0.21978 0.40971 0.52376 0.0
C908 C 0.20679 0.40636 0.88163 0.0
C909 C 0.17914 0.39914 0.05372 0.0
C910 C 0.17613 0.35751 0.04318 0.0
C911 C 0.20461 0.36594 0.87596 0.0
C912 C 0.20054 0.42733 0.94777 0.0
C913 C 0.1929 0.34061 0.93137 0.0
C914 C 0.16679 0.47037 0.64527 0.0
C915 C 0.20868 0.42572 0.81669 0.0
H916 H 0.0625 0.31443 0.24052 0.0
H917 H 0.06502 0.33773 0.45031 0.0
H918 H 0.03435 0.30944 0.35212 0.0
H919 H 0.1396 0.39405 0.32035 0.0
H920 H 0.16659 0.34133 0.08606 0.0
H921 H 0.21077 0.35375 0.82784 0.0
H922 H 0.2081 0.45532 0.93667 0.0
H923 H 0.19422 0.31345 0.90698 0.0
Tb924 Tb 0.40515 0.79779 0.34627 0.0
C925 C 0.43742 0.95585 0.42053 0.0
N926 N 0.44732 0.92497 0.45353 0.0
C927 C 0.50583 0.95029 0.47712 0.0
C928 C 0.46309 0.98362 0.40767 0.0
C929 C 0.47925 0.92368 0.48827 0.0
C930 C 0.49856 0.97903 0.43211 0.0
C931 C 0.38964 0.99196 0.36895 0.0
C932 C 0.40094 0.96052 0.40365 0.0
C933 C 0.41533 0.01958 0.35416 0.0
C934 C 0.45211 0.01556 0.37399 0.0
Tb935 Tb 0.40379 0.88187 0.46215 0.0
N936 N 0.37642 0.93452 0.42296 0.0
C937 C 0.35276 0.99456 0.35059 0.0
C938 C 0.33935 0.94083 0.4161 0.0
C939 C 0.3273 0.96943 0.37548 0.0
H940 H 0.48394 0.90169 0.52349 0.0
H941 H 0.29866 0.97188 0.36265 0.0
H942 H 0.31497 0.79196 0.27931 0.0
H943 H 0.51323 0.69536 0.38678 0.0
H944 H 0.31968 0.9211 0.43432 0.0
H945 H 0.34376 0.01583 0.31767 0.0
H946 H 0.48742 0.75532 0.39075 0.0
H947 H 0.53114 0.94807 0.50469 0.0
H948 H 0.40654 0.04459 0.32999 0.0
H949 H 0.47159 0.03755 0.365 0.0
H950 H 0.27226 0.74499 0.24932 0.0
H951 H 0.51918 0.99903 0.41915 0.0
H952 H 0.44148 0.66343 0.33742 0.0
N953 N 0.35395 0.75836 0.3312 0.0
C954 C 0.36268 0.72319 0.34423 0.0
C955 C 0.29475 0.73724 0.28161 0.0
C956 C 0.33029 0.68744 0.32327 0.0
C957 C 0.3216 0.76464 0.29642 0.0
C958 C 0.29704 0.70015 0.30002 0.0
N959 N 0.4328 0.74138 0.36177 0.0
C960 C 0.46889 0.73362 0.37587 0.0
C961 C 0.42793 0.66817 0.33265 0.0
C962 C 0.4096 0.7138 0.34919 0.0
C963 C 0.46673 0.66539 0.35181 0.0
C964 C 0.48455 0.69784 0.37311 0.0
H965 H 0.27633 0.68091 0.28267 0.0
H966 H 0.32574 0.62118 0.2886 0.0
H967 H 0.40251 0.6022 0.30013 0.0
O968 O 0.43046 0.82314 0.26282 0.0
O969 O 0.40393 0.78314 0.45931 0.0
O970 O 0.42835 0.83297 0.51464 0.0
O971 O 0.4157 0.76644 0.25902 0.0
O972 O 0.45883 0.81278 0.39005 0.0
O973 O 0.45642 0.87438 0.39935 0.0
O974 O 0.39243 0.92519 0.52894 0.0
O975 O 0.36886 0.88449 0.37186 0.0
O976 O 0.39917 0.85305 0.29363 0.0
O977 O 0.39773 0.87019 0.56476 0.0
O978 O 0.35067 0.85275 0.46494 0.0
O979 O 0.34829 0.81531 0.37192 0.0
C980 C 0.41563 0.79861 0.51719 0.0
C981 C 0.41112 0.79986 0.15904 0.0
C982 C 0.40406 0.82744 0.98651 0.0
C983 C 0.36222 0.82935 0.99675 0.0
C984 C 0.37095 0.80274 0.16417 0.0
C985 C 0.34567 0.81311 0.10886 0.0
C986 C 0.43277 0.80755 0.09384 0.0
C987 C 0.47485 0.84463 0.37907 0.0
C988 C 0.42847 0.79396 0.22473 0.0
C989 C 0.34557 0.64168 0.30424 0.0
C990 C 0.39389 0.63026 0.30761 0.0
C991 C 0.38004 0.88256 0.31007 0.0
C992 C 0.42014 0.91732 0.63422 0.0
C993 C 0.44211 0.91049 0.74744 0.0
C994 C 0.46574 0.94061 0.73977 0.0
C995 C 0.4439 0.94755 0.62618 0.0
C996 C 0.41962 0.8988 0.69488 0.0
C997 C 0.46672 0.95905 0.67867 0.0
C998 C 0.33214 0.83101 0.42418 0.0
C999 C 0.39529 0.90461 0.58114 0.0
H1000 H 0.34605 0.83765 0.95275 0.0
H1001 H 0.35912 0.79964 0.21254 0.0
H1002 H 0.31859 0.81194 0.13369 0.0
H1003 H 0.46166 0.80359 0.10742 0.0
H1004 H 0.48266 0.95007 0.78113 0.0
H1005 H 0.44483 0.96227 0.57953 0.0
H1006 H 0.40095 0.87575 0.70201 0.0
H1007 H 0.48473 0.98251 0.6722 0.0
Tb1008 Tb 0.87937 0.92168 0.70452 0.0
C1009 C 0.73581 0.84636 0.5249 0.0
N1010 N 0.77041 0.8475 0.54506 0.0
C1011 C 0.76997 0.78202 0.51017 0.0
C1012 C 0.70877 0.80563 0.5239 0.0
C1013 C 0.7879 0.81637 0.52358 0.0
C1014 C 0.73172 0.77584 0.51708 0.0
C1015 C 0.64842 0.8866 0.46731 0.0
C1016 C 0.72053 0.88684 0.50126 0.0
C1017 C 0.63039 0.84017 0.47557 0.0
C1018 C 0.65956 0.80214 0.50301 0.0
Tb1019 Tb 0.79467 0.90883 0.57484 0.0
N1020 N 0.73238 0.92145 0.54344 0.0
C1021 C 0.62911 0.92844 0.49879 0.0
C1022 C 0.70626 0.9564 0.56351 0.0
C1023 C 0.6575 0.96182 0.54441 0.0
H1024 H 0.81539 0.81905 0.50848 0.0
H1025 H 0.64463 0.98658 0.56289 0.0
H1026 H 0.94962 0.96912 0.63639 0.0
H1027 H 0.89487 0.80905 0.87865 0.0
H1028 H 0.71897 0.97869 0.59109 0.0
H1029 H 0.59995 0.93098 0.5006 0.0
H1030 H 0.86665 0.86642 0.83533 0.0
H1031 H 0.78641 0.75929 0.49297 0.0
H1032 H 0.60126 0.83527 0.46985 0.0
H1033 H 0.64728 0.77504 0.50339 0.0
H1034 H 0.00907 0.95537 0.58791 0.0
H1035 H 0.72028 0.74885 0.5073 0.0
H1036 H 0.95048 0.78386 0.8229 0.0
N1037 N 0.93979 0.91576 0.67292 0.0
C1038 C 0.95567 0.88353 0.68772 0.0
C1039 C 0.99412 0.93405 0.61337 0.0
C1040 C 0.98929 0.87334 0.65913 0.0
C1041 C 0.95976 0.94198 0.64015 0.0
C1042 C 0.00856 0.89891 0.62064 0.0
N1043 N 0.90507 0.87184 0.75585 0.0
C1044 C 0.89075 0.85517 0.81125 0.0
C1045 C 0.95369 0.82739 0.75065 0.0
C1046 C 0.93778 0.8607 0.73127 0.0
C1047 C 0.93783 0.80846 0.80407 0.0
C1048 C 0.90669 0.82287 0.8358 0.0
H1049 H 0.03498 0.89212 0.59902 0.0
H1050 H 0.02263 0.82753 0.63489 0.0
H1051 H 0.99531 0.78727 0.72411 0.0
O1052 O 0.8657 0.95025 0.79338 0.0
O1053 O 0.89097 0.92553 0.59647 0.0
O1054 O 0.85168 0.88629 0.54437 0.0
O1055 O 0.92001 0.95311 0.75253 0.0
O1056 O 0.8637 0.86366 0.68376 0.0
O1057 O 0.80772 0.85673 0.62639 0.0
O1058 O 0.77168 0.93353 0.48848 0.0
O1059 O 0.77739 0.92465 0.68523 0.0
O1060 O 0.82614 0.91046 0.757 0.0
O1061 O 0.82928 0.92338 0.49672 0.0
O1062 O 0.80588 0.96747 0.60744 0.0
O1063 O 0.86504 0.97106 0.64613 0.0
C1064 C 0.88652 0.89751 0.5555 0.0
C1065 C 0.91579 0.93998 0.86599 0.0
C1066 C 0.90386 0.91636 0.97668 0.0
C1067 C 0.933 0.8915 0.97016 0.0
C1068 C 0.94765 0.91794 0.86269 0.0
C1069 C 0.95572 0.89333 0.9141 0.0
C1070 C 0.89507 0.94014 0.92435 0.0
C1071 C 0.83793 0.84323 0.6544 0.0
C1072 C 0.90035 0.95709 0.80571 0.0
C1073 C 1.00122 0.83734 0.66714 0.0
C1074 C 0.98452 0.8145 0.71525 0.0
C1075 C 0.79108 0.91948 0.74869 0.0
C1076 C 0.80292 0.91557 0.38999 0.0
C1077 C 0.82861 0.92623 0.2184 0.0
C1078 C 0.83648 0.88519 0.21542 0.0
C1079 C 0.8104 0.87525 0.38384 0.0
C1080 C 0.80594 0.94217 0.33156 0.0
C1081 C 0.82393 0.8559 0.32037 0.0
C1082 C 0.83738 0.98635 0.61372 0.0
C1083 C 0.80258 0.93228 0.457 0.0
H1084 H 0.93967 0.87286 1.01055 0.0
H1085 H 0.96515 0.91799 0.81885 0.0
H1086 H 0.97934 0.87545 0.91012 0.0
H1087 H 0.87153 0.95827 0.9286 0.0
H1088 H 0.84711 0.87493 0.16722 0.0
H1089 H 0.80825 0.85918 0.42827 0.0
H1090 H 0.79679 0.96849 0.35158 0.0
H1091 H 0.82619 0.82689 0.33515 0.0
Tb1092 Tb 0.90201 0.2194 0.45736 0.0
C1093 C 0.91817 0.05879 0.40296 0.0
N1094 N 0.94003 0.08737 0.38523 0.0
C1095 C 0.99245 0.05541 0.42764 0.0
C1096 C 0.93253 0.02826 0.43673 0.0
C1097 C 0.97724 0.08291 0.38809 0.0
C1098 C 0.96994 0.02765 0.45228 0.0
C1099 C 0.85749 0.03152 0.40432 0.0
C1100 C 0.88169 0.05912 0.38342 0.0
C1101 C 0.87128 1.00224 0.44155 0.0
C1102 C 0.90892 0.99995 0.45537 0.0
Tb1103 Tb 0.90855 0.13622 0.34042 0.0
N1104 N 0.86969 0.08721 0.34498 0.0
C1105 C 0.8202 0.03494 0.38816 0.0
C1106 C 0.8358 0.08549 0.31594 0.0
C1107 C 0.8096 0.06078 0.34036 0.0
H1108 H 0.99473 0.10128 0.36185 0.0
H1109 H 0.78171 0.06129 0.32179 0.0
H1110 H 0.81263 0.18091 0.48985 0.0
H1111 H 0.95595 0.37941 0.45382 0.0
H1112 H 0.82879 0.10438 0.2773 0.0
H1113 H 0.79974 0.01727 0.41063 0.0
H1114 H 0.95828 0.30466 0.42486 0.0
H1115 H 0.02118 0.05593 0.43963 0.0
H1116 H 0.85317 0.98159 0.46026 0.0
H1117 H 0.91952 0.97729 0.48394 0.0
H1118 H 0.75257 0.20151 0.52824 0.0
H1119 H 0.98173 0.00563 0.48155 0.0
H1120 H 0.90164 0.41433 0.53163 0.0
N1121 N 0.83771 0.23343 0.4829 0.0
C1122 C 0.83353 0.26638 0.5117 0.0
C1123 C 0.7735 0.22212 0.51898 0.0
C1124 C 0.78983 0.287 0.52053 0.0
C1125 C 0.80873 0.20988 0.49611 0.0
C1126 C 0.76355 0.25959 0.52649 0.0
N1127 N 0.9076 0.28205 0.48389 0.0
C1128 C 0.93655 0.31348 0.45815 0.0
C1129 C 0.86417 0.35943 0.567 0.0
C1130 C 0.87339 0.28779 0.53055 0.0
C1131 C 0.90144 0.385 0.53021 0.0
C1132 C 0.93552 0.36235 0.47793 0.0
H1133 H 0.73593 0.26678 0.54139 0.0
H1134 H 0.752 0.34328 0.54697 0.0
H1135 H 0.80654 0.39796 0.572 0.0
O1136 O 0.92582 0.24206 0.54587 0.0
O1137 O 0.91852 0.23807 0.34738 0.0
O1138 O 0.91344 0.18682 0.27784 0.0
O1139 O 0.91724 0.18424 0.53722 0.0
O1140 O 0.95928 0.21037 0.42079 0.0
O1141 O 0.95539 0.14868 0.41045 0.0
O1142 O 0.91664 0.14762 0.23862 0.0
O1143 O 0.86302 0.13037 0.41146 0.0
O1144 O 0.88685 0.16258 0.4979 0.0
O1145 O 0.9258 0.09359 0.27726 0.0
O1146 O 0.85254 0.1609 0.3373 0.0
O1147 O 0.85277 0.21743 0.39258 0.0
C1148 C 0.91727 0.22288 0.28416 0.0
C1149 C 0.90244 0.21148 0.64273 0.0
C1150 C 0.874 0.18672 0.80948 0.0
C1151 C 0.83428 0.19562 0.78857 0.0
C1152 C 0.86395 0.2188 0.62905 0.0
C1153 C 0.83211 0.21613 0.67545 0.0
C1154 C 0.91523 0.19881 0.71216 0.0
C1155 C 0.97528 0.17788 0.42578 0.0
C1156 C 0.92479 0.21114 0.57905 0.0
C1157 C 0.7805 0.33512 0.54364 0.0
C1158 C 0.81519 0.3698 0.56626 0.0
C1159 C 0.86802 0.13342 0.47588 0.0
C1160 C 0.8993 0.09762 0.17121 0.0
C1161 C 0.88 0.10247 0.05662 0.0
C1162 C 0.87113 0.06494 0.05578 0.0
C1163 C 0.88752 0.06094 0.17233 0.0
C1164 C 0.89188 0.11904 0.11574 0.0
C1165 C 0.8722 0.04513 0.11485 0.0
C1166 C 0.83643 0.1924 0.35421 0.0
C1167 C 0.92195 0.11326 0.22426 0.0
H1168 H 0.81304 0.19167 0.82714 0.0
H1169 H 0.85787 0.21765 0.58009 0.0
H1170 H 0.80876 0.22435 0.64383 0.0
H1171 H 0.94481 0.19587 0.70643 0.0
H1172 H 0.86203 0.05134 1.01027 0.0
H1173 H 0.89088 0.04475 0.21708 0.0
H1174 H 0.89786 0.14827 0.11709 0.0
H1175 H 0.86175 0.01751 0.11469 0.0
Tb1176 Tb 0.13483 0.09324 0.71149 0.0
C1177 C 0.28403 0.14113 0.56352 0.0
N1178 N 0.25357 0.14217 0.60186 0.0
C1179 C 0.28345 0.18654 0.6757 0.0
C1180 C 0.3242 0.16595 0.58783 0.0
C1181 C 0.25375 0.16385 0.65713 0.0
C1182 C 0.31728 0.18889 0.64164 0.0
C1183 C 0.35465 0.08192 0.48223 0.0
C1184 C 0.28536 0.10227 0.5158 0.0
C1185 C 0.38713 0.11577 0.51683 0.0
C1186 C 0.37183 0.1549 0.56626 0.0
Tb1187 Tb 0.20698 0.1001 0.57075 0.0
N1188 N 0.26031 0.06861 0.53659 0.0
C1189 C 0.35656 0.0321 0.48651 0.0
C1190 C 0.2716 0.02509 0.53614 0.0
C1191 C 0.31637 0.00599 0.51451 0.0
H1192 H 0.23208 0.16109 0.69262 0.0
H1193 H 0.31927 0.97675 0.52066 0.0
H1194 H 0.10371 0.00659 0.70049 0.0
H1195 H 0.06163 0.21805 0.77397 0.0
H1196 H 0.25048 0.00547 0.54934 0.0
H1197 H 0.36246 0.06045 0.48141 0.0
H1198 H 0.11582 0.17811 0.76934 0.0
H1199 H 0.28058 0.19962 0.72379 0.0
H1200 H 0.41625 0.11011 0.51418 0.0
H1201 H 0.39308 0.17171 0.58891 0.0
H1202 H 0.04444 0.9758 0.68792 0.0
H1203 H 0.33956 0.20477 0.66325 0.0
H1204 H 1.00178 0.19506 0.73535 0.0
N1205 N 0.08161 0.06082 0.69579 0.0
C1206 C 0.05031 0.0809 0.69817 0.0
C1207 C 0.04567 0.00548 0.6881 0.0
C1208 C 0.01571 0.0644 0.68872 0.0
C1209 C 0.07959 0.02329 0.69412 0.0
C1210 C 0.01361 0.02621 0.68375 0.0
N1211 N 0.08653 0.13223 0.72792 0.0
C1212 C 0.08967 0.16732 0.75257 0.0
C1213 C 0.02152 0.14017 0.71322 0.0
C1214 C 0.05294 0.11798 0.71346 0.0
C1215 C 0.02497 0.17684 0.73397 0.0
C1216 C 0.05894 0.19007 0.75599 0.0
H1217 H 0.98735 0.0126 0.67939 0.0
H1218 H 0.95742 0.07496 0.67878 0.0
H1219 H 0.96422 0.14124 0.68499 0.0
O1220 O 0.12547 0.10906 0.81017 0.0
O1221 O 0.10508 0.10924 0.61959 0.0
O1222 O 0.1491 0.11887 0.5379 0.0
O1223 O 0.13532 0.05192 0.78426 0.0
O1224 O 0.15896 0.14852 0.69733 0.0
O1225 O 0.1839 0.15353 0.59164 0.0
O1226 O 0.21507 0.07685 0.47601 0.0
O1227 O 0.22948 0.0807 0.6775 0.0
O1228 O 0.18974 0.10913 0.74871 0.0
O1229 O 0.21741 0.13576 0.49001 0.0
O1230 O 0.17081 0.05162 0.55931 0.0
O1231 O 0.15683 0.04072 0.66807 0.0
C1232 C 0.11396 0.12077 0.55942 0.0
C1233 C 0.09575 0.06548 0.87555 0.0
C1234 C 0.09469 0.06184 0.99362 0.0
C1235 C 0.07523 0.02833 0.98988 0.0
C1236 C 0.07675 0.03199 0.86988 0.0
C1237 C 0.06412 0.01477 0.92756 0.0
C1238 C 0.09757 0.0834 0.9371 0.0
C1239 C 0.16905 0.16826 0.64494 0.0
C1240 C 0.12513 0.07533 0.83002 0.0
C1241 C 0.98445 0.08663 0.68591 0.0
C1242 C 0.98791 0.12462 0.69342 0.0
C1243 C 0.22006 0.09008 0.74203 0.0
C1244 C 0.20481 0.11401 0.3792 0.0
C1245 C 0.18097 0.08143 0.21544 0.0
C1246 C 0.17455 0.1209 0.1946 0.0
C1247 C 0.19801 0.15266 0.35588 0.0
C1248 C 0.20095 0.08013 0.3336 0.0
C1249 C 0.18599 0.16314 0.28512 0.0
C1250 C 0.1567 0.02987 0.60468 0.0
C1251 C 0.21937 0.10872 0.44719 0.0
H1252 H 0.07151 0.01145 0.03388 0.0
H1253 H 0.07467 0.01748 0.82298 0.0
H1254 H 0.05012 0.98873 0.92344 0.0
H1255 H 0.11175 0.10967 0.94121 0.0
H1256 H 0.16487 0.12463 0.14283 0.0
H1257 H 0.20243 0.17501 0.39106 0.0
H1258 H 0.2091 0.0566 0.36427 0.0
H1259 H 0.18448 0.19333 0.28665 0.0
Tb1260 Tb 0.10186 0.79859 0.43823 0.0
C1261 C 0.11588 0.96003 0.36658 0.0
N1262 N 0.08922 0.94021 0.33672 0.0
C1263 C 0.04886 0.9918 0.34069 0.0
C1264 C 0.1094 0.99541 0.39073 0.0
C1265 C 0.05652 0.95593 0.32025 0.0
C1266 C 0.07514 0.01109 0.37815 0.0
C1267 C 0.1803 0.96682 0.38917 0.0
C1268 C 0.15057 0.94594 0.36506 0.0
C1269 C 0.17332 0.99893 0.4256 0.0
C1270 C 0.13798 0.01413 0.42392 0.0
Tb1271 Tb 0.10224 0.8804 0.31712 0.0
N1272 N 0.15544 0.91503 0.32853 0.0
C1273 C 0.21547 0.95816 0.36664 0.0
C1274 C 0.189 0.9092 0.29908 0.0
C1275 C 0.21967 0.93012 0.31918 0.0
H1276 H 0.03569 0.94014 0.29422 0.0
H1277 H 0.2466 0.92398 0.29994 0.0
H1278 H 0.19227 0.77057 0.44097 0.0
H1279 H 0.97099 0.72712 0.45478 0.0
H1280 H 0.19267 0.88752 0.26249 0.0
H1281 H 0.23881 0.97447 0.38239 0.0
H1282 H 0.0089 0.77503 0.40986 0.0
H1283 H 0.02274 0.0042 0.32836 0.0
H1284 H 0.19566 0.01389 0.44861 0.0
H1285 H 0.13341 0.04067 0.4463 0.0
H1286 H 0.22917 0.71641 0.42024 0.0
H1287 H 0.07013 0.03891 0.39316 0.0
H1288 H 0.03729 0.67888 0.47602 0.0
N1289 N 0.1408 0.74796 0.41534 0.0
C1290 C 0.1228 0.71562 0.41492 0.0
C1291 C 0.19965 0.71385 0.41613 0.0
C1292 C 0.14794 0.6733 0.42192 0.0
C1293 C 0.17813 0.74651 0.42344 0.0
C1294 C 0.18533 0.67781 0.41375 0.0
N1295 N 0.0604 0.75053 0.42882 0.0
C1296 C 0.02285 0.75114 0.42856 0.0
C1297 C 0.0518 0.67997 0.47109 0.0
C1298 C 0.07708 0.71847 0.43678 0.0
C1299 C 0.01237 0.68782 0.47706 0.0
C1300 C 1.00024 0.72216 0.45335 0.0
H1301 H 0.20356 0.65447 0.41691 0.0
H1302 H 0.14203 0.60862 0.46811 0.0
H1303 H 0.0646 0.61131 0.50673 0.0
O1304 O 0.07762 0.80953 0.53297 0.0
O1305 O 0.0931 0.78177 0.32516 0.0
O1306 O 0.11136 0.82981 0.25704 0.0
O1307 O 0.11553 0.76622 0.5204 0.0
O1308 O 0.04774 0.82452 0.43951 0.0
O1309 O 0.04619 0.87355 0.36817 0.0
O1310 O 0.10907 0.91369 0.23243 0.0
O1311 O 0.08992 0.89521 0.42117 0.0
O1312 O 0.12371 0.85373 0.47763 0.0
O1313 O 0.06254 0.87438 0.24161 0.0
O1314 O 0.15404 0.84704 0.32697 0.0
O1315 O 0.15532 0.82548 0.43417 0.0
C1316 C 0.10142 0.79503 0.26303 0.0
C1317 C 0.11544 0.79526 0.62625 0.0
C1318 C 0.12253 0.82721 0.79625 0.0
C1319 C 0.16383 0.82562 0.78957 0.0
C1320 C 0.15644 0.79465 0.62344 0.0
C1321 C 0.18161 0.80485 0.68055 0.0
C1322 C 0.09379 0.80658 0.68983 0.0
C1323 C 0.03014 0.85281 0.41553 0.0
C1324 C 0.09613 0.78429 0.56359 0.0
C1325 C 0.12623 0.63328 0.4597 0.0
C1326 C 0.07821 0.63528 0.4865 0.0
C1327 C 0.11008 0.88767 0.47364 0.0
C1328 C 0.06492 0.91222 0.14355 0.0
C1329 C 0.06379 0.90303 0.02469 0.0
C1330 C 0.03784 0.93109 0.01799 0.0
C1331 C 0.04047 0.94163 0.13758 0.0
C1332 C 0.07771 0.89415 0.08736 0.0
C1333 C 0.02748 0.95144 0.07432 0.0
C1334 C 0.17254 0.83877 0.38222 0.0
C1335 C 0.07867 0.90049 0.20738 0.0
H1336 H 0.17956 0.83393 0.83438 0.0
H1337 H 0.16981 0.78673 0.57705 0.0
H1338 H 0.2091 0.80052 0.65871 0.0
H1339 H 0.06526 0.80101 0.6781 0.0
H1340 H 0.02656 0.93763 0.96936 0.0
H1341 H 0.03151 0.95693 0.1811 0.0
H1342 H 0.09836 0.87282 0.09237 0.0
H1343 H 0.00919 0.9746 0.06904 0.0
C1344 C 0.33539 0.9229 0.23627 0.0
C1345 C 0.37155 0.91514 0.2607 0.0
C1346 C 0.39191 0.97115 0.1977 0.0
C1347 C 0.3554 0.98363 0.18375 0.0
N1348 N 0.29159 0.9647 0.18315 0.0
N1349 N 0.43254 0.93863 0.27256 0.0
C1350 C 0.32692 0.95747 0.20144 0.0
C1351 C 0.39907 0.94105 0.24296 0.0
N1352 N 0.30916 0.89634 0.24398 0.0
N1353 N 0.42068 0.98545 0.16313 0.0
H1354 H 0.44057 0.91613 0.30104 0.0
H1355 H 0.45131 0.96036 0.2716 0.0
H1356 H 0.41759 1.00079 0.12021 0.0
H1357 H 0.44701 0.97544 0.1678 0.0
H1358 H 0.28388 0.89664 0.21957 0.0
H1359 H 0.31421 0.87201 0.26992 0.0
H1360 H 0.2689 0.95059 0.20175 0.0
H1361 H 0.28489 0.98425 0.14733 0.0
C1362 C 0.93667 0.67735 0.78618 0.0
C1363 C 0.92838 0.64136 0.76119 0.0
C1364 C 0.99442 0.62753 0.78403 0.0
C1365 C 0.99971 0.66089 0.82145 0.0
N1366 N 0.96994 0.71412 0.8679 0.0
N1367 N 0.95373 0.58219 0.73507 0.0
C1368 C 0.96894 0.68453 0.82609 0.0
C1369 C 0.95853 0.61644 0.76102 0.0
N1370 N 0.91777 0.7063 0.76211 0.0
N1371 N 0.02426 0.60712 0.76595 0.0
H1372 H 0.93116 0.5752 0.70593 0.0
H1373 H 0.97164 0.56052 0.74393 0.0
H1374 H 0.05101 0.61447 0.77751 0.0
H1375 H 0.0232 0.58398 0.73537 0.0
H1376 H 0.9235 0.73336 0.77556 0.0
H1377 H 0.9021 0.70305 0.71927 0.0
H1378 H 0.94633 0.72933 0.87811 0.0
H1379 H 0.99297 0.72085 0.89669 0.0
C1380 C 0.62334 0.01591 0.24626 0.0
C1381 C 0.65235 0.01253 0.19776 0.0
C1382 C 0.65972 0.0815 0.20656 0.0
C1383 C 0.63155 0.08469 0.25652 0.0
N1384 N 0.58219 0.05328 0.31387 0.0
N1385 N 0.69158 0.04508 0.12112 0.0
C1386 C 0.61223 0.05133 0.27285 0.0
C1387 C 0.66875 0.04627 0.17544 0.0
N1388 N 0.60641 0.98483 0.26916 0.0
N1389 N 0.67901 0.11224 0.18997 0.0
H1390 H 0.69829 0.02069 0.09671 0.0
H1391 H 0.70124 0.06823 0.09619 0.0
H1392 H 0.67303 0.13764 0.2111 0.0
H1393 H 0.70271 0.11229 0.16076 0.0
H1394 H 0.58652 0.98402 0.30639 0.0
H1395 H 0.61323 0.9586 0.254 0.0
H1396 H 0.56194 0.03312 0.31715 0.0
H1397 H 0.57527 0.07637 0.34159 0.0
C1398 C 0.04482 0.33704 0.83113 0.0
C1399 C 0.01247 0.3582 0.82034 0.0
C1400 C 0.05227 0.4018 0.75514 0.0
C1401 C 0.08417 0.3791 0.7606 0.0
N1402 N 0.10028 0.31599 0.77721 0.0
N1403 N 0.98601 0.40174 0.74471 0.0
C1404 C 0.07792 0.34436 0.79266 0.0
C1405 C 0.01652 0.38831 0.77509 0.0
N1406 N 0.04413 0.30908 0.87628 0.0
N1407 N 0.05556 0.43608 0.72808 0.0
H1408 H 0.96028 0.38983 0.75142 0.0
H1409 H 0.98661 0.42202 0.70813 0.0
H1410 H 0.08093 0.44819 0.71748 0.0
H1411 H 0.03354 0.45403 0.72284 0.0
H1412 H 0.06764 0.29428 0.8888 0.0
H1413 H 0.02087 0.30286 0.90468 0.0
H1414 H 0.09604 0.2893 0.79448 0.0
H1415 H 0.1179 0.31837 0.73666 0.0
C1416 C 0.32052 0.53824 0.06155 0.0
C1417 C 0.34564 0.50791 0.05722 0.0
C1418 C 0.39224 0.55292 1.01371 0.0
C1419 C 0.36579 0.5817 1.00876 0.0
N1420 N 0.30271 0.59936 0.02199 0.0
N1421 N 0.40475 0.48739 0.01785 0.0
C1422 C 0.32937 0.57365 0.03133 0.0
C1423 C 0.38126 0.51584 0.02994 0.0
N1424 N 0.28893 0.53415 0.09763 0.0
N1425 N 0.42836 0.56121 1.0012 0.0
H1426 H 0.39552 0.4606 1.01031 0.0
H1427 H 0.43262 0.48996 1.0085 0.0
H1428 H 0.43832 0.58814 1.00218 0.0
H1429 H 0.44952 0.54235 0.99654 0.0
H1430 H 0.27137 0.55581 0.10889 0.0
H1431 H 0.28231 0.51001 0.12272 0.0
H1432 H 0.27523 0.59532 0.03391 0.0
H1433 H 0.30776 0.62433 0.99842 0.0
C1434 C 0.57143 0.62872 0.97567 0.0
C1435 C 0.58027 0.64102 0.04108 0.0
C1436 C 0.52278 0.68003 0.03227 0.0
C1437 C 0.51387 0.66637 0.96658 0.0
N1438 N 0.54743 0.64918 0.86965 0.0
N1439 N 0.57073 0.69271 0.11416 0.0
C1440 C 0.54277 0.64601 0.9366 0.0
C1441 C 0.55741 0.67049 0.0649 0.0
N1442 N 0.5898 0.59996 0.94917 0.0
N1443 N 0.49927 0.70328 0.06388 0.0
H1444 H 0.59603 0.68801 0.13655 0.0
H1445 H 0.55881 0.71775 0.12705 0.0
H1446 H 0.47781 0.71606 0.03921 0.0
H1447 H 0.50139 0.7097 0.11474 0.0
H1448 H 0.57851 0.58595 0.90899 0.0
H1449 H 0.61342 0.58868 0.96992 0.0
H1450 H 0.57147 0.64026 0.84687 0.0
H1451 H 0.5304 0.66574 0.84051 0.0
C1452 C 0.60954 0.488 0.04456 0.0
C1453 C 0.6409 0.49215 0.0874 0.0
C1454 C 0.65202 0.42415 0.0696 0.0
C1455 C 0.62075 0.42031 0.0259 0.0
N1456 N 0.56334 0.44838 0.99385 0.0
N1457 N 0.68662 0.46054 0.15224 0.0
C1458 C 0.59787 0.45229 0.02008 0.0
C1459 C 0.66064 0.45911 0.10276 0.0
N1460 N 0.59092 0.51859 0.02471 0.0
N1461 N 0.67403 0.39447 0.07966 0.0
H1462 H 0.69256 0.48439 0.17922 0.0
H1463 H 0.69989 0.43767 0.17158 0.0
H1464 H 0.66809 0.36867 0.06017 0.0
H1465 H 0.69954 0.39564 0.10319 0.0
H1466 H 0.57131 0.51861 0.98668 0.0
H1467 H 0.59698 0.54481 0.04201 0.0
H1468 H 0.5438 0.46917 0.99337 0.0
H1469 H 0.55216 0.4231 0.98044 0.0
C1470 C 0.43541 0.38192 0.94504 0.0
C1471 C 0.43009 0.37029 1.01305 0.0
C1472 C 0.49649 0.35582 1.0122 0.0
C1473 C 0.50073 0.35998 0.94243 0.0
N1474 N 0.47196 0.3792 0.84067 0.0
N1475 N 0.45788 0.33191 0.09895 0.0
C1476 C 0.46928 0.37351 0.90812 0.0
C1477 C 0.46108 0.35239 0.04212 0.0
N1478 N 0.40941 0.40282 0.91586 0.0
N1479 N 0.52585 0.36069 0.05274 0.0
H1480 H 0.43289 0.32546 0.12138 0.0
H1481 H 0.48021 0.31764 0.11861 0.0
H1482 H 0.55165 0.36803 0.03491 0.0
H1483 H 0.52248 0.36152 0.10403 0.0
H1484 H 0.41521 0.4162 0.87213 0.0
H1485 H 0.38443 0.40984 0.93717 0.0
H1486 H 0.45024 0.38737 0.81033 0.0
H1487 H 0.49616 0.37411 0.81418 0.0
C1488 C 0.84069 0.43456 0.72165 0.0
C1489 C 0.87432 0.43215 0.75978 0.0
C1490 C 0.88011 0.50024 0.74392 0.0
C1491 C 0.84768 0.50315 0.705 0.0
N1492 N 0.79827 0.47063 0.65135 0.0
N1493 N 0.93206 0.46551 0.7792 0.0
C1494 C 0.82806 0.46952 0.69298 0.0
C1495 C 0.89574 0.46561 0.76174 0.0
N1496 N 0.82153 0.40313 0.70957 0.0
N1497 N 0.89529 0.53132 0.76995 0.0
H1498 H 0.94603 0.4437 0.79933 0.0
H1499 H 0.94979 0.48726 0.7682 0.0
H1500 H 0.88226 0.55651 0.76845 0.0
H1501 H 0.91841 0.53158 0.80045 0.0
H1502 H 0.79517 0.40224 0.68979 0.0
H1503 H 0.83322 0.37742 0.71505 0.0
H1504 H 0.78282 0.44798 0.63653 0.0
H1505 H 0.78941 0.49479 0.62893 0.0
C1506 C 0.49712 0.11883 0.29026 0.0
C1507 C 0.49936 0.1492 0.33593 0.0
C1508 C 0.43031 0.15452 0.31948 0.0
C1509 C 0.42818 0.12252 0.27676 0.0
N1510 N 0.46205 0.0682 0.24318 0.0
N1511 N 0.46435 0.19182 0.40183 0.0
C1512 C 0.46232 0.103 0.26931 0.0
C1513 C 0.46478 0.16584 0.35235 0.0
N1514 N 0.52857 0.10609 0.26194 0.0
N1515 N 0.39953 0.17496 0.32834 0.0
H1516 H 0.48819 0.20054 0.42635 0.0
H1517 H 0.44032 0.20231 0.42263 0.0
H1518 H 0.37404 0.16596 0.31201 0.0
H1519 H 0.39954 0.2011 0.3497 0.0
H1520 H 0.52927 0.08664 0.22359 0.0
H1521 H 0.55383 0.11803 0.27158 0.0
H1522 H 0.48519 0.05144 0.24195 0.0
H1523 H 0.43808 0.05377 0.23176 0.0
C1524 C 0.1682 0.55572 0.76874 0.0
C1525 C 0.13898 0.57851 0.74468 0.0
C1526 C 0.13798 0.53659 0.64407 0.0
C1527 C 0.16176 0.51034 0.67481 0.0
N1528 N 0.20709 0.50218 0.7613 0.0
N1529 N 0.09876 0.59062 0.65266 0.0
C1530 C 0.17931 0.52245 0.73499 0.0
C1531 C 0.12483 0.56885 0.68023 0.0
N1532 N 0.1876 0.56714 0.823 0.0
N1533 N 0.13164 0.53292 0.57714 0.0
H1534 H 0.08991 0.61459 0.67588 0.0
H1535 H 0.08509 0.58399 0.60857 0.0
H1536 H 0.14665 0.51411 0.549 0.0
H1537 H 0.11694 0.55147 0.54815 0.0
H1538 H 0.21458 0.5594 0.83294 0.0
H1539 H 0.17836 0.58766 0.85439 0.0
H1540 H 0.2182 0.50547 0.80897 0.0
H1541 H 0.21985 0.4816 0.73506 0.0
C1542 C 0.56406 0.83301 0.26066 0.0
C1543 C 0.58581 0.86477 0.27765 0.0
C1544 C 0.54171 0.8713 0.37435 0.0
C1545 C 0.51487 0.84747 0.34676 0.0
N1546 N 0.50731 0.79795 0.26723 0.0
N1547 N 0.59156 0.91378 0.35785 0.0
C1548 C 0.5282 0.82603 0.29111 0.0
C1549 C 0.57347 0.88359 0.33644 0.0
N1550 N 0.5787 0.8076 0.21815 0.0
N1551 N 0.54053 0.87719 0.44145 0.0
H1552 H 0.61729 0.92103 0.34047 0.0
H1553 H 0.57924 0.93162 0.39149 0.0
H1554 H 0.52208 0.86289 0.47186 0.0
H1555 H 0.56136 0.89068 0.46717 0.0
H1556 H 0.56787 0.78138 0.21066 0.0
H1557 H 0.60362 0.81166 0.19429 0.0
H1558 H 0.51142 0.78519 0.22106 0.0
H1559 H 0.48576 0.78731 0.29445 0.0
C1560 C 0.87991 0.04352 0.5819 0.0
C1561 C 0.84348 0.02723 0.58567 0.0
C1562 C 0.82221 0.08394 0.52419 0.0
C1563 C 0.85851 0.09968 0.52144 0.0
N1564 N 0.92237 0.09258 0.54881 0.0
N1565 N 0.77896 0.04161 0.57756 0.0
C1566 C 0.88703 0.07958 0.55354 0.0
C1567 C 0.81441 0.05034 0.56167 0.0
N1568 N 0.90905 0.02255 0.599 0.0
N1569 N 0.79479 0.10044 0.48878 0.0
H1570 H 0.77224 0.02094 0.61126 0.0
H1571 H 0.75648 0.05782 0.56534 0.0
H1572 H 0.79885 0.12404 0.46047 0.0
H1573 H 0.76883 0.08896 0.4822 0.0
H1574 H 0.93491 0.03197 0.61243 0.0
H1575 H 0.90887 0.99527 0.58526 0.0
H1576 H 0.94585 0.07875 0.56348 0.0
H1577 H 0.92961 0.11691 0.52538 0.0
C1578 C 0.0607 0.16948 0.54916 0.0
C1579 C 0.08211 0.14073 0.51886 0.0
C1580 C 0.0414 0.15022 0.41781 0.0
C1581 C 0.01538 0.17157 0.4542 0.0
N1582 N 0.00672 0.20866 0.55195 0.0
N1583 N 0.09403 0.10871 0.41643 0.0
C1584 C 0.02699 0.18306 0.51919 0.0
C1585 C 0.07272 0.13273 0.45072 0.0
N1586 N 0.07502 0.18743 0.60304 0.0
N1587 N 0.03736 0.14896 0.34992 0.0
H1588 H 0.11853 0.09863 0.43565 0.0
H1589 H 0.08667 0.09835 0.36996 0.0
H1590 H 0.01741 0.16438 0.32513 0.0
H1591 H 0.0523 0.13205 0.31845 0.0
H1592 H 0.0651 0.21239 0.62099 0.0
H1593 H 0.09975 0.17974 0.62423 0.0
H1594 H 0.00855 0.21361 0.60333 0.0
H1595 H 0.98939 0.226 0.52564 0.0
C1596 C 0.15291 0.92379 0.56048 0.0
C1597 C 0.11928 0.92048 0.52331 0.0
C1598 C 0.10727 0.98685 0.55231 0.0
C1599 C 0.14267 0.99114 0.58252 0.0
N1600 N 0.1987 0.96279 0.61775 0.0
N1601 N 0.06017 0.94706 0.50345 0.0
C1602 C 0.16518 0.95914 0.58741 0.0
C1603 C 0.09524 0.95159 0.52605 0.0
N1604 N 0.17296 0.89291 0.57156 0.0
N1605 N 0.08552 0.01727 0.54619 0.0
H1606 H 0.04857 0.92101 0.49846 0.0
H1607 H 0.04167 0.96803 0.49404 0.0
H1608 H 0.0941 0.04336 0.56109 0.0
H1609 H 0.05943 0.01772 0.52515 0.0
H1610 H 0.19972 0.89268 0.58956 0.0
H1611 H 0.16281 0.86664 0.56302 0.0
H1612 H 0.21857 0.94244 0.62002 0.0
H1613 H 0.20726 0.98729 0.64019 0.0
C1614 C 0.97183 0.8956 0.43518 0.0
C1615 C 0.99171 0.86264 0.44938 0.0
C1616 C 0.94078 0.85075 0.53324 0.0
C1617 C 0.9204 0.88243 0.51441 0.0
N1618 N 0.91195 0.92137 0.42018 0.0
N1619 N 0.98699 0.8058 0.51365 0.0
C1620 C 0.93458 0.90067 0.45751 0.0
C1621 C 0.97336 0.8392 0.49765 0.0
N1622 N 0.98883 0.92438 0.40534 0.0
N1623 N 0.9303 0.8317 0.58832 0.0
H1624 H 0.0144 0.80151 0.52378 0.0
H1625 H 0.96999 0.78378 0.52651 0.0
H1626 H 0.90901 0.84052 0.61794 0.0
H1627 H 0.94223 0.80763 0.60556 0.0
H1628 H 0.97601 0.94955 0.39706 0.0
H1629 H 0.017 0.92538 0.40256 0.0
H1630 H 0.92084 0.93176 0.37457 0.0
H1631 H 0.88445 0.92477 0.43232 0.0
C1632 C 0.3531 0.23269 0.10489 0.0
C1633 C 0.34281 0.21325 0.16394 0.0
C1634 C 0.34351 0.27388 0.22432 0.0
C1635 C 0.35464 0.29215 0.16498 0.0
N1636 N 0.38102 0.28579 0.05473 0.0
N1637 N 0.32863 0.21761 0.28324 0.0
C1638 C 0.36396 0.27025 0.10837 0.0
C1639 C 0.33819 0.23446 0.22472 0.0
N1640 N 0.34827 0.21688 0.04317 0.0
N1641 N 0.3374 0.29456 0.28047 0.0
H1642 H 0.31883 0.19102 0.28692 0.0
H1643 H 0.33123 0.22963 0.33034 0.0
H1644 H 0.3437 0.3225 0.2829 0.0
H1645 H 0.32552 0.28483 0.32432 0.0
H1646 H 0.35189 0.23097 0.99826 0.0
H1647 H 0.33489 0.19194 0.03603 0.0
H1648 H 0.39318 0.27045 0.0165 0.0
H1649 H 0.3845 0.31382 0.05051 0.0
C1650 C 0.27498 0.63955 0.82278 0.0
C1651 C 0.29247 0.66552 0.86574 0.0
C1652 C 0.23564 0.66964 0.9283 0.0
C1653 C 0.21497 0.65034 0.88085 0.0
N1654 N 0.21866 0.62475 0.76673 0.0
N1655 N 0.27017 0.72289 0.90561 0.0
C1656 C 0.23568 0.63624 0.82401 0.0
C1657 C 0.26874 0.68573 0.9069 0.0
N1658 N 0.29427 0.62206 0.77411 0.0
N1659 N 0.22489 0.67227 0.99318 0.0
H1660 H 0.29142 0.73758 0.88257 0.0
H1661 H 0.29142 0.73758 0.88257 0.0
H1662 H 0.1993 0.66419 1.01072 0.0
H1663 H 0.24454 0.67479 0.03065 0.0
H1664 H 0.2845 0.5983 0.75065 0.0
H1665 H 0.3189 0.6324 0.75609 0.0
H1666 H 0.23234 0.61777 0.72264 0.0
H1667 H 0.19079 0.6275 0.75955 0.0
C1668 C 0.66815 0.77114 0.22773 0.0
C1669 C 0.6706 0.78991 0.16503 0.0
C1670 C 0.66245 0.72982 0.10905 0.0
C1671 C 0.66588 0.71001 0.17109 0.0
N1672 N 0.68024 0.71572 0.28995 0.0
N1673 N 0.68008 0.78306 0.0456 0.0
C1674 C 0.67105 0.73173 0.23054 0.0
C1675 C 0.67078 0.76805 0.1059 0.0
N1676 N 0.66097 0.7904 0.28508 0.0
N1677 N 0.64938 0.71319 0.05227 0.0
H1678 H 0.68668 0.81051 0.03928 0.0
H1679 H 0.68517 0.76724 1.00291 0.0
H1680 H 0.64031 0.68632 0.04986 0.0
H1681 H 0.64256 0.72774 1.00909 0.0
H1682 H 0.65481 0.77772 0.3305 0.0
H1683 H 0.65656 0.81858 0.28598 0.0
H1684 H 0.68891 0.7309 0.33152 0.0
H1685 H 0.6828 0.68769 0.29702 0.0
C1686 C 0.77369 0.29476 0.91576 0.0
C1687 C 0.7943 0.3263 0.93705 0.0
C1688 C 0.73459 0.35932 0.94477 0.0
C1689 C 0.71574 0.32998 0.91142 0.0
N1690 N 0.71973 0.27025 0.86097 0.0
N1691 N 0.78908 0.38074 1.00459 0.0
C1692 C 0.73612 0.29812 0.89577 0.0
C1693 C 0.77322 0.35666 0.96055 0.0
N1694 N 0.78872 0.26062 0.91451 0.0
N1695 N 0.71575 0.39051 0.95951 0.0
H1696 H 0.81456 0.37551 0.02631 0.0
H1697 H 0.77527 0.40229 0.02776 0.0
H1698 H 0.68772 0.39279 0.9504 0.0
H1699 H 0.72797 0.41478 0.97619 0.0
H1700 H 0.81456 0.25438 0.93389 0.0
H1701 H 0.81456 0.25438 0.93389 0.0
H1702 H 0.69339 0.27211 0.84069 0.0
H1703 H 0.73257 0.24504 0.853 0.0
C1704 C 0.84966 0.74267 0.596 0.0
C1705 C 0.84482 0.72271 0.65581 0.0
C1706 C 0.83538 0.78163 0.71533 0.0
C1707 C 0.84284 0.80159 0.65588 0.0
N1708 N 0.87068 0.79743 0.54488 0.0
N1709 N 0.84102 0.72536 0.77779 0.0
C1710 C 0.85488 0.78103 0.59861 0.0
C1711 C 0.83957 0.74273 0.71708 0.0
N1712 N 0.84515 0.72603 0.53513 0.0
N1713 N 0.82516 0.79997 0.7715 0.0
H1714 H 0.84833 0.69806 0.78386 0.0
H1715 H 0.84074 0.73894 0.82378 0.0
H1716 H 0.82876 0.82804 0.77547 0.0
H1717 H 0.81282 0.78751 0.81271 0.0
H1718 H 0.84821 0.73946 0.4894 0.0
H1719 H 0.83078 0.70156 0.53033 0.0
H1720 H 0.88518 0.78302 0.50814 0.0
H1721 H 0.87017 0.82547 0.53816 0.0
C1722 C 0.77558 0.16869 0.30625 0.0
C1723 C 0.79505 0.19642 0.34044 0.0
C1724 C 0.73527 0.21894 0.38341 0.0
C1725 C 0.7176 0.18566 0.36345 0.0
N1726 N 0.72367 0.1279 0.30478 0.0
N1727 N 0.7868 0.25982 0.37329 0.0
C1728 C 0.73858 0.16042 0.32432 0.0
C1729 C 0.77321 0.22515 0.36751 0.0
N1730 N 0.79023 0.15459 0.24902 0.0
N1731 N 0.71513 0.24674 0.411 0.0
H1732 H 0.81252 0.2677 0.35512 0.0
H1733 H 0.81252 0.2677 0.35512 0.0
H1734 H 0.72596 0.27295 0.41927 0.0
H1735 H 0.68702 0.24487 0.41969 0.0
H1736 H 0.77555 0.13728 0.2168 0.0
H1737 H 0.81566 0.16356 0.23083 0.0
H1738 H 0.73898 0.10725 0.28173 0.0
H1739 H 0.69674 0.12091 0.31596 0.0
C1740 C 0.1745 0.26861 0.70847 0.0
C1741 C 0.17112 0.28929 0.64676 0.0
C1742 C 0.16174 0.23045 0.58791 0.0
C1743 C 0.16844 0.20983 0.64747 0.0
N1744 N 0.19267 0.21198 0.76086 0.0
N1745 N 0.18077 0.28332 0.52613 0.0
C1746 C 0.17809 0.22958 0.70653 0.0
C1747 C 0.17009 0.2685 0.58599 0.0
N1748 N 0.17427 0.28496 0.77036 0.0
N1749 N 0.14747 0.21428 0.5318 0.0
H1750 H 0.19426 0.30833 0.52133 0.0
H1751 H 0.18268 0.2678 0.48221 0.0
H1752 H 0.14089 0.18672 0.5284 0.0
H1753 H 0.13847 0.22946 0.4907 0.0
H1754 H 0.17092 0.27004 0.81448 0.0
H1755 H 0.17259 0.31269 0.78042 0.0
H1756 H 0.20659 0.2259 0.79906 0.0
H1757 H 0.19441 0.18376 0.76643 0.0
C1758 C 0.26958 0.80265 0.39764 0.0
C1759 C 0.29 0.83147 0.42681 0.0
C1760 C 0.23161 0.86559 0.43323 0.0
C1761 C 0.21433 0.84026 0.38801 0.0
N1762 N 0.21951 0.78428 0.32562 0.0
N1763 N 0.28207 0.87907 0.50973 0.0
C1764 C 0.23486 0.80943 0.36775 0.0
C1765 C 0.26895 0.86045 0.45506 0.0
N1766 N 0.27927 0.76748 0.41029 0.0
N1767 N 0.21215 0.89482 0.45545 0.0
H1768 H 0.30557 0.87113 0.5355 0.0
H1769 H 0.26732 0.89879 0.53616 0.0
H1770 H 0.1845 0.89774 0.44407 0.0
H1771 H 0.22371 0.91712 0.48071 0.0
H1772 H 0.30256 0.76075 0.43827 0.0
H1773 H 0.30256 0.76075 0.43827 0.0
H1774 H 0.23056 0.75837 0.31883 0.0
H1775 H 0.19415 0.78828 0.30274 0.0
C1776 C 0.26911 0.10961 0.83686 0.0
C1777 C 0.24353 0.08316 0.81098 0.0
C1778 C 0.25514 0.05113 0.92432 0.0
C1779 C 0.27447 0.08183 0.95473 0.0
N1780 N 0.29517 0.14361 0.93039 0.0
N1781 N 0.21213 0.02715 0.83883 0.0
C1782 C 0.27959 0.11189 0.90797 0.0
C1783 C 0.2365 0.05368 0.8579 0.0
N1784 N 0.2875 0.13038 0.79153 0.0
N1785 N 0.25462 0.01883 0.95857 0.0
H1786 H 0.20127 0.02618 0.79042 0.0
H1787 H 0.20176 0.00743 0.87155 0.0
H1788 H 0.26706 0.01614 1.00545 0.0
H1789 H 0.24453 0.99438 0.93832 0.0
H1790 H 0.30835 0.14888 0.80435 0.0
H1791 H 0.28665 0.12306 0.74108 0.0
H1792 H 0.29542 0.16778 0.90248 0.0
H1793 H 0.30579 0.14616 0.97816 0.0
C1794 C 0.13047 0.74771 0.08518 0.0
C1795 C 0.09704 0.73315 0.05678 0.0
C1796 C 0.06677 0.75544 0.16632 0.0
C1797 C 0.10011 0.77129 0.19357 0.0
N1798 N 0.16243 0.78794 0.16479 0.0
N1799 N 0.03152 0.73009 0.0711 0.0
C1800 C 0.1313 0.76887 0.14849 0.0
C1801 C 0.06492 0.73863 0.09849 0.0
N1802 N 0.16268 0.73992 0.05316 0.0
N1803 N 0.0359 0.75711 0.20508 0.0
H1804 H 0.02865 0.72014 0.02232 0.0
H1805 H 0.00641 0.73622 0.0933 0.0
H1806 H 0.03525 0.77123 0.25066 0.0
H1807 H 0.01189 0.74247 0.19504 0.0
H1808 H 0.1884 0.74469 0.07436 0.0
H1809 H 0.16381 0.72557 1.00795 0.0
H1810 H 0.18419 0.79209 0.1317 0.0
H1811 H 0.16534 0.80251 0.2093 0.0
C1812 C 0.74164 0.95574 0.92072 0.0
C1813 C 0.73419 0.92296 0.9596 0.0
C1814 C 0.76048 0.88887 0.85783 0.0
C1815 C 0.76698 0.92111 0.81784 0.0
N1816 N 0.75872 0.9862 0.8142 0.0
N1817 N 0.73281 0.85721 0.95303 0.0
C1818 C 0.75592 0.9547 0.85066 0.0
C1819 C 0.74262 0.88951 0.92398 0.0
N1820 N 0.73648 0.98865 0.95216 0.0
N1821 N 0.77187 0.85633 0.83223 0.0
H1822 H 0.723 0.85641 1.00151 0.0
H1823 H 0.73189 0.83201 0.92821 0.0
H1824 H 0.7786 0.85404 0.78181 0.0
H1825 H 0.77456 0.83244 0.86024 0.0
H1826 H 0.74424 0.01387 0.93224 0.0
H1827 H 0.72685 0.99041 1.00128 0.0
H1828 H 0.74836 0.01144 0.82955 0.0
H1829 H 0.76919 0.9863 0.76548 0.0
C1830 C 0.88693 0.26529 0.10229 0.0
C1831 C 0.92036 0.27677 0.06889 0.0
C1832 C 0.95203 0.2565 0.17936 0.0
C1833 C 0.91852 0.24534 0.21268 0.0
N1834 N 0.85374 0.23662 0.19609 0.0
N1835 N 0.98513 0.28598 0.08555 0.0
C1836 C 0.88619 0.24921 0.17065 0.0
C1837 C 0.95277 0.27299 0.11091 0.0
N1838 N 0.85465 0.27185 0.06979 0.0
N1839 N 0.98413 0.24982 0.21246 0.0
H1840 H 0.98765 0.29491 0.03614 0.0
H1841 H 0.00896 0.28955 0.11374 0.0
H1842 H 0.98459 0.23953 0.26122 0.0
H1843 H 0.01007 0.25227 0.19094 0.0
H1844 H 0.82877 0.26989 0.09166 0.0
H1845 H 0.85401 0.2817 0.02106 0.0
H1846 H 0.82998 0.2324 0.16799 0.0
H1847 H 0.85113 0.22882 0.24586 0.0
C1848 C 0.25375 0.43784 0.33658 0.0
C1849 C 0.26706 0.4044 0.30632 0.0
C1850 C 0.25427 0.37525 0.42109 0.0
C1851 C 0.23998 0.4084 0.45107 0.0
N1852 N 0.22585 0.4719 0.43013 0.0
N1853 N 0.27129 0.33951 0.32093 0.0
C1854 C 0.23959 0.43957 0.40606 0.0
C1855 C 0.26498 0.37289 0.34963 0.0
N1856 N 0.25496 0.46886 0.29846 0.0
N1857 N 0.25835 0.34538 0.46135 0.0
H1858 H 0.27752 0.3369 0.27005 0.0
H1859 H 0.26589 0.31463 0.34457 0.0
H1860 H 0.25068 0.34566 0.51154 0.0
H1861 H 0.2721 0.32161 0.44698 0.0
H1862 H 0.25089 0.49531 0.31673 0.0
H1863 H 0.26196 0.46821 0.24779 0.0
H1864 H 0.21849 0.494 0.40022 0.0
H1865 H 0.22119 0.47665 0.48095 0.0
C1866 C 0.38266 0.75044 0.69195 0.0
C1867 C 0.41618 0.74088 0.7267 0.0
C1868 C 0.44876 0.76485 0.62071 0.0
C1869 C 0.41555 0.77683 0.5883 0.0
N1870 N 0.3502 0.7825 0.60087 0.0
N1871 N 0.48223 0.74492 0.72117 0.0
C1872 C 0.38249 0.76979 0.62655 0.0
C1873 C 0.4493 0.74959 0.68942 0.0
N1874 N 0.35022 0.73936 0.71984 0.0
N1875 N 0.48049 0.7667 0.58432 0.0
H1876 H 0.48433 0.73493 0.7699 0.0
H1877 H 0.50719 0.75443 0.70242 0.0
H1878 H 0.48136 0.77758 0.53602 0.0
H1879 H 0.50507 0.7546 0.59904 0.0
H1880 H 0.32502 0.74042 0.6952 0.0
H1881 H 0.34886 0.72629 0.76615 0.0
H1882 H 0.3256 0.78318 0.62747 0.0
H1883 H 0.34859 0.7947 0.55377 0.0
C1884 C 0.74817 0.62301 0.36266 0.0
C1885 C 0.73451 0.58945 0.33301 0.0
C1886 C 0.75478 0.5587 0.44159 0.0
C1887 C 0.76653 0.59255 0.47205 0.0
N1888 N 0.76738 0.6582 0.46105 0.0
N1889 N 0.72419 0.52463 0.35159 0.0
C1890 C 0.76111 0.62483 0.43207 0.0
C1891 C 0.73728 0.5574 0.3753 0.0
N1892 N 0.74943 0.65393 0.32444 0.0
N1893 N 0.76151 0.52688 0.47545 0.0
H1894 H 0.71823 0.51984 0.30131 0.0
H1895 H 0.71873 0.50213 0.3821 0.0
H1896 H 0.77111 0.52655 0.52468 0.0
H1897 H 0.75945 0.50083 0.45408 0.0
H1898 H 0.76462 0.67726 0.3372 0.0
H1899 H 0.73677 0.65585 0.27813 0.0
H1900 H 0.75973 0.68315 0.43998 0.0
H1901 H 0.77745 0.66061 0.50934 0.0
C1902 C 0.62789 0.24932 0.59453 0.0
C1903 C 0.59405 0.2433 0.55799 0.0
C1904 C 0.56265 0.26109 0.66856 0.0
C1905 C 0.59655 0.26915 0.70335 0.0
N1906 N 0.66163 0.27644 0.68912 0.0
N1907 N 0.52837 0.24791 0.56466 0.0
C1908 C 0.62901 0.26452 0.66311 0.0
C1909 C 0.56139 0.25035 0.597 0.0
N1910 N 0.65984 0.23919 0.56462 0.0
N1911 N 0.53094 0.26252 0.70511 0.0
H1912 H 0.52612 0.23989 0.51458 0.0
H1913 H 0.50358 0.25667 0.58505 0.0
H1914 H 0.5306 0.27013 0.75559 0.0
H1915 H 0.50555 0.25326 0.68778 0.0
H1916 H 0.68451 0.23623 0.59056 0.0
H1917 H 0.66061 0.23088 0.51494 0.0
H1918 H 0.68546 0.27925 0.66061 0.0
H1919 H 0.66396 0.28641 0.73795 0.0
C1920 C 0.3778 0.04083 0.62934 0.0
C1921 C 0.33857 0.03911 0.62582 0.0
C1922 C 0.34168 0.04241 0.74978 0.0
C1923 C 0.37734 0.05826 0.74445 0.0
N1924 N 0.42491 0.08097 0.67029 0.0
N1925 N 0.28486 0.02627 0.69381 0.0
C1926 C 0.39401 0.06046 0.68145 0.0
C1927 C 0.32076 0.0364 0.68968 0.0
N1928 N 0.3995 0.0222 0.58594 0.0
N1929 N 0.32878 0.03153 0.8109 0.0
H1930 H 0.27049 0.01503 0.65424 0.0
H1931 H 0.26985 0.02657 0.738 0.0
H1932 H 0.34405 0.03456 0.85486 0.0
H1933 H 0.30494 0.01602 0.81725 0.0
H1934 H 0.42819 0.0231 0.58789 0.0
H1935 H 0.42819 0.0231 0.58789 0.0
H1936 H 0.4365 0.08327 0.62263 0.0
H1937 H 0.43618 0.09857 0.70633 0.0
C1938 C 0.06587 0.63152 0.36338 0.0
C1939 C 0.08892 0.66306 0.3844 0.0
C1940 C 0.12484 0.64714 0.28461 0.0
C1941 C 0.11433 0.60963 0.29138 0.0
N1942 N 0.06949 0.56682 0.33607 0.0
N1943 N 0.0901 0.70154 0.28398 0.0
C1944 C 0.08347 0.60157 0.33186 0.0
C1945 C 0.10362 0.67284 0.31876 0.0
N1946 N 0.02917 0.63089 0.37595 0.0
N1947 N 0.14921 0.65922 0.23789 0.0
H1948 H 0.06845 0.71723 0.30256 0.0
H1949 H 0.06845 0.71723 0.30256 0.0
H1950 H 0.16501 0.6415 0.20851 0.0
H1951 H 0.16501 0.6415 0.20851 0.0
H1952 H 0.01163 0.6098 0.36016 0.0
H1953 H 0.01163 0.6098 0.36016 0.0
H1954 H 0.04762 0.56026 0.3677 0.0
H1955 H 0.08184 0.54442 0.31247 0.0
C1956 C 0.61766 0.90179 0.64352 0.0
C1957 C 0.65609 0.90941 0.63443 0.0
C1958 C 0.66979 0.86521 0.72014 0.0
C1959 C 0.63262 0.85432 0.72409 0.0
N1960 N 0.56999 0.86311 0.68896 0.0
N1961 N 0.70539 0.9195 0.71155 0.0
C1962 C 0.60636 0.872 0.68377 0.0
C1963 C 0.67868 0.89758 0.68641 0.0
N1964 N 0.59136 0.92694 0.62904 0.0
N1965 N 0.69637 0.84627 0.75246 0.0
H1966 H 0.70943 0.94643 0.69537 0.0
H1967 H 0.70943 0.94643 0.69537 0.0
H1968 H 0.69083 0.82259 0.78018 0.0
H1969 H 0.72371 0.85244 0.74261 0.0
H1970 H 0.59684 0.95366 0.6134 0.0
H1971 H 0.59684 0.95366 0.6134 0.0
H1972 H 0.5498 0.8762 0.66058 0.0
H1973 H 0.56068 0.84171 0.71931 0.0
C1974 C 0.90605 0.36789 0.29672 0.0
C1975 C 0.89835 0.40591 0.30102 0.0
C1976 C 0.86428 0.39638 0.40296 0.0
C1977 C 0.87707 0.35943 0.4032 0.0
N1978 N 0.88675 0.30781 0.33271 0.0
N1979 N 0.8685 0.4573 0.35351 0.0
C1980 C 0.89115 0.34422 0.34475 0.0
C1981 C 0.87649 0.42058 0.35248 0.0
N1982 N 0.92873 0.35545 0.24735 0.0
N1983 N 0.83943 0.40669 0.4501 0.0
H1984 H 0.87581 0.47506 0.31477 0.0
H1985 H 0.85658 0.47091 0.39387 0.0
H1986 H 0.82662 0.43221 0.45276 0.0
H1987 H 0.82662 0.43221 0.45276 0.0
H1988 H 0.93784 0.32836 0.24393 0.0
H1989 H 0.93784 0.32836 0.24393 0.0
H1990 H 0.874 0.29057 0.36731 0.0
H1991 H 0.89011 0.29692 0.28503 0.0
C1992 C 0.40991 0.45244 0.57555 0.0
C1993 C 0.38803 0.47153 0.52908 0.0
C1994 C 0.33211 0.45666 0.59027 0.0
C1995 C 0.35382 0.44071 0.641 0.0
N1996 N 0.41234 0.41778 0.67809 0.0
N1997 N 0.3311 0.49219 0.48658 0.0
C1998 C 0.39287 0.43771 0.63266 0.0
C1999 C 0.34967 0.47444 0.53601 0.0
N2000 N 0.44587 0.4447 0.56057 0.0
N2001 N 0.29524 0.45063 0.59213 0.0
H2002 H 0.30305 0.49789 0.48663 0.0
H2003 H 0.30305 0.49789 0.48663 0.0
H2004 H 0.27642 0.45944 0.55644 0.0
H2005 H 0.27642 0.45944 0.55644 0.0
H2006 H 0.46123 0.4242 0.5832 0.0
H2007 H 0.46019 0.45669 0.52103 0.0
H2008 H 0.44087 0.41569 0.68068 0.0
H2009 H 0.44087 0.41569 0.68068 0.0
C2010 C 0.38557 0.63313 0.43159 0.0
C2011 C 0.37533 0.66698 0.39569 0.0
C2012 C 0.32629 0.66781 0.48414 0.0
C2013 C 0.32934 0.62944 0.49288 0.0
N2014 N 0.35886 0.57429 0.45349 0.0
N2015 N 0.3735 0.71114 0.48844 0.0
C2016 C 0.35708 0.6114 0.45693 0.0
C2017 C 0.35561 0.68564 0.4509 0.0
N2018 N 0.42113 0.62213 0.43796 0.0
N2019 N 0.30278 0.68747 0.52309 0.0
H2020 H 0.40129 0.71707 0.48128 0.0
H2021 H 0.40129 0.71707 0.48128 0.0
H2022 H 0.28268 0.67458 0.55223 0.0
H2023 H 0.30363 0.71612 0.52458 0.0
H2024 H 0.42884 0.59851 0.46388 0.0
H2025 H 0.42884 0.59851 0.46388 0.0
H2026 H 0.37916 0.5611 0.42551 0.0
H2027 H 0.33724 0.55823 0.4706 0.0
C2028 C 0.61901 0.62025 0.6799 0.0
C2029 C 0.65654 0.60931 0.68463 0.0
C2030 C 0.64686 0.5639 0.59786 0.0
C2031 C 0.6102 0.57572 0.59028 0.0
N2032 N 0.56231 0.61904 0.61466 0.0
N2033 N 0.70655 0.58864 0.61831 0.0
C2034 C 0.59624 0.605 0.62903 0.0
C2035 C 0.67073 0.58601 0.63512 0.0
N2036 N 0.60632 0.64566 0.72399 0.0
N2037 N 0.65952 0.53362 0.56467 0.0
H2038 H 0.71828 0.57347 0.57954 0.0
H2039 H 0.72174 0.61011 0.63881 0.0
H2040 H 0.64234 0.51699 0.53542 0.0
H2041 H 0.68612 0.52362 0.57154 0.0
H2042 H 0.57931 0.65495 0.72672 0.0
H2043 H 0.57931 0.65495 0.72672 0.0
H2044 H 0.55218 0.64352 0.63413 0.0
H2045 H 0.54465 0.60696 0.57965 0.0
C2046 C 0.59032 0.35259 0.4664 0.0
C2047 C 0.58703 0.39144 0.46519 0.0
C2048 C 0.55121 0.38585 0.36376 0.0
C2049 C 0.55652 0.34729 0.36217 0.0
N2050 N 0.56157 0.29619 0.43802 0.0
N2051 N 0.57809 0.44409 0.3965 0.0
C2052 C 0.56888 0.33151 0.42228 0.0
C2053 C 0.57268 0.40762 0.40734 0.0
N2054 N 0.61791 0.33571 0.50031 0.0
N2055 N 0.52164 0.40028 0.33194 0.0
H2056 H 0.59474 0.45984 0.42837 0.0
H2057 H 0.56814 0.45732 0.3543 0.0
H2058 H 0.51388 0.42777 0.33611 0.0
H2059 H 0.51388 0.42777 0.33611 0.0
H2060 H 0.62097 0.30724 0.49921 0.0
H2061 H 0.64147 0.34995 0.51506 0.0
H2062 H 0.54401 0.27943 0.4101 0.0
H2063 H 0.54401 0.27943 0.4101 0.0
C2064 C 0.82428 0.57173 0.20531 0.0
C2065 C 0.84071 0.57897 0.13895 0.0
C2066 C 0.89699 0.59442 0.19759 0.0
C2067 C 0.87635 0.60609 0.25351 0.0
N2068 N 0.83155 0.57793 0.32662 0.0
N2069 N 0.89642 0.53981 0.12938 0.0
C2070 C 0.8421 0.5872 0.26347 0.0
C2071 C 0.879 0.56947 0.15574 0.0
N2072 N 0.7995 0.54369 0.21241 0.0
N2073 N 0.92861 0.61066 0.17609 0.0
H2074 H 0.92389 0.53412 0.14032 0.0
H2075 H 0.92389 0.53412 0.14032 0.0
H2076 H 0.93703 0.63654 0.19266 0.0
H2077 H 0.94218 0.601 0.13339 0.0
H2078 H 0.78605 0.5372 0.25672 0.0
H2079 H 0.79548 0.52417 0.1747 0.0
H2080 H 0.80737 0.56428 0.33803 0.0
H2081 H 0.84931 0.58101 0.36711 0.0
C2082 C 0.64212 0.16671 0.78383 0.0
C2083 C 0.64412 0.12741 0.78189 0.0
C2084 C 0.58798 0.12878 0.84611 0.0
C2085 C 0.60182 0.16194 0.88023 0.0
N2086 N 0.59055 0.20536 0.79046 0.0
N2087 N 0.60916 0.07112 0.79927 0.0
C2088 C 0.61359 0.18178 0.82125 0.0
C2089 C 0.61379 0.10789 0.80925 0.0
N2090 N 0.66254 0.18963 0.74505 0.0
N2091 N 0.55192 0.11908 0.85087 0.0
H2092 H 0.62796 0.05543 0.77205 0.0
H2093 H 0.58811 0.05636 0.82256 0.0
H2094 H 0.5406 0.09673 0.82518 0.0
H2095 H 0.5406 0.09673 0.82518 0.0
H2096 H 0.68372 0.18087 0.71374 0.0
H2097 H 0.68372 0.18087 0.71374 0.0
H2098 H 0.56498 0.21229 0.8106 0.0
H2099 H 0.56498 0.21229 0.8106 0.0
C2100 C 0.10302 0.38058 0.15478 0.0
C2101 C 0.12199 0.36158 0.20565 0.0
C2102 C 0.17757 0.39512 0.17584 0.0
C2103 C 0.16036 0.4106 0.1203 0.0
N2104 N 0.10138 0.44063 0.10941 0.0
N2105 N 0.18098 0.34419 0.25105 0.0
C2106 C 0.12116 0.40976 0.12228 0.0
C2107 C 0.16077 0.36584 0.20974 0.0
N2108 N 0.06736 0.37276 0.13924 0.0
N2109 N 0.20802 0.41078 0.20165 0.0
H2110 H 0.16915 0.32234 0.27724 0.0
H2111 H 0.20944 0.34709 0.25434 0.0
H2112 H 0.21876 0.43524 0.18278 0.0
H2113 H 0.21876 0.43524 0.18278 0.0
H2114 H 0.05398 0.38569 0.09953 0.0
H2115 H 0.05293 0.35087 0.15968 0.0
H2116 H 0.07321 0.44227 0.11893 0.0
H2117 H 0.11347 0.46579 0.09911 0.0
C2118 C 0.40342 0.88718 0.91642 0.0
C2119 C 0.41484 0.84986 0.92268 0.0
C2120 C 0.45115 0.85695 0.82039 0.0
C2121 C 0.43722 0.89264 0.81211 0.0
N2122 N 0.39186 0.93805 0.84153 0.0
N2123 N 0.43386 0.7977 0.85939 0.0
C2124 C 0.41101 0.90694 0.85715 0.0
C2125 C 0.43481 0.83427 0.86899 0.0
N2126 N 0.38551 0.90329 0.96824 0.0
N2127 N 0.47815 0.84395 0.7792 0.0
H2128 H 0.4152 0.78257 0.88694 0.0
H2129 H 0.44767 0.78444 0.82087 0.0
H2130 H 0.48986 0.85986 0.74132 0.0
H2131 H 0.49101 0.81877 0.78703 0.0
H2132 H 0.37792 0.93084 0.97062 0.0
H2133 H 0.37792 0.93084 0.97062 0.0
H2134 H 0.36833 0.94635 0.86712 0.0
H2135 H 0.39766 0.95422 0.79975 0.0
C2136 C 0.82619 0.93426 0.09367 0.0
C2137 C 0.84392 0.94461 0.1539 0.0
C2138 C 0.90318 0.93787 0.09438 0.0
C2139 C 0.8845 0.9214 0.04033 0.0
N2140 N 0.82806 0.89846 0.99318 0.0
N2141 N 0.89829 0.97657 0.19049 0.0
C2142 C 0.84608 0.91772 0.04175 0.0
C2143 C 0.88275 0.95125 0.14924 0.0
N2144 N 0.79099 0.94342 0.08087 0.0
N2145 N 0.94055 0.94128 0.09356 0.0
H2146 H 0.92491 0.98712 0.18659 0.0
H2147 H 0.92491 0.98712 0.18659 0.0
H2148 H 0.95622 0.93842 0.05041 0.0
H2149 H 0.9561 0.94491 0.137 0.0
H2150 H 0.77536 0.96029 0.11177 0.0
H2151 H 0.77536 0.96029 0.11177 0.0
H2152 H 0.80027 0.89236 0.99831 0.0
H2153 H 0.8415 0.88552 0.95342 0.0
C2154 C 0.90367 0.15145 0.97981 0.0
C2155 C 0.87688 0.12468 0.99609 0.0
C2156 C 0.84957 0.13351 0.88816 0.0
C2157 C 0.87376 0.16424 0.87534 0.0
N2158 N 0.89749 0.21258 0.9438 0.0
N2159 N 0.81483 0.10293 0.9733 0.0
C2160 C 0.89422 0.17653 0.93062 0.0
C2161 C 0.84624 0.12045 0.95353 0.0
N2162 N 0.93723 0.15378 1.00992 0.0
N2163 N 0.83161 0.11344 0.84129 0.0
H2164 H 0.8099 0.0957 0.02305 0.0
H2165 H 0.79254 0.09932 0.94082 0.0
H2166 H 0.83739 0.1141 0.79067 0.0
H2167 H 0.83739 0.1141 0.79067 0.0
H2168 H 0.956 0.17434 0.99669 0.0
H2169 H 0.94731 0.1334 0.04151 0.0
H2170 H 0.9113 0.2217 0.98647 0.0
H2171 H 0.88117 0.23083 0.91703 0.0
C2172 C 0.15821 0.06639 0.04355 0.0
C2173 C 0.11919 0.06893 0.051 0.0
C2174 C 0.12506 0.04931 0.16403 0.0
C2175 C 0.16411 0.05447 0.16278 0.0
N2176 N 0.21588 0.04907 0.08908 0.0
N2177 N 0.06751 0.072 0.12705 0.0
C2178 C 0.17999 0.05709 0.09909 0.0
C2179 C 0.10377 0.06572 0.11495 0.0
N2180 N 0.17569 0.07393 0.98502 0.0
N2181 N 0.10918 0.02066 0.19704 0.0
H2182 H 0.04982 0.08336 0.09152 0.0
H2183 H 0.04982 0.08336 0.09152 0.0
H2184 H 0.12416 0.99845 0.21434 0.0
H2185 H 0.08073 0.01637 0.19686 0.0
H2186 H 0.20309 0.08197 0.98561 0.0
H2187 H 0.16375 0.07518 0.93828 0.0
H2188 H 0.23301 0.03876 0.12628 0.0
H2189 H 0.23301 0.03876 0.12628 0.0
C2190 C 0.10021 0.82816 0.91603 0.0
C2191 C 0.11235 0.84768 0.86027 0.0
C2192 C 0.10309 0.90465 0.92281 0.0
C2193 C 0.07963 0.88461 0.9665 0.0
N2194 N 0.05726 0.82539 1.00582 0.0
N2195 N 0.13678 0.90387 0.81735 0.0
C2196 C 0.07819 0.84576 0.963 0.0
C2197 C 0.11744 0.8862 0.86596 0.0
N2198 N 0.11288 0.79413 0.92887 0.0
N2199 N 0.11368 0.93975 0.93861 0.0
H2200 H 0.14005 0.93226 0.81388 0.0
H2201 H 0.14005 0.93226 0.81388 0.0
H2202 H 0.10559 0.95291 0.98263 0.0
H2203 H 0.13329 0.95475 0.91231 0.0
H2204 H 0.134 0.78242 0.90064 0.0
H2205 H 0.134 0.78242 0.90064 0.0
H2206 H 0.05632 0.79679 1.00235 0.0
H2207 H 0.03932 0.83704 0.04063 0.0
loop_
_geom_bond_atom_site_label_1
_geom_bond_atom_site_label_2
_geom_bond_distance
_geom_bond_site_symmetry_2
_ccdc_geom_bond_type
Tb0 N29 2.617 . S
Tb0 N35 2.572 . S
Tb0 O44 2.465 1_554 S
Tb0 O45 2.387 . S
Tb0 O47 2.428 1_554 S
Tb0 O48 2.308 . S
Tb0 O52 2.349 . S
Tb0 O55 2.393 . S
Tb0 C64 2.802 1_554 S
C1 N2 1.379 . S
C1 C4 1.416 . S
C1 C8 1.424 . S
N2 C1 1.379 . S
N2 C5 1.334 . S
N2 Tb11 2.617 . S
C3 C5 1.390 . S
C3 C6 1.339 . S
C3 H23 0.930 . S
C4 C1 1.416 . S
C4 C6 1.416 . S
C4 C10 1.448 . S
C5 N2 1.334 . S
C5 C3 1.390 . S
C5 H16 0.930 . S
C6 C3 1.339 . S
C6 C4 1.416 . S
C6 H27 0.930 . S
C7 C8 1.413 . S
C7 C9 1.427 . S
C7 C13 1.416 . S
C8 C1 1.424 . S
C8 C7 1.413 . S
C8 N12 1.361 . S
C9 C7 1.427 . S
C9 C10 1.328 . S
C9 H24 0.929 . S
C10 C4 1.448 . S
C10 C9 1.328 . S
C10 H25 0.930 . S
Tb11 N2 2.617 . S
Tb11 N12 2.572 . S
Tb11 O46 2.349 . S
Tb11 O49 2.393 . S
Tb11 O50 2.465 . S
Tb11 O51 2.387 . S
Tb11 O53 2.428 . S
Tb11 O54 2.308 . S
Tb11 C75 2.802 . S
N12 C8 1.361 . S
N12 Tb11 2.572 . S
N12 C14 1.340 . S
C13 C7 1.416 . S
C13 C15 1.332 . S
C13 H21 0.931 . S
C14 N12 1.340 . S
C14 C15 1.407 . S
C14 H20 0.930 . S
C15 C13 1.332 . S
C15 C14 1.407 . S
C15 H17 0.929 . S
H16 C5 0.930 . S
H17 C15 0.929 . S
H18 C33 0.930 . S
H19 C40 0.929 . S
H20 C14 0.930 . S
H21 C13 0.931 . S
H22 C36 0.930 . S
H23 C3 0.930 . S
H24 C9 0.929 . S
H25 C10 0.930 . S
H26 C31 0.930 . S
H27 C6 0.930 . S
H28 C39 0.931 . S
N29 Tb0 2.617 . S
N29 C30 1.379 . S
N29 C33 1.334 . S
C30 N29 1.379 . S
C30 C32 1.416 . S
C30 C38 1.424 . S
C31 H26 0.930 . S
C31 C33 1.390 1_565 S
C31 C34 1.339 1_565 S
C32 C30 1.416 . S
C32 C34 1.416 . S
C32 C65 1.448 . S
C33 H18 0.930 . S
C33 N29 1.334 . S
C33 C31 1.390 1_545 S
C34 C31 1.339 1_545 S
C34 C32 1.416 . S
C34 H41 0.930 1_545 S
N35 Tb0 2.572 . S
N35 C36 1.340 . S
N35 C38 1.361 . S
C36 H22 0.930 . S
C36 N35 1.340 . S
C36 C40 1.407 . S
C37 C38 1.413 . S
C37 C39 1.416 . S
C37 C66 1.427 . S
C38 C30 1.424 . S
C38 N35 1.361 . S
C38 C37 1.413 . S
C39 H28 0.931 . S
C39 C37 1.416 . S
C39 C40 1.332 . S
C40 H19 0.929 . S
C40 C36 1.407 . S
C40 C39 1.332 . S
H41 C34 0.930 1_565 S
H42 C65 0.930 . S
H43 C66 0.929 . S
O44 Tb0 2.465 1_556 S
O44 C64 1.264 . S
O45 Tb0 2.387 . S
O45 C56 1.264 . S
O46 Tb11 2.349 . S
O46 C56 1.243 . S
O47 Tb0 2.428 1_556 S
O47 C64 1.256 . S
O48 Tb0 2.308 . S
O48 C63 1.266 . S
O49 Tb11 2.393 . S
O49 C63 1.248 . S
O50 Tb11 2.465 . S
O50 C75 1.264 . S
O51 Tb11 2.387 . S
O51 C67 1.264 . S
O52 Tb0 2.349 . S
O52 C67 1.243 . S
O53 Tb11 2.428 . S
O53 C75 1.256 . S
O54 Tb11 2.308 . S
O54 C74 1.266 . S
O55 Tb0 2.393 . S
O55 C74 1.248 . S
C56 O45 1.264 . S
C56 O46 1.243 . S
C57 C60 1.399 . S
C57 C62 1.383 . S
C57 C64 1.496 . S
C58 C59 1.399 . S
C58 C62 1.389 . S
C59 C58 1.399 . S
C59 C61 1.380 . S
C59 H76 0.929 . S
C60 C57 1.399 . S
C60 C61 1.392 . S
C60 H77 0.929 . S
C61 C59 1.380 . S
C61 C60 1.392 . S
C61 H78 0.929 . S
C62 C57 1.383 . S
C62 C58 1.389 . S
C62 H79 0.931 . S
C63 O48 1.266 . S
C63 O49 1.248 . S
C64 Tb0 2.802 1_556 S
C64 O44 1.264 . S
C64 O47 1.256 . S
C64 C57 1.496 . S
C65 C32 1.448 . S
C65 H42 0.930 . S
C65 C66 1.328 . S
C66 C37 1.427 . S
C66 H43 0.929 . S
C66 C65 1.328 . S
C67 O51 1.264 . S
C67 O52 1.243 . S
C68 C71 1.399 . S
C68 C72 1.383 . S
C68 C75 1.496 . S
C69 C70 1.399 . S
C69 C72 1.389 . S
C70 C69 1.399 . S
C70 C73 1.380 . S
C70 H80 0.929 . S
C71 C68 1.399 . S
C71 C73 1.392 . S
C71 H81 0.929 . S
C72 C68 1.383 . S
C72 C69 1.389 . S
C72 H82 0.931 . S
C73 C70 1.380 . S
C73 C71 1.392 . S
C73 H83 0.929 . S
C74 O54 1.266 . S
C74 O55 1.248 . S
C75 Tb11 2.802 . S
C75 O50 1.264 . S
C75 O53 1.256 . S
C75 C68 1.496 . S
H76 C59 0.929 . S
H77 C60 0.929 . S
H78 C61 0.929 . S
H79 C62 0.931 . S
H80 C70 0.929 . S
H81 C71 0.929 . S
H82 C72 0.931 . S
H83 C73 0.929 . S
Tb84 N113 2.617 . S
Tb84 N119 2.572 . S
Tb84 O128 2.465 . S
Tb84 O129 2.387 . S
Tb84 O131 2.428 . S
Tb84 O132 2.308 . S
Tb84 O136 2.349 . S
Tb84 O139 2.393 . S
Tb84 C148 2.802 . S
C85 N86 1.379 . S
C85 C88 1.416 . S
C85 C92 1.424 . S
N86 C85 1.379 . S
N86 C89 1.334 . S
N86 Tb95 2.617 . S
C87 C89 1.390 1_655 S
C87 C90 1.339 1_655 S
C87 H107 0.930 . S
C88 C85 1.416 . S
C88 C90 1.416 . S
C88 C94 1.448 . S
C89 N86 1.334 . S
C89 C87 1.390 1_455 S
C89 H100 0.930 . S
C90 C87 1.339 1_455 S
C90 C88 1.416 . S
C90 H111 0.930 1_455 S
C91 C92 1.413 . S
C91 C93 1.427 . S
C91 C97 1.416 . S
C92 C85 1.424 . S
C92 C91 1.413 . S
C92 N96 1.361 . S
C93 C91 1.427 . S
C93 C94 1.328 . S
C93 H108 0.929 . S
C94 C88 1.448 . S
C94 C93 1.328 . S
C94 H109 0.930 . S
Tb95 N86 2.617 . S
Tb95 N96 2.572 . S
Tb95 O130 2.349 . S
Tb95 O133 2.393 . S
Tb95 O134 2.465 1_556 S
Tb95 O135 2.387 . S
Tb95 O137 2.428 1_556 S
Tb95 O138 2.308 . S
Tb95 C159 2.802 1_556 S
N96 C92 1.361 . S
N96 Tb95 2.572 . S
N96 C98 1.340 . S
C97 C91 1.416 . S
C97 C99 1.332 . S
C97 H105 0.931 . S
C98 N96 1.340 . S
C98 C99 1.407 . S
C98 H104 0.930 . S
C99 C97 1.332 . S
C99 C98 1.407 . S
C99 H101 0.929 . S
H100 C89 0.930 . S
H101 C99 0.929 . S
H102 C117 0.930 . S
H103 C124 0.929 . S
H104 C98 0.930 . S
H105 C97 0.931 . S
H106 C120 0.930 . S
H107 C87 0.930 . S
H108 C93 0.929 . S
H109 C94 0.930 . S
H110 C115 0.930 . S
H111 C90 0.930 1_655 S
H112 C123 0.931 . S
N113 Tb84 2.617 . S
N113 C114 1.379 . S
N113 C117 1.334 . S
C114 N113 1.379 . S
C114 C116 1.416 . S
C114 C122 1.424 . S
C115 H110 0.930 . S
C115 C117 1.390 . S
C115 C118 1.339 . S
C116 C114 1.416 . S
C116 C118 1.416 . S
C116 C149 1.448 . S
C117 H102 0.930 . S
C117 N113 1.334 . S
C117 C115 1.390 . S
C118 C115 1.339 . S
C118 C116 1.416 . S
C118 H125 0.930 . S
N119 Tb84 2.572 . S
N119 C120 1.340 . S
N119 C122 1.361 . S
C120 H106 0.930 . S
C120 N119 1.340 . S
C120 C124 1.407 . S
C121 C122 1.413 . S
C121 C123 1.416 . S
C121 C150 1.427 . S
C122 C114 1.424 . S
C122 N119 1.361 . S
C122 C121 1.413 . S
C123 H112 0.931 . S
C123 C121 1.416 . S
C123 C124 1.332 . S
C124 H103 0.929 . S
C124 C120 1.407 . S
C124 C123 1.332 . S
H125 C118 0.930 . S
H126 C149 0.930 . S
H127 C150 0.929 . S
O128 Tb84 2.465 . S
O128 C148 1.264 . S
O129 Tb84 2.387 . S
O129 C140 1.264 . S
O130 Tb95 2.349 . S
O130 C140 1.243 . S
O131 Tb84 2.428 . S
O131 C148 1.256 . S
O132 Tb84 2.308 . S
O132 C147 1.266 . S
O133 Tb95 2.393 . S
O133 C147 1.248 . S
O134 Tb95 2.465 1_554 S
O134 C159 1.264 . S
O135 Tb95 2.387 . S
O135 C151 1.264 . S
O136 Tb84 2.349 . S
O136 C151 1.243 . S
O137 Tb95 2.428 1_554 S
O137 C159 1.256 . S
O138 Tb95 2.308 . S
O138 C158 1.266 . S
O139 Tb84 2.393 . S
O139 C158 1.248 . S
C140 O129 1.264 . S
C140 O130 1.243 . S
C141 C144 1.399 . S
C141 C146 1.383 . S
C141 C148 1.496 . S
C142 C143 1.399 . S
C142 C146 1.389 . S
C143 C142 1.399 . S
C143 C145 1.380 . S
C143 H160 0.929 . S
C144 C141 1.399 . S
C144 C145 1.392 . S
C144 H161 0.929 . S
C145 C143 1.380 . S
C145 C144 1.392 . S
C145 H162 0.929 . S
C146 C141 1.383 . S
C146 C142 1.389 . S
C146 H163 0.931 . S
C147 O132 1.266 . S
C147 O133 1.248 . S
C148 Tb84 2.802 . S
C148 O128 1.264 . S
C148 O131 1.256 . S
C148 C141 1.496 . S
C149 C116 1.448 . S
C149 H126 0.930 . S
C149 C150 1.328 . S
C150 C121 1.427 . S
C150 H127 0.929 . S
C150 C149 1.328 . S
C151 O135 1.264 . S
C151 O136 1.243 . S
C152 C155 1.399 . S
C152 C156 1.383 . S
C152 C159 1.496 . S
C153 C154 1.399 . S
C153 C156 1.389 . S
C154 C153 1.399 . S
C154 C157 1.380 . S
C154 H164 0.929 . S
C155 C152 1.399 . S
C155 C157 1.392 . S
C155 H165 0.929 . S
C156 C152 1.383 . S
C156 C153 1.389 . S
C156 H166 0.931 . S
C157 C154 1.380 . S
C157 C155 1.392 . S
C157 H167 0.929 . S
C158 O138 1.266 . S
C158 O139 1.248 . S
C159 Tb95 2.802 1_554 S
C159 O134 1.264 . S
C159 O137 1.256 . S
C159 C152 1.496 . S
H160 C143 0.929 . S
H161 C144 0.929 . S
H162 C145 0.929 . S
H163 C146 0.931 . S
H164 C154 0.929 . S
H165 C155 0.929 . S
H166 C156 0.931 . S
H167 C157 0.929 . S
Tb168 N197 2.617 . S
Tb168 N203 2.572 . S
Tb168 O212 2.465 1_554 S
Tb168 O213 2.387 . S
Tb168 O215 2.428 1_554 S
Tb168 O216 2.308 . S
Tb168 O220 2.349 . S
Tb168 O223 2.393 . S
Tb168 C232 2.802 1_554 S
C169 N170 1.379 . S
C169 C172 1.416 . S
C169 C176 1.424 . S
N170 C169 1.379 . S
N170 C173 1.334 . S
N170 Tb179 2.617 . S
C171 C173 1.390 . S
C171 C174 1.339 . S
C171 H191 0.930 . S
C172 C169 1.416 . S
C172 C174 1.416 . S
C172 C178 1.448 . S
C173 N170 1.334 . S
C173 C171 1.390 . S
C173 H184 0.930 . S
C174 C171 1.339 . S
C174 C172 1.416 . S
C174 H195 0.930 . S
C175 C176 1.413 . S
C175 C177 1.427 . S
C175 C181 1.416 . S
C176 C169 1.424 . S
C176 C175 1.413 . S
C176 N180 1.361 . S
C177 C175 1.427 . S
C177 C178 1.328 . S
C177 H192 0.929 . S
C178 C172 1.448 . S
C178 C177 1.328 . S
C178 H193 0.930 . S
Tb179 N170 2.617 . S
Tb179 N180 2.572 . S
Tb179 O214 2.349 . S
Tb179 O217 2.393 . S
Tb179 O218 2.465 . S
Tb179 O219 2.387 . S
Tb179 O221 2.428 . S
Tb179 O222 2.308 . S
Tb179 C243 2.802 . S
N180 C176 1.361 . S
N180 Tb179 2.572 . S
N180 C182 1.340 . S
C181 C175 1.416 . S
C181 C183 1.332 . S
C181 H189 0.931 . S
C182 N180 1.340 . S
C182 C183 1.407 . S
C182 H188 0.930 . S
C183 C181 1.332 . S
C183 C182 1.407 . S
C183 H185 0.929 . S
H184 C173 0.930 . S
H185 C183 0.929 . S
H186 C201 0.930 . S
H187 C208 0.929 . S
H188 C182 0.930 . S
H189 C181 0.931 . S
H190 C204 0.930 . S
H191 C171 0.930 . S
H192 C177 0.929 . S
H193 C178 0.930 . S
H194 C199 0.930 . S
H195 C174 0.930 . S
H196 C207 0.931 . S
N197 Tb168 2.617 . S
N197 C198 1.379 . S
N197 C201 1.334 . S
C198 N197 1.379 . S
C198 C200 1.416 . S
C198 C206 1.424 . S
C199 H194 0.930 . S
C199 C201 1.390 1_545 S
C199 C202 1.339 1_545 S
C200 C198 1.416 . S
C200 C202 1.416 . S
C200 C233 1.448 . S
C201 H186 0.930 . S
C201 N197 1.334 . S
C201 C199 1.390 1_565 S
C202 C199 1.339 1_565 S
C202 C200 1.416 . S
C202 H209 0.930 1_565 S
N203 Tb168 2.572 . S
N203 C204 1.340 . S
N203 C206 1.361 . S
C204 H190 0.930 . S
C204 N203 1.340 . S
C204 C208 1.407 . S
C205 C206 1.413 . S
C205 C207 1.416 . S
C205 C234 1.427 . S
C206 C198 1.424 . S
C206 N203 1.361 . S
C206 C205 1.413 . S
C207 H196 0.931 . S
C207 C205 1.416 . S
C207 C208 1.332 . S
C208 H187 0.929 . S
C208 C204 1.407 . S
C208 C207 1.332 . S
H209 C202 0.930 1_545 S
H210 C233 0.930 . S
H211 C234 0.929 . S
O212 Tb168 2.465 1_556 S
O212 C232 1.264 . S
O213 Tb168 2.387 . S
O213 C224 1.264 . S
O214 Tb179 2.349 . S
O214 C224 1.243 . S
O215 Tb168 2.428 1_556 S
O215 C232 1.256 . S
O216 Tb168 2.308 . S
O216 C231 1.266 . S
O217 Tb179 2.393 . S
O217 C231 1.248 . S
O218 Tb179 2.465 . S
O218 C243 1.264 . S
O219 Tb179 2.387 . S
O219 C235 1.264 . S
O220 Tb168 2.349 . S
O220 C235 1.243 . S
O221 Tb179 2.428 . S
O221 C243 1.256 . S
O222 Tb179 2.308 . S
O222 C242 1.266 . S
O223 Tb168 2.393 . S
O223 C242 1.248 . S
C224 O213 1.264 . S
C224 O214 1.243 . S
C225 C228 1.399 . S
C225 C230 1.383 . S
C225 C232 1.496 . S
C226 C227 1.399 . S
C226 C230 1.389 . S
C227 C226 1.399 . S
C227 C229 1.380 . S
C227 H244 0.929 . S
C228 C225 1.399 . S
C228 C229 1.392 . S
C228 H245 0.929 . S
C229 C227 1.380 . S
C229 C228 1.392 . S
C229 H246 0.929 . S
C230 C225 1.383 . S
C230 C226 1.389 . S
C230 H247 0.931 . S
C231 O216 1.266 . S
C231 O217 1.248 . S
C232 Tb168 2.802 1_556 S
C232 O212 1.264 . S
C232 O215 1.256 . S
C232 C225 1.496 . S
C233 C200 1.448 . S
C233 H210 0.930 . S
C233 C234 1.328 . S
C234 C205 1.427 . S
C234 H211 0.929 . S
C234 C233 1.328 . S
C235 O219 1.264 . S
C235 O220 1.243 . S
C236 C239 1.399 . S
C236 C240 1.383 . S
C236 C243 1.496 . S
C237 C238 1.399 . S
C237 C240 1.389 . S
C238 C237 1.399 . S
C238 C241 1.380 . S
C238 H248 0.929 . S
C239 C236 1.399 . S
C239 C241 1.392 . S
C239 H249 0.929 . S
C240 C236 1.383 . S
C240 C237 1.389 . S
C240 H250 0.931 . S
C241 C238 1.380 . S
C241 C239 1.392 . S
C241 H251 0.929 . S
C242 O222 1.266 . S
C242 O223 1.248 . S
C243 Tb179 2.802 . S
C243 O218 1.264 . S
C243 O221 1.256 . S
C243 C236 1.496 . S
H244 C227 0.929 . S
H245 C228 0.929 . S
H246 C229 0.929 . S
H247 C230 0.931 . S
H248 C238 0.929 . S
H249 C239 0.929 . S
H250 C240 0.931 . S
H251 C241 0.929 . S
Tb252 N281 2.617 . S
Tb252 N287 2.572 . S
Tb252 O296 2.465 . S
Tb252 O297 2.387 . S
Tb252 O299 2.428 . S
Tb252 O300 2.308 . S
Tb252 O304 2.349 . S
Tb252 O307 2.393 . S
Tb252 C316 2.802 . S
C253 N254 1.379 . S
C253 C256 1.416 . S
C253 C260 1.424 . S
N254 C253 1.379 . S
N254 C257 1.334 . S
N254 Tb263 2.617 . S
C255 C257 1.390 1_455 S
C255 C258 1.339 1_455 S
C255 H275 0.930 . S
C256 C253 1.416 . S
C256 C258 1.416 . S
C256 C262 1.448 . S
C257 N254 1.334 . S
C257 C255 1.390 1_655 S
C257 H268 0.930 . S
C258 C255 1.339 1_655 S
C258 C256 1.416 . S
C258 H279 0.930 1_655 S
C259 C260 1.413 . S
C259 C261 1.427 . S
C259 C265 1.416 . S
C260 C253 1.424 . S
C260 C259 1.413 . S
C260 N264 1.361 . S
C261 C259 1.427 . S
C261 C262 1.328 . S
C261 H276 0.929 . S
C262 C256 1.448 . S
C262 C261 1.328 . S
C262 H277 0.930 . S
Tb263 N254 2.617 . S
Tb263 N264 2.572 . S
Tb263 O298 2.349 . S
Tb263 O301 2.393 . S
Tb263 O302 2.465 1_556 S
Tb263 O303 2.387 . S
Tb263 O305 2.428 1_556 S
Tb263 O306 2.308 . S
Tb263 C327 2.802 1_556 S
N264 C260 1.361 . S
N264 Tb263 2.572 . S
N264 C266 1.340 . S
C265 C259 1.416 . S
C265 C267 1.332 . S
C265 H273 0.931 . S
C266 N264 1.340 . S
C266 C267 1.407 . S
C266 H272 0.930 . S
C267 C265 1.332 . S
C267 C266 1.407 . S
C267 H269 0.929 . S
H268 C257 0.930 . S
H269 C267 0.929 . S
H270 C285 0.930 . S
H271 C292 0.929 . S
H272 C266 0.930 . S
H273 C265 0.931 . S
H274 C288 0.930 . S
H275 C255 0.930 . S
H276 C261 0.929 . S
H277 C262 0.930 . S
H278 C283 0.930 . S
H279 C258 0.930 1_455 S
H280 C291 0.931 . S
N281 Tb252 2.617 . S
N281 C282 1.379 . S
N281 C285 1.334 . S
C282 N281 1.379 . S
C282 C284 1.416 . S
C282 C290 1.424 . S
C283 H278 0.930 . S
C283 C285 1.390 . S
C283 C286 1.339 . S
C284 C282 1.416 . S
C284 C286 1.416 . S
C284 C317 1.448 . S
C285 H270 0.930 . S
C285 N281 1.334 . S
C285 C283 1.390 . S
C286 C283 1.339 . S
C286 C284 1.416 . S
C286 H293 0.930 . S
N287 Tb252 2.572 . S
N287 C288 1.340 . S
N287 C290 1.361 . S
C288 H274 0.930 . S
C288 N287 1.340 . S
C288 C292 1.407 . S
C289 C290 1.413 . S
C289 C291 1.416 . S
C289 C318 1.427 . S
C290 C282 1.424 . S
C290 N287 1.361 . S
C290 C289 1.413 . S
C291 H280 0.931 . S
C291 C289 1.416 . S
C291 C292 1.332 . S
C292 H271 0.929 . S
C292 C288 1.407 . S
C292 C291 1.332 . S
H293 C286 0.930 . S
H294 C317 0.930 . S
H295 C318 0.929 . S
O296 Tb252 2.465 . S
O296 C316 1.264 . S
O297 Tb252 2.387 . S
O297 C308 1.264 . S
O298 Tb263 2.349 . S
O298 C308 1.243 . S
O299 Tb252 2.428 . S
O299 C316 1.256 . S
O300 Tb252 2.308 . S
O300 C315 1.266 . S
O301 Tb263 2.393 . S
O301 C315 1.248 . S
O302 Tb263 2.465 1_554 S
O302 C327 1.264 . S
O303 Tb263 2.387 . S
O303 C319 1.264 . S
O304 Tb252 2.349 . S
O304 C319 1.243 . S
O305 Tb263 2.428 1_554 S
O305 C327 1.256 . S
O306 Tb263 2.308 . S
O306 C326 1.266 . S
O307 Tb252 2.393 . S
O307 C326 1.248 . S
C308 O297 1.264 . S
C308 O298 1.243 . S
C309 C312 1.399 . S
C309 C314 1.383 . S
C309 C316 1.496 . S
C310 C311 1.399 . S
C310 C314 1.389 . S
C311 C310 1.399 . S
C311 C313 1.380 . S
C311 H328 0.929 . S
C312 C309 1.399 . S
C312 C313 1.392 . S
C312 H329 0.929 . S
C313 C311 1.380 . S
C313 C312 1.392 . S
C313 H330 0.929 . S
C314 C309 1.383 . S
C314 C310 1.389 . S
C314 H331 0.931 . S
C315 O300 1.266 . S
C315 O301 1.248 . S
C316 Tb252 2.802 . S
C316 O296 1.264 . S
C316 O299 1.256 . S
C316 C309 1.496 . S
C317 C284 1.448 . S
C317 H294 0.930 . S
C317 C318 1.328 . S
C318 C289 1.427 . S
C318 H295 0.929 . S
C318 C317 1.328 . S
C319 O303 1.264 . S
C319 O304 1.243 . S
C320 C323 1.399 . S
C320 C324 1.383 . S
C320 C327 1.496 . S
C321 C322 1.399 . S
C321 C324 1.389 . S
C322 C321 1.399 . S
C322 C325 1.380 . S
C322 H332 0.929 . S
C323 C320 1.399 . S
C323 C325 1.392 . S
C323 H333 0.929 . S
C324 C320 1.383 . S
C324 C321 1.389 . S
C324 H334 0.931 . S
C325 C322 1.380 . S
C325 C323 1.392 . S
C325 H335 0.929 . S
C326 O306 1.266 . S
C326 O307 1.248 . S
C327 Tb263 2.802 1_554 S
C327 O302 1.264 . S
C327 O305 1.256 . S
C327 C320 1.496 . S
H328 C311 0.929 . S
H329 C312 0.929 . S
H330 C313 0.929 . S
H331 C314 0.931 . S
H332 C322 0.929 . S
H333 C323 0.929 . S
H334 C324 0.931 . S
H335 C325 0.929 . S
Tb336 N365 2.617 . S
Tb336 N371 2.572 . S
Tb336 O380 2.465 . S
Tb336 O381 2.387 . S
Tb336 O383 2.428 . S
Tb336 O384 2.308 . S
Tb336 O388 2.349 . S
Tb336 O391 2.393 . S
Tb336 C400 2.802 . S
C337 N338 1.379 . S
C337 C340 1.416 . S
C337 C344 1.424 . S
N338 C337 1.379 . S
N338 C341 1.334 . S
N338 Tb347 2.617 . S
C339 C341 1.390 . S
C339 C342 1.339 . S
C339 H359 0.930 . S
C340 C337 1.416 . S
C340 C342 1.416 . S
C340 C346 1.448 . S
C341 N338 1.334 . S
C341 C339 1.390 . S
C341 H352 0.930 . S
C342 C339 1.339 . S
C342 C340 1.416 . S
C342 H363 0.930 . S
C343 C344 1.413 . S
C343 C345 1.427 . S
C343 C349 1.416 . S
C344 C337 1.424 . S
C344 C343 1.413 . S
C344 N348 1.361 . S
C345 C343 1.427 . S
C345 C346 1.328 . S
C345 H360 0.929 . S
C346 C340 1.448 . S
C346 C345 1.328 . S
C346 H361 0.930 . S
Tb347 N338 2.617 . S
Tb347 N348 2.572 . S
Tb347 O382 2.349 . S
Tb347 O385 2.393 . S
Tb347 O386 2.465 1_554 S
Tb347 O387 2.387 . S
Tb347 O389 2.428 1_554 S
Tb347 O390 2.308 . S
Tb347 C411 2.802 1_554 S
N348 C344 1.361 . S
N348 Tb347 2.572 . S
N348 C350 1.340 . S
C349 C343 1.416 . S
C349 C351 1.332 . S
C349 H357 0.931 . S
C350 N348 1.340 . S
C350 C351 1.407 . S
C350 H356 0.930 . S
C351 C349 1.332 . S
C351 C350 1.407 . S
C351 H353 0.929 . S
H352 C341 0.930 . S
H353 C351 0.929 . S
H354 C369 0.930 . S
H355 C376 0.929 . S
H356 C350 0.930 . S
H357 C349 0.931 . S
H358 C372 0.930 . S
H359 C339 0.930 . S
H360 C345 0.929 . S
H361 C346 0.930 . S
H362 C367 0.930 . S
H363 C342 0.930 . S
H364 C375 0.931 . S
N365 Tb336 2.617 . S
N365 C366 1.379 . S
N365 C369 1.334 . S
C366 N365 1.379 . S
C366 C368 1.416 . S
C366 C374 1.424 . S
C367 H362 0.930 . S
C367 C369 1.390 . S
C367 C370 1.339 . S
C368 C366 1.416 . S
C368 C370 1.416 . S
C368 C401 1.448 . S
C369 H354 0.930 . S
C369 N365 1.334 . S
C369 C367 1.390 . S
C370 C367 1.339 . S
C370 C368 1.416 . S
C370 H377 0.930 . S
N371 Tb336 2.572 . S
N371 C372 1.340 . S
N371 C374 1.361 . S
C372 H358 0.930 . S
C372 N371 1.340 . S
C372 C376 1.407 . S
C373 C374 1.413 . S
C373 C375 1.416 . S
C373 C402 1.427 . S
C374 C366 1.424 . S
C374 N371 1.361 . S
C374 C373 1.413 . S
C375 H364 0.931 . S
C375 C373 1.416 . S
C375 C376 1.332 . S
C376 H355 0.929 . S
C376 C372 1.407 . S
C376 C375 1.332 . S
H377 C370 0.930 . S
H378 C401 0.930 . S
H379 C402 0.929 . S
O380 Tb336 2.465 . S
O380 C400 1.264 . S
O381 Tb336 2.387 . S
O381 C392 1.264 . S
O382 Tb347 2.349 . S
O382 C392 1.243 . S
O383 Tb336 2.428 . S
O383 C400 1.256 . S
O384 Tb336 2.308 . S
O384 C399 1.266 . S
O385 Tb347 2.393 . S
O385 C399 1.248 . S
O386 Tb347 2.465 1_556 S
O386 C411 1.264 . S
O387 Tb347 2.387 . S
O387 C403 1.264 . S
O388 Tb336 2.349 . S
O388 C403 1.243 . S
O389 Tb347 2.428 1_556 S
O389 C411 1.256 . S
O390 Tb347 2.308 . S
O390 C410 1.266 . S
O391 Tb336 2.393 . S
O391 C410 1.248 . S
C392 O381 1.264 . S
C392 O382 1.243 . S
C393 C396 1.399 . S
C393 C398 1.383 . S
C393 C400 1.496 . S
C394 C395 1.399 . S
C394 C398 1.389 . S
C395 C394 1.399 . S
C395 C397 1.380 . S
C395 H412 0.929 . S
C396 C393 1.399 . S
C396 C397 1.392 . S
C396 H413 0.929 . S
C397 C395 1.380 . S
C397 C396 1.392 . S
C397 H414 0.929 . S
C398 C393 1.383 . S
C398 C394 1.389 . S
C398 H415 0.931 . S
C399 O384 1.266 . S
C399 O385 1.248 . S
C400 Tb336 2.802 . S
C400 O380 1.264 . S
C400 O383 1.256 . S
C400 C393 1.496 . S
C401 C368 1.448 . S
C401 H378 0.930 . S
C401 C402 1.328 . S
C402 C373 1.427 . S
C402 H379 0.929 . S
C402 C401 1.328 . S
C403 O387 1.264 . S
C403 O388 1.243 . S
C404 C407 1.399 . S
C404 C408 1.383 . S
C404 C411 1.496 . S
C405 C406 1.399 . S
C405 C408 1.389 . S
C406 C405 1.399 . S
C406 C409 1.380 . S
C406 H416 0.929 . S
C407 C404 1.399 . S
C407 C409 1.392 . S
C407 H417 0.929 . S
C408 C404 1.383 . S
C408 C405 1.389 . S
C408 H418 0.931 . S
C409 C406 1.380 . S
C409 C407 1.392 . S
C409 H419 0.929 . S
C410 O390 1.266 . S
C410 O391 1.248 . S
C411 Tb347 2.802 1_556 S
C411 O386 1.264 . S
C411 O389 1.256 . S
C411 C404 1.496 . S
H412 C395 0.929 . S
H413 C396 0.929 . S
H414 C397 0.929 . S
H415 C398 0.931 . S
H416 C406 0.929 . S
H417 C407 0.929 . S
H418 C408 0.931 . S
H419 C409 0.929 . S
Tb420 N449 2.617 . S
Tb420 N455 2.572 . S
Tb420 O464 2.465 1_556 S
Tb420 O465 2.387 . S
Tb420 O467 2.428 1_556 S
Tb420 O468 2.308 . S
Tb420 O472 2.349 . S
Tb420 O475 2.393 . S
Tb420 C484 2.802 1_556 S
C421 N422 1.379 . S
C421 C424 1.416 . S
C421 C428 1.424 . S
N422 C421 1.379 . S
N422 C425 1.334 . S
N422 Tb431 2.617 . S
C423 C425 1.390 . S
C423 C426 1.339 . S
C423 H443 0.930 . S
C424 C421 1.416 . S
C424 C426 1.416 . S
C424 C430 1.448 . S
C425 N422 1.334 . S
C425 C423 1.390 . S
C425 H436 0.930 . S
C426 C423 1.339 . S
C426 C424 1.416 . S
C426 H447 0.930 . S
C427 C428 1.413 . S
C427 C429 1.427 . S
C427 C433 1.416 . S
C428 C421 1.424 . S
C428 C427 1.413 . S
C428 N432 1.361 . S
C429 C427 1.427 . S
C429 C430 1.328 . S
C429 H444 0.929 . S
C430 C424 1.448 . S
C430 C429 1.328 . S
C430 H445 0.930 . S
Tb431 N422 2.617 . S
Tb431 N432 2.572 . S
Tb431 O466 2.349 . S
Tb431 O469 2.393 . S
Tb431 O470 2.465 . S
Tb431 O471 2.387 . S
Tb431 O473 2.428 . S
Tb431 O474 2.308 . S
Tb431 C495 2.802 . S
N432 C428 1.361 . S
N432 Tb431 2.572 . S
N432 C434 1.340 . S
C433 C427 1.416 . S
C433 C435 1.332 . S
C433 H441 0.931 . S
C434 N432 1.340 . S
C434 C435 1.407 . S
C434 H440 0.930 . S
C435 C433 1.332 . S
C435 C434 1.407 . S
C435 H437 0.929 . S
H436 C425 0.930 . S
H437 C435 0.929 . S
H438 C453 0.930 . S
H439 C460 0.929 . S
H440 C434 0.930 . S
H441 C433 0.931 . S
H442 C456 0.930 . S
H443 C423 0.930 . S
H444 C429 0.929 . S
H445 C430 0.930 . S
H446 C451 0.930 . S
H447 C426 0.930 . S
H448 C459 0.931 . S
N449 Tb420 2.617 . S
N449 C450 1.379 . S
N449 C453 1.334 . S
C450 N449 1.379 . S
C450 C452 1.416 . S
C450 C458 1.424 . S
C451 H446 0.930 . S
C451 C453 1.390 . S
C451 C454 1.339 . S
C452 C450 1.416 . S
C452 C454 1.416 . S
C452 C485 1.448 . S
C453 H438 0.930 . S
C453 N449 1.334 . S
C453 C451 1.390 . S
C454 C451 1.339 . S
C454 C452 1.416 . S
C454 H461 0.930 . S
N455 Tb420 2.572 . S
N455 C456 1.340 . S
N455 C458 1.361 . S
C456 H442 0.930 . S
C456 N455 1.340 . S
C456 C460 1.407 . S
C457 C458 1.413 . S
C457 C459 1.416 . S
C457 C486 1.427 . S
C458 C450 1.424 . S
C458 N455 1.361 . S
C458 C457 1.413 . S
C459 H448 0.931 . S
C459 C457 1.416 . S
C459 C460 1.332 . S
C460 H439 0.929 . S
C460 C456 1.407 . S
C460 C459 1.332 . S
H461 C454 0.930 . S
H462 C485 0.930 . S
H463 C486 0.929 . S
O464 Tb420 2.465 1_554 S
O464 C484 1.264 . S
O465 Tb420 2.387 . S
O465 C476 1.264 . S
O466 Tb431 2.349 . S
O466 C476 1.243 . S
O467 Tb420 2.428 1_554 S
O467 C484 1.256 . S
O468 Tb420 2.308 . S
O468 C483 1.266 . S
O469 Tb431 2.393 . S
O469 C483 1.248 . S
O470 Tb431 2.465 . S
O470 C495 1.264 . S
O471 Tb431 2.387 . S
O471 C487 1.264 . S
O472 Tb420 2.349 . S
O472 C487 1.243 . S
O473 Tb431 2.428 . S
O473 C495 1.256 . S
O474 Tb431 2.308 . S
O474 C494 1.266 . S
O475 Tb420 2.393 . S
O475 C494 1.248 . S
C476 O465 1.264 . S
C476 O466 1.243 . S
C477 C480 1.399 . S
C477 C482 1.383 . S
C477 C484 1.496 . S
C478 C479 1.399 . S
C478 C482 1.389 . S
C479 C478 1.399 . S
C479 C481 1.380 . S
C479 H496 0.929 . S
C480 C477 1.399 . S
C480 C481 1.392 . S
C480 H497 0.929 . S
C481 C479 1.380 . S
C481 C480 1.392 . S
C481 H498 0.929 . S
C482 C477 1.383 . S
C482 C478 1.389 . S
C482 H499 0.931 . S
C483 O468 1.266 . S
C483 O469 1.248 . S
C484 Tb420 2.802 1_554 S
C484 O464 1.264 . S
C484 O467 1.256 . S
C484 C477 1.496 . S
C485 C452 1.448 . S
C485 H462 0.930 . S
C485 C486 1.328 . S
C486 C457 1.427 . S
C486 H463 0.929 . S
C486 C485 1.328 . S
C487 O471 1.264 . S
C487 O472 1.243 . S
C488 C491 1.399 . S
C488 C492 1.383 . S
C488 C495 1.496 . S
C489 C490 1.399 . S
C489 C492 1.389 . S
C490 C489 1.399 . S
C490 C493 1.380 . S
C490 H500 0.929 . S
C491 C488 1.399 . S
C491 C493 1.392 . S
C491 H501 0.929 . S
C492 C488 1.383 . S
C492 C489 1.389 . S
C492 H502 0.931 . S
C493 C490 1.380 . S
C493 C491 1.392 . S
C493 H503 0.929 . S
C494 O474 1.266 . S
C494 O475 1.248 . S
C495 Tb431 2.802 . S
C495 O470 1.264 . S
C495 O473 1.256 . S
C495 C488 1.496 . S
H496 C479 0.929 . S
H497 C480 0.929 . S
H498 C481 0.929 . S
H499 C482 0.931 . S
H500 C490 0.929 . S
H501 C491 0.929 . S
H502 C492 0.931 . S
H503 C493 0.929 . S
Tb504 N533 2.617 . S
Tb504 N539 2.572 . S
Tb504 O548 2.465 . S
Tb504 O549 2.387 . S
Tb504 O551 2.428 . S
Tb504 O552 2.308 . S
Tb504 O556 2.349 . S
Tb504 O559 2.393 . S
Tb504 C568 2.802 . S
C505 N506 1.379 . S
C505 C508 1.416 . S
C505 C512 1.424 . S
N506 C505 1.379 . S
N506 C509 1.334 . S
N506 Tb515 2.617 . S
C507 C509 1.390 . S
C507 C510 1.339 . S
C507 H527 0.930 . S
C508 C505 1.416 . S
C508 C510 1.416 . S
C508 C514 1.448 . S
C509 N506 1.334 . S
C509 C507 1.390 . S
C509 H520 0.930 . S
C510 C507 1.339 . S
C510 C508 1.416 . S
C510 H531 0.930 . S
C511 C512 1.413 . S
C511 C513 1.427 . S
C511 C517 1.416 . S
C512 C505 1.424 . S
C512 C511 1.413 . S
C512 N516 1.361 . S
C513 C511 1.427 . S
C513 C514 1.328 . S
C513 H528 0.929 . S
C514 C508 1.448 . S
C514 C513 1.328 . S
C514 H529 0.930 . S
Tb515 N506 2.617 . S
Tb515 N516 2.572 . S
Tb515 O550 2.349 . S
Tb515 O553 2.393 . S
Tb515 O554 2.465 1_554 S
Tb515 O555 2.387 . S
Tb515 O557 2.428 1_554 S
Tb515 O558 2.308 . S
Tb515 C579 2.802 1_554 S
N516 C512 1.361 . S
N516 Tb515 2.572 . S
N516 C518 1.340 . S
C517 C511 1.416 . S
C517 C519 1.332 . S
C517 H525 0.931 . S
C518 N516 1.340 . S
C518 C519 1.407 . S
C518 H524 0.930 . S
C519 C517 1.332 . S
C519 C518 1.407 . S
C519 H521 0.929 . S
H520 C509 0.930 . S
H521 C519 0.929 . S
H522 C537 0.930 . S
H523 C544 0.929 . S
H524 C518 0.930 . S
H525 C517 0.931 . S
H526 C540 0.930 . S
H527 C507 0.930 . S
H528 C513 0.929 . S
H529 C514 0.930 . S
H530 C535 0.930 . S
H531 C510 0.930 . S
H532 C543 0.931 . S
N533 Tb504 2.617 . S
N533 C534 1.379 . S
N533 C537 1.334 . S
C534 N533 1.379 . S
C534 C536 1.416 . S
C534 C542 1.424 . S
C535 H530 0.930 . S
C535 C537 1.390 . S
C535 C538 1.339 . S
C536 C534 1.416 . S
C536 C538 1.416 . S
C536 C569 1.448 . S
C537 H522 0.930 . S
C537 N533 1.334 . S
C537 C535 1.390 . S
C538 C535 1.339 . S
C538 C536 1.416 . S
C538 H545 0.930 . S
N539 Tb504 2.572 . S
N539 C540 1.340 . S
N539 C542 1.361 . S
C540 H526 0.930 . S
C540 N539 1.340 . S
C540 C544 1.407 . S
C541 C542 1.413 . S
C541 C543 1.416 . S
C541 C570 1.427 . S
C542 C534 1.424 . S
C542 N539 1.361 . S
C542 C541 1.413 . S
C543 H532 0.931 . S
C543 C541 1.416 . S
C543 C544 1.332 . S
C544 H523 0.929 . S
C544 C540 1.407 . S
C544 C543 1.332 . S
H545 C538 0.930 . S
H546 C569 0.930 . S
H547 C570 0.929 . S
O548 Tb504 2.465 . S
O548 C568 1.264 . S
O549 Tb504 2.387 . S
O549 C560 1.264 . S
O550 Tb515 2.349 . S
O550 C560 1.243 . S
O551 Tb504 2.428 . S
O551 C568 1.256 . S
O552 Tb504 2.308 . S
O552 C567 1.266 . S
O553 Tb515 2.393 . S
O553 C567 1.248 . S
O554 Tb515 2.465 1_556 S
O554 C579 1.264 . S
O555 Tb515 2.387 . S
O555 C571 1.264 . S
O556 Tb504 2.349 . S
O556 C571 1.243 . S
O557 Tb515 2.428 1_556 S
O557 C579 1.256 . S
O558 Tb515 2.308 . S
O558 C578 1.266 . S
O559 Tb504 2.393 . S
O559 C578 1.248 . S
C560 O549 1.264 . S
C560 O550 1.243 . S
C561 C564 1.399 . S
C561 C566 1.383 . S
C561 C568 1.496 . S
C562 C563 1.399 . S
C562 C566 1.389 . S
C563 C562 1.399 . S
C563 C565 1.380 . S
C563 H580 0.929 . S
C564 C561 1.399 . S
C564 C565 1.392 . S
C564 H581 0.929 . S
C565 C563 1.380 . S
C565 C564 1.392 . S
C565 H582 0.929 . S
C566 C561 1.383 . S
C566 C562 1.389 . S
C566 H583 0.931 . S
C567 O552 1.266 . S
C567 O553 1.248 . S
C568 Tb504 2.802 . S
C568 O548 1.264 . S
C568 O551 1.256 . S
C568 C561 1.496 . S
C569 C536 1.448 . S
C569 H546 0.930 . S
C569 C570 1.328 . S
C570 C541 1.427 . S
C570 H547 0.929 . S
C570 C569 1.328 . S
C571 O555 1.264 . S
C571 O556 1.243 . S
C572 C575 1.399 . S
C572 C576 1.383 . S
C572 C579 1.496 . S
C573 C574 1.399 . S
C573 C576 1.389 . S
C574 C573 1.399 . S
C574 C577 1.380 . S
C574 H584 0.929 . S
C575 C572 1.399 . S
C575 C577 1.392 . S
C575 H585 0.929 . S
C576 C572 1.383 . S
C576 C573 1.389 . S
C576 H586 0.931 . S
C577 C574 1.380 . S
C577 C575 1.392 . S
C577 H587 0.929 . S
C578 O558 1.266 . S
C578 O559 1.248 . S
C579 Tb515 2.802 1_556 S
C579 O554 1.264 . S
C579 O557 1.256 . S
C579 C572 1.496 . S
H580 C563 0.929 . S
H581 C564 0.929 . S
H582 C565 0.929 . S
H583 C566 0.931 . S
H584 C574 0.929 . S
H585 C575 0.929 . S
H586 C576 0.931 . S
H587 C577 0.929 . S
Tb588 N617 2.617 . S
Tb588 N623 2.572 . S
Tb588 O632 2.465 1_556 S
Tb588 O633 2.387 . S
Tb588 O635 2.428 1_556 S
Tb588 O636 2.308 . S
Tb588 O640 2.349 . S
Tb588 O643 2.393 . S
Tb588 C652 2.802 1_556 S
C589 N590 1.379 . S
C589 C592 1.416 . S
C589 C596 1.424 . S
N590 C589 1.379 . S
N590 C593 1.334 . S
N590 Tb599 2.617 . S
C591 C593 1.390 . S
C591 C594 1.339 . S
C591 H611 0.930 . S
C592 C589 1.416 . S
C592 C594 1.416 . S
C592 C598 1.448 . S
C593 N590 1.334 . S
C593 C591 1.390 . S
C593 H604 0.930 . S
C594 C591 1.339 . S
C594 C592 1.416 . S
C594 H615 0.930 . S
C595 C596 1.413 . S
C595 C597 1.427 . S
C595 C601 1.416 . S
C596 C589 1.424 . S
C596 C595 1.413 . S
C596 N600 1.361 . S
C597 C595 1.427 . S
C597 C598 1.328 . S
C597 H612 0.929 . S
C598 C592 1.448 . S
C598 C597 1.328 . S
C598 H613 0.930 . S
Tb599 N590 2.617 . S
Tb599 N600 2.572 . S
Tb599 O634 2.349 . S
Tb599 O637 2.393 . S
Tb599 O638 2.465 . S
Tb599 O639 2.387 . S
Tb599 O641 2.428 . S
Tb599 O642 2.308 . S
Tb599 C663 2.802 . S
N600 C596 1.361 . S
N600 Tb599 2.572 . S
N600 C602 1.340 . S
C601 C595 1.416 . S
C601 C603 1.332 . S
C601 H609 0.931 . S
C602 N600 1.340 . S
C602 C603 1.407 . S
C602 H608 0.930 . S
C603 C601 1.332 . S
C603 C602 1.407 . S
C603 H605 0.929 . S
H604 C593 0.930 . S
H605 C603 0.929 . S
H606 C621 0.930 . S
H607 C628 0.929 . S
H608 C602 0.930 . S
H609 C601 0.931 . S
H610 C624 0.930 . S
H611 C591 0.930 . S
H612 C597 0.929 . S
H613 C598 0.930 . S
H614 C619 0.930 . S
H615 C594 0.930 . S
H616 C627 0.931 . S
N617 Tb588 2.617 . S
N617 C618 1.379 . S
N617 C621 1.334 . S
C618 N617 1.379 . S
C618 C620 1.416 . S
C618 C626 1.424 . S
C619 H614 0.930 . S
C619 C621 1.390 . S
C619 C622 1.339 . S
C620 C618 1.416 . S
C620 C622 1.416 . S
C620 C653 1.448 . S
C621 H606 0.930 . S
C621 N617 1.334 . S
C621 C619 1.390 . S
C622 C619 1.339 . S
C622 C620 1.416 . S
C622 H629 0.930 . S
N623 Tb588 2.572 . S
N623 C624 1.340 . S
N623 C626 1.361 . S
C624 H610 0.930 . S
C624 N623 1.340 . S
C624 C628 1.407 . S
C625 C626 1.413 . S
C625 C627 1.416 . S
C625 C654 1.427 . S
C626 C618 1.424 . S
C626 N623 1.361 . S
C626 C625 1.413 . S
C627 H616 0.931 . S
C627 C625 1.416 . S
C627 C628 1.332 . S
C628 H607 0.929 . S
C628 C624 1.407 . S
C628 C627 1.332 . S
H629 C622 0.930 . S
H630 C653 0.930 . S
H631 C654 0.929 . S
O632 Tb588 2.465 1_554 S
O632 C652 1.264 . S
O633 Tb588 2.387 . S
O633 C644 1.264 . S
O634 Tb599 2.349 . S
O634 C644 1.243 . S
O635 Tb588 2.428 1_554 S
O635 C652 1.256 . S
O636 Tb588 2.308 . S
O636 C651 1.266 . S
O637 Tb599 2.393 . S
O637 C651 1.248 . S
O638 Tb599 2.465 . S
O638 C663 1.264 . S
O639 Tb599 2.387 . S
O639 C655 1.264 . S
O640 Tb588 2.349 . S
O640 C655 1.243 . S
O641 Tb599 2.428 . S
O641 C663 1.256 . S
O642 Tb599 2.308 . S
O642 C662 1.266 . S
O643 Tb588 2.393 . S
O643 C662 1.248 . S
C644 O633 1.264 . S
C644 O634 1.243 . S
C645 C648 1.399 . S
C645 C650 1.383 . S
C645 C652 1.496 . S
C646 C647 1.399 . S
C646 C650 1.389 . S
C647 C646 1.399 . S
C647 C649 1.380 . S
C647 H664 0.929 . S
C648 C645 1.399 . S
C648 C649 1.392 . S
C648 H665 0.929 . S
C649 C647 1.380 . S
C649 C648 1.392 . S
C649 H666 0.929 . S
C650 C645 1.383 . S
C650 C646 1.389 . S
C650 H667 0.931 . S
C651 O636 1.266 . S
C651 O637 1.248 . S
C652 Tb588 2.802 1_554 S
C652 O632 1.264 . S
C652 O635 1.256 . S
C652 C645 1.496 . S
C653 C620 1.448 . S
C653 H630 0.930 . S
C653 C654 1.328 . S
C654 C625 1.427 . S
C654 H631 0.929 . S
C654 C653 1.328 . S
C655 O639 1.264 . S
C655 O640 1.243 . S
C656 C659 1.399 . S
C656 C660 1.383 . S
C656 C663 1.496 . S
C657 C658 1.399 . S
C657 C660 1.389 . S
C658 C657 1.399 . S
C658 C661 1.380 . S
C658 H668 0.929 . S
C659 C656 1.399 . S
C659 C661 1.392 . S
C659 H669 0.929 . S
C660 C656 1.383 . S
C660 C657 1.389 . S
C660 H670 0.931 . S
C661 C658 1.380 . S
C661 C659 1.392 . S
C661 H671 0.929 . S
C662 O642 1.266 . S
C662 O643 1.248 . S
C663 Tb599 2.802 . S
C663 O638 1.264 . S
C663 O641 1.256 . S
C663 C656 1.496 . S
H664 C647 0.929 . S
H665 C648 0.929 . S
H666 C649 0.929 . S
H667 C650 0.931 . S
H668 C658 0.929 . S
H669 C659 0.929 . S
H670 C660 0.931 . S
H671 C661 0.929 . S
Tb672 N701 2.617 . S
Tb672 N707 2.572 . S
Tb672 O716 2.465 . S
Tb672 O717 2.387 . S
Tb672 O719 2.428 . S
Tb672 O720 2.308 . S
Tb672 O724 2.349 . S
Tb672 O727 2.393 . S
Tb672 C736 2.802 . S
C673 N674 1.379 . S
C673 C676 1.416 . S
C673 C680 1.424 . S
N674 C673 1.379 . S
N674 C677 1.334 . S
N674 Tb683 2.617 . S
C675 C677 1.390 . S
C675 C678 1.339 . S
C675 H695 0.930 . S
C676 C673 1.416 . S
C676 C678 1.416 . S
C676 C682 1.448 . S
C677 N674 1.334 . S
C677 C675 1.390 . S
C677 H688 0.930 . S
C678 C675 1.339 . S
C678 C676 1.416 . S
C678 H699 0.930 . S
C679 C680 1.413 . S
C679 C681 1.427 . S
C679 C685 1.416 . S
C680 C673 1.424 . S
C680 C679 1.413 . S
C680 N684 1.361 . S
C681 C679 1.427 . S
C681 C682 1.328 . S
C681 H696 0.929 . S
C682 C676 1.448 . S
C682 C681 1.328 . S
C682 H697 0.930 . S
Tb683 N674 2.617 . S
Tb683 N684 2.572 . S
Tb683 O718 2.349 . S
Tb683 O721 2.393 . S
Tb683 O722 2.465 . S
Tb683 O723 2.387 . S
Tb683 O725 2.428 . S
Tb683 O726 2.308 . S
Tb683 C747 2.802 . S
N684 C680 1.361 . S
N684 Tb683 2.572 . S
N684 C686 1.340 . S
C685 C679 1.416 . S
C685 C687 1.332 . S
C685 H693 0.931 . S
C686 N684 1.340 . S
C686 C687 1.407 . S
C686 H692 0.930 . S
C687 C685 1.332 . S
C687 C686 1.407 . S
C687 H689 0.929 . S
H688 C677 0.930 . S
H689 C687 0.929 . S
H690 C705 0.930 . S
H691 C712 0.929 . S
H692 C686 0.930 . S
H693 C685 0.931 . S
H694 C708 0.930 . S
H695 C675 0.930 . S
H696 C681 0.929 . S
H697 C682 0.930 . S
H698 C703 0.930 . S
H699 C678 0.930 . S
H700 C711 0.931 . S
N701 Tb672 2.617 . S
N701 C702 1.379 . S
N701 C705 1.334 . S
C702 N701 1.379 . S
C702 C704 1.416 . S
C702 C710 1.424 . S
C703 H698 0.930 . S
C703 C705 1.390 . S
C703 C706 1.339 . S
C704 C702 1.416 . S
C704 C706 1.416 . S
C704 C737 1.448 1_655 S
C705 H690 0.930 . S
C705 N701 1.334 . S
C705 C703 1.390 . S
C706 C703 1.339 . S
C706 C704 1.416 . S
C706 H713 0.930 1_655 S
N707 Tb672 2.572 . S
N707 C708 1.340 . S
N707 C710 1.361 . S
C708 H694 0.930 . S
C708 N707 1.340 . S
C708 C712 1.407 . S
C709 C710 1.435 . S
C709 C711 1.416 1_655 S
C709 C738 1.407 1_655 S
C710 C702 1.424 . S
C710 N707 1.361 . S
C710 C709 1.435 . S
C711 H700 0.931 . S
C711 C709 1.416 1_455 S
C711 C712 1.332 1_455 S
C712 H691 0.929 . S
C712 C708 1.407 . S
C712 C711 1.332 1_655 S
H713 C706 0.930 1_455 S
H714 C737 0.930 . S
H715 C738 0.929 . S
O716 Tb672 2.465 . S
O716 C736 1.264 . S
O717 Tb672 2.387 . S
O717 C728 1.264 . S
O718 Tb683 2.349 . S
O718 C728 1.243 . S
O719 Tb672 2.428 . S
O719 C736 1.256 . S
O720 Tb672 2.308 . S
O720 C735 1.266 . S
O721 Tb683 2.393 . S
O721 C735 1.248 . S
O722 Tb683 2.465 . S
O722 C747 1.264 . S
O723 Tb683 2.387 . S
O723 C739 1.264 . S
O724 Tb672 2.349 . S
O724 C739 1.243 . S
O725 Tb683 2.428 . S
O725 C747 1.256 . S
O726 Tb683 2.308 . S
O726 C746 1.266 . S
O727 Tb672 2.393 . S
O727 C746 1.248 . S
C728 O717 1.264 . S
C728 O718 1.243 . S
C729 C732 1.399 . S
C729 C734 1.383 . S
C729 C736 1.496 . S
C730 C731 1.399 . S
C730 C734 1.389 . S
C731 C730 1.399 . S
C731 C733 1.380 . S
C731 H748 0.929 . S
C732 C729 1.399 . S
C732 C733 1.392 . S
C732 H749 0.929 . S
C733 C731 1.380 . S
C733 C732 1.392 . S
C733 H750 0.929 . S
C734 C729 1.383 . S
C734 C730 1.389 . S
C734 H751 0.931 . S
C735 O720 1.266 . S
C735 O721 1.248 . S
C736 Tb672 2.802 . S
C736 O716 1.264 . S
C736 O719 1.256 . S
C736 C729 1.496 . S
C737 C704 1.448 1_455 S
C737 H714 0.930 . S
C737 C738 1.328 . S
C738 C709 1.407 1_455 S
C738 H715 0.929 . S
C738 C737 1.328 . S
C739 O723 1.264 . S
C739 O724 1.243 . S
C740 C743 1.399 . S
C740 C744 1.383 . S
C740 C747 1.496 . S
C741 C742 1.399 . S
C741 C744 1.389 1_554 S
C742 C741 1.399 . S
C742 C745 1.380 . S
C742 H752 0.929 . S
C743 C740 1.399 . S
C743 C745 1.392 1_556 S
C743 H753 0.929 . S
C744 C740 1.383 . S
C744 C741 1.389 1_556 S
C744 H754 0.931 . S
C745 C742 1.380 . S
C745 C743 1.392 1_554 S
C745 H755 0.929 . S
C746 O726 1.266 . S
C746 O727 1.248 . S
C747 Tb683 2.802 . S
C747 O722 1.264 . S
C747 O725 1.256 . S
C747 C740 1.496 . S
H748 C731 0.929 . S
H749 C732 0.929 . S
H750 C733 0.929 . S
H751 C734 0.931 . S
H752 C742 0.929 . S
H753 C743 0.929 . S
H754 C744 0.931 . S
H755 C745 0.929 . S
Tb756 N785 2.617 . S
Tb756 N791 2.572 . S
Tb756 O800 2.465 . S
Tb756 O801 2.387 . S
Tb756 O803 2.428 . S
Tb756 O804 2.308 . S
Tb756 O808 2.349 . S
Tb756 O811 2.393 . S
Tb756 C820 2.802 . S
C757 N758 1.379 . S
C757 C760 1.416 . S
C757 C764 1.424 . S
N758 C757 1.379 . S
N758 C761 1.334 . S
N758 Tb767 2.617 . S
C759 C761 1.390 . S
C759 C762 1.339 . S
C759 H779 0.930 . S
C760 C757 1.416 . S
C760 C762 1.416 . S
C760 C766 1.448 1_545 S
C761 N758 1.334 . S
C761 C759 1.390 . S
C761 H772 0.930 . S
C762 C759 1.339 . S
C762 C760 1.416 . S
C762 H783 0.930 1_545 S
C763 C764 1.435 . S
C763 C765 1.407 1_545 S
C763 C769 1.416 1_545 S
C764 C757 1.424 . S
C764 C763 1.435 . S
C764 N768 1.361 . S
C765 C763 1.407 1_565 S
C765 C766 1.328 . S
C765 H780 0.929 . S
C766 C760 1.448 1_565 S
C766 C765 1.328 . S
C766 H781 0.930 . S
Tb767 N758 2.617 . S
Tb767 N768 2.572 . S
Tb767 O802 2.349 . S
Tb767 O805 2.393 . S
Tb767 O806 2.465 . S
Tb767 O807 2.387 . S
Tb767 O809 2.428 . S
Tb767 O810 2.308 . S
Tb767 C831 2.802 . S
N768 C764 1.361 . S
N768 Tb767 2.572 . S
N768 C770 1.340 . S
C769 C763 1.416 1_565 S
C769 C771 1.332 1_565 S
C769 H777 0.931 . S
C770 N768 1.340 . S
C770 C771 1.407 . S
C770 H776 0.930 . S
C771 C769 1.332 1_545 S
C771 C770 1.407 . S
C771 H773 0.929 . S
H772 C761 0.930 . S
H773 C771 0.929 . S
H774 C789 0.930 . S
H775 C796 0.929 . S
H776 C770 0.930 . S
H777 C769 0.931 . S
H778 C792 0.930 . S
H779 C759 0.930 . S
H780 C765 0.929 . S
H781 C766 0.930 . S
H782 C787 0.930 . S
H783 C762 0.930 1_565 S
H784 C795 0.931 . S
N785 Tb756 2.617 . S
N785 C786 1.379 . S
N785 C789 1.334 . S
C786 N785 1.379 . S
C786 C788 1.416 . S
C786 C794 1.424 . S
C787 H782 0.930 . S
C787 C789 1.390 . S
C787 C790 1.339 . S
C788 C786 1.416 . S
C788 C790 1.416 . S
C788 C821 1.448 . S
C789 H774 0.930 . S
C789 N785 1.334 . S
C789 C787 1.390 . S
C790 C787 1.339 . S
C790 C788 1.416 . S
C790 H797 0.930 . S
N791 Tb756 2.572 . S
N791 C792 1.340 . S
N791 C794 1.361 . S
C792 H778 0.930 . S
C792 N791 1.340 . S
C792 C796 1.407 . S
C793 C794 1.413 . S
C793 C795 1.416 . S
C793 C822 1.427 . S
C794 C786 1.424 . S
C794 N791 1.361 . S
C794 C793 1.413 . S
C795 H784 0.931 . S
C795 C793 1.416 . S
C795 C796 1.332 . S
C796 H775 0.929 . S
C796 C792 1.407 . S
C796 C795 1.332 . S
H797 C790 0.930 . S
H798 C821 0.930 . S
H799 C822 0.929 . S
O800 Tb756 2.465 . S
O800 C820 1.264 . S
O801 Tb756 2.387 . S
O801 C812 1.264 . S
O802 Tb767 2.349 . S
O802 C812 1.243 . S
O803 Tb756 2.428 . S
O803 C820 1.256 . S
O804 Tb756 2.308 . S
O804 C819 1.266 . S
O805 Tb767 2.393 . S
O805 C819 1.248 . S
O806 Tb767 2.465 . S
O806 C831 1.264 . S
O807 Tb767 2.387 . S
O807 C823 1.264 . S
O808 Tb756 2.349 . S
O808 C823 1.243 . S
O809 Tb767 2.428 . S
O809 C831 1.256 . S
O810 Tb767 2.308 . S
O810 C830 1.266 . S
O811 Tb756 2.393 . S
O811 C830 1.248 . S
C812 O801 1.264 . S
C812 O802 1.243 . S
C813 C816 1.399 . S
C813 C818 1.383 . S
C813 C820 1.496 . S
C814 C815 1.399 . S
C814 C818 1.389 1_556 S
C815 C814 1.399 . S
C815 C817 1.380 . S
C815 H832 0.929 . S
C816 C813 1.399 . S
C816 C817 1.392 1_554 S
C816 H833 0.929 . S
C817 C815 1.380 . S
C817 C816 1.392 1_556 S
C817 H834 0.929 . S
C818 C813 1.383 . S
C818 C814 1.389 1_554 S
C818 H835 0.931 . S
C819 O804 1.266 . S
C819 O805 1.248 . S
C820 Tb756 2.802 . S
C820 O800 1.264 . S
C820 O803 1.256 . S
C820 C813 1.496 . S
C821 C788 1.448 . S
C821 H798 0.930 . S
C821 C822 1.328 . S
C822 C793 1.427 . S
C822 H799 0.929 . S
C822 C821 1.328 . S
C823 O807 1.264 . S
C823 O808 1.243 . S
C824 C827 1.399 . S
C824 C828 1.383 . S
C824 C831 1.496 . S
C825 C826 1.399 . S
C825 C828 1.389 . S
C826 C825 1.399 . S
C826 C829 1.380 . S
C826 H836 0.929 . S
C827 C824 1.399 . S
C827 C829 1.392 . S
C827 H837 0.929 . S
C828 C824 1.383 . S
C828 C825 1.389 . S
C828 H838 0.931 . S
C829 C826 1.380 . S
C829 C827 1.392 . S
C829 H839 0.929 . S
C830 O810 1.266 . S
C830 O811 1.248 . S
C831 Tb767 2.802 . S
C831 O806 1.264 . S
C831 O809 1.256 . S
C831 C824 1.496 . S
H832 C815 0.929 . S
H833 C816 0.929 . S
H834 C817 0.929 . S
H835 C818 0.931 . S
H836 C826 0.929 . S
H837 C827 0.929 . S
H838 C828 0.931 . S
H839 C829 0.929 . S
Tb840 N869 2.617 . S
Tb840 N875 2.572 . S
Tb840 O884 2.465 . S
Tb840 O885 2.387 . S
Tb840 O887 2.428 . S
Tb840 O888 2.308 . S
Tb840 O892 2.349 . S
Tb840 O895 2.393 . S
Tb840 C904 2.802 . S
C841 N842 1.379 . S
C841 C844 1.416 . S
C841 C848 1.424 . S
N842 C841 1.379 . S
N842 C845 1.334 . S
N842 Tb851 2.617 . S
C843 C845 1.390 . S
C843 C846 1.339 . S
C843 H863 0.930 . S
C844 C841 1.416 . S
C844 C846 1.416 . S
C844 C850 1.448 . S
C845 N842 1.334 . S
C845 C843 1.390 . S
C845 H856 0.930 . S
C846 C843 1.339 . S
C846 C844 1.416 . S
C846 H867 0.930 . S
C847 C848 1.413 . S
C847 C849 1.427 . S
C847 C853 1.416 . S
C848 C841 1.424 . S
C848 C847 1.413 . S
C848 N852 1.361 . S
C849 C847 1.427 . S
C849 C850 1.328 . S
C849 H864 0.929 . S
C850 C844 1.448 . S
C850 C849 1.328 . S
C850 H865 0.930 . S
Tb851 N842 2.617 . S
Tb851 N852 2.572 . S
Tb851 O886 2.349 . S
Tb851 O889 2.393 . S
Tb851 O890 2.465 . S
Tb851 O891 2.387 . S
Tb851 O893 2.428 . S
Tb851 O894 2.308 . S
Tb851 C915 2.802 . S
N852 C848 1.361 . S
N852 Tb851 2.572 . S
N852 C854 1.340 . S
C853 C847 1.416 . S
C853 C855 1.332 . S
C853 H861 0.931 . S
C854 N852 1.340 . S
C854 C855 1.407 . S
C854 H860 0.930 . S
C855 C853 1.332 . S
C855 C854 1.407 . S
C855 H857 0.929 . S
H856 C845 0.930 . S
H857 C855 0.929 . S
H858 C873 0.930 . S
H859 C880 0.929 . S
H860 C854 0.930 . S
H861 C853 0.931 . S
H862 C876 0.930 . S
H863 C843 0.930 . S
H864 C849 0.929 . S
H865 C850 0.930 . S
H866 C871 0.930 . S
H867 C846 0.930 . S
H868 C879 0.931 . S
N869 Tb840 2.617 . S
N869 C870 1.379 . S
N869 C873 1.334 . S
C870 N869 1.379 . S
C870 C872 1.416 . S
C870 C878 1.424 . S
C871 H866 0.930 . S
C871 C873 1.390 . S
C871 C874 1.339 . S
C872 C870 1.416 . S
C872 C874 1.416 . S
C872 C905 1.448 1_455 S
C873 H858 0.930 . S
C873 N869 1.334 . S
C873 C871 1.390 . S
C874 C871 1.339 . S
C874 C872 1.416 . S
C874 H881 0.930 1_455 S
N875 Tb840 2.572 . S
N875 C876 1.340 . S
N875 C878 1.361 . S
C876 H862 0.930 . S
C876 N875 1.340 . S
C876 C880 1.407 . S
C877 C878 1.435 . S
C877 C879 1.416 1_455 S
C877 C906 1.407 1_455 S
C878 C870 1.424 . S
C878 N875 1.361 . S
C878 C877 1.435 . S
C879 H868 0.931 . S
C879 C877 1.416 1_655 S
C879 C880 1.332 1_655 S
C880 H859 0.929 . S
C880 C876 1.407 . S
C880 C879 1.332 1_455 S
H881 C874 0.930 1_655 S
H882 C905 0.930 . S
H883 C906 0.929 . S
O884 Tb840 2.465 . S
O884 C904 1.264 . S
O885 Tb840 2.387 . S
O885 C896 1.264 . S
O886 Tb851 2.349 . S
O886 C896 1.243 . S
O887 Tb840 2.428 . S
O887 C904 1.256 . S
O888 Tb840 2.308 . S
O888 C903 1.266 . S
O889 Tb851 2.393 . S
O889 C903 1.248 . S
O890 Tb851 2.465 . S
O890 C915 1.264 . S
O891 Tb851 2.387 . S
O891 C907 1.264 . S
O892 Tb840 2.349 . S
O892 C907 1.243 . S
O893 Tb851 2.428 . S
O893 C915 1.256 . S
O894 Tb851 2.308 . S
O894 C914 1.266 . S
O895 Tb840 2.393 . S
O895 C914 1.248 . S
C896 O885 1.264 . S
C896 O886 1.243 . S
C897 C900 1.399 . S
C897 C902 1.383 . S
C897 C904 1.496 . S
C898 C899 1.399 . S
C898 C902 1.389 . S
C899 C898 1.399 . S
C899 C901 1.380 . S
C899 H916 0.929 . S
C900 C897 1.399 . S
C900 C901 1.392 . S
C900 H917 0.929 . S
C901 C899 1.380 . S
C901 C900 1.392 . S
C901 H918 0.929 . S
C902 C897 1.383 . S
C902 C898 1.389 . S
C902 H919 0.931 . S
C903 O888 1.266 . S
C903 O889 1.248 . S
C904 Tb840 2.802 . S
C904 O884 1.264 . S
C904 O887 1.256 . S
C904 C897 1.496 . S
C905 C872 1.448 1_655 S
C905 H882 0.930 . S
C905 C906 1.328 . S
C906 C877 1.407 1_655 S
C906 H883 0.929 . S
C906 C905 1.328 . S
C907 O891 1.264 . S
C907 O892 1.243 . S
C908 C911 1.399 . S
C908 C912 1.383 . S
C908 C915 1.496 . S
C909 C910 1.399 . S
C909 C912 1.389 1_554 S
C910 C909 1.399 . S
C910 C913 1.380 . S
C910 H920 0.929 . S
C911 C908 1.399 . S
C911 C913 1.392 1_556 S
C911 H921 0.929 . S
C912 C908 1.383 . S
C912 C909 1.389 1_556 S
C912 H922 0.931 . S
C913 C910 1.380 . S
C913 C911 1.392 1_554 S
C913 H923 0.929 . S
C914 O894 1.266 . S
C914 O895 1.248 . S
C915 Tb851 2.802 . S
C915 O890 1.264 . S
C915 O893 1.256 . S
C915 C908 1.496 . S
H916 C899 0.929 . S
H917 C900 0.929 . S
H918 C901 0.929 . S
H919 C902 0.931 . S
H920 C910 0.929 . S
H921 C911 0.929 . S
H922 C912 0.931 . S
H923 C913 0.929 . S
Tb924 N953 2.617 . S
Tb924 N959 2.572 . S
Tb924 O968 2.465 . S
Tb924 O969 2.387 . S
Tb924 O971 2.428 . S
Tb924 O972 2.308 . S
Tb924 O976 2.349 . S
Tb924 O979 2.393 . S
Tb924 C988 2.802 . S
C925 N926 1.379 . S
C925 C928 1.416 . S
C925 C932 1.424 . S
N926 C925 1.379 . S
N926 C929 1.334 . S
N926 Tb935 2.617 . S
C927 C929 1.390 . S
C927 C930 1.339 . S
C927 H947 0.930 . S
C928 C925 1.416 . S
C928 C930 1.416 . S
C928 C934 1.448 1_565 S
C929 N926 1.334 . S
C929 C927 1.390 . S
C929 H940 0.930 . S
C930 C927 1.339 . S
C930 C928 1.416 . S
C930 H951 0.930 1_565 S
C931 C932 1.435 . S
C931 C933 1.407 1_565 S
C931 C937 1.416 1_565 S
C932 C925 1.424 . S
C932 C931 1.435 . S
C932 N936 1.361 . S
C933 C931 1.407 1_545 S
C933 C934 1.328 . S
C933 H948 0.929 . S
C934 C928 1.448 1_545 S
C934 C933 1.328 . S
C934 H949 0.930 . S
Tb935 N926 2.617 . S
Tb935 N936 2.572 . S
Tb935 O970 2.349 . S
Tb935 O973 2.393 . S
Tb935 O974 2.465 . S
Tb935 O975 2.387 . S
Tb935 O977 2.428 . S
Tb935 O978 2.308 . S
Tb935 C999 2.802 . S
N936 C932 1.361 . S
N936 Tb935 2.572 . S
N936 C938 1.340 . S
C937 C931 1.416 1_545 S
C937 C939 1.332 1_545 S
C937 H945 0.931 . S
C938 N936 1.340 . S
C938 C939 1.407 . S
C938 H944 0.930 . S
C939 C937 1.332 1_565 S
C939 C938 1.407 . S
C939 H941 0.929 . S
H940 C929 0.930 . S
H941 C939 0.929 . S
H942 C957 0.930 . S
H943 C964 0.929 . S
H944 C938 0.930 . S
H945 C937 0.931 . S
H946 C960 0.930 . S
H947 C927 0.930 . S
H948 C933 0.929 . S
H949 C934 0.930 . S
H950 C955 0.930 . S
H951 C930 0.930 1_545 S
H952 C963 0.931 . S
N953 Tb924 2.617 . S
N953 C954 1.379 . S
N953 C957 1.334 . S
C954 N953 1.379 . S
C954 C956 1.416 . S
C954 C962 1.424 . S
C955 H950 0.930 . S
C955 C957 1.390 . S
C955 C958 1.339 . S
C956 C954 1.416 . S
C956 C958 1.416 . S
C956 C989 1.448 . S
C957 H942 0.930 . S
C957 N953 1.334 . S
C957 C955 1.390 . S
C958 C955 1.339 . S
C958 C956 1.416 . S
C958 H965 0.930 . S
N959 Tb924 2.572 . S
N959 C960 1.340 . S
N959 C962 1.361 . S
C960 H946 0.930 . S
C960 N959 1.340 . S
C960 C964 1.407 . S
C961 C962 1.413 . S
C961 C963 1.416 . S
C961 C990 1.427 . S
C962 C954 1.424 . S
C962 N959 1.361 . S
C962 C961 1.413 . S
C963 H952 0.931 . S
C963 C961 1.416 . S
C963 C964 1.332 . S
C964 H943 0.929 . S
C964 C960 1.407 . S
C964 C963 1.332 . S
H965 C958 0.930 . S
H966 C989 0.930 . S
H967 C990 0.929 . S
O968 Tb924 2.465 . S
O968 C988 1.264 . S
O969 Tb924 2.387 . S
O969 C980 1.264 . S
O970 Tb935 2.349 . S
O970 C980 1.243 . S
O971 Tb924 2.428 . S
O971 C988 1.256 . S
O972 Tb924 2.308 . S
O972 C987 1.266 . S
O973 Tb935 2.393 . S
O973 C987 1.248 . S
O974 Tb935 2.465 . S
O974 C999 1.264 . S
O975 Tb935 2.387 . S
O975 C991 1.264 . S
O976 Tb924 2.349 . S
O976 C991 1.243 . S
O977 Tb935 2.428 . S
O977 C999 1.256 . S
O978 Tb935 2.308 . S
O978 C998 1.266 . S
O979 Tb924 2.393 . S
O979 C998 1.248 . S
C980 O969 1.264 . S
C980 O970 1.243 . S
C981 C984 1.399 . S
C981 C986 1.383 . S
C981 C988 1.496 . S
C982 C983 1.399 . S
C982 C986 1.389 1_556 S
C983 C982 1.399 . S
C983 C985 1.380 . S
C983 H1000 0.929 . S
C984 C981 1.399 . S
C984 C985 1.392 1_554 S
C984 H1001 0.929 . S
C985 C983 1.380 . S
C985 C984 1.392 1_556 S
C985 H1002 0.929 . S
C986 C981 1.383 . S
C986 C982 1.389 1_554 S
C986 H1003 0.931 . S
C987 O972 1.266 . S
C987 O973 1.248 . S
C988 Tb924 2.802 . S
C988 O968 1.264 . S
C988 O971 1.256 . S
C988 C981 1.496 . S
C989 C956 1.448 . S
C989 H966 0.930 . S
C989 C990 1.328 . S
C990 C961 1.427 . S
C990 H967 0.929 . S
C990 C989 1.328 . S
C991 O975 1.264 . S
C991 O976 1.243 . S
C992 C995 1.399 . S
C992 C996 1.383 . S
C992 C999 1.496 . S
C993 C994 1.399 . S
C993 C996 1.389 . S
C994 C993 1.399 . S
C994 C997 1.380 . S
C994 H1004 0.929 . S
C995 C992 1.399 . S
C995 C997 1.392 . S
C995 H1005 0.929 . S
C996 C992 1.383 . S
C996 C993 1.389 . S
C996 H1006 0.931 . S
C997 C994 1.380 . S
C997 C995 1.392 . S
C997 H1007 0.929 . S
C998 O978 1.266 . S
C998 O979 1.248 . S
C999 Tb935 2.802 . S
C999 O974 1.264 . S
C999 O977 1.256 . S
C999 C992 1.496 . S
H1000 C983 0.929 . S
H1001 C984 0.929 . S
H1002 C985 0.929 . S
H1003 C986 0.931 . S
H1004 C994 0.929 . S
H1005 C995 0.929 . S
H1006 C996 0.931 . S
H1007 C997 0.929 . S
Tb1008 N1037 2.617 . S
Tb1008 N1043 2.572 . S
Tb1008 O1052 2.465 . S
Tb1008 O1053 2.387 . S
Tb1008 O1055 2.428 . S
Tb1008 O1056 2.308 . S
Tb1008 O1060 2.349 . S
Tb1008 O1063 2.393 . S
Tb1008 C1072 2.802 . S
C1009 N1010 1.379 . S
C1009 C1012 1.416 . S
C1009 C1016 1.424 . S
N1010 C1009 1.379 . S
N1010 C1013 1.334 . S
N1010 Tb1019 2.617 . S
C1011 C1013 1.390 . S
C1011 C1014 1.339 . S
C1011 H1031 0.930 . S
C1012 C1009 1.416 . S
C1012 C1014 1.416 . S
C1012 C1018 1.448 . S
C1013 N1010 1.334 . S
C1013 C1011 1.390 . S
C1013 H1024 0.930 . S
C1014 C1011 1.339 . S
C1014 C1012 1.416 . S
C1014 H1035 0.930 . S
C1015 C1016 1.413 . S
C1015 C1017 1.427 . S
C1015 C1021 1.416 . S
C1016 C1009 1.424 . S
C1016 C1015 1.413 . S
C1016 N1020 1.361 . S
C1017 C1015 1.427 . S
C1017 C1018 1.328 . S
C1017 H1032 0.929 . S
C1018 C1012 1.448 . S
C1018 C1017 1.328 . S
C1018 H1033 0.930 . S
Tb1019 N1010 2.617 . S
Tb1019 N1020 2.572 . S
Tb1019 O1054 2.349 . S
Tb1019 O1057 2.393 . S
Tb1019 O1058 2.465 . S
Tb1019 O1059 2.387 . S
Tb1019 O1061 2.428 . S
Tb1019 O1062 2.308 . S
Tb1019 C1083 2.802 . S
N1020 C1016 1.361 . S
N1020 Tb1019 2.572 . S
N1020 C1022 1.340 . S
C1021 C1015 1.416 . S
C1021 C1023 1.332 . S
C1021 H1029 0.931 . S
C1022 N1020 1.340 . S
C1022 C1023 1.407 . S
C1022 H1028 0.930 . S
C1023 C1021 1.332 . S
C1023 C1022 1.407 . S
C1023 H1025 0.929 . S
H1024 C1013 0.930 . S
H1025 C1023 0.929 . S
H1026 C1041 0.930 . S
H1027 C1048 0.929 . S
H1028 C1022 0.930 . S
H1029 C1021 0.931 . S
H1030 C1044 0.930 . S
H1031 C1011 0.930 . S
H1032 C1017 0.929 . S
H1033 C1018 0.930 . S
H1034 C1039 0.930 . S
H1035 C1014 0.930 . S
H1036 C1047 0.931 . S
N1037 Tb1008 2.617 . S
N1037 C1038 1.379 . S
N1037 C1041 1.334 . S
C1038 N1037 1.379 . S
C1038 C1040 1.416 . S
C1038 C1046 1.424 . S
C1039 H1034 0.930 . S
C1039 C1041 1.390 1_545 S
C1039 C1042 1.339 1_545 S
C1040 C1038 1.416 . S
C1040 C1042 1.416 . S
C1040 C1073 1.448 1_655 S
C1041 H1026 0.930 . S
C1041 N1037 1.334 . S
C1041 C1039 1.390 1_565 S
C1042 C1039 1.339 1_565 S
C1042 C1040 1.416 . S
C1042 H1049 0.930 1_665 S
N1043 Tb1008 2.572 . S
N1043 C1044 1.340 . S
N1043 C1046 1.361 . S
C1044 H1030 0.930 . S
C1044 N1043 1.340 . S
C1044 C1048 1.407 . S
C1045 C1046 1.435 . S
C1045 C1047 1.416 1_655 S
C1045 C1074 1.407 1_655 S
C1046 C1038 1.424 . S
C1046 N1043 1.361 . S
C1046 C1045 1.435 . S
C1047 H1036 0.931 . S
C1047 C1045 1.416 1_455 S
C1047 C1048 1.332 1_455 S
C1048 H1027 0.929 . S
C1048 C1044 1.407 . S
C1048 C1047 1.332 1_655 S
H1049 C1042 0.930 1_445 S
H1050 C1073 0.930 . S
H1051 C1074 0.929 . S
O1052 Tb1008 2.465 . S
O1052 C1072 1.264 . S
O1053 Tb1008 2.387 . S
O1053 C1064 1.264 . S
O1054 Tb1019 2.349 . S
O1054 C1064 1.243 . S
O1055 Tb1008 2.428 . S
O1055 C1072 1.256 . S
O1056 Tb1008 2.308 . S
O1056 C1071 1.266 . S
O1057 Tb1019 2.393 . S
O1057 C1071 1.248 . S
O1058 Tb1019 2.465 . S
O1058 C1083 1.264 . S
O1059 Tb1019 2.387 . S
O1059 C1075 1.264 . S
O1060 Tb1008 2.349 . S
O1060 C1075 1.243 . S
O1061 Tb1019 2.428 . S
O1061 C1083 1.256 . S
O1062 Tb1019 2.308 . S
O1062 C1082 1.266 . S
O1063 Tb1008 2.393 . S
O1063 C1082 1.248 . S
C1064 O1053 1.264 . S
C1064 O1054 1.243 . S
C1065 C1068 1.399 . S
C1065 C1070 1.383 . S
C1065 C1072 1.496 . S
C1066 C1067 1.399 . S
C1066 C1070 1.389 1_554 S
C1067 C1066 1.399 . S
C1067 C1069 1.380 . S
C1067 H1084 0.929 . S
C1068 C1065 1.399 . S
C1068 C1069 1.392 1_556 S
C1068 H1085 0.929 . S
C1069 C1067 1.380 . S
C1069 C1068 1.392 1_554 S
C1069 H1086 0.929 . S
C1070 C1065 1.383 . S
C1070 C1066 1.389 1_556 S
C1070 H1087 0.931 . S
C1071 O1056 1.266 . S
C1071 O1057 1.248 . S
C1072 Tb1008 2.802 . S
C1072 O1052 1.264 . S
C1072 O1055 1.256 . S
C1072 C1065 1.496 . S
C1073 C1040 1.448 1_455 S
C1073 H1050 0.930 . S
C1073 C1074 1.328 . S
C1074 C1045 1.407 1_455 S
C1074 H1051 0.929 . S
C1074 C1073 1.328 . S
C1075 O1059 1.264 . S
C1075 O1060 1.243 . S
C1076 C1079 1.399 . S
C1076 C1080 1.383 . S
C1076 C1083 1.496 . S
C1077 C1078 1.399 . S
C1077 C1080 1.389 . S
C1078 C1077 1.399 . S
C1078 C1081 1.380 . S
C1078 H1088 0.929 . S
C1079 C1076 1.399 . S
C1079 C1081 1.392 . S
C1079 H1089 0.929 . S
C1080 C1076 1.383 . S
C1080 C1077 1.389 . S
C1080 H1090 0.931 . S
C1081 C1078 1.380 . S
C1081 C1079 1.392 . S
C1081 H1091 0.929 . S
C1082 O1062 1.266 . S
C1082 O1063 1.248 . S
C1083 Tb1019 2.802 . S
C1083 O1058 1.264 . S
C1083 O1061 1.256 . S
C1083 C1076 1.496 . S
H1084 C1067 0.929 . S
H1085 C1068 0.929 . S
H1086 C1069 0.929 . S
H1087 C1070 0.931 . S
H1088 C1078 0.929 . S
H1089 C1079 0.929 . S
H1090 C1080 0.931 . S
H1091 C1081 0.929 . S
Tb1092 N1121 2.617 . S
Tb1092 N1127 2.572 . S
Tb1092 O1136 2.465 . S
Tb1092 O1137 2.387 . S
Tb1092 O1139 2.428 . S
Tb1092 O1140 2.308 . S
Tb1092 O1144 2.349 . S
Tb1092 O1147 2.393 . S
Tb1092 C1156 2.802 . S
C1093 N1094 1.379 . S
C1093 C1096 1.416 . S
C1093 C1100 1.424 . S
N1094 C1093 1.379 . S
N1094 C1097 1.334 . S
N1094 Tb1103 2.617 . S
C1095 C1097 1.390 1_455 S
C1095 C1098 1.339 1_455 S
C1095 H1115 0.930 . S
C1096 C1093 1.416 . S
C1096 C1098 1.416 . S
C1096 C1102 1.448 1_545 S
C1097 N1094 1.334 . S
C1097 C1095 1.390 1_655 S
C1097 H1108 0.930 . S
C1098 C1095 1.339 1_655 S
C1098 C1096 1.416 . S
C1098 H1119 0.930 1_645 S
C1099 C1100 1.435 . S
C1099 C1101 1.407 1_545 S
C1099 C1105 1.416 1_545 S
C1100 C1093 1.424 . S
C1100 C1099 1.435 . S
C1100 N1104 1.361 . S
C1101 C1099 1.407 1_565 S
C1101 C1102 1.328 . S
C1101 H1116 0.929 . S
C1102 C1096 1.448 1_565 S
C1102 C1101 1.328 . S
C1102 H1117 0.930 . S
Tb1103 N1094 2.617 . S
Tb1103 N1104 2.572 . S
Tb1103 O1138 2.349 . S
Tb1103 O1141 2.393 . S
Tb1103 O1142 2.465 . S
Tb1103 O1143 2.387 . S
Tb1103 O1145 2.428 . S
Tb1103 O1146 2.308 . S
Tb1103 C1167 2.802 . S
N1104 C1100 1.361 . S
N1104 Tb1103 2.572 . S
N1104 C1106 1.340 . S
C1105 C1099 1.416 1_565 S
C1105 C1107 1.332 1_565 S
C1105 H1113 0.931 . S
C1106 N1104 1.340 . S
C1106 C1107 1.407 . S
C1106 H1112 0.930 . S
C1107 C1105 1.332 1_545 S
C1107 C1106 1.407 . S
C1107 H1109 0.929 . S
H1108 C1097 0.930 . S
H1109 C1107 0.929 . S
H1110 C1125 0.930 . S
H1111 C1132 0.929 . S
H1112 C1106 0.930 . S
H1113 C1105 0.931 . S
H1114 C1128 0.930 . S
H1115 C1095 0.930 . S
H1116 C1101 0.929 . S
H1117 C1102 0.930 . S
H1118 C1123 0.930 . S
H1119 C1098 0.930 1_465 S
H1120 C1131 0.931 . S
N1121 Tb1092 2.617 . S
N1121 C1122 1.379 . S
N1121 C1125 1.334 . S
C1122 N1121 1.379 . S
C1122 C1124 1.416 . S
C1122 C1130 1.424 . S
C1123 H1118 0.930 . S
C1123 C1125 1.390 . S
C1123 C1126 1.339 . S
C1124 C1122 1.416 . S
C1124 C1126 1.416 . S
C1124 C1157 1.448 . S
C1125 H1110 0.930 . S
C1125 N1121 1.334 . S
C1125 C1123 1.390 . S
C1126 C1123 1.339 . S
C1126 C1124 1.416 . S
C1126 H1133 0.930 . S
N1127 Tb1092 2.572 . S
N1127 C1128 1.340 . S
N1127 C1130 1.361 . S
C1128 H1114 0.930 . S
C1128 N1127 1.340 . S
C1128 C1132 1.407 . S
C1129 C1130 1.413 . S
C1129 C1131 1.416 . S
C1129 C1158 1.427 . S
C1130 C1122 1.424 . S
C1130 N1127 1.361 . S
C1130 C1129 1.413 . S
C1131 H1120 0.931 . S
C1131 C1129 1.416 . S
C1131 C1132 1.332 . S
C1132 H1111 0.929 . S
C1132 C1128 1.407 . S
C1132 C1131 1.332 . S
H1133 C1126 0.930 . S
H1134 C1157 0.930 . S
H1135 C1158 0.929 . S
O1136 Tb1092 2.465 . S
O1136 C1156 1.264 . S
O1137 Tb1092 2.387 . S
O1137 C1148 1.264 . S
O1138 Tb1103 2.349 . S
O1138 C1148 1.243 . S
O1139 Tb1092 2.428 . S
O1139 C1156 1.256 . S
O1140 Tb1092 2.308 . S
O1140 C1155 1.266 . S
O1141 Tb1103 2.393 . S
O1141 C1155 1.248 . S
O1142 Tb1103 2.465 . S
O1142 C1167 1.264 . S
O1143 Tb1103 2.387 . S
O1143 C1159 1.264 . S
O1144 Tb1092 2.349 . S
O1144 C1159 1.243 . S
O1145 Tb1103 2.428 . S
O1145 C1167 1.256 . S
O1146 Tb1103 2.308 . S
O1146 C1166 1.266 . S
O1147 Tb1092 2.393 . S
O1147 C1166 1.248 . S
C1148 O1137 1.264 . S
C1148 O1138 1.243 . S
C1149 C1152 1.399 . S
C1149 C1154 1.383 . S
C1149 C1156 1.496 . S
C1150 C1151 1.399 . S
C1150 C1154 1.389 . S
C1151 C1150 1.399 . S
C1151 C1153 1.380 . S
C1151 H1168 0.929 . S
C1152 C1149 1.399 . S
C1152 C1153 1.392 . S
C1152 H1169 0.929 . S
C1153 C1151 1.380 . S
C1153 C1152 1.392 . S
C1153 H1170 0.929 . S
C1154 C1149 1.383 . S
C1154 C1150 1.389 . S
C1154 H1171 0.931 . S
C1155 O1140 1.266 . S
C1155 O1141 1.248 . S
C1156 Tb1092 2.802 . S
C1156 O1136 1.264 . S
C1156 O1139 1.256 . S
C1156 C1149 1.496 . S
C1157 C1124 1.448 . S
C1157 H1134 0.930 . S
C1157 C1158 1.328 . S
C1158 C1129 1.427 . S
C1158 H1135 0.929 . S
C1158 C1157 1.328 . S
C1159 O1143 1.264 . S
C1159 O1144 1.243 . S
C1160 C1163 1.399 . S
C1160 C1164 1.383 . S
C1160 C1167 1.496 . S
C1161 C1162 1.399 . S
C1161 C1164 1.389 1_556 S
C1162 C1161 1.399 . S
C1162 C1165 1.380 . S
C1162 H1172 0.929 . S
C1163 C1160 1.399 . S
C1163 C1165 1.392 1_554 S
C1163 H1173 0.929 . S
C1164 C1160 1.383 . S
C1164 C1161 1.389 1_554 S
C1164 H1174 0.931 . S
C1165 C1162 1.380 . S
C1165 C1163 1.392 1_556 S
C1165 H1175 0.929 . S
C1166 O1146 1.266 . S
C1166 O1147 1.248 . S
C1167 Tb1103 2.802 . S
C1167 O1142 1.264 . S
C1167 O1145 1.256 . S
C1167 C1160 1.496 . S
H1168 C1151 0.929 . S
H1169 C1152 0.929 . S
H1170 C1153 0.929 . S
H1171 C1154 0.931 . S
H1172 C1162 0.929 . S
H1173 C1163 0.929 . S
H1174 C1164 0.931 . S
H1175 C1165 0.929 . S
Tb1176 N1205 2.617 . S
Tb1176 N1211 2.572 . S
Tb1176 O1220 2.465 . S
Tb1176 O1221 2.387 . S
Tb1176 O1223 2.428 . S
Tb1176 O1224 2.308 . S
Tb1176 O1228 2.349 . S
Tb1176 O1231 2.393 . S
Tb1176 C1240 2.802 . S
C1177 N1178 1.379 . S
C1177 C1180 1.416 . S
C1177 C1184 1.424 . S
N1178 C1177 1.379 . S
N1178 C1181 1.334 . S
N1178 Tb1187 2.617 . S
C1179 C1181 1.390 . S
C1179 C1182 1.339 . S
C1179 H1199 0.930 . S
C1180 C1177 1.416 . S
C1180 C1182 1.416 . S
C1180 C1186 1.448 . S
C1181 N1178 1.334 . S
C1181 C1179 1.390 . S
C1181 H1192 0.930 . S
C1182 C1179 1.339 . S
C1182 C1180 1.416 . S
C1182 H1203 0.930 . S
C1183 C1184 1.413 . S
C1183 C1185 1.427 . S
C1183 C1189 1.416 . S
C1184 C1177 1.424 . S
C1184 C1183 1.413 . S
C1184 N1188 1.361 . S
C1185 C1183 1.427 . S
C1185 C1186 1.328 . S
C1185 H1200 0.929 . S
C1186 C1180 1.448 . S
C1186 C1185 1.328 . S
C1186 H1201 0.930 . S
Tb1187 N1178 2.617 . S
Tb1187 N1188 2.572 . S
Tb1187 O1222 2.349 . S
Tb1187 O1225 2.393 . S
Tb1187 O1226 2.465 . S
Tb1187 O1227 2.387 . S
Tb1187 O1229 2.428 . S
Tb1187 O1230 2.308 . S
Tb1187 C1251 2.802 . S
N1188 C1184 1.361 . S
N1188 Tb1187 2.572 . S
N1188 C1190 1.340 . S
C1189 C1183 1.416 . S
C1189 C1191 1.332 . S
C1189 H1197 0.931 . S
C1190 N1188 1.340 . S
C1190 C1191 1.407 . S
C1190 H1196 0.930 . S
C1191 C1189 1.332 . S
C1191 C1190 1.407 . S
C1191 H1193 0.929 . S
H1192 C1181 0.930 . S
H1193 C1191 0.929 . S
H1194 C1209 0.930 . S
H1195 C1216 0.929 . S
H1196 C1190 0.930 . S
H1197 C1189 0.931 . S
H1198 C1212 0.930 . S
H1199 C1179 0.930 . S
H1200 C1185 0.929 . S
H1201 C1186 0.930 . S
H1202 C1207 0.930 . S
H1203 C1182 0.930 . S
H1204 C1215 0.931 . S
N1205 Tb1176 2.617 . S
N1205 C1206 1.379 . S
N1205 C1209 1.334 . S
C1206 N1205 1.379 . S
C1206 C1208 1.416 . S
C1206 C1214 1.424 . S
C1207 H1202 0.930 . S
C1207 C1209 1.390 1_565 S
C1207 C1210 1.339 1_565 S
C1208 C1206 1.416 . S
C1208 C1210 1.416 . S
C1208 C1241 1.448 1_455 S
C1209 H1194 0.930 . S
C1209 N1205 1.334 . S
C1209 C1207 1.390 1_545 S
C1210 C1207 1.339 1_545 S
C1210 C1208 1.416 . S
C1210 H1217 0.930 1_445 S
N1211 Tb1176 2.572 . S
N1211 C1212 1.340 . S
N1211 C1214 1.361 . S
C1212 H1198 0.930 . S
C1212 N1211 1.340 . S
C1212 C1216 1.407 . S
C1213 C1214 1.435 . S
C1213 C1215 1.416 1_455 S
C1213 C1242 1.407 1_455 S
C1214 C1206 1.424 . S
C1214 N1211 1.361 . S
C1214 C1213 1.435 . S
C1215 H1204 0.931 . S
C1215 C1213 1.416 1_655 S
C1215 C1216 1.332 1_655 S
C1216 H1195 0.929 . S
C1216 C1212 1.407 . S
C1216 C1215 1.332 1_455 S
H1217 C1210 0.930 1_665 S
H1218 C1241 0.930 . S
H1219 C1242 0.929 . S
O1220 Tb1176 2.465 . S
O1220 C1240 1.264 . S
O1221 Tb1176 2.387 . S
O1221 C1232 1.264 . S
O1222 Tb1187 2.349 . S
O1222 C1232 1.243 . S
O1223 Tb1176 2.428 . S
O1223 C1240 1.256 . S
O1224 Tb1176 2.308 . S
O1224 C1239 1.266 . S
O1225 Tb1187 2.393 . S
O1225 C1239 1.248 . S
O1226 Tb1187 2.465 . S
O1226 C1251 1.264 . S
O1227 Tb1187 2.387 . S
O1227 C1243 1.264 . S
O1228 Tb1176 2.349 . S
O1228 C1243 1.243 . S
O1229 Tb1187 2.428 . S
O1229 C1251 1.256 . S
O1230 Tb1187 2.308 . S
O1230 C1250 1.266 . S
O1231 Tb1176 2.393 . S
O1231 C1250 1.248 . S
C1232 O1221 1.264 . S
C1232 O1222 1.243 . S
C1233 C1236 1.399 . S
C1233 C1238 1.383 . S
C1233 C1240 1.496 . S
C1234 C1235 1.399 . S
C1234 C1238 1.389 1_554 S
C1235 C1234 1.399 . S
C1235 C1237 1.380 . S
C1235 H1252 0.929 . S
C1236 C1233 1.399 . S
C1236 C1237 1.392 1_556 S
C1236 H1253 0.929 . S
C1237 C1235 1.380 . S
C1237 C1236 1.392 1_554 S
C1237 H1254 0.929 . S
C1238 C1233 1.383 . S
C1238 C1234 1.389 1_556 S
C1238 H1255 0.931 . S
C1239 O1224 1.266 . S
C1239 O1225 1.248 . S
C1240 Tb1176 2.802 . S
C1240 O1220 1.264 . S
C1240 O1223 1.256 . S
C1240 C1233 1.496 . S
C1241 C1208 1.448 1_655 S
C1241 H1218 0.930 . S
C1241 C1242 1.328 . S
C1242 C1213 1.407 1_655 S
C1242 H1219 0.929 . S
C1242 C1241 1.328 . S
C1243 O1227 1.264 . S
C1243 O1228 1.243 . S
C1244 C1247 1.399 . S
C1244 C1248 1.383 . S
C1244 C1251 1.496 . S
C1245 C1246 1.399 . S
C1245 C1248 1.389 . S
C1246 C1245 1.399 . S
C1246 C1249 1.380 . S
C1246 H1256 0.929 . S
C1247 C1244 1.399 . S
C1247 C1249 1.392 . S
C1247 H1257 0.929 . S
C1248 C1244 1.383 . S
C1248 C1245 1.389 . S
C1248 H1258 0.931 . S
C1249 C1246 1.380 . S
C1249 C1247 1.392 . S
C1249 H1259 0.929 . S
C1250 O1230 1.266 . S
C1250 O1231 1.248 . S
C1251 Tb1187 2.802 . S
C1251 O1226 1.264 . S
C1251 O1229 1.256 . S
C1251 C1244 1.496 . S
H1252 C1235 0.929 . S
H1253 C1236 0.929 . S
H1254 C1237 0.929 . S
H1255 C1238 0.931 . S
H1256 C1246 0.929 . S
H1257 C1247 0.929 . S
H1258 C1248 0.931 . S
H1259 C1249 0.929 . S
Tb1260 N1289 2.617 . S
Tb1260 N1295 2.572 . S
Tb1260 O1304 2.465 . S
Tb1260 O1305 2.387 . S
Tb1260 O1307 2.428 . S
Tb1260 O1308 2.308 . S
Tb1260 O1312 2.349 . S
Tb1260 O1315 2.393 . S
Tb1260 C1324 2.802 . S
C1261 N1262 1.379 . S
C1261 C1264 1.416 . S
C1261 C1268 1.424 . S
N1262 C1261 1.379 . S
N1262 C1265 1.334 . S
N1262 Tb1271 2.617 . S
C1263 C1265 1.390 1_655 S
C1263 C1266 1.339 1_655 S
C1263 H1283 0.930 . S
C1264 C1261 1.416 . S
C1264 C1266 1.416 . S
C1264 C1270 1.448 1_565 S
C1265 N1262 1.334 . S
C1265 C1263 1.390 1_455 S
C1265 H1276 0.930 . S
C1266 C1263 1.339 1_455 S
C1266 C1264 1.416 . S
C1266 H1287 0.930 1_465 S
C1267 C1268 1.435 . S
C1267 C1269 1.407 1_565 S
C1267 C1273 1.416 1_565 S
C1268 C1261 1.424 . S
C1268 C1267 1.435 . S
C1268 N1272 1.361 . S
C1269 C1267 1.407 1_545 S
C1269 C1270 1.328 . S
C1269 H1284 0.929 . S
C1270 C1264 1.448 1_545 S
C1270 C1269 1.328 . S
C1270 H1285 0.930 . S
Tb1271 N1262 2.617 . S
Tb1271 N1272 2.572 . S
Tb1271 O1306 2.349 . S
Tb1271 O1309 2.393 . S
Tb1271 O1310 2.465 . S
Tb1271 O1311 2.387 . S
Tb1271 O1313 2.428 . S
Tb1271 O1314 2.308 . S
Tb1271 C1335 2.802 . S
N1272 C1268 1.361 . S
N1272 Tb1271 2.572 . S
N1272 C1274 1.340 . S
C1273 C1267 1.416 1_545 S
C1273 C1275 1.332 1_545 S
C1273 H1281 0.931 . S
C1274 N1272 1.340 . S
C1274 C1275 1.407 . S
C1274 H1280 0.930 . S
C1275 C1273 1.332 1_565 S
C1275 C1274 1.407 . S
C1275 H1277 0.929 . S
H1276 C1265 0.930 . S
H1277 C1275 0.929 . S
H1278 C1293 0.930 . S
H1279 C1300 0.929 . S
H1280 C1274 0.930 . S
H1281 C1273 0.931 . S
H1282 C1296 0.930 . S
H1283 C1263 0.930 . S
H1284 C1269 0.929 . S
H1285 C1270 0.930 . S
H1286 C1291 0.930 . S
H1287 C1266 0.930 1_645 S
H1288 C1299 0.931 . S
N1289 Tb1260 2.617 . S
N1289 C1290 1.379 . S
N1289 C1293 1.334 . S
C1290 N1289 1.379 . S
C1290 C1292 1.416 . S
C1290 C1298 1.424 . S
C1291 H1286 0.930 . S
C1291 C1293 1.390 . S
C1291 C1294 1.339 . S
C1292 C1290 1.416 . S
C1292 C1294 1.416 . S
C1292 C1325 1.448 . S
C1293 H1278 0.930 . S
C1293 N1289 1.334 . S
C1293 C1291 1.390 . S
C1294 C1291 1.339 . S
C1294 C1292 1.416 . S
C1294 H1301 0.930 . S
N1295 Tb1260 2.572 . S
N1295 C1296 1.340 . S
N1295 C1298 1.361 . S
C1296 H1282 0.930 . S
C1296 N1295 1.340 . S
C1296 C1300 1.407 . S
C1297 C1298 1.413 . S
C1297 C1299 1.416 . S
C1297 C1326 1.427 . S
C1298 C1290 1.424 . S
C1298 N1295 1.361 . S
C1298 C1297 1.413 . S
C1299 H1288 0.931 . S
C1299 C1297 1.416 . S
C1299 C1300 1.332 . S
C1300 H1279 0.929 . S
C1300 C1296 1.407 . S
C1300 C1299 1.332 . S
H1301 C1294 0.930 . S
H1302 C1325 0.930 . S
H1303 C1326 0.929 . S
O1304 Tb1260 2.465 . S
O1304 C1324 1.264 . S
O1305 Tb1260 2.387 . S
O1305 C1316 1.264 . S
O1306 Tb1271 2.349 . S
O1306 C1316 1.243 . S
O1307 Tb1260 2.428 . S
O1307 C1324 1.256 . S
O1308 Tb1260 2.308 . S
O1308 C1323 1.266 . S
O1309 Tb1271 2.393 . S
O1309 C1323 1.248 . S
O1310 Tb1271 2.465 . S
O1310 C1335 1.264 . S
O1311 Tb1271 2.387 . S
O1311 C1327 1.264 . S
O1312 Tb1260 2.349 . S
O1312 C1327 1.243 . S
O1313 Tb1271 2.428 . S
O1313 C1335 1.256 . S
O1314 Tb1271 2.308 . S
O1314 C1334 1.266 . S
O1315 Tb1260 2.393 . S
O1315 C1334 1.248 . S
C1316 O1305 1.264 . S
C1316 O1306 1.243 . S
C1317 C1320 1.399 . S
C1317 C1322 1.383 . S
C1317 C1324 1.496 . S
C1318 C1319 1.399 . S
C1318 C1322 1.389 . S
C1319 C1318 1.399 . S
C1319 C1321 1.380 . S
C1319 H1336 0.929 . S
C1320 C1317 1.399 . S
C1320 C1321 1.392 . S
C1320 H1337 0.929 . S
C1321 C1319 1.380 . S
C1321 C1320 1.392 . S
C1321 H1338 0.929 . S
C1322 C1317 1.383 . S
C1322 C1318 1.389 . S
C1322 H1339 0.931 . S
C1323 O1308 1.266 . S
C1323 O1309 1.248 . S
C1324 Tb1260 2.802 . S
C1324 O1304 1.264 . S
C1324 O1307 1.256 . S
C1324 C1317 1.496 . S
C1325 C1292 1.448 . S
C1325 H1302 0.930 . S
C1325 C1326 1.328 . S
C1326 C1297 1.427 . S
C1326 H1303 0.929 . S
C1326 C1325 1.328 . S
C1327 O1311 1.264 . S
C1327 O1312 1.243 . S
C1328 C1331 1.399 . S
C1328 C1332 1.383 . S
C1328 C1335 1.496 . S
C1329 C1330 1.399 . S
C1329 C1332 1.389 1_556 S
C1330 C1329 1.399 . S
C1330 C1333 1.380 . S
C1330 H1340 0.929 . S
C1331 C1328 1.399 . S
C1331 C1333 1.392 1_554 S
C1331 H1341 0.929 . S
C1332 C1328 1.383 . S
C1332 C1329 1.389 1_554 S
C1332 H1342 0.931 . S
C1333 C1330 1.380 . S
C1333 C1331 1.392 1_556 S
C1333 H1343 0.929 . S
C1334 O1314 1.266 . S
C1334 O1315 1.248 . S
C1335 Tb1271 2.802 . S
C1335 O1310 1.264 . S
C1335 O1313 1.256 . S
C1335 C1328 1.496 . S
H1336 C1319 0.929 . S
H1337 C1320 0.929 . S
H1338 C1321 0.929 . S
H1339 C1322 0.931 . S
H1340 C1330 0.929 . S
H1341 C1331 0.929 . S
H1342 C1332 0.931 . S
H1343 C1333 0.929 . S
C1344 C1345 1.363 . S
C1344 C1350 1.379 . S
C1344 N1352 1.356 . S
C1345 C1344 1.363 . S
C1345 C1351 1.363 . S
C1346 C1347 1.363 . S
C1346 C1351 1.379 . S
C1346 N1353 1.356 . S
C1347 C1346 1.363 . S
C1347 C1350 1.363 . S
N1348 C1350 1.356 1_545 S
N1348 H1360 0.984 . S
N1348 H1361 0.985 . S
N1349 C1351 1.356 . S
N1349 H1354 0.984 . S
N1349 H1355 0.985 . S
C1350 C1344 1.379 . S
C1350 C1347 1.363 . S
C1350 N1348 1.356 1_565 S
C1351 C1345 1.363 . S
C1351 C1346 1.379 . S
C1351 N1349 1.356 . S
N1352 C1344 1.356 . S
N1352 H1358 0.984 . S
N1352 H1359 0.984 . S
N1353 C1346 1.356 . S
N1353 H1356 0.984 1_565 S
N1353 H1357 0.985 . S
H1354 N1349 0.984 . S
H1355 N1349 0.985 . S
H1356 N1353 0.984 1_545 S
H1357 N1353 0.985 . S
H1358 N1352 0.984 . S
H1359 N1352 0.984 . S
H1360 N1348 0.984 . S
H1361 N1348 0.985 . S
C1362 C1363 1.363 . S
C1362 C1368 1.379 . S
C1362 N1370 1.356 . S
C1363 C1362 1.363 . S
C1363 C1369 1.363 . S
C1364 C1365 1.363 . S
C1364 C1369 1.379 . S
C1364 N1371 1.356 1_655 S
C1365 C1364 1.363 . S
C1365 C1368 1.363 . S
N1366 C1368 1.356 . S
N1366 H1378 0.984 . S
N1366 H1379 0.985 1_655 S
N1367 C1369 1.356 . S
N1367 H1372 0.984 . S
N1367 H1373 0.985 . S
C1368 C1362 1.379 . S
C1368 C1365 1.363 . S
C1368 N1366 1.356 . S
C1369 C1363 1.363 . S
C1369 C1364 1.379 . S
C1369 N1367 1.356 . S
N1370 C1362 1.356 . S
N1370 H1376 0.984 . S
N1370 H1377 0.984 . S
N1371 C1364 1.356 1_455 S
N1371 H1374 0.984 . S
N1371 H1375 0.985 . S
H1372 N1367 0.984 . S
H1373 N1367 0.985 . S
H1374 N1371 0.984 . S
H1375 N1371 0.985 . S
H1376 N1370 0.984 . S
H1377 N1370 0.984 . S
H1378 N1366 0.984 . S
H1379 N1366 0.985 1_455 S
C1380 C1381 1.363 . S
C1380 C1386 1.379 . S
C1380 N1388 1.356 1_545 S
C1381 C1380 1.363 . S
C1381 C1387 1.363 . S
C1382 C1383 1.363 . S
C1382 C1387 1.379 . S
C1382 N1389 1.356 . S
C1383 C1382 1.363 . S
C1383 C1386 1.363 . S
N1384 C1386 1.356 . S
N1384 H1396 0.984 . S
N1384 H1397 0.985 . S
N1385 C1387 1.356 . S
N1385 H1390 0.984 1_545 S
N1385 H1391 0.985 . S
C1386 C1380 1.379 . S
C1386 C1383 1.363 . S
C1386 N1384 1.356 . S
C1387 C1381 1.363 . S
C1387 C1382 1.379 . S
C1387 N1385 1.356 . S
N1388 C1380 1.356 1_565 S
N1388 H1394 0.984 . S
N1388 H1395 0.984 . S
N1389 C1382 1.356 . S
N1389 H1392 0.984 . S
N1389 H1393 0.985 . S
H1390 N1385 0.984 1_565 S
H1391 N1385 0.985 . S
H1392 N1389 0.984 . S
H1393 N1389 0.985 . S
H1394 N1388 0.984 . S
H1395 N1388 0.984 . S
H1396 N1384 0.984 . S
H1397 N1384 0.985 . S
C1398 C1399 1.363 . S
C1398 C1404 1.379 . S
C1398 N1406 1.356 . S
C1399 C1398 1.363 . S
C1399 C1405 1.363 . S
C1400 C1401 1.363 . S
C1400 C1405 1.379 . S
C1400 N1407 1.356 . S
C1401 C1400 1.363 . S
C1401 C1404 1.363 . S
N1402 C1404 1.356 . S
N1402 H1414 0.984 . S
N1402 H1415 0.985 . S
N1403 C1405 1.356 1_655 S
N1403 H1408 0.984 . S
N1403 H1409 0.985 . S
C1404 C1398 1.379 . S
C1404 C1401 1.363 . S
C1404 N1402 1.356 . S
C1405 C1399 1.363 . S
C1405 C1400 1.379 . S
C1405 N1403 1.356 1_455 S
N1406 C1398 1.356 . S
N1406 H1412 0.984 . S
N1406 H1413 0.984 1_455 S
N1407 C1400 1.356 . S
N1407 H1410 0.984 . S
N1407 H1411 0.985 . S
H1408 N1403 0.984 . S
H1409 N1403 0.985 . S
H1410 N1407 0.984 . S
H1411 N1407 0.985 . S
H1412 N1406 0.984 . S
H1413 N1406 0.984 1_655 S
H1414 N1402 0.984 . S
H1415 N1402 0.985 . S
C1416 C1417 1.363 . S
C1416 C1422 1.379 . S
C1416 N1424 1.356 . S
C1417 C1416 1.363 . S
C1417 C1423 1.363 1_554 S
C1418 C1419 1.363 . S
C1418 C1423 1.379 . S
C1418 N1425 1.356 . S
C1419 C1418 1.363 . S
C1419 C1422 1.363 1_556 S
N1420 C1422 1.356 . S
N1420 H1432 0.984 . S
N1420 H1433 0.985 . S
N1421 C1423 1.356 . S
N1421 H1426 0.984 1_556 S
N1421 H1427 0.985 . S
C1422 C1416 1.379 . S
C1422 C1419 1.363 1_554 S
C1422 N1420 1.356 . S
C1423 C1417 1.363 1_556 S
C1423 C1418 1.379 . S
C1423 N1421 1.356 . S
N1424 C1416 1.356 . S
N1424 H1430 0.984 . S
N1424 H1431 0.984 . S
N1425 C1418 1.356 . S
N1425 H1428 0.984 . S
N1425 H1429 0.985 . S
H1426 N1421 0.984 1_554 S
H1427 N1421 0.985 . S
H1428 N1425 0.984 . S
H1429 N1425 0.985 . S
H1430 N1424 0.984 . S
H1431 N1424 0.984 . S
H1432 N1420 0.984 . S
H1433 N1420 0.985 . S
C1434 C1435 1.363 1_556 S
C1434 C1440 1.379 . S
C1434 N1442 1.356 . S
C1435 C1434 1.363 1_554 S
C1435 C1441 1.363 . S
C1436 C1437 1.363 1_554 S
C1436 C1441 1.379 . S
C1436 N1443 1.356 . S
C1437 C1436 1.363 1_556 S
C1437 C1440 1.363 . S
N1438 C1440 1.356 . S
N1438 H1450 0.984 . S
N1438 H1451 0.985 . S
N1439 C1441 1.356 . S
N1439 H1444 0.984 . S
N1439 H1445 0.985 . S
C1440 C1434 1.379 . S
C1440 C1437 1.363 . S
C1440 N1438 1.356 . S
C1441 C1435 1.363 . S
C1441 C1436 1.379 . S
C1441 N1439 1.356 . S
N1442 C1434 1.356 . S
N1442 H1448 0.984 . S
N1442 H1449 0.984 . S
N1443 C1436 1.356 . S
N1443 H1446 0.984 1_554 S
N1443 H1447 0.985 . S
H1444 N1439 0.984 . S
H1445 N1439 0.985 . S
H1446 N1443 0.984 1_556 S
H1447 N1443 0.985 . S
H1448 N1442 0.984 . S
H1449 N1442 0.984 . S
H1450 N1438 0.984 . S
H1451 N1438 0.985 . S
C1452 C1453 1.363 1_556 S
C1452 C1458 1.379 . S
C1452 N1460 1.356 . S
C1453 C1452 1.363 1_554 S
C1453 C1459 1.363 . S
C1454 C1455 1.363 1_554 S
C1454 C1459 1.379 . S
C1454 N1461 1.356 . S
C1455 C1454 1.363 1_556 S
C1455 C1458 1.363 . S
N1456 C1458 1.356 . S
N1456 H1468 0.984 . S
N1456 H1469 0.985 . S
N1457 C1459 1.356 . S
N1457 H1462 0.984 . S
N1457 H1463 0.985 . S
C1458 C1452 1.379 . S
C1458 C1455 1.363 . S
C1458 N1456 1.356 . S
C1459 C1453 1.363 . S
C1459 C1454 1.379 . S
C1459 N1457 1.356 . S
N1460 C1452 1.356 . S
N1460 H1466 0.984 . S
N1460 H1467 0.984 1_556 S
N1461 C1454 1.356 . S
N1461 H1464 0.984 . S
N1461 H1465 0.985 . S
H1462 N1457 0.984 . S
H1463 N1457 0.985 . S
H1464 N1461 0.984 . S
H1465 N1461 0.985 . S
H1466 N1460 0.984 . S
H1467 N1460 0.984 1_554 S
H1468 N1456 0.984 . S
H1469 N1456 0.985 . S
C1470 C1471 1.363 1_556 S
C1470 C1476 1.379 . S
C1470 N1478 1.356 . S
C1471 C1470 1.363 1_554 S
C1471 C1477 1.363 . S
C1472 C1473 1.363 1_554 S
C1472 C1477 1.379 . S
C1472 N1479 1.356 . S
C1473 C1472 1.363 1_556 S
C1473 C1476 1.363 . S
N1474 C1476 1.356 . S
N1474 H1486 0.984 . S
N1474 H1487 0.985 . S
N1475 C1477 1.356 . S
N1475 H1480 0.984 . S
N1475 H1481 0.985 . S
C1476 C1470 1.379 . S
C1476 C1473 1.363 . S
C1476 N1474 1.356 . S
C1477 C1471 1.363 . S
C1477 C1472 1.379 . S
C1477 N1475 1.356 . S
N1478 C1470 1.356 . S
N1478 H1484 0.984 . S
N1478 H1485 0.984 . S
N1479 C1472 1.356 . S
N1479 H1482 0.984 1_554 S
N1479 H1483 0.985 . S
H1480 N1475 0.984 . S
H1481 N1475 0.985 . S
H1482 N1479 0.984 1_556 S
H1483 N1479 0.985 . S
H1484 N1478 0.984 . S
H1485 N1478 0.984 . S
H1486 N1474 0.984 . S
H1487 N1474 0.985 . S
C1488 C1489 1.363 . S
C1488 C1494 1.379 . S
C1488 N1496 1.356 . S
C1489 C1488 1.363 . S
C1489 C1495 1.363 . S
C1490 C1491 1.363 . S
C1490 C1495 1.379 . S
C1490 N1497 1.356 . S
C1491 C1490 1.363 . S
C1491 C1494 1.363 . S
N1492 C1494 1.356 . S
N1492 H1504 0.984 . S
N1492 H1505 0.985 . S
N1493 C1495 1.356 . S
N1493 H1498 0.984 . S
N1493 H1499 0.985 . S
C1494 C1488 1.379 . S
C1494 C1491 1.363 . S
C1494 N1492 1.356 . S
C1495 C1489 1.363 . S
C1495 C1490 1.379 . S
C1495 N1493 1.356 . S
N1496 C1488 1.356 . S
N1496 H1502 0.984 . S
N1496 H1503 0.984 . S
N1497 C1490 1.356 . S
N1497 H1500 0.984 . S
N1497 H1501 0.985 . S
H1498 N1493 0.984 . S
H1499 N1493 0.985 . S
H1500 N1497 0.984 . S
H1501 N1497 0.985 . S
H1502 N1496 0.984 . S
H1503 N1496 0.984 . S
H1504 N1492 0.984 . S
H1505 N1492 0.985 . S
C1506 C1507 1.363 . S
C1506 C1512 1.379 . S
C1506 N1514 1.356 . S
C1507 C1506 1.363 . S
C1507 C1513 1.363 . S
C1508 C1509 1.363 . S
C1508 C1513 1.379 . S
C1508 N1515 1.356 . S
C1509 C1508 1.363 . S
C1509 C1512 1.363 . S
N1510 C1512 1.356 . S
N1510 H1522 0.984 . S
N1510 H1523 0.985 . S
N1511 C1513 1.356 . S
N1511 H1516 0.984 . S
N1511 H1517 0.985 . S
C1512 C1506 1.379 . S
C1512 C1509 1.363 . S
C1512 N1510 1.356 . S
C1513 C1507 1.363 . S
C1513 C1508 1.379 . S
C1513 N1511 1.356 . S
N1514 C1506 1.356 . S
N1514 H1520 0.984 . S
N1514 H1521 0.984 . S
N1515 C1508 1.356 . S
N1515 H1518 0.984 . S
N1515 H1519 0.985 . S
H1516 N1511 0.984 . S
H1517 N1511 0.985 . S
H1518 N1515 0.984 . S
H1519 N1515 0.985 . S
H1520 N1514 0.984 . S
H1521 N1514 0.984 . S
H1522 N1510 0.984 . S
H1523 N1510 0.985 . S
C1524 C1525 1.363 . S
C1524 C1530 1.379 . S
C1524 N1532 1.356 . S
C1525 C1524 1.363 . S
C1525 C1531 1.363 . S
C1526 C1527 1.363 . S
C1526 C1531 1.379 . S
C1526 N1533 1.356 . S
C1527 C1526 1.363 . S
C1527 C1530 1.363 . S
N1528 C1530 1.356 . S
N1528 H1540 0.984 . S
N1528 H1541 0.985 . S
N1529 C1531 1.356 . S
N1529 H1534 0.984 . S
N1529 H1535 0.985 . S
C1530 C1524 1.379 . S
C1530 C1527 1.363 . S
C1530 N1528 1.356 . S
C1531 C1525 1.363 . S
C1531 C1526 1.379 . S
C1531 N1529 1.356 . S
N1532 C1524 1.356 . S
N1532 H1538 0.984 . S
N1532 H1539 0.984 . S
N1533 C1526 1.356 . S
N1533 H1536 0.984 . S
N1533 H1537 0.985 . S
H1534 N1529 0.984 . S
H1535 N1529 0.985 . S
H1536 N1533 0.984 . S
H1537 N1533 0.985 . S
H1538 N1532 0.984 . S
H1539 N1532 0.984 . S
H1540 N1528 0.984 . S
H1541 N1528 0.985 . S
C1542 C1543 1.363 . S
C1542 C1548 1.379 . S
C1542 N1550 1.356 . S
C1543 C1542 1.363 . S
C1543 C1549 1.363 . S
C1544 C1545 1.363 . S
C1544 C1549 1.379 . S
C1544 N1551 1.356 . S
C1545 C1544 1.363 . S
C1545 C1548 1.363 . S
N1546 C1548 1.356 . S
N1546 H1558 0.984 . S
N1546 H1559 0.985 . S
N1547 C1549 1.356 . S
N1547 H1552 0.984 . S
N1547 H1553 0.985 . S
C1548 C1542 1.379 . S
C1548 C1545 1.363 . S
C1548 N1546 1.356 . S
C1549 C1543 1.363 . S
C1549 C1544 1.379 . S
C1549 N1547 1.356 . S
N1550 C1542 1.356 . S
N1550 H1556 0.984 . S
N1550 H1557 0.984 . S
N1551 C1544 1.356 . S
N1551 H1554 0.984 . S
N1551 H1555 0.985 . S
H1552 N1547 0.984 . S
H1553 N1547 0.985 . S
H1554 N1551 0.984 . S
H1555 N1551 0.985 . S
H1556 N1550 0.984 . S
H1557 N1550 0.984 . S
H1558 N1546 0.984 . S
H1559 N1546 0.985 . S
C1560 C1561 1.363 . S
C1560 C1566 1.379 . S
C1560 N1568 1.356 1_545 S
C1561 C1560 1.363 . S
C1561 C1567 1.363 . S
C1562 C1563 1.363 . S
C1562 C1567 1.379 . S
C1562 N1569 1.356 . S
C1563 C1562 1.363 . S
C1563 C1566 1.363 . S
N1564 C1566 1.356 . S
N1564 H1576 0.984 . S
N1564 H1577 0.985 . S
N1565 C1567 1.356 . S
N1565 H1570 0.984 1_545 S
N1565 H1571 0.985 . S
C1566 C1560 1.379 . S
C1566 C1563 1.363 . S
C1566 N1564 1.356 . S
C1567 C1561 1.363 . S
C1567 C1562 1.379 . S
C1567 N1565 1.356 . S
N1568 C1560 1.356 1_565 S
N1568 H1574 0.984 . S
N1568 H1575 0.984 . S
N1569 C1562 1.356 . S
N1569 H1572 0.984 . S
N1569 H1573 0.985 . S
H1570 N1565 0.984 1_565 S
H1571 N1565 0.985 . S
H1572 N1569 0.984 . S
H1573 N1569 0.985 . S
H1574 N1568 0.984 . S
H1575 N1568 0.984 . S
H1576 N1564 0.984 . S
H1577 N1564 0.985 . S
C1578 C1579 1.363 . S
C1578 C1584 1.379 . S
C1578 N1586 1.356 . S
C1579 C1578 1.363 . S
C1579 C1585 1.363 . S
C1580 C1581 1.363 . S
C1580 C1585 1.379 . S
C1580 N1587 1.356 . S
C1581 C1580 1.363 . S
C1581 C1584 1.363 . S
N1582 C1584 1.356 1_655 S
N1582 H1594 0.984 . S
N1582 H1595 0.985 . S
N1583 C1585 1.356 . S
N1583 H1588 0.984 . S
N1583 H1589 0.985 . S
C1584 C1578 1.379 . S
C1584 C1581 1.363 . S
C1584 N1582 1.356 1_455 S
C1585 C1579 1.363 . S
C1585 C1580 1.379 . S
C1585 N1583 1.356 . S
N1586 C1578 1.356 . S
N1586 H1592 0.984 . S
N1586 H1593 0.984 . S
N1587 C1580 1.356 . S
N1587 H1590 0.984 1_455 S
N1587 H1591 0.985 . S
H1588 N1583 0.984 . S
H1589 N1583 0.985 . S
H1590 N1587 0.984 1_655 S
H1591 N1587 0.985 . S
H1592 N1586 0.984 . S
H1593 N1586 0.984 . S
H1594 N1582 0.984 . S
H1595 N1582 0.985 . S
C1596 C1597 1.363 . S
C1596 C1602 1.379 . S
C1596 N1604 1.356 . S
C1597 C1596 1.363 . S
C1597 C1603 1.363 . S
C1598 C1599 1.363 . S
C1598 C1603 1.379 . S
C1598 N1605 1.356 1_565 S
C1599 C1598 1.363 . S
C1599 C1602 1.363 . S
N1600 C1602 1.356 . S
N1600 H1612 0.984 . S
N1600 H1613 0.985 1_565 S
N1601 C1603 1.356 . S
N1601 H1606 0.984 . S
N1601 H1607 0.985 . S
C1602 C1596 1.379 . S
C1602 C1599 1.363 . S
C1602 N1600 1.356 . S
C1603 C1597 1.363 . S
C1603 C1598 1.379 . S
C1603 N1601 1.356 . S
N1604 C1596 1.356 . S
N1604 H1610 0.984 . S
N1604 H1611 0.984 . S
N1605 C1598 1.356 1_545 S
N1605 H1608 0.984 . S
N1605 H1609 0.985 . S
H1606 N1601 0.984 . S
H1607 N1601 0.985 . S
H1608 N1605 0.984 . S
H1609 N1605 0.985 . S
H1610 N1604 0.984 . S
H1611 N1604 0.984 . S
H1612 N1600 0.984 . S
H1613 N1600 0.985 1_545 S
C1614 C1615 1.363 . S
C1614 C1620 1.379 . S
C1614 N1622 1.356 . S
C1615 C1614 1.363 . S
C1615 C1621 1.363 . S
C1616 C1617 1.363 . S
C1616 C1621 1.379 . S
C1616 N1623 1.356 . S
C1617 C1616 1.363 . S
C1617 C1620 1.363 . S
N1618 C1620 1.356 . S
N1618 H1630 0.984 . S
N1618 H1631 0.985 . S
N1619 C1621 1.356 1_455 S
N1619 H1624 0.984 . S
N1619 H1625 0.985 . S
C1620 C1614 1.379 . S
C1620 C1617 1.363 . S
C1620 N1618 1.356 . S
C1621 C1615 1.363 . S
C1621 C1616 1.379 . S
C1621 N1619 1.356 1_655 S
N1622 C1614 1.356 . S
N1622 H1628 0.984 . S
N1622 H1629 0.984 1_655 S
N1623 C1616 1.356 . S
N1623 H1626 0.984 . S
N1623 H1627 0.985 . S
H1624 N1619 0.984 . S
H1625 N1619 0.985 . S
H1626 N1623 0.984 . S
H1627 N1623 0.985 . S
H1628 N1622 0.984 . S
H1629 N1622 0.984 1_455 S
H1630 N1618 0.984 . S
H1631 N1618 0.985 . S
C1632 C1633 1.363 . S
C1632 C1638 1.379 . S
C1632 N1640 1.356 . S
C1633 C1632 1.363 . S
C1633 C1639 1.363 . S
C1634 C1635 1.363 . S
C1634 C1639 1.379 . S
C1634 N1641 1.356 . S
C1635 C1634 1.363 . S
C1635 C1638 1.363 . S
N1636 C1638 1.356 . S
N1636 H1648 0.984 . S
N1636 H1649 0.985 . S
N1637 C1639 1.356 . S
N1637 H1642 0.984 . S
N1637 H1643 0.985 . S
C1638 C1632 1.379 . S
C1638 C1635 1.363 . S
C1638 N1636 1.356 . S
C1639 C1633 1.363 . S
C1639 C1634 1.379 . S
C1639 N1637 1.356 . S
N1640 C1632 1.356 . S
N1640 H1646 0.984 1_554 S
N1640 H1647 0.984 . S
N1641 C1634 1.356 . S
N1641 H1644 0.984 . S
N1641 H1645 0.985 . S
H1642 N1637 0.984 . S
H1643 N1637 0.985 . S
H1644 N1641 0.984 . S
H1645 N1641 0.985 . S
H1646 N1640 0.984 1_556 S
H1647 N1640 0.984 . S
H1648 N1636 0.984 . S
H1649 N1636 0.985 . S
C1650 C1651 1.363 . S
C1650 C1656 1.379 . S
C1650 N1658 1.356 . S
C1651 C1650 1.363 . S
C1651 C1657 1.363 . S
C1652 C1653 1.363 . S
C1652 C1657 1.379 . S
C1652 N1659 1.356 . S
C1653 C1652 1.363 . S
C1653 C1656 1.363 . S
N1654 C1656 1.356 . S
N1654 H1666 0.984 . S
N1654 H1667 0.985 . S
N1655 C1657 1.356 . S
N1655 H1660 0.984 . S
N1655 H1661 0.985 . S
C1656 C1650 1.379 . S
C1656 C1653 1.363 . S
C1656 N1654 1.356 . S
C1657 C1651 1.363 . S
C1657 C1652 1.379 . S
C1657 N1655 1.356 . S
N1658 C1650 1.356 . S
N1658 H1664 0.984 . S
N1658 H1665 0.984 . S
N1659 C1652 1.356 . S
N1659 H1662 0.984 . S
N1659 H1663 0.985 . S
H1660 N1655 0.984 . S
H1661 N1655 0.985 . S
H1662 N1659 0.984 . S
H1663 N1659 0.985 . S
H1664 N1658 0.984 . S
H1665 N1658 0.984 . S
H1666 N1654 0.984 . S
H1667 N1654 0.985 . S
C1668 C1669 1.363 . S
C1668 C1674 1.379 . S
C1668 N1676 1.356 . S
C1669 C1668 1.363 . S
C1669 C1675 1.363 . S
C1670 C1671 1.363 . S
C1670 C1675 1.379 . S
C1670 N1677 1.356 . S
C1671 C1670 1.363 . S
C1671 C1674 1.363 . S
N1672 C1674 1.356 . S
N1672 H1684 0.984 . S
N1672 H1685 0.985 . S
N1673 C1675 1.356 . S
N1673 H1678 0.984 . S
N1673 H1679 0.985 1_554 S
C1674 C1668 1.379 . S
C1674 C1671 1.363 . S
C1674 N1672 1.356 . S
C1675 C1669 1.363 . S
C1675 C1670 1.379 . S
C1675 N1673 1.356 . S
N1676 C1668 1.356 . S
N1676 H1682 0.984 . S
N1676 H1683 0.984 . S
N1677 C1670 1.356 . S
N1677 H1680 0.984 . S
N1677 H1681 0.985 . S
H1678 N1673 0.984 . S
H1679 N1673 0.985 1_556 S
H1680 N1677 0.984 . S
H1681 N1677 0.985 . S
H1682 N1676 0.984 . S
H1683 N1676 0.984 . S
H1684 N1672 0.984 . S
H1685 N1672 0.985 . S
C1686 C1687 1.363 . S
C1686 C1692 1.379 . S
C1686 N1694 1.356 . S
C1687 C1686 1.363 . S
C1687 C1693 1.363 . S
C1688 C1689 1.363 . S
C1688 C1693 1.379 . S
C1688 N1695 1.356 . S
C1689 C1688 1.363 . S
C1689 C1692 1.363 . S
N1690 C1692 1.356 . S
N1690 H1702 0.984 . S
N1690 H1703 0.985 . S
N1691 C1693 1.356 . S
N1691 H1696 0.984 . S
N1691 H1697 0.985 . S
C1692 C1686 1.379 . S
C1692 C1689 1.363 . S
C1692 N1690 1.356 . S
C1693 C1687 1.363 . S
C1693 C1688 1.379 . S
C1693 N1691 1.356 . S
N1694 C1686 1.356 . S
N1694 H1700 0.984 . S
N1694 H1701 0.984 . S
N1695 C1688 1.356 . S
N1695 H1698 0.984 . S
N1695 H1699 0.985 . S
H1696 N1691 0.984 . S
H1697 N1691 0.985 . S
H1698 N1695 0.984 . S
H1699 N1695 0.985 . S
H1700 N1694 0.984 . S
H1701 N1694 0.984 . S
H1702 N1690 0.984 . S
H1703 N1690 0.985 . S
C1704 C1705 1.363 . S
C1704 C1710 1.379 . S
C1704 N1712 1.356 . S
C1705 C1704 1.363 . S
C1705 C1711 1.363 . S
C1706 C1707 1.363 . S
C1706 C1711 1.379 . S
C1706 N1713 1.356 . S
C1707 C1706 1.363 . S
C1707 C1710 1.363 . S
N1708 C1710 1.356 . S
N1708 H1720 0.984 . S
N1708 H1721 0.985 . S
N1709 C1711 1.356 . S
N1709 H1714 0.984 . S
N1709 H1715 0.985 . S
C1710 C1704 1.379 . S
C1710 C1707 1.363 . S
C1710 N1708 1.356 . S
C1711 C1705 1.363 . S
C1711 C1706 1.379 . S
C1711 N1709 1.356 . S
N1712 C1704 1.356 . S
N1712 H1718 0.984 . S
N1712 H1719 0.984 . S
N1713 C1706 1.356 . S
N1713 H1716 0.984 . S
N1713 H1717 0.985 . S
H1714 N1709 0.984 . S
H1715 N1709 0.985 . S
H1716 N1713 0.984 . S
H1717 N1713 0.985 . S
H1718 N1712 0.984 . S
H1719 N1712 0.984 . S
H1720 N1708 0.984 . S
H1721 N1708 0.985 . S
C1722 C1723 1.363 . S
C1722 C1728 1.379 . S
C1722 N1730 1.356 . S
C1723 C1722 1.363 . S
C1723 C1729 1.363 . S
C1724 C1725 1.363 . S
C1724 C1729 1.379 . S
C1724 N1731 1.356 . S
C1725 C1724 1.363 . S
C1725 C1728 1.363 . S
N1726 C1728 1.356 . S
N1726 H1738 0.984 . S
N1726 H1739 0.985 . S
N1727 C1729 1.356 . S
N1727 H1732 0.984 . S
N1727 H1733 0.985 . S
C1728 C1722 1.379 . S
C1728 C1725 1.363 . S
C1728 N1726 1.356 . S
C1729 C1723 1.363 . S
C1729 C1724 1.379 . S
C1729 N1727 1.356 . S
N1730 C1722 1.356 . S
N1730 H1736 0.984 . S
N1730 H1737 0.984 . S
N1731 C1724 1.356 . S
N1731 H1734 0.984 . S
N1731 H1735 0.985 . S
H1732 N1727 0.984 . S
H1733 N1727 0.985 . S
H1734 N1731 0.984 . S
H1735 N1731 0.985 . S
H1736 N1730 0.984 . S
H1737 N1730 0.984 . S
H1738 N1726 0.984 . S
H1739 N1726 0.985 . S
C1740 C1741 1.363 . S
C1740 C1746 1.379 . S
C1740 N1748 1.356 . S
C1741 C1740 1.363 . S
C1741 C1747 1.363 . S
C1742 C1743 1.363 . S
C1742 C1747 1.379 . S
C1742 N1749 1.356 . S
C1743 C1742 1.363 . S
C1743 C1746 1.363 . S
N1744 C1746 1.356 . S
N1744 H1756 0.984 . S
N1744 H1757 0.985 . S
N1745 C1747 1.356 . S
N1745 H1750 0.984 . S
N1745 H1751 0.985 . S
C1746 C1740 1.379 . S
C1746 C1743 1.363 . S
C1746 N1744 1.356 . S
C1747 C1741 1.363 . S
C1747 C1742 1.379 . S
C1747 N1745 1.356 . S
N1748 C1740 1.356 . S
N1748 H1754 0.984 . S
N1748 H1755 0.984 . S
N1749 C1742 1.356 . S
N1749 H1752 0.984 . S
N1749 H1753 0.985 . S
H1750 N1745 0.984 . S
H1751 N1745 0.985 . S
H1752 N1749 0.984 . S
H1753 N1749 0.985 . S
H1754 N1748 0.984 . S
H1755 N1748 0.984 . S
H1756 N1744 0.984 . S
H1757 N1744 0.985 . S
C1758 C1759 1.363 . S
C1758 C1764 1.379 . S
C1758 N1766 1.356 . S
C1759 C1758 1.363 . S
C1759 C1765 1.363 . S
C1760 C1761 1.363 . S
C1760 C1765 1.379 . S
C1760 N1767 1.356 . S
C1761 C1760 1.363 . S
C1761 C1764 1.363 . S
N1762 C1764 1.356 . S
N1762 H1774 0.984 . S
N1762 H1775 0.985 . S
N1763 C1765 1.356 . S
N1763 H1768 0.984 . S
N1763 H1769 0.985 . S
C1764 C1758 1.379 . S
C1764 C1761 1.363 . S
C1764 N1762 1.356 . S
C1765 C1759 1.363 . S
C1765 C1760 1.379 . S
C1765 N1763 1.356 . S
N1766 C1758 1.356 . S
N1766 H1772 0.984 . S
N1766 H1773 0.984 . S
N1767 C1760 1.356 . S
N1767 H1770 0.984 . S
N1767 H1771 0.985 . S
H1768 N1763 0.984 . S
H1769 N1763 0.985 . S
H1770 N1767 0.984 . S
H1771 N1767 0.985 . S
H1772 N1766 0.984 . S
H1773 N1766 0.984 . S
H1774 N1762 0.984 . S
H1775 N1762 0.985 . S
C1776 C1777 1.363 . S
C1776 C1782 1.379 . S
C1776 N1784 1.356 . S
C1777 C1776 1.363 . S
C1777 C1783 1.363 . S
C1778 C1779 1.363 . S
C1778 C1783 1.379 . S
C1778 N1785 1.356 . S
C1779 C1778 1.363 . S
C1779 C1782 1.363 . S
N1780 C1782 1.356 . S
N1780 H1792 0.984 . S
N1780 H1793 0.985 . S
N1781 C1783 1.356 . S
N1781 H1786 0.984 . S
N1781 H1787 0.985 . S
C1782 C1776 1.379 . S
C1782 C1779 1.363 . S
C1782 N1780 1.356 . S
C1783 C1777 1.363 . S
C1783 C1778 1.379 . S
C1783 N1781 1.356 . S
N1784 C1776 1.356 . S
N1784 H1790 0.984 . S
N1784 H1791 0.984 . S
N1785 C1778 1.356 . S
N1785 H1788 0.984 1_556 S
N1785 H1789 0.985 . S
H1786 N1781 0.984 . S
H1787 N1781 0.985 . S
H1788 N1785 0.984 1_554 S
H1789 N1785 0.985 . S
H1790 N1784 0.984 . S
H1791 N1784 0.984 . S
H1792 N1780 0.984 . S
H1793 N1780 0.985 . S
C1794 C1795 1.363 . S
C1794 C1800 1.379 . S
C1794 N1802 1.356 . S
C1795 C1794 1.363 . S
C1795 C1801 1.363 . S
C1796 C1797 1.363 . S
C1796 C1801 1.379 . S
C1796 N1803 1.356 . S
C1797 C1796 1.363 . S
C1797 C1800 1.363 . S
N1798 C1800 1.356 . S
N1798 H1810 0.984 . S
N1798 H1811 0.985 . S
N1799 C1801 1.356 . S
N1799 H1804 0.984 . S
N1799 H1805 0.985 . S
C1800 C1794 1.379 . S
C1800 C1797 1.363 . S
C1800 N1798 1.356 . S
C1801 C1795 1.363 . S
C1801 C1796 1.379 . S
C1801 N1799 1.356 . S
N1802 C1794 1.356 . S
N1802 H1808 0.984 . S
N1802 H1809 0.984 1_554 S
N1803 C1796 1.356 . S
N1803 H1806 0.984 . S
N1803 H1807 0.985 . S
H1804 N1799 0.984 . S
H1805 N1799 0.985 . S
H1806 N1803 0.984 . S
H1807 N1803 0.985 . S
H1808 N1802 0.984 . S
H1809 N1802 0.984 1_556 S
H1810 N1798 0.984 . S
H1811 N1798 0.985 . S
C1812 C1813 1.363 . S
C1812 C1818 1.379 . S
C1812 N1820 1.356 . S
C1813 C1812 1.363 . S
C1813 C1819 1.363 . S
C1814 C1815 1.363 . S
C1814 C1819 1.379 . S
C1814 N1821 1.356 . S
C1815 C1814 1.363 . S
C1815 C1818 1.363 . S
N1816 C1818 1.356 . S
N1816 H1828 0.984 . S
N1816 H1829 0.985 . S
N1817 C1819 1.356 . S
N1817 H1822 0.984 1_556 S
N1817 H1823 0.985 . S
C1818 C1812 1.379 . S
C1818 C1815 1.363 . S
C1818 N1816 1.356 . S
C1819 C1813 1.363 . S
C1819 C1814 1.379 . S
C1819 N1817 1.356 . S
N1820 C1812 1.356 . S
N1820 H1826 0.984 . S
N1820 H1827 0.984 . S
N1821 C1814 1.356 . S
N1821 H1824 0.984 . S
N1821 H1825 0.985 . S
H1822 N1817 0.984 1_554 S
H1823 N1817 0.985 . S
H1824 N1821 0.984 . S
H1825 N1821 0.985 . S
H1826 N1820 0.984 . S
H1827 N1820 0.984 . S
H1828 N1816 0.984 . S
H1829 N1816 0.985 . S
C1830 C1831 1.363 . S
C1830 C1836 1.379 . S
C1830 N1838 1.356 . S
C1831 C1830 1.363 . S
C1831 C1837 1.363 . S
C1832 C1833 1.363 . S
C1832 C1837 1.379 . S
C1832 N1839 1.356 . S
C1833 C1832 1.363 . S
C1833 C1836 1.363 . S
N1834 C1836 1.356 . S
N1834 H1846 0.984 . S
N1834 H1847 0.985 . S
N1835 C1837 1.356 . S
N1835 H1840 0.984 . S
N1835 H1841 0.985 . S
C1836 C1830 1.379 . S
C1836 C1833 1.363 . S
C1836 N1834 1.356 . S
C1837 C1831 1.363 . S
C1837 C1832 1.379 . S
C1837 N1835 1.356 . S
N1838 C1830 1.356 . S
N1838 H1844 0.984 . S
N1838 H1845 0.984 1_554 S
N1839 C1832 1.356 . S
N1839 H1842 0.984 . S
N1839 H1843 0.985 . S
H1840 N1835 0.984 . S
H1841 N1835 0.985 . S
H1842 N1839 0.984 . S
H1843 N1839 0.985 . S
H1844 N1838 0.984 . S
H1845 N1838 0.984 1_556 S
H1846 N1834 0.984 . S
H1847 N1834 0.985 . S
C1848 C1849 1.363 . S
C1848 C1854 1.379 . S
C1848 N1856 1.356 . S
C1849 C1848 1.363 . S
C1849 C1855 1.363 . S
C1850 C1851 1.363 . S
C1850 C1855 1.379 . S
C1850 N1857 1.356 . S
C1851 C1850 1.363 . S
C1851 C1854 1.363 . S
N1852 C1854 1.356 . S
N1852 H1864 0.984 . S
N1852 H1865 0.985 . S
N1853 C1855 1.356 . S
N1853 H1858 0.984 . S
N1853 H1859 0.985 . S
C1854 C1848 1.379 . S
C1854 C1851 1.363 . S
C1854 N1852 1.356 . S
C1855 C1849 1.363 . S
C1855 C1850 1.379 . S
C1855 N1853 1.356 . S
N1856 C1848 1.356 . S
N1856 H1862 0.984 . S
N1856 H1863 0.984 . S
N1857 C1850 1.356 . S
N1857 H1860 0.984 . S
N1857 H1861 0.985 . S
H1858 N1853 0.984 . S
H1859 N1853 0.985 . S
H1860 N1857 0.984 . S
H1861 N1857 0.985 . S
H1862 N1856 0.984 . S
H1863 N1856 0.984 . S
H1864 N1852 0.984 . S
H1865 N1852 0.985 . S
C1866 C1867 1.363 . S
C1866 C1872 1.379 . S
C1866 N1874 1.356 . S
C1867 C1866 1.363 . S
C1867 C1873 1.363 . S
C1868 C1869 1.363 . S
C1868 C1873 1.379 . S
C1868 N1875 1.356 . S
C1869 C1868 1.363 . S
C1869 C1872 1.363 . S
N1870 C1872 1.356 . S
N1870 H1882 0.984 . S
N1870 H1883 0.985 . S
N1871 C1873 1.356 . S
N1871 H1876 0.984 . S
N1871 H1877 0.985 . S
C1872 C1866 1.379 . S
C1872 C1869 1.363 . S
C1872 N1870 1.356 . S
C1873 C1867 1.363 . S
C1873 C1868 1.379 . S
C1873 N1871 1.356 . S
N1874 C1866 1.356 . S
N1874 H1880 0.984 . S
N1874 H1881 0.984 . S
N1875 C1868 1.356 . S
N1875 H1878 0.984 . S
N1875 H1879 0.985 . S
H1876 N1871 0.984 . S
H1877 N1871 0.985 . S
H1878 N1875 0.984 . S
H1879 N1875 0.985 . S
H1880 N1874 0.984 . S
H1881 N1874 0.984 . S
H1882 N1870 0.984 . S
H1883 N1870 0.985 . S
C1884 C1885 1.363 . S
C1884 C1890 1.379 . S
C1884 N1892 1.356 . S
C1885 C1884 1.363 . S
C1885 C1891 1.363 . S
C1886 C1887 1.363 . S
C1886 C1891 1.379 . S
C1886 N1893 1.356 . S
C1887 C1886 1.363 . S
C1887 C1890 1.363 . S
N1888 C1890 1.356 . S
N1888 H1900 0.984 . S
N1888 H1901 0.985 . S
N1889 C1891 1.356 . S
N1889 H1894 0.984 . S
N1889 H1895 0.985 . S
C1890 C1884 1.379 . S
C1890 C1887 1.363 . S
C1890 N1888 1.356 . S
C1891 C1885 1.363 . S
C1891 C1886 1.379 . S
C1891 N1889 1.356 . S
N1892 C1884 1.356 . S
N1892 H1898 0.984 . S
N1892 H1899 0.984 . S
N1893 C1886 1.356 . S
N1893 H1896 0.984 . S
N1893 H1897 0.985 . S
H1894 N1889 0.984 . S
H1895 N1889 0.985 . S
H1896 N1893 0.984 . S
H1897 N1893 0.985 . S
H1898 N1892 0.984 . S
H1899 N1892 0.984 . S
H1900 N1888 0.984 . S
H1901 N1888 0.985 . S
C1902 C1903 1.363 . S
C1902 C1908 1.379 . S
C1902 N1910 1.356 . S
C1903 C1902 1.363 . S
C1903 C1909 1.363 . S
C1904 C1905 1.363 . S
C1904 C1909 1.379 . S
C1904 N1911 1.356 . S
C1905 C1904 1.363 . S
C1905 C1908 1.363 . S
N1906 C1908 1.356 . S
N1906 H1918 0.984 . S
N1906 H1919 0.985 . S
N1907 C1909 1.356 . S
N1907 H1912 0.984 . S
N1907 H1913 0.985 . S
C1908 C1902 1.379 . S
C1908 C1905 1.363 . S
C1908 N1906 1.356 . S
C1909 C1903 1.363 . S
C1909 C1904 1.379 . S
C1909 N1907 1.356 . S
N1910 C1902 1.356 . S
N1910 H1916 0.984 . S
N1910 H1917 0.984 . S
N1911 C1904 1.356 . S
N1911 H1914 0.984 . S
N1911 H1915 0.985 . S
H1912 N1907 0.984 . S
H1913 N1907 0.985 . S
H1914 N1911 0.984 . S
H1915 N1911 0.985 . S
H1916 N1910 0.984 . S
H1917 N1910 0.984 . S
H1918 N1906 0.984 . S
H1919 N1906 0.985 . S
C1920 C1921 1.363 . S
C1920 C1926 1.379 . S
C1920 N1928 1.356 . S
C1921 C1920 1.363 . S
C1921 C1927 1.363 . S
C1922 C1923 1.363 . S
C1922 C1927 1.379 . S
C1922 N1929 1.356 . S
C1923 C1922 1.363 . S
C1923 C1926 1.363 . S
N1924 C1926 1.356 . S
N1924 H1936 0.984 . S
N1924 H1937 0.985 . S
N1925 C1927 1.356 . S
N1925 H1930 0.984 . S
N1925 H1931 0.985 . S
C1926 C1920 1.379 . S
C1926 C1923 1.363 . S
C1926 N1924 1.356 . S
C1927 C1921 1.363 . S
C1927 C1922 1.379 . S
C1927 N1925 1.356 . S
N1928 C1920 1.356 . S
N1928 H1934 0.984 . S
N1928 H1935 0.984 . S
N1929 C1922 1.356 . S
N1929 H1932 0.984 . S
N1929 H1933 0.985 . S
H1930 N1925 0.984 . S
H1931 N1925 0.985 . S
H1932 N1929 0.984 . S
H1933 N1929 0.985 . S
H1934 N1928 0.984 . S
H1935 N1928 0.984 . S
H1936 N1924 0.984 . S
H1937 N1924 0.985 . S
C1938 C1939 1.363 . S
C1938 C1944 1.379 . S
C1938 N1946 1.356 . S
C1939 C1938 1.363 . S
C1939 C1945 1.363 . S
C1940 C1941 1.363 . S
C1940 C1945 1.379 . S
C1940 N1947 1.356 . S
C1941 C1940 1.363 . S
C1941 C1944 1.363 . S
N1942 C1944 1.356 . S
N1942 H1954 0.984 . S
N1942 H1955 0.985 . S
N1943 C1945 1.356 . S
N1943 H1948 0.984 . S
N1943 H1949 0.985 . S
C1944 C1938 1.379 . S
C1944 C1941 1.363 . S
C1944 N1942 1.356 . S
C1945 C1939 1.363 . S
C1945 C1940 1.379 . S
C1945 N1943 1.356 . S
N1946 C1938 1.356 . S
N1946 H1952 0.984 . S
N1946 H1953 0.984 . S
N1947 C1940 1.356 . S
N1947 H1950 0.984 . S
N1947 H1951 0.985 . S
H1948 N1943 0.984 . S
H1949 N1943 0.985 . S
H1950 N1947 0.984 . S
H1951 N1947 0.985 . S
H1952 N1946 0.984 . S
H1953 N1946 0.984 . S
H1954 N1942 0.984 . S
H1955 N1942 0.985 . S
C1956 C1957 1.363 . S
C1956 C1962 1.379 . S
C1956 N1964 1.356 . S
C1957 C1956 1.363 . S
C1957 C1963 1.363 . S
C1958 C1959 1.363 . S
C1958 C1963 1.379 . S
C1958 N1965 1.356 . S
C1959 C1958 1.363 . S
C1959 C1962 1.363 . S
N1960 C1962 1.356 . S
N1960 H1972 0.984 . S
N1960 H1973 0.985 . S
N1961 C1963 1.356 . S
N1961 H1966 0.984 . S
N1961 H1967 0.985 . S
C1962 C1956 1.379 . S
C1962 C1959 1.363 . S
C1962 N1960 1.356 . S
C1963 C1957 1.363 . S
C1963 C1958 1.379 . S
C1963 N1961 1.356 . S
N1964 C1956 1.356 . S
N1964 H1970 0.984 . S
N1964 H1971 0.984 . S
N1965 C1958 1.356 . S
N1965 H1968 0.984 . S
N1965 H1969 0.985 . S
H1966 N1961 0.984 . S
H1967 N1961 0.985 . S
H1968 N1965 0.984 . S
H1969 N1965 0.985 . S
H1970 N1964 0.984 . S
H1971 N1964 0.984 . S
H1972 N1960 0.984 . S
H1973 N1960 0.985 . S
C1974 C1975 1.363 . S
C1974 C1980 1.379 . S
C1974 N1982 1.356 . S
C1975 C1974 1.363 . S
C1975 C1981 1.363 . S
C1976 C1977 1.363 . S
C1976 C1981 1.379 . S
C1976 N1983 1.356 . S
C1977 C1976 1.363 . S
C1977 C1980 1.363 . S
N1978 C1980 1.356 . S
N1978 H1990 0.984 . S
N1978 H1991 0.985 . S
N1979 C1981 1.356 . S
N1979 H1984 0.984 . S
N1979 H1985 0.985 . S
C1980 C1974 1.379 . S
C1980 C1977 1.363 . S
C1980 N1978 1.356 . S
C1981 C1975 1.363 . S
C1981 C1976 1.379 . S
C1981 N1979 1.356 . S
N1982 C1974 1.356 . S
N1982 H1988 0.984 . S
N1982 H1989 0.984 . S
N1983 C1976 1.356 . S
N1983 H1986 0.984 . S
N1983 H1987 0.985 . S
H1984 N1979 0.984 . S
H1985 N1979 0.985 . S
H1986 N1983 0.984 . S
H1987 N1983 0.985 . S
H1988 N1982 0.984 . S
H1989 N1982 0.984 . S
H1990 N1978 0.984 . S
H1991 N1978 0.985 . S
C1992 C1993 1.363 . S
C1992 C1998 1.379 . S
C1992 N2000 1.356 . S
C1993 C1992 1.363 . S
C1993 C1999 1.363 . S
C1994 C1995 1.363 . S
C1994 C1999 1.379 . S
C1994 N2001 1.356 . S
C1995 C1994 1.363 . S
C1995 C1998 1.363 . S
N1996 C1998 1.356 . S
N1996 H2008 0.984 . S
N1996 H2009 0.985 . S
N1997 C1999 1.356 . S
N1997 H2002 0.984 . S
N1997 H2003 0.985 . S
C1998 C1992 1.379 . S
C1998 C1995 1.363 . S
C1998 N1996 1.356 . S
C1999 C1993 1.363 . S
C1999 C1994 1.379 . S
C1999 N1997 1.356 . S
N2000 C1992 1.356 . S
N2000 H2006 0.984 . S
N2000 H2007 0.984 . S
N2001 C1994 1.356 . S
N2001 H2004 0.984 . S
N2001 H2005 0.985 . S
H2002 N1997 0.984 . S
H2003 N1997 0.985 . S
H2004 N2001 0.984 . S
H2005 N2001 0.985 . S
H2006 N2000 0.984 . S
H2007 N2000 0.984 . S
H2008 N1996 0.984 . S
H2009 N1996 0.985 . S
C2010 C2011 1.363 . S
C2010 C2016 1.379 . S
C2010 N2018 1.356 . S
C2011 C2010 1.363 . S
C2011 C2017 1.363 . S
C2012 C2013 1.363 . S
C2012 C2017 1.379 . S
C2012 N2019 1.356 . S
C2013 C2012 1.363 . S
C2013 C2016 1.363 . S
N2014 C2016 1.356 . S
N2014 H2026 0.984 . S
N2014 H2027 0.985 . S
N2015 C2017 1.356 . S
N2015 H2020 0.984 . S
N2015 H2021 0.985 . S
C2016 C2010 1.379 . S
C2016 C2013 1.363 . S
C2016 N2014 1.356 . S
C2017 C2011 1.363 . S
C2017 C2012 1.379 . S
C2017 N2015 1.356 . S
N2018 C2010 1.356 . S
N2018 H2024 0.984 . S
N2018 H2025 0.984 . S
N2019 C2012 1.356 . S
N2019 H2022 0.984 . S
N2019 H2023 0.985 . S
H2020 N2015 0.984 . S
H2021 N2015 0.985 . S
H2022 N2019 0.984 . S
H2023 N2019 0.985 . S
H2024 N2018 0.984 . S
H2025 N2018 0.984 . S
H2026 N2014 0.984 . S
H2027 N2014 0.985 . S
C2028 C2029 1.363 . S
C2028 C2034 1.379 . S
C2028 N2036 1.356 . S
C2029 C2028 1.363 . S
C2029 C2035 1.363 . S
C2030 C2031 1.363 . S
C2030 C2035 1.379 . S
C2030 N2037 1.356 . S
C2031 C2030 1.363 . S
C2031 C2034 1.363 . S
N2032 C2034 1.356 . S
N2032 H2044 0.984 . S
N2032 H2045 0.985 . S
N2033 C2035 1.356 . S
N2033 H2038 0.984 . S
N2033 H2039 0.985 . S
C2034 C2028 1.379 . S
C2034 C2031 1.363 . S
C2034 N2032 1.356 . S
C2035 C2029 1.363 . S
C2035 C2030 1.379 . S
C2035 N2033 1.356 . S
N2036 C2028 1.356 . S
N2036 H2042 0.984 . S
N2036 H2043 0.984 . S
N2037 C2030 1.356 . S
N2037 H2040 0.984 . S
N2037 H2041 0.985 . S
H2038 N2033 0.984 . S
H2039 N2033 0.985 . S
H2040 N2037 0.984 . S
H2041 N2037 0.985 . S
H2042 N2036 0.984 . S
H2043 N2036 0.984 . S
H2044 N2032 0.984 . S
H2045 N2032 0.985 . S
C2046 C2047 1.363 . S
C2046 C2052 1.379 . S
C2046 N2054 1.356 . S
C2047 C2046 1.363 . S
C2047 C2053 1.363 . S
C2048 C2049 1.363 . S
C2048 C2053 1.379 . S
C2048 N2055 1.356 . S
C2049 C2048 1.363 . S
C2049 C2052 1.363 . S
N2050 C2052 1.356 . S
N2050 H2062 0.984 . S
N2050 H2063 0.985 . S
N2051 C2053 1.356 . S
N2051 H2056 0.984 . S
N2051 H2057 0.985 . S
C2052 C2046 1.379 . S
C2052 C2049 1.363 . S
C2052 N2050 1.356 . S
C2053 C2047 1.363 . S
C2053 C2048 1.379 . S
C2053 N2051 1.356 . S
N2054 C2046 1.356 . S
N2054 H2060 0.984 . S
N2054 H2061 0.984 . S
N2055 C2048 1.356 . S
N2055 H2058 0.984 . S
N2055 H2059 0.985 . S
H2056 N2051 0.984 . S
H2057 N2051 0.985 . S
H2058 N2055 0.984 . S
H2059 N2055 0.985 . S
H2060 N2054 0.984 . S
H2061 N2054 0.984 . S
H2062 N2050 0.984 . S
H2063 N2050 0.985 . S
C2064 C2065 1.363 . S
C2064 C2070 1.379 . S
C2064 N2072 1.356 . S
C2065 C2064 1.363 . S
C2065 C2071 1.363 . S
C2066 C2067 1.363 . S
C2066 C2071 1.379 . S
C2066 N2073 1.356 . S
C2067 C2066 1.363 . S
C2067 C2070 1.363 . S
N2068 C2070 1.356 . S
N2068 H2080 0.984 . S
N2068 H2081 0.985 . S
N2069 C2071 1.356 . S
N2069 H2074 0.984 1_554 S
N2069 H2075 0.984 1_554 S
C2070 C2064 1.379 . S
C2070 C2067 1.363 . S
C2070 N2068 1.356 . S
C2071 C2065 1.363 . S
C2071 C2066 1.379 . S
C2071 N2069 1.356 . S
N2072 C2064 1.356 . S
N2072 H2078 0.984 . S
N2072 H2079 0.984 . S
N2073 C2066 1.356 . S
N2073 H2076 0.984 . S
N2073 H2077 0.985 . S
H2074 N2069 0.984 1_556 S
H2075 N2069 0.984 1_556 S
H2076 N2073 0.984 . S
H2077 N2073 0.985 . S
H2078 N2072 0.984 . S
H2079 N2072 0.984 . S
H2080 N2068 0.984 . S
H2081 N2068 0.985 . S
C2082 C2083 1.363 . S
C2082 C2088 1.379 . S
C2082 N2090 1.356 . S
C2083 C2082 1.363 . S
C2083 C2089 1.363 . S
C2084 C2085 1.363 . S
C2084 C2089 1.379 . S
C2084 N2091 1.368 . S
C2085 C2084 1.363 . S
C2085 C2088 1.363 . S
N2086 C2088 1.356 . S
N2086 H2098 0.984 . S
N2086 H2099 0.985 . S
N2087 C2089 1.356 . S
N2087 H2092 0.984 . S
N2087 H2093 0.985 . S
C2088 C2082 1.379 . S
C2088 C2085 1.363 . S
C2088 N2086 1.356 . S
C2089 C2083 1.363 . S
C2089 C2084 1.379 . S
C2089 N2087 1.356 . S
N2090 C2082 1.356 . S
N2090 H2096 0.984 . S
N2090 H2097 0.984 . S
N2091 C2084 1.368 . S
N2091 H2094 0.978 1_556 S
N2091 H2095 0.979 1_556 S
H2092 N2087 0.984 . S
H2093 N2087 0.985 . S
H2094 N2091 0.978 1_554 S
H2095 N2091 0.979 1_554 S
H2096 N2090 0.984 . S
H2097 N2090 0.984 . S
H2098 N2086 0.984 . S
H2099 N2086 0.985 . S
C2100 C2101 1.363 . S
C2100 C2106 1.379 . S
C2100 N2108 1.356 . S
C2101 C2100 1.363 . S
C2101 C2107 1.363 . S
C2102 C2103 1.363 . S
C2102 C2107 1.379 . S
C2102 N2109 1.356 . S
C2103 C2102 1.363 . S
C2103 C2106 1.363 . S
N2104 C2106 1.356 . S
N2104 H2116 0.984 . S
N2104 H2117 0.985 . S
N2105 C2107 1.356 . S
N2105 H2110 0.984 . S
N2105 H2111 0.985 . S
C2106 C2100 1.379 . S
C2106 C2103 1.363 . S
C2106 N2104 1.356 . S
C2107 C2101 1.363 . S
C2107 C2102 1.379 . S
C2107 N2105 1.356 . S
N2108 C2100 1.356 . S
N2108 H2114 0.984 . S
N2108 H2115 0.984 . S
N2109 C2102 1.356 . S
N2109 H2112 0.984 . S
N2109 H2113 0.985 . S
H2110 N2105 0.984 . S
H2111 N2105 0.985 . S
H2112 N2109 0.984 . S
H2113 N2109 0.985 . S
H2114 N2108 0.984 . S
H2115 N2108 0.984 . S
H2116 N2104 0.984 . S
H2117 N2104 0.985 . S
C2118 C2119 1.363 . S
C2118 C2124 1.379 . S
C2118 N2126 1.356 . S
C2119 C2118 1.363 . S
C2119 C2125 1.363 . S
C2120 C2121 1.363 . S
C2120 C2125 1.379 . S
C2120 N2127 1.356 . S
C2121 C2120 1.363 . S
C2121 C2124 1.363 . S
N2122 C2124 1.356 . S
N2122 H2134 0.984 . S
N2122 H2135 0.985 . S
N2123 C2125 1.356 . S
N2123 H2128 0.984 . S
N2123 H2129 0.985 . S
C2124 C2118 1.379 . S
C2124 C2121 1.363 . S
C2124 N2122 1.356 . S
C2125 C2119 1.363 . S
C2125 C2120 1.379 . S
C2125 N2123 1.356 . S
N2126 C2118 1.356 . S
N2126 H2132 0.984 1_556 S
N2126 H2133 0.984 1_556 S
N2127 C2120 1.356 . S
N2127 H2130 0.984 . S
N2127 H2131 0.985 . S
H2128 N2123 0.984 . S
H2129 N2123 0.985 . S
H2130 N2127 0.984 . S
H2131 N2127 0.985 . S
H2132 N2126 0.984 1_554 S
H2133 N2126 0.984 1_554 S
H2134 N2122 0.984 . S
H2135 N2122 0.985 . S
C2136 C2137 1.363 . S
C2136 C2142 1.379 . S
C2136 N2144 1.356 . S
C2137 C2136 1.363 . S
C2137 C2143 1.363 . S
C2138 C2139 1.363 . S
C2138 C2143 1.379 . S
C2138 N2145 1.356 . S
C2139 C2138 1.363 . S
C2139 C2142 1.363 . S
N2140 C2142 1.356 . S
N2140 H2152 0.984 . S
N2140 H2153 0.985 . S
N2141 C2143 1.356 . S
N2141 H2146 0.984 . S
N2141 H2147 0.985 . S
C2142 C2136 1.379 . S
C2142 C2139 1.363 . S
C2142 N2140 1.356 . S
C2143 C2137 1.363 . S
C2143 C2138 1.379 . S
C2143 N2141 1.356 . S
N2144 C2136 1.356 . S
N2144 H2150 0.984 . S
N2144 H2151 0.984 . S
N2145 C2138 1.356 . S
N2145 H2148 0.984 . S
N2145 H2149 0.985 . S
H2146 N2141 0.984 . S
H2147 N2141 0.985 . S
H2148 N2145 0.984 . S
H2149 N2145 0.985 . S
H2150 N2144 0.984 . S
H2151 N2144 0.984 . S
H2152 N2140 0.984 . S
H2153 N2140 0.985 . S
C2154 C2155 1.363 . S
C2154 C2160 1.379 . S
C2154 N2162 1.356 . S
C2155 C2154 1.363 . S
C2155 C2161 1.363 . S
C2156 C2157 1.363 . S
C2156 C2161 1.379 . S
C2156 N2163 1.356 . S
C2157 C2156 1.363 . S
C2157 C2160 1.363 . S
N2158 C2160 1.356 . S
N2158 H2170 0.984 . S
N2158 H2171 0.985 . S
N2159 C2161 1.356 . S
N2159 H2164 0.984 . S
N2159 H2165 0.985 . S
C2160 C2154 1.379 . S
C2160 C2157 1.363 . S
C2160 N2158 1.356 . S
C2161 C2155 1.363 . S
C2161 C2156 1.379 . S
C2161 N2159 1.356 . S
N2162 C2154 1.356 . S
N2162 H2168 0.984 1_556 S
N2162 H2169 0.984 1_556 S
N2163 C2156 1.356 . S
N2163 H2166 0.984 . S
N2163 H2167 0.985 . S
H2164 N2159 0.984 . S
H2165 N2159 0.985 . S
H2166 N2163 0.984 . S
H2167 N2163 0.985 . S
H2168 N2162 0.984 1_554 S
H2169 N2162 0.984 1_554 S
H2170 N2158 0.984 . S
H2171 N2158 0.985 . S
C2172 C2173 1.363 . S
C2172 C2178 1.379 . S
C2172 N2180 1.356 . S
C2173 C2172 1.363 . S
C2173 C2179 1.363 . S
C2174 C2175 1.363 . S
C2174 C2179 1.379 . S
C2174 N2181 1.356 . S
C2175 C2174 1.363 . S
C2175 C2178 1.363 . S
N2176 C2178 1.356 . S
N2176 H2188 0.984 . S
N2176 H2189 0.985 . S
N2177 C2179 1.356 . S
N2177 H2182 0.984 . S
N2177 H2183 0.985 . S
C2178 C2172 1.379 . S
C2178 C2175 1.363 . S
C2178 N2176 1.356 . S
C2179 C2173 1.363 . S
C2179 C2174 1.379 . S
C2179 N2177 1.356 . S
N2180 C2172 1.356 . S
N2180 H2186 0.984 . S
N2180 H2187 0.984 . S
N2181 C2174 1.356 . S
N2181 H2184 0.984 . S
N2181 H2185 0.985 . S
H2182 N2177 0.984 . S
H2183 N2177 0.985 . S
H2184 N2181 0.984 . S
H2185 N2181 0.985 . S
H2186 N2180 0.984 . S
H2187 N2180 0.984 . S
H2188 N2176 0.984 . S
H2189 N2176 0.985 . S
C2190 C2191 1.363 . S
C2190 C2196 1.379 . S
C2190 N2198 1.356 . S
C2191 C2190 1.363 . S
C2191 C2197 1.363 . S
C2192 C2193 1.363 . S
C2192 C2197 1.379 . S
C2192 N2199 1.356 . S
C2193 C2192 1.363 . S
C2193 C2196 1.363 . S
N2194 C2196 1.356 . S
N2194 H2206 0.984 . S
N2194 H2207 0.985 1_556 S
N2195 C2197 1.356 . S
N2195 H2200 0.984 . S
N2195 H2201 0.985 . S
C2196 C2190 1.379 . S
C2196 C2193 1.363 . S
C2196 N2194 1.356 . S
C2197 C2191 1.363 . S
C2197 C2192 1.379 . S
C2197 N2195 1.356 . S
N2198 C2190 1.356 . S
N2198 H2204 0.984 . S
N2198 H2205 0.984 . S
N2199 C2192 1.356 . S
N2199 H2202 0.984 . S
N2199 H2203 0.985 . S
H2200 N2195 0.984 . S
H2201 N2195 0.985 . S
H2202 N2199 0.984 . S
H2203 N2199 0.985 . S
H2204 N2198 0.984 . S
H2205 N2198 0.984 . S
H2206 N2194 0.984 . S
H2207 N2194 0.985 1_554 S
C1345 C991 1.696 . S
C1347 C74 1.685 1_565 S
C1363 C728 1.696 . S
C1365 C147 1.685 1_655 S
C1381 C242 1.685 1_545 S
C1383 C823 1.696 . S
C1399 C315 1.685 1_455 S
C1401 C896 1.696 . S
C1417 C410 1.685 . S
C1419 C487 1.696 . S
C1435 C560 1.696 . S
C1437 C483 1.685 . S
C1453 C578 1.685 . S
C1455 C655 1.696 . S
C1471 C392 1.696 . S
C1473 C651 1.685 . S
C1489 C319 1.696 . S
C1491 C746 1.685 . S
C1507 C819 1.685 . S
C1509 C56 1.696 . S
C1525 C151 1.696 . S
C1527 C914 1.685 . S
C1543 C224 1.696 . S
C1545 C987 1.685 . S
C1561 C1082 1.685 1_545 S
C1563 C1159 1.696 . S
C1579 C1232 1.696 . S
C1581 C1155 1.685 1_455 S
C1597 C1327 1.696 . S
C1599 C1250 1.685 1_565 S
C1615 C1323 1.685 1_655 S
C1617 C1064 1.696 . S
C1633 C63 1.385 . S
C1635 C399 1.385 . S
C1651 C494 1.385 . S
C1653 C158 1.385 . S
C1669 C231 1.385 . S
C1671 C567 1.385 . S
C1687 C326 1.385 . S
C1689 C662 1.385 . S
C1705 C735 1.385 . S
C1707 C1071 1.385 . S
C1723 C1166 1.385 . S
C1725 C830 1.385 . S
C1741 C903 1.385 . S
C1743 C1239 1.385 . S
C1759 C998 1.385 . S
C1761 C1334 1.385 . S
C1777 C1243 2.414 . S
C1779 C67 2.414 1_556 S
C1795 C140 2.414 1_554 S
C1797 C1316 2.414 . S
C1813 C235 2.414 1_556 S
C1815 C1075 2.414 . S
C1831 C308 2.414 1_554 S
C1833 C1148 2.414 . S
C1849 C403 2.414 . S
C1851 C907 2.414 . S
C1867 C476 2.414 . S
C1869 C980 2.414 . S
C1885 C571 2.414 . S
C1887 C739 2.414 . S
C1903 C812 2.414 . S
C1905 C644 2.414 . S
C1921 C69 1.215 . S
C1923 C58 1.215 . S
C1939 C142 1.215 . S
C1941 C153 1.215 . S
C1957 C237 1.215 . S
C1959 C226 1.215 . S
C1975 C321 1.215 . S
C1977 C310 1.215 . S
C1993 C394 1.215 . S
C1995 C405 1.215 . S
C2011 C478 1.215 . S
C2013 C489 1.215 . S
C2029 C573 1.215 . S
C2031 C562 1.215 . S
C2047 C657 1.215 . S
C2049 C646 1.215 . S
C2065 C741 1.215 . S
C2067 C730 1.215 . S
C2083 C825 1.215 . S
C2085 C814 1.215 . S
C2101 C898 1.215 . S
C2103 C909 1.215 . S
C2119 C982 1.215 . S
C2121 C993 1.215 . S
C2137 C1077 1.215 . S
C2139 C1066 1.215 . S
C2155 C1161 1.215 . S
C2157 C1150 1.215 . S
C2173 C1234 1.215 . S
C2175 C1245 1.215 . S
C2191 C1318 1.215 . S
C2193 C1329 1.215 . S
