# Generated by pormake.
# Topology dmp, (4)-cn, num edge types: 1
# Building blocks:
#     Node 0, Type 0, BuildingBlock: KUFVIS_clean_sbu_0, # of connection points: 4
#     Node 1, Type 0, BuildingBlock: KUFVIS_clean_sbu_0, # of connection points: 4
#     Node 2, Type 0, BuildingBlock: KUFVIS_clean_sbu_0, # of connection points: 4
#     Node 3, Type 0, BuildingBlock: KUFVIS_clean_sbu_0, # of connection points: 4
#     Edge 4, Type (0, 0), BuildingBlock: UVAHIK_clean_linker_0, # of connection points: 2
#     Edge 5, Type (0, 0), BuildingBlock: UVAHIK_clean_linker_0, # of connection points: 2
#     Edge 6, Type (0, 0), BuildingBlock: UVAHIK_clean_linker_0, # of connection points: 2
#     Edge 7, Type (0, 0), BuildingBlock: UVAHIK_clean_linker_0, # of connection points: 2
#     Edge 8, Type (0, 0), BuildingBlock: UVAHIK_clean_linker_0, # of connection points: 2
#     Edge 9, Type (0, 0), BuildingBlock: UVAHIK_clean_linker_0, # of connection points: 2
#     Edge 10, Type (0, 0), BuildingBlock: UVAHIK_clean_linker_0, # of connection points: 2
#     Edge 11, Type (0, 0), BuildingBlock: UVAHIK_clean_linker_0, # of connection points: 2
# Relax obj value: 0.124
# Max RMSD: 0.220
# Mean RMSD: 0.220
data_MOF--net-dmp--node1-KUFVIS_clean_sbu_0--edge1-UVAHIK_clean_linker_0
_symmetry_space_group_name_H-M    P1
_symmetry_Int_Tables_number       1
_symmetry_cell_setting            triclinic
loop_
_symmetry_equiv_pos_as_xyz
'x, y, z'
_cell_length_a     50.465129
_cell_length_b     23.860029
_cell_length_c     20.105294
_cell_angle_alpha  90.007234
_cell_angle_beta   89.999852
_cell_angle_gamma 94.29983
loop_
_atom_site_label
_atom_site_type_symbol
_atom_site_fract_x
_atom_site_fract_y
_atom_site_fract_z
_atom_type_partial_charge
Mn0 Mn 0.10316 0.23814 0.32668 0.0
Mn1 Mn 0.14599 0.20006 0.20879 0.0
C2 C 0.14508 0.28251 0.32087 0.0
C3 C 0.06943 0.29457 0.35744 0.0
C4 C 0.13465 0.13432 0.33619 0.0
O5 O 0.07935 0.19093 0.2628 0.0
O6 O 0.10908 0.17671 0.18214 0.0
C7 C 0.13027 0.27515 0.10086 0.0
N8 N 0.14938 0.25666 0.14145 0.0
C9 C 0.1829 0.32057 0.09196 0.0
C10 C 0.16361 0.34001 0.04928 0.0
C11 C 0.13718 0.31729 0.05388 0.0
C12 C 0.17484 0.27848 0.13775 0.0
H13 H 0.1099 0.25796 0.10443 0.0
C14 C 0.08542 0.17268 0.20549 0.0
O15 O 0.07313 0.24843 0.38946 0.0
O16 O 0.08428 0.30582 0.30595 0.0
N17 N 0.18268 0.22028 0.22741 0.0
C18 C 0.19882 0.19747 0.2728 0.0
C19 C 0.22588 0.21602 0.27515 0.0
C20 C 0.23614 0.25725 0.23031 0.0
C21 C 0.21929 0.27916 0.18305 0.0
C22 C 0.19254 0.25874 0.18274 0.0
H23 H 0.19112 0.16558 0.30722 0.0
O24 O 0.13103 0.28582 0.37445 0.0
O25 O 0.13379 0.25538 0.27115 0.0
O26 O 0.11916 0.16769 0.36326 0.0
O27 O 0.14423 0.14095 0.27758 0.0
C28 C 0.22793 0.32089 0.13671 0.0
C29 C 0.20973 0.34177 0.09141 0.0
H30 H 0.16885 0.37261 0.01309 0.0
H31 H 0.12215 0.33228 0.02134 0.0
H32 H 0.23878 0.19867 0.31155 0.0
H33 H 0.25697 0.27183 0.23267 0.0
H34 H 0.24848 0.33763 0.13593 0.0
H35 H 0.21655 0.37433 0.05655 0.0
Mn36 Mn 0.39176 0.77363 0.32746 0.0
Mn37 Mn 0.34371 0.78113 0.21182 0.0
C38 C 0.35716 0.70566 0.32399 0.0
C39 C 0.43253 0.74103 0.35693 0.0
C40 C 0.34701 0.85203 0.33737 0.0
O41 O 0.40795 0.83141 0.26181 0.0
O42 O 0.37628 0.826 0.18258 0.0
C43 C 0.36848 0.71987 0.10298 0.0
N44 N 0.34767 0.72543 0.14499 0.0
C45 C 0.32329 0.64452 0.09768 0.0
C46 C 0.34439 0.63811 0.0536 0.0
C47 C 0.36711 0.67587 0.05642 0.0
C48 C 0.3258 0.68912 0.14304 0.0
H49 H 0.38599 0.74876 0.10509 0.0
C50 C 0.39902 0.84465 0.20494 0.0
O51 O 0.42309 0.78263 0.38881 0.0
O52 O 0.41918 0.72159 0.30592 0.0
N53 N 0.31097 0.73928 0.23326 0.0
C54 C 0.29265 0.75043 0.28034 0.0
C55 C 0.2689 0.71598 0.28486 0.0
C56 C 0.26407 0.67093 0.24043 0.0
C57 C 0.28298 0.66096 0.19159 0.0
C58 C 0.30624 0.6968 0.18933 0.0
H59 H 0.29617 0.78513 0.31444 0.0
O60 O 0.37153 0.71249 0.37714 0.0
O61 O 0.36391 0.73777 0.27364 0.0
O62 O 0.36684 0.83053 0.36426 0.0
O63 O 0.33783 0.83843 0.27987 0.0
C64 C 0.27977 0.61653 0.14545 0.0
C65 C 0.29998 0.60809 0.09881 0.0
H66 H 0.34342 0.60419 0.01767 0.0
H67 H 0.38352 0.67106 0.02277 0.0
H68 H 0.25437 0.72407 0.32258 0.0
H69 H 0.24582 0.64419 0.24439 0.0
H70 H 0.26196 0.58823 0.14589 0.0
H71 H 0.29744 0.5733 0.06422 0.0
Mn72 Mn 0.88982 0.77163 0.67234 0.0
Mn73 Mn 0.84405 0.78518 0.79255 0.0
C74 C 0.85431 0.7063 0.68109 0.0
C75 C 0.92946 0.73557 0.63961 0.0
C76 C 0.84623 0.85311 0.66473 0.0
O77 O 0.90802 0.82958 0.73475 0.0
O78 O 0.87771 0.82849 0.81711 0.0
C79 C 0.86972 0.72456 0.90048 0.0
N80 N 0.84835 0.73057 0.86045 0.0
C81 C 0.82388 0.65161 0.91176 0.0
C82 C 0.84556 0.64479 0.95385 0.0
C83 C 0.8686 0.68136 0.94806 0.0
C84 C 0.82614 0.69546 0.86537 0.0
H85 H 0.8875 0.75245 0.89602 0.0
C86 C 0.90031 0.84483 0.79203 0.0
O87 O 0.92013 0.77726 0.60769 0.0
O88 O 0.9167 0.7179 0.69229 0.0
N89 N 0.81044 0.74503 0.77572 0.0
C90 C 0.79151 0.75645 0.73033 0.0
C91 C 0.76736 0.72315 0.72886 0.0
C92 C 0.76279 0.67892 0.77451 0.0
C93 C 0.78234 0.66869 0.8216 0.0
C94 C 0.80595 0.70348 0.82095 0.0
H95 H 0.79486 0.79046 0.6952 0.0
O96 O 0.86784 0.71095 0.62639 0.0
O97 O 0.86242 0.73891 0.72992 0.0
O98 O 0.86526 0.82969 0.63665 0.0
O99 O 0.83785 0.84144 0.72349 0.0
C100 C 0.77944 0.6249 0.86864 0.0
C101 C 0.80024 0.6162 0.91348 0.0
H102 H 0.84481 0.61142 0.99048 0.0
H103 H 0.88546 0.6762 0.98016 0.0
H104 H 0.75234 0.73145 0.69249 0.0
H105 H 0.74423 0.65301 0.77283 0.0
H106 H 0.76141 0.59729 0.87029 0.0
H107 H 0.79791 0.58195 0.94886 0.0
Mn108 Mn 0.60145 0.23717 0.66942 0.0
Mn109 Mn 0.64209 0.19599 0.79049 0.0
C110 C 0.64347 0.28018 0.68009 0.0
C111 C 0.56871 0.29535 0.63663 0.0
C112 C 0.63228 0.13235 0.66097 0.0
O113 O 0.57635 0.18994 0.73025 0.0
O114 O 0.60466 0.17355 0.8134 0.0
C115 C 0.62533 0.27013 0.89826 0.0
N116 N 0.64487 0.25168 0.85898 0.0
C117 C 0.67793 0.31479 0.91153 0.0
C118 C 0.6582 0.33416 0.95292 0.0
C119 C 0.63178 0.3118 0.94614 0.0
C120 C 0.67033 0.27309 0.86486 0.0
H121 H 0.60497 0.25332 0.89294 0.0
C122 C 0.58137 0.1708 0.78783 0.0
O123 O 0.57252 0.24953 0.60406 0.0
O124 O 0.58283 0.30525 0.68966 0.0
N125 N 0.67911 0.21546 0.77533 0.0
C126 C 0.69571 0.19288 0.73087 0.0
C127 C 0.72282 0.21116 0.73067 0.0
C128 C 0.73263 0.25198 0.77656 0.0
C129 C 0.71528 0.2737 0.82277 0.0
C130 C 0.68851 0.25345 0.82106 0.0
H131 H 0.68835 0.1614 0.69555 0.0
O132 O 0.63036 0.28463 0.6252 0.0
O133 O 0.63123 0.25261 0.72811 0.0
O134 O 0.61745 0.16664 0.63312 0.0
O135 O 0.64096 0.13781 0.72058 0.0
C136 C 0.72344 0.31515 0.86992 0.0
C137 C 0.70477 0.33582 0.91411 0.0
H138 H 0.66307 0.36646 0.98972 0.0
H139 H 0.61642 0.32675 0.97765 0.0
H140 H 0.7361 0.19398 0.69503 0.0
H141 H 0.7535 0.26641 0.77579 0.0
H142 H 0.74399 0.33184 0.87215 0.0
H143 H 0.71123 0.36814 0.94963 0.0
C144 C 0.32315 0.93872 0.34723 0.0
C145 C 0.33123 0.88948 0.37651 0.0
C146 C 0.30236 0.96635 0.37484 0.0
C147 C 0.24001 0.92891 0.45174 0.0
H148 H 0.234 0.08994 0.45394 0.0
C149 C 0.15818 0.10862 0.43892 0.0
C150 C 0.14677 0.09217 0.37754 0.0
C151 C 0.17817 0.07838 0.46672 0.0
C152 C 0.23533 0.04484 0.45528 0.0
H153 H 0.32487 0.83143 0.45868 0.0
H154 H 0.28782 0.87917 0.50635 0.0
H155 H 0.27792 0.05334 0.45237 0.0
H156 H 0.14502 0.02834 0.3009 0.0
H157 H 0.17909 0.9744 0.3505 0.0
H158 H 0.1974 0.92054 0.449 0.0
C159 C 0.29799 0.89699 0.46295 0.0
C160 C 0.26048 0.02399 0.45395 0.0
C161 C 0.31929 0.87007 0.43611 0.0
C162 C 0.15337 0.04156 0.34854 0.0
C163 C 0.17292 0.01076 0.37698 0.0
C164 C 0.21484 0.94979 0.45208 0.0
C165 C 0.28882 0.94435 0.43127 0.0
C166 C 0.26303 0.96591 0.44965 0.0
C167 C 0.18658 0.03067 0.43421 0.0
C168 C 0.21228 0.00801 0.45135 0.0
H169 H 0.33184 0.95383 0.30068 0.0
H170 H 0.29551 0.00234 0.34889 0.0
H171 H 0.2414 0.88394 0.4478 0.0
H172 H 0.15374 0.14798 0.46175 0.0
H173 H 0.18834 0.0945 0.51098 0.0
C174 C 0.17357 0.35859 0.26817 0.0
C175 C 0.17039 0.31572 0.31558 0.0
C176 C 0.19693 0.39354 0.26642 0.0
C177 C 0.2518 0.44599 0.37457 0.0
H178 H 0.28079 0.50674 0.20888 0.0
C179 C 0.31768 0.65071 0.36793 0.0
C180 C 0.33764 0.65764 0.31984 0.0
C181 C 0.29983 0.60335 0.36662 0.0
C182 C 0.27317 0.4898 0.25559 0.0
H183 H 0.18795 0.27622 0.39991 0.0
H184 H 0.22944 0.33609 0.3958 0.0
H185 H 0.24527 0.43211 0.20634 0.0
H186 H 0.35661 0.61957 0.23649 0.0
H187 H 0.32567 0.53555 0.23465 0.0
H188 H 0.27983 0.50303 0.42389 0.0
C189 C 0.21399 0.34306 0.36001 0.0
C190 C 0.25264 0.44733 0.25411 0.0
C191 C 0.19044 0.30866 0.36222 0.0
C192 C 0.34058 0.61555 0.27243 0.0
C193 C 0.32296 0.56763 0.27161 0.0
C194 C 0.27242 0.4881 0.37603 0.0
C195 C 0.21739 0.38622 0.31244 0.0
C196 C 0.24128 0.42605 0.3136 0.0
C197 C 0.30227 0.56121 0.3185 0.0
C198 C 0.28276 0.51172 0.31661 0.0
H199 H 0.15778 0.36563 0.23328 0.0
H200 H 0.19863 0.42724 0.23025 0.0
H201 H 0.24341 0.43078 0.42135 0.0
H202 H 0.31559 0.6825 0.40569 0.0
H203 H 0.28386 0.60033 0.40272 0.0
C204 C 0.65129 0.03983 0.64877 0.0
C205 C 0.64482 0.09058 0.61986 0.0
C206 C 0.67112 0.00939 0.62101 0.0
C207 C 0.71377 0.9493 0.54751 0.0
H208 H 0.7766 0.05353 0.54979 0.0
C209 C 0.81852 0.87096 0.56576 0.0
C210 C 0.83023 0.89029 0.62569 0.0
C211 C 0.79717 0.89759 0.53873 0.0
C212 C 0.75924 0.02399 0.54753 0.0
H213 H 0.65229 0.14689 0.53631 0.0
H214 H 0.68735 0.09401 0.48828 0.0
H215 H 0.73259 0.0896 0.54694 0.0
H216 H 0.83037 0.95438 0.70182 0.0
H217 H 0.79394 0.00235 0.65331 0.0
H218 H 0.7405 0.88376 0.55235 0.0
C219 C 0.67689 0.07756 0.53198 0.0
C220 C 0.73404 0.04455 0.54545 0.0
C221 C 0.65664 0.10746 0.5591 0.0
C222 C 0.82185 0.93924 0.65509 0.0
C223 C 0.80101 0.96659 0.6273 0.0
C224 C 0.73901 0.92871 0.5486 0.0
C225 C 0.68517 0.02976 0.56454 0.0
C226 C 0.71106 0.00746 0.5484 0.0
C227 C 0.78772 0.94463 0.57051 0.0
C228 C 0.76192 0.96595 0.55162 0.0
H229 H 0.64261 0.02622 0.6959 0.0
H230 H 0.67717 0.97293 0.6475 0.0
H231 H 0.69638 0.91984 0.54982 0.0
H232 H 0.82433 0.83259 0.54298 0.0
H233 H 0.7872 0.87983 0.49501 0.0
C234 C 0.83696 0.61822 0.73612 0.0
C235 C 0.83405 0.65991 0.68818 0.0
C236 C 0.81883 0.57115 0.73876 0.0
C237 C 0.76887 0.49085 0.63515 0.0
H238 H 0.74126 0.43408 0.8041 0.0
C239 C 0.6895 0.30717 0.64435 0.0
C240 C 0.66863 0.31338 0.68886 0.0
C241 C 0.71275 0.34231 0.64901 0.0
C242 C 0.74878 0.44957 0.75656 0.0
H243 H 0.81132 0.6851 0.60364 0.0
H244 H 0.77889 0.60416 0.60949 0.0
H245 H 0.77577 0.51129 0.80241 0.0
H246 H 0.6544 0.36215 0.77031 0.0
H247 H 0.69472 0.42511 0.77754 0.0
H248 H 0.74107 0.43149 0.58901 0.0
C249 C 0.79515 0.60707 0.64477 0.0
C250 C 0.7687 0.49342 0.75561 0.0
C251 C 0.81343 0.65363 0.64176 0.0
C252 C 0.6708 0.35582 0.73701 0.0
C253 C 0.69387 0.39154 0.74117 0.0
C254 C 0.74888 0.44746 0.63606 0.0
C255 C 0.79776 0.5651 0.69296 0.0
C256 C 0.77848 0.51533 0.69478 0.0
C257 C 0.71501 0.38546 0.69681 0.0
C258 C 0.73826 0.42704 0.6967 0.0
H259 H 0.85344 0.62171 0.77079 0.0
H260 H 0.82158 0.53916 0.77581 0.0
H261 H 0.77645 0.50595 0.5875 0.0
H262 H 0.68782 0.27503 0.60616 0.0
H263 H 0.72878 0.3362 0.61457 0.0
C264 C 0.07013 0.13318 0.09598 0.0
C265 C 0.06446 0.14467 0.16291 0.0
C266 C 0.05135 0.10385 0.05594 0.0
C267 C 0.98026 0.06038 0.03873 0.0
H268 H 0.00642 0.94344 0.92773 0.0
C269 C 0.91096 0.89755 0.89756 0.0
C270 C 0.91842 0.88252 0.83287 0.0
C271 C 0.92812 0.93178 0.93717 0.0
C272 C -0.00115 0.97642 0.9577 0.0
H273 H 0.03416 0.1359 0.23952 0.0
H274 H 0.00123 0.08386 0.16913 0.0
H275 H 0.03712 -0.00099 0.99925 0.0
H276 H 0.94973 0.89268 0.75887 0.0
H277 H 0.97961 0.95292 0.828 0.0
H278 H 0.94191 0.03749 0.99708 0.0
C279 C 0.02029 0.09801 0.14792 0.0
C280 C 0.01642 0.0082 0.9988 0.0
C281 C 0.03916 0.12762 0.18824 0.0
C282 C 0.94337 0.90317 0.8085 0.0
C283 C 0.96055 0.93749 0.84822 0.0
C284 C 0.96263 0.02853 0.99748 0.0
C285 C 0.02642 0.08505 0.08167 0.0
C286 C 0.00736 0.0507 0.03949 0.0
C287 C 0.95316 0.95185 0.91313 0.0
C288 C 0.97178 0.98633 0.95637 0.0
H289 H 0.08923 0.14641 0.07431 0.0
H290 H 0.05644 0.09567 0.00468 0.0
H291 H 0.97276 0.09322 0.06907 0.0
H292 H 0.89194 0.88235 0.91822 0.0
H293 H 0.92198 0.94146 0.98724 0.0
C294 C 0.53426 0.12936 0.80114 0.0
C295 C 0.55945 0.14422 0.82855 0.0
C296 C 0.5142 0.10232 0.84026 0.0
C297 C 0.49471 0.07459 0.01549 0.0
H298 H 0.45686 0.94014 0.94504 0.0
C299 C 0.44035 0.9075 0.1834 0.0
C300 C 0.41564 0.88318 0.16155 0.0
C301 C 0.45591 0.94344 0.14172 0.0
C302 C 0.46698 0.97805 0.96515 0.0
H303 H 0.58298 0.14374 0.91914 0.0
H304 H 0.54832 0.09665 0.98633 0.0
H305 H 0.4868 -0.00242 0.87295 0.0
H306 H 0.38793 0.87799 0.07854 0.0
H307 H 0.415 0.94071 0.00651 0.0
H308 H 0.47533 0.05449 0.10803 0.0
C309 C 0.54392 0.1061 0.93498 0.0
C310 C 0.48406 0.011 0.9238 0.0
C311 C 0.5639 0.13266 0.89608 0.0
C312 C 0.40685 0.89584 0.09718 0.0
C313 C 0.42242 0.93161 0.05559 0.0
C314 C 0.47767 0.04165 0.05682 0.0
C315 C 0.51892 0.09026 0.90753 0.0
C316 C 0.49848 0.05903 0.94891 0.0
C317 C 0.44713 0.95568 0.0773 0.0
C318 C 0.46396 0.99253 0.03239 0.0
H319 H 0.53017 0.13777 0.74936 0.0
H320 H 0.49503 0.09084 0.81793 0.0
H321 H 0.50524 0.11192 0.03592 0.0
H322 H 0.44775 0.89866 0.23256 0.0
H323 H 0.47505 0.96084 0.15952 0.0
C324 C 0.96047 0.65978 0.651 0.0
C325 C 0.95074 0.70283 0.6124 0.0
C326 C 0.97576 0.61993 0.62215 0.0
C327 C 0.98562 0.55419 0.45938 0.0
H328 H 0.03969 0.47903 0.5543 0.0
C329 C 0.04647 0.38277 0.34248 0.0
C330 C 0.05182 0.33667 0.38257 0.0
C331 C 0.03375 0.42777 0.36891 0.0
C332 C 0.0244 0.49924 0.5275 0.0
H333 H 0.95108 0.74036 0.51424 0.0
H334 H 0.97841 0.67126 0.46385 0.0
H335 H 0.02188 0.56207 0.60268 0.0
H336 H 0.04704 0.30051 0.4811 0.0
H337 H 0.02467 0.37928 0.52739 0.0
H338 H 0.98831 0.49133 0.38405 0.0
C339 C 0.97366 0.66764 0.51628 0.0
C340 C 0.01426 0.54698 0.55508 0.0
C341 C 0.95829 0.70767 0.54529 0.0
C342 C 0.0431 0.33533 0.44892 0.0
C343 C 0.03057 0.38069 0.47559 0.0
C344 C 0.9959 0.50664 0.43161 0.0
C345 C 0.98179 0.62218 0.55392 0.0
C346 C 0.99452 0.57475 0.52173 0.0
C347 C 0.02628 0.42792 0.43619 0.0
C348 C 0.0152 0.47829 0.46568 0.0
H349 H 0.95505 0.65492 0.70294 0.0
H350 H 0.98147 0.58547 0.65272 0.0
H351 H 0.97009 0.57376 0.43282 0.0
H352 H 0.05297 0.38507 0.29114 0.0
H353 H 0.03084 0.46358 0.33734 0.0
C354 C 0.46192 0.71421 0.45042 0.0
C355 C 0.45444 0.70971 0.38324 0.0
C356 C 0.47739 0.67422 0.47908 0.0
C357 C 0.51784 0.55331 0.44016 0.0
H358 H 0.48982 0.49552 0.60831 0.0
C359 C 0.54414 0.33877 0.54374 0.0
C360 C 0.55186 0.33857 0.61085 0.0
C361 C 0.53237 0.38511 0.51707 0.0
C362 C 0.49801 0.51142 0.56161 0.0
H363 H 0.45923 0.66295 0.29206 0.0
H364 H 0.4859 0.5936 0.34164 0.0
H365 H 0.47266 0.57931 0.56035 0.0
H366 H 0.55202 0.38529 0.70344 0.0
H367 H 0.53125 0.4655 0.65721 0.0
H368 H 0.54281 0.48456 0.44097 0.0
C369 C 0.47999 0.62767 0.37257 0.0
C370 C 0.48834 0.55976 0.53431 0.0
C371 C 0.46458 0.66746 0.34408 0.0
C372 C 0.54628 0.38417 0.6515 0.0
C373 C 0.53434 0.43015 0.62505 0.0
C374 C 0.52741 0.50479 0.46731 0.0
C375 C 0.48571 0.62919 0.44099 0.0
C376 C 0.49797 0.58111 0.47296 0.0
C377 C 0.52786 0.4318 0.55719 0.0
C378 C 0.51746 0.48305 0.52809 0.0
H379 H 0.4544 0.74629 0.48188 0.0
H380 H 0.48193 0.67728 0.53166 0.0
H381 H 0.52597 0.56895 0.39328 0.0
H382 H 0.54829 0.30437 0.51113 0.0
H383 H 0.52721 0.38484 0.46477 0.0
loop_
_geom_bond_atom_site_label_1
_geom_bond_atom_site_label_2
_geom_bond_distance
_geom_bond_site_symmetry_2
_ccdc_geom_bond_type
Mn0 O5 2.095 . S
Mn0 O15 2.162 . S
Mn0 O16 2.297 . S
Mn0 O24 2.385 . S
Mn0 O25 2.209 . S
Mn0 O26 2.094 . S
Mn1 O6 2.121 . S
Mn1 N8 2.257 . S
Mn1 N17 2.282 . S
Mn1 O25 2.215 . S
Mn1 O27 2.117 . S
C2 O24 1.234 . S
C2 O25 1.283 . S
C3 O15 1.281 . S
C3 O16 1.236 . S
C4 O26 1.240 . S
C4 O27 1.264 . S
O5 Mn0 2.095 . S
O5 C14 1.250 . S
O6 Mn1 2.121 . S
O6 C14 1.258 . S
C7 N8 1.326 . S
C7 C11 1.460 1_554 S
C7 H13 0.929 . S
N8 Mn1 2.257 . S
N8 C7 1.326 . S
N8 C12 1.362 . S
C9 C10 1.258 1_554 S
C9 C12 1.431 . S
C9 C29 1.449 . S
C10 C9 1.258 1_556 S
C10 C11 1.477 . S
C10 H30 0.931 . S
C11 C7 1.460 1_556 S
C11 C10 1.477 . S
C11 H31 0.930 . S
C12 N8 1.362 . S
C12 C9 1.431 . S
C12 C22 1.476 . S
H13 C7 0.929 . S
C14 O5 1.250 . S
C14 O6 1.258 . S
O15 Mn0 2.162 . S
O15 C3 1.281 . S
O16 Mn0 2.297 . S
O16 C3 1.236 . S
N17 Mn1 2.282 . S
N17 C18 1.328 . S
N17 C22 1.318 . S
C18 N17 1.328 . S
C18 C19 1.457 . S
C18 H23 0.929 . S
C19 C18 1.457 . S
C19 C20 1.291 . S
C19 H32 0.931 . S
C20 C19 1.291 . S
C20 C21 1.373 . S
C20 H33 0.929 . S
C21 C20 1.373 . S
C21 C22 1.396 . S
C21 C28 1.403 . S
C22 C12 1.476 . S
C22 N17 1.318 . S
C22 C21 1.396 . S
H23 C18 0.929 . S
O24 Mn0 2.385 . S
O24 C2 1.234 . S
O25 Mn0 2.209 . S
O25 Mn1 2.215 . S
O25 C2 1.283 . S
O26 Mn0 2.094 . S
O26 C4 1.240 . S
O27 Mn1 2.117 . S
O27 C4 1.264 . S
C28 C21 1.403 . S
C28 C29 1.399 . S
C28 H34 0.929 . S
C29 C9 1.449 . S
C29 C28 1.399 . S
C29 H35 0.930 1_554 S
H30 C10 0.931 . S
H31 C11 0.930 . S
H32 C19 0.931 . S
H33 C20 0.929 . S
H34 C28 0.929 . S
H35 C29 0.930 1_556 S
Mn36 O41 2.095 . S
Mn36 O51 2.162 . S
Mn36 O52 2.297 . S
Mn36 O60 2.385 . S
Mn36 O61 2.209 . S
Mn36 O62 2.094 . S
Mn37 O42 2.121 . S
Mn37 N44 2.257 . S
Mn37 N53 2.282 . S
Mn37 O61 2.215 . S
Mn37 O63 2.117 . S
C38 O60 1.234 . S
C38 O61 1.283 . S
C39 O51 1.281 . S
C39 O52 1.236 . S
C40 O62 1.240 . S
C40 O63 1.264 . S
O41 Mn36 2.095 . S
O41 C50 1.250 . S
O42 Mn37 2.121 . S
O42 C50 1.258 . S
C43 N44 1.326 . S
C43 C47 1.460 1_554 S
C43 H49 0.929 . S
N44 Mn37 2.257 . S
N44 C43 1.326 . S
N44 C48 1.362 . S
C45 C46 1.258 1_554 S
C45 C48 1.431 . S
C45 C65 1.449 . S
C46 C45 1.258 1_556 S
C46 C47 1.477 . S
C46 H66 0.931 . S
C47 C43 1.460 1_556 S
C47 C46 1.477 . S
C47 H67 0.930 . S
C48 N44 1.362 . S
C48 C45 1.431 . S
C48 C58 1.476 . S
H49 C43 0.929 . S
C50 O41 1.250 . S
C50 O42 1.258 . S
O51 Mn36 2.162 . S
O51 C39 1.281 . S
O52 Mn36 2.297 . S
O52 C39 1.236 . S
N53 Mn37 2.282 . S
N53 C54 1.328 . S
N53 C58 1.318 . S
C54 N53 1.328 . S
C54 C55 1.457 . S
C54 H59 0.929 . S
C55 C54 1.457 . S
C55 C56 1.291 . S
C55 H68 0.931 . S
C56 C55 1.291 . S
C56 C57 1.373 . S
C56 H69 0.929 . S
C57 C56 1.373 . S
C57 C58 1.396 . S
C57 C64 1.403 . S
C58 C48 1.476 . S
C58 N53 1.318 . S
C58 C57 1.396 . S
H59 C54 0.929 . S
O60 Mn36 2.385 . S
O60 C38 1.234 . S
O61 Mn36 2.209 . S
O61 Mn37 2.215 . S
O61 C38 1.283 . S
O62 Mn36 2.094 . S
O62 C40 1.240 . S
O63 Mn37 2.117 . S
O63 C40 1.264 . S
C64 C57 1.403 . S
C64 C65 1.399 . S
C64 H70 0.929 . S
C65 C45 1.449 . S
C65 C64 1.399 . S
C65 H71 0.930 1_554 S
H66 C46 0.931 . S
H67 C47 0.930 . S
H68 C55 0.931 . S
H69 C56 0.929 . S
H70 C64 0.929 . S
H71 C65 0.930 1_556 S
Mn72 O77 2.095 . S
Mn72 O87 2.162 . S
Mn72 O88 2.297 . S
Mn72 O96 2.385 . S
Mn72 O97 2.209 . S
Mn72 O98 2.094 . S
Mn73 O78 2.121 . S
Mn73 N80 2.257 . S
Mn73 N89 2.282 . S
Mn73 O97 2.215 . S
Mn73 O99 2.117 . S
C74 O96 1.234 . S
C74 O97 1.283 . S
C75 O87 1.281 . S
C75 O88 1.236 . S
C76 O98 1.240 . S
C76 O99 1.264 . S
O77 Mn72 2.095 . S
O77 C86 1.250 . S
O78 Mn73 2.121 . S
O78 C86 1.258 . S
C79 N80 1.326 . S
C79 C83 1.460 1_556 S
C79 H85 0.929 . S
N80 Mn73 2.257 . S
N80 C79 1.326 . S
N80 C84 1.362 . S
C81 C82 1.258 1_556 S
C81 C84 1.431 . S
C81 C101 1.449 . S
C82 C81 1.258 1_554 S
C82 C83 1.477 . S
C82 H102 0.931 . S
C83 C79 1.460 1_554 S
C83 C82 1.477 . S
C83 H103 0.930 . S
C84 N80 1.362 . S
C84 C81 1.431 . S
C84 C94 1.476 . S
H85 C79 0.929 . S
C86 O77 1.250 . S
C86 O78 1.258 . S
O87 Mn72 2.162 . S
O87 C75 1.281 . S
O88 Mn72 2.297 . S
O88 C75 1.236 . S
N89 Mn73 2.282 . S
N89 C90 1.328 . S
N89 C94 1.318 . S
C90 N89 1.328 . S
C90 C91 1.457 . S
C90 H95 0.929 . S
C91 C90 1.457 . S
C91 C92 1.291 . S
C91 H104 0.931 . S
C92 C91 1.291 . S
C92 C93 1.373 . S
C92 H105 0.929 . S
C93 C92 1.373 . S
C93 C94 1.396 . S
C93 C100 1.403 . S
C94 C84 1.476 . S
C94 N89 1.318 . S
C94 C93 1.396 . S
H95 C90 0.929 . S
O96 Mn72 2.385 . S
O96 C74 1.234 . S
O97 Mn72 2.209 . S
O97 Mn73 2.215 . S
O97 C74 1.283 . S
O98 Mn72 2.094 . S
O98 C76 1.240 . S
O99 Mn73 2.117 . S
O99 C76 1.264 . S
C100 C93 1.403 . S
C100 C101 1.399 . S
C100 H106 0.929 . S
C101 C81 1.449 . S
C101 C100 1.399 . S
C101 H107 0.930 1_556 S
H102 C82 0.931 . S
H103 C83 0.930 . S
H104 C91 0.931 . S
H105 C92 0.929 . S
H106 C100 0.929 . S
H107 C101 0.930 1_554 S
Mn108 O113 2.095 . S
Mn108 O123 2.162 . S
Mn108 O124 2.297 . S
Mn108 O132 2.385 . S
Mn108 O133 2.209 . S
Mn108 O134 2.094 . S
Mn109 O114 2.121 . S
Mn109 N116 2.257 . S
Mn109 N125 2.282 . S
Mn109 O133 2.215 . S
Mn109 O135 2.117 . S
C110 O132 1.234 . S
C110 O133 1.283 . S
C111 O123 1.281 . S
C111 O124 1.236 . S
C112 O134 1.240 . S
C112 O135 1.264 . S
O113 Mn108 2.095 . S
O113 C122 1.250 . S
O114 Mn109 2.121 . S
O114 C122 1.258 . S
C115 N116 1.326 . S
C115 C119 1.460 1_556 S
C115 H121 0.929 . S
N116 Mn109 2.257 . S
N116 C115 1.326 . S
N116 C120 1.362 . S
C117 C118 1.258 1_556 S
C117 C120 1.431 . S
C117 C137 1.449 . S
C118 C117 1.258 1_554 S
C118 C119 1.477 . S
C118 H138 0.931 . S
C119 C115 1.460 1_554 S
C119 C118 1.477 . S
C119 H139 0.930 . S
C120 N116 1.362 . S
C120 C117 1.431 . S
C120 C130 1.476 . S
H121 C115 0.929 . S
C122 O113 1.250 . S
C122 O114 1.258 . S
O123 Mn108 2.162 . S
O123 C111 1.281 . S
O124 Mn108 2.297 . S
O124 C111 1.236 . S
N125 Mn109 2.282 . S
N125 C126 1.328 . S
N125 C130 1.318 . S
C126 N125 1.328 . S
C126 C127 1.457 . S
C126 H131 0.929 . S
C127 C126 1.457 . S
C127 C128 1.291 . S
C127 H140 0.931 . S
C128 C127 1.291 . S
C128 C129 1.373 . S
C128 H141 0.929 . S
C129 C128 1.373 . S
C129 C130 1.396 . S
C129 C136 1.403 . S
C130 C120 1.476 . S
C130 N125 1.318 . S
C130 C129 1.396 . S
H131 C126 0.929 . S
O132 Mn108 2.385 . S
O132 C110 1.234 . S
O133 Mn108 2.209 . S
O133 Mn109 2.215 . S
O133 C110 1.283 . S
O134 Mn108 2.094 . S
O134 C112 1.240 . S
O135 Mn109 2.117 . S
O135 C112 1.264 . S
C136 C129 1.403 . S
C136 C137 1.399 . S
C136 H142 0.929 . S
C137 C117 1.449 . S
C137 C136 1.399 . S
C137 H143 0.930 1_556 S
H138 C118 0.931 . S
H139 C119 0.930 . S
H140 C127 0.931 . S
H141 C128 0.929 . S
H142 C136 0.929 . S
H143 C137 0.930 1_554 S
C144 C145 1.349 . S
C144 C146 1.327 . S
C144 H169 0.950 . S
C145 C144 1.349 . S
C145 C161 1.349 . S
C146 C144 1.327 . S
C146 C165 1.429 . S
C146 H170 0.950 . S
C147 C164 1.574 . S
C147 C166 1.368 1_545 S
C147 H171 0.949 . S
H148 C152 0.949 . S
C149 C150 1.349 . S
C149 C151 1.327 . S
C149 H172 0.950 . S
C150 C149 1.349 . S
C150 C162 1.349 . S
C151 C149 1.327 . S
C151 C167 1.429 . S
C151 H173 0.950 . S
C152 H148 0.949 . S
C152 C160 1.574 . S
C152 C168 1.368 1_565 S
H153 C161 0.950 . S
H154 C159 0.950 . S
H155 C160 0.949 . S
H156 C162 0.950 . S
H157 C163 0.950 . S
H158 C164 0.949 . S
C159 H154 0.950 . S
C159 C161 1.327 . S
C159 C165 1.429 . S
C160 C152 1.574 . S
C160 H155 0.949 . S
C160 C166 1.368 . S
C161 C145 1.349 . S
C161 H153 0.950 . S
C161 C159 1.327 . S
C162 C150 1.349 . S
C162 H156 0.950 . S
C162 C163 1.327 . S
C163 H157 0.950 . S
C163 C162 1.327 . S
C163 C167 1.429 . S
C164 C147 1.574 . S
C164 H158 0.949 . S
C164 C168 1.368 . S
C165 C146 1.429 . S
C165 C159 1.429 . S
C165 C166 1.523 . S
C166 C147 1.368 1_565 S
C166 C160 1.368 . S
C166 C165 1.523 . S
C167 C151 1.429 . S
C167 C163 1.429 . S
C167 C168 1.523 . S
C168 C152 1.368 1_545 S
C168 C164 1.368 . S
C168 C167 1.523 . S
H169 C144 0.950 . S
H170 C146 0.950 . S
H171 C147 0.949 . S
H172 C149 0.950 . S
H173 C151 0.950 . S
C174 C175 1.349 . S
C174 C176 1.327 . S
C174 H199 0.950 . S
C175 C174 1.349 . S
C175 C191 1.349 . S
C176 C174 1.327 . S
C176 C195 1.429 . S
C176 H200 0.950 . S
C177 C194 1.574 . S
C177 C196 1.368 . S
C177 H201 0.949 . S
H178 C182 0.949 . S
C179 C180 1.349 . S
C179 C181 1.327 . S
C179 H202 0.950 . S
C180 C179 1.349 . S
C180 C192 1.349 . S
C181 C179 1.327 . S
C181 C197 1.429 . S
C181 H203 0.950 . S
C182 H178 0.949 . S
C182 C190 1.574 . S
C182 C198 1.368 . S
H183 C191 0.950 . S
H184 C189 0.950 . S
H185 C190 0.949 . S
H186 C192 0.950 . S
H187 C193 0.950 . S
H188 C194 0.949 . S
C189 H184 0.950 . S
C189 C191 1.327 . S
C189 C195 1.429 . S
C190 C182 1.574 . S
C190 H185 0.949 . S
C190 C196 1.368 . S
C191 C175 1.349 . S
C191 H183 0.950 . S
C191 C189 1.327 . S
C192 C180 1.349 . S
C192 H186 0.950 . S
C192 C193 1.327 . S
C193 H187 0.950 . S
C193 C192 1.327 . S
C193 C197 1.429 . S
C194 C177 1.574 . S
C194 H188 0.949 . S
C194 C198 1.368 . S
C195 C176 1.429 . S
C195 C189 1.429 . S
C195 C196 1.523 . S
C196 C177 1.368 . S
C196 C190 1.368 . S
C196 C195 1.523 . S
C197 C181 1.429 . S
C197 C193 1.429 . S
C197 C198 1.523 . S
C198 C182 1.368 . S
C198 C194 1.368 . S
C198 C197 1.523 . S
H199 C174 0.950 . S
H200 C176 0.950 . S
H201 C177 0.949 . S
H202 C179 0.950 . S
H203 C181 0.950 . S
C204 C205 1.349 . S
C204 C206 1.327 . S
C204 H229 0.950 . S
C205 C204 1.349 . S
C205 C221 1.349 . S
C206 C204 1.327 . S
C206 C225 1.429 . S
C206 H230 0.950 . S
C207 C224 1.574 . S
C207 C226 1.368 . S
C207 H231 0.949 . S
H208 C212 0.949 . S
C209 C210 1.349 . S
C209 C211 1.327 . S
C209 H232 0.950 . S
C210 C209 1.349 . S
C210 C222 1.349 . S
C211 C209 1.327 . S
C211 C227 1.429 . S
C211 H233 0.950 . S
C212 H208 0.949 . S
C212 C220 1.574 . S
C212 C228 1.368 . S
H213 C221 0.950 . S
H214 C219 0.950 . S
H215 C220 0.949 . S
H216 C222 0.950 . S
H217 C223 0.950 . S
H218 C224 0.949 . S
C219 H214 0.950 . S
C219 C221 1.327 . S
C219 C225 1.429 . S
C220 C212 1.574 . S
C220 H215 0.949 . S
C220 C226 1.368 1_565 S
C221 C205 1.349 . S
C221 H213 0.950 . S
C221 C219 1.327 . S
C222 C210 1.349 . S
C222 H216 0.950 . S
C222 C223 1.327 . S
C223 H217 0.950 . S
C223 C222 1.327 . S
C223 C227 1.429 . S
C224 C207 1.574 . S
C224 H218 0.949 . S
C224 C228 1.368 1_545 S
C225 C206 1.429 . S
C225 C219 1.429 . S
C225 C226 1.523 . S
C226 C207 1.368 . S
C226 C220 1.368 1_545 S
C226 C225 1.523 . S
C227 C211 1.429 . S
C227 C223 1.429 . S
C227 C228 1.523 . S
C228 C212 1.368 . S
C228 C224 1.368 1_565 S
C228 C227 1.523 . S
H229 C204 0.950 . S
H230 C206 0.950 . S
H231 C207 0.949 . S
H232 C209 0.950 . S
H233 C211 0.950 . S
C234 C235 1.349 . S
C234 C236 1.327 . S
C234 H259 0.950 . S
C235 C234 1.349 . S
C235 C251 1.349 . S
C236 C234 1.327 . S
C236 C255 1.429 . S
C236 H260 0.950 . S
C237 C254 1.574 . S
C237 C256 1.368 . S
C237 H261 0.949 . S
H238 C242 0.949 . S
C239 C240 1.349 . S
C239 C241 1.327 . S
C239 H262 0.950 . S
C240 C239 1.349 . S
C240 C252 1.349 . S
C241 C239 1.327 . S
C241 C257 1.429 . S
C241 H263 0.950 . S
C242 H238 0.949 . S
C242 C250 1.574 . S
C242 C258 1.368 . S
H243 C251 0.950 . S
H244 C249 0.950 . S
H245 C250 0.949 . S
H246 C252 0.950 . S
H247 C253 0.950 . S
H248 C254 0.949 . S
C249 H244 0.950 . S
C249 C251 1.327 . S
C249 C255 1.429 . S
C250 C242 1.574 . S
C250 H245 0.949 . S
C250 C256 1.368 . S
C251 C235 1.349 . S
C251 H243 0.950 . S
C251 C249 1.327 . S
C252 C240 1.349 . S
C252 H246 0.950 . S
C252 C253 1.327 . S
C253 H247 0.950 . S
C253 C252 1.327 . S
C253 C257 1.429 . S
C254 C237 1.574 . S
C254 H248 0.949 . S
C254 C258 1.368 . S
C255 C236 1.429 . S
C255 C249 1.429 . S
C255 C256 1.523 . S
C256 C237 1.368 . S
C256 C250 1.368 . S
C256 C255 1.523 . S
C257 C241 1.429 . S
C257 C253 1.429 . S
C257 C258 1.523 . S
C258 C242 1.368 . S
C258 C254 1.368 . S
C258 C257 1.523 . S
H259 C234 0.950 . S
H260 C236 0.950 . S
H261 C237 0.949 . S
H262 C239 0.950 . S
H263 C241 0.950 . S
C264 C265 1.349 . S
C264 C266 1.327 . S
C264 H289 0.950 . S
C265 C264 1.349 . S
C265 C281 1.349 . S
C266 C264 1.327 . S
C266 C285 1.429 . S
C266 H290 0.950 1_554 S
C267 C284 1.574 1_545 S
C267 C286 1.368 1_655 S
C267 H291 0.949 . S
H268 C272 0.949 . S
C269 C270 1.349 . S
C269 C271 1.327 . S
C269 H292 0.950 . S
C270 C269 1.349 . S
C270 C282 1.349 . S
C271 C269 1.327 . S
C271 C287 1.429 . S
C271 H293 0.950 1_556 S
C272 H268 0.949 . S
C272 C280 1.574 1_565 S
C272 C288 1.368 1_455 S
H273 C281 0.950 . S
H274 C279 0.950 . S
H275 C280 0.949 . S
H276 C282 0.950 . S
H277 C283 0.950 . S
H278 C284 0.949 . S
C279 H274 0.950 . S
C279 C281 1.327 . S
C279 C285 1.429 . S
C280 C272 1.574 1_545 S
C280 H275 0.949 . S
C280 C286 1.368 1_556 S
C281 C265 1.349 . S
C281 H273 0.950 . S
C281 C279 1.327 . S
C282 C270 1.349 . S
C282 H276 0.950 . S
C282 C283 1.327 . S
C283 H277 0.950 . S
C283 C282 1.327 . S
C283 C287 1.429 . S
C284 C267 1.574 1_565 S
C284 H278 0.949 . S
C284 C288 1.368 1_554 S
C285 C266 1.429 . S
C285 C279 1.429 . S
C285 C286 1.523 . S
C286 C267 1.368 1_455 S
C286 C280 1.368 1_554 S
C286 C285 1.523 . S
C287 C271 1.429 . S
C287 C283 1.429 . S
C287 C288 1.523 . S
C288 C272 1.368 1_655 S
C288 C284 1.368 1_556 S
C288 C287 1.523 . S
H289 C264 0.950 . S
H290 C266 0.950 1_556 S
H291 C267 0.949 . S
H292 C269 0.950 . S
H293 C271 0.950 1_554 S
C294 C295 1.349 . S
C294 C296 1.327 . S
C294 H319 0.950 . S
C295 C294 1.349 . S
C295 C311 1.349 . S
C296 C294 1.327 . S
C296 C315 1.429 . S
C296 H320 0.950 . S
C297 C314 1.574 1_556 S
C297 C316 1.368 . S
C297 H321 0.949 . S
H298 C302 0.949 . S
C299 C300 1.349 . S
C299 C301 1.327 . S
C299 H322 0.950 . S
C300 C299 1.349 . S
C300 C312 1.349 . S
C301 C299 1.327 . S
C301 C317 1.429 . S
C301 H323 0.950 . S
C302 H298 0.949 . S
C302 C310 1.574 1_554 S
C302 C318 1.368 . S
H303 C311 0.950 . S
H304 C309 0.950 . S
H305 C310 0.949 . S
H306 C312 0.950 . S
H307 C313 0.950 . S
H308 C314 0.949 . S
C309 H304 0.950 . S
C309 C311 1.327 . S
C309 C315 1.429 . S
C310 C302 1.574 1_556 S
C310 H305 0.949 . S
C310 C316 1.368 1_565 S
C311 C295 1.349 . S
C311 H303 0.950 . S
C311 C309 1.327 . S
C312 C300 1.349 . S
C312 H306 0.950 . S
C312 C313 1.327 . S
C313 H307 0.950 . S
C313 C312 1.327 . S
C313 C317 1.429 . S
C314 C297 1.574 1_554 S
C314 H308 0.949 . S
C314 C318 1.368 1_545 S
C315 C296 1.429 . S
C315 C309 1.429 . S
C315 C316 1.523 . S
C316 C297 1.368 . S
C316 C310 1.368 1_545 S
C316 C315 1.523 . S
C317 C301 1.429 . S
C317 C313 1.429 . S
C317 C318 1.523 . S
C318 C302 1.368 . S
C318 C314 1.368 1_565 S
C318 C317 1.523 . S
H319 C294 0.950 . S
H320 C296 0.950 . S
H321 C297 0.949 . S
H322 C299 0.950 . S
H323 C301 0.950 . S
C324 C325 1.349 . S
C324 C326 1.327 . S
C324 H349 0.950 . S
C325 C324 1.349 . S
C325 C341 1.349 . S
C326 C324 1.327 . S
C326 C345 1.429 . S
C326 H350 0.950 . S
C327 C344 1.577 . S
C327 C346 1.365 1_455 S
C327 H351 0.948 . S
H328 C332 0.948 . S
C329 C330 1.349 . S
C329 C331 1.327 . S
C329 H352 0.950 . S
C330 C329 1.349 . S
C330 C342 1.349 . S
C331 C329 1.327 . S
C331 C347 1.429 . S
C331 H353 0.950 . S
C332 H328 0.948 . S
C332 C340 1.577 . S
C332 C348 1.365 1_655 S
H333 C341 0.950 . S
H334 C339 0.950 . S
H335 C340 0.949 . S
H336 C342 0.950 . S
H337 C343 0.950 . S
H338 C344 0.949 . S
C339 H334 0.950 . S
C339 C341 1.327 . S
C339 C345 1.429 . S
C340 C332 1.577 . S
C340 H335 0.949 . S
C340 C346 1.368 . S
C341 C325 1.349 . S
C341 H333 0.950 . S
C341 C339 1.327 . S
C342 C330 1.349 . S
C342 H336 0.950 . S
C342 C343 1.327 . S
C343 H337 0.950 . S
C343 C342 1.327 . S
C343 C347 1.429 . S
C344 C327 1.577 . S
C344 H338 0.949 . S
C344 C348 1.368 . S
C345 C326 1.429 . S
C345 C339 1.429 . S
C345 C346 1.523 . S
C346 C327 1.365 1_655 S
C346 C340 1.368 . S
C346 C345 1.523 . S
C347 C331 1.429 . S
C347 C343 1.429 . S
C347 C348 1.523 . S
C348 C332 1.365 1_455 S
C348 C344 1.368 . S
C348 C347 1.523 . S
H349 C324 0.950 . S
H350 C326 0.950 . S
H351 C327 0.948 . S
H352 C329 0.950 . S
H353 C331 0.950 . S
C354 C355 1.349 . S
C354 C356 1.327 . S
C354 H379 0.950 . S
C355 C354 1.349 . S
C355 C371 1.349 . S
C356 C354 1.327 . S
C356 C375 1.429 . S
C356 H380 0.950 . S
C357 C374 1.574 . S
C357 C376 1.368 . S
C357 H381 0.949 . S
H358 C362 0.949 . S
C359 C360 1.349 . S
C359 C361 1.327 . S
C359 H382 0.950 . S
C360 C359 1.349 . S
C360 C372 1.349 . S
C361 C359 1.327 . S
C361 C377 1.429 . S
C361 H383 0.950 . S
C362 H358 0.949 . S
C362 C370 1.574 . S
C362 C378 1.368 . S
H363 C371 0.950 . S
H364 C369 0.950 . S
H365 C370 0.949 . S
H366 C372 0.950 . S
H367 C373 0.950 . S
H368 C374 0.949 . S
C369 H364 0.950 . S
C369 C371 1.327 . S
C369 C375 1.429 . S
C370 C362 1.574 . S
C370 H365 0.949 . S
C370 C376 1.368 . S
C371 C355 1.349 . S
C371 H363 0.950 . S
C371 C369 1.327 . S
C372 C360 1.349 . S
C372 H366 0.950 . S
C372 C373 1.327 . S
C373 H367 0.950 . S
C373 C372 1.327 . S
C373 C377 1.429 . S
C374 C357 1.574 . S
C374 H368 0.949 . S
C374 C378 1.368 . S
C375 C356 1.429 . S
C375 C369 1.429 . S
C375 C376 1.523 . S
C376 C357 1.368 . S
C376 C370 1.368 . S
C376 C375 1.523 . S
C377 C361 1.429 . S
C377 C373 1.429 . S
C377 C378 1.523 . S
C378 C362 1.368 . S
C378 C374 1.368 . S
C378 C377 1.523 . S
H379 C354 0.950 . S
H380 C356 0.950 . S
H381 C357 0.949 . S
H382 C359 0.950 . S
H383 C361 0.950 . S
C145 C40 0.824 . S
C150 C4 0.824 . S
C175 C2 0.719 . S
C180 C38 0.719 . S
C205 C112 0.824 . S
C210 C76 0.824 . S
C235 C74 0.719 . S
C240 C110 0.719 . S
C265 C14 1.472 . S
C270 C86 1.472 . S
C295 C122 1.472 . S
C300 C50 1.472 . S
C325 C75 1.547 . S
C330 C3 1.547 . S
C355 C39 1.547 . S
C360 C111 1.547 . S
