# Generated by pormake.
# Topology ukg, (4)-cn, num edge types: 1
# Building blocks:
#     Node 0, Type 0, BuildingBlock: KUFVIS_clean_sbu_0, # of connection points: 4
#     Node 1, Type 0, BuildingBlock: KUFVIS_clean_sbu_0, # of connection points: 4
#     Node 2, Type 0, BuildingBlock: KUFVIS_clean_sbu_0, # of connection points: 4
#     Node 3, Type 0, BuildingBlock: KUFVIS_clean_sbu_0, # of connection points: 4
#     Node 4, Type 0, BuildingBlock: KUFVIS_clean_sbu_0, # of connection points: 4
#     Node 5, Type 0, BuildingBlock: KUFVIS_clean_sbu_0, # of connection points: 4
#     Node 6, Type 0, BuildingBlock: KUFVIS_clean_sbu_0, # of connection points: 4
#     Node 7, Type 0, BuildingBlock: KUFVIS_clean_sbu_0, # of connection points: 4
#     Edge 8, Type (0, 0), BuildingBlock: UVAHIK_clean_linker_0, # of connection points: 2
#     Edge 9, Type (0, 0), BuildingBlock: UVAHIK_clean_linker_0, # of connection points: 2
#     Edge 10, Type (0, 0), BuildingBlock: UVAHIK_clean_linker_0, # of connection points: 2
#     Edge 11, Type (0, 0), BuildingBlock: UVAHIK_clean_linker_0, # of connection points: 2
#     Edge 12, Type (0, 0), BuildingBlock: UVAHIK_clean_linker_0, # of connection points: 2
#     Edge 13, Type (0, 0), BuildingBlock: UVAHIK_clean_linker_0, # of connection points: 2
#     Edge 14, Type (0, 0), BuildingBlock: UVAHIK_clean_linker_0, # of connection points: 2
#     Edge 15, Type (0, 0), BuildingBlock: UVAHIK_clean_linker_0, # of connection points: 2
#     Edge 16, Type (0, 0), BuildingBlock: UVAHIK_clean_linker_0, # of connection points: 2
#     Edge 17, Type (0, 0), BuildingBlock: UVAHIK_clean_linker_0, # of connection points: 2
#     Edge 18, Type (0, 0), BuildingBlock: UVAHIK_clean_linker_0, # of connection points: 2
#     Edge 19, Type (0, 0), BuildingBlock: UVAHIK_clean_linker_0, # of connection points: 2
#     Edge 20, Type (0, 0), BuildingBlock: UVAHIK_clean_linker_0, # of connection points: 2
#     Edge 21, Type (0, 0), BuildingBlock: UVAHIK_clean_linker_0, # of connection points: 2
#     Edge 22, Type (0, 0), BuildingBlock: UVAHIK_clean_linker_0, # of connection points: 2
#     Edge 23, Type (0, 0), BuildingBlock: UVAHIK_clean_linker_0, # of connection points: 2
# Relax obj value: 0.156
# Max RMSD: 0.244
# Mean RMSD: 0.244
data_MOF--net-ukg--node1-KUFVIS_clean_sbu_0--edge1-UVAHIK_clean_linker_0
_symmetry_space_group_name_H-M    P1
_symmetry_Int_Tables_number       1
_symmetry_cell_setting            triclinic
loop_
_symmetry_equiv_pos_as_xyz
'x, y, z'
_cell_length_a     39.41645
_cell_length_b     39.357472
_cell_length_c     46.586399
_cell_angle_alpha  89.998741
_cell_angle_beta   90.047568
_cell_angle_gamma 89.955304
loop_
_atom_site_label
_atom_site_type_symbol
_atom_site_fract_x
_atom_site_fract_y
_atom_site_fract_z
_atom_type_partial_charge
Mn0 Mn 0.00041 0.6943 0.14166 0.0
Mn1 Mn -0.00167 0.73415 0.0776 0.0
C2 C 0.99347 0.75218 0.14009 0.0
C3 C 0.97136 0.66464 0.17715 0.0
C4 C 0.06355 0.71257 0.10689 0.0
O5 O 0.99482 0.65557 0.11345 0.0
O6 O 0.9908 0.6844 0.07192 0.0
C7 C 0.92556 0.72298 0.06506 0.0
N8 N 0.95205 0.74467 0.06909 0.0
C9 C 0.91586 0.79335 0.06267 0.0
C10 C 0.88824 0.77154 0.05823 0.0
C11 C 0.89312 0.7362 0.05946 0.0
C12 C 0.94762 0.7787 0.06804 0.0
H13 H 0.92914 0.69581 0.06623 0.0
C14 C 0.99078 0.65664 0.08634 0.0
O15 O 0.00407 0.66168 0.17446 0.0
O16 O 0.95587 0.68416 0.15898 0.0
N17 N 0.00499 0.78227 0.07945 0.0
C18 C 0.0343 0.7998 0.08405 0.0
C19 C 0.03376 0.83548 0.08363 0.0
C20 C 0.00321 0.85273 0.07821 0.0
C21 C 0.97356 0.83413 0.07282 0.0
C22 C 0.97572 0.79861 0.07323 0.0
H23 H 0.05785 0.78668 0.08829 0.0
O24 O 0.00293 0.73736 0.16361 0.0
O25 O 0.98662 0.73238 0.11841 0.0
O26 O 0.04994 0.70011 0.12946 0.0
O27 O 0.04665 0.72502 0.08589 0.0
C28 C 0.94189 0.84942 0.0673 0.0
C29 C 0.91305 0.82905 0.06228 0.0
H30 H 0.86315 0.78163 0.05403 0.0
H31 H 0.87189 0.7192 0.05621 0.0
H32 H 0.0568 0.84965 0.08764 0.0
H33 H 0.00283 0.88025 0.07819 0.0
H34 H 0.9394 0.87683 0.06702 0.0
H35 H 0.8888 0.84111 0.05823 0.0
Mn36 Mn 0.31884 0.50486 0.65561 0.0
Mn37 Mn 0.26979 0.49911 0.59639 0.0
C38 C 0.26301 0.4892 0.66017 0.0
C39 C 0.35815 0.47952 0.68613 0.0
C40 C 0.28721 0.5659 0.62538 0.0
O41 O 0.35281 0.50597 0.62303 0.0
O42 O 0.31857 0.49734 0.58508 0.0
C43 C 0.28674 0.42848 0.57994 0.0
N44 N 0.26314 0.45228 0.58715 0.0
C45 C 0.21792 0.41154 0.58302 0.0
C46 C 0.2417 0.38665 0.57532 0.0
C47 C 0.27627 0.39516 0.57382 0.0
C48 C 0.22983 0.44437 0.58869 0.0
H49 H 0.31336 0.43486 0.57894 0.0
C50 C 0.34803 0.50128 0.59628 0.0
O51 O 0.35553 0.5124 0.68458 0.0
O52 O 0.33838 0.46171 0.66977 0.0
N53 N 0.22205 0.50018 0.60384 0.0
C54 C 0.2025 0.52683 0.61256 0.0
C55 C 0.16738 0.52232 0.61582 0.0
C56 C 0.15268 0.49061 0.60982 0.0
C57 C 0.17321 0.46375 0.60036 0.0
C58 C 0.20803 0.46982 0.59729 0.0
H59 H 0.21365 0.55125 0.61726 0.0
O60 O 0.27996 0.5 0.68221 0.0
O61 O 0.27977 0.48628 0.63618 0.0
O62 O 0.30401 0.55351 0.64638 0.0
O63 O 0.27462 0.54797 0.6051 0.0
C64 C 0.16059 0.43102 0.59438 0.0
C65 C 0.18293 0.40493 0.58575 0.0
H66 H 0.23375 0.36087 0.57076 0.0
H67 H 0.2948 0.37604 0.56806 0.0
H68 H 0.1517 0.5432 0.62308 0.0
H69 H 0.12563 0.48714 0.61265 0.0
H70 H 0.13381 0.42554 0.59667 0.0
H71 H 0.17298 0.37977 0.58152 0.0
Mn72 Mn 0.48413 0.80205 0.13692 0.0
Mn73 Mn 0.48459 0.75375 0.07716 0.0
C74 C 0.48768 0.74411 0.14098 0.0
C75 C 0.51393 0.8342 0.17027 0.0
C76 C 0.42035 0.78218 0.1033 0.0
O77 O 0.49292 0.83623 0.10549 0.0
O78 O 0.49341 0.80226 0.06672 0.0
C79 C 0.55762 0.76114 0.06379 0.0
N80 N 0.53055 0.74089 0.06986 0.0
C81 C 0.56535 0.69066 0.06817 0.0
C82 C 0.59355 0.71096 0.0617 0.0
C83 C 0.58965 0.74636 0.05952 0.0
C84 C 0.53403 0.70681 0.07204 0.0
H85 H 0.5548 0.78838 0.06233 0.0
C86 C 0.49565 0.83159 0.07856 0.0
O87 O 0.48171 0.83933 0.16608 0.0
O88 O 0.52864 0.81132 0.15465 0.0
N89 N 0.47663 0.70641 0.08364 0.0
C90 C 0.44694 0.69047 0.0902 0.0
C91 C 0.44654 0.655 0.09344 0.0
C92 C 0.47656 0.63628 0.08964 0.0
C93 C 0.50663 0.65316 0.08227 0.0
C94 C 0.50541 0.68853 0.07908 0.0
H95 H 0.42382 0.70475 0.09325 0.0
O96 O 0.47822 0.7625 0.16264 0.0
O97 O 0.4962 0.76041 0.1177 0.0
O98 O 0.43456 0.79782 0.12414 0.0
O99 O 0.43661 0.76527 0.0843 0.0
C100 C 0.53784 0.63635 0.07828 0.0
C101 C 0.56719 0.65509 0.07127 0.0
H102 H 0.61834 0.69968 0.05853 0.0
H103 H 0.61133 0.76221 0.05468 0.0
H104 H 0.42321 0.64214 0.09902 0.0
H105 H 0.47623 0.60896 0.09244 0.0
H106 H 0.5396 0.60904 0.08074 0.0
H107 H 0.59108 0.6419 0.06845 0.0
Mn108 Mn 0.16526 0.982 0.64734 0.0
Mn109 Mn 0.21347 0.97986 0.58749 0.0
C110 C 0.22268 0.99197 0.65049 0.0
C111 C 0.13108 0.01194 0.67933 0.0
C112 C 0.18967 0.91665 0.61866 0.0
O113 O 0.13027 0.98408 0.6153 0.0
O114 O 0.16482 0.98551 0.57682 0.0
C115 C 0.20277 0.05068 0.5681 0.0
N116 N 0.22421 0.02525 0.57616 0.0
C117 C 0.27295 0.06117 0.56956 0.0
C118 C 0.25142 0.08768 0.56098 0.0
C119 C 0.21617 0.08241 0.56029 0.0
C120 C 0.25816 0.03002 0.57687 0.0
H121 H 0.17566 0.0468 0.5677 0.0
C122 C 0.13524 0.98604 0.58828 0.0
O123 O 0.12938 0.97904 0.6775 0.0
O124 O 0.15136 0.02729 0.6617 0.0
N125 N 0.26104 0.9748 0.59456 0.0
C126 C 0.27815 0.94717 0.60467 0.0
C127 C 0.31359 0.94862 0.60754 0.0
C128 C 0.33107 0.97831 0.59977 0.0
C129 C 0.31296 0.00624 0.58903 0.0
C130 C 0.27769 0.00323 0.58644 0.0
H131 H 0.26485 0.92433 0.61078 0.0
O132 O 0.20548 0.98305 0.67295 0.0
O133 O 0.20554 -0.00415 0.62678 0.0
O134 O 0.17404 0.93175 0.63897 0.0
O135 O 0.20443 0.93217 0.59807 0.0
C136 C 0.32844 0.03719 0.58137 0.0
C137 C 0.30845 0.06464 0.57165 0.0
H138 H 0.26163 0.11226 0.55513 0.0
H139 H 0.19938 0.1028 0.55384 0.0
H140 H 0.32738 0.92696 0.61584 0.0
H141 H 0.35837 0.97944 0.60229 0.0
H142 H 0.35566 0.0403 0.58322 0.0
H143 H 0.32061 0.08844 0.56616 0.0
Mn144 Mn 0.98739 0.31191 0.86607 0.0
Mn145 Mn 0.98906 0.26579 0.92705 0.0
C146 C 0.00092 0.25529 0.86387 0.0
C147 C 0.01524 0.34787 0.83436 0.0
C148 C 0.92428 0.28271 0.89504 0.0
O149 O 0.98636 0.34779 0.89707 0.0
O150 O 0.9898 0.31536 0.93668 0.0
C151 C 0.05846 0.28423 0.94566 0.0
N152 N 0.03538 0.26004 0.93822 0.0
C153 C 0.07655 0.21549 0.94456 0.0
C154 C 0.1007 0.2399 0.95249 0.0
C155 C 0.09161 0.27442 0.95302 0.0
C156 C 0.04386 0.22677 0.9376 0.0
H157 H 0.05167 0.31081 0.94589 0.0
C158 C 0.98801 0.34437 0.9242 0.0
O159 O 0.98228 0.34707 0.83541 0.0
O160 O 0.03159 0.32869 0.85225 0.0
N161 N 0.98875 0.21763 0.92141 0.0
C162 C 0.96261 0.19733 0.91289 0.0
C163 C 0.96768 0.1621 0.91079 0.0
C164 C -0.00059 0.14807 0.91777 0.0
C165 C 0.02569 0.16938 0.92709 0.0
C166 C 0.01909 0.20428 0.92894 0.0
H167 H 0.93819 0.20798 0.90742 0.0
O168 O 0.99145 0.27161 0.84107 0.0
O169 O 0.00392 0.27314 0.88736 0.0
O170 O 0.93804 0.29937 0.8746 0.0
O171 O 0.94084 0.26984 0.91604 0.0
C172 C 0.05833 0.15743 0.93423 0.0
C173 C 0.08375 0.18047 0.94293 0.0
H174 H 0.12634 0.23245 0.95805 0.0
H175 H 0.11015 0.29342 0.95898 0.0
H176 H 0.94723 0.14581 0.90367 0.0
H177 H 0.00331 0.12092 0.91588 0.0
H178 H 0.06423 0.13059 0.9329 0.0
H179 H 0.10881 0.171 0.94815 0.0
Mn180 Mn 0.67271 0.49081 0.35359 0.0
Mn181 Mn 0.72068 0.50012 0.41313 0.0
C182 C 0.72787 0.50896 0.34932 0.0
C183 C 0.63305 0.51269 0.32158 0.0
C184 C 0.70609 0.43194 0.38553 0.0
O185 O 0.63823 0.48963 0.38582 0.0
O186 O 0.67171 0.50015 0.42396 0.0
C187 C 0.70073 0.57032 0.42843 0.0
N188 N 0.72533 0.54736 0.42171 0.0
C189 C 0.76888 0.5899 0.4258 0.0
C190 C 0.74403 0.61396 0.43298 0.0
C191 C 0.70981 0.60412 0.43426 0.0
C192 C 0.75834 0.55653 0.42044 0.0
H193 H 0.67437 0.56291 0.42927 0.0
C194 C 0.64253 0.49504 0.41255 0.0
O195 O 0.63713 0.48012 0.3245 0.0
O196 O 0.65148 0.53233 0.33761 0.0
N197 N 0.76848 0.50086 0.40594 0.0
C198 C 0.78908 0.47499 0.39731 0.0
C199 C 0.82401 0.48089 0.39409 0.0
C200 C 0.83741 0.51321 0.39999 0.0
C201 C 0.81578 0.53929 0.40923 0.0
C202 C 0.78122 0.53185 0.41227 0.0
H203 H 0.77892 0.45013 0.39264 0.0
O204 O 0.71193 0.49635 0.32742 0.0
O205 O 0.71056 0.5118 0.37304 0.0
O206 O 0.68915 0.44326 0.36424 0.0
O207 O 0.71801 0.45078 0.40548 0.0
C208 C 0.82702 0.57258 0.41496 0.0
C209 C 0.80359 0.59787 0.42322 0.0
H210 H 0.7509 0.64011 0.4373 0.0
H211 H 0.69047 0.62258 0.43963 0.0
H212 H 0.84053 0.46063 0.38694 0.0
H213 H 0.8643 0.51775 0.39719 0.0
H214 H 0.85358 0.57912 0.41272 0.0
H215 H 0.81249 0.62347 0.42722 0.0
Mn216 Mn 0.50974 0.16852 0.84815 0.0
Mn217 Mn 0.51006 0.21335 0.90984 0.0
C218 C 0.50322 0.22644 0.8465 0.0
C219 C 0.47916 0.13639 0.81519 0.0
C220 C 0.5741 0.18862 0.88052 0.0
O221 O 0.50496 0.13224 0.87862 0.0
O222 O 0.50224 0.16426 0.91852 0.0
C223 C 0.43763 0.2042 0.92458 0.0
N224 N 0.46424 0.22515 0.91878 0.0
C225 C 0.42895 0.27475 0.92351 0.0
C226 C 0.40122 0.25372 0.92976 0.0
C227 C 0.40559 0.21829 0.93027 0.0
C228 C 0.4603 0.25927 0.91816 0.0
H229 H 0.44082 0.17695 0.92476 0.0
C230 C 0.50179 0.13543 0.90568 0.0
O231 O 0.51193 0.13329 0.81722 0.0
O232 O 0.46453 0.15746 0.83259 0.0
N233 N 0.51724 0.2611 0.90511 0.0
C234 C 0.54654 0.2778 0.89867 0.0
C235 C 0.54646 0.31343 0.89707 0.0
C236 C 0.51638 0.33152 0.9024 0.0
C237 C 0.48675 0.31382 0.90969 0.0
C238 C 0.48845 0.27832 0.91121 0.0
H239 H 0.56972 0.26403 0.89448 0.0
O240 O 0.51174 0.20962 0.8237 0.0
O241 O 0.49703 0.20854 0.86947 0.0
O242 O 0.55979 0.17481 0.85881 0.0
O243 O 0.55791 0.20285 0.90108 0.0
C244 C 0.45551 0.32997 0.91518 0.0
C245 C 0.42662 0.31045 0.92205 0.0
H246 H 0.37643 0.26448 0.93403 0.0
H247 H 0.38427 0.20188 0.93492 0.0
H248 H 0.56947 0.32691 0.89159 0.0
H249 H 0.51633 0.35898 0.90087 0.0
H250 H 0.45337 0.35737 0.91401 0.0
H251 H 0.40269 0.32314 0.92604 0.0
Mn252 Mn 0.81891 0.01988 0.33819 0.0
Mn253 Mn 0.76946 0.00862 0.3964 0.0
C254 C 0.76206 0.00818 0.33274 0.0
C255 C 0.85444 -0.00224 0.30306 0.0
C256 C 0.79103 0.07789 0.37497 0.0
O257 O 0.85333 0.01241 0.37003 0.0
O258 O 0.81817 0.0042 0.4075 0.0
C259 C 0.78446 0.93587 0.40638 0.0
N260 N 0.76156 0.96103 0.40106 0.0
C261 C 0.71552 0.92094 0.39971 0.0
C262 C 0.73858 0.89463 0.40539 0.0
C263 C 0.7732 0.90214 0.40872 0.0
C264 C 0.72818 0.9541 0.39789 0.0
H265 H 0.81114 0.94147 0.4087 0.0
C266 C 0.84796 0.00635 0.39656 0.0
O267 O 0.85554 0.02982 0.3097 0.0
O268 O 0.83408 0.97864 0.3177 0.0
N269 N 0.72189 0.01185 0.38857 0.0
C270 C 0.70321 0.03991 0.38187 0.0
C271 C 0.66818 0.03662 0.37712 0.0
C272 C 0.65272 0.00458 0.37939 0.0
C273 C 0.67241 0.97615 0.38661 0.0
C274 C 0.70714 0.98104 0.39142 0.0
H275 H 0.715 0.06455 0.37988 0.0
O276 O 0.77891 0.02263 0.3122 0.0
O277 O 0.77919 0.00072 0.35578 0.0
O278 O 0.80843 0.06729 0.35368 0.0
O279 O 0.77566 0.05823 0.3925 0.0
C280 C 0.65905 0.94305 0.38869 0.0
C281 C 0.68059 0.91546 0.39523 0.0
H282 H 0.73004 0.86854 0.40697 0.0
H283 H 0.79118 0.88195 0.41293 0.0
H284 H 0.65316 0.05868 0.37152 0.0
H285 H 0.62577 0.00208 0.37536 0.0
H286 H 0.63231 0.93847 0.38497 0.0
H287 H 0.67009 0.89008 0.39644 0.0
C288 C 0.98452 0.40778 0.92896 0.0
C289 C 0.98743 0.37567 0.94204 0.0
C290 C 0.98327 0.43733 0.94551 0.0
C291 C 0.00499 0.47172 0.01684 0.0
H292 H 0.9432 0.54394 0.99482 0.0
C293 C 0.98812 0.59284 0.08548 0.0
C294 C 0.98693 0.62399 0.07065 0.0
C295 C 0.98631 0.56203 0.07062 0.0
C296 C 0.96081 0.52415 0.00111 0.0
H297 H 0.99153 0.34972 0.98301 0.0
H298 H 0.98915 0.40143 0.01191 0.0
H299 H 0.94388 0.49103 0.96761 0.0
H300 H 0.98216 0.64692 0.02846 0.0
H301 H 0.97928 0.59322 0.0026 0.0
H302 H 0.0221 0.50496 0.0502 0.0
C303 C 0.98809 0.40363 0.98875 0.0
C304 C 0.9612 0.49381 0.98551 0.0
C305 C 0.9893 0.37397 0.97217 0.0
C306 C 0.98317 0.62349 0.04063 0.0
C307 C 0.98133 0.59266 0.02578 0.0
C308 C 0.00459 0.50208 0.03244 0.0
C309 C 0.9849 0.43566 0.9756 0.0
C310 C 0.9835 0.46733 0.99302 0.0
C311 C 0.9832 0.56155 0.04057 0.0
C312 C 0.98268 0.52877 0.02463 0.0
H313 H 0.98314 0.41023 0.90583 0.0
H314 H 0.9814 0.46159 0.93464 0.0
H315 H 0.02277 0.45203 0.02298 0.0
H316 H 0.99084 0.59214 0.10861 0.0
H317 H 0.98731 0.53855 0.08272 0.0
C318 C 0.41089 0.50558 0.58842 0.0
C319 C 0.37816 0.50032 0.5772 0.0
C320 C 0.43927 0.50496 0.57049 0.0
C321 C 0.46909 0.474 0.50011 0.0
H322 H 0.53987 0.54123 0.51073 0.0
C323 C 0.5796 0.48999 0.41991 0.0
C324 C 0.61216 0.49565 0.43137 0.0
C325 C 0.551 0.49056 0.4376 0.0
C326 C 0.52052 0.52204 0.50769 0.0
H327 H 0.34981 0.49005 0.53816 0.0
H328 H 0.39935 0.48924 0.50691 0.0
H329 H 0.49005 0.54216 0.54168 0.0
H330 H 0.63996 0.50637 0.4706 0.0
H331 H 0.5901 0.507 0.50141 0.0
H332 H 0.4996 0.45385 0.46614 0.0
C333 C 0.40302 0.49355 0.52966 0.0
C334 C 0.49196 0.52258 0.52542 0.0
C335 C 0.37459 0.49422 0.54759 0.0
C336 C 0.61534 0.50194 0.46098 0.0
C337 C 0.58671 0.50252 0.47865 0.0
C338 C 0.49767 0.47345 0.48238 0.0
C339 C 0.43568 0.499 0.5409 0.0
C340 C 0.46592 0.49854 0.52187 0.0
C341 C 0.5542 0.49682 0.46718 0.0
C342 C 0.52375 0.49744 0.48598 0.0
H343 H 0.41471 0.51022 0.61111 0.0
H344 H 0.46412 0.50877 0.57989 0.0
H345 H 0.44972 0.45482 0.49709 0.0
H346 H 0.5761 0.48519 0.39721 0.0
H347 H 0.52629 0.48653 0.42801 0.0
C348 C 0.50214 0.89457 0.07244 0.0
C349 C 0.49992 0.86202 0.06006 0.0
C350 C 0.50351 0.92357 0.05522 0.0
C351 C 0.48105 0.95417 0.98287 0.0
H352 H 0.53746 0.03097 0.00382 0.0
C353 C 0.49801 0.07193 0.90992 0.0
C354 C 0.49897 0.10404 0.92321 0.0
C355 C 0.49772 0.04222 0.92634 0.0
C356 C 0.52126 0.00989 0.99787 0.0
H357 H 0.49843 0.83461 0.01965 0.0
H358 H 0.50121 0.88532 0.9896 0.0
H359 H 0.5397 0.97915 0.03241 0.0
H360 H 0.49948 0.12988 0.96439 0.0
H361 H 0.49872 0.07801 0.99298 0.0
H362 H 0.46262 0.98498 0.94832 0.0
C363 C 0.50135 0.88832 0.01271 0.0
C364 C 0.5226 0.98015 0.01422 0.0
C365 C 0.5 0.85922 0.02995 0.0
C366 C 0.49886 0.10565 0.95338 0.0
C367 C 0.49867 0.07589 0.96979 0.0
C368 C 0.47975 0.98391 0.96649 0.0
C369 C 0.50273 0.92086 0.02515 0.0
C370 C 0.50239 0.95198 0.00701 0.0
C371 C 0.49846 0.04383 0.95646 0.0
C372 C 0.49973 0.01218 0.97387 0.0
H373 H 0.50213 0.89783 0.09552 0.0
H374 H 0.50418 0.94821 0.06555 0.0
H375 H 0.46474 0.93316 0.97699 0.0
H376 H 0.49805 0.06962 0.88675 0.0
H377 H 0.49784 0.01795 0.91539 0.0
C378 C 0.87286 -0.00345 0.44552 0.0
C379 C 0.8776 0.00239 0.41599 0.0
C380 C 0.90065 0.9942 0.46407 0.0
C381 C 0.99088 0.01853 0.47018 0.0
H382 H 0.99182 0.95269 0.53211 0.0
C383 C 0.10994 0.9933 0.53919 0.0
C384 C 0.10541 0.98873 0.56891 0.0
C385 C 0.08203 0.99513 0.52076 0.0
C386 C 0.99176 0.97148 0.51513 0.0
H387 H 0.91561 0.00963 0.38284 0.0
H388 H 0.96401 0.00511 0.41517 0.0
H389 H 0.94368 0.95462 0.49921 0.0
H390 H 0.06767 0.98278 0.60245 0.0
H391 H 0.01897 0.98617 0.57021 0.0
H392 H 0.03901 0.03532 0.48605 0.0
C393 C 0.93871 0.00291 0.42403 0.0
C394 C 0.96418 0.97258 0.49625 0.0
C395 C 0.91092 0.00528 0.40545 0.0
C396 C 0.07217 0.98626 0.57971 0.0
C397 C 0.04423 0.98798 0.56121 0.0
C398 C 0.01847 0.01739 0.48903 0.0
C399 C 0.9339 -0.00241 0.4536 0.0
C400 C 0.96341 -0.00389 0.47353 0.0
C401 C 0.04885 0.99237 0.53151 0.0
C402 C 0.01926 0.99385 0.51171 0.0
H403 H 0.84763 0.9942 0.45448 0.0
H404 H 0.89599 0.99047 0.48676 0.0
H405 H 0.99085 0.03738 0.45325 0.0
H406 H 0.13511 0.99534 0.53004 0.0
H407 H 0.08651 -0.00188 0.49796 0.0
C408 C 0.11984 0.71667 0.13136 0.0
C409 C 0.10086 0.71553 0.10585 0.0
C410 C 0.1545 0.72384 0.13063 0.0
C411 C 0.21944 0.76306 0.08344 0.0
H412 H 0.28182 0.72439 0.13896 0.0
C413 C 0.36603 0.77184 0.07694 0.0
C414 C 0.38293 0.78072 0.10244 0.0
C415 C 0.33109 0.7661 0.07696 0.0
C416 C 0.26455 0.73557 0.12351 0.0
H417 H 0.10362 0.71925 0.05947 0.0
H418 H 0.16435 0.73028 0.05807 0.0
H419 H 0.22253 0.70683 0.13919 0.0
H420 H 0.3763 0.79148 0.14779 0.0
H421 H 0.31523 0.78092 0.14781 0.0
H422 H 0.26206 0.79093 0.06727 0.0
C423 C 0.1523 0.72689 0.07875 0.0
C424 C 0.23058 0.7256 0.12364 0.0
C425 C 0.11754 0.72024 0.07952 0.0
C426 C 0.364 0.78487 0.12776 0.0
C427 C 0.32914 0.77857 0.12786 0.0
C428 C 0.25355 0.7726 0.08305 0.0
C429 C 0.1711 0.72954 0.10434 0.0
C430 C 0.20753 0.73932 0.10368 0.0
C431 C 0.31253 0.76861 0.10256 0.0
C432 C 0.27632 0.75907 0.10317 0.0
H433 H 0.10765 0.71352 0.15202 0.0
H434 H 0.16796 0.72613 0.15081 0.0
H435 H 0.20235 0.77472 0.06813 0.0
H436 H 0.37994 0.76851 0.05709 0.0
H437 H 0.31881 0.75834 0.05721 0.0
C438 C 0.27865 0.62111 0.65107 0.0
C439 C 0.2796 0.60264 0.62528 0.0
C440 C 0.26753 0.65484 0.65129 0.0
C441 C 0.21777 0.71584 0.60715 0.0
H442 H 0.25679 0.78271 0.65859 0.0
C443 C 0.2009 0.8608 0.59501 0.0
C444 C 0.19338 0.87935 0.61998 0.0
C445 C 0.20823 0.82616 0.59662 0.0
C446 C 0.24543 0.76415 0.64436 0.0
H447 H 0.27126 0.60546 0.57933 0.0
H448 H 0.25332 0.66456 0.57949 0.0
H449 H 0.27828 0.72457 0.65909 0.0
H450 H 0.1869 0.87602 0.66615 0.0
H451 H 0.20033 0.8154 0.66893 0.0
H452 H 0.18584 0.75599 0.59174 0.0
C453 C 0.25989 0.65276 0.59974 0.0
C454 C 0.25767 0.73083 0.64465 0.0
C455 C 0.2705 0.61895 0.59959 0.0
C456 C 0.19239 0.86235 0.64651 0.0
C457 C 0.20031 0.82779 0.64817 0.0
C458 C 0.2059 0.74925 0.6066 0.0
C459 C 0.25756 0.67094 0.62566 0.0
C460 C 0.24416 0.70629 0.62589 0.0
C461 C 0.20872 0.80954 0.62327 0.0
C462 C 0.21974 0.77371 0.62509 0.0
H463 H 0.28517 0.60911 0.67126 0.0
H464 H 0.26574 0.66788 0.6717 0.0
H465 H 0.20614 0.69749 0.59291 0.0
H466 H 0.2018 0.8732 0.57426 0.0
H467 H 0.21481 0.81265 0.57713 0.0
C468 C 0.62848 0.19577 0.9073 0.0
C469 C 0.61144 0.19089 0.88111 0.0
C470 C 0.66322 0.20239 0.90773 0.0
C471 C 0.72802 0.24284 0.86511 0.0
H472 H 0.79117 0.19984 0.91763 0.0
C473 C 0.87078 0.27597 0.86669 0.0
C474 C 0.88761 0.2753 0.89329 0.0
C475 C 0.83721 0.26497 0.86445 0.0
C476 C 0.77377 0.21248 0.90313 0.0
H477 H 0.61759 0.18805 0.8349 0.0
H478 H 0.67847 0.20021 0.83571 0.0
H479 H 0.73286 0.17942 0.9148 0.0
H480 H 0.88196 0.26411 0.93862 0.0
H481 H 0.82305 0.24628 0.93496 0.0
H482 H 0.76827 0.27676 0.85414 0.0
C483 C 0.66479 0.19872 0.85583 0.0
C484 C 0.7405 0.20054 0.90137 0.0
C485 C 0.63008 0.19153 0.85541 0.0
C486 C 0.86976 0.26468 0.91778 0.0
C487 C 0.83608 0.25413 0.91561 0.0
C488 C 0.76116 0.2551 0.86713 0.0
C489 C 0.68149 0.20476 0.88197 0.0
C490 C 0.71732 0.21572 0.88244 0.0
C491 C 0.81958 0.25347 0.88883 0.0
C492 C 0.78441 0.2402 0.88631 0.0
H493 H 0.61478 0.19533 0.92745 0.0
H494 H 0.67552 0.20714 0.92815 0.0
H495 H 0.71042 0.25528 0.85064 0.0
H496 H 0.88395 0.28368 0.84736 0.0
H497 H 0.82549 0.26446 0.84343 0.0
C498 C 0.72176 0.37925 0.41259 0.0
C499 C 0.71403 0.39531 0.38642 0.0
C500 C 0.731 0.34497 0.41313 0.0
C501 C 0.7718 0.28032 0.37051 0.0
H502 H 0.72275 0.21437 0.41625 0.0
C503 C 0.7907 0.13675 0.35495 0.0
C504 C 0.78669 0.11492 0.37854 0.0
C505 C 0.78381 0.17138 0.35756 0.0
C506 C 0.73724 0.23248 0.4038 0.0
H507 H 0.70998 0.38816 0.34036 0.0
H508 H 0.72694 0.32844 0.34135 0.0
H509 H 0.70644 0.27415 0.41807 0.0
H510 H 0.77363 0.11245 0.4237 0.0
H511 H 0.76301 0.17316 0.42863 0.0
H512 H 0.80323 0.23927 0.35672 0.0
C513 C 0.72546 0.34238 0.36137 0.0
C514 C 0.72768 0.26665 0.40474 0.0
C515 C 0.71555 0.37641 0.36086 0.0
C516 C 0.77669 0.12863 0.40507 0.0
C517 C 0.77036 0.16341 0.40782 0.0
C518 C 0.7818 0.24631 0.36997 0.0
C519 C 0.73338 0.32646 0.38747 0.0
C520 C 0.74455 0.29069 0.38775 0.0
C521 C 0.7733 0.18517 0.38397 0.0
C522 C 0.76429 0.22181 0.38623 0.0
H523 H 0.72074 0.39319 0.43262 0.0
H524 H 0.73707 0.33312 0.43349 0.0
H525 H 0.78544 0.2986 0.35753 0.0
H526 H 0.798 0.12691 0.33413 0.0
H527 H 0.78574 0.18709 0.33856 0.0
C528 C 0.78592 0.50634 0.32925 0.0
C529 C 0.76129 0.52438 0.34464 0.0
C530 C 0.81507 0.52267 0.31938 0.0
C531 C 0.87846 0.56056 0.30242 0.0
H532 H 0.85664 0.64814 0.26916 0.0
C533 C 0.96856 0.63272 0.22391 0.0
C534 C 0.95214 0.64783 0.20034 0.0
C535 C 0.94957 0.61916 0.24662 0.0
C536 C 0.86318 0.62367 0.27827 0.0
H537 H 0.74724 0.57352 0.36165 0.0
H538 H 0.79907 0.60189 0.34596 0.0
H539 H 0.81672 0.62142 0.3014 0.0
H540 H 0.9031 0.65948 0.18157 0.0
H541 H 0.87029 0.63527 0.22041 0.0
H542 H 0.92394 0.562 0.27726 0.0
C543 C 0.79596 0.57514 0.34122 0.0
C544 C 0.84048 0.60852 0.29726 0.0
C545 C 0.76654 0.55884 0.35069 0.0
C546 C 0.91655 0.64835 0.19955 0.0
C547 C 0.8977 0.63473 0.22201 0.0
C548 C 0.90107 0.57562 0.28306 0.0
C549 C 0.82001 0.55757 0.32447 0.0
C550 C 0.84724 0.57623 0.30888 0.0
C551 C 0.91388 0.62048 0.24606 0.0
C552 C 0.89303 0.60677 0.26997 0.0
H553 H 0.7819 0.47988 0.3238 0.0
H554 H 0.83251 0.50833 0.30613 0.0
H555 H 0.88487 0.53602 0.31143 0.0
H556 H -0.004 0.63206 0.2251 0.0
H557 H 0.96279 0.60833 0.26484 0.0
C558 C 0.39118 0.42869 0.70091 0.0
C559 C 0.38166 0.46248 0.70613 0.0
C560 C 0.41111 0.41108 0.72062 0.0
C561 C 0.46766 0.38584 0.75889 0.0
H562 H 0.43264 0.37756 0.83636 0.0
C563 C 0.52128 0.28386 0.8316 0.0
C564 C 0.49633 0.26288 0.8436 0.0
C565 C 0.51296 0.31627 0.82172 0.0
C566 C 0.44292 0.37988 0.8149 0.0
H567 H 0.38583 0.50462 0.73588 0.0
H568 H 0.42041 0.47323 0.77099 0.0
H569 H 0.40806 0.41962 0.80353 0.0
H570 H 0.44334 0.25895 0.85506 0.0
H571 H 0.42838 0.31544 0.83729 0.0
H572 H 0.50103 0.34505 0.76925 0.0
C573 C 0.41256 0.46068 0.75139 0.0
C574 C 0.42906 0.40412 0.79622 0.0
C575 C 0.39301 0.47861 0.73129 0.0
C576 C 0.46316 0.27519 0.84663 0.0
C577 C 0.45468 0.30755 0.83645 0.0
C578 C 0.48157 0.36185 0.77749 0.0
C579 C 0.42164 0.42668 0.74623 0.0
C580 C 0.44053 0.40639 0.76773 0.0
C581 C 0.47922 0.32784 0.82273 0.0
C582 C 0.46864 0.35777 0.80542 0.0
H583 H 0.38284 0.41563 0.68169 0.0
H584 H 0.41738 0.38477 0.71624 0.0
H585 H 0.47711 0.38727 0.73708 0.0
H586 H 0.54693 0.27455 0.82871 0.0
H587 H 0.53255 0.33145 0.8117 0.0
C588 C 0.52567 0.88582 0.20041 0.0
C589 C 0.53341 0.8523 0.19247 0.0
C590 C 0.54665 0.90327 0.21977 0.0
C591 C 0.63467 0.89902 0.24797 0.0
H592 H 0.6039 0.96745 0.30192 0.0
C593 C 0.7264 0.9568 0.3282 0.0
C594 C 0.72948 0.99216 0.32584 0.0
C595 C 0.69833 0.94022 0.31659 0.0
C596 C 0.61266 0.94832 0.28694 0.0
H597 H 0.56725 0.80981 0.19994 0.0
H598 H 0.60253 0.83927 0.23451 0.0
H599 H 0.56232 0.93696 0.27228 0.0
H600 H 0.70607 0.03813 0.30982 0.0
H601 H 0.65642 0.009 0.28953 0.0
H602 H 0.68477 0.90995 0.26277 0.0
C603 C 0.58151 0.85294 0.22496 0.0
C604 C 0.58899 0.93103 0.26985 0.0
C605 C 0.56115 0.83592 0.20526 0.0
C606 C 0.7037 0.01087 0.31235 0.0
C607 C 0.67537 0.99429 0.30091 0.0
C608 C 0.65806 0.9158 0.26525 0.0
C609 C 0.57526 0.88717 0.23182 0.0
C610 C 0.59977 0.90603 0.25022 0.0
C611 C 0.67308 0.95871 0.30212 0.0
C612 C 0.64735 0.94051 0.28492 0.0
H613 H 0.50432 0.89893 0.19081 0.0
H614 H 0.54112 0.92964 0.22444 0.0
H615 H 0.64417 0.88084 0.23248 0.0
H616 H 0.74653 0.94181 0.33774 0.0
H617 H 0.69711 0.91275 0.31776 0.0
C618 C 0.0461 0.21115 0.86552 0.0
C619 C 0.0122 0.21999 0.86038 0.0
C620 C 0.05932 0.1809 0.85436 0.0
C621 C 0.08572 0.13908 0.80506 0.0
H622 H 0.0333 0.05952 0.78403 0.0
C623 C 0.11442 0.0668 0.702 0.0
C624 C 0.11371 0.03114 0.70231 0.0
C625 C 0.10224 0.08535 0.72531 0.0
C626 C 0.0485 0.08132 0.78998 0.0
H627 H 0.9652 0.20424 0.84051 0.0
H628 H 0.98809 0.15202 0.82054 0.0
H629 H 0.01288 0.09702 0.82209 0.0
H630 H 0.09851 0.98693 0.7269 0.0
H631 H 0.07726 0.01952 0.76791 0.0
H632 H 0.12122 0.12362 0.77301 0.0
C633 C 0.00446 0.16745 0.83389 0.0
C634 C 0.0367 0.10296 0.81167 0.0
C635 C 0.99129 0.19749 0.8452 0.0
C636 C 0.09927 0.01442 0.726 0.0
C637 C 0.08715 0.03307 0.7495 0.0
C638 C 0.09755 0.11743 0.78358 0.0
C639 C 0.03905 0.15954 0.83716 0.0
C640 C 0.05462 0.13274 0.8188 0.0
C641 C 0.08925 0.06875 0.74966 0.0
C642 C 0.0785 0.08899 0.77504 0.0
H643 H 0.06292 0.22864 0.87648 0.0
H644 H 0.08594 0.17534 0.8577 0.0
H645 H 0.10014 0.16185 0.80964 0.0
H646 H 0.12512 0.08047 0.68397 0.0
H647 H 0.10334 0.11283 0.72435 0.0
C648 C 0.01763 0.37988 0.78771 0.0
C649 C 0.03394 0.36718 0.81234 0.0
C650 C 0.03674 0.39356 0.76512 0.0
C651 C 0.12277 0.38755 0.73524 0.0
H652 H 0.10375 0.47302 0.69716 0.0
C653 C 0.20523 0.49663 0.67975 0.0
C654 C 0.22851 0.47648 0.66469 0.0
C655 C 0.17497 0.48269 0.6898 0.0
C656 C 0.10926 0.44897 0.70747 0.0
H657 H 0.08259 0.36092 0.83351 0.0
H658 H 0.11557 0.38507 0.79461 0.0
H659 H 0.06371 0.45079 0.73267 0.0
H660 H 0.23894 0.42617 0.64828 0.0
H661 H 0.18534 0.40184 0.66478 0.0
H662 H 0.16906 0.38636 0.71178 0.0
C663 C 0.08825 0.38368 0.79227 0.0
C664 C 0.08623 0.43619 0.72763 0.0
C665 C 0.06931 0.37007 0.81466 0.0
C666 C 0.22076 0.44241 0.65905 0.0
C667 C 0.19032 0.42846 0.66886 0.0
C668 C 0.14572 0.40028 0.71526 0.0
C669 C 0.07233 0.39461 0.76692 0.0
C670 C 0.09348 0.40598 0.74246 0.0
C671 C 0.16769 0.44811 0.68536 0.0
C672 C 0.13986 0.43171 0.70182 0.0
H673 H 0.99036 0.37793 0.78538 0.0
H674 H 0.02384 0.40201 0.74586 0.0
H675 H 0.12864 0.3638 0.7459 0.0
H676 H 0.21119 0.52282 0.68485 0.0
H677 H 0.15855 0.49847 0.70281 0.0
C678 C 0.59902 0.5082 0.27621 0.0
C679 C 0.60965 0.52723 0.30011 0.0
C680 C 0.57947 0.52343 0.2546 0.0
C681 C 0.52331 0.59607 0.2404 0.0
H682 H 0.55914 0.59508 0.16286 0.0
C683 C 0.52787 0.69571 0.14428 0.0
C684 C 0.49455 0.70799 0.14604 0.0
C685 C 0.53641 0.66458 0.15682 0.0
C686 C 0.54862 0.59529 0.18433 0.0
H687 H 0.60725 0.57654 0.32075 0.0
H688 H 0.57272 0.60279 0.28351 0.0
H689 H 0.58397 0.55784 0.19948 0.0
H690 H 0.44371 0.69726 0.16085 0.0
H691 H 0.45828 0.64242 0.18213 0.0
H692 H 0.48938 0.63471 0.22613 0.0
C693 C 0.57953 0.57624 0.28131 0.0
C694 C 0.56264 0.57383 0.20519 0.0
C695 C 0.59945 0.56127 0.30256 0.0
C696 C 0.46949 0.68794 0.15897 0.0
C697 C 0.47791 0.65673 0.17127 0.0
C698 C 0.50921 0.61729 0.21962 0.0
C699 C 0.56972 0.55765 0.25695 0.0
C700 C 0.55088 0.575 0.23365 0.0
C701 C 0.5118 0.64555 0.17167 0.0
C702 C 0.52242 0.61802 0.19157 0.0
H703 H 0.6067 0.48194 0.27374 0.0
H704 H 0.57217 0.50858 0.23602 0.0
H705 H 0.51361 0.59724 0.26213 0.0
H706 H 0.54775 0.7113 0.13512 0.0
H707 H 0.56281 0.65695 0.15697 0.0
C708 C 0.47435 0.10099 0.77034 0.0
C709 C 0.45895 0.11835 0.79327 0.0
C710 C 0.45442 0.08683 0.74843 0.0
C711 C 0.36908 0.09576 0.71638 0.0
H712 H 0.38221 0.00423 0.68782 0.0
C713 C 0.28016 0.98409 0.67099 0.0
C714 C 0.25774 0.00358 0.65443 0.0
C715 C 0.31104 -0.0023 0.68007 0.0
C716 C 0.37827 0.0299 0.69551 0.0
H717 H 0.41072 0.13311 0.81196 0.0
H718 H 0.37633 0.10815 0.7744 0.0
H719 H 0.42363 0.02874 0.72101 0.0
H720 H 0.24952 0.05247 0.63441 0.0
H721 H 0.30432 0.07581 0.64873 0.0
H722 H 0.32281 0.09651 0.69287 0.0
C723 C 0.40367 0.10618 0.77273 0.0
C724 C 0.40217 0.04402 0.7143 0.0
C725 C 0.42342 0.12027 0.79442 0.0
C726 C 0.26701 0.03656 0.64632 0.0
C727 C 0.29814 0.05005 0.65499 0.0
C728 C 0.34517 0.08166 0.69788 0.0
C729 C 0.41887 0.08994 0.74918 0.0
C730 C 0.39708 0.07665 0.72575 0.0
C731 C 0.31994 0.0313 0.67299 0.0
C732 C 0.34881 0.04813 0.68792 0.0
H733 H 0.50171 0.09914 0.76893 0.0
H734 H 0.46681 0.07433 0.73058 0.0
H735 H 0.36487 0.12129 0.72432 0.0
H736 H 0.27307 0.95881 0.678 0.0
H737 H 0.32673 0.98263 0.69429 0.0
C738 C 0.95169 0.79919 0.13872 0.0
C739 C 0.98545 0.78851 0.14111 0.0
C740 C 0.94247 0.83201 0.14708 0.0
C741 C 0.97254 0.89643 0.19868 0.0
H742 H 0.88773 0.93929 0.17712 0.0
C743 C 0.90413 -0.00266 0.26922 0.0
C744 C 0.87307 0.98364 0.27838 0.0
C745 C 0.92169 0.98243 0.24626 0.0
C746 C 0.91181 0.92798 0.18303 0.0
H747 H 0.03635 0.80347 0.15283 0.0
H748 H 0.02084 0.8615 0.16585 0.0
H749 H 0.91341 0.89736 0.14512 0.0
H750 H 0.83515 0.94498 0.27004 0.0
H751 H 0.86524 0.91972 0.22972 0.0
H752 H 0.97032 0.92665 0.23688 0.0
C753 C 0.00116 0.84456 0.15825 0.0
C754 C 0.92638 0.90372 0.1649 0.0
C755 C 0.01018 0.8115 0.15051 0.0
C756 C 0.85924 0.95582 0.26361 0.0
C757 C 0.87623 0.94161 0.24034 0.0
C758 C 0.9583 0.92116 0.21648 0.0
C759 C 0.96692 0.85475 0.15805 0.0
C760 C 0.95602 0.88631 0.17322 0.0
C761 C 0.90777 0.95444 0.23168 0.0
C762 C 0.92704 0.93592 0.20944 0.0
H763 H 0.9321 0.78146 0.13226 0.0
H764 H 0.91578 0.83848 0.14693 0.0
H765 H -0.00489 0.88352 0.20618 0.0
H766 H 0.91522 0.01885 0.28028 0.0
H767 H 0.94618 0.99249 0.24005 0.0
loop_
_geom_bond_atom_site_label_1
_geom_bond_atom_site_label_2
_geom_bond_distance
_geom_bond_site_symmetry_2
_ccdc_geom_bond_type
Mn0 O5 2.095 . S
Mn0 O15 2.162 . S
Mn0 O16 2.297 1_455 S
Mn0 O24 2.385 . S
Mn0 O25 2.209 . S
Mn0 O26 2.094 . S
Mn1 O6 2.121 . S
Mn1 N8 2.257 . S
Mn1 N17 2.282 . S
Mn1 O25 2.215 . S
Mn1 O27 2.117 . S
C2 O24 1.234 1_655 S
C2 O25 1.283 1_655 S
C3 O15 1.281 1_655 S
C3 O16 1.236 . S
C4 O26 1.240 . S
C4 O27 1.264 . S
O5 Mn0 2.095 . S
O5 C14 1.250 . S
O6 Mn1 2.121 . S
O6 C14 1.258 . S
C7 N8 1.326 1_655 S
C7 C11 1.460 . S
C7 H13 0.929 . S
N8 Mn1 2.257 . S
N8 C7 1.326 1_455 S
N8 C12 1.362 . S
C9 C10 1.258 . S
C9 C12 1.431 1_655 S
C9 C29 1.449 . S
C10 C9 1.258 . S
C10 C11 1.477 . S
C10 H30 0.931 . S
C11 C7 1.460 . S
C11 C10 1.477 . S
C11 H31 0.930 . S
C12 N8 1.362 . S
C12 C9 1.431 1_455 S
C12 C22 1.476 . S
H13 C7 0.929 . S
C14 O5 1.250 . S
C14 O6 1.258 . S
O15 Mn0 2.162 . S
O15 C3 1.281 1_455 S
O16 Mn0 2.297 1_655 S
O16 C3 1.236 . S
N17 Mn1 2.282 . S
N17 C18 1.328 . S
N17 C22 1.318 . S
C18 N17 1.328 . S
C18 C19 1.457 . S
C18 H23 0.929 . S
C19 C18 1.457 . S
C19 C20 1.291 . S
C19 H32 0.931 . S
C20 C19 1.291 . S
C20 C21 1.373 . S
C20 H33 0.929 . S
C21 C20 1.373 . S
C21 C22 1.396 . S
C21 C28 1.403 . S
C22 C12 1.476 . S
C22 N17 1.318 . S
C22 C21 1.396 . S
H23 C18 0.929 . S
O24 Mn0 2.385 . S
O24 C2 1.234 1_455 S
O25 Mn0 2.209 . S
O25 Mn1 2.215 . S
O25 C2 1.283 1_455 S
O26 Mn0 2.094 . S
O26 C4 1.240 . S
O27 Mn1 2.117 . S
O27 C4 1.264 . S
C28 C21 1.403 . S
C28 C29 1.399 1_455 S
C28 H34 0.929 . S
C29 C9 1.449 . S
C29 C28 1.399 1_655 S
C29 H35 0.930 . S
H30 C10 0.931 . S
H31 C11 0.930 . S
H32 C19 0.931 . S
H33 C20 0.929 . S
H34 C28 0.929 . S
H35 C29 0.930 . S
Mn36 O41 2.095 . S
Mn36 O51 2.162 . S
Mn36 O52 2.297 . S
Mn36 O60 2.385 . S
Mn36 O61 2.209 . S
Mn36 O62 2.094 . S
Mn37 O42 2.121 . S
Mn37 N44 2.257 . S
Mn37 N53 2.282 . S
Mn37 O61 2.215 . S
Mn37 O63 2.117 . S
C38 O60 1.234 . S
C38 O61 1.283 . S
C39 O51 1.281 . S
C39 O52 1.236 . S
C40 O62 1.240 . S
C40 O63 1.264 . S
O41 Mn36 2.095 . S
O41 C50 1.250 . S
O42 Mn37 2.121 . S
O42 C50 1.258 . S
C43 N44 1.326 . S
C43 C47 1.460 . S
C43 H49 0.929 . S
N44 Mn37 2.257 . S
N44 C43 1.326 . S
N44 C48 1.362 . S
C45 C46 1.258 . S
C45 C48 1.431 . S
C45 C65 1.449 . S
C46 C45 1.258 . S
C46 C47 1.477 . S
C46 H66 0.931 . S
C47 C43 1.460 . S
C47 C46 1.477 . S
C47 H67 0.930 . S
C48 N44 1.362 . S
C48 C45 1.431 . S
C48 C58 1.476 . S
H49 C43 0.929 . S
C50 O41 1.250 . S
C50 O42 1.258 . S
O51 Mn36 2.162 . S
O51 C39 1.281 . S
O52 Mn36 2.297 . S
O52 C39 1.236 . S
N53 Mn37 2.282 . S
N53 C54 1.328 . S
N53 C58 1.318 . S
C54 N53 1.328 . S
C54 C55 1.457 . S
C54 H59 0.929 . S
C55 C54 1.457 . S
C55 C56 1.291 . S
C55 H68 0.931 . S
C56 C55 1.291 . S
C56 C57 1.373 . S
C56 H69 0.929 . S
C57 C56 1.373 . S
C57 C58 1.396 . S
C57 C64 1.403 . S
C58 C48 1.476 . S
C58 N53 1.318 . S
C58 C57 1.396 . S
H59 C54 0.929 . S
O60 Mn36 2.385 . S
O60 C38 1.234 . S
O61 Mn36 2.209 . S
O61 Mn37 2.215 . S
O61 C38 1.283 . S
O62 Mn36 2.094 . S
O62 C40 1.240 . S
O63 Mn37 2.117 . S
O63 C40 1.264 . S
C64 C57 1.403 . S
C64 C65 1.399 . S
C64 H70 0.929 . S
C65 C45 1.449 . S
C65 C64 1.399 . S
C65 H71 0.930 . S
H66 C46 0.931 . S
H67 C47 0.930 . S
H68 C55 0.931 . S
H69 C56 0.929 . S
H70 C64 0.929 . S
H71 C65 0.930 . S
Mn72 O77 2.095 . S
Mn72 O87 2.162 . S
Mn72 O88 2.297 . S
Mn72 O96 2.385 . S
Mn72 O97 2.209 . S
Mn72 O98 2.094 . S
Mn73 O78 2.121 . S
Mn73 N80 2.257 . S
Mn73 N89 2.282 . S
Mn73 O97 2.215 . S
Mn73 O99 2.117 . S
C74 O96 1.234 . S
C74 O97 1.283 . S
C75 O87 1.281 . S
C75 O88 1.236 . S
C76 O98 1.240 . S
C76 O99 1.264 . S
O77 Mn72 2.095 . S
O77 C86 1.250 . S
O78 Mn73 2.121 . S
O78 C86 1.258 . S
C79 N80 1.326 . S
C79 C83 1.460 . S
C79 H85 0.929 . S
N80 Mn73 2.257 . S
N80 C79 1.326 . S
N80 C84 1.362 . S
C81 C82 1.258 . S
C81 C84 1.431 . S
C81 C101 1.449 . S
C82 C81 1.258 . S
C82 C83 1.477 . S
C82 H102 0.931 . S
C83 C79 1.460 . S
C83 C82 1.477 . S
C83 H103 0.930 . S
C84 N80 1.362 . S
C84 C81 1.431 . S
C84 C94 1.476 . S
H85 C79 0.929 . S
C86 O77 1.250 . S
C86 O78 1.258 . S
O87 Mn72 2.162 . S
O87 C75 1.281 . S
O88 Mn72 2.297 . S
O88 C75 1.236 . S
N89 Mn73 2.282 . S
N89 C90 1.328 . S
N89 C94 1.318 . S
C90 N89 1.328 . S
C90 C91 1.457 . S
C90 H95 0.929 . S
C91 C90 1.457 . S
C91 C92 1.291 . S
C91 H104 0.931 . S
C92 C91 1.291 . S
C92 C93 1.373 . S
C92 H105 0.929 . S
C93 C92 1.373 . S
C93 C94 1.396 . S
C93 C100 1.403 . S
C94 C84 1.476 . S
C94 N89 1.318 . S
C94 C93 1.396 . S
H95 C90 0.929 . S
O96 Mn72 2.385 . S
O96 C74 1.234 . S
O97 Mn72 2.209 . S
O97 Mn73 2.215 . S
O97 C74 1.283 . S
O98 Mn72 2.094 . S
O98 C76 1.240 . S
O99 Mn73 2.117 . S
O99 C76 1.264 . S
C100 C93 1.403 . S
C100 C101 1.399 . S
C100 H106 0.929 . S
C101 C81 1.449 . S
C101 C100 1.399 . S
C101 H107 0.930 . S
H102 C82 0.931 . S
H103 C83 0.930 . S
H104 C91 0.931 . S
H105 C92 0.929 . S
H106 C100 0.929 . S
H107 C101 0.930 . S
Mn108 O113 2.095 . S
Mn108 O123 2.162 . S
Mn108 O124 2.297 1_565 S
Mn108 O132 2.385 . S
Mn108 O133 2.209 . S
Mn108 O134 2.094 . S
Mn109 O114 2.121 . S
Mn109 N116 2.257 . S
Mn109 N125 2.282 . S
Mn109 O133 2.215 . S
Mn109 O135 2.117 . S
C110 O132 1.234 1_545 S
C110 O133 1.283 1_545 S
C111 O123 1.281 1_545 S
C111 O124 1.236 . S
C112 O134 1.240 . S
C112 O135 1.264 . S
O113 Mn108 2.095 . S
O113 C122 1.250 . S
O114 Mn109 2.121 . S
O114 C122 1.258 . S
C115 N116 1.326 1_545 S
C115 C119 1.460 . S
C115 H121 0.929 . S
N116 Mn109 2.257 . S
N116 C115 1.326 1_565 S
N116 C120 1.362 . S
C117 C118 1.258 . S
C117 C120 1.431 1_545 S
C117 C137 1.449 . S
C118 C117 1.258 . S
C118 C119 1.477 . S
C118 H138 0.931 . S
C119 C115 1.460 . S
C119 C118 1.477 . S
C119 H139 0.930 . S
C120 N116 1.362 . S
C120 C117 1.431 1_565 S
C120 C130 1.476 . S
H121 C115 0.929 . S
C122 O113 1.250 . S
C122 O114 1.258 . S
O123 Mn108 2.162 . S
O123 C111 1.281 1_565 S
O124 Mn108 2.297 1_545 S
O124 C111 1.236 . S
N125 Mn109 2.282 . S
N125 C126 1.328 . S
N125 C130 1.318 . S
C126 N125 1.328 . S
C126 C127 1.457 . S
C126 H131 0.929 . S
C127 C126 1.457 . S
C127 C128 1.291 . S
C127 H140 0.931 . S
C128 C127 1.291 . S
C128 C129 1.373 . S
C128 H141 0.929 . S
C129 C128 1.373 . S
C129 C130 1.396 . S
C129 C136 1.403 . S
C130 C120 1.476 . S
C130 N125 1.318 . S
C130 C129 1.396 . S
H131 C126 0.929 . S
O132 Mn108 2.385 . S
O132 C110 1.234 1_565 S
O133 Mn108 2.209 . S
O133 Mn109 2.215 . S
O133 C110 1.283 1_565 S
O134 Mn108 2.094 . S
O134 C112 1.240 . S
O135 Mn109 2.117 . S
O135 C112 1.264 . S
C136 C129 1.403 . S
C136 C137 1.399 1_565 S
C136 H142 0.929 . S
C137 C117 1.449 . S
C137 C136 1.399 1_545 S
C137 H143 0.930 . S
H138 C118 0.931 . S
H139 C119 0.930 . S
H140 C127 0.931 . S
H141 C128 0.929 . S
H142 C136 0.929 . S
H143 C137 0.930 . S
Mn144 O149 2.095 . S
Mn144 O159 2.162 . S
Mn144 O160 2.297 1_655 S
Mn144 O168 2.385 . S
Mn144 O169 2.209 . S
Mn144 O170 2.094 . S
Mn145 O150 2.121 . S
Mn145 N152 2.257 . S
Mn145 N161 2.282 . S
Mn145 O169 2.215 . S
Mn145 O171 2.117 . S
C146 O168 1.234 1_455 S
C146 O169 1.283 1_455 S
C147 O159 1.281 1_455 S
C147 O160 1.236 . S
C148 O170 1.240 . S
C148 O171 1.264 . S
O149 Mn144 2.095 . S
O149 C158 1.250 . S
O150 Mn145 2.121 . S
O150 C158 1.258 . S
C151 N152 1.326 1_455 S
C151 C155 1.460 . S
C151 H157 0.929 . S
N152 Mn145 2.257 . S
N152 C151 1.326 1_655 S
N152 C156 1.362 . S
C153 C154 1.258 . S
C153 C156 1.431 1_455 S
C153 C173 1.449 . S
C154 C153 1.258 . S
C154 C155 1.477 . S
C154 H174 0.931 . S
C155 C151 1.460 . S
C155 C154 1.477 . S
C155 H175 0.930 . S
C156 N152 1.362 . S
C156 C153 1.431 1_655 S
C156 C166 1.476 . S
H157 C151 0.929 . S
C158 O149 1.250 . S
C158 O150 1.258 . S
O159 Mn144 2.162 . S
O159 C147 1.281 1_655 S
O160 Mn144 2.297 1_455 S
O160 C147 1.236 . S
N161 Mn145 2.282 . S
N161 C162 1.328 . S
N161 C166 1.318 . S
C162 N161 1.328 . S
C162 C163 1.457 . S
C162 H167 0.929 . S
C163 C162 1.457 . S
C163 C164 1.291 . S
C163 H176 0.931 . S
C164 C163 1.291 . S
C164 C165 1.373 . S
C164 H177 0.929 . S
C165 C164 1.373 . S
C165 C166 1.396 . S
C165 C172 1.403 . S
C166 C156 1.476 . S
C166 N161 1.318 . S
C166 C165 1.396 . S
H167 C162 0.929 . S
O168 Mn144 2.385 . S
O168 C146 1.234 1_655 S
O169 Mn144 2.209 . S
O169 Mn145 2.215 . S
O169 C146 1.283 1_655 S
O170 Mn144 2.094 . S
O170 C148 1.240 . S
O171 Mn145 2.117 . S
O171 C148 1.264 . S
C172 C165 1.403 . S
C172 C173 1.399 1_655 S
C172 H178 0.929 . S
C173 C153 1.449 . S
C173 C172 1.399 1_455 S
C173 H179 0.930 . S
H174 C154 0.931 . S
H175 C155 0.930 . S
H176 C163 0.931 . S
H177 C164 0.929 . S
H178 C172 0.929 . S
H179 C173 0.930 . S
Mn180 O185 2.095 . S
Mn180 O195 2.162 . S
Mn180 O196 2.297 . S
Mn180 O204 2.385 . S
Mn180 O205 2.209 . S
Mn180 O206 2.094 . S
Mn181 O186 2.121 . S
Mn181 N188 2.257 . S
Mn181 N197 2.282 . S
Mn181 O205 2.215 . S
Mn181 O207 2.117 . S
C182 O204 1.234 . S
C182 O205 1.283 . S
C183 O195 1.281 . S
C183 O196 1.236 . S
C184 O206 1.240 . S
C184 O207 1.264 . S
O185 Mn180 2.095 . S
O185 C194 1.250 . S
O186 Mn181 2.121 . S
O186 C194 1.258 . S
C187 N188 1.326 . S
C187 C191 1.460 . S
C187 H193 0.929 . S
N188 Mn181 2.257 . S
N188 C187 1.326 . S
N188 C192 1.362 . S
C189 C190 1.258 . S
C189 C192 1.431 . S
C189 C209 1.449 . S
C190 C189 1.258 . S
C190 C191 1.477 . S
C190 H210 0.931 . S
C191 C187 1.460 . S
C191 C190 1.477 . S
C191 H211 0.930 . S
C192 N188 1.362 . S
C192 C189 1.431 . S
C192 C202 1.476 . S
H193 C187 0.929 . S
C194 O185 1.250 . S
C194 O186 1.258 . S
O195 Mn180 2.162 . S
O195 C183 1.281 . S
O196 Mn180 2.297 . S
O196 C183 1.236 . S
N197 Mn181 2.282 . S
N197 C198 1.328 . S
N197 C202 1.318 . S
C198 N197 1.328 . S
C198 C199 1.457 . S
C198 H203 0.929 . S
C199 C198 1.457 . S
C199 C200 1.291 . S
C199 H212 0.931 . S
C200 C199 1.291 . S
C200 C201 1.373 . S
C200 H213 0.929 . S
C201 C200 1.373 . S
C201 C202 1.396 . S
C201 C208 1.403 . S
C202 C192 1.476 . S
C202 N197 1.318 . S
C202 C201 1.396 . S
H203 C198 0.929 . S
O204 Mn180 2.385 . S
O204 C182 1.234 . S
O205 Mn180 2.209 . S
O205 Mn181 2.215 . S
O205 C182 1.283 . S
O206 Mn180 2.094 . S
O206 C184 1.240 . S
O207 Mn181 2.117 . S
O207 C184 1.264 . S
C208 C201 1.403 . S
C208 C209 1.399 . S
C208 H214 0.929 . S
C209 C189 1.449 . S
C209 C208 1.399 . S
C209 H215 0.930 . S
H210 C190 0.931 . S
H211 C191 0.930 . S
H212 C199 0.931 . S
H213 C200 0.929 . S
H214 C208 0.929 . S
H215 C209 0.930 . S
Mn216 O221 2.095 . S
Mn216 O231 2.162 . S
Mn216 O232 2.297 . S
Mn216 O240 2.385 . S
Mn216 O241 2.209 . S
Mn216 O242 2.094 . S
Mn217 O222 2.121 . S
Mn217 N224 2.257 . S
Mn217 N233 2.282 . S
Mn217 O241 2.215 . S
Mn217 O243 2.117 . S
C218 O240 1.234 . S
C218 O241 1.283 . S
C219 O231 1.281 . S
C219 O232 1.236 . S
C220 O242 1.240 . S
C220 O243 1.264 . S
O221 Mn216 2.095 . S
O221 C230 1.250 . S
O222 Mn217 2.121 . S
O222 C230 1.258 . S
C223 N224 1.326 . S
C223 C227 1.460 . S
C223 H229 0.929 . S
N224 Mn217 2.257 . S
N224 C223 1.326 . S
N224 C228 1.362 . S
C225 C226 1.258 . S
C225 C228 1.431 . S
C225 C245 1.449 . S
C226 C225 1.258 . S
C226 C227 1.477 . S
C226 H246 0.931 . S
C227 C223 1.460 . S
C227 C226 1.477 . S
C227 H247 0.930 . S
C228 N224 1.362 . S
C228 C225 1.431 . S
C228 C238 1.476 . S
H229 C223 0.929 . S
C230 O221 1.250 . S
C230 O222 1.258 . S
O231 Mn216 2.162 . S
O231 C219 1.281 . S
O232 Mn216 2.297 . S
O232 C219 1.236 . S
N233 Mn217 2.282 . S
N233 C234 1.328 . S
N233 C238 1.318 . S
C234 N233 1.328 . S
C234 C235 1.457 . S
C234 H239 0.929 . S
C235 C234 1.457 . S
C235 C236 1.291 . S
C235 H248 0.931 . S
C236 C235 1.291 . S
C236 C237 1.373 . S
C236 H249 0.929 . S
C237 C236 1.373 . S
C237 C238 1.396 . S
C237 C244 1.403 . S
C238 C228 1.476 . S
C238 N233 1.318 . S
C238 C237 1.396 . S
H239 C234 0.929 . S
O240 Mn216 2.385 . S
O240 C218 1.234 . S
O241 Mn216 2.209 . S
O241 Mn217 2.215 . S
O241 C218 1.283 . S
O242 Mn216 2.094 . S
O242 C220 1.240 . S
O243 Mn217 2.117 . S
O243 C220 1.264 . S
C244 C237 1.403 . S
C244 C245 1.399 . S
C244 H250 0.929 . S
C245 C225 1.449 . S
C245 C244 1.399 . S
C245 H251 0.930 . S
H246 C226 0.931 . S
H247 C227 0.930 . S
H248 C235 0.931 . S
H249 C236 0.929 . S
H250 C244 0.929 . S
H251 C245 0.930 . S
Mn252 O257 2.095 . S
Mn252 O267 2.162 . S
Mn252 O268 2.297 1_545 S
Mn252 O276 2.385 . S
Mn252 O277 2.209 . S
Mn252 O278 2.094 . S
Mn253 O258 2.121 . S
Mn253 N260 2.257 . S
Mn253 N269 2.282 . S
Mn253 O277 2.215 . S
Mn253 O279 2.117 . S
C254 O276 1.234 1_565 S
C254 O277 1.283 1_565 S
C255 O267 1.281 1_565 S
C255 O268 1.236 . S
C256 O278 1.240 . S
C256 O279 1.264 . S
O257 Mn252 2.095 . S
O257 C266 1.250 . S
O258 Mn253 2.121 . S
O258 C266 1.258 . S
C259 N260 1.326 1_565 S
C259 C263 1.460 . S
C259 H265 0.929 . S
N260 Mn253 2.257 . S
N260 C259 1.326 1_545 S
N260 C264 1.362 . S
C261 C262 1.258 . S
C261 C264 1.431 1_565 S
C261 C281 1.449 . S
C262 C261 1.258 . S
C262 C263 1.477 . S
C262 H282 0.931 . S
C263 C259 1.460 . S
C263 C262 1.477 . S
C263 H283 0.930 . S
C264 N260 1.362 . S
C264 C261 1.431 1_545 S
C264 C274 1.476 . S
H265 C259 0.929 . S
C266 O257 1.250 . S
C266 O258 1.258 . S
O267 Mn252 2.162 . S
O267 C255 1.281 1_545 S
O268 Mn252 2.297 1_565 S
O268 C255 1.236 . S
N269 Mn253 2.282 . S
N269 C270 1.328 . S
N269 C274 1.318 . S
C270 N269 1.328 . S
C270 C271 1.457 . S
C270 H275 0.929 . S
C271 C270 1.457 . S
C271 C272 1.291 . S
C271 H284 0.931 . S
C272 C271 1.291 . S
C272 C273 1.373 . S
C272 H285 0.929 . S
C273 C272 1.373 . S
C273 C274 1.396 . S
C273 C280 1.403 . S
C274 C264 1.476 . S
C274 N269 1.318 . S
C274 C273 1.396 . S
H275 C270 0.929 . S
O276 Mn252 2.385 . S
O276 C254 1.234 1_545 S
O277 Mn252 2.209 . S
O277 Mn253 2.215 . S
O277 C254 1.283 1_545 S
O278 Mn252 2.094 . S
O278 C256 1.240 . S
O279 Mn253 2.117 . S
O279 C256 1.264 . S
C280 C273 1.403 . S
C280 C281 1.399 1_545 S
C280 H286 0.929 . S
C281 C261 1.449 . S
C281 C280 1.399 1_565 S
C281 H287 0.930 . S
H282 C262 0.931 . S
H283 C263 0.930 . S
H284 C271 0.931 . S
H285 C272 0.929 . S
H286 C280 0.929 . S
H287 C281 0.930 . S
C288 C289 1.349 . S
C288 C290 1.327 . S
C288 H313 0.950 . S
C289 C288 1.349 . S
C289 C305 1.349 1_655 S
C290 C288 1.327 . S
C290 C309 1.429 . S
C290 H314 0.950 . S
C291 C308 1.574 . S
C291 C310 1.368 1_454 S
C291 H315 0.949 . S
H292 C296 0.949 . S
C293 C294 1.349 . S
C293 C295 1.327 . S
C293 H316 0.950 . S
C294 C293 1.349 . S
C294 C306 1.349 1_455 S
C295 C293 1.327 . S
C295 C311 1.429 . S
C295 H317 0.950 . S
C296 H292 0.949 . S
C296 C304 1.574 . S
C296 C312 1.368 1_656 S
H297 C305 0.950 . S
H298 C303 0.950 . S
H299 C304 0.949 . S
H300 C306 0.950 . S
H301 C307 0.950 . S
H302 C308 0.949 . S
C303 H298 0.950 . S
C303 C305 1.327 . S
C303 C309 1.429 1_455 S
C304 C296 1.574 . S
C304 H299 0.949 . S
C304 C310 1.368 . S
C305 C289 1.349 1_455 S
C305 H297 0.950 . S
C305 C303 1.327 . S
C306 C294 1.349 1_655 S
C306 H300 0.950 . S
C306 C307 1.327 . S
C307 H301 0.950 . S
C307 C306 1.327 . S
C307 C311 1.429 1_655 S
C308 C291 1.574 . S
C308 H302 0.949 . S
C308 C312 1.368 . S
C309 C290 1.429 . S
C309 C303 1.429 1_655 S
C309 C310 1.523 . S
C310 C291 1.368 1_656 S
C310 C304 1.368 . S
C310 C309 1.523 . S
C311 C295 1.429 . S
C311 C307 1.429 1_455 S
C311 C312 1.523 . S
C312 C296 1.368 1_454 S
C312 C308 1.368 . S
C312 C311 1.523 . S
H313 C288 0.950 . S
H314 C290 0.950 . S
H315 C291 0.949 . S
H316 C293 0.950 . S
H317 C295 0.950 . S
C318 C319 1.349 . S
C318 C320 1.327 . S
C318 H343 0.950 . S
C319 C318 1.349 . S
C319 C335 1.349 . S
C320 C318 1.327 . S
C320 C339 1.429 . S
C320 H344 0.950 . S
C321 C338 1.574 . S
C321 C340 1.368 . S
C321 H345 0.949 . S
H322 C326 0.949 . S
C323 C324 1.349 . S
C323 C325 1.327 . S
C323 H346 0.950 . S
C324 C323 1.349 . S
C324 C336 1.349 . S
C325 C323 1.327 . S
C325 C341 1.429 . S
C325 H347 0.950 . S
C326 H322 0.949 . S
C326 C334 1.574 . S
C326 C342 1.368 . S
H327 C335 0.950 . S
H328 C333 0.950 . S
H329 C334 0.949 . S
H330 C336 0.950 . S
H331 C337 0.950 . S
H332 C338 0.949 . S
C333 H328 0.950 . S
C333 C335 1.327 . S
C333 C339 1.429 . S
C334 C326 1.574 . S
C334 H329 0.949 . S
C334 C340 1.368 . S
C335 C319 1.349 . S
C335 H327 0.950 . S
C335 C333 1.327 . S
C336 C324 1.349 . S
C336 H330 0.950 . S
C336 C337 1.327 . S
C337 H331 0.950 . S
C337 C336 1.327 . S
C337 C341 1.429 . S
C338 C321 1.574 . S
C338 H332 0.949 . S
C338 C342 1.368 . S
C339 C320 1.429 . S
C339 C333 1.429 . S
C339 C340 1.523 . S
C340 C321 1.368 . S
C340 C334 1.368 . S
C340 C339 1.523 . S
C341 C325 1.429 . S
C341 C337 1.429 . S
C341 C342 1.523 . S
C342 C326 1.368 . S
C342 C338 1.368 . S
C342 C341 1.523 . S
H343 C318 0.950 . S
H344 C320 0.950 . S
H345 C321 0.949 . S
H346 C323 0.950 . S
H347 C325 0.950 . S
C348 C349 1.349 . S
C348 C350 1.327 . S
C348 H373 0.950 . S
C349 C348 1.349 . S
C349 C365 1.349 . S
C350 C348 1.327 . S
C350 C369 1.429 . S
C350 H374 0.950 . S
C351 C368 1.574 1_565 S
C351 C370 1.368 1_556 S
C351 H375 0.949 . S
H352 C356 0.949 . S
C353 C354 1.349 . S
C353 C355 1.327 . S
C353 H376 0.950 . S
C354 C353 1.349 . S
C354 C366 1.349 . S
C355 C353 1.327 . S
C355 C371 1.429 . S
C355 H377 0.950 . S
C356 H352 0.949 . S
C356 C364 1.574 1_545 S
C356 C372 1.368 1_554 S
H357 C365 0.950 . S
H358 C363 0.950 . S
H359 C364 0.949 . S
H360 C366 0.950 . S
H361 C367 0.950 . S
H362 C368 0.949 . S
C363 H358 0.950 . S
C363 C365 1.327 . S
C363 C369 1.429 . S
C364 C356 1.574 1_565 S
C364 H359 0.949 . S
C364 C370 1.368 . S
C365 C349 1.349 . S
C365 H357 0.950 . S
C365 C363 1.327 . S
C366 C354 1.349 . S
C366 H360 0.950 . S
C366 C367 1.327 . S
C367 H361 0.950 . S
C367 C366 1.327 . S
C367 C371 1.429 . S
C368 C351 1.574 1_545 S
C368 H362 0.949 . S
C368 C372 1.368 . S
C369 C350 1.429 . S
C369 C363 1.429 . S
C369 C370 1.523 . S
C370 C351 1.368 1_554 S
C370 C364 1.368 . S
C370 C369 1.523 . S
C371 C355 1.429 . S
C371 C367 1.429 . S
C371 C372 1.523 . S
C372 C356 1.368 1_556 S
C372 C368 1.368 . S
C372 C371 1.523 . S
H373 C348 0.950 . S
H374 C350 0.950 . S
H375 C351 0.949 . S
H376 C353 0.950 . S
H377 C355 0.950 . S
C378 C379 1.349 1_565 S
C378 C380 1.327 . S
C378 H403 0.950 . S
C379 C378 1.349 1_545 S
C379 C395 1.349 . S
C380 C378 1.327 . S
C380 C399 1.429 1_565 S
C380 H404 0.950 . S
C381 C398 1.574 1_655 S
C381 C400 1.368 . S
C381 H405 0.949 . S
H382 C386 0.949 . S
C383 C384 1.349 1_545 S
C383 C385 1.327 . S
C383 H406 0.950 . S
C384 C383 1.349 1_565 S
C384 C396 1.349 . S
C385 C383 1.327 . S
C385 C401 1.429 1_545 S
C385 H407 0.950 . S
C386 H382 0.949 . S
C386 C394 1.574 1_455 S
C386 C402 1.368 . S
H387 C395 0.950 . S
H388 C393 0.950 . S
H389 C394 0.949 . S
H390 C396 0.950 . S
H391 C397 0.950 . S
H392 C398 0.949 . S
C393 H388 0.950 . S
C393 C395 1.327 . S
C393 C399 1.429 . S
C394 C386 1.574 1_655 S
C394 H389 0.949 . S
C394 C400 1.368 1_565 S
C395 C379 1.349 . S
C395 H387 0.950 . S
C395 C393 1.327 . S
C396 C384 1.349 . S
C396 H390 0.950 . S
C396 C397 1.327 . S
C397 H391 0.950 . S
C397 C396 1.327 . S
C397 C401 1.429 . S
C398 C381 1.574 1_455 S
C398 H392 0.949 . S
C398 C402 1.368 1_545 S
C399 C380 1.429 1_545 S
C399 C393 1.429 . S
C399 C400 1.523 . S
C400 C381 1.368 . S
C400 C394 1.368 1_545 S
C400 C399 1.523 . S
C401 C385 1.429 1_565 S
C401 C397 1.429 . S
C401 C402 1.523 . S
C402 C386 1.368 . S
C402 C398 1.368 1_565 S
C402 C401 1.523 . S
H403 C378 0.950 . S
H404 C380 0.950 . S
H405 C381 0.949 . S
H406 C383 0.950 . S
H407 C385 0.950 . S
C408 C409 1.349 . S
C408 C410 1.327 . S
C408 H433 0.950 . S
C409 C408 1.349 . S
C409 C425 1.349 . S
C410 C408 1.327 . S
C410 C429 1.429 . S
C410 H434 0.950 . S
C411 C428 1.574 . S
C411 C430 1.368 . S
C411 H435 0.949 . S
H412 C416 0.949 . S
C413 C414 1.349 . S
C413 C415 1.327 . S
C413 H436 0.950 . S
C414 C413 1.349 . S
C414 C426 1.349 . S
C415 C413 1.327 . S
C415 C431 1.429 . S
C415 H437 0.950 . S
C416 H412 0.949 . S
C416 C424 1.574 . S
C416 C432 1.368 . S
H417 C425 0.950 . S
H418 C423 0.950 . S
H419 C424 0.949 . S
H420 C426 0.950 . S
H421 C427 0.950 . S
H422 C428 0.949 . S
C423 H418 0.950 . S
C423 C425 1.327 . S
C423 C429 1.429 . S
C424 C416 1.574 . S
C424 H419 0.949 . S
C424 C430 1.368 . S
C425 C409 1.349 . S
C425 H417 0.950 . S
C425 C423 1.327 . S
C426 C414 1.349 . S
C426 H420 0.950 . S
C426 C427 1.327 . S
C427 H421 0.950 . S
C427 C426 1.327 . S
C427 C431 1.429 . S
C428 C411 1.574 . S
C428 H422 0.949 . S
C428 C432 1.368 . S
C429 C410 1.429 . S
C429 C423 1.429 . S
C429 C430 1.523 . S
C430 C411 1.368 . S
C430 C424 1.368 . S
C430 C429 1.523 . S
C431 C415 1.429 . S
C431 C427 1.429 . S
C431 C432 1.523 . S
C432 C416 1.368 . S
C432 C428 1.368 . S
C432 C431 1.523 . S
H433 C408 0.950 . S
H434 C410 0.950 . S
H435 C411 0.949 . S
H436 C413 0.950 . S
H437 C415 0.950 . S
C438 C439 1.349 . S
C438 C440 1.327 . S
C438 H463 0.950 . S
C439 C438 1.349 . S
C439 C455 1.349 . S
C440 C438 1.327 . S
C440 C459 1.429 . S
C440 H464 0.950 . S
C441 C458 1.574 . S
C441 C460 1.368 . S
C441 H465 0.949 . S
H442 C446 0.949 . S
C443 C444 1.349 . S
C443 C445 1.327 . S
C443 H466 0.950 . S
C444 C443 1.349 . S
C444 C456 1.349 . S
C445 C443 1.327 . S
C445 C461 1.429 . S
C445 H467 0.950 . S
C446 H442 0.949 . S
C446 C454 1.574 . S
C446 C462 1.368 . S
H447 C455 0.950 . S
H448 C453 0.950 . S
H449 C454 0.949 . S
H450 C456 0.950 . S
H451 C457 0.950 . S
H452 C458 0.949 . S
C453 H448 0.950 . S
C453 C455 1.327 . S
C453 C459 1.429 . S
C454 C446 1.574 . S
C454 H449 0.949 . S
C454 C460 1.368 . S
C455 C439 1.349 . S
C455 H447 0.950 . S
C455 C453 1.327 . S
C456 C444 1.349 . S
C456 H450 0.950 . S
C456 C457 1.327 . S
C457 H451 0.950 . S
C457 C456 1.327 . S
C457 C461 1.429 . S
C458 C441 1.574 . S
C458 H452 0.949 . S
C458 C462 1.368 . S
C459 C440 1.429 . S
C459 C453 1.429 . S
C459 C460 1.523 . S
C460 C441 1.368 . S
C460 C454 1.368 . S
C460 C459 1.523 . S
C461 C445 1.429 . S
C461 C457 1.429 . S
C461 C462 1.523 . S
C462 C446 1.368 . S
C462 C458 1.368 . S
C462 C461 1.523 . S
H463 C438 0.950 . S
H464 C440 0.950 . S
H465 C441 0.949 . S
H466 C443 0.950 . S
H467 C445 0.950 . S
C468 C469 1.349 . S
C468 C470 1.327 . S
C468 H493 0.950 . S
C469 C468 1.349 . S
C469 C485 1.349 . S
C470 C468 1.327 . S
C470 C489 1.429 . S
C470 H494 0.950 . S
C471 C488 1.574 . S
C471 C490 1.368 . S
C471 H495 0.949 . S
H472 C476 0.949 . S
C473 C474 1.349 . S
C473 C475 1.327 . S
C473 H496 0.950 . S
C474 C473 1.349 . S
C474 C486 1.349 . S
C475 C473 1.327 . S
C475 C491 1.429 . S
C475 H497 0.950 . S
C476 H472 0.949 . S
C476 C484 1.574 . S
C476 C492 1.368 . S
H477 C485 0.950 . S
H478 C483 0.950 . S
H479 C484 0.949 . S
H480 C486 0.950 . S
H481 C487 0.950 . S
H482 C488 0.949 . S
C483 H478 0.950 . S
C483 C485 1.327 . S
C483 C489 1.429 . S
C484 C476 1.574 . S
C484 H479 0.949 . S
C484 C490 1.368 . S
C485 C469 1.349 . S
C485 H477 0.950 . S
C485 C483 1.327 . S
C486 C474 1.349 . S
C486 H480 0.950 . S
C486 C487 1.327 . S
C487 H481 0.950 . S
C487 C486 1.327 . S
C487 C491 1.429 . S
C488 C471 1.574 . S
C488 H482 0.949 . S
C488 C492 1.368 . S
C489 C470 1.429 . S
C489 C483 1.429 . S
C489 C490 1.523 . S
C490 C471 1.368 . S
C490 C484 1.368 . S
C490 C489 1.523 . S
C491 C475 1.429 . S
C491 C487 1.429 . S
C491 C492 1.523 . S
C492 C476 1.368 . S
C492 C488 1.368 . S
C492 C491 1.523 . S
H493 C468 0.950 . S
H494 C470 0.950 . S
H495 C471 0.949 . S
H496 C473 0.950 . S
H497 C475 0.950 . S
C498 C499 1.349 . S
C498 C500 1.327 . S
C498 H523 0.950 . S
C499 C498 1.349 . S
C499 C515 1.349 . S
C500 C498 1.327 . S
C500 C519 1.429 . S
C500 H524 0.950 . S
C501 C518 1.574 . S
C501 C520 1.368 . S
C501 H525 0.949 . S
H502 C506 0.949 . S
C503 C504 1.349 . S
C503 C505 1.327 . S
C503 H526 0.950 . S
C504 C503 1.349 . S
C504 C516 1.349 . S
C505 C503 1.327 . S
C505 C521 1.429 . S
C505 H527 0.950 . S
C506 H502 0.949 . S
C506 C514 1.574 . S
C506 C522 1.368 . S
H507 C515 0.950 . S
H508 C513 0.950 . S
H509 C514 0.949 . S
H510 C516 0.950 . S
H511 C517 0.950 . S
H512 C518 0.949 . S
C513 H508 0.950 . S
C513 C515 1.327 . S
C513 C519 1.429 . S
C514 C506 1.574 . S
C514 H509 0.949 . S
C514 C520 1.368 . S
C515 C499 1.349 . S
C515 H507 0.950 . S
C515 C513 1.327 . S
C516 C504 1.349 . S
C516 H510 0.950 . S
C516 C517 1.327 . S
C517 H511 0.950 . S
C517 C516 1.327 . S
C517 C521 1.429 . S
C518 C501 1.574 . S
C518 H512 0.949 . S
C518 C522 1.368 . S
C519 C500 1.429 . S
C519 C513 1.429 . S
C519 C520 1.523 . S
C520 C501 1.368 . S
C520 C514 1.368 . S
C520 C519 1.523 . S
C521 C505 1.429 . S
C521 C517 1.429 . S
C521 C522 1.523 . S
C522 C506 1.368 . S
C522 C518 1.368 . S
C522 C521 1.523 . S
H523 C498 0.950 . S
H524 C500 0.950 . S
H525 C501 0.949 . S
H526 C503 0.950 . S
H527 C505 0.950 . S
C528 C529 1.349 . S
C528 C530 1.327 . S
C528 H553 0.950 . S
C529 C528 1.349 . S
C529 C545 1.349 . S
C530 C528 1.327 . S
C530 C549 1.429 . S
C530 H554 0.950 . S
C531 C548 1.574 . S
C531 C550 1.368 . S
C531 H555 0.949 . S
H532 C536 0.949 . S
C533 C534 1.349 . S
C533 C535 1.327 . S
C533 H556 0.950 . S
C534 C533 1.349 . S
C534 C546 1.349 . S
C535 C533 1.327 . S
C535 C551 1.429 . S
C535 H557 0.950 . S
C536 H532 0.949 . S
C536 C544 1.574 . S
C536 C552 1.368 . S
H537 C545 0.950 . S
H538 C543 0.950 . S
H539 C544 0.949 . S
H540 C546 0.950 . S
H541 C547 0.950 . S
H542 C548 0.949 . S
C543 H538 0.950 . S
C543 C545 1.327 . S
C543 C549 1.429 . S
C544 C536 1.574 . S
C544 H539 0.949 . S
C544 C550 1.368 . S
C545 C529 1.349 . S
C545 H537 0.950 . S
C545 C543 1.327 . S
C546 C534 1.349 . S
C546 H540 0.950 . S
C546 C547 1.327 . S
C547 H541 0.950 . S
C547 C546 1.327 . S
C547 C551 1.429 . S
C548 C531 1.574 . S
C548 H542 0.949 . S
C548 C552 1.368 . S
C549 C530 1.429 . S
C549 C543 1.429 . S
C549 C550 1.523 . S
C550 C531 1.368 . S
C550 C544 1.368 . S
C550 C549 1.523 . S
C551 C535 1.429 . S
C551 C547 1.429 . S
C551 C552 1.523 . S
C552 C536 1.368 . S
C552 C548 1.368 . S
C552 C551 1.523 . S
H553 C528 0.950 . S
H554 C530 0.950 . S
H555 C531 0.949 . S
H556 C533 0.950 . S
H557 C535 0.950 . S
C558 C559 1.349 . S
C558 C560 1.327 . S
C558 H583 0.950 . S
C559 C558 1.349 . S
C559 C575 1.349 . S
C560 C558 1.327 . S
C560 C579 1.429 . S
C560 H584 0.950 . S
C561 C578 1.574 . S
C561 C580 1.368 . S
C561 H585 0.949 . S
H562 C566 0.949 . S
C563 C564 1.349 . S
C563 C565 1.327 . S
C563 H586 0.950 . S
C564 C563 1.349 . S
C564 C576 1.349 . S
C565 C563 1.327 . S
C565 C581 1.429 . S
C565 H587 0.950 . S
C566 H562 0.949 . S
C566 C574 1.574 . S
C566 C582 1.368 . S
H567 C575 0.950 . S
H568 C573 0.950 . S
H569 C574 0.949 . S
H570 C576 0.950 . S
H571 C577 0.950 . S
H572 C578 0.949 . S
C573 H568 0.950 . S
C573 C575 1.327 . S
C573 C579 1.429 . S
C574 C566 1.574 . S
C574 H569 0.949 . S
C574 C580 1.368 . S
C575 C559 1.349 . S
C575 H567 0.950 . S
C575 C573 1.327 . S
C576 C564 1.349 . S
C576 H570 0.950 . S
C576 C577 1.327 . S
C577 H571 0.950 . S
C577 C576 1.327 . S
C577 C581 1.429 . S
C578 C561 1.574 . S
C578 H572 0.949 . S
C578 C582 1.368 . S
C579 C560 1.429 . S
C579 C573 1.429 . S
C579 C580 1.523 . S
C580 C561 1.368 . S
C580 C574 1.368 . S
C580 C579 1.523 . S
C581 C565 1.429 . S
C581 C577 1.429 . S
C581 C582 1.523 . S
C582 C566 1.368 . S
C582 C578 1.368 . S
C582 C581 1.523 . S
H583 C558 0.950 . S
H584 C560 0.950 . S
H585 C561 0.949 . S
H586 C563 0.950 . S
H587 C565 0.950 . S
C588 C589 1.349 . S
C588 C590 1.327 . S
C588 H613 0.950 . S
C589 C588 1.349 . S
C589 C605 1.349 . S
C590 C588 1.327 . S
C590 C609 1.429 . S
C590 H614 0.950 . S
C591 C608 1.574 . S
C591 C610 1.368 . S
C591 H615 0.949 . S
H592 C596 0.949 1_545 S
C593 C594 1.349 . S
C593 C595 1.327 . S
C593 H616 0.950 . S
C594 C593 1.349 . S
C594 C606 1.349 1_565 S
C595 C593 1.327 . S
C595 C611 1.429 . S
C595 H617 0.950 . S
C596 H592 0.949 1_565 S
C596 C604 1.574 . S
C596 C612 1.368 . S
H597 C605 0.950 . S
H598 C603 0.950 . S
H599 C604 0.949 . S
H600 C606 0.950 . S
H601 C607 0.950 . S
H602 C608 0.949 . S
C603 H598 0.950 . S
C603 C605 1.327 . S
C603 C609 1.429 . S
C604 C596 1.574 . S
C604 H599 0.949 . S
C604 C610 1.368 . S
C605 C589 1.349 . S
C605 H597 0.950 . S
C605 C603 1.327 . S
C606 C594 1.349 1_545 S
C606 H600 0.950 . S
C606 C607 1.327 . S
C607 H601 0.950 . S
C607 C606 1.327 . S
C607 C611 1.429 1_545 S
C608 C591 1.574 . S
C608 H602 0.949 . S
C608 C612 1.368 . S
C609 C590 1.429 . S
C609 C603 1.429 . S
C609 C610 1.523 . S
C610 C591 1.368 . S
C610 C604 1.368 . S
C610 C609 1.523 . S
C611 C595 1.429 . S
C611 C607 1.429 1_565 S
C611 C612 1.523 . S
C612 C596 1.368 . S
C612 C608 1.368 . S
C612 C611 1.523 . S
H613 C588 0.950 . S
H614 C590 0.950 . S
H615 C591 0.949 . S
H616 C593 0.950 . S
H617 C595 0.950 . S
C618 C619 1.349 . S
C618 C620 1.327 . S
C618 H643 0.950 1_455 S
C619 C618 1.349 . S
C619 C635 1.349 . S
C620 C618 1.327 . S
C620 C639 1.429 . S
C620 H644 0.950 . S
C621 C638 1.574 . S
C621 C640 1.368 . S
C621 H645 0.949 . S
H622 C626 0.949 . S
C623 C624 1.349 . S
C623 C625 1.327 . S
C623 H646 0.950 . S
C624 C623 1.349 . S
C624 C636 1.349 . S
C625 C623 1.327 . S
C625 C641 1.429 . S
C625 H647 0.950 . S
C626 H622 0.949 . S
C626 C634 1.574 . S
C626 C642 1.368 . S
H627 C635 0.950 . S
H628 C633 0.950 . S
H629 C634 0.949 . S
H630 C636 0.950 . S
H631 C637 0.950 . S
H632 C638 0.949 . S
C633 H628 0.950 . S
C633 C635 1.327 . S
C633 C639 1.429 . S
C634 C626 1.574 . S
C634 H629 0.949 . S
C634 C640 1.368 . S
C635 C619 1.349 . S
C635 H627 0.950 . S
C635 C633 1.327 . S
C636 C624 1.349 . S
C636 H630 0.950 . S
C636 C637 1.327 . S
C637 H631 0.950 . S
C637 C636 1.327 . S
C637 C641 1.429 . S
C638 C621 1.574 . S
C638 H632 0.949 . S
C638 C642 1.368 . S
C639 C620 1.429 . S
C639 C633 1.429 . S
C639 C640 1.523 . S
C640 C621 1.368 . S
C640 C634 1.368 . S
C640 C639 1.523 . S
C641 C625 1.429 . S
C641 C637 1.429 . S
C641 C642 1.523 . S
C642 C626 1.368 . S
C642 C638 1.368 . S
C642 C641 1.523 . S
H643 C618 0.950 1_655 S
H644 C620 0.950 . S
H645 C621 0.949 . S
H646 C623 0.950 . S
H647 C625 0.950 . S
C648 C649 1.349 . S
C648 C650 1.327 . S
C648 H673 0.950 . S
C649 C648 1.349 . S
C649 C665 1.349 . S
C650 C648 1.327 . S
C650 C669 1.429 . S
C650 H674 0.950 . S
C651 C668 1.574 . S
C651 C670 1.368 . S
C651 H675 0.949 . S
H652 C656 0.949 . S
C653 C654 1.349 . S
C653 C655 1.327 . S
C653 H676 0.950 . S
C654 C653 1.349 . S
C654 C666 1.349 . S
C655 C653 1.327 . S
C655 C671 1.429 . S
C655 H677 0.950 . S
C656 H652 0.949 . S
C656 C664 1.574 . S
C656 C672 1.368 . S
H657 C665 0.950 . S
H658 C663 0.950 . S
H659 C664 0.949 . S
H660 C666 0.950 . S
H661 C667 0.950 . S
H662 C668 0.949 . S
C663 H658 0.950 . S
C663 C665 1.327 . S
C663 C669 1.429 . S
C664 C656 1.574 . S
C664 H659 0.949 . S
C664 C670 1.368 . S
C665 C649 1.349 . S
C665 H657 0.950 . S
C665 C663 1.327 . S
C666 C654 1.349 . S
C666 H660 0.950 . S
C666 C667 1.327 . S
C667 H661 0.950 . S
C667 C666 1.327 . S
C667 C671 1.429 . S
C668 C651 1.574 . S
C668 H662 0.949 . S
C668 C672 1.368 . S
C669 C650 1.429 . S
C669 C663 1.429 . S
C669 C670 1.523 . S
C670 C651 1.368 . S
C670 C664 1.368 . S
C670 C669 1.523 . S
C671 C655 1.429 . S
C671 C667 1.429 . S
C671 C672 1.523 . S
C672 C656 1.368 . S
C672 C668 1.368 . S
C672 C671 1.523 . S
H673 C648 0.950 . S
H674 C650 0.950 . S
H675 C651 0.949 . S
H676 C653 0.950 . S
H677 C655 0.950 . S
C678 C679 1.349 . S
C678 C680 1.327 . S
C678 H703 0.950 . S
C679 C678 1.349 . S
C679 C695 1.349 . S
C680 C678 1.327 . S
C680 C699 1.429 . S
C680 H704 0.950 . S
C681 C698 1.574 . S
C681 C700 1.368 . S
C681 H705 0.949 . S
H682 C686 0.949 . S
C683 C684 1.349 . S
C683 C685 1.327 . S
C683 H706 0.950 . S
C684 C683 1.349 . S
C684 C696 1.349 . S
C685 C683 1.327 . S
C685 C701 1.429 . S
C685 H707 0.950 . S
C686 H682 0.949 . S
C686 C694 1.574 . S
C686 C702 1.368 . S
H687 C695 0.950 . S
H688 C693 0.950 . S
H689 C694 0.949 . S
H690 C696 0.950 . S
H691 C697 0.950 . S
H692 C698 0.949 . S
C693 H688 0.950 . S
C693 C695 1.327 . S
C693 C699 1.429 . S
C694 C686 1.574 . S
C694 H689 0.949 . S
C694 C700 1.368 . S
C695 C679 1.349 . S
C695 H687 0.950 . S
C695 C693 1.327 . S
C696 C684 1.349 . S
C696 H690 0.950 . S
C696 C697 1.327 . S
C697 H691 0.950 . S
C697 C696 1.327 . S
C697 C701 1.429 . S
C698 C681 1.574 . S
C698 H692 0.949 . S
C698 C702 1.368 . S
C699 C680 1.429 . S
C699 C693 1.429 . S
C699 C700 1.523 . S
C700 C681 1.368 . S
C700 C694 1.368 . S
C700 C699 1.523 . S
C701 C685 1.429 . S
C701 C697 1.429 . S
C701 C702 1.523 . S
C702 C686 1.368 . S
C702 C698 1.368 . S
C702 C701 1.523 . S
H703 C678 0.950 . S
H704 C680 0.950 . S
H705 C681 0.949 . S
H706 C683 0.950 . S
H707 C685 0.950 . S
C708 C709 1.349 . S
C708 C710 1.327 . S
C708 H733 0.950 . S
C709 C708 1.349 . S
C709 C725 1.349 . S
C710 C708 1.327 . S
C710 C729 1.429 . S
C710 H734 0.950 . S
C711 C728 1.574 . S
C711 C730 1.368 . S
C711 H735 0.949 . S
H712 C716 0.949 . S
C713 C714 1.349 . S
C713 C715 1.327 . S
C713 H736 0.950 . S
C714 C713 1.349 . S
C714 C726 1.349 . S
C715 C713 1.327 . S
C715 C731 1.429 . S
C715 H737 0.950 . S
C716 H712 0.949 . S
C716 C724 1.574 . S
C716 C732 1.368 . S
H717 C725 0.950 . S
H718 C723 0.950 . S
H719 C724 0.949 . S
H720 C726 0.950 1_565 S
H721 C727 0.950 . S
H722 C728 0.949 . S
C723 H718 0.950 . S
C723 C725 1.327 . S
C723 C729 1.429 . S
C724 C716 1.574 . S
C724 H719 0.949 . S
C724 C730 1.368 . S
C725 C709 1.349 . S
C725 H717 0.950 . S
C725 C723 1.327 . S
C726 C714 1.349 . S
C726 H720 0.950 1_545 S
C726 C727 1.327 . S
C727 H721 0.950 . S
C727 C726 1.327 . S
C727 C731 1.429 . S
C728 C711 1.574 . S
C728 H722 0.949 . S
C728 C732 1.368 . S
C729 C710 1.429 . S
C729 C723 1.429 . S
C729 C730 1.523 . S
C730 C711 1.368 . S
C730 C724 1.368 . S
C730 C729 1.523 . S
C731 C715 1.429 . S
C731 C727 1.429 . S
C731 C732 1.523 . S
C732 C716 1.368 . S
C732 C728 1.368 . S
C732 C731 1.523 . S
H733 C708 0.950 . S
H734 C710 0.950 . S
H735 C711 0.949 . S
H736 C713 0.950 . S
H737 C715 0.950 . S
C738 C739 1.349 . S
C738 C740 1.327 . S
C738 H763 0.950 . S
C739 C738 1.349 . S
C739 C755 1.349 1_655 S
C740 C738 1.327 . S
C740 C759 1.429 . S
C740 H764 0.950 . S
C741 C758 1.574 . S
C741 C760 1.368 . S
C741 H765 0.949 . S
H742 C746 0.949 . S
C743 C744 1.349 . S
C743 C745 1.327 . S
C743 H766 0.950 . S
C744 C743 1.349 . S
C744 C756 1.349 . S
C745 C743 1.327 . S
C745 C761 1.429 . S
C745 H767 0.950 . S
C746 H742 0.949 . S
C746 C754 1.574 . S
C746 C762 1.368 . S
H747 C755 0.950 . S
H748 C753 0.950 1_455 S
H749 C754 0.949 . S
H750 C756 0.950 . S
H751 C757 0.950 . S
H752 C758 0.949 . S
C753 H748 0.950 1_655 S
C753 C755 1.327 1_655 S
C753 C759 1.429 . S
C754 C746 1.574 . S
C754 H749 0.949 . S
C754 C760 1.368 . S
C755 C739 1.349 1_455 S
C755 H747 0.950 . S
C755 C753 1.327 1_455 S
C756 C744 1.349 . S
C756 H750 0.950 . S
C756 C757 1.327 . S
C757 H751 0.950 . S
C757 C756 1.327 . S
C757 C761 1.429 . S
C758 C741 1.574 . S
C758 H752 0.949 . S
C758 C762 1.368 . S
C759 C740 1.429 . S
C759 C753 1.429 . S
C759 C760 1.523 . S
C760 C741 1.368 . S
C760 C754 1.368 . S
C760 C759 1.523 . S
C761 C745 1.429 . S
C761 C757 1.429 . S
C761 C762 1.523 . S
C762 C746 1.368 . S
C762 C758 1.368 . S
C762 C761 1.523 . S
H763 C738 0.950 . S
H764 C740 0.950 . S
H765 C741 0.949 . S
H766 C743 0.950 . S
H767 C745 0.950 . S
C289 C158 1.587 . S
C294 C14 1.587 . S
C319 C50 1.587 . S
C324 C194 1.587 . S
C349 C86 1.587 . S
C354 C230 1.587 . S
C379 C266 1.587 . S
C384 C122 1.587 . S
C409 C4 1.338 . S
C414 C76 1.338 . S
C439 C40 1.338 . S
C444 C112 1.338 . S
C469 C220 1.338 . S
C474 C148 1.338 . S
C499 C184 1.338 . S
C504 C256 1.338 . S
C529 C182 0.769 . S
C534 C3 0.771 . S
C559 C39 0.771 . S
C564 C218 0.769 . S
C589 C75 0.771 . S
C594 C254 0.769 . S
C619 C146 0.769 . S
C624 C111 0.771 . S
C649 C147 0.771 . S
C654 C38 0.769 . S
C679 C183 0.771 . S
C684 C74 0.769 . S
C709 C219 0.771 . S
C714 C110 0.769 . S
C739 C2 0.769 . S
C744 C255 0.771 . S
