# Generated by pormake.
# Topology kag, (6)-cn, num edge types: 1
# Building blocks:
#     Node 0, Type 0, BuildingBlock: BETFAJ_clean_sbu_0, # of connection points: 6
#     Node 1, Type 0, BuildingBlock: BETFAJ_clean_sbu_0, # of connection points: 6
#     Node 2, Type 0, BuildingBlock: BETFAJ_clean_sbu_0, # of connection points: 6
#     Edge 3, Type (0, 0), BuildingBlock: MIFKUJ_clean_linker_0, # of connection points: 2
#     Edge 4, Type (0, 0), BuildingBlock: MIFKUJ_clean_linker_0, # of connection points: 2
#     Edge 5, Type (0, 0), BuildingBlock: MIFKUJ_clean_linker_0, # of connection points: 2
#     Edge 6, Type (0, 0), BuildingBlock: MIFKUJ_clean_linker_0, # of connection points: 2
#     Edge 7, Type (0, 0), BuildingBlock: MIFKUJ_clean_linker_0, # of connection points: 2
#     Edge 8, Type (0, 0), BuildingBlock: MIFKUJ_clean_linker_0, # of connection points: 2
#     Edge 9, Type (0, 0), BuildingBlock: MIFKUJ_clean_linker_0, # of connection points: 2
#     Edge 10, Type (0, 0), BuildingBlock: MIFKUJ_clean_linker_0, # of connection points: 2
#     Edge 11, Type (0, 0), BuildingBlock: MIFKUJ_clean_linker_0, # of connection points: 2
# Relax obj value: 0.052
# Max RMSD: 0.169
# Mean RMSD: 0.089
data_MOF--net-kag--node1-BETFAJ_clean_sbu_0--edge1-MIFKUJ_clean_linker_0
_symmetry_space_group_name_H-M    P1
_symmetry_Int_Tables_number       1
_symmetry_cell_setting            triclinic
loop_
_symmetry_equiv_pos_as_xyz
'x, y, z'
_cell_length_a     41.825959
_cell_length_b     51.827175
_cell_length_c     19.409809
_cell_angle_alpha  94.937064
_cell_angle_beta   90.877842
_cell_angle_gamma 102.22108
loop_
_atom_site_label
_atom_site_type_symbol
_atom_site_fract_x
_atom_site_fract_y
_atom_site_fract_z
_atom_type_partial_charge
Sm0 Sm 1.02123 0.4778 0.00386 0.0
Sm1 Sm 0.03454 0.53461 0.99613 0.0
C2 C 0.99972 0.42844 0.03605 0.0
C3 C 0.97012 0.40696 0.02872 0.0
C4 C 0.96351 0.38951 0.08053 0.0
C5 C 0.93656 0.36815 0.07345 0.0
C6 C 0.91568 0.36373 0.01413 0.0
C7 C 0.92204 0.38158 0.96276 0.0
C8 C 0.94895 0.40306 0.9701 0.0
C9 C 0.02856 0.4912 0.86913 0.0
C10 C 0.95648 0.50677 0.99215 0.0
C11 C 0.05623 0.5839 0.96376 0.0
C12 C 0.08594 0.6053 0.97115 0.0
C13 C 0.09418 0.62133 0.91673 0.0
C14 C 0.12127 0.64258 0.92345 0.0
C15 C 0.14064 0.64832 0.985 0.0
C16 C 0.13268 0.63187 0.03907 0.0
C17 C 0.10566 0.61049 0.03212 0.0
C18 C 1.02705 0.52112 0.13064 0.0
C19 C 0.09935 0.50572 0.00804 0.0
O20 O 0.99841 0.44931 0.07793 0.0
O21 O 1.01523 0.43439 0.97971 0.0
O22 O 1.01252 0.50173 0.91423 0.0
O23 O 0.0405 0.47272 0.89423 0.0
O24 O 0.96746 0.48575 0.00867 0.0
O25 O 0.97789 0.52812 0.97696 0.0
O26 O 0.05749 0.563 0.92197 0.0
O27 O 0.04049 0.57804 0.01992 0.0
O28 O 0.04326 0.51069 0.08566 0.0
O29 O 1.01504 0.53958 0.10554 0.0
O30 O 0.08837 0.52686 0.99248 0.0
O31 O 0.07794 0.48419 0.02214 0.0
H32 H 0.97957 0.39217 0.12612 0.0
H33 H 0.93262 0.35466 0.11361 0.0
H34 H 0.90621 0.37893 0.91686 0.0
H35 H 0.95342 0.41643 0.92966 0.0
H36 H 0.07929 0.61766 0.86928 0.0
H37 H 0.12647 0.65498 0.88112 0.0
H38 H 0.14735 0.63556 0.08679 0.0
H39 H 0.09997 0.59824 0.07465 0.0
Sm40 Sm 0.56387 0.01232 0.9913 0.0
Sm41 Sm 0.4927 0.99941 0.00259 0.0
C42 C 0.62414 0.03457 0.95851 0.0
C43 C 0.64402 0.06206 0.96046 0.0
C44 C 0.64333 0.07724 0.90396 0.0
C45 C 0.66208 0.10311 0.90593 0.0
C46 C 0.68205 0.11445 0.9644 0.0
C47 C 0.68278 0.09924 0.02081 0.0
C48 C 0.66411 0.07335 0.01877 0.0
C49 C 0.54528 1.00416 0.12476 0.0
C50 C 0.52399 0.06192 0.01309 0.0
C51 C 0.43255 0.97689 0.03537 0.0
C52 C 0.41313 0.94926 0.03358 0.0
C53 C 0.41183 0.93514 0.09258 0.0
C54 C 0.39359 0.90911 0.09106 0.0
C55 C 0.37607 0.89655 0.03056 0.0
C56 C 0.37739 0.91068 0.97157 0.0
C57 C 0.39561 0.93671 0.9731 0.0
C58 C 0.51139 0.00762 0.86931 0.0
C59 C 0.53251 0.94981 0.98075 0.0
O60 O 0.59957 0.02794 0.91339 0.0
O61 O 0.6171 0.025 0.01791 0.0
O62 O 0.53219 0.01723 0.08431 0.0
O63 O 0.56909 0.99544 0.09532 0.0
O64 O 0.55113 0.05411 0.99573 0.0
O65 O 0.49722 0.04447 0.02527 0.0
O66 O 0.45705 0.98377 0.08061 0.0
O67 O 0.4395 0.98649 0.97595 0.0
O68 O 0.52438 0.99446 0.9097 0.0
O69 O 0.48758 0.01636 0.89868 0.0
O70 O 0.50544 0.95766 0.99837 0.0
O71 O 0.55926 0.96725 0.96836 0.0
H72 H 0.62828 0.06916 0.85802 0.0
H73 H 0.66077 0.11427 0.8617 0.0
H74 H 0.69832 0.10714 0.06615 0.0
H75 H 0.66554 0.06215 0.06291 0.0
H76 H 0.42491 0.94421 0.14014 0.0
H77 H 0.39334 0.8988 0.13731 0.0
H78 H 0.36374 0.90184 0.92447 0.0
H79 H 0.39578 0.94702 0.92684 0.0
Sm80 Sm 0.53668 0.53539 0.99669 0.0
Sm81 Sm 0.51935 0.47648 0.00114 0.0
C82 C 0.54498 0.58611 0.96883 0.0
C83 C 0.53697 0.61311 0.97709 0.0
C84 C 0.52055 0.62222 0.92332 0.0
C85 C 0.51756 0.64885 0.92559 0.0
C86 C 0.53119 0.66736 0.98144 0.0
C87 C 0.5468 0.658 0.03613 0.0
C88 C 0.54969 0.63138 0.03395 0.0
C89 C 0.53764 0.51983 0.1299 0.0
C90 C 0.45693 0.50627 0.00735 0.0
C91 C 0.511 0.42568 0.02838 0.0
C92 C 0.51917 0.39874 0.02038 0.0
C93 C 0.53393 0.38921 0.07582 0.0
C94 C 0.53695 0.36258 0.07333 0.0
C95 C 0.525 0.34449 0.01553 0.0
C96 C 0.51108 0.35428 0.95927 0.0
C97 C 0.50816 0.38091 0.96169 0.0
C98 C 0.51839 0.49218 0.86812 0.0
C99 C 0.59907 0.50558 0.99099 0.0
O100 O 0.52574 0.56651 0.93141 0.0
O101 O 0.5599 0.57811 0.01995 0.0
O102 O 0.51607 0.50964 0.08321 0.0
O103 O 0.55846 0.53927 0.10755 0.0
O104 O 0.47868 0.52745 0.99124 0.0
O105 O 0.46724 0.48478 0.0223 0.0
O106 O 0.52981 0.44526 0.0667 0.0
O107 O 0.49656 0.43374 0.97669 0.0
O108 O 0.54005 0.50224 0.91475 0.0
O109 O 0.49748 0.4728 0.89044 0.0
O110 O 0.57732 0.48454 0.00783 0.0
O111 O 0.58872 0.52694 0.97505 0.0
H112 H 0.51099 0.60895 0.87806 0.0
H113 H 0.50566 0.65514 0.88201 0.0
H114 H 0.5572 0.67135 0.08063 0.0
H115 H 0.56284 0.62535 0.07611 0.0
H116 H 0.54213 0.40213 0.12242 0.0
H117 H 0.54749 0.35595 0.11812 0.0
H118 H 0.50202 0.34127 0.9133 0.0
H119 H 0.49633 0.38728 0.91814 0.0
H120 H 1.00018 0.52574 0.80098 0.0
H121 H 1.00006 0.53116 0.67641 0.0
H122 H 0.05677 0.47099 0.64277 0.0
H123 H 0.05745 0.46595 0.76672 0.0
H124 H 0.07972 0.50969 0.56697 0.0
H125 H 0.97207 0.4591 0.60437 0.0
H126 H 0.91844 0.44978 0.65877 0.0
H127 H 0.89667 0.52068 0.58837 0.0
H128 H 0.95039 0.5306 0.5343 0.0
H129 H 0.05553 0.48667 0.19891 0.0
H130 H 0.05566 0.48129 0.32349 0.0
H131 H 0.99877 0.54134 0.35695 0.0
H132 H 0.99805 0.54633 0.23298 0.0
H133 H 0.97591 0.50273 0.43287 0.0
H134 H 0.08352 0.55333 0.39543 0.0
H135 H 0.13717 0.56268 0.34108 0.0
H136 H 0.15902 0.49184 0.41161 0.0
H137 H 0.10529 0.48188 0.46563 0.0
C138 C 1.01264 0.51371 0.76696 0.0
C139 C 0.02865 0.49529 0.79391 0.0
C140 C 1.01244 0.51672 0.69554 0.0
C141 C 0.02805 0.50123 0.64932 0.0
C142 C 0.0445 0.4832 0.67671 0.0
C143 C 0.04476 0.48026 0.74785 0.0
C144 C 0.0273 0.50359 0.57264 0.0
C145 C 0.05693 0.50784 0.53767 0.0
C146 C 0.99776 0.50173 0.53381 0.0
C147 C 0.96538 0.49572 0.56591 0.0
C148 C 0.95594 0.4728 0.60091 0.0
C149 C 0.92551 0.46739 0.63162 0.0
C150 C 0.9042 0.48467 0.6272 0.0
C151 C 0.91323 0.50734 0.59185 0.0
C152 C 0.94365 0.51285 0.56112 0.0
C153 C 0.04303 0.49868 0.2329 0.0
C154 C 1.02696 0.51705 0.20588 0.0
C155 C 0.04323 0.4957 0.30432 0.0
C156 C 0.02758 0.51117 0.3505 0.0
C157 C 1.01107 0.52915 0.32305 0.0
C158 C 1.01079 0.53206 0.25189 0.0
C159 C 0.02834 0.50883 0.4272 0.0
C160 C 0.99871 0.50459 0.46217 0.0
C161 C 0.05788 0.5107 0.46603 0.0
C162 C 0.09026 0.51672 0.43395 0.0
C163 C 0.09968 0.53965 0.39892 0.0
C164 C 0.13011 0.54507 0.36824 0.0
C165 C 0.15145 0.52783 0.37272 0.0
C166 C 0.14244 0.50516 0.40809 0.0
C167 C 0.11202 0.49962 0.43879 0.0
H168 H 0.175 0.53206 0.34892 0.0
H169 H 0.88066 0.48045 0.65102 0.0
H170 H 0.50162 0.02611 0.20331 0.0
H171 H 0.49533 0.02651 0.32909 0.0
H172 H 0.57138 0.98231 0.3431 0.0
H173 H 0.57715 0.98137 0.21802 0.0
H174 H 0.52463 0.96353 0.42434 0.0
H175 H 0.58437 0.05119 0.38872 0.0
H176 H 0.59399 0.09419 0.33856 0.0
H177 H 0.50613 0.11042 0.42742 0.0
H178 H 0.49576 0.06734 0.47736 0.0
H179 H 0.55497 0.98558 0.79072 0.0
H180 H 0.56124 0.98516 0.66493 0.0
H181 H 0.48532 0.0295 0.65099 0.0
H182 H 0.47959 0.03047 0.77608 0.0
H183 H 0.53198 0.04821 0.5697 0.0
H184 H 0.4722 0.9606 0.6053 0.0
H185 H 0.4625 0.91759 0.65542 0.0
H186 H 0.55031 0.90125 0.56657 0.0
H187 H 0.56076 0.94435 0.51667 0.0
C188 C 0.51687 0.01641 0.23328 0.0
C189 C 0.54003 1.00386 0.20055 0.0
C190 C 0.51342 0.01676 0.30536 0.0
C191 C 0.53323 1.00478 0.3464 0.0
C192 C 0.55579 0.99176 0.31321 0.0
C193 C 0.55915 0.99132 0.24142 0.0
C194 C 0.53086 1.00584 0.42372 0.0
C195 C 0.52664 0.98213 0.45605 0.0
C196 C 0.53282 0.02995 0.46575 0.0
C197 C 0.53913 0.05593 0.43617 0.0
C198 C 0.56699 0.06385 0.39716 0.0
C199 C 0.57259 0.08825 0.36883 0.0
C200 C 0.55064 0.105 0.37964 0.0
C201 C 0.52309 0.09741 0.41899 0.0
C202 C 0.51735 0.07302 0.44737 0.0
C203 C 0.53974 0.99531 0.76076 0.0
C204 C 0.51664 0.0079 0.79352 0.0
C205 C 0.54319 0.99495 0.68867 0.0
C206 C 0.5234 0.00697 0.64765 0.0
C207 C 0.50089 0.02003 0.68087 0.0
C208 C 0.49755 0.02049 0.75266 0.0
C209 C 0.52576 0.0059 0.57033 0.0
C210 C 0.52998 0.02961 0.53799 0.0
C211 C 0.52378 0.98179 0.5283 0.0
C212 C 0.51743 0.95581 0.55786 0.0
C213 C 0.48956 0.94791 0.59686 0.0
C214 C 0.4839 0.92351 0.62517 0.0
C215 C 0.50582 0.90673 0.61435 0.0
C216 C 0.53338 0.91428 0.575 0.0
C217 C 0.53917 0.93869 0.54665 0.0
H218 H 0.50141 0.88785 0.63632 0.0
H219 H 0.55501 0.12388 0.35764 0.0
H220 H 0.47338 0.47081 0.76511 0.0
H221 H 0.47675 0.47565 0.64134 0.0
H222 H 0.57156 0.52804 0.67613 0.0
H223 H 0.56791 0.52362 0.8012 0.0
H224 H 0.5368 0.54617 0.58225 0.0
H225 H 0.56202 0.46161 0.61005 0.0
H226 H 0.55319 0.41667 0.64902 0.0
H227 H 0.4635 0.39373 0.52711 0.0
H228 H 0.47157 0.43866 0.48814 0.0
H229 H 0.58262 0.54129 0.23289 0.0
H230 H 0.57928 0.53644 0.35666 0.0
H231 H 0.48454 0.48394 0.32192 0.0
H232 H 0.48817 0.48834 0.19684 0.0
H233 H 0.51927 0.46587 0.41578 0.0
H234 H 0.49407 0.55045 0.38798 0.0
H235 H 0.50292 0.59539 0.34903 0.0
H236 H 0.5926 0.61831 0.47094 0.0
H237 H 0.58451 0.57337 0.5099 0.0
C238 C 0.49498 0.48344 0.74661 0.0
C239 C 0.5205 0.49666 0.79321 0.0
C240 C 0.49696 0.48607 0.67546 0.0
C241 C 0.52472 0.50176 0.64848 0.0
C242 C 0.54993 0.51565 0.69519 0.0
C243 C 0.54787 0.51311 0.76678 0.0
C244 C 0.52725 0.50354 0.57176 0.0
C245 C 0.53345 0.52859 0.54605 0.0
C246 C 0.52207 0.48066 0.52367 0.0
C247 C 0.51726 0.45358 0.54668 0.0
C248 C 0.5403 0.44704 0.59193 0.0
C249 C 0.53545 0.42156 0.61396 0.0
C250 C 0.50776 0.40238 0.59069 0.0
C251 C 0.48492 0.40862 0.54516 0.0
C252 C 0.48963 0.43408 0.52303 0.0
C253 C 0.56105 0.52863 0.2514 0.0
C254 C 0.53554 0.51537 0.20482 0.0
C255 C 0.55908 0.526 0.32255 0.0
C256 C 0.53134 0.51028 0.34955 0.0
C257 C 0.50615 0.49636 0.30285 0.0
C258 C 0.5082 0.49889 0.23126 0.0
C259 C 0.52882 0.50851 0.42627 0.0
C260 C 0.52262 0.48346 0.45198 0.0
C261 C 0.53401 0.53138 0.47436 0.0
C262 C 0.53882 0.55847 0.45136 0.0
C263 C 0.51579 0.56502 0.40611 0.0
C264 C 0.52065 0.5905 0.38408 0.0
C265 C 0.54834 0.60967 0.40736 0.0
C266 C 0.57118 0.60342 0.45288 0.0
C267 C 0.56645 0.57796 0.47501 0.0
H268 H 0.55206 0.62939 0.39024 0.0
H269 H 0.50405 0.38266 0.60781 0.0
H270 H 0.15198 0.54861 0.00344 0.0
H271 H 0.21076 0.54962 0.00614 0.0
H272 H 0.19055 0.46503 0.01642 0.0
H273 H 0.13171 0.46423 0.01695 0.0
H274 H 0.24144 0.48204 0.09137 0.0
H275 H 0.21951 0.50357 0.86015 0.0
H276 H 0.19973 0.52933 0.77378 0.0
H277 H 0.26585 0.60005 0.86099 0.0
H278 H 0.2858 0.57474 0.94825 0.0
H279 H 0.40355 0.46451 0.01704 0.0
H280 H 0.3451 0.46458 0.01654 0.0
H281 H 0.36725 0.54897 0.00247 0.0
H282 H 0.42582 0.54867 -0.00025 0.0
H283 H 0.31559 0.53283 0.93064 0.0
H284 H 0.33816 0.51272 0.16013 0.0
H285 H 0.35805 0.48838 0.24973 0.0
H286 H 0.29104 0.41689 0.17053 0.0
H287 H 0.27102 0.44074 0.07993 0.0
C288 C 0.15986 0.53011 0.0062 0.0
C289 C 0.13624 0.50631 0.00965 0.0
C290 C 0.194 0.53065 0.00705 0.0
C291 C 0.20639 0.5073 0.0097 0.0
C292 C 0.1827 0.48355 0.01404 0.0
C293 C 0.14856 0.48307 0.01415 0.0
C294 C 0.24346 0.5075 0.00892 0.0
C295 C 0.25731 0.49291 0.05519 0.0
C296 C 0.26563 0.52217 0.96393 0.0
C297 C 0.25393 0.5373 0.91103 0.0
C298 C 0.22972 0.52463 0.86103 0.0
C299 C 0.21849 0.53915 0.81192 0.0
C300 C 0.23147 0.56632 0.81199 0.0
C301 C 0.2558 0.57901 0.86102 0.0
C302 C 0.26711 0.56458 0.91025 0.0
C303 C 0.3962 0.48321 0.01412 0.0
C304 C 0.42029 0.50661 0.00891 0.0
C305 C 0.36224 0.4833 0.01444 0.0
C306 C 0.35048 0.5069 0.01119 0.0
C307 C 0.37461 0.53027 0.00534 0.0
C308 C 0.4086 0.53013 0.00408 0.0
C309 C 0.31354 0.50721 0.01278 0.0
C310 C 0.29972 0.52192 0.96675 0.0
C311 C 0.29144 0.49282 0.05837 0.0
C312 C 0.30333 0.47846 0.11286 0.0
C313 C 0.32781 0.49177 0.16159 0.0
C314 C 0.33909 0.47807 0.21258 0.0
C315 C 0.32588 0.45109 0.21571 0.0
C316 C 0.30128 0.43778 0.16798 0.0
C317 C 0.28994 0.45138 0.11684 0.0
H318 H 0.33465 0.44052 0.2552 0.0
H319 H 0.22271 0.57753 0.77399 0.0
H320 H 0.71751 0.13746 0.85965 0.0
H321 H 0.75355 0.18137 0.86402 0.0
H322 H 0.73049 0.1969 0.07734 0.0
H323 H 0.69347 0.1533 0.07266 0.0
H324 H 0.73334 0.2404 0.00803 0.0
H325 H 0.801 0.17766 0.03634 0.0
H326 H 0.82254 0.13757 0.00563 0.0
H327 H 0.85597 0.16748 0.81391 0.0
H328 H 0.83419 0.20761 0.84307 0.0
H329 H 0.87252 0.3435 0.11086 0.0
H330 H 0.82988 0.30284 0.09778 0.0
H331 H 0.85378 0.28972 0.88405 0.0
H332 H 0.89689 0.33009 0.89714 0.0
H333 H 0.84957 0.24547 0.95058 0.0
H334 H 0.78384 0.30959 0.92606 0.0
H335 H 0.76263 0.34968 0.95885 0.0
H336 H 0.7262 0.31746 0.14596 0.0
H337 H 0.7476 0.27731 0.11476 0.0
C338 C 0.7197 0.15033 0.90724 0.0
C339 C 0.70278 0.14172 0.96601 0.0
C340 C 0.74054 0.17538 0.90982 0.0
C341 C 0.74517 0.1923 0.97135 0.0
C342 C 0.72749 0.18414 0.02942 0.0
C343 C 0.70658 0.1591 0.02685 0.0
C344 C 0.76931 0.21806 0.97584 0.0
C345 C 0.75883 0.2415 0.99621 0.0
C346 C 0.80247 0.21958 0.95915 0.0
C347 C 0.81566 0.1955 0.94156 0.0
C348 C 0.81271 0.17559 0.98738 0.0
C349 C 0.825 0.15288 0.97029 0.0
C350 C 0.84053 0.14995 0.90777 0.0
C351 C 0.84388 0.16976 0.86227 0.0
C352 C 0.83159 0.1925 0.87907 0.0
C353 C 0.86866 0.33198 0.06103 0.0
C354 C 0.88816 0.34005 0.00506 0.0
C355 C 0.84408 0.30885 0.05346 0.0
C356 C 0.83843 0.29329 0.98977 0.0
C357 C 0.85761 0.30144 0.93362 0.0
C358 C 0.88209 0.32464 0.94104 0.0
C359 C 0.81364 0.26788 0.98266 0.0
C360 C 0.82404 0.24444 0.96203 0.0
C361 C 0.7805 0.2664 -0.00057 0.0
C362 C 0.76762 0.29054 0.01837 0.0
C363 C 0.77156 0.31114 0.9745 0.0
C364 C 0.75945 0.33387 0.99273 0.0
C365 C 0.74316 0.33615 0.05453 0.0
C366 C 0.73887 0.31568 0.09815 0.0
C367 C 0.75095 0.29292 0.08018 0.0
H368 H 0.73379 0.35375 0.06855 0.0
H369 H 0.85004 0.13235 0.89464 0.0
H370 H 0.48079 0.90818 0.94709 0.0
H371 H 0.47958 0.86075 0.94251 0.0
H372 H 0.58198 0.87795 0.00466 0.0
H373 H 0.58367 0.92549 0.00398 0.0
H374 H 0.57391 0.83814 0.92085 0.0
H375 H 0.50902 0.85669 0.11549 0.0
H376 H 0.4639 0.87244 0.17436 0.0
H377 H 0.39362 0.81622 0.04375 0.0
H378 H 0.43828 0.80056 0.98301 0.0
H379 H 0.57905 0.7111 0.02755 0.0
H380 H 0.57811 0.75801 0.02615 0.0
H381 H 0.48098 0.73708 0.93231 0.0
H382 H 0.48138 0.68996 0.93518 0.0
H383 H 0.48496 0.77779 0.03008 0.0
H384 H 0.54915 0.75921 0.83712 0.0
H385 H 0.59375 0.74299 0.77767 0.0
H386 H 0.66493 0.79885 0.90723 0.0
H387 H 0.62072 0.81517 0.96811 0.0
C388 C 0.50313 0.90186 0.95942 0.0
C389 C 0.53234 0.92077 0.97606 0.0
C390 C 0.50235 0.87455 0.95762 0.0
C391 C 0.53043 0.86521 0.97536 0.0
C392 C 0.55978 0.88421 0.99097 0.0
C393 C 0.56079 0.91154 0.99067 0.0
C394 C 0.52947 0.83588 0.97695 0.0
C395 C 0.55465 0.82519 0.94595 0.0
C396 C 0.50392 0.81823 0.00751 0.0
C397 C 0.47705 0.82762 0.04426 0.0
C398 C 0.48395 0.84783 0.09897 0.0
C399 C 0.45845 0.85676 0.13261 0.0
C400 C 0.42593 0.8454 0.11262 0.0
C401 C 0.41882 0.82509 0.05896 0.0
C402 C 0.44422 0.81618 0.0249 0.0
C403 C 0.55725 0.71632 0.00726 0.0
C404 C 0.53028 0.69637 0.98147 0.0
C405 C 0.5569 0.74335 0.00579 0.0
C406 C 0.52964 0.75143 0.97828 0.0
C407 C 0.50243 0.73161 0.9536 0.0
C408 C 0.50281 0.70453 0.95478 0.0
C409 C 0.52961 0.78042 0.97511 0.0
C410 C 0.50424 0.79092 0.00549 0.0
C411 C 0.55498 0.79794 0.94427 0.0
C412 C 0.58161 0.78823 0.90761 0.0
C413 C 0.5743 0.7679 0.85328 0.0
C414 C 0.59952 0.75871 0.81927 0.0
C415 C 0.63215 0.76984 0.83878 0.0
C416 C 0.63964 0.79023 0.89223 0.0
C417 C 0.61451 0.79947 0.92647 0.0
H418 H 0.65163 0.7627 0.81238 0.0
H419 H 0.40622 0.85224 0.13891 0.0
H420 H 0.92408 0.54686 0.9658 0.0
H421 H 0.86535 0.54635 0.96475 0.0
H422 H 0.84509 0.46527 0.01484 0.0
H423 H 0.9039 0.46563 0.015 0.0
H424 H 0.7988 0.46895 0.9276 0.0
H425 H 0.84029 0.5222 0.13553 0.0
H426 H 0.87596 0.55872 0.20823 0.0
H427 H 0.84204 0.61562 0.09386 0.0
H428 H 0.80647 0.57941 0.01983 0.0
H429 H 0.6306 0.4647 0.01549 0.0
H430 H 0.68917 0.46446 0.0155 0.0
H431 H 0.71063 0.54534 0.96391 0.0
H432 H 0.65208 0.54574 0.96468 0.0
H433 H 0.75626 0.54142 0.05258 0.0
H434 H 0.71436 0.48732 0.84464 0.0
H435 H 0.67861 0.4503 0.77367 0.0
H436 H 0.71313 0.39438 0.89063 0.0
H437 H 0.74878 0.43109 0.96293 0.0
C438 C 0.9073 0.52882 0.9767 0.0
C439 C 0.91961 0.50633 0.99076 0.0
C440 C 0.87324 0.52859 0.97657 0.0
C441 C 0.84965 0.50589 0.99084 0.0
C442 C 0.86193 0.48325 0.00375 0.0
C443 C 0.89603 0.4835 0.00405 0.0
C444 C 0.81266 0.5057 0.99202 0.0
C445 C 0.78973 0.48472 0.95593 0.0
C446 C 0.79963 0.52626 0.0274 0.0
C447 C 0.82099 0.54809 0.07166 0.0
C448 C 0.84063 0.5425 0.12553 0.0
C449 C 0.8608 0.56315 0.16704 0.0
C450 C 0.86134 0.58948 0.15554 0.0
C451 C 0.84164 0.59522 0.10262 0.0
C452 C 0.82146 0.57464 0.06089 0.0
C453 C 0.64761 0.4825 0.00379 0.0
C454 C 0.63571 0.5052 0.98972 0.0
C455 C 0.68158 0.48231 0.00341 0.0
C456 C 0.70545 0.50477 0.9887 0.0
C457 C 0.69356 0.52754 0.97539 0.0
C458 C 0.6596 0.52771 0.97556 0.0
C459 C 0.74239 0.50473 0.98793 0.0
C460 C 0.76533 0.52566 0.02418 0.0
C461 C 0.7554 0.48406 0.95293 0.0
C462 C 0.73397 0.46196 0.90967 0.0
C463 C 0.71414 0.46713 0.85557 0.0
C464 C 0.69392 0.44621 0.81505 0.0
C465 C 0.69352 0.42001 0.82776 0.0
C466 C 0.71341 0.41469 0.88092 0.0
C467 C 0.73364 0.43554 0.92166 0.0
H468 H 0.67786 0.40384 0.79631 0.0
H469 H 0.87696 0.60544 0.18775 0.0
H470 H 0.1867 0.66586 0.89089 0.0
H471 H 0.2296 0.70639 0.90244 0.0
H472 H 0.19994 0.72477 0.10955 0.0
H473 H 0.15661 0.68455 0.09789 0.0
H474 H 0.20687 0.7671 0.03381 0.0
H475 H 0.26998 0.70316 0.08273 0.0
H476 H 0.29054 0.66213 0.0602 0.0
H477 H 0.33365 0.69005 0.87377 0.0
H478 H 0.3129 0.7311 0.89461 0.0
H479 H 0.33706 0.87505 0.13233 0.0
H480 H 0.30081 0.83126 0.12796 0.0
H481 H 0.33122 0.81254 0.92172 0.0
H482 H 0.36846 0.85607 0.92654 0.0
H483 H 0.32474 0.76999 0.99773 0.0
H484 H 0.26042 0.83234 0.9443 0.0
H485 H 0.23893 0.87309 0.96244 0.0
H486 H 0.19723 0.84777 0.15252 0.0
H487 H 0.2189 0.80701 0.136 0.0
C488 C 0.18935 0.67852 0.93894 0.0
C489 C 0.1682 0.67196 0.99347 0.0
C490 C 0.21406 0.70157 0.94567 0.0
C491 C 0.21816 0.71856 0.00705 0.0
C492 C 0.1973 0.71193 0.06179 0.0
C493 C 0.17271 0.68882 0.05523 0.0
C494 C 0.2432 0.74382 0.01313 0.0
C495 C 0.23271 0.76767 0.02705 0.0
C496 C 0.2768 0.74466 0.0022 0.0
C497 C 0.28959 0.7201 0.98989 0.0
C498 C 0.28362 0.70047 0.03663 0.0
C499 C 0.29535 0.67722 0.02421 0.0
C500 C 0.31331 0.67345 0.96548 0.0
C501 C 0.31969 0.69297 0.91918 0.0
C502 C 0.30797 0.71625 0.93131 0.0
C503 C 0.33651 0.8615 0.08643 0.0
C504 C 0.3555 0.86923 0.02951 0.0
C505 C 0.31554 0.83652 0.0838 0.0
C506 C 0.31287 0.81875 0.02408 0.0
C507 C 0.33269 0.82597 0.96817 0.0
C508 C 0.35372 0.85097 0.97077 0.0
C509 C 0.28837 0.79319 0.01893 0.0
C510 C 0.29891 0.76934 0.00488 0.0
C511 C 0.25471 0.7923 0.02923 0.0
C512 C 0.24158 0.81676 0.03928 0.0
C513 C 0.2469 0.83556 0.99026 0.0
C514 C 0.23465 0.85865 0.0002 0.0
C515 C 0.21681 0.86306 0.0587 0.0
C516 C 0.21111 0.84435 0.1073 0.0
C517 C 0.22335 0.82125 0.09765 0.0
H518 H 0.20733 0.88094 0.06629 0.0
H519 H 0.32234 0.65542 0.95593 0.0
H520 H 0.47856 0.30091 0.96216 0.0
H521 H 0.47942 0.25394 0.96282 0.0
H522 H 0.57362 0.27451 0.06986 0.0
H523 H 0.57335 0.32168 0.06781 0.0
H524 H 0.57255 0.23458 0.97067 0.0
H525 H 0.5022 0.25142 0.15475 0.0
H526 H 0.45551 0.26693 0.20722 0.0
H527 H 0.38886 0.2115 0.06726 0.0
H528 H 0.4352 0.19589 0.01332 0.0
H529 H 0.57508 0.10362 0.05096 0.0
H530 H 0.57609 0.15103 0.05587 0.0
H531 H 0.47486 0.13361 0.9847 0.0
H532 H 0.47325 0.08609 0.98537 0.0
H533 H 0.48065 0.17297 0.06765 0.0
H534 H 0.55055 0.15638 0.8808 0.0
H535 H 0.59713 0.14169 0.82526 0.0
H536 H 0.66431 0.19685 0.96473 0.0
H537 H 0.61813 0.21153 0.02197 0.0
C538 C 0.49972 0.2956 0.98523 0.0
C539 C 0.52589 0.31545 0.01496 0.0
C540 C 0.5 0.26853 0.98624 0.0
C541 C 0.52639 0.26034 0.01721 0.0
C542 C 0.55283 0.28007 0.04585 0.0
C543 C 0.55252 0.30718 0.04511 0.0
C544 C 0.52634 0.2313 0.01984 0.0
C545 C 0.55262 0.22117 0.99262 0.0
C546 C 0.5001 0.21341 0.04697 0.0
C547 C 0.4722 0.22266 0.0796 0.0
C548 C 0.4776 0.24267 0.13485 0.0
C549 C 0.4512 0.25146 0.1649 0.0
C550 C 0.41925 0.24026 0.14048 0.0
C551 C 0.41363 0.22018 0.08607 0.0
C552 C 0.43995 0.21134 0.05578 0.0
C553 C 0.55296 0.1099 0.03673 0.0
C554 C 0.52408 0.09094 0.01769 0.0
C555 C 0.55364 0.13721 0.03866 0.0
C556 C 0.52585 0.14651 0.01856 0.0
C557 C 0.49683 0.12743 0.00035 0.0
C558 C 0.49587 0.1001 0.00062 0.0
C559 C 0.52672 0.17586 0.01736 0.0
C560 C 0.50061 0.18619 0.0452 0.0
C561 C 0.55306 0.19387 0.99017 0.0
C562 C 0.58083 0.1849 0.95604 0.0
C563 C 0.57524 0.16523 0.89997 0.0
C564 C 0.60158 0.1569 0.8682 0.0
C565 C 0.63364 0.16831 0.89153 0.0
C566 C 0.63946 0.188 0.94682 0.0
C567 C 0.61321 0.19633 0.97894 0.0
H568 H 0.65399 0.162 0.86652 0.0
H569 H 0.39884 0.24709 0.16381 0.0
loop_
_geom_bond_atom_site_label_1
_geom_bond_atom_site_label_2
_geom_bond_distance
_geom_bond_site_symmetry_2
_ccdc_geom_bond_type
Sm0 C2 2.846 . S
Sm0 O20 2.543 1_556 S
Sm0 O21 2.450 . S
Sm0 O22 2.681 1_655 S
Sm0 O23 2.464 . S
Sm0 O24 2.396 . S
Sm0 O28 2.386 1_556 S
Sm0 O31 2.408 1_655 S
Sm1 C11 2.846 . S
Sm1 O22 2.386 1_554 S
Sm1 O25 2.408 1_455 S
Sm1 O26 2.543 1_554 S
Sm1 O27 2.450 . S
Sm1 O28 2.681 1_455 S
Sm1 O29 2.464 . S
Sm1 O30 2.396 . S
C2 Sm0 2.846 . S
C2 C3 1.506 . S
C2 O20 1.261 1_556 S
C2 O21 1.242 . S
C3 C2 1.506 . S
C3 C4 1.358 1_556 S
C3 C8 1.382 . S
C4 C3 1.358 1_554 S
C4 C5 1.385 . S
C4 H32 0.930 . S
C5 C4 1.385 . S
C5 C6 1.395 1_554 S
C5 H33 0.929 . S
C6 C5 1.395 1_556 S
C6 C7 1.335 . S
C7 C6 1.335 . S
C7 C8 1.398 . S
C7 H34 0.930 . S
C8 C3 1.382 . S
C8 C7 1.398 . S
C8 H35 0.929 . S
C9 O22 1.274 . S
C9 O23 1.248 1_455 S
C10 O24 1.252 . S
C10 O25 1.272 1_556 S
C11 Sm1 2.846 . S
C11 C12 1.506 . S
C11 O26 1.261 1_554 S
C11 O27 1.242 . S
C12 C11 1.506 . S
C12 C13 1.358 1_554 S
C12 C17 1.382 . S
C13 C12 1.358 1_556 S
C13 C14 1.385 . S
C13 H36 0.930 . S
C14 C13 1.385 . S
C14 C15 1.395 1_556 S
C14 H37 0.929 . S
C15 C14 1.395 1_554 S
C15 C16 1.335 . S
C16 C15 1.335 . S
C16 C17 1.398 . S
C16 H38 0.930 . S
C17 C12 1.382 . S
C17 C16 1.398 . S
C17 H39 0.929 . S
C18 O28 1.271 1_455 S
C18 O29 1.251 . S
C19 O30 1.252 . S
C19 O31 1.272 1_554 S
O20 Sm0 2.543 1_554 S
O20 C2 1.261 1_554 S
O21 Sm0 2.450 . S
O21 C2 1.242 . S
O22 Sm0 2.681 1_455 S
O22 Sm1 2.386 1_556 S
O22 C9 1.274 . S
O23 Sm0 2.464 . S
O23 C9 1.248 1_655 S
O24 Sm0 2.396 . S
O24 C10 1.252 . S
O25 Sm1 2.408 1_655 S
O25 C10 1.272 1_554 S
O26 Sm1 2.543 1_556 S
O26 C11 1.261 1_556 S
O27 Sm1 2.450 . S
O27 C11 1.242 . S
O28 Sm0 2.386 1_554 S
O28 Sm1 2.681 1_655 S
O28 C18 1.271 1_655 S
O29 Sm1 2.464 . S
O29 C18 1.251 . S
O30 Sm1 2.396 . S
O30 C19 1.252 . S
O31 Sm0 2.408 1_455 S
O31 C19 1.272 1_556 S
H32 C4 0.930 . S
H33 C5 0.929 . S
H34 C7 0.930 . S
H35 C8 0.929 . S
H36 C13 0.930 . S
H37 C14 0.929 . S
H38 C16 0.930 . S
H39 C17 0.929 . S
Sm40 C42 2.846 . S
Sm40 O60 2.543 1_554 S
Sm40 O61 2.450 . S
Sm40 O62 2.681 1_545 S
Sm40 O63 2.464 . S
Sm40 O64 2.396 . S
Sm40 O68 2.386 1_554 S
Sm40 O71 2.408 1_545 S
Sm41 C51 2.846 . S
Sm41 O62 2.386 1_556 S
Sm41 O65 2.408 1_565 S
Sm41 O66 2.543 1_556 S
Sm41 O67 2.450 . S
Sm41 O68 2.681 1_565 S
Sm41 O69 2.464 . S
Sm41 O70 2.396 . S
C42 Sm40 2.846 . S
C42 C43 1.505 1_554 S
C42 O60 1.261 1_554 S
C42 O61 1.242 . S
C43 C42 1.505 1_556 S
C43 C44 1.366 . S
C43 C48 1.375 1_556 S
C44 C43 1.366 . S
C44 C45 1.385 . S
C44 H72 0.930 . S
C45 C44 1.385 . S
C45 C46 1.395 . S
C45 H73 0.929 . S
C46 C45 1.395 . S
C46 C47 1.335 1_556 S
C47 C46 1.335 1_554 S
C47 C48 1.398 . S
C47 H74 0.930 . S
C48 C43 1.375 1_554 S
C48 C47 1.398 . S
C48 H75 0.929 . S
C49 O62 1.271 1_545 S
C49 O63 1.251 . S
C50 O64 1.252 . S
C50 O65 1.272 1_554 S
C51 Sm41 2.846 . S
C51 C52 1.504 1_556 S
C51 O66 1.261 1_556 S
C51 O67 1.242 . S
C52 C51 1.504 1_554 S
C52 C53 1.370 . S
C52 C57 1.372 1_554 S
C53 C52 1.370 . S
C53 C54 1.385 . S
C53 H76 0.930 . S
C54 C53 1.385 . S
C54 C55 1.395 . S
C54 H77 0.929 . S
C55 C54 1.395 . S
C55 C56 1.335 1_554 S
C56 C55 1.335 1_556 S
C56 C57 1.398 . S
C56 H78 0.930 . S
C57 C52 1.372 1_556 S
C57 C56 1.398 . S
C57 H79 0.929 . S
C58 O68 1.271 1_565 S
C58 O69 1.251 . S
C59 O70 1.252 . S
C59 O71 1.272 1_556 S
O60 Sm40 2.543 1_556 S
O60 C42 1.261 1_556 S
O61 Sm40 2.450 . S
O61 C42 1.242 . S
O62 Sm40 2.681 1_565 S
O62 Sm41 2.386 1_554 S
O62 C49 1.271 1_565 S
O63 Sm40 2.464 . S
O63 C49 1.251 . S
O64 Sm40 2.396 . S
O64 C50 1.252 . S
O65 Sm41 2.408 1_545 S
O65 C50 1.272 1_556 S
O66 Sm41 2.543 1_554 S
O66 C51 1.261 1_554 S
O67 Sm41 2.450 . S
O67 C51 1.242 . S
O68 Sm40 2.386 1_556 S
O68 Sm41 2.681 1_545 S
O68 C58 1.271 1_545 S
O69 Sm41 2.464 . S
O69 C58 1.251 . S
O70 Sm41 2.396 . S
O70 C59 1.252 . S
O71 Sm40 2.408 1_565 S
O71 C59 1.272 1_554 S
H72 C44 0.930 . S
H73 C45 0.929 . S
H74 C47 0.930 . S
H75 C48 0.929 . S
H76 C53 0.930 . S
H77 C54 0.929 . S
H78 C56 0.930 . S
H79 C57 0.929 . S
Sm80 C82 2.846 . S
Sm80 O100 2.543 1_554 S
Sm80 O101 2.450 . S
Sm80 O102 2.681 . S
Sm80 O103 2.464 . S
Sm80 O104 2.396 . S
Sm80 O108 2.386 1_554 S
Sm80 O111 2.408 . S
Sm81 C91 2.846 . S
Sm81 O102 2.386 1_556 S
Sm81 O105 2.408 . S
Sm81 O106 2.543 1_556 S
Sm81 O107 2.450 . S
Sm81 O108 2.681 . S
Sm81 O109 2.464 . S
Sm81 O110 2.396 . S
C82 Sm80 2.846 . S
C82 C83 1.506 . S
C82 O100 1.261 1_554 S
C82 O101 1.242 . S
C83 C82 1.506 . S
C83 C84 1.358 1_554 S
C83 C88 1.382 . S
C84 C83 1.358 1_556 S
C84 C85 1.385 . S
C84 H112 0.930 . S
C85 C84 1.385 . S
C85 C86 1.395 1_556 S
C85 H113 0.929 . S
C86 C85 1.395 1_554 S
C86 C87 1.335 . S
C87 C86 1.335 . S
C87 C88 1.398 . S
C87 H114 0.930 . S
C88 C83 1.382 . S
C88 C87 1.398 . S
C88 H115 0.929 . S
C89 O102 1.271 . S
C89 O103 1.251 . S
C90 O104 1.252 . S
C90 O105 1.272 1_554 S
C91 Sm81 2.846 . S
C91 C92 1.506 . S
C91 O106 1.261 1_556 S
C91 O107 1.242 . S
C92 C91 1.506 . S
C92 C93 1.358 1_556 S
C92 C97 1.382 . S
C93 C92 1.358 1_554 S
C93 C94 1.385 . S
C93 H116 0.930 . S
C94 C93 1.385 . S
C94 C95 1.383 1_554 S
C94 H117 0.929 . S
C95 C94 1.383 1_556 S
C95 C96 1.348 . S
C96 C95 1.348 . S
C96 C97 1.398 . S
C96 H118 0.930 . S
C97 C92 1.382 . S
C97 C96 1.398 . S
C97 H119 0.929 . S
C98 O108 1.271 . S
C98 O109 1.251 . S
C99 O110 1.252 . S
C99 O111 1.272 1_556 S
O100 Sm80 2.543 1_556 S
O100 C82 1.261 1_556 S
O101 Sm80 2.450 . S
O101 C82 1.242 . S
O102 Sm80 2.681 . S
O102 Sm81 2.386 1_554 S
O102 C89 1.271 . S
O103 Sm80 2.464 . S
O103 C89 1.251 . S
O104 Sm80 2.396 . S
O104 C90 1.252 . S
O105 Sm81 2.408 . S
O105 C90 1.272 1_556 S
O106 Sm81 2.543 1_554 S
O106 C91 1.261 1_554 S
O107 Sm81 2.450 . S
O107 C91 1.242 . S
O108 Sm80 2.386 1_556 S
O108 Sm81 2.681 . S
O108 C98 1.271 . S
O109 Sm81 2.464 . S
O109 C98 1.251 . S
O110 Sm81 2.396 . S
O110 C99 1.252 . S
O111 Sm80 2.408 . S
O111 C99 1.272 1_554 S
H112 C84 0.930 . S
H113 C85 0.929 . S
H114 C87 0.930 . S
H115 C88 0.929 . S
H116 C93 0.930 . S
H117 C94 0.929 . S
H118 C96 0.930 . S
H119 C97 0.929 . S
H120 C138 0.951 . S
H121 C140 0.951 . S
H122 C142 0.950 . S
H123 C143 0.950 . S
H124 C145 0.950 . S
H125 C148 0.950 . S
H126 C149 0.950 . S
H127 C151 0.950 . S
H128 C152 0.950 . S
H129 C153 0.951 . S
H130 C155 0.951 . S
H131 C157 0.950 . S
H132 C158 0.950 . S
H133 C160 0.950 . S
H134 C163 0.950 . S
H135 C164 0.950 . S
H136 C166 0.950 . S
H137 C167 0.950 . S
C138 H120 0.951 . S
C138 C139 1.366 1_655 S
C138 C140 1.388 . S
C139 C138 1.366 1_455 S
C139 C143 1.385 . S
C140 H121 0.951 . S
C140 C138 1.388 . S
C140 C141 1.362 1_655 S
C141 C140 1.362 1_455 S
C141 C142 1.418 . S
C141 C144 1.499 . S
C142 H122 0.950 . S
C142 C141 1.418 . S
C142 C143 1.374 . S
C143 H123 0.950 . S
C143 C139 1.385 . S
C143 C142 1.374 . S
C144 C141 1.499 . S
C144 C145 1.374 . S
C144 C146 1.389 1_455 S
C145 H124 0.950 . S
C145 C144 1.374 . S
C145 C161 1.377 . S
C146 C144 1.389 1_655 S
C146 C147 1.524 . S
C146 C160 1.377 . S
C147 C146 1.524 . S
C147 C148 1.397 . S
C147 C152 1.363 . S
C148 H125 0.950 . S
C148 C147 1.397 . S
C148 C149 1.334 . S
C149 H126 0.950 . S
C149 C148 1.334 . S
C149 C150 1.287 . S
C150 C149 1.287 . S
C150 C151 1.524 . S
C150 H169 0.913 . S
C151 H127 0.950 . S
C151 C150 1.524 . S
C151 C152 1.415 . S
C152 H128 0.950 . S
C152 C147 1.363 . S
C152 C151 1.415 . S
C153 H129 0.951 . S
C153 C154 1.361 1_455 S
C153 C155 1.388 . S
C154 C153 1.361 1_655 S
C154 C158 1.390 . S
C155 H130 0.951 . S
C155 C153 1.388 . S
C155 C156 1.366 . S
C156 C155 1.366 . S
C156 C157 1.414 1_455 S
C156 C159 1.499 . S
C157 H131 0.950 . S
C157 C156 1.414 1_655 S
C157 C158 1.374 . S
C158 H132 0.950 . S
C158 C154 1.390 . S
C158 C157 1.374 . S
C159 C156 1.499 . S
C159 C160 1.373 1_455 S
C159 C161 1.389 . S
C160 H133 0.950 . S
C160 C146 1.377 . S
C160 C159 1.373 1_655 S
C161 C145 1.377 . S
C161 C159 1.389 . S
C161 C162 1.524 . S
C162 C161 1.524 . S
C162 C163 1.397 . S
C162 C167 1.363 . S
C163 H134 0.950 . S
C163 C162 1.397 . S
C163 C164 1.334 . S
C164 H135 0.950 . S
C164 C163 1.334 . S
C164 C165 1.287 . S
C165 C164 1.287 . S
C165 C166 1.524 . S
C165 H168 0.999 . S
C166 H136 0.950 . S
C166 C165 1.524 . S
C166 C167 1.415 . S
C167 H137 0.950 . S
C167 C162 1.363 . S
C167 C166 1.415 . S
H168 C165 0.999 . S
H169 C150 0.913 . S
H170 C188 0.951 . S
H171 C190 0.951 . S
H172 C192 0.950 . S
H173 C193 0.950 . S
H174 C195 0.950 . S
H175 C198 0.950 . S
H176 C199 0.950 . S
H177 C201 0.950 . S
H178 C202 0.950 . S
H179 C203 0.951 . S
H180 C205 0.951 . S
H181 C207 0.950 . S
H182 C208 0.950 . S
H183 C210 0.950 . S
H184 C213 0.950 . S
H185 C214 0.950 . S
H186 C216 0.950 . S
H187 C217 0.950 . S
C188 H170 0.951 . S
C188 C189 1.371 . S
C188 C190 1.388 . S
C189 C188 1.371 . S
C189 C193 1.378 1_545 S
C190 H171 0.951 . S
C190 C188 1.388 . S
C190 C191 1.366 . S
C191 C190 1.366 . S
C191 C192 1.414 1_545 S
C191 C194 1.499 . S
C192 H172 0.950 . S
C192 C191 1.414 1_565 S
C192 C193 1.374 . S
C193 H173 0.950 . S
C193 C189 1.378 1_565 S
C193 C192 1.374 . S
C194 C191 1.499 . S
C194 C195 1.373 1_545 S
C194 C196 1.389 . S
C195 H174 0.950 . S
C195 C194 1.373 1_565 S
C195 C211 1.377 . S
C196 C194 1.389 . S
C196 C197 1.524 . S
C196 C210 1.377 . S
C197 C196 1.524 . S
C197 C198 1.397 . S
C197 C202 1.363 . S
C198 H175 0.950 . S
C198 C197 1.397 . S
C198 C199 1.334 . S
C199 H176 0.950 . S
C199 C198 1.334 . S
C199 C200 1.287 . S
C200 C199 1.287 . S
C200 C201 1.524 . S
C200 H219 0.913 . S
C201 H177 0.950 . S
C201 C200 1.524 . S
C201 C202 1.415 . S
C202 H178 0.950 . S
C202 C197 1.363 . S
C202 C201 1.415 . S
C203 H179 0.951 . S
C203 C204 1.368 . S
C203 C205 1.388 . S
C204 C203 1.368 . S
C204 C208 1.382 1_565 S
C205 H180 0.951 . S
C205 C203 1.388 . S
C205 C206 1.366 . S
C206 C205 1.366 . S
C206 C207 1.414 1_565 S
C206 C209 1.499 . S
C207 H181 0.950 . S
C207 C206 1.414 1_545 S
C207 C208 1.374 . S
C208 H182 0.950 . S
C208 C204 1.382 1_545 S
C208 C207 1.374 . S
C209 C206 1.499 . S
C209 C210 1.373 1_565 S
C209 C211 1.389 . S
C210 H183 0.950 . S
C210 C196 1.377 . S
C210 C209 1.373 1_545 S
C211 C195 1.377 . S
C211 C209 1.389 . S
C211 C212 1.524 . S
C212 C211 1.524 . S
C212 C213 1.397 . S
C212 C217 1.363 . S
C213 H184 0.950 . S
C213 C212 1.397 . S
C213 C214 1.334 . S
C214 H185 0.950 . S
C214 C213 1.334 . S
C214 C215 1.287 . S
C215 C214 1.287 . S
C215 C216 1.524 . S
C215 H218 0.999 . S
C216 H186 0.950 . S
C216 C215 1.524 . S
C216 C217 1.415 . S
C217 H187 0.950 . S
C217 C212 1.363 . S
C217 C216 1.415 . S
H218 C215 0.999 . S
H219 C200 0.913 . S
H220 C238 0.951 . S
H221 C240 0.951 . S
H222 C242 0.950 . S
H223 C243 0.950 . S
H224 C245 0.950 . S
H225 C248 0.950 . S
H226 C249 0.950 . S
H227 C251 0.950 . S
H228 C252 0.950 . S
H229 C253 0.951 . S
H230 C255 0.951 . S
H231 C257 0.950 . S
H232 C258 0.950 . S
H233 C260 0.950 . S
H234 C263 0.950 . S
H235 C264 0.950 . S
H236 C266 0.950 . S
H237 C267 0.950 . S
C238 H220 0.951 . S
C238 C239 1.366 . S
C238 C240 1.388 . S
C239 C238 1.366 . S
C239 C243 1.385 . S
C240 H221 0.951 . S
C240 C238 1.388 . S
C240 C241 1.366 . S
C241 C240 1.366 . S
C241 C242 1.414 . S
C241 C244 1.499 . S
C242 H222 0.950 . S
C242 C241 1.414 . S
C242 C243 1.374 . S
C243 H223 0.950 . S
C243 C239 1.385 . S
C243 C242 1.374 . S
C244 C241 1.499 . S
C244 C245 1.373 . S
C244 C246 1.389 . S
C245 H224 0.950 . S
C245 C244 1.373 . S
C245 C261 1.377 . S
C246 C244 1.389 . S
C246 C247 1.524 . S
C246 C260 1.377 . S
C247 C246 1.524 . S
C247 C248 1.397 . S
C247 C252 1.363 . S
C248 H225 0.950 . S
C248 C247 1.397 . S
C248 C249 1.334 . S
C249 H226 0.950 . S
C249 C248 1.334 . S
C249 C250 1.287 . S
C250 C249 1.287 . S
C250 C251 1.524 . S
C250 H269 0.913 . S
C251 H227 0.950 . S
C251 C250 1.524 . S
C251 C252 1.415 . S
C252 H228 0.950 . S
C252 C247 1.363 . S
C252 C251 1.415 . S
C253 H229 0.951 . S
C253 C254 1.366 . S
C253 C255 1.388 . S
C254 C253 1.366 . S
C254 C258 1.385 . S
C255 H230 0.951 . S
C255 C253 1.388 . S
C255 C256 1.366 . S
C256 C255 1.366 . S
C256 C257 1.414 . S
C256 C259 1.499 . S
C257 H231 0.950 . S
C257 C256 1.414 . S
C257 C258 1.374 . S
C258 H232 0.950 . S
C258 C254 1.385 . S
C258 C257 1.374 . S
C259 C256 1.499 . S
C259 C260 1.373 . S
C259 C261 1.389 . S
C260 H233 0.950 . S
C260 C246 1.377 . S
C260 C259 1.373 . S
C261 C245 1.377 . S
C261 C259 1.389 . S
C261 C262 1.524 . S
C262 C261 1.524 . S
C262 C263 1.397 . S
C262 C267 1.363 . S
C263 H234 0.950 . S
C263 C262 1.397 . S
C263 C264 1.334 . S
C264 H235 0.950 . S
C264 C263 1.334 . S
C264 C265 1.287 . S
C265 C264 1.287 . S
C265 C266 1.524 . S
C265 H268 0.999 . S
C266 H236 0.950 . S
C266 C265 1.524 . S
C266 C267 1.415 . S
C267 H237 0.950 . S
C267 C262 1.363 . S
C267 C266 1.415 . S
H268 C265 0.999 . S
H269 C250 0.913 . S
H270 C288 0.951 . S
H271 C290 0.951 . S
H272 C292 0.950 . S
H273 C293 0.950 . S
H274 C295 0.950 . S
H275 C298 0.950 . S
H276 C299 0.950 . S
H277 C301 0.950 . S
H278 C302 0.950 . S
H279 C303 0.951 . S
H280 C305 0.951 . S
H281 C307 0.950 . S
H282 C308 0.950 . S
H283 C310 0.950 . S
H284 C313 0.950 . S
H285 C314 0.950 . S
H286 C316 0.950 . S
H287 C317 0.950 1_556 S
C288 H270 0.951 . S
C288 C289 1.366 1_554 S
C288 C290 1.388 . S
C289 C288 1.366 1_556 S
C289 C293 1.385 . S
C290 H271 0.951 . S
C290 C288 1.388 . S
C290 C291 1.366 1_554 S
C291 C290 1.366 1_556 S
C291 C292 1.414 . S
C291 C294 1.499 . S
C292 H272 0.950 . S
C292 C291 1.414 . S
C292 C293 1.374 . S
C293 H273 0.950 . S
C293 C289 1.385 . S
C293 C292 1.374 . S
C294 C291 1.499 . S
C294 C295 1.373 1_556 S
C294 C296 1.389 . S
C295 H274 0.950 . S
C295 C294 1.373 1_554 S
C295 C311 1.377 . S
C296 C294 1.389 . S
C296 C297 1.524 . S
C296 C310 1.377 . S
C297 C296 1.524 . S
C297 C298 1.397 . S
C297 C302 1.363 . S
C298 H275 0.950 . S
C298 C297 1.397 . S
C298 C299 1.334 . S
C299 H276 0.950 . S
C299 C298 1.334 . S
C299 C300 1.287 . S
C300 C299 1.287 . S
C300 C301 1.524 . S
C300 H319 0.913 . S
C301 H277 0.950 . S
C301 C300 1.524 . S
C301 C302 1.415 . S
C302 H278 0.950 . S
C302 C297 1.363 . S
C302 C301 1.415 . S
C303 H279 0.951 . S
C303 C304 1.366 . S
C303 C305 1.388 . S
C304 C303 1.366 . S
C304 C308 1.385 1_556 S
C305 H280 0.951 . S
C305 C303 1.388 . S
C305 C306 1.366 . S
C306 C305 1.366 . S
C306 C307 1.414 1_556 S
C306 C309 1.499 . S
C307 H281 0.950 . S
C307 C306 1.414 1_554 S
C307 C308 1.374 . S
C308 H282 0.950 . S
C308 C304 1.385 1_554 S
C308 C307 1.374 . S
C309 C306 1.499 . S
C309 C310 1.373 . S
C309 C311 1.390 1_556 S
C310 H283 0.950 . S
C310 C296 1.377 . S
C310 C309 1.373 . S
C311 C295 1.377 . S
C311 C309 1.390 1_554 S
C311 C312 1.524 . S
C312 C311 1.524 . S
C312 C313 1.397 . S
C312 C317 1.363 . S
C313 H284 0.950 . S
C313 C312 1.397 . S
C313 C314 1.334 . S
C314 H285 0.950 . S
C314 C313 1.334 . S
C314 C315 1.287 . S
C315 C314 1.287 . S
C315 C316 1.524 . S
C315 H318 0.999 . S
C316 H286 0.950 . S
C316 C315 1.524 . S
C316 C317 1.415 . S
C317 H287 0.950 1_554 S
C317 C312 1.363 . S
C317 C316 1.415 . S
H318 C315 0.999 . S
H319 C300 0.913 . S
H320 C338 0.951 . S
H321 C340 0.951 . S
H322 C342 0.950 . S
H323 C343 0.950 . S
H324 C345 0.950 . S
H325 C348 0.950 . S
H326 C349 0.950 . S
H327 C351 0.950 . S
H328 C352 0.950 . S
H329 C353 0.951 . S
H330 C355 0.951 . S
H331 C357 0.950 . S
H332 C358 0.950 . S
H333 C360 0.950 . S
H334 C363 0.950 . S
H335 C364 0.950 . S
H336 C366 0.950 . S
H337 C367 0.950 . S
C338 H320 0.951 . S
C338 C339 1.366 . S
C338 C340 1.388 . S
C339 C338 1.366 . S
C339 C343 1.385 1_556 S
C340 H321 0.951 . S
C340 C338 1.388 . S
C340 C341 1.366 . S
C341 C340 1.366 . S
C341 C342 1.414 1_556 S
C341 C344 1.499 1_556 S
C342 H322 0.950 . S
C342 C341 1.414 1_554 S
C342 C343 1.374 . S
C343 H323 0.950 . S
C343 C339 1.385 1_554 S
C343 C342 1.374 . S
C344 C341 1.499 1_554 S
C344 C345 1.374 . S
C344 C346 1.388 1_554 S
C345 H324 0.950 . S
C345 C344 1.374 . S
C345 C361 1.377 . S
C346 C344 1.388 1_556 S
C346 C347 1.524 . S
C346 C360 1.377 . S
C347 C346 1.524 . S
C347 C348 1.397 1_556 S
C347 C352 1.363 . S
C348 H325 0.950 . S
C348 C347 1.397 1_554 S
C348 C349 1.334 . S
C349 H326 0.950 . S
C349 C348 1.334 . S
C349 C350 1.287 1_554 S
C350 C349 1.287 1_556 S
C350 C351 1.524 . S
C350 H369 0.913 . S
C351 H327 0.950 . S
C351 C350 1.524 . S
C351 C352 1.415 . S
C352 H328 0.950 . S
C352 C347 1.363 . S
C352 C351 1.415 . S
C353 H329 0.951 . S
C353 C354 1.366 1_554 S
C353 C355 1.388 . S
C354 C353 1.366 1_556 S
C354 C358 1.385 . S
C355 H330 0.951 . S
C355 C353 1.388 . S
C355 C356 1.366 1_554 S
C356 C355 1.366 1_556 S
C356 C357 1.414 . S
C356 C359 1.499 . S
C357 H331 0.950 . S
C357 C356 1.414 . S
C357 C358 1.374 . S
C358 H332 0.950 . S
C358 C354 1.385 . S
C358 C357 1.374 . S
C359 C356 1.499 . S
C359 C360 1.373 . S
C359 C361 1.389 1_556 S
C360 H333 0.950 . S
C360 C346 1.377 . S
C360 C359 1.373 . S
C361 C345 1.377 . S
C361 C359 1.389 1_554 S
C361 C362 1.524 . S
C362 C361 1.524 . S
C362 C363 1.397 1_554 S
C362 C367 1.363 . S
C363 H334 0.950 . S
C363 C362 1.397 1_556 S
C363 C364 1.334 . S
C364 H335 0.950 . S
C364 C363 1.334 . S
C364 C365 1.287 1_556 S
C365 C364 1.287 1_554 S
C365 C366 1.524 . S
C365 H368 0.999 . S
C366 H336 0.950 . S
C366 C365 1.524 . S
C366 C367 1.415 . S
C367 H337 0.950 . S
C367 C362 1.363 . S
C367 C366 1.415 . S
H368 C365 0.999 . S
H369 C350 0.913 . S
H370 C388 0.951 . S
H371 C390 0.951 . S
H372 C392 0.950 . S
H373 C393 0.950 . S
H374 C395 0.950 . S
H375 C398 0.950 . S
H376 C399 0.950 . S
H377 C401 0.950 . S
H378 C402 0.950 . S
H379 C403 0.951 . S
H380 C405 0.951 . S
H381 C407 0.950 . S
H382 C408 0.950 . S
H383 C410 0.950 . S
H384 C413 0.950 . S
H385 C414 0.950 . S
H386 C416 0.950 . S
H387 C417 0.950 . S
C388 H370 0.951 . S
C388 C389 1.366 . S
C388 C390 1.388 . S
C389 C388 1.366 . S
C389 C393 1.385 1_556 S
C390 H371 0.951 . S
C390 C388 1.388 . S
C390 C391 1.366 1_556 S
C391 C390 1.366 1_554 S
C391 C392 1.414 . S
C391 C394 1.499 . S
C392 H372 0.950 . S
C392 C391 1.414 . S
C392 C393 1.374 . S
C393 H373 0.950 . S
C393 C389 1.385 1_554 S
C393 C392 1.374 . S
C394 C391 1.499 . S
C394 C395 1.373 1_554 S
C394 C396 1.389 . S
C395 H374 0.950 . S
C395 C394 1.373 1_556 S
C395 C411 1.377 . S
C396 C394 1.389 . S
C396 C397 1.524 . S
C396 C410 1.377 . S
C397 C396 1.524 . S
C397 C398 1.397 . S
C397 C402 1.363 . S
C398 H375 0.950 . S
C398 C397 1.397 . S
C398 C399 1.334 . S
C399 H376 0.950 . S
C399 C398 1.334 . S
C399 C400 1.287 . S
C400 C399 1.287 . S
C400 C401 1.524 . S
C400 H419 0.913 . S
C401 H377 0.950 . S
C401 C400 1.524 . S
C401 C402 1.415 . S
C402 H378 0.950 . S
C402 C397 1.363 . S
C402 C401 1.415 . S
C403 H379 0.951 . S
C403 C404 1.365 1_554 S
C403 C405 1.388 . S
C404 C403 1.365 1_556 S
C404 C408 1.386 . S
C405 H380 0.951 . S
C405 C403 1.388 . S
C405 C406 1.366 1_554 S
C406 C405 1.366 1_556 S
C406 C407 1.414 . S
C406 C409 1.499 . S
C407 H381 0.950 . S
C407 C406 1.414 . S
C407 C408 1.374 . S
C408 H382 0.950 . S
C408 C404 1.386 . S
C408 C407 1.374 . S
C409 C406 1.499 . S
C409 C410 1.373 1_556 S
C409 C411 1.389 . S
C410 H383 0.950 . S
C410 C396 1.377 . S
C410 C409 1.373 1_554 S
C411 C395 1.377 . S
C411 C409 1.389 . S
C411 C412 1.524 . S
C412 C411 1.524 . S
C412 C413 1.397 . S
C412 C417 1.363 . S
C413 H384 0.950 . S
C413 C412 1.397 . S
C413 C414 1.334 . S
C414 H385 0.950 . S
C414 C413 1.334 . S
C414 C415 1.287 . S
C415 C414 1.287 . S
C415 C416 1.524 . S
C415 H418 0.999 . S
C416 H386 0.950 . S
C416 C415 1.524 . S
C416 C417 1.415 . S
C417 H387 0.950 . S
C417 C412 1.363 . S
C417 C416 1.415 . S
H418 C415 0.999 . S
H419 C400 0.913 . S
H420 C438 0.951 . S
H421 C440 0.951 . S
H422 C442 0.950 . S
H423 C443 0.950 . S
H424 C445 0.950 . S
H425 C448 0.950 . S
H426 C449 0.950 . S
H427 C451 0.950 . S
H428 C452 0.950 . S
H429 C453 0.951 . S
H430 C455 0.951 . S
H431 C457 0.950 . S
H432 C458 0.950 . S
H433 C460 0.950 . S
H434 C463 0.950 . S
H435 C464 0.950 . S
H436 C466 0.950 . S
H437 C467 0.950 . S
C438 H420 0.951 . S
C438 C439 1.366 . S
C438 C440 1.388 . S
C439 C438 1.366 . S
C439 C443 1.385 1_554 S
C440 H421 0.951 . S
C440 C438 1.388 . S
C440 C441 1.366 . S
C441 C440 1.366 . S
C441 C442 1.414 1_554 S
C441 C444 1.499 . S
C442 H422 0.950 . S
C442 C441 1.414 1_556 S
C442 C443 1.374 . S
C443 H423 0.950 . S
C443 C439 1.385 1_556 S
C443 C442 1.374 . S
C444 C441 1.499 . S
C444 C445 1.373 1_554 S
C444 C446 1.389 . S
C445 H424 0.950 . S
C445 C444 1.373 1_556 S
C445 C461 1.377 . S
C446 C444 1.389 . S
C446 C447 1.524 . S
C446 C460 1.377 . S
C447 C446 1.524 . S
C447 C448 1.397 . S
C447 C452 1.363 . S
C448 H425 0.950 . S
C448 C447 1.397 . S
C448 C449 1.334 . S
C449 H426 0.950 . S
C449 C448 1.334 . S
C449 C450 1.287 . S
C450 C449 1.287 . S
C450 C451 1.524 . S
C450 H469 0.913 . S
C451 H427 0.950 . S
C451 C450 1.524 . S
C451 C452 1.415 . S
C452 H428 0.950 . S
C452 C447 1.363 . S
C452 C451 1.415 . S
C453 H429 0.951 . S
C453 C454 1.366 1_556 S
C453 C455 1.388 . S
C454 C453 1.366 1_554 S
C454 C458 1.385 . S
C455 H430 0.951 . S
C455 C453 1.388 . S
C455 C456 1.366 1_556 S
C456 C455 1.366 1_554 S
C456 C457 1.414 . S
C456 C459 1.499 . S
C457 H431 0.950 . S
C457 C456 1.414 . S
C457 C458 1.374 . S
C458 H432 0.950 . S
C458 C454 1.385 . S
C458 C457 1.374 . S
C459 C456 1.499 . S
C459 C460 1.373 . S
C459 C461 1.389 1_554 S
C460 H433 0.950 . S
C460 C446 1.377 . S
C460 C459 1.373 . S
C461 C445 1.377 . S
C461 C459 1.389 1_556 S
C461 C462 1.524 . S
C462 C461 1.524 . S
C462 C463 1.397 . S
C462 C467 1.363 . S
C463 H434 0.950 . S
C463 C462 1.397 . S
C463 C464 1.334 . S
C464 H435 0.950 . S
C464 C463 1.334 . S
C464 C465 1.287 . S
C465 C464 1.287 . S
C465 C466 1.524 . S
C465 H468 0.999 . S
C466 H436 0.950 . S
C466 C465 1.524 . S
C466 C467 1.415 . S
C467 H437 0.950 . S
C467 C462 1.363 . S
C467 C466 1.415 . S
H468 C465 0.999 . S
H469 C450 0.913 . S
H470 C488 0.951 . S
H471 C490 0.951 . S
H472 C492 0.950 . S
H473 C493 0.950 . S
H474 C495 0.950 . S
H475 C498 0.950 . S
H476 C499 0.950 . S
H477 C501 0.950 . S
H478 C502 0.950 . S
H479 C503 0.951 . S
H480 C505 0.951 . S
H481 C507 0.950 . S
H482 C508 0.950 . S
H483 C510 0.950 . S
H484 C513 0.950 . S
H485 C514 0.950 . S
H486 C516 0.950 . S
H487 C517 0.950 . S
C488 H470 0.951 . S
C488 C489 1.366 1_556 S
C488 C490 1.388 . S
C489 C488 1.366 1_554 S
C489 C493 1.385 . S
C490 H471 0.951 . S
C490 C488 1.388 . S
C490 C491 1.366 1_556 S
C491 C490 1.366 1_554 S
C491 C492 1.414 . S
C491 C494 1.499 . S
C492 H472 0.950 . S
C492 C491 1.414 . S
C492 C493 1.374 . S
C493 H473 0.950 . S
C493 C489 1.385 . S
C493 C492 1.374 . S
C494 C491 1.499 . S
C494 C495 1.373 . S
C494 C496 1.389 1_554 S
C495 H474 0.950 . S
C495 C494 1.373 . S
C495 C511 1.377 . S
C496 C494 1.389 1_556 S
C496 C497 1.524 . S
C496 C510 1.377 . S
C497 C496 1.524 . S
C497 C498 1.397 1_556 S
C497 C502 1.363 . S
C498 H475 0.950 . S
C498 C497 1.397 1_554 S
C498 C499 1.334 . S
C499 H476 0.950 . S
C499 C498 1.334 . S
C499 C500 1.287 . S
C500 C499 1.287 . S
C500 C501 1.524 1_554 S
C500 H519 0.913 . S
C501 H477 0.950 . S
C501 C500 1.524 1_556 S
C501 C502 1.415 . S
C502 H478 0.950 . S
C502 C497 1.363 . S
C502 C501 1.415 . S
C503 H479 0.951 . S
C503 C504 1.366 . S
C503 C505 1.388 . S
C504 C503 1.366 . S
C504 C508 1.385 1_554 S
C505 H480 0.951 . S
C505 C503 1.388 . S
C505 C506 1.366 . S
C506 C505 1.366 . S
C506 C507 1.414 1_554 S
C506 C509 1.499 1_554 S
C507 H481 0.950 . S
C507 C506 1.414 1_556 S
C507 C508 1.374 . S
C508 H482 0.950 . S
C508 C504 1.385 1_556 S
C508 C507 1.374 . S
C509 C506 1.499 1_556 S
C509 C510 1.374 . S
C509 C511 1.388 1_556 S
C510 H483 0.950 . S
C510 C496 1.377 . S
C510 C509 1.374 . S
C511 C495 1.377 . S
C511 C509 1.388 1_554 S
C511 C512 1.524 . S
C512 C511 1.524 . S
C512 C513 1.397 1_554 S
C512 C517 1.363 . S
C513 H484 0.950 . S
C513 C512 1.397 1_556 S
C513 C514 1.334 . S
C514 H485 0.950 . S
C514 C513 1.334 . S
C514 C515 1.287 1_556 S
C515 C514 1.287 1_554 S
C515 C516 1.524 . S
C515 H518 0.999 . S
C516 H486 0.950 . S
C516 C515 1.524 . S
C516 C517 1.415 . S
C517 H487 0.950 . S
C517 C512 1.363 . S
C517 C516 1.415 . S
H518 C515 0.999 . S
H519 C500 0.913 . S
H520 C538 0.951 . S
H521 C540 0.951 . S
H522 C542 0.950 . S
H523 C543 0.950 . S
H524 C545 0.950 . S
H525 C548 0.950 . S
H526 C549 0.950 . S
H527 C551 0.950 . S
H528 C552 0.950 . S
H529 C553 0.951 . S
H530 C555 0.951 . S
H531 C557 0.950 . S
H532 C558 0.950 . S
H533 C560 0.950 . S
H534 C563 0.950 . S
H535 C564 0.950 . S
H536 C566 0.950 . S
H537 C567 0.950 . S
C538 H520 0.951 . S
C538 C539 1.358 1_556 S
C538 C540 1.388 . S
C539 C538 1.358 1_554 S
C539 C543 1.394 . S
C540 H521 0.951 . S
C540 C538 1.388 . S
C540 C541 1.366 1_556 S
C541 C540 1.366 1_554 S
C541 C542 1.414 . S
C541 C544 1.499 . S
C542 H522 0.950 . S
C542 C541 1.414 . S
C542 C543 1.374 . S
C543 H523 0.950 . S
C543 C539 1.394 . S
C543 C542 1.374 . S
C544 C541 1.499 . S
C544 C545 1.373 . S
C544 C546 1.389 1_554 S
C545 H524 0.950 . S
C545 C544 1.373 . S
C545 C561 1.377 . S
C546 C544 1.389 1_556 S
C546 C547 1.524 . S
C546 C560 1.377 . S
C547 C546 1.524 . S
C547 C548 1.397 1_556 S
C547 C552 1.363 . S
C548 H525 0.950 . S
C548 C547 1.397 1_554 S
C548 C549 1.334 . S
C549 H526 0.950 . S
C549 C548 1.334 . S
C549 C550 1.287 1_554 S
C550 C549 1.287 1_556 S
C550 C551 1.524 . S
C550 H569 0.913 . S
C551 H527 0.950 . S
C551 C550 1.524 . S
C551 C552 1.415 . S
C552 H528 0.950 . S
C552 C547 1.363 . S
C552 C551 1.415 . S
C553 H529 0.951 . S
C553 C554 1.366 . S
C553 C555 1.388 . S
C554 C553 1.366 . S
C554 C558 1.385 1_554 S
C555 H530 0.951 . S
C555 C553 1.388 . S
C555 C556 1.365 . S
C556 C555 1.365 . S
C556 C557 1.414 1_554 S
C556 C559 1.499 1_554 S
C557 H531 0.950 . S
C557 C556 1.414 1_556 S
C557 C558 1.374 . S
C558 H532 0.950 . S
C558 C554 1.385 1_556 S
C558 C557 1.374 . S
C559 C556 1.499 1_556 S
C559 C560 1.373 . S
C559 C561 1.389 1_556 S
C560 H533 0.950 . S
C560 C546 1.377 . S
C560 C559 1.373 . S
C561 C545 1.377 . S
C561 C559 1.389 1_554 S
C561 C562 1.524 . S
C562 C561 1.524 . S
C562 C563 1.397 1_554 S
C562 C567 1.363 . S
C563 H534 0.950 . S
C563 C562 1.397 1_556 S
C563 C564 1.334 . S
C564 H535 0.950 . S
C564 C563 1.334 . S
C564 C565 1.287 1_556 S
C565 C564 1.287 1_554 S
C565 C566 1.524 . S
C565 H568 0.999 . S
C566 H536 0.950 . S
C566 C565 1.524 . S
C566 C567 1.415 . S
C567 H537 0.950 . S
C567 C562 1.363 . S
C567 C566 1.415 . S
H568 C565 0.999 . S
H569 C550 0.913 . S
C139 C9 1.456 . S
C154 C18 1.455 1_655 S
C189 C49 1.454 . S
C204 C58 1.453 . S
C239 C98 1.457 . S
C254 C89 1.457 . S
C289 C19 2.608 1_556 S
C304 C90 2.578 1_556 S
C339 C46 0.878 . S
C354 C6 0.876 . S
C389 C59 1.931 . S
C404 C86 1.903 1_556 S
C439 C10 2.608 1_554 S
C454 C99 2.578 1_554 S
C489 C15 0.877 . S
C504 C55 0.878 . S
C539 C95 1.901 1_554 S
C554 C50 1.931 . S
