# Generated by pormake.
# Topology uoa, (4)-cn, num edge types: 1
# Building blocks:
#     Node 0, Type 0, BuildingBlock: KOZSID_clean_sbu_0, # of connection points: 4
#     Node 1, Type 0, BuildingBlock: KOZSID_clean_sbu_0, # of connection points: 4
#     Node 2, Type 0, BuildingBlock: KOZSID_clean_sbu_0, # of connection points: 4
#     Node 3, Type 0, BuildingBlock: KOZSID_clean_sbu_0, # of connection points: 4
#     Node 4, Type 0, BuildingBlock: KOZSID_clean_sbu_0, # of connection points: 4
#     Node 5, Type 0, BuildingBlock: KOZSID_clean_sbu_0, # of connection points: 4
#     Node 6, Type 0, BuildingBlock: KOZSID_clean_sbu_0, # of connection points: 4
#     Node 7, Type 0, BuildingBlock: KOZSID_clean_sbu_0, # of connection points: 4
#     Node 8, Type 0, BuildingBlock: KOZSID_clean_sbu_0, # of connection points: 4
#     Node 9, Type 0, BuildingBlock: KOZSID_clean_sbu_0, # of connection points: 4
#     Node 10, Type 0, BuildingBlock: KOZSID_clean_sbu_0, # of connection points: 4
#     Node 11, Type 0, BuildingBlock: KOZSID_clean_sbu_0, # of connection points: 4
#     Node 12, Type 0, BuildingBlock: KOZSID_clean_sbu_0, # of connection points: 4
#     Node 13, Type 0, BuildingBlock: KOZSID_clean_sbu_0, # of connection points: 4
#     Node 14, Type 0, BuildingBlock: KOZSID_clean_sbu_0, # of connection points: 4
#     Node 15, Type 0, BuildingBlock: KOZSID_clean_sbu_0, # of connection points: 4
#     Node 16, Type 0, BuildingBlock: KOZSID_clean_sbu_0, # of connection points: 4
#     Node 17, Type 0, BuildingBlock: KOZSID_clean_sbu_0, # of connection points: 4
#     Node 18, Type 0, BuildingBlock: KOZSID_clean_sbu_0, # of connection points: 4
#     Node 19, Type 0, BuildingBlock: KOZSID_clean_sbu_0, # of connection points: 4
#     Node 20, Type 0, BuildingBlock: KOZSID_clean_sbu_0, # of connection points: 4
#     Node 21, Type 0, BuildingBlock: KOZSID_clean_sbu_0, # of connection points: 4
#     Node 22, Type 0, BuildingBlock: KOZSID_clean_sbu_0, # of connection points: 4
#     Node 23, Type 0, BuildingBlock: KOZSID_clean_sbu_0, # of connection points: 4
#     Node 24, Type 0, BuildingBlock: KOZSID_clean_sbu_0, # of connection points: 4
#     Node 25, Type 0, BuildingBlock: KOZSID_clean_sbu_0, # of connection points: 4
#     Node 26, Type 0, BuildingBlock: KOZSID_clean_sbu_0, # of connection points: 4
#     Node 27, Type 0, BuildingBlock: KOZSID_clean_sbu_0, # of connection points: 4
#     Node 28, Type 0, BuildingBlock: KOZSID_clean_sbu_0, # of connection points: 4
#     Node 29, Type 0, BuildingBlock: KOZSID_clean_sbu_0, # of connection points: 4
#     Node 30, Type 0, BuildingBlock: KOZSID_clean_sbu_0, # of connection points: 4
#     Node 31, Type 0, BuildingBlock: KOZSID_clean_sbu_0, # of connection points: 4
#     Edge 32, Type (0, 0), BuildingBlock: XUDNAN_clean_linker_2, # of connection points: 2
#     Edge 33, Type (0, 0), BuildingBlock: XUDNAN_clean_linker_2, # of connection points: 2
#     Edge 34, Type (0, 0), BuildingBlock: XUDNAN_clean_linker_2, # of connection points: 2
#     Edge 35, Type (0, 0), BuildingBlock: XUDNAN_clean_linker_2, # of connection points: 2
#     Edge 36, Type (0, 0), BuildingBlock: XUDNAN_clean_linker_2, # of connection points: 2
#     Edge 37, Type (0, 0), BuildingBlock: XUDNAN_clean_linker_2, # of connection points: 2
#     Edge 38, Type (0, 0), BuildingBlock: XUDNAN_clean_linker_2, # of connection points: 2
#     Edge 39, Type (0, 0), BuildingBlock: XUDNAN_clean_linker_2, # of connection points: 2
#     Edge 40, Type (0, 0), BuildingBlock: XUDNAN_clean_linker_2, # of connection points: 2
#     Edge 41, Type (0, 0), BuildingBlock: XUDNAN_clean_linker_2, # of connection points: 2
#     Edge 42, Type (0, 0), BuildingBlock: XUDNAN_clean_linker_2, # of connection points: 2
#     Edge 43, Type (0, 0), BuildingBlock: XUDNAN_clean_linker_2, # of connection points: 2
#     Edge 44, Type (0, 0), BuildingBlock: XUDNAN_clean_linker_2, # of connection points: 2
#     Edge 45, Type (0, 0), BuildingBlock: XUDNAN_clean_linker_2, # of connection points: 2
#     Edge 46, Type (0, 0), BuildingBlock: XUDNAN_clean_linker_2, # of connection points: 2
#     Edge 47, Type (0, 0), BuildingBlock: XUDNAN_clean_linker_2, # of connection points: 2
#     Edge 48, Type (0, 0), BuildingBlock: XUDNAN_clean_linker_2, # of connection points: 2
#     Edge 49, Type (0, 0), BuildingBlock: XUDNAN_clean_linker_2, # of connection points: 2
#     Edge 50, Type (0, 0), BuildingBlock: XUDNAN_clean_linker_2, # of connection points: 2
#     Edge 51, Type (0, 0), BuildingBlock: XUDNAN_clean_linker_2, # of connection points: 2
#     Edge 52, Type (0, 0), BuildingBlock: XUDNAN_clean_linker_2, # of connection points: 2
#     Edge 53, Type (0, 0), BuildingBlock: XUDNAN_clean_linker_2, # of connection points: 2
#     Edge 54, Type (0, 0), BuildingBlock: XUDNAN_clean_linker_2, # of connection points: 2
#     Edge 55, Type (0, 0), BuildingBlock: XUDNAN_clean_linker_2, # of connection points: 2
#     Edge 56, Type (0, 0), BuildingBlock: XUDNAN_clean_linker_2, # of connection points: 2
#     Edge 57, Type (0, 0), BuildingBlock: XUDNAN_clean_linker_2, # of connection points: 2
#     Edge 58, Type (0, 0), BuildingBlock: XUDNAN_clean_linker_2, # of connection points: 2
#     Edge 59, Type (0, 0), BuildingBlock: XUDNAN_clean_linker_2, # of connection points: 2
#     Edge 60, Type (0, 0), BuildingBlock: XUDNAN_clean_linker_2, # of connection points: 2
#     Edge 61, Type (0, 0), BuildingBlock: XUDNAN_clean_linker_2, # of connection points: 2
#     Edge 62, Type (0, 0), BuildingBlock: XUDNAN_clean_linker_2, # of connection points: 2
#     Edge 63, Type (0, 0), BuildingBlock: XUDNAN_clean_linker_2, # of connection points: 2
#     Edge 64, Type (0, 0), BuildingBlock: XUDNAN_clean_linker_2, # of connection points: 2
#     Edge 65, Type (0, 0), BuildingBlock: XUDNAN_clean_linker_2, # of connection points: 2
#     Edge 66, Type (0, 0), BuildingBlock: XUDNAN_clean_linker_2, # of connection points: 2
#     Edge 67, Type (0, 0), BuildingBlock: XUDNAN_clean_linker_2, # of connection points: 2
#     Edge 68, Type (0, 0), BuildingBlock: XUDNAN_clean_linker_2, # of connection points: 2
#     Edge 69, Type (0, 0), BuildingBlock: XUDNAN_clean_linker_2, # of connection points: 2
#     Edge 70, Type (0, 0), BuildingBlock: XUDNAN_clean_linker_2, # of connection points: 2
#     Edge 71, Type (0, 0), BuildingBlock: XUDNAN_clean_linker_2, # of connection points: 2
#     Edge 72, Type (0, 0), BuildingBlock: XUDNAN_clean_linker_2, # of connection points: 2
#     Edge 73, Type (0, 0), BuildingBlock: XUDNAN_clean_linker_2, # of connection points: 2
#     Edge 74, Type (0, 0), BuildingBlock: XUDNAN_clean_linker_2, # of connection points: 2
#     Edge 75, Type (0, 0), BuildingBlock: XUDNAN_clean_linker_2, # of connection points: 2
#     Edge 76, Type (0, 0), BuildingBlock: XUDNAN_clean_linker_2, # of connection points: 2
#     Edge 77, Type (0, 0), BuildingBlock: XUDNAN_clean_linker_2, # of connection points: 2
#     Edge 78, Type (0, 0), BuildingBlock: XUDNAN_clean_linker_2, # of connection points: 2
#     Edge 79, Type (0, 0), BuildingBlock: XUDNAN_clean_linker_2, # of connection points: 2
#     Edge 80, Type (0, 0), BuildingBlock: XUDNAN_clean_linker_2, # of connection points: 2
#     Edge 81, Type (0, 0), BuildingBlock: XUDNAN_clean_linker_2, # of connection points: 2
#     Edge 82, Type (0, 0), BuildingBlock: XUDNAN_clean_linker_2, # of connection points: 2
#     Edge 83, Type (0, 0), BuildingBlock: XUDNAN_clean_linker_2, # of connection points: 2
#     Edge 84, Type (0, 0), BuildingBlock: XUDNAN_clean_linker_2, # of connection points: 2
#     Edge 85, Type (0, 0), BuildingBlock: XUDNAN_clean_linker_2, # of connection points: 2
#     Edge 86, Type (0, 0), BuildingBlock: XUDNAN_clean_linker_2, # of connection points: 2
#     Edge 87, Type (0, 0), BuildingBlock: XUDNAN_clean_linker_2, # of connection points: 2
#     Edge 88, Type (0, 0), BuildingBlock: XUDNAN_clean_linker_2, # of connection points: 2
#     Edge 89, Type (0, 0), BuildingBlock: XUDNAN_clean_linker_2, # of connection points: 2
#     Edge 90, Type (0, 0), BuildingBlock: XUDNAN_clean_linker_2, # of connection points: 2
#     Edge 91, Type (0, 0), BuildingBlock: XUDNAN_clean_linker_2, # of connection points: 2
#     Edge 92, Type (0, 0), BuildingBlock: XUDNAN_clean_linker_2, # of connection points: 2
#     Edge 93, Type (0, 0), BuildingBlock: XUDNAN_clean_linker_2, # of connection points: 2
#     Edge 94, Type (0, 0), BuildingBlock: XUDNAN_clean_linker_2, # of connection points: 2
#     Edge 95, Type (0, 0), BuildingBlock: XUDNAN_clean_linker_2, # of connection points: 2
# Relax obj value: 0.028
# Max RMSD: 0.236
# Mean RMSD: 0.236
data_MOF--net-uoa--node1-KOZSID_clean_sbu_0--edge1-XUDNAN_clean_linker_2
_symmetry_space_group_name_H-M    P1
_symmetry_Int_Tables_number       1
_symmetry_cell_setting            triclinic
loop_
_symmetry_equiv_pos_as_xyz
'x, y, z'
_cell_length_a     98.370793
_cell_length_b     98.780036
_cell_length_c     32.863202
_cell_angle_alpha  89.896176
_cell_angle_beta   90.091094
_cell_angle_gamma 90.051888
loop_
_atom_site_label
_atom_site_type_symbol
_atom_site_fract_x
_atom_site_fract_y
_atom_site_fract_z
_atom_type_partial_charge
C0 C 0.01507 0.11212 1.0024 0.0
C1 C 1.00383 0.11792 0.98343 0.0
C2 C 0.99652 0.12426 1.01297 0.0
C3 C 1.0035 0.12184 0.04832 0.0
N4 N 0.01479 0.11435 0.0431 0.0
Co5 Co 0.02694 0.10748 0.08708 0.0
N6 N 1.01293 0.11097 0.12961 0.0
C7 C 1.00156 0.11842 0.12465 0.0
C8 C 0.99298 0.11799 0.15735 0.0
C9 C 0.99937 0.10997 0.18515 0.0
C10 C 1.0118 0.10627 0.1683 0.0
N11 N 0.03888 0.1006 0.13157 0.0
C12 C 0.03605 0.09765 0.17134 0.0
C13 C 0.04783 0.09405 0.19191 0.0
C14 C 0.0583 0.09489 0.16432 0.0
C15 C 0.05242 0.099 0.12839 0.0
N16 N 0.04066 0.10412 0.04386 0.0
C17 C 0.05402 0.10226 0.05044 0.0
C18 C 0.06112 0.10034 0.0149 0.0
C19 C 0.05161 0.10111 0.98416 0.0
C20 C 0.03917 0.10342 1.0026 0.0
N21 N 0.03497 0.12595 0.09528 0.0
C22 C 0.05396 0.14774 0.10443 0.0
C23 C 0.04863 0.14401 0.06613 0.0
C24 C 0.03926 0.13327 0.06225 0.0
C25 C 0.04833 0.14107 0.13839 0.0
C26 C 0.03884 0.13038 0.13322 0.0
N27 N 0.02002 0.08876 0.07836 0.0
C28 C 0.02562 0.06528 0.06462 0.0
C29 C 1.01196 0.0619 0.05854 0.0
C30 C 1.00231 0.07234 0.06363 0.0
C31 C 1.00654 0.0857 0.07312 0.0
C32 C 0.02936 0.07852 0.07486 0.0
H33 H 0.99897 0.09355 0.07572 0.0
H34 H 0.04 0.08043 0.07926 0.0
H35 H 0.03617 0.13034 0.032 0.0
H36 H 0.0353 0.12516 0.16006 0.0
C37 C 0.99807 0.12364 0.08684 0.0
C38 C 0.0263 0.1057 0.98009 0.0
C39 C 0.02271 0.0996 0.19157 0.0
C40 C 0.05891 0.10027 0.09033 0.0
H41 H 1.0011 0.11758 0.95154 0.0
H42 H 0.9868 0.12927 1.00943 0.0
H43 H 0.98297 0.12245 0.15993 0.0
H44 H 0.99527 0.10728 0.21457 0.0
H45 H 0.0488 0.09143 0.22377 0.0
H46 H 0.06892 0.09268 0.1698 0.0
H47 H 0.07184 0.09815 1.01171 0.0
H48 H 0.05358 0.10009 0.95192 0.0
H49 H 0.05204 0.14906 0.03871 0.0
H50 H 0.05177 0.14352 0.16879 0.0
H51 H 0.03346 0.05764 0.06208 0.0
H52 H 0.99159 0.07027 0.05953 0.0
C53 C 0.16063 0.76901 0.24907 0.0
C54 C 0.15183 0.76092 0.22672 0.0
C55 C 0.14444 0.7536 0.25438 0.0
C56 C 0.14904 0.75777 0.2918 0.0
N57 N 0.15874 0.76732 0.28941 0.0
Co58 Co 0.16686 0.77721 0.33587 0.0
N59 N 0.16173 0.76255 0.37457 0.0
C60 C 0.15331 0.75212 0.3663 0.0
C61 C 0.1525 0.74284 0.39721 0.0
C62 C 0.16067 0.74783 0.4273 0.0
C63 C 0.16579 0.76014 0.41346 0.0
N64 N 0.17407 0.78739 0.3835 0.0
C65 C 0.17535 0.78373 0.4235 0.0
C66 C 0.17937 0.79475 0.44671 0.0
C67 C 0.18049 0.8056 0.42057 0.0
C68 C 0.17702 0.80071 0.38279 0.0
N69 N 0.17259 0.79109 0.29551 0.0
C70 C 0.17664 0.80371 0.3043 0.0
C71 C 0.18186 0.81024 0.27065 0.0
C72 C 0.18107 0.80105 0.23904 0.0
C73 C 0.1754 0.78937 0.25503 0.0
N74 N 0.14906 0.78674 0.34471 0.0
C75 C 0.12629 0.80391 0.36157 0.0
C76 C 0.1322 0.80334 0.32263 0.0
C77 C 0.14332 0.7946 0.31471 0.0
C78 C 0.1319 0.7953 0.39134 0.0
C79 C 0.14318 0.787 0.38255 0.0
N80 N 0.18506 0.76875 0.32673 0.0
C81 C 0.20931 0.77287 0.31984 0.0
C82 C 0.21133 0.76074 0.29887 0.0
C83 C 0.1998 0.75231 0.29395 0.0
C84 C 0.18683 0.75644 0.30833 0.0
C85 C 0.19637 0.77661 0.33326 0.0
H86 H 0.17818 0.74992 0.30302 0.0
H87 H 0.19562 0.78644 0.3467 0.0
H88 H 0.14745 0.79447 0.2843 0.0
H89 H 0.14735 0.78109 0.40709 0.0
C90 C 0.14701 0.7509 0.32835 0.0
C91 C 0.17157 0.7771 0.23138 0.0
C92 C 0.17183 0.7703 0.44099 0.0
C93 C 0.17796 0.80774 0.34533 0.0
H94 H 0.15135 0.75993 0.19395 0.0
H95 H 0.13732 0.74552 0.2479 0.0
H96 H 0.14666 0.73355 0.39784 0.0
H97 H 0.16205 0.7433 0.45704 0.0
H98 H 0.18112 0.79494 0.47922 0.0
H99 H 0.18363 0.81578 0.42819 0.0
H100 H 0.18641 0.82021 0.2696 0.0
H101 H 0.18435 0.80275 0.20806 0.0
H102 H 0.12816 0.80951 0.29817 0.0
H103 H 0.12781 0.79523 0.42192 0.0
H104 H 0.21757 0.77999 0.32411 0.0
H105 H 0.20069 0.74269 0.27847 0.0
C106 C 0.50489 0.90617 0.50106 0.0
C107 C 0.51415 0.89793 0.48076 0.0
C108 C 0.52391 0.89441 0.50813 0.0
C109 C 0.52012 0.90053 0.54354 0.0
N110 N 0.50832 0.90742 0.54109 0.0
Co111 Co 0.49907 0.91705 0.58729 0.0
N112 N 0.51354 0.91148 0.62681 0.0
C113 C 0.52562 0.90593 0.61714 0.0
C114 C 0.53441 0.90468 0.64925 0.0
C115 C 0.52749 0.90969 0.6817 0.0
C116 C 0.51471 0.91348 0.66752 0.0
N117 N 0.48959 0.92579 0.63458 0.0
C118 C 0.49206 0.92498 0.67555 0.0
C119 C 0.4826 0.9324 0.69731 0.0
C120 C 0.47405 0.93821 0.66923 0.0
C121 C 0.47869 0.93398 0.63195 0.0
N122 N 0.48527 0.92335 0.54661 0.0
C123 C 0.47521 0.93226 0.55436 0.0
C124 C 0.4684 0.9364 0.52005 0.0
C125 C 0.47477 0.93006 0.48835 0.0
C126 C 0.48518 0.9224 0.50507 0.0
N127 N 0.48812 0.9002 0.59861 0.0
C128 C 0.47156 0.87671 0.61384 0.0
C129 C 0.46593 0.88968 0.60955 0.0
C130 C 0.47422 0.90106 0.60194 0.0
C131 C 0.48589 0.87593 0.61071 0.0
C132 C 0.4939 0.88766 0.6034 0.0
N133 N 0.50918 0.93442 0.57563 0.0
C134 C 0.5106 0.95866 0.58906 0.0
C135 C 0.51366 0.96143 0.5482 0.0
C136 C 0.51643 0.95025 0.52335 0.0
C137 C 0.51426 0.937 0.53751 0.0
C138 C 0.50872 0.94515 0.60228 0.0
H139 H 0.51616 0.92907 0.51619 0.0
H140 H 0.50623 0.94367 0.63381 0.0
H141 H 0.46914 0.91057 0.59858 0.0
H142 H 0.50476 0.88649 0.60156 0.0
C143 C 0.52791 0.9008 0.57863 0.0
C144 C 0.49523 0.91512 0.47988 0.0
C145 C 0.5039 0.91827 0.69441 0.0
C146 C 0.47279 0.93683 0.59407 0.0
H147 H 0.51459 0.8953 0.44901 0.0
H148 H 0.53304 0.88862 0.50235 0.0
H149 H 0.54451 0.90035 0.64924 0.0
H150 H 0.53136 0.91025 0.71249 0.0
H151 H 0.48211 0.9337 0.72995 0.0
H152 H 0.46543 0.94469 0.67534 0.0
H153 H 0.46007 0.94353 0.51815 0.0
H154 H 0.47238 0.93128 0.4564 0.0
H155 H 0.45502 0.89109 0.61099 0.0
H156 H 0.49099 0.86629 0.61422 0.0
H157 H 0.5089 0.96686 0.61029 0.0
H158 H 0.51975 0.95173 0.49224 0.0
C159 C 0.36515 0.25689 0.7501 0.0
C160 C 0.37176 0.26753 0.73054 0.0
C161 C 0.37892 0.27436 0.7596 0.0
C162 C 0.37616 0.26775 0.79531 0.0
N163 N 0.36772 0.25713 0.79067 0.0
Co164 Co 0.36044 0.24556 0.83533 0.0
N165 N 0.36479 0.25948 0.8772 0.0
C166 C 0.37293 0.27031 0.87166 0.0
C167 C 0.37329 0.27888 0.90432 0.0
C168 C 0.36506 0.27302 0.93269 0.0
C169 C 0.3604 0.26091 0.91613 0.0
N170 N 0.3535 0.23405 0.88054 0.0
C171 C 0.3508 0.23713 0.92024 0.0
C172 C 0.34695 0.22558 0.94137 0.0
C173 C 0.34737 0.21501 0.91415 0.0
C174 C 0.3515 0.2206 0.87787 0.0
N175 N 0.35601 0.23206 0.79276 0.0
C176 C 0.35345 0.21889 0.79949 0.0
C177 C 0.35001 0.21217 0.76427 0.0
C178 C 0.35046 0.22176 0.73373 0.0
C179 C 0.35411 0.23387 0.75195 0.0
N180 N 0.37875 0.23694 0.8429 0.0
C181 C 0.4021 0.21984 0.85291 0.0
C182 C 0.39729 0.22378 0.81417 0.0
C183 C 0.38578 0.23221 0.80986 0.0
C184 C 0.39506 0.22519 0.88653 0.0
C185 C 0.38364 0.23376 0.88094 0.0
N186 N 0.34181 0.2531 0.82714 0.0
C187 C 0.31788 0.248 0.81671 0.0
C188 C 0.31513 0.26111 0.80269 0.0
C189 C 0.32616 0.27033 0.80274 0.0
C190 C 0.33934 0.26616 0.81524 0.0
C191 C 0.33104 0.24427 0.82856 0.0
H192 H 0.34758 0.27339 0.81405 0.0
H193 H 0.33248 0.23387 0.83693 0.0
H194 H 0.38227 0.2345 0.77948 0.0
H195 H 0.37854 0.23747 0.9077 0.0
C196 C 0.37837 0.27324 0.83363 0.0
C197 C 0.35672 0.24667 0.72953 0.0
C198 C 0.35312 0.25048 0.93972 0.0
C199 C 0.3519 0.21408 0.83967 0.0
H200 H 0.37125 0.27049 0.69895 0.0
H201 H 0.38457 0.28367 0.7556 0.0
H202 H 0.37848 0.28851 0.90665 0.0
H203 H 0.3629 0.27725 0.96229 0.0
H204 H 0.34438 0.22484 0.9733 0.0
H205 H 0.34474 0.20455 0.92003 0.0
H206 H 0.34693 0.20169 0.76132 0.0
H207 H 0.34836 0.22007 0.70181 0.0
H208 H 0.40215 0.22003 0.78689 0.0
H209 H 0.39836 0.22282 0.91716 0.0
H210 H 0.31004 0.24031 0.8168 0.0
H211 H 0.32471 0.28068 0.79281 0.0
C212 C 0.02141 0.90879 0.52823 0.0
C213 C 1.01177 0.90094 0.54842 0.0
C214 C 1.00355 0.8955 0.51948 0.0
C215 C 1.00849 0.9003 0.48341 0.0
N216 N 0.0196 0.90821 0.48718 0.0
Co217 Co 0.02971 0.91716 0.44122 0.0
N218 N 0.01563 0.91152 0.40018 0.0
C219 C 1.00393 0.90494 0.40859 0.0
C220 C 0.99523 0.90384 0.37631 0.0
C221 C 1.00172 0.91011 0.34505 0.0
C222 C 0.01426 0.91442 0.35985 0.0
N223 N 0.04018 0.92504 0.39441 0.0
C224 C 0.03733 0.92552 0.35365 0.0
C225 C 0.0478 0.93174 0.33238 0.0
C226 C 0.05732 0.93559 0.36056 0.0
C227 C 0.05228 0.93141 0.39743 0.0
N228 N 0.04295 0.9237 0.48325 0.0
C229 C 0.05394 0.93149 0.47573 0.0
C230 C 0.05997 0.93643 0.51038 0.0
C231 C 0.05207 0.93187 0.54187 0.0
C232 C 0.04164 0.92437 0.52466 0.0
N233 N 0.04037 0.89981 0.43272 0.0
C234 C 0.05641 0.87599 0.41694 0.0
C235 C 0.06239 0.88842 0.4269 0.0
C236 C 0.05435 0.89993 0.43489 0.0
C237 C 0.04207 0.8758 0.41541 0.0
C238 C 0.03435 0.88768 0.42301 0.0
N239 N 0.01993 0.93494 0.45018 0.0
C240 C 0.02166 0.95956 0.44687 0.0
C241 C 0.01328 0.96128 0.48092 0.0
C242 C 1.00711 0.94943 0.49624 0.0
C243 C 1.01044 0.93654 0.48045 0.0
C244 C 0.02453 0.9466 0.43168 0.0
H245 H 1.00546 0.92798 0.49405 0.0
H246 H 0.03099 0.94646 0.40563 0.0
H247 H 0.05979 0.90887 0.44277 0.0
H248 H 0.0235 0.88685 0.42073 0.0
C249 C 1.00148 0.89968 0.44694 0.0
C250 C 0.03058 0.91828 0.5489 0.0
C251 C 0.02458 0.92094 0.33417 0.0
C252 C 0.05779 0.93452 0.43567 0.0
H253 H 1.01005 0.89984 0.58063 0.0
H254 H 0.9944 0.88963 0.52442 0.0
H255 H 0.98529 0.89913 0.37569 0.0
H256 H 0.9975 0.91137 0.31491 0.0
H257 H 0.04832 0.93364 0.29999 0.0
H258 H 0.06659 0.94119 0.35494 0.0
H259 H 0.06876 0.94298 0.51244 0.0
H260 H 0.05359 0.93407 0.57381 0.0
H261 H 0.07333 0.88927 0.42946 0.0
H262 H 0.03675 0.86655 0.40776 0.0
H263 H 0.0266 0.9681 0.43251 0.0
H264 H 0.99986 0.94995 0.5209 0.0
C265 C 0.36524 0.77207 0.7816 0.0
C266 C 0.3746 0.76486 0.80483 0.0
C267 C 0.38231 0.75749 0.7782 0.0
C268 C 0.37749 0.76086 0.74032 0.0
N269 N 0.36733 0.76993 0.7414 0.0
Co270 Co 0.35932 0.77896 0.69309 0.0
N271 N 0.365 0.76395 0.65632 0.0
C272 C 0.37411 0.75427 0.66594 0.0
C273 C 0.3756 0.7447 0.63618 0.0
C274 C 0.36714 0.74871 0.6054 0.0
C275 C 0.36116 0.76079 0.61761 0.0
N276 N 0.35199 0.78814 0.64376 0.0
C277 C 0.35005 0.78354 0.60498 0.0
C278 C 0.34568 0.794 0.57996 0.0
C279 C 0.34491 0.80541 0.60377 0.0
C280 C 0.34894 0.8014 0.64198 0.0
N281 N 0.35329 0.79337 0.73105 0.0
C282 C 0.34898 0.80571 0.71967 0.0
C283 C 0.34294 0.81254 0.75117 0.0
C284 C 0.34355 0.80397 0.78422 0.0
C285 C 0.35028 0.79234 0.77169 0.0
N286 N 0.37697 0.78871 0.68349 0.0
C287 C 0.39991 0.80571 0.66616 0.0
C288 C 0.39406 0.80515 0.70522 0.0
C289 C 0.38282 0.79653 0.71332 0.0
C290 C 0.39406 0.79725 0.63643 0.0
C291 C 0.38271 0.78902 0.64547 0.0
N292 N 0.34129 0.77024 0.70304 0.0
C293 C 0.31696 0.77396 0.70931 0.0
C294 C 0.31516 0.7621 0.732 0.0
C295 C 0.32686 0.75401 0.73821 0.0
C296 C 0.33975 0.75819 0.72329 0.0
C297 C 0.32983 0.77776 0.69537 0.0
H298 H 0.34851 0.75194 0.72957 0.0
H299 H 0.33042 0.78741 0.68055 0.0
H300 H 0.37872 0.79643 0.74377 0.0
H301 H 0.37838 0.78317 0.62103 0.0
C302 C 0.38016 0.75383 0.70443 0.0
C303 C 0.35447 0.78072 0.7985 0.0
C304 C 0.35336 0.76974 0.59003 0.0
C305 C 0.34781 0.80899 0.67807 0.0
H306 H 0.3756 0.7647 0.83762 0.0
H307 H 0.39002 0.75009 0.78572 0.0
H308 H 0.38191 0.73573 0.637 0.0
H309 H 0.36582 0.74338 0.57697 0.0
H310 H 0.34345 0.7935 0.54775 0.0
H311 H 0.34145 0.81535 0.5945 0.0
H312 H 0.33771 0.82216 0.74959 0.0
H313 H 0.33897 0.80605 0.8133 0.0
H314 H 0.39822 0.81122 0.72964 0.0
H315 H 0.39801 0.79722 0.6057 0.0
H316 H 0.30859 0.78084 0.70402 0.0
H317 H 0.32616 0.7446 0.75501 0.0
C318 C 0.50992 0.11429 0.02505 0.0
C319 C 0.52062 0.12083 0.04463 0.0
C320 C 0.5281 0.12709 0.01518 0.0
C321 C 0.52175 0.12392 0.97932 0.0
N322 N 0.51065 0.11608 0.9842 0.0
Co323 Co 0.49924 0.10842 0.93974 0.0
N324 N 0.5138 0.11156 0.89855 0.0
C325 C 0.52504 0.11917 0.90404 0.0
C326 C 0.534 0.11856 0.8723 0.0
C327 C 0.52798 0.11026 0.84449 0.0
C328 C 0.51541 0.10656 0.86038 0.0
N329 N 0.4879 0.10107 0.8946 0.0
C330 C 0.49115 0.09801 0.85525 0.0
C331 C 0.47961 0.09424 0.83375 0.0
C332 C 0.46885 0.09509 0.8603 0.0
C333 C 0.47433 0.09938 0.89655 0.0
N334 N 0.48513 0.10513 0.98182 0.0
C335 C 0.47191 0.1028 0.97423 0.0
C336 C 0.46457 0.1007 1.00929 0.0
C337 C 0.47378 0.10181 0.04075 0.0
C338 C 0.4863 0.10449 0.02321 0.0
N339 N 0.49113 0.12672 0.92835 0.0
C340 C 0.47425 0.14953 0.90867 0.0
C341 C 0.47628 0.14527 0.9492 0.0
C342 C 0.48481 0.13406 0.95836 0.0
C343 C 0.48144 0.14228 0.8787 0.0
C344 C 0.48972 0.13113 0.88899 0.0
N345 N 0.50629 0.08988 0.95121 0.0
C346 C 0.50093 0.06618 0.96313 0.0
C347 C 0.51416 0.06337 0.97644 0.0
C348 C 0.52352 0.07424 0.9756 0.0
C349 C 0.51943 0.08733 0.96269 0.0
C350 C 0.49725 0.07929 0.95097 0.0
H351 H 0.52681 0.09543 0.96292 0.0
H352 H 0.4868 0.08085 0.94278 0.0
H353 H 0.48589 0.13108 0.98982 0.0
H354 H 0.49452 0.12573 0.86447 0.0
C355 C 0.5278 0.12514 0.94138 0.0
C356 C 0.49894 0.10717 0.04656 0.0
C357 C 0.5047 0.0999 0.83624 0.0
C358 C 0.46746 0.1006 0.93401 0.0
H359 H 0.52297 0.12093 0.07679 0.0
H360 H 0.53761 0.13245 0.01923 0.0
H361 H 0.54394 0.12322 0.87019 0.0
H362 H 0.53234 0.1075 0.81549 0.0
H363 H 0.47899 0.09147 0.80196 0.0
H364 H 0.45831 0.09274 0.85395 0.0
H365 H 0.45389 0.09816 1.01171 0.0
H366 H 0.47158 0.10075 0.07285 0.0
H367 H 0.47131 0.15055 0.97388 0.0
H368 H 0.48036 0.14487 0.84684 0.0
H369 H 0.49316 0.05841 0.96365 0.0
H370 H 0.53395 0.07271 0.98505 0.0
C371 C 0.16062 0.25521 0.27485 0.0
C372 C 0.15328 0.26524 0.29479 0.0
C373 C 0.14587 0.2719 0.2658 0.0
C374 C 0.14919 0.26578 0.2298 0.0
N375 N 0.15828 0.2557 0.2342 0.0
Co376 Co 0.16646 0.2451 0.1892 0.0
N377 N 0.16183 0.25932 0.1486 0.0
C378 C 0.15191 0.26859 0.15326 0.0
C379 C 0.14943 0.27605 0.1189 0.0
C380 C 0.15825 0.27113 0.0905 0.0
C381 C 0.16583 0.26101 0.1094 0.0
N382 N 0.17443 0.23466 0.14328 0.0
C383 C 0.17821 0.23873 0.10508 0.0
C384 C 0.18374 0.22793 0.08388 0.0
C385 C 0.18299 0.2168 0.10913 0.0
C386 C 0.17718 0.22132 0.14461 0.0
N387 N 0.17097 0.23122 0.23069 0.0
C388 C 0.17405 0.21827 0.22251 0.0
C389 C 0.17691 0.21101 0.25729 0.0
C390 C 0.17547 0.22001 0.28908 0.0
C391 C 0.17187 0.23235 0.27207 0.0
N392 N 0.14865 0.23579 0.17844 0.0
C393 C 0.1271 0.21731 0.15887 0.0
C394 C 0.13098 0.21984 0.19951 0.0
C395 C 0.14164 0.22911 0.2086 0.0
C396 C 0.13366 0.22518 0.12897 0.0
C397 C 0.14426 0.23415 0.13914 0.0
N398 N 0.18463 0.25331 0.2 0.0
C399 C 0.20865 0.24902 0.21118 0.0
C400 C 0.21087 0.2621 0.22596 0.0
C401 C 0.19952 0.2709 0.22633 0.0
C402 C 0.18654 0.26636 0.21296 0.0
C403 C 0.19571 0.2449 0.19869 0.0
H404 H 0.17802 0.27324 0.21421 0.0
H405 H 0.19472 0.23453 0.18974 0.0
H406 H 0.14463 0.23035 0.24001 0.0
H407 H 0.14936 0.23922 0.11448 0.0
C408 C 0.14619 0.27095 0.19135 0.0
C409 C 0.16866 0.24474 0.29589 0.0
C410 C 0.17571 0.25246 0.08771 0.0
C411 C 0.17646 0.21421 0.18194 0.0
H412 H 0.15323 0.26757 0.32694 0.0
H413 H 0.13941 0.28064 0.27024 0.0
H414 H 0.14214 0.28415 0.115 0.0
H415 H 0.1587 0.27438 0.05909 0.0
H416 H 0.18793 0.22801 0.05352 0.0
H417 H 0.1868 0.20674 0.1029 0.0
H418 H 0.1802 0.20058 0.25929 0.0
H419 H 0.17697 0.21779 0.32104 0.0
H420 H 0.12628 0.21425 0.22412 0.0
H421 H 0.13093 0.22418 0.0972 0.0
H422 H 0.21676 0.24161 0.21092 0.0
H423 H 0.20058 0.28119 0.23713 0.0
C424 C 0.98038 0.92343 0.02475 0.0
C425 C 0.96879 0.92876 0.04241 0.0
C426 C 0.96052 0.93287 1.01108 0.0
C427 C 0.9675 0.92985 0.97606 0.0
N428 N 0.97961 0.92403 0.98318 0.0
Co429 Co 0.99338 0.9193 0.94074 0.0
N430 N 0.98272 0.92776 0.89517 0.0
C431 C 0.96996 0.93252 0.89843 0.0
C432 C 0.96458 0.93672 0.86196 0.0
C433 C 0.97454 0.93442 0.83365 0.0
C434 C 0.98553 0.92899 0.85446 0.0
N435 N 1.00774 0.91512 0.89929 0.0
C436 C 1.00929 0.91932 0.86006 0.0
C437 C 0.02199 0.91571 0.84499 0.0
C438 C 0.02825 0.9083 0.87448 0.0
C439 C 0.01928 0.90814 0.90622 0.0
N440 N 1.00373 0.90984 0.98535 0.0
C441 C 0.01484 0.90209 0.98012 0.0
C442 C 0.01957 0.89621 0.01503 0.0
C443 C 1.01101 0.90053 0.04475 0.0
C444 C 1.00137 0.90881 0.02616 0.0
N445 N 0.98349 0.90185 0.92895 0.0
C446 C 0.96576 0.87971 0.90913 0.0
C447 C 0.97412 0.88593 0.87977 0.0
C448 C 0.98274 0.89684 0.89008 0.0
C449 C 0.9669 0.88466 0.94909 0.0
C450 C 0.97588 0.89547 0.95838 0.0
N451 N 1.00239 0.93728 0.95273 0.0
C452 C 1.00834 0.95387 1.0045 0.0
C453 C 1.00597 0.96468 0.97786 0.0
C454 C 1.00348 0.96144 0.93705 0.0
C455 C 1.0019 0.94779 0.92513 0.0
C456 C 1.0069 0.9404 0.99118 0.0
H457 H 0.99974 0.94603 0.89365 0.0
H458 H 1.00902 0.93272 1.01309 0.0
H459 H 0.98852 0.90138 0.86593 0.0
H460 H 0.9764 0.89876 0.98957 0.0
C461 C 0.96359 0.93324 0.9364 0.0
C462 C 0.99142 0.91705 0.04863 0.0
C463 C 0.99859 0.92546 0.8347 0.0
C464 C 0.02165 0.90198 0.94336 0.0
H465 H 0.96653 0.92944 0.07456 0.0
H466 H 0.9507 0.93773 1.0136 0.0
H467 H 0.95461 0.941 0.85655 0.0
H468 H 0.97379 0.93653 0.80141 0.0
H469 H 0.02631 0.91797 0.81552 0.0
H470 H 0.03822 0.90371 0.87312 0.0
H471 H 0.0286 0.89008 0.01881 0.0
H472 H 1.01236 0.89817 0.0765 0.0
H473 H 0.97378 0.88261 0.8484 0.0
H474 H 0.961 0.88011 0.97333 0.0
H475 H 1.01098 0.95581 0.03597 0.0
H476 H 1.00201 0.96941 0.91479 0.0
C477 C 0.85048 0.23181 0.77501 0.0
C478 C 0.84301 0.22215 0.79591 0.0
C479 C 0.8351 0.21566 0.76767 0.0
C480 C 0.83821 0.22165 0.73111 0.0
N481 N 0.84781 0.23132 0.73407 0.0
Co482 Co 0.85395 0.24322 0.68783 0.0
N483 N 0.84375 0.23264 0.64524 0.0
C484 C 0.83427 0.22319 0.65364 0.0
C485 C 0.82733 0.2188 0.61998 0.0
C486 C 0.83257 0.22603 0.58811 0.0
C487 C 0.84268 0.23437 0.60384 0.0
N488 N 0.8603 0.2552 0.64203 0.0
C489 C 0.8596 0.2536 0.60089 0.0
C490 C 0.86821 0.26259 0.58098 0.0
C491 C 0.87357 0.27085 0.60987 0.0
C492 C 0.86844 0.26612 0.64583 0.0
N493 N 0.864 0.25419 0.72982 0.0
C494 C 0.87059 0.26595 0.72277 0.0
C495 C 0.87581 0.27196 0.75679 0.0
C496 C 0.87225 0.26364 0.78792 0.0
C497 C 0.86517 0.25281 0.77098 0.0
N498 N 0.87024 0.23115 0.67946 0.0
C499 C 0.89204 0.21293 0.66026 0.0
C500 C 0.89433 0.22691 0.66582 0.0
C501 C 0.88335 0.2358 0.67522 0.0
C502 C 0.87868 0.20839 0.66623 0.0
C503 C 0.86816 0.21746 0.67601 0.0
N504 N 0.83711 0.25432 0.69626 0.0
C505 C 0.81811 0.25811 0.74217 0.0
C506 C 0.80881 0.25861 0.70973 0.0
C507 C 0.81443 0.25886 0.67029 0.0
C508 C 0.82852 0.25698 0.66434 0.0
C509 C 0.83209 0.25626 0.73479 0.0
H510 H 0.83223 0.25675 0.63359 0.0
H511 H 0.83856 0.25537 0.76086 0.0
H512 H 0.88554 0.24643 0.6782 0.0
H513 H 0.85821 0.21322 0.67979 0.0
C514 C 0.83217 0.21872 0.69358 0.0
C515 C 0.85878 0.24219 0.79585 0.0
C516 C 0.84998 0.24474 0.5792 0.0
C517 C 0.87234 0.27079 0.68368 0.0
H518 H 0.84287 0.22039 0.82842 0.0
H519 H 0.8277 0.20777 0.77331 0.0
H520 H 0.81914 0.21148 0.61886 0.0
H521 H 0.82884 0.22558 0.55723 0.0
H522 H 0.87035 0.26327 0.54878 0.0
H523 H 0.88075 0.27902 0.60534 0.0
H524 H 0.88146 0.28135 0.75874 0.0
H525 H 0.87437 0.26566 0.81961 0.0
H526 H 0.90441 0.23105 0.66138 0.0
H527 H 0.87625 0.19776 0.66262 0.0
H528 H 0.81462 0.25826 0.77337 0.0
H529 H 0.80796 0.26004 0.64385 0.0
C530 C 0.54619 0.09918 0.52446 0.0
C531 C 0.55673 0.09167 0.54111 0.0
C532 C 0.56298 0.08517 0.50949 0.0
C533 C 0.55599 0.08906 0.47525 0.0
N534 N 0.54592 0.09794 0.48296 0.0
Co535 Co 0.53227 0.10432 0.44185 0.0
N536 N 0.54221 0.09614 0.39451 0.0
C537 C 0.55289 0.0877 0.3974 0.0
C538 C 0.55787 0.08381 0.36018 0.0
C539 C 0.54975 0.09009 0.33187 0.0
C540 C 0.54018 0.09744 0.35342 0.0
N541 N 0.5181 0.11018 0.40164 0.0
C542 C 0.51749 0.10898 0.36051 0.0
C543 C 0.50475 0.11262 0.34566 0.0
C544 C 0.49726 0.11668 0.37817 0.0
C545 C 0.5057 0.11505 0.41093 0.0
N546 N 0.5223 0.11301 0.48841 0.0
C547 C 0.51004 0.11906 0.48599 0.0
C548 C 0.5056 0.12449 0.52172 0.0
C549 C 0.51545 0.12145 0.54925 0.0
C550 C 0.52544 0.11418 0.5287 0.0
N551 N 0.54303 0.12142 0.43303 0.0
C552 C 0.55943 0.14509 0.41864 0.0
C553 C 0.54509 0.14578 0.42226 0.0
C554 C 0.53716 0.13395 0.42926 0.0
C555 C 0.56514 0.13213 0.42242 0.0
C556 C 0.55692 0.12067 0.42954 0.0
N557 N 0.52237 0.08679 0.45035 0.0
C558 C 0.51676 0.06824 0.49618 0.0
C559 C 0.51598 0.05895 0.46397 0.0
C560 C 0.51732 0.06434 0.42442 0.0
C561 C 0.52023 0.07816 0.41835 0.0
C562 C 0.51978 0.08197 0.48874 0.0
H563 H 0.52134 0.08163 0.38749 0.0
H564 H 0.52043 0.08846 0.5146 0.0
H565 H 0.52627 0.13499 0.43147 0.0
H566 H 0.56205 0.11115 0.43215 0.0
C567 C 0.55852 0.08461 0.43547 0.0
C568 C 0.53602 0.10628 0.54981 0.0
C569 C 0.52861 0.10453 0.33412 0.0
C570 C 0.5027 0.11912 0.45008 0.0
H571 H 0.55929 0.09064 0.57301 0.0
H572 H 0.57142 0.07817 0.51139 0.0
H573 H 0.56649 0.07731 0.35426 0.0
H574 H 0.55061 0.08916 0.29918 0.0
H575 H 0.50117 0.1124 0.31452 0.0
H576 H 0.48697 0.12054 0.37788 0.0
H577 H 0.49608 0.12964 0.52743 0.0
H578 H 0.51469 0.12376 0.58119 0.0
H579 H 0.53991 0.15539 0.41924 0.0
H580 H 0.57604 0.13077 0.42073 0.0
H581 H 0.51519 0.06496 0.52728 0.0
H582 H 0.5167 0.05788 0.39794 0.0
C583 C 0.67785 0.79082 0.27877 0.0
C584 C 0.68415 0.80154 0.29836 0.0
C585 C 0.68897 0.80998 0.26853 0.0
C586 C 0.68532 0.80401 0.23241 0.0
N587 N 0.67842 0.79238 0.23731 0.0
Co588 Co 0.67213 0.78031 0.19192 0.0
N589 N 0.68113 0.79135 0.14795 0.0
C590 C 0.68801 0.80293 0.15446 0.0
C591 C 0.69431 0.80782 0.1203 0.0
C592 C 0.69118 0.79884 0.09002 0.0
C593 C 0.68277 0.78903 0.10696 0.0
N594 N 0.66566 0.76803 0.1471 0.0
C595 C 0.66767 0.76829 0.10597 0.0
C596 C 0.65875 0.75953 0.08621 0.0
C597 C 0.65138 0.75316 0.11546 0.0
C598 C 0.65584 0.7586 0.15127 0.0
N599 N 0.66272 0.7693 0.23539 0.0
C600 C 0.65373 0.75929 0.22841 0.0
C601 C 0.64852 0.75351 0.26285 0.0
C602 C 0.65447 0.76029 0.29417 0.0
C603 C 0.66287 0.77007 0.27697 0.0
N604 N 0.65527 0.79173 0.18528 0.0
C605 C 0.6336 0.81115 0.1772 0.0
C606 C 0.64022 0.80564 0.14305 0.0
C607 C 0.65086 0.79606 0.14768 0.0
C608 C 0.6378 0.80602 0.21535 0.0
C609 C 0.64849 0.79653 0.2187 0.0
N610 N 0.68966 0.76977 0.19899 0.0
C611 C 0.70802 0.76502 0.2468 0.0
C612 C 0.71788 0.76676 0.21667 0.0
C613 C 0.71323 0.76805 0.17652 0.0
C614 C 0.69915 0.76914 0.16833 0.0
C615 C 0.69411 0.76611 0.23712 0.0
H616 H 0.6962 0.77006 0.13714 0.0
H617 H 0.68719 0.76453 0.26145 0.0
H618 H 0.65574 0.79253 0.12046 0.0
H619 H 0.65146 0.7934 0.2488 0.0
C620 C 0.68937 0.80819 0.19368 0.0
C621 C 0.67129 0.7795 0.30103 0.0
C622 C 0.67714 0.77725 0.08385 0.0
C623 C 0.65084 0.75514 0.18921 0.0
H624 H 0.68523 0.80301 0.33083 0.0
H625 H 0.69481 0.81917 0.27273 0.0
H626 H 0.7009 0.81657 0.11803 0.0
H627 H 0.69518 0.79932 0.05949 0.0
H628 H 0.65723 0.75819 0.05389 0.0
H629 H 0.64341 0.74574 0.11105 0.0
H630 H 0.64142 0.74516 0.26496 0.0
H631 H 0.65277 0.758 0.32585 0.0
H632 H 0.63758 0.80905 0.11275 0.0
H633 H 0.63296 0.80941 0.24307 0.0
H634 H 0.71104 0.76334 0.27811 0.0
H635 H 0.72043 0.76884 0.15173 0.0
C636 C 0.98027 0.09809 0.50167 0.0
C637 C 0.97018 0.09005 0.48475 0.0
C638 C 0.96428 0.08307 0.51614 0.0
C639 C 0.971 0.08725 0.55054 0.0
N640 N 0.98054 0.09675 0.54317 0.0
Co641 Co 0.99362 0.10394 0.58483 0.0
N642 N 0.98397 0.09513 0.63177 0.0
C643 C 0.97394 0.08593 0.62844 0.0
C644 C 0.96916 0.08153 0.66544 0.0
C645 C 0.97675 0.08825 0.69406 0.0
C646 C 0.98583 0.09636 0.67291 0.0
N647 N 1.00717 0.11074 0.62561 0.0
C648 C 1.00761 0.10967 0.66681 0.0
C649 C 0.01994 0.11433 0.68224 0.0
C650 C 0.02729 0.1189 0.65004 0.0
C651 C 0.01922 0.11655 0.61689 0.0
N652 N 1.00336 0.11307 0.53845 0.0
C653 C 0.01519 0.11991 0.54137 0.0
C654 C 0.01962 0.12539 0.50565 0.0
C655 C 1.01022 0.1216 0.47762 0.0
C656 C 1.00048 0.11388 0.49789 0.0
N657 N 0.98184 0.12041 0.59267 0.0
C658 C 0.96349 0.14275 0.60291 0.0
C659 C 0.97773 0.14466 0.60183 0.0
C660 C 0.98669 0.13341 0.59655 0.0
C661 C 0.95891 0.12936 0.59978 0.0
C662 C 0.96804 0.11857 0.595 0.0
N663 N 1.00446 0.08696 0.57742 0.0
C664 C 1.00856 0.06763 0.53348 0.0
C665 C 1.00986 0.05878 0.56686 0.0
C666 C 1.01021 0.06496 0.60559 0.0
C667 C 1.00752 0.0789 0.61014 0.0
C668 C 1.00629 0.08156 0.53945 0.0
H669 H 1.00714 0.0829 0.64056 0.0
H670 H 1.00519 0.08771 0.51292 0.0
H671 H 0.99749 0.1353 0.59526 0.0
H672 H 0.96368 0.10868 0.59298 0.0
C673 C 0.96865 0.08253 0.59019 0.0
C674 C 0.9903 0.10554 0.47653 0.0
C675 C 0.9968 0.10418 0.69268 0.0
C676 C 0.0222 0.12067 0.57776 0.0
H677 H 0.96777 0.08892 0.45278 0.0
H678 H 0.95627 0.07559 0.51399 0.0
H679 H 0.96103 0.07438 0.67099 0.0
H680 H 0.9759 0.08711 0.7267 0.0
H681 H 0.02337 0.11439 0.71353 0.0
H682 H 0.03727 0.12353 0.65074 0.0
H683 H 0.02885 0.13111 0.50034 0.0
H684 H 1.01113 0.12383 0.44566 0.0
H685 H 0.98191 0.15478 0.60379 0.0
H686 H 0.94812 0.12715 0.60069 0.0
H687 H 1.00859 0.06392 0.50258 0.0
H688 H 1.01214 0.0591 0.6328 0.0
C689 C 0.67986 0.22833 0.26014 0.0
C690 C 0.68768 0.21733 0.24824 0.0
C691 C 0.69087 0.21023 0.28283 0.0
C692 C 0.68517 0.21733 0.31425 0.0
N693 N 0.6785 0.22847 0.30182 0.0
Co694 Co 0.67183 0.24316 0.33887 0.0
N695 N 0.67898 0.23436 0.38982 0.0
C696 C 0.6846 0.22198 0.39148 0.0
C697 C 0.68764 0.21787 0.4304 0.0
C698 C 0.68362 0.22831 0.45512 0.0
C699 C 0.67843 0.2383 0.42986 0.0
N700 N 0.66587 0.25851 0.37444 0.0
C701 C 0.66874 0.26142 0.41405 0.0
C702 C 0.66432 0.27436 0.42408 0.0
C703 C 0.65762 0.27931 0.39091 0.0
C704 C 0.65869 0.26938 0.3621 0.0
N705 N 0.6636 0.25164 0.28922 0.0
C706 C 0.65444 0.26176 0.28938 0.0
C707 C 0.64815 0.26378 0.25264 0.0
C708 C 0.65374 0.2544 0.22725 0.0
C709 C 0.66345 0.24746 0.24981 0.0
N710 N 0.65422 0.2331 0.34812 0.0
C711 C 0.63115 0.21613 0.36555 0.0
C712 C 0.63625 0.22554 0.39392 0.0
C713 C 0.64761 0.23376 0.38482 0.0
C714 C 0.63784 0.21571 0.32773 0.0
C715 C 0.64911 0.22428 0.31954 0.0
N716 N 0.68993 0.25238 0.32993 0.0
C717 C 0.7088 0.25645 0.28335 0.0
C718 C 0.7184 0.25554 0.31496 0.0
C719 C 0.71312 0.25493 0.35466 0.0
C720 C 0.69905 0.25356 0.36139 0.0
C721 C 0.69474 0.2552 0.29159 0.0
H722 H 0.6958 0.25298 0.39243 0.0
H723 H 0.68799 0.2561 0.26629 0.0
H724 H 0.65113 0.24046 0.4083 0.0
H725 H 0.65375 0.22356 0.28995 0.0
C726 C 0.6873 0.21485 0.3557 0.0
C727 C 0.67352 0.23833 0.23157 0.0
C728 C 0.67359 0.25162 0.44479 0.0
C729 C 0.65301 0.26992 0.32341 0.0
H730 H 0.6912 0.21472 0.21825 0.0
H731 H 0.69722 0.20131 0.28493 0.0
H732 H 0.69231 0.20845 0.43972 0.0
H733 H 0.68456 0.22858 0.4879 0.0
H734 H 0.66528 0.27949 0.45302 0.0
H735 H 0.65247 0.28895 0.38826 0.0
H736 H 0.64069 0.27141 0.24492 0.0
H737 H 0.65141 0.25324 0.19523 0.0
H738 H 0.63168 0.22639 0.42375 0.0
H739 H 0.63431 0.2089 0.30419 0.0
H740 H 0.71204 0.25753 0.25205 0.0
H741 H 0.71982 0.25519 0.3808 0.0
C742 C 0.54538 0.92166 1.00437 0.0
C743 C 0.55722 0.9262 0.98617 0.0
C744 C 0.56545 0.9308 0.01693 0.0
C745 C 0.55819 0.92883 0.05214 0.0
N746 N 0.54591 0.92323 0.04579 0.0
Co747 Co 0.53203 0.91938 0.08913 0.0
N748 N 0.54347 0.92716 0.13413 0.0
C749 C 0.55619 0.93194 0.12975 0.0
C750 C 0.56202 0.93593 0.1658 0.0
C751 C 0.55239 0.93349 0.19503 0.0
C752 C 0.54115 0.92819 0.17518 0.0
N753 N 0.51768 0.91588 0.13161 0.0
C754 C 0.51705 0.91921 0.17178 0.0
C755 C 0.50426 0.9165 0.18792 0.0
C756 C 0.49683 0.91069 0.15781 0.0
C757 C 0.50529 0.91049 0.12488 0.0
N758 N 0.52052 0.9111 0.04498 0.0
C759 C 0.50821 0.90532 0.04995 0.0
C760 C 0.50246 0.90054 0.01494 0.0
C761 C 0.5116 0.90348 0.98533 0.0
C762 C 0.52254 0.90987 1.00418 0.0
N763 N 0.54098 0.9013 0.10014 0.0
C764 C 0.56005 0.88032 0.12114 0.0
C765 C 0.55138 0.88627 0.15014 0.0
C766 C 0.54207 0.89651 0.13923 0.0
C767 C 0.55786 0.8843 0.08046 0.0
C768 C 0.54829 0.89461 0.07068 0.0
N769 N 0.52415 0.9379 0.07844 0.0
C770 C 0.52087 0.95675 0.03129 0.0
C771 C 0.52091 0.96624 0.06305 0.0
C772 C 0.5212 0.96097 0.1028 0.0
C773 C 0.52264 0.94696 0.10973 0.0
C774 C 0.52235 0.94278 0.03961 0.0
H775 H 0.5231 0.94371 0.14076 0.0
H776 H 0.52259 0.93617 1.01396 0.0
H777 H 0.53627 0.90091 0.16334 0.0
H778 H 0.54734 0.89748 0.0392 0.0
C779 C 0.5623 0.93245 0.09138 0.0
C780 C 0.53402 0.91553 0.98139 0.0
C781 C 0.52841 0.92438 0.19636 0.0
C782 C 0.50173 0.90559 0.0871 0.0
H783 H 0.55964 0.92613 0.95405 0.0
H784 H 0.5755 0.93517 1.0139 0.0
H785 H 0.5721 0.94006 0.17035 0.0
H786 H 0.55353 0.93538 0.22729 0.0
H787 H 0.50057 0.91848 0.21831 0.0
H788 H 0.48641 0.90719 0.15955 0.0
H789 H 0.49255 0.89593 1.01116 0.0
H790 H 0.51004 0.90156 0.95329 0.0
H791 H 0.552 0.88332 0.18184 0.0
H792 H 0.56394 0.87998 0.05635 0.0
H793 H 0.52038 0.96007 0.99992 0.0
H794 H 0.52064 0.96766 0.12881 0.0
C795 C 0.84843 0.79 0.74705 0.0
C796 C 0.83997 0.79895 0.7267 0.0
C797 C 0.83322 0.80618 0.75584 0.0
C798 C 0.83783 0.80125 0.79239 0.0
N799 N 0.84735 0.79155 0.78857 0.0
Co800 Co 0.85405 0.77982 0.83482 0.0
N801 N 0.84416 0.79029 0.87804 0.0
C802 C 0.83507 0.80016 0.87042 0.0
C803 C 0.82861 0.80476 0.90458 0.0
C804 C 0.83381 0.79727 0.93598 0.0
C805 C 0.84342 0.78856 0.91947 0.0
N806 N 0.86059 0.76759 0.87982 0.0
C807 C 0.85947 0.76854 0.9211 0.0
C808 C 0.86769 0.75904 0.94042 0.0
C809 C 0.8733 0.75125 0.91086 0.0
C810 C 0.86869 0.75665 0.8751 0.0
N811 N 0.86437 0.76946 0.79225 0.0
C812 C 0.87251 0.75872 0.79876 0.0
C813 C 0.88001 0.755 0.76551 0.0
C814 C 0.87614 0.7637 0.73541 0.0
C815 C 0.86622 0.77203 0.75191 0.0
N816 N 0.87033 0.79204 0.84293 0.0
C817 C 0.89313 0.80983 0.85543 0.0
C818 C 0.89459 0.79566 0.85395 0.0
C819 C 0.88325 0.78708 0.84801 0.0
C820 C 0.87983 0.8148 0.85093 0.0
C821 C 0.86874 0.80587 0.84447 0.0
N822 N 0.83727 0.76846 0.82683 0.0
C823 C 0.81953 0.76371 0.77752 0.0
C824 C 0.80939 0.765 0.80709 0.0
C825 C 0.81367 0.76589 0.84776 0.0
C826 C 0.82766 0.76733 0.85698 0.0
C827 C 0.83331 0.76494 0.78831 0.0
H828 H 0.83044 0.76847 0.8884 0.0
H829 H 0.84058 0.76402 0.76462 0.0
H830 H 0.88516 0.77642 0.84764 0.0
H831 H 0.85888 0.81033 0.84062 0.0
C832 C 0.83256 0.8045 0.8306 0.0
C833 C 0.85654 0.77944 0.72611 0.0
C834 C 0.85037 0.77776 0.94341 0.0
C835 C 0.87366 0.75303 0.83716 0.0
H836 H 0.83836 0.79985 0.69431 0.0
H837 H 0.82536 0.81368 0.75091 0.0
H838 H 0.82068 0.81234 0.90631 0.0
H839 H 0.83032 0.79779 0.96707 0.0
H840 H 0.86967 0.75789 0.97261 0.0
H841 H 0.8805 0.74307 0.91491 0.0
H842 H 0.88733 0.74686 0.76333 0.0
H843 H 0.87938 0.76327 0.70397 0.0
H844 H 0.90451 0.79109 0.85772 0.0
H845 H 0.87797 0.82561 0.85134 0.0
H846 H 0.81682 0.76237 0.74581 0.0
H847 H 0.80626 0.76639 0.87205 0.0
C848 C 0.51788 0.60942 0.50653 0.0
C849 C 0.50732 0.61601 0.48648 0.0
C850 C 0.50027 0.62303 0.51532 0.0
C851 C 0.5067 0.62023 0.55135 0.0
N852 N 0.51743 0.6119 0.54714 0.0
Co853 Co 0.52884 0.60466 0.59235 0.0
N854 N 0.51469 0.6089 0.63381 0.0
C855 C 0.50383 0.61697 0.62775 0.0
C856 C 0.49508 0.61729 0.66006 0.0
C857 C 0.50084 0.6091 0.68875 0.0
C858 C 0.51308 0.6045 0.67276 0.0
N859 N 0.54014 0.59758 0.638 0.0
C860 C 0.53687 0.5948 0.67761 0.0
C861 C 0.54838 0.59092 0.69909 0.0
C862 C 0.5591 0.5914 0.67226 0.0
C863 C 0.55366 0.5956 0.63581 0.0
N864 N 0.54262 0.6004 0.55024 0.0
C865 C 0.55582 0.59796 0.55756 0.0
C866 C 0.56278 0.59467 0.52263 0.0
C867 C 0.55331 0.5951 0.49165 0.0
C868 C 0.54103 0.59858 0.50932 0.0
N869 N 0.53748 0.62286 0.60036 0.0
C870 C 0.55483 0.64593 0.61088 0.0
C871 C 0.55079 0.64137 0.57203 0.0
C872 C 0.54224 0.62997 0.56747 0.0
C873 C 0.54943 0.63884 0.64435 0.0
C874 C 0.54071 0.62756 0.63852 0.0
N875 N 0.52128 0.58619 0.58375 0.0
C876 C 0.52637 0.56253 0.57134 0.0
C877 C 0.5129 0.55974 0.56067 0.0
C878 C 0.50352 0.57053 0.56326 0.0
C879 C 0.50792 0.58368 0.57454 0.0
C880 C 0.53025 0.57557 0.583 0.0
H881 H 0.50063 0.59185 0.57497 0.0
H882 H 0.54079 0.57705 0.59019 0.0
H883 H 0.53992 0.62661 0.53702 0.0
H884 H 0.53695 0.6224 0.66516 0.0
C885 C 0.50104 0.62236 0.5895 0.0
C886 C 0.52827 0.6011 0.4863 0.0
C887 C 0.5234 0.59717 0.69684 0.0
C888 C 0.56041 0.59624 0.59795 0.0
H889 H 0.5046 0.6156 0.45467 0.0
H890 H 0.49094 0.62865 0.51089 0.0
H891 H 0.48537 0.62241 0.66193 0.0
H892 H 0.49642 0.60689 0.71812 0.0
H893 H 0.54901 0.58832 0.73104 0.0
H894 H 0.56959 0.58881 0.67853 0.0
H895 H 0.57333 0.59168 0.52016 0.0
H896 H 0.55519 0.59308 0.4598 0.0
H897 H 0.55457 0.64632 0.54488 0.0
H898 H 0.55186 0.64199 0.67505 0.0
H899 H 0.53397 0.55461 0.57095 0.0
H900 H 0.49293 0.56891 0.55564 0.0
C901 C 0.66173 0.26849 0.75608 0.0
C902 C 0.6543 0.25874 0.7351 0.0
C903 C 0.64685 0.25181 0.76339 0.0
C904 C 0.65022 0.25753 0.79999 0.0
N905 N 0.65937 0.26762 0.79664 0.0
Co906 Co 0.66747 0.27782 0.84272 0.0
N907 N 0.66276 0.26323 0.88212 0.0
C908 C 0.65288 0.25397 0.87631 0.0
C909 C 0.65024 0.24624 0.90999 0.0
C910 C 0.65888 0.25097 0.93921 0.0
C911 C 0.66655 0.26127 0.92148 0.0
N912 N 0.6753 0.2879 0.88978 0.0
C913 C 0.67885 0.28357 0.92798 0.0
C914 C 0.68429 0.29423 0.95012 0.0
C915 C 0.68369 0.30553 0.92552 0.0
C916 C 0.67805 0.30125 0.88946 0.0
N917 N 0.67207 0.29205 0.80242 0.0
C918 C 0.6752 0.30492 0.81165 0.0
C919 C 0.67819 0.31244 0.77752 0.0
C920 C 0.67682 0.30371 0.74502 0.0
C921 C 0.6731 0.29125 0.76099 0.0
N922 N 0.64961 0.28701 0.85365 0.0
C923 C 0.62799 0.30531 0.87364 0.0
C924 C 0.63193 0.30301 0.83298 0.0
C925 C 0.64263 0.29384 0.82368 0.0
C926 C 0.63454 0.29732 0.90331 0.0
C927 C 0.64515 0.28841 0.89293 0.0
N928 N 0.68571 0.26978 0.83156 0.0
C929 C 0.70971 0.27444 0.82094 0.0
C930 C 0.7119 0.26184 0.80281 0.0
C931 C 0.70057 0.25301 0.80078 0.0
C932 C 0.68764 0.25711 0.81562 0.0
C933 C 0.69681 0.27815 0.8347 0.0
H934 H 0.67914 0.25024 0.81287 0.0
H935 H 0.69585 0.28828 0.84586 0.0
H936 H 0.64569 0.29281 0.79229 0.0
H937 H 0.6502 0.2832 0.91743 0.0
C938 C 0.64721 0.25199 0.83791 0.0
C939 C 0.66996 0.27904 0.73617 0.0
C940 C 0.67621 0.26974 0.94454 0.0
C941 C 0.67749 0.30864 0.85259 0.0
H942 H 0.65422 0.25677 0.70273 0.0
H943 H 0.64033 0.24316 0.75807 0.0
H944 H 0.6429 0.23812 0.91297 0.0
H945 H 0.65912 0.24751 0.97045 0.0
H946 H 0.68833 0.29395 0.9807 0.0
H947 H 0.68747 0.31555 0.9326 0.0
H948 H 0.68155 0.32287 0.7764 0.0
H949 H 0.67844 0.30617 0.71329 0.0
H950 H 0.62725 0.30871 0.80854 0.0
H951 H 0.63177 0.29818 0.93507 0.0
H952 H 0.7178 0.28186 0.82272 0.0
H953 H 0.70161 0.24306 0.78744 0.0
C954 C 1.008 0.41321 1.00218 0.0
C955 C 0.0194 0.40835 0.98187 0.0
C956 C 0.02772 0.40283 1.01058 0.0
C957 C 0.0211 0.40471 0.04673 0.0
N958 N 1.00903 0.41105 0.04284 0.0
Co959 Co 0.99671 0.41638 0.08827 0.0
N960 N 1.01147 0.41399 0.12941 0.0
C961 C 0.02369 0.40824 0.12279 0.0
C962 C 0.03242 0.40916 0.15515 0.0
C963 C 0.02523 0.41568 0.18457 0.0
C964 C 1.01234 0.41812 0.1687 0.0
N965 N 0.98453 0.42142 0.1345 0.0
C966 C 0.98725 0.42318 0.17502 0.0
C967 C 0.97532 0.42501 0.19671 0.0
C968 C 0.96483 0.42417 0.16915 0.0
C969 C 0.97087 0.42183 0.13214 0.0
N970 N 0.98234 0.41896 0.04626 0.0
C971 C 0.96895 0.41978 0.05387 0.0
C972 C 0.96137 0.42144 0.019 0.0
C973 C 0.9706 0.42161 0.98755 0.0
C974 C 0.98336 0.42008 1.00491 0.0
N975 N 0.99046 0.39713 0.09541 0.0
C976 C 0.97374 0.37356 0.10567 0.0
C977 C 0.97769 0.37826 0.06687 0.0
C978 C 0.98597 0.38989 0.06244 0.0
C979 C 0.97927 0.38052 0.13916 0.0
C980 C 0.98774 0.39198 0.13342 0.0
N981 N 1.00177 0.4358 0.08078 0.0
C982 C 0.99378 0.45895 0.07566 0.0
C983 C 1.00672 0.46379 0.06558 0.0
C984 C 0.01725 0.45413 0.06286 0.0
C985 C 0.01459 0.44022 0.07089 0.0
C986 C 0.99155 0.44518 0.08286 0.0
H987 H 0.02285 0.43307 0.06881 0.0
H988 H 0.98131 0.4422 0.08949 0.0
H989 H 0.9881 0.39343 0.03202 0.0
H990 H 0.99152 0.39702 0.1601 0.0
C991 C 0.02727 0.40356 0.08452 0.0
C992 C 0.99612 0.41891 0.98122 0.0
C993 C 1.00074 0.42171 0.19461 0.0
C994 C 0.96425 0.42072 0.09422 0.0
H995 H 0.02158 0.40881 0.94963 0.0
H996 H 0.0378 0.39873 1.00592 0.0
H997 H 0.04284 0.40568 0.15693 0.0
H998 H 0.02884 0.41777 0.21506 0.0
H999 H 0.97432 0.42642 0.22922 0.0
H1000 H 0.95407 0.42507 0.17545 0.0
H1001 H 0.95048 0.42275 0.01673 0.0
H1002 H 0.96825 0.4227 0.95553 0.0
H1003 H 0.97395 0.37332 0.03969 0.0
H1004 H 0.97703 0.37718 0.16983 0.0
H1005 H 0.98522 0.46582 0.07759 0.0
H1006 H 0.02748 0.45731 0.05534 0.0
C1007 C 0.86526 0.75329 0.25027 0.0
C1008 C 0.87455 0.76164 0.23068 0.0
C1009 C 0.88273 0.76701 0.26037 0.0
C1010 C 0.87807 0.76153 0.29613 0.0
N1011 N 0.86752 0.75308 0.29085 0.0
Co1012 Co 0.85908 0.7419 0.334 0.0
N1013 N 0.86517 0.75462 0.37732 0.0
C1014 C 0.87575 0.76322 0.37323 0.0
C1015 C 0.87944 0.76938 0.40879 0.0
C1016 C 0.87081 0.76426 0.43743 0.0
C1017 C 0.86205 0.75532 0.41765 0.0
N1018 N 0.85115 0.73061 0.37813 0.0
C1019 C 0.84801 0.7338 0.41752 0.0
C1020 C 0.84118 0.723 0.43545 0.0
C1021 C 0.84091 0.71265 0.40753 0.0
C1022 C 0.84722 0.71763 0.37342 0.0
N1023 N 0.85303 0.72968 0.28954 0.0
C1024 C 0.84871 0.7169 0.29461 0.0
C1025 C 0.84348 0.71159 0.25917 0.0
C1026 C 0.84459 0.72169 0.23029 0.0
C1027 C 0.85052 0.73269 0.24951 0.0
N1028 N 0.87645 0.73142 0.34014 0.0
C1029 C 0.89969 0.71409 0.34876 0.0
C1030 C 0.89468 0.7181 0.31028 0.0
C1031 C 0.88318 0.72661 0.30666 0.0
C1032 C 0.8927 0.71918 0.38276 0.0
C1033 C 0.88131 0.7278 0.37788 0.0
N1034 N 0.84121 0.75137 0.32707 0.0
C1035 C 0.81687 0.7482 0.31819 0.0
C1036 C 0.81522 0.76104 0.30118 0.0
C1037 C 0.82694 0.76936 0.29958 0.0
C1038 C 0.83981 0.76434 0.31266 0.0
C1039 C 0.82965 0.74364 0.33044 0.0
H1040 H 0.84866 0.77076 0.3096 0.0
H1041 H 0.82999 0.73337 0.34056 0.0
H1042 H 0.87959 0.72911 0.27651 0.0
H1043 H 0.87632 0.73135 0.40501 0.0
C1044 C 0.88167 0.76567 0.33524 0.0
C1045 C 0.85448 0.74568 0.22952 0.0
C1046 C 0.8523 0.74644 0.43929 0.0
C1047 C 0.84665 0.7118 0.33422 0.0
H1048 H 0.87524 0.76372 0.19839 0.0
H1049 H 0.89074 0.77442 0.25646 0.0
H1050 H 0.88763 0.77653 0.41355 0.0
H1051 H 0.87156 0.76639 0.46959 0.0
H1052 H 0.83661 0.72259 0.4653 0.0
H1053 H 0.83589 0.70296 0.41089 0.0
H1054 H 0.83856 0.70187 0.25536 0.0
H1055 H 0.84116 0.72103 0.19914 0.0
H1056 H 0.89944 0.71446 0.28272 0.0
H1057 H 0.89608 0.71668 0.41322 0.0
H1058 H 0.80829 0.74142 0.32162 0.0
H1059 H 0.82631 0.77948 0.28704 0.0
C1060 C 0.51734 0.41262 0.02862 0.0
C1061 C 0.50596 0.40748 0.04848 0.0
C1062 C 0.49815 0.4013 0.01969 0.0
C1063 C 0.50498 0.40317 0.98387 0.0
N1064 N 0.51669 0.41011 0.98807 0.0
Co1065 Co 0.52908 0.41568 0.94292 0.0
N1066 N 0.51468 0.4125 0.90115 0.0
C1067 C 0.5027 0.40623 0.90746 0.0
C1068 C 0.49415 0.40656 0.87457 0.0
C1069 C 0.50123 0.41325 0.84514 0.0
C1070 C 0.51389 0.41639 0.86157 0.0
N1071 N 0.54138 0.42077 0.89703 0.0
C1072 C 0.53885 0.42226 0.85628 0.0
C1073 C 0.55087 0.42425 0.83513 0.0
C1074 C 0.56122 0.42379 0.86329 0.0
C1075 C 0.55502 0.4215 0.90012 0.0
N1076 N 0.54301 0.41916 0.98552 0.0
C1077 C 0.55642 0.42044 0.97876 0.0
C1078 C 0.56354 0.42321 1.01385 0.0
C1079 C 0.55398 0.42366 0.04445 0.0
C1080 C 0.54149 0.42117 0.0264 0.0
N1081 N 0.53601 0.39665 0.93747 0.0
C1082 C 0.55476 0.3746 0.92974 0.0
C1083 C 0.55004 0.37911 0.96799 0.0
C1084 C 0.54078 0.38997 0.97116 0.0
C1085 C 0.54848 0.38051 0.8955 0.0
C1086 C 0.53907 0.39128 0.90002 0.0
N1087 N 0.52343 0.435 0.94881 0.0
C1088 C 0.53096 0.45836 0.95212 0.0
C1089 C 0.51808 0.46292 0.96349 0.0
C1090 C 0.50778 0.45305 0.96763 0.0
C1091 C 0.51063 0.43916 0.9598 0.0
C1092 C 0.5334 0.44463 0.94529 0.0
H1093 H 0.50256 0.43182 0.96308 0.0
H1094 H 0.54365 0.44191 0.9381 0.0
H1095 H 0.53823 0.39357 1.00119 0.0
H1096 H 0.53506 0.39586 0.87281 0.0
C1097 C 0.49911 0.40157 0.94581 0.0
C1098 C 0.52857 0.41965 0.0492 0.0
C1099 C 0.52547 0.42048 0.83614 0.0
C1100 C 0.5614 0.42103 0.9386 0.0
H1101 H 0.50318 0.40838 0.08013 0.0
H1102 H 0.48816 0.39691 0.02394 0.0
H1103 H 0.48391 0.4026 0.87242 0.0
H1104 H 0.49771 0.41502 0.81435 0.0
H1105 H 0.55203 0.42555 0.80261 0.0
H1106 H 0.57199 0.42499 0.85752 0.0
H1107 H 0.57433 0.42514 0.01672 0.0
H1108 H 0.55595 0.42551 0.07636 0.0
H1109 H 0.55385 0.37462 0.99582 0.0
H1110 H 0.55134 0.37742 0.86512 0.0
H1111 H 0.53935 0.46541 0.94905 0.0
H1112 H 0.4976 0.45603 0.97621 0.0
C1113 C 0.86685 0.26871 0.27757 0.0
C1114 C 0.87546 0.26035 0.29969 0.0
C1115 C 0.8827 0.25301 0.27181 0.0
C1116 C 0.87819 0.25742 0.2345 0.0
N1117 N 0.8687 0.26715 0.23718 0.0
Co1118 Co 0.86057 0.27721 0.19102 0.0
N1119 N 0.8652 0.26249 0.15222 0.0
C1120 C 0.87348 0.25193 0.16015 0.0
C1121 C 0.87385 0.24258 0.12943 0.0
C1122 C 0.86553 0.24768 0.09982 0.0
C1123 C 0.86078 0.26011 0.1137 0.0
N1124 N 0.85318 0.28749 0.14374 0.0
C1125 C 0.85152 0.28384 0.10388 0.0
C1126 C 0.84756 0.29491 0.08078 0.0
C1127 C 0.84687 0.3058 0.10682 0.0
C1128 C 0.85052 0.30087 0.14443 0.0
N1129 N 0.85544 0.2912 0.23151 0.0
C1130 C 0.85175 0.30395 0.22282 0.0
C1131 C 0.84686 0.31058 0.25664 0.0
C1132 C 0.84748 0.30134 0.28824 0.0
C1133 C 0.85273 0.28952 0.27208 0.0
N1134 N 0.87851 0.28643 0.18099 0.0
C1135 C 0.90158 0.30321 0.1622 0.0
C1136 C 0.89636 0.3022 0.20207 0.0
C1137 C 0.88499 0.29376 0.21081 0.0
C1138 C 0.89498 0.29527 0.13252 0.0
C1139 C 0.88373 0.28705 0.14238 0.0
N1140 N 0.84229 0.26905 0.20107 0.0
C1141 C 0.81812 0.27333 0.20922 0.0
C1142 C 0.8159 0.26066 0.22718 0.0
C1143 C 0.82734 0.25202 0.23034 0.0
C1144 C 0.84038 0.25636 0.217 0.0
C1145 C 0.83112 0.27722 0.19654 0.0
H1146 H 0.84894 0.24964 0.22081 0.0
H1147 H 0.83206 0.28733 0.185 0.0
H1148 H 0.88129 0.29342 0.24172 0.0
H1149 H 0.879 0.28153 0.11798 0.0
C1150 C 0.87993 0.25056 0.19786 0.0
C1151 C 0.85617 0.27707 0.29552 0.0
C1152 C 0.85479 0.27037 0.08631 0.0
C1153 C 0.85017 0.30797 0.1818 0.0
H1154 H 0.87593 0.25923 0.33244 0.0
H1155 H 0.88962 0.24475 0.27807 0.0
H1156 H 0.87946 0.23317 0.12865 0.0
H1157 H 0.8638 0.24313 0.07032 0.0
H1158 H 0.84561 0.29514 0.04837 0.0
H1159 H 0.84393 0.31605 0.09921 0.0
H1160 H 0.84256 0.32065 0.25779 0.0
H1161 H 0.84433 0.30309 0.31929 0.0
H1162 H 0.90104 0.30784 0.22661 0.0
H1163 H 0.8982 0.29561 0.10107 0.0
H1164 H 0.80998 0.28064 0.20655 0.0
H1165 H 0.82633 0.24202 0.24347 0.0
C1166 C 1.00883 0.61068 0.52417 0.0
C1167 C 0.01946 0.61696 0.5448 0.0
C1168 C 0.02743 0.62298 0.51611 0.0
C1169 C 0.02139 0.61998 0.47964 0.0
N1170 N 1.01001 0.61249 0.48342 0.0
Co1171 Co 0.99878 0.60526 0.43786 0.0
N1172 N 0.0138 0.60808 0.39799 0.0
C1173 C 0.02539 0.61499 0.40483 0.0
C1174 C 0.03469 0.61388 0.37407 0.0
C1175 C 0.02851 0.60601 0.34545 0.0
C1176 C 0.01556 0.60304 0.35995 0.0
N1177 N 0.98764 0.59833 0.39146 0.0
C1178 C 0.99096 0.59615 0.35153 0.0
C1179 C 0.97947 0.59296 0.32903 0.0
C1180 C 0.96864 0.59334 0.35542 0.0
C1181 C 0.97404 0.59678 0.39259 0.0
N1182 N 0.98424 0.60216 0.47882 0.0
C1183 C 0.97105 0.60006 0.4702 0.0
C1184 C 0.96339 0.59797 0.50464 0.0
C1185 C 0.97236 0.59882 0.5368 0.0
C1186 C 0.98506 0.60135 0.52026 0.0
N1187 N 0.99114 0.62374 0.42653 0.0
C1188 C 0.97403 0.64629 0.40602 0.0
C1189 C 0.97581 0.64199 0.44661 0.0
C1190 C 0.98446 0.63093 0.4562 0.0
C1191 C 0.98174 0.63935 0.37654 0.0
C1192 C 0.99016 0.62836 0.38728 0.0
N1193 N 1.00535 0.58658 0.44925 0.0
C1194 C 0.99953 0.56306 0.46177 0.0
C1195 C 1.01297 0.55983 0.47177 0.0
C1196 C 0.02263 0.57038 0.46944 0.0
C1197 C 0.01862 0.58366 0.45846 0.0
C1198 C 0.99601 0.57628 0.45038 0.0
H1199 H 0.0262 0.59156 0.45788 0.0
H1200 H 0.98553 0.57811 0.44307 0.0
H1201 H 0.98529 0.62788 0.48766 0.0
H1202 H 0.99536 0.62319 0.36312 0.0
C1203 C 0.02797 0.62089 0.44239 0.0
C1204 C 0.99756 0.60365 0.54459 0.0
C1205 C 1.00456 0.5983 0.33313 0.0
C1206 C 0.96692 0.598 0.42962 0.0
H1207 H 0.02147 0.61698 0.57717 0.0
H1208 H 0.03706 0.62805 0.52109 0.0
H1209 H 0.04484 0.6181 0.37288 0.0
H1210 H 0.03276 0.60341 0.31612 0.0
H1211 H 0.97895 0.59092 0.29672 0.0
H1212 H 0.95808 0.59142 0.34823 0.0
H1213 H 0.95266 0.59557 0.50619 0.0
H1214 H 0.96988 0.59767 0.56869 0.0
H1215 H 0.9705 0.64708 0.47101 0.0
H1216 H 0.98093 0.64201 0.34467 0.0
H1217 H 0.9917 0.55534 0.46211 0.0
H1218 H 0.03319 0.56847 0.47677 0.0
C1219 C 0.66031 0.75256 0.77995 0.0
C1220 C 0.65138 0.76102 0.80041 0.0
C1221 C 0.64417 0.76785 0.77115 0.0
C1222 C 0.64899 0.76305 0.73472 0.0
N1223 N 0.65866 0.75359 0.73926 0.0
Co1224 Co 0.66719 0.74309 0.69493 0.0
N1225 N 0.66262 0.75725 0.65391 0.0
C1226 C 0.6538 0.76751 0.6597 0.0
C1227 C 0.65332 0.77641 0.62775 0.0
C1228 C 0.66214 0.77133 0.59959 0.0
C1229 C 0.66728 0.7593 0.61544 0.0
N1230 N 0.67518 0.73243 0.64969 0.0
C1231 C 0.67786 0.73592 0.61023 0.0
C1232 C 0.68233 0.7247 0.58874 0.0
C1233 C 0.68234 0.71394 0.61548 0.0
C1234 C 0.67779 0.71906 0.65187 0.0
N1235 N 0.67202 0.72957 0.73738 0.0
C1236 C 0.67559 0.71669 0.73031 0.0
C1237 C 0.68015 0.71037 0.76518 0.0
C1238 C 0.6794 0.71995 0.79573 0.0
C1239 C 0.67439 0.73166 0.77797 0.0
N1240 N 0.64946 0.73361 0.68442 0.0
C1241 C 0.62657 0.71663 0.66594 0.0
C1242 C 0.63133 0.7183 0.70614 0.0
C1243 C 0.64261 0.72685 0.71471 0.0
C1244 C 0.63354 0.72398 0.63566 0.0
C1245 C 0.64474 0.73228 0.64535 0.0
N1246 N 0.68528 0.7515 0.7055 0.0
C1247 C 0.7093 0.74737 0.71706 0.0
C1248 C 0.71149 0.76064 0.72997 0.0
C1249 C 0.7002 0.76949 0.72904 0.0
C1250 C 0.68716 0.7647 0.71704 0.0
C1251 C 0.69639 0.74311 0.70486 0.0
H1252 H 0.67859 0.77154 0.71788 0.0
H1253 H 0.69548 0.73271 0.69619 0.0
H1254 H 0.64595 0.72774 0.74591 0.0
H1255 H 0.64983 0.7373 0.62058 0.0
C1256 C 0.64716 0.76924 0.69693 0.0
C1257 C 0.67084 0.74439 0.79978 0.0
C1258 C 0.67498 0.74932 0.59121 0.0
C1259 C 0.67759 0.71227 0.68985 0.0
H1260 H 0.6506 0.76248 0.83296 0.0
H1261 H 0.63699 0.77599 0.77591 0.0
H1262 H 0.64746 0.78565 0.62548 0.0
H1263 H 0.66425 0.7759 0.57037 0.0
H1264 H 0.68505 0.72427 0.55688 0.0
H1265 H 0.6855 0.70367 0.6092 0.0
H1266 H 0.68436 0.70029 0.76772 0.0
H1267 H 0.68232 0.71846 0.82711 0.0
H1268 H 0.62633 0.71311 0.73101 0.0
H1269 H 0.63063 0.72308 0.604 0.0
H1270 H 0.7176 0.74017 0.71612 0.0
H1271 H 0.70135 0.77993 0.73846 0.0
C1272 C 0.48373 0.41953 0.52995 0.0
C1273 C 0.47352 0.42627 0.55066 0.0
C1274 C 0.46657 0.43376 0.52234 0.0
C1275 C 0.47289 0.4312 0.48595 0.0
N1276 N 0.48321 0.42229 0.48912 0.0
Co1277 Co 0.49608 0.41763 0.44381 0.0
N1278 N 0.48495 0.427 0.40099 0.0
C1279 C 0.47402 0.4348 0.40829 0.0
C1280 C 0.46827 0.44 0.37353 0.0
C1281 C 0.47616 0.43533 0.34218 0.0
C1282 C 0.48641 0.4276 0.35954 0.0
N1283 N 0.50948 0.41345 0.39944 0.0
C1284 C 0.50929 0.416 0.35871 0.0
C1285 C 0.52168 0.41274 0.34079 0.0
C1286 C 0.52977 0.40767 0.37064 0.0
C1287 C 0.52205 0.40833 0.40508 0.0
N1288 N 0.50727 0.40782 0.48583 0.0
C1289 C 0.51966 0.40236 0.47972 0.0
C1290 C 0.52521 0.39632 0.51326 0.0
C1291 C 0.51591 0.39821 0.5432 0.0
C1292 C 0.50509 0.40533 0.5261 0.0
N1293 N 0.48555 0.40054 0.43232 0.0
C1294 C 0.46924 0.37689 0.4148 0.0
C1295 C 0.48365 0.37691 0.41138 0.0
C1296 C 0.49151 0.38864 0.42054 0.0
C1297 C 0.4635 0.38924 0.4274 0.0
C1298 C 0.47163 0.4007 0.43526 0.0
N1299 N 0.50561 0.43516 0.45566 0.0
C1300 C 0.50933 0.45235 0.50713 0.0
C1301 C 0.50851 0.46275 0.47824 0.0
C1302 C 0.50797 0.45892 0.43713 0.0
C1303 C 0.50666 0.4451 0.42651 0.0
C1304 C 0.50823 0.43875 0.49521 0.0
H1305 H 0.50558 0.44266 0.39477 0.0
H1306 H 0.50848 0.43135 0.51894 0.0
H1307 H 0.50241 0.38802 0.4177 0.0
H1308 H 0.46637 0.40976 0.44364 0.0
C1309 C 0.46926 0.43662 0.44804 0.0
C1310 C 0.49427 0.41143 0.55079 0.0
C1311 C 0.49797 0.42207 0.33595 0.0
C1312 C 0.52604 0.40336 0.44249 0.0
H1313 H 0.47156 0.42607 0.58306 0.0
H1314 H 0.45804 0.44043 0.52776 0.0
H1315 H 0.45941 0.44644 0.3712 0.0
H1316 H 0.47472 0.43763 0.31026 0.0
H1317 H 0.52484 0.41407 0.30957 0.0
H1318 H 0.54006 0.40393 0.36759 0.0
H1319 H 0.53505 0.39151 0.51596 0.0
H1320 H 0.51748 0.39529 0.57454 0.0
H1321 H 0.48904 0.36803 0.40125 0.0
H1322 H 0.45268 0.39028 0.43174 0.0
H1323 H 0.51019 0.45473 0.53921 0.0
H1324 H 0.50762 0.46656 0.41348 0.0
C1325 C 0.34935 0.72927 0.27485 0.0
C1326 C 0.34201 0.71871 0.29193 0.0
C1327 C 0.33538 0.71235 0.26066 0.0
C1328 C 0.33906 0.71928 0.22614 0.0
N1329 N 0.34786 0.72946 0.23332 0.0
Co1330 Co 0.35451 0.7426 0.19107 0.0
N1331 N 0.34554 0.73282 0.14428 0.0
C1332 C 0.33677 0.72243 0.1484 0.0
C1333 C 0.33107 0.71838 0.11224 0.0
C1334 C 0.33635 0.72689 0.08328 0.0
C1335 C 0.34509 0.73565 0.10331 0.0
N1336 N 0.36133 0.75586 0.14934 0.0
C1337 C 0.36092 0.7556 0.10793 0.0
C1338 C 0.36895 0.76575 0.09114 0.0
C1339 C 0.37393 0.77313 0.12271 0.0
C1340 C 0.36898 0.76691 0.15685 0.0
N1341 N 0.36349 0.75269 0.23727 0.0
C1342 C 0.37019 0.76457 0.23378 0.0
C1343 C 0.37509 0.76956 0.26962 0.0
C1344 C 0.37111 0.76048 0.29829 0.0
C1345 C 0.36401 0.75027 0.27822 0.0
N1346 N 0.37135 0.73122 0.18316 0.0
C1347 C 0.39488 0.71436 0.17112 0.0
C1348 C 0.39594 0.72845 0.17793 0.0
C1349 C 0.38423 0.73658 0.18373 0.0
C1350 C 0.38162 0.70908 0.17032 0.0
C1351 C 0.3702 0.71753 0.17652 0.0
N1352 N 0.33719 0.75307 0.19899 0.0
C1353 C 0.31777 0.75637 0.24373 0.0
C1354 C 0.30874 0.75728 0.21072 0.0
C1355 C 0.3147 0.75787 0.17176 0.0
C1356 C 0.32884 0.756 0.1667 0.0
C1357 C 0.3318 0.75459 0.23722 0.0
H1358 H 0.33277 0.75621 0.13627 0.0
H1359 H 0.33803 0.75359 0.26365 0.0
H1360 H 0.38575 0.74721 0.18872 0.0
H1361 H 0.36043 0.71274 0.17611 0.0
C1362 C 0.33418 0.71683 0.18677 0.0
C1363 C 0.35645 0.73959 0.29991 0.0
C1364 C 0.35168 0.74735 0.08307 0.0
C1365 C 0.37231 0.77054 0.19622 0.0
H1366 H 0.34114 0.71622 0.32391 0.0
H1367 H 0.32841 0.7039 0.26298 0.0
H1368 H 0.32372 0.71038 0.10758 0.0
H1369 H 0.33373 0.7269 0.05131 0.0
H1370 H 0.37064 0.76788 0.05922 0.0
H1371 H 0.38053 0.78189 0.12101 0.0
H1372 H 0.38078 0.77882 0.27441 0.0
H1373 H 0.37296 0.76173 0.33041 0.0
H1374 H 0.4058 0.7333 0.17849 0.0
H1375 H 0.37999 0.69835 0.16588 0.0
H1376 H 0.31405 0.75625 0.2747 0.0
H1377 H 0.30847 0.75939 0.14496 0.0
C1378 C 0.04588 0.60013 0.02061 0.0
C1379 C 0.0585 0.597 0.03687 0.0
C1380 C 0.06739 0.59612 1.00461 0.0
C1381 C 0.05976 0.59879 0.97039 0.0
N1382 N 0.04668 0.60129 0.97922 0.0
Co1383 Co 0.0322 0.60518 0.93861 0.0
N1384 N 0.04311 0.59851 0.89152 0.0
C1385 C 0.05667 0.59667 0.89244 0.0
C1386 C 0.06194 0.59345 0.85498 0.0
C1387 C 0.05106 0.59353 0.82864 0.0
C1388 C 0.03968 0.59674 0.85147 0.0
N1389 N 0.01718 0.60866 0.89907 0.0
C1390 C 0.01526 0.60408 0.86055 0.0
C1391 C 1.00238 0.6075 0.84632 0.0
C1392 C 0.99642 0.61519 0.8757 0.0
C1393 C 1.00576 0.61575 0.90656 0.0
N1394 N 0.02125 0.61233 0.98478 0.0
C1395 C 1.01007 0.62015 0.9816 0.0
C1396 C 1.00418 0.62304 0.0183 0.0
C1397 C 1.01203 0.61659 0.04651 0.0
C1398 C 0.02245 0.61019 0.02539 0.0
N1399 N 0.04027 0.62362 0.9288 0.0
C1400 C 0.05735 0.64642 0.91063 0.0
C1401 C 0.04931 0.64009 0.88064 0.0
C1402 C 0.04098 0.62886 0.89017 0.0
C1403 C 0.05599 0.64137 0.95052 0.0
C1404 C 0.04729 0.63025 0.95901 0.0
N1405 N 0.0252 0.58652 0.94876 0.0
C1406 C 1.00855 0.57099 0.97702 0.0
C1407 C 0.01781 0.56008 0.97584 0.0
C1408 C 0.0306 0.56273 0.95892 0.0
C1409 C 0.03406 0.57583 0.94591 0.0
C1410 C 1.01237 0.58402 0.96308 0.0
H1411 H 0.04427 0.57732 0.9353 0.0
H1412 H 1.00508 0.59215 0.96518 0.0
H1413 H 0.03556 0.6241 0.86559 0.0
H1414 H 0.04667 0.62674 0.99006 0.0
C1415 C 0.06383 0.59714 0.92963 0.0
C1416 C 0.03352 0.60269 0.04523 0.0
C1417 C 0.02608 0.59922 0.83341 0.0
C1418 C 1.00343 0.62144 0.94451 0.0
H1419 H 0.06098 0.59549 0.06865 0.0
H1420 H 0.07804 0.59338 1.00593 0.0
H1421 H 0.07244 0.5913 0.84761 0.0
H1422 H 0.05148 0.59172 0.7962 0.0
H1423 H 0.99803 0.60529 0.81679 0.0
H1424 H 0.98638 0.61967 0.87488 0.0
H1425 H 0.9947 0.62829 0.02369 0.0
H1426 H 1.01005 0.6164 0.07888 0.0
H1427 H 0.04978 0.64349 0.84933 0.0
H1428 H 0.0616 0.646 0.97523 0.0
H1429 H 0.99842 0.56956 0.98914 0.0
H1430 H 0.03825 0.55487 0.95753 0.0
C1431 C 0.18049 0.29356 0.77302 0.0
C1432 C 0.18875 0.3042 0.78544 0.0
C1433 C 0.19174 0.31167 0.75143 0.0
C1434 C 0.18551 0.30511 0.71977 0.0
N1435 N 0.1787 0.29397 0.73151 0.0
Co1436 Co 0.17121 0.27996 0.69346 0.0
N1437 N 0.17823 0.28915 0.64297 0.0
C1438 C 0.18418 0.30139 0.64217 0.0
C1439 C 0.18724 0.30575 0.60353 0.0
C1440 C 0.1829 0.29563 0.57807 0.0
C1441 C 0.17749 0.28557 0.60264 0.0
N1442 N 0.16422 0.26539 0.65661 0.0
C1443 C 0.16668 0.2628 0.61659 0.0
C1444 C 0.16145 0.25025 0.60542 0.0
C1445 C 0.15467 0.24529 0.63833 0.0
C1446 C 0.15649 0.25478 0.66811 0.0
N1447 N 0.16323 0.27104 0.74288 0.0
C1448 C 0.15364 0.26132 0.74233 0.0
C1449 C 0.14787 0.25883 0.77951 0.0
C1450 C 0.15426 0.26746 0.80563 0.0
C1451 C 0.16389 0.27446 0.78294 0.0
N1452 N 0.15391 0.29072 0.68712 0.0
C1453 C 0.13219 0.31002 0.6776 0.0
C1454 C 0.13706 0.3023 0.64461 0.0
C1455 C 0.14771 0.29272 0.65003 0.0
C1456 C 0.13802 0.30699 0.71581 0.0
C1457 C 0.14875 0.29762 0.71977 0.0
N1458 N 0.18909 0.27007 0.70006 0.0
C1459 C 0.20799 0.26497 0.74579 0.0
C1460 C 0.21757 0.26658 0.71449 0.0
C1461 C 0.21226 0.268 0.67495 0.0
C1462 C 0.19818 0.26947 0.66844 0.0
C1463 C 0.19394 0.26639 0.73777 0.0
H1464 H 0.19492 0.27062 0.63754 0.0
H1465 H 0.18723 0.26495 0.76291 0.0
H1466 H 0.15115 0.28728 0.62365 0.0
H1467 H 0.15311 0.29636 0.74955 0.0
C1468 C 0.18734 0.30804 0.67847 0.0
C1469 C 0.17424 0.28337 0.80106 0.0
C1470 C 0.17215 0.27257 0.58677 0.0
C1471 C 0.15129 0.2539 0.70726 0.0
H1472 H 0.19271 0.30628 0.81536 0.0
H1473 H 0.19834 0.32043 0.74976 0.0
H1474 H 0.1922 0.31511 0.59488 0.0
H1475 H 0.18377 0.29559 0.54527 0.0
H1476 H 0.16202 0.24537 0.57604 0.0
H1477 H 0.14906 0.23587 0.6403 0.0
H1478 H 0.14016 0.25139 0.78693 0.0
H1479 H 0.15235 0.26821 0.83797 0.0
H1480 H 0.13303 0.30391 0.61433 0.0
H1481 H 0.1345 0.31195 0.74313 0.0
H1482 H 0.21126 0.26323 0.77683 0.0
H1483 H 0.21896 0.26831 0.64886 0.0
C1484 C 0.48114 0.59753 1.00929 0.0
C1485 C 0.46893 0.59357 0.99196 0.0
C1486 C 0.45962 0.59272 0.02323 0.0
C1487 C 0.46661 0.59623 0.05799 0.0
N1488 N 0.47966 0.59925 0.05031 0.0
Co1489 Co 0.49356 0.60366 0.09202 0.0
N1490 N 0.48259 0.59638 0.13801 0.0
C1491 C 0.46907 0.59423 0.13626 0.0
C1492 C 0.46382 0.59005 0.17292 0.0
C1493 C 0.47465 0.58976 0.19945 0.0
C1494 C 0.48603 0.59372 0.17756 0.0
N1495 N 0.50803 0.60776 0.13288 0.0
C1496 C 0.50987 0.60326 0.17166 0.0
C1497 C 0.52216 0.60789 0.18734 0.0
C1498 C 0.52774 0.61619 0.15863 0.0
C1499 C 0.51881 0.61592 0.12666 0.0
N1500 N 0.50448 0.61151 0.0467 0.0
C1501 C 0.51505 0.62006 0.05097 0.0
C1502 C 0.52112 0.62336 0.01482 0.0
C1503 C 0.51402 0.61642 0.98585 0.0
C1504 C 0.50378 0.60936 1.00596 0.0
N1505 N 0.48472 0.62171 0.10176 0.0
C1506 C 0.46753 0.6444 0.11944 0.0
C1507 C 0.47528 0.63791 0.1498 0.0
C1508 C 0.48364 0.62672 0.14053 0.0
C1509 C 0.46907 0.63945 0.07954 0.0
C1510 C 0.4778 0.62834 0.07131 0.0
N1511 N 0.50128 0.58528 0.08201 0.0
C1512 C 0.51793 0.57025 0.0516 0.0
C1513 C 0.50899 0.55907 0.0542 0.0
C1514 C 0.49642 0.56134 0.07271 0.0
C1515 C 0.49278 0.57432 0.08589 0.0
C1516 C 0.51397 0.58317 0.06609 0.0
H1517 H 0.48262 0.57543 0.09716 0.0
H1518 H 0.52098 0.59153 0.063 0.0
H1519 H 0.48883 0.62184 0.16542 0.0
H1520 H 0.47859 0.62488 0.04026 0.0
C1521 C 0.4622 0.59451 0.0985 0.0
C1522 C 0.49367 0.60065 0.98584 0.0
C1523 C 0.49959 0.59608 0.19623 0.0
C1524 C 0.52112 0.6218 0.08882 0.0
H1525 H 0.46698 0.59154 0.96012 0.0
H1526 H 0.44917 0.58936 0.02102 0.0
H1527 H 0.4534 0.58728 0.17948 0.0
H1528 H 0.47419 0.58716 0.23142 0.0
H1529 H 0.52663 0.60575 0.21673 0.0
H1530 H 0.53736 0.62149 0.16044 0.0
H1531 H 0.53032 0.6292 1.01033 0.0
H1532 H 0.5166 0.61631 0.95395 0.0
H1533 H 0.47459 0.64116 0.18117 0.0
H1534 H 0.46362 0.64417 0.05463 0.0
H1535 H 0.52787 0.56909 0.03795 0.0
H1536 H 0.48899 0.55328 0.07505 0.0
C1537 C 0.17457 0.73156 0.75294 0.0
C1538 C 0.18124 0.72133 0.73227 0.0
C1539 C 0.18861 0.71429 0.76069 0.0
C1540 C 0.186 0.72055 0.79712 0.0
N1541 N 0.17724 0.73095 0.79388 0.0
Co1542 Co 0.17184 0.74321 0.83991 0.0
N1543 N 0.18122 0.73199 0.88271 0.0
C1544 C 0.19003 0.72192 0.87452 0.0
C1545 C 0.19671 0.71717 0.90824 0.0
C1546 C 0.192 0.7248 0.93993 0.0
C1547 C 0.18244 0.73372 0.92404 0.0
N1548 N 0.16612 0.7555 0.8855 0.0
C1549 C 0.16657 0.75378 0.92663 0.0
C1550 C 0.15844 0.76323 0.94633 0.0
C1551 C 0.15375 0.77187 0.91732 0.0
C1552 C 0.15873 0.76692 0.8815 0.0
N1553 N 0.16273 0.7549 0.79765 0.0
C1554 C 0.1571 0.76714 0.80444 0.0
C1555 C 0.15247 0.77353 0.77024 0.0
C1556 C 0.15541 0.76494 0.73926 0.0
C1557 C 0.16157 0.75361 0.75649 0.0
N1558 N 0.15475 0.7322 0.84763 0.0
C1559 C 0.13093 0.71572 0.85956 0.0
C1560 C 0.13016 0.72991 0.85436 0.0
C1561 C 0.14203 0.73787 0.84863 0.0
C1562 C 0.14405 0.71013 0.85867 0.0
C1563 C 0.15562 0.7184 0.85246 0.0
N1564 N 0.18935 0.7533 0.83204 0.0
C1565 C 0.20875 0.7567 0.78732 0.0
C1566 C 0.21778 0.75762 0.82037 0.0
C1567 C 0.21182 0.75804 0.85937 0.0
C1568 C 0.1977 0.75605 0.86443 0.0
C1569 C 0.19472 0.75484 0.79377 0.0
H1570 H 0.19376 0.75599 0.89491 0.0
H1571 H 0.18849 0.75375 0.76727 0.0
H1572 H 0.14079 0.74862 0.84496 0.0
H1573 H 0.16529 0.7134 0.85136 0.0
C1574 C 0.19177 0.71723 0.83472 0.0
C1575 C 0.16706 0.74248 0.73191 0.0
C1576 C 0.17571 0.74448 0.94849 0.0
C1577 C 0.15546 0.772 0.84353 0.0
H1578 H 0.18122 0.71951 0.69981 0.0
H1579 H 0.19535 0.70583 0.75525 0.0
H1580 H 0.20438 0.70934 0.90952 0.0
H1581 H 0.19574 0.72416 0.97078 0.0
H1582 H 0.15628 0.764 0.9785 0.0
H1583 H 0.14714 0.7805 0.92169 0.0
H1584 H 0.14754 0.7833 0.76808 0.0
H1585 H 0.15349 0.76706 0.7075 0.0
H1586 H 0.1204 0.73496 0.85503 0.0
H1587 H 0.14544 0.69931 0.86173 0.0
H1588 H 0.21248 0.75663 0.75636 0.0
H1589 H 0.21803 0.7595 0.88621 0.0
C1590 C 0.04284 0.419 0.50274 0.0
C1591 C 0.05459 0.42394 0.48494 0.0
C1592 C 0.06264 0.42864 0.51603 0.0
C1593 C 0.05537 0.42632 0.55105 0.0
N1594 N 0.04327 0.4204 0.54421 0.0
Co1595 Co 0.02919 0.41646 0.58672 0.0
N1596 N 0.04017 0.42465 0.63219 0.0
C1597 C 0.05285 0.4296 0.62852 0.0
C1598 C 0.05837 0.43366 0.66496 0.0
C1599 C 0.0486 0.43104 0.6937 0.0
C1600 C 0.03761 0.42556 0.67315 0.0
N1601 N 0.01456 0.41312 0.62815 0.0
C1602 C 0.0135 0.41704 0.66766 0.0
C1603 C 1.00065 0.41435 0.68323 0.0
C1604 C 0.99354 0.40804 0.65324 0.0
C1605 C 1.00231 0.40748 0.62102 0.0
N1606 N 0.01824 0.40753 0.54246 0.0
C1607 C 1.00619 0.40122 0.54723 0.0
C1608 C 1.00103 0.39571 0.51235 0.0
C1609 C 1.01029 0.39876 0.4831 0.0
C1610 C 0.0207 0.40595 0.50199 0.0
N1611 N 0.03835 0.39862 0.599 0.0
C1612 C 0.05759 0.37791 0.62023 0.0
C1613 C 0.04913 0.38404 0.64942 0.0
C1614 C 0.03962 0.3941 0.63829 0.0
C1615 C 0.05516 0.38158 0.57947 0.0
C1616 C 0.04555 0.3918 0.56958 0.0
N1617 N 0.02107 0.43474 0.57423 0.0
C1618 C 0.01732 0.45213 0.52298 0.0
C1619 C 0.01839 0.46248 0.55181 0.0
C1620 C 0.0193 0.45858 0.59278 0.0
C1621 C 0.02054 0.44474 0.60329 0.0
C1622 C 0.01831 0.4385 0.53483 0.0
H1623 H 0.02169 0.44237 0.63498 0.0
H1624 H 0.01744 0.43122 0.51116 0.0
H1625 H 0.03379 0.39859 0.66222 0.0
H1626 H 0.0445 0.39453 0.53804 0.0
C1627 C 0.05918 0.43014 0.59045 0.0
C1628 C 0.03176 0.41252 0.4794 0.0
C1629 C 0.02477 0.42166 0.69336 0.0
C1630 C 0.99928 0.40184 0.5837 0.0
H1631 H 0.05708 0.42407 0.45286 0.0
H1632 H 0.07253 0.43335 0.51332 0.0
H1633 H 0.06835 0.43796 0.6701 0.0
H1634 H 0.04941 0.433 0.726 0.0
H1635 H 0.99695 0.41634 0.71364 0.0
H1636 H 0.98322 0.40427 0.65478 0.0
H1637 H 0.99137 0.39063 0.5083 0.0
H1638 H 1.00905 0.39645 0.45119 0.0
H1639 H 0.05008 0.38137 0.68127 0.0
H1640 H 0.06116 0.37712 0.55536 0.0
H1641 H 0.01616 0.45457 0.491 0.0
H1642 H 0.01987 0.46619 0.61642 0.0
C1643 C 0.35062 0.293 0.24945 0.0
C1644 C 0.34381 0.30356 0.23054 0.0
C1645 C 0.33743 0.31072 0.26058 0.0
C1646 C 0.3407 0.30419 0.29615 0.0
N1647 N 0.34906 0.29354 0.29083 0.0
Co1648 Co 0.35464 0.28055 0.33492 0.0
N1649 N 0.34654 0.2917 0.37976 0.0
C1650 C 0.33899 0.30292 0.37429 0.0
C1651 C 0.33477 0.30866 0.4101 0.0
C1652 C 0.33981 0.30048 0.44026 0.0
C1653 C 0.34676 0.29007 0.42119 0.0
N1654 N 0.35974 0.26703 0.37823 0.0
C1655 C 0.35802 0.26706 0.41936 0.0
C1656 C 0.3617 0.25466 0.43633 0.0
C1657 C 0.36623 0.24676 0.40544 0.0
C1658 C 0.36484 0.25458 0.37139 0.0
N1659 N 0.3632 0.26937 0.29059 0.0
C1660 C 0.36908 0.25717 0.29567 0.0
C1661 C 0.37435 0.25172 0.26097 0.0
C1662 C 0.37146 0.26087 0.23133 0.0
C1663 C 0.36451 0.27151 0.24972 0.0
N1664 N 0.37227 0.29071 0.34297 0.0
C1665 C 0.39655 0.3064 0.35858 0.0
C1666 C 0.39625 0.29207 0.3619 0.0
C1667 C 0.38423 0.28452 0.35369 0.0
C1668 C 0.38419 0.3124 0.34675 0.0
C1669 C 0.37241 0.30458 0.33978 0.0
N1670 N 0.33662 0.27134 0.32721 0.0
C1671 C 0.31748 0.26743 0.28168 0.0
C1672 C 0.30816 0.26781 0.31402 0.0
C1673 C 0.31374 0.26833 0.35348 0.0
C1674 C 0.32786 0.26989 0.35935 0.0
C1675 C 0.33153 0.26897 0.28897 0.0
H1676 H 0.33147 0.27066 0.39012 0.0
H1677 H 0.33806 0.26897 0.26305 0.0
H1678 H 0.38467 0.27366 0.35662 0.0
H1679 H 0.36338 0.31005 0.33212 0.0
C1680 C 0.3364 0.30789 0.33516 0.0
C1681 C 0.35739 0.28207 0.22635 0.0
C1682 C 0.35233 0.27823 0.44341 0.0
C1683 C 0.36905 0.25078 0.33304 0.0
H1684 H 0.34319 0.3056 0.19822 0.0
H1685 H 0.331 0.31952 0.25683 0.0
H1686 H 0.3287 0.31771 0.41388 0.0
H1687 H 0.33825 0.30184 0.47258 0.0
H1688 H 0.36099 0.25135 0.46759 0.0
H1689 H 0.37008 0.23652 0.40756 0.0
H1690 H 0.37931 0.24202 0.25739 0.0
H1691 H 0.37373 0.25931 0.19961 0.0
H1692 H 0.40515 0.2865 0.37142 0.0
H1693 H 0.38338 0.32322 0.34247 0.0
H1694 H 0.31397 0.26669 0.25053 0.0
H1695 H 0.30723 0.26792 0.37996 0.0
H1696 H 1.00041 0.08489 0.75486 0.0
H1697 H 0.99747 0.12807 0.73277 0.0
H1698 H 1.00727 0.13256 0.80057 0.0
H1699 H 0.99018 0.0882 0.86547 0.0
H1700 H 1.00087 0.07429 0.88087 0.0
H1701 H 0.99345 0.0745 0.8307 0.0
H1702 H 0.0175 0.07179 0.79994 0.0
H1703 H 0.02502 0.07208 0.84998 0.0
H1704 H 0.03047 0.08407 0.81192 0.0
H1705 H 0.02122 0.13233 0.86496 0.0
H1706 H 0.03 0.12822 0.93435 0.0
H1707 H 0.02001 0.08566 0.92317 0.0
C1708 C 1.0013 0.09527 0.76498 0.0
C1709 C 0.99822 0.10616 0.7381 0.0
C1710 C 0.99971 0.11959 0.75264 0.0
C1711 C 1.00548 0.12224 0.79093 0.0
C1712 C 1.00921 0.11135 0.81558 0.0
C1713 C 1.00649 0.09815 0.80431 0.0
C1714 C 1.01055 0.08847 0.83854 0.0
C1715 C 0.99802 0.08092 0.85487 0.0
C1716 C 0.02154 0.07851 0.82422 0.0
C1717 C 0.01625 0.09829 0.87015 0.0
C1718 C 0.0158 0.11138 0.85536 0.0
C1719 C 0.02129 0.12217 0.87728 0.0
C1720 C 0.02649 0.1197 0.91645 0.0
C1721 C 0.0257 0.10666 0.93435 0.0
C1722 C 0.02086 0.09572 0.91028 0.0
H1723 H 0.1809 0.76904 0.98844 0.0
H1724 H 0.1766 0.72603 1.01234 0.0
H1725 H 0.18026 0.73032 0.08551 0.0
H1726 H 0.20228 0.77988 0.07322 0.0
H1727 H 0.19213 0.79458 0.0845 0.0
H1728 H 0.19291 0.78819 0.03318 0.0
H1729 H 0.16669 0.78615 0.03113 0.0
H1730 H 0.16583 0.79272 0.08212 0.0
H1731 H 0.15809 0.77665 0.07029 0.0
H1732 H 0.18452 0.73949 0.15693 0.0
H1733 H 0.18145 0.75187 0.22093 0.0
H1734 H 0.17534 0.78916 0.15351 0.0
C1735 C 0.18073 0.76044 1.00885 0.0
C1736 C 0.17886 0.74703 0.9935 0.0
C1737 C 0.17868 0.73628 0.02218 0.0
C1738 C 0.18061 0.73866 0.06415 0.0
C1739 C 0.18202 0.75199 0.07794 0.0
C1740 C 0.18148 0.76274 0.05123 0.0
C1741 C 0.18033 0.7761 0.07445 0.0
C1742 C 0.19265 0.78523 0.06581 0.0
C1743 C 0.16694 0.78333 0.06388 0.0
C1744 C 0.1804 0.77119 0.11855 0.0
C1745 C 0.18205 0.75728 0.11954 0.0
C1746 C 0.18297 0.75033 0.1563 0.0
C1747 C 0.18135 0.75755 0.19274 0.0
C1748 C 0.1781 0.77158 0.19298 0.0
C1749 C 0.17805 0.77856 0.15504 0.0
H1750 H 0.52156 0.90434 0.25096 0.0
H1751 H 0.52958 0.94738 0.24387 0.0
H1752 H 0.52152 0.95004 0.31499 0.0
H1753 H 0.49007 0.90809 0.30144 0.0
H1754 H 0.49168 0.89294 0.33172 0.0
H1755 H 0.50003 0.89407 0.28309 0.0
H1756 H 0.52325 0.88878 0.31691 0.0
H1757 H 0.51491 0.88734 0.36549 0.0
H1758 H 0.52894 0.8989 0.35925 0.0
H1759 H 0.5114 0.94783 0.38771 0.0
H1760 H 0.50139 0.94087 0.45363 0.0
H1761 H 0.49651 0.90005 0.40829 0.0
C1762 C 0.52197 0.91428 0.2648 0.0
C1763 C 0.52644 0.92563 0.24187 0.0
C1764 C 0.5265 0.93849 0.2609 0.0
C1765 C 0.52176 0.94011 0.30119 0.0
C1766 C 0.51672 0.92881 0.32207 0.0
C1767 C 0.5168 0.91613 0.30434 0.0
C1768 C 0.50985 0.90578 0.33158 0.0
C1769 C 0.49716 0.89987 0.31071 0.0
C1770 C 0.51983 0.89454 0.34404 0.0
C1771 C 0.50598 0.9145 0.3678 0.0
C1772 C 0.51015 0.92773 0.36204 0.0
C1773 C 0.50817 0.93746 0.3923 0.0
C1774 C 0.5024 0.93344 0.42975 0.0
C1775 C 0.49856 0.9198 0.437 0.0
C1776 C 0.49973 0.91046 0.40445 0.0
H1777 H 0.37138 0.2728 0.50303 0.0
H1778 H 0.328 0.27709 0.48509 0.0
H1779 H 0.32401 0.26883 0.5554 0.0
H1780 H 0.36873 0.24111 0.55322 0.0
H1781 H 0.38286 0.24393 0.58716 0.0
H1782 H 0.38244 0.25215 0.5382 0.0
H1783 H 0.38491 0.27562 0.57253 0.0
H1784 H 0.38567 0.26744 0.62151 0.0
H1785 H 0.37318 0.28041 0.61207 0.0
H1786 H 0.32507 0.25959 0.62978 0.0
H1787 H 0.33114 0.25078 0.69834 0.0
H1788 H 0.37335 0.24862 0.66207 0.0
C1789 C 0.36105 0.27236 0.51433 0.0
C1790 C 0.35002 0.27591 0.48854 0.0
C1791 C 0.33664 0.27479 0.50431 0.0
C1792 C 0.33429 0.26991 0.54416 0.0
C1793 C 0.34537 0.26585 0.56795 0.0
C1794 C 0.3585 0.26698 0.55336 0.0
C1795 C 0.36862 0.26091 0.58329 0.0
C1796 C 0.3761 0.24881 0.56433 0.0
C1797 C 0.37869 0.27174 0.59823 0.0
C1798 C 0.35922 0.25633 0.61733 0.0
C1799 C 0.34584 0.25943 0.60832 0.0
C1800 C 0.33551 0.257 0.6367 0.0
C1801 C 0.339 0.25183 0.67551 0.0
C1802 C 0.35269 0.2489 0.68564 0.0
C1803 C 0.36277 0.25063 0.65522 0.0
H1804 H 1.00601 0.906 0.77868 0.0
H1805 H 0.99758 0.94888 0.78852 0.0
H1806 H 1.00519 0.95214 0.7171 0.0
H1807 H 0.03735 0.9106 0.72629 0.0
H1808 H 0.03563 0.89558 0.69565 0.0
H1809 H 0.02771 0.89636 0.74498 0.0
H1810 H 1.00429 0.89088 0.71281 0.0
H1811 H 1.01218 0.88985 0.66349 0.0
H1812 H 0.99807 0.90117 0.6714 0.0
H1813 H 0.01415 0.95033 0.64241 0.0
H1814 H 0.02341 0.94372 0.57504 0.0
H1815 H 0.02995 0.903 0.61977 0.0
C1816 C 1.00557 0.91607 0.76563 0.0
C1817 C 1.00107 0.92718 0.78941 0.0
C1818 C 1.00077 0.94017 0.771 0.0
C1819 C 1.00522 0.94212 0.73048 0.0
C1820 C 1.01025 0.93104 0.70869 0.0
C1821 C 1.01051 0.91827 0.72594 0.0
C1822 C 0.01733 0.90817 0.69773 0.0
C1823 C 0.03027 0.90233 0.71734 0.0
C1824 C 1.00737 0.89685 0.68565 0.0
C1825 C 0.02075 0.91714 0.66155 0.0
C1826 C 0.0164 0.93027 0.66801 0.0
C1827 C 0.01768 0.94009 0.63748 0.0
C1828 C 0.02308 0.93629 0.5993 0.0
C1829 C 0.02736 0.92282 0.59182 0.0
C1830 C 0.02669 0.91336 0.62428 0.0
H1831 H 0.34998 0.75616 0.83751 0.0
H1832 H 0.35156 0.79918 0.86297 0.0
H1833 H 0.34592 0.79461 0.93432 0.0
H1834 H 0.32692 0.74392 0.91734 0.0
H1835 H 0.33763 0.72981 0.93095 0.0
H1836 H 0.33772 0.73626 0.87957 0.0
H1837 H 0.36375 0.73978 0.88361 0.0
H1838 H 0.36376 0.73324 0.93479 0.0
H1839 H 0.37079 0.74975 0.92442 0.0
H1840 H 0.33985 0.78505 1.00464 0.0
H1841 H 0.34134 0.77253 0.06939 0.0
H1842 H 0.35181 0.73595 1.00382 0.0
C1843 C 0.34884 0.76471 0.85779 0.0
C1844 C 0.3501 0.77824 0.84264 0.0
C1845 C 0.34919 0.78889 0.87145 0.0
C1846 C 0.34636 0.78632 0.91289 0.0
C1847 C 0.3453 0.77293 0.92642 0.0
C1848 C 0.34714 0.76228 0.89995 0.0
C1849 C 0.34852 0.74898 0.92355 0.0
C1850 C 0.33701 0.73916 0.91216 0.0
C1851 C 0.36254 0.74256 0.91616 0.0
C1852 C 0.34708 0.75379 0.9675 0.0
C1853 C 0.3446 0.76758 0.96803 0.0
C1854 C 0.34215 0.77433 1.00446 0.0
C1855 C 0.34297 0.76707 0.04126 0.0
C1856 C 0.34705 0.75327 0.04237 0.0
C1857 C 0.34871 0.74646 1.00452 0.0
H1858 H 0.50686 0.08705 0.10147 0.0
H1859 H 0.49341 0.12874 0.09457 0.0
H1860 H 0.5018 0.13267 0.16446 0.0
H1861 H 0.49653 0.08317 0.21223 0.0
H1862 H 0.51043 0.07182 0.22295 0.0
H1863 H 0.50294 0.07221 0.17287 0.0
H1864 H 0.52673 0.07679 0.1424 0.0
H1865 H 0.53423 0.07691 0.19247 0.0
H1866 H 0.53632 0.09131 0.15928 0.0
H1867 H 0.51567 0.13322 0.2291 0.0
H1868 H 0.52587 0.12873 0.29636 0.0
H1869 H 0.52657 0.08576 0.26978 0.0
C1870 C 0.50517 0.09683 0.1154 0.0
C1871 C 0.49941 0.10761 0.09242 0.0
C1872 C 0.49758 0.12031 0.11164 0.0
C1873 C 0.50255 0.12269 0.15112 0.0
C1874 C 0.50889 0.11212 0.17203 0.0
C1875 C 0.50953 0.09924 0.15588 0.0
C1876 C 0.51607 0.08954 0.18651 0.0
C1877 C 0.50589 0.07853 0.19942 0.0
C1878 C 0.52911 0.08327 0.16911 0.0
C1879 C 0.51932 0.09909 0.22178 0.0
C1880 C 0.51549 0.11214 0.21187 0.0
C1881 C 0.51831 0.12297 0.23766 0.0
C1882 C 0.52433 0.12034 0.27566 0.0
C1883 C 0.52698 0.10691 0.28884 0.0
C1884 C 0.52479 0.09615 0.26079 0.0
H1885 H 0.1907 0.27087 0.52114 0.0
H1886 H 0.14776 0.26816 0.54977 0.0
H1887 H 0.14329 0.25823 0.48233 0.0
H1888 H 0.18373 0.2816 0.41312 0.0
H1889 H 0.19858 0.27312 0.39365 0.0
H1890 H 0.19858 0.27965 0.44483 0.0
H1891 H 0.20502 0.25585 0.47159 0.0
H1892 H 0.20465 0.24919 0.42057 0.0
H1893 H 0.19428 0.2416 0.45961 0.0
H1894 H 0.14389 0.24529 0.41613 0.0
H1895 H 0.14756 0.2381 0.34504 0.0
H1896 H 0.18889 0.25319 0.35051 0.0
C1897 C 0.18032 0.26847 0.51283 0.0
C1898 C 0.16963 0.26991 0.54174 0.0
C1899 C 0.15618 0.26686 0.52892 0.0
C1900 C 0.15354 0.26109 0.49065 0.0
C1901 C 0.16433 0.25901 0.46395 0.0
C1902 C 0.17734 0.26328 0.47345 0.0
C1903 C 0.18671 0.26107 0.43691 0.0
C1904 C 0.19223 0.27467 0.42119 0.0
C1905 C 0.19836 0.25135 0.44784 0.0
C1906 C 0.177 0.25461 0.40608 0.0
C1907 C 0.16426 0.25313 0.42315 0.0
C1908 C 0.15374 0.2467 0.40215 0.0
C1909 C 0.15598 0.24243 0.36189 0.0
C1910 C 0.16848 0.24503 0.34194 0.0
C1911 C 0.17926 0.25093 0.36487 0.0
H1912 H 0.01815 0.90199 0.27528 0.0
H1913 H 0.02325 0.94514 0.29235 0.0
H1914 H 0.01469 0.94918 0.22226 0.0
H1915 H 0.02574 0.9001 0.1668 0.0
H1916 H 1.0126 0.88778 0.1572 0.0
H1917 H 0.0207 0.88846 0.20635 0.0
H1918 H 0.99711 0.89117 0.24028 0.0
H1919 H 0.98897 0.89074 0.19115 0.0
H1920 H 0.98617 0.90488 0.22472 0.0
H1921 H 1.00492 0.94824 0.14875 0.0
H1922 H 0.99577 0.94238 0.08065 0.0
H1923 H 0.9935 0.90027 0.11657 0.0
C1924 C 0.01769 0.91228 0.264 0.0
C1925 C 0.02153 0.92325 0.28944 0.0
C1926 C 0.02059 0.93656 0.27347 0.0
C1927 C 0.01559 0.93894 0.23375 0.0
C1928 C 1.01128 0.92793 0.21027 0.0
C1929 C 1.01225 0.91485 0.22502 0.0
C1930 C 1.00613 0.90482 0.1951 0.0
C1931 C 0.01694 0.89469 0.1805 0.0
C1932 C 0.99387 0.89747 0.21394 0.0
C1933 C 1.00172 0.9142 0.16084 0.0
C1934 C 1.0049 0.9275 0.16984 0.0
C1935 C 1.0024 0.93784 0.14167 0.0
C1936 C 0.99711 0.93444 0.10301 0.0
C1937 C 0.99424 0.92081 0.09255 0.0
C1938 C 0.99592 0.91074 0.12298 0.0
H1939 H 0.83606 0.26677 0.02207 0.0
H1940 H 0.87921 0.26902 0.04826 0.0
H1941 H 0.88433 0.26002 0.98009 0.0
H1942 H 0.83583 0.2371 0.96168 0.0
H1943 H 0.82413 0.24304 0.92336 0.0
H1944 H 0.82339 0.24982 0.9742 0.0
H1945 H 0.82629 0.27414 0.94625 0.0
H1946 H 0.82666 0.26747 0.89526 0.0
H1947 H 0.84041 0.27795 0.91324 0.0
H1948 H 0.88481 0.24752 0.91341 0.0
H1949 H 0.88135 0.23948 0.843 0.0
H1950 H 0.83837 0.24853 0.85227 0.0
C1951 C 0.84657 0.26571 1.01295 0.0
C1952 C 0.85725 0.26845 0.04109 0.0
C1953 C 0.87086 0.26695 0.02763 0.0
C1954 C 0.87388 0.26167 0.98901 0.0
C1955 C 0.8632 0.25838 0.9629 0.0
C1956 C 0.84984 0.26092 0.97339 0.0
C1957 C 0.84046 0.25731 0.9378 0.0
C1958 C 0.83035 0.24615 0.95001 0.0
C1959 C 0.83301 0.26997 0.92221 0.0
C1960 C 0.85063 0.25209 0.90632 0.0
C1961 C 0.86363 0.25246 0.92219 0.0
C1962 C 0.87471 0.24749 0.90034 0.0
C1963 C 0.87262 0.24276 0.86047 0.0
C1964 C 0.85966 0.24343 0.84175 0.0
C1965 C 0.84842 0.24783 0.8656 0.0
H1966 H 0.51116 0.11931 0.77887 0.0
H1967 H 0.50421 0.07623 0.79172 0.0
H1968 H 0.51214 0.07276 0.72069 0.0
H1969 H 0.50309 0.12296 0.67089 0.0
H1970 H 0.51669 0.13485 0.66228 0.0
H1971 H 0.50876 0.13383 0.71155 0.0
H1972 H 0.53236 0.12971 0.74441 0.0
H1973 H 0.54032 0.13044 0.69513 0.0
H1974 H 0.54263 0.11577 0.7271 0.0
H1975 H 0.52153 0.07432 0.64681 0.0
H1976 H 0.53053 0.08069 0.5791 0.0
H1977 H 0.53492 0.12218 0.61946 0.0
C1978 C 0.5111 0.10915 0.7665 0.0
C1979 C 0.50703 0.09801 0.79105 0.0
C1980 C 0.50716 0.08492 0.7736 0.0
C1981 C 0.51179 0.08286 0.73334 0.0
C1982 C 0.51648 0.09399 0.71087 0.0
C1983 C 0.51616 0.10688 0.72704 0.0
C1984 C 0.52259 0.11706 0.69807 0.0
C1985 C 0.51216 0.12781 0.68492 0.0
C1986 C 0.53523 0.12363 0.71733 0.0
C1987 C 0.52647 0.10796 0.6627 0.0
C1988 C 0.52271 0.0947 0.67032 0.0
C1989 C 0.52455 0.08467 0.64088 0.0
C1990 C 0.5298 0.08837 0.60244 0.0
C1991 C 0.53336 0.10198 0.59348 0.0
C1992 C 0.53224 0.1117 0.62504 0.0
H1993 H 0.65593 0.75501 0.53103 0.0
H1994 H 0.69924 0.75002 0.54916 0.0
H1995 H 0.70329 0.7574 0.47782 0.0
H1996 H 0.65407 0.74539 0.42424 0.0
H1997 H 0.6417 0.75821 0.41193 0.0
H1998 H 0.64233 0.75118 0.46253 0.0
H1999 H 0.64505 0.77529 0.49229 0.0
H2000 H 0.64455 0.78238 0.44176 0.0
H2001 H 0.65876 0.78592 0.47479 0.0
H2002 H 0.70234 0.76607 0.40281 0.0
H2003 H 0.69655 0.77447 0.33374 0.0
H2004 H 0.65417 0.77683 0.36836 0.0
C2005 C 0.66628 0.75537 0.51993 0.0
C2006 C 0.6773 0.75198 0.54613 0.0
C2007 C 0.69064 0.75251 0.52996 0.0
C2008 C 0.69302 0.7568 0.48944 0.0
C2009 C 0.68197 0.7607 0.46516 0.0
C2010 C 0.66885 0.76003 0.48003 0.0
C2011 C 0.65875 0.76548 0.44887 0.0
C2012 C 0.64861 0.7544 0.43615 0.0
C2013 C 0.65134 0.77801 0.46542 0.0
C2014 C 0.66815 0.76924 0.41387 0.0
C2015 C 0.68151 0.76628 0.42358 0.0
C2016 C 0.6919 0.76843 0.39524 0.0
C2017 C 0.68853 0.7733 0.35599 0.0
C2018 C 0.67487 0.77615 0.34498 0.0
C2019 C 0.66468 0.77452 0.37522 0.0
H2020 H 0.99154 0.12138 0.40658 0.0
H2021 H 0.99635 0.08 0.44788 0.0
H2022 H 1.00586 0.07375 0.38081 0.0
H2023 H 0.98484 0.11489 0.2989 0.0
H2024 H 0.99501 0.12903 0.28226 0.0
H2025 H 0.98671 0.12955 0.33105 0.0
H2026 H 1.00992 0.13432 0.36546 0.0
H2027 H 0.01836 0.13351 0.31692 0.0
H2028 H 0.02379 0.12268 0.35804 0.0
H2029 H 0.01545 0.07228 0.30703 0.0
H2030 H 0.02348 0.07588 0.2361 0.0
H2031 H 0.01664 0.11894 0.24919 0.0
C2032 C 0.99448 0.11096 0.40141 0.0
C2033 C 0.99332 0.10125 0.43308 0.0
C2034 C 0.99713 0.08769 0.42451 0.0
C2035 C 1.00267 0.08406 0.38643 0.0
C2036 C 1.00458 0.09411 0.35699 0.0
C2037 C 1.0006 0.10732 0.36423 0.0
C2038 C 1.00468 0.11648 0.3291 0.0
C2039 C 0.99206 0.12286 0.30915 0.0
C2040 C 0.01479 0.12739 0.34323 0.0
C2041 C 1.01146 0.10641 0.30073 0.0
C2042 C 1.01111 0.09349 0.31686 0.0
C2043 C 0.01588 0.08241 0.29448 0.0
C2044 C 0.02058 0.08454 0.25429 0.0
C2045 C 0.02074 0.09767 0.23691 0.0
C2046 C 0.01672 0.10876 0.26154 0.0
H2047 H 0.67675 0.26278 0.19025 0.0
H2048 H 0.67745 0.21948 0.16866 0.0
H2049 H 0.68315 0.22373 0.0969 0.0
H2050 H 0.65584 0.26718 0.10155 0.0
H2051 H 0.66198 0.284 0.09082 0.0
H2052 H 0.66192 0.27776 0.14232 0.0
H2053 H 0.68766 0.2829 0.1479 0.0
H2054 H 0.68784 0.28895 0.0961 0.0
H2055 H 0.69923 0.2756 0.11155 0.0
H2056 H 0.6894 0.23323 0.02577 0.0
H2057 H 0.68785 0.24534 0.96022 0.0
H2058 H 0.67439 0.28142 0.0234 0.0
C2059 C 0.67823 0.25408 0.17079 0.0
C2060 C 0.67758 0.24065 0.18704 0.0
C2061 C 0.67919 0.2298 0.15917 0.0
C2062 C 0.6821 0.23217 0.1176 0.0
C2063 C 0.68254 0.24548 0.10303 0.0
C2064 C 0.67996 0.25622 0.12858 0.0
C2065 C 0.67802 0.26924 0.10408 0.0
C2066 C 0.66358 0.27488 0.11004 0.0
C2067 C 0.68883 0.2798 0.11561 0.0
C2068 C 0.68011 0.26421 0.06065 0.0
C2069 C 0.68335 0.25059 0.0611 0.0
C2070 C 0.68655 0.2438 0.02521 0.0
C2071 C 0.68573 0.25085 0.98797 0.0
C2072 C 0.68094 0.26441 0.98582 0.0
C2073 C 0.67838 0.27123 0.02322 0.0
H2074 H 0.50691 0.93707 0.75805 0.0
H2075 H 0.50607 0.89405 0.73237 0.0
H2076 H 0.51614 0.88934 0.79971 0.0
H2077 H 0.53725 0.9386 0.81434 0.0
H2078 H 0.53143 0.95001 0.85333 0.0
H2079 H 0.52377 0.95043 0.80349 0.0
H2080 H 0.49994 0.94648 0.83461 0.0
H2081 H 0.50748 0.94653 0.88462 0.0
H2082 H 0.49729 0.93234 0.86844 0.0
H2083 H 0.52961 0.88944 0.86497 0.0
H2084 H 0.53815 0.89329 0.93477 0.0
H2085 H 0.52724 0.93565 0.92546 0.0
C2086 C 0.50835 0.92664 0.76728 0.0
C2087 C 0.5057 0.9159 0.73958 0.0
C2088 C 0.50794 0.90242 0.75291 0.0
C2089 C 0.51386 0.89966 0.79095 0.0
C2090 C 0.51709 0.91044 0.81651 0.0
C2091 C 0.5138 0.92362 0.80624 0.0
C2092 C 0.51758 0.93315 0.84106 0.0
C2093 C 0.52813 0.94367 0.8272 0.0
C2094 C 0.50481 0.94003 0.85821 0.0
C2095 C 0.52375 0.92329 0.87186 0.0
C2096 C 0.52371 0.91031 0.85629 0.0
C2097 C 0.52943 0.89952 0.87777 0.0
C2098 C 0.5345 0.90184 0.91719 0.0
C2099 C 0.53346 0.91474 0.93562 0.0
C2100 C 0.52836 0.92571 0.91205 0.0
H2101 H 0.85281 0.79074 0.64662 0.0
H2102 H 0.8513 0.75257 0.71249 0.0
H2103 H 0.84932 0.74035 0.64824 0.0
H2104 H 0.82609 0.77923 0.57037 0.0
H2105 H 0.83376 0.78857 0.52921 0.0
H2106 H 0.83509 0.79476 0.58067 0.0
H2107 H 0.86128 0.79538 0.57381 0.0
H2108 H 0.86004 0.78905 0.52257 0.0
H2109 H 0.87024 0.78019 0.5596 0.0
H2110 H 0.85301 0.73199 0.57654 0.0
H2111 H 0.8553 0.72816 0.50316 0.0
H2112 H 0.84657 0.77054 0.48062 0.0
C2113 C 0.8515 0.77988 0.64789 0.0
C2114 C 0.85243 0.7728 0.68573 0.0
C2115 C 0.85091 0.75846 0.68472 0.0
C2116 C 0.84979 0.75129 0.64804 0.0
C2117 C 0.84942 0.75847 0.61165 0.0
C2118 C 0.84958 0.77246 0.61116 0.0
C2119 C 0.84827 0.77749 0.56725 0.0
C2120 C 0.83501 0.78549 0.56153 0.0
C2121 C 0.86069 0.78604 0.55511 0.0
C2122 C 0.84787 0.76416 0.54354 0.0
C2123 C 0.84898 0.75336 0.56994 0.0
C2124 C 0.85124 0.74026 0.55556 0.0
C2125 C 0.85222 0.73809 0.5133 0.0
C2126 C 0.85007 0.74873 0.4849 0.0
C2127 C 0.84769 0.76197 0.50092 0.0
H2128 H 0.50542 0.61518 0.2554 0.0
H2129 H 0.50023 0.57202 0.23907 0.0
H2130 H 0.50785 0.56819 0.31035 0.0
H2131 H 0.5365 0.61267 0.31123 0.0
H2132 H 0.53296 0.62688 0.34388 0.0
H2133 H 0.52577 0.62623 0.29346 0.0
H2134 H 0.50155 0.62886 0.3233 0.0
H2135 H 0.5087 0.62974 0.37373 0.0
H2136 H 0.49586 0.61729 0.36222 0.0
H2137 H 0.51654 0.56941 0.38558 0.0
H2138 H 0.5244 0.57561 0.45505 0.0
H2139 H 0.52678 0.61762 0.41822 0.0
C2140 C 0.50575 0.60492 0.26695 0.0
C2141 C 0.50223 0.59387 0.24132 0.0
C2142 C 0.50279 0.58064 0.25791 0.0
C2143 C 0.50724 0.57838 0.29838 0.0
C2144 C 0.51127 0.58945 0.32211 0.0
C2145 C 0.51054 0.60248 0.30679 0.0
C2146 C 0.51601 0.61265 0.33744 0.0
C2147 C 0.52855 0.62004 0.32048 0.0
C2148 C 0.50487 0.62273 0.3499 0.0
C2149 C 0.51986 0.60341 0.37268 0.0
C2150 C 0.51694 0.59005 0.36358 0.0
C2151 C 0.51895 0.57984 0.39261 0.0
C2152 C 0.52356 0.58342 0.43199 0.0
C2153 C 0.52629 0.59708 0.44224 0.0
C2154 C 0.52488 0.60706 0.41139 0.0
H2155 H 0.6918 0.25236 0.51173 0.0
H2156 H 0.64936 0.25787 0.48001 0.0
H2157 H 0.64507 0.26797 0.54727 0.0
H2158 H 0.68346 0.2419 0.6187 0.0
H2159 H 0.69867 0.2494 0.63946 0.0
H2160 H 0.69861 0.24304 0.5881 0.0
H2161 H 0.70671 0.26648 0.56253 0.0
H2162 H 0.70642 0.27299 0.61374 0.0
H2163 H 0.69681 0.28132 0.57424 0.0
H2164 H 0.64593 0.28042 0.61434 0.0
H2165 H 0.64955 0.28703 0.68604 0.0
H2166 H 0.68997 0.26972 0.68252 0.0
C2167 C 0.68155 0.25542 0.51927 0.0
C2168 C 0.67099 0.25467 0.48957 0.0
C2169 C 0.65771 0.25863 0.50143 0.0
C2170 C 0.65517 0.26449 0.53963 0.0
C2171 C 0.66587 0.2658 0.5672 0.0
C2172 C 0.67864 0.26075 0.55851 0.0
C2173 C 0.68789 0.26228 0.59577 0.0
C2174 C 0.69243 0.24832 0.61144 0.0
C2175 C 0.70019 0.2713 0.58596 0.0
C2176 C 0.67839 0.26922 0.62612 0.0
C2177 C 0.66588 0.27153 0.60824 0.0
C2178 C 0.65561 0.27842 0.62888 0.0
C2179 C 0.65782 0.28235 0.66951 0.0
C2180 C 0.67004 0.27902 0.6901 0.0
C2181 C 0.68059 0.2726 0.66762 0.0
H2182 H 0.02293 0.44033 0.75756 0.0
H2183 H 0.02229 0.39738 0.73092 0.0
H2184 H 1.01251 0.39276 0.79852 0.0
H2185 H 0.03289 0.43505 0.86776 0.0
H2186 H 0.02319 0.44947 0.88449 0.0
H2187 H 0.03054 0.44935 0.83429 0.0
H2188 H 1.00671 0.45402 0.8039 0.0
H2189 H 0.99923 0.45368 0.85392 0.0
H2190 H 0.99293 0.44253 0.81482 0.0
H2191 H 0.9994 0.39304 0.86426 0.0
H2192 H 0.99119 0.39694 0.93429 0.0
H2193 H 1.00326 0.43902 0.92559 0.0
C2194 C 0.02122 0.42993 0.76664 0.0
C2195 C 0.02339 0.4192 0.7386 0.0
C2196 C 0.02083 0.40575 0.75172 0.0
C2197 C 0.01506 0.40304 0.78994 0.0
C2198 C 1.01228 0.41383 0.81586 0.0
C2199 C 0.01589 0.42695 0.80576 0.0
C2200 C 1.01253 0.43648 0.8409 0.0
C2201 C 0.02556 0.44297 0.85787 0.0
C2202 C 1.00224 0.44732 0.82757 0.0
C2203 C 1.0062 0.42672 0.87165 0.0
C2204 C 1.00582 0.41378 0.85582 0.0
C2205 C 0.99988 0.40309 0.87723 0.0
C2206 C 0.99499 0.40544 0.91679 0.0
C2207 C 0.99638 0.4183 0.93539 0.0
C2208 C 1.0018 0.42916 0.912 0.0
H2209 H 0.85153 0.73391 0.15074 0.0
H2210 H 0.84602 0.77141 0.21721 0.0
H2211 H 0.84352 0.78375 0.15251 0.0
H2212 H 0.86883 0.74575 0.06711 0.0
H2213 H 0.85995 0.73623 0.02862 0.0
H2214 H 0.86081 0.72988 0.07996 0.0
H2215 H 0.83457 0.72854 0.08329 0.0
H2216 H 0.83363 0.73461 0.03158 0.0
H2217 H 0.8246 0.74333 0.07136 0.0
H2218 H 0.84743 0.79259 0.08005 0.0
H2219 H 0.85038 0.79649 1.00633 0.0
H2220 H 0.84548 0.75341 0.98514 0.0
C2221 C 0.84905 0.74455 0.15208 0.0
C2222 C 0.84903 0.75159 0.18989 0.0
C2223 C 0.84622 0.76571 0.18908 0.0
C2224 C 0.84484 0.77288 0.1523 0.0
C2225 C 0.84553 0.7658 0.11575 0.0
C2226 C 0.84683 0.75185 0.11532 0.0
C2227 C 0.84662 0.74676 0.07146 0.0
C2228 C 0.85984 0.73921 0.06121 0.0
C2229 C 0.83411 0.73778 0.06398 0.0
C2230 C 0.8456 0.76003 0.04764 0.0
C2231 C 0.84543 0.77091 0.07383 0.0
C2232 C 0.84684 0.78414 0.05919 0.0
C2233 C 0.84836 0.7863 0.01693 0.0
C2234 C 0.84777 0.77542 0.98885 0.0
C2235 C 0.84594 0.76211 1.00508 0.0
H2236 H 0.52609 0.40235 0.11484 0.0
H2237 H 0.52615 0.44489 0.08326 0.0
H2238 H 0.5177 0.45049 0.15243 0.0
H2239 H 0.49459 0.40331 0.16493 0.0
H2240 H 0.49887 0.39096 0.20333 0.0
H2241 H 0.5071 0.39047 0.15445 0.0
H2242 H 0.53076 0.39189 0.18897 0.0
H2243 H 0.5226 0.39202 0.23802 0.0
H2244 H 0.53421 0.4054 0.22437 0.0
H2245 H 0.50829 0.45108 0.2265 0.0
H2246 H 0.4998 0.44668 0.29634 0.0
H2247 H 0.50235 0.40355 0.27458 0.0
C2248 C 0.52475 0.41289 0.12301 0.0
C2249 C 0.52699 0.42322 0.09366 0.0
C2250 C 0.52476 0.43683 0.10528 0.0
C2251 C 0.51979 0.44007 0.14444 0.0
C2252 C 0.51685 0.42956 0.17173 0.0
C2253 C 0.51931 0.41623 0.16138 0.0
C2254 C 0.51429 0.40669 0.19454 0.0
C2255 C 0.50305 0.3973 0.17833 0.0
C2256 C 0.52617 0.39852 0.21254 0.0
C2257 C 0.50866 0.41668 0.22538 0.0
C2258 C 0.51039 0.42985 0.21206 0.0
C2259 C 0.50675 0.44078 0.23678 0.0
C2260 C 0.50171 0.4382 0.27634 0.0
C2261 C 0.50004 0.42477 0.2909 0.0
C2262 C 0.50316 0.41393 0.26415 0.0
H2263 H 0.8528 0.28918 0.37333 0.0
H2264 H 0.84557 0.25209 0.30625 0.0
H2265 H 0.84188 0.23984 0.37043 0.0
H2266 H 0.86937 0.27613 0.45665 0.0
H2267 H 0.86113 0.28598 0.49553 0.0
H2268 H 0.86225 0.29245 0.4444 0.0
H2269 H 0.83612 0.29525 0.4414 0.0
H2270 H 0.83494 0.28904 0.49291 0.0
H2271 H 0.82535 0.28098 0.45292 0.0
H2272 H 0.84522 0.23058 0.44236 0.0
H2273 H 0.84833 0.22624 0.51582 0.0
H2274 H 0.84601 0.26943 0.53856 0.0
C2275 C 0.84973 0.27868 0.37189 0.0
C2276 C 0.84953 0.27169 0.33404 0.0
C2277 C 0.84582 0.25777 0.33441 0.0
C2278 C 0.84381 0.25063 0.37093 0.0
C2279 C 0.84482 0.25757 0.40763 0.0
C2280 C 0.84696 0.27143 0.40844 0.0
C2281 C 0.84713 0.27635 0.45248 0.0
C2282 C 0.86078 0.28313 0.46285 0.0
C2283 C 0.83517 0.28598 0.4604 0.0
C2284 C 0.84539 0.26307 0.47588 0.0
C2285 C 0.84449 0.25232 0.44936 0.0
C2286 C 0.8452 0.23897 0.46352 0.0
C2287 C 0.84681 0.23655 0.50564 0.0
C2288 C 0.84704 0.24735 0.53406 0.0
C2289 C 0.84585 0.2608 0.51834 0.0
H2290 H 0.02438 0.58095 0.76775 0.0
H2291 H 0.0226 0.62367 0.79723 0.0
H2292 H 1.01257 0.62849 0.73 0.0
H2293 H 0.03452 0.58767 0.65879 0.0
H2294 H 0.02544 0.57309 0.6401 0.0
H2295 H 0.03249 0.57295 0.69075 0.0
H2296 H 1.00869 0.5671 0.71927 0.0
H2297 H 1.0015 0.56766 0.66882 0.0
H2298 H 0.99457 0.57817 0.70847 0.0
H2299 H 0.99928 0.62828 0.6644 0.0
H2300 H 0.99149 0.62481 0.59365 0.0
H2301 H 1.00542 0.58325 0.59858 0.0
C2302 C 0.02226 0.59135 0.7595 0.0
C2303 C 0.02409 0.60192 0.78836 0.0
C2304 C 0.02123 0.6154 0.77601 0.0
C2305 C 0.01534 0.61822 0.73798 0.0
C2306 C 1.01287 0.60755 0.71129 0.0
C2307 C 0.0169 0.59449 0.72045 0.0
C2308 C 0.01407 0.58521 0.68421 0.0
C2309 C 0.02742 0.57939 0.66746 0.0
C2310 C 1.00411 0.57386 0.69591 0.0
C2311 C 1.00756 0.59504 0.65396 0.0
C2312 C 1.00658 0.60777 0.67102 0.0
C2313 C 1.00026 0.61842 0.65041 0.0
C2314 C 0.99563 0.6163 0.61041 0.0
C2315 C 0.99773 0.60377 0.59049 0.0
C2316 C 1.00348 0.59289 0.61308 0.0
H2317 H 0.68165 0.75269 0.04348 0.0
H2318 H 0.67673 0.7956 0.01932 0.0
H2319 H 0.67972 0.79131 0.94616 0.0
H2320 H 0.70209 0.74178 0.95653 0.0
H2321 H 0.69176 0.72709 0.94616 0.0
H2322 H 0.69313 0.73348 0.99739 0.0
H2323 H 0.66695 0.73554 1.00174 0.0
H2324 H 0.66551 0.729 0.9508 0.0
H2325 H 0.65796 0.74508 0.96342 0.0
H2326 H 0.68369 0.78218 0.87448 0.0
H2327 H 0.68047 0.76975 0.81049 0.0
H2328 H 0.67448 0.73252 0.87851 0.0
C2329 C 0.68138 0.76127 0.02298 0.0
C2330 C 0.67977 0.7747 0.03848 0.0
C2331 C 0.67902 0.78539 1.00964 0.0
C2332 C 0.68046 0.78299 0.96753 0.0
C2333 C 0.68181 0.76969 0.95366 0.0
C2334 C 0.6816 0.75895 0.98047 0.0
C2335 C 0.68015 0.74559 0.95726 0.0
C2336 C 0.69252 0.73644 0.9648 0.0
C2337 C 0.66685 0.73838 0.96899 0.0
C2338 C 0.67975 0.7505 0.91313 0.0
C2339 C 0.68138 0.76441 0.91204 0.0
C2340 C 0.68208 0.77135 0.8752 0.0
C2341 C 0.6803 0.76411 0.83881 0.0
C2342 C 0.67704 0.75008 0.83867 0.0
C2343 C 0.67715 0.74312 0.87673 0.0
H2344 H 0.52198 0.4379 0.76935 0.0
H2345 H 0.52467 0.39551 0.80246 0.0
H2346 H 0.51494 0.38913 0.73601 0.0
H2347 H 0.49165 0.43701 0.71331 0.0
H2348 H 0.49687 0.44797 0.6723 0.0
H2349 H 0.50458 0.44964 0.72182 0.0
H2350 H 0.52851 0.44628 0.69086 0.0
H2351 H 0.5209 0.44505 0.64107 0.0
H2352 H 0.53176 0.43168 0.65951 0.0
H2353 H 0.5012 0.38749 0.67129 0.0
H2354 H 0.49192 0.38977 0.60165 0.0
H2355 H 0.5013 0.43263 0.60293 0.0
C2356 C 0.52103 0.42727 0.76188 0.0
C2357 C 0.52417 0.41719 0.79136 0.0
C2358 C 0.52253 0.40339 0.78043 0.0
C2359 C 0.51678 0.39968 0.74291 0.0
C2360 C 0.51309 0.40983 0.7155 0.0
C2361 C 0.51577 0.42331 0.72346 0.0
C2362 C 0.5115 0.43202 0.68714 0.0
C2363 C 0.5005 0.44227 0.6994 0.0
C2364 C 0.52391 0.43918 0.66854 0.0
C2365 C 0.50575 0.42136 0.65818 0.0
C2366 C 0.50641 0.40869 0.67593 0.0
C2367 C 0.50097 0.39732 0.65668 0.0
C2368 C 0.49552 0.39873 0.6173 0.0
C2369 C 0.49599 0.4113 0.59653 0.0
C2370 C 0.50079 0.42287 0.61791 0.0
H2371 H 0.37358 0.74076 0.36766 0.0
H2372 H 0.33122 0.74425 0.33321 0.0
H2373 H 0.3256 0.75187 0.40295 0.0
H2374 H 0.3689 0.73083 0.47456 0.0
H2375 H 0.38281 0.74117 0.49222 0.0
H2376 H 0.3831 0.73427 0.44149 0.0
H2377 H 0.3863 0.75838 0.41205 0.0
H2378 H 0.38589 0.76538 0.46262 0.0
H2379 H 0.37417 0.7714 0.42445 0.0
H2380 H 0.32485 0.76029 0.4778 0.0
H2381 H 0.32909 0.76823 0.54837 0.0
H2382 H 0.37229 0.76225 0.53093 0.0
C2383 C 0.36307 0.74292 0.37498 0.0
C2384 C 0.35285 0.74184 0.34449 0.0
C2385 C 0.33925 0.74484 0.35569 0.0
C2386 C 0.33598 0.74931 0.39535 0.0
C2387 C 0.34641 0.75093 0.42395 0.0
C2388 C 0.35971 0.74782 0.41412 0.0
C2389 C 0.3692 0.75138 0.44924 0.0
C2390 C 0.37643 0.73865 0.46532 0.0
C2391 C 0.3795 0.76228 0.43631 0.0
C2392 C 0.35921 0.75689 0.48048 0.0
C2393 C 0.34608 0.75641 0.46559 0.0
C2394 C 0.33513 0.76068 0.48951 0.0
C2395 C 0.33762 0.76526 0.52963 0.0
C2396 C 0.35098 0.76573 0.54583 0.0
C2397 C 0.36191 0.7618 0.52008 0.0
H2398 H 0.02503 0.58227 0.09833 0.0
H2399 H 0.04039 0.62337 0.09517 0.0
H2400 H 0.03252 0.62686 0.16571 0.0
H2401 H 0.99608 0.58722 0.15742 0.0
H2402 H 0.99757 0.57237 0.18909 0.0
H2403 H 1.00487 0.57247 0.13884 0.0
H2404 H 0.0285 0.56643 0.16824 0.0
H2405 H 0.02118 0.56585 0.21846 0.0
H2406 H 0.0356 0.57663 0.20847 0.0
H2407 H 0.0188 0.62736 0.23034 0.0
H2408 H 1.00845 0.62271 0.29709 0.0
H2409 H 1.00574 0.58005 0.26718 0.0
C2410 C 0.02728 0.59178 0.11322 0.0
C2411 C 0.03344 0.60256 0.09113 0.0
C2412 C 0.03594 0.61494 0.11154 0.0
C2413 C 0.03126 0.61708 0.15142 0.0
C2414 C 0.02453 0.60657 0.17148 0.0
C2415 C 0.02321 0.59392 0.15409 0.0
C2416 C 0.01631 0.5842 0.18394 0.0
C2417 C 1.00291 0.57874 0.16625 0.0
C2418 C 0.02597 0.57259 0.19547 0.0
C2419 C 0.01366 0.59348 0.22025 0.0
C2420 C 0.01807 0.60645 0.21145 0.0
C2421 C 0.01575 0.61715 0.2381 0.0
C2422 C 1.00967 0.61442 0.27586 0.0
C2423 C 1.00648 0.60099 0.28804 0.0
C2424 C 1.00811 0.59042 0.2591 0.0
H2425 H 0.17747 0.25895 0.84232 0.0
H2426 H 0.17804 0.30225 0.86372 0.0
H2427 H 0.18359 0.29808 0.93569 0.0
H2428 H 0.15634 0.2546 0.93012 0.0
H2429 H 0.16244 0.23779 0.94132 0.0
H2430 H 0.16258 0.24396 0.88975 0.0
H2431 H 0.18834 0.23886 0.88535 0.0
H2432 H 0.18832 0.23287 0.93722 0.0
H2433 H 0.19977 0.24622 0.92213 0.0
H2434 H 0.18958 0.28872 1.00691 0.0
H2435 H 0.18761 0.27675 0.07256 0.0
H2436 H 0.17447 0.24053 1.00922 0.0
C2437 C 0.17892 0.26765 0.86182 0.0
C2438 C 0.17826 0.28106 0.84557 0.0
C2439 C 0.17978 0.29194 0.87338 0.0
C2440 C 0.18262 0.28963 0.91499 0.0
C2441 C 0.18307 0.27632 0.92961 0.0
C2442 C 0.18057 0.26555 0.90406 0.0
C2443 C 0.17853 0.25256 0.92859 0.0
C2444 C 0.16412 0.24689 0.92207 0.0
C2445 C 0.18939 0.242 0.91766 0.0
C2446 C 0.18046 0.25765 0.97202 0.0
C2447 C 0.18372 0.27127 0.97156 0.0
C2448 C 0.18673 0.27814 1.00748 0.0
C2449 C 0.18568 0.27118 0.04477 0.0
C2450 C 0.18084 0.25763 0.04681 0.0
C2451 C 0.1785 0.25071 1.00944 0.0
H2452 H 0.51724 0.61589 0.7568 0.0
H2453 H 0.52335 0.57292 0.73903 0.0
H2454 H 0.51566 0.56864 0.80997 0.0
H2455 H 0.52597 0.61795 0.86433 0.0
H2456 H 0.51268 0.62997 0.8751 0.0
H2457 H 0.52024 0.62945 0.82524 0.0
H2458 H 0.49634 0.62617 0.79349 0.0
H2459 H 0.48875 0.62644 0.84334 0.0
H2460 H 0.48588 0.61222 0.81006 0.0
H2461 H 0.50686 0.56946 0.88543 0.0
H2462 H 0.49853 0.5753 0.95461 0.0
H2463 H 0.4946 0.61718 0.91776 0.0
C2464 C 0.51709 0.60557 0.76792 0.0
C2465 C 0.52087 0.59472 0.74192 0.0
C2466 C 0.52058 0.58141 0.7581 0.0
C2467 C 0.51609 0.57889 0.79837 0.0
C2468 C 0.5117 0.58977 0.82232 0.0
C2469 C 0.51216 0.60286 0.8074 0.0
C2470 C 0.50616 0.61276 0.83787 0.0
C2471 C 0.5169 0.62314 0.85143 0.0
C2472 C 0.49353 0.61981 0.82013 0.0
C2473 C 0.50232 0.6033 0.87258 0.0
C2474 C 0.50576 0.59008 0.86348 0.0
C2475 C 0.504 0.57977 0.89237 0.0
C2476 C 0.4991 0.58314 0.93158 0.0
C2477 C 0.49577 0.59667 0.94177 0.0
C2478 C 0.49691 0.60671 0.91098 0.0
H2479 H 0.19039 0.76595 0.50512 0.0
H2480 H 0.14736 0.76965 0.47893 0.0
H2481 H 0.14193 0.76093 0.54737 0.0
H2482 H 0.18944 0.73623 0.56578 0.0
H2483 H 0.20144 0.74172 0.60384 0.0
H2484 H 0.20238 0.74844 0.5529 0.0
H2485 H 0.20056 0.77287 0.58053 0.0
H2486 H 0.19998 0.76624 0.63162 0.0
H2487 H 0.18666 0.77726 0.61366 0.0
H2488 H 0.14098 0.74886 0.61489 0.0
H2489 H 0.14423 0.74085 0.68551 0.0
H2490 H 0.18758 0.74777 0.67494 0.0
C2491 C 0.17985 0.76526 0.51428 0.0
C2492 C 0.16928 0.76837 0.48616 0.0
C2493 C 0.15562 0.76731 0.49961 0.0
C2494 C 0.15243 0.76221 0.53839 0.0
C2495 C 0.16299 0.75858 0.56456 0.0
C2496 C 0.17643 0.76059 0.55391 0.0
C2497 C 0.1857 0.75662 0.58942 0.0
C2498 C 0.19531 0.74507 0.57724 0.0
C2499 C 0.1937 0.76898 0.60472 0.0
C2500 C 0.17537 0.75183 0.6211 0.0
C2501 C 0.16236 0.75274 0.60544 0.0
C2502 C 0.15111 0.74837 0.6277 0.0
C2503 C 0.15306 0.74364 0.6677 0.0
C2504 C 0.16611 0.74366 0.68602 0.0
C2505 C 0.17748 0.74751 0.66183 0.0
H2506 H 1.00321 0.4389 0.26218 0.0
H2507 H 1.00315 0.39663 0.22714 0.0
H2508 H 0.0134 0.39047 0.29307 0.0
H2509 H 0.03362 0.43964 0.31804 0.0
H2510 H 0.02773 0.44994 0.35965 0.0
H2511 H 0.01989 0.45144 0.31025 0.0
H2512 H 0.99625 0.44628 0.34105 0.0
H2513 H 1.00397 0.44522 0.39074 0.0
H2514 H 0.99399 0.43129 0.37168 0.0
H2515 H 0.02726 0.38928 0.35749 0.0
H2516 H 0.03612 0.39159 0.42758 0.0
H2517 H 0.02411 0.43377 0.42844 0.0
C2518 C 1.00486 0.42832 0.26912 0.0
C2519 C 1.00233 0.41824 0.2392 0.0
C2520 C 1.00483 0.4045 0.24947 0.0
C2521 C 1.0109 0.40093 0.28669 0.0
C2522 C 0.014 0.41112 0.31448 0.0
C2523 C 1.01044 0.42445 0.30724 0.0
C2524 C 0.01416 0.43316 0.344 0.0
C2525 C 0.02446 0.4442 0.33226 0.0
C2526 C 1.00133 0.43935 0.363 0.0
C2527 C 0.02061 0.4227 0.37235 0.0
C2528 C 0.02078 0.41015 0.35391 0.0
C2529 C 0.02689 0.399 0.37261 0.0
C2530 C 0.03212 0.40045 0.41221 0.0
C2531 C 0.0308 0.4128 0.43363 0.0
C2532 C 0.02535 0.42421 0.41282 0.0
H2533 H 0.37431 0.27934 0.15914 0.0
H2534 H 0.33192 0.27757 0.19415 0.0
H2535 H 0.32599 0.26869 0.12596 0.0
H2536 H 0.36972 0.28725 0.05115 0.0
H2537 H 0.3834 0.27631 0.03549 0.0
H2538 H 0.38385 0.28415 0.08493 0.0
H2539 H 0.38655 0.26052 0.11823 0.0
H2540 H 0.38585 0.25258 0.06896 0.0
H2541 H 0.37407 0.24758 0.10817 0.0
H2542 H 0.3249 0.25933 0.0521 0.0
H2543 H 0.32886 0.25125 0.98149 0.0
H2544 H 0.37224 0.2557 0.99945 0.0
C2545 C 0.36374 0.27725 0.15227 0.0
C2546 C 0.35361 0.27913 0.18242 0.0
C2547 C 0.3399 0.27629 0.17186 0.0
C2548 C 0.33645 0.27112 0.13314 0.0
C2549 C 0.3468 0.26862 0.10505 0.0
C2550 C 0.3602 0.27161 0.11428 0.0
C2551 C 0.36956 0.26721 0.07998 0.0
C2552 C 0.37707 0.27946 0.06182 0.0
C2553 C 0.3796 0.25632 0.09472 0.0
C2554 C 0.35939 0.26136 0.04984 0.0
C2555 C 0.34627 0.26242 0.06447 0.0
C2556 C 0.33516 0.25839 0.04067 0.0
C2557 C 0.33749 0.25368 1.00065 0.0
C2558 C 0.35083 0.25282 0.98473 0.0
C2559 C 0.3619 0.2562 1.01063 0.0
H2560 H 0.02372 0.04444 1.0024 0.0
H2561 H 0.99167 0.04642 0.09262 0.0
H2562 H 0.98668 0.02214 0.08137 0.0
H2563 H 1.00578 0.02128 0.9333 0.0
H2564 H 0.02103 0.0124 0.91896 0.0
H2565 H 0.02192 0.02995 0.9336 0.0
H2566 H 0.03975 0.02396 0.98869 0.0
H2567 H 0.03887 1.00639 0.9744 0.0
H2568 H 0.03579 0.01128 0.02638 0.0
H2569 H 0.98646 0.99695 0.06429 0.0
H2570 H 0.98918 0.97373 0.03751 0.0
H2571 H 0.02021 0.98798 0.95431 0.0
C2572 C 0.01558 0.03979 0.01962 0.0
C2573 C 1.00809 0.04747 0.04859 0.0
C2574 C 0.99748 0.04092 0.07009 0.0
C2575 C 0.99463 0.02706 0.06405 0.0
C2576 C 1.00232 0.01977 0.03581 0.0
C2577 C 1.01243 0.02598 1.01339 0.0
C2578 C 0.01905 0.01587 0.98446 0.0
C2579 C 0.01681 0.02013 0.93993 0.0
C2580 C 0.03427 0.01429 0.99407 0.0
C2581 C 1.01124 1.00295 0.99446 0.0
C2582 C 1.00173 1.00543 0.02454 0.0
C2583 C 0.99375 0.99499 0.04039 0.0
C2584 C 0.99541 0.98179 0.02508 0.0
C2585 C 1.00483 0.97896 0.99361 0.0
C2586 C 1.01281 0.98979 0.97802 0.0
H2587 H 0.23717 0.76712 0.3288 0.0
H2588 H 0.21722 0.7477 0.22642 0.0
H2589 H 0.23956 0.74464 0.19339 0.0
H2590 H 0.26153 0.78571 0.27011 0.0
H2591 H 0.27507 0.78386 0.30669 0.0
H2592 H 0.25764 0.78379 0.3234 0.0
H2593 H 0.26132 0.76056 0.35824 0.0
H2594 H 0.27879 0.76058 0.34179 0.0
H2595 H 0.26782 0.7466 0.32888 0.0
H2596 H 0.26452 0.74452 0.16989 0.0
H2597 H 0.28925 0.74634 0.15972 0.0
H2598 H 0.293 0.76685 0.27601 0.0
C2599 C 0.23739 0.76221 0.2994 0.0
C2600 C 0.22515 0.75765 0.28053 0.0
C2601 C 0.22625 0.75111 0.24222 0.0
C2602 C 0.23897 0.74944 0.22292 0.0
C2603 C 0.25071 0.75433 0.24203 0.0
C2604 C 0.25002 0.76051 0.2796 0.0
C2605 C 0.2641 0.76507 0.29348 0.0
C2606 C 0.26461 0.78052 0.29873 0.0
C2607 C 0.26825 0.75777 0.33294 0.0
C2608 C 0.27286 0.76055 0.25782 0.0
C2609 C 0.26494 0.75437 0.22845 0.0
C2610 C 0.27074 0.74939 0.19276 0.0
C2611 C 0.28491 0.75062 0.18706 0.0
C2612 C 0.29341 0.75685 0.2167 0.0
C2613 C 0.28708 0.7619 0.25258 0.0
H2614 H 0.52416 0.04289 0.53031 0.0
H2615 H 0.50277 0.0404 0.41471 0.0
H2616 H 0.50036 0.01584 0.42387 0.0
H2617 H 0.54211 0.01143 0.52332 0.0
H2618 H 0.54018 1.007 0.57623 0.0
H2619 H 0.54042 0.02454 0.56106 0.0
H2620 H 0.51718 0.02829 0.59593 0.0
H2621 H 0.51688 1.01078 0.61138 0.0
H2622 H 0.50296 0.01769 0.58231 0.0
H2623 H 0.50067 0.99126 0.44396 0.0
H2624 H 0.50257 0.96869 0.4752 0.0
H2625 H 0.52265 0.98635 0.5802 0.0
C2626 C 0.5188 0.03728 0.50703 0.0
C2627 C 0.51385 0.0439 0.47129 0.0
C2628 C 0.50704 0.03584 0.44181 0.0
C2629 C 0.50549 0.02177 0.4469 0.0
C2630 C 0.51062 0.01565 0.48197 0.0
C2631 C 0.51701 0.02313 0.51182 0.0
C2632 C 0.52143 0.01393 0.54686 0.0
C2633 C 0.53696 0.01425 0.55217 0.0
C2634 C 0.51418 0.01791 0.58647 0.0
C2635 C 0.51663 1.00011 0.53184 0.0
C2636 C 0.51048 1.00141 0.49419 0.0
C2637 C 0.50545 0.99016 0.47346 0.0
C2638 C 0.50669 0.9773 0.49146 0.0
C2639 C 0.51287 0.97553 0.5302 0.0
C2640 C 0.51782 0.98723 0.5507 0.0
H2641 H 0.28958 0.25153 0.82739 0.0
H2642 H 0.3085 0.27839 0.73933 0.0
H2643 H 0.286 0.28283 0.70879 0.0
H2644 H 0.26555 0.23662 0.75833 0.0
H2645 H 0.25204 0.23549 0.79515 0.0
H2646 H 0.26949 0.23493 0.81169 0.0
H2647 H 0.26516 0.25511 0.86003 0.0
H2648 H 0.24767 0.2557 0.84371 0.0
H2649 H 0.25818 0.2706 0.83982 0.0
H2650 H 0.26123 0.28379 0.68575 0.0
H2651 H 0.23665 0.28181 0.67355 0.0
H2652 H 0.23342 0.25363 0.77472 0.0
C2653 C 0.28909 0.25835 0.80165 0.0
C2654 C 0.30111 0.26462 0.78615 0.0
C2655 C 0.29966 0.2736 0.75264 0.0
C2656 C 0.28684 0.27611 0.73472 0.0
C2657 C 0.27534 0.26961 0.75038 0.0
C2658 C 0.27634 0.26096 0.78326 0.0
C2659 C 0.2624 0.25511 0.79387 0.0
C2660 C 0.26237 0.23962 0.78949 0.0
C2661 C 0.2581 0.25939 0.83692 0.0
C2662 C 0.25341 0.26174 0.76165 0.0
C2663 C 0.26112 0.27007 0.73692 0.0
C2664 C 0.25517 0.27723 0.70492 0.0
C2665 C 0.24109 0.27591 0.69796 0.0
C2666 C 0.23279 0.26741 0.7226 0.0
C2667 C 0.23922 0.26028 0.75513 0.0
H2668 H 0.01608 0.98739 0.44679 0.0
H2669 H 1.00679 0.96719 0.5612 0.0
H2670 H 1.00467 0.98937 0.59429 0.0
H2671 H 0.03736 0.01319 0.49191 0.0
H2672 H 0.03202 0.02622 0.45693 0.0
H2673 H 0.03197 1.00876 0.44119 0.0
H2674 H 1.00652 1.0107 0.4219 0.0
H2675 H 1.0065 0.02816 0.43762 0.0
H2676 H 0.99449 0.01643 0.45943 0.0
H2677 H 1.00323 0.01416 0.61552 0.0
H2678 H 1.00338 0.03878 0.62347 0.0
H2679 H 0.01647 0.04305 0.49761 0.0
C2680 C 0.01371 0.98743 0.47888 0.0
C2681 C 1.01148 0.97511 0.50073 0.0
C2682 C 1.0082 0.97617 0.54277 0.0
C2683 C 1.0071 0.98884 0.56223 0.0
C2684 C 1.00948 1.00062 0.5398 0.0
C2685 C 1.01282 1.00002 0.49909 0.0
C2686 C 0.01533 0.01421 0.48226 0.0
C2687 C 0.03005 0.01568 0.46718 0.0
C2688 C 1.0051 0.01757 0.44829 0.0
C2689 C 1.01283 0.02288 0.51983 0.0
C2690 C 1.00937 0.01483 0.55257 0.0
C2691 C 1.00616 0.02052 0.59013 0.0
C2692 C 1.00646 0.03471 0.59443 0.0
C2693 C 1.01019 0.04341 0.56164 0.0
C2694 C 0.01347 0.03713 0.52376 0.0
H2695 H 0.23342 0.76718 0.75471 0.0
H2696 H 0.23742 0.74705 0.87175 0.0
H2697 H 0.26216 0.74562 0.86176 0.0
H2698 H 0.25875 0.74706 0.70287 0.0
H2699 H 0.26502 0.76098 0.67272 0.0
H2700 H 0.24759 0.76084 0.68947 0.0
H2701 H 0.25099 0.78424 0.72333 0.0
H2702 H 0.26841 0.78447 0.70658 0.0
H2703 H 0.26451 0.78649 0.75979 0.0
H2704 H 0.28712 0.74617 0.8385 0.0
H2705 H 0.30942 0.74942 0.8054 0.0
H2706 H 0.28919 0.76792 0.70176 0.0
C2707 C 0.2394 0.76239 0.77833 0.0
C2708 C 0.23312 0.75736 0.8144 0.0
C2709 C 0.24169 0.75134 0.84428 0.0
C2710 C 0.25588 0.75032 0.83868 0.0
C2711 C 0.26163 0.75528 0.80282 0.0
C2712 C 0.25363 0.76122 0.77315 0.0
C2713 C 0.26234 0.76572 0.73728 0.0
C2714 C 0.25817 0.7582 0.69828 0.0
C2715 C 0.26151 0.78114 0.73141 0.0
C2716 C 0.27647 0.76143 0.75141 0.0
C2717 C 0.27585 0.75541 0.78929 0.0
C2718 C 0.28765 0.75082 0.80871 0.0
C2719 C 0.30035 0.75261 0.78935 0.0
C2720 C 0.30137 0.75895 0.75063 0.0
C2721 C 0.28906 0.7632 0.73149 0.0
H2722 H 0.50822 0.98175 1.00194 0.0
H2723 H 0.53525 0.9854 0.1059 0.0
H2724 H 0.53686 1.00997 0.09423 0.0
H2725 H 0.525 1.00701 0.93881 0.0
H2726 H 0.50941 0.01359 0.91774 0.0
H2727 H 0.51034 0.99617 0.93387 0.0
H2728 H 0.48966 0.99981 0.98117 0.0
H2729 H 0.48866 0.01723 0.96512 0.0
H2730 H 0.49015 0.01318 0.01844 0.0
H2731 H 0.53579 0.03458 0.07108 0.0
H2732 H 0.53117 0.05696 0.04055 0.0
H2733 H 0.50496 0.03789 0.95097 0.0
C2734 C 0.51453 0.98767 0.02221 0.0
C2735 C 0.52151 0.98139 0.05525 0.0
C2736 C 0.52955 0.98977 0.08093 0.0
C2737 C 0.53064 1.00382 0.07431 0.0
C2738 C 0.52364 1.00965 0.04175 0.0
C2739 C 0.51568 1.00185 0.01618 0.0
C2740 C 0.50902 1.01077 0.98382 0.0
C2741 C 0.51372 1.00664 0.94102 0.0
C2742 C 0.49345 1.01021 0.98736 0.0
C2743 C 0.51446 0.02474 0.99524 0.0
C2744 C 0.52295 0.02384 0.02862 0.0
C2745 C 0.52918 0.03536 0.04484 0.0
C2746 C 0.52657 0.0481 0.02696 0.0
C2747 C 0.51772 0.04945 0.99303 0.0
C2748 C 0.5117 0.03743 0.97701 0.0
H2749 H 0.23653 0.25405 0.19912 0.0
H2750 H 0.21699 0.27842 0.29192 0.0
H2751 H 0.23942 0.28267 0.32352 0.0
H2752 H 0.26063 0.23807 0.26498 0.0
H2753 H 0.27419 0.23803 0.22818 0.0
H2754 H 0.25676 0.23758 0.21136 0.0
H2755 H 0.26082 0.25894 0.16729 0.0
H2756 H 0.27829 0.25942 0.18382 0.0
H2757 H 0.26757 0.27402 0.19065 0.0
H2758 H 0.26427 0.2834 0.34724 0.0
H2759 H 0.28892 0.28151 0.35892 0.0
H2760 H 0.29245 0.25596 0.25205 0.0
C2761 C 0.23688 0.26031 0.22609 0.0
C2762 C 0.22474 0.26588 0.24278 0.0
C2763 C 0.22596 0.27417 0.27785 0.0
C2764 C 0.23872 0.27655 0.29633 0.0
C2765 C 0.25036 0.27065 0.27955 0.0
C2766 C 0.24954 0.26277 0.24498 0.0
C2767 C 0.26354 0.25741 0.23331 0.0
C2768 C 0.26379 0.24185 0.23454 0.0
C2769 C 0.26781 0.26277 0.19127 0.0
C2770 C 0.27239 0.2634 0.26686 0.0
C2771 C 0.26457 0.271 0.29322 0.0
C2772 C 0.27042 0.27743 0.32672 0.0
C2773 C 0.28453 0.27616 0.33335 0.0
C2774 C 0.29291 0.26846 0.30683 0.0
C2775 C 0.28657 0.26202 0.27302 0.0
H2776 H 0.79334 0.26897 0.77452 0.0
H2777 H 0.78923 0.24646 0.66177 0.0
H2778 H 0.76461 0.24432 0.67375 0.0
H2779 H 0.76892 0.24932 0.83198 0.0
H2780 H 0.76237 0.26368 0.85943 0.0
H2781 H 0.7797 0.26373 0.84176 0.0
H2782 H 0.77536 0.28617 0.80315 0.0
H2783 H 0.75804 0.28622 0.82085 0.0
H2784 H 0.76156 0.28716 0.76711 0.0
H2785 H 0.73984 0.24427 0.6988 0.0
H2786 H 0.71763 0.24748 0.73257 0.0
H2787 H 0.73776 0.26929 0.83015 0.0
C2788 C 0.78735 0.26354 0.75226 0.0
C2789 C 0.79354 0.25801 0.7168 0.0
C2790 C 0.78498 0.25111 0.68869 0.0
C2791 C 0.77088 0.24969 0.69546 0.0
C2792 C 0.76521 0.25517 0.73067 0.0
C2793 C 0.77319 0.26201 0.75854 0.0
C2794 C 0.76453 0.26703 0.79387 0.0
C2795 C 0.76916 0.26055 0.83414 0.0
C2796 C 0.76489 0.28257 0.79638 0.0
C2797 C 0.75046 0.26198 0.78152 0.0
C2798 C 0.75106 0.2551 0.74504 0.0
C2799 C 0.73932 0.24962 0.72747 0.0
C2800 C 0.72668 0.25139 0.74719 0.0
C2801 C 0.72567 0.25864 0.78432 0.0
C2802 C 0.73792 0.26381 0.80168 0.0
H2803 H 0.73921 0.74812 0.21417 0.0
H2804 H 0.72977 0.78958 0.24582 0.0
H2805 H 0.75367 0.79323 0.26727 0.0
H2806 H 0.76171 0.74196 0.29853 0.0
H2807 H 0.77335 0.73153 0.27018 0.0
H2808 H 0.75574 0.73242 0.25533 0.0
H2809 H 0.76286 0.73976 0.18278 0.0
H2810 H 0.7805 0.7389 0.19746 0.0
H2811 H 0.77371 0.75433 0.1763 0.0
H2812 H 0.77903 0.79218 0.28697 0.0
H2813 H 0.80267 0.78616 0.30594 0.0
H2814 H 0.79573 0.74536 0.26183 0.0
C2815 C 0.74224 0.75799 0.22523 0.0
C2816 C 0.7326 0.76864 0.22791 0.0
C2817 C 0.73696 0.78133 0.24319 0.0
C2818 C 0.75055 0.78349 0.25545 0.0
C2819 C 0.75983 0.77283 0.25258 0.0
C2820 C 0.75583 0.7603 0.23794 0.0
C2821 C 0.76769 0.7504 0.23943 0.0
C2822 C 0.76442 0.73837 0.26754 0.0
C2823 C 0.77141 0.74556 0.19643 0.0
C2824 C 0.77891 0.75924 0.25734 0.0
C2825 C 0.77423 0.77218 0.26447 0.0
C2826 C 0.78276 0.78206 0.28136 0.0
C2827 C 0.79628 0.77857 0.29185 0.0
C2828 C 0.80127 0.76525 0.28587 0.0
C2829 C 0.79236 0.7556 0.26762 0.0
H2830 H 0.7341 0.26703 0.25191 0.0
H2831 H 0.73768 0.24166 0.3595 0.0
H2832 H 0.7623 0.23983 0.34822 0.0
H2833 H 0.75908 0.24871 0.19156 0.0
H2834 H 0.76574 0.26373 0.16754 0.0
H2835 H 0.74829 0.26325 0.18405 0.0
H2836 H 0.75225 0.28476 0.22733 0.0
H2837 H 0.76971 0.28531 0.21091 0.0
H2838 H 0.76577 0.28495 0.26445 0.0
H2839 H 0.78715 0.2408 0.32567 0.0
H2840 H 0.8096 0.24498 0.29461 0.0
H2841 H 0.79014 0.26864 0.19944 0.0
C2842 C 0.73998 0.26101 0.27309 0.0
C2843 C 0.73363 0.25468 0.30715 0.0
C2844 C 0.74204 0.24699 0.33383 0.0
C2845 C 0.75615 0.24574 0.32744 0.0
C2846 C 0.76201 0.25213 0.2939 0.0
C2847 C 0.75419 0.25961 0.26709 0.0
C2848 C 0.76309 0.26549 0.23346 0.0
C2849 C 0.75879 0.25996 0.19168 0.0
C2850 C 0.76268 0.28105 0.23409 0.0
C2851 C 0.77711 0.26023 0.24569 0.0
C2852 C 0.77625 0.25251 0.28062 0.0
C2853 C 0.78787 0.24677 0.29811 0.0
C2854 C 0.80067 0.24911 0.27989 0.0
C2855 C 0.80196 0.25714 0.24421 0.0
C2856 C 0.78981 0.26259 0.22689 0.0
H2857 H 0.72964 0.74687 0.77973 0.0
H2858 H 0.72572 0.78364 0.70844 0.0
H2859 H 0.74993 0.78896 0.72203 0.0
H2860 H 0.75295 0.76099 0.85688 0.0
H2861 H 0.76243 0.74546 0.86174 0.0
H2862 H 0.74468 0.74496 0.84807 0.0
H2863 H 0.75059 0.73121 0.78356 0.0
H2864 H 0.76836 0.73174 0.79683 0.0
H2865 H 0.76279 0.7379 0.7479 0.0
H2866 H 0.77542 0.78906 0.73796 0.0
H2867 H 0.79913 0.78525 0.7604 0.0
H2868 H 0.78659 0.74907 0.82492 0.0
C2869 C 0.73382 0.75614 0.76731 0.0
C2870 C 0.72563 0.76484 0.74283 0.0
C2871 C 0.7316 0.77688 0.72753 0.0
C2872 C 0.74542 0.77993 0.73491 0.0
C2873 C 0.75324 0.77097 0.75828 0.0
C2874 C 0.74757 0.75943 0.77488 0.0
C2875 C 0.75819 0.75144 0.79881 0.0
C2876 C 0.75433 0.75067 0.84407 0.0
C2877 C 0.76009 0.73723 0.78069 0.0
C2878 C 0.77082 0.76013 0.79253 0.0
C2879 C 0.76774 0.77131 0.76879 0.0
C2880 C 0.77784 0.78044 0.75701 0.0
C2881 C 0.79132 0.77817 0.7698 0.0
C2882 C 0.79477 0.76694 0.79469 0.0
C2883 C 0.78429 0.75784 0.80638 0.0
H2884 H 0.52643 0.54215 0.50878 0.0
H2885 H 0.49065 0.54489 0.5852 0.0
H2886 H 0.48544 0.52084 0.57084 0.0
H2887 H 0.51124 0.5195 0.43218 0.0
H2888 H 0.52681 0.51026 0.4243 0.0
H2889 H 0.5274 0.52779 0.43931 0.0
H2890 H 0.54236 0.5214 0.50127 0.0
H2891 H 0.54175 0.50385 0.4866 0.0
H2892 H 0.53637 0.50882 0.53681 0.0
H2893 H 0.48526 0.49576 0.55292 0.0
H2894 H 0.48882 0.47242 0.52814 0.0
H2895 H 0.52402 0.48577 0.45975 0.0
C2896 C 0.51743 0.53773 0.52228 0.0
C2897 C 0.50895 0.54554 0.54834 0.0
C2898 C 0.49723 0.53929 0.56494 0.0
C2899 C 0.49425 0.52555 0.5571 0.0
C2900 C 0.50294 0.51812 0.53199 0.0
C2901 C 0.51418 0.52405 0.51426 0.0
C2902 C 0.52186 0.5138 0.48833 0.0
C2903 C 0.52182 0.5181 0.44336 0.0
C2904 C 0.53645 0.51186 0.50421 0.0
C2905 C 0.51336 0.50107 0.49483 0.0
C2906 C 0.50253 0.50381 0.52036 0.0
C2907 C 0.49361 0.49359 0.53255 0.0
C2908 C 0.49575 0.48032 0.51839 0.0
C2909 C 0.50664 0.4772 0.49177 0.0
C2910 C 0.5155 0.48782 0.47963 0.0
H2911 H 0.0201 0.47807 1.003 0.0
H2912 H 0.99756 0.48393 0.11493 0.0
H2913 H 0.99782 0.50859 0.10379 0.0
H2914 H 0.04148 0.50876 1.01303 0.0
H2915 H 0.04115 0.5125 0.95934 0.0
H2916 H 0.03976 0.49523 0.97663 0.0
H2917 H 0.01727 0.49262 0.93649 0.0
H2918 H 0.01853 0.50991 0.91938 0.0
H2919 H 1.00352 0.50425 0.9458 0.0
H2920 H 0.99932 0.53274 0.07934 0.0
H2921 H 1.00348 0.5547 0.04583 0.0
H2922 H 0.0253 0.53414 0.94926 0.0
C2923 C 0.01545 0.48457 0.02551 0.0
C2924 C 1.00874 0.47888 0.05992 0.0
C2925 C 1.00265 0.48787 0.08819 0.0
C2926 C 1.00274 0.50197 0.08214 0.0
C2927 C 1.00905 0.50721 0.04758 0.0
C2928 C 0.01544 0.49884 0.01988 0.0
C2929 C 0.0213 0.50727 0.98503 0.0
C2930 C 0.03685 0.50585 0.98342 0.0
C2931 C 0.01476 0.50327 0.94426 0.0
C2932 C 0.01714 0.52159 0.99747 0.0
C2933 C 1.01003 0.52126 0.03362 0.0
C2934 C 1.00491 0.53309 0.05103 0.0
C2935 C 1.00722 0.54559 0.03144 0.0
C2936 C 0.01467 0.54638 0.99455 0.0
C2937 C 0.01964 0.53407 0.97749 0.0
H2938 H 0.50648 0.47713 0.02896 0.0
H2939 H 0.52542 0.48301 0.91119 0.0
H2940 H 0.52551 0.50769 0.92204 0.0
H2941 H 0.48488 0.50783 0.0247 0.0
H2942 H 0.48691 0.51151 0.07807 0.0
H2943 H 0.48771 0.49426 0.06047 0.0
H2944 H 0.51134 0.49162 0.09417 0.0
H2945 H 0.51069 0.50891 0.11145 0.0
H2946 H 0.52478 0.50324 0.08093 0.0
H2947 H 0.52492 0.5319 0.94689 0.0
H2948 H 0.52167 0.55386 0.98132 0.0
H2949 H 0.50284 0.53311 0.08325 0.0
C2950 C 0.51036 0.48364 1.00512 0.0
C2951 C 0.51595 0.47797 0.96905 0.0
C2952 C 0.52114 0.48697 0.93908 0.0
C2953 C 0.52126 0.50107 0.945 0.0
C2954 C 0.51609 0.5063 0.98117 0.0
C2955 C 0.51057 0.49791 1.01058 0.0
C2956 C 0.50585 0.50631 0.04688 0.0
C2957 C 0.49042 0.50489 0.05288 0.0
C2958 C 0.51363 0.50228 0.08565 0.0
C2959 C 0.50963 0.52063 0.03326 0.0
C2960 C 0.51561 0.52034 0.99532 0.0
C2961 C 0.5202 0.53221 0.97659 0.0
C2962 C 0.51843 0.5447 0.99666 0.0
C2963 C 0.51204 0.54543 0.03526 0.0
C2964 C 0.50768 0.53307 0.05371 0.0
H2965 H 1.00228 0.48507 0.56962 0.0
H2966 H 0.03804 0.47265 0.50261 0.0
H2967 H 0.0412 0.4961 0.478 0.0
H2968 H 0.98983 0.5079 0.49203 0.0
H2969 H 0.98334 0.52025 0.52731 0.0
H2970 H 0.98432 0.5027 0.54197 0.0
H2971 H 0.99874 0.50924 0.60488 0.0
H2972 H 0.99782 0.52682 0.59034 0.0
H2973 H 0.01413 0.51891 0.59801 0.0
H2974 H 0.04064 0.52117 0.46049 0.0
H2975 H 0.03524 0.5452 0.44683 0.0
H2976 H 0.99911 0.54162 0.52157 0.0
C2977 C 1.01083 0.48735 0.55007 0.0
C2978 C 0.01999 0.47697 0.53831 0.0
C2979 C 0.03091 0.48037 0.51209 0.0
C2980 C 0.03281 0.49371 0.49803 0.0
C2981 C 0.02361 0.5037 0.50988 0.0
C2982 C 1.01274 0.50067 0.53498 0.0
C2983 C 1.00394 0.51321 0.54118 0.0
C2984 C 0.9895 0.51087 0.52463 0.0
C2985 C 1.00364 0.51728 0.58629 0.0
C2986 C 1.01155 0.52369 0.51572 0.0
C2987 C 0.02298 0.51801 0.49838 0.0
C2988 C 0.03169 0.52568 0.47392 0.0
C2989 C 0.02859 0.53941 0.4665 0.0
C2990 C 0.01674 0.54546 0.48292 0.0
C2991 C 1.0082 0.53738 0.50815 0.0
H2992 H 0.06048 0.16705 0.16574 0.0
H2993 H 0.07528 0.15075 0.05139 0.0
H2994 H 0.09474 0.16624 0.05405 0.0
H2995 H 0.07064 0.20199 0.14688 0.0
H2996 H 0.07594 0.20531 0.19845 0.0
H2997 H 0.06289 0.19292 0.18848 0.0
H2998 H 0.07681 0.17485 0.22729 0.0
H2999 H 0.08991 0.18718 0.23735 0.0
H3000 H 0.09411 0.17152 0.2123 0.0
H3001 H 0.11303 0.18323 0.06811 0.0
H3002 H 0.12865 0.20087 0.09187 0.0
H3003 H 0.10314 0.20747 0.19779 0.0
C3004 C 0.06781 0.16669 0.14125 0.0
C3005 C 0.06592 0.1576 0.10781 0.0
C3006 C 0.07598 0.15768 0.07678 0.0
C3007 C 0.08727 0.16644 0.07818 0.0
C3008 C 0.08873 0.17527 0.11097 0.0
C3009 C 0.07931 0.17552 0.14207 0.0
C3010 C 0.0835 0.1862 0.17361 0.0
C3011 C 0.07259 0.19726 0.17706 0.0
C3012 C 0.08624 0.17954 0.21511 0.0
C3013 C 0.09666 0.19188 0.1552 0.0
C3014 C 0.0994 0.1853 0.11908 0.0
C3015 C 0.11087 0.18852 0.09618 0.0
C3016 C 0.1197 0.19876 0.10995 0.0
C3017 C 0.11723 0.20605 0.14651 0.0
C3018 C 0.10549 0.2023 0.16968 0.0
H3019 H 0.12196 0.83147 0.34376 0.0
H3020 H 0.10297 0.79693 0.4022 0.0
H3021 H 0.08328 0.81114 0.42059 0.0
H3022 H 0.11116 0.85604 0.41901 0.0
H3023 H 0.10837 0.86949 0.38282 0.0
H3024 H 0.12076 0.85655 0.37234 0.0
H3025 H 0.10873 0.8512 0.30422 0.0
H3026 H 0.0963 0.86414 0.31449 0.0
H3027 H 0.09088 0.84705 0.30417 0.0
H3028 H 0.06514 0.82924 0.43264 0.0
H3029 H 0.05105 0.84972 0.44085 0.0
H3030 H 0.0817 0.87333 0.3777 0.0
C3031 C 0.1136 0.82686 0.36009 0.0
C3032 C 0.11415 0.8129 0.37125 0.0
C3033 C 0.10298 0.80749 0.39328 0.0
C3034 C 0.09165 0.81553 0.40381 0.0
C3035 C 0.09147 0.82919 0.3927 0.0
C3036 C 0.10221 0.83487 0.37158 0.0
C3037 C 0.09962 0.85 0.3649 0.0
C3038 C 0.11064 0.85852 0.38603 0.0
C3039 C 0.09884 0.85329 0.31923 0.0
C3040 C 0.08579 0.8519 0.38536 0.0
C3041 C 0.08123 0.83971 0.40084 0.0
C3042 C 0.06868 0.83882 0.42059 0.0
C3043 C 0.06063 0.85058 0.4249 0.0
C3044 C 0.06505 0.86336 0.41003 0.0
C3045 C 0.07791 0.86387 0.38989 0.0
H3046 H 0.40549 0.83278 0.68801 0.0
H3047 H 0.42244 0.79893 0.62132 0.0
H3048 H 0.44227 0.81292 0.60259 0.0
H3049 H 0.41613 0.85862 0.61611 0.0
H3050 H 0.41997 0.87113 0.65432 0.0
H3051 H 0.40724 0.8584 0.66405 0.0
H3052 H 0.42004 0.85113 0.7293 0.0
H3053 H 0.4328 0.86385 0.71977 0.0
H3054 H 0.4377 0.84639 0.7261 0.0
H3055 H 0.46071 0.83073 0.59057 0.0
H3056 H 0.47538 0.85085 0.58391 0.0
H3057 H 0.44685 0.87392 0.6567 0.0
C3058 C 0.41343 0.82826 0.66976 0.0
C3059 C 0.4122 0.81456 0.65629 0.0
C3060 C 0.42288 0.8093 0.63192 0.0
C3061 C 0.4343 0.8172 0.62119 0.0
C3062 C 0.43512 0.8306 0.63457 0.0
C3063 C 0.42493 0.83614 0.65818 0.0
C3064 C 0.4282 0.85099 0.66732 0.0
C3065 C 0.41723 0.86034 0.64938 0.0
C3066 C 0.42978 0.85322 0.71336 0.0
C3067 C 0.44179 0.85289 0.64536 0.0
C3068 C 0.44562 0.84094 0.62691 0.0
C3069 C 0.45777 0.84011 0.60504 0.0
C3070 C 0.46617 0.85168 0.60166 0.0
C3071 C 0.46255 0.86423 0.61974 0.0
C3072 C 0.45006 0.86467 0.64201 0.0
H3073 H 0.44919 0.15812 0.94252 0.0
H3074 H 0.47827 0.16844 0.84815 0.0
H3075 H 0.46342 0.18696 0.82535 0.0
H3076 H 0.41892 0.16515 0.88339 0.0
H3077 H 0.40948 0.17244 0.92489 0.0
H3078 H 0.42241 0.15996 0.93497 0.0
H3079 H 0.43448 0.17657 0.98387 0.0
H3080 H 0.42157 0.1891 0.97397 0.0
H3081 H 0.43922 0.19316 0.96585 0.0
H3082 H 0.44521 0.2044 0.81076 0.0
H3083 H 0.42536 0.21949 0.80647 0.0
H3084 H 0.4073 0.19896 0.91005 0.0
C3085 C 0.45254 0.16434 0.91731 0.0
C3086 C 0.46508 0.16145 0.89707 0.0
C3087 C 0.46876 0.16999 0.86397 0.0
C3088 C 0.46036 0.18071 0.85081 0.0
C3089 C 0.44809 0.18311 0.87084 0.0
C3090 C 0.44417 0.17522 0.90354 0.0
C3091 C 0.43031 0.18004 0.9192 0.0
C3092 C 0.41965 0.16872 0.91539 0.0
C3093 C 0.43147 0.18501 0.96335 0.0
C3094 C 0.4271 0.19179 0.89019 0.0
C3095 C 0.43756 0.19331 0.86255 0.0
C3096 C 0.43698 0.20325 0.83231 0.0
C3097 C 0.42551 0.21179 0.82995 0.0
C3098 C 0.41447 0.21058 0.85757 0.0
C3099 C 0.41547 0.20039 0.88844 0.0
H3100 H 0.89628 0.83411 0.90005 0.0
H3101 H 0.91824 0.80697 0.82 0.0
H3102 H 0.93856 0.82144 0.82575 0.0
H3103 H 0.91144 0.86547 0.86278 0.0
H3104 H 0.91244 0.87332 0.91216 0.0
H3105 H 0.89941 0.86095 0.90185 0.0
H3106 H 0.90744 0.84681 0.96363 0.0
H3107 H 0.92051 0.85912 0.97408 0.0
H3108 H 0.92496 0.84159 0.96686 0.0
H3109 H 0.95675 0.83916 0.83857 0.0
H3110 H 0.97145 0.85818 0.85925 0.0
H3111 H 0.93875 0.87423 0.93322 0.0
C3112 C 0.90534 0.83122 0.88357 0.0
C3113 C 0.90546 0.81915 0.85961 0.0
C3114 C 0.91771 0.81589 0.83902 0.0
C3115 C 0.92938 0.82415 0.84192 0.0
C3116 C 0.92895 0.83582 0.86583 0.0
C3117 C 0.91727 0.83935 0.88654 0.0
C3118 C 0.91974 0.85239 0.91068 0.0
C3119 C 0.91018 0.8637 0.89599 0.0
C3120 C 0.91806 0.84982 0.95654 0.0
C3121 C 0.93456 0.85564 0.90015 0.0
C3122 C 0.93959 0.84593 0.87398 0.0
C3123 C 0.95287 0.84678 0.85912 0.0
C3124 C 0.96118 0.85774 0.87098 0.0
C3125 C 0.95645 0.86791 0.89796 0.0
C3126 C 0.94287 0.86667 0.9129 0.0
H3127 H 0.96011 0.1648 0.65773 0.0
H3128 H 0.94266 0.14643 0.54984 0.0
H3129 H 0.92377 0.16272 0.55178 0.0
H3130 H 0.92835 0.17111 0.70842 0.0
H3131 H 0.93308 0.18727 0.72957 0.0
H3132 H 0.94596 0.1748 0.719 0.0
H3133 H 0.95876 0.19206 0.67393 0.0
H3134 H 0.94593 0.2046 0.68447 0.0
H3135 H 0.94992 0.20026 0.6326 0.0
H3136 H 0.90575 0.17986 0.56679 0.0
H3137 H 0.89007 0.1972 0.59295 0.0
H3138 H 0.91813 0.20594 0.69137 0.0
C3139 C 0.95245 0.1644 0.63408 0.0
C3140 C 0.95307 0.15417 0.60337 0.0
C3141 C 0.94257 0.154 0.57366 0.0
C3142 C 0.93172 0.16328 0.57449 0.0
C3143 C 0.93123 0.17296 0.60531 0.0
C3144 C 0.94133 0.17371 0.63453 0.0
C3145 C 0.93787 0.185 0.6649 0.0
C3146 C 0.93622 0.1792 0.70804 0.0
C3147 C 0.94877 0.19614 0.66392 0.0
C3148 C 0.92425 0.19029 0.64837 0.0
C3149 C 0.92072 0.18311 0.61387 0.0
C3150 C 0.90849 0.1856 0.59359 0.0
C3151 C 0.89958 0.19552 0.60881 0.0
C3152 C 0.90272 0.20315 0.64415 0.0
C3153 C 0.91541 0.20052 0.66396 0.0
H3154 H 0.62582 0.18879 0.34573 0.0
H3155 H 0.60811 0.22318 0.40807 0.0
H3156 H 0.58828 0.20924 0.42675 0.0
H3157 H 0.59388 0.17486 0.30636 0.0
H3158 H 0.59879 0.15747 0.31408 0.0
H3159 H 0.61158 0.17016 0.30454 0.0
H3160 H 0.62394 0.16337 0.371 0.0
H3161 H 0.61119 0.15068 0.38075 0.0
H3162 H 0.61474 0.16346 0.41839 0.0
H3163 H 0.56991 0.19134 0.43959 0.0
H3164 H 0.55533 0.17118 0.4469 0.0
H3165 H 0.58436 0.14781 0.37676 0.0
C3166 C 0.61774 0.19345 0.36302 0.0
C3167 C 0.61881 0.20728 0.3754 0.0
C3168 C 0.60788 0.21271 0.39846 0.0
C3169 C 0.59643 0.20483 0.40913 0.0
C3170 C 0.59577 0.1913 0.39688 0.0
C3171 C 0.60616 0.18562 0.37437 0.0
C3172 C 0.60299 0.1707 0.36598 0.0
C3173 C 0.60174 0.16815 0.32 0.0
C3174 C 0.61386 0.16151 0.38517 0.0
C3175 C 0.58925 0.1689 0.38721 0.0
C3176 C 0.58526 0.18097 0.40464 0.0
C3177 C 0.57298 0.18188 0.42585 0.0
C3178 C 0.56463 0.17028 0.42961 0.0
C3179 C 0.5684 0.15762 0.41247 0.0
C3180 C 0.58101 0.15712 0.39081 0.0
H3181 H 0.5716 0.85729 0.08203 0.0
H3182 H 0.57554 0.88206 0.19047 0.0
H3183 H 0.59395 0.86742 0.2149 0.0
H3184 H 0.57842 0.82493 0.13167 0.0
H3185 H 0.58822 0.81806 0.09029 0.0
H3186 H 0.57519 0.83044 0.08022 0.0
H3187 H 0.59278 0.84566 0.04379 0.0
H3188 H 0.60586 0.83332 0.05375 0.0
H3189 H 0.60807 0.85057 0.07024 0.0
H3190 H 0.61228 0.85029 0.22882 0.0
H3191 H 0.62903 0.83195 0.23128 0.0
H3192 H 0.61422 0.81701 0.11508 0.0
C3193 C 0.57634 0.85968 0.11087 0.0
C3194 C 0.57165 0.87094 0.13439 0.0
C3195 C 0.57839 0.87347 0.17196 0.0
C3196 C 0.58906 0.8652 0.18614 0.0
C3197 C 0.59325 0.85421 0.16273 0.0
C3198 C 0.58715 0.85138 0.12582 0.0
C3199 C 0.59378 0.83878 0.10712 0.0
C3200 C 0.58327 0.82738 0.10202 0.0
C3201 C 0.60052 0.84229 0.06629 0.0
C3202 C 0.60448 0.83503 0.13927 0.0
C3203 C 0.60392 0.84416 0.17098 0.0
C3204 C 0.61269 0.84303 0.20424 0.0
C3205 C 0.62219 0.83236 0.2055 0.0
C3206 C 0.62308 0.82257 0.17392 0.0
C3207 C 0.61402 0.82414 0.14002 0.0
H3208 H 0.57625 0.65041 0.66681 0.0
H3209 H 0.55498 0.66948 0.56612 0.0
H3210 H 0.57032 0.68912 0.57078 0.0
H3211 H 0.58285 0.68157 0.72445 0.0
H3212 H 0.59958 0.67649 0.74085 0.0
H3213 H 0.58678 0.66386 0.73075 0.0
H3214 H 0.60286 0.65217 0.67958 0.0
H3215 H 0.61571 0.66475 0.68955 0.0
H3216 H 0.60995 0.66185 0.63819 0.0
H3217 H 0.58804 0.707 0.5855 0.0
H3218 H 0.60699 0.72141 0.60776 0.0
H3219 H 0.61801 0.69145 0.69884 0.0
C3220 C 0.57472 0.65877 0.64595 0.0
C3221 C 0.56423 0.65814 0.61579 0.0
C3222 C 0.56289 0.66938 0.58906 0.0
C3223 C 0.57157 0.68072 0.59165 0.0
C3224 C 0.58179 0.68094 0.62118 0.0
C3225 C 0.58346 0.67026 0.64791 0.0
C3226 C 0.59557 0.67309 0.67614 0.0
C3227 C 0.59091 0.67379 0.7207 0.0
C3228 C 0.60668 0.66232 0.67053 0.0
C3229 C 0.60041 0.68698 0.66107 0.0
C3230 C 0.59221 0.69127 0.62939 0.0
C3231 C 0.59454 0.70365 0.61013 0.0
C3232 C 0.60551 0.71179 0.62296 0.0
C3233 C 0.61438 0.70772 0.65492 0.0
C3234 C 0.61155 0.69507 0.67448 0.0
H3235 H 0.56095 0.35494 0.86903 0.0
H3236 H 0.57651 0.37183 0.98192 0.0
H3237 H 0.59595 0.35641 0.97889 0.0
H3238 H 0.57149 0.32013 0.8881 0.0
H3239 H 0.57648 0.31676 0.83635 0.0
H3240 H 0.5634 0.32904 0.84673 0.0
H3241 H 0.57692 0.34717 0.80692 0.0
H3242 H 0.59005 0.33495 0.79645 0.0
H3243 H 0.59428 0.3507 0.82101 0.0
H3244 H 0.61416 0.33935 0.96467 0.0
H3245 H 0.62974 0.32176 0.94052 0.0
H3246 H 0.60374 0.3149 0.83559 0.0
C3247 C 0.56843 0.35545 0.89317 0.0
C3248 C 0.5667 0.36469 0.92635 0.0
C3249 C 0.57699 0.36478 0.95683 0.0
C3250 C 0.58831 0.35606 0.95518 0.0
C3251 C 0.58958 0.34711 0.92265 0.0
C3252 C 0.57997 0.3467 0.89202 0.0
C3253 C 0.58405 0.33599 0.86047 0.0
C3254 C 0.57321 0.32482 0.85775 0.0
C3255 C 0.58646 0.3426 0.81873 0.0
C3256 C 0.59737 0.33048 0.87833 0.0
C3257 C 0.60028 0.33714 0.91424 0.0
C3258 C 0.61189 0.33401 0.93673 0.0
C3259 C 0.6207 0.32381 0.92273 0.0
C3260 C 0.6181 0.3165 0.8863 0.0
C3261 C 0.60621 0.32013 0.86357 0.0
H3262 H 0.91015 0.32861 0.19379 0.0
H3263 H 0.92141 0.29812 0.10497 0.0
H3264 H 0.94036 0.31242 0.08231 0.0
H3265 H 0.91839 0.35784 0.13214 0.0
H3266 H 0.92541 0.36768 0.17328 0.0
H3267 H 0.91257 0.3551 0.18349 0.0
H3268 H 0.92851 0.34352 0.23554 0.0
H3269 H 0.94139 0.35608 0.22553 0.0
H3270 H 0.94528 0.33835 0.21993 0.0
H3271 H 0.95805 0.33033 0.0666 0.0
H3272 H 0.97346 0.34994 0.0614 0.0
H3273 H 0.95223 0.3693 0.1612 0.0
C3274 C 0.91666 0.32484 0.16984 0.0
C3275 C 0.91383 0.31208 0.15097 0.0
C3276 C 0.92281 0.30783 0.11957 0.0
C3277 C 0.9338 0.31591 0.10651 0.0
C3278 C 0.9361 0.3284 0.12506 0.0
C3279 C 0.92787 0.33285 0.15632 0.0
C3280 C 0.93275 0.34678 0.17086 0.0
C3281 C 0.92161 0.35748 0.16457 0.0
C3282 C 0.93725 0.34614 0.21563 0.0
C3283 C 0.94492 0.34944 0.14281 0.0
C3284 C 0.94658 0.33867 0.11657 0.0
C3285 C 0.95683 0.33878 0.08716 0.0
C3286 C 0.96556 0.3501 0.08427 0.0
C3287 C 0.96427 0.36139 0.11066 0.0
C3288 C 0.95374 0.36089 0.14064 0.0
H3289 H 0.94868 0.65414 0.43931 0.0
H3290 H 0.97752 0.6652 0.34499 0.0
H3291 H 0.96202 0.68307 0.3214 0.0
H3292 H 0.91823 0.6599 0.38015 0.0
H3293 H 0.90857 0.66704 0.42141 0.0
H3294 H 0.92192 0.65505 0.43191 0.0
H3295 H 0.93344 0.67225 0.48012 0.0
H3296 H 0.9201 0.68429 0.46984 0.0
H3297 H 0.9376 0.68892 0.46148 0.0
H3298 H 0.94311 0.69974 0.30593 0.0
H3299 H 0.92277 0.71416 0.30141 0.0
H3300 H 0.90554 0.69342 0.40589 0.0
C3301 C 0.95185 0.66039 0.41395 0.0
C3302 C 0.9645 0.65787 0.39394 0.0
C3303 C 0.96793 0.66643 0.36063 0.0
C3304 C 0.95916 0.67679 0.34702 0.0
C3305 C 0.94678 0.67881 0.36684 0.0
C3306 C 0.94312 0.67092 0.3998 0.0
C3307 C 0.92912 0.67531 0.41536 0.0
C3308 C 0.91885 0.66363 0.41201 0.0
C3309 C 0.93013 0.6805 0.45932 0.0
C3310 C 0.92551 0.68683 0.38594 0.0
C3311 C 0.93589 0.6886 0.35818 0.0
C3312 C 0.93494 0.69839 0.32759 0.0
C3313 C 0.92319 0.70654 0.32508 0.0
C3314 C 0.91225 0.70509 0.35295 0.0
C3315 C 0.91362 0.69503 0.38407 0.0
H3316 H 0.39925 0.33462 0.37451 0.0
H3317 H 0.42389 0.29832 0.36165 0.0
H3318 H 0.44432 0.31178 0.37565 0.0
H3319 H 0.42309 0.35679 0.3225 0.0
H3320 H 0.41944 0.37111 0.35459 0.0
H3321 H 0.40655 0.3585 0.34546 0.0
H3322 H 0.40392 0.35494 0.42305 0.0
H3323 H 0.41686 0.36748 0.4324 0.0
H3324 H 0.41864 0.35068 0.45321 0.0
H3325 H 0.4628 0.32965 0.393 0.0
H3326 H 0.47684 0.34956 0.40774 0.0
H3327 H 0.44065 0.37482 0.4014 0.0
C3328 C 0.40882 0.32929 0.37396 0.0
C3329 C 0.40939 0.31497 0.36698 0.0
C3330 C 0.42258 0.30898 0.36766 0.0
C3331 C 0.43448 0.31666 0.37534 0.0
C3332 C 0.43342 0.3306 0.38193 0.0
C3333 C 0.4209 0.33687 0.38086 0.0
C3334 C 0.42257 0.3521 0.3877 0.0
C3335 C 0.41762 0.36009 0.35034 0.0
C3336 C 0.41505 0.35656 0.42639 0.0
C3337 C 0.43796 0.35342 0.393 0.0
C3338 C 0.44402 0.34087 0.38991 0.0
C3339 C 0.45807 0.33952 0.39489 0.0
C3340 C 0.46609 0.35113 0.40304 0.0
C3341 C 0.46032 0.36434 0.4058 0.0
C3342 C 0.44586 0.36522 0.40036 0.0
H3343 H 0.39872 0.69085 0.12341 0.0
H3344 H 0.41979 0.71685 0.20928 0.0
H3345 H 0.44011 0.70242 0.20395 0.0
H3346 H 0.41302 0.65913 0.15965 0.0
H3347 H 0.41452 0.65172 0.10978 0.0
H3348 H 0.40153 0.66414 0.11957 0.0
H3349 H 0.41049 0.67875 0.06 0.0
H3350 H 0.42353 0.66637 0.05007 0.0
H3351 H 0.42811 0.68377 0.05926 0.0
H3352 H 0.45836 0.68466 0.19125 0.0
H3353 H 0.473 0.6656 0.17098 0.0
H3354 H 0.44099 0.65058 0.0921 0.0
C3355 C 0.40757 0.69354 0.14126 0.0
C3356 C 0.40741 0.70529 0.16669 0.0
C3357 C 0.41945 0.70824 0.18898 0.0
C3358 C 0.43113 0.69997 0.18638 0.0
C3359 C 0.43092 0.6886 0.16115 0.0
C3360 C 0.41947 0.68538 0.13879 0.0
C3361 C 0.42207 0.67253 0.11387 0.0
C3362 C 0.4122 0.66121 0.12647 0.0
C3363 C 0.42098 0.67554 0.06808 0.0
C3364 C 0.4367 0.66901 0.12585 0.0
C3365 C 0.44155 0.67843 0.15335 0.0
C3366 C 0.45462 0.67728 0.16967 0.0
C3367 C 0.4629 0.66629 0.15801 0.0
C3368 C 0.45835 0.65637 0.12983 0.0
C3369 C 0.44498 0.65795 0.11334 0.0
H3370 H 0.0841 0.65209 0.93697 0.0
H3371 H 0.05203 0.66792 0.85975 0.0
H3372 H 0.06687 0.68696 0.83986 0.0
H3373 H 0.09751 0.68477 0.97091 0.0
H3374 H 0.11504 0.6795 0.96951 0.0
H3375 H 0.10183 0.66724 0.97894 0.0
H3376 H 0.11035 0.6529 0.91839 0.0
H3377 H 0.12357 0.66513 0.90874 0.0
H3378 H 0.11184 0.66061 0.86882 0.0
H3379 H 0.08534 0.70473 0.82786 0.0
H3380 H 0.10587 0.71895 0.82278 0.0
H3381 H 0.12687 0.69193 0.90601 0.0
C3382 C 0.08013 0.65962 0.91615 0.0
C3383 C 0.06668 0.6583 0.90008 0.0
C3384 C 0.06218 0.66843 0.87242 0.0
C3385 C 0.07058 0.6794 0.86099 0.0
C3386 C 0.08373 0.68032 0.87698 0.0
C3387 C 0.08853 0.67065 0.90385 0.0
C3388 C 0.10327 0.67391 0.91549 0.0
C3389 C 0.10448 0.67651 0.96145 0.0
C3390 C 0.11283 0.66245 0.90206 0.0
C3391 C 0.10596 0.68687 0.89113 0.0
C3392 C 0.09448 0.69041 0.86937 0.0
C3393 C 0.09435 0.70201 0.84491 0.0
C3394 C 0.10615 0.71015 0.84244 0.0
C3395 C 0.11824 0.70684 0.864 0.0
C3396 C 0.11799 0.69489 0.8887 0.0
H3397 H 0.06784 0.35367 0.58504 0.0
H3398 H 0.07471 0.38156 0.68493 0.0
H3399 H 0.09393 0.36768 0.70828 0.0
H3400 H 0.07593 0.32298 0.6425 0.0
H3401 H 0.08439 0.3146 0.60097 0.0
H3402 H 0.07117 0.32677 0.59072 0.0
H3403 H 0.08766 0.3404 0.54518 0.0
H3404 H 0.10093 0.32828 0.55536 0.0
H3405 H 0.10371 0.34598 0.56575 0.0
H3406 H 0.113 0.35136 0.72075 0.0
H3407 H 0.12976 0.33316 0.72413 0.0
H3408 H 0.11091 0.31391 0.61935 0.0
C3409 C 0.0734 0.35688 0.61177 0.0
C3410 C 0.06943 0.36885 0.63319 0.0
C3411 C 0.07714 0.37246 0.66813 0.0
C3412 C 0.08824 0.36463 0.6816 0.0
C3413 C 0.09178 0.35295 0.66025 0.0
C3414 C 0.08457 0.34898 0.6262 0.0
C3415 C 0.09054 0.3357 0.60977 0.0
C3416 C 0.07987 0.32434 0.61107 0.0
C3417 C 0.09603 0.33771 0.56643 0.0
C3418 C 0.10216 0.33291 0.6399 0.0
C3419 C 0.10265 0.34313 0.66845 0.0
C3420 C 0.11253 0.34319 0.6989 0.0
C3421 C 0.12203 0.33254 0.70081 0.0
C3422 C 0.12176 0.32151 0.67296 0.0
C3423 C 0.11161 0.32194 0.64159 0.0
loop_
_geom_bond_atom_site_label_1
_geom_bond_atom_site_label_2
_geom_bond_distance
_geom_bond_site_symmetry_2
_ccdc_geom_bond_type
C0 C1 1.443 . S
C0 N4 1.376 1_556 S
C0 C38 1.389 1_655 S
C1 C0 1.443 . S
C1 C2 1.340 . S
C1 H41 0.951 . S
C2 C1 1.340 . S
C2 C3 1.439 1_556 S
C2 H42 0.950 . S
C3 C2 1.439 1_554 S
C3 N4 1.374 . S
C3 C37 1.395 . S
N4 C0 1.376 1_554 S
N4 C3 1.374 . S
N4 Co5 2.008 1_655 S
Co5 N4 2.008 1_455 S
Co5 N6 1.995 1_455 S
Co5 N11 2.008 . S
Co5 N16 1.995 . S
Co5 N21 2.282 . S
Co5 N27 2.318 . S
N6 Co5 1.995 1_655 S
N6 C7 1.376 . S
N6 C10 1.383 . S
C7 N6 1.376 . S
C7 C8 1.446 . S
C7 C37 1.391 . S
C8 C7 1.446 . S
C8 C9 1.339 . S
C8 H43 0.949 . S
C9 C8 1.339 . S
C9 C10 1.439 . S
C9 H44 0.950 . S
C10 N6 1.383 . S
C10 C9 1.439 . S
C10 C39 1.392 1_655 S
N11 Co5 2.008 . S
N11 C12 1.376 . S
N11 C15 1.374 . S
C12 N11 1.376 . S
C12 C13 1.443 . S
C12 C39 1.389 . S
C13 C12 1.443 . S
C13 C14 1.340 . S
C13 H45 0.951 . S
C14 C13 1.340 . S
C14 C15 1.439 . S
C14 H46 0.950 . S
C15 N11 1.374 . S
C15 C14 1.439 . S
C15 C40 1.395 . S
N16 Co5 1.995 . S
N16 C17 1.376 . S
N16 C20 1.383 1_554 S
C17 N16 1.376 . S
C17 C18 1.446 1_554 S
C17 C40 1.391 . S
C18 C17 1.446 1_556 S
C18 C19 1.339 . S
C18 H47 0.949 . S
C19 C18 1.339 . S
C19 C20 1.439 . S
C19 H48 0.950 . S
C20 N16 1.383 1_556 S
C20 C19 1.439 . S
C20 C38 1.392 . S
N21 Co5 2.282 . S
N21 C24 1.332 . S
N21 C26 1.332 . S
C22 C23 1.386 . S
C22 C25 1.388 . S
C23 C22 1.386 . S
C23 C24 1.382 . S
C23 H49 0.950 . S
C24 N21 1.332 . S
C24 C23 1.382 . S
C24 H35 0.952 . S
C25 C22 1.388 . S
C25 C26 1.382 . S
C25 H50 0.950 . S
C26 N21 1.332 . S
C26 C25 1.382 . S
C26 H36 0.948 . S
N27 Co5 2.318 . S
N27 C31 1.243 1_455 S
N27 C32 1.383 . S
C28 C29 1.388 1_455 S
C28 C32 1.382 . S
C28 H51 0.950 . S
C29 C28 1.388 1_655 S
C29 C30 1.386 . S
C30 C29 1.386 . S
C30 C31 1.382 . S
C30 H52 0.950 . S
C31 N27 1.243 1_655 S
C31 C30 1.382 . S
C31 H33 0.952 . S
C32 N27 1.383 . S
C32 C28 1.382 . S
C32 H34 0.948 . S
H33 C31 0.952 . S
H34 C32 0.948 . S
H35 C24 0.952 . S
H36 C26 0.948 . S
C37 C3 1.395 . S
C37 C7 1.391 . S
C38 C0 1.389 1_455 S
C38 C20 1.392 . S
C39 C10 1.392 1_455 S
C39 C12 1.389 . S
C40 C15 1.395 . S
C40 C17 1.391 . S
H41 C1 0.951 . S
H42 C2 0.950 . S
H43 C8 0.949 . S
H44 C9 0.950 . S
H45 C13 0.951 . S
H46 C14 0.950 . S
H47 C18 0.949 . S
H48 C19 0.950 . S
H49 C23 0.950 . S
H50 C25 0.950 . S
H51 C28 0.950 . S
H52 C30 0.950 . S
C53 C54 1.443 . S
C53 N57 1.376 . S
C53 C91 1.389 . S
C54 C53 1.443 . S
C54 C55 1.340 . S
C54 H94 0.951 . S
C55 C54 1.340 . S
C55 C56 1.439 . S
C55 H95 0.950 . S
C56 C55 1.439 . S
C56 N57 1.374 . S
C56 C90 1.395 . S
N57 C53 1.376 . S
N57 C56 1.374 . S
N57 Co58 2.008 . S
Co58 N57 2.008 . S
Co58 N59 1.995 . S
Co58 N64 2.008 . S
Co58 N69 1.995 . S
Co58 N74 2.282 . S
Co58 N80 2.282 . S
N59 Co58 1.995 . S
N59 C60 1.376 . S
N59 C63 1.383 . S
C60 N59 1.376 . S
C60 C61 1.446 . S
C60 C90 1.391 . S
C61 C60 1.446 . S
C61 C62 1.339 . S
C61 H96 0.949 . S
C62 C61 1.339 . S
C62 C63 1.439 . S
C62 H97 0.950 . S
C63 N59 1.383 . S
C63 C62 1.439 . S
C63 C92 1.392 . S
N64 Co58 2.008 . S
N64 C65 1.376 . S
N64 C68 1.374 . S
C65 N64 1.376 . S
C65 C66 1.443 . S
C65 C92 1.389 . S
C66 C65 1.443 . S
C66 C67 1.340 . S
C66 H98 0.951 . S
C67 C66 1.340 . S
C67 C68 1.439 . S
C67 H99 0.950 . S
C68 N64 1.374 . S
C68 C67 1.439 . S
C68 C93 1.395 . S
N69 Co58 1.995 . S
N69 C70 1.376 . S
N69 C73 1.383 . S
C70 N69 1.376 . S
C70 C71 1.446 . S
C70 C93 1.391 . S
C71 C70 1.446 . S
C71 C72 1.339 . S
C71 H100 0.949 . S
C72 C71 1.339 . S
C72 C73 1.439 . S
C72 H101 0.950 . S
C73 N69 1.383 . S
C73 C72 1.439 . S
C73 C91 1.392 . S
N74 Co58 2.282 . S
N74 C77 1.332 . S
N74 C79 1.332 . S
C75 C76 1.386 . S
C75 C78 1.388 . S
C76 C75 1.386 . S
C76 C77 1.382 . S
C76 H102 0.950 . S
C77 N74 1.332 . S
C77 C76 1.382 . S
C77 H88 0.952 . S
C78 C75 1.388 . S
C78 C79 1.382 . S
C78 H103 0.950 . S
C79 N74 1.332 . S
C79 C78 1.382 . S
C79 H89 0.948 . S
N80 Co58 2.282 . S
N80 C84 1.332 . S
N80 C85 1.332 . S
C81 C82 1.388 . S
C81 C85 1.382 . S
C81 H104 0.950 . S
C82 C81 1.388 . S
C82 C83 1.386 . S
C83 C82 1.386 . S
C83 C84 1.382 . S
C83 H105 0.950 . S
C84 N80 1.332 . S
C84 C83 1.382 . S
C84 H86 0.952 . S
C85 N80 1.332 . S
C85 C81 1.382 . S
C85 H87 0.948 . S
H86 C84 0.952 . S
H87 C85 0.948 . S
H88 C77 0.952 . S
H89 C79 0.948 . S
C90 C56 1.395 . S
C90 C60 1.391 . S
C91 C53 1.389 . S
C91 C73 1.392 . S
C92 C63 1.392 . S
C92 C65 1.389 . S
C93 C68 1.395 . S
C93 C70 1.391 . S
H94 C54 0.951 . S
H95 C55 0.950 . S
H96 C61 0.949 . S
H97 C62 0.950 . S
H98 C66 0.951 . S
H99 C67 0.950 . S
H100 C71 0.949 . S
H101 C72 0.950 . S
H102 C76 0.950 . S
H103 C78 0.950 . S
H104 C81 0.950 . S
H105 C83 0.950 . S
C106 C107 1.443 . S
C106 N110 1.376 . S
C106 C144 1.389 . S
C107 C106 1.443 . S
C107 C108 1.340 . S
C107 H147 0.951 . S
C108 C107 1.340 . S
C108 C109 1.439 . S
C108 H148 0.950 . S
C109 C108 1.439 . S
C109 N110 1.374 . S
C109 C143 1.395 . S
N110 C106 1.376 . S
N110 C109 1.374 . S
N110 Co111 2.008 . S
Co111 N110 2.008 . S
Co111 N112 1.995 . S
Co111 N117 2.008 . S
Co111 N122 1.995 . S
Co111 N127 2.282 . S
Co111 N133 2.282 . S
N112 Co111 1.995 . S
N112 C113 1.376 . S
N112 C116 1.383 . S
C113 N112 1.376 . S
C113 C114 1.446 . S
C113 C143 1.391 . S
C114 C113 1.446 . S
C114 C115 1.339 . S
C114 H149 0.949 . S
C115 C114 1.339 . S
C115 C116 1.439 . S
C115 H150 0.950 . S
C116 N112 1.383 . S
C116 C115 1.439 . S
C116 C145 1.392 . S
N117 Co111 2.008 . S
N117 C118 1.376 . S
N117 C121 1.374 . S
C118 N117 1.376 . S
C118 C119 1.443 . S
C118 C145 1.389 . S
C119 C118 1.443 . S
C119 C120 1.340 . S
C119 H151 0.951 . S
C120 C119 1.340 . S
C120 C121 1.439 . S
C120 H152 0.950 . S
C121 N117 1.374 . S
C121 C120 1.439 . S
C121 C146 1.395 . S
N122 Co111 1.995 . S
N122 C123 1.376 . S
N122 C126 1.383 . S
C123 N122 1.376 . S
C123 C124 1.446 . S
C123 C146 1.391 . S
C124 C123 1.446 . S
C124 C125 1.339 . S
C124 H153 0.949 . S
C125 C124 1.339 . S
C125 C126 1.439 . S
C125 H154 0.950 . S
C126 N122 1.383 . S
C126 C125 1.439 . S
C126 C144 1.392 . S
N127 Co111 2.282 . S
N127 C130 1.332 . S
N127 C132 1.332 . S
C128 C129 1.386 . S
C128 C131 1.388 . S
C129 C128 1.386 . S
C129 C130 1.382 . S
C129 H155 0.950 . S
C130 N127 1.332 . S
C130 C129 1.382 . S
C130 H141 0.952 . S
C131 C128 1.388 . S
C131 C132 1.382 . S
C131 H156 0.950 . S
C132 N127 1.332 . S
C132 C131 1.382 . S
C132 H142 0.948 . S
N133 Co111 2.282 . S
N133 C137 1.332 . S
N133 C138 1.332 . S
C134 C135 1.388 . S
C134 C138 1.382 . S
C134 H157 0.950 . S
C135 C134 1.388 . S
C135 C136 1.386 . S
C136 C135 1.386 . S
C136 C137 1.382 . S
C136 H158 0.950 . S
C137 N133 1.332 . S
C137 C136 1.382 . S
C137 H139 0.952 . S
C138 N133 1.332 . S
C138 C134 1.382 . S
C138 H140 0.948 . S
H139 C137 0.952 . S
H140 C138 0.948 . S
H141 C130 0.952 . S
H142 C132 0.948 . S
C143 C109 1.395 . S
C143 C113 1.391 . S
C144 C106 1.389 . S
C144 C126 1.392 . S
C145 C116 1.392 . S
C145 C118 1.389 . S
C146 C121 1.395 . S
C146 C123 1.391 . S
H147 C107 0.951 . S
H148 C108 0.950 . S
H149 C114 0.949 . S
H150 C115 0.950 . S
H151 C119 0.951 . S
H152 C120 0.950 . S
H153 C124 0.949 . S
H154 C125 0.950 . S
H155 C129 0.950 . S
H156 C131 0.950 . S
H157 C134 0.950 . S
H158 C136 0.950 . S
C159 C160 1.443 . S
C159 N163 1.376 . S
C159 C197 1.389 . S
C160 C159 1.443 . S
C160 C161 1.340 . S
C160 H200 0.951 . S
C161 C160 1.340 . S
C161 C162 1.439 . S
C161 H201 0.950 . S
C162 C161 1.439 . S
C162 N163 1.374 . S
C162 C196 1.395 . S
N163 C159 1.376 . S
N163 C162 1.374 . S
N163 Co164 2.008 . S
Co164 N163 2.008 . S
Co164 N165 1.995 . S
Co164 N170 2.008 . S
Co164 N175 1.995 . S
Co164 N180 2.282 . S
Co164 N186 2.282 . S
N165 Co164 1.995 . S
N165 C166 1.376 . S
N165 C169 1.383 . S
C166 N165 1.376 . S
C166 C167 1.446 . S
C166 C196 1.391 . S
C167 C166 1.446 . S
C167 C168 1.339 . S
C167 H202 0.949 . S
C168 C167 1.339 . S
C168 C169 1.439 . S
C168 H203 0.950 . S
C169 N165 1.383 . S
C169 C168 1.439 . S
C169 C198 1.392 . S
N170 Co164 2.008 . S
N170 C171 1.376 . S
N170 C174 1.374 . S
C171 N170 1.376 . S
C171 C172 1.443 . S
C171 C198 1.389 . S
C172 C171 1.443 . S
C172 C173 1.340 . S
C172 H204 0.951 . S
C173 C172 1.340 . S
C173 C174 1.439 . S
C173 H205 0.950 . S
C174 N170 1.374 . S
C174 C173 1.439 . S
C174 C199 1.395 . S
N175 Co164 1.995 . S
N175 C176 1.376 . S
N175 C179 1.383 . S
C176 N175 1.376 . S
C176 C177 1.446 . S
C176 C199 1.391 . S
C177 C176 1.446 . S
C177 C178 1.339 . S
C177 H206 0.949 . S
C178 C177 1.339 . S
C178 C179 1.439 . S
C178 H207 0.950 . S
C179 N175 1.383 . S
C179 C178 1.439 . S
C179 C197 1.392 . S
N180 Co164 2.282 . S
N180 C183 1.332 . S
N180 C185 1.332 . S
C181 C182 1.386 . S
C181 C184 1.388 . S
C182 C181 1.386 . S
C182 C183 1.382 . S
C182 H208 0.950 . S
C183 N180 1.332 . S
C183 C182 1.382 . S
C183 H194 0.952 . S
C184 C181 1.388 . S
C184 C185 1.382 . S
C184 H209 0.950 . S
C185 N180 1.332 . S
C185 C184 1.382 . S
C185 H195 0.948 . S
N186 Co164 2.282 . S
N186 C190 1.332 . S
N186 C191 1.332 . S
C187 C188 1.388 . S
C187 C191 1.382 . S
C187 H210 0.950 . S
C188 C187 1.388 . S
C188 C189 1.386 . S
C189 C188 1.386 . S
C189 C190 1.382 . S
C189 H211 0.950 . S
C190 N186 1.332 . S
C190 C189 1.382 . S
C190 H192 0.952 . S
C191 N186 1.332 . S
C191 C187 1.382 . S
C191 H193 0.948 . S
H192 C190 0.952 . S
H193 C191 0.948 . S
H194 C183 0.952 . S
H195 C185 0.948 . S
C196 C162 1.395 . S
C196 C166 1.391 . S
C197 C159 1.389 . S
C197 C179 1.392 . S
C198 C169 1.392 . S
C198 C171 1.389 . S
C199 C174 1.395 . S
C199 C176 1.391 . S
H200 C160 0.951 . S
H201 C161 0.950 . S
H202 C167 0.949 . S
H203 C168 0.950 . S
H204 C172 0.951 . S
H205 C173 0.950 . S
H206 C177 0.949 . S
H207 C178 0.950 . S
H208 C182 0.950 . S
H209 C184 0.950 . S
H210 C187 0.950 . S
H211 C189 0.950 . S
C212 C213 1.443 . S
C212 N216 1.376 . S
C212 C250 1.389 1_655 S
C213 C212 1.443 . S
C213 C214 1.340 . S
C213 H253 0.951 . S
C214 C213 1.340 . S
C214 C215 1.439 . S
C214 H254 0.950 . S
C215 C214 1.439 . S
C215 N216 1.374 . S
C215 C249 1.395 . S
N216 C212 1.376 . S
N216 C215 1.374 . S
N216 Co217 2.008 1_655 S
Co217 N216 2.008 1_455 S
Co217 N218 1.995 1_455 S
Co217 N223 2.008 . S
Co217 N228 1.995 . S
Co217 N233 2.282 . S
Co217 N239 2.318 . S
N218 Co217 1.995 1_655 S
N218 C219 1.376 . S
N218 C222 1.383 . S
C219 N218 1.376 . S
C219 C220 1.446 . S
C219 C249 1.391 . S
C220 C219 1.446 . S
C220 C221 1.339 . S
C220 H255 0.949 . S
C221 C220 1.339 . S
C221 C222 1.439 . S
C221 H256 0.950 . S
C222 N218 1.383 . S
C222 C221 1.439 . S
C222 C251 1.392 1_655 S
N223 Co217 2.008 . S
N223 C224 1.376 . S
N223 C227 1.374 . S
C224 N223 1.376 . S
C224 C225 1.443 . S
C224 C251 1.389 . S
C225 C224 1.443 . S
C225 C226 1.340 . S
C225 H257 0.951 . S
C226 C225 1.340 . S
C226 C227 1.439 . S
C226 H258 0.950 . S
C227 N223 1.374 . S
C227 C226 1.439 . S
C227 C252 1.395 . S
N228 Co217 1.995 . S
N228 C229 1.376 . S
N228 C232 1.383 . S
C229 N228 1.376 . S
C229 C230 1.446 . S
C229 C252 1.391 . S
C230 C229 1.446 . S
C230 C231 1.339 . S
C230 H259 0.949 . S
C231 C230 1.339 . S
C231 C232 1.439 . S
C231 H260 0.950 . S
C232 N228 1.383 . S
C232 C231 1.439 . S
C232 C250 1.392 . S
N233 Co217 2.282 . S
N233 C236 1.332 . S
N233 C238 1.332 . S
C234 C235 1.386 . S
C234 C237 1.388 . S
C235 C234 1.386 . S
C235 C236 1.382 . S
C235 H261 0.950 . S
C236 N233 1.332 . S
C236 C235 1.382 . S
C236 H247 0.952 . S
C237 C234 1.388 . S
C237 C238 1.382 . S
C237 H262 0.950 . S
C238 N233 1.332 . S
C238 C237 1.382 . S
C238 H248 0.948 . S
N239 Co217 2.318 . S
N239 C243 1.243 1_455 S
N239 C244 1.383 . S
C240 C241 1.388 1_455 S
C240 C244 1.382 . S
C240 H263 0.950 . S
C241 C240 1.388 1_655 S
C241 C242 1.386 . S
C242 C241 1.386 . S
C242 C243 1.382 . S
C242 H264 0.950 . S
C243 N239 1.243 1_655 S
C243 C242 1.382 . S
C243 H245 0.952 . S
C244 N239 1.383 . S
C244 C240 1.382 . S
C244 H246 0.948 . S
H245 C243 0.952 . S
H246 C244 0.948 . S
H247 C236 0.952 . S
H248 C238 0.948 . S
C249 C215 1.395 . S
C249 C219 1.391 . S
C250 C212 1.389 1_455 S
C250 C232 1.392 . S
C251 C222 1.392 1_455 S
C251 C224 1.389 . S
C252 C227 1.395 . S
C252 C229 1.391 . S
H253 C213 0.951 . S
H254 C214 0.950 . S
H255 C220 0.949 . S
H256 C221 0.950 . S
H257 C225 0.951 . S
H258 C226 0.950 . S
H259 C230 0.949 . S
H260 C231 0.950 . S
H261 C235 0.950 . S
H262 C237 0.950 . S
H263 C240 0.950 . S
H264 C242 0.950 . S
C265 C266 1.443 . S
C265 N269 1.376 . S
C265 C303 1.389 . S
C266 C265 1.443 . S
C266 C267 1.340 . S
C266 H306 0.951 . S
C267 C266 1.340 . S
C267 C268 1.439 . S
C267 H307 0.950 . S
C268 C267 1.439 . S
C268 N269 1.374 . S
C268 C302 1.395 . S
N269 C265 1.376 . S
N269 C268 1.374 . S
N269 Co270 2.008 . S
Co270 N269 2.008 . S
Co270 N271 1.995 . S
Co270 N276 2.008 . S
Co270 N281 1.995 . S
Co270 N286 2.282 . S
Co270 N292 2.282 . S
N271 Co270 1.995 . S
N271 C272 1.376 . S
N271 C275 1.383 . S
C272 N271 1.376 . S
C272 C273 1.446 . S
C272 C302 1.391 . S
C273 C272 1.446 . S
C273 C274 1.339 . S
C273 H308 0.949 . S
C274 C273 1.339 . S
C274 C275 1.439 . S
C274 H309 0.950 . S
C275 N271 1.383 . S
C275 C274 1.439 . S
C275 C304 1.392 . S
N276 Co270 2.008 . S
N276 C277 1.376 . S
N276 C280 1.374 . S
C277 N276 1.376 . S
C277 C278 1.443 . S
C277 C304 1.389 . S
C278 C277 1.443 . S
C278 C279 1.340 . S
C278 H310 0.951 . S
C279 C278 1.340 . S
C279 C280 1.439 . S
C279 H311 0.950 . S
C280 N276 1.374 . S
C280 C279 1.439 . S
C280 C305 1.395 . S
N281 Co270 1.995 . S
N281 C282 1.376 . S
N281 C285 1.383 . S
C282 N281 1.376 . S
C282 C283 1.446 . S
C282 C305 1.391 . S
C283 C282 1.446 . S
C283 C284 1.339 . S
C283 H312 0.949 . S
C284 C283 1.339 . S
C284 C285 1.439 . S
C284 H313 0.950 . S
C285 N281 1.383 . S
C285 C284 1.439 . S
C285 C303 1.392 . S
N286 Co270 2.282 . S
N286 C289 1.332 . S
N286 C291 1.332 . S
C287 C288 1.386 . S
C287 C290 1.388 . S
C288 C287 1.386 . S
C288 C289 1.382 . S
C288 H314 0.950 . S
C289 N286 1.332 . S
C289 C288 1.382 . S
C289 H300 0.952 . S
C290 C287 1.388 . S
C290 C291 1.382 . S
C290 H315 0.950 . S
C291 N286 1.332 . S
C291 C290 1.382 . S
C291 H301 0.948 . S
N292 Co270 2.282 . S
N292 C296 1.332 . S
N292 C297 1.332 . S
C293 C294 1.388 . S
C293 C297 1.382 . S
C293 H316 0.950 . S
C294 C293 1.388 . S
C294 C295 1.386 . S
C295 C294 1.386 . S
C295 C296 1.382 . S
C295 H317 0.950 . S
C296 N292 1.332 . S
C296 C295 1.382 . S
C296 H298 0.952 . S
C297 N292 1.332 . S
C297 C293 1.382 . S
C297 H299 0.948 . S
H298 C296 0.952 . S
H299 C297 0.948 . S
H300 C289 0.952 . S
H301 C291 0.948 . S
C302 C268 1.395 . S
C302 C272 1.391 . S
C303 C265 1.389 . S
C303 C285 1.392 . S
C304 C275 1.392 . S
C304 C277 1.389 . S
C305 C280 1.395 . S
C305 C282 1.391 . S
H306 C266 0.951 . S
H307 C267 0.950 . S
H308 C273 0.949 . S
H309 C274 0.950 . S
H310 C278 0.951 . S
H311 C279 0.950 . S
H312 C283 0.949 . S
H313 C284 0.950 . S
H314 C288 0.950 . S
H315 C290 0.950 . S
H316 C293 0.950 . S
H317 C295 0.950 . S
C318 C319 1.443 . S
C318 N322 1.376 1_554 S
C318 C356 1.389 . S
C319 C318 1.443 . S
C319 C320 1.340 . S
C319 H359 0.951 . S
C320 C319 1.340 . S
C320 C321 1.439 1_554 S
C320 H360 0.950 . S
C321 C320 1.439 1_556 S
C321 N322 1.374 . S
C321 C355 1.395 . S
N322 C318 1.376 1_556 S
N322 C321 1.374 . S
N322 Co323 2.008 . S
Co323 N322 2.008 . S
Co323 N324 1.995 . S
Co323 N329 2.008 . S
Co323 N334 1.995 . S
Co323 N339 2.282 . S
Co323 N345 2.282 . S
N324 Co323 1.995 . S
N324 C325 1.376 . S
N324 C328 1.383 . S
C325 N324 1.376 . S
C325 C326 1.446 . S
C325 C355 1.391 . S
C326 C325 1.446 . S
C326 C327 1.339 . S
C326 H361 0.949 . S
C327 C326 1.339 . S
C327 C328 1.439 . S
C327 H362 0.950 . S
C328 N324 1.383 . S
C328 C327 1.439 . S
C328 C357 1.392 . S
N329 Co323 2.008 . S
N329 C330 1.376 . S
N329 C333 1.374 . S
C330 N329 1.376 . S
C330 C331 1.443 . S
C330 C357 1.389 . S
C331 C330 1.443 . S
C331 C332 1.340 . S
C331 H363 0.951 . S
C332 C331 1.340 . S
C332 C333 1.439 . S
C332 H364 0.950 . S
C333 N329 1.374 . S
C333 C332 1.439 . S
C333 C358 1.395 . S
N334 Co323 1.995 . S
N334 C335 1.376 . S
N334 C338 1.383 1_556 S
C335 N334 1.376 . S
C335 C336 1.446 1_556 S
C335 C358 1.391 . S
C336 C335 1.446 1_554 S
C336 C337 1.339 . S
C336 H365 0.949 . S
C337 C336 1.339 . S
C337 C338 1.439 . S
C337 H366 0.950 . S
C338 N334 1.383 1_554 S
C338 C337 1.439 . S
C338 C356 1.392 . S
N339 Co323 2.282 . S
N339 C342 1.332 . S
N339 C344 1.332 . S
C340 C341 1.386 . S
C340 C343 1.388 . S
C341 C340 1.386 . S
C341 C342 1.382 . S
C341 H367 0.950 . S
C342 N339 1.332 . S
C342 C341 1.382 . S
C342 H353 0.952 . S
C343 C340 1.388 . S
C343 C344 1.382 . S
C343 H368 0.950 . S
C344 N339 1.332 . S
C344 C343 1.382 . S
C344 H354 0.948 . S
N345 Co323 2.282 . S
N345 C349 1.332 . S
N345 C350 1.332 . S
C346 C347 1.388 . S
C346 C350 1.382 . S
C346 H369 0.950 . S
C347 C346 1.388 . S
C347 C348 1.386 . S
C348 C347 1.386 . S
C348 C349 1.382 . S
C348 H370 0.950 . S
C349 N345 1.332 . S
C349 C348 1.382 . S
C349 H351 0.952 . S
C350 N345 1.332 . S
C350 C346 1.382 . S
C350 H352 0.948 . S
H351 C349 0.952 . S
H352 C350 0.948 . S
H353 C342 0.952 . S
H354 C344 0.948 . S
C355 C321 1.395 . S
C355 C325 1.391 . S
C356 C318 1.389 . S
C356 C338 1.392 . S
C357 C328 1.392 . S
C357 C330 1.389 . S
C358 C333 1.395 . S
C358 C335 1.391 . S
H359 C319 0.951 . S
H360 C320 0.950 . S
H361 C326 0.949 . S
H362 C327 0.950 . S
H363 C331 0.951 . S
H364 C332 0.950 . S
H365 C336 0.949 . S
H366 C337 0.950 . S
H367 C341 0.950 . S
H368 C343 0.950 . S
H369 C346 0.950 . S
H370 C348 0.950 . S
C371 C372 1.443 . S
C371 N375 1.376 . S
C371 C409 1.389 . S
C372 C371 1.443 . S
C372 C373 1.340 . S
C372 H412 0.951 . S
C373 C372 1.340 . S
C373 C374 1.439 . S
C373 H413 0.950 . S
C374 C373 1.439 . S
C374 N375 1.374 . S
C374 C408 1.395 . S
N375 C371 1.376 . S
N375 C374 1.374 . S
N375 Co376 2.008 . S
Co376 N375 2.008 . S
Co376 N377 1.995 . S
Co376 N382 2.008 . S
Co376 N387 1.995 . S
Co376 N392 2.282 . S
Co376 N398 2.282 . S
N377 Co376 1.995 . S
N377 C378 1.376 . S
N377 C381 1.383 . S
C378 N377 1.376 . S
C378 C379 1.446 . S
C378 C408 1.391 . S
C379 C378 1.446 . S
C379 C380 1.339 . S
C379 H414 0.949 . S
C380 C379 1.339 . S
C380 C381 1.439 . S
C380 H415 0.950 . S
C381 N377 1.383 . S
C381 C380 1.439 . S
C381 C410 1.392 . S
N382 Co376 2.008 . S
N382 C383 1.376 . S
N382 C386 1.374 . S
C383 N382 1.376 . S
C383 C384 1.443 . S
C383 C410 1.389 . S
C384 C383 1.443 . S
C384 C385 1.340 . S
C384 H416 0.951 . S
C385 C384 1.340 . S
C385 C386 1.439 . S
C385 H417 0.950 . S
C386 N382 1.374 . S
C386 C385 1.439 . S
C386 C411 1.395 . S
N387 Co376 1.995 . S
N387 C388 1.376 . S
N387 C391 1.383 . S
C388 N387 1.376 . S
C388 C389 1.446 . S
C388 C411 1.391 . S
C389 C388 1.446 . S
C389 C390 1.339 . S
C389 H418 0.949 . S
C390 C389 1.339 . S
C390 C391 1.439 . S
C390 H419 0.950 . S
C391 N387 1.383 . S
C391 C390 1.439 . S
C391 C409 1.392 . S
N392 Co376 2.282 . S
N392 C395 1.332 . S
N392 C397 1.332 . S
C393 C394 1.386 . S
C393 C396 1.388 . S
C394 C393 1.386 . S
C394 C395 1.382 . S
C394 H420 0.950 . S
C395 N392 1.332 . S
C395 C394 1.382 . S
C395 H406 0.952 . S
C396 C393 1.388 . S
C396 C397 1.382 . S
C396 H421 0.950 . S
C397 N392 1.332 . S
C397 C396 1.382 . S
C397 H407 0.948 . S
N398 Co376 2.282 . S
N398 C402 1.332 . S
N398 C403 1.332 . S
C399 C400 1.388 . S
C399 C403 1.382 . S
C399 H422 0.950 . S
C400 C399 1.388 . S
C400 C401 1.386 . S
C401 C400 1.386 . S
C401 C402 1.382 . S
C401 H423 0.950 . S
C402 N398 1.332 . S
C402 C401 1.382 . S
C402 H404 0.952 . S
C403 N398 1.332 . S
C403 C399 1.382 . S
C403 H405 0.948 . S
H404 C402 0.952 . S
H405 C403 0.948 . S
H406 C395 0.952 . S
H407 C397 0.948 . S
C408 C374 1.395 . S
C408 C378 1.391 . S
C409 C371 1.389 . S
C409 C391 1.392 . S
C410 C381 1.392 . S
C410 C383 1.389 . S
C411 C386 1.395 . S
C411 C388 1.391 . S
H412 C372 0.951 . S
H413 C373 0.950 . S
H414 C379 0.949 . S
H415 C380 0.950 . S
H416 C384 0.951 . S
H417 C385 0.950 . S
H418 C389 0.949 . S
H419 C390 0.950 . S
H420 C394 0.950 . S
H421 C396 0.950 . S
H422 C399 0.950 . S
H423 C401 0.950 . S
C424 C425 1.443 . S
C424 N428 1.376 1_554 S
C424 C462 1.389 . S
C425 C424 1.443 . S
C425 C426 1.340 . S
C425 H465 0.951 . S
C426 C425 1.340 . S
C426 C427 1.439 1_554 S
C426 H466 0.950 . S
C427 C426 1.439 1_556 S
C427 N428 1.374 . S
C427 C461 1.395 . S
N428 C424 1.376 1_556 S
N428 C427 1.374 . S
N428 Co429 2.008 . S
Co429 N428 2.008 . S
Co429 N430 1.995 . S
Co429 N435 2.008 1_655 S
Co429 N440 1.995 1_655 S
Co429 N445 2.282 . S
Co429 N451 2.250 1_655 S
N430 Co429 1.995 . S
N430 C431 1.376 . S
N430 C434 1.383 . S
C431 N430 1.376 . S
C431 C432 1.446 . S
C431 C461 1.391 . S
C432 C431 1.446 . S
C432 C433 1.339 . S
C432 H467 0.949 . S
C433 C432 1.339 . S
C433 C434 1.439 . S
C433 H468 0.950 . S
C434 N430 1.383 . S
C434 C433 1.439 . S
C434 C463 1.392 . S
N435 Co429 2.008 1_455 S
N435 C436 1.393 . S
N435 C439 1.374 . S
C436 N435 1.393 . S
C436 C437 1.509 . S
C436 C463 1.320 1_455 S
C437 C436 1.509 . S
C437 C438 1.340 . S
C437 H469 0.951 . S
C438 C437 1.340 . S
C438 C439 1.439 . S
C438 H470 0.950 . S
C439 N435 1.374 . S
C439 C438 1.439 . S
C439 C464 1.395 . S
N440 Co429 1.995 1_455 S
N440 C441 1.376 . S
N440 C444 1.383 1_556 S
C441 N440 1.376 . S
C441 C442 1.446 1_556 S
C441 C464 1.391 . S
C442 C441 1.446 1_554 S
C442 C443 1.339 . S
C442 H471 0.949 . S
C443 C442 1.339 . S
C443 C444 1.439 . S
C443 H472 0.950 . S
C444 N440 1.383 1_554 S
C444 C443 1.439 . S
C444 C462 1.392 1_455 S
N445 Co429 2.282 . S
N445 C448 1.332 . S
N445 C450 1.332 . S
C446 C447 1.386 . S
C446 C449 1.388 . S
C447 C446 1.386 . S
C447 C448 1.382 . S
C447 H473 0.950 . S
C448 N445 1.332 . S
C448 C447 1.382 . S
C448 H459 0.952 . S
C449 C446 1.388 . S
C449 C450 1.382 . S
C449 H474 0.950 . S
C450 N445 1.332 . S
C450 C449 1.382 . S
C450 H460 0.948 . S
N451 Co429 2.250 1_455 S
N451 C455 1.295 1_455 S
N451 C456 1.399 . S
C452 C453 1.388 . S
C452 C456 1.382 . S
C452 H475 0.950 . S
C453 C452 1.388 . S
C453 C454 1.386 1_455 S
C454 C453 1.386 1_655 S
C454 C455 1.382 . S
C454 H476 0.950 . S
C455 N451 1.295 1_655 S
C455 C454 1.382 . S
C455 H457 0.952 . S
C456 N451 1.399 . S
C456 C452 1.382 . S
C456 H458 0.948 . S
H457 C455 0.952 . S
H458 C456 0.948 . S
H459 C448 0.952 . S
H460 C450 0.948 . S
C461 C427 1.395 . S
C461 C431 1.391 . S
C462 C424 1.389 . S
C462 C444 1.392 1_655 S
C463 C434 1.392 . S
C463 C436 1.320 1_655 S
C464 C439 1.395 . S
C464 C441 1.391 . S
H465 C425 0.951 . S
H466 C426 0.950 . S
H467 C432 0.949 . S
H468 C433 0.950 . S
H469 C437 0.951 . S
H470 C438 0.950 . S
H471 C442 0.949 . S
H472 C443 0.950 . S
H473 C447 0.950 . S
H474 C449 0.950 . S
H475 C452 0.950 . S
H476 C454 0.950 . S
C477 C478 1.443 . S
C477 N481 1.376 . S
C477 C515 1.389 . S
C478 C477 1.443 . S
C478 C479 1.340 . S
C478 H518 0.951 . S
C479 C478 1.340 . S
C479 C480 1.439 . S
C479 H519 0.950 . S
C480 C479 1.439 . S
C480 N481 1.374 . S
C480 C514 1.395 . S
N481 C477 1.376 . S
N481 C480 1.374 . S
N481 Co482 2.008 . S
Co482 N481 2.008 . S
Co482 N483 1.995 . S
Co482 N488 2.008 . S
Co482 N493 1.995 . S
Co482 N498 2.282 . S
Co482 N504 2.282 . S
N483 Co482 1.995 . S
N483 C484 1.376 . S
N483 C487 1.383 . S
C484 N483 1.376 . S
C484 C485 1.446 . S
C484 C514 1.391 . S
C485 C484 1.446 . S
C485 C486 1.339 . S
C485 H520 0.949 . S
C486 C485 1.339 . S
C486 C487 1.439 . S
C486 H521 0.950 . S
C487 N483 1.383 . S
C487 C486 1.439 . S
C487 C516 1.392 . S
N488 Co482 2.008 . S
N488 C489 1.376 . S
N488 C492 1.374 . S
C489 N488 1.376 . S
C489 C490 1.443 . S
C489 C516 1.389 . S
C490 C489 1.443 . S
C490 C491 1.340 . S
C490 H522 0.951 . S
C491 C490 1.340 . S
C491 C492 1.439 . S
C491 H523 0.950 . S
C492 N488 1.374 . S
C492 C491 1.439 . S
C492 C517 1.395 . S
N493 Co482 1.995 . S
N493 C494 1.376 . S
N493 C497 1.383 . S
C494 N493 1.376 . S
C494 C495 1.446 . S
C494 C517 1.391 . S
C495 C494 1.446 . S
C495 C496 1.339 . S
C495 H524 0.949 . S
C496 C495 1.339 . S
C496 C497 1.439 . S
C496 H525 0.950 . S
C497 N493 1.383 . S
C497 C496 1.439 . S
C497 C515 1.392 . S
N498 Co482 2.282 . S
N498 C501 1.332 . S
N498 C503 1.332 . S
C499 C500 1.386 . S
C499 C502 1.388 . S
C500 C499 1.386 . S
C500 C501 1.382 . S
C500 H526 0.950 . S
C501 N498 1.332 . S
C501 C500 1.382 . S
C501 H512 0.952 . S
C502 C499 1.388 . S
C502 C503 1.382 . S
C502 H527 0.950 . S
C503 N498 1.332 . S
C503 C502 1.382 . S
C503 H513 0.948 . S
N504 Co482 2.282 . S
N504 C508 1.332 . S
N504 C509 1.332 . S
C505 C506 1.388 . S
C505 C509 1.382 . S
C505 H528 0.950 . S
C506 C505 1.388 . S
C506 C507 1.386 . S
C507 C506 1.386 . S
C507 C508 1.382 . S
C507 H529 0.950 . S
C508 N504 1.332 . S
C508 C507 1.382 . S
C508 H510 0.952 . S
C509 N504 1.332 . S
C509 C505 1.382 . S
C509 H511 0.948 . S
H510 C508 0.952 . S
H511 C509 0.948 . S
H512 C501 0.952 . S
H513 C503 0.948 . S
C514 C480 1.395 . S
C514 C484 1.391 . S
C515 C477 1.389 . S
C515 C497 1.392 . S
C516 C487 1.392 . S
C516 C489 1.389 . S
C517 C492 1.395 . S
C517 C494 1.391 . S
H518 C478 0.951 . S
H519 C479 0.950 . S
H520 C485 0.949 . S
H521 C486 0.950 . S
H522 C490 0.951 . S
H523 C491 0.950 . S
H524 C495 0.949 . S
H525 C496 0.950 . S
H526 C500 0.950 . S
H527 C502 0.950 . S
H528 C505 0.950 . S
H529 C507 0.950 . S
C530 C531 1.443 . S
C530 N534 1.376 . S
C530 C568 1.389 . S
C531 C530 1.443 . S
C531 C532 1.340 . S
C531 H571 0.951 . S
C532 C531 1.340 . S
C532 C533 1.439 . S
C532 H572 0.950 . S
C533 C532 1.439 . S
C533 N534 1.374 . S
C533 C567 1.395 . S
N534 C530 1.376 . S
N534 C533 1.374 . S
N534 Co535 2.008 . S
Co535 N534 2.008 . S
Co535 N536 1.995 . S
Co535 N541 2.008 . S
Co535 N546 1.995 . S
Co535 N551 2.282 . S
Co535 N557 2.282 . S
N536 Co535 1.995 . S
N536 C537 1.376 . S
N536 C540 1.383 . S
C537 N536 1.376 . S
C537 C538 1.446 . S
C537 C567 1.391 . S
C538 C537 1.446 . S
C538 C539 1.339 . S
C538 H573 0.949 . S
C539 C538 1.339 . S
C539 C540 1.439 . S
C539 H574 0.950 . S
C540 N536 1.383 . S
C540 C539 1.439 . S
C540 C569 1.392 . S
N541 Co535 2.008 . S
N541 C542 1.376 . S
N541 C545 1.374 . S
C542 N541 1.376 . S
C542 C543 1.443 . S
C542 C569 1.389 . S
C543 C542 1.443 . S
C543 C544 1.340 . S
C543 H575 0.951 . S
C544 C543 1.340 . S
C544 C545 1.439 . S
C544 H576 0.950 . S
C545 N541 1.374 . S
C545 C544 1.439 . S
C545 C570 1.395 . S
N546 Co535 1.995 . S
N546 C547 1.376 . S
N546 C550 1.383 . S
C547 N546 1.376 . S
C547 C548 1.446 . S
C547 C570 1.391 . S
C548 C547 1.446 . S
C548 C549 1.339 . S
C548 H577 0.949 . S
C549 C548 1.339 . S
C549 C550 1.439 . S
C549 H578 0.950 . S
C550 N546 1.383 . S
C550 C549 1.439 . S
C550 C568 1.392 . S
N551 Co535 2.282 . S
N551 C554 1.332 . S
N551 C556 1.332 . S
C552 C553 1.386 . S
C552 C555 1.388 . S
C553 C552 1.386 . S
C553 C554 1.382 . S
C553 H579 0.950 . S
C554 N551 1.332 . S
C554 C553 1.382 . S
C554 H565 0.952 . S
C555 C552 1.388 . S
C555 C556 1.382 . S
C555 H580 0.950 . S
C556 N551 1.332 . S
C556 C555 1.382 . S
C556 H566 0.948 . S
N557 Co535 2.282 . S
N557 C561 1.332 . S
N557 C562 1.332 . S
C558 C559 1.388 . S
C558 C562 1.382 . S
C558 H581 0.950 . S
C559 C558 1.388 . S
C559 C560 1.386 . S
C560 C559 1.386 . S
C560 C561 1.382 . S
C560 H582 0.950 . S
C561 N557 1.332 . S
C561 C560 1.382 . S
C561 H563 0.952 . S
C562 N557 1.332 . S
C562 C558 1.382 . S
C562 H564 0.948 . S
H563 C561 0.952 . S
H564 C562 0.948 . S
H565 C554 0.952 . S
H566 C556 0.948 . S
C567 C533 1.395 . S
C567 C537 1.391 . S
C568 C530 1.389 . S
C568 C550 1.392 . S
C569 C540 1.392 . S
C569 C542 1.389 . S
C570 C545 1.395 . S
C570 C547 1.391 . S
H571 C531 0.951 . S
H572 C532 0.950 . S
H573 C538 0.949 . S
H574 C539 0.950 . S
H575 C543 0.951 . S
H576 C544 0.950 . S
H577 C548 0.949 . S
H578 C549 0.950 . S
H579 C553 0.950 . S
H580 C555 0.950 . S
H581 C558 0.950 . S
H582 C560 0.950 . S
C583 C584 1.443 . S
C583 N587 1.376 . S
C583 C621 1.389 . S
C584 C583 1.443 . S
C584 C585 1.340 . S
C584 H624 0.951 . S
C585 C584 1.340 . S
C585 C586 1.439 . S
C585 H625 0.950 . S
C586 C585 1.439 . S
C586 N587 1.374 . S
C586 C620 1.395 . S
N587 C583 1.376 . S
N587 C586 1.374 . S
N587 Co588 2.008 . S
Co588 N587 2.008 . S
Co588 N589 1.995 . S
Co588 N594 2.008 . S
Co588 N599 1.995 . S
Co588 N604 2.282 . S
Co588 N610 2.282 . S
N589 Co588 1.995 . S
N589 C590 1.376 . S
N589 C593 1.383 . S
C590 N589 1.376 . S
C590 C591 1.446 . S
C590 C620 1.391 . S
C591 C590 1.446 . S
C591 C592 1.339 . S
C591 H626 0.949 . S
C592 C591 1.339 . S
C592 C593 1.439 . S
C592 H627 0.950 . S
C593 N589 1.383 . S
C593 C592 1.439 . S
C593 C622 1.392 . S
N594 Co588 2.008 . S
N594 C595 1.376 . S
N594 C598 1.374 . S
C595 N594 1.376 . S
C595 C596 1.443 . S
C595 C622 1.389 . S
C596 C595 1.443 . S
C596 C597 1.340 . S
C596 H628 0.951 . S
C597 C596 1.340 . S
C597 C598 1.439 . S
C597 H629 0.950 . S
C598 N594 1.374 . S
C598 C597 1.439 . S
C598 C623 1.395 . S
N599 Co588 1.995 . S
N599 C600 1.376 . S
N599 C603 1.383 . S
C600 N599 1.376 . S
C600 C601 1.446 . S
C600 C623 1.391 . S
C601 C600 1.446 . S
C601 C602 1.339 . S
C601 H630 0.949 . S
C602 C601 1.339 . S
C602 C603 1.439 . S
C602 H631 0.950 . S
C603 N599 1.383 . S
C603 C602 1.439 . S
C603 C621 1.392 . S
N604 Co588 2.282 . S
N604 C607 1.332 . S
N604 C609 1.332 . S
C605 C606 1.386 . S
C605 C608 1.388 . S
C606 C605 1.386 . S
C606 C607 1.382 . S
C606 H632 0.950 . S
C607 N604 1.332 . S
C607 C606 1.382 . S
C607 H618 0.952 . S
C608 C605 1.388 . S
C608 C609 1.382 . S
C608 H633 0.950 . S
C609 N604 1.332 . S
C609 C608 1.382 . S
C609 H619 0.948 . S
N610 Co588 2.282 . S
N610 C614 1.332 . S
N610 C615 1.332 . S
C611 C612 1.388 . S
C611 C615 1.382 . S
C611 H634 0.950 . S
C612 C611 1.388 . S
C612 C613 1.386 . S
C613 C612 1.386 . S
C613 C614 1.382 . S
C613 H635 0.950 . S
C614 N610 1.332 . S
C614 C613 1.382 . S
C614 H616 0.952 . S
C615 N610 1.332 . S
C615 C611 1.382 . S
C615 H617 0.948 . S
H616 C614 0.952 . S
H617 C615 0.948 . S
H618 C607 0.952 . S
H619 C609 0.948 . S
C620 C586 1.395 . S
C620 C590 1.391 . S
C621 C583 1.389 . S
C621 C603 1.392 . S
C622 C593 1.392 . S
C622 C595 1.389 . S
C623 C598 1.395 . S
C623 C600 1.391 . S
H624 C584 0.951 . S
H625 C585 0.950 . S
H626 C591 0.949 . S
H627 C592 0.950 . S
H628 C596 0.951 . S
H629 C597 0.950 . S
H630 C601 0.949 . S
H631 C602 0.950 . S
H632 C606 0.950 . S
H633 C608 0.950 . S
H634 C611 0.950 . S
H635 C613 0.950 . S
C636 C637 1.443 . S
C636 N640 1.376 . S
C636 C674 1.389 . S
C637 C636 1.443 . S
C637 C638 1.340 . S
C637 H677 0.951 . S
C638 C637 1.340 . S
C638 C639 1.439 . S
C638 H678 0.950 . S
C639 C638 1.439 . S
C639 N640 1.374 . S
C639 C673 1.395 . S
N640 C636 1.376 . S
N640 C639 1.374 . S
N640 Co641 2.008 . S
Co641 N640 2.008 . S
Co641 N642 1.995 . S
Co641 N647 2.008 1_655 S
Co641 N652 1.995 1_655 S
Co641 N657 2.282 . S
Co641 N663 2.250 1_655 S
N642 Co641 1.995 . S
N642 C643 1.376 . S
N642 C646 1.383 . S
C643 N642 1.376 . S
C643 C644 1.446 . S
C643 C673 1.391 . S
C644 C643 1.446 . S
C644 C645 1.339 . S
C644 H679 0.949 . S
C645 C644 1.339 . S
C645 C646 1.439 . S
C645 H680 0.950 . S
C646 N642 1.383 . S
C646 C645 1.439 . S
C646 C675 1.392 . S
N647 Co641 2.008 1_455 S
N647 C648 1.393 . S
N647 C651 1.374 . S
C648 N647 1.393 . S
C648 C649 1.508 . S
C648 C675 1.320 1_455 S
C649 C648 1.508 . S
C649 C650 1.340 . S
C649 H681 0.951 . S
C650 C649 1.340 . S
C650 C651 1.439 . S
C650 H682 0.950 . S
C651 N647 1.374 . S
C651 C650 1.439 . S
C651 C676 1.395 . S
N652 Co641 1.995 1_455 S
N652 C653 1.376 . S
N652 C656 1.383 . S
C653 N652 1.376 . S
C653 C654 1.446 . S
C653 C676 1.391 . S
C654 C653 1.446 . S
C654 C655 1.339 . S
C654 H683 0.949 . S
C655 C654 1.339 . S
C655 C656 1.439 . S
C655 H684 0.950 . S
C656 N652 1.383 . S
C656 C655 1.439 . S
C656 C674 1.392 1_455 S
N657 Co641 2.282 . S
N657 C660 1.332 . S
N657 C662 1.332 . S
C658 C659 1.386 . S
C658 C661 1.388 . S
C659 C658 1.386 . S
C659 C660 1.382 . S
C659 H685 0.950 . S
C660 N657 1.332 . S
C660 C659 1.382 . S
C660 H671 0.952 . S
C661 C658 1.388 . S
C661 C662 1.382 . S
C661 H686 0.950 . S
C662 N657 1.332 . S
C662 C661 1.382 . S
C662 H672 0.948 . S
N663 Co641 2.250 1_455 S
N663 C667 1.295 1_455 S
N663 C668 1.399 . S
C664 C665 1.388 . S
C664 C668 1.382 . S
C664 H687 0.950 . S
C665 C664 1.388 . S
C665 C666 1.386 1_455 S
C666 C665 1.386 1_655 S
C666 C667 1.382 . S
C666 H688 0.950 . S
C667 N663 1.295 1_655 S
C667 C666 1.382 . S
C667 H669 0.952 . S
C668 N663 1.399 . S
C668 C664 1.382 . S
C668 H670 0.948 . S
H669 C667 0.952 . S
H670 C668 0.948 . S
H671 C660 0.952 . S
H672 C662 0.948 . S
C673 C639 1.395 . S
C673 C643 1.391 . S
C674 C636 1.389 . S
C674 C656 1.392 1_655 S
C675 C646 1.392 . S
C675 C648 1.320 1_655 S
C676 C651 1.395 . S
C676 C653 1.391 . S
H677 C637 0.951 . S
H678 C638 0.950 . S
H679 C644 0.949 . S
H680 C645 0.950 . S
H681 C649 0.951 . S
H682 C650 0.950 . S
H683 C654 0.949 . S
H684 C655 0.950 . S
H685 C659 0.950 . S
H686 C661 0.950 . S
H687 C664 0.950 . S
H688 C666 0.950 . S
C689 C690 1.443 . S
C689 N693 1.376 . S
C689 C727 1.389 . S
C690 C689 1.443 . S
C690 C691 1.340 . S
C690 H730 0.951 . S
C691 C690 1.340 . S
C691 C692 1.439 . S
C691 H731 0.950 . S
C692 C691 1.439 . S
C692 N693 1.374 . S
C692 C726 1.395 . S
N693 C689 1.376 . S
N693 C692 1.374 . S
N693 Co694 2.008 . S
Co694 N693 2.008 . S
Co694 N695 1.995 . S
Co694 N700 2.008 . S
Co694 N705 1.995 . S
Co694 N710 2.282 . S
Co694 N716 2.282 . S
N695 Co694 1.995 . S
N695 C696 1.376 . S
N695 C699 1.383 . S
C696 N695 1.376 . S
C696 C697 1.446 . S
C696 C726 1.391 . S
C697 C696 1.446 . S
C697 C698 1.339 . S
C697 H732 0.949 . S
C698 C697 1.339 . S
C698 C699 1.439 . S
C698 H733 0.950 . S
C699 N695 1.383 . S
C699 C698 1.439 . S
C699 C728 1.392 . S
N700 Co694 2.008 . S
N700 C701 1.376 . S
N700 C704 1.374 . S
C701 N700 1.376 . S
C701 C702 1.443 . S
C701 C728 1.389 . S
C702 C701 1.443 . S
C702 C703 1.340 . S
C702 H734 0.951 . S
C703 C702 1.340 . S
C703 C704 1.439 . S
C703 H735 0.950 . S
C704 N700 1.374 . S
C704 C703 1.439 . S
C704 C729 1.395 . S
N705 Co694 1.995 . S
N705 C706 1.376 . S
N705 C709 1.383 . S
C706 N705 1.376 . S
C706 C707 1.446 . S
C706 C729 1.391 . S
C707 C706 1.446 . S
C707 C708 1.339 . S
C707 H736 0.949 . S
C708 C707 1.339 . S
C708 C709 1.439 . S
C708 H737 0.950 . S
C709 N705 1.383 . S
C709 C708 1.439 . S
C709 C727 1.392 . S
N710 Co694 2.282 . S
N710 C713 1.332 . S
N710 C715 1.332 . S
C711 C712 1.386 . S
C711 C714 1.388 . S
C712 C711 1.386 . S
C712 C713 1.382 . S
C712 H738 0.950 . S
C713 N710 1.332 . S
C713 C712 1.382 . S
C713 H724 0.952 . S
C714 C711 1.388 . S
C714 C715 1.382 . S
C714 H739 0.950 . S
C715 N710 1.332 . S
C715 C714 1.382 . S
C715 H725 0.948 . S
N716 Co694 2.282 . S
N716 C720 1.332 . S
N716 C721 1.332 . S
C717 C718 1.388 . S
C717 C721 1.382 . S
C717 H740 0.950 . S
C718 C717 1.388 . S
C718 C719 1.386 . S
C719 C718 1.386 . S
C719 C720 1.382 . S
C719 H741 0.950 . S
C720 N716 1.332 . S
C720 C719 1.382 . S
C720 H722 0.952 . S
C721 N716 1.332 . S
C721 C717 1.382 . S
C721 H723 0.948 . S
H722 C720 0.952 . S
H723 C721 0.948 . S
H724 C713 0.952 . S
H725 C715 0.948 . S
C726 C692 1.395 . S
C726 C696 1.391 . S
C727 C689 1.389 . S
C727 C709 1.392 . S
C728 C699 1.392 . S
C728 C701 1.389 . S
C729 C704 1.395 . S
C729 C706 1.391 . S
H730 C690 0.951 . S
H731 C691 0.950 . S
H732 C697 0.949 . S
H733 C698 0.950 . S
H734 C702 0.951 . S
H735 C703 0.950 . S
H736 C707 0.949 . S
H737 C708 0.950 . S
H738 C712 0.950 . S
H739 C714 0.950 . S
H740 C717 0.950 . S
H741 C719 0.950 . S
C742 C743 1.443 . S
C742 N746 1.376 1_556 S
C742 C780 1.389 . S
C743 C742 1.443 . S
C743 C744 1.340 . S
C743 H783 0.951 . S
C744 C743 1.340 . S
C744 C745 1.439 1_556 S
C744 H784 0.950 . S
C745 C744 1.439 1_554 S
C745 N746 1.374 . S
C745 C779 1.395 . S
N746 C742 1.376 1_554 S
N746 C745 1.374 . S
N746 Co747 2.008 . S
Co747 N746 2.008 . S
Co747 N748 1.995 . S
Co747 N753 2.008 . S
Co747 N758 1.995 . S
Co747 N763 2.282 . S
Co747 N769 2.282 . S
N748 Co747 1.995 . S
N748 C749 1.376 . S
N748 C752 1.383 . S
C749 N748 1.376 . S
C749 C750 1.446 . S
C749 C779 1.391 . S
C750 C749 1.446 . S
C750 C751 1.339 . S
C750 H785 0.949 . S
C751 C750 1.339 . S
C751 C752 1.439 . S
C751 H786 0.950 . S
C752 N748 1.383 . S
C752 C751 1.439 . S
C752 C781 1.392 . S
N753 Co747 2.008 . S
N753 C754 1.376 . S
N753 C757 1.374 . S
C754 N753 1.376 . S
C754 C755 1.443 . S
C754 C781 1.389 . S
C755 C754 1.443 . S
C755 C756 1.340 . S
C755 H787 0.951 . S
C756 C755 1.340 . S
C756 C757 1.439 . S
C756 H788 0.950 . S
C757 N753 1.374 . S
C757 C756 1.439 . S
C757 C782 1.395 . S
N758 Co747 1.995 . S
N758 C759 1.376 . S
N758 C762 1.383 1_554 S
C759 N758 1.376 . S
C759 C760 1.446 1_554 S
C759 C782 1.391 . S
C760 C759 1.446 1_556 S
C760 C761 1.339 . S
C760 H789 0.949 . S
C761 C760 1.339 . S
C761 C762 1.439 . S
C761 H790 0.950 . S
C762 N758 1.383 1_556 S
C762 C761 1.439 . S
C762 C780 1.392 . S
N763 Co747 2.282 . S
N763 C766 1.332 . S
N763 C768 1.332 . S
C764 C765 1.386 . S
C764 C767 1.388 . S
C765 C764 1.386 . S
C765 C766 1.382 . S
C765 H791 0.950 . S
C766 N763 1.332 . S
C766 C765 1.382 . S
C766 H777 0.952 . S
C767 C764 1.388 . S
C767 C768 1.382 . S
C767 H792 0.950 . S
C768 N763 1.332 . S
C768 C767 1.382 . S
C768 H778 0.948 . S
N769 Co747 2.282 . S
N769 C773 1.332 . S
N769 C774 1.332 . S
C770 C771 1.388 . S
C770 C774 1.382 . S
C770 H793 0.950 . S
C771 C770 1.388 . S
C771 C772 1.386 . S
C772 C771 1.386 . S
C772 C773 1.382 . S
C772 H794 0.950 . S
C773 N769 1.332 . S
C773 C772 1.382 . S
C773 H775 0.952 . S
C774 N769 1.332 . S
C774 C770 1.382 . S
C774 H776 0.948 . S
H775 C773 0.952 . S
H776 C774 0.948 . S
H777 C766 0.952 . S
H778 C768 0.948 . S
C779 C745 1.395 . S
C779 C749 1.391 . S
C780 C742 1.389 . S
C780 C762 1.392 . S
C781 C752 1.392 . S
C781 C754 1.389 . S
C782 C757 1.395 . S
C782 C759 1.391 . S
H783 C743 0.951 . S
H784 C744 0.950 . S
H785 C750 0.949 . S
H786 C751 0.950 . S
H787 C755 0.951 . S
H788 C756 0.950 . S
H789 C760 0.949 . S
H790 C761 0.950 . S
H791 C765 0.950 . S
H792 C767 0.950 . S
H793 C770 0.950 . S
H794 C772 0.950 . S
C795 C796 1.443 . S
C795 N799 1.376 . S
C795 C833 1.389 . S
C796 C795 1.443 . S
C796 C797 1.340 . S
C796 H836 0.951 . S
C797 C796 1.340 . S
C797 C798 1.439 . S
C797 H837 0.950 . S
C798 C797 1.439 . S
C798 N799 1.374 . S
C798 C832 1.395 . S
N799 C795 1.376 . S
N799 C798 1.374 . S
N799 Co800 2.008 . S
Co800 N799 2.008 . S
Co800 N801 1.995 . S
Co800 N806 2.008 . S
Co800 N811 1.995 . S
Co800 N816 2.282 . S
Co800 N822 2.282 . S
N801 Co800 1.995 . S
N801 C802 1.376 . S
N801 C805 1.383 . S
C802 N801 1.376 . S
C802 C803 1.446 . S
C802 C832 1.391 . S
C803 C802 1.446 . S
C803 C804 1.339 . S
C803 H838 0.949 . S
C804 C803 1.339 . S
C804 C805 1.439 . S
C804 H839 0.950 . S
C805 N801 1.383 . S
C805 C804 1.439 . S
C805 C834 1.392 . S
N806 Co800 2.008 . S
N806 C807 1.376 . S
N806 C810 1.374 . S
C807 N806 1.376 . S
C807 C808 1.443 . S
C807 C834 1.389 . S
C808 C807 1.443 . S
C808 C809 1.340 . S
C808 H840 0.951 . S
C809 C808 1.340 . S
C809 C810 1.439 . S
C809 H841 0.950 . S
C810 N806 1.374 . S
C810 C809 1.439 . S
C810 C835 1.395 . S
N811 Co800 1.995 . S
N811 C812 1.376 . S
N811 C815 1.383 . S
C812 N811 1.376 . S
C812 C813 1.446 . S
C812 C835 1.391 . S
C813 C812 1.446 . S
C813 C814 1.339 . S
C813 H842 0.949 . S
C814 C813 1.339 . S
C814 C815 1.439 . S
C814 H843 0.950 . S
C815 N811 1.383 . S
C815 C814 1.439 . S
C815 C833 1.392 . S
N816 Co800 2.282 . S
N816 C819 1.332 . S
N816 C821 1.332 . S
C817 C818 1.386 . S
C817 C820 1.388 . S
C818 C817 1.386 . S
C818 C819 1.382 . S
C818 H844 0.950 . S
C819 N816 1.332 . S
C819 C818 1.382 . S
C819 H830 0.952 . S
C820 C817 1.388 . S
C820 C821 1.382 . S
C820 H845 0.950 . S
C821 N816 1.332 . S
C821 C820 1.382 . S
C821 H831 0.948 . S
N822 Co800 2.282 . S
N822 C826 1.332 . S
N822 C827 1.332 . S
C823 C824 1.388 . S
C823 C827 1.382 . S
C823 H846 0.950 . S
C824 C823 1.388 . S
C824 C825 1.386 . S
C825 C824 1.386 . S
C825 C826 1.382 . S
C825 H847 0.950 . S
C826 N822 1.332 . S
C826 C825 1.382 . S
C826 H828 0.952 . S
C827 N822 1.332 . S
C827 C823 1.382 . S
C827 H829 0.948 . S
H828 C826 0.952 . S
H829 C827 0.948 . S
H830 C819 0.952 . S
H831 C821 0.948 . S
C832 C798 1.395 . S
C832 C802 1.391 . S
C833 C795 1.389 . S
C833 C815 1.392 . S
C834 C805 1.392 . S
C834 C807 1.389 . S
C835 C810 1.395 . S
C835 C812 1.391 . S
H836 C796 0.951 . S
H837 C797 0.950 . S
H838 C803 0.949 . S
H839 C804 0.950 . S
H840 C808 0.951 . S
H841 C809 0.950 . S
H842 C813 0.949 . S
H843 C814 0.950 . S
H844 C818 0.950 . S
H845 C820 0.950 . S
H846 C823 0.950 . S
H847 C825 0.950 . S
C848 C849 1.443 . S
C848 N852 1.376 . S
C848 C886 1.389 . S
C849 C848 1.443 . S
C849 C850 1.340 . S
C849 H889 0.951 . S
C850 C849 1.340 . S
C850 C851 1.439 . S
C850 H890 0.950 . S
C851 C850 1.439 . S
C851 N852 1.374 . S
C851 C885 1.395 . S
N852 C848 1.376 . S
N852 C851 1.374 . S
N852 Co853 2.008 . S
Co853 N852 2.008 . S
Co853 N854 1.995 . S
Co853 N859 2.008 . S
Co853 N864 1.995 . S
Co853 N869 2.282 . S
Co853 N875 2.282 . S
N854 Co853 1.995 . S
N854 C855 1.376 . S
N854 C858 1.383 . S
C855 N854 1.376 . S
C855 C856 1.446 . S
C855 C885 1.391 . S
C856 C855 1.446 . S
C856 C857 1.339 . S
C856 H891 0.949 . S
C857 C856 1.339 . S
C857 C858 1.439 . S
C857 H892 0.950 . S
C858 N854 1.383 . S
C858 C857 1.439 . S
C858 C887 1.392 . S
N859 Co853 2.008 . S
N859 C860 1.376 . S
N859 C863 1.374 . S
C860 N859 1.376 . S
C860 C861 1.443 . S
C860 C887 1.389 . S
C861 C860 1.443 . S
C861 C862 1.340 . S
C861 H893 0.951 . S
C862 C861 1.340 . S
C862 C863 1.439 . S
C862 H894 0.950 . S
C863 N859 1.374 . S
C863 C862 1.439 . S
C863 C888 1.395 . S
N864 Co853 1.995 . S
N864 C865 1.376 . S
N864 C868 1.383 . S
C865 N864 1.376 . S
C865 C866 1.446 . S
C865 C888 1.391 . S
C866 C865 1.446 . S
C866 C867 1.339 . S
C866 H895 0.949 . S
C867 C866 1.339 . S
C867 C868 1.439 . S
C867 H896 0.950 . S
C868 N864 1.383 . S
C868 C867 1.439 . S
C868 C886 1.392 . S
N869 Co853 2.282 . S
N869 C872 1.332 . S
N869 C874 1.332 . S
C870 C871 1.386 . S
C870 C873 1.388 . S
C871 C870 1.386 . S
C871 C872 1.382 . S
C871 H897 0.950 . S
C872 N869 1.332 . S
C872 C871 1.382 . S
C872 H883 0.952 . S
C873 C870 1.388 . S
C873 C874 1.382 . S
C873 H898 0.950 . S
C874 N869 1.332 . S
C874 C873 1.382 . S
C874 H884 0.948 . S
N875 Co853 2.282 . S
N875 C879 1.332 . S
N875 C880 1.332 . S
C876 C877 1.388 . S
C876 C880 1.382 . S
C876 H899 0.950 . S
C877 C876 1.388 . S
C877 C878 1.386 . S
C878 C877 1.386 . S
C878 C879 1.382 . S
C878 H900 0.950 . S
C879 N875 1.332 . S
C879 C878 1.382 . S
C879 H881 0.952 . S
C880 N875 1.332 . S
C880 C876 1.382 . S
C880 H882 0.948 . S
H881 C879 0.952 . S
H882 C880 0.948 . S
H883 C872 0.952 . S
H884 C874 0.948 . S
C885 C851 1.395 . S
C885 C855 1.391 . S
C886 C848 1.389 . S
C886 C868 1.392 . S
C887 C858 1.392 . S
C887 C860 1.389 . S
C888 C863 1.395 . S
C888 C865 1.391 . S
H889 C849 0.951 . S
H890 C850 0.950 . S
H891 C856 0.949 . S
H892 C857 0.950 . S
H893 C861 0.951 . S
H894 C862 0.950 . S
H895 C866 0.949 . S
H896 C867 0.950 . S
H897 C871 0.950 . S
H898 C873 0.950 . S
H899 C876 0.950 . S
H900 C878 0.950 . S
C901 C902 1.443 . S
C901 N905 1.376 . S
C901 C939 1.389 . S
C902 C901 1.443 . S
C902 C903 1.340 . S
C902 H942 0.951 . S
C903 C902 1.340 . S
C903 C904 1.439 . S
C903 H943 0.950 . S
C904 C903 1.439 . S
C904 N905 1.374 . S
C904 C938 1.395 . S
N905 C901 1.376 . S
N905 C904 1.374 . S
N905 Co906 2.008 . S
Co906 N905 2.008 . S
Co906 N907 1.995 . S
Co906 N912 2.008 . S
Co906 N917 1.995 . S
Co906 N922 2.282 . S
Co906 N928 2.282 . S
N907 Co906 1.995 . S
N907 C908 1.376 . S
N907 C911 1.383 . S
C908 N907 1.376 . S
C908 C909 1.446 . S
C908 C938 1.391 . S
C909 C908 1.446 . S
C909 C910 1.339 . S
C909 H944 0.949 . S
C910 C909 1.339 . S
C910 C911 1.439 . S
C910 H945 0.950 . S
C911 N907 1.383 . S
C911 C910 1.439 . S
C911 C940 1.392 . S
N912 Co906 2.008 . S
N912 C913 1.376 . S
N912 C916 1.374 . S
C913 N912 1.376 . S
C913 C914 1.443 . S
C913 C940 1.389 . S
C914 C913 1.443 . S
C914 C915 1.340 . S
C914 H946 0.951 . S
C915 C914 1.340 . S
C915 C916 1.439 . S
C915 H947 0.950 . S
C916 N912 1.374 . S
C916 C915 1.439 . S
C916 C941 1.395 . S
N917 Co906 1.995 . S
N917 C918 1.376 . S
N917 C921 1.383 . S
C918 N917 1.376 . S
C918 C919 1.446 . S
C918 C941 1.391 . S
C919 C918 1.446 . S
C919 C920 1.339 . S
C919 H948 0.949 . S
C920 C919 1.339 . S
C920 C921 1.439 . S
C920 H949 0.950 . S
C921 N917 1.383 . S
C921 C920 1.439 . S
C921 C939 1.392 . S
N922 Co906 2.282 . S
N922 C925 1.332 . S
N922 C927 1.332 . S
C923 C924 1.386 . S
C923 C926 1.388 . S
C924 C923 1.386 . S
C924 C925 1.382 . S
C924 H950 0.950 . S
C925 N922 1.332 . S
C925 C924 1.382 . S
C925 H936 0.952 . S
C926 C923 1.388 . S
C926 C927 1.382 . S
C926 H951 0.950 . S
C927 N922 1.332 . S
C927 C926 1.382 . S
C927 H937 0.948 . S
N928 Co906 2.282 . S
N928 C932 1.332 . S
N928 C933 1.332 . S
C929 C930 1.388 . S
C929 C933 1.382 . S
C929 H952 0.950 . S
C930 C929 1.388 . S
C930 C931 1.386 . S
C931 C930 1.386 . S
C931 C932 1.382 . S
C931 H953 0.950 . S
C932 N928 1.332 . S
C932 C931 1.382 . S
C932 H934 0.952 . S
C933 N928 1.332 . S
C933 C929 1.382 . S
C933 H935 0.948 . S
H934 C932 0.952 . S
H935 C933 0.948 . S
H936 C925 0.952 . S
H937 C927 0.948 . S
C938 C904 1.395 . S
C938 C908 1.391 . S
C939 C901 1.389 . S
C939 C921 1.392 . S
C940 C911 1.392 . S
C940 C913 1.389 . S
C941 C916 1.395 . S
C941 C918 1.391 . S
H942 C902 0.951 . S
H943 C903 0.950 . S
H944 C909 0.949 . S
H945 C910 0.950 . S
H946 C914 0.951 . S
H947 C915 0.950 . S
H948 C919 0.949 . S
H949 C920 0.950 . S
H950 C924 0.950 . S
H951 C926 0.950 . S
H952 C929 0.950 . S
H953 C931 0.950 . S
C954 C955 1.443 . S
C954 N958 1.376 1_556 S
C954 C992 1.389 1_455 S
C955 C954 1.443 . S
C955 C956 1.340 . S
C955 H995 0.951 . S
C956 C955 1.340 . S
C956 C957 1.439 1_556 S
C956 H996 0.950 . S
C957 C956 1.439 1_554 S
C957 N958 1.374 . S
C957 C991 1.395 . S
N958 C954 1.376 1_554 S
N958 C957 1.374 . S
N958 Co959 2.008 1_455 S
Co959 N958 2.008 1_655 S
Co959 N960 1.995 1_655 S
Co959 N965 2.008 . S
Co959 N970 1.995 . S
Co959 N975 2.282 . S
Co959 N981 2.318 . S
N960 Co959 1.995 1_455 S
N960 C961 1.376 . S
N960 C964 1.383 . S
C961 N960 1.376 . S
C961 C962 1.446 . S
C961 C991 1.391 . S
C962 C961 1.446 . S
C962 C963 1.339 . S
C962 H997 0.949 . S
C963 C962 1.339 . S
C963 C964 1.439 . S
C963 H998 0.950 . S
C964 N960 1.383 . S
C964 C963 1.439 . S
C964 C993 1.392 1_455 S
N965 Co959 2.008 . S
N965 C966 1.376 . S
N965 C969 1.374 . S
C966 N965 1.376 . S
C966 C967 1.443 . S
C966 C993 1.389 . S
C967 C966 1.443 . S
C967 C968 1.340 . S
C967 H999 0.951 . S
C968 C967 1.340 . S
C968 C969 1.439 . S
C968 H1000 0.950 . S
C969 N965 1.374 . S
C969 C968 1.439 . S
C969 C994 1.395 . S
N970 Co959 1.995 . S
N970 C971 1.376 . S
N970 C974 1.383 1_554 S
C971 N970 1.376 . S
C971 C972 1.446 1_554 S
C971 C994 1.391 . S
C972 C971 1.446 1_556 S
C972 C973 1.339 . S
C972 H1001 0.949 . S
C973 C972 1.339 . S
C973 C974 1.439 . S
C973 H1002 0.950 . S
C974 N970 1.383 1_556 S
C974 C973 1.439 . S
C974 C992 1.392 . S
N975 Co959 2.282 . S
N975 C978 1.332 . S
N975 C980 1.332 . S
C976 C977 1.386 . S
C976 C979 1.388 . S
C977 C976 1.386 . S
C977 C978 1.382 . S
C977 H1003 0.950 . S
C978 N975 1.332 . S
C978 C977 1.382 . S
C978 H989 0.952 . S
C979 C976 1.388 . S
C979 C980 1.382 . S
C979 H1004 0.950 . S
C980 N975 1.332 . S
C980 C979 1.382 . S
C980 H990 0.948 . S
N981 Co959 2.318 . S
N981 C985 1.243 1_655 S
N981 C986 1.383 . S
C982 C983 1.388 1_655 S
C982 C986 1.382 . S
C982 H1005 0.950 . S
C983 C982 1.388 1_455 S
C983 C984 1.386 . S
C984 C983 1.386 . S
C984 C985 1.382 . S
C984 H1006 0.950 . S
C985 N981 1.243 1_455 S
C985 C984 1.382 . S
C985 H987 0.952 . S
C986 N981 1.383 . S
C986 C982 1.382 . S
C986 H988 0.948 . S
H987 C985 0.952 . S
H988 C986 0.948 . S
H989 C978 0.952 . S
H990 C980 0.948 . S
C991 C957 1.395 . S
C991 C961 1.391 . S
C992 C954 1.389 1_655 S
C992 C974 1.392 . S
C993 C964 1.392 1_655 S
C993 C966 1.389 . S
C994 C969 1.395 . S
C994 C971 1.391 . S
H995 C955 0.951 . S
H996 C956 0.950 . S
H997 C962 0.949 . S
H998 C963 0.950 . S
H999 C967 0.951 . S
H1000 C968 0.950 . S
H1001 C972 0.949 . S
H1002 C973 0.950 . S
H1003 C977 0.950 . S
H1004 C979 0.950 . S
H1005 C982 0.950 . S
H1006 C984 0.950 . S
C1007 C1008 1.443 . S
C1007 N1011 1.376 . S
C1007 C1045 1.389 . S
C1008 C1007 1.443 . S
C1008 C1009 1.340 . S
C1008 H1048 0.951 . S
C1009 C1008 1.340 . S
C1009 C1010 1.439 . S
C1009 H1049 0.950 . S
C1010 C1009 1.439 . S
C1010 N1011 1.374 . S
C1010 C1044 1.395 . S
N1011 C1007 1.376 . S
N1011 C1010 1.374 . S
N1011 Co1012 2.008 . S
Co1012 N1011 2.008 . S
Co1012 N1013 1.995 . S
Co1012 N1018 2.008 . S
Co1012 N1023 1.995 . S
Co1012 N1028 2.282 . S
Co1012 N1034 2.282 . S
N1013 Co1012 1.995 . S
N1013 C1014 1.376 . S
N1013 C1017 1.383 . S
C1014 N1013 1.376 . S
C1014 C1015 1.446 . S
C1014 C1044 1.391 . S
C1015 C1014 1.446 . S
C1015 C1016 1.339 . S
C1015 H1050 0.949 . S
C1016 C1015 1.339 . S
C1016 C1017 1.439 . S
C1016 H1051 0.950 . S
C1017 N1013 1.383 . S
C1017 C1016 1.439 . S
C1017 C1046 1.392 . S
N1018 Co1012 2.008 . S
N1018 C1019 1.376 . S
N1018 C1022 1.374 . S
C1019 N1018 1.376 . S
C1019 C1020 1.443 . S
C1019 C1046 1.389 . S
C1020 C1019 1.443 . S
C1020 C1021 1.340 . S
C1020 H1052 0.951 . S
C1021 C1020 1.340 . S
C1021 C1022 1.439 . S
C1021 H1053 0.950 . S
C1022 N1018 1.374 . S
C1022 C1021 1.439 . S
C1022 C1047 1.395 . S
N1023 Co1012 1.995 . S
N1023 C1024 1.376 . S
N1023 C1027 1.383 . S
C1024 N1023 1.376 . S
C1024 C1025 1.446 . S
C1024 C1047 1.391 . S
C1025 C1024 1.446 . S
C1025 C1026 1.339 . S
C1025 H1054 0.949 . S
C1026 C1025 1.339 . S
C1026 C1027 1.439 . S
C1026 H1055 0.950 . S
C1027 N1023 1.383 . S
C1027 C1026 1.439 . S
C1027 C1045 1.392 . S
N1028 Co1012 2.282 . S
N1028 C1031 1.332 . S
N1028 C1033 1.332 . S
C1029 C1030 1.386 . S
C1029 C1032 1.388 . S
C1030 C1029 1.386 . S
C1030 C1031 1.382 . S
C1030 H1056 0.950 . S
C1031 N1028 1.332 . S
C1031 C1030 1.382 . S
C1031 H1042 0.952 . S
C1032 C1029 1.388 . S
C1032 C1033 1.382 . S
C1032 H1057 0.950 . S
C1033 N1028 1.332 . S
C1033 C1032 1.382 . S
C1033 H1043 0.948 . S
N1034 Co1012 2.282 . S
N1034 C1038 1.332 . S
N1034 C1039 1.332 . S
C1035 C1036 1.388 . S
C1035 C1039 1.382 . S
C1035 H1058 0.950 . S
C1036 C1035 1.388 . S
C1036 C1037 1.386 . S
C1037 C1036 1.386 . S
C1037 C1038 1.382 . S
C1037 H1059 0.950 . S
C1038 N1034 1.332 . S
C1038 C1037 1.382 . S
C1038 H1040 0.952 . S
C1039 N1034 1.332 . S
C1039 C1035 1.382 . S
C1039 H1041 0.948 . S
H1040 C1038 0.952 . S
H1041 C1039 0.948 . S
H1042 C1031 0.952 . S
H1043 C1033 0.948 . S
C1044 C1010 1.395 . S
C1044 C1014 1.391 . S
C1045 C1007 1.389 . S
C1045 C1027 1.392 . S
C1046 C1017 1.392 . S
C1046 C1019 1.389 . S
C1047 C1022 1.395 . S
C1047 C1024 1.391 . S
H1048 C1008 0.951 . S
H1049 C1009 0.950 . S
H1050 C1015 0.949 . S
H1051 C1016 0.950 . S
H1052 C1020 0.951 . S
H1053 C1021 0.950 . S
H1054 C1025 0.949 . S
H1055 C1026 0.950 . S
H1056 C1030 0.950 . S
H1057 C1032 0.950 . S
H1058 C1035 0.950 . S
H1059 C1037 0.950 . S
C1060 C1061 1.443 . S
C1060 N1064 1.376 1_554 S
C1060 C1098 1.389 . S
C1061 C1060 1.443 . S
C1061 C1062 1.340 . S
C1061 H1101 0.951 . S
C1062 C1061 1.340 . S
C1062 C1063 1.439 1_554 S
C1062 H1102 0.950 . S
C1063 C1062 1.439 1_556 S
C1063 N1064 1.374 . S
C1063 C1097 1.395 . S
N1064 C1060 1.376 1_556 S
N1064 C1063 1.374 . S
N1064 Co1065 2.008 . S
Co1065 N1064 2.008 . S
Co1065 N1066 1.995 . S
Co1065 N1071 2.008 . S
Co1065 N1076 1.995 . S
Co1065 N1081 2.282 . S
Co1065 N1087 2.282 . S
N1066 Co1065 1.995 . S
N1066 C1067 1.376 . S
N1066 C1070 1.383 . S
C1067 N1066 1.376 . S
C1067 C1068 1.446 . S
C1067 C1097 1.391 . S
C1068 C1067 1.446 . S
C1068 C1069 1.339 . S
C1068 H1103 0.949 . S
C1069 C1068 1.339 . S
C1069 C1070 1.439 . S
C1069 H1104 0.950 . S
C1070 N1066 1.383 . S
C1070 C1069 1.439 . S
C1070 C1099 1.392 . S
N1071 Co1065 2.008 . S
N1071 C1072 1.376 . S
N1071 C1075 1.374 . S
C1072 N1071 1.376 . S
C1072 C1073 1.443 . S
C1072 C1099 1.389 . S
C1073 C1072 1.443 . S
C1073 C1074 1.340 . S
C1073 H1105 0.951 . S
C1074 C1073 1.340 . S
C1074 C1075 1.439 . S
C1074 H1106 0.950 . S
C1075 N1071 1.374 . S
C1075 C1074 1.439 . S
C1075 C1100 1.395 . S
N1076 Co1065 1.995 . S
N1076 C1077 1.376 . S
N1076 C1080 1.383 1_556 S
C1077 N1076 1.376 . S
C1077 C1078 1.446 1_556 S
C1077 C1100 1.391 . S
C1078 C1077 1.446 1_554 S
C1078 C1079 1.339 . S
C1078 H1107 0.949 . S
C1079 C1078 1.339 . S
C1079 C1080 1.439 . S
C1079 H1108 0.950 . S
C1080 N1076 1.383 1_554 S
C1080 C1079 1.439 . S
C1080 C1098 1.392 . S
N1081 Co1065 2.282 . S
N1081 C1084 1.332 . S
N1081 C1086 1.332 . S
C1082 C1083 1.386 . S
C1082 C1085 1.388 . S
C1083 C1082 1.386 . S
C1083 C1084 1.382 . S
C1083 H1109 0.950 . S
C1084 N1081 1.332 . S
C1084 C1083 1.382 . S
C1084 H1095 0.952 . S
C1085 C1082 1.388 . S
C1085 C1086 1.382 . S
C1085 H1110 0.950 . S
C1086 N1081 1.332 . S
C1086 C1085 1.382 . S
C1086 H1096 0.948 . S
N1087 Co1065 2.282 . S
N1087 C1091 1.332 . S
N1087 C1092 1.332 . S
C1088 C1089 1.388 . S
C1088 C1092 1.382 . S
C1088 H1111 0.950 . S
C1089 C1088 1.388 . S
C1089 C1090 1.386 . S
C1090 C1089 1.386 . S
C1090 C1091 1.382 . S
C1090 H1112 0.950 . S
C1091 N1087 1.332 . S
C1091 C1090 1.382 . S
C1091 H1093 0.952 . S
C1092 N1087 1.332 . S
C1092 C1088 1.382 . S
C1092 H1094 0.948 . S
H1093 C1091 0.952 . S
H1094 C1092 0.948 . S
H1095 C1084 0.952 . S
H1096 C1086 0.948 . S
C1097 C1063 1.395 . S
C1097 C1067 1.391 . S
C1098 C1060 1.389 . S
C1098 C1080 1.392 . S
C1099 C1070 1.392 . S
C1099 C1072 1.389 . S
C1100 C1075 1.395 . S
C1100 C1077 1.391 . S
H1101 C1061 0.951 . S
H1102 C1062 0.950 . S
H1103 C1068 0.949 . S
H1104 C1069 0.950 . S
H1105 C1073 0.951 . S
H1106 C1074 0.950 . S
H1107 C1078 0.949 . S
H1108 C1079 0.950 . S
H1109 C1083 0.950 . S
H1110 C1085 0.950 . S
H1111 C1088 0.950 . S
H1112 C1090 0.950 . S
C1113 C1114 1.443 . S
C1113 N1117 1.376 . S
C1113 C1151 1.389 . S
C1114 C1113 1.443 . S
C1114 C1115 1.340 . S
C1114 H1154 0.951 . S
C1115 C1114 1.340 . S
C1115 C1116 1.439 . S
C1115 H1155 0.950 . S
C1116 C1115 1.439 . S
C1116 N1117 1.374 . S
C1116 C1150 1.395 . S
N1117 C1113 1.376 . S
N1117 C1116 1.374 . S
N1117 Co1118 2.008 . S
Co1118 N1117 2.008 . S
Co1118 N1119 1.995 . S
Co1118 N1124 2.008 . S
Co1118 N1129 1.995 . S
Co1118 N1134 2.282 . S
Co1118 N1140 2.282 . S
N1119 Co1118 1.995 . S
N1119 C1120 1.376 . S
N1119 C1123 1.383 . S
C1120 N1119 1.376 . S
C1120 C1121 1.446 . S
C1120 C1150 1.391 . S
C1121 C1120 1.446 . S
C1121 C1122 1.339 . S
C1121 H1156 0.949 . S
C1122 C1121 1.339 . S
C1122 C1123 1.439 . S
C1122 H1157 0.950 . S
C1123 N1119 1.383 . S
C1123 C1122 1.439 . S
C1123 C1152 1.392 . S
N1124 Co1118 2.008 . S
N1124 C1125 1.376 . S
N1124 C1128 1.374 . S
C1125 N1124 1.376 . S
C1125 C1126 1.443 . S
C1125 C1152 1.389 . S
C1126 C1125 1.443 . S
C1126 C1127 1.340 . S
C1126 H1158 0.951 . S
C1127 C1126 1.340 . S
C1127 C1128 1.439 . S
C1127 H1159 0.950 . S
C1128 N1124 1.374 . S
C1128 C1127 1.439 . S
C1128 C1153 1.395 . S
N1129 Co1118 1.995 . S
N1129 C1130 1.376 . S
N1129 C1133 1.383 . S
C1130 N1129 1.376 . S
C1130 C1131 1.446 . S
C1130 C1153 1.391 . S
C1131 C1130 1.446 . S
C1131 C1132 1.339 . S
C1131 H1160 0.949 . S
C1132 C1131 1.339 . S
C1132 C1133 1.439 . S
C1132 H1161 0.950 . S
C1133 N1129 1.383 . S
C1133 C1132 1.439 . S
C1133 C1151 1.392 . S
N1134 Co1118 2.282 . S
N1134 C1137 1.332 . S
N1134 C1139 1.332 . S
C1135 C1136 1.386 . S
C1135 C1138 1.388 . S
C1136 C1135 1.386 . S
C1136 C1137 1.382 . S
C1136 H1162 0.950 . S
C1137 N1134 1.332 . S
C1137 C1136 1.382 . S
C1137 H1148 0.952 . S
C1138 C1135 1.388 . S
C1138 C1139 1.382 . S
C1138 H1163 0.950 . S
C1139 N1134 1.332 . S
C1139 C1138 1.382 . S
C1139 H1149 0.948 . S
N1140 Co1118 2.282 . S
N1140 C1144 1.332 . S
N1140 C1145 1.332 . S
C1141 C1142 1.388 . S
C1141 C1145 1.382 . S
C1141 H1164 0.950 . S
C1142 C1141 1.388 . S
C1142 C1143 1.386 . S
C1143 C1142 1.386 . S
C1143 C1144 1.382 . S
C1143 H1165 0.950 . S
C1144 N1140 1.332 . S
C1144 C1143 1.382 . S
C1144 H1146 0.952 . S
C1145 N1140 1.332 . S
C1145 C1141 1.382 . S
C1145 H1147 0.948 . S
H1146 C1144 0.952 . S
H1147 C1145 0.948 . S
H1148 C1137 0.952 . S
H1149 C1139 0.948 . S
C1150 C1116 1.395 . S
C1150 C1120 1.391 . S
C1151 C1113 1.389 . S
C1151 C1133 1.392 . S
C1152 C1123 1.392 . S
C1152 C1125 1.389 . S
C1153 C1128 1.395 . S
C1153 C1130 1.391 . S
H1154 C1114 0.951 . S
H1155 C1115 0.950 . S
H1156 C1121 0.949 . S
H1157 C1122 0.950 . S
H1158 C1126 0.951 . S
H1159 C1127 0.950 . S
H1160 C1131 0.949 . S
H1161 C1132 0.950 . S
H1162 C1136 0.950 . S
H1163 C1138 0.950 . S
H1164 C1141 0.950 . S
H1165 C1143 0.950 . S
C1166 C1167 1.443 . S
C1166 N1170 1.376 . S
C1166 C1204 1.389 1_455 S
C1167 C1166 1.443 . S
C1167 C1168 1.340 . S
C1167 H1207 0.951 . S
C1168 C1167 1.340 . S
C1168 C1169 1.439 . S
C1168 H1208 0.950 . S
C1169 C1168 1.439 . S
C1169 N1170 1.374 . S
C1169 C1203 1.395 . S
N1170 C1166 1.376 . S
N1170 C1169 1.374 . S
N1170 Co1171 2.008 1_455 S
Co1171 N1170 2.008 1_655 S
Co1171 N1172 1.995 1_655 S
Co1171 N1177 2.008 . S
Co1171 N1182 1.995 . S
Co1171 N1187 2.282 . S
Co1171 N1193 2.318 . S
N1172 Co1171 1.995 1_455 S
N1172 C1173 1.376 . S
N1172 C1176 1.383 . S
C1173 N1172 1.376 . S
C1173 C1174 1.446 . S
C1173 C1203 1.391 . S
C1174 C1173 1.446 . S
C1174 C1175 1.339 . S
C1174 H1209 0.949 . S
C1175 C1174 1.339 . S
C1175 C1176 1.439 . S
C1175 H1210 0.950 . S
C1176 N1172 1.383 . S
C1176 C1175 1.439 . S
C1176 C1205 1.392 1_455 S
N1177 Co1171 2.008 . S
N1177 C1178 1.376 . S
N1177 C1181 1.374 . S
C1178 N1177 1.376 . S
C1178 C1179 1.443 . S
C1178 C1205 1.389 . S
C1179 C1178 1.443 . S
C1179 C1180 1.340 . S
C1179 H1211 0.951 . S
C1180 C1179 1.340 . S
C1180 C1181 1.439 . S
C1180 H1212 0.950 . S
C1181 N1177 1.374 . S
C1181 C1180 1.439 . S
C1181 C1206 1.395 . S
N1182 Co1171 1.995 . S
N1182 C1183 1.376 . S
N1182 C1186 1.383 . S
C1183 N1182 1.376 . S
C1183 C1184 1.446 . S
C1183 C1206 1.391 . S
C1184 C1183 1.446 . S
C1184 C1185 1.339 . S
C1184 H1213 0.949 . S
C1185 C1184 1.339 . S
C1185 C1186 1.439 . S
C1185 H1214 0.950 . S
C1186 N1182 1.383 . S
C1186 C1185 1.439 . S
C1186 C1204 1.392 . S
N1187 Co1171 2.282 . S
N1187 C1190 1.332 . S
N1187 C1192 1.332 . S
C1188 C1189 1.386 . S
C1188 C1191 1.388 . S
C1189 C1188 1.386 . S
C1189 C1190 1.382 . S
C1189 H1215 0.950 . S
C1190 N1187 1.332 . S
C1190 C1189 1.382 . S
C1190 H1201 0.952 . S
C1191 C1188 1.388 . S
C1191 C1192 1.382 . S
C1191 H1216 0.950 . S
C1192 N1187 1.332 . S
C1192 C1191 1.382 . S
C1192 H1202 0.948 . S
N1193 Co1171 2.318 . S
N1193 C1197 1.243 1_655 S
N1193 C1198 1.383 . S
C1194 C1195 1.388 1_655 S
C1194 C1198 1.382 . S
C1194 H1217 0.950 . S
C1195 C1194 1.388 1_455 S
C1195 C1196 1.386 . S
C1196 C1195 1.386 . S
C1196 C1197 1.382 . S
C1196 H1218 0.950 . S
C1197 N1193 1.243 1_455 S
C1197 C1196 1.382 . S
C1197 H1199 0.952 . S
C1198 N1193 1.383 . S
C1198 C1194 1.382 . S
C1198 H1200 0.948 . S
H1199 C1197 0.952 . S
H1200 C1198 0.948 . S
H1201 C1190 0.952 . S
H1202 C1192 0.948 . S
C1203 C1169 1.395 . S
C1203 C1173 1.391 . S
C1204 C1166 1.389 1_655 S
C1204 C1186 1.392 . S
C1205 C1176 1.392 1_655 S
C1205 C1178 1.389 . S
C1206 C1181 1.395 . S
C1206 C1183 1.391 . S
H1207 C1167 0.951 . S
H1208 C1168 0.950 . S
H1209 C1174 0.949 . S
H1210 C1175 0.950 . S
H1211 C1179 0.951 . S
H1212 C1180 0.950 . S
H1213 C1184 0.949 . S
H1214 C1185 0.950 . S
H1215 C1189 0.950 . S
H1216 C1191 0.950 . S
H1217 C1194 0.950 . S
H1218 C1196 0.950 . S
C1219 C1220 1.443 . S
C1219 N1223 1.376 . S
C1219 C1257 1.389 . S
C1220 C1219 1.443 . S
C1220 C1221 1.340 . S
C1220 H1260 0.951 . S
C1221 C1220 1.340 . S
C1221 C1222 1.439 . S
C1221 H1261 0.950 . S
C1222 C1221 1.439 . S
C1222 N1223 1.374 . S
C1222 C1256 1.395 . S
N1223 C1219 1.376 . S
N1223 C1222 1.374 . S
N1223 Co1224 2.008 . S
Co1224 N1223 2.008 . S
Co1224 N1225 1.995 . S
Co1224 N1230 2.008 . S
Co1224 N1235 1.995 . S
Co1224 N1240 2.282 . S
Co1224 N1246 2.282 . S
N1225 Co1224 1.995 . S
N1225 C1226 1.376 . S
N1225 C1229 1.383 . S
C1226 N1225 1.376 . S
C1226 C1227 1.446 . S
C1226 C1256 1.391 . S
C1227 C1226 1.446 . S
C1227 C1228 1.339 . S
C1227 H1262 0.949 . S
C1228 C1227 1.339 . S
C1228 C1229 1.439 . S
C1228 H1263 0.950 . S
C1229 N1225 1.383 . S
C1229 C1228 1.439 . S
C1229 C1258 1.392 . S
N1230 Co1224 2.008 . S
N1230 C1231 1.376 . S
N1230 C1234 1.374 . S
C1231 N1230 1.376 . S
C1231 C1232 1.443 . S
C1231 C1258 1.389 . S
C1232 C1231 1.443 . S
C1232 C1233 1.340 . S
C1232 H1264 0.951 . S
C1233 C1232 1.340 . S
C1233 C1234 1.439 . S
C1233 H1265 0.950 . S
C1234 N1230 1.374 . S
C1234 C1233 1.439 . S
C1234 C1259 1.395 . S
N1235 Co1224 1.995 . S
N1235 C1236 1.376 . S
N1235 C1239 1.383 . S
C1236 N1235 1.376 . S
C1236 C1237 1.446 . S
C1236 C1259 1.391 . S
C1237 C1236 1.446 . S
C1237 C1238 1.339 . S
C1237 H1266 0.949 . S
C1238 C1237 1.339 . S
C1238 C1239 1.439 . S
C1238 H1267 0.950 . S
C1239 N1235 1.383 . S
C1239 C1238 1.439 . S
C1239 C1257 1.392 . S
N1240 Co1224 2.282 . S
N1240 C1243 1.332 . S
N1240 C1245 1.332 . S
C1241 C1242 1.386 . S
C1241 C1244 1.388 . S
C1242 C1241 1.386 . S
C1242 C1243 1.382 . S
C1242 H1268 0.950 . S
C1243 N1240 1.332 . S
C1243 C1242 1.382 . S
C1243 H1254 0.952 . S
C1244 C1241 1.388 . S
C1244 C1245 1.382 . S
C1244 H1269 0.950 . S
C1245 N1240 1.332 . S
C1245 C1244 1.382 . S
C1245 H1255 0.948 . S
N1246 Co1224 2.282 . S
N1246 C1250 1.332 . S
N1246 C1251 1.332 . S
C1247 C1248 1.388 . S
C1247 C1251 1.382 . S
C1247 H1270 0.950 . S
C1248 C1247 1.388 . S
C1248 C1249 1.386 . S
C1249 C1248 1.386 . S
C1249 C1250 1.382 . S
C1249 H1271 0.950 . S
C1250 N1246 1.332 . S
C1250 C1249 1.382 . S
C1250 H1252 0.952 . S
C1251 N1246 1.332 . S
C1251 C1247 1.382 . S
C1251 H1253 0.948 . S
H1252 C1250 0.952 . S
H1253 C1251 0.948 . S
H1254 C1243 0.952 . S
H1255 C1245 0.948 . S
C1256 C1222 1.395 . S
C1256 C1226 1.391 . S
C1257 C1219 1.389 . S
C1257 C1239 1.392 . S
C1258 C1229 1.392 . S
C1258 C1231 1.389 . S
C1259 C1234 1.395 . S
C1259 C1236 1.391 . S
H1260 C1220 0.951 . S
H1261 C1221 0.950 . S
H1262 C1227 0.949 . S
H1263 C1228 0.950 . S
H1264 C1232 0.951 . S
H1265 C1233 0.950 . S
H1266 C1237 0.949 . S
H1267 C1238 0.950 . S
H1268 C1242 0.950 . S
H1269 C1244 0.950 . S
H1270 C1247 0.950 . S
H1271 C1249 0.950 . S
C1272 C1273 1.443 . S
C1272 N1276 1.376 . S
C1272 C1310 1.389 . S
C1273 C1272 1.443 . S
C1273 C1274 1.340 . S
C1273 H1313 0.951 . S
C1274 C1273 1.340 . S
C1274 C1275 1.439 . S
C1274 H1314 0.950 . S
C1275 C1274 1.439 . S
C1275 N1276 1.374 . S
C1275 C1309 1.395 . S
N1276 C1272 1.376 . S
N1276 C1275 1.374 . S
N1276 Co1277 2.008 . S
Co1277 N1276 2.008 . S
Co1277 N1278 1.995 . S
Co1277 N1283 2.008 . S
Co1277 N1288 1.995 . S
Co1277 N1293 2.282 . S
Co1277 N1299 2.282 . S
N1278 Co1277 1.995 . S
N1278 C1279 1.376 . S
N1278 C1282 1.383 . S
C1279 N1278 1.376 . S
C1279 C1280 1.446 . S
C1279 C1309 1.391 . S
C1280 C1279 1.446 . S
C1280 C1281 1.339 . S
C1280 H1315 0.949 . S
C1281 C1280 1.339 . S
C1281 C1282 1.439 . S
C1281 H1316 0.950 . S
C1282 N1278 1.383 . S
C1282 C1281 1.439 . S
C1282 C1311 1.392 . S
N1283 Co1277 2.008 . S
N1283 C1284 1.376 . S
N1283 C1287 1.374 . S
C1284 N1283 1.376 . S
C1284 C1285 1.443 . S
C1284 C1311 1.389 . S
C1285 C1284 1.443 . S
C1285 C1286 1.340 . S
C1285 H1317 0.951 . S
C1286 C1285 1.340 . S
C1286 C1287 1.439 . S
C1286 H1318 0.950 . S
C1287 N1283 1.374 . S
C1287 C1286 1.439 . S
C1287 C1312 1.395 . S
N1288 Co1277 1.995 . S
N1288 C1289 1.376 . S
N1288 C1292 1.383 . S
C1289 N1288 1.376 . S
C1289 C1290 1.446 . S
C1289 C1312 1.391 . S
C1290 C1289 1.446 . S
C1290 C1291 1.339 . S
C1290 H1319 0.949 . S
C1291 C1290 1.339 . S
C1291 C1292 1.439 . S
C1291 H1320 0.950 . S
C1292 N1288 1.383 . S
C1292 C1291 1.439 . S
C1292 C1310 1.392 . S
N1293 Co1277 2.282 . S
N1293 C1296 1.332 . S
N1293 C1298 1.332 . S
C1294 C1295 1.386 . S
C1294 C1297 1.388 . S
C1295 C1294 1.386 . S
C1295 C1296 1.382 . S
C1295 H1321 0.950 . S
C1296 N1293 1.332 . S
C1296 C1295 1.382 . S
C1296 H1307 0.952 . S
C1297 C1294 1.388 . S
C1297 C1298 1.382 . S
C1297 H1322 0.950 . S
C1298 N1293 1.332 . S
C1298 C1297 1.382 . S
C1298 H1308 0.948 . S
N1299 Co1277 2.282 . S
N1299 C1303 1.332 . S
N1299 C1304 1.332 . S
C1300 C1301 1.388 . S
C1300 C1304 1.382 . S
C1300 H1323 0.950 . S
C1301 C1300 1.388 . S
C1301 C1302 1.386 . S
C1302 C1301 1.386 . S
C1302 C1303 1.382 . S
C1302 H1324 0.950 . S
C1303 N1299 1.332 . S
C1303 C1302 1.382 . S
C1303 H1305 0.952 . S
C1304 N1299 1.332 . S
C1304 C1300 1.382 . S
C1304 H1306 0.948 . S
H1305 C1303 0.952 . S
H1306 C1304 0.948 . S
H1307 C1296 0.952 . S
H1308 C1298 0.948 . S
C1309 C1275 1.395 . S
C1309 C1279 1.391 . S
C1310 C1272 1.389 . S
C1310 C1292 1.392 . S
C1311 C1282 1.392 . S
C1311 C1284 1.389 . S
C1312 C1287 1.395 . S
C1312 C1289 1.391 . S
H1313 C1273 0.951 . S
H1314 C1274 0.950 . S
H1315 C1280 0.949 . S
H1316 C1281 0.950 . S
H1317 C1285 0.951 . S
H1318 C1286 0.950 . S
H1319 C1290 0.949 . S
H1320 C1291 0.950 . S
H1321 C1295 0.950 . S
H1322 C1297 0.950 . S
H1323 C1300 0.950 . S
H1324 C1302 0.950 . S
C1325 C1326 1.443 . S
C1325 N1329 1.376 . S
C1325 C1363 1.389 . S
C1326 C1325 1.443 . S
C1326 C1327 1.340 . S
C1326 H1366 0.951 . S
C1327 C1326 1.340 . S
C1327 C1328 1.439 . S
C1327 H1367 0.950 . S
C1328 C1327 1.439 . S
C1328 N1329 1.374 . S
C1328 C1362 1.395 . S
N1329 C1325 1.376 . S
N1329 C1328 1.374 . S
N1329 Co1330 2.008 . S
Co1330 N1329 2.008 . S
Co1330 N1331 1.995 . S
Co1330 N1336 2.008 . S
Co1330 N1341 1.995 . S
Co1330 N1346 2.282 . S
Co1330 N1352 2.282 . S
N1331 Co1330 1.995 . S
N1331 C1332 1.376 . S
N1331 C1335 1.383 . S
C1332 N1331 1.376 . S
C1332 C1333 1.446 . S
C1332 C1362 1.391 . S
C1333 C1332 1.446 . S
C1333 C1334 1.339 . S
C1333 H1368 0.949 . S
C1334 C1333 1.339 . S
C1334 C1335 1.439 . S
C1334 H1369 0.950 . S
C1335 N1331 1.383 . S
C1335 C1334 1.439 . S
C1335 C1364 1.392 . S
N1336 Co1330 2.008 . S
N1336 C1337 1.376 . S
N1336 C1340 1.374 . S
C1337 N1336 1.376 . S
C1337 C1338 1.443 . S
C1337 C1364 1.389 . S
C1338 C1337 1.443 . S
C1338 C1339 1.340 . S
C1338 H1370 0.951 . S
C1339 C1338 1.340 . S
C1339 C1340 1.439 . S
C1339 H1371 0.950 . S
C1340 N1336 1.374 . S
C1340 C1339 1.439 . S
C1340 C1365 1.395 . S
N1341 Co1330 1.995 . S
N1341 C1342 1.376 . S
N1341 C1345 1.383 . S
C1342 N1341 1.376 . S
C1342 C1343 1.446 . S
C1342 C1365 1.391 . S
C1343 C1342 1.446 . S
C1343 C1344 1.339 . S
C1343 H1372 0.949 . S
C1344 C1343 1.339 . S
C1344 C1345 1.439 . S
C1344 H1373 0.950 . S
C1345 N1341 1.383 . S
C1345 C1344 1.439 . S
C1345 C1363 1.392 . S
N1346 Co1330 2.282 . S
N1346 C1349 1.332 . S
N1346 C1351 1.332 . S
C1347 C1348 1.386 . S
C1347 C1350 1.388 . S
C1348 C1347 1.386 . S
C1348 C1349 1.382 . S
C1348 H1374 0.950 . S
C1349 N1346 1.332 . S
C1349 C1348 1.382 . S
C1349 H1360 0.952 . S
C1350 C1347 1.388 . S
C1350 C1351 1.382 . S
C1350 H1375 0.950 . S
C1351 N1346 1.332 . S
C1351 C1350 1.382 . S
C1351 H1361 0.948 . S
N1352 Co1330 2.282 . S
N1352 C1356 1.332 . S
N1352 C1357 1.332 . S
C1353 C1354 1.388 . S
C1353 C1357 1.382 . S
C1353 H1376 0.950 . S
C1354 C1353 1.388 . S
C1354 C1355 1.386 . S
C1355 C1354 1.386 . S
C1355 C1356 1.382 . S
C1355 H1377 0.950 . S
C1356 N1352 1.332 . S
C1356 C1355 1.382 . S
C1356 H1358 0.952 . S
C1357 N1352 1.332 . S
C1357 C1353 1.382 . S
C1357 H1359 0.948 . S
H1358 C1356 0.952 . S
H1359 C1357 0.948 . S
H1360 C1349 0.952 . S
H1361 C1351 0.948 . S
C1362 C1328 1.395 . S
C1362 C1332 1.391 . S
C1363 C1325 1.389 . S
C1363 C1345 1.392 . S
C1364 C1335 1.392 . S
C1364 C1337 1.389 . S
C1365 C1340 1.395 . S
C1365 C1342 1.391 . S
H1366 C1326 0.951 . S
H1367 C1327 0.950 . S
H1368 C1333 0.949 . S
H1369 C1334 0.950 . S
H1370 C1338 0.951 . S
H1371 C1339 0.950 . S
H1372 C1343 0.949 . S
H1373 C1344 0.950 . S
H1374 C1348 0.950 . S
H1375 C1350 0.950 . S
H1376 C1353 0.950 . S
H1377 C1355 0.950 . S
C1378 C1379 1.443 . S
C1378 N1382 1.376 1_554 S
C1378 C1416 1.389 . S
C1379 C1378 1.443 . S
C1379 C1380 1.340 . S
C1379 H1419 0.951 . S
C1380 C1379 1.340 . S
C1380 C1381 1.439 1_554 S
C1380 H1420 0.950 . S
C1381 C1380 1.439 1_556 S
C1381 N1382 1.374 . S
C1381 C1415 1.395 . S
N1382 C1378 1.376 1_556 S
N1382 C1381 1.374 . S
N1382 Co1383 2.008 . S
Co1383 N1382 2.008 . S
Co1383 N1384 1.995 . S
Co1383 N1389 2.008 1_455 S
Co1383 N1394 1.995 1_455 S
Co1383 N1399 2.282 . S
Co1383 N1405 2.250 1_455 S
N1384 Co1383 1.995 . S
N1384 C1385 1.376 . S
N1384 C1388 1.383 . S
C1385 N1384 1.376 . S
C1385 C1386 1.446 . S
C1385 C1415 1.391 . S
C1386 C1385 1.446 . S
C1386 C1387 1.339 . S
C1386 H1421 0.949 . S
C1387 C1386 1.339 . S
C1387 C1388 1.439 . S
C1387 H1422 0.950 . S
C1388 N1384 1.383 . S
C1388 C1387 1.439 . S
C1388 C1417 1.392 . S
N1389 Co1383 2.008 1_655 S
N1389 C1390 1.393 . S
N1389 C1393 1.374 . S
C1390 N1389 1.393 . S
C1390 C1391 1.509 . S
C1390 C1417 1.320 1_655 S
C1391 C1390 1.509 . S
C1391 C1392 1.340 . S
C1391 H1423 0.951 . S
C1392 C1391 1.340 . S
C1392 C1393 1.439 . S
C1392 H1424 0.950 . S
C1393 N1389 1.374 . S
C1393 C1392 1.439 . S
C1393 C1418 1.395 . S
N1394 Co1383 1.995 1_655 S
N1394 C1395 1.376 . S
N1394 C1398 1.383 1_556 S
C1395 N1394 1.376 . S
C1395 C1396 1.446 1_556 S
C1395 C1418 1.391 . S
C1396 C1395 1.446 1_554 S
C1396 C1397 1.339 . S
C1396 H1425 0.949 . S
C1397 C1396 1.339 . S
C1397 C1398 1.439 . S
C1397 H1426 0.950 . S
C1398 N1394 1.383 1_554 S
C1398 C1397 1.439 . S
C1398 C1416 1.392 1_655 S
N1399 Co1383 2.282 . S
N1399 C1402 1.332 . S
N1399 C1404 1.332 . S
C1400 C1401 1.386 . S
C1400 C1403 1.388 . S
C1401 C1400 1.386 . S
C1401 C1402 1.382 . S
C1401 H1427 0.950 . S
C1402 N1399 1.332 . S
C1402 C1401 1.382 . S
C1402 H1413 0.952 . S
C1403 C1400 1.388 . S
C1403 C1404 1.382 . S
C1403 H1428 0.950 . S
C1404 N1399 1.332 . S
C1404 C1403 1.382 . S
C1404 H1414 0.948 . S
N1405 Co1383 2.250 1_655 S
N1405 C1409 1.295 1_655 S
N1405 C1410 1.399 . S
C1406 C1407 1.388 . S
C1406 C1410 1.382 . S
C1406 H1429 0.950 . S
C1407 C1406 1.388 . S
C1407 C1408 1.386 1_655 S
C1408 C1407 1.386 1_455 S
C1408 C1409 1.382 . S
C1408 H1430 0.950 . S
C1409 N1405 1.295 1_455 S
C1409 C1408 1.382 . S
C1409 H1411 0.952 . S
C1410 N1405 1.399 . S
C1410 C1406 1.382 . S
C1410 H1412 0.948 . S
H1411 C1409 0.952 . S
H1412 C1410 0.948 . S
H1413 C1402 0.952 . S
H1414 C1404 0.948 . S
C1415 C1381 1.395 . S
C1415 C1385 1.391 . S
C1416 C1378 1.389 . S
C1416 C1398 1.392 1_455 S
C1417 C1388 1.392 . S
C1417 C1390 1.320 1_455 S
C1418 C1393 1.395 . S
C1418 C1395 1.391 . S
H1419 C1379 0.951 . S
H1420 C1380 0.950 . S
H1421 C1386 0.949 . S
H1422 C1387 0.950 . S
H1423 C1391 0.951 . S
H1424 C1392 0.950 . S
H1425 C1396 0.949 . S
H1426 C1397 0.950 . S
H1427 C1401 0.950 . S
H1428 C1403 0.950 . S
H1429 C1406 0.950 . S
H1430 C1408 0.950 . S
C1431 C1432 1.443 . S
C1431 N1435 1.376 . S
C1431 C1469 1.389 . S
C1432 C1431 1.443 . S
C1432 C1433 1.340 . S
C1432 H1472 0.951 . S
C1433 C1432 1.340 . S
C1433 C1434 1.439 . S
C1433 H1473 0.950 . S
C1434 C1433 1.439 . S
C1434 N1435 1.374 . S
C1434 C1468 1.395 . S
N1435 C1431 1.376 . S
N1435 C1434 1.374 . S
N1435 Co1436 2.008 . S
Co1436 N1435 2.008 . S
Co1436 N1437 1.995 . S
Co1436 N1442 2.008 . S
Co1436 N1447 1.995 . S
Co1436 N1452 2.282 . S
Co1436 N1458 2.282 . S
N1437 Co1436 1.995 . S
N1437 C1438 1.376 . S
N1437 C1441 1.383 . S
C1438 N1437 1.376 . S
C1438 C1439 1.446 . S
C1438 C1468 1.391 . S
C1439 C1438 1.446 . S
C1439 C1440 1.339 . S
C1439 H1474 0.949 . S
C1440 C1439 1.339 . S
C1440 C1441 1.439 . S
C1440 H1475 0.950 . S
C1441 N1437 1.383 . S
C1441 C1440 1.439 . S
C1441 C1470 1.392 . S
N1442 Co1436 2.008 . S
N1442 C1443 1.376 . S
N1442 C1446 1.374 . S
C1443 N1442 1.376 . S
C1443 C1444 1.443 . S
C1443 C1470 1.389 . S
C1444 C1443 1.443 . S
C1444 C1445 1.340 . S
C1444 H1476 0.951 . S
C1445 C1444 1.340 . S
C1445 C1446 1.439 . S
C1445 H1477 0.950 . S
C1446 N1442 1.374 . S
C1446 C1445 1.439 . S
C1446 C1471 1.395 . S
N1447 Co1436 1.995 . S
N1447 C1448 1.376 . S
N1447 C1451 1.383 . S
C1448 N1447 1.376 . S
C1448 C1449 1.446 . S
C1448 C1471 1.391 . S
C1449 C1448 1.446 . S
C1449 C1450 1.339 . S
C1449 H1478 0.949 . S
C1450 C1449 1.339 . S
C1450 C1451 1.439 . S
C1450 H1479 0.950 . S
C1451 N1447 1.383 . S
C1451 C1450 1.439 . S
C1451 C1469 1.392 . S
N1452 Co1436 2.282 . S
N1452 C1455 1.332 . S
N1452 C1457 1.332 . S
C1453 C1454 1.386 . S
C1453 C1456 1.388 . S
C1454 C1453 1.386 . S
C1454 C1455 1.382 . S
C1454 H1480 0.950 . S
C1455 N1452 1.332 . S
C1455 C1454 1.382 . S
C1455 H1466 0.952 . S
C1456 C1453 1.388 . S
C1456 C1457 1.382 . S
C1456 H1481 0.950 . S
C1457 N1452 1.332 . S
C1457 C1456 1.382 . S
C1457 H1467 0.948 . S
N1458 Co1436 2.282 . S
N1458 C1462 1.332 . S
N1458 C1463 1.332 . S
C1459 C1460 1.388 . S
C1459 C1463 1.382 . S
C1459 H1482 0.950 . S
C1460 C1459 1.388 . S
C1460 C1461 1.386 . S
C1461 C1460 1.386 . S
C1461 C1462 1.382 . S
C1461 H1483 0.950 . S
C1462 N1458 1.332 . S
C1462 C1461 1.382 . S
C1462 H1464 0.952 . S
C1463 N1458 1.332 . S
C1463 C1459 1.382 . S
C1463 H1465 0.948 . S
H1464 C1462 0.952 . S
H1465 C1463 0.948 . S
H1466 C1455 0.952 . S
H1467 C1457 0.948 . S
C1468 C1434 1.395 . S
C1468 C1438 1.391 . S
C1469 C1431 1.389 . S
C1469 C1451 1.392 . S
C1470 C1441 1.392 . S
C1470 C1443 1.389 . S
C1471 C1446 1.395 . S
C1471 C1448 1.391 . S
H1472 C1432 0.951 . S
H1473 C1433 0.950 . S
H1474 C1439 0.949 . S
H1475 C1440 0.950 . S
H1476 C1444 0.951 . S
H1477 C1445 0.950 . S
H1478 C1449 0.949 . S
H1479 C1450 0.950 . S
H1480 C1454 0.950 . S
H1481 C1456 0.950 . S
H1482 C1459 0.950 . S
H1483 C1461 0.950 . S
C1484 C1485 1.443 . S
C1484 N1488 1.376 1_556 S
C1484 C1522 1.389 . S
C1485 C1484 1.443 . S
C1485 C1486 1.340 . S
C1485 H1525 0.951 . S
C1486 C1485 1.340 . S
C1486 C1487 1.439 1_556 S
C1486 H1526 0.950 . S
C1487 C1486 1.439 1_554 S
C1487 N1488 1.374 . S
C1487 C1521 1.395 . S
N1488 C1484 1.376 1_554 S
N1488 C1487 1.374 . S
N1488 Co1489 2.008 . S
Co1489 N1488 2.008 . S
Co1489 N1490 1.995 . S
Co1489 N1495 2.008 . S
Co1489 N1500 1.995 . S
Co1489 N1505 2.282 . S
Co1489 N1511 2.282 . S
N1490 Co1489 1.995 . S
N1490 C1491 1.376 . S
N1490 C1494 1.383 . S
C1491 N1490 1.376 . S
C1491 C1492 1.446 . S
C1491 C1521 1.391 . S
C1492 C1491 1.446 . S
C1492 C1493 1.339 . S
C1492 H1527 0.949 . S
C1493 C1492 1.339 . S
C1493 C1494 1.439 . S
C1493 H1528 0.950 . S
C1494 N1490 1.383 . S
C1494 C1493 1.439 . S
C1494 C1523 1.392 . S
N1495 Co1489 2.008 . S
N1495 C1496 1.376 . S
N1495 C1499 1.374 . S
C1496 N1495 1.376 . S
C1496 C1497 1.443 . S
C1496 C1523 1.389 . S
C1497 C1496 1.443 . S
C1497 C1498 1.340 . S
C1497 H1529 0.951 . S
C1498 C1497 1.340 . S
C1498 C1499 1.439 . S
C1498 H1530 0.950 . S
C1499 N1495 1.374 . S
C1499 C1498 1.439 . S
C1499 C1524 1.395 . S
N1500 Co1489 1.995 . S
N1500 C1501 1.376 . S
N1500 C1504 1.383 1_554 S
C1501 N1500 1.376 . S
C1501 C1502 1.446 1_554 S
C1501 C1524 1.391 . S
C1502 C1501 1.446 1_556 S
C1502 C1503 1.339 . S
C1502 H1531 0.949 . S
C1503 C1502 1.339 . S
C1503 C1504 1.439 . S
C1503 H1532 0.950 . S
C1504 N1500 1.383 1_556 S
C1504 C1503 1.439 . S
C1504 C1522 1.392 . S
N1505 Co1489 2.282 . S
N1505 C1508 1.332 . S
N1505 C1510 1.332 . S
C1506 C1507 1.386 . S
C1506 C1509 1.388 . S
C1507 C1506 1.386 . S
C1507 C1508 1.382 . S
C1507 H1533 0.950 . S
C1508 N1505 1.332 . S
C1508 C1507 1.382 . S
C1508 H1519 0.952 . S
C1509 C1506 1.388 . S
C1509 C1510 1.382 . S
C1509 H1534 0.950 . S
C1510 N1505 1.332 . S
C1510 C1509 1.382 . S
C1510 H1520 0.948 . S
N1511 Co1489 2.282 . S
N1511 C1515 1.332 . S
N1511 C1516 1.332 . S
C1512 C1513 1.388 . S
C1512 C1516 1.382 . S
C1512 H1535 0.950 . S
C1513 C1512 1.388 . S
C1513 C1514 1.386 . S
C1514 C1513 1.386 . S
C1514 C1515 1.382 . S
C1514 H1536 0.950 . S
C1515 N1511 1.332 . S
C1515 C1514 1.382 . S
C1515 H1517 0.952 . S
C1516 N1511 1.332 . S
C1516 C1512 1.382 . S
C1516 H1518 0.948 . S
H1517 C1515 0.952 . S
H1518 C1516 0.948 . S
H1519 C1508 0.952 . S
H1520 C1510 0.948 . S
C1521 C1487 1.395 . S
C1521 C1491 1.391 . S
C1522 C1484 1.389 . S
C1522 C1504 1.392 . S
C1523 C1494 1.392 . S
C1523 C1496 1.389 . S
C1524 C1499 1.395 . S
C1524 C1501 1.391 . S
H1525 C1485 0.951 . S
H1526 C1486 0.950 . S
H1527 C1492 0.949 . S
H1528 C1493 0.950 . S
H1529 C1497 0.951 . S
H1530 C1498 0.950 . S
H1531 C1502 0.949 . S
H1532 C1503 0.950 . S
H1533 C1507 0.950 . S
H1534 C1509 0.950 . S
H1535 C1512 0.950 . S
H1536 C1514 0.950 . S
C1537 C1538 1.443 . S
C1537 N1541 1.376 . S
C1537 C1575 1.389 . S
C1538 C1537 1.443 . S
C1538 C1539 1.340 . S
C1538 H1578 0.951 . S
C1539 C1538 1.340 . S
C1539 C1540 1.439 . S
C1539 H1579 0.950 . S
C1540 C1539 1.439 . S
C1540 N1541 1.374 . S
C1540 C1574 1.395 . S
N1541 C1537 1.376 . S
N1541 C1540 1.374 . S
N1541 Co1542 2.008 . S
Co1542 N1541 2.008 . S
Co1542 N1543 1.995 . S
Co1542 N1548 2.008 . S
Co1542 N1553 1.995 . S
Co1542 N1558 2.282 . S
Co1542 N1564 2.282 . S
N1543 Co1542 1.995 . S
N1543 C1544 1.376 . S
N1543 C1547 1.383 . S
C1544 N1543 1.376 . S
C1544 C1545 1.446 . S
C1544 C1574 1.391 . S
C1545 C1544 1.446 . S
C1545 C1546 1.339 . S
C1545 H1580 0.949 . S
C1546 C1545 1.339 . S
C1546 C1547 1.439 . S
C1546 H1581 0.950 . S
C1547 N1543 1.383 . S
C1547 C1546 1.439 . S
C1547 C1576 1.392 . S
N1548 Co1542 2.008 . S
N1548 C1549 1.376 . S
N1548 C1552 1.374 . S
C1549 N1548 1.376 . S
C1549 C1550 1.443 . S
C1549 C1576 1.389 . S
C1550 C1549 1.443 . S
C1550 C1551 1.340 . S
C1550 H1582 0.951 . S
C1551 C1550 1.340 . S
C1551 C1552 1.439 . S
C1551 H1583 0.950 . S
C1552 N1548 1.374 . S
C1552 C1551 1.439 . S
C1552 C1577 1.395 . S
N1553 Co1542 1.995 . S
N1553 C1554 1.376 . S
N1553 C1557 1.383 . S
C1554 N1553 1.376 . S
C1554 C1555 1.446 . S
C1554 C1577 1.391 . S
C1555 C1554 1.446 . S
C1555 C1556 1.339 . S
C1555 H1584 0.949 . S
C1556 C1555 1.339 . S
C1556 C1557 1.439 . S
C1556 H1585 0.950 . S
C1557 N1553 1.383 . S
C1557 C1556 1.439 . S
C1557 C1575 1.392 . S
N1558 Co1542 2.282 . S
N1558 C1561 1.332 . S
N1558 C1563 1.332 . S
C1559 C1560 1.386 . S
C1559 C1562 1.388 . S
C1560 C1559 1.386 . S
C1560 C1561 1.382 . S
C1560 H1586 0.950 . S
C1561 N1558 1.332 . S
C1561 C1560 1.382 . S
C1561 H1572 0.952 . S
C1562 C1559 1.388 . S
C1562 C1563 1.382 . S
C1562 H1587 0.950 . S
C1563 N1558 1.332 . S
C1563 C1562 1.382 . S
C1563 H1573 0.948 . S
N1564 Co1542 2.282 . S
N1564 C1568 1.332 . S
N1564 C1569 1.332 . S
C1565 C1566 1.388 . S
C1565 C1569 1.382 . S
C1565 H1588 0.950 . S
C1566 C1565 1.388 . S
C1566 C1567 1.386 . S
C1567 C1566 1.386 . S
C1567 C1568 1.382 . S
C1567 H1589 0.950 . S
C1568 N1564 1.332 . S
C1568 C1567 1.382 . S
C1568 H1570 0.952 . S
C1569 N1564 1.332 . S
C1569 C1565 1.382 . S
C1569 H1571 0.948 . S
H1570 C1568 0.952 . S
H1571 C1569 0.948 . S
H1572 C1561 0.952 . S
H1573 C1563 0.948 . S
C1574 C1540 1.395 . S
C1574 C1544 1.391 . S
C1575 C1537 1.389 . S
C1575 C1557 1.392 . S
C1576 C1547 1.392 . S
C1576 C1549 1.389 . S
C1577 C1552 1.395 . S
C1577 C1554 1.391 . S
H1578 C1538 0.951 . S
H1579 C1539 0.950 . S
H1580 C1545 0.949 . S
H1581 C1546 0.950 . S
H1582 C1550 0.951 . S
H1583 C1551 0.950 . S
H1584 C1555 0.949 . S
H1585 C1556 0.950 . S
H1586 C1560 0.950 . S
H1587 C1562 0.950 . S
H1588 C1565 0.950 . S
H1589 C1567 0.950 . S
C1590 C1591 1.443 . S
C1590 N1594 1.376 . S
C1590 C1628 1.389 . S
C1591 C1590 1.443 . S
C1591 C1592 1.340 . S
C1591 H1631 0.951 . S
C1592 C1591 1.340 . S
C1592 C1593 1.439 . S
C1592 H1632 0.950 . S
C1593 C1592 1.439 . S
C1593 N1594 1.374 . S
C1593 C1627 1.395 . S
N1594 C1590 1.376 . S
N1594 C1593 1.374 . S
N1594 Co1595 2.008 . S
Co1595 N1594 2.008 . S
Co1595 N1596 1.995 . S
Co1595 N1601 2.008 1_455 S
Co1595 N1606 1.995 1_455 S
Co1595 N1611 2.282 . S
Co1595 N1617 2.250 1_455 S
N1596 Co1595 1.995 . S
N1596 C1597 1.376 . S
N1596 C1600 1.383 . S
C1597 N1596 1.376 . S
C1597 C1598 1.446 . S
C1597 C1627 1.391 . S
C1598 C1597 1.446 . S
C1598 C1599 1.339 . S
C1598 H1633 0.949 . S
C1599 C1598 1.339 . S
C1599 C1600 1.439 . S
C1599 H1634 0.950 . S
C1600 N1596 1.383 . S
C1600 C1599 1.439 . S
C1600 C1629 1.392 . S
N1601 Co1595 2.008 1_655 S
N1601 C1602 1.393 . S
N1601 C1605 1.374 . S
C1602 N1601 1.393 . S
C1602 C1603 1.508 . S
C1602 C1629 1.320 1_655 S
C1603 C1602 1.508 . S
C1603 C1604 1.340 . S
C1603 H1635 0.951 . S
C1604 C1603 1.340 . S
C1604 C1605 1.439 . S
C1604 H1636 0.950 . S
C1605 N1601 1.374 . S
C1605 C1604 1.439 . S
C1605 C1630 1.395 . S
N1606 Co1595 1.995 1_655 S
N1606 C1607 1.376 . S
N1606 C1610 1.383 . S
C1607 N1606 1.376 . S
C1607 C1608 1.446 . S
C1607 C1630 1.391 . S
C1608 C1607 1.446 . S
C1608 C1609 1.339 . S
C1608 H1637 0.949 . S
C1609 C1608 1.339 . S
C1609 C1610 1.439 . S
C1609 H1638 0.950 . S
C1610 N1606 1.383 . S
C1610 C1609 1.439 . S
C1610 C1628 1.392 1_655 S
N1611 Co1595 2.282 . S
N1611 C1614 1.332 . S
N1611 C1616 1.332 . S
C1612 C1613 1.386 . S
C1612 C1615 1.388 . S
C1613 C1612 1.386 . S
C1613 C1614 1.382 . S
C1613 H1639 0.950 . S
C1614 N1611 1.332 . S
C1614 C1613 1.382 . S
C1614 H1625 0.952 . S
C1615 C1612 1.388 . S
C1615 C1616 1.382 . S
C1615 H1640 0.950 . S
C1616 N1611 1.332 . S
C1616 C1615 1.382 . S
C1616 H1626 0.948 . S
N1617 Co1595 2.250 1_655 S
N1617 C1621 1.295 1_655 S
N1617 C1622 1.399 . S
C1618 C1619 1.388 . S
C1618 C1622 1.382 . S
C1618 H1641 0.950 . S
C1619 C1618 1.388 . S
C1619 C1620 1.386 1_655 S
C1620 C1619 1.386 1_455 S
C1620 C1621 1.382 . S
C1620 H1642 0.950 . S
C1621 N1617 1.295 1_455 S
C1621 C1620 1.382 . S
C1621 H1623 0.952 . S
C1622 N1617 1.399 . S
C1622 C1618 1.382 . S
C1622 H1624 0.948 . S
H1623 C1621 0.952 . S
H1624 C1622 0.948 . S
H1625 C1614 0.952 . S
H1626 C1616 0.948 . S
C1627 C1593 1.395 . S
C1627 C1597 1.391 . S
C1628 C1590 1.389 . S
C1628 C1610 1.392 1_455 S
C1629 C1600 1.392 . S
C1629 C1602 1.320 1_455 S
C1630 C1605 1.395 . S
C1630 C1607 1.391 . S
H1631 C1591 0.951 . S
H1632 C1592 0.950 . S
H1633 C1598 0.949 . S
H1634 C1599 0.950 . S
H1635 C1603 0.951 . S
H1636 C1604 0.950 . S
H1637 C1608 0.949 . S
H1638 C1609 0.950 . S
H1639 C1613 0.950 . S
H1640 C1615 0.950 . S
H1641 C1618 0.950 . S
H1642 C1620 0.950 . S
C1643 C1644 1.443 . S
C1643 N1647 1.376 . S
C1643 C1681 1.389 . S
C1644 C1643 1.443 . S
C1644 C1645 1.340 . S
C1644 H1684 0.951 . S
C1645 C1644 1.340 . S
C1645 C1646 1.439 . S
C1645 H1685 0.950 . S
C1646 C1645 1.439 . S
C1646 N1647 1.374 . S
C1646 C1680 1.395 . S
N1647 C1643 1.376 . S
N1647 C1646 1.374 . S
N1647 Co1648 2.008 . S
Co1648 N1647 2.008 . S
Co1648 N1649 1.995 . S
Co1648 N1654 2.008 . S
Co1648 N1659 1.995 . S
Co1648 N1664 2.282 . S
Co1648 N1670 2.282 . S
N1649 Co1648 1.995 . S
N1649 C1650 1.376 . S
N1649 C1653 1.383 . S
C1650 N1649 1.376 . S
C1650 C1651 1.446 . S
C1650 C1680 1.391 . S
C1651 C1650 1.446 . S
C1651 C1652 1.339 . S
C1651 H1686 0.949 . S
C1652 C1651 1.339 . S
C1652 C1653 1.439 . S
C1652 H1687 0.950 . S
C1653 N1649 1.383 . S
C1653 C1652 1.439 . S
C1653 C1682 1.392 . S
N1654 Co1648 2.008 . S
N1654 C1655 1.376 . S
N1654 C1658 1.374 . S
C1655 N1654 1.376 . S
C1655 C1656 1.443 . S
C1655 C1682 1.389 . S
C1656 C1655 1.443 . S
C1656 C1657 1.340 . S
C1656 H1688 0.951 . S
C1657 C1656 1.340 . S
C1657 C1658 1.439 . S
C1657 H1689 0.950 . S
C1658 N1654 1.374 . S
C1658 C1657 1.439 . S
C1658 C1683 1.395 . S
N1659 Co1648 1.995 . S
N1659 C1660 1.376 . S
N1659 C1663 1.383 . S
C1660 N1659 1.376 . S
C1660 C1661 1.446 . S
C1660 C1683 1.391 . S
C1661 C1660 1.446 . S
C1661 C1662 1.339 . S
C1661 H1690 0.949 . S
C1662 C1661 1.339 . S
C1662 C1663 1.439 . S
C1662 H1691 0.950 . S
C1663 N1659 1.383 . S
C1663 C1662 1.439 . S
C1663 C1681 1.392 . S
N1664 Co1648 2.282 . S
N1664 C1667 1.332 . S
N1664 C1669 1.332 . S
C1665 C1666 1.386 . S
C1665 C1668 1.388 . S
C1666 C1665 1.386 . S
C1666 C1667 1.382 . S
C1666 H1692 0.950 . S
C1667 N1664 1.332 . S
C1667 C1666 1.382 . S
C1667 H1678 0.952 . S
C1668 C1665 1.388 . S
C1668 C1669 1.382 . S
C1668 H1693 0.950 . S
C1669 N1664 1.332 . S
C1669 C1668 1.382 . S
C1669 H1679 0.948 . S
N1670 Co1648 2.282 . S
N1670 C1674 1.332 . S
N1670 C1675 1.332 . S
C1671 C1672 1.388 . S
C1671 C1675 1.382 . S
C1671 H1694 0.950 . S
C1672 C1671 1.388 . S
C1672 C1673 1.386 . S
C1673 C1672 1.386 . S
C1673 C1674 1.382 . S
C1673 H1695 0.950 . S
C1674 N1670 1.332 . S
C1674 C1673 1.382 . S
C1674 H1676 0.952 . S
C1675 N1670 1.332 . S
C1675 C1671 1.382 . S
C1675 H1677 0.948 . S
H1676 C1674 0.952 . S
H1677 C1675 0.948 . S
H1678 C1667 0.952 . S
H1679 C1669 0.948 . S
C1680 C1646 1.395 . S
C1680 C1650 1.391 . S
C1681 C1643 1.389 . S
C1681 C1663 1.392 . S
C1682 C1653 1.392 . S
C1682 C1655 1.389 . S
C1683 C1658 1.395 . S
C1683 C1660 1.391 . S
H1684 C1644 0.951 . S
H1685 C1645 0.950 . S
H1686 C1651 0.949 . S
H1687 C1652 0.950 . S
H1688 C1656 0.951 . S
H1689 C1657 0.950 . S
H1690 C1661 0.949 . S
H1691 C1662 0.950 . S
H1692 C1666 0.950 . S
H1693 C1668 0.950 . S
H1694 C1671 0.950 . S
H1695 C1673 0.950 . S
H1696 C1708 0.930 . S
H1697 C1710 0.921 1_455 S
H1698 C1711 0.930 . S
H1699 C1715 0.959 . S
H1700 C1715 0.959 . S
H1701 C1715 0.961 . S
H1702 C1716 0.960 . S
H1703 C1716 0.961 . S
H1704 C1716 0.959 . S
H1705 C1719 0.929 . S
H1706 C1720 0.931 . S
H1707 C1722 0.924 1_655 S
C1708 H1696 0.930 . S
C1708 C1709 1.399 . S
C1708 C1713 1.399 . S
C1709 C1708 1.399 . S
C1709 C1710 1.419 . S
C1710 H1697 0.921 1_655 S
C1710 C1709 1.419 . S
C1710 C1711 1.363 1_655 S
C1711 H1698 0.930 . S
C1711 C1710 1.363 1_455 S
C1711 C1712 1.390 . S
C1712 C1711 1.390 . S
C1712 C1713 1.394 1_455 S
C1712 C1718 1.465 . S
C1713 C1708 1.399 . S
C1713 C1712 1.394 1_655 S
C1713 C1714 1.516 . S
C1714 C1713 1.516 . S
C1714 C1715 1.502 . S
C1714 C1716 1.561 1_655 S
C1714 C1717 1.508 1_655 S
C1715 H1699 0.959 . S
C1715 H1700 0.959 . S
C1715 H1701 0.961 . S
C1715 C1714 1.502 . S
C1716 H1702 0.960 . S
C1716 H1703 0.961 . S
C1716 H1704 0.959 . S
C1716 C1714 1.561 1_455 S
C1717 C1714 1.508 1_455 S
C1717 C1718 1.412 . S
C1717 C1722 1.397 . S
C1718 C1712 1.465 . S
C1718 C1717 1.412 . S
C1718 C1719 1.399 . S
C1719 H1705 0.929 . S
C1719 C1718 1.399 . S
C1719 C1720 1.385 . S
C1720 H1706 0.931 . S
C1720 C1719 1.385 . S
C1720 C1721 1.389 . S
C1721 C1720 1.389 . S
C1721 C1722 1.387 . S
C1722 H1707 0.924 1_455 S
C1722 C1717 1.397 . S
C1722 C1721 1.387 . S
H1723 C1735 0.930 . S
H1724 C1737 0.930 . S
H1725 C1738 0.930 . S
H1726 C1742 0.959 . S
H1727 C1742 0.959 . S
H1728 C1742 0.961 . S
H1729 C1743 0.960 . S
H1730 C1743 0.961 . S
H1731 C1743 0.959 . S
H1732 C1746 0.929 . S
H1733 C1747 0.931 . S
H1734 C1749 0.930 . S
C1735 H1723 0.930 . S
C1735 C1736 1.399 . S
C1735 C1740 1.399 1_556 S
C1736 C1735 1.399 . S
C1736 C1737 1.376 . S
C1737 H1724 0.930 . S
C1737 C1736 1.376 . S
C1737 C1738 1.388 1_556 S
C1738 H1725 0.930 . S
C1738 C1737 1.388 1_554 S
C1738 C1739 1.390 . S
C1739 C1738 1.390 . S
C1739 C1740 1.394 . S
C1739 C1745 1.465 . S
C1740 C1735 1.399 1_554 S
C1740 C1739 1.394 . S
C1740 C1741 1.516 . S
C1741 C1740 1.516 . S
C1741 C1742 1.502 . S
C1741 C1743 1.561 . S
C1741 C1744 1.526 . S
C1742 H1726 0.959 . S
C1742 H1727 0.959 . S
C1742 H1728 0.961 . S
C1742 C1741 1.502 . S
C1743 H1729 0.960 . S
C1743 H1730 0.961 . S
C1743 H1731 0.959 . S
C1743 C1741 1.561 . S
C1744 C1741 1.526 . S
C1744 C1745 1.396 . S
C1744 C1749 1.390 . S
C1745 C1739 1.465 . S
C1745 C1744 1.396 . S
C1745 C1746 1.399 . S
C1746 H1732 0.929 . S
C1746 C1745 1.399 . S
C1746 C1747 1.385 . S
C1747 H1733 0.931 . S
C1747 C1746 1.385 . S
C1747 C1748 1.389 . S
C1748 C1747 1.389 . S
C1748 C1749 1.387 . S
C1749 H1734 0.930 . S
C1749 C1744 1.390 . S
C1749 C1748 1.387 . S
H1750 C1762 0.930 . S
H1751 C1764 0.930 . S
H1752 C1765 0.930 . S
H1753 C1769 0.959 . S
H1754 C1769 0.959 . S
H1755 C1769 0.961 . S
H1756 C1770 0.960 . S
H1757 C1770 0.961 . S
H1758 C1770 0.959 . S
H1759 C1773 0.929 . S
H1760 C1774 0.931 . S
H1761 C1776 0.930 . S
C1762 H1750 0.930 . S
C1762 C1763 1.399 . S
C1762 C1767 1.399 . S
C1763 C1762 1.399 . S
C1763 C1764 1.376 . S
C1764 H1751 0.930 . S
C1764 C1763 1.376 . S
C1764 C1765 1.388 . S
C1765 H1752 0.930 . S
C1765 C1764 1.388 . S
C1765 C1766 1.390 . S
C1766 C1765 1.390 . S
C1766 C1767 1.394 . S
C1766 C1772 1.465 . S
C1767 C1762 1.399 . S
C1767 C1766 1.394 . S
C1767 C1768 1.516 . S
C1768 C1767 1.516 . S
C1768 C1769 1.502 . S
C1768 C1770 1.561 . S
C1768 C1771 1.526 . S
C1769 H1753 0.959 . S
C1769 H1754 0.959 . S
C1769 H1755 0.961 . S
C1769 C1768 1.502 . S
C1770 H1756 0.960 . S
C1770 H1757 0.961 . S
C1770 H1758 0.959 . S
C1770 C1768 1.561 . S
C1771 C1768 1.526 . S
C1771 C1772 1.396 . S
C1771 C1776 1.390 . S
C1772 C1766 1.465 . S
C1772 C1771 1.396 . S
C1772 C1773 1.399 . S
C1773 H1759 0.929 . S
C1773 C1772 1.399 . S
C1773 C1774 1.385 . S
C1774 H1760 0.931 . S
C1774 C1773 1.385 . S
C1774 C1775 1.389 . S
C1775 C1774 1.389 . S
C1775 C1776 1.387 . S
C1776 H1761 0.930 . S
C1776 C1771 1.390 . S
C1776 C1775 1.387 . S
H1777 C1789 0.930 . S
H1778 C1791 0.930 . S
H1779 C1792 0.930 . S
H1780 C1796 0.959 . S
H1781 C1796 0.959 . S
H1782 C1796 0.961 . S
H1783 C1797 0.960 . S
H1784 C1797 0.961 . S
H1785 C1797 0.959 . S
H1786 C1800 0.929 . S
H1787 C1801 0.931 . S
H1788 C1803 0.930 . S
C1789 H1777 0.930 . S
C1789 C1790 1.399 . S
C1789 C1794 1.399 . S
C1790 C1789 1.399 . S
C1790 C1791 1.376 . S
C1791 H1778 0.930 . S
C1791 C1790 1.376 . S
C1791 C1792 1.388 . S
C1792 H1779 0.930 . S
C1792 C1791 1.388 . S
C1792 C1793 1.390 . S
C1793 C1792 1.390 . S
C1793 C1794 1.394 . S
C1793 C1799 1.465 . S
C1794 C1789 1.399 . S
C1794 C1793 1.394 . S
C1794 C1795 1.516 . S
C1795 C1794 1.516 . S
C1795 C1796 1.502 . S
C1795 C1797 1.561 . S
C1795 C1798 1.526 . S
C1796 H1780 0.959 . S
C1796 H1781 0.959 . S
C1796 H1782 0.961 . S
C1796 C1795 1.502 . S
C1797 H1783 0.960 . S
C1797 H1784 0.961 . S
C1797 H1785 0.959 . S
C1797 C1795 1.561 . S
C1798 C1795 1.526 . S
C1798 C1799 1.396 . S
C1798 C1803 1.390 . S
C1799 C1793 1.465 . S
C1799 C1798 1.396 . S
C1799 C1800 1.399 . S
C1800 H1786 0.929 . S
C1800 C1799 1.399 . S
C1800 C1801 1.385 . S
C1801 H1787 0.931 . S
C1801 C1800 1.385 . S
C1801 C1802 1.389 . S
C1802 C1801 1.389 . S
C1802 C1803 1.387 . S
C1803 H1788 0.930 . S
C1803 C1798 1.390 . S
C1803 C1802 1.387 . S
H1804 C1816 0.930 1_455 S
H1805 C1818 0.930 . S
H1806 C1819 0.930 . S
H1807 C1823 0.959 . S
H1808 C1823 0.959 . S
H1809 C1823 0.961 . S
H1810 C1824 0.960 . S
H1811 C1824 0.961 1_455 S
H1812 C1824 0.959 . S
H1813 C1827 0.929 . S
H1814 C1828 0.931 . S
H1815 C1830 0.930 . S
C1816 H1804 0.930 1_655 S
C1816 C1817 1.399 . S
C1816 C1821 1.407 . S
C1817 C1816 1.399 . S
C1817 C1818 1.376 . S
C1818 H1805 0.930 . S
C1818 C1817 1.376 . S
C1818 C1819 1.388 . S
C1819 H1806 0.930 . S
C1819 C1818 1.388 . S
C1819 C1820 1.390 . S
C1820 C1819 1.390 . S
C1820 C1821 1.430 . S
C1820 C1826 1.465 . S
C1821 C1816 1.407 . S
C1821 C1820 1.430 . S
C1821 C1822 1.482 1_655 S
C1822 C1821 1.482 1_455 S
C1822 C1823 1.502 . S
C1822 C1824 1.561 1_455 S
C1822 C1825 1.526 . S
C1823 H1807 0.959 . S
C1823 H1808 0.959 . S
C1823 H1809 0.961 . S
C1823 C1822 1.502 . S
C1824 H1810 0.960 . S
C1824 H1811 0.961 1_655 S
C1824 H1812 0.959 . S
C1824 C1822 1.561 1_655 S
C1825 C1822 1.526 . S
C1825 C1826 1.396 1_455 S
C1825 C1830 1.390 . S
C1826 C1820 1.465 . S
C1826 C1825 1.396 1_655 S
C1826 C1827 1.399 . S
C1827 H1813 0.929 . S
C1827 C1826 1.399 . S
C1827 C1828 1.385 . S
C1828 H1814 0.931 . S
C1828 C1827 1.385 . S
C1828 C1829 1.389 1_655 S
C1829 C1828 1.389 1_455 S
C1829 C1830 1.387 . S
C1830 H1815 0.930 . S
C1830 C1825 1.390 . S
C1830 C1829 1.387 . S
H1831 C1843 0.930 . S
H1832 C1845 0.930 . S
H1833 C1846 0.930 . S
H1834 C1850 0.959 . S
H1835 C1850 0.959 . S
H1836 C1850 0.961 . S
H1837 C1851 0.960 . S
H1838 C1851 0.961 . S
H1839 C1851 0.959 . S
H1840 C1854 0.929 . S
H1841 C1855 0.931 . S
H1842 C1857 0.930 . S
C1843 H1831 0.930 . S
C1843 C1844 1.399 . S
C1843 C1848 1.399 . S
C1844 C1843 1.399 . S
C1844 C1845 1.376 . S
C1845 H1832 0.930 . S
C1845 C1844 1.376 . S
C1845 C1846 1.388 . S
C1846 H1833 0.930 . S
C1846 C1845 1.388 . S
C1846 C1847 1.390 . S
C1847 C1846 1.390 . S
C1847 C1848 1.394 . S
C1847 C1853 1.465 . S
C1848 C1843 1.399 . S
C1848 C1847 1.394 . S
C1848 C1849 1.516 . S
C1849 C1848 1.516 . S
C1849 C1850 1.502 . S
C1849 C1851 1.561 . S
C1849 C1852 1.526 . S
C1850 H1834 0.959 . S
C1850 H1835 0.959 . S
C1850 H1836 0.961 . S
C1850 C1849 1.502 . S
C1851 H1837 0.960 . S
C1851 H1838 0.961 . S
C1851 H1839 0.959 . S
C1851 C1849 1.561 . S
C1852 C1849 1.526 . S
C1852 C1853 1.396 . S
C1852 C1857 1.390 1_556 S
C1853 C1847 1.465 . S
C1853 C1852 1.396 . S
C1853 C1854 1.399 . S
C1854 H1840 0.929 . S
C1854 C1853 1.399 . S
C1854 C1855 1.385 1_556 S
C1855 H1841 0.931 . S
C1855 C1854 1.385 1_554 S
C1855 C1856 1.389 . S
C1856 C1855 1.389 . S
C1856 C1857 1.387 . S
C1857 H1842 0.930 . S
C1857 C1852 1.390 1_554 S
C1857 C1856 1.387 . S
H1858 C1870 0.930 . S
H1859 C1872 0.930 . S
H1860 C1873 0.930 . S
H1861 C1877 0.959 . S
H1862 C1877 0.959 . S
H1863 C1877 0.961 . S
H1864 C1878 0.960 . S
H1865 C1878 0.961 . S
H1866 C1878 0.959 . S
H1867 C1881 0.929 . S
H1868 C1882 0.931 . S
H1869 C1884 0.930 . S
C1870 H1858 0.930 . S
C1870 C1871 1.399 . S
C1870 C1875 1.399 . S
C1871 C1870 1.399 . S
C1871 C1872 1.376 . S
C1872 H1859 0.930 . S
C1872 C1871 1.376 . S
C1872 C1873 1.388 . S
C1873 H1860 0.930 . S
C1873 C1872 1.388 . S
C1873 C1874 1.390 . S
C1874 C1873 1.390 . S
C1874 C1875 1.394 . S
C1874 C1880 1.465 . S
C1875 C1870 1.399 . S
C1875 C1874 1.394 . S
C1875 C1876 1.516 . S
C1876 C1875 1.516 . S
C1876 C1877 1.502 . S
C1876 C1878 1.561 . S
C1876 C1879 1.526 . S
C1877 H1861 0.959 . S
C1877 H1862 0.959 . S
C1877 H1863 0.961 . S
C1877 C1876 1.502 . S
C1878 H1864 0.960 . S
C1878 H1865 0.961 . S
C1878 H1866 0.959 . S
C1878 C1876 1.561 . S
C1879 C1876 1.526 . S
C1879 C1880 1.396 . S
C1879 C1884 1.390 . S
C1880 C1874 1.465 . S
C1880 C1879 1.396 . S
C1880 C1881 1.399 . S
C1881 H1867 0.929 . S
C1881 C1880 1.399 . S
C1881 C1882 1.385 . S
C1882 H1868 0.931 . S
C1882 C1881 1.385 . S
C1882 C1883 1.389 . S
C1883 C1882 1.389 . S
C1883 C1884 1.387 . S
C1884 H1869 0.930 . S
C1884 C1879 1.390 . S
C1884 C1883 1.387 . S
H1885 C1897 0.930 . S
H1886 C1899 0.930 . S
H1887 C1900 0.930 . S
H1888 C1904 0.959 . S
H1889 C1904 0.959 . S
H1890 C1904 0.961 . S
H1891 C1905 0.960 . S
H1892 C1905 0.961 . S
H1893 C1905 0.959 . S
H1894 C1908 0.929 . S
H1895 C1909 0.931 . S
H1896 C1911 0.930 . S
C1897 H1885 0.930 . S
C1897 C1898 1.399 . S
C1897 C1902 1.399 . S
C1898 C1897 1.399 . S
C1898 C1899 1.376 . S
C1899 H1886 0.930 . S
C1899 C1898 1.376 . S
C1899 C1900 1.388 . S
C1900 H1887 0.930 . S
C1900 C1899 1.388 . S
C1900 C1901 1.390 . S
C1901 C1900 1.390 . S
C1901 C1902 1.394 . S
C1901 C1907 1.465 . S
C1902 C1897 1.399 . S
C1902 C1901 1.394 . S
C1902 C1903 1.516 . S
C1903 C1902 1.516 . S
C1903 C1904 1.502 . S
C1903 C1905 1.561 . S
C1903 C1906 1.526 . S
C1904 H1888 0.959 . S
C1904 H1889 0.959 . S
C1904 H1890 0.961 . S
C1904 C1903 1.502 . S
C1905 H1891 0.960 . S
C1905 H1892 0.961 . S
C1905 H1893 0.959 . S
C1905 C1903 1.561 . S
C1906 C1903 1.526 . S
C1906 C1907 1.396 . S
C1906 C1911 1.390 . S
C1907 C1901 1.465 . S
C1907 C1906 1.396 . S
C1907 C1908 1.399 . S
C1908 H1894 0.929 . S
C1908 C1907 1.399 . S
C1908 C1909 1.385 . S
C1909 H1895 0.931 . S
C1909 C1908 1.385 . S
C1909 C1910 1.389 . S
C1910 C1909 1.389 . S
C1910 C1911 1.387 . S
C1911 H1896 0.930 . S
C1911 C1906 1.390 . S
C1911 C1910 1.387 . S
H1912 C1924 0.930 . S
H1913 C1926 0.930 . S
H1914 C1927 0.930 . S
H1915 C1931 0.959 . S
H1916 C1931 0.959 . S
H1917 C1931 0.961 . S
H1918 C1932 0.960 . S
H1919 C1932 0.961 . S
H1920 C1932 0.959 . S
H1921 C1935 0.929 . S
H1922 C1936 0.931 . S
H1923 C1938 0.930 . S
C1924 H1912 0.930 . S
C1924 C1925 1.399 . S
C1924 C1929 1.399 . S
C1925 C1924 1.399 . S
C1925 C1926 1.376 . S
C1926 H1913 0.930 . S
C1926 C1925 1.376 . S
C1926 C1927 1.388 1_455 S
C1927 H1914 0.930 . S
C1927 C1926 1.388 1_655 S
C1927 C1928 1.397 . S
C1928 C1927 1.397 . S
C1928 C1929 1.369 1_655 S
C1928 C1934 1.483 . S
C1929 C1924 1.399 . S
C1929 C1928 1.369 1_455 S
C1929 C1930 1.516 . S
C1930 C1929 1.516 . S
C1930 C1931 1.502 . S
C1930 C1932 1.561 1_455 S
C1930 C1933 1.526 1_455 S
C1931 H1915 0.959 . S
C1931 H1916 0.959 . S
C1931 H1917 0.961 . S
C1931 C1930 1.502 . S
C1932 H1918 0.960 . S
C1932 H1919 0.961 . S
C1932 H1920 0.959 . S
C1932 C1930 1.561 1_655 S
C1933 C1930 1.526 1_655 S
C1933 C1934 1.396 . S
C1933 C1938 1.390 . S
C1934 C1928 1.483 . S
C1934 C1933 1.396 . S
C1934 C1935 1.399 . S
C1935 H1921 0.929 . S
C1935 C1934 1.399 . S
C1935 C1936 1.385 . S
C1936 H1922 0.931 . S
C1936 C1935 1.385 . S
C1936 C1937 1.389 . S
C1937 C1936 1.389 . S
C1937 C1938 1.387 . S
C1938 H1923 0.930 . S
C1938 C1933 1.390 . S
C1938 C1937 1.387 . S
H1939 C1951 0.930 . S
H1940 C1953 0.930 . S
H1941 C1954 0.930 . S
H1942 C1958 0.959 . S
H1943 C1958 0.959 . S
H1944 C1958 0.961 . S
H1945 C1959 0.960 . S
H1946 C1959 0.961 . S
H1947 C1959 0.959 . S
H1948 C1962 0.929 . S
H1949 C1963 0.931 . S
H1950 C1965 0.930 . S
C1951 H1939 0.930 . S
C1951 C1952 1.399 . S
C1951 C1956 1.399 1_554 S
C1952 C1951 1.399 . S
C1952 C1953 1.376 . S
C1953 H1940 0.930 . S
C1953 C1952 1.376 . S
C1953 C1954 1.388 1_554 S
C1954 H1941 0.930 . S
C1954 C1953 1.388 1_556 S
C1954 C1955 1.390 . S
C1955 C1954 1.390 . S
C1955 C1956 1.394 . S
C1955 C1961 1.465 . S
C1956 C1951 1.399 1_556 S
C1956 C1955 1.394 . S
C1956 C1957 1.516 . S
C1957 C1956 1.516 . S
C1957 C1958 1.502 . S
C1957 C1959 1.561 . S
C1957 C1960 1.526 . S
C1958 H1942 0.959 . S
C1958 H1943 0.959 . S
C1958 H1944 0.961 . S
C1958 C1957 1.502 . S
C1959 H1945 0.960 . S
C1959 H1946 0.961 . S
C1959 H1947 0.959 . S
C1959 C1957 1.561 . S
C1960 C1957 1.526 . S
C1960 C1961 1.396 . S
C1960 C1965 1.390 . S
C1961 C1955 1.465 . S
C1961 C1960 1.396 . S
C1961 C1962 1.399 . S
C1962 H1948 0.929 . S
C1962 C1961 1.399 . S
C1962 C1963 1.385 . S
C1963 H1949 0.931 . S
C1963 C1962 1.385 . S
C1963 C1964 1.389 . S
C1964 C1963 1.389 . S
C1964 C1965 1.387 . S
C1965 H1950 0.930 . S
C1965 C1960 1.390 . S
C1965 C1964 1.387 . S
H1966 C1978 0.930 . S
H1967 C1980 0.930 . S
H1968 C1981 0.930 . S
H1969 C1985 0.959 . S
H1970 C1985 0.959 . S
H1971 C1985 0.961 . S
H1972 C1986 0.960 . S
H1973 C1986 0.961 . S
H1974 C1986 0.959 . S
H1975 C1989 0.929 . S
H1976 C1990 0.931 . S
H1977 C1992 0.930 . S
C1978 H1966 0.930 . S
C1978 C1979 1.399 . S
C1978 C1983 1.399 . S
C1979 C1978 1.399 . S
C1979 C1980 1.376 . S
C1980 H1967 0.930 . S
C1980 C1979 1.376 . S
C1980 C1981 1.388 . S
C1981 H1968 0.930 . S
C1981 C1980 1.388 . S
C1981 C1982 1.390 . S
C1982 C1981 1.390 . S
C1982 C1983 1.394 . S
C1982 C1988 1.465 . S
C1983 C1978 1.399 . S
C1983 C1982 1.394 . S
C1983 C1984 1.516 . S
C1984 C1983 1.516 . S
C1984 C1985 1.502 . S
C1984 C1986 1.561 . S
C1984 C1987 1.526 . S
C1985 H1969 0.959 . S
C1985 H1970 0.959 . S
C1985 H1971 0.961 . S
C1985 C1984 1.502 . S
C1986 H1972 0.960 . S
C1986 H1973 0.961 . S
C1986 H1974 0.959 . S
C1986 C1984 1.561 . S
C1987 C1984 1.526 . S
C1987 C1988 1.396 . S
C1987 C1992 1.390 . S
C1988 C1982 1.465 . S
C1988 C1987 1.396 . S
C1988 C1989 1.399 . S
C1989 H1975 0.929 . S
C1989 C1988 1.399 . S
C1989 C1990 1.385 . S
C1990 H1976 0.931 . S
C1990 C1989 1.385 . S
C1990 C1991 1.389 . S
C1991 C1990 1.389 . S
C1991 C1992 1.387 . S
C1992 H1977 0.930 . S
C1992 C1987 1.390 . S
C1992 C1991 1.387 . S
H1993 C2005 0.930 . S
H1994 C2007 0.930 . S
H1995 C2008 0.930 . S
H1996 C2012 0.959 . S
H1997 C2012 0.959 . S
H1998 C2012 0.961 . S
H1999 C2013 0.960 . S
H2000 C2013 0.961 . S
H2001 C2013 0.959 . S
H2002 C2016 0.929 . S
H2003 C2017 0.931 . S
H2004 C2019 0.930 . S
C2005 H1993 0.930 . S
C2005 C2006 1.399 . S
C2005 C2010 1.399 . S
C2006 C2005 1.399 . S
C2006 C2007 1.376 . S
C2007 H1994 0.930 . S
C2007 C2006 1.376 . S
C2007 C2008 1.388 . S
C2008 H1995 0.930 . S
C2008 C2007 1.388 . S
C2008 C2009 1.390 . S
C2009 C2008 1.390 . S
C2009 C2010 1.394 . S
C2009 C2015 1.465 . S
C2010 C2005 1.399 . S
C2010 C2009 1.394 . S
C2010 C2011 1.516 . S
C2011 C2010 1.516 . S
C2011 C2012 1.502 . S
C2011 C2013 1.561 . S
C2011 C2014 1.526 . S
C2012 H1996 0.959 . S
C2012 H1997 0.959 . S
C2012 H1998 0.961 . S
C2012 C2011 1.502 . S
C2013 H1999 0.960 . S
C2013 H2000 0.961 . S
C2013 H2001 0.959 . S
C2013 C2011 1.561 . S
C2014 C2011 1.526 . S
C2014 C2015 1.396 . S
C2014 C2019 1.390 . S
C2015 C2009 1.465 . S
C2015 C2014 1.396 . S
C2015 C2016 1.399 . S
C2016 H2002 0.929 . S
C2016 C2015 1.399 . S
C2016 C2017 1.385 . S
C2017 H2003 0.931 . S
C2017 C2016 1.385 . S
C2017 C2018 1.389 . S
C2018 C2017 1.389 . S
C2018 C2019 1.387 . S
C2019 H2004 0.930 . S
C2019 C2014 1.390 . S
C2019 C2018 1.387 . S
H2020 C2032 0.930 . S
H2021 C2034 0.927 1_455 S
H2022 C2035 0.930 . S
H2023 C2039 0.959 . S
H2024 C2039 0.959 . S
H2025 C2039 0.961 . S
H2026 C2040 0.960 . S
H2027 C2040 0.961 . S
H2028 C2040 0.959 . S
H2029 C2043 0.929 . S
H2030 C2044 0.931 . S
H2031 C2046 0.930 . S
C2032 H2020 0.930 . S
C2032 C2033 1.399 . S
C2032 C2037 1.399 . S
C2033 C2032 1.399 . S
C2033 C2034 1.397 . S
C2034 H2021 0.927 1_655 S
C2034 C2033 1.397 . S
C2034 C2035 1.374 1_655 S
C2035 H2022 0.930 . S
C2035 C2034 1.374 1_455 S
C2035 C2036 1.390 . S
C2036 C2035 1.390 . S
C2036 C2037 1.394 1_455 S
C2036 C2042 1.465 . S
C2037 C2032 1.399 . S
C2037 C2036 1.394 1_655 S
C2037 C2038 1.516 . S
C2038 C2037 1.516 . S
C2038 C2039 1.502 . S
C2038 C2040 1.561 1_655 S
C2038 C2041 1.526 1_655 S
C2039 H2023 0.959 . S
C2039 H2024 0.959 . S
C2039 H2025 0.961 . S
C2039 C2038 1.502 . S
C2040 H2026 0.960 . S
C2040 H2027 0.961 . S
C2040 H2028 0.959 . S
C2040 C2038 1.561 1_455 S
C2041 C2038 1.526 1_455 S
C2041 C2042 1.396 . S
C2041 C2046 1.390 . S
C2042 C2036 1.465 . S
C2042 C2041 1.396 . S
C2042 C2043 1.399 . S
C2043 H2029 0.929 . S
C2043 C2042 1.399 . S
C2043 C2044 1.385 . S
C2044 H2030 0.931 . S
C2044 C2043 1.385 . S
C2044 C2045 1.389 . S
C2045 C2044 1.389 . S
C2045 C2046 1.387 . S
C2046 H2031 0.930 . S
C2046 C2041 1.390 . S
C2046 C2045 1.387 . S
H2047 C2059 0.930 . S
H2048 C2061 0.930 . S
H2049 C2062 0.930 . S
H2050 C2066 0.959 . S
H2051 C2066 0.959 . S
H2052 C2066 0.961 . S
H2053 C2067 0.960 . S
H2054 C2067 0.961 . S
H2055 C2067 0.959 . S
H2056 C2070 0.929 . S
H2057 C2071 0.931 . S
H2058 C2073 0.930 . S
C2059 H2047 0.930 . S
C2059 C2060 1.399 . S
C2059 C2064 1.399 . S
C2060 C2059 1.399 . S
C2060 C2061 1.376 . S
C2061 H2048 0.930 . S
C2061 C2060 1.376 . S
C2061 C2062 1.388 . S
C2062 H2049 0.930 . S
C2062 C2061 1.388 . S
C2062 C2063 1.390 . S
C2063 C2062 1.390 . S
C2063 C2064 1.394 . S
C2063 C2069 1.465 . S
C2064 C2059 1.399 . S
C2064 C2063 1.394 . S
C2064 C2065 1.516 . S
C2065 C2064 1.516 . S
C2065 C2066 1.502 . S
C2065 C2067 1.561 . S
C2065 C2068 1.526 . S
C2066 H2050 0.959 . S
C2066 H2051 0.959 . S
C2066 H2052 0.961 . S
C2066 C2065 1.502 . S
C2067 H2053 0.960 . S
C2067 H2054 0.961 . S
C2067 H2055 0.959 . S
C2067 C2065 1.561 . S
C2068 C2065 1.526 . S
C2068 C2069 1.396 . S
C2068 C2073 1.390 1_554 S
C2069 C2063 1.465 . S
C2069 C2068 1.396 . S
C2069 C2070 1.399 . S
C2070 H2056 0.929 . S
C2070 C2069 1.399 . S
C2070 C2071 1.385 1_554 S
C2071 H2057 0.931 . S
C2071 C2070 1.385 1_556 S
C2071 C2072 1.389 . S
C2072 C2071 1.389 . S
C2072 C2073 1.387 . S
C2073 H2058 0.930 . S
C2073 C2068 1.390 1_556 S
C2073 C2072 1.387 . S
H2074 C2086 0.930 . S
H2075 C2088 0.930 . S
H2076 C2089 0.930 . S
H2077 C2093 0.959 . S
H2078 C2093 0.959 . S
H2079 C2093 0.961 . S
H2080 C2094 0.960 . S
H2081 C2094 0.961 . S
H2082 C2094 0.959 . S
H2083 C2097 0.929 . S
H2084 C2098 0.931 . S
H2085 C2100 0.930 . S
C2086 H2074 0.930 . S
C2086 C2087 1.399 . S
C2086 C2091 1.399 . S
C2087 C2086 1.399 . S
C2087 C2088 1.376 . S
C2088 H2075 0.930 . S
C2088 C2087 1.376 . S
C2088 C2089 1.388 . S
C2089 H2076 0.930 . S
C2089 C2088 1.388 . S
C2089 C2090 1.390 . S
C2090 C2089 1.390 . S
C2090 C2091 1.394 . S
C2090 C2096 1.465 . S
C2091 C2086 1.399 . S
C2091 C2090 1.394 . S
C2091 C2092 1.516 . S
C2092 C2091 1.516 . S
C2092 C2093 1.502 . S
C2092 C2094 1.561 . S
C2092 C2095 1.526 . S
C2093 H2077 0.959 . S
C2093 H2078 0.959 . S
C2093 H2079 0.961 . S
C2093 C2092 1.502 . S
C2094 H2080 0.960 . S
C2094 H2081 0.961 . S
C2094 H2082 0.959 . S
C2094 C2092 1.561 . S
C2095 C2092 1.526 . S
C2095 C2096 1.396 . S
C2095 C2100 1.390 . S
C2096 C2090 1.465 . S
C2096 C2095 1.396 . S
C2096 C2097 1.399 . S
C2097 H2083 0.929 . S
C2097 C2096 1.399 . S
C2097 C2098 1.385 . S
C2098 H2084 0.931 . S
C2098 C2097 1.385 . S
C2098 C2099 1.389 . S
C2099 C2098 1.389 . S
C2099 C2100 1.387 . S
C2100 H2085 0.930 . S
C2100 C2095 1.390 . S
C2100 C2099 1.387 . S
H2101 C2113 0.930 . S
H2102 C2115 0.930 . S
H2103 C2116 0.930 . S
H2104 C2120 0.959 . S
H2105 C2120 0.959 . S
H2106 C2120 0.961 . S
H2107 C2121 0.960 . S
H2108 C2121 0.961 . S
H2109 C2121 0.959 . S
H2110 C2124 0.929 . S
H2111 C2125 0.931 . S
H2112 C2127 0.930 . S
C2113 H2101 0.930 . S
C2113 C2114 1.399 . S
C2113 C2118 1.399 . S
C2114 C2113 1.399 . S
C2114 C2115 1.376 . S
C2115 H2102 0.930 . S
C2115 C2114 1.376 . S
C2115 C2116 1.388 . S
C2116 H2103 0.930 . S
C2116 C2115 1.388 . S
C2116 C2117 1.390 . S
C2117 C2116 1.390 . S
C2117 C2118 1.394 . S
C2117 C2123 1.465 . S
C2118 C2113 1.399 . S
C2118 C2117 1.394 . S
C2118 C2119 1.516 . S
C2119 C2118 1.516 . S
C2119 C2120 1.502 . S
C2119 C2121 1.561 . S
C2119 C2122 1.526 . S
C2120 H2104 0.959 . S
C2120 H2105 0.959 . S
C2120 H2106 0.961 . S
C2120 C2119 1.502 . S
C2121 H2107 0.960 . S
C2121 H2108 0.961 . S
C2121 H2109 0.959 . S
C2121 C2119 1.561 . S
C2122 C2119 1.526 . S
C2122 C2123 1.396 . S
C2122 C2127 1.390 . S
C2123 C2117 1.465 . S
C2123 C2122 1.396 . S
C2123 C2124 1.399 . S
C2124 H2110 0.929 . S
C2124 C2123 1.399 . S
C2124 C2125 1.385 . S
C2125 H2111 0.931 . S
C2125 C2124 1.385 . S
C2125 C2126 1.389 . S
C2126 C2125 1.389 . S
C2126 C2127 1.387 . S
C2127 H2112 0.930 . S
C2127 C2122 1.390 . S
C2127 C2126 1.387 . S
H2128 C2140 0.930 . S
H2129 C2142 0.930 . S
H2130 C2143 0.930 . S
H2131 C2147 0.959 . S
H2132 C2147 0.959 . S
H2133 C2147 0.961 . S
H2134 C2148 0.960 . S
H2135 C2148 0.961 . S
H2136 C2148 0.959 . S
H2137 C2151 0.929 . S
H2138 C2152 0.931 . S
H2139 C2154 0.930 . S
C2140 H2128 0.930 . S
C2140 C2141 1.399 . S
C2140 C2145 1.399 . S
C2141 C2140 1.399 . S
C2141 C2142 1.376 . S
C2142 H2129 0.930 . S
C2142 C2141 1.376 . S
C2142 C2143 1.388 . S
C2143 H2130 0.930 . S
C2143 C2142 1.388 . S
C2143 C2144 1.390 . S
C2144 C2143 1.390 . S
C2144 C2145 1.394 . S
C2144 C2150 1.465 . S
C2145 C2140 1.399 . S
C2145 C2144 1.394 . S
C2145 C2146 1.516 . S
C2146 C2145 1.516 . S
C2146 C2147 1.502 . S
C2146 C2148 1.561 . S
C2146 C2149 1.526 . S
C2147 H2131 0.959 . S
C2147 H2132 0.959 . S
C2147 H2133 0.961 . S
C2147 C2146 1.502 . S
C2148 H2134 0.960 . S
C2148 H2135 0.961 . S
C2148 H2136 0.959 . S
C2148 C2146 1.561 . S
C2149 C2146 1.526 . S
C2149 C2150 1.396 . S
C2149 C2154 1.390 . S
C2150 C2144 1.465 . S
C2150 C2149 1.396 . S
C2150 C2151 1.399 . S
C2151 H2137 0.929 . S
C2151 C2150 1.399 . S
C2151 C2152 1.385 . S
C2152 H2138 0.931 . S
C2152 C2151 1.385 . S
C2152 C2153 1.389 . S
C2153 C2152 1.389 . S
C2153 C2154 1.387 . S
C2154 H2139 0.930 . S
C2154 C2149 1.390 . S
C2154 C2153 1.387 . S
H2155 C2167 0.930 . S
H2156 C2169 0.930 . S
H2157 C2170 0.930 . S
H2158 C2174 0.959 . S
H2159 C2174 0.959 . S
H2160 C2174 0.961 . S
H2161 C2175 0.960 . S
H2162 C2175 0.961 . S
H2163 C2175 0.959 . S
H2164 C2178 0.929 . S
H2165 C2179 0.931 . S
H2166 C2181 0.930 . S
C2167 H2155 0.930 . S
C2167 C2168 1.399 . S
C2167 C2172 1.399 . S
C2168 C2167 1.399 . S
C2168 C2169 1.376 . S
C2169 H2156 0.930 . S
C2169 C2168 1.376 . S
C2169 C2170 1.388 . S
C2170 H2157 0.930 . S
C2170 C2169 1.388 . S
C2170 C2171 1.390 . S
C2171 C2170 1.390 . S
C2171 C2172 1.394 . S
C2171 C2177 1.465 . S
C2172 C2167 1.399 . S
C2172 C2171 1.394 . S
C2172 C2173 1.516 . S
C2173 C2172 1.516 . S
C2173 C2174 1.502 . S
C2173 C2175 1.561 . S
C2173 C2176 1.526 . S
C2174 H2158 0.959 . S
C2174 H2159 0.959 . S
C2174 H2160 0.961 . S
C2174 C2173 1.502 . S
C2175 H2161 0.960 . S
C2175 H2162 0.961 . S
C2175 H2163 0.959 . S
C2175 C2173 1.561 . S
C2176 C2173 1.526 . S
C2176 C2177 1.396 . S
C2176 C2181 1.390 . S
C2177 C2171 1.465 . S
C2177 C2176 1.396 . S
C2177 C2178 1.399 . S
C2178 H2164 0.929 . S
C2178 C2177 1.399 . S
C2178 C2179 1.385 . S
C2179 H2165 0.931 . S
C2179 C2178 1.385 . S
C2179 C2180 1.389 . S
C2180 C2179 1.389 . S
C2180 C2181 1.387 . S
C2181 H2166 0.930 . S
C2181 C2176 1.390 . S
C2181 C2180 1.387 . S
H2182 C2194 0.930 . S
H2183 C2196 0.930 . S
H2184 C2197 0.930 . S
H2185 C2201 0.959 . S
H2186 C2201 0.959 . S
H2187 C2201 0.961 . S
H2188 C2202 0.960 . S
H2189 C2202 0.961 . S
H2190 C2202 0.959 . S
H2191 C2205 0.928 1_455 S
H2192 C2206 0.931 . S
H2193 C2208 0.930 . S
C2194 H2182 0.930 . S
C2194 C2195 1.399 . S
C2194 C2199 1.399 . S
C2195 C2194 1.399 . S
C2195 C2196 1.376 . S
C2196 H2183 0.930 . S
C2196 C2195 1.376 . S
C2196 C2197 1.388 . S
C2197 H2184 0.930 . S
C2197 C2196 1.388 . S
C2197 C2198 1.390 . S
C2198 C2197 1.390 . S
C2198 C2199 1.394 . S
C2198 C2204 1.465 1_455 S
C2199 C2194 1.399 . S
C2199 C2198 1.394 . S
C2199 C2200 1.516 1_455 S
C2200 C2199 1.516 1_655 S
C2200 C2201 1.502 1_655 S
C2200 C2202 1.561 . S
C2200 C2203 1.526 . S
C2201 H2185 0.959 . S
C2201 H2186 0.959 . S
C2201 H2187 0.961 . S
C2201 C2200 1.502 1_455 S
C2202 H2188 0.960 . S
C2202 H2189 0.961 . S
C2202 H2190 0.959 . S
C2202 C2200 1.561 . S
C2203 C2200 1.526 . S
C2203 C2204 1.396 . S
C2203 C2208 1.390 . S
C2204 C2198 1.465 1_655 S
C2204 C2203 1.396 . S
C2204 C2205 1.399 . S
C2205 H2191 0.928 1_655 S
C2205 C2204 1.399 . S
C2205 C2206 1.385 . S
C2206 H2192 0.931 . S
C2206 C2205 1.385 . S
C2206 C2207 1.389 . S
C2207 C2206 1.389 . S
C2207 C2208 1.387 . S
C2208 H2193 0.930 . S
C2208 C2203 1.390 . S
C2208 C2207 1.387 . S
H2209 C2221 0.930 . S
H2210 C2223 0.930 . S
H2211 C2224 0.930 . S
H2212 C2228 0.959 . S
H2213 C2228 0.959 . S
H2214 C2228 0.961 . S
H2215 C2229 0.960 . S
H2216 C2229 0.961 . S
H2217 C2229 0.959 . S
H2218 C2232 0.929 . S
H2219 C2233 0.931 . S
H2220 C2235 0.930 . S
C2221 H2209 0.930 . S
C2221 C2222 1.399 . S
C2221 C2226 1.399 . S
C2222 C2221 1.399 . S
C2222 C2223 1.376 . S
C2223 H2210 0.930 . S
C2223 C2222 1.376 . S
C2223 C2224 1.388 . S
C2224 H2211 0.930 . S
C2224 C2223 1.388 . S
C2224 C2225 1.390 . S
C2225 C2224 1.390 . S
C2225 C2226 1.394 . S
C2225 C2231 1.465 . S
C2226 C2221 1.399 . S
C2226 C2225 1.394 . S
C2226 C2227 1.516 . S
C2227 C2226 1.516 . S
C2227 C2228 1.502 . S
C2227 C2229 1.561 . S
C2227 C2230 1.526 . S
C2228 H2212 0.959 . S
C2228 H2213 0.959 . S
C2228 H2214 0.961 . S
C2228 C2227 1.502 . S
C2229 H2215 0.960 . S
C2229 H2216 0.961 . S
C2229 H2217 0.959 . S
C2229 C2227 1.561 . S
C2230 C2227 1.526 . S
C2230 C2231 1.396 . S
C2230 C2235 1.390 1_554 S
C2231 C2225 1.465 . S
C2231 C2230 1.396 . S
C2231 C2232 1.399 . S
C2232 H2218 0.929 . S
C2232 C2231 1.399 . S
C2232 C2233 1.385 1_554 S
C2233 H2219 0.931 . S
C2233 C2232 1.385 1_556 S
C2233 C2234 1.389 . S
C2234 C2233 1.389 . S
C2234 C2235 1.387 . S
C2235 H2220 0.930 . S
C2235 C2230 1.390 1_556 S
C2235 C2234 1.387 . S
H2236 C2248 0.930 . S
H2237 C2250 0.930 . S
H2238 C2251 0.930 . S
H2239 C2255 0.959 . S
H2240 C2255 0.959 . S
H2241 C2255 0.961 . S
H2242 C2256 0.960 . S
H2243 C2256 0.961 . S
H2244 C2256 0.959 . S
H2245 C2259 0.929 . S
H2246 C2260 0.931 . S
H2247 C2262 0.930 . S
C2248 H2236 0.930 . S
C2248 C2249 1.399 . S
C2248 C2253 1.399 . S
C2249 C2248 1.399 . S
C2249 C2250 1.376 . S
C2250 H2237 0.930 . S
C2250 C2249 1.376 . S
C2250 C2251 1.388 . S
C2251 H2238 0.930 . S
C2251 C2250 1.388 . S
C2251 C2252 1.390 . S
C2252 C2251 1.390 . S
C2252 C2253 1.394 . S
C2252 C2258 1.465 . S
C2253 C2248 1.399 . S
C2253 C2252 1.394 . S
C2253 C2254 1.516 . S
C2254 C2253 1.516 . S
C2254 C2255 1.502 . S
C2254 C2256 1.561 . S
C2254 C2257 1.526 . S
C2255 H2239 0.959 . S
C2255 H2240 0.959 . S
C2255 H2241 0.961 . S
C2255 C2254 1.502 . S
C2256 H2242 0.960 . S
C2256 H2243 0.961 . S
C2256 H2244 0.959 . S
C2256 C2254 1.561 . S
C2257 C2254 1.526 . S
C2257 C2258 1.396 . S
C2257 C2262 1.390 . S
C2258 C2252 1.465 . S
C2258 C2257 1.396 . S
C2258 C2259 1.399 . S
C2259 H2245 0.929 . S
C2259 C2258 1.399 . S
C2259 C2260 1.385 . S
C2260 H2246 0.931 . S
C2260 C2259 1.385 . S
C2260 C2261 1.389 . S
C2261 C2260 1.389 . S
C2261 C2262 1.387 . S
C2262 H2247 0.930 . S
C2262 C2257 1.390 . S
C2262 C2261 1.387 . S
H2263 C2275 0.930 . S
H2264 C2277 0.930 . S
H2265 C2278 0.930 . S
H2266 C2282 0.959 . S
H2267 C2282 0.959 . S
H2268 C2282 0.961 . S
H2269 C2283 0.960 . S
H2270 C2283 0.961 . S
H2271 C2283 0.959 . S
H2272 C2286 0.929 . S
H2273 C2287 0.931 . S
H2274 C2289 0.930 . S
C2275 H2263 0.930 . S
C2275 C2276 1.399 . S
C2275 C2280 1.399 . S
C2276 C2275 1.399 . S
C2276 C2277 1.376 . S
C2277 H2264 0.930 . S
C2277 C2276 1.376 . S
C2277 C2278 1.388 . S
C2278 H2265 0.930 . S
C2278 C2277 1.388 . S
C2278 C2279 1.390 . S
C2279 C2278 1.390 . S
C2279 C2280 1.394 . S
C2279 C2285 1.465 . S
C2280 C2275 1.399 . S
C2280 C2279 1.394 . S
C2280 C2281 1.516 . S
C2281 C2280 1.516 . S
C2281 C2282 1.502 . S
C2281 C2283 1.561 . S
C2281 C2284 1.526 . S
C2282 H2266 0.959 . S
C2282 H2267 0.959 . S
C2282 H2268 0.961 . S
C2282 C2281 1.502 . S
C2283 H2269 0.960 . S
C2283 H2270 0.961 . S
C2283 H2271 0.959 . S
C2283 C2281 1.561 . S
C2284 C2281 1.526 . S
C2284 C2285 1.396 . S
C2284 C2289 1.390 . S
C2285 C2279 1.465 . S
C2285 C2284 1.396 . S
C2285 C2286 1.399 . S
C2286 H2272 0.929 . S
C2286 C2285 1.399 . S
C2286 C2287 1.385 . S
C2287 H2273 0.931 . S
C2287 C2286 1.385 . S
C2287 C2288 1.389 . S
C2288 C2287 1.389 . S
C2288 C2289 1.387 . S
C2289 H2274 0.930 . S
C2289 C2284 1.390 . S
C2289 C2288 1.387 . S
H2290 C2302 0.930 . S
H2291 C2304 0.930 . S
H2292 C2305 0.930 . S
H2293 C2309 0.959 . S
H2294 C2309 0.959 . S
H2295 C2309 0.961 . S
H2296 C2310 0.960 . S
H2297 C2310 0.961 . S
H2298 C2310 0.959 . S
H2299 C2313 0.929 . S
H2300 C2314 0.931 . S
H2301 C2316 0.930 . S
C2302 H2290 0.930 . S
C2302 C2303 1.399 . S
C2302 C2307 1.399 . S
C2303 C2302 1.399 . S
C2303 C2304 1.376 . S
C2304 H2291 0.930 . S
C2304 C2303 1.376 . S
C2304 C2305 1.388 1_455 S
C2305 H2292 0.930 . S
C2305 C2304 1.388 1_655 S
C2305 C2306 1.395 . S
C2306 C2305 1.395 . S
C2306 C2307 1.373 1_655 S
C2306 C2312 1.480 . S
C2307 C2302 1.399 . S
C2307 C2306 1.373 1_455 S
C2307 C2308 1.516 . S
C2308 C2307 1.516 . S
C2308 C2309 1.502 . S
C2308 C2310 1.561 1_455 S
C2308 C2311 1.526 1_455 S
C2309 H2293 0.959 . S
C2309 H2294 0.959 . S
C2309 H2295 0.961 . S
C2309 C2308 1.502 . S
C2310 H2296 0.960 . S
C2310 H2297 0.961 . S
C2310 H2298 0.959 . S
C2310 C2308 1.561 1_655 S
C2311 C2308 1.526 1_655 S
C2311 C2312 1.396 . S
C2311 C2316 1.390 . S
C2312 C2306 1.480 . S
C2312 C2311 1.396 . S
C2312 C2313 1.399 . S
C2313 H2299 0.929 . S
C2313 C2312 1.399 . S
C2313 C2314 1.385 . S
C2314 H2300 0.931 . S
C2314 C2313 1.385 . S
C2314 C2315 1.389 . S
C2315 C2314 1.389 . S
C2315 C2316 1.387 . S
C2316 H2301 0.930 . S
C2316 C2311 1.390 . S
C2316 C2315 1.387 . S
H2317 C2329 0.930 . S
H2318 C2331 0.930 . S
H2319 C2332 0.930 . S
H2320 C2336 0.959 . S
H2321 C2336 0.959 . S
H2322 C2336 0.961 . S
H2323 C2337 0.960 . S
H2324 C2337 0.961 . S
H2325 C2337 0.959 . S
H2326 C2340 0.929 . S
H2327 C2341 0.931 . S
H2328 C2343 0.930 . S
C2329 H2317 0.930 . S
C2329 C2330 1.399 . S
C2329 C2334 1.399 1_554 S
C2330 C2329 1.399 . S
C2330 C2331 1.376 . S
C2331 H2318 0.930 . S
C2331 C2330 1.376 . S
C2331 C2332 1.388 1_554 S
C2332 H2319 0.930 . S
C2332 C2331 1.388 1_556 S
C2332 C2333 1.390 . S
C2333 C2332 1.390 . S
C2333 C2334 1.394 . S
C2333 C2339 1.465 . S
C2334 C2329 1.399 1_556 S
C2334 C2333 1.394 . S
C2334 C2335 1.516 . S
C2335 C2334 1.516 . S
C2335 C2336 1.502 . S
C2335 C2337 1.561 . S
C2335 C2338 1.526 . S
C2336 H2320 0.959 . S
C2336 H2321 0.959 . S
C2336 H2322 0.961 . S
C2336 C2335 1.502 . S
C2337 H2323 0.960 . S
C2337 H2324 0.961 . S
C2337 H2325 0.959 . S
C2337 C2335 1.561 . S
C2338 C2335 1.526 . S
C2338 C2339 1.396 . S
C2338 C2343 1.390 . S
C2339 C2333 1.465 . S
C2339 C2338 1.396 . S
C2339 C2340 1.399 . S
C2340 H2326 0.929 . S
C2340 C2339 1.399 . S
C2340 C2341 1.385 . S
C2341 H2327 0.931 . S
C2341 C2340 1.385 . S
C2341 C2342 1.389 . S
C2342 C2341 1.389 . S
C2342 C2343 1.387 . S
C2343 H2328 0.930 . S
C2343 C2338 1.390 . S
C2343 C2342 1.387 . S
H2344 C2356 0.930 . S
H2345 C2358 0.930 . S
H2346 C2359 0.930 . S
H2347 C2363 0.959 . S
H2348 C2363 0.959 . S
H2349 C2363 0.961 . S
H2350 C2364 0.960 . S
H2351 C2364 0.961 . S
H2352 C2364 0.959 . S
H2353 C2367 0.929 . S
H2354 C2368 0.931 . S
H2355 C2370 0.930 . S
C2356 H2344 0.930 . S
C2356 C2357 1.399 . S
C2356 C2361 1.399 . S
C2357 C2356 1.399 . S
C2357 C2358 1.376 . S
C2358 H2345 0.930 . S
C2358 C2357 1.376 . S
C2358 C2359 1.388 . S
C2359 H2346 0.930 . S
C2359 C2358 1.388 . S
C2359 C2360 1.390 . S
C2360 C2359 1.390 . S
C2360 C2361 1.394 . S
C2360 C2366 1.465 . S
C2361 C2356 1.399 . S
C2361 C2360 1.394 . S
C2361 C2362 1.516 . S
C2362 C2361 1.516 . S
C2362 C2363 1.502 . S
C2362 C2364 1.561 . S
C2362 C2365 1.526 . S
C2363 H2347 0.959 . S
C2363 H2348 0.959 . S
C2363 H2349 0.961 . S
C2363 C2362 1.502 . S
C2364 H2350 0.960 . S
C2364 H2351 0.961 . S
C2364 H2352 0.959 . S
C2364 C2362 1.561 . S
C2365 C2362 1.526 . S
C2365 C2366 1.396 . S
C2365 C2370 1.390 . S
C2366 C2360 1.465 . S
C2366 C2365 1.396 . S
C2366 C2367 1.399 . S
C2367 H2353 0.929 . S
C2367 C2366 1.399 . S
C2367 C2368 1.385 . S
C2368 H2354 0.931 . S
C2368 C2367 1.385 . S
C2368 C2369 1.389 . S
C2369 C2368 1.389 . S
C2369 C2370 1.387 . S
C2370 H2355 0.930 . S
C2370 C2365 1.390 . S
C2370 C2369 1.387 . S
H2371 C2383 0.930 . S
H2372 C2385 0.930 . S
H2373 C2386 0.930 . S
H2374 C2390 0.959 . S
H2375 C2390 0.959 . S
H2376 C2390 0.961 . S
H2377 C2391 0.960 . S
H2378 C2391 0.961 . S
H2379 C2391 0.959 . S
H2380 C2394 0.929 . S
H2381 C2395 0.931 . S
H2382 C2397 0.930 . S
C2383 H2371 0.930 . S
C2383 C2384 1.399 . S
C2383 C2388 1.399 . S
C2384 C2383 1.399 . S
C2384 C2385 1.376 . S
C2385 H2372 0.930 . S
C2385 C2384 1.376 . S
C2385 C2386 1.388 . S
C2386 H2373 0.930 . S
C2386 C2385 1.388 . S
C2386 C2387 1.390 . S
C2387 C2386 1.390 . S
C2387 C2388 1.394 . S
C2387 C2393 1.465 . S
C2388 C2383 1.399 . S
C2388 C2387 1.394 . S
C2388 C2389 1.516 . S
C2389 C2388 1.516 . S
C2389 C2390 1.502 . S
C2389 C2391 1.561 . S
C2389 C2392 1.526 . S
C2390 H2374 0.959 . S
C2390 H2375 0.959 . S
C2390 H2376 0.961 . S
C2390 C2389 1.502 . S
C2391 H2377 0.960 . S
C2391 H2378 0.961 . S
C2391 H2379 0.959 . S
C2391 C2389 1.561 . S
C2392 C2389 1.526 . S
C2392 C2393 1.396 . S
C2392 C2397 1.390 . S
C2393 C2387 1.465 . S
C2393 C2392 1.396 . S
C2393 C2394 1.399 . S
C2394 H2380 0.929 . S
C2394 C2393 1.399 . S
C2394 C2395 1.385 . S
C2395 H2381 0.931 . S
C2395 C2394 1.385 . S
C2395 C2396 1.389 . S
C2396 C2395 1.389 . S
C2396 C2397 1.387 . S
C2397 H2382 0.930 . S
C2397 C2392 1.390 . S
C2397 C2396 1.387 . S
H2398 C2410 0.912 1_655 S
H2399 C2412 0.930 . S
H2400 C2413 0.930 . S
H2401 C2417 0.959 . S
H2402 C2417 0.959 . S
H2403 C2417 0.961 . S
H2404 C2418 0.960 . S
H2405 C2418 0.961 . S
H2406 C2418 0.959 . S
H2407 C2421 0.929 . S
H2408 C2422 0.941 . S
H2409 C2424 0.930 . S
C2410 H2398 0.912 1_455 S
C2410 C2411 1.399 . S
C2410 C2415 1.406 . S
C2411 C2410 1.399 . S
C2411 C2412 1.376 . S
C2412 H2399 0.930 . S
C2412 C2411 1.376 . S
C2412 C2413 1.388 . S
C2413 H2400 0.930 . S
C2413 C2412 1.388 . S
C2413 C2414 1.390 . S
C2414 C2413 1.390 . S
C2414 C2415 1.410 . S
C2414 C2420 1.465 . S
C2415 C2410 1.406 . S
C2415 C2414 1.410 . S
C2415 C2416 1.498 1_455 S
C2416 C2415 1.498 1_655 S
C2416 C2417 1.502 . S
C2416 C2418 1.561 1_655 S
C2416 C2419 1.526 . S
C2417 H2401 0.959 . S
C2417 H2402 0.959 . S
C2417 H2403 0.961 . S
C2417 C2416 1.502 . S
C2418 H2404 0.960 . S
C2418 H2405 0.961 . S
C2418 H2406 0.959 . S
C2418 C2416 1.561 1_455 S
C2419 C2416 1.526 . S
C2419 C2420 1.396 1_655 S
C2419 C2424 1.390 . S
C2420 C2414 1.465 . S
C2420 C2419 1.396 1_455 S
C2420 C2421 1.399 . S
C2421 H2407 0.929 . S
C2421 C2420 1.399 . S
C2421 C2422 1.385 1_455 S
C2422 H2408 0.941 . S
C2422 C2421 1.385 1_655 S
C2422 C2423 1.389 . S
C2423 C2422 1.389 . S
C2423 C2424 1.387 . S
C2424 H2409 0.930 . S
C2424 C2419 1.390 . S
C2424 C2423 1.387 . S
H2425 C2437 0.930 . S
H2426 C2439 0.930 . S
H2427 C2440 0.930 . S
H2428 C2444 0.959 . S
H2429 C2444 0.959 . S
H2430 C2444 0.961 . S
H2431 C2445 0.960 . S
H2432 C2445 0.961 . S
H2433 C2445 0.959 . S
H2434 C2448 0.929 . S
H2435 C2449 0.931 . S
H2436 C2451 0.930 . S
C2437 H2425 0.930 . S
C2437 C2438 1.399 . S
C2437 C2442 1.399 . S
C2438 C2437 1.399 . S
C2438 C2439 1.376 . S
C2439 H2426 0.930 . S
C2439 C2438 1.376 . S
C2439 C2440 1.388 . S
C2440 H2427 0.930 . S
C2440 C2439 1.388 . S
C2440 C2441 1.390 . S
C2441 C2440 1.390 . S
C2441 C2442 1.394 . S
C2441 C2447 1.465 . S
C2442 C2437 1.399 . S
C2442 C2441 1.394 . S
C2442 C2443 1.516 . S
C2443 C2442 1.516 . S
C2443 C2444 1.502 . S
C2443 C2445 1.561 . S
C2443 C2446 1.526 . S
C2444 H2428 0.959 . S
C2444 H2429 0.959 . S
C2444 H2430 0.961 . S
C2444 C2443 1.502 . S
C2445 H2431 0.960 . S
C2445 H2432 0.961 . S
C2445 H2433 0.959 . S
C2445 C2443 1.561 . S
C2446 C2443 1.526 . S
C2446 C2447 1.396 . S
C2446 C2451 1.390 1_556 S
C2447 C2441 1.465 . S
C2447 C2446 1.396 . S
C2447 C2448 1.399 . S
C2448 H2434 0.929 . S
C2448 C2447 1.399 . S
C2448 C2449 1.385 1_556 S
C2449 H2435 0.931 . S
C2449 C2448 1.385 1_554 S
C2449 C2450 1.389 . S
C2450 C2449 1.389 . S
C2450 C2451 1.387 . S
C2451 H2436 0.930 . S
C2451 C2446 1.390 1_554 S
C2451 C2450 1.387 . S
H2452 C2464 0.930 . S
H2453 C2466 0.930 . S
H2454 C2467 0.930 . S
H2455 C2471 0.959 . S
H2456 C2471 0.959 . S
H2457 C2471 0.961 . S
H2458 C2472 0.960 . S
H2459 C2472 0.961 . S
H2460 C2472 0.959 . S
H2461 C2475 0.929 . S
H2462 C2476 0.931 . S
H2463 C2478 0.930 . S
C2464 H2452 0.930 . S
C2464 C2465 1.399 . S
C2464 C2469 1.399 . S
C2465 C2464 1.399 . S
C2465 C2466 1.376 . S
C2466 H2453 0.930 . S
C2466 C2465 1.376 . S
C2466 C2467 1.388 . S
C2467 H2454 0.930 . S
C2467 C2466 1.388 . S
C2467 C2468 1.390 . S
C2468 C2467 1.390 . S
C2468 C2469 1.394 . S
C2468 C2474 1.465 . S
C2469 C2464 1.399 . S
C2469 C2468 1.394 . S
C2469 C2470 1.516 . S
C2470 C2469 1.516 . S
C2470 C2471 1.502 . S
C2470 C2472 1.561 . S
C2470 C2473 1.526 . S
C2471 H2455 0.959 . S
C2471 H2456 0.959 . S
C2471 H2457 0.961 . S
C2471 C2470 1.502 . S
C2472 H2458 0.960 . S
C2472 H2459 0.961 . S
C2472 H2460 0.959 . S
C2472 C2470 1.561 . S
C2473 C2470 1.526 . S
C2473 C2474 1.396 . S
C2473 C2478 1.390 . S
C2474 C2468 1.465 . S
C2474 C2473 1.396 . S
C2474 C2475 1.399 . S
C2475 H2461 0.929 . S
C2475 C2474 1.399 . S
C2475 C2476 1.385 . S
C2476 H2462 0.931 . S
C2476 C2475 1.385 . S
C2476 C2477 1.389 . S
C2477 C2476 1.389 . S
C2477 C2478 1.387 . S
C2478 H2463 0.930 . S
C2478 C2473 1.390 . S
C2478 C2477 1.387 . S
H2479 C2491 0.930 . S
H2480 C2493 0.930 . S
H2481 C2494 0.930 . S
H2482 C2498 0.959 . S
H2483 C2498 0.959 . S
H2484 C2498 0.961 . S
H2485 C2499 0.960 . S
H2486 C2499 0.961 . S
H2487 C2499 0.959 . S
H2488 C2502 0.929 . S
H2489 C2503 0.931 . S
H2490 C2505 0.930 . S
C2491 H2479 0.930 . S
C2491 C2492 1.399 . S
C2491 C2496 1.399 . S
C2492 C2491 1.399 . S
C2492 C2493 1.376 . S
C2493 H2480 0.930 . S
C2493 C2492 1.376 . S
C2493 C2494 1.388 . S
C2494 H2481 0.930 . S
C2494 C2493 1.388 . S
C2494 C2495 1.390 . S
C2495 C2494 1.390 . S
C2495 C2496 1.394 . S
C2495 C2501 1.465 . S
C2496 C2491 1.399 . S
C2496 C2495 1.394 . S
C2496 C2497 1.516 . S
C2497 C2496 1.516 . S
C2497 C2498 1.502 . S
C2497 C2499 1.561 . S
C2497 C2500 1.526 . S
C2498 H2482 0.959 . S
C2498 H2483 0.959 . S
C2498 H2484 0.961 . S
C2498 C2497 1.502 . S
C2499 H2485 0.960 . S
C2499 H2486 0.961 . S
C2499 H2487 0.959 . S
C2499 C2497 1.561 . S
C2500 C2497 1.526 . S
C2500 C2501 1.396 . S
C2500 C2505 1.390 . S
C2501 C2495 1.465 . S
C2501 C2500 1.396 . S
C2501 C2502 1.399 . S
C2502 H2488 0.929 . S
C2502 C2501 1.399 . S
C2502 C2503 1.385 . S
C2503 H2489 0.931 . S
C2503 C2502 1.385 . S
C2503 C2504 1.389 . S
C2504 C2503 1.389 . S
C2504 C2505 1.387 . S
C2505 H2490 0.930 . S
C2505 C2500 1.390 . S
C2505 C2504 1.387 . S
H2506 C2518 0.930 . S
H2507 C2520 0.930 . S
H2508 C2521 0.930 . S
H2509 C2525 0.959 . S
H2510 C2525 0.959 . S
H2511 C2525 0.961 . S
H2512 C2526 0.960 . S
H2513 C2526 0.961 . S
H2514 C2526 0.959 . S
H2515 C2529 0.929 . S
H2516 C2530 0.934 . S
H2517 C2532 0.930 . S
C2518 H2506 0.930 . S
C2518 C2519 1.399 . S
C2518 C2523 1.399 . S
C2519 C2518 1.399 . S
C2519 C2520 1.376 . S
C2520 H2507 0.930 . S
C2520 C2519 1.376 . S
C2520 C2521 1.388 . S
C2521 H2508 0.930 . S
C2521 C2520 1.388 . S
C2521 C2522 1.390 . S
C2522 C2521 1.390 . S
C2522 C2523 1.394 . S
C2522 C2528 1.465 . S
C2523 C2518 1.399 . S
C2523 C2522 1.394 . S
C2523 C2524 1.516 1_655 S
C2524 C2523 1.516 1_455 S
C2524 C2525 1.502 . S
C2524 C2526 1.561 1_455 S
C2524 C2527 1.526 . S
C2525 H2509 0.959 . S
C2525 H2510 0.959 . S
C2525 H2511 0.961 . S
C2525 C2524 1.502 . S
C2526 H2512 0.960 . S
C2526 H2513 0.961 . S
C2526 H2514 0.959 . S
C2526 C2524 1.561 1_655 S
C2527 C2524 1.526 . S
C2527 C2528 1.396 1_455 S
C2527 C2532 1.390 . S
C2528 C2522 1.465 . S
C2528 C2527 1.396 1_655 S
C2528 C2529 1.399 . S
C2529 H2515 0.929 . S
C2529 C2528 1.399 . S
C2529 C2530 1.385 1_655 S
C2530 H2516 0.934 . S
C2530 C2529 1.385 1_455 S
C2530 C2531 1.389 . S
C2531 C2530 1.389 . S
C2531 C2532 1.387 . S
C2532 H2517 0.930 . S
C2532 C2527 1.390 . S
C2532 C2531 1.387 . S
H2533 C2545 0.930 . S
H2534 C2547 0.930 . S
H2535 C2548 0.930 . S
H2536 C2552 0.959 . S
H2537 C2552 0.959 . S
H2538 C2552 0.961 . S
H2539 C2553 0.960 . S
H2540 C2553 0.961 . S
H2541 C2553 0.959 . S
H2542 C2556 0.929 . S
H2543 C2557 0.931 . S
H2544 C2559 0.930 . S
C2545 H2533 0.930 . S
C2545 C2546 1.399 . S
C2545 C2550 1.399 . S
C2546 C2545 1.399 . S
C2546 C2547 1.376 . S
C2547 H2534 0.930 . S
C2547 C2546 1.376 . S
C2547 C2548 1.388 . S
C2548 H2535 0.930 . S
C2548 C2547 1.388 . S
C2548 C2549 1.390 . S
C2549 C2548 1.390 . S
C2549 C2550 1.394 . S
C2549 C2555 1.465 . S
C2550 C2545 1.399 . S
C2550 C2549 1.394 . S
C2550 C2551 1.516 . S
C2551 C2550 1.516 . S
C2551 C2552 1.502 . S
C2551 C2553 1.561 . S
C2551 C2554 1.526 . S
C2552 H2536 0.959 . S
C2552 H2537 0.959 . S
C2552 H2538 0.961 . S
C2552 C2551 1.502 . S
C2553 H2539 0.960 . S
C2553 H2540 0.961 . S
C2553 H2541 0.959 . S
C2553 C2551 1.561 . S
C2554 C2551 1.526 . S
C2554 C2555 1.396 . S
C2554 C2559 1.390 1_554 S
C2555 C2549 1.465 . S
C2555 C2554 1.396 . S
C2555 C2556 1.399 . S
C2556 H2542 0.929 . S
C2556 C2555 1.399 . S
C2556 C2557 1.385 1_554 S
C2557 H2543 0.931 . S
C2557 C2556 1.385 1_556 S
C2557 C2558 1.389 . S
C2558 C2557 1.389 . S
C2558 C2559 1.387 . S
C2559 H2544 0.930 . S
C2559 C2554 1.390 1_556 S
C2559 C2558 1.387 . S
H2560 C2572 0.930 . S
H2561 C2574 0.930 . S
H2562 C2575 0.930 . S
H2563 C2579 0.959 1_565 S
H2564 C2579 0.959 1_565 S
H2565 C2579 0.961 . S
H2566 C2580 0.960 . S
H2567 C2580 0.961 . S
H2568 C2580 0.959 . S
H2569 C2583 0.929 . S
H2570 C2584 0.931 . S
H2571 C2586 0.930 . S
C2572 H2560 0.930 . S
C2572 C2573 1.399 1_556 S
C2572 C2577 1.399 . S
C2573 C2572 1.399 1_554 S
C2573 C2574 1.376 . S
C2574 H2561 0.930 . S
C2574 C2573 1.376 . S
C2574 C2575 1.388 . S
C2575 H2562 0.930 . S
C2575 C2574 1.388 . S
C2575 C2576 1.390 . S
C2576 C2575 1.390 . S
C2576 C2577 1.394 1_554 S
C2576 C2582 1.465 1_645 S
C2577 C2572 1.399 . S
C2577 C2576 1.394 1_556 S
C2577 C2578 1.516 1_655 S
C2578 C2577 1.516 1_455 S
C2578 C2579 1.502 1_455 S
C2578 C2580 1.561 . S
C2578 C2581 1.526 1_545 S
C2579 H2563 0.959 1_545 S
C2579 H2564 0.959 1_545 S
C2579 H2565 0.961 . S
C2579 C2578 1.502 1_655 S
C2580 H2566 0.960 . S
C2580 H2567 0.961 . S
C2580 H2568 0.959 . S
C2580 C2578 1.561 . S
C2581 C2578 1.526 1_565 S
C2581 C2582 1.396 1_556 S
C2581 C2586 1.390 . S
C2582 C2576 1.465 1_465 S
C2582 C2581 1.396 1_554 S
C2582 C2583 1.399 . S
C2583 H2569 0.929 . S
C2583 C2582 1.399 . S
C2583 C2584 1.385 . S
C2584 H2570 0.931 . S
C2584 C2583 1.385 . S
C2584 C2585 1.389 1_554 S
C2585 C2584 1.389 1_556 S
C2585 C2586 1.387 . S
C2586 H2571 0.930 . S
C2586 C2581 1.390 . S
C2586 C2585 1.387 . S
H2587 C2599 0.930 . S
H2588 C2601 0.930 . S
H2589 C2602 0.930 . S
H2590 C2606 0.959 . S
H2591 C2606 0.959 . S
H2592 C2606 0.961 . S
H2593 C2607 0.960 . S
H2594 C2607 0.961 . S
H2595 C2607 0.959 . S
H2596 C2610 0.929 . S
H2597 C2611 0.931 . S
H2598 C2613 0.930 . S
C2599 H2587 0.930 . S
C2599 C2600 1.399 . S
C2599 C2604 1.399 . S
C2600 C2599 1.399 . S
C2600 C2601 1.376 . S
C2601 H2588 0.930 . S
C2601 C2600 1.376 . S
C2601 C2602 1.388 . S
C2602 H2589 0.930 . S
C2602 C2601 1.388 . S
C2602 C2603 1.390 . S
C2603 C2602 1.390 . S
C2603 C2604 1.394 . S
C2603 C2609 1.465 . S
C2604 C2599 1.399 . S
C2604 C2603 1.394 . S
C2604 C2605 1.516 . S
C2605 C2604 1.516 . S
C2605 C2606 1.502 . S
C2605 C2607 1.561 . S
C2605 C2608 1.526 . S
C2606 H2590 0.959 . S
C2606 H2591 0.959 . S
C2606 H2592 0.961 . S
C2606 C2605 1.502 . S
C2607 H2593 0.960 . S
C2607 H2594 0.961 . S
C2607 H2595 0.959 . S
C2607 C2605 1.561 . S
C2608 C2605 1.526 . S
C2608 C2609 1.396 . S
C2608 C2613 1.390 . S
C2609 C2603 1.465 . S
C2609 C2608 1.396 . S
C2609 C2610 1.399 . S
C2610 H2596 0.929 . S
C2610 C2609 1.399 . S
C2610 C2611 1.385 . S
C2611 H2597 0.931 . S
C2611 C2610 1.385 . S
C2611 C2612 1.389 . S
C2612 C2611 1.389 . S
C2612 C2613 1.387 . S
C2613 H2598 0.930 . S
C2613 C2608 1.390 . S
C2613 C2612 1.387 . S
H2614 C2626 0.930 . S
H2615 C2628 0.930 . S
H2616 C2629 0.930 . S
H2617 C2633 0.959 . S
H2618 C2633 1.014 . S
H2619 C2633 0.961 . S
H2620 C2634 0.960 . S
H2621 C2634 0.961 1_565 S
H2622 C2634 0.959 1_565 S
H2623 C2637 0.929 . S
H2624 C2638 0.931 . S
H2625 C2640 0.930 . S
C2626 H2614 0.930 . S
C2626 C2627 1.399 . S
C2626 C2631 1.399 . S
C2627 C2626 1.399 . S
C2627 C2628 1.376 . S
C2628 H2615 0.930 . S
C2628 C2627 1.376 . S
C2628 C2629 1.388 . S
C2629 H2616 0.930 . S
C2629 C2628 1.388 . S
C2629 C2630 1.390 . S
C2630 C2629 1.390 . S
C2630 C2631 1.394 . S
C2630 C2636 1.465 1_545 S
C2631 C2626 1.399 . S
C2631 C2630 1.394 . S
C2631 C2632 1.516 . S
C2632 C2631 1.516 . S
C2632 C2633 1.502 . S
C2632 C2634 1.561 . S
C2632 C2635 1.526 1_545 S
C2633 H2617 0.959 . S
C2633 H2618 1.014 . S
C2633 H2619 0.961 . S
C2633 C2632 1.502 . S
C2634 H2620 0.960 . S
C2634 H2621 0.961 1_545 S
C2634 H2622 0.959 1_545 S
C2634 C2632 1.561 . S
C2635 C2632 1.526 1_565 S
C2635 C2636 1.396 . S
C2635 C2640 1.390 . S
C2636 C2630 1.465 1_565 S
C2636 C2635 1.396 . S
C2636 C2637 1.399 . S
C2637 H2623 0.929 . S
C2637 C2636 1.399 . S
C2637 C2638 1.385 . S
C2638 H2624 0.931 . S
C2638 C2637 1.385 . S
C2638 C2639 1.389 . S
C2639 C2638 1.389 . S
C2639 C2640 1.387 . S
C2640 H2625 0.930 . S
C2640 C2635 1.390 . S
C2640 C2639 1.387 . S
H2641 C2653 0.930 . S
H2642 C2655 0.930 . S
H2643 C2656 0.930 . S
H2644 C2660 0.959 . S
H2645 C2660 0.959 . S
H2646 C2660 0.961 . S
H2647 C2661 0.960 . S
H2648 C2661 0.961 . S
H2649 C2661 0.959 . S
H2650 C2664 0.929 . S
H2651 C2665 0.931 . S
H2652 C2667 0.930 . S
C2653 H2641 0.930 . S
C2653 C2654 1.399 . S
C2653 C2658 1.399 . S
C2654 C2653 1.399 . S
C2654 C2655 1.376 . S
C2655 H2642 0.930 . S
C2655 C2654 1.376 . S
C2655 C2656 1.388 . S
C2656 H2643 0.930 . S
C2656 C2655 1.388 . S
C2656 C2657 1.390 . S
C2657 C2656 1.390 . S
C2657 C2658 1.394 . S
C2657 C2663 1.465 . S
C2658 C2653 1.399 . S
C2658 C2657 1.394 . S
C2658 C2659 1.516 . S
C2659 C2658 1.516 . S
C2659 C2660 1.502 . S
C2659 C2661 1.561 . S
C2659 C2662 1.526 . S
C2660 H2644 0.959 . S
C2660 H2645 0.959 . S
C2660 H2646 0.961 . S
C2660 C2659 1.502 . S
C2661 H2647 0.960 . S
C2661 H2648 0.961 . S
C2661 H2649 0.959 . S
C2661 C2659 1.561 . S
C2662 C2659 1.526 . S
C2662 C2663 1.396 . S
C2662 C2667 1.390 . S
C2663 C2657 1.465 . S
C2663 C2662 1.396 . S
C2663 C2664 1.399 . S
C2664 H2650 0.929 . S
C2664 C2663 1.399 . S
C2664 C2665 1.385 . S
C2665 H2651 0.931 . S
C2665 C2664 1.385 . S
C2665 C2666 1.389 . S
C2666 C2665 1.389 . S
C2666 C2667 1.387 . S
C2667 H2652 0.930 . S
C2667 C2662 1.390 . S
C2667 C2666 1.387 . S
H2668 C2680 0.930 . S
H2669 C2682 0.930 . S
H2670 C2683 0.930 . S
H2671 C2687 0.959 . S
H2672 C2687 0.959 1_545 S
H2673 C2687 0.961 . S
H2674 C2688 0.960 1_565 S
H2675 C2688 0.961 . S
H2676 C2688 0.959 . S
H2677 C2691 0.929 . S
H2678 C2692 0.931 . S
H2679 C2694 0.930 . S
C2680 H2668 0.930 . S
C2680 C2681 1.399 . S
C2680 C2685 1.399 . S
C2681 C2680 1.399 . S
C2681 C2682 1.376 . S
C2682 H2669 0.930 . S
C2682 C2681 1.376 . S
C2682 C2683 1.388 . S
C2683 H2670 0.930 . S
C2683 C2682 1.388 . S
C2683 C2684 1.390 . S
C2684 C2683 1.390 . S
C2684 C2685 1.394 . S
C2684 C2690 1.465 1_565 S
C2685 C2680 1.399 . S
C2685 C2684 1.394 . S
C2685 C2686 1.466 1_665 S
C2686 C2685 1.466 1_445 S
C2686 C2687 1.491 1_545 S
C2686 C2688 1.581 1_455 S
C2686 C2689 1.574 . S
C2687 H2671 0.959 . S
C2687 H2672 0.959 1_565 S
C2687 H2673 0.961 . S
C2687 C2686 1.491 1_565 S
C2688 H2674 0.960 1_545 S
C2688 H2675 0.961 . S
C2688 H2676 0.959 . S
C2688 C2686 1.581 1_655 S
C2689 C2686 1.574 . S
C2689 C2690 1.396 1_455 S
C2689 C2694 1.390 . S
C2690 C2684 1.465 1_545 S
C2690 C2689 1.396 1_655 S
C2690 C2691 1.399 . S
C2691 H2677 0.929 . S
C2691 C2690 1.399 . S
C2691 C2692 1.385 1_655 S
C2692 H2678 0.931 . S
C2692 C2691 1.385 1_455 S
C2692 C2693 1.389 . S
C2693 C2692 1.389 . S
C2693 C2694 1.387 . S
C2694 H2679 0.930 . S
C2694 C2689 1.390 . S
C2694 C2693 1.387 . S
H2695 C2707 0.930 . S
H2696 C2709 0.930 . S
H2697 C2710 0.930 . S
H2698 C2714 0.959 . S
H2699 C2714 0.959 . S
H2700 C2714 0.961 . S
H2701 C2715 0.960 . S
H2702 C2715 0.961 . S
H2703 C2715 0.959 . S
H2704 C2718 0.929 . S
H2705 C2719 0.931 . S
H2706 C2721 0.930 . S
C2707 H2695 0.930 . S
C2707 C2708 1.399 . S
C2707 C2712 1.399 . S
C2708 C2707 1.399 . S
C2708 C2709 1.376 . S
C2709 H2696 0.930 . S
C2709 C2708 1.376 . S
C2709 C2710 1.388 . S
C2710 H2697 0.930 . S
C2710 C2709 1.388 . S
C2710 C2711 1.390 . S
C2711 C2710 1.390 . S
C2711 C2712 1.394 . S
C2711 C2717 1.465 . S
C2712 C2707 1.399 . S
C2712 C2711 1.394 . S
C2712 C2713 1.516 . S
C2713 C2712 1.516 . S
C2713 C2714 1.502 . S
C2713 C2715 1.561 . S
C2713 C2716 1.526 . S
C2714 H2698 0.959 . S
C2714 H2699 0.959 . S
C2714 H2700 0.961 . S
C2714 C2713 1.502 . S
C2715 H2701 0.960 . S
C2715 H2702 0.961 . S
C2715 H2703 0.959 . S
C2715 C2713 1.561 . S
C2716 C2713 1.526 . S
C2716 C2717 1.396 . S
C2716 C2721 1.390 . S
C2717 C2711 1.465 . S
C2717 C2716 1.396 . S
C2717 C2718 1.399 . S
C2718 H2704 0.929 . S
C2718 C2717 1.399 . S
C2718 C2719 1.385 . S
C2719 H2705 0.931 . S
C2719 C2718 1.385 . S
C2719 C2720 1.389 . S
C2720 C2719 1.389 . S
C2720 C2721 1.387 . S
C2721 H2706 0.930 . S
C2721 C2716 1.390 . S
C2721 C2720 1.387 . S
H2722 C2734 0.930 . S
H2723 C2736 0.930 . S
H2724 C2737 0.930 . S
H2725 C2741 0.959 . S
H2726 C2741 0.959 . S
H2727 C2741 0.961 . S
H2728 C2742 0.960 . S
H2729 C2742 0.961 1_545 S
H2730 C2742 0.947 1_545 S
H2731 C2745 0.929 . S
H2732 C2746 0.931 . S
H2733 C2748 0.930 . S
C2734 H2722 0.930 . S
C2734 C2735 1.399 1_556 S
C2734 C2739 1.399 . S
C2735 C2734 1.399 1_554 S
C2735 C2736 1.376 . S
C2736 H2723 0.930 . S
C2736 C2735 1.376 . S
C2736 C2737 1.388 . S
C2737 H2724 0.930 . S
C2737 C2736 1.388 . S
C2737 C2738 1.390 . S
C2738 C2737 1.390 . S
C2738 C2739 1.394 1_554 S
C2738 C2744 1.465 1_565 S
C2739 C2734 1.399 . S
C2739 C2738 1.394 1_556 S
C2739 C2740 1.516 . S
C2740 C2739 1.516 . S
C2740 C2741 1.502 . S
C2740 C2742 1.561 . S
C2740 C2743 1.526 1_565 S
C2741 H2725 0.959 . S
C2741 H2726 0.959 . S
C2741 H2727 0.961 . S
C2741 C2740 1.502 . S
C2742 H2728 0.960 . S
C2742 H2729 0.961 1_565 S
C2742 H2730 0.947 1_565 S
C2742 C2740 1.561 . S
C2743 C2740 1.526 1_545 S
C2743 C2744 1.396 1_556 S
C2743 C2748 1.390 . S
C2744 C2738 1.465 1_545 S
C2744 C2743 1.396 1_554 S
C2744 C2745 1.399 . S
C2745 H2731 0.929 . S
C2745 C2744 1.399 . S
C2745 C2746 1.385 . S
C2746 H2732 0.931 . S
C2746 C2745 1.385 . S
C2746 C2747 1.389 1_554 S
C2747 C2746 1.389 1_556 S
C2747 C2748 1.387 . S
C2748 H2733 0.930 . S
C2748 C2743 1.390 . S
C2748 C2747 1.387 . S
H2749 C2761 0.930 . S
H2750 C2763 0.930 . S
H2751 C2764 0.930 . S
H2752 C2768 0.959 . S
H2753 C2768 0.959 . S
H2754 C2768 0.961 . S
H2755 C2769 0.960 . S
H2756 C2769 0.961 . S
H2757 C2769 0.959 . S
H2758 C2772 0.929 . S
H2759 C2773 0.931 . S
H2760 C2775 0.930 . S
C2761 H2749 0.930 . S
C2761 C2762 1.399 . S
C2761 C2766 1.399 . S
C2762 C2761 1.399 . S
C2762 C2763 1.376 . S
C2763 H2750 0.930 . S
C2763 C2762 1.376 . S
C2763 C2764 1.388 . S
C2764 H2751 0.930 . S
C2764 C2763 1.388 . S
C2764 C2765 1.390 . S
C2765 C2764 1.390 . S
C2765 C2766 1.394 . S
C2765 C2771 1.465 . S
C2766 C2761 1.399 . S
C2766 C2765 1.394 . S
C2766 C2767 1.516 . S
C2767 C2766 1.516 . S
C2767 C2768 1.502 . S
C2767 C2769 1.561 . S
C2767 C2770 1.526 . S
C2768 H2752 0.959 . S
C2768 H2753 0.959 . S
C2768 H2754 0.961 . S
C2768 C2767 1.502 . S
C2769 H2755 0.960 . S
C2769 H2756 0.961 . S
C2769 H2757 0.959 . S
C2769 C2767 1.561 . S
C2770 C2767 1.526 . S
C2770 C2771 1.396 . S
C2770 C2775 1.390 . S
C2771 C2765 1.465 . S
C2771 C2770 1.396 . S
C2771 C2772 1.399 . S
C2772 H2758 0.929 . S
C2772 C2771 1.399 . S
C2772 C2773 1.385 . S
C2773 H2759 0.931 . S
C2773 C2772 1.385 . S
C2773 C2774 1.389 . S
C2774 C2773 1.389 . S
C2774 C2775 1.387 . S
C2775 H2760 0.930 . S
C2775 C2770 1.390 . S
C2775 C2774 1.387 . S
H2776 C2788 0.930 . S
H2777 C2790 0.930 . S
H2778 C2791 0.930 . S
H2779 C2795 0.959 . S
H2780 C2795 0.959 . S
H2781 C2795 0.961 . S
H2782 C2796 0.960 . S
H2783 C2796 0.961 . S
H2784 C2796 0.959 . S
H2785 C2799 0.929 . S
H2786 C2800 0.931 . S
H2787 C2802 0.930 . S
C2788 H2776 0.930 . S
C2788 C2789 1.399 . S
C2788 C2793 1.399 . S
C2789 C2788 1.399 . S
C2789 C2790 1.376 . S
C2790 H2777 0.930 . S
C2790 C2789 1.376 . S
C2790 C2791 1.388 . S
C2791 H2778 0.930 . S
C2791 C2790 1.388 . S
C2791 C2792 1.390 . S
C2792 C2791 1.390 . S
C2792 C2793 1.394 . S
C2792 C2798 1.465 . S
C2793 C2788 1.399 . S
C2793 C2792 1.394 . S
C2793 C2794 1.516 . S
C2794 C2793 1.516 . S
C2794 C2795 1.502 . S
C2794 C2796 1.561 . S
C2794 C2797 1.526 . S
C2795 H2779 0.959 . S
C2795 H2780 0.959 . S
C2795 H2781 0.961 . S
C2795 C2794 1.502 . S
C2796 H2782 0.960 . S
C2796 H2783 0.961 . S
C2796 H2784 0.959 . S
C2796 C2794 1.561 . S
C2797 C2794 1.526 . S
C2797 C2798 1.396 . S
C2797 C2802 1.390 . S
C2798 C2792 1.465 . S
C2798 C2797 1.396 . S
C2798 C2799 1.399 . S
C2799 H2785 0.929 . S
C2799 C2798 1.399 . S
C2799 C2800 1.385 . S
C2800 H2786 0.931 . S
C2800 C2799 1.385 . S
C2800 C2801 1.389 . S
C2801 C2800 1.389 . S
C2801 C2802 1.387 . S
C2802 H2787 0.930 . S
C2802 C2797 1.390 . S
C2802 C2801 1.387 . S
H2803 C2815 0.930 . S
H2804 C2817 0.930 . S
H2805 C2818 0.930 . S
H2806 C2822 0.959 . S
H2807 C2822 0.959 . S
H2808 C2822 0.961 . S
H2809 C2823 0.960 . S
H2810 C2823 0.961 . S
H2811 C2823 0.959 . S
H2812 C2826 0.929 . S
H2813 C2827 0.931 . S
H2814 C2829 0.930 . S
C2815 H2803 0.930 . S
C2815 C2816 1.399 . S
C2815 C2820 1.399 . S
C2816 C2815 1.399 . S
C2816 C2817 1.376 . S
C2817 H2804 0.930 . S
C2817 C2816 1.376 . S
C2817 C2818 1.388 . S
C2818 H2805 0.930 . S
C2818 C2817 1.388 . S
C2818 C2819 1.390 . S
C2819 C2818 1.390 . S
C2819 C2820 1.394 . S
C2819 C2825 1.465 . S
C2820 C2815 1.399 . S
C2820 C2819 1.394 . S
C2820 C2821 1.516 . S
C2821 C2820 1.516 . S
C2821 C2822 1.502 . S
C2821 C2823 1.561 . S
C2821 C2824 1.526 . S
C2822 H2806 0.959 . S
C2822 H2807 0.959 . S
C2822 H2808 0.961 . S
C2822 C2821 1.502 . S
C2823 H2809 0.960 . S
C2823 H2810 0.961 . S
C2823 H2811 0.959 . S
C2823 C2821 1.561 . S
C2824 C2821 1.526 . S
C2824 C2825 1.396 . S
C2824 C2829 1.390 . S
C2825 C2819 1.465 . S
C2825 C2824 1.396 . S
C2825 C2826 1.399 . S
C2826 H2812 0.929 . S
C2826 C2825 1.399 . S
C2826 C2827 1.385 . S
C2827 H2813 0.931 . S
C2827 C2826 1.385 . S
C2827 C2828 1.389 . S
C2828 C2827 1.389 . S
C2828 C2829 1.387 . S
C2829 H2814 0.930 . S
C2829 C2824 1.390 . S
C2829 C2828 1.387 . S
H2830 C2842 0.930 . S
H2831 C2844 0.930 . S
H2832 C2845 0.930 . S
H2833 C2849 0.959 . S
H2834 C2849 0.959 . S
H2835 C2849 0.961 . S
H2836 C2850 0.960 . S
H2837 C2850 0.961 . S
H2838 C2850 0.959 . S
H2839 C2853 0.929 . S
H2840 C2854 0.931 . S
H2841 C2856 0.930 . S
C2842 H2830 0.930 . S
C2842 C2843 1.399 . S
C2842 C2847 1.399 . S
C2843 C2842 1.399 . S
C2843 C2844 1.376 . S
C2844 H2831 0.930 . S
C2844 C2843 1.376 . S
C2844 C2845 1.388 . S
C2845 H2832 0.930 . S
C2845 C2844 1.388 . S
C2845 C2846 1.390 . S
C2846 C2845 1.390 . S
C2846 C2847 1.394 . S
C2846 C2852 1.465 . S
C2847 C2842 1.399 . S
C2847 C2846 1.394 . S
C2847 C2848 1.516 . S
C2848 C2847 1.516 . S
C2848 C2849 1.502 . S
C2848 C2850 1.561 . S
C2848 C2851 1.526 . S
C2849 H2833 0.959 . S
C2849 H2834 0.959 . S
C2849 H2835 0.961 . S
C2849 C2848 1.502 . S
C2850 H2836 0.960 . S
C2850 H2837 0.961 . S
C2850 H2838 0.959 . S
C2850 C2848 1.561 . S
C2851 C2848 1.526 . S
C2851 C2852 1.396 . S
C2851 C2856 1.390 . S
C2852 C2846 1.465 . S
C2852 C2851 1.396 . S
C2852 C2853 1.399 . S
C2853 H2839 0.929 . S
C2853 C2852 1.399 . S
C2853 C2854 1.385 . S
C2854 H2840 0.931 . S
C2854 C2853 1.385 . S
C2854 C2855 1.389 . S
C2855 C2854 1.389 . S
C2855 C2856 1.387 . S
C2856 H2841 0.930 . S
C2856 C2851 1.390 . S
C2856 C2855 1.387 . S
H2857 C2869 0.930 . S
H2858 C2871 0.930 . S
H2859 C2872 0.930 . S
H2860 C2876 0.959 . S
H2861 C2876 0.959 . S
H2862 C2876 0.961 . S
H2863 C2877 0.960 . S
H2864 C2877 0.961 . S
H2865 C2877 0.959 . S
H2866 C2880 0.929 . S
H2867 C2881 0.931 . S
H2868 C2883 0.930 . S
C2869 H2857 0.930 . S
C2869 C2870 1.399 . S
C2869 C2874 1.399 . S
C2870 C2869 1.399 . S
C2870 C2871 1.376 . S
C2871 H2858 0.930 . S
C2871 C2870 1.376 . S
C2871 C2872 1.388 . S
C2872 H2859 0.930 . S
C2872 C2871 1.388 . S
C2872 C2873 1.390 . S
C2873 C2872 1.390 . S
C2873 C2874 1.394 . S
C2873 C2879 1.465 . S
C2874 C2869 1.399 . S
C2874 C2873 1.394 . S
C2874 C2875 1.516 . S
C2875 C2874 1.516 . S
C2875 C2876 1.502 . S
C2875 C2877 1.561 . S
C2875 C2878 1.526 . S
C2876 H2860 0.959 . S
C2876 H2861 0.959 . S
C2876 H2862 0.961 . S
C2876 C2875 1.502 . S
C2877 H2863 0.960 . S
C2877 H2864 0.961 . S
C2877 H2865 0.959 . S
C2877 C2875 1.561 . S
C2878 C2875 1.526 . S
C2878 C2879 1.396 . S
C2878 C2883 1.390 . S
C2879 C2873 1.465 . S
C2879 C2878 1.396 . S
C2879 C2880 1.399 . S
C2880 H2866 0.929 . S
C2880 C2879 1.399 . S
C2880 C2881 1.385 . S
C2881 H2867 0.931 . S
C2881 C2880 1.385 . S
C2881 C2882 1.389 . S
C2882 C2881 1.389 . S
C2882 C2883 1.387 . S
C2883 H2868 0.930 . S
C2883 C2878 1.390 . S
C2883 C2882 1.387 . S
H2884 C2896 0.930 . S
H2885 C2898 0.930 . S
H2886 C2899 0.930 . S
H2887 C2903 0.959 . S
H2888 C2903 0.959 . S
H2889 C2903 0.961 . S
H2890 C2904 0.960 . S
H2891 C2904 0.961 . S
H2892 C2904 0.959 . S
H2893 C2907 0.929 . S
H2894 C2908 0.931 . S
H2895 C2910 0.930 . S
C2896 H2884 0.930 . S
C2896 C2897 1.399 . S
C2896 C2901 1.399 . S
C2897 C2896 1.399 . S
C2897 C2898 1.376 . S
C2898 H2885 0.930 . S
C2898 C2897 1.376 . S
C2898 C2899 1.388 . S
C2899 H2886 0.930 . S
C2899 C2898 1.388 . S
C2899 C2900 1.390 . S
C2900 C2899 1.390 . S
C2900 C2901 1.394 . S
C2900 C2906 1.465 . S
C2901 C2896 1.399 . S
C2901 C2900 1.394 . S
C2901 C2902 1.516 . S
C2902 C2901 1.516 . S
C2902 C2903 1.502 . S
C2902 C2904 1.561 . S
C2902 C2905 1.526 . S
C2903 H2887 0.959 . S
C2903 H2888 0.959 . S
C2903 H2889 0.961 . S
C2903 C2902 1.502 . S
C2904 H2890 0.960 . S
C2904 H2891 0.961 . S
C2904 H2892 0.959 . S
C2904 C2902 1.561 . S
C2905 C2902 1.526 . S
C2905 C2906 1.396 . S
C2905 C2910 1.390 . S
C2906 C2900 1.465 . S
C2906 C2905 1.396 . S
C2906 C2907 1.399 . S
C2907 H2893 0.929 . S
C2907 C2906 1.399 . S
C2907 C2908 1.385 . S
C2908 H2894 0.931 . S
C2908 C2907 1.385 . S
C2908 C2909 1.389 . S
C2909 C2908 1.389 . S
C2909 C2910 1.387 . S
C2910 H2895 0.930 . S
C2910 C2905 1.390 . S
C2910 C2909 1.387 . S
H2911 C2923 0.930 . S
H2912 C2925 0.930 . S
H2913 C2926 0.930 . S
H2914 C2930 0.959 . S
H2915 C2930 0.959 . S
H2916 C2930 0.961 . S
H2917 C2931 0.960 . S
H2918 C2931 0.961 . S
H2919 C2931 0.959 . S
H2920 C2934 0.929 . S
H2921 C2935 0.931 . S
H2922 C2937 0.930 . S
C2923 H2911 0.930 . S
C2923 C2924 1.399 1_556 S
C2923 C2928 1.399 . S
C2924 C2923 1.399 1_554 S
C2924 C2925 1.376 . S
C2925 H2912 0.930 . S
C2925 C2924 1.376 . S
C2925 C2926 1.388 1_455 S
C2926 H2913 0.930 . S
C2926 C2925 1.388 1_655 S
C2926 C2927 1.390 . S
C2927 C2926 1.390 . S
C2927 C2928 1.394 1_654 S
C2927 C2933 1.465 . S
C2928 C2923 1.399 . S
C2928 C2927 1.394 1_456 S
C2928 C2929 1.516 . S
C2929 C2928 1.516 . S
C2929 C2930 1.502 . S
C2929 C2931 1.561 1_455 S
C2929 C2932 1.526 1_455 S
C2930 H2914 0.959 . S
C2930 H2915 0.959 . S
C2930 H2916 0.961 . S
C2930 C2929 1.502 . S
C2931 H2917 0.960 . S
C2931 H2918 0.961 . S
C2931 H2919 0.959 . S
C2931 C2929 1.561 1_655 S
C2932 C2929 1.526 1_655 S
C2932 C2933 1.396 1_556 S
C2932 C2937 1.390 . S
C2933 C2927 1.465 . S
C2933 C2932 1.396 1_554 S
C2933 C2934 1.399 . S
C2934 H2920 0.929 . S
C2934 C2933 1.399 . S
C2934 C2935 1.385 . S
C2935 H2921 0.931 . S
C2935 C2934 1.385 . S
C2935 C2936 1.389 1_554 S
C2936 C2935 1.389 1_556 S
C2936 C2937 1.387 . S
C2937 H2922 0.930 . S
C2937 C2932 1.390 . S
C2937 C2936 1.387 . S
H2938 C2950 0.930 . S
H2939 C2952 0.930 . S
H2940 C2953 0.930 . S
H2941 C2957 0.959 . S
H2942 C2957 0.959 . S
H2943 C2957 0.961 . S
H2944 C2958 0.960 . S
H2945 C2958 0.961 . S
H2946 C2958 0.959 . S
H2947 C2961 0.929 . S
H2948 C2962 0.931 . S
H2949 C2964 0.930 . S
C2950 H2938 0.930 . S
C2950 C2951 1.399 1_554 S
C2950 C2955 1.399 . S
C2951 C2950 1.399 1_556 S
C2951 C2952 1.376 . S
C2952 H2939 0.930 . S
C2952 C2951 1.376 . S
C2952 C2953 1.388 . S
C2953 H2940 0.930 . S
C2953 C2952 1.388 . S
C2953 C2954 1.390 . S
C2954 C2953 1.390 . S
C2954 C2955 1.394 1_556 S
C2954 C2960 1.465 . S
C2955 C2950 1.399 . S
C2955 C2954 1.394 1_554 S
C2955 C2956 1.516 . S
C2956 C2955 1.516 . S
C2956 C2957 1.502 . S
C2956 C2958 1.561 . S
C2956 C2959 1.526 . S
C2957 H2941 0.959 . S
C2957 H2942 0.959 . S
C2957 H2943 0.961 . S
C2957 C2956 1.502 . S
C2958 H2944 0.960 . S
C2958 H2945 0.961 . S
C2958 H2946 0.959 . S
C2958 C2956 1.561 . S
C2959 C2956 1.526 . S
C2959 C2960 1.396 1_554 S
C2959 C2964 1.390 . S
C2960 C2954 1.465 . S
C2960 C2959 1.396 1_556 S
C2960 C2961 1.399 . S
C2961 H2947 0.929 . S
C2961 C2960 1.399 . S
C2961 C2962 1.385 . S
C2962 H2948 0.931 . S
C2962 C2961 1.385 . S
C2962 C2963 1.389 1_556 S
C2963 C2962 1.389 1_554 S
C2963 C2964 1.387 . S
C2964 H2949 0.930 . S
C2964 C2959 1.390 . S
C2964 C2963 1.387 . S
H2965 C2977 0.930 . S
H2966 C2979 0.930 . S
H2967 C2980 0.930 . S
H2968 C2984 0.959 . S
H2969 C2984 0.959 . S
H2970 C2984 0.961 . S
H2971 C2985 0.960 . S
H2972 C2985 0.961 . S
H2973 C2985 0.959 . S
H2974 C2988 0.929 . S
H2975 C2989 0.931 . S
H2976 C2991 0.930 . S
C2977 H2965 0.930 . S
C2977 C2978 1.399 . S
C2977 C2982 1.399 . S
C2978 C2977 1.399 . S
C2978 C2979 1.376 . S
C2979 H2966 0.930 . S
C2979 C2978 1.376 . S
C2979 C2980 1.388 1_655 S
C2980 H2967 0.930 . S
C2980 C2979 1.388 1_455 S
C2980 C2981 1.393 . S
C2981 C2980 1.393 . S
C2981 C2982 1.367 1_455 S
C2981 C2987 1.491 . S
C2982 C2977 1.399 . S
C2982 C2981 1.367 1_655 S
C2982 C2983 1.516 . S
C2983 C2982 1.516 . S
C2983 C2984 1.502 . S
C2983 C2985 1.561 1_655 S
C2983 C2986 1.526 1_655 S
C2984 H2968 0.959 . S
C2984 H2969 0.959 . S
C2984 H2970 0.961 . S
C2984 C2983 1.502 . S
C2985 H2971 0.960 . S
C2985 H2972 0.961 . S
C2985 H2973 0.959 . S
C2985 C2983 1.561 1_455 S
C2986 C2983 1.526 1_455 S
C2986 C2987 1.396 . S
C2986 C2991 1.390 . S
C2987 C2981 1.491 . S
C2987 C2986 1.396 . S
C2987 C2988 1.399 . S
C2988 H2974 0.929 . S
C2988 C2987 1.399 . S
C2988 C2989 1.385 . S
C2989 H2975 0.931 . S
C2989 C2988 1.385 . S
C2989 C2990 1.389 . S
C2990 C2989 1.389 . S
C2990 C2991 1.387 . S
C2991 H2976 0.930 . S
C2991 C2986 1.390 . S
C2991 C2990 1.387 . S
H2992 C3004 0.930 . S
H2993 C3006 0.930 . S
H2994 C3007 0.930 . S
H2995 C3011 0.959 . S
H2996 C3011 0.959 . S
H2997 C3011 0.961 . S
H2998 C3012 0.960 . S
H2999 C3012 0.961 . S
H3000 C3012 0.959 . S
H3001 C3015 0.929 . S
H3002 C3016 0.931 . S
H3003 C3018 0.930 . S
C3004 H2992 0.930 . S
C3004 C3005 1.399 . S
C3004 C3009 1.399 . S
C3005 C3004 1.399 . S
C3005 C3006 1.376 . S
C3006 H2993 0.930 . S
C3006 C3005 1.376 . S
C3006 C3007 1.388 . S
C3007 H2994 0.930 . S
C3007 C3006 1.388 . S
C3007 C3008 1.390 . S
C3008 C3007 1.390 . S
C3008 C3009 1.394 . S
C3008 C3014 1.465 . S
C3009 C3004 1.399 . S
C3009 C3008 1.394 . S
C3009 C3010 1.516 . S
C3010 C3009 1.516 . S
C3010 C3011 1.502 . S
C3010 C3012 1.561 . S
C3010 C3013 1.526 . S
C3011 H2995 0.959 . S
C3011 H2996 0.959 . S
C3011 H2997 0.961 . S
C3011 C3010 1.502 . S
C3012 H2998 0.960 . S
C3012 H2999 0.961 . S
C3012 H3000 0.959 . S
C3012 C3010 1.561 . S
C3013 C3010 1.526 . S
C3013 C3014 1.396 . S
C3013 C3018 1.390 . S
C3014 C3008 1.465 . S
C3014 C3013 1.396 . S
C3014 C3015 1.399 . S
C3015 H3001 0.929 . S
C3015 C3014 1.399 . S
C3015 C3016 1.385 . S
C3016 H3002 0.931 . S
C3016 C3015 1.385 . S
C3016 C3017 1.389 . S
C3017 C3016 1.389 . S
C3017 C3018 1.387 . S
C3018 H3003 0.930 . S
C3018 C3013 1.390 . S
C3018 C3017 1.387 . S
H3019 C3031 0.930 . S
H3020 C3033 0.930 . S
H3021 C3034 0.930 . S
H3022 C3038 0.959 . S
H3023 C3038 0.959 . S
H3024 C3038 0.961 . S
H3025 C3039 0.960 . S
H3026 C3039 0.961 . S
H3027 C3039 0.959 . S
H3028 C3042 0.929 . S
H3029 C3043 0.931 . S
H3030 C3045 0.930 . S
C3031 H3019 0.930 . S
C3031 C3032 1.399 . S
C3031 C3036 1.399 . S
C3032 C3031 1.399 . S
C3032 C3033 1.376 . S
C3033 H3020 0.930 . S
C3033 C3032 1.376 . S
C3033 C3034 1.388 . S
C3034 H3021 0.930 . S
C3034 C3033 1.388 . S
C3034 C3035 1.390 . S
C3035 C3034 1.390 . S
C3035 C3036 1.394 . S
C3035 C3041 1.465 . S
C3036 C3031 1.399 . S
C3036 C3035 1.394 . S
C3036 C3037 1.516 . S
C3037 C3036 1.516 . S
C3037 C3038 1.502 . S
C3037 C3039 1.561 . S
C3037 C3040 1.526 . S
C3038 H3022 0.959 . S
C3038 H3023 0.959 . S
C3038 H3024 0.961 . S
C3038 C3037 1.502 . S
C3039 H3025 0.960 . S
C3039 H3026 0.961 . S
C3039 H3027 0.959 . S
C3039 C3037 1.561 . S
C3040 C3037 1.526 . S
C3040 C3041 1.396 . S
C3040 C3045 1.390 . S
C3041 C3035 1.465 . S
C3041 C3040 1.396 . S
C3041 C3042 1.399 . S
C3042 H3028 0.929 . S
C3042 C3041 1.399 . S
C3042 C3043 1.385 . S
C3043 H3029 0.931 . S
C3043 C3042 1.385 . S
C3043 C3044 1.389 . S
C3044 C3043 1.389 . S
C3044 C3045 1.387 . S
C3045 H3030 0.930 . S
C3045 C3040 1.390 . S
C3045 C3044 1.387 . S
H3046 C3058 0.930 . S
H3047 C3060 0.930 . S
H3048 C3061 0.930 . S
H3049 C3065 0.959 . S
H3050 C3065 0.959 . S
H3051 C3065 0.961 . S
H3052 C3066 0.960 . S
H3053 C3066 0.961 . S
H3054 C3066 0.959 . S
H3055 C3069 0.929 . S
H3056 C3070 0.931 . S
H3057 C3072 0.930 . S
C3058 H3046 0.930 . S
C3058 C3059 1.399 . S
C3058 C3063 1.399 . S
C3059 C3058 1.399 . S
C3059 C3060 1.376 . S
C3060 H3047 0.930 . S
C3060 C3059 1.376 . S
C3060 C3061 1.388 . S
C3061 H3048 0.930 . S
C3061 C3060 1.388 . S
C3061 C3062 1.390 . S
C3062 C3061 1.390 . S
C3062 C3063 1.394 . S
C3062 C3068 1.465 . S
C3063 C3058 1.399 . S
C3063 C3062 1.394 . S
C3063 C3064 1.516 . S
C3064 C3063 1.516 . S
C3064 C3065 1.502 . S
C3064 C3066 1.561 . S
C3064 C3067 1.526 . S
C3065 H3049 0.959 . S
C3065 H3050 0.959 . S
C3065 H3051 0.961 . S
C3065 C3064 1.502 . S
C3066 H3052 0.960 . S
C3066 H3053 0.961 . S
C3066 H3054 0.959 . S
C3066 C3064 1.561 . S
C3067 C3064 1.526 . S
C3067 C3068 1.396 . S
C3067 C3072 1.390 . S
C3068 C3062 1.465 . S
C3068 C3067 1.396 . S
C3068 C3069 1.399 . S
C3069 H3055 0.929 . S
C3069 C3068 1.399 . S
C3069 C3070 1.385 . S
C3070 H3056 0.931 . S
C3070 C3069 1.385 . S
C3070 C3071 1.389 . S
C3071 C3070 1.389 . S
C3071 C3072 1.387 . S
C3072 H3057 0.930 . S
C3072 C3067 1.390 . S
C3072 C3071 1.387 . S
H3073 C3085 0.930 . S
H3074 C3087 0.930 . S
H3075 C3088 0.930 . S
H3076 C3092 0.959 . S
H3077 C3092 0.959 . S
H3078 C3092 0.961 . S
H3079 C3093 0.960 . S
H3080 C3093 0.961 . S
H3081 C3093 0.959 . S
H3082 C3096 0.929 . S
H3083 C3097 0.931 . S
H3084 C3099 0.930 . S
C3085 H3073 0.930 . S
C3085 C3086 1.399 . S
C3085 C3090 1.399 . S
C3086 C3085 1.399 . S
C3086 C3087 1.376 . S
C3087 H3074 0.930 . S
C3087 C3086 1.376 . S
C3087 C3088 1.388 . S
C3088 H3075 0.930 . S
C3088 C3087 1.388 . S
C3088 C3089 1.390 . S
C3089 C3088 1.390 . S
C3089 C3090 1.394 . S
C3089 C3095 1.465 . S
C3090 C3085 1.399 . S
C3090 C3089 1.394 . S
C3090 C3091 1.516 . S
C3091 C3090 1.516 . S
C3091 C3092 1.502 . S
C3091 C3093 1.561 . S
C3091 C3094 1.526 . S
C3092 H3076 0.959 . S
C3092 H3077 0.959 . S
C3092 H3078 0.961 . S
C3092 C3091 1.502 . S
C3093 H3079 0.960 . S
C3093 H3080 0.961 . S
C3093 H3081 0.959 . S
C3093 C3091 1.561 . S
C3094 C3091 1.526 . S
C3094 C3095 1.396 . S
C3094 C3099 1.390 . S
C3095 C3089 1.465 . S
C3095 C3094 1.396 . S
C3095 C3096 1.399 . S
C3096 H3082 0.929 . S
C3096 C3095 1.399 . S
C3096 C3097 1.385 . S
C3097 H3083 0.931 . S
C3097 C3096 1.385 . S
C3097 C3098 1.389 . S
C3098 C3097 1.389 . S
C3098 C3099 1.387 . S
C3099 H3084 0.930 . S
C3099 C3094 1.390 . S
C3099 C3098 1.387 . S
H3100 C3112 0.930 . S
H3101 C3114 0.930 . S
H3102 C3115 0.930 . S
H3103 C3119 0.959 . S
H3104 C3119 0.959 . S
H3105 C3119 0.961 . S
H3106 C3120 0.960 . S
H3107 C3120 0.961 . S
H3108 C3120 0.959 . S
H3109 C3123 0.929 . S
H3110 C3124 0.931 . S
H3111 C3126 0.930 . S
C3112 H3100 0.930 . S
C3112 C3113 1.399 . S
C3112 C3117 1.399 . S
C3113 C3112 1.399 . S
C3113 C3114 1.376 . S
C3114 H3101 0.930 . S
C3114 C3113 1.376 . S
C3114 C3115 1.388 . S
C3115 H3102 0.930 . S
C3115 C3114 1.388 . S
C3115 C3116 1.390 . S
C3116 C3115 1.390 . S
C3116 C3117 1.394 . S
C3116 C3122 1.465 . S
C3117 C3112 1.399 . S
C3117 C3116 1.394 . S
C3117 C3118 1.516 . S
C3118 C3117 1.516 . S
C3118 C3119 1.502 . S
C3118 C3120 1.561 . S
C3118 C3121 1.526 . S
C3119 H3103 0.959 . S
C3119 H3104 0.959 . S
C3119 H3105 0.961 . S
C3119 C3118 1.502 . S
C3120 H3106 0.960 . S
C3120 H3107 0.961 . S
C3120 H3108 0.959 . S
C3120 C3118 1.561 . S
C3121 C3118 1.526 . S
C3121 C3122 1.396 . S
C3121 C3126 1.390 . S
C3122 C3116 1.465 . S
C3122 C3121 1.396 . S
C3122 C3123 1.399 . S
C3123 H3109 0.929 . S
C3123 C3122 1.399 . S
C3123 C3124 1.385 . S
C3124 H3110 0.931 . S
C3124 C3123 1.385 . S
C3124 C3125 1.389 . S
C3125 C3124 1.389 . S
C3125 C3126 1.387 . S
C3126 H3111 0.930 . S
C3126 C3121 1.390 . S
C3126 C3125 1.387 . S
H3127 C3139 0.930 . S
H3128 C3141 0.930 . S
H3129 C3142 0.930 . S
H3130 C3146 0.959 . S
H3131 C3146 0.959 . S
H3132 C3146 0.961 . S
H3133 C3147 0.960 . S
H3134 C3147 0.961 . S
H3135 C3147 0.959 . S
H3136 C3150 0.929 . S
H3137 C3151 0.931 . S
H3138 C3153 0.930 . S
C3139 H3127 0.930 . S
C3139 C3140 1.399 . S
C3139 C3144 1.399 . S
C3140 C3139 1.399 . S
C3140 C3141 1.376 . S
C3141 H3128 0.930 . S
C3141 C3140 1.376 . S
C3141 C3142 1.388 . S
C3142 H3129 0.930 . S
C3142 C3141 1.388 . S
C3142 C3143 1.390 . S
C3143 C3142 1.390 . S
C3143 C3144 1.394 . S
C3143 C3149 1.465 . S
C3144 C3139 1.399 . S
C3144 C3143 1.394 . S
C3144 C3145 1.516 . S
C3145 C3144 1.516 . S
C3145 C3146 1.502 . S
C3145 C3147 1.561 . S
C3145 C3148 1.526 . S
C3146 H3130 0.959 . S
C3146 H3131 0.959 . S
C3146 H3132 0.961 . S
C3146 C3145 1.502 . S
C3147 H3133 0.960 . S
C3147 H3134 0.961 . S
C3147 H3135 0.959 . S
C3147 C3145 1.561 . S
C3148 C3145 1.526 . S
C3148 C3149 1.396 . S
C3148 C3153 1.390 . S
C3149 C3143 1.465 . S
C3149 C3148 1.396 . S
C3149 C3150 1.399 . S
C3150 H3136 0.929 . S
C3150 C3149 1.399 . S
C3150 C3151 1.385 . S
C3151 H3137 0.931 . S
C3151 C3150 1.385 . S
C3151 C3152 1.389 . S
C3152 C3151 1.389 . S
C3152 C3153 1.387 . S
C3153 H3138 0.930 . S
C3153 C3148 1.390 . S
C3153 C3152 1.387 . S
H3154 C3166 0.930 . S
H3155 C3168 0.930 . S
H3156 C3169 0.930 . S
H3157 C3173 0.959 . S
H3158 C3173 0.959 . S
H3159 C3173 0.961 . S
H3160 C3174 0.960 . S
H3161 C3174 0.961 . S
H3162 C3174 0.959 . S
H3163 C3177 0.929 . S
H3164 C3178 0.931 . S
H3165 C3180 0.930 . S
C3166 H3154 0.930 . S
C3166 C3167 1.399 . S
C3166 C3171 1.399 . S
C3167 C3166 1.399 . S
C3167 C3168 1.376 . S
C3168 H3155 0.930 . S
C3168 C3167 1.376 . S
C3168 C3169 1.388 . S
C3169 H3156 0.930 . S
C3169 C3168 1.388 . S
C3169 C3170 1.390 . S
C3170 C3169 1.390 . S
C3170 C3171 1.394 . S
C3170 C3176 1.465 . S
C3171 C3166 1.399 . S
C3171 C3170 1.394 . S
C3171 C3172 1.516 . S
C3172 C3171 1.516 . S
C3172 C3173 1.502 . S
C3172 C3174 1.561 . S
C3172 C3175 1.526 . S
C3173 H3157 0.959 . S
C3173 H3158 0.959 . S
C3173 H3159 0.961 . S
C3173 C3172 1.502 . S
C3174 H3160 0.960 . S
C3174 H3161 0.961 . S
C3174 H3162 0.959 . S
C3174 C3172 1.561 . S
C3175 C3172 1.526 . S
C3175 C3176 1.396 . S
C3175 C3180 1.390 . S
C3176 C3170 1.465 . S
C3176 C3175 1.396 . S
C3176 C3177 1.399 . S
C3177 H3163 0.929 . S
C3177 C3176 1.399 . S
C3177 C3178 1.385 . S
C3178 H3164 0.931 . S
C3178 C3177 1.385 . S
C3178 C3179 1.389 . S
C3179 C3178 1.389 . S
C3179 C3180 1.387 . S
C3180 H3165 0.930 . S
C3180 C3175 1.390 . S
C3180 C3179 1.387 . S
H3181 C3193 0.930 . S
H3182 C3195 0.930 . S
H3183 C3196 0.930 . S
H3184 C3200 0.959 . S
H3185 C3200 0.959 . S
H3186 C3200 0.961 . S
H3187 C3201 0.960 . S
H3188 C3201 0.961 . S
H3189 C3201 0.959 . S
H3190 C3204 0.929 . S
H3191 C3205 0.931 . S
H3192 C3207 0.930 . S
C3193 H3181 0.930 . S
C3193 C3194 1.399 . S
C3193 C3198 1.399 . S
C3194 C3193 1.399 . S
C3194 C3195 1.376 . S
C3195 H3182 0.930 . S
C3195 C3194 1.376 . S
C3195 C3196 1.388 . S
C3196 H3183 0.930 . S
C3196 C3195 1.388 . S
C3196 C3197 1.390 . S
C3197 C3196 1.390 . S
C3197 C3198 1.394 . S
C3197 C3203 1.465 . S
C3198 C3193 1.399 . S
C3198 C3197 1.394 . S
C3198 C3199 1.516 . S
C3199 C3198 1.516 . S
C3199 C3200 1.502 . S
C3199 C3201 1.561 . S
C3199 C3202 1.526 . S
C3200 H3184 0.959 . S
C3200 H3185 0.959 . S
C3200 H3186 0.961 . S
C3200 C3199 1.502 . S
C3201 H3187 0.960 . S
C3201 H3188 0.961 . S
C3201 H3189 0.959 . S
C3201 C3199 1.561 . S
C3202 C3199 1.526 . S
C3202 C3203 1.396 . S
C3202 C3207 1.390 . S
C3203 C3197 1.465 . S
C3203 C3202 1.396 . S
C3203 C3204 1.399 . S
C3204 H3190 0.929 . S
C3204 C3203 1.399 . S
C3204 C3205 1.385 . S
C3205 H3191 0.931 . S
C3205 C3204 1.385 . S
C3205 C3206 1.389 . S
C3206 C3205 1.389 . S
C3206 C3207 1.387 . S
C3207 H3192 0.930 . S
C3207 C3202 1.390 . S
C3207 C3206 1.387 . S
H3208 C3220 0.930 . S
H3209 C3222 0.930 . S
H3210 C3223 0.930 . S
H3211 C3227 0.959 . S
H3212 C3227 0.959 . S
H3213 C3227 0.961 . S
H3214 C3228 0.960 . S
H3215 C3228 0.961 . S
H3216 C3228 0.959 . S
H3217 C3231 0.929 . S
H3218 C3232 0.931 . S
H3219 C3234 0.930 . S
C3220 H3208 0.930 . S
C3220 C3221 1.399 . S
C3220 C3225 1.399 . S
C3221 C3220 1.399 . S
C3221 C3222 1.376 . S
C3222 H3209 0.930 . S
C3222 C3221 1.376 . S
C3222 C3223 1.388 . S
C3223 H3210 0.930 . S
C3223 C3222 1.388 . S
C3223 C3224 1.390 . S
C3224 C3223 1.390 . S
C3224 C3225 1.394 . S
C3224 C3230 1.465 . S
C3225 C3220 1.399 . S
C3225 C3224 1.394 . S
C3225 C3226 1.516 . S
C3226 C3225 1.516 . S
C3226 C3227 1.502 . S
C3226 C3228 1.561 . S
C3226 C3229 1.526 . S
C3227 H3211 0.959 . S
C3227 H3212 0.959 . S
C3227 H3213 0.961 . S
C3227 C3226 1.502 . S
C3228 H3214 0.960 . S
C3228 H3215 0.961 . S
C3228 H3216 0.959 . S
C3228 C3226 1.561 . S
C3229 C3226 1.526 . S
C3229 C3230 1.396 . S
C3229 C3234 1.390 . S
C3230 C3224 1.465 . S
C3230 C3229 1.396 . S
C3230 C3231 1.399 . S
C3231 H3217 0.929 . S
C3231 C3230 1.399 . S
C3231 C3232 1.385 . S
C3232 H3218 0.931 . S
C3232 C3231 1.385 . S
C3232 C3233 1.389 . S
C3233 C3232 1.389 . S
C3233 C3234 1.387 . S
C3234 H3219 0.930 . S
C3234 C3229 1.390 . S
C3234 C3233 1.387 . S
H3235 C3247 0.930 . S
H3236 C3249 0.930 . S
H3237 C3250 0.930 . S
H3238 C3254 0.959 . S
H3239 C3254 0.959 . S
H3240 C3254 0.961 . S
H3241 C3255 0.960 . S
H3242 C3255 0.961 . S
H3243 C3255 0.959 . S
H3244 C3258 0.929 . S
H3245 C3259 0.931 . S
H3246 C3261 0.930 . S
C3247 H3235 0.930 . S
C3247 C3248 1.399 . S
C3247 C3252 1.399 . S
C3248 C3247 1.399 . S
C3248 C3249 1.376 . S
C3249 H3236 0.930 . S
C3249 C3248 1.376 . S
C3249 C3250 1.388 . S
C3250 H3237 0.930 . S
C3250 C3249 1.388 . S
C3250 C3251 1.390 . S
C3251 C3250 1.390 . S
C3251 C3252 1.394 . S
C3251 C3257 1.465 . S
C3252 C3247 1.399 . S
C3252 C3251 1.394 . S
C3252 C3253 1.516 . S
C3253 C3252 1.516 . S
C3253 C3254 1.502 . S
C3253 C3255 1.561 . S
C3253 C3256 1.526 . S
C3254 H3238 0.959 . S
C3254 H3239 0.959 . S
C3254 H3240 0.961 . S
C3254 C3253 1.502 . S
C3255 H3241 0.960 . S
C3255 H3242 0.961 . S
C3255 H3243 0.959 . S
C3255 C3253 1.561 . S
C3256 C3253 1.526 . S
C3256 C3257 1.396 . S
C3256 C3261 1.390 . S
C3257 C3251 1.465 . S
C3257 C3256 1.396 . S
C3257 C3258 1.399 . S
C3258 H3244 0.929 . S
C3258 C3257 1.399 . S
C3258 C3259 1.385 . S
C3259 H3245 0.931 . S
C3259 C3258 1.385 . S
C3259 C3260 1.389 . S
C3260 C3259 1.389 . S
C3260 C3261 1.387 . S
C3261 H3246 0.930 . S
C3261 C3256 1.390 . S
C3261 C3260 1.387 . S
H3262 C3274 0.930 . S
H3263 C3276 0.930 . S
H3264 C3277 0.930 . S
H3265 C3281 0.959 . S
H3266 C3281 0.959 . S
H3267 C3281 0.961 . S
H3268 C3282 0.960 . S
H3269 C3282 0.961 . S
H3270 C3282 0.959 . S
H3271 C3285 0.929 . S
H3272 C3286 0.931 . S
H3273 C3288 0.930 . S
C3274 H3262 0.930 . S
C3274 C3275 1.399 . S
C3274 C3279 1.399 . S
C3275 C3274 1.399 . S
C3275 C3276 1.376 . S
C3276 H3263 0.930 . S
C3276 C3275 1.376 . S
C3276 C3277 1.388 . S
C3277 H3264 0.930 . S
C3277 C3276 1.388 . S
C3277 C3278 1.390 . S
C3278 C3277 1.390 . S
C3278 C3279 1.394 . S
C3278 C3284 1.465 . S
C3279 C3274 1.399 . S
C3279 C3278 1.394 . S
C3279 C3280 1.516 . S
C3280 C3279 1.516 . S
C3280 C3281 1.502 . S
C3280 C3282 1.561 . S
C3280 C3283 1.526 . S
C3281 H3265 0.959 . S
C3281 H3266 0.959 . S
C3281 H3267 0.961 . S
C3281 C3280 1.502 . S
C3282 H3268 0.960 . S
C3282 H3269 0.961 . S
C3282 H3270 0.959 . S
C3282 C3280 1.561 . S
C3283 C3280 1.526 . S
C3283 C3284 1.396 . S
C3283 C3288 1.390 . S
C3284 C3278 1.465 . S
C3284 C3283 1.396 . S
C3284 C3285 1.399 . S
C3285 H3271 0.929 . S
C3285 C3284 1.399 . S
C3285 C3286 1.385 . S
C3286 H3272 0.931 . S
C3286 C3285 1.385 . S
C3286 C3287 1.389 . S
C3287 C3286 1.389 . S
C3287 C3288 1.387 . S
C3288 H3273 0.930 . S
C3288 C3283 1.390 . S
C3288 C3287 1.387 . S
H3289 C3301 0.930 . S
H3290 C3303 0.930 . S
H3291 C3304 0.930 . S
H3292 C3308 0.959 . S
H3293 C3308 0.959 . S
H3294 C3308 0.961 . S
H3295 C3309 0.960 . S
H3296 C3309 0.961 . S
H3297 C3309 0.959 . S
H3298 C3312 0.929 . S
H3299 C3313 0.931 . S
H3300 C3315 0.930 . S
C3301 H3289 0.930 . S
C3301 C3302 1.399 . S
C3301 C3306 1.399 . S
C3302 C3301 1.399 . S
C3302 C3303 1.376 . S
C3303 H3290 0.930 . S
C3303 C3302 1.376 . S
C3303 C3304 1.388 . S
C3304 H3291 0.930 . S
C3304 C3303 1.388 . S
C3304 C3305 1.390 . S
C3305 C3304 1.390 . S
C3305 C3306 1.394 . S
C3305 C3311 1.465 . S
C3306 C3301 1.399 . S
C3306 C3305 1.394 . S
C3306 C3307 1.516 . S
C3307 C3306 1.516 . S
C3307 C3308 1.502 . S
C3307 C3309 1.561 . S
C3307 C3310 1.526 . S
C3308 H3292 0.959 . S
C3308 H3293 0.959 . S
C3308 H3294 0.961 . S
C3308 C3307 1.502 . S
C3309 H3295 0.960 . S
C3309 H3296 0.961 . S
C3309 H3297 0.959 . S
C3309 C3307 1.561 . S
C3310 C3307 1.526 . S
C3310 C3311 1.396 . S
C3310 C3315 1.390 . S
C3311 C3305 1.465 . S
C3311 C3310 1.396 . S
C3311 C3312 1.399 . S
C3312 H3298 0.929 . S
C3312 C3311 1.399 . S
C3312 C3313 1.385 . S
C3313 H3299 0.931 . S
C3313 C3312 1.385 . S
C3313 C3314 1.389 . S
C3314 C3313 1.389 . S
C3314 C3315 1.387 . S
C3315 H3300 0.930 . S
C3315 C3310 1.390 . S
C3315 C3314 1.387 . S
H3316 C3328 0.930 . S
H3317 C3330 0.930 . S
H3318 C3331 0.930 . S
H3319 C3335 0.959 . S
H3320 C3335 0.959 . S
H3321 C3335 0.961 . S
H3322 C3336 0.960 . S
H3323 C3336 0.961 . S
H3324 C3336 0.959 . S
H3325 C3339 0.929 . S
H3326 C3340 0.931 . S
H3327 C3342 0.930 . S
C3328 H3316 0.930 . S
C3328 C3329 1.399 . S
C3328 C3333 1.399 . S
C3329 C3328 1.399 . S
C3329 C3330 1.376 . S
C3330 H3317 0.930 . S
C3330 C3329 1.376 . S
C3330 C3331 1.388 . S
C3331 H3318 0.930 . S
C3331 C3330 1.388 . S
C3331 C3332 1.390 . S
C3332 C3331 1.390 . S
C3332 C3333 1.394 . S
C3332 C3338 1.465 . S
C3333 C3328 1.399 . S
C3333 C3332 1.394 . S
C3333 C3334 1.516 . S
C3334 C3333 1.516 . S
C3334 C3335 1.502 . S
C3334 C3336 1.561 . S
C3334 C3337 1.526 . S
C3335 H3319 0.959 . S
C3335 H3320 0.959 . S
C3335 H3321 0.961 . S
C3335 C3334 1.502 . S
C3336 H3322 0.960 . S
C3336 H3323 0.961 . S
C3336 H3324 0.959 . S
C3336 C3334 1.561 . S
C3337 C3334 1.526 . S
C3337 C3338 1.396 . S
C3337 C3342 1.390 . S
C3338 C3332 1.465 . S
C3338 C3337 1.396 . S
C3338 C3339 1.399 . S
C3339 H3325 0.929 . S
C3339 C3338 1.399 . S
C3339 C3340 1.385 . S
C3340 H3326 0.931 . S
C3340 C3339 1.385 . S
C3340 C3341 1.389 . S
C3341 C3340 1.389 . S
C3341 C3342 1.387 . S
C3342 H3327 0.930 . S
C3342 C3337 1.390 . S
C3342 C3341 1.387 . S
H3343 C3355 0.930 . S
H3344 C3357 0.930 . S
H3345 C3358 0.930 . S
H3346 C3362 0.959 . S
H3347 C3362 0.959 . S
H3348 C3362 0.961 . S
H3349 C3363 0.960 . S
H3350 C3363 0.961 . S
H3351 C3363 0.959 . S
H3352 C3366 0.929 . S
H3353 C3367 0.931 . S
H3354 C3369 0.930 . S
C3355 H3343 0.930 . S
C3355 C3356 1.399 . S
C3355 C3360 1.399 . S
C3356 C3355 1.399 . S
C3356 C3357 1.376 . S
C3357 H3344 0.930 . S
C3357 C3356 1.376 . S
C3357 C3358 1.388 . S
C3358 H3345 0.930 . S
C3358 C3357 1.388 . S
C3358 C3359 1.390 . S
C3359 C3358 1.390 . S
C3359 C3360 1.394 . S
C3359 C3365 1.465 . S
C3360 C3355 1.399 . S
C3360 C3359 1.394 . S
C3360 C3361 1.516 . S
C3361 C3360 1.516 . S
C3361 C3362 1.502 . S
C3361 C3363 1.561 . S
C3361 C3364 1.526 . S
C3362 H3346 0.959 . S
C3362 H3347 0.959 . S
C3362 H3348 0.961 . S
C3362 C3361 1.502 . S
C3363 H3349 0.960 . S
C3363 H3350 0.961 . S
C3363 H3351 0.959 . S
C3363 C3361 1.561 . S
C3364 C3361 1.526 . S
C3364 C3365 1.396 . S
C3364 C3369 1.390 . S
C3365 C3359 1.465 . S
C3365 C3364 1.396 . S
C3365 C3366 1.399 . S
C3366 H3352 0.929 . S
C3366 C3365 1.399 . S
C3366 C3367 1.385 . S
C3367 H3353 0.931 . S
C3367 C3366 1.385 . S
C3367 C3368 1.389 . S
C3368 C3367 1.389 . S
C3368 C3369 1.387 . S
C3369 H3354 0.930 . S
C3369 C3364 1.390 . S
C3369 C3368 1.387 . S
H3370 C3382 0.930 . S
H3371 C3384 0.930 . S
H3372 C3385 0.930 . S
H3373 C3389 0.959 . S
H3374 C3389 0.959 . S
H3375 C3389 0.961 . S
H3376 C3390 0.960 . S
H3377 C3390 0.961 . S
H3378 C3390 0.959 . S
H3379 C3393 0.929 . S
H3380 C3394 0.931 . S
H3381 C3396 0.930 . S
C3382 H3370 0.930 . S
C3382 C3383 1.399 . S
C3382 C3387 1.399 . S
C3383 C3382 1.399 . S
C3383 C3384 1.376 . S
C3384 H3371 0.930 . S
C3384 C3383 1.376 . S
C3384 C3385 1.388 . S
C3385 H3372 0.930 . S
C3385 C3384 1.388 . S
C3385 C3386 1.390 . S
C3386 C3385 1.390 . S
C3386 C3387 1.394 . S
C3386 C3392 1.465 . S
C3387 C3382 1.399 . S
C3387 C3386 1.394 . S
C3387 C3388 1.516 . S
C3388 C3387 1.516 . S
C3388 C3389 1.502 . S
C3388 C3390 1.561 . S
C3388 C3391 1.526 . S
C3389 H3373 0.959 . S
C3389 H3374 0.959 . S
C3389 H3375 0.961 . S
C3389 C3388 1.502 . S
C3390 H3376 0.960 . S
C3390 H3377 0.961 . S
C3390 H3378 0.959 . S
C3390 C3388 1.561 . S
C3391 C3388 1.526 . S
C3391 C3392 1.396 . S
C3391 C3396 1.390 . S
C3392 C3386 1.465 . S
C3392 C3391 1.396 . S
C3392 C3393 1.399 . S
C3393 H3379 0.929 . S
C3393 C3392 1.399 . S
C3393 C3394 1.385 . S
C3394 H3380 0.931 . S
C3394 C3393 1.385 . S
C3394 C3395 1.389 . S
C3395 C3394 1.389 . S
C3395 C3396 1.387 . S
C3396 H3381 0.930 . S
C3396 C3391 1.390 . S
C3396 C3395 1.387 . S
H3397 C3409 0.930 . S
H3398 C3411 0.930 . S
H3399 C3412 0.930 . S
H3400 C3416 0.959 . S
H3401 C3416 0.959 . S
H3402 C3416 0.961 . S
H3403 C3417 0.960 . S
H3404 C3417 0.961 . S
H3405 C3417 0.959 . S
H3406 C3420 0.929 . S
H3407 C3421 0.931 . S
H3408 C3423 0.930 . S
C3409 H3397 0.930 . S
C3409 C3410 1.399 . S
C3409 C3414 1.399 . S
C3410 C3409 1.399 . S
C3410 C3411 1.376 . S
C3411 H3398 0.930 . S
C3411 C3410 1.376 . S
C3411 C3412 1.388 . S
C3412 H3399 0.930 . S
C3412 C3411 1.388 . S
C3412 C3413 1.390 . S
C3413 C3412 1.390 . S
C3413 C3414 1.394 . S
C3413 C3419 1.465 . S
C3414 C3409 1.399 . S
C3414 C3413 1.394 . S
C3414 C3415 1.516 . S
C3415 C3414 1.516 . S
C3415 C3416 1.502 . S
C3415 C3417 1.561 . S
C3415 C3418 1.526 . S
C3416 H3400 0.959 . S
C3416 H3401 0.959 . S
C3416 H3402 0.961 . S
C3416 C3415 1.502 . S
C3417 H3403 0.960 . S
C3417 H3404 0.961 . S
C3417 H3405 0.959 . S
C3417 C3415 1.561 . S
C3418 C3415 1.526 . S
C3418 C3419 1.396 . S
C3418 C3423 1.390 . S
C3419 C3413 1.465 . S
C3419 C3418 1.396 . S
C3419 C3420 1.399 . S
C3420 H3406 0.929 . S
C3420 C3419 1.399 . S
C3420 C3421 1.385 . S
C3421 H3407 0.931 . S
C3421 C3420 1.385 . S
C3421 C3422 1.389 . S
C3422 C3421 1.389 . S
C3422 C3423 1.387 . S
C3423 H3408 0.930 . S
C3423 C3418 1.390 . S
C3423 C3422 1.387 . S
C1709 C675 1.699 . S
C1721 C38 1.713 . S
C1736 C1576 1.725 . S
C1748 C91 1.701 . S
C1763 C781 1.716 . S
C1775 C144 1.714 . S
C1790 C1682 1.691 . S
C1802 C197 1.729 . S
C1817 C463 1.717 . S
C1829 C250 1.713 . S
C1844 C303 1.718 . S
C1856 C1364 1.693 . S
C1871 C356 1.699 . S
C1883 C569 1.721 . S
C1898 C1470 1.712 . S
C1910 C409 1.703 . S
C1925 C251 1.693 . S
C1937 C462 1.728 . S
C1952 C1152 1.707 . S
C1964 C515 1.722 . S
C1979 C357 1.693 . S
C1991 C568 1.729 . S
C2006 C1258 1.693 . S
C2018 C621 1.730 . S
C2033 C674 1.716 . S
C2045 C39 1.709 . S
C2060 C727 1.729 . S
C2072 C940 1.693 . S
C2087 C145 1.719 . S
C2099 C780 1.713 . S
C2114 C833 1.705 . S
C2126 C1046 1.727 . S
C2141 C1523 1.718 . S
C2153 C886 1.712 . S
C2168 C728 1.723 . S
C2180 C939 1.699 . S
C2195 C1629 1.708 . S
C2207 C992 1.705 . S
C2222 C1045 1.711 . S
C2234 C834 1.718 . S
C2249 C1098 1.728 . S
C2261 C1311 1.693 . S
C2276 C1151 1.713 . S
C2288 C516 1.717 . S
C2303 C1417 1.701 . S
C2315 C1204 1.711 . S
C2330 C622 1.725 . S
C2342 C1257 1.701 . S
C2357 C1099 1.726 . S
C2369 C1310 1.707 . S
C2384 C1363 1.715 . S
C2396 C304 1.710 . S
C2411 C1416 1.720 . S
C2423 C1205 1.710 . S
C2438 C1469 1.729 . S
C2450 C410 1.693 . S
C2465 C887 1.693 . S
C2477 C1522 1.729 . S
C2492 C92 1.706 . S
C2504 C1575 1.723 . S
C2519 C993 1.726 . S
C2531 C1628 1.707 . S
C2546 C1681 1.713 . S
C2558 C198 1.714 . S
C2573 C29 2.322 . S
C2585 C453 2.363 . S
C2600 C82 2.369 . S
C2612 C1354 2.331 . S
C2627 C559 2.366 . S
C2639 C135 2.335 . S
C2654 C188 2.367 . S
C2666 C1460 2.333 . S
C2681 C241 2.368 . S
C2693 C665 2.332 . S
C2708 C1566 2.371 . S
C2720 C294 2.330 . S
C2735 C771 2.372 . S
C2747 C347 2.329 . S
C2762 C400 2.369 . S
C2774 C1672 2.331 . S
C2789 C506 2.373 . S
C2801 C930 2.328 . S
C2816 C612 2.338 . S
C2828 C1036 2.348 . S
C2843 C718 2.344 . S
C2855 C1142 2.358 . S
C2870 C1248 2.308 . S
C2882 C824 2.381 . S
C2897 C877 2.309 . S
C2909 C1301 2.379 . S
C2924 C983 2.313 . S
C2936 C1407 2.374 . S
C2951 C1089 2.317 . S
C2963 C1513 2.369 . S
C2978 C1619 2.342 . S
C2990 C1195 2.343 . S
C3005 C22 2.097 . S
C3017 C393 2.115 . S
C3032 C75 2.134 . S
C3044 C234 2.121 . S
C3059 C287 2.133 . S
C3071 C128 2.125 . S
C3086 C340 2.133 . S
C3098 C181 2.114 . S
C3113 C817 2.112 . S
C3125 C446 2.124 . S
C3140 C658 2.093 . S
C3152 C499 2.104 . S
C3167 C711 2.111 . S
C3179 C552 2.099 . S
C3194 C764 2.103 . S
C3206 C605 2.093 . S
C3221 C870 2.107 . S
C3233 C1241 2.130 . S
C3248 C1082 2.099 . S
C3260 C923 2.121 . S
C3275 C1135 2.134 . S
C3287 C976 2.122 . S
C3302 C1188 2.133 . S
C3314 C1029 2.113 . S
C3329 C1665 2.130 . S
C3341 C1294 2.127 . S
C3356 C1347 2.111 . S
C3368 C1506 2.123 . S
C3383 C1400 2.125 . S
C3395 C1559 2.113 . S
C3410 C1612 2.097 . S
C3422 C1453 2.091 . S
