# Generated by pormake.
# Topology umk, (4)-cn, num edge types: 1
# Building blocks:
#     Node 0, Type 0, BuildingBlock: QUQFOY_clean_sbu_3, # of connection points: 4
#     Node 1, Type 0, BuildingBlock: QUQFOY_clean_sbu_3, # of connection points: 4
#     Node 2, Type 0, BuildingBlock: QUQFOY_clean_sbu_3, # of connection points: 4
#     Node 3, Type 0, BuildingBlock: QUQFOY_clean_sbu_3, # of connection points: 4
#     Node 4, Type 0, BuildingBlock: QUQFOY_clean_sbu_3, # of connection points: 4
#     Node 5, Type 0, BuildingBlock: QUQFOY_clean_sbu_3, # of connection points: 4
#     Node 6, Type 0, BuildingBlock: QUQFOY_clean_sbu_3, # of connection points: 4
#     Node 7, Type 0, BuildingBlock: QUQFOY_clean_sbu_3, # of connection points: 4
#     Node 8, Type 0, BuildingBlock: QUQFOY_clean_sbu_3, # of connection points: 4
#     Node 9, Type 0, BuildingBlock: QUQFOY_clean_sbu_3, # of connection points: 4
#     Node 10, Type 0, BuildingBlock: QUQFOY_clean_sbu_3, # of connection points: 4
#     Node 11, Type 0, BuildingBlock: QUQFOY_clean_sbu_3, # of connection points: 4
#     Node 12, Type 0, BuildingBlock: QUQFOY_clean_sbu_3, # of connection points: 4
#     Node 13, Type 0, BuildingBlock: QUQFOY_clean_sbu_3, # of connection points: 4
#     Node 14, Type 0, BuildingBlock: QUQFOY_clean_sbu_3, # of connection points: 4
#     Node 15, Type 0, BuildingBlock: QUQFOY_clean_sbu_3, # of connection points: 4
#     Node 16, Type 0, BuildingBlock: QUQFOY_clean_sbu_3, # of connection points: 4
#     Node 17, Type 0, BuildingBlock: QUQFOY_clean_sbu_3, # of connection points: 4
#     Node 18, Type 0, BuildingBlock: QUQFOY_clean_sbu_3, # of connection points: 4
#     Node 19, Type 0, BuildingBlock: QUQFOY_clean_sbu_3, # of connection points: 4
#     Node 20, Type 0, BuildingBlock: QUQFOY_clean_sbu_3, # of connection points: 4
#     Node 21, Type 0, BuildingBlock: QUQFOY_clean_sbu_3, # of connection points: 4
#     Node 22, Type 0, BuildingBlock: QUQFOY_clean_sbu_3, # of connection points: 4
#     Node 23, Type 0, BuildingBlock: QUQFOY_clean_sbu_3, # of connection points: 4
#     Edge 24, Type (0, 0), BuildingBlock: ZUJKAS_clean_linker_0, # of connection points: 2
#     Edge 25, Type (0, 0), BuildingBlock: ZUJKAS_clean_linker_0, # of connection points: 2
#     Edge 26, Type (0, 0), BuildingBlock: ZUJKAS_clean_linker_0, # of connection points: 2
#     Edge 27, Type (0, 0), BuildingBlock: ZUJKAS_clean_linker_0, # of connection points: 2
#     Edge 28, Type (0, 0), BuildingBlock: ZUJKAS_clean_linker_0, # of connection points: 2
#     Edge 29, Type (0, 0), BuildingBlock: ZUJKAS_clean_linker_0, # of connection points: 2
#     Edge 30, Type (0, 0), BuildingBlock: ZUJKAS_clean_linker_0, # of connection points: 2
#     Edge 31, Type (0, 0), BuildingBlock: ZUJKAS_clean_linker_0, # of connection points: 2
#     Edge 32, Type (0, 0), BuildingBlock: ZUJKAS_clean_linker_0, # of connection points: 2
#     Edge 33, Type (0, 0), BuildingBlock: ZUJKAS_clean_linker_0, # of connection points: 2
#     Edge 34, Type (0, 0), BuildingBlock: ZUJKAS_clean_linker_0, # of connection points: 2
#     Edge 35, Type (0, 0), BuildingBlock: ZUJKAS_clean_linker_0, # of connection points: 2
#     Edge 36, Type (0, 0), BuildingBlock: ZUJKAS_clean_linker_0, # of connection points: 2
#     Edge 37, Type (0, 0), BuildingBlock: ZUJKAS_clean_linker_0, # of connection points: 2
#     Edge 38, Type (0, 0), BuildingBlock: ZUJKAS_clean_linker_0, # of connection points: 2
#     Edge 39, Type (0, 0), BuildingBlock: ZUJKAS_clean_linker_0, # of connection points: 2
#     Edge 40, Type (0, 0), BuildingBlock: ZUJKAS_clean_linker_0, # of connection points: 2
#     Edge 41, Type (0, 0), BuildingBlock: ZUJKAS_clean_linker_0, # of connection points: 2
#     Edge 42, Type (0, 0), BuildingBlock: ZUJKAS_clean_linker_0, # of connection points: 2
#     Edge 43, Type (0, 0), BuildingBlock: ZUJKAS_clean_linker_0, # of connection points: 2
#     Edge 44, Type (0, 0), BuildingBlock: ZUJKAS_clean_linker_0, # of connection points: 2
#     Edge 45, Type (0, 0), BuildingBlock: ZUJKAS_clean_linker_0, # of connection points: 2
#     Edge 46, Type (0, 0), BuildingBlock: ZUJKAS_clean_linker_0, # of connection points: 2
#     Edge 47, Type (0, 0), BuildingBlock: ZUJKAS_clean_linker_0, # of connection points: 2
#     Edge 48, Type (0, 0), BuildingBlock: ZUJKAS_clean_linker_0, # of connection points: 2
#     Edge 49, Type (0, 0), BuildingBlock: ZUJKAS_clean_linker_0, # of connection points: 2
#     Edge 50, Type (0, 0), BuildingBlock: ZUJKAS_clean_linker_0, # of connection points: 2
#     Edge 51, Type (0, 0), BuildingBlock: ZUJKAS_clean_linker_0, # of connection points: 2
#     Edge 52, Type (0, 0), BuildingBlock: ZUJKAS_clean_linker_0, # of connection points: 2
#     Edge 53, Type (0, 0), BuildingBlock: ZUJKAS_clean_linker_0, # of connection points: 2
#     Edge 54, Type (0, 0), BuildingBlock: ZUJKAS_clean_linker_0, # of connection points: 2
#     Edge 55, Type (0, 0), BuildingBlock: ZUJKAS_clean_linker_0, # of connection points: 2
#     Edge 56, Type (0, 0), BuildingBlock: ZUJKAS_clean_linker_0, # of connection points: 2
#     Edge 57, Type (0, 0), BuildingBlock: ZUJKAS_clean_linker_0, # of connection points: 2
#     Edge 58, Type (0, 0), BuildingBlock: ZUJKAS_clean_linker_0, # of connection points: 2
#     Edge 59, Type (0, 0), BuildingBlock: ZUJKAS_clean_linker_0, # of connection points: 2
#     Edge 60, Type (0, 0), BuildingBlock: ZUJKAS_clean_linker_0, # of connection points: 2
#     Edge 61, Type (0, 0), BuildingBlock: ZUJKAS_clean_linker_0, # of connection points: 2
#     Edge 62, Type (0, 0), BuildingBlock: ZUJKAS_clean_linker_0, # of connection points: 2
#     Edge 63, Type (0, 0), BuildingBlock: ZUJKAS_clean_linker_0, # of connection points: 2
#     Edge 64, Type (0, 0), BuildingBlock: ZUJKAS_clean_linker_0, # of connection points: 2
#     Edge 65, Type (0, 0), BuildingBlock: ZUJKAS_clean_linker_0, # of connection points: 2
#     Edge 66, Type (0, 0), BuildingBlock: ZUJKAS_clean_linker_0, # of connection points: 2
#     Edge 67, Type (0, 0), BuildingBlock: ZUJKAS_clean_linker_0, # of connection points: 2
#     Edge 68, Type (0, 0), BuildingBlock: ZUJKAS_clean_linker_0, # of connection points: 2
#     Edge 69, Type (0, 0), BuildingBlock: ZUJKAS_clean_linker_0, # of connection points: 2
#     Edge 70, Type (0, 0), BuildingBlock: ZUJKAS_clean_linker_0, # of connection points: 2
#     Edge 71, Type (0, 0), BuildingBlock: ZUJKAS_clean_linker_0, # of connection points: 2
# Relax obj value: 0.060
# Max RMSD: 0.040
# Mean RMSD: 0.040
data_MOF--net-umk--node1-QUQFOY_clean_sbu_3--edge1-ZUJKAS_clean_linker_0
_symmetry_space_group_name_H-M    P1
_symmetry_Int_Tables_number       1
_symmetry_cell_setting            triclinic
loop_
_symmetry_equiv_pos_as_xyz
'x, y, z'
_cell_length_a     87.666863
_cell_length_b     87.602167
_cell_length_c     57.61835
_cell_angle_alpha  89.981149
_cell_angle_beta   90.000028
_cell_angle_gamma 119.9774
loop_
_atom_site_label
_atom_site_type_symbol
_atom_site_fract_x
_atom_site_fract_y
_atom_site_fract_z
_atom_type_partial_charge
C0 C 0.33242 0.47062 0.12449 0.0
O1 O 0.3483 0.4826 0.12131 0.0
Cd2 Cd 0.36268 0.49081 0.08456 0.0
O3 O 0.32264 0.46217 0.10734 0.0
Cd4 Cd 0.32506 0.46271 0.0643 0.0
C5 C 0.35603 0.45059 0.06571 0.0
O6 O 0.34275 0.49454 0.06046 0.0
O7 O 0.34004 0.47996 0.02928 0.0
O8 O 0.29556 0.45849 0.06425 0.0
C9 C 0.34584 0.49483 0.03899 0.0
O10 O 0.36661 0.46637 0.07201 0.0
C11 C 0.28944 0.44645 0.04897 0.0
O12 O 0.33969 0.4452 0.06304 0.0
O13 O 0.29982 0.4415 0.04114 0.0
C14 C 0.85948 0.33727 0.63072 0.0
O15 O 0.86375 0.3532 0.62688 0.0
Cd16 Cd 0.86873 0.36694 0.58985 0.0
O17 O 0.85711 0.32681 0.61394 0.0
Cd18 Cd 0.85796 0.32835 0.57074 0.0
C19 C 0.90123 0.35912 0.56996 0.0
O20 O 0.84455 0.34658 0.567 0.0
O21 O 0.85562 0.34326 0.53546 0.0
O22 O 0.83173 0.29955 0.56929 0.0
C23 C 0.84706 0.34952 0.54546 0.0
O24 O 0.89646 0.37004 0.57624 0.0
C25 C 0.83812 0.29258 0.55606 0.0
O26 O 0.89003 0.34278 0.56795 0.0
O27 O 0.8541 0.30217 0.55 0.0
C28 C 0.51673 0.849 0.12986 0.0
O29 O 0.50431 0.85247 0.12894 0.0
Cd30 Cd 0.49501 0.86074 0.09474 0.0
O31 O 0.52466 0.84871 0.11146 0.0
Cd32 Cd 0.52184 0.85179 0.06889 0.0
C33 C 0.53486 0.89485 0.0757 0.0
O34 O 0.48997 0.83835 0.06739 0.0
O35 O 0.50358 0.85164 0.03621 0.0
O36 O 0.52569 0.82647 0.06348 0.0
C37 C 0.48904 0.84237 0.04656 0.0
O38 O 0.51961 0.8897 0.08413 0.0
C39 C 0.53771 0.8336 0.04825 0.0
O40 O 0.53946 0.88378 0.06959 0.0
O41 O 0.54265 0.84946 0.04286 0.0
C42 C 0.65722 0.52058 0.62769 0.0
O43 O 0.64143 0.50834 0.62469 0.0
Cd44 Cd 0.62611 0.5006 0.58883 0.0
O45 O 0.66666 0.52948 0.6105 0.0
Cd46 Cd 0.66374 0.52942 0.56729 0.0
C47 C 0.63258 0.54125 0.57184 0.0
O48 O 0.64572 0.49783 0.56294 0.0
O49 O 0.64817 0.51268 0.53209 0.0
O50 O 0.69246 0.53208 0.56378 0.0
C51 C 0.64219 0.49772 0.54164 0.0
O52 O 0.62247 0.52576 0.57955 0.0
C53 C 0.69926 0.54588 0.55134 0.0
O54 O 0.64849 0.54638 0.56636 0.0
O55 O 0.68957 0.55243 0.54652 0.0
C56 C 0.12286 0.65775 0.12223 0.0
O57 O 0.11761 0.64158 0.11843 0.0
Cd58 Cd 0.11566 0.62822 0.08154 0.0
O59 O 0.12747 0.66873 0.10552 0.0
Cd60 Cd 0.12872 0.66771 0.06249 0.0
C61 C 0.08535 0.63689 0.05661 0.0
O62 O 0.14152 0.64882 0.06139 0.0
O63 O 0.13451 0.65448 0.02807 0.0
O64 O 0.15456 0.69701 0.06227 0.0
C65 C 0.14119 0.64695 0.03961 0.0
O66 O 0.08931 0.62554 0.06373 0.0
C67 C 0.1481 0.7037 0.04863 0.0
O68 O 0.09689 0.6532 0.05593 0.0
O69 O 0.13241 0.69368 0.04175 0.0
C70 C 0.46422 0.13382 0.62484 0.0
O71 O 0.477 0.13103 0.62223 0.0
Cd72 Cd 0.4851 0.12345 0.58648 0.0
O73 O 0.45497 0.13342 0.60752 0.0
Cd74 Cd 0.4546 0.12978 0.56457 0.0
C75 C 0.44483 0.08758 0.57122 0.0
O76 O 0.48628 0.14506 0.56058 0.0
O77 O 0.47216 0.13214 0.52959 0.0
O78 O 0.44793 0.15341 0.56545 0.0
C79 C 0.48688 0.14174 0.53938 0.0
O80 O 0.46081 0.09398 0.5775 0.0
C81 C 0.43661 0.14749 0.54927 0.0
O82 O 0.43861 0.09762 0.56647 0.0
O83 O 0.43325 0.13289 0.54024 0.0
C84 C 0.52363 0.65136 0.8596 0.0
O85 O 0.51185 0.63554 0.86376 0.0
Cd86 Cd 0.50084 0.62359 0.90126 0.0
O87 O 0.53078 0.66242 0.87606 0.0
Cd88 Cd 0.52882 0.66258 0.91908 0.0
C89 C 0.53991 0.63088 0.92484 0.0
O90 O 0.49694 0.64544 0.92052 0.0
O91 O 0.50979 0.64995 0.95356 0.0
O92 O 0.53483 0.69265 0.91434 0.0
C93 C 0.49549 0.64352 0.9423 0.0
O94 O 0.52424 0.62005 0.91842 0.0
C95 C 0.54586 0.69901 0.93084 0.0
O96 O 0.54553 0.64739 0.9252 0.0
O97 O 0.54934 0.68846 0.94159 0.0
C98 C 0.85595 0.52245 0.36176 0.0
O99 O 0.85881 0.50973 0.36478 0.0
Cd100 Cd 0.86533 0.50131 0.40113 0.0
O101 O 0.8555 0.53137 0.37897 0.0
Cd102 Cd 0.85741 0.53083 0.42203 0.0
C103 C 0.90007 0.54146 0.41874 0.0
O104 O 0.84309 0.49916 0.42657 0.0
O105 O 0.85598 0.51399 0.45722 0.0
O106 O 0.83173 0.53419 0.42436 0.0
C107 C 0.84661 0.49904 0.44783 0.0
O108 O 0.89424 0.5256 0.41221 0.0
C109 C 0.83855 0.54762 0.43747 0.0
O110 O 0.88961 0.54734 0.42242 0.0
O111 O 0.85457 0.55371 0.44314 0.0
C112 C 0.33315 0.85956 0.8624 0.0
O113 O 0.34906 0.86444 0.86738 0.0
Cd114 Cd 0.36091 0.86732 0.90568 0.0
O115 O 0.32184 0.85611 0.87839 0.0
Cd116 Cd 0.32203 0.8571 0.92136 0.0
C117 C 0.35367 0.90004 0.92417 0.0
O118 O 0.33932 0.84273 0.92695 0.0
O119 O 0.33511 0.85403 0.95773 0.0
O120 O 0.29239 0.83197 0.92156 0.0
C121 C 0.34123 0.84501 0.94867 0.0
O122 O 0.36482 0.89497 0.92105 0.0
C123 C 0.28587 0.83906 0.93437 0.0
O124 O 0.33718 0.88932 0.92277 0.0
O125 O 0.29615 0.85484 0.94074 0.0
C126 C 0.46313 0.33571 0.36312 0.0
O127 O 0.47483 0.35172 0.36618 0.0
Cd128 Cd 0.48633 0.36547 0.40279 0.0
O129 O 0.45628 0.32534 0.38034 0.0
Cd130 Cd 0.45888 0.32728 0.42326 0.0
C131 C 0.44762 0.35904 0.42622 0.0
O132 O 0.49081 0.34495 0.42458 0.0
O133 O 0.47775 0.34152 0.45732 0.0
O134 O 0.45392 0.29742 0.42259 0.0
C135 C 0.49212 0.34773 0.44623 0.0
O136 O 0.4632 0.36972 0.41933 0.0
C137 C 0.44201 0.29147 0.43804 0.0
O138 O 0.44211 0.34258 0.42766 0.0
O139 O 0.43763 0.30216 0.44638 0.0
C140 C 0.11667 0.46179 0.86784 0.0
O141 O 0.11164 0.47296 0.87092 0.0
Cd142 Cd 0.11114 0.48593 0.90715 0.0
O143 O 0.1218 0.45621 0.88488 0.0
Cd144 Cd 0.12487 0.46059 0.92763 0.0
C145 C 0.08168 0.44784 0.93493 0.0
O146 O 0.13803 0.49231 0.92543 0.0
O147 O 0.13241 0.48178 0.96 0.0
O148 O 0.14962 0.45556 0.92365 0.0
C149 C 0.13878 0.49524 0.94699 0.0
O150 O 0.08545 0.46289 0.92698 0.0
C151 C 0.14552 0.4452 0.94088 0.0
O152 O 0.09324 0.4431 0.93567 0.0
O153 O 0.13154 0.44169 0.95175 0.0
C154 C 0.65695 0.13948 0.36076 0.0
O155 O 0.64104 0.13564 0.36339 0.0
Cd156 Cd 0.62559 0.12859 0.3994 0.0
O157 O 0.66641 0.14061 0.37821 0.0
Cd158 Cd 0.66318 0.13847 0.42119 0.0
C159 C 0.63263 0.09522 0.41827 0.0
O160 O 0.64464 0.15159 0.42484 0.0
O161 O 0.64691 0.13922 0.45584 0.0
O162 O 0.69185 0.1646 0.42533 0.0
C163 C 0.64086 0.14806 0.44606 0.0
O164 O 0.62198 0.10017 0.41133 0.0
C165 C 0.69836 0.15751 0.43815 0.0
O166 O 0.64876 0.10641 0.42196 0.0
O167 O 0.68855 0.14127 0.44285 0.0
C168 C 0.65582 0.51834 0.86455 0.0
O169 O 0.63986 0.50647 0.86745 0.0
Cd170 Cd 0.62506 0.49729 0.90389 0.0
O171 O 0.6656 0.52637 0.88189 0.0
Cd172 Cd 0.66273 0.52516 0.92489 0.0
C173 C 0.63134 0.53685 0.92447 0.0
O174 O 0.645 0.49339 0.92774 0.0
O175 O 0.64745 0.50721 0.95955 0.0
O176 O 0.69209 0.52917 0.92757 0.0
C177 C 0.6416 0.49257 0.94917 0.0
O178 O 0.62071 0.52122 0.91765 0.0
C179 C 0.69822 0.54255 0.94075 0.0
O180 O 0.64765 0.54213 0.92704 0.0
O181 O 0.68782 0.54805 0.94647 0.0
C182 C 0.13107 0.65696 0.36076 0.0
O183 O 0.12782 0.64126 0.36386 0.0
Cd184 Cd 0.1215 0.62661 0.40045 0.0
O185 O 0.13192 0.66653 0.37794 0.0
Cd186 Cd 0.1301 0.66411 0.42102 0.0
C187 C 0.08724 0.63244 0.41862 0.0
O188 O 0.14435 0.64665 0.42539 0.0
O189 O 0.13171 0.64875 0.4562 0.0
O190 O 0.15574 0.69322 0.42351 0.0
C191 C 0.14104 0.64316 0.44671 0.0
O192 O 0.09274 0.62213 0.41216 0.0
C193 C 0.14874 0.6998 0.43637 0.0
O194 O 0.09796 0.64877 0.42189 0.0
O195 O 0.13271 0.68979 0.44191 0.0
C196 C 0.46531 0.13433 0.85984 0.0
O197 O 0.47802 0.13138 0.86205 0.0
Cd198 Cd 0.48601 0.12293 0.89709 0.0
O199 O 0.45625 0.13387 0.87742 0.0
Cd200 Cd 0.45686 0.12991 0.92028 0.0
C201 C 0.44573 0.08753 0.91278 0.0
O202 O 0.48866 0.14426 0.92492 0.0
O203 O 0.47338 0.12909 0.95422 0.0
O204 O 0.45223 0.1548 0.92448 0.0
C205 C 0.48841 0.13938 0.94566 0.0
O206 O 0.46136 0.09344 0.90529 0.0
C207 C 0.43971 0.1475 0.93898 0.0
O208 O 0.4402 0.0979 0.91881 0.0
O209 O 0.43481 0.13168 0.94457 0.0
C210 C 0.33109 0.4682 0.3617 0.0
O211 O 0.34719 0.47973 0.3644 0.0
Cd212 Cd 0.36176 0.49134 0.40041 0.0
O213 O 0.32095 0.46148 0.37915 0.0
Cd214 Cd 0.32443 0.46445 0.42209 0.0
C215 C 0.35556 0.45247 0.42297 0.0
O216 O 0.34214 0.49645 0.4234 0.0
O217 O 0.34115 0.48308 0.45515 0.0
O218 O 0.29484 0.46009 0.4249 0.0
C219 C 0.3461 0.49753 0.44468 0.0
O220 O 0.36628 0.46809 0.41621 0.0
C221 C 0.28959 0.44821 0.44038 0.0
O222 O 0.33918 0.44714 0.42486 0.0
O223 O 0.30047 0.44354 0.44701 0.0
C224 C 0.85921 0.33622 0.87053 0.0
O225 O 0.86346 0.35207 0.87489 0.0
Cd226 Cd 0.86665 0.36432 0.91271 0.0
O227 O 0.85606 0.32528 0.88695 0.0
Cd228 Cd 0.85494 0.32523 0.93012 0.0
C229 C 0.89805 0.35575 0.93492 0.0
O230 O 0.84097 0.34309 0.93264 0.0
O231 O 0.84975 0.33838 0.96521 0.0
O232 O 0.83032 0.29549 0.92564 0.0
C233 C 0.84193 0.34509 0.95441 0.0
O234 O 0.89363 0.36697 0.92877 0.0
C235 C 0.83509 0.28876 0.94157 0.0
O236 O 0.88677 0.33936 0.93537 0.0
O237 O 0.84935 0.299 0.95206 0.0
C238 C 0.52866 0.86767 0.36083 0.0
O239 O 0.51693 0.8721 0.36209 0.0
Cd240 Cd 0.50471 0.87587 0.39715 0.0
O241 O 0.53505 0.86491 0.37917 0.0
Cd242 Cd 0.53116 0.86606 0.42173 0.0
C243 C 0.5429 0.90908 0.42066 0.0
O244 O 0.49912 0.85161 0.4215 0.0
O245 O 0.51164 0.86397 0.4537 0.0
O246 O 0.53528 0.84073 0.42425 0.0
C247 C 0.49749 0.85447 0.44263 0.0
O248 O 0.52747 0.90384 0.41285 0.0
C249 C 0.54648 0.84672 0.44057 0.0
O250 O 0.54839 0.89824 0.42387 0.0
O251 O 0.55094 0.86204 0.44799 0.0
C252 C 0.46589 0.33152 0.12514 0.0
O253 O 0.47849 0.34705 0.12153 0.0
Cd254 Cd 0.48714 0.36068 0.08439 0.0
O255 O 0.45708 0.3216 0.10827 0.0
Cd256 Cd 0.45745 0.32261 0.06508 0.0
C257 C 0.44716 0.35498 0.06549 0.0
O258 O 0.48922 0.33908 0.06188 0.0
O259 O 0.47553 0.33604 0.02984 0.0
O260 O 0.45033 0.29214 0.06849 0.0
C261 C 0.49012 0.34184 0.04027 0.0
O262 O 0.46304 0.36522 0.07175 0.0
C263 C 0.43903 0.28637 0.05227 0.0
O264 O 0.44127 0.33853 0.06298 0.0
O265 O 0.43604 0.29747 0.04208 0.0
C266 C 0.12716 0.46904 0.62956 0.0
O267 O 0.12407 0.48153 0.6258 0.0
Cd268 Cd 0.12003 0.49062 0.58839 0.0
O269 O 0.12904 0.46066 0.61275 0.0
Cd270 Cd 0.12969 0.46189 0.5696 0.0
C271 C 0.08688 0.45069 0.56783 0.0
O272 O 0.1444 0.49378 0.56647 0.0
O273 O 0.13412 0.47985 0.53445 0.0
O274 O 0.15386 0.45598 0.57291 0.0
C275 C 0.14262 0.49453 0.5448 0.0
O276 O 0.09205 0.46648 0.57414 0.0
C277 C 0.14857 0.44453 0.55687 0.0
O278 O 0.09772 0.44507 0.56612 0.0
O279 O 0.13419 0.44083 0.54695 0.0
C280 C 0.65124 0.12312 0.12488 0.0
O281 O 0.6351 0.11835 0.12204 0.0
Cd282 Cd 0.62083 0.11395 0.08536 0.0
O283 O 0.66126 0.12589 0.10747 0.0
Cd284 Cd 0.65814 0.12419 0.06458 0.0
C285 C 0.62772 0.08099 0.06562 0.0
O286 O 0.64025 0.13822 0.06148 0.0
O287 O 0.64156 0.12506 0.03065 0.0
O288 O 0.68743 0.14975 0.06348 0.0
C289 C 0.63655 0.13485 0.0402 0.0
O290 O 0.61682 0.08595 0.07127 0.0
C291 C 0.69335 0.1439 0.04785 0.0
O292 O 0.6441 0.09209 0.06385 0.0
O293 O 0.68295 0.12851 0.04025 0.0
C294 C 0.51914 0.65597 0.61845 0.0
O295 O 0.50662 0.64072 0.61331 0.0
Cd296 Cd 0.49916 0.62962 0.57463 0.0
O297 O 0.52842 0.6668 0.6026 0.0
Cd298 Cd 0.52925 0.66785 0.55957 0.0
C299 C 0.53957 0.63583 0.55781 0.0
O300 O 0.49764 0.65211 0.55347 0.0
O301 O 0.51305 0.65415 0.5234 0.0
O302 O 0.53521 0.69782 0.56425 0.0
C303 C 0.49803 0.64948 0.53196 0.0
O304 O 0.5232 0.62522 0.56099 0.0
C305 C 0.54708 0.70449 0.54879 0.0
O306 O 0.54593 0.65244 0.5586 0.0
O307 O 0.55106 0.69412 0.53851 0.0
C308 C 0.86606 0.53034 0.12415 0.0
O309 O 0.87129 0.51935 0.12085 0.0
Cd310 Cd 0.8725 0.5073 0.08415 0.0
O311 O 0.8612 0.53621 0.10715 0.0
Cd312 Cd 0.85927 0.53265 0.06435 0.0
C313 C 0.90243 0.54546 0.0574 0.0
O314 O 0.84597 0.50083 0.06453 0.0
O315 O 0.85401 0.51291 0.03093 0.0
O316 O 0.83318 0.53563 0.06454 0.0
C317 C 0.84653 0.49888 0.04287 0.0
O318 O 0.89858 0.53027 0.06485 0.0
C319 C 0.83915 0.54845 0.05038 0.0
O320 O 0.89091 0.55026 0.05702 0.0
O321 O 0.85467 0.55411 0.04284 0.0
C322 C 0.33101 0.85293 0.62123 0.0
O323 O 0.34639 0.85566 0.61705 0.0
Cd324 Cd 0.36029 0.86397 0.58008 0.0
O325 O 0.32141 0.85341 0.60494 0.0
Cd326 Cd 0.323 0.85697 0.56193 0.0
C327 C 0.35436 0.89942 0.56814 0.0
O328 O 0.3399 0.84258 0.55377 0.0
O329 O 0.33895 0.85847 0.52591 0.0
O330 O 0.29406 0.83126 0.55919 0.0
C331 C 0.34358 0.84767 0.53293 0.0
O332 O 0.36462 0.89346 0.57285 0.0
C333 C 0.28718 0.83842 0.54725 0.0
O334 O 0.33803 0.88897 0.56447 0.0
O335 O 0.29694 0.85464 0.54235 0.0
H336 H 0.30184 0.44193 0.13983 0.0
H337 H 0.29105 0.43525 0.18 0.0
H338 H 0.33611 0.48366 0.20288 0.0
H339 H 0.347 0.49038 0.16319 0.0
H340 H 0.31113 0.43235 0.2182 0.0
H341 H 0.29335 0.48379 0.23406 0.0
H342 H 0.29468 0.47635 0.20523 0.0
H343 H 0.31433 0.49232 0.21998 0.0
C344 C 0.30934 0.45122 0.15342 0.0
C345 C 0.32531 0.46666 0.14836 0.0
C346 C 0.30314 0.44739 0.17629 0.0
C347 C 0.31264 0.45913 0.19425 0.0
C348 C 0.32841 0.47462 0.18916 0.0
H349 H 0.34999 0.47026 0.32344 0.0
H350 H 0.33961 0.46299 0.28358 0.0
C351 C 0.33469 0.47836 0.16648 0.0
C352 C 0.30728 0.45479 0.21875 0.0
H353 H 0.30252 0.47372 0.26784 0.0
C354 C 0.30864 0.441 0.22903 0.0
C355 C 0.30381 0.46594 0.23277 0.0
C356 C 0.30127 0.48033 0.22241 0.0
C357 C 0.30852 0.4393 0.25323 0.0
C358 C 0.30705 0.45172 0.26728 0.0
C359 C 0.30378 0.4643 0.25697 0.0
C360 C 0.31238 0.45411 0.2919 0.0
C361 C 0.3112 0.42503 0.26366 0.0
C362 C 0.30044 0.45154 0.30974 0.0
C363 C 0.30634 0.45557 0.33273 0.0
C364 C 0.32431 0.46262 0.33794 0.0
C365 C 0.3361 0.46495 0.31996 0.0
C366 C 0.33017 0.46067 0.29721 0.0
H367 H 0.30692 0.41375 0.25155 0.0
H368 H 0.32541 0.43046 0.26736 0.0
H369 H 0.30384 0.42018 0.28023 0.0
H370 H 0.28668 0.44668 0.30584 0.0
H371 H 0.29699 0.45372 0.34626 0.0
H372 H 0.8607 0.3554 0.66964 0.0
H373 H 0.85703 0.3455 0.70974 0.0
H374 H 0.84924 0.29511 0.68749 0.0
H375 H 0.8529 0.30492 0.64683 0.0
H376 H 0.8252 0.31161 0.72824 0.0
H377 H 0.89112 0.31725 0.73859 0.0
H378 H 0.88771 0.33002 0.71672 0.0
H379 H 0.87764 0.30661 0.71347 0.0
C380 C 0.85822 0.3422 0.67312 0.0
C381 C 0.85713 0.33096 0.65499 0.0
C382 C 0.85608 0.33656 0.69607 0.0
C383 C 0.85291 0.31963 0.70145 0.0
C384 C 0.85175 0.30826 0.68355 0.0
H385 H 0.85408 0.30464 0.8535 0.0
H386 H 0.85027 0.29525 0.81267 0.0
C387 C 0.85382 0.31389 0.66041 0.0
C388 C 0.85098 0.31438 0.72606 0.0
H389 H 0.87598 0.31664 0.77271 0.0
C390 C 0.83604 0.31211 0.73796 0.0
C391 C 0.86513 0.31498 0.73857 0.0
C392 C 0.88137 0.31733 0.72633 0.0
C393 C 0.83551 0.31191 0.76225 0.0
C394 C 0.85037 0.31426 0.77478 0.0
C395 C 0.86464 0.31488 0.76293 0.0
C396 C 0.85262 0.31943 0.79944 0.0
C397 C 0.81959 0.31046 0.77437 0.0
C398 C 0.85549 0.33619 0.80524 0.0
C399 C 0.85783 0.34164 0.82829 0.0
C400 C 0.85727 0.33039 0.84607 0.0
C401 C 0.85453 0.31359 0.84019 0.0
C402 C 0.85234 0.30819 0.81695 0.0
H403 H 0.80771 0.304 0.76315 0.0
H404 H 0.8169 0.30288 0.79079 0.0
H405 H 0.82212 0.32387 0.77871 0.0
H406 H 0.85595 0.3451 0.79184 0.0
H407 H 0.85989 0.35464 0.83214 0.0
H408 H 0.54537 0.84922 0.34965 0.0
H409 H 0.55263 0.84356 0.31054 0.0
H410 H 0.53242 0.87522 0.28118 0.0
H411 H 0.52507 0.88081 0.3198 0.0
H412 H 0.5268 0.82689 0.27481 0.0
H413 H 0.57963 0.89249 0.24686 0.0
H414 H 0.57458 0.8865 0.27709 0.0
H415 H 0.56194 0.89379 0.26059 0.0
C416 C 0.54276 0.8552 0.33484 0.0
C417 C 0.53458 0.8654 0.33775 0.0
C418 C 0.54693 0.85196 0.31259 0.0
C419 C 0.54333 0.85922 0.29308 0.0
C420 C 0.53566 0.86981 0.29607 0.0
H421 H 0.49765 0.83925 0.16968 0.0
H422 H 0.50779 0.83797 0.20853 0.0
C423 C 0.5313 0.87285 0.31815 0.0
C424 C 0.54554 0.85438 0.26927 0.0
H425 H 0.55989 0.87351 0.2163 0.0
C426 C 0.53451 0.83694 0.26204 0.0
C427 C 0.55586 0.86739 0.25272 0.0
C428 C 0.56882 0.88606 0.25976 0.0
C429 C 0.53192 0.83266 0.23838 0.0
C430 C 0.54046 0.84621 0.22176 0.0
C431 C 0.55314 0.86316 0.22907 0.0
C432 C 0.5339 0.8441 0.19767 0.0
C433 C 0.51915 0.81393 0.23137 0.0
C434 C 0.54523 0.84799 0.17861 0.0
C435 C 0.53941 0.84873 0.15622 0.0
C436 C 0.52233 0.84598 0.15274 0.0
C437 C 0.5109 0.84152 0.1718 0.0
C438 C 0.51662 0.84058 0.19401 0.0
H439 H 0.51897 0.80447 0.24438 0.0
H440 H 0.50568 0.81207 0.2305 0.0
H441 H 0.52252 0.81079 0.21411 0.0
H442 H 0.55869 0.85099 0.18117 0.0
H443 H 0.54853 0.85226 0.14184 0.0
H444 H 0.64143 0.49892 0.82559 0.0
H445 H 0.6528 0.50562 0.78613 0.0
H446 H 0.69781 0.55383 0.80961 0.0
H447 H 0.68655 0.54713 0.84963 0.0
H448 H 0.67702 0.55566 0.76916 0.0
H449 H 0.69745 0.50564 0.75874 0.0
H450 H 0.67649 0.49719 0.77287 0.0
H451 H 0.69601 0.51418 0.78673 0.0
C452 C 0.65379 0.51092 0.8225 0.0
C453 C 0.66308 0.5225 0.84075 0.0
C454 C 0.66033 0.51466 0.79995 0.0
C455 C 0.67624 0.53007 0.7951 0.0
C456 C 0.68559 0.54177 0.81315 0.0
H457 H 0.68852 0.54857 0.643 0.0
H458 H 0.69937 0.55485 0.68323 0.0
C459 C 0.67914 0.53793 0.83592 0.0
C460 C 0.6821 0.53406 0.77074 0.0
H461 H 0.68803 0.51402 0.72373 0.0
C462 C 0.68012 0.54705 0.75919 0.0
C463 C 0.68624 0.52286 0.75795 0.0
C464 C 0.68935 0.50928 0.76974 0.0
C465 C 0.68019 0.54779 0.73484 0.0
C466 C 0.68242 0.53529 0.72202 0.0
C467 C 0.68625 0.52354 0.73366 0.0
C468 C 0.67697 0.53161 0.69748 0.0
C469 C 0.67615 0.56071 0.72297 0.0
C470 C 0.66098 0.51642 0.69234 0.0
C471 C 0.65476 0.51285 0.66965 0.0
C472 C 0.66446 0.52437 0.65152 0.0
C473 C 0.68074 0.53946 0.65661 0.0
C474 C 0.68694 0.54309 0.67951 0.0
H475 H 0.67466 0.56951 0.73551 0.0
H476 H 0.6869 0.56896 0.71067 0.0
H477 H 0.66379 0.55347 0.71279 0.0
H478 H 0.6531 0.50744 0.70603 0.0
H479 H 0.64224 0.50106 0.6664 0.0
H480 H 0.13819 0.64382 0.32212 0.0
H481 H 0.1402 0.6538 0.28218 0.0
H482 H 0.1313 0.69559 0.30497 0.0
H483 H 0.12938 0.68573 0.34534 0.0
H484 H 0.10829 0.67315 0.2687 0.0
H485 H 0.17842 0.69816 0.24774 0.0
H486 H 0.16852 0.67733 0.26252 0.0
H487 H 0.17052 0.69638 0.27717 0.0
C488 C 0.13687 0.65527 0.31874 0.0
C489 C 0.13356 0.66395 0.33687 0.0
C490 C 0.13818 0.66105 0.29592 0.0
C491 C 0.13616 0.67557 0.29072 0.0
C492 C 0.1331 0.68448 0.30874 0.0
H493 H 0.14152 0.6915 0.13914 0.0
H494 H 0.14479 0.70072 0.17997 0.0
C495 C 0.132 0.67882 0.33173 0.0
C496 C 0.13551 0.68004 0.26616 0.0
H497 H 0.15798 0.6869 0.21538 0.0
C498 C 0.11929 0.67668 0.25706 0.0
C499 C 0.14993 0.68488 0.25109 0.0
C500 C 0.16789 0.68957 0.26015 0.0
C501 C 0.11666 0.67635 0.23302 0.0
C502 C 0.13058 0.67935 0.2179 0.0
C503 C 0.14727 0.68442 0.22705 0.0
C504 C 0.12739 0.67449 0.19311 0.0
C505 C 0.09875 0.67183 0.22396 0.0
C506 C 0.1166 0.65672 0.18714 0.0
C507 C 0.11489 0.65141 0.16405 0.0
C508 C 0.1239 0.66378 0.14642 0.0
C509 C 0.13436 0.68169 0.15235 0.0
C510 C 0.13624 0.68698 0.1756 0.0
H511 H 0.09154 0.67542 0.23667 0.0
H512 H 0.09983 0.67866 0.20728 0.0
H513 H 0.09087 0.65741 0.22093 0.0
H514 H 0.10993 0.64684 0.20047 0.0
H515 H 0.10668 0.63753 0.16007 0.0
H516 H 0.43597 0.13571 0.84592 0.0
H517 H 0.42871 0.14034 0.80624 0.0
H518 H 0.47778 0.1461 0.78169 0.0
H519 H 0.48513 0.14157 0.82081 0.0
H520 H 0.4681 0.17235 0.76482 0.0
H521 H 0.41615 0.10188 0.75373 0.0
H522 H 0.41581 0.11419 0.77861 0.0
H523 H 0.43258 0.10827 0.7762 0.0
C524 C 0.44525 0.13811 0.83206 0.0
C525 C 0.46106 0.13812 0.83647 0.0
C526 C 0.44107 0.14072 0.80947 0.0
C527 C 0.45271 0.14348 0.79114 0.0
C528 C 0.46867 0.14402 0.79566 0.0
H529 H 0.48558 0.14375 0.66262 0.0
H530 H 0.479 0.14899 0.70183 0.0
C531 C 0.47279 0.14133 0.81804 0.0
C532 C 0.44832 0.1449 0.7668 0.0
H533 H 0.42861 0.1185 0.71998 0.0
C534 C 0.45902 0.16075 0.75503 0.0
C535 C 0.43635 0.12977 0.75417 0.0
C536 C 0.42451 0.1125 0.76617 0.0
C537 C 0.45931 0.16141 0.73073 0.0
C538 C 0.44882 0.14578 0.71807 0.0
C539 C 0.4367 0.13043 0.72982 0.0
C540 C 0.45286 0.14415 0.69363 0.0
C541 C 0.47175 0.17851 0.7188 0.0
C542 C 0.44021 0.13946 0.67606 0.0
C543 C 0.44397 0.13646 0.65344 0.0
C544 C 0.46028 0.13776 0.64829 0.0
C545 C 0.47288 0.14257 0.66599 0.0
C546 C 0.46921 0.14575 0.68838 0.0
H547 H 0.4741 0.19 0.72958 0.0
H548 H 0.48461 0.1792 0.71611 0.0
H549 H 0.46657 0.1795 0.70162 0.0
H550 H 0.42743 0.13793 0.67992 0.0
H551 H 0.43398 0.13272 0.64016 0.0
H552 H 0.49807 0.63973 0.6557 0.0
H553 H 0.5048 0.6472 0.69662 0.0
H554 H 0.55566 0.69088 0.67826 0.0
H555 H 0.54899 0.6836 0.637 0.0
H556 H 0.55453 0.66527 0.71324 0.0
H557 H 0.50979 0.69115 0.73334 0.0
H558 H 0.49977 0.67122 0.71648 0.0
H559 H 0.51758 0.69102 0.7043 0.0
C560 C 0.51065 0.65102 0.66029 0.0
C561 C 0.52302 0.66106 0.64312 0.0
C562 C 0.51441 0.65533 0.68366 0.0
C563 C 0.53062 0.6697 0.69033 0.0
C564 C 0.54301 0.67984 0.67333 0.0
H565 H 0.5405 0.68495 0.84202 0.0
H566 H 0.54663 0.69359 0.80101 0.0
C567 C 0.53917 0.67566 0.64983 0.0
C568 C 0.53482 0.67305 0.71524 0.0
H569 H 0.51871 0.67991 0.76558 0.0
C570 C 0.54706 0.66893 0.7247 0.0
C571 C 0.52518 0.678 0.73003 0.0
C572 C 0.51245 0.68327 0.72055 0.0
C573 C 0.54882 0.66819 0.7488 0.0
C574 C 0.53803 0.67161 0.76359 0.0
C575 C 0.52689 0.6772 0.75413 0.0
C576 C 0.53612 0.66694 0.78843 0.0
C577 C 0.56156 0.66292 0.75827 0.0
C578 C 0.52817 0.64914 0.79474 0.0
C579 C 0.52445 0.64416 0.81793 0.0
C580 C 0.52871 0.65692 0.83529 0.0
C581 C 0.53714 0.67483 0.82901 0.0
C582 C 0.54065 0.6798 0.80566 0.0
H583 H 0.57221 0.6657 0.74563 0.0
H584 H 0.56756 0.66994 0.77475 0.0
H585 H 0.55438 0.64855 0.76188 0.0
H586 H 0.52432 0.63902 0.7816 0.0
H587 H 0.51802 0.63027 0.82221 0.0
H588 H 0.85872 0.55339 0.34636 0.0
H589 H 0.85724 0.56158 0.30599 0.0
H590 H 0.84646 0.51024 0.28324 0.0
H591 H 0.848 0.50201 0.32318 0.0
H592 H 0.87993 0.56146 0.27021 0.0
H593 H 0.80979 0.51804 0.24795 0.0
H594 H 0.81742 0.52376 0.27754 0.0
H595 H 0.81888 0.5064 0.26285 0.0
C596 C 0.85576 0.54377 0.33276 0.0
C597 C 0.85356 0.52708 0.33791 0.0
C598 C 0.85491 0.54847 0.30977 0.0
C599 C 0.85148 0.53641 0.29175 0.0
C600 C 0.84877 0.5196 0.29697 0.0
H601 H 0.88209 0.52676 0.16251 0.0
H602 H 0.87875 0.53345 0.20258 0.0
C603 C 0.84982 0.51498 0.3198 0.0
C604 C 0.85254 0.54165 0.26719 0.0
H605 H 0.8306 0.52645 0.216 0.0
C606 C 0.86903 0.55421 0.25837 0.0
C607 C 0.83825 0.53239 0.25183 0.0
C608 C 0.82003 0.51952 0.26055 0.0
C609 C 0.872 0.55644 0.23438 0.0
C610 C 0.85817 0.54574 0.21902 0.0
C611 C 0.84125 0.5345 0.22785 0.0
C612 C 0.86158 0.54383 0.1944 0.0
C613 C 0.89015 0.5695 0.22567 0.0
C614 C 0.85293 0.54738 0.17652 0.0
C615 C 0.85485 0.54358 0.15347 0.0
C616 C 0.86515 0.53586 0.1481 0.0
C617 C 0.87402 0.53265 0.16606 0.0
C618 C 0.87226 0.53662 0.18897 0.0
H619 H 0.89731 0.58036 0.23831 0.0
H620 H 0.89785 0.56269 0.2233 0.0
H621 H 0.8895 0.5752 0.20872 0.0
H622 H 0.84446 0.55275 0.18047 0.0
H623 H 0.8478 0.54614 0.13999 0.0
H624 H 0.34393 0.84309 0.65762 0.0
H625 H 0.33545 0.84071 0.6983 0.0
H626 H 0.29541 0.85363 0.68071 0.0
H627 H 0.30379 0.85597 0.63963 0.0
H628 H 0.32002 0.87519 0.71588 0.0
H629 H 0.29152 0.80414 0.73486 0.0
H630 H 0.31177 0.81316 0.71885 0.0
H631 H 0.29281 0.81252 0.70581 0.0
C632 C 0.33314 0.84518 0.66229 0.0
C633 C 0.32458 0.84979 0.64543 0.0
C634 C 0.32821 0.84365 0.68554 0.0
C635 C 0.31466 0.84676 0.69242 0.0
C636 C 0.30578 0.85099 0.67563 0.0
H637 H 0.2997 0.84296 0.8444 0.0
H638 H 0.2913 0.83969 0.80326 0.0
C639 C 0.31058 0.85232 0.65223 0.0
C640 C 0.31139 0.84747 0.71742 0.0
H641 H 0.30423 0.82403 0.76747 0.0
C642 C 0.3161 0.86391 0.72717 0.0
C643 C 0.30612 0.83271 0.73204 0.0
C644 C 0.30009 0.81459 0.72235 0.0
C645 C 0.31712 0.86628 0.75129 0.0
C646 C 0.31339 0.85186 0.76585 0.0
C647 C 0.30723 0.8351 0.75618 0.0
C648 C 0.31808 0.8544 0.79069 0.0
C649 C 0.32302 0.88437 0.76103 0.0
C650 C 0.33589 0.86359 0.79704 0.0
C651 C 0.34074 0.86531 0.82034 0.0
C652 C 0.32783 0.85793 0.83777 0.0
C653 C 0.30994 0.84885 0.83137 0.0
C654 C 0.30511 0.84697 0.80794 0.0
H655 H 0.32079 0.8927 0.7485 0.0
H656 H 0.31599 0.88348 0.77745 0.0
H657 H 0.33733 0.89099 0.76486 0.0
H658 H 0.34608 0.86919 0.78389 0.0
H659 H 0.35462 0.87241 0.82467 0.0
H660 H 0.46795 0.35524 0.32429 0.0
H661 H 0.46039 0.34485 0.28445 0.0
H662 H 0.43852 0.29112 0.30764 0.0
H663 H 0.44592 0.30143 0.34793 0.0
H664 H 0.46505 0.30308 0.27041 0.0
H665 H 0.41129 0.31704 0.25161 0.0
H666 H 0.42951 0.33474 0.26659 0.0
H667 H 0.41682 0.31376 0.28074 0.0
C668 C 0.46137 0.34119 0.32102 0.0
C669 C 0.45758 0.32915 0.33924 0.0
C670 C 0.45693 0.33527 0.29827 0.0
C671 C 0.44868 0.31723 0.29323 0.0
C672 C 0.4447 0.30509 0.31131 0.0
H673 H 0.43537 0.30337 0.14154 0.0
H674 H 0.42797 0.29403 0.18218 0.0
C675 C 0.44895 0.311 0.33424 0.0
C676 C 0.44589 0.31159 0.26873 0.0
H677 H 0.42884 0.31763 0.2187 0.0
C678 C 0.45672 0.3057 0.25912 0.0
C679 C 0.43485 0.3148 0.25413 0.0
C680 C 0.42232 0.32027 0.26381 0.0
C681 C 0.45812 0.30469 0.235 0.0
C682 C 0.44851 0.30978 0.22035 0.0
C683 C 0.43632 0.31389 0.23001 0.0
C684 C 0.45316 0.31396 0.19565 0.0
C685 C 0.47068 0.29926 0.22533 0.0
C686 C 0.46968 0.3283 0.18997 0.0
C687 C 0.47383 0.3338 0.16702 0.0
C688 C 0.46155 0.32501 0.14924 0.0
C689 C 0.44511 0.31036 0.15488 0.0
C690 C 0.44087 0.30499 0.17801 0.0
H691 H 0.4727 0.29071 0.23773 0.0
H692 H 0.4658 0.29214 0.20861 0.0
H693 H 0.48365 0.31121 0.22217 0.0
H694 H 0.47921 0.33559 0.20343 0.0
H695 H 0.48663 0.34507 0.16325 0.0
H696 H 0.1318 0.48857 0.66835 0.0
H697 H 0.13264 0.48037 0.70854 0.0
H698 H 0.1261 0.43049 0.68615 0.0
H699 H 0.1254 0.43867 0.64553 0.0
H700 H 0.1016 0.4295 0.72197 0.0
H701 H 0.17154 0.47505 0.74382 0.0
H702 H 0.16155 0.48554 0.72817 0.0
H703 H 0.16396 0.46845 0.71437 0.0
C704 C 0.13069 0.47591 0.67188 0.0
C705 C 0.1285 0.46425 0.65376 0.0
C706 C 0.13131 0.4713 0.69485 0.0
C707 C 0.12968 0.45495 0.70021 0.0
C708 C 0.12758 0.44325 0.68225 0.0
H709 H 0.13515 0.44629 0.85177 0.0
H710 H 0.13804 0.43937 0.81127 0.0
C711 C 0.12717 0.44795 0.65912 0.0
C712 C 0.12879 0.44986 0.7248 0.0
H713 H 0.15088 0.46557 0.77577 0.0
C714 C 0.1125 0.43699 0.73374 0.0
C715 C 0.14309 0.45947 0.74001 0.0
C716 C 0.16109 0.47279 0.7311 0.0
C717 C 0.10969 0.43472 0.75776 0.0
C718 C 0.1235 0.44568 0.77301 0.0
C719 C 0.14025 0.45729 0.76402 0.0
C720 C 0.12016 0.44745 0.79771 0.0
C721 C 0.09173 0.4213 0.76664 0.0
C722 C 0.10916 0.45425 0.80336 0.0
C723 C 0.10766 0.45841 0.82627 0.0
C724 C 0.11711 0.4558 0.84402 0.0
C725 C 0.12766 0.44838 0.83846 0.0
C726 C 0.12932 0.44441 0.81539 0.0
H727 H 0.08473 0.41038 0.75401 0.0
H728 H 0.09267 0.41572 0.78353 0.0
H729 H 0.08371 0.42775 0.76915 0.0
H730 H 0.10227 0.45704 0.78989 0.0
H731 H 0.09938 0.46403 0.82999 0.0
H732 H 0.68567 0.13752 0.34593 0.0
H733 H 0.69552 0.13891 0.30566 0.0
H734 H 0.65444 0.14865 0.28213 0.0
H735 H 0.64451 0.14717 0.32196 0.0
H736 H 0.67274 0.11539 0.27075 0.0
H737 H 0.69821 0.18482 0.24541 0.0
H738 H 0.69673 0.17796 0.27533 0.0
H739 H 0.67766 0.17591 0.26067 0.0
C740 C 0.67897 0.14028 0.33217 0.0
C741 C 0.66425 0.14214 0.33705 0.0
C742 C 0.68462 0.14109 0.30924 0.0
C743 C 0.67587 0.14415 0.29103 0.0
C744 C 0.66161 0.14664 0.296 0.0
H745 H 0.63267 0.11025 0.16483 0.0
H746 H 0.64392 0.11552 0.20442 0.0
C747 C 0.65583 0.14562 0.31876 0.0
C748 C 0.67989 0.14261 0.26654 0.0
H749 H 0.68523 0.16309 0.21439 0.0
C750 C 0.67605 0.12597 0.25844 0.0
C751 C 0.68443 0.15647 0.25055 0.0
C752 C 0.68968 0.17485 0.25846 0.0
C753 C 0.6748 0.12235 0.2346 0.0
C754 C 0.67738 0.13569 0.21867 0.0
C755 C 0.68307 0.15282 0.2267 0.0
C756 C 0.67127 0.13144 0.19444 0.0
C757 C 0.66961 0.10399 0.22665 0.0
C758 C 0.68296 0.13878 0.17574 0.0
C759 C 0.67656 0.13571 0.15295 0.0
C760 C 0.65834 0.12558 0.14868 0.0
C761 C 0.64676 0.11816 0.16752 0.0
C762 C 0.65317 0.12104 0.19015 0.0
H763 H 0.67337 0.09707 0.23964 0.0
H764 H 0.65511 0.09628 0.2244 0.0
H765 H 0.67585 0.10428 0.20976 0.0
H766 H 0.69697 0.14702 0.1788 0.0
H767 H 0.68579 0.14165 0.13876 0.0
H768 H 0.17431 0.44805 0.91874 0.0
H769 H 0.19621 0.44144 0.93459 0.0
H770 H 0.16566 0.42191 -0.00261 0.0
H771 H 0.14348 0.4281 0.98143 0.0
H772 H 0.21467 0.45823 0.97261 0.0
H773 H 0.1817 0.38619 0.98748 0.0
H774 H 0.17265 0.39616 0.96862 0.0
H775 H 0.16977 0.39602 -0.00045 0.0
C776 C 0.17204 0.44195 0.9357 0.0
C777 C 0.15726 0.43872 0.94893 0.0
C778 C 0.18455 0.43815 0.94471 0.0
C779 C 0.18251 0.43106 0.96709 0.0
C780 C 0.16732 0.42701 0.97989 0.0
H781 H 0.26419 0.45338 0.06447 0.0
H782 H 0.23701 0.44697 0.04462 0.0
C783 C 0.15472 0.43069 0.97081 0.0
C784 C 0.19738 0.43043 0.97828 0.0
H785 H 0.20885 0.40395 0.00813 0.0
C786 C 0.21344 0.44629 0.98008 0.0
C787 C 0.19576 0.41485 0.98799 0.0
C788 C 0.17909 0.3973 0.98564 0.0
C789 C 0.22776 0.44713 0.99191 0.0
C790 C 0.2259 0.43176 0.00254 0.0
C791 C 0.21009 0.41573 0.00016 0.0
C792 C 0.24033 0.43251 0.01655 0.0
C793 C 0.24476 0.46453 0.9932 0.0
C794 C 0.25073 0.42582 0.00775 0.0
C795 C 0.2663 0.42945 0.01907 0.0
C796 C 0.27164 0.43986 0.03927 0.0
C797 C 0.26052 0.44548 0.04883 0.0
C798 C 0.24498 0.4418 0.03756 0.0
H799 H 0.24524 0.47409 0.98013 0.0
H800 H 0.24601 0.47035 0.01069 0.0
H801 H 0.25626 0.46265 0.99048 0.0
H802 H 0.24729 0.41863 0.99151 0.0
H803 H 0.27458 0.42491 0.01134 0.0
H804 H 0.71777 0.14574 0.46155 0.0
H805 H 0.74624 0.16376 0.48084 0.0
H806 H 0.74691 0.21093 0.45756 0.0
H807 H 0.71904 0.19313 0.43759 0.0
H808 H 0.77887 0.21436 0.4544 0.0
H809 H 0.75032 0.18807 0.54157 0.0
H810 H 0.74926 0.17226 0.52085 0.0
H811 H 0.73678 0.18318 0.51606 0.0
C812 C 0.72412 0.15996 0.46038 0.0
C813 C 0.71612 0.16804 0.44825 0.0
C814 C 0.74032 0.17023 0.47151 0.0
C815 C 0.74852 0.18869 0.47104 0.0
C816 C 0.74082 0.1967 0.45819 0.0
H817 H 0.8026 0.27219 0.55973 0.0
H818 H 0.78356 0.24454 0.53996 0.0
C819 C 0.72484 0.1865 0.44682 0.0
C820 C 0.76461 0.2 0.48473 0.0
H821 H 0.77894 0.21206 0.54037 0.0
C822 C 0.77906 0.21373 0.47319 0.0
C823 C 0.76478 0.19907 0.50925 0.0
C824 C 0.74944 0.18495 0.52276 0.0
C825 C 0.79301 0.22738 0.4855 0.0
C826 C 0.79279 0.22688 0.51007 0.0
C827 C 0.77905 0.21238 0.52154 0.0
C828 C 0.80487 0.24248 0.52411 0.0
C829 C 0.80706 0.24283 0.47209 0.0
C830 C 0.82325 0.2503 0.52238 0.0
C831 C 0.83423 0.26639 0.5334 0.0
C832 C 0.82696 0.27466 0.54667 0.0
C833 C 0.80862 0.26619 0.54957 0.0
C834 C 0.7977 0.25033 0.53831 0.0
H835 H 0.80345 0.24258 0.45355 0.0
H836 H 0.8095 0.25548 0.47978 0.0
H837 H 0.81953 0.24248 0.47274 0.0
H838 H 0.82909 0.24424 0.51201 0.0
H839 H 0.84834 0.27253 0.53109 0.0
H840 H 0.56079 0.84408 0.01173 0.0
H841 H 0.56874 0.82554 0.98865 0.0
H842 H 0.5381 0.78174 0.03441 0.0
H843 H 0.53004 0.80002 0.05748 0.0
H844 H 0.58349 0.80101 0.00298 0.0
H845 H 0.51594 0.76896 0.96593 0.0
H846 H 0.52607 0.79036 0.97963 0.0
H847 H 0.51714 0.77075 -0.00295 0.0
C848 C 0.55601 0.83059 0.01711 0.0
C849 C 0.54461 0.82342 0.03624 0.0
C850 C 0.56061 0.82007 0.00396 0.0
C851 C 0.55387 0.80232 0.00981 0.0
C852 C 0.54334 0.79543 0.02963 0.0
H853 H 0.56239 0.71379 0.9717 0.0
H854 H 0.5682 0.742 0.98765 0.0
C855 C 0.53873 0.80589 0.04274 0.0
C856 C 0.55618 0.79036 0.99409 0.0
H857 H 0.53261 0.75491 0.95905 0.0
C858 C 0.57249 0.79105 0.99308 0.0
C859 C 0.54187 0.77766 0.98094 0.0
C860 C 0.52428 0.7769 0.9807 0.0
C861 C 0.57459 0.77866 0.98002 0.0
C862 C 0.55991 0.76523 0.96804 0.0
C863 C 0.54387 0.76518 0.96824 0.0
C864 C 0.56017 0.75019 0.95671 0.0
C865 C 0.59241 0.78 0.97934 0.0
C866 C 0.55393 0.74547 0.93391 0.0
C867 C 0.55025 0.72918 0.92493 0.0
C868 C 0.55283 0.71737 0.93858 0.0
C869 C 0.56031 0.72265 0.96076 0.0
C870 C 0.56379 0.73886 0.96984 0.0
H871 H 0.60313 0.7938 0.98205 0.0
H872 H 0.59323 0.77187 0.99352 0.0
H873 H 0.59463 0.77517 0.96257 0.0
H874 H 0.551 0.75399 0.9235 0.0
H875 H 0.54461 0.72552 0.90771 0.0
H876 H 0.71919 0.57721 0.52833 0.0
H877 H 0.74803 0.58767 0.51002 0.0
H878 H 0.74807 0.54097 0.53383 0.0
H879 H 0.71987 0.53091 0.55281 0.0
H880 H 0.78003 0.56931 0.53777 0.0
H881 H 0.7531 0.56775 0.44966 0.0
H882 H 0.7519 0.58247 0.47028 0.0
H883 H 0.73909 0.55906 0.47476 0.0
C884 C 0.72549 0.56931 0.52983 0.0
C885 C 0.71721 0.55316 0.54181 0.0
C886 C 0.7419 0.57525 0.51925 0.0
C887 C 0.75005 0.56494 0.52015 0.0
C888 C 0.74205 0.54917 0.53288 0.0
H889 H 0.80316 0.53342 0.43387 0.0
H890 H 0.78472 0.54296 0.45319 0.0
C891 C 0.72587 0.54338 0.54368 0.0
C892 C 0.76635 0.56966 0.50696 0.0
H893 H 0.78135 0.57153 0.45179 0.0
C894 C 0.78051 0.57012 0.51897 0.0
C895 C 0.76692 0.57078 0.48243 0.0
C896 C 0.75193 0.56988 0.46843 0.0
C897 C 0.79446 0.57005 0.50712 0.0
C898 C 0.79456 0.57022 0.48255 0.0
C899 C 0.7812 0.57137 0.47061 0.0
C900 C 0.8064 0.56605 0.46899 0.0
C901 C 0.80813 0.56833 0.52103 0.0
C902 C 0.82482 0.57611 0.47091 0.0
C903 C 0.83546 0.57045 0.46014 0.0
C904 C 0.82782 0.55486 0.44694 0.0
C905 C 0.80947 0.54545 0.44397 0.0
C906 C 0.79889 0.55094 0.45496 0.0
H907 H 0.80433 0.56525 0.53957 0.0
H908 H 0.81025 0.5578 0.51377 0.0
H909 H 0.82081 0.58093 0.5203 0.0
H910 H 0.83093 0.58805 0.48116 0.0
H911 H 0.84959 0.57807 0.46251 0.0
H912 H 0.26314 0.80399 0.929 0.0
H913 H 0.23468 0.78636 0.94756 0.0
H914 H 0.23846 0.83327 0.97755 0.0
H915 H 0.26748 0.85105 0.9596 0.0
H916 H 0.23048 0.80983 0.00955 0.0
H917 H 0.18582 0.77604 0.93674 0.0
H918 H 0.20443 0.77295 0.93399 0.0
H919 H 0.20747 0.79489 0.93231 0.0
C920 C 0.25779 0.81064 0.93915 0.0
C921 C 0.26758 0.8289 0.94291 0.0
C922 C 0.24138 0.80053 0.94958 0.0
C923 C 0.23421 0.8085 0.9636 0.0
C924 C 0.24366 0.82686 0.96666 0.0
H925 H 0.1371 0.72278 0.02312 0.0
H926 H 0.1556 0.75166 0.00511 0.0
C927 C 0.26023 0.83699 0.9564 0.0
C928 C 0.21807 0.79725 0.97728 0.0
H929 H 0.17881 0.75901 0.97318 0.0
C930 C 0.21896 0.799 0.00154 0.0
C931 C 0.20274 0.78342 0.96697 0.0
C932 C 0.20001 0.78189 0.94104 0.0
C933 C 0.20575 0.78627 0.01577 0.0
C934 C 0.19164 0.77114 0.00546 0.0
C935 C 0.18984 0.77036 0.9812 0.0
C936 C 0.18004 0.75509 0.01911 0.0
C937 C 0.20739 0.78894 0.04171 0.0
C938 C 0.18758 0.7475 0.03316 0.0
C939 C 0.17706 0.73117 0.04365 0.0
C940 C 0.15879 0.72189 0.03988 0.0
C941 C 0.15115 0.72964 0.0263 0.0
C942 C 0.1617 0.74613 0.01602 0.0
H943 H 0.21362 0.80316 0.04607 0.0
H944 H 0.19439 0.78177 0.05048 0.0
H945 H 0.21603 0.78412 0.04868 0.0
H946 H 0.20173 0.7538 0.0352 0.0
H947 H 0.18336 0.72549 0.05385 0.0
H948 H 0.43583 0.17476 0.57056 0.0
H949 H 0.42894 0.19589 0.55283 0.0
H950 H 0.41458 0.16594 0.48921 0.0
H951 H 0.42101 0.14443 0.50711 0.0
H952 H 0.44845 0.21479 0.51655 0.0
H953 H 0.37784 0.18136 0.49229 0.0
H954 H 0.38647 0.17227 0.51324 0.0
H955 H 0.38887 0.16989 0.48267 0.0
C956 C 0.43073 0.1724 0.55301 0.0
C957 C 0.42913 0.15807 0.54011 0.0
C958 C 0.42675 0.18446 0.54292 0.0
C959 C 0.4212 0.18248 0.51973 0.0
C960 C 0.4185 0.16755 0.50727 0.0
H961 H 0.44858 0.26591 0.42262 0.0
H962 H 0.44061 0.23799 0.4417 0.0
C963 C 0.42229 0.15533 0.51747 0.0
C964 C 0.42122 0.1974 0.50764 0.0
H965 H 0.39674 0.20922 0.47387 0.0
C966 C 0.43705 0.21359 0.50748 0.0
C967 C 0.40637 0.19581 0.49577 0.0
C968 C 0.38887 0.17894 0.49614 0.0
C969 C 0.43857 0.22812 0.4954 0.0
C970 C 0.42395 0.22637 0.48286 0.0
C971 C 0.40795 0.21037 0.48337 0.0
C972 C 0.4255 0.24121 0.46896 0.0
C973 C 0.45588 0.24525 0.49592 0.0
C974 C 0.41908 0.25187 0.47762 0.0
C975 C 0.42365 0.26788 0.4668 0.0
C976 C 0.43474 0.27341 0.44723 0.0
C977 C 0.44015 0.26209 0.43777 0.0
C978 C 0.43556 0.24611 0.44856 0.0
H979 H 0.46484 0.24531 0.5096 0.0
H980 H 0.46254 0.24733 0.47889 0.0
H981 H 0.45366 0.25651 0.49897 0.0
H982 H 0.41138 0.24827 0.49344 0.0
H983 H 0.41923 0.2763 0.47443 0.0
H984 H 0.84925 0.57819 0.02443 0.0
H985 H 0.83012 0.58825 0.0076 0.0
H986 H 0.78501 0.54434 0.03961 0.0
H987 H 0.80402 0.53473 0.05713 0.0
H988 H 0.80622 0.57218 0.97681 0.0
H989 H 0.77284 0.58143 0.05143 0.0
H990 H 0.7923 0.57955 0.0549 0.0
H991 H 0.77072 0.56011 0.05403 0.0
C992 C 0.83529 0.57094 0.02827 0.0
C993 C 0.82811 0.55567 0.04207 0.0
C994 C 0.82439 0.57671 0.01868 0.0
C995 C 0.80615 0.56727 0.02268 0.0
C996 C 0.79908 0.55224 0.03691 0.0
H997 H 0.72117 0.53044 0.93616 0.0
H998 H 0.74987 0.54197 0.95426 0.0
C999 C 0.80997 0.54662 0.04672 0.0
C1000 C 0.79409 0.57146 0.0097 0.0
H1001 H 0.75487 0.57032 0.01572 0.0
C1002 C 0.79527 0.5723 0.98538 0.0
C1003 C 0.78007 0.57224 0.02072 0.0
C1004 C 0.77908 0.57351 0.04673 0.0
C1005 C 0.78183 0.57196 0.97182 0.0
C1006 C 0.76659 0.5701 0.98287 0.0
C1007 C 0.76632 0.57124 0.00716 0.0
C1008 C 0.75 0.5645 0.96997 0.0
C1009 C 0.78386 0.57293 0.94578 0.0
C1010 C 0.74022 0.57306 0.97318 0.0
C1011 C 0.72352 0.56622 0.96319 0.0
C1012 C 0.71636 0.55072 0.94985 0.0
C1013 C 0.72637 0.54247 0.94619 0.0
C1014 C 0.74291 0.54918 0.95634 0.0
H1015 H 0.79789 0.58152 0.94082 0.0
H1016 H 0.77959 0.55957 0.93885 0.0
H1017 H 0.77591 0.57808 0.93747 0.0
H1018 H 0.74535 0.58479 0.98383 0.0
H1019 H 0.71609 0.57286 0.9663 0.0
H1020 H 0.18415 0.72117 0.43351 0.0
H1021 H 0.20212 0.74953 0.45221 0.0
H1022 H 0.15529 0.74825 0.4781 0.0
H1023 H 0.13711 0.71925 0.46009 0.0
H1024 H 0.20496 0.78126 0.44908 0.0
H1025 H 0.18144 0.75356 0.53746 0.0
H1026 H 0.17594 0.73968 0.51219 0.0
H1027 H 0.16508 0.75216 0.51746 0.0
C1028 C 0.17761 0.72693 0.44303 0.0
C1029 C 0.15923 0.71787 0.4456 0.0
C1030 C 0.18792 0.74321 0.45366 0.0
C1031 C 0.18009 0.7509 0.4669 0.0
C1032 C 0.16164 0.74236 0.46845 0.0
H1033 H 0.26738 0.85002 0.52425 0.0
H1034 H 0.23833 0.83174 0.50644 0.0
C1035 C 0.15128 0.72586 0.45805 0.0
C1036 C 0.19164 0.76722 0.48007 0.0
H1037 H 0.20578 0.78183 0.5351 0.0
C1038 C 0.20499 0.78158 0.4679 0.0
C1039 C 0.19155 0.7676 0.50463 0.0
C1040 C 0.17784 0.75243 0.5188 0.0
C1041 C 0.21916 0.79551 0.47954 0.0
C1042 C 0.21962 0.79536 0.5041 0.0
C1043 C 0.20539 0.78185 0.51628 0.0
C1044 C 0.23595 0.80696 0.51721 0.0
C1045 C 0.23419 0.80941 0.46538 0.0
C1046 C 0.24381 0.79915 0.53015 0.0
C1047 C 0.26012 0.80949 0.54064 0.0
C1048 C 0.26904 0.82791 0.53826 0.0
C1049 C 0.26087 0.83583 0.52615 0.0
C1050 C 0.24434 0.82542 0.51586 0.0
H1051 H 0.233 0.80593 0.44667 0.0
H1052 H 0.23434 0.8221 0.46697 0.0
H1053 H 0.247 0.81138 0.4718 0.0
H1054 H 0.2376 0.78494 0.53144 0.0
H1055 H 0.266 0.80297 0.54991 0.0
H1056 H 0.44569 0.18011 0.92722 0.0
H1057 H 0.43762 0.19877 0.94941 0.0
H1058 H 0.40935 0.15664 -0.00162 0.0
H1059 H 0.4173 0.13772 0.97618 0.0
H1060 H 0.39506 0.18376 0.97974 0.0
H1061 H 0.46107 0.21006 0.02067 0.0
H1062 H 0.45959 0.20641 0.98978 0.0
H1063 H 0.4489 0.18797 0.00913 0.0
C1064 C 0.43744 0.17465 0.94242 0.0
C1065 C 0.43231 0.15753 0.95014 0.0
C1066 C 0.43277 0.1853 0.95498 0.0
C1067 C 0.42295 0.17902 0.97545 0.0
C1068 C 0.41685 0.1616 0.98249 0.0
H1069 H 0.43707 0.25856 0.07599 0.0
H1070 H 0.42841 0.22935 0.06063 0.0
C1071 C 0.42146 0.15087 0.96985 0.0
C1072 C 0.42138 0.19154 0.99091 0.0
H1073 H 0.44624 0.22586 0.02701 0.0
C1074 C 0.40608 0.19284 0.99041 0.0
C1075 C 0.43572 0.20311 0.00496 0.0
C1076 C 0.45226 0.20186 0.0064 0.0
C1077 C 0.40509 0.20606 0.003 0.0
C1078 C 0.41991 0.21838 0.01592 0.0
C1079 C 0.43485 0.21645 0.01716 0.0
C1080 C 0.42108 0.23427 0.02674 0.0
C1081 C 0.38826 0.20677 0.00218 0.0
C1082 C 0.41928 0.24656 0.01307 0.0
C1083 C 0.42401 0.26319 0.02193 0.0
C1084 C 0.43098 0.26792 0.04443 0.0
C1085 C 0.43186 0.2553 0.05852 0.0
C1086 C 0.42687 0.2386 0.04978 0.0
H1087 H 0.3767 0.19347 -0.0008 0.0
H1088 H 0.38617 0.21224 0.01847 0.0
H1089 H 0.38894 0.2153 0.98751 0.0
H1090 H 0.4153 0.24374 -0.00493 0.0
H1091 H 0.42327 0.2727 0.01065 0.0
H1092 H 0.14581 0.42755 0.51603 0.0
H1093 H 0.16748 0.4209 0.4995 0.0
H1094 H 0.19773 0.43817 0.56281 0.0
H1095 H 0.1764 0.4454 0.57914 0.0
H1096 H 0.21671 0.45588 0.52667 0.0
H1097 H 0.18306 0.38493 0.50502 0.0
H1098 H 0.17147 0.39534 0.4937 0.0
H1099 H 0.17366 0.39411 0.52462 0.0
C1100 C 0.15683 0.42948 0.52666 0.0
C1101 C 0.15955 0.4372 0.54875 0.0
C1102 C 0.16914 0.42552 0.51725 0.0
C1103 C 0.18417 0.42891 0.52998 0.0
C1104 C 0.18621 0.43542 0.55271 0.0
H1105 H 0.27621 0.42551 0.47721 0.0
H1106 H 0.24948 0.4181 0.49931 0.0
C1107 C 0.17404 0.43959 0.56199 0.0
C1108 C 0.19906 0.42857 0.51832 0.0
H1109 H 0.21002 0.40371 0.48393 0.0
C1110 C 0.21528 0.44435 0.51771 0.0
C1111 C 0.19724 0.41353 0.50662 0.0
C1112 C 0.18046 0.39598 0.50771 0.0
C1113 C 0.2295 0.44573 0.505 0.0
C1114 C 0.22737 0.43104 0.49223 0.0
C1115 C 0.21145 0.415 0.49353 0.0
C1116 C 0.24152 0.43264 0.47684 0.0
C1117 C 0.24664 0.46304 0.50487 0.0
C1118 C 0.24546 0.44277 0.45657 0.0
C1119 C 0.26068 0.44709 0.444 0.0
C1120 C 0.2722 0.44131 0.45153 0.0
C1121 C 0.26762 0.4302 0.47104 0.0
C1122 C 0.25235 0.42591 0.48364 0.0
H1123 H 0.24727 0.47185 0.51915 0.0
H1124 H 0.258 0.46081 0.5065 0.0
H1125 H 0.24796 0.46988 0.48814 0.0
H1126 H 0.23717 0.44803 0.4511 0.0
H1127 H 0.26378 0.45556 0.42896 0.0
H1128 H 0.83754 0.27287 0.98106 0.0
H1129 H 0.81582 0.24387 -0.00418 0.0
H1130 H 0.78548 0.23378 0.93298 0.0
H1131 H 0.80689 0.26296 0.91841 0.0
H1132 H 0.76655 0.23062 0.9705 0.0
H1133 H 0.80079 0.19273 0.98447 0.0
H1134 H 0.81222 0.21416 -0.00244 0.0
H1135 H 0.80983 0.21223 0.9665 0.0
C1136 C 0.82647 0.2643 0.97015 0.0
C1137 C 0.82379 0.27024 0.9487 0.0
C1138 C 0.81413 0.24765 0.97853 0.0
C1139 C 0.7991 0.23659 0.96541 0.0
C1140 C 0.79702 0.2421 0.94335 0.0
H1141 H 0.70764 0.13733 0.0095 0.0
H1142 H 0.73461 0.15843 0.98908 0.0
C1143 C 0.80923 0.25879 0.93508 0.0
C1144 C 0.78434 0.22069 0.97608 0.0
H1145 H 0.77359 0.18276 0.00558 0.0
C1146 C 0.76805 0.22003 0.97781 0.0
C1147 C 0.78628 0.20686 0.98561 0.0
C1148 C 0.80318 0.20642 0.98325 0.0
C1149 C 0.75386 0.20628 0.98948 0.0
C1150 C 0.75608 0.19298 5e-05 0.0
C1151 C 0.77209 0.19316 -0.00234 0.0
C1152 C 0.74188 0.17923 0.01427 0.0
C1153 C 0.73663 0.20624 0.99082 0.0
C1154 C 0.73751 0.18385 0.0355 0.0
C1155 C 0.72216 0.17195 0.0471 0.0
C1156 C 0.71094 0.1552 0.03764 0.0
C1157 C 0.716 0.15017 0.01715 0.0
C1158 C 0.73139 0.16216 0.0055 0.0
H1159 H 0.73595 0.21527 0.97784 0.0
H1160 H 0.72534 0.19276 0.98799 0.0
H1161 H 0.73523 0.21062 0.00836 0.0
H1162 H 0.74554 0.19699 0.04251 0.0
H1163 H 0.7187 0.17616 0.06294 0.0
H1164 H 0.54012 0.81437 0.4266 0.0
H1165 H 0.54686 0.79427 0.44765 0.0
H1166 H 0.57375 0.83368 0.50037 0.0
H1167 H 0.5671 0.85405 0.47935 0.0
H1168 H 0.58945 0.80975 0.48313 0.0
H1169 H 0.51995 0.77649 0.51369 0.0
H1170 H 0.52331 0.7811 0.4831 0.0
H1171 H 0.53132 0.79898 0.50344 0.0
C1172 C 0.54774 0.81892 0.44245 0.0
C1173 C 0.55289 0.83571 0.45149 0.0
C1174 C 0.55162 0.80743 0.45439 0.0
C1175 C 0.56069 0.81252 0.47554 0.0
C1176 C 0.56678 0.82961 0.48399 0.0
H1177 H 0.54553 0.73059 0.57239 0.0
H1178 H 0.55292 0.75962 0.55764 0.0
C1179 C 0.56292 0.84117 0.47201 0.0
C1180 C 0.56183 0.79922 0.48994 0.0
H1181 H 0.53597 0.76189 0.52082 0.0
C1182 C 0.57786 0.79936 0.49164 0.0
C1183 C 0.54672 0.78591 0.50121 0.0
C1184 C 0.52934 0.78558 0.5005 0.0
C1185 C 0.57897 0.786 0.50373 0.0
C1186 C 0.56359 0.77216 0.51401 0.0
C1187 C 0.54777 0.7725 0.51295 0.0
C1188 C 0.56304 0.75654 0.52478 0.0
C1189 C 0.59651 0.78678 0.50531 0.0
C1190 C 0.56685 0.74541 0.51152 0.0
C1191 C 0.56278 0.72884 0.52002 0.0
C1192 C 0.55456 0.72306 0.54172 0.0
C1193 C 0.55174 0.73465 0.55552 0.0
C1194 C 0.55599 0.75125 0.54714 0.0
H1195 H 0.60759 0.80053 0.50353 0.0
H1196 H 0.59791 0.78129 0.52202 0.0
H1197 H 0.59758 0.77892 0.49097 0.0
H1198 H 0.57191 0.74902 0.49403 0.0
H1199 H 0.56504 0.72016 0.50897 0.0
H1200 H 0.39038 0.45871 0.0655 0.0
H1201 H 0.40195 0.43882 0.05993 0.0
H1202 H 0.34921 0.39514 0.05123 0.0
H1203 H 0.33738 0.41501 0.05692 0.0
H1204 H 0.37036 0.38914 0.08324 0.0
H1205 H 0.40505 0.41518 -0.00022 0.0
H1206 H 0.41026 0.43217 0.02086 0.0
H1207 H 0.38809 0.41949 0.01009 0.0
C1208 C 0.38119 0.4449 0.06227 0.0
C1209 C 0.36294 0.43846 0.06164 0.0
C1210 C 0.38785 0.43357 0.0589 0.0
C1211 C 0.37645 0.41559 0.05478 0.0
C1212 C 0.35822 0.40903 0.05417 0.0
H1213 H 0.41188 0.33721 0.05497 0.0
H1214 H 0.39255 0.3497 0.04988 0.0
C1215 C 0.3515 0.4204 0.05743 0.0
C1216 C 0.38375 0.40366 0.05253 0.0
H1217 H 0.41468 0.39868 0.02293 0.0
C1218 C 0.37977 0.39091 0.06979 0.0
C1219 C 0.39594 0.40601 0.03489 0.0
C1220 C 0.39997 0.41883 0.01521 0.0
C1221 C 0.38862 0.38128 0.07079 0.0
C1222 C 0.40156 0.38438 0.0539 0.0
C1223 C 0.40481 0.39643 0.03592 0.0
C1224 C 0.41309 0.37661 0.05591 0.0
C1225 C 0.38484 0.36864 0.09065 0.0
C1226 C 0.43106 0.38767 0.06048 0.0
C1227 C 0.44211 0.38064 0.06335 0.0
C1228 C 0.43543 0.36237 0.0616 0.0
C1229 C 0.41744 0.35133 0.05653 0.0
C1230 C 0.40636 0.35841 0.0537 0.0
H1231 H 0.37632 0.36969 0.10409 0.0
H1232 H 0.37804 0.35494 0.08392 0.0
H1233 H 0.39731 0.37111 0.09893 0.0
H1234 H 0.43648 0.40177 0.0622 0.0
H1235 H 0.45589 0.38955 0.06714 0.0
H1236 H 0.06994 0.4151 0.55935 0.0
H1237 H 0.03831 0.39535 0.55318 0.0
H1238 H 0.02954 0.43941 0.55955 0.0
H1239 H 0.06093 0.45918 0.56558 0.0
H1240 H 0.0114 0.39005 0.58464 0.0
H1241 H 0.00247 0.41472 0.50028 0.0
H1242 H 0.02377 0.41922 0.51068 0.0
H1243 H 0.01434 0.43214 0.52077 0.0
C1244 C 0.0613 0.42061 0.55917 0.0
C1245 C 0.06797 0.43873 0.56296 0.0
C1246 C 0.04326 0.4093 0.55564 0.0
C1247 C 0.03168 0.41599 0.55553 0.0
C1248 C 0.03832 0.43406 0.55906 0.0
H1249 H 0.92804 0.39322 0.5701 0.0
H1250 H 0.95929 0.40412 0.56396 0.0
C1251 C 0.05627 0.44532 0.5627 0.0
C1252 C 0.01245 0.4041 0.55348 0.0
H1253 H 0.97649 0.3992 0.52414 0.0
C1254 C 0.00373 0.3917 0.57113 0.0
C1255 C 0.00255 0.40628 0.53575 0.0
C1256 C 0.01128 0.41869 0.51566 0.0
C1257 C 0.98528 0.38235 0.57249 0.0
C1258 C 0.97541 0.3854 0.55558 0.0
C1259 C 0.98413 0.39699 0.53714 0.0
C1260 C 0.95628 0.37836 0.55822 0.0
C1261 C 0.97649 0.37017 0.59279 0.0
C1262 C 0.94423 0.36024 0.55676 0.0
C1263 C 0.92625 0.3539 0.5603 0.0
C1264 C 0.92011 0.36563 0.56536 0.0
C1265 C 0.93228 0.3838 0.56636 0.0
C1266 C 0.95016 0.39008 0.56278 0.0
H1267 H 0.98615 0.37103 0.60595 0.0
H1268 H 0.96702 0.3733 0.60129 0.0
H1269 H 0.969 0.35637 0.58649 0.0
H1270 H 0.94873 0.35102 0.55299 0.0
H1271 H 0.91722 0.33984 0.55931 0.0
H1272 H 0.56576 0.91086 0.05113 0.0
H1273 H 0.58599 0.94258 0.04636 0.0
H1274 H 0.55243 0.9536 0.08941 0.0
H1275 H 0.53208 0.92205 0.09415 0.0
H1276 H 0.57467 0.96857 0.02897 0.0
H1277 H 0.60488 0.98222 0.11682 0.0
H1278 H 0.5949 0.96065 0.10352 0.0
H1279 H 0.5813 0.9685 0.11589 0.0
C1280 C 0.56272 0.92003 0.05966 0.0
C1281 C 0.54731 0.91394 0.07302 0.0
C1282 C 0.57428 0.93811 0.05689 0.0
C1283 C 0.57071 0.95031 0.06772 0.0
C1284 C 0.55543 0.94431 0.08112 0.0
H1285 H 0.59379 0.05504 0.0587 0.0
H1286 H 0.58253 0.02339 0.05596 0.0
C1287 C 0.5438 0.92629 0.08372 0.0
C1288 C 0.58255 0.96941 0.06455 0.0
H1289 H 0.60902 0.00702 0.09472 0.0
C1290 C 0.58244 0.977 0.04317 0.0
C1291 C 0.59275 0.98024 0.08308 0.0
C1292 C 0.59365 0.97255 0.10611 0.0
C1293 C 0.59154 -0.00464 0.04028 0.0
C1294 C 0.60086 0.00624 0.05927 0.0
C1295 C 0.6018 -0.00141 0.08022 0.0
C1296 C 0.60813 0.0255 0.05861 0.0
C1297 C 0.59073 0.00301 0.01718 0.0
C1298 C 0.62626 0.03712 0.06104 0.0
C1299 C 0.63279 0.05528 0.06253 0.0
C1300 C 0.62119 0.06201 0.06204 0.0
C1301 C 0.60306 0.05029 0.05921 0.0
C1302 C 0.59661 0.03221 0.05748 0.0
H1303 H 0.58716 0.99326 0.00293 0.0
H1304 H 0.58055 0.00699 0.01796 0.0
H1305 H 0.60354 0.01489 0.01301 0.0
H1306 H 0.63531 0.0321 0.06215 0.0
H1307 H 0.64681 0.06398 0.06479 0.0
H1308 H 0.6095 0.54418 0.60014 0.0
H1309 H 0.59593 0.56237 0.59436 0.0
H1310 H 0.62506 0.58254 0.53057 0.0
H1311 H 0.63959 0.56516 0.53721 0.0
H1312 H 0.62325 0.60767 0.55125 0.0
H1313 H 0.55625 0.5499 0.55167 0.0
H1314 H 0.56699 0.55112 0.57858 0.0
H1315 H 0.5756 0.54768 0.55185 0.0
C1316 C 0.61308 0.5526 0.58497 0.0
C1317 C 0.62542 0.55317 0.56898 0.0
C1318 C 0.6052 0.56286 0.58155 0.0
C1319 C 0.60896 0.57333 0.56158 0.0
C1320 C 0.62179 0.57441 0.54598 0.0
H1321 H 0.53373 0.60805 0.53081 0.0
H1322 H 0.55214 0.59444 0.52748 0.0
C1323 C 0.63009 0.56451 0.54977 0.0
C1324 C 0.59935 0.58299 0.55702 0.0
H1325 H 0.55821 0.57796 0.55738 0.0
C1326 C 0.609 0.60114 0.55227 0.0
C1327 C 0.58073 0.57443 0.55761 0.0
C1328 C 0.56932 0.55468 0.55992 0.0
C1329 C 0.60058 0.61105 0.54902 0.0
C1330 C 0.58206 0.60275 0.55169 0.0
C1331 C 0.57242 0.58449 0.55562 0.0
C1332 C 0.57229 0.61259 0.55115 0.0
C1333 C 0.61168 0.63021 0.5424 0.0
C1334 C 0.57759 0.62757 0.56513 0.0
C1335 C 0.56738 0.63571 0.56633 0.0
C1336 C 0.55134 0.62859 0.55433 0.0
C1337 C 0.54606 0.61373 0.54024 0.0
C1338 C 0.55656 0.60596 0.5384 0.0
H1339 H 0.62352 0.63256 0.53247 0.0
H1340 H 0.60415 0.63476 0.53174 0.0
H1341 H 0.61633 0.63833 0.55838 0.0
H1342 H 0.58926 0.63261 0.57583 0.0
H1343 H 0.57155 0.64702 0.57759 0.0
H1344 H 0.91747 0.58078 0.04778 0.0
H1345 H 0.94844 0.60138 0.0385 0.0
H1346 H 0.95952 0.55867 0.0413 0.0
H1347 H 0.92881 0.53809 0.0504 0.0
H1348 H 0.97645 0.60761 0.06756 0.0
H1349 H 0.98461 0.58443 0.98181 0.0
H1350 H 0.9633 0.57891 0.99338 0.0
H1351 H 0.97374 0.56657 0.00201 0.0
C1352 C 0.92645 0.57574 0.04604 0.0
C1353 C 0.92069 0.5578 0.04991 0.0
C1354 C 0.94411 0.58752 0.04072 0.0
C1355 C 0.95617 0.58148 0.03883 0.0
C1356 C 0.95034 0.56353 0.04212 0.0
H1357 H 0.05825 0.60307 0.05315 0.0
H1358 H 0.02743 0.5931 0.04497 0.0
C1359 C 0.93279 0.5518 0.04756 0.0
C1360 C 0.97521 0.59395 0.03595 0.0
H1361 H 0.01098 0.59943 0.00555 0.0
C1362 C 0.98403 0.60624 0.05366 0.0
C1363 C 0.98499 0.59214 0.01773 0.0
C1364 C 0.97614 0.57992 -0.00247 0.0
C1365 C 0.00249 0.61565 0.05476 0.0
C1366 C 0.01225 0.61279 0.03749 0.0
C1367 C 0.00343 0.6015 0.01883 0.0
C1368 C 0.03127 0.6193 0.04033 0.0
C1369 C 0.01136 0.62752 0.07529 0.0
C1370 C 0.04369 0.63736 0.03998 0.0
C1371 C 0.06141 0.64316 0.04474 0.0
C1372 C 0.06693 0.63095 0.0499 0.0
C1373 C 0.05447 0.61285 0.04942 0.0
C1374 C 0.03685 0.60711 0.04464 0.0
H1375 H 0.00175 0.62665 0.08854 0.0
H1376 H 0.02068 0.62408 0.08361 0.0
H1377 H 0.01904 0.64139 0.06929 0.0
H1378 H 0.03962 0.64695 0.03642 0.0
H1379 H 0.0707 0.65719 0.04485 0.0
H1380 H 0.40991 0.06856 0.5588 0.0
H1381 H 0.39109 0.03639 0.55814 0.0
H1382 H 0.43503 0.03071 0.57999 0.0
H1383 H 0.45384 0.06262 0.58087 0.0
H1384 H 0.39585 0.01081 0.53263 0.0
H1385 H 0.39608 0.00151 0.62774 0.0
H1386 H 0.40242 0.02261 0.61472 0.0
H1387 H 0.41773 0.01461 0.61572 0.0
C1388 C 0.41556 0.06046 0.56348 0.0
C1389 C 0.43337 0.06819 0.57005 0.0
C1390 C 0.40479 0.0421 0.56308 0.0
C1391 C 0.41163 0.03124 0.56942 0.0
C1392 C 0.42943 0.0389 0.5755 0.0
H1393 H 0.38811 0.92532 0.57693 0.0
H1394 H 0.39994 0.95711 0.57652 0.0
C1395 C 0.44018 0.05717 0.57588 0.0
C1396 C 0.40039 0.01185 0.56946 0.0
H1397 H 0.38706 0.97586 0.60424 0.0
C1398 C 0.39363 0.00312 0.54831 0.0
C1399 C 0.39749 0.00193 0.58999 0.0
C1400 C 0.40366 0.01063 0.61338 0.0
C1401 C 0.38489 0.98464 0.54696 0.0
C1402 C 0.38275 0.97478 0.56735 0.0
C1403 C 0.38885 0.98351 0.58863 0.0
C1404 C 0.37534 0.95548 0.56682 0.0
C1405 C 0.37874 0.97582 0.52365 0.0
C1406 C 0.35755 0.94406 0.56154 0.0
C1407 C 0.35069 0.92581 0.56179 0.0
C1408 C 0.36154 0.91872 0.56736 0.0
C1409 C 0.37938 0.93029 0.57254 0.0
C1410 C 0.38617 0.94847 0.57235 0.0
H1411 H 0.3838 0.98544 0.50912 0.0
H1412 H 0.38305 0.96599 0.52097 0.0
H1413 H 0.36414 0.96872 0.52308 0.0
H1414 H 0.34894 0.94926 0.55754 0.0
H1415 H 0.33689 0.91728 0.55776 0.0
H1416 H 0.57513 0.64972 0.93574 0.0
H1417 H 0.59498 0.63802 0.94255 0.0
H1418 H 0.55156 0.58511 0.93382 0.0
H1419 H 0.53167 0.59653 0.92736 0.0
H1420 H 0.57402 0.58916 0.97153 0.0
H1421 H 0.61094 0.61771 0.88928 0.0
H1422 H 0.60971 0.63266 0.90955 0.0
H1423 H 0.59011 0.61641 0.89518 0.0
C1424 C 0.56979 0.63559 0.93548 0.0
C1425 C 0.55184 0.62407 0.93078 0.0
C1426 C 0.58116 0.62895 0.93927 0.0
C1427 C 0.57475 0.61074 0.93836 0.0
C1428 C 0.55676 0.59922 0.93454 0.0
H1429 H 0.59703 0.52893 0.92579 0.0
H1430 H 0.58577 0.54894 0.9328 0.0
C1431 C 0.54542 0.6058 0.93077 0.0
C1432 C 0.58664 0.60339 0.94029 0.0
H1433 H 0.6173 0.59847 0.9098 0.0
C1434 C 0.5837 0.59141 0.95826 0.0
C1435 C 0.59931 0.60643 0.92299 0.0
C1436 C 0.60272 0.61891 0.90304 0.0
C1437 C 0.59251 0.58176 0.9588 0.0
C1438 C 0.60437 0.58402 0.94074 0.0
C1439 C 0.60814 0.59678 0.92357 0.0
C1440 C 0.61144 0.57196 0.93789 0.0
C1441 C 0.5887 0.56886 0.97832 0.0
C1442 C 0.62964 0.57837 0.93803 0.0
C1443 C 0.63617 0.56694 0.93396 0.0
C1444 C 0.62457 0.54898 0.92938 0.0
C1445 C 0.60634 0.54266 0.92927 0.0
C1446 C 0.59986 0.55405 0.93346 0.0
H1447 H 0.58381 0.57248 0.99399 0.0
H1448 H 0.57834 0.55555 0.97271 0.0
H1449 H 0.60063 0.56818 0.98305 0.0
H1450 H 0.63877 0.59221 0.94118 0.0
H1451 H 0.65028 0.57223 0.9341 0.0
H1452 H 0.91803 0.57659 0.43039 0.0
H1453 H 0.94996 0.59561 0.43484 0.0
H1454 H 0.95739 0.55174 0.41843 0.0
H1455 H 0.92569 0.53267 0.41412 0.0
H1456 H 0.97627 0.57191 0.45852 0.0
H1457 H 0.98612 0.61349 0.38048 0.0
H1458 H 0.96976 0.61123 0.4012 0.0
H1459 H 0.96641 0.59244 0.38468 0.0
C1460 C 0.92646 0.571 0.42774 0.0
C1461 C 0.91929 0.55311 0.4218 0.0
C1462 C 0.94469 0.5819 0.4302 0.0
C1463 C 0.95598 0.57508 0.42674 0.0
C1464 C 0.94886 0.55723 0.42113 0.0
H1465 H 0.06113 0.59805 0.41605 0.0
H1466 H 0.02957 0.58612 0.4209 0.0
C1467 C 0.93072 0.54637 0.41863 0.0
C1468 C 0.9753 0.58634 0.42883 0.0
H1469 H 0.01143 0.6185 0.40083 0.0
C1470 C 0.98397 0.58226 0.4461 0.0
C1471 C 0.98524 0.59988 0.41268 0.0
C1472 C 0.97651 0.60455 0.39358 0.0
C1473 C 0.0024 0.59096 0.44716 0.0
C1474 C 0.01236 0.60384 0.43026 0.0
C1475 C 0.00371 0.60856 0.41371 0.0
C1476 C 0.03161 0.61131 0.42814 0.0
C1477 C 0.01106 0.58607 0.46611 0.0
C1478 C 0.04318 0.6295 0.43013 0.0
C1479 C 0.06132 0.63643 0.42728 0.0
C1480 C 0.06811 0.62526 0.42214 0.0
C1481 C 0.05639 0.60704 0.42007 0.0
C1482 C 0.03834 0.60016 0.423 0.0
H1483 H 0.00223 0.58031 0.48135 0.0
H1484 H 0.01413 0.57603 0.45939 0.0
H1485 H 0.02354 0.5977 0.47189 0.0
H1486 H 0.03818 0.63832 0.43389 0.0
H1487 H 0.06997 0.65052 0.42891 0.0
H1488 H 0.42091 0.06995 0.94606 0.0
H1489 H 0.4038 0.038 0.95204 0.0
H1490 H 0.4265 0.03011 0.88988 0.0
H1491 H 0.44443 0.06199 0.88478 0.0
H1492 H 0.37967 0.0113 0.93004 0.0
H1493 H 0.43779 0.00267 0.93388 0.0
H1494 H 0.43978 0.02415 0.93342 0.0
H1495 H 0.43732 0.01236 0.90673 0.0
C1496 C 0.4222 0.06134 0.93371 0.0
C1497 C 0.43414 0.06835 0.91516 0.0
C1498 C 0.41244 0.04311 0.93713 0.0
C1499 C 0.41426 0.03164 0.92181 0.0
C1500 C 0.42541 0.03868 0.90248 0.0
H1501 H 0.34239 0.92044 0.90343 0.0
H1502 H 0.35616 0.95251 0.90553 0.0
C1503 C 0.43552 0.05688 0.89944 0.0
C1504 C 0.40462 0.01234 0.92603 0.0
H1505 H 0.41009 0.97648 0.92717 0.0
C1506 C 0.38635 0.00369 0.92973 0.0
C1507 C 0.41335 0.00243 0.92635 0.0
C1508 C 0.43316 0.01094 0.92516 0.0
C1509 C 0.37649 0.98535 0.93285 0.0
C1510 C 0.38504 0.97529 0.93114 0.0
C1511 C 0.4034 0.98406 0.92821 0.0
C1512 C 0.37538 0.9557 0.93163 0.0
C1513 C 0.35713 0.97711 0.93833 0.0
C1514 C 0.38174 0.94671 0.94516 0.0
C1515 C 0.37436 0.92849 0.94315 0.0
C1516 C 0.36015 0.91886 0.92812 0.0
C1517 C 0.35319 0.92763 0.91541 0.0
C1518 C 0.36096 0.94595 0.9168 0.0
H1519 H 0.35434 0.98651 0.94775 0.0
H1520 H 0.34954 0.97361 0.92188 0.0
H1521 H 0.35236 0.96503 0.94904 0.0
H1522 H 0.39281 0.95387 0.95675 0.0
H1523 H 0.37991 0.92194 0.95312 0.0
H1524 H 0.38978 0.4601 0.42295 0.0
H1525 H 0.40095 0.44 0.42978 0.0
H1526 H 0.34811 0.39739 0.44174 0.0
H1527 H 0.33666 0.41743 0.43474 0.0
H1528 H 0.3964 0.41835 0.47014 0.0
H1529 H 0.36799 0.3796 0.38907 0.0
H1530 H 0.37016 0.40101 0.39334 0.0
H1531 H 0.35334 0.38219 0.40843 0.0
C1532 C 0.38047 0.44648 0.42708 0.0
C1533 C 0.36229 0.44035 0.42814 0.0
C1534 C 0.38691 0.43503 0.43105 0.0
C1535 C 0.37533 0.41723 0.43605 0.0
C1536 C 0.35721 0.41107 0.43763 0.0
H1537 H 0.41215 0.34034 0.43549 0.0
H1538 H 0.39242 0.35222 0.4421 0.0
C1539 C 0.35072 0.42255 0.4337 0.0
C1540 C 0.38247 0.40524 0.43896 0.0
H1541 H 0.38697 0.37349 0.4107 0.0
C1542 C 0.39413 0.40833 0.45737 0.0
C1543 C 0.37935 0.39211 0.42235 0.0
C1544 C 0.36711 0.38849 0.40207 0.0
C1545 C 0.40339 0.39917 0.45904 0.0
C1546 C 0.40112 0.38685 0.44162 0.0
C1547 C 0.38867 0.38298 0.42399 0.0
C1548 C 0.41302 0.3795 0.43972 0.0
C1549 C 0.41587 0.40309 0.47911 0.0
C1550 C 0.43106 0.39093 0.43611 0.0
C1551 C 0.44231 0.38424 0.43226 0.0
C1552 C 0.43572 0.36595 0.43181 0.0
C1553 C 0.41765 0.35449 0.43581 0.0
C1554 C 0.40636 0.36123 0.43958 0.0
H1555 H 0.41186 0.40797 0.49441 0.0
H1556 H 0.41654 0.39122 0.48427 0.0
H1557 H 0.42926 0.41353 0.47389 0.0
H1558 H 0.4364 0.40506 0.43562 0.0
H1559 H 0.45613 0.39345 0.42922 0.0
H1560 H 0.06687 0.41284 0.94659 0.0
H1561 H 0.03571 0.39208 0.9547 0.0
H1562 H 0.02397 0.43412 0.9472 0.0
H1563 H 0.05486 0.45488 0.93938 0.0
H1564 H 0.00681 0.41078 0.98562 0.0
H1565 H -0.0014 0.37558 0.90183 0.0
H1566 H 0.01549 0.37757 0.92141 0.0
H1567 H 0.01758 0.39687 0.90757 0.0
C1568 C 0.05767 0.41769 0.94695 0.0
C1569 C 0.06332 0.43548 0.94208 0.0
C1570 C 0.03989 0.4058 0.95149 0.0
C1571 C 0.02756 0.41156 0.95125 0.0
C1572 C 0.0333 0.42942 0.94742 0.0
H1573 H 0.92444 0.3897 0.94063 0.0
H1574 H 0.95536 0.40018 0.94887 0.0
C1575 C 0.05098 0.44126 0.94285 0.0
C1576 C 0.00848 0.39909 0.95354 0.0
H1577 H 0.97304 0.36891 0.92248 0.0
C1578 C -0.00059 0.40135 0.97208 0.0
C1579 C -0.00108 0.38674 0.9359 0.0
C1580 C 0.00804 0.38401 0.91544 0.0
C1581 C 0.98096 0.39228 0.97277 0.0
C1582 C 0.97141 0.38092 0.95426 0.0
C1583 C 0.98045 0.3777 0.93659 0.0
C1584 C 0.95234 0.37416 0.95125 0.0
C1585 C 0.97186 0.3954 0.9929 0.0
C1586 C 0.94042 0.35602 0.94947 0.0
C1587 C 0.92265 0.34993 0.94464 0.0
C1588 C 0.91661 0.36194 0.94119 0.0
C1589 C 0.92862 0.38008 0.94319 0.0
C1590 C 0.94629 0.38611 0.94812 0.0
H1591 H 0.98022 0.39938 0.00872 0.0
H1592 H 0.9693 0.40625 0.98842 0.0
H1593 H 0.95907 0.38344 -0.00313 0.0
H1594 H 0.94492 0.34661 0.95156 0.0
H1595 H 0.91375 0.33587 0.94316 0.0
H1596 H 0.57821 0.92648 0.43113 0.0
H1597 H 0.59746 0.95828 0.43699 0.0
H1598 H 0.55323 0.96624 0.42644 0.0
H1599 H 0.53398 0.93473 0.42072 0.0
H1600 H 0.60329 0.98487 0.4043 0.0
H1601 H 0.5758 0.99398 0.48612 0.0
H1602 H 0.572 0.9727 0.4766 0.0
H1603 H 0.55904 0.98165 0.465 0.0
C1604 C 0.57256 0.93499 0.43033 0.0
C1605 C 0.55456 0.92807 0.42545 0.0
C1606 C 0.58357 0.95313 0.43367 0.0
C1607 C 0.57668 0.96453 0.43251 0.0
C1608 C 0.55872 0.95761 0.4279 0.0
H1609 H 0.59877 0.06813 0.41462 0.0
H1610 H 0.58786 0.03678 0.42039 0.0
C1611 C 0.54776 0.93959 0.42445 0.0
C1612 C 0.58825 0.98382 0.4344 0.0
H1613 H 0.59155 0.01979 0.46199 0.0
C1614 C 0.60107 0.99256 0.41722 0.0
C1615 C 0.58532 0.99374 0.45134 0.0
C1616 C 0.57241 0.98502 0.47095 0.0
C1617 C 0.61014 0.01101 0.41553 0.0
C1618 C 0.60636 0.02086 0.43161 0.0
C1619 C 0.59431 0.01215 0.4496 0.0
C1620 C 0.61335 0.03996 0.42866 0.0
C1621 C 0.62288 0.01981 0.39577 0.0
C1622 C 0.63131 0.05212 0.43158 0.0
C1623 C 0.63764 0.07013 0.42829 0.0
C1624 C 0.62608 0.07622 0.42203 0.0
C1625 C 0.60806 0.06393 0.41934 0.0
C1626 C 0.60178 0.046 0.42269 0.0
H1627 H 0.62265 0.01012 0.38313 0.0
H1628 H 0.61975 0.02901 0.38646 0.0
H1629 H 0.63643 0.02762 0.40277 0.0
H1630 H 0.6404 0.04768 0.43642 0.0
H1631 H 0.65158 0.07924 0.43056 0.0
H1632 H 0.48928 0.63203 0.98728 0.0
H1633 H 0.4617 0.6084 0.00346 0.0
H1634 H 0.43569 0.6032 0.93802 0.0
H1635 H 0.46317 0.62681 0.92166 0.0
H1636 H 0.41556 0.60118 0.98087 0.0
H1637 H 0.44371 0.55661 0.9794 0.0
H1638 H 0.45679 0.57746 0.99366 0.0
H1639 H 0.45307 0.57685 0.96295 0.0
C1640 C 0.47763 0.62605 0.97644 0.0
C1641 C 0.47843 0.63112 0.95311 0.0
C1642 C 0.46192 0.61255 0.98569 0.0
C1643 C 0.4468 0.60398 0.9718 0.0
C1644 C 0.44728 0.60967 0.94895 0.0
H1645 H 0.35858 0.49896 -0.00525 0.0
H1646 H 0.3817 0.52607 0.97693 0.0
C1647 C 0.46299 0.62312 0.93964 0.0
C1648 C 0.43091 0.5882 0.98049 0.0
H1649 H 0.41555 0.54542 -0.00385 0.0
C1650 C 0.41549 0.58896 0.98423 0.0
C1651 C 0.43088 0.57226 0.98443 0.0
C1652 C 0.44693 0.57059 0.97976 0.0
C1653 C 0.40006 0.57419 0.99233 0.0
C1654 C 0.40019 0.55839 -0.00314 0.0
C1655 C 0.41553 0.55758 0.99269 0.0
C1656 C 0.38476 0.54258 0.00651 0.0
C1657 C 0.38371 0.57553 -0.00422 0.0
C1658 C 0.37873 0.54298 0.02891 0.0
C1659 C 0.36557 0.52753 0.03914 0.0
C1660 C 0.35829 0.51141 0.02716 0.0
C1661 C 0.36394 0.51117 0.00441 0.0
C1662 C 0.37713 0.52663 0.99421 0.0
H1663 H 0.38443 0.58684 0.9861 0.0
H1664 H 0.37179 0.56324 0.9901 0.0
H1665 H 0.38223 0.57747 0.0145 0.0
H1666 H 0.38467 0.5551 0.03883 0.0
H1667 H 0.3615 0.52813 0.05671 0.0
H1668 H 0.85581 0.36263 0.5013 0.0
H1669 H 0.85288 0.3867 0.48434 0.0
H1670 H 0.82783 0.39012 0.54697 0.0
H1671 H 0.83053 0.36602 0.56397 0.0
H1672 H 0.81199 0.39298 0.50507 0.0
H1673 H 0.88449 0.43798 0.50741 0.0
H1674 H 0.87732 0.41755 0.49232 0.0
H1675 H 0.87372 0.41737 0.52304 0.0
C1676 C 0.84949 0.36837 0.51134 0.0
C1677 C 0.84358 0.36257 0.53406 0.0
C1678 C 0.84791 0.38215 0.50168 0.0
C1679 C 0.84041 0.39034 0.51459 0.0
C1680 C 0.83373 0.38401 0.5368 0.0
H1681 H 0.85643 0.49516 0.49151 0.0
H1682 H 0.85326 0.46821 0.50889 0.0
C1683 C 0.83532 0.37026 0.54648 0.0
C1684 C 0.84031 0.40606 0.5055 0.0
H1685 H 0.8675 0.44888 0.48977 0.0
C1686 C 0.8241 0.40522 0.50169 0.0
C1687 C 0.85615 0.42206 0.50156 0.0
C1688 C 0.87393 0.42394 0.50646 0.0
C1689 C 0.82332 0.41994 0.49362 0.0
C1690 C 0.83917 0.43579 0.48908 0.0
C1691 C 0.85537 0.43668 0.49322 0.0
C1692 C 0.83939 0.45158 0.47958 0.0
C1693 C 0.80557 0.4185 0.49034 0.0
C1694 C 0.83248 0.45109 0.45747 0.0
C1695 C 0.83426 0.46642 0.44752 0.0
C1696 C 0.8431 0.48256 0.45946 0.0
C1697 C 0.84956 0.48293 0.48189 0.0
C1698 C 0.84778 0.46756 0.49182 0.0
H1699 H 0.79512 0.40727 0.5003 0.0
H1700 H 0.80589 0.43081 0.49582 0.0
H1701 H 0.80196 0.4163 0.47169 0.0
H1702 H 0.82626 0.43896 0.44756 0.0
H1703 H 0.82917 0.46572 0.43018 0.0
H1704 H 0.35772 0.82778 0.9324 0.0
H1705 H 0.38029 0.82396 0.95192 0.0
H1706 H 0.37452 0.84869 0.0134 0.0
H1707 H 0.352 0.85279 0.99386 0.0
H1708 H 0.40881 0.86376 -0.00215 0.0
H1709 H 0.3788 0.7912 0.00347 0.0
H1710 H 0.3779 0.79883 0.97485 0.0
H1711 H 0.36598 0.80181 -0.00186 0.0
C1712 C 0.36102 0.83214 0.95022 0.0
C1713 C 0.35315 0.84068 0.96156 0.0
C1714 C 0.37384 0.82983 0.9614 0.0
C1715 C 0.37893 0.83587 0.98418 0.0
C1716 C 0.37068 0.84385 -0.00415 0.0
H1717 H 0.45641 0.82505 0.06643 0.0
H1718 H 0.42917 0.82271 0.05157 0.0
C1719 C 0.35783 0.84617 0.98467 0.0
C1720 C 0.39409 0.83548 -0.00516 0.0
H1721 H 0.41004 0.80822 0.00902 0.0
C1722 C 0.40901 0.85161 0.00052 0.0
C1723 C 0.39427 0.8196 -0.0016 0.0
C1724 C 0.37832 0.80186 0.99361 0.0
C1725 C 0.42432 0.85233 0.00906 0.0
C1726 C 0.42478 0.83652 0.01163 0.0
C1727 C 0.40969 0.82033 0.00667 0.0
C1728 C 0.44086 0.83664 0.01962 0.0
C1729 C 0.43988 0.87002 0.0153 0.0
C1730 C 0.45628 0.84481 0.00623 0.0
C1731 C 0.47186 0.84617 0.01463 0.0
C1732 C 0.47223 0.83935 0.03657 0.0
C1733 C 0.45656 0.83051 0.04951 0.0
C1734 C 0.44099 0.82914 0.04106 0.0
H1735 H 0.43601 0.88021 0.01762 0.0
H1736 H 0.44625 0.86913 0.03151 0.0
H1737 H 0.44977 0.87441 0.00114 0.0
H1738 H 0.45633 0.85042 0.98945 0.0
H1739 H 0.48368 0.85295 0.0042 0.0
H1740 H 0.5244 0.36511 0.42544 0.0
H1741 H 0.55168 0.38897 0.44176 0.0
H1742 H 0.5255 0.38349 0.50716 0.0
H1743 H 0.4981 0.35968 0.49096 0.0
H1744 H 0.54254 0.41784 0.48874 0.0
H1745 H 0.58682 0.3895 0.48994 0.0
H1746 H 0.57586 0.38742 0.46278 0.0
H1747 H 0.56315 0.37603 0.48793 0.0
C1748 C 0.52452 0.36877 0.44342 0.0
C1749 C 0.50908 0.36057 0.4569 0.0
C1750 C 0.54015 0.38235 0.45274 0.0
C1751 C 0.54062 0.38788 0.47569 0.0
C1752 C 0.52539 0.37934 0.48942 0.0
H1753 H 0.62689 0.46431 0.55888 0.0
H1754 H 0.60302 0.43751 0.54158 0.0
C1755 C 0.50976 0.36574 0.48014 0.0
C1756 C 0.55649 0.40358 0.48473 0.0
H1757 H 0.60002 0.42024 0.49733 0.0
C1758 C 0.5551 0.41836 0.49069 0.0
C1759 C 0.5728 0.40414 0.48728 0.0
C1760 C 0.5748 0.38839 0.48185 0.0
C1761 C 0.56966 0.4338 0.499 0.0
C1762 C 0.58607 0.43452 0.50109 0.0
C1763 C 0.58744 0.41968 0.49539 0.0
C1764 C 0.60172 0.45038 0.51021 0.0
C1765 C 0.56731 0.44913 0.50585 0.0
C1766 C 0.60918 0.46635 0.49795 0.0
C1767 C 0.62282 0.4817 0.50778 0.0
C1768 C 0.62919 0.48128 0.53003 0.0
C1769 C 0.62219 0.46508 0.54178 0.0
C1770 C 0.6086 0.44975 0.53191 0.0
H1771 H 0.5532 0.44519 0.50767 0.0
H1772 H 0.57411 0.45495 0.52251 0.0
H1773 H 0.5732 0.4595 0.49231 0.0
H1774 H 0.60415 0.467 0.48103 0.0
H1775 H 0.62801 0.49396 0.49826 0.0
H1776 H 0.14695 0.52477 0.92197 0.0
H1777 H 0.15169 0.553 0.93664 0.0
H1778 H 0.14605 0.53386 0.00685 0.0
H1779 H 0.14119 0.50547 0.99234 0.0
H1780 H 0.12489 0.5544 0.96615 0.0
H1781 H 0.19124 0.58472 0.00682 0.0
H1782 H 0.18427 0.56817 0.98434 0.0
H1783 H 0.17626 0.5619 0.01343 0.0
C1784 C 0.14699 0.52664 0.94056 0.0
C1785 C 0.14361 0.51287 0.95602 0.0
C1786 C 0.14971 0.54277 0.94888 0.0
C1787 C 0.14934 0.5455 0.97278 0.0
C1788 C 0.14661 0.53204 0.98833 0.0
H1789 H 0.14809 0.6235 0.06158 0.0
H1790 H 0.15134 0.59991 0.04401 0.0
C1791 C 0.14376 0.51583 0.98002 0.0
C1792 C 0.15006 0.56174 0.9813 0.0
H1793 H 0.17454 0.5988 0.01353 0.0
C1794 C 0.1358 0.56423 0.97634 0.0
C1795 C 0.16425 0.57435 -0.0053 0.0
C1796 C 0.17998 0.57231 8e-05 0.0
C1797 C 0.13509 0.57881 0.98499 0.0
C1798 C 0.14932 0.59152 -0.0016 0.0
C1799 C 0.16371 0.58911 0.00313 0.0
C1800 C 0.14903 0.60687 0.00866 0.0
C1801 C 0.11878 0.58005 0.98047 0.0
C1802 C 0.1472 0.61895 0.99457 0.0
C1803 C 0.14512 0.63233 0.00459 0.0
C1804 C 0.14514 0.63401 0.02884 0.0
C1805 C 0.14795 0.6225 0.04284 0.0
C1806 C 0.14984 0.60903 0.03283 0.0
H1807 H 0.10742 0.56714 0.97529 0.0
H1808 H 0.11499 0.58483 -0.00392 0.0
H1809 H 0.12142 0.58949 0.9661 0.0
H1810 H 0.147 0.61779 0.97585 0.0
H1811 H 0.14318 0.64114 0.99336 0.0
H1812 H 0.49193 0.13226 0.496 0.0
H1813 H 0.51947 0.13607 0.47981 0.0
H1814 H 0.54716 0.16354 0.54177 0.0
H1815 H 0.51981 0.15998 0.55798 0.0
H1816 H 0.56567 0.1789 0.49993 0.0
H1817 H 0.54121 0.10696 0.50496 0.0
H1818 H 0.52736 0.1129 0.48895 0.0
H1819 H 0.53041 0.11719 0.51959 0.0
C1820 C 0.50392 0.13929 0.50606 0.0
C1821 C 0.50368 0.14565 0.52837 0.0
C1822 C 0.5196 0.14137 0.49684 0.0
C1823 C 0.53523 0.14981 0.5098 0.0
C1824 C 0.53519 0.15691 0.53157 0.0
H1825 H 0.62699 0.1382 0.48967 0.0
H1826 H 0.60239 0.14028 0.50631 0.0
C1827 C 0.51955 0.15483 0.54081 0.0
C1828 C 0.55148 0.15054 0.50121 0.0
H1829 H 0.56891 0.12458 0.48712 0.0
C1830 C 0.56642 0.16705 0.49711 0.0
C1831 C 0.55246 0.13505 0.498 0.0
C1832 C 0.53708 0.11701 0.50328 0.0
C1833 C 0.58228 0.16846 0.48944 0.0
C1834 C 0.58308 0.15294 0.48558 0.0
C1835 C 0.56822 0.13646 0.49003 0.0
C1836 C 0.59907 0.15336 0.47648 0.0
C1837 C 0.59809 0.18653 0.48586 0.0
C1838 C 0.60542 0.16017 0.45431 0.0
C1839 C 0.61946 0.15903 0.44479 0.0
C1840 C 0.62731 0.15092 0.45721 0.0
C1841 C 0.62123 0.14453 0.47968 0.0
C1842 C 0.60717 0.14568 0.48919 0.0
H1843 H 0.59676 0.19681 0.49545 0.0
H1844 H 0.61037 0.18689 0.49156 0.0
H1845 H 0.59937 0.18987 0.46712 0.0
H1846 H 0.59914 0.16584 0.44403 0.0
H1847 H 0.62381 0.16403 0.4274 0.0
H1848 H 0.49552 0.35461 -0.00413 0.0
H1849 H 0.52299 0.37821 0.97939 0.0
H1850 H 0.5501 0.38147 0.04327 0.0
H1851 H 0.52281 0.35783 0.05979 0.0
H1852 H 0.54109 0.41198 -0.00153 0.0
H1853 H 0.58405 0.38231 0.99351 0.0
H1854 H 0.5604 0.36923 -0.00364 0.0
H1855 H 0.57382 0.38001 0.02129 0.0
C1856 C 0.5074 0.36012 0.00625 0.0
C1857 C 0.507 0.35442 0.02916 0.0
C1858 C 0.52306 0.3736 -0.00318 0.0
C1859 C 0.53858 0.38147 0.01006 0.0
C1860 C 0.53835 0.37536 0.03262 0.0
H1861 H 0.62703 0.4874 0.99253 0.0
H1862 H 0.60274 0.45998 0.0082 0.0
C1863 C 0.52271 0.36192 0.04207 0.0
C1864 C 0.55455 0.39715 0.00115 0.0
H1865 H 0.59804 0.41347 0.98852 0.0
C1866 C 0.55352 0.41228 -0.00383 0.0
C1867 C 0.57071 0.39745 -0.00188 0.0
C1868 C 0.57235 0.38134 0.00239 0.0
C1869 C 0.5683 0.42783 0.98854 0.0
C1870 C 0.58458 0.42831 0.98614 0.0
C1871 C 0.58557 0.41309 0.99072 0.0
C1872 C 0.60049 0.44435 0.97796 0.0
C1873 C 0.56632 0.44357 0.98279 0.0
C1874 C 0.60766 0.4444 0.95621 0.0
C1875 C 0.62151 0.45998 0.94725 0.0
C1876 C 0.62849 0.47577 0.95996 0.0
C1877 C 0.62187 0.47547 0.98228 0.0
C1878 C 0.60797 0.45986 0.99121 0.0
H1879 H 0.55229 0.4399 0.98081 0.0
H1880 H 0.57209 0.45338 -0.00299 0.0
H1881 H 0.57344 0.44998 0.96651 0.0
H1882 H 0.60209 0.43252 0.94579 0.0
H1883 H 0.6264 0.45976 0.93005 0.0
H1884 H 0.15958 0.62832 0.42947 0.0
H1885 H 0.16284 0.60459 0.44667 0.0
H1886 H 0.13424 0.60517 0.50723 0.0
H1887 H 0.13081 0.62888 0.4901 0.0
H1888 H 0.1772 0.60159 0.49057 0.0
H1889 H 0.10558 0.55422 0.48076 0.0
H1890 H 0.11648 0.5752 0.46601 0.0
H1891 H 0.11104 0.57412 0.49624 0.0
C1892 C 0.15414 0.62354 0.44656 0.0
C1893 C 0.14476 0.63033 0.45833 0.0
C1894 C 0.15605 0.61001 0.45636 0.0
C1895 C 0.14856 0.603 0.47803 0.0
C1896 C 0.1399 0.61028 0.49033 0.0
H1897 H 0.15802 0.52733 0.56412 0.0
H1898 H 0.16121 0.55424 0.54679 0.0
C1899 C 0.13801 0.62385 0.48056 0.0
C1900 C 0.14897 0.58743 0.4871 0.0
H1901 H 0.12246 0.54391 0.50007 0.0
C1902 C 0.16526 0.58896 0.49268 0.0
C1903 C 0.13338 0.57094 0.4894 0.0
C1904 C 0.11562 0.56838 0.48262 0.0
C1905 C 0.16633 0.57443 0.50095 0.0
C1906 C 0.15067 0.55807 0.50382 0.0
C1907 C 0.13443 0.55651 0.49789 0.0
C1908 C 0.15066 0.54239 0.51338 0.0
C1909 C 0.18417 0.57663 0.50625 0.0
C1910 C 0.14371 0.52682 0.5003 0.0
C1911 C 0.1418 0.51138 0.51017 0.0
C1912 C 0.14666 0.51125 0.53338 0.0
C1913 C 0.15418 0.52702 0.54618 0.0
C1914 C 0.15611 0.54244 0.53628 0.0
H1915 H 0.19491 0.58845 0.49757 0.0
H1916 H 0.18649 0.57825 0.52525 0.0
H1917 H 0.18486 0.56485 0.50072 0.0
H1918 H 0.13938 0.52651 0.48261 0.0
H1919 H 0.13597 0.49945 0.49987 0.0
H1920 H 0.62985 0.16121 0.05083 0.0
H1921 H 0.60701 0.16623 0.03425 0.0
H1922 H 0.59124 0.12183 0.98846 0.0
H1923 H 0.61467 0.11743 0.00404 0.0
H1924 H 0.58969 0.14686 0.96642 0.0
H1925 H 0.5565 0.1378 0.05138 0.0
H1926 H 0.57864 0.15596 0.05127 0.0
H1927 H 0.57461 0.13384 0.04743 0.0
C1928 C 0.6216 0.15266 0.03705 0.0
C1929 C 0.6239 0.13885 0.02883 0.0
C1930 C 0.60846 0.15543 0.02775 0.0
C1931 C 0.59704 0.14408 0.0106 0.0
C1932 C 0.5998 0.13069 0.00178 0.0
H1933 H 0.49158 0.11964 0.97981 0.0
H1934 H 0.51876 0.1225 -0.00452 0.0
C1935 C 0.6132 0.12819 0.01069 0.0
C1936 C 0.58196 0.14575 0.00212 0.0
H1937 H 0.54486 0.1459 0.0198 0.0
C1938 C 0.57989 0.14665 0.97809 0.0
C1939 C 0.56903 0.14526 0.01736 0.0
C1940 C 0.56968 0.14298 0.04326 0.0
C1941 C 0.56511 0.1467 0.96882 0.0
C1942 C 0.55241 0.14665 0.98408 0.0
C1943 C 0.55467 0.14612 0.00813 0.0
C1944 C 0.53604 0.14581 0.97551 0.0
C1945 C 0.56293 0.14597 0.94277 0.0
C1946 C 0.53666 0.15823 0.95955 0.0
C1947 C 0.52112 0.15637 0.95018 0.0
C1948 C 0.50469 0.14238 0.95716 0.0
C1949 C 0.50406 0.13057 0.97413 0.0
C1950 C 0.51959 0.1322 0.98309 0.0
H1951 H 0.57096 0.14104 0.93414 0.0
H1952 H 0.54895 0.13731 0.93773 0.0
H1953 H 0.56738 0.15943 0.93609 0.0
H1954 H 0.54916 0.1692 0.95405 0.0
H1955 H 0.52194 0.16578 0.93731 0.0
H1956 H 0.46519 0.64436 0.53957 0.0
H1957 H 0.43748 0.62124 0.52304 0.0
H1958 H 0.46628 0.6031 0.48153 0.0
H1959 H 0.49401 0.62683 0.49695 0.0
H1960 H 0.43972 0.60006 0.45789 0.0
H1961 H 0.41548 0.57188 0.54534 0.0
H1962 H 0.41944 0.59394 0.54254 0.0
H1963 H 0.43753 0.58975 0.54049 0.0
C1964 C 0.46557 0.6356 0.5266 0.0
C1965 C 0.48168 0.63726 0.51964 0.0
C1966 C 0.44974 0.62229 0.51736 0.0
C1967 C 0.44974 0.61005 0.50164 0.0
C1968 C 0.46592 0.61229 0.49378 0.0
H1969 H 0.36875 0.50286 0.48018 0.0
H1970 H 0.39303 0.53098 0.49365 0.0
C1971 C 0.48176 0.62587 0.50257 0.0
C1972 C 0.43301 0.59447 0.49404 0.0
H1973 H 0.3958 0.55842 0.51414 0.0
C1974 C 0.43009 0.59095 0.47018 0.0
C1975 C 0.42058 0.58243 0.51011 0.0
C1976 C 0.42347 0.58456 0.53603 0.0
C1977 C 0.41532 0.57562 0.46195 0.0
C1978 C 0.40265 0.56383 0.478 0.0
C1979 C 0.4054 0.56753 0.50183 0.0
C1980 C 0.38715 0.54694 0.47066 0.0
C1981 C 0.41394 0.57187 0.43622 0.0
C1982 C 0.37541 0.54653 0.45374 0.0
C1983 C 0.36176 0.53042 0.44564 0.0
C1984 C 0.35927 0.5145 0.45488 0.0
C1985 C 0.37034 0.51495 0.47279 0.0
C1986 C 0.38423 0.53102 0.48047 0.0
H1987 H 0.42693 0.57938 0.42747 0.0
H1988 H 0.40862 0.55762 0.43279 0.0
H1989 H 0.40498 0.57591 0.42824 0.0
H1990 H 0.37698 0.55863 0.44649 0.0
H1991 H 0.35326 0.53042 0.43199 0.0
H1992 H 0.84908 0.35748 -0.00102 0.0
H1993 H 0.84582 0.38146 0.01548 0.0
H1994 H 0.82278 0.38572 0.95142 0.0
H1995 H 0.82591 0.36176 0.93483 0.0
H1996 H 0.86251 0.41553 -0.00476 0.0
H1997 H 0.79015 0.38747 0.00203 0.0
H1998 H 0.80024 0.37389 -0.00021 0.0
H1999 H 0.79772 0.38434 0.97441 0.0
C2000 C 0.843 0.36328 0.98857 0.0
C2001 C 0.83783 0.3578 0.96557 0.0
C2002 C 0.84117 0.37698 -0.00199 0.0
C2003 C 0.83395 0.38524 0.98471 0.0
C2004 C 0.82812 0.37932 0.96209 0.0
H2005 H 0.85269 0.49167 -0.00123 0.0
H2006 H 0.84834 0.46351 0.98411 0.0
C2007 C 0.83001 0.36569 0.9526 0.0
C2008 C 0.83418 0.4012 0.99356 0.0
H2009 H 0.80798 0.41855 0.00684 0.0
C2010 C 0.85059 0.41617 -0.00209 0.0
C2011 C 0.8186 0.40193 -0.00298 0.0
C2012 C 0.80065 0.38602 0.99328 0.0
C2013 C 0.85186 0.432 0.0053 0.0
C2014 C 0.83631 0.43288 0.0082 0.0
C2015 C 0.81986 0.41783 0.00429 0.0
C2016 C 0.83703 0.44928 0.01601 0.0
C2017 C 0.86981 0.44766 0.01014 0.0
C2018 C 0.83157 0.45035 0.0385 0.0
C2019 C 0.83408 0.46638 0.04694 0.0
C2020 C 0.84199 0.48157 0.03294 0.0
C2021 C 0.84663 0.48022 0.00999 0.0
C2022 C 0.84419 0.46418 0.00161 0.0
H2023 H 0.88015 0.44389 0.01118 0.0
H2024 H 0.87338 0.45745 -0.00403 0.0
H2025 H 0.86971 0.45413 0.02666 0.0
H2026 H 0.82598 0.43894 0.04981 0.0
H2027 H 0.83028 0.46699 0.06465 0.0
H2028 H 0.49071 0.869 0.48025 0.0
H2029 H 0.46204 0.86339 0.494 0.0
H2030 H 0.43638 0.82367 0.44114 0.0
H2031 H 0.46516 0.82988 0.42657 0.0
H2032 H 0.42262 0.84378 0.44199 0.0
H2033 H 0.42566 0.82495 0.53248 0.0
H2034 H 0.44424 0.84615 0.52631 0.0
H2035 H 0.44151 0.827 0.51095 0.0
C2036 C 0.47895 0.85891 0.47176 0.0
C2037 C 0.48014 0.84984 0.45238 0.0
C2038 C 0.46254 0.85561 0.47974 0.0
C2039 C 0.44699 0.84284 0.46893 0.0
C2040 C 0.44817 0.83353 0.44983 0.0
H2041 H 0.34893 0.81984 0.53747 0.0
H2042 H 0.37188 0.81591 0.51907 0.0
C2043 C 0.46461 0.83705 0.44156 0.0
C2044 C 0.42964 0.84012 0.47659 0.0
H2045 H 0.405 0.83494 0.52484 0.0
C2046 C 0.41863 0.84156 0.46007 0.0
C2047 C 0.42418 0.83682 0.50005 0.0
C2048 C 0.43445 0.83344 0.51837 0.0
C2049 C 0.40273 0.84058 0.46653 0.0
C2050 C 0.39804 0.8388 0.49029 0.0
C2051 C 0.40866 0.83657 0.50664 0.0
C2052 C 0.38266 0.83994 0.49885 0.0
C2053 C 0.39115 0.84138 0.44775 0.0
C2054 C 0.3808 0.85456 0.49329 0.0
C2055 C 0.36741 0.85658 0.50335 0.0
C2056 C 0.35599 0.84429 0.51971 0.0
C2057 C 0.3576 0.82951 0.52492 0.0
C2058 C 0.37073 0.82728 0.51446 0.0
H2059 H 0.39295 0.83605 0.43111 0.0
H2060 H 0.37701 0.83385 0.45261 0.0
H2061 H 0.39488 0.85532 0.44469 0.0
H2062 H 0.39013 0.86481 0.4819 0.0
H2063 H 0.3666 0.86822 0.49927 0.0
loop_
_geom_bond_atom_site_label_1
_geom_bond_atom_site_label_2
_geom_bond_distance
_geom_bond_site_symmetry_2
_ccdc_geom_bond_type
C0 O1 1.306 . S
C0 O3 1.160 . S
O1 C0 1.306 . S
O1 Cd2 2.228 . S
Cd2 O1 2.228 . S
Cd2 O6 2.273 . S
Cd2 O10 2.277 . S
O3 C0 1.160 . S
O3 Cd4 2.203 . S
Cd4 O3 2.203 . S
Cd4 O6 2.411 . S
Cd4 O7 2.333 . S
Cd4 O8 2.352 . S
Cd4 O12 2.277 . S
Cd4 O13 2.356 . S
C5 O10 1.209 . S
C5 O12 1.226 . S
O6 Cd2 2.273 . S
O6 Cd4 2.411 . S
O6 C9 1.320 . S
O7 Cd4 2.333 . S
O7 C9 1.214 . S
O8 Cd4 2.352 . S
O8 C11 1.258 . S
C9 O6 1.320 . S
C9 O7 1.214 . S
O10 Cd2 2.277 . S
O10 C5 1.209 . S
C11 O8 1.258 . S
C11 O13 1.282 . S
O12 Cd4 2.277 . S
O12 C5 1.226 . S
O13 Cd4 2.356 . S
O13 C11 1.282 . S
C14 O15 1.306 . S
C14 O17 1.160 . S
O15 C14 1.306 . S
O15 Cd16 2.228 . S
Cd16 O15 2.228 . S
Cd16 O20 2.273 . S
Cd16 O24 2.277 . S
O17 C14 1.160 . S
O17 Cd18 2.203 . S
Cd18 O17 2.203 . S
Cd18 O20 2.411 . S
Cd18 O21 2.333 . S
Cd18 O22 2.352 . S
Cd18 O26 2.277 . S
Cd18 O27 2.356 . S
C19 O24 1.209 . S
C19 O26 1.226 . S
O20 Cd16 2.273 . S
O20 Cd18 2.411 . S
O20 C23 1.320 . S
O21 Cd18 2.333 . S
O21 C23 1.214 . S
O22 Cd18 2.352 . S
O22 C25 1.258 . S
C23 O20 1.320 . S
C23 O21 1.214 . S
O24 Cd16 2.277 . S
O24 C19 1.209 . S
C25 O22 1.258 . S
C25 O27 1.282 . S
O26 Cd18 2.277 . S
O26 C19 1.226 . S
O27 Cd18 2.356 . S
O27 C25 1.282 . S
C28 O29 1.306 . S
C28 O31 1.160 . S
O29 C28 1.306 . S
O29 Cd30 2.228 . S
Cd30 O29 2.228 . S
Cd30 O34 2.273 . S
Cd30 O38 2.277 . S
O31 C28 1.160 . S
O31 Cd32 2.203 . S
Cd32 O31 2.203 . S
Cd32 O34 2.411 . S
Cd32 O35 2.333 . S
Cd32 O36 2.352 . S
Cd32 O40 2.277 . S
Cd32 O41 2.356 . S
C33 O38 1.209 . S
C33 O40 1.226 . S
O34 Cd30 2.273 . S
O34 Cd32 2.411 . S
O34 C37 1.320 . S
O35 Cd32 2.333 . S
O35 C37 1.214 . S
O36 Cd32 2.352 . S
O36 C39 1.258 . S
C37 O34 1.320 . S
C37 O35 1.214 . S
O38 Cd30 2.277 . S
O38 C33 1.209 . S
C39 O36 1.258 . S
C39 O41 1.282 . S
O40 Cd32 2.277 . S
O40 C33 1.226 . S
O41 Cd32 2.356 . S
O41 C39 1.282 . S
C42 O43 1.306 . S
C42 O45 1.160 . S
O43 C42 1.306 . S
O43 Cd44 2.228 . S
Cd44 O43 2.228 . S
Cd44 O48 2.273 . S
Cd44 O52 2.277 . S
O45 C42 1.160 . S
O45 Cd46 2.203 . S
Cd46 O45 2.203 . S
Cd46 O48 2.411 . S
Cd46 O49 2.333 . S
Cd46 O50 2.352 . S
Cd46 O54 2.277 . S
Cd46 O55 2.356 . S
C47 O52 1.209 . S
C47 O54 1.226 . S
O48 Cd44 2.273 . S
O48 Cd46 2.411 . S
O48 C51 1.320 . S
O49 Cd46 2.333 . S
O49 C51 1.214 . S
O50 Cd46 2.352 . S
O50 C53 1.258 . S
C51 O48 1.320 . S
C51 O49 1.214 . S
O52 Cd44 2.277 . S
O52 C47 1.209 . S
C53 O50 1.258 . S
C53 O55 1.282 . S
O54 Cd46 2.277 . S
O54 C47 1.226 . S
O55 Cd46 2.356 . S
O55 C53 1.282 . S
C56 O57 1.306 . S
C56 O59 1.160 . S
O57 C56 1.306 . S
O57 Cd58 2.228 . S
Cd58 O57 2.228 . S
Cd58 O62 2.273 . S
Cd58 O66 2.277 . S
O59 C56 1.160 . S
O59 Cd60 2.203 . S
Cd60 O59 2.203 . S
Cd60 O62 2.411 . S
Cd60 O63 2.333 . S
Cd60 O64 2.352 . S
Cd60 O68 2.277 . S
Cd60 O69 2.356 . S
C61 O66 1.209 . S
C61 O68 1.226 . S
O62 Cd58 2.273 . S
O62 Cd60 2.411 . S
O62 C65 1.320 . S
O63 Cd60 2.333 . S
O63 C65 1.214 . S
O64 Cd60 2.352 . S
O64 C67 1.258 . S
C65 O62 1.320 . S
C65 O63 1.214 . S
O66 Cd58 2.277 . S
O66 C61 1.209 . S
C67 O64 1.258 . S
C67 O69 1.282 . S
O68 Cd60 2.277 . S
O68 C61 1.226 . S
O69 Cd60 2.356 . S
O69 C67 1.282 . S
C70 O71 1.306 . S
C70 O73 1.160 . S
O71 C70 1.306 . S
O71 Cd72 2.228 . S
Cd72 O71 2.228 . S
Cd72 O76 2.273 . S
Cd72 O80 2.277 . S
O73 C70 1.160 . S
O73 Cd74 2.203 . S
Cd74 O73 2.203 . S
Cd74 O76 2.411 . S
Cd74 O77 2.333 . S
Cd74 O78 2.352 . S
Cd74 O82 2.277 . S
Cd74 O83 2.356 . S
C75 O80 1.209 . S
C75 O82 1.226 . S
O76 Cd72 2.273 . S
O76 Cd74 2.411 . S
O76 C79 1.320 . S
O77 Cd74 2.333 . S
O77 C79 1.214 . S
O78 Cd74 2.352 . S
O78 C81 1.258 . S
C79 O76 1.320 . S
C79 O77 1.214 . S
O80 Cd72 2.277 . S
O80 C75 1.209 . S
C81 O78 1.258 . S
C81 O83 1.282 . S
O82 Cd74 2.277 . S
O82 C75 1.226 . S
O83 Cd74 2.356 . S
O83 C81 1.282 . S
C84 O85 1.306 . S
C84 O87 1.160 . S
O85 C84 1.306 . S
O85 Cd86 2.228 . S
Cd86 O85 2.228 . S
Cd86 O90 2.273 . S
Cd86 O94 2.277 . S
O87 C84 1.160 . S
O87 Cd88 2.203 . S
Cd88 O87 2.203 . S
Cd88 O90 2.411 . S
Cd88 O91 2.333 . S
Cd88 O92 2.352 . S
Cd88 O96 2.277 . S
Cd88 O97 2.356 . S
C89 O94 1.209 . S
C89 O96 1.226 . S
O90 Cd86 2.273 . S
O90 Cd88 2.411 . S
O90 C93 1.320 . S
O91 Cd88 2.333 . S
O91 C93 1.214 . S
O92 Cd88 2.352 . S
O92 C95 1.258 . S
C93 O90 1.320 . S
C93 O91 1.214 . S
O94 Cd86 2.277 . S
O94 C89 1.209 . S
C95 O92 1.258 . S
C95 O97 1.282 . S
O96 Cd88 2.277 . S
O96 C89 1.226 . S
O97 Cd88 2.356 . S
O97 C95 1.282 . S
C98 O99 1.306 . S
C98 O101 1.160 . S
O99 C98 1.306 . S
O99 Cd100 2.228 . S
Cd100 O99 2.228 . S
Cd100 O104 2.273 . S
Cd100 O108 2.277 . S
O101 C98 1.160 . S
O101 Cd102 2.203 . S
Cd102 O101 2.203 . S
Cd102 O104 2.411 . S
Cd102 O105 2.333 . S
Cd102 O106 2.352 . S
Cd102 O110 2.277 . S
Cd102 O111 2.356 . S
C103 O108 1.209 . S
C103 O110 1.226 . S
O104 Cd100 2.273 . S
O104 Cd102 2.411 . S
O104 C107 1.320 . S
O105 Cd102 2.333 . S
O105 C107 1.214 . S
O106 Cd102 2.352 . S
O106 C109 1.258 . S
C107 O104 1.320 . S
C107 O105 1.214 . S
O108 Cd100 2.277 . S
O108 C103 1.209 . S
C109 O106 1.258 . S
C109 O111 1.282 . S
O110 Cd102 2.277 . S
O110 C103 1.226 . S
O111 Cd102 2.356 . S
O111 C109 1.282 . S
C112 O113 1.306 . S
C112 O115 1.160 . S
O113 C112 1.306 . S
O113 Cd114 2.228 . S
Cd114 O113 2.228 . S
Cd114 O118 2.273 . S
Cd114 O122 2.277 . S
O115 C112 1.160 . S
O115 Cd116 2.203 . S
Cd116 O115 2.203 . S
Cd116 O118 2.411 . S
Cd116 O119 2.333 . S
Cd116 O120 2.352 . S
Cd116 O124 2.277 . S
Cd116 O125 2.356 . S
C117 O122 1.209 . S
C117 O124 1.226 . S
O118 Cd114 2.273 . S
O118 Cd116 2.411 . S
O118 C121 1.320 . S
O119 Cd116 2.333 . S
O119 C121 1.214 . S
O120 Cd116 2.352 . S
O120 C123 1.258 . S
C121 O118 1.320 . S
C121 O119 1.214 . S
O122 Cd114 2.277 . S
O122 C117 1.209 . S
C123 O120 1.258 . S
C123 O125 1.282 . S
O124 Cd116 2.277 . S
O124 C117 1.226 . S
O125 Cd116 2.356 . S
O125 C123 1.282 . S
C126 O127 1.306 . S
C126 O129 1.160 . S
O127 C126 1.306 . S
O127 Cd128 2.228 . S
Cd128 O127 2.228 . S
Cd128 O132 2.273 . S
Cd128 O136 2.277 . S
O129 C126 1.160 . S
O129 Cd130 2.203 . S
Cd130 O129 2.203 . S
Cd130 O132 2.411 . S
Cd130 O133 2.333 . S
Cd130 O134 2.352 . S
Cd130 O138 2.277 . S
Cd130 O139 2.356 . S
C131 O136 1.209 . S
C131 O138 1.226 . S
O132 Cd128 2.273 . S
O132 Cd130 2.411 . S
O132 C135 1.320 . S
O133 Cd130 2.333 . S
O133 C135 1.214 . S
O134 Cd130 2.352 . S
O134 C137 1.258 . S
C135 O132 1.320 . S
C135 O133 1.214 . S
O136 Cd128 2.277 . S
O136 C131 1.209 . S
C137 O134 1.258 . S
C137 O139 1.282 . S
O138 Cd130 2.277 . S
O138 C131 1.226 . S
O139 Cd130 2.356 . S
O139 C137 1.282 . S
C140 O141 1.306 . S
C140 O143 1.160 . S
O141 C140 1.306 . S
O141 Cd142 2.228 . S
Cd142 O141 2.228 . S
Cd142 O146 2.273 . S
Cd142 O150 2.277 . S
O143 C140 1.160 . S
O143 Cd144 2.203 . S
Cd144 O143 2.203 . S
Cd144 O146 2.411 . S
Cd144 O147 2.333 . S
Cd144 O148 2.352 . S
Cd144 O152 2.277 . S
Cd144 O153 2.356 . S
C145 O150 1.209 . S
C145 O152 1.226 . S
O146 Cd142 2.273 . S
O146 Cd144 2.411 . S
O146 C149 1.320 . S
O147 Cd144 2.333 . S
O147 C149 1.214 . S
O148 Cd144 2.352 . S
O148 C151 1.258 . S
C149 O146 1.320 . S
C149 O147 1.214 . S
O150 Cd142 2.277 . S
O150 C145 1.209 . S
C151 O148 1.258 . S
C151 O153 1.282 . S
O152 Cd144 2.277 . S
O152 C145 1.226 . S
O153 Cd144 2.356 . S
O153 C151 1.282 . S
C154 O155 1.306 . S
C154 O157 1.160 . S
O155 C154 1.306 . S
O155 Cd156 2.228 . S
Cd156 O155 2.228 . S
Cd156 O160 2.273 . S
Cd156 O164 2.277 . S
O157 C154 1.160 . S
O157 Cd158 2.203 . S
Cd158 O157 2.203 . S
Cd158 O160 2.411 . S
Cd158 O161 2.333 . S
Cd158 O162 2.352 . S
Cd158 O166 2.277 . S
Cd158 O167 2.356 . S
C159 O164 1.209 . S
C159 O166 1.226 . S
O160 Cd156 2.273 . S
O160 Cd158 2.411 . S
O160 C163 1.320 . S
O161 Cd158 2.333 . S
O161 C163 1.214 . S
O162 Cd158 2.352 . S
O162 C165 1.258 . S
C163 O160 1.320 . S
C163 O161 1.214 . S
O164 Cd156 2.277 . S
O164 C159 1.209 . S
C165 O162 1.258 . S
C165 O167 1.282 . S
O166 Cd158 2.277 . S
O166 C159 1.226 . S
O167 Cd158 2.356 . S
O167 C165 1.282 . S
C168 O169 1.306 . S
C168 O171 1.160 . S
O169 C168 1.306 . S
O169 Cd170 2.228 . S
Cd170 O169 2.228 . S
Cd170 O174 2.273 . S
Cd170 O178 2.277 . S
O171 C168 1.160 . S
O171 Cd172 2.203 . S
Cd172 O171 2.203 . S
Cd172 O174 2.411 . S
Cd172 O175 2.333 . S
Cd172 O176 2.352 . S
Cd172 O180 2.277 . S
Cd172 O181 2.356 . S
C173 O178 1.209 . S
C173 O180 1.226 . S
O174 Cd170 2.273 . S
O174 Cd172 2.411 . S
O174 C177 1.320 . S
O175 Cd172 2.333 . S
O175 C177 1.214 . S
O176 Cd172 2.352 . S
O176 C179 1.258 . S
C177 O174 1.320 . S
C177 O175 1.214 . S
O178 Cd170 2.277 . S
O178 C173 1.209 . S
C179 O176 1.258 . S
C179 O181 1.282 . S
O180 Cd172 2.277 . S
O180 C173 1.226 . S
O181 Cd172 2.356 . S
O181 C179 1.282 . S
C182 O183 1.306 . S
C182 O185 1.160 . S
O183 C182 1.306 . S
O183 Cd184 2.228 . S
Cd184 O183 2.228 . S
Cd184 O188 2.273 . S
Cd184 O192 2.277 . S
O185 C182 1.160 . S
O185 Cd186 2.203 . S
Cd186 O185 2.203 . S
Cd186 O188 2.411 . S
Cd186 O189 2.333 . S
Cd186 O190 2.352 . S
Cd186 O194 2.277 . S
Cd186 O195 2.356 . S
C187 O192 1.209 . S
C187 O194 1.226 . S
O188 Cd184 2.273 . S
O188 Cd186 2.411 . S
O188 C191 1.320 . S
O189 Cd186 2.333 . S
O189 C191 1.214 . S
O190 Cd186 2.352 . S
O190 C193 1.258 . S
C191 O188 1.320 . S
C191 O189 1.214 . S
O192 Cd184 2.277 . S
O192 C187 1.209 . S
C193 O190 1.258 . S
C193 O195 1.282 . S
O194 Cd186 2.277 . S
O194 C187 1.226 . S
O195 Cd186 2.356 . S
O195 C193 1.282 . S
C196 O197 1.306 . S
C196 O199 1.160 . S
O197 C196 1.306 . S
O197 Cd198 2.228 . S
Cd198 O197 2.228 . S
Cd198 O202 2.273 . S
Cd198 O206 2.277 . S
O199 C196 1.160 . S
O199 Cd200 2.203 . S
Cd200 O199 2.203 . S
Cd200 O202 2.411 . S
Cd200 O203 2.333 . S
Cd200 O204 2.352 . S
Cd200 O208 2.277 . S
Cd200 O209 2.356 . S
C201 O206 1.209 . S
C201 O208 1.226 . S
O202 Cd198 2.273 . S
O202 Cd200 2.411 . S
O202 C205 1.320 . S
O203 Cd200 2.333 . S
O203 C205 1.214 . S
O204 Cd200 2.352 . S
O204 C207 1.258 . S
C205 O202 1.320 . S
C205 O203 1.214 . S
O206 Cd198 2.277 . S
O206 C201 1.209 . S
C207 O204 1.258 . S
C207 O209 1.282 . S
O208 Cd200 2.277 . S
O208 C201 1.226 . S
O209 Cd200 2.356 . S
O209 C207 1.282 . S
C210 O211 1.306 . S
C210 O213 1.160 . S
O211 C210 1.306 . S
O211 Cd212 2.228 . S
Cd212 O211 2.228 . S
Cd212 O216 2.273 . S
Cd212 O220 2.277 . S
O213 C210 1.160 . S
O213 Cd214 2.203 . S
Cd214 O213 2.203 . S
Cd214 O216 2.411 . S
Cd214 O217 2.333 . S
Cd214 O218 2.352 . S
Cd214 O222 2.277 . S
Cd214 O223 2.356 . S
C215 O220 1.209 . S
C215 O222 1.226 . S
O216 Cd212 2.273 . S
O216 Cd214 2.411 . S
O216 C219 1.320 . S
O217 Cd214 2.333 . S
O217 C219 1.214 . S
O218 Cd214 2.352 . S
O218 C221 1.258 . S
C219 O216 1.320 . S
C219 O217 1.214 . S
O220 Cd212 2.277 . S
O220 C215 1.209 . S
C221 O218 1.258 . S
C221 O223 1.282 . S
O222 Cd214 2.277 . S
O222 C215 1.226 . S
O223 Cd214 2.356 . S
O223 C221 1.282 . S
C224 O225 1.306 . S
C224 O227 1.160 . S
O225 C224 1.306 . S
O225 Cd226 2.228 . S
Cd226 O225 2.228 . S
Cd226 O230 2.273 . S
Cd226 O234 2.277 . S
O227 C224 1.160 . S
O227 Cd228 2.203 . S
Cd228 O227 2.203 . S
Cd228 O230 2.411 . S
Cd228 O231 2.333 . S
Cd228 O232 2.352 . S
Cd228 O236 2.277 . S
Cd228 O237 2.356 . S
C229 O234 1.209 . S
C229 O236 1.226 . S
O230 Cd226 2.273 . S
O230 Cd228 2.411 . S
O230 C233 1.320 . S
O231 Cd228 2.333 . S
O231 C233 1.214 . S
O232 Cd228 2.352 . S
O232 C235 1.258 . S
C233 O230 1.320 . S
C233 O231 1.214 . S
O234 Cd226 2.277 . S
O234 C229 1.209 . S
C235 O232 1.258 . S
C235 O237 1.282 . S
O236 Cd228 2.277 . S
O236 C229 1.226 . S
O237 Cd228 2.356 . S
O237 C235 1.282 . S
C238 O239 1.306 . S
C238 O241 1.160 . S
O239 C238 1.306 . S
O239 Cd240 2.228 . S
Cd240 O239 2.228 . S
Cd240 O244 2.273 . S
Cd240 O248 2.277 . S
O241 C238 1.160 . S
O241 Cd242 2.203 . S
Cd242 O241 2.203 . S
Cd242 O244 2.411 . S
Cd242 O245 2.333 . S
Cd242 O246 2.352 . S
Cd242 O250 2.277 . S
Cd242 O251 2.356 . S
C243 O248 1.209 . S
C243 O250 1.226 . S
O244 Cd240 2.273 . S
O244 Cd242 2.411 . S
O244 C247 1.320 . S
O245 Cd242 2.333 . S
O245 C247 1.214 . S
O246 Cd242 2.352 . S
O246 C249 1.258 . S
C247 O244 1.320 . S
C247 O245 1.214 . S
O248 Cd240 2.277 . S
O248 C243 1.209 . S
C249 O246 1.258 . S
C249 O251 1.282 . S
O250 Cd242 2.277 . S
O250 C243 1.226 . S
O251 Cd242 2.356 . S
O251 C249 1.282 . S
C252 O253 1.306 . S
C252 O255 1.160 . S
O253 C252 1.306 . S
O253 Cd254 2.228 . S
Cd254 O253 2.228 . S
Cd254 O258 2.273 . S
Cd254 O262 2.277 . S
O255 C252 1.160 . S
O255 Cd256 2.203 . S
Cd256 O255 2.203 . S
Cd256 O258 2.411 . S
Cd256 O259 2.333 . S
Cd256 O260 2.352 . S
Cd256 O264 2.277 . S
Cd256 O265 2.356 . S
C257 O262 1.209 . S
C257 O264 1.226 . S
O258 Cd254 2.273 . S
O258 Cd256 2.411 . S
O258 C261 1.320 . S
O259 Cd256 2.333 . S
O259 C261 1.214 . S
O260 Cd256 2.352 . S
O260 C263 1.258 . S
C261 O258 1.320 . S
C261 O259 1.214 . S
O262 Cd254 2.277 . S
O262 C257 1.209 . S
C263 O260 1.258 . S
C263 O265 1.282 . S
O264 Cd256 2.277 . S
O264 C257 1.226 . S
O265 Cd256 2.356 . S
O265 C263 1.282 . S
C266 O267 1.306 . S
C266 O269 1.160 . S
O267 C266 1.306 . S
O267 Cd268 2.228 . S
Cd268 O267 2.228 . S
Cd268 O272 2.273 . S
Cd268 O276 2.277 . S
O269 C266 1.160 . S
O269 Cd270 2.203 . S
Cd270 O269 2.203 . S
Cd270 O272 2.411 . S
Cd270 O273 2.333 . S
Cd270 O274 2.352 . S
Cd270 O278 2.277 . S
Cd270 O279 2.356 . S
C271 O276 1.209 . S
C271 O278 1.226 . S
O272 Cd268 2.273 . S
O272 Cd270 2.411 . S
O272 C275 1.320 . S
O273 Cd270 2.333 . S
O273 C275 1.214 . S
O274 Cd270 2.352 . S
O274 C277 1.258 . S
C275 O272 1.320 . S
C275 O273 1.214 . S
O276 Cd268 2.277 . S
O276 C271 1.209 . S
C277 O274 1.258 . S
C277 O279 1.282 . S
O278 Cd270 2.277 . S
O278 C271 1.226 . S
O279 Cd270 2.356 . S
O279 C277 1.282 . S
C280 O281 1.306 . S
C280 O283 1.160 . S
O281 C280 1.306 . S
O281 Cd282 2.228 . S
Cd282 O281 2.228 . S
Cd282 O286 2.273 . S
Cd282 O290 2.277 . S
O283 C280 1.160 . S
O283 Cd284 2.203 . S
Cd284 O283 2.203 . S
Cd284 O286 2.411 . S
Cd284 O287 2.333 . S
Cd284 O288 2.352 . S
Cd284 O292 2.277 . S
Cd284 O293 2.356 . S
C285 O290 1.209 . S
C285 O292 1.226 . S
O286 Cd282 2.273 . S
O286 Cd284 2.411 . S
O286 C289 1.320 . S
O287 Cd284 2.333 . S
O287 C289 1.214 . S
O288 Cd284 2.352 . S
O288 C291 1.258 . S
C289 O286 1.320 . S
C289 O287 1.214 . S
O290 Cd282 2.277 . S
O290 C285 1.209 . S
C291 O288 1.258 . S
C291 O293 1.282 . S
O292 Cd284 2.277 . S
O292 C285 1.226 . S
O293 Cd284 2.356 . S
O293 C291 1.282 . S
C294 O295 1.306 . S
C294 O297 1.160 . S
O295 C294 1.306 . S
O295 Cd296 2.228 . S
Cd296 O295 2.228 . S
Cd296 O300 2.273 . S
Cd296 O304 2.277 . S
O297 C294 1.160 . S
O297 Cd298 2.203 . S
Cd298 O297 2.203 . S
Cd298 O300 2.411 . S
Cd298 O301 2.333 . S
Cd298 O302 2.352 . S
Cd298 O306 2.277 . S
Cd298 O307 2.356 . S
C299 O304 1.209 . S
C299 O306 1.226 . S
O300 Cd296 2.273 . S
O300 Cd298 2.411 . S
O300 C303 1.320 . S
O301 Cd298 2.333 . S
O301 C303 1.214 . S
O302 Cd298 2.352 . S
O302 C305 1.258 . S
C303 O300 1.320 . S
C303 O301 1.214 . S
O304 Cd296 2.277 . S
O304 C299 1.209 . S
C305 O302 1.258 . S
C305 O307 1.282 . S
O306 Cd298 2.277 . S
O306 C299 1.226 . S
O307 Cd298 2.356 . S
O307 C305 1.282 . S
C308 O309 1.306 . S
C308 O311 1.160 . S
O309 C308 1.306 . S
O309 Cd310 2.228 . S
Cd310 O309 2.228 . S
Cd310 O314 2.273 . S
Cd310 O318 2.277 . S
O311 C308 1.160 . S
O311 Cd312 2.203 . S
Cd312 O311 2.203 . S
Cd312 O314 2.411 . S
Cd312 O315 2.333 . S
Cd312 O316 2.352 . S
Cd312 O320 2.277 . S
Cd312 O321 2.356 . S
C313 O318 1.209 . S
C313 O320 1.226 . S
O314 Cd310 2.273 . S
O314 Cd312 2.411 . S
O314 C317 1.320 . S
O315 Cd312 2.333 . S
O315 C317 1.214 . S
O316 Cd312 2.352 . S
O316 C319 1.258 . S
C317 O314 1.320 . S
C317 O315 1.214 . S
O318 Cd310 2.277 . S
O318 C313 1.209 . S
C319 O316 1.258 . S
C319 O321 1.282 . S
O320 Cd312 2.277 . S
O320 C313 1.226 . S
O321 Cd312 2.356 . S
O321 C319 1.282 . S
C322 O323 1.306 . S
C322 O325 1.160 . S
O323 C322 1.306 . S
O323 Cd324 2.228 . S
Cd324 O323 2.228 . S
Cd324 O328 2.273 . S
Cd324 O332 2.277 . S
O325 C322 1.160 . S
O325 Cd326 2.203 . S
Cd326 O325 2.203 . S
Cd326 O328 2.411 . S
Cd326 O329 2.333 . S
Cd326 O330 2.352 . S
Cd326 O334 2.277 . S
Cd326 O335 2.356 . S
C327 O332 1.209 . S
C327 O334 1.226 . S
O328 Cd324 2.273 . S
O328 Cd326 2.411 . S
O328 C331 1.320 . S
O329 Cd326 2.333 . S
O329 C331 1.214 . S
O330 Cd326 2.352 . S
O330 C333 1.258 . S
C331 O328 1.320 . S
C331 O329 1.214 . S
O332 Cd324 2.277 . S
O332 C327 1.209 . S
C333 O330 1.258 . S
C333 O335 1.282 . S
O334 Cd326 2.277 . S
O334 C327 1.226 . S
O335 Cd326 2.356 . S
O335 C333 1.282 . S
H336 C344 0.929 . S
H337 C346 0.930 . S
H338 C348 0.930 . S
H339 C351 0.929 . S
H340 C354 0.930 . S
H341 C356 0.960 . S
H342 C356 0.960 . S
H343 C356 0.960 . S
C344 H336 0.929 . S
C344 C345 1.377 . S
C344 C346 1.384 . S
C345 C344 1.377 . S
C345 C351 1.390 . S
C346 H337 0.930 . S
C346 C344 1.384 . S
C346 C347 1.372 . S
C347 C346 1.372 . S
C347 C348 1.400 . S
C347 C352 1.490 . S
C348 H338 0.930 . S
C348 C347 1.400 . S
C348 C351 1.386 . S
H349 C365 0.930 . S
H350 C366 0.931 . S
C351 H339 0.929 . S
C351 C345 1.390 . S
C351 C348 1.386 . S
C352 C347 1.490 . S
C352 C354 1.395 . S
C352 C355 1.403 . S
H353 C359 0.930 . S
C354 H340 0.930 . S
C354 C352 1.395 . S
C354 C357 1.403 . S
C355 C352 1.403 . S
C355 C356 1.524 . S
C355 C359 1.400 . S
C356 H341 0.960 . S
C356 H342 0.960 . S
C356 H343 0.960 . S
C356 C355 1.524 . S
C357 C354 1.403 . S
C357 C358 1.392 . S
C357 C361 1.495 . S
C358 C357 1.392 . S
C358 C359 1.385 . S
C358 C360 1.478 . S
C359 H353 0.930 . S
C359 C355 1.400 . S
C359 C358 1.385 . S
C360 C358 1.478 . S
C360 C362 1.381 . S
C360 C366 1.383 . S
C361 C357 1.495 . S
C361 H367 0.959 . S
C361 H368 0.961 . S
C361 H369 0.960 . S
C362 C360 1.381 . S
C362 C363 1.394 . S
C362 H370 0.930 . S
C363 C362 1.394 . S
C363 C364 1.383 . S
C363 H371 0.929 . S
C364 C363 1.383 . S
C364 C365 1.377 . S
C365 H349 0.930 . S
C365 C364 1.377 . S
C365 C366 1.379 . S
C366 H350 0.931 . S
C366 C360 1.383 . S
C366 C365 1.379 . S
H367 C361 0.959 . S
H368 C361 0.961 . S
H369 C361 0.960 . S
H370 C362 0.930 . S
H371 C363 0.929 . S
H372 C380 0.929 . S
H373 C382 0.930 . S
H374 C384 0.930 . S
H375 C387 0.929 . S
H376 C390 0.930 . S
H377 C392 0.960 . S
H378 C392 0.960 . S
H379 C392 0.960 . S
C380 H372 0.929 . S
C380 C381 1.377 . S
C380 C382 1.384 . S
C381 C380 1.377 . S
C381 C387 1.390 . S
C382 H373 0.930 . S
C382 C380 1.384 . S
C382 C383 1.372 . S
C383 C382 1.372 . S
C383 C384 1.400 . S
C383 C388 1.490 . S
C384 H374 0.930 . S
C384 C383 1.400 . S
C384 C387 1.386 . S
H385 C401 0.930 . S
H386 C402 0.931 . S
C387 H375 0.929 . S
C387 C381 1.390 . S
C387 C384 1.386 . S
C388 C383 1.490 . S
C388 C390 1.395 . S
C388 C391 1.403 . S
H389 C395 0.930 . S
C390 H376 0.930 . S
C390 C388 1.395 . S
C390 C393 1.403 . S
C391 C388 1.403 . S
C391 C392 1.524 . S
C391 C395 1.400 . S
C392 H377 0.960 . S
C392 H378 0.960 . S
C392 H379 0.960 . S
C392 C391 1.524 . S
C393 C390 1.403 . S
C393 C394 1.392 . S
C393 C397 1.495 . S
C394 C393 1.392 . S
C394 C395 1.385 . S
C394 C396 1.478 . S
C395 H389 0.930 . S
C395 C391 1.400 . S
C395 C394 1.385 . S
C396 C394 1.478 . S
C396 C398 1.381 . S
C396 C402 1.383 . S
C397 C393 1.495 . S
C397 H403 0.959 . S
C397 H404 0.961 . S
C397 H405 0.960 . S
C398 C396 1.381 . S
C398 C399 1.394 . S
C398 H406 0.930 . S
C399 C398 1.394 . S
C399 C400 1.383 . S
C399 H407 0.929 . S
C400 C399 1.383 . S
C400 C401 1.377 . S
C401 H385 0.930 . S
C401 C400 1.377 . S
C401 C402 1.379 . S
C402 H386 0.931 . S
C402 C396 1.383 . S
C402 C401 1.379 . S
H403 C397 0.959 . S
H404 C397 0.961 . S
H405 C397 0.960 . S
H406 C398 0.930 . S
H407 C399 0.929 . S
H408 C416 0.929 . S
H409 C418 0.930 . S
H410 C420 0.930 . S
H411 C423 0.929 . S
H412 C426 0.930 . S
H413 C428 0.960 . S
H414 C428 0.960 . S
H415 C428 0.960 . S
C416 H408 0.929 . S
C416 C417 1.377 . S
C416 C418 1.384 . S
C417 C416 1.377 . S
C417 C423 1.390 . S
C418 H409 0.930 . S
C418 C416 1.384 . S
C418 C419 1.372 . S
C419 C418 1.372 . S
C419 C420 1.400 . S
C419 C424 1.490 . S
C420 H410 0.930 . S
C420 C419 1.400 . S
C420 C423 1.386 . S
H421 C437 0.930 . S
H422 C438 0.931 . S
C423 H411 0.929 . S
C423 C417 1.390 . S
C423 C420 1.386 . S
C424 C419 1.490 . S
C424 C426 1.395 . S
C424 C427 1.403 . S
H425 C431 0.930 . S
C426 H412 0.930 . S
C426 C424 1.395 . S
C426 C429 1.403 . S
C427 C424 1.403 . S
C427 C428 1.524 . S
C427 C431 1.400 . S
C428 H413 0.960 . S
C428 H414 0.960 . S
C428 H415 0.960 . S
C428 C427 1.524 . S
C429 C426 1.403 . S
C429 C430 1.392 . S
C429 C433 1.495 . S
C430 C429 1.392 . S
C430 C431 1.385 . S
C430 C432 1.478 . S
C431 H425 0.930 . S
C431 C427 1.400 . S
C431 C430 1.385 . S
C432 C430 1.478 . S
C432 C434 1.381 . S
C432 C438 1.383 . S
C433 C429 1.495 . S
C433 H439 0.959 . S
C433 H440 0.961 . S
C433 H441 0.960 . S
C434 C432 1.381 . S
C434 C435 1.394 . S
C434 H442 0.930 . S
C435 C434 1.394 . S
C435 C436 1.383 . S
C435 H443 0.929 . S
C436 C435 1.383 . S
C436 C437 1.377 . S
C437 H421 0.930 . S
C437 C436 1.377 . S
C437 C438 1.379 . S
C438 H422 0.931 . S
C438 C432 1.383 . S
C438 C437 1.379 . S
H439 C433 0.959 . S
H440 C433 0.961 . S
H441 C433 0.960 . S
H442 C434 0.930 . S
H443 C435 0.929 . S
H444 C452 0.929 . S
H445 C454 0.930 . S
H446 C456 0.930 . S
H447 C459 0.929 . S
H448 C462 0.930 . S
H449 C464 0.960 . S
H450 C464 0.960 . S
H451 C464 0.960 . S
C452 H444 0.929 . S
C452 C453 1.377 . S
C452 C454 1.384 . S
C453 C452 1.377 . S
C453 C459 1.390 . S
C454 H445 0.930 . S
C454 C452 1.384 . S
C454 C455 1.372 . S
C455 C454 1.372 . S
C455 C456 1.400 . S
C455 C460 1.490 . S
C456 H446 0.930 . S
C456 C455 1.400 . S
C456 C459 1.386 . S
H457 C473 0.930 . S
H458 C474 0.931 . S
C459 H447 0.929 . S
C459 C453 1.390 . S
C459 C456 1.386 . S
C460 C455 1.490 . S
C460 C462 1.395 . S
C460 C463 1.403 . S
H461 C467 0.930 . S
C462 H448 0.930 . S
C462 C460 1.395 . S
C462 C465 1.403 . S
C463 C460 1.403 . S
C463 C464 1.524 . S
C463 C467 1.400 . S
C464 H449 0.960 . S
C464 H450 0.960 . S
C464 H451 0.960 . S
C464 C463 1.524 . S
C465 C462 1.403 . S
C465 C466 1.392 . S
C465 C469 1.495 . S
C466 C465 1.392 . S
C466 C467 1.385 . S
C466 C468 1.478 . S
C467 H461 0.930 . S
C467 C463 1.400 . S
C467 C466 1.385 . S
C468 C466 1.478 . S
C468 C470 1.381 . S
C468 C474 1.383 . S
C469 C465 1.495 . S
C469 H475 0.959 . S
C469 H476 0.961 . S
C469 H477 0.960 . S
C470 C468 1.381 . S
C470 C471 1.394 . S
C470 H478 0.930 . S
C471 C470 1.394 . S
C471 C472 1.383 . S
C471 H479 0.929 . S
C472 C471 1.383 . S
C472 C473 1.377 . S
C473 H457 0.930 . S
C473 C472 1.377 . S
C473 C474 1.379 . S
C474 H458 0.931 . S
C474 C468 1.383 . S
C474 C473 1.379 . S
H475 C469 0.959 . S
H476 C469 0.961 . S
H477 C469 0.960 . S
H478 C470 0.930 . S
H479 C471 0.929 . S
H480 C488 0.929 . S
H481 C490 0.930 . S
H482 C492 0.930 . S
H483 C495 0.929 . S
H484 C498 0.930 . S
H485 C500 0.960 . S
H486 C500 0.960 . S
H487 C500 0.960 . S
C488 H480 0.929 . S
C488 C489 1.377 . S
C488 C490 1.384 . S
C489 C488 1.377 . S
C489 C495 1.390 . S
C490 H481 0.930 . S
C490 C488 1.384 . S
C490 C491 1.372 . S
C491 C490 1.372 . S
C491 C492 1.400 . S
C491 C496 1.490 . S
C492 H482 0.930 . S
C492 C491 1.400 . S
C492 C495 1.386 . S
H493 C509 0.930 . S
H494 C510 0.931 . S
C495 H483 0.929 . S
C495 C489 1.390 . S
C495 C492 1.386 . S
C496 C491 1.490 . S
C496 C498 1.395 . S
C496 C499 1.403 . S
H497 C503 0.930 . S
C498 H484 0.930 . S
C498 C496 1.395 . S
C498 C501 1.403 . S
C499 C496 1.403 . S
C499 C500 1.524 . S
C499 C503 1.400 . S
C500 H485 0.960 . S
C500 H486 0.960 . S
C500 H487 0.960 . S
C500 C499 1.524 . S
C501 C498 1.403 . S
C501 C502 1.392 . S
C501 C505 1.495 . S
C502 C501 1.392 . S
C502 C503 1.385 . S
C502 C504 1.478 . S
C503 H497 0.930 . S
C503 C499 1.400 . S
C503 C502 1.385 . S
C504 C502 1.478 . S
C504 C506 1.381 . S
C504 C510 1.383 . S
C505 C501 1.495 . S
C505 H511 0.959 . S
C505 H512 0.961 . S
C505 H513 0.960 . S
C506 C504 1.381 . S
C506 C507 1.394 . S
C506 H514 0.930 . S
C507 C506 1.394 . S
C507 C508 1.383 . S
C507 H515 0.929 . S
C508 C507 1.383 . S
C508 C509 1.377 . S
C509 H493 0.930 . S
C509 C508 1.377 . S
C509 C510 1.379 . S
C510 H494 0.931 . S
C510 C504 1.383 . S
C510 C509 1.379 . S
H511 C505 0.959 . S
H512 C505 0.961 . S
H513 C505 0.960 . S
H514 C506 0.930 . S
H515 C507 0.929 . S
H516 C524 0.929 . S
H517 C526 0.930 . S
H518 C528 0.930 . S
H519 C531 0.929 . S
H520 C534 0.930 . S
H521 C536 0.960 . S
H522 C536 0.960 . S
H523 C536 0.960 . S
C524 H516 0.929 . S
C524 C525 1.377 . S
C524 C526 1.384 . S
C525 C524 1.377 . S
C525 C531 1.390 . S
C526 H517 0.930 . S
C526 C524 1.384 . S
C526 C527 1.372 . S
C527 C526 1.372 . S
C527 C528 1.400 . S
C527 C532 1.490 . S
C528 H518 0.930 . S
C528 C527 1.400 . S
C528 C531 1.386 . S
H529 C545 0.930 . S
H530 C546 0.931 . S
C531 H519 0.929 . S
C531 C525 1.390 . S
C531 C528 1.386 . S
C532 C527 1.490 . S
C532 C534 1.395 . S
C532 C535 1.403 . S
H533 C539 0.930 . S
C534 H520 0.930 . S
C534 C532 1.395 . S
C534 C537 1.403 . S
C535 C532 1.403 . S
C535 C536 1.524 . S
C535 C539 1.400 . S
C536 H521 0.960 . S
C536 H522 0.960 . S
C536 H523 0.960 . S
C536 C535 1.524 . S
C537 C534 1.403 . S
C537 C538 1.392 . S
C537 C541 1.495 . S
C538 C537 1.392 . S
C538 C539 1.385 . S
C538 C540 1.478 . S
C539 H533 0.930 . S
C539 C535 1.400 . S
C539 C538 1.385 . S
C540 C538 1.478 . S
C540 C542 1.381 . S
C540 C546 1.383 . S
C541 C537 1.495 . S
C541 H547 0.959 . S
C541 H548 0.961 . S
C541 H549 0.960 . S
C542 C540 1.381 . S
C542 C543 1.394 . S
C542 H550 0.930 . S
C543 C542 1.394 . S
C543 C544 1.383 . S
C543 H551 0.929 . S
C544 C543 1.383 . S
C544 C545 1.377 . S
C545 H529 0.930 . S
C545 C544 1.377 . S
C545 C546 1.379 . S
C546 H530 0.931 . S
C546 C540 1.383 . S
C546 C545 1.379 . S
H547 C541 0.959 . S
H548 C541 0.961 . S
H549 C541 0.960 . S
H550 C542 0.930 . S
H551 C543 0.929 . S
H552 C560 0.929 . S
H553 C562 0.930 . S
H554 C564 0.930 . S
H555 C567 0.929 . S
H556 C570 0.930 . S
H557 C572 0.960 . S
H558 C572 0.960 . S
H559 C572 0.960 . S
C560 H552 0.929 . S
C560 C561 1.377 . S
C560 C562 1.384 . S
C561 C560 1.377 . S
C561 C567 1.390 . S
C562 H553 0.930 . S
C562 C560 1.384 . S
C562 C563 1.372 . S
C563 C562 1.372 . S
C563 C564 1.400 . S
C563 C568 1.490 . S
C564 H554 0.930 . S
C564 C563 1.400 . S
C564 C567 1.386 . S
H565 C581 0.930 . S
H566 C582 0.931 . S
C567 H555 0.929 . S
C567 C561 1.390 . S
C567 C564 1.386 . S
C568 C563 1.490 . S
C568 C570 1.395 . S
C568 C571 1.403 . S
H569 C575 0.930 . S
C570 H556 0.930 . S
C570 C568 1.395 . S
C570 C573 1.403 . S
C571 C568 1.403 . S
C571 C572 1.524 . S
C571 C575 1.400 . S
C572 H557 0.960 . S
C572 H558 0.960 . S
C572 H559 0.960 . S
C572 C571 1.524 . S
C573 C570 1.403 . S
C573 C574 1.392 . S
C573 C577 1.495 . S
C574 C573 1.392 . S
C574 C575 1.385 . S
C574 C576 1.478 . S
C575 H569 0.930 . S
C575 C571 1.400 . S
C575 C574 1.385 . S
C576 C574 1.478 . S
C576 C578 1.381 . S
C576 C582 1.383 . S
C577 C573 1.495 . S
C577 H583 0.959 . S
C577 H584 0.961 . S
C577 H585 0.960 . S
C578 C576 1.381 . S
C578 C579 1.394 . S
C578 H586 0.930 . S
C579 C578 1.394 . S
C579 C580 1.383 . S
C579 H587 0.929 . S
C580 C579 1.383 . S
C580 C581 1.377 . S
C581 H565 0.930 . S
C581 C580 1.377 . S
C581 C582 1.379 . S
C582 H566 0.931 . S
C582 C576 1.383 . S
C582 C581 1.379 . S
H583 C577 0.959 . S
H584 C577 0.961 . S
H585 C577 0.960 . S
H586 C578 0.930 . S
H587 C579 0.929 . S
H588 C596 0.929 . S
H589 C598 0.930 . S
H590 C600 0.930 . S
H591 C603 0.929 . S
H592 C606 0.930 . S
H593 C608 0.960 . S
H594 C608 0.960 . S
H595 C608 0.960 . S
C596 H588 0.929 . S
C596 C597 1.377 . S
C596 C598 1.384 . S
C597 C596 1.377 . S
C597 C603 1.390 . S
C598 H589 0.930 . S
C598 C596 1.384 . S
C598 C599 1.372 . S
C599 C598 1.372 . S
C599 C600 1.400 . S
C599 C604 1.490 . S
C600 H590 0.930 . S
C600 C599 1.400 . S
C600 C603 1.386 . S
H601 C617 0.930 . S
H602 C618 0.931 . S
C603 H591 0.929 . S
C603 C597 1.390 . S
C603 C600 1.386 . S
C604 C599 1.490 . S
C604 C606 1.395 . S
C604 C607 1.403 . S
H605 C611 0.930 . S
C606 H592 0.930 . S
C606 C604 1.395 . S
C606 C609 1.403 . S
C607 C604 1.403 . S
C607 C608 1.524 . S
C607 C611 1.400 . S
C608 H593 0.960 . S
C608 H594 0.960 . S
C608 H595 0.960 . S
C608 C607 1.524 . S
C609 C606 1.403 . S
C609 C610 1.392 . S
C609 C613 1.495 . S
C610 C609 1.392 . S
C610 C611 1.385 . S
C610 C612 1.478 . S
C611 H605 0.930 . S
C611 C607 1.400 . S
C611 C610 1.385 . S
C612 C610 1.478 . S
C612 C614 1.381 . S
C612 C618 1.383 . S
C613 C609 1.495 . S
C613 H619 0.959 . S
C613 H620 0.961 . S
C613 H621 0.960 . S
C614 C612 1.381 . S
C614 C615 1.394 . S
C614 H622 0.930 . S
C615 C614 1.394 . S
C615 C616 1.383 . S
C615 H623 0.929 . S
C616 C615 1.383 . S
C616 C617 1.377 . S
C617 H601 0.930 . S
C617 C616 1.377 . S
C617 C618 1.379 . S
C618 H602 0.931 . S
C618 C612 1.383 . S
C618 C617 1.379 . S
H619 C613 0.959 . S
H620 C613 0.961 . S
H621 C613 0.960 . S
H622 C614 0.930 . S
H623 C615 0.929 . S
H624 C632 0.929 . S
H625 C634 0.930 . S
H626 C636 0.930 . S
H627 C639 0.929 . S
H628 C642 0.930 . S
H629 C644 0.960 . S
H630 C644 0.960 . S
H631 C644 0.960 . S
C632 H624 0.929 . S
C632 C633 1.377 . S
C632 C634 1.384 . S
C633 C632 1.377 . S
C633 C639 1.390 . S
C634 H625 0.930 . S
C634 C632 1.384 . S
C634 C635 1.372 . S
C635 C634 1.372 . S
C635 C636 1.400 . S
C635 C640 1.490 . S
C636 H626 0.930 . S
C636 C635 1.400 . S
C636 C639 1.386 . S
H637 C653 0.930 . S
H638 C654 0.931 . S
C639 H627 0.929 . S
C639 C633 1.390 . S
C639 C636 1.386 . S
C640 C635 1.490 . S
C640 C642 1.395 . S
C640 C643 1.403 . S
H641 C647 0.930 . S
C642 H628 0.930 . S
C642 C640 1.395 . S
C642 C645 1.403 . S
C643 C640 1.403 . S
C643 C644 1.524 . S
C643 C647 1.400 . S
C644 H629 0.960 . S
C644 H630 0.960 . S
C644 H631 0.960 . S
C644 C643 1.524 . S
C645 C642 1.403 . S
C645 C646 1.392 . S
C645 C649 1.495 . S
C646 C645 1.392 . S
C646 C647 1.385 . S
C646 C648 1.478 . S
C647 H641 0.930 . S
C647 C643 1.400 . S
C647 C646 1.385 . S
C648 C646 1.478 . S
C648 C650 1.381 . S
C648 C654 1.383 . S
C649 C645 1.495 . S
C649 H655 0.959 . S
C649 H656 0.961 . S
C649 H657 0.960 . S
C650 C648 1.381 . S
C650 C651 1.394 . S
C650 H658 0.930 . S
C651 C650 1.394 . S
C651 C652 1.383 . S
C651 H659 0.929 . S
C652 C651 1.383 . S
C652 C653 1.377 . S
C653 H637 0.930 . S
C653 C652 1.377 . S
C653 C654 1.379 . S
C654 H638 0.931 . S
C654 C648 1.383 . S
C654 C653 1.379 . S
H655 C649 0.959 . S
H656 C649 0.961 . S
H657 C649 0.960 . S
H658 C650 0.930 . S
H659 C651 0.929 . S
H660 C668 0.929 . S
H661 C670 0.930 . S
H662 C672 0.930 . S
H663 C675 0.929 . S
H664 C678 0.930 . S
H665 C680 0.960 . S
H666 C680 0.960 . S
H667 C680 0.960 . S
C668 H660 0.929 . S
C668 C669 1.377 . S
C668 C670 1.384 . S
C669 C668 1.377 . S
C669 C675 1.390 . S
C670 H661 0.930 . S
C670 C668 1.384 . S
C670 C671 1.372 . S
C671 C670 1.372 . S
C671 C672 1.400 . S
C671 C676 1.490 . S
C672 H662 0.930 . S
C672 C671 1.400 . S
C672 C675 1.386 . S
H673 C689 0.930 . S
H674 C690 0.931 . S
C675 H663 0.929 . S
C675 C669 1.390 . S
C675 C672 1.386 . S
C676 C671 1.490 . S
C676 C678 1.395 . S
C676 C679 1.403 . S
H677 C683 0.930 . S
C678 H664 0.930 . S
C678 C676 1.395 . S
C678 C681 1.403 . S
C679 C676 1.403 . S
C679 C680 1.524 . S
C679 C683 1.400 . S
C680 H665 0.960 . S
C680 H666 0.960 . S
C680 H667 0.960 . S
C680 C679 1.524 . S
C681 C678 1.403 . S
C681 C682 1.392 . S
C681 C685 1.495 . S
C682 C681 1.392 . S
C682 C683 1.385 . S
C682 C684 1.478 . S
C683 H677 0.930 . S
C683 C679 1.400 . S
C683 C682 1.385 . S
C684 C682 1.478 . S
C684 C686 1.381 . S
C684 C690 1.383 . S
C685 C681 1.495 . S
C685 H691 0.959 . S
C685 H692 0.961 . S
C685 H693 0.960 . S
C686 C684 1.381 . S
C686 C687 1.394 . S
C686 H694 0.930 . S
C687 C686 1.394 . S
C687 C688 1.383 . S
C687 H695 0.929 . S
C688 C687 1.383 . S
C688 C689 1.377 . S
C689 H673 0.930 . S
C689 C688 1.377 . S
C689 C690 1.379 . S
C690 H674 0.931 . S
C690 C684 1.383 . S
C690 C689 1.379 . S
H691 C685 0.959 . S
H692 C685 0.961 . S
H693 C685 0.960 . S
H694 C686 0.930 . S
H695 C687 0.929 . S
H696 C704 0.929 . S
H697 C706 0.930 . S
H698 C708 0.930 . S
H699 C711 0.929 . S
H700 C714 0.930 . S
H701 C716 0.960 . S
H702 C716 0.960 . S
H703 C716 0.960 . S
C704 H696 0.929 . S
C704 C705 1.377 . S
C704 C706 1.384 . S
C705 C704 1.377 . S
C705 C711 1.390 . S
C706 H697 0.930 . S
C706 C704 1.384 . S
C706 C707 1.372 . S
C707 C706 1.372 . S
C707 C708 1.400 . S
C707 C712 1.490 . S
C708 H698 0.930 . S
C708 C707 1.400 . S
C708 C711 1.386 . S
H709 C725 0.930 . S
H710 C726 0.931 . S
C711 H699 0.929 . S
C711 C705 1.390 . S
C711 C708 1.386 . S
C712 C707 1.490 . S
C712 C714 1.395 . S
C712 C715 1.403 . S
H713 C719 0.930 . S
C714 H700 0.930 . S
C714 C712 1.395 . S
C714 C717 1.403 . S
C715 C712 1.403 . S
C715 C716 1.524 . S
C715 C719 1.400 . S
C716 H701 0.960 . S
C716 H702 0.960 . S
C716 H703 0.960 . S
C716 C715 1.524 . S
C717 C714 1.403 . S
C717 C718 1.392 . S
C717 C721 1.495 . S
C718 C717 1.392 . S
C718 C719 1.385 . S
C718 C720 1.478 . S
C719 H713 0.930 . S
C719 C715 1.400 . S
C719 C718 1.385 . S
C720 C718 1.478 . S
C720 C722 1.381 . S
C720 C726 1.383 . S
C721 C717 1.495 . S
C721 H727 0.959 . S
C721 H728 0.961 . S
C721 H729 0.960 . S
C722 C720 1.381 . S
C722 C723 1.394 . S
C722 H730 0.930 . S
C723 C722 1.394 . S
C723 C724 1.383 . S
C723 H731 0.929 . S
C724 C723 1.383 . S
C724 C725 1.377 . S
C725 H709 0.930 . S
C725 C724 1.377 . S
C725 C726 1.379 . S
C726 H710 0.931 . S
C726 C720 1.383 . S
C726 C725 1.379 . S
H727 C721 0.959 . S
H728 C721 0.961 . S
H729 C721 0.960 . S
H730 C722 0.930 . S
H731 C723 0.929 . S
H732 C740 0.929 . S
H733 C742 0.930 . S
H734 C744 0.930 . S
H735 C747 0.929 . S
H736 C750 0.930 . S
H737 C752 0.960 . S
H738 C752 0.960 . S
H739 C752 0.960 . S
C740 H732 0.929 . S
C740 C741 1.377 . S
C740 C742 1.384 . S
C741 C740 1.377 . S
C741 C747 1.390 . S
C742 H733 0.930 . S
C742 C740 1.384 . S
C742 C743 1.372 . S
C743 C742 1.372 . S
C743 C744 1.400 . S
C743 C748 1.490 . S
C744 H734 0.930 . S
C744 C743 1.400 . S
C744 C747 1.386 . S
H745 C761 0.930 . S
H746 C762 0.931 . S
C747 H735 0.929 . S
C747 C741 1.390 . S
C747 C744 1.386 . S
C748 C743 1.490 . S
C748 C750 1.395 . S
C748 C751 1.403 . S
H749 C755 0.930 . S
C750 H736 0.930 . S
C750 C748 1.395 . S
C750 C753 1.403 . S
C751 C748 1.403 . S
C751 C752 1.524 . S
C751 C755 1.400 . S
C752 H737 0.960 . S
C752 H738 0.960 . S
C752 H739 0.960 . S
C752 C751 1.524 . S
C753 C750 1.403 . S
C753 C754 1.392 . S
C753 C757 1.495 . S
C754 C753 1.392 . S
C754 C755 1.385 . S
C754 C756 1.478 . S
C755 H749 0.930 . S
C755 C751 1.400 . S
C755 C754 1.385 . S
C756 C754 1.478 . S
C756 C758 1.381 . S
C756 C762 1.383 . S
C757 C753 1.495 . S
C757 H763 0.959 . S
C757 H764 0.961 . S
C757 H765 0.960 . S
C758 C756 1.381 . S
C758 C759 1.394 . S
C758 H766 0.930 . S
C759 C758 1.394 . S
C759 C760 1.383 . S
C759 H767 0.929 . S
C760 C759 1.383 . S
C760 C761 1.377 . S
C761 H745 0.930 . S
C761 C760 1.377 . S
C761 C762 1.379 . S
C762 H746 0.931 . S
C762 C756 1.383 . S
C762 C761 1.379 . S
H763 C757 0.959 . S
H764 C757 0.961 . S
H765 C757 0.960 . S
H766 C758 0.930 . S
H767 C759 0.929 . S
H768 C776 0.929 . S
H769 C778 0.930 . S
H770 C780 0.967 . S
H771 C783 0.929 . S
H772 C786 0.930 . S
H773 C788 0.960 . S
H774 C788 0.960 . S
H775 C788 0.960 . S
C776 H768 0.929 . S
C776 C777 1.377 . S
C776 C778 1.384 . S
C777 C776 1.377 . S
C777 C783 1.390 . S
C778 H769 0.930 . S
C778 C776 1.384 . S
C778 C779 1.372 . S
C779 C778 1.372 . S
C779 C780 1.400 . S
C779 C784 1.490 . S
C780 H770 0.967 . S
C780 C779 1.400 . S
C780 C783 1.386 . S
H781 C797 0.930 . S
H782 C798 0.931 . S
C783 H771 0.929 . S
C783 C777 1.390 . S
C783 C780 1.386 . S
C784 C779 1.490 . S
C784 C786 1.395 . S
C784 C787 1.403 1_556 S
H785 C791 0.930 . S
C786 H772 0.930 . S
C786 C784 1.395 . S
C786 C789 1.403 . S
C787 C784 1.403 1_554 S
C787 C788 1.524 . S
C787 C791 1.400 . S
C788 H773 0.960 . S
C788 H774 0.960 . S
C788 H775 0.960 . S
C788 C787 1.524 . S
C789 C786 1.403 . S
C789 C790 1.392 1_556 S
C789 C793 1.495 . S
C790 C789 1.392 1_554 S
C790 C791 1.385 . S
C790 C792 1.478 . S
C791 H785 0.930 . S
C791 C787 1.400 . S
C791 C790 1.385 . S
C792 C790 1.478 . S
C792 C794 1.381 . S
C792 C798 1.383 . S
C793 C789 1.495 . S
C793 H799 0.959 . S
C793 H800 0.961 . S
C793 H801 0.960 . S
C794 C792 1.381 . S
C794 C795 1.394 . S
C794 H802 0.923 1_554 S
C795 C794 1.394 . S
C795 C796 1.383 . S
C795 H803 0.929 . S
C796 C795 1.383 . S
C796 C797 1.377 . S
C797 H781 0.930 . S
C797 C796 1.377 . S
C797 C798 1.379 . S
C798 H782 0.931 . S
C798 C792 1.383 . S
C798 C797 1.379 . S
H799 C793 0.959 . S
H800 C793 0.961 . S
H801 C793 0.960 . S
H802 C794 0.923 1_556 S
H803 C795 0.929 . S
H804 C812 0.929 . S
H805 C814 0.930 . S
H806 C816 0.930 . S
H807 C819 0.929 . S
H808 C822 0.930 . S
H809 C824 0.960 . S
H810 C824 0.960 . S
H811 C824 0.960 . S
C812 H804 0.929 . S
C812 C813 1.377 . S
C812 C814 1.384 . S
C813 C812 1.377 . S
C813 C819 1.390 . S
C814 H805 0.930 . S
C814 C812 1.384 . S
C814 C815 1.372 . S
C815 C814 1.372 . S
C815 C816 1.400 . S
C815 C820 1.490 . S
C816 H806 0.930 . S
C816 C815 1.400 . S
C816 C819 1.386 . S
H817 C833 0.930 . S
H818 C834 0.931 . S
C819 H807 0.929 . S
C819 C813 1.390 . S
C819 C816 1.386 . S
C820 C815 1.490 . S
C820 C822 1.395 . S
C820 C823 1.403 . S
H821 C827 0.930 . S
C822 H808 0.930 . S
C822 C820 1.395 . S
C822 C825 1.403 . S
C823 C820 1.403 . S
C823 C824 1.524 . S
C823 C827 1.400 . S
C824 H809 0.960 . S
C824 H810 0.960 . S
C824 H811 0.960 . S
C824 C823 1.524 . S
C825 C822 1.403 . S
C825 C826 1.392 . S
C825 C829 1.495 . S
C826 C825 1.392 . S
C826 C827 1.385 . S
C826 C828 1.478 . S
C827 H821 0.930 . S
C827 C823 1.400 . S
C827 C826 1.385 . S
C828 C826 1.478 . S
C828 C830 1.381 . S
C828 C834 1.383 . S
C829 C825 1.495 . S
C829 H835 0.959 . S
C829 H836 0.961 . S
C829 H837 0.960 . S
C830 C828 1.381 . S
C830 C831 1.394 . S
C830 H838 0.930 . S
C831 C830 1.394 . S
C831 C832 1.383 . S
C831 H839 0.929 . S
C832 C831 1.383 . S
C832 C833 1.377 . S
C833 H817 0.930 . S
C833 C832 1.377 . S
C833 C834 1.379 . S
C834 H818 0.931 . S
C834 C828 1.383 . S
C834 C833 1.379 . S
H835 C829 0.959 . S
H836 C829 0.961 . S
H837 C829 0.960 . S
H838 C830 0.930 . S
H839 C831 0.929 . S
H840 C848 0.929 . S
H841 C850 0.930 1_556 S
H842 C852 0.930 . S
H843 C855 0.929 . S
H844 C858 0.930 . S
H845 C860 0.960 . S
H846 C860 0.960 . S
H847 C860 0.960 . S
C848 H840 0.929 . S
C848 C849 1.377 . S
C848 C850 1.384 . S
C849 C848 1.377 . S
C849 C855 1.390 . S
C850 H841 0.930 1_554 S
C850 C848 1.384 . S
C850 C851 1.372 . S
C851 C850 1.372 . S
C851 C852 1.400 . S
C851 C856 1.490 . S
C852 H842 0.930 . S
C852 C851 1.400 . S
C852 C855 1.386 . S
H853 C869 0.930 . S
H854 C870 0.931 . S
C855 H843 0.929 . S
C855 C849 1.390 . S
C855 C852 1.386 . S
C856 C851 1.490 . S
C856 C858 1.395 1_554 S
C856 C859 1.403 . S
H857 C863 0.930 . S
C858 H844 0.930 . S
C858 C856 1.395 1_556 S
C858 C861 1.403 . S
C859 C856 1.403 . S
C859 C860 1.524 . S
C859 C863 1.400 . S
C860 H845 0.960 . S
C860 H846 0.960 . S
C860 H847 0.960 . S
C860 C859 1.524 . S
C861 C858 1.403 . S
C861 C862 1.392 . S
C861 C865 1.495 . S
C862 C861 1.392 . S
C862 C863 1.385 1_556 S
C862 C864 1.478 . S
C863 H857 0.930 . S
C863 C859 1.400 . S
C863 C862 1.385 1_554 S
C864 C862 1.478 . S
C864 C866 1.381 . S
C864 C870 1.383 . S
C865 C861 1.495 . S
C865 H871 0.959 . S
C865 H872 0.961 . S
C865 H873 0.960 . S
C866 C864 1.381 . S
C866 C867 1.394 . S
C866 H874 0.930 . S
C867 C866 1.394 . S
C867 C868 1.383 . S
C867 H875 0.929 . S
C868 C867 1.383 . S
C868 C869 1.377 . S
C869 H853 0.930 . S
C869 C868 1.377 . S
C869 C870 1.379 . S
C870 H854 0.931 . S
C870 C864 1.383 . S
C870 C869 1.379 . S
H871 C865 0.959 . S
H872 C865 0.961 . S
H873 C865 0.960 . S
H874 C866 0.930 . S
H875 C867 0.929 . S
H876 C884 0.929 . S
H877 C886 0.930 . S
H878 C888 0.930 . S
H879 C891 0.929 . S
H880 C894 0.930 . S
H881 C896 0.960 . S
H882 C896 0.960 . S
H883 C896 0.960 . S
C884 H876 0.929 . S
C884 C885 1.377 . S
C884 C886 1.384 . S
C885 C884 1.377 . S
C885 C891 1.390 . S
C886 H877 0.930 . S
C886 C884 1.384 . S
C886 C887 1.372 . S
C887 C886 1.372 . S
C887 C888 1.400 . S
C887 C892 1.490 . S
C888 H878 0.930 . S
C888 C887 1.400 . S
C888 C891 1.386 . S
H889 C905 0.930 . S
H890 C906 0.931 . S
C891 H879 0.929 . S
C891 C885 1.390 . S
C891 C888 1.386 . S
C892 C887 1.490 . S
C892 C894 1.395 . S
C892 C895 1.403 . S
H893 C899 0.930 . S
C894 H880 0.930 . S
C894 C892 1.395 . S
C894 C897 1.403 . S
C895 C892 1.403 . S
C895 C896 1.524 . S
C895 C899 1.400 . S
C896 H881 0.960 . S
C896 H882 0.960 . S
C896 H883 0.960 . S
C896 C895 1.524 . S
C897 C894 1.403 . S
C897 C898 1.392 . S
C897 C901 1.495 . S
C898 C897 1.392 . S
C898 C899 1.385 . S
C898 C900 1.478 . S
C899 H893 0.930 . S
C899 C895 1.400 . S
C899 C898 1.385 . S
C900 C898 1.478 . S
C900 C902 1.381 . S
C900 C906 1.383 . S
C901 C897 1.495 . S
C901 H907 0.959 . S
C901 H908 0.961 . S
C901 H909 0.960 . S
C902 C900 1.381 . S
C902 C903 1.394 . S
C902 H910 0.930 . S
C903 C902 1.394 . S
C903 C904 1.383 . S
C903 H911 0.929 . S
C904 C903 1.383 . S
C904 C905 1.377 . S
C905 H889 0.930 . S
C905 C904 1.377 . S
C905 C906 1.379 . S
C906 H890 0.931 . S
C906 C900 1.383 . S
C906 C905 1.379 . S
H907 C901 0.959 . S
H908 C901 0.961 . S
H909 C901 0.960 . S
H910 C902 0.930 . S
H911 C903 0.929 . S
H912 C920 0.929 . S
H913 C922 0.930 . S
H914 C924 0.930 . S
H915 C927 0.929 . S
H916 C930 0.930 . S
H917 C932 0.960 . S
H918 C932 0.960 . S
H919 C932 0.960 . S
C920 H912 0.929 . S
C920 C921 1.377 . S
C920 C922 1.384 . S
C921 C920 1.377 . S
C921 C927 1.390 . S
C922 H913 0.930 . S
C922 C920 1.384 . S
C922 C923 1.372 . S
C923 C922 1.372 . S
C923 C924 1.400 . S
C923 C928 1.490 . S
C924 H914 0.930 . S
C924 C923 1.400 . S
C924 C927 1.386 . S
H925 C941 0.930 . S
H926 C942 0.931 . S
C927 H915 0.929 . S
C927 C921 1.390 . S
C927 C924 1.386 . S
C928 C923 1.490 . S
C928 C930 1.395 1_556 S
C928 C931 1.403 . S
H929 C935 0.930 . S
C930 H916 0.930 . S
C930 C928 1.395 1_554 S
C930 C933 1.403 . S
C931 C928 1.403 . S
C931 C932 1.524 . S
C931 C935 1.400 . S
C932 H917 0.960 . S
C932 H918 0.960 . S
C932 H919 0.960 . S
C932 C931 1.524 . S
C933 C930 1.403 . S
C933 C934 1.392 . S
C933 C937 1.495 . S
C934 C933 1.392 . S
C934 C935 1.385 1_554 S
C934 C936 1.478 . S
C935 H929 0.930 . S
C935 C931 1.400 . S
C935 C934 1.385 1_556 S
C936 C934 1.478 . S
C936 C938 1.381 . S
C936 C942 1.383 . S
C937 C933 1.495 . S
C937 H943 0.959 . S
C937 H944 0.961 . S
C937 H945 0.960 . S
C938 C936 1.381 . S
C938 C939 1.394 . S
C938 H946 0.930 . S
C939 C938 1.394 . S
C939 C940 1.383 . S
C939 H947 0.929 . S
C940 C939 1.383 . S
C940 C941 1.377 . S
C941 H925 0.930 . S
C941 C940 1.377 . S
C941 C942 1.379 . S
C942 H926 0.931 . S
C942 C936 1.383 . S
C942 C941 1.379 . S
H943 C937 0.959 . S
H944 C937 0.961 . S
H945 C937 0.960 . S
H946 C938 0.930 . S
H947 C939 0.929 . S
H948 C956 0.929 . S
H949 C958 0.930 . S
H950 C960 0.930 . S
H951 C963 0.929 . S
H952 C966 0.930 . S
H953 C968 0.960 . S
H954 C968 0.960 . S
H955 C968 0.960 . S
C956 H948 0.929 . S
C956 C957 1.377 . S
C956 C958 1.384 . S
C957 C956 1.377 . S
C957 C963 1.390 . S
C958 H949 0.930 . S
C958 C956 1.384 . S
C958 C959 1.372 . S
C959 C958 1.372 . S
C959 C960 1.400 . S
C959 C964 1.490 . S
C960 H950 0.930 . S
C960 C959 1.400 . S
C960 C963 1.386 . S
H961 C977 0.930 . S
H962 C978 0.931 . S
C963 H951 0.929 . S
C963 C957 1.390 . S
C963 C960 1.386 . S
C964 C959 1.490 . S
C964 C966 1.395 . S
C964 C967 1.403 . S
H965 C971 0.930 . S
C966 H952 0.930 . S
C966 C964 1.395 . S
C966 C969 1.403 . S
C967 C964 1.403 . S
C967 C968 1.524 . S
C967 C971 1.400 . S
C968 H953 0.960 . S
C968 H954 0.960 . S
C968 H955 0.960 . S
C968 C967 1.524 . S
C969 C966 1.403 . S
C969 C970 1.392 . S
C969 C973 1.495 . S
C970 C969 1.392 . S
C970 C971 1.385 . S
C970 C972 1.478 . S
C971 H965 0.930 . S
C971 C967 1.400 . S
C971 C970 1.385 . S
C972 C970 1.478 . S
C972 C974 1.381 . S
C972 C978 1.383 . S
C973 C969 1.495 . S
C973 H979 0.959 . S
C973 H980 0.961 . S
C973 H981 0.960 . S
C974 C972 1.381 . S
C974 C975 1.394 . S
C974 H982 0.930 . S
C975 C974 1.394 . S
C975 C976 1.383 . S
C975 H983 0.929 . S
C976 C975 1.383 . S
C976 C977 1.377 . S
C977 H961 0.930 . S
C977 C976 1.377 . S
C977 C978 1.379 . S
C978 H962 0.931 . S
C978 C972 1.383 . S
C978 C977 1.379 . S
H979 C973 0.959 . S
H980 C973 0.961 . S
H981 C973 0.960 . S
H982 C974 0.930 . S
H983 C975 0.929 . S
H984 C992 0.929 . S
H985 C994 0.930 . S
H986 C996 0.930 . S
H987 C999 0.929 . S
H988 C1002 0.930 . S
H989 C1004 0.960 . S
H990 C1004 0.960 . S
H991 C1004 0.960 . S
C992 H984 0.929 . S
C992 C993 1.377 . S
C992 C994 1.384 . S
C993 C992 1.377 . S
C993 C999 1.390 . S
C994 H985 0.930 . S
C994 C992 1.384 . S
C994 C995 1.372 . S
C995 C994 1.372 . S
C995 C996 1.400 . S
C995 C1000 1.490 . S
C996 H986 0.930 . S
C996 C995 1.400 . S
C996 C999 1.386 . S
H997 C1013 0.930 . S
H998 C1014 0.931 . S
C999 H987 0.929 . S
C999 C993 1.390 . S
C999 C996 1.386 . S
C1000 C995 1.490 . S
C1000 C1002 1.395 1_554 S
C1000 C1003 1.403 . S
H1001 C1007 0.930 . S
C1002 H988 0.930 . S
C1002 C1000 1.395 1_556 S
C1002 C1005 1.403 . S
C1003 C1000 1.403 . S
C1003 C1004 1.524 . S
C1003 C1007 1.400 . S
C1004 H989 0.960 . S
C1004 H990 0.960 . S
C1004 H991 0.960 . S
C1004 C1003 1.524 . S
C1005 C1002 1.403 . S
C1005 C1006 1.392 . S
C1005 C1009 1.495 . S
C1006 C1005 1.392 . S
C1006 C1007 1.385 1_556 S
C1006 C1008 1.478 . S
C1007 H1001 0.930 . S
C1007 C1003 1.400 . S
C1007 C1006 1.385 1_554 S
C1008 C1006 1.478 . S
C1008 C1010 1.381 . S
C1008 C1014 1.383 . S
C1009 C1005 1.495 . S
C1009 H1015 0.959 . S
C1009 H1016 0.961 . S
C1009 H1017 0.960 . S
C1010 C1008 1.381 . S
C1010 C1011 1.394 . S
C1010 H1018 0.930 . S
C1011 C1010 1.394 . S
C1011 C1012 1.383 . S
C1011 H1019 0.929 . S
C1012 C1011 1.383 . S
C1012 C1013 1.377 . S
C1013 H997 0.930 . S
C1013 C1012 1.377 . S
C1013 C1014 1.379 . S
C1014 H998 0.931 . S
C1014 C1008 1.383 . S
C1014 C1013 1.379 . S
H1015 C1009 0.959 . S
H1016 C1009 0.961 . S
H1017 C1009 0.960 . S
H1018 C1010 0.930 . S
H1019 C1011 0.929 . S
H1020 C1028 0.929 . S
H1021 C1030 0.930 . S
H1022 C1032 0.930 . S
H1023 C1035 0.929 . S
H1024 C1038 0.930 . S
H1025 C1040 0.960 . S
H1026 C1040 0.960 . S
H1027 C1040 0.960 . S
C1028 H1020 0.929 . S
C1028 C1029 1.377 . S
C1028 C1030 1.384 . S
C1029 C1028 1.377 . S
C1029 C1035 1.390 . S
C1030 H1021 0.930 . S
C1030 C1028 1.384 . S
C1030 C1031 1.372 . S
C1031 C1030 1.372 . S
C1031 C1032 1.400 . S
C1031 C1036 1.490 . S
C1032 H1022 0.930 . S
C1032 C1031 1.400 . S
C1032 C1035 1.386 . S
H1033 C1049 0.930 . S
H1034 C1050 0.931 . S
C1035 H1023 0.929 . S
C1035 C1029 1.390 . S
C1035 C1032 1.386 . S
C1036 C1031 1.490 . S
C1036 C1038 1.395 . S
C1036 C1039 1.403 . S
H1037 C1043 0.930 . S
C1038 H1024 0.930 . S
C1038 C1036 1.395 . S
C1038 C1041 1.403 . S
C1039 C1036 1.403 . S
C1039 C1040 1.524 . S
C1039 C1043 1.400 . S
C1040 H1025 0.960 . S
C1040 H1026 0.960 . S
C1040 H1027 0.960 . S
C1040 C1039 1.524 . S
C1041 C1038 1.403 . S
C1041 C1042 1.392 . S
C1041 C1045 1.495 . S
C1042 C1041 1.392 . S
C1042 C1043 1.385 . S
C1042 C1044 1.478 . S
C1043 H1037 0.930 . S
C1043 C1039 1.400 . S
C1043 C1042 1.385 . S
C1044 C1042 1.478 . S
C1044 C1046 1.381 . S
C1044 C1050 1.383 . S
C1045 C1041 1.495 . S
C1045 H1051 0.959 . S
C1045 H1052 0.961 . S
C1045 H1053 0.960 . S
C1046 C1044 1.381 . S
C1046 C1047 1.394 . S
C1046 H1054 0.930 . S
C1047 C1046 1.394 . S
C1047 C1048 1.383 . S
C1047 H1055 0.929 . S
C1048 C1047 1.383 . S
C1048 C1049 1.377 . S
C1049 H1033 0.930 . S
C1049 C1048 1.377 . S
C1049 C1050 1.379 . S
C1050 H1034 0.931 . S
C1050 C1044 1.383 . S
C1050 C1049 1.379 . S
H1051 C1045 0.959 . S
H1052 C1045 0.961 . S
H1053 C1045 0.960 . S
H1054 C1046 0.930 . S
H1055 C1047 0.929 . S
H1056 C1064 0.929 . S
H1057 C1066 0.930 . S
H1058 C1068 0.930 1_554 S
H1059 C1071 0.929 . S
H1060 C1074 0.930 . S
H1061 C1076 0.960 . S
H1062 C1076 0.960 1_556 S
H1063 C1076 0.960 . S
C1064 H1056 0.929 . S
C1064 C1065 1.377 . S
C1064 C1066 1.384 . S
C1065 C1064 1.377 . S
C1065 C1071 1.390 . S
C1066 H1057 0.930 . S
C1066 C1064 1.384 . S
C1066 C1067 1.372 . S
C1067 C1066 1.372 . S
C1067 C1068 1.400 . S
C1067 C1072 1.490 . S
C1068 H1058 0.930 1_556 S
C1068 C1067 1.400 . S
C1068 C1071 1.386 . S
H1069 C1085 0.930 . S
H1070 C1086 0.931 . S
C1071 H1059 0.929 . S
C1071 C1065 1.390 . S
C1071 C1068 1.386 . S
C1072 C1067 1.490 . S
C1072 C1074 1.395 . S
C1072 C1075 1.399 1_556 S
H1073 C1079 0.930 . S
C1074 H1060 0.930 . S
C1074 C1072 1.395 . S
C1074 C1077 1.403 . S
C1075 C1072 1.399 1_554 S
C1075 C1076 1.524 . S
C1075 C1079 1.403 . S
C1076 H1061 0.960 . S
C1076 H1062 0.960 1_554 S
C1076 H1063 0.960 . S
C1076 C1075 1.524 . S
C1077 C1074 1.403 . S
C1077 C1078 1.392 1_556 S
C1077 C1081 1.495 . S
C1078 C1077 1.392 1_554 S
C1078 C1079 1.385 . S
C1078 C1080 1.478 . S
C1079 H1073 0.930 . S
C1079 C1075 1.403 . S
C1079 C1078 1.385 . S
C1080 C1078 1.478 . S
C1080 C1082 1.381 . S
C1080 C1086 1.383 . S
C1081 C1077 1.495 . S
C1081 H1087 0.959 . S
C1081 H1088 0.961 1_556 S
C1081 H1089 0.960 . S
C1082 C1080 1.381 . S
C1082 C1083 1.394 . S
C1082 H1090 0.930 1_554 S
C1083 C1082 1.394 . S
C1083 C1084 1.383 . S
C1083 H1091 0.929 . S
C1084 C1083 1.383 . S
C1084 C1085 1.377 . S
C1085 H1069 0.930 . S
C1085 C1084 1.377 . S
C1085 C1086 1.379 . S
C1086 H1070 0.931 . S
C1086 C1080 1.383 . S
C1086 C1085 1.379 . S
H1087 C1081 0.959 . S
H1088 C1081 0.961 1_554 S
H1089 C1081 0.960 . S
H1090 C1082 0.930 1_556 S
H1091 C1083 0.929 . S
H1092 C1100 0.929 . S
H1093 C1102 0.930 . S
H1094 C1104 0.930 . S
H1095 C1107 0.929 . S
H1096 C1110 0.930 . S
H1097 C1112 0.960 . S
H1098 C1112 0.960 . S
H1099 C1112 0.960 . S
C1100 H1092 0.929 . S
C1100 C1101 1.377 . S
C1100 C1102 1.384 . S
C1101 C1100 1.377 . S
C1101 C1107 1.390 . S
C1102 H1093 0.930 . S
C1102 C1100 1.384 . S
C1102 C1103 1.372 . S
C1103 C1102 1.372 . S
C1103 C1104 1.400 . S
C1103 C1108 1.490 . S
C1104 H1094 0.930 . S
C1104 C1103 1.400 . S
C1104 C1107 1.386 . S
H1105 C1121 0.930 . S
H1106 C1122 0.931 . S
C1107 H1095 0.929 . S
C1107 C1101 1.390 . S
C1107 C1104 1.386 . S
C1108 C1103 1.490 . S
C1108 C1110 1.395 . S
C1108 C1111 1.403 . S
H1109 C1115 0.930 . S
C1110 H1096 0.930 . S
C1110 C1108 1.395 . S
C1110 C1113 1.403 . S
C1111 C1108 1.403 . S
C1111 C1112 1.524 . S
C1111 C1115 1.400 . S
C1112 H1097 0.960 . S
C1112 H1098 0.960 . S
C1112 H1099 0.960 . S
C1112 C1111 1.524 . S
C1113 C1110 1.403 . S
C1113 C1114 1.392 . S
C1113 C1117 1.495 . S
C1114 C1113 1.392 . S
C1114 C1115 1.385 . S
C1114 C1116 1.478 . S
C1115 H1109 0.930 . S
C1115 C1111 1.400 . S
C1115 C1114 1.385 . S
C1116 C1114 1.478 . S
C1116 C1118 1.381 . S
C1116 C1122 1.383 . S
C1117 C1113 1.495 . S
C1117 H1123 0.959 . S
C1117 H1124 0.961 . S
C1117 H1125 0.960 . S
C1118 C1116 1.381 . S
C1118 C1119 1.394 . S
C1118 H1126 0.930 . S
C1119 C1118 1.394 . S
C1119 C1120 1.383 . S
C1119 H1127 0.929 . S
C1120 C1119 1.383 . S
C1120 C1121 1.377 . S
C1121 H1105 0.930 . S
C1121 C1120 1.377 . S
C1121 C1122 1.379 . S
C1122 H1106 0.931 . S
C1122 C1116 1.383 . S
C1122 C1121 1.379 . S
H1123 C1117 0.959 . S
H1124 C1117 0.961 . S
H1125 C1117 0.960 . S
H1126 C1118 0.930 . S
H1127 C1119 0.929 . S
H1128 C1136 0.929 . S
H1129 C1138 0.930 1_554 S
H1130 C1140 0.930 . S
H1131 C1143 0.929 . S
H1132 C1146 0.930 . S
H1133 C1148 0.960 . S
H1134 C1148 0.960 . S
H1135 C1148 0.960 . S
C1136 H1128 0.929 . S
C1136 C1137 1.377 . S
C1136 C1138 1.384 . S
C1137 C1136 1.377 . S
C1137 C1143 1.390 . S
C1138 H1129 0.930 1_556 S
C1138 C1136 1.384 . S
C1138 C1139 1.372 . S
C1139 C1138 1.372 . S
C1139 C1140 1.400 . S
C1139 C1144 1.490 . S
C1140 H1130 0.930 . S
C1140 C1139 1.400 . S
C1140 C1143 1.386 . S
H1141 C1157 0.930 . S
H1142 C1158 0.931 1_556 S
C1143 H1131 0.929 . S
C1143 C1137 1.390 . S
C1143 C1140 1.386 . S
C1144 C1139 1.490 . S
C1144 C1146 1.395 . S
C1144 C1147 1.403 . S
H1145 C1151 0.930 . S
C1146 H1132 0.930 . S
C1146 C1144 1.395 . S
C1146 C1149 1.403 1_556 S
C1147 C1144 1.403 . S
C1147 C1148 1.524 . S
C1147 C1151 1.400 1_556 S
C1148 H1133 0.960 . S
C1148 H1134 0.960 . S
C1148 H1135 0.960 . S
C1148 C1147 1.524 . S
C1149 C1146 1.403 1_554 S
C1149 C1150 1.392 . S
C1149 C1153 1.495 . S
C1150 C1149 1.392 . S
C1150 C1151 1.385 . S
C1150 C1152 1.478 . S
C1151 H1145 0.930 . S
C1151 C1147 1.400 1_554 S
C1151 C1150 1.385 . S
C1152 C1150 1.478 . S
C1152 C1154 1.381 . S
C1152 C1158 1.383 . S
C1153 C1149 1.495 . S
C1153 H1159 0.959 . S
C1153 H1160 0.961 . S
C1153 H1161 0.960 . S
C1154 C1152 1.381 . S
C1154 C1155 1.394 . S
C1154 H1162 0.930 . S
C1155 C1154 1.394 . S
C1155 C1156 1.383 . S
C1155 H1163 0.929 . S
C1156 C1155 1.383 . S
C1156 C1157 1.377 . S
C1157 H1141 0.930 . S
C1157 C1156 1.377 . S
C1157 C1158 1.379 . S
C1158 H1142 0.931 1_554 S
C1158 C1152 1.383 . S
C1158 C1157 1.379 . S
H1159 C1153 0.959 . S
H1160 C1153 0.961 . S
H1161 C1153 0.960 . S
H1162 C1154 0.930 . S
H1163 C1155 0.929 . S
H1164 C1172 0.929 . S
H1165 C1174 0.930 . S
H1166 C1176 0.930 . S
H1167 C1179 0.929 . S
H1168 C1182 0.930 . S
H1169 C1184 0.960 . S
H1170 C1184 0.960 . S
H1171 C1184 0.960 . S
C1172 H1164 0.929 . S
C1172 C1173 1.377 . S
C1172 C1174 1.384 . S
C1173 C1172 1.377 . S
C1173 C1179 1.390 . S
C1174 H1165 0.930 . S
C1174 C1172 1.384 . S
C1174 C1175 1.372 . S
C1175 C1174 1.372 . S
C1175 C1176 1.400 . S
C1175 C1180 1.490 . S
C1176 H1166 0.930 . S
C1176 C1175 1.400 . S
C1176 C1179 1.386 . S
H1177 C1193 0.930 . S
H1178 C1194 0.931 . S
C1179 H1167 0.929 . S
C1179 C1173 1.390 . S
C1179 C1176 1.386 . S
C1180 C1175 1.490 . S
C1180 C1182 1.395 . S
C1180 C1183 1.403 . S
H1181 C1187 0.930 . S
C1182 H1168 0.930 . S
C1182 C1180 1.395 . S
C1182 C1185 1.403 . S
C1183 C1180 1.403 . S
C1183 C1184 1.524 . S
C1183 C1187 1.400 . S
C1184 H1169 0.960 . S
C1184 H1170 0.960 . S
C1184 H1171 0.960 . S
C1184 C1183 1.524 . S
C1185 C1182 1.403 . S
C1185 C1186 1.392 . S
C1185 C1189 1.495 . S
C1186 C1185 1.392 . S
C1186 C1187 1.385 . S
C1186 C1188 1.478 . S
C1187 H1181 0.930 . S
C1187 C1183 1.400 . S
C1187 C1186 1.385 . S
C1188 C1186 1.478 . S
C1188 C1190 1.381 . S
C1188 C1194 1.383 . S
C1189 C1185 1.495 . S
C1189 H1195 0.959 . S
C1189 H1196 0.961 . S
C1189 H1197 0.960 . S
C1190 C1188 1.381 . S
C1190 C1191 1.394 . S
C1190 H1198 0.930 . S
C1191 C1190 1.394 . S
C1191 C1192 1.383 . S
C1191 H1199 0.929 . S
C1192 C1191 1.383 . S
C1192 C1193 1.377 . S
C1193 H1177 0.930 . S
C1193 C1192 1.377 . S
C1193 C1194 1.379 . S
C1194 H1178 0.931 . S
C1194 C1188 1.383 . S
C1194 C1193 1.379 . S
H1195 C1189 0.959 . S
H1196 C1189 0.961 . S
H1197 C1189 0.960 . S
H1198 C1190 0.930 . S
H1199 C1191 0.929 . S
H1200 C1208 0.929 . S
H1201 C1210 0.930 . S
H1202 C1212 0.930 . S
H1203 C1215 0.929 . S
H1204 C1218 0.930 . S
H1205 C1220 0.960 . S
H1206 C1220 0.960 . S
H1207 C1220 0.960 . S
C1208 H1200 0.929 . S
C1208 C1209 1.377 . S
C1208 C1210 1.384 . S
C1209 C1208 1.377 . S
C1209 C1215 1.390 . S
C1210 H1201 0.930 . S
C1210 C1208 1.384 . S
C1210 C1211 1.372 . S
C1211 C1210 1.372 . S
C1211 C1212 1.400 . S
C1211 C1216 1.490 . S
C1212 H1202 0.930 . S
C1212 C1211 1.400 . S
C1212 C1215 1.386 . S
H1213 C1229 0.930 . S
H1214 C1230 0.931 . S
C1215 H1203 0.929 . S
C1215 C1209 1.390 . S
C1215 C1212 1.386 . S
C1216 C1211 1.490 . S
C1216 C1218 1.395 . S
C1216 C1219 1.403 . S
H1217 C1223 0.930 . S
C1218 H1204 0.930 . S
C1218 C1216 1.395 . S
C1218 C1221 1.403 . S
C1219 C1216 1.403 . S
C1219 C1220 1.524 . S
C1219 C1223 1.400 . S
C1220 H1205 0.960 . S
C1220 H1206 0.960 . S
C1220 H1207 0.960 . S
C1220 C1219 1.524 . S
C1221 C1218 1.403 . S
C1221 C1222 1.392 . S
C1221 C1225 1.495 . S
C1222 C1221 1.392 . S
C1222 C1223 1.385 . S
C1222 C1224 1.478 . S
C1223 H1217 0.930 . S
C1223 C1219 1.400 . S
C1223 C1222 1.385 . S
C1224 C1222 1.478 . S
C1224 C1226 1.381 . S
C1224 C1230 1.383 . S
C1225 C1221 1.495 . S
C1225 H1231 0.959 . S
C1225 H1232 0.961 . S
C1225 H1233 0.960 . S
C1226 C1224 1.381 . S
C1226 C1227 1.394 . S
C1226 H1234 0.930 . S
C1227 C1226 1.394 . S
C1227 C1228 1.383 . S
C1227 H1235 0.929 . S
C1228 C1227 1.383 . S
C1228 C1229 1.377 . S
C1229 H1213 0.930 . S
C1229 C1228 1.377 . S
C1229 C1230 1.379 . S
C1230 H1214 0.931 . S
C1230 C1224 1.383 . S
C1230 C1229 1.379 . S
H1231 C1225 0.959 . S
H1232 C1225 0.961 . S
H1233 C1225 0.960 . S
H1234 C1226 0.930 . S
H1235 C1227 0.929 . S
H1236 C1244 0.929 . S
H1237 C1246 0.930 . S
H1238 C1248 0.930 . S
H1239 C1251 0.929 . S
H1240 C1254 0.930 . S
H1241 C1256 0.960 . S
H1242 C1256 0.960 . S
H1243 C1256 0.960 . S
C1244 H1236 0.929 . S
C1244 C1245 1.377 . S
C1244 C1246 1.384 . S
C1245 C1244 1.377 . S
C1245 C1251 1.390 . S
C1246 H1237 0.930 . S
C1246 C1244 1.384 . S
C1246 C1247 1.372 . S
C1247 C1246 1.372 . S
C1247 C1248 1.400 . S
C1247 C1252 1.490 . S
C1248 H1238 0.930 . S
C1248 C1247 1.400 . S
C1248 C1251 1.386 . S
H1249 C1265 0.930 . S
H1250 C1266 0.931 . S
C1251 H1239 0.929 . S
C1251 C1245 1.390 . S
C1251 C1248 1.386 . S
C1252 C1247 1.490 . S
C1252 C1254 1.395 . S
C1252 C1255 1.403 . S
H1253 C1259 0.930 . S
C1254 H1240 0.930 . S
C1254 C1252 1.395 . S
C1254 C1257 1.403 1_455 S
C1255 C1252 1.403 . S
C1255 C1256 1.524 . S
C1255 C1259 1.400 1_455 S
C1256 H1241 0.960 . S
C1256 H1242 0.960 . S
C1256 H1243 0.960 . S
C1256 C1255 1.524 . S
C1257 C1254 1.403 1_655 S
C1257 C1258 1.392 . S
C1257 C1261 1.495 . S
C1258 C1257 1.392 . S
C1258 C1259 1.385 . S
C1258 C1260 1.478 . S
C1259 H1253 0.930 . S
C1259 C1255 1.400 1_655 S
C1259 C1258 1.385 . S
C1260 C1258 1.478 . S
C1260 C1262 1.381 . S
C1260 C1266 1.383 . S
C1261 C1257 1.495 . S
C1261 H1267 0.959 . S
C1261 H1268 0.961 . S
C1261 H1269 0.960 . S
C1262 C1260 1.381 . S
C1262 C1263 1.394 . S
C1262 H1270 0.930 . S
C1263 C1262 1.394 . S
C1263 C1264 1.383 . S
C1263 H1271 0.929 . S
C1264 C1263 1.383 . S
C1264 C1265 1.377 . S
C1265 H1249 0.930 . S
C1265 C1264 1.377 . S
C1265 C1266 1.379 . S
C1266 H1250 0.931 . S
C1266 C1260 1.383 . S
C1266 C1265 1.379 . S
H1267 C1261 0.959 . S
H1268 C1261 0.961 . S
H1269 C1261 0.960 . S
H1270 C1262 0.930 . S
H1271 C1263 0.929 . S
H1272 C1280 0.929 . S
H1273 C1282 0.930 . S
H1274 C1284 0.930 . S
H1275 C1287 0.929 . S
H1276 C1290 0.930 . S
H1277 C1292 0.960 . S
H1278 C1292 0.960 . S
H1279 C1292 0.960 . S
C1280 H1272 0.929 . S
C1280 C1281 1.377 . S
C1280 C1282 1.384 . S
C1281 C1280 1.377 . S
C1281 C1287 1.390 . S
C1282 H1273 0.930 . S
C1282 C1280 1.384 . S
C1282 C1283 1.372 . S
C1283 C1282 1.372 . S
C1283 C1284 1.400 . S
C1283 C1288 1.490 . S
C1284 H1274 0.930 . S
C1284 C1283 1.400 . S
C1284 C1287 1.386 . S
H1285 C1301 0.930 . S
H1286 C1302 0.931 . S
C1287 H1275 0.929 . S
C1287 C1281 1.390 . S
C1287 C1284 1.386 . S
C1288 C1283 1.490 . S
C1288 C1290 1.395 . S
C1288 C1291 1.403 . S
H1289 C1295 0.930 . S
C1290 H1276 0.930 . S
C1290 C1288 1.395 . S
C1290 C1293 1.403 1_565 S
C1291 C1288 1.403 . S
C1291 C1292 1.524 . S
C1291 C1295 1.400 1_565 S
C1292 H1277 0.960 . S
C1292 H1278 0.960 . S
C1292 H1279 0.960 . S
C1292 C1291 1.524 . S
C1293 C1290 1.403 1_545 S
C1293 C1294 1.392 . S
C1293 C1297 1.495 . S
C1294 C1293 1.392 . S
C1294 C1295 1.385 . S
C1294 C1296 1.478 . S
C1295 H1289 0.930 . S
C1295 C1291 1.400 1_545 S
C1295 C1294 1.385 . S
C1296 C1294 1.478 . S
C1296 C1298 1.381 . S
C1296 C1302 1.383 . S
C1297 C1293 1.495 . S
C1297 H1303 0.959 . S
C1297 H1304 0.961 . S
C1297 H1305 0.960 . S
C1298 C1296 1.381 . S
C1298 C1299 1.394 . S
C1298 H1306 0.930 . S
C1299 C1298 1.394 . S
C1299 C1300 1.383 . S
C1299 H1307 0.929 . S
C1300 C1299 1.383 . S
C1300 C1301 1.377 . S
C1301 H1285 0.930 . S
C1301 C1300 1.377 . S
C1301 C1302 1.379 . S
C1302 H1286 0.931 . S
C1302 C1296 1.383 . S
C1302 C1301 1.379 . S
H1303 C1297 0.959 . S
H1304 C1297 0.961 . S
H1305 C1297 0.960 . S
H1306 C1298 0.930 . S
H1307 C1299 0.929 . S
H1308 C1316 0.929 . S
H1309 C1318 0.930 . S
H1310 C1320 0.930 . S
H1311 C1323 0.929 . S
H1312 C1326 0.930 . S
H1313 C1328 0.960 . S
H1314 C1328 0.960 . S
H1315 C1328 0.960 . S
C1316 H1308 0.929 . S
C1316 C1317 1.377 . S
C1316 C1318 1.384 . S
C1317 C1316 1.377 . S
C1317 C1323 1.390 . S
C1318 H1309 0.930 . S
C1318 C1316 1.384 . S
C1318 C1319 1.372 . S
C1319 C1318 1.372 . S
C1319 C1320 1.400 . S
C1319 C1324 1.490 . S
C1320 H1310 0.930 . S
C1320 C1319 1.400 . S
C1320 C1323 1.386 . S
H1321 C1337 0.930 . S
H1322 C1338 0.931 . S
C1323 H1311 0.929 . S
C1323 C1317 1.390 . S
C1323 C1320 1.386 . S
C1324 C1319 1.490 . S
C1324 C1326 1.395 . S
C1324 C1327 1.403 . S
H1325 C1331 0.930 . S
C1326 H1312 0.930 . S
C1326 C1324 1.395 . S
C1326 C1329 1.403 . S
C1327 C1324 1.403 . S
C1327 C1328 1.524 . S
C1327 C1331 1.400 . S
C1328 H1313 0.960 . S
C1328 H1314 0.960 . S
C1328 H1315 0.960 . S
C1328 C1327 1.524 . S
C1329 C1326 1.403 . S
C1329 C1330 1.392 . S
C1329 C1333 1.495 . S
C1330 C1329 1.392 . S
C1330 C1331 1.385 . S
C1330 C1332 1.478 . S
C1331 H1325 0.930 . S
C1331 C1327 1.400 . S
C1331 C1330 1.385 . S
C1332 C1330 1.478 . S
C1332 C1334 1.381 . S
C1332 C1338 1.383 . S
C1333 C1329 1.495 . S
C1333 H1339 0.959 . S
C1333 H1340 0.961 . S
C1333 H1341 0.960 . S
C1334 C1332 1.381 . S
C1334 C1335 1.394 . S
C1334 H1342 0.930 . S
C1335 C1334 1.394 . S
C1335 C1336 1.383 . S
C1335 H1343 0.929 . S
C1336 C1335 1.383 . S
C1336 C1337 1.377 . S
C1337 H1321 0.930 . S
C1337 C1336 1.377 . S
C1337 C1338 1.379 . S
C1338 H1322 0.931 . S
C1338 C1332 1.383 . S
C1338 C1337 1.379 . S
H1339 C1333 0.959 . S
H1340 C1333 0.961 . S
H1341 C1333 0.960 . S
H1342 C1334 0.930 . S
H1343 C1335 0.929 . S
H1344 C1352 0.929 . S
H1345 C1354 0.930 . S
H1346 C1356 0.930 . S
H1347 C1359 0.929 . S
H1348 C1362 0.930 . S
H1349 C1364 0.960 . S
H1350 C1364 0.960 . S
H1351 C1364 0.960 . S
C1352 H1344 0.929 . S
C1352 C1353 1.377 . S
C1352 C1354 1.384 . S
C1353 C1352 1.377 . S
C1353 C1359 1.390 . S
C1354 H1345 0.930 . S
C1354 C1352 1.384 . S
C1354 C1355 1.372 . S
C1355 C1354 1.372 . S
C1355 C1356 1.400 . S
C1355 C1360 1.490 . S
C1356 H1346 0.930 . S
C1356 C1355 1.400 . S
C1356 C1359 1.386 . S
H1357 C1373 0.930 . S
H1358 C1374 0.931 . S
C1359 H1347 0.929 . S
C1359 C1353 1.390 . S
C1359 C1356 1.386 . S
C1360 C1355 1.490 . S
C1360 C1362 1.395 . S
C1360 C1363 1.403 . S
H1361 C1367 0.930 . S
C1362 H1348 0.930 . S
C1362 C1360 1.395 . S
C1362 C1365 1.403 1_655 S
C1363 C1360 1.403 . S
C1363 C1364 1.524 . S
C1363 C1367 1.400 1_655 S
C1364 H1349 0.960 . S
C1364 H1350 0.960 . S
C1364 H1351 0.960 . S
C1364 C1363 1.524 . S
C1365 C1362 1.403 1_455 S
C1365 C1366 1.392 . S
C1365 C1369 1.495 . S
C1366 C1365 1.392 . S
C1366 C1367 1.385 . S
C1366 C1368 1.478 . S
C1367 H1361 0.930 . S
C1367 C1363 1.400 1_455 S
C1367 C1366 1.385 . S
C1368 C1366 1.478 . S
C1368 C1370 1.381 . S
C1368 C1374 1.383 . S
C1369 C1365 1.495 . S
C1369 H1375 0.959 . S
C1369 H1376 0.961 . S
C1369 H1377 0.960 . S
C1370 C1368 1.381 . S
C1370 C1371 1.394 . S
C1370 H1378 0.930 . S
C1371 C1370 1.394 . S
C1371 C1372 1.383 . S
C1371 H1379 0.929 . S
C1372 C1371 1.383 . S
C1372 C1373 1.377 . S
C1373 H1357 0.930 . S
C1373 C1372 1.377 . S
C1373 C1374 1.379 . S
C1374 H1358 0.931 . S
C1374 C1368 1.383 . S
C1374 C1373 1.379 . S
H1375 C1369 0.959 . S
H1376 C1369 0.961 . S
H1377 C1369 0.960 . S
H1378 C1370 0.930 . S
H1379 C1371 0.929 . S
H1380 C1388 0.929 . S
H1381 C1390 0.930 . S
H1382 C1392 0.930 . S
H1383 C1395 0.929 . S
H1384 C1398 0.930 . S
H1385 C1400 0.960 . S
H1386 C1400 0.960 . S
H1387 C1400 0.960 . S
C1388 H1380 0.929 . S
C1388 C1389 1.377 . S
C1388 C1390 1.384 . S
C1389 C1388 1.377 . S
C1389 C1395 1.390 . S
C1390 H1381 0.930 . S
C1390 C1388 1.384 . S
C1390 C1391 1.372 . S
C1391 C1390 1.372 . S
C1391 C1392 1.400 . S
C1391 C1396 1.490 . S
C1392 H1382 0.930 . S
C1392 C1391 1.400 . S
C1392 C1395 1.386 . S
H1393 C1409 0.930 . S
H1394 C1410 0.931 . S
C1395 H1383 0.929 . S
C1395 C1389 1.390 . S
C1395 C1392 1.386 . S
C1396 C1391 1.490 . S
C1396 C1398 1.395 . S
C1396 C1399 1.403 . S
H1397 C1403 0.930 . S
C1398 H1384 0.930 . S
C1398 C1396 1.395 . S
C1398 C1401 1.403 1_545 S
C1399 C1396 1.403 . S
C1399 C1400 1.524 . S
C1399 C1403 1.400 1_545 S
C1400 H1385 0.960 . S
C1400 H1386 0.960 . S
C1400 H1387 0.960 . S
C1400 C1399 1.524 . S
C1401 C1398 1.403 1_565 S
C1401 C1402 1.392 . S
C1401 C1405 1.495 . S
C1402 C1401 1.392 . S
C1402 C1403 1.385 . S
C1402 C1404 1.478 . S
C1403 H1397 0.930 . S
C1403 C1399 1.400 1_565 S
C1403 C1402 1.385 . S
C1404 C1402 1.478 . S
C1404 C1406 1.381 . S
C1404 C1410 1.383 . S
C1405 C1401 1.495 . S
C1405 H1411 0.959 . S
C1405 H1412 0.961 . S
C1405 H1413 0.960 . S
C1406 C1404 1.381 . S
C1406 C1407 1.394 . S
C1406 H1414 0.930 . S
C1407 C1406 1.394 . S
C1407 C1408 1.383 . S
C1407 H1415 0.929 . S
C1408 C1407 1.383 . S
C1408 C1409 1.377 . S
C1409 H1393 0.930 . S
C1409 C1408 1.377 . S
C1409 C1410 1.379 . S
C1410 H1394 0.931 . S
C1410 C1404 1.383 . S
C1410 C1409 1.379 . S
H1411 C1405 0.959 . S
H1412 C1405 0.961 . S
H1413 C1405 0.960 . S
H1414 C1406 0.930 . S
H1415 C1407 0.929 . S
H1416 C1424 0.929 . S
H1417 C1426 0.930 . S
H1418 C1428 0.930 . S
H1419 C1431 0.929 . S
H1420 C1434 0.930 . S
H1421 C1436 0.960 . S
H1422 C1436 0.960 . S
H1423 C1436 0.960 . S
C1424 H1416 0.929 . S
C1424 C1425 1.377 . S
C1424 C1426 1.384 . S
C1425 C1424 1.377 . S
C1425 C1431 1.390 . S
C1426 H1417 0.930 . S
C1426 C1424 1.384 . S
C1426 C1427 1.372 . S
C1427 C1426 1.372 . S
C1427 C1428 1.400 . S
C1427 C1432 1.490 . S
C1428 H1418 0.930 . S
C1428 C1427 1.400 . S
C1428 C1431 1.386 . S
H1429 C1445 0.930 . S
H1430 C1446 0.931 . S
C1431 H1419 0.929 . S
C1431 C1425 1.390 . S
C1431 C1428 1.386 . S
C1432 C1427 1.490 . S
C1432 C1434 1.395 . S
C1432 C1435 1.403 . S
H1433 C1439 0.930 . S
C1434 H1420 0.930 . S
C1434 C1432 1.395 . S
C1434 C1437 1.403 . S
C1435 C1432 1.403 . S
C1435 C1436 1.524 . S
C1435 C1439 1.400 . S
C1436 H1421 0.960 . S
C1436 H1422 0.960 . S
C1436 H1423 0.960 . S
C1436 C1435 1.524 . S
C1437 C1434 1.403 . S
C1437 C1438 1.392 . S
C1437 C1441 1.495 . S
C1438 C1437 1.392 . S
C1438 C1439 1.385 . S
C1438 C1440 1.478 . S
C1439 H1433 0.930 . S
C1439 C1435 1.400 . S
C1439 C1438 1.385 . S
C1440 C1438 1.478 . S
C1440 C1442 1.381 . S
C1440 C1446 1.383 . S
C1441 C1437 1.495 . S
C1441 H1447 0.959 . S
C1441 H1448 0.961 . S
C1441 H1449 0.960 . S
C1442 C1440 1.381 . S
C1442 C1443 1.394 . S
C1442 H1450 0.930 . S
C1443 C1442 1.394 . S
C1443 C1444 1.383 . S
C1443 H1451 0.929 . S
C1444 C1443 1.383 . S
C1444 C1445 1.377 . S
C1445 H1429 0.930 . S
C1445 C1444 1.377 . S
C1445 C1446 1.379 . S
C1446 H1430 0.931 . S
C1446 C1440 1.383 . S
C1446 C1445 1.379 . S
H1447 C1441 0.959 . S
H1448 C1441 0.961 . S
H1449 C1441 0.960 . S
H1450 C1442 0.930 . S
H1451 C1443 0.929 . S
H1452 C1460 0.929 . S
H1453 C1462 0.930 . S
H1454 C1464 0.930 . S
H1455 C1467 0.929 . S
H1456 C1470 0.930 . S
H1457 C1472 0.960 . S
H1458 C1472 0.960 . S
H1459 C1472 0.960 . S
C1460 H1452 0.929 . S
C1460 C1461 1.377 . S
C1460 C1462 1.384 . S
C1461 C1460 1.377 . S
C1461 C1467 1.390 . S
C1462 H1453 0.930 . S
C1462 C1460 1.384 . S
C1462 C1463 1.372 . S
C1463 C1462 1.372 . S
C1463 C1464 1.400 . S
C1463 C1468 1.490 . S
C1464 H1454 0.930 . S
C1464 C1463 1.400 . S
C1464 C1467 1.386 . S
H1465 C1481 0.930 . S
H1466 C1482 0.931 . S
C1467 H1455 0.929 . S
C1467 C1461 1.390 . S
C1467 C1464 1.386 . S
C1468 C1463 1.490 . S
C1468 C1470 1.395 . S
C1468 C1471 1.403 . S
H1469 C1475 0.930 . S
C1470 H1456 0.930 . S
C1470 C1468 1.395 . S
C1470 C1473 1.403 1_655 S
C1471 C1468 1.403 . S
C1471 C1472 1.524 . S
C1471 C1475 1.400 1_655 S
C1472 H1457 0.960 . S
C1472 H1458 0.960 . S
C1472 H1459 0.960 . S
C1472 C1471 1.524 . S
C1473 C1470 1.403 1_455 S
C1473 C1474 1.392 . S
C1473 C1477 1.495 . S
C1474 C1473 1.392 . S
C1474 C1475 1.385 . S
C1474 C1476 1.478 . S
C1475 H1469 0.930 . S
C1475 C1471 1.400 1_455 S
C1475 C1474 1.385 . S
C1476 C1474 1.478 . S
C1476 C1478 1.381 . S
C1476 C1482 1.383 . S
C1477 C1473 1.495 . S
C1477 H1483 0.959 . S
C1477 H1484 0.961 . S
C1477 H1485 0.960 . S
C1478 C1476 1.381 . S
C1478 C1479 1.394 . S
C1478 H1486 0.930 . S
C1479 C1478 1.394 . S
C1479 C1480 1.383 . S
C1479 H1487 0.929 . S
C1480 C1479 1.383 . S
C1480 C1481 1.377 . S
C1481 H1465 0.930 . S
C1481 C1480 1.377 . S
C1481 C1482 1.379 . S
C1482 H1466 0.931 . S
C1482 C1476 1.383 . S
C1482 C1481 1.379 . S
H1483 C1477 0.959 . S
H1484 C1477 0.961 . S
H1485 C1477 0.960 . S
H1486 C1478 0.930 . S
H1487 C1479 0.929 . S
H1488 C1496 0.929 . S
H1489 C1498 0.930 . S
H1490 C1500 0.930 . S
H1491 C1503 0.929 . S
H1492 C1506 0.930 . S
H1493 C1508 0.960 . S
H1494 C1508 0.960 . S
H1495 C1508 0.960 . S
C1496 H1488 0.929 . S
C1496 C1497 1.377 . S
C1496 C1498 1.384 . S
C1497 C1496 1.377 . S
C1497 C1503 1.390 . S
C1498 H1489 0.930 . S
C1498 C1496 1.384 . S
C1498 C1499 1.372 . S
C1499 C1498 1.372 . S
C1499 C1500 1.400 . S
C1499 C1504 1.490 . S
C1500 H1490 0.930 . S
C1500 C1499 1.400 . S
C1500 C1503 1.386 . S
H1501 C1517 0.930 . S
H1502 C1518 0.931 . S
C1503 H1491 0.929 . S
C1503 C1497 1.390 . S
C1503 C1500 1.386 . S
C1504 C1499 1.490 . S
C1504 C1506 1.395 . S
C1504 C1507 1.403 . S
H1505 C1511 0.930 . S
C1506 H1492 0.930 . S
C1506 C1504 1.395 . S
C1506 C1509 1.403 1_545 S
C1507 C1504 1.403 . S
C1507 C1508 1.524 . S
C1507 C1511 1.400 1_545 S
C1508 H1493 0.960 . S
C1508 H1494 0.960 . S
C1508 H1495 0.960 . S
C1508 C1507 1.524 . S
C1509 C1506 1.403 1_565 S
C1509 C1510 1.392 . S
C1509 C1513 1.495 . S
C1510 C1509 1.392 . S
C1510 C1511 1.385 . S
C1510 C1512 1.478 . S
C1511 H1505 0.930 . S
C1511 C1507 1.400 1_565 S
C1511 C1510 1.385 . S
C1512 C1510 1.478 . S
C1512 C1514 1.381 . S
C1512 C1518 1.383 . S
C1513 C1509 1.495 . S
C1513 H1519 0.959 . S
C1513 H1520 0.961 . S
C1513 H1521 0.960 . S
C1514 C1512 1.381 . S
C1514 C1515 1.394 . S
C1514 H1522 0.930 . S
C1515 C1514 1.394 . S
C1515 C1516 1.383 . S
C1515 H1523 0.929 . S
C1516 C1515 1.383 . S
C1516 C1517 1.377 . S
C1517 H1501 0.930 . S
C1517 C1516 1.377 . S
C1517 C1518 1.379 . S
C1518 H1502 0.931 . S
C1518 C1512 1.383 . S
C1518 C1517 1.379 . S
H1519 C1513 0.959 . S
H1520 C1513 0.961 . S
H1521 C1513 0.960 . S
H1522 C1514 0.930 . S
H1523 C1515 0.929 . S
H1524 C1532 0.929 . S
H1525 C1534 0.930 . S
H1526 C1536 0.930 . S
H1527 C1539 0.929 . S
H1528 C1542 0.930 . S
H1529 C1544 0.960 . S
H1530 C1544 0.960 . S
H1531 C1544 0.960 . S
C1532 H1524 0.929 . S
C1532 C1533 1.377 . S
C1532 C1534 1.384 . S
C1533 C1532 1.377 . S
C1533 C1539 1.390 . S
C1534 H1525 0.930 . S
C1534 C1532 1.384 . S
C1534 C1535 1.372 . S
C1535 C1534 1.372 . S
C1535 C1536 1.400 . S
C1535 C1540 1.490 . S
C1536 H1526 0.930 . S
C1536 C1535 1.400 . S
C1536 C1539 1.386 . S
H1537 C1553 0.930 . S
H1538 C1554 0.931 . S
C1539 H1527 0.929 . S
C1539 C1533 1.390 . S
C1539 C1536 1.386 . S
C1540 C1535 1.490 . S
C1540 C1542 1.395 . S
C1540 C1543 1.403 . S
H1541 C1547 0.930 . S
C1542 H1528 0.930 . S
C1542 C1540 1.395 . S
C1542 C1545 1.403 . S
C1543 C1540 1.403 . S
C1543 C1544 1.524 . S
C1543 C1547 1.400 . S
C1544 H1529 0.960 . S
C1544 H1530 0.960 . S
C1544 H1531 0.960 . S
C1544 C1543 1.524 . S
C1545 C1542 1.403 . S
C1545 C1546 1.392 . S
C1545 C1549 1.495 . S
C1546 C1545 1.392 . S
C1546 C1547 1.385 . S
C1546 C1548 1.478 . S
C1547 H1541 0.930 . S
C1547 C1543 1.400 . S
C1547 C1546 1.385 . S
C1548 C1546 1.478 . S
C1548 C1550 1.381 . S
C1548 C1554 1.383 . S
C1549 C1545 1.495 . S
C1549 H1555 0.959 . S
C1549 H1556 0.961 . S
C1549 H1557 0.960 . S
C1550 C1548 1.381 . S
C1550 C1551 1.394 . S
C1550 H1558 0.930 . S
C1551 C1550 1.394 . S
C1551 C1552 1.383 . S
C1551 H1559 0.929 . S
C1552 C1551 1.383 . S
C1552 C1553 1.377 . S
C1553 H1537 0.930 . S
C1553 C1552 1.377 . S
C1553 C1554 1.379 . S
C1554 H1538 0.931 . S
C1554 C1548 1.383 . S
C1554 C1553 1.379 . S
H1555 C1549 0.959 . S
H1556 C1549 0.961 . S
H1557 C1549 0.960 . S
H1558 C1550 0.930 . S
H1559 C1551 0.929 . S
H1560 C1568 0.929 . S
H1561 C1570 0.930 . S
H1562 C1572 0.930 . S
H1563 C1575 0.929 . S
H1564 C1578 0.930 . S
H1565 C1580 0.960 . S
H1566 C1580 0.960 . S
H1567 C1580 0.960 . S
C1568 H1560 0.929 . S
C1568 C1569 1.377 . S
C1568 C1570 1.384 . S
C1569 C1568 1.377 . S
C1569 C1575 1.390 . S
C1570 H1561 0.930 . S
C1570 C1568 1.384 . S
C1570 C1571 1.372 . S
C1571 C1570 1.372 . S
C1571 C1572 1.400 . S
C1571 C1576 1.490 . S
C1572 H1562 0.930 . S
C1572 C1571 1.400 . S
C1572 C1575 1.386 . S
H1573 C1589 0.930 . S
H1574 C1590 0.931 . S
C1575 H1563 0.929 . S
C1575 C1569 1.390 . S
C1575 C1572 1.386 . S
C1576 C1571 1.490 . S
C1576 C1578 1.395 . S
C1576 C1579 1.403 . S
H1577 C1583 0.930 . S
C1578 H1564 0.930 . S
C1578 C1576 1.395 . S
C1578 C1581 1.403 1_455 S
C1579 C1576 1.403 . S
C1579 C1580 1.524 . S
C1579 C1583 1.400 1_455 S
C1580 H1565 0.960 . S
C1580 H1566 0.960 . S
C1580 H1567 0.960 . S
C1580 C1579 1.524 . S
C1581 C1578 1.403 1_655 S
C1581 C1582 1.392 . S
C1581 C1585 1.495 . S
C1582 C1581 1.392 . S
C1582 C1583 1.385 . S
C1582 C1584 1.478 . S
C1583 H1577 0.930 . S
C1583 C1579 1.400 1_655 S
C1583 C1582 1.385 . S
C1584 C1582 1.478 . S
C1584 C1586 1.381 . S
C1584 C1590 1.383 . S
C1585 C1581 1.495 . S
C1585 H1591 0.959 . S
C1585 H1592 0.961 . S
C1585 H1593 0.960 . S
C1586 C1584 1.381 . S
C1586 C1587 1.394 . S
C1586 H1594 0.930 . S
C1587 C1586 1.394 . S
C1587 C1588 1.383 . S
C1587 H1595 0.929 . S
C1588 C1587 1.383 . S
C1588 C1589 1.377 . S
C1589 H1573 0.930 . S
C1589 C1588 1.377 . S
C1589 C1590 1.379 . S
C1590 H1574 0.931 . S
C1590 C1584 1.383 . S
C1590 C1589 1.379 . S
H1591 C1585 0.959 . S
H1592 C1585 0.961 . S
H1593 C1585 0.960 . S
H1594 C1586 0.930 . S
H1595 C1587 0.929 . S
H1596 C1604 0.929 . S
H1597 C1606 0.930 . S
H1598 C1608 0.930 . S
H1599 C1611 0.929 . S
H1600 C1614 0.930 . S
H1601 C1616 0.960 . S
H1602 C1616 0.960 . S
H1603 C1616 0.960 . S
C1604 H1596 0.929 . S
C1604 C1605 1.377 . S
C1604 C1606 1.384 . S
C1605 C1604 1.377 . S
C1605 C1611 1.390 . S
C1606 H1597 0.930 . S
C1606 C1604 1.384 . S
C1606 C1607 1.372 . S
C1607 C1606 1.372 . S
C1607 C1608 1.400 . S
C1607 C1612 1.490 . S
C1608 H1598 0.930 . S
C1608 C1607 1.400 . S
C1608 C1611 1.386 . S
H1609 C1625 0.930 . S
H1610 C1626 0.931 . S
C1611 H1599 0.929 . S
C1611 C1605 1.390 . S
C1611 C1608 1.386 . S
C1612 C1607 1.490 . S
C1612 C1614 1.395 . S
C1612 C1615 1.403 . S
H1613 C1619 0.930 . S
C1614 H1600 0.930 . S
C1614 C1612 1.395 . S
C1614 C1617 1.403 1_565 S
C1615 C1612 1.403 . S
C1615 C1616 1.524 . S
C1615 C1619 1.400 1_565 S
C1616 H1601 0.960 . S
C1616 H1602 0.960 . S
C1616 H1603 0.960 . S
C1616 C1615 1.524 . S
C1617 C1614 1.403 1_545 S
C1617 C1618 1.392 . S
C1617 C1621 1.495 . S
C1618 C1617 1.392 . S
C1618 C1619 1.385 . S
C1618 C1620 1.478 . S
C1619 H1613 0.930 . S
C1619 C1615 1.400 1_545 S
C1619 C1618 1.385 . S
C1620 C1618 1.478 . S
C1620 C1622 1.381 . S
C1620 C1626 1.383 . S
C1621 C1617 1.495 . S
C1621 H1627 0.959 . S
C1621 H1628 0.961 . S
C1621 H1629 0.960 . S
C1622 C1620 1.381 . S
C1622 C1623 1.394 . S
C1622 H1630 0.930 . S
C1623 C1622 1.394 . S
C1623 C1624 1.383 . S
C1623 H1631 0.929 . S
C1624 C1623 1.383 . S
C1624 C1625 1.377 . S
C1625 H1609 0.930 . S
C1625 C1624 1.377 . S
C1625 C1626 1.379 . S
C1626 H1610 0.931 . S
C1626 C1620 1.383 . S
C1626 C1625 1.379 . S
H1627 C1621 0.959 . S
H1628 C1621 0.961 . S
H1629 C1621 0.960 . S
H1630 C1622 0.930 . S
H1631 C1623 0.929 . S
H1632 C1640 0.929 . S
H1633 C1642 0.930 1_554 S
H1634 C1644 0.930 . S
H1635 C1647 0.929 . S
H1636 C1650 0.930 . S
H1637 C1652 0.960 . S
H1638 C1652 0.960 . S
H1639 C1652 0.960 . S
C1640 H1632 0.929 . S
C1640 C1641 1.377 . S
C1640 C1642 1.384 . S
C1641 C1640 1.377 . S
C1641 C1647 1.390 . S
C1642 H1633 0.930 1_556 S
C1642 C1640 1.384 . S
C1642 C1643 1.372 . S
C1643 C1642 1.372 . S
C1643 C1644 1.400 . S
C1643 C1648 1.490 . S
C1644 H1634 0.930 . S
C1644 C1643 1.400 . S
C1644 C1647 1.386 . S
H1645 C1661 0.930 . S
H1646 C1662 0.931 1_556 S
C1647 H1635 0.929 . S
C1647 C1641 1.390 . S
C1647 C1644 1.386 . S
C1648 C1643 1.490 . S
C1648 C1650 1.395 1_556 S
C1648 C1651 1.403 . S
H1649 C1655 0.930 . S
C1650 H1636 0.930 . S
C1650 C1648 1.395 1_554 S
C1650 C1653 1.403 . S
C1651 C1648 1.403 . S
C1651 C1652 1.524 . S
C1651 C1655 1.400 1_556 S
C1652 H1637 0.960 . S
C1652 H1638 0.960 . S
C1652 H1639 0.960 . S
C1652 C1651 1.524 . S
C1653 C1650 1.403 . S
C1653 C1654 1.392 . S
C1653 C1657 1.495 . S
C1654 C1653 1.392 . S
C1654 C1655 1.385 . S
C1654 C1656 1.478 . S
C1655 H1649 0.930 . S
C1655 C1651 1.400 1_554 S
C1655 C1654 1.385 . S
C1656 C1654 1.478 . S
C1656 C1658 1.381 . S
C1656 C1662 1.383 . S
C1657 C1653 1.495 . S
C1657 H1663 0.959 . S
C1657 H1664 0.961 . S
C1657 H1665 0.960 . S
C1658 C1656 1.381 . S
C1658 C1659 1.394 . S
C1658 H1666 0.930 . S
C1659 C1658 1.394 . S
C1659 C1660 1.383 . S
C1659 H1667 0.929 . S
C1660 C1659 1.383 . S
C1660 C1661 1.377 . S
C1661 H1645 0.930 . S
C1661 C1660 1.377 . S
C1661 C1662 1.379 . S
C1662 H1646 0.931 1_554 S
C1662 C1656 1.383 . S
C1662 C1661 1.379 . S
H1663 C1657 0.959 . S
H1664 C1657 0.961 . S
H1665 C1657 0.960 . S
H1666 C1658 0.930 . S
H1667 C1659 0.929 . S
H1668 C1676 0.929 . S
H1669 C1678 0.930 . S
H1670 C1680 0.930 . S
H1671 C1683 0.929 . S
H1672 C1686 0.930 . S
H1673 C1688 0.960 . S
H1674 C1688 0.960 . S
H1675 C1688 0.960 . S
C1676 H1668 0.929 . S
C1676 C1677 1.377 . S
C1676 C1678 1.384 . S
C1677 C1676 1.377 . S
C1677 C1683 1.390 . S
C1678 H1669 0.930 . S
C1678 C1676 1.384 . S
C1678 C1679 1.372 . S
C1679 C1678 1.372 . S
C1679 C1680 1.400 . S
C1679 C1684 1.490 . S
C1680 H1670 0.930 . S
C1680 C1679 1.400 . S
C1680 C1683 1.386 . S
H1681 C1697 0.930 . S
H1682 C1698 0.931 . S
C1683 H1671 0.929 . S
C1683 C1677 1.390 . S
C1683 C1680 1.386 . S
C1684 C1679 1.490 . S
C1684 C1686 1.395 . S
C1684 C1687 1.403 . S
H1685 C1691 0.930 . S
C1686 H1672 0.930 . S
C1686 C1684 1.395 . S
C1686 C1689 1.403 . S
C1687 C1684 1.403 . S
C1687 C1688 1.524 . S
C1687 C1691 1.400 . S
C1688 H1673 0.960 . S
C1688 H1674 0.960 . S
C1688 H1675 0.960 . S
C1688 C1687 1.524 . S
C1689 C1686 1.403 . S
C1689 C1690 1.392 . S
C1689 C1693 1.495 . S
C1690 C1689 1.392 . S
C1690 C1691 1.385 . S
C1690 C1692 1.478 . S
C1691 H1685 0.930 . S
C1691 C1687 1.400 . S
C1691 C1690 1.385 . S
C1692 C1690 1.478 . S
C1692 C1694 1.381 . S
C1692 C1698 1.383 . S
C1693 C1689 1.495 . S
C1693 H1699 0.959 . S
C1693 H1700 0.961 . S
C1693 H1701 0.960 . S
C1694 C1692 1.381 . S
C1694 C1695 1.394 . S
C1694 H1702 0.930 . S
C1695 C1694 1.394 . S
C1695 C1696 1.383 . S
C1695 H1703 0.929 . S
C1696 C1695 1.383 . S
C1696 C1697 1.377 . S
C1697 H1681 0.930 . S
C1697 C1696 1.377 . S
C1697 C1698 1.379 . S
C1698 H1682 0.931 . S
C1698 C1692 1.383 . S
C1698 C1697 1.379 . S
H1699 C1693 0.959 . S
H1700 C1693 0.961 . S
H1701 C1693 0.960 . S
H1702 C1694 0.930 . S
H1703 C1695 0.929 . S
H1704 C1712 0.929 . S
H1705 C1714 0.930 . S
H1706 C1716 0.930 1_554 S
H1707 C1719 0.929 . S
H1708 C1722 0.930 . S
H1709 C1724 0.960 . S
H1710 C1724 0.960 1_556 S
H1711 C1724 0.960 . S
C1712 H1704 0.929 . S
C1712 C1713 1.377 . S
C1712 C1714 1.384 . S
C1713 C1712 1.377 . S
C1713 C1719 1.390 . S
C1714 H1705 0.930 . S
C1714 C1712 1.384 . S
C1714 C1715 1.372 . S
C1715 C1714 1.372 . S
C1715 C1716 1.400 . S
C1715 C1720 1.490 . S
C1716 H1706 0.930 1_556 S
C1716 C1715 1.400 . S
C1716 C1719 1.386 . S
H1717 C1733 0.930 . S
H1718 C1734 0.931 . S
C1719 H1707 0.929 . S
C1719 C1713 1.390 . S
C1719 C1716 1.386 . S
C1720 C1715 1.490 . S
C1720 C1722 1.395 . S
C1720 C1723 1.403 1_556 S
H1721 C1727 0.930 . S
C1722 H1708 0.930 . S
C1722 C1720 1.395 . S
C1722 C1725 1.403 . S
C1723 C1720 1.403 1_554 S
C1723 C1724 1.524 . S
C1723 C1727 1.400 . S
C1724 H1709 0.960 . S
C1724 H1710 0.960 1_554 S
C1724 H1711 0.960 . S
C1724 C1723 1.524 . S
C1725 C1722 1.403 . S
C1725 C1726 1.392 1_556 S
C1725 C1729 1.495 . S
C1726 C1725 1.392 1_554 S
C1726 C1727 1.385 . S
C1726 C1728 1.478 . S
C1727 H1721 0.930 . S
C1727 C1723 1.400 . S
C1727 C1726 1.385 . S
C1728 C1726 1.478 . S
C1728 C1730 1.381 . S
C1728 C1734 1.383 . S
C1729 C1725 1.495 . S
C1729 H1735 0.959 . S
C1729 H1736 0.961 . S
C1729 H1737 0.960 . S
C1730 C1728 1.381 . S
C1730 C1731 1.394 . S
C1730 H1738 0.930 1_554 S
C1731 C1730 1.394 . S
C1731 C1732 1.383 . S
C1731 H1739 0.929 . S
C1732 C1731 1.383 . S
C1732 C1733 1.377 . S
C1733 H1717 0.930 . S
C1733 C1732 1.377 . S
C1733 C1734 1.379 . S
C1734 H1718 0.931 . S
C1734 C1728 1.383 . S
C1734 C1733 1.379 . S
H1735 C1729 0.959 . S
H1736 C1729 0.961 . S
H1737 C1729 0.960 . S
H1738 C1730 0.930 1_556 S
H1739 C1731 0.929 . S
H1740 C1748 0.929 . S
H1741 C1750 0.930 . S
H1742 C1752 0.930 . S
H1743 C1755 0.929 . S
H1744 C1758 0.930 . S
H1745 C1760 0.960 . S
H1746 C1760 0.960 . S
H1747 C1760 0.960 . S
C1748 H1740 0.929 . S
C1748 C1749 1.377 . S
C1748 C1750 1.384 . S
C1749 C1748 1.377 . S
C1749 C1755 1.390 . S
C1750 H1741 0.930 . S
C1750 C1748 1.384 . S
C1750 C1751 1.372 . S
C1751 C1750 1.372 . S
C1751 C1752 1.400 . S
C1751 C1756 1.490 . S
C1752 H1742 0.930 . S
C1752 C1751 1.400 . S
C1752 C1755 1.386 . S
H1753 C1769 0.930 . S
H1754 C1770 0.931 . S
C1755 H1743 0.929 . S
C1755 C1749 1.390 . S
C1755 C1752 1.386 . S
C1756 C1751 1.490 . S
C1756 C1758 1.395 . S
C1756 C1759 1.403 . S
H1757 C1763 0.930 . S
C1758 H1744 0.930 . S
C1758 C1756 1.395 . S
C1758 C1761 1.403 . S
C1759 C1756 1.403 . S
C1759 C1760 1.524 . S
C1759 C1763 1.400 . S
C1760 H1745 0.960 . S
C1760 H1746 0.960 . S
C1760 H1747 0.960 . S
C1760 C1759 1.524 . S
C1761 C1758 1.403 . S
C1761 C1762 1.392 . S
C1761 C1765 1.495 . S
C1762 C1761 1.392 . S
C1762 C1763 1.385 . S
C1762 C1764 1.478 . S
C1763 H1757 0.930 . S
C1763 C1759 1.400 . S
C1763 C1762 1.385 . S
C1764 C1762 1.478 . S
C1764 C1766 1.381 . S
C1764 C1770 1.383 . S
C1765 C1761 1.495 . S
C1765 H1771 0.959 . S
C1765 H1772 0.961 . S
C1765 H1773 0.960 . S
C1766 C1764 1.381 . S
C1766 C1767 1.394 . S
C1766 H1774 0.930 . S
C1767 C1766 1.394 . S
C1767 C1768 1.383 . S
C1767 H1775 0.929 . S
C1768 C1767 1.383 . S
C1768 C1769 1.377 . S
C1769 H1753 0.930 . S
C1769 C1768 1.377 . S
C1769 C1770 1.379 . S
C1770 H1754 0.931 . S
C1770 C1764 1.383 . S
C1770 C1769 1.379 . S
H1771 C1765 0.959 . S
H1772 C1765 0.961 . S
H1773 C1765 0.960 . S
H1774 C1766 0.930 . S
H1775 C1767 0.929 . S
H1776 C1784 0.929 . S
H1777 C1786 0.930 . S
H1778 C1788 0.930 1_554 S
H1779 C1791 0.929 . S
H1780 C1794 0.930 . S
H1781 C1796 0.960 . S
H1782 C1796 0.960 . S
H1783 C1796 0.960 . S
C1784 H1776 0.929 . S
C1784 C1785 1.377 . S
C1784 C1786 1.384 . S
C1785 C1784 1.377 . S
C1785 C1791 1.390 . S
C1786 H1777 0.930 . S
C1786 C1784 1.384 . S
C1786 C1787 1.372 . S
C1787 C1786 1.372 . S
C1787 C1788 1.400 . S
C1787 C1792 1.490 . S
C1788 H1778 0.930 1_556 S
C1788 C1787 1.400 . S
C1788 C1791 1.386 . S
H1789 C1805 0.930 . S
H1790 C1806 0.931 . S
C1791 H1779 0.929 . S
C1791 C1785 1.390 . S
C1791 C1788 1.386 . S
C1792 C1787 1.490 . S
C1792 C1794 1.395 . S
C1792 C1795 1.403 1_556 S
H1793 C1799 0.930 . S
C1794 H1780 0.930 . S
C1794 C1792 1.395 . S
C1794 C1797 1.403 . S
C1795 C1792 1.403 1_554 S
C1795 C1796 1.524 . S
C1795 C1799 1.400 . S
C1796 H1781 0.960 . S
C1796 H1782 0.960 . S
C1796 H1783 0.960 . S
C1796 C1795 1.524 . S
C1797 C1794 1.403 . S
C1797 C1798 1.392 1_556 S
C1797 C1801 1.495 . S
C1798 C1797 1.392 1_554 S
C1798 C1799 1.385 . S
C1798 C1800 1.478 . S
C1799 H1793 0.930 . S
C1799 C1795 1.400 . S
C1799 C1798 1.385 . S
C1800 C1798 1.478 . S
C1800 C1802 1.381 . S
C1800 C1806 1.383 . S
C1801 C1797 1.495 . S
C1801 H1807 0.959 . S
C1801 H1808 0.961 . S
C1801 H1809 0.960 . S
C1802 C1800 1.381 . S
C1802 C1803 1.394 . S
C1802 H1810 0.930 1_554 S
C1803 C1802 1.394 . S
C1803 C1804 1.383 . S
C1803 H1811 0.929 . S
C1804 C1803 1.383 . S
C1804 C1805 1.377 . S
C1805 H1789 0.930 . S
C1805 C1804 1.377 . S
C1805 C1806 1.379 . S
C1806 H1790 0.931 . S
C1806 C1800 1.383 . S
C1806 C1805 1.379 . S
H1807 C1801 0.959 . S
H1808 C1801 0.961 . S
H1809 C1801 0.960 . S
H1810 C1802 0.930 1_556 S
H1811 C1803 0.929 . S
H1812 C1820 0.929 . S
H1813 C1822 0.930 . S
H1814 C1824 0.930 . S
H1815 C1827 0.929 . S
H1816 C1830 0.930 . S
H1817 C1832 0.960 . S
H1818 C1832 0.960 . S
H1819 C1832 0.960 . S
C1820 H1812 0.929 . S
C1820 C1821 1.377 . S
C1820 C1822 1.384 . S
C1821 C1820 1.377 . S
C1821 C1827 1.390 . S
C1822 H1813 0.930 . S
C1822 C1820 1.384 . S
C1822 C1823 1.372 . S
C1823 C1822 1.372 . S
C1823 C1824 1.400 . S
C1823 C1828 1.490 . S
C1824 H1814 0.930 . S
C1824 C1823 1.400 . S
C1824 C1827 1.386 . S
H1825 C1841 0.930 . S
H1826 C1842 0.931 . S
C1827 H1815 0.929 . S
C1827 C1821 1.390 . S
C1827 C1824 1.386 . S
C1828 C1823 1.490 . S
C1828 C1830 1.395 . S
C1828 C1831 1.403 . S
H1829 C1835 0.930 . S
C1830 H1816 0.930 . S
C1830 C1828 1.395 . S
C1830 C1833 1.403 . S
C1831 C1828 1.403 . S
C1831 C1832 1.524 . S
C1831 C1835 1.400 . S
C1832 H1817 0.960 . S
C1832 H1818 0.960 . S
C1832 H1819 0.960 . S
C1832 C1831 1.524 . S
C1833 C1830 1.403 . S
C1833 C1834 1.392 . S
C1833 C1837 1.495 . S
C1834 C1833 1.392 . S
C1834 C1835 1.385 . S
C1834 C1836 1.478 . S
C1835 H1829 0.930 . S
C1835 C1831 1.400 . S
C1835 C1834 1.385 . S
C1836 C1834 1.478 . S
C1836 C1838 1.381 . S
C1836 C1842 1.383 . S
C1837 C1833 1.495 . S
C1837 H1843 0.959 . S
C1837 H1844 0.961 . S
C1837 H1845 0.960 . S
C1838 C1836 1.381 . S
C1838 C1839 1.394 . S
C1838 H1846 0.930 . S
C1839 C1838 1.394 . S
C1839 C1840 1.383 . S
C1839 H1847 0.929 . S
C1840 C1839 1.383 . S
C1840 C1841 1.377 . S
C1841 H1825 0.930 . S
C1841 C1840 1.377 . S
C1841 C1842 1.379 . S
C1842 H1826 0.931 . S
C1842 C1836 1.383 . S
C1842 C1841 1.379 . S
H1843 C1837 0.959 . S
H1844 C1837 0.961 . S
H1845 C1837 0.960 . S
H1846 C1838 0.930 . S
H1847 C1839 0.929 . S
H1848 C1856 0.929 . S
H1849 C1858 0.930 1_556 S
H1850 C1860 0.930 . S
H1851 C1863 0.929 . S
H1852 C1866 0.930 . S
H1853 C1868 0.969 . S
H1854 C1868 0.960 1_556 S
H1855 C1868 0.960 . S
C1856 H1848 0.929 . S
C1856 C1857 1.377 . S
C1856 C1858 1.384 . S
C1857 C1856 1.377 . S
C1857 C1863 1.390 . S
C1858 H1849 0.930 1_554 S
C1858 C1856 1.384 . S
C1858 C1859 1.372 . S
C1859 C1858 1.372 . S
C1859 C1860 1.400 . S
C1859 C1864 1.490 . S
C1860 H1850 0.930 . S
C1860 C1859 1.400 . S
C1860 C1863 1.386 . S
H1861 C1877 0.930 . S
H1862 C1878 0.931 1_554 S
C1863 H1851 0.929 . S
C1863 C1857 1.390 . S
C1863 C1860 1.386 . S
C1864 C1859 1.490 . S
C1864 C1866 1.395 . S
C1864 C1867 1.403 . S
H1865 C1871 0.930 . S
C1866 H1852 0.930 . S
C1866 C1864 1.395 . S
C1866 C1869 1.403 1_554 S
C1867 C1864 1.403 . S
C1867 C1868 1.524 . S
C1867 C1871 1.400 1_554 S
C1868 H1853 0.969 . S
C1868 H1854 0.960 1_554 S
C1868 H1855 0.960 . S
C1868 C1867 1.524 . S
C1869 C1866 1.403 1_556 S
C1869 C1870 1.392 . S
C1869 C1873 1.495 . S
C1870 C1869 1.392 . S
C1870 C1871 1.385 . S
C1870 C1872 1.478 . S
C1871 H1865 0.930 . S
C1871 C1867 1.400 1_556 S
C1871 C1870 1.385 . S
C1872 C1870 1.478 . S
C1872 C1874 1.381 . S
C1872 C1878 1.383 . S
C1873 C1869 1.495 . S
C1873 H1879 0.959 . S
C1873 H1880 0.959 . S
C1873 H1881 0.960 . S
C1874 C1872 1.381 . S
C1874 C1875 1.394 . S
C1874 H1882 0.930 . S
C1875 C1874 1.394 . S
C1875 C1876 1.383 . S
C1875 H1883 0.929 . S
C1876 C1875 1.383 . S
C1876 C1877 1.377 . S
C1877 H1861 0.930 . S
C1877 C1876 1.377 . S
C1877 C1878 1.379 . S
C1878 H1862 0.931 1_556 S
C1878 C1872 1.383 . S
C1878 C1877 1.379 . S
H1879 C1873 0.959 . S
H1880 C1873 0.959 . S
H1881 C1873 0.960 . S
H1882 C1874 0.930 . S
H1883 C1875 0.929 . S
H1884 C1892 0.929 . S
H1885 C1894 0.930 . S
H1886 C1896 0.930 . S
H1887 C1899 0.929 . S
H1888 C1902 0.930 . S
H1889 C1904 0.960 . S
H1890 C1904 0.960 . S
H1891 C1904 0.960 . S
C1892 H1884 0.929 . S
C1892 C1893 1.377 . S
C1892 C1894 1.384 . S
C1893 C1892 1.377 . S
C1893 C1899 1.390 . S
C1894 H1885 0.930 . S
C1894 C1892 1.384 . S
C1894 C1895 1.372 . S
C1895 C1894 1.372 . S
C1895 C1896 1.400 . S
C1895 C1900 1.490 . S
C1896 H1886 0.930 . S
C1896 C1895 1.400 . S
C1896 C1899 1.386 . S
H1897 C1913 0.930 . S
H1898 C1914 0.931 . S
C1899 H1887 0.929 . S
C1899 C1893 1.390 . S
C1899 C1896 1.386 . S
C1900 C1895 1.490 . S
C1900 C1902 1.395 . S
C1900 C1903 1.403 . S
H1901 C1907 0.930 . S
C1902 H1888 0.930 . S
C1902 C1900 1.395 . S
C1902 C1905 1.403 . S
C1903 C1900 1.403 . S
C1903 C1904 1.524 . S
C1903 C1907 1.400 . S
C1904 H1889 0.960 . S
C1904 H1890 0.960 . S
C1904 H1891 0.960 . S
C1904 C1903 1.524 . S
C1905 C1902 1.403 . S
C1905 C1906 1.392 . S
C1905 C1909 1.495 . S
C1906 C1905 1.392 . S
C1906 C1907 1.385 . S
C1906 C1908 1.478 . S
C1907 H1901 0.930 . S
C1907 C1903 1.400 . S
C1907 C1906 1.385 . S
C1908 C1906 1.478 . S
C1908 C1910 1.381 . S
C1908 C1914 1.383 . S
C1909 C1905 1.495 . S
C1909 H1915 0.959 . S
C1909 H1916 0.961 . S
C1909 H1917 0.960 . S
C1910 C1908 1.381 . S
C1910 C1911 1.394 . S
C1910 H1918 0.930 . S
C1911 C1910 1.394 . S
C1911 C1912 1.383 . S
C1911 H1919 0.929 . S
C1912 C1911 1.383 . S
C1912 C1913 1.377 . S
C1913 H1897 0.930 . S
C1913 C1912 1.377 . S
C1913 C1914 1.379 . S
C1914 H1898 0.931 . S
C1914 C1908 1.383 . S
C1914 C1913 1.379 . S
H1915 C1909 0.959 . S
H1916 C1909 0.961 . S
H1917 C1909 0.960 . S
H1918 C1910 0.930 . S
H1919 C1911 0.929 . S
H1920 C1928 0.929 . S
H1921 C1930 0.930 . S
H1922 C1932 0.930 . S
H1923 C1935 0.929 . S
H1924 C1938 0.930 . S
H1925 C1940 0.960 . S
H1926 C1940 0.960 . S
H1927 C1940 0.960 . S
C1928 H1920 0.929 . S
C1928 C1929 1.377 . S
C1928 C1930 1.384 . S
C1929 C1928 1.377 . S
C1929 C1935 1.390 . S
C1930 H1921 0.930 . S
C1930 C1928 1.384 . S
C1930 C1931 1.372 . S
C1931 C1930 1.372 . S
C1931 C1932 1.400 . S
C1931 C1936 1.490 . S
C1932 H1922 0.930 . S
C1932 C1931 1.400 . S
C1932 C1935 1.386 . S
H1933 C1949 0.930 . S
H1934 C1950 0.931 . S
C1935 H1923 0.929 . S
C1935 C1929 1.390 . S
C1935 C1932 1.386 . S
C1936 C1931 1.490 . S
C1936 C1938 1.395 1_554 S
C1936 C1939 1.403 . S
H1937 C1943 0.930 . S
C1938 H1924 0.930 . S
C1938 C1936 1.395 1_556 S
C1938 C1941 1.403 . S
C1939 C1936 1.403 . S
C1939 C1940 1.524 . S
C1939 C1943 1.400 . S
C1940 H1925 0.960 . S
C1940 H1926 0.960 . S
C1940 H1927 0.960 . S
C1940 C1939 1.524 . S
C1941 C1938 1.403 . S
C1941 C1942 1.392 . S
C1941 C1945 1.495 . S
C1942 C1941 1.392 . S
C1942 C1943 1.385 1_556 S
C1942 C1944 1.478 . S
C1943 H1937 0.930 . S
C1943 C1939 1.400 . S
C1943 C1942 1.385 1_554 S
C1944 C1942 1.478 . S
C1944 C1946 1.381 . S
C1944 C1950 1.383 . S
C1945 C1941 1.495 . S
C1945 H1951 0.959 . S
C1945 H1952 0.961 . S
C1945 H1953 0.960 . S
C1946 C1944 1.381 . S
C1946 C1947 1.394 . S
C1946 H1954 0.930 . S
C1947 C1946 1.394 . S
C1947 C1948 1.383 . S
C1947 H1955 0.929 . S
C1948 C1947 1.383 . S
C1948 C1949 1.377 . S
C1949 H1933 0.930 . S
C1949 C1948 1.377 . S
C1949 C1950 1.379 . S
C1950 H1934 0.931 . S
C1950 C1944 1.383 . S
C1950 C1949 1.379 . S
H1951 C1945 0.959 . S
H1952 C1945 0.961 . S
H1953 C1945 0.960 . S
H1954 C1946 0.930 . S
H1955 C1947 0.929 . S
H1956 C1964 0.929 . S
H1957 C1966 0.930 . S
H1958 C1968 0.930 . S
H1959 C1971 0.929 . S
H1960 C1974 0.930 . S
H1961 C1976 0.960 . S
H1962 C1976 0.960 . S
H1963 C1976 0.960 . S
C1964 H1956 0.929 . S
C1964 C1965 1.377 . S
C1964 C1966 1.384 . S
C1965 C1964 1.377 . S
C1965 C1971 1.390 . S
C1966 H1957 0.930 . S
C1966 C1964 1.384 . S
C1966 C1967 1.372 . S
C1967 C1966 1.372 . S
C1967 C1968 1.400 . S
C1967 C1972 1.490 . S
C1968 H1958 0.930 . S
C1968 C1967 1.400 . S
C1968 C1971 1.386 . S
H1969 C1985 0.930 . S
H1970 C1986 0.931 . S
C1971 H1959 0.929 . S
C1971 C1965 1.390 . S
C1971 C1968 1.386 . S
C1972 C1967 1.490 . S
C1972 C1974 1.395 . S
C1972 C1975 1.403 . S
H1973 C1979 0.930 . S
C1974 H1960 0.930 . S
C1974 C1972 1.395 . S
C1974 C1977 1.403 . S
C1975 C1972 1.403 . S
C1975 C1976 1.524 . S
C1975 C1979 1.400 . S
C1976 H1961 0.960 . S
C1976 H1962 0.960 . S
C1976 H1963 0.960 . S
C1976 C1975 1.524 . S
C1977 C1974 1.403 . S
C1977 C1978 1.392 . S
C1977 C1981 1.495 . S
C1978 C1977 1.392 . S
C1978 C1979 1.385 . S
C1978 C1980 1.478 . S
C1979 H1973 0.930 . S
C1979 C1975 1.400 . S
C1979 C1978 1.385 . S
C1980 C1978 1.478 . S
C1980 C1982 1.381 . S
C1980 C1986 1.383 . S
C1981 C1977 1.495 . S
C1981 H1987 0.959 . S
C1981 H1988 0.961 . S
C1981 H1989 0.960 . S
C1982 C1980 1.381 . S
C1982 C1983 1.394 . S
C1982 H1990 0.930 . S
C1983 C1982 1.394 . S
C1983 C1984 1.383 . S
C1983 H1991 0.929 . S
C1984 C1983 1.383 . S
C1984 C1985 1.377 . S
C1985 H1969 0.930 . S
C1985 C1984 1.377 . S
C1985 C1986 1.379 . S
C1986 H1970 0.931 . S
C1986 C1980 1.383 . S
C1986 C1985 1.379 . S
H1987 C1981 0.959 . S
H1988 C1981 0.961 . S
H1989 C1981 0.960 . S
H1990 C1982 0.930 . S
H1991 C1983 0.929 . S
H1992 C2000 0.929 . S
H1993 C2002 0.930 1_554 S
H1994 C2004 0.930 . S
H1995 C2007 0.929 . S
H1996 C2010 0.930 . S
H1997 C2012 0.960 . S
H1998 C2012 0.960 . S
H1999 C2012 0.960 . S
C2000 H1992 0.929 . S
C2000 C2001 1.377 . S
C2000 C2002 1.384 . S
C2001 C2000 1.377 . S
C2001 C2007 1.390 . S
C2002 H1993 0.930 1_556 S
C2002 C2000 1.384 . S
C2002 C2003 1.372 . S
C2003 C2002 1.372 . S
C2003 C2004 1.400 . S
C2003 C2008 1.490 . S
C2004 H1994 0.930 . S
C2004 C2003 1.400 . S
C2004 C2007 1.386 . S
H2005 C2021 0.930 . S
H2006 C2022 0.931 . S
C2007 H1995 0.929 . S
C2007 C2001 1.390 . S
C2007 C2004 1.386 . S
C2008 C2003 1.490 . S
C2008 C2010 1.395 1_556 S
C2008 C2011 1.403 . S
H2009 C2015 0.930 . S
C2010 H1996 0.930 . S
C2010 C2008 1.395 1_554 S
C2010 C2013 1.403 . S
C2011 C2008 1.403 . S
C2011 C2012 1.524 . S
C2011 C2015 1.400 . S
C2012 H1997 0.960 . S
C2012 H1998 0.960 . S
C2012 H1999 0.960 . S
C2012 C2011 1.524 . S
C2013 C2010 1.403 . S
C2013 C2014 1.392 . S
C2013 C2017 1.495 . S
C2014 C2013 1.392 . S
C2014 C2015 1.385 1_554 S
C2014 C2016 1.478 . S
C2015 H2009 0.930 . S
C2015 C2011 1.400 . S
C2015 C2014 1.385 1_556 S
C2016 C2014 1.478 . S
C2016 C2018 1.381 . S
C2016 C2022 1.383 . S
C2017 C2013 1.495 . S
C2017 H2023 0.959 . S
C2017 H2024 0.961 . S
C2017 H2025 0.960 . S
C2018 C2016 1.381 . S
C2018 C2019 1.394 . S
C2018 H2026 0.930 . S
C2019 C2018 1.394 . S
C2019 C2020 1.383 . S
C2019 H2027 0.929 . S
C2020 C2019 1.383 . S
C2020 C2021 1.377 . S
C2021 H2005 0.930 . S
C2021 C2020 1.377 . S
C2021 C2022 1.379 . S
C2022 H2006 0.931 . S
C2022 C2016 1.383 . S
C2022 C2021 1.379 . S
H2023 C2017 0.959 . S
H2024 C2017 0.961 . S
H2025 C2017 0.960 . S
H2026 C2018 0.930 . S
H2027 C2019 0.929 . S
H2028 C2036 0.929 . S
H2029 C2038 0.930 . S
H2030 C2040 0.930 . S
H2031 C2043 0.929 . S
H2032 C2046 0.930 . S
H2033 C2048 0.960 . S
H2034 C2048 0.960 . S
H2035 C2048 0.960 . S
C2036 H2028 0.929 . S
C2036 C2037 1.377 . S
C2036 C2038 1.384 . S
C2037 C2036 1.377 . S
C2037 C2043 1.390 . S
C2038 H2029 0.930 . S
C2038 C2036 1.384 . S
C2038 C2039 1.372 . S
C2039 C2038 1.372 . S
C2039 C2040 1.400 . S
C2039 C2044 1.490 . S
C2040 H2030 0.930 . S
C2040 C2039 1.400 . S
C2040 C2043 1.386 . S
H2041 C2057 0.930 . S
H2042 C2058 0.931 . S
C2043 H2031 0.929 . S
C2043 C2037 1.390 . S
C2043 C2040 1.386 . S
C2044 C2039 1.490 . S
C2044 C2046 1.395 . S
C2044 C2047 1.403 . S
H2045 C2051 0.930 . S
C2046 H2032 0.930 . S
C2046 C2044 1.395 . S
C2046 C2049 1.403 . S
C2047 C2044 1.403 . S
C2047 C2048 1.524 . S
C2047 C2051 1.400 . S
C2048 H2033 0.960 . S
C2048 H2034 0.960 . S
C2048 H2035 0.960 . S
C2048 C2047 1.524 . S
C2049 C2046 1.403 . S
C2049 C2050 1.392 . S
C2049 C2053 1.495 . S
C2050 C2049 1.392 . S
C2050 C2051 1.385 . S
C2050 C2052 1.478 . S
C2051 H2045 0.930 . S
C2051 C2047 1.400 . S
C2051 C2050 1.385 . S
C2052 C2050 1.478 . S
C2052 C2054 1.381 . S
C2052 C2058 1.383 . S
C2053 C2049 1.495 . S
C2053 H2059 0.959 . S
C2053 H2060 0.961 . S
C2053 H2061 0.960 . S
C2054 C2052 1.381 . S
C2054 C2055 1.394 . S
C2054 H2062 0.930 . S
C2055 C2054 1.394 . S
C2055 C2056 1.383 . S
C2055 H2063 0.929 . S
C2056 C2055 1.383 . S
C2056 C2057 1.377 . S
C2057 H2041 0.930 . S
C2057 C2056 1.377 . S
C2057 C2058 1.379 . S
C2058 H2042 0.931 . S
C2058 C2052 1.383 . S
C2058 C2057 1.379 . S
H2059 C2053 0.959 . S
H2060 C2053 0.961 . S
H2061 C2053 0.960 . S
H2062 C2054 0.930 . S
H2063 C2055 0.929 . S
C345 C0 1.477 . S
C364 C210 1.490 . S
C381 C14 1.473 . S
C400 C224 1.482 . S
C417 C238 1.479 . S
C436 C28 1.481 . S
C453 C168 1.480 . S
C472 C42 1.458 . S
C489 C182 1.474 . S
C508 C56 1.468 . S
C525 C196 1.474 . S
C544 C70 1.491 . S
C561 C294 1.479 . S
C580 C84 1.456 . S
C597 C98 1.480 . S
C616 C308 1.458 . S
C633 C322 1.476 . S
C652 C112 1.458 . S
C669 C126 1.474 . S
C688 C252 1.472 . S
C705 C266 1.473 . S
C724 C140 1.485 . S
C741 C154 1.478 . S
C760 C280 1.455 . S
C777 C151 1.320 . S
C796 C11 1.307 . S
C813 C165 1.318 . S
C832 C25 1.307 . S
C849 C39 1.319 . S
C868 C95 1.326 . S
C885 C53 1.320 . S
C904 C109 1.307 . S
C921 C123 1.321 . S
C940 C67 1.327 . S
C957 C81 1.322 . S
C976 C137 1.315 . S
C993 C319 1.321 . S
C1012 C179 1.328 . S
C1029 C193 1.318 . S
C1048 C333 1.305 . S
C1065 C207 1.321 . S
C1084 C263 1.315 . S
C1101 C277 1.318 . S
C1120 C221 1.319 . S
C1137 C235 1.317 . S
C1156 C291 1.315 . S
C1173 C249 1.322 . S
C1192 C305 1.319 . S
C1209 C5 1.369 . S
C1228 C257 1.355 . S
C1245 C271 1.369 . S
C1264 C19 1.370 . S
C1281 C33 1.370 . S
C1300 C285 1.358 . S
C1317 C47 1.367 . S
C1336 C299 1.375 . S
C1353 C313 1.368 . S
C1372 C61 1.371 . S
C1389 C75 1.366 . S
C1408 C327 1.375 . S
C1425 C89 1.370 . S
C1444 C173 1.357 . S
C1461 C103 1.369 . S
C1480 C187 1.355 . S
C1497 C201 1.366 . S
C1516 C117 1.374 . S
C1533 C215 1.368 . S
C1552 C131 1.356 . S
C1569 C145 1.369 . S
C1588 C229 1.358 . S
C1605 C243 1.369 . S
C1624 C159 1.370 . S
C1641 C93 1.513 . S
C1660 C9 1.512 . S
C1677 C23 1.513 . S
C1696 C107 1.511 . S
C1713 C121 1.514 . S
C1732 C37 1.509 . S
C1749 C135 1.514 . S
C1768 C51 1.509 . S
C1785 C149 1.513 . S
C1804 C65 1.508 . S
C1821 C79 1.513 . S
C1840 C163 1.512 . S
C1857 C261 1.513 . S
C1876 C177 1.509 . S
C1893 C191 1.514 . S
C1912 C275 1.511 . S
C1929 C289 1.514 . S
C1948 C205 1.511 . S
C1965 C303 1.514 . S
C1984 C219 1.512 . S
C2001 C233 1.514 . S
C2020 C317 1.511 . S
C2037 C247 1.513 . S
C2056 C331 1.508 . S
