# Generated by pormake.
# Topology wjh, (4)-cn, num edge types: 1
# Building blocks:
#     Node 0, Type 0, BuildingBlock: ICAMEG_clean_sbu_1, # of connection points: 4
#     Node 1, Type 0, BuildingBlock: ICAMEG_clean_sbu_1, # of connection points: 4
#     Node 2, Type 0, BuildingBlock: ICAMEG_clean_sbu_1, # of connection points: 4
#     Node 3, Type 0, BuildingBlock: ICAMEG_clean_sbu_1, # of connection points: 4
#     Node 4, Type 0, BuildingBlock: ICAMEG_clean_sbu_1, # of connection points: 4
#     Node 5, Type 0, BuildingBlock: ICAMEG_clean_sbu_1, # of connection points: 4
#     Node 6, Type 0, BuildingBlock: ICAMEG_clean_sbu_1, # of connection points: 4
#     Node 7, Type 0, BuildingBlock: ICAMEG_clean_sbu_1, # of connection points: 4
#     Node 8, Type 0, BuildingBlock: ICAMEG_clean_sbu_1, # of connection points: 4
#     Node 9, Type 0, BuildingBlock: ICAMEG_clean_sbu_1, # of connection points: 4
#     Node 10, Type 0, BuildingBlock: ICAMEG_clean_sbu_1, # of connection points: 4
#     Node 11, Type 0, BuildingBlock: ICAMEG_clean_sbu_1, # of connection points: 4
#     Edge 12, Type (0, 0), BuildingBlock: CIFDUS_clean_linker_0, # of connection points: 2
#     Edge 13, Type (0, 0), BuildingBlock: CIFDUS_clean_linker_0, # of connection points: 2
#     Edge 14, Type (0, 0), BuildingBlock: CIFDUS_clean_linker_0, # of connection points: 2
#     Edge 15, Type (0, 0), BuildingBlock: CIFDUS_clean_linker_0, # of connection points: 2
#     Edge 16, Type (0, 0), BuildingBlock: CIFDUS_clean_linker_0, # of connection points: 2
#     Edge 17, Type (0, 0), BuildingBlock: CIFDUS_clean_linker_0, # of connection points: 2
#     Edge 18, Type (0, 0), BuildingBlock: CIFDUS_clean_linker_0, # of connection points: 2
#     Edge 19, Type (0, 0), BuildingBlock: CIFDUS_clean_linker_0, # of connection points: 2
#     Edge 20, Type (0, 0), BuildingBlock: CIFDUS_clean_linker_0, # of connection points: 2
#     Edge 21, Type (0, 0), BuildingBlock: CIFDUS_clean_linker_0, # of connection points: 2
#     Edge 22, Type (0, 0), BuildingBlock: CIFDUS_clean_linker_0, # of connection points: 2
#     Edge 23, Type (0, 0), BuildingBlock: CIFDUS_clean_linker_0, # of connection points: 2
#     Edge 24, Type (0, 0), BuildingBlock: CIFDUS_clean_linker_0, # of connection points: 2
#     Edge 25, Type (0, 0), BuildingBlock: CIFDUS_clean_linker_0, # of connection points: 2
#     Edge 26, Type (0, 0), BuildingBlock: CIFDUS_clean_linker_0, # of connection points: 2
#     Edge 27, Type (0, 0), BuildingBlock: CIFDUS_clean_linker_0, # of connection points: 2
#     Edge 28, Type (0, 0), BuildingBlock: CIFDUS_clean_linker_0, # of connection points: 2
#     Edge 29, Type (0, 0), BuildingBlock: CIFDUS_clean_linker_0, # of connection points: 2
#     Edge 30, Type (0, 0), BuildingBlock: CIFDUS_clean_linker_0, # of connection points: 2
#     Edge 31, Type (0, 0), BuildingBlock: CIFDUS_clean_linker_0, # of connection points: 2
#     Edge 32, Type (0, 0), BuildingBlock: CIFDUS_clean_linker_0, # of connection points: 2
#     Edge 33, Type (0, 0), BuildingBlock: CIFDUS_clean_linker_0, # of connection points: 2
#     Edge 34, Type (0, 0), BuildingBlock: CIFDUS_clean_linker_0, # of connection points: 2
#     Edge 35, Type (0, 0), BuildingBlock: CIFDUS_clean_linker_0, # of connection points: 2
# Relax obj value: 0.058
# Max RMSD: 0.097
# Mean RMSD: 0.097
data_MOF--net-wjh--node1-ICAMEG_clean_sbu_1--edge1-CIFDUS_clean_linker_0
_symmetry_space_group_name_H-M    P1
_symmetry_Int_Tables_number       1
_symmetry_cell_setting            triclinic
loop_
_symmetry_equiv_pos_as_xyz
'x, y, z'
_cell_length_a     56.065645
_cell_length_b     56.01767
_cell_length_c     26.306826
_cell_angle_alpha  90.067323
_cell_angle_beta   90.045226
_cell_angle_gamma 119.93337
loop_
_atom_site_label
_atom_site_type_symbol
_atom_site_fract_x
_atom_site_fract_y
_atom_site_fract_z
_atom_type_partial_charge
Co0 Co 0.51351 0.1455 0.08019 0.0
Co1 Co 0.57174 0.14991 0.02557 0.0
O2 O 0.54283 0.15962 0.02939 0.0
C3 C 0.5444 0.20598 0.09707 0.0
O4 O 0.56674 0.20409 0.09346 0.0
C5 C 0.54372 0.13094 0.92676 0.0
O6 O 0.52023 0.1205 0.95121 0.0
O7 O 0.54461 0.11005 0.03569 0.0
O8 O 0.50589 0.10678 0.06804 0.0
H9 H 0.62335 0.1026 0.08197 0.0
H10 H 0.51357 0.18098 -0.00346 0.0
O11 O 0.52082 0.18427 0.09298 0.0
H12 H 0.42638 0.09317 0.97813 0.0
H13 H 0.43216 0.14115 0.16987 0.0
H14 H 0.4954 0.10396 0.16247 0.0
H15 H 0.45862 0.09978 0.04776 0.0
H16 H 0.46908 0.15799 0.10567 0.0
O17 O 0.56636 0.14459 0.95062 0.0
H18 H 0.58711 0.11524 0.087 0.0
H19 H 0.61802 0.16395 0.95378 0.0
H20 H 0.45865 0.08638 0.22706 0.0
H21 H 0.4818 0.17537 0.92664 0.0
H22 H 0.42671 0.10502 0.23103 0.0
H23 H 0.43788 0.13117 0.91705 0.0
O24 O 0.5395 0.14999 0.13626 0.0
H25 H 0.60658 0.24326 0.94739 0.0
H26 H 0.62595 0.18945 0.07213 0.0
H27 H 0.65883 0.23908 0.06223 0.0
H28 H 0.64921 0.26633 -0.00051 0.0
H29 H 0.57416 0.1936 0.95881 0.0
H30 H 0.65446 0.15165 0.94706 0.0
H31 H 0.65735 0.12085 0.0116 0.0
O32 O 0.57777 0.15458 0.09989 0.0
C33 C 0.51989 0.09597 0.05177 0.0
C34 C 0.62236 0.11611 0.05371 0.0
C35 C 0.63979 0.1436 0.97796 0.0
N36 N 0.60057 0.14047 0.02094 0.0
C37 C 0.60193 0.1234 0.05644 0.0
C38 C 0.61908 0.15045 0.98189 0.0
C39 C 0.64141 0.12633 0.01419 0.0
C40 C 0.4944 0.16177 0.99283 0.0
N41 N 0.4879 0.14078 0.02628 0.0
C42 C 0.47653 0.15868 0.95308 0.0
C43 C 0.45191 0.13386 0.94768 0.0
C44 C 0.44545 0.11253 0.98192 0.0
C45 C 0.46382 0.11636 0.02118 0.0
C46 C 0.44591 0.13283 0.16846 0.0
C47 C 0.48146 0.11203 0.16376 0.0
C48 C 0.46688 0.14233 0.13227 0.0
N49 N 0.48423 0.13182 0.13014 0.0
C50 C 0.46075 0.10206 0.20051 0.0
C51 C 0.44286 0.11255 0.20275 0.0
C52 C 0.56371 0.15329 0.13873 0.0
C53 C 0.61103 0.23159 0.97476 0.0
C54 C 0.62162 0.20117 0.04479 0.0
C55 C 0.64033 0.22926 0.03929 0.0
C56 C 0.63493 0.24453 0.00406 0.0
N57 N 0.59822 0.18864 0.01593 0.0
C58 C 0.59281 0.20346 0.98124 0.0
Co59 Co 0.36425 0.49982 0.23148 0.0
Co60 Co 0.42553 0.55796 0.19881 0.0
O61 O 0.38583 0.53343 0.19222 0.0
C62 C 0.33899 0.53432 0.25421 0.0
O63 O 0.36411 0.55526 0.25845 0.0
C64 C 0.41649 0.53959 0.09198 0.0
O65 O 0.39952 0.51488 0.10948 0.0
O66 O 0.43257 0.52646 0.19918 0.0
O67 O 0.39285 0.48862 0.22048 0.0
H68 H 0.51945 0.59083 0.27317 0.0
H69 H 0.33833 0.51304 0.14605 0.0
O70 O 0.33519 0.51044 0.24335 0.0
H71 H 0.32984 0.42355 0.10174 0.0
H72 H 0.27638 0.41645 0.28776 0.0
H73 H 0.37716 0.46982 0.30953 0.0
H74 H 0.3515 0.44668 0.18249 0.0
H75 H 0.30441 0.45855 0.23755 0.0
O76 O 0.42909 0.55976 0.12266 0.0
H77 H 0.46929 0.56006 0.26529 0.0
H78 H 0.46634 0.60851 0.14402 0.0
H79 H 0.34996 0.42771 0.36024 0.0
H80 H 0.31631 0.49054 0.06508 0.0
H81 H 0.29918 0.40073 0.3495 0.0
H82 H 0.31206 0.44551 0.0424 0.0
O83 O 0.38267 0.51879 0.29584 0.0
H84 H 0.38303 0.61263 0.13408 0.0
H85 H 0.44397 0.60777 0.26388 0.0
H86 H 0.43462 0.64637 0.26566 0.0
H87 H 0.40395 0.64897 0.2004 0.0
H88 H 0.39277 0.57428 0.13395 0.0
H89 H 0.51653 0.6397 0.15029 0.0
H90 H 0.5434 0.63099 0.21537 0.0
O91 O 0.42263 0.55633 0.27461 0.0
C92 C 0.41837 0.50075 0.20861 0.0
C93 C 0.50796 0.5949 0.24477 0.0
C94 C 0.50632 0.6223 0.17575 0.0
N95 N 0.4649 0.58261 0.20449 0.0
C96 C 0.47954 0.5776 0.24023 0.0
C97 C 0.47793 0.60455 0.17231 0.0
C98 C 0.52139 0.61741 0.21229 0.0
C99 C 0.33632 0.49333 0.13665 0.0
N100 N 0.34613 0.48116 0.16898 0.0
C101 C 0.32393 0.48074 0.09067 0.0
C102 C 0.32158 0.45549 0.07793 0.0
C103 C 0.33158 0.44317 0.11119 0.0
C104 C 0.34389 0.45639 0.15679 0.0
C105 C 0.29849 0.428 0.2927 0.0
C106 C 0.3551 0.45806 0.3044 0.0
C107 C 0.31446 0.45187 0.26445 0.0
N108 N 0.3424 0.46647 0.27033 0.0
C109 C 0.33979 0.43429 0.33333 0.0
C110 C 0.3113 0.41918 0.32732 0.0
C111 C 0.40529 0.54031 0.30748 0.0
C112 C 0.39649 0.61177 0.16263 0.0
C113 C 0.43059 0.60875 0.23539 0.0
C114 C 0.4254 0.63068 0.23654 0.0
C115 C 0.40821 0.63213 0.19989 0.0
N116 N 0.41904 0.58887 0.19868 0.0
C117 C 0.40218 0.59017 0.16261 0.0
Co118 Co 0.869 0.36715 0.40416 0.0
Co119 Co 0.8641 0.42447 0.37199 0.0
O120 O 0.85363 0.38577 0.36477 0.0
C121 C 0.80939 0.33697 0.42682 0.0
O122 O 0.81132 0.36121 0.43124 0.0
C123 C 0.8774 0.418 0.26641 0.0
O124 O 0.88706 0.40284 0.28523 0.0
O125 O 0.90386 0.43622 0.37573 0.0
O126 O 0.90735 0.39874 0.39339 0.0
H127 H 0.91386 0.51898 0.45012 0.0
H128 H 0.83084 0.33785 0.3188 0.0
O129 O 0.83072 0.33532 0.41593 0.0
H130 H 0.91755 0.34043 0.27462 0.0
H131 H 0.87488 0.28444 0.46071 0.0
H132 H 0.91269 0.38442 0.48236 0.0
H133 H 0.91329 0.36052 0.35523 0.0
H134 H 0.85667 0.30898 0.41037 0.0
O135 O 0.86721 0.42872 0.29586 0.0
H136 H 0.90058 0.47004 0.44143 0.0
H137 H 0.84942 0.4614 0.31549 0.0
H138 H 0.93168 0.36075 0.5332 0.0
H139 H 0.83411 0.3173 0.23797 0.0
H140 H 0.91273 0.3104 0.52252 0.0
H141 H 0.87776 0.31861 0.21536 0.0
O142 O 0.86632 0.38442 0.46844 0.0
H143 H 0.76838 0.37256 0.29994 0.0
H144 H 0.82697 0.43649 0.43433 0.0
H145 H 0.7774 0.42126 0.43238 0.0
H146 H 0.74776 0.38907 0.36481 0.0
H147 H 0.81801 0.38817 0.30353 0.0
H148 H 0.86233 0.51033 0.32249 0.0
H149 H 0.8947 0.53943 0.39033 0.0
O150 O 0.86178 0.42092 0.44773 0.0
C151 C 0.91794 0.42446 0.38415 0.0
C152 C 0.89968 0.50649 0.42048 0.0
C153 C 0.87079 0.50164 0.34881 0.0
N154 N 0.87411 0.46285 0.37821 0.0
C155 C 0.89203 0.47875 0.41547 0.0
C156 C 0.86361 0.47398 0.34495 0.0
C157 C 0.88894 0.51796 0.3869 0.0
C158 C 0.84979 0.33824 0.30945 0.0
N159 N 0.8718 0.35025 0.34177 0.0
C160 C 0.85157 0.32667 0.26354 0.0
C161 C 0.87608 0.32745 0.25085 0.0
C162 C 0.89842 0.33971 0.28406 0.0
C163 C 0.89591 0.3511 0.3296 0.0
C164 C 0.88335 0.3064 0.46562 0.0
C165 C 0.9045 0.36254 0.47725 0.0
C166 C 0.87309 0.32039 0.4373 0.0
N167 N 0.88379 0.34813 0.44314 0.0
C168 C 0.91526 0.34924 0.50625 0.0
C169 C 0.9046 0.32098 0.50028 0.0
C170 C 0.86368 0.40506 0.48036 0.0
C171 C 0.7811 0.38666 0.32948 0.0
C172 C 0.81419 0.42248 0.40481 0.0
C173 C 0.78615 0.41396 0.40386 0.0
C174 C 0.76954 0.3959 0.36592 0.0
N175 N 0.82538 0.41335 0.36888 0.0
C176 C 0.80923 0.39566 0.33156 0.0
Co177 Co 0.50673 0.86695 0.56972 0.0
Co178 Co 0.4421 0.85822 0.54434 0.0
O179 O 0.47119 0.84894 0.53441 0.0
C180 C 0.48279 0.80782 0.59731 0.0
O181 O 0.45906 0.80671 0.6041 0.0
C182 C 0.45463 0.86861 0.43553 0.0
O183 O 0.48075 0.88002 0.44788 0.0
O184 O 0.46891 0.8986 0.54039 0.0
O185 O 0.51071 0.90388 0.55661 0.0
H186 H 0.39866 0.90892 0.62369 0.0
H187 H 0.49623 0.82733 0.4862 0.0
O188 O 0.50376 0.83026 0.58333 0.0
H189 H 0.57654 0.91455 0.43111 0.0
H190 H 0.59996 0.88063 0.6158 0.0
H191 H 0.53376 0.91305 0.64322 0.0
H192 H 0.55498 0.9112 0.51446 0.0
H193 H 0.55531 0.85859 0.57105 0.0
O194 O 0.43617 0.85759 0.4695 0.0
H195 H 0.4352 0.89726 0.61055 0.0
H196 H 0.38668 0.83824 0.49829 0.0
H197 H 0.57829 0.93585 0.68841 0.0
H198 H 0.51734 0.82963 0.40275 0.0
H199 H 0.61173 0.91963 0.67483 0.0
H200 H 0.55772 0.87353 0.37464 0.0
O201 O 0.4889 0.86493 0.63662 0.0
H202 H 0.399 0.75972 0.48703 0.0
H203 H 0.39724 0.82259 0.61643 0.0
H204 H 0.36499 0.77265 0.6235 0.0
H205 H 0.36575 0.74085 0.55848 0.0
H206 H 0.43103 0.80981 0.48163 0.0
H207 H 0.34971 0.84946 0.50985 0.0
H208 H 0.35553 0.88494 0.57309 0.0
O209 O 0.44733 0.85951 0.61868 0.0
C210 C 0.49491 0.91352 0.54614 0.0
C211 C 0.39584 0.89337 0.5961 0.0
C212 C 0.36839 0.86002 0.53217 0.0
N213 N 0.41301 0.86696 0.55394 0.0
C214 C 0.41644 0.88663 0.58858 0.0
C215 C 0.38942 0.8538 0.5257 0.0
C216 C 0.37166 0.87993 0.56768 0.0
C217 C 0.51392 0.84644 0.47436 0.0
N218 N 0.52433 0.86913 0.50509 0.0
C219 C 0.52573 0.84764 0.42702 0.0
C220 C 0.54837 0.87229 0.41124 0.0
C221 C 0.55892 0.89532 0.44288 0.0
C222 C 0.54656 0.89335 0.48993 0.0
C223 C 0.58557 0.88791 0.62199 0.0
C224 C 0.54829 0.90599 0.63687 0.0
C225 C 0.56023 0.87546 0.59686 0.0
N226 N 0.54202 0.88464 0.6043 0.0
C227 C 0.57343 0.91893 0.66268 0.0
C228 C 0.59217 0.9098 0.65508 0.0
C229 C 0.46591 0.8625 0.64997 0.0
C230 C 0.39842 0.77338 0.51552 0.0
C231 C 0.39771 0.80888 0.58802 0.0
C232 C 0.37937 0.78063 0.59217 0.0
C233 C 0.3798 0.7628 0.55566 0.0
N234 N 0.41591 0.81909 0.54851 0.0
C235 C 0.41642 0.80175 0.51253 0.0
Co236 Co 0.6485 0.51302 0.75422 0.0
Co237 Co 0.59313 0.45561 0.70073 0.0
O238 O 0.63254 0.4829 0.70435 0.0
C239 C 0.68241 0.48596 0.77135 0.0
O240 O 0.6598 0.46182 0.77188 0.0
C241 C 0.6039 0.47715 0.59573 0.0
O242 O 0.6186 0.50232 0.61353 0.0
O243 O 0.58308 0.48517 0.70108 0.0
O244 O 0.61702 0.51991 0.74507 0.0
H245 H 0.4938 0.41364 0.75114 0.0
H246 H 0.68148 0.51248 0.66686 0.0
O247 O 0.68111 0.50777 0.76418 0.0
H248 H 0.67973 0.59929 0.65089 0.0
H249 H 0.72568 0.59709 0.83804 0.0
H250 H 0.62611 0.53029 0.83963 0.0
H251 H 0.65658 0.56782 0.72256 0.0
H252 H 0.70524 0.5596 0.77476 0.0
O253 O 0.59397 0.45657 0.62539 0.0
H254 H 0.54345 0.4474 0.7557 0.0
H255 H 0.55922 0.40582 0.63674 0.0
H256 H 0.64565 0.56761 0.90337 0.0
H257 H 0.70521 0.5435 0.59481 0.0
H258 H 0.69579 0.60133 0.90283 0.0
H259 H 0.70434 0.58722 0.5864 0.0
O260 O 0.62886 0.48701 0.81147 0.0
H261 H 0.64731 0.41134 0.6428 0.0
H262 H 0.57405 0.40295 0.75761 0.0
H263 H 0.58751 0.36724 0.75885 0.0
H264 H 0.62438 0.37129 0.70108 0.0
H265 H 0.63334 0.44671 0.64314 0.0
H266 H 0.50973 0.37176 0.63059 0.0
H267 H 0.47665 0.37549 0.68821 0.0
O268 O 0.59052 0.4533 0.77545 0.0
C269 C 0.59386 0.50885 0.72215 0.0
C270 C 0.50802 0.41174 0.72593 0.0
C271 C 0.51696 0.38826 0.65824 0.0
N272 N 0.55424 0.42849 0.69676 0.0
C273 C 0.53616 0.43076 0.72842 0.0
C274 C 0.54495 0.40764 0.66184 0.0
C275 C 0.49841 0.39036 0.69058 0.0
C276 C 0.68115 0.53155 0.66361 0.0
N277 N 0.66759 0.53829 0.69883 0.0
C278 C 0.69456 0.549 0.62266 0.0
C279 C 0.69404 0.57351 0.61793 0.0
C280 C 0.68021 0.58027 0.65406 0.0
C281 C 0.66701 0.56231 0.69446 0.0
C282 C 0.7038 0.58254 0.83864 0.0
C283 C 0.64792 0.54498 0.839 0.0
C284 C 0.69212 0.56122 0.803 0.0
N285 N 0.66448 0.54285 0.80337 0.0
C286 C 0.65888 0.56602 0.87525 0.0
C287 C 0.68702 0.58492 0.87496 0.0
C288 C 0.60536 0.46511 0.81406 0.0
C289 C 0.63118 0.40932 0.66809 0.0
C290 C 0.59019 0.40493 0.73255 0.0
C291 C 0.59767 0.3846 0.7333 0.0
C292 C 0.61833 0.38687 0.70085 0.0
N293 N 0.60288 0.42688 0.7003 0.0
C294 C 0.62313 0.42923 0.66834 0.0
Co295 Co 0.14514 0.64719 0.91073 0.0
Co296 Co 0.14515 0.58954 0.86204 0.0
O297 O 0.1583 0.62932 0.8629 0.0
C298 C 0.20637 0.67988 0.92916 0.0
O299 O 0.20755 0.65705 0.9304 0.0
C300 C 0.13373 0.59932 0.75604 0.0
O301 O 0.12489 0.61557 0.77309 0.0
O302 O 0.10568 0.5803 0.86495 0.0
O303 O 0.10637 0.61677 0.90181 0.0
H304 H 0.08762 0.49203 0.9227 0.0
H305 H 0.1799 0.67814 0.82315 0.0
O306 O 0.18354 0.67897 0.92073 0.0
H307 H 0.09349 0.67996 0.80089 0.0
H308 H 0.14142 0.72777 0.98723 0.0
H309 H 0.10497 0.6275 -0.00468 0.0
H310 H 0.10011 0.65705 0.87511 0.0
H311 H 0.15746 0.70506 0.92696 0.0
O312 O 0.14319 0.58848 0.78646 0.0
H313 H 0.10493 0.54207 0.92311 0.0
H314 H 0.15753 0.55271 0.79863 0.0
H315 H 0.08817 0.64933 0.05608 0.0
H316 H 0.17431 0.70157 0.74858 0.0
H317 H 0.10644 0.69984 0.05227 0.0
H318 H 0.13081 0.70249 0.73699 0.0
O319 O 0.15009 0.62762 0.96999 0.0
H320 H 0.24231 0.64136 0.79753 0.0
H321 H 0.1786 0.56887 0.91452 0.0
H322 H 0.22738 0.58111 0.91242 0.0
H323 H 0.25961 0.6176 0.8535 0.0
H324 H 0.19341 0.62865 0.80143 0.0
H325 H 0.14058 0.50276 0.79652 0.0
H326 H 0.10546 0.47207 0.85903 0.0
O327 O 0.1472 0.58916 0.93719 0.0
C328 C 0.09351 0.59263 0.88274 0.0
C329 C 0.10298 0.5052 0.89536 0.0
C330 C 0.13267 0.51122 0.8245 0.0
N331 N 0.13233 0.55032 0.86115 0.0
C332 C 0.11292 0.53356 0.89551 0.0
C333 C 0.14213 0.53948 0.82577 0.0
C334 C 0.11298 0.49401 0.85959 0.0
C335 C 0.16099 0.67862 0.81854 0.0
N336 N 0.14033 0.66618 0.85342 0.0
C337 C 0.15791 0.69185 0.77616 0.0
C338 C 0.13348 0.69232 0.76965 0.0
C339 C 0.11253 0.67966 0.80546 0.0
C340 C 0.11633 0.66659 0.84731 0.0
C341 C 0.13331 0.70575 0.98929 0.0
C342 C 0.11295 0.64947 0.99334 0.0
C343 C 0.1424 0.69279 0.95539 0.0
N344 N 0.13215 0.66497 0.95761 0.0
C345 C 0.10339 0.66173 0.02788 0.0
C346 C 0.11367 0.69006 0.02575 0.0
C347 C 0.14979 0.60476 0.97445 0.0
C348 C 0.22849 0.62548 0.82346 0.0
C349 C 0.19257 0.585 0.88935 0.0
C350 C 0.22013 0.59172 0.88803 0.0
C351 C 0.23819 0.61216 0.8549 0.0
N352 N 0.18324 0.59826 0.85864 0.0
C353 C 0.20078 0.61818 0.82581 0.0
Co354 Co 0.87896 0.50702 0.8378 0.0
Co355 Co 0.87568 0.44554 0.86996 0.0
O356 O 0.86445 0.47321 0.87738 0.0
C357 C 0.81915 0.47652 0.8164 0.0
O358 O 0.82189 0.4547 0.81158 0.0
C359 C 0.88727 0.46422 0.97658 0.0
O360 O 0.89749 0.48934 0.95888 0.0
O361 O 0.91533 0.47423 0.86781 0.0
O362 O 0.91779 0.51445 0.84753 0.0
H363 H 0.92769 0.40307 0.79245 0.0
H364 H 0.84147 0.49779 0.9243 0.0
O365 O 0.84016 0.49982 0.82711 0.0
H366 H 0.9278 0.58285 0.96644 0.0
H367 H 0.88272 0.59471 0.78179 0.0
H368 H 0.9219 0.53377 0.75869 0.0
H369 H 0.92315 0.55844 0.8857 0.0
H370 H 0.86553 0.55214 0.8322 0.0
O371 O 0.87796 0.4438 0.94605 0.0
H372 H 0.9133 0.43791 0.80133 0.0
H373 H 0.86162 0.3938 0.92537 0.0
H374 H 0.93987 0.57625 0.70776 0.0
H375 H 0.84513 0.52166 0.00529 0.0
H376 H 0.92024 0.60704 0.71918 0.0
H377 H 0.88858 0.56445 0.02686 0.0
O378 O 0.87586 0.48702 0.77342 0.0
H379 H 0.77922 0.39981 0.93843 0.0
H380 H 0.8398 0.39637 0.80634 0.0
H381 H 0.79045 0.36138 0.80642 0.0
H382 H 0.7598 0.36298 0.87282 0.0
H383 H 0.82864 0.43451 0.93672 0.0
H384 H 0.87564 0.3586 0.91815 0.0
H385 H 0.90883 0.36307 0.85118 0.0
O386 O 0.87363 0.44703 0.79419 0.0
C387 C 0.929 0.49998 0.85832 0.0
C388 C 0.91316 0.40085 0.8217 0.0
C389 C 0.88397 0.37592 0.8923 0.0
N390 N 0.88653 0.41779 0.86362 0.0
C391 C 0.90488 0.42047 0.82682 0.0
C392 C 0.87617 0.39594 0.89629 0.0
C393 C 0.90259 0.37843 0.8547 0.0
C394 C 0.86034 0.51655 0.93322 0.0
N395 N 0.88204 0.52676 0.90028 0.0
C396 C 0.86233 0.52992 0.97921 0.0
C397 C 0.88674 0.5539 0.99133 0.0
C398 C 0.90875 0.56422 0.95746 0.0
C399 C 0.90603 0.55028 0.91187 0.0
C400 C 0.89149 0.58149 0.77656 0.0
C401 C 0.91341 0.54719 0.76411 0.0
C402 C 0.88181 0.55735 0.80491 0.0
N403 N 0.89289 0.54065 0.79867 0.0
C404 C 0.92359 0.57116 0.73506 0.0
C405 C 0.91255 0.58841 0.74145 0.0
C406 C 0.87402 0.46407 0.76154 0.0
C407 C 0.79238 0.39885 0.9094 0.0
C408 C 0.82659 0.3972 0.83536 0.0
C409 C 0.79867 0.37731 0.83525 0.0
C410 C 0.78149 0.37821 0.87253 0.0
N411 N 0.83711 0.41737 0.87167 0.0
C412 C 0.82041 0.41836 0.90838 0.0
Co413 Co 0.37691 0.87667 0.00533 0.0
Co414 Co 0.4404 0.88294 0.03174 0.0
O415 O 0.40055 0.86594 0.04213 0.0
C416 C 0.35143 0.8167 0.98277 0.0
O417 O 0.37639 0.82088 0.97549 0.0
C418 C 0.43472 0.88864 0.14203 0.0
O419 O 0.41526 0.89449 0.13216 0.0
O420 O 0.4454 0.92068 0.03679 0.0
O421 O 0.405 0.91681 0.01377 0.0
H422 H 0.53118 0.94957 0.95271 0.0
H423 H 0.35444 0.83856 0.09275 0.0
O424 O 0.34799 0.83671 -0.00401 0.0
H425 H 0.34507 0.91879 0.13929 0.0
H426 H 0.28645 0.86965 0.95917 0.0
H427 H 0.38634 0.91811 0.92635 0.0
H428 H 0.36459 0.91693 0.0564 0.0
H429 H 0.3167 0.85703 0.00596 0.0
O430 O 0.44656 0.88329 0.1063 0.0
H431 H 0.48105 0.92759 0.96586 0.0
H432 H 0.48442 0.87438 0.07695 0.0
H433 H 0.35689 0.93158 0.87901 0.0
H434 H 0.33457 0.83944 0.17592 0.0
H435 H 0.30655 0.90725 0.89531 0.0
H436 H 0.32986 0.87982 0.19969 0.0
O437 O 0.39331 0.87539 0.93886 0.0
H438 H 0.40318 0.78492 0.08732 0.0
H439 H 0.45971 0.85485 0.95976 0.0
H440 H 0.45248 0.80782 0.95206 0.0
H441 H 0.42404 0.77247 0.01619 0.0
H442 H 0.41074 0.83215 0.09326 0.0
H443 H 0.53462 0.89593 0.06529 0.0
H444 H 0.55831 0.93375 0.00266 0.0
O445 O 0.43559 0.88286 0.95718 0.0
C446 C 0.43023 0.93115 0.0272 0.0
C447 C 0.52109 0.93305 0.98 0.0
C448 C 0.52302 0.90297 0.04323 0.0
N449 N 0.4798 0.89959 0.02184 0.0
C450 C 0.4927 0.92048 0.9875 0.0
C451 C 0.4946 0.89088 0.04974 0.0
C452 C 0.5363 0.92418 0.00807 0.0
C453 C 0.35224 0.85609 0.10269 0.0
N454 N 0.36065 0.87766 0.06977 0.0
C455 C 0.34107 0.85652 0.14989 0.0
C456 C 0.33848 0.8792 0.16324 0.0
C457 C 0.34703 0.90109 0.12939 0.0
C458 C 0.35816 0.89997 0.08257 0.0
C459 C 0.30836 0.88044 0.9518 0.0
C460 C 0.36448 0.90757 0.93388 0.0
C461 C 0.32558 0.87335 0.9781 0.0
N462 N 0.35328 0.88698 0.96913 0.0
C463 C 0.3479 0.91523 0.90686 0.0
C464 C 0.31965 0.90155 0.91599 0.0
C465 C 0.41671 0.87881 0.92571 0.0
C466 C 0.41565 0.80015 0.05919 0.0
C467 C 0.44723 0.83957 0.98769 0.0
C468 C 0.44327 0.81299 0.98322 0.0
C469 C 0.42733 0.79317 0.01924 0.0
N470 N 0.43569 0.84626 0.02697 0.0
C471 C 0.42009 0.82696 0.06248 0.0
Co472 Co 0.50856 0.37766 0.16107 0.0
Co473 Co 0.5676 0.43162 0.21358 0.0
O474 O 0.53892 0.39269 0.21045 0.0
C475 C 0.53433 0.34266 0.14319 0.0
O476 O 0.55853 0.36518 0.14217 0.0
C477 C 0.54627 0.42192 0.31877 0.0
O478 O 0.521 0.40797 0.30122 0.0
O479 O 0.53949 0.44354 0.21288 0.0
O480 O 0.503 0.41013 0.17123 0.0
H481 H 0.61382 0.53114 0.1618 0.0
H482 H 0.50835 0.34402 0.24805 0.0
O483 O 0.51269 0.34426 0.1505 0.0
H484 H 0.42324 0.34873 0.26571 0.0
H485 H 0.42314 0.30213 0.07778 0.0
H486 H 0.49176 0.40127 0.07705 0.0
H487 H 0.45463 0.3712 0.19363 0.0
H488 H 0.46105 0.3215 0.14025 0.0
O489 O 0.56672 0.43111 0.28892 0.0
H490 H 0.5783 0.48199 0.15784 0.0
H491 H 0.61786 0.46395 0.27728 0.0
H492 H 0.45404 0.38281 0.01416 0.0
H493 H 0.47739 0.32094 0.32048 0.0
H494 H 0.4194 0.33289 0.01428 0.0
H495 H 0.43453 0.3233 0.32975 0.0
O496 O 0.53445 0.39677 0.10328 0.0
H497 H 0.60765 0.37371 0.27212 0.0
H498 H 0.6196 0.44805 0.15638 0.0
H499 H 0.65347 0.43219 0.15518 0.0
H500 H 0.64761 0.39476 0.2134 0.0
H501 H 0.57414 0.39007 0.27175 0.0
H502 H 0.65366 0.51293 0.28282 0.0
H503 H 0.65183 0.54689 0.22467 0.0
O504 O 0.56988 0.43388 0.13896 0.0
C505 C 0.51554 0.4336 0.19324 0.0
C506 C 0.61488 0.51653 0.18725 0.0
C507 C 0.63723 0.50632 0.2552 0.0
N508 N 0.59608 0.47009 0.21707 0.0
C509 C 0.59487 0.48866 0.18511 0.0
C510 C 0.61686 0.47861 0.25195 0.0
C511 C 0.63619 0.52536 0.22256 0.0
C512 C 0.48966 0.34501 0.2517 0.0
N513 N 0.48336 0.35905 0.21676 0.0
C514 C 0.47224 0.33196 0.29284 0.0
C515 C 0.44821 0.33332 0.29805 0.0
C516 C 0.44188 0.34761 0.26218 0.0
C517 C 0.45981 0.36043 0.22157 0.0
C518 C 0.43809 0.32392 0.07738 0.0
C519 C 0.47667 0.37956 0.07751 0.0
C520 C 0.45964 0.33499 0.11257 0.0
N521 N 0.4785 0.36252 0.11246 0.0
C522 C 0.4554 0.36921 0.04173 0.0
C523 C 0.43599 0.34119 0.04178 0.0
C524 C 0.55721 0.41947 0.10045 0.0
C525 C 0.61046 0.39007 0.24665 0.0
C526 C 0.61685 0.4317 0.18169 0.0
C527 C 0.63614 0.42285 0.18094 0.0
C528 C 0.63285 0.40187 0.21364 0.0
N529 N 0.59494 0.42003 0.21419 0.0
C530 C 0.59161 0.39947 0.2464 0.0
Co531 Co 0.13409 0.50234 0.31772 0.0
Co532 Co 0.13077 0.55694 0.36948 0.0
O533 O 0.14685 0.5328 0.36659 0.0
C534 C 0.19539 0.53009 0.301 0.0
O535 O 0.19687 0.55415 0.29673 0.0
C536 C 0.1277 0.54052 0.47726 0.0
O537 O 0.11812 0.51495 0.46235 0.0
O538 O 0.09316 0.52454 0.37673 0.0
O539 O 0.095 0.49398 0.32414 0.0
H540 H 0.06175 0.58594 0.32498 0.0
H541 H 0.16697 0.50442 0.40734 0.0
O542 O 0.17242 0.50858 0.31026 0.0
H543 H 0.08014 0.41599 0.42142 0.0
H544 H 0.13073 0.41881 0.23821 0.0
H545 H 0.09594 0.48403 0.22982 0.0
H546 H 0.08829 0.44686 0.34877 0.0
H547 H 0.14591 0.45646 0.30077 0.0
O548 O 0.1348 0.55967 0.44485 0.0
H549 H 0.08294 0.55657 0.32045 0.0
H550 H 0.14417 0.60817 0.42689 0.0
H551 H 0.07998 0.44649 0.16678 0.0
H552 H 0.15987 0.47401 0.4804 0.0
H553 H 0.09743 0.41356 0.17073 0.0
H554 H 0.11615 0.42948 0.48787 0.0
O555 O 0.14052 0.52821 0.2603 0.0
H556 H 0.23167 0.61346 0.4091 0.0
H557 H 0.15593 0.60703 0.30359 0.0
H558 H 0.20284 0.64636 0.29227 0.0
H559 H 0.2411 0.64978 0.34533 0.0
H560 H 0.18445 0.57433 0.41887 0.0
H561 H 0.12352 0.63798 0.43285 0.0
H562 H 0.08206 0.62698 0.38152 0.0
O563 O 0.12621 0.55556 0.29446 0.0
C564 C 0.08161 0.50201 0.35173 0.0
C565 C 0.07987 0.591 0.34741 0.0
C566 C 0.11452 0.62019 0.40799 0.0
N567 N 0.11488 0.58075 0.37308 0.0
C568 C 0.092 0.57449 0.34491 0.0
C569 C 0.12609 0.6032 0.40452 0.0
C570 C 0.09126 0.61401 0.37918 0.0
C571 C 0.14796 0.48499 0.41018 0.0
N572 N 0.128 0.47748 0.3739 0.0
C573 C 0.14403 0.4679 0.4517 0.0
C574 C 0.11948 0.44293 0.4559 0.0
C575 C 0.09925 0.43537 0.41868 0.0
C576 C 0.1039 0.45301 0.37773 0.0
C577 C 0.12298 0.43302 0.23609 0.0
C578 C 0.10354 0.46972 0.23191 0.0
C579 C 0.13159 0.45446 0.27129 0.0
N580 N 0.12178 0.4724 0.26903 0.0
C581 C 0.09447 0.44853 0.19605 0.0
C582 C 0.10428 0.43008 0.19826 0.0
C583 C 0.13352 0.54662 0.25657 0.0
C584 C 0.21516 0.61223 0.38586 0.0
C585 C 0.17248 0.60832 0.32673 0.0
C586 C 0.19899 0.63068 0.32022 0.0
C587 C 0.22044 0.63259 0.35002 0.0
N588 N 0.16746 0.58846 0.36202 0.0
C589 C 0.18838 0.59018 0.39134 0.0
Co590 Co 0.64373 0.12715 0.48035 0.0
Co591 Co 0.5887 0.12876 0.53598 0.0
O592 O 0.62785 0.14024 0.53206 0.0
C593 C 0.67666 0.18804 0.46796 0.0
O594 O 0.65358 0.18872 0.46826 0.0
C595 C 0.57373 0.10848 0.64037 0.0
O596 O 0.55354 0.08594 0.62026 0.0
O597 O 0.57837 0.08916 0.53232 0.0
O598 O 0.61208 0.08873 0.48693 0.0
H599 H 0.48899 0.07285 0.48647 0.0
H600 H 0.6767 0.15849 0.5697 0.0
O601 O 0.67619 0.1652 0.47302 0.0
H602 H 0.67498 0.06966 0.57583 0.0
H603 H 0.721 0.1223 0.39249 0.0
H604 H 0.62135 0.08929 0.39224 0.0
H605 H 0.65157 0.07963 0.50664 0.0
H606 H 0.70051 0.13798 0.45817 0.0
O607 O 0.59099 0.12774 0.61182 0.0
H608 H 0.53842 0.0878 0.48171 0.0
H609 H 0.55564 0.14593 0.59994 0.0
H610 H 0.64094 0.07287 0.32611 0.0
H611 H 0.70068 0.14953 0.63935 0.0
H612 H 0.69112 0.08941 0.32597 0.0
H613 H 0.69986 0.10482 0.64276 0.0
O614 O 0.62436 0.13504 0.42479 0.0
H615 H 0.64369 0.22605 0.60005 0.0
H616 H 0.57103 0.16405 0.48089 0.0
H617 H 0.58528 0.21339 0.48263 0.0
H618 H 0.62182 0.24476 0.5426 0.0
H619 H 0.62903 0.17661 0.59671 0.0
H620 H 0.50639 0.13161 0.60597 0.0
H621 H 0.47269 0.0948 0.54898 0.0
O622 O 0.58579 0.12966 0.46109 0.0
C623 C 0.58889 0.07646 0.50963 0.0
C624 C 0.50348 0.08893 0.51147 0.0
C625 C 0.51325 0.12192 0.57851 0.0
N626 N 0.54992 0.11776 0.54039 0.0
C627 C 0.53149 0.09749 0.50893 0.0
C628 C 0.54111 0.12997 0.57486 0.0
C629 C 0.49435 0.10126 0.54655 0.0
C630 C 0.67634 0.13902 0.57085 0.0
N631 N 0.66269 0.11957 0.5342 0.0
C632 C 0.68991 0.13405 0.61042 0.0
C633 C 0.68943 0.10895 0.61233 0.0
C634 C 0.67544 0.0892 0.57483 0.0
C635 C 0.66209 0.0949 0.53586 0.0
C636 C 0.6991 0.11492 0.39219 0.0
C637 C 0.64318 0.09645 0.39259 0.0
C638 C 0.68739 0.12379 0.42919 0.0
N639 N 0.65973 0.11443 0.42919 0.0
C640 C 0.65416 0.08714 0.35498 0.0
C641 C 0.68232 0.09645 0.35489 0.0
C642 C 0.60096 0.13366 0.42252 0.0
C643 C 0.62768 0.21257 0.57388 0.0
C644 C 0.58702 0.17756 0.50699 0.0
C645 C 0.59495 0.20548 0.50789 0.0
C646 C 0.61543 0.22306 0.54157 0.0
N647 N 0.59907 0.16739 0.53891 0.0
C648 C 0.6192 0.18453 0.57198 0.0
Co649 Co 0.50459 0.63315 0.66436 0.0
Co650 Co 0.44348 0.57468 0.6966 0.0
O651 O 0.47067 0.61373 0.70363 0.0
C652 C 0.47369 0.66193 0.6417 0.0
O653 O 0.45195 0.63735 0.63702 0.0
C654 C 0.46187 0.58203 0.80338 0.0
O655 O 0.48694 0.59738 0.7859 0.0
O656 O 0.47257 0.56421 0.69535 0.0
O657 O 0.51252 0.60228 0.67548 0.0
H658 H 0.40263 0.47995 0.62052 0.0
H659 H 0.49437 0.66142 0.74985 0.0
O660 O 0.497 0.66435 0.65252 0.0
H661 H 0.58013 0.66196 0.79412 0.0
H662 H 0.59184 0.71723 0.60811 0.0
H663 H 0.53208 0.61691 0.58662 0.0
H664 H 0.5562 0.64156 0.71332 0.0
H665 H 0.54917 0.69184 0.65811 0.0
O666 O 0.44155 0.57089 0.77269 0.0
H667 H 0.43685 0.52933 0.62899 0.0
H668 H 0.39175 0.53681 0.7516 0.0
H669 H 0.57467 0.64144 0.53613 0.0
H670 H 0.51775 0.68228 0.83087 0.0
H671 H 0.60487 0.69197 0.54674 0.0
H672 H 0.56089 0.68253 0.85353 0.0
O673 O 0.48497 0.61563 0.59987 0.0
H674 H 0.39633 0.62464 0.76295 0.0
H675 H 0.39441 0.56059 0.6321 0.0
H676 H 0.35895 0.57438 0.63106 0.0
H677 H 0.35978 0.60664 0.69683 0.0
H678 H 0.4315 0.61045 0.76236 0.0
H679 H 0.35716 0.48744 0.74477 0.0
H680 H 0.36243 0.45869 0.67871 0.0
O681 O 0.4452 0.57781 0.62086 0.0
C682 C 0.49838 0.57667 0.68651 0.0
C683 C 0.40006 0.49227 0.64937 0.0
C684 C 0.37456 0.49647 0.71915 0.0
N685 N 0.4162 0.53595 0.69053 0.0
C686 C 0.41933 0.52026 0.65425 0.0
C687 C 0.39424 0.52439 0.72292 0.0
C688 C 0.37753 0.48036 0.68206 0.0
C689 C 0.51328 0.6617 0.75924 0.0
N690 N 0.52395 0.65035 0.72686 0.0
C691 C 0.52637 0.67344 0.80525 0.0
C692 C 0.55055 0.67353 0.81797 0.0
C693 C 0.56134 0.66198 0.78468 0.0
C694 C 0.54767 0.65039 0.73905 0.0
C695 C 0.57888 0.6952 0.60323 0.0
C696 C 0.54523 0.63887 0.59169 0.0
C697 C 0.55468 0.68073 0.63135 0.0
N698 N 0.5383 0.6529 0.62556 0.0
C699 C 0.56927 0.65266 0.56289 0.0
C700 C 0.58618 0.68101 0.56882 0.0
C701 C 0.46227 0.59424 0.58809 0.0
C702 C 0.3957 0.6105 0.73419 0.0
C703 C 0.39491 0.57463 0.66085 0.0
C704 C 0.37475 0.58234 0.66011 0.0
C705 C 0.37522 0.60043 0.69704 0.0
N706 N 0.41491 0.58459 0.69743 0.0
C707 C 0.41549 0.6023 0.73381 0.0
H708 H 0.5381 0.14183 0.23057 0.0
H709 H 0.61639 0.16557 0.1601 0.0
H710 H 0.63492 0.16177 0.24148 0.0
H711 H 0.62842 0.1498 0.33213 0.0
H712 H 0.5498 0.12564 0.40179 0.0
H713 H 0.53208 0.13142 0.3213 0.0
C714 C 0.55932 0.1465 0.23302 0.0
C715 C 0.57572 0.15392 0.18915 0.0
C716 C 0.56982 0.14393 0.27981 0.0
C717 C 0.60318 0.15976 0.19317 0.0
C718 C 0.61384 0.1575 0.23972 0.0
C719 C 0.60742 0.14578 0.32971 0.0
C720 C 0.59054 0.13718 0.37303 0.0
C721 C 0.59722 0.1492 0.28316 0.0
C722 C 0.56337 0.13226 0.36917 0.0
C723 C 0.55314 0.13558 0.32309 0.0
H724 H 0.45092 0.58391 0.34895 0.0
H725 H 0.37417 0.51162 0.38951 0.0
H726 H 0.38492 0.52208 0.47936 0.0
H727 H 0.41613 0.55133 0.54655 0.0
H728 H 0.49294 0.62355 0.50608 0.0
H729 H 0.48197 0.61339 0.41619 0.0
C730 C 0.43646 0.57042 0.37733 0.0
C731 C 0.41175 0.547 0.36217 0.0
C732 C 0.44275 0.57649 0.4291 0.0
C733 C 0.39335 0.52981 0.39979 0.0
C734 C 0.39947 0.53575 0.45132 0.0
C735 C 0.4305 0.56494 0.51819 0.0
C736 C 0.45534 0.5882 0.53337 0.0
C737 C 0.42412 0.55899 0.46642 0.0
C738 C 0.47365 0.60551 0.49577 0.0
C739 C 0.46741 0.59972 0.44422 0.0
H740 H 0.86936 0.41738 0.71935 0.0
H741 H 0.87308 0.49409 0.68029 0.0
H742 H 0.86906 0.48208 0.59045 0.0
H743 H 0.86532 0.45034 0.52272 0.0
H744 H 0.86232 0.37397 0.56166 0.0
H745 H 0.865 0.38536 0.65166 0.0
C746 C 0.86926 0.43151 0.6913 0.0
C747 C 0.87156 0.45663 0.70686 0.0
C748 C 0.86699 0.42454 0.63952 0.0
C749 C 0.87138 0.47461 0.66968 0.0
C750 C 0.86905 0.46777 0.61816 0.0
C751 C 0.86507 0.43606 0.5508 0.0
C752 C 0.86364 0.41134 0.53516 0.0
C753 C 0.86692 0.44283 0.60262 0.0
C754 C 0.86345 0.39319 0.57236 0.0
C755 C 0.86502 0.39968 0.62396 0.0
H756 H 0.41969 0.85858 0.69107 0.0
H757 H 0.50041 0.87238 0.73123 0.0
H758 H 0.49244 0.87963 0.81979 0.0
H759 H 0.46307 0.8828 0.88475 0.0
H760 H 0.38223 0.86863 0.84447 0.0
H761 H 0.39023 0.8614 0.756 0.0
C762 C 0.4356 0.86303 0.71903 0.0
C763 C 0.46065 0.86488 0.70434 0.0
C764 C 0.43103 0.86744 0.76956 0.0
C765 C 0.48091 0.8707 0.74139 0.0
C766 C 0.47643 0.87499 0.79197 0.0
C767 C 0.44708 0.8781 0.85682 0.0
C768 C 0.42198 0.87616 0.87147 0.0
C769 C 0.45164 0.87358 0.80631 0.0
C770 C 0.40172 0.87027 0.83439 0.0
C771 C 0.40623 0.86601 0.78385 0.0
H772 H 0.53776 0.39806 0.00604 0.0
H773 H 0.60613 0.46628 0.08242 0.0
H774 H 0.62747 0.48574 0.00146 0.0
H775 H 0.62651 0.48451 0.90847 0.0
H776 H 0.55764 0.41694 0.83189 0.0
H777 H 0.53718 0.39643 0.91292 0.0
C778 C 0.55737 0.41709 0.005 0.0
C779 C 0.57017 0.43048 0.05047 0.0
C780 C 0.56966 0.42851 0.95804 0.0
C781 C 0.59564 0.45528 0.04822 0.0
C782 C 0.60799 0.46658 0.00179 0.0
C783 C 0.60714 0.46522 0.90948 0.0
C784 C 0.59384 0.45241 0.86396 0.0
C785 C 0.59513 0.4535 0.95641 0.0
C786 C 0.56858 0.4274 0.86616 0.0
C787 C 0.55669 0.41556 0.91262 0.0
H788 H 0.15795 0.54363 0.16883 0.0
H789 H 0.11101 0.57848 0.23238 0.0
H790 H 0.11372 0.60132 0.15238 0.0
H791 H 0.12859 0.6109 0.06323 0.0
H792 H 0.17491 0.57565 -0.00053 0.0
H793 H 0.17357 0.55395 0.08031 0.0
C794 C 0.14818 0.55608 0.16509 0.0
C795 C 0.13427 0.55917 0.20664 0.0
C796 C 0.14989 0.56939 0.11885 0.0
C797 C 0.12193 0.57565 0.20114 0.0
C798 C 0.12349 0.58885 0.15534 0.0
C799 C 0.1387 0.59879 0.06736 0.0
C800 C 0.15169 0.59478 0.02536 0.0
C801 C 0.13745 0.58592 0.11391 0.0
C802 C 0.16447 0.57879 0.03104 0.0
C803 C 0.16372 0.56634 0.07732 0.0
H804 H 0.57553 0.33052 0.12861 0.0
H805 H 0.48719 0.29247 0.14042 0.0
H806 H 0.48241 0.2472 0.1272 0.0
H807 H 0.50314 0.21802 0.11198 0.0
H808 H 0.59148 0.25608 0.10044 0.0
H809 H 0.59626 0.30135 0.11374 0.0
C810 C 0.55522 0.31235 0.12829 0.0
C811 C 0.5318 0.3151 0.13547 0.0
C812 C 0.55253 0.28618 0.12067 0.0
C813 C 0.50565 0.29116 0.13501 0.0
C814 C 0.50285 0.26515 0.12741 0.0
C815 C 0.52344 0.2362 0.11236 0.0
C816 C 0.54688 0.23347 0.10526 0.0
C817 C 0.52612 0.26236 0.12013 0.0
C818 C 0.57302 0.25738 0.10593 0.0
C819 C 0.57581 0.28339 0.11351 0.0
H820 H 0.28531 0.49495 0.26654 0.0
H821 H 0.33882 0.58306 0.26053 0.0
H822 H 0.29945 0.58983 0.2743 0.0
H823 H 0.24943 0.57059 0.28811 0.0
H824 H 0.19685 0.48228 0.29616 0.0
H825 H 0.23607 0.47592 0.28168 0.0
C826 C 0.2884 0.51566 0.2681 0.0
C827 C 0.31503 0.53842 0.26238 0.0
C828 C 0.26573 0.51944 0.27653 0.0
C829 C 0.31858 0.56511 0.26492 0.0
C830 C 0.29604 0.56902 0.27276 0.0
C831 C 0.24657 0.54998 0.28673 0.0
C832 C 0.22004 0.52701 0.29316 0.0
C833 C 0.26946 0.54633 0.27867 0.0
C834 C 0.21687 0.50043 0.29142 0.0
C835 C 0.23936 0.49669 0.28304 0.0
H836 H 0.6868 0.24107 0.46127 0.0
H837 H 0.72718 0.19256 0.45793 0.0
H838 H 0.77142 0.234 0.44445 0.0
H839 H 0.79895 0.28406 0.43336 0.0
H840 H 0.75903 0.33294 0.4377 0.0
H841 H 0.71456 0.29143 0.45089 0.0
C842 C 0.70527 0.23955 0.45759 0.0
C843 C 0.70352 0.21363 0.46055 0.0
C844 C 0.73085 0.26359 0.44995 0.0
C845 C 0.72777 0.21216 0.45587 0.0
C846 C 0.75317 0.23589 0.44807 0.0
C847 C 0.78053 0.28566 0.4371 0.0
C848 C 0.78241 0.31163 0.43452 0.0
C849 C 0.75498 0.26171 0.44497 0.0
C850 C 0.75828 0.31326 0.43968 0.0
C851 C 0.73277 0.2895 0.44718 0.0
H852 H 0.44178 0.75461 0.61106 0.0
H853 H 0.53018 0.80543 0.60276 0.0
H854 H 0.53523 0.76515 0.61667 0.0
H855 H 0.51468 0.71532 0.63068 0.0
H856 H 0.42626 0.66424 0.6367 0.0
H857 H 0.4212 0.70466 0.62434 0.0
C858 C 0.46215 0.7569 0.61245 0.0
C859 C 0.48553 0.78309 0.60594 0.0
C860 C 0.46496 0.73353 0.62003 0.0
C861 C 0.51177 0.78557 0.60749 0.0
C862 C 0.51472 0.76251 0.61554 0.0
C863 C 0.4943 0.71303 0.62943 0.0
C864 C 0.47091 0.68673 0.63462 0.0
C865 C 0.49148 0.73637 0.62179 0.0
C866 C 0.44465 0.68418 0.6326 0.0
C867 C 0.44171 0.70732 0.6256 0.0
H868 H 0.69481 0.44463 0.7816 0.0
H869 H 0.73202 0.53321 0.78056 0.0
H870 H 0.77712 0.53815 0.79529 0.0
H871 H 0.80648 0.51759 0.80817 0.0
H872 H 0.76966 0.42908 0.80783 0.0
H873 H 0.7243 0.42401 0.79417 0.0
C874 C 0.71277 0.46501 0.78464 0.0
C875 C 0.70982 0.48845 0.77998 0.0
C876 C 0.7389 0.46781 0.79294 0.0
C877 C 0.73347 0.51471 0.78388 0.0
C878 C 0.7594 0.51763 0.7924 0.0
C879 C 0.78853 0.49719 0.80527 0.0
C880 C 0.79159 0.4738 0.80902 0.0
C881 C 0.76241 0.49435 0.79699 0.0
C882 C 0.76804 0.44751 0.80491 0.0
C883 C 0.742 0.44455 0.79712 0.0
H884 H 0.26029 0.69234 0.93954 0.0
H885 H 0.20856 0.7292 0.94191 0.0
H886 H 0.24828 0.77402 0.95978 0.0
H887 H 0.29773 0.80325 0.97454 0.0
H888 H 0.3504 0.76759 0.97011 0.0
H889 H 0.31049 0.72214 0.95351 0.0
C890 C 0.25771 0.71017 0.94398 0.0
C891 C 0.23128 0.70716 0.93934 0.0
C892 C 0.28089 0.73626 0.95403 0.0
C893 C 0.22849 0.73066 0.94507 0.0
C894 C 0.25127 0.75644 0.95544 0.0
C895 C 0.30053 0.78555 0.9702 0.0
C896 C 0.3271 0.78893 0.97377 0.0
C897 C 0.27755 0.75952 0.96004 0.0
C898 C 0.33024 0.76568 0.96752 0.0
C899 C 0.30738 0.73963 0.95802 0.0
H900 H 0.52931 0.08645 0.70218 0.0
H901 H 0.61663 0.14408 0.6998 0.0
H902 H 0.61483 0.15658 0.78826 0.0
H903 H 0.58835 0.1517 0.86521 0.0
H904 H 0.50064 0.09533 0.86677 0.0
H905 H 0.50264 0.08207 0.77904 0.0
C906 C 0.54801 0.10145 0.72129 0.0
C907 C 0.57314 0.11409 0.69489 0.0
C908 C 0.54667 0.10905 0.77154 0.0
C909 C 0.5971 0.13396 0.71961 0.0
C910 C 0.59605 0.14119 0.77 0.0
C911 C 0.56961 0.13657 0.84638 0.0
C912 C 0.54438 0.12449 0.87254 0.0
C913 C 0.57091 0.12903 0.79612 0.0
C914 C 0.52031 0.10503 0.84744 0.0
C915 C 0.52146 0.09731 0.7974 0.0
H916 H 0.4175 0.54116 0.85195 0.0
H917 H 0.49602 0.61411 0.87917 0.0
H918 H 0.48857 0.60793 0.97084 0.0
H919 H 0.45992 0.5816 0.04344 0.0
H920 H 0.38258 0.50726 0.01622 0.0
H921 H 0.38939 0.5142 0.92453 0.0
C922 C 0.43294 0.55574 0.87798 0.0
C923 C 0.45723 0.57808 0.8588 0.0
C924 C 0.42875 0.5518 0.93067 0.0
C925 C 0.47718 0.59665 0.89297 0.0
C926 C 0.47292 0.59318 0.94541 0.0
C927 C 0.44453 0.56698 0.0174 0.0
C928 C 0.42076 0.544 0.03657 0.0
C929 C 0.44881 0.57081 0.9647 0.0
C930 C 0.40112 0.52507 0.0024 0.0
C931 C 0.40496 0.52904 0.94996 0.0
H932 H 0.88305 0.41991 0.02674 0.0
H933 H 0.88744 0.49821 0.05092 0.0
H934 H 0.88355 0.49036 0.14266 0.0
H935 H 0.87923 0.46133 0.21632 0.0
H936 H 0.87797 0.38451 0.19223 0.0
H937 H 0.88021 0.39163 0.10035 0.0
C938 C 0.88312 0.43522 0.05213 0.0
C939 C 0.88548 0.45956 0.03209 0.0
C940 C 0.88141 0.43082 0.1049 0.0
C941 C 0.8858 0.47935 0.06544 0.0
C942 C 0.88348 0.47485 0.1179 0.0
C943 C 0.87931 0.44612 0.19086 0.0
C944 C 0.87831 0.42239 0.21093 0.0
C945 C 0.88129 0.45067 0.13808 0.0
C946 C 0.8788 0.403 0.17764 0.0
C947 C 0.88005 0.40703 0.12511 0.0
H948 H 0.48653 0.88329 0.35097 0.0
H949 H 0.40431 0.85851 0.40249 0.0
H950 H 0.39121 0.86392 0.31672 0.0
H951 H 0.40305 0.87567 0.22669 0.0
H952 H 0.48457 0.89817 0.17468 0.0
H953 H 0.49805 0.89397 0.26096 0.0
C954 C 0.46574 0.87904 0.3434 0.0
C955 C 0.44649 0.87056 0.38302 0.0
C956 C 0.45824 0.88197 0.29392 0.0
C957 C 0.41955 0.86495 0.37258 0.0
C958 C 0.41203 0.86816 0.32358 0.0
C959 C 0.42381 0.87987 0.23449 0.0
C960 C 0.44284 0.88736 0.19469 0.0
C961 C 0.43123 0.87675 0.28397 0.0
C962 C 0.46956 0.89233 0.20489 0.0
C963 C 0.47728 0.88992 0.25414 0.0
H964 H 0.55811 0.43452 0.55632 0.0
H965 H 0.63285 0.50838 0.51413 0.0
H966 H 0.62099 0.4977 0.424 0.0
H967 H 0.59021 0.46656 0.35821 0.0
H968 H 0.51463 0.3936 0.40044 0.0
H969 H 0.52597 0.40486 0.49057 0.0
C970 C 0.57187 0.44826 0.5274 0.0
C971 C 0.59655 0.47199 0.54155 0.0
C972 C 0.56475 0.44214 0.47615 0.0
C973 C 0.61384 0.48998 0.50392 0.0
C974 C 0.60708 0.48383 0.45259 0.0
C975 C 0.57623 0.45306 0.38715 0.0
C976 C 0.55181 0.42904 0.37298 0.0
C977 C 0.58275 0.45983 0.43841 0.0
C978 C 0.53355 0.41211 0.41065 0.0
C979 C 0.54008 0.41852 0.46199 0.0
H980 H 0.12816 0.5852 0.51773 0.0
H981 H 0.1292 0.51115 0.55892 0.0
H982 H 0.13133 0.52316 0.649 0.0
H983 H 0.13308 0.55469 0.71534 0.0
H984 H 0.13 0.62773 0.6746 0.0
H985 H 0.12833 0.61599 0.58438 0.0
C986 C 0.129 0.57173 0.54638 0.0
C987 C 0.1288 0.54742 0.53173 0.0
C988 C 0.12976 0.57854 0.59789 0.0
C989 C 0.12937 0.52995 0.56929 0.0
C990 C 0.13062 0.53684 0.6207 0.0
C991 C 0.13216 0.56815 0.68677 0.0
C992 C 0.13193 0.59222 0.70155 0.0
C993 C 0.13087 0.56109 0.63533 0.0
C994 C 0.13021 0.60913 0.66413 0.0
C995 C 0.12933 0.60245 0.61264 0.0
H996 H 0.46494 0.05751 0.04604 0.0
H997 H 0.54559 0.06561 0.05259 0.0
H998 H 0.5251 0.01575 0.04659 0.0
H999 H 0.48455 0.9698 0.03804 0.0
H1000 H 0.40386 0.96138 0.02705 0.0
H1001 H 0.42409 0.01117 0.03608 0.0
C1002 C 0.47801 0.04835 0.04651 0.0
C1003 C 0.50681 0.06541 0.04994 0.0
C1004 C 0.4661 0.01951 0.04202 0.0
C1005 C 0.5234 0.0531 0.04984 0.0
C1006 C 0.5117 0.02452 0.04644 0.0
C1007 C 0.47129 0.97876 0.03776 0.0
C1008 C 0.44261 0.96161 0.03218 0.0
C1009 C 0.4831 0.00752 0.04223 0.0
C1010 C 0.42595 0.97387 0.03141 0.0
C1011 C 0.43753 1.00244 0.03662 0.0
H1012 H 0.46052 0.41549 0.18382 0.0
H1013 H 0.53868 0.48894 0.21077 0.0
H1014 H 0.51565 0.51608 0.21698 0.0
H1015 H 0.47334 0.51902 0.21523 0.0
H1016 H 0.3949 0.44508 0.1938 0.0
H1017 H 0.41802 0.41808 0.18543 0.0
C1018 C 0.47258 0.4374 0.19109 0.0
C1019 C 0.50138 0.45005 0.19672 0.0
C1020 C 0.45912 0.45283 0.19577 0.0
C1021 C 0.51652 0.47855 0.20638 0.0
C1022 C 0.50336 0.49413 0.2099 0.0
C1023 C 0.46126 0.497 0.20863 0.0
C1024 C 0.43236 0.48418 0.20482 0.0
C1025 C 0.47467 0.48149 0.20474 0.0
C1026 C 0.4171 0.45554 0.19694 0.0
C1027 C 0.43034 0.44007 0.19202 0.0
H1028 H 0.04403 0.51451 0.39104 0.0
H1029 H 0.05046 0.44904 0.31726 0.0
H1030 H 1.00096 0.41884 0.32381 0.0
H1031 H 0.95532 0.41088 0.34936 0.0
H1032 H 0.94835 0.47751 0.41587 0.0
H1033 H 0.9983 0.50722 0.4132 0.0
C1034 C 0.03466 0.49362 0.37653 0.0
C1035 C 0.05123 0.48404 0.35461 0.0
C1036 C 1.00591 0.47647 0.379 0.0
C1037 C 0.03849 0.45698 0.33519 0.0
C1038 C 0.01005 0.43962 0.33871 0.0
C1039 C 0.96482 0.43185 0.36354 0.0
C1040 C 0.94823 0.44194 0.38307 0.0
C1041 C 0.99353 0.4491 0.36057 0.0
C1042 C 0.96071 0.4693 0.40055 0.0
C1043 C 0.98927 0.48629 0.39909 0.0
H1044 H 0.5462 0.94877 0.512 0.0
H1045 H 0.47221 0.94602 0.56548 0.0
H1046 H 0.49454 0.99629 0.55874 0.0
H1047 H 0.53579 0.04117 0.53981 0.0
H1048 H 0.60845 0.04251 0.48126 0.0
H1049 H 0.58591 0.99273 0.48793 0.0
C1050 C 0.53495 0.95913 0.52229 0.0
C1051 C 0.50772 0.94372 0.53978 0.0
C1052 C 0.54772 0.98785 0.51755 0.0
C1053 C 0.49323 0.95744 0.55194 0.0
C1054 C 0.50601 0.98618 0.54823 0.0
C1055 C 0.5467 0.03059 0.52846 0.0
C1056 C 0.57406 0.04584 0.51097 0.0
C1057 C 0.53337 1.00164 0.53142 0.0
C1058 C 0.5876 0.03159 0.49559 0.0
C1059 C 0.57469 1.00299 0.49927 0.0
H1060 H 0.54096 0.49121 0.69098 0.0
H1061 H 0.61403 0.56305 0.74679 0.0
H1062 H 0.59164 0.59044 0.73827 0.0
H1063 H 0.55126 0.59436 0.71528 0.0
H1064 H 0.47695 0.52206 0.66581 0.0
H1065 H 0.49979 0.49468 0.67161 0.0
C1066 C 0.55202 0.51285 0.70124 0.0
C1067 C 0.57938 0.525 0.71875 0.0
C1068 C 0.53877 0.52853 0.6974 0.0
C1069 C 0.59314 0.55305 0.73257 0.0
C1070 C 0.58032 0.56884 0.72781 0.0
C1071 C 0.54014 0.57266 0.7055 0.0
C1072 C 0.51253 0.56035 0.68977 0.0
C1073 C 0.55318 0.55686 0.71012 0.0
C1074 C 0.49823 0.53206 0.67808 0.0
C1075 C 0.51128 0.51637 0.68134 0.0
H1076 H 0.05634 0.5387 0.85927 0.0
H1077 H 0.06126 0.61557 0.90148 0.0
H1078 H 0.01157 0.59438 0.89536 0.0
H1079 H 0.96616 0.55395 0.87862 0.0
H1080 H 0.96059 0.47621 0.84231 0.0
H1081 H 0.01064 0.49772 0.84557 0.0
C1082 C 0.04658 0.55085 0.86706 0.0
C1083 C 0.06286 0.57889 0.88017 0.0
C1084 C 0.01764 0.53834 0.86458 0.0
C1085 C 0.04958 0.59409 0.89076 0.0
C1086 C 0.02099 0.58195 0.88736 0.0
C1087 C 0.9759 0.54175 0.8712 0.0
C1088 C 0.95954 0.51352 0.86001 0.0
C1089 C 1.00477 0.55412 0.87424 0.0
C1090 C 0.97259 0.49797 0.85116 0.0
C1091 C 1.00128 0.51027 0.85295 0.0
loop_
_geom_bond_atom_site_label_1
_geom_bond_atom_site_label_2
_geom_bond_distance
_geom_bond_site_symmetry_2
_ccdc_geom_bond_type
Co0 O2 2.143 . S
Co0 O8 2.074 . S
Co0 O11 2.093 . S
Co0 O24 2.097 . S
Co0 N41 2.151 . S
Co0 N49 2.214 . S
Co1 O2 2.160 . S
Co1 O7 2.058 . S
Co1 O17 2.057 1_554 S
Co1 O32 2.037 . S
Co1 N36 2.145 . S
Co1 N57 2.257 . S
O2 Co0 2.143 . S
O2 Co1 2.160 . S
C3 O4 1.278 . S
C3 O11 1.224 . S
O4 C3 1.278 . S
C5 O6 1.245 . S
C5 O17 1.232 . S
O6 C5 1.245 . S
O7 Co1 2.058 . S
O7 C33 1.269 . S
O8 Co0 2.074 . S
O8 C33 1.257 . S
H9 C34 0.930 . S
H10 C40 0.930 . S
O11 Co0 2.093 . S
O11 C3 1.224 . S
H12 C44 0.929 . S
H13 C46 0.930 . S
H14 C47 0.930 . S
H15 C45 0.929 . S
H16 C48 0.928 . S
O17 Co1 2.057 1_556 S
O17 C5 1.232 . S
H18 C37 0.929 . S
H19 C38 0.929 . S
H20 C50 0.931 . S
H21 C42 0.929 . S
H22 C51 0.930 . S
H23 C43 0.931 . S
O24 Co0 2.097 . S
O24 C52 1.214 . S
H25 C53 0.929 . S
H26 C54 0.929 . S
H27 C55 0.930 . S
H28 C56 0.929 . S
H29 C58 0.930 1_556 S
H30 C35 0.930 . S
H31 C39 0.930 . S
O32 Co1 2.037 . S
O32 C52 1.234 . S
C33 O7 1.269 . S
C33 O8 1.257 . S
C34 H9 0.930 . S
C34 C37 1.388 . S
C34 C39 1.418 . S
C35 H30 0.930 . S
C35 C38 1.404 . S
C35 C39 1.353 1_556 S
N36 Co1 2.145 . S
N36 C37 1.397 . S
N36 C38 1.334 1_554 S
C37 H18 0.929 . S
C37 C34 1.388 . S
C37 N36 1.397 . S
C38 H19 0.929 . S
C38 C35 1.404 . S
C38 N36 1.334 1_556 S
C39 H31 0.930 . S
C39 C34 1.418 . S
C39 C35 1.353 1_554 S
C40 H10 0.930 . S
C40 N41 1.330 . S
C40 C42 1.446 1_554 S
N41 Co0 2.151 . S
N41 C40 1.330 . S
N41 C45 1.418 . S
C42 H21 0.929 . S
C42 C40 1.446 1_556 S
C42 C43 1.332 . S
C43 H23 0.931 . S
C43 C42 1.332 . S
C43 C44 1.267 1_556 S
C44 H12 0.929 . S
C44 C43 1.267 1_554 S
C44 C45 1.251 . S
C45 H15 0.929 . S
C45 N41 1.418 . S
C45 C44 1.251 . S
C46 H13 0.930 . S
C46 C48 1.406 . S
C46 C51 1.261 . S
C47 H14 0.930 . S
C47 N49 1.325 . S
C47 C50 1.357 . S
C48 H16 0.928 . S
C48 C46 1.406 . S
C48 N49 1.261 . S
N49 Co0 2.214 . S
N49 C47 1.325 . S
N49 C48 1.261 . S
C50 H20 0.931 . S
C50 C47 1.357 . S
C50 C51 1.312 . S
C51 H22 0.930 . S
C51 C46 1.261 . S
C51 C50 1.312 . S
C52 O24 1.214 . S
C52 O32 1.234 . S
C53 H25 0.929 . S
C53 C56 1.391 . S
C53 C58 1.391 . S
C54 H26 0.929 . S
C54 C55 1.390 . S
C54 N57 1.391 . S
C55 H27 0.930 . S
C55 C54 1.390 . S
C55 C56 1.392 . S
C56 H28 0.929 . S
C56 C53 1.391 . S
C56 C55 1.392 . S
N57 Co1 2.257 . S
N57 C54 1.391 . S
N57 C58 1.388 . S
C58 H29 0.930 1_554 S
C58 C53 1.391 . S
C58 N57 1.388 . S
Co59 O61 2.143 . S
Co59 O67 2.074 . S
Co59 O70 2.093 . S
Co59 O83 2.097 . S
Co59 N100 2.151 . S
Co59 N108 2.214 . S
Co60 O61 2.160 . S
Co60 O66 2.058 . S
Co60 O76 2.057 . S
Co60 O91 2.037 . S
Co60 N95 2.145 . S
Co60 N116 2.257 . S
O61 Co59 2.143 . S
O61 Co60 2.160 . S
C62 O63 1.278 . S
C62 O70 1.224 . S
O63 C62 1.278 . S
C64 O65 1.245 . S
C64 O76 1.232 . S
O65 C64 1.245 . S
O66 Co60 2.058 . S
O66 C92 1.269 . S
O67 Co59 2.074 . S
O67 C92 1.257 . S
H68 C93 0.930 . S
H69 C99 0.930 . S
O70 Co59 2.093 . S
O70 C62 1.224 . S
H71 C103 0.929 . S
H72 C105 0.930 . S
H73 C106 0.930 . S
H74 C104 0.929 . S
H75 C107 0.928 . S
O76 Co60 2.057 . S
O76 C64 1.232 . S
H77 C96 0.929 . S
H78 C97 0.929 . S
H79 C109 0.931 . S
H80 C101 0.929 . S
H81 C110 0.930 . S
H82 C102 0.931 . S
O83 Co59 2.097 . S
O83 C111 1.214 . S
H84 C112 0.929 . S
H85 C113 0.929 . S
H86 C114 0.930 . S
H87 C115 0.929 . S
H88 C117 0.930 . S
H89 C94 0.930 . S
H90 C98 0.930 . S
O91 Co60 2.037 . S
O91 C111 1.234 . S
C92 O66 1.269 . S
C92 O67 1.257 . S
C93 H68 0.930 . S
C93 C96 1.388 . S
C93 C98 1.418 . S
C94 H89 0.930 . S
C94 C97 1.404 . S
C94 C98 1.353 . S
N95 Co60 2.145 . S
N95 C96 1.397 . S
N95 C97 1.334 . S
C96 H77 0.929 . S
C96 C93 1.388 . S
C96 N95 1.397 . S
C97 H78 0.929 . S
C97 C94 1.404 . S
C97 N95 1.334 . S
C98 H90 0.930 . S
C98 C93 1.418 . S
C98 C94 1.353 . S
C99 H69 0.930 . S
C99 N100 1.330 . S
C99 C101 1.446 . S
N100 Co59 2.151 . S
N100 C99 1.330 . S
N100 C104 1.418 . S
C101 H80 0.929 . S
C101 C99 1.446 . S
C101 C102 1.332 . S
C102 H82 0.931 . S
C102 C101 1.332 . S
C102 C103 1.267 . S
C103 H71 0.929 . S
C103 C102 1.267 . S
C103 C104 1.251 . S
C104 H74 0.929 . S
C104 N100 1.418 . S
C104 C103 1.251 . S
C105 H72 0.930 . S
C105 C107 1.406 . S
C105 C110 1.261 . S
C106 H73 0.930 . S
C106 N108 1.325 . S
C106 C109 1.357 . S
C107 H75 0.928 . S
C107 C105 1.406 . S
C107 N108 1.261 . S
N108 Co59 2.214 . S
N108 C106 1.325 . S
N108 C107 1.261 . S
C109 H79 0.931 . S
C109 C106 1.357 . S
C109 C110 1.312 . S
C110 H81 0.930 . S
C110 C105 1.261 . S
C110 C109 1.312 . S
C111 O83 1.214 . S
C111 O91 1.234 . S
C112 H84 0.929 . S
C112 C115 1.391 . S
C112 C117 1.391 . S
C113 H85 0.929 . S
C113 C114 1.390 . S
C113 N116 1.391 . S
C114 H86 0.930 . S
C114 C113 1.390 . S
C114 C115 1.392 . S
C115 H87 0.929 . S
C115 C112 1.391 . S
C115 C114 1.392 . S
N116 Co60 2.257 . S
N116 C113 1.391 . S
N116 C117 1.388 . S
C117 H88 0.930 . S
C117 C112 1.391 . S
C117 N116 1.388 . S
Co118 O120 2.143 . S
Co118 O126 2.074 . S
Co118 O129 2.093 . S
Co118 O142 2.097 . S
Co118 N159 2.151 . S
Co118 N167 2.214 . S
Co119 O120 2.160 . S
Co119 O125 2.058 . S
Co119 O135 2.057 . S
Co119 O150 2.037 . S
Co119 N154 2.145 . S
Co119 N175 2.257 . S
O120 Co118 2.143 . S
O120 Co119 2.160 . S
C121 O122 1.278 . S
C121 O129 1.224 . S
O122 C121 1.278 . S
C123 O124 1.245 . S
C123 O135 1.232 . S
O124 C123 1.245 . S
O125 Co119 2.058 . S
O125 C151 1.269 . S
O126 Co118 2.074 . S
O126 C151 1.257 . S
H127 C152 0.930 . S
H128 C158 0.930 . S
O129 Co118 2.093 . S
O129 C121 1.224 . S
H130 C162 0.929 . S
H131 C164 0.930 . S
H132 C165 0.930 . S
H133 C163 0.929 . S
H134 C166 0.928 . S
O135 Co119 2.057 . S
O135 C123 1.232 . S
H136 C155 0.929 . S
H137 C156 0.929 . S
H138 C168 0.931 . S
H139 C160 0.929 . S
H140 C169 0.930 . S
H141 C161 0.931 . S
O142 Co118 2.097 . S
O142 C170 1.214 . S
H143 C171 0.929 . S
H144 C172 0.929 . S
H145 C173 0.930 . S
H146 C174 0.929 . S
H147 C176 0.930 . S
H148 C153 0.930 . S
H149 C157 0.930 . S
O150 Co119 2.037 . S
O150 C170 1.234 . S
C151 O125 1.269 . S
C151 O126 1.257 . S
C152 H127 0.930 . S
C152 C155 1.388 . S
C152 C157 1.418 . S
C153 H148 0.930 . S
C153 C156 1.404 . S
C153 C157 1.353 . S
N154 Co119 2.145 . S
N154 C155 1.397 . S
N154 C156 1.334 . S
C155 H136 0.929 . S
C155 C152 1.388 . S
C155 N154 1.397 . S
C156 H137 0.929 . S
C156 C153 1.404 . S
C156 N154 1.334 . S
C157 H149 0.930 . S
C157 C152 1.418 . S
C157 C153 1.353 . S
C158 H128 0.930 . S
C158 N159 1.330 . S
C158 C160 1.446 . S
N159 Co118 2.151 . S
N159 C158 1.330 . S
N159 C163 1.418 . S
C160 H139 0.929 . S
C160 C158 1.446 . S
C160 C161 1.332 . S
C161 H141 0.931 . S
C161 C160 1.332 . S
C161 C162 1.267 . S
C162 H130 0.929 . S
C162 C161 1.267 . S
C162 C163 1.251 . S
C163 H133 0.929 . S
C163 N159 1.418 . S
C163 C162 1.251 . S
C164 H131 0.930 . S
C164 C166 1.406 . S
C164 C169 1.261 . S
C165 H132 0.930 . S
C165 N167 1.325 . S
C165 C168 1.357 . S
C166 H134 0.928 . S
C166 C164 1.406 . S
C166 N167 1.261 . S
N167 Co118 2.214 . S
N167 C165 1.325 . S
N167 C166 1.261 . S
C168 H138 0.931 . S
C168 C165 1.357 . S
C168 C169 1.312 . S
C169 H140 0.930 . S
C169 C164 1.261 . S
C169 C168 1.312 . S
C170 O142 1.214 . S
C170 O150 1.234 . S
C171 H143 0.929 . S
C171 C174 1.391 . S
C171 C176 1.391 . S
C172 H144 0.929 . S
C172 C173 1.390 . S
C172 N175 1.391 . S
C173 H145 0.930 . S
C173 C172 1.390 . S
C173 C174 1.392 . S
C174 H146 0.929 . S
C174 C171 1.391 . S
C174 C173 1.392 . S
N175 Co119 2.257 . S
N175 C172 1.391 . S
N175 C176 1.388 . S
C176 H147 0.930 . S
C176 C171 1.391 . S
C176 N175 1.388 . S
Co177 O179 2.143 . S
Co177 O185 2.074 . S
Co177 O188 2.093 . S
Co177 O201 2.097 . S
Co177 N218 2.151 . S
Co177 N226 2.214 . S
Co178 O179 2.160 . S
Co178 O184 2.058 . S
Co178 O194 2.057 . S
Co178 O209 2.037 . S
Co178 N213 2.145 . S
Co178 N234 2.257 . S
O179 Co177 2.143 . S
O179 Co178 2.160 . S
C180 O181 1.278 . S
C180 O188 1.224 . S
O181 C180 1.278 . S
C182 O183 1.245 . S
C182 O194 1.232 . S
O183 C182 1.245 . S
O184 Co178 2.058 . S
O184 C210 1.269 . S
O185 Co177 2.074 . S
O185 C210 1.257 . S
H186 C211 0.930 . S
H187 C217 0.930 . S
O188 Co177 2.093 . S
O188 C180 1.224 . S
H189 C221 0.929 . S
H190 C223 0.930 . S
H191 C224 0.930 . S
H192 C222 0.929 . S
H193 C225 0.928 . S
O194 Co178 2.057 . S
O194 C182 1.232 . S
H195 C214 0.929 . S
H196 C215 0.929 . S
H197 C227 0.931 . S
H198 C219 0.929 . S
H199 C228 0.930 . S
H200 C220 0.931 . S
O201 Co177 2.097 . S
O201 C229 1.214 . S
H202 C230 0.929 . S
H203 C231 0.929 . S
H204 C232 0.930 . S
H205 C233 0.929 . S
H206 C235 0.930 . S
H207 C212 0.930 . S
H208 C216 0.930 . S
O209 Co178 2.037 . S
O209 C229 1.234 . S
C210 O184 1.269 . S
C210 O185 1.257 . S
C211 H186 0.930 . S
C211 C214 1.388 . S
C211 C216 1.418 . S
C212 H207 0.930 . S
C212 C215 1.404 . S
C212 C216 1.353 . S
N213 Co178 2.145 . S
N213 C214 1.397 . S
N213 C215 1.334 . S
C214 H195 0.929 . S
C214 C211 1.388 . S
C214 N213 1.397 . S
C215 H196 0.929 . S
C215 C212 1.404 . S
C215 N213 1.334 . S
C216 H208 0.930 . S
C216 C211 1.418 . S
C216 C212 1.353 . S
C217 H187 0.930 . S
C217 N218 1.330 . S
C217 C219 1.446 . S
N218 Co177 2.151 . S
N218 C217 1.330 . S
N218 C222 1.418 . S
C219 H198 0.929 . S
C219 C217 1.446 . S
C219 C220 1.332 . S
C220 H200 0.931 . S
C220 C219 1.332 . S
C220 C221 1.267 . S
C221 H189 0.929 . S
C221 C220 1.267 . S
C221 C222 1.251 . S
C222 H192 0.929 . S
C222 N218 1.418 . S
C222 C221 1.251 . S
C223 H190 0.930 . S
C223 C225 1.406 . S
C223 C228 1.261 . S
C224 H191 0.930 . S
C224 N226 1.325 . S
C224 C227 1.357 . S
C225 H193 0.928 . S
C225 C223 1.406 . S
C225 N226 1.261 . S
N226 Co177 2.214 . S
N226 C224 1.325 . S
N226 C225 1.261 . S
C227 H197 0.931 . S
C227 C224 1.357 . S
C227 C228 1.312 . S
C228 H199 0.930 . S
C228 C223 1.261 . S
C228 C227 1.312 . S
C229 O201 1.214 . S
C229 O209 1.234 . S
C230 H202 0.929 . S
C230 C233 1.391 . S
C230 C235 1.391 . S
C231 H203 0.929 . S
C231 C232 1.390 . S
C231 N234 1.391 . S
C232 H204 0.930 . S
C232 C231 1.390 . S
C232 C233 1.392 . S
C233 H205 0.929 . S
C233 C230 1.391 . S
C233 C232 1.392 . S
N234 Co178 2.257 . S
N234 C231 1.391 . S
N234 C235 1.388 . S
C235 H206 0.930 . S
C235 C230 1.391 . S
C235 N234 1.388 . S
Co236 O238 2.143 . S
Co236 O244 2.074 . S
Co236 O247 2.093 . S
Co236 O260 2.097 . S
Co236 N277 2.151 . S
Co236 N285 2.214 . S
Co237 O238 2.160 . S
Co237 O243 2.058 . S
Co237 O253 2.057 . S
Co237 O268 2.037 . S
Co237 N272 2.145 . S
Co237 N293 2.257 . S
O238 Co236 2.143 . S
O238 Co237 2.160 . S
C239 O240 1.278 . S
C239 O247 1.224 . S
O240 C239 1.278 . S
C241 O242 1.245 . S
C241 O253 1.232 . S
O242 C241 1.245 . S
O243 Co237 2.058 . S
O243 C269 1.269 . S
O244 Co236 2.074 . S
O244 C269 1.257 . S
H245 C270 0.930 . S
H246 C276 0.930 . S
O247 Co236 2.093 . S
O247 C239 1.224 . S
H248 C280 0.929 . S
H249 C282 0.930 . S
H250 C283 0.930 . S
H251 C281 0.929 . S
H252 C284 0.928 . S
O253 Co237 2.057 . S
O253 C241 1.232 . S
H254 C273 0.929 . S
H255 C274 0.929 . S
H256 C286 0.931 . S
H257 C278 0.929 . S
H258 C287 0.930 . S
H259 C279 0.931 . S
O260 Co236 2.097 . S
O260 C288 1.214 . S
H261 C289 0.929 . S
H262 C290 0.929 . S
H263 C291 0.930 . S
H264 C292 0.929 . S
H265 C294 0.930 . S
H266 C271 0.930 . S
H267 C275 0.930 . S
O268 Co237 2.037 . S
O268 C288 1.234 . S
C269 O243 1.269 . S
C269 O244 1.257 . S
C270 H245 0.930 . S
C270 C273 1.388 . S
C270 C275 1.418 . S
C271 H266 0.930 . S
C271 C274 1.404 . S
C271 C275 1.353 . S
N272 Co237 2.145 . S
N272 C273 1.397 . S
N272 C274 1.334 . S
C273 H254 0.929 . S
C273 C270 1.388 . S
C273 N272 1.397 . S
C274 H255 0.929 . S
C274 C271 1.404 . S
C274 N272 1.334 . S
C275 H267 0.930 . S
C275 C270 1.418 . S
C275 C271 1.353 . S
C276 H246 0.930 . S
C276 N277 1.330 . S
C276 C278 1.446 . S
N277 Co236 2.151 . S
N277 C276 1.330 . S
N277 C281 1.418 . S
C278 H257 0.929 . S
C278 C276 1.446 . S
C278 C279 1.332 . S
C279 H259 0.931 . S
C279 C278 1.332 . S
C279 C280 1.267 . S
C280 H248 0.929 . S
C280 C279 1.267 . S
C280 C281 1.251 . S
C281 H251 0.929 . S
C281 N277 1.418 . S
C281 C280 1.251 . S
C282 H249 0.930 . S
C282 C284 1.406 . S
C282 C287 1.261 . S
C283 H250 0.930 . S
C283 N285 1.325 . S
C283 C286 1.357 . S
C284 H252 0.928 . S
C284 C282 1.406 . S
C284 N285 1.261 . S
N285 Co236 2.214 . S
N285 C283 1.325 . S
N285 C284 1.261 . S
C286 H256 0.931 . S
C286 C283 1.357 . S
C286 C287 1.312 . S
C287 H258 0.930 . S
C287 C282 1.261 . S
C287 C286 1.312 . S
C288 O260 1.214 . S
C288 O268 1.234 . S
C289 H261 0.929 . S
C289 C292 1.391 . S
C289 C294 1.391 . S
C290 H262 0.929 . S
C290 C291 1.390 . S
C290 N293 1.391 . S
C291 H263 0.930 . S
C291 C290 1.390 . S
C291 C292 1.392 . S
C292 H264 0.929 . S
C292 C289 1.391 . S
C292 C291 1.392 . S
N293 Co237 2.257 . S
N293 C290 1.391 . S
N293 C294 1.388 . S
C294 H265 0.930 . S
C294 C289 1.391 . S
C294 N293 1.388 . S
Co295 O297 2.143 . S
Co295 O303 2.074 . S
Co295 O306 2.093 . S
Co295 O319 2.097 . S
Co295 N336 2.151 . S
Co295 N344 2.214 . S
Co296 O297 2.160 . S
Co296 O302 2.058 . S
Co296 O312 2.057 . S
Co296 O327 2.037 . S
Co296 N331 2.145 . S
Co296 N352 2.257 . S
O297 Co295 2.143 . S
O297 Co296 2.160 . S
C298 O299 1.278 . S
C298 O306 1.224 . S
O299 C298 1.278 . S
C300 O301 1.245 . S
C300 O312 1.232 . S
O301 C300 1.245 . S
O302 Co296 2.058 . S
O302 C328 1.269 . S
O303 Co295 2.074 . S
O303 C328 1.257 . S
H304 C329 0.930 . S
H305 C335 0.930 . S
O306 Co295 2.093 . S
O306 C298 1.224 . S
H307 C339 0.929 . S
H308 C341 0.930 . S
H309 C342 0.930 . S
H310 C340 0.929 . S
H311 C343 0.918 1_556 S
O312 Co296 2.057 . S
O312 C300 1.232 . S
H313 C332 0.929 . S
H314 C333 0.929 . S
H315 C345 0.931 . S
H316 C337 0.929 . S
H317 C346 0.930 . S
H318 C338 0.931 . S
O319 Co295 2.097 . S
O319 C347 1.214 . S
H320 C348 0.929 . S
H321 C349 0.929 . S
H322 C350 0.930 . S
H323 C351 0.929 . S
H324 C353 0.930 . S
H325 C330 0.930 . S
H326 C334 0.930 . S
O327 Co296 2.037 . S
O327 C347 1.234 . S
C328 O302 1.269 . S
C328 O303 1.257 . S
C329 H304 0.930 . S
C329 C332 1.388 . S
C329 C334 1.418 . S
C330 H325 0.930 . S
C330 C333 1.404 . S
C330 C334 1.353 . S
N331 Co296 2.145 . S
N331 C332 1.397 . S
N331 C333 1.334 . S
C332 H313 0.929 . S
C332 C329 1.388 . S
C332 N331 1.397 . S
C333 H314 0.929 . S
C333 C330 1.404 . S
C333 N331 1.334 . S
C334 H326 0.930 . S
C334 C329 1.418 . S
C334 C330 1.353 . S
C335 H305 0.930 . S
C335 N336 1.330 . S
C335 C337 1.446 . S
N336 Co295 2.151 . S
N336 C335 1.330 . S
N336 C340 1.418 . S
C337 H316 0.929 . S
C337 C335 1.446 . S
C337 C338 1.332 . S
C338 H318 0.931 . S
C338 C337 1.332 . S
C338 C339 1.267 . S
C339 H307 0.929 . S
C339 C338 1.267 . S
C339 C340 1.251 . S
C340 H310 0.929 . S
C340 N336 1.418 . S
C340 C339 1.251 . S
C341 H308 0.930 . S
C341 C343 1.419 . S
C341 C346 1.261 . S
C342 H309 0.930 . S
C342 N344 1.325 1_554 S
C342 C345 1.357 . S
C343 H311 0.918 1_554 S
C343 C341 1.419 . S
C343 N344 1.258 1_554 S
N344 Co295 2.214 . S
N344 C342 1.325 1_556 S
N344 C343 1.258 1_556 S
C345 H315 0.931 . S
C345 C342 1.357 . S
C345 C346 1.312 . S
C346 H317 0.930 . S
C346 C341 1.261 . S
C346 C345 1.312 . S
C347 O319 1.214 . S
C347 O327 1.234 . S
C348 H320 0.929 . S
C348 C351 1.391 . S
C348 C353 1.391 . S
C349 H321 0.929 . S
C349 C350 1.390 . S
C349 N352 1.391 . S
C350 H322 0.930 . S
C350 C349 1.390 . S
C350 C351 1.392 . S
C351 H323 0.929 . S
C351 C348 1.391 . S
C351 C350 1.392 . S
N352 Co296 2.257 . S
N352 C349 1.391 . S
N352 C353 1.388 . S
C353 H324 0.930 . S
C353 C348 1.391 . S
C353 N352 1.388 . S
Co354 O356 2.143 . S
Co354 O362 2.074 . S
Co354 O365 2.093 . S
Co354 O378 2.097 . S
Co354 N395 2.151 . S
Co354 N403 2.214 . S
Co355 O356 2.160 . S
Co355 O361 2.058 . S
Co355 O371 2.057 . S
Co355 O386 2.037 . S
Co355 N390 2.145 . S
Co355 N411 2.257 . S
O356 Co354 2.143 . S
O356 Co355 2.160 . S
C357 O358 1.278 . S
C357 O365 1.224 . S
O358 C357 1.278 . S
C359 O360 1.245 . S
C359 O371 1.232 . S
O360 C359 1.245 . S
O361 Co355 2.058 . S
O361 C387 1.269 . S
O362 Co354 2.074 . S
O362 C387 1.257 . S
H363 C388 0.930 . S
H364 C394 0.930 . S
O365 Co354 2.093 . S
O365 C357 1.224 . S
H366 C398 0.929 . S
H367 C400 0.930 . S
H368 C401 0.930 . S
H369 C399 0.929 . S
H370 C402 0.928 . S
O371 Co355 2.057 . S
O371 C359 1.232 . S
H372 C391 0.929 . S
H373 C392 0.929 . S
H374 C404 0.931 . S
H375 C396 0.929 . S
H376 C405 0.930 . S
H377 C397 0.931 . S
O378 Co354 2.097 . S
O378 C406 1.214 . S
H379 C407 0.929 . S
H380 C408 0.929 . S
H381 C409 0.930 . S
H382 C410 0.929 . S
H383 C412 0.930 . S
H384 C389 0.930 . S
H385 C393 0.930 . S
O386 Co355 2.037 . S
O386 C406 1.234 . S
C387 O361 1.269 . S
C387 O362 1.257 . S
C388 H363 0.930 . S
C388 C391 1.388 . S
C388 C393 1.418 . S
C389 H384 0.930 . S
C389 C392 1.404 . S
C389 C393 1.353 . S
N390 Co355 2.145 . S
N390 C391 1.397 . S
N390 C392 1.334 . S
C391 H372 0.929 . S
C391 C388 1.388 . S
C391 N390 1.397 . S
C392 H373 0.929 . S
C392 C389 1.404 . S
C392 N390 1.334 . S
C393 H385 0.930 . S
C393 C388 1.418 . S
C393 C389 1.353 . S
C394 H364 0.930 . S
C394 N395 1.330 . S
C394 C396 1.446 . S
N395 Co354 2.151 . S
N395 C394 1.330 . S
N395 C399 1.418 . S
C396 H375 0.929 . S
C396 C394 1.446 . S
C396 C397 1.332 . S
C397 H377 0.931 . S
C397 C396 1.332 . S
C397 C398 1.267 . S
C398 H366 0.929 . S
C398 C397 1.267 . S
C398 C399 1.251 . S
C399 H369 0.929 . S
C399 N395 1.418 . S
C399 C398 1.251 . S
C400 H367 0.930 . S
C400 C402 1.406 . S
C400 C405 1.261 . S
C401 H368 0.930 . S
C401 N403 1.325 . S
C401 C404 1.357 . S
C402 H370 0.928 . S
C402 C400 1.406 . S
C402 N403 1.261 . S
N403 Co354 2.214 . S
N403 C401 1.325 . S
N403 C402 1.261 . S
C404 H374 0.931 . S
C404 C401 1.357 . S
C404 C405 1.312 . S
C405 H376 0.930 . S
C405 C400 1.261 . S
C405 C404 1.312 . S
C406 O378 1.214 . S
C406 O386 1.234 . S
C407 H379 0.929 . S
C407 C410 1.391 . S
C407 C412 1.391 . S
C408 H380 0.929 . S
C408 C409 1.390 . S
C408 N411 1.391 . S
C409 H381 0.930 . S
C409 C408 1.390 . S
C409 C410 1.392 . S
C410 H382 0.929 . S
C410 C407 1.391 . S
C410 C409 1.392 . S
N411 Co355 2.257 . S
N411 C408 1.391 . S
N411 C412 1.388 . S
C412 H383 0.930 . S
C412 C407 1.391 . S
C412 N411 1.388 . S
Co413 O415 2.143 1_556 S
Co413 O421 2.074 . S
Co413 O424 2.093 . S
Co413 O437 2.097 . S
Co413 N454 2.151 1_556 S
Co413 N462 2.214 . S
Co414 O415 2.160 . S
Co414 O420 2.058 . S
Co414 O430 2.057 . S
Co414 O445 2.037 1_554 S
Co414 N449 2.145 . S
Co414 N470 2.257 . S
O415 Co413 2.143 1_554 S
O415 Co414 2.160 . S
C416 O417 1.278 1_556 S
C416 O424 1.224 . S
O417 C416 1.278 1_554 S
C418 O419 1.245 . S
C418 O430 1.232 . S
O419 C418 1.245 . S
O420 Co414 2.058 . S
O420 C446 1.269 . S
O421 Co413 2.074 . S
O421 C446 1.257 1_556 S
H422 C447 0.930 1_556 S
H423 C453 0.930 . S
O424 Co413 2.093 . S
O424 C416 1.224 . S
H425 C457 0.929 . S
H426 C459 0.930 . S
H427 C460 0.930 . S
H428 C458 0.929 . S
H429 C461 0.928 . S
O430 Co414 2.057 . S
O430 C418 1.232 . S
H431 C450 0.929 1_556 S
H432 C451 0.929 . S
H433 C463 0.931 . S
H434 C455 0.929 . S
H435 C464 0.930 . S
H436 C456 0.931 . S
O437 Co413 2.097 . S
O437 C465 1.214 . S
H438 C466 0.929 . S
H439 C467 0.929 . S
H440 C468 0.930 . S
H441 C469 0.929 . S
H442 C471 0.930 . S
H443 C448 0.930 . S
H444 C452 0.930 . S
O445 Co414 2.037 1_556 S
O445 C465 1.234 . S
C446 O420 1.269 . S
C446 O421 1.257 1_554 S
C447 H422 0.930 1_554 S
C447 C450 1.388 . S
C447 C452 1.418 . S
C448 H443 0.930 . S
C448 C451 1.404 . S
C448 C452 1.353 . S
N449 Co414 2.145 . S
N449 C450 1.397 . S
N449 C451 1.334 . S
C450 H431 0.929 1_554 S
C450 C447 1.388 . S
C450 N449 1.397 . S
C451 H432 0.929 . S
C451 C448 1.404 . S
C451 N449 1.334 . S
C452 H444 0.930 . S
C452 C447 1.418 . S
C452 C448 1.353 . S
C453 H423 0.930 . S
C453 N454 1.330 . S
C453 C455 1.446 . S
N454 Co413 2.151 1_554 S
N454 C453 1.330 . S
N454 C458 1.418 . S
C455 H434 0.929 . S
C455 C453 1.446 . S
C455 C456 1.332 . S
C456 H436 0.931 . S
C456 C455 1.332 . S
C456 C457 1.267 . S
C457 H425 0.929 . S
C457 C456 1.267 . S
C457 C458 1.251 . S
C458 H428 0.929 . S
C458 N454 1.418 . S
C458 C457 1.251 . S
C459 H426 0.930 . S
C459 C461 1.406 . S
C459 C464 1.261 . S
C460 H427 0.930 . S
C460 N462 1.325 . S
C460 C463 1.357 . S
C461 H429 0.928 . S
C461 C459 1.406 . S
C461 N462 1.261 . S
N462 Co413 2.214 . S
N462 C460 1.325 . S
N462 C461 1.261 . S
C463 H433 0.931 . S
C463 C460 1.357 . S
C463 C464 1.312 . S
C464 H435 0.930 . S
C464 C459 1.261 . S
C464 C463 1.312 . S
C465 O437 1.214 . S
C465 O445 1.234 . S
C466 H438 0.929 . S
C466 C469 1.391 . S
C466 C471 1.391 . S
C467 H439 0.929 . S
C467 C468 1.390 . S
C467 N470 1.391 1_556 S
C468 H440 0.930 . S
C468 C467 1.390 . S
C468 C469 1.392 1_556 S
C469 H441 0.929 . S
C469 C466 1.391 . S
C469 C468 1.392 1_554 S
N470 Co414 2.257 . S
N470 C467 1.391 1_554 S
N470 C471 1.388 . S
C471 H442 0.930 . S
C471 C466 1.391 . S
C471 N470 1.388 . S
Co472 O474 2.143 . S
Co472 O480 2.074 . S
Co472 O483 2.093 . S
Co472 O496 2.097 . S
Co472 N513 2.151 . S
Co472 N521 2.214 . S
Co473 O474 2.160 . S
Co473 O479 2.058 . S
Co473 O489 2.057 . S
Co473 O504 2.037 . S
Co473 N508 2.145 . S
Co473 N529 2.257 . S
O474 Co472 2.143 . S
O474 Co473 2.160 . S
C475 O476 1.278 . S
C475 O483 1.224 . S
O476 C475 1.278 . S
C477 O478 1.245 . S
C477 O489 1.232 . S
O478 C477 1.245 . S
O479 Co473 2.058 . S
O479 C505 1.269 . S
O480 Co472 2.074 . S
O480 C505 1.257 . S
H481 C506 0.930 . S
H482 C512 0.930 . S
O483 Co472 2.093 . S
O483 C475 1.224 . S
H484 C516 0.929 . S
H485 C518 0.930 . S
H486 C519 0.930 . S
H487 C517 0.929 . S
H488 C520 0.928 . S
O489 Co473 2.057 . S
O489 C477 1.232 . S
H490 C509 0.929 . S
H491 C510 0.929 . S
H492 C522 0.931 1_556 S
H493 C514 0.929 . S
H494 C523 0.930 1_556 S
H495 C515 0.931 . S
O496 Co472 2.097 . S
O496 C524 1.214 . S
H497 C525 0.929 . S
H498 C526 0.929 . S
H499 C527 0.930 . S
H500 C528 0.929 . S
H501 C530 0.930 . S
H502 C507 0.930 . S
H503 C511 0.930 . S
O504 Co473 2.037 . S
O504 C524 1.234 . S
C505 O479 1.269 . S
C505 O480 1.257 . S
C506 H481 0.930 . S
C506 C509 1.388 . S
C506 C511 1.418 . S
C507 H502 0.930 . S
C507 C510 1.404 . S
C507 C511 1.353 . S
N508 Co473 2.145 . S
N508 C509 1.397 . S
N508 C510 1.334 . S
C509 H490 0.929 . S
C509 C506 1.388 . S
C509 N508 1.397 . S
C510 H491 0.929 . S
C510 C507 1.404 . S
C510 N508 1.334 . S
C511 H503 0.930 . S
C511 C506 1.418 . S
C511 C507 1.353 . S
C512 H482 0.930 . S
C512 N513 1.330 . S
C512 C514 1.446 . S
N513 Co472 2.151 . S
N513 C512 1.330 . S
N513 C517 1.418 . S
C514 H493 0.929 . S
C514 C512 1.446 . S
C514 C515 1.332 . S
C515 H495 0.931 . S
C515 C514 1.332 . S
C515 C516 1.267 . S
C516 H484 0.929 . S
C516 C515 1.267 . S
C516 C517 1.251 . S
C517 H487 0.929 . S
C517 N513 1.418 . S
C517 C516 1.251 . S
C518 H485 0.930 . S
C518 C520 1.406 . S
C518 C523 1.261 . S
C519 H486 0.930 . S
C519 N521 1.325 . S
C519 C522 1.357 . S
C520 H488 0.928 . S
C520 C518 1.406 . S
C520 N521 1.261 . S
N521 Co472 2.214 . S
N521 C519 1.325 . S
N521 C520 1.261 . S
C522 H492 0.931 1_554 S
C522 C519 1.357 . S
C522 C523 1.312 . S
C523 H494 0.930 1_554 S
C523 C518 1.261 . S
C523 C522 1.312 . S
C524 O496 1.214 . S
C524 O504 1.234 . S
C525 H497 0.929 . S
C525 C528 1.391 . S
C525 C530 1.391 . S
C526 H498 0.929 . S
C526 C527 1.390 . S
C526 N529 1.391 . S
C527 H499 0.930 . S
C527 C526 1.390 . S
C527 C528 1.392 . S
C528 H500 0.929 . S
C528 C525 1.391 . S
C528 C527 1.392 . S
N529 Co473 2.257 . S
N529 C526 1.391 . S
N529 C530 1.388 . S
C530 H501 0.930 . S
C530 C525 1.391 . S
C530 N529 1.388 . S
Co531 O533 2.143 . S
Co531 O539 2.074 . S
Co531 O542 2.093 . S
Co531 O555 2.097 . S
Co531 N572 2.151 . S
Co531 N580 2.214 . S
Co532 O533 2.160 . S
Co532 O538 2.058 . S
Co532 O548 2.057 . S
Co532 O563 2.037 . S
Co532 N567 2.145 . S
Co532 N588 2.257 . S
O533 Co531 2.143 . S
O533 Co532 2.160 . S
C534 O535 1.278 . S
C534 O542 1.224 . S
O535 C534 1.278 . S
C536 O537 1.245 . S
C536 O548 1.232 . S
O537 C536 1.245 . S
O538 Co532 2.058 . S
O538 C564 1.269 . S
O539 Co531 2.074 . S
O539 C564 1.257 . S
H540 C565 0.930 . S
H541 C571 0.930 . S
O542 Co531 2.093 . S
O542 C534 1.224 . S
H543 C575 0.929 . S
H544 C577 0.930 . S
H545 C578 0.930 . S
H546 C576 0.929 . S
H547 C579 0.928 . S
O548 Co532 2.057 . S
O548 C536 1.232 . S
H549 C568 0.929 . S
H550 C569 0.929 . S
H551 C581 0.931 . S
H552 C573 0.929 . S
H553 C582 0.930 . S
H554 C574 0.931 . S
O555 Co531 2.097 . S
O555 C583 1.214 . S
H556 C584 0.929 . S
H557 C585 0.929 . S
H558 C586 0.930 . S
H559 C587 0.929 . S
H560 C589 0.930 . S
H561 C566 0.930 . S
H562 C570 0.930 . S
O563 Co532 2.037 . S
O563 C583 1.234 . S
C564 O538 1.269 . S
C564 O539 1.257 . S
C565 H540 0.930 . S
C565 C568 1.388 . S
C565 C570 1.418 . S
C566 H561 0.930 . S
C566 C569 1.404 . S
C566 C570 1.353 . S
N567 Co532 2.145 . S
N567 C568 1.397 . S
N567 C569 1.334 . S
C568 H549 0.929 . S
C568 C565 1.388 . S
C568 N567 1.397 . S
C569 H550 0.929 . S
C569 C566 1.404 . S
C569 N567 1.334 . S
C570 H562 0.930 . S
C570 C565 1.418 . S
C570 C566 1.353 . S
C571 H541 0.930 . S
C571 N572 1.330 . S
C571 C573 1.446 . S
N572 Co531 2.151 . S
N572 C571 1.330 . S
N572 C576 1.418 . S
C573 H552 0.929 . S
C573 C571 1.446 . S
C573 C574 1.332 . S
C574 H554 0.931 . S
C574 C573 1.332 . S
C574 C575 1.267 . S
C575 H543 0.929 . S
C575 C574 1.267 . S
C575 C576 1.251 . S
C576 H546 0.929 . S
C576 N572 1.418 . S
C576 C575 1.251 . S
C577 H544 0.930 . S
C577 C579 1.406 . S
C577 C582 1.261 . S
C578 H545 0.930 . S
C578 N580 1.325 . S
C578 C581 1.357 . S
C579 H547 0.928 . S
C579 C577 1.406 . S
C579 N580 1.261 . S
N580 Co531 2.214 . S
N580 C578 1.325 . S
N580 C579 1.261 . S
C581 H551 0.931 . S
C581 C578 1.357 . S
C581 C582 1.312 . S
C582 H553 0.930 . S
C582 C577 1.261 . S
C582 C581 1.312 . S
C583 O555 1.214 . S
C583 O563 1.234 . S
C584 H556 0.929 . S
C584 C587 1.391 . S
C584 C589 1.391 . S
C585 H557 0.929 . S
C585 C586 1.390 . S
C585 N588 1.391 . S
C586 H558 0.930 . S
C586 C585 1.390 . S
C586 C587 1.392 . S
C587 H559 0.929 . S
C587 C584 1.391 . S
C587 C586 1.392 . S
N588 Co532 2.257 . S
N588 C585 1.391 . S
N588 C589 1.388 . S
C589 H560 0.930 . S
C589 C584 1.391 . S
C589 N588 1.388 . S
Co590 O592 2.143 . S
Co590 O598 2.074 . S
Co590 O601 2.093 . S
Co590 O614 2.097 . S
Co590 N631 2.151 . S
Co590 N639 2.214 . S
Co591 O592 2.160 . S
Co591 O597 2.058 . S
Co591 O607 2.057 . S
Co591 O622 2.037 . S
Co591 N626 2.145 . S
Co591 N647 2.257 . S
O592 Co590 2.143 . S
O592 Co591 2.160 . S
C593 O594 1.278 . S
C593 O601 1.224 . S
O594 C593 1.278 . S
C595 O596 1.245 . S
C595 O607 1.232 . S
O596 C595 1.245 . S
O597 Co591 2.058 . S
O597 C623 1.269 . S
O598 Co590 2.074 . S
O598 C623 1.257 . S
H599 C624 0.930 . S
H600 C630 0.930 . S
O601 Co590 2.093 . S
O601 C593 1.224 . S
H602 C634 0.929 . S
H603 C636 0.930 . S
H604 C637 0.930 . S
H605 C635 0.929 . S
H606 C638 0.928 . S
O607 Co591 2.057 . S
O607 C595 1.232 . S
H608 C627 0.929 . S
H609 C628 0.929 . S
H610 C640 0.931 . S
H611 C632 0.929 . S
H612 C641 0.930 . S
H613 C633 0.931 . S
O614 Co590 2.097 . S
O614 C642 1.214 . S
H615 C643 0.929 . S
H616 C644 0.929 . S
H617 C645 0.930 . S
H618 C646 0.929 . S
H619 C648 0.930 . S
H620 C625 0.930 . S
H621 C629 0.930 . S
O622 Co591 2.037 . S
O622 C642 1.234 . S
C623 O597 1.269 . S
C623 O598 1.257 . S
C624 H599 0.930 . S
C624 C627 1.388 . S
C624 C629 1.418 . S
C625 H620 0.930 . S
C625 C628 1.404 . S
C625 C629 1.353 . S
N626 Co591 2.145 . S
N626 C627 1.397 . S
N626 C628 1.334 . S
C627 H608 0.929 . S
C627 C624 1.388 . S
C627 N626 1.397 . S
C628 H609 0.929 . S
C628 C625 1.404 . S
C628 N626 1.334 . S
C629 H621 0.930 . S
C629 C624 1.418 . S
C629 C625 1.353 . S
C630 H600 0.930 . S
C630 N631 1.330 . S
C630 C632 1.446 . S
N631 Co590 2.151 . S
N631 C630 1.330 . S
N631 C635 1.418 . S
C632 H611 0.929 . S
C632 C630 1.446 . S
C632 C633 1.332 . S
C633 H613 0.931 . S
C633 C632 1.332 . S
C633 C634 1.267 . S
C634 H602 0.929 . S
C634 C633 1.267 . S
C634 C635 1.251 . S
C635 H605 0.929 . S
C635 N631 1.418 . S
C635 C634 1.251 . S
C636 H603 0.930 . S
C636 C638 1.406 . S
C636 C641 1.261 . S
C637 H604 0.930 . S
C637 N639 1.325 . S
C637 C640 1.357 . S
C638 H606 0.928 . S
C638 C636 1.406 . S
C638 N639 1.261 . S
N639 Co590 2.214 . S
N639 C637 1.325 . S
N639 C638 1.261 . S
C640 H610 0.931 . S
C640 C637 1.357 . S
C640 C641 1.312 . S
C641 H612 0.930 . S
C641 C636 1.261 . S
C641 C640 1.312 . S
C642 O614 1.214 . S
C642 O622 1.234 . S
C643 H615 0.929 . S
C643 C646 1.391 . S
C643 C648 1.391 . S
C644 H616 0.929 . S
C644 C645 1.390 . S
C644 N647 1.391 . S
C645 H617 0.930 . S
C645 C644 1.390 . S
C645 C646 1.392 . S
C646 H618 0.929 . S
C646 C643 1.391 . S
C646 C645 1.392 . S
N647 Co591 2.257 . S
N647 C644 1.391 . S
N647 C648 1.388 . S
C648 H619 0.930 . S
C648 C643 1.391 . S
C648 N647 1.388 . S
Co649 O651 2.143 . S
Co649 O657 2.074 . S
Co649 O660 2.093 . S
Co649 O673 2.097 . S
Co649 N690 2.151 . S
Co649 N698 2.214 . S
Co650 O651 2.160 . S
Co650 O656 2.058 . S
Co650 O666 2.057 . S
Co650 O681 2.037 . S
Co650 N685 2.145 . S
Co650 N706 2.257 . S
O651 Co649 2.143 . S
O651 Co650 2.160 . S
C652 O653 1.278 . S
C652 O660 1.224 . S
O653 C652 1.278 . S
C654 O655 1.245 . S
C654 O666 1.232 . S
O655 C654 1.245 . S
O656 Co650 2.058 . S
O656 C682 1.269 . S
O657 Co649 2.074 . S
O657 C682 1.257 . S
H658 C683 0.930 . S
H659 C689 0.930 . S
O660 Co649 2.093 . S
O660 C652 1.224 . S
H661 C693 0.929 . S
H662 C695 0.930 . S
H663 C696 0.930 . S
H664 C694 0.929 . S
H665 C697 0.928 . S
O666 Co650 2.057 . S
O666 C654 1.232 . S
H667 C686 0.929 . S
H668 C687 0.929 . S
H669 C699 0.931 . S
H670 C691 0.929 . S
H671 C700 0.930 . S
H672 C692 0.931 . S
O673 Co649 2.097 . S
O673 C701 1.214 . S
H674 C702 0.929 . S
H675 C703 0.929 . S
H676 C704 0.930 . S
H677 C705 0.929 . S
H678 C707 0.930 . S
H679 C684 0.930 . S
H680 C688 0.930 . S
O681 Co650 2.037 . S
O681 C701 1.234 . S
C682 O656 1.269 . S
C682 O657 1.257 . S
C683 H658 0.930 . S
C683 C686 1.388 . S
C683 C688 1.418 . S
C684 H679 0.930 . S
C684 C687 1.404 . S
C684 C688 1.353 . S
N685 Co650 2.145 . S
N685 C686 1.397 . S
N685 C687 1.334 . S
C686 H667 0.929 . S
C686 C683 1.388 . S
C686 N685 1.397 . S
C687 H668 0.929 . S
C687 C684 1.404 . S
C687 N685 1.334 . S
C688 H680 0.930 . S
C688 C683 1.418 . S
C688 C684 1.353 . S
C689 H659 0.930 . S
C689 N690 1.330 . S
C689 C691 1.446 . S
N690 Co649 2.151 . S
N690 C689 1.330 . S
N690 C694 1.418 . S
C691 H670 0.929 . S
C691 C689 1.446 . S
C691 C692 1.332 . S
C692 H672 0.931 . S
C692 C691 1.332 . S
C692 C693 1.267 . S
C693 H661 0.929 . S
C693 C692 1.267 . S
C693 C694 1.251 . S
C694 H664 0.929 . S
C694 N690 1.418 . S
C694 C693 1.251 . S
C695 H662 0.930 . S
C695 C697 1.406 . S
C695 C700 1.261 . S
C696 H663 0.930 . S
C696 N698 1.325 . S
C696 C699 1.357 . S
C697 H665 0.928 . S
C697 C695 1.406 . S
C697 N698 1.261 . S
N698 Co649 2.214 . S
N698 C696 1.325 . S
N698 C697 1.261 . S
C699 H669 0.931 . S
C699 C696 1.357 . S
C699 C700 1.312 . S
C700 H671 0.930 . S
C700 C695 1.261 . S
C700 C699 1.312 . S
C701 O673 1.214 . S
C701 O681 1.234 . S
C702 H674 0.929 . S
C702 C705 1.391 . S
C702 C707 1.391 . S
C703 H675 0.929 . S
C703 C704 1.390 . S
C703 N706 1.391 . S
C704 H676 0.930 . S
C704 C703 1.390 . S
C704 C705 1.392 . S
C705 H677 0.929 . S
C705 C702 1.391 . S
C705 C704 1.392 . S
N706 Co650 2.257 . S
N706 C703 1.391 . S
N706 C707 1.388 . S
C707 H678 0.930 . S
C707 C702 1.391 . S
C707 N706 1.388 . S
H708 C714 0.930 . S
H709 C717 0.930 . S
H710 C718 0.930 . S
H711 C719 0.930 . S
H712 C722 0.930 . S
H713 C723 0.930 . S
C714 H708 0.930 . S
C714 C715 1.355 . S
C714 C716 1.415 . S
C715 C714 1.355 . S
C715 C717 1.419 . S
C716 C714 1.415 . S
C716 C721 1.425 . S
C716 C723 1.409 . S
C717 H709 0.930 . S
C717 C715 1.419 . S
C717 C718 1.362 . S
C718 H710 0.930 . S
C718 C717 1.362 . S
C718 C721 1.409 . S
C719 H711 0.930 . S
C719 C720 1.355 . S
C719 C721 1.415 . S
C720 C719 1.355 . S
C720 C722 1.419 . S
C721 C716 1.425 . S
C721 C718 1.409 . S
C721 C719 1.415 . S
C722 H712 0.930 . S
C722 C720 1.419 . S
C722 C723 1.362 . S
C723 H713 0.930 . S
C723 C716 1.409 . S
C723 C722 1.362 . S
H724 C730 0.930 . S
H725 C733 0.930 . S
H726 C734 0.930 . S
H727 C735 0.930 . S
H728 C738 0.930 . S
H729 C739 0.930 . S
C730 H724 0.930 . S
C730 C731 1.355 . S
C730 C732 1.415 . S
C731 C730 1.355 . S
C731 C733 1.419 . S
C732 C730 1.415 . S
C732 C737 1.425 . S
C732 C739 1.409 . S
C733 H725 0.930 . S
C733 C731 1.419 . S
C733 C734 1.362 . S
C734 H726 0.930 . S
C734 C733 1.362 . S
C734 C737 1.409 . S
C735 H727 0.930 . S
C735 C736 1.355 . S
C735 C737 1.415 . S
C736 C735 1.355 . S
C736 C738 1.419 . S
C737 C732 1.425 . S
C737 C734 1.409 . S
C737 C735 1.415 . S
C738 H728 0.930 . S
C738 C736 1.419 . S
C738 C739 1.362 . S
C739 H729 0.930 . S
C739 C732 1.409 . S
C739 C738 1.362 . S
H740 C746 0.930 . S
H741 C749 0.930 . S
H742 C750 0.930 . S
H743 C751 0.930 . S
H744 C754 0.930 . S
H745 C755 0.930 . S
C746 H740 0.930 . S
C746 C747 1.355 . S
C746 C748 1.415 . S
C747 C746 1.355 . S
C747 C749 1.419 . S
C748 C746 1.415 . S
C748 C753 1.425 . S
C748 C755 1.409 . S
C749 H741 0.930 . S
C749 C747 1.419 . S
C749 C750 1.362 . S
C750 H742 0.930 . S
C750 C749 1.362 . S
C750 C753 1.409 . S
C751 H743 0.930 . S
C751 C752 1.355 . S
C751 C753 1.415 . S
C752 C751 1.355 . S
C752 C754 1.419 . S
C753 C748 1.425 . S
C753 C750 1.409 . S
C753 C751 1.415 . S
C754 H744 0.930 . S
C754 C752 1.419 . S
C754 C755 1.362 . S
C755 H745 0.930 . S
C755 C748 1.409 . S
C755 C754 1.362 . S
H756 C762 0.930 . S
H757 C765 0.930 . S
H758 C766 0.930 . S
H759 C767 0.930 . S
H760 C770 0.930 . S
H761 C771 0.930 . S
C762 H756 0.930 . S
C762 C763 1.355 . S
C762 C764 1.415 . S
C763 C762 1.355 . S
C763 C765 1.419 . S
C764 C762 1.415 . S
C764 C769 1.425 . S
C764 C771 1.409 . S
C765 H757 0.930 . S
C765 C763 1.419 . S
C765 C766 1.362 . S
C766 H758 0.930 . S
C766 C765 1.362 . S
C766 C769 1.409 . S
C767 H759 0.930 . S
C767 C768 1.355 . S
C767 C769 1.415 . S
C768 C767 1.355 . S
C768 C770 1.419 . S
C769 C764 1.425 . S
C769 C766 1.409 . S
C769 C767 1.415 . S
C770 H760 0.930 . S
C770 C768 1.419 . S
C770 C771 1.362 . S
C771 H761 0.930 . S
C771 C764 1.409 . S
C771 C770 1.362 . S
H772 C778 0.930 . S
H773 C781 0.930 . S
H774 C782 0.930 . S
H775 C783 0.930 . S
H776 C786 0.930 . S
H777 C787 0.930 . S
C778 H772 0.930 . S
C778 C779 1.355 . S
C778 C780 1.415 1_554 S
C779 C778 1.355 . S
C779 C781 1.419 . S
C780 C778 1.415 1_556 S
C780 C785 1.425 . S
C780 C787 1.409 . S
C781 H773 0.930 . S
C781 C779 1.419 . S
C781 C782 1.362 . S
C782 H774 0.930 . S
C782 C781 1.362 . S
C782 C785 1.409 1_554 S
C783 H775 0.930 . S
C783 C784 1.355 . S
C783 C785 1.415 . S
C784 C783 1.355 . S
C784 C786 1.419 . S
C785 C780 1.425 . S
C785 C782 1.409 1_556 S
C785 C783 1.415 . S
C786 H776 0.930 . S
C786 C784 1.419 . S
C786 C787 1.362 . S
C787 H777 0.930 . S
C787 C780 1.409 . S
C787 C786 1.362 . S
H788 C794 0.930 . S
H789 C797 0.930 . S
H790 C798 0.930 . S
H791 C799 0.930 . S
H792 C802 0.930 . S
H793 C803 0.930 . S
C794 H788 0.930 . S
C794 C795 1.355 . S
C794 C796 1.415 . S
C795 C794 1.355 . S
C795 C797 1.419 . S
C796 C794 1.415 . S
C796 C801 1.425 . S
C796 C803 1.409 . S
C797 H789 0.930 . S
C797 C795 1.419 . S
C797 C798 1.362 . S
C798 H790 0.930 . S
C798 C797 1.362 . S
C798 C801 1.409 . S
C799 H791 0.930 . S
C799 C800 1.355 . S
C799 C801 1.415 . S
C800 C799 1.355 . S
C800 C802 1.419 . S
C801 C796 1.425 . S
C801 C798 1.409 . S
C801 C799 1.415 . S
C802 H792 0.930 . S
C802 C800 1.419 . S
C802 C803 1.362 . S
C803 H793 0.930 . S
C803 C796 1.409 . S
C803 C802 1.362 . S
H804 C810 0.930 . S
H805 C813 0.930 . S
H806 C814 0.930 . S
H807 C815 0.930 . S
H808 C818 0.930 . S
H809 C819 0.930 . S
C810 H804 0.930 . S
C810 C811 1.355 . S
C810 C812 1.415 . S
C811 C810 1.355 . S
C811 C813 1.419 . S
C812 C810 1.415 . S
C812 C817 1.425 . S
C812 C819 1.409 . S
C813 H805 0.930 . S
C813 C811 1.419 . S
C813 C814 1.362 . S
C814 H806 0.930 . S
C814 C813 1.362 . S
C814 C817 1.409 . S
C815 H807 0.930 . S
C815 C816 1.355 . S
C815 C817 1.415 . S
C816 C815 1.355 . S
C816 C818 1.419 . S
C817 C812 1.425 . S
C817 C814 1.409 . S
C817 C815 1.415 . S
C818 H808 0.930 . S
C818 C816 1.419 . S
C818 C819 1.362 . S
C819 H809 0.930 . S
C819 C812 1.409 . S
C819 C818 1.362 . S
H820 C826 0.930 . S
H821 C829 0.930 . S
H822 C830 0.930 . S
H823 C831 0.930 . S
H824 C834 0.930 . S
H825 C835 0.930 . S
C826 H820 0.930 . S
C826 C827 1.355 . S
C826 C828 1.415 . S
C827 C826 1.355 . S
C827 C829 1.419 . S
C828 C826 1.415 . S
C828 C833 1.425 . S
C828 C835 1.409 . S
C829 H821 0.930 . S
C829 C827 1.419 . S
C829 C830 1.362 . S
C830 H822 0.930 . S
C830 C829 1.362 . S
C830 C833 1.409 . S
C831 H823 0.930 . S
C831 C832 1.355 . S
C831 C833 1.415 . S
C832 C831 1.355 . S
C832 C834 1.419 . S
C833 C828 1.425 . S
C833 C830 1.409 . S
C833 C831 1.415 . S
C834 H824 0.930 . S
C834 C832 1.419 . S
C834 C835 1.362 . S
C835 H825 0.930 . S
C835 C828 1.409 . S
C835 C834 1.362 . S
H836 C842 0.930 . S
H837 C845 0.930 . S
H838 C846 0.930 . S
H839 C847 0.930 . S
H840 C850 0.930 . S
H841 C851 0.930 . S
C842 H836 0.930 . S
C842 C843 1.355 . S
C842 C844 1.415 . S
C843 C842 1.355 . S
C843 C845 1.419 . S
C844 C842 1.415 . S
C844 C849 1.425 . S
C844 C851 1.409 . S
C845 H837 0.930 . S
C845 C843 1.419 . S
C845 C846 1.362 . S
C846 H838 0.930 . S
C846 C845 1.362 . S
C846 C849 1.409 . S
C847 H839 0.930 . S
C847 C848 1.355 . S
C847 C849 1.415 . S
C848 C847 1.355 . S
C848 C850 1.419 . S
C849 C844 1.425 . S
C849 C846 1.409 . S
C849 C847 1.415 . S
C850 H840 0.930 . S
C850 C848 1.419 . S
C850 C851 1.362 . S
C851 H841 0.930 . S
C851 C844 1.409 . S
C851 C850 1.362 . S
H852 C858 0.930 . S
H853 C861 0.930 . S
H854 C862 0.930 . S
H855 C863 0.930 . S
H856 C866 0.930 . S
H857 C867 0.930 . S
C858 H852 0.930 . S
C858 C859 1.355 . S
C858 C860 1.415 . S
C859 C858 1.355 . S
C859 C861 1.419 . S
C860 C858 1.415 . S
C860 C865 1.425 . S
C860 C867 1.409 . S
C861 H853 0.930 . S
C861 C859 1.419 . S
C861 C862 1.362 . S
C862 H854 0.930 . S
C862 C861 1.362 . S
C862 C865 1.409 . S
C863 H855 0.930 . S
C863 C864 1.355 . S
C863 C865 1.415 . S
C864 C863 1.355 . S
C864 C866 1.419 . S
C865 C860 1.425 . S
C865 C862 1.409 . S
C865 C863 1.415 . S
C866 H856 0.930 . S
C866 C864 1.419 . S
C866 C867 1.362 . S
C867 H857 0.930 . S
C867 C860 1.409 . S
C867 C866 1.362 . S
H868 C874 0.930 . S
H869 C877 0.930 . S
H870 C878 0.930 . S
H871 C879 0.930 . S
H872 C882 0.930 . S
H873 C883 0.930 . S
C874 H868 0.930 . S
C874 C875 1.355 . S
C874 C876 1.415 . S
C875 C874 1.355 . S
C875 C877 1.419 . S
C876 C874 1.415 . S
C876 C881 1.425 . S
C876 C883 1.409 . S
C877 H869 0.930 . S
C877 C875 1.419 . S
C877 C878 1.362 . S
C878 H870 0.930 . S
C878 C877 1.362 . S
C878 C881 1.409 . S
C879 H871 0.930 . S
C879 C880 1.355 . S
C879 C881 1.415 . S
C880 C879 1.355 . S
C880 C882 1.419 . S
C881 C876 1.425 . S
C881 C878 1.409 . S
C881 C879 1.415 . S
C882 H872 0.930 . S
C882 C880 1.419 . S
C882 C883 1.362 . S
C883 H873 0.930 . S
C883 C876 1.409 . S
C883 C882 1.362 . S
H884 C890 0.930 . S
H885 C893 0.930 . S
H886 C894 0.930 . S
H887 C895 0.930 1_554 S
H888 C898 0.930 . S
H889 C899 0.930 . S
C890 H884 0.930 . S
C890 C891 1.355 . S
C890 C892 1.415 . S
C891 C890 1.355 . S
C891 C893 1.419 . S
C892 C890 1.415 . S
C892 C897 1.425 . S
C892 C899 1.409 . S
C893 H885 0.930 . S
C893 C891 1.419 . S
C893 C894 1.362 . S
C894 H886 0.930 . S
C894 C893 1.362 . S
C894 C897 1.409 . S
C895 H887 0.930 1_556 S
C895 C896 1.355 . S
C895 C897 1.415 . S
C896 C895 1.355 . S
C896 C898 1.419 . S
C897 C892 1.425 . S
C897 C894 1.409 . S
C897 C895 1.415 . S
C898 H888 0.930 . S
C898 C896 1.419 . S
C898 C899 1.362 . S
C899 H889 0.930 . S
C899 C892 1.409 . S
C899 C898 1.362 . S
H900 C906 0.930 . S
H901 C909 0.930 . S
H902 C910 0.930 . S
H903 C911 0.930 . S
H904 C914 0.930 . S
H905 C915 0.930 . S
C906 H900 0.930 . S
C906 C907 1.355 . S
C906 C908 1.415 . S
C907 C906 1.355 . S
C907 C909 1.419 . S
C908 C906 1.415 . S
C908 C913 1.425 . S
C908 C915 1.409 . S
C909 H901 0.930 . S
C909 C907 1.419 . S
C909 C910 1.362 . S
C910 H902 0.930 . S
C910 C909 1.362 . S
C910 C913 1.409 . S
C911 H903 0.930 . S
C911 C912 1.355 . S
C911 C913 1.415 . S
C912 C911 1.355 . S
C912 C914 1.419 . S
C913 C908 1.425 . S
C913 C910 1.409 . S
C913 C911 1.415 . S
C914 H904 0.930 . S
C914 C912 1.419 . S
C914 C915 1.362 . S
C915 H905 0.930 . S
C915 C908 1.409 . S
C915 C914 1.362 . S
H916 C922 0.930 . S
H917 C925 0.930 . S
H918 C926 0.930 . S
H919 C927 0.930 . S
H920 C930 0.930 . S
H921 C931 0.930 . S
C922 H916 0.930 . S
C922 C923 1.355 . S
C922 C924 1.415 . S
C923 C922 1.355 . S
C923 C925 1.419 . S
C924 C922 1.415 . S
C924 C929 1.425 . S
C924 C931 1.409 . S
C925 H917 0.930 . S
C925 C923 1.419 . S
C925 C926 1.362 . S
C926 H918 0.930 . S
C926 C925 1.362 . S
C926 C929 1.409 . S
C927 H919 0.930 . S
C927 C928 1.355 . S
C927 C929 1.415 1_554 S
C928 C927 1.355 . S
C928 C930 1.419 . S
C929 C924 1.425 . S
C929 C926 1.409 . S
C929 C927 1.415 1_556 S
C930 H920 0.930 . S
C930 C928 1.419 . S
C930 C931 1.362 1_554 S
C931 H921 0.930 . S
C931 C924 1.409 . S
C931 C930 1.362 1_556 S
H932 C938 0.930 . S
H933 C941 0.930 . S
H934 C942 0.930 . S
H935 C943 0.930 . S
H936 C946 0.930 . S
H937 C947 0.930 . S
C938 H932 0.930 . S
C938 C939 1.355 . S
C938 C940 1.415 . S
C939 C938 1.355 . S
C939 C941 1.419 . S
C940 C938 1.415 . S
C940 C945 1.425 . S
C940 C947 1.409 . S
C941 H933 0.930 . S
C941 C939 1.419 . S
C941 C942 1.362 . S
C942 H934 0.930 . S
C942 C941 1.362 . S
C942 C945 1.409 . S
C943 H935 0.930 . S
C943 C944 1.355 . S
C943 C945 1.415 . S
C944 C943 1.355 . S
C944 C946 1.419 . S
C945 C940 1.425 . S
C945 C942 1.409 . S
C945 C943 1.415 . S
C946 H936 0.930 . S
C946 C944 1.419 . S
C946 C947 1.362 . S
C947 H937 0.930 . S
C947 C940 1.409 . S
C947 C946 1.362 . S
H948 C954 0.930 . S
H949 C957 0.930 . S
H950 C958 0.930 . S
H951 C959 0.930 . S
H952 C962 0.930 . S
H953 C963 0.930 . S
C954 H948 0.930 . S
C954 C955 1.355 . S
C954 C956 1.415 . S
C955 C954 1.355 . S
C955 C957 1.419 . S
C956 C954 1.415 . S
C956 C961 1.425 . S
C956 C963 1.409 . S
C957 H949 0.930 . S
C957 C955 1.419 . S
C957 C958 1.362 . S
C958 H950 0.930 . S
C958 C957 1.362 . S
C958 C961 1.409 . S
C959 H951 0.930 . S
C959 C960 1.355 . S
C959 C961 1.415 . S
C960 C959 1.355 . S
C960 C962 1.419 . S
C961 C956 1.425 . S
C961 C958 1.409 . S
C961 C959 1.415 . S
C962 H952 0.930 . S
C962 C960 1.419 . S
C962 C963 1.362 . S
C963 H953 0.930 . S
C963 C956 1.409 . S
C963 C962 1.362 . S
H964 C970 0.930 . S
H965 C973 0.930 . S
H966 C974 0.930 . S
H967 C975 0.930 . S
H968 C978 0.930 . S
H969 C979 0.930 . S
C970 H964 0.930 . S
C970 C971 1.355 . S
C970 C972 1.415 . S
C971 C970 1.355 . S
C971 C973 1.419 . S
C972 C970 1.415 . S
C972 C977 1.425 . S
C972 C979 1.409 . S
C973 H965 0.930 . S
C973 C971 1.419 . S
C973 C974 1.362 . S
C974 H966 0.930 . S
C974 C973 1.362 . S
C974 C977 1.409 . S
C975 H967 0.930 . S
C975 C976 1.355 . S
C975 C977 1.415 . S
C976 C975 1.355 . S
C976 C978 1.419 . S
C977 C972 1.425 . S
C977 C974 1.409 . S
C977 C975 1.415 . S
C978 H968 0.930 . S
C978 C976 1.419 . S
C978 C979 1.362 . S
C979 H969 0.930 . S
C979 C972 1.409 . S
C979 C978 1.362 . S
H980 C986 0.930 . S
H981 C989 0.930 . S
H982 C990 0.930 . S
H983 C991 0.930 . S
H984 C994 0.930 . S
H985 C995 0.930 . S
C986 H980 0.930 . S
C986 C987 1.355 . S
C986 C988 1.415 . S
C987 C986 1.355 . S
C987 C989 1.419 . S
C988 C986 1.415 . S
C988 C993 1.425 . S
C988 C995 1.409 . S
C989 H981 0.930 . S
C989 C987 1.419 . S
C989 C990 1.362 . S
C990 H982 0.930 . S
C990 C989 1.362 . S
C990 C993 1.409 . S
C991 H983 0.930 . S
C991 C992 1.355 . S
C991 C993 1.415 . S
C992 C991 1.355 . S
C992 C994 1.419 . S
C993 C988 1.425 . S
C993 C990 1.409 . S
C993 C991 1.415 . S
C994 H984 0.930 . S
C994 C992 1.419 . S
C994 C995 1.362 . S
C995 H985 0.930 . S
C995 C988 1.409 . S
C995 C994 1.362 . S
H996 C1002 0.930 1_556 S
H997 C1005 0.930 . S
H998 C1006 0.929 . S
H999 C1007 0.930 . S
H1000 C1010 0.930 . S
H1001 C1011 0.929 . S
C1002 H996 0.930 1_554 S
C1002 C1003 1.355 . S
C1002 C1004 1.415 . S
C1003 C1002 1.355 . S
C1003 C1005 1.419 . S
C1004 C1002 1.415 . S
C1004 C1009 1.425 1_545 S
C1004 C1011 1.409 1_544 S
C1005 H997 0.930 . S
C1005 C1003 1.419 . S
C1005 C1006 1.362 . S
C1006 H998 0.929 . S
C1006 C1005 1.362 . S
C1006 C1009 1.409 1_545 S
C1007 H999 0.930 . S
C1007 C1008 1.355 . S
C1007 C1009 1.415 . S
C1008 C1007 1.355 . S
C1008 C1010 1.419 1_554 S
C1009 C1004 1.425 1_565 S
C1009 C1006 1.409 1_565 S
C1009 C1007 1.415 . S
C1010 H1000 0.930 . S
C1010 C1008 1.419 1_556 S
C1010 C1011 1.362 . S
C1011 H1001 0.929 . S
C1011 C1004 1.409 1_566 S
C1011 C1010 1.362 . S
H1012 C1018 0.930 . S
H1013 C1021 0.930 . S
H1014 C1022 0.930 . S
H1015 C1023 0.930 . S
H1016 C1026 0.930 . S
H1017 C1027 0.930 . S
C1018 H1012 0.930 . S
C1018 C1019 1.355 . S
C1018 C1020 1.415 . S
C1019 C1018 1.355 . S
C1019 C1021 1.419 . S
C1020 C1018 1.415 . S
C1020 C1025 1.425 . S
C1020 C1027 1.409 . S
C1021 H1013 0.930 . S
C1021 C1019 1.419 . S
C1021 C1022 1.362 . S
C1022 H1014 0.930 . S
C1022 C1021 1.362 . S
C1022 C1025 1.409 . S
C1023 H1015 0.930 . S
C1023 C1024 1.355 . S
C1023 C1025 1.415 . S
C1024 C1023 1.355 . S
C1024 C1026 1.419 . S
C1025 C1020 1.425 . S
C1025 C1022 1.409 . S
C1025 C1023 1.415 . S
C1026 H1016 0.930 . S
C1026 C1024 1.419 . S
C1026 C1027 1.362 . S
C1027 H1017 0.930 . S
C1027 C1020 1.409 . S
C1027 C1026 1.362 . S
H1028 C1034 0.930 . S
H1029 C1037 0.930 . S
H1030 C1038 0.930 . S
H1031 C1039 0.930 . S
H1032 C1042 0.930 . S
H1033 C1043 0.930 . S
C1034 H1028 0.930 . S
C1034 C1035 1.355 . S
C1034 C1036 1.415 . S
C1035 C1034 1.355 . S
C1035 C1037 1.419 . S
C1036 C1034 1.415 . S
C1036 C1041 1.425 1_455 S
C1036 C1043 1.409 1_455 S
C1037 H1029 0.930 . S
C1037 C1035 1.419 . S
C1037 C1038 1.362 . S
C1038 H1030 0.930 . S
C1038 C1037 1.362 . S
C1038 C1041 1.409 1_455 S
C1039 H1031 0.930 . S
C1039 C1040 1.355 . S
C1039 C1041 1.415 . S
C1040 C1039 1.355 . S
C1040 C1042 1.419 . S
C1041 C1036 1.425 1_655 S
C1041 C1038 1.409 1_655 S
C1041 C1039 1.415 . S
C1042 H1032 0.930 . S
C1042 C1040 1.419 . S
C1042 C1043 1.362 . S
C1043 H1033 0.930 . S
C1043 C1036 1.409 1_655 S
C1043 C1042 1.362 . S
H1044 C1050 0.930 . S
H1045 C1053 0.930 . S
H1046 C1054 0.930 . S
H1047 C1055 0.930 . S
H1048 C1058 0.930 . S
H1049 C1059 0.930 . S
C1050 H1044 0.930 . S
C1050 C1051 1.355 . S
C1050 C1052 1.415 . S
C1051 C1050 1.355 . S
C1051 C1053 1.419 . S
C1052 C1050 1.415 . S
C1052 C1057 1.425 1_565 S
C1052 C1059 1.409 1_565 S
C1053 H1045 0.930 . S
C1053 C1051 1.419 . S
C1053 C1054 1.362 . S
C1054 H1046 0.930 . S
C1054 C1053 1.362 . S
C1054 C1057 1.409 1_565 S
C1055 H1047 0.930 . S
C1055 C1056 1.355 . S
C1055 C1057 1.415 . S
C1056 C1055 1.355 . S
C1056 C1058 1.419 . S
C1057 C1052 1.425 1_545 S
C1057 C1054 1.409 1_545 S
C1057 C1055 1.415 . S
C1058 H1048 0.930 . S
C1058 C1056 1.419 . S
C1058 C1059 1.362 . S
C1059 H1049 0.930 . S
C1059 C1052 1.409 1_545 S
C1059 C1058 1.362 . S
H1060 C1066 0.930 . S
H1061 C1069 0.930 . S
H1062 C1070 0.930 . S
H1063 C1071 0.930 . S
H1064 C1074 0.930 . S
H1065 C1075 0.930 . S
C1066 H1060 0.930 . S
C1066 C1067 1.355 . S
C1066 C1068 1.415 . S
C1067 C1066 1.355 . S
C1067 C1069 1.419 . S
C1068 C1066 1.415 . S
C1068 C1073 1.425 . S
C1068 C1075 1.409 . S
C1069 H1061 0.930 . S
C1069 C1067 1.419 . S
C1069 C1070 1.362 . S
C1070 H1062 0.930 . S
C1070 C1069 1.362 . S
C1070 C1073 1.409 . S
C1071 H1063 0.930 . S
C1071 C1072 1.355 . S
C1071 C1073 1.415 . S
C1072 C1071 1.355 . S
C1072 C1074 1.419 . S
C1073 C1068 1.425 . S
C1073 C1070 1.409 . S
C1073 C1071 1.415 . S
C1074 H1064 0.930 . S
C1074 C1072 1.419 . S
C1074 C1075 1.362 . S
C1075 H1065 0.930 . S
C1075 C1068 1.409 . S
C1075 C1074 1.362 . S
H1076 C1082 0.930 . S
H1077 C1085 0.930 . S
H1078 C1086 0.930 . S
H1079 C1087 0.930 . S
H1080 C1090 0.930 . S
H1081 C1091 0.930 . S
C1082 H1076 0.930 . S
C1082 C1083 1.355 . S
C1082 C1084 1.415 . S
C1083 C1082 1.355 . S
C1083 C1085 1.419 . S
C1084 C1082 1.415 . S
C1084 C1089 1.425 1_455 S
C1084 C1091 1.409 1_455 S
C1085 H1077 0.930 . S
C1085 C1083 1.419 . S
C1085 C1086 1.362 . S
C1086 H1078 0.930 . S
C1086 C1085 1.362 . S
C1086 C1089 1.409 1_455 S
C1087 H1079 0.930 . S
C1087 C1088 1.355 . S
C1087 C1089 1.415 . S
C1088 C1087 1.355 . S
C1088 C1090 1.419 . S
C1089 C1084 1.425 1_655 S
C1089 C1086 1.409 1_655 S
C1089 C1087 1.415 . S
C1090 H1080 0.930 . S
C1090 C1088 1.419 . S
C1090 C1091 1.362 . S
C1091 H1081 0.930 . S
C1091 C1084 1.409 1_655 S
C1091 C1090 1.362 . S
C715 C52 1.399 . S
C720 C642 1.411 . S
C731 C111 1.405 . S
C736 C701 1.403 . S
C747 C406 1.409 . S
C752 C170 1.400 . S
C763 C229 1.396 . S
C768 C465 1.413 . S
C779 C524 1.407 . S
C784 C288 1.401 . S
C795 C583 1.412 . S
C800 C347 1.398 1_554 S
C811 C475 1.419 . S
C816 C3 1.406 . S
C827 C62 1.410 . S
C832 C534 1.423 . S
C843 C593 1.399 . S
C848 C121 1.395 . S
C859 C180 1.434 . S
C864 C652 1.420 . S
C875 C239 1.395 . S
C880 C357 1.396 . S
C891 C298 1.413 . S
C896 C416 1.403 . S
C907 C595 1.417 . S
C912 C5 1.417 . S
C923 C654 1.438 . S
C928 C64 1.416 . S
C939 C359 1.437 1_554 S
C944 C123 1.423 . S
C955 C182 1.413 . S
C960 C418 1.423 . S
C971 C241 1.438 . S
C976 C477 1.414 . S
C987 C536 1.437 . S
C992 C300 1.421 . S
C1003 C33 1.434 . S
C1008 C446 1.426 . S
C1019 C505 1.410 . S
C1024 C92 1.408 . S
C1035 C564 1.434 . S
C1040 C151 1.415 . S
C1051 C210 1.406 . S
C1056 C623 1.424 . S
C1067 C269 1.431 . S
C1072 C682 1.411 . S
C1083 C328 1.419 . S
C1088 C387 1.405 . S
