# Generated by pormake.
# Topology reo, (8)-cn, num edge types: 1
# Building blocks:
#     Node 0, Type 0, BuildingBlock: EBIMEJ_clean_sbu_0, # of connection points: 8
#     Node 1, Type 0, BuildingBlock: EBIMEJ_clean_sbu_0, # of connection points: 8
#     Node 2, Type 0, BuildingBlock: EBIMEJ_clean_sbu_0, # of connection points: 8
#     Edge 3, Type (0, 0), BuildingBlock: XUDNAN_clean_linker_2, # of connection points: 2
#     Edge 4, Type (0, 0), BuildingBlock: XUDNAN_clean_linker_2, # of connection points: 2
#     Edge 5, Type (0, 0), BuildingBlock: XUDNAN_clean_linker_2, # of connection points: 2
#     Edge 6, Type (0, 0), BuildingBlock: XUDNAN_clean_linker_2, # of connection points: 2
#     Edge 7, Type (0, 0), BuildingBlock: XUDNAN_clean_linker_2, # of connection points: 2
#     Edge 8, Type (0, 0), BuildingBlock: XUDNAN_clean_linker_2, # of connection points: 2
#     Edge 9, Type (0, 0), BuildingBlock: XUDNAN_clean_linker_2, # of connection points: 2
#     Edge 10, Type (0, 0), BuildingBlock: XUDNAN_clean_linker_2, # of connection points: 2
#     Edge 11, Type (0, 0), BuildingBlock: XUDNAN_clean_linker_2, # of connection points: 2
#     Edge 12, Type (0, 0), BuildingBlock: XUDNAN_clean_linker_2, # of connection points: 2
#     Edge 13, Type (0, 0), BuildingBlock: XUDNAN_clean_linker_2, # of connection points: 2
#     Edge 14, Type (0, 0), BuildingBlock: XUDNAN_clean_linker_2, # of connection points: 2
# Relax obj value: 0.145
# Max RMSD: 0.257
# Mean RMSD: 0.248
data_MOF--net-reo--node1-EBIMEJ_clean_sbu_0--edge1-XUDNAN_clean_linker_2
_symmetry_space_group_name_H-M    P1
_symmetry_Int_Tables_number       1
_symmetry_cell_setting            triclinic
loop_
_symmetry_equiv_pos_as_xyz
'x, y, z'
_cell_length_a     24.236636
_cell_length_b     24.512977
_cell_length_c     24.724473
_cell_angle_alpha  91.776314
_cell_angle_beta   91.672187
_cell_angle_gamma 100.59022
loop_
_atom_site_label
_atom_site_type_symbol
_atom_site_fract_x
_atom_site_fract_y
_atom_site_fract_z
_atom_type_partial_charge
Co0 Co 1.00321 1.0222 0.39676 0.0
Co1 Co 0.01742 0.08741 0.51167 0.0
Co2 Co 1.01414 0.96301 0.50671 0.0
H3 H 0.99993 1.00061 0.46048 0.0
O4 O 0.97709 1.02204 0.46986 0.0
H5 H 0.03061 0.04973 0.55806 0.0
O6 O 0.05363 0.02833 0.54907 0.0
Co7 Co 0.02591 0.02861 0.62176 0.0
O8 O 0.03052 0.11152 0.63937 0.0
O9 O 0.05572 0.15066 0.5606 0.0
O10 O 1.00307 0.94509 0.63057 0.0
O11 O 0.03888 0.90947 0.55785 0.0
O12 O 0.98276 0.05691 0.32666 0.0
O13 O 0.9243 0.99699 0.36278 0.0
O14 O 0.94338 1.01447 0.60584 0.0
O15 O 0.94551 0.08566 0.55193 0.0
C16 C 0.97911 0.89638 0.40599 0.0
C17 C 1.01148 0.14545 0.4118 0.0
C18 C 0.09692 1.02029 0.69237 0.0
C19 C 0.11081 1.00281 0.43484 0.0
C20 C 0.0491 0.15409 0.61181 0.0
C21 C 0.02104 0.90518 0.60625 0.0
C22 C 0.9334 0.03003 0.32494 0.0
C23 C 0.91892 0.04859 0.58165 0.0
O24 O 0.99412 0.93946 0.3781 0.0
O25 O 0.97701 0.89914 0.4578 0.0
O26 O 0.9937 0.14145 0.46024 0.0
O27 O 0.02869 0.10511 0.38756 0.0
O28 O 0.0474 0.99377 0.69146 0.0
O29 O 0.10547 0.05333 0.65449 0.0
O30 O 0.08548 0.03789 0.41332 0.0
O31 O 0.08553 0.96591 0.46557 0.0
Co32 Co 0.62056 0.0401 0.95842 0.0
Co33 Co 0.5062 0.08097 0.99727 0.0
Co34 Co 0.52507 0.96489 0.01891 0.0
H35 H 0.55979 1.00794 0.98257 0.0
O36 O 0.53942 1.02312 0.96071 0.0
H37 H 0.47048 0.0375 0.03344 0.0
O38 O 0.49102 1.02252 0.05536 0.0
Co39 Co 0.40969 1.0042 0.05759 0.0
O40 O 0.38294 0.07682 0.04414 0.0
O41 O 0.46389 0.13538 0.03179 0.0
O42 O 0.40349 0.92048 0.05427 0.0
O43 O 0.49182 0.90642 0.06864 0.0
O44 O 0.61712 1.00802 0.88036 0.0
O45 O 0.68462 0.06849 0.90834 0.0
O46 O 0.39837 0.97765 0.98037 0.0
O47 O 0.44113 0.05561 0.94434 0.0
C48 C 0.62079 0.92021 0.97711 0.0
C49 C 0.59515 0.15532 0.94844 0.0
C50 C 0.36183 0.99614 0.14499 0.0
C51 C 0.62332 0.03851 0.07502 0.0
C52 C 0.41078 0.12602 0.03929 0.0
C53 C 0.43856 0.88951 0.06717 0.0
C54 C 0.66261 0.03804 0.86879 0.0
C55 C 0.40734 1.00886 0.9404 0.0
O56 O 0.64934 0.96923 0.97429 0.0
O57 O 0.56756 0.91083 0.9837 0.0
O58 O 0.54156 0.13963 0.94804 0.0
O59 O 0.62952 0.12368 0.96122 0.0
O60 O 0.36692 0.95577 0.1146 0.0
O61 O 0.38267 0.04159 0.12534 0.0
O62 O 0.6316 0.06935 0.03475 0.0
O63 O 0.59035 0.99128 0.07133 0.0
Co64 Co 0.98574 0.63254 1.00599 0.0
Co65 Co 0.99971 0.51713 0.06719 0.0
Co66 Co 0.03395 0.53318 0.95069 0.0
H67 H 1.00143 0.57092 0.98544 0.0
O68 O 0.97427 0.55165 1.00217 0.0
H69 H 0.03211 0.47945 0.0321 0.0
O70 O 0.05936 0.49895 0.01571 0.0
Co71 Co 0.04784 0.41817 0.01052 0.0
O72 O 0.03116 0.39495 0.08721 0.0
O73 O 0.02273 0.47494 0.13018 0.0
O74 O 0.04503 0.40967 0.9286 0.0
O75 O 0.08098 0.49526 0.90181 0.0
O76 O 0.91508 0.64231 0.96144 0.0
O77 O 0.94188 0.69448 0.02818 0.0
O78 O 0.96781 0.40674 0.98246 0.0
O79 O 0.93402 0.45505 0.04776 0.0
C80 C 1.00844 0.62676 0.88652 0.0
C81 C 0.95979 0.6079 0.12343 0.0
C82 C 0.13084 0.37145 0.01949 0.0
C83 C 0.10626 0.62865 0.01139 0.0
C84 C 0.02733 0.42354 0.13064 0.0
C85 C 0.06807 0.44243 0.893 0.0
C86 C 0.90547 0.68214 0.99047 0.0
C87 C 0.92682 0.42056 1.00703 0.0
O88 O 1.0055 0.65575 0.92988 0.0
O89 O 1.01119 0.57495 0.88724 0.0
O90 O 0.95281 0.55474 0.11674 0.0
O91 O 0.98058 0.64123 0.08729 0.0
O92 O 0.08086 0.3461 0.01453 0.0
O93 O 0.13347 0.42304 0.01978 0.0
O94 O 0.06509 0.64198 0.03607 0.0
O95 O 0.09924 0.59523 0.96991 0.0
H96 H 0.05475 0.32205 0.14715 0.0
H97 H 0.99634 0.45727 0.2317 0.0
H98 H 0.98743 0.40269 0.315 0.0
H99 H 0.9627 0.21261 0.20543 0.0
H100 H 1.01362 0.16751 0.20793 0.0
H101 H 0.01745 0.21874 0.15698 0.0
H102 H 0.12012 0.25937 0.18849 0.0
H103 H 0.1165 0.20819 0.23957 0.0
H104 H 0.13562 0.28097 0.25852 0.0
H105 H 0.98024 0.32799 0.38876 0.0
H106 H 0.97972 0.2448 0.44394 0.0
H107 H 0.04461 0.16271 0.30816 0.0
C108 C 0.04044 0.34071 0.18315 0.0
C109 C 0.02618 0.39414 0.18263 0.0
C110 C 1.00782 0.4166 0.23101 0.0
C111 C 1.00243 0.38575 0.27849 0.0
C112 C 0.01592 0.33267 0.27708 0.0
C113 C 0.03502 0.31078 0.23051 0.0
C114 C 0.04594 0.25273 0.23826 0.0
C115 C 1.00763 0.21042 0.1999 0.0
C116 C 0.10824 0.25021 0.23079 0.0
C117 C 0.03003 0.24497 0.29657 0.0
C118 C 1.01253 0.2911 0.31861 0.0
C119 C 0.99432 0.2919 0.3718 0.0
C120 C 0.99413 0.24445 0.40292 0.0
C121 C 1.01219 0.19692 0.3808 0.0
C122 C 0.03059 0.19801 0.32692 0.0
H123 H 0.83256 0.96395 0.29812 0.0
H124 H 0.93451 0.12513 0.27159 0.0
H125 H 0.85703 0.15049 0.21675 0.0
H126 H 0.77503 0.94252 0.16516 0.0
H127 H 0.70704 0.90724 0.18476 0.0
H128 H 0.76825 0.90481 0.22679 0.0
H129 H 0.72037 0.94379 0.3083 0.0
H130 H 0.65943 0.94752 0.26595 0.0
H131 H 0.69611 1.00871 0.30281 0.0
H132 H 0.77148 0.1571 0.16291 0.0
H133 H 0.69026 0.13893 0.09888 0.0
H134 H 0.64462 0.97163 0.15683 0.0
C135 C 0.83822 1.00463 0.28091 0.0
C136 C 0.88904 0.04281 0.28889 0.0
C137 C 0.89576 0.09536 0.26541 0.0
C138 C 0.85179 0.11037 0.23498 0.0
C139 C 0.80175 0.07212 0.22843 0.0
C140 C 0.79503 1.01995 0.24977 0.0
C141 C 0.73933 0.98453 0.23168 0.0
C142 C 0.74796 0.93169 0.20022 0.0
C143 C 0.70159 0.97031 0.28008 0.0
C144 C 0.71672 0.02433 0.19523 0.0
C145 C 0.75265 0.07518 0.19541 0.0
C146 C 0.74278 0.11764 0.16258 0.0
C147 C 0.69651 0.10683 0.12635 0.0
C148 C 0.6615 0.05362 0.12262 0.0
C149 C 0.67031 1.0128 0.1592 0.0
H150 H 0.94917 0.87799 0.29929 0.0
H151 H 0.98158 0.79158 0.44387 0.0
H152 H 0.97011 0.7032 0.38913 0.0
H153 H 0.84546 0.76724 0.23252 0.0
H154 H 0.87285 0.7842 0.16685 0.0
H155 H 0.87741 0.83777 0.21917 0.0
H156 H 0.98508 0.8623 0.20693 0.0
H157 H 0.97978 0.80846 0.15499 0.0
H158 H 0.02662 0.80872 0.21301 0.0
H159 H 0.9639 0.62502 0.31344 0.0
H160 H 0.96429 0.56909 0.2277 0.0
H161 H 0.93279 0.70945 0.13703 0.0
C162 C 0.95298 0.84042 0.31988 0.0
C163 C 0.96603 0.84175 0.37599 0.0
C164 C 0.97089 0.7915 0.40103 0.0
C165 C 0.96459 0.74113 0.37017 0.0
C166 C 0.9527 0.74165 0.31451 0.0
C167 C 0.94657 0.79026 0.28999 0.0
C168 C 0.93736 0.78166 0.22948 0.0
C169 C 0.87976 0.79342 0.21101 0.0
C170 C 0.98506 0.81737 0.19938 0.0
C171 C 0.93946 0.72063 0.22323 0.0
C172 C 0.94836 0.69771 0.27235 0.0
C173 C 0.95587 0.64252 0.27498 0.0
C174 C 0.95558 0.61081 0.22615 0.0
C175 C 0.94809 0.63463 0.17559 0.0
C176 C 0.93826 0.68966 0.17486 0.0
H177 H 0.32269 0.07552 0.20482 0.0
H178 H 0.34064 0.90274 0.20323 0.0
H179 H 0.29361 0.89107 0.29049 0.0
H180 H 0.33629 0.10326 0.35396 0.0
H181 H 0.28232 0.145 0.35288 0.0
H182 H 0.32584 0.14254 0.29527 0.0
H183 H 0.23715 0.11142 0.23263 0.0
H184 H 0.19366 0.11475 0.28978 0.0
H185 H 0.18648 0.0513 0.24923 0.0
H186 H 0.23553 0.8951 0.37167 0.0
H187 H 0.16141 0.91141 0.43331 0.0
H188 H 0.18102 0.08143 0.38215 0.0
C189 C 0.31787 0.03568 0.22363 0.0
C190 C 0.33576 0.99021 0.19794 0.0
C191 C 0.32741 0.93816 0.22267 0.0
C192 C 0.30123 0.93128 0.2724 0.0
C193 C 0.2836 0.97684 0.29672 0.0
C194 C 0.29112 0.02793 0.2729 0.0
C195 C 0.26167 0.06802 0.30334 0.0
C196 C 0.30409 0.11763 0.32783 0.0
C197 C 0.21711 0.08746 0.26658 0.0
C198 C 0.23501 0.03098 0.34697 0.0
C199 C 0.24912 0.97892 0.34327 0.0
C200 C 0.22494 0.936 0.37573 0.0
C201 C 0.1831 0.94571 0.41093 0.0
C202 C 0.16554 0.99767 0.41256 0.0
C203 C 0.19399 0.04143 0.38219 0.0
H204 H 0.98637 0.88633 0.70916 0.0
H205 H 0.05552 0.80717 0.57413 0.0
H206 H 0.05622 0.72394 0.62897 0.0
H207 H 0.06841 0.8386 0.81228 0.0
H208 H 1.01302 0.83103 0.86007 0.0
H209 H 0.01594 0.88198 0.80891 0.0
H210 H 0.91429 0.83875 0.77623 0.0
H211 H 0.91107 0.78742 0.82716 0.0
H212 H 0.89725 0.76591 0.75693 0.0
H213 H 0.04992 0.64882 0.70256 0.0
H214 H 0.04149 0.59402 0.78583 0.0
H215 H 0.97829 0.72678 0.86955 0.0
C216 C 1.00154 0.85164 0.6905 0.0
C217 C 0.02087 0.85361 0.63697 0.0
C218 C 0.04041 0.80685 0.61492 0.0
C219 C 0.04091 0.75937 0.64584 0.0
C220 C 0.02185 0.75933 0.69874 0.0
C221 C 1.00276 0.80466 0.72066 0.0
C222 C 0.98628 0.79617 0.77873 0.0
C223 C 0.02312 0.8395 0.81724 0.0
C224 C 0.9235 0.7971 0.7851 0.0
C225 C 0.99885 0.73877 0.78651 0.0
C226 C 0.01909 0.71767 0.74016 0.0
C227 C 0.03403 0.66517 0.7389 0.0
C228 C 0.02889 0.63418 0.78633 0.0
C229 C 1.00941 0.65598 0.83447 0.0
C230 C 0.99364 0.70872 0.83375 0.0
H231 H 0.38667 0.07651 0.85892 0.0
H232 H 0.34077 0.90861 0.91521 0.0
H233 H 0.25997 0.89095 0.85077 0.0
H234 H 0.258 0.10596 0.85095 0.0
H235 H 0.26408 0.14401 0.78951 0.0
H236 H 0.32582 0.14103 0.83052 0.0
H237 H 0.37234 0.10073 0.74912 0.0
H238 H 0.31143 0.10528 0.70707 0.0
H239 H 0.33509 0.04001 0.71192 0.0
H240 H 0.17433 0.89824 0.79774 0.0
H241 H 0.0963 0.92456 0.74452 0.0
H242 H 0.1986 0.08559 0.71812 0.0
C243 C 0.36106 0.03531 0.85599 0.0
C244 C 0.36961 0.99421 0.89237 0.0
C245 C 0.33472 0.94096 0.88796 0.0
C246 C 0.28872 0.9304 0.85142 0.0
C247 C 0.27905 0.97308 0.81881 0.0
C248 C 0.31508 0.02392 0.81934 0.0
C249 C 0.29228 0.06409 0.78338 0.0
C250 C 0.28459 0.11684 0.81555 0.0
C251 C 0.33003 0.07835 0.73499 0.0
C252 C 0.23637 0.02897 0.76547 0.0
C253 C 0.22978 0.97653 0.78617 0.0
C254 C 0.17953 0.93853 0.77987 0.0
C255 C 0.13525 0.95408 0.75033 0.0
C256 C 0.14186 1.00688 0.72736 0.0
C257 C 0.19297 0.04473 0.73495 0.0
H258 H 0.99141 0.36205 0.84371 0.0
H259 H 0.15501 0.46285 0.82116 0.0
H260 H 0.16548 0.40509 0.7386 0.0
H261 H 0.02239 0.23528 0.81399 0.0
H262 H 0.9566 0.20742 0.77881 0.0
H263 H 0.95982 0.26178 0.82969 0.0
H264 H 0.91668 0.31846 0.76039 0.0
H265 H 0.91767 0.26911 0.7049 0.0
H266 H 0.9532 0.33952 0.6998 0.0
H267 H 0.15986 0.32702 0.66277 0.0
H268 H 0.13979 0.23988 0.60538 0.0
H269 H 0.98201 0.19155 0.68414 0.0
C270 C 0.02912 0.37276 0.82085 0.0
C271 C 0.07249 0.41675 0.83869 0.0
C272 C 0.12104 0.42963 0.8077 0.0
C273 C 0.12731 0.39684 0.76099 0.0
C274 C 0.08427 0.35212 0.74574 0.0
C275 C 0.03585 0.34085 0.77476 0.0
C276 C 0.99656 0.28946 0.75277 0.0
C277 C 0.98313 0.24595 0.79642 0.0
C278 C 0.94281 0.30503 0.72812 0.0
C279 C 0.03191 0.27056 0.70924 0.0
C280 C 0.08161 0.30788 0.70415 0.0
C281 C 0.12085 0.29796 0.66641 0.0
C282 C 0.10918 0.24848 0.63396 0.0
C283 C 0.05949 0.20906 0.64065 0.0
C284 C 0.02039 0.22087 0.67833 0.0
H285 H 0.75852 0.10339 0.8378 0.0
H286 H 0.62268 0.97233 0.77922 0.0
H287 H 0.66664 0.97141 0.69004 0.0
H288 H 0.78048 0.17708 0.71233 0.0
H289 H 0.85569 0.19113 0.72228 0.0
H290 H 0.81163 0.18557 0.77998 0.0
H291 H 0.86137 0.11015 0.81789 0.0
H292 H 0.90637 0.11415 0.76106 0.0
H293 H 0.86424 0.04865 0.77691 0.0
H294 H 0.73286 0.97666 0.61204 0.0
H295 H 0.81596 0.98629 0.55435 0.0
H296 H 0.90352 0.11817 0.66212 0.0
C297 C 0.73752 0.07508 0.80595 0.0
C298 C 0.68722 0.03813 0.81508 0.0
C299 C 0.66128 1.00116 0.77275 0.0
C300 C 0.68576 1.00056 0.72198 0.0
C301 C 0.73569 0.0376 0.71429 0.0
C302 C 0.76113 0.07411 0.75527 0.0
C303 C 0.81682 0.10635 0.7388 0.0
C304 C 0.816 0.16879 0.73836 0.0
C305 C 0.865 0.09411 0.77586 0.0
C306 C 0.81933 0.08218 0.68219 0.0
C307 C 0.77222 0.04244 0.66855 0.0
C308 C 0.76903 1.00898 0.62139 0.0
C309 C 0.81602 1.01498 0.58858 0.0
C310 C 0.86465 0.05474 0.60283 0.0
C311 C 0.86547 0.08979 0.64905 0.0
H312 H 0.13343 0.25962 0.01983 0.0
H313 H 0.24112 0.42208 0.02892 0.0
H314 H 0.32476 0.3778 0.03561 0.0
H315 H 0.21357 0.19433 0.11447 0.0
H316 H 0.20173 0.12858 0.07725 0.0
H317 H 0.15056 0.17318 0.07273 0.0
H318 H 0.15711 0.17169 0.96815 0.0
H319 H 0.20827 0.12706 0.97244 0.0
H320 H 0.22459 0.19176 0.93854 0.0
H321 H 0.39745 0.31496 0.04004 0.0
H322 H 0.45212 0.239 0.04342 0.0
H323 H 0.29641 0.11826 0.03317 0.0
C324 C 0.17462 0.28585 0.0233 0.0
C325 C 0.18073 0.34435 0.02392 0.0
C326 C 0.23538 0.37719 0.02842 0.0
C327 C 0.28319 0.3524 0.0322 0.0
C328 C 0.27578 0.29462 0.03147 0.0
C329 C 0.22282 0.26176 0.02715 0.0
C330 C 0.22634 0.20066 0.02723 0.0
C331 C 0.19628 0.17255 0.07582 0.0
C332 C 0.20268 0.17107 0.9734 0.0
C333 C 0.28941 0.20429 0.0329 0.0
C334 C 0.31734 0.25876 0.03487 0.0
C335 C 0.37593 0.27213 0.03883 0.0
C336 C 0.40669 0.22871 0.04079 0.0
C337 C 0.37885 0.17252 0.03922 0.0
C338 C 0.31931 0.16064 0.03528 0.0
H339 H 0.19917 0.66338 0.95209 0.0
H340 H 0.14121 0.65238 0.11624 0.0
H341 H 0.23444 0.70098 0.1509 0.0
H342 H 0.35009 0.65539 0.98188 0.0
H343 H 0.37436 0.7074 0.93369 0.0
H344 H 0.30734 0.66182 0.92234 0.0
H345 H 0.25796 0.74691 0.91488 0.0
H346 H 0.32485 0.79222 0.9249 0.0
H347 H 0.26842 0.79926 0.96892 0.0
H348 H 0.32739 0.76239 0.16679 0.0
H349 H 0.40706 0.84074 0.161 0.0
H350 H 0.40576 0.81336 0.98744 0.0
C351 C 0.20691 0.66965 0.99541 0.0
C352 C 0.16354 0.65342 0.03163 0.0
C353 C 0.1742 0.6642 0.08791 0.0
C354 C 0.22715 0.6913 0.10799 0.0
C355 C 0.26902 0.70764 0.07126 0.0
C356 C 0.25932 0.69771 0.01605 0.0
C357 C 0.30803 0.72728 0.98472 0.0
C358 C 0.33665 0.68545 0.95384 0.0
C359 C 0.28866 0.76887 0.94614 0.0
C360 C 0.34583 0.75666 0.03075 0.0
C361 C 0.3232 0.74377 0.08049 0.0
C362 C 0.34661 0.77146 0.12833 0.0
C363 C 0.39235 0.81543 0.12491 0.0
C364 C 0.4138 0.83119 0.07409 0.0
C365 C 0.39195 0.79983 0.02695 0.0
H366 H 0.62882 0.23029 0.02926 0.0
H367 H 0.6284 0.20516 0.85548 0.0
H368 H 0.70755 0.28421 0.85078 0.0
H369 H 0.68255 0.38862 0.0364 0.0
H370 H 0.725 0.3821 0.09611 0.0
H371 H 0.65859 0.33572 0.08383 0.0
H372 H 0.70918 0.25207 0.09228 0.0
H373 H 0.77593 0.29758 0.10268 0.0
H374 H 0.76582 0.24574 0.04822 0.0
H375 H 0.79947 0.3473 0.86727 0.0
H376 H 0.89184 0.39757 0.90229 0.0
H377 H 0.83401 0.38348 0.06638 0.0
C378 C 0.64276 0.24439 0.98997 0.0
C379 C 0.62101 0.21362 0.9424 0.0
C380 C 0.64279 0.23008 0.89188 0.0
C381 C 0.68824 0.27449 0.88907 0.0
C382 C 0.71121 0.30188 0.93721 0.0
C383 C 0.68845 0.28825 0.98675 0.0
C384 C 0.72596 0.31767 0.03309 0.0
C385 C 0.69625 0.35848 0.06419 0.0
C386 C 0.74535 0.27576 0.07125 0.0
C387 C 0.77449 0.3482 1.00212 0.0
C388 C 0.76495 0.33876 0.94685 0.0
C389 C 0.80655 0.35657 0.91026 0.0
C390 C 0.85902 0.38474 0.93056 0.0
C391 C 0.86953 0.39523 0.98693 0.0
C392 C 0.82638 0.37751 0.02304 0.0
H393 H 0.86919 0.76069 0.05616 0.0
H394 H 0.8326 0.66791 0.90302 0.0
H395 H 0.75179 0.71417 0.88584 0.0
H396 H 0.71985 0.75896 0.08838 0.0
H397 H 0.73595 0.82769 0.11964 0.0
H398 H 0.78751 0.7834 0.12096 0.0
H399 H 0.85773 0.86163 0.07724 0.0
H400 H 0.80516 0.90471 0.07427 0.0
H401 H 0.83853 0.88788 0.01336 0.0
H402 H 0.67448 0.77068 0.88494 0.0
H403 H 0.61221 0.83972 0.89712 0.0
H404 H 0.70107 0.89868 0.04835 0.0
C405 C 0.844 0.75003 0.01913 0.0
C406 C 0.85711 0.71052 0.98094 0.0
C407 C 0.82317 0.69774 0.93297 0.0
C408 C 0.77705 0.72371 0.92291 0.0
C409 C 0.765 0.76222 0.96136 0.0
C410 C 0.7975 0.77546 1.00852 0.0
C411 C 0.77626 0.81952 0.0424 0.0
C412 C 0.75359 0.79602 0.09602 0.0
C413 C 0.82216 0.87152 0.05236 0.0
C414 C 0.72862 0.83079 1.00574 0.0
C415 C 0.72168 0.79612 0.95995 0.0
C416 C 0.67945 0.79794 0.92072 0.0
C417 C 0.64404 0.83686 0.92804 0.0
C418 C 0.65176 0.87384 0.97373 0.0
C419 C 0.6943 0.87047 0.01317 0.0
loop_
_geom_bond_atom_site_label_1
_geom_bond_atom_site_label_2
_geom_bond_distance
_geom_bond_site_symmetry_2
_ccdc_geom_bond_type
Co0 H3 2.400 . S
Co0 O4 2.009 . S
Co0 O12 2.114 1_565 S
Co0 O13 2.315 . S
Co0 O24 2.053 . S
Co0 O27 2.094 1_565 S
Co0 O30 2.122 1_665 S
Co1 O4 2.126 1_545 S
Co1 H5 2.388 1_655 S
Co1 O6 2.053 1_655 S
Co1 O9 2.047 1_655 S
Co1 O15 2.113 . S
Co1 O26 2.063 . S
Co2 H3 2.388 1_455 S
Co2 O4 2.053 1_455 S
Co2 O6 2.126 1_565 S
Co2 O11 2.063 . S
Co2 O25 2.047 1_455 S
Co2 O31 2.113 . S
H3 Co0 2.400 . S
H3 Co2 2.388 1_655 S
H3 O4 0.760 . S
O4 Co0 2.009 . S
O4 Co1 2.126 1_565 S
O4 Co2 2.053 1_655 S
O4 H3 0.760 . S
H5 Co1 2.388 1_455 S
H5 O6 0.760 . S
H5 Co7 2.400 . S
O6 Co1 2.053 1_455 S
O6 Co2 2.126 1_545 S
O6 H5 0.760 . S
O6 Co7 2.009 . S
Co7 H5 2.400 . S
Co7 O6 2.009 . S
Co7 O8 2.053 . S
Co7 O10 2.094 1_545 S
Co7 O14 2.122 1_445 S
Co7 O28 2.114 1_545 S
Co7 O29 2.315 . S
O8 Co7 2.053 . S
O8 C20 1.259 . S
O9 Co1 2.047 1_455 S
O9 C20 1.257 . S
O10 Co7 2.094 1_565 S
O10 C21 1.253 . S
O11 Co2 2.063 . S
O11 C21 1.268 . S
O12 Co0 2.114 1_545 S
O12 C22 1.287 1_545 S
O13 Co0 2.315 . S
O13 C22 1.255 . S
O14 Co7 2.122 1_665 S
O14 C23 1.272 1_565 S
O15 Co1 2.113 . S
O15 C23 1.245 . S
C16 O24 1.259 . S
C16 O25 1.257 . S
C17 O26 1.268 . S
C17 O27 1.253 . S
C18 O28 1.281 1_545 S
C18 O29 1.252 . S
C19 O30 1.272 1_565 S
C19 O31 1.245 . S
C20 O8 1.259 . S
C20 O9 1.257 . S
C21 O10 1.253 . S
C21 O11 1.268 . S
C22 O12 1.287 1_565 S
C22 O13 1.255 . S
C23 O14 1.272 1_545 S
C23 O15 1.245 . S
O24 Co0 2.053 . S
O24 C16 1.259 . S
O25 Co2 2.047 1_655 S
O25 C16 1.257 . S
O26 Co1 2.063 . S
O26 C17 1.268 . S
O27 Co0 2.094 1_545 S
O27 C17 1.253 . S
O28 Co7 2.114 1_565 S
O28 C18 1.281 1_565 S
O29 Co7 2.315 . S
O29 C18 1.252 . S
O30 Co0 2.122 1_445 S
O30 C19 1.272 1_545 S
O31 Co2 2.113 . S
O31 C19 1.245 . S
Co32 H35 2.400 1_545 S
Co32 O36 2.011 1_545 S
Co32 O44 2.115 . S
Co32 O45 2.315 . S
Co32 O56 2.053 1_545 S
Co32 O59 2.094 . S
Co32 O62 2.122 1_556 S
Co33 O36 2.112 1_545 S
Co33 H37 2.388 1_556 S
Co33 O38 2.068 1_556 S
Co33 O41 2.047 1_556 S
Co33 O47 2.113 . S
Co33 O58 2.063 . S
Co34 H35 2.388 1_554 S
Co34 O36 2.064 1_554 S
Co34 O38 2.108 1_565 S
Co34 O43 2.063 . S
Co34 O57 2.047 1_554 S
Co34 O63 2.113 . S
H35 Co32 2.400 1_565 S
H35 Co34 2.388 1_556 S
H35 O36 0.761 . S
O36 Co32 2.011 1_565 S
O36 Co33 2.112 1_565 S
O36 Co34 2.064 1_556 S
O36 H35 0.761 . S
H37 Co33 2.388 1_554 S
H37 O38 0.762 . S
H37 Co39 2.400 1_545 S
O38 Co33 2.068 1_554 S
O38 Co34 2.108 1_545 S
O38 H37 0.762 . S
O38 Co39 2.012 1_545 S
Co39 H37 2.400 1_565 S
Co39 O38 2.012 1_565 S
Co39 O40 2.053 1_565 S
Co39 O42 2.094 . S
Co39 O46 2.122 1_554 S
Co39 O60 2.115 . S
Co39 O61 2.315 . S
O40 Co39 2.053 1_545 S
O40 C52 1.259 . S
O41 Co33 2.047 1_554 S
O41 C52 1.257 . S
O42 Co39 2.094 . S
O42 C53 1.253 . S
O43 Co34 2.063 . S
O43 C53 1.268 . S
O44 Co32 2.115 . S
O44 C54 1.281 . S
O45 Co32 2.315 . S
O45 C54 1.252 . S
O46 Co39 2.122 1_556 S
O46 C55 1.272 1_565 S
O47 Co33 2.113 . S
O47 C55 1.245 . S
C48 O56 1.259 . S
C48 O57 1.257 . S
C49 O58 1.268 . S
C49 O59 1.253 . S
C50 O60 1.281 . S
C50 O61 1.252 . S
C51 O62 1.272 1_565 S
C51 O63 1.245 . S
C52 O40 1.259 . S
C52 O41 1.257 . S
C53 O42 1.253 . S
C53 O43 1.268 . S
C54 O44 1.281 . S
C54 O45 1.252 . S
C55 O46 1.272 1_545 S
C55 O47 1.245 . S
O56 Co32 2.053 1_565 S
O56 C48 1.259 . S
O57 Co34 2.047 1_556 S
O57 C48 1.257 . S
O58 Co33 2.063 . S
O58 C49 1.268 . S
O59 Co32 2.094 . S
O59 C49 1.253 . S
O60 Co39 2.115 . S
O60 C50 1.281 . S
O61 Co39 2.315 . S
O61 C50 1.252 . S
O62 Co32 2.122 1_554 S
O62 C51 1.272 1_545 S
O63 Co34 2.113 . S
O63 C51 1.245 . S
Co64 H67 2.399 1_554 S
Co64 O68 2.009 1_554 S
Co64 O76 2.116 . S
Co64 O77 2.317 . S
Co64 O88 2.033 1_554 S
Co64 O91 2.114 . S
Co64 O94 2.123 1_655 S
Co65 O68 2.126 1_554 S
Co65 H69 2.388 1_655 S
Co65 O70 2.053 1_655 S
Co65 O73 2.047 1_655 S
Co65 O79 2.113 . S
Co65 O90 2.063 . S
Co66 H67 2.388 1_455 S
Co66 O68 2.053 1_455 S
Co66 O70 2.126 1_556 S
Co66 O75 2.063 . S
Co66 O89 2.047 1_455 S
Co66 O95 2.113 . S
H67 Co64 2.399 1_556 S
H67 Co66 2.388 1_655 S
H67 O68 0.760 . S
O68 Co64 2.009 1_556 S
O68 Co65 2.126 1_556 S
O68 Co66 2.053 1_655 S
O68 H67 0.760 . S
H69 Co65 2.388 1_455 S
H69 O70 0.760 . S
H69 Co71 2.400 1_554 S
O70 Co65 2.053 1_455 S
O70 Co66 2.126 1_554 S
O70 H69 0.760 . S
O70 Co71 2.009 1_554 S
Co71 H69 2.400 1_556 S
Co71 O70 2.009 1_556 S
Co71 O72 2.038 1_556 S
Co71 O74 2.108 . S
Co71 O78 2.123 1_455 S
Co71 O92 2.116 . S
Co71 O93 2.316 . S
O72 Co71 2.038 1_554 S
O72 C84 1.259 . S
O73 Co65 2.047 1_455 S
O73 C84 1.257 . S
O74 Co71 2.108 . S
O74 C85 1.253 . S
O75 Co66 2.063 . S
O75 C85 1.268 . S
O76 Co64 2.116 . S
O76 C86 1.281 . S
O77 Co64 2.317 . S
O77 C86 1.252 . S
O78 Co71 2.123 1_655 S
O78 C87 1.272 1_556 S
O79 Co65 2.113 . S
O79 C87 1.245 . S
C80 O88 1.259 . S
C80 O89 1.257 . S
C81 O90 1.268 . S
C81 O91 1.253 . S
C82 O92 1.281 . S
C82 O93 1.252 . S
C83 O94 1.272 1_556 S
C83 O95 1.245 . S
C84 O72 1.259 . S
C84 O73 1.257 . S
C85 O74 1.253 . S
C85 O75 1.268 . S
C86 O76 1.281 . S
C86 O77 1.252 . S
C87 O78 1.272 1_554 S
C87 O79 1.245 . S
O88 Co64 2.033 1_556 S
O88 C80 1.259 . S
O89 Co66 2.047 1_655 S
O89 C80 1.257 . S
O90 Co65 2.063 . S
O90 C81 1.268 . S
O91 Co64 2.114 . S
O91 C81 1.253 . S
O92 Co71 2.116 . S
O92 C82 1.281 . S
O93 Co71 2.316 . S
O93 C82 1.252 . S
O94 Co64 2.123 1_455 S
O94 C83 1.272 1_554 S
O95 Co66 2.113 . S
O95 C83 1.245 . S
H96 C108 0.930 . S
H97 C110 0.930 . S
H98 C111 0.930 . S
H99 C115 0.959 . S
H100 C115 0.959 . S
H101 C115 0.961 . S
H102 C116 0.960 . S
H103 C116 0.961 . S
H104 C116 0.959 . S
H105 C119 0.929 . S
H106 C120 0.931 . S
H107 C122 0.930 1_455 S
C108 H96 0.930 . S
C108 C109 1.400 1_455 S
C108 C113 1.399 . S
C109 C108 1.400 1_655 S
C109 C110 1.375 . S
C110 H97 0.930 . S
C110 C109 1.375 . S
C110 C111 1.388 . S
C111 H98 0.930 . S
C111 C110 1.388 . S
C111 C112 1.390 . S
C112 C111 1.390 . S
C112 C113 1.394 1_655 S
C112 C118 1.465 . S
C113 C108 1.399 . S
C113 C112 1.394 1_455 S
C113 C114 1.516 . S
C114 C113 1.516 . S
C114 C115 1.502 . S
C114 C116 1.561 . S
C114 C117 1.526 1_455 S
C115 H99 0.959 . S
C115 H100 0.959 . S
C115 H101 0.961 . S
C115 C114 1.502 . S
C116 H102 0.960 . S
C116 H103 0.961 . S
C116 H104 0.959 . S
C116 C114 1.561 . S
C117 C114 1.526 1_655 S
C117 C118 1.396 . S
C117 C122 1.390 . S
C118 C112 1.465 . S
C118 C117 1.396 . S
C118 C119 1.399 . S
C119 H105 0.929 . S
C119 C118 1.399 . S
C119 C120 1.385 . S
C120 H106 0.931 . S
C120 C119 1.385 . S
C120 C121 1.389 . S
C121 C120 1.389 . S
C121 C122 1.387 . S
C122 H107 0.930 1_655 S
C122 C117 1.390 . S
C122 C121 1.387 . S
H123 C135 0.930 . S
H124 C137 0.930 . S
H125 C138 0.930 . S
H126 C142 0.959 . S
H127 C142 0.959 . S
H128 C142 0.961 . S
H129 C143 0.960 . S
H130 C143 0.961 . S
H131 C143 0.959 . S
H132 C146 0.929 . S
H133 C147 0.931 . S
H134 C149 0.930 . S
C135 H123 0.930 . S
C135 C136 1.399 1_565 S
C135 C140 1.399 . S
C136 C135 1.399 1_545 S
C136 C137 1.376 . S
C137 H124 0.930 . S
C137 C136 1.376 . S
C137 C138 1.388 . S
C138 H125 0.930 . S
C138 C137 1.388 . S
C138 C139 1.390 . S
C139 C138 1.390 . S
C139 C140 1.394 1_545 S
C139 C145 1.465 . S
C140 C135 1.399 . S
C140 C139 1.394 1_565 S
C140 C141 1.516 . S
C141 C140 1.516 . S
C141 C142 1.502 . S
C141 C143 1.561 . S
C141 C144 1.526 . S
C142 H126 0.959 . S
C142 H127 0.959 . S
C142 H128 0.961 . S
C142 C141 1.502 . S
C143 H129 0.960 . S
C143 H130 0.961 . S
C143 H131 0.959 . S
C143 C141 1.561 . S
C144 C141 1.526 . S
C144 C145 1.396 1_565 S
C144 C149 1.390 . S
C145 C139 1.465 . S
C145 C144 1.396 1_545 S
C145 C146 1.399 . S
C146 H132 0.929 . S
C146 C145 1.399 . S
C146 C147 1.385 . S
C147 H133 0.931 . S
C147 C146 1.385 . S
C147 C148 1.389 1_545 S
C148 C147 1.389 1_565 S
C148 C149 1.387 . S
C149 H134 0.930 . S
C149 C144 1.390 . S
C149 C148 1.387 . S
H150 C162 0.930 . S
H151 C164 0.930 1_455 S
H152 C165 0.930 . S
H153 C169 0.959 . S
H154 C169 0.959 . S
H155 C169 0.961 . S
H156 C170 0.960 . S
H157 C170 0.961 . S
H158 C170 0.959 . S
H159 C173 0.920 1_455 S
H160 C174 0.931 1_455 S
H161 C176 0.930 . S
C162 H150 0.930 . S
C162 C163 1.399 . S
C162 C167 1.399 . S
C163 C162 1.399 . S
C163 C164 1.376 . S
C164 H151 0.930 1_655 S
C164 C163 1.376 . S
C164 C165 1.388 1_655 S
C165 H152 0.930 . S
C165 C164 1.388 1_455 S
C165 C166 1.390 1_455 S
C166 C165 1.390 1_655 S
C166 C167 1.394 . S
C166 C172 1.465 . S
C167 C162 1.399 . S
C167 C166 1.394 . S
C167 C168 1.516 . S
C168 C167 1.516 . S
C168 C169 1.502 . S
C168 C170 1.561 . S
C168 C171 1.526 . S
C169 H153 0.959 . S
C169 H154 0.959 . S
C169 H155 0.961 . S
C169 C168 1.502 . S
C170 H156 0.960 . S
C170 H157 0.961 . S
C170 H158 0.959 . S
C170 C168 1.561 . S
C171 C168 1.526 . S
C171 C172 1.396 . S
C171 C176 1.390 . S
C172 C166 1.465 . S
C172 C171 1.396 . S
C172 C173 1.409 . S
C173 H159 0.920 1_655 S
C173 C172 1.409 . S
C173 C174 1.384 . S
C174 H160 0.931 1_655 S
C174 C173 1.384 . S
C174 C175 1.389 . S
C175 C174 1.389 . S
C175 C176 1.387 . S
C176 H161 0.930 . S
C176 C171 1.390 . S
C176 C175 1.387 . S
H177 C189 0.930 . S
H178 C191 0.930 . S
H179 C192 0.930 . S
H180 C196 0.959 . S
H181 C196 0.959 . S
H182 C196 0.961 . S
H183 C197 0.960 . S
H184 C197 0.961 . S
H185 C197 0.959 . S
H186 C200 0.929 . S
H187 C201 0.931 . S
H188 C203 0.930 . S
C189 H177 0.930 . S
C189 C190 1.399 1_545 S
C189 C194 1.399 1_545 S
C190 C189 1.399 1_565 S
C190 C191 1.376 . S
C191 H178 0.930 . S
C191 C190 1.376 . S
C191 C192 1.388 . S
C192 H179 0.930 . S
C192 C191 1.388 . S
C192 C193 1.390 . S
C193 C192 1.390 . S
C193 C194 1.394 . S
C193 C199 1.465 . S
C194 C189 1.399 1_565 S
C194 C193 1.394 . S
C194 C195 1.516 1_565 S
C195 C194 1.516 1_545 S
C195 C196 1.502 . S
C195 C197 1.561 . S
C195 C198 1.526 . S
C196 H180 0.959 . S
C196 H181 0.959 . S
C196 H182 0.961 . S
C196 C195 1.502 . S
C197 H183 0.960 . S
C197 H184 0.961 . S
C197 H185 0.959 . S
C197 C195 1.561 . S
C198 C195 1.526 . S
C198 C199 1.396 1_545 S
C198 C203 1.390 . S
C199 C193 1.465 . S
C199 C198 1.396 1_565 S
C199 C200 1.399 . S
C200 H186 0.929 . S
C200 C199 1.399 . S
C200 C201 1.385 . S
C201 H187 0.931 . S
C201 C200 1.385 . S
C201 C202 1.389 . S
C202 C201 1.389 . S
C202 C203 1.387 1_565 S
C203 H188 0.930 . S
C203 C198 1.390 . S
C203 C202 1.387 1_545 S
H204 C216 0.930 1_655 S
H205 C218 0.930 . S
H206 C219 0.930 . S
H207 C223 0.959 . S
H208 C223 0.959 . S
H209 C223 0.961 . S
H210 C224 0.960 . S
H211 C224 0.961 . S
H212 C224 0.959 . S
H213 C227 0.929 . S
H214 C228 0.931 . S
H215 C230 0.930 . S
C216 H204 0.930 1_455 S
C216 C217 1.399 . S
C216 C221 1.399 . S
C217 C216 1.399 . S
C217 C218 1.376 . S
C218 H205 0.930 . S
C218 C217 1.376 . S
C218 C219 1.388 . S
C219 H206 0.930 . S
C219 C218 1.388 . S
C219 C220 1.390 . S
C220 C219 1.390 . S
C220 C221 1.394 . S
C220 C226 1.465 . S
C221 C216 1.399 . S
C221 C220 1.394 . S
C221 C222 1.516 1_455 S
C222 C221 1.516 1_655 S
C222 C223 1.502 . S
C222 C224 1.561 . S
C222 C225 1.526 . S
C223 H207 0.959 . S
C223 H208 0.959 . S
C223 H209 0.961 . S
C223 C222 1.502 . S
C224 H210 0.960 . S
C224 H211 0.961 . S
C224 H212 0.959 . S
C224 C222 1.561 . S
C225 C222 1.526 . S
C225 C226 1.396 1_655 S
C225 C230 1.390 . S
C226 C220 1.465 . S
C226 C225 1.396 1_455 S
C226 C227 1.399 . S
C227 H213 0.929 . S
C227 C226 1.399 . S
C227 C228 1.385 . S
C228 H214 0.931 . S
C228 C227 1.385 . S
C228 C229 1.387 1_455 S
C229 C228 1.387 1_655 S
C229 C230 1.388 . S
C230 H215 0.930 . S
C230 C225 1.390 . S
C230 C229 1.388 . S
H231 C243 0.930 . S
H232 C245 0.930 . S
H233 C246 0.930 . S
H234 C250 0.959 . S
H235 C250 0.959 . S
H236 C250 0.961 . S
H237 C251 0.960 . S
H238 C251 0.961 . S
H239 C251 0.959 . S
H240 C254 0.929 . S
H241 C255 0.931 . S
H242 C257 0.930 . S
C243 H231 0.930 . S
C243 C244 1.399 . S
C243 C248 1.399 . S
C244 C243 1.399 . S
C244 C245 1.376 1_545 S
C245 H232 0.930 . S
C245 C244 1.376 1_565 S
C245 C246 1.388 . S
C246 H233 0.930 . S
C246 C245 1.388 . S
C246 C247 1.390 . S
C247 C246 1.390 . S
C247 C248 1.394 1_565 S
C247 C253 1.465 . S
C248 C243 1.399 . S
C248 C247 1.394 1_545 S
C248 C249 1.516 . S
C249 C248 1.516 . S
C249 C250 1.502 . S
C249 C251 1.561 . S
C249 C252 1.526 . S
C250 H234 0.959 . S
C250 H235 0.959 . S
C250 H236 0.961 . S
C250 C249 1.502 . S
C251 H237 0.960 . S
C251 H238 0.961 . S
C251 H239 0.959 . S
C251 C249 1.561 . S
C252 C249 1.526 . S
C252 C253 1.396 1_545 S
C252 C257 1.390 . S
C253 C247 1.465 . S
C253 C252 1.396 1_565 S
C253 C254 1.399 . S
C254 H240 0.929 . S
C254 C253 1.399 . S
C254 C255 1.385 . S
C255 H241 0.931 . S
C255 C254 1.385 . S
C255 C256 1.389 . S
C256 C255 1.389 . S
C256 C257 1.387 1_565 S
C257 H242 0.930 . S
C257 C252 1.390 . S
C257 C256 1.387 1_545 S
H258 C270 0.930 . S
H259 C272 0.930 . S
H260 C273 0.930 . S
H261 C277 0.959 . S
H262 C277 0.959 . S
H263 C277 0.961 . S
H264 C278 0.960 . S
H265 C278 0.961 . S
H266 C278 0.959 . S
H267 C281 0.929 . S
H268 C282 0.931 . S
H269 C284 0.930 . S
C270 H258 0.930 . S
C270 C271 1.399 . S
C270 C275 1.399 . S
C271 C270 1.399 . S
C271 C272 1.376 . S
C272 H259 0.930 . S
C272 C271 1.376 . S
C272 C273 1.388 . S
C273 H260 0.930 . S
C273 C272 1.388 . S
C273 C274 1.390 . S
C274 C273 1.390 . S
C274 C275 1.394 . S
C274 C280 1.465 . S
C275 C270 1.399 . S
C275 C274 1.394 . S
C275 C276 1.516 . S
C276 C275 1.516 . S
C276 C277 1.502 1_455 S
C276 C278 1.561 . S
C276 C279 1.526 . S
C277 H261 0.959 . S
C277 H262 0.959 . S
C277 H263 0.961 . S
C277 C276 1.502 1_655 S
C278 H264 0.960 . S
C278 H265 0.961 . S
C278 H266 0.959 . S
C278 C276 1.561 . S
C279 C276 1.526 . S
C279 C280 1.396 . S
C279 C284 1.390 . S
C280 C274 1.465 . S
C280 C279 1.396 . S
C280 C281 1.399 . S
C281 H267 0.929 . S
C281 C280 1.399 . S
C281 C282 1.385 . S
C282 H268 0.931 . S
C282 C281 1.385 . S
C282 C283 1.389 . S
C283 C282 1.389 . S
C283 C284 1.387 . S
C284 H269 0.930 . S
C284 C279 1.390 . S
C284 C283 1.387 . S
H285 C297 0.930 . S
H286 C299 0.930 . S
H287 C300 0.930 . S
H288 C304 0.959 . S
H289 C304 0.959 . S
H290 C304 0.961 . S
H291 C305 0.960 . S
H292 C305 0.961 . S
H293 C305 0.959 . S
H294 C308 0.929 . S
H295 C309 0.931 . S
H296 C311 0.930 . S
C297 H285 0.930 . S
C297 C298 1.399 . S
C297 C302 1.399 . S
C298 C297 1.399 . S
C298 C299 1.376 1_545 S
C299 H286 0.930 . S
C299 C298 1.376 1_565 S
C299 C300 1.388 . S
C300 H287 0.930 . S
C300 C299 1.388 . S
C300 C301 1.390 1_565 S
C301 C300 1.390 1_545 S
C301 C302 1.394 . S
C301 C307 1.465 . S
C302 C297 1.399 . S
C302 C301 1.394 . S
C302 C303 1.516 . S
C303 C302 1.516 . S
C303 C304 1.502 . S
C303 C305 1.561 . S
C303 C306 1.526 . S
C304 H288 0.959 . S
C304 H289 0.959 . S
C304 H290 0.961 . S
C304 C303 1.502 . S
C305 H291 0.960 . S
C305 H292 0.961 . S
C305 H293 0.959 . S
C305 C303 1.561 . S
C306 C303 1.526 . S
C306 C307 1.396 . S
C306 C311 1.390 . S
C307 C301 1.465 . S
C307 C306 1.396 . S
C307 C308 1.399 1_545 S
C308 H294 0.929 . S
C308 C307 1.399 1_565 S
C308 C309 1.385 . S
C309 H295 0.931 . S
C309 C308 1.385 . S
C309 C310 1.389 1_565 S
C310 C309 1.389 1_545 S
C310 C311 1.387 . S
C311 H296 0.930 . S
C311 C306 1.390 . S
C311 C310 1.387 . S
H312 C324 0.930 . S
H313 C326 0.930 . S
H314 C327 0.930 . S
H315 C331 0.959 . S
H316 C331 0.959 . S
H317 C331 0.961 . S
H318 C332 0.960 . S
H319 C332 0.961 . S
H320 C332 0.959 . S
H321 C335 0.929 . S
H322 C336 0.931 . S
H323 C338 0.930 . S
C324 H312 0.930 . S
C324 C325 1.399 . S
C324 C329 1.399 . S
C325 C324 1.399 . S
C325 C326 1.376 1_556 S
C326 H313 0.930 . S
C326 C325 1.376 1_554 S
C326 C327 1.388 . S
C327 H314 0.930 . S
C327 C326 1.388 . S
C327 C328 1.390 . S
C328 C327 1.390 . S
C328 C329 1.394 1_554 S
C328 C334 1.465 . S
C329 C324 1.399 . S
C329 C328 1.394 1_556 S
C329 C330 1.516 . S
C330 C329 1.516 . S
C330 C331 1.502 . S
C330 C332 1.561 . S
C330 C333 1.526 . S
C331 H315 0.959 . S
C331 H316 0.959 . S
C331 H317 0.961 . S
C331 C330 1.502 . S
C332 H318 0.960 . S
C332 H319 0.961 . S
C332 H320 0.959 . S
C332 C330 1.561 . S
C333 C330 1.526 . S
C333 C334 1.396 1_556 S
C333 C338 1.390 . S
C334 C328 1.465 . S
C334 C333 1.396 1_554 S
C334 C335 1.399 . S
C335 H321 0.929 . S
C335 C334 1.399 . S
C335 C336 1.385 . S
C336 H322 0.931 . S
C336 C335 1.385 . S
C336 C337 1.389 . S
C337 C336 1.389 . S
C337 C338 1.387 1_554 S
C338 H323 0.930 . S
C338 C333 1.390 . S
C338 C337 1.387 1_556 S
H339 C351 0.930 . S
H340 C353 0.930 . S
H341 C354 0.930 . S
H342 C358 0.959 . S
H343 C358 0.959 . S
H344 C358 0.961 . S
H345 C359 0.960 . S
H346 C359 0.961 . S
H347 C359 0.959 . S
H348 C362 0.929 . S
H349 C363 0.931 . S
H350 C365 0.930 1_556 S
C351 H339 0.930 . S
C351 C352 1.399 . S
C351 C356 1.399 . S
C352 C351 1.399 . S
C352 C353 1.376 1_556 S
C353 H340 0.930 . S
C353 C352 1.376 1_554 S
C353 C354 1.388 . S
C354 H341 0.930 . S
C354 C353 1.388 . S
C354 C355 1.390 . S
C355 C354 1.390 . S
C355 C356 1.394 1_554 S
C355 C361 1.465 . S
C356 C351 1.399 . S
C356 C355 1.394 1_556 S
C356 C357 1.516 . S
C357 C356 1.516 . S
C357 C358 1.502 . S
C357 C359 1.561 . S
C357 C360 1.526 1_556 S
C358 H342 0.959 . S
C358 H343 0.959 . S
C358 H344 0.961 . S
C358 C357 1.502 . S
C359 H345 0.960 . S
C359 H346 0.961 . S
C359 H347 0.959 . S
C359 C357 1.561 . S
C360 C357 1.526 1_554 S
C360 C361 1.396 . S
C360 C365 1.390 . S
C361 C355 1.465 . S
C361 C360 1.396 . S
C361 C362 1.399 . S
C362 H348 0.929 . S
C362 C361 1.399 . S
C362 C363 1.385 . S
C363 H349 0.931 . S
C363 C362 1.385 . S
C363 C364 1.389 . S
C364 C363 1.389 . S
C364 C365 1.387 . S
C365 H350 0.930 1_554 S
C365 C360 1.390 . S
C365 C364 1.387 . S
H366 C378 0.930 1_554 S
H367 C380 0.930 . S
H368 C381 0.930 . S
H369 C385 0.959 . S
H370 C385 0.959 . S
H371 C385 0.961 . S
H372 C386 0.960 . S
H373 C386 0.961 . S
H374 C386 0.959 . S
H375 C389 0.929 . S
H376 C390 0.931 . S
H377 C392 0.930 . S
C378 H366 0.930 1_556 S
C378 C379 1.399 . S
C378 C383 1.399 . S
C379 C378 1.399 . S
C379 C380 1.376 . S
C380 H367 0.930 . S
C380 C379 1.376 . S
C380 C381 1.388 . S
C381 H368 0.930 . S
C381 C380 1.388 . S
C381 C382 1.390 . S
C382 C381 1.390 . S
C382 C383 1.394 . S
C382 C388 1.465 . S
C383 C378 1.399 . S
C383 C382 1.394 . S
C383 C384 1.516 1_556 S
C384 C383 1.516 1_554 S
C384 C385 1.502 . S
C384 C386 1.561 . S
C384 C387 1.526 . S
C385 H369 0.959 . S
C385 H370 0.959 . S
C385 H371 0.961 . S
C385 C384 1.502 . S
C386 H372 0.960 . S
C386 H373 0.961 . S
C386 H374 0.959 . S
C386 C384 1.561 . S
C387 C384 1.526 . S
C387 C388 1.396 1_554 S
C387 C392 1.390 . S
C388 C382 1.465 . S
C388 C387 1.396 1_556 S
C388 C389 1.399 . S
C389 H375 0.929 . S
C389 C388 1.399 . S
C389 C390 1.385 . S
C390 H376 0.931 . S
C390 C389 1.385 . S
C390 C391 1.389 1_556 S
C391 C390 1.389 1_554 S
C391 C392 1.387 . S
C392 H377 0.930 . S
C392 C387 1.390 . S
C392 C391 1.387 . S
H393 C405 0.930 . S
H394 C407 0.930 . S
H395 C408 0.930 . S
H396 C412 0.959 . S
H397 C412 0.959 . S
H398 C412 0.961 . S
H399 C413 0.960 . S
H400 C413 0.961 . S
H401 C413 0.959 . S
H402 C416 0.929 . S
H403 C417 0.931 . S
H404 C419 0.930 . S
C405 H393 0.930 . S
C405 C406 1.399 . S
C405 C410 1.399 . S
C406 C405 1.399 . S
C406 C407 1.376 1_554 S
C407 H394 0.930 . S
C407 C406 1.376 1_556 S
C407 C408 1.388 . S
C408 H395 0.930 . S
C408 C407 1.388 . S
C408 C409 1.390 . S
C409 C408 1.390 . S
C409 C410 1.394 1_556 S
C409 C415 1.465 . S
C410 C405 1.399 . S
C410 C409 1.394 1_554 S
C410 C411 1.516 . S
C411 C410 1.516 . S
C411 C412 1.502 . S
C411 C413 1.561 . S
C411 C414 1.526 . S
C412 H396 0.959 . S
C412 H397 0.959 . S
C412 H398 0.961 . S
C412 C411 1.502 . S
C413 H399 0.960 . S
C413 H400 0.961 . S
C413 H401 0.959 . S
C413 C411 1.561 . S
C414 C411 1.526 . S
C414 C415 1.396 1_554 S
C414 C419 1.390 . S
C415 C409 1.465 . S
C415 C414 1.396 1_556 S
C415 C416 1.399 . S
C416 H402 0.929 . S
C416 C415 1.399 . S
C416 C417 1.385 . S
C417 H403 0.931 . S
C417 C416 1.385 . S
C417 C418 1.389 . S
C418 C417 1.389 . S
C418 C419 1.387 1_556 S
C419 H404 0.930 . S
C419 C414 1.390 . S
C419 C418 1.387 1_554 S
C109 C84 2.071 1_655 S
C121 C17 2.030 . S
C136 C22 1.013 1_545 S
C148 C51 1.032 . S
C163 C16 1.559 . S
C175 C81 1.496 . S
C190 C50 1.564 . S
C202 C19 1.452 . S
C217 C21 2.043 . S
C229 C80 2.078 . S
C244 C55 1.049 . S
C256 C18 1.038 1_565 S
C271 C85 1.532 . S
C283 C20 1.563 . S
C298 C54 1.527 . S
C310 C23 1.456 . S
C325 C82 1.976 . S
C337 C52 2.012 . S
C352 C83 1.011 . S
C364 C53 1.093 . S
C379 C49 1.089 . S
C391 C87 1.033 . S
C406 C86 1.996 . S
C418 C48 1.992 . S
