# Generated by pormake.
# Topology una, (4)-cn, num edge types: 1
# Building blocks:
#     Node 0, Type 0, BuildingBlock: UXUYUI_clean_sbu_0, # of connection points: 4
#     Node 1, Type 0, BuildingBlock: UXUYUI_clean_sbu_0, # of connection points: 4
#     Node 2, Type 0, BuildingBlock: UXUYUI_clean_sbu_0, # of connection points: 4
#     Node 3, Type 0, BuildingBlock: UXUYUI_clean_sbu_0, # of connection points: 4
#     Node 4, Type 0, BuildingBlock: UXUYUI_clean_sbu_0, # of connection points: 4
#     Node 5, Type 0, BuildingBlock: UXUYUI_clean_sbu_0, # of connection points: 4
#     Node 6, Type 0, BuildingBlock: UXUYUI_clean_sbu_0, # of connection points: 4
#     Node 7, Type 0, BuildingBlock: UXUYUI_clean_sbu_0, # of connection points: 4
#     Node 8, Type 0, BuildingBlock: UXUYUI_clean_sbu_0, # of connection points: 4
#     Node 9, Type 0, BuildingBlock: UXUYUI_clean_sbu_0, # of connection points: 4
#     Node 10, Type 0, BuildingBlock: UXUYUI_clean_sbu_0, # of connection points: 4
#     Node 11, Type 0, BuildingBlock: UXUYUI_clean_sbu_0, # of connection points: 4
#     Edge 12, Type (0, 0), BuildingBlock: XIVTED_clean_linker_0, # of connection points: 2
#     Edge 13, Type (0, 0), BuildingBlock: XIVTED_clean_linker_0, # of connection points: 2
#     Edge 14, Type (0, 0), BuildingBlock: XIVTED_clean_linker_0, # of connection points: 2
#     Edge 15, Type (0, 0), BuildingBlock: XIVTED_clean_linker_0, # of connection points: 2
#     Edge 16, Type (0, 0), BuildingBlock: XIVTED_clean_linker_0, # of connection points: 2
#     Edge 17, Type (0, 0), BuildingBlock: XIVTED_clean_linker_0, # of connection points: 2
#     Edge 18, Type (0, 0), BuildingBlock: XIVTED_clean_linker_0, # of connection points: 2
#     Edge 19, Type (0, 0), BuildingBlock: XIVTED_clean_linker_0, # of connection points: 2
#     Edge 20, Type (0, 0), BuildingBlock: XIVTED_clean_linker_0, # of connection points: 2
#     Edge 21, Type (0, 0), BuildingBlock: XIVTED_clean_linker_0, # of connection points: 2
#     Edge 22, Type (0, 0), BuildingBlock: XIVTED_clean_linker_0, # of connection points: 2
#     Edge 23, Type (0, 0), BuildingBlock: XIVTED_clean_linker_0, # of connection points: 2
#     Edge 24, Type (0, 0), BuildingBlock: XIVTED_clean_linker_0, # of connection points: 2
#     Edge 25, Type (0, 0), BuildingBlock: XIVTED_clean_linker_0, # of connection points: 2
#     Edge 26, Type (0, 0), BuildingBlock: XIVTED_clean_linker_0, # of connection points: 2
#     Edge 27, Type (0, 0), BuildingBlock: XIVTED_clean_linker_0, # of connection points: 2
#     Edge 28, Type (0, 0), BuildingBlock: XIVTED_clean_linker_0, # of connection points: 2
#     Edge 29, Type (0, 0), BuildingBlock: XIVTED_clean_linker_0, # of connection points: 2
#     Edge 30, Type (0, 0), BuildingBlock: XIVTED_clean_linker_0, # of connection points: 2
#     Edge 31, Type (0, 0), BuildingBlock: XIVTED_clean_linker_0, # of connection points: 2
#     Edge 32, Type (0, 0), BuildingBlock: XIVTED_clean_linker_0, # of connection points: 2
#     Edge 33, Type (0, 0), BuildingBlock: XIVTED_clean_linker_0, # of connection points: 2
#     Edge 34, Type (0, 0), BuildingBlock: XIVTED_clean_linker_0, # of connection points: 2
#     Edge 35, Type (0, 0), BuildingBlock: XIVTED_clean_linker_0, # of connection points: 2
# Relax obj value: 0.208
# Max RMSD: 0.213
# Mean RMSD: 0.213
data_MOF--net-una--node1-UXUYUI_clean_sbu_0--edge1-XIVTED_clean_linker_0
_symmetry_space_group_name_H-M    P1
_symmetry_Int_Tables_number       1
_symmetry_cell_setting            triclinic
loop_
_symmetry_equiv_pos_as_xyz
'x, y, z'
_cell_length_a     83.21425
_cell_length_b     83.206332
_cell_length_c     32.391533
_cell_angle_alpha  89.990817
_cell_angle_beta   90.016863
_cell_angle_gamma 120.00301
loop_
_atom_site_label
_atom_site_type_symbol
_atom_site_fract_x
_atom_site_fract_y
_atom_site_fract_z
_atom_type_partial_charge
Li0 Li 0.13038 0.45319 0.04518 0.0
Li1 Li 0.13679 0.42914 0.06801 0.0
Li2 Li 0.14312 0.44051 0.99706 0.0
Li3 Li 0.11145 0.42109 0.02207 0.0
C4 C 0.17291 0.46454 0.03769 0.0
N5 N 0.20968 0.48383 0.0134 0.0
C6 C 0.18558 0.45972 0.05346 0.0
C7 C 0.17897 0.47917 0.0095 0.0
C8 C 0.20411 0.46966 0.04085 0.0
C9 C 0.1976 0.48874 0.99759 0.0
C10 C 0.11202 0.427 0.1195 0.0
C11 C 0.10202 0.40505 0.1756 0.0
N12 N 0.10948 0.41936 0.20298 0.0
C13 C 0.11953 0.4415 0.14814 0.0
C14 C 0.10313 0.40862 0.13325 0.0
C15 C 0.11811 0.43735 0.19024 0.0
C16 C 0.11269 0.47264 0.07153 0.0
N17 N 0.12937 0.47468 0.06053 0.0
C18 C 0.14394 0.50759 0.06709 0.0
C19 C 0.14492 0.49166 0.05885 0.0
C20 C 0.12682 0.50597 0.07763 0.0
C21 C 0.11109 0.4882 0.08032 0.0
H22 H 0.10057 0.45892 0.07269 0.0
H23 H 0.15805 0.49288 0.05076 0.0
C24 C 0.14395 0.4041 0.11332 0.0
N25 N 0.14627 0.42147 0.11231 0.0
C26 C 0.15322 0.39953 0.14291 0.0
C27 C 0.16673 0.4307 0.17015 0.0
C28 C 0.157 0.43457 0.14051 0.0
C29 C 0.16518 0.41312 0.17094 0.0
H30 H 0.13552 0.39404 0.09022 0.0
H31 H 0.15868 0.44831 0.13866 0.0
C32 C 0.11519 0.45522 0.97622 0.0
N33 N 0.10207 0.4788 0.95549 0.0
C34 C 0.09637 0.44944 0.98083 0.0
C35 C 0.12732 0.47295 0.96081 0.0
C36 C 0.09001 0.46157 0.97018 0.0
C37 C 0.12042 0.48468 0.95062 0.0
C38 C 0.12231 0.39754 -0.00094 0.0
C39 C 0.12574 0.39535 0.95779 0.0
C40 C 0.10916 0.38222 0.02146 0.0
C41 C 0.1158 0.37784 0.93948 0.0
C42 C 0.09949 0.36496 0.00201 0.0
N43 N 0.10298 0.36315 0.96177 0.0
C44 C 0.17311 0.44202 0.9534 0.0
C45 C 0.15444 0.4507 0.91462 0.0
C46 C 0.1845 0.44501 0.91934 0.0
N47 N 0.1586 0.44515 0.95056 0.0
C48 C 0.16524 0.45347 0.87952 0.0
C49 C 0.18049 0.45067 0.88183 0.0
H50 H 0.17569 0.43701 0.98201 0.0
H51 H 0.14256 0.45266 0.91305 0.0
C52 C 0.07241 0.39626 0.02903 0.0
N53 N 0.08745 0.40331 0.00373 0.0
C54 C 0.05467 0.38476 0.01293 0.0
C55 C 0.06843 0.38762 0.94559 0.0
C56 C 0.08579 0.39929 0.96277 0.0
C57 C 0.05258 0.38043 0.97064 0.0
H58 H 0.07415 0.40005 0.06134 0.0
H59 H 0.09795 0.40561 0.94324 0.0
O60 O 0.15466 0.45489 0.04945 0.0
O61 O 0.11365 0.43078 0.07817 0.0
O62 O 0.1218 0.44377 0.98761 0.0
O63 O 0.13174 0.41462 0.01739 0.0
H64 H 0.18118 0.44829 0.07475 0.0
H65 H 0.16934 0.48287 0.99626 0.0
H66 H 0.21403 0.46604 0.05273 0.0
H67 H 0.20243 0.5 0.97559 0.0
H68 H 0.09527 0.39089 0.18671 0.0
H69 H 0.12655 0.4558 0.13796 0.0
H70 H 0.0973 0.39726 0.11143 0.0
H71 H 0.12393 0.44842 0.21277 0.0
H72 H 0.15645 0.52103 0.0654 0.0
H73 H 0.09762 0.48638 0.08814 0.0
H74 H 0.15182 0.38587 0.14252 0.0
H75 H 0.17575 0.44147 0.19153 0.0
H76 H 0.0868 0.43584 0.993 0.0
H77 H 0.14194 0.47768 0.95723 0.0
H78 H 0.07549 0.45732 0.9738 0.0
H79 H 0.12967 0.49848 0.93896 0.0
H80 H 0.13586 0.40704 0.93997 0.0
H81 H 0.10625 0.3837 0.05333 0.0
H82 H 0.11825 0.37595 0.90752 0.0
H83 H 0.08917 0.35301 0.01888 0.0
H84 H 0.19596 0.44237 0.92191 0.0
H85 H 0.16172 0.45772 0.8509 0.0
H86 H 0.04271 0.37952 0.03308 0.0
H87 H 0.06733 0.38491 0.9127 0.0
Li88 Li 0.67967 0.12753 0.21665 0.0
Li89 Li 0.71075 0.13397 0.23488 0.0
Li90 Li 0.70355 0.1411 0.16516 0.0
Li91 Li 0.69268 0.10885 0.18524 0.0
C92 C 0.69721 0.16278 0.23893 0.0
N93 N 0.68508 0.1838 0.28023 0.0
C94 C 0.70234 0.16792 0.28001 0.0
C95 C 0.68606 0.16848 0.21873 0.0
C96 C 0.69604 0.17853 0.30037 0.0
C97 C 0.68001 0.17904 0.24018 0.0
C98 C 0.68614 0.10007 0.27699 0.0
C99 C 0.69144 0.07656 0.30688 0.0
N100 N 0.68433 0.07831 0.3433 0.0
C101 C 0.67859 0.1014 0.3145 0.0
C102 C 0.69236 0.08734 0.27293 0.0
C103 C 0.67792 0.09038 0.34775 0.0
C104 C 0.64338 0.12072 0.20807 0.0
N105 N 0.65737 0.1261 0.23586 0.0
C106 C 0.63962 0.13091 0.28734 0.0
C107 C 0.65569 0.13083 0.27516 0.0
C108 C 0.62522 0.12605 0.25873 0.0
C109 C 0.62715 0.12067 0.21882 0.0
H110 H 0.64489 0.11665 0.17732 0.0
H111 H 0.667 0.135 0.29673 0.0
C112 C 0.74717 0.1549 0.26109 0.0
N113 N 0.72975 0.14352 0.27562 0.0
C114 C 0.76195 0.1643 0.28832 0.0
C115 C 0.74065 0.1501 0.34522 0.0
C116 C 0.72627 0.14082 0.31678 0.0
C117 C 0.75874 0.1623 0.33107 0.0
H118 H 0.74949 0.15708 0.22822 0.0
H119 H 0.71226 0.1322 0.32766 0.0
C120 C 0.67446 0.12121 0.1186 0.0
N121 N 0.66754 0.12569 0.03717 0.0
C122 C 0.6761 0.1104 0.08767 0.0
C123 C 0.66918 0.13422 0.1081 0.0
C124 C 0.67255 0.11288 0.04669 0.0
C125 C 0.6658 0.13632 0.06677 0.0
C126 C 0.73174 0.12424 0.17682 0.0
C127 C 0.74233 0.12796 0.14088 0.0
C128 C 0.73485 0.11535 0.20991 0.0
C129 C 0.75566 0.12248 0.13845 0.0
C130 C 0.74832 0.11011 0.20631 0.0
N131 N 0.75835 0.11373 0.17093 0.0
C132 C 0.71564 0.17516 0.12305 0.0
C133 C 0.71709 0.15164 0.08477 0.0
C134 C 0.72253 0.18727 0.08948 0.0
N135 N 0.71303 0.15773 0.11999 0.0
C136 C 0.72394 0.16323 0.05046 0.0
C137 C 0.72678 0.18133 0.05258 0.0
H138 H 0.71246 0.1797 0.15157 0.0
H139 H 0.715 0.13774 0.08338 0.0
C140 C 0.66675 0.07322 0.16464 0.0
N141 N 0.6854 0.08488 0.16436 0.0
C142 C 0.65901 0.05628 0.14397 0.0
C143 C 0.68992 0.06316 0.12506 0.0
C144 C 0.69707 0.0801 0.14575 0.0
C145 C 0.67063 0.05129 0.12306 0.0
H146 H 0.65784 0.07752 0.17935 0.0
H147 H 0.7118 0.08964 0.14522 0.0
O148 O 0.70308 0.15221 0.21862 0.0
O149 O 0.68662 0.11055 0.24395 0.0
O150 O 0.6782 0.11924 0.15885 0.0
O151 O 0.71865 0.12956 0.17962 0.0
H152 H 0.71102 0.16372 0.29608 0.0
H153 H 0.68192 0.1646 0.18699 0.0
H154 H 0.69984 0.18254 0.33222 0.0
H155 H 0.67125 0.18341 0.22502 0.0
H156 H 0.6963 0.06673 0.30421 0.0
H157 H 0.67346 0.11096 0.31804 0.0
H158 H 0.69771 0.08568 0.24383 0.0
H159 H 0.67228 0.09141 0.37707 0.0
H160 H 0.63871 0.13524 0.31837 0.0
H161 H 0.61622 0.11647 0.19609 0.0
H162 H 0.77568 0.17337 0.27596 0.0
H163 H 0.73744 0.1484 0.37788 0.0
H164 H 0.68028 0.10035 0.09504 0.0
H165 H 0.66789 0.14274 0.13157 0.0
H166 H 0.67385 0.10467 0.02244 0.0
H167 H 0.66182 0.14641 0.05821 0.0
H168 H 0.74025 0.13499 0.11509 0.0
H169 H 0.7271 0.11271 0.23824 0.0
H170 H 0.76389 0.12521 0.11075 0.0
H171 H 0.75084 0.1032 0.2317 0.0
H172 H 0.72445 0.20109 0.09234 0.0
H173 H 0.72736 0.1582 0.0229 0.0
H174 H 0.64407 0.04741 0.14338 0.0
H175 H 0.6993 0.05984 0.10896 0.0
Li176 Li 0.57228 0.70805 0.41391 0.0
Li177 Li 0.54646 0.67841 0.39465 0.0
Li178 Li 0.57684 0.69127 0.36104 0.0
Li179 Li 0.55735 0.70452 0.34698 0.0
C180 C 0.57543 0.68339 0.45907 0.0
N181 N 0.58566 0.68434 0.54059 0.0
C182 C 0.56189 0.6758 0.48989 0.0
C183 C 0.59415 0.69122 0.46963 0.0
C184 C 0.56735 0.67648 0.53095 0.0
C185 C 0.59904 0.69164 0.51104 0.0
C186 C 0.54359 0.71646 0.41178 0.0
C187 C 0.52517 0.72886 0.43979 0.0
N188 N 0.53903 0.74633 0.43088 0.0
C189 C 0.55766 0.73456 0.40285 0.0
C190 C 0.52722 0.71359 0.43043 0.0
C191 C 0.55509 0.74946 0.41279 0.0
C192 C 0.59916 0.7411 0.45338 0.0
N193 N 0.58299 0.72487 0.45876 0.0
C194 C 0.57877 0.73454 0.52528 0.0
C195 C 0.57285 0.72132 0.49391 0.0
C196 C 0.59506 0.75171 0.51995 0.0
C197 C 0.60548 0.75482 0.48376 0.0
H198 H 0.60669 0.7438 0.42472 0.0
H199 H 0.5597 0.70859 0.49671 0.0
C200 C 0.52313 0.64003 0.39492 0.0
N201 N 0.52533 0.65604 0.41128 0.0
C202 C 0.50738 0.62312 0.40422 0.0
C203 C 0.49672 0.63946 0.44799 0.0
C204 C 0.51262 0.65611 0.43749 0.0
C205 C 0.49389 0.62271 0.43091 0.0
H206 H 0.53354 0.64047 0.3742 0.0
H207 H 0.51479 0.6691 0.44996 0.0
C208 C 0.60151 0.72632 0.34337 0.0
N209 N 0.63656 0.74269 0.30885 0.0
C210 C 0.60504 0.73573 0.30577 0.0
C211 C 0.6159 0.72552 0.36375 0.0
C212 C 0.62283 0.74385 0.28873 0.0
C213 C 0.63349 0.73379 0.34571 0.0
C214 C 0.53601 0.66981 0.31267 0.0
C215 C 0.53491 0.65842 0.27984 0.0
C216 C 0.5206 0.67154 0.32274 0.0
C217 C 0.51836 0.64886 0.25763 0.0
C218 C 0.5043 0.66175 0.29979 0.0
N219 N 0.50352 0.65071 0.26799 0.0
C220 C 0.59878 0.67412 0.35333 0.0
C221 C 0.59618 0.68903 0.29332 0.0
C222 C 0.60878 0.66757 0.33137 0.0
N223 N 0.59261 0.68448 0.33389 0.0
C224 C 0.60638 0.68306 0.27041 0.0
C225 C 0.61252 0.67193 0.28929 0.0
H226 H 0.59547 0.67052 0.38551 0.0
H227 H 0.59068 0.69691 0.27854 0.0
C228 C 0.54025 0.72328 0.30527 0.0
N229 N 0.55067 0.7149 0.30251 0.0
C230 C 0.5376 0.73164 0.27046 0.0
C231 C 0.55538 0.72145 0.23041 0.0
C232 C 0.55772 0.71341 0.26586 0.0
C233 C 0.54561 0.73114 0.23261 0.0
H234 H 0.53424 0.72381 0.33439 0.0
H235 H 0.56559 0.70628 0.26447 0.0
O236 O 0.57036 0.68307 0.41876 0.0
O237 O 0.54587 0.7016 0.40341 0.0
O238 O 0.58411 0.71806 0.36028 0.0
O239 O 0.55215 0.67921 0.33464 0.0
H240 H 0.54735 0.66966 0.48231 0.0
H241 H 0.60479 0.69688 0.44615 0.0
H242 H 0.55702 0.67079 0.55515 0.0
H243 H 0.61349 0.69774 0.51968 0.0
H244 H 0.51256 0.72683 0.45422 0.0
H245 H 0.57042 0.73714 0.38836 0.0
H246 H 0.51621 0.6997 0.43765 0.0
H247 H 0.56587 0.76351 0.40608 0.0
H248 H 0.57014 0.73177 0.55236 0.0
H249 H 0.61809 0.76792 0.47853 0.0
H250 H 0.50581 0.61049 0.39079 0.0
H251 H 0.48656 0.63973 0.46843 0.0
H252 H 0.59421 0.73685 0.28994 0.0
H253 H 0.61345 0.71846 0.39302 0.0
H254 H 0.62572 0.7511 0.25955 0.0
H255 H 0.64471 0.73313 0.36101 0.0
H256 H 0.54675 0.65698 0.27166 0.0
H257 H 0.52118 0.68032 0.34798 0.0
H258 H 0.5173 0.63998 0.23215 0.0
H259 H 0.49226 0.66293 0.30726 0.0
H260 H 0.61331 0.65898 0.34686 0.0
H261 H 0.60873 0.68643 0.23786 0.0
H262 H 0.52992 0.73892 0.2735 0.0
H263 H 0.56138 0.72031 0.20167 0.0
Li264 Li 0.86744 0.54399 0.55362 0.0
Li265 Li 0.86346 0.56925 0.58208 0.0
Li266 Li 0.85401 0.5585 0.51376 0.0
Li267 Li 0.88596 0.57566 0.52874 0.0
C268 C 0.82665 0.53132 0.55296 0.0
N269 N 0.79138 0.50641 0.5252 0.0
C270 C 0.8117 0.53378 0.56315 0.0
C271 C 0.82365 0.51615 0.52879 0.0
C272 C 0.79398 0.52105 0.54876 0.0
C273 C 0.80572 0.50371 0.51505 0.0
C274 C 0.88849 0.56114 0.6236 0.0
C275 C 0.90853 0.56268 0.67911 0.0
N276 N 0.89343 0.55011 0.70076 0.0
C277 C 0.87317 0.54822 0.64638 0.0
C278 C 0.90632 0.56841 0.64002 0.0
C279 C 0.87596 0.54283 0.68533 0.0
C280 C 0.8815 0.51977 0.54762 0.0
N281 N 0.86779 0.52187 0.56487 0.0
C282 C 0.85496 0.49227 0.59759 0.0
C283 C 0.85464 0.50858 0.5895 0.0
C284 C 0.86892 0.48962 0.58007 0.0
C285 C 0.88234 0.50367 0.55482 0.0
H286 H 0.89175 0.53062 0.52812 0.0
H287 H 0.84392 0.51066 0.60288 0.0
C288 C 0.84175 0.58095 0.61883 0.0
N289 N 0.85642 0.57865 0.6277 0.0
C290 C 0.83366 0.58629 0.64949 0.0
C291 C 0.85655 0.58774 0.69769 0.0
C292 C 0.86435 0.58255 0.66582 0.0
C293 C 0.84077 0.58929 0.68979 0.0
H294 H 0.83606 0.57818 0.58793 0.0
H295 H 0.87645 0.58134 0.67185 0.0
C296 C 0.87744 0.55634 0.45523 0.0
N297 N 0.88728 0.56459 0.37323 0.0
C298 C 0.87712 0.57132 0.43652 0.0
C299 C 0.88278 0.54557 0.43225 0.0
C300 C 0.88214 0.57526 0.39503 0.0
C301 C 0.88769 0.54996 0.39082 0.0
C302 C 0.87675 0.60278 0.54372 0.0
C303 C 0.87161 0.61488 0.52609 0.0
C304 C 0.89087 0.60944 0.57333 0.0
C305 C 0.88074 0.63348 0.53826 0.0
C306 C 0.89965 0.62812 0.58469 0.0
N307 N 0.89445 0.63966 0.56707 0.0
C308 C 0.82832 0.56576 0.47617 0.0
C309 C 0.83083 0.54157 0.44363 0.0
C310 C 0.81571 0.56462 0.44639 0.0
N311 N 0.83576 0.55452 0.47388 0.0
C312 C 0.81818 0.53988 0.41324 0.0
C313 C 0.81072 0.55174 0.41407 0.0
H314 H 0.83242 0.5758 0.50086 0.0
H315 H 0.83699 0.5328 0.44268 0.0
C316 C 0.92148 0.58538 0.50378 0.0
N317 N 0.90945 0.59192 0.50513 0.0
C318 C 0.9376 0.59446 0.48014 0.0
C319 C 0.9291 0.61737 0.46138 0.0
C320 C 0.91299 0.60768 0.48485 0.0
C321 C 0.94136 0.61048 0.45803 0.0
H322 H 0.91803 0.57256 0.51944 0.0
H323 H 0.9029 0.61221 0.48486 0.0
O324 O 0.84419 0.54388 0.56585 0.0
O325 O 0.88625 0.56644 0.58503 0.0
O326 O 0.87295 0.55235 0.49604 0.0
O327 O 0.86774 0.58451 0.53215 0.0
H328 H 0.81374 0.5454 0.58189 0.0
H329 H 0.8351 0.51418 0.52009 0.0
H330 H 0.78229 0.52281 0.55631 0.0
H331 H 0.80322 0.49198 0.4961 0.0
H332 H 0.92225 0.5682 0.69221 0.0
H333 H 0.85926 0.54255 0.63441 0.0
H334 H 0.91832 0.57836 0.62266 0.0
H335 H 0.86423 0.53288 0.70333 0.0
H336 H 0.8445 0.48195 0.61772 0.0
H337 H 0.89321 0.50212 0.54028 0.0
H338 H 0.82145 0.5872 0.64212 0.0
H339 H 0.86258 0.59021 0.72829 0.0
H340 H 0.87314 0.57989 0.4538 0.0
H341 H 0.88317 0.53398 0.44635 0.0
H342 H 0.88198 0.58683 0.38019 0.0
H343 H 0.89187 0.54175 0.37267 0.0
H344 H 0.86069 0.60995 0.50318 0.0
H345 H 0.89507 0.60035 0.58745 0.0
H346 H 0.87691 0.643 0.52483 0.0
H347 H 0.9106 0.63346 0.60754 0.0
H348 H 0.81005 0.57382 0.44843 0.0
H349 H 0.81478 0.52987 0.38864 0.0
H350 H 0.94678 0.58877 0.47825 0.0
H351 H 0.93139 0.62949 0.44414 0.0
Li352 Li 0.28721 0.86371 0.74121 0.0
Li353 Li 0.3175 0.86869 0.71604 0.0
Li354 Li 0.30489 0.88783 0.69179 0.0
Li355 Li 0.29075 0.85636 0.67232 0.0
C356 C 0.31874 0.8875 0.78868 0.0
N357 N 0.33178 0.8902 0.86832 0.0
C358 C 0.31782 0.87201 0.80795 0.0
C359 C 0.32633 0.90435 0.80989 0.0
C360 C 0.32449 0.87367 0.84822 0.0
C361 C 0.33282 0.90544 0.85016 0.0
C362 C 0.28767 0.82747 0.71009 0.0
C363 C 0.29193 0.80549 0.66987 0.0
N364 N 0.27445 0.79199 0.67994 0.0
C365 C 0.26979 0.81336 0.72023 0.0
C366 C 0.29888 0.82351 0.68484 0.0
C367 C 0.26335 0.79552 0.70461 0.0
C368 C 0.25182 0.8431 0.76985 0.0
N369 N 0.2691 0.85527 0.78391 0.0
C370 C 0.25777 0.8516 0.85303 0.0
C371 C 0.27224 0.86006 0.82447 0.0
C372 C 0.23987 0.83837 0.83952 0.0
C373 C 0.23694 0.83459 0.79707 0.0
H374 H 0.24967 0.83975 0.73733 0.0
H375 H 0.28594 0.87012 0.835 0.0
C376 C 0.35606 0.88444 0.7212 0.0
N377 N 0.3397 0.86874 0.72906 0.0
C378 C 0.37284 0.88506 0.72936 0.0
C379 C 0.35554 0.85335 0.75362 0.0
C380 C 0.33912 0.8534 0.7453 0.0
C381 C 0.37269 0.8693 0.74546 0.0
H382 H 0.35603 0.89641 0.70827 0.0
H383 H 0.3259 0.84119 0.75174 0.0
C384 C 0.2682 0.87812 0.70143 0.0
N385 N 0.2481 0.895 0.72358 0.0
C386 C 0.25154 0.87337 0.68139 0.0
C387 C 0.27463 0.89144 0.73284 0.0
C388 C 0.24158 0.88207 0.693 0.0
C389 C 0.26427 0.89982 0.74356 0.0
C390 C 0.31835 0.8819 0.61888 0.0
C391 C 0.30352 0.88144 0.59753 0.0
C392 C 0.33554 0.88885 0.5994 0.0
C393 C 0.30615 0.88794 0.55694 0.0
C394 C 0.33761 0.89522 0.55876 0.0
N395 N 0.323 0.89464 0.53855 0.0
C396 C 0.32978 0.92564 0.67958 0.0
C397 C 0.30061 0.91479 0.64716 0.0
C398 C 0.3367 0.94297 0.66086 0.0
N399 N 0.31212 0.91195 0.67201 0.0
C400 C 0.30689 0.93192 0.62806 0.0
C401 C 0.32528 0.94617 0.63408 0.0
H402 H 0.33871 0.92282 0.69886 0.0
H403 H 0.28677 0.90357 0.64073 0.0
C404 C 0.25869 0.83038 0.63295 0.0
N405 N 0.27745 0.83904 0.62994 0.0
C406 C 0.24759 0.81776 0.60283 0.0
C407 C 0.27538 0.82305 0.56723 0.0
C408 C 0.28596 0.83552 0.59827 0.0
C409 C 0.25591 0.81414 0.56907 0.0
H410 H 0.25237 0.83335 0.65881 0.0
H411 H 0.30095 0.84254 0.59691 0.0
O412 O 0.31268 0.88644 0.74897 0.0
O413 O 0.29408 0.84514 0.7242 0.0
O414 O 0.27793 0.86952 0.6904 0.0
O415 O 0.31627 0.87589 0.65888 0.0
H416 H 0.31185 0.85881 0.79229 0.0
H417 H 0.32722 0.91648 0.79531 0.0
H418 H 0.32381 0.86179 0.86353 0.0
H419 H 0.33871 0.91839 0.86695 0.0
H420 H 0.3004 0.80226 0.65005 0.0
H421 H 0.26096 0.81616 0.7398 0.0
H422 H 0.31267 0.83433 0.6763 0.0
H423 H 0.24951 0.78448 0.71205 0.0
H424 H 0.26077 0.85494 0.88543 0.0
H425 H 0.22334 0.82492 0.78492 0.0
H426 H 0.38576 0.89757 0.72235 0.0
H427 H 0.35484 0.84102 0.76659 0.0
H428 H 0.24636 0.86305 0.6571 0.0
H429 H 0.28745 0.8953 0.74885 0.0
H430 H 0.22866 0.87852 0.67772 0.0
H431 H 0.26908 0.91015 0.76778 0.0
H432 H 0.29013 0.8762 0.61212 0.0
H433 H 0.34717 0.88936 0.61561 0.0
H434 H 0.2948 0.8877 0.54008 0.0
H435 H 0.35084 0.90065 0.5433 0.0
H436 H 0.35106 0.95344 0.6659 0.0
H437 H 0.29753 0.93381 0.60808 0.0
H438 H 0.23265 0.81093 0.60597 0.0
H439 H 0.28236 0.82077 0.54162 0.0
Li440 Li 0.44666 0.32051 0.88607 0.0
Li441 Li 0.42261 0.29057 0.91182 0.0
Li442 Li 0.4311 0.29606 0.83664 0.0
Li443 Li 0.41429 0.30965 0.86884 0.0
C444 C 0.46371 0.30146 0.8976 0.0
N445 N 0.49916 0.31233 0.925 0.0
C446 C 0.46673 0.29865 0.93876 0.0
C447 C 0.47869 0.30957 0.87026 0.0
C448 C 0.48476 0.30429 0.95205 0.0
C449 C 0.49652 0.31505 0.88474 0.0
C450 C 0.41321 0.31387 0.9536 0.0
C451 C 0.38242 0.29718 0.98254 0.0
N452 N 0.38738 0.31074 0.01139 0.0
C453 C 0.41802 0.32764 0.98351 0.0
C454 C 0.39527 0.29851 0.95307 0.0
C455 C 0.40476 0.3258 0.01247 0.0
C456 C 0.47829 0.3555 0.87178 0.0
N457 N 0.46944 0.34196 0.90047 0.0
C458 C 0.49282 0.35956 0.95056 0.0
C459 C 0.47621 0.34376 0.93943 0.0
C460 C 0.50232 0.37374 0.92144 0.0
C461 C 0.49485 0.37154 0.88159 0.0
H462 H 0.4724 0.35396 0.84138 0.0
H463 H 0.46862 0.33297 0.96195 0.0
C464 C 0.40931 0.25489 0.94287 0.0
N465 N 0.41582 0.27279 0.95439 0.0
C466 C 0.40644 0.24148 0.97236 0.0
C467 C 0.4167 0.26518 0.02508 0.0
C468 C 0.41926 0.27811 0.99459 0.0
C469 C 0.41058 0.24668 0.01394 0.0
H470 H 0.40708 0.25119 0.91051 0.0
H471 H 0.42478 0.29252 0.00276 0.0
C472 C 0.44041 0.326 0.79139 0.0
N473 N 0.44857 0.33363 0.70846 0.0
C474 C 0.4277 0.32708 0.76487 0.0
C475 C 0.4573 0.32891 0.77565 0.0
C476 C 0.43208 0.33094 0.72308 0.0
C477 C 0.46115 0.33271 0.73366 0.0
C478 C 0.38911 0.27263 0.84475 0.0
C479 C 0.38532 0.27803 0.80684 0.0
C480 C 0.37523 0.25689 0.86469 0.0
C481 C 0.36775 0.26747 0.78921 0.0
C482 C 0.35783 0.24668 0.84606 0.0
N483 N 0.35448 0.25213 0.80901 0.0
C484 C 0.4446 0.27628 0.79222 0.0
C485 C 0.42552 0.28396 0.75239 0.0
C486 C 0.44718 0.26741 0.7584 0.0
N487 N 0.43395 0.28437 0.78865 0.0
C488 C 0.42775 0.27532 0.71781 0.0
C489 C 0.43863 0.2668 0.72058 0.0
H490 H 0.45096 0.27654 0.82149 0.0
H491 H 0.41712 0.29041 0.74998 0.0
C492 C 0.40542 0.33609 0.84732 0.0
N493 N 0.39719 0.31804 0.85911 0.0
C494 C 0.3948 0.34333 0.83154 0.0
C495 C 0.3672 0.31374 0.84395 0.0
C496 C 0.37841 0.30706 0.85964 0.0
C497 C 0.37547 0.33191 0.82828 0.0
H498 H 0.42039 0.34453 0.84771 0.0
H499 H 0.37214 0.29291 0.87042 0.0
O500 O 0.4462 0.29632 0.88418 0.0
O501 O 0.4261 0.31557 0.92509 0.0
O502 O 0.43636 0.32216 0.83246 0.0
O503 O 0.40614 0.2829 0.8629 0.0
H504 H 0.45532 0.29235 0.96033 0.0
H505 H 0.47659 0.31164 0.83822 0.0
H506 H 0.4873 0.30231 0.98388 0.0
H507 H 0.50825 0.32144 0.86396 0.0
H508 H 0.36849 0.28536 0.98249 0.0
H509 H 0.43186 0.33961 0.98431 0.0
H510 H 0.3913 0.28769 0.93031 0.0
H511 H 0.40829 0.33634 0.03581 0.0
H512 H 0.49795 0.36084 0.98182 0.0
H513 H 0.50177 0.38208 0.85813 0.0
H514 H 0.40198 0.22744 0.96241 0.0
H515 H 0.41996 0.26972 0.05685 0.0
H516 H 0.41448 0.32471 0.77616 0.0
H517 H 0.4673 0.32815 0.79559 0.0
H518 H 0.42233 0.3317 0.70222 0.0
H519 H 0.47414 0.33489 0.72111 0.0
H520 H 0.39561 0.29058 0.79191 0.0
H521 H 0.37783 0.25265 0.89435 0.0
H522 H 0.3646 0.27157 0.76 0.0
H523 H 0.34697 0.23445 0.86113 0.0
H524 H 0.45544 0.26077 0.76211 0.0
H525 H 0.42111 0.27541 0.68914 0.0
H526 H 0.40184 0.35737 0.8196 0.0
H527 H 0.35231 0.30459 0.84281 0.0
Li528 Li 0.57245 0.88219 0.87629 0.0
Li529 Li 0.55338 0.84891 0.88882 0.0
Li530 Li 0.56909 0.86086 0.82282 0.0
Li531 Li 0.54246 0.86387 0.84271 0.0
C532 C 0.59607 0.87182 0.90022 0.0
N533 N 0.62775 0.89028 0.94779 0.0
C534 C 0.59573 0.8672 0.94182 0.0
C535 C 0.61254 0.88574 0.88274 0.0
C536 C 0.6119 0.8767 0.96536 0.0
C537 C 0.6284 0.89494 0.90733 0.0
C538 C 0.53489 0.87316 0.91394 0.0
C539 C 0.50332 0.86451 0.93049 0.0
N540 N 0.50837 0.88276 0.93235 0.0
C541 C 0.53978 0.89184 0.91612 0.0
C542 C 0.51654 0.85936 0.92134 0.0
C543 C 0.52617 0.89641 0.92548 0.0
C544 C 0.59793 0.92101 0.88149 0.0
N545 N 0.58837 0.90492 0.90301 0.0
C546 C 0.60018 0.92078 0.9669 0.0
C547 C 0.5892 0.90452 0.94485 0.0
C548 C 0.61008 0.93767 0.94565 0.0
C549 C 0.60892 0.93769 0.90237 0.0
H550 H 0.59679 0.92093 0.84824 0.0
H551 H 0.58111 0.89154 0.9611 0.0
C552 C 0.55515 0.8193 0.92412 0.0
N553 N 0.54758 0.83033 0.92911 0.0
C554 C 0.55295 0.80652 0.95453 0.0
C555 C 0.53505 0.81658 0.99457 0.0
C556 C 0.53754 0.82915 0.96321 0.0
C557 C 0.5431 0.8053 0.99074 0.0
H558 H 0.56332 0.8208 0.89692 0.0
H559 H 0.53202 0.83838 0.96669 0.0
C560 C 0.57252 0.88897 0.77916 0.0
N561 N 0.58528 0.89957 0.69948 0.0
C562 C 0.55997 0.88513 0.74687 0.0
C563 C 0.59156 0.8983 0.771 0.0
C564 C 0.5667 0.89059 0.70678 0.0
C565 C 0.59774 0.9035 0.73048 0.0
C566 C 0.53467 0.8221 0.83633 0.0
C567 C 0.54267 0.81242 0.81866 0.0
C568 C 0.51836 0.81246 0.85941 0.0
C569 C 0.53424 0.79326 0.82453 0.0
C570 C 0.51039 0.79331 0.86464 0.0
N571 N 0.51843 0.78418 0.84723 0.0
C572 C 0.59608 0.85415 0.78736 0.0
C573 C 0.57212 0.85037 0.74178 0.0
C574 C 0.60311 0.84714 0.75773 0.0
N575 N 0.5807 0.85536 0.7791 0.0
C576 C 0.57879 0.84346 0.71112 0.0
C577 C 0.5942 0.84133 0.71935 0.0
H578 H 0.60235 0.85778 0.81762 0.0
H579 H 0.55955 0.85087 0.73659 0.0
C580 C 0.52256 0.88136 0.81789 0.0
N581 N 0.52119 0.86455 0.82387 0.0
C582 C 0.50694 0.88248 0.80681 0.0
C583 C 0.48889 0.84896 0.80755 0.0
C584 C 0.50488 0.8485 0.81843 0.0
C585 C 0.48975 0.86612 0.80189 0.0
H586 H 0.53577 0.8939 0.82231 0.0
H587 H 0.50421 0.83534 0.82325 0.0
O588 O 0.5803 0.86293 0.87683 0.0
O589 O 0.5479 0.86839 0.90365 0.0
O590 O 0.56621 0.88357 0.81855 0.0
O591 O 0.54284 0.84091 0.83142 0.0
H592 H 0.5831 0.85654 0.95596 0.0
H593 H 0.61303 0.88952 0.85062 0.0
H594 H 0.61182 0.87334 0.99765 0.0
H595 H 0.64122 0.90582 0.89427 0.0
H596 H 0.48904 0.85398 0.93595 0.0
H597 H 0.55388 0.90269 0.91016 0.0
H598 H 0.51248 0.84484 0.91935 0.0
H599 H 0.52973 0.9108 0.92707 0.0
H600 H 0.60045 0.92025 0.00029 0.0
H601 H 0.61638 0.95046 0.88495 0.0
H602 H 0.55921 0.79794 0.95008 0.0
H603 H 0.5276 0.81629 0.02222 0.0
H604 H 0.54518 0.87783 0.75259 0.0
H605 H 0.60146 0.90134 0.79563 0.0
H606 H 0.55714 0.88764 0.68145 0.0
H607 H 0.61243 0.91064 0.72368 0.0
H608 H 0.55531 0.81961 0.80088 0.0
H609 H 0.51213 0.81974 0.87386 0.0
H610 H 0.54032 0.78562 0.81114 0.0
H611 H 0.49786 0.78571 0.88269 0.0
H612 H 0.61502 0.8457 0.76521 0.0
H613 H 0.57129 0.83879 0.68223 0.0
H614 H 0.50834 0.896 0.80213 0.0
H615 H 0.47593 0.836 0.80462 0.0
Li616 Li 0.70159 0.5594 0.06663 0.0
Li617 Li 0.68731 0.57782 0.04425 0.0
Li618 Li 0.67562 0.54557 0.01908 0.0
Li619 Li 0.70491 0.57029 0.99729 0.0
C620 C 0.66686 0.53985 0.10343 0.0
N621 N 0.64829 0.51076 0.15799 0.0
C622 C 0.65643 0.54126 0.13554 0.0
C623 C 0.66786 0.52366 0.09904 0.0
C624 C 0.64714 0.52639 0.16283 0.0
C625 C 0.65837 0.50911 0.12694 0.0
C626 C 0.7272 0.60359 0.04418 0.0
C627 C 0.73712 0.63491 0.02235 0.0
N628 N 0.75441 0.64044 0.03715 0.0
C629 C 0.74502 0.60961 0.0595 0.0
C630 C 0.72316 0.61635 0.02567 0.0
C631 C 0.75861 0.62828 0.05549 0.0
C632 C 0.71497 0.54054 0.11778 0.0
N633 N 0.71319 0.5558 0.11293 0.0
C634 C 0.72998 0.56908 0.1751 0.0
C635 C 0.72022 0.56982 0.1409 0.0
C636 C 0.73261 0.55378 0.18041 0.0
C637 C 0.72475 0.53926 0.15147 0.0
H638 H 0.70911 0.52951 0.09517 0.0
H639 H 0.71841 0.5817 0.13627 0.0
C640 C 0.66337 0.59237 0.0534 0.0
N641 N 0.67985 0.59417 0.06531 0.0
C642 C 0.65646 0.60252 0.07341 0.0
C643 C 0.68398 0.61664 0.11624 0.0
C644 C 0.69019 0.606 0.09596 0.0
C645 C 0.66674 0.61465 0.10558 0.0
H646 H 0.65531 0.58254 0.02949 0.0
H647 H 0.70295 0.60667 0.10563 0.0
C648 C 0.71437 0.54297 0.01257 0.0
N649 N 0.74533 0.53905 0.00471 0.0
C650 C 0.73202 0.55783 0.02173 0.0
C651 C 0.7125 0.52611 -0.00052 0.0
C652 C 0.74748 0.55558 0.01753 0.0
C653 C 0.72831 0.52441 0.99571 0.0
C654 C 0.68112 0.57074 0.94579 0.0
C655 C 0.67503 0.55574 0.91868 0.0
C656 C 0.68872 0.58873 0.93008 0.0
C657 C 0.67686 0.55903 0.87618 0.0
C658 C 0.69032 0.59144 0.88738 0.0
N659 N 0.68442 0.57666 0.86154 0.0
C660 C 0.63725 0.52316 0.01067 0.0
C661 C 0.65426 0.50841 0.99172 0.0
C662 C 0.62053 0.50707 0.00189 0.0
N663 N 0.6536 0.52349 0.00546 0.0
C664 C 0.63787 0.49199 0.98267 0.0
C665 C 0.62071 0.49119 0.98774 0.0
H666 H 0.63724 0.5354 0.02194 0.0
H667 H 0.6675 0.50914 0.98788 0.0
C668 C 0.73617 0.59538 0.94525 0.0
N669 N 0.72158 0.57792 0.95091 0.0
C670 C 0.74959 0.59876 0.91537 0.0
C671 C 0.73221 0.56641 0.89604 0.0
C672 C 0.71906 0.56372 0.92588 0.0
C673 C 0.748 0.58399 0.89146 0.0
H674 H 0.73795 0.60659 0.96476 0.0
H675 H 0.70724 0.55001 0.93051 0.0
O676 O 0.67601 0.5543 0.07651 0.0
O677 O 0.71367 0.58542 0.0486 0.0
O678 O 0.69897 0.54485 0.01583 0.0
O679 O 0.67984 0.56782 0.9875 0.0
H680 H 0.65553 0.55372 0.13931 0.0
H681 H 0.67587 0.52233 0.07437 0.0
H682 H 0.63901 0.52728 0.18784 0.0
H683 H 0.65903 0.4965 0.1239 0.0
H684 H 0.73421 0.64491 0.00796 0.0
H685 H 0.74832 0.59997 0.0744 0.0
H686 H 0.70945 0.61197 0.01381 0.0
H687 H 0.77248 0.63312 0.06707 0.0
H688 H 0.73545 0.58041 0.19705 0.0
H689 H 0.72655 0.52728 0.15415 0.0
H690 H 0.64307 0.60063 0.06452 0.0
H691 H 0.69211 0.62561 0.14141 0.0
H692 H 0.73381 0.57098 0.03176 0.0
H693 H 0.69899 0.51446 0.99222 0.0
H694 H 0.7612 0.56699 0.02442 0.0
H695 H 0.72705 0.51144 0.98556 0.0
H696 H 0.66917 0.54173 0.93034 0.0
H697 H 0.69338 0.60048 0.9506 0.0
H698 H 0.67232 0.54756 0.85484 0.0
H699 H 0.69626 0.6053 0.87478 0.0
H700 H 0.60761 0.50698 0.00673 0.0
H701 H 0.63863 0.48014 0.97138 0.0
H702 H 0.76159 0.61253 0.9126 0.0
H703 H 0.73035 0.55474 0.87762 0.0
Li704 Li 0.13891 0.70349 0.22341 0.0
Li705 Li 0.10586 0.6893 0.19968 0.0
Li706 Li 0.12638 0.67838 0.17165 0.0
Li707 Li 0.13134 0.70833 0.15564 0.0
C708 C 0.11372 0.66818 0.2654 0.0
N709 N 0.1039 0.6489 0.33919 0.0
C710 C 0.10378 0.67184 0.29508 0.0
C711 C 0.1185 0.65456 0.27312 0.0
C712 C 0.09899 0.66199 0.33222 0.0
C713 C 0.11346 0.64501 0.31066 0.0
C714 C 0.12895 0.73329 0.19947 0.0
C715 C 0.12164 0.75486 0.16661 0.0
N716 N 0.13852 0.76912 0.17802 0.0
C717 C 0.14619 0.74815 0.21105 0.0
C718 C 0.11652 0.73664 0.17724 0.0
C719 C 0.15078 0.76617 0.19986 0.0
C720 C 0.17337 0.72443 0.26615 0.0
N721 N 0.15457 0.71467 0.26997 0.0
C722 C 0.15671 0.72329 0.34093 0.0
C723 C 0.14616 0.71409 0.30631 0.0
C724 C 0.17613 0.73345 0.33794 0.0
C725 C 0.18448 0.7338 0.30005 0.0
H726 H 0.17979 0.72553 0.23654 0.0
H727 H 0.13124 0.70703 0.3081 0.0
C728 C 0.07042 0.66235 0.22278 0.0
N729 N 0.08167 0.68097 0.21897 0.0
C730 C 0.05364 0.65523 0.24391 0.0
C731 C 0.05988 0.68662 0.25459 0.0
C732 C 0.07668 0.69314 0.2337 0.0
C733 C 0.04834 0.66744 0.26098 0.0
H734 H 0.07502 0.65309 0.2114 0.0
H735 H 0.08609 0.70789 0.23083 0.0
C736 C 0.16487 0.69875 0.17801 0.0
N737 N 0.19352 0.69165 0.19157 0.0
C738 C 0.18054 0.7068 0.15263 0.0
C739 C 0.16376 0.68709 0.21028 0.0
C740 C 0.19488 0.70304 0.15999 0.0
C741 C 0.17839 0.68367 0.21665 0.0
C742 C 0.10906 0.67994 0.10044 0.0
C743 C 0.12577 0.68481 0.08041 0.0
C744 C 0.09237 0.67055 0.07864 0.0
C745 C 0.12549 0.68019 0.03886 0.0
C746 C 0.09266 0.66618 0.03711 0.0
N747 N 0.10908 0.67105 0.01824 0.0
C748 C 0.111 0.64012 0.16627 0.0
C749 C 0.13961 0.65681 0.13071 0.0
C750 C 0.10983 0.62329 0.15598 0.0
N751 N 0.12585 0.6564 0.15407 0.0
C752 C 0.13906 0.64031 0.11989 0.0
C753 C 0.12409 0.62324 0.13286 0.0
H754 H 0.10014 0.64025 0.18436 0.0
H755 H 0.15111 0.66993 0.12073 0.0
C756 C 0.15827 0.73985 0.11647 0.0
N757 N 0.13997 0.72693 0.11438 0.0
C758 C 0.16615 0.75398 0.08727 0.0
C759 C 0.13616 0.74125 0.05418 0.0
C760 C 0.12878 0.72743 0.08441 0.0
C761 C 0.15511 0.75468 0.05533 0.0
H762 H 0.16676 0.73907 0.1408 0.0
H763 H 0.11421 0.71704 0.08382 0.0
O764 O 0.1182 0.67738 0.22838 0.0
O765 O 0.1244 0.71553 0.20925 0.0
O766 O 0.15065 0.70214 0.1706 0.0
O767 O 0.10887 0.68425 0.14115 0.0
H768 H 0.09988 0.68227 0.28967 0.0
H769 H 0.12596 0.65132 0.25036 0.0
H770 H 0.09136 0.66476 0.35549 0.0
H771 H 0.11711 0.63447 0.31705 0.0
H772 H 0.11223 0.75765 0.14913 0.0
H773 H 0.15598 0.74578 0.22814 0.0
H774 H 0.1032 0.72526 0.16768 0.0
H775 H 0.16411 0.7778 0.20841 0.0
H776 H 0.14971 0.7227 0.36956 0.0
H777 H 0.19939 0.74186 0.29618 0.0
H778 H 0.04545 0.64039 0.24863 0.0
H779 H 0.05627 0.69654 0.26662 0.0
H780 H 0.18157 0.7158 0.1274 0.0
H781 H 0.15184 0.68087 0.23036 0.0
H782 H 0.20709 0.70916 0.14055 0.0
H783 H 0.17772 0.6747 0.24156 0.0
H784 H 0.13885 0.69212 0.09659 0.0
H785 H 0.07931 0.66667 0.09372 0.0
H786 H 0.13831 0.68389 0.023 0.0
H787 H 0.07984 0.65891 0.01987 0.0
H788 H 0.09785 0.61047 0.16596 0.0
H789 H 0.15045 0.64099 0.10232 0.0
H790 H 0.18088 0.76388 0.08888 0.0
H791 H 0.1272 0.74139 0.03009 0.0
Li792 Li 0.44298 0.148 0.39467 0.0
Li793 Li 0.42448 0.11459 0.38546 0.0
Li794 Li 0.4559 0.13206 0.35797 0.0
Li795 Li 0.43047 0.13441 0.32722 0.0
C796 C 0.46015 0.12481 0.4347 0.0
N797 N 0.4854 0.11613 0.46832 0.0
C798 C 0.45474 0.1064 0.4442 0.0
C799 C 0.47838 0.13882 0.44249 0.0
C800 C 0.46771 0.1023 0.46119 0.0
C801 C 0.49095 0.13414 0.4594 0.0
C802 C 0.39982 0.12515 0.3957 0.0
C803 C 0.36736 0.10188 0.39625 0.0
N804 N 0.36576 0.10741 0.43479 0.0
C805 C 0.39785 0.13067 0.43524 0.0
C806 C 0.38445 0.11071 0.37592 0.0
C807 C 0.38051 0.12151 0.45451 0.0
C808 C 0.43934 0.17793 0.42165 0.0
N809 N 0.44722 0.1675 0.43104 0.0
C810 C 0.45799 0.18299 0.49567 0.0
C811 C 0.45657 0.16985 0.46695 0.0
C812 C 0.44955 0.19364 0.48736 0.0
C813 C 0.44042 0.19123 0.44943 0.0
H814 H 0.43174 0.17551 0.39308 0.0
H815 H 0.46237 0.16108 0.47392 0.0
C816 C 0.39923 0.07581 0.39541 0.0
N817 N 0.40763 0.09274 0.41382 0.0
C818 C 0.38819 0.05988 0.41873 0.0
C819 C 0.39437 0.07929 0.47897 0.0
C820 C 0.40539 0.09476 0.45465 0.0
C821 C 0.38587 0.0615 0.46127 0.0
H822 H 0.40153 0.07464 0.36297 0.0
H823 H 0.41252 0.10841 0.46848 0.0
C824 C 0.46434 0.17351 0.34272 0.0
N825 N 0.48056 0.2116 0.34969 0.0
C826 C 0.45666 0.18287 0.32218 0.0
C827 C 0.48029 0.18353 0.36674 0.0
C828 C 0.46508 0.20213 0.32608 0.0
C829 C 0.48826 0.20277 0.36993 0.0
C830 C 0.42904 0.10562 0.29146 0.0
C831 C 0.44318 0.10934 0.26323 0.0
C832 C 0.41052 0.09575 0.27873 0.0
C833 C 0.43854 0.10324 0.22249 0.0
C834 C 0.40646 0.0899 0.23771 0.0
N835 N 0.42044 0.09374 0.21067 0.0
C836 C 0.4777 0.11494 0.35073 0.0
C837 C 0.49328 0.14696 0.33391 0.0
C838 C 0.49375 0.11407 0.343 0.0
N839 N 0.47784 0.13127 0.34651 0.0
C840 C 0.50958 0.1467 0.32555 0.0
C841 C 0.50995 0.13011 0.33016 0.0
H842 H 0.46509 0.1026 0.36007 0.0
H843 H 0.49291 0.15967 0.33019 0.0
C844 C 0.40606 0.14016 0.27632 0.0
N845 N 0.422 0.13942 0.27726 0.0
C846 C 0.40231 0.14837 0.24283 0.0
C847 C 0.43098 0.15394 0.21125 0.0
C848 C 0.43415 0.14562 0.24521 0.0
C849 C 0.41526 0.15605 0.21058 0.0
H850 H 0.39691 0.13559 0.30274 0.0
H851 H 0.44696 0.14531 0.24738 0.0
O852 O 0.44775 0.12909 0.41737 0.0
O853 O 0.41675 0.13372 0.3766 0.0
O854 O 0.45613 0.15461 0.33992 0.0
O855 O 0.4333 0.11168 0.33132 0.0
H856 H 0.44074 0.09535 0.43813 0.0
H857 H 0.48285 0.15311 0.43501 0.0
H858 H 0.46373 0.0881 0.46853 0.0
H859 H 0.50513 0.14482 0.4653 0.0
H860 H 0.35537 0.0906 0.38141 0.0
H861 H 0.40961 0.14175 0.45113 0.0
H862 H 0.38575 0.10625 0.34537 0.0
H863 H 0.37881 0.12557 0.48519 0.0
H864 H 0.46489 0.18419 0.52481 0.0
H865 H 0.43387 0.19926 0.44166 0.0
H866 H 0.38213 0.04644 0.40389 0.0
H867 H 0.39276 0.08127 0.51143 0.0
H868 H 0.44423 0.17538 0.30383 0.0
H869 H 0.4863 0.17651 0.38323 0.0
H870 H 0.45925 0.20954 0.31046 0.0
H871 H 0.50054 0.21068 0.3886 0.0
H872 H 0.45759 0.117 0.27255 0.0
H873 H 0.39943 0.09273 0.30022 0.0
H874 H 0.44934 0.10609 0.20024 0.0
H875 H 0.3922 0.08233 0.22736 0.0
H876 H 0.49338 0.10094 0.34629 0.0
H877 H 0.52181 0.15939 0.31592 0.0
H878 H 0.39015 0.14994 0.2437 0.0
H879 H 0.44124 0.15958 0.18684 0.0
Li880 Li 0.29244 0.43616 0.5544 0.0
Li881 Li 0.30577 0.41729 0.54221 0.0
Li882 Li 0.32066 0.44882 0.51513 0.0
Li883 Li 0.29097 0.42416 0.48682 0.0
C884 C 0.31773 0.43743 0.61422 0.0
N885 N 0.31962 0.42932 0.69619 0.0
C886 C 0.30196 0.42367 0.63434 0.0
C887 C 0.33447 0.44703 0.63577 0.0
C888 C 0.3032 0.41979 0.67579 0.0
C889 C 0.33514 0.44274 0.67721 0.0
C890 C 0.26883 0.39157 0.52724 0.0
C891 C 0.26498 0.36483 0.48972 0.0
N892 N 0.24772 0.35454 0.50616 0.0
C893 C 0.25105 0.38075 0.54366 0.0
C894 C 0.27587 0.38358 0.49995 0.0
C895 C 0.2406 0.36205 0.53267 0.0
C896 C 0.26027 0.43453 0.58383 0.0
N897 N 0.27867 0.4421 0.59177 0.0
C898 C 0.27586 0.45621 0.65338 0.0
C899 C 0.2867 0.45316 0.62512 0.0
C900 C 0.25664 0.44816 0.6467 0.0
C901 C 0.24898 0.43755 0.61074 0.0
H902 H 0.25438 0.42602 0.55664 0.0
H903 H 0.30145 0.45932 0.63025 0.0
C904 C 0.32966 0.40556 0.57067 0.0
N905 N 0.31138 0.40035 0.56878 0.0
C906 C 0.33566 0.39645 0.59727 0.0
C907 C 0.30379 0.37615 0.61783 0.0
C908 C 0.29843 0.38579 0.59118 0.0
C909 C 0.32268 0.38183 0.62198 0.0
H910 H 0.33967 0.4175 0.55325 0.0
H911 H 0.28409 0.38237 0.59056 0.0
C912 C 0.29486 0.46395 0.51136 0.0
N913 N 0.28752 0.49165 0.53401 0.0
C914 C 0.27894 0.46372 0.49676 0.0
C915 C 0.30708 0.4783 0.53735 0.0
C916 C 0.27547 0.47784 0.50859 0.0
C917 C 0.30312 0.49217 0.54847 0.0
C918 C 0.3239 0.43012 0.44743 0.0
C919 C 0.32164 0.44253 0.42237 0.0
C920 C 0.33472 0.42269 0.43354 0.0
C921 C 0.33022 0.44727 0.38372 0.0
C922 C 0.34307 0.42776 0.39467 0.0
N923 N 0.34067 0.43985 0.37079 0.0
C924 C 0.3591 0.47354 0.52318 0.0
C925 C 0.34377 0.48284 0.47519 0.0
C926 C 0.37597 0.48971 0.51558 0.0
N927 N 0.34348 0.4705 0.50311 0.0
C928 C 0.36034 0.49906 0.46634 0.0
C929 C 0.3767 0.50268 0.48676 0.0
H930 H 0.3584 0.46344 0.54519 0.0
H931 H 0.33109 0.48015 0.46001 0.0
C932 C 0.25854 0.41473 0.44744 0.0
N933 N 0.27477 0.41499 0.44071 0.0
C934 C 0.24555 0.40978 0.41589 0.0
C935 C 0.26586 0.40465 0.37129 0.0
C936 C 0.27839 0.40946 0.40404 0.0
C937 C 0.24935 0.40511 0.37693 0.0
H938 H 0.25592 0.41881 0.47724 0.0
H939 H 0.29108 0.40911 0.39983 0.0
O940 O 0.31705 0.44109 0.57325 0.0
O941 O 0.27906 0.40995 0.53756 0.0
O942 O 0.29826 0.44998 0.50113 0.0
O943 O 0.31597 0.42548 0.48576 0.0
H944 H 0.28892 0.41596 0.61809 0.0
H945 H 0.34683 0.45763 0.62058 0.0
H946 H 0.29111 0.40915 0.6917 0.0
H947 H 0.34801 0.45005 0.69426 0.0
H948 H 0.27025 0.35846 0.46868 0.0
H949 H 0.24539 0.38677 0.56468 0.0
H950 H 0.28956 0.3917 0.48679 0.0
H951 H 0.22681 0.3535 0.54519 0.0
H952 H 0.28246 0.46433 0.68072 0.0
H953 H 0.23439 0.43147 0.60351 0.0
H954 H 0.35035 0.40117 0.59952 0.0
H955 H 0.29342 0.36514 0.63686 0.0
H956 H 0.26935 0.45274 0.47659 0.0
H957 H 0.31934 0.47856 0.54938 0.0
H958 H 0.26318 0.47782 0.49762 0.0
H959 H 0.31239 0.50329 0.56877 0.0
H960 H 0.3132 0.44831 0.43236 0.0
H961 H 0.33667 0.41313 0.45267 0.0
H962 H 0.32854 0.45682 0.36398 0.0
H963 H 0.35148 0.42211 0.38353 0.0
H964 H 0.38832 0.49194 0.53172 0.0
H965 H 0.36028 0.50882 0.44432 0.0
H966 H 0.23305 0.41044 0.42144 0.0
H967 H 0.26914 0.40089 0.34176 0.0
Li968 Li 0.88383 0.30327 0.72078 0.0
Li969 Li 0.85123 0.28988 0.7257 0.0
Li970 Li 0.86374 0.2862 0.66322 0.0
Li971 Li 0.86761 0.31692 0.6827 0.0
C972 C 0.87372 0.26616 0.7153 0.0
N973 N 0.89175 0.24593 0.70986 0.0
C974 C 0.86582 0.24846 0.73277 0.0
C975 C 0.89085 0.2736 0.69523 0.0
C976 C 0.87512 0.23843 0.72961 0.0
C977 C 0.89974 0.26316 0.69279 0.0
C978 C 0.87238 0.3172 0.78468 0.0
C979 C 0.88014 0.33625 0.84572 0.0
N980 N 0.87774 0.32161 0.86902 0.0
C981 C 0.87 0.30234 0.80923 0.0
C982 C 0.87749 0.33429 0.80302 0.0
C983 C 0.87277 0.30485 0.85181 0.0
C984 C 0.91992 0.32824 0.74683 0.0
N985 N 0.90589 0.31046 0.75136 0.0
C986 C 0.92256 0.30494 0.80425 0.0
C987 C 0.90687 0.29882 0.77944 0.0
C988 C 0.93712 0.32332 0.80075 0.0
C989 C 0.93575 0.33503 0.77149 0.0
H990 H 0.91857 0.33724 0.72472 0.0
H991 H 0.89528 0.28494 0.78344 0.0
C992 C 0.82273 0.25922 0.76609 0.0
N993 N 0.83077 0.2779 0.76207 0.0
C994 C 0.80837 0.24975 0.79426 0.0
C995 C 0.81058 0.27894 0.81299 0.0
C996 C 0.82486 0.28784 0.78426 0.0
C997 C 0.80231 0.25967 0.81862 0.0
H998 H 0.82773 0.25174 0.74784 0.0
H999 H 0.83148 0.3027 0.78011 0.0
C1000 C 0.8943 0.3152 0.6234 0.0
N1001 N 0.90896 0.32282 0.54456 0.0
C1002 C 0.88543 0.31931 0.59194 0.0
C1003 C 0.91076 0.31519 0.61487 0.0
C1004 C 0.89301 0.32305 0.55225 0.0
C1005 C 0.91792 0.31903 0.57479 0.0
C1006 C 0.82608 0.28494 0.67205 0.0
C1007 C 0.8155 0.26589 0.66442 0.0
C1008 C 0.81732 0.29478 0.6842 0.0
C1009 C 0.79626 0.25695 0.66929 0.0
C1010 C 0.79804 0.28532 0.68873 0.0
N1011 N 0.788 0.26676 0.68127 0.0
C1012 C 0.8595 0.25478 0.61444 0.0
C1013 C 0.85039 0.27491 0.58426 0.0
C1014 C 0.85252 0.2428 0.58064 0.0
N1015 N 0.85818 0.27044 0.61586 0.0
C1016 C 0.84328 0.26337 0.54991 0.0
C1017 C 0.84398 0.24688 0.54812 0.0
H1018 H 0.86525 0.25103 0.63992 0.0
H1019 H 0.84889 0.28705 0.58658 0.0
C1020 C 0.88193 0.35544 0.68136 0.0
N1021 N 0.86892 0.3391 0.66456 0.0
C1022 C 0.88255 0.37197 0.67037 0.0
C1023 C 0.85654 0.3545 0.62457 0.0
C1024 C 0.8564 0.33832 0.63654 0.0
C1025 C 0.86963 0.37161 0.64186 0.0
H1026 H 0.89161 0.35556 0.70384 0.0
H1027 H 0.84621 0.32509 0.62371 0.0
O1028 O 0.86487 0.27622 0.71899 0.0
O1029 O 0.86991 0.31519 0.74285 0.0
O1030 O 0.88706 0.31142 0.66245 0.0
O1031 O 0.84496 0.29384 0.66851 0.0
H1032 H 0.85264 0.24254 0.7487 0.0
H1033 H 0.89723 0.28726 0.68178 0.0
H1034 H 0.86914 0.22471 0.74294 0.0
H1035 H 0.91299 0.26875 0.67734 0.0
H1036 H 0.8841 0.3494 0.86033 0.0
H1037 H 0.86609 0.28901 0.79561 0.0
H1038 H 0.87942 0.34594 0.78441 0.0
H1039 H 0.87099 0.29347 0.87116 0.0
H1040 H 0.92303 0.29561 0.82693 0.0
H1041 H 0.94676 0.34929 0.7679 0.0
H1042 H 0.80257 0.23493 0.79799 0.0
H1043 H 0.80618 0.28705 0.83088 0.0
H1044 H 0.87272 0.31941 0.59796 0.0
H1045 H 0.91801 0.31235 0.63896 0.0
H1046 H 0.8862 0.32612 0.52757 0.0
H1047 H 0.93063 0.31903 0.56774 0.0
H1048 H 0.82211 0.25807 0.65532 0.0
H1049 H 0.82535 0.3095 0.6906 0.0
H1050 H 0.78789 0.24219 0.6637 0.0
H1051 H 0.79107 0.29272 0.69834 0.0
H1052 H 0.85341 0.23025 0.58043 0.0
H1053 H 0.83646 0.26689 0.52602 0.0
H1054 H 0.89271 0.3848 0.6849 0.0
H1055 H 0.8465 0.35359 0.60206 0.0
H1056 H 0.155 0.38389 0.22398 0.0
H1057 H 0.25907 0.42036 0.30012 0.0
H1058 H 0.20253 0.43413 0.18021 0.0
H1059 H 0.21136 0.3844 0.37434 0.0
H1060 H 0.23831 0.42002 0.24625 0.0
H1061 H 0.17546 0.37899 0.27078 0.0
C1062 C 0.16974 0.3938 0.22415 0.0
C1063 C 0.17712 0.40955 0.19875 0.0
C1064 C 0.23239 0.41203 0.27414 0.0
C1065 C 0.20047 0.40392 0.25122 0.0
C1066 C 0.24421 0.41207 0.30468 0.0
C1067 C 0.23689 0.4025 0.3418 0.0
C1068 C 0.21313 0.40224 0.28064 0.0
C1069 C 0.21753 0.39215 0.34631 0.0
C1070 C 0.18136 0.39102 0.25076 0.0
C1071 C 0.19629 0.42198 0.19987 0.0
N1072 N 0.20628 0.39237 0.31615 0.0
N1073 N 0.20731 0.4189 0.22566 0.0
H1074 H 0.82251 0.20903 0.55347 0.0
H1075 H 0.78578 0.19869 0.32219 0.0
H1076 H 0.84349 0.25405 0.46564 0.0
H1077 H 0.76599 0.15274 0.40741 0.0
H1078 H 0.80907 0.21838 0.37241 0.0
H1079 H 0.80401 0.18753 0.4987 0.0
C1080 C 0.82349 0.21436 0.52251 0.0
C1081 C 0.83448 0.23342 0.5142 0.0
C1082 C 0.79976 0.20395 0.38007 0.0
C1083 C 0.81305 0.2089 0.45152 0.0
C1084 C 0.78649 0.19262 0.35121 0.0
C1085 C 0.77383 0.17398 0.36052 0.0
C1086 C 0.80034 0.1967 0.41879 0.0
C1087 C 0.77526 0.16709 0.3991 0.0
C1088 C 0.81281 0.20208 0.4913 0.0
C1089 C 0.83497 0.23954 0.4736 0.0
N1090 N 0.7882 0.17848 0.42693 0.0
N1091 N 0.8243 0.22735 0.44388 0.0
H1092 H 0.59583 0.74988 0.60426 0.0
H1093 H 0.59806 0.84552 0.63533 0.0
H1094 H 0.60502 0.78774 0.50418 0.0
H1095 H 0.60191 0.81376 0.73624 0.0
H1096 H 0.60249 0.82555 0.58671 0.0
H1097 H 0.59989 0.77395 0.65341 0.0
C1098 C 0.59892 0.76335 0.59272 0.0
C1099 C 0.6 0.76682 0.55017 0.0
C1100 C 0.60266 0.82312 0.61952 0.0
C1101 C 0.60447 0.79434 0.60602 0.0
C1102 C 0.60007 0.83448 0.64721 0.0
C1103 C 0.59952 0.83121 0.68981 0.0
C1104 C 0.60441 0.80823 0.63454 0.0
C1105 C 0.60236 0.81683 0.70365 0.0
C1106 C 0.6013 0.7771 0.62073 0.0
C1107 C 0.60419 0.78454 0.53677 0.0
N1108 N 0.60442 0.80571 0.67607 0.0
N1109 N 0.60601 0.79756 0.56459 0.0
H1110 H 0.82591 0.61222 0.69094 0.0
H1111 H 0.7638 0.56229 0.88759 0.0
H1112 H 0.832 0.57255 0.76525 0.0
H1113 H 0.76725 0.61145 0.83438 0.0
H1114 H 0.78886 0.56601 0.84237 0.0
H1115 H 0.80491 0.61284 0.74307 0.0
C1116 C 0.823 0.60383 0.71849 0.0
C1117 C 0.83059 0.59222 0.72371 0.0
C1118 C 0.78424 0.57606 0.84064 0.0
C1119 C 0.80651 0.59271 0.78307 0.0
C1120 C 0.76981 0.57383 0.86616 0.0
C1121 C 0.76333 0.58645 0.86425 0.0
C1122 C 0.79213 0.59091 0.81262 0.0
C1123 C 0.77186 0.6014 0.83664 0.0
C1124 C 0.81107 0.60422 0.74823 0.0
C1125 C 0.82654 0.58177 0.76011 0.0
N1126 N 0.78573 0.60313 0.81152 0.0
N1127 N 0.81459 0.58208 0.78814 0.0
H1128 H 0.23247 0.85018 0.91309 0.0
H1129 H 0.14992 0.74895 0.97224 0.0
H1130 H 0.21258 0.80185 0.83481 0.0
H1131 H 0.18031 0.79179 0.06245 0.0
H1132 H 0.16788 0.77079 0.91744 0.0
H1133 H 0.20901 0.83113 0.96439 0.0
C1134 C 0.22317 0.83564 0.90651 0.0
C1135 C 0.22467 0.82764 0.86953 0.0
C1136 C 0.17046 0.77547 0.94921 0.0
C1137 C 0.19758 0.80592 0.92775 0.0
C1138 C 0.16012 0.76307 0.98045 0.0
C1139 C 0.16381 0.76853 0.02192 0.0
C1140 C 0.18455 0.79347 0.95952 0.0
C1141 C 0.17729 0.78695 0.03084 0.0
C1142 C 0.20971 0.82482 0.9357 0.0
C1143 C 0.21189 0.80879 0.86245 0.0
N1144 N 0.1873 0.79875 -0.00011 0.0
N1145 N 0.19898 0.79859 0.89133 0.0
H1146 H 0.38448 0.15047 0.16682 0.0
H1147 H 0.43669 0.25289 0.07217 0.0
H1148 H 0.44255 0.18995 0.18516 0.0
H1149 H 0.38401 0.21003 0.02506 0.0
H1150 H 0.43725 0.2305 0.11972 0.0
H1151 H 0.38245 0.17246 0.11937 0.0
C1152 C 0.39679 0.16369 0.16066 0.0
C1153 C 0.41375 0.16833 0.17959 0.0
C1154 C 0.42552 0.22596 0.09909 0.0
C1155 C 0.41149 0.19352 0.12614 0.0
C1156 C 0.4251 0.2388 0.07222 0.0
C1157 C 0.41024 0.23333 0.04473 0.0
C1158 C 0.41094 0.20748 0.09873 0.0
C1159 C 0.39578 0.21478 0.04562 0.0
C1160 C 0.39564 0.17619 0.13361 0.0
C1161 C 0.42929 0.18564 0.17066 0.0
N1162 N 0.39647 0.20248 0.07226 0.0
N1163 N 0.42775 0.19761 0.14479 0.0
H1164 H 0.10827 0.51206 0.13998 0.0
H1165 H 0.13496 0.61359 0.06137 0.0
H1166 H 0.14211 0.53803 0.03258 0.0
H1167 H 0.11204 0.59245 0.18204 0.0
H1168 H 0.13503 0.58481 0.04715 0.0
H1169 H 0.1066 0.5402 0.15247 0.0
C1170 C 0.11526 0.52366 0.11893 0.0
C1171 C 0.12542 0.52277 0.08532 0.0
C1172 C 0.12997 0.58648 0.07671 0.0
C1173 C 0.12361 0.55496 0.09941 0.0
C1174 C 0.13 0.60295 0.08495 0.0
C1175 C 0.12356 0.60553 0.12306 0.0
C1176 C 0.12336 0.57241 0.10667 0.0
C1177 C 0.11692 0.59103 0.15204 0.0
C1178 C 0.11439 0.53974 0.12618 0.0
C1179 C 0.13435 0.53824 0.05918 0.0
N1180 N 0.11701 0.57512 0.14326 0.0
N1181 N 0.13321 0.5537 0.06675 0.0
H1182 H 0.60772 0.14022 0.2127 0.0
H1183 H 0.52528 0.11293 0.37416 0.0
H1184 H 0.60464 0.1142 0.32996 0.0
H1185 H 0.53352 0.14581 0.26482 0.0
H1186 H 0.55353 0.11201 0.35759 0.0
H1187 H 0.57976 0.14122 0.2304 0.0
C1188 C 0.60109 0.13463 0.24214 0.0
C1189 C 0.60845 0.12701 0.26982 0.0
C1190 C 0.54917 0.11946 0.33731 0.0
C1191 C 0.57646 0.12824 0.29047 0.0
C1192 C 0.533 0.1199 0.34661 0.0
C1193 C 0.52707 0.12948 0.32084 0.0
C1194 C 0.55937 0.12856 0.30182 0.0
C1195 C 0.53771 0.13845 0.2858 0.0
C1196 C 0.58518 0.13531 0.25235 0.0
C1197 C 0.59948 0.12029 0.30785 0.0
N1198 N 0.5533 0.13772 0.27727 0.0
N1199 N 0.58388 0.12098 0.317 0.0
H1200 H 0.39101 0.51836 0.41175 0.0
H1201 H 0.477 0.60979 0.50587 0.0
H1202 H 0.40245 0.52645 0.54235 0.0
H1203 H 0.47188 0.59524 0.37678 0.0
H1204 H 0.44864 0.58031 0.51994 0.0
H1205 H 0.41966 0.54752 0.39829 0.0
C1206 C 0.39956 0.52631 0.43759 0.0
C1207 C 0.39435 0.52001 0.47822 0.0
C1208 C 0.45377 0.58356 0.48857 0.0
C1209 C 0.42715 0.55337 0.4631 0.0
C1210 C 0.46986 0.60041 0.4805 0.0
C1211 C 0.4768 0.60493 0.44012 0.0
C1212 C 0.44444 0.57125 0.45593 0.0
C1213 C 0.46713 0.5922 0.40843 0.0
C1214 C 0.41595 0.54289 0.4299 0.0
C1215 C 0.40605 0.53074 0.51054 0.0
N1216 N 0.45141 0.57599 0.41699 0.0
N1217 N 0.42186 0.54696 0.50231 0.0
H1218 H 0.89935 0.48571 0.59395 0.0
H1219 H 0.83943 0.37603 0.63032 0.0
H1220 H 0.83963 0.45401 0.58425 0.0
H1221 H 0.89935 0.4066 0.6293 0.0
H1222 H 0.83932 0.40455 0.61378 0.0
H1223 H 0.89973 0.457 0.60733 0.0
C1224 C 0.88632 0.47271 0.59436 0.0
C1225 C 0.86942 0.4723 0.58802 0.0
C1226 C 0.8525 0.40503 0.61706 0.0
C1227 C 0.86975 0.43939 0.60382 0.0
C1228 C 0.85258 0.38871 0.62626 0.0
C1229 C 0.86943 0.38888 0.63113 0.0
C1230 C 0.86939 0.42173 0.6128 0.0
C1231 C 0.88603 0.40584 0.62633 0.0
C1232 C 0.88654 0.45633 0.60222 0.0
C1233 C 0.85296 0.45505 0.58958 0.0
N1234 N 0.88558 0.42158 0.61747 0.0
N1235 N 0.85354 0.43931 0.59735 0.0
H1236 H 0.40439 0.89658 0.78183 0.0
H1237 H 0.46103 0.84312 0.75071 0.0
H1238 H 0.38103 0.84227 0.72656 0.0
H1239 H 0.47959 0.89093 0.82993 0.0
H1240 H 0.43271 0.84405 0.73647 0.0
H1241 H 0.43328 0.89632 0.7943 0.0
C1242 C 0.40539 0.88464 0.77217 0.0
C1243 C 0.39029 0.8694 0.75324 0.0
C1244 C 0.44299 0.85434 0.75695 0.0
C1245 C 0.42323 0.86899 0.76742 0.0
C1246 C 0.45915 0.85378 0.76526 0.0
C1247 C 0.47274 0.86693 0.79171 0.0
C1248 C 0.4404 0.86822 0.77499 0.0
C1249 C 0.46965 0.88065 0.80892 0.0
C1250 C 0.42182 0.88446 0.77948 0.0
C1251 C 0.39225 0.85421 0.7417 0.0
N1252 N 0.45381 0.88093 0.80028 0.0
N1253 N 0.40843 0.85441 0.74888 0.0
H1254 H 0.53164 0.37698 0.96683 0.0
H1255 H 0.59013 0.48777 0.94788 0.0
H1256 H 0.51262 0.40958 0.90152 0.0
H1257 H 0.61115 0.4553 0.00599 0.0
H1258 H 0.56116 0.45925 0.9329 0.0
H1259 H 0.5604 0.40553 0.98392 0.0
C1260 C 0.53348 0.39015 0.95628 0.0
C1261 C 0.51974 0.3909 0.93259 0.0
C1262 C 0.5721 0.45834 0.94892 0.0
C1263 C 0.55263 0.42358 0.95177 0.0
C1264 C 0.58861 0.47464 0.95769 0.0
C1265 C 0.60308 0.47393 0.97825 0.0
C1266 C 0.56998 0.44116 0.96088 0.0
C1267 C 0.60044 0.45648 0.98966 0.0
C1268 C 0.54994 0.40642 0.96584 0.0
C1269 C 0.52295 0.40832 0.91934 0.0
N1270 N 0.5842 0.44079 0.98088 0.0
N1271 N 0.53904 0.42395 0.92913 0.0
H1272 H 0.22067 0.42265 0.66743 0.0
H1273 H 0.21812 0.4711 0.87337 0.0
H1274 H 0.26495 0.47776 0.69824 0.0
H1275 H 0.16808 0.43443 0.80678 0.0
H1276 H 0.23645 0.47222 0.81289 0.0
H1277 H 0.20172 0.42516 0.72136 0.0
C1278 C 0.22639 0.43541 0.68494 0.0
C1279 C 0.24457 0.45002 0.678 0.0
C1280 C 0.22145 0.46411 0.81144 0.0
C1281 C 0.22299 0.45261 0.74096 0.0
C1282 C 0.21105 0.46341 0.84585 0.0
C1283 C 0.19164 0.45265 0.8448 0.0
C1284 C 0.21235 0.45363 0.77629 0.0
C1285 C 0.18303 0.44296 0.80856 0.0
C1286 C 0.21554 0.43675 0.71597 0.0
C1287 C 0.25122 0.46596 0.70285 0.0
N1288 N 0.19347 0.44347 0.77583 0.0
N1289 N 0.24051 0.46675 0.73356 0.0
H1290 H 0.7188 0.17359 0.97042 0.0
H1291 H 0.80253 0.27156 0.89749 0.0
H1292 H 0.75334 0.21817 0.0537 0.0
H1293 H 0.77048 0.22575 0.81491 0.0
H1294 H 0.78155 0.25389 0.95368 0.0
H1295 H 0.73471 0.19401 0.91203 0.0
C1296 C 0.72969 0.1877 0.97641 0.0
C1297 C 0.73491 0.19411 0.017 0.0
C1298 C 0.77898 0.24777 0.92318 0.0
C1299 C 0.7531 0.21759 0.95034 0.0
C1300 C 0.79089 0.25791 0.89099 0.0
C1301 C 0.78836 0.25003 0.85153 0.0
C1302 C 0.76447 0.22961 0.91589 0.0
C1303 C 0.77315 0.2322 0.84505 0.0
C1304 C 0.7387 0.19938 0.94308 0.0
C1305 C 0.74881 0.21265 0.02295 0.0
N1306 N 0.76187 0.22253 0.87699 0.0
N1307 N 0.75755 0.22368 0.98998 0.0
H1308 H 0.57328 0.7516 0.17775 0.0
H1309 H 0.51379 0.78363 0.04224 0.0
H1310 H 0.5161 0.73443 0.20459 0.0
H1311 H 0.57102 0.79993 0.01872 0.0
H1312 H 0.51378 0.76502 0.10093 0.0
H1313 H 0.57205 0.76866 0.11809 0.0
C1314 C 0.56038 0.75126 0.17086 0.0
C1315 C 0.54472 0.74143 0.19609 0.0
C1316 C 0.52629 0.77262 0.08275 0.0
C1317 C 0.54331 0.76131 0.1279 0.0
C1318 C 0.52633 0.78329 0.04937 0.0
C1319 C 0.54241 0.7933 0.02539 0.0
C1320 C 0.54247 0.77203 0.09225 0.0
C1321 C 0.5582 0.79221 0.03581 0.0
C1322 C 0.55972 0.76113 0.13687 0.0
C1323 C 0.52854 0.74192 0.18614 0.0
N1324 N 0.55783 0.78182 0.06843 0.0
N1325 N 0.52824 0.75169 0.15275 0.0
H1326 H 0.78173 0.52143 0.37692 0.0
H1327 H 0.76454 0.58265 0.21182 0.0
H1328 H 0.81224 0.58131 0.37415 0.0
H1329 H 0.72682 0.52394 0.22803 0.0
H1330 H 0.78306 0.58194 0.26915 0.0
H1331 H 0.76239 0.52155 0.31991 0.0
C1332 C 0.78435 0.53458 0.36429 0.0
C1333 C 0.79854 0.55139 0.38034 0.0
C1334 C 0.7707 0.56921 0.26029 0.0
C1335 C 0.77657 0.55163 0.31536 0.0
C1336 C 0.76003 0.56962 0.22766 0.0
C1337 C 0.74398 0.55335 0.21522 0.0
C1338 C 0.76542 0.55239 0.28062 0.0
C1339 C 0.73916 0.53679 0.2363 0.0
C1340 C 0.77327 0.53464 0.33194 0.0
C1341 C 0.80128 0.56804 0.3631 0.0
N1342 N 0.74985 0.53673 0.268 0.0
N1343 N 0.79044 0.56773 0.33148 0.0
H1344 H 0.16917 0.755 0.3901 0.0
H1345 H 0.26085 0.78847 0.52579 0.0
H1346 H 0.20909 0.73744 0.366 0.0
H1347 H 0.22449 0.81137 0.53545 0.0
H1348 H 0.24138 0.76827 0.46997 0.0
H1349 H 0.18833 0.77396 0.44716 0.0
C1350 C 0.1819 0.755 0.3971 0.0
C1351 C 0.18751 0.74457 0.37337 0.0
C1352 C 0.23768 0.77771 0.48441 0.0
C1353 C 0.2097 0.7665 0.43839 0.0
C1354 C 0.24883 0.7893 0.51612 0.0
C1355 C 0.24427 0.8016 0.53546 0.0
C1356 C 0.22187 0.77841 0.47205 0.0
C1357 C 0.22838 0.8019 0.52201 0.0
C1358 C 0.19292 0.76595 0.42949 0.0
C1359 C 0.20433 0.74539 0.38334 0.0
N1360 N 0.21778 0.79049 0.4912 0.0
N1361 N 0.21484 0.75617 0.41517 0.0
H1362 H 0.41193 0.24473 0.66485 0.0
H1363 H 0.47752 0.21728 0.53945 0.0
H1364 H 0.46976 0.26631 0.69417 0.0
H1365 H 0.42029 0.19817 0.50856 0.0
H1366 H 0.47543 0.23604 0.59514 0.0
H1367 H 0.41521 0.22838 0.60605 0.0
C1368 C 0.42538 0.24617 0.65872 0.0
C1369 C 0.4406 0.25695 0.68449 0.0
C1370 C 0.46337 0.22783 0.57598 0.0
C1371 C 0.44441 0.23798 0.61737 0.0
C1372 C 0.46454 0.21708 0.5443 0.0
C1373 C 0.44906 0.20614 0.51931 0.0
C1374 C 0.44657 0.22755 0.58282 0.0
C1375 C 0.43265 0.20657 0.52666 0.0
C1376 C 0.42722 0.23673 0.62522 0.0
C1377 C 0.4576 0.25798 0.67543 0.0
N1378 N 0.43182 0.21701 0.55784 0.0
N1379 N 0.45904 0.24858 0.64264 0.0
H1380 H 0.02306 0.38585 0.98012 0.0
H1381 H 0.95817 0.30739 0.81856 0.0
H1382 H 0.04015 0.35118 0.91721 0.0
H1383 H 0.95277 0.35519 0.84619 0.0
H1384 H 0.98522 0.3196 0.86447 0.0
H1385 H 0.99378 0.37065 0.94166 0.0
C1386 C 0.02048 0.3748 0.95874 0.0
C1387 C 0.034 0.36976 0.95164 0.0
C1388 C 0.97807 0.32737 0.86049 0.0
C1389 C 0.00074 0.35248 0.9075 0.0
C1390 C 0.96266 0.32041 0.83447 0.0
C1391 C 0.95338 0.3304 0.82844 0.0
C1392 C 0.98402 0.34427 0.88107 0.0
C1393 C 0.95973 0.34721 0.84962 0.0
C1394 C 0.00389 0.36627 0.93657 0.0
C1395 C 0.0301 0.35553 0.92325 0.0
N1396 N 0.97465 0.35361 0.87512 0.0
N1397 N 0.01381 0.34739 0.90212 0.0
H1398 H 0.60998 0.97011 0.93421 0.0
H1399 H 0.68051 0.02442 0.11846 0.0
H1400 H 0.63403 0.94499 0.01024 0.0
H1401 H 0.64274 0.04042 0.06698 0.0
H1402 H 0.66703 0.99712 0.07306 0.0
H1403 H 0.62573 0.99824 0.97616 0.0
C1404 C 0.61877 0.97062 0.95944 0.0
C1405 C 0.62069 0.95522 0.96889 0.0
C1406 C 0.6617 0.00661 0.07184 0.0
C1407 C 0.6386 0.98725 0.01718 0.0
C1408 C 0.6694 0.02217 0.09759 0.0
C1409 C 0.66258 0.03455 0.09666 0.0
C1410 C 0.64733 0.00365 0.04461 0.0
C1411 C 0.64817 0.03104 0.06912 0.0
C1412 C 0.62762 0.9866 0.98357 0.0
C1413 C 0.63206 0.95653 0.00224 0.0
N1414 N 0.64107 0.01595 0.0441 0.0
N1415 N 0.64061 0.97228 0.02524 0.0
H1416 H 0.68345 0.65125 0.12787 0.0
H1417 H 0.6038 0.63575 0.28618 0.0
H1418 H 0.63248 0.59904 0.14067 0.0
H1419 H 0.64134 0.68963 0.23493 0.0
H1420 H 0.61716 0.62203 0.24057 0.0
H1421 H 0.6708 0.66572 0.17373 0.0
C1422 C 0.66957 0.6429 0.14019 0.0
C1423 C 0.65891 0.62399 0.13042 0.0
C1424 C 0.6225 0.63686 0.23941 0.0
C1425 C 0.6446 0.64025 0.18315 0.0
C1426 C 0.61502 0.6447 0.26566 0.0
C1427 C 0.62153 0.66382 0.26424 0.0
C1428 C 0.63675 0.64827 0.21199 0.0
C1429 C 0.63592 0.6748 0.23672 0.0
C1430 C 0.66238 0.65113 0.16622 0.0
C1431 C 0.64103 0.61372 0.1471 0.0
N1432 N 0.64312 0.66687 0.2117 0.0
N1433 N 0.63448 0.62195 0.17297 0.0
H1434 H 0.04377 0.68329 0.33114 0.0
H1435 H 0.95082 0.5932 0.39956 0.0
H1436 H 0.01499 0.63494 0.25308 0.0
H1437 H 0.96735 0.64727 0.44992 0.0
H1438 H 0.97624 0.60764 0.34971 0.0
H1439 H 0.01734 0.67 0.37813 0.0
C1440 C 0.03182 0.67003 0.32341 0.0
C1441 C 0.0317 0.66023 0.28795 0.0
C1442 C 0.97429 0.61635 0.37164 0.0
C1443 C 0.00164 0.64472 0.34253 0.0
C1444 C 0.95994 0.60811 0.4003 0.0
C1445 C 0.95713 0.61909 0.42897 0.0
C1446 C 0.98606 0.63567 0.37201 0.0
C1447 C 0.96909 0.63837 0.42822 0.0
C1448 C 0.01679 0.6624 0.35053 0.0
C1449 C 0.01591 0.64287 0.28035 0.0
N1450 N 0.98315 0.64606 0.40031 0.0
N1451 N 0.0016 0.6356 0.3076 0.0
H1452 H 0.35398 0.02888 0.44257 0.0
H1453 H 0.34978 0.98156 0.6605 0.0
H1454 H 0.39418 0.05586 0.53991 0.0
H1455 H 0.31822 0.95096 0.5537 0.0
H1456 H 0.36352 0.01002 0.61947 0.0
H1457 H 0.33805 0.00112 0.4857 0.0
C1458 C 0.35947 0.02899 0.47294 0.0
C1459 C 0.37548 0.04476 0.48754 0.0
C1460 C 0.35351 0.99707 0.60512 0.0
C1461 C 0.35718 0.01313 0.53722 0.0
C1462 C 0.34571 0.98081 0.62847 0.0
C1463 C 0.33285 0.9638 0.61055 0.0
C1464 C 0.34839 0.99635 0.56355 0.0
C1465 C 0.32787 0.96376 0.56906 0.0
C1466 C 0.35032 0.01317 0.49761 0.0
C1467 C 0.38175 0.04418 0.5275 0.0
N1468 N 0.33569 0.97976 0.54696 0.0
N1469 N 0.37261 0.02863 0.55087 0.0
H1470 H 0.30848 0.34505 0.64109 0.0
H1471 H 0.37897 0.36652 0.8288 0.0
H1472 H 0.35074 0.4001 0.67728 0.0
H1473 H 0.3473 0.31231 0.7732 0.0
H1474 H 0.36461 0.3783 0.78094 0.0
H1475 H 0.31889 0.33214 0.69621 0.0
C1476 C 0.31993 0.35439 0.66067 0.0
C1477 C 0.32893 0.37364 0.65437 0.0
C1478 C 0.36069 0.36378 0.77948 0.0
C1479 C 0.34071 0.35905 0.71753 0.0
C1480 C 0.36887 0.35705 0.8068 0.0
C1481 C 0.36452 0.33845 0.80472 0.0
C1482 C 0.348 0.35184 0.7499 0.0
C1483 C 0.35102 0.32672 0.77613 0.0
C1484 C 0.32586 0.34704 0.69203 0.0
C1485 C 0.34367 0.38516 0.68059 0.0
N1486 N 0.34336 0.33366 0.74957 0.0
N1487 N 0.34909 0.37769 0.71102 0.0
loop_
_geom_bond_atom_site_label_1
_geom_bond_atom_site_label_2
_geom_bond_distance
_geom_bond_site_symmetry_2
_ccdc_geom_bond_type
Li0 N17 1.990 . S
Li0 O60 1.956 . S
Li0 O61 1.970 . S
Li0 O62 1.961 1_554 S
Li1 N25 1.990 . S
Li1 O60 1.970 . S
Li1 O61 1.956 . S
Li1 O63 1.961 . S
Li2 N47 1.990 . S
Li2 O60 1.961 1_556 S
Li2 O62 1.956 . S
Li2 O63 1.970 1_556 S
Li3 N53 1.990 . S
Li3 O61 1.961 . S
Li3 O62 1.970 1_554 S
Li3 O63 1.956 . S
C4 C6 1.348 . S
C4 C7 1.356 . S
C4 O60 1.325 . S
N5 C8 1.314 . S
N5 C9 1.279 . S
C6 C4 1.348 . S
C6 C8 1.353 . S
C6 H64 0.929 . S
C7 C4 1.356 . S
C7 C9 1.358 . S
C7 H65 0.921 1_554 S
C8 N5 1.314 . S
C8 C6 1.353 . S
C8 H66 0.930 . S
C9 N5 1.279 . S
C9 C7 1.358 . S
C9 H67 0.930 . S
C10 C13 1.348 . S
C10 C14 1.356 . S
C10 O61 1.325 . S
C11 N12 1.279 . S
C11 C14 1.358 . S
C11 H68 0.930 . S
N12 C11 1.279 . S
N12 C15 1.314 . S
C13 C10 1.348 . S
C13 C15 1.353 . S
C13 H69 0.929 . S
C14 C10 1.356 . S
C14 C11 1.358 . S
C14 H70 0.930 . S
C15 N12 1.314 . S
C15 C13 1.353 . S
C15 H71 0.930 . S
C16 N17 1.314 . S
C16 C21 1.353 . S
C16 H22 0.930 . S
N17 Li0 1.990 . S
N17 C16 1.314 . S
N17 C19 1.279 . S
C18 C19 1.358 . S
C18 C20 1.356 . S
C18 H72 0.930 . S
C19 N17 1.279 . S
C19 C18 1.358 . S
C19 H23 0.930 . S
C20 C18 1.356 . S
C20 C21 1.348 . S
C21 C16 1.353 . S
C21 C20 1.348 . S
C21 H73 0.929 . S
H22 C16 0.930 . S
H23 C19 0.930 . S
C24 N25 1.314 . S
C24 C26 1.353 . S
C24 H30 0.930 . S
N25 Li1 1.990 . S
N25 C24 1.314 . S
N25 C28 1.279 . S
C26 C24 1.353 . S
C26 C29 1.348 . S
C26 H74 0.929 . S
C27 C28 1.358 . S
C27 C29 1.356 . S
C27 H75 0.930 . S
C28 N25 1.279 . S
C28 C27 1.358 . S
C28 H31 0.930 . S
C29 C26 1.348 . S
C29 C27 1.356 . S
H30 C24 0.930 . S
H31 C28 0.930 . S
C32 C34 1.348 . S
C32 C35 1.356 . S
C32 O62 1.325 . S
N33 C36 1.314 . S
N33 C37 1.279 . S
C34 C32 1.348 . S
C34 C36 1.353 . S
C34 H76 0.929 . S
C35 C32 1.356 . S
C35 C37 1.358 . S
C35 H77 0.930 . S
C36 N33 1.314 . S
C36 C34 1.353 . S
C36 H78 0.930 . S
C37 N33 1.279 . S
C37 C35 1.358 . S
C37 H79 0.930 . S
C38 C39 1.348 1_554 S
C38 C40 1.356 . S
C38 O63 1.325 . S
C39 C38 1.348 1_556 S
C39 C41 1.353 . S
C39 H80 0.929 . S
C40 C38 1.356 . S
C40 C42 1.358 . S
C40 H81 0.930 . S
C41 C39 1.353 . S
C41 N43 1.331 . S
C41 H82 0.930 . S
C42 C40 1.358 . S
C42 N43 1.258 1_554 S
C42 H83 0.930 . S
N43 C41 1.331 . S
N43 C42 1.258 1_556 S
C44 C46 1.353 . S
C44 N47 1.314 . S
C44 H50 0.930 . S
C45 N47 1.279 . S
C45 C48 1.358 . S
C45 H51 0.930 . S
C46 C44 1.353 . S
C46 C49 1.348 . S
C46 H84 0.929 . S
N47 Li2 1.990 . S
N47 C44 1.314 . S
N47 C45 1.279 . S
C48 C45 1.358 . S
C48 C49 1.356 . S
C48 H85 0.930 . S
C49 C46 1.348 . S
C49 C48 1.356 . S
H50 C44 0.930 . S
H51 C45 0.930 . S
C52 N53 1.314 . S
C52 C54 1.353 . S
C52 H58 0.930 . S
N53 Li3 1.990 . S
N53 C52 1.314 . S
N53 C56 1.279 1_554 S
C54 C52 1.353 . S
C54 C57 1.348 1_554 S
C54 H86 0.929 . S
C55 C56 1.358 . S
C55 C57 1.356 . S
C55 H87 0.930 . S
C56 N53 1.279 1_556 S
C56 C55 1.358 . S
C56 H59 0.930 . S
C57 C54 1.348 1_556 S
C57 C55 1.356 . S
H58 C52 0.930 . S
H59 C56 0.930 . S
O60 Li0 1.956 . S
O60 Li1 1.970 . S
O60 Li2 1.961 1_554 S
O60 C4 1.325 . S
O61 Li0 1.970 . S
O61 Li1 1.956 . S
O61 Li3 1.961 . S
O61 C10 1.325 . S
O62 Li0 1.961 1_556 S
O62 Li2 1.956 . S
O62 Li3 1.970 1_556 S
O62 C32 1.325 . S
O63 Li1 1.961 . S
O63 Li2 1.970 1_554 S
O63 Li3 1.956 . S
O63 C38 1.325 . S
H64 C6 0.929 . S
H65 C7 0.921 1_556 S
H66 C8 0.930 . S
H67 C9 0.930 . S
H68 C11 0.930 . S
H69 C13 0.929 . S
H70 C14 0.930 . S
H71 C15 0.930 . S
H72 C18 0.930 . S
H73 C21 0.929 . S
H74 C26 0.929 . S
H75 C27 0.930 . S
H76 C34 0.929 . S
H77 C35 0.930 . S
H78 C36 0.930 . S
H79 C37 0.930 . S
H80 C39 0.929 . S
H81 C40 0.930 . S
H82 C41 0.930 . S
H83 C42 0.930 . S
H84 C46 0.929 . S
H85 C48 0.930 . S
H86 C54 0.929 . S
H87 C55 0.930 . S
Li88 N105 1.990 . S
Li88 O148 1.956 . S
Li88 O149 1.970 . S
Li88 O150 1.961 . S
Li89 N113 1.990 . S
Li89 O148 1.970 . S
Li89 O149 1.956 . S
Li89 O151 1.961 . S
Li90 N135 1.990 . S
Li90 O148 1.961 . S
Li90 O150 1.956 . S
Li90 O151 1.970 . S
Li91 N141 1.990 . S
Li91 O149 1.961 . S
Li91 O150 1.970 . S
Li91 O151 1.956 . S
C92 C94 1.348 . S
C92 C95 1.356 . S
C92 O148 1.325 . S
N93 C96 1.314 . S
N93 C97 1.279 . S
C94 C92 1.348 . S
C94 C96 1.353 . S
C94 H152 0.929 . S
C95 C92 1.356 . S
C95 C97 1.358 . S
C95 H153 0.930 . S
C96 N93 1.314 . S
C96 C94 1.353 . S
C96 H154 0.930 . S
C97 N93 1.279 . S
C97 C95 1.358 . S
C97 H155 0.930 . S
C98 C101 1.348 . S
C98 C102 1.356 . S
C98 O149 1.325 . S
C99 N100 1.279 . S
C99 C102 1.358 . S
C99 H156 0.930 . S
N100 C99 1.279 . S
N100 C103 1.314 . S
C101 C98 1.348 . S
C101 C103 1.353 . S
C101 H157 0.929 . S
C102 C98 1.356 . S
C102 C99 1.358 . S
C102 H158 0.930 . S
C103 N100 1.314 . S
C103 C101 1.353 . S
C103 H159 0.930 . S
C104 N105 1.314 . S
C104 C109 1.353 . S
C104 H110 0.930 . S
N105 Li88 1.990 . S
N105 C104 1.314 . S
N105 C107 1.279 . S
C106 C107 1.358 . S
C106 C108 1.356 . S
C106 H160 0.930 . S
C107 N105 1.279 . S
C107 C106 1.358 . S
C107 H111 0.930 . S
C108 C106 1.356 . S
C108 C109 1.348 . S
C109 C104 1.353 . S
C109 C108 1.348 . S
C109 H161 0.929 . S
H110 C104 0.930 . S
H111 C107 0.930 . S
C112 N113 1.314 . S
C112 C114 1.353 . S
C112 H118 0.930 . S
N113 Li89 1.990 . S
N113 C112 1.314 . S
N113 C116 1.279 . S
C114 C112 1.353 . S
C114 C117 1.348 . S
C114 H162 0.929 . S
C115 C116 1.358 . S
C115 C117 1.356 . S
C115 H163 0.930 . S
C116 N113 1.279 . S
C116 C115 1.358 . S
C116 H119 0.930 . S
C117 C114 1.348 . S
C117 C115 1.356 . S
H118 C112 0.930 . S
H119 C116 0.930 . S
C120 C122 1.348 . S
C120 C123 1.356 . S
C120 O150 1.325 . S
N121 C124 1.314 . S
N121 C125 1.279 . S
C122 C120 1.348 . S
C122 C124 1.353 . S
C122 H164 0.929 . S
C123 C120 1.356 . S
C123 C125 1.358 . S
C123 H165 0.930 . S
C124 N121 1.314 . S
C124 C122 1.353 . S
C124 H166 0.930 . S
C125 N121 1.279 . S
C125 C123 1.358 . S
C125 H167 0.930 . S
C126 C127 1.348 . S
C126 C128 1.356 . S
C126 O151 1.325 . S
C127 C126 1.348 . S
C127 C129 1.353 . S
C127 H168 0.929 . S
C128 C126 1.356 . S
C128 C130 1.358 . S
C128 H169 0.930 . S
C129 C127 1.353 . S
C129 N131 1.314 . S
C129 H170 0.930 . S
C130 C128 1.358 . S
C130 N131 1.279 . S
C130 H171 0.930 . S
N131 C129 1.314 . S
N131 C130 1.279 . S
C132 C134 1.353 . S
C132 N135 1.314 . S
C132 H138 0.930 . S
C133 N135 1.279 . S
C133 C136 1.358 . S
C133 H139 0.930 . S
C134 C132 1.353 . S
C134 C137 1.348 . S
C134 H172 0.929 . S
N135 Li90 1.990 . S
N135 C132 1.314 . S
N135 C133 1.279 . S
C136 C133 1.358 . S
C136 C137 1.356 . S
C136 H173 0.930 . S
C137 C134 1.348 . S
C137 C136 1.356 . S
H138 C132 0.930 . S
H139 C133 0.930 . S
C140 N141 1.314 . S
C140 C142 1.353 . S
C140 H146 0.930 . S
N141 Li91 1.990 . S
N141 C140 1.314 . S
N141 C144 1.279 . S
C142 C140 1.353 . S
C142 C145 1.348 . S
C142 H174 0.929 . S
C143 C144 1.358 . S
C143 C145 1.356 . S
C143 H175 0.930 . S
C144 N141 1.279 . S
C144 C143 1.358 . S
C144 H147 0.930 . S
C145 C142 1.348 . S
C145 C143 1.356 . S
H146 C140 0.930 . S
H147 C144 0.930 . S
O148 Li88 1.956 . S
O148 Li89 1.970 . S
O148 Li90 1.961 . S
O148 C92 1.325 . S
O149 Li88 1.970 . S
O149 Li89 1.956 . S
O149 Li91 1.961 . S
O149 C98 1.325 . S
O150 Li88 1.961 . S
O150 Li90 1.956 . S
O150 Li91 1.970 . S
O150 C120 1.325 . S
O151 Li89 1.961 . S
O151 Li90 1.970 . S
O151 Li91 1.956 . S
O151 C126 1.325 . S
H152 C94 0.929 . S
H153 C95 0.930 . S
H154 C96 0.930 . S
H155 C97 0.930 . S
H156 C99 0.930 . S
H157 C101 0.929 . S
H158 C102 0.930 . S
H159 C103 0.930 . S
H160 C106 0.930 . S
H161 C109 0.929 . S
H162 C114 0.929 . S
H163 C115 0.930 . S
H164 C122 0.929 . S
H165 C123 0.930 . S
H166 C124 0.930 . S
H167 C125 0.930 . S
H168 C127 0.929 . S
H169 C128 0.930 . S
H170 C129 0.930 . S
H171 C130 0.930 . S
H172 C134 0.929 . S
H173 C136 0.930 . S
H174 C142 0.929 . S
H175 C143 0.930 . S
Li176 N193 1.990 . S
Li176 O236 1.956 . S
Li176 O237 1.970 . S
Li176 O238 1.961 . S
Li177 N201 1.990 . S
Li177 O236 1.970 . S
Li177 O237 1.956 . S
Li177 O239 1.961 . S
Li178 N223 1.990 . S
Li178 O236 1.961 . S
Li178 O238 1.956 . S
Li178 O239 1.970 . S
Li179 N229 1.990 . S
Li179 O237 1.961 . S
Li179 O238 1.970 . S
Li179 O239 1.956 . S
C180 C182 1.348 . S
C180 C183 1.356 . S
C180 O236 1.325 . S
N181 C184 1.314 . S
N181 C185 1.279 . S
C182 C180 1.348 . S
C182 C184 1.353 . S
C182 H240 0.929 . S
C183 C180 1.356 . S
C183 C185 1.358 . S
C183 H241 0.930 . S
C184 N181 1.314 . S
C184 C182 1.353 . S
C184 H242 0.930 . S
C185 N181 1.279 . S
C185 C183 1.358 . S
C185 H243 0.930 . S
C186 C189 1.348 . S
C186 C190 1.356 . S
C186 O237 1.325 . S
C187 N188 1.279 . S
C187 C190 1.358 . S
C187 H244 0.930 . S
N188 C187 1.279 . S
N188 C191 1.314 . S
C189 C186 1.348 . S
C189 C191 1.353 . S
C189 H245 0.929 . S
C190 C186 1.356 . S
C190 C187 1.358 . S
C190 H246 0.930 . S
C191 N188 1.314 . S
C191 C189 1.353 . S
C191 H247 0.930 . S
C192 N193 1.314 . S
C192 C197 1.353 . S
C192 H198 0.930 . S
N193 Li176 1.990 . S
N193 C192 1.314 . S
N193 C195 1.279 . S
C194 C195 1.358 . S
C194 C196 1.356 . S
C194 H248 0.930 . S
C195 N193 1.279 . S
C195 C194 1.358 . S
C195 H199 0.930 . S
C196 C194 1.356 . S
C196 C197 1.348 . S
C197 C192 1.353 . S
C197 C196 1.348 . S
C197 H249 0.929 . S
H198 C192 0.930 . S
H199 C195 0.930 . S
C200 N201 1.314 . S
C200 C202 1.353 . S
C200 H206 0.930 . S
N201 Li177 1.990 . S
N201 C200 1.314 . S
N201 C204 1.279 . S
C202 C200 1.353 . S
C202 C205 1.348 . S
C202 H250 0.929 . S
C203 C204 1.358 . S
C203 C205 1.356 . S
C203 H251 0.930 . S
C204 N201 1.279 . S
C204 C203 1.358 . S
C204 H207 0.930 . S
C205 C202 1.348 . S
C205 C203 1.356 . S
H206 C200 0.930 . S
H207 C204 0.930 . S
C208 C210 1.348 . S
C208 C211 1.356 . S
C208 O238 1.325 . S
N209 C212 1.314 . S
N209 C213 1.279 . S
C210 C208 1.348 . S
C210 C212 1.353 . S
C210 H252 0.929 . S
C211 C208 1.356 . S
C211 C213 1.358 . S
C211 H253 0.930 . S
C212 N209 1.314 . S
C212 C210 1.353 . S
C212 H254 0.930 . S
C213 N209 1.279 . S
C213 C211 1.358 . S
C213 H255 0.930 . S
C214 C215 1.348 . S
C214 C216 1.356 . S
C214 O239 1.325 . S
C215 C214 1.348 . S
C215 C217 1.353 . S
C215 H256 0.929 . S
C216 C214 1.356 . S
C216 C218 1.358 . S
C216 H257 0.930 . S
C217 C215 1.353 . S
C217 N219 1.314 . S
C217 H258 0.930 . S
C218 C216 1.358 . S
C218 N219 1.279 . S
C218 H259 0.930 . S
N219 C217 1.314 . S
N219 C218 1.279 . S
C220 C222 1.353 . S
C220 N223 1.314 . S
C220 H226 0.930 . S
C221 N223 1.279 . S
C221 C224 1.358 . S
C221 H227 0.930 . S
C222 C220 1.353 . S
C222 C225 1.348 . S
C222 H260 0.929 . S
N223 Li178 1.990 . S
N223 C220 1.314 . S
N223 C221 1.279 . S
C224 C221 1.358 . S
C224 C225 1.356 . S
C224 H261 0.930 . S
C225 C222 1.348 . S
C225 C224 1.356 . S
H226 C220 0.930 . S
H227 C221 0.930 . S
C228 N229 1.314 . S
C228 C230 1.353 . S
C228 H234 0.930 . S
N229 Li179 1.990 . S
N229 C228 1.314 . S
N229 C232 1.279 . S
C230 C228 1.353 . S
C230 C233 1.348 . S
C230 H262 0.929 . S
C231 C232 1.358 . S
C231 C233 1.356 . S
C231 H263 0.930 . S
C232 N229 1.279 . S
C232 C231 1.358 . S
C232 H235 0.930 . S
C233 C230 1.348 . S
C233 C231 1.356 . S
H234 C228 0.930 . S
H235 C232 0.930 . S
O236 Li176 1.956 . S
O236 Li177 1.970 . S
O236 Li178 1.961 . S
O236 C180 1.325 . S
O237 Li176 1.970 . S
O237 Li177 1.956 . S
O237 Li179 1.961 . S
O237 C186 1.325 . S
O238 Li176 1.961 . S
O238 Li178 1.956 . S
O238 Li179 1.970 . S
O238 C208 1.325 . S
O239 Li177 1.961 . S
O239 Li178 1.970 . S
O239 Li179 1.956 . S
O239 C214 1.325 . S
H240 C182 0.929 . S
H241 C183 0.930 . S
H242 C184 0.930 . S
H243 C185 0.930 . S
H244 C187 0.930 . S
H245 C189 0.929 . S
H246 C190 0.930 . S
H247 C191 0.930 . S
H248 C194 0.930 . S
H249 C197 0.929 . S
H250 C202 0.929 . S
H251 C203 0.930 . S
H252 C210 0.929 . S
H253 C211 0.930 . S
H254 C212 0.930 . S
H255 C213 0.930 . S
H256 C215 0.929 . S
H257 C216 0.930 . S
H258 C217 0.930 . S
H259 C218 0.930 . S
H260 C222 0.929 . S
H261 C224 0.930 . S
H262 C230 0.929 . S
H263 C231 0.930 . S
Li264 N281 1.990 . S
Li264 O324 1.956 . S
Li264 O325 1.970 . S
Li264 O326 1.961 . S
Li265 N289 1.990 . S
Li265 O324 1.970 . S
Li265 O325 1.956 . S
Li265 O327 1.961 . S
Li266 N311 1.990 . S
Li266 O324 1.961 . S
Li266 O326 1.956 . S
Li266 O327 1.970 . S
Li267 N317 1.990 . S
Li267 O325 1.961 . S
Li267 O326 1.970 . S
Li267 O327 1.956 . S
C268 C270 1.348 . S
C268 C271 1.356 . S
C268 O324 1.325 . S
N269 C272 1.314 . S
N269 C273 1.279 . S
C270 C268 1.348 . S
C270 C272 1.353 . S
C270 H328 0.929 . S
C271 C268 1.356 . S
C271 C273 1.358 . S
C271 H329 0.930 . S
C272 N269 1.314 . S
C272 C270 1.353 . S
C272 H330 0.930 . S
C273 N269 1.279 . S
C273 C271 1.358 . S
C273 H331 0.930 . S
C274 C277 1.348 . S
C274 C278 1.356 . S
C274 O325 1.325 . S
C275 N276 1.279 . S
C275 C278 1.358 . S
C275 H332 0.930 . S
N276 C275 1.279 . S
N276 C279 1.314 . S
C277 C274 1.348 . S
C277 C279 1.353 . S
C277 H333 0.929 . S
C278 C274 1.356 . S
C278 C275 1.358 . S
C278 H334 0.930 . S
C279 N276 1.314 . S
C279 C277 1.353 . S
C279 H335 0.930 . S
C280 N281 1.314 . S
C280 C285 1.353 . S
C280 H286 0.930 . S
N281 Li264 1.990 . S
N281 C280 1.314 . S
N281 C283 1.279 . S
C282 C283 1.358 . S
C282 C284 1.356 . S
C282 H336 0.930 . S
C283 N281 1.279 . S
C283 C282 1.358 . S
C283 H287 0.930 . S
C284 C282 1.356 . S
C284 C285 1.348 . S
C285 C280 1.353 . S
C285 C284 1.348 . S
C285 H337 0.929 . S
H286 C280 0.930 . S
H287 C283 0.930 . S
C288 N289 1.314 . S
C288 C290 1.353 . S
C288 H294 0.930 . S
N289 Li265 1.990 . S
N289 C288 1.314 . S
N289 C292 1.279 . S
C290 C288 1.353 . S
C290 C293 1.348 . S
C290 H338 0.929 . S
C291 C292 1.358 . S
C291 C293 1.356 . S
C291 H339 0.930 . S
C292 N289 1.279 . S
C292 C291 1.358 . S
C292 H295 0.930 . S
C293 C290 1.348 . S
C293 C291 1.356 . S
H294 C288 0.930 . S
H295 C292 0.930 . S
C296 C298 1.348 . S
C296 C299 1.356 . S
C296 O326 1.325 . S
N297 C300 1.314 . S
N297 C301 1.279 . S
C298 C296 1.348 . S
C298 C300 1.353 . S
C298 H340 0.929 . S
C299 C296 1.356 . S
C299 C301 1.358 . S
C299 H341 0.930 . S
C300 N297 1.314 . S
C300 C298 1.353 . S
C300 H342 0.930 . S
C301 N297 1.279 . S
C301 C299 1.358 . S
C301 H343 0.930 . S
C302 C303 1.348 . S
C302 C304 1.356 . S
C302 O327 1.325 . S
C303 C302 1.348 . S
C303 C305 1.353 . S
C303 H344 0.929 . S
C304 C302 1.356 . S
C304 C306 1.358 . S
C304 H345 0.930 . S
C305 C303 1.353 . S
C305 N307 1.314 . S
C305 H346 0.930 . S
C306 C304 1.358 . S
C306 N307 1.279 . S
C306 H347 0.930 . S
N307 C305 1.314 . S
N307 C306 1.279 . S
C308 C310 1.353 . S
C308 N311 1.314 . S
C308 H314 0.930 . S
C309 N311 1.279 . S
C309 C312 1.358 . S
C309 H315 0.930 . S
C310 C308 1.353 . S
C310 C313 1.348 . S
C310 H348 0.929 . S
N311 Li266 1.990 . S
N311 C308 1.314 . S
N311 C309 1.279 . S
C312 C309 1.358 . S
C312 C313 1.356 . S
C312 H349 0.930 . S
C313 C310 1.348 . S
C313 C312 1.356 . S
H314 C308 0.930 . S
H315 C309 0.930 . S
C316 N317 1.314 . S
C316 C318 1.353 . S
C316 H322 0.930 . S
N317 Li267 1.990 . S
N317 C316 1.314 . S
N317 C320 1.279 . S
C318 C316 1.353 . S
C318 C321 1.348 . S
C318 H350 0.929 . S
C319 C320 1.358 . S
C319 C321 1.356 . S
C319 H351 0.930 . S
C320 N317 1.279 . S
C320 C319 1.358 . S
C320 H323 0.930 . S
C321 C318 1.348 . S
C321 C319 1.356 . S
H322 C316 0.930 . S
H323 C320 0.930 . S
O324 Li264 1.956 . S
O324 Li265 1.970 . S
O324 Li266 1.961 . S
O324 C268 1.325 . S
O325 Li264 1.970 . S
O325 Li265 1.956 . S
O325 Li267 1.961 . S
O325 C274 1.325 . S
O326 Li264 1.961 . S
O326 Li266 1.956 . S
O326 Li267 1.970 . S
O326 C296 1.325 . S
O327 Li265 1.961 . S
O327 Li266 1.970 . S
O327 Li267 1.956 . S
O327 C302 1.325 . S
H328 C270 0.929 . S
H329 C271 0.930 . S
H330 C272 0.930 . S
H331 C273 0.930 . S
H332 C275 0.930 . S
H333 C277 0.929 . S
H334 C278 0.930 . S
H335 C279 0.930 . S
H336 C282 0.930 . S
H337 C285 0.929 . S
H338 C290 0.929 . S
H339 C291 0.930 . S
H340 C298 0.929 . S
H341 C299 0.930 . S
H342 C300 0.930 . S
H343 C301 0.930 . S
H344 C303 0.929 . S
H345 C304 0.930 . S
H346 C305 0.930 . S
H347 C306 0.930 . S
H348 C310 0.929 . S
H349 C312 0.930 . S
H350 C318 0.929 . S
H351 C319 0.930 . S
Li352 N369 1.990 . S
Li352 O412 1.956 . S
Li352 O413 1.970 . S
Li352 O414 1.961 . S
Li353 N377 1.990 . S
Li353 O412 1.970 . S
Li353 O413 1.956 . S
Li353 O415 1.961 . S
Li354 N399 1.990 . S
Li354 O412 1.961 . S
Li354 O414 1.956 . S
Li354 O415 1.970 . S
Li355 N405 1.990 . S
Li355 O413 1.961 . S
Li355 O414 1.970 . S
Li355 O415 1.956 . S
C356 C358 1.348 . S
C356 C359 1.356 . S
C356 O412 1.325 . S
N357 C360 1.314 . S
N357 C361 1.279 . S
C358 C356 1.348 . S
C358 C360 1.353 . S
C358 H416 0.929 . S
C359 C356 1.356 . S
C359 C361 1.358 . S
C359 H417 0.930 . S
C360 N357 1.314 . S
C360 C358 1.353 . S
C360 H418 0.930 . S
C361 N357 1.279 . S
C361 C359 1.358 . S
C361 H419 0.930 . S
C362 C365 1.348 . S
C362 C366 1.356 . S
C362 O413 1.325 . S
C363 N364 1.279 . S
C363 C366 1.358 . S
C363 H420 0.930 . S
N364 C363 1.279 . S
N364 C367 1.314 . S
C365 C362 1.348 . S
C365 C367 1.353 . S
C365 H421 0.929 . S
C366 C362 1.356 . S
C366 C363 1.358 . S
C366 H422 0.930 . S
C367 N364 1.314 . S
C367 C365 1.353 . S
C367 H423 0.930 . S
C368 N369 1.314 . S
C368 C373 1.353 . S
C368 H374 0.930 . S
N369 Li352 1.990 . S
N369 C368 1.314 . S
N369 C371 1.279 . S
C370 C371 1.358 . S
C370 C372 1.356 . S
C370 H424 0.930 . S
C371 N369 1.279 . S
C371 C370 1.358 . S
C371 H375 0.930 . S
C372 C370 1.356 . S
C372 C373 1.348 . S
C373 C368 1.353 . S
C373 C372 1.348 . S
C373 H425 0.929 . S
H374 C368 0.930 . S
H375 C371 0.930 . S
C376 N377 1.314 . S
C376 C378 1.353 . S
C376 H382 0.930 . S
N377 Li353 1.990 . S
N377 C376 1.314 . S
N377 C380 1.279 . S
C378 C376 1.353 . S
C378 C381 1.348 . S
C378 H426 0.929 . S
C379 C380 1.358 . S
C379 C381 1.356 . S
C379 H427 0.930 . S
C380 N377 1.279 . S
C380 C379 1.358 . S
C380 H383 0.930 . S
C381 C378 1.348 . S
C381 C379 1.356 . S
H382 C376 0.930 . S
H383 C380 0.930 . S
C384 C386 1.348 . S
C384 C387 1.356 . S
C384 O414 1.325 . S
N385 C388 1.314 . S
N385 C389 1.279 . S
C386 C384 1.348 . S
C386 C388 1.353 . S
C386 H428 0.929 . S
C387 C384 1.356 . S
C387 C389 1.358 . S
C387 H429 0.930 . S
C388 N385 1.314 . S
C388 C386 1.353 . S
C388 H430 0.930 . S
C389 N385 1.279 . S
C389 C387 1.358 . S
C389 H431 0.930 . S
C390 C391 1.348 . S
C390 C392 1.356 . S
C390 O415 1.325 . S
C391 C390 1.348 . S
C391 C393 1.353 . S
C391 H432 0.929 . S
C392 C390 1.356 . S
C392 C394 1.358 . S
C392 H433 0.930 . S
C393 C391 1.353 . S
C393 N395 1.314 . S
C393 H434 0.930 . S
C394 C392 1.358 . S
C394 N395 1.279 . S
C394 H435 0.930 . S
N395 C393 1.314 . S
N395 C394 1.279 . S
C396 C398 1.353 . S
C396 N399 1.314 . S
C396 H402 0.930 . S
C397 N399 1.279 . S
C397 C400 1.358 . S
C397 H403 0.930 . S
C398 C396 1.353 . S
C398 C401 1.348 . S
C398 H436 0.929 . S
N399 Li354 1.990 . S
N399 C396 1.314 . S
N399 C397 1.279 . S
C400 C397 1.358 . S
C400 C401 1.356 . S
C400 H437 0.930 . S
C401 C398 1.348 . S
C401 C400 1.356 . S
H402 C396 0.930 . S
H403 C397 0.930 . S
C404 N405 1.314 . S
C404 C406 1.353 . S
C404 H410 0.930 . S
N405 Li355 1.990 . S
N405 C404 1.314 . S
N405 C408 1.279 . S
C406 C404 1.353 . S
C406 C409 1.348 . S
C406 H438 0.929 . S
C407 C408 1.358 . S
C407 C409 1.356 . S
C407 H439 0.930 . S
C408 N405 1.279 . S
C408 C407 1.358 . S
C408 H411 0.930 . S
C409 C406 1.348 . S
C409 C407 1.356 . S
H410 C404 0.930 . S
H411 C408 0.930 . S
O412 Li352 1.956 . S
O412 Li353 1.970 . S
O412 Li354 1.961 . S
O412 C356 1.325 . S
O413 Li352 1.970 . S
O413 Li353 1.956 . S
O413 Li355 1.961 . S
O413 C362 1.325 . S
O414 Li352 1.961 . S
O414 Li354 1.956 . S
O414 Li355 1.970 . S
O414 C384 1.325 . S
O415 Li353 1.961 . S
O415 Li354 1.970 . S
O415 Li355 1.956 . S
O415 C390 1.325 . S
H416 C358 0.929 . S
H417 C359 0.930 . S
H418 C360 0.930 . S
H419 C361 0.930 . S
H420 C363 0.930 . S
H421 C365 0.929 . S
H422 C366 0.930 . S
H423 C367 0.930 . S
H424 C370 0.930 . S
H425 C373 0.929 . S
H426 C378 0.929 . S
H427 C379 0.930 . S
H428 C386 0.929 . S
H429 C387 0.930 . S
H430 C388 0.930 . S
H431 C389 0.930 . S
H432 C391 0.929 . S
H433 C392 0.930 . S
H434 C393 0.930 . S
H435 C394 0.930 . S
H436 C398 0.929 . S
H437 C400 0.930 . S
H438 C406 0.929 . S
H439 C407 0.930 . S
Li440 N457 1.990 . S
Li440 O500 1.956 . S
Li440 O501 1.970 . S
Li440 O502 1.961 . S
Li441 N465 1.990 . S
Li441 O500 1.970 . S
Li441 O501 1.956 . S
Li441 O503 1.961 . S
Li442 N487 1.990 . S
Li442 O500 1.961 . S
Li442 O502 1.956 . S
Li442 O503 1.970 . S
Li443 N493 1.990 . S
Li443 O501 1.961 . S
Li443 O502 1.970 . S
Li443 O503 1.956 . S
C444 C446 1.348 . S
C444 C447 1.356 . S
C444 O500 1.325 . S
N445 C448 1.314 . S
N445 C449 1.279 . S
C446 C444 1.348 . S
C446 C448 1.353 . S
C446 H504 0.929 . S
C447 C444 1.356 . S
C447 C449 1.358 . S
C447 H505 0.930 . S
C448 N445 1.314 . S
C448 C446 1.353 . S
C448 H506 0.930 . S
C449 N445 1.279 . S
C449 C447 1.358 . S
C449 H507 0.930 . S
C450 C453 1.348 . S
C450 C454 1.356 . S
C450 O501 1.325 . S
C451 N452 1.279 1_556 S
C451 C454 1.358 . S
C451 H508 0.930 . S
N452 C451 1.279 1_554 S
N452 C455 1.314 1_554 S
C453 C450 1.348 . S
C453 C455 1.353 . S
C453 H509 0.929 . S
C454 C450 1.356 . S
C454 C451 1.358 . S
C454 H510 0.930 . S
C455 N452 1.314 1_556 S
C455 C453 1.353 . S
C455 H511 0.930 1_556 S
C456 N457 1.314 . S
C456 C461 1.353 . S
C456 H462 0.930 . S
N457 Li440 1.990 . S
N457 C456 1.314 . S
N457 C459 1.279 . S
C458 C459 1.358 . S
C458 C460 1.356 . S
C458 H512 0.930 . S
C459 N457 1.279 . S
C459 C458 1.358 . S
C459 H463 0.930 . S
C460 C458 1.356 . S
C460 C461 1.348 . S
C461 C456 1.353 . S
C461 C460 1.348 . S
C461 H513 0.929 . S
H462 C456 0.930 . S
H463 C459 0.930 . S
C464 N465 1.314 . S
C464 C466 1.353 . S
C464 H470 0.930 . S
N465 Li441 1.990 . S
N465 C464 1.314 . S
N465 C468 1.279 . S
C466 C464 1.353 . S
C466 C469 1.348 1_556 S
C466 H514 0.929 . S
C467 C468 1.358 1_554 S
C467 C469 1.356 . S
C467 H515 0.930 . S
C468 N465 1.279 . S
C468 C467 1.358 1_556 S
C468 H471 0.930 . S
C469 C466 1.348 1_554 S
C469 C467 1.356 . S
H470 C464 0.930 . S
H471 C468 0.930 . S
C472 C474 1.348 . S
C472 C475 1.356 . S
C472 O502 1.325 . S
N473 C476 1.314 . S
N473 C477 1.279 . S
C474 C472 1.348 . S
C474 C476 1.353 . S
C474 H516 0.929 . S
C475 C472 1.356 . S
C475 C477 1.358 . S
C475 H517 0.930 . S
C476 N473 1.314 . S
C476 C474 1.353 . S
C476 H518 0.930 . S
C477 N473 1.279 . S
C477 C475 1.358 . S
C477 H519 0.930 . S
C478 C479 1.348 . S
C478 C480 1.356 . S
C478 O503 1.325 . S
C479 C478 1.348 . S
C479 C481 1.353 . S
C479 H520 0.929 . S
C480 C478 1.356 . S
C480 C482 1.358 . S
C480 H521 0.930 . S
C481 C479 1.353 . S
C481 N483 1.314 . S
C481 H522 0.930 . S
C482 C480 1.358 . S
C482 N483 1.279 . S
C482 H523 0.930 . S
N483 C481 1.314 . S
N483 C482 1.279 . S
C484 C486 1.353 . S
C484 N487 1.314 . S
C484 H490 0.930 . S
C485 N487 1.279 . S
C485 C488 1.358 . S
C485 H491 0.930 . S
C486 C484 1.353 . S
C486 C489 1.348 . S
C486 H524 0.929 . S
N487 Li442 1.990 . S
N487 C484 1.314 . S
N487 C485 1.279 . S
C488 C485 1.358 . S
C488 C489 1.356 . S
C488 H525 0.930 . S
C489 C486 1.348 . S
C489 C488 1.356 . S
H490 C484 0.930 . S
H491 C485 0.930 . S
C492 N493 1.314 . S
C492 C494 1.353 . S
C492 H498 0.930 . S
N493 Li443 1.990 . S
N493 C492 1.314 . S
N493 C496 1.279 . S
C494 C492 1.353 . S
C494 C497 1.348 . S
C494 H526 0.929 . S
C495 C496 1.358 . S
C495 C497 1.356 . S
C495 H527 0.930 . S
C496 N493 1.279 . S
C496 C495 1.358 . S
C496 H499 0.930 . S
C497 C494 1.348 . S
C497 C495 1.356 . S
H498 C492 0.930 . S
H499 C496 0.930 . S
O500 Li440 1.956 . S
O500 Li441 1.970 . S
O500 Li442 1.961 . S
O500 C444 1.325 . S
O501 Li440 1.970 . S
O501 Li441 1.956 . S
O501 Li443 1.961 . S
O501 C450 1.325 . S
O502 Li440 1.961 . S
O502 Li442 1.956 . S
O502 Li443 1.970 . S
O502 C472 1.325 . S
O503 Li441 1.961 . S
O503 Li442 1.970 . S
O503 Li443 1.956 . S
O503 C478 1.325 . S
H504 C446 0.929 . S
H505 C447 0.930 . S
H506 C448 0.930 . S
H507 C449 0.930 . S
H508 C451 0.930 . S
H509 C453 0.929 . S
H510 C454 0.930 . S
H511 C455 0.930 1_554 S
H512 C458 0.930 . S
H513 C461 0.929 . S
H514 C466 0.929 . S
H515 C467 0.930 . S
H516 C474 0.929 . S
H517 C475 0.930 . S
H518 C476 0.930 . S
H519 C477 0.930 . S
H520 C479 0.929 . S
H521 C480 0.930 . S
H522 C481 0.930 . S
H523 C482 0.930 . S
H524 C486 0.929 . S
H525 C488 0.930 . S
H526 C494 0.929 . S
H527 C495 0.930 . S
Li528 N545 1.990 . S
Li528 O588 1.956 . S
Li528 O589 1.970 . S
Li528 O590 1.961 . S
Li529 N553 1.990 . S
Li529 O588 1.970 . S
Li529 O589 1.956 . S
Li529 O591 1.961 . S
Li530 N575 1.990 . S
Li530 O588 1.961 . S
Li530 O590 1.956 . S
Li530 O591 1.970 . S
Li531 N581 1.990 . S
Li531 O589 1.961 . S
Li531 O590 1.970 . S
Li531 O591 1.956 . S
C532 C534 1.348 . S
C532 C535 1.356 . S
C532 O588 1.325 . S
N533 C536 1.314 . S
N533 C537 1.279 . S
C534 C532 1.348 . S
C534 C536 1.353 . S
C534 H592 0.929 . S
C535 C532 1.356 . S
C535 C537 1.358 . S
C535 H593 0.930 . S
C536 N533 1.314 . S
C536 C534 1.353 . S
C536 H594 0.930 . S
C537 N533 1.279 . S
C537 C535 1.358 . S
C537 H595 0.930 . S
C538 C541 1.348 . S
C538 C542 1.356 . S
C538 O589 1.325 . S
C539 N540 1.279 . S
C539 C542 1.358 1_554 S
C539 H596 0.930 . S
N540 C539 1.279 . S
N540 C543 1.314 . S
C541 C538 1.348 . S
C541 C543 1.353 1_556 S
C541 H597 0.929 . S
C542 C538 1.356 . S
C542 C539 1.358 1_556 S
C542 H598 0.930 . S
C543 N540 1.314 . S
C543 C541 1.353 1_554 S
C543 H599 0.930 . S
C544 N545 1.314 . S
C544 C549 1.353 . S
C544 H550 0.930 . S
N545 Li528 1.990 . S
N545 C544 1.314 . S
N545 C547 1.279 . S
C546 C547 1.358 . S
C546 C548 1.356 . S
C546 H600 0.930 . S
C547 N545 1.279 . S
C547 C546 1.358 . S
C547 H551 0.930 . S
C548 C546 1.356 . S
C548 C549 1.348 . S
C549 C544 1.353 . S
C549 C548 1.348 . S
C549 H601 0.929 . S
H550 C544 0.930 . S
H551 C547 0.930 . S
C552 N553 1.314 . S
C552 C554 1.353 . S
C552 H558 0.930 . S
N553 Li529 1.990 . S
N553 C552 1.314 . S
N553 C556 1.298 . S
C554 C552 1.353 . S
C554 C557 1.348 1_556 S
C554 H602 0.929 . S
C555 C556 1.344 1_554 S
C555 C557 1.356 . S
C555 H603 0.930 . S
C556 N553 1.298 . S
C556 C555 1.344 1_556 S
C556 H559 0.926 1_556 S
C557 C554 1.348 1_554 S
C557 C555 1.356 . S
H558 C552 0.930 . S
H559 C556 0.926 1_554 S
C560 C562 1.348 . S
C560 C563 1.356 . S
C560 O590 1.325 . S
N561 C564 1.314 . S
N561 C565 1.279 . S
C562 C560 1.348 . S
C562 C564 1.353 . S
C562 H604 0.929 . S
C563 C560 1.356 . S
C563 C565 1.358 . S
C563 H605 0.930 . S
C564 N561 1.314 . S
C564 C562 1.353 . S
C564 H606 0.930 . S
C565 N561 1.279 . S
C565 C563 1.358 . S
C565 H607 0.930 . S
C566 C567 1.348 . S
C566 C568 1.356 . S
C566 O591 1.325 . S
C567 C566 1.348 . S
C567 C569 1.353 . S
C567 H608 0.929 . S
C568 C566 1.356 . S
C568 C570 1.358 . S
C568 H609 0.930 . S
C569 C567 1.353 . S
C569 N571 1.314 . S
C569 H610 0.930 . S
C570 C568 1.358 . S
C570 N571 1.279 . S
C570 H611 0.930 . S
N571 C569 1.314 . S
N571 C570 1.279 . S
C572 C574 1.353 . S
C572 N575 1.314 . S
C572 H578 0.930 . S
C573 N575 1.279 . S
C573 C576 1.358 . S
C573 H579 0.930 . S
C574 C572 1.353 . S
C574 C577 1.348 . S
C574 H612 0.929 . S
N575 Li530 1.990 . S
N575 C572 1.314 . S
N575 C573 1.279 . S
C576 C573 1.358 . S
C576 C577 1.356 . S
C576 H613 0.930 . S
C577 C574 1.348 . S
C577 C576 1.356 . S
H578 C572 0.930 . S
H579 C573 0.930 . S
C580 N581 1.314 . S
C580 C582 1.353 . S
C580 H586 0.930 . S
N581 Li531 1.990 . S
N581 C580 1.314 . S
N581 C584 1.279 . S
C582 C580 1.353 . S
C582 C585 1.348 . S
C582 H614 0.929 . S
C583 C584 1.358 . S
C583 C585 1.356 . S
C583 H615 0.930 . S
C584 N581 1.279 . S
C584 C583 1.358 . S
C584 H587 0.930 . S
C585 C582 1.348 . S
C585 C583 1.356 . S
H586 C580 0.930 . S
H587 C584 0.930 . S
O588 Li528 1.956 . S
O588 Li529 1.970 . S
O588 Li530 1.961 . S
O588 C532 1.325 . S
O589 Li528 1.970 . S
O589 Li529 1.956 . S
O589 Li531 1.961 . S
O589 C538 1.325 . S
O590 Li528 1.961 . S
O590 Li530 1.956 . S
O590 Li531 1.970 . S
O590 C560 1.325 . S
O591 Li529 1.961 . S
O591 Li530 1.970 . S
O591 Li531 1.956 . S
O591 C566 1.325 . S
H592 C534 0.929 . S
H593 C535 0.930 . S
H594 C536 0.930 . S
H595 C537 0.930 . S
H596 C539 0.930 . S
H597 C541 0.929 . S
H598 C542 0.930 . S
H599 C543 0.930 . S
H600 C546 0.930 . S
H601 C549 0.929 . S
H602 C554 0.929 . S
H603 C555 0.930 . S
H604 C562 0.929 . S
H605 C563 0.930 . S
H606 C564 0.930 . S
H607 C565 0.930 . S
H608 C567 0.929 . S
H609 C568 0.930 . S
H610 C569 0.930 . S
H611 C570 0.930 . S
H612 C574 0.929 . S
H613 C576 0.930 . S
H614 C582 0.929 . S
H615 C583 0.930 . S
Li616 N633 1.990 . S
Li616 O676 1.956 . S
Li616 O677 1.970 . S
Li616 O678 1.961 . S
Li617 N641 1.990 . S
Li617 O676 1.970 . S
Li617 O677 1.956 . S
Li617 O679 1.959 . S
Li618 N663 1.990 . S
Li618 O676 1.961 . S
Li618 O678 1.956 . S
Li618 O679 1.969 . S
Li619 N669 1.990 . S
Li619 O677 1.961 1_556 S
Li619 O678 1.970 1_556 S
Li619 O679 1.956 1_556 S
C620 C622 1.348 . S
C620 C623 1.356 . S
C620 O676 1.325 . S
N621 C624 1.314 . S
N621 C625 1.279 . S
C622 C620 1.348 . S
C622 C624 1.353 . S
C622 H680 0.929 . S
C623 C620 1.356 . S
C623 C625 1.358 . S
C623 H681 0.930 . S
C624 N621 1.314 . S
C624 C622 1.353 . S
C624 H682 0.930 . S
C625 N621 1.279 . S
C625 C623 1.358 . S
C625 H683 0.930 . S
C626 C629 1.348 . S
C626 C630 1.356 . S
C626 O677 1.325 . S
C627 N628 1.279 . S
C627 C630 1.358 . S
C627 H684 0.930 . S
N628 C627 1.279 . S
N628 C631 1.314 . S
C629 C626 1.348 . S
C629 C631 1.353 . S
C629 H685 0.929 . S
C630 C626 1.356 . S
C630 C627 1.358 . S
C630 H686 0.930 . S
C631 N628 1.314 . S
C631 C629 1.353 . S
C631 H687 0.930 . S
C632 N633 1.314 . S
C632 C637 1.353 . S
C632 H638 0.930 . S
N633 Li616 1.990 . S
N633 C632 1.314 . S
N633 C635 1.279 . S
C634 C635 1.358 . S
C634 C636 1.356 . S
C634 H688 0.930 . S
C635 N633 1.279 . S
C635 C634 1.358 . S
C635 H639 0.930 . S
C636 C634 1.356 . S
C636 C637 1.348 . S
C637 C632 1.353 . S
C637 C636 1.348 . S
C637 H689 0.929 . S
H638 C632 0.930 . S
H639 C635 0.930 . S
C640 N641 1.314 . S
C640 C642 1.353 . S
C640 H646 0.930 . S
N641 Li617 1.990 . S
N641 C640 1.314 . S
N641 C644 1.279 . S
C642 C640 1.353 . S
C642 C645 1.348 . S
C642 H690 0.929 . S
C643 C644 1.358 . S
C643 C645 1.356 . S
C643 H691 0.930 . S
C644 N641 1.279 . S
C644 C643 1.358 . S
C644 H647 0.930 . S
C645 C642 1.348 . S
C645 C643 1.356 . S
H646 C640 0.930 . S
H647 C644 0.930 . S
C648 C650 1.348 1_554 S
C648 C651 1.356 . S
C648 O678 1.325 . S
N649 C652 1.326 . S
N649 C653 1.263 1_556 S
C650 C648 1.348 1_556 S
C650 C652 1.353 . S
C650 H692 0.929 . S
C651 C648 1.356 . S
C651 C653 1.358 . S
C651 H693 0.930 . S
C652 N649 1.326 . S
C652 C650 1.353 . S
C652 H694 0.930 . S
C653 N649 1.263 1_554 S
C653 C651 1.358 . S
C653 H695 0.930 . S
C654 C655 1.348 . S
C654 C656 1.356 . S
C654 O679 1.326 1_556 S
C655 C654 1.348 . S
C655 C657 1.353 . S
C655 H696 0.929 . S
C656 C654 1.356 . S
C656 C658 1.358 . S
C656 H697 0.930 . S
C657 C655 1.353 . S
C657 N659 1.314 . S
C657 H698 0.930 . S
C658 C656 1.358 . S
C658 N659 1.279 . S
C658 H699 0.930 . S
N659 C657 1.314 . S
N659 C658 1.279 . S
C660 C662 1.353 . S
C660 N663 1.314 . S
C660 H666 0.930 . S
C661 N663 1.279 . S
C661 C664 1.358 1_554 S
C661 H667 0.930 1_554 S
C662 C660 1.353 . S
C662 C665 1.348 . S
C662 H700 0.929 . S
N663 Li618 1.990 . S
N663 C660 1.314 . S
N663 C661 1.279 . S
C664 C661 1.358 1_556 S
C664 C665 1.356 1_556 S
C664 H701 0.930 . S
C665 C662 1.348 . S
C665 C664 1.356 1_554 S
H666 C660 0.930 . S
H667 C661 0.930 1_556 S
C668 N669 1.314 . S
C668 C670 1.353 . S
C668 H674 0.930 . S
N669 Li619 1.990 . S
N669 C668 1.314 . S
N669 C672 1.279 . S
C670 C668 1.353 . S
C670 C673 1.348 . S
C670 H702 0.929 . S
C671 C672 1.358 . S
C671 C673 1.356 . S
C671 H703 0.930 . S
C672 N669 1.279 . S
C672 C671 1.358 . S
C672 H675 0.930 . S
C673 C670 1.348 . S
C673 C671 1.356 . S
H674 C668 0.930 . S
H675 C672 0.930 . S
O676 Li616 1.956 . S
O676 Li617 1.970 . S
O676 Li618 1.961 . S
O676 C620 1.325 . S
O677 Li616 1.970 . S
O677 Li617 1.956 . S
O677 Li619 1.961 1_554 S
O677 C626 1.325 . S
O678 Li616 1.961 . S
O678 Li618 1.956 . S
O678 Li619 1.970 1_554 S
O678 C648 1.325 . S
O679 Li617 1.959 . S
O679 Li618 1.969 . S
O679 Li619 1.956 1_554 S
O679 C654 1.326 1_554 S
H680 C622 0.929 . S
H681 C623 0.930 . S
H682 C624 0.930 . S
H683 C625 0.930 . S
H684 C627 0.930 . S
H685 C629 0.929 . S
H686 C630 0.930 . S
H687 C631 0.930 . S
H688 C634 0.930 . S
H689 C637 0.929 . S
H690 C642 0.929 . S
H691 C643 0.930 . S
H692 C650 0.929 . S
H693 C651 0.930 . S
H694 C652 0.930 . S
H695 C653 0.930 . S
H696 C655 0.929 . S
H697 C656 0.930 . S
H698 C657 0.930 . S
H699 C658 0.930 . S
H700 C662 0.929 . S
H701 C664 0.930 . S
H702 C670 0.929 . S
H703 C671 0.930 . S
Li704 N721 1.990 . S
Li704 O764 1.956 . S
Li704 O765 1.970 . S
Li704 O766 1.961 . S
Li705 N729 1.990 . S
Li705 O764 1.970 . S
Li705 O765 1.956 . S
Li705 O767 1.961 . S
Li706 N751 1.990 . S
Li706 O764 1.961 . S
Li706 O766 1.956 . S
Li706 O767 1.970 . S
Li707 N757 1.990 . S
Li707 O765 1.961 . S
Li707 O766 1.970 . S
Li707 O767 1.956 . S
C708 C710 1.348 . S
C708 C711 1.356 . S
C708 O764 1.325 . S
N709 C712 1.314 . S
N709 C713 1.279 . S
C710 C708 1.348 . S
C710 C712 1.353 . S
C710 H768 0.929 . S
C711 C708 1.356 . S
C711 C713 1.358 . S
C711 H769 0.930 . S
C712 N709 1.314 . S
C712 C710 1.353 . S
C712 H770 0.930 . S
C713 N709 1.279 . S
C713 C711 1.358 . S
C713 H771 0.930 . S
C714 C717 1.348 . S
C714 C718 1.356 . S
C714 O765 1.325 . S
C715 N716 1.279 . S
C715 C718 1.358 . S
C715 H772 0.930 . S
N716 C715 1.279 . S
N716 C719 1.314 . S
C717 C714 1.348 . S
C717 C719 1.353 . S
C717 H773 0.929 . S
C718 C714 1.356 . S
C718 C715 1.358 . S
C718 H774 0.930 . S
C719 N716 1.314 . S
C719 C717 1.353 . S
C719 H775 0.930 . S
C720 N721 1.314 . S
C720 C725 1.353 . S
C720 H726 0.930 . S
N721 Li704 1.990 . S
N721 C720 1.314 . S
N721 C723 1.279 . S
C722 C723 1.358 . S
C722 C724 1.356 . S
C722 H776 0.930 . S
C723 N721 1.279 . S
C723 C722 1.358 . S
C723 H727 0.930 . S
C724 C722 1.356 . S
C724 C725 1.348 . S
C725 C720 1.353 . S
C725 C724 1.348 . S
C725 H777 0.929 . S
H726 C720 0.930 . S
H727 C723 0.930 . S
C728 N729 1.314 . S
C728 C730 1.353 . S
C728 H734 0.930 . S
N729 Li705 1.990 . S
N729 C728 1.314 . S
N729 C732 1.279 . S
C730 C728 1.353 . S
C730 C733 1.348 . S
C730 H778 0.929 . S
C731 C732 1.358 . S
C731 C733 1.356 . S
C731 H779 0.930 . S
C732 N729 1.279 . S
C732 C731 1.358 . S
C732 H735 0.930 . S
C733 C730 1.348 . S
C733 C731 1.356 . S
H734 C728 0.930 . S
H735 C732 0.930 . S
C736 C738 1.348 . S
C736 C739 1.356 . S
C736 O766 1.325 . S
N737 C740 1.314 . S
N737 C741 1.279 . S
C738 C736 1.348 . S
C738 C740 1.353 . S
C738 H780 0.929 . S
C739 C736 1.356 . S
C739 C741 1.358 . S
C739 H781 0.930 . S
C740 N737 1.314 . S
C740 C738 1.353 . S
C740 H782 0.930 . S
C741 N737 1.279 . S
C741 C739 1.358 . S
C741 H783 0.930 . S
C742 C743 1.348 . S
C742 C744 1.356 . S
C742 O767 1.325 . S
C743 C742 1.348 . S
C743 C745 1.353 . S
C743 H784 0.929 . S
C744 C742 1.356 . S
C744 C746 1.358 . S
C744 H785 0.930 . S
C745 C743 1.353 . S
C745 N747 1.314 . S
C745 H786 0.930 . S
C746 C744 1.358 . S
C746 N747 1.279 . S
C746 H787 0.930 . S
N747 C745 1.314 . S
N747 C746 1.279 . S
C748 C750 1.353 . S
C748 N751 1.314 . S
C748 H754 0.930 . S
C749 N751 1.279 . S
C749 C752 1.358 . S
C749 H755 0.930 . S
C750 C748 1.353 . S
C750 C753 1.348 . S
C750 H788 0.929 . S
N751 Li706 1.990 . S
N751 C748 1.314 . S
N751 C749 1.279 . S
C752 C749 1.358 . S
C752 C753 1.356 . S
C752 H789 0.930 . S
C753 C750 1.348 . S
C753 C752 1.356 . S
H754 C748 0.930 . S
H755 C749 0.930 . S
C756 N757 1.314 . S
C756 C758 1.353 . S
C756 H762 0.930 . S
N757 Li707 1.990 . S
N757 C756 1.314 . S
N757 C760 1.279 . S
C758 C756 1.353 . S
C758 C761 1.348 . S
C758 H790 0.929 . S
C759 C760 1.358 . S
C759 C761 1.356 . S
C759 H791 0.930 . S
C760 N757 1.279 . S
C760 C759 1.358 . S
C760 H763 0.930 . S
C761 C758 1.348 . S
C761 C759 1.356 . S
H762 C756 0.930 . S
H763 C760 0.930 . S
O764 Li704 1.956 . S
O764 Li705 1.970 . S
O764 Li706 1.961 . S
O764 C708 1.325 . S
O765 Li704 1.970 . S
O765 Li705 1.956 . S
O765 Li707 1.961 . S
O765 C714 1.325 . S
O766 Li704 1.961 . S
O766 Li706 1.956 . S
O766 Li707 1.970 . S
O766 C736 1.325 . S
O767 Li705 1.961 . S
O767 Li706 1.970 . S
O767 Li707 1.956 . S
O767 C742 1.325 . S
H768 C710 0.929 . S
H769 C711 0.930 . S
H770 C712 0.930 . S
H771 C713 0.930 . S
H772 C715 0.930 . S
H773 C717 0.929 . S
H774 C718 0.930 . S
H775 C719 0.930 . S
H776 C722 0.930 . S
H777 C725 0.929 . S
H778 C730 0.929 . S
H779 C731 0.930 . S
H780 C738 0.929 . S
H781 C739 0.930 . S
H782 C740 0.930 . S
H783 C741 0.930 . S
H784 C743 0.929 . S
H785 C744 0.930 . S
H786 C745 0.930 . S
H787 C746 0.930 . S
H788 C750 0.929 . S
H789 C752 0.930 . S
H790 C758 0.929 . S
H791 C759 0.930 . S
Li792 N809 1.990 . S
Li792 O852 1.956 . S
Li792 O853 1.970 . S
Li792 O854 1.961 . S
Li793 N817 1.990 . S
Li793 O852 1.970 . S
Li793 O853 1.956 . S
Li793 O855 1.961 . S
Li794 N839 1.990 . S
Li794 O852 1.961 . S
Li794 O854 1.956 . S
Li794 O855 1.970 . S
Li795 N845 1.990 . S
Li795 O853 1.961 . S
Li795 O854 1.970 . S
Li795 O855 1.956 . S
C796 C798 1.348 . S
C796 C799 1.356 . S
C796 O852 1.325 . S
N797 C800 1.314 . S
N797 C801 1.279 . S
C798 C796 1.348 . S
C798 C800 1.353 . S
C798 H856 0.929 . S
C799 C796 1.356 . S
C799 C801 1.358 . S
C799 H857 0.930 . S
C800 N797 1.314 . S
C800 C798 1.353 . S
C800 H858 0.930 . S
C801 N797 1.279 . S
C801 C799 1.358 . S
C801 H859 0.930 . S
C802 C805 1.348 . S
C802 C806 1.356 . S
C802 O853 1.325 . S
C803 N804 1.279 . S
C803 C806 1.358 . S
C803 H860 0.930 . S
N804 C803 1.279 . S
N804 C807 1.314 . S
C805 C802 1.348 . S
C805 C807 1.353 . S
C805 H861 0.929 . S
C806 C802 1.356 . S
C806 C803 1.358 . S
C806 H862 0.930 . S
C807 N804 1.314 . S
C807 C805 1.353 . S
C807 H863 0.930 . S
C808 N809 1.314 . S
C808 C813 1.353 . S
C808 H814 0.930 . S
N809 Li792 1.990 . S
N809 C808 1.314 . S
N809 C811 1.279 . S
C810 C811 1.358 . S
C810 C812 1.356 . S
C810 H864 0.930 . S
C811 N809 1.279 . S
C811 C810 1.358 . S
C811 H815 0.930 . S
C812 C810 1.356 . S
C812 C813 1.348 . S
C813 C808 1.353 . S
C813 C812 1.348 . S
C813 H865 0.929 . S
H814 C808 0.930 . S
H815 C811 0.930 . S
C816 N817 1.314 . S
C816 C818 1.353 . S
C816 H822 0.930 . S
N817 Li793 1.990 . S
N817 C816 1.314 . S
N817 C820 1.279 . S
C818 C816 1.353 . S
C818 C821 1.348 . S
C818 H866 0.929 . S
C819 C820 1.358 . S
C819 C821 1.356 . S
C819 H867 0.930 . S
C820 N817 1.279 . S
C820 C819 1.358 . S
C820 H823 0.930 . S
C821 C818 1.348 . S
C821 C819 1.356 . S
H822 C816 0.930 . S
H823 C820 0.930 . S
C824 C826 1.348 . S
C824 C827 1.356 . S
C824 O854 1.325 . S
N825 C828 1.314 . S
N825 C829 1.279 . S
C826 C824 1.348 . S
C826 C828 1.353 . S
C826 H868 0.929 . S
C827 C824 1.356 . S
C827 C829 1.358 . S
C827 H869 0.930 . S
C828 N825 1.314 . S
C828 C826 1.353 . S
C828 H870 0.930 . S
C829 N825 1.279 . S
C829 C827 1.358 . S
C829 H871 0.930 . S
C830 C831 1.348 . S
C830 C832 1.356 . S
C830 O855 1.325 . S
C831 C830 1.348 . S
C831 C833 1.353 . S
C831 H872 0.929 . S
C832 C830 1.356 . S
C832 C834 1.358 . S
C832 H873 0.930 . S
C833 C831 1.353 . S
C833 N835 1.314 . S
C833 H874 0.930 . S
C834 C832 1.358 . S
C834 N835 1.279 . S
C834 H875 0.930 . S
N835 C833 1.314 . S
N835 C834 1.279 . S
C836 C838 1.353 . S
C836 N839 1.314 . S
C836 H842 0.930 . S
C837 N839 1.279 . S
C837 C840 1.358 . S
C837 H843 0.930 . S
C838 C836 1.353 . S
C838 C841 1.348 . S
C838 H876 0.929 . S
N839 Li794 1.990 . S
N839 C836 1.314 . S
N839 C837 1.279 . S
C840 C837 1.358 . S
C840 C841 1.356 . S
C840 H877 0.930 . S
C841 C838 1.348 . S
C841 C840 1.356 . S
H842 C836 0.930 . S
H843 C837 0.930 . S
C844 N845 1.314 . S
C844 C846 1.353 . S
C844 H850 0.930 . S
N845 Li795 1.990 . S
N845 C844 1.314 . S
N845 C848 1.279 . S
C846 C844 1.353 . S
C846 C849 1.348 . S
C846 H878 0.929 . S
C847 C848 1.358 . S
C847 C849 1.356 . S
C847 H879 0.930 . S
C848 N845 1.279 . S
C848 C847 1.358 . S
C848 H851 0.930 . S
C849 C846 1.348 . S
C849 C847 1.356 . S
H850 C844 0.930 . S
H851 C848 0.930 . S
O852 Li792 1.956 . S
O852 Li793 1.970 . S
O852 Li794 1.961 . S
O852 C796 1.325 . S
O853 Li792 1.970 . S
O853 Li793 1.956 . S
O853 Li795 1.961 . S
O853 C802 1.325 . S
O854 Li792 1.961 . S
O854 Li794 1.956 . S
O854 Li795 1.970 . S
O854 C824 1.325 . S
O855 Li793 1.961 . S
O855 Li794 1.970 . S
O855 Li795 1.956 . S
O855 C830 1.325 . S
H856 C798 0.929 . S
H857 C799 0.930 . S
H858 C800 0.930 . S
H859 C801 0.930 . S
H860 C803 0.930 . S
H861 C805 0.929 . S
H862 C806 0.930 . S
H863 C807 0.930 . S
H864 C810 0.930 . S
H865 C813 0.929 . S
H866 C818 0.929 . S
H867 C819 0.930 . S
H868 C826 0.929 . S
H869 C827 0.930 . S
H870 C828 0.930 . S
H871 C829 0.930 . S
H872 C831 0.929 . S
H873 C832 0.930 . S
H874 C833 0.930 . S
H875 C834 0.930 . S
H876 C838 0.929 . S
H877 C840 0.930 . S
H878 C846 0.929 . S
H879 C847 0.930 . S
Li880 N897 1.990 . S
Li880 O940 1.956 . S
Li880 O941 1.970 . S
Li880 O942 1.961 . S
Li881 N905 1.990 . S
Li881 O940 1.970 . S
Li881 O941 1.956 . S
Li881 O943 1.961 . S
Li882 N927 1.990 . S
Li882 O940 1.961 . S
Li882 O942 1.956 . S
Li882 O943 1.970 . S
Li883 N933 1.990 . S
Li883 O941 1.961 . S
Li883 O942 1.970 . S
Li883 O943 1.956 . S
C884 C886 1.348 . S
C884 C887 1.356 . S
C884 O940 1.325 . S
N885 C888 1.314 . S
N885 C889 1.279 . S
C886 C884 1.348 . S
C886 C888 1.353 . S
C886 H944 0.929 . S
C887 C884 1.356 . S
C887 C889 1.358 . S
C887 H945 0.930 . S
C888 N885 1.314 . S
C888 C886 1.353 . S
C888 H946 0.930 . S
C889 N885 1.279 . S
C889 C887 1.358 . S
C889 H947 0.930 . S
C890 C893 1.348 . S
C890 C894 1.356 . S
C890 O941 1.325 . S
C891 N892 1.279 . S
C891 C894 1.358 . S
C891 H948 0.930 . S
N892 C891 1.279 . S
N892 C895 1.314 . S
C893 C890 1.348 . S
C893 C895 1.353 . S
C893 H949 0.929 . S
C894 C890 1.356 . S
C894 C891 1.358 . S
C894 H950 0.930 . S
C895 N892 1.314 . S
C895 C893 1.353 . S
C895 H951 0.930 . S
C896 N897 1.314 . S
C896 C901 1.353 . S
C896 H902 0.930 . S
N897 Li880 1.990 . S
N897 C896 1.314 . S
N897 C899 1.279 . S
C898 C899 1.358 . S
C898 C900 1.356 . S
C898 H952 0.930 . S
C899 N897 1.279 . S
C899 C898 1.358 . S
C899 H903 0.930 . S
C900 C898 1.356 . S
C900 C901 1.348 . S
C901 C896 1.353 . S
C901 C900 1.348 . S
C901 H953 0.929 . S
H902 C896 0.930 . S
H903 C899 0.930 . S
C904 N905 1.314 . S
C904 C906 1.353 . S
C904 H910 0.930 . S
N905 Li881 1.990 . S
N905 C904 1.314 . S
N905 C908 1.279 . S
C906 C904 1.353 . S
C906 C909 1.348 . S
C906 H954 0.929 . S
C907 C908 1.358 . S
C907 C909 1.356 . S
C907 H955 0.930 . S
C908 N905 1.279 . S
C908 C907 1.358 . S
C908 H911 0.930 . S
C909 C906 1.348 . S
C909 C907 1.356 . S
H910 C904 0.930 . S
H911 C908 0.930 . S
C912 C914 1.348 . S
C912 C915 1.356 . S
C912 O942 1.325 . S
N913 C916 1.314 . S
N913 C917 1.279 . S
C914 C912 1.348 . S
C914 C916 1.353 . S
C914 H956 0.929 . S
C915 C912 1.356 . S
C915 C917 1.358 . S
C915 H957 0.930 . S
C916 N913 1.314 . S
C916 C914 1.353 . S
C916 H958 0.930 . S
C917 N913 1.279 . S
C917 C915 1.358 . S
C917 H959 0.930 . S
C918 C919 1.348 . S
C918 C920 1.356 . S
C918 O943 1.325 . S
C919 C918 1.348 . S
C919 C921 1.353 . S
C919 H960 0.929 . S
C920 C918 1.356 . S
C920 C922 1.358 . S
C920 H961 0.930 . S
C921 C919 1.353 . S
C921 N923 1.314 . S
C921 H962 0.930 . S
C922 C920 1.358 . S
C922 N923 1.279 . S
C922 H963 0.930 . S
N923 C921 1.314 . S
N923 C922 1.279 . S
C924 C926 1.353 . S
C924 N927 1.314 . S
C924 H930 0.930 . S
C925 N927 1.279 . S
C925 C928 1.358 . S
C925 H931 0.930 . S
C926 C924 1.353 . S
C926 C929 1.348 . S
C926 H964 0.929 . S
N927 Li882 1.990 . S
N927 C924 1.314 . S
N927 C925 1.279 . S
C928 C925 1.358 . S
C928 C929 1.356 . S
C928 H965 0.930 . S
C929 C926 1.348 . S
C929 C928 1.356 . S
H930 C924 0.930 . S
H931 C925 0.930 . S
C932 N933 1.314 . S
C932 C934 1.353 . S
C932 H938 0.930 . S
N933 Li883 1.990 . S
N933 C932 1.314 . S
N933 C936 1.279 . S
C934 C932 1.353 . S
C934 C937 1.348 . S
C934 H966 0.929 . S
C935 C936 1.358 . S
C935 C937 1.356 . S
C935 H967 0.930 . S
C936 N933 1.279 . S
C936 C935 1.358 . S
C936 H939 0.930 . S
C937 C934 1.348 . S
C937 C935 1.356 . S
H938 C932 0.930 . S
H939 C936 0.930 . S
O940 Li880 1.956 . S
O940 Li881 1.970 . S
O940 Li882 1.961 . S
O940 C884 1.325 . S
O941 Li880 1.970 . S
O941 Li881 1.956 . S
O941 Li883 1.961 . S
O941 C890 1.325 . S
O942 Li880 1.961 . S
O942 Li882 1.956 . S
O942 Li883 1.970 . S
O942 C912 1.325 . S
O943 Li881 1.961 . S
O943 Li882 1.970 . S
O943 Li883 1.956 . S
O943 C918 1.325 . S
H944 C886 0.929 . S
H945 C887 0.930 . S
H946 C888 0.930 . S
H947 C889 0.930 . S
H948 C891 0.930 . S
H949 C893 0.929 . S
H950 C894 0.930 . S
H951 C895 0.930 . S
H952 C898 0.930 . S
H953 C901 0.929 . S
H954 C906 0.929 . S
H955 C907 0.930 . S
H956 C914 0.929 . S
H957 C915 0.930 . S
H958 C916 0.930 . S
H959 C917 0.930 . S
H960 C919 0.929 . S
H961 C920 0.930 . S
H962 C921 0.930 . S
H963 C922 0.930 . S
H964 C926 0.929 . S
H965 C928 0.930 . S
H966 C934 0.929 . S
H967 C935 0.930 . S
Li968 N985 1.990 . S
Li968 O1028 1.956 . S
Li968 O1029 1.970 . S
Li968 O1030 1.961 . S
Li969 N993 1.990 . S
Li969 O1028 1.970 . S
Li969 O1029 1.956 . S
Li969 O1031 1.961 . S
Li970 N1015 1.990 . S
Li970 O1028 1.961 . S
Li970 O1030 1.956 . S
Li970 O1031 1.970 . S
Li971 N1021 1.990 . S
Li971 O1029 1.961 . S
Li971 O1030 1.970 . S
Li971 O1031 1.956 . S
C972 C974 1.348 . S
C972 C975 1.356 . S
C972 O1028 1.325 . S
N973 C976 1.314 . S
N973 C977 1.279 . S
C974 C972 1.348 . S
C974 C976 1.353 . S
C974 H1032 0.929 . S
C975 C972 1.356 . S
C975 C977 1.358 . S
C975 H1033 0.930 . S
C976 N973 1.314 . S
C976 C974 1.353 . S
C976 H1034 0.930 . S
C977 N973 1.279 . S
C977 C975 1.358 . S
C977 H1035 0.930 . S
C978 C981 1.348 . S
C978 C982 1.356 . S
C978 O1029 1.325 . S
C979 N980 1.279 . S
C979 C982 1.358 . S
C979 H1036 0.930 . S
N980 C979 1.279 . S
N980 C983 1.314 . S
C981 C978 1.348 . S
C981 C983 1.353 . S
C981 H1037 0.929 . S
C982 C978 1.356 . S
C982 C979 1.358 . S
C982 H1038 0.930 . S
C983 N980 1.314 . S
C983 C981 1.353 . S
C983 H1039 0.930 . S
C984 N985 1.314 . S
C984 C989 1.353 . S
C984 H990 0.930 . S
N985 Li968 1.990 . S
N985 C984 1.314 . S
N985 C987 1.279 . S
C986 C987 1.358 . S
C986 C988 1.356 . S
C986 H1040 0.930 . S
C987 N985 1.279 . S
C987 C986 1.358 . S
C987 H991 0.930 . S
C988 C986 1.356 . S
C988 C989 1.348 . S
C989 C984 1.353 . S
C989 C988 1.348 . S
C989 H1041 0.929 . S
H990 C984 0.930 . S
H991 C987 0.930 . S
C992 N993 1.314 . S
C992 C994 1.353 . S
C992 H998 0.930 . S
N993 Li969 1.990 . S
N993 C992 1.314 . S
N993 C996 1.279 . S
C994 C992 1.353 . S
C994 C997 1.348 . S
C994 H1042 0.929 . S
C995 C996 1.358 . S
C995 C997 1.356 . S
C995 H1043 0.930 . S
C996 N993 1.279 . S
C996 C995 1.358 . S
C996 H999 0.930 . S
C997 C994 1.348 . S
C997 C995 1.356 . S
H998 C992 0.930 . S
H999 C996 0.930 . S
C1000 C1002 1.348 . S
C1000 C1003 1.356 . S
C1000 O1030 1.325 . S
N1001 C1004 1.314 . S
N1001 C1005 1.279 . S
C1002 C1000 1.348 . S
C1002 C1004 1.353 . S
C1002 H1044 0.929 . S
C1003 C1000 1.356 . S
C1003 C1005 1.358 . S
C1003 H1045 0.930 . S
C1004 N1001 1.314 . S
C1004 C1002 1.353 . S
C1004 H1046 0.930 . S
C1005 N1001 1.279 . S
C1005 C1003 1.358 . S
C1005 H1047 0.930 . S
C1006 C1007 1.348 . S
C1006 C1008 1.356 . S
C1006 O1031 1.325 . S
C1007 C1006 1.348 . S
C1007 C1009 1.353 . S
C1007 H1048 0.929 . S
C1008 C1006 1.356 . S
C1008 C1010 1.358 . S
C1008 H1049 0.930 . S
C1009 C1007 1.353 . S
C1009 N1011 1.314 . S
C1009 H1050 0.930 . S
C1010 C1008 1.358 . S
C1010 N1011 1.279 . S
C1010 H1051 0.930 . S
N1011 C1009 1.314 . S
N1011 C1010 1.279 . S
C1012 C1014 1.353 . S
C1012 N1015 1.314 . S
C1012 H1018 0.930 . S
C1013 N1015 1.279 . S
C1013 C1016 1.358 . S
C1013 H1019 0.930 . S
C1014 C1012 1.353 . S
C1014 C1017 1.348 . S
C1014 H1052 0.929 . S
N1015 Li970 1.990 . S
N1015 C1012 1.314 . S
N1015 C1013 1.279 . S
C1016 C1013 1.358 . S
C1016 C1017 1.356 . S
C1016 H1053 0.930 . S
C1017 C1014 1.348 . S
C1017 C1016 1.356 . S
H1018 C1012 0.930 . S
H1019 C1013 0.930 . S
C1020 N1021 1.314 . S
C1020 C1022 1.353 . S
C1020 H1026 0.930 . S
N1021 Li971 1.990 . S
N1021 C1020 1.314 . S
N1021 C1024 1.279 . S
C1022 C1020 1.353 . S
C1022 C1025 1.348 . S
C1022 H1054 0.929 . S
C1023 C1024 1.358 . S
C1023 C1025 1.356 . S
C1023 H1055 0.930 . S
C1024 N1021 1.279 . S
C1024 C1023 1.358 . S
C1024 H1027 0.930 . S
C1025 C1022 1.348 . S
C1025 C1023 1.356 . S
H1026 C1020 0.930 . S
H1027 C1024 0.930 . S
O1028 Li968 1.956 . S
O1028 Li969 1.970 . S
O1028 Li970 1.961 . S
O1028 C972 1.325 . S
O1029 Li968 1.970 . S
O1029 Li969 1.956 . S
O1029 Li971 1.961 . S
O1029 C978 1.325 . S
O1030 Li968 1.961 . S
O1030 Li970 1.956 . S
O1030 Li971 1.970 . S
O1030 C1000 1.325 . S
O1031 Li969 1.961 . S
O1031 Li970 1.970 . S
O1031 Li971 1.956 . S
O1031 C1006 1.325 . S
H1032 C974 0.929 . S
H1033 C975 0.930 . S
H1034 C976 0.930 . S
H1035 C977 0.930 . S
H1036 C979 0.930 . S
H1037 C981 0.929 . S
H1038 C982 0.930 . S
H1039 C983 0.930 . S
H1040 C986 0.930 . S
H1041 C989 0.929 . S
H1042 C994 0.929 . S
H1043 C995 0.930 . S
H1044 C1002 0.929 . S
H1045 C1003 0.930 . S
H1046 C1004 0.930 . S
H1047 C1005 0.930 . S
H1048 C1007 0.929 . S
H1049 C1008 0.930 . S
H1050 C1009 0.930 . S
H1051 C1010 0.930 . S
H1052 C1014 0.929 . S
H1053 C1016 0.930 . S
H1054 C1022 0.929 . S
H1055 C1023 0.930 . S
H1056 C1062 0.930 . S
H1057 C1066 0.930 . S
H1058 C1071 0.929 . S
H1059 C1069 0.929 . S
H1060 C1064 0.929 . S
H1061 C1070 0.929 . S
C1062 H1056 0.930 . S
C1062 C1063 1.367 . S
C1062 C1070 1.378 . S
C1063 C1062 1.367 . S
C1063 C1071 1.433 . S
C1064 H1060 0.929 . S
C1064 C1066 1.378 . S
C1064 C1068 1.350 . S
C1065 C1068 1.463 . S
C1065 C1070 1.350 . S
C1065 N1073 1.427 . S
C1066 H1057 0.930 . S
C1066 C1064 1.378 . S
C1066 C1067 1.367 . S
C1067 C1066 1.367 . S
C1067 C1069 1.433 . S
C1068 C1064 1.350 . S
C1068 C1065 1.463 . S
C1068 N1072 1.427 . S
C1069 H1059 0.929 . S
C1069 C1067 1.433 . S
C1069 N1072 1.384 . S
C1070 H1061 0.929 . S
C1070 C1062 1.378 . S
C1070 C1065 1.350 . S
C1071 H1058 0.929 . S
C1071 C1063 1.433 . S
C1071 N1073 1.384 . S
N1072 C1068 1.427 . S
N1072 C1069 1.384 . S
N1073 C1065 1.427 . S
N1073 C1071 1.384 . S
H1074 C1080 0.930 . S
H1075 C1084 0.930 . S
H1076 C1089 0.929 . S
H1077 C1087 0.929 . S
H1078 C1082 0.929 . S
H1079 C1088 0.929 . S
C1080 H1074 0.930 . S
C1080 C1081 1.367 . S
C1080 C1088 1.378 . S
C1081 C1080 1.367 . S
C1081 C1089 1.433 . S
C1082 H1078 0.929 . S
C1082 C1084 1.378 . S
C1082 C1086 1.350 . S
C1083 C1086 1.463 . S
C1083 C1088 1.350 . S
C1083 N1091 1.427 . S
C1084 H1075 0.930 . S
C1084 C1082 1.378 . S
C1084 C1085 1.367 . S
C1085 C1084 1.367 . S
C1085 C1087 1.433 . S
C1086 C1082 1.350 . S
C1086 C1083 1.463 . S
C1086 N1090 1.427 . S
C1087 H1077 0.929 . S
C1087 C1085 1.433 . S
C1087 N1090 1.384 . S
C1088 H1079 0.929 . S
C1088 C1080 1.378 . S
C1088 C1083 1.350 . S
C1089 H1076 0.929 . S
C1089 C1081 1.433 . S
C1089 N1091 1.384 . S
N1090 C1086 1.427 . S
N1090 C1087 1.384 . S
N1091 C1083 1.427 . S
N1091 C1089 1.384 . S
H1092 C1098 0.930 . S
H1093 C1102 0.930 . S
H1094 C1107 0.929 . S
H1095 C1105 0.929 . S
H1096 C1100 0.929 . S
H1097 C1106 0.929 . S
C1098 H1092 0.930 . S
C1098 C1099 1.367 . S
C1098 C1106 1.378 . S
C1099 C1098 1.367 . S
C1099 C1107 1.433 . S
C1100 H1096 0.929 . S
C1100 C1102 1.378 . S
C1100 C1104 1.350 . S
C1101 C1104 1.463 . S
C1101 C1106 1.350 . S
C1101 N1109 1.427 . S
C1102 H1093 0.930 . S
C1102 C1100 1.378 . S
C1102 C1103 1.367 . S
C1103 C1102 1.367 . S
C1103 C1105 1.433 . S
C1104 C1100 1.350 . S
C1104 C1101 1.463 . S
C1104 N1108 1.427 . S
C1105 H1095 0.929 . S
C1105 C1103 1.433 . S
C1105 N1108 1.384 . S
C1106 H1097 0.929 . S
C1106 C1098 1.378 . S
C1106 C1101 1.350 . S
C1107 H1094 0.929 . S
C1107 C1099 1.433 . S
C1107 N1109 1.384 . S
N1108 C1104 1.427 . S
N1108 C1105 1.384 . S
N1109 C1101 1.427 . S
N1109 C1107 1.384 . S
H1110 C1116 0.930 . S
H1111 C1120 0.930 . S
H1112 C1125 0.929 . S
H1113 C1123 0.929 . S
H1114 C1118 0.929 . S
H1115 C1124 0.929 . S
C1116 H1110 0.930 . S
C1116 C1117 1.367 . S
C1116 C1124 1.378 . S
C1117 C1116 1.367 . S
C1117 C1125 1.433 . S
C1118 H1114 0.929 . S
C1118 C1120 1.378 . S
C1118 C1122 1.350 . S
C1119 C1122 1.463 . S
C1119 C1124 1.350 . S
C1119 N1127 1.427 . S
C1120 H1111 0.930 . S
C1120 C1118 1.378 . S
C1120 C1121 1.367 . S
C1121 C1120 1.367 . S
C1121 C1123 1.433 . S
C1122 C1118 1.350 . S
C1122 C1119 1.463 . S
C1122 N1126 1.427 . S
C1123 H1113 0.929 . S
C1123 C1121 1.433 . S
C1123 N1126 1.384 . S
C1124 H1115 0.929 . S
C1124 C1116 1.378 . S
C1124 C1119 1.350 . S
C1125 H1112 0.929 . S
C1125 C1117 1.433 . S
C1125 N1127 1.384 . S
N1126 C1122 1.427 . S
N1126 C1123 1.384 . S
N1127 C1119 1.427 . S
N1127 C1125 1.384 . S
H1128 C1134 0.930 . S
H1129 C1138 0.930 . S
H1130 C1143 0.929 . S
H1131 C1141 0.929 . S
H1132 C1136 0.929 . S
H1133 C1142 0.929 . S
C1134 H1128 0.930 . S
C1134 C1135 1.367 . S
C1134 C1142 1.378 . S
C1135 C1134 1.367 . S
C1135 C1143 1.433 . S
C1136 H1132 0.929 . S
C1136 C1138 1.378 . S
C1136 C1140 1.350 . S
C1137 C1140 1.463 . S
C1137 C1142 1.350 . S
C1137 N1145 1.427 . S
C1138 H1129 0.930 . S
C1138 C1136 1.378 . S
C1138 C1139 1.367 1_556 S
C1139 C1138 1.367 1_554 S
C1139 C1141 1.433 . S
C1140 C1136 1.350 . S
C1140 C1137 1.463 . S
C1140 N1144 1.427 . S
C1141 H1131 0.929 . S
C1141 C1139 1.433 . S
C1141 N1144 1.384 1_554 S
C1142 H1133 0.929 . S
C1142 C1134 1.378 . S
C1142 C1137 1.350 . S
C1143 H1130 0.929 . S
C1143 C1135 1.433 . S
C1143 N1145 1.384 . S
N1144 C1140 1.427 . S
N1144 C1141 1.384 1_556 S
N1145 C1137 1.427 . S
N1145 C1143 1.384 . S
H1146 C1152 0.930 . S
H1147 C1156 0.930 . S
H1148 C1161 0.929 . S
H1149 C1159 0.929 . S
H1150 C1154 0.929 . S
H1151 C1160 0.929 . S
C1152 H1146 0.930 . S
C1152 C1153 1.367 . S
C1152 C1160 1.378 . S
C1153 C1152 1.367 . S
C1153 C1161 1.433 . S
C1154 H1150 0.929 . S
C1154 C1156 1.378 . S
C1154 C1158 1.350 . S
C1155 C1158 1.463 . S
C1155 C1160 1.350 . S
C1155 N1163 1.427 . S
C1156 H1147 0.930 . S
C1156 C1154 1.378 . S
C1156 C1157 1.367 . S
C1157 C1156 1.367 . S
C1157 C1159 1.433 . S
C1158 C1154 1.350 . S
C1158 C1155 1.463 . S
C1158 N1162 1.427 . S
C1159 H1149 0.929 . S
C1159 C1157 1.433 . S
C1159 N1162 1.384 . S
C1160 H1151 0.929 . S
C1160 C1152 1.378 . S
C1160 C1155 1.350 . S
C1161 H1148 0.929 . S
C1161 C1153 1.433 . S
C1161 N1163 1.384 . S
N1162 C1158 1.427 . S
N1162 C1159 1.384 . S
N1163 C1155 1.427 . S
N1163 C1161 1.384 . S
H1164 C1170 0.930 . S
H1165 C1174 0.930 . S
H1166 C1179 0.929 . S
H1167 C1177 0.929 . S
H1168 C1172 0.929 . S
H1169 C1178 0.929 . S
C1170 H1164 0.930 . S
C1170 C1171 1.367 . S
C1170 C1178 1.378 . S
C1171 C1170 1.367 . S
C1171 C1179 1.433 . S
C1172 H1168 0.929 . S
C1172 C1174 1.378 . S
C1172 C1176 1.350 . S
C1173 C1176 1.463 . S
C1173 C1178 1.350 . S
C1173 N1181 1.427 . S
C1174 H1165 0.930 . S
C1174 C1172 1.378 . S
C1174 C1175 1.367 . S
C1175 C1174 1.367 . S
C1175 C1177 1.433 . S
C1176 C1172 1.350 . S
C1176 C1173 1.463 . S
C1176 N1180 1.427 . S
C1177 H1167 0.929 . S
C1177 C1175 1.433 . S
C1177 N1180 1.384 . S
C1178 H1169 0.929 . S
C1178 C1170 1.378 . S
C1178 C1173 1.350 . S
C1179 H1166 0.929 . S
C1179 C1171 1.433 . S
C1179 N1181 1.384 . S
N1180 C1176 1.427 . S
N1180 C1177 1.384 . S
N1181 C1173 1.427 . S
N1181 C1179 1.384 . S
H1182 C1188 0.930 . S
H1183 C1192 0.930 . S
H1184 C1197 0.929 . S
H1185 C1195 0.929 . S
H1186 C1190 0.929 . S
H1187 C1196 0.929 . S
C1188 H1182 0.930 . S
C1188 C1189 1.367 . S
C1188 C1196 1.378 . S
C1189 C1188 1.367 . S
C1189 C1197 1.433 . S
C1190 H1186 0.929 . S
C1190 C1192 1.378 . S
C1190 C1194 1.350 . S
C1191 C1194 1.463 . S
C1191 C1196 1.350 . S
C1191 N1199 1.427 . S
C1192 H1183 0.930 . S
C1192 C1190 1.378 . S
C1192 C1193 1.367 . S
C1193 C1192 1.367 . S
C1193 C1195 1.433 . S
C1194 C1190 1.350 . S
C1194 C1191 1.463 . S
C1194 N1198 1.427 . S
C1195 H1185 0.929 . S
C1195 C1193 1.433 . S
C1195 N1198 1.384 . S
C1196 H1187 0.929 . S
C1196 C1188 1.378 . S
C1196 C1191 1.350 . S
C1197 H1184 0.929 . S
C1197 C1189 1.433 . S
C1197 N1199 1.384 . S
N1198 C1194 1.427 . S
N1198 C1195 1.384 . S
N1199 C1191 1.427 . S
N1199 C1197 1.384 . S
H1200 C1206 0.930 . S
H1201 C1210 0.930 . S
H1202 C1215 0.929 . S
H1203 C1213 0.929 . S
H1204 C1208 0.929 . S
H1205 C1214 0.929 . S
C1206 H1200 0.930 . S
C1206 C1207 1.367 . S
C1206 C1214 1.378 . S
C1207 C1206 1.367 . S
C1207 C1215 1.433 . S
C1208 H1204 0.929 . S
C1208 C1210 1.378 . S
C1208 C1212 1.350 . S
C1209 C1212 1.463 . S
C1209 C1214 1.350 . S
C1209 N1217 1.427 . S
C1210 H1201 0.930 . S
C1210 C1208 1.378 . S
C1210 C1211 1.367 . S
C1211 C1210 1.367 . S
C1211 C1213 1.433 . S
C1212 C1208 1.350 . S
C1212 C1209 1.463 . S
C1212 N1216 1.427 . S
C1213 H1203 0.929 . S
C1213 C1211 1.433 . S
C1213 N1216 1.384 . S
C1214 H1205 0.929 . S
C1214 C1206 1.378 . S
C1214 C1209 1.350 . S
C1215 H1202 0.929 . S
C1215 C1207 1.433 . S
C1215 N1217 1.384 . S
N1216 C1212 1.427 . S
N1216 C1213 1.384 . S
N1217 C1209 1.427 . S
N1217 C1215 1.384 . S
H1218 C1224 0.930 . S
H1219 C1228 0.930 . S
H1220 C1233 0.929 . S
H1221 C1231 0.929 . S
H1222 C1226 0.929 . S
H1223 C1232 0.929 . S
C1224 H1218 0.930 . S
C1224 C1225 1.367 . S
C1224 C1232 1.378 . S
C1225 C1224 1.367 . S
C1225 C1233 1.433 . S
C1226 H1222 0.929 . S
C1226 C1228 1.378 . S
C1226 C1230 1.350 . S
C1227 C1230 1.463 . S
C1227 C1232 1.350 . S
C1227 N1235 1.427 . S
C1228 H1219 0.930 . S
C1228 C1226 1.378 . S
C1228 C1229 1.367 . S
C1229 C1228 1.367 . S
C1229 C1231 1.433 . S
C1230 C1226 1.350 . S
C1230 C1227 1.463 . S
C1230 N1234 1.427 . S
C1231 H1221 0.929 . S
C1231 C1229 1.433 . S
C1231 N1234 1.384 . S
C1232 H1223 0.929 . S
C1232 C1224 1.378 . S
C1232 C1227 1.350 . S
C1233 H1220 0.929 . S
C1233 C1225 1.433 . S
C1233 N1235 1.384 . S
N1234 C1230 1.427 . S
N1234 C1231 1.384 . S
N1235 C1227 1.427 . S
N1235 C1233 1.384 . S
H1236 C1242 0.930 . S
H1237 C1246 0.930 . S
H1238 C1251 0.929 . S
H1239 C1249 0.929 . S
H1240 C1244 0.929 . S
H1241 C1250 0.929 . S
C1242 H1236 0.930 . S
C1242 C1243 1.367 . S
C1242 C1250 1.378 . S
C1243 C1242 1.367 . S
C1243 C1251 1.433 . S
C1244 H1240 0.929 . S
C1244 C1246 1.378 . S
C1244 C1248 1.350 . S
C1245 C1248 1.463 . S
C1245 C1250 1.350 . S
C1245 N1253 1.427 . S
C1246 H1237 0.930 . S
C1246 C1244 1.378 . S
C1246 C1247 1.367 . S
C1247 C1246 1.367 . S
C1247 C1249 1.433 . S
C1248 C1244 1.350 . S
C1248 C1245 1.463 . S
C1248 N1252 1.427 . S
C1249 H1239 0.929 . S
C1249 C1247 1.433 . S
C1249 N1252 1.384 . S
C1250 H1241 0.929 . S
C1250 C1242 1.378 . S
C1250 C1245 1.350 . S
C1251 H1238 0.929 . S
C1251 C1243 1.433 . S
C1251 N1253 1.384 . S
N1252 C1248 1.427 . S
N1252 C1249 1.384 . S
N1253 C1245 1.427 . S
N1253 C1251 1.384 . S
H1254 C1260 0.930 . S
H1255 C1264 0.930 . S
H1256 C1269 0.929 . S
H1257 C1267 0.929 . S
H1258 C1262 0.929 . S
H1259 C1268 0.929 . S
C1260 H1254 0.930 . S
C1260 C1261 1.367 . S
C1260 C1268 1.378 . S
C1261 C1260 1.367 . S
C1261 C1269 1.433 . S
C1262 H1258 0.929 . S
C1262 C1264 1.378 . S
C1262 C1266 1.350 . S
C1263 C1266 1.463 . S
C1263 C1268 1.350 . S
C1263 N1271 1.427 . S
C1264 H1255 0.930 . S
C1264 C1262 1.378 . S
C1264 C1265 1.367 . S
C1265 C1264 1.367 . S
C1265 C1267 1.433 . S
C1266 C1262 1.350 . S
C1266 C1263 1.463 . S
C1266 N1270 1.427 . S
C1267 H1257 0.929 . S
C1267 C1265 1.433 . S
C1267 N1270 1.384 . S
C1268 H1259 0.929 . S
C1268 C1260 1.378 . S
C1268 C1263 1.350 . S
C1269 H1256 0.929 . S
C1269 C1261 1.433 . S
C1269 N1271 1.384 . S
N1270 C1266 1.427 . S
N1270 C1267 1.384 . S
N1271 C1263 1.427 . S
N1271 C1269 1.384 . S
H1272 C1278 0.930 . S
H1273 C1282 0.930 . S
H1274 C1287 0.929 . S
H1275 C1285 0.929 . S
H1276 C1280 0.929 . S
H1277 C1286 0.929 . S
C1278 H1272 0.930 . S
C1278 C1279 1.367 . S
C1278 C1286 1.378 . S
C1279 C1278 1.367 . S
C1279 C1287 1.433 . S
C1280 H1276 0.929 . S
C1280 C1282 1.378 . S
C1280 C1284 1.350 . S
C1281 C1284 1.463 . S
C1281 C1286 1.350 . S
C1281 N1289 1.427 . S
C1282 H1273 0.930 . S
C1282 C1280 1.378 . S
C1282 C1283 1.367 . S
C1283 C1282 1.367 . S
C1283 C1285 1.433 . S
C1284 C1280 1.350 . S
C1284 C1281 1.463 . S
C1284 N1288 1.427 . S
C1285 H1275 0.929 . S
C1285 C1283 1.433 . S
C1285 N1288 1.384 . S
C1286 H1277 0.929 . S
C1286 C1278 1.378 . S
C1286 C1281 1.350 . S
C1287 H1274 0.929 . S
C1287 C1279 1.433 . S
C1287 N1289 1.384 . S
N1288 C1284 1.427 . S
N1288 C1285 1.384 . S
N1289 C1281 1.427 . S
N1289 C1287 1.384 . S
H1290 C1296 0.930 . S
H1291 C1300 0.930 . S
H1292 C1305 0.929 . S
H1293 C1303 0.929 . S
H1294 C1298 0.929 . S
H1295 C1304 0.929 . S
C1296 H1290 0.930 . S
C1296 C1297 1.367 1_556 S
C1296 C1304 1.378 . S
C1297 C1296 1.367 1_554 S
C1297 C1305 1.433 . S
C1298 H1294 0.929 . S
C1298 C1300 1.378 . S
C1298 C1302 1.350 . S
C1299 C1302 1.463 . S
C1299 C1304 1.350 . S
C1299 N1307 1.427 1_556 S
C1300 H1291 0.930 . S
C1300 C1298 1.378 . S
C1300 C1301 1.367 . S
C1301 C1300 1.367 . S
C1301 C1303 1.433 . S
C1302 C1298 1.350 . S
C1302 C1299 1.463 . S
C1302 N1306 1.427 . S
C1303 H1293 0.929 . S
C1303 C1301 1.433 . S
C1303 N1306 1.384 . S
C1304 H1295 0.929 . S
C1304 C1296 1.378 . S
C1304 C1299 1.350 . S
C1305 H1292 0.929 . S
C1305 C1297 1.433 . S
C1305 N1307 1.384 . S
N1306 C1302 1.427 . S
N1306 C1303 1.384 . S
N1307 C1299 1.427 1_554 S
N1307 C1305 1.384 . S
H1308 C1314 0.930 . S
H1309 C1318 0.930 . S
H1310 C1323 0.929 . S
H1311 C1321 0.929 . S
H1312 C1316 0.929 . S
H1313 C1322 0.929 . S
C1314 H1308 0.930 . S
C1314 C1315 1.367 . S
C1314 C1322 1.378 . S
C1315 C1314 1.367 . S
C1315 C1323 1.433 . S
C1316 H1312 0.929 . S
C1316 C1318 1.378 . S
C1316 C1320 1.350 . S
C1317 C1320 1.463 . S
C1317 C1322 1.350 . S
C1317 N1325 1.427 . S
C1318 H1309 0.930 . S
C1318 C1316 1.378 . S
C1318 C1319 1.367 . S
C1319 C1318 1.367 . S
C1319 C1321 1.433 . S
C1320 C1316 1.350 . S
C1320 C1317 1.463 . S
C1320 N1324 1.427 . S
C1321 H1311 0.929 . S
C1321 C1319 1.433 . S
C1321 N1324 1.384 . S
C1322 H1313 0.929 . S
C1322 C1314 1.378 . S
C1322 C1317 1.350 . S
C1323 H1310 0.929 . S
C1323 C1315 1.433 . S
C1323 N1325 1.384 . S
N1324 C1320 1.427 . S
N1324 C1321 1.384 . S
N1325 C1317 1.427 . S
N1325 C1323 1.384 . S
H1326 C1332 0.930 . S
H1327 C1336 0.930 . S
H1328 C1341 0.929 . S
H1329 C1339 0.929 . S
H1330 C1334 0.929 . S
H1331 C1340 0.929 . S
C1332 H1326 0.930 . S
C1332 C1333 1.367 . S
C1332 C1340 1.378 . S
C1333 C1332 1.367 . S
C1333 C1341 1.433 . S
C1334 H1330 0.929 . S
C1334 C1336 1.378 . S
C1334 C1338 1.350 . S
C1335 C1338 1.463 . S
C1335 C1340 1.350 . S
C1335 N1343 1.427 . S
C1336 H1327 0.930 . S
C1336 C1334 1.378 . S
C1336 C1337 1.367 . S
C1337 C1336 1.367 . S
C1337 C1339 1.433 . S
C1338 C1334 1.350 . S
C1338 C1335 1.463 . S
C1338 N1342 1.427 . S
C1339 H1329 0.929 . S
C1339 C1337 1.433 . S
C1339 N1342 1.384 . S
C1340 H1331 0.929 . S
C1340 C1332 1.378 . S
C1340 C1335 1.350 . S
C1341 H1328 0.929 . S
C1341 C1333 1.433 . S
C1341 N1343 1.384 . S
N1342 C1338 1.427 . S
N1342 C1339 1.384 . S
N1343 C1335 1.427 . S
N1343 C1341 1.384 . S
H1344 C1350 0.930 . S
H1345 C1354 0.930 . S
H1346 C1359 0.929 . S
H1347 C1357 0.929 . S
H1348 C1352 0.929 . S
H1349 C1358 0.929 . S
C1350 H1344 0.930 . S
C1350 C1351 1.367 . S
C1350 C1358 1.378 . S
C1351 C1350 1.367 . S
C1351 C1359 1.433 . S
C1352 H1348 0.929 . S
C1352 C1354 1.378 . S
C1352 C1356 1.350 . S
C1353 C1356 1.463 . S
C1353 C1358 1.350 . S
C1353 N1361 1.427 . S
C1354 H1345 0.930 . S
C1354 C1352 1.378 . S
C1354 C1355 1.367 . S
C1355 C1354 1.367 . S
C1355 C1357 1.433 . S
C1356 C1352 1.350 . S
C1356 C1353 1.463 . S
C1356 N1360 1.427 . S
C1357 H1347 0.929 . S
C1357 C1355 1.433 . S
C1357 N1360 1.384 . S
C1358 H1349 0.929 . S
C1358 C1350 1.378 . S
C1358 C1353 1.350 . S
C1359 H1346 0.929 . S
C1359 C1351 1.433 . S
C1359 N1361 1.384 . S
N1360 C1356 1.427 . S
N1360 C1357 1.384 . S
N1361 C1353 1.427 . S
N1361 C1359 1.384 . S
H1362 C1368 0.930 . S
H1363 C1372 0.930 . S
H1364 C1377 0.929 . S
H1365 C1375 0.929 . S
H1366 C1370 0.929 . S
H1367 C1376 0.929 . S
C1368 H1362 0.930 . S
C1368 C1369 1.367 . S
C1368 C1376 1.378 . S
C1369 C1368 1.367 . S
C1369 C1377 1.433 . S
C1370 H1366 0.929 . S
C1370 C1372 1.378 . S
C1370 C1374 1.350 . S
C1371 C1374 1.463 . S
C1371 C1376 1.350 . S
C1371 N1379 1.427 . S
C1372 H1363 0.930 . S
C1372 C1370 1.378 . S
C1372 C1373 1.367 . S
C1373 C1372 1.367 . S
C1373 C1375 1.433 . S
C1374 C1370 1.350 . S
C1374 C1371 1.463 . S
C1374 N1378 1.427 . S
C1375 H1365 0.929 . S
C1375 C1373 1.433 . S
C1375 N1378 1.384 . S
C1376 H1367 0.929 . S
C1376 C1368 1.378 . S
C1376 C1371 1.350 . S
C1377 H1364 0.929 . S
C1377 C1369 1.433 . S
C1377 N1379 1.384 . S
N1378 C1374 1.427 . S
N1378 C1375 1.384 . S
N1379 C1371 1.427 . S
N1379 C1377 1.384 . S
H1380 C1386 0.930 . S
H1381 C1390 0.930 . S
H1382 C1395 0.929 . S
H1383 C1393 0.929 . S
H1384 C1388 0.929 1_455 S
H1385 C1394 0.929 1_655 S
C1386 H1380 0.930 . S
C1386 C1387 1.367 . S
C1386 C1394 1.378 . S
C1387 C1386 1.367 . S
C1387 C1395 1.433 . S
C1388 H1384 0.929 1_655 S
C1388 C1390 1.378 . S
C1388 C1392 1.350 . S
C1389 C1392 1.463 1_455 S
C1389 C1394 1.350 . S
C1389 N1397 1.427 . S
C1390 H1381 0.930 . S
C1390 C1388 1.378 . S
C1390 C1391 1.367 . S
C1391 C1390 1.367 . S
C1391 C1393 1.433 . S
C1392 C1388 1.350 . S
C1392 C1389 1.463 1_655 S
C1392 N1396 1.427 . S
C1393 H1383 0.929 . S
C1393 C1391 1.433 . S
C1393 N1396 1.384 . S
C1394 H1385 0.929 1_455 S
C1394 C1386 1.378 . S
C1394 C1389 1.350 . S
C1395 H1382 0.929 . S
C1395 C1387 1.433 . S
C1395 N1397 1.384 . S
N1396 C1392 1.427 . S
N1396 C1393 1.384 . S
N1397 C1389 1.427 . S
N1397 C1395 1.384 . S
H1398 C1404 0.930 . S
H1399 C1408 0.930 . S
H1400 C1413 0.929 . S
H1401 C1411 0.929 . S
H1402 C1406 0.929 1_565 S
H1403 C1412 0.929 1_545 S
C1404 H1398 0.930 . S
C1404 C1405 1.367 . S
C1404 C1412 1.378 . S
C1405 C1404 1.367 . S
C1405 C1413 1.433 . S
C1406 H1402 0.929 1_545 S
C1406 C1408 1.378 . S
C1406 C1410 1.350 . S
C1407 C1410 1.463 1_565 S
C1407 C1412 1.350 1_554 S
C1407 N1415 1.427 . S
C1408 H1399 0.930 . S
C1408 C1406 1.378 . S
C1408 C1409 1.367 . S
C1409 C1408 1.367 . S
C1409 C1411 1.433 . S
C1410 C1406 1.350 . S
C1410 C1407 1.463 1_545 S
C1410 N1414 1.427 . S
C1411 H1401 0.929 . S
C1411 C1409 1.433 . S
C1411 N1414 1.384 . S
C1412 H1403 0.929 1_565 S
C1412 C1404 1.378 . S
C1412 C1407 1.350 1_556 S
C1413 H1400 0.929 . S
C1413 C1405 1.433 . S
C1413 N1415 1.384 1_556 S
N1414 C1410 1.427 . S
N1414 C1411 1.384 . S
N1415 C1407 1.427 . S
N1415 C1413 1.384 1_554 S
H1416 C1422 0.930 . S
H1417 C1426 0.930 . S
H1418 C1431 0.929 . S
H1419 C1429 0.929 . S
H1420 C1424 0.929 . S
H1421 C1430 0.929 . S
C1422 H1416 0.930 . S
C1422 C1423 1.367 . S
C1422 C1430 1.378 . S
C1423 C1422 1.367 . S
C1423 C1431 1.433 . S
C1424 H1420 0.929 . S
C1424 C1426 1.378 . S
C1424 C1428 1.350 . S
C1425 C1428 1.463 . S
C1425 C1430 1.350 . S
C1425 N1433 1.427 . S
C1426 H1417 0.930 . S
C1426 C1424 1.378 . S
C1426 C1427 1.367 . S
C1427 C1426 1.367 . S
C1427 C1429 1.433 . S
C1428 C1424 1.350 . S
C1428 C1425 1.463 . S
C1428 N1432 1.427 . S
C1429 H1419 0.929 . S
C1429 C1427 1.433 . S
C1429 N1432 1.384 . S
C1430 H1421 0.929 . S
C1430 C1422 1.378 . S
C1430 C1425 1.350 . S
C1431 H1418 0.929 . S
C1431 C1423 1.433 . S
C1431 N1433 1.384 . S
N1432 C1428 1.427 . S
N1432 C1429 1.384 . S
N1433 C1425 1.427 . S
N1433 C1431 1.384 . S
H1434 C1440 0.930 . S
H1435 C1444 0.930 . S
H1436 C1449 0.929 . S
H1437 C1447 0.929 . S
H1438 C1442 0.929 . S
H1439 C1448 0.929 . S
C1440 H1434 0.930 . S
C1440 C1441 1.367 . S
C1440 C1448 1.378 . S
C1441 C1440 1.367 . S
C1441 C1449 1.433 . S
C1442 H1438 0.929 . S
C1442 C1444 1.378 . S
C1442 C1446 1.350 . S
C1443 C1446 1.463 1_455 S
C1443 C1448 1.350 . S
C1443 N1451 1.427 . S
C1444 H1435 0.930 . S
C1444 C1442 1.378 . S
C1444 C1445 1.367 . S
C1445 C1444 1.367 . S
C1445 C1447 1.433 . S
C1446 C1442 1.350 . S
C1446 C1443 1.463 1_655 S
C1446 N1450 1.427 . S
C1447 H1437 0.929 . S
C1447 C1445 1.433 . S
C1447 N1450 1.384 . S
C1448 H1439 0.929 . S
C1448 C1440 1.378 . S
C1448 C1443 1.350 . S
C1449 H1436 0.929 . S
C1449 C1441 1.433 . S
C1449 N1451 1.384 . S
N1450 C1446 1.427 . S
N1450 C1447 1.384 . S
N1451 C1443 1.427 . S
N1451 C1449 1.384 . S
H1452 C1458 0.930 . S
H1453 C1462 0.930 . S
H1454 C1467 0.929 . S
H1455 C1465 0.929 . S
H1456 C1460 0.976 . S
H1457 C1466 0.975 . S
C1458 H1452 0.930 . S
C1458 C1459 1.367 . S
C1458 C1466 1.350 1_545 S
C1459 C1458 1.367 . S
C1459 C1467 1.433 . S
C1460 H1456 0.976 . S
C1460 C1462 1.349 1_545 S
C1460 C1464 1.332 1_545 S
C1461 C1464 1.463 1_545 S
C1461 C1466 1.333 1_545 S
C1461 N1469 1.427 . S
C1462 H1453 0.930 . S
C1462 C1460 1.349 1_565 S
C1462 C1463 1.367 . S
C1463 C1462 1.367 . S
C1463 C1465 1.433 . S
C1464 C1460 1.332 1_565 S
C1464 C1461 1.463 1_565 S
C1464 N1468 1.427 . S
C1465 H1455 0.929 . S
C1465 C1463 1.433 . S
C1465 N1468 1.384 . S
C1466 H1457 0.975 . S
C1466 C1458 1.350 1_565 S
C1466 C1461 1.333 1_565 S
C1467 H1454 0.929 . S
C1467 C1459 1.433 . S
C1467 N1469 1.384 . S
N1468 C1464 1.427 . S
N1468 C1465 1.384 . S
N1469 C1461 1.427 . S
N1469 C1467 1.384 . S
H1470 C1476 0.930 . S
H1471 C1480 0.930 . S
H1472 C1485 0.929 . S
H1473 C1483 0.929 . S
H1474 C1478 0.929 . S
H1475 C1484 0.929 . S
C1476 H1470 0.930 . S
C1476 C1477 1.367 . S
C1476 C1484 1.378 . S
C1477 C1476 1.367 . S
C1477 C1485 1.433 . S
C1478 H1474 0.929 . S
C1478 C1480 1.378 . S
C1478 C1482 1.350 . S
C1479 C1482 1.463 . S
C1479 C1484 1.350 . S
C1479 N1487 1.427 . S
C1480 H1471 0.930 . S
C1480 C1478 1.378 . S
C1480 C1481 1.367 . S
C1481 C1480 1.367 . S
C1481 C1483 1.433 . S
C1482 C1478 1.350 . S
C1482 C1479 1.463 . S
C1482 N1486 1.427 . S
C1483 H1473 0.929 . S
C1483 C1481 1.433 . S
C1483 N1486 1.384 . S
C1484 H1475 0.929 . S
C1484 C1476 1.378 . S
C1484 C1479 1.350 . S
C1485 H1472 0.929 . S
C1485 C1477 1.433 . S
C1485 N1487 1.384 . S
N1486 C1482 1.427 . S
N1486 C1483 1.384 . S
N1487 C1479 1.427 . S
N1487 C1485 1.384 . S
C1063 C29 1.301 . S
C1067 C937 1.292 . S
C1081 C1017 1.293 . S
C1085 C117 1.293 . S
C1099 C196 1.305 . S
C1103 C577 1.304 . S
C1117 C293 1.303 . S
C1121 C673 1.294 . S
C1135 C372 1.306 . S
C1139 C761 1.298 . S
C1153 C849 1.302 . S
C1157 C469 1.294 . S
C1171 C20 1.644 . S
C1175 C753 1.644 . S
C1189 C108 1.648 . S
C1193 C841 1.648 . S
C1207 C929 1.644 . S
C1211 C205 1.643 . S
C1225 C284 1.646 . S
C1229 C1025 1.647 . S
C1243 C381 1.644 . S
C1247 C585 1.644 . S
C1261 C460 1.646 . S
C1265 C665 1.645 1_556 S
C1279 C900 0.562 . S
C1283 C49 0.565 . S
C1297 C137 0.565 . S
C1301 C997 0.564 . S
C1315 C233 0.562 . S
C1319 C557 0.565 . S
C1333 C313 0.565 . S
C1337 C636 0.562 . S
C1351 C724 0.562 . S
C1355 C409 0.566 . S
C1369 C489 0.562 . S
C1373 C812 0.566 . S
C1387 C57 1.758 . S
C1391 C988 1.762 . S
C1405 C548 1.758 . S
C1409 C145 1.763 . S
C1423 C645 1.760 . S
C1427 C225 1.755 . S
C1441 C733 1.753 . S
C1445 C321 1.750 . S
C1459 C821 1.764 . S
C1463 C401 1.764 . S
C1477 C909 1.763 . S
C1481 C497 1.759 . S
