# Generated by pormake.
# Topology unf, (4)-cn, num edge types: 1
# Building blocks:
#     Node 0, Type 0, BuildingBlock: ICAMEG_clean_sbu_1, # of connection points: 4
#     Node 1, Type 0, BuildingBlock: ICAMEG_clean_sbu_1, # of connection points: 4
#     Node 2, Type 0, BuildingBlock: ICAMEG_clean_sbu_1, # of connection points: 4
#     Node 3, Type 0, BuildingBlock: ICAMEG_clean_sbu_1, # of connection points: 4
#     Node 4, Type 0, BuildingBlock: ICAMEG_clean_sbu_1, # of connection points: 4
#     Node 5, Type 0, BuildingBlock: ICAMEG_clean_sbu_1, # of connection points: 4
#     Node 6, Type 0, BuildingBlock: ICAMEG_clean_sbu_1, # of connection points: 4
#     Node 7, Type 0, BuildingBlock: ICAMEG_clean_sbu_1, # of connection points: 4
#     Node 8, Type 0, BuildingBlock: ICAMEG_clean_sbu_1, # of connection points: 4
#     Node 9, Type 0, BuildingBlock: ICAMEG_clean_sbu_1, # of connection points: 4
#     Node 10, Type 0, BuildingBlock: ICAMEG_clean_sbu_1, # of connection points: 4
#     Node 11, Type 0, BuildingBlock: ICAMEG_clean_sbu_1, # of connection points: 4
#     Edge 12, Type (0, 0), BuildingBlock: XIVTED_clean_linker_0, # of connection points: 2
#     Edge 13, Type (0, 0), BuildingBlock: XIVTED_clean_linker_0, # of connection points: 2
#     Edge 14, Type (0, 0), BuildingBlock: XIVTED_clean_linker_0, # of connection points: 2
#     Edge 15, Type (0, 0), BuildingBlock: XIVTED_clean_linker_0, # of connection points: 2
#     Edge 16, Type (0, 0), BuildingBlock: XIVTED_clean_linker_0, # of connection points: 2
#     Edge 17, Type (0, 0), BuildingBlock: XIVTED_clean_linker_0, # of connection points: 2
#     Edge 18, Type (0, 0), BuildingBlock: XIVTED_clean_linker_0, # of connection points: 2
#     Edge 19, Type (0, 0), BuildingBlock: XIVTED_clean_linker_0, # of connection points: 2
#     Edge 20, Type (0, 0), BuildingBlock: XIVTED_clean_linker_0, # of connection points: 2
#     Edge 21, Type (0, 0), BuildingBlock: XIVTED_clean_linker_0, # of connection points: 2
#     Edge 22, Type (0, 0), BuildingBlock: XIVTED_clean_linker_0, # of connection points: 2
#     Edge 23, Type (0, 0), BuildingBlock: XIVTED_clean_linker_0, # of connection points: 2
#     Edge 24, Type (0, 0), BuildingBlock: XIVTED_clean_linker_0, # of connection points: 2
#     Edge 25, Type (0, 0), BuildingBlock: XIVTED_clean_linker_0, # of connection points: 2
#     Edge 26, Type (0, 0), BuildingBlock: XIVTED_clean_linker_0, # of connection points: 2
#     Edge 27, Type (0, 0), BuildingBlock: XIVTED_clean_linker_0, # of connection points: 2
#     Edge 28, Type (0, 0), BuildingBlock: XIVTED_clean_linker_0, # of connection points: 2
#     Edge 29, Type (0, 0), BuildingBlock: XIVTED_clean_linker_0, # of connection points: 2
#     Edge 30, Type (0, 0), BuildingBlock: XIVTED_clean_linker_0, # of connection points: 2
#     Edge 31, Type (0, 0), BuildingBlock: XIVTED_clean_linker_0, # of connection points: 2
#     Edge 32, Type (0, 0), BuildingBlock: XIVTED_clean_linker_0, # of connection points: 2
#     Edge 33, Type (0, 0), BuildingBlock: XIVTED_clean_linker_0, # of connection points: 2
#     Edge 34, Type (0, 0), BuildingBlock: XIVTED_clean_linker_0, # of connection points: 2
#     Edge 35, Type (0, 0), BuildingBlock: XIVTED_clean_linker_0, # of connection points: 2
# Relax obj value: 0.237
# Max RMSD: 0.194
# Mean RMSD: 0.194
data_MOF--net-unf--node1-ICAMEG_clean_sbu_1--edge1-XIVTED_clean_linker_0
_symmetry_space_group_name_H-M    P1
_symmetry_Int_Tables_number       1
_symmetry_cell_setting            triclinic
loop_
_symmetry_equiv_pos_as_xyz
'x, y, z'
_cell_length_a     38.268108
_cell_length_b     38.384743
_cell_length_c     40.933385
_cell_angle_alpha  89.864313
_cell_angle_beta   90.059152
_cell_angle_gamma 120.09946
loop_
_atom_site_label
_atom_site_type_symbol
_atom_site_fract_x
_atom_site_fract_y
_atom_site_fract_z
_atom_type_partial_charge
Co0 Co 0.15751 0.44099 0.04817 0.0
Co1 Co 0.10998 0.42614 0.12281 0.0
O2 O 0.15685 0.43679 0.09588 0.0
C3 C 0.18378 0.3807 0.05822 0.0
O4 O 0.15575 0.36257 0.08058 0.0
C5 C 0.18384 0.48968 0.15822 0.0
O6 O 0.20287 0.50261 0.13032 0.0
O7 O 0.10568 0.47114 0.10114 0.0
O8 O 0.12544 0.46857 0.04999 0.0
H9 H 0.96943 0.40089 0.14246 0.0
H10 H 0.23601 0.46897 0.08146 0.0
O11 O 0.18904 0.41274 0.04445 0.0
H12 H 0.24913 0.58887 0.02552 0.0
H13 H 0.22144 0.46656 0.93667 0.0
H14 H 0.09651 0.429 0.99792 0.0
H15 H 0.18616 0.52343 0.02137 0.0
H16 H 0.22026 0.46165 0.99678 0.0
O17 O 0.1465 0.46276 0.1586 0.0
H18 H 0.02858 0.41456 0.10915 0.0
H19 H 0.09154 0.41327 0.19425 0.0
H20 H 0.09647 0.43391 0.93787 0.0
H21 H 0.29989 0.53365 0.08571 0.0
H22 H 0.15927 0.45279 0.90682 0.0
H23 H 0.30667 0.59425 0.05775 0.0
O24 O 0.10641 0.3883 0.04458 0.0
H25 H 0.18017 0.35896 0.1751 0.0
H26 H 0.04952 0.34056 0.13758 0.0
H27 H 0.05228 0.28324 0.16196 0.0
H28 H 0.11794 0.29227 0.18106 0.0
H29 H 0.17618 0.41528 0.15019 0.0
H30 H 0.03316 0.39986 0.22849 0.0
H31 H 0.97148 0.39348 0.20263 0.0
O32 O 0.07241 0.3885 0.08912 0.0
C33 C 0.10831 0.47989 0.07062 0.0
C34 C 0.99618 0.40374 0.15405 0.0
C35 C 0.03197 0.40322 0.20232 0.0
N36 N 0.06373 0.41521 0.14969 0.0
C37 C 0.02983 0.41157 0.1353 0.0
C38 C 0.06506 0.41108 0.18279 0.0
C39 C 0.99735 0.39959 0.18779 0.0
C40 C 0.23888 0.49509 0.06892 0.0
N41 N 0.20727 0.49243 0.05132 0.0
C42 C 0.27505 0.53169 0.07156 0.0
C43 C 0.27881 0.5657 0.05593 0.0
C44 C 0.24651 0.56271 0.0379 0.0
C45 C 0.21078 0.52562 0.03583 0.0
C46 C 0.19391 0.45835 0.94993 0.0
C47 C 0.12402 0.43742 0.98462 0.0
C48 C 0.19302 0.45543 0.98397 0.0
N49 N 0.1584 0.44522 1.00089 0.0
C50 C 0.12378 0.44007 0.9506 0.0
C51 C 0.15902 0.45063 0.93319 0.0
C52 C 0.07413 0.37423 0.06145 0.0
C53 C 0.15134 0.35472 0.16708 0.0
C54 C 0.07823 0.34479 0.14579 0.0
C55 C 0.07959 0.31219 0.15962 0.0
C56 C 0.11643 0.31728 0.17035 0.0
N57 N 0.11256 0.38152 0.14285 0.0
C58 C 0.14882 0.38664 0.15314 0.0
Co59 Co 0.56036 0.7104 0.04684 0.0
Co60 Co 0.58116 0.67946 0.11952 0.0
O61 O 0.56768 0.71457 0.09424 0.0
C62 C 0.61994 0.79738 0.0546 0.0
O63 O 0.64101 0.7881 0.07446 0.0
C64 C 0.51757 0.68514 0.15928 0.0
O65 O 0.49679 0.68254 0.13295 0.0
O66 O 0.53427 0.62958 0.10024 0.0
O67 O 0.53456 0.65094 0.04908 0.0
H68 H 0.60834 0.56526 0.13572 0.0
H69 H 0.53199 0.75768 0.08401 0.0
O70 O 0.58658 0.77003 0.04286 0.0
H71 H 0.41016 0.6487 0.03148 0.0
H72 H 0.52533 0.74584 0.93778 0.0
H73 H 0.57102 0.66257 0.995 0.0
H74 H 0.47669 0.65455 0.02296 0.0
H75 H 0.53412 0.75008 0.99761 0.0
O76 O 0.54821 0.68045 0.15741 0.0
H77 H 0.59133 0.60946 0.10414 0.0
H78 H 0.60107 0.67613 0.18969 0.0
H79 H 0.56226 0.65712 0.93521 0.0
H80 H 0.46614 0.75336 0.0928 0.0
H81 H 0.53929 0.69897 0.90618 0.0
H82 H 0.40461 0.69844 0.06653 0.0
O83 O 0.61381 0.71403 0.04033 0.0
H84 H 0.65211 0.81774 0.16951 0.0
H85 H 0.66838 0.706 0.12853 0.0
H86 H 0.72762 0.76706 0.1499 0.0
H87 H 0.71968 0.82343 0.17072 0.0
H88 H 0.5938 0.75641 0.14753 0.0
H89 H 0.61794 0.6325 0.22224 0.0
H90 H 0.62177 0.57662 0.19525 0.0
O91 O 0.61561 0.67891 0.08346 0.0
C92 C 0.52432 0.62286 0.06998 0.0
C93 C 0.60662 0.58942 0.1478 0.0
C94 C 0.61195 0.62711 0.19635 0.0
N95 N 0.5947 0.64511 0.14504 0.0
C96 C 0.59691 0.61451 0.13003 0.0
C97 C 0.60212 0.65159 0.1778 0.0
C98 C 0.61415 0.5958 0.18119 0.0
C99 C 0.50541 0.73396 0.07223 0.0
N100 N 0.50819 0.70642 0.05298 0.0
C101 C 0.46818 0.73155 0.07741 0.0
C102 C 0.43366 0.70069 0.06272 0.0
C103 C 0.43675 0.67274 0.04308 0.0
C104 C 0.47448 0.67609 0.03847 0.0
C105 C 0.53533 0.72743 0.95015 0.0
C106 C 0.56084 0.68077 0.98259 0.0
C107 C 0.54048 0.72979 0.98401 0.0
N108 N 0.55295 0.70651 0.99982 0.0
C109 C 0.55602 0.6776 0.94871 0.0
C110 C 0.54316 0.70112 0.93244 0.0
C111 C 0.6286 0.69546 0.05571 0.0
C112 C 0.65593 0.7933 0.16066 0.0
C113 C 0.66465 0.73041 0.13745 0.0
C114 C 0.69832 0.7649 0.14959 0.0
C115 C 0.69384 0.7965 0.16128 0.0
N116 N 0.62749 0.72737 0.13708 0.0
C117 C 0.62294 0.75836 0.14834 0.0
Co118 Co 0.28013 0.84446 0.05073 0.0
Co119 Co 0.31626 0.89874 0.12134 0.0
O120 O 0.27887 0.84989 0.09793 0.0
C121 C 0.19523 0.82236 0.06165 0.0
O122 O 0.20864 0.85787 0.07505 0.0
C123 C 0.3089 0.82953 0.16165 0.0
O124 O 0.31195 0.81173 0.13537 0.0
O125 O 0.36397 0.89847 0.10098 0.0
O126 O 0.34036 0.87757 0.05019 0.0
H127 H 0.43613 0.03817 0.1328 0.0
H128 H 0.23352 0.77055 0.09074 0.0
O129 O 0.21973 0.8119 0.05062 0.0
H130 H 0.33759 0.75303 0.03452 0.0
H131 H 0.23392 0.76827 0.94482 0.0
H132 H 0.32578 0.89929 0.99587 0.0
H133 H 0.33311 0.81425 0.02557 0.0
H134 H 0.23433 0.77648 1.00461 0.0
O135 O 0.31461 0.86519 0.15987 0.0
H136 H 0.38844 0.97659 0.10319 0.0
H137 H 0.32351 0.92489 0.1909 0.0
H138 H 0.32656 0.89233 0.93606 0.0
H139 H 0.23655 0.70861 0.10002 0.0
H140 H 0.2804 0.82643 0.91014 0.0
H141 H 0.28897 0.69961 0.07188 0.0
O142 O 0.2782 0.89484 0.04336 0.0
H143 H 0.17918 0.83826 0.17386 0.0
H144 H 0.29431 0.96256 0.12985 0.0
H145 H 0.23537 0.96445 0.15192 0.0
H146 H 0.17731 0.90201 0.17425 0.0
H147 H 0.23847 0.8376 0.15124 0.0
H148 H 0.37066 0.98585 0.2215 0.0
H149 H 0.42742 0.0431 0.19242 0.0
O150 O 0.31717 0.93311 0.08449 0.0
C151 C 0.3695 0.89544 0.07039 0.0
C152 C 0.41157 0.0134 0.14577 0.0
C153 C 0.37486 0.98401 0.19555 0.0
N154 N 0.35336 0.94698 0.14528 0.0
C155 C 0.38447 0.9784 0.12912 0.0
C156 C 0.34837 0.94946 0.1781 0.0
C157 C 0.40667 0.01614 0.17921 0.0
C158 C 0.25613 0.76666 0.07812 0.0
N159 N 0.28302 0.79593 0.05756 0.0
C160 C 0.25782 0.73161 0.0836 0.0
C161 C 0.28729 0.72662 0.06786 0.0
C162 C 0.31461 0.7566 0.04692 0.0
C163 C 0.31203 0.79127 0.04205 0.0
C164 C 0.25424 0.7971 0.95583 0.0
C165 C 0.30577 0.87044 0.98481 0.0
C166 C 0.25457 0.80195 0.98966 0.0
N167 N 0.28031 0.83822 1.00374 0.0
C168 C 0.30627 0.86672 0.95091 0.0
C169 C 0.28033 0.82975 0.93639 0.0
C170 C 0.29901 0.92883 0.05739 0.0
C171 C 0.20439 0.86572 0.16437 0.0
C172 C 0.26919 0.93525 0.13952 0.0
C173 C 0.2359 0.93652 0.15201 0.0
C174 C 0.20333 0.90148 0.16454 0.0
N175 N 0.27016 0.90013 0.13966 0.0
C176 C 0.23818 0.86559 0.15168 0.0
Co177 Co 0.56257 0.84584 0.47063 0.0
Co178 Co 0.58545 0.90021 0.39907 0.0
O179 O 0.56887 0.85024 0.42316 0.0
C180 C 0.61817 0.8146 0.45893 0.0
O181 O 0.6403 0.84635 0.44066 0.0
C182 C 0.51806 0.83418 0.35963 0.0
O183 O 0.49806 0.81596 0.38623 0.0
O184 O 0.54192 0.90712 0.42047 0.0
O185 O 0.54023 0.88269 0.47075 0.0
H186 H 0.62309 0.04532 0.38729 0.0
H187 H 0.52904 0.77065 0.43183 0.0
O188 O 0.58565 0.80946 0.47186 0.0
H189 H 0.41212 0.76454 0.48794 0.0
H190 H 0.52668 0.77102 0.57774 0.0
H191 H 0.57726 0.90317 0.52461 0.0
H192 H 0.48061 0.82248 0.49606 0.0
H193 H 0.53442 0.77771 0.51786 0.0
O194 O 0.5496 0.86892 0.36139 0.0
H195 H 0.60253 0.98212 0.41713 0.0
H196 H 0.60427 0.92485 0.32898 0.0
H197 H 0.56966 0.89778 0.5845 0.0
H198 H 0.46115 0.71184 0.42341 0.0
H199 H 0.54421 0.83132 0.61147 0.0
H200 H 0.40207 0.70861 0.45149 0.0
O201 O 0.61757 0.8933 0.47745 0.0
H202 H 0.64431 0.82373 0.34469 0.0
H203 H 0.67333 0.95578 0.38679 0.0
H204 H 0.72844 0.94859 0.36288 0.0
H205 H 0.71406 0.88219 0.34148 0.0
H206 H 0.5903 0.83212 0.36926 0.0
H207 H 0.62455 0.98735 0.29815 0.0
H208 H 0.63422 0.04823 0.32733 0.0
O209 O 0.62298 0.93253 0.43482 0.0
C210 C 0.53228 0.90332 0.45083 0.0
C211 C 0.61892 0.01898 0.37428 0.0
C212 C 0.61966 0.98643 0.32425 0.0
N213 N 0.60189 0.94965 0.37484 0.0
C214 C 0.60725 0.98307 0.39106 0.0
C215 C 0.60793 0.95101 0.34184 0.0
C216 C 0.62513 0.02059 0.34064 0.0
C217 C 0.50355 0.76927 0.4444 0.0
N218 N 0.50881 0.79995 0.46444 0.0
C219 C 0.46514 0.73598 0.43941 0.0
C220 C 0.432 0.73422 0.45513 0.0
C221 C 0.43761 0.76562 0.47555 0.0
C222 C 0.47645 0.79845 0.47993 0.0
C223 C 0.53777 0.80013 0.56628 0.0
C224 C 0.566 0.87411 0.53613 0.0
C225 C 0.54232 0.80413 0.53239 0.0
N226 N 0.55613 0.84076 0.51772 0.0
C227 C 0.56184 0.87126 0.57007 0.0
C228 C 0.54759 0.83397 0.58519 0.0
C229 C 0.63503 0.92689 0.46232 0.0
C230 C 0.65094 0.85285 0.35383 0.0
C231 C 0.66685 0.92676 0.37775 0.0
C232 C 0.69817 0.92289 0.36411 0.0
C233 C 0.69007 0.88564 0.35208 0.0
N234 N 0.62849 0.89452 0.3793 0.0
C235 C 0.6204 0.85787 0.36764 0.0
Co236 Co 0.15586 0.70871 0.47148 0.0
Co237 Co 0.09168 0.6847 0.4054 0.0
O238 O 0.14485 0.71426 0.4258 0.0
C239 C 0.18643 0.79575 0.46413 0.0
O240 O 0.15288 0.78634 0.4485 0.0
C241 C 0.14991 0.67885 0.35954 0.0
O242 O 0.1671 0.67123 0.38414 0.0
O243 O 0.08292 0.63187 0.42303 0.0
O244 O 0.11785 0.64963 0.47016 0.0
H245 H 0.94281 0.58488 0.4019 0.0
H246 H 0.22513 0.75292 0.42635 0.0
O247 O 0.1931 0.76819 0.47423 0.0
H248 H 0.23628 0.63773 0.46675 0.0
H249 H 0.2463 0.74051 0.56955 0.0
H250 H 0.1068 0.66133 0.52844 0.0
H251 H 0.18086 0.64807 0.48541 0.0
H252 H 0.23067 0.74585 0.51192 0.0
O253 O 0.11749 0.67995 0.36403 0.0
H254 H 0.00992 0.6228 0.42765 0.0
H255 H 0.06043 0.68413 0.33837 0.0
H256 H 0.12107 0.6548 0.58616 0.0
H257 H 0.2813 0.74399 0.40732 0.0
H258 H 0.19128 0.69461 0.60709 0.0
H259 H 0.28706 0.68599 0.42751 0.0
O260 O 0.11037 0.71574 0.48666 0.0
H261 H 0.16937 0.82154 0.35296 0.0
H262 H 0.0404 0.72285 0.40404 0.0
H263 H 0.04968 0.78791 0.3849 0.0
H264 H 0.1145 0.83774 0.35903 0.0
H265 H 0.15907 0.75646 0.37288 0.0
H266 H 0.99392 0.64667 0.31161 0.0
H267 H 0.93448 0.59669 0.34345 0.0
O268 O 0.06544 0.69073 0.44539 0.0
C269 C 0.09158 0.62326 0.4511 0.0
C270 C 0.96848 0.60656 0.38776 0.0
C271 C 0.99718 0.64118 0.33707 0.0
N272 N 0.03914 0.65554 0.38453 0.0
C273 C 0.00657 0.62814 0.40221 0.0
C274 C 0.03483 0.66217 0.35233 0.0
C275 C 0.96383 0.61318 0.35496 0.0
C276 C 0.22769 0.72785 0.43549 0.0
N277 N 0.19986 0.70114 0.45705 0.0
C278 C 0.25944 0.72283 0.42451 0.0
C279 C 0.26261 0.69024 0.4358 0.0
C280 C 0.23409 0.66312 0.45779 0.0
C281 C 0.2027 0.66905 0.46818 0.0
C282 C 0.21558 0.72302 0.56073 0.0
C283 C 0.1374 0.67869 0.53732 0.0
C284 C 0.20652 0.72602 0.52815 0.0
N285 N 0.16783 0.7039 0.5168 0.0
C286 C 0.14531 0.6749 0.57005 0.0
C287 C 0.1847 0.69725 0.58178 0.0
C288 C 0.07581 0.7047 0.4742 0.0
C289 C 0.14092 0.80001 0.36405 0.0
C290 C 0.06874 0.7444 0.3929 0.0
C291 C 0.07378 0.78117 0.38204 0.0
C292 C 0.11015 0.8091 0.36752 0.0
N293 N 0.099 0.73561 0.38932 0.0
C294 C 0.1348 0.76294 0.3752 0.0
Co295 Co 0.29017 0.43935 0.48106 0.0
Co296 Co 0.31925 0.42176 0.40599 0.0
O297 O 0.28581 0.43557 0.43338 0.0
C298 C 0.20217 0.38359 0.47227 0.0
O299 O 0.21032 0.36287 0.45122 0.0
C300 C 0.31282 0.48739 0.37022 0.0
O301 O 0.30723 0.50081 0.39799 0.0
O302 O 0.37053 0.4648 0.42706 0.0
O303 O 0.3496 0.46264 0.47864 0.0
H304 H 0.42855 0.38833 0.38496 0.0
H305 H 0.24428 0.47333 0.44887 0.0
O306 O 0.23055 0.41535 0.48521 0.0
H307 H 0.35862 0.58825 0.50371 0.0
H308 H 0.2573 0.4688 0.59314 0.0
H309 H 0.33621 0.42217 0.53067 0.0
H310 H 0.34993 0.52024 0.50742 0.0
H311 H 0.25268 0.46436 0.53305 0.0
O312 O 0.32169 0.45946 0.37009 0.0
H313 H 0.38629 0.40573 0.41879 0.0
H314 H 0.32212 0.40725 0.33455 0.0
H315 H 0.34201 0.42649 0.59068 0.0
H316 H 0.25133 0.54069 0.4451 0.0
H317 H 0.30235 0.44993 0.62235 0.0
H318 H 0.30898 0.5988 0.47248 0.0
O319 O 0.28373 0.38466 0.48433 0.0
H320 H 0.18056 0.36186 0.35622 0.0
H321 H 0.28828 0.33516 0.39112 0.0
H322 H 0.2255 0.28012 0.36767 0.0
H323 H 0.17113 0.29333 0.34988 0.0
H324 H 0.2435 0.41584 0.38018 0.0
H325 H 0.36391 0.39016 0.2998 0.0
H326 H 0.41752 0.38047 0.32498 0.0
O327 O 0.31672 0.38292 0.43966 0.0
C328 C 0.37757 0.47256 0.45763 0.0
C329 C 0.40534 0.39255 0.37368 0.0
C330 C 0.3691 0.39364 0.32589 0.0
N331 N 0.35194 0.40783 0.37871 0.0
C332 C 0.38131 0.40245 0.39272 0.0
C333 C 0.34567 0.40355 0.3457 0.0
C334 C 0.39915 0.38816 0.34004 0.0
C335 C 0.26919 0.49835 0.46118 0.0
N336 N 0.29676 0.49283 0.47822 0.0
C337 C 0.27314 0.53648 0.45881 0.0
C338 C 0.30554 0.56908 0.47412 0.0
C339 C 0.33344 0.5632 0.49158 0.0
C340 C 0.32853 0.52464 0.49341 0.0
C341 C 0.27475 0.45856 0.57961 0.0
C342 C 0.31897 0.43256 0.54423 0.0
C343 C 0.27217 0.45588 0.54558 0.0
N344 N 0.29425 0.44316 0.52833 0.0
C345 C 0.32232 0.43487 0.57824 0.0
C346 C 0.30005 0.44799 0.59599 0.0
C347 C 0.30015 0.36899 0.4673 0.0
C348 C 0.20415 0.35579 0.36366 0.0
C349 C 0.26481 0.34121 0.38346 0.0
C350 C 0.22932 0.3099 0.37016 0.0
C351 C 0.19884 0.31733 0.36018 0.0
N352 N 0.26998 0.37898 0.38658 0.0
C353 C 0.24006 0.38637 0.37705 0.0
Co354 Co 0.8486 0.55594 0.97097 0.0
Co355 Co 0.91253 0.59758 0.90491 0.0
O356 O 0.8594 0.57303 0.92544 0.0
C357 C 0.81662 0.6114 0.96445 0.0
O358 O 0.85021 0.63647 0.94927 0.0
C359 C 0.85522 0.53271 0.85928 0.0
O360 O 0.83925 0.50767 0.88393 0.0
O361 O 0.92252 0.55416 0.92229 0.0
O362 O 0.88721 0.53569 0.96923 0.0
H363 H 0.06197 0.64963 0.90083 0.0
H364 H 0.77937 0.53048 0.92575 0.0
O365 O 0.81062 0.57724 0.97408 0.0
H366 H 0.77 0.40455 0.96517 0.0
H367 H 0.75843 0.49533 0.06896 0.0
H368 H 0.89799 0.55748 0.02764 0.0
H369 H 0.82467 0.47044 0.98433 0.0
H370 H 0.77383 0.51704 1.01147 0.0
O371 O 0.88687 0.56692 0.86356 0.0
H372 H 0.99489 0.6191 0.92681 0.0
H373 H 0.94308 0.62872 0.83783 0.0
H374 H 0.88395 0.53595 0.08521 0.0
H375 H 0.72396 0.46524 0.90621 0.0
H376 H 0.8137 0.50462 0.10625 0.0
H377 H 0.71909 0.40168 0.9259 0.0
O378 O 0.89368 0.60864 0.98643 0.0
H379 H 0.83226 0.65445 0.85344 0.0
H380 H 0.96239 0.68713 0.90357 0.0
H381 H 0.95162 0.74212 0.88482 0.0
H382 H 0.8862 0.72592 0.85944 0.0
H383 H 0.84407 0.60047 0.87294 0.0
H384 H 0.00956 0.65909 0.81084 0.0
H385 H 0.06963 0.66983 0.84241 0.0
O386 O 0.93845 0.62988 0.94495 0.0
C387 C 0.91386 0.5364 0.95017 0.0
C388 C 0.03602 0.64509 0.8868 0.0
C389 C 0.00659 0.65032 0.83629 0.0
N390 N 0.96503 0.62195 0.88386 0.0
C391 C 0.99795 0.62782 0.90139 0.0
C392 C 0.96897 0.63292 0.85168 0.0
C393 C 0.04029 0.65639 0.85402 0.0
C394 C 0.7772 0.50294 0.93468 0.0
N395 N 0.80511 0.50425 0.95625 0.0
C396 C 0.74588 0.46609 0.92341 0.0
C397 C 0.74321 0.43045 0.93442 0.0
C398 C 0.77179 0.43204 0.95643 0.0
C399 C 0.80275 0.46943 0.96711 0.0
C400 C 0.78916 0.50898 0.0601 0.0
C401 C 0.86738 0.54389 0.03657 0.0
C402 C 0.7981 0.52148 0.0276 0.0
N403 N 0.83682 0.5386 0.01619 0.0
C404 C 0.8596 0.53174 0.06922 0.0
C405 C 0.82019 0.51418 0.08101 0.0
C406 C 0.92804 0.63283 0.97393 0.0
C407 C 0.86096 0.6619 0.86432 0.0
C408 C 0.9338 0.67982 0.89264 0.0
C409 C 0.92791 0.71109 0.882 0.0
C410 C 0.89121 0.70199 0.86775 0.0
N411 N 0.90405 0.64055 0.8891 0.0
C412 C 0.86793 0.63142 0.87525 0.0
Co413 Co 0.43889 0.28509 0.97139 0.0
Co414 Co 0.41463 0.31534 0.89981 0.0
O415 O 0.43198 0.28264 0.924 0.0
C416 C 0.38366 0.19789 0.96063 0.0
O417 O 0.36023 0.20672 0.9433 0.0
C418 C 0.48218 0.31724 0.86019 0.0
O419 O 0.5026 0.31977 0.88671 0.0
O420 O 0.45791 0.36629 0.92085 0.0
O421 O 0.4609 0.34415 0.97108 0.0
H422 H 0.37472 0.42111 0.88756 0.0
H423 H 0.47236 0.24353 0.93234 0.0
O424 O 0.41634 0.22575 0.9729 0.0
H425 H 0.58957 0.35499 0.9876 0.0
H426 H 0.47634 0.24752 0.07842 0.0
H427 H 0.42493 0.32836 0.02526 0.0
H428 H 0.52102 0.34411 0.9962 0.0
H429 H 0.46768 0.24565 0.01862 0.0
O430 O 0.45036 0.31995 0.862 0.0
H431 H 0.39629 0.3794 0.9176 0.0
H432 H 0.3953 0.3203 0.82971 0.0
H433 H 0.43347 0.3314 0.08507 0.0
H434 H 0.5403 0.25292 0.92344 0.0
H435 H 0.45933 0.29076 0.11206 0.0
H436 H 0.59952 0.30909 0.95109 0.0
O437 O 0.38383 0.27728 0.97865 0.0
H438 H 0.35678 0.17938 0.84669 0.0
H439 H 0.32656 0.28202 0.88771 0.0
H440 H 0.27175 0.21912 0.86437 0.0
H441 H 0.28673 0.16728 0.84351 0.0
H442 H 0.41049 0.24241 0.87067 0.0
H443 H 0.37404 0.36161 0.7987 0.0
H444 H 0.36348 0.4124 0.82764 0.0
O445 O 0.3772 0.30996 0.93572 0.0
C446 C 0.46823 0.37246 0.95107 0.0
C447 C 0.37929 0.39914 0.87465 0.0
C448 C 0.37898 0.3658 0.82478 0.0
N449 N 0.3974 0.34761 0.87545 0.0
C450 C 0.39154 0.37542 0.89154 0.0
C451 C 0.39127 0.34264 0.84247 0.0
C452 C 0.37301 0.39425 0.84104 0.0
C453 C 0.49792 0.26779 0.94472 0.0
N454 N 0.49271 0.29323 0.96478 0.0
C455 C 0.53635 0.27307 0.93947 0.0
C456 C 0.56957 0.30463 0.95494 0.0
C457 C 0.56401 0.33043 0.97539 0.0
C458 C 0.52514 0.32425 0.98004 0.0
C459 C 0.46507 0.26539 0.06695 0.0
C460 C 0.43638 0.31072 0.03678 0.0
C461 C 0.46 0.26437 0.0331 0.0
N462 N 0.44597 0.287 0.01843 0.0
C463 C 0.44106 0.3125 0.07068 0.0
C464 C 0.45554 0.28967 0.08581 0.0
C465 C 0.36576 0.29275 0.96346 0.0
C466 C 0.34988 0.20178 0.85559 0.0
C467 C 0.33331 0.25958 0.87891 0.0
C468 C 0.30215 0.22403 0.86559 0.0
C469 C 0.31058 0.19499 0.85387 0.0
N470 N 0.37183 0.26614 0.88044 0.0
C471 C 0.38025 0.23768 0.86908 0.0
Co472 Co 0.71371 0.14955 0.97888 0.0
Co473 Co 0.68382 0.10278 0.90403 0.0
O474 O 0.71722 0.15025 0.93115 0.0
C475 C 0.8018 0.18367 0.96881 0.0
O476 O 0.79376 0.15464 0.94797 0.0
C477 C 0.68854 0.17419 0.86861 0.0
O478 O 0.6937 0.19292 0.89646 0.0
O479 O 0.63274 0.09412 0.92571 0.0
O480 O 0.65435 0.11214 0.97723 0.0
H481 H 0.57493 0.95962 0.884 0.0
H482 H 0.75724 0.22962 0.94667 0.0
O483 O 0.77327 0.18643 0.9822 0.0
H484 H 0.64216 0.22655 1.00346 0.0
H485 H 0.74782 0.212 0.09087 0.0
H486 H 0.66993 0.086 0.02879 0.0
H487 H 0.65289 0.16845 1.00646 0.0
H488 H 0.75108 0.21226 0.0307 0.0
O489 O 0.68038 0.13762 0.86831 0.0
H490 H 0.61737 0.01959 0.91744 0.0
H491 H 0.67999 0.08501 0.8326 0.0
H492 H 0.66555 0.08444 0.0889 0.0
H493 H 0.74811 0.28874 0.94358 0.0
H494 H 0.7047 0.14776 0.12037 0.0
H495 H 0.69007 0.28735 0.97195 0.0
O496 O 0.72169 0.10222 0.98156 0.0
H497 H 0.82148 0.18261 0.8527 0.0
H498 H 0.71541 0.04781 0.88845 0.0
H499 H 0.77806 0.05621 0.86413 0.0
H500 H 0.83159 0.12398 0.84591 0.0
H501 H 0.75869 0.17299 0.87753 0.0
H502 H 0.63799 0.0258 0.79823 0.0
H503 H 0.58508 0.96248 0.82392 0.0
O504 O 0.68739 0.06685 0.93754 0.0
C505 C 0.62609 0.0941 0.95644 0.0
C506 C 0.59786 0.98705 0.87251 0.0
C507 C 0.63321 0.02422 0.82437 0.0
N508 N 0.65102 0.0559 0.87704 0.0
C509 C 0.622 0.02114 0.89133 0.0
C510 C 0.65676 0.05773 0.84397 0.0
C511 C 0.60355 0.98868 0.8388 0.0
C512 C 0.73218 0.22895 0.95941 0.0
N513 N 0.70555 0.19551 0.97661 0.0
C514 C 0.72704 0.26244 0.95742 0.0
C515 C 0.69443 0.26161 0.97329 0.0
C516 C 0.66749 0.22748 0.99091 0.0
C517 C 0.67357 0.19454 0.99234 0.0
C518 C 0.7306 0.18421 0.07743 0.0
C519 C 0.68694 0.11373 0.04227 0.0
C520 C 0.73241 0.18416 0.04336 0.0
N521 N 0.7106 0.14921 0.02621 0.0
C522 C 0.68439 0.11263 0.07633 0.0
C523 C 0.70638 0.14817 0.09397 0.0
C524 C 0.705 0.06996 0.96475 0.0
C525 C 0.79826 0.15287 0.86034 0.0
C526 C 0.73853 0.07741 0.88063 0.0
C527 C 0.77395 0.08197 0.86683 0.0
C528 C 0.80396 0.11999 0.8566 0.0
N529 N 0.73298 0.10975 0.884 0.0
C530 C 0.76244 0.14717 0.87423 0.0
Co531 Co 0.44094 0.14927 0.54786 0.0
Co532 Co 0.42053 0.09871 0.62109 0.0
O533 O 0.4344 0.1471 0.59536 0.0
C534 C 0.38293 0.17866 0.55586 0.0
O535 O 0.36156 0.14862 0.57592 0.0
C536 C 0.48435 0.16841 0.66046 0.0
O537 O 0.50461 0.18685 0.63401 0.0
O538 O 0.46678 0.09471 0.60164 0.0
O539 O 0.46569 0.11464 0.55023 0.0
H540 H 0.39177 0.95694 0.6382 0.0
H541 H 0.47136 0.22593 0.58402 0.0
O542 O 0.41578 0.18366 0.5438 0.0
H543 H 0.59116 0.2349 0.53079 0.0
H544 H 0.47547 0.21787 0.43802 0.0
H545 H 0.42829 0.08949 0.49657 0.0
H546 H 0.52388 0.17491 0.52332 0.0
H547 H 0.46756 0.21447 0.49792 0.0
O548 O 0.4541 0.13282 0.65872 0.0
H549 H 0.40928 0.01801 0.60624 0.0
H550 H 0.40093 0.0763 0.69147 0.0
H551 H 0.43611 0.09163 0.43671 0.0
H552 H 0.53799 0.28681 0.59173 0.0
H553 H 0.45984 0.15617 0.40701 0.0
H554 H 0.59851 0.29148 0.56511 0.0
O555 O 0.38688 0.09997 0.54211 0.0
H556 H 0.35171 0.16852 0.67051 0.0
H557 H 0.33319 0.03901 0.63121 0.0
H558 H 0.27471 0.0421 0.65276 0.0
H559 H 0.28378 0.10718 0.67274 0.0
H560 H 0.40922 0.16421 0.64836 0.0
H561 H 0.38359 0.01595 0.7244 0.0
H562 H 0.3788 0.95563 0.69776 0.0
O563 O 0.38538 0.06349 0.58545 0.0
C564 C 0.47598 0.09697 0.57126 0.0
C565 C 0.39389 0.98308 0.65012 0.0
C566 C 0.38936 0.01621 0.69849 0.0
N567 N 0.40661 0.05095 0.64696 0.0
C568 C 0.40388 0.01781 0.63214 0.0
C569 C 0.39946 0.05043 0.67973 0.0
C570 C 0.38662 0.98236 0.68353 0.0
C571 C 0.49749 0.22793 0.57208 0.0
N572 N 0.49371 0.1969 0.55323 0.0
C573 C 0.53517 0.2624 0.57665 0.0
C574 C 0.56912 0.26497 0.56176 0.0
C575 C 0.56503 0.23321 0.54254 0.0
C576 C 0.52687 0.19921 0.53853 0.0
C577 C 0.46512 0.18958 0.45068 0.0
C578 C 0.43878 0.11774 0.48387 0.0
C579 C 0.46047 0.18744 0.48459 0.0
N580 N 0.44759 0.15185 0.50076 0.0
C581 C 0.44308 0.11874 0.44995 0.0
C582 C 0.45636 0.15495 0.4333 0.0
C583 C 0.372 0.06682 0.55782 0.0
C584 C 0.3474 0.13993 0.66203 0.0
C585 C 0.33742 0.06747 0.63975 0.0
C586 C 0.30417 0.06902 0.652 0.0
C587 C 0.30929 0.10553 0.66322 0.0
N588 N 0.37478 0.10129 0.63883 0.0
C589 C 0.37994 0.13725 0.64962 0.0
Co590 Co 0.84498 0.28353 0.54771 0.0
Co591 Co 0.89227 0.31508 0.62252 0.0
O592 O 0.84525 0.2798 0.5954 0.0
C593 C 0.81723 0.19668 0.55753 0.0
O594 O 0.84552 0.20618 0.57958 0.0
C595 C 0.81891 0.30655 0.65753 0.0
O596 O 0.8002 0.301 0.62954 0.0
O597 O 0.8981 0.36503 0.60084 0.0
O598 O 0.87817 0.34311 0.54962 0.0
H599 H 0.03382 0.42805 0.64285 0.0
H600 H 0.76598 0.23427 0.58068 0.0
O601 O 0.81236 0.22381 0.54396 0.0
H602 H 0.75611 0.34283 0.52457 0.0
H603 H 0.7816 0.24644 0.43597 0.0
H604 H 0.90675 0.33167 0.49767 0.0
H605 H 0.81826 0.33879 0.52077 0.0
H606 H 0.78227 0.24265 0.4961 0.0
O607 O 0.85601 0.31613 0.65811 0.0
H608 H 0.9745 0.38372 0.60925 0.0
H609 H 0.91006 0.31991 0.69404 0.0
H610 H 0.90733 0.33667 0.43761 0.0
H611 H 0.70289 0.23664 0.58457 0.0
H612 H 0.84443 0.29382 0.40632 0.0
H613 H 0.69775 0.29136 0.55653 0.0
O614 O 0.89536 0.28062 0.5443 0.0
H615 H 0.8186 0.17754 0.67437 0.0
H616 H 0.95097 0.28782 0.63775 0.0
H617 H 0.94626 0.22685 0.66214 0.0
H618 H 0.87972 0.17121 0.68079 0.0
H619 H 0.82454 0.2387 0.64946 0.0
H620 H 0.9686 0.36375 0.72856 0.0
H621 H 0.03111 0.41825 0.70299 0.0
O622 O 0.92954 0.31401 0.58904 0.0
C623 C 0.89578 0.3714 0.57033 0.0
C624 C 0.00672 0.40449 0.6543 0.0
C625 C 0.97009 0.36844 0.7024 0.0
N626 N 0.93863 0.34949 0.64962 0.0
C627 C 0.97298 0.37931 0.63539 0.0
C628 C 0.93693 0.34385 0.68271 0.0
C629 C 0.00517 0.39898 0.68804 0.0
C630 C 0.76383 0.25792 0.56811 0.0
N631 N 0.79589 0.28649 0.55065 0.0
C632 C 0.72809 0.25922 0.57054 0.0
C633 C 0.72526 0.28998 0.55487 0.0
C634 C 0.75802 0.31891 0.53699 0.0
C635 C 0.79328 0.31665 0.53512 0.0
C636 C 0.80919 0.26529 0.44932 0.0
C637 C 0.87919 0.31305 0.48427 0.0
C638 C 0.80978 0.26321 0.48337 0.0
N639 N 0.84447 0.28702 0.50042 0.0
C640 C 0.87974 0.31596 0.45024 0.0
C641 C 0.84445 0.29189 0.43271 0.0
C642 C 0.92755 0.298 0.56133 0.0
C643 C 0.84781 0.20169 0.66654 0.0
C644 C 0.92188 0.26377 0.64576 0.0
C645 C 0.91942 0.22931 0.6596 0.0
C646 C 0.88209 0.19812 0.67007 0.0
N647 N 0.88817 0.26721 0.64258 0.0
C648 C 0.85142 0.2366 0.65261 0.0
Co649 Co 0.72354 0.56707 0.55006 0.0
Co650 Co 0.68835 0.58573 0.62117 0.0
O651 O 0.725 0.57352 0.59735 0.0
C652 C 0.80864 0.62937 0.56089 0.0
O653 O 0.79557 0.65167 0.57447 0.0
C654 C 0.69595 0.52382 0.66146 0.0
O655 O 0.69487 0.50385 0.63515 0.0
O656 O 0.63993 0.53867 0.6005 0.0
O657 O 0.66343 0.54029 0.54981 0.0
H658 H 0.57106 0.60933 0.6331 0.0
H659 H 0.77028 0.5393 0.5894 0.0
O660 O 0.78389 0.59458 0.54973 0.0
H661 H 0.66523 0.41814 0.53343 0.0
H662 H 0.7688 0.53695 0.44372 0.0
H663 H 0.67749 0.5763 0.49555 0.0
H664 H 0.66993 0.484 0.52495 0.0
H665 H 0.76896 0.54488 0.50352 0.0
O666 O 0.68887 0.55289 0.65947 0.0
H667 H 0.61765 0.59408 0.60326 0.0
H668 H 0.6814 0.60414 0.69099 0.0
H669 H 0.67612 0.56842 0.43574 0.0
H670 H 0.76708 0.47417 0.59815 0.0
H671 H 0.72201 0.54859 0.40942 0.0
H672 H 0.71415 0.41296 0.57015 0.0
O673 O 0.72578 0.6196 0.5428 0.0
H674 H 0.82577 0.65889 0.6735 0.0
H675 H 0.71222 0.67187 0.63103 0.0
H676 H 0.77198 0.73154 0.65349 0.0
H677 H 0.82926 0.72525 0.67506 0.0
H678 H 0.76571 0.60015 0.65048 0.0
H679 H 0.63531 0.61921 0.72182 0.0
H680 H 0.5797 0.62201 0.69285 0.0
O681 O 0.68849 0.62016 0.58477 0.0
C682 C 0.63438 0.52967 0.56999 0.0
C683 C 0.5951 0.60809 0.64603 0.0
C684 C 0.63112 0.61357 0.69582 0.0
N685 N 0.65203 0.59779 0.64535 0.0
C686 C 0.62157 0.5994 0.62926 0.0
C687 C 0.65699 0.60475 0.67824 0.0
C688 C 0.59996 0.61519 0.67955 0.0
C689 C 0.74746 0.51291 0.57682 0.0
N690 N 0.72039 0.51549 0.55663 0.0
C691 C 0.74566 0.47606 0.58201 0.0
C692 C 0.71591 0.44172 0.56635 0.0
C693 C 0.68841 0.44459 0.54578 0.0
C694 C 0.69111 0.48194 0.54119 0.0
C695 C 0.74861 0.54553 0.4549 0.0
C696 C 0.6974 0.56745 0.48433 0.0
C697 C 0.74862 0.55014 0.48874 0.0
N698 N 0.72304 0.56073 0.50304 0.0
C699 C 0.69656 0.56314 0.45042 0.0
C700 C 0.72234 0.55205 0.43567 0.0
C701 C 0.70606 0.63362 0.55742 0.0
C702 C 0.80091 0.66198 0.66434 0.0
C703 C 0.73699 0.66884 0.64033 0.0
C704 C 0.77076 0.70275 0.65306 0.0
C705 C 0.80288 0.69921 0.66516 0.0
N706 N 0.73511 0.63233 0.63982 0.0
C707 C 0.76667 0.62873 0.65142 0.0
H708 H 0.21951 0.39337 0.99914 0.0
H709 H 0.34354 0.28304 0.02876 0.0
H710 H 0.20098 0.32638 0.08856 0.0
H711 H 0.3106 0.30696 0.93387 0.0
H712 H 0.29458 0.29893 0.05376 0.0
H713 H 0.25828 0.36477 0.97753 0.0
C714 C 0.22372 0.37265 0.01436 0.0
C715 C 0.20712 0.36242 0.0458 0.0
C716 C 0.29773 0.29983 0.02744 0.0
C717 C 0.25174 0.32907 0.02087 0.0
C718 C 0.32553 0.29072 0.01315 0.0
C719 C 0.3317 0.29425 0.97914 0.0
C720 C 0.27644 0.31266 1.00746 0.0
C721 C 0.3075 0.3043 0.96013 0.0
C722 C 0.24564 0.35597 1.00183 0.0
C723 C 0.21329 0.33496 0.06415 0.0
N724 N 0.28145 0.31357 0.97455 0.0
N725 N 0.23558 0.3194 0.05152 0.0
H726 H 0.59531 0.82097 1.00115 0.0
H727 H 0.7236 0.05594 0.027 0.0
H728 H 0.68146 0.86855 0.08025 0.0
H729 H 0.67883 0.99859 0.93349 0.0
H730 H 0.70723 0.99017 0.05007 0.0
H731 H 0.62195 0.88836 0.97976 0.0
C732 C 0.61981 0.84566 0.01419 0.0
C733 C 0.63613 0.83903 0.04262 0.0
C734 C 0.70169 0.99241 0.02441 0.0
C735 C 0.66712 0.91691 0.01789 0.0
C736 C 0.71104 0.02984 1.0112 0.0
C737 C 0.70205 0.03279 0.97833 0.0
C738 C 0.68296 0.95798 1.0046 0.0
C739 C 0.68583 0.99794 0.95902 0.0
C740 C 0.63527 0.88424 1.00174 0.0
C741 C 0.66811 0.87242 0.05821 0.0
N742 N 0.67639 0.96208 0.97254 0.0
N743 N 0.68249 0.91019 0.04575 0.0
H744 H 0.15413 0.7405 0.06273 0.0
H745 H 0.97263 0.71317 0.96161 0.0
H746 H 0.13776 0.84287 0.04901 0.0
H747 H 0.95618 0.62243 0.0319 0.0
H748 H 0.03437 0.7618 0.99035 0.0
H749 H 0.08297 0.69578 0.04864 0.0
C750 C 0.13535 0.75346 0.0571 0.0
C751 C 0.15162 0.79529 0.05689 0.0
C752 C 0.01663 0.73149 0.99991 0.0
C753 C 0.07091 0.74463 0.04018 0.0
C754 C 0.98158 0.70385 0.98356 0.0
C755 C 0.95941 0.66399 0.99464 0.0
C756 C 0.03014 0.71859 0.0267 0.0
C757 C 0.97227 0.65306 0.02293 0.0
C758 C 0.09483 0.72801 0.04927 0.0
C759 C 0.12615 0.8107 0.04951 0.0
N760 N 0.0074 0.68001 0.03763 0.0
N761 N 0.08712 0.78535 0.04071 0.0
H762 H 0.67151 0.67374 0.58423 0.0
H763 H 0.68685 0.81424 0.43831 0.0
H764 H 0.72633 0.66497 0.49462 0.0
H765 H 0.58272 0.75169 0.50125 0.0
H766 H 0.71291 0.77166 0.46024 0.0
H767 H 0.65279 0.71797 0.55715 0.0
C768 C 0.68003 0.68131 0.55888 0.0
C769 C 0.70008 0.66495 0.54159 0.0
C770 C 0.68422 0.7673 0.4688 0.0
C771 C 0.67834 0.71598 0.51036 0.0
C772 C 0.66935 0.79146 0.45642 0.0
C773 C 0.63279 0.7869 0.46828 0.0
C774 C 0.66262 0.73925 0.49349 0.0
C775 C 0.61121 0.75677 0.49157 0.0
C776 C 0.66907 0.70652 0.54341 0.0
C777 C 0.71064 0.67667 0.50881 0.0
N778 N 0.62672 0.73457 0.50367 0.0
N779 N 0.69941 0.70147 0.49405 0.0
H780 H 0.1894 0.86509 0.44185 0.0
H781 H 0.33078 0.99326 0.58678 0.0
H782 H 0.24711 0.82232 0.50868 0.0
H783 H 0.34014 0.05352 0.49509 0.0
H784 H 0.28554 0.9294 0.56141 0.0
H785 H 0.23306 0.9339 0.46286 0.0
C786 C 0.21134 0.87016 0.4607 0.0
C787 C 0.21445 0.83788 0.47371 0.0
C788 C 0.29734 0.9566 0.54683 0.0
C789 C 0.26334 0.91563 0.49792 0.0
C790 C 0.32313 0.9933 0.56132 0.0
C791 C 0.33995 0.02906 0.54296 0.0
C792 C 0.28767 0.95519 0.51372 0.0
C793 C 0.32809 0.0267 0.5101 0.0
C794 C 0.23615 0.90929 0.47253 0.0
C795 C 0.24348 0.84611 0.49794 0.0
N796 N 0.30265 0.99017 0.49636 0.0
N797 N 0.26637 0.88401 0.5095 0.0
H798 H 0.94224 0.27903 0.49955 0.0
H799 H 0.17889 0.41083 0.52427 0.0
H800 H 1.00045 0.32953 0.59185 0.0
H801 H 0.13033 0.32268 0.44691 0.0
H802 H 0.11132 0.38564 0.54524 0.0
H803 H 0.00855 0.29688 0.47647 0.0
C804 C 0.96869 0.29331 0.51508 0.0
C805 C 0.9657 0.30317 0.54764 0.0
C806 C 0.11528 0.37161 0.52372 0.0
C807 C 0.04118 0.32401 0.52129 0.0
C808 C 0.15397 0.3862 0.51152 0.0
C809 C 0.16041 0.36879 0.48377 0.0
C810 C 0.08233 0.33954 0.508 0.0
C811 C 0.12668 0.33684 0.46846 0.0
C812 C 0.00643 0.3035 0.50186 0.0
C813 C 1.00105 0.32168 0.56657 0.0
N814 N 0.08886 0.32326 0.48072 0.0
N815 N 0.03718 0.33182 0.55302 0.0
H816 H 0.66201 0.71721 0.99364 0.0
H817 H 0.75262 0.57268 1.0056 0.0
H818 H 0.66693 0.6589 0.08263 0.0
H819 H 0.81384 0.67883 0.94482 0.0
H820 H 0.70831 0.59625 0.02541 0.0
H821 H 0.70845 0.69818 0.96804 0.0
C822 C 0.67304 0.7009 1.00787 0.0
C823 C 0.66009 0.68929 0.04027 0.0
C824 C 0.73136 0.61433 1.00763 0.0
C825 C 0.71191 0.66693 1.01104 0.0
C826 C 0.75658 0.60082 0.99615 0.0
C827 C 0.78736 0.62407 0.97379 0.0
C828 C 0.73645 0.65117 0.99651 0.0
C829 C 0.79073 0.66023 0.96234 0.0
C830 C 0.69936 0.69005 0.99324 0.0
C831 C 0.67541 0.66816 0.05753 0.0
N832 N 0.76552 0.67283 0.9739 0.0
N833 N 0.69997 0.6573 0.0426 0.0
H834 H 0.42584 0.17148 0.99608 0.0
H835 H 0.27172 0.93777 0.99684 0.0
H836 H 0.3125 0.12826 0.94522 0.0
H837 H 0.34214 0.00534 0.0804 0.0
H838 H 0.29077 0.00206 0.96905 0.0
H839 H 0.40216 0.10408 0.0168 0.0
C840 C 0.39601 0.14778 0.98901 0.0
C841 C 0.37079 0.15577 0.96936 0.0
C842 C 0.30157 0.00233 0.99356 0.0
C843 C 0.34363 0.07822 0.99312 0.0
C844 C 0.29076 0.96586 1.00944 0.0
C845 C 0.30568 0.96604 0.04091 0.0
C846 C 0.32796 0.03876 1.00916 0.0
C847 C 0.33021 0.00336 0.05607 0.0
C848 C 0.38252 0.10929 1.00097 0.0
C849 C 0.33269 0.12344 0.96064 0.0
N850 N 0.34089 0.03802 0.03992 0.0
N851 N 0.32001 0.08584 0.97279 0.0
H852 H 1.00071 0.33533 0.09147 0.0
H853 H 0.87336 0.1931 0.94416 0.0
H854 H 0.05925 0.33907 1.0002 0.0
H855 H 0.82573 0.23742 0.01867 0.0
H856 H 0.94179 0.23737 0.96605 0.0
H857 H 0.93618 0.28799 0.06762 0.0
C858 C 1.00018 0.32604 0.06643 0.0
C859 C 0.03567 0.34173 0.04775 0.0
C860 C 0.91617 0.23729 0.97734 0.0
C861 C 0.96109 0.28716 0.02014 0.0
C862 C 0.87723 0.21213 0.96494 0.0
C863 C 0.8437 0.21141 0.97966 0.0
C864 C 0.9212 0.26114 1.00488 0.0
C865 C 0.85046 0.23675 1.00647 0.0
C866 C 0.96311 0.29903 0.05277 0.0
C867 C 0.03267 0.32792 0.01547 0.0
N868 N 0.88826 0.26023 0.01828 0.0
N869 N 0.99588 0.30145 1.00256 0.0
H870 H 0.40955 0.22872 0.50348 0.0
H871 H 0.28176 0.33623 0.52955 0.0
H872 H 0.32179 0.18898 0.58148 0.0
H873 H 0.32765 0.32479 0.43618 0.0
H874 H 0.2982 0.28681 0.55248 0.0
H875 H 0.38425 0.2709 0.48265 0.0
C876 C 0.38498 0.22894 0.5164 0.0
C877 C 0.36775 0.20516 0.54431 0.0
C878 C 0.30403 0.29489 0.5269 0.0
C879 C 0.33836 0.25373 0.52024 0.0
C880 C 0.29465 0.32299 0.51376 0.0
C881 C 0.30379 0.33516 0.48094 0.0
C882 C 0.32301 0.27945 0.50709 0.0
C883 C 0.32047 0.31693 0.46166 0.0
C884 C 0.37031 0.2529 0.50427 0.0
C885 C 0.33581 0.20676 0.5598 0.0
N886 N 0.32992 0.29048 0.47512 0.0
N887 N 0.32218 0.23093 0.54765 0.0
H888 H 0.77774 0.17364 0.49985 0.0
H889 H 0.65889 0.93887 0.52726 0.0
H890 H 0.8021 0.12512 0.58661 0.0
H891 H 0.68829 0.9972 0.43283 0.0
H892 H 0.70752 0.00376 0.55239 0.0
H893 H 0.7387 0.10642 0.47809 0.0
C894 C 0.77476 0.14875 0.51448 0.0
C895 C 0.79316 0.15508 0.5452 0.0
C896 C 0.70367 0.00183 0.52612 0.0
C897 C 0.74824 0.07728 0.52003 0.0
C898 C 0.67605 0.96491 0.51175 0.0
C899 C 0.66898 0.96264 0.47788 0.0
C900 C 0.72383 0.03631 0.50636 0.0
C901 C 0.69211 0.99733 0.459 0.0
C902 C 0.75266 0.11024 0.50184 0.0
C903 C 0.7884 0.12144 0.56278 0.0
N904 N 0.71798 0.03263 0.47352 0.0
N905 N 0.76599 0.08368 0.55003 0.0
H906 H 0.03263 0.74203 0.46244 0.0
H907 H 0.84863 0.58756 0.56166 0.0
H908 H 0.04604 0.66435 0.53118 0.0
H909 H 0.86707 0.70721 0.54888 0.0
H910 H 0.91968 0.61311 0.5478 0.0
H911 H 0.97085 0.72933 0.49095 0.0
C912 C 0.02299 0.72309 0.48402 0.0
C913 C 0.04433 0.70439 0.49477 0.0
C914 C 0.9083 0.63386 0.54858 0.0
C915 C 0.97359 0.68875 0.52653 0.0
C916 C 0.86784 0.61931 0.55628 0.0
C917 C 0.85218 0.64539 0.55626 0.0
C918 C 0.9328 0.67445 0.53982 0.0
C919 C 0.87819 0.68626 0.54921 0.0
C920 C 0.98793 0.71592 0.50024 0.0
C921 C 0.03061 0.67972 0.52253 0.0
N922 N 0.91718 0.69947 0.54055 0.0
N923 N 0.9955 0.67185 0.53711 0.0
H924 H 0.26009 0.51538 0.36177 0.0
H925 H 0.2641 0.51445 0.16633 0.0
H926 H 0.33465 0.48108 0.30748 0.0
H927 H 0.15642 0.48504 0.22101 0.0
H928 H 0.29944 0.5201 0.21785 0.0
H929 H 0.23131 0.52216 0.31017 0.0
C930 C 0.2711 0.51013 0.339 0.0
C931 C 0.29996 0.49768 0.33902 0.0
C932 C 0.26824 0.51294 0.21853 0.0
C933 C 0.2671 0.50557 0.27985 0.0
C934 C 0.2481 0.51005 0.18916 0.0
C935 C 0.20717 0.49931 0.18929 0.0
C936 C 0.24763 0.5059 0.24836 0.0
C937 C 0.18793 0.49338 0.21971 0.0
C938 C 0.25436 0.51368 0.30959 0.0
C939 C 0.31253 0.49074 0.30867 0.0
N940 N 0.20831 0.49682 0.24798 0.0
N941 N 0.29611 0.49484 0.28035 0.0
H942 H 0.56981 0.71685 0.21042 0.0
H943 H 0.45155 0.76134 0.3415 0.0
H944 H 0.45181 0.69216 0.17886 0.0
H945 H 0.56771 0.85469 0.30662 0.0
H946 H 0.4455 0.72151 0.2922 0.0
H947 H 0.56431 0.75162 0.25803 0.0
C948 C 0.54232 0.71798 0.21368 0.0
C949 C 0.51123 0.70151 0.1903 0.0
C950 C 0.47187 0.75103 0.29539 0.0
C951 C 0.50486 0.74121 0.24546 0.0
C952 C 0.47541 0.77375 0.3234 0.0
C953 C 0.5102 0.81155 0.32837 0.0
C954 C 0.50385 0.76583 0.27288 0.0
C955 C 0.54026 0.82593 0.30408 0.0
C956 C 0.53942 0.7381 0.24087 0.0
C957 C 0.47655 0.70448 0.19615 0.0
N958 N 0.53672 0.8028 0.27786 0.0
N959 N 0.47418 0.72397 0.22327 0.0
H960 H 0.29838 0.75529 0.18027 0.0
H961 H 0.13351 0.7177 0.31121 0.0
H962 H 0.27624 0.84958 0.21238 0.0
H963 H 0.21764 0.67801 0.3364 0.0
H964 H 0.17489 0.7528 0.26388 0.0
H965 H 0.26038 0.7148 0.22827 0.0
C966 C 0.28602 0.76768 0.19746 0.0
C967 C 0.29065 0.80602 0.19215 0.0
C968 C 0.18402 0.736 0.27959 0.0
C969 C 0.24629 0.75945 0.24612 0.0
C970 C 0.16028 0.71565 0.30658 0.0
C971 C 0.17208 0.69485 0.32814 0.0
C972 C 0.2195 0.73501 0.27334 0.0
C973 C 0.20739 0.69369 0.32055 0.0
C974 C 0.26439 0.74456 0.22474 0.0
C975 C 0.27371 0.82036 0.21526 0.0
N976 N 0.2299 0.71347 0.29368 0.0
N977 N 0.25182 0.79689 0.24077 0.0
H978 H 0.7893 0.46243 0.83646 0.0
H979 H 0.72477 0.57592 0.71287 0.0
H980 H 0.86798 0.58748 0.8114 0.0
H981 H 0.70995 0.46232 0.68035 0.0
H982 H 0.76311 0.57412 0.75967 0.0
H983 H 0.7477 0.45549 0.78801 0.0
C984 C 0.79816 0.48821 0.82068 0.0
C985 C 0.83233 0.52561 0.82815 0.0
C986 C 0.75107 0.54937 0.74246 0.0
C987 C 0.78426 0.51807 0.77367 0.0
C988 C 0.72885 0.55013 0.71576 0.0
C989 C 0.71405 0.51924 0.69233 0.0
C990 C 0.758 0.51709 0.74653 0.0
C991 C 0.72082 0.48682 0.6977 0.0
C992 C 0.7744 0.48418 0.79314 0.0
C993 C 0.84211 0.55803 0.80682 0.0
N994 N 0.74225 0.48648 0.72434 0.0
N995 N 0.81789 0.55366 0.78103 0.0
H996 H 0.54946 0.31242 0.84175 0.0
H997 H 0.43226 0.14729 0.7118 0.0
H998 H 0.43186 0.28615 0.80776 0.0
H999 H 0.54944 0.24178 0.6798 0.0
H1000 H 0.4372 0.18751 0.75928 0.0
H1001 H 0.55585 0.27851 0.79267 0.0
C1002 C 0.52533 0.30017 0.8239 0.0
C1003 C 0.49007 0.30228 0.82904 0.0
C1004 C 0.46205 0.19916 0.74206 0.0
C1005 C 0.49683 0.26275 0.7738 0.0
C1006 C 0.45947 0.17616 0.71495 0.0
C1007 C 0.49048 0.1911 0.69147 0.0
C1008 C 0.49622 0.23717 0.74648 0.0
C1009 C 0.52479 0.22909 0.69717 0.0
C1010 C 0.52906 0.28091 0.796 0.0
C1011 C 0.45968 0.28556 0.80506 0.0
N1012 N 0.52684 0.25093 0.72422 0.0
N1013 N 0.46345 0.26594 0.77896 0.0
H1014 H 0.74073 0.25508 0.86057 0.0
H1015 H 0.73845 0.2515 0.66514 0.0
H1016 H 0.66711 0.14644 0.80575 0.0
H1017 H 0.8458 0.32896 0.72046 0.0
H1018 H 0.70257 0.22162 0.71645 0.0
H1019 H 0.76974 0.29107 0.80916 0.0
C1020 C 0.72995 0.23896 0.83772 0.0
C1021 C 0.70132 0.1976 0.83754 0.0
C1022 C 0.73382 0.24555 0.7173 0.0
C1023 C 0.73443 0.23881 0.77859 0.0
C1024 C 0.75426 0.2629 0.68807 0.0
C1025 C 0.79526 0.29291 0.68844 0.0
C1026 C 0.75419 0.25882 0.74725 0.0
C1027 C 0.81425 0.30595 0.71898 0.0
C1028 C 0.74682 0.25949 0.80842 0.0
C1029 C 0.68905 0.17827 0.80709 0.0
N1030 N 0.79358 0.28892 0.74711 0.0
N1031 N 0.7056 0.19901 0.77888 0.0
H1032 H 0.12141 0.51873 0.01204 0.0
H1033 H 0.90054 0.49141 1.00566 0.0
H1034 H 0.04079 0.4802 0.09483 0.0
H1035 H 0.98878 0.5506 0.92924 0.0
H1036 H 0.95007 0.48305 0.0368 0.0
H1037 H 0.0738 0.53055 0.98142 0.0
C1038 C 0.09404 0.51347 0.02414 0.0
C1039 C 0.08507 0.49782 0.05615 0.0
C1040 C 0.95861 0.49771 0.01317 0.0
C1041 C 0.02947 0.51038 0.02043 0.0
C1042 C 0.93015 0.50217 0.99506 0.0
C1043 C 0.94041 0.52227 0.9647 0.0
C1044 C 0.99786 0.51308 1.00094 0.0
C1045 C 0.97932 0.53511 0.95245 0.0
C1046 C 0.06661 0.51991 1.00638 0.0
C1047 C 0.04901 0.49181 0.07025 0.0
N1048 N 0.00665 0.53054 0.97069 0.0
N1049 N 0.02228 0.4975 0.05215 0.0
H1050 H 0.48621 0.59664 1.01128 0.0
H1051 H 0.50489 0.39851 1.0104 0.0
H1052 H 0.52357 0.5553 0.09529 0.0
H1053 H 0.46426 0.43809 0.92728 0.0
H1054 H 0.51368 0.45653 0.04105 0.0
H1055 H 0.47542 0.53757 0.98119 0.0
C1056 C 0.49149 0.57479 0.02374 0.0
C1057 C 0.50666 0.58166 0.0559 0.0
C1058 C 0.50308 0.45276 0.01606 0.0
C1059 C 0.49503 0.51376 0.02085 0.0
C1060 C 0.4984 0.41973 0.99827 0.0
C1061 C 0.48327 0.41284 0.9661 0.0
C1062 C 0.49266 0.47953 1.00178 0.0
C1063 C 0.47572 0.44179 0.95195 0.0
C1064 C 0.48567 0.54114 1.00627 0.0
C1065 C 0.51247 0.55182 0.07053 0.0
N1066 N 0.48012 0.47361 0.96998 0.0
N1067 N 0.50719 0.51948 0.05275 0.0
H1068 H 0.44002 0.95504 0.09881 0.0
H1069 H 0.55846 0.03048 0.92758 0.0
H1070 H 0.39275 0.89275 1.00753 0.0
H1071 H 0.60031 0.09562 0.01836 0.0
H1072 H 0.4976 0.97939 0.95598 0.0
H1073 H 0.50095 0.00463 0.06999 0.0
C1074 C 0.44256 0.95133 0.07288 0.0
C1075 C 0.41058 0.91987 0.05566 0.0
C1076 C 0.52007 0.00507 0.96958 0.0
C1077 C 0.4804 0.97704 0.02223 0.0
C1078 C 0.5547 0.03451 0.95324 0.0
C1079 C 0.58503 0.06744 0.97049 0.0
C1080 C 0.51566 0.00855 1.0034 0.0
C1081 C 0.57815 0.07075 1.00389 0.0
C1082 C 0.47731 0.97994 0.0563 0.0
C1083 C 0.41617 0.9167 0.02195 0.0
N1084 N 0.54459 0.04169 0.01917 0.0
N1085 N 0.45004 0.94501 1.00638 0.0
H1086 H 0.53259 0.97045 0.42548 0.0
H1087 H 0.47784 0.03138 0.59806 0.0
H1088 H 0.4998 0.89559 0.51174 0.0
H1089 H 0.51128 0.10589 0.5116 0.0
H1090 H 0.48838 0.98236 0.56769 0.0
H1091 H 0.52341 0.01984 0.45645 0.0
C1092 C 0.52282 0.96398 0.45067 0.0
C1093 C 0.51752 0.92887 0.46596 0.0
C1094 C 0.4937 0.00966 0.55549 0.0
C1095 C 0.50763 0.98576 0.50189 0.0
C1096 C 0.48806 0.03789 0.57298 0.0
C1097 C 0.49287 0.07262 0.55735 0.0
C1098 C 0.50447 0.01633 0.52219 0.0
C1099 C 0.5066 0.07939 0.52473 0.0
C1100 C 0.518 0.99244 0.46852 0.0
C1101 C 0.50471 0.92232 0.49883 0.0
N1102 N 0.51143 0.05143 0.50824 0.0
N1103 N 0.50058 0.95053 0.51567 0.0
H1104 H 0.88384 0.39786 0.51167 0.0
H1105 H 0.10423 0.59274 0.50764 0.0
H1106 H 0.96377 0.4385 0.59491 0.0
H1107 H 0.01792 0.5613 0.42932 0.0
H1108 H 0.05467 0.53445 0.53844 0.0
H1109 H 0.93202 0.45736 0.4815 0.0
C1110 C 0.91119 0.41966 0.52397 0.0
C1111 C 0.91973 0.41258 0.55599 0.0
C1112 C 0.04657 0.54012 0.51447 0.0
C1113 C 0.97603 0.48092 0.52077 0.0
C1114 C 0.07506 0.57331 0.49657 0.0
C1115 C 0.06532 0.58258 0.46575 0.0
C1116 C 0.00782 0.51548 0.50158 0.0
C1117 C 0.02697 0.55575 0.45291 0.0
C1118 C 0.93897 0.45359 0.50646 0.0
C1119 C 0.95583 0.44226 0.57032 0.0
N1120 N 0.9996 0.52368 0.47095 0.0
N1121 N 0.98287 0.4748 0.55248 0.0
H1122 H 0.40465 0.50523 0.51797 0.0
H1123 H 0.61056 0.49987 0.50814 0.0
H1124 H 0.4444 0.47334 0.43016 0.0
H1125 H 0.56472 0.52281 0.59692 0.0
H1126 H 0.55017 0.48915 0.47941 0.0
H1127 H 0.4648 0.51491 0.54598 0.0
C1128 C 0.42632 0.50084 0.50426 0.0
C1129 C 0.41885 0.48794 0.4715 0.0
C1130 C 0.55313 0.49625 0.50521 0.0
C1131 C 0.48825 0.49839 0.50419 0.0
C1132 C 0.58757 0.5021 0.52186 0.0
C1133 C 0.5934 0.51304 0.55512 0.0
C1134 C 0.52394 0.50134 0.52175 0.0
C1135 C 0.56207 0.51498 0.57132 0.0
C1136 C 0.46064 0.50602 0.52055 0.0
C1137 C 0.44851 0.48305 0.45535 0.0
N1138 N 0.52902 0.50971 0.55441 0.0
N1139 N 0.48168 0.48792 0.47193 0.0
loop_
_geom_bond_atom_site_label_1
_geom_bond_atom_site_label_2
_geom_bond_distance
_geom_bond_site_symmetry_2
_ccdc_geom_bond_type
Co0 O2 2.143 . S
Co0 O8 2.074 . S
Co0 O11 2.093 . S
Co0 O24 2.097 . S
Co0 N41 2.151 . S
Co0 N49 2.214 1_554 S
Co1 O2 2.160 . S
Co1 O7 2.058 . S
Co1 O17 2.057 . S
Co1 O32 2.037 . S
Co1 N36 2.145 . S
Co1 N57 2.257 . S
O2 Co0 2.143 . S
O2 Co1 2.160 . S
C3 O4 1.278 . S
C3 O11 1.224 . S
O4 C3 1.278 . S
C5 O6 1.245 . S
C5 O17 1.232 . S
O6 C5 1.245 . S
O7 Co1 2.058 . S
O7 C33 1.269 . S
O8 Co0 2.074 . S
O8 C33 1.257 . S
H9 C34 0.930 . S
H10 C40 0.930 . S
O11 Co0 2.093 . S
O11 C3 1.224 . S
H12 C44 0.929 1_556 S
H13 C46 0.930 . S
H14 C47 0.930 . S
H15 C45 0.929 1_556 S
H16 C48 0.928 . S
O17 Co1 2.057 . S
O17 C5 1.232 . S
H18 C37 0.929 . S
H19 C38 0.929 . S
H20 C50 0.931 . S
H21 C42 0.929 . S
H22 C51 0.930 . S
H23 C43 0.931 . S
O24 Co0 2.097 . S
O24 C52 1.214 . S
H25 C53 0.929 . S
H26 C54 0.929 . S
H27 C55 0.930 . S
H28 C56 0.929 . S
H29 C58 0.930 . S
H30 C35 0.930 . S
H31 C39 0.930 . S
O32 Co1 2.037 . S
O32 C52 1.234 . S
C33 O7 1.269 . S
C33 O8 1.257 . S
C34 H9 0.930 . S
C34 C37 1.388 . S
C34 C39 1.418 . S
C35 H30 0.930 . S
C35 C38 1.404 . S
C35 C39 1.353 1_455 S
N36 Co1 2.145 . S
N36 C37 1.397 1_455 S
N36 C38 1.334 . S
C37 H18 0.929 . S
C37 C34 1.388 . S
C37 N36 1.397 1_655 S
C38 H19 0.929 . S
C38 C35 1.404 . S
C38 N36 1.334 . S
C39 H31 0.930 . S
C39 C34 1.418 . S
C39 C35 1.353 1_655 S
C40 H10 0.930 . S
C40 N41 1.330 . S
C40 C42 1.446 . S
N41 Co0 2.151 . S
N41 C40 1.330 . S
N41 C45 1.418 . S
C42 H21 0.929 . S
C42 C40 1.446 . S
C42 C43 1.332 . S
C43 H23 0.931 . S
C43 C42 1.332 . S
C43 C44 1.267 . S
C44 H12 0.929 1_554 S
C44 C43 1.267 . S
C44 C45 1.251 . S
C45 H15 0.929 1_554 S
C45 N41 1.418 . S
C45 C44 1.251 . S
C46 H13 0.930 . S
C46 C48 1.406 . S
C46 C51 1.261 . S
C47 H14 0.930 . S
C47 N49 1.325 . S
C47 C50 1.357 . S
C48 H16 0.928 . S
C48 C46 1.406 . S
C48 N49 1.261 . S
N49 Co0 2.214 1_556 S
N49 C47 1.325 . S
N49 C48 1.261 . S
C50 H20 0.931 . S
C50 C47 1.357 . S
C50 C51 1.312 . S
C51 H22 0.930 . S
C51 C46 1.261 . S
C51 C50 1.312 . S
C52 O24 1.214 . S
C52 O32 1.234 . S
C53 H25 0.929 . S
C53 C56 1.391 . S
C53 C58 1.391 . S
C54 H26 0.929 . S
C54 C55 1.390 . S
C54 N57 1.391 . S
C55 H27 0.930 . S
C55 C54 1.390 . S
C55 C56 1.392 . S
C56 H28 0.929 . S
C56 C53 1.391 . S
C56 C55 1.392 . S
N57 Co1 2.257 . S
N57 C54 1.391 . S
N57 C58 1.388 . S
C58 H29 0.930 . S
C58 C53 1.391 . S
C58 N57 1.388 . S
Co59 O61 2.143 . S
Co59 O67 2.074 . S
Co59 O70 2.093 . S
Co59 O83 2.097 . S
Co59 N100 2.151 . S
Co59 N108 2.214 1_554 S
Co60 O61 2.160 . S
Co60 O66 2.058 . S
Co60 O76 2.057 . S
Co60 O91 2.037 . S
Co60 N95 2.145 . S
Co60 N116 2.257 . S
O61 Co59 2.143 . S
O61 Co60 2.160 . S
C62 O63 1.278 . S
C62 O70 1.224 . S
O63 C62 1.278 . S
C64 O65 1.245 . S
C64 O76 1.232 . S
O65 C64 1.245 . S
O66 Co60 2.058 . S
O66 C92 1.269 . S
O67 Co59 2.074 . S
O67 C92 1.257 . S
H68 C93 0.930 . S
H69 C99 0.930 . S
O70 Co59 2.093 . S
O70 C62 1.224 . S
H71 C103 0.929 1_556 S
H72 C105 0.930 . S
H73 C106 0.930 . S
H74 C104 0.929 1_556 S
H75 C107 0.928 . S
O76 Co60 2.057 . S
O76 C64 1.232 . S
H77 C96 0.929 . S
H78 C97 0.929 . S
H79 C109 0.931 . S
H80 C101 0.929 . S
H81 C110 0.930 . S
H82 C102 0.931 . S
O83 Co59 2.097 . S
O83 C111 1.214 . S
H84 C112 0.929 . S
H85 C113 0.929 . S
H86 C114 0.930 . S
H87 C115 0.929 . S
H88 C117 0.930 . S
H89 C94 0.930 . S
H90 C98 0.930 . S
O91 Co60 2.037 . S
O91 C111 1.234 . S
C92 O66 1.269 . S
C92 O67 1.257 . S
C93 H68 0.930 . S
C93 C96 1.388 . S
C93 C98 1.418 . S
C94 H89 0.930 . S
C94 C97 1.404 . S
C94 C98 1.353 . S
N95 Co60 2.145 . S
N95 C96 1.397 . S
N95 C97 1.334 . S
C96 H77 0.929 . S
C96 C93 1.388 . S
C96 N95 1.397 . S
C97 H78 0.929 . S
C97 C94 1.404 . S
C97 N95 1.334 . S
C98 H90 0.930 . S
C98 C93 1.418 . S
C98 C94 1.353 . S
C99 H69 0.930 . S
C99 N100 1.330 . S
C99 C101 1.446 . S
N100 Co59 2.151 . S
N100 C99 1.330 . S
N100 C104 1.418 . S
C101 H80 0.929 . S
C101 C99 1.446 . S
C101 C102 1.332 . S
C102 H82 0.931 . S
C102 C101 1.332 . S
C102 C103 1.267 . S
C103 H71 0.929 1_554 S
C103 C102 1.267 . S
C103 C104 1.251 . S
C104 H74 0.929 1_554 S
C104 N100 1.418 . S
C104 C103 1.251 . S
C105 H72 0.930 . S
C105 C107 1.406 . S
C105 C110 1.261 . S
C106 H73 0.930 . S
C106 N108 1.325 . S
C106 C109 1.357 . S
C107 H75 0.928 . S
C107 C105 1.406 . S
C107 N108 1.261 . S
N108 Co59 2.214 1_556 S
N108 C106 1.325 . S
N108 C107 1.261 . S
C109 H79 0.931 . S
C109 C106 1.357 . S
C109 C110 1.312 . S
C110 H81 0.930 . S
C110 C105 1.261 . S
C110 C109 1.312 . S
C111 O83 1.214 . S
C111 O91 1.234 . S
C112 H84 0.929 . S
C112 C115 1.391 . S
C112 C117 1.391 . S
C113 H85 0.929 . S
C113 C114 1.390 . S
C113 N116 1.391 . S
C114 H86 0.930 . S
C114 C113 1.390 . S
C114 C115 1.392 . S
C115 H87 0.929 . S
C115 C112 1.391 . S
C115 C114 1.392 . S
N116 Co60 2.257 . S
N116 C113 1.391 . S
N116 C117 1.388 . S
C117 H88 0.930 . S
C117 C112 1.391 . S
C117 N116 1.388 . S
Co118 O120 2.143 . S
Co118 O126 2.074 . S
Co118 O129 2.093 . S
Co118 O142 2.097 . S
Co118 N159 2.151 . S
Co118 N167 2.214 1_554 S
Co119 O120 2.160 . S
Co119 O125 2.058 . S
Co119 O135 2.057 . S
Co119 O150 2.037 . S
Co119 N154 2.145 . S
Co119 N175 2.257 . S
O120 Co118 2.143 . S
O120 Co119 2.160 . S
C121 O122 1.278 . S
C121 O129 1.224 . S
O122 C121 1.278 . S
C123 O124 1.245 . S
C123 O135 1.232 . S
O124 C123 1.245 . S
O125 Co119 2.058 . S
O125 C151 1.269 . S
O126 Co118 2.074 . S
O126 C151 1.257 . S
H127 C152 0.930 . S
H128 C158 0.930 . S
O129 Co118 2.093 . S
O129 C121 1.224 . S
H130 C162 0.929 1_556 S
H131 C164 0.930 . S
H132 C165 0.930 . S
H133 C163 0.929 1_556 S
H134 C166 0.928 . S
O135 Co119 2.057 . S
O135 C123 1.232 . S
H136 C155 0.929 . S
H137 C156 0.929 . S
H138 C168 0.931 . S
H139 C160 0.929 . S
H140 C169 0.930 . S
H141 C161 0.931 . S
O142 Co118 2.097 . S
O142 C170 1.214 . S
H143 C171 0.929 . S
H144 C172 0.929 . S
H145 C173 0.930 . S
H146 C174 0.929 . S
H147 C176 0.930 . S
H148 C153 0.930 . S
H149 C157 0.930 . S
O150 Co119 2.037 . S
O150 C170 1.234 . S
C151 O125 1.269 . S
C151 O126 1.257 . S
C152 H127 0.930 . S
C152 C155 1.388 . S
C152 C157 1.418 . S
C153 H148 0.930 . S
C153 C156 1.404 . S
C153 C157 1.353 1_565 S
N154 Co119 2.145 . S
N154 C155 1.397 1_565 S
N154 C156 1.334 . S
C155 H136 0.929 . S
C155 C152 1.388 . S
C155 N154 1.397 1_545 S
C156 H137 0.929 . S
C156 C153 1.404 . S
C156 N154 1.334 . S
C157 H149 0.930 . S
C157 C152 1.418 . S
C157 C153 1.353 1_545 S
C158 H128 0.930 . S
C158 N159 1.330 . S
C158 C160 1.446 . S
N159 Co118 2.151 . S
N159 C158 1.330 . S
N159 C163 1.418 . S
C160 H139 0.929 . S
C160 C158 1.446 . S
C160 C161 1.332 . S
C161 H141 0.931 . S
C161 C160 1.332 . S
C161 C162 1.267 . S
C162 H130 0.929 1_554 S
C162 C161 1.267 . S
C162 C163 1.251 . S
C163 H133 0.929 1_554 S
C163 N159 1.418 . S
C163 C162 1.251 . S
C164 H131 0.930 . S
C164 C166 1.406 . S
C164 C169 1.261 . S
C165 H132 0.930 . S
C165 N167 1.325 . S
C165 C168 1.357 . S
C166 H134 0.928 . S
C166 C164 1.406 . S
C166 N167 1.261 . S
N167 Co118 2.214 1_556 S
N167 C165 1.325 . S
N167 C166 1.261 . S
C168 H138 0.931 . S
C168 C165 1.357 . S
C168 C169 1.312 . S
C169 H140 0.930 . S
C169 C164 1.261 . S
C169 C168 1.312 . S
C170 O142 1.214 . S
C170 O150 1.234 . S
C171 H143 0.929 . S
C171 C174 1.391 . S
C171 C176 1.391 . S
C172 H144 0.929 . S
C172 C173 1.390 . S
C172 N175 1.391 . S
C173 H145 0.930 . S
C173 C172 1.390 . S
C173 C174 1.392 . S
C174 H146 0.929 . S
C174 C171 1.391 . S
C174 C173 1.392 . S
N175 Co119 2.257 . S
N175 C172 1.391 . S
N175 C176 1.388 . S
C176 H147 0.930 . S
C176 C171 1.391 . S
C176 N175 1.388 . S
Co177 O179 2.143 . S
Co177 O185 2.074 . S
Co177 O188 2.093 . S
Co177 O201 2.097 . S
Co177 N218 2.151 . S
Co177 N226 2.214 . S
Co178 O179 2.160 . S
Co178 O184 2.058 . S
Co178 O194 2.057 . S
Co178 O209 2.037 . S
Co178 N213 2.145 . S
Co178 N234 2.257 . S
O179 Co177 2.143 . S
O179 Co178 2.160 . S
C180 O181 1.278 . S
C180 O188 1.224 . S
O181 C180 1.278 . S
C182 O183 1.245 . S
C182 O194 1.232 . S
O183 C182 1.245 . S
O184 Co178 2.058 . S
O184 C210 1.269 . S
O185 Co177 2.074 . S
O185 C210 1.257 . S
H186 C211 0.930 . S
H187 C217 0.930 . S
O188 Co177 2.093 . S
O188 C180 1.224 . S
H189 C221 0.929 . S
H190 C223 0.930 . S
H191 C224 0.930 . S
H192 C222 0.929 . S
H193 C225 0.928 . S
O194 Co178 2.057 . S
O194 C182 1.232 . S
H195 C214 0.929 . S
H196 C215 0.929 . S
H197 C227 0.931 . S
H198 C219 0.929 . S
H199 C228 0.930 . S
H200 C220 0.931 . S
O201 Co177 2.097 . S
O201 C229 1.214 . S
H202 C230 0.929 . S
H203 C231 0.929 . S
H204 C232 0.930 . S
H205 C233 0.929 . S
H206 C235 0.930 . S
H207 C212 0.930 . S
H208 C216 0.930 . S
O209 Co178 2.037 . S
O209 C229 1.234 . S
C210 O184 1.269 . S
C210 O185 1.257 . S
C211 H186 0.930 . S
C211 C214 1.388 . S
C211 C216 1.418 . S
C212 H207 0.930 . S
C212 C215 1.404 . S
C212 C216 1.353 1_565 S
N213 Co178 2.145 . S
N213 C214 1.397 1_565 S
N213 C215 1.334 . S
C214 H195 0.929 . S
C214 C211 1.388 . S
C214 N213 1.397 1_545 S
C215 H196 0.929 . S
C215 C212 1.404 . S
C215 N213 1.334 . S
C216 H208 0.930 . S
C216 C211 1.418 . S
C216 C212 1.353 1_545 S
C217 H187 0.930 . S
C217 N218 1.330 . S
C217 C219 1.446 . S
N218 Co177 2.151 . S
N218 C217 1.330 . S
N218 C222 1.418 . S
C219 H198 0.929 . S
C219 C217 1.446 . S
C219 C220 1.332 . S
C220 H200 0.931 . S
C220 C219 1.332 . S
C220 C221 1.267 . S
C221 H189 0.929 . S
C221 C220 1.267 . S
C221 C222 1.251 . S
C222 H192 0.929 . S
C222 N218 1.418 . S
C222 C221 1.251 . S
C223 H190 0.930 . S
C223 C225 1.406 . S
C223 C228 1.261 . S
C224 H191 0.930 . S
C224 N226 1.325 . S
C224 C227 1.357 . S
C225 H193 0.928 . S
C225 C223 1.406 . S
C225 N226 1.261 . S
N226 Co177 2.214 . S
N226 C224 1.325 . S
N226 C225 1.261 . S
C227 H197 0.931 . S
C227 C224 1.357 . S
C227 C228 1.312 . S
C228 H199 0.930 . S
C228 C223 1.261 . S
C228 C227 1.312 . S
C229 O201 1.214 . S
C229 O209 1.234 . S
C230 H202 0.929 . S
C230 C233 1.391 . S
C230 C235 1.391 . S
C231 H203 0.929 . S
C231 C232 1.390 . S
C231 N234 1.391 . S
C232 H204 0.930 . S
C232 C231 1.390 . S
C232 C233 1.392 . S
C233 H205 0.929 . S
C233 C230 1.391 . S
C233 C232 1.392 . S
N234 Co178 2.257 . S
N234 C231 1.391 . S
N234 C235 1.388 . S
C235 H206 0.930 . S
C235 C230 1.391 . S
C235 N234 1.388 . S
Co236 O238 2.143 . S
Co236 O244 2.074 . S
Co236 O247 2.093 . S
Co236 O260 2.097 . S
Co236 N277 2.151 . S
Co236 N285 2.214 . S
Co237 O238 2.160 . S
Co237 O243 2.058 . S
Co237 O253 2.057 . S
Co237 O268 2.037 . S
Co237 N272 2.145 . S
Co237 N293 2.257 . S
O238 Co236 2.143 . S
O238 Co237 2.160 . S
C239 O240 1.278 . S
C239 O247 1.224 . S
O240 C239 1.278 . S
C241 O242 1.245 . S
C241 O253 1.232 . S
O242 C241 1.245 . S
O243 Co237 2.058 . S
O243 C269 1.269 . S
O244 Co236 2.074 . S
O244 C269 1.257 . S
H245 C270 0.930 . S
H246 C276 0.930 . S
O247 Co236 2.093 . S
O247 C239 1.224 . S
H248 C280 0.929 . S
H249 C282 0.930 . S
H250 C283 0.930 . S
H251 C281 0.929 . S
H252 C284 0.928 . S
O253 Co237 2.057 . S
O253 C241 1.232 . S
H254 C273 0.929 . S
H255 C274 0.929 . S
H256 C286 0.931 . S
H257 C278 0.929 . S
H258 C287 0.930 . S
H259 C279 0.931 . S
O260 Co236 2.097 . S
O260 C288 1.214 . S
H261 C289 0.929 . S
H262 C290 0.929 . S
H263 C291 0.930 . S
H264 C292 0.929 . S
H265 C294 0.930 . S
H266 C271 0.930 . S
H267 C275 0.930 . S
O268 Co237 2.037 . S
O268 C288 1.234 . S
C269 O243 1.269 . S
C269 O244 1.257 . S
C270 H245 0.930 . S
C270 C273 1.388 . S
C270 C275 1.418 . S
C271 H266 0.930 . S
C271 C274 1.404 . S
C271 C275 1.353 1_455 S
N272 Co237 2.145 . S
N272 C273 1.397 1_455 S
N272 C274 1.334 . S
C273 H254 0.929 . S
C273 C270 1.388 . S
C273 N272 1.397 1_655 S
C274 H255 0.929 . S
C274 C271 1.404 . S
C274 N272 1.334 . S
C275 H267 0.930 . S
C275 C270 1.418 . S
C275 C271 1.353 1_655 S
C276 H246 0.930 . S
C276 N277 1.330 . S
C276 C278 1.446 . S
N277 Co236 2.151 . S
N277 C276 1.330 . S
N277 C281 1.418 . S
C278 H257 0.929 . S
C278 C276 1.446 . S
C278 C279 1.332 . S
C279 H259 0.931 . S
C279 C278 1.332 . S
C279 C280 1.267 . S
C280 H248 0.929 . S
C280 C279 1.267 . S
C280 C281 1.251 . S
C281 H251 0.929 . S
C281 N277 1.418 . S
C281 C280 1.251 . S
C282 H249 0.930 . S
C282 C284 1.406 . S
C282 C287 1.261 . S
C283 H250 0.930 . S
C283 N285 1.325 . S
C283 C286 1.357 . S
C284 H252 0.928 . S
C284 C282 1.406 . S
C284 N285 1.261 . S
N285 Co236 2.214 . S
N285 C283 1.325 . S
N285 C284 1.261 . S
C286 H256 0.931 . S
C286 C283 1.357 . S
C286 C287 1.312 . S
C287 H258 0.930 . S
C287 C282 1.261 . S
C287 C286 1.312 . S
C288 O260 1.214 . S
C288 O268 1.234 . S
C289 H261 0.929 . S
C289 C292 1.391 . S
C289 C294 1.391 . S
C290 H262 0.929 . S
C290 C291 1.390 . S
C290 N293 1.391 . S
C291 H263 0.930 . S
C291 C290 1.390 . S
C291 C292 1.392 . S
C292 H264 0.929 . S
C292 C289 1.391 . S
C292 C291 1.392 . S
N293 Co237 2.257 . S
N293 C290 1.391 . S
N293 C294 1.388 . S
C294 H265 0.930 . S
C294 C289 1.391 . S
C294 N293 1.388 . S
Co295 O297 2.143 . S
Co295 O303 2.074 . S
Co295 O306 2.093 . S
Co295 O319 2.097 . S
Co295 N336 2.151 . S
Co295 N344 2.214 . S
Co296 O297 2.160 . S
Co296 O302 2.058 . S
Co296 O312 2.057 . S
Co296 O327 2.037 . S
Co296 N331 2.145 . S
Co296 N352 2.257 . S
O297 Co295 2.143 . S
O297 Co296 2.160 . S
C298 O299 1.278 . S
C298 O306 1.224 . S
O299 C298 1.278 . S
C300 O301 1.245 . S
C300 O312 1.232 . S
O301 C300 1.245 . S
O302 Co296 2.058 . S
O302 C328 1.269 . S
O303 Co295 2.074 . S
O303 C328 1.257 . S
H304 C329 0.930 . S
H305 C335 0.930 . S
O306 Co295 2.093 . S
O306 C298 1.224 . S
H307 C339 0.929 . S
H308 C341 0.930 . S
H309 C342 0.930 . S
H310 C340 0.929 . S
H311 C343 0.928 . S
O312 Co296 2.057 . S
O312 C300 1.232 . S
H313 C332 0.929 . S
H314 C333 0.929 . S
H315 C345 0.931 . S
H316 C337 0.929 . S
H317 C346 0.930 . S
H318 C338 0.931 . S
O319 Co295 2.097 . S
O319 C347 1.214 . S
H320 C348 0.929 . S
H321 C349 0.929 . S
H322 C350 0.930 . S
H323 C351 0.929 . S
H324 C353 0.930 . S
H325 C330 0.930 . S
H326 C334 0.930 . S
O327 Co296 2.037 . S
O327 C347 1.234 . S
C328 O302 1.269 . S
C328 O303 1.257 . S
C329 H304 0.930 . S
C329 C332 1.388 . S
C329 C334 1.418 . S
C330 H325 0.930 . S
C330 C333 1.404 . S
C330 C334 1.353 . S
N331 Co296 2.145 . S
N331 C332 1.397 . S
N331 C333 1.334 . S
C332 H313 0.929 . S
C332 C329 1.388 . S
C332 N331 1.397 . S
C333 H314 0.929 . S
C333 C330 1.404 . S
C333 N331 1.334 . S
C334 H326 0.930 . S
C334 C329 1.418 . S
C334 C330 1.353 . S
C335 H305 0.930 . S
C335 N336 1.330 . S
C335 C337 1.446 . S
N336 Co295 2.151 . S
N336 C335 1.330 . S
N336 C340 1.418 . S
C337 H316 0.929 . S
C337 C335 1.446 . S
C337 C338 1.332 . S
C338 H318 0.931 . S
C338 C337 1.332 . S
C338 C339 1.267 . S
C339 H307 0.929 . S
C339 C338 1.267 . S
C339 C340 1.251 . S
C340 H310 0.929 . S
C340 N336 1.418 . S
C340 C339 1.251 . S
C341 H308 0.930 . S
C341 C343 1.406 . S
C341 C346 1.261 . S
C342 H309 0.930 . S
C342 N344 1.325 . S
C342 C345 1.357 . S
C343 H311 0.928 . S
C343 C341 1.406 . S
C343 N344 1.261 . S
N344 Co295 2.214 . S
N344 C342 1.325 . S
N344 C343 1.261 . S
C345 H315 0.931 . S
C345 C342 1.357 . S
C345 C346 1.312 . S
C346 H317 0.930 . S
C346 C341 1.261 . S
C346 C345 1.312 . S
C347 O319 1.214 . S
C347 O327 1.234 . S
C348 H320 0.929 . S
C348 C351 1.391 . S
C348 C353 1.391 . S
C349 H321 0.929 . S
C349 C350 1.390 . S
C349 N352 1.391 . S
C350 H322 0.930 . S
C350 C349 1.390 . S
C350 C351 1.392 . S
C351 H323 0.929 . S
C351 C348 1.391 . S
C351 C350 1.392 . S
N352 Co296 2.257 . S
N352 C349 1.391 . S
N352 C353 1.388 . S
C353 H324 0.930 . S
C353 C348 1.391 . S
C353 N352 1.388 . S
Co354 O356 2.143 . S
Co354 O362 2.074 . S
Co354 O365 2.093 . S
Co354 O378 2.097 . S
Co354 N395 2.151 . S
Co354 N403 2.214 1_556 S
Co355 O356 2.160 . S
Co355 O361 2.058 . S
Co355 O371 2.057 . S
Co355 O386 2.037 . S
Co355 N390 2.145 . S
Co355 N411 2.257 . S
O356 Co354 2.143 . S
O356 Co355 2.160 . S
C357 O358 1.278 . S
C357 O365 1.224 . S
O358 C357 1.278 . S
C359 O360 1.245 . S
C359 O371 1.232 . S
O360 C359 1.245 . S
O361 Co355 2.058 . S
O361 C387 1.269 . S
O362 Co354 2.074 . S
O362 C387 1.257 . S
H363 C388 0.930 . S
H364 C394 0.930 . S
O365 Co354 2.093 . S
O365 C357 1.224 . S
H366 C398 0.929 1_554 S
H367 C400 0.930 . S
H368 C401 0.930 . S
H369 C399 0.929 1_554 S
H370 C402 0.928 . S
O371 Co355 2.057 . S
O371 C359 1.232 . S
H372 C391 0.929 . S
H373 C392 0.929 . S
H374 C404 0.931 . S
H375 C396 0.929 . S
H376 C405 0.930 . S
H377 C397 0.931 . S
O378 Co354 2.097 . S
O378 C406 1.214 . S
H379 C407 0.929 . S
H380 C408 0.929 . S
H381 C409 0.930 . S
H382 C410 0.929 . S
H383 C412 0.930 . S
H384 C389 0.930 . S
H385 C393 0.930 . S
O386 Co355 2.037 . S
O386 C406 1.234 . S
C387 O361 1.269 . S
C387 O362 1.257 . S
C388 H363 0.930 . S
C388 C391 1.388 . S
C388 C393 1.418 . S
C389 H384 0.930 . S
C389 C392 1.404 . S
C389 C393 1.353 1_655 S
N390 Co355 2.145 . S
N390 C391 1.397 1_655 S
N390 C392 1.334 . S
C391 H372 0.929 . S
C391 C388 1.388 . S
C391 N390 1.397 1_455 S
C392 H373 0.929 . S
C392 C389 1.404 . S
C392 N390 1.334 . S
C393 H385 0.930 . S
C393 C388 1.418 . S
C393 C389 1.353 1_455 S
C394 H364 0.930 . S
C394 N395 1.330 . S
C394 C396 1.446 . S
N395 Co354 2.151 . S
N395 C394 1.330 . S
N395 C399 1.418 . S
C396 H375 0.929 . S
C396 C394 1.446 . S
C396 C397 1.332 . S
C397 H377 0.931 . S
C397 C396 1.332 . S
C397 C398 1.267 . S
C398 H366 0.929 1_556 S
C398 C397 1.267 . S
C398 C399 1.251 . S
C399 H369 0.929 1_556 S
C399 N395 1.418 . S
C399 C398 1.251 . S
C400 H367 0.930 . S
C400 C402 1.406 . S
C400 C405 1.261 . S
C401 H368 0.930 . S
C401 N403 1.325 . S
C401 C404 1.357 . S
C402 H370 0.928 . S
C402 C400 1.406 . S
C402 N403 1.261 . S
N403 Co354 2.214 1_554 S
N403 C401 1.325 . S
N403 C402 1.261 . S
C404 H374 0.931 . S
C404 C401 1.357 . S
C404 C405 1.312 . S
C405 H376 0.930 . S
C405 C400 1.261 . S
C405 C404 1.312 . S
C406 O378 1.214 . S
C406 O386 1.234 . S
C407 H379 0.929 . S
C407 C410 1.391 . S
C407 C412 1.391 . S
C408 H380 0.929 . S
C408 C409 1.390 . S
C408 N411 1.391 . S
C409 H381 0.930 . S
C409 C408 1.390 . S
C409 C410 1.392 . S
C410 H382 0.929 . S
C410 C407 1.391 . S
C410 C409 1.392 . S
N411 Co355 2.257 . S
N411 C408 1.391 . S
N411 C412 1.388 . S
C412 H383 0.930 . S
C412 C407 1.391 . S
C412 N411 1.388 . S
Co413 O415 2.143 . S
Co413 O421 2.074 . S
Co413 O424 2.093 . S
Co413 O437 2.097 . S
Co413 N454 2.151 . S
Co413 N462 2.214 1_556 S
Co414 O415 2.160 . S
Co414 O420 2.058 . S
Co414 O430 2.057 . S
Co414 O445 2.037 . S
Co414 N449 2.145 . S
Co414 N470 2.257 . S
O415 Co413 2.143 . S
O415 Co414 2.160 . S
C416 O417 1.278 . S
C416 O424 1.224 . S
O417 C416 1.278 . S
C418 O419 1.245 . S
C418 O430 1.232 . S
O419 C418 1.245 . S
O420 Co414 2.058 . S
O420 C446 1.269 . S
O421 Co413 2.074 . S
O421 C446 1.257 . S
H422 C447 0.930 . S
H423 C453 0.930 . S
O424 Co413 2.093 . S
O424 C416 1.224 . S
H425 C457 0.929 1_554 S
H426 C459 0.930 . S
H427 C460 0.930 . S
H428 C458 0.929 1_554 S
H429 C461 0.928 . S
O430 Co414 2.057 . S
O430 C418 1.232 . S
H431 C450 0.929 . S
H432 C451 0.929 . S
H433 C463 0.931 . S
H434 C455 0.929 . S
H435 C464 0.930 . S
H436 C456 0.931 . S
O437 Co413 2.097 . S
O437 C465 1.214 . S
H438 C466 0.929 . S
H439 C467 0.929 . S
H440 C468 0.930 . S
H441 C469 0.929 . S
H442 C471 0.930 . S
H443 C448 0.930 . S
H444 C452 0.930 . S
O445 Co414 2.037 . S
O445 C465 1.234 . S
C446 O420 1.269 . S
C446 O421 1.257 . S
C447 H422 0.930 . S
C447 C450 1.388 . S
C447 C452 1.418 . S
C448 H443 0.930 . S
C448 C451 1.404 . S
C448 C452 1.353 . S
N449 Co414 2.145 . S
N449 C450 1.397 . S
N449 C451 1.334 . S
C450 H431 0.929 . S
C450 C447 1.388 . S
C450 N449 1.397 . S
C451 H432 0.929 . S
C451 C448 1.404 . S
C451 N449 1.334 . S
C452 H444 0.930 . S
C452 C447 1.418 . S
C452 C448 1.353 . S
C453 H423 0.930 . S
C453 N454 1.330 . S
C453 C455 1.446 . S
N454 Co413 2.151 . S
N454 C453 1.330 . S
N454 C458 1.418 . S
C455 H434 0.929 . S
C455 C453 1.446 . S
C455 C456 1.332 . S
C456 H436 0.931 . S
C456 C455 1.332 . S
C456 C457 1.267 . S
C457 H425 0.929 1_556 S
C457 C456 1.267 . S
C457 C458 1.251 . S
C458 H428 0.929 1_556 S
C458 N454 1.418 . S
C458 C457 1.251 . S
C459 H426 0.930 . S
C459 C461 1.406 . S
C459 C464 1.261 . S
C460 H427 0.930 . S
C460 N462 1.325 . S
C460 C463 1.357 . S
C461 H429 0.928 . S
C461 C459 1.406 . S
C461 N462 1.261 . S
N462 Co413 2.214 1_554 S
N462 C460 1.325 . S
N462 C461 1.261 . S
C463 H433 0.931 . S
C463 C460 1.357 . S
C463 C464 1.312 . S
C464 H435 0.930 . S
C464 C459 1.261 . S
C464 C463 1.312 . S
C465 O437 1.214 . S
C465 O445 1.234 . S
C466 H438 0.929 . S
C466 C469 1.391 . S
C466 C471 1.391 . S
C467 H439 0.929 . S
C467 C468 1.390 . S
C467 N470 1.391 . S
C468 H440 0.930 . S
C468 C467 1.390 . S
C468 C469 1.392 . S
C469 H441 0.929 . S
C469 C466 1.391 . S
C469 C468 1.392 . S
N470 Co414 2.257 . S
N470 C467 1.391 . S
N470 C471 1.388 . S
C471 H442 0.930 . S
C471 C466 1.391 . S
C471 N470 1.388 . S
Co472 O474 2.143 . S
Co472 O480 2.074 . S
Co472 O483 2.093 . S
Co472 O496 2.097 . S
Co472 N513 2.151 . S
Co472 N521 2.214 1_556 S
Co473 O474 2.160 . S
Co473 O479 2.058 . S
Co473 O489 2.057 . S
Co473 O504 2.037 . S
Co473 N508 2.145 . S
Co473 N529 2.257 . S
O474 Co472 2.143 . S
O474 Co473 2.160 . S
C475 O476 1.278 . S
C475 O483 1.224 . S
O476 C475 1.278 . S
C477 O478 1.245 . S
C477 O489 1.232 . S
O478 C477 1.245 . S
O479 Co473 2.058 . S
O479 C505 1.269 . S
O480 Co472 2.074 . S
O480 C505 1.257 . S
H481 C506 0.930 . S
H482 C512 0.930 . S
O483 Co472 2.093 . S
O483 C475 1.224 . S
H484 C516 0.929 1_554 S
H485 C518 0.930 . S
H486 C519 0.930 . S
H487 C517 0.929 1_554 S
H488 C520 0.928 . S
O489 Co473 2.057 . S
O489 C477 1.232 . S
H490 C509 0.929 . S
H491 C510 0.929 . S
H492 C522 0.931 . S
H493 C514 0.929 . S
H494 C523 0.930 . S
H495 C515 0.931 . S
O496 Co472 2.097 . S
O496 C524 1.214 . S
H497 C525 0.929 . S
H498 C526 0.929 . S
H499 C527 0.930 . S
H500 C528 0.929 . S
H501 C530 0.930 . S
H502 C507 0.930 . S
H503 C511 0.930 . S
O504 Co473 2.037 . S
O504 C524 1.234 . S
C505 O479 1.269 . S
C505 O480 1.257 . S
C506 H481 0.930 . S
C506 C509 1.388 . S
C506 C511 1.418 . S
C507 H502 0.930 . S
C507 C510 1.404 . S
C507 C511 1.353 1_545 S
N508 Co473 2.145 . S
N508 C509 1.397 1_545 S
N508 C510 1.334 . S
C509 H490 0.929 . S
C509 C506 1.388 . S
C509 N508 1.397 1_565 S
C510 H491 0.929 . S
C510 C507 1.404 . S
C510 N508 1.334 . S
C511 H503 0.930 . S
C511 C506 1.418 . S
C511 C507 1.353 1_565 S
C512 H482 0.930 . S
C512 N513 1.330 . S
C512 C514 1.446 . S
N513 Co472 2.151 . S
N513 C512 1.330 . S
N513 C517 1.418 . S
C514 H493 0.929 . S
C514 C512 1.446 . S
C514 C515 1.332 . S
C515 H495 0.931 . S
C515 C514 1.332 . S
C515 C516 1.267 . S
C516 H484 0.929 1_556 S
C516 C515 1.267 . S
C516 C517 1.251 . S
C517 H487 0.929 1_556 S
C517 N513 1.418 . S
C517 C516 1.251 . S
C518 H485 0.930 . S
C518 C520 1.406 . S
C518 C523 1.261 . S
C519 H486 0.930 . S
C519 N521 1.325 . S
C519 C522 1.357 . S
C520 H488 0.928 . S
C520 C518 1.406 . S
C520 N521 1.261 . S
N521 Co472 2.214 1_554 S
N521 C519 1.325 . S
N521 C520 1.261 . S
C522 H492 0.931 . S
C522 C519 1.357 . S
C522 C523 1.312 . S
C523 H494 0.930 . S
C523 C518 1.261 . S
C523 C522 1.312 . S
C524 O496 1.214 . S
C524 O504 1.234 . S
C525 H497 0.929 . S
C525 C528 1.391 . S
C525 C530 1.391 . S
C526 H498 0.929 . S
C526 C527 1.390 . S
C526 N529 1.391 . S
C527 H499 0.930 . S
C527 C526 1.390 . S
C527 C528 1.392 . S
C528 H500 0.929 . S
C528 C525 1.391 . S
C528 C527 1.392 . S
N529 Co473 2.257 . S
N529 C526 1.391 . S
N529 C530 1.388 . S
C530 H501 0.930 . S
C530 C525 1.391 . S
C530 N529 1.388 . S
Co531 O533 2.143 . S
Co531 O539 2.074 . S
Co531 O542 2.093 . S
Co531 O555 2.097 . S
Co531 N572 2.151 . S
Co531 N580 2.214 . S
Co532 O533 2.160 . S
Co532 O538 2.058 . S
Co532 O548 2.057 . S
Co532 O563 2.037 . S
Co532 N567 2.145 . S
Co532 N588 2.257 . S
O533 Co531 2.143 . S
O533 Co532 2.160 . S
C534 O535 1.278 . S
C534 O542 1.224 . S
O535 C534 1.278 . S
C536 O537 1.245 . S
C536 O548 1.232 . S
O537 C536 1.245 . S
O538 Co532 2.058 . S
O538 C564 1.269 . S
O539 Co531 2.074 . S
O539 C564 1.257 . S
H540 C565 0.930 . S
H541 C571 0.930 . S
O542 Co531 2.093 . S
O542 C534 1.224 . S
H543 C575 0.929 . S
H544 C577 0.930 . S
H545 C578 0.930 . S
H546 C576 0.929 . S
H547 C579 0.928 . S
O548 Co532 2.057 . S
O548 C536 1.232 . S
H549 C568 0.929 . S
H550 C569 0.929 . S
H551 C581 0.931 . S
H552 C573 0.929 . S
H553 C582 0.930 . S
H554 C574 0.931 . S
O555 Co531 2.097 . S
O555 C583 1.214 . S
H556 C584 0.929 . S
H557 C585 0.929 . S
H558 C586 0.930 . S
H559 C587 0.929 . S
H560 C589 0.930 . S
H561 C566 0.930 . S
H562 C570 0.930 . S
O563 Co532 2.037 . S
O563 C583 1.234 . S
C564 O538 1.269 . S
C564 O539 1.257 . S
C565 H540 0.930 . S
C565 C568 1.388 . S
C565 C570 1.418 . S
C566 H561 0.930 . S
C566 C569 1.404 . S
C566 C570 1.353 1_545 S
N567 Co532 2.145 . S
N567 C568 1.397 1_545 S
N567 C569 1.334 . S
C568 H549 0.929 . S
C568 C565 1.388 . S
C568 N567 1.397 1_565 S
C569 H550 0.929 . S
C569 C566 1.404 . S
C569 N567 1.334 . S
C570 H562 0.930 . S
C570 C565 1.418 . S
C570 C566 1.353 1_565 S
C571 H541 0.930 . S
C571 N572 1.330 . S
C571 C573 1.446 . S
N572 Co531 2.151 . S
N572 C571 1.330 . S
N572 C576 1.418 . S
C573 H552 0.929 . S
C573 C571 1.446 . S
C573 C574 1.332 . S
C574 H554 0.931 . S
C574 C573 1.332 . S
C574 C575 1.267 . S
C575 H543 0.929 . S
C575 C574 1.267 . S
C575 C576 1.251 . S
C576 H546 0.929 . S
C576 N572 1.418 . S
C576 C575 1.251 . S
C577 H544 0.930 . S
C577 C579 1.406 . S
C577 C582 1.261 . S
C578 H545 0.930 . S
C578 N580 1.325 . S
C578 C581 1.357 . S
C579 H547 0.928 . S
C579 C577 1.406 . S
C579 N580 1.261 . S
N580 Co531 2.214 . S
N580 C578 1.325 . S
N580 C579 1.261 . S
C581 H551 0.931 . S
C581 C578 1.357 . S
C581 C582 1.312 . S
C582 H553 0.930 . S
C582 C577 1.261 . S
C582 C581 1.312 . S
C583 O555 1.214 . S
C583 O563 1.234 . S
C584 H556 0.929 . S
C584 C587 1.391 . S
C584 C589 1.391 . S
C585 H557 0.929 . S
C585 C586 1.390 . S
C585 N588 1.391 . S
C586 H558 0.930 . S
C586 C585 1.390 . S
C586 C587 1.392 . S
C587 H559 0.929 . S
C587 C584 1.391 . S
C587 C586 1.392 . S
N588 Co532 2.257 . S
N588 C585 1.391 . S
N588 C589 1.388 . S
C589 H560 0.930 . S
C589 C584 1.391 . S
C589 N588 1.388 . S
Co590 O592 2.143 . S
Co590 O598 2.074 . S
Co590 O601 2.093 . S
Co590 O614 2.097 . S
Co590 N631 2.151 . S
Co590 N639 2.214 . S
Co591 O592 2.160 . S
Co591 O597 2.058 . S
Co591 O607 2.057 . S
Co591 O622 2.037 . S
Co591 N626 2.145 . S
Co591 N647 2.257 . S
O592 Co590 2.143 . S
O592 Co591 2.160 . S
C593 O594 1.278 . S
C593 O601 1.224 . S
O594 C593 1.278 . S
C595 O596 1.245 . S
C595 O607 1.232 . S
O596 C595 1.245 . S
O597 Co591 2.058 . S
O597 C623 1.269 . S
O598 Co590 2.074 . S
O598 C623 1.257 . S
H599 C624 0.930 . S
H600 C630 0.930 . S
O601 Co590 2.093 . S
O601 C593 1.224 . S
H602 C634 0.929 . S
H603 C636 0.930 . S
H604 C637 0.930 . S
H605 C635 0.929 . S
H606 C638 0.928 . S
O607 Co591 2.057 . S
O607 C595 1.232 . S
H608 C627 0.929 . S
H609 C628 0.929 . S
H610 C640 0.931 . S
H611 C632 0.929 . S
H612 C641 0.930 . S
H613 C633 0.931 . S
O614 Co590 2.097 . S
O614 C642 1.214 . S
H615 C643 0.929 . S
H616 C644 0.929 . S
H617 C645 0.930 . S
H618 C646 0.929 . S
H619 C648 0.930 . S
H620 C625 0.930 . S
H621 C629 0.930 . S
O622 Co591 2.037 . S
O622 C642 1.234 . S
C623 O597 1.269 . S
C623 O598 1.257 . S
C624 H599 0.930 . S
C624 C627 1.388 . S
C624 C629 1.418 . S
C625 H620 0.930 . S
C625 C628 1.404 . S
C625 C629 1.353 1_655 S
N626 Co591 2.145 . S
N626 C627 1.397 1_655 S
N626 C628 1.334 . S
C627 H608 0.929 . S
C627 C624 1.388 . S
C627 N626 1.397 1_455 S
C628 H609 0.929 . S
C628 C625 1.404 . S
C628 N626 1.334 . S
C629 H621 0.930 . S
C629 C624 1.418 . S
C629 C625 1.353 1_455 S
C630 H600 0.930 . S
C630 N631 1.330 . S
C630 C632 1.446 . S
N631 Co590 2.151 . S
N631 C630 1.330 . S
N631 C635 1.418 . S
C632 H611 0.929 . S
C632 C630 1.446 . S
C632 C633 1.332 . S
C633 H613 0.931 . S
C633 C632 1.332 . S
C633 C634 1.267 . S
C634 H602 0.929 . S
C634 C633 1.267 . S
C634 C635 1.251 . S
C635 H605 0.929 . S
C635 N631 1.418 . S
C635 C634 1.251 . S
C636 H603 0.930 . S
C636 C638 1.406 . S
C636 C641 1.261 . S
C637 H604 0.930 . S
C637 N639 1.325 . S
C637 C640 1.357 . S
C638 H606 0.928 . S
C638 C636 1.406 . S
C638 N639 1.261 . S
N639 Co590 2.214 . S
N639 C637 1.325 . S
N639 C638 1.261 . S
C640 H610 0.931 . S
C640 C637 1.357 . S
C640 C641 1.312 . S
C641 H612 0.930 . S
C641 C636 1.261 . S
C641 C640 1.312 . S
C642 O614 1.214 . S
C642 O622 1.234 . S
C643 H615 0.929 . S
C643 C646 1.391 . S
C643 C648 1.391 . S
C644 H616 0.929 . S
C644 C645 1.390 . S
C644 N647 1.391 . S
C645 H617 0.930 . S
C645 C644 1.390 . S
C645 C646 1.392 . S
C646 H618 0.929 . S
C646 C643 1.391 . S
C646 C645 1.392 . S
N647 Co591 2.257 . S
N647 C644 1.391 . S
N647 C648 1.388 . S
C648 H619 0.930 . S
C648 C643 1.391 . S
C648 N647 1.388 . S
Co649 O651 2.143 . S
Co649 O657 2.074 . S
Co649 O660 2.093 . S
Co649 O673 2.097 . S
Co649 N690 2.151 . S
Co649 N698 2.214 . S
Co650 O651 2.160 . S
Co650 O656 2.058 . S
Co650 O666 2.057 . S
Co650 O681 2.037 . S
Co650 N685 2.145 . S
Co650 N706 2.257 . S
O651 Co649 2.143 . S
O651 Co650 2.160 . S
C652 O653 1.278 . S
C652 O660 1.224 . S
O653 C652 1.278 . S
C654 O655 1.245 . S
C654 O666 1.232 . S
O655 C654 1.245 . S
O656 Co650 2.058 . S
O656 C682 1.269 . S
O657 Co649 2.074 . S
O657 C682 1.257 . S
H658 C683 0.930 . S
H659 C689 0.930 . S
O660 Co649 2.093 . S
O660 C652 1.224 . S
H661 C693 0.929 . S
H662 C695 0.930 . S
H663 C696 0.930 . S
H664 C694 0.929 . S
H665 C697 0.928 . S
O666 Co650 2.057 . S
O666 C654 1.232 . S
H667 C686 0.929 . S
H668 C687 0.929 . S
H669 C699 0.931 . S
H670 C691 0.929 . S
H671 C700 0.930 . S
H672 C692 0.931 . S
O673 Co649 2.097 . S
O673 C701 1.214 . S
H674 C702 0.929 . S
H675 C703 0.929 . S
H676 C704 0.930 . S
H677 C705 0.929 . S
H678 C707 0.930 . S
H679 C684 0.930 . S
H680 C688 0.930 . S
O681 Co650 2.037 . S
O681 C701 1.234 . S
C682 O656 1.269 . S
C682 O657 1.257 . S
C683 H658 0.930 . S
C683 C686 1.388 . S
C683 C688 1.418 . S
C684 H679 0.930 . S
C684 C687 1.404 . S
C684 C688 1.353 . S
N685 Co650 2.145 . S
N685 C686 1.397 . S
N685 C687 1.334 . S
C686 H667 0.929 . S
C686 C683 1.388 . S
C686 N685 1.397 . S
C687 H668 0.929 . S
C687 C684 1.404 . S
C687 N685 1.334 . S
C688 H680 0.930 . S
C688 C683 1.418 . S
C688 C684 1.353 . S
C689 H659 0.930 . S
C689 N690 1.330 . S
C689 C691 1.446 . S
N690 Co649 2.151 . S
N690 C689 1.330 . S
N690 C694 1.418 . S
C691 H670 0.929 . S
C691 C689 1.446 . S
C691 C692 1.332 . S
C692 H672 0.931 . S
C692 C691 1.332 . S
C692 C693 1.267 . S
C693 H661 0.929 . S
C693 C692 1.267 . S
C693 C694 1.251 . S
C694 H664 0.929 . S
C694 N690 1.418 . S
C694 C693 1.251 . S
C695 H662 0.930 . S
C695 C697 1.406 . S
C695 C700 1.261 . S
C696 H663 0.930 . S
C696 N698 1.325 . S
C696 C699 1.357 . S
C697 H665 0.928 . S
C697 C695 1.406 . S
C697 N698 1.261 . S
N698 Co649 2.214 . S
N698 C696 1.325 . S
N698 C697 1.261 . S
C699 H669 0.931 . S
C699 C696 1.357 . S
C699 C700 1.312 . S
C700 H671 0.930 . S
C700 C695 1.261 . S
C700 C699 1.312 . S
C701 O673 1.214 . S
C701 O681 1.234 . S
C702 H674 0.929 . S
C702 C705 1.391 . S
C702 C707 1.391 . S
C703 H675 0.929 . S
C703 C704 1.390 . S
C703 N706 1.391 . S
C704 H676 0.930 . S
C704 C703 1.390 . S
C704 C705 1.392 . S
C705 H677 0.929 . S
C705 C702 1.391 . S
C705 C704 1.392 . S
N706 Co650 2.257 . S
N706 C703 1.391 . S
N706 C707 1.388 . S
C707 H678 0.930 . S
C707 C702 1.391 . S
C707 N706 1.388 . S
H708 C714 0.930 . S
H709 C718 0.930 . S
H710 C723 0.929 . S
H711 C721 0.929 . S
H712 C716 0.929 . S
H713 C722 0.929 . S
C714 H708 0.930 . S
C714 C715 1.367 1_556 S
C714 C722 1.378 . S
C715 C714 1.367 1_554 S
C715 C723 1.433 . S
C716 H712 0.929 . S
C716 C718 1.378 . S
C716 C720 1.350 1_554 S
C717 C720 1.463 1_554 S
C717 C722 1.350 1_554 S
C717 N725 1.427 . S
C718 H709 0.930 . S
C718 C716 1.378 . S
C718 C719 1.367 1_554 S
C719 C718 1.367 1_556 S
C719 C721 1.433 . S
C720 C716 1.350 1_556 S
C720 C717 1.463 1_556 S
C720 N724 1.427 . S
C721 H711 0.929 . S
C721 C719 1.433 . S
C721 N724 1.384 . S
C722 H713 0.929 . S
C722 C714 1.378 . S
C722 C717 1.350 1_556 S
C723 H710 0.929 . S
C723 C715 1.433 . S
C723 N725 1.384 . S
N724 C720 1.427 . S
N724 C721 1.384 . S
N725 C717 1.427 . S
N725 C723 1.384 . S
H726 C732 0.930 . S
H727 C736 0.930 . S
H728 C741 0.929 . S
H729 C739 0.929 . S
H730 C734 0.929 . S
H731 C740 0.929 . S
C732 H726 0.930 . S
C732 C733 1.367 1_556 S
C732 C740 1.378 . S
C733 C732 1.367 1_554 S
C733 C741 1.433 . S
C734 H730 0.929 . S
C734 C736 1.378 1_565 S
C734 C738 1.350 1_554 S
C735 C738 1.463 1_554 S
C735 C740 1.350 1_554 S
C735 N743 1.427 . S
C736 H727 0.930 . S
C736 C734 1.378 1_545 S
C736 C737 1.367 1_554 S
C737 C736 1.367 1_556 S
C737 C739 1.433 . S
C738 C734 1.350 1_556 S
C738 C735 1.463 1_556 S
C738 N742 1.427 . S
C739 H729 0.929 . S
C739 C737 1.433 . S
C739 N742 1.384 1_545 S
C740 H731 0.929 . S
C740 C732 1.378 . S
C740 C735 1.350 1_556 S
C741 H728 0.929 . S
C741 C733 1.433 . S
C741 N743 1.384 . S
N742 C738 1.427 . S
N742 C739 1.384 1_565 S
N743 C735 1.427 . S
N743 C741 1.384 . S
H744 C750 0.930 . S
H745 C754 0.930 . S
H746 C759 0.929 . S
H747 C757 0.929 . S
H748 C752 0.929 . S
H749 C758 0.929 . S
C750 H744 0.930 . S
C750 C751 1.367 . S
C750 C758 1.378 . S
C751 C750 1.367 . S
C751 C759 1.433 1_554 S
C752 H748 0.929 . S
C752 C754 1.378 1_455 S
C752 C756 1.350 . S
C753 C756 1.463 1_554 S
C753 C758 1.350 . S
C753 N761 1.427 1_554 S
C754 H745 0.930 . S
C754 C752 1.378 1_655 S
C754 C755 1.367 . S
C755 C754 1.367 . S
C755 C757 1.433 1_556 S
C756 C752 1.350 . S
C756 C753 1.463 1_556 S
C756 N760 1.427 1_556 S
C757 H747 0.929 . S
C757 C755 1.433 1_554 S
C757 N760 1.384 1_655 S
C758 H749 0.929 . S
C758 C750 1.378 . S
C758 C753 1.350 . S
C759 H746 0.929 . S
C759 C751 1.433 1_556 S
C759 N761 1.384 . S
N760 C756 1.427 1_554 S
N760 C757 1.384 1_455 S
N761 C753 1.427 1_556 S
N761 C759 1.384 . S
H762 C768 0.930 . S
H763 C772 0.930 . S
H764 C777 0.929 . S
H765 C775 0.929 . S
H766 C770 0.929 . S
H767 C776 0.929 . S
C768 H762 0.930 . S
C768 C769 1.367 . S
C768 C776 1.378 . S
C769 C768 1.367 . S
C769 C777 1.433 . S
C770 H766 0.929 . S
C770 C772 1.378 . S
C770 C774 1.350 . S
C771 C774 1.463 . S
C771 C776 1.350 . S
C771 N779 1.427 . S
C772 H763 0.930 . S
C772 C770 1.378 . S
C772 C773 1.367 . S
C773 C772 1.367 . S
C773 C775 1.433 . S
C774 C770 1.350 . S
C774 C771 1.463 . S
C774 N778 1.427 . S
C775 H765 0.929 . S
C775 C773 1.433 . S
C775 N778 1.384 . S
C776 H767 0.929 . S
C776 C768 1.378 . S
C776 C771 1.350 . S
C777 H764 0.929 . S
C777 C769 1.433 . S
C777 N779 1.384 . S
N778 C774 1.427 . S
N778 C775 1.384 . S
N779 C771 1.427 . S
N779 C777 1.384 . S
H780 C786 0.930 . S
H781 C790 0.932 . S
H782 C795 0.929 . S
H783 C793 0.929 . S
H784 C788 0.929 . S
H785 C794 0.929 . S
C786 H780 0.930 . S
C786 C787 1.367 . S
C786 C794 1.378 . S
C787 C786 1.367 . S
C787 C795 1.433 . S
C788 H784 0.929 . S
C788 C790 1.374 1_565 S
C788 C792 1.350 . S
C789 C792 1.463 . S
C789 C794 1.350 . S
C789 N797 1.427 . S
C790 H781 0.932 . S
C790 C788 1.374 1_545 S
C790 C791 1.369 . S
C791 C790 1.369 . S
C791 C793 1.433 . S
C792 C788 1.350 . S
C792 C789 1.463 . S
C792 N796 1.427 . S
C793 H783 0.929 . S
C793 C791 1.433 . S
C793 N796 1.384 1_545 S
C794 H785 0.929 . S
C794 C786 1.378 . S
C794 C789 1.350 . S
C795 H782 0.929 . S
C795 C787 1.433 . S
C795 N797 1.384 . S
N796 C792 1.427 . S
N796 C793 1.384 1_565 S
N797 C789 1.427 . S
N797 C795 1.384 . S
H798 C804 0.930 . S
H799 C808 0.930 . S
H800 C813 0.922 1_655 S
H801 C811 0.929 . S
H802 C806 0.929 . S
H803 C812 0.929 . S
C804 H798 0.930 . S
C804 C805 1.367 . S
C804 C812 1.378 1_655 S
C805 C804 1.367 . S
C805 C813 1.414 1_655 S
C806 H802 0.929 . S
C806 C808 1.378 . S
C806 C810 1.350 . S
C807 C810 1.463 . S
C807 C812 1.350 . S
C807 N815 1.427 . S
C808 H799 0.930 . S
C808 C806 1.378 . S
C808 C809 1.367 . S
C809 C808 1.367 . S
C809 C811 1.433 . S
C810 C806 1.350 . S
C810 C807 1.463 . S
C810 N814 1.427 . S
C811 H801 0.929 . S
C811 C809 1.433 . S
C811 N814 1.384 . S
C812 H803 0.929 . S
C812 C804 1.378 1_455 S
C812 C807 1.350 . S
C813 H800 0.922 1_455 S
C813 C805 1.414 1_455 S
C813 N815 1.412 . S
N814 C810 1.427 . S
N814 C811 1.384 . S
N815 C807 1.427 . S
N815 C813 1.412 . S
H816 C822 0.930 . S
H817 C826 0.930 . S
H818 C831 0.929 . S
H819 C829 0.929 . S
H820 C824 0.929 . S
H821 C830 0.929 . S
C822 H816 0.930 . S
C822 C823 1.367 1_556 S
C822 C830 1.378 . S
C823 C822 1.367 1_554 S
C823 C831 1.433 . S
C824 H820 0.929 . S
C824 C826 1.378 . S
C824 C828 1.350 1_554 S
C825 C828 1.463 1_554 S
C825 C830 1.350 1_554 S
C825 N833 1.427 . S
C826 H817 0.930 . S
C826 C824 1.378 . S
C826 C827 1.367 1_554 S
C827 C826 1.367 1_556 S
C827 C829 1.433 . S
C828 C824 1.350 1_556 S
C828 C825 1.463 1_556 S
C828 N832 1.427 . S
C829 H819 0.929 . S
C829 C827 1.433 . S
C829 N832 1.384 . S
C830 H821 0.929 . S
C830 C822 1.378 . S
C830 C825 1.350 1_556 S
C831 H818 0.929 . S
C831 C823 1.433 . S
C831 N833 1.384 . S
N832 C828 1.427 . S
N832 C829 1.384 . S
N833 C825 1.427 . S
N833 C831 1.384 . S
H834 C840 0.930 . S
H835 C844 0.930 . S
H836 C849 0.929 . S
H837 C847 0.929 . S
H838 C842 0.929 . S
H839 C848 0.929 . S
C840 H834 0.930 . S
C840 C841 1.367 1_554 S
C840 C848 1.378 . S
C841 C840 1.367 1_556 S
C841 C849 1.433 . S
C842 H838 0.929 . S
C842 C844 1.378 1_545 S
C842 C846 1.350 1_556 S
C843 C846 1.463 1_556 S
C843 C848 1.350 1_556 S
C843 N851 1.427 . S
C844 H835 0.930 . S
C844 C842 1.378 1_565 S
C844 C845 1.367 1_556 S
C845 C844 1.367 1_554 S
C845 C847 1.433 . S
C846 C842 1.350 1_554 S
C846 C843 1.463 1_554 S
C846 N850 1.427 . S
C847 H837 0.929 . S
C847 C845 1.433 . S
C847 N850 1.384 1_565 S
C848 H839 0.929 . S
C848 C840 1.378 . S
C848 C843 1.350 1_554 S
C849 H836 0.929 . S
C849 C841 1.433 . S
C849 N851 1.384 . S
N850 C846 1.427 . S
N850 C847 1.384 1_545 S
N851 C843 1.427 . S
N851 C849 1.384 . S
H852 C858 0.930 . S
H853 C862 0.930 . S
H854 C867 0.929 . S
H855 C865 0.929 . S
H856 C860 0.929 . S
H857 C866 0.929 . S
C858 H852 0.930 . S
C858 C859 1.367 . S
C858 C866 1.378 1_455 S
C859 C858 1.367 . S
C859 C867 1.433 . S
C860 H856 0.929 . S
C860 C862 1.378 . S
C860 C864 1.350 . S
C861 C864 1.463 1_554 S
C861 C866 1.350 . S
C861 N869 1.427 . S
C862 H853 0.930 . S
C862 C860 1.378 . S
C862 C863 1.367 . S
C863 C862 1.367 . S
C863 C865 1.433 . S
C864 C860 1.350 . S
C864 C861 1.463 1_556 S
C864 N868 1.427 . S
C865 H855 0.929 . S
C865 C863 1.433 . S
C865 N868 1.384 . S
C866 H857 0.929 . S
C866 C858 1.378 1_655 S
C866 C861 1.350 . S
C867 H854 0.929 . S
C867 C859 1.433 . S
C867 N869 1.384 1_455 S
N868 C864 1.427 . S
N868 C865 1.384 . S
N869 C861 1.427 . S
N869 C867 1.384 1_655 S
H870 C876 0.930 . S
H871 C880 0.930 . S
H872 C885 0.929 . S
H873 C883 0.929 . S
H874 C878 0.929 . S
H875 C884 0.929 . S
C876 H870 0.930 . S
C876 C877 1.367 . S
C876 C884 1.378 . S
C877 C876 1.367 . S
C877 C885 1.433 . S
C878 H874 0.929 . S
C878 C880 1.378 . S
C878 C882 1.350 . S
C879 C882 1.463 . S
C879 C884 1.350 . S
C879 N887 1.427 . S
C880 H871 0.930 . S
C880 C878 1.378 . S
C880 C881 1.367 . S
C881 C880 1.367 . S
C881 C883 1.433 . S
C882 C878 1.350 . S
C882 C879 1.463 . S
C882 N886 1.427 . S
C883 H873 0.929 . S
C883 C881 1.433 . S
C883 N886 1.384 . S
C884 H875 0.929 . S
C884 C876 1.378 . S
C884 C879 1.350 . S
C885 H872 0.929 . S
C885 C877 1.433 . S
C885 N887 1.384 . S
N886 C882 1.427 . S
N886 C883 1.384 . S
N887 C879 1.427 . S
N887 C885 1.384 . S
H888 C894 0.930 . S
H889 C898 0.930 . S
H890 C903 0.929 . S
H891 C901 0.929 . S
H892 C896 0.929 . S
H893 C902 0.929 . S
C894 H888 0.930 . S
C894 C895 1.367 . S
C894 C902 1.378 . S
C895 C894 1.367 . S
C895 C903 1.433 . S
C896 H892 0.929 . S
C896 C898 1.378 1_545 S
C896 C900 1.350 . S
C897 C900 1.463 . S
C897 C902 1.350 . S
C897 N905 1.427 . S
C898 H889 0.930 . S
C898 C896 1.378 1_565 S
C898 C899 1.367 . S
C899 C898 1.367 . S
C899 C901 1.433 . S
C900 C896 1.350 . S
C900 C897 1.463 . S
C900 N904 1.427 . S
C901 H891 0.929 . S
C901 C899 1.433 . S
C901 N904 1.384 1_565 S
C902 H893 0.929 . S
C902 C894 1.378 . S
C902 C897 1.350 . S
C903 H890 0.929 . S
C903 C895 1.433 . S
C903 N905 1.384 . S
N904 C900 1.427 . S
N904 C901 1.384 1_545 S
N905 C897 1.427 . S
N905 C903 1.384 . S
H906 C912 0.930 . S
H907 C916 0.930 . S
H908 C921 0.929 . S
H909 C919 0.929 . S
H910 C914 0.929 . S
H911 C920 0.929 . S
C912 H906 0.930 . S
C912 C913 1.367 . S
C912 C920 1.378 1_455 S
C913 C912 1.367 . S
C913 C921 1.433 . S
C914 H910 0.929 . S
C914 C916 1.378 . S
C914 C918 1.350 . S
C915 C918 1.463 . S
C915 C920 1.350 . S
C915 N923 1.427 . S
C916 H907 0.930 . S
C916 C914 1.378 . S
C916 C917 1.367 . S
C917 C916 1.367 . S
C917 C919 1.433 . S
C918 C914 1.350 . S
C918 C915 1.463 . S
C918 N922 1.427 . S
C919 H909 0.929 . S
C919 C917 1.433 . S
C919 N922 1.384 . S
C920 H911 0.929 . S
C920 C912 1.378 1_655 S
C920 C915 1.350 . S
C921 H908 0.929 . S
C921 C913 1.433 . S
C921 N923 1.384 1_455 S
N922 C918 1.427 . S
N922 C919 1.384 . S
N923 C915 1.427 . S
N923 C921 1.384 1_655 S
H924 C930 0.930 . S
H925 C934 0.930 . S
H926 C939 0.929 . S
H927 C937 0.929 . S
H928 C932 0.929 . S
H929 C938 0.929 . S
C930 H924 0.930 . S
C930 C931 1.367 . S
C930 C938 1.378 . S
C931 C930 1.367 . S
C931 C939 1.433 . S
C932 H928 0.929 . S
C932 C934 1.378 . S
C932 C936 1.350 . S
C933 C936 1.463 . S
C933 C938 1.350 . S
C933 N941 1.427 . S
C934 H925 0.930 . S
C934 C932 1.378 . S
C934 C935 1.367 . S
C935 C934 1.367 . S
C935 C937 1.433 . S
C936 C932 1.350 . S
C936 C933 1.463 . S
C936 N940 1.427 . S
C937 H927 0.929 . S
C937 C935 1.433 . S
C937 N940 1.384 . S
C938 H929 0.929 . S
C938 C930 1.378 . S
C938 C933 1.350 . S
C939 H926 0.929 . S
C939 C931 1.433 . S
C939 N941 1.384 . S
N940 C936 1.427 . S
N940 C937 1.384 . S
N941 C933 1.427 . S
N941 C939 1.384 . S
H942 C948 0.930 . S
H943 C952 0.930 . S
H944 C957 0.929 . S
H945 C955 0.929 . S
H946 C950 0.929 . S
H947 C956 0.929 . S
C948 H942 0.930 . S
C948 C949 1.367 . S
C948 C956 1.378 . S
C949 C948 1.367 . S
C949 C957 1.433 . S
C950 H946 0.929 . S
C950 C952 1.378 . S
C950 C954 1.350 . S
C951 C954 1.463 . S
C951 C956 1.350 . S
C951 N959 1.427 . S
C952 H943 0.930 . S
C952 C950 1.378 . S
C952 C953 1.367 . S
C953 C952 1.367 . S
C953 C955 1.433 . S
C954 C950 1.350 . S
C954 C951 1.463 . S
C954 N958 1.427 . S
C955 H945 0.929 . S
C955 C953 1.433 . S
C955 N958 1.384 . S
C956 H947 0.929 . S
C956 C948 1.378 . S
C956 C951 1.350 . S
C957 H944 0.929 . S
C957 C949 1.433 . S
C957 N959 1.384 . S
N958 C954 1.427 . S
N958 C955 1.384 . S
N959 C951 1.427 . S
N959 C957 1.384 . S
H960 C966 0.930 . S
H961 C970 0.930 . S
H962 C975 0.929 . S
H963 C973 0.929 . S
H964 C968 0.929 . S
H965 C974 0.929 . S
C966 H960 0.930 . S
C966 C967 1.367 . S
C966 C974 1.378 . S
C967 C966 1.367 . S
C967 C975 1.433 . S
C968 H964 0.929 . S
C968 C970 1.378 . S
C968 C972 1.350 . S
C969 C972 1.463 . S
C969 C974 1.350 . S
C969 N977 1.427 . S
C970 H961 0.930 . S
C970 C968 1.378 . S
C970 C971 1.367 . S
C971 C970 1.367 . S
C971 C973 1.433 . S
C972 C968 1.350 . S
C972 C969 1.463 . S
C972 N976 1.427 . S
C973 H963 0.929 . S
C973 C971 1.433 . S
C973 N976 1.384 . S
C974 H965 0.929 . S
C974 C966 1.378 . S
C974 C969 1.350 . S
C975 H962 0.929 . S
C975 C967 1.433 . S
C975 N977 1.384 . S
N976 C972 1.427 . S
N976 C973 1.384 . S
N977 C969 1.427 . S
N977 C975 1.384 . S
H978 C984 0.930 . S
H979 C988 0.930 . S
H980 C993 0.929 . S
H981 C991 0.929 . S
H982 C986 0.929 . S
H983 C992 0.929 . S
C984 H978 0.930 . S
C984 C985 1.367 . S
C984 C992 1.378 . S
C985 C984 1.367 . S
C985 C993 1.433 . S
C986 H982 0.929 . S
C986 C988 1.378 . S
C986 C990 1.350 . S
C987 C990 1.463 . S
C987 C992 1.350 . S
C987 N995 1.427 . S
C988 H979 0.930 . S
C988 C986 1.378 . S
C988 C989 1.367 . S
C989 C988 1.367 . S
C989 C991 1.433 . S
C990 C986 1.350 . S
C990 C987 1.463 . S
C990 N994 1.427 . S
C991 H981 0.929 . S
C991 C989 1.433 . S
C991 N994 1.384 . S
C992 H983 0.929 . S
C992 C984 1.378 . S
C992 C987 1.350 . S
C993 H980 0.929 . S
C993 C985 1.433 . S
C993 N995 1.384 . S
N994 C990 1.427 . S
N994 C991 1.384 . S
N995 C987 1.427 . S
N995 C993 1.384 . S
H996 C1002 0.930 . S
H997 C1006 0.930 . S
H998 C1011 0.929 . S
H999 C1009 0.929 . S
H1000 C1004 0.929 . S
H1001 C1010 0.929 . S
C1002 H996 0.930 . S
C1002 C1003 1.367 . S
C1002 C1010 1.378 . S
C1003 C1002 1.367 . S
C1003 C1011 1.433 . S
C1004 H1000 0.929 . S
C1004 C1006 1.378 . S
C1004 C1008 1.350 . S
C1005 C1008 1.463 . S
C1005 C1010 1.350 . S
C1005 N1013 1.427 . S
C1006 H997 0.930 . S
C1006 C1004 1.378 . S
C1006 C1007 1.367 . S
C1007 C1006 1.367 . S
C1007 C1009 1.433 . S
C1008 C1004 1.350 . S
C1008 C1005 1.463 . S
C1008 N1012 1.427 . S
C1009 H999 0.929 . S
C1009 C1007 1.433 . S
C1009 N1012 1.384 . S
C1010 H1001 0.929 . S
C1010 C1002 1.378 . S
C1010 C1005 1.350 . S
C1011 H998 0.929 . S
C1011 C1003 1.433 . S
C1011 N1013 1.384 . S
N1012 C1008 1.427 . S
N1012 C1009 1.384 . S
N1013 C1005 1.427 . S
N1013 C1011 1.384 . S
H1014 C1020 0.930 . S
H1015 C1024 0.930 . S
H1016 C1029 0.929 . S
H1017 C1027 0.929 . S
H1018 C1022 0.929 . S
H1019 C1028 0.929 . S
C1020 H1014 0.930 . S
C1020 C1021 1.367 . S
C1020 C1028 1.378 . S
C1021 C1020 1.367 . S
C1021 C1029 1.433 . S
C1022 H1018 0.929 . S
C1022 C1024 1.378 . S
C1022 C1026 1.350 . S
C1023 C1026 1.463 . S
C1023 C1028 1.350 . S
C1023 N1031 1.427 . S
C1024 H1015 0.930 . S
C1024 C1022 1.378 . S
C1024 C1025 1.367 . S
C1025 C1024 1.367 . S
C1025 C1027 1.433 . S
C1026 C1022 1.350 . S
C1026 C1023 1.463 . S
C1026 N1030 1.427 . S
C1027 H1017 0.929 . S
C1027 C1025 1.433 . S
C1027 N1030 1.384 . S
C1028 H1019 0.929 . S
C1028 C1020 1.378 . S
C1028 C1023 1.350 . S
C1029 H1016 0.929 . S
C1029 C1021 1.433 . S
C1029 N1031 1.384 . S
N1030 C1026 1.427 . S
N1030 C1027 1.384 . S
N1031 C1023 1.427 . S
N1031 C1029 1.384 . S
H1032 C1038 0.930 . S
H1033 C1042 0.930 . S
H1034 C1047 0.929 . S
H1035 C1045 0.929 . S
H1036 C1040 0.929 . S
H1037 C1046 0.929 . S
C1038 H1032 0.930 . S
C1038 C1039 1.367 . S
C1038 C1046 1.378 . S
C1039 C1038 1.367 . S
C1039 C1047 1.433 . S
C1040 H1036 0.929 . S
C1040 C1042 1.378 . S
C1040 C1044 1.350 . S
C1041 C1044 1.463 1_454 S
C1041 C1046 1.350 . S
C1041 N1049 1.427 . S
C1042 H1033 0.930 . S
C1042 C1040 1.378 . S
C1042 C1043 1.367 . S
C1043 C1042 1.367 . S
C1043 C1045 1.433 . S
C1044 C1040 1.350 . S
C1044 C1041 1.463 1_656 S
C1044 N1048 1.427 . S
C1045 H1035 0.929 . S
C1045 C1043 1.433 . S
C1045 N1048 1.384 . S
C1046 H1037 0.929 . S
C1046 C1038 1.378 . S
C1046 C1041 1.350 . S
C1047 H1034 0.929 . S
C1047 C1039 1.433 . S
C1047 N1049 1.384 . S
N1048 C1044 1.427 . S
N1048 C1045 1.384 . S
N1049 C1041 1.427 . S
N1049 C1047 1.384 . S
H1050 C1056 0.930 . S
H1051 C1060 0.930 . S
H1052 C1065 0.929 . S
H1053 C1063 0.929 . S
H1054 C1058 0.929 . S
H1055 C1064 0.929 . S
C1056 H1050 0.930 . S
C1056 C1057 1.367 . S
C1056 C1064 1.378 1_554 S
C1057 C1056 1.367 . S
C1057 C1065 1.433 . S
C1058 H1054 0.929 . S
C1058 C1060 1.378 1_554 S
C1058 C1062 1.350 1_554 S
C1059 C1062 1.463 1_554 S
C1059 C1064 1.350 1_554 S
C1059 N1067 1.427 . S
C1060 H1051 0.930 . S
C1060 C1058 1.378 1_556 S
C1060 C1061 1.367 . S
C1061 C1060 1.367 . S
C1061 C1063 1.433 . S
C1062 C1058 1.350 1_556 S
C1062 C1059 1.463 1_556 S
C1062 N1066 1.427 . S
C1063 H1053 0.929 . S
C1063 C1061 1.433 . S
C1063 N1066 1.384 . S
C1064 H1055 0.929 . S
C1064 C1056 1.378 1_556 S
C1064 C1059 1.350 1_556 S
C1065 H1052 0.929 . S
C1065 C1057 1.433 . S
C1065 N1067 1.384 . S
N1066 C1062 1.427 . S
N1066 C1063 1.384 . S
N1067 C1059 1.427 . S
N1067 C1065 1.384 . S
H1068 C1074 0.930 . S
H1069 C1078 0.930 . S
H1070 C1083 0.929 1_556 S
H1071 C1081 0.929 1_554 S
H1072 C1076 0.929 1_565 S
H1073 C1082 0.929 1_545 S
C1074 H1068 0.930 . S
C1074 C1075 1.367 . S
C1074 C1082 1.378 . S
C1075 C1074 1.367 . S
C1075 C1083 1.433 . S
C1076 H1072 0.929 1_545 S
C1076 C1078 1.378 . S
C1076 C1080 1.350 . S
C1077 C1080 1.463 1_564 S
C1077 C1082 1.350 . S
C1077 N1085 1.427 1_554 S
C1078 H1069 0.930 . S
C1078 C1076 1.378 . S
C1078 C1079 1.367 . S
C1079 C1078 1.367 . S
C1079 C1081 1.433 . S
C1080 C1076 1.350 . S
C1080 C1077 1.463 1_546 S
C1080 N1084 1.427 1_556 S
C1081 H1071 0.929 1_556 S
C1081 C1079 1.433 . S
C1081 N1084 1.384 1_556 S
C1082 H1073 0.929 1_565 S
C1082 C1074 1.378 . S
C1082 C1077 1.350 . S
C1083 H1070 0.929 1_554 S
C1083 C1075 1.433 . S
C1083 N1085 1.384 1_554 S
N1084 C1080 1.427 1_554 S
N1084 C1081 1.384 1_554 S
N1085 C1077 1.427 1_556 S
N1085 C1083 1.384 1_556 S
H1086 C1092 0.930 . S
H1087 C1096 0.930 . S
H1088 C1101 0.929 . S
H1089 C1099 0.929 . S
H1090 C1094 0.929 1_565 S
H1091 C1100 0.929 1_545 S
C1092 H1086 0.930 . S
C1092 C1093 1.367 . S
C1092 C1100 1.378 . S
C1093 C1092 1.367 . S
C1093 C1101 1.433 . S
C1094 H1090 0.929 1_545 S
C1094 C1096 1.378 . S
C1094 C1098 1.350 . S
C1095 C1098 1.463 1_565 S
C1095 C1100 1.350 . S
C1095 N1103 1.427 . S
C1096 H1087 0.930 . S
C1096 C1094 1.378 . S
C1096 C1097 1.367 . S
C1097 C1096 1.367 . S
C1097 C1099 1.433 . S
C1098 C1094 1.350 . S
C1098 C1095 1.463 1_545 S
C1098 N1102 1.427 . S
C1099 H1089 0.929 . S
C1099 C1097 1.433 . S
C1099 N1102 1.384 . S
C1100 H1091 0.929 1_565 S
C1100 C1092 1.378 . S
C1100 C1095 1.350 . S
C1101 H1088 0.929 . S
C1101 C1093 1.433 . S
C1101 N1103 1.384 . S
N1102 C1098 1.427 . S
N1102 C1099 1.384 . S
N1103 C1095 1.427 . S
N1103 C1101 1.384 . S
H1104 C1110 0.930 . S
H1105 C1114 0.930 . S
H1106 C1119 0.929 . S
H1107 C1117 0.929 . S
H1108 C1112 0.929 . S
H1109 C1118 0.929 . S
C1110 H1104 0.930 . S
C1110 C1111 1.367 . S
C1110 C1118 1.378 . S
C1111 C1110 1.367 . S
C1111 C1119 1.433 . S
C1112 H1108 0.929 . S
C1112 C1114 1.378 . S
C1112 C1116 1.350 . S
C1113 C1116 1.463 1_655 S
C1113 C1118 1.350 . S
C1113 N1121 1.427 . S
C1114 H1105 0.930 . S
C1114 C1112 1.378 . S
C1114 C1115 1.367 . S
C1115 C1114 1.367 . S
C1115 C1117 1.433 . S
C1116 C1112 1.350 . S
C1116 C1113 1.463 1_455 S
C1116 N1120 1.427 . S
C1117 H1107 0.929 . S
C1117 C1115 1.433 . S
C1117 N1120 1.384 . S
C1118 H1109 0.929 . S
C1118 C1110 1.378 . S
C1118 C1113 1.350 . S
C1119 H1106 0.929 . S
C1119 C1111 1.433 . S
C1119 N1121 1.384 . S
N1120 C1116 1.427 . S
N1120 C1117 1.384 . S
N1121 C1113 1.427 . S
N1121 C1119 1.384 . S
H1122 C1128 0.930 . S
H1123 C1132 0.930 . S
H1124 C1137 0.929 . S
H1125 C1135 0.929 . S
H1126 C1130 0.929 . S
H1127 C1136 0.929 . S
C1128 H1122 0.930 . S
C1128 C1129 1.367 . S
C1128 C1136 1.378 . S
C1129 C1128 1.367 . S
C1129 C1137 1.433 . S
C1130 H1126 0.929 . S
C1130 C1132 1.378 . S
C1130 C1134 1.350 . S
C1131 C1134 1.463 . S
C1131 C1136 1.350 . S
C1131 N1139 1.427 . S
C1132 H1123 0.930 . S
C1132 C1130 1.378 . S
C1132 C1133 1.367 . S
C1133 C1132 1.367 . S
C1133 C1135 1.433 . S
C1134 C1130 1.350 . S
C1134 C1131 1.463 . S
C1134 N1138 1.427 . S
C1135 H1125 0.929 . S
C1135 C1133 1.433 . S
C1135 N1138 1.384 . S
C1136 H1127 0.929 . S
C1136 C1128 1.378 . S
C1136 C1131 1.350 . S
C1137 H1124 0.929 . S
C1137 C1129 1.433 . S
C1137 N1139 1.384 . S
N1138 C1134 1.427 . S
N1138 C1135 1.384 . S
N1139 C1131 1.427 . S
N1139 C1137 1.384 . S
C715 C3 0.876 . S
C719 C465 0.882 . S
C733 C62 0.874 . S
C737 C524 0.881 . S
C751 C121 0.881 . S
C755 C406 0.874 . S
C769 C701 0.874 . S
C773 C180 0.880 . S
C787 C239 0.878 . S
C791 C583 0.873 . S
C805 C642 0.883 . S
C809 C298 0.877 . S
C823 C111 0.883 . S
C827 C357 0.880 . S
C841 C416 0.875 . S
C845 C170 0.881 . S
C859 C52 0.876 . S
C863 C475 0.872 . S
C877 C534 0.880 . S
C881 C347 0.883 . S
C895 C593 0.875 . S
C899 C229 0.881 . S
C913 C288 0.877 . S
C917 C652 0.882 . S
C931 C300 1.665 . S
C935 C5 1.666 . S
C949 C64 1.665 . S
C953 C182 1.670 . S
C967 C123 1.669 . S
C971 C241 1.665 . S
C985 C359 1.670 . S
C989 C654 1.665 . S
C1003 C418 1.670 . S
C1007 C536 1.665 . S
C1021 C477 1.666 . S
C1025 C595 1.665 . S
C1039 C33 1.790 . S
C1043 C387 1.790 . S
C1057 C92 1.783 . S
C1061 C446 1.783 . S
C1075 C151 1.785 . S
C1079 C505 1.785 . S
C1093 C210 1.783 . S
C1097 C564 1.783 . S
C1111 C623 1.782 . S
C1115 C269 1.782 . S
C1129 C328 1.789 . S
C1133 C682 1.789 . S
