# Generated by pormake.
# Topology cag, (4)-cn, num edge types: 1
# Building blocks:
#     Node 0, Type 0, BuildingBlock: QUQFOY_clean_sbu_1, # of connection points: 4
#     Node 1, Type 0, BuildingBlock: QUQFOY_clean_sbu_1, # of connection points: 4
#     Node 2, Type 0, BuildingBlock: QUQFOY_clean_sbu_1, # of connection points: 4
#     Node 3, Type 0, BuildingBlock: QUQFOY_clean_sbu_1, # of connection points: 4
#     Node 4, Type 0, BuildingBlock: QUQFOY_clean_sbu_1, # of connection points: 4
#     Node 5, Type 0, BuildingBlock: QUQFOY_clean_sbu_1, # of connection points: 4
#     Node 6, Type 0, BuildingBlock: QUQFOY_clean_sbu_1, # of connection points: 4
#     Node 7, Type 0, BuildingBlock: QUQFOY_clean_sbu_1, # of connection points: 4
#     Node 8, Type 0, BuildingBlock: QUQFOY_clean_sbu_1, # of connection points: 4
#     Node 9, Type 0, BuildingBlock: QUQFOY_clean_sbu_1, # of connection points: 4
#     Node 10, Type 0, BuildingBlock: QUQFOY_clean_sbu_1, # of connection points: 4
#     Node 11, Type 0, BuildingBlock: QUQFOY_clean_sbu_1, # of connection points: 4
#     Node 12, Type 0, BuildingBlock: QUQFOY_clean_sbu_1, # of connection points: 4
#     Node 13, Type 0, BuildingBlock: QUQFOY_clean_sbu_1, # of connection points: 4
#     Node 14, Type 0, BuildingBlock: QUQFOY_clean_sbu_1, # of connection points: 4
#     Node 15, Type 0, BuildingBlock: QUQFOY_clean_sbu_1, # of connection points: 4
#     Edge 16, Type (0, 0), BuildingBlock: ZUJKAS_clean_linker_0, # of connection points: 2
#     Edge 17, Type (0, 0), BuildingBlock: ZUJKAS_clean_linker_0, # of connection points: 2
#     Edge 18, Type (0, 0), BuildingBlock: ZUJKAS_clean_linker_0, # of connection points: 2
#     Edge 19, Type (0, 0), BuildingBlock: ZUJKAS_clean_linker_0, # of connection points: 2
#     Edge 20, Type (0, 0), BuildingBlock: ZUJKAS_clean_linker_0, # of connection points: 2
#     Edge 21, Type (0, 0), BuildingBlock: ZUJKAS_clean_linker_0, # of connection points: 2
#     Edge 22, Type (0, 0), BuildingBlock: ZUJKAS_clean_linker_0, # of connection points: 2
#     Edge 23, Type (0, 0), BuildingBlock: ZUJKAS_clean_linker_0, # of connection points: 2
#     Edge 24, Type (0, 0), BuildingBlock: ZUJKAS_clean_linker_0, # of connection points: 2
#     Edge 25, Type (0, 0), BuildingBlock: ZUJKAS_clean_linker_0, # of connection points: 2
#     Edge 26, Type (0, 0), BuildingBlock: ZUJKAS_clean_linker_0, # of connection points: 2
#     Edge 27, Type (0, 0), BuildingBlock: ZUJKAS_clean_linker_0, # of connection points: 2
#     Edge 28, Type (0, 0), BuildingBlock: ZUJKAS_clean_linker_0, # of connection points: 2
#     Edge 29, Type (0, 0), BuildingBlock: ZUJKAS_clean_linker_0, # of connection points: 2
#     Edge 30, Type (0, 0), BuildingBlock: ZUJKAS_clean_linker_0, # of connection points: 2
#     Edge 31, Type (0, 0), BuildingBlock: ZUJKAS_clean_linker_0, # of connection points: 2
#     Edge 32, Type (0, 0), BuildingBlock: ZUJKAS_clean_linker_0, # of connection points: 2
#     Edge 33, Type (0, 0), BuildingBlock: ZUJKAS_clean_linker_0, # of connection points: 2
#     Edge 34, Type (0, 0), BuildingBlock: ZUJKAS_clean_linker_0, # of connection points: 2
#     Edge 35, Type (0, 0), BuildingBlock: ZUJKAS_clean_linker_0, # of connection points: 2
#     Edge 36, Type (0, 0), BuildingBlock: ZUJKAS_clean_linker_0, # of connection points: 2
#     Edge 37, Type (0, 0), BuildingBlock: ZUJKAS_clean_linker_0, # of connection points: 2
#     Edge 38, Type (0, 0), BuildingBlock: ZUJKAS_clean_linker_0, # of connection points: 2
#     Edge 39, Type (0, 0), BuildingBlock: ZUJKAS_clean_linker_0, # of connection points: 2
#     Edge 40, Type (0, 0), BuildingBlock: ZUJKAS_clean_linker_0, # of connection points: 2
#     Edge 41, Type (0, 0), BuildingBlock: ZUJKAS_clean_linker_0, # of connection points: 2
#     Edge 42, Type (0, 0), BuildingBlock: ZUJKAS_clean_linker_0, # of connection points: 2
#     Edge 43, Type (0, 0), BuildingBlock: ZUJKAS_clean_linker_0, # of connection points: 2
#     Edge 44, Type (0, 0), BuildingBlock: ZUJKAS_clean_linker_0, # of connection points: 2
#     Edge 45, Type (0, 0), BuildingBlock: ZUJKAS_clean_linker_0, # of connection points: 2
#     Edge 46, Type (0, 0), BuildingBlock: ZUJKAS_clean_linker_0, # of connection points: 2
#     Edge 47, Type (0, 0), BuildingBlock: ZUJKAS_clean_linker_0, # of connection points: 2
# Relax obj value: 0.138
# Max RMSD: 0.201
# Mean RMSD: 0.180
data_MOF--net-cag--node1-QUQFOY_clean_sbu_1--edge1-ZUJKAS_clean_linker_0
_symmetry_space_group_name_H-M    P1
_symmetry_Int_Tables_number       1
_symmetry_cell_setting            triclinic
loop_
_symmetry_equiv_pos_as_xyz
'x, y, z'
_cell_length_a     54.039834
_cell_length_b     71.209498
_cell_length_c     53.781378
_cell_angle_alpha  90.023301
_cell_angle_beta   89.994436
_cell_angle_gamma 89.993417
loop_
_atom_site_label
_atom_site_type_symbol
_atom_site_fract_x
_atom_site_fract_y
_atom_site_fract_z
_atom_type_partial_charge
O0 O 0.28446 0.15124 0.10917 0.0
Cd1 Cd 0.29879 0.1521 0.07375 0.0
Cd2 Cd 0.29391 0.11255 0.07819 0.0
O3 O 0.27896 0.1206 0.11178 0.0
O4 O 0.29853 0.17929 0.06557 0.0
O5 O 0.27665 0.15833 0.04469 0.0
C6 C 0.2832 0.17561 0.0479 0.0
C7 C 0.2754 0.08706 0.05804 0.0
C8 C 0.27728 0.13691 0.12122 0.0
C9 C 0.34504 0.12862 0.06988 0.0
O10 O 0.33175 0.11418 0.07364 0.0
O11 O 0.33531 0.14484 0.06886 0.0
O12 O 0.288 0.08499 0.07816 0.0
O13 O 0.27281 0.10386 0.04937 0.0
O14 O 0.20625 0.84477 0.61213 0.0
Cd15 Cd 0.196 0.84806 0.57542 0.0
Cd16 Cd 0.20416 0.88516 0.58678 0.0
O17 O 0.21941 0.87371 0.6183 0.0
O18 O 0.19363 0.82191 0.56285 0.0
O19 O 0.22122 0.84226 0.54881 0.0
C20 C 0.21193 0.82556 0.54832 0.0
C21 C 0.22502 0.90929 0.56637 0.0
C22 C 0.21666 0.85694 0.62587 0.0
C23 C 0.15221 0.87388 0.57472 0.0
O24 O 0.16607 0.88631 0.58434 0.0
O25 O 0.16114 0.85819 0.56801 0.0
O26 O 0.2144 0.91193 0.58753 0.0
O27 O 0.22444 0.89259 0.55696 0.0
O28 O 0.28558 0.84559 0.89414 0.0
Cd29 Cd 0.29945 0.84889 0.92955 0.0
Cd30 Cd 0.29206 0.88699 0.91755 0.0
O31 O 0.2748 0.87502 0.88737 0.0
O32 O 0.30154 0.82259 0.94162 0.0
O33 O 0.27728 0.84382 0.95904 0.0
C34 C 0.28536 0.82676 0.95829 0.0
C35 C 0.27358 0.91354 0.9351 0.0
C36 C 0.27548 0.85796 0.88051 0.0
C37 C 0.3443 0.87378 0.92656 0.0
O38 O 0.33027 0.88677 0.91857 0.0
O39 O 0.33532 0.85811 0.9333 0.0
O40 O 0.28391 0.91406 0.91355 0.0
O41 O 0.27332 0.8977 0.94679 0.0
O42 O 0.21318 0.14578 0.39318 0.0
Cd43 Cd 0.20117 0.14476 0.42959 0.0
Cd44 Cd 0.20513 0.10576 0.42086 0.0
O45 O 0.21902 0.1154 0.38771 0.0
O46 O 0.20098 0.17163 0.43947 0.0
O47 O 0.2248 0.15052 0.45769 0.0
C48 C 0.2174 0.16772 0.45599 0.0
C49 C 0.22465 0.07967 0.4384 0.0
C50 C 0.21993 0.13212 0.37958 0.0
C51 C 0.15475 0.12121 0.43281 0.0
O52 O 0.16736 0.10708 0.42592 0.0
O53 O 0.16505 0.13703 0.43622 0.0
O54 O 0.21175 0.07838 0.41836 0.0
O55 O 0.22678 0.096 0.44864 0.0
O56 O 0.67204 0.8456 0.91016 0.0
Cd57 Cd 0.65775 0.86953 0.89377 0.0
Cd58 Cd 0.65953 0.88227 0.941 0.0
O59 O 0.67624 0.85686 0.9481 0.0
O60 O 0.66292 0.86537 0.8576 0.0
O61 O 0.68074 0.88853 0.87833 0.0
C62 C 0.67757 0.87965 0.85763 0.0
C63 C 0.6779 0.91021 0.95376 0.0
C64 C 0.67877 0.84351 0.93263 0.0
C65 C 0.6094 0.87982 0.9176 0.0
O66 O 0.62161 0.88272 0.93742 0.0
O67 O 0.62046 0.87509 0.89771 0.0
O68 O 0.6674 0.89907 0.96945 0.0
O69 O 0.67863 0.90516 0.93068 0.0
O70 O 0.83164 0.16182 0.41012 0.0
Cd71 Cd 0.84428 0.13729 0.39392 0.0
Cd72 Cd 0.83813 0.12365 0.43976 0.0
O73 O 0.82158 0.14923 0.44615 0.0
O74 O 0.8405 0.14073 0.35744 0.0
O75 O 0.81946 0.11957 0.37894 0.0
C76 C 0.82412 0.12756 0.35789 0.0
C77 C 0.8186 0.0958 0.45102 0.0
C78 C 0.82223 0.16333 0.43169 0.0
C79 C 0.89 0.12491 0.42039 0.0
O80 O 0.87623 0.12268 0.4393 0.0
O81 O 0.88066 0.12972 0.39967 0.0
O82 O 0.82808 0.10683 0.46748 0.0
O83 O 0.81942 0.10097 0.42801 0.0
O84 O 0.66945 0.16217 0.08753 0.0
Cd85 Cd 0.65584 0.13801 0.10363 0.0
Cd86 Cd 0.66123 0.12377 0.05743 0.0
O87 O 0.67792 0.14941 0.05116 0.0
O88 O 0.65944 0.14143 0.14009 0.0
O89 O 0.6798 0.11971 0.11886 0.0
C90 C 0.67521 0.12784 0.13985 0.0
C91 C 0.67991 0.09631 0.04309 0.0
C92 C 0.67827 0.16349 0.0657 0.0
C93 C 0.60955 0.12599 0.0777 0.0
O94 O 0.62311 0.12272 0.05889 0.0
O95 O 0.61914 0.13155 0.09796 0.0
O96 O 0.67004 0.10822 0.02801 0.0
O97 O 0.67996 0.10031 0.06653 0.0
O98 O 0.82317 0.84604 0.58356 0.0
Cd99 Cd 0.8382 0.86964 0.60018 0.0
Cd100 Cd 0.83763 0.88255 0.5526 0.0
O101 O 0.82217 0.8568 0.54512 0.0
O102 O 0.83285 0.86529 0.63626 0.0
O103 O 0.8157 0.88889 0.61586 0.0
C104 C 0.81858 0.87979 0.63643 0.0
C105 C 0.81904 0.90969 0.5374 0.0
C106 C 0.81814 0.84375 0.56068 0.0
C107 C 0.88714 0.88003 0.57718 0.0
O108 O 0.87528 0.88361 0.55736 0.0
O109 O 0.87575 0.87463 0.59659 0.0
O110 O 0.83062 0.89824 0.52291 0.0
O111 O 0.81747 0.90548 0.56072 0.0
O112 O 0.78639 0.65867 0.10873 0.0
Cd113 Cd 0.80126 0.65999 0.07355 0.0
Cd114 Cd 0.79858 0.62018 0.07782 0.0
O115 O 0.78377 0.62781 0.11163 0.0
O116 O 0.79849 0.68688 0.06422 0.0
O117 O 0.77917 0.66422 0.04386 0.0
C118 C 0.78397 0.68189 0.0464 0.0
C119 C 0.78283 0.59259 0.06019 0.0
C120 C 0.7806 0.64404 0.12092 0.0
C121 C 0.84883 0.63846 0.06987 0.0
O122 O 0.8361 0.62361 0.07251 0.0
O123 O 0.83843 0.65445 0.06968 0.0
O124 O 0.79696 0.59234 0.07942 0.0
O125 O 0.77702 0.60872 0.05095 0.0
O126 O 0.71269 0.35124 0.60713 0.0
Cd127 Cd 0.69997 0.34803 0.57134 0.0
Cd128 Cd 0.69977 0.38754 0.57298 0.0
O129 O 0.71198 0.38219 0.60854 0.0
O130 O 0.7055 0.32099 0.56446 0.0
O131 O 0.72344 0.34357 0.54276 0.0
C132 C 0.72018 0.32584 0.54673 0.0
C133 C 0.71624 0.41445 0.55435 0.0
C134 C 0.71603 0.36647 0.61894 0.0
C135 C 0.65135 0.36723 0.56321 0.0
O136 O 0.66298 0.38267 0.56506 0.0
O137 O 0.6627 0.35171 0.5653 0.0
O138 O 0.70024 0.41539 0.57199 0.0
O139 O 0.72336 0.39802 0.54716 0.0
O140 O 0.78163 0.35287 0.88982 0.0
Cd141 Cd 0.79686 0.34954 0.9246 0.0
Cd142 Cd 0.79749 0.38948 0.92219 0.0
O143 O 0.78221 0.38382 0.88793 0.0
O144 O 0.79216 0.32234 0.9311 0.0
O145 O 0.77538 0.34441 0.95457 0.0
C146 C 0.77857 0.32678 0.94987 0.0
C147 C 0.78336 0.41687 0.94161 0.0
C148 C 0.77735 0.36802 0.87813 0.0
C149 C 0.84618 0.36863 0.9286 0.0
O150 O 0.83468 0.38414 0.92706 0.0
O151 O 0.83448 0.35317 0.92802 0.0
O152 O 0.79782 0.41736 0.92264 0.0
O153 O 0.77644 0.40063 0.94968 0.0
O154 O 0.70913 0.65482 0.3913 0.0
Cd155 Cd 0.69699 0.65498 0.42759 0.0
Cd156 Cd 0.70053 0.61547 0.42159 0.0
O157 O 0.71267 0.62408 0.38715 0.0
O158 O 0.69762 0.68181 0.43754 0.0
O159 O 0.7212 0.66024 0.45534 0.0
C160 C 0.71407 0.67751 0.45388 0.0
C161 C 0.71896 0.58833 0.43767 0.0
C162 C 0.71451 0.64054 0.37821 0.0
C163 C 0.65045 0.63216 0.43351 0.0
O164 O 0.66325 0.61758 0.42916 0.0
O165 O 0.66054 0.64824 0.43396 0.0
O166 O 0.70387 0.58777 0.4192 0.0
O167 O 0.72424 0.60456 0.44696 0.0
O168 O 0.17726 0.34203 0.91215 0.0
Cd169 Cd 0.16097 0.36443 0.89421 0.0
Cd170 Cd 0.16146 0.37895 0.94099 0.0
O171 O 0.17914 0.35416 0.94984 0.0
O172 O 0.16722 0.35946 0.85842 0.0
O173 O 0.18208 0.38433 0.87802 0.0
C174 C 0.18028 0.37459 0.85782 0.0
C175 C 0.17648 0.40739 0.95621 0.0
C176 C 0.18326 0.34066 0.93492 0.0
C177 C 0.11174 0.37295 0.91659 0.0
O178 O 0.12372 0.378 0.93577 0.0
O179 O 0.12313 0.36732 0.89732 0.0
O180 O 0.16476 0.39577 0.9703 0.0
O181 O 0.18057 0.40258 0.93341 0.0
O182 O 0.31959 0.65563 0.42158 0.0
Cd183 Cd 0.33643 0.63312 0.40427 0.0
Cd184 Cd 0.33497 0.61866 0.45064 0.0
O185 O 0.31818 0.64376 0.45944 0.0
O186 O 0.33158 0.63806 0.36823 0.0
O187 O 0.31564 0.61338 0.38736 0.0
C188 C 0.31831 0.62304 0.3672 0.0
C189 C 0.31718 0.59012 0.46177 0.0
C190 C 0.31391 0.65714 0.44442 0.0
C191 C 0.38516 0.62381 0.42818 0.0
O192 O 0.37282 0.61873 0.44711 0.0
O193 O 0.37415 0.62979 0.40885 0.0
O194 O 0.32758 0.60081 0.47806 0.0
O195 O 0.31615 0.59598 0.43905 0.0
O196 O 0.17833 0.65983 0.09125 0.0
Cd197 Cd 0.16219 0.63686 0.10801 0.0
Cd198 Cd 0.16416 0.62324 0.06082 0.0
O199 O 0.1819 0.64828 0.05336 0.0
O200 O 0.16772 0.64096 0.14411 0.0
O201 O 0.18346 0.61682 0.12361 0.0
C202 C 0.1811 0.62598 0.14423 0.0
C203 C 0.17948 0.59509 0.04493 0.0
C204 C 0.18516 0.66161 0.06876 0.0
C205 C 0.11372 0.62828 0.08419 0.0
O206 O 0.12629 0.62387 0.06511 0.0
O207 O 0.12452 0.63353 0.10399 0.0
O208 O 0.16824 0.60707 0.03097 0.0
O209 O 0.18303 0.59942 0.06799 0.0
O210 O 0.32281 0.33679 0.5859 0.0
Cd211 Cd 0.3387 0.36056 0.6009 0.0
Cd212 Cd 0.33467 0.37319 0.55398 0.0
O213 O 0.31691 0.34794 0.54814 0.0
O214 O 0.3346 0.35755 0.6374 0.0
O215 O 0.31717 0.3806 0.61611 0.0
C216 C 0.32054 0.37218 0.63712 0.0
C217 C 0.31681 0.40122 0.54072 0.0
C218 C 0.31489 0.33469 0.56383 0.0
C219 C 0.38604 0.36927 0.57444 0.0
O220 O 0.37276 0.3729 0.55555 0.0
O221 O 0.376 0.36463 0.59491 0.0
O222 O 0.32616 0.38943 0.52513 0.0
O223 O 0.31693 0.39682 0.56403 0.0
H224 H 0.24565 0.17401 0.01356 0.0
H225 H 0.22832 0.20025 0.98956 0.0
H226 H 0.28086 0.23797 0.02342 0.0
H227 H 0.29823 0.21205 0.04729 0.0
H228 H 0.20764 0.2339 0.01036 0.0
H229 H 0.287 0.249 0.94815 0.0
H230 H 0.28351 0.22692 0.96432 0.0
H231 H 0.29534 0.24716 0.98039 0.0
C232 C 0.25365 0.18787 0.01567 0.0
C233 C 0.27331 0.19096 0.0323 0.0
C234 C 0.24373 0.20281 0.00199 0.0
C235 C 0.25356 0.22096 0.00451 0.0
C236 C 0.27332 0.224 0.02088 0.0
H237 H 0.19427 0.33127 0.98304 0.0
H238 H 0.21043 0.30135 0.99837 0.0
C239 C 0.28311 0.20917 0.03462 0.0
C240 C 0.24241 0.23707 0.99127 0.0
H241 H 0.25639 0.27314 0.95192 0.0
C242 C 0.21815 0.24236 0.99733 0.0
C243 C 0.25613 0.24796 0.97414 0.0
C244 C 0.28187 0.24241 0.96614 0.0
C245 C 0.20759 0.25876 0.9875 0.0
C246 C 0.22181 0.27019 0.97144 0.0
C247 C 0.24567 0.26446 0.96451 0.0
C248 C 0.21241 0.28836 0.96205 0.0
C249 C 0.18138 0.26379 0.99449 0.0
C250 C 0.20887 0.2911 0.93649 0.0
C251 C 0.19971 0.30819 0.92764 0.0
C252 C 0.19415 0.32291 0.94421 0.0
C253 C 0.19829 0.32023 0.96978 0.0
C254 C 0.20736 0.3031 0.9786 0.0
H255 H 0.17103 0.25142 0.00159 0.0
H256 H 0.18172 0.27458 0.00938 0.0
H257 H 0.17125 0.26971 0.97832 0.0
H258 H 0.21286 0.27992 0.92343 0.0
H259 H 0.19682 0.30979 0.90783 0.0
H260 H 0.2887 0.6838 0.41809 0.0
H261 H 0.27198 0.71351 0.43356 0.0
H262 H 0.29985 0.70079 0.50687 0.0
H263 H 0.31542 0.67068 0.49178 0.0
H264 H 0.25581 0.71371 0.51062 0.0
H265 H 0.30699 0.76132 0.44774 0.0
H266 H 0.28854 0.74481 0.43075 0.0
H267 H 0.31379 0.73658 0.44974 0.0
C268 C 0.29123 0.68736 0.43751 0.0
C269 C 0.30335 0.67493 0.45374 0.0
C270 C 0.28191 0.70445 0.44627 0.0
C271 C 0.28518 0.70965 0.47126 0.0
C272 C 0.29719 0.69716 0.48748 0.0
H273 H 0.25996 0.82123 0.53343 0.0
H274 H 0.2781 0.79339 0.51359 0.0
C275 C 0.30603 0.67992 0.47886 0.0
C276 C 0.27516 0.72767 0.48088 0.0
H277 H 0.27372 0.77504 0.47081 0.0
C278 C 0.25989 0.72712 0.50198 0.0
C279 C 0.2808 0.74525 0.4699 0.0
C280 C 0.29865 0.74707 0.44846 0.0
C281 C 0.24991 0.74353 0.51226 0.0
C282 C 0.25435 0.76099 0.50044 0.0
C283 C 0.26995 0.76163 0.47958 0.0
C284 C 0.24321 0.77868 0.50979 0.0
C285 C 0.23526 0.74197 0.53608 0.0
C286 C 0.21753 0.78 0.5132 0.0
C287 C 0.20729 0.79564 0.52495 0.0
C288 C 0.22245 0.81053 0.53275 0.0
C289 C 0.2479 0.80991 0.52757 0.0
C290 C 0.25825 0.79402 0.5163 0.0
H291 H 0.24032 0.72913 0.54666 0.0
H292 H 0.23825 0.75435 0.54826 0.0
H293 H 0.21526 0.74102 0.53158 0.0
H294 H 0.20545 0.76866 0.5075 0.0
H295 H 0.18754 0.79591 0.52841 0.0
H296 H 0.24555 0.82862 0.98993 0.0
H297 H 0.22801 0.80288 0.01469 0.0
H298 H 0.28578 0.76596 0.98876 0.0
H299 H 0.30339 0.79141 0.96426 0.0
H300 H 0.21092 0.76869 0.99478 0.0
H301 H 0.28505 0.75643 0.06397 0.0
H302 H 0.28268 0.77792 0.04626 0.0
H303 H 0.29643 0.75733 0.03263 0.0
C304 C 0.25471 0.8151 0.98986 0.0
C305 C 0.27583 0.81204 0.97514 0.0
C306 C 0.24467 0.80043 0.00396 0.0
C307 C 0.2558 0.78261 0.00379 0.0
C308 C 0.27719 0.77969 0.98956 0.0
H309 H 0.19895 0.67148 0.02154 0.0
H310 H 0.21499 0.70177 0.00751 0.0
C311 C 0.28713 0.79425 0.97541 0.0
C312 C 0.24415 0.76652 0.01668 0.0
H313 H 0.25633 0.7311 0.05764 0.0
C314 C 0.22066 0.76062 0.0088 0.0
C315 C 0.25682 0.75613 0.03512 0.0
C316 C 0.28154 0.76237 0.04519 0.0
C317 C 0.20999 0.74407 0.01802 0.0
C318 C 0.22336 0.73306 0.0353 0.0
C319 C 0.2463 0.73944 0.04411 0.0
C320 C 0.21408 0.71464 0.04396 0.0
C321 C 0.18462 0.73842 0.00903 0.0
C322 C 0.209 0.71169 0.06921 0.0
C323 C 0.19994 0.69436 0.07733 0.0
C324 C 0.19598 0.67962 0.06033 0.0
C325 C 0.20167 0.68253 0.03511 0.0
C326 C 0.21068 0.69987 0.02702 0.0
H327 H 0.17427 0.75059 0.00135 0.0
H328 H 0.18656 0.72781 0.99403 0.0
H329 H 0.17359 0.73208 0.0243 0.0
H330 H 0.2117 0.72288 0.08258 0.0
H331 H 0.19582 0.69261 0.0969 0.0
H332 H 0.30604 0.30375 0.59277 0.0
H333 H 0.29106 0.27295 0.57922 0.0
H334 H 0.28516 0.29333 0.50399 0.0
H335 H 0.30018 0.32412 0.51722 0.0
H336 H 0.24576 0.26368 0.55447 0.0
H337 H 0.32845 0.24535 0.49836 0.0
H338 H 0.32861 0.26383 0.5214 0.0
H339 H 0.31555 0.26796 0.49115 0.0
C340 C 0.3015 0.30171 0.57334 0.0
C341 C 0.30443 0.31639 0.55605 0.0
C342 C 0.29297 0.2841 0.56566 0.0
C343 C 0.28746 0.28082 0.54057 0.0
C344 C 0.2898 0.29552 0.52337 0.0
H345 H 0.20036 0.20347 0.46038 0.0
H346 H 0.21799 0.22906 0.48466 0.0
C347 C 0.29822 0.31314 0.53102 0.0
C348 C 0.27885 0.26213 0.53226 0.0
H349 H 0.29229 0.22666 0.49177 0.0
C350 C 0.25605 0.25545 0.541 0.0
C351 C 0.29255 0.25129 0.51505 0.0
C352 C 0.31778 0.25735 0.50609 0.0
C353 C 0.24593 0.23864 0.53192 0.0
C354 C 0.2589 0.22843 0.5135 0.0
C355 C 0.28232 0.2346 0.50578 0.0
C356 C 0.24753 0.21235 0.50037 0.0
C357 C 0.22125 0.23212 0.54176 0.0
C358 C 0.25851 0.19448 0.50093 0.0
C359 C 0.24844 0.17972 0.48699 0.0
C360 C 0.22749 0.18275 0.47202 0.0
C361 C 0.21651 0.20065 0.47172 0.0
C362 C 0.22644 0.21528 0.48573 0.0
H363 H 0.21737 0.2381 0.56045 0.0
H364 H 0.2064 0.23687 0.52897 0.0
H365 H 0.22049 0.21656 0.54294 0.0
H366 H 0.27496 0.19203 0.51197 0.0
H367 H 0.25735 0.1661 0.48752 0.0
H368 H 0.74659 0.67756 0.01228 0.0
H369 H 0.72745 0.7022 0.9867 0.0
H370 H 0.77748 0.74308 0.01788 0.0
H371 H 0.79656 0.71877 0.04336 0.0
H372 H 0.70472 0.73589 0.00599 0.0
H373 H 0.78216 0.75169 0.94174 0.0
H374 H 0.7801 0.72996 0.95899 0.0
H375 H 0.79121 0.75095 0.97386 0.0
C376 C 0.75365 0.69177 0.01345 0.0
C377 C 0.77307 0.69623 0.02983 0.0
C378 C 0.74271 0.7058 0.99887 0.0
C379 C 0.75131 0.72437 0.00019 0.0
C380 C 0.77088 0.72876 0.01627 0.0
H381 H 0.6904 0.83291 0.98006 0.0
H382 H 0.70626 0.80257 0.99399 0.0
C383 C 0.78165 0.71485 0.03094 0.0
C384 C 0.739 0.73959 0.98617 0.0
H385 H 0.75076 0.77537 0.94564 0.0
C386 C 0.7146 0.74435 0.99247 0.0
C387 C 0.75188 0.75047 0.9684 0.0
C388 C 0.77772 0.74543 0.96013 0.0
C389 C 0.70322 0.76035 0.98245 0.0
C390 C 0.71671 0.77192 0.96594 0.0
C391 C 0.74058 0.76657 0.95855 0.0
C392 C 0.70689 0.79017 0.95727 0.0
C393 C 0.67702 0.76497 0.98997 0.0
C394 C 0.70257 0.79336 0.93191 0.0
C395 C 0.69352 0.81072 0.92384 0.0
C396 C 0.68893 0.82525 0.94099 0.0
C397 C 0.69368 0.82204 0.96635 0.0
C398 C 0.70258 0.80467 0.97439 0.0
H399 H 0.66713 0.7524 0.99711 0.0
H400 H 0.67737 0.77565 0.00499 0.0
H401 H 0.66645 0.77085 0.97406 0.0
H402 H 0.706 0.78236 0.91842 0.0
H403 H 0.69013 0.81274 0.90417 0.0
H404 H 0.82306 0.19711 0.40715 0.0
H405 H 0.80944 0.22771 0.42294 0.0
H406 H 0.7864 0.20169 0.49151 0.0
H407 H 0.80014 0.17121 0.47615 0.0
H408 H 0.7626 0.23945 0.4395 0.0
H409 H 0.83196 0.24403 0.515 0.0
H410 H 0.83464 0.22752 0.48964 0.0
H411 H 0.81489 0.22243 0.51573 0.0
C412 C 0.81507 0.1979 0.42559 0.0
C413 C 0.81287 0.18172 0.44047 0.0
C414 C 0.80733 0.21539 0.43456 0.0
C415 C 0.79742 0.21699 0.45857 0.0
C416 C 0.79458 0.20081 0.47316 0.0
H417 H 0.71961 0.28813 0.55433 0.0
H418 H 0.74044 0.26385 0.53018 0.0
C419 C 0.8023 0.18337 0.46426 0.0
C420 C 0.78958 0.23545 0.46848 0.0
H421 H 0.79651 0.26428 0.51871 0.0
C422 C 0.77031 0.24511 0.45654 0.0
C423 C 0.79988 0.24288 0.49058 0.0
C424 C 0.82166 0.23378 0.50335 0.0
C425 C 0.75999 0.26139 0.46705 0.0
C426 C 0.76931 0.26809 0.48993 0.0
C427 C 0.78938 0.259 0.50119 0.0
C428 C 0.75674 0.28317 0.50388 0.0
C429 C 0.73836 0.27079 0.45446 0.0
C430 C 0.75916 0.30209 0.49703 0.0
C431 C 0.74731 0.31612 0.51092 0.0
C432 C 0.73286 0.31133 0.53174 0.0
C433 C 0.73054 0.29232 0.53838 0.0
C434 C 0.74244 0.2784 0.52464 0.0
H435 H 0.73268 0.26339 0.43719 0.0
H436 H 0.72233 0.27133 0.46737 0.0
H437 H 0.74334 0.28548 0.44968 0.0
H438 H 0.77029 0.30598 0.48109 0.0
H439 H 0.74944 0.33064 0.50536 0.0
H440 H 0.75118 0.33068 0.99268 0.0
H441 H 0.73154 0.30549 0.01698 0.0
H442 H 0.75983 0.26438 0.96547 0.0
H443 H 0.77947 0.28918 0.94128 0.0
H444 H 0.70452 0.26423 0.97853 0.0
H445 H 0.77018 0.26243 0.05852 0.0
H446 H 0.75893 0.28469 0.04718 0.0
H447 H 0.77959 0.27107 0.02838 0.0
C448 C 0.75326 0.31626 0.98662 0.0
C449 C 0.76689 0.31192 0.96507 0.0
C450 C 0.74211 0.30193 0.00053 0.0
C451 C 0.7444 0.28315 0.99299 0.0
C452 C 0.75795 0.27882 0.97155 0.0
H453 H 0.69976 0.17094 0.02079 0.0
H454 H 0.71413 0.20118 0.00515 0.0
C455 C 0.76916 0.29303 0.95778 0.0
C456 C 0.73228 0.26779 0.00682 0.0
H457 H 0.73983 0.23878 0.05674 0.0
C458 C 0.71199 0.25879 0.99581 0.0
C459 C 0.74204 0.26088 0.02939 0.0
C460 C 0.76393 0.27015 0.0417 0.0
C461 C 0.70162 0.24263 0.00641 0.0
C462 C 0.71227 0.23504 0.02824 0.0
C463 C 0.73185 0.24456 0.03989 0.0
C464 C 0.70424 0.21668 0.03832 0.0
C465 C 0.67951 0.23371 0.99397 0.0
C466 C 0.69479 0.21525 0.06253 0.0
C467 C 0.68672 0.1979 0.07166 0.0
C468 C 0.68809 0.18169 0.05672 0.0
C469 C 0.69823 0.18314 0.03272 0.0
C470 C 0.70631 0.20045 0.02368 0.0
H471 H 0.66915 0.24405 0.98254 0.0
H472 H 0.68594 0.22233 0.98144 0.0
H473 H 0.66669 0.22753 0.00788 0.0
H474 H 0.69326 0.2276 0.0742 0.0
H475 H 0.67908 0.19726 0.09025 0.0
H476 H 0.82091 0.82905 0.51405 0.0
H477 H 0.80391 0.79932 0.49931 0.0
H478 H 0.77465 0.78811 0.57247 0.0
H479 H 0.79274 0.81751 0.58766 0.0
H480 H 0.79303 0.75702 0.55309 0.0
H481 H 0.73311 0.79072 0.48272 0.0
H482 H 0.765 0.79646 0.47776 0.0
H483 H 0.74968 0.8041 0.50578 0.0
C484 C 0.8108 0.82027 0.52699 0.0
C485 C 0.80788 0.8257 0.55193 0.0
C486 C 0.80099 0.80332 0.51851 0.0
C487 C 0.7874 0.79171 0.53459 0.0
C488 C 0.78491 0.7969 0.55967 0.0
H489 H 0.6899 0.70768 0.47229 0.0
H490 H 0.7073 0.73402 0.49544 0.0
C491 C 0.79518 0.81371 0.56831 0.0
C492 C 0.7757 0.77426 0.52514 0.0
H493 H 0.73834 0.75761 0.47909 0.0
C494 C 0.78086 0.75714 0.53704 0.0
C495 C 0.75945 0.77445 0.50451 0.0
C496 C 0.75127 0.79245 0.49215 0.0
C497 C 0.77061 0.74016 0.52857 0.0
C498 C 0.75547 0.74025 0.50707 0.0
C499 C 0.75008 0.75744 0.49545 0.0
C500 C 0.74462 0.7229 0.49622 0.0
C501 C 0.7757 0.72245 0.54308 0.0
C502 C 0.7596 0.70756 0.48948 0.0
C503 C 0.74945 0.69219 0.47683 0.0
C504 C 0.72437 0.69225 0.47004 0.0
C505 C 0.70934 0.70737 0.47721 0.0
C506 C 0.71929 0.72243 0.49041 0.0
H507 H 0.78019 0.72562 0.5628 0.0
H508 H 0.75963 0.71275 0.54261 0.0
H509 H 0.79192 0.71518 0.53486 0.0
H510 H 0.7793 0.70777 0.49308 0.0
H511 H 0.76144 0.68075 0.47123 0.0
H512 H 0.27331 0.05116 0.07517 0.0
H513 H 0.26312 0.02288 0.05169 0.0
H514 H 0.24559 0.05665 0.98754 0.0
H515 H 0.25592 0.0852 0.01096 0.0
H516 H 0.21964 0.01078 0.02314 0.0
H517 H 0.30457 0.02218 0.96632 0.0
H518 H 0.2992 0.0345 0.99514 0.0
H519 H 0.28264 0.04115 0.9676 0.0
C520 C 0.26695 0.05264 0.05617 0.0
C521 C 0.26574 0.0704 0.04479 0.0
C522 C 0.26102 0.03645 0.04283 0.0
C523 C 0.25389 0.03769 0.01785 0.0
C524 C 0.25128 0.05544 0.00678 0.0
H525 H 0.26181 0.94605 0.91138 0.0
H526 H 0.25155 0.97625 0.9302 0.0
C527 C 0.25713 0.07171 0.02018 0.0
C528 C 0.25171 0.02028 0.003 0.0
H529 H 0.28243 0.99448 0.95942 0.0
C530 C 0.23314 0.00725 0.00896 0.0
C531 C 0.26943 0.01575 0.98462 0.0
C532 C 0.29023 0.02901 0.97804 0.0
C533 C 0.23199 0.98966 0.99715 0.0
C534 C 0.25027 0.98487 0.97939 0.0
C535 C 0.26838 0.99816 0.97299 0.0
C536 C 0.25205 0.96592 0.96803 0.0
C537 C 0.21125 0.97642 0.00381 0.0
C538 C 0.25516 0.9499 0.98299 0.0
C539 C 0.26077 0.93251 0.97222 0.0
C540 C 0.26384 0.93097 0.94637 0.0
C541 C 0.25972 0.94683 0.93139 0.0
C542 C 0.25382 0.96411 0.94211 0.0
H543 H 0.1948 0.98418 0.01074 0.0
H544 H 0.20564 0.96773 0.98761 0.0
H545 H 0.21754 0.9669 0.01887 0.0
H546 H 0.25451 0.95101 0.00306 0.0
H547 H 0.26401 0.92055 0.98423 0.0
H548 H 0.23169 0.94499 0.58332 0.0
H549 H 0.24207 0.97274 0.55886 0.0
H550 H 0.25252 0.9381 0.49395 0.0
H551 H 0.24188 0.91012 0.51828 0.0
H552 H 0.28312 0.98384 0.52645 0.0
H553 H 0.19328 0.97349 0.47751 0.0
H554 H 0.20088 0.96123 0.50584 0.0
H555 H 0.21453 0.95408 0.4769 0.0
C556 C 0.23661 0.94318 0.56394 0.0
C557 C 0.23557 0.92539 0.55261 0.0
C558 C 0.24267 0.95907 0.55004 0.0
C559 C 0.24771 0.95747 0.52458 0.0
C560 C 0.24841 0.9396 0.51356 0.0
H561 H 0.23428 0.04648 0.41551 0.0
H562 H 0.24555 0.01675 0.435 0.0
C563 C 0.24238 0.92364 0.52749 0.0
C564 C 0.24923 0.97467 0.50926 0.0
H565 H 0.21604 1.0003 0.46742 0.0
C566 C 0.26865 0.98741 0.51329 0.0
C567 C 0.23021 0.97928 0.49228 0.0
C568 C 0.20841 0.96642 0.4879 0.0
C569 C 0.26948 0.00474 0.5008 0.0
C570 C 0.25007 0.00955 0.48433 0.0
C571 C 0.23099 0.99658 0.47995 0.0
C572 C 0.24816 0.0282 0.47219 0.0
C573 C 0.2911 0.01768 0.50534 0.0
C574 C 0.24658 0.04468 0.4865 0.0
C575 C 0.24041 0.0618 0.47531 0.0
C576 C 0.23523 0.06259 0.44974 0.0
C577 C 0.23797 0.04627 0.43531 0.0
C578 C 0.24447 0.02927 0.44641 0.0
H579 H 0.30772 0.00975 0.5115 0.0
H580 H 0.29586 0.02578 0.48836 0.0
H581 H 0.28621 0.02776 0.5203 0.0
H582 H 0.24876 0.04415 0.5065 0.0
H583 H 0.23828 0.07415 0.48689 0.0
H584 H 0.69256 0.93974 0.92469 0.0
H585 H 0.70192 0.97179 0.93843 0.0
H586 H 0.69271 0.95479 0.01481 0.0
H587 H 0.68339 0.92282 0.00132 0.0
H588 H 0.6665 0.99256 0.96616 0.0
H589 H 0.75578 0.98767 0.01669 0.0
H590 H 0.74587 0.97026 0.99434 0.0
H591 H 0.73336 0.97021 0.0253 0.0
C592 C 0.69309 0.94273 0.94443 0.0
C593 C 0.68711 0.92878 0.96191 0.0
C594 C 0.69843 0.96103 0.95224 0.0
C595 C 0.69826 0.96559 0.97764 0.0
C596 C 0.69341 0.95149 0.99515 0.0
H597 H 0.68811 0.06406 0.06951 0.0
H598 H 0.69569 0.03264 0.05251 0.0
C599 C 0.6879 0.93325 0.98738 0.0
C600 C 0.69992 0.98542 0.98573 0.0
H601 H 0.73191 0.01549 0.02336 0.0
C602 C 0.681 0.99769 0.97836 0.0
C603 C 0.71867 0.99192 0.00191 0.0
C604 C 0.73971 0.97939 0.0099 0.0
C605 C 0.67981 0.01613 0.98739 0.0
C606 C 0.6985 0.02267 0.0037 0.0
C607 C 0.71768 0.01048 0.01078 0.0
C608 C 0.69771 0.0419 0.01424 0.0
C609 C 0.6579 0.02814 0.98022 0.0
C610 C 0.69744 0.05759 0.99848 0.0
C611 C 0.69281 0.07547 0.00808 0.0
C612 C 0.68885 0.07803 0.0337 0.0
C613 C 0.69105 0.06251 0.04969 0.0
C614 C 0.69537 0.04456 0.04001 0.0
H615 H 0.64227 0.01955 0.97308 0.0
H616 H 0.65122 0.03651 0.9963 0.0
H617 H 0.6635 0.03799 0.96527 0.0
H618 H 0.69985 0.05592 0.97861 0.0
H619 H 0.69155 0.0872 0.99533 0.0
H620 H 0.81256 0.0821 0.49798 0.0
H621 H 0.80354 0.04974 0.50996 0.0
H622 H 0.79438 0.03471 0.43285 0.0
H623 H 0.80357 0.06712 0.42058 0.0
H624 H 0.76295 0.02334 0.49913 0.0
H625 H 0.85412 0.00302 0.45894 0.0
H626 H 0.84595 0.02715 0.4651 0.0
H627 H 0.83318 0.01524 0.43863 0.0
C628 C 0.80822 0.07201 0.48355 0.0
C629 C 0.80911 0.07711 0.4583 0.0
C630 C 0.80297 0.05354 0.49046 0.0
C631 C 0.79863 0.03984 0.47227 0.0
C632 C 0.79794 0.0451 0.44713 0.0
H633 H 0.81141 0.91901 0.48893 0.0
H634 H 0.80149 0.94995 0.47214 0.0
C635 C 0.80314 0.06361 0.44017 0.0
C636 C 0.79741 0.01984 0.47959 0.0
H637 H 0.83102 0.97935 0.47822 0.0
C638 C 0.77767 0.01361 0.4944 0.0
C639 C 0.81674 0.00729 0.47346 0.0
C640 C 0.83883 0.01344 0.45832 0.0
C641 C 0.77677 0.99506 0.50331 0.0
C642 C 0.79643 0.98264 0.49766 0.0
C643 C 0.8159 0.98884 0.48245 0.0
C644 C 0.79808 0.96339 0.50808 0.0
C645 C 0.75477 0.98895 0.51853 0.0
C646 C 0.7989 0.96052 0.53392 0.0
C647 C 0.80433 0.94275 0.5436 0.0
C648 C 0.80949 0.92766 0.52757 0.0
C649 C 0.80766 0.9304 0.50176 0.0
C650 C 0.80196 0.94807 0.49212 0.0
H651 H 0.73822 0.99768 0.5144 0.0
H652 H 0.75014 0.97399 0.51507 0.0
H653 H 0.75914 0.99065 0.53856 0.0
H654 H 0.79657 0.9722 0.5466 0.0
H655 H 0.80578 0.94109 0.56357 0.0
H656 H 0.80692 0.4503 0.93911 0.0
H657 H 0.79598 0.47956 0.95959 0.0
H658 H 0.73122 0.45325 0.99116 0.0
H659 H 0.743 0.42337 0.97156 0.0
H660 H 0.75811 0.50197 0.95532 0.0
H661 H 0.76084 0.47505 0.0524 0.0
H662 H 0.77125 0.46119 0.02642 0.0
H663 H 0.7387 0.46392 0.03239 0.0
C664 C 0.79036 0.45068 0.95047 0.0
C665 C 0.7759 0.43452 0.95389 0.0
C666 C 0.78406 0.46747 0.96211 0.0
C667 C 0.7629 0.46864 0.97718 0.0
C668 C 0.74797 0.45261 0.98015 0.0
H669 H 0.7438 0.5864 0.02837 0.0
H670 H 0.73197 0.55645 0.00902 0.0
C671 C 0.75462 0.43559 0.96886 0.0
C672 C 0.75733 0.48671 0.98985 0.0
H673 H 0.75444 0.50727 0.0471 0.0
C674 C 0.75706 0.50315 0.9754 0.0
C675 C 0.7558 0.4882 0.01605 0.0
C676 C 0.75684 0.4712 0.03279 0.0
C677 C 0.7574 0.52103 0.98639 0.0
C678 C 0.75681 0.52253 0.01264 0.0
C679 C 0.75499 0.50609 0.027 0.0
C680 C 0.76187 0.54054 0.02568 0.0
C681 C 0.76028 0.53798 0.96977 0.0
C682 C 0.78184 0.54142 0.04231 0.0
C683 C 0.78812 0.55827 0.05382 0.0
C684 C 0.77483 0.57476 0.0487 0.0
C685 C 0.75453 0.57392 0.0324 0.0
C686 C 0.74787 0.55685 0.02124 0.0
H687 H 0.76576 0.53403 0.95055 0.0
H688 H 0.74238 0.54555 0.96866 0.0
H689 H 0.77442 0.54776 0.97729 0.0
H690 H 0.79301 0.52909 0.04602 0.0
H691 H 0.8039 0.55844 0.06625 0.0
H692 H 0.69392 0.4484 0.55505 0.0
H693 H 0.70731 0.47727 0.53519 0.0
H694 H 0.77296 0.44938 0.50815 0.0
H695 H 0.75879 0.41988 0.52715 0.0
H696 H 0.74607 0.49881 0.54185 0.0
H697 H 0.74775 0.47138 0.44487 0.0
H698 H 0.73519 0.45791 0.47026 0.0
H699 H 0.76813 0.46005 0.46653 0.0
C700 C 0.7112 0.44835 0.54485 0.0
C701 C 0.72524 0.43186 0.5425 0.0
C702 C 0.71892 0.46492 0.53356 0.0
C703 C 0.74105 0.46553 0.51994 0.0
C704 C 0.75553 0.44918 0.51805 0.0
H705 H 0.75877 0.5833 0.46891 0.0
H706 H 0.77245 0.55369 0.48794 0.0
C707 C 0.7475 0.43237 0.529 0.0
C708 C 0.74799 0.48339 0.50748 0.0
H709 H 0.75293 0.50365 0.45021 0.0
C710 C 0.74791 0.4999 0.52181 0.0
C711 C 0.75065 0.48473 0.48136 0.0
C712 C 0.75029 0.46763 0.46476 0.0
C713 C 0.7479 0.51772 0.51068 0.0
C714 C 0.7492 0.51906 0.48444 0.0
C715 C 0.75178 0.50257 0.4703 0.0
C716 C 0.74355 0.53684 0.47112 0.0
C717 C 0.74439 0.53474 0.52706 0.0
C718 C 0.72361 0.53709 0.4544 0.0
C719 C 0.71628 0.55375 0.44309 0.0
C720 C 0.72846 0.57068 0.44848 0.0
C721 C 0.74888 0.57046 0.46467 0.0
C722 C 0.75659 0.55359 0.47566 0.0
H723 H 0.73896 0.53087 0.54631 0.0
H724 H 0.76201 0.54268 0.52812 0.0
H725 H 0.72995 0.54417 0.51933 0.0
H726 H 0.71316 0.52442 0.45061 0.0
H727 H 0.70047 0.55343 0.43071 0.0
H728 H 0.15744 0.57676 0.00686 0.0
H729 H 0.16516 0.54491 0.99246 0.0
H730 H 0.22524 0.53967 0.04493 0.0
H731 H 0.21624 0.5713 0.06072 0.0
H732 H 0.2004 0.52795 0.97099 0.0
H733 H 0.18844 0.49412 0.06322 0.0
H734 H 0.18225 0.51867 0.05832 0.0
H735 H 0.21358 0.5105 0.06215 0.0
C736 C 0.17234 0.56884 0.01532 0.0
C737 C 0.18611 0.57642 0.03505 0.0
C738 C 0.1768 0.55061 0.00703 0.0
C739 C 0.19549 0.53962 0.01789 0.0
C740 C 0.21016 0.54754 0.0368 0.0
H741 H 0.21456 0.43019 0.94106 0.0
H742 H 0.22444 0.46173 0.95665 0.0
C743 C 0.20518 0.56567 0.04566 0.0
C744 C 0.19877 0.51982 0.00952 0.0
H745 H 0.19775 0.47435 0.02963 0.0
C746 C 0.19986 0.51622 0.98384 0.0
C747 C 0.19804 0.50446 0.02625 0.0
C748 C 0.19528 0.50707 0.05398 0.0
C749 C 0.19873 0.49786 0.97434 0.0
C750 C 0.19793 0.48251 0.99107 0.0
C751 C 0.19836 0.48608 0.01678 0.0
C752 C 0.19378 0.46283 0.98261 0.0
C753 C 0.19679 0.49532 0.94653 0.0
C754 C 0.17415 0.45248 0.99288 0.0
C755 C 0.16915 0.43429 0.98472 0.0
C756 C 0.18332 0.42614 0.96569 0.0
C757 C 0.2032 0.43628 0.95557 0.0
C758 C 0.20869 0.45436 0.96431 0.0
H759 H 0.19103 0.50848 0.93707 0.0
H760 H 0.21515 0.49127 0.93901 0.0
H761 H 0.18326 0.48416 0.94173 0.0
H762 H 0.16229 0.45861 0.00696 0.0
H763 H 0.15363 0.42684 0.99279 0.0
H764 H 0.31444 0.57515 0.50835 0.0
H765 H 0.30602 0.54253 0.51952 0.0
H766 H 0.29216 0.52935 0.44252 0.0
H767 H 0.30071 0.56204 0.43107 0.0
H768 H 0.26421 0.51708 0.51008 0.0
H769 H 0.35218 0.496 0.46387 0.0
H770 H 0.34521 0.52013 0.47141 0.0
H771 H 0.33053 0.50907 0.4453 0.0
C772 C 0.30925 0.56541 0.4938 0.0
C773 C 0.30853 0.57113 0.46877 0.0
C774 C 0.30436 0.54678 0.50024 0.0
C775 C 0.29879 0.53353 0.48181 0.0
C776 C 0.29669 0.53938 0.45697 0.0
H777 H 0.30739 0.41199 0.49305 0.0
H778 H 0.29837 0.44361 0.47802 0.0
C779 C 0.30151 0.55805 0.45049 0.0
C780 C 0.29738 0.5134 0.48846 0.0
H781 H 0.32938 0.4723 0.48353 0.0
C782 C 0.27829 0.5072 0.50413 0.0
C783 C 0.31586 0.50063 0.48072 0.0
C784 C 0.33725 0.50672 0.46454 0.0
C785 C 0.27724 0.48847 0.51233 0.0
C786 C 0.29609 0.4758 0.50507 0.0
C787 C 0.31488 0.48199 0.48901 0.0
C788 C 0.29757 0.45627 0.5146 0.0
C789 C 0.25589 0.48243 0.52853 0.0
C790 C 0.29963 0.45277 0.54023 0.0
C791 C 0.30456 0.43463 0.54891 0.0
C792 C 0.30795 0.41975 0.53206 0.0
C793 C 0.30498 0.42317 0.5065 0.0
C794 C 0.29981 0.44124 0.49787 0.0
H795 H 0.23948 0.49159 0.52572 0.0
H796 H 0.25051 0.46766 0.52471 0.0
H797 H 0.26144 0.48354 0.54834 0.0
H798 H 0.29858 0.46419 0.55348 0.0
H799 H 0.30693 0.43245 0.5687 0.0
H800 H 0.57457 0.13598 0.11194 0.0
H801 H 0.52971 0.13338 0.10813 0.0
H802 H 0.53808 0.10807 0.03573 0.0
H803 H 0.58305 0.11101 0.03911 0.0
H804 H 0.50381 0.1356 0.0355 0.0
H805 H 0.48597 0.08763 0.11441 0.0
H806 H 0.5031 0.10803 0.12371 0.0
H807 H 0.51663 0.09161 0.10218 0.0
C808 C 0.56691 0.12971 0.09528 0.0
C809 C 0.5824 0.12367 0.07585 0.0
C810 C 0.54125 0.12812 0.09321 0.0
C811 C 0.53058 0.12022 0.07184 0.0
C812 C 0.54596 0.1141 0.05245 0.0
H813 H 0.37199 0.09611 0.06707 0.0
H814 H 0.41701 0.09297 0.06484 0.0
C815 C 0.57165 0.1158 0.05442 0.0
C816 C 0.50332 0.1193 0.06924 0.0
H817 H 0.45086 0.10439 0.09849 0.0
C818 C 0.49223 0.12859 0.04911 0.0
C819 C 0.48826 0.10987 0.08677 0.0
C820 C 0.49911 0.09855 0.10783 0.0
C821 C 0.46642 0.12935 0.04657 0.0
C822 C 0.45135 0.12096 0.06498 0.0
C823 C 0.46245 0.11102 0.08455 0.0
C824 C 0.42406 0.12288 0.06482 0.0
C825 C 0.45558 0.13911 0.02418 0.0
C826 C 0.41312 0.14074 0.06563 0.0
C827 C 0.38744 0.1426 0.06674 0.0
C828 C 0.37218 0.12661 0.06743 0.0
C829 C 0.3832 0.10872 0.06657 0.0
C830 C 0.40892 0.10688 0.0653 0.0
H831 H 0.46886 0.1393 0.0084 0.0
H832 H 0.43824 0.1322 0.01796 0.0
H833 H 0.4513 0.1539 0.02908 0.0
H834 H 0.42448 0.15327 0.06594 0.0
H835 H 0.37959 0.15658 0.06759 0.0
H836 H 0.91765 0.88678 0.53766 0.0
H837 H 0.9628 0.88769 0.53747 0.0
H838 H 0.96367 0.87846 0.61672 0.0
H839 H 0.91845 0.87707 0.61705 0.0
H840 H 0.9963 0.91034 0.56132 0.0
H841 H 0.00708 0.83612 0.59098 0.0
H842 H 0.97778 0.84571 0.58117 0.0
H843 H 0.98915 0.85016 0.61205 0.0
C844 C 0.9274 0.88497 0.55509 0.0
C845 C 0.91444 0.88165 0.57735 0.0
C846 C 0.95322 0.88554 0.55493 0.0
C847 C 0.96657 0.88282 0.57699 0.0
C848 C 0.95371 0.88016 0.59939 0.0
H849 H 0.12482 0.90196 0.59603 0.0
H850 H 0.07977 0.90524 0.59584 0.0
C851 C 0.92787 0.87945 0.59956 0.0
C852 C 0.99394 0.88237 0.57634 0.0
H853 H 0.04365 0.85427 0.58829 0.0
C854 C 0.0067 0.8981 0.5672 0.0
C855 C 0.00739 0.86626 0.58368 0.0
C856 C 0.99468 0.84853 0.5923 0.0
C857 C 0.03261 0.89818 0.56531 0.0
C858 C 0.04606 0.88223 0.57325 0.0
C859 C 0.03328 0.86651 0.58233 0.0
C860 C 0.07341 0.88126 0.57192 0.0
C861 C 0.04526 0.91512 0.55426 0.0
C862 C 0.08476 0.86662 0.55871 0.0
C863 C 0.11043 0.86455 0.55906 0.0
C864 C 0.12527 0.87713 0.5726 0.0
C865 C 0.11392 0.89212 0.58527 0.0
C866 C 0.08817 0.89407 0.58509 0.0
H867 H 0.03228 0.92371 0.54297 0.0
H868 H 0.05242 0.92411 0.56951 0.0
H869 H 0.0611 0.91091 0.54236 0.0
H870 H 0.07369 0.85657 0.54845 0.0
H871 H 0.11859 0.8529 0.54903 0.0
H872 H 0.37091 0.90277 0.90638 0.0
H873 H 0.41597 0.90569 0.90398 0.0
H874 H 0.42409 0.85419 0.94536 0.0
H875 H 0.37918 0.85091 0.9474 0.0
H876 H 0.45215 0.90804 0.93975 0.0
H877 H 0.46428 0.8437 0.88304 0.0
H878 H 0.43441 0.85431 0.88827 0.0
H879 H 0.44806 0.83944 0.9116 0.0
C880 C 0.38228 0.8921 0.91507 0.0
C881 C 0.37145 0.87649 0.92684 0.0
C882 C 0.40801 0.8938 0.91367 0.0
C883 C 0.42333 0.87994 0.92401 0.0
C884 C 0.41259 0.86478 0.93668 0.0
H885 H 0.57922 0.88462 0.95792 0.0
H886 H 0.53409 0.88605 0.95847 0.0
C887 C 0.3869 0.86299 0.93795 0.0
C888 C 0.45055 0.88119 0.92138 0.0
H889 H 0.50088 0.85705 0.9003 0.0
C890 C 0.46283 0.89697 0.93099 0.0
C891 C 0.46436 0.8669 0.90948 0.0
C892 C 0.4521 0.85023 0.89728 0.0
C893 C 0.48869 0.89856 0.9297 0.0
C894 C 0.50259 0.88378 0.91899 0.0
C895 C 0.49022 0.86828 0.90874 0.0
C896 C 0.53001 0.88386 0.91853 0.0
C897 C 0.50081 0.91613 0.93958 0.0
C898 C 0.54271 0.88172 0.89594 0.0
C899 C 0.56852 0.88061 0.89558 0.0
C900 C 0.58212 0.88162 0.91784 0.0
C901 C 0.56933 0.88393 0.94042 0.0
C902 C 0.54352 0.8849 0.94077 0.0
H903 H 0.48769 0.92815 0.93983 0.0
H904 H 0.507 0.91363 0.95897 0.0
H905 H 0.51719 0.92007 0.92827 0.0
H906 H 0.53262 0.88078 0.87858 0.0
H907 H 0.57778 0.87885 0.87788 0.0
H908 H 0.12321 0.14628 0.45453 0.0
H909 H 0.07808 0.14495 0.45573 0.0
H910 H 0.07965 0.09174 0.41738 0.0
H911 H 0.12484 0.09269 0.41674 0.0
H912 H 0.04821 0.14509 0.41638 0.0
H913 H 0.03039 0.08092 0.47174 0.0
H914 H 0.06042 0.09197 0.47045 0.0
H915 H 0.05041 0.07671 0.44572 0.0
C916 C 0.11398 0.13415 0.44669 0.0
C917 C 0.12761 0.11959 0.43552 0.0
C918 C 0.08818 0.13341 0.44739 0.0
C919 C 0.07549 0.11816 0.43688 0.0
C920 C 0.08905 0.10343 0.42613 0.0
H921 H 0.92438 0.12401 0.38308 0.0
H922 H 0.9693 0.12159 0.38724 0.0
C923 C 0.11489 0.10405 0.42565 0.0
C924 C 0.04812 0.11847 0.4354 0.0
H925 H 0.99601 0.09347 0.44924 0.0
C926 C 0.03679 0.13386 0.42372 0.0
C927 C 0.03324 0.10389 0.44519 0.0
C928 C 0.04421 0.08753 0.4592 0.0
C929 C 0.01103 0.13498 0.42126 0.0
C930 C 0.9962 0.12003 0.43011 0.0
C931 C 0.00746 0.10478 0.44216 0.0
C932 C 0.96894 0.12022 0.42745 0.0
C933 C -5e-05 0.15235 0.40963 0.0
C934 C 0.9538 0.11944 0.44861 0.0
C935 C 0.9281 0.12056 0.44628 0.0
C936 C 0.91709 0.12253 0.42272 0.0
C937 C 0.93229 0.12274 0.40151 0.0
C938 C 0.95797 0.12145 0.40385 0.0
H939 H 0.01292 0.16444 0.4104 0.0
H940 H 0.99579 0.14949 0.38978 0.0
H941 H 0.98246 0.15641 0.41906 0.0
H942 H 0.96191 0.11838 0.46698 0.0
H943 H 0.91693 0.1203 0.463 0.0
H944 H 0.08055 0.64094 0.11891 0.0
H945 H 0.03544 0.64173 0.11546 0.0
H946 H 0.0399 0.61545 0.04333 0.0
H947 H 0.08497 0.61492 0.04635 0.0
H948 H 0.00948 0.6461 0.04345 0.0
H949 H 0.98639 0.5987 0.12192 0.0
H950 H 0.00598 0.61798 0.13061 0.0
H951 H 0.01724 0.6005 0.10928 0.0
C952 C 0.07194 0.63517 0.1024 0.0
C953 C 0.08637 0.62785 0.08292 0.0
C954 C 0.04614 0.63556 0.10052 0.0
C955 C 0.03433 0.62842 0.07928 0.0
C956 C 0.04867 0.62098 0.05991 0.0
H957 H 0.8769 0.60663 0.06643 0.0
H958 H 0.92198 0.60425 0.06692 0.0
C959 C 0.07443 0.62067 0.0617 0.0
C960 C 0.00708 0.62939 0.07675 0.0
H961 H 0.95299 0.61576 0.10402 0.0
C962 C 0.9971 0.63939 0.05662 0.0
C963 C 0.99102 0.62043 0.09377 0.0
C964 C 0.00066 0.60864 0.11498 0.0
C965 C 0.97144 0.64094 0.05326 0.0
C966 C 0.95538 0.63256 0.07081 0.0
C967 C 0.96536 0.6223 0.09071 0.0
C968 C 0.92814 0.63423 0.06893 0.0
C969 C 0.96178 0.65128 0.03078 0.0
C970 C 0.91667 0.6519 0.06979 0.0
C971 C 0.89089 0.65333 0.06935 0.0
C972 C 0.87611 0.63709 0.06835 0.0
C973 C 0.88771 0.61942 0.06721 0.0
C974 C 0.91347 0.61802 0.06753 0.0
H975 H 0.97595 0.65216 0.01585 0.0
H976 H 0.94502 0.64434 0.02316 0.0
H977 H 0.95676 0.66582 0.03623 0.0
H978 H 0.92764 0.66457 0.07139 0.0
H979 H 0.88257 0.66715 0.07043 0.0
H980 H 0.62149 0.39758 0.55468 0.0
H981 H 0.5763 0.39831 0.55415 0.0
H982 H 0.57426 0.33838 0.56545 0.0
H983 H 0.61948 0.33741 0.56552 0.0
H984 H 0.53987 0.35065 0.53092 0.0
H985 H 0.53531 0.39299 0.6175 0.0
H986 H 0.55322 0.40359 0.59314 0.0
H987 H 0.56346 0.38194 0.60694 0.0
C988 C 0.61146 0.38451 0.55685 0.0
C989 C 0.62411 0.36745 0.5604 0.0
C990 C 0.58563 0.38499 0.55669 0.0
C991 C 0.57199 0.36847 0.56033 0.0
C992 C 0.5845 0.35131 0.56279 0.0
H993 H 0.42021 0.35878 0.6093 0.0
H994 H 0.46523 0.35856 0.60506 0.0
C995 C 0.61034 0.35079 0.56282 0.0
C996 C 0.54468 0.3691 0.56225 0.0
H997 H 0.49742 0.38752 0.5966 0.0
C998 C 0.53055 0.3587 0.54525 0.0
C999 C 0.53265 0.37939 0.58125 0.0
C1000 C 0.5469 0.38998 0.60091 0.0
C1001 C 0.50462 0.35844 0.54659 0.0
C1002 C 0.49256 0.36918 0.56514 0.0
C1003 C 0.50672 0.37945 0.58225 0.0
C1004 C 0.46528 0.36956 0.56756 0.0
C1005 C 0.49041 0.34633 0.52851 0.0
C1006 C 0.45043 0.37614 0.54803 0.0
C1007 C 0.42468 0.37621 0.55034 0.0
C1008 C 0.41333 0.36989 0.57234 0.0
C1009 C 0.42833 0.36373 0.59209 0.0
C1010 C 0.45406 0.36358 0.58971 0.0
H1011 H 0.50236 0.33536 0.52003 0.0
H1012 H 0.47451 0.33937 0.5378 0.0
H1013 H 0.48309 0.35526 0.51329 0.0
H1014 H 0.45875 0.38125 0.53101 0.0
H1015 H 0.41369 0.38119 0.53484 0.0
H1016 H 0.08171 0.38619 0.95353 0.0
H1017 H 0.03663 0.38487 0.95555 0.0
H1018 H 0.03453 0.35819 0.88359 0.0
H1019 H 0.07972 0.35971 0.88115 0.0
H1020 H -6e-05 0.3865 0.88863 0.0
H1021 H 0.99588 0.33771 0.96888 0.0
H1022 H 0.014 0.35837 0.97475 0.0
H1023 H 0.02393 0.34184 0.9515 0.0
C1024 C 0.07171 0.38005 0.93808 0.0
C1025 C 0.08435 0.37294 0.91723 0.0
C1026 C 0.04594 0.3792 0.93937 0.0
C1027 C 0.03231 0.37108 0.91997 0.0
C1028 C 0.04477 0.36438 0.89885 0.0
H1029 H 0.8774 0.33835 0.9266 0.0
H1030 H 0.92261 0.33876 0.92438 0.0
C1031 C 0.07057 0.36528 0.89749 0.0
C1032 C 0.00503 0.3698 0.9216 0.0
H1033 H 0.95798 0.35228 0.95706 0.0
C1034 C 0.99074 0.37895 0.90351 0.0
C1035 C 0.99311 0.3597 0.94084 0.0
C1036 C 0.0075 0.34868 0.95996 0.0
C1037 C 0.96481 0.37864 0.90446 0.0
C1038 C 0.95292 0.36923 0.92431 0.0
C1039 C 0.96718 0.35969 0.94206 0.0
C1040 C 0.92565 0.369 0.92682 0.0
C1041 C 0.95039 0.38819 0.88402 0.0
C1042 C 0.91247 0.38583 0.92964 0.0
C1043 C 0.88667 0.38567 0.93085 0.0
C1044 C 0.87356 0.36863 0.92949 0.0
C1045 C 0.8869 0.35172 0.92764 0.0
C1046 C 0.91273 0.35192 0.92634 0.0
H1047 H 0.96182 0.3902 0.86706 0.0
H1048 H 0.93368 0.37995 0.87898 0.0
H1049 H 0.94431 0.40224 0.89054 0.0
H1050 H 0.92215 0.39913 0.93067 0.0
H1051 H 0.87701 0.39894 0.93249 0.0
H1052 H 0.62276 0.60003 0.43647 0.0
H1053 H 0.57765 0.59751 0.43746 0.0
H1054 H 0.57158 0.6579 0.43726 0.0
H1055 H 0.61662 0.66061 0.43682 0.0
H1056 H 0.53925 0.6413 0.46983 0.0
H1057 H 0.53419 0.60737 0.37699 0.0
H1058 H 0.55328 0.5951 0.39895 0.0
H1059 H 0.56209 0.61817 0.38862 0.0
C1060 C 0.61184 0.61279 0.43682 0.0
C1061 C 0.6233 0.63053 0.43634 0.0
C1062 C 0.58607 0.61131 0.43722 0.0
C1063 C 0.57131 0.62751 0.43687 0.0
C1064 C 0.58267 0.64522 0.43736 0.0
H1065 H 0.41778 0.63789 0.39399 0.0
H1066 H 0.46294 0.63848 0.39672 0.0
C1067 C 0.60842 0.64673 0.43711 0.0
C1068 C 0.54402 0.62611 0.43555 0.0
H1069 H 0.49666 0.60982 0.39952 0.0
C1070 C 0.5299 0.6344 0.45449 0.0
C1071 C 0.53193 0.61736 0.41528 0.0
C1072 C 0.5461 0.60915 0.39367 0.0
C1073 C 0.50396 0.63411 0.45379 0.0
C1074 C 0.49188 0.6249 0.43388 0.0
C1075 C 0.506 0.6167 0.41487 0.0
C1076 C 0.46457 0.62404 0.43209 0.0
C1077 C 0.48975 0.64407 0.47405 0.0
C1078 C 0.45059 0.61539 0.45082 0.0
C1079 C 0.42479 0.61513 0.44941 0.0
C1080 C 0.41252 0.62332 0.42905 0.0
C1081 C 0.42664 0.63148 0.40994 0.0
C1082 C 0.45244 0.63184 0.41146 0.0
H1083 H 0.50146 0.6545 0.48395 0.0
H1084 H 0.47331 0.65141 0.46637 0.0
H1085 H 0.48327 0.63362 0.48788 0.0
H1086 H 0.45963 0.60888 0.46659 0.0
H1087 H 0.41449 0.60856 0.46433 0.0
H1088 H 0.26219 0.10925 0.15294 0.0
H1089 H 0.25013 0.11251 0.19639 0.0
H1090 H 0.25945 0.17255 0.19153 0.0
H1091 H 0.27198 0.16944 0.14799 0.0
H1092 H 0.28301 0.157 0.23211 0.0
H1093 H 0.18627 0.13184 0.22693 0.0
H1094 H 0.20757 0.11566 0.21294 0.0
H1095 H 0.20361 0.13868 0.1997 0.0
C1096 C 0.26141 0.12319 0.16096 0.0
C1097 C 0.26805 0.13909 0.14696 0.0
C1098 C 0.25436 0.12503 0.18578 0.0
C1099 C 0.25354 0.14279 0.19704 0.0
C1100 C 0.25982 0.15873 0.18309 0.0
H1101 H 0.2235 0.16581 0.35502 0.0
H1102 H 0.23204 0.17068 0.31071 0.0
C1103 C 0.26694 0.15691 0.15822 0.0
C1104 C 0.24769 0.14443 0.22382 0.0
H1105 H 0.2052 0.13139 0.26743 0.0
C1106 C 0.26582 0.15173 0.23984 0.0
C1107 C 0.22521 0.13762 0.23378 0.0
C1108 C 0.20445 0.13069 0.2174 0.0
C1109 C 0.26258 0.15143 0.26573 0.0
C1110 C 0.24064 0.14372 0.27565 0.0
C1111 C 0.2221 0.13715 0.25964 0.0
C1112 C 0.23717 0.14118 0.30264 0.0
C1113 C 0.28299 0.15854 0.28238 0.0
C1114 C 0.23744 0.12302 0.3126 0.0
C1115 C 0.23267 0.12017 0.33779 0.0
C1116 C 0.22731 0.13546 0.35346 0.0
C1117 C 0.22759 0.15374 0.34347 0.0
C1118 C 0.23249 0.15656 0.31821 0.0
H1119 H 0.29991 0.16232 0.27178 0.0
H1120 H 0.27647 0.17117 0.29254 0.0
H1121 H 0.28785 0.14772 0.29643 0.0
H1122 H 0.24103 0.111 0.30077 0.0
H1123 H 0.23261 0.10592 0.34481 0.0
H1124 H 0.24815 0.87963 0.84891 0.0
H1125 H 0.23629 0.87235 0.80622 0.0
H1126 H 0.26949 0.81752 0.81289 0.0
H1127 H 0.28153 0.82466 0.85576 0.0
H1128 H 0.28602 0.83904 0.77164 0.0
H1129 H 0.18366 0.83663 0.77662 0.0
H1130 H 0.1967 0.8569 0.79157 0.0
H1131 H 0.20317 0.83388 0.80368 0.0
C1132 C 0.25262 0.8659 0.84148 0.0
C1133 C 0.26588 0.85275 0.85571 0.0
C1134 C 0.24566 0.86172 0.81713 0.0
C1135 C 0.2518 0.84433 0.80656 0.0
C1136 C 0.26445 0.83096 0.82085 0.0
H1137 H 0.20551 0.82503 0.65198 0.0
H1138 H 0.2155 0.81823 0.69551 0.0
C1139 C 0.27128 0.83508 0.84532 0.0
C1140 C 0.24708 0.84102 0.77987 0.0
H1141 H 0.20135 0.84225 0.73622 0.0
C1142 C 0.26749 0.83936 0.76389 0.0
C1143 C 0.2229 0.84124 0.76989 0.0
C1144 C 0.20032 0.84207 0.78635 0.0
C1145 C 0.26439 0.83914 0.73802 0.0
C1146 C 0.24032 0.84076 0.72802 0.0
C1147 C 0.21981 0.84118 0.74401 0.0
C1148 C 0.23616 0.84387 0.70121 0.0
C1149 C 0.28692 0.83774 0.72156 0.0
C1150 C 0.24456 0.86051 0.69014 0.0
C1151 C 0.23878 0.86451 0.66544 0.0
C1152 C 0.22449 0.85191 0.65134 0.0
C1153 C 0.21663 0.83499 0.66232 0.0
C1154 C 0.22227 0.83108 0.68715 0.0
H1155 H 0.30281 0.83132 0.73156 0.0
H1156 H 0.28293 0.8293 0.70466 0.0
H1157 H 0.29248 0.85204 0.71557 0.0
H1158 H 0.25497 0.87069 0.70085 0.0
H1159 H 0.24512 0.87765 0.65755 0.0
H1160 H 0.67857 0.8607 0.81375 0.0
H1161 H 0.70257 0.86798 0.77671 0.0
H1162 H 0.73029 0.91824 0.81181 0.0
H1163 H 0.70676 0.91068 0.84955 0.0
H1164 H 0.70238 0.8973 0.74503 0.0
H1165 H 0.79373 0.89205 0.79231 0.0
H1166 H 0.76536 0.88479 0.80709 0.0
H1167 H 0.77285 0.90931 0.8047 0.0
C1168 C 0.68969 0.87335 0.81366 0.0
C1169 C 0.69094 0.88502 0.8347 0.0
C1170 C 0.70337 0.87753 0.79239 0.0
C1171 C 0.71851 0.89351 0.79158 0.0
C1172 C 0.71915 0.90561 0.81221 0.0
H1173 H 0.78988 0.91104 0.6449 0.0
H1174 H 0.76644 0.91856 0.68272 0.0
C1175 C 0.7056 0.90133 0.8337 0.0
C1176 C 0.73407 0.89683 0.76925 0.0
H1177 H 0.79403 0.89695 0.74924 0.0
C1178 C 0.72243 0.89748 0.74592 0.0
C1179 C 0.76023 0.89698 0.7705 0.0
C1180 C 0.77387 0.8956 0.79493 0.0
C1181 C 0.73618 0.89724 0.72376 0.0
C1182 C 0.76233 0.89689 0.72501 0.0
C1183 C 0.77398 0.89729 0.74835 0.0
C1184 C 0.77784 0.8936 0.70265 0.0
C1185 C 0.72252 0.89615 0.69932 0.0
C1186 C 0.79275 0.87749 0.70163 0.0
C1187 C 0.80636 0.87333 0.68032 0.0
C1188 C 0.8053 0.88515 0.65943 0.0
C1189 C 0.79089 0.90158 0.66063 0.0
C1190 C 0.7774 0.90584 0.68216 0.0
H1191 H 0.70261 0.89275 0.70189 0.0
H1192 H 0.72375 0.9099 0.68973 0.0
H1193 H 0.73088 0.88534 0.68703 0.0
H1194 H 0.79341 0.86784 0.71719 0.0
H1195 H 0.81729 0.86058 0.68007 0.0
H1196 H 0.83466 0.13806 0.31037 0.0
H1197 H 0.80916 0.13345 0.27341 0.0
H1198 H 0.75638 0.10194 0.31669 0.0
H1199 H 0.78212 0.10618 0.35386 0.0
H1200 H 0.76462 0.08723 0.26786 0.0
H1201 H 0.74473 0.16369 0.26721 0.0
H1202 H 0.77714 0.1582 0.26659 0.0
H1203 H 0.75893 0.15207 0.29338 0.0
C1204 C 0.81778 0.12995 0.31202 0.0
C1205 C 0.81021 0.1227 0.33511 0.0
C1206 C 0.80322 0.12736 0.29087 0.0
C1207 C 0.78067 0.1177 0.29246 0.0
C1208 C 0.77369 0.10953 0.31515 0.0
H1209 H 0.66261 0.13689 0.18731 0.0
H1210 H 0.68671 0.13167 0.22502 0.0
C1211 C 0.78838 0.11199 0.33634 0.0
C1212 C 0.76366 0.11737 0.27088 0.0
H1213 H 0.73139 0.1463 0.23217 0.0
C1214 C 0.75722 0.1001 0.26006 0.0
C1215 C 0.75372 0.13418 0.26106 0.0
C1216 C 0.75875 0.15308 0.27277 0.0
C1217 C 0.74149 0.09926 0.23925 0.0
C1218 C 0.73234 0.11615 0.22887 0.0
C1219 C 0.7385 0.13335 0.24003 0.0
C1220 C 0.71626 0.11662 0.20652 0.0
C1221 C 0.73453 0.08032 0.22881 0.0
C1222 C 0.72458 0.10953 0.18362 0.0
C1223 C 0.71064 0.11235 0.16198 0.0
C1224 C 0.68842 0.12258 0.16288 0.0
C1225 C 0.67975 0.12907 0.18597 0.0
C1226 C 0.69349 0.12607 0.20756 0.0
H1227 H 0.73703 0.06899 0.24279 0.0
H1228 H 0.71502 0.08019 0.22234 0.0
H1229 H 0.74663 0.0771 0.2127 0.0
H1230 H 0.74233 0.10256 0.18225 0.0
H1231 H 0.71785 0.10728 0.14441 0.0
H1232 H 0.72078 0.67342 0.35239 0.0
H1233 H 0.73022 0.67696 0.30806 0.0
H1234 H 0.73409 0.61677 0.30028 0.0
H1235 H 0.72465 0.61302 0.34435 0.0
H1236 H 0.77247 0.66238 0.28034 0.0
H1237 H 0.68251 0.63412 0.24745 0.0
H1238 H 0.68725 0.6424 0.27884 0.0
H1239 H 0.6981 0.61955 0.26977 0.0
C1240 C 0.72373 0.66093 0.34127 0.0
C1241 C 0.72179 0.64293 0.35188 0.0
C1242 C 0.7291 0.663 0.31599 0.0
C1243 C 0.73239 0.64712 0.30094 0.0
C1244 C 0.73114 0.62918 0.31157 0.0
H1245 H 0.76795 0.61576 0.15276 0.0
H1246 H 0.75522 0.61853 0.19612 0.0
C1247 C 0.72588 0.62709 0.3368 0.0
C1248 C 0.73725 0.64912 0.27407 0.0
H1249 H 0.71441 0.63714 0.21712 0.0
C1250 C 0.7597 0.65711 0.26643 0.0
C1251 C 0.72043 0.64225 0.25613 0.0
C1252 C 0.69561 0.63424 0.26338 0.0
C1253 C 0.76634 0.65759 0.24121 0.0
C1254 C 0.74982 0.65019 0.2233 0.0
C1255 C 0.72702 0.64276 0.23094 0.0
C1256 C 0.75651 0.6489 0.19672 0.0
C1257 C 0.7914 0.66522 0.23405 0.0
C1258 C 0.76093 0.6651 0.18258 0.0
C1259 C 0.76829 0.66358 0.15775 0.0
C1260 C 0.7712 0.64581 0.14664 0.0
C1261 C 0.76599 0.62965 0.16072 0.0
C1262 C 0.75869 0.6312 0.18551 0.0
H1263 H 0.8038 0.66676 0.2504 0.0
H1264 H 0.80052 0.65592 0.22024 0.0
H1265 H 0.78907 0.67927 0.22544 0.0
H1266 H 0.75887 0.67889 0.19081 0.0
H1267 H 0.77201 0.67631 0.14739 0.0
H1268 H 0.72467 0.39623 0.64988 0.0
H1269 H 0.73466 0.39529 0.69416 0.0
H1270 H 0.73368 0.33475 0.69235 0.0
H1271 H 0.72397 0.33549 0.64798 0.0
H1272 H 0.70566 0.37862 0.73171 0.0
H1273 H 0.79958 0.34699 0.72685 0.0
H1274 H 0.7845 0.35719 0.70011 0.0
H1275 H 0.77586 0.33418 0.71071 0.0
C1276 C 0.72682 0.38269 0.6588 0.0
C1277 C 0.72356 0.36593 0.64536 0.0
C1278 C 0.73247 0.3822 0.68411 0.0
C1279 C 0.73511 0.36496 0.69641 0.0
C1280 C 0.73212 0.34819 0.68306 0.0
H1281 H 0.76725 0.33675 0.85029 0.0
H1282 H 0.7549 0.33557 0.80659 0.0
C1283 C 0.72649 0.34866 0.65773 0.0
C1284 C 0.73999 0.36459 0.72343 0.0
H1285 H 0.78221 0.35085 0.76692 0.0
C1286 C 0.7224 0.37259 0.73944 0.0
C1287 C 0.76179 0.3566 0.73337 0.0
C1288 C 0.78165 0.34838 0.71691 0.0
C1289 C 0.72599 0.37275 0.76526 0.0
C1290 C 0.74792 0.36496 0.77518 0.0
C1291 C 0.76538 0.35677 0.75919 0.0
C1292 C 0.75358 0.36573 0.80203 0.0
C1293 C 0.70618 0.38104 0.78171 0.0
C1294 C 0.75682 0.3831 0.81388 0.0
C1295 C 0.76386 0.38385 0.83883 0.0
C1296 C 0.76794 0.36722 0.85233 0.0
C1297 C 0.76423 0.34983 0.84047 0.0
C1298 C 0.75721 0.34911 0.8155 0.0
H1299 H 0.68802 0.3817 0.77207 0.0
H1300 H 0.70403 0.37275 0.79906 0.0
H1301 H 0.71151 0.39557 0.78692 0.0
H1302 H 0.75454 0.39608 0.80365 0.0
H1303 H 0.76663 0.39747 0.84735 0.0
H1304 H 0.32069 0.35475 0.68209 0.0
H1305 H 0.29699 0.36297 0.71899 0.0
H1306 H 0.26836 0.41201 0.68172 0.0
H1307 H 0.29159 0.4035 0.64415 0.0
H1308 H 0.29637 0.39316 0.74948 0.0
H1309 H 0.20544 0.38537 0.70195 0.0
H1310 H 0.23405 0.3781 0.68766 0.0
H1311 H 0.22602 0.40258 0.68899 0.0
C1312 C 0.30947 0.36736 0.68169 0.0
C1313 C 0.30782 0.37836 0.66007 0.0
C1314 C 0.29597 0.37207 0.70288 0.0
C1315 C 0.28058 0.38794 0.70302 0.0
C1316 C 0.27969 0.39947 0.68185 0.0
H1317 H 0.20738 0.40657 0.8487 0.0
H1318 H 0.23077 0.41416 0.81087 0.0
C1319 C 0.29308 0.39465 0.66045 0.0
C1320 C 0.26484 0.39158 0.72513 0.0
H1321 H 0.20479 0.3909 0.74484 0.0
C1322 C 0.27632 0.39295 0.74849 0.0
C1323 C 0.23869 0.39123 0.72374 0.0
C1324 C 0.22523 0.3891 0.69931 0.0
C1325 C 0.26246 0.39288 0.77058 0.0
C1326 C 0.23634 0.39193 0.76921 0.0
C1327 C 0.22482 0.39168 0.74581 0.0
C1328 C 0.22085 0.38856 0.79156 0.0
C1329 C 0.27599 0.39257 0.79514 0.0
C1330 C 0.20679 0.37203 0.79291 0.0
C1331 C 0.19323 0.36781 0.81422 0.0
C1332 C 0.19346 0.38 0.83478 0.0
C1333 C 0.207 0.39683 0.83323 0.0
C1334 C 0.22048 0.40113 0.81169 0.0
H1335 H 0.29608 0.38976 0.79279 0.0
H1336 H 0.27393 0.40641 0.80438 0.0
H1337 H 0.26811 0.38169 0.80763 0.0
H1338 H 0.20678 0.36211 0.77762 0.0
H1339 H 0.18298 0.35474 0.81473 0.0
H1340 H 0.31771 0.64263 0.32382 0.0
H1341 H 0.29463 0.63554 0.28612 0.0
H1342 H 0.26792 0.5842 0.31914 0.0
H1343 H 0.29057 0.5915 0.3575 0.0
H1344 H 0.29595 0.60649 0.25345 0.0
H1345 H 0.20403 0.61025 0.29994 0.0
H1346 H 0.2321 0.6177 0.31513 0.0
H1347 H 0.22521 0.59312 0.31208 0.0
C1348 C 0.30704 0.62976 0.32311 0.0
C1349 C 0.30578 0.61772 0.34377 0.0
C1350 C 0.29389 0.6257 0.30147 0.0
C1351 C 0.27925 0.60948 0.29991 0.0
C1352 C 0.27868 0.59699 0.32013 0.0
H1353 H 0.20917 0.59431 0.15211 0.0
H1354 H 0.23218 0.58602 0.18991 0.0
C1355 C 0.29174 0.60114 0.34197 0.0
C1356 C 0.264 0.60638 0.27733 0.0
H1357 H 0.20425 0.60642 0.25669 0.0
C1358 C 0.27589 0.60619 0.25411 0.0
C1359 C 0.23783 0.60608 0.27831 0.0
C1360 C 0.22394 0.60694 0.30264 0.0
C1361 C 0.26237 0.60674 0.23183 0.0
C1362 C 0.2362 0.60701 0.23282 0.0
C1363 C 0.22431 0.60615 0.25601 0.0
C1364 C 0.22093 0.61076 0.21043 0.0
C1365 C 0.27624 0.60828 0.20755 0.0
C1366 C 0.20627 0.627 0.20975 0.0
C1367 C 0.19294 0.63162 0.18843 0.0
C1368 C 0.19401 0.62011 0.16722 0.0
C1369 C 0.20814 0.60353 0.1681 0.0
C1370 C 0.22139 0.59883 0.18962 0.0
H1371 H 0.29616 0.61148 0.2104 0.0
H1372 H 0.27492 0.59475 0.1974 0.0
H1373 H 0.26809 0.6194 0.19563 0.0
H1374 H 0.20562 0.63642 0.22557 0.0
H1375 H 0.18221 0.64447 0.18844 0.0
loop_
_geom_bond_atom_site_label_1
_geom_bond_atom_site_label_2
_geom_bond_distance
_geom_bond_site_symmetry_2
_ccdc_geom_bond_type
O0 Cd1 2.223 . S
O0 C8 1.315 . S
Cd1 O0 2.223 . S
Cd1 O4 2.297 . S
Cd1 O5 2.439 . S
Cd1 O11 2.240 . S
Cd2 O3 2.240 . S
Cd2 O10 2.223 . S
Cd2 O12 2.297 . S
Cd2 O13 2.439 . S
O3 Cd2 2.240 . S
O3 C8 1.279 . S
O4 Cd1 2.297 . S
O4 C6 1.247 . S
O5 Cd1 2.439 . S
O5 C6 1.208 . S
C6 O4 1.247 . S
C6 O5 1.208 . S
C7 O12 1.247 . S
C7 O13 1.208 . S
C8 O0 1.315 . S
C8 O3 1.279 . S
C9 O10 1.315 . S
C9 O11 1.279 . S
O10 Cd2 2.223 . S
O10 C9 1.315 . S
O11 Cd1 2.240 . S
O11 C9 1.279 . S
O12 Cd2 2.297 . S
O12 C7 1.247 . S
O13 Cd2 2.439 . S
O13 C7 1.208 . S
O14 Cd15 2.223 . S
O14 C22 1.315 . S
Cd15 O14 2.223 . S
Cd15 O18 2.297 . S
Cd15 O19 2.439 . S
Cd15 O25 2.240 . S
Cd16 O17 2.240 . S
Cd16 O24 2.223 . S
Cd16 O26 2.297 . S
Cd16 O27 2.439 . S
O17 Cd16 2.240 . S
O17 C22 1.279 . S
O18 Cd15 2.297 . S
O18 C20 1.247 . S
O19 Cd15 2.439 . S
O19 C20 1.208 . S
C20 O18 1.247 . S
C20 O19 1.208 . S
C21 O26 1.247 . S
C21 O27 1.208 . S
C22 O14 1.315 . S
C22 O17 1.279 . S
C23 O24 1.315 . S
C23 O25 1.279 . S
O24 Cd16 2.223 . S
O24 C23 1.315 . S
O25 Cd15 2.240 . S
O25 C23 1.279 . S
O26 Cd16 2.297 . S
O26 C21 1.247 . S
O27 Cd16 2.439 . S
O27 C21 1.208 . S
O28 Cd29 2.223 . S
O28 C36 1.315 . S
Cd29 O28 2.223 . S
Cd29 O32 2.297 . S
Cd29 O33 2.439 . S
Cd29 O39 2.240 . S
Cd30 O31 2.240 . S
Cd30 O38 2.223 . S
Cd30 O40 2.297 . S
Cd30 O41 2.439 . S
O31 Cd30 2.240 . S
O31 C36 1.279 . S
O32 Cd29 2.297 . S
O32 C34 1.247 . S
O33 Cd29 2.439 . S
O33 C34 1.208 . S
C34 O32 1.247 . S
C34 O33 1.208 . S
C35 O40 1.247 . S
C35 O41 1.208 . S
C36 O28 1.315 . S
C36 O31 1.279 . S
C37 O38 1.315 . S
C37 O39 1.279 . S
O38 Cd30 2.223 . S
O38 C37 1.315 . S
O39 Cd29 2.240 . S
O39 C37 1.279 . S
O40 Cd30 2.297 . S
O40 C35 1.247 . S
O41 Cd30 2.439 . S
O41 C35 1.208 . S
O42 Cd43 2.223 . S
O42 C50 1.315 . S
Cd43 O42 2.223 . S
Cd43 O46 2.297 . S
Cd43 O47 2.439 . S
Cd43 O53 2.240 . S
Cd44 O45 2.240 . S
Cd44 O52 2.223 . S
Cd44 O54 2.297 . S
Cd44 O55 2.439 . S
O45 Cd44 2.240 . S
O45 C50 1.279 . S
O46 Cd43 2.297 . S
O46 C48 1.247 . S
O47 Cd43 2.439 . S
O47 C48 1.208 . S
C48 O46 1.247 . S
C48 O47 1.208 . S
C49 O54 1.247 . S
C49 O55 1.208 . S
C50 O42 1.315 . S
C50 O45 1.279 . S
C51 O52 1.315 . S
C51 O53 1.279 . S
O52 Cd44 2.223 . S
O52 C51 1.315 . S
O53 Cd43 2.240 . S
O53 C51 1.279 . S
O54 Cd44 2.297 . S
O54 C49 1.247 . S
O55 Cd44 2.439 . S
O55 C49 1.208 . S
O56 Cd57 2.223 . S
O56 C64 1.315 . S
Cd57 O56 2.223 . S
Cd57 O60 2.297 . S
Cd57 O61 2.439 . S
Cd57 O67 2.240 . S
Cd58 O59 2.240 . S
Cd58 O66 2.223 . S
Cd58 O68 2.297 . S
Cd58 O69 2.439 . S
O59 Cd58 2.240 . S
O59 C64 1.279 . S
O60 Cd57 2.297 . S
O60 C62 1.247 . S
O61 Cd57 2.439 . S
O61 C62 1.208 . S
C62 O60 1.247 . S
C62 O61 1.208 . S
C63 O68 1.247 . S
C63 O69 1.208 . S
C64 O56 1.315 . S
C64 O59 1.279 . S
C65 O66 1.315 . S
C65 O67 1.279 . S
O66 Cd58 2.223 . S
O66 C65 1.315 . S
O67 Cd57 2.240 . S
O67 C65 1.279 . S
O68 Cd58 2.297 . S
O68 C63 1.247 . S
O69 Cd58 2.439 . S
O69 C63 1.208 . S
O70 Cd71 2.223 . S
O70 C78 1.315 . S
Cd71 O70 2.223 . S
Cd71 O74 2.297 . S
Cd71 O75 2.439 . S
Cd71 O81 2.240 . S
Cd72 O73 2.240 . S
Cd72 O80 2.223 . S
Cd72 O82 2.297 . S
Cd72 O83 2.439 . S
O73 Cd72 2.240 . S
O73 C78 1.279 . S
O74 Cd71 2.297 . S
O74 C76 1.247 . S
O75 Cd71 2.439 . S
O75 C76 1.208 . S
C76 O74 1.247 . S
C76 O75 1.208 . S
C77 O82 1.247 . S
C77 O83 1.208 . S
C78 O70 1.315 . S
C78 O73 1.279 . S
C79 O80 1.315 . S
C79 O81 1.279 . S
O80 Cd72 2.223 . S
O80 C79 1.315 . S
O81 Cd71 2.240 . S
O81 C79 1.279 . S
O82 Cd72 2.297 . S
O82 C77 1.247 . S
O83 Cd72 2.439 . S
O83 C77 1.208 . S
O84 Cd85 2.223 . S
O84 C92 1.315 . S
Cd85 O84 2.223 . S
Cd85 O88 2.297 . S
Cd85 O89 2.439 . S
Cd85 O95 2.240 . S
Cd86 O87 2.240 . S
Cd86 O94 2.223 . S
Cd86 O96 2.297 . S
Cd86 O97 2.439 . S
O87 Cd86 2.240 . S
O87 C92 1.279 . S
O88 Cd85 2.297 . S
O88 C90 1.247 . S
O89 Cd85 2.439 . S
O89 C90 1.208 . S
C90 O88 1.247 . S
C90 O89 1.208 . S
C91 O96 1.247 . S
C91 O97 1.208 . S
C92 O84 1.315 . S
C92 O87 1.279 . S
C93 O94 1.315 . S
C93 O95 1.279 . S
O94 Cd86 2.223 . S
O94 C93 1.315 . S
O95 Cd85 2.240 . S
O95 C93 1.279 . S
O96 Cd86 2.297 . S
O96 C91 1.247 . S
O97 Cd86 2.439 . S
O97 C91 1.208 . S
O98 Cd99 2.223 . S
O98 C106 1.315 . S
Cd99 O98 2.223 . S
Cd99 O102 2.297 . S
Cd99 O103 2.439 . S
Cd99 O109 2.240 . S
Cd100 O101 2.240 . S
Cd100 O108 2.223 . S
Cd100 O110 2.297 . S
Cd100 O111 2.439 . S
O101 Cd100 2.240 . S
O101 C106 1.279 . S
O102 Cd99 2.297 . S
O102 C104 1.247 . S
O103 Cd99 2.439 . S
O103 C104 1.208 . S
C104 O102 1.247 . S
C104 O103 1.208 . S
C105 O110 1.247 . S
C105 O111 1.208 . S
C106 O98 1.315 . S
C106 O101 1.279 . S
C107 O108 1.315 . S
C107 O109 1.279 . S
O108 Cd100 2.223 . S
O108 C107 1.315 . S
O109 Cd99 2.240 . S
O109 C107 1.279 . S
O110 Cd100 2.297 . S
O110 C105 1.247 . S
O111 Cd100 2.439 . S
O111 C105 1.208 . S
O112 Cd113 2.223 . S
O112 C120 1.315 . S
Cd113 O112 2.223 . S
Cd113 O116 2.297 . S
Cd113 O117 2.439 . S
Cd113 O123 2.240 . S
Cd114 O115 2.240 . S
Cd114 O122 2.223 . S
Cd114 O124 2.297 . S
Cd114 O125 2.439 . S
O115 Cd114 2.240 . S
O115 C120 1.279 . S
O116 Cd113 2.297 . S
O116 C118 1.247 . S
O117 Cd113 2.439 . S
O117 C118 1.208 . S
C118 O116 1.247 . S
C118 O117 1.208 . S
C119 O124 1.247 . S
C119 O125 1.208 . S
C120 O112 1.315 . S
C120 O115 1.279 . S
C121 O122 1.315 . S
C121 O123 1.279 . S
O122 Cd114 2.223 . S
O122 C121 1.315 . S
O123 Cd113 2.240 . S
O123 C121 1.279 . S
O124 Cd114 2.297 . S
O124 C119 1.247 . S
O125 Cd114 2.439 . S
O125 C119 1.208 . S
O126 Cd127 2.223 . S
O126 C134 1.315 . S
Cd127 O126 2.223 . S
Cd127 O130 2.297 . S
Cd127 O131 2.439 . S
Cd127 O137 2.240 . S
Cd128 O129 2.240 . S
Cd128 O136 2.223 . S
Cd128 O138 2.297 . S
Cd128 O139 2.439 . S
O129 Cd128 2.240 . S
O129 C134 1.279 . S
O130 Cd127 2.297 . S
O130 C132 1.247 . S
O131 Cd127 2.439 . S
O131 C132 1.208 . S
C132 O130 1.247 . S
C132 O131 1.208 . S
C133 O138 1.247 . S
C133 O139 1.208 . S
C134 O126 1.315 . S
C134 O129 1.279 . S
C135 O136 1.315 . S
C135 O137 1.279 . S
O136 Cd128 2.223 . S
O136 C135 1.315 . S
O137 Cd127 2.240 . S
O137 C135 1.279 . S
O138 Cd128 2.297 . S
O138 C133 1.247 . S
O139 Cd128 2.439 . S
O139 C133 1.208 . S
O140 Cd141 2.223 . S
O140 C148 1.315 . S
Cd141 O140 2.223 . S
Cd141 O144 2.297 . S
Cd141 O145 2.439 . S
Cd141 O151 2.240 . S
Cd142 O143 2.240 . S
Cd142 O150 2.223 . S
Cd142 O152 2.297 . S
Cd142 O153 2.439 . S
O143 Cd142 2.240 . S
O143 C148 1.279 . S
O144 Cd141 2.297 . S
O144 C146 1.247 . S
O145 Cd141 2.439 . S
O145 C146 1.208 . S
C146 O144 1.247 . S
C146 O145 1.208 . S
C147 O152 1.247 . S
C147 O153 1.208 . S
C148 O140 1.315 . S
C148 O143 1.279 . S
C149 O150 1.315 . S
C149 O151 1.279 . S
O150 Cd142 2.223 . S
O150 C149 1.315 . S
O151 Cd141 2.240 . S
O151 C149 1.279 . S
O152 Cd142 2.297 . S
O152 C147 1.247 . S
O153 Cd142 2.439 . S
O153 C147 1.208 . S
O154 Cd155 2.223 . S
O154 C162 1.315 . S
Cd155 O154 2.223 . S
Cd155 O158 2.297 . S
Cd155 O159 2.439 . S
Cd155 O165 2.240 . S
Cd156 O157 2.240 . S
Cd156 O164 2.223 . S
Cd156 O166 2.297 . S
Cd156 O167 2.439 . S
O157 Cd156 2.240 . S
O157 C162 1.279 . S
O158 Cd155 2.297 . S
O158 C160 1.247 . S
O159 Cd155 2.439 . S
O159 C160 1.208 . S
C160 O158 1.247 . S
C160 O159 1.208 . S
C161 O166 1.247 . S
C161 O167 1.208 . S
C162 O154 1.315 . S
C162 O157 1.279 . S
C163 O164 1.315 . S
C163 O165 1.279 . S
O164 Cd156 2.223 . S
O164 C163 1.315 . S
O165 Cd155 2.240 . S
O165 C163 1.279 . S
O166 Cd156 2.297 . S
O166 C161 1.247 . S
O167 Cd156 2.439 . S
O167 C161 1.208 . S
O168 Cd169 2.223 . S
O168 C176 1.315 . S
Cd169 O168 2.223 . S
Cd169 O172 2.297 . S
Cd169 O173 2.439 . S
Cd169 O179 2.240 . S
Cd170 O171 2.240 . S
Cd170 O178 2.223 . S
Cd170 O180 2.297 . S
Cd170 O181 2.439 . S
O171 Cd170 2.240 . S
O171 C176 1.279 . S
O172 Cd169 2.297 . S
O172 C174 1.247 . S
O173 Cd169 2.439 . S
O173 C174 1.208 . S
C174 O172 1.247 . S
C174 O173 1.208 . S
C175 O180 1.247 . S
C175 O181 1.208 . S
C176 O168 1.315 . S
C176 O171 1.279 . S
C177 O178 1.315 . S
C177 O179 1.279 . S
O178 Cd170 2.223 . S
O178 C177 1.315 . S
O179 Cd169 2.240 . S
O179 C177 1.279 . S
O180 Cd170 2.297 . S
O180 C175 1.247 . S
O181 Cd170 2.439 . S
O181 C175 1.208 . S
O182 Cd183 2.223 . S
O182 C190 1.315 . S
Cd183 O182 2.223 . S
Cd183 O186 2.297 . S
Cd183 O187 2.439 . S
Cd183 O193 2.240 . S
Cd184 O185 2.240 . S
Cd184 O192 2.223 . S
Cd184 O194 2.297 . S
Cd184 O195 2.439 . S
O185 Cd184 2.240 . S
O185 C190 1.279 . S
O186 Cd183 2.297 . S
O186 C188 1.247 . S
O187 Cd183 2.439 . S
O187 C188 1.208 . S
C188 O186 1.247 . S
C188 O187 1.208 . S
C189 O194 1.247 . S
C189 O195 1.208 . S
C190 O182 1.315 . S
C190 O185 1.279 . S
C191 O192 1.315 . S
C191 O193 1.279 . S
O192 Cd184 2.223 . S
O192 C191 1.315 . S
O193 Cd183 2.240 . S
O193 C191 1.279 . S
O194 Cd184 2.297 . S
O194 C189 1.247 . S
O195 Cd184 2.439 . S
O195 C189 1.208 . S
O196 Cd197 2.223 . S
O196 C204 1.315 . S
Cd197 O196 2.223 . S
Cd197 O200 2.297 . S
Cd197 O201 2.439 . S
Cd197 O207 2.240 . S
Cd198 O199 2.240 . S
Cd198 O206 2.223 . S
Cd198 O208 2.297 . S
Cd198 O209 2.439 . S
O199 Cd198 2.240 . S
O199 C204 1.279 . S
O200 Cd197 2.297 . S
O200 C202 1.247 . S
O201 Cd197 2.439 . S
O201 C202 1.208 . S
C202 O200 1.247 . S
C202 O201 1.208 . S
C203 O208 1.247 . S
C203 O209 1.208 . S
C204 O196 1.315 . S
C204 O199 1.279 . S
C205 O206 1.315 . S
C205 O207 1.279 . S
O206 Cd198 2.223 . S
O206 C205 1.315 . S
O207 Cd197 2.240 . S
O207 C205 1.279 . S
O208 Cd198 2.297 . S
O208 C203 1.247 . S
O209 Cd198 2.439 . S
O209 C203 1.208 . S
O210 Cd211 2.223 . S
O210 C218 1.315 . S
Cd211 O210 2.223 . S
Cd211 O214 2.297 . S
Cd211 O215 2.439 . S
Cd211 O221 2.240 . S
Cd212 O213 2.240 . S
Cd212 O220 2.223 . S
Cd212 O222 2.297 . S
Cd212 O223 2.439 . S
O213 Cd212 2.240 . S
O213 C218 1.279 . S
O214 Cd211 2.297 . S
O214 C216 1.247 . S
O215 Cd211 2.439 . S
O215 C216 1.208 . S
C216 O214 1.247 . S
C216 O215 1.208 . S
C217 O222 1.247 . S
C217 O223 1.208 . S
C218 O210 1.315 . S
C218 O213 1.279 . S
C219 O220 1.315 . S
C219 O221 1.279 . S
O220 Cd212 2.223 . S
O220 C219 1.315 . S
O221 Cd211 2.240 . S
O221 C219 1.279 . S
O222 Cd212 2.297 . S
O222 C217 1.247 . S
O223 Cd212 2.439 . S
O223 C217 1.208 . S
H224 C232 0.929 . S
H225 C234 0.973 . S
H226 C236 0.930 . S
H227 C239 0.929 . S
H228 C242 0.930 . S
H229 C244 0.960 . S
H230 C244 0.960 . S
H231 C244 0.960 . S
C232 H224 0.929 . S
C232 C233 1.377 . S
C232 C234 1.362 1_554 S
C233 C232 1.377 . S
C233 C239 1.390 . S
C234 H225 0.973 . S
C234 C232 1.362 1_556 S
C234 C235 1.352 1_556 S
C235 C234 1.352 1_554 S
C235 C236 1.400 . S
C235 C240 1.490 1_554 S
C236 H226 0.930 . S
C236 C235 1.400 . S
C236 C239 1.386 . S
H237 C253 0.930 . S
H238 C254 0.931 . S
C239 H227 0.929 . S
C239 C233 1.390 . S
C239 C236 1.386 . S
C240 C235 1.490 1_556 S
C240 C242 1.395 . S
C240 C243 1.404 . S
H241 C247 0.930 . S
C242 H228 0.930 . S
C242 C240 1.395 . S
C242 C245 1.403 . S
C243 C240 1.404 . S
C243 C244 1.518 1_556 S
C243 C247 1.405 . S
C244 H229 0.960 . S
C244 H230 0.960 . S
C244 H231 0.960 . S
C244 C243 1.518 1_554 S
C245 C242 1.403 . S
C245 C246 1.392 . S
C245 C249 1.495 . S
C246 C245 1.392 . S
C246 C247 1.385 . S
C246 C248 1.478 . S
C247 H241 0.930 . S
C247 C243 1.405 . S
C247 C246 1.385 . S
C248 C246 1.478 . S
C248 C250 1.381 . S
C248 C254 1.383 . S
C249 C245 1.495 . S
C249 H255 0.959 . S
C249 H256 0.961 . S
C249 H257 0.960 . S
C250 C248 1.381 . S
C250 C251 1.394 . S
C250 H258 0.930 . S
C251 C250 1.394 . S
C251 C252 1.383 . S
C251 H259 0.929 . S
C252 C251 1.383 . S
C252 C253 1.377 . S
C253 H237 0.930 . S
C253 C252 1.377 . S
C253 C254 1.379 . S
C254 H238 0.931 . S
C254 C248 1.383 . S
C254 C253 1.379 . S
H255 C249 0.959 . S
H256 C249 0.961 . S
H257 C249 0.960 . S
H258 C250 0.930 . S
H259 C251 0.929 . S
H260 C268 0.929 . S
H261 C270 0.930 . S
H262 C272 0.930 . S
H263 C275 0.929 . S
H264 C278 0.930 . S
H265 C280 0.960 . S
H266 C280 0.960 . S
H267 C280 0.960 . S
C268 H260 0.929 . S
C268 C269 1.377 . S
C268 C270 1.384 . S
C269 C268 1.377 . S
C269 C275 1.390 . S
C270 H261 0.930 . S
C270 C268 1.384 . S
C270 C271 1.372 . S
C271 C270 1.372 . S
C271 C272 1.400 . S
C271 C276 1.490 . S
C272 H262 0.930 . S
C272 C271 1.400 . S
C272 C275 1.386 . S
H273 C289 0.930 . S
H274 C290 0.931 . S
C275 H263 0.929 . S
C275 C269 1.390 . S
C275 C272 1.386 . S
C276 C271 1.490 . S
C276 C278 1.395 . S
C276 C279 1.403 . S
H277 C283 0.930 . S
C278 H264 0.930 . S
C278 C276 1.395 . S
C278 C281 1.403 . S
C279 C276 1.403 . S
C279 C280 1.524 . S
C279 C283 1.400 . S
C280 H265 0.960 . S
C280 H266 0.960 . S
C280 H267 0.960 . S
C280 C279 1.524 . S
C281 C278 1.403 . S
C281 C282 1.392 . S
C281 C285 1.495 . S
C282 C281 1.392 . S
C282 C283 1.385 . S
C282 C284 1.478 . S
C283 H277 0.930 . S
C283 C279 1.400 . S
C283 C282 1.385 . S
C284 C282 1.478 . S
C284 C286 1.381 . S
C284 C290 1.383 . S
C285 C281 1.495 . S
C285 H291 0.959 . S
C285 H292 0.961 . S
C285 H293 0.960 . S
C286 C284 1.381 . S
C286 C287 1.394 . S
C286 H294 0.930 . S
C287 C286 1.394 . S
C287 C288 1.383 . S
C287 H295 0.929 . S
C288 C287 1.383 . S
C288 C289 1.377 . S
C289 H273 0.930 . S
C289 C288 1.377 . S
C289 C290 1.379 . S
C290 H274 0.931 . S
C290 C284 1.383 . S
C290 C289 1.379 . S
H291 C285 0.959 . S
H292 C285 0.961 . S
H293 C285 0.960 . S
H294 C286 0.930 . S
H295 C287 0.929 . S
H296 C304 0.929 . S
H297 C306 0.893 1_554 S
H298 C308 0.930 . S
H299 C311 0.929 . S
H300 C314 0.930 . S
H301 C316 0.960 . S
H302 C316 0.960 . S
H303 C316 0.960 1_556 S
C304 H296 0.929 . S
C304 C305 1.377 . S
C304 C306 1.405 . S
C305 C304 1.377 . S
C305 C311 1.390 . S
C306 H297 0.893 1_556 S
C306 C304 1.405 . S
C306 C307 1.388 . S
C307 C306 1.388 . S
C307 C308 1.400 . S
C307 C312 1.490 1_556 S
C308 H298 0.930 . S
C308 C307 1.400 . S
C308 C311 1.386 . S
H309 C325 0.930 . S
H310 C326 0.931 . S
C311 H299 0.929 . S
C311 C305 1.390 . S
C311 C308 1.386 . S
C312 C307 1.490 1_554 S
C312 C314 1.395 . S
C312 C315 1.403 . S
H313 C319 0.930 . S
C314 H300 0.930 . S
C314 C312 1.395 . S
C314 C317 1.403 . S
C315 C312 1.403 . S
C315 C316 1.524 . S
C315 C319 1.400 . S
C316 H301 0.960 . S
C316 H302 0.960 . S
C316 H303 0.960 1_554 S
C316 C315 1.524 . S
C317 C314 1.403 . S
C317 C318 1.392 . S
C317 C321 1.495 . S
C318 C317 1.392 . S
C318 C319 1.385 . S
C318 C320 1.478 . S
C319 H313 0.930 . S
C319 C315 1.400 . S
C319 C318 1.385 . S
C320 C318 1.478 . S
C320 C322 1.381 . S
C320 C326 1.383 . S
C321 C317 1.495 . S
C321 H327 0.959 . S
C321 H328 0.961 . S
C321 H329 0.960 . S
C322 C320 1.381 . S
C322 C323 1.394 . S
C322 H330 0.930 . S
C323 C322 1.394 . S
C323 C324 1.383 . S
C323 H331 0.929 . S
C324 C323 1.383 . S
C324 C325 1.377 . S
C325 H309 0.930 . S
C325 C324 1.377 . S
C325 C326 1.379 . S
C326 H310 0.931 . S
C326 C320 1.383 . S
C326 C325 1.379 . S
H327 C321 0.959 . S
H328 C321 0.961 . S
H329 C321 0.960 . S
H330 C322 0.930 . S
H331 C323 0.929 . S
H332 C340 0.929 . S
H333 C342 0.930 . S
H334 C344 0.930 . S
H335 C347 0.929 . S
H336 C350 0.930 . S
H337 C352 0.960 . S
H338 C352 0.960 . S
H339 C352 0.960 . S
C340 H332 0.929 . S
C340 C341 1.377 . S
C340 C342 1.384 . S
C341 C340 1.377 . S
C341 C347 1.390 . S
C342 H333 0.930 . S
C342 C340 1.384 . S
C342 C343 1.372 . S
C343 C342 1.372 . S
C343 C344 1.400 . S
C343 C348 1.490 . S
C344 H334 0.930 . S
C344 C343 1.400 . S
C344 C347 1.386 . S
H345 C361 0.930 . S
H346 C362 0.931 . S
C347 H335 0.929 . S
C347 C341 1.390 . S
C347 C344 1.386 . S
C348 C343 1.490 . S
C348 C350 1.395 . S
C348 C351 1.403 . S
H349 C355 0.930 . S
C350 H336 0.930 . S
C350 C348 1.395 . S
C350 C353 1.403 . S
C351 C348 1.403 . S
C351 C352 1.524 . S
C351 C355 1.400 . S
C352 H337 0.960 . S
C352 H338 0.960 . S
C352 H339 0.960 . S
C352 C351 1.524 . S
C353 C350 1.403 . S
C353 C354 1.392 . S
C353 C357 1.495 . S
C354 C353 1.392 . S
C354 C355 1.385 . S
C354 C356 1.478 . S
C355 H349 0.930 . S
C355 C351 1.400 . S
C355 C354 1.385 . S
C356 C354 1.478 . S
C356 C358 1.381 . S
C356 C362 1.383 . S
C357 C353 1.495 . S
C357 H363 0.959 . S
C357 H364 0.961 . S
C357 H365 0.960 . S
C358 C356 1.381 . S
C358 C359 1.394 . S
C358 H366 0.930 . S
C359 C358 1.394 . S
C359 C360 1.383 . S
C359 H367 0.929 . S
C360 C359 1.383 . S
C360 C361 1.377 . S
C361 H345 0.930 . S
C361 C360 1.377 . S
C361 C362 1.379 . S
C362 H346 0.931 . S
C362 C356 1.383 . S
C362 C361 1.379 . S
H363 C357 0.959 . S
H364 C357 0.961 . S
H365 C357 0.960 . S
H366 C358 0.930 . S
H367 C359 0.929 . S
H368 C376 0.929 . S
H369 C378 0.930 . S
H370 C380 0.930 . S
H371 C383 0.929 . S
H372 C386 0.930 . S
H373 C388 0.960 . S
H374 C388 0.960 . S
H375 C388 0.960 . S
C376 H368 0.929 . S
C376 C377 1.377 . S
C376 C378 1.384 . S
C377 C376 1.377 . S
C377 C383 1.390 . S
C378 H369 0.930 . S
C378 C376 1.384 . S
C378 C379 1.372 . S
C379 C378 1.372 . S
C379 C380 1.400 . S
C379 C384 1.490 1_554 S
C380 H370 0.930 . S
C380 C379 1.400 . S
C380 C383 1.386 . S
H381 C397 0.930 . S
H382 C398 0.931 . S
C383 H371 0.929 . S
C383 C377 1.390 . S
C383 C380 1.386 . S
C384 C379 1.490 1_556 S
C384 C386 1.395 1_556 S
C384 C387 1.403 . S
H385 C391 0.930 . S
C386 H372 0.930 . S
C386 C384 1.395 1_554 S
C386 C389 1.403 1_554 S
C387 C384 1.403 . S
C387 C388 1.524 . S
C387 C391 1.400 . S
C388 H373 0.960 . S
C388 H374 0.960 . S
C388 H375 0.960 . S
C388 C387 1.524 . S
C389 C386 1.403 1_556 S
C389 C390 1.392 . S
C389 C393 1.495 1_556 S
C390 C389 1.392 . S
C390 C391 1.385 . S
C390 C392 1.478 . S
C391 H385 0.930 . S
C391 C387 1.400 . S
C391 C390 1.385 . S
C392 C390 1.478 . S
C392 C394 1.381 . S
C392 C398 1.383 . S
C393 C389 1.495 1_554 S
C393 H399 0.959 . S
C393 H400 0.961 . S
C393 H401 0.960 1_554 S
C394 C392 1.381 . S
C394 C395 1.394 . S
C394 H402 0.930 . S
C395 C394 1.394 . S
C395 C396 1.383 . S
C395 H403 0.929 . S
C396 C395 1.383 . S
C396 C397 1.377 . S
C397 H381 0.930 . S
C397 C396 1.377 . S
C397 C398 1.379 . S
C398 H382 0.931 . S
C398 C392 1.383 . S
C398 C397 1.379 . S
H399 C393 0.959 . S
H400 C393 0.961 . S
H401 C393 0.960 1_556 S
H402 C394 0.930 . S
H403 C395 0.929 . S
H404 C412 0.929 . S
H405 C414 0.930 . S
H406 C416 0.930 . S
H407 C419 0.929 . S
H408 C422 0.930 . S
H409 C424 0.960 . S
H410 C424 0.960 . S
H411 C424 0.960 . S
C412 H404 0.929 . S
C412 C413 1.377 . S
C412 C414 1.384 . S
C413 C412 1.377 . S
C413 C419 1.390 . S
C414 H405 0.930 . S
C414 C412 1.384 . S
C414 C415 1.372 . S
C415 C414 1.372 . S
C415 C416 1.400 . S
C415 C420 1.490 . S
C416 H406 0.930 . S
C416 C415 1.400 . S
C416 C419 1.386 . S
H417 C433 0.930 . S
H418 C434 0.931 . S
C419 H407 0.929 . S
C419 C413 1.390 . S
C419 C416 1.386 . S
C420 C415 1.490 . S
C420 C422 1.395 . S
C420 C423 1.403 . S
H421 C427 0.930 . S
C422 H408 0.930 . S
C422 C420 1.395 . S
C422 C425 1.403 . S
C423 C420 1.403 . S
C423 C424 1.524 . S
C423 C427 1.400 . S
C424 H409 0.960 . S
C424 H410 0.960 . S
C424 H411 0.960 . S
C424 C423 1.524 . S
C425 C422 1.403 . S
C425 C426 1.392 . S
C425 C429 1.495 . S
C426 C425 1.392 . S
C426 C427 1.385 . S
C426 C428 1.478 . S
C427 H421 0.930 . S
C427 C423 1.400 . S
C427 C426 1.385 . S
C428 C426 1.478 . S
C428 C430 1.381 . S
C428 C434 1.383 . S
C429 C425 1.495 . S
C429 H435 0.959 . S
C429 H436 0.961 . S
C429 H437 0.960 . S
C430 C428 1.381 . S
C430 C431 1.394 . S
C430 H438 0.930 . S
C431 C430 1.394 . S
C431 C432 1.383 . S
C431 H439 0.929 . S
C432 C431 1.383 . S
C432 C433 1.377 . S
C433 H417 0.930 . S
C433 C432 1.377 . S
C433 C434 1.379 . S
C434 H418 0.931 . S
C434 C428 1.383 . S
C434 C433 1.379 . S
H435 C429 0.959 . S
H436 C429 0.961 . S
H437 C429 0.960 . S
H438 C430 0.930 . S
H439 C431 0.929 . S
H440 C448 0.929 . S
H441 C450 0.930 . S
H442 C452 0.930 . S
H443 C455 0.929 . S
H444 C458 0.930 . S
H445 C460 0.960 . S
H446 C460 0.960 . S
H447 C460 0.960 . S
C448 H440 0.929 . S
C448 C449 1.377 . S
C448 C450 1.384 . S
C449 C448 1.377 . S
C449 C455 1.390 . S
C450 H441 0.930 . S
C450 C448 1.384 . S
C450 C451 1.372 . S
C451 C450 1.372 . S
C451 C452 1.400 . S
C451 C456 1.476 1_556 S
C452 H442 0.930 . S
C452 C451 1.400 . S
C452 C455 1.386 . S
H453 C469 0.930 . S
H454 C470 0.931 . S
C455 H443 0.929 . S
C455 C449 1.390 . S
C455 C452 1.386 . S
C456 C451 1.476 1_554 S
C456 C458 1.379 1_554 S
C456 C459 1.433 . S
H457 C463 0.930 . S
C458 H444 0.930 . S
C458 C456 1.379 1_556 S
C458 C461 1.403 . S
C459 C456 1.433 . S
C459 C460 1.524 . S
C459 C463 1.400 . S
C460 H445 0.960 . S
C460 H446 0.960 . S
C460 H447 0.960 . S
C460 C459 1.524 . S
C461 C458 1.403 . S
C461 C462 1.392 1_556 S
C461 C465 1.495 . S
C462 C461 1.392 1_554 S
C462 C463 1.385 . S
C462 C464 1.478 . S
C463 H457 0.930 . S
C463 C459 1.400 . S
C463 C462 1.385 . S
C464 C462 1.478 . S
C464 C466 1.381 . S
C464 C470 1.383 . S
C465 C461 1.495 . S
C465 H471 0.959 . S
C465 H472 0.961 . S
C465 H473 0.960 . S
C466 C464 1.381 . S
C466 C467 1.394 . S
C466 H474 0.930 . S
C467 C466 1.394 . S
C467 C468 1.383 . S
C467 H475 0.929 . S
C468 C467 1.383 . S
C468 C469 1.377 . S
C469 H453 0.930 . S
C469 C468 1.377 . S
C469 C470 1.379 . S
C470 H454 0.931 . S
C470 C464 1.383 . S
C470 C469 1.379 . S
H471 C465 0.959 . S
H472 C465 0.961 . S
H473 C465 0.960 . S
H474 C466 0.930 . S
H475 C467 0.929 . S
H476 C484 0.929 . S
H477 C486 0.930 . S
H478 C488 0.930 . S
H479 C491 0.929 . S
H480 C494 0.930 . S
H481 C496 0.960 . S
H482 C496 0.960 . S
H483 C496 0.960 . S
C484 H476 0.929 . S
C484 C485 1.377 . S
C484 C486 1.384 . S
C485 C484 1.377 . S
C485 C491 1.390 . S
C486 H477 0.930 . S
C486 C484 1.384 . S
C486 C487 1.372 . S
C487 C486 1.372 . S
C487 C488 1.400 . S
C487 C492 1.490 . S
C488 H478 0.930 . S
C488 C487 1.400 . S
C488 C491 1.386 . S
H489 C505 0.930 . S
H490 C506 0.931 . S
C491 H479 0.929 . S
C491 C485 1.390 . S
C491 C488 1.386 . S
C492 C487 1.490 . S
C492 C494 1.395 . S
C492 C495 1.403 . S
H493 C499 0.930 . S
C494 H480 0.930 . S
C494 C492 1.395 . S
C494 C497 1.403 . S
C495 C492 1.403 . S
C495 C496 1.524 . S
C495 C499 1.400 . S
C496 H481 0.960 . S
C496 H482 0.960 . S
C496 H483 0.960 . S
C496 C495 1.524 . S
C497 C494 1.403 . S
C497 C498 1.392 . S
C497 C501 1.495 . S
C498 C497 1.392 . S
C498 C499 1.385 . S
C498 C500 1.478 . S
C499 H493 0.930 . S
C499 C495 1.400 . S
C499 C498 1.385 . S
C500 C498 1.478 . S
C500 C502 1.381 . S
C500 C506 1.383 . S
C501 C497 1.495 . S
C501 H507 0.959 . S
C501 H508 0.961 . S
C501 H509 0.960 . S
C502 C500 1.381 . S
C502 C503 1.394 . S
C502 H510 0.930 . S
C503 C502 1.394 . S
C503 C504 1.383 . S
C503 H511 0.929 . S
C504 C503 1.383 . S
C504 C505 1.377 . S
C505 H489 0.930 . S
C505 C504 1.377 . S
C505 C506 1.379 . S
C506 H490 0.931 . S
C506 C500 1.383 . S
C506 C505 1.379 . S
H507 C501 0.959 . S
H508 C501 0.961 . S
H509 C501 0.960 . S
H510 C502 0.930 . S
H511 C503 0.929 . S
H512 C520 0.929 . S
H513 C522 0.930 . S
H514 C524 0.930 1_556 S
H515 C527 0.929 . S
H516 C530 0.930 . S
H517 C532 0.960 . S
H518 C532 0.960 . S
H519 C532 0.960 . S
C520 H512 0.929 . S
C520 C521 1.377 . S
C520 C522 1.384 . S
C521 C520 1.377 . S
C521 C527 1.390 . S
C522 H513 0.930 . S
C522 C520 1.384 . S
C522 C523 1.372 . S
C523 C522 1.372 . S
C523 C524 1.400 . S
C523 C528 1.490 . S
C524 H514 0.930 1_554 S
C524 C523 1.400 . S
C524 C527 1.386 . S
H525 C541 0.930 . S
H526 C542 0.931 . S
C527 H515 0.929 . S
C527 C521 1.390 . S
C527 C524 1.386 . S
C528 C523 1.490 . S
C528 C530 1.395 1_554 S
C528 C531 1.403 . S
H529 C535 0.930 . S
C530 H516 0.930 . S
C530 C528 1.395 1_556 S
C530 C533 1.403 1_545 S
C531 C528 1.403 . S
C531 C532 1.524 . S
C531 C535 1.400 1_545 S
C532 H517 0.960 . S
C532 H518 0.960 . S
C532 H519 0.960 . S
C532 C531 1.524 . S
C533 C530 1.403 1_565 S
C533 C534 1.392 . S
C533 C537 1.495 . S
C534 C533 1.392 . S
C534 C535 1.385 1_556 S
C534 C536 1.478 . S
C535 H529 0.930 . S
C535 C531 1.400 1_565 S
C535 C534 1.385 1_554 S
C536 C534 1.478 . S
C536 C538 1.381 . S
C536 C542 1.383 . S
C537 C533 1.495 . S
C537 H543 0.959 . S
C537 H544 0.961 . S
C537 H545 0.960 . S
C538 C536 1.381 . S
C538 C539 1.394 . S
C538 H546 0.930 1_556 S
C539 C538 1.394 . S
C539 C540 1.383 . S
C539 H547 0.929 . S
C540 C539 1.383 . S
C540 C541 1.377 . S
C541 H525 0.930 . S
C541 C540 1.377 . S
C541 C542 1.379 . S
C542 H526 0.931 . S
C542 C536 1.383 . S
C542 C541 1.379 . S
H543 C537 0.959 . S
H544 C537 0.961 . S
H545 C537 0.960 . S
H546 C538 0.930 1_554 S
H547 C539 0.929 . S
H548 C556 0.929 . S
H549 C558 0.930 . S
H550 C560 0.930 . S
H551 C563 0.929 . S
H552 C566 0.930 . S
H553 C568 0.960 . S
H554 C568 0.960 . S
H555 C568 0.960 . S
C556 H548 0.929 . S
C556 C557 1.377 . S
C556 C558 1.384 . S
C557 C556 1.377 . S
C557 C563 1.390 . S
C558 H549 0.930 . S
C558 C556 1.384 . S
C558 C559 1.372 . S
C559 C558 1.372 . S
C559 C560 1.400 . S
C559 C564 1.490 . S
C560 H550 0.930 . S
C560 C559 1.400 . S
C560 C563 1.386 . S
H561 C577 0.930 . S
H562 C578 0.931 . S
C563 H551 0.929 . S
C563 C557 1.390 . S
C563 C560 1.386 . S
C564 C559 1.490 . S
C564 C566 1.395 . S
C564 C567 1.403 . S
H565 C571 0.930 . S
C566 H552 0.930 . S
C566 C564 1.395 . S
C566 C569 1.403 1_565 S
C567 C564 1.403 . S
C567 C568 1.524 . S
C567 C571 1.400 1_565 S
C568 H553 0.960 . S
C568 H554 0.960 . S
C568 H555 0.960 . S
C568 C567 1.524 . S
C569 C566 1.403 1_545 S
C569 C570 1.392 . S
C569 C573 1.495 . S
C570 C569 1.392 . S
C570 C571 1.385 . S
C570 C572 1.478 . S
C571 H565 0.930 . S
C571 C567 1.400 1_545 S
C571 C570 1.385 . S
C572 C570 1.478 . S
C572 C574 1.381 . S
C572 C578 1.383 . S
C573 C569 1.495 . S
C573 H579 0.959 . S
C573 H580 0.961 . S
C573 H581 0.960 . S
C574 C572 1.381 . S
C574 C575 1.394 . S
C574 H582 0.930 . S
C575 C574 1.394 . S
C575 C576 1.383 . S
C575 H583 0.929 . S
C576 C575 1.383 . S
C576 C577 1.377 . S
C577 H561 0.930 . S
C577 C576 1.377 . S
C577 C578 1.379 . S
C578 H562 0.931 . S
C578 C572 1.383 . S
C578 C577 1.379 . S
H579 C573 0.959 . S
H580 C573 0.961 . S
H581 C573 0.960 . S
H582 C574 0.930 . S
H583 C575 0.929 . S
H584 C592 0.929 . S
H585 C594 0.930 . S
H586 C596 0.930 . S
H587 C599 0.929 . S
H588 C602 0.933 . S
H589 C604 0.960 . S
H590 C604 0.960 . S
H591 C604 0.960 . S
C592 H584 0.929 . S
C592 C593 1.377 . S
C592 C594 1.384 . S
C593 C592 1.377 . S
C593 C599 1.390 . S
C594 H585 0.930 . S
C594 C592 1.384 . S
C594 C595 1.372 . S
C595 C594 1.372 . S
C595 C596 1.400 . S
C595 C600 1.490 . S
C596 H586 0.930 . S
C596 C595 1.400 . S
C596 C599 1.386 . S
H597 C613 0.930 . S
H598 C614 0.931 . S
C599 H587 0.929 . S
C599 C593 1.390 . S
C599 C596 1.386 . S
C600 C595 1.490 . S
C600 C602 1.395 1_565 S
C600 C603 1.403 1_556 S
H601 C607 0.930 . S
C602 H588 0.933 . S
C602 C600 1.395 1_545 S
C602 C605 1.403 . S
C603 C600 1.403 1_554 S
C603 C604 1.524 . S
C603 C607 1.400 1_565 S
C604 H589 0.960 . S
C604 H590 0.960 . S
C604 H591 0.960 . S
C604 C603 1.524 . S
C605 C602 1.403 . S
C605 C606 1.392 1_556 S
C605 C609 1.495 . S
C606 C605 1.392 1_554 S
C606 C607 1.385 . S
C606 C608 1.478 . S
C607 H601 0.930 . S
C607 C603 1.400 1_545 S
C607 C606 1.385 . S
C608 C606 1.478 . S
C608 C610 1.381 . S
C608 C614 1.383 . S
C609 C605 1.495 . S
C609 H615 0.959 . S
C609 H616 0.961 . S
C609 H617 0.960 . S
C610 C608 1.381 . S
C610 C611 1.394 . S
C610 H618 0.930 . S
C611 C610 1.394 . S
C611 C612 1.383 . S
C611 H619 0.929 . S
C612 C611 1.383 . S
C612 C613 1.377 . S
C613 H597 0.930 . S
C613 C612 1.377 . S
C613 C614 1.379 . S
C614 H598 0.931 . S
C614 C608 1.383 . S
C614 C613 1.379 . S
H615 C609 0.959 . S
H616 C609 0.961 . S
H617 C609 0.960 . S
H618 C610 0.930 . S
H619 C611 0.929 . S
H620 C628 0.929 . S
H621 C630 0.930 . S
H622 C632 0.930 . S
H623 C635 0.929 . S
H624 C638 0.930 . S
H625 C640 0.960 . S
H626 C640 0.960 . S
H627 C640 0.960 . S
C628 H620 0.929 . S
C628 C629 1.377 . S
C628 C630 1.384 . S
C629 C628 1.377 . S
C629 C635 1.390 . S
C630 H621 0.930 . S
C630 C628 1.384 . S
C630 C631 1.372 . S
C631 C630 1.372 . S
C631 C632 1.400 . S
C631 C636 1.490 . S
C632 H622 0.930 . S
C632 C631 1.400 . S
C632 C635 1.386 . S
H633 C649 0.930 . S
H634 C650 0.931 . S
C635 H623 0.929 . S
C635 C629 1.390 . S
C635 C632 1.386 . S
C636 C631 1.490 . S
C636 C638 1.395 . S
C636 C639 1.403 . S
H637 C643 0.930 . S
C638 H624 0.930 . S
C638 C636 1.395 . S
C638 C641 1.403 1_545 S
C639 C636 1.403 . S
C639 C640 1.524 . S
C639 C643 1.400 1_545 S
C640 H625 0.960 . S
C640 H626 0.960 . S
C640 H627 0.960 . S
C640 C639 1.524 . S
C641 C638 1.403 1_565 S
C641 C642 1.392 . S
C641 C645 1.495 . S
C642 C641 1.392 . S
C642 C643 1.385 . S
C642 C644 1.478 . S
C643 H637 0.930 . S
C643 C639 1.400 1_565 S
C643 C642 1.385 . S
C644 C642 1.478 . S
C644 C646 1.381 . S
C644 C650 1.383 . S
C645 C641 1.495 . S
C645 H651 0.959 . S
C645 H652 0.961 . S
C645 H653 0.960 . S
C646 C644 1.381 . S
C646 C647 1.394 . S
C646 H654 0.930 . S
C647 C646 1.394 . S
C647 C648 1.383 . S
C647 H655 0.929 . S
C648 C647 1.383 . S
C648 C649 1.377 . S
C649 H633 0.930 . S
C649 C648 1.377 . S
C649 C650 1.379 . S
C650 H634 0.931 . S
C650 C644 1.383 . S
C650 C649 1.379 . S
H651 C645 0.959 . S
H652 C645 0.961 . S
H653 C645 0.960 . S
H654 C646 0.930 . S
H655 C647 0.929 . S
H656 C664 0.929 . S
H657 C666 0.930 . S
H658 C668 0.930 . S
H659 C671 0.929 . S
H660 C674 0.930 . S
H661 C676 0.960 . S
H662 C676 0.960 . S
H663 C676 0.960 . S
C664 H656 0.929 . S
C664 C665 1.377 . S
C664 C666 1.384 . S
C665 C664 1.377 . S
C665 C671 1.390 . S
C666 H657 0.930 . S
C666 C664 1.384 . S
C666 C667 1.372 . S
C667 C666 1.372 . S
C667 C668 1.400 . S
C667 C672 1.490 . S
C668 H658 0.930 . S
C668 C667 1.400 . S
C668 C671 1.386 . S
H669 C685 0.930 . S
H670 C686 0.931 . S
C671 H659 0.929 . S
C671 C665 1.390 . S
C671 C668 1.386 . S
C672 C667 1.490 . S
C672 C674 1.395 . S
C672 C675 1.403 1_556 S
H673 C679 0.930 . S
C674 H660 0.930 . S
C674 C672 1.395 . S
C674 C677 1.403 . S
C675 C672 1.403 1_554 S
C675 C676 1.524 . S
C675 C679 1.400 . S
C676 H661 0.960 . S
C676 H662 0.960 . S
C676 H663 0.960 . S
C676 C675 1.524 . S
C677 C674 1.403 . S
C677 C678 1.392 1_556 S
C677 C681 1.495 . S
C678 C677 1.392 1_554 S
C678 C679 1.385 . S
C678 C680 1.478 . S
C679 H673 0.930 . S
C679 C675 1.400 . S
C679 C678 1.385 . S
C680 C678 1.478 . S
C680 C682 1.381 . S
C680 C686 1.383 . S
C681 C677 1.495 . S
C681 H687 0.959 . S
C681 H688 0.961 . S
C681 H689 0.960 . S
C682 C680 1.381 . S
C682 C683 1.394 . S
C682 H690 0.930 . S
C683 C682 1.394 . S
C683 C684 1.383 . S
C683 H691 0.929 . S
C684 C683 1.383 . S
C684 C685 1.377 . S
C685 H669 0.930 . S
C685 C684 1.377 . S
C685 C686 1.379 . S
C686 H670 0.931 . S
C686 C680 1.383 . S
C686 C685 1.379 . S
H687 C681 0.959 . S
H688 C681 0.961 . S
H689 C681 0.960 . S
H690 C682 0.930 . S
H691 C683 0.929 . S
H692 C700 0.929 . S
H693 C702 0.930 . S
H694 C704 0.930 . S
H695 C707 0.929 . S
H696 C710 0.930 . S
H697 C712 0.960 . S
H698 C712 0.960 . S
H699 C712 0.960 . S
C700 H692 0.929 . S
C700 C701 1.377 . S
C700 C702 1.384 . S
C701 C700 1.377 . S
C701 C707 1.390 . S
C702 H693 0.930 . S
C702 C700 1.384 . S
C702 C703 1.372 . S
C703 C702 1.372 . S
C703 C704 1.400 . S
C703 C708 1.490 . S
C704 H694 0.930 . S
C704 C703 1.400 . S
C704 C707 1.386 . S
H705 C721 0.930 . S
H706 C722 0.931 . S
C707 H695 0.929 . S
C707 C701 1.390 . S
C707 C704 1.386 . S
C708 C703 1.490 . S
C708 C710 1.395 . S
C708 C711 1.403 . S
H709 C715 0.930 . S
C710 H696 0.930 . S
C710 C708 1.395 . S
C710 C713 1.403 . S
C711 C708 1.403 . S
C711 C712 1.524 . S
C711 C715 1.400 . S
C712 H697 0.960 . S
C712 H698 0.960 . S
C712 H699 0.960 . S
C712 C711 1.524 . S
C713 C710 1.403 . S
C713 C714 1.392 . S
C713 C717 1.495 . S
C714 C713 1.392 . S
C714 C715 1.385 . S
C714 C716 1.478 . S
C715 H709 0.930 . S
C715 C711 1.400 . S
C715 C714 1.385 . S
C716 C714 1.478 . S
C716 C718 1.381 . S
C716 C722 1.383 . S
C717 C713 1.495 . S
C717 H723 0.959 . S
C717 H724 0.961 . S
C717 H725 0.960 . S
C718 C716 1.381 . S
C718 C719 1.394 . S
C718 H726 0.930 . S
C719 C718 1.394 . S
C719 C720 1.383 . S
C719 H727 0.929 . S
C720 C719 1.383 . S
C720 C721 1.377 . S
C721 H705 0.930 . S
C721 C720 1.377 . S
C721 C722 1.379 . S
C722 H706 0.931 . S
C722 C716 1.383 . S
C722 C721 1.379 . S
H723 C717 0.959 . S
H724 C717 0.961 . S
H725 C717 0.960 . S
H726 C718 0.930 . S
H727 C719 0.929 . S
H728 C736 0.929 . S
H729 C738 0.930 . S
H730 C740 0.930 . S
H731 C743 0.929 . S
H732 C746 0.930 . S
H733 C748 0.960 . S
H734 C748 0.960 . S
H735 C748 0.960 . S
C736 H728 0.929 . S
C736 C737 1.377 . S
C736 C738 1.384 . S
C737 C736 1.377 . S
C737 C743 1.390 . S
C738 H729 0.930 . S
C738 C736 1.384 . S
C738 C739 1.372 . S
C739 C738 1.372 . S
C739 C740 1.400 . S
C739 C744 1.490 . S
C740 H730 0.930 . S
C740 C739 1.400 . S
C740 C743 1.386 . S
H741 C757 0.930 . S
H742 C758 0.931 . S
C743 H731 0.929 . S
C743 C737 1.390 . S
C743 C740 1.386 . S
C744 C739 1.490 . S
C744 C746 1.395 1_554 S
C744 C747 1.403 . S
H745 C751 0.930 . S
C746 H732 0.930 . S
C746 C744 1.395 1_556 S
C746 C749 1.403 . S
C747 C744 1.403 . S
C747 C748 1.524 . S
C747 C751 1.400 . S
C748 H733 0.960 . S
C748 H734 0.960 . S
C748 H735 0.960 . S
C748 C747 1.524 . S
C749 C746 1.403 . S
C749 C750 1.392 . S
C749 C753 1.495 . S
C750 C749 1.392 . S
C750 C751 1.385 1_556 S
C750 C752 1.478 . S
C751 H745 0.930 . S
C751 C747 1.400 . S
C751 C750 1.385 1_554 S
C752 C750 1.478 . S
C752 C754 1.381 . S
C752 C758 1.383 . S
C753 C749 1.495 . S
C753 H759 0.959 . S
C753 H760 0.961 . S
C753 H761 0.960 . S
C754 C752 1.381 . S
C754 C755 1.394 . S
C754 H762 0.930 . S
C755 C754 1.394 . S
C755 C756 1.383 . S
C755 H763 0.929 . S
C756 C755 1.383 . S
C756 C757 1.377 . S
C757 H741 0.930 . S
C757 C756 1.377 . S
C757 C758 1.379 . S
C758 H742 0.931 . S
C758 C752 1.383 . S
C758 C757 1.379 . S
H759 C753 0.959 . S
H760 C753 0.961 . S
H761 C753 0.960 . S
H762 C754 0.930 . S
H763 C755 0.929 . S
H764 C772 0.929 . S
H765 C774 0.930 . S
H766 C776 0.930 . S
H767 C779 0.929 . S
H768 C782 0.930 . S
H769 C784 0.960 . S
H770 C784 0.960 . S
H771 C784 0.960 . S
C772 H764 0.929 . S
C772 C773 1.377 . S
C772 C774 1.384 . S
C773 C772 1.377 . S
C773 C779 1.390 . S
C774 H765 0.930 . S
C774 C772 1.384 . S
C774 C775 1.372 . S
C775 C774 1.372 . S
C775 C776 1.400 . S
C775 C780 1.490 . S
C776 H766 0.930 . S
C776 C775 1.400 . S
C776 C779 1.386 . S
H777 C793 0.930 . S
H778 C794 0.931 . S
C779 H767 0.929 . S
C779 C773 1.390 . S
C779 C776 1.386 . S
C780 C775 1.490 . S
C780 C782 1.395 . S
C780 C783 1.403 . S
H781 C787 0.930 . S
C782 H768 0.930 . S
C782 C780 1.395 . S
C782 C785 1.403 . S
C783 C780 1.403 . S
C783 C784 1.524 . S
C783 C787 1.400 . S
C784 H769 0.960 . S
C784 H770 0.960 . S
C784 H771 0.960 . S
C784 C783 1.524 . S
C785 C782 1.403 . S
C785 C786 1.392 . S
C785 C789 1.495 . S
C786 C785 1.392 . S
C786 C787 1.385 . S
C786 C788 1.478 . S
C787 H781 0.930 . S
C787 C783 1.400 . S
C787 C786 1.385 . S
C788 C786 1.478 . S
C788 C790 1.381 . S
C788 C794 1.383 . S
C789 C785 1.495 . S
C789 H795 0.959 . S
C789 H796 0.961 . S
C789 H797 0.960 . S
C790 C788 1.381 . S
C790 C791 1.394 . S
C790 H798 0.930 . S
C791 C790 1.394 . S
C791 C792 1.383 . S
C791 H799 0.929 . S
C792 C791 1.383 . S
C792 C793 1.377 . S
C793 H777 0.930 . S
C793 C792 1.377 . S
C793 C794 1.379 . S
C794 H778 0.931 . S
C794 C788 1.383 . S
C794 C793 1.379 . S
H795 C789 0.959 . S
H796 C789 0.961 . S
H797 C789 0.960 . S
H798 C790 0.930 . S
H799 C791 0.929 . S
H800 C808 0.929 . S
H801 C810 0.930 . S
H802 C812 0.930 . S
H803 C815 0.929 . S
H804 C818 0.930 . S
H805 C820 0.960 . S
H806 C820 0.960 . S
H807 C820 0.960 . S
C808 H800 0.929 . S
C808 C809 1.377 . S
C808 C810 1.384 . S
C809 C808 1.377 . S
C809 C815 1.390 . S
C810 H801 0.930 . S
C810 C808 1.384 . S
C810 C811 1.372 . S
C811 C810 1.372 . S
C811 C812 1.400 . S
C811 C816 1.490 . S
C812 H802 0.930 . S
C812 C811 1.400 . S
C812 C815 1.386 . S
H813 C829 0.930 . S
H814 C830 0.931 . S
C815 H803 0.929 . S
C815 C809 1.390 . S
C815 C812 1.386 . S
C816 C811 1.490 . S
C816 C818 1.395 . S
C816 C819 1.403 . S
H817 C823 0.930 . S
C818 H804 0.930 . S
C818 C816 1.395 . S
C818 C821 1.403 . S
C819 C816 1.403 . S
C819 C820 1.524 . S
C819 C823 1.400 . S
C820 H805 0.960 . S
C820 H806 0.960 . S
C820 H807 0.960 . S
C820 C819 1.524 . S
C821 C818 1.403 . S
C821 C822 1.392 . S
C821 C825 1.495 . S
C822 C821 1.392 . S
C822 C823 1.385 . S
C822 C824 1.478 . S
C823 H817 0.930 . S
C823 C819 1.400 . S
C823 C822 1.385 . S
C824 C822 1.478 . S
C824 C826 1.381 . S
C824 C830 1.383 . S
C825 C821 1.495 . S
C825 H831 0.959 . S
C825 H832 0.961 . S
C825 H833 0.960 . S
C826 C824 1.381 . S
C826 C827 1.394 . S
C826 H834 0.930 . S
C827 C826 1.394 . S
C827 C828 1.383 . S
C827 H835 0.929 . S
C828 C827 1.383 . S
C828 C829 1.377 . S
C829 H813 0.930 . S
C829 C828 1.377 . S
C829 C830 1.379 . S
C830 H814 0.931 . S
C830 C824 1.383 . S
C830 C829 1.379 . S
H831 C825 0.959 . S
H832 C825 0.961 . S
H833 C825 0.960 . S
H834 C826 0.930 . S
H835 C827 0.929 . S
H836 C844 0.929 . S
H837 C846 0.930 . S
H838 C848 0.930 . S
H839 C851 0.929 . S
H840 C854 0.930 . S
H841 C856 0.960 . S
H842 C856 0.960 . S
H843 C856 0.960 . S
C844 H836 0.929 . S
C844 C845 1.377 . S
C844 C846 1.384 . S
C845 C844 1.377 . S
C845 C851 1.390 . S
C846 H837 0.930 . S
C846 C844 1.384 . S
C846 C847 1.379 . S
C847 C846 1.379 . S
C847 C848 1.406 . S
C847 C852 1.477 1_655 S
C848 H838 0.930 . S
C848 C847 1.406 . S
C848 C851 1.386 . S
H849 C865 0.930 . S
H850 C866 0.931 . S
C851 H839 0.929 . S
C851 C845 1.390 . S
C851 C848 1.386 . S
C852 C847 1.477 1_455 S
C852 C854 1.395 . S
C852 C855 1.403 . S
H853 C859 0.930 . S
C854 H840 0.930 . S
C854 C852 1.395 . S
C854 C857 1.403 . S
C855 C852 1.403 . S
C855 C856 1.524 . S
C855 C859 1.400 . S
C856 H841 0.960 . S
C856 H842 0.960 . S
C856 H843 0.960 . S
C856 C855 1.524 . S
C857 C854 1.403 . S
C857 C858 1.392 . S
C857 C861 1.495 . S
C858 C857 1.392 . S
C858 C859 1.385 . S
C858 C860 1.478 . S
C859 H853 0.930 . S
C859 C855 1.400 . S
C859 C858 1.385 . S
C860 C858 1.478 . S
C860 C862 1.381 . S
C860 C866 1.383 . S
C861 C857 1.495 . S
C861 H867 0.959 . S
C861 H868 0.961 . S
C861 H869 0.960 . S
C862 C860 1.381 . S
C862 C863 1.394 . S
C862 H870 0.930 . S
C863 C862 1.394 . S
C863 C864 1.383 . S
C863 H871 0.929 . S
C864 C863 1.383 . S
C864 C865 1.377 . S
C865 H849 0.930 . S
C865 C864 1.377 . S
C865 C866 1.379 . S
C866 H850 0.931 . S
C866 C860 1.383 . S
C866 C865 1.379 . S
H867 C861 0.959 . S
H868 C861 0.961 . S
H869 C861 0.960 . S
H870 C862 0.930 . S
H871 C863 0.929 . S
H872 C880 0.929 . S
H873 C882 0.930 . S
H874 C884 0.930 . S
H875 C887 0.929 . S
H876 C890 0.930 . S
H877 C892 0.960 . S
H878 C892 0.960 . S
H879 C892 0.960 . S
C880 H872 0.929 . S
C880 C881 1.377 . S
C880 C882 1.384 . S
C881 C880 1.377 . S
C881 C887 1.390 . S
C882 H873 0.930 . S
C882 C880 1.384 . S
C882 C883 1.372 . S
C883 C882 1.372 . S
C883 C884 1.400 . S
C883 C888 1.490 . S
C884 H874 0.930 . S
C884 C883 1.400 . S
C884 C887 1.386 . S
H885 C901 0.930 . S
H886 C902 0.931 . S
C887 H875 0.929 . S
C887 C881 1.390 . S
C887 C884 1.386 . S
C888 C883 1.490 . S
C888 C890 1.395 . S
C888 C891 1.403 . S
H889 C895 0.930 . S
C890 H876 0.930 . S
C890 C888 1.395 . S
C890 C893 1.403 . S
C891 C888 1.403 . S
C891 C892 1.524 . S
C891 C895 1.400 . S
C892 H877 0.960 . S
C892 H878 0.960 . S
C892 H879 0.960 . S
C892 C891 1.524 . S
C893 C890 1.403 . S
C893 C894 1.392 . S
C893 C897 1.495 . S
C894 C893 1.392 . S
C894 C895 1.385 . S
C894 C896 1.478 . S
C895 H889 0.930 . S
C895 C891 1.400 . S
C895 C894 1.385 . S
C896 C894 1.478 . S
C896 C898 1.381 . S
C896 C902 1.383 . S
C897 C893 1.495 . S
C897 H903 0.959 . S
C897 H904 0.961 . S
C897 H905 0.960 . S
C898 C896 1.381 . S
C898 C899 1.394 . S
C898 H906 0.930 . S
C899 C898 1.394 . S
C899 C900 1.383 . S
C899 H907 0.929 . S
C900 C899 1.383 . S
C900 C901 1.377 . S
C901 H885 0.930 . S
C901 C900 1.377 . S
C901 C902 1.379 . S
C902 H886 0.931 . S
C902 C896 1.383 . S
C902 C901 1.379 . S
H903 C897 0.959 . S
H904 C897 0.961 . S
H905 C897 0.960 . S
H906 C898 0.930 . S
H907 C899 0.929 . S
H908 C916 0.929 . S
H909 C918 0.930 . S
H910 C920 0.930 . S
H911 C923 0.929 . S
H912 C926 0.930 . S
H913 C928 0.960 . S
H914 C928 0.960 . S
H915 C928 0.960 . S
C916 H908 0.929 . S
C916 C917 1.377 . S
C916 C918 1.384 . S
C917 C916 1.377 . S
C917 C923 1.390 . S
C918 H909 0.930 . S
C918 C916 1.384 . S
C918 C919 1.372 . S
C919 C918 1.372 . S
C919 C920 1.400 . S
C919 C924 1.490 . S
C920 H910 0.930 . S
C920 C919 1.400 . S
C920 C923 1.386 . S
H921 C937 0.930 . S
H922 C938 0.931 . S
C923 H911 0.929 . S
C923 C917 1.390 . S
C923 C920 1.386 . S
C924 C919 1.490 . S
C924 C926 1.395 . S
C924 C927 1.403 . S
H925 C931 0.930 . S
C926 H912 0.930 . S
C926 C924 1.395 . S
C926 C929 1.403 . S
C927 C924 1.403 . S
C927 C928 1.524 . S
C927 C931 1.400 . S
C928 H913 0.960 . S
C928 H914 0.960 . S
C928 H915 0.960 . S
C928 C927 1.524 . S
C929 C926 1.403 . S
C929 C930 1.392 . S
C929 C933 1.495 . S
C930 C929 1.392 . S
C930 C931 1.385 . S
C930 C932 1.448 1_455 S
C931 H925 0.930 . S
C931 C927 1.400 . S
C931 C930 1.385 . S
C932 C930 1.448 1_655 S
C932 C934 1.397 . S
C932 C938 1.397 . S
C933 C929 1.495 . S
C933 H939 0.959 . S
C933 H940 0.961 . S
C933 H941 0.960 . S
C934 C932 1.397 . S
C934 C935 1.394 . S
C934 H942 0.930 . S
C935 C934 1.394 . S
C935 C936 1.383 . S
C935 H943 0.929 . S
C936 C935 1.383 . S
C936 C937 1.377 . S
C937 H921 0.930 . S
C937 C936 1.377 . S
C937 C938 1.379 . S
C938 H922 0.931 . S
C938 C932 1.397 . S
C938 C937 1.379 . S
H939 C933 0.959 . S
H940 C933 0.961 . S
H941 C933 0.960 . S
H942 C934 0.930 . S
H943 C935 0.929 . S
H944 C952 0.929 . S
H945 C954 0.930 . S
H946 C956 0.930 . S
H947 C959 0.929 . S
H948 C962 0.930 . S
H949 C964 0.960 . S
H950 C964 0.960 . S
H951 C964 0.960 . S
C952 H944 0.929 . S
C952 C953 1.377 . S
C952 C954 1.384 . S
C953 C952 1.377 . S
C953 C959 1.390 . S
C954 H945 0.930 . S
C954 C952 1.384 . S
C954 C955 1.379 . S
C955 C954 1.379 . S
C955 C956 1.406 . S
C955 C960 1.477 1_455 S
C956 H946 0.930 . S
C956 C955 1.406 . S
C956 C959 1.386 . S
H957 C973 0.930 . S
H958 C974 0.931 . S
C959 H947 0.929 . S
C959 C953 1.390 . S
C959 C956 1.386 . S
C960 C955 1.477 1_655 S
C960 C962 1.395 . S
C960 C963 1.403 . S
H961 C967 0.930 . S
C962 H948 0.930 . S
C962 C960 1.395 . S
C962 C965 1.403 . S
C963 C960 1.403 . S
C963 C964 1.524 . S
C963 C967 1.400 . S
C964 H949 0.960 . S
C964 H950 0.960 . S
C964 H951 0.960 . S
C964 C963 1.524 . S
C965 C962 1.403 . S
C965 C966 1.392 . S
C965 C969 1.495 . S
C966 C965 1.392 . S
C966 C967 1.385 . S
C966 C968 1.478 . S
C967 H961 0.930 . S
C967 C963 1.400 . S
C967 C966 1.385 . S
C968 C966 1.478 . S
C968 C970 1.381 . S
C968 C974 1.383 . S
C969 C965 1.495 . S
C969 H975 0.959 . S
C969 H976 0.961 . S
C969 H977 0.960 . S
C970 C968 1.381 . S
C970 C971 1.394 . S
C970 H978 0.930 . S
C971 C970 1.394 . S
C971 C972 1.383 . S
C971 H979 0.929 . S
C972 C971 1.383 . S
C972 C973 1.377 . S
C973 H957 0.930 . S
C973 C972 1.377 . S
C973 C974 1.379 . S
C974 H958 0.931 . S
C974 C968 1.383 . S
C974 C973 1.379 . S
H975 C969 0.959 . S
H976 C969 0.961 . S
H977 C969 0.960 . S
H978 C970 0.930 . S
H979 C971 0.929 . S
H980 C988 0.929 . S
H981 C990 0.930 . S
H982 C992 0.930 . S
H983 C995 0.929 . S
H984 C998 0.930 . S
H985 C1000 0.960 . S
H986 C1000 0.960 . S
H987 C1000 0.960 . S
C988 H980 0.929 . S
C988 C989 1.377 . S
C988 C990 1.384 . S
C989 C988 1.377 . S
C989 C995 1.390 . S
C990 H981 0.930 . S
C990 C988 1.384 . S
C990 C991 1.372 . S
C991 C990 1.372 . S
C991 C992 1.400 . S
C991 C996 1.490 . S
C992 H982 0.930 . S
C992 C991 1.400 . S
C992 C995 1.386 . S
H993 C1009 0.930 . S
H994 C1010 0.931 . S
C995 H983 0.929 . S
C995 C989 1.390 . S
C995 C992 1.386 . S
C996 C991 1.490 . S
C996 C998 1.395 . S
C996 C999 1.403 . S
H997 C1003 0.930 . S
C998 H984 0.930 . S
C998 C996 1.395 . S
C998 C1001 1.403 . S
C999 C996 1.403 . S
C999 C1000 1.524 . S
C999 C1003 1.400 . S
C1000 H985 0.960 . S
C1000 H986 0.960 . S
C1000 H987 0.960 . S
C1000 C999 1.524 . S
C1001 C998 1.403 . S
C1001 C1002 1.392 . S
C1001 C1005 1.495 . S
C1002 C1001 1.392 . S
C1002 C1003 1.385 . S
C1002 C1004 1.478 . S
C1003 H997 0.930 . S
C1003 C999 1.400 . S
C1003 C1002 1.385 . S
C1004 C1002 1.478 . S
C1004 C1006 1.381 . S
C1004 C1010 1.383 . S
C1005 C1001 1.495 . S
C1005 H1011 0.959 . S
C1005 H1012 0.961 . S
C1005 H1013 0.960 . S
C1006 C1004 1.381 . S
C1006 C1007 1.394 . S
C1006 H1014 0.930 . S
C1007 C1006 1.394 . S
C1007 C1008 1.383 . S
C1007 H1015 0.929 . S
C1008 C1007 1.383 . S
C1008 C1009 1.377 . S
C1009 H993 0.930 . S
C1009 C1008 1.377 . S
C1009 C1010 1.379 . S
C1010 H994 0.931 . S
C1010 C1004 1.383 . S
C1010 C1009 1.379 . S
H1011 C1005 0.959 . S
H1012 C1005 0.961 . S
H1013 C1005 0.960 . S
H1014 C1006 0.930 . S
H1015 C1007 0.929 . S
H1016 C1024 0.929 . S
H1017 C1026 0.930 . S
H1018 C1028 0.930 . S
H1019 C1031 0.929 . S
H1020 C1034 0.930 . S
H1021 C1036 0.960 . S
H1022 C1036 0.960 . S
H1023 C1036 0.960 . S
C1024 H1016 0.929 . S
C1024 C1025 1.377 . S
C1024 C1026 1.384 . S
C1025 C1024 1.377 . S
C1025 C1031 1.390 . S
C1026 H1017 0.930 . S
C1026 C1024 1.384 . S
C1026 C1027 1.380 . S
C1027 C1026 1.380 . S
C1027 C1028 1.407 . S
C1027 C1032 1.476 1_455 S
C1028 H1018 0.930 . S
C1028 C1027 1.407 . S
C1028 C1031 1.386 . S
H1029 C1045 0.930 . S
H1030 C1046 0.931 . S
C1031 H1019 0.929 . S
C1031 C1025 1.390 . S
C1031 C1028 1.386 . S
C1032 C1027 1.476 1_655 S
C1032 C1034 1.395 . S
C1032 C1035 1.403 . S
H1033 C1039 0.930 . S
C1034 H1020 0.930 . S
C1034 C1032 1.395 . S
C1034 C1037 1.403 . S
C1035 C1032 1.403 . S
C1035 C1036 1.524 . S
C1035 C1039 1.400 . S
C1036 H1021 0.960 . S
C1036 H1022 0.960 . S
C1036 H1023 0.960 . S
C1036 C1035 1.524 . S
C1037 C1034 1.403 . S
C1037 C1038 1.392 . S
C1037 C1041 1.495 . S
C1038 C1037 1.392 . S
C1038 C1039 1.385 . S
C1038 C1040 1.478 . S
C1039 H1033 0.930 . S
C1039 C1035 1.400 . S
C1039 C1038 1.385 . S
C1040 C1038 1.478 . S
C1040 C1042 1.381 . S
C1040 C1046 1.383 . S
C1041 C1037 1.495 . S
C1041 H1047 0.959 . S
C1041 H1048 0.961 . S
C1041 H1049 0.960 . S
C1042 C1040 1.381 . S
C1042 C1043 1.394 . S
C1042 H1050 0.930 . S
C1043 C1042 1.394 . S
C1043 C1044 1.383 . S
C1043 H1051 0.929 . S
C1044 C1043 1.383 . S
C1044 C1045 1.377 . S
C1045 H1029 0.930 . S
C1045 C1044 1.377 . S
C1045 C1046 1.379 . S
C1046 H1030 0.931 . S
C1046 C1040 1.383 . S
C1046 C1045 1.379 . S
H1047 C1041 0.959 . S
H1048 C1041 0.961 . S
H1049 C1041 0.960 . S
H1050 C1042 0.930 . S
H1051 C1043 0.929 . S
H1052 C1060 0.929 . S
H1053 C1062 0.930 . S
H1054 C1064 0.930 . S
H1055 C1067 0.929 . S
H1056 C1070 0.930 . S
H1057 C1072 0.960 . S
H1058 C1072 0.960 . S
H1059 C1072 0.960 . S
C1060 H1052 0.929 . S
C1060 C1061 1.377 . S
C1060 C1062 1.384 . S
C1061 C1060 1.377 . S
C1061 C1067 1.390 . S
C1062 H1053 0.930 . S
C1062 C1060 1.384 . S
C1062 C1063 1.372 . S
C1063 C1062 1.372 . S
C1063 C1064 1.400 . S
C1063 C1068 1.490 . S
C1064 H1054 0.930 . S
C1064 C1063 1.400 . S
C1064 C1067 1.386 . S
H1065 C1081 0.930 . S
H1066 C1082 0.931 . S
C1067 H1055 0.929 . S
C1067 C1061 1.390 . S
C1067 C1064 1.386 . S
C1068 C1063 1.490 . S
C1068 C1070 1.395 . S
C1068 C1071 1.403 . S
H1069 C1075 0.930 . S
C1070 H1056 0.930 . S
C1070 C1068 1.395 . S
C1070 C1073 1.403 . S
C1071 C1068 1.403 . S
C1071 C1072 1.524 . S
C1071 C1075 1.400 . S
C1072 H1057 0.960 . S
C1072 H1058 0.960 . S
C1072 H1059 0.960 . S
C1072 C1071 1.524 . S
C1073 C1070 1.403 . S
C1073 C1074 1.392 . S
C1073 C1077 1.495 . S
C1074 C1073 1.392 . S
C1074 C1075 1.385 . S
C1074 C1076 1.478 . S
C1075 H1069 0.930 . S
C1075 C1071 1.400 . S
C1075 C1074 1.385 . S
C1076 C1074 1.478 . S
C1076 C1078 1.381 . S
C1076 C1082 1.383 . S
C1077 C1073 1.495 . S
C1077 H1083 0.959 . S
C1077 H1084 0.961 . S
C1077 H1085 0.960 . S
C1078 C1076 1.381 . S
C1078 C1079 1.394 . S
C1078 H1086 0.930 . S
C1079 C1078 1.394 . S
C1079 C1080 1.383 . S
C1079 H1087 0.929 . S
C1080 C1079 1.383 . S
C1080 C1081 1.377 . S
C1081 H1065 0.930 . S
C1081 C1080 1.377 . S
C1081 C1082 1.379 . S
C1082 H1066 0.931 . S
C1082 C1076 1.383 . S
C1082 C1081 1.379 . S
H1083 C1077 0.959 . S
H1084 C1077 0.961 . S
H1085 C1077 0.960 . S
H1086 C1078 0.930 . S
H1087 C1079 0.929 . S
H1088 C1096 0.929 . S
H1089 C1098 0.930 . S
H1090 C1100 0.930 . S
H1091 C1103 0.929 . S
H1092 C1106 0.930 . S
H1093 C1108 0.960 . S
H1094 C1108 0.960 . S
H1095 C1108 0.960 . S
C1096 H1088 0.929 . S
C1096 C1097 1.377 . S
C1096 C1098 1.384 . S
C1097 C1096 1.377 . S
C1097 C1103 1.390 . S
C1098 H1089 0.930 . S
C1098 C1096 1.384 . S
C1098 C1099 1.372 . S
C1099 C1098 1.372 . S
C1099 C1100 1.400 . S
C1099 C1104 1.490 . S
C1100 H1090 0.930 . S
C1100 C1099 1.400 . S
C1100 C1103 1.386 . S
H1101 C1117 0.930 . S
H1102 C1118 0.931 . S
C1103 H1091 0.929 . S
C1103 C1097 1.390 . S
C1103 C1100 1.386 . S
C1104 C1099 1.490 . S
C1104 C1106 1.395 . S
C1104 C1107 1.403 . S
H1105 C1111 0.930 . S
C1106 H1092 0.930 . S
C1106 C1104 1.395 . S
C1106 C1109 1.403 . S
C1107 C1104 1.403 . S
C1107 C1108 1.524 . S
C1107 C1111 1.400 . S
C1108 H1093 0.960 . S
C1108 H1094 0.960 . S
C1108 H1095 0.960 . S
C1108 C1107 1.524 . S
C1109 C1106 1.403 . S
C1109 C1110 1.392 . S
C1109 C1113 1.495 . S
C1110 C1109 1.392 . S
C1110 C1111 1.385 . S
C1110 C1112 1.478 . S
C1111 H1105 0.930 . S
C1111 C1107 1.400 . S
C1111 C1110 1.385 . S
C1112 C1110 1.478 . S
C1112 C1114 1.381 . S
C1112 C1118 1.383 . S
C1113 C1109 1.495 . S
C1113 H1119 0.959 . S
C1113 H1120 0.961 . S
C1113 H1121 0.960 . S
C1114 C1112 1.381 . S
C1114 C1115 1.394 . S
C1114 H1122 0.930 . S
C1115 C1114 1.394 . S
C1115 C1116 1.383 . S
C1115 H1123 0.929 . S
C1116 C1115 1.383 . S
C1116 C1117 1.377 . S
C1117 H1101 0.930 . S
C1117 C1116 1.377 . S
C1117 C1118 1.379 . S
C1118 H1102 0.931 . S
C1118 C1112 1.383 . S
C1118 C1117 1.379 . S
H1119 C1113 0.959 . S
H1120 C1113 0.961 . S
H1121 C1113 0.960 . S
H1122 C1114 0.930 . S
H1123 C1115 0.929 . S
H1124 C1132 0.929 . S
H1125 C1134 0.930 . S
H1126 C1136 0.930 . S
H1127 C1139 0.929 . S
H1128 C1142 0.930 . S
H1129 C1144 0.960 . S
H1130 C1144 0.960 . S
H1131 C1144 0.960 . S
C1132 H1124 0.929 . S
C1132 C1133 1.377 . S
C1132 C1134 1.384 . S
C1133 C1132 1.377 . S
C1133 C1139 1.390 . S
C1134 H1125 0.930 . S
C1134 C1132 1.384 . S
C1134 C1135 1.372 . S
C1135 C1134 1.372 . S
C1135 C1136 1.400 . S
C1135 C1140 1.490 . S
C1136 H1126 0.930 . S
C1136 C1135 1.400 . S
C1136 C1139 1.386 . S
H1137 C1153 0.930 . S
H1138 C1154 0.931 . S
C1139 H1127 0.929 . S
C1139 C1133 1.390 . S
C1139 C1136 1.386 . S
C1140 C1135 1.490 . S
C1140 C1142 1.395 . S
C1140 C1143 1.403 . S
H1141 C1147 0.930 . S
C1142 H1128 0.930 . S
C1142 C1140 1.395 . S
C1142 C1145 1.403 . S
C1143 C1140 1.403 . S
C1143 C1144 1.524 . S
C1143 C1147 1.400 . S
C1144 H1129 0.960 . S
C1144 H1130 0.960 . S
C1144 H1131 0.960 . S
C1144 C1143 1.524 . S
C1145 C1142 1.403 . S
C1145 C1146 1.392 . S
C1145 C1149 1.495 . S
C1146 C1145 1.392 . S
C1146 C1147 1.385 . S
C1146 C1148 1.478 . S
C1147 H1141 0.930 . S
C1147 C1143 1.400 . S
C1147 C1146 1.385 . S
C1148 C1146 1.478 . S
C1148 C1150 1.381 . S
C1148 C1154 1.383 . S
C1149 C1145 1.495 . S
C1149 H1155 0.959 . S
C1149 H1156 0.961 . S
C1149 H1157 0.960 . S
C1150 C1148 1.381 . S
C1150 C1151 1.394 . S
C1150 H1158 0.930 . S
C1151 C1150 1.394 . S
C1151 C1152 1.383 . S
C1151 H1159 0.929 . S
C1152 C1151 1.383 . S
C1152 C1153 1.377 . S
C1153 H1137 0.930 . S
C1153 C1152 1.377 . S
C1153 C1154 1.379 . S
C1154 H1138 0.931 . S
C1154 C1148 1.383 . S
C1154 C1153 1.379 . S
H1155 C1149 0.959 . S
H1156 C1149 0.961 . S
H1157 C1149 0.960 . S
H1158 C1150 0.930 . S
H1159 C1151 0.929 . S
H1160 C1168 0.929 . S
H1161 C1170 0.930 . S
H1162 C1172 0.930 . S
H1163 C1175 0.929 . S
H1164 C1178 0.930 . S
H1165 C1180 0.960 . S
H1166 C1180 0.960 . S
H1167 C1180 0.960 . S
C1168 H1160 0.929 . S
C1168 C1169 1.377 . S
C1168 C1170 1.384 . S
C1169 C1168 1.377 . S
C1169 C1175 1.390 . S
C1170 H1161 0.930 . S
C1170 C1168 1.384 . S
C1170 C1171 1.372 . S
C1171 C1170 1.372 . S
C1171 C1172 1.400 . S
C1171 C1176 1.490 . S
C1172 H1162 0.930 . S
C1172 C1171 1.400 . S
C1172 C1175 1.386 . S
H1173 C1189 0.930 . S
H1174 C1190 0.931 . S
C1175 H1163 0.929 . S
C1175 C1169 1.390 . S
C1175 C1172 1.386 . S
C1176 C1171 1.490 . S
C1176 C1178 1.395 . S
C1176 C1179 1.403 . S
H1177 C1183 0.930 . S
C1178 H1164 0.930 . S
C1178 C1176 1.395 . S
C1178 C1181 1.403 . S
C1179 C1176 1.403 . S
C1179 C1180 1.524 . S
C1179 C1183 1.400 . S
C1180 H1165 0.960 . S
C1180 H1166 0.960 . S
C1180 H1167 0.960 . S
C1180 C1179 1.524 . S
C1181 C1178 1.403 . S
C1181 C1182 1.392 . S
C1181 C1185 1.495 . S
C1182 C1181 1.392 . S
C1182 C1183 1.385 . S
C1182 C1184 1.478 . S
C1183 H1177 0.930 . S
C1183 C1179 1.400 . S
C1183 C1182 1.385 . S
C1184 C1182 1.478 . S
C1184 C1186 1.381 . S
C1184 C1190 1.383 . S
C1185 C1181 1.495 . S
C1185 H1191 0.959 . S
C1185 H1192 0.961 . S
C1185 H1193 0.960 . S
C1186 C1184 1.381 . S
C1186 C1187 1.394 . S
C1186 H1194 0.930 . S
C1187 C1186 1.394 . S
C1187 C1188 1.383 . S
C1187 H1195 0.929 . S
C1188 C1187 1.383 . S
C1188 C1189 1.377 . S
C1189 H1173 0.930 . S
C1189 C1188 1.377 . S
C1189 C1190 1.379 . S
C1190 H1174 0.931 . S
C1190 C1184 1.383 . S
C1190 C1189 1.379 . S
H1191 C1185 0.959 . S
H1192 C1185 0.961 . S
H1193 C1185 0.960 . S
H1194 C1186 0.930 . S
H1195 C1187 0.929 . S
H1196 C1204 0.929 . S
H1197 C1206 0.930 . S
H1198 C1208 0.930 . S
H1199 C1211 0.929 . S
H1200 C1214 0.930 . S
H1201 C1216 0.960 . S
H1202 C1216 0.960 . S
H1203 C1216 0.960 . S
C1204 H1196 0.929 . S
C1204 C1205 1.377 . S
C1204 C1206 1.384 . S
C1205 C1204 1.377 . S
C1205 C1211 1.390 . S
C1206 H1197 0.930 . S
C1206 C1204 1.384 . S
C1206 C1207 1.372 . S
C1207 C1206 1.372 . S
C1207 C1208 1.400 . S
C1207 C1212 1.490 . S
C1208 H1198 0.930 . S
C1208 C1207 1.400 . S
C1208 C1211 1.386 . S
H1209 C1225 0.930 . S
H1210 C1226 0.931 . S
C1211 H1199 0.929 . S
C1211 C1205 1.390 . S
C1211 C1208 1.386 . S
C1212 C1207 1.490 . S
C1212 C1214 1.395 . S
C1212 C1215 1.403 . S
H1213 C1219 0.930 . S
C1214 H1200 0.930 . S
C1214 C1212 1.395 . S
C1214 C1217 1.403 . S
C1215 C1212 1.403 . S
C1215 C1216 1.524 . S
C1215 C1219 1.400 . S
C1216 H1201 0.960 . S
C1216 H1202 0.960 . S
C1216 H1203 0.960 . S
C1216 C1215 1.524 . S
C1217 C1214 1.403 . S
C1217 C1218 1.392 . S
C1217 C1221 1.495 . S
C1218 C1217 1.392 . S
C1218 C1219 1.385 . S
C1218 C1220 1.478 . S
C1219 H1213 0.930 . S
C1219 C1215 1.400 . S
C1219 C1218 1.385 . S
C1220 C1218 1.478 . S
C1220 C1222 1.381 . S
C1220 C1226 1.383 . S
C1221 C1217 1.495 . S
C1221 H1227 0.959 . S
C1221 H1228 0.961 . S
C1221 H1229 0.960 . S
C1222 C1220 1.381 . S
C1222 C1223 1.394 . S
C1222 H1230 0.930 . S
C1223 C1222 1.394 . S
C1223 C1224 1.383 . S
C1223 H1231 0.929 . S
C1224 C1223 1.383 . S
C1224 C1225 1.377 . S
C1225 H1209 0.930 . S
C1225 C1224 1.377 . S
C1225 C1226 1.379 . S
C1226 H1210 0.931 . S
C1226 C1220 1.383 . S
C1226 C1225 1.379 . S
H1227 C1221 0.959 . S
H1228 C1221 0.961 . S
H1229 C1221 0.960 . S
H1230 C1222 0.930 . S
H1231 C1223 0.929 . S
H1232 C1240 0.929 . S
H1233 C1242 0.930 . S
H1234 C1244 0.930 . S
H1235 C1247 0.929 . S
H1236 C1250 0.930 . S
H1237 C1252 0.960 . S
H1238 C1252 0.960 . S
H1239 C1252 0.960 . S
C1240 H1232 0.929 . S
C1240 C1241 1.377 . S
C1240 C1242 1.384 . S
C1241 C1240 1.377 . S
C1241 C1247 1.390 . S
C1242 H1233 0.930 . S
C1242 C1240 1.384 . S
C1242 C1243 1.372 . S
C1243 C1242 1.372 . S
C1243 C1244 1.400 . S
C1243 C1248 1.490 . S
C1244 H1234 0.930 . S
C1244 C1243 1.400 . S
C1244 C1247 1.386 . S
H1245 C1261 0.930 . S
H1246 C1262 0.931 . S
C1247 H1235 0.929 . S
C1247 C1241 1.390 . S
C1247 C1244 1.386 . S
C1248 C1243 1.490 . S
C1248 C1250 1.395 . S
C1248 C1251 1.403 . S
H1249 C1255 0.930 . S
C1250 H1236 0.930 . S
C1250 C1248 1.395 . S
C1250 C1253 1.403 . S
C1251 C1248 1.403 . S
C1251 C1252 1.524 . S
C1251 C1255 1.400 . S
C1252 H1237 0.960 . S
C1252 H1238 0.960 . S
C1252 H1239 0.960 . S
C1252 C1251 1.524 . S
C1253 C1250 1.403 . S
C1253 C1254 1.392 . S
C1253 C1257 1.495 . S
C1254 C1253 1.392 . S
C1254 C1255 1.385 . S
C1254 C1256 1.478 . S
C1255 H1249 0.930 . S
C1255 C1251 1.400 . S
C1255 C1254 1.385 . S
C1256 C1254 1.478 . S
C1256 C1258 1.381 . S
C1256 C1262 1.383 . S
C1257 C1253 1.495 . S
C1257 H1263 0.959 . S
C1257 H1264 0.961 . S
C1257 H1265 0.960 . S
C1258 C1256 1.381 . S
C1258 C1259 1.394 . S
C1258 H1266 0.930 . S
C1259 C1258 1.394 . S
C1259 C1260 1.383 . S
C1259 H1267 0.929 . S
C1260 C1259 1.383 . S
C1260 C1261 1.377 . S
C1261 H1245 0.930 . S
C1261 C1260 1.377 . S
C1261 C1262 1.379 . S
C1262 H1246 0.931 . S
C1262 C1256 1.383 . S
C1262 C1261 1.379 . S
H1263 C1257 0.959 . S
H1264 C1257 0.961 . S
H1265 C1257 0.960 . S
H1266 C1258 0.930 . S
H1267 C1259 0.929 . S
H1268 C1276 0.929 . S
H1269 C1278 0.930 . S
H1270 C1280 0.930 . S
H1271 C1283 0.929 . S
H1272 C1286 0.930 . S
H1273 C1288 0.960 . S
H1274 C1288 0.960 . S
H1275 C1288 0.960 . S
C1276 H1268 0.929 . S
C1276 C1277 1.377 . S
C1276 C1278 1.384 . S
C1277 C1276 1.377 . S
C1277 C1283 1.390 . S
C1278 H1269 0.930 . S
C1278 C1276 1.384 . S
C1278 C1279 1.372 . S
C1279 C1278 1.372 . S
C1279 C1280 1.400 . S
C1279 C1284 1.490 . S
C1280 H1270 0.930 . S
C1280 C1279 1.400 . S
C1280 C1283 1.386 . S
H1281 C1297 0.930 . S
H1282 C1298 0.931 . S
C1283 H1271 0.929 . S
C1283 C1277 1.390 . S
C1283 C1280 1.386 . S
C1284 C1279 1.490 . S
C1284 C1286 1.395 . S
C1284 C1287 1.403 . S
H1285 C1291 0.930 . S
C1286 H1272 0.930 . S
C1286 C1284 1.395 . S
C1286 C1289 1.403 . S
C1287 C1284 1.403 . S
C1287 C1288 1.524 . S
C1287 C1291 1.400 . S
C1288 H1273 0.960 . S
C1288 H1274 0.960 . S
C1288 H1275 0.960 . S
C1288 C1287 1.524 . S
C1289 C1286 1.403 . S
C1289 C1290 1.392 . S
C1289 C1293 1.495 . S
C1290 C1289 1.392 . S
C1290 C1291 1.385 . S
C1290 C1292 1.478 . S
C1291 H1285 0.930 . S
C1291 C1287 1.400 . S
C1291 C1290 1.385 . S
C1292 C1290 1.478 . S
C1292 C1294 1.381 . S
C1292 C1298 1.383 . S
C1293 C1289 1.495 . S
C1293 H1299 0.959 . S
C1293 H1300 0.961 . S
C1293 H1301 0.960 . S
C1294 C1292 1.381 . S
C1294 C1295 1.394 . S
C1294 H1302 0.930 . S
C1295 C1294 1.394 . S
C1295 C1296 1.383 . S
C1295 H1303 0.929 . S
C1296 C1295 1.383 . S
C1296 C1297 1.377 . S
C1297 H1281 0.930 . S
C1297 C1296 1.377 . S
C1297 C1298 1.379 . S
C1298 H1282 0.931 . S
C1298 C1292 1.383 . S
C1298 C1297 1.379 . S
H1299 C1293 0.959 . S
H1300 C1293 0.961 . S
H1301 C1293 0.960 . S
H1302 C1294 0.930 . S
H1303 C1295 0.929 . S
H1304 C1312 0.929 . S
H1305 C1314 0.930 . S
H1306 C1316 0.930 . S
H1307 C1319 0.929 . S
H1308 C1322 0.930 . S
H1309 C1324 0.960 . S
H1310 C1324 0.960 . S
H1311 C1324 0.960 . S
C1312 H1304 0.929 . S
C1312 C1313 1.377 . S
C1312 C1314 1.384 . S
C1313 C1312 1.377 . S
C1313 C1319 1.390 . S
C1314 H1305 0.930 . S
C1314 C1312 1.384 . S
C1314 C1315 1.372 . S
C1315 C1314 1.372 . S
C1315 C1316 1.400 . S
C1315 C1320 1.490 . S
C1316 H1306 0.930 . S
C1316 C1315 1.400 . S
C1316 C1319 1.386 . S
H1317 C1333 0.930 . S
H1318 C1334 0.931 . S
C1319 H1307 0.929 . S
C1319 C1313 1.390 . S
C1319 C1316 1.386 . S
C1320 C1315 1.490 . S
C1320 C1322 1.395 . S
C1320 C1323 1.403 . S
H1321 C1327 0.930 . S
C1322 H1308 0.930 . S
C1322 C1320 1.395 . S
C1322 C1325 1.403 . S
C1323 C1320 1.403 . S
C1323 C1324 1.524 . S
C1323 C1327 1.400 . S
C1324 H1309 0.960 . S
C1324 H1310 0.960 . S
C1324 H1311 0.960 . S
C1324 C1323 1.524 . S
C1325 C1322 1.403 . S
C1325 C1326 1.392 . S
C1325 C1329 1.495 . S
C1326 C1325 1.392 . S
C1326 C1327 1.385 . S
C1326 C1328 1.478 . S
C1327 H1321 0.930 . S
C1327 C1323 1.400 . S
C1327 C1326 1.385 . S
C1328 C1326 1.478 . S
C1328 C1330 1.381 . S
C1328 C1334 1.383 . S
C1329 C1325 1.495 . S
C1329 H1335 0.959 . S
C1329 H1336 0.961 . S
C1329 H1337 0.960 . S
C1330 C1328 1.381 . S
C1330 C1331 1.394 . S
C1330 H1338 0.930 . S
C1331 C1330 1.394 . S
C1331 C1332 1.383 . S
C1331 H1339 0.929 . S
C1332 C1331 1.383 . S
C1332 C1333 1.377 . S
C1333 H1317 0.930 . S
C1333 C1332 1.377 . S
C1333 C1334 1.379 . S
C1334 H1318 0.931 . S
C1334 C1328 1.383 . S
C1334 C1333 1.379 . S
H1335 C1329 0.959 . S
H1336 C1329 0.961 . S
H1337 C1329 0.960 . S
H1338 C1330 0.930 . S
H1339 C1331 0.929 . S
H1340 C1348 0.929 . S
H1341 C1350 0.930 . S
H1342 C1352 0.930 . S
H1343 C1355 0.929 . S
H1344 C1358 0.930 . S
H1345 C1360 0.960 . S
H1346 C1360 0.960 . S
H1347 C1360 0.960 . S
C1348 H1340 0.929 . S
C1348 C1349 1.377 . S
C1348 C1350 1.384 . S
C1349 C1348 1.377 . S
C1349 C1355 1.390 . S
C1350 H1341 0.930 . S
C1350 C1348 1.384 . S
C1350 C1351 1.372 . S
C1351 C1350 1.372 . S
C1351 C1352 1.400 . S
C1351 C1356 1.490 . S
C1352 H1342 0.930 . S
C1352 C1351 1.400 . S
C1352 C1355 1.386 . S
H1353 C1369 0.930 . S
H1354 C1370 0.931 . S
C1355 H1343 0.929 . S
C1355 C1349 1.390 . S
C1355 C1352 1.386 . S
C1356 C1351 1.490 . S
C1356 C1358 1.395 . S
C1356 C1359 1.403 . S
H1357 C1363 0.930 . S
C1358 H1344 0.930 . S
C1358 C1356 1.395 . S
C1358 C1361 1.403 . S
C1359 C1356 1.403 . S
C1359 C1360 1.524 . S
C1359 C1363 1.400 . S
C1360 H1345 0.960 . S
C1360 H1346 0.960 . S
C1360 H1347 0.960 . S
C1360 C1359 1.524 . S
C1361 C1358 1.403 . S
C1361 C1362 1.392 . S
C1361 C1365 1.495 . S
C1362 C1361 1.392 . S
C1362 C1363 1.385 . S
C1362 C1364 1.478 . S
C1363 H1357 0.930 . S
C1363 C1359 1.400 . S
C1363 C1362 1.385 . S
C1364 C1362 1.478 . S
C1364 C1366 1.381 . S
C1364 C1370 1.383 . S
C1365 C1361 1.495 . S
C1365 H1371 0.959 . S
C1365 H1372 0.961 . S
C1365 H1373 0.960 . S
C1366 C1364 1.381 . S
C1366 C1367 1.394 . S
C1366 H1374 0.930 . S
C1367 C1366 1.394 . S
C1367 C1368 1.383 . S
C1367 H1375 0.929 . S
C1368 C1367 1.383 . S
C1368 C1369 1.377 . S
C1369 H1353 0.930 . S
C1369 C1368 1.377 . S
C1369 C1370 1.379 . S
C1370 H1354 0.931 . S
C1370 C1364 1.383 . S
C1370 C1369 1.379 . S
H1371 C1365 0.959 . S
H1372 C1365 0.961 . S
H1373 C1365 0.960 . S
H1374 C1366 0.930 . S
H1375 C1367 0.929 . S
C233 C6 1.598 . S
C252 C176 1.666 . S
C269 C190 1.666 . S
C288 C20 1.579 . S
C305 C34 1.600 . S
C324 C204 1.671 . S
C341 C218 1.670 . S
C360 C48 1.614 . S
C377 C118 1.604 . S
C396 C64 1.675 . S
C413 C78 1.670 . S
C432 C132 1.612 . S
C449 C146 1.607 . S
C468 C92 1.674 . S
C485 C106 1.670 . S
C504 C160 1.622 . S
C521 C7 1.664 . S
C540 C35 1.654 . S
C557 C21 1.672 . S
C576 C49 1.696 . S
C593 C63 1.392 . S
C612 C91 1.363 . S
C629 C77 1.389 . S
C648 C105 1.389 . S
C665 C147 1.675 . S
C684 C119 1.691 . S
C701 C133 1.676 . S
C720 C161 1.689 . S
C737 C203 1.400 . S
C756 C175 1.411 . S
C773 C189 1.392 . S
C792 C217 1.409 . S
C809 C93 1.528 . S
C828 C9 1.543 . S
C845 C107 1.526 . S
C864 C23 1.529 . S
C881 C37 1.545 . S
C900 C65 1.501 . S
C917 C51 1.543 . S
C936 C79 1.539 . S
C953 C205 1.525 . S
C972 C121 1.552 . S
C989 C135 1.543 . S
C1008 C219 1.511 . S
C1025 C177 1.523 . S
C1044 C149 1.532 . S
C1061 C163 1.543 . S
C1080 C191 1.516 . S
C1097 C8 1.505 . S
C1116 C50 1.498 . S
C1133 C36 1.505 . S
C1152 C22 1.498 . S
C1169 C62 1.593 . S
C1188 C104 1.596 . S
C1205 C76 1.588 . S
C1224 C90 1.605 . S
C1241 C162 1.503 . S
C1260 C120 1.497 . S
C1277 C134 1.504 . S
C1296 C148 1.507 . S
C1313 C216 1.592 . S
C1332 C174 1.600 . S
C1349 C188 1.591 . S
C1368 C202 1.603 . S
