# Generated by pormake.
# Topology zfu, (5)-cn, num edge types: 1
# Building blocks:
#     Node 0, Type 0, BuildingBlock: XOMCOT_clean_sbu_0, # of connection points: 5
#     Node 1, Type 0, BuildingBlock: XOMCOT_clean_sbu_0, # of connection points: 5
#     Node 2, Type 0, BuildingBlock: XOMCOT_clean_sbu_0, # of connection points: 5
#     Node 3, Type 0, BuildingBlock: XOMCOT_clean_sbu_0, # of connection points: 5
#     Node 4, Type 0, BuildingBlock: XOMCOT_clean_sbu_0, # of connection points: 5
#     Node 5, Type 0, BuildingBlock: XOMCOT_clean_sbu_0, # of connection points: 5
#     Node 6, Type 0, BuildingBlock: XOMCOT_clean_sbu_0, # of connection points: 5
#     Node 7, Type 0, BuildingBlock: XOMCOT_clean_sbu_0, # of connection points: 5
#     Edge 8, Type (0, 0), BuildingBlock: MIFKUJ_clean_linker_0, # of connection points: 2
#     Edge 9, Type (0, 0), BuildingBlock: MIFKUJ_clean_linker_0, # of connection points: 2
#     Edge 10, Type (0, 0), BuildingBlock: MIFKUJ_clean_linker_0, # of connection points: 2
#     Edge 11, Type (0, 0), BuildingBlock: MIFKUJ_clean_linker_0, # of connection points: 2
#     Edge 12, Type (0, 0), BuildingBlock: MIFKUJ_clean_linker_0, # of connection points: 2
#     Edge 13, Type (0, 0), BuildingBlock: MIFKUJ_clean_linker_0, # of connection points: 2
#     Edge 14, Type (0, 0), BuildingBlock: MIFKUJ_clean_linker_0, # of connection points: 2
#     Edge 15, Type (0, 0), BuildingBlock: MIFKUJ_clean_linker_0, # of connection points: 2
#     Edge 16, Type (0, 0), BuildingBlock: MIFKUJ_clean_linker_0, # of connection points: 2
#     Edge 17, Type (0, 0), BuildingBlock: MIFKUJ_clean_linker_0, # of connection points: 2
#     Edge 18, Type (0, 0), BuildingBlock: MIFKUJ_clean_linker_0, # of connection points: 2
#     Edge 19, Type (0, 0), BuildingBlock: MIFKUJ_clean_linker_0, # of connection points: 2
#     Edge 20, Type (0, 0), BuildingBlock: MIFKUJ_clean_linker_0, # of connection points: 2
#     Edge 21, Type (0, 0), BuildingBlock: MIFKUJ_clean_linker_0, # of connection points: 2
#     Edge 22, Type (0, 0), BuildingBlock: MIFKUJ_clean_linker_0, # of connection points: 2
#     Edge 23, Type (0, 0), BuildingBlock: MIFKUJ_clean_linker_0, # of connection points: 2
#     Edge 24, Type (0, 0), BuildingBlock: MIFKUJ_clean_linker_0, # of connection points: 2
#     Edge 25, Type (0, 0), BuildingBlock: MIFKUJ_clean_linker_0, # of connection points: 2
#     Edge 26, Type (0, 0), BuildingBlock: MIFKUJ_clean_linker_0, # of connection points: 2
#     Edge 27, Type (0, 0), BuildingBlock: MIFKUJ_clean_linker_0, # of connection points: 2
# Relax obj value: 0.170
# Max RMSD: 0.196
# Mean RMSD: 0.196
data_MOF--net-zfu--node1-XOMCOT_clean_sbu_0--edge1-MIFKUJ_clean_linker_0
_symmetry_space_group_name_H-M    P1
_symmetry_Int_Tables_number       1
_symmetry_cell_setting            triclinic
loop_
_symmetry_equiv_pos_as_xyz
'x, y, z'
_cell_length_a     51.613536
_cell_length_b     51.565262
_cell_length_c     32.418984
_cell_angle_alpha  90.17086
_cell_angle_beta   89.875752
_cell_angle_gamma 89.956879
loop_
_atom_site_label
_atom_site_type_symbol
_atom_site_fract_x
_atom_site_fract_y
_atom_site_fract_z
_atom_type_partial_charge
Co0 Co 0.4581 0.75958 0.96946 0.0
C1 C 0.49448 0.71552 0.98664 0.0
C2 C 0.48221 0.71781 0.92347 0.0
C3 C 0.50082 0.69898 0.92633 0.0
N4 N 0.47811 0.72823 0.9611 0.0
N5 N 0.50865 0.6976 0.96583 0.0
H6 H 0.49714 0.72032 0.01888 0.0
H7 H 0.47348 0.72452 0.89518 0.0
C8 C 0.41022 0.75061 0.9188 0.0
O9 O 0.39678 0.762 0.94817 0.0
N10 N 0.4384 0.79177 0.97422 0.0
C11 C 0.42681 0.8036 0.00659 0.0
C12 C 0.41342 0.82497 0.99249 0.0
C13 C 0.43249 0.80671 0.94131 0.0
N14 N 0.41689 0.8268 0.95137 0.0
C15 C 0.43933 0.74927 0.05046 0.0
C16 C 0.40734 0.70795 0.03258 0.0
C17 C 0.40853 0.71712 0.07344 0.0
C18 C 0.42537 0.73765 0.08205 0.0
C19 C 0.42193 0.72024 1.00153 0.0
N20 N 0.43659 0.74167 0.01032 0.0
H21 H 0.45244 0.76464 0.05881 0.0
H22 H 0.4216 0.71224 0.97074 0.0
H23 H 0.42733 0.79743 0.03823 0.0
H24 H 0.43836 0.80202 0.91009 0.0
O25 O 0.48362 0.77217 0.00731 0.0
O26 O 0.48528 0.77918 0.94018 0.0
O27 O 0.43486 0.74844 0.92208 0.0
C28 C 0.49583 0.78219 0.9765 0.0
H29 H 0.50871 0.68771 0.901 0.0
H30 H 0.40176 0.83798 0.0111 0.0
H31 H 0.39524 0.69155 0.0246 0.0
H32 H 0.42816 0.74458 0.1133 0.0
Co33 Co 0.75632 0.95174 0.23266 0.0
C34 C 0.8013 0.98656 0.25255 0.0
C35 C 0.79662 0.97865 0.18786 0.0
C36 C 0.81776 0.99436 0.1927 0.0
N37 N 0.78645 0.97344 0.2252 0.0
N38 N 0.82077 0.99934 0.23321 0.0
H39 H 0.79804 0.98667 0.28554 0.0
H40 H 0.78894 0.97181 0.1588 0.0
C41 C 0.76855 0.90579 0.18024 0.0
O42 O 0.75997 0.89158 0.21094 0.0
N43 N 0.72533 0.93014 0.23607 0.0
C44 C 0.7146 0.91613 0.26683 0.0
C45 C 0.69363 0.90266 0.2514 0.0
C46 C 0.71028 0.92526 0.20279 0.0
N47 N 0.69101 0.90835 0.21105 0.0
C48 C 0.76826 0.93061 0.31142 0.0
C49 C 0.81372 0.9054 0.29131 0.0
C50 C 0.80485 0.90451 0.33237 0.0
C51 C 0.782 0.91782 0.34204 0.0
C52 C 0.79925 0.91874 0.2613 0.0
N53 N 0.77603 0.93008 0.27114 0.0
H54 H 0.75144 0.94151 0.32083 0.0
H55 H 0.80708 0.92038 0.2305 0.0
H56 H 0.72122 0.915 0.29817 0.0
H57 H 0.71417 0.93315 0.1725 0.0
O58 O 0.74296 0.97502 0.27339 0.0
O59 O 0.73475 0.97907 0.20714 0.0
O60 O 0.76783 0.93056 0.18294 0.0
C61 C 0.7314 0.98781 0.24472 0.0
H62 H 0.82962 1.00219 0.16813 0.0
H63 H 0.68134 0.88956 0.26862 0.0
H64 H 0.83169 0.89607 0.28245 0.0
H65 H 0.775 0.91912 0.37349 0.0
Co66 Co 0.55516 0.25403 0.48666 0.0
C67 C 0.51698 0.29571 0.50964 0.0
C68 C 0.5344 0.30179 0.45025 0.0
C69 C 0.51711 0.32145 0.45747 0.0
N70 N 0.53476 0.28575 0.4831 0.0
N71 N 0.50609 0.31761 0.49458 0.0
H72 H 0.512 0.28717 0.53905 0.0
H73 H 0.54547 0.29935 0.42223 0.0
C74 C 0.60116 0.26796 0.43573 0.0
O75 O 0.61514 0.25892 0.46634 0.0
N76 N 0.57482 0.22142 0.48704 0.0
C77 C 0.5751 0.20262 0.516 0.0
C78 C 0.58736 0.18097 0.50034 0.0
C79 C 0.5856 0.20998 0.45334 0.0
N80 N 0.59402 0.1856 0.46082 0.0
C81 C 0.58342 0.25975 0.56219 0.0
C82 C 0.60051 0.30986 0.54982 0.0
C83 C 0.60571 0.29776 0.58764 0.0
C84 C 0.59715 0.2723 0.59331 0.0
C85 C 0.587 0.29632 0.51896 0.0
N86 N 0.5788 0.27136 0.52515 0.0
H87 H 0.57525 0.2412 0.56921 0.0
H88 H 0.58261 0.30619 0.49048 0.0
H89 H 0.56525 0.20339 0.54538 0.0
H90 H 0.58626 0.21886 0.42325 0.0
O91 O 0.53207 0.24101 0.5278 0.0
O92 O 0.52642 0.23479 0.46093 0.0
O93 O 0.57639 0.26609 0.43722 0.0
C94 C 0.51812 0.23114 0.49867 0.0
H95 H 0.51232 0.33699 0.43642 0.0
H96 H 0.58964 0.16265 0.51611 0.0
H97 H 0.60654 0.32966 0.54433 0.0
H98 H 0.59986 0.26253 0.62254 0.0
Co99 Co 0.25287 0.05958 0.74427 0.0
C100 C 0.21277 0.01675 0.74622 0.0
C101 C 0.19679 0.05493 0.73921 0.0
C102 C 0.17679 0.03748 0.7401 0.0
N103 N 0.21942 0.04213 0.74318 0.0
N104 N 0.18673 0.01348 0.74463 0.0
H105 H 0.22641 1.00106 0.75021 0.0
H106 H 0.1949 0.07573 0.73621 0.0
C107 C 0.24542 0.10412 0.6819 0.0
O108 O 0.26599 0.1167 0.69466 0.0
N109 N 0.2862 0.07705 0.74428 0.0
C110 C 0.29839 0.08815 0.77642 0.0
C111 C 0.32127 0.09885 0.76254 0.0
C112 C 0.30238 0.08006 0.71175 0.0
N113 N 0.32364 0.09415 0.72162 0.0
C114 C 0.2307 0.06961 0.8223 0.0
C115 C 0.23016 0.12312 0.82124 0.0
C116 C 0.22184 0.11022 0.85701 0.0
C117 C 0.22192 0.0831 0.85685 0.0
C118 C 0.23899 0.10875 0.78705 0.0
N119 N 0.23935 0.08224 0.78794 0.0
H120 H 0.23055 0.04868 0.82325 0.0
H121 H 0.24607 0.11915 0.76083 0.0
H122 H 0.29107 0.08874 0.80769 0.0
H123 H 0.29773 0.07346 0.68094 0.0
O124 O 0.26705 0.03382 0.78034 0.0
O125 O 0.26869 0.0313 0.71222 0.0
O126 O 0.23894 0.08242 0.6981 0.0
C127 C 0.27443 0.02109 0.74793 0.0
H128 H 0.15643 0.04215 0.73718 0.0
H129 H 0.33491 0.10951 0.78131 0.0
H130 H 0.23052 0.14411 0.8201 0.0
H131 H 0.21514 0.07223 0.8833 0.0
Co132 Co 0.95406 0.75197 0.81248 0.0
C133 C 0.99292 0.79267 0.7891 0.0
C134 C 0.98122 0.7944 0.85274 0.0
C135 C 0.99865 0.81393 0.84568 0.0
N136 N 0.9773 0.78127 0.81732 0.0
N137 N 0.00603 0.81287 0.80583 0.0
H138 H 0.99441 0.78661 0.75719 0.0
H139 H 0.9722 0.78997 0.882 0.0
C140 C 0.907 0.77143 0.85644 0.0
O141 O 0.89359 0.7634 0.82445 0.0
N142 N 0.93101 0.72182 0.81099 0.0
C143 C 0.9283 0.70342 0.78158 0.0
C144 C 0.91374 0.68327 0.7971 0.0
C145 C 0.91898 0.71172 0.84454 0.0
N146 N 0.90784 0.68847 0.83682 0.0
C147 C 0.93472 0.75918 0.73064 0.0
C148 C 0.91677 0.80931 0.74018 0.0
C149 C 0.91606 0.79782 0.70093 0.0
C150 C 0.92508 0.77241 0.69657 0.0
C151 C 0.92702 0.79541 0.77362 0.0
N152 N 0.93517 0.77026 0.76894 0.0
H153 H 0.94329 0.74053 0.72527 0.0
H154 H 0.92916 0.8052 0.80293 0.0
H155 H 0.9379 0.70314 0.75205 0.0
H156 H 0.9193 0.72078 0.87463 0.0
O157 O 0.97822 0.73462 0.77687 0.0
O158 O 0.97845 0.73123 0.84498 0.0
O159 O 0.93155 0.76784 0.85759 0.0
C160 C 0.9886 0.7247 0.80946 0.0
H161 H 0.00574 0.82768 0.86829 0.0
H162 H 0.90933 0.6654 0.78101 0.0
H163 H 0.91055 0.8292 0.74459 0.0
H164 H 0.92527 0.76295 0.66667 0.0
Co165 Co 0.75461 0.45022 0.06511 0.0
C166 C 0.71017 0.48606 0.04525 0.0
C167 C 0.71221 0.47494 0.10896 0.0
C168 C 0.69197 0.49178 0.10443 0.0
N169 N 0.72349 0.47093 0.07197 0.0
N170 N 0.69055 0.49883 0.06451 0.0
H171 H 0.71486 0.48789 0.01283 0.0
H172 H 0.71879 0.46694 0.13788 0.0
C173 C 0.74118 0.40391 0.11509 0.0
O174 O 0.74988 0.39024 0.08369 0.0
N175 N 0.78701 0.43035 0.06225 0.0
C176 C 0.80564 0.43085 0.03285 0.0
C177 C 0.82787 0.41952 0.0479 0.0
C178 C 0.79906 0.41991 0.09547 0.0
N179 N 0.82375 0.41267 0.08746 0.0
C180 C 0.74758 0.42125 0.99025 0.0
C181 C 0.69671 0.40687 1.00348 0.0
C182 C 0.70856 0.4006 0.96577 0.0
C183 C 0.73439 0.40765 0.95967 0.0
C184 C 0.71097 0.41995 0.034 0.0
N185 N 0.73623 0.42698 0.02723 0.0
H186 H 0.76649 0.42835 0.98285 0.0
H187 H 0.70145 0.4251 0.06261 0.0
H188 H 0.80434 0.44082 1.00368 0.0
H189 H 0.79073 0.41969 0.12606 0.0
O190 O 0.76685 0.47341 0.02372 0.0
O191 O 0.77458 0.47871 0.09022 0.0
O192 O 0.74319 0.42869 0.11451 0.0
C193 C 0.77765 0.48707 0.05239 0.0
H194 H 0.67984 0.49916 0.12911 0.0
H195 H 0.84603 0.4177 0.03142 0.0
H196 H 0.6766 0.402 0.00907 0.0
H197 H 0.74396 0.40389 0.93046 0.0
Co198 Co 0.05409 0.26019 0.32625 0.0
C199 C 0.01376 0.21732 0.31097 0.0
C200 C 0.01406 0.23419 0.37147 0.0
C201 C 0.99479 0.21605 0.37016 0.0
N202 N 0.02612 0.23525 0.33457 0.0
N203 N 0.99445 0.20545 0.3322 0.0
H204 H 0.0183 0.21291 0.27929 0.0
H205 H 0.01919 0.24585 0.398 0.0
C206 C 0.07528 0.22029 0.38248 0.0
O207 O 0.06508 0.20329 0.35701 0.0
N208 N 0.0812 0.28584 0.32193 0.0
C209 C 0.09094 0.2972 0.28794 0.0
C210 C 0.10783 0.31655 0.30018 0.0
C211 C 0.09215 0.29829 0.35414 0.0
N212 N 0.10854 0.31717 0.34185 0.0
C213 C 0.06174 0.23381 0.24979 0.0
C214 C 0.11321 0.22095 0.26088 0.0
C215 C 0.10186 0.21664 0.22209 0.0
C216 C 0.07559 0.22271 0.2173 0.0
C217 C 0.09849 0.232 0.29293 0.0
N218 N 0.07293 0.23809 0.28731 0.0
H219 H 0.04225 0.24028 0.24378 0.0
H220 H 0.10815 0.23706 0.32136 0.0
H221 H 0.0856 0.29229 0.25664 0.0
H222 H 0.08718 0.29442 0.38598 0.0
O223 O 0.03394 0.27856 0.28607 0.0
O224 O 0.03186 0.2862 0.35315 0.0
O225 O 0.07284 0.24459 0.37527 0.0
C226 C 0.02374 0.29164 0.31604 0.0
H227 H 0.98229 0.21072 0.3956 0.0
H228 H 0.11844 0.3294 0.27993 0.0
H229 H 0.1336 0.21714 0.26583 0.0
H230 H 0.06585 0.21968 0.18812 0.0
Co231 Co 0.25738 0.56362 0.55301 0.0
C232 C 0.29676 0.52124 0.53883 0.0
C233 C 0.31313 0.5553 0.56641 0.0
C234 C 0.33229 0.53711 0.56237 0.0
N235 N 0.29074 0.5457 0.55131 0.0
N236 N 0.3221 0.51567 0.54514 0.0
H237 H 0.28307 0.50766 0.52578 0.0
H238 H 0.31558 0.57397 0.58085 0.0
C239 C 0.26694 0.60951 0.60842 0.0
O240 O 0.25305 0.62347 0.58281 0.0
N241 N 0.22383 0.58106 0.5567 0.0
C242 C 0.20657 0.58613 0.52652 0.0
C243 C 0.18422 0.59593 0.54396 0.0
C244 C 0.21125 0.58721 0.59216 0.0
N245 N 0.18731 0.59678 0.58518 0.0
C246 C 0.26119 0.5847 0.47185 0.0
C247 C 0.30239 0.61783 0.48401 0.0
C248 C 0.29368 0.61331 0.44371 0.0
C249 C 0.27237 0.59707 0.43815 0.0
C250 C 0.29064 0.60485 0.51724 0.0
N251 N 0.27031 0.58815 0.51111 0.0
H252 H 0.24594 0.57118 0.46524 0.0
H253 H 0.29897 0.60762 0.54725 0.0
H254 H 0.20926 0.58227 0.49415 0.0
H255 H 0.21926 0.58425 0.62261 0.0
O256 O 0.24286 0.53916 0.51508 0.0
O257 O 0.2418 0.534 0.58255 0.0
O258 O 0.27058 0.58531 0.60123 0.0
C259 C 0.23513 0.52553 0.54604 0.0
H260 H 0.35208 0.53915 0.57294 0.0
H261 H 0.16699 0.60198 0.52759 0.0
H262 H 0.31897 0.63019 0.48962 0.0
H263 H 0.26481 0.59321 0.40759 0.0
H264 H 0.69853 0.53409 1.00322 0.0
H265 H 0.66889 0.5693 0.98336 0.0
H266 H 0.61272 0.54168 0.07171 0.0
H267 H 0.64147 0.50619 0.08985 0.0
H268 H 0.58831 0.55592 0.00785 0.0
H269 H 0.65574 0.59484 0.0905 0.0
H270 H 0.70031 0.60741 0.1092 0.0
H271 H 0.70843 0.64803 0.99448 0.0
H272 H 0.66396 0.6355 0.97493 0.0
H273 H 0.50935 0.66751 0.03409 0.0
H274 H 0.54235 0.63465 0.05101 0.0
H275 H 0.5878 0.65872 0.9461 0.0
H276 H 0.55495 0.69123 0.92927 0.0
H277 H 0.61832 0.64719 0.01482 0.0
H278 H 0.54931 0.60904 0.93488 0.0
H279 H 0.50373 0.59829 0.91997 0.0
H280 H 0.4983 0.55653 0.03407 0.0
H281 H 0.54377 0.56737 0.04994 0.0
C282 C 0.67962 0.5353 0.01762 0.0
C283 C 0.67243 0.51754 0.04841 0.0
C284 C 0.66283 0.55562 0.00673 0.0
C285 C 0.63871 0.55855 0.02667 0.0
C286 C 0.6312 0.54006 0.05597 0.0
C287 C 0.64776 0.51982 0.06656 0.0
C288 C 0.62118 0.58091 0.01812 0.0
C289 C 0.59493 0.57585 0.00983 0.0
C290 C 0.62969 0.60703 0.01987 0.0
C291 C 0.65662 0.61405 0.03112 0.0
C292 C 0.66711 0.60629 0.06913 0.0
C293 C 0.69231 0.61349 0.07994 0.0
C294 C 0.70714 0.62862 0.05313 0.0
C295 C 0.69686 0.63643 0.01531 0.0
C296 C 0.67167 0.62928 1.00434 0.0
C297 C 0.52671 0.66608 0.0154 0.0
C298 C 0.52961 0.68165 0.98028 0.0
C299 C 0.54543 0.64728 0.02481 0.0
C300 C 0.56739 0.64404 0.99945 0.0
C301 C 0.57103 0.6608 0.966 0.0
C302 C 0.55224 0.67928 0.95634 0.0
C303 C 0.58557 0.62203 1.00558 0.0
C304 C 0.61185 0.6272 0.01299 0.0
C305 C 0.57709 0.59599 1.00348 0.0
C306 C 0.54985 0.58924 0.99378 0.0
C307 C 0.53833 0.59773 0.95693 0.0
C308 C 0.51253 0.59159 0.94828 0.0
C309 C 0.4981 0.57679 0.9761 0.0
C310 C 0.50948 0.56803 0.01258 0.0
C311 C 0.53527 0.57415 0.0214 0.0
H312 H 0.47813 0.57206 0.96936 0.0
H313 H 0.72666 0.63415 0.06154 0.0
H314 H 1.00399 0.16695 0.2766 0.0
H315 H 0.97545 0.13019 0.26038 0.0
H316 H 0.91714 0.16141 0.34216 0.0
H317 H 0.94529 0.19798 0.35803 0.0
H318 H 0.92488 0.11067 0.35697 0.0
H319 H 0.91004 0.16478 0.2386 0.0
H320 H 0.92258 0.19032 0.17756 0.0
H321 H 0.95602 0.12241 0.12186 0.0
H322 H 0.94398 0.09653 0.18286 0.0
H323 H 0.81495 0.03445 0.29502 0.0
H324 H 0.8462 0.0683 0.31438 0.0
H325 H 0.90155 0.03638 0.22809 0.0
H326 H 0.87036 1.00297 0.20858 0.0
H327 H 0.89657 0.08656 0.21595 0.0
H328 H 0.91003 0.03193 0.33331 0.0
H329 H 0.89707 0.00632 0.39406 0.0
H330 H 0.86624 0.07483 0.45166 0.0
H331 H 0.87869 0.1008 0.39097 0.0
C332 C 0.98493 0.16613 0.29051 0.0
C333 C 0.97702 0.18524 0.31889 0.0
C334 C 0.96867 0.14509 0.28141 0.0
C335 C 0.94418 0.14296 0.30029 0.0
C336 C 0.93604 0.16243 0.32763 0.0
C337 C 0.95219 0.18334 0.33668 0.0
C338 C 0.92705 0.12032 0.29241 0.0
C339 C 0.91848 0.10553 0.32616 0.0
C340 C 0.91913 0.11326 0.25219 0.0
C341 C 0.92637 0.12879 0.21549 0.0
C342 C 0.92027 0.15534 0.21349 0.0
C343 C 0.92724 0.16987 0.17887 0.0
C344 C 0.94016 0.15801 0.14591 0.0
C345 C 0.94606 0.13158 0.14745 0.0
C346 C 0.93915 0.11697 0.18203 0.0
C347 C 0.83403 0.03437 0.28106 0.0
C348 C 0.84023 0.01625 0.25016 0.0
C349 C 0.85185 0.05373 0.29197 0.0
C350 C 0.87625 0.05498 0.27253 0.0
C351 C 0.88282 0.03602 0.24322 0.0
C352 C 0.86502 0.0169 0.23218 0.0
C353 C 0.89436 0.07685 0.28051 0.0
C354 C 0.90308 0.09156 0.24677 0.0
C355 C 0.90242 0.08379 0.32074 0.0
C356 C 0.89507 0.06826 0.35741 0.0
C357 C 0.90031 0.0415 0.35879 0.0
C358 C 0.89308 0.02693 0.39324 0.0
C359 C 0.88078 0.03893 0.42665 0.0
C360 C 0.87574 0.06555 0.42574 0.0
C361 C 0.8829 0.08021 0.39133 0.0
H362 H 0.87519 0.0276 0.45329 0.0
H363 H 0.94553 0.16929 0.11912 0.0
H364 H 0.50537 0.36947 0.49701 0.0
H365 H 0.46881 0.39727 0.51548 0.0
H366 H 0.42378 0.32981 0.54766 0.0
H367 H 0.46088 0.30176 0.52913 0.0
H368 H 0.39742 0.36457 0.49479 0.0
H369 H 0.44048 0.36812 0.62321 0.0
H370 H 0.47745 0.37194 0.67084 0.0
H371 H 0.49193 0.44932 0.6281 0.0
H372 H 0.4553 0.44585 0.57972 0.0
H373 H 0.30402 0.46634 0.55435 0.0
H374 H 0.3304 0.42644 0.55364 0.0
H375 H 0.39773 0.47132 0.52059 0.0
H376 H 0.37175 0.51079 0.52146 0.0
H377 H 0.40623 0.44052 0.58788 0.0
H378 H 0.36633 0.43338 0.45247 0.0
H379 H 0.32946 0.42874 0.40482 0.0
H380 H 0.30851 0.35678 0.46216 0.0
H381 H 0.3449 0.36131 0.51089 0.0
C382 C 0.48783 0.36063 0.50878 0.0
C383 C 0.48592 0.33357 0.5119 0.0
C384 C 0.46695 0.37648 0.51933 0.0
C385 C 0.44355 0.36565 0.53308 0.0
C386 C 0.44168 0.33857 0.5372 0.0
C387 C 0.46287 0.32262 0.52708 0.0
C388 C 0.42107 0.38305 0.54097 0.0
C389 C 0.39898 0.38083 0.51593 0.0
C390 C 0.42316 0.40433 0.56838 0.0
C391 C 0.44515 0.40667 0.59767 0.0
C392 C 0.45164 0.3859 0.62376 0.0
C393 C 0.47253 0.38801 0.65093 0.0
C394 C 0.48704 0.41085 0.65248 0.0
C395 C 0.48066 0.43165 0.62689 0.0
C396 C 0.4598 0.42963 0.59963 0.0
C397 C 0.32433 0.4675 0.54612 0.0
C398 C 0.33594 0.49171 0.53841 0.0
C399 C 0.33937 0.44475 0.54585 0.0
C400 C 0.3661 0.44593 0.53743 0.0
C401 C 0.37726 0.46994 0.52773 0.0
C402 C 0.36238 0.4925 0.52817 0.0
C403 C 0.38318 0.42275 0.54028 0.0
C404 C 0.40429 0.42391 0.56751 0.0
C405 C 0.38001 0.40051 0.51506 0.0
C406 C 0.35811 0.3979 0.4858 0.0
C407 C 0.35367 0.41674 0.45531 0.0
C408 C 0.33289 0.41409 0.42802 0.0
C409 C 0.31662 0.39252 0.43053 0.0
C410 C 0.32114 0.37349 0.46025 0.0
C411 C 0.34179 0.37612 0.48779 0.0
H412 H 0.30052 0.39052 0.40942 0.0
H413 H 0.50322 0.41244 0.67353 0.0
H414 H 0.0075 0.86445 0.81508 0.0
H415 H 0.04149 0.89389 0.79177 0.0
H416 H 0.08068 0.83018 0.73172 0.0
H417 H 0.04617 0.80046 0.75521 0.0
H418 H 0.11351 0.86087 0.78265 0.0
H419 H 0.05508 0.87388 0.672 0.0
H420 H 0.01285 0.88121 0.63858 0.0
H421 H 0.00558 0.9545 0.70073 0.0
H422 H 0.04757 0.94746 0.73505 0.0
H423 H 0.20102 0.96505 0.7193 0.0
H424 H 0.17362 0.92599 0.71871 0.0
H425 H 0.1116 0.96953 0.77544 0.0
H426 H 0.13865 0.00812 0.77624 0.0
H427 H 0.0945 0.94305 0.70954 0.0
H428 H 0.14868 0.92566 0.8292 0.0
H429 H 0.19043 0.91821 0.86414 0.0
H430 H 0.20558 0.85309 0.78479 0.0
H431 H 0.16404 0.86038 0.74902 0.0
C432 C 0.02316 0.85682 0.79636 0.0
C433 C 0.02423 0.83027 0.7868 0.0
C434 C 0.04255 0.87362 0.78299 0.0
C435 C 0.06361 0.86428 0.75987 0.0
C436 C 0.06456 0.83779 0.74945 0.0
C437 C 0.04481 0.82092 0.76248 0.0
C438 C 0.08488 0.88243 0.74873 0.0
C439 C 0.1096 0.87856 0.76572 0.0
C440 C 0.07972 0.90561 0.72701 0.0
C441 C 0.05447 0.91007 0.70625 0.0
C442 C 0.04441 0.89149 0.67877 0.0
C443 C 0.02051 0.8956 0.65963 0.0
C444 C 0.00653 0.91829 0.66755 0.0
C445 C 0.01644 0.93694 0.6946 0.0
C446 C 0.04031 0.93292 0.71385 0.0
C447 C 0.18166 0.96611 0.73209 0.0
C448 C 0.1719 0.98979 0.74731 0.0
C449 C 0.16599 0.94383 0.73163 0.0
C450 C 0.14043 0.94486 0.74672 0.0
C451 C 0.13109 0.9683 0.76306 0.0
C452 C 0.1466 0.99041 0.76343 0.0
C453 C 0.12276 0.92206 0.74507 0.0
C454 C 0.09868 0.92509 0.72556 0.0
C455 C 0.12856 0.89818 0.76447 0.0
C456 C 0.15344 0.89378 0.78608 0.0
C457 C 0.16102 0.90989 0.81897 0.0
C458 C 0.18462 0.90567 0.83897 0.0
C459 C 0.2007 0.88525 0.82659 0.0
C460 C 0.19315 0.86895 0.79428 0.0
C461 C 0.16958 0.87311 0.77414 0.0
H462 H 0.21896 0.88201 0.8421 0.0
H463 H 0.98804 0.92144 0.65271 0.0
H464 H 0.30932 0.66345 0.42923 0.0
H465 H 0.32865 0.68071 0.36554 0.0
H466 H 0.32796 0.60405 0.31195 0.0
H467 H 0.30889 0.58681 0.37521 0.0
H468 H 0.37346 0.62998 0.29575 0.0
H469 H 0.28145 0.64597 0.28737 0.0
H470 H 0.23966 0.66337 0.31206 0.0
H471 H 0.2709 0.74053 0.31104 0.0
H472 H 0.31301 0.72352 0.28689 0.0
H473 H 0.39775 0.66548 0.08795 0.0
H474 H 0.37678 0.64688 0.14898 0.0
H475 H 0.36517 0.72376 0.19864 0.0
H476 H 0.3845 0.74237 0.13702 0.0
H477 H 0.32548 0.69681 0.21689 0.0
H478 H 0.41733 0.68225 0.22784 0.0
H479 H 0.46008 0.66601 0.20547 0.0
H480 H 0.43088 0.58805 0.20441 0.0
H481 H 0.38784 0.60389 0.22628 0.0
C482 C 0.31359 0.65031 0.40399 0.0
C483 C 0.30734 0.62386 0.40699 0.0
C484 C 0.32447 0.66017 0.36758 0.0
C485 C 0.32946 0.64369 0.33378 0.0
C486 C 0.3242 0.61714 0.33749 0.0
C487 C 0.31315 0.60735 0.37358 0.0
C488 C 0.33939 0.65405 0.29401 0.0
C489 C 0.36287 0.64442 0.27827 0.0
C490 C 0.3258 0.67319 0.27154 0.0
C491 C 0.30044 0.68345 0.28571 0.0
C492 C 0.27946 0.66662 0.2927 0.0
C493 C 0.25571 0.67642 0.30655 0.0
C494 C 0.25265 0.70303 0.31322 0.0
C495 C 0.27331 0.71991 0.30592 0.0
C496 C 0.29711 0.71021 0.29212 0.0
C497 C 0.39023 0.67842 0.11147 0.0
C498 C 0.39325 0.70542 0.10781 0.0
C499 C 0.37854 0.66775 0.14667 0.0
C500 C 0.36997 0.68386 0.17911 0.0
C501 C 0.37179 0.71083 0.17441 0.0
C502 C 0.38313 0.72146 0.1392 0.0
C503 C 0.35978 0.67293 0.21854 0.0
C504 C 0.33618 0.6824 0.23426 0.0
C505 C 0.37344 0.65385 0.24123 0.0
C506 C 0.39931 0.64429 0.22826 0.0
C507 C 0.41999 0.66167 0.22256 0.0
C508 C 0.44427 0.65253 0.21001 0.0
C509 C 0.44818 0.62602 0.2034 0.0
C510 C 0.42782 0.60858 0.20946 0.0
C511 C 0.40348 0.61763 0.22196 0.0
H512 H 0.46699 0.61899 0.19368 0.0
H513 H 0.23425 0.71057 0.32395 0.0
H514 H 0.78476 0.87728 0.39728 0.0
H515 H 0.80745 0.86106 0.45782 0.0
H516 H 0.88051 0.88354 0.40443 0.0
H517 H 0.85781 0.90127 0.34417 0.0
H518 H 0.86969 0.82628 0.44834 0.0
H519 H 0.87235 0.92038 0.46521 0.0
H520 H 0.85205 0.96369 0.46438 0.0
H521 H 0.7966 0.93902 0.55507 0.0
H522 H 0.81637 0.89542 0.55592 0.0
H523 H 0.94204 0.80399 0.62858 0.0
H524 H 0.9263 0.82358 0.56483 0.0
H525 H 0.85414 0.84283 0.62508 0.0
H526 H 0.87034 0.82393 0.68958 0.0
H527 H 0.86654 0.88039 0.57519 0.0
H528 H 0.86128 0.78831 0.56101 0.0
H529 H 0.87709 0.74318 0.56189 0.0
H530 H 0.93222 0.76107 0.46678 0.0
H531 H 0.91698 0.80644 0.46574 0.0
C532 C 0.80566 0.87897 0.39827 0.0
C533 C 0.81936 0.8911 0.36599 0.0
C534 C 0.81858 0.8695 0.43287 0.0
C535 C 0.84556 0.87139 0.43574 0.0
C536 C 0.85961 0.88202 0.40273 0.0
C537 C 0.84661 0.89197 0.3682 0.0
C538 C 0.8586 0.86307 0.4742 0.0
C539 C 0.8696 0.83827 0.4759 0.0
C540 C 0.85739 0.87835 0.51043 0.0
C541 C 0.84565 0.90458 0.51027 0.0
C542 C 0.85566 0.92412 0.48464 0.0
C543 C 0.8443 0.94874 0.48424 0.0
C544 C 0.823 0.95408 0.50956 0.0
C545 C 0.81308 0.93484 0.53543 0.0
C546 C 0.82437 0.91019 0.53591 0.0
C547 C 0.92289 0.81261 0.62828 0.0
C548 C 0.90728 0.81221 0.66386 0.0
C549 C 0.91385 0.82369 0.59176 0.0
C550 C 0.88874 0.83412 0.58966 0.0
C551 C 0.87352 0.83479 0.62575 0.0
C552 C 0.88276 0.82401 0.6626 0.0
C553 C 0.87815 0.84352 0.54957 0.0
C554 C 0.8672 0.86844 0.54761 0.0
C555 C 0.87903 0.82812 0.5132 0.0
C556 C 0.88818 0.80084 0.51362 0.0
C557 C 0.87691 0.78267 0.5405 0.0
C558 C 0.88574 0.75704 0.541 0.0
C559 C 0.90569 0.74928 0.51449 0.0
C560 C 0.9168 0.76712 0.48735 0.0
C561 C 0.90806 0.79279 0.48677 0.0
H562 H 0.91251 0.72943 0.51492 0.0
H563 H 0.81422 0.97315 0.50921 0.0
H564 H 0.72038 0.35602 0.9249 0.0
H565 H 0.70137 0.34002 0.86062 0.0
H566 H 0.64664 0.40336 0.86223 0.0
H567 H 0.66502 0.41868 0.92773 0.0
H568 H 0.62381 0.36256 0.83198 0.0
H569 H 0.70392 0.40491 0.8036 0.0
H570 H 0.75054 0.41421 0.81089 0.0
H571 H 0.7689 0.33655 0.77257 0.0
H572 H 0.72235 0.32665 0.76566 0.0
H573 H 0.59483 0.34636 0.61765 0.0
H574 H 0.61162 0.36637 0.68101 0.0
H575 H 0.66116 0.30014 0.70027 0.0
H576 H 0.64465 0.28022 0.63702 0.0
H577 H 0.68586 0.3463 0.71761 0.0
H578 H 0.60397 0.30463 0.7499 0.0
H579 H 0.55709 0.29738 0.74085 0.0
H580 H 0.5421 0.37743 0.76902 0.0
H581 H 0.58896 0.38522 0.77774 0.0
C582 C 0.70392 0.36615 0.91193 0.0
C583 C 0.69414 0.38855 0.93117 0.0
C584 C 0.69322 0.35719 0.87497 0.0
C585 C 0.67304 0.37091 0.85576 0.0
C586 C 0.66231 0.39252 0.87617 0.0
C587 C 0.67273 0.40122 0.91366 0.0
C588 C 0.66398 0.36327 0.81372 0.0
C589 C 0.63739 0.35939 0.80688 0.0
C590 C 0.68159 0.35903 0.7807 0.0
C591 C 0.70963 0.36498 0.78444 0.0
C592 C 0.71789 0.38976 0.79697 0.0
C593 C 0.74431 0.39515 0.80102 0.0
C594 C 0.76267 0.37597 0.79228 0.0
C595 C 0.75465 0.35138 0.77937 0.0
C596 C 0.72826 0.34587 0.77535 0.0
C597 C 0.60969 0.33634 0.63497 0.0
C598 C 0.61835 0.31167 0.62247 0.0
C599 C 0.61909 0.34768 0.67135 0.0
C600 C 0.63738 0.33458 0.69572 0.0
C601 C 0.64698 0.31056 0.68211 0.0
C602 C 0.63747 0.29916 0.64603 0.0
C603 C 0.64586 0.34517 0.73627 0.0
C604 C 0.67234 0.34966 0.74274 0.0
C605 C 0.62813 0.35033 0.76868 0.0
C606 C 0.59996 0.34556 0.76406 0.0
C607 C 0.59068 0.32072 0.75391 0.0
C608 C 0.56412 0.31651 0.74888 0.0
C609 C 0.54663 0.33695 0.75425 0.0
C610 C 0.55567 0.36162 0.76482 0.0
C611 C 0.58222 0.36594 0.76984 0.0
H612 H 0.52608 0.33366 0.7503 0.0
H613 H 0.78311 0.38018 0.79544 0.0
H614 H 0.18981 0.15277 0.86256 0.0
H615 H 0.1726 0.17302 0.92549 0.0
H616 H 0.21719 0.11989 0.99948 0.0
H617 H 0.2343 0.09964 0.93697 0.0
H618 H 0.16867 0.12139 0.0258 0.0
H619 H 0.23327 0.18478 0.99129 0.0
H620 H 0.25577 0.21609 0.94642 0.0
H621 H 0.18584 0.26069 0.93553 0.0
H622 H 0.16282 0.22945 0.97991 0.0
H623 H 0.14026 0.17946 0.21988 0.0
H624 H 0.1641 0.16359 0.15938 0.0
H625 H 0.12192 0.21674 0.08198 0.0
H626 H 0.09895 0.23338 0.1422 0.0
H627 H 0.17067 0.21539 0.0584 0.0
H628 H 0.10553 0.15157 0.08911 0.0
H629 H 0.0821 0.12024 0.13274 0.0
H630 H 0.15209 0.07643 0.14919 0.0
H631 H 0.17602 0.10772 0.10607 0.0
C632 C 0.19625 0.14572 0.89225 0.0
C633 C 0.21325 0.12445 0.89473 0.0
C634 C 0.18639 0.15728 0.92824 0.0
C635 C 0.1936 0.14801 0.96737 0.0
C636 C 0.21116 0.12729 0.96976 0.0
C637 C 0.22091 0.1157 0.93394 0.0
C638 C 0.18199 0.15892 1.00585 0.0
C639 C 0.16949 0.14191 0.0332 0.0
C640 C 0.18243 0.18576 0.01516 0.0
C641 C 0.19626 0.20464 0.98862 0.0
C642 C 0.22264 0.20116 0.97908 0.0
C643 C 0.23549 0.21891 0.95377 0.0
C644 C 0.22223 0.24033 0.93805 0.0
C645 C 0.19609 0.24408 0.94769 0.0
C646 C 0.18313 0.22637 0.97295 0.0
C647 C 0.13628 0.18797 0.19005 0.0
C648 C 0.11734 0.20742 0.18593 0.0
C649 C 0.14978 0.17873 0.15539 0.0
C650 C 0.14451 0.18864 0.11587 0.0
C651 C 0.12626 0.20864 0.11198 0.0
C652 C 0.11288 0.21792 0.1465 0.0
C653 C 0.15739 0.17785 0.07832 0.0
C654 C 0.17003 0.19486 0.0511 0.0
C655 C 0.15698 0.15101 0.06895 0.0
C656 C 0.14261 0.13213 0.09475 0.0
C657 C 0.11596 0.13536 0.10229 0.0
C658 C 0.10258 0.11759 0.12688 0.0
C659 C 0.11561 0.0964 0.14382 0.0
C660 C 0.14203 0.09289 0.13611 0.0
C661 C 0.15551 0.11062 0.11158 0.0
H662 H 0.10522 0.08266 0.16285 0.0
H663 H 0.23221 0.25405 0.91846 0.0
H664 H 0.3107 0.59378 0.6494 0.0
H665 H 0.33507 0.61782 0.70145 0.0
H666 H 0.2776 0.67868 0.69912 0.0
H667 H 0.25407 0.65536 0.64527 0.0
H668 H 0.32084 0.70059 0.70128 0.0
H669 H 0.28511 0.63201 0.78174 0.0
H670 H 0.27488 0.58693 0.80097 0.0
H671 H 0.35603 0.56974 0.81104 0.0
H672 H 0.36676 0.61465 0.79134 0.0
H673 H 0.36121 0.76032 0.89095 0.0
H674 H 0.33706 0.73653 0.83803 0.0
H675 H 0.40314 0.68696 0.81715 0.0
H676 H 0.42751 0.71081 0.86978 0.0
H677 H 0.35579 0.65975 0.82781 0.0
H678 H 0.38944 0.73144 0.74824 0.0
H679 H 0.39664 0.77781 0.7338 0.0
H680 H 0.31448 0.79037 0.72817 0.0
H681 H 0.30677 0.74412 0.7432 0.0
C682 C 0.30318 0.6122 0.66015 0.0
C683 C 0.28047 0.62268 0.64305 0.0
C684 C 0.31707 0.62593 0.69022 0.0
C685 C 0.30814 0.65008 0.70492 0.0
C686 C 0.28511 0.66022 0.68839 0.0
C687 C 0.27155 0.64679 0.65767 0.0
C688 C 0.32314 0.66517 0.73639 0.0
C689 C 0.32809 0.69162 0.72919 0.0
C690 C 0.3331 0.65366 0.77279 0.0
C691 C 0.32673 0.62663 0.78465 0.0
C692 C 0.30078 0.61857 0.78776 0.0
C693 C 0.29489 0.59305 0.79879 0.0
C694 C 0.31479 0.57546 0.80711 0.0
C695 C 0.34063 0.58337 0.80452 0.0
C696 C 0.34663 0.60886 0.79346 0.0
C697 C 0.37068 0.74448 0.87488 0.0
C698 C 0.39632 0.7375 0.88453 0.0
C699 C 0.35685 0.73092 0.84459 0.0
C700 C 0.36828 0.70994 0.8236 0.0
C701 C 0.39393 0.70305 0.83298 0.0
C702 C 0.4079 0.71683 0.86286 0.0
C703 C 0.35332 0.69489 0.79246 0.0
C704 C 0.34842 0.66854 0.79981 0.0
C705 C 0.3429 0.70661 0.75675 0.0
C706 C 0.34753 0.73435 0.74714 0.0
C707 C 0.3729 0.74412 0.74417 0.0
C708 C 0.37707 0.77037 0.73582 0.0
C709 C 0.35603 0.78702 0.73003 0.0
C710 C 0.33076 0.77743 0.73253 0.0
C711 C 0.32648 0.7512 0.74098 0.0
H712 H 0.3593 0.80735 0.72371 0.0
H713 H 0.3102 0.55572 0.81565 0.0
H714 H 0.77736 0.92448 0.10212 0.0
H715 H 0.80117 0.90289 0.04574 0.0
H716 H 0.81591 0.83741 0.12456 0.0
H717 H 0.79156 0.85829 0.1803 0.0
H718 H 0.86172 0.86606 0.07223 0.0
H719 H 0.77732 0.82113 0.06933 0.0
H720 H 0.7296 0.82194 0.06529 0.0
H721 H 0.73387 0.86328 0.95069 0.0
H722 H 0.78165 0.86306 0.95446 0.0
H723 H 0.91759 0.77189 0.93922 0.0
H724 H 0.89422 0.79545 0.9935 0.0
H725 H 0.84416 0.82929 0.90157 0.0
H726 H 0.86626 0.80426 0.84801 0.0
H727 H 0.81582 0.81937 0.96016 0.0
H728 H 0.89719 0.86287 0.95524 0.0
H729 H 0.94474 0.86748 0.95598 0.0
H730 H 0.94728 0.83677 0.07887 0.0
H731 H 0.89976 0.83163 0.07866 0.0
C732 C 0.78556 0.90542 0.10728 0.0
C733 C 0.78238 0.893 0.14553 0.0
C734 C 0.79918 0.89317 0.07515 0.0
C735 C 0.8103 0.8686 0.08112 0.0
C736 C 0.80747 0.85637 0.1194 0.0
C737 C 0.79339 0.86828 0.1511 0.0
C738 C 0.82466 0.85535 0.0474 0.0
C739 C 0.85182 0.85564 0.0478 0.0
C740 C 0.81165 0.84259 0.01494 0.0
C741 C 0.783 0.84236 0.01244 0.0
C742 C 0.76806 0.83062 0.0435 0.0
C743 C 0.74102 0.83091 0.04121 0.0
C744 C 0.7287 0.84273 0.00782 0.0
C745 C 0.74342 0.85418 0.97657 0.0
C746 C 0.77048 0.85396 0.97876 0.0
C747 C 0.90159 0.78439 0.93077 0.0
C748 C 0.8937 0.78623 0.88948 0.0
C749 C 0.88832 0.79807 0.96177 0.0
C750 C 0.86757 0.81472 0.95189 0.0
C751 C 0.85994 0.81662 0.91039 0.0
C752 C 0.87265 0.80233 0.87967 0.0
C753 C 0.85337 0.82968 0.98461 0.0
C754 C 0.82607 0.8298 0.98419 0.0
C755 C 0.86635 0.84347 0.01643 0.0
C756 C 0.89493 0.84664 0.01677 0.0
C757 C 0.9079 0.85694 0.98232 0.0
C758 C 0.93485 0.85967 0.98266 0.0
C759 C 0.94902 0.85236 0.01741 0.0
C760 C 0.93627 0.84239 0.05195 0.0
C761 C 0.90933 0.83958 0.05176 0.0
H762 H 0.96988 0.85449 0.01761 0.0
H763 H 0.70776 0.84295 0.00611 0.0
H764 H 0.7265 0.35322 0.11735 0.0
H765 H 0.70142 0.33101 0.17001 0.0
H766 H 0.6994 0.40105 0.24314 0.0
H767 H 0.72385 0.42384 0.18932 0.0
H768 H 0.7093 0.31808 0.24369 0.0
H769 H 0.64483 0.40264 0.30281 0.0
H770 H 0.6257 0.44324 0.27662 0.0
H771 H 0.62736 0.41278 0.15322 0.0
H772 H 0.64613 0.37188 0.17874 0.0
H773 H 0.65211 0.28135 0.43071 0.0
H774 H 0.67421 0.30473 0.37596 0.0
H775 H 0.60289 0.309 0.30719 0.0
H776 H 0.58027 0.28604 0.36293 0.0
H777 H 0.62752 0.35366 0.30133 0.0
H778 H 0.65151 0.2655 0.28086 0.0
H779 H 0.66762 0.22212 0.29982 0.0
H780 H 0.74132 0.25477 0.33243 0.0
H781 H 0.72552 0.29842 0.31422 0.0
C782 C 0.72083 0.364 0.14464 0.0
C783 C 0.72724 0.39039 0.149 0.0
C784 C 0.70644 0.35119 0.17489 0.0
C785 C 0.69816 0.36428 0.2106 0.0
C786 C 0.70503 0.39055 0.21558 0.0
C787 C 0.71921 0.40354 0.18492 0.0
C788 C 0.68254 0.35017 0.24235 0.0
C789 C 0.69145 0.32597 0.25626 0.0
C790 C 0.65884 0.35996 0.25825 0.0
C791 C 0.64715 0.38431 0.24268 0.0
C792 C 0.64101 0.40457 0.27012 0.0
C793 C 0.63025 0.42764 0.25538 0.0
C794 C 0.62541 0.43062 0.21327 0.0
C795 C 0.63121 0.41049 0.18582 0.0
C796 C 0.64193 0.38737 0.2004 0.0
C797 C 0.64103 0.28708 0.40391 0.0
C798 C 0.61439 0.28153 0.40114 0.0
C799 C 0.65378 0.30048 0.37247 0.0
C800 C 0.64041 0.30834 0.33696 0.0
C801 C 0.61371 0.30311 0.33419 0.0
C802 C 0.60081 0.28985 0.36598 0.0
C803 C 0.65454 0.32182 0.30292 0.0
C804 C 0.64538 0.34585 0.28869 0.0
C805 C 0.6776 0.3115 0.28562 0.0
C806 C 0.68724 0.28527 0.2965 0.0
C807 C 0.67109 0.26346 0.29235 0.0
C808 C 0.68018 0.23881 0.30293 0.0
C809 C 0.70546 0.2357 0.31741 0.0
C810 C 0.72173 0.25722 0.32125 0.0
C811 C 0.71273 0.28191 0.31077 0.0
H812 H 0.71246 0.2166 0.32557 0.0
H813 H 0.61711 0.44851 0.20192 0.0
H814 H 0.11321 0.2462 0.42544 0.0
H815 H 0.14193 0.22829 0.47864 0.0
H816 H 0.10193 0.15505 0.47107 0.0
H817 H 0.07347 0.17263 0.41794 0.0
H818 H 0.11241 0.17025 0.55235 0.0
H819 H 0.1567 0.16133 0.42184 0.0
H820 H 0.17509 0.17739 0.35648 0.0
H821 H 0.2262 0.22777 0.42356 0.0
H822 H 0.2078 0.2123 0.48937 0.0
H823 H 0.20109 0.08442 0.64708 0.0
H824 H 0.17221 0.10565 0.59791 0.0
H825 H 0.22164 0.17306 0.5976 0.0
H826 H 0.25092 0.15177 0.64588 0.0
H827 H 0.20642 0.16315 0.52197 0.0
H828 H 0.16389 0.17139 0.65258 0.0
H829 H 0.14554 0.15608 0.71843 0.0
H830 H 0.09117 0.10848 0.65273 0.0
H831 H 0.10947 0.12322 0.58645 0.0
C832 C 0.11037 0.2264 0.43552 0.0
C833 C 0.09116 0.21079 0.41736 0.0
C834 C 0.12684 0.21615 0.46575 0.0
C835 C 0.12418 0.19026 0.4786 0.0
C836 C 0.10435 0.17505 0.46164 0.0
C837 C 0.08817 0.18512 0.43114 0.0
C838 C 0.14259 0.1785 0.50842 0.0
C839 C 0.13294 0.16852 0.54563 0.0
C840 C 0.16945 0.1767 0.5 0.0
C841 C 0.18066 0.18589 0.4605 0.0
C842 C 0.1717 0.176 0.42265 0.0
C843 C 0.18215 0.18497 0.38552 0.0
C844 C 0.20175 0.20365 0.38586 0.0
C845 C 0.21098 0.21334 0.42335 0.0
C846 C 0.20055 0.20448 0.46057 0.0
C847 C 0.20591 0.10371 0.63642 0.0
C848 C 0.22832 0.11639 0.65066 0.0
C849 C 0.18927 0.11592 0.60844 0.0
C850 C 0.19447 0.14119 0.59448 0.0
C851 C 0.21713 0.15362 0.60794 0.0
C852 C 0.23385 0.14139 0.63569 0.0
C853 C 0.17627 0.15473 0.56605 0.0
C854 C 0.18594 0.16503 0.529 0.0
C855 C 0.14943 0.15697 0.57476 0.0
C856 C 0.13821 0.14823 0.61455 0.0
C857 C 0.14814 0.15752 0.65217 0.0
C858 C 0.13774 0.14896 0.68957 0.0
C859 C 0.11725 0.13127 0.68976 0.0
C860 C 0.10707 0.12216 0.65253 0.0
C861 C 0.11743 0.13063 0.61504 0.0
H862 H 0.10922 0.12466 0.71875 0.0
H863 H 0.20982 0.21056 0.35709 0.0
H864 H 0.36964 0.849 0.96054 0.0
H865 H 0.34769 0.87793 0.91235 0.0
H866 H 0.41326 0.87384 0.82996 0.0
H867 H 0.43547 0.84483 0.87841 0.0
H868 H 0.3944 0.92444 0.8404 0.0
H869 H 0.36213 0.8414 0.80603 0.0
H870 H 0.34356 0.79819 0.81909 0.0
H871 H 0.2734 0.83324 0.86371 0.0
H872 H 0.29189 0.87672 0.85259 0.0
H873 H 0.31564 1.00068 0.70404 0.0
H874 H 0.34208 0.96286 0.72414 0.0
H875 H 0.28976 0.94795 0.82527 0.0
H876 H 0.26378 0.98534 0.80561 0.0
H877 H 0.30632 0.90275 0.78994 0.0
H878 H 0.34368 0.9843 0.83879 0.0
H879 H 0.36262 0.02769 0.82812 0.0
H880 H 0.42328 0.99433 0.75419 0.0
H881 H 0.40444 0.95076 0.76396 0.0
C882 C 0.37954 0.85443 0.93241 0.0
C883 C 0.40435 0.84461 0.9234 0.0
C884 C 0.36686 0.8708 0.90466 0.0
C885 C 0.3787 0.87787 0.8673 0.0
C886 C 0.40369 0.86856 0.8585 0.0
C887 C 0.4163 0.85189 0.8861 0.0
C888 C 0.36478 0.89508 0.83787 0.0
C889 C 0.3754 0.91945 0.82856 0.0
C890 C 0.33994 0.88862 0.82245 0.0
C891 C 0.32853 0.86243 0.82875 0.0
C892 C 0.34284 0.83996 0.81903 0.0
C893 C 0.33232 0.81538 0.82607 0.0
C894 C 0.3073 0.81297 0.84209 0.0
C895 C 0.29278 0.83514 0.85127 0.0
C896 C 0.30331 0.85977 0.84471 0.0
C897 C 0.30951 0.98883 0.7298 0.0
C898 C 0.28775 0.99592 0.75336 0.0
C899 C 0.32468 0.96737 0.74146 0.0
C900 C 0.31805 0.95267 0.77654 0.0
C901 C 0.29531 0.95888 0.79816 0.0
C902 C 0.2805 0.98034 0.78694 0.0
C903 C 0.33557 0.93239 0.79373 0.0
C904 C 0.32561 0.90743 0.80087 0.0
C905 C 0.36103 0.93825 0.80709 0.0
C906 C 0.37249 0.96436 0.80165 0.0
C907 C 0.36095 0.98626 0.82002 0.0
C908 C 0.37167 0.01087 0.81417 0.0
C909 C 0.39409 0.01377 0.79037 0.0
C910 C 0.40588 0.99205 0.77252 0.0
C911 C 0.39519 0.9674 0.7782 0.0
H912 H 0.40235 0.03284 0.78585 0.0
H913 H 0.29917 0.79392 0.84738 0.0
H914 H 0.51337 0.83002 0.94986 0.0
H915 H 0.54943 0.8547 0.98107 0.0
H916 H 0.56932 0.7882 0.05489 0.0
H917 H 0.53383 0.76385 0.02411 0.0
H918 H 0.55783 0.83273 0.10099 0.0
H919 H 0.60945 0.80697 0.98265 0.0
H920 H 0.61973 0.80462 0.90842 0.0
H921 H 0.62176 0.88776 0.90218 0.0
H922 H 0.61113 0.89061 0.97632 0.0
H923 H 0.66946 0.86051 0.21377 0.0
H924 H 0.63829 0.84189 0.16564 0.0
H925 H 0.63952 0.91236 0.0943 0.0
H926 H 0.67125 0.93095 0.14225 0.0
H927 H 0.63787 0.87179 0.04352 0.0
H928 H 0.58877 0.89859 0.1607 0.0
H929 H 0.57759 0.90242 0.23446 0.0
H930 H 0.56845 0.81982 0.24216 0.0
H931 H 0.57995 0.81544 0.16857 0.0
C932 C 0.52614 0.82048 0.97152 0.0
C933 C 0.52091 0.79505 0.98457 0.0
C934 C 0.54658 0.83461 0.98958 0.0
C935 C 0.5619 0.82336 0.02072 0.0
C936 C 0.55769 0.79737 0.03125 0.0
C937 C 0.53748 0.78341 0.01343 0.0
C938 C 0.58037 0.8389 0.04596 0.0
C939 C 0.57543 0.84112 0.08843 0.0
C940 C 0.60281 0.85073 0.02941 0.0
C941 C 0.60916 0.849 0.98489 0.0
C942 C 0.61182 0.82475 0.96536 0.0
C943 C 0.61778 0.82333 0.92333 0.0
C944 C 0.62131 0.84603 0.90057 0.0
C945 C 0.61897 0.8702 0.91983 0.0
C946 C 0.61299 0.87173 0.96186 0.0
C947 C 0.66298 0.87215 0.18807 0.0
C948 C 0.67264 0.89736 0.18224 0.0
C949 C 0.64515 0.86146 0.16042 0.0
C950 C 0.63606 0.87586 0.12662 0.0
C951 C 0.64611 0.90084 0.12012 0.0
C952 C 0.66424 0.91147 0.14761 0.0
C953 C 0.61572 0.86484 0.09887 0.0
C954 C 0.62017 0.86363 0.05605 0.0
C955 C 0.59254 0.85413 0.11494 0.0
C956 C 0.5854 0.85668 0.15917 0.0
C957 C 0.58453 0.88122 0.17818 0.0
C958 C 0.57812 0.88349 0.21996 0.0
C959 C 0.57236 0.86137 0.243 0.0
C960 C 0.57293 0.83693 0.22428 0.0
C961 C 0.57937 0.83455 0.18252 0.0
H962 H 0.56741 0.86317 0.27534 0.0
H963 H 0.62593 0.84489 0.86803 0.0
H964 H 0.70114 0.02073 0.19598 0.0
H965 H 0.67349 0.05686 0.22087 0.0
H966 H 0.69778 0.04157 0.34561 0.0
H967 H 0.72491 0.0065 0.32173 0.0
H968 H 0.64463 0.04498 0.33832 0.0
H969 H 0.72245 0.09119 0.29435 0.0
H970 H 0.75417 0.10598 0.24253 0.0
H971 H 0.6933 0.1427 0.17398 0.0
H972 H 0.66115 0.1278 0.22518 0.0
H973 H 0.62506 0.1449 0.4795 0.0
H974 H 0.64422 0.11356 0.43199 0.0
H975 H 0.61018 0.15377 0.32906 0.0
H976 H 0.59074 0.18529 0.37658 0.0
H977 H 0.65992 0.13837 0.31142 0.0
H978 H 0.58319 0.09801 0.36177 0.0
H979 H 0.55172 0.0837 0.41429 0.0
H980 H 0.60977 0.03555 0.46992 0.0
H981 H 0.64172 0.04985 0.4181 0.0
C982 C 0.70059 0.02527 0.2286 0.0
C983 C 0.71517 0.01053 0.25674 0.0
C984 C 0.68483 0.04587 0.2428 0.0
C985 C 0.68341 0.05179 0.28526 0.0
C986 C 0.69829 0.03729 0.31286 0.0
C987 C 0.71393 0.01713 0.29891 0.0
C988 C 0.66637 0.07255 0.30253 0.0
C989 C 0.64791 0.06541 0.33229 0.0
C990 C 0.67006 0.09919 0.29392 0.0
C991 C 0.68937 0.10806 0.26322 0.0
C992 C 0.7158 0.10218 0.268 0.0
C993 C 0.73386 0.11064 0.2388 0.0
C994 C 0.72574 0.12518 0.20489 0.0
C995 C 0.69955 0.13137 0.20019 0.0
C996 C 0.6814 0.12293 0.22928 0.0
C997 C 0.62141 0.14705 0.44684 0.0
C998 C 0.60602 0.16757 0.43216 0.0
C999 C 0.63248 0.1291 0.41959 0.0
C1000 C 0.62833 0.13098 0.37687 0.0
C1001 C 0.61363 0.15183 0.36185 0.0
C1002 C 0.60254 0.1699 0.38918 0.0
C1003 C 0.63903 0.11073 0.3485 0.0
C1004 C 0.65616 0.11796 0.31674 0.0
C1005 C 0.63413 0.08405 0.35516 0.0
C1006 C 0.61489 0.07511 0.38612 0.0
C1007 C 0.58929 0.08447 0.38533 0.0
C1008 C 0.57136 0.07635 0.41497 0.0
C1009 C 0.57875 0.05875 0.44545 0.0
C1010 C 0.60407 0.04918 0.44628 0.0
C1011 C 0.62209 0.05725 0.41674 0.0
H1012 H 0.56484 0.0525 0.46838 0.0
H1013 H 0.73975 0.13173 0.18233 0.0
H1014 H 0.49264 0.19142 0.45677 0.0
H1015 H 0.45788 0.16358 0.4851 0.0
H1016 H 0.45645 0.21008 0.59583 0.0
H1017 H 0.49033 0.2376 0.56808 0.0
H1018 H 0.46347 0.15749 0.61127 0.0
H1019 H 0.40837 0.21427 0.53032 0.0
H1020 H 0.39297 0.23397 0.46565 0.0
H1021 H 0.37539 0.15845 0.41711 0.0
H1022 H 0.39105 0.13827 0.48136 0.0
H1023 H 0.35544 0.1354 0.73515 0.0
H1024 H 0.38727 0.15367 0.6883 0.0
H1025 H 0.36779 0.09635 0.59652 0.0
H1026 H 0.33586 0.07745 0.64375 0.0
H1027 H 0.37318 0.14585 0.56256 0.0
H1028 H 0.42281 0.08949 0.64732 0.0
H1029 H 0.43764 0.06991 0.71243 0.0
H1030 H 0.46622 0.14384 0.75313 0.0
H1031 H 0.45118 0.16397 0.68855 0.0
C1032 C 0.48441 0.19594 0.48669 0.0
C1033 C 0.49441 0.21654 0.51032 0.0
C1034 C 0.46469 0.17999 0.50296 0.0
C1035 C 0.45481 0.18454 0.54292 0.0
C1036 C 0.46395 0.20593 0.56526 0.0
C1037 C 0.48335 0.2217 0.5492 0.0
C1038 C 0.43611 0.16667 0.56345 0.0
C1039 C 0.44373 0.15495 0.60057 0.0
C1040 C 0.41058 0.16263 0.54894 0.0
C1041 C 0.40122 0.17475 0.51038 0.0
C1042 C 0.40148 0.20185 0.50569 0.0
C1043 C 0.39264 0.21311 0.46915 0.0
C1044 C 0.3833 0.19747 0.43722 0.0
C1045 C 0.3827 0.17054 0.44182 0.0
C1046 C 0.39154 0.15918 0.47829 0.0
C1047 C 0.35801 0.12626 0.70537 0.0
C1048 C 0.34304 0.10461 0.69375 0.0
C1049 C 0.37624 0.13693 0.67836 0.0
C1050 C 0.38018 0.12628 0.63892 0.0
C1051 C 0.3651 0.10493 0.62676 0.0
C1052 C 0.34682 0.09413 0.65392 0.0
C1053 C 0.40035 0.13753 0.61116 0.0
C1054 C 0.39307 0.14791 0.5728 0.0
C1055 C 0.42633 0.14034 0.6244 0.0
C1056 C 0.43573 0.12827 0.66313 0.0
C1057 C 0.43212 0.10161 0.67025 0.0
C1058 C 0.44058 0.09041 0.70706 0.0
C1059 C 0.45284 0.10563 0.73691 0.0
C1060 C 0.45672 0.13207 0.72997 0.0
C1061 C 0.44826 0.14339 0.69324 0.0
H1062 H 0.45936 0.09692 0.7654 0.0
H1063 H 0.37645 0.20622 0.40896 0.0
H1064 H 0.91068 0.68842 0.92111 0.0
H1065 H 0.88801 0.65953 0.96865 0.0
H1066 H 0.85171 0.621 0.86569 0.0
H1067 H 0.87352 0.65033 0.81813 0.0
H1068 H 0.81745 0.62798 0.92569 0.0
H1069 H 0.90558 0.59566 0.91707 0.0
H1070 H 0.95307 0.59895 0.92367 0.0
H1071 H 0.945 0.61727 0.05237 0.0
H1072 H 0.89741 0.61439 0.04637 0.0
H1073 H 0.78927 0.50177 0.9748 0.0
H1074 H 0.8111 0.54047 0.95136 0.0
H1075 H 0.82252 0.56496 0.07725 0.0
H1076 H 0.80016 0.52538 0.10167 0.0
H1077 H 0.86737 0.57173 0.02076 0.0
H1078 H 0.77788 0.59226 0.02913 0.0
H1079 H 0.73142 0.5835 0.01913 0.0
H1080 H 0.74165 0.58609 0.88784 0.0
H1081 H 0.78849 0.59325 0.89683 0.0
C1082 C 0.89767 0.67404 0.90845 0.0
C1083 C 0.89416 0.67174 0.86546 0.0
C1084 C 0.88484 0.65732 0.93581 0.0
C1085 C 0.86829 0.6378 0.92089 0.0
C1086 C 0.86438 0.63582 0.87812 0.0
C1087 C 0.87713 0.65251 0.85081 0.0
C1088 C 0.85534 0.61899 0.94929 0.0
C1089 C 0.82838 0.6157 0.94646 0.0
C1090 C 0.8694 0.60346 0.97755 0.0
C1091 C 0.89796 0.60514 0.98116 0.0
C1092 C 0.91394 0.60059 0.94669 0.0
C1093 C 0.94086 0.60235 0.95034 0.0
C1094 C 0.95204 0.60841 0.98838 0.0
C1095 C 0.93631 0.61264 0.0229 0.0
C1096 C 0.90937 0.61094 0.0194 0.0
C1097 C 0.79635 0.5152 0.99792 0.0
C1098 C 0.79261 0.51051 0.0403 0.0
C1099 C 0.80892 0.53742 0.98426 0.0
C1100 C 0.81812 0.55584 0.0124 0.0
C1101 C 0.81542 0.55101 0.05496 0.0
C1102 C 0.80262 0.52848 0.06888 0.0
C1103 C 0.82968 0.58019 0.99598 0.0
C1104 C 0.85633 0.58452 1.0009 0.0
C1105 C 0.81534 0.59656 0.96934 0.0
C1106 C 0.78689 0.59321 0.96372 0.0
C1107 C 0.77033 0.59075 0.99808 0.0
C1108 C 0.74389 0.58604 0.99259 0.0
C1109 C 0.73355 0.58447 0.95291 0.0
C1110 C 0.74968 0.58739 0.91859 0.0
C1111 C 0.77623 0.59165 0.92386 0.0
H1112 H 0.71305 0.58095 0.94876 0.0
H1113 H 0.97289 0.60975 0.99114 0.0
H1114 H 0.02418 0.3266 0.25467 0.0
H1115 H 0.98751 0.35115 0.22771 0.0
H1116 H 0.9393 0.32244 0.32632 0.0
H1117 H 0.97649 0.29795 0.35393 0.0
H1118 H 0.91839 0.31433 0.24712 0.0
H1119 H 0.95201 0.38498 0.32459 0.0
H1120 H 0.98565 0.41461 0.35085 0.0
H1121 H 1.00083 0.44115 0.22775 0.0
H1122 H 0.96757 0.41136 0.20061 0.0
H1123 H 0.81385 0.38609 0.15818 0.0
H1124 H 0.84538 0.36918 0.20744 0.0
H1125 H 0.90775 0.39806 0.13176 0.0
H1126 H 0.87642 0.41583 0.08328 0.0
H1127 H 0.91776 0.40766 0.21049 0.0
H1128 H 0.88975 0.33308 0.13239 0.0
H1129 H 0.85792 0.30218 0.10407 0.0
H1130 H 0.83364 0.28224 0.22671 0.0
H1131 H 0.86513 0.3133 0.25575 0.0
C1132 C 0.00597 0.32619 0.27138 0.0
C1133 C 1.00321 0.31069 0.30666 0.0
C1134 C 0.98499 0.34018 0.25589 0.0
C1135 C 0.96061 0.33874 0.27499 0.0
C1136 C 0.95796 0.32395 0.31119 0.0
C1137 C 0.97923 0.31022 0.32722 0.0
C1138 C 0.93781 0.35096 0.25461 0.0
C1139 C 0.91788 0.33487 0.24002 0.0
C1140 C 0.93749 0.37763 0.24435 0.0
C1141 C 0.95737 0.3958 0.26053 0.0
C1142 C 0.96264 0.397 0.30306 0.0
C1143 C 0.98163 0.41384 0.31811 0.0
C1144 C 0.99539 0.42972 0.29098 0.0
C1145 C 0.99015 0.42883 0.24873 0.0
C1146 C 0.9712 0.41199 0.2335 0.0
C1147 C 0.83425 0.38909 0.15214 0.0
C1148 C 0.84244 0.40235 0.11647 0.0
C1149 C 0.85232 0.37918 0.18025 0.0
C1150 C 0.87905 0.38208 0.17326 0.0
C1151 C 0.88727 0.39551 0.13794 0.0
C1152 C 0.86925 0.40546 0.10989 0.0
C1153 C 0.89856 0.37093 0.20225 0.0
C1154 C 0.91794 0.38722 0.21829 0.0
C1155 C 0.89849 0.3444 0.21361 0.0
C1156 C 0.87955 0.32574 0.19621 0.0
C1157 C 0.87747 0.32227 0.1533 0.0
C1158 C 0.85952 0.3047 0.13712 0.0
C1159 C 0.84371 0.29032 0.16357 0.0
C1160 C 0.84586 0.29344 0.20626 0.0
C1161 C 0.86376 0.31101 0.2226 0.0
H1162 H 0.82983 0.27672 0.15099 0.0
H1163 H 0.0101 0.44274 0.3027 0.0
H1164 H 0.23063 0.47939 0.59003 0.0
H1165 H 0.20704 0.44011 0.56741 0.0
H1166 H 0.18028 0.48103 0.45963 0.0
H1167 H 0.20295 0.51961 0.48213 0.0
H1168 H 0.14261 0.45279 0.48817 0.0
H1169 H 0.23457 0.44008 0.45987 0.0
H1170 H 0.28033 0.43573 0.48077 0.0
H1171 H 0.26086 0.37019 0.55603 0.0
H1172 H 0.2149 0.37442 0.53614 0.0
H1173 H 0.12082 0.367 0.32381 0.0
H1174 H 0.14123 0.39881 0.3694 0.0
H1175 H 0.14698 0.34127 0.46514 0.0
H1176 H 0.12663 0.30919 0.41941 0.0
H1177 H 0.19257 0.37294 0.45641 0.0
H1178 H 0.10084 0.38286 0.47431 0.0
H1179 H 0.05576 0.38791 0.45059 0.0
H1180 H 0.07565 0.45968 0.39167 0.0
H1181 H 0.12095 0.45486 0.41451 0.0
C1182 C 0.21924 0.47997 0.56204 0.0
C1183 C 0.21877 0.50249 0.53774 0.0
C1184 C 0.20597 0.45752 0.5489 0.0
C1185 C 0.19204 0.45745 0.51145 0.0
C1186 C 0.19077 0.48041 0.48854 0.0
C1187 C 0.20392 0.50251 0.50142 0.0
C1188 C 0.17956 0.43369 0.49408 0.0
C1189 C 0.15359 0.43534 0.48135 0.0
C1190 C 0.19359 0.4106 0.48575 0.0
C1191 C 0.22126 0.40779 0.49701 0.0
C1192 C 0.24003 0.42486 0.48111 0.0
C1193 C 0.26598 0.42242 0.49277 0.0
C1194 C 0.27343 0.4028 0.51991 0.0
C1195 C 0.25501 0.38545 0.53518 0.0
C1196 C 0.22901 0.38786 0.52374 0.0
C1197 C 0.12672 0.36097 0.35432 0.0
C1198 C 0.12196 0.33555 0.36797 0.0
C1199 C 0.13826 0.37923 0.38049 0.0
C1200 C 0.14545 0.3725 0.42086 0.0
C1201 C 0.14155 0.34692 0.43419 0.0
C1202 C 0.12974 0.32868 0.40812 0.0
C1203 C 0.15604 0.39261 0.4493 0.0
C1204 C 0.18151 0.3902 0.46404 0.0
C1205 C 0.14169 0.41521 0.45911 0.0
C1206 C 0.11434 0.4184 0.44592 0.0
C1207 C 0.09564 0.39964 0.45609 0.0
C1208 C 0.07004 0.40247 0.44282 0.0
C1209 C 0.06285 0.42408 0.41958 0.0
C1210 C 0.08124 0.44295 0.40967 0.0
C1211 C 0.10688 0.44019 0.42282 0.0
H1212 H 0.04303 0.42622 0.40928 0.0
H1213 H 0.29349 0.40095 0.529 0.0
H1214 H 0.13565 0.58906 0.5855 0.0
H1215 H 0.10391 0.60791 0.63302 0.0
H1216 H 0.16548 0.6465 0.69889 0.0
H1217 H 0.1974 0.62639 0.65235 0.0
H1218 H 0.13077 0.633 0.75224 0.0
H1219 H 0.12621 0.67819 0.6244 0.0
H1220 H 0.12234 0.6833 0.54905 0.0
H1221 H 0.0469 0.6483 0.55224 0.0
H1222 H 0.05047 0.64265 0.62755 0.0
H1223 H 0.03938 0.72981 0.83272 0.0
H1224 H 0.07602 0.70516 0.80346 0.0
H1225 H 0.02227 0.65439 0.74132 0.0
H1226 H 0.98602 0.67909 0.76993 0.0
H1227 H 0.05547 0.67689 0.68822 0.0
H1228 H 0.06178 0.63279 0.81965 0.0
H1229 H 0.06699 0.63095 0.89518 0.0
H1230 H 0.14074 0.66895 0.88526 0.0
H1231 H 0.13581 0.67131 0.80968 0.0
C1232 C 0.14236 0.60142 0.61032 0.0
C1233 C 0.16891 0.60647 0.61505 0.0
C1234 C 0.12423 0.61233 0.6374 0.0
C1235 C 0.1321 0.62933 0.66903 0.0
C1236 C 0.15878 0.63362 0.67472 0.0
C1237 C 0.17702 0.62215 0.64813 0.0
C1238 C 0.11239 0.64323 0.69487 0.0
C1239 C 0.11448 0.64285 0.73816 0.0
C1240 C 0.09102 0.65623 0.67685 0.0
C1241 C 0.08871 0.6598 0.63158 0.0
C1242 C 0.10886 0.67145 0.60899 0.0
C1243 C 0.10671 0.67445 0.56629 0.0
C1244 C 0.08441 0.66608 0.54586 0.0
C1245 C 0.06418 0.65475 0.5681 0.0
C1246 C 0.06624 0.65166 0.6108 0.0
C1247 C 0.03553 0.71267 0.81432 0.0
C1248 C 0.00995 0.706 0.8041 0.0
C1249 C 0.05643 0.69871 0.79732 0.0
C1250 C 0.05194 0.67793 0.76996 0.0
C1251 C 0.02629 0.67034 0.76217 0.0
C1252 C 0.00556 0.68429 0.77887 0.0
C1253 C 0.07338 0.66592 0.74549 0.0
C1254 C 0.07173 0.66696 0.7023 0.0
C1255 C 0.09528 0.65406 0.76367 0.0
C1256 C 0.0983 0.65245 0.80905 0.0
C1257 C 0.07902 0.64093 0.8336 0.0
C1258 C 0.08194 0.63976 0.87642 0.0
C1259 C 0.10415 0.64989 0.89502 0.0
C1260 C 0.12353 0.66114 0.87082 0.0
C1261 C 0.12069 0.66238 0.82799 0.0
H1262 H 0.10637 0.64897 0.92817 0.0
H1263 H 0.08279 0.66841 0.5128 0.0
loop_
_geom_bond_atom_site_label_1
_geom_bond_atom_site_label_2
_geom_bond_distance
_geom_bond_site_symmetry_2
_ccdc_geom_bond_type
Co0 N4 2.148 . S
Co0 N10 2.128 . S
Co0 N20 2.194 1_556 S
Co0 O25 2.351 1_556 S
Co0 O26 2.155 . S
Co0 O27 2.096 . S
C1 N4 1.301 1_554 S
C1 N5 1.328 . S
C1 H6 0.930 . S
C2 C3 1.333 . S
C2 N4 1.317 . S
C2 H7 0.930 . S
C3 C2 1.333 . S
C3 N5 1.350 1_556 S
C3 H29 0.931 . S
N4 Co0 2.148 . S
N4 C1 1.301 1_556 S
N4 C2 1.317 . S
N5 C1 1.328 . S
N5 C3 1.350 1_554 S
H6 C1 0.930 . S
H7 C2 0.930 . S
C8 O9 1.224 . S
C8 O27 1.247 . S
O9 C8 1.224 . S
N10 Co0 2.128 . S
N10 C11 1.355 1_556 S
N10 C13 1.311 . S
C11 N10 1.355 1_554 S
C11 C12 1.363 . S
C11 H23 0.929 . S
C12 C11 1.363 . S
C12 N14 1.375 1_554 S
C12 H30 0.931 . S
C13 N10 1.311 . S
C13 N14 1.347 . S
C13 H24 0.929 . S
N14 C12 1.375 1_556 S
N14 C13 1.347 . S
C15 C18 1.365 . S
C15 N20 1.328 . S
C15 H21 0.929 . S
C16 C17 1.362 . S
C16 C19 1.378 . S
C16 H31 0.929 . S
C17 C16 1.362 . S
C17 C18 1.366 . S
C18 C15 1.365 . S
C18 C17 1.366 . S
C18 H32 0.930 . S
C19 C16 1.378 . S
C19 N20 1.315 . S
C19 H22 0.930 . S
N20 Co0 2.194 1_554 S
N20 C15 1.328 . S
N20 C19 1.315 . S
H21 C15 0.929 . S
H22 C19 0.930 . S
H23 C11 0.929 . S
H24 C13 0.929 . S
O25 Co0 2.351 1_554 S
O25 C28 1.244 . S
O26 Co0 2.155 . S
O26 C28 1.240 1_556 S
O27 Co0 2.096 . S
O27 C8 1.247 . S
C28 O25 1.244 . S
C28 O26 1.240 1_554 S
H29 C3 0.931 . S
H30 C12 0.931 . S
H31 C16 0.929 . S
H32 C18 0.930 . S
Co33 N37 2.148 . S
Co33 N43 2.128 . S
Co33 N53 2.194 . S
Co33 O58 2.351 . S
Co33 O59 2.155 . S
Co33 O60 2.096 . S
C34 N37 1.301 . S
C34 N38 1.328 . S
C34 H39 0.930 . S
C35 C36 1.333 . S
C35 N37 1.317 . S
C35 H40 0.930 . S
C36 C35 1.333 . S
C36 N38 1.350 . S
C36 H62 0.931 . S
N37 Co33 2.148 . S
N37 C34 1.301 . S
N37 C35 1.317 . S
N38 C34 1.328 . S
N38 C36 1.350 . S
H39 C34 0.930 . S
H40 C35 0.930 . S
C41 O42 1.224 . S
C41 O60 1.247 . S
O42 C41 1.224 . S
N43 Co33 2.128 . S
N43 C44 1.355 . S
N43 C46 1.311 . S
C44 N43 1.355 . S
C44 C45 1.363 . S
C44 H56 0.929 . S
C45 C44 1.363 . S
C45 N47 1.375 . S
C45 H63 0.931 . S
C46 N43 1.311 . S
C46 N47 1.347 . S
C46 H57 0.929 . S
N47 C45 1.375 . S
N47 C46 1.347 . S
C48 C51 1.365 . S
C48 N53 1.328 . S
C48 H54 0.929 . S
C49 C50 1.362 . S
C49 C52 1.378 . S
C49 H64 0.929 . S
C50 C49 1.362 . S
C50 C51 1.366 . S
C51 C48 1.365 . S
C51 C50 1.366 . S
C51 H65 0.930 . S
C52 C49 1.378 . S
C52 N53 1.315 . S
C52 H55 0.930 . S
N53 Co33 2.194 . S
N53 C48 1.328 . S
N53 C52 1.315 . S
H54 C48 0.929 . S
H55 C52 0.930 . S
H56 C44 0.929 . S
H57 C46 0.929 . S
O58 Co33 2.351 . S
O58 C61 1.244 . S
O59 Co33 2.155 . S
O59 C61 1.240 . S
O60 Co33 2.096 . S
O60 C41 1.247 . S
C61 O58 1.244 . S
C61 O59 1.240 . S
H62 C36 0.931 . S
H63 C45 0.931 . S
H64 C49 0.929 . S
H65 C51 0.930 . S
Co66 N70 2.148 . S
Co66 N76 2.128 . S
Co66 N86 2.194 . S
Co66 O91 2.351 . S
Co66 O92 2.155 . S
Co66 O93 2.096 . S
C67 N70 1.301 . S
C67 N71 1.328 . S
C67 H72 0.930 . S
C68 C69 1.333 . S
C68 N70 1.317 . S
C68 H73 0.930 . S
C69 C68 1.333 . S
C69 N71 1.350 . S
C69 H95 0.931 . S
N70 Co66 2.148 . S
N70 C67 1.301 . S
N70 C68 1.317 . S
N71 C67 1.328 . S
N71 C69 1.350 . S
H72 C67 0.930 . S
H73 C68 0.930 . S
C74 O75 1.224 . S
C74 O93 1.247 . S
O75 C74 1.224 . S
N76 Co66 2.128 . S
N76 C77 1.355 . S
N76 C79 1.311 . S
C77 N76 1.355 . S
C77 C78 1.363 . S
C77 H89 0.929 . S
C78 C77 1.363 . S
C78 N80 1.375 . S
C78 H96 0.931 . S
C79 N76 1.311 . S
C79 N80 1.347 . S
C79 H90 0.929 . S
N80 C78 1.375 . S
N80 C79 1.347 . S
C81 C84 1.365 . S
C81 N86 1.328 . S
C81 H87 0.929 . S
C82 C83 1.362 . S
C82 C85 1.378 . S
C82 H97 0.929 . S
C83 C82 1.362 . S
C83 C84 1.366 . S
C84 C81 1.365 . S
C84 C83 1.366 . S
C84 H98 0.930 . S
C85 C82 1.378 . S
C85 N86 1.315 . S
C85 H88 0.930 . S
N86 Co66 2.194 . S
N86 C81 1.328 . S
N86 C85 1.315 . S
H87 C81 0.929 . S
H88 C85 0.930 . S
H89 C77 0.929 . S
H90 C79 0.929 . S
O91 Co66 2.351 . S
O91 C94 1.244 . S
O92 Co66 2.155 . S
O92 C94 1.240 . S
O93 Co66 2.096 . S
O93 C74 1.247 . S
C94 O91 1.244 . S
C94 O92 1.240 . S
H95 C69 0.931 . S
H96 C78 0.931 . S
H97 C82 0.929 . S
H98 C84 0.930 . S
Co99 N103 2.148 . S
Co99 N109 2.128 . S
Co99 N119 2.194 . S
Co99 O124 2.351 . S
Co99 O125 2.155 . S
Co99 O126 2.096 . S
C100 N103 1.301 . S
C100 N104 1.328 . S
C100 H105 0.930 . S
C101 C102 1.333 . S
C101 N103 1.317 . S
C101 H106 0.930 . S
C102 C101 1.333 . S
C102 N104 1.350 . S
C102 H128 0.931 . S
N103 Co99 2.148 . S
N103 C100 1.301 . S
N103 C101 1.317 . S
N104 C100 1.328 . S
N104 C102 1.350 . S
H105 C100 0.930 . S
H106 C101 0.930 . S
C107 O108 1.224 . S
C107 O126 1.247 . S
O108 C107 1.224 . S
N109 Co99 2.128 . S
N109 C110 1.355 . S
N109 C112 1.311 . S
C110 N109 1.355 . S
C110 C111 1.363 . S
C110 H122 0.929 . S
C111 C110 1.363 . S
C111 N113 1.375 . S
C111 H129 0.931 . S
C112 N109 1.311 . S
C112 N113 1.347 . S
C112 H123 0.929 . S
N113 C111 1.375 . S
N113 C112 1.347 . S
C114 C117 1.365 . S
C114 N119 1.328 . S
C114 H120 0.929 . S
C115 C116 1.362 . S
C115 C118 1.378 . S
C115 H130 0.929 . S
C116 C115 1.362 . S
C116 C117 1.366 . S
C117 C114 1.365 . S
C117 C116 1.366 . S
C117 H131 0.930 . S
C118 C115 1.378 . S
C118 N119 1.315 . S
C118 H121 0.930 . S
N119 Co99 2.194 . S
N119 C114 1.328 . S
N119 C118 1.315 . S
H120 C114 0.929 . S
H121 C118 0.930 . S
H122 C110 0.929 . S
H123 C112 0.929 . S
O124 Co99 2.351 . S
O124 C127 1.244 . S
O125 Co99 2.155 . S
O125 C127 1.240 . S
O126 Co99 2.096 . S
O126 C107 1.247 . S
C127 O124 1.244 . S
C127 O125 1.240 . S
H128 C102 0.931 . S
H129 C111 0.931 . S
H130 C115 0.929 . S
H131 C117 0.930 . S
Co132 N136 2.148 . S
Co132 N142 2.128 . S
Co132 N152 2.194 . S
Co132 O157 2.351 . S
Co132 O158 2.155 . S
Co132 O159 2.096 . S
C133 N136 1.301 . S
C133 N137 1.328 . S
C133 H138 0.930 . S
C134 C135 1.333 . S
C134 N136 1.317 . S
C134 H139 0.930 . S
C135 C134 1.333 . S
C135 N137 1.350 . S
C135 H161 0.931 . S
N136 Co132 2.148 . S
N136 C133 1.301 . S
N136 C134 1.317 . S
N137 C133 1.328 . S
N137 C135 1.350 . S
H138 C133 0.930 . S
H139 C134 0.930 . S
C140 O141 1.224 . S
C140 O159 1.247 . S
O141 C140 1.224 . S
N142 Co132 2.128 . S
N142 C143 1.355 . S
N142 C145 1.311 . S
C143 N142 1.355 . S
C143 C144 1.363 . S
C143 H155 0.929 . S
C144 C143 1.363 . S
C144 N146 1.375 . S
C144 H162 0.931 . S
C145 N142 1.311 . S
C145 N146 1.347 . S
C145 H156 0.929 . S
N146 C144 1.375 . S
N146 C145 1.347 . S
C147 C150 1.365 . S
C147 N152 1.328 . S
C147 H153 0.929 . S
C148 C149 1.362 . S
C148 C151 1.378 . S
C148 H163 0.929 . S
C149 C148 1.362 . S
C149 C150 1.366 . S
C150 C147 1.365 . S
C150 C149 1.366 . S
C150 H164 0.930 . S
C151 C148 1.378 . S
C151 N152 1.315 . S
C151 H154 0.930 . S
N152 Co132 2.194 . S
N152 C147 1.328 . S
N152 C151 1.315 . S
H153 C147 0.929 . S
H154 C151 0.930 . S
H155 C143 0.929 . S
H156 C145 0.929 . S
O157 Co132 2.351 . S
O157 C160 1.244 . S
O158 Co132 2.155 . S
O158 C160 1.240 . S
O159 Co132 2.096 . S
O159 C140 1.247 . S
C160 O157 1.244 . S
C160 O158 1.240 . S
H161 C135 0.931 . S
H162 C144 0.931 . S
H163 C148 0.929 . S
H164 C150 0.930 . S
Co165 N169 2.148 . S
Co165 N175 2.128 . S
Co165 N185 2.194 1_554 S
Co165 O190 2.351 1_554 S
Co165 O191 2.155 . S
Co165 O192 2.096 . S
C166 N169 1.301 . S
C166 N170 1.328 . S
C166 H171 0.930 1_554 S
C167 C168 1.333 . S
C167 N169 1.317 . S
C167 H172 0.930 . S
C168 C167 1.333 . S
C168 N170 1.350 . S
C168 H194 0.931 . S
N169 Co165 2.148 . S
N169 C166 1.301 . S
N169 C167 1.317 . S
N170 C166 1.328 . S
N170 C168 1.350 . S
H171 C166 0.930 1_556 S
H172 C167 0.930 . S
C173 O174 1.224 . S
C173 O192 1.247 . S
O174 C173 1.224 . S
N175 Co165 2.128 . S
N175 C176 1.355 . S
N175 C178 1.311 . S
C176 N175 1.355 . S
C176 C177 1.363 . S
C176 H188 0.929 1_554 S
C177 C176 1.363 . S
C177 N179 1.375 . S
C177 H195 0.931 . S
C178 N175 1.311 . S
C178 N179 1.347 . S
C178 H189 0.929 . S
N179 C177 1.375 . S
N179 C178 1.347 . S
C180 C183 1.365 . S
C180 N185 1.328 . S
C180 H186 0.929 . S
C181 C182 1.362 . S
C181 C184 1.378 . S
C181 H196 0.929 . S
C182 C181 1.362 . S
C182 C183 1.366 . S
C183 C180 1.365 . S
C183 C182 1.366 . S
C183 H197 0.930 . S
C184 C181 1.378 . S
C184 N185 1.315 . S
C184 H187 0.930 1_556 S
N185 Co165 2.194 1_556 S
N185 C180 1.328 . S
N185 C184 1.315 . S
H186 C180 0.929 . S
H187 C184 0.930 1_554 S
H188 C176 0.929 1_556 S
H189 C178 0.929 . S
O190 Co165 2.351 1_556 S
O190 C193 1.244 1_556 S
O191 Co165 2.155 . S
O191 C193 1.240 . S
O192 Co165 2.096 . S
O192 C173 1.247 . S
C193 O190 1.244 1_554 S
C193 O191 1.240 . S
H194 C168 0.931 . S
H195 C177 0.931 . S
H196 C181 0.929 . S
H197 C183 0.930 . S
Co198 N202 2.148 . S
Co198 N208 2.128 . S
Co198 N218 2.194 . S
Co198 O223 2.351 . S
Co198 O224 2.155 . S
Co198 O225 2.096 . S
C199 N202 1.301 . S
C199 N203 1.328 . S
C199 H204 0.930 . S
C200 C201 1.333 . S
C200 N202 1.317 . S
C200 H205 0.930 . S
C201 C200 1.333 . S
C201 N203 1.350 . S
C201 H227 0.931 . S
N202 Co198 2.148 . S
N202 C199 1.301 . S
N202 C200 1.317 . S
N203 C199 1.328 . S
N203 C201 1.350 . S
H204 C199 0.930 . S
H205 C200 0.930 . S
C206 O207 1.224 . S
C206 O225 1.247 . S
O207 C206 1.224 . S
N208 Co198 2.128 . S
N208 C209 1.355 . S
N208 C211 1.311 . S
C209 N208 1.355 . S
C209 C210 1.363 . S
C209 H221 0.929 . S
C210 C209 1.363 . S
C210 N212 1.375 . S
C210 H228 0.931 . S
C211 N208 1.311 . S
C211 N212 1.347 . S
C211 H222 0.929 . S
N212 C210 1.375 . S
N212 C211 1.347 . S
C213 C216 1.365 . S
C213 N218 1.328 . S
C213 H219 0.929 . S
C214 C215 1.362 . S
C214 C217 1.378 . S
C214 H229 0.929 . S
C215 C214 1.362 . S
C215 C216 1.366 . S
C216 C213 1.365 . S
C216 C215 1.366 . S
C216 H230 0.930 . S
C217 C214 1.378 . S
C217 N218 1.315 . S
C217 H220 0.930 . S
N218 Co198 2.194 . S
N218 C213 1.328 . S
N218 C217 1.315 . S
H219 C213 0.929 . S
H220 C217 0.930 . S
H221 C209 0.929 . S
H222 C211 0.929 . S
O223 Co198 2.351 . S
O223 C226 1.244 . S
O224 Co198 2.155 . S
O224 C226 1.240 . S
O225 Co198 2.096 . S
O225 C206 1.247 . S
C226 O223 1.244 . S
C226 O224 1.240 . S
H227 C201 0.931 . S
H228 C210 0.931 . S
H229 C214 0.929 . S
H230 C216 0.930 . S
Co231 N235 2.148 . S
Co231 N241 2.128 . S
Co231 N251 2.194 . S
Co231 O256 2.351 . S
Co231 O257 2.155 . S
Co231 O258 2.096 . S
C232 N235 1.301 . S
C232 N236 1.328 . S
C232 H237 0.930 . S
C233 C234 1.333 . S
C233 N235 1.317 . S
C233 H238 0.930 . S
C234 C233 1.333 . S
C234 N236 1.350 . S
C234 H260 0.931 . S
N235 Co231 2.148 . S
N235 C232 1.301 . S
N235 C233 1.317 . S
N236 C232 1.328 . S
N236 C234 1.350 . S
H237 C232 0.930 . S
H238 C233 0.930 . S
C239 O240 1.224 . S
C239 O258 1.247 . S
O240 C239 1.224 . S
N241 Co231 2.128 . S
N241 C242 1.355 . S
N241 C244 1.311 . S
C242 N241 1.355 . S
C242 C243 1.363 . S
C242 H254 0.929 . S
C243 C242 1.363 . S
C243 N245 1.375 . S
C243 H261 0.931 . S
C244 N241 1.311 . S
C244 N245 1.347 . S
C244 H255 0.929 . S
N245 C243 1.375 . S
N245 C244 1.347 . S
C246 C249 1.365 . S
C246 N251 1.328 . S
C246 H252 0.929 . S
C247 C248 1.362 . S
C247 C250 1.378 . S
C247 H262 0.929 . S
C248 C247 1.362 . S
C248 C249 1.366 . S
C249 C246 1.365 . S
C249 C248 1.366 . S
C249 H263 0.930 . S
C250 C247 1.378 . S
C250 N251 1.315 . S
C250 H253 0.930 . S
N251 Co231 2.194 . S
N251 C246 1.328 . S
N251 C250 1.315 . S
H252 C246 0.929 . S
H253 C250 0.930 . S
H254 C242 0.929 . S
H255 C244 0.929 . S
O256 Co231 2.351 . S
O256 C259 1.244 . S
O257 Co231 2.155 . S
O257 C259 1.240 . S
O258 Co231 2.096 . S
O258 C239 1.247 . S
C259 O256 1.244 . S
C259 O257 1.240 . S
H260 C234 0.931 . S
H261 C243 0.931 . S
H262 C247 0.929 . S
H263 C249 0.930 . S
H264 C282 0.951 . S
H265 C284 0.951 . S
H266 C286 0.950 . S
H267 C287 0.950 . S
H268 C289 0.950 . S
H269 C292 0.950 . S
H270 C293 0.950 . S
H271 C295 0.950 . S
H272 C296 0.950 1_556 S
H273 C297 0.951 . S
H274 C299 0.951 . S
H275 C301 0.950 . S
H276 C302 0.950 . S
H277 C304 0.950 . S
H278 C307 0.950 . S
H279 C308 0.950 . S
H280 C310 0.950 . S
H281 C311 0.950 . S
C282 H264 0.951 . S
C282 C283 1.366 1_556 S
C282 C284 1.388 . S
C283 C282 1.366 1_554 S
C283 C287 1.385 . S
C284 H265 0.951 . S
C284 C282 1.388 . S
C284 C285 1.366 1_556 S
C285 C284 1.366 1_554 S
C285 C286 1.414 . S
C285 C288 1.499 . S
C286 H266 0.950 . S
C286 C285 1.414 . S
C286 C287 1.374 . S
C287 H267 0.950 . S
C287 C283 1.385 . S
C287 C286 1.374 . S
C288 C285 1.499 . S
C288 C289 1.373 . S
C288 C290 1.389 . S
C289 H268 0.950 . S
C289 C288 1.373 . S
C289 C305 1.377 . S
C290 C288 1.389 . S
C290 C291 1.524 . S
C290 C304 1.377 . S
C291 C290 1.524 . S
C291 C292 1.397 . S
C291 C296 1.363 . S
C292 H269 0.950 . S
C292 C291 1.397 . S
C292 C293 1.334 . S
C293 H270 0.950 . S
C293 C292 1.334 . S
C293 C294 1.287 . S
C294 C293 1.287 . S
C294 C295 1.524 . S
C294 H313 0.913 . S
C295 H271 0.950 . S
C295 C294 1.524 . S
C295 C296 1.415 . S
C296 H272 0.950 1_554 S
C296 C291 1.363 . S
C296 C295 1.415 . S
C297 H273 0.951 . S
C297 C298 1.366 . S
C297 C299 1.388 . S
C298 C297 1.366 . S
C298 C302 1.385 1_554 S
C299 H274 0.951 . S
C299 C297 1.388 . S
C299 C300 1.366 . S
C300 C299 1.366 . S
C300 C301 1.414 1_554 S
C300 C303 1.499 . S
C301 H275 0.950 . S
C301 C300 1.414 1_556 S
C301 C302 1.374 . S
C302 H276 0.950 . S
C302 C298 1.385 1_556 S
C302 C301 1.374 . S
C303 C300 1.499 . S
C303 C304 1.373 . S
C303 C305 1.389 . S
C304 H277 0.950 . S
C304 C290 1.377 . S
C304 C303 1.373 . S
C305 C289 1.377 . S
C305 C303 1.389 . S
C305 C306 1.524 1_554 S
C306 C305 1.524 1_556 S
C306 C307 1.397 . S
C306 C311 1.363 1_556 S
C307 H278 0.950 . S
C307 C306 1.397 . S
C307 C308 1.334 . S
C308 H279 0.950 . S
C308 C307 1.334 . S
C308 C309 1.287 . S
C309 C308 1.287 . S
C309 C310 1.524 1_556 S
C309 H312 0.999 . S
C310 H280 0.950 . S
C310 C309 1.524 1_554 S
C310 C311 1.415 . S
C311 H281 0.950 . S
C311 C306 1.363 1_554 S
C311 C310 1.415 . S
H312 C309 0.999 . S
H313 C294 0.913 . S
H314 C332 0.951 1_455 S
H315 C334 0.951 . S
H316 C336 0.950 . S
H317 C337 0.950 . S
H318 C339 0.950 . S
H319 C342 0.950 . S
H320 C343 0.950 . S
H321 C345 0.950 . S
H322 C346 0.950 . S
H323 C347 0.951 . S
H324 C349 0.951 . S
H325 C351 0.950 . S
H326 C352 0.950 1_565 S
H327 C354 0.950 . S
H328 C357 0.950 . S
H329 C358 0.950 1_565 S
H330 C360 0.950 . S
H331 C361 0.950 . S
C332 H314 0.951 1_655 S
C332 C333 1.366 . S
C332 C334 1.388 . S
C333 C332 1.366 . S
C333 C337 1.385 . S
C334 H315 0.951 . S
C334 C332 1.388 . S
C334 C335 1.366 . S
C335 C334 1.366 . S
C335 C336 1.414 . S
C335 C338 1.499 . S
C336 H316 0.950 . S
C336 C335 1.414 . S
C336 C337 1.374 . S
C337 H317 0.950 . S
C337 C333 1.385 . S
C337 C336 1.374 . S
C338 C335 1.499 . S
C338 C339 1.373 . S
C338 C340 1.389 . S
C339 H318 0.950 . S
C339 C338 1.373 . S
C339 C355 1.377 . S
C340 C338 1.389 . S
C340 C341 1.524 . S
C340 C354 1.377 . S
C341 C340 1.524 . S
C341 C342 1.397 . S
C341 C346 1.363 . S
C342 H319 0.950 . S
C342 C341 1.397 . S
C342 C343 1.334 . S
C343 H320 0.950 . S
C343 C342 1.334 . S
C343 C344 1.287 . S
C344 C343 1.287 . S
C344 C345 1.524 . S
C344 H363 0.913 . S
C345 H321 0.950 . S
C345 C344 1.524 . S
C345 C346 1.415 . S
C346 H322 0.950 . S
C346 C341 1.363 . S
C346 C345 1.415 . S
C347 H323 0.951 . S
C347 C348 1.366 . S
C347 C349 1.388 . S
C348 C347 1.366 . S
C348 C352 1.385 . S
C349 H324 0.951 . S
C349 C347 1.388 . S
C349 C350 1.366 . S
C350 C349 1.366 . S
C350 C351 1.414 . S
C350 C353 1.499 . S
C351 H325 0.950 . S
C351 C350 1.414 . S
C351 C352 1.374 . S
C352 H326 0.950 1_545 S
C352 C348 1.385 . S
C352 C351 1.374 . S
C353 C350 1.499 . S
C353 C354 1.373 . S
C353 C355 1.389 . S
C354 H327 0.950 . S
C354 C340 1.377 . S
C354 C353 1.373 . S
C355 C339 1.377 . S
C355 C353 1.389 . S
C355 C356 1.524 . S
C356 C355 1.524 . S
C356 C357 1.397 . S
C356 C361 1.363 . S
C357 H328 0.950 . S
C357 C356 1.397 . S
C357 C358 1.334 . S
C358 H329 0.950 1_545 S
C358 C357 1.334 . S
C358 C359 1.287 . S
C359 C358 1.287 . S
C359 C360 1.524 . S
C359 H362 0.999 . S
C360 H330 0.950 . S
C360 C359 1.524 . S
C360 C361 1.415 . S
C361 H331 0.950 . S
C361 C356 1.363 . S
C361 C360 1.415 . S
H362 C359 0.999 . S
H363 C344 0.913 . S
H364 C382 0.951 . S
H365 C384 0.951 . S
H366 C386 0.950 . S
H367 C387 0.950 . S
H368 C389 0.950 . S
H369 C392 0.950 . S
H370 C393 0.950 . S
H371 C395 0.950 . S
H372 C396 0.950 . S
H373 C397 0.951 . S
H374 C399 0.951 . S
H375 C401 0.950 . S
H376 C402 0.950 . S
H377 C404 0.950 . S
H378 C407 0.950 . S
H379 C408 0.950 . S
H380 C410 0.950 . S
H381 C411 0.950 . S
C382 H364 0.951 . S
C382 C383 1.366 . S
C382 C384 1.388 . S
C383 C382 1.366 . S
C383 C387 1.385 . S
C384 H365 0.951 . S
C384 C382 1.388 . S
C384 C385 1.366 . S
C385 C384 1.366 . S
C385 C386 1.414 . S
C385 C388 1.499 . S
C386 H366 0.950 . S
C386 C385 1.414 . S
C386 C387 1.374 . S
C387 H367 0.950 . S
C387 C383 1.385 . S
C387 C386 1.374 . S
C388 C385 1.499 . S
C388 C389 1.373 . S
C388 C390 1.389 . S
C389 H368 0.950 . S
C389 C388 1.373 . S
C389 C405 1.377 . S
C390 C388 1.389 . S
C390 C391 1.524 . S
C390 C404 1.377 . S
C391 C390 1.524 . S
C391 C392 1.397 . S
C391 C396 1.363 . S
C392 H369 0.950 . S
C392 C391 1.397 . S
C392 C393 1.334 . S
C393 H370 0.950 . S
C393 C392 1.334 . S
C393 C394 1.287 . S
C394 C393 1.287 . S
C394 C395 1.524 . S
C394 H413 0.913 . S
C395 H371 0.950 . S
C395 C394 1.524 . S
C395 C396 1.415 . S
C396 H372 0.950 . S
C396 C391 1.363 . S
C396 C395 1.415 . S
C397 H373 0.951 . S
C397 C398 1.366 . S
C397 C399 1.388 . S
C398 C397 1.366 . S
C398 C402 1.385 . S
C399 H374 0.951 . S
C399 C397 1.388 . S
C399 C400 1.366 . S
C400 C399 1.366 . S
C400 C401 1.414 . S
C400 C403 1.499 . S
C401 H375 0.950 . S
C401 C400 1.414 . S
C401 C402 1.374 . S
C402 H376 0.950 . S
C402 C398 1.385 . S
C402 C401 1.374 . S
C403 C400 1.499 . S
C403 C404 1.373 . S
C403 C405 1.389 . S
C404 H377 0.950 . S
C404 C390 1.377 . S
C404 C403 1.373 . S
C405 C389 1.377 . S
C405 C403 1.389 . S
C405 C406 1.524 . S
C406 C405 1.524 . S
C406 C407 1.397 . S
C406 C411 1.363 . S
C407 H378 0.950 . S
C407 C406 1.397 . S
C407 C408 1.334 . S
C408 H379 0.950 . S
C408 C407 1.334 . S
C408 C409 1.287 . S
C409 C408 1.287 . S
C409 C410 1.524 . S
C409 H412 0.999 . S
C410 H380 0.950 . S
C410 C409 1.524 . S
C410 C411 1.415 . S
C411 H381 0.950 . S
C411 C406 1.363 . S
C411 C410 1.415 . S
H412 C409 0.999 . S
H413 C394 0.913 . S
H414 C432 0.970 . S
H415 C434 0.951 . S
H416 C436 0.950 . S
H417 C437 0.950 . S
H418 C439 0.950 . S
H419 C442 0.950 . S
H420 C443 0.950 . S
H421 C445 0.950 1_655 S
H422 C446 0.950 . S
H423 C447 0.951 . S
H424 C449 0.951 . S
H425 C451 0.950 . S
H426 C452 0.950 . S
H427 C454 0.950 . S
H428 C457 0.950 . S
H429 C458 0.950 . S
H430 C460 0.950 . S
H431 C461 0.950 . S
C432 H414 0.970 . S
C432 C433 1.361 1_655 S
C432 C434 1.374 1_655 S
C433 C432 1.361 1_455 S
C433 C437 1.385 . S
C434 H415 0.951 . S
C434 C432 1.374 1_455 S
C434 C435 1.366 . S
C435 C434 1.366 . S
C435 C436 1.414 . S
C435 C438 1.499 . S
C436 H416 0.950 . S
C436 C435 1.414 . S
C436 C437 1.374 . S
C437 H417 0.950 . S
C437 C433 1.385 . S
C437 C436 1.374 . S
C438 C435 1.499 . S
C438 C439 1.373 . S
C438 C440 1.389 . S
C439 H418 0.950 . S
C439 C438 1.373 . S
C439 C455 1.377 . S
C440 C438 1.389 . S
C440 C441 1.524 . S
C440 C454 1.377 . S
C441 C440 1.524 . S
C441 C442 1.397 . S
C441 C446 1.363 . S
C442 H419 0.950 . S
C442 C441 1.397 . S
C442 C443 1.334 . S
C443 H420 0.950 . S
C443 C442 1.334 . S
C443 C444 1.287 . S
C444 C443 1.287 . S
C444 C445 1.524 . S
C444 H463 0.913 1_455 S
C445 H421 0.950 1_455 S
C445 C444 1.524 . S
C445 C446 1.415 . S
C446 H422 0.950 . S
C446 C441 1.363 . S
C446 C445 1.415 . S
C447 H423 0.951 . S
C447 C448 1.366 . S
C447 C449 1.388 . S
C448 C447 1.366 . S
C448 C452 1.385 1_565 S
C449 H424 0.951 . S
C449 C447 1.388 . S
C449 C450 1.366 . S
C450 C449 1.366 . S
C450 C451 1.414 . S
C450 C453 1.499 . S
C451 H425 0.950 . S
C451 C450 1.414 . S
C451 C452 1.374 1_565 S
C452 H426 0.950 . S
C452 C448 1.385 1_545 S
C452 C451 1.374 1_545 S
C453 C450 1.499 . S
C453 C454 1.373 . S
C453 C455 1.389 . S
C454 H427 0.950 . S
C454 C440 1.377 . S
C454 C453 1.373 . S
C455 C439 1.377 . S
C455 C453 1.389 . S
C455 C456 1.524 . S
C456 C455 1.524 . S
C456 C457 1.397 . S
C456 C461 1.363 . S
C457 H428 0.950 . S
C457 C456 1.397 . S
C457 C458 1.334 . S
C458 H429 0.950 . S
C458 C457 1.334 . S
C458 C459 1.287 . S
C459 C458 1.287 . S
C459 C460 1.524 . S
C459 H462 0.999 . S
C460 H430 0.950 . S
C460 C459 1.524 . S
C460 C461 1.415 . S
C461 H431 0.950 . S
C461 C456 1.363 . S
C461 C460 1.415 . S
H462 C459 0.999 . S
H463 C444 0.913 1_655 S
H464 C482 0.951 . S
H465 C484 0.951 . S
H466 C486 0.950 . S
H467 C487 0.950 . S
H468 C489 0.950 . S
H469 C492 0.950 . S
H470 C493 0.950 . S
H471 C495 0.950 . S
H472 C496 0.950 . S
H473 C497 0.951 . S
H474 C499 0.951 . S
H475 C501 0.950 . S
H476 C502 0.950 . S
H477 C504 0.950 . S
H478 C507 0.950 . S
H479 C508 0.950 . S
H480 C510 0.950 . S
H481 C511 0.950 . S
C482 H464 0.951 . S
C482 C483 1.366 . S
C482 C484 1.388 . S
C483 C482 1.366 . S
C483 C487 1.385 . S
C484 H465 0.951 . S
C484 C482 1.388 . S
C484 C485 1.366 . S
C485 C484 1.366 . S
C485 C486 1.414 . S
C485 C488 1.499 . S
C486 H466 0.950 . S
C486 C485 1.414 . S
C486 C487 1.374 . S
C487 H467 0.950 . S
C487 C483 1.385 . S
C487 C486 1.374 . S
C488 C485 1.499 . S
C488 C489 1.373 . S
C488 C490 1.389 . S
C489 H468 0.950 . S
C489 C488 1.373 . S
C489 C505 1.377 . S
C490 C488 1.389 . S
C490 C491 1.524 . S
C490 C504 1.377 . S
C491 C490 1.524 . S
C491 C492 1.397 . S
C491 C496 1.363 . S
C492 H469 0.950 . S
C492 C491 1.397 . S
C492 C493 1.334 . S
C493 H470 0.950 . S
C493 C492 1.334 . S
C493 C494 1.287 . S
C494 C493 1.287 . S
C494 C495 1.524 . S
C494 H513 0.913 . S
C495 H471 0.950 . S
C495 C494 1.524 . S
C495 C496 1.415 . S
C496 H472 0.950 . S
C496 C491 1.363 . S
C496 C495 1.415 . S
C497 H473 0.951 . S
C497 C498 1.366 . S
C497 C499 1.388 . S
C498 C497 1.366 . S
C498 C502 1.385 . S
C499 H474 0.951 . S
C499 C497 1.388 . S
C499 C500 1.366 . S
C500 C499 1.366 . S
C500 C501 1.414 . S
C500 C503 1.499 . S
C501 H475 0.950 . S
C501 C500 1.414 . S
C501 C502 1.374 . S
C502 H476 0.950 . S
C502 C498 1.385 . S
C502 C501 1.374 . S
C503 C500 1.499 . S
C503 C504 1.373 . S
C503 C505 1.389 . S
C504 H477 0.950 . S
C504 C490 1.377 . S
C504 C503 1.373 . S
C505 C489 1.377 . S
C505 C503 1.389 . S
C505 C506 1.524 . S
C506 C505 1.524 . S
C506 C507 1.397 . S
C506 C511 1.363 . S
C507 H478 0.950 . S
C507 C506 1.397 . S
C507 C508 1.334 . S
C508 H479 0.950 . S
C508 C507 1.334 . S
C508 C509 1.287 . S
C509 C508 1.287 . S
C509 C510 1.524 . S
C509 H512 0.999 . S
C510 H480 0.950 . S
C510 C509 1.524 . S
C510 C511 1.415 . S
C511 H481 0.950 . S
C511 C506 1.363 . S
C511 C510 1.415 . S
H512 C509 0.999 . S
H513 C494 0.913 . S
H514 C532 0.951 . S
H515 C534 0.951 . S
H516 C536 0.950 . S
H517 C537 0.950 . S
H518 C539 0.950 . S
H519 C542 0.950 . S
H520 C543 0.950 . S
H521 C545 0.950 . S
H522 C546 0.950 . S
H523 C547 0.951 . S
H524 C549 0.951 . S
H525 C551 0.950 . S
H526 C552 0.950 . S
H527 C554 0.950 . S
H528 C557 0.950 . S
H529 C558 0.950 . S
H530 C560 0.950 . S
H531 C561 0.950 . S
C532 H514 0.951 . S
C532 C533 1.366 . S
C532 C534 1.388 . S
C533 C532 1.366 . S
C533 C537 1.385 . S
C534 H515 0.951 . S
C534 C532 1.388 . S
C534 C535 1.366 . S
C535 C534 1.366 . S
C535 C536 1.414 . S
C535 C538 1.499 . S
C536 H516 0.950 . S
C536 C535 1.414 . S
C536 C537 1.374 . S
C537 H517 0.950 . S
C537 C533 1.385 . S
C537 C536 1.374 . S
C538 C535 1.499 . S
C538 C539 1.373 . S
C538 C540 1.389 . S
C539 H518 0.950 . S
C539 C538 1.373 . S
C539 C555 1.377 . S
C540 C538 1.389 . S
C540 C541 1.524 . S
C540 C554 1.377 . S
C541 C540 1.524 . S
C541 C542 1.397 . S
C541 C546 1.363 . S
C542 H519 0.950 . S
C542 C541 1.397 . S
C542 C543 1.334 . S
C543 H520 0.950 . S
C543 C542 1.334 . S
C543 C544 1.287 . S
C544 C543 1.287 . S
C544 C545 1.524 . S
C544 H563 0.913 . S
C545 H521 0.950 . S
C545 C544 1.524 . S
C545 C546 1.415 . S
C546 H522 0.950 . S
C546 C541 1.363 . S
C546 C545 1.415 . S
C547 H523 0.951 . S
C547 C548 1.366 . S
C547 C549 1.388 . S
C548 C547 1.366 . S
C548 C552 1.385 . S
C549 H524 0.951 . S
C549 C547 1.388 . S
C549 C550 1.366 . S
C550 C549 1.366 . S
C550 C551 1.414 . S
C550 C553 1.499 . S
C551 H525 0.950 . S
C551 C550 1.414 . S
C551 C552 1.374 . S
C552 H526 0.950 . S
C552 C548 1.385 . S
C552 C551 1.374 . S
C553 C550 1.499 . S
C553 C554 1.373 . S
C553 C555 1.389 . S
C554 H527 0.950 . S
C554 C540 1.377 . S
C554 C553 1.373 . S
C555 C539 1.377 . S
C555 C553 1.389 . S
C555 C556 1.524 . S
C556 C555 1.524 . S
C556 C557 1.397 . S
C556 C561 1.363 . S
C557 H528 0.950 . S
C557 C556 1.397 . S
C557 C558 1.334 . S
C558 H529 0.950 . S
C558 C557 1.334 . S
C558 C559 1.287 . S
C559 C558 1.287 . S
C559 C560 1.524 . S
C559 H562 0.999 . S
C560 H530 0.950 . S
C560 C559 1.524 . S
C560 C561 1.415 . S
C561 H531 0.950 . S
C561 C556 1.363 . S
C561 C560 1.415 . S
H562 C559 0.999 . S
H563 C544 0.913 . S
H564 C582 0.951 . S
H565 C584 0.951 . S
H566 C586 0.950 . S
H567 C587 0.950 . S
H568 C589 0.950 . S
H569 C592 0.950 . S
H570 C593 0.950 . S
H571 C595 0.950 . S
H572 C596 0.950 . S
H573 C597 0.951 . S
H574 C599 0.951 . S
H575 C601 0.950 . S
H576 C602 0.950 . S
H577 C604 0.950 . S
H578 C607 0.950 . S
H579 C608 0.950 . S
H580 C610 0.950 . S
H581 C611 0.950 . S
C582 H564 0.951 . S
C582 C583 1.366 . S
C582 C584 1.388 . S
C583 C582 1.366 . S
C583 C587 1.385 . S
C584 H565 0.951 . S
C584 C582 1.388 . S
C584 C585 1.366 . S
C585 C584 1.366 . S
C585 C586 1.414 . S
C585 C588 1.499 . S
C586 H566 0.950 . S
C586 C585 1.414 . S
C586 C587 1.374 . S
C587 H567 0.950 . S
C587 C583 1.385 . S
C587 C586 1.374 . S
C588 C585 1.499 . S
C588 C589 1.373 . S
C588 C590 1.389 . S
C589 H568 0.950 . S
C589 C588 1.373 . S
C589 C605 1.377 . S
C590 C588 1.389 . S
C590 C591 1.524 . S
C590 C604 1.377 . S
C591 C590 1.524 . S
C591 C592 1.397 . S
C591 C596 1.363 . S
C592 H569 0.950 . S
C592 C591 1.397 . S
C592 C593 1.334 . S
C593 H570 0.950 . S
C593 C592 1.334 . S
C593 C594 1.287 . S
C594 C593 1.287 . S
C594 C595 1.524 . S
C594 H613 0.913 . S
C595 H571 0.950 . S
C595 C594 1.524 . S
C595 C596 1.415 . S
C596 H572 0.950 . S
C596 C591 1.363 . S
C596 C595 1.415 . S
C597 H573 0.951 . S
C597 C598 1.366 . S
C597 C599 1.388 . S
C598 C597 1.366 . S
C598 C602 1.385 . S
C599 H574 0.951 . S
C599 C597 1.388 . S
C599 C600 1.366 . S
C600 C599 1.366 . S
C600 C601 1.414 . S
C600 C603 1.499 . S
C601 H575 0.950 . S
C601 C600 1.414 . S
C601 C602 1.374 . S
C602 H576 0.950 . S
C602 C598 1.385 . S
C602 C601 1.374 . S
C603 C600 1.499 . S
C603 C604 1.373 . S
C603 C605 1.389 . S
C604 H577 0.950 . S
C604 C590 1.377 . S
C604 C603 1.373 . S
C605 C589 1.377 . S
C605 C603 1.389 . S
C605 C606 1.524 . S
C606 C605 1.524 . S
C606 C607 1.397 . S
C606 C611 1.363 . S
C607 H578 0.950 . S
C607 C606 1.397 . S
C607 C608 1.334 . S
C608 H579 0.950 . S
C608 C607 1.334 . S
C608 C609 1.287 . S
C609 C608 1.287 . S
C609 C610 1.524 . S
C609 H612 0.999 . S
C610 H580 0.950 . S
C610 C609 1.524 . S
C610 C611 1.415 . S
C611 H581 0.950 . S
C611 C606 1.363 . S
C611 C610 1.415 . S
H612 C609 0.999 . S
H613 C594 0.913 . S
H614 C632 0.951 . S
H615 C634 0.951 . S
H616 C636 0.950 . S
H617 C637 0.950 . S
H618 C639 0.950 . S
H619 C642 0.950 . S
H620 C643 0.950 . S
H621 C645 0.950 . S
H622 C646 0.950 . S
H623 C647 0.951 . S
H624 C649 0.951 . S
H625 C651 0.950 . S
H626 C652 0.950 . S
H627 C654 0.950 . S
H628 C657 0.950 . S
H629 C658 0.950 . S
H630 C660 0.950 . S
H631 C661 0.950 . S
C632 H614 0.951 . S
C632 C633 1.366 . S
C632 C634 1.388 . S
C633 C632 1.366 . S
C633 C637 1.385 . S
C634 H615 0.951 . S
C634 C632 1.388 . S
C634 C635 1.366 . S
C635 C634 1.366 . S
C635 C636 1.414 . S
C635 C638 1.499 . S
C636 H616 0.950 . S
C636 C635 1.414 . S
C636 C637 1.374 . S
C637 H617 0.950 . S
C637 C633 1.385 . S
C637 C636 1.374 . S
C638 C635 1.499 . S
C638 C639 1.373 1_556 S
C638 C640 1.389 . S
C639 H618 0.950 . S
C639 C638 1.373 1_554 S
C639 C655 1.377 . S
C640 C638 1.389 . S
C640 C641 1.524 . S
C640 C654 1.377 1_556 S
C641 C640 1.524 . S
C641 C642 1.397 . S
C641 C646 1.363 . S
C642 H619 0.950 . S
C642 C641 1.397 . S
C642 C643 1.334 . S
C643 H620 0.950 . S
C643 C642 1.334 . S
C643 C644 1.287 . S
C644 C643 1.287 . S
C644 C645 1.524 . S
C644 H663 0.913 . S
C645 H621 0.950 . S
C645 C644 1.524 . S
C645 C646 1.415 . S
C646 H622 0.950 . S
C646 C641 1.363 . S
C646 C645 1.415 . S
C647 H623 0.951 . S
C647 C648 1.366 . S
C647 C649 1.388 . S
C648 C647 1.366 . S
C648 C652 1.385 . S
C649 H624 0.951 . S
C649 C647 1.388 . S
C649 C650 1.366 . S
C650 C649 1.366 . S
C650 C651 1.414 . S
C650 C653 1.499 . S
C651 H625 0.950 . S
C651 C650 1.414 . S
C651 C652 1.374 . S
C652 H626 0.950 . S
C652 C648 1.385 . S
C652 C651 1.374 . S
C653 C650 1.499 . S
C653 C654 1.373 . S
C653 C655 1.389 . S
C654 H627 0.950 . S
C654 C640 1.377 1_554 S
C654 C653 1.373 . S
C655 C639 1.377 . S
C655 C653 1.389 . S
C655 C656 1.524 . S
C656 C655 1.524 . S
C656 C657 1.397 . S
C656 C661 1.363 . S
C657 H628 0.950 . S
C657 C656 1.397 . S
C657 C658 1.334 . S
C658 H629 0.950 . S
C658 C657 1.334 . S
C658 C659 1.287 . S
C659 C658 1.287 . S
C659 C660 1.524 . S
C659 H662 0.999 . S
C660 H630 0.950 . S
C660 C659 1.524 . S
C660 C661 1.415 . S
C661 H631 0.950 . S
C661 C656 1.363 . S
C661 C660 1.415 . S
H662 C659 0.999 . S
H663 C644 0.913 . S
H664 C682 0.951 . S
H665 C684 0.951 . S
H666 C686 0.950 . S
H667 C687 0.950 . S
H668 C689 0.950 . S
H669 C692 0.950 . S
H670 C693 0.950 . S
H671 C695 0.950 . S
H672 C696 0.950 . S
H673 C697 0.951 . S
H674 C699 0.951 . S
H675 C701 0.950 . S
H676 C702 0.950 . S
H677 C704 0.950 . S
H678 C707 0.950 . S
H679 C708 0.950 . S
H680 C710 0.950 . S
H681 C711 0.950 . S
C682 H664 0.951 . S
C682 C683 1.366 . S
C682 C684 1.388 . S
C683 C682 1.366 . S
C683 C687 1.385 . S
C684 H665 0.951 . S
C684 C682 1.388 . S
C684 C685 1.366 . S
C685 C684 1.366 . S
C685 C686 1.414 . S
C685 C688 1.499 . S
C686 H666 0.950 . S
C686 C685 1.414 . S
C686 C687 1.374 . S
C687 H667 0.950 . S
C687 C683 1.385 . S
C687 C686 1.374 . S
C688 C685 1.499 . S
C688 C689 1.373 . S
C688 C690 1.389 . S
C689 H668 0.950 . S
C689 C688 1.373 . S
C689 C705 1.377 . S
C690 C688 1.389 . S
C690 C691 1.524 . S
C690 C704 1.377 . S
C691 C690 1.524 . S
C691 C692 1.397 . S
C691 C696 1.363 . S
C692 H669 0.950 . S
C692 C691 1.397 . S
C692 C693 1.334 . S
C693 H670 0.950 . S
C693 C692 1.334 . S
C693 C694 1.287 . S
C694 C693 1.287 . S
C694 C695 1.524 . S
C694 H713 0.913 . S
C695 H671 0.950 . S
C695 C694 1.524 . S
C695 C696 1.415 . S
C696 H672 0.950 . S
C696 C691 1.363 . S
C696 C695 1.415 . S
C697 H673 0.951 . S
C697 C698 1.366 . S
C697 C699 1.388 . S
C698 C697 1.366 . S
C698 C702 1.385 . S
C699 H674 0.951 . S
C699 C697 1.388 . S
C699 C700 1.366 . S
C700 C699 1.366 . S
C700 C701 1.414 . S
C700 C703 1.499 . S
C701 H675 0.950 . S
C701 C700 1.414 . S
C701 C702 1.374 . S
C702 H676 0.950 . S
C702 C698 1.385 . S
C702 C701 1.374 . S
C703 C700 1.499 . S
C703 C704 1.373 . S
C703 C705 1.389 . S
C704 H677 0.950 . S
C704 C690 1.377 . S
C704 C703 1.373 . S
C705 C689 1.377 . S
C705 C703 1.389 . S
C705 C706 1.524 . S
C706 C705 1.524 . S
C706 C707 1.397 . S
C706 C711 1.363 . S
C707 H678 0.950 . S
C707 C706 1.397 . S
C707 C708 1.334 . S
C708 H679 0.950 . S
C708 C707 1.334 . S
C708 C709 1.287 . S
C709 C708 1.287 . S
C709 C710 1.524 . S
C709 H712 0.999 . S
C710 H680 0.950 . S
C710 C709 1.524 . S
C710 C711 1.415 . S
C711 H681 0.950 . S
C711 C706 1.363 . S
C711 C710 1.415 . S
H712 C709 0.999 . S
H713 C694 0.913 . S
H714 C732 0.951 . S
H715 C734 0.951 . S
H716 C736 0.950 . S
H717 C737 0.950 . S
H718 C739 0.950 . S
H719 C742 0.950 . S
H720 C743 0.950 . S
H721 C745 0.950 . S
H722 C746 0.950 . S
H723 C747 0.951 . S
H724 C749 0.951 . S
H725 C751 0.950 . S
H726 C752 0.950 . S
H727 C754 0.950 . S
H728 C757 0.950 1_556 S
H729 C758 0.950 . S
H730 C760 0.950 . S
H731 C761 0.950 . S
C732 H714 0.951 . S
C732 C733 1.366 . S
C732 C734 1.388 . S
C733 C732 1.366 . S
C733 C737 1.385 . S
C734 H715 0.951 . S
C734 C732 1.388 . S
C734 C735 1.366 . S
C735 C734 1.366 . S
C735 C736 1.414 . S
C735 C738 1.499 . S
C736 H716 0.950 . S
C736 C735 1.414 . S
C736 C737 1.374 . S
C737 H717 0.950 . S
C737 C733 1.385 . S
C737 C736 1.374 . S
C738 C735 1.499 . S
C738 C739 1.373 . S
C738 C740 1.389 . S
C739 H718 0.950 . S
C739 C738 1.373 . S
C739 C755 1.377 . S
C740 C738 1.389 . S
C740 C741 1.524 1_554 S
C740 C754 1.377 1_554 S
C741 C740 1.524 1_556 S
C741 C742 1.397 1_556 S
C741 C746 1.363 . S
C742 H719 0.950 . S
C742 C741 1.397 1_554 S
C742 C743 1.334 . S
C743 H720 0.950 . S
C743 C742 1.334 . S
C743 C744 1.287 1_554 S
C744 C743 1.287 1_556 S
C744 C745 1.524 . S
C744 H763 0.913 . S
C745 H721 0.950 . S
C745 C744 1.524 . S
C745 C746 1.415 . S
C746 H722 0.950 . S
C746 C741 1.363 . S
C746 C745 1.415 . S
C747 H723 0.951 . S
C747 C748 1.366 . S
C747 C749 1.388 . S
C748 C747 1.366 . S
C748 C752 1.385 . S
C749 H724 0.951 . S
C749 C747 1.388 . S
C749 C750 1.366 . S
C750 C749 1.366 . S
C750 C751 1.414 . S
C750 C753 1.499 . S
C751 H725 0.950 . S
C751 C750 1.414 . S
C751 C752 1.374 . S
C752 H726 0.950 . S
C752 C748 1.385 . S
C752 C751 1.374 . S
C753 C750 1.499 . S
C753 C754 1.373 . S
C753 C755 1.389 1_556 S
C754 H727 0.950 . S
C754 C740 1.377 1_556 S
C754 C753 1.373 . S
C755 C739 1.377 . S
C755 C753 1.389 1_554 S
C755 C756 1.524 . S
C756 C755 1.524 . S
C756 C757 1.397 . S
C756 C761 1.363 . S
C757 H728 0.950 1_554 S
C757 C756 1.397 . S
C757 C758 1.334 . S
C758 H729 0.950 . S
C758 C757 1.334 . S
C758 C759 1.287 . S
C759 C758 1.287 . S
C759 C760 1.524 . S
C759 H762 0.999 . S
C760 H730 0.950 . S
C760 C759 1.524 . S
C760 C761 1.415 . S
C761 H731 0.950 . S
C761 C756 1.363 . S
C761 C760 1.415 . S
H762 C759 0.999 . S
H763 C744 0.913 . S
H764 C782 0.951 . S
H765 C784 0.951 . S
H766 C786 0.950 . S
H767 C787 0.950 . S
H768 C789 0.950 . S
H769 C792 0.950 . S
H770 C793 0.950 . S
H771 C795 0.950 . S
H772 C796 0.950 . S
H773 C797 0.951 . S
H774 C799 0.951 . S
H775 C801 0.950 . S
H776 C802 0.950 . S
H777 C804 0.950 . S
H778 C807 0.950 . S
H779 C808 0.950 . S
H780 C810 0.950 . S
H781 C811 0.950 . S
C782 H764 0.951 . S
C782 C783 1.366 . S
C782 C784 1.388 . S
C783 C782 1.366 . S
C783 C787 1.385 . S
C784 H765 0.951 . S
C784 C782 1.388 . S
C784 C785 1.366 . S
C785 C784 1.366 . S
C785 C786 1.414 . S
C785 C788 1.499 . S
C786 H766 0.950 . S
C786 C785 1.414 . S
C786 C787 1.374 . S
C787 H767 0.950 . S
C787 C783 1.385 . S
C787 C786 1.374 . S
C788 C785 1.499 . S
C788 C789 1.373 . S
C788 C790 1.389 . S
C789 H768 0.950 . S
C789 C788 1.373 . S
C789 C805 1.377 . S
C790 C788 1.389 . S
C790 C791 1.524 . S
C790 C804 1.377 . S
C791 C790 1.524 . S
C791 C792 1.397 . S
C791 C796 1.363 . S
C792 H769 0.950 . S
C792 C791 1.397 . S
C792 C793 1.334 . S
C793 H770 0.950 . S
C793 C792 1.334 . S
C793 C794 1.287 . S
C794 C793 1.287 . S
C794 C795 1.524 . S
C794 H813 0.913 . S
C795 H771 0.950 . S
C795 C794 1.524 . S
C795 C796 1.415 . S
C796 H772 0.950 . S
C796 C791 1.363 . S
C796 C795 1.415 . S
C797 H773 0.951 . S
C797 C798 1.366 . S
C797 C799 1.388 . S
C798 C797 1.366 . S
C798 C802 1.385 . S
C799 H774 0.951 . S
C799 C797 1.388 . S
C799 C800 1.366 . S
C800 C799 1.366 . S
C800 C801 1.414 . S
C800 C803 1.499 . S
C801 H775 0.950 . S
C801 C800 1.414 . S
C801 C802 1.374 . S
C802 H776 0.950 . S
C802 C798 1.385 . S
C802 C801 1.374 . S
C803 C800 1.499 . S
C803 C804 1.373 . S
C803 C805 1.389 . S
C804 H777 0.950 . S
C804 C790 1.377 . S
C804 C803 1.373 . S
C805 C789 1.377 . S
C805 C803 1.389 . S
C805 C806 1.524 . S
C806 C805 1.524 . S
C806 C807 1.397 . S
C806 C811 1.363 . S
C807 H778 0.950 . S
C807 C806 1.397 . S
C807 C808 1.334 . S
C808 H779 0.950 . S
C808 C807 1.334 . S
C808 C809 1.287 . S
C809 C808 1.287 . S
C809 C810 1.524 . S
C809 H812 0.999 . S
C810 H780 0.950 . S
C810 C809 1.524 . S
C810 C811 1.415 . S
C811 H781 0.950 . S
C811 C806 1.363 . S
C811 C810 1.415 . S
H812 C809 0.999 . S
H813 C794 0.913 . S
H814 C832 0.951 . S
H815 C834 0.951 . S
H816 C836 0.950 . S
H817 C837 0.950 . S
H818 C839 0.950 . S
H819 C842 0.950 . S
H820 C843 0.950 . S
H821 C845 0.950 . S
H822 C846 0.950 . S
H823 C847 0.951 . S
H824 C849 0.951 . S
H825 C851 0.950 . S
H826 C852 0.950 . S
H827 C854 0.950 . S
H828 C857 0.950 . S
H829 C858 0.950 . S
H830 C860 0.950 . S
H831 C861 0.950 . S
C832 H814 0.951 . S
C832 C833 1.366 . S
C832 C834 1.388 . S
C833 C832 1.366 . S
C833 C837 1.385 . S
C834 H815 0.951 . S
C834 C832 1.388 . S
C834 C835 1.366 . S
C835 C834 1.366 . S
C835 C836 1.414 . S
C835 C838 1.499 . S
C836 H816 0.950 . S
C836 C835 1.414 . S
C836 C837 1.374 . S
C837 H817 0.950 . S
C837 C833 1.385 . S
C837 C836 1.374 . S
C838 C835 1.499 . S
C838 C839 1.373 . S
C838 C840 1.389 . S
C839 H818 0.950 . S
C839 C838 1.373 . S
C839 C855 1.377 . S
C840 C838 1.389 . S
C840 C841 1.524 . S
C840 C854 1.377 . S
C841 C840 1.524 . S
C841 C842 1.397 . S
C841 C846 1.363 . S
C842 H819 0.950 . S
C842 C841 1.397 . S
C842 C843 1.334 . S
C843 H820 0.950 . S
C843 C842 1.334 . S
C843 C844 1.287 . S
C844 C843 1.287 . S
C844 C845 1.524 . S
C844 H863 0.913 . S
C845 H821 0.950 . S
C845 C844 1.524 . S
C845 C846 1.415 . S
C846 H822 0.950 . S
C846 C841 1.363 . S
C846 C845 1.415 . S
C847 H823 0.951 . S
C847 C848 1.366 . S
C847 C849 1.388 . S
C848 C847 1.366 . S
C848 C852 1.385 . S
C849 H824 0.951 . S
C849 C847 1.388 . S
C849 C850 1.366 . S
C850 C849 1.366 . S
C850 C851 1.414 . S
C850 C853 1.499 . S
C851 H825 0.950 . S
C851 C850 1.414 . S
C851 C852 1.374 . S
C852 H826 0.950 . S
C852 C848 1.385 . S
C852 C851 1.374 . S
C853 C850 1.499 . S
C853 C854 1.373 . S
C853 C855 1.389 . S
C854 H827 0.950 . S
C854 C840 1.377 . S
C854 C853 1.373 . S
C855 C839 1.377 . S
C855 C853 1.389 . S
C855 C856 1.524 . S
C856 C855 1.524 . S
C856 C857 1.397 . S
C856 C861 1.363 . S
C857 H828 0.950 . S
C857 C856 1.397 . S
C857 C858 1.334 . S
C858 H829 0.950 . S
C858 C857 1.334 . S
C858 C859 1.287 . S
C859 C858 1.287 . S
C859 C860 1.524 . S
C859 H862 0.999 . S
C860 H830 0.950 . S
C860 C859 1.524 . S
C860 C861 1.415 . S
C861 H831 0.950 . S
C861 C856 1.363 . S
C861 C860 1.415 . S
H862 C859 0.999 . S
H863 C844 0.913 . S
H864 C882 0.951 . S
H865 C884 0.951 . S
H866 C886 0.950 . S
H867 C887 0.950 . S
H868 C889 0.950 . S
H869 C892 0.950 . S
H870 C893 0.950 . S
H871 C895 0.950 . S
H872 C896 0.950 . S
H873 C897 0.951 . S
H874 C899 0.951 . S
H875 C901 0.950 . S
H876 C902 0.950 . S
H877 C904 0.950 . S
H878 C907 0.950 . S
H879 C908 0.950 1_545 S
H880 C910 0.950 . S
H881 C911 0.950 . S
C882 H864 0.951 . S
C882 C883 1.366 . S
C882 C884 1.388 . S
C883 C882 1.366 . S
C883 C887 1.385 . S
C884 H865 0.951 . S
C884 C882 1.388 . S
C884 C885 1.366 . S
C885 C884 1.366 . S
C885 C886 1.414 . S
C885 C888 1.499 . S
C886 H866 0.950 . S
C886 C885 1.414 . S
C886 C887 1.374 . S
C887 H867 0.950 . S
C887 C883 1.385 . S
C887 C886 1.374 . S
C888 C885 1.499 . S
C888 C889 1.373 . S
C888 C890 1.389 . S
C889 H868 0.950 . S
C889 C888 1.373 . S
C889 C905 1.377 . S
C890 C888 1.389 . S
C890 C891 1.524 . S
C890 C904 1.377 . S
C891 C890 1.524 . S
C891 C892 1.397 . S
C891 C896 1.363 . S
C892 H869 0.950 . S
C892 C891 1.397 . S
C892 C893 1.334 . S
C893 H870 0.950 . S
C893 C892 1.334 . S
C893 C894 1.287 . S
C894 C893 1.287 . S
C894 C895 1.524 . S
C894 H913 0.913 . S
C895 H871 0.950 . S
C895 C894 1.524 . S
C895 C896 1.415 . S
C896 H872 0.950 . S
C896 C891 1.363 . S
C896 C895 1.415 . S
C897 H873 0.951 . S
C897 C898 1.366 . S
C897 C899 1.388 . S
C898 C897 1.366 . S
C898 C902 1.385 . S
C899 H874 0.951 . S
C899 C897 1.388 . S
C899 C900 1.366 . S
C900 C899 1.366 . S
C900 C901 1.414 . S
C900 C903 1.499 . S
C901 H875 0.950 . S
C901 C900 1.414 . S
C901 C902 1.374 . S
C902 H876 0.950 . S
C902 C898 1.385 . S
C902 C901 1.374 . S
C903 C900 1.499 . S
C903 C904 1.373 . S
C903 C905 1.389 . S
C904 H877 0.950 . S
C904 C890 1.377 . S
C904 C903 1.373 . S
C905 C889 1.377 . S
C905 C903 1.389 . S
C905 C906 1.524 . S
C906 C905 1.524 . S
C906 C907 1.397 . S
C906 C911 1.363 . S
C907 H878 0.950 . S
C907 C906 1.397 . S
C907 C908 1.334 . S
C908 H879 0.950 1_565 S
C908 C907 1.334 . S
C908 C909 1.287 . S
C909 C908 1.287 . S
C909 C910 1.524 . S
C909 H912 0.999 1_565 S
C910 H880 0.950 . S
C910 C909 1.524 . S
C910 C911 1.415 . S
C911 H881 0.950 . S
C911 C906 1.363 . S
C911 C910 1.415 . S
H912 C909 0.999 1_545 S
H913 C894 0.913 . S
H914 C932 0.951 . S
H915 C934 0.951 . S
H916 C936 0.950 . S
H917 C937 0.950 . S
H918 C939 0.950 . S
H919 C942 0.950 1_554 S
H920 C943 0.950 . S
H921 C945 0.950 . S
H922 C946 0.950 . S
H923 C947 0.951 . S
H924 C949 0.951 . S
H925 C951 0.950 . S
H926 C952 0.950 . S
H927 C954 0.950 . S
H928 C957 0.950 . S
H929 C958 0.950 . S
H930 C960 0.950 . S
H931 C961 0.950 . S
C932 H914 0.951 . S
C932 C933 1.366 . S
C932 C934 1.388 . S
C933 C932 1.366 . S
C933 C937 1.385 . S
C934 H915 0.951 . S
C934 C932 1.388 . S
C934 C935 1.366 . S
C935 C934 1.366 . S
C935 C936 1.414 . S
C935 C938 1.499 . S
C936 H916 0.950 . S
C936 C935 1.414 . S
C936 C937 1.374 . S
C937 H917 0.950 . S
C937 C933 1.385 . S
C937 C936 1.374 . S
C938 C935 1.499 . S
C938 C939 1.373 . S
C938 C940 1.389 . S
C939 H918 0.950 . S
C939 C938 1.373 . S
C939 C955 1.377 . S
C940 C938 1.389 . S
C940 C941 1.524 . S
C940 C954 1.377 . S
C941 C940 1.524 . S
C941 C942 1.397 1_554 S
C941 C946 1.363 . S
C942 H919 0.950 1_556 S
C942 C941 1.397 1_556 S
C942 C943 1.334 . S
C943 H920 0.950 . S
C943 C942 1.334 . S
C943 C944 1.287 . S
C944 C943 1.287 . S
C944 C945 1.524 . S
C944 H963 0.913 . S
C945 H921 0.950 . S
C945 C944 1.524 . S
C945 C946 1.415 1_556 S
C946 H922 0.950 . S
C946 C941 1.363 . S
C946 C945 1.415 1_554 S
C947 H923 0.951 . S
C947 C948 1.366 . S
C947 C949 1.388 . S
C948 C947 1.366 . S
C948 C952 1.385 . S
C949 H924 0.951 . S
C949 C947 1.388 . S
C949 C950 1.366 . S
C950 C949 1.366 . S
C950 C951 1.414 . S
C950 C953 1.499 . S
C951 H925 0.950 . S
C951 C950 1.414 . S
C951 C952 1.374 . S
C952 H926 0.950 . S
C952 C948 1.385 . S
C952 C951 1.374 . S
C953 C950 1.499 . S
C953 C954 1.373 . S
C953 C955 1.389 . S
C954 H927 0.950 . S
C954 C940 1.377 . S
C954 C953 1.373 . S
C955 C939 1.377 . S
C955 C953 1.389 . S
C955 C956 1.524 . S
C956 C955 1.524 . S
C956 C957 1.397 . S
C956 C961 1.363 . S
C957 H928 0.950 . S
C957 C956 1.397 . S
C957 C958 1.334 . S
C958 H929 0.950 . S
C958 C957 1.334 . S
C958 C959 1.287 . S
C959 C958 1.287 . S
C959 C960 1.524 . S
C959 H962 0.999 . S
C960 H930 0.950 . S
C960 C959 1.524 . S
C960 C961 1.415 . S
C961 H931 0.950 . S
C961 C956 1.363 . S
C961 C960 1.415 . S
H962 C959 0.999 . S
H963 C944 0.913 . S
H964 C982 0.951 . S
H965 C984 0.951 . S
H966 C986 0.950 . S
H967 C987 0.950 . S
H968 C989 0.950 . S
H969 C992 0.950 . S
H970 C993 0.950 . S
H971 C995 0.950 . S
H972 C996 0.950 . S
H973 C997 0.951 . S
H974 C999 0.951 . S
H975 C1001 0.950 . S
H976 C1002 0.950 . S
H977 C1004 0.950 . S
H978 C1007 0.950 . S
H979 C1008 0.950 . S
H980 C1010 0.950 . S
H981 C1011 0.950 . S
C982 H964 0.951 . S
C982 C983 1.366 . S
C982 C984 1.388 . S
C983 C982 1.366 . S
C983 C987 1.385 . S
C984 H965 0.951 . S
C984 C982 1.388 . S
C984 C985 1.366 . S
C985 C984 1.366 . S
C985 C986 1.414 . S
C985 C988 1.499 . S
C986 H966 0.950 . S
C986 C985 1.414 . S
C986 C987 1.374 . S
C987 H967 0.950 . S
C987 C983 1.385 . S
C987 C986 1.374 . S
C988 C985 1.499 . S
C988 C989 1.373 . S
C988 C990 1.389 . S
C989 H968 0.950 . S
C989 C988 1.373 . S
C989 C1005 1.377 . S
C990 C988 1.389 . S
C990 C991 1.524 . S
C990 C1004 1.377 . S
C991 C990 1.524 . S
C991 C992 1.397 . S
C991 C996 1.363 . S
C992 H969 0.950 . S
C992 C991 1.397 . S
C992 C993 1.334 . S
C993 H970 0.950 . S
C993 C992 1.334 . S
C993 C994 1.287 . S
C994 C993 1.287 . S
C994 C995 1.524 . S
C994 H1013 0.913 . S
C995 H971 0.950 . S
C995 C994 1.524 . S
C995 C996 1.415 . S
C996 H972 0.950 . S
C996 C991 1.363 . S
C996 C995 1.415 . S
C997 H973 0.951 . S
C997 C998 1.366 . S
C997 C999 1.388 . S
C998 C997 1.366 . S
C998 C1002 1.385 . S
C999 H974 0.951 . S
C999 C997 1.388 . S
C999 C1000 1.366 . S
C1000 C999 1.366 . S
C1000 C1001 1.414 . S
C1000 C1003 1.499 . S
C1001 H975 0.950 . S
C1001 C1000 1.414 . S
C1001 C1002 1.374 . S
C1002 H976 0.950 . S
C1002 C998 1.385 . S
C1002 C1001 1.374 . S
C1003 C1000 1.499 . S
C1003 C1004 1.373 . S
C1003 C1005 1.389 . S
C1004 H977 0.950 . S
C1004 C990 1.377 . S
C1004 C1003 1.373 . S
C1005 C989 1.377 . S
C1005 C1003 1.389 . S
C1005 C1006 1.524 . S
C1006 C1005 1.524 . S
C1006 C1007 1.397 . S
C1006 C1011 1.363 . S
C1007 H978 0.950 . S
C1007 C1006 1.397 . S
C1007 C1008 1.334 . S
C1008 H979 0.950 . S
C1008 C1007 1.334 . S
C1008 C1009 1.287 . S
C1009 C1008 1.287 . S
C1009 C1010 1.524 . S
C1009 H1012 0.999 . S
C1010 H980 0.950 . S
C1010 C1009 1.524 . S
C1010 C1011 1.415 . S
C1011 H981 0.950 . S
C1011 C1006 1.363 . S
C1011 C1010 1.415 . S
H1012 C1009 0.999 . S
H1013 C994 0.913 . S
H1014 C1032 0.951 . S
H1015 C1034 0.951 . S
H1016 C1036 0.950 . S
H1017 C1037 0.950 . S
H1018 C1039 0.950 . S
H1019 C1042 0.950 . S
H1020 C1043 0.950 . S
H1021 C1045 0.950 . S
H1022 C1046 0.950 . S
H1023 C1047 0.951 . S
H1024 C1049 0.951 . S
H1025 C1051 0.950 . S
H1026 C1052 0.950 . S
H1027 C1054 0.950 . S
H1028 C1057 0.950 . S
H1029 C1058 0.950 . S
H1030 C1060 0.950 . S
H1031 C1061 0.950 . S
C1032 H1014 0.951 . S
C1032 C1033 1.366 . S
C1032 C1034 1.388 . S
C1033 C1032 1.366 . S
C1033 C1037 1.385 . S
C1034 H1015 0.951 . S
C1034 C1032 1.388 . S
C1034 C1035 1.366 . S
C1035 C1034 1.366 . S
C1035 C1036 1.414 . S
C1035 C1038 1.499 . S
C1036 H1016 0.950 . S
C1036 C1035 1.414 . S
C1036 C1037 1.374 . S
C1037 H1017 0.950 . S
C1037 C1033 1.385 . S
C1037 C1036 1.374 . S
C1038 C1035 1.499 . S
C1038 C1039 1.373 . S
C1038 C1040 1.389 . S
C1039 H1018 0.950 . S
C1039 C1038 1.373 . S
C1039 C1055 1.377 . S
C1040 C1038 1.389 . S
C1040 C1041 1.524 . S
C1040 C1054 1.377 . S
C1041 C1040 1.524 . S
C1041 C1042 1.397 . S
C1041 C1046 1.363 . S
C1042 H1019 0.950 . S
C1042 C1041 1.397 . S
C1042 C1043 1.334 . S
C1043 H1020 0.950 . S
C1043 C1042 1.334 . S
C1043 C1044 1.287 . S
C1044 C1043 1.287 . S
C1044 C1045 1.524 . S
C1044 H1063 0.913 . S
C1045 H1021 0.950 . S
C1045 C1044 1.524 . S
C1045 C1046 1.415 . S
C1046 H1022 0.950 . S
C1046 C1041 1.363 . S
C1046 C1045 1.415 . S
C1047 H1023 0.951 . S
C1047 C1048 1.366 . S
C1047 C1049 1.388 . S
C1048 C1047 1.366 . S
C1048 C1052 1.385 . S
C1049 H1024 0.951 . S
C1049 C1047 1.388 . S
C1049 C1050 1.366 . S
C1050 C1049 1.366 . S
C1050 C1051 1.414 . S
C1050 C1053 1.499 . S
C1051 H1025 0.950 . S
C1051 C1050 1.414 . S
C1051 C1052 1.374 . S
C1052 H1026 0.950 . S
C1052 C1048 1.385 . S
C1052 C1051 1.374 . S
C1053 C1050 1.499 . S
C1053 C1054 1.373 . S
C1053 C1055 1.389 . S
C1054 H1027 0.950 . S
C1054 C1040 1.377 . S
C1054 C1053 1.373 . S
C1055 C1039 1.377 . S
C1055 C1053 1.389 . S
C1055 C1056 1.524 . S
C1056 C1055 1.524 . S
C1056 C1057 1.397 . S
C1056 C1061 1.363 . S
C1057 H1028 0.950 . S
C1057 C1056 1.397 . S
C1057 C1058 1.334 . S
C1058 H1029 0.950 . S
C1058 C1057 1.334 . S
C1058 C1059 1.287 . S
C1059 C1058 1.287 . S
C1059 C1060 1.524 . S
C1059 H1062 0.999 . S
C1060 H1030 0.950 . S
C1060 C1059 1.524 . S
C1060 C1061 1.415 . S
C1061 H1031 0.950 . S
C1061 C1056 1.363 . S
C1061 C1060 1.415 . S
H1062 C1059 0.999 . S
H1063 C1044 0.913 . S
H1064 C1082 0.951 . S
H1065 C1084 0.951 . S
H1066 C1086 0.950 . S
H1067 C1087 0.950 . S
H1068 C1089 0.950 . S
H1069 C1092 0.950 . S
H1070 C1093 0.950 . S
H1071 C1095 0.950 . S
H1072 C1096 0.950 . S
H1073 C1097 0.951 . S
H1074 C1099 0.951 . S
H1075 C1101 0.950 . S
H1076 C1102 0.950 . S
H1077 C1104 0.950 . S
H1078 C1107 0.950 . S
H1079 C1108 0.950 . S
H1080 C1110 0.950 . S
H1081 C1111 0.950 . S
C1082 H1064 0.951 . S
C1082 C1083 1.366 . S
C1082 C1084 1.388 . S
C1083 C1082 1.366 . S
C1083 C1087 1.385 . S
C1084 H1065 0.951 . S
C1084 C1082 1.388 . S
C1084 C1085 1.366 . S
C1085 C1084 1.366 . S
C1085 C1086 1.414 . S
C1085 C1088 1.499 . S
C1086 H1066 0.950 . S
C1086 C1085 1.414 . S
C1086 C1087 1.374 . S
C1087 H1067 0.950 . S
C1087 C1083 1.385 . S
C1087 C1086 1.374 . S
C1088 C1085 1.499 . S
C1088 C1089 1.373 . S
C1088 C1090 1.389 . S
C1089 H1068 0.950 . S
C1089 C1088 1.373 . S
C1089 C1105 1.377 . S
C1090 C1088 1.389 . S
C1090 C1091 1.524 . S
C1090 C1104 1.377 . S
C1091 C1090 1.524 . S
C1091 C1092 1.397 . S
C1091 C1096 1.363 1_556 S
C1092 H1069 0.950 . S
C1092 C1091 1.397 . S
C1092 C1093 1.334 . S
C1093 H1070 0.950 . S
C1093 C1092 1.334 . S
C1093 C1094 1.287 . S
C1094 C1093 1.287 . S
C1094 C1095 1.524 1_556 S
C1094 H1113 0.913 1_556 S
C1095 H1071 0.950 . S
C1095 C1094 1.524 1_554 S
C1095 C1096 1.415 . S
C1096 H1072 0.950 . S
C1096 C1091 1.363 1_554 S
C1096 C1095 1.415 . S
C1097 H1073 0.951 . S
C1097 C1098 1.366 1_556 S
C1097 C1099 1.388 . S
C1098 C1097 1.366 1_554 S
C1098 C1102 1.385 . S
C1099 H1074 0.951 . S
C1099 C1097 1.388 . S
C1099 C1100 1.366 . S
C1100 C1099 1.366 . S
C1100 C1101 1.414 1_556 S
C1100 C1103 1.499 . S
C1101 H1075 0.950 . S
C1101 C1100 1.414 1_554 S
C1101 C1102 1.374 . S
C1102 H1076 0.950 . S
C1102 C1098 1.385 . S
C1102 C1101 1.374 . S
C1103 C1100 1.499 . S
C1103 C1104 1.373 . S
C1103 C1105 1.389 . S
C1104 H1077 0.950 . S
C1104 C1090 1.377 . S
C1104 C1103 1.373 . S
C1105 C1089 1.377 . S
C1105 C1103 1.389 . S
C1105 C1106 1.524 . S
C1106 C1105 1.524 . S
C1106 C1107 1.397 . S
C1106 C1111 1.363 . S
C1107 H1078 0.950 . S
C1107 C1106 1.397 . S
C1107 C1108 1.334 . S
C1108 H1079 0.950 . S
C1108 C1107 1.334 . S
C1108 C1109 1.287 . S
C1109 C1108 1.287 . S
C1109 C1110 1.524 . S
C1109 H1112 0.999 . S
C1110 H1080 0.950 . S
C1110 C1109 1.524 . S
C1110 C1111 1.415 . S
C1111 H1081 0.950 . S
C1111 C1106 1.363 . S
C1111 C1110 1.415 . S
H1112 C1109 0.999 . S
H1113 C1094 0.913 1_554 S
H1114 C1132 0.951 1_455 S
H1115 C1134 0.951 . S
H1116 C1136 0.950 . S
H1117 C1137 0.950 . S
H1118 C1139 0.950 . S
H1119 C1142 0.950 . S
H1120 C1143 0.950 . S
H1121 C1145 0.950 . S
H1122 C1146 0.950 . S
H1123 C1147 0.951 . S
H1124 C1149 0.951 . S
H1125 C1151 0.950 . S
H1126 C1152 0.950 . S
H1127 C1154 0.950 . S
H1128 C1157 0.950 . S
H1129 C1158 0.950 . S
H1130 C1160 0.950 . S
H1131 C1161 0.950 . S
C1132 H1114 0.951 1_655 S
C1132 C1133 1.366 . S
C1132 C1134 1.388 . S
C1133 C1132 1.366 . S
C1133 C1137 1.385 . S
C1134 H1115 0.951 . S
C1134 C1132 1.388 . S
C1134 C1135 1.366 . S
C1135 C1134 1.366 . S
C1135 C1136 1.414 . S
C1135 C1138 1.499 . S
C1136 H1116 0.950 . S
C1136 C1135 1.414 . S
C1136 C1137 1.374 . S
C1137 H1117 0.950 . S
C1137 C1133 1.385 . S
C1137 C1136 1.374 . S
C1138 C1135 1.499 . S
C1138 C1139 1.373 . S
C1138 C1140 1.389 . S
C1139 H1118 0.950 . S
C1139 C1138 1.373 . S
C1139 C1155 1.377 . S
C1140 C1138 1.389 . S
C1140 C1141 1.524 . S
C1140 C1154 1.377 . S
C1141 C1140 1.524 . S
C1141 C1142 1.397 . S
C1141 C1146 1.363 . S
C1142 H1119 0.950 . S
C1142 C1141 1.397 . S
C1142 C1143 1.334 . S
C1143 H1120 0.950 . S
C1143 C1142 1.334 . S
C1143 C1144 1.287 . S
C1144 C1143 1.287 . S
C1144 C1145 1.524 . S
C1144 H1163 0.913 . S
C1145 H1121 0.950 . S
C1145 C1144 1.524 . S
C1145 C1146 1.415 . S
C1146 H1122 0.950 . S
C1146 C1141 1.363 . S
C1146 C1145 1.415 . S
C1147 H1123 0.951 . S
C1147 C1148 1.366 . S
C1147 C1149 1.388 . S
C1148 C1147 1.366 . S
C1148 C1152 1.385 . S
C1149 H1124 0.951 . S
C1149 C1147 1.388 . S
C1149 C1150 1.366 . S
C1150 C1149 1.366 . S
C1150 C1151 1.414 . S
C1150 C1153 1.499 . S
C1151 H1125 0.950 . S
C1151 C1150 1.414 . S
C1151 C1152 1.374 . S
C1152 H1126 0.950 . S
C1152 C1148 1.385 . S
C1152 C1151 1.374 . S
C1153 C1150 1.499 . S
C1153 C1154 1.373 . S
C1153 C1155 1.389 . S
C1154 H1127 0.950 . S
C1154 C1140 1.377 . S
C1154 C1153 1.373 . S
C1155 C1139 1.377 . S
C1155 C1153 1.389 . S
C1155 C1156 1.524 . S
C1156 C1155 1.524 . S
C1156 C1157 1.397 . S
C1156 C1161 1.363 . S
C1157 H1128 0.950 . S
C1157 C1156 1.397 . S
C1157 C1158 1.334 . S
C1158 H1129 0.950 . S
C1158 C1157 1.334 . S
C1158 C1159 1.287 . S
C1159 C1158 1.287 . S
C1159 C1160 1.524 . S
C1159 H1162 0.999 . S
C1160 H1130 0.950 . S
C1160 C1159 1.524 . S
C1160 C1161 1.415 . S
C1161 H1131 0.950 . S
C1161 C1156 1.363 . S
C1161 C1160 1.415 . S
H1162 C1159 0.999 . S
H1163 C1144 0.913 . S
H1164 C1182 0.951 . S
H1165 C1184 0.951 . S
H1166 C1186 0.950 . S
H1167 C1187 0.950 . S
H1168 C1189 0.950 . S
H1169 C1192 0.950 . S
H1170 C1193 0.950 . S
H1171 C1195 0.950 . S
H1172 C1196 0.950 . S
H1173 C1197 0.951 . S
H1174 C1199 0.951 . S
H1175 C1201 0.950 . S
H1176 C1202 0.950 . S
H1177 C1204 0.950 . S
H1178 C1207 0.950 . S
H1179 C1208 0.950 . S
H1180 C1210 0.950 . S
H1181 C1211 0.950 . S
C1182 H1164 0.951 . S
C1182 C1183 1.366 . S
C1182 C1184 1.388 . S
C1183 C1182 1.366 . S
C1183 C1187 1.385 . S
C1184 H1165 0.951 . S
C1184 C1182 1.388 . S
C1184 C1185 1.366 . S
C1185 C1184 1.366 . S
C1185 C1186 1.414 . S
C1185 C1188 1.499 . S
C1186 H1166 0.950 . S
C1186 C1185 1.414 . S
C1186 C1187 1.374 . S
C1187 H1167 0.950 . S
C1187 C1183 1.385 . S
C1187 C1186 1.374 . S
C1188 C1185 1.499 . S
C1188 C1189 1.373 . S
C1188 C1190 1.389 . S
C1189 H1168 0.950 . S
C1189 C1188 1.373 . S
C1189 C1205 1.377 . S
C1190 C1188 1.389 . S
C1190 C1191 1.524 . S
C1190 C1204 1.377 . S
C1191 C1190 1.524 . S
C1191 C1192 1.397 . S
C1191 C1196 1.363 . S
C1192 H1169 0.950 . S
C1192 C1191 1.397 . S
C1192 C1193 1.334 . S
C1193 H1170 0.950 . S
C1193 C1192 1.334 . S
C1193 C1194 1.287 . S
C1194 C1193 1.287 . S
C1194 C1195 1.524 . S
C1194 H1213 0.913 . S
C1195 H1171 0.950 . S
C1195 C1194 1.524 . S
C1195 C1196 1.415 . S
C1196 H1172 0.950 . S
C1196 C1191 1.363 . S
C1196 C1195 1.415 . S
C1197 H1173 0.951 . S
C1197 C1198 1.366 . S
C1197 C1199 1.388 . S
C1198 C1197 1.366 . S
C1198 C1202 1.385 . S
C1199 H1174 0.951 . S
C1199 C1197 1.388 . S
C1199 C1200 1.366 . S
C1200 C1199 1.366 . S
C1200 C1201 1.414 . S
C1200 C1203 1.499 . S
C1201 H1175 0.950 . S
C1201 C1200 1.414 . S
C1201 C1202 1.374 . S
C1202 H1176 0.950 . S
C1202 C1198 1.385 . S
C1202 C1201 1.374 . S
C1203 C1200 1.499 . S
C1203 C1204 1.373 . S
C1203 C1205 1.389 . S
C1204 H1177 0.950 . S
C1204 C1190 1.377 . S
C1204 C1203 1.373 . S
C1205 C1189 1.377 . S
C1205 C1203 1.389 . S
C1205 C1206 1.524 . S
C1206 C1205 1.524 . S
C1206 C1207 1.397 . S
C1206 C1211 1.363 . S
C1207 H1178 0.950 . S
C1207 C1206 1.397 . S
C1207 C1208 1.334 . S
C1208 H1179 0.950 . S
C1208 C1207 1.334 . S
C1208 C1209 1.287 . S
C1209 C1208 1.287 . S
C1209 C1210 1.524 . S
C1209 H1212 0.999 . S
C1210 H1180 0.950 . S
C1210 C1209 1.524 . S
C1210 C1211 1.415 . S
C1211 H1181 0.950 . S
C1211 C1206 1.363 . S
C1211 C1210 1.415 . S
H1212 C1209 0.999 . S
H1213 C1194 0.913 . S
H1214 C1232 0.951 . S
H1215 C1234 0.951 . S
H1216 C1236 0.950 . S
H1217 C1237 0.950 . S
H1218 C1239 0.950 . S
H1219 C1242 0.950 . S
H1220 C1243 0.950 . S
H1221 C1245 0.950 . S
H1222 C1246 0.950 . S
H1223 C1247 0.951 . S
H1224 C1249 0.951 . S
H1225 C1251 0.950 . S
H1226 C1252 0.950 1_655 S
H1227 C1254 0.950 . S
H1228 C1257 0.950 . S
H1229 C1258 0.950 . S
H1230 C1260 0.950 . S
H1231 C1261 0.950 . S
C1232 H1214 0.951 . S
C1232 C1233 1.366 . S
C1232 C1234 1.388 . S
C1233 C1232 1.366 . S
C1233 C1237 1.385 . S
C1234 H1215 0.951 . S
C1234 C1232 1.388 . S
C1234 C1235 1.366 . S
C1235 C1234 1.366 . S
C1235 C1236 1.414 . S
C1235 C1238 1.499 . S
C1236 H1216 0.950 . S
C1236 C1235 1.414 . S
C1236 C1237 1.374 . S
C1237 H1217 0.950 . S
C1237 C1233 1.385 . S
C1237 C1236 1.374 . S
C1238 C1235 1.499 . S
C1238 C1239 1.373 . S
C1238 C1240 1.389 . S
C1239 H1218 0.950 . S
C1239 C1238 1.373 . S
C1239 C1255 1.377 . S
C1240 C1238 1.389 . S
C1240 C1241 1.524 . S
C1240 C1254 1.377 . S
C1241 C1240 1.524 . S
C1241 C1242 1.397 . S
C1241 C1246 1.363 . S
C1242 H1219 0.950 . S
C1242 C1241 1.397 . S
C1242 C1243 1.334 . S
C1243 H1220 0.950 . S
C1243 C1242 1.334 . S
C1243 C1244 1.287 . S
C1244 C1243 1.287 . S
C1244 C1245 1.524 . S
C1244 H1263 0.913 . S
C1245 H1221 0.950 . S
C1245 C1244 1.524 . S
C1245 C1246 1.415 . S
C1246 H1222 0.950 . S
C1246 C1241 1.363 . S
C1246 C1245 1.415 . S
C1247 H1223 0.951 . S
C1247 C1248 1.366 . S
C1247 C1249 1.388 . S
C1248 C1247 1.366 . S
C1248 C1252 1.385 . S
C1249 H1224 0.951 . S
C1249 C1247 1.388 . S
C1249 C1250 1.366 . S
C1250 C1249 1.366 . S
C1250 C1251 1.414 . S
C1250 C1253 1.499 . S
C1251 H1225 0.950 . S
C1251 C1250 1.414 . S
C1251 C1252 1.374 . S
C1252 H1226 0.950 1_455 S
C1252 C1248 1.385 . S
C1252 C1251 1.374 . S
C1253 C1250 1.499 . S
C1253 C1254 1.373 . S
C1253 C1255 1.389 . S
C1254 H1227 0.950 . S
C1254 C1240 1.377 . S
C1254 C1253 1.373 . S
C1255 C1239 1.377 . S
C1255 C1253 1.389 . S
C1255 C1256 1.524 . S
C1256 C1255 1.524 . S
C1256 C1257 1.397 . S
C1256 C1261 1.363 . S
C1257 H1228 0.950 . S
C1257 C1256 1.397 . S
C1257 C1258 1.334 . S
C1258 H1229 0.950 . S
C1258 C1257 1.334 . S
C1258 C1259 1.287 . S
C1259 C1258 1.287 . S
C1259 C1260 1.524 . S
C1259 H1262 0.999 . S
C1260 H1230 0.950 . S
C1260 C1259 1.524 . S
C1260 C1261 1.415 . S
C1261 H1231 0.950 . S
C1261 C1256 1.363 . S
C1261 C1260 1.415 . S
H1262 C1259 0.999 . S
H1263 C1244 0.913 . S
C283 N170 1.267 . S
C298 N5 1.267 . S
C333 N203 1.266 1_655 S
C348 N38 1.266 1_545 S
C383 N71 1.266 . S
C398 N236 1.266 . S
C433 N137 1.266 1_455 S
C448 N104 1.266 1_565 S
C483 C248 0.707 . S
C498 C17 0.709 . S
C533 C50 0.709 . S
C548 C149 0.708 . S
C583 C182 0.708 . S
C598 C83 0.709 . S
C633 C116 0.707 . S
C648 C215 0.709 . S
C683 C239 1.419 . S
C698 C8 1.419 . S
C733 C41 1.419 . S
C748 C140 1.419 . S
C783 C173 1.419 . S
C798 C74 1.419 . S
C833 C206 1.420 . S
C848 C107 1.420 . S
C883 N14 1.759 . S
C898 C127 1.769 1_565 S
C933 C28 1.770 . S
C948 N47 1.760 . S
C983 C61 1.769 1_545 S
C998 N80 1.760 . S
C1033 C94 1.770 . S
C1048 N113 1.760 . S
C1083 N146 1.760 . S
C1098 C193 1.770 . S
C1133 C226 1.769 1_655 S
C1148 N179 1.760 . S
C1183 C259 1.770 . S
C1198 N212 1.760 . S
C1233 N245 1.760 . S
C1248 C160 1.769 1_455 S
