# Generated by pormake.
# Topology soh, (5)-cn, num edge types: 1
# Building blocks:
#     Node 0, Type 0, BuildingBlock: XOMCOT_clean_sbu_1, # of connection points: 5
#     Node 1, Type 0, BuildingBlock: XOMCOT_clean_sbu_1, # of connection points: 5
#     Node 2, Type 0, BuildingBlock: XOMCOT_clean_sbu_1, # of connection points: 5
#     Node 3, Type 0, BuildingBlock: XOMCOT_clean_sbu_1, # of connection points: 5
#     Node 4, Type 0, BuildingBlock: XOMCOT_clean_sbu_1, # of connection points: 5
#     Node 5, Type 0, BuildingBlock: XOMCOT_clean_sbu_1, # of connection points: 5
#     Node 6, Type 0, BuildingBlock: XOMCOT_clean_sbu_1, # of connection points: 5
#     Node 7, Type 0, BuildingBlock: XOMCOT_clean_sbu_1, # of connection points: 5
#     Node 8, Type 0, BuildingBlock: XOMCOT_clean_sbu_1, # of connection points: 5
#     Node 9, Type 0, BuildingBlock: XOMCOT_clean_sbu_1, # of connection points: 5
#     Node 10, Type 0, BuildingBlock: XOMCOT_clean_sbu_1, # of connection points: 5
#     Node 11, Type 0, BuildingBlock: XOMCOT_clean_sbu_1, # of connection points: 5
#     Node 12, Type 0, BuildingBlock: XOMCOT_clean_sbu_1, # of connection points: 5
#     Node 13, Type 0, BuildingBlock: XOMCOT_clean_sbu_1, # of connection points: 5
#     Node 14, Type 0, BuildingBlock: XOMCOT_clean_sbu_1, # of connection points: 5
#     Node 15, Type 0, BuildingBlock: XOMCOT_clean_sbu_1, # of connection points: 5
#     Node 16, Type 0, BuildingBlock: XOMCOT_clean_sbu_1, # of connection points: 5
#     Node 17, Type 0, BuildingBlock: XOMCOT_clean_sbu_1, # of connection points: 5
#     Node 18, Type 0, BuildingBlock: XOMCOT_clean_sbu_1, # of connection points: 5
#     Node 19, Type 0, BuildingBlock: XOMCOT_clean_sbu_1, # of connection points: 5
#     Node 20, Type 0, BuildingBlock: XOMCOT_clean_sbu_1, # of connection points: 5
#     Node 21, Type 0, BuildingBlock: XOMCOT_clean_sbu_1, # of connection points: 5
#     Node 22, Type 0, BuildingBlock: XOMCOT_clean_sbu_1, # of connection points: 5
#     Node 23, Type 0, BuildingBlock: XOMCOT_clean_sbu_1, # of connection points: 5
#     Node 24, Type 0, BuildingBlock: XOMCOT_clean_sbu_1, # of connection points: 5
#     Node 25, Type 0, BuildingBlock: XOMCOT_clean_sbu_1, # of connection points: 5
#     Node 26, Type 0, BuildingBlock: XOMCOT_clean_sbu_1, # of connection points: 5
#     Node 27, Type 0, BuildingBlock: XOMCOT_clean_sbu_1, # of connection points: 5
#     Node 28, Type 0, BuildingBlock: XOMCOT_clean_sbu_1, # of connection points: 5
#     Node 29, Type 0, BuildingBlock: XOMCOT_clean_sbu_1, # of connection points: 5
#     Node 30, Type 0, BuildingBlock: XOMCOT_clean_sbu_1, # of connection points: 5
#     Node 31, Type 0, BuildingBlock: XOMCOT_clean_sbu_1, # of connection points: 5
#     Edge 32, Type (0, 0), BuildingBlock: XUDNAN_clean_linker_2, # of connection points: 2
#     Edge 33, Type (0, 0), BuildingBlock: XUDNAN_clean_linker_2, # of connection points: 2
#     Edge 34, Type (0, 0), BuildingBlock: XUDNAN_clean_linker_2, # of connection points: 2
#     Edge 35, Type (0, 0), BuildingBlock: XUDNAN_clean_linker_2, # of connection points: 2
#     Edge 36, Type (0, 0), BuildingBlock: XUDNAN_clean_linker_2, # of connection points: 2
#     Edge 37, Type (0, 0), BuildingBlock: XUDNAN_clean_linker_2, # of connection points: 2
#     Edge 38, Type (0, 0), BuildingBlock: XUDNAN_clean_linker_2, # of connection points: 2
#     Edge 39, Type (0, 0), BuildingBlock: XUDNAN_clean_linker_2, # of connection points: 2
#     Edge 40, Type (0, 0), BuildingBlock: XUDNAN_clean_linker_2, # of connection points: 2
#     Edge 41, Type (0, 0), BuildingBlock: XUDNAN_clean_linker_2, # of connection points: 2
#     Edge 42, Type (0, 0), BuildingBlock: XUDNAN_clean_linker_2, # of connection points: 2
#     Edge 43, Type (0, 0), BuildingBlock: XUDNAN_clean_linker_2, # of connection points: 2
#     Edge 44, Type (0, 0), BuildingBlock: XUDNAN_clean_linker_2, # of connection points: 2
#     Edge 45, Type (0, 0), BuildingBlock: XUDNAN_clean_linker_2, # of connection points: 2
#     Edge 46, Type (0, 0), BuildingBlock: XUDNAN_clean_linker_2, # of connection points: 2
#     Edge 47, Type (0, 0), BuildingBlock: XUDNAN_clean_linker_2, # of connection points: 2
#     Edge 48, Type (0, 0), BuildingBlock: XUDNAN_clean_linker_2, # of connection points: 2
#     Edge 49, Type (0, 0), BuildingBlock: XUDNAN_clean_linker_2, # of connection points: 2
#     Edge 50, Type (0, 0), BuildingBlock: XUDNAN_clean_linker_2, # of connection points: 2
#     Edge 51, Type (0, 0), BuildingBlock: XUDNAN_clean_linker_2, # of connection points: 2
#     Edge 52, Type (0, 0), BuildingBlock: XUDNAN_clean_linker_2, # of connection points: 2
#     Edge 53, Type (0, 0), BuildingBlock: XUDNAN_clean_linker_2, # of connection points: 2
#     Edge 54, Type (0, 0), BuildingBlock: XUDNAN_clean_linker_2, # of connection points: 2
#     Edge 55, Type (0, 0), BuildingBlock: XUDNAN_clean_linker_2, # of connection points: 2
#     Edge 56, Type (0, 0), BuildingBlock: XUDNAN_clean_linker_2, # of connection points: 2
#     Edge 57, Type (0, 0), BuildingBlock: XUDNAN_clean_linker_2, # of connection points: 2
#     Edge 58, Type (0, 0), BuildingBlock: XUDNAN_clean_linker_2, # of connection points: 2
#     Edge 59, Type (0, 0), BuildingBlock: XUDNAN_clean_linker_2, # of connection points: 2
#     Edge 60, Type (0, 0), BuildingBlock: XUDNAN_clean_linker_2, # of connection points: 2
#     Edge 61, Type (0, 0), BuildingBlock: XUDNAN_clean_linker_2, # of connection points: 2
#     Edge 62, Type (0, 0), BuildingBlock: XUDNAN_clean_linker_2, # of connection points: 2
#     Edge 63, Type (0, 0), BuildingBlock: XUDNAN_clean_linker_2, # of connection points: 2
#     Edge 64, Type (0, 0), BuildingBlock: XUDNAN_clean_linker_2, # of connection points: 2
#     Edge 65, Type (0, 0), BuildingBlock: XUDNAN_clean_linker_2, # of connection points: 2
#     Edge 66, Type (0, 0), BuildingBlock: XUDNAN_clean_linker_2, # of connection points: 2
#     Edge 67, Type (0, 0), BuildingBlock: XUDNAN_clean_linker_2, # of connection points: 2
#     Edge 68, Type (0, 0), BuildingBlock: XUDNAN_clean_linker_2, # of connection points: 2
#     Edge 69, Type (0, 0), BuildingBlock: XUDNAN_clean_linker_2, # of connection points: 2
#     Edge 70, Type (0, 0), BuildingBlock: XUDNAN_clean_linker_2, # of connection points: 2
#     Edge 71, Type (0, 0), BuildingBlock: XUDNAN_clean_linker_2, # of connection points: 2
#     Edge 72, Type (0, 0), BuildingBlock: XUDNAN_clean_linker_2, # of connection points: 2
#     Edge 73, Type (0, 0), BuildingBlock: XUDNAN_clean_linker_2, # of connection points: 2
#     Edge 74, Type (0, 0), BuildingBlock: XUDNAN_clean_linker_2, # of connection points: 2
#     Edge 75, Type (0, 0), BuildingBlock: XUDNAN_clean_linker_2, # of connection points: 2
#     Edge 76, Type (0, 0), BuildingBlock: XUDNAN_clean_linker_2, # of connection points: 2
#     Edge 77, Type (0, 0), BuildingBlock: XUDNAN_clean_linker_2, # of connection points: 2
#     Edge 78, Type (0, 0), BuildingBlock: XUDNAN_clean_linker_2, # of connection points: 2
#     Edge 79, Type (0, 0), BuildingBlock: XUDNAN_clean_linker_2, # of connection points: 2
#     Edge 80, Type (0, 0), BuildingBlock: XUDNAN_clean_linker_2, # of connection points: 2
#     Edge 81, Type (0, 0), BuildingBlock: XUDNAN_clean_linker_2, # of connection points: 2
#     Edge 82, Type (0, 0), BuildingBlock: XUDNAN_clean_linker_2, # of connection points: 2
#     Edge 83, Type (0, 0), BuildingBlock: XUDNAN_clean_linker_2, # of connection points: 2
#     Edge 84, Type (0, 0), BuildingBlock: XUDNAN_clean_linker_2, # of connection points: 2
#     Edge 85, Type (0, 0), BuildingBlock: XUDNAN_clean_linker_2, # of connection points: 2
#     Edge 86, Type (0, 0), BuildingBlock: XUDNAN_clean_linker_2, # of connection points: 2
#     Edge 87, Type (0, 0), BuildingBlock: XUDNAN_clean_linker_2, # of connection points: 2
#     Edge 88, Type (0, 0), BuildingBlock: XUDNAN_clean_linker_2, # of connection points: 2
#     Edge 89, Type (0, 0), BuildingBlock: XUDNAN_clean_linker_2, # of connection points: 2
#     Edge 90, Type (0, 0), BuildingBlock: XUDNAN_clean_linker_2, # of connection points: 2
#     Edge 91, Type (0, 0), BuildingBlock: XUDNAN_clean_linker_2, # of connection points: 2
#     Edge 92, Type (0, 0), BuildingBlock: XUDNAN_clean_linker_2, # of connection points: 2
#     Edge 93, Type (0, 0), BuildingBlock: XUDNAN_clean_linker_2, # of connection points: 2
#     Edge 94, Type (0, 0), BuildingBlock: XUDNAN_clean_linker_2, # of connection points: 2
#     Edge 95, Type (0, 0), BuildingBlock: XUDNAN_clean_linker_2, # of connection points: 2
#     Edge 96, Type (0, 0), BuildingBlock: XUDNAN_clean_linker_2, # of connection points: 2
#     Edge 97, Type (0, 0), BuildingBlock: XUDNAN_clean_linker_2, # of connection points: 2
#     Edge 98, Type (0, 0), BuildingBlock: XUDNAN_clean_linker_2, # of connection points: 2
#     Edge 99, Type (0, 0), BuildingBlock: XUDNAN_clean_linker_2, # of connection points: 2
#     Edge 100, Type (0, 0), BuildingBlock: XUDNAN_clean_linker_2, # of connection points: 2
#     Edge 101, Type (0, 0), BuildingBlock: XUDNAN_clean_linker_2, # of connection points: 2
#     Edge 102, Type (0, 0), BuildingBlock: XUDNAN_clean_linker_2, # of connection points: 2
#     Edge 103, Type (0, 0), BuildingBlock: XUDNAN_clean_linker_2, # of connection points: 2
#     Edge 104, Type (0, 0), BuildingBlock: XUDNAN_clean_linker_2, # of connection points: 2
#     Edge 105, Type (0, 0), BuildingBlock: XUDNAN_clean_linker_2, # of connection points: 2
#     Edge 106, Type (0, 0), BuildingBlock: XUDNAN_clean_linker_2, # of connection points: 2
#     Edge 107, Type (0, 0), BuildingBlock: XUDNAN_clean_linker_2, # of connection points: 2
#     Edge 108, Type (0, 0), BuildingBlock: XUDNAN_clean_linker_2, # of connection points: 2
#     Edge 109, Type (0, 0), BuildingBlock: XUDNAN_clean_linker_2, # of connection points: 2
#     Edge 110, Type (0, 0), BuildingBlock: XUDNAN_clean_linker_2, # of connection points: 2
#     Edge 111, Type (0, 0), BuildingBlock: XUDNAN_clean_linker_2, # of connection points: 2
# Relax obj value: 0.203
# Max RMSD: 0.172
# Mean RMSD: 0.172
data_MOF--net-soh--node1-XOMCOT_clean_sbu_1--edge1-XUDNAN_clean_linker_2
_symmetry_space_group_name_H-M    P1
_symmetry_Int_Tables_number       1
_symmetry_cell_setting            triclinic
loop_
_symmetry_equiv_pos_as_xyz
'x, y, z'
_cell_length_a     85.302598
_cell_length_b     43.909785
_cell_length_c     44.635176
_cell_angle_alpha  90.050899
_cell_angle_beta   90.004018
_cell_angle_gamma 90.024135
loop_
_atom_site_label
_atom_site_type_symbol
_atom_site_fract_x
_atom_site_fract_y
_atom_site_fract_z
_atom_type_partial_charge
C0 C 0.29616 0.37807 0.22743 0.0
C1 C 0.29653 0.39051 0.25584 0.0
N2 N 0.30879 0.37848 0.27067 0.0
N3 N 0.30822 0.3584 0.22439 0.0
C4 C 0.31588 0.35987 0.25082 0.0
H5 H 0.28679 0.3809 0.2114 0.0
Co6 Co 0.31107 0.32682 0.19663 0.0
C7 C 0.3442 0.33541 0.1744 0.0
O8 O 0.34036 0.32343 0.14849 0.0
N9 N 0.31379 0.29347 0.16891 0.0
C10 C 0.31343 0.26308 0.12865 0.0
C11 C 0.31136 0.29238 0.13894 0.0
C12 C 0.31737 0.26417 0.17596 0.0
N13 N 0.31713 0.24514 0.15204 0.0
O14 O 0.31436 0.29931 0.22981 0.0
H15 H 0.30834 0.31156 0.12496 0.0
H16 H 0.31972 0.25658 0.19847 0.0
O17 O 0.33376 0.33803 0.19487 0.0
C18 C 0.30071 0.29082 0.23825 0.0
O19 O 0.28856 0.3011 0.22324 0.0
N20 N 0.3052 0.35317 0.16541 0.0
C21 C 0.28896 0.38826 0.12303 0.0
C22 C 0.30479 0.39452 0.13004 0.0
C23 C 0.31272 0.37679 0.15163 0.0
C24 C 0.28985 0.34736 0.1593 0.0
C25 C 0.28157 0.36445 0.13845 0.0
H26 H 0.32467 0.38237 0.15748 0.0
H27 H 0.2839 0.32924 0.17112 0.0
H28 H 0.32553 0.34499 0.2566 0.0
H29 H 0.28748 0.40447 0.26587 0.0
H30 H 0.31226 0.25577 0.10562 0.0
H31 H 0.311 0.41285 0.11898 0.0
H32 H 0.2693 0.35924 0.13498 0.0
C33 C 0.99851 0.90566 0.23531 0.0
C34 C 1.00066 0.89583 0.26441 0.0
N35 N 0.99139 0.91261 0.28233 0.0
N36 N 0.98767 0.92812 0.23483 0.0
C37 C 0.98369 0.93178 0.26399 0.0
H38 H 1.00519 0.89807 0.21612 0.0
Co39 Co 0.98204 0.95489 0.20326 0.0
C40 C 0.95095 0.92282 0.21887 0.0
O41 O 0.95734 0.90416 0.23829 0.0
N42 N 0.97665 0.98249 0.17252 0.0
C43 C 0.96612 1.00273 0.13152 0.0
C44 C 0.9675 0.97671 0.14852 0.0
C45 C 0.98059 1.01231 0.16968 0.0
N46 N 0.97431 0.02519 0.14492 0.0
O47 O 0.97933 0.98705 0.23236 0.0
H48 H 0.96213 0.95492 0.14371 0.0
H49 H 0.98806 0.0244 0.18521 0.0
O50 O 0.9595 0.94252 0.20518 0.0
C51 C 0.99311 0.99647 0.2389 0.0
O52 O 1.00499 0.98476 0.22407 0.0
N53 N 0.98673 0.92448 0.17435 0.0
C54 C 1.00046 0.88114 0.13643 0.0
C55 C 0.98757 0.87349 0.15449 0.0
C56 C 0.98071 0.89563 0.1731 0.0
C57 C 0.99907 0.93231 0.15648 0.0
C58 C 1.00593 0.91119 0.13702 0.0
H59 H 0.9713 0.88891 0.18775 0.0
H60 H 1.00406 0.9549 0.15818 0.0
H61 H 0.97553 0.94884 0.27193 0.0
H62 H 1.00914 0.87921 0.27202 0.0
H63 H 0.95941 1.00506 0.11107 0.0
H64 H 0.98307 0.85042 0.15475 0.0
H65 H 1.01597 0.91792 0.12371 0.0
C66 C 0.29447 0.90348 0.03719 0.0
C67 C 0.29216 0.88854 0.01046 0.0
N68 N 0.30146 0.90146 0.98975 0.0
N69 N 0.30554 0.92523 0.03362 0.0
C70 C 0.3093 0.92375 1.00414 0.0
H71 H 0.28829 0.89872 0.05778 0.0
Co72 Co 0.31309 0.95336 0.0623 0.0
C73 C 0.34237 0.91524 0.04702 0.0
O74 O 0.33455 0.89345 0.03349 0.0
N75 N 0.32044 0.98182 0.09049 0.0
C76 C 0.33416 1.00244 0.12762 0.0
C77 C 0.33143 0.97632 0.1115 0.0
C78 C 0.31658 1.01152 0.09444 0.0
N79 N 0.32481 0.02473 0.11697 0.0
O80 O 0.31594 0.98282 0.03082 0.0
H81 H 0.33719 0.95464 0.11482 0.0
H82 H 0.30784 0.02316 0.0812 0.0
O83 O 0.335 0.9381 0.05816 0.0
C84 C 0.30239 0.99422 0.02585 0.0
O85 O 0.29067 0.98502 0.0427 0.0
N86 N 0.30818 0.92616 0.09367 0.0
C87 C 0.29213 0.88762 0.1332 0.0
C88 C 0.30625 0.87831 0.11964 0.0
C89 C 0.31414 0.89797 0.09985 0.0
C90 C 0.29509 0.93619 0.10812 0.0
C91 C 0.28695 0.91745 0.12795 0.0
H92 H 0.3244 0.88972 0.08842 0.0
H93 H 0.29043 0.95846 0.10288 0.0
H94 H 0.31799 0.93816 0.99356 0.0
H95 H 0.28414 0.86987 0.00642 0.0
H96 H 0.34265 1.00482 0.14546 0.0
H97 H 0.31073 0.85549 0.123 0.0
H98 H 0.27638 0.92605 0.1384 0.0
C99 C 0.99945 0.37375 0.0313 0.0
C100 C 0.99987 0.3858 1.00278 0.0
N101 N 0.98735 0.37533 0.98758 0.0
N102 N 0.98658 0.35606 0.03411 0.0
C103 C 0.97935 0.35796 0.00726 0.0
H104 H 1.00869 0.37536 0.04783 0.0
Co105 Co 0.98246 0.32593 0.06299 0.0
C106 C 0.95013 0.34992 0.07973 0.0
O107 O 0.9547 0.35689 0.10694 0.0
N108 N 0.97842 0.29401 0.09119 0.0
C109 C 0.97083 0.26413 0.12909 0.0
C110 C 0.97152 0.29369 0.11847 0.0
C111 C 0.9821 0.26435 0.08631 0.0
N112 N 0.97738 0.24558 0.10859 0.0
O113 O 0.97972 0.29674 0.03074 0.0
H114 H 0.96734 0.31348 0.13029 0.0
H115 H 0.98827 0.25647 0.06669 0.0
O116 O 0.95971 0.33715 0.06142 0.0
C117 C 0.99265 0.29114 0.01725 0.0
O118 O 1.00544 0.30501 0.02635 0.0
N119 N 0.98731 0.3543 0.09406 0.0
C120 C 1.00302 0.39695 0.13 0.0
C121 C 0.99107 0.40614 0.11039 0.0
C122 C 0.98333 0.38449 0.09267 0.0
C123 C 0.9987 0.34503 0.11355 0.0
C124 C 1.00644 0.36584 0.13215 0.0
H125 H 0.97492 0.39231 0.07626 0.0
H126 H 1.00262 0.32163 0.11337 0.0
H127 H 0.96936 0.34406 1.00115 0.0
H128 H 1.00954 0.3983 0.99299 0.0
H129 H 0.96555 0.25688 0.14994 0.0
H130 H 0.98817 0.43002 0.10792 0.0
H131 H 1.0158 0.35791 0.14657 0.0
C132 C 0.7561 0.66931 0.78003 0.0
C133 C 0.75741 0.65545 0.75241 0.0
N134 N 0.74364 0.65858 0.73787 0.0
N135 N 0.74155 0.68089 0.78282 0.0
C136 C 0.73425 0.67387 0.75695 0.0
H137 H 0.76541 0.67242 0.79621 0.0
Co138 Co 0.73424 0.7087 0.81072 0.0
C139 C 0.70379 0.67787 0.82717 0.0
O140 O 0.70834 0.67784 0.85531 0.0
N141 N 0.72696 0.73878 0.83796 0.0
C142 C 0.71208 0.77382 0.86033 0.0
C143 C 0.71217 0.74599 0.84633 0.0
C144 C 0.7355 0.76337 0.84652 0.0
N145 N 0.72675 0.78495 0.86015 0.0
O146 O 0.73043 0.73681 0.77823 0.0
H147 H 0.70167 0.73397 0.8401 0.0
H148 H 0.74778 0.76625 0.8413 0.0
O149 O 0.71267 0.69019 0.80727 0.0
C150 C 0.74325 0.75119 0.77356 0.0
O151 O 0.75534 0.74522 0.79082 0.0
N152 N 0.74034 0.68192 0.84221 0.0
C153 C 0.75725 0.64329 0.88058 0.0
C154 C 0.74594 0.63149 0.86084 0.0
C155 C 0.73781 0.65111 0.84149 0.0
C156 C 0.75108 0.69365 0.86174 0.0
C157 C 0.75949 0.6749 0.88123 0.0
H158 H 0.73016 0.64133 0.82474 0.0
H159 H 0.75406 0.71745 0.861 0.0
H160 H 0.72273 0.68235 0.75115 0.0
H161 H 0.7679 0.6452 0.74323 0.0
H162 H 0.70174 0.7862 0.86738 0.0
H163 H 0.74403 0.60717 0.85912 0.0
H164 H 0.76808 0.68508 0.89603 0.0
C165 C 0.04665 0.11873 0.78298 0.0
C166 C 0.04616 0.13177 0.75504 0.0
N167 N 0.05891 0.12269 0.73961 0.0
N168 N 0.05974 0.10169 0.7854 0.0
C169 C 0.06701 0.10467 0.75865 0.0
H170 H 0.03764 0.1206 0.79989 0.0
Co171 Co 0.06493 0.0751 0.81652 0.0
C172 C 0.09737 0.09874 0.83365 0.0
O173 O 0.09363 0.09859 0.8621 0.0
N174 N 0.06989 0.04731 0.84836 0.0
C175 C 0.07316 0.02815 0.8942 0.0
C176 C 0.07178 0.05419 0.87771 0.0
C177 C 0.06989 0.01631 0.84804 0.0
N178 N 0.07175 1.00413 0.87571 0.0
O179 O 0.0688 0.04359 0.78706 0.0
H180 H 0.07131 0.07671 0.88738 0.0
H181 H 0.06767 1.0028 0.82826 0.0
O182 O 0.08722 0.09005 0.81416 0.0
C183 C 0.05516 0.03328 0.78053 0.0
O184 O 0.04312 0.04438 0.7953 0.0
N185 N 0.05837 0.10462 0.84438 0.0
C186 C 0.0409 0.1418 0.88322 0.0
C187 C 0.05546 0.15164 0.87151 0.0
C188 C 0.06385 0.13296 0.85142 0.0
C189 C 0.04424 0.0951 0.855 0.0
C190 C 0.03532 0.11323 0.8739 0.0
H191 H 0.07446 0.1415 0.84126 0.0
H192 H 0.03965 0.07328 0.84797 0.0
H193 H 0.07752 0.09228 0.75268 0.0
H194 H 0.03687 0.14612 0.74653 0.0
H195 H 0.07458 0.02718 0.91826 0.0
H196 H 0.06033 0.17354 0.8775 0.0
H197 H 0.02391 0.10482 0.88041 0.0
C198 C 0.75366 0.12006 0.98008 0.0
C199 C 0.75564 0.13531 0.00684 0.0
N200 N 0.7423 0.13267 0.02287 0.0
N201 N 0.73913 0.10804 0.97929 0.0
C202 C 0.73249 0.11635 0.00544 0.0
H203 H 0.76261 0.11614 0.96336 0.0
Co204 Co 0.73122 0.07821 0.95419 0.0
C205 C 0.70003 0.10362 0.9359 0.0
O206 O 0.70352 0.09659 0.90805 0.0
N207 N 0.72317 0.04635 0.92994 0.0
C208 C 0.70766 1.00686 0.91957 0.0
C209 C 0.70846 0.03509 0.93246 0.0
C210 C 0.73119 0.02371 0.91596 0.0
N211 N 0.72202 0.9994 0.90964 0.0
O212 O 0.72725 0.0533 0.98889 0.0
H213 H 0.69922 0.04483 0.94592 0.0
H214 H 0.7438 0.02324 0.91384 0.0
O215 O 0.70999 0.09774 0.95669 0.0
C216 C 0.73895 0.03547 0.99225 0.0
O217 O 0.7502 0.03609 0.97219 0.0
N218 N 0.73742 0.10167 0.92058 0.0
C219 C 0.75461 0.13619 0.87857 0.0
C220 C 0.7409 0.14781 0.89206 0.0
C221 C 0.73282 0.13066 0.9137 0.0
C222 C 0.75064 0.09009 0.90784 0.0
C223 C 0.75935 0.10676 0.88708 0.0
H224 H 0.7234 0.14145 0.92587 0.0
H225 H 0.7553 0.06875 0.91574 0.0
H226 H 0.72119 0.10792 0.01276 0.0
H227 H 0.76634 0.14601 0.01453 0.0
H228 H 0.69757 0.99189 0.91987 0.0
H229 H 0.73657 0.17032 0.88681 0.0
H230 H 0.77021 0.09691 0.8792 0.0
C231 C 0.03944 0.65819 0.9796 0.0
C232 C 0.03919 0.64394 0.00708 0.0
N233 N 0.05261 0.65071 0.02159 0.0
N234 N 0.05301 0.67372 0.97677 0.0
C235 C 0.0608 0.66847 1.00256 0.0
H236 H 0.02985 0.65887 0.96381 0.0
Co237 Co 0.05833 0.70366 0.94923 0.0
C238 C 0.09186 0.68966 0.93236 0.0
O239 O 0.08951 0.70059 0.90536 0.0
N240 N 0.06361 0.73541 0.92145 0.0
C241 C 0.06386 0.76632 0.88164 0.0
C242 C 0.06106 0.73711 0.89152 0.0
C243 C 0.06849 0.76387 0.9287 0.0
N244 N 0.06827 0.7833 0.90524 0.0
O245 O 0.06121 0.73119 0.98275 0.0
H246 H 0.05678 0.71884 0.87755 0.0
H247 H 0.07163 0.77081 0.9511 0.0
O248 O 0.08053 0.68965 0.95125 0.0
C249 C 0.04882 0.74706 0.98686 0.0
O250 O 0.03743 0.74501 0.96713 0.0
N251 N 0.05293 0.67709 0.9177 0.0
C252 C 0.03743 0.64112 0.87479 0.0
C253 C 0.05299 0.63461 0.88356 0.0
C254 C 0.06047 0.65263 0.90549 0.0
C255 C 0.03787 0.68343 0.90973 0.0
C256 C 0.02994 0.66584 0.88869 0.0
H257 H 0.07208 0.64643 0.91289 0.0
H258 H 0.03184 0.70217 0.92045 0.0
H259 H 0.07163 0.67989 0.00839 0.0
H260 H 0.02952 0.631 0.01625 0.0
H261 H 0.06174 0.77479 0.85924 0.0
H262 H 0.05934 0.61575 0.87378 0.0
H263 H 1.01782 0.67136 0.88406 0.0
C264 C 0.29503 0.87005 0.7284 0.0
C265 C 0.29377 0.88301 0.75653 0.0
N266 N 0.30604 0.87367 0.77312 0.0
N267 N 0.30809 0.85274 0.72738 0.0
C268 C 0.31467 0.85604 0.7547 0.0
H269 H 0.2862 0.87071 0.71102 0.0
Co270 Co 0.31342 0.82152 0.70051 0.0
C271 C 0.34819 0.82438 0.70737 0.0
O272 O 0.3485 0.7958 0.716 0.0
N273 N 0.31892 0.78956 0.67416 0.0
C274 C 0.32946 0.7611 0.638 0.0
C275 C 0.32768 0.79037 0.64898 0.0
C276 C 0.31544 0.75972 0.6778 0.0
N277 N 0.32183 0.74183 0.65642 0.0
O278 O 0.31666 0.79478 0.73433 0.0
H279 H 0.33281 0.81081 0.63967 0.0
H280 H 0.30847 0.751 0.69606 0.0
O281 O 0.33508 0.83665 0.70051 0.0
C282 C 0.30287 0.78704 0.74265 0.0
O283 O 0.29094 0.79669 0.72659 0.0
N284 N 0.30803 0.84653 0.66807 0.0
C285 C 0.29212 0.8843 0.62778 0.0
C286 C 0.30596 0.89423 0.64198 0.0
C287 C 0.31373 0.87499 0.66229 0.0
C288 C 0.29506 0.83609 0.65351 0.0
C289 C 0.28702 0.85443 0.63318 0.0
H290 H 0.32364 0.88365 0.67474 0.0
H291 H 0.29043 0.81383 0.65893 0.0
H292 H 0.3247 0.84295 0.76211 0.0
H293 H 0.28374 0.89534 0.7651 0.0
H294 H 0.33638 0.75442 0.61877 0.0
H295 H 0.31025 0.91721 0.63874 0.0
H296 H 0.27659 0.84552 0.62246 0.0
C297 C 1.00055 0.40022 0.72407 0.0
C298 C 1.0025 0.3858 0.75115 0.0
N299 N 0.99273 0.39878 0.77101 0.0
N300 N 0.98918 0.42153 0.72654 0.0
C301 C 0.98499 0.4206 0.75581 0.0
H302 H 1.00724 0.3956 0.70402 0.0
Co303 Co 0.9823 0.44918 0.69686 0.0
C304 C 0.95191 0.41379 0.71246 0.0
O305 O 0.95887 0.39348 0.72939 0.0
N306 N 0.97571 0.47723 0.66779 0.0
C307 C 0.9634 0.49767 0.62888 0.0
C308 C 0.96559 0.47156 0.64529 0.0
C309 C 0.97955 0.50701 0.6646 0.0
N310 N 0.97219 0.52007 0.64099 0.0
O311 O 0.97942 0.47999 0.72741 0.0
H312 H 0.9601 0.44975 0.64108 0.0
H313 H 0.98769 0.51879 0.67914 0.0
O314 O 0.96001 0.43498 0.69997 0.0
C315 C 0.99281 0.48951 0.73635 0.0
O316 O 1.0055 0.4774 0.72463 0.0
N317 N 0.98708 0.42055 0.66636 0.0
C318 C 1.00221 0.37964 0.62789 0.0
C319 C 0.98932 0.37031 0.6452 0.0
C320 C 0.98173 0.39128 0.66406 0.0
C321 C 0.99921 0.43014 0.6488 0.0
C322 C 1.00677 0.41023 0.62911 0.0
H323 H 0.97244 0.38325 0.67834 0.0
H324 H 1.00365 0.45309 0.6513 0.0
H325 H 0.97612 0.43512 0.76567 0.0
H326 H 1.01063 0.36755 0.75605 0.0
H327 H 0.9557 0.50003 0.60977 0.0
H328 H 0.98549 0.34679 0.64489 0.0
H329 H 1.01676 0.41825 0.61635 0.0
C330 C 0.30012 0.40164 0.53535 0.0
C331 C 0.29762 0.38731 0.50837 0.0
N332 N 0.30681 0.40066 0.48777 0.0
N333 N 0.31128 0.42327 0.53204 0.0
C334 C 0.31477 0.42259 0.50243 0.0
H335 H 0.29391 0.39679 0.55591 0.0
Co336 Co 0.31855 0.45126 0.56105 0.0
C337 C 0.34873 0.41657 0.54337 0.0
O338 O 0.34143 0.39608 0.52713 0.0
N339 N 0.32543 0.47985 0.58951 0.0
C340 C 0.33734 0.50102 0.62863 0.0
C341 C 0.33564 0.47479 0.61204 0.0
C342 C 0.32119 0.50944 0.5927 0.0
N343 N 0.32828 0.52283 0.61638 0.0
O344 O 0.32055 0.4817 0.53003 0.0
H345 H 0.34134 0.45323 0.61636 0.0
H346 H 0.31277 0.5208 0.57847 0.0
O347 O 0.34087 0.43777 0.55641 0.0
C348 C 0.30674 0.49131 0.52406 0.0
O349 O 0.29498 0.48023 0.53968 0.0
N350 N 0.31464 0.42263 0.592 0.0
C351 C 0.30035 0.38061 0.63041 0.0
C352 C 0.31318 0.37208 0.61259 0.0
C353 C 0.32034 0.39359 0.59378 0.0
C354 C 0.30263 0.43154 0.61024 0.0
C355 C 0.29547 0.41103 0.6299 0.0
H356 H 0.32953 0.38604 0.57906 0.0
H357 H 0.29792 0.45431 0.60819 0.0
H358 H 0.32329 0.4374 0.49191 0.0
H359 H 0.28949 0.36888 0.50405 0.0
H360 H 0.34471 0.50386 0.64818 0.0
H361 H 0.31724 0.34871 0.61237 0.0
H362 H 0.28553 0.41843 0.64312 0.0
C363 C 1.00648 0.8724 0.54257 0.0
C364 C 1.0077 0.89004 0.51722 0.0
N365 N 0.99615 0.8819 0.49833 0.0
N366 N 0.99397 0.85368 0.53995 0.0
C367 C 0.988 0.85991 0.51255 0.0
H368 H 1.01457 0.8725 0.56121 0.0
Co369 Co 0.98784 0.82224 0.56594 0.0
C370 C 0.95543 0.84293 0.58353 0.0
O371 O 0.95891 0.83849 0.61179 0.0
N372 N 0.98187 0.7891 0.59197 0.0
C373 C 0.97711 0.75915 0.63151 0.0
C374 C 0.97969 0.78857 0.62203 0.0
C375 C 0.98058 0.75931 0.58405 0.0
N376 N 0.97771 0.74063 0.60753 0.0
O377 O 0.98512 0.79622 0.53149 0.0
H378 H 0.98031 0.80811 0.63669 0.0
H379 H 0.98229 0.751 0.56156 0.0
O380 O 0.96569 0.83721 0.56329 0.0
C381 C 0.99881 0.78717 0.52388 0.0
O382 O 1.0108 0.79641 0.54002 0.0
N383 N 0.99298 0.84737 0.59902 0.0
C384 C 1.00953 0.88532 0.63854 0.0
C385 C 0.99581 0.89559 0.62422 0.0
C386 C 0.9878 0.87638 0.60418 0.0
C387 C 1.00606 0.83692 0.61327 0.0
C388 C 1.01433 0.85524 0.63334 0.0
H389 H 0.97825 0.88564 0.59116 0.0
H390 H 1.01058 0.81458 0.60783 0.0
H391 H 0.97816 0.84789 0.5028 0.0
H392 H 1.01683 0.90644 0.51236 0.0
H393 H 0.97507 0.75205 0.65439 0.0
H394 H 0.99185 0.91885 0.627 0.0
H395 H 0.02473 0.84613 0.64396 0.0
C396 C 0.75841 0.16476 0.2826 0.0
C397 C 0.75926 0.15212 0.25436 0.0
N398 N 0.7457 0.15798 0.2399 0.0
N399 N 0.74432 0.17821 0.28597 0.0
C400 C 0.73687 0.17364 0.25971 0.0
H401 H 0.76773 0.16551 0.29901 0.0
Co402 Co 0.73769 0.20505 0.31578 0.0
C403 C 0.70656 0.17412 0.32791 0.0
O404 O 0.7114 0.16697 0.35496 0.0
N405 N 0.73113 0.23409 0.34481 0.0
C406 C 0.71726 0.26534 0.37398 0.0
C407 C 0.71774 0.23708 0.36081 0.0
C408 C 0.7386 0.26103 0.34908 0.0
N409 N 0.73032 0.28054 0.36635 0.0
O410 O 0.7349 0.23575 0.28506 0.0
H411 H 0.70821 0.22119 0.3617 0.0
H412 H 0.74945 0.26704 0.33808 0.0
O413 O 0.71559 0.18962 0.31058 0.0
C414 C 0.74849 0.24592 0.2781 0.0
O415 O 0.76065 0.23528 0.29287 0.0
N416 N 0.74275 0.17551 0.34583 0.0
C417 C 0.75824 0.1333 0.38267 0.0
C418 C 0.74857 0.12349 0.35917 0.0
C419 C 0.74092 0.14487 0.34108 0.0
C420 C 0.75186 0.18533 0.36912 0.0
C421 C 0.75945 0.16465 0.38809 0.0
H422 H 0.73412 0.13676 0.32224 0.0
H423 H 0.75416 0.20932 0.37209 0.0
H424 H 0.72569 0.18393 0.25444 0.0
H425 H 0.76933 0.14064 0.2449 0.0
H426 H 0.70767 0.27448 0.38709 0.0
H427 H 0.7473 0.09945 0.35423 0.0
H428 H 0.76701 0.17321 0.40569 0.0
C429 C 0.0438 0.61876 0.28184 0.0
C430 C 0.04247 0.63327 0.25459 0.0
N431 N 0.05561 0.62783 0.23866 0.0
N432 N 0.05774 0.60436 0.283 0.0
C433 C 0.0647 0.61056 0.25658 0.0
H434 H 0.03481 0.61715 0.29884 0.0
Co435 Co 0.06433 0.57493 0.30999 0.0
C436 C 0.09919 0.57936 0.30463 0.0
O437 O 0.10032 0.54959 0.3028 0.0
N438 N 0.07077 0.54443 0.33693 0.0
C439 C 0.08281 0.51547 0.37086 0.0
C440 C 0.08115 0.54474 0.35976 0.0
C441 C 0.06591 0.51523 0.33541 0.0
N442 N 0.07329 0.49691 0.35511 0.0
O443 O 0.06774 0.5476 0.27653 0.0
H444 H 0.08758 0.56466 0.36706 0.0
H445 H 0.05718 0.50727 0.31983 0.0
O446 O 0.08572 0.59176 0.30762 0.0
C447 C 0.05452 0.53626 0.26892 0.0
O448 O 0.04203 0.54354 0.28462 0.0
N449 N 0.05914 0.60068 0.34193 0.0
C450 C 0.04327 0.63984 0.38095 0.0
C451 C 0.0567 0.64972 0.36539 0.0
C452 C 0.06446 0.62975 0.34578 0.0
C453 C 0.04664 0.5903 0.35793 0.0
C454 C 0.03863 0.60936 0.37768 0.0
H455 H 0.074 0.63828 0.33223 0.0
H456 H 0.04228 0.5675 0.35401 0.0
H457 H 0.07561 0.60019 0.24958 0.0
H458 H 0.0323 0.64555 0.24659 0.0
H459 H 0.09092 0.50826 0.3881 0.0
H460 H 0.06063 0.67312 0.36699 0.0
H461 H 0.02854 0.6005 0.38954 0.0
C462 C 0.75308 0.6252 0.47784 0.0
C463 C 0.75375 0.64026 0.50491 0.0
N464 N 0.74102 0.63246 0.52109 0.0
N465 N 0.73996 0.60806 0.47701 0.0
C466 C 0.73281 0.61327 0.50346 0.0
H467 H 0.76208 0.62529 0.46082 0.0
Co468 Co 0.73443 0.57735 0.45022 0.0
C469 C 0.69957 0.58198 0.45852 0.0
O470 O 0.6992 0.55408 0.46908 0.0
N471 N 0.72897 0.54616 0.42369 0.0
C472 C 0.71719 0.51674 0.38995 0.0
C473 C 0.71745 0.54523 0.403 0.0
C474 C 0.73577 0.51841 0.42229 0.0
N475 N 0.72876 0.49995 0.40215 0.0
O476 O 0.73098 0.55002 0.4838 0.0
H477 H 0.7096 0.56387 0.39796 0.0
H478 H 0.74544 0.5115 0.43639 0.0
O479 O 0.7127 0.59333 0.45021 0.0
C480 C 0.7446 0.54091 0.49187 0.0
O481 O 0.75677 0.5513 0.47695 0.0
N482 N 0.74017 0.60214 0.41799 0.0
C483 C 0.7561 0.63766 0.37552 0.0
C484 C 0.74085 0.64552 0.38521 0.0
C485 C 0.73312 0.62759 0.40679 0.0
C486 C 0.7546 0.59359 0.40816 0.0
C487 C 0.76281 0.61107 0.38744 0.0
H488 H 0.72178 0.63464 0.41499 0.0
H489 H 0.76015 0.57374 0.4178 0.0
H490 H 0.72245 0.60106 0.51065 0.0
H491 H 0.76325 0.65462 0.51258 0.0
H492 H 0.70912 0.50899 0.37284 0.0
H493 H 0.73497 0.6655 0.37659 0.0
H494 H 0.77462 0.60414 0.3819 0.0
C495 C 0.04436 0.16898 0.48221 0.0
C496 C 0.04339 0.15579 0.51008 0.0
N497 N 0.05721 0.15982 0.52422 0.0
N498 N 0.05877 0.18102 0.47868 0.0
C499 C 0.06634 0.17504 0.50457 0.0
H500 H 0.03495 0.17087 0.46607 0.0
Co501 Co 0.06526 0.20645 0.44795 0.0
C502 C 0.09634 0.17642 0.43222 0.0
O503 O 0.09146 0.17189 0.40477 0.0
N504 N 0.07172 0.23362 0.41648 0.0
C505 C 0.0771 0.25245 0.37121 0.0
C506 C 0.07498 0.2265 0.38763 0.0
C507 C 0.07186 0.26463 0.41657 0.0
N508 N 0.07492 0.27658 0.38926 0.0
O509 O 0.06967 0.23693 0.47793 0.0
H510 H 0.07454 0.20405 0.37793 0.0
H511 H 0.06884 0.27844 0.43571 0.0
O512 O 0.08717 0.18937 0.45121 0.0
C513 C 0.0569 0.25145 0.48261 0.0
O514 O 0.04496 0.24632 0.4647 0.0
N515 N 0.05827 0.17723 0.41984 0.0
C516 C 0.04023 0.13755 0.38471 0.0
C517 C 0.05292 0.12661 0.40172 0.0
C518 C 0.0616 0.14677 0.41973 0.0
C519 C 0.04589 0.18801 0.40366 0.0
C520 C 0.03692 0.16878 0.38568 0.0
H521 H 0.07045 0.13773 0.4346 0.0
H522 H 0.04262 0.21174 0.40549 0.0
H523 H 0.07793 0.18363 0.50967 0.0
H524 H 0.03313 0.14493 0.51952 0.0
H525 H 0.07932 0.25334 0.34736 0.0
H526 H 0.05562 0.10252 0.40224 0.0
H527 H 0.02726 0.1783 0.37302 0.0
C528 C 0.79587 0.3726 0.73217 0.0
C529 C 0.79556 0.38484 0.76062 0.0
N530 N 0.8074 0.37257 0.77643 0.0
N531 N 0.80797 0.35288 0.73001 0.0
C532 C 0.81488 0.35383 0.75723 0.0
H533 H 0.78703 0.37595 0.71514 0.0
Co534 Co 0.81187 0.32325 0.70051 0.0
C535 C 0.8434 0.34183 0.67755 0.0
O536 O 0.83819 0.33753 0.65022 0.0
N537 N 0.81585 0.29199 0.67091 0.0
C538 C 0.81745 0.26334 0.62943 0.0
C539 C 0.81448 0.29206 0.64065 0.0
C540 C 0.81986 0.26273 0.67707 0.0
N541 N 0.8208 0.24479 0.6525 0.0
O542 O 0.81568 0.29378 0.73215 0.0
H543 H 0.81158 0.31165 0.62713 0.0
H544 H 0.82178 0.25424 0.69931 0.0
O545 O 0.83431 0.33648 0.69982 0.0
C546 C 0.80269 0.28602 0.74433 0.0
O547 O 0.78973 0.29917 0.7351 0.0
N548 N 0.80558 0.35143 0.67074 0.0
C549 C 0.78866 0.39258 0.63503 0.0
C550 C 0.80336 0.40056 0.64711 0.0
C551 C 0.81154 0.37982 0.66535 0.0
C552 C 0.79131 0.3435 0.65935 0.0
C553 C 0.78285 0.36334 0.64109 0.0
H554 H 0.82211 0.38729 0.67646 0.0
H555 H 0.78626 0.3217 0.66518 0.0
H556 H 0.8244 0.33894 0.76378 0.0
H557 H 0.78642 0.39916 0.76984 0.0
H558 H 0.8172 0.2568 0.60606 0.0
H559 H 0.80815 0.42314 0.64378 0.0
H560 H 0.77167 0.35588 0.63225 0.0
C561 C 0.50255 0.90235 0.72099 0.0
C562 C 0.50483 0.88703 0.74752 0.0
N563 N 0.49534 0.89936 0.76826 0.0
N564 N 0.49142 0.92398 0.72482 0.0
C565 C 0.48739 0.92158 0.75409 0.0
H566 H 0.50863 0.89754 0.70033 0.0
Co567 Co 0.48299 0.95199 0.69703 0.0
C568 C 0.45621 0.90757 0.70887 0.0
O569 O 0.46582 0.88544 0.71626 0.0
N570 N 0.47463 0.98018 0.66969 0.0
C571 C 0.45989 1.00023 0.63371 0.0
C572 C 0.46312 0.97433 0.64979 0.0
C573 C 0.47829 1.00986 0.66508 0.0
N574 N 0.46945 0.02269 0.64328 0.0
O575 O 0.47885 0.97965 0.72969 0.0
H576 H 0.45735 0.95256 0.64711 0.0
H577 H 0.48738 0.0218 0.67718 0.0
O578 O 0.46178 0.93352 0.70104 0.0
C579 C 0.49112 0.99559 0.73463 0.0
O580 O 0.50324 0.9921 0.71681 0.0
N581 N 0.48901 0.92687 0.66468 0.0
C582 C 0.50538 0.89317 0.62126 0.0
C583 C 0.49009 0.88483 0.63011 0.0
C584 C 0.48205 0.90207 0.65183 0.0
C585 C 0.50339 0.93624 0.65512 0.0
C586 C 0.51182 0.91965 0.63391 0.0
H587 H 0.47043 0.89513 0.65827 0.0
H588 H 0.50872 0.95605 0.66535 0.0
H589 H 0.47835 0.9351 0.76467 0.0
H590 H 0.5129 0.86841 0.75136 0.0
H591 H 0.45098 1.00235 0.6166 0.0
H592 H 0.48436 0.86513 0.62046 0.0
H593 H 0.52357 0.92708 0.62845 0.0
C594 C 0.79775 0.90641 0.53963 0.0
C595 C 0.79482 0.89173 0.51298 0.0
N596 N 0.80468 0.90294 0.49227 0.0
N597 N 0.80982 0.92605 0.53599 0.0
C598 C 0.81346 0.92393 0.50655 0.0
H599 H 0.79127 0.90319 0.56018 0.0
Co600 Co 0.81808 0.95347 0.56426 0.0
C601 C 0.84763 0.91604 0.54657 0.0
O602 O 0.84018 0.89551 0.53061 0.0
N603 N 0.82602 0.98168 0.59215 0.0
C604 C 0.84031 1.00251 0.62838 0.0
C605 C 0.83727 0.97623 0.61265 0.0
C606 C 0.82229 1.01142 0.5961 0.0
N607 N 0.83087 0.02479 0.61799 0.0
O608 O 0.82082 0.98278 0.53245 0.0
H609 H 0.84299 0.9545 0.6159 0.0
H610 H 0.81336 0.02306 0.58338 0.0
O611 O 0.83993 0.93771 0.55918 0.0
C612 C 0.80801 0.99725 0.52829 0.0
O613 O 0.79616 0.99168 0.54629 0.0
N614 N 0.81362 0.92571 0.59571 0.0
C615 C 0.79811 0.88481 0.6336 0.0
C616 C 0.81058 0.87507 0.61546 0.0
C617 C 0.81836 0.89599 0.59691 0.0
C618 C 0.80209 0.93582 0.61445 0.0
C619 C 0.79432 0.91584 0.63385 0.0
H620 H 0.82714 0.88755 0.58176 0.0
H621 H 0.79812 0.95915 0.61286 0.0
H622 H 0.82263 0.93706 0.49585 0.0
H623 H 0.78592 0.87461 0.50893 0.0
H624 H 0.84904 1.00497 0.64579 0.0
H625 H 0.81384 0.85125 0.61466 0.0
H626 H 0.78469 0.92421 0.64735 0.0
C627 C 0.50713 0.36799 0.53108 0.0
C628 C 0.50782 0.38458 0.50496 0.0
N629 N 0.49577 0.37595 0.48754 0.0
N630 N 0.49446 0.34951 0.53031 0.0
C631 C 0.48787 0.35472 0.50324 0.0
H632 H 0.51556 0.36893 0.54914 0.0
Co633 Co 0.48835 0.32029 0.5584 0.0
C634 C 0.45638 0.3413 0.57683 0.0
O635 O 0.46035 0.33619 0.60475 0.0
N636 N 0.48228 0.28911 0.5868 0.0
C637 C 0.47902 0.26095 0.62817 0.0
C638 C 0.4824 0.28949 0.61718 0.0
C639 C 0.47849 0.25977 0.58028 0.0
N640 N 0.47667 0.24211 0.60487 0.0
O641 O 0.48518 0.29234 0.52555 0.0
H642 H 0.48486 0.30912 0.63099 0.0
H643 H 0.47756 0.25092 0.55783 0.0
O644 O 0.46626 0.33571 0.55585 0.0
C645 C 0.49797 0.27774 0.52136 0.0
O646 O 0.50957 0.28216 0.54025 0.0
N647 N 0.49393 0.34763 0.58955 0.0
C648 C 0.51015 0.38843 0.62685 0.0
C649 C 0.49616 0.39713 0.6125 0.0
C650 C 0.48835 0.37655 0.59353 0.0
C651 C 0.50746 0.33887 0.60338 0.0
C652 C 0.51555 0.35859 0.62244 0.0
H653 H 0.47852 0.38463 0.58055 0.0
H654 H 0.51231 0.31661 0.59872 0.0
H655 H 0.47763 0.34281 0.49495 0.0
H656 H 0.51677 0.40088 0.49874 0.0
H657 H 0.47846 0.25465 0.65158 0.0
H658 H 0.49175 0.42016 0.61452 0.0
H659 H 0.52621 0.35064 0.63305 0.0
C660 C 0.25474 0.65691 0.28565 0.0
C661 C 0.25505 0.64089 0.25911 0.0
N662 N 0.24147 0.646 0.24447 0.0
N663 N 0.24097 0.67183 0.2878 0.0
C664 C 0.23316 0.66468 0.26248 0.0
H665 H 0.26423 0.65883 0.30163 0.0
Co666 Co 0.23531 0.7021 0.31508 0.0
C667 C 0.20355 0.67345 0.32926 0.0
O668 O 0.20802 0.66568 0.35633 0.0
N669 N 0.22968 0.73403 0.34157 0.0
C670 C 0.21767 0.76733 0.37152 0.0
C671 C 0.21768 0.73778 0.36099 0.0
C672 C 0.23688 0.76149 0.34127 0.0
N673 N 0.22969 0.78238 0.35876 0.0
O674 O 0.2328 0.73003 0.28174 0.0
H675 H 0.20899 0.72091 0.3664 0.0
H676 H 0.24709 0.76628 0.32782 0.0
O677 O 0.21289 0.68837 0.31207 0.0
C678 C 0.24656 0.73845 0.27377 0.0
O679 O 0.25857 0.72729 0.2886 0.0
N680 N 0.24036 0.67557 0.34752 0.0
C681 C 0.25737 0.63767 0.38643 0.0
C682 C 0.24625 0.62542 0.36657 0.0
C683 C 0.23805 0.64469 0.347 0.0
C684 C 0.25075 0.68777 0.3675 0.0
C685 C 0.25918 0.66937 0.38726 0.0
H686 H 0.23058 0.63456 0.33013 0.0
H687 H 0.25351 0.71175 0.36681 0.0
H688 H 0.22211 0.67504 0.25629 0.0
H689 H 0.26478 0.62757 0.25074 0.0
H690 H 0.20892 0.77731 0.38609 0.0
H691 H 0.24463 0.60103 0.36477 0.0
H692 H 0.26757 0.67992 0.40226 0.0
C693 C 0.54414 0.10791 0.28007 0.0
C694 C 0.54203 0.12305 0.25334 0.0
N695 N 0.55536 0.12073 0.23722 0.0
N696 N 0.55877 0.09642 0.28087 0.0
C697 C 0.5653 0.10456 0.25455 0.0
H698 H 0.53538 0.10437 0.29724 0.0
Co699 Co 0.56701 0.06884 0.3081 0.0
C700 C 0.59768 0.09792 0.3229 0.0
O701 O 0.5936 0.09567 0.35122 0.0
N702 N 0.57515 0.03865 0.33449 0.0
C703 C 0.59081 1.00138 0.35055 0.0
C704 C 0.59023 0.02951 0.33732 0.0
C705 C 0.56682 0.01482 0.34564 0.0
N706 N 0.57606 0.99173 0.3553 0.0
O707 O 0.57009 0.04096 0.27529 0.0
H708 H 0.60028 0.04034 0.32736 0.0
H709 H 0.55422 1.01306 0.34382 0.0
O710 O 0.58838 0.08749 0.30268 0.0
C711 C 0.55763 0.02519 0.27182 0.0
O712 O 0.54605 0.02906 0.29083 0.0
N713 N 0.56199 0.09623 0.3401 0.0
C714 C 0.54662 0.13795 0.37766 0.0
C715 C 0.55696 0.14802 0.3554 0.0
C716 C 0.56456 0.12688 0.33697 0.0
C717 C 0.55233 0.08607 0.36239 0.0
C718 C 0.54476 0.10651 0.38174 0.0
H719 H 0.57163 0.13536 0.3187 0.0
H720 H 0.5495 0.06223 0.36407 0.0
H721 H 0.57673 0.09676 0.24739 0.0
H722 H 0.53134 0.13401 0.24601 0.0
H723 H 0.60133 0.98814 0.35419 0.0
H724 H 0.55869 0.17213 0.35148 0.0
H725 H 0.53669 0.09784 0.39842 0.0
C726 C 0.25224 0.12108 0.48532 0.0
C727 C 0.25204 0.13154 0.51443 0.0
N728 N 0.24044 0.1171 0.5291 0.0
N729 N 0.24068 0.1004 0.48164 0.0
C730 C 0.23364 0.09874 0.50868 0.0
H731 H 0.26089 0.12686 0.46856 0.0
Co732 Co 0.2369 0.07417 0.44941 0.0
C733 C 0.20392 0.09262 0.43152 0.0
O734 O 0.20772 0.0915 0.4031 0.0
N735 N 0.23329 0.04653 0.41666 0.0
C736 C 0.23195 0.02661 0.37066 0.0
C737 C 0.23232 0.05301 0.38704 0.0
C738 C 0.2335 0.01554 0.4173 0.0
N739 N 0.23283 1.00296 0.38966 0.0
O740 O 0.23384 0.04136 0.47766 0.0
H741 H 0.23248 0.07555 0.37737 0.0
H742 H 0.23501 1.0022 0.43741 0.0
O743 O 0.21427 0.08609 0.45137 0.0
C744 C 0.24757 0.0322 0.48491 0.0
O745 O 0.25962 0.04486 0.47143 0.0
N746 N 0.24245 0.10557 0.42276 0.0
C747 C 0.25831 0.14927 0.38863 0.0
C748 C 0.24347 0.15565 0.40103 0.0
C749 C 0.2358 0.13355 0.41856 0.0
C750 C 0.25679 0.09919 0.41087 0.0
C751 C 0.26479 0.12042 0.39354 0.0
H752 H 0.22498 0.13943 0.42972 0.0
H753 H 0.26221 0.07741 0.41544 0.0
H754 H 0.22427 0.08296 0.51382 0.0
H755 H 0.26053 0.14668 0.52462 0.0
H756 H 0.2315 0.02502 0.34647 0.0
H757 H 0.23817 0.17787 0.39825 0.0
H758 H 0.2761 0.11428 0.38427 0.0
C759 C 0.54633 0.65 0.48262 0.0
C760 C 0.54615 0.63984 0.51187 0.0
N761 N 0.55709 0.65541 0.52724 0.0
N762 N 0.55741 0.67184 0.47964 0.0
C763 C 0.56391 0.67401 0.50718 0.0
H764 H 0.53819 0.64309 0.4654 0.0
Co765 Co 0.56154 0.69969 0.44836 0.0
C766 C 0.59059 0.66092 0.45409 0.0
O767 O 0.58162 0.63769 0.46117 0.0
N768 N 0.56548 0.72803 0.41816 0.0
C769 C 0.5761 0.75431 0.38083 0.0
C770 C 0.57566 0.72648 0.39512 0.0
C771 C 0.55971 0.75668 0.41714 0.0
N772 N 0.56611 0.77341 0.39487 0.0
O773 O 0.56556 0.73138 0.47787 0.0
H774 H 0.58273 0.70679 0.38974 0.0
H775 H 0.55157 0.76561 0.43348 0.0
O776 O 0.5842 0.68669 0.44777 0.0
C777 C 0.55251 0.73947 0.48964 0.0
O778 O 0.53964 0.72549 0.48109 0.0
N779 N 0.5551 0.67108 0.41931 0.0
C780 C 0.53795 0.6328 0.38109 0.0
C781 C 0.55433 0.62968 0.38392 0.0
C782 C 0.56277 0.6493 0.40306 0.0
C783 C 0.53946 0.67564 0.41512 0.0
C784 C 0.53068 0.65676 0.39648 0.0
H785 H 0.57531 0.64679 0.40461 0.0
H786 H 0.53364 0.6937 0.4273 0.0
H787 H 0.57295 0.69027 0.51296 0.0
H788 H 0.53779 0.62414 0.52159 0.0
H789 H 0.58348 0.76015 0.36197 0.0
H790 H 0.56052 0.61189 0.37199 0.0
H791 H 0.51821 0.66091 0.39428 0.0
C792 C 0.79589 0.8776 0.2317 0.0
C793 C 0.79561 0.88958 0.26027 0.0
N794 N 0.80772 0.87779 0.27568 0.0
N795 N 0.80824 0.85854 0.22912 0.0
C796 C 0.81532 0.8596 0.25616 0.0
H797 H 0.78687 0.88044 0.21492 0.0
Co798 Co 0.81205 0.82896 0.19959 0.0
C799 C 0.84368 0.8478 0.17746 0.0
O800 O 0.83838 0.84474 0.15005 0.0
N801 N 0.81582 0.79749 0.16997 0.0
C802 C 0.81848 0.76908 0.12846 0.0
C803 C 0.81616 0.79808 0.13959 0.0
C804 C 0.81788 0.7675 0.17627 0.0
N805 N 0.81959 0.74978 0.15172 0.0
O806 O 0.81538 0.79935 0.23125 0.0
H807 H 0.81478 0.8182 0.12593 0.0
H808 H 0.81769 0.75827 0.19851 0.0
O809 O 0.83466 0.84133 0.19956 0.0
C810 C 0.80229 0.79214 0.24339 0.0
O811 O 0.78948 0.80567 0.23392 0.0
N812 N 0.80648 0.85772 0.16982 0.0
C813 C 0.79092 0.90135 0.13511 0.0
C814 C 0.8047 0.90884 0.15064 0.0
C815 C 0.81233 0.88668 0.16795 0.0
C816 C 0.79296 0.85034 0.15515 0.0
C817 C 0.78524 0.8715 0.13706 0.0
H818 H 0.82224 0.89343 0.18149 0.0
H819 H 0.78777 0.82811 0.15844 0.0
H820 H 0.82495 0.84485 0.26243 0.0
H821 H 0.78628 0.90316 0.26988 0.0
H822 H 0.81936 0.76285 0.10506 0.0
H823 H 0.80927 0.93186 0.15014 0.0
H824 H 0.77442 0.86504 0.12603 0.0
C825 C 0.50015 0.41126 0.22726 0.0
C826 C 0.50183 0.39996 0.25595 0.0
N827 N 0.48966 0.40985 0.27249 0.0
N828 N 0.48685 0.42785 0.22577 0.0
C829 C 0.48071 0.42631 0.25361 0.0
H830 H 0.50859 0.4092 0.20929 0.0
Co831 Co 0.47989 0.45437 0.19573 0.0
C832 C 0.44534 0.44183 0.20949 0.0
O833 O 0.4434 0.46626 0.22607 0.0
N834 N 0.47269 0.48158 0.16625 0.0
C835 C 0.45954 0.50163 0.12811 0.0
C836 C 0.46216 0.4756 0.14451 0.0
C837 C 0.47635 0.51139 0.16251 0.0
N838 N 0.46846 0.52424 0.13947 0.0
O839 O 0.47613 0.4848 0.22633 0.0
H840 H 0.45662 0.45373 0.14094 0.0
H841 H 0.48471 0.52347 0.17627 0.0
O842 O 0.45879 0.43621 0.19805 0.0
C843 C 0.48954 0.497 0.23109 0.0
O844 O 0.50133 0.4883 0.21412 0.0
N845 N 0.48563 0.42583 0.1659 0.0
C846 C 0.50049 0.38472 0.12725 0.0
C847 C 0.48903 0.3747 0.1476 0.0
C848 C 0.48159 0.39571 0.16658 0.0
C849 C 0.49652 0.43597 0.14585 0.0
C850 C 0.50388 0.4159 0.12598 0.0
H851 H 0.47339 0.38748 0.18317 0.0
H852 H 0.50006 0.45962 0.14613 0.0
H853 H 0.47042 0.43888 0.26055 0.0
H854 H 0.51186 0.38768 0.2646 0.0
H855 H 0.45142 0.50377 0.10961 0.0
H856 H 0.48617 0.35073 0.14936 0.0
H857 H 0.5128 0.42446 0.11089 0.0
C858 C 0.79211 0.41312 0.03663 0.0
C859 C 0.7903 0.39675 0.01052 0.0
N860 N 0.8019 0.4048 0.99173 0.0
N861 N 0.80499 0.43089 0.03439 0.0
C862 C 0.81061 0.42545 0.0066 0.0
H863 H 0.78441 0.41231 0.05585 0.0
Co864 Co 0.81304 0.45848 0.0624 0.0
C865 C 0.84759 0.4511 0.05447 0.0
O866 O 0.84933 0.48083 0.0543 0.0
N867 N 0.82107 0.48639 0.09043 0.0
C868 C 0.83407 0.50617 0.12887 0.0
C869 C 0.83102 0.48001 0.11303 0.0
C870 C 0.81808 0.51657 0.09326 0.0
N871 N 0.82589 0.5293 0.11656 0.0
O872 O 0.8164 0.48748 0.03048 0.0
H873 H 0.83582 0.4577 0.11761 0.0
H874 H 0.81011 0.52883 0.07881 0.0
O875 O 0.83389 0.43963 0.05725 0.0
C876 C 0.80295 0.49862 0.02412 0.0
O877 O 0.79086 0.48988 0.04025 0.0
N878 N 0.80782 0.43154 0.09355 0.0
C879 C 0.7922 0.39267 0.13324 0.0
C880 C 0.80538 0.38253 0.11708 0.0
C881 C 0.81303 0.40235 0.09712 0.0
C882 C 0.79558 0.44214 0.11015 0.0
C883 C 0.78767 0.42321 0.13015 0.0
H884 H 0.82242 0.39371 0.08328 0.0
H885 H 0.79139 0.46512 0.10662 0.0
H886 H 0.82088 0.4365 0.99737 0.0
H887 H 0.78099 0.38082 1.00539 0.0
H888 H 0.84191 0.50789 0.14785 0.0
H889 H 0.80923 0.35908 0.11861 0.0
H890 H 0.77778 0.43226 0.14248 0.0
C891 C 0.50007 0.87298 0.02926 0.0
C892 C 0.50092 0.88506 1.00079 0.0
N893 N 0.48887 0.87397 0.98467 0.0
N894 N 0.48742 0.85457 0.03109 0.0
C895 C 0.48073 0.85615 1.00371 0.0
H896 H 0.50892 0.87519 0.04648 0.0
Co897 Co 0.48296 0.82462 0.05996 0.0
C898 C 0.451 0.84485 0.07994 0.0
O899 O 0.45572 0.84334 0.10785 0.0
N900 N 0.47852 0.79283 0.08877 0.0
C901 C 0.47428 0.76408 0.1295 0.0
C902 C 0.47654 0.79331 0.11891 0.0
C903 C 0.47759 0.76271 0.08208 0.0
N904 N 0.47488 0.74481 0.10612 0.0
O905 O 0.47987 0.79561 0.02768 0.0
H906 H 0.47693 0.81346 0.1328 0.0
H907 H 0.47937 0.75352 0.06006 0.0
O908 O 0.46045 0.83747 0.05881 0.0
C909 C 0.49307 0.78862 0.01589 0.0
O910 O 0.50581 0.80178 0.02621 0.0
N911 N 0.48827 0.8527 0.09059 0.0
C912 C 0.50386 0.89496 0.12694 0.0
C913 C 0.49069 0.90363 0.11013 0.0
C914 C 0.48301 0.88211 0.09207 0.0
C915 C 0.50115 0.84416 0.10667 0.0
C916 C 0.50885 0.86465 0.12557 0.0
H917 H 0.4736 0.88962 0.07766 0.0
H918 H 0.50594 0.82153 0.1038 0.0
H919 H 0.471 0.8419 0.99686 0.0
H920 H 0.51058 0.89814 0.99174 0.0
H921 H 0.47228 0.75764 0.15258 0.0
H922 H 0.4867 0.92705 0.11019 0.0
H923 H 0.5192 0.85731 0.13763 0.0
C924 C 0.2543 0.15509 0.78808 0.0
C925 C 0.25475 0.13723 0.76274 0.0
N926 N 0.24321 0.14649 0.74438 0.0
N927 N 0.24231 0.17508 0.78583 0.0
C928 C 0.23588 0.16937 0.75876 0.0
H929 H 0.26248 0.15399 0.80653 0.0
Co930 Co 0.23653 0.2062 0.81206 0.0
C931 C 0.20357 0.18955 0.82884 0.0
O932 O 0.20682 0.19645 0.85677 0.0
N933 N 0.23078 0.23906 0.83865 0.0
C934 C 0.22856 0.2697 0.87855 0.0
C935 C 0.23082 0.24022 0.86901 0.0
C936 C 0.22794 0.26837 0.83066 0.0
N937 N 0.22698 0.28756 0.8543 0.0
O938 O 0.23447 0.23272 0.77775 0.0
H939 H 0.23281 0.22113 0.88376 0.0
H940 H 0.22689 0.27593 0.80779 0.0
O941 O 0.21426 0.19257 0.80884 0.0
C942 C 0.24751 0.24655 0.77383 0.0
O943 O 0.25868 0.24272 0.79375 0.0
N944 N 0.24112 0.18036 0.84457 0.0
C945 C 0.25714 0.14044 0.88266 0.0
C946 C 0.24261 0.1322 0.8701 0.0
C947 C 0.23486 0.15237 0.85064 0.0
C948 C 0.25501 0.18885 0.85721 0.0
C949 C 0.26306 0.16954 0.87656 0.0
H950 H 0.22457 0.14452 0.83882 0.0
H951 H 0.26027 0.21035 0.85099 0.0
H952 H 0.22621 0.1822 0.74942 0.0
H953 H 0.2633 0.11979 0.75755 0.0
H954 H 0.22892 0.27748 0.90155 0.0
H955 H 0.23778 0.10969 0.87373 0.0
H956 H 0.27415 0.17701 0.88584 0.0
C957 C 0.54669 0.6272 0.78857 0.0
C958 C 0.54606 0.64448 0.76294 0.0
N959 N 0.55684 0.63367 0.74375 0.0
N960 N 0.55802 0.60586 0.7857 0.0
C961 C 0.56395 0.61043 0.75799 0.0
H962 H 0.53896 0.62966 0.80757 0.0
Co963 Co 0.56349 0.57442 0.81211 0.0
C964 C 0.59681 0.59022 0.8292 0.0
O965 O 0.59419 0.58176 0.85693 0.0
N966 N 0.56885 0.54181 0.8388 0.0
C967 C 0.57193 0.51271 0.87948 0.0
C968 C 0.56891 0.54158 0.86919 0.0
C969 C 0.57201 0.51243 0.83146 0.0
N970 N 0.57382 0.49433 0.8557 0.0
O971 O 0.56625 0.54762 0.77809 0.0
H972 H 0.56689 0.56107 0.88345 0.0
H973 H 0.57245 0.50393 0.80877 0.0
O974 O 0.5857 0.5884 0.80991 0.0
C975 C 0.55265 0.53805 0.77043 0.0
O976 O 0.54053 0.54758 0.78599 0.0
N977 N 0.55825 0.59973 0.84453 0.0
C978 C 0.54182 0.63551 0.88613 0.0
C979 C 0.55698 0.64388 0.87634 0.0
C980 C 0.56492 0.62592 0.85502 0.0
C981 C 0.54374 0.59114 0.85402 0.0
C982 C 0.53535 0.6086 0.87441 0.0
H983 H 0.57598 0.63377 0.84619 0.0
H984 H 0.53834 0.57107 0.84445 0.0
H985 H 0.57306 0.59653 0.7481 0.0
H986 H 0.5378 0.66256 0.75816 0.0
H987 H 0.57264 0.50581 0.90271 0.0
H988 H 0.56258 0.66438 0.88451 0.0
H989 H 0.52355 0.60141 0.87979 0.0
C990 C 0.24967 0.61736 0.98448 0.0
C991 C 0.2506 0.62784 0.01342 0.0
N992 N 0.23764 0.61882 0.0282 0.0
N993 N 0.2361 0.60201 0.98086 0.0
C994 C 0.22895 0.60352 0.00784 0.0
H995 H 0.25876 0.61922 0.96771 0.0
Co996 Co 0.2309 0.57694 0.94849 0.0
C997 C 0.19927 0.60395 0.93177 0.0
O998 O 0.20434 0.60895 0.90452 0.0
N999 N 0.2259 0.55054 0.91562 0.0
C1000 C 0.22202 0.53222 0.86956 0.0
C1001 C 0.22325 0.55802 0.88663 0.0
C1002 C 0.22639 0.51959 0.91517 0.0
N1003 N 0.22414 0.50795 0.88741 0.0
O1004 O 0.22692 0.54412 0.97641 0.0
H1005 H 0.22337 0.58074 0.8775 0.0
H1006 H 0.22926 0.50575 0.93439 0.0
O1007 O 0.20851 0.5916 0.95102 0.0
C1008 C 0.24038 0.5348 0.98526 0.0
O1009 O 0.25298 0.54735 0.97366 0.0
N1010 N 0.2375 0.60791 0.92215 0.0
C1011 C 0.25551 0.65003 0.89011 0.0
C1012 C 0.24196 0.65933 0.90561 0.0
C1013 C 0.23325 0.63793 0.9221 0.0
C1014 C 0.25066 0.59874 0.90731 0.0
C1015 C 0.25964 0.61919 0.89085 0.0
H1016 H 0.22367 0.64569 0.93599 0.0
H1017 H 0.25453 0.57537 0.90914 0.0
H1018 H 0.21824 0.59143 0.01307 0.0
H1019 H 0.26039 0.64003 0.02314 0.0
H1020 H 0.22031 0.53153 0.84555 0.0
H1021 H 0.23857 0.68309 0.90617 0.0
H1022 H 0.26993 0.6109 0.87921 0.0
C1023 C 0.53886 0.16908 0.97998 0.0
C1024 C 0.53801 0.15714 0.00844 0.0
N1025 N 0.55156 0.16338 0.0228 0.0
N1026 N 0.55293 0.18249 0.97631 0.0
C1027 C 0.56039 0.17867 1.00269 0.0
H1028 H 0.52961 0.16893 0.9634 0.0
Co1029 Co 0.55942 0.20648 0.94451 0.0
C1030 C 0.59126 0.18113 0.93029 0.0
O1031 O 0.58699 0.17853 0.9022 0.0
N1032 N 0.566 0.23227 0.91191 0.0
C1033 C 0.57149 0.25104 0.86655 0.0
C1034 C 0.56725 0.22558 0.88234 0.0
C1035 C 0.5697 0.26237 0.91311 0.0
N1036 N 0.57297 0.2743 0.8859 0.0
O1037 O 0.56297 0.23875 0.97309 0.0
H1038 H 0.56519 0.2036 0.87225 0.0
H1039 H 0.57004 0.27559 0.93348 0.0
O1040 O 0.58141 0.19139 0.94956 0.0
C1041 C 0.55069 0.25515 0.97618 0.0
O1042 O 0.53907 0.25128 0.95722 0.0
N1043 N 0.55354 0.1749 0.91791 0.0
C1044 C 0.53818 0.13026 0.8841 0.0
C1045 C 0.5508 0.12251 0.90281 0.0
C1046 C 0.55832 0.14522 0.91971 0.0
C1047 C 0.54081 0.18235 0.90089 0.0
C1048 C 0.5333 0.16065 0.88312 0.0
H1049 H 0.56744 0.13874 0.93527 0.0
H1050 H 0.53635 0.20541 0.9014 0.0
H1051 H 0.57171 0.18861 0.00756 0.0
H1052 H 0.52803 0.14538 0.01792 0.0
H1053 H 0.57289 0.25244 0.84249 0.0
H1054 H 0.55463 0.09907 0.9047 0.0
H1055 H 0.52332 0.16734 0.86963 0.0
H1056 H 0.30704 0.42518 0.31072 0.0
H1057 H 0.31347 0.32753 0.3031 0.0
H1058 H 0.31433 0.32312 0.35806 0.0
H1059 H 0.33317 0.43504 0.37559 0.0
H1060 H 0.32107 0.46388 0.39266 0.0
H1061 H 0.32137 0.4597 0.3525 0.0
H1062 H 0.29118 0.45331 0.35231 0.0
H1063 H 0.29081 0.45736 0.39246 0.0
H1064 H 0.28233 0.42411 0.37511 0.0
H1065 H 0.3124 0.32835 0.41329 0.0
H1066 H 0.31007 0.34381 0.46643 0.0
H1067 H 0.30662 0.43833 0.4396 0.0
C1068 C 0.30881 0.40303 0.32078 0.0
C1069 C 0.31039 0.37676 0.30272 0.0
C1070 C 0.31257 0.34801 0.31651 0.0
C1071 C 0.31297 0.34524 0.34771 0.0
C1072 C 0.31134 0.37149 0.36491 0.0
C1073 C 0.30951 0.39992 0.35206 0.0
C1074 C 0.30805 0.42438 0.37597 0.0
C1075 C 0.32173 0.44709 0.37406 0.0
C1076 C 0.29215 0.44075 0.37383 0.0
C1077 C 0.30909 0.40513 0.40412 0.0
C1078 C 0.31085 0.37465 0.39712 0.0
C1079 C 0.31124 0.35217 0.41911 0.0
C1080 C 0.30984 0.36107 0.44912 0.0
C1081 C 0.30832 0.39214 0.45686 0.0
C1082 C 0.30804 0.41447 0.4341 0.0
H1083 H 0.99239 0.84685 0.44885 0.0
H1084 H 0.99634 0.94009 0.47954 0.0
H1085 H 0.99466 0.95827 0.42709 0.0
H1086 H 1.01686 0.85644 0.38472 0.0
H1087 H 1.00582 0.83096 0.36107 0.0
H1088 H 1.00597 0.8254 0.40104 0.0
H1089 H 0.97565 0.82773 0.40205 0.0
H1090 H 0.97538 0.83314 0.36204 0.0
H1091 H 0.96575 0.86022 0.38619 0.0
H1092 H 0.99265 0.96615 0.37166 0.0
H1093 H 0.99206 0.96332 0.31637 0.0
H1094 H 0.99131 0.86475 0.32091 0.0
C1095 C 0.9926 0.87108 0.44439 0.0
C1096 C 0.99423 0.89225 0.46804 0.0
C1097 C 0.99497 0.92372 0.46157 0.0
C1098 C 0.99401 0.93416 0.43195 0.0
C1099 C 0.99256 0.91274 0.40905 0.0
C1100 C 0.99199 0.88183 0.41485 0.0
C1101 C 0.99141 0.86357 0.38599 0.0
C1102 C 1.00588 0.84288 0.38304 0.0
C1103 C 0.97614 0.84508 0.38395 0.0
C1104 C 0.99172 0.88905 0.36307 0.0
C1105 C 0.99218 0.91722 0.37692 0.0
C1106 C 0.99228 0.94423 0.36057 0.0
C1107 C 0.99188 0.94243 0.32924 0.0
C1108 C 0.99161 0.91384 0.31454 0.0
C1109 C 0.99161 0.88683 0.33171 0.0
H1110 H 0.3035 0.92134 0.81191 0.0
H1111 H 0.30935 0.82344 0.80694 0.0
H1112 H 0.30921 0.82028 0.86209 0.0
H1113 H 0.32882 0.93201 0.87731 0.0
H1114 H 0.31685 0.96167 0.89334 0.0
H1115 H 0.31741 0.95645 0.85331 0.0
H1116 H 0.28717 0.95094 0.8524 0.0
H1117 H 0.28655 0.95611 0.89242 0.0
H1118 H 0.27792 0.92267 0.87573 0.0
H1119 H 0.3069 0.82705 0.91718 0.0
H1120 H 0.30447 0.84399 0.96985 0.0
H1121 H 0.30196 0.93787 0.94056 0.0
C1122 C 0.30485 0.89939 0.82263 0.0
C1123 C 0.30657 0.87264 0.80532 0.0
C1124 C 0.30827 0.84419 0.81988 0.0
C1125 C 0.30811 0.84217 0.85116 0.0
C1126 C 0.30646 0.86889 0.86765 0.0
C1127 C 0.30503 0.89703 0.85403 0.0
C1128 C 0.30362 0.92216 0.87729 0.0
C1129 C 0.31751 0.94438 0.87518 0.0
C1130 C 0.28788 0.93895 0.87427 0.0
C1131 C 0.30428 0.90364 0.90597 0.0
C1132 C 0.30578 0.87293 0.89978 0.0
C1133 C 0.3059 0.85105 0.92236 0.0
C1134 C 0.30446 0.8608 0.95212 0.0
C1135 C 0.30316 0.89211 0.95907 0.0
C1136 C 0.30319 0.91383 0.93571 0.0
H1137 H 0.98988 0.42204 0.94802 0.0
H1138 H 0.98262 0.32461 0.95479 0.0
H1139 H 0.98262 0.32038 0.89967 0.0
H1140 H 0.96472 0.43293 0.88189 0.0
H1141 H 0.97729 0.46159 0.86579 0.0
H1142 H 0.97633 0.45711 0.90588 0.0
H1143 H 1.00645 0.45006 0.90763 0.0
H1144 H 1.00746 0.45416 0.86755 0.0
H1145 H 1.01544 0.4207 0.8852 0.0
H1146 H 0.98547 0.32597 0.84441 0.0
H1147 H 0.98876 0.34183 0.79155 0.0
H1148 H 0.99226 0.43605 0.81949 0.0
C1149 C 0.98808 0.39999 0.93772 0.0
C1150 C 0.98608 0.37369 0.9555 0.0
C1151 C 0.98388 0.34506 0.94148 0.0
C1152 C 0.98395 0.34242 0.91023 0.0
C1153 C 0.98598 0.36873 0.89327 0.0
C1154 C 0.98778 0.39705 0.90641 0.0
C1155 C 0.98976 0.42163 0.88283 0.0
C1156 C 0.97621 0.44467 0.88419 0.0
C1157 C 1.00573 0.43756 0.88601 0.0
C1158 C 0.98902 0.40261 0.85448 0.0
C1159 C 0.98698 0.37211 0.86111 0.0
C1160 C 0.98684 0.34981 0.83888 0.0
C1161 C 0.98877 0.35894 0.80904 0.0
C1162 C 0.99058 0.39005 0.8017 0.0
C1163 C 0.9906 0.41218 0.82468 0.0
H1164 H 0.7645 0.65659 0.69168 0.0
H1165 H 0.71517 0.64696 0.71347 0.0
H1166 H 0.709 0.64107 0.65974 0.0
H1167 H 0.75947 0.69963 0.62507 0.0
H1168 H 0.77523 0.68139 0.60502 0.0
H1169 H 0.77592 0.6841 0.64526 0.0
H1170 H 0.77906 0.62552 0.64935 0.0
H1171 H 0.77864 0.62267 0.60911 0.0
H1172 H 0.76496 0.60102 0.63131 0.0
H1173 H 0.70814 0.63746 0.60362 0.0
H1174 H 0.71284 0.63316 0.5492 0.0
H1175 H 0.7628 0.64403 0.56433 0.0
C1176 C 0.75244 0.6527 0.68526 0.0
C1177 C 0.74031 0.65228 0.70683 0.0
C1178 C 0.72463 0.64769 0.69732 0.0
C1179 C 0.72101 0.64427 0.66688 0.0
C1180 C 0.73321 0.64545 0.64619 0.0
C1181 C 0.74862 0.64927 0.65497 0.0
C1182 C 0.75953 0.64976 0.62821 0.0
C1183 C 0.76803 0.68055 0.62575 0.0
C1184 C 0.77124 0.62316 0.62958 0.0
C1185 C 0.74784 0.64558 0.60302 0.0
C1186 C 0.73272 0.64326 0.61386 0.0
C1187 C 0.71994 0.6391 0.59487 0.0
C1188 C 0.72273 0.63662 0.56402 0.0
C1189 C 0.73818 0.6382 0.55242 0.0
C1190 C 0.75083 0.64317 0.57231 0.0
H1191 H 0.03763 0.13497 0.69592 0.0
H1192 H 0.08735 0.12187 0.7119 0.0
H1193 H 0.09252 0.12944 0.65785 0.0
H1194 H 0.03575 0.09651 0.62604 0.0
H1195 H 1.02176 0.12255 0.60994 0.0
H1196 H 1.02211 0.11649 0.64982 0.0
H1197 H 0.02565 0.17449 0.6586 0.0
H1198 H 0.02519 0.18074 0.61874 0.0
H1199 H 0.0416 0.19418 0.64049 0.0
H1200 H 0.09204 0.13874 0.60153 0.0
H1201 H 0.08593 0.14866 0.54821 0.0
H1202 H 0.03658 0.15615 0.57045 0.0
C1203 C 0.04965 0.13411 0.68828 0.0
C1204 C 0.0621 0.12795 0.70829 0.0
C1205 C 0.07761 0.12633 0.697 0.0
C1206 C 0.08066 0.13072 0.66636 0.0
C1207 C 0.06807 0.13666 0.64731 0.0
C1208 C 0.05288 0.13838 0.65792 0.0
C1209 C 0.04136 0.14478 0.63296 0.0
C1210 C 0.02955 0.11851 0.62949 0.0
C1211 C 0.03296 0.17537 0.638 0.0
C1212 C 0.05241 0.14635 0.60654 0.0
C1213 C 0.06778 0.1417 0.61519 0.0
C1214 C 0.08004 0.14243 0.59455 0.0
C1215 C 0.07647 0.14818 0.56435 0.0
C1216 C 0.06078 0.15303 0.55507 0.0
C1217 C 0.04866 0.152 0.57661 0.0
H1218 H 0.76648 0.14978 0.19398 0.0
H1219 H 0.71679 0.15536 0.21445 0.0
H1220 H 0.71067 0.15196 0.16062 0.0
H1221 H 0.76585 0.19348 0.12714 0.0
H1222 H 0.77989 0.17012 0.10757 0.0
H1223 H 0.78053 0.17275 0.14782 0.0
H1224 H 0.77836 0.114 0.15211 0.0
H1225 H 0.77799 0.11118 0.11186 0.0
H1226 H 0.76242 0.09454 0.13371 0.0
H1227 H 0.70992 0.14943 0.10457 0.0
H1228 H 0.71451 0.14346 0.05031 0.0
H1229 H 0.76457 0.13724 0.06655 0.0
C1230 C 0.7543 0.14983 0.18732 0.0
C1231 C 0.74214 0.15316 0.20863 0.0
C1232 C 0.72635 0.15344 0.19864 0.0
C1233 C 0.72274 0.15141 0.16808 0.0
C1234 C 0.73502 0.14887 0.14771 0.0
C1235 C 0.75047 0.14765 0.1569 0.0
C1236 C 0.76144 0.14437 0.13041 0.0
C1237 C 0.77258 0.17182 0.12811 0.0
C1238 C 0.77059 0.11423 0.13213 0.0
C1239 C 0.74974 0.14406 0.1049 0.0
C1240 C 0.73457 0.14683 0.11538 0.0
C1241 C 0.72174 0.14702 0.0961 0.0
C1242 C 0.72446 0.14356 0.06533 0.0
C1243 C 0.73988 0.13976 0.05408 0.0
C1244 C 0.75267 0.1405 0.07425 0.0
H1245 H 0.03358 0.63324 0.19484 0.0
H1246 H 0.08371 0.63481 0.21118 0.0
H1247 H 0.08849 0.63967 0.1568 0.0
H1248 H 0.03474 0.58916 0.12854 0.0
H1249 H 1.01921 0.60961 0.10998 0.0
H1250 H 1.01964 0.60752 0.15026 0.0
H1251 H 1.01912 0.66647 0.15383 0.0
H1252 H 1.01842 0.66873 0.11357 0.0
H1253 H 0.03363 0.68839 0.13388 0.0
H1254 H 0.08775 0.64296 0.10048 0.0
H1255 H 0.08152 0.64688 0.04656 0.0
H1256 H 0.03187 0.6438 0.06746 0.0
C1257 C 0.04555 0.63522 0.18711 0.0
C1258 C 0.05829 0.63369 0.20731 0.0
C1259 C 0.07379 0.63569 0.19609 0.0
C1260 C 0.07662 0.63851 0.16526 0.0
C1261 C 0.0638 0.63932 0.14594 0.0
C1262 C 0.04858 0.63798 0.15644 0.0
C1263 C 0.03688 0.6389 0.13094 0.0
C1264 C 0.02704 0.60955 0.12988 0.0
C1265 C 0.0264 0.66732 0.1332 0.0
C1266 C 0.0479 0.64089 0.10446 0.0
C1267 C 0.06338 0.64109 0.11357 0.0
C1268 C 0.07567 0.64296 0.0931 0.0
C1269 C 0.07202 0.64522 0.06254 0.0
C1270 C 0.05622 0.64561 0.05273 0.0
C1271 C 0.04406 0.64307 0.07409 0.0
H1272 H 0.80449 0.43974 0.94219 0.0
H1273 H 0.80357 0.34653 0.97352 0.0
H1274 H 0.80659 0.32809 0.92128 0.0
H1275 H 0.78102 0.42587 0.87728 0.0
H1276 H 0.79123 0.4528 0.85388 0.0
H1277 H 0.79046 0.45858 0.89379 0.0
H1278 H 0.82077 0.46094 0.89576 0.0
H1279 H 0.82166 0.45513 0.85582 0.0
H1280 H 0.8321 0.42988 0.8806 0.0
H1281 H 0.80968 0.32005 0.86606 0.0
H1282 H 0.81004 0.3224 0.81078 0.0
H1283 H 0.80669 0.42078 0.81448 0.0
C1284 C 0.80517 0.41551 0.93787 0.0
C1285 C 0.80406 0.39438 0.96157 0.0
C1286 C 0.80452 0.36283 0.95542 0.0
C1287 C 0.80628 0.35227 0.92595 0.0
C1288 C 0.80728 0.37365 0.90295 0.0
C1289 C 0.80653 0.40461 0.90848 0.0
C1290 C 0.80666 0.42264 0.87952 0.0
C1291 C 0.79144 0.44105 0.87591 0.0
C1292 C 0.82117 0.44337 0.87784 0.0
C1293 C 0.80761 0.39698 0.85684 0.0
C1294 C 0.80822 0.36895 0.87091 0.0
C1295 C 0.80925 0.34185 0.8548 0.0
C1296 C 0.80954 0.3434 0.82346 0.0
C1297 C 0.80851 0.37178 0.80855 0.0
C1298 C 0.80754 0.39888 0.82548 0.0
H1299 H 0.49065 0.92107 0.94538 0.0
H1300 H 0.48628 0.82297 0.95154 0.0
H1301 H 0.48718 0.81896 0.8964 0.0
H1302 H 0.46599 0.92908 0.87841 0.0
H1303 H 0.47771 0.9593 0.86275 0.0
H1304 H 0.47655 0.95463 0.90279 0.0
H1305 H 0.50683 0.95123 0.90567 0.0
H1306 H 0.50803 0.95588 0.86566 0.0
H1307 H 0.51698 0.9233 0.88328 0.0
H1308 H 0.49036 0.82515 0.84116 0.0
H1309 H 0.49329 0.84171 0.78843 0.0
H1310 H 0.49382 0.93595 0.8171 0.0
C1311 C 0.48972 0.8989 0.93492 0.0
C1312 C 0.48825 0.87234 0.95252 0.0
C1313 C 0.48714 0.84357 0.93832 0.0
C1314 C 0.48774 0.84107 0.90708 0.0
C1315 C 0.48921 0.86763 0.89029 0.0
C1316 C 0.48996 0.89606 0.9036 0.0
C1317 C 0.49134 0.92095 0.88017 0.0
C1318 C 0.47705 0.94224 0.88109 0.0
C1319 C 0.50672 0.93889 0.88392 0.0
C1320 C 0.4915 0.90198 0.85176 0.0
C1321 C 0.49039 0.87127 0.85817 0.0
C1322 C 0.49104 0.84914 0.8358 0.0
C1323 C 0.49278 0.85867 0.80602 0.0
C1324 C 0.49362 0.89 0.79889 0.0
C1325 C 0.49291 0.91189 0.82205 0.0
H1326 H 0.80663 0.93969 0.44365 0.0
H1327 H 0.80513 0.84537 0.47178 0.0
H1328 H 0.80706 0.82877 0.41888 0.0
H1329 H 0.78228 0.92926 0.37889 0.0
H1330 H 0.79268 0.95644 0.35608 0.0
H1331 H 0.79227 0.96092 0.39618 0.0
H1332 H 0.82257 0.96174 0.39745 0.0
H1333 H 0.82314 0.95722 0.35733 0.0
H1334 H 0.8334 0.93065 0.38104 0.0
H1335 H 0.8094 0.82246 0.3636 0.0
H1336 H 0.80959 0.82654 0.30844 0.0
H1337 H 0.80763 0.92491 0.31514 0.0
C1338 C 0.80688 0.91559 0.4385 0.0
C1339 C 0.80588 0.89366 0.46154 0.0
C1340 C 0.80588 0.86233 0.45424 0.0
C1341 C 0.80704 0.85278 0.42438 0.0
C1342 C 0.80797 0.87491 0.4021 0.0
C1343 C 0.80769 0.90568 0.40869 0.0
C1344 C 0.80787 0.92468 0.38032 0.0
C1345 C 0.79288 0.94395 0.37772 0.0
C1346 C 0.82263 0.94475 0.37896 0.0
C1347 C 0.80833 0.89975 0.35678 0.0
C1348 C 0.80861 0.87125 0.36994 0.0
C1349 C 0.80922 0.84463 0.35302 0.0
C1350 C 0.80941 0.84715 0.32177 0.0
C1351 C 0.80877 0.87603 0.30775 0.0
C1352 C 0.80819 0.90265 0.32548 0.0
H1353 H 0.49398 0.36173 0.30986 0.0
H1354 H 0.4833 0.45815 0.30767 0.0
H1355 H 0.48273 0.45947 0.36297 0.0
H1356 H 0.46871 0.34425 0.37432 0.0
H1357 H 0.48204 0.31639 0.3895 0.0
H1358 H 0.48131 0.32283 0.34965 0.0
H1359 H 0.51115 0.33384 0.34934 0.0
H1360 H 0.51193 0.32743 0.38915 0.0
H1361 H 0.51895 0.36285 0.37377 0.0
H1362 H 0.48555 0.45137 0.41815 0.0
H1363 H 0.48944 0.43313 0.47024 0.0
H1364 H 0.49612 0.34129 0.4375 0.0
C1365 C 0.49141 0.38296 0.32118 0.0
C1366 C 0.48859 0.40982 0.30465 0.0
C1367 C 0.48526 0.43729 0.32001 0.0
C1368 C 0.48499 0.43827 0.35137 0.0
C1369 C 0.48782 0.41144 0.36708 0.0
C1370 C 0.49076 0.38418 0.35258 0.0
C1371 C 0.49333 0.35865 0.37495 0.0
C1372 C 0.48058 0.33408 0.37192 0.0
C1373 C 0.50982 0.3449 0.37159 0.0
C1374 C 0.4917 0.37599 0.4042 0.0
C1375 C 0.48864 0.40646 0.3991 0.0
C1376 C 0.48766 0.42748 0.42247 0.0
C1377 C 0.48989 0.41705 0.45185 0.0
C1378 C 0.49276 0.38592 0.45754 0.0
C1379 C 0.49356 0.3651 0.43349 0.0
H1380 H 0.26189 0.6353 0.19883 0.0
H1381 H 0.21238 0.63919 0.22067 0.0
H1382 H 0.20581 0.63064 0.16739 0.0
H1383 H 0.25979 0.67508 0.13157 0.0
H1384 H 0.27424 0.65251 0.1122 0.0
H1385 H 0.27507 0.65611 0.15232 0.0
H1386 H 0.27426 0.59733 0.15789 0.0
H1387 H 0.27364 0.59353 0.11771 0.0
H1388 H 0.25864 0.5761 0.14038 0.0
H1389 H 0.20476 0.6246 0.11097 0.0
H1390 H 0.20943 0.62113 0.0563 0.0
H1391 H 0.25958 0.62086 0.07226 0.0
C1392 C 0.24966 0.63359 0.19263 0.0
C1393 C 0.23764 0.63788 0.21401 0.0
C1394 C 0.22178 0.63623 0.20467 0.0
C1395 C 0.21794 0.63122 0.17448 0.0
C1396 C 0.23009 0.62776 0.15391 0.0
C1397 C 0.24564 0.62864 0.16265 0.0
C1398 C 0.25651 0.62572 0.13603 0.0
C1399 C 0.26702 0.65404 0.13285 0.0
C1400 C 0.26634 0.59643 0.13813 0.0
C1401 C 0.24468 0.62377 0.11087 0.0
C1402 C 0.22949 0.62466 0.12159 0.0
C1403 C 0.21661 0.62366 0.10236 0.0
C1404 C 0.21936 0.62166 0.07138 0.0
C1405 C 0.23485 0.62095 0.05998 0.0
C1406 C 0.24761 0.62189 0.08015 0.0
H1407 H 0.53099 0.15345 0.06863 0.0
H1408 H 0.58061 0.16038 0.04788 0.0
H1409 H 0.58693 0.15249 0.1012 0.0
H1410 H 0.53227 0.19134 0.13964 0.0
H1411 H 0.51806 0.16653 0.15687 0.0
H1412 H 0.51736 0.17335 0.11711 0.0
H1413 H 0.51892 0.11527 0.10697 0.0
H1414 H 0.51945 0.10827 0.14669 0.0
H1415 H 0.53477 0.09352 0.12294 0.0
H1416 H 0.58785 0.14355 0.1569 0.0
H1417 H 0.58332 0.13221 0.21034 0.0
H1418 H 0.53317 0.12922 0.19403 0.0
C1419 C 0.5432 0.15303 0.07509 0.0
C1420 C 0.55528 0.1577 0.05386 0.0
C1421 C 0.5711 0.15736 0.06364 0.0
C1422 C 0.57483 0.15277 0.09391 0.0
C1423 C 0.56262 0.14846 0.11418 0.0
C1424 C 0.54713 0.14838 0.10515 0.0
C1425 C 0.53622 0.14269 0.13131 0.0
C1426 C 0.52534 0.17012 0.13653 0.0
C1427 C 0.52679 0.11318 0.12669 0.0
C1428 C 0.548 0.13941 0.15646 0.0
C1429 C 0.56315 0.14297 0.14615 0.0
C1430 C 0.57602 0.14062 0.16521 0.0
C1431 C 0.57333 0.13403 0.19551 0.0
C1432 C 0.5579 0.12969 0.20651 0.0
C1433 C 0.5451 0.13278 0.1866 0.0
H1434 H 0.24131 0.16471 0.56775 0.0
H1435 H 0.23529 0.06684 0.56249 0.0
H1436 H 0.23389 0.064 0.61768 0.0
H1437 H 0.26556 0.16612 0.63163 0.0
H1438 H 0.25695 0.19978 0.6479 0.0
H1439 H 0.25656 0.19438 0.60793 0.0
H1440 H 0.22633 0.20021 0.60808 0.0
H1441 H 0.22669 0.20572 0.6481 0.0
H1442 H 0.21467 0.17613 0.63203 0.0
H1443 H 0.23615 0.07112 0.67323 0.0
H1444 H 0.23939 0.08866 0.72576 0.0
H1445 H 0.24199 0.182 0.69522 0.0
C1446 C 0.23949 0.14282 0.57834 0.0
C1447 C 0.23829 0.11603 0.56101 0.0
C1448 C 0.23596 0.08767 0.57543 0.0
C1449 C 0.23525 0.08582 0.60673 0.0
C1450 C 0.23663 0.11262 0.62323 0.0
C1451 C 0.23845 0.14066 0.60958 0.0
C1452 C 0.23984 0.16592 0.63258 0.0
C1453 C 0.25567 0.18251 0.62984 0.0
C1454 C 0.22606 0.18831 0.63004 0.0
C1455 C 0.23891 0.14758 0.66124 0.0
C1456 C 0.23714 0.11685 0.65536 0.0
C1457 C 0.2372 0.09516 0.67817 0.0
C1458 C 0.23908 0.1052 0.70779 0.0
C1459 C 0.24061 0.13656 0.71422 0.0
C1460 C 0.24041 0.15798 0.69071 0.0
H1461 H 0.5573 0.60905 0.56743 0.0
H1462 H 0.55954 0.7073 0.55916 0.0
H1463 H 0.56086 0.71227 0.61414 0.0
H1464 H 0.53341 0.6067 0.63299 0.0
H1465 H 0.54346 0.57485 0.6497 0.0
H1466 H 0.54304 0.57894 0.60958 0.0
H1467 H 0.5734 0.5771 0.60817 0.0
H1468 H 0.57389 0.57308 0.64834 0.0
H1469 H 0.58452 0.60361 0.63057 0.0
H1470 H 0.56006 0.70689 0.6697 0.0
H1471 H 0.55861 0.69103 0.7229 0.0
H1472 H 0.5586 0.59636 0.69568 0.0
C1473 C 0.55818 0.63149 0.57736 0.0
C1474 C 0.55845 0.65778 0.55922 0.0
C1475 C 0.55958 0.68689 0.57275 0.0
C1476 C 0.56026 0.68994 0.60392 0.0
C1477 C 0.56004 0.66361 0.62123 0.0
C1478 C 0.55917 0.63491 0.60852 0.0
C1479 C 0.55906 0.61038 0.63238 0.0
C1480 C 0.54384 0.59162 0.63108 0.0
C1481 C 0.57359 0.58983 0.6297 0.0
C1482 C 0.55976 0.62983 0.6604 0.0
C1483 C 0.56023 0.66048 0.65343 0.0
C1484 C 0.55995 0.68296 0.67549 0.0
C1485 C 0.5591 0.67385 0.70551 0.0
C1486 C 0.55876 0.64262 0.71311 0.0
C1487 C 0.55925 0.62037 0.6903 0.0
H1488 H 0.35575 0.38039 0.21302 0.0
H1489 H 0.37004 0.31543 0.14497 0.0
H1490 H 0.39716 0.33422 0.14825 0.0
H1491 H 0.37999 0.4415 0.18672 0.0
H1492 H 0.38492 0.45585 0.22337 0.0
H1493 H 0.36666 0.43609 0.21761 0.0
H1494 H 0.37382 0.398 0.25964 0.0
H1495 H 0.3921 0.41771 0.2656 0.0
H1496 H 0.39209 0.37746 0.25764 0.0
H1497 H 0.42259 0.36063 0.1571 0.0
H1498 H 0.44476 0.3938 0.17043 0.0
H1499 H 0.41487 0.44356 0.23216 0.0
C1500 C 0.36465 0.36986 0.19918 0.0
C1501 C 0.36068 0.34621 0.1788 0.0
C1502 C 0.37268 0.3335 0.16071 0.0
C1503 C 0.38819 0.344 0.16245 0.0
C1504 C 0.39169 0.36752 0.18229 0.0
C1505 C 0.38032 0.38042 0.20036 0.0
C1506 C 0.3873 0.40642 0.21871 0.0
C1507 C 0.37923 0.43676 0.21114 0.0
C1508 C 0.38626 0.39948 0.2524 0.0
C1509 C 0.40427 0.40613 0.20793 0.0
C1510 C 0.40649 0.38329 0.18708 0.0
C1511 C 0.42101 0.37851 0.17353 0.0
C1512 C 0.4336 0.39753 0.18134 0.0
C1513 C 0.43174 0.42137 0.20251 0.0
C1514 C 0.41678 0.42557 0.21598 0.0
H1515 H 0.92924 0.88447 0.24509 0.0
H1516 H 0.93457 0.95009 0.17308 0.0
H1517 H 0.90748 0.93933 0.15663 0.0
H1518 H 0.90712 0.82999 0.20437 0.0
H1519 H 0.89448 0.81972 0.23511 0.0
H1520 H 0.91397 0.83361 0.24242 0.0
H1521 H 0.90262 0.87613 0.27625 0.0
H1522 H 0.88307 0.86231 0.26914 0.0
H1523 H 0.88793 0.90149 0.26146 0.0
H1524 H 0.8807 0.91876 0.14553 0.0
H1525 H 0.85543 0.89199 0.14181 0.0
H1526 H 0.86635 0.84068 0.22217 0.0
C1527 C 0.92468 0.89688 0.22605 0.0
C1528 C 0.93416 0.91822 0.21039 0.0
C1529 C 0.92764 0.93377 0.18554 0.0
C1530 C 0.91223 0.92776 0.176 0.0
C1531 C 0.90334 0.90632 0.19165 0.0
C1532 C 0.90924 0.89131 0.21634 0.0
C1533 C 0.89726 0.86889 0.22879 0.0
C1534 C 0.90359 0.83611 0.22759 0.0
C1535 C 0.89244 0.87774 0.26081 0.0
C1536 C 0.88377 0.87326 0.20694 0.0
C1537 C 0.88762 0.89495 0.18569 0.0
C1538 C 0.87752 0.902 0.16223 0.0
C1539 C 0.86318 0.8865 0.16026 0.0
C1540 C 0.85883 0.86423 0.18172 0.0
C1541 C 0.86924 0.85782 0.20565 0.0
H1542 H 0.36172 0.86882 0.02721 0.0
H1543 H 0.36219 0.95289 0.07851 0.0
H1544 H 0.39028 0.9452 0.08942 0.0
H1545 H 0.38691 0.82672 0.07499 0.0
H1546 H 0.39691 0.80687 0.04524 0.0
H1547 H 0.37705 0.81968 0.03993 0.0
H1548 H 0.38555 0.84953 0.99265 0.0
H1549 H 0.40545 0.8368 0.99781 0.0
H1550 H 0.40123 0.87693 0.9953 0.0
H1551 H 0.4177 0.92663 0.09813 0.0
H1552 H 0.44284 0.89931 0.10291 0.0
H1553 H 0.42557 0.82793 0.04443 0.0
C1554 C 0.36775 0.88583 0.04048 0.0
C1555 C 0.35961 0.91155 0.05199 0.0
C1556 C 0.36803 0.93306 0.06937 0.0
C1557 C 0.38404 0.92889 0.07568 0.0
C1558 C 0.39162 0.90319 0.06428 0.0
C1559 C 0.3838 0.8821 0.04686 0.0
C1560 C 0.39465 0.85603 0.03808 0.0
C1561 C 0.38851 0.82552 0.0503 0.0
C1562 C 0.39685 0.85476 1.00393 0.0
C1563 C 0.40974 0.86548 0.0537 0.0
C1564 C 0.40766 0.89281 0.06867 0.0
C1565 C 0.4195 0.90547 0.08617 0.0
C1566 C 0.43375 0.88975 0.08878 0.0
C1567 C 0.43624 0.86174 0.07376 0.0
C1568 C 0.42412 0.84964 0.05562 0.0
H1569 H 0.93563 0.40312 0.09426 0.0
H1570 H 0.92888 0.32014 0.04332 0.0
H1571 H 0.90172 0.33655 0.03098 0.0
H1572 H 0.89747 0.40974 0.12495 0.0
H1573 H 0.89652 0.45056 0.12115 0.0
H1574 H 0.91521 0.43208 0.1257 0.0
H1575 H 0.92521 0.45705 0.07674 0.0
H1576 H 0.90658 0.47578 0.07211 0.0
H1577 H 0.91424 0.45207 0.04256 0.0
H1578 H 0.8741 0.36114 0.02835 0.0
H1579 H 0.85041 0.39395 0.02981 0.0
H1580 H 0.87658 0.46277 0.07824 0.0
C1581 C 0.92845 0.38842 0.0804 0.0
C1582 C 0.93429 0.36017 0.06997 0.0
C1583 C 0.92463 0.34184 0.05152 0.0
C1584 C 0.90918 0.35097 0.04455 0.0
C1585 C 0.9037 0.37884 0.0556 0.0
C1586 C 0.91323 0.39755 0.07261 0.0
C1587 C 0.90488 0.42684 0.08101 0.0
C1588 C 0.90344 0.42998 0.11523 0.0
C1589 C 0.91323 0.45458 0.06728 0.0
C1590 C 0.88902 0.42164 0.06659 0.0
C1591 C 0.88843 0.39366 0.05235 0.0
C1592 C 0.87459 0.38326 0.03901 0.0
C1593 C 0.86116 0.40199 0.04003 0.0
C1594 C 0.8617 0.4311 0.05372 0.0
C1595 C 0.87587 0.4409 0.06708 0.0
H1596 H 0.68331 0.64953 0.86522 0.0
H1597 H 0.6881 0.67783 0.7726 0.0
H1598 H 0.66136 0.658 0.76207 0.0
H1599 H 0.66227 0.57991 0.85098 0.0
H1600 H 0.6502 0.58373 0.88391 0.0
H1601 H 0.66963 0.59978 0.88344 0.0
H1602 H 0.65821 0.65268 0.89713 0.0
H1603 H 0.63876 0.63681 0.89762 0.0
H1604 H 0.64307 0.66901 0.874 0.0
H1605 H 0.63305 0.63529 0.76278 0.0
H1606 H 0.60718 0.61219 0.77441 0.0
H1607 H 0.62196 0.59908 0.86649 0.0
C1608 C 0.67884 0.6516 0.84262 0.0
C1609 C 0.68791 0.66541 0.81975 0.0
C1610 C 0.68145 0.66741 0.79054 0.0
C1611 C 0.66624 0.65619 0.78438 0.0
C1612 C 0.65761 0.64288 0.80761 0.0
C1613 C 0.6638 0.64052 0.83613 0.0
C1614 C 0.65233 0.62552 0.85745 0.0
C1615 C 0.65901 0.59545 0.86965 0.0
C1616 C 0.64783 0.64731 0.88305 0.0
C1617 C 0.6386 0.61985 0.83667 0.0
C1618 C 0.64176 0.62993 0.80797 0.0
C1619 C 0.63056 0.62727 0.78521 0.0
C1620 C 0.61586 0.61409 0.79201 0.0
C1621 C 0.61242 0.60364 0.82136 0.0
C1622 C 0.62409 0.60664 0.84377 0.0
H1623 H 0.11972 0.12195 0.87106 0.0
H1624 H 0.11087 0.10387 0.777 0.0
H1625 H 0.1371 0.12516 0.76452 0.0
H1626 H 0.13934 0.19302 0.86125 0.0
H1627 H 0.15287 0.18639 0.89157 0.0
H1628 H 0.13369 0.16933 0.8924 0.0
H1629 H 0.14623 0.11592 0.89837 0.0
H1630 H 0.16546 0.13281 0.89761 0.0
H1631 H 0.16049 0.10313 0.87135 0.0
H1632 H 0.16538 0.14899 0.76337 0.0
H1633 H 0.19135 0.17252 0.77357 0.0
H1634 H 0.18022 0.17504 0.86835 0.0
C1635 C 0.1232 0.12228 0.84773 0.0
C1636 C 0.11313 0.11101 0.82503 0.0
C1637 C 0.11832 0.11221 0.79486 0.0
C1638 C 0.13323 0.12432 0.78759 0.0
C1639 C 0.14282 0.13526 0.81069 0.0
C1640 C 0.13788 0.13431 0.84016 0.0
C1641 C 0.15005 0.14759 0.86113 0.0
C1642 C 0.1436 0.17575 0.87754 0.0
C1643 C 0.1559 0.12342 0.88342 0.0
C1644 C 0.16274 0.15627 0.83905 0.0
C1645 C 0.15851 0.149 0.81001 0.0
C1646 C 0.16869 0.15479 0.78608 0.0
C1647 C 0.18344 0.16821 0.79206 0.0
C1648 C 0.18792 0.17588 0.82175 0.0
C1649 C 0.17727 0.16974 0.84533 0.0
H1650 H 0.61398 0.15896 0.89312 0.0
H1651 H 0.60533 0.18047 0.98654 0.0
H1652 H 0.63235 0.16345 0.99904 0.0
H1653 H 0.63646 0.09148 0.90546 0.0
H1654 H 0.64942 0.09866 0.87436 0.0
H1655 H 0.6296 0.1127 0.87348 0.0
H1656 H 0.63994 0.16747 0.86456 0.0
H1657 H 0.65979 0.15361 0.86544 0.0
H1658 H 0.65384 0.18371 0.89046 0.0
H1659 H 0.66119 0.14304 1.00044 0.0
H1660 H 0.68776 0.12206 0.9906 0.0
H1661 H 0.67636 0.11491 0.89615 0.0
C1662 C 0.61766 0.1602 0.9163 0.0
C1663 C 0.60742 0.17116 0.93884 0.0
C1664 C 0.6129 0.17223 0.96883 0.0
C1665 C 0.62825 0.16258 0.97611 0.0
C1666 C 0.63801 0.1519 0.95318 0.0
C1667 C 0.63281 0.15073 0.92387 0.0
C1668 C 0.64531 0.13836 0.90309 0.0
C1669 C 0.63987 0.10853 0.88823 0.0
C1670 C 0.64999 0.16221 0.8795 0.0
C1671 C 0.65847 0.1327 0.9251 0.0
C1672 C 0.65416 0.14054 0.95395 0.0
C1673 C 0.6646 0.13692 0.97787 0.0
C1674 C 0.67969 0.12497 0.97209 0.0
C1675 C 0.68426 0.1168 0.94259 0.0
C1676 C 0.67339 0.12092 0.91898 0.0
H1677 H 0.11714 0.68254 0.89507 0.0
H1678 H 0.10185 0.66422 0.98596 0.0
H1679 H 0.12758 0.64018 0.99675 0.0
H1680 H 0.13809 0.61289 0.88417 0.0
H1681 H 0.15332 0.63043 0.86214 0.0
H1682 H 0.13389 0.64641 0.86231 0.0
H1683 H 0.1452 0.69852 0.87902 0.0
H1684 H 0.16467 0.6827 0.87885 0.0
H1685 H 0.15717 0.7006 0.91225 0.0
H1686 H 0.15607 0.61755 0.99684 0.0
H1687 H 0.18308 0.59931 0.98587 0.0
H1688 H 0.17845 0.6326 0.89482 0.0
C1689 C 0.11913 0.67361 0.91735 0.0
C1690 C 0.10737 0.67547 0.93966 0.0
C1691 C 0.11062 0.66322 0.96843 0.0
C1692 C 0.12524 0.64948 0.97476 0.0
C1693 C 0.13655 0.648 0.95211 0.0
C1694 C 0.13355 0.65979 0.92396 0.0
C1695 C 0.1474 0.65529 0.90319 0.0
C1696 C 0.1429 0.63505 0.87637 0.0
C1697 C 0.154 0.68611 0.89272 0.0
C1698 C 0.15874 0.63915 0.92388 0.0
C1699 C 0.15242 0.63507 0.95208 0.0
C1700 C 0.16103 0.62069 0.97475 0.0
C1701 C 0.1764 0.61034 0.96834 0.0
C1702 C 0.18302 0.61433 0.93946 0.0
C1703 C 0.1739 0.62897 0.91717 0.0
H1704 H 0.44077 0.85407 0.72194 0.0
H1705 H 0.43253 0.94678 0.6922 0.0
H1706 H 0.40413 0.93584 0.68875 0.0
H1707 H 0.41236 0.81839 0.67416 0.0
H1708 H 0.40652 0.79057 0.70165 0.0
H1709 H 0.4261 0.80591 0.70227 0.0
H1710 H 0.42224 0.82278 0.7574 0.0
H1711 H 0.40265 0.80744 0.75697 0.0
H1712 H 0.40583 0.84673 0.76701 0.0
H1713 H 0.37633 0.91424 0.68818 0.0
H1714 H 0.35185 0.88428 0.69068 0.0
H1715 H 0.37832 0.80556 0.72053 0.0
C1716 C 0.43303 0.87218 0.71478 0.0
C1717 C 0.43899 0.90139 0.7074 0.0
C1718 C 0.42834 0.92427 0.69806 0.0
C1719 C 0.41215 0.91825 0.696 0.0
C1720 C 0.4067 0.88919 0.70334 0.0
C1721 C 0.41685 0.86655 0.71257 0.0
C1722 C 0.40807 0.83716 0.71897 0.0
C1723 C 0.41359 0.81149 0.69801 0.0
C1724 C 0.4098 0.828 0.75205 0.0
C1725 C 0.39138 0.8467 0.71187 0.0
C1726 C 0.39082 0.87681 0.70291 0.0
C1727 C 0.37667 0.89066 0.69517 0.0
C1728 C 0.36279 0.87339 0.69665 0.0
C1729 C 0.36304 0.84244 0.70576 0.0
C1730 C 0.37763 0.8291 0.71344 0.0
H1731 H 0.93081 0.37383 0.73828 0.0
H1732 H 0.93427 0.44426 0.6704 0.0
H1733 H 0.90673 0.43478 0.6561 0.0
H1734 H 0.90722 0.32238 0.69676 0.0
H1735 H 0.89546 0.31032 0.72814 0.0
H1736 H 0.91521 0.32348 0.73414 0.0
H1737 H 0.9051 0.36389 0.7717 0.0
H1738 H 0.8853 0.3508 0.76588 0.0
H1739 H 0.89012 0.39034 0.76012 0.0
H1740 H 0.87955 0.41482 0.64625 0.0
H1741 H 0.85413 0.38823 0.64348 0.0
H1742 H 0.86715 0.33229 0.71952 0.0
C1743 C 0.92576 0.38753 0.72059 0.0
C1744 C 0.93486 0.40982 0.70541 0.0
C1745 C 0.92768 0.42712 0.68241 0.0
C1746 C 0.91199 0.42185 0.67411 0.0
C1747 C 0.90346 0.39945 0.68921 0.0
C1748 C 0.91002 0.38279 0.71223 0.0
C1749 C 0.89831 0.35977 0.72455 0.0
C1750 C 0.90442 0.32705 0.72065 0.0
C1751 C 0.89448 0.36662 0.75752 0.0
C1752 C 0.8842 0.3657 0.70452 0.0
C1753 C 0.88752 0.38864 0.68424 0.0
C1754 C 0.87679 0.39713 0.66227 0.0
C1755 C 0.86237 0.38178 0.66082 0.0
C1756 C 0.85856 0.35832 0.68139 0.0
C1757 C 0.8696 0.35046 0.70381 0.0
H1758 H 0.36881 0.3739 0.51894 0.0
H1759 H 0.36762 0.44971 0.58142 0.0
H1760 H 0.39547 0.44057 0.59371 0.0
H1761 H 0.39268 0.32536 0.56263 0.0
H1762 H 0.4035 0.30986 0.53146 0.0
H1763 H 0.38381 0.32353 0.526 0.0
H1764 H 0.39356 0.35979 0.48427 0.0
H1765 H 0.41331 0.34622 0.48958 0.0
H1766 H 0.40913 0.38636 0.49227 0.0
H1767 H 0.42275 0.42058 0.60244 0.0
H1768 H 0.44768 0.39233 0.60604 0.0
H1769 H 0.43205 0.33032 0.53657 0.0
C1770 C 0.37443 0.38889 0.53495 0.0
C1771 C 0.3659 0.41265 0.54918 0.0
C1772 C 0.37379 0.43148 0.57011 0.0
C1773 C 0.38965 0.42644 0.57724 0.0
C1774 C 0.39761 0.40262 0.5631 0.0
C1775 C 0.39031 0.38427 0.54221 0.0
C1776 C 0.40141 0.35959 0.53099 0.0
C1777 C 0.39496 0.3277 0.53821 0.0
C1778 C 0.40454 0.36322 0.49727 0.0
C1779 C 0.41604 0.36654 0.54923 0.0
C1780 C 0.41354 0.39151 0.56759 0.0
C1781 C 0.42488 0.40131 0.58787 0.0
C1782 C 0.43901 0.38508 0.58977 0.0
C1783 C 0.44191 0.3594 0.57133 0.0
C1784 C 0.43032 0.35028 0.55044 0.0
H1785 H 0.86733 0.87057 0.52582 0.0
H1786 H 0.86699 0.95217 0.58083 0.0
H1787 H 0.89487 0.94383 0.59311 0.0
H1788 H 0.89163 0.82614 0.57312 0.0
H1789 H 0.9021 0.80764 0.54313 0.0
H1790 H 0.88237 0.82086 0.53717 0.0
H1791 H 0.89173 0.85283 0.49187 0.0
H1792 H 0.91152 0.83972 0.4977 0.0
H1793 H 0.90739 0.87996 0.49676 0.0
H1794 H 0.92217 0.9246 0.60271 0.0
H1795 H 0.94713 0.89666 0.60803 0.0
H1796 H 0.93074 0.82832 0.54532 0.0
C1797 C 0.87313 0.88693 0.54019 0.0
C1798 C 0.8648 0.91209 0.55239 0.0
C1799 C 0.87296 0.93273 0.57122 0.0
C1800 C 0.88886 0.92819 0.57828 0.0
C1801 C 0.89662 0.90303 0.56619 0.0
C1802 C 0.88908 0.88283 0.54737 0.0
C1803 C 0.90005 0.85711 0.5381 0.0
C1804 C 0.89366 0.82611 0.54851 0.0
C1805 C 0.90284 0.85743 0.50408 0.0
C1806 C 0.91488 0.8657 0.55507 0.0
C1807 C 0.91259 0.89233 0.57109 0.0
C1808 C 0.92415 0.90402 0.58992 0.0
C1809 C 0.9383 0.88798 0.59279 0.0
C1810 C 0.94099 0.86064 0.57673 0.0
C1811 C 0.92917 0.84957 0.55727 0.0
H1812 H 0.62097 0.11185 0.36238 0.0
H1813 H 0.61052 0.11214 0.2673 0.0
H1814 H 0.6371 0.13315 0.25713 0.0
H1815 H 0.64304 0.18114 0.36465 0.0
H1816 H 0.65665 0.16685 0.39214 0.0
H1817 H 0.63687 0.1526 0.39117 0.0
H1818 H 0.64735 0.09742 0.38607 0.0
H1819 H 0.66716 0.11149 0.3871 0.0
H1820 H 0.66073 0.08828 0.35612 0.0
H1821 H 0.66586 0.15514 0.25859 0.0
H1822 H 0.69285 0.17249 0.27131 0.0
H1823 H 0.68319 0.15575 0.36523 0.0
C1824 C 0.62414 0.11636 0.33931 0.0
C1825 C 0.61354 0.11037 0.31564 0.0
C1826 C 0.61839 0.1165 0.28585 0.0
C1827 C 0.63347 0.12851 0.2799 0.0
C1828 C 0.64361 0.13416 0.30396 0.0
C1829 C 0.63904 0.12805 0.33306 0.0
C1830 C 0.65193 0.13523 0.35522 0.0
C1831 C 0.64681 0.16046 0.37707 0.0
C1832 C 0.6571 0.10639 0.37211 0.0
C1833 C 0.66461 0.14635 0.33425 0.0
C1834 C 0.65972 0.14588 0.30473 0.0
C1835 C 0.66972 0.15547 0.28169 0.0
C1836 C 0.68503 0.1654 0.28909 0.0
C1837 C 0.69025 0.16543 0.31925 0.0
C1838 C 0.67973 0.1559 0.34189 0.0
H1839 H 0.18839 0.6206 0.34271 0.0
H1840 H 0.18267 0.70492 0.2936 0.0
H1841 H 0.15519 0.69038 0.28162 0.0
H1842 H 0.16562 0.5738 0.2908 0.0
H1843 H 0.1578 0.55022 0.32026 0.0
H1844 H 0.17682 0.56755 0.32449 0.0
H1845 H 0.16776 0.59245 0.37419 0.0
H1846 H 0.14869 0.57542 0.37001 0.0
H1847 H 0.15048 0.61608 0.37442 0.0
H1848 H 0.12719 0.66777 0.27943 0.0
H1849 H 0.1029 0.63667 0.28111 0.0
H1850 H 0.12811 0.56524 0.32755 0.0
C1851 C 0.18138 0.63595 0.32924 0.0
C1852 C 0.18762 0.66404 0.31924 0.0
C1853 C 0.17814 0.68329 0.3014 0.0
C1854 C 0.1625 0.67524 0.29465 0.0
C1855 C 0.15663 0.64753 0.30534 0.0
C1856 C 0.16596 0.62791 0.32171 0.0
C1857 C 0.15713 0.59911 0.32996 0.0
C1858 C 0.1648 0.57101 0.31551 0.0
C1859 C 0.15595 0.59558 0.36417 0.0
C1860 C 0.14124 0.60565 0.3162 0.0
C1861 C 0.14107 0.63386 0.30241 0.0
C1862 C 0.12734 0.64547 0.28974 0.0
C1863 C 0.11356 0.62772 0.29091 0.0
C1864 C 0.11365 0.59839 0.30411 0.0
C1865 C 0.12773 0.58734 0.31683 0.0
H1866 H 0.66944 0.5633 0.47139 0.0
H1867 H 0.69573 0.64143 0.4396 0.0
H1868 H 0.67103 0.67065 0.43502 0.0
H1869 H 0.63608 0.57295 0.4233 0.0
H1870 H 0.62216 0.56093 0.45127 0.0
H1871 H 0.64192 0.54658 0.45214 0.0
H1872 H 0.64502 0.56576 0.50674 0.0
H1873 H 0.62526 0.58018 0.50602 0.0
H1874 H 0.64129 0.60525 0.51522 0.0
H1875 H 0.64258 0.69156 0.43394 0.0
H1876 H 0.61391 0.70119 0.4363 0.0
H1877 H 0.60681 0.60911 0.46877 0.0
C1878 C 0.67007 0.58656 0.46347 0.0
C1879 C 0.68467 0.59991 0.4558 0.0
C1880 C 0.68479 0.6305 0.44554 0.0
C1881 C 0.67077 0.64735 0.4429 0.0
C1882 C 0.65659 0.63344 0.45061 0.0
C1883 C 0.65621 0.60368 0.4607 0.0
C1884 C 0.63954 0.59378 0.46749 0.0
C1885 C 0.63464 0.56698 0.44735 0.0
C1886 C 0.63767 0.58578 0.50085 0.0
C1887 C 0.63056 0.62251 0.45962 0.0
C1888 C 0.64053 0.64526 0.44995 0.0
C1889 C 0.63473 0.67381 0.4415 0.0
C1890 C 0.61839 0.67913 0.44293 0.0
C1891 C 0.60797 0.65602 0.45269 0.0
C1892 C 0.61432 0.62741 0.46113 0.0
H1893 H 0.17947 0.10403 0.3937 0.0
H1894 H 0.19217 0.10803 0.48769 0.0
H1895 H 0.16602 0.13006 0.49935 0.0
H1896 H 0.15881 0.17406 0.39082 0.0
H1897 H 0.14425 0.16012 0.36495 0.0
H1898 H 0.16366 0.14403 0.36486 0.0
H1899 H 0.15196 0.09013 0.3728 0.0
H1900 H 0.13251 0.10604 0.37275 0.0
H1901 H 0.13902 0.0834 0.40403 0.0
H1902 H 0.13759 0.15373 0.49948 0.0
H1903 H 0.11096 0.17389 0.48815 0.0
H1904 H 0.1183 0.1534 0.39411 0.0
C1905 C 0.17683 0.10933 0.41685 0.0
C1906 C 0.18799 0.10419 0.43976 0.0
C1907 C 0.18386 0.11157 0.4697 0.0
C1908 C 0.16901 0.1242 0.4765 0.0
C1909 C 0.15836 0.12927 0.45315 0.0
C1910 C 0.16218 0.12182 0.42394 0.0
C1911 C 0.149 0.12944 0.40257 0.0
C1912 C 0.15425 0.15333 0.37945 0.0
C1913 C 0.14275 0.10053 0.38714 0.0
C1914 C 0.13707 0.14251 0.4241 0.0
C1915 C 0.14253 0.14239 0.45324 0.0
C1916 C 0.13328 0.15377 0.47667 0.0
C1917 C 0.11816 0.16528 0.47005 0.0
C1918 C 0.1124 0.1653 0.44024 0.0
C1919 C 0.12216 0.15376 0.41721 0.0
H1920 H 0.31415 0.07516 0.08669 0.0
H1921 H 0.33383 0.04579 0.17166 0.0
H1922 H 0.33429 0.09881 0.18909 0.0
H1923 H 0.33566 0.1448 0.08048 0.0
H1924 H 0.3196 0.16642 0.06512 0.0
H1925 H 0.32065 0.12593 0.05889 0.0
H1926 H 0.29292 0.11928 0.08153 0.0
H1927 H 0.29173 0.15978 0.08765 0.0
H1928 H 0.28889 0.13389 0.1185 0.0
H1929 H 0.33358 0.15508 0.19711 0.0
H1930 H 0.33037 0.21055 0.19627 0.0
H1931 H 0.30967 0.20423 0.10742 0.0
C1932 C 0.3184 0.07975 0.10907 0.0
C1933 C 0.32414 0.05596 0.12755 0.0
C1934 C 0.32969 0.06335 0.15666 0.0
C1935 C 0.32991 0.09352 0.16693 0.0
C1936 C 0.32443 0.11633 0.14804 0.0
C1937 C 0.31863 0.10988 0.11984 0.0
C1938 C 0.31336 0.13887 0.10422 0.0
C1939 C 0.32289 0.14432 0.07548 0.0
C1940 C 0.29567 0.13789 0.09759 0.0
C1941 C 0.31719 0.16251 0.12803 0.0
C1942 C 0.32361 0.14895 0.15305 0.0
C1943 C 0.32839 0.16596 0.17775 0.0
C1944 C 0.32641 0.19767 0.17708 0.0
C1945 C 0.31957 0.21237 0.15194 0.0
C1946 C 0.315 0.19421 0.12704 0.0
H1947 H 0.97609 0.07715 0.17875 0.0
H1948 H 0.97608 0.04367 0.08733 0.0
H1949 H 0.97775 0.09642 0.0686 0.0
H1950 H 0.95187 0.14223 0.1647 0.0
H1951 H 0.96208 0.1671 0.19026 0.0
H1952 H 0.96182 0.12664 0.19687 0.0
H1953 H 0.99215 0.12589 0.19805 0.0
H1954 H 0.99251 0.16639 0.19153 0.0
H1955 H 1.00298 0.14111 0.16677 0.0
H1956 H 0.97885 0.15235 0.05945 0.0
H1957 H 0.97845 0.2082 0.06016 0.0
H1958 H 0.97736 0.20725 0.15736 0.0
C1959 C 0.97666 0.08099 0.15482 0.0
C1960 C 0.97599 0.05621 0.13446 0.0
C1961 C 0.97646 0.06222 0.1033 0.0
C1962 C 0.97749 0.09213 0.09246 0.0
C1963 C 0.97794 0.11602 0.11301 0.0
C1964 C 0.9775 0.11091 0.14354 0.0
C1965 C 0.97748 0.14095 0.1606 0.0
C1966 C 0.96241 0.14443 0.17921 0.0
C1967 C 0.99216 0.14374 0.18041 0.0
C1968 C 0.97791 0.16365 0.13486 0.0
C1969 C 0.97831 0.14862 0.10767 0.0
C1970 C 0.97864 0.16436 0.08063 0.0
C1971 C 0.97852 0.19627 0.08128 0.0
C1972 C 0.97801 0.21252 0.10875 0.0
C1973 C 0.9777 0.19573 0.13594 0.0
H1974 H 0.71086 0.94609 0.93122 0.0
H1975 H 0.74453 0.98436 0.86911 0.0
H1976 H 0.75176 0.9321 0.85264 0.0
H1977 H 0.73365 0.87833 0.95134 0.0
H1978 H 0.71638 0.8548 0.95377 0.0
H1979 H 0.71518 0.89486 0.96226 0.0
H1980 H 0.69314 0.90115 0.92272 0.0
H1981 H 0.69423 0.86119 0.91417 0.0
H1982 H 0.69659 0.88888 0.88472 0.0
H1983 H 0.75321 0.87514 0.83999 0.0
H1984 H 0.74866 0.82006 0.83211 0.0
H1985 H 0.71418 0.82037 0.9034 0.0
C1986 C 0.71977 0.94356 0.91415 0.0
C1987 C 0.72701 0.96925 0.9011 0.0
C1988 C 0.73887 0.9649 0.87934 0.0
C1989 C 0.74303 0.93535 0.86993 0.0
C1990 C 0.73537 0.9105 0.88291 0.0
C1991 C 0.72407 0.91444 0.90475 0.0
C1992 C 0.71699 0.88444 0.91437 0.0
C1993 C 0.72078 0.87771 0.94739 0.0
C1994 C 0.69919 0.8839 0.90863 0.0
C1995 C 0.72559 0.86291 0.8937 0.0
C1996 C 0.73633 0.87817 0.87599 0.0
C1997 C 0.74501 0.86298 0.8541 0.0
C1998 C 0.74242 0.83162 0.84989 0.0
C1999 C 0.73111 0.81587 0.86728 0.0
C2000 C 0.72289 0.83178 0.88982 0.0
H2001 H 0.07772 0.95299 0.84206 0.0
H2002 H 0.06251 0.98319 0.93013 0.0
H2003 H 0.06119 0.93029 0.94702 0.0
H2004 H 0.05236 0.88666 0.83945 0.0
H2005 H 0.06647 0.86296 0.82048 0.0
H2006 H 0.06673 0.90359 0.81496 0.0
H2007 H 0.09583 0.90525 0.8314 0.0
H2008 H 0.09564 0.86464 0.83713 0.0
H2009 H 0.10136 0.88968 0.86723 0.0
H2010 H 0.06129 0.87485 0.95516 0.0
H2011 H 0.06158 0.81905 0.95321 0.0
H2012 H 0.07626 0.82252 0.86006 0.0
C2013 C 0.07406 0.94845 0.86483 0.0
C2014 C 0.07053 0.9726 0.88483 0.0
C2015 C 0.06575 0.96548 0.91448 0.0
C2016 C 0.06483 0.93534 0.92434 0.0
C2017 C 0.0686 0.91225 0.90433 0.0
C2018 C 0.073 0.91824 0.87514 0.0
C2019 C 0.07609 0.88875 0.85826 0.0
C2020 C 0.06473 0.88529 0.83172 0.0
C2021 C 0.09325 0.88699 0.8479 0.0
C2022 C 0.07269 0.86546 0.88261 0.0
C2023 C 0.06848 0.8797 0.90899 0.0
C2024 C 0.06467 0.86337 0.93469 0.0
C2025 C 0.06503 0.83155 0.93341 0.0
C2026 C 0.06915 0.81615 0.90658 0.0
C2027 C 0.07307 0.83353 0.88088 0.0
H2028 H 0.32272 0.7046 0.60719 0.0
H2029 H 0.32149 0.70415 0.70436 0.0
H2030 H 0.32216 0.64809 0.70419 0.0
H2031 H 0.29797 0.63751 0.59703 0.0
H2032 H 0.30883 0.62348 0.56526 0.0
H2033 H 0.30802 0.6638 0.57269 0.0
H2034 H 0.33835 0.66612 0.57351 0.0
H2035 H 0.33924 0.62583 0.56605 0.0
H2036 H 0.34905 0.64137 0.5984 0.0
H2037 H 0.32435 0.59244 0.69405 0.0
H2038 H 0.32671 0.5401 0.67428 0.0
H2039 H 0.32554 0.57502 0.58352 0.0
C2040 C 0.32259 0.69264 0.62837 0.0
C2041 C 0.32196 0.70889 0.65581 0.0
C2042 C 0.32171 0.69235 0.68307 0.0
C2043 C 0.32218 0.66044 0.68321 0.0
C2044 C 0.32277 0.64515 0.65589 0.0
C2045 C 0.32286 0.66059 0.62892 0.0
C2046 C 0.32349 0.63836 0.60279 0.0
C2047 C 0.30869 0.64095 0.58329 0.0
C2048 C 0.33843 0.64321 0.58409 0.0
C2049 C 0.32396 0.60813 0.61935 0.0
C2050 C 0.3236 0.61271 0.64998 0.0
C2051 C 0.32452 0.58854 0.67011 0.0
C2052 C 0.32593 0.55891 0.6587 0.0
C2053 C 0.32625 0.55349 0.62743 0.0
C2054 C 0.32509 0.57849 0.60752 0.0
H2055 H 0.97918 0.57113 0.67386 0.0
H2056 H 0.96754 0.54006 0.58421 0.0
H2057 H 0.96767 0.59303 0.56635 0.0
H2058 H 0.95582 0.63868 0.67264 0.0
H2059 H 0.96973 0.6618 0.69284 0.0
H2060 H 0.96915 0.62126 0.69887 0.0
H2061 H 0.9986 0.61729 0.68556 0.0
H2062 H 0.99933 0.65786 0.67967 0.0
H2063 H 1.00549 0.63228 0.65035 0.0
H2064 H 0.96823 0.64922 0.55813 0.0
H2065 H 0.96995 0.70508 0.55974 0.0
H2066 H 0.98213 0.70074 0.65417 0.0
C2067 C 0.97685 0.57543 0.65041 0.0
C2068 C 0.97322 0.55122 0.63053 0.0
C2069 C 0.97007 0.55805 0.60006 0.0
C2070 C 0.97021 0.58813 0.58961 0.0
C2071 C 0.97357 0.6114 0.6098 0.0
C2072 C 0.97693 0.60549 0.63952 0.0
C2073 C 0.98002 0.63493 0.65647 0.0
C2074 C 0.96796 0.63942 0.6817 0.0
C2075 C 0.99686 0.63562 0.66873 0.0
C2076 C 0.97778 0.6582 0.63163 0.0
C2077 C 0.97407 0.64404 0.60493 0.0
C2078 C 0.97126 0.66058 0.57886 0.0
C2079 C 0.97237 0.69243 0.57999 0.0
C2080 C 0.97631 0.7077 0.60699 0.0
C2081 C 0.97898 0.69008 0.63316 0.0
H2082 H 0.7081 0.4549 0.3888 0.0
H2083 H 0.75745 0.47337 0.40306 0.0
H2084 H 0.7635 0.41887 0.39459 0.0
H2085 H 0.70752 0.3835 0.42692 0.0
H2086 H 0.69368 0.36614 0.40161 0.0
H2087 H 0.69341 0.40673 0.40739 0.0
H2088 H 0.69651 0.41541 0.35027 0.0
H2089 H 0.69672 0.37484 0.34429 0.0
H2090 H 0.71267 0.39794 0.33071 0.0
H2091 H 0.76404 0.36185 0.38385 0.0
H2092 H 0.75876 0.30706 0.37463 0.0
H2093 H 0.70901 0.3263 0.3694 0.0
C2094 C 0.7202 0.44753 0.38974 0.0
C2095 C 0.73233 0.46838 0.39636 0.0
C2096 C 0.74798 0.45773 0.39811 0.0
C2097 C 0.75153 0.42687 0.39321 0.0
C2098 C 0.73926 0.40686 0.38686 0.0
C2099 C 0.7239 0.41678 0.38531 0.0
C2100 C 0.71279 0.39057 0.37932 0.0
C2101 C 0.70117 0.3865 0.40536 0.0
C2102 C 0.70417 0.39496 0.34936 0.0
C2103 C 0.72428 0.36434 0.37771 0.0
C2104 C 0.73951 0.37415 0.38183 0.0
C2105 C 0.75213 0.35394 0.38073 0.0
C2106 C 0.74906 0.32291 0.37541 0.0
C2107 C 0.73349 0.31237 0.37166 0.0
C2108 C 0.72101 0.33353 0.37278 0.0
H2109 H 0.08025 0.32812 0.42265 0.0
H2110 H 0.06611 0.29659 0.3344 0.0
H2111 H 0.06422 0.34937 0.31713 0.0
H2112 H 0.05443 0.39452 0.42391 0.0
H2113 H 0.06837 0.41859 0.44291 0.0
H2114 H 0.06861 0.37803 0.44905 0.0
H2115 H 0.09784 0.37621 0.43346 0.0
H2116 H 0.09768 0.41674 0.42719 0.0
H2117 H 0.10364 0.39131 0.39758 0.0
H2118 H 0.06425 0.4044 0.30835 0.0
H2119 H 0.06595 0.46 0.30848 0.0
H2120 H 0.07928 0.45865 0.40246 0.0
C2121 C 0.07668 0.33238 0.39978 0.0
C2122 C 0.07357 0.30796 0.37981 0.0
C2123 C 0.06896 0.31462 0.35 0.0
C2124 C 0.0677 0.34464 0.33997 0.0
C2125 C 0.07101 0.36804 0.35997 0.0
C2126 C 0.07535 0.36248 0.38926 0.0
C2127 C 0.0783 0.39226 0.4058 0.0
C2128 C 0.06674 0.39607 0.43197 0.0
C2129 C 0.09538 0.39424 0.41664 0.0
C2130 C 0.07507 0.41521 0.38104 0.0
C2131 C 0.07082 0.4005 0.35491 0.0
C2132 C 0.0674 0.41627 0.32874 0.0
C2133 C 0.06829 0.44802 0.32916 0.0
C2134 C 0.07249 0.46401 0.35563 0.0
C2135 C 0.07602 0.44721 0.3819 0.0
H2136 H 0.81929 0.07456 0.58783 0.0
H2137 H 0.84112 0.04693 0.67148 0.0
H2138 H 0.84141 0.10018 0.68824 0.0
H2139 H 0.83987 0.14522 0.57925 0.0
H2140 H 0.82322 0.16591 0.56498 0.0
H2141 H 0.82469 0.12544 0.55894 0.0
H2142 H 0.79758 0.11754 0.58363 0.0
H2143 H 0.79593 0.15799 0.58958 0.0
H2144 H 0.79408 0.1322 0.62078 0.0
H2145 H 0.84004 0.15623 0.6959 0.0
H2146 H 0.83582 0.21145 0.69524 0.0
H2147 H 0.81345 0.20376 0.60805 0.0
C2148 C 0.82401 0.07955 0.60979 0.0
C2149 C 0.83035 0.05618 0.62811 0.0
C2150 C 0.83649 0.06414 0.65662 0.0
C2151 C 0.83663 0.09444 0.66649 0.0
C2152 C 0.83049 0.11679 0.64779 0.0
C2153 C 0.82417 0.10981 0.62015 0.0
C2154 C 0.81816 0.13838 0.6047 0.0
C2155 C 0.82702 0.14406 0.57522 0.0
C2156 C 0.80038 0.1364 0.59937 0.0
C2157 C 0.82215 0.16242 0.62803 0.0
C2158 C 0.82932 0.14936 0.6526 0.0
C2159 C 0.83429 0.16671 0.67692 0.0
C2160 C 0.83171 0.19821 0.67638 0.0
C2161 C 0.82407 0.21236 0.6518 0.0
C2162 C 0.81937 0.19399 0.62718 0.0
H2163 H 0.47981 0.07367 0.67288 0.0
H2164 H 0.46007 0.04258 0.58852 0.0
H2165 H 0.45937 0.09536 0.57031 0.0
H2166 H 0.45786 0.14294 0.67825 0.0
H2167 H 0.4738 0.16513 0.69333 0.0
H2168 H 0.47295 0.12473 0.70013 0.0
H2169 H 0.5007 0.11824 0.67767 0.0
H2170 H 0.50173 0.15864 0.67098 0.0
H2171 H 0.50471 0.1323 0.64051 0.0
H2172 H 0.46017 0.15144 0.56127 0.0
H2173 H 0.46347 0.20708 0.56123 0.0
H2174 H 0.48374 0.20249 0.65042 0.0
C2175 C 0.47549 0.07787 0.65047 0.0
C2176 C 0.46985 0.05372 0.63232 0.0
C2177 C 0.46417 0.0605 0.60319 0.0
C2178 C 0.4638 0.09049 0.59251 0.0
C2179 C 0.46922 0.11369 0.61108 0.0
C2180 C 0.47507 0.1078 0.63936 0.0
C2181 C 0.4802 0.13709 0.65463 0.0
C2182 C 0.47063 0.1428 0.68328 0.0
C2183 C 0.49789 0.13652 0.66133 0.0
C2184 C 0.47628 0.16026 0.6305 0.0
C2185 C 0.46993 0.14621 0.60563 0.0
C2186 C 0.46525 0.16271 0.58054 0.0
C2187 C 0.46726 0.19441 0.58068 0.0
C2188 C 0.47399 0.20951 0.60568 0.0
C2189 C 0.47844 0.19197 0.63099 0.0
H2190 H 0.22137 0.82274 0.4029 0.0
H2191 H 0.24468 0.81632 0.31655 0.0
H2192 H 0.24894 0.87155 0.31681 0.0
H2193 H 0.20107 0.89196 0.38761 0.0
H2194 H 0.20316 0.9073 0.42487 0.0
H2195 H 0.20275 0.86668 0.41925 0.0
H2196 H 0.22943 0.86165 0.44651 0.0
H2197 H 0.22992 0.90228 0.45224 0.0
H2198 H 0.24598 0.88354 0.43358 0.0
H2199 H 0.24957 0.92746 0.32452 0.0
H2200 H 0.24697 0.98104 0.33985 0.0
H2201 H 0.22296 0.95294 0.42097 0.0
C2202 C 0.22743 0.83289 0.38411 0.0
C2203 C 0.23281 0.81479 0.35986 0.0
C2204 C 0.24072 0.82922 0.33576 0.0
C2205 C 0.24312 0.86077 0.33556 0.0
C2206 C 0.23759 0.87784 0.35961 0.0
C2207 C 0.22996 0.86452 0.38353 0.0
C2208 C 0.22482 0.88847 0.40611 0.0
C2209 C 0.20689 0.88861 0.40966 0.0
C2210 C 0.23303 0.88369 0.4364 0.0
C2211 C 0.23057 0.9173 0.39085 0.0
C2212 C 0.23792 0.91049 0.36409 0.0
C2213 C 0.24387 0.9331 0.34546 0.0
C2214 C 0.24221 0.96353 0.35427 0.0
C2215 C 0.23466 0.9713 0.38152 0.0
C2216 C 0.2289 0.94773 0.40016 0.0
H2217 H 0.59274 0.9395 0.34658 0.0
H2218 H 0.54858 0.97381 0.38099 0.0
H2219 H 0.54062 0.92104 0.39364 0.0
H2220 H 0.5777 0.87102 0.31393 0.0
H2221 H 0.59465 0.84867 0.32378 0.0
H2222 H 0.59664 0.88895 0.31725 0.0
H2223 H 0.6091 0.89581 0.3698 0.0
H2224 H 0.60726 0.85553 0.37641 0.0
H2225 H 0.59874 0.88227 0.40238 0.0
H2226 H 0.53797 0.86382 0.40351 0.0
H2227 H 0.54075 0.80815 0.40952 0.0
H2228 H 0.58694 0.81256 0.36901 0.0
C2229 C 0.58146 0.93619 0.35712 0.0
C2230 C 0.57134 0.96105 0.36304 0.0
C2231 C 0.55651 0.95522 0.37614 0.0
C2232 C 0.55192 0.92532 0.38345 0.0
C2233 C 0.56225 0.90143 0.37738 0.0
C2234 C 0.57671 0.90665 0.36446 0.0
C2235 C 0.58576 0.87728 0.36022 0.0
C2236 C 0.58887 0.87113 0.32681 0.0
C2237 C 0.60112 0.87776 0.37828 0.0
C2238 C 0.57421 0.85459 0.37301 0.0
C2239 C 0.5607 0.86887 0.38276 0.0
C2240 C 0.54851 0.85248 0.3959 0.0
C2241 C 0.55023 0.82082 0.39934 0.0
C2242 C 0.56406 0.80573 0.38973 0.0
C2243 C 0.57611 0.82307 0.37619 0.0
H2244 H 0.81728 0.58028 0.08471 0.0
H2245 H 0.83358 0.55016 0.17204 0.0
H2246 H 0.83424 0.60313 0.18935 0.0
H2247 H 0.83994 0.64922 0.08131 0.0
H2248 H 0.8247 0.67153 0.064 0.0
H2249 H 0.82553 0.63102 0.05776 0.0
H2250 H 0.797 0.62549 0.07674 0.0
H2251 H 0.79603 0.66601 0.08287 0.0
H2252 H 0.79183 0.64015 0.11317 0.0
H2253 H 0.83388 0.65898 0.19742 0.0
H2254 H 0.83117 0.71453 0.19671 0.0
H2255 H 0.81358 0.71001 0.10541 0.0
C2256 C 0.82087 0.58472 0.10753 0.0
C2257 C 0.82558 0.56067 0.12678 0.0
C2258 C 0.83026 0.56785 0.15648 0.0
C2259 C 0.83059 0.59801 0.16668 0.0
C2260 C 0.82609 0.62104 0.14711 0.0
C2261 C 0.82119 0.61488 0.11825 0.0
C2262 C 0.81679 0.64415 0.10209 0.0
C2263 C 0.82737 0.64928 0.07466 0.0
C2264 C 0.79938 0.64393 0.0932 0.0
C2265 C 0.82004 0.6676 0.12643 0.0
C2266 C 0.82545 0.65362 0.15211 0.0
C2267 C 0.82948 0.6702 0.17755 0.0
C2268 C 0.82776 0.70191 0.17696 0.0
C2269 C 0.82189 0.71704 0.1512 0.0
C2270 C 0.81812 0.69942 0.12548 0.0
H2271 H 0.4766 0.57503 0.17186 0.0
H2272 H 0.46184 0.54486 0.08357 0.0
H2273 H 0.46176 0.59797 0.06612 0.0
H2274 H 0.45379 0.6435 0.17379 0.0
H2275 H 0.46856 0.66594 0.19246 0.0
H2276 H 0.46774 0.62539 0.19834 0.0
H2277 H 0.49668 0.62038 0.18164 0.0
H2278 H 0.49763 0.66095 0.17585 0.0
H2279 H 0.50259 0.6353 0.14576 0.0
H2280 H 0.46261 0.65403 0.05816 0.0
H2281 H 0.46501 0.70972 0.05966 0.0
H2282 H 0.48015 0.70489 0.15245 0.0
C2283 C 0.47352 0.57951 0.14878 0.0
C2284 C 0.46911 0.55551 0.12919 0.0
C2285 C 0.46499 0.56265 0.09923 0.0
C2286 C 0.465 0.59283 0.08901 0.0
C2287 C 0.4692 0.61585 0.10892 0.0
C2288 C 0.47346 0.60966 0.13813 0.0
C2289 C 0.47739 0.63889 0.15484 0.0
C2290 C 0.4662 0.6437 0.18143 0.0
C2291 C 0.4946 0.63887 0.16512 0.0
C2292 C 0.47461 0.66241 0.13043 0.0
C2293 C 0.46989 0.64849 0.10417 0.0
C2294 C 0.46644 0.66518 0.07852 0.0
C2295 C 0.46796 0.69693 0.07956 0.0
C2296 C 0.47299 0.71199 0.10602 0.0
C2297 C 0.47624 0.69428 0.13188 0.0
H2298 H 0.21817 0.32667 0.89918 0.0
H2299 H 0.23597 0.32394 0.80794 0.0
H2300 H 0.23682 0.37971 0.807 0.0
H2301 H 0.19418 0.39405 0.89076 0.0
H2302 H 0.19875 0.40885 0.92741 0.0
H2303 H 0.19894 0.36835 0.92089 0.0
H2304 H 0.22751 0.36564 0.94036 0.0
H2305 H 0.22744 0.40615 0.94681 0.0
H2306 H 0.24231 0.38932 0.9234 0.0
H2307 H 0.23641 0.43542 0.81569 0.0
H2308 H 0.23448 0.48826 0.83338 0.0
H2309 H 0.21742 0.45645 0.9195 0.0
C2310 C 0.22224 0.33772 0.87898 0.0
C2311 C 0.2268 0.32052 0.85351 0.0
C2312 C 0.23201 0.3362 0.82754 0.0
C2313 C 0.23269 0.36804 0.82684 0.0
C2314 C 0.2282 0.38414 0.85229 0.0
C2315 C 0.22307 0.36964 0.87791 0.0
C2316 C 0.21916 0.39262 0.90229 0.0
C2317 C 0.20172 0.39086 0.91083 0.0
C2318 C 0.22974 0.38816 0.92984 0.0
C2319 C 0.22291 0.42223 0.88628 0.0
C2320 C 0.22809 0.41666 0.85746 0.0
C2321 C 0.23228 0.44011 0.83814 0.0
C2322 C 0.23103 0.47013 0.84839 0.0
C2323 C 0.22562 0.47667 0.87775 0.0
C2324 C 0.22164 0.45224 0.897 0.0
H2325 H 0.56369 0.32513 0.9164 0.0
H2326 H 0.58947 0.29486 0.83802 0.0
H2327 H 0.59317 0.34825 0.82254 0.0
H2328 H 0.54353 0.38545 0.88163 0.0
H2329 H 0.54471 0.41104 0.91315 0.0
H2330 H 0.54483 0.37051 0.91917 0.0
H2331 H 0.57096 0.37494 0.94825 0.0
H2332 H 0.57092 0.41555 0.94252 0.0
H2333 H 0.58755 0.3932 0.93082 0.0
H2334 H 0.59275 0.40474 0.81391 0.0
H2335 H 0.58909 0.46055 0.81391 0.0
H2336 H 0.56399 0.45419 0.89821 0.0
C2337 C 0.57039 0.32969 0.89632 0.0
C2338 C 0.57625 0.30566 0.87839 0.0
C2339 C 0.58469 0.31277 0.85193 0.0
C2340 C 0.58694 0.34306 0.84303 0.0
C2341 C 0.58077 0.36613 0.86089 0.0
C2342 C 0.57278 0.35986 0.88711 0.0
C2343 C 0.56693 0.38887 0.90177 0.0
C2344 C 0.54893 0.38896 0.90404 0.0
C2345 C 0.57455 0.3934 0.93267 0.0
C2346 C 0.57271 0.41236 0.87946 0.0
C2347 C 0.58068 0.39876 0.85608 0.0
C2348 C 0.58664 0.41568 0.83223 0.0
C2349 C 0.58441 0.44734 0.83231 0.0
C2350 C 0.57632 0.46182 0.85609 0.0
C2351 C 0.57047 0.44394 0.87998 0.0
H2352 H 0.24749 0.18822 0.34488 0.0
H2353 H 0.2897 0.16214 0.39259 0.0
H2354 H 0.30532 0.1964 0.36049 0.0
H2355 H 0.26434 0.19119 0.27299 0.0
H2356 H 0.25329 0.22383 0.26065 0.0
H2357 H 0.24528 0.19888 0.28872 0.0
H2358 H 0.24181 0.24461 0.32491 0.0
H2359 H 0.2497 0.26975 0.29681 0.0
H2360 H 0.25844 0.26842 0.33355 0.0
H2361 H 0.3167 0.23182 0.32066 0.0
H2362 H 0.3223 0.26619 0.27778 0.0
H2363 H 0.27259 0.2688 0.25719 0.0
C2364 C 0.25996 0.19017 0.34897 0.0
C2365 C 0.26734 0.17233 0.37118 0.0
C2366 C 0.28378 0.17525 0.37545 0.0
C2367 C 0.29277 0.19478 0.35742 0.0
C2368 C 0.28519 0.21148 0.33522 0.0
C2369 C 0.26913 0.20954 0.33112 0.0
C2370 C 0.2639 0.22908 0.30507 0.0
C2371 C 0.25626 0.20957 0.28041 0.0
C2372 C 0.25281 0.25447 0.31573 0.0
C2373 C 0.27951 0.24191 0.29492 0.0
C2374 C 0.29169 0.23169 0.31258 0.0
C2375 C 0.30722 0.24012 0.3068 0.0
C2376 C 0.31032 0.25954 0.28237 0.0
C2377 C 0.29794 0.27023 0.26408 0.0
C2378 C 0.28238 0.26119 0.27069 0.0
H2379 H 0.04924 0.09066 0.34756 0.0
H2380 H 1.00813 0.13764 0.3812 0.0
H2381 H 0.9912 0.10564 0.34911 0.0
H2382 H 0.03658 0.08466 0.2726 0.0
H2383 H 0.04477 0.04733 0.26651 0.0
H2384 H 0.05349 0.07247 0.29366 0.0
H2385 H 0.05019 0.03127 0.3348 0.0
H2386 H 0.04154 1.00594 0.30766 0.0
H2387 H 0.03109 0.01509 0.34158 0.0
H2388 H 0.9787 0.06906 0.31137 0.0
H2389 H 0.97221 0.03198 0.27113 0.0
H2390 H 1.02162 1.01017 0.26254 0.0
C2391 C 0.03666 0.09386 0.34855 0.0
C2392 C 0.03004 0.11674 0.36685 0.0
C2393 C 1.01351 0.1205 0.3671 0.0
C2394 C 1.00377 0.1023 0.34908 0.0
C2395 C 1.0107 0.08031 0.33089 0.0
C2396 C 0.02677 0.076 0.33059 0.0
C2397 C 0.03137 0.05172 0.30818 0.0
C2398 C 0.04218 0.06484 0.2838 0.0
C2399 C 0.039 0.02439 0.32401 0.0
C2400 C 1.01544 0.04343 0.2956 0.0
C2401 C 1.00359 0.05984 0.3091 0.0
C2402 C 0.98791 0.05602 0.30071 0.0
C2403 C 0.98431 0.03497 0.27785 0.0
C2404 C 0.99637 0.01832 0.26351 0.0
C2405 C 1.01208 0.02264 0.27281 0.0
H2406 H 0.27402 0.01765 0.01031 0.0
H2407 H 0.32328 0.02075 0.98613 0.0
H2408 H 0.317 0.05772 0.94578 0.0
H2409 H 0.25861 0.02168 0.93546 0.0
H2410 H 0.24211 0.04487 0.94624 0.0
H2411 H 0.25059 0.01868 0.97271 0.0
H2412 H 0.25477 0.06283 0.01044 0.0
H2413 H 0.24628 0.08917 0.98417 0.0
H2414 H 0.26562 0.09608 0.99896 0.0
H2415 H 0.30499 0.0953 0.90869 0.0
H2416 H 0.2887 0.12985 0.87816 0.0
H2417 H 0.24732 0.1013 0.92717 0.0
C2418 C 0.28357 0.026 0.9966 0.0
C2419 C 0.2992 0.01634 1.00147 0.0
C2420 C 0.31124 0.02786 0.98286 0.0
C2421 C 0.30776 0.04881 0.9599 0.0
C2422 C 0.29218 0.05783 0.95583 0.0
C2423 C 0.2803 0.04667 0.9737 0.0
C2424 C 0.26452 0.05989 0.96509 0.0
C2425 C 0.2533 0.03478 0.95422 0.0
C2426 C 0.25738 0.07807 0.99122 0.0
C2427 C 0.26932 0.0806 0.93963 0.0
C2428 C 0.28531 0.07909 0.93459 0.0
C2429 C 0.29248 0.09662 0.91252 0.0
C2430 C 0.28312 0.11632 0.89541 0.0
C2431 C 0.26671 0.11848 0.90038 0.0
C2432 C 0.25977 0.10004 0.92264 0.0
H2433 H 0.04032 0.20514 0.89034 0.0
H2434 H 1.01973 0.12199 0.92599 0.0
H2435 H 1.00208 0.15228 0.95708 0.0
H2436 H 0.04169 0.24122 0.96198 0.0
H2437 H 0.03805 0.27886 0.94744 0.0
H2438 H 0.04755 0.2508 0.92434 0.0
H2439 H 0.02623 0.25878 0.88367 0.0
H2440 H 1.01647 0.28639 0.90706 0.0
H2441 H 1.00587 0.25375 0.8933 0.0
H2442 H 0.98609 0.19147 0.98457 0.0
H2443 H 0.97784 0.23592 0.01501 0.0
H2444 H 1.01152 0.29237 0.96827 0.0
C2445 C 0.03218 0.19306 0.90461 0.0
C2446 C 0.03118 0.16081 0.90426 0.0
C2447 C 1.02035 0.1465 0.92406 0.0
C2448 C 1.01023 0.16356 0.94218 0.0
C2449 C 1.01125 0.19511 0.94124 0.0
C2450 C 1.02227 0.20973 0.9237 0.0
C2451 C 1.02227 0.24372 0.92983 0.0
C2452 C 0.03834 0.25426 0.94161 0.0
C2453 C 1.01742 0.26171 0.90179 0.0
C2454 C 1.00975 0.24565 0.95391 0.0
C2455 C 1.00313 0.21751 0.95939 0.0
C2456 C 0.99128 0.21361 0.98064 0.0
C2457 C 0.98661 0.2389 0.99777 0.0
C2458 C 0.99421 0.26724 0.99423 0.0
C2459 C 1.00556 0.27081 0.97141 0.0
H2460 H 0.75731 0.80635 0.77505 0.0
H2461 H 0.73651 0.74081 0.71438 0.0
H2462 H 0.74757 0.7692 0.67114 0.0
H2463 H 0.75187 0.87462 0.72574 0.0
H2464 H 0.7702 0.89089 0.73788 0.0
H2465 H 0.75898 0.8674 0.7631 0.0
H2466 H 0.78322 0.83281 0.77064 0.0
H2467 H 0.79443 0.85566 0.74495 0.0
H2468 H 0.79235 0.81533 0.73851 0.0
H2469 H 0.76455 0.80053 0.63552 0.0
H2470 H 0.78249 0.83634 0.60974 0.0
H2471 H 0.79091 0.88317 0.69368 0.0
C2472 C 0.75457 0.79872 0.75256 0.0
C2473 C 0.74581 0.7718 0.74789 0.0
C2474 C 0.74281 0.76188 0.7183 0.0
C2475 C 0.74921 0.77769 0.69369 0.0
C2476 C 0.75832 0.80361 0.69916 0.0
C2477 C 0.76062 0.8145 0.72788 0.0
C2478 C 0.77134 0.84209 0.72801 0.0
C2479 C 0.76257 0.87043 0.73934 0.0
C2480 C 0.78621 0.83609 0.74663 0.0
C2481 C 0.77513 0.84463 0.69494 0.0
C2482 C 0.76761 0.82211 0.67867 0.0
C2483 C 0.77023 0.81856 0.64801 0.0
C2484 C 0.78054 0.8388 0.6336 0.0
C2485 C 0.78803 0.86251 0.64972 0.0
C2486 C 0.78522 0.86542 0.68078 0.0
H2487 H 0.0267 0.0135 0.76124 0.0
H2488 H 0.07653 1.00026 0.74651 0.0
H2489 H 0.07037 0.96118 0.70789 0.0
H2490 H 1.01511 0.936 0.75401 0.0
H2491 H 0.99694 0.94495 0.73541 0.0
H2492 H 1.00546 0.97178 0.76122 0.0
H2493 H 1.00517 1.01331 0.72002 0.0
H2494 H 0.99666 0.98662 0.69402 0.0
H2495 H 1.01464 1.00596 0.68464 0.0
H2496 H 0.0582 0.92285 0.67106 0.0
H2497 H 0.04169 0.88949 0.63963 0.0
H2498 H 0.9999 0.92859 0.67955 0.0
C2499 C 0.03642 1.00249 0.75 0.0
C2500 C 0.05216 1.00995 0.75703 0.0
C2501 C 0.06441 0.99495 0.74155 0.0
C2502 C 0.06099 0.97274 0.7196 0.0
C2503 C 0.04528 0.96597 0.71338 0.0
C2504 C 0.03323 0.98055 0.72818 0.0
C2505 C 1.01732 0.96939 0.71771 0.0
C2506 C 1.00817 0.95465 0.74363 0.0
C2507 C 1.0079 0.99537 0.70324 0.0
C2508 C 1.0222 0.94596 0.69469 0.0
C2509 C 0.03836 0.94428 0.69246 0.0
C2510 C 0.04556 0.924 0.67278 0.0
C2511 C 0.03604 0.90496 0.65515 0.0
C2512 C 1.01942 0.90613 0.65721 0.0
C2513 C 1.01251 0.92718 0.6772 0.0
H2514 H 0.78093 0.8998 0.07679 0.0
H2515 H 0.78014 0.95568 0.15682 0.0
H2516 H 0.76359 0.99366 0.13059 0.0
H2517 H 0.78486 0.96176 0.02577 0.0
H2518 H 0.77306 0.94424 0.99702 0.0
H2519 H 0.78368 0.92085 0.02311 0.0
H2520 H 0.75777 0.89366 0.0375 0.0
H2521 H 0.74704 0.91743 0.01177 0.0
H2522 H 0.74139 0.91588 0.05065 0.0
H2523 H 0.74716 0.02596 0.09486 0.0
H2524 H 0.73604 0.05302 0.05089 0.0
H2525 H 0.74894 0.97711 0.99402 0.0
C2526 C 0.77718 0.91998 0.08878 0.0
C2527 C 0.78173 0.92484 0.11883 0.0
C2528 C 0.77682 0.95168 0.13372 0.0
C2529 C 0.76731 0.97319 0.1191 0.0
C2530 C 0.7629 0.96763 0.08948 0.0
C2531 C 0.76792 0.94189 0.07436 0.0
C2532 C 0.76269 0.94243 0.04193 0.0
C2533 C 0.77692 0.94233 0.02072 0.0
C2534 C 0.75156 0.91576 0.03508 0.0
C2535 C 0.75409 0.97259 0.04104 0.0
C2536 C 0.754 0.98656 0.0688 0.0
C2537 C 0.74707 0.01509 0.07309 0.0
C2538 C 0.74062 0.03017 0.04812 0.0
C2539 C 0.74143 0.01685 0.01931 0.0
C2540 C 0.74794 0.98748 0.01597 0.0
H2541 H 0.03586 0.80349 0.98902 0.0
H2542 H 0.0548 0.73218 0.04537 0.0
H2543 H 0.04487 0.75923 0.09042 0.0
H2544 H 0.04448 0.86733 0.04157 0.0
H2545 H 0.02685 0.88729 0.03115 0.0
H2546 H 0.03668 0.86338 1.00423 0.0
H2547 H 1.01087 0.83343 0.99608 0.0
H2548 H 1.00104 0.85675 0.02341 0.0
H2549 H 1.0013 0.81594 0.02771 0.0
H2550 H 0.02948 0.79101 0.12845 0.0
H2551 H 1.01375 0.82861 0.15703 0.0
H2552 H 1.00656 0.88095 0.07597 0.0
C2553 C 0.03831 0.79407 0.01095 0.0
C2554 C 0.04623 0.76596 0.01386 0.0
C2555 C 0.04905 0.75401 0.04278 0.0
C2556 C 0.0433 0.76909 0.06842 0.0
C2557 C 0.03507 0.79637 0.06469 0.0
C2558 C 0.03297 0.80914 0.03668 0.0
C2559 C 1.02357 0.8384 0.03854 0.0
C2560 C 0.03349 0.86572 0.02827 0.0
C2561 C 1.00829 0.83596 0.02035 0.0
C2562 C 1.02027 0.83977 0.07187 0.0
C2563 C 0.02687 0.81519 0.08658 0.0
C2564 C 0.02452 0.81058 0.11719 0.0
C2565 C 1.01546 0.83187 0.1332 0.0
C2566 C 1.009 0.85766 0.11872 0.0
C2567 C 1.01148 0.86157 0.08764 0.0
H2568 H 0.27439 0.77521 0.76699 0.0
H2569 H 0.32385 0.75519 0.7782 0.0
H2570 H 0.31727 0.7208 0.82059 0.0
H2571 H 0.26375 0.77368 0.84626 0.0
H2572 H 0.24497 0.75644 0.83874 0.0
H2573 H 0.25385 0.78115 0.81135 0.0
H2574 H 0.25183 0.73841 0.77144 0.0
H2575 H 0.24296 0.71358 0.79861 0.0
H2576 H 0.26041 0.7017 0.77906 0.0
H2577 H 0.30468 0.68565 0.85927 0.0
H2578 H 0.28763 0.65294 0.89032 0.0
H2579 H 0.24649 0.69646 0.8526 0.0
C2580 C 0.28394 0.76387 0.77843 0.0
C2581 C 0.29967 0.76778 0.7692 0.0
C2582 C 0.31173 0.75253 0.78492 0.0
C2583 C 0.30808 0.73304 0.80901 0.0
C2584 C 0.29235 0.72937 0.81714 0.0
C2585 C 0.28051 0.74456 0.80233 0.0
C2586 C 0.26449 0.73584 0.81416 0.0
C2587 C 0.25628 0.76342 0.82848 0.0
C2588 C 0.25433 0.72153 0.78934 0.0
C2589 C 0.26904 0.7126 0.83754 0.0
C2590 C 0.28516 0.70937 0.83917 0.0
C2591 C 0.29207 0.6882 0.85825 0.0
C2592 C 0.28227 0.66959 0.87566 0.0
C2593 C 0.2657 0.67205 0.87381 0.0
C2594 C 0.25908 0.6943 0.85485 0.0
H2595 H 0.04055 0.5793 0.86167 0.0
H2596 H 1.01456 0.66006 0.83515 0.0
H2597 H 0.99845 0.62899 0.80136 0.0
H2598 H 0.04215 0.54847 0.78663 0.0
H2599 H 0.0408 0.5095 0.79902 0.0
H2600 H 0.04953 0.5378 0.82298 0.0
H2601 H 0.02988 0.52362 0.86517 0.0
H2602 H 1.02119 0.49545 0.84097 0.0
H2603 H 1.00913 0.52467 0.85751 0.0
H2604 H 0.98452 0.58868 0.77049 0.0
H2605 H 0.97716 0.54397 0.73938 0.0
H2606 H 1.0137 0.49103 0.78213 0.0
C2607 C 0.03159 0.59068 0.84867 0.0
C2608 C 0.02868 0.62228 0.85211 0.0
C2609 C 1.01677 0.63582 0.83422 0.0
C2610 C 1.00753 0.61835 0.81466 0.0
C2611 C 1.01045 0.58726 0.8125 0.0
C2612 C 1.02243 0.57367 0.8285 0.0
C2613 C 0.02391 0.54026 0.82033 0.0
C2614 C 0.04005 0.53363 0.80641 0.0
C2615 C 1.02083 0.51982 0.84764 0.0
C2616 C 1.01089 0.53727 0.79734 0.0
C2617 C 1.00305 0.56449 0.7935 0.0
C2618 C 0.99058 0.56723 0.77333 0.0
C2619 C 0.98635 0.54171 0.75598 0.0
C2620 C 0.99477 0.51413 0.75861 0.0
C2621 C 1.007 0.51186 0.77988 0.0
H2622 H 0.27867 0.501 0.49708 0.0
H2623 H 0.32684 0.53262 0.4973 0.0
H2624 H 0.3197 0.57272 0.46048 0.0
H2625 H 0.27126 0.51401 0.41754 0.0
H2626 H 0.25125 0.52544 0.42397 0.0
H2627 H 0.26051 0.49859 0.44881 0.0
H2628 H 0.25398 0.53329 0.4941 0.0
H2629 H 0.24477 0.56033 0.46948 0.0
H2630 H 0.2604 0.57241 0.49393 0.0
H2631 H 0.30646 0.6116 0.42616 0.0
H2632 H 0.289 0.64399 0.39566 0.0
H2633 H 0.24957 0.58589 0.41812 0.0
C2634 C 0.2878 0.51618 0.48926 0.0
C2635 C 0.30333 0.5138 0.50016 0.0
C2636 C 0.3149 0.53397 0.48915 0.0
C2637 C 0.31092 0.55683 0.46833 0.0
C2638 C 0.29537 0.55885 0.45852 0.0
C2639 C 0.28406 0.53876 0.46843 0.0
C2640 C 0.26815 0.54582 0.45502 0.0
C2641 C 0.26246 0.5194 0.43515 0.0
C2642 C 0.25612 0.55342 0.4796 0.0
C2643 C 0.2721 0.57359 0.43646 0.0
C2644 C 0.28787 0.58073 0.43867 0.0
C2645 C 0.29414 0.60606 0.42421 0.0
C2646 C 0.28407 0.62449 0.40713 0.0
C2647 C 0.26786 0.61764 0.40458 0.0
C2648 C 0.2619 0.59164 0.41935 0.0
H2649 H 0.02712 0.77118 0.50073 0.0
H2650 H 0.97727 0.75435 0.49049 0.0
H2651 H 0.98313 0.71603 0.45107 0.0
H2652 H 0.03768 0.76289 0.42221 0.0
H2653 H 0.05609 0.74475 0.4308 0.0
H2654 H 0.04776 0.77186 0.4566 0.0
H2655 H 0.04895 0.73166 0.49901 0.0
H2656 H 0.05722 0.70439 0.47339 0.0
H2657 H 0.03957 0.69525 0.49369 0.0
H2658 H 0.99492 0.6775 0.41455 0.0
H2659 H 1.01116 0.64316 0.38369 0.0
H2660 H 0.05328 0.6854 0.4191 0.0
C2661 C 1.01735 0.75969 0.4901 0.0
C2662 C 1.0017 0.76576 0.49873 0.0
C2663 C 0.98933 0.75017 0.48414 0.0
C2664 C 0.99257 0.72836 0.46179 0.0
C2665 C 1.00821 0.72263 0.45423 0.0
C2666 C 1.02037 0.73806 0.46789 0.0
C2667 C 0.03618 0.72731 0.45657 0.0
C2668 C 0.04494 0.75325 0.44059 0.0
C2669 C 0.04606 0.71385 0.48219 0.0
C2670 C 0.03111 0.70293 0.43467 0.0
C2671 C 1.01494 0.70064 0.4335 0.0
C2672 C 1.00757 0.6792 0.41532 0.0
C2673 C 1.01693 0.65959 0.39805 0.0
C2674 C 0.03355 0.66133 0.39908 0.0
C2675 C 0.04064 0.68357 0.41754 0.0
H2676 H 0.80246 0.34811 0.17222 0.0
H2677 H 0.76014 0.38921 0.13664 0.0
H2678 H 0.74407 0.3557 0.1687 0.0
H2679 H 0.78709 0.27091 0.17771 0.0
H2680 H 0.79738 0.26302 0.2121 0.0
H2681 H 0.80545 0.28964 0.18557 0.0
H2682 H 0.80664 0.33101 0.227 0.0
H2683 H 0.79854 0.30454 0.25359 0.0
H2684 H 0.78906 0.34065 0.24732 0.0
H2685 H 0.73244 0.31756 0.20597 0.0
H2686 H 0.72678 0.27911 0.24536 0.0
H2687 H 0.77674 0.26381 0.2559 0.0
C2688 C 0.78981 0.34984 0.17091 0.0
C2689 C 0.78261 0.3715 0.15199 0.0
C2690 C 0.76598 0.37318 0.15128 0.0
C2691 C 0.75672 0.35407 0.16928 0.0
C2692 C 0.7642 0.33323 0.18794 0.0
C2693 C 0.78038 0.33101 0.18883 0.0
C2694 C 0.78555 0.30728 0.21132 0.0
C2695 C 0.79438 0.28117 0.19574 0.0
C2696 C 0.79553 0.32175 0.23629 0.0
C2697 C 0.7698 0.29672 0.22311 0.0
C2698 C 0.75757 0.31172 0.20931 0.0
C2699 C 0.74196 0.30565 0.21689 0.0
C2700 C 0.73883 0.2838 0.23926 0.0
C2701 C 0.75126 0.26848 0.25386 0.0
C2702 C 0.7669 0.27512 0.24538 0.0
H2703 H 0.04128 0.48043 0.27121 0.0
H2704 H 0.06177 0.54566 0.20998 0.0
H2705 H 0.0518 0.51547 0.16691 0.0
H2706 H 0.04851 0.41125 0.22356 0.0
H2707 H 0.03032 0.39412 0.23531 0.0
H2708 H 0.04088 0.41888 0.26046 0.0
H2709 H 1.01599 0.45209 0.2663 0.0
H2710 H 1.00546 0.42797 0.24065 0.0
H2711 H 1.00694 0.46826 0.23344 0.0
H2712 H 0.03583 0.48236 0.13134 0.0
H2713 H 1.01858 0.44525 0.10561 0.0
H2714 H 1.00976 0.4 0.19018 0.0
C2715 C 0.04418 0.48763 0.24866 0.0
C2716 C 0.05253 0.51493 0.24371 0.0
C2717 C 0.05577 0.52431 0.21408 0.0
C2718 C 0.05 0.50745 0.18957 0.0
C2719 C 0.04129 0.48109 0.19524 0.0
C2720 C 0.03876 0.47081 0.2241 0.0
C2721 C 0.0285 0.44259 0.22437 0.0
C2722 C 0.0376 0.41508 0.23664 0.0
C2723 C 1.01333 0.44808 0.24225 0.0
C2724 C 0.02514 0.43909 0.19122 0.0
C2725 C 0.03256 0.46158 0.17477 0.0
C2726 C 0.03025 0.46434 0.14396 0.0
C2727 C 1.02031 0.44336 0.12958 0.0
C2728 C 1.01289 0.41975 0.14591 0.0
C2729 C 1.01543 0.41761 0.17712 0.0
H2730 H 0.79874 0.43456 0.59312 0.0
H2731 H 0.75666 0.40094 0.63665 0.0
H2732 H 0.74058 0.43542 0.60574 0.0
H2733 H 0.78596 0.51355 0.58773 0.0
H2734 H 0.79512 0.51913 0.55176 0.0
H2735 H 0.80325 0.49217 0.57787 0.0
H2736 H 0.80132 0.44969 0.53764 0.0
H2737 H 0.79314 0.4765 0.51148 0.0
H2738 H 0.78268 0.44195 0.52016 0.0
H2739 H 0.72879 0.47343 0.56817 0.0
H2740 H 0.723 0.51132 0.52829 0.0
H2741 H 0.77288 0.52003 0.51111 0.0
C2742 C 0.78617 0.43467 0.59649 0.0
C2743 C 0.77904 0.41468 0.61725 0.0
C2744 C 0.76247 0.4155 0.62053 0.0
C2745 C 0.75319 0.43522 0.6032 0.0
C2746 C 0.76058 0.45431 0.58267 0.0
C2747 C 0.77672 0.45427 0.57941 0.0
C2748 C 0.78181 0.47663 0.55554 0.0
C2749 C 0.79215 0.50186 0.56904 0.0
C2750 C 0.79023 0.4602 0.52968 0.0
C2751 C 0.76605 0.48901 0.54569 0.0
C2752 C 0.75389 0.47604 0.56155 0.0
C2753 C 0.73827 0.48382 0.55572 0.0
C2754 C 0.73506 0.50535 0.53304 0.0
C2755 C 0.74742 0.51875 0.51651 0.0
C2756 C 0.76307 0.51037 0.52324 0.0
H2757 H 1.00952 0.38049 0.56795 0.0
H2758 H 1.0168 0.32893 0.64946 0.0
H2759 H 0.03454 0.29381 0.62221 0.0
H2760 H 1.00768 0.31531 0.51962 0.0
H2761 H 1.01717 0.33416 0.48868 0.0
H2762 H 1.00607 0.35601 0.51537 0.0
H2763 H 0.03045 0.3899 0.52503 0.0
H2764 H 0.04172 0.36766 0.49878 0.0
H2765 H 0.04858 0.37245 0.53668 0.0
H2766 H 0.05177 0.26429 0.58553 0.0
H2767 H 0.06312 0.23814 0.54125 0.0
H2768 H 0.04314 0.30709 0.48342 0.0
C2769 C 1.01488 0.36179 0.57999 0.0
C2770 C 1.01184 0.35738 0.6108 0.0
C2771 C 1.01892 0.33252 0.6258 0.0
C2772 C 0.02913 0.31269 0.61057 0.0
C2773 C 0.03204 0.31782 0.58022 0.0
C2774 C 0.02486 0.34144 0.56497 0.0
C2775 C 0.02892 0.34059 0.53192 0.0
C2776 C 1.01408 0.33624 0.51278 0.0
C2777 C 0.03795 0.36936 0.52256 0.0
C2778 C 0.03938 0.31269 0.53086 0.0
C2779 C 0.04137 0.30024 0.55903 0.0
C2780 C 0.05035 0.27398 0.56341 0.0
C2781 C 0.05693 0.25946 0.53822 0.0
C2782 C 0.05423 0.27097 0.50909 0.0
C2783 C 0.04562 0.29821 0.50555 0.0
H2784 H 0.75651 0.19959 0.87262 0.0
H2785 H 0.77507 0.11573 0.83447 0.0
H2786 H 0.79249 0.14562 0.80238 0.0
H2787 H 0.75415 0.23699 0.80193 0.0
H2788 H 0.75864 0.27408 0.81701 0.0
H2789 H 0.74919 0.24605 0.84018 0.0
H2790 H 0.77141 0.25196 0.8794 0.0
H2791 H 0.78111 0.27955 0.85594 0.0
H2792 H 0.79149 0.24605 0.86817 0.0
H2793 H 0.80819 0.18482 0.77357 0.0
H2794 H 0.81639 0.22933 0.7435 0.0
H2795 H 0.78499 0.28677 0.79481 0.0
C2796 C 0.76408 0.18715 0.85755 0.0
C2797 C 0.76448 0.1548 0.85729 0.0
C2798 C 0.77479 0.14024 0.83666 0.0
C2799 C 0.78478 0.1571 0.81798 0.0
C2800 C 0.78421 0.18873 0.81934 0.0
C2801 C 0.77382 0.20361 0.83802 0.0
C2802 C 0.77423 0.23772 0.83265 0.0
C2803 C 0.7581 0.24939 0.82232 0.0
C2804 C 0.7799 0.25482 0.86072 0.0
C2805 C 0.78627 0.23955 0.80771 0.0
C2806 C 0.79228 0.21116 0.801 0.0
C2807 C 0.80352 0.20716 0.77859 0.0
C2808 C 0.80822 0.23264 0.76172 0.0
C2809 C 0.80133 0.26146 0.76683 0.0
C2810 C 0.79053 0.26498 0.79061 0.0
H2811 H 0.50493 0.05102 0.73644 0.0
H2812 H 0.48256 0.98354 0.79278 0.0
H2813 H 0.49185 1.01111 0.83799 0.0
H2814 H 0.53848 0.06144 0.77805 0.0
H2815 H 0.53996 0.10202 0.77262 0.0
H2816 H 0.53027 0.07883 0.74501 0.0
H2817 H 0.5051 0.11146 0.74966 0.0
H2818 H 0.51482 0.13527 0.77682 0.0
H2819 H 0.49642 0.11739 0.78602 0.0
H2820 H 0.50708 0.04267 0.87661 0.0
H2821 H 0.52307 0.07976 0.90547 0.0
H2822 H 0.53369 0.12835 0.82354 0.0
C2823 C 0.50157 0.04261 0.75834 0.0
C2824 C 0.49298 0.01529 0.76124 0.0
C2825 C 0.48895 1.00466 0.79014 0.0
C2826 C 0.49429 0.02008 0.8159 0.0
C2827 C 0.50329 0.04644 0.81222 0.0
C2828 C 0.50649 0.05807 0.7841 0.0
C2829 C 0.51658 0.0864 0.78596 0.0
C2830 C 0.53225 0.08188 0.76943 0.0
C2831 C 0.5077 0.11428 0.77391 0.0
C2832 C 0.51901 0.08851 0.81949 0.0
C2833 C 0.51138 0.06515 0.83431 0.0
C2834 C 0.51283 0.06136 0.86525 0.0
C2835 C 0.52204 0.0823 0.88142 0.0
C2836 C 0.52951 0.10688 0.86668 0.0
C2837 C 0.52796 0.1099 0.83534 0.0
H2838 H 0.79125 0.0497 0.52863 0.0
H2839 H 0.81811 0.99064 0.47021 0.0
H2840 H 0.80896 0.02017 0.42617 0.0
H2841 H 0.7585 0.05773 0.48361 0.0
H2842 H 0.75501 0.09732 0.49199 0.0
H2843 H 0.76486 0.07356 0.51887 0.0
H2844 H 0.78849 0.1106 0.51994 0.0
H2845 H 0.7786 0.13485 0.49343 0.0
H2846 H 0.79801 0.12087 0.48534 0.0
H2847 H 0.79393 0.05248 0.38836 0.0
H2848 H 0.77717 0.08852 0.36025 0.0
H2849 H 0.76131 0.12822 0.44386 0.0
C2850 C 0.79554 0.04353 0.5066 0.0
C2851 C 0.80547 0.01808 0.50273 0.0
C2852 C 0.81073 1.01039 0.47363 0.0
C2853 C 0.80548 0.02692 0.44852 0.0
C2854 C 0.79527 0.05142 0.45306 0.0
C2855 C 0.79067 0.06012 0.4815 0.0
C2856 C 0.77938 0.08676 0.48046 0.0
C2857 C 0.7635 0.07832 0.49456 0.0
C2858 C 0.78655 0.11494 0.49569 0.0
C2859 C 0.77792 0.09124 0.44692 0.0
C2860 C 0.78711 0.07055 0.43148 0.0
C2861 C 0.78691 0.06907 0.40027 0.0
C2862 C 0.77725 0.08945 0.3845 0.0
C2863 C 0.76798 0.11122 0.39986 0.0
C2864 C 0.76841 0.11209 0.43151 0.0
H2865 H 0.5144 0.22491 0.52233 0.0
H2866 H 0.48792 0.28377 0.46316 0.0
H2867 H 0.49661 0.25289 0.41956 0.0
H2868 H 0.54693 0.21484 0.47705 0.0
H2869 H 0.5501 0.17535 0.48621 0.0
H2870 H 0.54056 0.20006 0.51271 0.0
H2871 H 0.51663 0.16381 0.51481 0.0
H2872 H 0.52619 0.13866 0.48864 0.0
H2873 H 0.50687 0.15312 0.48055 0.0
H2874 H 0.51123 0.21922 0.38221 0.0
H2875 H 0.52777 0.18229 0.35464 0.0
H2876 H 0.54345 0.14371 0.43877 0.0
C2877 C 0.51011 0.23082 0.50024 0.0
C2878 C 0.50041 0.25655 0.49602 0.0
C2879 C 0.49513 0.26382 0.46685 0.0
C2880 C 0.50012 0.24653 0.442 0.0
C2881 C 0.5101 0.22174 0.44689 0.0
C2882 C 0.51473 0.21352 0.47541 0.0
C2883 C 0.52578 0.18647 0.47476 0.0
C2884 C 0.54179 0.19469 0.48849 0.0
C2885 C 0.51842 0.15888 0.49062 0.0
C2886 C 0.52707 0.18117 0.44133 0.0
C2887 C 0.518 0.20182 0.42559 0.0
C2888 C 0.51813 0.20266 0.39436 0.0
C2889 C 0.52765 0.18176 0.3789 0.0
C2890 C 0.53682 0.1601 0.39459 0.0
C2891 C 0.53641 0.15976 0.42622 0.0
H2892 H 0.27509 0.75825 0.2547 0.0
H2893 H 0.22529 0.7705 0.23882 0.0
H2894 H 0.23148 0.80945 0.2002 0.0
H2895 H 0.28596 0.83606 0.24813 0.0
H2896 H 0.30442 0.82794 0.23018 0.0
H2897 H 0.29593 0.80066 0.25551 0.0
H2898 H 0.29706 0.7593 0.21412 0.0
H2899 H 0.30557 0.78643 0.18861 0.0
H2900 H 0.2879 0.76643 0.17841 0.0
H2901 H 0.24361 0.84789 0.16371 0.0
H2902 H 0.26006 0.882 0.13306 0.0
H2903 H 0.30187 0.84448 0.17432 0.0
C2904 C 0.26539 0.76892 0.24311 0.0
C2905 C 0.24965 0.76121 0.24982 0.0
C2906 C 0.23742 0.77593 0.23403 0.0
C2907 C 0.24085 0.79808 0.2121 0.0
C2908 C 0.25656 0.80517 0.20626 0.0
C2909 C 0.2686 0.79092 0.22137 0.0
C2910 C 0.28449 0.80274 0.21157 0.0
C2911 C 0.29321 0.81774 0.23791 0.0
C2912 C 0.29433 0.7772 0.19733 0.0
C2913 C 0.27961 0.82609 0.18849 0.0
C2914 C 0.26346 0.82716 0.18568 0.0
C2915 C 0.25624 0.84723 0.16588 0.0
C2916 C 0.26572 0.86671 0.1487 0.0
C2917 C 0.28232 0.86624 0.15138 0.0
C2918 C 0.28927 0.84537 0.17149 0.0
H2919 H 0.54387 0.96965 0.27099 0.0
H2920 H 0.56348 0.03891 0.213 0.0
H2921 H 0.55231 1.01231 0.16875 0.0
H2922 H 0.54987 0.90444 0.21833 0.0
H2923 H 0.53188 0.88651 0.23008 0.0
H2924 H 0.5429 0.90942 0.25615 0.0
H2925 H 0.51818 0.94217 0.26589 0.0
H2926 H 0.50717 0.9199 0.23937 0.0
H2927 H 0.50857 0.9606 0.23484 0.0
H2928 H 0.53548 0.98187 0.13203 0.0
H2929 H 0.51812 0.94587 0.10488 0.0
H2930 H 0.511 0.89489 0.18679 0.0
C2931 C 0.54627 0.97858 0.24884 0.0
C2932 C 0.55471 1.00601 0.24522 0.0
C2933 C 0.55737 0.0175 0.21607 0.0
C2934 C 0.55092 1.00271 0.19091 0.0
C2935 C 0.54212 0.97621 0.19536 0.0
C2936 C 0.54019 0.96381 0.22358 0.0
C2937 C 0.52992 0.93565 0.22262 0.0
C2938 C 0.5392 0.90732 0.23237 0.0
C2939 C 0.51508 0.93986 0.24182 0.0
C2940 C 0.52596 0.9345 0.18958 0.0
C2941 C 0.53299 0.95821 0.17422 0.0
C2942 C 0.53017 0.96294 0.14377 0.0
C2943 C 0.5202 0.9426 0.1286 0.0
C2944 C 0.51329 0.91768 0.14378 0.0
C2945 C 0.51624 0.91366 0.17465 0.0
H2946 H 0.30218 0.92631 0.58593 0.0
H2947 H 0.26007 0.8898 0.62696 0.0
H2948 H 0.24385 0.92316 0.59509 0.0
H2949 H 0.28836 1.00399 0.57969 0.0
H2950 H 0.29784 1.01028 0.54414 0.0
H2951 H 0.30605 0.98359 0.57042 0.0
H2952 H 0.30515 0.94128 0.52988 0.0
H2953 H 0.29688 0.96784 0.50354 0.0
H2954 H 0.28682 0.93268 0.5116 0.0
H2955 H 0.23203 0.96112 0.55795 0.0
H2956 H 0.22611 1.0 0.51915 0.0
H2957 H 0.27599 1.01102 0.50322 0.0
C2958 C 0.28956 0.92548 0.5884 0.0
C2959 C 0.28246 0.90516 0.60885 0.0
C2960 C 0.26584 0.90472 0.61111 0.0
C2961 C 0.2565 0.92375 0.59321 0.0
C2962 C 0.26387 0.94328 0.57309 0.0
C2963 C 0.28004 0.94428 0.57065 0.0
C2964 C 0.28508 0.96707 0.54713 0.0
C2965 C 0.29491 0.99275 0.56119 0.0
C2966 C 0.29401 0.95126 0.52152 0.0
C2967 C 0.26927 0.97866 0.53671 0.0
C2968 C 0.25713 0.9648 0.5519 0.0
C2969 C 0.24147 0.9721 0.5459 0.0
C2970 C 0.2382 0.99416 0.52382 0.0
C2971 C 0.25053 1.00854 0.50802 0.0
C2972 C 0.26622 1.00049 0.51474 0.0
H2973 H 0.50522 0.83044 0.61365 0.0
H2974 H 0.52703 0.91282 0.57946 0.0
H2975 H 0.54392 0.88184 0.54679 0.0
H2976 H 0.53949 0.78185 0.61144 0.0
H2977 H 0.5288 0.74891 0.59865 0.0
H2978 H 0.51913 0.77721 0.62134 0.0
H2979 H 0.49775 0.78418 0.58062 0.0
H2980 H 0.50717 0.75547 0.55817 0.0
H2981 H 0.50355 0.79272 0.5427 0.0
H2982 H 0.55851 0.84143 0.51674 0.0
H2983 H 0.56644 0.79584 0.48741 0.0
H2984 H 0.53397 0.74085 0.53877 0.0
C2985 C 0.51343 0.84213 0.5992 0.0
C2986 C 0.51484 0.87429 0.59979 0.0
C2987 C 0.5259 0.88829 0.58035 0.0
C2988 C 0.53559 0.87085 0.56152 0.0
C2989 C 0.53407 0.83927 0.56196 0.0
C2990 C 0.52308 0.82509 0.57998 0.0
C2991 C 0.52303 0.79097 0.57475 0.0
C2992 C 0.5279 0.77373 0.60325 0.0
C2993 C 0.50692 0.78021 0.56337 0.0
C2994 C 0.53548 0.78829 0.55065 0.0
C2995 C 0.54199 0.81627 0.54398 0.0
C2996 C 0.55354 0.81937 0.52192 0.0
C2997 C 0.55811 0.79337 0.50558 0.0
C2998 C 0.55094 0.7649 0.51112 0.0
C2999 C 0.53976 0.76236 0.53436 0.0
H3000 H 0.75427 0.70038 0.36617 0.0
H3001 H 0.77889 0.61957 0.33508 0.0
H3002 H 0.79584 0.65156 0.30387 0.0
H3003 H 0.75321 0.7351 0.29352 0.0
H3004 H 0.75518 0.7733 0.30787 0.0
H3005 H 0.74611 0.74432 0.33047 0.0
H3006 H 0.76606 0.75557 0.3729 0.0
H3007 H 0.77542 0.78414 0.35009 0.0
H3008 H 0.78677 0.75314 0.36517 0.0
H3009 H 0.81077 0.69267 0.27618 0.0
H3010 H 0.81844 0.73789 0.24654 0.0
H3011 H 0.78195 0.79042 0.29013 0.0
C3012 C 0.76309 0.68915 0.35274 0.0
C3013 C 0.76537 0.65718 0.35422 0.0
C3014 C 0.77717 0.64396 0.33579 0.0
C3015 C 0.78689 0.66198 0.31768 0.0
C3016 C 0.78457 0.69332 0.31745 0.0
C3017 C 0.77269 0.70672 0.33387 0.0
C3018 C 0.77168 0.74055 0.32732 0.0
C3019 C 0.75559 0.74879 0.314 0.0
C3020 C 0.77519 0.75946 0.35556 0.0
C3021 C 0.78468 0.74388 0.30436 0.0
C3022 C 0.7923 0.71658 0.29963 0.0
C3023 C 0.80479 0.71414 0.27953 0.0
C3024 C 0.80913 0.73998 0.26285 0.0
C3025 C 0.80066 0.7675 0.26576 0.0
C3026 C 0.78859 0.76958 0.2874 0.0
H3027 H 0.51556 0.53211 0.23787 0.0
H3028 H 0.47128 0.51053 0.28069 0.0
H3029 H 0.47883 0.54297 0.32402 0.0
H3030 H 0.53906 0.52976 0.30291 0.0
H3031 H 0.55156 0.56084 0.29173 0.0
H3032 H 0.54225 0.5375 0.26372 0.0
H3033 H 0.52969 0.58535 0.23976 0.0
H3034 H 0.5391 0.60893 0.26747 0.0
H3035 H 0.51814 0.61065 0.26267 0.0
H3036 H 0.49219 0.57619 0.3637 0.0
H3037 H 0.50915 0.60884 0.39496 0.0
H3038 H 0.54464 0.60838 0.32533 0.0
C3039 C 0.50731 0.53436 0.25619 0.0
C3040 C 0.49277 0.51877 0.25585 0.0
C3041 C 0.48239 0.52245 0.28032 0.0
C3042 C 0.48665 0.54069 0.30506 0.0
C3043 C 0.50126 0.55519 0.30483 0.0
C3044 C 0.51135 0.55238 0.28083 0.0
C3045 C 0.52648 0.56978 0.28599 0.0
C3046 C 0.54067 0.54817 0.28609 0.0
C3047 C 0.52846 0.59519 0.26259 0.0
C3048 C 0.52348 0.58278 0.31688 0.0
C3049 C 0.50887 0.57414 0.32738 0.0
C3050 C 0.50357 0.58323 0.3555 0.0
C3051 C 0.5133 0.60191 0.37307 0.0
C3052 C 0.52824 0.61149 0.3626 0.0
C3053 C 0.53338 0.60139 0.33416 0.0
H3054 H 0.74841 0.5929 0.91324 0.0
H3055 H 0.78899 0.64749 0.88985 0.0
H3056 H 0.80571 0.61476 0.92154 0.0
H3057 H 0.75847 0.58168 0.9892 0.0
H3058 H 0.75128 0.54311 0.99083 0.0
H3059 H 0.74281 0.56966 0.96476 0.0
H3060 H 0.74892 0.53269 0.92092 0.0
H3061 H 0.75742 0.50604 0.94694 0.0
H3062 H 0.76872 0.51943 0.91548 0.0
H3063 H 0.81804 0.57609 0.95749 0.0
H3064 H 0.82412 0.53708 0.99615 0.0
H3065 H 0.77536 0.50908 0.99582 0.0
C3066 C 0.76085 0.59774 0.91446 0.0
C3067 C 0.76734 0.62286 0.89909 0.0
C3068 C 0.78367 0.62862 0.9017 0.0
C3069 C 0.79331 0.61 0.91947 0.0
C3070 C 0.7865 0.58557 0.93456 0.0
C3071 C 0.77062 0.57948 0.93224 0.0
C3072 C 0.76603 0.55278 0.95177 0.0
C3073 C 0.75394 0.56239 0.97555 0.0
C3074 C 0.75991 0.52616 0.93263 0.0
C3075 C 0.7817 0.54516 0.96584 0.0
C3076 C 0.79347 0.56396 0.95541 0.0
C3077 C 0.8089 0.56119 0.96572 0.0
C3078 C 0.81228 0.53896 0.98759 0.0
C3079 C 0.80023 0.52018 0.9991 0.0
C3080 C 0.78484 0.52322 0.98764 0.0
H3081 H 0.54293 0.69843 0.89486 0.0
H3082 H 0.51914 0.61689 0.92648 0.0
H3083 H 0.50146 0.64848 0.95653 0.0
H3084 H 0.54287 0.73408 0.9672 0.0
H3085 H 0.5406 0.772 0.95238 0.0
H3086 H 0.55023 0.74317 0.9304 0.0
H3087 H 0.53055 0.75306 0.8872 0.0
H3088 H 0.52063 0.78142 0.90942 0.0
H3089 H 0.50981 0.74972 0.89423 0.0
H3090 H 0.4856 0.68912 0.98268 0.0
H3091 H 0.47719 0.73417 0.01187 0.0
H3092 H 0.51361 0.78788 0.96949 0.0
C3093 C 0.53413 0.68697 0.90816 0.0
C3094 C 0.53226 0.65489 0.90707 0.0
C3095 C 0.52052 0.64135 0.92539 0.0
C3096 C 0.51037 0.65914 0.94283 0.0
C3097 C 0.51225 0.69058 0.94258 0.0
C3098 C 0.52413 0.70433 0.92646 0.0
C3099 C 0.52468 0.73827 0.93271 0.0
C3100 C 0.54053 0.74741 0.9465 0.0
C3101 C 0.52121 0.75669 0.90418 0.0
C3102 C 0.51142 0.74123 0.95517 0.0
C3103 C 0.50405 0.71365 0.95982 0.0
C3104 C 0.49139 0.7108 0.97945 0.0
C3105 C 0.48663 0.73653 0.99587 0.0
C3106 C 0.49491 0.76431 0.99326 0.0
C3107 C 0.50712 0.76682 0.97197 0.0
H3108 H 0.26231 0.3012 0.77417 0.0
H3109 H 0.24094 0.23517 0.71473 0.0
H3110 H 0.25183 0.26284 0.67089 0.0
H3111 H 0.25582 0.36826 0.72457 0.0
H3112 H 0.27405 0.38554 0.73588 0.0
H3113 H 0.26341 0.3617 0.76169 0.0
H3114 H 0.28819 0.32834 0.76849 0.0
H3115 H 0.29881 0.35159 0.74223 0.0
H3116 H 0.29722 0.31112 0.73611 0.0
H3117 H 0.26836 0.29419 0.63438 0.0
H3118 H 0.28539 0.33093 0.60753 0.0
H3119 H 0.2942 0.37868 0.69081 0.0
C3120 C 0.25957 0.29309 0.75184 0.0
C3121 C 0.25075 0.26618 0.74767 0.0
C3122 C 0.24749 0.25599 0.71826 0.0
C3123 C 0.25374 0.27145 0.69332 0.0
C3124 C 0.26289 0.29742 0.69827 0.0
C3125 C 0.2654 0.30863 0.72682 0.0
C3126 C 0.27574 0.33673 0.7263 0.0
C3127 C 0.26672 0.36471 0.73778 0.0
C3128 C 0.29088 0.33162 0.74435 0.0
C3129 C 0.27912 0.33916 0.69307 0.0
C3130 C 0.27172 0.31614 0.67727 0.0
C3131 C 0.27396 0.31258 0.6465 0.0
C3132 C 0.28375 0.33335 0.63148 0.0
C3133 C 0.29105 0.35758 0.64713 0.0
C3134 C 0.28866 0.36047 0.67831 0.0
H3135 H 0.52449 0.51918 0.74846 0.0
H3136 H 0.57456 0.50712 0.73613 0.0
H3137 H 0.56921 0.46873 0.69651 0.0
H3138 H 0.51369 0.44209 0.74058 0.0
H3139 H 0.49566 0.45007 0.72104 0.0
H3140 H 0.50357 0.47755 0.74689 0.0
H3141 H 0.50342 0.51857 0.7052 0.0
H3142 H 0.49548 0.49123 0.67917 0.0
H3143 H 0.51338 0.51114 0.67034 0.0
H3144 H 0.55794 0.42989 0.6595 0.0
H3145 H 0.54222 0.39483 0.62843 0.0
H3146 H 0.49952 0.4324 0.66626 0.0
C3147 C 0.5344 0.5087 0.73737 0.0
C3148 C 0.54999 0.51619 0.74547 0.0
C3149 C 0.56254 0.50184 0.73027 0.0
C3150 C 0.55959 0.48001 0.70777 0.0
C3151 C 0.54403 0.47294 0.70067 0.0
C3152 C 0.53167 0.48705 0.715 0.0
C3153 C 0.51601 0.4751 0.70398 0.0
C3154 C 0.50669 0.46032 0.72965 0.0
C3155 C 0.50652 0.50053 0.68876 0.0
C3156 C 0.52141 0.45158 0.68144 0.0
C3157 C 0.5376 0.45076 0.67971 0.0
C3158 C 0.54527 0.43041 0.66076 0.0
C3159 C 0.5362 0.41037 0.64335 0.0
C3160 C 0.51957 0.41054 0.64498 0.0
C3161 C 0.51217 0.43175 0.6642 0.0
H3162 H 0.29065 0.45014 0.10996 0.0
H3163 H 0.26653 0.36705 0.08402 0.0
H3164 H 0.24945 0.39646 0.05045 0.0
H3165 H 0.25734 0.50076 0.10727 0.0
H3166 H 0.26808 0.53192 0.09088 0.0
H3167 H 0.27803 0.50484 0.11448 0.0
H3168 H 0.29793 0.49338 0.07206 0.0
H3169 H 0.28823 0.52088 0.04863 0.0
H3170 H 0.29081 0.48233 0.0356 0.0
H3171 H 0.23448 0.43513 0.01959 0.0
H3172 H 0.22594 0.47893 0.98841 0.0
H3173 H 0.2608 0.53579 0.03156 0.0
C3174 C 0.28188 0.43802 0.09709 0.0
C3175 C 0.2798 0.4062 0.10041 0.0
C3176 C 0.26813 0.39147 0.08285 0.0
C3177 C 0.25834 0.40799 0.06354 0.0
C3178 C 0.26039 0.43934 0.06149 0.0
C3179 C 0.27208 0.45415 0.07733 0.0
C3180 C 0.27243 0.48777 0.06958 0.0
C3181 C 0.26875 0.50747 0.0972 0.0
C3182 C 0.28829 0.4966 0.05563 0.0
C3183 C 0.25927 0.48936 0.04675 0.0
C3184 C 0.25223 0.46133 0.0428 0.0
C3185 C 0.23988 0.45723 0.02255 0.0
C3186 C 0.23497 0.48223 1.00515 0.0
C3187 C 0.24262 0.51065 0.00784 0.0
C3188 C 0.25468 0.51428 0.02931 0.0
H3189 H 0.53483 0.30892 0.97797 0.0
H3190 H 0.55963 0.24456 0.03418 0.0
H3191 H 0.55 0.27155 0.07939 0.0
H3192 H 0.54173 0.3766 0.02695 0.0
H3193 H 0.52274 0.39232 0.01838 0.0
H3194 H 0.53286 0.36946 0.99096 0.0
H3195 H 0.50867 0.33397 0.98747 0.0
H3196 H 0.49859 0.35627 0.01529 0.0
H3197 H 0.50132 0.31597 0.02093 0.0
H3198 H 0.53439 0.30147 0.11821 0.0
H3199 H 0.51761 0.33653 0.14764 0.0
H3200 H 0.50448 0.38354 0.06612 0.0
C3201 C 0.5386 0.30108 0.99982 0.0
C3202 C 0.54809 0.27485 1.00265 0.0
C3203 C 0.55263 0.26496 0.03154 0.0
C3204 C 0.54708 0.28 0.05732 0.0
C3205 C 0.53728 0.30524 0.05376 0.0
C3206 C 0.53344 0.3162 0.02568 0.0
C3207 C 0.52252 0.34339 0.02784 0.0
C3208 C 0.53044 0.37215 0.01529 0.0
C3209 C 0.50685 0.337 0.01194 0.0
C3210 C 0.52038 0.34551 0.06149 0.0
C3211 C 0.52889 0.32317 0.07606 0.0
C3212 C 0.52793 0.31936 0.10704 0.0
C3213 C 0.51827 0.33918 0.12355 0.0
C3214 C 0.50981 0.36274 0.10915 0.0
C3215 C 0.51094 0.36589 0.07771 0.0
loop_
_geom_bond_atom_site_label_1
_geom_bond_atom_site_label_2
_geom_bond_distance
_geom_bond_site_symmetry_2
_ccdc_geom_bond_type
C0 C1 1.351 . S
C0 N3 1.368 . S
C0 H5 0.931 . S
C1 C0 1.351 . S
C1 N2 1.373 . S
C1 H29 0.930 . S
N2 C1 1.373 . S
N2 C4 1.340 . S
N3 C0 1.368 . S
N3 C4 1.321 . S
N3 Co6 2.135 . S
C4 N2 1.340 . S
C4 N3 1.321 . S
C4 H28 0.930 . S
H5 C0 0.931 . S
Co6 N3 2.135 . S
Co6 N9 2.121 . S
Co6 O14 2.055 . S
Co6 O17 2.039 . S
Co6 N20 2.140 . S
C7 O8 1.227 . S
C7 O17 1.265 . S
O8 C7 1.227 . S
N9 Co6 2.121 . S
N9 C11 1.375 . S
N9 C12 1.313 . S
C10 C11 1.338 . S
C10 N13 1.377 . S
C10 H30 0.930 . S
C11 N9 1.375 . S
C11 C10 1.338 . S
C11 H15 0.931 . S
C12 N9 1.313 . S
C12 N13 1.344 . S
C12 H16 0.930 . S
N13 C10 1.377 . S
N13 C12 1.344 . S
O14 Co6 2.055 . S
O14 C18 1.253 . S
H15 C11 0.931 . S
H16 C12 0.930 . S
O17 Co6 2.039 . S
O17 C7 1.265 . S
C18 O14 1.253 . S
C18 O19 1.227 . S
O19 C18 1.227 . S
N20 Co6 2.140 . S
N20 C23 1.346 . S
N20 C24 1.345 . S
C21 C22 1.387 . S
C21 C25 1.391 . S
C22 C21 1.387 . S
C22 C23 1.369 . S
C22 H31 0.929 . S
C23 N20 1.346 . S
C23 C22 1.369 . S
C23 H26 0.928 . S
C24 N20 1.345 . S
C24 C25 1.371 . S
C24 H27 0.931 . S
C25 C21 1.391 . S
C25 C24 1.371 . S
C25 H32 0.930 . S
H26 C23 0.928 . S
H27 C24 0.931 . S
H28 C4 0.930 . S
H29 C1 0.930 . S
H30 C10 0.930 . S
H31 C22 0.929 . S
H32 C25 0.930 . S
C33 C34 1.351 . S
C33 N36 1.368 . S
C33 H38 0.931 . S
C34 C33 1.351 . S
C34 N35 1.373 . S
C34 H62 0.930 . S
N35 C34 1.373 . S
N35 C37 1.340 . S
N36 C33 1.368 . S
N36 C37 1.321 . S
N36 Co39 2.135 . S
C37 N35 1.340 . S
C37 N36 1.321 . S
C37 H61 0.930 . S
H38 C33 0.931 . S
Co39 N36 2.135 . S
Co39 N42 2.121 . S
Co39 O47 2.055 1_565 S
Co39 O50 2.039 . S
Co39 N53 2.140 . S
C40 O41 1.227 . S
C40 O50 1.265 . S
O41 C40 1.227 . S
N42 Co39 2.121 . S
N42 C44 1.375 . S
N42 C45 1.313 1_565 S
C43 C44 1.338 1_545 S
C43 N46 1.377 . S
C43 H63 0.930 . S
C44 N42 1.375 . S
C44 C43 1.338 1_565 S
C44 H48 0.931 . S
C45 N42 1.313 1_545 S
C45 N46 1.344 . S
C45 H49 0.930 . S
N46 C43 1.377 . S
N46 C45 1.344 . S
O47 Co39 2.055 1_545 S
O47 C51 1.253 . S
H48 C44 0.931 . S
H49 C45 0.930 . S
O50 Co39 2.039 . S
O50 C40 1.265 . S
C51 O47 1.253 . S
C51 O52 1.227 1_545 S
O52 C51 1.227 1_565 S
N53 Co39 2.140 . S
N53 C56 1.346 . S
N53 C57 1.345 . S
C54 C55 1.387 . S
C54 C58 1.391 . S
C55 C54 1.387 . S
C55 C56 1.369 . S
C55 H64 0.929 . S
C56 N53 1.346 . S
C56 C55 1.369 . S
C56 H59 0.928 . S
C57 N53 1.345 . S
C57 C58 1.371 . S
C57 H60 0.931 . S
C58 C54 1.391 . S
C58 C57 1.371 . S
C58 H65 0.930 . S
H59 C56 0.928 . S
H60 C57 0.931 . S
H61 C37 0.930 . S
H62 C34 0.930 . S
H63 C43 0.930 . S
H64 C55 0.929 . S
H65 C58 0.930 . S
C66 C67 1.351 . S
C66 N69 1.368 . S
C66 H71 0.931 . S
C67 C66 1.351 . S
C67 N68 1.373 . S
C67 H95 0.930 . S
N68 C67 1.373 . S
N68 C70 1.340 . S
N69 C66 1.368 . S
N69 C70 1.321 . S
N69 Co72 2.135 1_556 S
C70 N68 1.340 . S
C70 N69 1.321 . S
C70 H94 0.930 . S
H71 C66 0.931 . S
Co72 N69 2.135 1_554 S
Co72 N75 2.121 . S
Co72 O80 2.055 1_564 S
Co72 O83 2.039 . S
Co72 N86 2.140 . S
C73 O74 1.227 . S
C73 O83 1.265 . S
O74 C73 1.227 . S
N75 Co72 2.121 . S
N75 C77 1.375 . S
N75 C78 1.313 1_565 S
C76 C77 1.338 1_545 S
C76 N79 1.377 . S
C76 H96 0.930 . S
C77 N75 1.375 . S
C77 C76 1.338 1_565 S
C77 H81 0.931 . S
C78 N75 1.313 1_545 S
C78 N79 1.344 . S
C78 H82 0.930 . S
N79 C76 1.377 . S
N79 C78 1.344 . S
O80 Co72 2.055 1_546 S
O80 C84 1.253 . S
H81 C77 0.931 . S
H82 C78 0.930 . S
O83 Co72 2.039 . S
O83 C73 1.265 . S
C84 O80 1.253 . S
C84 O85 1.227 1_546 S
O85 C84 1.227 1_564 S
N86 Co72 2.140 . S
N86 C89 1.346 . S
N86 C90 1.345 . S
C87 C88 1.387 . S
C87 C91 1.391 . S
C88 C87 1.387 . S
C88 C89 1.369 . S
C88 H97 0.929 . S
C89 N86 1.346 . S
C89 C88 1.369 . S
C89 H92 0.928 . S
C90 N86 1.345 . S
C90 C91 1.371 . S
C90 H93 0.931 . S
C91 C87 1.391 . S
C91 C90 1.371 . S
C91 H98 0.930 . S
H92 C89 0.928 . S
H93 C90 0.931 . S
H94 C70 0.930 . S
H95 C67 0.930 . S
H96 C76 0.930 . S
H97 C88 0.929 . S
H98 C91 0.930 . S
C99 C100 1.351 . S
C99 N102 1.368 . S
C99 H104 0.931 . S
C100 C99 1.351 . S
C100 N101 1.373 . S
C100 H128 0.930 . S
N101 C100 1.373 . S
N101 C103 1.340 . S
N102 C99 1.368 . S
N102 C103 1.321 . S
N102 Co105 2.135 1_556 S
C103 N101 1.340 . S
C103 N102 1.321 . S
C103 H127 0.930 . S
H104 C99 0.931 . S
Co105 N102 2.135 1_554 S
Co105 N108 2.121 . S
Co105 O113 2.055 1_554 S
Co105 O116 2.039 . S
Co105 N119 2.140 . S
C106 O107 1.227 . S
C106 O116 1.265 . S
O107 C106 1.227 . S
N108 Co105 2.121 . S
N108 C110 1.375 . S
N108 C111 1.313 . S
C109 C110 1.338 . S
C109 N112 1.377 . S
C109 H129 0.930 . S
C110 N108 1.375 . S
C110 C109 1.338 . S
C110 H114 0.931 . S
C111 N108 1.313 . S
C111 N112 1.344 . S
C111 H115 0.930 . S
N112 C109 1.377 . S
N112 C111 1.344 . S
O113 Co105 2.055 1_556 S
O113 C117 1.253 . S
H114 C110 0.931 . S
H115 C111 0.930 . S
O116 Co105 2.039 . S
O116 C106 1.265 . S
C117 O113 1.253 . S
C117 O118 1.227 1_556 S
O118 C117 1.227 1_554 S
N119 Co105 2.140 . S
N119 C122 1.346 . S
N119 C123 1.345 . S
C120 C121 1.387 . S
C120 C124 1.391 . S
C121 C120 1.387 . S
C121 C122 1.369 . S
C121 H130 0.929 . S
C122 N119 1.346 . S
C122 C121 1.369 . S
C122 H125 0.928 . S
C123 N119 1.345 . S
C123 C124 1.371 . S
C123 H126 0.931 . S
C124 C120 1.391 . S
C124 C123 1.371 . S
C124 H131 0.930 . S
H125 C122 0.928 . S
H126 C123 0.931 . S
H127 C103 0.930 . S
H128 C100 0.930 . S
H129 C109 0.930 . S
H130 C121 0.929 . S
H131 C124 0.930 . S
C132 C133 1.351 . S
C132 N135 1.368 . S
C132 H137 0.931 . S
C133 C132 1.351 . S
C133 N134 1.373 . S
C133 H161 0.930 . S
N134 C133 1.373 . S
N134 C136 1.340 . S
N135 C132 1.368 . S
N135 C136 1.321 . S
N135 Co138 2.135 . S
C136 N134 1.340 . S
C136 N135 1.321 . S
C136 H160 0.930 . S
H137 C132 0.931 . S
Co138 N135 2.135 . S
Co138 N141 2.121 . S
Co138 O146 2.055 . S
Co138 O149 2.039 . S
Co138 N152 2.140 . S
C139 O140 1.227 . S
C139 O149 1.265 . S
O140 C139 1.227 . S
N141 Co138 2.121 . S
N141 C143 1.375 . S
N141 C144 1.313 . S
C142 C143 1.338 . S
C142 N145 1.377 . S
C142 H162 0.930 . S
C143 N141 1.375 . S
C143 C142 1.338 . S
C143 H147 0.931 . S
C144 N141 1.313 . S
C144 N145 1.344 . S
C144 H148 0.930 . S
N145 C142 1.377 . S
N145 C144 1.344 . S
O146 Co138 2.055 . S
O146 C150 1.253 . S
H147 C143 0.931 . S
H148 C144 0.930 . S
O149 Co138 2.039 . S
O149 C139 1.265 . S
C150 O146 1.253 . S
C150 O151 1.227 . S
O151 C150 1.227 . S
N152 Co138 2.140 . S
N152 C155 1.346 . S
N152 C156 1.345 . S
C153 C154 1.387 . S
C153 C157 1.391 . S
C154 C153 1.387 . S
C154 C155 1.369 . S
C154 H163 0.929 . S
C155 N152 1.346 . S
C155 C154 1.369 . S
C155 H158 0.928 . S
C156 N152 1.345 . S
C156 C157 1.371 . S
C156 H159 0.931 . S
C157 C153 1.391 . S
C157 C156 1.371 . S
C157 H164 0.930 . S
H158 C155 0.928 . S
H159 C156 0.931 . S
H160 C136 0.930 . S
H161 C133 0.930 . S
H162 C142 0.930 . S
H163 C154 0.929 . S
H164 C157 0.930 . S
C165 C166 1.351 . S
C165 N168 1.368 . S
C165 H170 0.931 . S
C166 C165 1.351 . S
C166 N167 1.373 . S
C166 H194 0.930 . S
N167 C166 1.373 . S
N167 C169 1.340 . S
N168 C165 1.368 . S
N168 C169 1.321 . S
N168 Co171 2.135 . S
C169 N167 1.340 . S
C169 N168 1.321 . S
C169 H193 0.930 . S
H170 C165 0.931 . S
Co171 N168 2.135 . S
Co171 N174 2.121 . S
Co171 O179 2.055 1_545 S
Co171 O182 2.039 . S
Co171 N185 2.140 . S
C172 O173 1.227 . S
C172 O182 1.265 . S
O173 C172 1.227 . S
N174 Co171 2.121 . S
N174 C176 1.375 . S
N174 C177 1.313 1_545 S
C175 C176 1.338 1_565 S
C175 N178 1.377 . S
C175 H195 0.930 . S
C176 N174 1.375 . S
C176 C175 1.338 1_545 S
C176 H180 0.931 . S
C177 N174 1.313 1_565 S
C177 N178 1.344 . S
C177 H181 0.930 . S
N178 C175 1.377 . S
N178 C177 1.344 . S
O179 Co171 2.055 1_565 S
O179 C183 1.253 . S
H180 C176 0.931 . S
H181 C177 0.930 . S
O182 Co171 2.039 . S
O182 C172 1.265 . S
C183 O179 1.253 . S
C183 O184 1.227 1_565 S
O184 C183 1.227 1_545 S
N185 Co171 2.140 . S
N185 C188 1.346 . S
N185 C189 1.345 . S
C186 C187 1.387 . S
C186 C190 1.391 . S
C187 C186 1.387 . S
C187 C188 1.369 . S
C187 H196 0.929 . S
C188 N185 1.346 . S
C188 C187 1.369 . S
C188 H191 0.928 . S
C189 N185 1.345 . S
C189 C190 1.371 . S
C189 H192 0.931 . S
C190 C186 1.391 . S
C190 C189 1.371 . S
C190 H197 0.930 . S
H191 C188 0.928 . S
H192 C189 0.931 . S
H193 C169 0.930 . S
H194 C166 0.930 . S
H195 C175 0.930 . S
H196 C187 0.929 . S
H197 C190 0.930 . S
C198 C199 1.351 . S
C198 N201 1.368 . S
C198 H203 0.931 . S
C199 C198 1.351 . S
C199 N200 1.373 . S
C199 H227 0.930 . S
N200 C199 1.373 . S
N200 C202 1.340 . S
N201 C198 1.368 . S
N201 C202 1.321 . S
N201 Co204 2.135 1_554 S
C202 N200 1.340 . S
C202 N201 1.321 . S
C202 H226 0.930 . S
H203 C198 0.931 . S
Co204 N201 2.135 1_556 S
Co204 N207 2.121 . S
Co204 O212 2.055 1_546 S
Co204 O215 2.039 . S
Co204 N218 2.140 . S
C205 O206 1.227 . S
C205 O215 1.265 . S
O206 C205 1.227 . S
N207 Co204 2.121 . S
N207 C209 1.375 . S
N207 C210 1.313 1_545 S
C208 C209 1.338 1_565 S
C208 N211 1.377 . S
C208 H228 0.930 . S
C209 N207 1.375 . S
C209 C208 1.338 1_545 S
C209 H213 0.931 . S
C210 N207 1.313 1_565 S
C210 N211 1.344 . S
C210 H214 0.930 . S
N211 C208 1.377 . S
N211 C210 1.344 . S
O212 Co204 2.055 1_564 S
O212 C216 1.253 . S
H213 C209 0.931 . S
H214 C210 0.930 . S
O215 Co204 2.039 . S
O215 C205 1.265 . S
C216 O212 1.253 . S
C216 O217 1.227 1_564 S
O217 C216 1.227 1_546 S
N218 Co204 2.140 . S
N218 C221 1.346 . S
N218 C222 1.345 . S
C219 C220 1.387 . S
C219 C223 1.391 . S
C220 C219 1.387 . S
C220 C221 1.369 . S
C220 H229 0.929 . S
C221 N218 1.346 . S
C221 C220 1.369 . S
C221 H224 0.928 . S
C222 N218 1.345 . S
C222 C223 1.371 . S
C222 H225 0.931 . S
C223 C219 1.391 . S
C223 C222 1.371 . S
C223 H230 0.930 . S
H224 C221 0.928 . S
H225 C222 0.931 . S
H226 C202 0.930 . S
H227 C199 0.930 . S
H228 C208 0.930 . S
H229 C220 0.929 . S
H230 C223 0.930 . S
C231 C232 1.351 . S
C231 N234 1.368 . S
C231 H236 0.931 . S
C232 C231 1.351 . S
C232 N233 1.373 . S
C232 H260 0.930 . S
N233 C232 1.373 . S
N233 C235 1.340 . S
N234 C231 1.368 . S
N234 C235 1.321 . S
N234 Co237 2.135 1_554 S
C235 N233 1.340 . S
C235 N234 1.321 . S
C235 H259 0.930 . S
H236 C231 0.931 . S
Co237 N234 2.135 1_556 S
Co237 N240 2.121 . S
Co237 O245 2.055 1_556 S
Co237 O248 2.039 . S
Co237 N251 2.140 . S
C238 O239 1.227 . S
C238 O248 1.265 . S
O239 C238 1.227 . S
N240 Co237 2.121 . S
N240 C242 1.375 . S
N240 C243 1.313 . S
C241 C242 1.338 . S
C241 N244 1.377 . S
C241 H261 0.930 . S
C242 N240 1.375 . S
C242 C241 1.338 . S
C242 H246 0.931 . S
C243 N240 1.313 . S
C243 N244 1.344 . S
C243 H247 0.930 . S
N244 C241 1.377 . S
N244 C243 1.344 . S
O245 Co237 2.055 1_554 S
O245 C249 1.253 . S
H246 C242 0.931 . S
H247 C243 0.930 . S
O248 Co237 2.039 . S
O248 C238 1.265 . S
C249 O245 1.253 . S
C249 O250 1.227 1_554 S
O250 C249 1.227 1_556 S
N251 Co237 2.140 . S
N251 C254 1.346 . S
N251 C255 1.345 . S
C252 C253 1.387 . S
C252 C256 1.391 . S
C253 C252 1.387 . S
C253 C254 1.369 . S
C253 H262 0.929 . S
C254 N251 1.346 . S
C254 C253 1.369 . S
C254 H257 0.928 . S
C255 N251 1.345 . S
C255 C256 1.371 . S
C255 H258 0.931 . S
C256 C252 1.391 . S
C256 C255 1.371 . S
C256 H263 0.930 . S
H257 C254 0.928 . S
H258 C255 0.931 . S
H259 C235 0.930 . S
H260 C232 0.930 . S
H261 C241 0.930 . S
H262 C253 0.929 . S
H263 C256 0.930 . S
C264 C265 1.351 . S
C264 N267 1.368 . S
C264 H269 0.931 . S
C265 C264 1.351 . S
C265 N266 1.373 . S
C265 H293 0.930 . S
N266 C265 1.373 . S
N266 C268 1.340 . S
N267 C264 1.368 . S
N267 C268 1.321 . S
N267 Co270 2.135 . S
C268 N266 1.340 . S
C268 N267 1.321 . S
C268 H292 0.930 . S
H269 C264 0.931 . S
Co270 N267 2.135 . S
Co270 N273 2.121 . S
Co270 O278 2.055 . S
Co270 O281 2.039 . S
Co270 N284 2.140 . S
C271 O272 1.227 . S
C271 O281 1.265 . S
O272 C271 1.227 . S
N273 Co270 2.121 . S
N273 C275 1.375 . S
N273 C276 1.313 . S
C274 C275 1.338 . S
C274 N277 1.377 . S
C274 H294 0.930 . S
C275 N273 1.375 . S
C275 C274 1.338 . S
C275 H279 0.931 . S
C276 N273 1.313 . S
C276 N277 1.344 . S
C276 H280 0.930 . S
N277 C274 1.377 . S
N277 C276 1.344 . S
O278 Co270 2.055 . S
O278 C282 1.253 . S
H279 C275 0.931 . S
H280 C276 0.930 . S
O281 Co270 2.039 . S
O281 C271 1.265 . S
C282 O278 1.253 . S
C282 O283 1.227 . S
O283 C282 1.227 . S
N284 Co270 2.140 . S
N284 C287 1.346 . S
N284 C288 1.345 . S
C285 C286 1.387 . S
C285 C289 1.391 . S
C286 C285 1.387 . S
C286 C287 1.369 . S
C286 H295 0.929 . S
C287 N284 1.346 . S
C287 C286 1.369 . S
C287 H290 0.928 . S
C288 N284 1.345 . S
C288 C289 1.371 . S
C288 H291 0.931 . S
C289 C285 1.391 . S
C289 C288 1.371 . S
C289 H296 0.930 . S
H290 C287 0.928 . S
H291 C288 0.931 . S
H292 C268 0.930 . S
H293 C265 0.930 . S
H294 C274 0.930 . S
H295 C286 0.929 . S
H296 C289 0.930 . S
C297 C298 1.351 . S
C297 N300 1.368 . S
C297 H302 0.931 . S
C298 C297 1.351 . S
C298 N299 1.373 . S
C298 H326 0.930 . S
N299 C298 1.373 . S
N299 C301 1.340 . S
N300 C297 1.368 . S
N300 C301 1.321 . S
N300 Co303 2.135 . S
C301 N299 1.340 . S
C301 N300 1.321 . S
C301 H325 0.930 . S
H302 C297 0.931 . S
Co303 N300 2.135 . S
Co303 N306 2.121 . S
Co303 O311 2.055 . S
Co303 O314 2.039 . S
Co303 N317 2.140 . S
C304 O305 1.227 . S
C304 O314 1.265 . S
O305 C304 1.227 . S
N306 Co303 2.121 . S
N306 C308 1.375 . S
N306 C309 1.313 . S
C307 C308 1.338 . S
C307 N310 1.377 . S
C307 H327 0.930 . S
C308 N306 1.375 . S
C308 C307 1.338 . S
C308 H312 0.931 . S
C309 N306 1.313 . S
C309 N310 1.344 . S
C309 H313 0.930 . S
N310 C307 1.377 . S
N310 C309 1.344 . S
O311 Co303 2.055 . S
O311 C315 1.253 . S
H312 C308 0.931 . S
H313 C309 0.930 . S
O314 Co303 2.039 . S
O314 C304 1.265 . S
C315 O311 1.253 . S
C315 O316 1.227 . S
O316 C315 1.227 . S
N317 Co303 2.140 . S
N317 C320 1.346 . S
N317 C321 1.345 . S
C318 C319 1.387 . S
C318 C322 1.391 . S
C319 C318 1.387 . S
C319 C320 1.369 . S
C319 H328 0.929 . S
C320 N317 1.346 . S
C320 C319 1.369 . S
C320 H323 0.928 . S
C321 N317 1.345 . S
C321 C322 1.371 . S
C321 H324 0.931 . S
C322 C318 1.391 . S
C322 C321 1.371 . S
C322 H329 0.930 . S
H323 C320 0.928 . S
H324 C321 0.931 . S
H325 C301 0.930 . S
H326 C298 0.930 . S
H327 C307 0.930 . S
H328 C319 0.929 . S
H329 C322 0.930 . S
C330 C331 1.351 . S
C330 N333 1.368 . S
C330 H335 0.931 . S
C331 C330 1.351 . S
C331 N332 1.373 . S
C331 H359 0.930 . S
N332 C331 1.373 . S
N332 C334 1.340 . S
N333 C330 1.368 . S
N333 C334 1.321 . S
N333 Co336 2.135 . S
C334 N332 1.340 . S
C334 N333 1.321 . S
C334 H358 0.930 . S
H335 C330 0.931 . S
Co336 N333 2.135 . S
Co336 N339 2.121 . S
Co336 O344 2.055 . S
Co336 O347 2.039 . S
Co336 N350 2.140 . S
C337 O338 1.227 . S
C337 O347 1.265 . S
O338 C337 1.227 . S
N339 Co336 2.121 . S
N339 C341 1.375 . S
N339 C342 1.313 . S
C340 C341 1.338 . S
C340 N343 1.377 . S
C340 H360 0.930 . S
C341 N339 1.375 . S
C341 C340 1.338 . S
C341 H345 0.931 . S
C342 N339 1.313 . S
C342 N343 1.344 . S
C342 H346 0.930 . S
N343 C340 1.377 . S
N343 C342 1.344 . S
O344 Co336 2.055 . S
O344 C348 1.253 . S
H345 C341 0.931 . S
H346 C342 0.930 . S
O347 Co336 2.039 . S
O347 C337 1.265 . S
C348 O344 1.253 . S
C348 O349 1.227 . S
O349 C348 1.227 . S
N350 Co336 2.140 . S
N350 C353 1.346 . S
N350 C354 1.345 . S
C351 C352 1.387 . S
C351 C355 1.391 . S
C352 C351 1.387 . S
C352 C353 1.369 . S
C352 H361 0.929 . S
C353 N350 1.346 . S
C353 C352 1.369 . S
C353 H356 0.928 . S
C354 N350 1.345 . S
C354 C355 1.371 . S
C354 H357 0.931 . S
C355 C351 1.391 . S
C355 C354 1.371 . S
C355 H362 0.930 . S
H356 C353 0.928 . S
H357 C354 0.931 . S
H358 C334 0.930 . S
H359 C331 0.930 . S
H360 C340 0.930 . S
H361 C352 0.929 . S
H362 C355 0.930 . S
C363 C364 1.351 . S
C363 N366 1.368 . S
C363 H368 0.931 . S
C364 C363 1.351 . S
C364 N365 1.373 . S
C364 H392 0.930 . S
N365 C364 1.373 . S
N365 C367 1.340 . S
N366 C363 1.368 . S
N366 C367 1.321 . S
N366 Co369 2.135 . S
C367 N365 1.340 . S
C367 N366 1.321 . S
C367 H391 0.930 . S
H368 C363 0.931 . S
Co369 N366 2.135 . S
Co369 N372 2.121 . S
Co369 O377 2.055 . S
Co369 O380 2.039 . S
Co369 N383 2.140 . S
C370 O371 1.227 . S
C370 O380 1.265 . S
O371 C370 1.227 . S
N372 Co369 2.121 . S
N372 C374 1.375 . S
N372 C375 1.313 . S
C373 C374 1.338 . S
C373 N376 1.377 . S
C373 H393 0.930 . S
C374 N372 1.375 . S
C374 C373 1.338 . S
C374 H378 0.931 . S
C375 N372 1.313 . S
C375 N376 1.344 . S
C375 H379 0.930 . S
N376 C373 1.377 . S
N376 C375 1.344 . S
O377 Co369 2.055 . S
O377 C381 1.253 . S
H378 C374 0.931 . S
H379 C375 0.930 . S
O380 Co369 2.039 . S
O380 C370 1.265 . S
C381 O377 1.253 . S
C381 O382 1.227 . S
O382 C381 1.227 . S
N383 Co369 2.140 . S
N383 C386 1.346 . S
N383 C387 1.345 . S
C384 C385 1.387 . S
C384 C388 1.391 . S
C385 C384 1.387 . S
C385 C386 1.369 . S
C385 H394 0.929 . S
C386 N383 1.346 . S
C386 C385 1.369 . S
C386 H389 0.928 . S
C387 N383 1.345 . S
C387 C388 1.371 . S
C387 H390 0.931 . S
C388 C384 1.391 . S
C388 C387 1.371 . S
C388 H395 0.930 . S
H389 C386 0.928 . S
H390 C387 0.931 . S
H391 C367 0.930 . S
H392 C364 0.930 . S
H393 C373 0.930 . S
H394 C385 0.929 . S
H395 C388 0.930 . S
C396 C397 1.351 . S
C396 N399 1.368 . S
C396 H401 0.931 . S
C397 C396 1.351 . S
C397 N398 1.373 . S
C397 H425 0.930 . S
N398 C397 1.373 . S
N398 C400 1.340 . S
N399 C396 1.368 . S
N399 C400 1.321 . S
N399 Co402 2.135 . S
C400 N398 1.340 . S
C400 N399 1.321 . S
C400 H424 0.930 . S
H401 C396 0.931 . S
Co402 N399 2.135 . S
Co402 N405 2.121 . S
Co402 O410 2.055 . S
Co402 O413 2.039 . S
Co402 N416 2.140 . S
C403 O404 1.227 . S
C403 O413 1.265 . S
O404 C403 1.227 . S
N405 Co402 2.121 . S
N405 C407 1.375 . S
N405 C408 1.313 . S
C406 C407 1.338 . S
C406 N409 1.377 . S
C406 H426 0.930 . S
C407 N405 1.375 . S
C407 C406 1.338 . S
C407 H411 0.931 . S
C408 N405 1.313 . S
C408 N409 1.344 . S
C408 H412 0.930 . S
N409 C406 1.377 . S
N409 C408 1.344 . S
O410 Co402 2.055 . S
O410 C414 1.253 . S
H411 C407 0.931 . S
H412 C408 0.930 . S
O413 Co402 2.039 . S
O413 C403 1.265 . S
C414 O410 1.253 . S
C414 O415 1.227 . S
O415 C414 1.227 . S
N416 Co402 2.140 . S
N416 C419 1.346 . S
N416 C420 1.345 . S
C417 C418 1.387 . S
C417 C421 1.391 . S
C418 C417 1.387 . S
C418 C419 1.369 . S
C418 H427 0.929 . S
C419 N416 1.346 . S
C419 C418 1.369 . S
C419 H422 0.928 . S
C420 N416 1.345 . S
C420 C421 1.371 . S
C420 H423 0.931 . S
C421 C417 1.391 . S
C421 C420 1.371 . S
C421 H428 0.930 . S
H422 C419 0.928 . S
H423 C420 0.931 . S
H424 C400 0.930 . S
H425 C397 0.930 . S
H426 C406 0.930 . S
H427 C418 0.929 . S
H428 C421 0.930 . S
C429 C430 1.351 . S
C429 N432 1.368 . S
C429 H434 0.931 . S
C430 C429 1.351 . S
C430 N431 1.373 . S
C430 H458 0.930 . S
N431 C430 1.373 . S
N431 C433 1.340 . S
N432 C429 1.368 . S
N432 C433 1.321 . S
N432 Co435 2.135 . S
C433 N431 1.340 . S
C433 N432 1.321 . S
C433 H457 0.930 . S
H434 C429 0.931 . S
Co435 N432 2.135 . S
Co435 N438 2.121 . S
Co435 O443 2.055 . S
Co435 O446 2.039 . S
Co435 N449 2.140 . S
C436 O437 1.227 . S
C436 O446 1.265 . S
O437 C436 1.227 . S
N438 Co435 2.121 . S
N438 C440 1.375 . S
N438 C441 1.313 . S
C439 C440 1.338 . S
C439 N442 1.377 . S
C439 H459 0.930 . S
C440 N438 1.375 . S
C440 C439 1.338 . S
C440 H444 0.931 . S
C441 N438 1.313 . S
C441 N442 1.344 . S
C441 H445 0.930 . S
N442 C439 1.377 . S
N442 C441 1.344 . S
O443 Co435 2.055 . S
O443 C447 1.253 . S
H444 C440 0.931 . S
H445 C441 0.930 . S
O446 Co435 2.039 . S
O446 C436 1.265 . S
C447 O443 1.253 . S
C447 O448 1.227 . S
O448 C447 1.227 . S
N449 Co435 2.140 . S
N449 C452 1.346 . S
N449 C453 1.345 . S
C450 C451 1.387 . S
C450 C454 1.391 . S
C451 C450 1.387 . S
C451 C452 1.369 . S
C451 H460 0.929 . S
C452 N449 1.346 . S
C452 C451 1.369 . S
C452 H455 0.928 . S
C453 N449 1.345 . S
C453 C454 1.371 . S
C453 H456 0.931 . S
C454 C450 1.391 . S
C454 C453 1.371 . S
C454 H461 0.930 . S
H455 C452 0.928 . S
H456 C453 0.931 . S
H457 C433 0.930 . S
H458 C430 0.930 . S
H459 C439 0.930 . S
H460 C451 0.929 . S
H461 C454 0.930 . S
C462 C463 1.351 . S
C462 N465 1.368 . S
C462 H467 0.931 . S
C463 C462 1.351 . S
C463 N464 1.373 . S
C463 H491 0.930 . S
N464 C463 1.373 . S
N464 C466 1.340 . S
N465 C462 1.368 . S
N465 C466 1.321 . S
N465 Co468 2.135 . S
C466 N464 1.340 . S
C466 N465 1.321 . S
C466 H490 0.930 . S
H467 C462 0.931 . S
Co468 N465 2.135 . S
Co468 N471 2.121 . S
Co468 O476 2.055 . S
Co468 O479 2.039 . S
Co468 N482 2.140 . S
C469 O470 1.227 . S
C469 O479 1.265 . S
O470 C469 1.227 . S
N471 Co468 2.121 . S
N471 C473 1.375 . S
N471 C474 1.313 . S
C472 C473 1.338 . S
C472 N475 1.377 . S
C472 H492 0.930 . S
C473 N471 1.375 . S
C473 C472 1.338 . S
C473 H477 0.931 . S
C474 N471 1.313 . S
C474 N475 1.344 . S
C474 H478 0.930 . S
N475 C472 1.377 . S
N475 C474 1.344 . S
O476 Co468 2.055 . S
O476 C480 1.253 . S
H477 C473 0.931 . S
H478 C474 0.930 . S
O479 Co468 2.039 . S
O479 C469 1.265 . S
C480 O476 1.253 . S
C480 O481 1.227 . S
O481 C480 1.227 . S
N482 Co468 2.140 . S
N482 C485 1.346 . S
N482 C486 1.345 . S
C483 C484 1.387 . S
C483 C487 1.391 . S
C484 C483 1.387 . S
C484 C485 1.369 . S
C484 H493 0.929 . S
C485 N482 1.346 . S
C485 C484 1.369 . S
C485 H488 0.928 . S
C486 N482 1.345 . S
C486 C487 1.371 . S
C486 H489 0.931 . S
C487 C483 1.391 . S
C487 C486 1.371 . S
C487 H494 0.930 . S
H488 C485 0.928 . S
H489 C486 0.931 . S
H490 C466 0.930 . S
H491 C463 0.930 . S
H492 C472 0.930 . S
H493 C484 0.929 . S
H494 C487 0.930 . S
C495 C496 1.351 . S
C495 N498 1.368 . S
C495 H500 0.931 . S
C496 C495 1.351 . S
C496 N497 1.373 . S
C496 H524 0.930 . S
N497 C496 1.373 . S
N497 C499 1.340 . S
N498 C495 1.368 . S
N498 C499 1.321 . S
N498 Co501 2.135 . S
C499 N497 1.340 . S
C499 N498 1.321 . S
C499 H523 0.930 . S
H500 C495 0.931 . S
Co501 N498 2.135 . S
Co501 N504 2.121 . S
Co501 O509 2.055 . S
Co501 O512 2.039 . S
Co501 N515 2.140 . S
C502 O503 1.227 . S
C502 O512 1.265 . S
O503 C502 1.227 . S
N504 Co501 2.121 . S
N504 C506 1.375 . S
N504 C507 1.313 . S
C505 C506 1.338 . S
C505 N508 1.377 . S
C505 H525 0.930 . S
C506 N504 1.375 . S
C506 C505 1.338 . S
C506 H510 0.931 . S
C507 N504 1.313 . S
C507 N508 1.344 . S
C507 H511 0.930 . S
N508 C505 1.377 . S
N508 C507 1.344 . S
O509 Co501 2.055 . S
O509 C513 1.253 . S
H510 C506 0.931 . S
H511 C507 0.930 . S
O512 Co501 2.039 . S
O512 C502 1.265 . S
C513 O509 1.253 . S
C513 O514 1.227 . S
O514 C513 1.227 . S
N515 Co501 2.140 . S
N515 C518 1.346 . S
N515 C519 1.345 . S
C516 C517 1.387 . S
C516 C520 1.391 . S
C517 C516 1.387 . S
C517 C518 1.369 . S
C517 H526 0.929 . S
C518 N515 1.346 . S
C518 C517 1.369 . S
C518 H521 0.928 . S
C519 N515 1.345 . S
C519 C520 1.371 . S
C519 H522 0.931 . S
C520 C516 1.391 . S
C520 C519 1.371 . S
C520 H527 0.930 . S
H521 C518 0.928 . S
H522 C519 0.931 . S
H523 C499 0.930 . S
H524 C496 0.930 . S
H525 C505 0.930 . S
H526 C517 0.929 . S
H527 C520 0.930 . S
C528 C529 1.351 . S
C528 N531 1.368 . S
C528 H533 0.931 . S
C529 C528 1.351 . S
C529 N530 1.373 . S
C529 H557 0.930 . S
N530 C529 1.373 . S
N530 C532 1.340 . S
N531 C528 1.368 . S
N531 C532 1.321 . S
N531 Co534 2.135 . S
C532 N530 1.340 . S
C532 N531 1.321 . S
C532 H556 0.930 . S
H533 C528 0.931 . S
Co534 N531 2.135 . S
Co534 N537 2.121 . S
Co534 O542 2.055 . S
Co534 O545 2.039 . S
Co534 N548 2.140 . S
C535 O536 1.227 . S
C535 O545 1.265 . S
O536 C535 1.227 . S
N537 Co534 2.121 . S
N537 C539 1.375 . S
N537 C540 1.313 . S
C538 C539 1.338 . S
C538 N541 1.377 . S
C538 H558 0.930 . S
C539 N537 1.375 . S
C539 C538 1.338 . S
C539 H543 0.931 . S
C540 N537 1.313 . S
C540 N541 1.344 . S
C540 H544 0.930 . S
N541 C538 1.377 . S
N541 C540 1.344 . S
O542 Co534 2.055 . S
O542 C546 1.253 . S
H543 C539 0.931 . S
H544 C540 0.930 . S
O545 Co534 2.039 . S
O545 C535 1.265 . S
C546 O542 1.253 . S
C546 O547 1.227 . S
O547 C546 1.227 . S
N548 Co534 2.140 . S
N548 C551 1.346 . S
N548 C552 1.345 . S
C549 C550 1.387 . S
C549 C553 1.391 . S
C550 C549 1.387 . S
C550 C551 1.369 . S
C550 H559 0.929 . S
C551 N548 1.346 . S
C551 C550 1.369 . S
C551 H554 0.928 . S
C552 N548 1.345 . S
C552 C553 1.371 . S
C552 H555 0.931 . S
C553 C549 1.391 . S
C553 C552 1.371 . S
C553 H560 0.930 . S
H554 C551 0.928 . S
H555 C552 0.931 . S
H556 C532 0.930 . S
H557 C529 0.930 . S
H558 C538 0.930 . S
H559 C550 0.929 . S
H560 C553 0.930 . S
C561 C562 1.351 . S
C561 N564 1.368 . S
C561 H566 0.931 . S
C562 C561 1.351 . S
C562 N563 1.373 . S
C562 H590 0.930 . S
N563 C562 1.373 . S
N563 C565 1.340 . S
N564 C561 1.368 . S
N564 C565 1.321 . S
N564 Co567 2.135 . S
C565 N563 1.340 . S
C565 N564 1.321 . S
C565 H589 0.930 . S
H566 C561 0.931 . S
Co567 N564 2.135 . S
Co567 N570 2.121 . S
Co567 O575 2.055 1_565 S
Co567 O578 2.039 . S
Co567 N581 2.140 . S
C568 O569 1.227 . S
C568 O578 1.265 . S
O569 C568 1.227 . S
N570 Co567 2.121 . S
N570 C572 1.375 . S
N570 C573 1.313 1_565 S
C571 C572 1.338 1_545 S
C571 N574 1.377 . S
C571 H591 0.930 . S
C572 N570 1.375 . S
C572 C571 1.338 1_565 S
C572 H576 0.931 . S
C573 N570 1.313 1_545 S
C573 N574 1.344 . S
C573 H577 0.930 . S
N574 C571 1.377 . S
N574 C573 1.344 . S
O575 Co567 2.055 1_545 S
O575 C579 1.253 . S
H576 C572 0.931 . S
H577 C573 0.930 . S
O578 Co567 2.039 . S
O578 C568 1.265 . S
C579 O575 1.253 . S
C579 O580 1.227 1_545 S
O580 C579 1.227 1_565 S
N581 Co567 2.140 . S
N581 C584 1.346 . S
N581 C585 1.345 . S
C582 C583 1.387 . S
C582 C586 1.391 . S
C583 C582 1.387 . S
C583 C584 1.369 . S
C583 H592 0.929 . S
C584 N581 1.346 . S
C584 C583 1.369 . S
C584 H587 0.928 . S
C585 N581 1.345 . S
C585 C586 1.371 . S
C585 H588 0.931 . S
C586 C582 1.391 . S
C586 C585 1.371 . S
C586 H593 0.930 . S
H587 C584 0.928 . S
H588 C585 0.931 . S
H589 C565 0.930 . S
H590 C562 0.930 . S
H591 C571 0.930 . S
H592 C583 0.929 . S
H593 C586 0.930 . S
C594 C595 1.351 . S
C594 N597 1.368 . S
C594 H599 0.931 . S
C595 C594 1.351 . S
C595 N596 1.373 . S
C595 H623 0.930 . S
N596 C595 1.373 . S
N596 C598 1.340 . S
N597 C594 1.368 . S
N597 C598 1.321 . S
N597 Co600 2.135 . S
C598 N596 1.340 . S
C598 N597 1.321 . S
C598 H622 0.930 . S
H599 C594 0.931 . S
Co600 N597 2.135 . S
Co600 N603 2.121 . S
Co600 O608 2.055 1_565 S
Co600 O611 2.039 . S
Co600 N614 2.140 . S
C601 O602 1.227 . S
C601 O611 1.265 . S
O602 C601 1.227 . S
N603 Co600 2.121 . S
N603 C605 1.375 . S
N603 C606 1.313 1_565 S
C604 C605 1.338 1_545 S
C604 N607 1.377 . S
C604 H624 0.930 . S
C605 N603 1.375 . S
C605 C604 1.338 1_565 S
C605 H609 0.931 . S
C606 N603 1.313 1_545 S
C606 N607 1.344 . S
C606 H610 0.930 . S
N607 C604 1.377 . S
N607 C606 1.344 . S
O608 Co600 2.055 1_545 S
O608 C612 1.253 . S
H609 C605 0.931 . S
H610 C606 0.930 . S
O611 Co600 2.039 . S
O611 C601 1.265 . S
C612 O608 1.253 . S
C612 O613 1.227 1_545 S
O613 C612 1.227 1_565 S
N614 Co600 2.140 . S
N614 C617 1.346 . S
N614 C618 1.345 . S
C615 C616 1.387 . S
C615 C619 1.391 . S
C616 C615 1.387 . S
C616 C617 1.369 . S
C616 H625 0.929 . S
C617 N614 1.346 . S
C617 C616 1.369 . S
C617 H620 0.928 . S
C618 N614 1.345 . S
C618 C619 1.371 . S
C618 H621 0.931 . S
C619 C615 1.391 . S
C619 C618 1.371 . S
C619 H626 0.930 . S
H620 C617 0.928 . S
H621 C618 0.931 . S
H622 C598 0.930 . S
H623 C595 0.930 . S
H624 C604 0.930 . S
H625 C616 0.929 . S
H626 C619 0.930 . S
C627 C628 1.351 . S
C627 N630 1.368 . S
C627 H632 0.931 . S
C628 C627 1.351 . S
C628 N629 1.373 . S
C628 H656 0.930 . S
N629 C628 1.373 . S
N629 C631 1.340 . S
N630 C627 1.368 . S
N630 C631 1.321 . S
N630 Co633 2.135 . S
C631 N629 1.340 . S
C631 N630 1.321 . S
C631 H655 0.930 . S
H632 C627 0.931 . S
Co633 N630 2.135 . S
Co633 N636 2.121 . S
Co633 O641 2.055 . S
Co633 O644 2.039 . S
Co633 N647 2.140 . S
C634 O635 1.227 . S
C634 O644 1.265 . S
O635 C634 1.227 . S
N636 Co633 2.121 . S
N636 C638 1.375 . S
N636 C639 1.313 . S
C637 C638 1.338 . S
C637 N640 1.377 . S
C637 H657 0.930 . S
C638 N636 1.375 . S
C638 C637 1.338 . S
C638 H642 0.931 . S
C639 N636 1.313 . S
C639 N640 1.344 . S
C639 H643 0.930 . S
N640 C637 1.377 . S
N640 C639 1.344 . S
O641 Co633 2.055 . S
O641 C645 1.253 . S
H642 C638 0.931 . S
H643 C639 0.930 . S
O644 Co633 2.039 . S
O644 C634 1.265 . S
C645 O641 1.253 . S
C645 O646 1.227 . S
O646 C645 1.227 . S
N647 Co633 2.140 . S
N647 C650 1.346 . S
N647 C651 1.345 . S
C648 C649 1.387 . S
C648 C652 1.391 . S
C649 C648 1.387 . S
C649 C650 1.369 . S
C649 H658 0.929 . S
C650 N647 1.346 . S
C650 C649 1.369 . S
C650 H653 0.928 . S
C651 N647 1.345 . S
C651 C652 1.371 . S
C651 H654 0.931 . S
C652 C648 1.391 . S
C652 C651 1.371 . S
C652 H659 0.930 . S
H653 C650 0.928 . S
H654 C651 0.931 . S
H655 C631 0.930 . S
H656 C628 0.930 . S
H657 C637 0.930 . S
H658 C649 0.929 . S
H659 C652 0.930 . S
C660 C661 1.351 . S
C660 N663 1.368 . S
C660 H665 0.931 . S
C661 C660 1.351 . S
C661 N662 1.373 . S
C661 H689 0.930 . S
N662 C661 1.373 . S
N662 C664 1.340 . S
N663 C660 1.368 . S
N663 C664 1.321 . S
N663 Co666 2.135 . S
C664 N662 1.340 . S
C664 N663 1.321 . S
C664 H688 0.930 . S
H665 C660 0.931 . S
Co666 N663 2.135 . S
Co666 N669 2.121 . S
Co666 O674 2.055 . S
Co666 O677 2.039 . S
Co666 N680 2.140 . S
C667 O668 1.227 . S
C667 O677 1.265 . S
O668 C667 1.227 . S
N669 Co666 2.121 . S
N669 C671 1.375 . S
N669 C672 1.313 . S
C670 C671 1.338 . S
C670 N673 1.377 . S
C670 H690 0.930 . S
C671 N669 1.375 . S
C671 C670 1.338 . S
C671 H675 0.931 . S
C672 N669 1.313 . S
C672 N673 1.344 . S
C672 H676 0.930 . S
N673 C670 1.377 . S
N673 C672 1.344 . S
O674 Co666 2.055 . S
O674 C678 1.253 . S
H675 C671 0.931 . S
H676 C672 0.930 . S
O677 Co666 2.039 . S
O677 C667 1.265 . S
C678 O674 1.253 . S
C678 O679 1.227 . S
O679 C678 1.227 . S
N680 Co666 2.140 . S
N680 C683 1.346 . S
N680 C684 1.345 . S
C681 C682 1.387 . S
C681 C685 1.391 . S
C682 C681 1.387 . S
C682 C683 1.369 . S
C682 H691 0.929 . S
C683 N680 1.346 . S
C683 C682 1.369 . S
C683 H686 0.928 . S
C684 N680 1.345 . S
C684 C685 1.371 . S
C684 H687 0.931 . S
C685 C681 1.391 . S
C685 C684 1.371 . S
C685 H692 0.930 . S
H686 C683 0.928 . S
H687 C684 0.931 . S
H688 C664 0.930 . S
H689 C661 0.930 . S
H690 C670 0.930 . S
H691 C682 0.929 . S
H692 C685 0.930 . S
C693 C694 1.351 . S
C693 N696 1.368 . S
C693 H698 0.931 . S
C694 C693 1.351 . S
C694 N695 1.373 . S
C694 H722 0.930 . S
N695 C694 1.373 . S
N695 C697 1.340 . S
N696 C693 1.368 . S
N696 C697 1.321 . S
N696 Co699 2.135 . S
C697 N695 1.340 . S
C697 N696 1.321 . S
C697 H721 0.930 . S
H698 C693 0.931 . S
Co699 N696 2.135 . S
Co699 N702 2.121 . S
Co699 O707 2.055 1_545 S
Co699 O710 2.039 . S
Co699 N713 2.140 . S
C700 O701 1.227 . S
C700 O710 1.265 . S
O701 C700 1.227 . S
N702 Co699 2.121 . S
N702 C704 1.375 . S
N702 C705 1.313 1_545 S
C703 C704 1.338 1_565 S
C703 N706 1.377 . S
C703 H723 0.930 . S
C704 N702 1.375 . S
C704 C703 1.338 1_545 S
C704 H708 0.931 . S
C705 N702 1.313 1_565 S
C705 N706 1.344 . S
C705 H709 0.930 . S
N706 C703 1.377 . S
N706 C705 1.344 . S
O707 Co699 2.055 1_565 S
O707 C711 1.253 . S
H708 C704 0.931 . S
H709 C705 0.930 . S
O710 Co699 2.039 . S
O710 C700 1.265 . S
C711 O707 1.253 . S
C711 O712 1.227 1_565 S
O712 C711 1.227 1_545 S
N713 Co699 2.140 . S
N713 C716 1.346 . S
N713 C717 1.345 . S
C714 C715 1.387 . S
C714 C718 1.391 . S
C715 C714 1.387 . S
C715 C716 1.369 . S
C715 H724 0.929 . S
C716 N713 1.346 . S
C716 C715 1.369 . S
C716 H719 0.928 . S
C717 N713 1.345 . S
C717 C718 1.371 . S
C717 H720 0.931 . S
C718 C714 1.391 . S
C718 C717 1.371 . S
C718 H725 0.930 . S
H719 C716 0.928 . S
H720 C717 0.931 . S
H721 C697 0.930 . S
H722 C694 0.930 . S
H723 C703 0.930 . S
H724 C715 0.929 . S
H725 C718 0.930 . S
C726 C727 1.351 . S
C726 N729 1.368 . S
C726 H731 0.931 . S
C727 C726 1.351 . S
C727 N728 1.373 . S
C727 H755 0.930 . S
N728 C727 1.373 . S
N728 C730 1.340 . S
N729 C726 1.368 . S
N729 C730 1.321 . S
N729 Co732 2.135 . S
C730 N728 1.340 . S
C730 N729 1.321 . S
C730 H754 0.930 . S
H731 C726 0.931 . S
Co732 N729 2.135 . S
Co732 N735 2.121 . S
Co732 O740 2.055 1_545 S
Co732 O743 2.039 . S
Co732 N746 2.140 . S
C733 O734 1.227 . S
C733 O743 1.265 . S
O734 C733 1.227 . S
N735 Co732 2.121 . S
N735 C737 1.375 . S
N735 C738 1.313 1_545 S
C736 C737 1.338 1_565 S
C736 N739 1.377 . S
C736 H756 0.930 . S
C737 N735 1.375 . S
C737 C736 1.338 1_545 S
C737 H741 0.931 . S
C738 N735 1.313 1_565 S
C738 N739 1.344 . S
C738 H742 0.930 . S
N739 C736 1.377 . S
N739 C738 1.344 . S
O740 Co732 2.055 1_565 S
O740 C744 1.253 . S
H741 C737 0.931 . S
H742 C738 0.930 . S
O743 Co732 2.039 . S
O743 C733 1.265 . S
C744 O740 1.253 . S
C744 O745 1.227 1_565 S
O745 C744 1.227 1_545 S
N746 Co732 2.140 . S
N746 C749 1.346 . S
N746 C750 1.345 . S
C747 C748 1.387 . S
C747 C751 1.391 . S
C748 C747 1.387 . S
C748 C749 1.369 . S
C748 H757 0.929 . S
C749 N746 1.346 . S
C749 C748 1.369 . S
C749 H752 0.928 . S
C750 N746 1.345 . S
C750 C751 1.371 . S
C750 H753 0.931 . S
C751 C747 1.391 . S
C751 C750 1.371 . S
C751 H758 0.930 . S
H752 C749 0.928 . S
H753 C750 0.931 . S
H754 C730 0.930 . S
H755 C727 0.930 . S
H756 C736 0.930 . S
H757 C748 0.929 . S
H758 C751 0.930 . S
C759 C760 1.351 . S
C759 N762 1.368 . S
C759 H764 0.931 . S
C760 C759 1.351 . S
C760 N761 1.373 . S
C760 H788 0.930 . S
N761 C760 1.373 . S
N761 C763 1.340 . S
N762 C759 1.368 . S
N762 C763 1.321 . S
N762 Co765 2.135 . S
C763 N761 1.340 . S
C763 N762 1.321 . S
C763 H787 0.930 . S
H764 C759 0.931 . S
Co765 N762 2.135 . S
Co765 N768 2.121 . S
Co765 O773 2.055 . S
Co765 O776 2.039 . S
Co765 N779 2.140 . S
C766 O767 1.227 . S
C766 O776 1.265 . S
O767 C766 1.227 . S
N768 Co765 2.121 . S
N768 C770 1.375 . S
N768 C771 1.313 . S
C769 C770 1.338 . S
C769 N772 1.377 . S
C769 H789 0.930 . S
C770 N768 1.375 . S
C770 C769 1.338 . S
C770 H774 0.931 . S
C771 N768 1.313 . S
C771 N772 1.344 . S
C771 H775 0.930 . S
N772 C769 1.377 . S
N772 C771 1.344 . S
O773 Co765 2.055 . S
O773 C777 1.253 . S
H774 C770 0.931 . S
H775 C771 0.930 . S
O776 Co765 2.039 . S
O776 C766 1.265 . S
C777 O773 1.253 . S
C777 O778 1.227 . S
O778 C777 1.227 . S
N779 Co765 2.140 . S
N779 C782 1.346 . S
N779 C783 1.345 . S
C780 C781 1.387 . S
C780 C784 1.391 . S
C781 C780 1.387 . S
C781 C782 1.369 . S
C781 H790 0.929 . S
C782 N779 1.346 . S
C782 C781 1.369 . S
C782 H785 0.928 . S
C783 N779 1.345 . S
C783 C784 1.371 . S
C783 H786 0.931 . S
C784 C780 1.391 . S
C784 C783 1.371 . S
C784 H791 0.930 . S
H785 C782 0.928 . S
H786 C783 0.931 . S
H787 C763 0.930 . S
H788 C760 0.930 . S
H789 C769 0.930 . S
H790 C781 0.929 . S
H791 C784 0.930 . S
C792 C793 1.351 . S
C792 N795 1.368 . S
C792 H797 0.931 . S
C793 C792 1.351 . S
C793 N794 1.373 . S
C793 H821 0.930 . S
N794 C793 1.373 . S
N794 C796 1.340 . S
N795 C792 1.368 . S
N795 C796 1.321 . S
N795 Co798 2.135 . S
C796 N794 1.340 . S
C796 N795 1.321 . S
C796 H820 0.930 . S
H797 C792 0.931 . S
Co798 N795 2.135 . S
Co798 N801 2.121 . S
Co798 O806 2.055 . S
Co798 O809 2.039 . S
Co798 N812 2.140 . S
C799 O800 1.227 . S
C799 O809 1.265 . S
O800 C799 1.227 . S
N801 Co798 2.121 . S
N801 C803 1.375 . S
N801 C804 1.313 . S
C802 C803 1.338 . S
C802 N805 1.377 . S
C802 H822 0.930 . S
C803 N801 1.375 . S
C803 C802 1.338 . S
C803 H807 0.931 . S
C804 N801 1.313 . S
C804 N805 1.344 . S
C804 H808 0.930 . S
N805 C802 1.377 . S
N805 C804 1.344 . S
O806 Co798 2.055 . S
O806 C810 1.253 . S
H807 C803 0.931 . S
H808 C804 0.930 . S
O809 Co798 2.039 . S
O809 C799 1.265 . S
C810 O806 1.253 . S
C810 O811 1.227 . S
O811 C810 1.227 . S
N812 Co798 2.140 . S
N812 C815 1.346 . S
N812 C816 1.345 . S
C813 C814 1.387 . S
C813 C817 1.391 . S
C814 C813 1.387 . S
C814 C815 1.369 . S
C814 H823 0.929 . S
C815 N812 1.346 . S
C815 C814 1.369 . S
C815 H818 0.928 . S
C816 N812 1.345 . S
C816 C817 1.371 . S
C816 H819 0.931 . S
C817 C813 1.391 . S
C817 C816 1.371 . S
C817 H824 0.930 . S
H818 C815 0.928 . S
H819 C816 0.931 . S
H820 C796 0.930 . S
H821 C793 0.930 . S
H822 C802 0.930 . S
H823 C814 0.929 . S
H824 C817 0.930 . S
C825 C826 1.351 . S
C825 N828 1.368 . S
C825 H830 0.931 . S
C826 C825 1.351 . S
C826 N827 1.373 . S
C826 H854 0.930 . S
N827 C826 1.373 . S
N827 C829 1.340 . S
N828 C825 1.368 . S
N828 C829 1.321 . S
N828 Co831 2.135 . S
C829 N827 1.340 . S
C829 N828 1.321 . S
C829 H853 0.930 . S
H830 C825 0.931 . S
Co831 N828 2.135 . S
Co831 N834 2.121 . S
Co831 O839 2.055 . S
Co831 O842 2.039 . S
Co831 N845 2.140 . S
C832 O833 1.227 . S
C832 O842 1.265 . S
O833 C832 1.227 . S
N834 Co831 2.121 . S
N834 C836 1.375 . S
N834 C837 1.313 . S
C835 C836 1.338 . S
C835 N838 1.377 . S
C835 H855 0.930 . S
C836 N834 1.375 . S
C836 C835 1.338 . S
C836 H840 0.931 . S
C837 N834 1.313 . S
C837 N838 1.344 . S
C837 H841 0.930 . S
N838 C835 1.377 . S
N838 C837 1.344 . S
O839 Co831 2.055 . S
O839 C843 1.253 . S
H840 C836 0.931 . S
H841 C837 0.930 . S
O842 Co831 2.039 . S
O842 C832 1.265 . S
C843 O839 1.253 . S
C843 O844 1.227 . S
O844 C843 1.227 . S
N845 Co831 2.140 . S
N845 C848 1.346 . S
N845 C849 1.345 . S
C846 C847 1.387 . S
C846 C850 1.391 . S
C847 C846 1.387 . S
C847 C848 1.369 . S
C847 H856 0.929 . S
C848 N845 1.346 . S
C848 C847 1.369 . S
C848 H851 0.928 . S
C849 N845 1.345 . S
C849 C850 1.371 . S
C849 H852 0.931 . S
C850 C846 1.391 . S
C850 C849 1.371 . S
C850 H857 0.930 . S
H851 C848 0.928 . S
H852 C849 0.931 . S
H853 C829 0.930 . S
H854 C826 0.930 . S
H855 C835 0.930 . S
H856 C847 0.929 . S
H857 C850 0.930 . S
C858 C859 1.351 . S
C858 N861 1.368 . S
C858 H863 0.931 . S
C859 C858 1.351 . S
C859 N860 1.373 . S
C859 H887 0.930 . S
N860 C859 1.373 . S
N860 C862 1.340 . S
N861 C858 1.368 . S
N861 C862 1.321 . S
N861 Co864 2.135 1_556 S
C862 N860 1.340 . S
C862 N861 1.321 . S
C862 H886 0.930 . S
H863 C858 0.931 . S
Co864 N861 2.135 1_554 S
Co864 N867 2.121 . S
Co864 O872 2.055 1_554 S
Co864 O875 2.039 . S
Co864 N878 2.140 . S
C865 O866 1.227 . S
C865 O875 1.265 . S
O866 C865 1.227 . S
N867 Co864 2.121 . S
N867 C869 1.375 . S
N867 C870 1.313 . S
C868 C869 1.338 . S
C868 N871 1.377 . S
C868 H888 0.930 . S
C869 N867 1.375 . S
C869 C868 1.338 . S
C869 H873 0.931 . S
C870 N867 1.313 . S
C870 N871 1.344 . S
C870 H874 0.930 . S
N871 C868 1.377 . S
N871 C870 1.344 . S
O872 Co864 2.055 1_556 S
O872 C876 1.253 . S
H873 C869 0.931 . S
H874 C870 0.930 . S
O875 Co864 2.039 . S
O875 C865 1.265 . S
C876 O872 1.253 . S
C876 O877 1.227 1_556 S
O877 C876 1.227 1_554 S
N878 Co864 2.140 . S
N878 C881 1.346 . S
N878 C882 1.345 . S
C879 C880 1.387 . S
C879 C883 1.391 . S
C880 C879 1.387 . S
C880 C881 1.369 . S
C880 H889 0.929 . S
C881 N878 1.346 . S
C881 C880 1.369 . S
C881 H884 0.928 . S
C882 N878 1.345 . S
C882 C883 1.371 . S
C882 H885 0.931 . S
C883 C879 1.391 . S
C883 C882 1.371 . S
C883 H890 0.930 . S
H884 C881 0.928 . S
H885 C882 0.931 . S
H886 C862 0.930 . S
H887 C859 0.930 . S
H888 C868 0.930 . S
H889 C880 0.929 . S
H890 C883 0.930 . S
C891 C892 1.351 . S
C891 N894 1.368 . S
C891 H896 0.931 . S
C892 C891 1.351 . S
C892 N893 1.373 . S
C892 H920 0.930 . S
N893 C892 1.373 . S
N893 C895 1.340 . S
N894 C891 1.368 . S
N894 C895 1.321 . S
N894 Co897 2.135 1_556 S
C895 N893 1.340 . S
C895 N894 1.321 . S
C895 H919 0.930 . S
H896 C891 0.931 . S
Co897 N894 2.135 1_554 S
Co897 N900 2.121 . S
Co897 O905 2.055 1_554 S
Co897 O908 2.039 . S
Co897 N911 2.140 . S
C898 O899 1.227 . S
C898 O908 1.265 . S
O899 C898 1.227 . S
N900 Co897 2.121 . S
N900 C902 1.375 . S
N900 C903 1.313 . S
C901 C902 1.338 . S
C901 N904 1.377 . S
C901 H921 0.930 . S
C902 N900 1.375 . S
C902 C901 1.338 . S
C902 H906 0.931 . S
C903 N900 1.313 . S
C903 N904 1.344 . S
C903 H907 0.930 . S
N904 C901 1.377 . S
N904 C903 1.344 . S
O905 Co897 2.055 1_556 S
O905 C909 1.253 . S
H906 C902 0.931 . S
H907 C903 0.930 . S
O908 Co897 2.039 . S
O908 C898 1.265 . S
C909 O905 1.253 . S
C909 O910 1.227 1_556 S
O910 C909 1.227 1_554 S
N911 Co897 2.140 . S
N911 C914 1.346 . S
N911 C915 1.345 . S
C912 C913 1.387 . S
C912 C916 1.391 . S
C913 C912 1.387 . S
C913 C914 1.369 . S
C913 H922 0.929 . S
C914 N911 1.346 . S
C914 C913 1.369 . S
C914 H917 0.928 . S
C915 N911 1.345 . S
C915 C916 1.371 . S
C915 H918 0.931 . S
C916 C912 1.391 . S
C916 C915 1.371 . S
C916 H923 0.930 . S
H917 C914 0.928 . S
H918 C915 0.931 . S
H919 C895 0.930 . S
H920 C892 0.930 . S
H921 C901 0.930 . S
H922 C913 0.929 . S
H923 C916 0.930 . S
C924 C925 1.351 . S
C924 N927 1.368 . S
C924 H929 0.931 . S
C925 C924 1.351 . S
C925 N926 1.373 . S
C925 H953 0.930 . S
N926 C925 1.373 . S
N926 C928 1.340 . S
N927 C924 1.368 . S
N927 C928 1.321 . S
N927 Co930 2.135 . S
C928 N926 1.340 . S
C928 N927 1.321 . S
C928 H952 0.930 . S
H929 C924 0.931 . S
Co930 N927 2.135 . S
Co930 N933 2.121 . S
Co930 O938 2.055 . S
Co930 O941 2.039 . S
Co930 N944 2.140 . S
C931 O932 1.227 . S
C931 O941 1.265 . S
O932 C931 1.227 . S
N933 Co930 2.121 . S
N933 C935 1.375 . S
N933 C936 1.313 . S
C934 C935 1.338 . S
C934 N937 1.377 . S
C934 H954 0.930 . S
C935 N933 1.375 . S
C935 C934 1.338 . S
C935 H939 0.931 . S
C936 N933 1.313 . S
C936 N937 1.344 . S
C936 H940 0.930 . S
N937 C934 1.377 . S
N937 C936 1.344 . S
O938 Co930 2.055 . S
O938 C942 1.253 . S
H939 C935 0.931 . S
H940 C936 0.930 . S
O941 Co930 2.039 . S
O941 C931 1.265 . S
C942 O938 1.253 . S
C942 O943 1.227 . S
O943 C942 1.227 . S
N944 Co930 2.140 . S
N944 C947 1.346 . S
N944 C948 1.345 . S
C945 C946 1.387 . S
C945 C949 1.391 . S
C946 C945 1.387 . S
C946 C947 1.369 . S
C946 H955 0.929 . S
C947 N944 1.346 . S
C947 C946 1.369 . S
C947 H950 0.928 . S
C948 N944 1.345 . S
C948 C949 1.371 . S
C948 H951 0.931 . S
C949 C945 1.391 . S
C949 C948 1.371 . S
C949 H956 0.930 . S
H950 C947 0.928 . S
H951 C948 0.931 . S
H952 C928 0.930 . S
H953 C925 0.930 . S
H954 C934 0.930 . S
H955 C946 0.929 . S
H956 C949 0.930 . S
C957 C958 1.351 . S
C957 N960 1.368 . S
C957 H962 0.931 . S
C958 C957 1.351 . S
C958 N959 1.373 . S
C958 H986 0.930 . S
N959 C958 1.373 . S
N959 C961 1.340 . S
N960 C957 1.368 . S
N960 C961 1.321 . S
N960 Co963 2.135 . S
C961 N959 1.340 . S
C961 N960 1.321 . S
C961 H985 0.930 . S
H962 C957 0.931 . S
Co963 N960 2.135 . S
Co963 N966 2.121 . S
Co963 O971 2.055 . S
Co963 O974 2.039 . S
Co963 N977 2.140 . S
C964 O965 1.227 . S
C964 O974 1.265 . S
O965 C964 1.227 . S
N966 Co963 2.121 . S
N966 C968 1.375 . S
N966 C969 1.313 . S
C967 C968 1.338 . S
C967 N970 1.377 . S
C967 H987 0.930 . S
C968 N966 1.375 . S
C968 C967 1.338 . S
C968 H972 0.931 . S
C969 N966 1.313 . S
C969 N970 1.344 . S
C969 H973 0.930 . S
N970 C967 1.377 . S
N970 C969 1.344 . S
O971 Co963 2.055 . S
O971 C975 1.253 . S
H972 C968 0.931 . S
H973 C969 0.930 . S
O974 Co963 2.039 . S
O974 C964 1.265 . S
C975 O971 1.253 . S
C975 O976 1.227 . S
O976 C975 1.227 . S
N977 Co963 2.140 . S
N977 C980 1.346 . S
N977 C981 1.345 . S
C978 C979 1.387 . S
C978 C982 1.391 . S
C979 C978 1.387 . S
C979 C980 1.369 . S
C979 H988 0.929 . S
C980 N977 1.346 . S
C980 C979 1.369 . S
C980 H983 0.928 . S
C981 N977 1.345 . S
C981 C982 1.371 . S
C981 H984 0.931 . S
C982 C978 1.391 . S
C982 C981 1.371 . S
C982 H989 0.930 . S
H983 C980 0.928 . S
H984 C981 0.931 . S
H985 C961 0.930 . S
H986 C958 0.930 . S
H987 C967 0.930 . S
H988 C979 0.929 . S
H989 C982 0.930 . S
C990 C991 1.351 . S
C990 N993 1.368 . S
C990 H995 0.931 . S
C991 C990 1.351 . S
C991 N992 1.373 . S
C991 H1019 0.930 . S
N992 C991 1.373 . S
N992 C994 1.340 . S
N993 C990 1.368 . S
N993 C994 1.321 . S
N993 Co996 2.135 1_554 S
C994 N992 1.340 . S
C994 N993 1.321 . S
C994 H1018 0.930 . S
H995 C990 0.931 . S
Co996 N993 2.135 1_556 S
Co996 N999 2.121 . S
Co996 O1004 2.055 1_556 S
Co996 O1007 2.039 . S
Co996 N1010 2.140 . S
C997 O998 1.227 . S
C997 O1007 1.265 . S
O998 C997 1.227 . S
N999 Co996 2.121 . S
N999 C1001 1.375 . S
N999 C1002 1.313 . S
C1000 C1001 1.338 . S
C1000 N1003 1.377 . S
C1000 H1020 0.930 . S
C1001 N999 1.375 . S
C1001 C1000 1.338 . S
C1001 H1005 0.931 . S
C1002 N999 1.313 . S
C1002 N1003 1.344 . S
C1002 H1006 0.930 . S
N1003 C1000 1.377 . S
N1003 C1002 1.344 . S
O1004 Co996 2.055 1_554 S
O1004 C1008 1.253 . S
H1005 C1001 0.931 . S
H1006 C1002 0.930 . S
O1007 Co996 2.039 . S
O1007 C997 1.265 . S
C1008 O1004 1.253 . S
C1008 O1009 1.227 1_554 S
O1009 C1008 1.227 1_556 S
N1010 Co996 2.140 . S
N1010 C1013 1.346 . S
N1010 C1014 1.345 . S
C1011 C1012 1.387 . S
C1011 C1015 1.391 . S
C1012 C1011 1.387 . S
C1012 C1013 1.369 . S
C1012 H1021 0.929 . S
C1013 N1010 1.346 . S
C1013 C1012 1.369 . S
C1013 H1016 0.928 . S
C1014 N1010 1.345 . S
C1014 C1015 1.371 . S
C1014 H1017 0.931 . S
C1015 C1011 1.391 . S
C1015 C1014 1.371 . S
C1015 H1022 0.930 . S
H1016 C1013 0.928 . S
H1017 C1014 0.931 . S
H1018 C994 0.930 . S
H1019 C991 0.930 . S
H1020 C1000 0.930 . S
H1021 C1012 0.929 . S
H1022 C1015 0.930 . S
C1023 C1024 1.351 . S
C1023 N1026 1.368 . S
C1023 H1028 0.931 . S
C1024 C1023 1.351 . S
C1024 N1025 1.373 . S
C1024 H1052 0.930 . S
N1025 C1024 1.373 . S
N1025 C1027 1.340 . S
N1026 C1023 1.368 . S
N1026 C1027 1.321 . S
N1026 Co1029 2.135 1_554 S
C1027 N1025 1.340 . S
C1027 N1026 1.321 . S
C1027 H1051 0.930 . S
H1028 C1023 0.931 . S
Co1029 N1026 2.135 1_556 S
Co1029 N1032 2.121 . S
Co1029 O1037 2.055 1_556 S
Co1029 O1040 2.039 . S
Co1029 N1043 2.140 . S
C1030 O1031 1.227 . S
C1030 O1040 1.265 . S
O1031 C1030 1.227 . S
N1032 Co1029 2.121 . S
N1032 C1034 1.375 . S
N1032 C1035 1.313 . S
C1033 C1034 1.338 . S
C1033 N1036 1.377 . S
C1033 H1053 0.930 . S
C1034 N1032 1.375 . S
C1034 C1033 1.338 . S
C1034 H1038 0.931 . S
C1035 N1032 1.313 . S
C1035 N1036 1.344 . S
C1035 H1039 0.930 . S
N1036 C1033 1.377 . S
N1036 C1035 1.344 . S
O1037 Co1029 2.055 1_554 S
O1037 C1041 1.253 . S
H1038 C1034 0.931 . S
H1039 C1035 0.930 . S
O1040 Co1029 2.039 . S
O1040 C1030 1.265 . S
C1041 O1037 1.253 . S
C1041 O1042 1.227 1_554 S
O1042 C1041 1.227 1_556 S
N1043 Co1029 2.140 . S
N1043 C1046 1.346 . S
N1043 C1047 1.345 . S
C1044 C1045 1.387 . S
C1044 C1048 1.391 . S
C1045 C1044 1.387 . S
C1045 C1046 1.369 . S
C1045 H1054 0.929 . S
C1046 N1043 1.346 . S
C1046 C1045 1.369 . S
C1046 H1049 0.928 . S
C1047 N1043 1.345 . S
C1047 C1048 1.371 . S
C1047 H1050 0.931 . S
C1048 C1044 1.391 . S
C1048 C1047 1.371 . S
C1048 H1055 0.930 . S
H1049 C1046 0.928 . S
H1050 C1047 0.931 . S
H1051 C1027 0.930 . S
H1052 C1024 0.930 . S
H1053 C1033 0.930 . S
H1054 C1045 0.929 . S
H1055 C1048 0.930 . S
H1056 C1068 0.930 . S
H1057 C1070 0.930 . S
H1058 C1071 0.930 . S
H1059 C1075 0.959 . S
H1060 C1075 0.959 . S
H1061 C1075 0.961 . S
H1062 C1076 0.960 . S
H1063 C1076 0.961 . S
H1064 C1076 0.959 . S
H1065 C1079 0.929 . S
H1066 C1080 0.931 . S
H1067 C1082 0.930 . S
C1068 H1056 0.930 . S
C1068 C1069 1.399 . S
C1068 C1073 1.399 . S
C1069 C1068 1.399 . S
C1069 C1070 1.376 . S
C1070 H1057 0.930 . S
C1070 C1069 1.376 . S
C1070 C1071 1.388 . S
C1071 H1058 0.930 . S
C1071 C1070 1.388 . S
C1071 C1072 1.390 . S
C1072 C1071 1.390 . S
C1072 C1073 1.394 . S
C1072 C1078 1.465 . S
C1073 C1068 1.399 . S
C1073 C1072 1.394 . S
C1073 C1074 1.516 . S
C1074 C1073 1.516 . S
C1074 C1075 1.502 . S
C1074 C1076 1.561 . S
C1074 C1077 1.526 . S
C1075 H1059 0.959 . S
C1075 H1060 0.959 . S
C1075 H1061 0.961 . S
C1075 C1074 1.502 . S
C1076 H1062 0.960 . S
C1076 H1063 0.961 . S
C1076 H1064 0.959 . S
C1076 C1074 1.561 . S
C1077 C1074 1.526 . S
C1077 C1078 1.396 . S
C1077 C1082 1.390 . S
C1078 C1072 1.465 . S
C1078 C1077 1.396 . S
C1078 C1079 1.399 . S
C1079 H1065 0.929 . S
C1079 C1078 1.399 . S
C1079 C1080 1.385 . S
C1080 H1066 0.931 . S
C1080 C1079 1.385 . S
C1080 C1081 1.389 . S
C1081 C1080 1.389 . S
C1081 C1082 1.387 . S
C1082 H1067 0.930 . S
C1082 C1077 1.390 . S
C1082 C1081 1.387 . S
H1083 C1095 0.930 . S
H1084 C1097 0.930 . S
H1085 C1098 0.930 . S
H1086 C1102 0.959 . S
H1087 C1102 0.959 . S
H1088 C1102 0.961 . S
H1089 C1103 0.960 . S
H1090 C1103 0.961 . S
H1091 C1103 0.959 . S
H1092 C1106 0.929 . S
H1093 C1107 0.931 . S
H1094 C1109 0.930 . S
C1095 H1083 0.930 . S
C1095 C1096 1.399 . S
C1095 C1100 1.399 . S
C1096 C1095 1.399 . S
C1096 C1097 1.376 . S
C1097 H1084 0.930 . S
C1097 C1096 1.376 . S
C1097 C1098 1.388 . S
C1098 H1085 0.930 . S
C1098 C1097 1.388 . S
C1098 C1099 1.390 . S
C1099 C1098 1.390 . S
C1099 C1100 1.394 . S
C1099 C1105 1.465 . S
C1100 C1095 1.399 . S
C1100 C1099 1.394 . S
C1100 C1101 1.516 . S
C1101 C1100 1.516 . S
C1101 C1102 1.502 . S
C1101 C1103 1.561 . S
C1101 C1104 1.526 . S
C1102 H1086 0.959 . S
C1102 H1087 0.959 . S
C1102 H1088 0.961 . S
C1102 C1101 1.502 . S
C1103 H1089 0.960 . S
C1103 H1090 0.961 . S
C1103 H1091 0.959 . S
C1103 C1101 1.561 . S
C1104 C1101 1.526 . S
C1104 C1105 1.396 . S
C1104 C1109 1.390 . S
C1105 C1099 1.465 . S
C1105 C1104 1.396 . S
C1105 C1106 1.399 . S
C1106 H1092 0.929 . S
C1106 C1105 1.399 . S
C1106 C1107 1.385 . S
C1107 H1093 0.931 . S
C1107 C1106 1.385 . S
C1107 C1108 1.389 . S
C1108 C1107 1.389 . S
C1108 C1109 1.387 . S
C1109 H1094 0.930 . S
C1109 C1104 1.390 . S
C1109 C1108 1.387 . S
H1110 C1122 0.930 . S
H1111 C1124 0.930 . S
H1112 C1125 0.930 . S
H1113 C1129 0.959 . S
H1114 C1129 0.959 . S
H1115 C1129 0.961 . S
H1116 C1130 0.960 . S
H1117 C1130 0.961 . S
H1118 C1130 0.959 . S
H1119 C1133 0.929 . S
H1120 C1134 0.931 . S
H1121 C1136 0.930 . S
C1122 H1110 0.930 . S
C1122 C1123 1.399 . S
C1122 C1127 1.399 . S
C1123 C1122 1.399 . S
C1123 C1124 1.376 . S
C1124 H1111 0.930 . S
C1124 C1123 1.376 . S
C1124 C1125 1.388 . S
C1125 H1112 0.930 . S
C1125 C1124 1.388 . S
C1125 C1126 1.390 . S
C1126 C1125 1.390 . S
C1126 C1127 1.394 . S
C1126 C1132 1.465 . S
C1127 C1122 1.399 . S
C1127 C1126 1.394 . S
C1127 C1128 1.516 . S
C1128 C1127 1.516 . S
C1128 C1129 1.502 . S
C1128 C1130 1.561 . S
C1128 C1131 1.526 . S
C1129 H1113 0.959 . S
C1129 H1114 0.959 . S
C1129 H1115 0.961 . S
C1129 C1128 1.502 . S
C1130 H1116 0.960 . S
C1130 H1117 0.961 . S
C1130 H1118 0.959 . S
C1130 C1128 1.561 . S
C1131 C1128 1.526 . S
C1131 C1132 1.396 . S
C1131 C1136 1.390 . S
C1132 C1126 1.465 . S
C1132 C1131 1.396 . S
C1132 C1133 1.399 . S
C1133 H1119 0.929 . S
C1133 C1132 1.399 . S
C1133 C1134 1.385 . S
C1134 H1120 0.931 . S
C1134 C1133 1.385 . S
C1134 C1135 1.389 . S
C1135 C1134 1.389 . S
C1135 C1136 1.387 . S
C1136 H1121 0.930 . S
C1136 C1131 1.390 . S
C1136 C1135 1.387 . S
H1137 C1149 0.930 . S
H1138 C1151 0.930 . S
H1139 C1152 0.930 . S
H1140 C1156 0.959 . S
H1141 C1156 0.959 . S
H1142 C1156 0.961 . S
H1143 C1157 0.960 . S
H1144 C1157 0.961 . S
H1145 C1157 0.959 . S
H1146 C1160 0.929 . S
H1147 C1161 0.931 . S
H1148 C1163 0.930 . S
C1149 H1137 0.930 . S
C1149 C1150 1.399 . S
C1149 C1154 1.399 . S
C1150 C1149 1.399 . S
C1150 C1151 1.376 . S
C1151 H1138 0.930 . S
C1151 C1150 1.376 . S
C1151 C1152 1.388 . S
C1152 H1139 0.930 . S
C1152 C1151 1.388 . S
C1152 C1153 1.390 . S
C1153 C1152 1.390 . S
C1153 C1154 1.394 . S
C1153 C1159 1.465 . S
C1154 C1149 1.399 . S
C1154 C1153 1.394 . S
C1154 C1155 1.516 . S
C1155 C1154 1.516 . S
C1155 C1156 1.502 . S
C1155 C1157 1.561 . S
C1155 C1158 1.526 . S
C1156 H1140 0.959 . S
C1156 H1141 0.959 . S
C1156 H1142 0.961 . S
C1156 C1155 1.502 . S
C1157 H1143 0.960 . S
C1157 H1144 0.961 . S
C1157 H1145 0.959 . S
C1157 C1155 1.561 . S
C1158 C1155 1.526 . S
C1158 C1159 1.396 . S
C1158 C1163 1.390 . S
C1159 C1153 1.465 . S
C1159 C1158 1.396 . S
C1159 C1160 1.399 . S
C1160 H1146 0.929 . S
C1160 C1159 1.399 . S
C1160 C1161 1.385 . S
C1161 H1147 0.931 . S
C1161 C1160 1.385 . S
C1161 C1162 1.389 . S
C1162 C1161 1.389 . S
C1162 C1163 1.387 . S
C1163 H1148 0.930 . S
C1163 C1158 1.390 . S
C1163 C1162 1.387 . S
H1164 C1176 0.930 . S
H1165 C1178 0.930 . S
H1166 C1179 0.930 . S
H1167 C1183 0.959 . S
H1168 C1183 0.959 . S
H1169 C1183 0.961 . S
H1170 C1184 0.960 . S
H1171 C1184 0.961 . S
H1172 C1184 0.959 . S
H1173 C1187 0.929 . S
H1174 C1188 0.931 . S
H1175 C1190 0.930 . S
C1176 H1164 0.930 . S
C1176 C1177 1.399 . S
C1176 C1181 1.399 . S
C1177 C1176 1.399 . S
C1177 C1178 1.376 . S
C1178 H1165 0.930 . S
C1178 C1177 1.376 . S
C1178 C1179 1.388 . S
C1179 H1166 0.930 . S
C1179 C1178 1.388 . S
C1179 C1180 1.390 . S
C1180 C1179 1.390 . S
C1180 C1181 1.394 . S
C1180 C1186 1.465 . S
C1181 C1176 1.399 . S
C1181 C1180 1.394 . S
C1181 C1182 1.516 . S
C1182 C1181 1.516 . S
C1182 C1183 1.502 . S
C1182 C1184 1.561 . S
C1182 C1185 1.526 . S
C1183 H1167 0.959 . S
C1183 H1168 0.959 . S
C1183 H1169 0.961 . S
C1183 C1182 1.502 . S
C1184 H1170 0.960 . S
C1184 H1171 0.961 . S
C1184 H1172 0.959 . S
C1184 C1182 1.561 . S
C1185 C1182 1.526 . S
C1185 C1186 1.396 . S
C1185 C1190 1.390 . S
C1186 C1180 1.465 . S
C1186 C1185 1.396 . S
C1186 C1187 1.399 . S
C1187 H1173 0.929 . S
C1187 C1186 1.399 . S
C1187 C1188 1.385 . S
C1188 H1174 0.931 . S
C1188 C1187 1.385 . S
C1188 C1189 1.389 . S
C1189 C1188 1.389 . S
C1189 C1190 1.387 . S
C1190 H1175 0.930 . S
C1190 C1185 1.390 . S
C1190 C1189 1.387 . S
H1191 C1203 0.930 . S
H1192 C1205 0.930 . S
H1193 C1206 0.930 . S
H1194 C1210 0.959 . S
H1195 C1210 0.959 . S
H1196 C1210 0.961 . S
H1197 C1211 0.960 . S
H1198 C1211 0.961 . S
H1199 C1211 0.959 . S
H1200 C1214 0.929 . S
H1201 C1215 0.931 . S
H1202 C1217 0.930 . S
C1203 H1191 0.930 . S
C1203 C1204 1.399 . S
C1203 C1208 1.399 . S
C1204 C1203 1.399 . S
C1204 C1205 1.376 . S
C1205 H1192 0.930 . S
C1205 C1204 1.376 . S
C1205 C1206 1.388 . S
C1206 H1193 0.930 . S
C1206 C1205 1.388 . S
C1206 C1207 1.390 . S
C1207 C1206 1.390 . S
C1207 C1208 1.394 . S
C1207 C1213 1.465 . S
C1208 C1203 1.399 . S
C1208 C1207 1.394 . S
C1208 C1209 1.516 . S
C1209 C1208 1.516 . S
C1209 C1210 1.502 . S
C1209 C1211 1.561 . S
C1209 C1212 1.526 . S
C1210 H1194 0.959 . S
C1210 H1195 0.959 . S
C1210 H1196 0.961 . S
C1210 C1209 1.502 . S
C1211 H1197 0.960 . S
C1211 H1198 0.961 . S
C1211 H1199 0.959 . S
C1211 C1209 1.561 . S
C1212 C1209 1.526 . S
C1212 C1213 1.396 . S
C1212 C1217 1.390 . S
C1213 C1207 1.465 . S
C1213 C1212 1.396 . S
C1213 C1214 1.399 . S
C1214 H1200 0.929 . S
C1214 C1213 1.399 . S
C1214 C1215 1.385 . S
C1215 H1201 0.931 . S
C1215 C1214 1.385 . S
C1215 C1216 1.389 . S
C1216 C1215 1.389 . S
C1216 C1217 1.387 . S
C1217 H1202 0.930 . S
C1217 C1212 1.390 . S
C1217 C1216 1.387 . S
H1218 C1230 0.930 . S
H1219 C1232 0.930 . S
H1220 C1233 0.930 . S
H1221 C1237 0.959 . S
H1222 C1237 0.959 . S
H1223 C1237 0.961 . S
H1224 C1238 0.960 . S
H1225 C1238 0.961 . S
H1226 C1238 0.959 . S
H1227 C1241 0.929 . S
H1228 C1242 0.931 . S
H1229 C1244 0.930 . S
C1230 H1218 0.930 . S
C1230 C1231 1.399 . S
C1230 C1235 1.399 . S
C1231 C1230 1.399 . S
C1231 C1232 1.376 . S
C1232 H1219 0.930 . S
C1232 C1231 1.376 . S
C1232 C1233 1.388 . S
C1233 H1220 0.930 . S
C1233 C1232 1.388 . S
C1233 C1234 1.390 . S
C1234 C1233 1.390 . S
C1234 C1235 1.394 . S
C1234 C1240 1.465 . S
C1235 C1230 1.399 . S
C1235 C1234 1.394 . S
C1235 C1236 1.516 . S
C1236 C1235 1.516 . S
C1236 C1237 1.502 . S
C1236 C1238 1.561 . S
C1236 C1239 1.526 . S
C1237 H1221 0.959 . S
C1237 H1222 0.959 . S
C1237 H1223 0.961 . S
C1237 C1236 1.502 . S
C1238 H1224 0.960 . S
C1238 H1225 0.961 . S
C1238 H1226 0.959 . S
C1238 C1236 1.561 . S
C1239 C1236 1.526 . S
C1239 C1240 1.396 . S
C1239 C1244 1.390 . S
C1240 C1234 1.465 . S
C1240 C1239 1.396 . S
C1240 C1241 1.399 . S
C1241 H1227 0.929 . S
C1241 C1240 1.399 . S
C1241 C1242 1.385 . S
C1242 H1228 0.931 . S
C1242 C1241 1.385 . S
C1242 C1243 1.389 . S
C1243 C1242 1.389 . S
C1243 C1244 1.387 . S
C1244 H1229 0.930 . S
C1244 C1239 1.390 . S
C1244 C1243 1.387 . S
H1245 C1257 0.930 . S
H1246 C1259 0.930 . S
H1247 C1260 0.930 . S
H1248 C1264 0.959 . S
H1249 C1264 0.959 . S
H1250 C1264 0.961 . S
H1251 C1265 0.960 . S
H1252 C1265 0.961 . S
H1253 C1265 0.959 . S
H1254 C1268 0.929 . S
H1255 C1269 0.931 . S
H1256 C1271 0.930 . S
C1257 H1245 0.930 . S
C1257 C1258 1.399 . S
C1257 C1262 1.399 . S
C1258 C1257 1.399 . S
C1258 C1259 1.376 . S
C1259 H1246 0.930 . S
C1259 C1258 1.376 . S
C1259 C1260 1.388 . S
C1260 H1247 0.930 . S
C1260 C1259 1.388 . S
C1260 C1261 1.390 . S
C1261 C1260 1.390 . S
C1261 C1262 1.394 . S
C1261 C1267 1.465 . S
C1262 C1257 1.399 . S
C1262 C1261 1.394 . S
C1262 C1263 1.516 . S
C1263 C1262 1.516 . S
C1263 C1264 1.502 . S
C1263 C1265 1.561 . S
C1263 C1266 1.526 . S
C1264 H1248 0.959 . S
C1264 H1249 0.959 . S
C1264 H1250 0.961 . S
C1264 C1263 1.502 . S
C1265 H1251 0.960 . S
C1265 H1252 0.961 . S
C1265 H1253 0.959 . S
C1265 C1263 1.561 . S
C1266 C1263 1.526 . S
C1266 C1267 1.396 . S
C1266 C1271 1.390 . S
C1267 C1261 1.465 . S
C1267 C1266 1.396 . S
C1267 C1268 1.399 . S
C1268 H1254 0.929 . S
C1268 C1267 1.399 . S
C1268 C1269 1.385 . S
C1269 H1255 0.931 . S
C1269 C1268 1.385 . S
C1269 C1270 1.389 . S
C1270 C1269 1.389 . S
C1270 C1271 1.387 . S
C1271 H1256 0.930 . S
C1271 C1266 1.390 . S
C1271 C1270 1.387 . S
H1272 C1284 0.930 . S
H1273 C1286 0.930 . S
H1274 C1287 0.930 . S
H1275 C1291 0.959 . S
H1276 C1291 0.959 . S
H1277 C1291 0.961 . S
H1278 C1292 0.960 . S
H1279 C1292 0.961 . S
H1280 C1292 0.959 . S
H1281 C1295 0.929 . S
H1282 C1296 0.931 . S
H1283 C1298 0.930 . S
C1284 H1272 0.930 . S
C1284 C1285 1.399 . S
C1284 C1289 1.399 . S
C1285 C1284 1.399 . S
C1285 C1286 1.376 . S
C1286 H1273 0.930 . S
C1286 C1285 1.376 . S
C1286 C1287 1.388 . S
C1287 H1274 0.930 . S
C1287 C1286 1.388 . S
C1287 C1288 1.390 . S
C1288 C1287 1.390 . S
C1288 C1289 1.394 . S
C1288 C1294 1.465 . S
C1289 C1284 1.399 . S
C1289 C1288 1.394 . S
C1289 C1290 1.516 . S
C1290 C1289 1.516 . S
C1290 C1291 1.502 . S
C1290 C1292 1.561 . S
C1290 C1293 1.526 . S
C1291 H1275 0.959 . S
C1291 H1276 0.959 . S
C1291 H1277 0.961 . S
C1291 C1290 1.502 . S
C1292 H1278 0.960 . S
C1292 H1279 0.961 . S
C1292 H1280 0.959 . S
C1292 C1290 1.561 . S
C1293 C1290 1.526 . S
C1293 C1294 1.396 . S
C1293 C1298 1.390 . S
C1294 C1288 1.465 . S
C1294 C1293 1.396 . S
C1294 C1295 1.399 . S
C1295 H1281 0.929 . S
C1295 C1294 1.399 . S
C1295 C1296 1.385 . S
C1296 H1282 0.931 . S
C1296 C1295 1.385 . S
C1296 C1297 1.389 . S
C1297 C1296 1.389 . S
C1297 C1298 1.387 . S
C1298 H1283 0.930 . S
C1298 C1293 1.390 . S
C1298 C1297 1.387 . S
H1299 C1311 0.930 . S
H1300 C1313 0.930 . S
H1301 C1314 0.930 . S
H1302 C1318 0.959 . S
H1303 C1318 0.959 . S
H1304 C1318 0.961 . S
H1305 C1319 0.960 . S
H1306 C1319 0.961 . S
H1307 C1319 0.959 . S
H1308 C1322 0.929 . S
H1309 C1323 0.931 . S
H1310 C1325 0.930 . S
C1311 H1299 0.930 . S
C1311 C1312 1.399 . S
C1311 C1316 1.399 . S
C1312 C1311 1.399 . S
C1312 C1313 1.376 . S
C1313 H1300 0.930 . S
C1313 C1312 1.376 . S
C1313 C1314 1.388 . S
C1314 H1301 0.930 . S
C1314 C1313 1.388 . S
C1314 C1315 1.390 . S
C1315 C1314 1.390 . S
C1315 C1316 1.394 . S
C1315 C1321 1.465 . S
C1316 C1311 1.399 . S
C1316 C1315 1.394 . S
C1316 C1317 1.516 . S
C1317 C1316 1.516 . S
C1317 C1318 1.502 . S
C1317 C1319 1.561 . S
C1317 C1320 1.526 . S
C1318 H1302 0.959 . S
C1318 H1303 0.959 . S
C1318 H1304 0.961 . S
C1318 C1317 1.502 . S
C1319 H1305 0.960 . S
C1319 H1306 0.961 . S
C1319 H1307 0.959 . S
C1319 C1317 1.561 . S
C1320 C1317 1.526 . S
C1320 C1321 1.396 . S
C1320 C1325 1.390 . S
C1321 C1315 1.465 . S
C1321 C1320 1.396 . S
C1321 C1322 1.399 . S
C1322 H1308 0.929 . S
C1322 C1321 1.399 . S
C1322 C1323 1.385 . S
C1323 H1309 0.931 . S
C1323 C1322 1.385 . S
C1323 C1324 1.389 . S
C1324 C1323 1.389 . S
C1324 C1325 1.387 . S
C1325 H1310 0.930 . S
C1325 C1320 1.390 . S
C1325 C1324 1.387 . S
H1326 C1338 0.930 . S
H1327 C1340 0.930 . S
H1328 C1341 0.930 . S
H1329 C1345 0.959 . S
H1330 C1345 0.959 . S
H1331 C1345 0.961 . S
H1332 C1346 0.960 . S
H1333 C1346 0.961 . S
H1334 C1346 0.959 . S
H1335 C1349 0.929 . S
H1336 C1350 0.931 . S
H1337 C1352 0.930 . S
C1338 H1326 0.930 . S
C1338 C1339 1.399 . S
C1338 C1343 1.399 . S
C1339 C1338 1.399 . S
C1339 C1340 1.376 . S
C1340 H1327 0.930 . S
C1340 C1339 1.376 . S
C1340 C1341 1.388 . S
C1341 H1328 0.930 . S
C1341 C1340 1.388 . S
C1341 C1342 1.390 . S
C1342 C1341 1.390 . S
C1342 C1343 1.394 . S
C1342 C1348 1.465 . S
C1343 C1338 1.399 . S
C1343 C1342 1.394 . S
C1343 C1344 1.516 . S
C1344 C1343 1.516 . S
C1344 C1345 1.502 . S
C1344 C1346 1.561 . S
C1344 C1347 1.526 . S
C1345 H1329 0.959 . S
C1345 H1330 0.959 . S
C1345 H1331 0.961 . S
C1345 C1344 1.502 . S
C1346 H1332 0.960 . S
C1346 H1333 0.961 . S
C1346 H1334 0.959 . S
C1346 C1344 1.561 . S
C1347 C1344 1.526 . S
C1347 C1348 1.396 . S
C1347 C1352 1.390 . S
C1348 C1342 1.465 . S
C1348 C1347 1.396 . S
C1348 C1349 1.399 . S
C1349 H1335 0.929 . S
C1349 C1348 1.399 . S
C1349 C1350 1.385 . S
C1350 H1336 0.931 . S
C1350 C1349 1.385 . S
C1350 C1351 1.389 . S
C1351 C1350 1.389 . S
C1351 C1352 1.387 . S
C1352 H1337 0.930 . S
C1352 C1347 1.390 . S
C1352 C1351 1.387 . S
H1353 C1365 0.930 . S
H1354 C1367 0.930 . S
H1355 C1368 0.930 . S
H1356 C1372 0.959 . S
H1357 C1372 0.959 . S
H1358 C1372 0.961 . S
H1359 C1373 0.960 . S
H1360 C1373 0.961 . S
H1361 C1373 0.959 . S
H1362 C1376 0.929 . S
H1363 C1377 0.931 . S
H1364 C1379 0.930 . S
C1365 H1353 0.930 . S
C1365 C1366 1.399 . S
C1365 C1370 1.399 . S
C1366 C1365 1.399 . S
C1366 C1367 1.376 . S
C1367 H1354 0.930 . S
C1367 C1366 1.376 . S
C1367 C1368 1.388 . S
C1368 H1355 0.930 . S
C1368 C1367 1.388 . S
C1368 C1369 1.390 . S
C1369 C1368 1.390 . S
C1369 C1370 1.394 . S
C1369 C1375 1.465 . S
C1370 C1365 1.399 . S
C1370 C1369 1.394 . S
C1370 C1371 1.516 . S
C1371 C1370 1.516 . S
C1371 C1372 1.502 . S
C1371 C1373 1.561 . S
C1371 C1374 1.526 . S
C1372 H1356 0.959 . S
C1372 H1357 0.959 . S
C1372 H1358 0.961 . S
C1372 C1371 1.502 . S
C1373 H1359 0.960 . S
C1373 H1360 0.961 . S
C1373 H1361 0.959 . S
C1373 C1371 1.561 . S
C1374 C1371 1.526 . S
C1374 C1375 1.396 . S
C1374 C1379 1.390 . S
C1375 C1369 1.465 . S
C1375 C1374 1.396 . S
C1375 C1376 1.399 . S
C1376 H1362 0.929 . S
C1376 C1375 1.399 . S
C1376 C1377 1.385 . S
C1377 H1363 0.931 . S
C1377 C1376 1.385 . S
C1377 C1378 1.389 . S
C1378 C1377 1.389 . S
C1378 C1379 1.387 . S
C1379 H1364 0.930 . S
C1379 C1374 1.390 . S
C1379 C1378 1.387 . S
H1380 C1392 0.930 . S
H1381 C1394 0.930 . S
H1382 C1395 0.930 . S
H1383 C1399 0.959 . S
H1384 C1399 0.959 . S
H1385 C1399 0.961 . S
H1386 C1400 0.960 . S
H1387 C1400 0.961 . S
H1388 C1400 0.959 . S
H1389 C1403 0.929 . S
H1390 C1404 0.931 . S
H1391 C1406 0.930 . S
C1392 H1380 0.930 . S
C1392 C1393 1.399 . S
C1392 C1397 1.399 . S
C1393 C1392 1.399 . S
C1393 C1394 1.376 . S
C1394 H1381 0.930 . S
C1394 C1393 1.376 . S
C1394 C1395 1.388 . S
C1395 H1382 0.930 . S
C1395 C1394 1.388 . S
C1395 C1396 1.390 . S
C1396 C1395 1.390 . S
C1396 C1397 1.394 . S
C1396 C1402 1.465 . S
C1397 C1392 1.399 . S
C1397 C1396 1.394 . S
C1397 C1398 1.516 . S
C1398 C1397 1.516 . S
C1398 C1399 1.502 . S
C1398 C1400 1.561 . S
C1398 C1401 1.526 . S
C1399 H1383 0.959 . S
C1399 H1384 0.959 . S
C1399 H1385 0.961 . S
C1399 C1398 1.502 . S
C1400 H1386 0.960 . S
C1400 H1387 0.961 . S
C1400 H1388 0.959 . S
C1400 C1398 1.561 . S
C1401 C1398 1.526 . S
C1401 C1402 1.396 . S
C1401 C1406 1.390 . S
C1402 C1396 1.465 . S
C1402 C1401 1.396 . S
C1402 C1403 1.399 . S
C1403 H1389 0.929 . S
C1403 C1402 1.399 . S
C1403 C1404 1.385 . S
C1404 H1390 0.931 . S
C1404 C1403 1.385 . S
C1404 C1405 1.389 . S
C1405 C1404 1.389 . S
C1405 C1406 1.387 . S
C1406 H1391 0.930 . S
C1406 C1401 1.390 . S
C1406 C1405 1.387 . S
H1407 C1419 0.930 . S
H1408 C1421 0.930 . S
H1409 C1422 0.930 . S
H1410 C1426 0.959 . S
H1411 C1426 0.959 . S
H1412 C1426 0.961 . S
H1413 C1427 0.960 . S
H1414 C1427 0.961 . S
H1415 C1427 0.959 . S
H1416 C1430 0.929 . S
H1417 C1431 0.931 . S
H1418 C1433 0.930 . S
C1419 H1407 0.930 . S
C1419 C1420 1.399 . S
C1419 C1424 1.399 . S
C1420 C1419 1.399 . S
C1420 C1421 1.376 . S
C1421 H1408 0.930 . S
C1421 C1420 1.376 . S
C1421 C1422 1.388 . S
C1422 H1409 0.930 . S
C1422 C1421 1.388 . S
C1422 C1423 1.390 . S
C1423 C1422 1.390 . S
C1423 C1424 1.394 . S
C1423 C1429 1.465 . S
C1424 C1419 1.399 . S
C1424 C1423 1.394 . S
C1424 C1425 1.516 . S
C1425 C1424 1.516 . S
C1425 C1426 1.502 . S
C1425 C1427 1.561 . S
C1425 C1428 1.526 . S
C1426 H1410 0.959 . S
C1426 H1411 0.959 . S
C1426 H1412 0.961 . S
C1426 C1425 1.502 . S
C1427 H1413 0.960 . S
C1427 H1414 0.961 . S
C1427 H1415 0.959 . S
C1427 C1425 1.561 . S
C1428 C1425 1.526 . S
C1428 C1429 1.396 . S
C1428 C1433 1.390 . S
C1429 C1423 1.465 . S
C1429 C1428 1.396 . S
C1429 C1430 1.399 . S
C1430 H1416 0.929 . S
C1430 C1429 1.399 . S
C1430 C1431 1.385 . S
C1431 H1417 0.931 . S
C1431 C1430 1.385 . S
C1431 C1432 1.389 . S
C1432 C1431 1.389 . S
C1432 C1433 1.387 . S
C1433 H1418 0.930 . S
C1433 C1428 1.390 . S
C1433 C1432 1.387 . S
H1434 C1446 0.930 . S
H1435 C1448 0.930 . S
H1436 C1449 0.930 . S
H1437 C1453 0.959 . S
H1438 C1453 0.959 . S
H1439 C1453 0.961 . S
H1440 C1454 0.960 . S
H1441 C1454 0.961 . S
H1442 C1454 0.959 . S
H1443 C1457 0.929 . S
H1444 C1458 0.931 . S
H1445 C1460 0.930 . S
C1446 H1434 0.930 . S
C1446 C1447 1.399 . S
C1446 C1451 1.399 . S
C1447 C1446 1.399 . S
C1447 C1448 1.376 . S
C1448 H1435 0.930 . S
C1448 C1447 1.376 . S
C1448 C1449 1.388 . S
C1449 H1436 0.930 . S
C1449 C1448 1.388 . S
C1449 C1450 1.390 . S
C1450 C1449 1.390 . S
C1450 C1451 1.394 . S
C1450 C1456 1.465 . S
C1451 C1446 1.399 . S
C1451 C1450 1.394 . S
C1451 C1452 1.516 . S
C1452 C1451 1.516 . S
C1452 C1453 1.502 . S
C1452 C1454 1.561 . S
C1452 C1455 1.526 . S
C1453 H1437 0.959 . S
C1453 H1438 0.959 . S
C1453 H1439 0.961 . S
C1453 C1452 1.502 . S
C1454 H1440 0.960 . S
C1454 H1441 0.961 . S
C1454 H1442 0.959 . S
C1454 C1452 1.561 . S
C1455 C1452 1.526 . S
C1455 C1456 1.396 . S
C1455 C1460 1.390 . S
C1456 C1450 1.465 . S
C1456 C1455 1.396 . S
C1456 C1457 1.399 . S
C1457 H1443 0.929 . S
C1457 C1456 1.399 . S
C1457 C1458 1.385 . S
C1458 H1444 0.931 . S
C1458 C1457 1.385 . S
C1458 C1459 1.389 . S
C1459 C1458 1.389 . S
C1459 C1460 1.387 . S
C1460 H1445 0.930 . S
C1460 C1455 1.390 . S
C1460 C1459 1.387 . S
H1461 C1473 0.930 . S
H1462 C1475 0.930 . S
H1463 C1476 0.930 . S
H1464 C1480 0.959 . S
H1465 C1480 0.959 . S
H1466 C1480 0.961 . S
H1467 C1481 0.960 . S
H1468 C1481 0.961 . S
H1469 C1481 0.959 . S
H1470 C1484 0.929 . S
H1471 C1485 0.931 . S
H1472 C1487 0.930 . S
C1473 H1461 0.930 . S
C1473 C1474 1.399 . S
C1473 C1478 1.399 . S
C1474 C1473 1.399 . S
C1474 C1475 1.376 . S
C1475 H1462 0.930 . S
C1475 C1474 1.376 . S
C1475 C1476 1.388 . S
C1476 H1463 0.930 . S
C1476 C1475 1.388 . S
C1476 C1477 1.390 . S
C1477 C1476 1.390 . S
C1477 C1478 1.394 . S
C1477 C1483 1.465 . S
C1478 C1473 1.399 . S
C1478 C1477 1.394 . S
C1478 C1479 1.516 . S
C1479 C1478 1.516 . S
C1479 C1480 1.502 . S
C1479 C1481 1.561 . S
C1479 C1482 1.526 . S
C1480 H1464 0.959 . S
C1480 H1465 0.959 . S
C1480 H1466 0.961 . S
C1480 C1479 1.502 . S
C1481 H1467 0.960 . S
C1481 H1468 0.961 . S
C1481 H1469 0.959 . S
C1481 C1479 1.561 . S
C1482 C1479 1.526 . S
C1482 C1483 1.396 . S
C1482 C1487 1.390 . S
C1483 C1477 1.465 . S
C1483 C1482 1.396 . S
C1483 C1484 1.399 . S
C1484 H1470 0.929 . S
C1484 C1483 1.399 . S
C1484 C1485 1.385 . S
C1485 H1471 0.931 . S
C1485 C1484 1.385 . S
C1485 C1486 1.389 . S
C1486 C1485 1.389 . S
C1486 C1487 1.387 . S
C1487 H1472 0.930 . S
C1487 C1482 1.390 . S
C1487 C1486 1.387 . S
H1488 C1500 0.930 . S
H1489 C1502 0.930 . S
H1490 C1503 0.930 . S
H1491 C1507 0.959 . S
H1492 C1507 0.959 . S
H1493 C1507 0.961 . S
H1494 C1508 0.960 . S
H1495 C1508 0.961 . S
H1496 C1508 0.959 . S
H1497 C1511 0.929 . S
H1498 C1512 0.931 . S
H1499 C1514 0.930 . S
C1500 H1488 0.930 . S
C1500 C1501 1.399 . S
C1500 C1505 1.399 . S
C1501 C1500 1.399 . S
C1501 C1502 1.376 . S
C1502 H1489 0.930 . S
C1502 C1501 1.376 . S
C1502 C1503 1.388 . S
C1503 H1490 0.930 . S
C1503 C1502 1.388 . S
C1503 C1504 1.390 . S
C1504 C1503 1.390 . S
C1504 C1505 1.394 . S
C1504 C1510 1.465 . S
C1505 C1500 1.399 . S
C1505 C1504 1.394 . S
C1505 C1506 1.516 . S
C1506 C1505 1.516 . S
C1506 C1507 1.502 . S
C1506 C1508 1.561 . S
C1506 C1509 1.526 . S
C1507 H1491 0.959 . S
C1507 H1492 0.959 . S
C1507 H1493 0.961 . S
C1507 C1506 1.502 . S
C1508 H1494 0.960 . S
C1508 H1495 0.961 . S
C1508 H1496 0.959 . S
C1508 C1506 1.561 . S
C1509 C1506 1.526 . S
C1509 C1510 1.396 . S
C1509 C1514 1.390 . S
C1510 C1504 1.465 . S
C1510 C1509 1.396 . S
C1510 C1511 1.399 . S
C1511 H1497 0.929 . S
C1511 C1510 1.399 . S
C1511 C1512 1.385 . S
C1512 H1498 0.931 . S
C1512 C1511 1.385 . S
C1512 C1513 1.389 . S
C1513 C1512 1.389 . S
C1513 C1514 1.387 . S
C1514 H1499 0.930 . S
C1514 C1509 1.390 . S
C1514 C1513 1.387 . S
H1515 C1527 0.930 . S
H1516 C1529 0.930 . S
H1517 C1530 0.930 . S
H1518 C1534 0.959 . S
H1519 C1534 0.959 . S
H1520 C1534 0.961 . S
H1521 C1535 0.960 . S
H1522 C1535 0.961 . S
H1523 C1535 0.959 . S
H1524 C1538 0.929 . S
H1525 C1539 0.931 . S
H1526 C1541 0.930 . S
C1527 H1515 0.930 . S
C1527 C1528 1.399 . S
C1527 C1532 1.399 . S
C1528 C1527 1.399 . S
C1528 C1529 1.376 . S
C1529 H1516 0.930 . S
C1529 C1528 1.376 . S
C1529 C1530 1.388 . S
C1530 H1517 0.930 . S
C1530 C1529 1.388 . S
C1530 C1531 1.390 . S
C1531 C1530 1.390 . S
C1531 C1532 1.394 . S
C1531 C1537 1.465 . S
C1532 C1527 1.399 . S
C1532 C1531 1.394 . S
C1532 C1533 1.516 . S
C1533 C1532 1.516 . S
C1533 C1534 1.502 . S
C1533 C1535 1.561 . S
C1533 C1536 1.526 . S
C1534 H1518 0.959 . S
C1534 H1519 0.959 . S
C1534 H1520 0.961 . S
C1534 C1533 1.502 . S
C1535 H1521 0.960 . S
C1535 H1522 0.961 . S
C1535 H1523 0.959 . S
C1535 C1533 1.561 . S
C1536 C1533 1.526 . S
C1536 C1537 1.396 . S
C1536 C1541 1.390 . S
C1537 C1531 1.465 . S
C1537 C1536 1.396 . S
C1537 C1538 1.399 . S
C1538 H1524 0.929 . S
C1538 C1537 1.399 . S
C1538 C1539 1.385 . S
C1539 H1525 0.931 . S
C1539 C1538 1.385 . S
C1539 C1540 1.389 . S
C1540 C1539 1.389 . S
C1540 C1541 1.387 . S
C1541 H1526 0.930 . S
C1541 C1536 1.390 . S
C1541 C1540 1.387 . S
H1542 C1554 0.930 1_556 S
H1543 C1556 0.930 . S
H1544 C1557 0.930 . S
H1545 C1561 0.959 . S
H1546 C1561 0.959 . S
H1547 C1561 0.961 . S
H1548 C1562 0.960 . S
H1549 C1562 0.961 . S
H1550 C1562 0.959 . S
H1551 C1565 0.929 . S
H1552 C1566 0.931 . S
H1553 C1568 0.930 1_556 S
C1554 H1542 0.930 1_554 S
C1554 C1555 1.399 . S
C1554 C1559 1.399 . S
C1555 C1554 1.399 . S
C1555 C1556 1.376 . S
C1556 H1543 0.930 . S
C1556 C1555 1.376 . S
C1556 C1557 1.388 . S
C1557 H1544 0.930 . S
C1557 C1556 1.388 . S
C1557 C1558 1.390 . S
C1558 C1557 1.390 . S
C1558 C1559 1.394 . S
C1558 C1564 1.465 . S
C1559 C1554 1.399 . S
C1559 C1558 1.394 . S
C1559 C1560 1.516 1_554 S
C1560 C1559 1.516 1_556 S
C1560 C1561 1.502 . S
C1560 C1562 1.561 . S
C1560 C1563 1.526 1_556 S
C1561 H1545 0.959 . S
C1561 H1546 0.959 . S
C1561 H1547 0.961 . S
C1561 C1560 1.502 . S
C1562 H1548 0.960 . S
C1562 H1549 0.961 . S
C1562 H1550 0.959 . S
C1562 C1560 1.561 . S
C1563 C1560 1.526 1_554 S
C1563 C1564 1.396 . S
C1563 C1568 1.390 . S
C1564 C1558 1.465 . S
C1564 C1563 1.396 . S
C1564 C1565 1.399 . S
C1565 H1551 0.929 . S
C1565 C1564 1.399 . S
C1565 C1566 1.385 . S
C1566 H1552 0.931 . S
C1566 C1565 1.385 . S
C1566 C1567 1.389 . S
C1567 C1566 1.389 . S
C1567 C1568 1.387 . S
C1568 H1553 0.930 1_554 S
C1568 C1563 1.390 . S
C1568 C1567 1.387 . S
H1569 C1581 0.930 1_556 S
H1570 C1583 0.930 . S
H1571 C1584 0.930 . S
H1572 C1588 0.959 . S
H1573 C1588 0.959 . S
H1574 C1588 0.961 . S
H1575 C1589 0.960 . S
H1576 C1589 0.961 . S
H1577 C1589 0.959 . S
H1578 C1592 0.929 . S
H1579 C1593 0.931 . S
H1580 C1595 0.930 1_556 S
C1581 H1569 0.930 1_554 S
C1581 C1582 1.399 . S
C1581 C1586 1.399 . S
C1582 C1581 1.399 . S
C1582 C1583 1.376 . S
C1583 H1570 0.930 . S
C1583 C1582 1.376 . S
C1583 C1584 1.388 . S
C1584 H1571 0.930 . S
C1584 C1583 1.388 . S
C1584 C1585 1.390 . S
C1585 C1584 1.390 . S
C1585 C1586 1.394 . S
C1585 C1591 1.465 . S
C1586 C1581 1.399 . S
C1586 C1585 1.394 . S
C1586 C1587 1.516 1_554 S
C1587 C1586 1.516 1_556 S
C1587 C1588 1.502 . S
C1587 C1589 1.561 . S
C1587 C1590 1.526 1_556 S
C1588 H1572 0.959 . S
C1588 H1573 0.959 . S
C1588 H1574 0.961 . S
C1588 C1587 1.502 . S
C1589 H1575 0.960 . S
C1589 H1576 0.961 . S
C1589 H1577 0.959 . S
C1589 C1587 1.561 . S
C1590 C1587 1.526 1_554 S
C1590 C1591 1.396 . S
C1590 C1595 1.390 . S
C1591 C1585 1.465 . S
C1591 C1590 1.396 . S
C1591 C1592 1.399 . S
C1592 H1578 0.929 . S
C1592 C1591 1.399 . S
C1592 C1593 1.385 . S
C1593 H1579 0.931 . S
C1593 C1592 1.385 . S
C1593 C1594 1.389 . S
C1594 C1593 1.389 . S
C1594 C1595 1.387 . S
C1595 H1580 0.930 1_554 S
C1595 C1590 1.390 . S
C1595 C1594 1.387 . S
H1596 C1608 0.930 . S
H1597 C1610 0.930 . S
H1598 C1611 0.930 . S
H1599 C1615 0.959 . S
H1600 C1615 0.959 . S
H1601 C1615 0.961 . S
H1602 C1616 0.960 . S
H1603 C1616 0.961 . S
H1604 C1616 0.959 . S
H1605 C1619 0.929 . S
H1606 C1620 0.931 . S
H1607 C1622 0.930 . S
C1608 H1596 0.930 . S
C1608 C1609 1.399 . S
C1608 C1613 1.399 . S
C1609 C1608 1.399 . S
C1609 C1610 1.376 . S
C1610 H1597 0.930 . S
C1610 C1609 1.376 . S
C1610 C1611 1.388 . S
C1611 H1598 0.930 . S
C1611 C1610 1.388 . S
C1611 C1612 1.390 . S
C1612 C1611 1.390 . S
C1612 C1613 1.394 . S
C1612 C1618 1.465 . S
C1613 C1608 1.399 . S
C1613 C1612 1.394 . S
C1613 C1614 1.516 . S
C1614 C1613 1.516 . S
C1614 C1615 1.502 . S
C1614 C1616 1.561 . S
C1614 C1617 1.526 . S
C1615 H1599 0.959 . S
C1615 H1600 0.959 . S
C1615 H1601 0.961 . S
C1615 C1614 1.502 . S
C1616 H1602 0.960 . S
C1616 H1603 0.961 . S
C1616 H1604 0.959 . S
C1616 C1614 1.561 . S
C1617 C1614 1.526 . S
C1617 C1618 1.396 . S
C1617 C1622 1.390 . S
C1618 C1612 1.465 . S
C1618 C1617 1.396 . S
C1618 C1619 1.399 . S
C1619 H1605 0.929 . S
C1619 C1618 1.399 . S
C1619 C1620 1.385 . S
C1620 H1606 0.931 . S
C1620 C1619 1.385 . S
C1620 C1621 1.389 . S
C1621 C1620 1.389 . S
C1621 C1622 1.387 . S
C1622 H1607 0.930 . S
C1622 C1617 1.390 . S
C1622 C1621 1.387 . S
H1623 C1635 0.930 . S
H1624 C1637 0.930 . S
H1625 C1638 0.930 . S
H1626 C1642 0.959 . S
H1627 C1642 0.959 . S
H1628 C1642 0.961 . S
H1629 C1643 0.960 . S
H1630 C1643 0.961 . S
H1631 C1643 0.959 . S
H1632 C1646 0.929 . S
H1633 C1647 0.931 . S
H1634 C1649 0.930 . S
C1635 H1623 0.930 . S
C1635 C1636 1.399 . S
C1635 C1640 1.399 . S
C1636 C1635 1.399 . S
C1636 C1637 1.376 . S
C1637 H1624 0.930 . S
C1637 C1636 1.376 . S
C1637 C1638 1.388 . S
C1638 H1625 0.930 . S
C1638 C1637 1.388 . S
C1638 C1639 1.390 . S
C1639 C1638 1.390 . S
C1639 C1640 1.394 . S
C1639 C1645 1.465 . S
C1640 C1635 1.399 . S
C1640 C1639 1.394 . S
C1640 C1641 1.516 . S
C1641 C1640 1.516 . S
C1641 C1642 1.502 . S
C1641 C1643 1.561 . S
C1641 C1644 1.526 . S
C1642 H1626 0.959 . S
C1642 H1627 0.959 . S
C1642 H1628 0.961 . S
C1642 C1641 1.502 . S
C1643 H1629 0.960 . S
C1643 H1630 0.961 . S
C1643 H1631 0.959 . S
C1643 C1641 1.561 . S
C1644 C1641 1.526 . S
C1644 C1645 1.396 . S
C1644 C1649 1.390 . S
C1645 C1639 1.465 . S
C1645 C1644 1.396 . S
C1645 C1646 1.399 . S
C1646 H1632 0.929 . S
C1646 C1645 1.399 . S
C1646 C1647 1.385 . S
C1647 H1633 0.931 . S
C1647 C1646 1.385 . S
C1647 C1648 1.389 . S
C1648 C1647 1.389 . S
C1648 C1649 1.387 . S
C1649 H1634 0.930 . S
C1649 C1644 1.390 . S
C1649 C1648 1.387 . S
H1650 C1662 0.930 . S
H1651 C1664 0.930 . S
H1652 C1665 0.930 . S
H1653 C1669 0.959 . S
H1654 C1669 0.959 . S
H1655 C1669 0.961 . S
H1656 C1670 0.960 . S
H1657 C1670 0.961 . S
H1658 C1670 0.959 . S
H1659 C1673 0.929 . S
H1660 C1674 0.931 . S
H1661 C1676 0.930 . S
C1662 H1650 0.930 . S
C1662 C1663 1.399 . S
C1662 C1667 1.399 . S
C1663 C1662 1.399 . S
C1663 C1664 1.376 1_556 S
C1664 H1651 0.930 . S
C1664 C1663 1.376 1_554 S
C1664 C1665 1.388 . S
C1665 H1652 0.930 . S
C1665 C1664 1.388 . S
C1665 C1666 1.390 1_554 S
C1666 C1665 1.390 1_556 S
C1666 C1667 1.394 . S
C1666 C1672 1.465 . S
C1667 C1662 1.399 . S
C1667 C1666 1.394 . S
C1667 C1668 1.516 . S
C1668 C1667 1.516 . S
C1668 C1669 1.502 . S
C1668 C1670 1.561 . S
C1668 C1671 1.526 . S
C1669 H1653 0.959 . S
C1669 H1654 0.959 . S
C1669 H1655 0.961 . S
C1669 C1668 1.502 . S
C1670 H1656 0.960 . S
C1670 H1657 0.961 . S
C1670 H1658 0.959 . S
C1670 C1668 1.561 . S
C1671 C1668 1.526 . S
C1671 C1672 1.396 . S
C1671 C1676 1.390 . S
C1672 C1666 1.465 . S
C1672 C1671 1.396 . S
C1672 C1673 1.399 1_556 S
C1673 H1659 0.929 . S
C1673 C1672 1.399 1_554 S
C1673 C1674 1.385 . S
C1674 H1660 0.931 . S
C1674 C1673 1.385 . S
C1674 C1675 1.389 1_554 S
C1675 C1674 1.389 1_556 S
C1675 C1676 1.387 . S
C1676 H1661 0.930 . S
C1676 C1671 1.390 . S
C1676 C1675 1.387 . S
H1677 C1689 0.930 . S
H1678 C1691 0.930 1_554 S
H1679 C1692 0.930 1_554 S
H1680 C1696 0.959 . S
H1681 C1696 0.959 . S
H1682 C1696 0.961 . S
H1683 C1697 0.960 . S
H1684 C1697 0.961 . S
H1685 C1697 0.959 . S
H1686 C1700 0.907 1_554 S
H1687 C1701 0.931 1_554 S
H1688 C1703 0.930 . S
C1689 H1677 0.930 . S
C1689 C1690 1.399 . S
C1689 C1694 1.399 . S
C1690 C1689 1.399 . S
C1690 C1691 1.376 . S
C1691 H1678 0.930 1_556 S
C1691 C1690 1.376 . S
C1691 C1692 1.388 . S
C1692 H1679 0.930 1_556 S
C1692 C1691 1.388 . S
C1692 C1693 1.390 . S
C1693 C1692 1.390 . S
C1693 C1694 1.394 . S
C1693 C1699 1.465 . S
C1694 C1689 1.399 . S
C1694 C1693 1.394 . S
C1694 C1695 1.516 . S
C1695 C1694 1.516 . S
C1695 C1696 1.502 . S
C1695 C1697 1.561 . S
C1695 C1698 1.526 . S
C1696 H1680 0.959 . S
C1696 H1681 0.959 . S
C1696 H1682 0.961 . S
C1696 C1695 1.502 . S
C1697 H1683 0.960 . S
C1697 H1684 0.961 . S
C1697 H1685 0.959 . S
C1697 C1695 1.561 . S
C1698 C1695 1.526 . S
C1698 C1699 1.396 . S
C1698 C1703 1.390 . S
C1699 C1693 1.465 . S
C1699 C1698 1.396 . S
C1699 C1700 1.419 . S
C1700 H1686 0.907 1_556 S
C1700 C1699 1.419 . S
C1700 C1701 1.390 . S
C1701 H1687 0.931 1_556 S
C1701 C1700 1.390 . S
C1701 C1702 1.389 . S
C1702 C1701 1.389 . S
C1702 C1703 1.387 . S
C1703 H1688 0.930 . S
C1703 C1698 1.390 . S
C1703 C1702 1.387 . S
H1704 C1716 0.930 . S
H1705 C1718 0.930 . S
H1706 C1719 0.930 . S
H1707 C1723 0.959 . S
H1708 C1723 0.959 . S
H1709 C1723 0.961 . S
H1710 C1724 0.960 . S
H1711 C1724 0.961 . S
H1712 C1724 0.959 . S
H1713 C1727 0.929 . S
H1714 C1728 0.931 . S
H1715 C1730 0.930 . S
C1716 H1704 0.930 . S
C1716 C1717 1.399 . S
C1716 C1721 1.399 . S
C1717 C1716 1.399 . S
C1717 C1718 1.376 . S
C1718 H1705 0.930 . S
C1718 C1717 1.376 . S
C1718 C1719 1.388 . S
C1719 H1706 0.930 . S
C1719 C1718 1.388 . S
C1719 C1720 1.390 . S
C1720 C1719 1.390 . S
C1720 C1721 1.394 . S
C1720 C1726 1.465 . S
C1721 C1716 1.399 . S
C1721 C1720 1.394 . S
C1721 C1722 1.516 . S
C1722 C1721 1.516 . S
C1722 C1723 1.502 . S
C1722 C1724 1.561 . S
C1722 C1725 1.526 . S
C1723 H1707 0.959 . S
C1723 H1708 0.959 . S
C1723 H1709 0.961 . S
C1723 C1722 1.502 . S
C1724 H1710 0.960 . S
C1724 H1711 0.961 . S
C1724 H1712 0.959 . S
C1724 C1722 1.561 . S
C1725 C1722 1.526 . S
C1725 C1726 1.396 . S
C1725 C1730 1.390 . S
C1726 C1720 1.465 . S
C1726 C1725 1.396 . S
C1726 C1727 1.399 . S
C1727 H1713 0.929 . S
C1727 C1726 1.399 . S
C1727 C1728 1.385 . S
C1728 H1714 0.931 . S
C1728 C1727 1.385 . S
C1728 C1729 1.389 . S
C1729 C1728 1.389 . S
C1729 C1730 1.387 . S
C1730 H1715 0.930 . S
C1730 C1725 1.390 . S
C1730 C1729 1.387 . S
H1731 C1743 0.930 . S
H1732 C1745 0.930 . S
H1733 C1746 0.930 . S
H1734 C1750 0.959 . S
H1735 C1750 0.959 . S
H1736 C1750 0.961 . S
H1737 C1751 0.960 . S
H1738 C1751 0.961 . S
H1739 C1751 0.959 . S
H1740 C1754 0.929 . S
H1741 C1755 0.931 . S
H1742 C1757 0.930 . S
C1743 H1731 0.930 . S
C1743 C1744 1.399 . S
C1743 C1748 1.399 . S
C1744 C1743 1.399 . S
C1744 C1745 1.376 . S
C1745 H1732 0.930 . S
C1745 C1744 1.376 . S
C1745 C1746 1.388 . S
C1746 H1733 0.930 . S
C1746 C1745 1.388 . S
C1746 C1747 1.390 . S
C1747 C1746 1.390 . S
C1747 C1748 1.394 . S
C1747 C1753 1.465 . S
C1748 C1743 1.399 . S
C1748 C1747 1.394 . S
C1748 C1749 1.516 . S
C1749 C1748 1.516 . S
C1749 C1750 1.502 . S
C1749 C1751 1.561 . S
C1749 C1752 1.526 . S
C1750 H1734 0.959 . S
C1750 H1735 0.959 . S
C1750 H1736 0.961 . S
C1750 C1749 1.502 . S
C1751 H1737 0.960 . S
C1751 H1738 0.961 . S
C1751 H1739 0.959 . S
C1751 C1749 1.561 . S
C1752 C1749 1.526 . S
C1752 C1753 1.396 . S
C1752 C1757 1.390 . S
C1753 C1747 1.465 . S
C1753 C1752 1.396 . S
C1753 C1754 1.399 . S
C1754 H1740 0.929 . S
C1754 C1753 1.399 . S
C1754 C1755 1.385 . S
C1755 H1741 0.931 . S
C1755 C1754 1.385 . S
C1755 C1756 1.389 . S
C1756 C1755 1.389 . S
C1756 C1757 1.387 . S
C1757 H1742 0.930 . S
C1757 C1752 1.390 . S
C1757 C1756 1.387 . S
H1758 C1770 0.930 . S
H1759 C1772 0.930 . S
H1760 C1773 0.930 . S
H1761 C1777 0.959 . S
H1762 C1777 0.959 . S
H1763 C1777 0.961 . S
H1764 C1778 0.960 . S
H1765 C1778 0.961 . S
H1766 C1778 0.959 . S
H1767 C1781 0.929 . S
H1768 C1782 0.931 . S
H1769 C1784 0.930 . S
C1770 H1758 0.930 . S
C1770 C1771 1.399 . S
C1770 C1775 1.399 . S
C1771 C1770 1.399 . S
C1771 C1772 1.376 . S
C1772 H1759 0.930 . S
C1772 C1771 1.376 . S
C1772 C1773 1.388 . S
C1773 H1760 0.930 . S
C1773 C1772 1.388 . S
C1773 C1774 1.390 . S
C1774 C1773 1.390 . S
C1774 C1775 1.394 . S
C1774 C1780 1.465 . S
C1775 C1770 1.399 . S
C1775 C1774 1.394 . S
C1775 C1776 1.516 . S
C1776 C1775 1.516 . S
C1776 C1777 1.502 . S
C1776 C1778 1.561 . S
C1776 C1779 1.526 . S
C1777 H1761 0.959 . S
C1777 H1762 0.959 . S
C1777 H1763 0.961 . S
C1777 C1776 1.502 . S
C1778 H1764 0.960 . S
C1778 H1765 0.961 . S
C1778 H1766 0.959 . S
C1778 C1776 1.561 . S
C1779 C1776 1.526 . S
C1779 C1780 1.396 . S
C1779 C1784 1.390 . S
C1780 C1774 1.465 . S
C1780 C1779 1.396 . S
C1780 C1781 1.399 . S
C1781 H1767 0.929 . S
C1781 C1780 1.399 . S
C1781 C1782 1.385 . S
C1782 H1768 0.931 . S
C1782 C1781 1.385 . S
C1782 C1783 1.389 . S
C1783 C1782 1.389 . S
C1783 C1784 1.387 . S
C1784 H1769 0.930 . S
C1784 C1779 1.390 . S
C1784 C1783 1.387 . S
H1785 C1797 0.930 . S
H1786 C1799 0.930 . S
H1787 C1800 0.930 . S
H1788 C1804 0.959 . S
H1789 C1804 0.959 . S
H1790 C1804 0.961 . S
H1791 C1805 0.960 . S
H1792 C1805 0.961 . S
H1793 C1805 0.959 . S
H1794 C1808 0.929 . S
H1795 C1809 0.931 . S
H1796 C1811 0.930 . S
C1797 H1785 0.930 . S
C1797 C1798 1.399 . S
C1797 C1802 1.399 . S
C1798 C1797 1.399 . S
C1798 C1799 1.376 . S
C1799 H1786 0.930 . S
C1799 C1798 1.376 . S
C1799 C1800 1.388 . S
C1800 H1787 0.930 . S
C1800 C1799 1.388 . S
C1800 C1801 1.390 . S
C1801 C1800 1.390 . S
C1801 C1802 1.394 . S
C1801 C1807 1.465 . S
C1802 C1797 1.399 . S
C1802 C1801 1.394 . S
C1802 C1803 1.516 . S
C1803 C1802 1.516 . S
C1803 C1804 1.502 . S
C1803 C1805 1.561 . S
C1803 C1806 1.526 . S
C1804 H1788 0.959 . S
C1804 H1789 0.959 . S
C1804 H1790 0.961 . S
C1804 C1803 1.502 . S
C1805 H1791 0.960 . S
C1805 H1792 0.961 . S
C1805 H1793 0.959 . S
C1805 C1803 1.561 . S
C1806 C1803 1.526 . S
C1806 C1807 1.396 . S
C1806 C1811 1.390 . S
C1807 C1801 1.465 . S
C1807 C1806 1.396 . S
C1807 C1808 1.399 . S
C1808 H1794 0.929 . S
C1808 C1807 1.399 . S
C1808 C1809 1.385 . S
C1809 H1795 0.931 . S
C1809 C1808 1.385 . S
C1809 C1810 1.389 . S
C1810 C1809 1.389 . S
C1810 C1811 1.387 . S
C1811 H1796 0.930 . S
C1811 C1806 1.390 . S
C1811 C1810 1.387 . S
H1812 C1824 0.930 . S
H1813 C1826 0.930 . S
H1814 C1827 0.930 . S
H1815 C1831 0.959 . S
H1816 C1831 0.959 . S
H1817 C1831 0.961 . S
H1818 C1832 0.960 . S
H1819 C1832 0.961 . S
H1820 C1832 0.959 . S
H1821 C1835 0.929 . S
H1822 C1836 0.931 . S
H1823 C1838 0.930 . S
C1824 H1812 0.930 . S
C1824 C1825 1.399 . S
C1824 C1829 1.399 . S
C1825 C1824 1.399 . S
C1825 C1826 1.376 . S
C1826 H1813 0.930 . S
C1826 C1825 1.376 . S
C1826 C1827 1.388 . S
C1827 H1814 0.930 . S
C1827 C1826 1.388 . S
C1827 C1828 1.390 . S
C1828 C1827 1.390 . S
C1828 C1829 1.394 . S
C1828 C1834 1.465 . S
C1829 C1824 1.399 . S
C1829 C1828 1.394 . S
C1829 C1830 1.516 . S
C1830 C1829 1.516 . S
C1830 C1831 1.502 . S
C1830 C1832 1.561 . S
C1830 C1833 1.526 . S
C1831 H1815 0.959 . S
C1831 H1816 0.959 . S
C1831 H1817 0.961 . S
C1831 C1830 1.502 . S
C1832 H1818 0.960 . S
C1832 H1819 0.961 . S
C1832 H1820 0.959 . S
C1832 C1830 1.561 . S
C1833 C1830 1.526 . S
C1833 C1834 1.396 . S
C1833 C1838 1.390 . S
C1834 C1828 1.465 . S
C1834 C1833 1.396 . S
C1834 C1835 1.399 . S
C1835 H1821 0.929 . S
C1835 C1834 1.399 . S
C1835 C1836 1.385 . S
C1836 H1822 0.931 . S
C1836 C1835 1.385 . S
C1836 C1837 1.389 . S
C1837 C1836 1.389 . S
C1837 C1838 1.387 . S
C1838 H1823 0.930 . S
C1838 C1833 1.390 . S
C1838 C1837 1.387 . S
H1839 C1851 0.930 . S
H1840 C1853 0.930 . S
H1841 C1854 0.930 . S
H1842 C1858 0.959 . S
H1843 C1858 0.959 . S
H1844 C1858 0.961 . S
H1845 C1859 0.960 . S
H1846 C1859 0.961 . S
H1847 C1859 0.959 . S
H1848 C1862 0.929 . S
H1849 C1863 0.931 . S
H1850 C1865 0.930 . S
C1851 H1839 0.930 . S
C1851 C1852 1.399 . S
C1851 C1856 1.399 . S
C1852 C1851 1.399 . S
C1852 C1853 1.376 . S
C1853 H1840 0.930 . S
C1853 C1852 1.376 . S
C1853 C1854 1.388 . S
C1854 H1841 0.930 . S
C1854 C1853 1.388 . S
C1854 C1855 1.390 . S
C1855 C1854 1.390 . S
C1855 C1856 1.394 . S
C1855 C1861 1.465 . S
C1856 C1851 1.399 . S
C1856 C1855 1.394 . S
C1856 C1857 1.516 . S
C1857 C1856 1.516 . S
C1857 C1858 1.502 . S
C1857 C1859 1.561 . S
C1857 C1860 1.526 . S
C1858 H1842 0.959 . S
C1858 H1843 0.959 . S
C1858 H1844 0.961 . S
C1858 C1857 1.502 . S
C1859 H1845 0.960 . S
C1859 H1846 0.961 . S
C1859 H1847 0.959 . S
C1859 C1857 1.561 . S
C1860 C1857 1.526 . S
C1860 C1861 1.396 . S
C1860 C1865 1.390 . S
C1861 C1855 1.465 . S
C1861 C1860 1.396 . S
C1861 C1862 1.399 . S
C1862 H1848 0.929 . S
C1862 C1861 1.399 . S
C1862 C1863 1.385 . S
C1863 H1849 0.931 . S
C1863 C1862 1.385 . S
C1863 C1864 1.389 . S
C1864 C1863 1.389 . S
C1864 C1865 1.387 . S
C1865 H1850 0.930 . S
C1865 C1860 1.390 . S
C1865 C1864 1.387 . S
H1866 C1878 0.930 . S
H1867 C1880 0.930 . S
H1868 C1881 0.930 . S
H1869 C1885 0.959 . S
H1870 C1885 0.959 . S
H1871 C1885 0.961 . S
H1872 C1886 0.960 . S
H1873 C1886 0.961 . S
H1874 C1886 0.959 . S
H1875 C1889 0.929 . S
H1876 C1890 0.931 . S
H1877 C1892 0.930 . S
C1878 H1866 0.930 . S
C1878 C1879 1.399 . S
C1878 C1883 1.399 . S
C1879 C1878 1.399 . S
C1879 C1880 1.376 . S
C1880 H1867 0.930 . S
C1880 C1879 1.376 . S
C1880 C1881 1.388 . S
C1881 H1868 0.930 . S
C1881 C1880 1.388 . S
C1881 C1882 1.390 . S
C1882 C1881 1.390 . S
C1882 C1883 1.394 . S
C1882 C1888 1.465 . S
C1883 C1878 1.399 . S
C1883 C1882 1.394 . S
C1883 C1884 1.516 . S
C1884 C1883 1.516 . S
C1884 C1885 1.502 . S
C1884 C1886 1.561 . S
C1884 C1887 1.526 . S
C1885 H1869 0.959 . S
C1885 H1870 0.959 . S
C1885 H1871 0.961 . S
C1885 C1884 1.502 . S
C1886 H1872 0.960 . S
C1886 H1873 0.961 . S
C1886 H1874 0.959 . S
C1886 C1884 1.561 . S
C1887 C1884 1.526 . S
C1887 C1888 1.396 . S
C1887 C1892 1.390 . S
C1888 C1882 1.465 . S
C1888 C1887 1.396 . S
C1888 C1889 1.399 . S
C1889 H1875 0.929 . S
C1889 C1888 1.399 . S
C1889 C1890 1.385 . S
C1890 H1876 0.931 . S
C1890 C1889 1.385 . S
C1890 C1891 1.389 . S
C1891 C1890 1.389 . S
C1891 C1892 1.387 . S
C1892 H1877 0.930 . S
C1892 C1887 1.390 . S
C1892 C1891 1.387 . S
H1893 C1905 0.930 . S
H1894 C1907 0.930 . S
H1895 C1908 0.930 . S
H1896 C1912 0.959 . S
H1897 C1912 0.959 . S
H1898 C1912 0.961 . S
H1899 C1913 0.960 . S
H1900 C1913 0.961 . S
H1901 C1913 0.959 . S
H1902 C1916 0.929 . S
H1903 C1917 0.931 . S
H1904 C1919 0.930 . S
C1905 H1893 0.930 . S
C1905 C1906 1.399 . S
C1905 C1910 1.399 . S
C1906 C1905 1.399 . S
C1906 C1907 1.376 . S
C1907 H1894 0.930 . S
C1907 C1906 1.376 . S
C1907 C1908 1.388 . S
C1908 H1895 0.930 . S
C1908 C1907 1.388 . S
C1908 C1909 1.390 . S
C1909 C1908 1.390 . S
C1909 C1910 1.394 . S
C1909 C1915 1.465 . S
C1910 C1905 1.399 . S
C1910 C1909 1.394 . S
C1910 C1911 1.516 . S
C1911 C1910 1.516 . S
C1911 C1912 1.502 . S
C1911 C1913 1.561 . S
C1911 C1914 1.526 . S
C1912 H1896 0.959 . S
C1912 H1897 0.959 . S
C1912 H1898 0.961 . S
C1912 C1911 1.502 . S
C1913 H1899 0.960 . S
C1913 H1900 0.961 . S
C1913 H1901 0.959 . S
C1913 C1911 1.561 . S
C1914 C1911 1.526 . S
C1914 C1915 1.396 . S
C1914 C1919 1.390 . S
C1915 C1909 1.465 . S
C1915 C1914 1.396 . S
C1915 C1916 1.399 . S
C1916 H1902 0.929 . S
C1916 C1915 1.399 . S
C1916 C1917 1.385 . S
C1917 H1903 0.931 . S
C1917 C1916 1.385 . S
C1917 C1918 1.389 . S
C1918 C1917 1.389 . S
C1918 C1919 1.387 . S
C1919 H1904 0.930 . S
C1919 C1914 1.390 . S
C1919 C1918 1.387 . S
H1920 C1932 0.930 . S
H1921 C1934 0.930 . S
H1922 C1935 0.930 . S
H1923 C1939 0.959 . S
H1924 C1939 0.959 . S
H1925 C1939 0.961 . S
H1926 C1940 0.960 . S
H1927 C1940 0.961 . S
H1928 C1940 0.959 . S
H1929 C1943 0.929 . S
H1930 C1944 0.931 . S
H1931 C1946 0.930 . S
C1932 H1920 0.930 . S
C1932 C1933 1.399 . S
C1932 C1937 1.399 . S
C1933 C1932 1.399 . S
C1933 C1934 1.376 . S
C1934 H1921 0.930 . S
C1934 C1933 1.376 . S
C1934 C1935 1.388 . S
C1935 H1922 0.930 . S
C1935 C1934 1.388 . S
C1935 C1936 1.390 . S
C1936 C1935 1.390 . S
C1936 C1937 1.394 . S
C1936 C1942 1.465 . S
C1937 C1932 1.399 . S
C1937 C1936 1.394 . S
C1937 C1938 1.516 . S
C1938 C1937 1.516 . S
C1938 C1939 1.502 . S
C1938 C1940 1.561 . S
C1938 C1941 1.526 . S
C1939 H1923 0.959 . S
C1939 H1924 0.959 . S
C1939 H1925 0.961 . S
C1939 C1938 1.502 . S
C1940 H1926 0.960 . S
C1940 H1927 0.961 . S
C1940 H1928 0.959 . S
C1940 C1938 1.561 . S
C1941 C1938 1.526 . S
C1941 C1942 1.396 . S
C1941 C1946 1.390 . S
C1942 C1936 1.465 . S
C1942 C1941 1.396 . S
C1942 C1943 1.399 . S
C1943 H1929 0.929 . S
C1943 C1942 1.399 . S
C1943 C1944 1.385 . S
C1944 H1930 0.931 . S
C1944 C1943 1.385 . S
C1944 C1945 1.389 . S
C1945 C1944 1.389 . S
C1945 C1946 1.387 . S
C1946 H1931 0.930 . S
C1946 C1941 1.390 . S
C1946 C1945 1.387 . S
H1947 C1959 0.930 . S
H1948 C1961 0.930 . S
H1949 C1962 0.930 . S
H1950 C1966 0.959 . S
H1951 C1966 0.959 . S
H1952 C1966 0.961 . S
H1953 C1967 0.960 . S
H1954 C1967 0.961 . S
H1955 C1967 0.959 . S
H1956 C1970 0.929 . S
H1957 C1971 0.931 . S
H1958 C1973 0.930 . S
C1959 H1947 0.930 . S
C1959 C1960 1.399 . S
C1959 C1964 1.399 . S
C1960 C1959 1.399 . S
C1960 C1961 1.376 . S
C1961 H1948 0.930 . S
C1961 C1960 1.376 . S
C1961 C1962 1.388 . S
C1962 H1949 0.930 . S
C1962 C1961 1.388 . S
C1962 C1963 1.390 . S
C1963 C1962 1.390 . S
C1963 C1964 1.394 . S
C1963 C1969 1.465 . S
C1964 C1959 1.399 . S
C1964 C1963 1.394 . S
C1964 C1965 1.516 . S
C1965 C1964 1.516 . S
C1965 C1966 1.502 . S
C1965 C1967 1.561 . S
C1965 C1968 1.526 . S
C1966 H1950 0.959 . S
C1966 H1951 0.959 . S
C1966 H1952 0.961 . S
C1966 C1965 1.502 . S
C1967 H1953 0.960 . S
C1967 H1954 0.961 . S
C1967 H1955 0.959 . S
C1967 C1965 1.561 . S
C1968 C1965 1.526 . S
C1968 C1969 1.396 . S
C1968 C1973 1.390 . S
C1969 C1963 1.465 . S
C1969 C1968 1.396 . S
C1969 C1970 1.399 . S
C1970 H1956 0.929 . S
C1970 C1969 1.399 . S
C1970 C1971 1.385 . S
C1971 H1957 0.931 . S
C1971 C1970 1.385 . S
C1971 C1972 1.389 . S
C1972 C1971 1.389 . S
C1972 C1973 1.387 . S
C1973 H1958 0.930 . S
C1973 C1968 1.390 . S
C1973 C1972 1.387 . S
H1974 C1986 0.930 . S
H1975 C1988 0.930 . S
H1976 C1989 0.930 . S
H1977 C1993 0.959 . S
H1978 C1993 0.959 . S
H1979 C1993 0.961 . S
H1980 C1994 0.960 . S
H1981 C1994 0.961 . S
H1982 C1994 0.959 . S
H1983 C1997 0.929 . S
H1984 C1998 0.931 . S
H1985 C2000 0.930 . S
C1986 H1974 0.930 . S
C1986 C1987 1.399 . S
C1986 C1991 1.399 . S
C1987 C1986 1.399 . S
C1987 C1988 1.376 . S
C1988 H1975 0.930 . S
C1988 C1987 1.376 . S
C1988 C1989 1.388 . S
C1989 H1976 0.930 . S
C1989 C1988 1.388 . S
C1989 C1990 1.390 . S
C1990 C1989 1.390 . S
C1990 C1991 1.394 . S
C1990 C1996 1.465 . S
C1991 C1986 1.399 . S
C1991 C1990 1.394 . S
C1991 C1992 1.516 . S
C1992 C1991 1.516 . S
C1992 C1993 1.502 . S
C1992 C1994 1.561 . S
C1992 C1995 1.526 . S
C1993 H1977 0.959 . S
C1993 H1978 0.959 . S
C1993 H1979 0.961 . S
C1993 C1992 1.502 . S
C1994 H1980 0.960 . S
C1994 H1981 0.961 . S
C1994 H1982 0.959 . S
C1994 C1992 1.561 . S
C1995 C1992 1.526 . S
C1995 C1996 1.396 . S
C1995 C2000 1.390 . S
C1996 C1990 1.465 . S
C1996 C1995 1.396 . S
C1996 C1997 1.399 . S
C1997 H1983 0.929 . S
C1997 C1996 1.399 . S
C1997 C1998 1.385 . S
C1998 H1984 0.931 . S
C1998 C1997 1.385 . S
C1998 C1999 1.389 . S
C1999 C1998 1.389 . S
C1999 C2000 1.387 . S
C2000 H1985 0.930 . S
C2000 C1995 1.390 . S
C2000 C1999 1.387 . S
H2001 C2013 0.930 . S
H2002 C2015 0.930 . S
H2003 C2016 0.930 . S
H2004 C2020 0.959 . S
H2005 C2020 0.959 . S
H2006 C2020 0.961 . S
H2007 C2021 0.960 . S
H2008 C2021 0.961 . S
H2009 C2021 0.959 . S
H2010 C2024 0.929 . S
H2011 C2025 0.931 . S
H2012 C2027 0.930 . S
C2013 H2001 0.930 . S
C2013 C2014 1.399 . S
C2013 C2018 1.399 . S
C2014 C2013 1.399 . S
C2014 C2015 1.376 . S
C2015 H2002 0.930 . S
C2015 C2014 1.376 . S
C2015 C2016 1.388 . S
C2016 H2003 0.930 . S
C2016 C2015 1.388 . S
C2016 C2017 1.390 . S
C2017 C2016 1.390 . S
C2017 C2018 1.394 . S
C2017 C2023 1.465 . S
C2018 C2013 1.399 . S
C2018 C2017 1.394 . S
C2018 C2019 1.516 . S
C2019 C2018 1.516 . S
C2019 C2020 1.502 . S
C2019 C2021 1.561 . S
C2019 C2022 1.526 . S
C2020 H2004 0.959 . S
C2020 H2005 0.959 . S
C2020 H2006 0.961 . S
C2020 C2019 1.502 . S
C2021 H2007 0.960 . S
C2021 H2008 0.961 . S
C2021 H2009 0.959 . S
C2021 C2019 1.561 . S
C2022 C2019 1.526 . S
C2022 C2023 1.396 . S
C2022 C2027 1.390 . S
C2023 C2017 1.465 . S
C2023 C2022 1.396 . S
C2023 C2024 1.399 . S
C2024 H2010 0.929 . S
C2024 C2023 1.399 . S
C2024 C2025 1.385 . S
C2025 H2011 0.931 . S
C2025 C2024 1.385 . S
C2025 C2026 1.389 . S
C2026 C2025 1.389 . S
C2026 C2027 1.387 . S
C2027 H2012 0.930 . S
C2027 C2022 1.390 . S
C2027 C2026 1.387 . S
H2028 C2040 0.930 . S
H2029 C2042 0.930 . S
H2030 C2043 0.930 . S
H2031 C2047 0.959 . S
H2032 C2047 0.959 . S
H2033 C2047 0.961 . S
H2034 C2048 0.960 . S
H2035 C2048 0.961 . S
H2036 C2048 0.959 . S
H2037 C2051 0.929 . S
H2038 C2052 0.931 . S
H2039 C2054 0.930 . S
C2040 H2028 0.930 . S
C2040 C2041 1.399 . S
C2040 C2045 1.399 . S
C2041 C2040 1.399 . S
C2041 C2042 1.376 . S
C2042 H2029 0.930 . S
C2042 C2041 1.376 . S
C2042 C2043 1.388 . S
C2043 H2030 0.930 . S
C2043 C2042 1.388 . S
C2043 C2044 1.390 . S
C2044 C2043 1.390 . S
C2044 C2045 1.394 . S
C2044 C2050 1.465 . S
C2045 C2040 1.399 . S
C2045 C2044 1.394 . S
C2045 C2046 1.516 . S
C2046 C2045 1.516 . S
C2046 C2047 1.502 . S
C2046 C2048 1.561 . S
C2046 C2049 1.526 . S
C2047 H2031 0.959 . S
C2047 H2032 0.959 . S
C2047 H2033 0.961 . S
C2047 C2046 1.502 . S
C2048 H2034 0.960 . S
C2048 H2035 0.961 . S
C2048 H2036 0.959 . S
C2048 C2046 1.561 . S
C2049 C2046 1.526 . S
C2049 C2050 1.396 . S
C2049 C2054 1.390 . S
C2050 C2044 1.465 . S
C2050 C2049 1.396 . S
C2050 C2051 1.399 . S
C2051 H2037 0.929 . S
C2051 C2050 1.399 . S
C2051 C2052 1.385 . S
C2052 H2038 0.931 . S
C2052 C2051 1.385 . S
C2052 C2053 1.389 . S
C2053 C2052 1.389 . S
C2053 C2054 1.387 . S
C2054 H2039 0.930 . S
C2054 C2049 1.390 . S
C2054 C2053 1.387 . S
H2055 C2067 0.930 . S
H2056 C2069 0.930 . S
H2057 C2070 0.930 . S
H2058 C2074 0.959 . S
H2059 C2074 0.959 . S
H2060 C2074 0.961 . S
H2061 C2075 0.960 . S
H2062 C2075 0.961 . S
H2063 C2075 0.959 . S
H2064 C2078 0.929 . S
H2065 C2079 0.931 . S
H2066 C2081 0.930 . S
C2067 H2055 0.930 . S
C2067 C2068 1.399 . S
C2067 C2072 1.399 . S
C2068 C2067 1.399 . S
C2068 C2069 1.376 . S
C2069 H2056 0.930 . S
C2069 C2068 1.376 . S
C2069 C2070 1.388 . S
C2070 H2057 0.930 . S
C2070 C2069 1.388 . S
C2070 C2071 1.390 . S
C2071 C2070 1.390 . S
C2071 C2072 1.394 . S
C2071 C2077 1.465 . S
C2072 C2067 1.399 . S
C2072 C2071 1.394 . S
C2072 C2073 1.516 . S
C2073 C2072 1.516 . S
C2073 C2074 1.502 . S
C2073 C2075 1.561 . S
C2073 C2076 1.526 . S
C2074 H2058 0.959 . S
C2074 H2059 0.959 . S
C2074 H2060 0.961 . S
C2074 C2073 1.502 . S
C2075 H2061 0.960 . S
C2075 H2062 0.961 . S
C2075 H2063 0.959 . S
C2075 C2073 1.561 . S
C2076 C2073 1.526 . S
C2076 C2077 1.396 . S
C2076 C2081 1.390 . S
C2077 C2071 1.465 . S
C2077 C2076 1.396 . S
C2077 C2078 1.399 . S
C2078 H2064 0.929 . S
C2078 C2077 1.399 . S
C2078 C2079 1.385 . S
C2079 H2065 0.931 . S
C2079 C2078 1.385 . S
C2079 C2080 1.389 . S
C2080 C2079 1.389 . S
C2080 C2081 1.387 . S
C2081 H2066 0.930 . S
C2081 C2076 1.390 . S
C2081 C2080 1.387 . S
H2082 C2094 0.930 . S
H2083 C2096 0.930 . S
H2084 C2097 0.930 . S
H2085 C2101 0.959 . S
H2086 C2101 0.959 . S
H2087 C2101 0.961 . S
H2088 C2102 0.960 . S
H2089 C2102 0.961 . S
H2090 C2102 0.959 . S
H2091 C2105 0.929 . S
H2092 C2106 0.931 . S
H2093 C2108 0.930 . S
C2094 H2082 0.930 . S
C2094 C2095 1.399 . S
C2094 C2099 1.399 . S
C2095 C2094 1.399 . S
C2095 C2096 1.376 . S
C2096 H2083 0.930 . S
C2096 C2095 1.376 . S
C2096 C2097 1.388 . S
C2097 H2084 0.930 . S
C2097 C2096 1.388 . S
C2097 C2098 1.390 . S
C2098 C2097 1.390 . S
C2098 C2099 1.394 . S
C2098 C2104 1.465 . S
C2099 C2094 1.399 . S
C2099 C2098 1.394 . S
C2099 C2100 1.516 . S
C2100 C2099 1.516 . S
C2100 C2101 1.502 . S
C2100 C2102 1.561 . S
C2100 C2103 1.526 . S
C2101 H2085 0.959 . S
C2101 H2086 0.959 . S
C2101 H2087 0.961 . S
C2101 C2100 1.502 . S
C2102 H2088 0.960 . S
C2102 H2089 0.961 . S
C2102 H2090 0.959 . S
C2102 C2100 1.561 . S
C2103 C2100 1.526 . S
C2103 C2104 1.396 . S
C2103 C2108 1.390 . S
C2104 C2098 1.465 . S
C2104 C2103 1.396 . S
C2104 C2105 1.399 . S
C2105 H2091 0.929 . S
C2105 C2104 1.399 . S
C2105 C2106 1.385 . S
C2106 H2092 0.931 . S
C2106 C2105 1.385 . S
C2106 C2107 1.389 . S
C2107 C2106 1.389 . S
C2107 C2108 1.387 . S
C2108 H2093 0.930 . S
C2108 C2103 1.390 . S
C2108 C2107 1.387 . S
H2109 C2121 0.930 . S
H2110 C2123 0.930 . S
H2111 C2124 0.930 . S
H2112 C2128 0.959 . S
H2113 C2128 0.959 . S
H2114 C2128 0.961 . S
H2115 C2129 0.960 . S
H2116 C2129 0.961 . S
H2117 C2129 0.959 . S
H2118 C2132 0.929 . S
H2119 C2133 0.931 . S
H2120 C2135 0.930 . S
C2121 H2109 0.930 . S
C2121 C2122 1.399 . S
C2121 C2126 1.399 . S
C2122 C2121 1.399 . S
C2122 C2123 1.376 . S
C2123 H2110 0.930 . S
C2123 C2122 1.376 . S
C2123 C2124 1.388 . S
C2124 H2111 0.930 . S
C2124 C2123 1.388 . S
C2124 C2125 1.390 . S
C2125 C2124 1.390 . S
C2125 C2126 1.394 . S
C2125 C2131 1.465 . S
C2126 C2121 1.399 . S
C2126 C2125 1.394 . S
C2126 C2127 1.516 . S
C2127 C2126 1.516 . S
C2127 C2128 1.502 . S
C2127 C2129 1.561 . S
C2127 C2130 1.526 . S
C2128 H2112 0.959 . S
C2128 H2113 0.959 . S
C2128 H2114 0.961 . S
C2128 C2127 1.502 . S
C2129 H2115 0.960 . S
C2129 H2116 0.961 . S
C2129 H2117 0.959 . S
C2129 C2127 1.561 . S
C2130 C2127 1.526 . S
C2130 C2131 1.396 . S
C2130 C2135 1.390 . S
C2131 C2125 1.465 . S
C2131 C2130 1.396 . S
C2131 C2132 1.399 . S
C2132 H2118 0.929 . S
C2132 C2131 1.399 . S
C2132 C2133 1.385 . S
C2133 H2119 0.931 . S
C2133 C2132 1.385 . S
C2133 C2134 1.389 . S
C2134 C2133 1.389 . S
C2134 C2135 1.387 . S
C2135 H2120 0.930 . S
C2135 C2130 1.390 . S
C2135 C2134 1.387 . S
H2136 C2148 0.930 . S
H2137 C2150 0.930 . S
H2138 C2151 0.930 . S
H2139 C2155 0.959 . S
H2140 C2155 0.959 . S
H2141 C2155 0.961 . S
H2142 C2156 0.960 . S
H2143 C2156 0.961 . S
H2144 C2156 0.959 . S
H2145 C2159 0.929 . S
H2146 C2160 0.931 . S
H2147 C2162 0.930 . S
C2148 H2136 0.930 . S
C2148 C2149 1.399 . S
C2148 C2153 1.399 . S
C2149 C2148 1.399 . S
C2149 C2150 1.376 . S
C2150 H2137 0.930 . S
C2150 C2149 1.376 . S
C2150 C2151 1.388 . S
C2151 H2138 0.930 . S
C2151 C2150 1.388 . S
C2151 C2152 1.390 . S
C2152 C2151 1.390 . S
C2152 C2153 1.394 . S
C2152 C2158 1.465 . S
C2153 C2148 1.399 . S
C2153 C2152 1.394 . S
C2153 C2154 1.516 . S
C2154 C2153 1.516 . S
C2154 C2155 1.502 . S
C2154 C2156 1.561 . S
C2154 C2157 1.526 . S
C2155 H2139 0.959 . S
C2155 H2140 0.959 . S
C2155 H2141 0.961 . S
C2155 C2154 1.502 . S
C2156 H2142 0.960 . S
C2156 H2143 0.961 . S
C2156 H2144 0.959 . S
C2156 C2154 1.561 . S
C2157 C2154 1.526 . S
C2157 C2158 1.396 . S
C2157 C2162 1.390 . S
C2158 C2152 1.465 . S
C2158 C2157 1.396 . S
C2158 C2159 1.399 . S
C2159 H2145 0.929 . S
C2159 C2158 1.399 . S
C2159 C2160 1.385 . S
C2160 H2146 0.931 . S
C2160 C2159 1.385 . S
C2160 C2161 1.389 . S
C2161 C2160 1.389 . S
C2161 C2162 1.387 . S
C2162 H2147 0.930 . S
C2162 C2157 1.390 . S
C2162 C2161 1.387 . S
H2163 C2175 0.930 . S
H2164 C2177 0.930 . S
H2165 C2178 0.930 . S
H2166 C2182 0.959 . S
H2167 C2182 0.959 . S
H2168 C2182 0.961 . S
H2169 C2183 0.960 . S
H2170 C2183 0.961 . S
H2171 C2183 0.959 . S
H2172 C2186 0.929 . S
H2173 C2187 0.931 . S
H2174 C2189 0.930 . S
C2175 H2163 0.930 . S
C2175 C2176 1.399 . S
C2175 C2180 1.399 . S
C2176 C2175 1.399 . S
C2176 C2177 1.376 . S
C2177 H2164 0.930 . S
C2177 C2176 1.376 . S
C2177 C2178 1.388 . S
C2178 H2165 0.930 . S
C2178 C2177 1.388 . S
C2178 C2179 1.390 . S
C2179 C2178 1.390 . S
C2179 C2180 1.394 . S
C2179 C2185 1.465 . S
C2180 C2175 1.399 . S
C2180 C2179 1.394 . S
C2180 C2181 1.516 . S
C2181 C2180 1.516 . S
C2181 C2182 1.502 . S
C2181 C2183 1.561 . S
C2181 C2184 1.526 . S
C2182 H2166 0.959 . S
C2182 H2167 0.959 . S
C2182 H2168 0.961 . S
C2182 C2181 1.502 . S
C2183 H2169 0.960 . S
C2183 H2170 0.961 . S
C2183 H2171 0.959 . S
C2183 C2181 1.561 . S
C2184 C2181 1.526 . S
C2184 C2185 1.396 . S
C2184 C2189 1.390 . S
C2185 C2179 1.465 . S
C2185 C2184 1.396 . S
C2185 C2186 1.399 . S
C2186 H2172 0.929 . S
C2186 C2185 1.399 . S
C2186 C2187 1.385 . S
C2187 H2173 0.931 . S
C2187 C2186 1.385 . S
C2187 C2188 1.389 . S
C2188 C2187 1.389 . S
C2188 C2189 1.387 . S
C2189 H2174 0.930 . S
C2189 C2184 1.390 . S
C2189 C2188 1.387 . S
H2190 C2202 0.930 . S
H2191 C2204 0.930 . S
H2192 C2205 0.930 . S
H2193 C2209 0.959 . S
H2194 C2209 0.959 . S
H2195 C2209 0.961 . S
H2196 C2210 0.960 . S
H2197 C2210 0.961 . S
H2198 C2210 0.959 . S
H2199 C2213 0.929 . S
H2200 C2214 0.931 . S
H2201 C2216 0.930 . S
C2202 H2190 0.930 . S
C2202 C2203 1.399 . S
C2202 C2207 1.399 . S
C2203 C2202 1.399 . S
C2203 C2204 1.376 . S
C2204 H2191 0.930 . S
C2204 C2203 1.376 . S
C2204 C2205 1.388 . S
C2205 H2192 0.930 . S
C2205 C2204 1.388 . S
C2205 C2206 1.390 . S
C2206 C2205 1.390 . S
C2206 C2207 1.394 . S
C2206 C2212 1.465 . S
C2207 C2202 1.399 . S
C2207 C2206 1.394 . S
C2207 C2208 1.516 . S
C2208 C2207 1.516 . S
C2208 C2209 1.502 . S
C2208 C2210 1.561 . S
C2208 C2211 1.526 . S
C2209 H2193 0.959 . S
C2209 H2194 0.959 . S
C2209 H2195 0.961 . S
C2209 C2208 1.502 . S
C2210 H2196 0.960 . S
C2210 H2197 0.961 . S
C2210 H2198 0.959 . S
C2210 C2208 1.561 . S
C2211 C2208 1.526 . S
C2211 C2212 1.396 . S
C2211 C2216 1.390 . S
C2212 C2206 1.465 . S
C2212 C2211 1.396 . S
C2212 C2213 1.399 . S
C2213 H2199 0.929 . S
C2213 C2212 1.399 . S
C2213 C2214 1.385 . S
C2214 H2200 0.931 . S
C2214 C2213 1.385 . S
C2214 C2215 1.389 . S
C2215 C2214 1.389 . S
C2215 C2216 1.387 . S
C2216 H2201 0.930 . S
C2216 C2211 1.390 . S
C2216 C2215 1.387 . S
H2217 C2229 0.930 . S
H2218 C2231 0.930 . S
H2219 C2232 0.930 . S
H2220 C2236 0.959 . S
H2221 C2236 0.959 . S
H2222 C2236 0.961 . S
H2223 C2237 0.960 . S
H2224 C2237 0.961 . S
H2225 C2237 0.959 . S
H2226 C2240 0.929 . S
H2227 C2241 0.931 . S
H2228 C2243 0.930 . S
C2229 H2217 0.930 . S
C2229 C2230 1.399 . S
C2229 C2234 1.399 . S
C2230 C2229 1.399 . S
C2230 C2231 1.376 . S
C2231 H2218 0.930 . S
C2231 C2230 1.376 . S
C2231 C2232 1.388 . S
C2232 H2219 0.930 . S
C2232 C2231 1.388 . S
C2232 C2233 1.390 . S
C2233 C2232 1.390 . S
C2233 C2234 1.394 . S
C2233 C2239 1.465 . S
C2234 C2229 1.399 . S
C2234 C2233 1.394 . S
C2234 C2235 1.516 . S
C2235 C2234 1.516 . S
C2235 C2236 1.502 . S
C2235 C2237 1.561 . S
C2235 C2238 1.526 . S
C2236 H2220 0.959 . S
C2236 H2221 0.959 . S
C2236 H2222 0.961 . S
C2236 C2235 1.502 . S
C2237 H2223 0.960 . S
C2237 H2224 0.961 . S
C2237 H2225 0.959 . S
C2237 C2235 1.561 . S
C2238 C2235 1.526 . S
C2238 C2239 1.396 . S
C2238 C2243 1.390 . S
C2239 C2233 1.465 . S
C2239 C2238 1.396 . S
C2239 C2240 1.399 . S
C2240 H2226 0.929 . S
C2240 C2239 1.399 . S
C2240 C2241 1.385 . S
C2241 H2227 0.931 . S
C2241 C2240 1.385 . S
C2241 C2242 1.389 . S
C2242 C2241 1.389 . S
C2242 C2243 1.387 . S
C2243 H2228 0.930 . S
C2243 C2238 1.390 . S
C2243 C2242 1.387 . S
H2244 C2256 0.930 . S
H2245 C2258 0.930 . S
H2246 C2259 0.930 . S
H2247 C2263 0.959 . S
H2248 C2263 0.959 . S
H2249 C2263 0.961 . S
H2250 C2264 0.960 . S
H2251 C2264 0.961 . S
H2252 C2264 0.959 . S
H2253 C2267 0.929 . S
H2254 C2268 0.931 . S
H2255 C2270 0.930 . S
C2256 H2244 0.930 . S
C2256 C2257 1.399 . S
C2256 C2261 1.399 . S
C2257 C2256 1.399 . S
C2257 C2258 1.376 . S
C2258 H2245 0.930 . S
C2258 C2257 1.376 . S
C2258 C2259 1.388 . S
C2259 H2246 0.930 . S
C2259 C2258 1.388 . S
C2259 C2260 1.390 . S
C2260 C2259 1.390 . S
C2260 C2261 1.394 . S
C2260 C2266 1.465 . S
C2261 C2256 1.399 . S
C2261 C2260 1.394 . S
C2261 C2262 1.516 . S
C2262 C2261 1.516 . S
C2262 C2263 1.502 . S
C2262 C2264 1.561 . S
C2262 C2265 1.526 . S
C2263 H2247 0.959 . S
C2263 H2248 0.959 . S
C2263 H2249 0.961 . S
C2263 C2262 1.502 . S
C2264 H2250 0.960 . S
C2264 H2251 0.961 . S
C2264 H2252 0.959 . S
C2264 C2262 1.561 . S
C2265 C2262 1.526 . S
C2265 C2266 1.396 . S
C2265 C2270 1.390 . S
C2266 C2260 1.465 . S
C2266 C2265 1.396 . S
C2266 C2267 1.399 . S
C2267 H2253 0.929 . S
C2267 C2266 1.399 . S
C2267 C2268 1.385 . S
C2268 H2254 0.931 . S
C2268 C2267 1.385 . S
C2268 C2269 1.389 . S
C2269 C2268 1.389 . S
C2269 C2270 1.387 . S
C2270 H2255 0.930 . S
C2270 C2265 1.390 . S
C2270 C2269 1.387 . S
H2271 C2283 0.930 . S
H2272 C2285 0.930 . S
H2273 C2286 0.930 . S
H2274 C2290 0.959 . S
H2275 C2290 0.959 . S
H2276 C2290 0.961 . S
H2277 C2291 0.960 . S
H2278 C2291 0.961 . S
H2279 C2291 0.959 . S
H2280 C2294 0.929 . S
H2281 C2295 0.931 . S
H2282 C2297 0.930 . S
C2283 H2271 0.930 . S
C2283 C2284 1.399 . S
C2283 C2288 1.399 . S
C2284 C2283 1.399 . S
C2284 C2285 1.376 . S
C2285 H2272 0.930 . S
C2285 C2284 1.376 . S
C2285 C2286 1.388 . S
C2286 H2273 0.930 . S
C2286 C2285 1.388 . S
C2286 C2287 1.390 . S
C2287 C2286 1.390 . S
C2287 C2288 1.394 . S
C2287 C2293 1.465 . S
C2288 C2283 1.399 . S
C2288 C2287 1.394 . S
C2288 C2289 1.516 . S
C2289 C2288 1.516 . S
C2289 C2290 1.502 . S
C2289 C2291 1.561 . S
C2289 C2292 1.526 . S
C2290 H2274 0.959 . S
C2290 H2275 0.959 . S
C2290 H2276 0.961 . S
C2290 C2289 1.502 . S
C2291 H2277 0.960 . S
C2291 H2278 0.961 . S
C2291 H2279 0.959 . S
C2291 C2289 1.561 . S
C2292 C2289 1.526 . S
C2292 C2293 1.396 . S
C2292 C2297 1.390 . S
C2293 C2287 1.465 . S
C2293 C2292 1.396 . S
C2293 C2294 1.399 . S
C2294 H2280 0.929 . S
C2294 C2293 1.399 . S
C2294 C2295 1.385 . S
C2295 H2281 0.931 . S
C2295 C2294 1.385 . S
C2295 C2296 1.389 . S
C2296 C2295 1.389 . S
C2296 C2297 1.387 . S
C2297 H2282 0.930 . S
C2297 C2292 1.390 . S
C2297 C2296 1.387 . S
H2298 C2310 0.930 . S
H2299 C2312 0.930 . S
H2300 C2313 0.930 . S
H2301 C2317 0.959 . S
H2302 C2317 0.959 . S
H2303 C2317 0.961 . S
H2304 C2318 0.960 . S
H2305 C2318 0.961 . S
H2306 C2318 0.959 . S
H2307 C2321 0.929 . S
H2308 C2322 0.931 . S
H2309 C2324 0.930 . S
C2310 H2298 0.930 . S
C2310 C2311 1.399 . S
C2310 C2315 1.399 . S
C2311 C2310 1.399 . S
C2311 C2312 1.376 . S
C2312 H2299 0.930 . S
C2312 C2311 1.376 . S
C2312 C2313 1.388 . S
C2313 H2300 0.930 . S
C2313 C2312 1.388 . S
C2313 C2314 1.390 . S
C2314 C2313 1.390 . S
C2314 C2315 1.394 . S
C2314 C2320 1.465 . S
C2315 C2310 1.399 . S
C2315 C2314 1.394 . S
C2315 C2316 1.516 . S
C2316 C2315 1.516 . S
C2316 C2317 1.502 . S
C2316 C2318 1.561 . S
C2316 C2319 1.526 . S
C2317 H2301 0.959 . S
C2317 H2302 0.959 . S
C2317 H2303 0.961 . S
C2317 C2316 1.502 . S
C2318 H2304 0.960 . S
C2318 H2305 0.961 . S
C2318 H2306 0.959 . S
C2318 C2316 1.561 . S
C2319 C2316 1.526 . S
C2319 C2320 1.396 . S
C2319 C2324 1.390 . S
C2320 C2314 1.465 . S
C2320 C2319 1.396 . S
C2320 C2321 1.399 . S
C2321 H2307 0.929 . S
C2321 C2320 1.399 . S
C2321 C2322 1.385 . S
C2322 H2308 0.931 . S
C2322 C2321 1.385 . S
C2322 C2323 1.389 . S
C2323 C2322 1.389 . S
C2323 C2324 1.387 . S
C2324 H2309 0.930 . S
C2324 C2319 1.390 . S
C2324 C2323 1.387 . S
H2325 C2337 0.930 . S
H2326 C2339 0.930 . S
H2327 C2340 0.930 . S
H2328 C2344 0.959 . S
H2329 C2344 0.959 . S
H2330 C2344 0.961 . S
H2331 C2345 0.960 . S
H2332 C2345 0.961 . S
H2333 C2345 0.959 . S
H2334 C2348 0.929 . S
H2335 C2349 0.931 . S
H2336 C2351 0.930 . S
C2337 H2325 0.930 . S
C2337 C2338 1.399 . S
C2337 C2342 1.399 . S
C2338 C2337 1.399 . S
C2338 C2339 1.376 . S
C2339 H2326 0.930 . S
C2339 C2338 1.376 . S
C2339 C2340 1.388 . S
C2340 H2327 0.930 . S
C2340 C2339 1.388 . S
C2340 C2341 1.390 . S
C2341 C2340 1.390 . S
C2341 C2342 1.394 . S
C2341 C2347 1.465 . S
C2342 C2337 1.399 . S
C2342 C2341 1.394 . S
C2342 C2343 1.516 . S
C2343 C2342 1.516 . S
C2343 C2344 1.502 . S
C2343 C2345 1.561 . S
C2343 C2346 1.526 . S
C2344 H2328 0.959 . S
C2344 H2329 0.959 . S
C2344 H2330 0.961 . S
C2344 C2343 1.502 . S
C2345 H2331 0.960 . S
C2345 H2332 0.961 . S
C2345 H2333 0.959 . S
C2345 C2343 1.561 . S
C2346 C2343 1.526 . S
C2346 C2347 1.396 . S
C2346 C2351 1.390 . S
C2347 C2341 1.465 . S
C2347 C2346 1.396 . S
C2347 C2348 1.399 . S
C2348 H2334 0.929 . S
C2348 C2347 1.399 . S
C2348 C2349 1.385 . S
C2349 H2335 0.931 . S
C2349 C2348 1.385 . S
C2349 C2350 1.389 . S
C2350 C2349 1.389 . S
C2350 C2351 1.387 . S
C2351 H2336 0.930 . S
C2351 C2346 1.390 . S
C2351 C2350 1.387 . S
H2352 C2364 0.930 . S
H2353 C2366 0.930 . S
H2354 C2367 0.930 . S
H2355 C2371 0.959 . S
H2356 C2371 0.959 . S
H2357 C2371 0.961 . S
H2358 C2372 0.960 . S
H2359 C2372 0.961 . S
H2360 C2372 0.959 . S
H2361 C2375 0.929 . S
H2362 C2376 0.931 . S
H2363 C2378 0.930 . S
C2364 H2352 0.930 . S
C2364 C2365 1.399 . S
C2364 C2369 1.399 . S
C2365 C2364 1.399 . S
C2365 C2366 1.376 . S
C2366 H2353 0.930 . S
C2366 C2365 1.376 . S
C2366 C2367 1.388 . S
C2367 H2354 0.930 . S
C2367 C2366 1.388 . S
C2367 C2368 1.390 . S
C2368 C2367 1.390 . S
C2368 C2369 1.394 . S
C2368 C2374 1.465 . S
C2369 C2364 1.399 . S
C2369 C2368 1.394 . S
C2369 C2370 1.516 . S
C2370 C2369 1.516 . S
C2370 C2371 1.502 . S
C2370 C2372 1.561 . S
C2370 C2373 1.526 . S
C2371 H2355 0.959 . S
C2371 H2356 0.959 . S
C2371 H2357 0.961 . S
C2371 C2370 1.502 . S
C2372 H2358 0.960 . S
C2372 H2359 0.961 . S
C2372 H2360 0.959 . S
C2372 C2370 1.561 . S
C2373 C2370 1.526 . S
C2373 C2374 1.396 . S
C2373 C2378 1.390 . S
C2374 C2368 1.465 . S
C2374 C2373 1.396 . S
C2374 C2375 1.399 . S
C2375 H2361 0.929 . S
C2375 C2374 1.399 . S
C2375 C2376 1.385 . S
C2376 H2362 0.931 . S
C2376 C2375 1.385 . S
C2376 C2377 1.389 . S
C2377 C2376 1.389 . S
C2377 C2378 1.387 . S
C2378 H2363 0.930 . S
C2378 C2373 1.390 . S
C2378 C2377 1.387 . S
H2379 C2391 0.930 . S
H2380 C2393 0.930 . S
H2381 C2394 0.930 . S
H2382 C2398 0.959 . S
H2383 C2398 0.959 . S
H2384 C2398 0.961 . S
H2385 C2399 0.960 . S
H2386 C2399 0.961 . S
H2387 C2399 0.959 1_655 S
H2388 C2402 0.929 . S
H2389 C2403 0.931 . S
H2390 C2405 0.930 . S
C2391 H2379 0.930 . S
C2391 C2392 1.399 . S
C2391 C2396 1.399 . S
C2392 C2391 1.399 . S
C2392 C2393 1.376 1_455 S
C2393 H2380 0.930 . S
C2393 C2392 1.376 1_655 S
C2393 C2394 1.388 . S
C2394 H2381 0.930 . S
C2394 C2393 1.388 . S
C2394 C2395 1.390 . S
C2395 C2394 1.390 . S
C2395 C2396 1.394 1_655 S
C2395 C2401 1.465 . S
C2396 C2391 1.399 . S
C2396 C2395 1.394 1_455 S
C2396 C2397 1.516 . S
C2397 C2396 1.516 . S
C2397 C2398 1.502 . S
C2397 C2399 1.561 . S
C2397 C2400 1.526 1_455 S
C2398 H2382 0.959 . S
C2398 H2383 0.959 . S
C2398 H2384 0.961 . S
C2398 C2397 1.502 . S
C2399 H2385 0.960 . S
C2399 H2386 0.961 . S
C2399 H2387 0.959 1_455 S
C2399 C2397 1.561 . S
C2400 C2397 1.526 1_655 S
C2400 C2401 1.396 . S
C2400 C2405 1.390 . S
C2401 C2395 1.465 . S
C2401 C2400 1.396 . S
C2401 C2402 1.399 . S
C2402 H2388 0.929 . S
C2402 C2401 1.399 . S
C2402 C2403 1.385 . S
C2403 H2389 0.931 . S
C2403 C2402 1.385 . S
C2403 C2404 1.389 . S
C2404 C2403 1.389 . S
C2404 C2405 1.387 . S
C2405 H2390 0.930 . S
C2405 C2400 1.390 . S
C2405 C2404 1.387 . S
H2406 C2418 0.930 . S
H2407 C2420 0.930 . S
H2408 C2421 0.930 . S
H2409 C2425 0.959 . S
H2410 C2425 0.959 . S
H2411 C2425 0.961 . S
H2412 C2426 0.960 . S
H2413 C2426 0.961 . S
H2414 C2426 0.959 . S
H2415 C2429 0.929 . S
H2416 C2430 0.931 . S
H2417 C2432 0.930 . S
C2418 H2406 0.930 . S
C2418 C2419 1.399 . S
C2418 C2423 1.399 . S
C2419 C2418 1.399 . S
C2419 C2420 1.376 . S
C2420 H2407 0.930 . S
C2420 C2419 1.376 . S
C2420 C2421 1.388 . S
C2421 H2408 0.930 . S
C2421 C2420 1.388 . S
C2421 C2422 1.390 . S
C2422 C2421 1.390 . S
C2422 C2423 1.394 . S
C2422 C2428 1.465 . S
C2423 C2418 1.399 . S
C2423 C2422 1.394 . S
C2423 C2424 1.516 . S
C2424 C2423 1.516 . S
C2424 C2425 1.502 . S
C2424 C2426 1.561 . S
C2424 C2427 1.526 . S
C2425 H2409 0.959 . S
C2425 H2410 0.959 . S
C2425 H2411 0.961 . S
C2425 C2424 1.502 . S
C2426 H2412 0.960 . S
C2426 H2413 0.961 . S
C2426 H2414 0.959 . S
C2426 C2424 1.561 . S
C2427 C2424 1.526 . S
C2427 C2428 1.396 . S
C2427 C2432 1.390 . S
C2428 C2422 1.465 . S
C2428 C2427 1.396 . S
C2428 C2429 1.399 . S
C2429 H2415 0.929 . S
C2429 C2428 1.399 . S
C2429 C2430 1.385 . S
C2430 H2416 0.931 . S
C2430 C2429 1.385 . S
C2430 C2431 1.389 . S
C2431 C2430 1.389 . S
C2431 C2432 1.387 . S
C2432 H2417 0.930 . S
C2432 C2427 1.390 . S
C2432 C2431 1.387 . S
H2433 C2445 0.930 . S
H2434 C2447 0.930 . S
H2435 C2448 0.930 . S
H2436 C2452 0.959 . S
H2437 C2452 0.959 . S
H2438 C2452 0.961 . S
H2439 C2453 0.960 . S
H2440 C2453 0.961 . S
H2441 C2453 0.959 . S
H2442 C2456 0.929 1_455 S
H2443 C2457 0.931 . S
H2444 C2459 0.930 . S
C2445 H2433 0.930 . S
C2445 C2446 1.399 1_655 S
C2445 C2450 1.399 . S
C2446 C2445 1.399 1_455 S
C2446 C2447 1.376 . S
C2447 H2434 0.930 . S
C2447 C2446 1.376 . S
C2447 C2448 1.388 . S
C2448 H2435 0.930 . S
C2448 C2447 1.388 . S
C2448 C2449 1.382 1_455 S
C2449 C2448 1.382 1_655 S
C2449 C2450 1.398 . S
C2449 C2455 1.470 . S
C2450 C2445 1.399 . S
C2450 C2449 1.398 . S
C2450 C2451 1.516 . S
C2451 C2450 1.516 . S
C2451 C2452 1.502 . S
C2451 C2453 1.561 . S
C2451 C2454 1.526 . S
C2452 H2436 0.959 . S
C2452 H2437 0.959 . S
C2452 H2438 0.961 . S
C2452 C2451 1.502 . S
C2453 H2439 0.960 . S
C2453 H2440 0.961 . S
C2453 H2441 0.959 . S
C2453 C2451 1.561 . S
C2454 C2451 1.526 . S
C2454 C2455 1.396 . S
C2454 C2459 1.390 . S
C2455 C2449 1.470 . S
C2455 C2454 1.396 . S
C2455 C2456 1.399 . S
C2456 H2442 0.929 1_655 S
C2456 C2455 1.399 . S
C2456 C2457 1.385 . S
C2457 H2443 0.931 . S
C2457 C2456 1.385 . S
C2457 C2458 1.389 . S
C2458 C2457 1.389 . S
C2458 C2459 1.387 . S
C2459 H2444 0.930 . S
C2459 C2454 1.390 . S
C2459 C2458 1.387 . S
H2460 C2472 0.930 . S
H2461 C2474 0.930 . S
H2462 C2475 0.930 . S
H2463 C2479 0.959 . S
H2464 C2479 0.959 . S
H2465 C2479 0.961 . S
H2466 C2480 0.960 . S
H2467 C2480 0.961 . S
H2468 C2480 0.959 . S
H2469 C2483 0.929 . S
H2470 C2484 0.931 . S
H2471 C2486 0.930 . S
C2472 H2460 0.930 . S
C2472 C2473 1.399 . S
C2472 C2477 1.399 . S
C2473 C2472 1.399 . S
C2473 C2474 1.376 . S
C2474 H2461 0.930 . S
C2474 C2473 1.376 . S
C2474 C2475 1.388 . S
C2475 H2462 0.930 . S
C2475 C2474 1.388 . S
C2475 C2476 1.390 . S
C2476 C2475 1.390 . S
C2476 C2477 1.394 . S
C2476 C2482 1.465 . S
C2477 C2472 1.399 . S
C2477 C2476 1.394 . S
C2477 C2478 1.516 . S
C2478 C2477 1.516 . S
C2478 C2479 1.502 . S
C2478 C2480 1.561 . S
C2478 C2481 1.526 . S
C2479 H2463 0.959 . S
C2479 H2464 0.959 . S
C2479 H2465 0.961 . S
C2479 C2478 1.502 . S
C2480 H2466 0.960 . S
C2480 H2467 0.961 . S
C2480 H2468 0.959 . S
C2480 C2478 1.561 . S
C2481 C2478 1.526 . S
C2481 C2482 1.396 . S
C2481 C2486 1.390 . S
C2482 C2476 1.465 . S
C2482 C2481 1.396 . S
C2482 C2483 1.399 . S
C2483 H2469 0.929 . S
C2483 C2482 1.399 . S
C2483 C2484 1.385 . S
C2484 H2470 0.931 . S
C2484 C2483 1.385 . S
C2484 C2485 1.389 . S
C2485 C2484 1.389 . S
C2485 C2486 1.387 . S
C2486 H2471 0.930 . S
C2486 C2481 1.390 . S
C2486 C2485 1.387 . S
H2487 C2499 0.930 . S
H2488 C2501 0.930 . S
H2489 C2502 0.930 . S
H2490 C2506 0.959 . S
H2491 C2506 0.959 . S
H2492 C2506 0.961 . S
H2493 C2507 0.961 . S
H2494 C2507 0.961 . S
H2495 C2507 0.959 1_455 S
H2496 C2510 0.929 . S
H2497 C2511 0.931 . S
H2498 C2513 0.930 . S
C2499 H2487 0.930 . S
C2499 C2500 1.399 . S
C2499 C2504 1.399 . S
C2500 C2499 1.399 . S
C2500 C2501 1.376 . S
C2501 H2488 0.930 . S
C2501 C2500 1.376 . S
C2501 C2502 1.388 . S
C2502 H2489 0.930 . S
C2502 C2501 1.388 . S
C2502 C2503 1.390 . S
C2503 C2502 1.390 . S
C2503 C2504 1.394 . S
C2503 C2509 1.465 . S
C2504 C2499 1.399 . S
C2504 C2503 1.394 . S
C2504 C2505 1.516 1_455 S
C2505 C2504 1.516 1_655 S
C2505 C2506 1.502 . S
C2505 C2507 1.561 . S
C2505 C2508 1.526 . S
C2506 H2490 0.959 . S
C2506 H2491 0.959 . S
C2506 H2492 0.961 . S
C2506 C2505 1.502 . S
C2507 H2493 0.961 . S
C2507 H2494 0.961 . S
C2507 H2495 0.959 1_655 S
C2507 C2505 1.561 . S
C2508 C2505 1.526 . S
C2508 C2509 1.396 1_655 S
C2508 C2513 1.390 . S
C2509 C2503 1.465 . S
C2509 C2508 1.396 1_455 S
C2509 C2510 1.399 . S
C2510 H2496 0.929 . S
C2510 C2509 1.399 . S
C2510 C2511 1.385 . S
C2511 H2497 0.931 . S
C2511 C2510 1.385 . S
C2511 C2512 1.389 1_455 S
C2512 C2511 1.389 1_655 S
C2512 C2513 1.387 . S
C2513 H2498 0.930 . S
C2513 C2508 1.390 . S
C2513 C2512 1.387 . S
H2514 C2526 0.930 . S
H2515 C2528 0.930 . S
H2516 C2529 0.930 . S
H2517 C2533 0.959 . S
H2518 C2533 0.959 . S
H2519 C2533 0.961 . S
H2520 C2534 0.960 . S
H2521 C2534 0.961 . S
H2522 C2534 0.959 . S
H2523 C2537 0.929 . S
H2524 C2538 0.931 . S
H2525 C2540 0.930 . S
C2526 H2514 0.930 . S
C2526 C2527 1.399 . S
C2526 C2531 1.399 . S
C2527 C2526 1.399 . S
C2527 C2528 1.376 . S
C2528 H2515 0.930 . S
C2528 C2527 1.376 . S
C2528 C2529 1.388 . S
C2529 H2516 0.930 . S
C2529 C2528 1.388 . S
C2529 C2530 1.390 . S
C2530 C2529 1.390 . S
C2530 C2531 1.394 . S
C2530 C2536 1.465 . S
C2531 C2526 1.399 . S
C2531 C2530 1.394 . S
C2531 C2532 1.516 . S
C2532 C2531 1.516 . S
C2532 C2533 1.502 . S
C2532 C2534 1.561 . S
C2532 C2535 1.526 . S
C2533 H2517 0.959 . S
C2533 H2518 0.959 . S
C2533 H2519 0.961 . S
C2533 C2532 1.502 . S
C2534 H2520 0.960 . S
C2534 H2521 0.961 . S
C2534 H2522 0.959 . S
C2534 C2532 1.561 . S
C2535 C2532 1.526 . S
C2535 C2536 1.396 . S
C2535 C2540 1.390 . S
C2536 C2530 1.465 . S
C2536 C2535 1.396 . S
C2536 C2537 1.399 . S
C2537 H2523 0.929 . S
C2537 C2536 1.399 . S
C2537 C2538 1.385 . S
C2538 H2524 0.931 . S
C2538 C2537 1.385 . S
C2538 C2539 1.389 . S
C2539 C2538 1.389 . S
C2539 C2540 1.387 . S
C2540 H2525 0.930 . S
C2540 C2535 1.390 . S
C2540 C2539 1.387 . S
H2541 C2553 0.930 . S
H2542 C2555 0.930 . S
H2543 C2556 0.930 . S
H2544 C2560 0.959 . S
H2545 C2560 0.959 . S
H2546 C2560 0.961 . S
H2547 C2561 0.960 1_455 S
H2548 C2561 0.961 . S
H2549 C2561 0.959 . S
H2550 C2564 0.929 . S
H2551 C2565 0.931 . S
H2552 C2567 0.930 . S
C2553 H2541 0.930 . S
C2553 C2554 1.399 . S
C2553 C2558 1.399 . S
C2554 C2553 1.399 . S
C2554 C2555 1.376 . S
C2555 H2542 0.930 . S
C2555 C2554 1.376 . S
C2555 C2556 1.388 . S
C2556 H2543 0.930 . S
C2556 C2555 1.388 . S
C2556 C2557 1.390 . S
C2557 C2556 1.390 . S
C2557 C2558 1.394 . S
C2557 C2563 1.479 . S
C2558 C2553 1.399 . S
C2558 C2557 1.394 . S
C2558 C2559 1.516 . S
C2559 C2558 1.516 . S
C2559 C2560 1.502 . S
C2559 C2561 1.561 1_455 S
C2559 C2562 1.526 . S
C2560 H2544 0.959 . S
C2560 H2545 0.959 . S
C2560 H2546 0.961 . S
C2560 C2559 1.502 . S
C2561 H2547 0.960 1_655 S
C2561 H2548 0.961 . S
C2561 H2549 0.959 . S
C2561 C2559 1.561 1_655 S
C2562 C2559 1.526 . S
C2562 C2563 1.400 . S
C2562 C2567 1.390 1_455 S
C2563 C2557 1.479 . S
C2563 C2562 1.400 . S
C2563 C2564 1.384 1_455 S
C2564 H2550 0.929 . S
C2564 C2563 1.384 1_655 S
C2564 C2565 1.385 . S
C2565 H2551 0.931 . S
C2565 C2564 1.385 . S
C2565 C2566 1.389 . S
C2566 C2565 1.389 . S
C2566 C2567 1.387 . S
C2567 H2552 0.930 . S
C2567 C2562 1.390 1_655 S
C2567 C2566 1.387 . S
H2568 C2580 0.930 . S
H2569 C2582 0.930 . S
H2570 C2583 0.930 . S
H2571 C2587 0.959 . S
H2572 C2587 0.959 . S
H2573 C2587 0.961 . S
H2574 C2588 0.960 . S
H2575 C2588 0.961 . S
H2576 C2588 0.959 . S
H2577 C2591 0.929 . S
H2578 C2592 0.931 . S
H2579 C2594 0.930 . S
C2580 H2568 0.930 . S
C2580 C2581 1.399 . S
C2580 C2585 1.399 . S
C2581 C2580 1.399 . S
C2581 C2582 1.376 . S
C2582 H2569 0.930 . S
C2582 C2581 1.376 . S
C2582 C2583 1.388 . S
C2583 H2570 0.930 . S
C2583 C2582 1.388 . S
C2583 C2584 1.390 . S
C2584 C2583 1.390 . S
C2584 C2585 1.394 . S
C2584 C2590 1.465 . S
C2585 C2580 1.399 . S
C2585 C2584 1.394 . S
C2585 C2586 1.516 . S
C2586 C2585 1.516 . S
C2586 C2587 1.502 . S
C2586 C2588 1.561 . S
C2586 C2589 1.526 . S
C2587 H2571 0.959 . S
C2587 H2572 0.959 . S
C2587 H2573 0.961 . S
C2587 C2586 1.502 . S
C2588 H2574 0.960 . S
C2588 H2575 0.961 . S
C2588 H2576 0.959 . S
C2588 C2586 1.561 . S
C2589 C2586 1.526 . S
C2589 C2590 1.396 . S
C2589 C2594 1.390 . S
C2590 C2584 1.465 . S
C2590 C2589 1.396 . S
C2590 C2591 1.399 . S
C2591 H2577 0.929 . S
C2591 C2590 1.399 . S
C2591 C2592 1.385 . S
C2592 H2578 0.931 . S
C2592 C2591 1.385 . S
C2592 C2593 1.389 . S
C2593 C2592 1.389 . S
C2593 C2594 1.387 . S
C2594 H2579 0.930 . S
C2594 C2589 1.390 . S
C2594 C2593 1.387 . S
H2595 C2607 0.930 . S
H2596 C2609 0.930 . S
H2597 C2610 0.930 . S
H2598 C2614 0.959 . S
H2599 C2614 0.941 1_655 S
H2600 C2614 0.961 . S
H2601 C2615 0.960 . S
H2602 C2615 0.961 . S
H2603 C2615 0.959 . S
H2604 C2618 0.929 . S
H2605 C2619 0.931 . S
H2606 C2621 0.930 . S
C2607 H2595 0.930 . S
C2607 C2608 1.399 . S
C2607 C2612 1.399 1_455 S
C2608 C2607 1.399 . S
C2608 C2609 1.376 . S
C2609 H2596 0.930 . S
C2609 C2608 1.376 . S
C2609 C2610 1.388 1_455 S
C2610 H2597 0.930 . S
C2610 C2609 1.388 1_655 S
C2610 C2611 1.390 . S
C2611 C2610 1.390 . S
C2611 C2612 1.394 . S
C2611 C2617 1.465 . S
C2612 C2607 1.399 1_655 S
C2612 C2611 1.394 . S
C2612 C2613 1.516 . S
C2613 C2612 1.516 . S
C2613 C2614 1.502 1_655 S
C2613 C2615 1.561 . S
C2613 C2616 1.526 . S
C2614 H2598 0.959 . S
C2614 H2599 0.941 1_455 S
C2614 H2600 0.961 . S
C2614 C2613 1.502 1_455 S
C2615 H2601 0.960 . S
C2615 H2602 0.961 . S
C2615 H2603 0.959 . S
C2615 C2613 1.561 . S
C2616 C2613 1.526 . S
C2616 C2617 1.396 . S
C2616 C2621 1.390 . S
C2617 C2611 1.465 . S
C2617 C2616 1.396 . S
C2617 C2618 1.399 . S
C2618 H2604 0.929 . S
C2618 C2617 1.399 . S
C2618 C2619 1.385 . S
C2619 H2605 0.931 . S
C2619 C2618 1.385 . S
C2619 C2620 1.389 . S
C2620 C2619 1.389 . S
C2620 C2621 1.387 . S
C2621 H2606 0.930 . S
C2621 C2616 1.390 . S
C2621 C2620 1.387 . S
H2622 C2634 0.930 . S
H2623 C2636 0.930 . S
H2624 C2637 0.930 . S
H2625 C2641 0.959 . S
H2626 C2641 0.959 . S
H2627 C2641 0.961 . S
H2628 C2642 0.960 . S
H2629 C2642 0.961 . S
H2630 C2642 0.959 . S
H2631 C2645 0.929 . S
H2632 C2646 0.931 . S
H2633 C2648 0.930 . S
C2634 H2622 0.930 . S
C2634 C2635 1.399 . S
C2634 C2639 1.399 . S
C2635 C2634 1.399 . S
C2635 C2636 1.376 . S
C2636 H2623 0.930 . S
C2636 C2635 1.376 . S
C2636 C2637 1.388 . S
C2637 H2624 0.930 . S
C2637 C2636 1.388 . S
C2637 C2638 1.390 . S
C2638 C2637 1.390 . S
C2638 C2639 1.394 . S
C2638 C2644 1.465 . S
C2639 C2634 1.399 . S
C2639 C2638 1.394 . S
C2639 C2640 1.516 . S
C2640 C2639 1.516 . S
C2640 C2641 1.502 . S
C2640 C2642 1.561 . S
C2640 C2643 1.526 . S
C2641 H2625 0.959 . S
C2641 H2626 0.959 . S
C2641 H2627 0.961 . S
C2641 C2640 1.502 . S
C2642 H2628 0.960 . S
C2642 H2629 0.961 . S
C2642 H2630 0.959 . S
C2642 C2640 1.561 . S
C2643 C2640 1.526 . S
C2643 C2644 1.396 . S
C2643 C2648 1.390 . S
C2644 C2638 1.465 . S
C2644 C2643 1.396 . S
C2644 C2645 1.399 . S
C2645 H2631 0.929 . S
C2645 C2644 1.399 . S
C2645 C2646 1.385 . S
C2646 H2632 0.931 . S
C2646 C2645 1.385 . S
C2646 C2647 1.389 . S
C2647 C2646 1.389 . S
C2647 C2648 1.387 . S
C2648 H2633 0.930 . S
C2648 C2643 1.390 . S
C2648 C2647 1.387 . S
H2649 C2661 0.930 . S
H2650 C2663 0.930 . S
H2651 C2664 0.930 . S
H2652 C2668 0.959 . S
H2653 C2668 0.959 . S
H2654 C2668 0.961 . S
H2655 C2669 0.960 . S
H2656 C2669 0.961 . S
H2657 C2669 0.959 . S
H2658 C2672 0.929 . S
H2659 C2673 0.931 . S
H2660 C2675 0.930 . S
C2661 H2649 0.930 . S
C2661 C2662 1.399 . S
C2661 C2666 1.399 . S
C2662 C2661 1.399 . S
C2662 C2663 1.376 . S
C2663 H2650 0.930 . S
C2663 C2662 1.376 . S
C2663 C2664 1.388 . S
C2664 H2651 0.930 . S
C2664 C2663 1.388 . S
C2664 C2665 1.390 . S
C2665 C2664 1.390 . S
C2665 C2666 1.394 . S
C2665 C2671 1.465 . S
C2666 C2661 1.399 . S
C2666 C2665 1.394 . S
C2666 C2667 1.516 1_655 S
C2667 C2666 1.516 1_455 S
C2667 C2668 1.502 . S
C2667 C2669 1.561 . S
C2667 C2670 1.526 . S
C2668 H2652 0.959 . S
C2668 H2653 0.959 . S
C2668 H2654 0.961 . S
C2668 C2667 1.502 . S
C2669 H2655 0.960 . S
C2669 H2656 0.961 . S
C2669 H2657 0.959 . S
C2669 C2667 1.561 . S
C2670 C2667 1.526 . S
C2670 C2671 1.396 1_455 S
C2670 C2675 1.390 . S
C2671 C2665 1.465 . S
C2671 C2670 1.396 1_655 S
C2671 C2672 1.399 . S
C2672 H2658 0.929 . S
C2672 C2671 1.399 . S
C2672 C2673 1.385 . S
C2673 H2659 0.931 . S
C2673 C2672 1.385 . S
C2673 C2674 1.389 1_655 S
C2674 C2673 1.389 1_455 S
C2674 C2675 1.387 . S
C2675 H2660 0.930 . S
C2675 C2670 1.390 . S
C2675 C2674 1.387 . S
H2676 C2688 0.930 . S
H2677 C2690 0.930 . S
H2678 C2691 0.930 . S
H2679 C2695 0.959 . S
H2680 C2695 0.959 . S
H2681 C2695 0.961 . S
H2682 C2696 0.960 . S
H2683 C2696 0.961 . S
H2684 C2696 0.959 . S
H2685 C2699 0.929 . S
H2686 C2700 0.931 . S
H2687 C2702 0.930 . S
C2688 H2676 0.930 . S
C2688 C2689 1.399 . S
C2688 C2693 1.399 . S
C2689 C2688 1.399 . S
C2689 C2690 1.376 . S
C2690 H2677 0.930 . S
C2690 C2689 1.376 . S
C2690 C2691 1.388 . S
C2691 H2678 0.930 . S
C2691 C2690 1.388 . S
C2691 C2692 1.390 . S
C2692 C2691 1.390 . S
C2692 C2693 1.394 . S
C2692 C2698 1.465 . S
C2693 C2688 1.399 . S
C2693 C2692 1.394 . S
C2693 C2694 1.516 . S
C2694 C2693 1.516 . S
C2694 C2695 1.502 . S
C2694 C2696 1.561 . S
C2694 C2697 1.526 . S
C2695 H2679 0.959 . S
C2695 H2680 0.959 . S
C2695 H2681 0.961 . S
C2695 C2694 1.502 . S
C2696 H2682 0.960 . S
C2696 H2683 0.961 . S
C2696 H2684 0.959 . S
C2696 C2694 1.561 . S
C2697 C2694 1.526 . S
C2697 C2698 1.396 . S
C2697 C2702 1.390 . S
C2698 C2692 1.465 . S
C2698 C2697 1.396 . S
C2698 C2699 1.399 . S
C2699 H2685 0.929 . S
C2699 C2698 1.399 . S
C2699 C2700 1.385 . S
C2700 H2686 0.931 . S
C2700 C2699 1.385 . S
C2700 C2701 1.389 . S
C2701 C2700 1.389 . S
C2701 C2702 1.387 . S
C2702 H2687 0.930 . S
C2702 C2697 1.390 . S
C2702 C2701 1.387 . S
H2703 C2715 0.930 . S
H2704 C2717 0.930 . S
H2705 C2718 0.930 1_655 S
H2706 C2722 0.959 . S
H2707 C2722 0.959 . S
H2708 C2722 0.961 . S
H2709 C2723 0.960 . S
H2710 C2723 0.961 . S
H2711 C2723 0.959 1_655 S
H2712 C2726 0.929 . S
H2713 C2727 0.931 . S
H2714 C2729 0.930 1_455 S
C2715 H2703 0.930 . S
C2715 C2716 1.399 . S
C2715 C2720 1.399 . S
C2716 C2715 1.399 . S
C2716 C2717 1.376 . S
C2717 H2704 0.930 . S
C2717 C2716 1.376 . S
C2717 C2718 1.388 . S
C2718 H2705 0.930 1_455 S
C2718 C2717 1.388 . S
C2718 C2719 1.390 . S
C2719 C2718 1.390 . S
C2719 C2720 1.394 . S
C2719 C2725 1.436 1_455 S
C2720 C2715 1.399 . S
C2720 C2719 1.394 . S
C2720 C2721 1.516 . S
C2721 C2720 1.516 . S
C2721 C2722 1.502 . S
C2721 C2723 1.561 . S
C2721 C2724 1.526 . S
C2722 H2706 0.959 . S
C2722 H2707 0.959 . S
C2722 H2708 0.961 . S
C2722 C2721 1.502 . S
C2723 H2709 0.960 . S
C2723 H2710 0.961 . S
C2723 H2711 0.959 1_455 S
C2723 C2721 1.561 . S
C2724 C2721 1.526 . S
C2724 C2725 1.376 1_455 S
C2724 C2729 1.390 1_455 S
C2725 C2719 1.436 1_655 S
C2725 C2724 1.376 1_655 S
C2725 C2726 1.446 . S
C2726 H2712 0.929 . S
C2726 C2725 1.446 . S
C2726 C2727 1.385 . S
C2727 H2713 0.931 . S
C2727 C2726 1.385 . S
C2727 C2728 1.389 . S
C2728 C2727 1.389 . S
C2728 C2729 1.387 . S
C2729 H2714 0.930 1_655 S
C2729 C2724 1.390 1_655 S
C2729 C2728 1.387 . S
H2730 C2742 0.930 . S
H2731 C2744 0.930 . S
H2732 C2745 0.930 . S
H2733 C2749 0.959 . S
H2734 C2749 0.959 . S
H2735 C2749 0.961 . S
H2736 C2750 0.960 . S
H2737 C2750 0.961 . S
H2738 C2750 0.959 . S
H2739 C2753 0.929 . S
H2740 C2754 0.931 . S
H2741 C2756 0.930 . S
C2742 H2730 0.930 . S
C2742 C2743 1.399 . S
C2742 C2747 1.399 . S
C2743 C2742 1.399 . S
C2743 C2744 1.376 . S
C2744 H2731 0.930 . S
C2744 C2743 1.376 . S
C2744 C2745 1.388 . S
C2745 H2732 0.930 . S
C2745 C2744 1.388 . S
C2745 C2746 1.390 . S
C2746 C2745 1.390 . S
C2746 C2747 1.394 . S
C2746 C2752 1.465 . S
C2747 C2742 1.399 . S
C2747 C2746 1.394 . S
C2747 C2748 1.516 . S
C2748 C2747 1.516 . S
C2748 C2749 1.502 . S
C2748 C2750 1.561 . S
C2748 C2751 1.526 . S
C2749 H2733 0.959 . S
C2749 H2734 0.959 . S
C2749 H2735 0.961 . S
C2749 C2748 1.502 . S
C2750 H2736 0.960 . S
C2750 H2737 0.961 . S
C2750 H2738 0.959 . S
C2750 C2748 1.561 . S
C2751 C2748 1.526 . S
C2751 C2752 1.396 . S
C2751 C2756 1.390 . S
C2752 C2746 1.465 . S
C2752 C2751 1.396 . S
C2752 C2753 1.399 . S
C2753 H2739 0.929 . S
C2753 C2752 1.399 . S
C2753 C2754 1.385 . S
C2754 H2740 0.931 . S
C2754 C2753 1.385 . S
C2754 C2755 1.389 . S
C2755 C2754 1.389 . S
C2755 C2756 1.387 . S
C2756 H2741 0.930 . S
C2756 C2751 1.390 . S
C2756 C2755 1.387 . S
H2757 C2769 0.930 . S
H2758 C2771 0.930 . S
H2759 C2772 0.930 . S
H2760 C2776 0.959 . S
H2761 C2776 0.959 . S
H2762 C2776 0.961 . S
H2763 C2777 0.960 . S
H2764 C2777 0.961 . S
H2765 C2777 0.959 1_455 S
H2766 C2780 0.929 . S
H2767 C2781 0.931 . S
H2768 C2783 0.930 . S
C2769 H2757 0.930 . S
C2769 C2770 1.399 . S
C2769 C2774 1.399 . S
C2770 C2769 1.399 . S
C2770 C2771 1.376 1_655 S
C2771 H2758 0.930 . S
C2771 C2770 1.376 1_455 S
C2771 C2772 1.388 . S
C2772 H2759 0.930 . S
C2772 C2771 1.388 . S
C2772 C2773 1.390 . S
C2773 C2772 1.390 . S
C2773 C2774 1.394 1_455 S
C2773 C2779 1.465 . S
C2774 C2769 1.399 . S
C2774 C2773 1.394 1_655 S
C2774 C2775 1.516 . S
C2775 C2774 1.516 . S
C2775 C2776 1.502 . S
C2775 C2777 1.561 . S
C2775 C2778 1.526 1_655 S
C2776 H2760 0.959 . S
C2776 H2761 0.959 . S
C2776 H2762 0.961 . S
C2776 C2775 1.502 . S
C2777 H2763 0.960 . S
C2777 H2764 0.961 . S
C2777 H2765 0.959 1_655 S
C2777 C2775 1.561 . S
C2778 C2775 1.526 1_455 S
C2778 C2779 1.396 . S
C2778 C2783 1.390 . S
C2779 C2773 1.465 . S
C2779 C2778 1.396 . S
C2779 C2780 1.399 . S
C2780 H2766 0.929 . S
C2780 C2779 1.399 . S
C2780 C2781 1.385 . S
C2781 H2767 0.931 . S
C2781 C2780 1.385 . S
C2781 C2782 1.389 . S
C2782 C2781 1.389 . S
C2782 C2783 1.387 . S
C2783 H2768 0.930 . S
C2783 C2778 1.390 . S
C2783 C2782 1.387 . S
H2784 C2796 0.930 . S
H2785 C2798 0.930 . S
H2786 C2799 0.930 . S
H2787 C2803 0.959 . S
H2788 C2803 0.959 . S
H2789 C2803 0.961 . S
H2790 C2804 0.960 . S
H2791 C2804 0.961 . S
H2792 C2804 0.959 . S
H2793 C2807 0.929 . S
H2794 C2808 0.931 . S
H2795 C2810 0.930 . S
C2796 H2784 0.930 . S
C2796 C2797 1.399 . S
C2796 C2801 1.399 . S
C2797 C2796 1.399 . S
C2797 C2798 1.376 . S
C2798 H2785 0.930 . S
C2798 C2797 1.376 . S
C2798 C2799 1.388 . S
C2799 H2786 0.930 . S
C2799 C2798 1.388 . S
C2799 C2800 1.390 . S
C2800 C2799 1.390 . S
C2800 C2801 1.394 . S
C2800 C2806 1.465 . S
C2801 C2796 1.399 . S
C2801 C2800 1.394 . S
C2801 C2802 1.516 . S
C2802 C2801 1.516 . S
C2802 C2803 1.502 . S
C2802 C2804 1.561 . S
C2802 C2805 1.526 . S
C2803 H2787 0.959 . S
C2803 H2788 0.959 . S
C2803 H2789 0.961 . S
C2803 C2802 1.502 . S
C2804 H2790 0.960 . S
C2804 H2791 0.961 . S
C2804 H2792 0.959 . S
C2804 C2802 1.561 . S
C2805 C2802 1.526 . S
C2805 C2806 1.396 . S
C2805 C2810 1.390 . S
C2806 C2800 1.465 . S
C2806 C2805 1.396 . S
C2806 C2807 1.399 . S
C2807 H2793 0.929 . S
C2807 C2806 1.399 . S
C2807 C2808 1.385 . S
C2808 H2794 0.931 . S
C2808 C2807 1.385 . S
C2808 C2809 1.389 . S
C2809 C2808 1.389 . S
C2809 C2810 1.387 . S
C2810 H2795 0.930 . S
C2810 C2805 1.390 . S
C2810 C2809 1.387 . S
H2811 C2823 0.930 . S
H2812 C2825 0.930 . S
H2813 C2826 0.930 . S
H2814 C2830 0.959 . S
H2815 C2830 0.959 . S
H2816 C2830 0.961 . S
H2817 C2831 0.960 . S
H2818 C2831 0.961 . S
H2819 C2831 0.959 . S
H2820 C2834 0.929 . S
H2821 C2835 0.931 . S
H2822 C2837 0.930 . S
C2823 H2811 0.930 . S
C2823 C2824 1.399 . S
C2823 C2828 1.399 . S
C2824 C2823 1.399 . S
C2824 C2825 1.376 . S
C2825 H2812 0.930 . S
C2825 C2824 1.376 . S
C2825 C2826 1.388 . S
C2826 H2813 0.930 . S
C2826 C2825 1.388 . S
C2826 C2827 1.390 . S
C2827 C2826 1.390 . S
C2827 C2828 1.394 . S
C2827 C2833 1.465 . S
C2828 C2823 1.399 . S
C2828 C2827 1.394 . S
C2828 C2829 1.516 . S
C2829 C2828 1.516 . S
C2829 C2830 1.502 . S
C2829 C2831 1.561 . S
C2829 C2832 1.526 . S
C2830 H2814 0.959 . S
C2830 H2815 0.959 . S
C2830 H2816 0.961 . S
C2830 C2829 1.502 . S
C2831 H2817 0.960 . S
C2831 H2818 0.961 . S
C2831 H2819 0.959 . S
C2831 C2829 1.561 . S
C2832 C2829 1.526 . S
C2832 C2833 1.396 . S
C2832 C2837 1.390 . S
C2833 C2827 1.465 . S
C2833 C2832 1.396 . S
C2833 C2834 1.399 . S
C2834 H2820 0.929 . S
C2834 C2833 1.399 . S
C2834 C2835 1.385 . S
C2835 H2821 0.931 . S
C2835 C2834 1.385 . S
C2835 C2836 1.389 . S
C2836 C2835 1.389 . S
C2836 C2837 1.387 . S
C2837 H2822 0.930 . S
C2837 C2832 1.390 . S
C2837 C2836 1.387 . S
H2838 C2850 0.930 . S
H2839 C2852 0.930 . S
H2840 C2853 0.930 . S
H2841 C2857 0.959 . S
H2842 C2857 0.959 . S
H2843 C2857 0.961 . S
H2844 C2858 0.960 . S
H2845 C2858 0.961 . S
H2846 C2858 0.959 . S
H2847 C2861 0.929 . S
H2848 C2862 0.931 . S
H2849 C2864 0.930 . S
C2850 H2838 0.930 . S
C2850 C2851 1.399 . S
C2850 C2855 1.399 . S
C2851 C2850 1.399 . S
C2851 C2852 1.376 . S
C2852 H2839 0.930 . S
C2852 C2851 1.376 . S
C2852 C2853 1.388 . S
C2853 H2840 0.930 . S
C2853 C2852 1.388 . S
C2853 C2854 1.390 . S
C2854 C2853 1.390 . S
C2854 C2855 1.394 . S
C2854 C2860 1.465 . S
C2855 C2850 1.399 . S
C2855 C2854 1.394 . S
C2855 C2856 1.516 . S
C2856 C2855 1.516 . S
C2856 C2857 1.502 . S
C2856 C2858 1.561 . S
C2856 C2859 1.526 . S
C2857 H2841 0.959 . S
C2857 H2842 0.959 . S
C2857 H2843 0.961 . S
C2857 C2856 1.502 . S
C2858 H2844 0.960 . S
C2858 H2845 0.961 . S
C2858 H2846 0.959 . S
C2858 C2856 1.561 . S
C2859 C2856 1.526 . S
C2859 C2860 1.396 . S
C2859 C2864 1.390 . S
C2860 C2854 1.465 . S
C2860 C2859 1.396 . S
C2860 C2861 1.399 . S
C2861 H2847 0.929 . S
C2861 C2860 1.399 . S
C2861 C2862 1.385 . S
C2862 H2848 0.931 . S
C2862 C2861 1.385 . S
C2862 C2863 1.389 . S
C2863 C2862 1.389 . S
C2863 C2864 1.387 . S
C2864 H2849 0.930 . S
C2864 C2859 1.390 . S
C2864 C2863 1.387 . S
H2865 C2877 0.930 . S
H2866 C2879 0.930 . S
H2867 C2880 0.930 . S
H2868 C2884 0.959 . S
H2869 C2884 0.959 . S
H2870 C2884 0.961 . S
H2871 C2885 0.960 . S
H2872 C2885 0.961 . S
H2873 C2885 0.959 . S
H2874 C2888 0.929 . S
H2875 C2889 0.931 . S
H2876 C2891 0.930 . S
C2877 H2865 0.930 . S
C2877 C2878 1.399 . S
C2877 C2882 1.399 . S
C2878 C2877 1.399 . S
C2878 C2879 1.376 . S
C2879 H2866 0.930 . S
C2879 C2878 1.376 . S
C2879 C2880 1.388 . S
C2880 H2867 0.930 . S
C2880 C2879 1.388 . S
C2880 C2881 1.390 . S
C2881 C2880 1.390 . S
C2881 C2882 1.394 . S
C2881 C2887 1.465 . S
C2882 C2877 1.399 . S
C2882 C2881 1.394 . S
C2882 C2883 1.516 . S
C2883 C2882 1.516 . S
C2883 C2884 1.502 . S
C2883 C2885 1.561 . S
C2883 C2886 1.526 . S
C2884 H2868 0.959 . S
C2884 H2869 0.959 . S
C2884 H2870 0.961 . S
C2884 C2883 1.502 . S
C2885 H2871 0.960 . S
C2885 H2872 0.961 . S
C2885 H2873 0.959 . S
C2885 C2883 1.561 . S
C2886 C2883 1.526 . S
C2886 C2887 1.396 . S
C2886 C2891 1.390 . S
C2887 C2881 1.465 . S
C2887 C2886 1.396 . S
C2887 C2888 1.399 . S
C2888 H2874 0.929 . S
C2888 C2887 1.399 . S
C2888 C2889 1.385 . S
C2889 H2875 0.931 . S
C2889 C2888 1.385 . S
C2889 C2890 1.389 . S
C2890 C2889 1.389 . S
C2890 C2891 1.387 . S
C2891 H2876 0.930 . S
C2891 C2886 1.390 . S
C2891 C2890 1.387 . S
H2892 C2904 0.930 . S
H2893 C2906 0.930 . S
H2894 C2907 0.930 . S
H2895 C2911 0.959 . S
H2896 C2911 0.959 . S
H2897 C2911 0.961 . S
H2898 C2912 0.960 . S
H2899 C2912 0.961 . S
H2900 C2912 0.959 . S
H2901 C2915 0.929 . S
H2902 C2916 0.931 . S
H2903 C2918 0.930 . S
C2904 H2892 0.930 . S
C2904 C2905 1.399 . S
C2904 C2909 1.399 . S
C2905 C2904 1.399 . S
C2905 C2906 1.376 . S
C2906 H2893 0.930 . S
C2906 C2905 1.376 . S
C2906 C2907 1.388 . S
C2907 H2894 0.930 . S
C2907 C2906 1.388 . S
C2907 C2908 1.390 . S
C2908 C2907 1.390 . S
C2908 C2909 1.394 . S
C2908 C2914 1.465 . S
C2909 C2904 1.399 . S
C2909 C2908 1.394 . S
C2909 C2910 1.516 . S
C2910 C2909 1.516 . S
C2910 C2911 1.502 . S
C2910 C2912 1.561 . S
C2910 C2913 1.526 . S
C2911 H2895 0.959 . S
C2911 H2896 0.959 . S
C2911 H2897 0.961 . S
C2911 C2910 1.502 . S
C2912 H2898 0.960 . S
C2912 H2899 0.961 . S
C2912 H2900 0.959 . S
C2912 C2910 1.561 . S
C2913 C2910 1.526 . S
C2913 C2914 1.396 . S
C2913 C2918 1.390 . S
C2914 C2908 1.465 . S
C2914 C2913 1.396 . S
C2914 C2915 1.399 . S
C2915 H2901 0.929 . S
C2915 C2914 1.399 . S
C2915 C2916 1.385 . S
C2916 H2902 0.931 . S
C2916 C2915 1.385 . S
C2916 C2917 1.389 . S
C2917 C2916 1.389 . S
C2917 C2918 1.387 . S
C2918 H2903 0.930 . S
C2918 C2913 1.390 . S
C2918 C2917 1.387 . S
H2919 C2931 0.930 . S
H2920 C2933 0.930 . S
H2921 C2934 0.930 . S
H2922 C2938 0.959 . S
H2923 C2938 0.959 . S
H2924 C2938 0.961 . S
H2925 C2939 0.960 . S
H2926 C2939 0.961 . S
H2927 C2939 0.959 . S
H2928 C2942 0.929 . S
H2929 C2943 0.931 . S
H2930 C2945 0.930 . S
C2931 H2919 0.930 . S
C2931 C2932 1.399 . S
C2931 C2936 1.399 . S
C2932 C2931 1.399 . S
C2932 C2933 1.376 . S
C2933 H2920 0.930 . S
C2933 C2932 1.376 . S
C2933 C2934 1.388 . S
C2934 H2921 0.930 . S
C2934 C2933 1.388 . S
C2934 C2935 1.390 . S
C2935 C2934 1.390 . S
C2935 C2936 1.394 . S
C2935 C2941 1.465 . S
C2936 C2931 1.399 . S
C2936 C2935 1.394 . S
C2936 C2937 1.516 . S
C2937 C2936 1.516 . S
C2937 C2938 1.502 . S
C2937 C2939 1.561 . S
C2937 C2940 1.526 . S
C2938 H2922 0.959 . S
C2938 H2923 0.959 . S
C2938 H2924 0.961 . S
C2938 C2937 1.502 . S
C2939 H2925 0.960 . S
C2939 H2926 0.961 . S
C2939 H2927 0.959 . S
C2939 C2937 1.561 . S
C2940 C2937 1.526 . S
C2940 C2941 1.396 . S
C2940 C2945 1.390 . S
C2941 C2935 1.465 . S
C2941 C2940 1.396 . S
C2941 C2942 1.399 . S
C2942 H2928 0.929 . S
C2942 C2941 1.399 . S
C2942 C2943 1.385 . S
C2943 H2929 0.931 . S
C2943 C2942 1.385 . S
C2943 C2944 1.389 . S
C2944 C2943 1.389 . S
C2944 C2945 1.387 . S
C2945 H2930 0.930 . S
C2945 C2940 1.390 . S
C2945 C2944 1.387 . S
H2946 C2958 0.930 . S
H2947 C2960 0.930 . S
H2948 C2961 0.930 . S
H2949 C2965 0.959 . S
H2950 C2965 0.959 . S
H2951 C2965 0.961 . S
H2952 C2966 0.960 . S
H2953 C2966 0.961 . S
H2954 C2966 0.959 . S
H2955 C2969 0.929 . S
H2956 C2970 0.931 . S
H2957 C2972 0.930 . S
C2958 H2946 0.930 . S
C2958 C2959 1.399 . S
C2958 C2963 1.399 . S
C2959 C2958 1.399 . S
C2959 C2960 1.376 . S
C2960 H2947 0.930 . S
C2960 C2959 1.376 . S
C2960 C2961 1.388 . S
C2961 H2948 0.930 . S
C2961 C2960 1.388 . S
C2961 C2962 1.390 . S
C2962 C2961 1.390 . S
C2962 C2963 1.394 . S
C2962 C2968 1.465 . S
C2963 C2958 1.399 . S
C2963 C2962 1.394 . S
C2963 C2964 1.516 . S
C2964 C2963 1.516 . S
C2964 C2965 1.502 . S
C2964 C2966 1.561 . S
C2964 C2967 1.526 . S
C2965 H2949 0.959 . S
C2965 H2950 0.959 . S
C2965 H2951 0.961 . S
C2965 C2964 1.502 . S
C2966 H2952 0.960 . S
C2966 H2953 0.961 . S
C2966 H2954 0.959 . S
C2966 C2964 1.561 . S
C2967 C2964 1.526 . S
C2967 C2968 1.396 . S
C2967 C2972 1.390 . S
C2968 C2962 1.465 . S
C2968 C2967 1.396 . S
C2968 C2969 1.399 . S
C2969 H2955 0.929 . S
C2969 C2968 1.399 . S
C2969 C2970 1.385 . S
C2970 H2956 0.931 . S
C2970 C2969 1.385 . S
C2970 C2971 1.389 . S
C2971 C2970 1.389 . S
C2971 C2972 1.387 . S
C2972 H2957 0.930 . S
C2972 C2967 1.390 . S
C2972 C2971 1.387 . S
H2973 C2985 0.930 . S
H2974 C2987 0.930 . S
H2975 C2988 0.930 . S
H2976 C2992 0.959 . S
H2977 C2992 0.959 . S
H2978 C2992 0.961 . S
H2979 C2993 0.960 . S
H2980 C2993 0.961 . S
H2981 C2993 0.959 . S
H2982 C2996 0.929 . S
H2983 C2997 0.931 . S
H2984 C2999 0.930 . S
C2985 H2973 0.930 . S
C2985 C2986 1.399 . S
C2985 C2990 1.399 . S
C2986 C2985 1.399 . S
C2986 C2987 1.376 . S
C2987 H2974 0.930 . S
C2987 C2986 1.376 . S
C2987 C2988 1.388 . S
C2988 H2975 0.930 . S
C2988 C2987 1.388 . S
C2988 C2989 1.390 . S
C2989 C2988 1.390 . S
C2989 C2990 1.394 . S
C2989 C2995 1.465 . S
C2990 C2985 1.399 . S
C2990 C2989 1.394 . S
C2990 C2991 1.516 . S
C2991 C2990 1.516 . S
C2991 C2992 1.502 . S
C2991 C2993 1.561 . S
C2991 C2994 1.526 . S
C2992 H2976 0.959 . S
C2992 H2977 0.959 . S
C2992 H2978 0.961 . S
C2992 C2991 1.502 . S
C2993 H2979 0.960 . S
C2993 H2980 0.961 . S
C2993 H2981 0.959 . S
C2993 C2991 1.561 . S
C2994 C2991 1.526 . S
C2994 C2995 1.396 . S
C2994 C2999 1.390 . S
C2995 C2989 1.465 . S
C2995 C2994 1.396 . S
C2995 C2996 1.399 . S
C2996 H2982 0.929 . S
C2996 C2995 1.399 . S
C2996 C2997 1.385 . S
C2997 H2983 0.931 . S
C2997 C2996 1.385 . S
C2997 C2998 1.389 . S
C2998 C2997 1.389 . S
C2998 C2999 1.387 . S
C2999 H2984 0.930 . S
C2999 C2994 1.390 . S
C2999 C2998 1.387 . S
H3000 C3012 0.930 . S
H3001 C3014 0.930 . S
H3002 C3015 0.930 . S
H3003 C3019 0.959 . S
H3004 C3019 0.959 . S
H3005 C3019 0.961 . S
H3006 C3020 0.960 . S
H3007 C3020 0.961 . S
H3008 C3020 0.959 . S
H3009 C3023 0.929 . S
H3010 C3024 0.931 . S
H3011 C3026 0.930 . S
C3012 H3000 0.930 . S
C3012 C3013 1.399 . S
C3012 C3017 1.399 . S
C3013 C3012 1.399 . S
C3013 C3014 1.376 . S
C3014 H3001 0.930 . S
C3014 C3013 1.376 . S
C3014 C3015 1.388 . S
C3015 H3002 0.930 . S
C3015 C3014 1.388 . S
C3015 C3016 1.390 . S
C3016 C3015 1.390 . S
C3016 C3017 1.394 . S
C3016 C3022 1.465 . S
C3017 C3012 1.399 . S
C3017 C3016 1.394 . S
C3017 C3018 1.516 . S
C3018 C3017 1.516 . S
C3018 C3019 1.502 . S
C3018 C3020 1.561 . S
C3018 C3021 1.526 . S
C3019 H3003 0.959 . S
C3019 H3004 0.959 . S
C3019 H3005 0.961 . S
C3019 C3018 1.502 . S
C3020 H3006 0.960 . S
C3020 H3007 0.961 . S
C3020 H3008 0.959 . S
C3020 C3018 1.561 . S
C3021 C3018 1.526 . S
C3021 C3022 1.396 . S
C3021 C3026 1.390 . S
C3022 C3016 1.465 . S
C3022 C3021 1.396 . S
C3022 C3023 1.399 . S
C3023 H3009 0.929 . S
C3023 C3022 1.399 . S
C3023 C3024 1.385 . S
C3024 H3010 0.931 . S
C3024 C3023 1.385 . S
C3024 C3025 1.389 . S
C3025 C3024 1.389 . S
C3025 C3026 1.387 . S
C3026 H3011 0.930 . S
C3026 C3021 1.390 . S
C3026 C3025 1.387 . S
H3027 C3039 0.930 . S
H3028 C3041 0.930 . S
H3029 C3042 0.930 . S
H3030 C3046 0.959 . S
H3031 C3046 0.959 . S
H3032 C3046 0.961 . S
H3033 C3047 0.960 . S
H3034 C3047 0.961 . S
H3035 C3047 0.959 . S
H3036 C3050 0.929 . S
H3037 C3051 0.931 . S
H3038 C3053 0.930 . S
C3039 H3027 0.930 . S
C3039 C3040 1.399 . S
C3039 C3044 1.399 . S
C3040 C3039 1.399 . S
C3040 C3041 1.376 . S
C3041 H3028 0.930 . S
C3041 C3040 1.376 . S
C3041 C3042 1.388 . S
C3042 H3029 0.930 . S
C3042 C3041 1.388 . S
C3042 C3043 1.390 . S
C3043 C3042 1.390 . S
C3043 C3044 1.394 . S
C3043 C3049 1.465 . S
C3044 C3039 1.399 . S
C3044 C3043 1.394 . S
C3044 C3045 1.516 . S
C3045 C3044 1.516 . S
C3045 C3046 1.502 . S
C3045 C3047 1.561 . S
C3045 C3048 1.526 . S
C3046 H3030 0.959 . S
C3046 H3031 0.959 . S
C3046 H3032 0.961 . S
C3046 C3045 1.502 . S
C3047 H3033 0.960 . S
C3047 H3034 0.961 . S
C3047 H3035 0.959 . S
C3047 C3045 1.561 . S
C3048 C3045 1.526 . S
C3048 C3049 1.396 . S
C3048 C3053 1.390 . S
C3049 C3043 1.465 . S
C3049 C3048 1.396 . S
C3049 C3050 1.399 . S
C3050 H3036 0.929 . S
C3050 C3049 1.399 . S
C3050 C3051 1.385 . S
C3051 H3037 0.931 . S
C3051 C3050 1.385 . S
C3051 C3052 1.389 . S
C3052 C3051 1.389 . S
C3052 C3053 1.387 . S
C3053 H3038 0.930 . S
C3053 C3048 1.390 . S
C3053 C3052 1.387 . S
H3054 C3066 0.930 . S
H3055 C3068 0.930 . S
H3056 C3069 0.930 . S
H3057 C3073 0.959 . S
H3058 C3073 0.959 . S
H3059 C3073 0.961 . S
H3060 C3074 0.960 . S
H3061 C3074 0.961 . S
H3062 C3074 0.959 . S
H3063 C3077 0.929 . S
H3064 C3078 0.931 . S
H3065 C3080 0.930 . S
C3066 H3054 0.930 . S
C3066 C3067 1.399 . S
C3066 C3071 1.399 . S
C3067 C3066 1.399 . S
C3067 C3068 1.376 . S
C3068 H3055 0.930 . S
C3068 C3067 1.376 . S
C3068 C3069 1.388 . S
C3069 H3056 0.930 . S
C3069 C3068 1.388 . S
C3069 C3070 1.390 . S
C3070 C3069 1.390 . S
C3070 C3071 1.394 . S
C3070 C3076 1.465 . S
C3071 C3066 1.399 . S
C3071 C3070 1.394 . S
C3071 C3072 1.516 . S
C3072 C3071 1.516 . S
C3072 C3073 1.502 . S
C3072 C3074 1.561 . S
C3072 C3075 1.526 . S
C3073 H3057 0.959 . S
C3073 H3058 0.959 . S
C3073 H3059 0.961 . S
C3073 C3072 1.502 . S
C3074 H3060 0.960 . S
C3074 H3061 0.961 . S
C3074 H3062 0.959 . S
C3074 C3072 1.561 . S
C3075 C3072 1.526 . S
C3075 C3076 1.396 . S
C3075 C3080 1.390 . S
C3076 C3070 1.465 . S
C3076 C3075 1.396 . S
C3076 C3077 1.399 . S
C3077 H3063 0.929 . S
C3077 C3076 1.399 . S
C3077 C3078 1.385 . S
C3078 H3064 0.931 . S
C3078 C3077 1.385 . S
C3078 C3079 1.389 . S
C3079 C3078 1.389 . S
C3079 C3080 1.387 . S
C3080 H3065 0.930 . S
C3080 C3075 1.390 . S
C3080 C3079 1.387 . S
H3081 C3093 0.930 . S
H3082 C3095 0.930 . S
H3083 C3096 0.930 . S
H3084 C3100 0.959 . S
H3085 C3100 0.959 . S
H3086 C3100 0.961 . S
H3087 C3101 0.960 . S
H3088 C3101 0.961 . S
H3089 C3101 0.959 . S
H3090 C3104 0.929 . S
H3091 C3105 0.931 . S
H3092 C3107 0.930 . S
C3093 H3081 0.930 . S
C3093 C3094 1.399 . S
C3093 C3098 1.399 . S
C3094 C3093 1.399 . S
C3094 C3095 1.376 . S
C3095 H3082 0.930 . S
C3095 C3094 1.376 . S
C3095 C3096 1.388 . S
C3096 H3083 0.930 . S
C3096 C3095 1.388 . S
C3096 C3097 1.390 . S
C3097 C3096 1.390 . S
C3097 C3098 1.394 . S
C3097 C3103 1.465 . S
C3098 C3093 1.399 . S
C3098 C3097 1.394 . S
C3098 C3099 1.516 . S
C3099 C3098 1.516 . S
C3099 C3100 1.502 . S
C3099 C3101 1.561 . S
C3099 C3102 1.526 . S
C3100 H3084 0.959 . S
C3100 H3085 0.959 . S
C3100 H3086 0.961 . S
C3100 C3099 1.502 . S
C3101 H3087 0.960 . S
C3101 H3088 0.961 . S
C3101 H3089 0.959 . S
C3101 C3099 1.561 . S
C3102 C3099 1.526 . S
C3102 C3103 1.396 . S
C3102 C3107 1.390 . S
C3103 C3097 1.465 . S
C3103 C3102 1.396 . S
C3103 C3104 1.399 . S
C3104 H3090 0.929 . S
C3104 C3103 1.399 . S
C3104 C3105 1.385 . S
C3105 H3091 0.931 . S
C3105 C3104 1.385 . S
C3105 C3106 1.389 . S
C3106 C3105 1.389 . S
C3106 C3107 1.387 . S
C3107 H3092 0.930 . S
C3107 C3102 1.390 . S
C3107 C3106 1.387 . S
H3108 C3120 0.930 . S
H3109 C3122 0.930 . S
H3110 C3123 0.930 . S
H3111 C3127 0.959 . S
H3112 C3127 0.959 . S
H3113 C3127 0.961 . S
H3114 C3128 0.960 . S
H3115 C3128 0.961 . S
H3116 C3128 0.959 . S
H3117 C3131 0.929 . S
H3118 C3132 0.931 . S
H3119 C3134 0.930 . S
C3120 H3108 0.930 . S
C3120 C3121 1.399 . S
C3120 C3125 1.399 . S
C3121 C3120 1.399 . S
C3121 C3122 1.376 . S
C3122 H3109 0.930 . S
C3122 C3121 1.376 . S
C3122 C3123 1.388 . S
C3123 H3110 0.930 . S
C3123 C3122 1.388 . S
C3123 C3124 1.390 . S
C3124 C3123 1.390 . S
C3124 C3125 1.394 . S
C3124 C3130 1.465 . S
C3125 C3120 1.399 . S
C3125 C3124 1.394 . S
C3125 C3126 1.516 . S
C3126 C3125 1.516 . S
C3126 C3127 1.502 . S
C3126 C3128 1.561 . S
C3126 C3129 1.526 . S
C3127 H3111 0.959 . S
C3127 H3112 0.959 . S
C3127 H3113 0.961 . S
C3127 C3126 1.502 . S
C3128 H3114 0.960 . S
C3128 H3115 0.961 . S
C3128 H3116 0.959 . S
C3128 C3126 1.561 . S
C3129 C3126 1.526 . S
C3129 C3130 1.396 . S
C3129 C3134 1.390 . S
C3130 C3124 1.465 . S
C3130 C3129 1.396 . S
C3130 C3131 1.399 . S
C3131 H3117 0.929 . S
C3131 C3130 1.399 . S
C3131 C3132 1.385 . S
C3132 H3118 0.931 . S
C3132 C3131 1.385 . S
C3132 C3133 1.389 . S
C3133 C3132 1.389 . S
C3133 C3134 1.387 . S
C3134 H3119 0.930 . S
C3134 C3129 1.390 . S
C3134 C3133 1.387 . S
H3135 C3147 0.930 . S
H3136 C3149 0.930 . S
H3137 C3150 0.930 . S
H3138 C3154 0.959 . S
H3139 C3154 0.959 . S
H3140 C3154 0.961 . S
H3141 C3155 0.960 . S
H3142 C3155 0.961 . S
H3143 C3155 0.959 . S
H3144 C3158 0.929 . S
H3145 C3159 0.931 . S
H3146 C3161 0.930 . S
C3147 H3135 0.930 . S
C3147 C3148 1.399 . S
C3147 C3152 1.399 . S
C3148 C3147 1.399 . S
C3148 C3149 1.376 . S
C3149 H3136 0.930 . S
C3149 C3148 1.376 . S
C3149 C3150 1.388 . S
C3150 H3137 0.930 . S
C3150 C3149 1.388 . S
C3150 C3151 1.390 . S
C3151 C3150 1.390 . S
C3151 C3152 1.394 . S
C3151 C3157 1.465 . S
C3152 C3147 1.399 . S
C3152 C3151 1.394 . S
C3152 C3153 1.516 . S
C3153 C3152 1.516 . S
C3153 C3154 1.502 . S
C3153 C3155 1.561 . S
C3153 C3156 1.526 . S
C3154 H3138 0.959 . S
C3154 H3139 0.959 . S
C3154 H3140 0.961 . S
C3154 C3153 1.502 . S
C3155 H3141 0.960 . S
C3155 H3142 0.961 . S
C3155 H3143 0.959 . S
C3155 C3153 1.561 . S
C3156 C3153 1.526 . S
C3156 C3157 1.396 . S
C3156 C3161 1.390 . S
C3157 C3151 1.465 . S
C3157 C3156 1.396 . S
C3157 C3158 1.399 . S
C3158 H3144 0.929 . S
C3158 C3157 1.399 . S
C3158 C3159 1.385 . S
C3159 H3145 0.931 . S
C3159 C3158 1.385 . S
C3159 C3160 1.389 . S
C3160 C3159 1.389 . S
C3160 C3161 1.387 . S
C3161 H3146 0.930 . S
C3161 C3156 1.390 . S
C3161 C3160 1.387 . S
H3162 C3174 0.930 . S
H3163 C3176 0.930 . S
H3164 C3177 0.930 . S
H3165 C3181 0.959 . S
H3166 C3181 0.959 . S
H3167 C3181 0.961 . S
H3168 C3182 0.960 . S
H3169 C3182 0.961 . S
H3170 C3182 0.959 . S
H3171 C3185 0.929 . S
H3172 C3186 0.959 . S
H3173 C3188 0.930 . S
C3174 H3162 0.930 . S
C3174 C3175 1.399 . S
C3174 C3179 1.399 . S
C3175 C3174 1.399 . S
C3175 C3176 1.376 . S
C3176 H3163 0.930 . S
C3176 C3175 1.376 . S
C3176 C3177 1.388 . S
C3177 H3164 0.930 . S
C3177 C3176 1.388 . S
C3177 C3178 1.390 . S
C3178 C3177 1.390 . S
C3178 C3179 1.394 . S
C3178 C3184 1.465 . S
C3179 C3174 1.399 . S
C3179 C3178 1.394 . S
C3179 C3180 1.516 . S
C3180 C3179 1.516 . S
C3180 C3181 1.502 . S
C3180 C3182 1.561 . S
C3180 C3183 1.526 . S
C3181 H3165 0.959 . S
C3181 H3166 0.959 . S
C3181 H3167 0.961 . S
C3181 C3180 1.502 . S
C3182 H3168 0.960 . S
C3182 H3169 0.961 . S
C3182 H3170 0.959 . S
C3182 C3180 1.561 . S
C3183 C3180 1.526 . S
C3183 C3184 1.396 . S
C3183 C3188 1.390 . S
C3184 C3178 1.465 . S
C3184 C3183 1.396 . S
C3184 C3185 1.399 . S
C3185 H3171 0.929 . S
C3185 C3184 1.399 . S
C3185 C3186 1.385 . S
C3186 H3172 0.959 . S
C3186 C3185 1.385 . S
C3186 C3187 1.389 . S
C3187 C3186 1.389 . S
C3187 C3188 1.387 . S
C3188 H3173 0.930 . S
C3188 C3183 1.390 . S
C3188 C3187 1.387 . S
H3189 C3201 0.930 . S
H3190 C3203 0.930 . S
H3191 C3204 0.930 . S
H3192 C3208 0.959 . S
H3193 C3208 0.959 . S
H3194 C3208 0.961 . S
H3195 C3209 0.960 . S
H3196 C3209 0.961 . S
H3197 C3209 0.959 . S
H3198 C3212 0.929 . S
H3199 C3213 0.931 . S
H3200 C3215 0.930 . S
C3201 H3189 0.930 . S
C3201 C3202 1.399 . S
C3201 C3206 1.399 . S
C3202 C3201 1.399 . S
C3202 C3203 1.376 . S
C3203 H3190 0.930 . S
C3203 C3202 1.376 . S
C3203 C3204 1.388 . S
C3204 H3191 0.930 . S
C3204 C3203 1.388 . S
C3204 C3205 1.390 . S
C3205 C3204 1.390 . S
C3205 C3206 1.394 . S
C3205 C3211 1.465 . S
C3206 C3201 1.399 . S
C3206 C3205 1.394 . S
C3206 C3207 1.516 . S
C3207 C3206 1.516 . S
C3207 C3208 1.502 . S
C3207 C3209 1.561 . S
C3207 C3210 1.526 . S
C3208 H3192 0.959 . S
C3208 H3193 0.959 . S
C3208 H3194 0.961 . S
C3208 C3207 1.502 . S
C3209 H3195 0.960 . S
C3209 H3196 0.961 . S
C3209 H3197 0.959 . S
C3209 C3207 1.561 . S
C3210 C3207 1.526 . S
C3210 C3211 1.396 . S
C3210 C3215 1.390 . S
C3211 C3205 1.465 . S
C3211 C3210 1.396 . S
C3211 C3212 1.399 . S
C3212 H3198 0.929 . S
C3212 C3211 1.399 . S
C3212 C3213 1.385 . S
C3213 H3199 0.931 . S
C3213 C3212 1.385 . S
C3213 C3214 1.389 . S
C3214 C3213 1.389 . S
C3214 C3215 1.387 . S
C3215 H3200 0.930 . S
C3215 C3210 1.390 . S
C3215 C3214 1.387 . S
C1069 N2 0.501 . S
C1081 N332 0.721 . S
C1096 N365 0.755 . S
C1108 N35 0.528 . S
C1123 N266 0.488 . S
C1135 N68 0.735 . S
C1150 N101 0.483 . S
C1162 N299 0.741 . S
C1177 N134 0.594 . S
C1189 N464 0.758 . S
C1204 N167 0.560 . S
C1216 N497 0.764 . S
C1231 N398 0.545 . S
C1243 N200 0.764 . S
C1258 N431 0.706 . S
C1270 N233 0.478 . S
C1285 N860 0.744 . S
C1297 N530 0.550 . S
C1312 N893 0.504 . S
C1324 N563 0.718 . S
C1339 N596 0.749 . S
C1351 N794 0.541 . S
C1366 N827 0.499 . S
C1378 N629 0.723 . S
C1393 N662 0.553 . S
C1405 N992 0.764 . S
C1420 N1025 0.676 . S
C1432 N695 0.488 . S
C1447 N728 0.527 . S
C1459 N926 0.614 . S
C1474 N761 0.566 . S
C1486 N959 0.763 . S
C1501 C7 1.811 . S
C1513 C832 1.771 . S
C1528 C40 1.817 . S
C1540 C799 1.762 . S
C1555 C73 1.810 . S
C1567 C898 1.772 . S
C1582 C106 1.811 . S
C1594 C865 1.770 . S
C1609 C139 1.812 . S
C1621 C964 1.761 . S
C1636 C172 1.809 . S
C1648 C931 1.765 . S
C1663 C1030 1.809 . S
C1675 C205 1.765 . S
C1690 C238 1.820 . S
C1702 C997 1.751 . S
C1717 C568 1.816 . S
C1729 C271 1.763 . S
C1744 C304 1.811 . S
C1756 C535 1.770 . S
C1771 C337 1.810 . S
C1783 C634 1.772 . S
C1798 C601 1.818 . S
C1810 C370 1.759 . S
C1825 C700 1.814 . S
C1837 C403 1.759 . S
C1852 C667 1.817 . S
C1864 C436 1.748 . S
C1879 C469 1.761 . S
C1891 C766 1.801 . S
C1906 C733 1.819 . S
C1918 C502 1.753 . S
C1933 N79 1.063 . S
C1945 N13 1.054 . S
C1960 N46 1.068 . S
C1972 N112 1.062 . S
C1987 N211 1.025 . S
C1999 N145 1.030 . S
C2014 N178 1.036 . S
C2026 N244 1.042 . S
C2041 N277 1.035 . S
C2053 N343 1.045 . S
C2068 N310 1.052 . S
C2080 N376 1.042 . S
C2095 N475 1.051 . S
C2107 N409 1.056 . S
C2122 N508 1.027 . S
C2134 N442 1.032 . S
C2149 N607 1.064 . S
C2161 N541 1.056 . S
C2176 N574 1.044 . S
C2188 N640 1.034 . S
C2203 N673 1.067 . S
C2215 N739 1.063 . S
C2230 N706 1.071 . S
C2242 N772 1.069 . S
C2257 N871 1.026 . S
C2269 N805 1.021 . S
C2284 N838 1.049 . S
C2296 N904 1.039 . S
C2311 N937 1.053 . S
C2323 N1003 1.048 . S
C2338 N1036 1.042 . S
C2350 N970 1.048 . S
C2365 C747 1.955 . S
C2377 C18 1.946 . S
C2392 C516 1.959 . S
C2404 C51 1.956 . S
C2419 C84 1.959 . S
C2431 C945 1.953 . S
C2446 C186 1.947 . S
C2458 C117 1.957 . S
C2473 C150 1.942 . S
C2485 C615 1.951 . S
C2500 C183 1.954 . S
C2512 C384 1.958 . S
C2527 C813 1.948 . S
C2539 C216 1.944 . S
C2554 C249 1.943 . S
C2566 C54 1.948 . S
C2581 C282 1.956 . S
C2593 C1011 1.959 . S
C2608 C252 1.954 . S
C2620 C315 1.960 . S
C2635 C348 1.955 . S
C2647 C681 1.960 . S
C2662 C381 1.958 . S
C2674 C450 1.958 . S
C2689 C879 1.958 . S
C2701 C414 1.954 . S
C2716 C447 1.945 . S
C2728 C120 1.946 . S
C2743 C549 1.957 . S
C2755 C480 1.955 . S
C2770 C318 1.959 . S
C2782 C513 1.948 . S
C2797 C219 1.956 . S
C2809 C546 1.959 . S
C2824 C579 1.947 . S
C2836 C1044 1.942 . S
C2851 C612 1.946 . S
C2863 C417 1.956 . S
C2878 C645 1.949 . S
C2890 C714 1.958 . S
C2905 C678 1.944 . S
C2917 C87 1.958 . S
C2932 C711 1.948 . S
C2944 C912 1.944 . S
C2959 C285 1.948 . S
C2971 C744 1.960 . S
C2986 C582 1.943 . S
C2998 C777 1.957 . S
C3013 C483 1.954 . S
C3025 C810 1.960 . S
C3040 C843 1.950 . S
C3052 C780 1.959 . S
C3067 C153 1.958 . S
C3079 C876 1.958 . S
C3094 C978 1.952 . S
C3106 C909 1.960 . S
C3121 C942 1.942 . S
C3133 C351 1.952 . S
C3148 C975 1.950 . S
C3160 C648 1.960 . S
C3175 C21 1.944 . S
C3187 C1008 1.958 . S
C3202 C1041 1.949 . S
C3214 C846 1.943 . S
