# Generated by pormake.
# Topology umf, (4)-cn, num edge types: 1
# Building blocks:
#     Node 0, Type 0, BuildingBlock: GALJAG_clean_sbu_0, # of connection points: 4
#     Node 1, Type 0, BuildingBlock: GALJAG_clean_sbu_0, # of connection points: 4
#     Node 2, Type 0, BuildingBlock: GALJAG_clean_sbu_0, # of connection points: 4
#     Node 3, Type 0, BuildingBlock: GALJAG_clean_sbu_0, # of connection points: 4
#     Node 4, Type 0, BuildingBlock: GALJAG_clean_sbu_0, # of connection points: 4
#     Node 5, Type 0, BuildingBlock: GALJAG_clean_sbu_0, # of connection points: 4
#     Node 6, Type 0, BuildingBlock: GALJAG_clean_sbu_0, # of connection points: 4
#     Node 7, Type 0, BuildingBlock: GALJAG_clean_sbu_0, # of connection points: 4
#     Edge 8, Type (0, 0), BuildingBlock: ZUJKAS_clean_linker_0, # of connection points: 2
#     Edge 9, Type (0, 0), BuildingBlock: ZUJKAS_clean_linker_0, # of connection points: 2
#     Edge 10, Type (0, 0), BuildingBlock: ZUJKAS_clean_linker_0, # of connection points: 2
#     Edge 11, Type (0, 0), BuildingBlock: ZUJKAS_clean_linker_0, # of connection points: 2
#     Edge 12, Type (0, 0), BuildingBlock: ZUJKAS_clean_linker_0, # of connection points: 2
#     Edge 13, Type (0, 0), BuildingBlock: ZUJKAS_clean_linker_0, # of connection points: 2
#     Edge 14, Type (0, 0), BuildingBlock: ZUJKAS_clean_linker_0, # of connection points: 2
#     Edge 15, Type (0, 0), BuildingBlock: ZUJKAS_clean_linker_0, # of connection points: 2
#     Edge 16, Type (0, 0), BuildingBlock: ZUJKAS_clean_linker_0, # of connection points: 2
#     Edge 17, Type (0, 0), BuildingBlock: ZUJKAS_clean_linker_0, # of connection points: 2
#     Edge 18, Type (0, 0), BuildingBlock: ZUJKAS_clean_linker_0, # of connection points: 2
#     Edge 19, Type (0, 0), BuildingBlock: ZUJKAS_clean_linker_0, # of connection points: 2
#     Edge 20, Type (0, 0), BuildingBlock: ZUJKAS_clean_linker_0, # of connection points: 2
#     Edge 21, Type (0, 0), BuildingBlock: ZUJKAS_clean_linker_0, # of connection points: 2
#     Edge 22, Type (0, 0), BuildingBlock: ZUJKAS_clean_linker_0, # of connection points: 2
#     Edge 23, Type (0, 0), BuildingBlock: ZUJKAS_clean_linker_0, # of connection points: 2
# Relax obj value: 0.108
# Max RMSD: 0.235
# Mean RMSD: 0.235
data_MOF--net-umf--node1-GALJAG_clean_sbu_0--edge1-ZUJKAS_clean_linker_0
_symmetry_space_group_name_H-M    P1
_symmetry_Int_Tables_number       1
_symmetry_cell_setting            triclinic
loop_
_symmetry_equiv_pos_as_xyz
'x, y, z'
_cell_length_a     36.944909
_cell_length_b     36.853154
_cell_length_c     68.749556
_cell_angle_alpha  89.954851
_cell_angle_beta   89.986978
_cell_angle_gamma 90.02376
loop_
_atom_site_label
_atom_site_type_symbol
_atom_site_fract_x
_atom_site_fract_y
_atom_site_fract_z
_atom_type_partial_charge
In0 In 0.0709 0.23487 0.14083 0.0
O1 O 0.09104 0.23527 0.10907 0.0
O2 O 0.0396 0.21197 0.11558 0.0
C3 C 0.12472 0.24914 0.16601 0.0
C4 C 0.03873 0.29972 0.13992 0.0
C5 C 0.05147 0.1712 0.15638 0.0
O6 O 0.13087 0.23307 0.15003 0.0
O7 O 0.09226 0.25838 0.16869 0.0
O8 O 0.03078 0.19862 0.15688 0.0
O9 O 0.08169 0.17631 0.14821 0.0
C10 C 0.06248 0.22027 0.10273 0.0
O11 O 0.02459 0.273 0.14872 0.0
O12 O 0.06865 0.29331 0.13171 0.0
In13 In 0.74072 0.06438 0.64648 0.0
O14 O 0.74507 0.08086 0.61427 0.0
O15 O 0.72891 0.02682 0.6216 0.0
C16 C 0.75388 0.11745 0.67211 0.0
C17 C 0.6714 0.05418 0.65577 0.0
C18 C 0.80391 0.03101 0.65174 0.0
O19 O 0.74721 0.12488 0.65441 0.0
O20 O 0.75388 0.08412 0.67631 0.0
O21 O 0.77529 0.01977 0.65998 0.0
O22 O 0.80018 0.05848 0.64089 0.0
C23 C 0.73604 0.04946 0.60834 0.0
O24 O 0.69522 0.03024 0.65917 0.0
O25 O 0.68284 0.08286 0.64776 0.0
In26 In 0.91764 0.74259 0.14205 0.0
O27 O 0.90048 0.75178 0.1102 0.0
O28 O 0.9567 0.75179 0.11765 0.0
C29 C 0.86611 0.73467 0.16902 0.0
C30 C 0.93425 0.67241 0.14162 0.0
C31 C 0.94035 0.80602 0.15617 0.0
O32 O 0.85851 0.74706 0.15222 0.0
O33 O 0.89889 0.72627 0.17167 0.0
O34 O 0.96009 0.77787 0.15707 0.0
O35 O 0.9099 0.80176 0.1481 0.0
C36 C 0.93311 0.75456 0.10444 0.0
O37 O 0.95473 0.69564 0.1497 0.0
O38 O 0.90599 0.68499 0.13367 0.0
In39 In 0.23986 0.91498 0.64149 0.0
O40 O 0.27504 0.96009 0.65373 0.0
O41 O 0.29985 0.91796 0.63687 0.0
C42 C 0.17195 0.92854 0.65275 0.0
C43 C 0.23502 0.93268 0.60363 0.0
C44 C 0.25106 0.85808 0.66517 0.0
O45 O 0.19819 0.94796 0.65844 0.0
O46 O 0.18027 0.90276 0.64152 0.0
O47 O 0.23966 0.85342 0.64794 0.0
O48 O 0.25705 0.89057 0.66984 0.0
C49 C 0.3038 0.94686 0.64657 0.0
O50 O 0.24308 0.90064 0.60892 0.0
O51 O 0.22906 0.9546 0.61735 0.0
In52 In 0.06495 0.75218 0.86717 0.0
O53 O 0.08293 0.75906 0.89903 0.0
O54 O 0.02654 0.76049 0.89196 0.0
C55 C 0.1153 0.74483 0.83952 0.0
C56 C 0.04551 0.6827 0.86649 0.0
C57 C 0.04471 0.81777 0.85497 0.0
O58 O 0.12414 0.75254 0.85693 0.0
O59 O 0.08177 0.74067 0.8366 0.0
O60 O 0.02419 0.79036 0.85301 0.0
O61 O 0.07478 0.81173 0.86316 0.0
C62 C 0.05049 0.76206 0.90505 0.0
O63 O 0.0255 0.70727 0.85925 0.0
O64 O 0.07481 0.69358 0.87403 0.0
In65 In 0.25082 0.0791 0.36836 0.0
O66 O 0.2472 0.09591 0.40061 0.0
O67 O 0.2493 0.03964 0.39309 0.0
C68 C 0.25375 0.13163 0.34153 0.0
C69 C 0.31978 0.06003 0.36435 0.0
C70 C 0.1847 0.05603 0.35881 0.0
O71 O 0.24708 0.13908 0.35924 0.0
O72 O 0.25889 0.09844 0.3379 0.0
O73 O 0.21269 0.03752 0.35485 0.0
O74 O 0.19049 0.08569 0.3675 0.0
C75 C 0.24763 0.06313 0.40642 0.0
O76 O 0.29425 0.04031 0.35794 0.0
O77 O 0.31017 0.08907 0.37272 0.0
In78 In 0.90781 0.24357 0.87173 0.0
O79 O 0.88829 0.24248 0.90364 0.0
O80 O 0.93985 0.22016 0.89661 0.0
C81 C 0.85222 0.25568 0.84729 0.0
C82 C 0.93758 0.30962 0.87235 0.0
C83 C 0.93048 0.18195 0.85514 0.0
O84 O 0.84792 0.23767 0.86284 0.0
O85 O 0.88367 0.26799 0.8447 0.0
O86 O 0.95007 0.21018 0.85547 0.0
O87 O 0.89972 0.18527 0.86296 0.0
C88 C 0.91708 0.22753 0.90966 0.0
O89 O 0.95213 0.28356 0.86323 0.0
O90 O 0.90857 0.30193 0.88118 0.0
In91 In 0.75388 0.91274 0.3723 0.0
O92 O 0.75252 0.89352 0.40423 0.0
O93 O 0.76429 0.94901 0.39789 0.0
C94 C 0.74642 0.85947 0.346 0.0
C95 C 0.68753 0.94028 0.36884 0.0
C96 C 0.82048 0.9326 0.36147 0.0
O97 O 0.7556 0.85245 0.36341 0.0
O98 O 0.74081 0.89256 0.34241 0.0
O99 O 0.79311 0.95232 0.35805 0.0
O100 O 0.81392 0.90317 0.37024 0.0
C101 C 0.75965 0.92499 0.41073 0.0
O102 O 0.71502 0.95658 0.36208 0.0
O103 O 0.69388 0.91047 0.3773 0.0
H104 H 0.97581 0.32232 0.15722 0.0
H105 H 0.95086 0.38411 0.15734 0.0
H106 H 0.04095 0.42096 0.12261 0.0
H107 H 0.0656 0.35969 0.12217 0.0
H108 H 0.98363 0.4467 0.17161 0.0
H109 H 0.95401 0.46071 0.09304 0.0
H110 H 0.9625 0.41733 0.10438 0.0
H111 H -0.00037 0.44628 0.09751 0.0
C112 C 0.99002 0.34359 0.14946 0.0
C113 C 0.02253 0.33623 0.13962 0.0
C114 C 0.9758 0.37877 0.14956 0.0
C115 C -0.0062 0.40686 0.13971 0.0
C116 C 0.02622 0.39948 0.12991 0.0
H117 H -0.00608 0.63787 0.15616 0.0
H118 H 0.00569 0.57244 0.15648 0.0
C119 C 0.04037 0.36448 0.12978 0.0
C120 C 0.98 0.44444 0.14036 0.0
H121 H 0.95789 0.51606 0.1113 0.0
C122 C 0.97751 0.4618 0.15847 0.0
C123 C 0.97162 0.46384 0.1232 0.0
C124 C 0.9717 0.44597 0.10346 0.0
C125 C 0.96831 0.49863 0.15979 0.0
C126 C 0.96218 0.51858 0.14253 0.0
C127 C 0.96316 0.5008 0.1245 0.0
C128 C 0.95493 0.55801 0.14275 0.0
C129 C 0.96525 0.5158 0.17964 0.0
C130 C 0.92302 0.57151 0.13446 0.0
C131 C 0.91649 0.60876 0.13403 0.0
C132 C 0.94181 0.63316 0.14188 0.0
C133 C 0.97388 0.61964 0.1501 0.0
C134 C 0.98048 0.58231 0.15043 0.0
H135 H 0.9603 0.49514 0.19112 0.0
H136 H 0.991 0.52986 0.18314 0.0
H137 H 0.94304 0.53607 0.18005 0.0
H138 H 0.9031 0.55319 0.12834 0.0
H139 H 0.8915 0.61839 0.12761 0.0
H140 H 0.36766 0.9231 0.63193 0.0
H141 H 0.42771 0.94865 0.63717 0.0
H142 H 0.38179 0.03283 0.67306 0.0
H143 H 0.32115 0.0071 0.668 0.0
H144 H 0.45003 0.0209 0.62796 0.0
H145 H 0.46467 0.98694 0.70656 0.0
H146 H 0.43155 0.96514 0.69117 0.0
H147 H 0.42444 0.01086 0.69921 0.0
C148 C 0.37024 0.94703 0.64096 0.0
C149 C 0.33976 0.96312 0.64959 0.0
C150 C 0.40456 0.96156 0.64393 0.0
C151 C 0.40907 0.99234 0.65563 0.0
C152 C 0.37876 0.00874 0.6642 0.0
H153 H 0.61744 0.10398 0.65273 0.0
H154 H 0.55233 0.09314 0.65522 0.0
C155 C 0.34423 0.99417 0.66121 0.0
C156 C 0.44575 0.00727 0.6583 0.0
H157 H 0.51453 0.0147 0.69118 0.0
C158 C 0.46407 0.02002 0.64181 0.0
C159 C 0.46381 0.00564 0.67639 0.0
C160 C 0.44535 0.99123 0.69439 0.0
C161 C 0.50049 0.03028 0.64277 0.0
C162 C 0.51876 0.02829 0.66082 0.0
C163 C 0.50022 0.01635 0.67744 0.0
C164 C 0.55779 0.03619 0.66225 0.0
C165 C 0.51954 0.04162 0.6243 0.0
C166 C 0.58226 0.00806 0.66626 0.0
C167 C 0.61949 0.01418 0.66496 0.0
C168 C 0.63261 0.04852 0.6596 0.0
C169 C 0.60803 0.07711 0.65666 0.0
C170 C 0.57089 0.07101 0.65806 0.0
H171 H 0.50364 0.0346 0.61111 0.0
H172 H 0.52364 0.07144 0.62442 0.0
H173 H 0.54653 0.02851 0.62321 0.0
H174 H 0.57252 0.98101 0.66955 0.0
H175 H 0.63787 0.99173 0.66739 0.0
H176 H 0.90894 0.36887 0.89 0.0
H177 H 0.93025 0.4314 0.88815 0.0
H178 H 0.02013 0.39744 0.85248 0.0
H179 H -0.00148 0.33452 0.85397 0.0
H180 H -0.0046 0.46089 0.89971 0.0
H181 H 0.97315 0.47854 0.82028 0.0
H182 H 0.95455 0.44087 0.83378 0.0
H183 H 0.00147 0.44088 0.8269 0.0
C184 C 0.93329 0.37463 0.88177 0.0
C185 C 0.952 0.34688 0.87203 0.0
C186 C 0.94541 0.41037 0.88075 0.0
C187 C 0.97641 0.41904 0.86995 0.0
C188 C -0.00427 0.39131 0.86057 0.0
H189 H 0.08709 0.6261 0.87835 0.0
H190 H 0.07117 0.56184 0.8787 0.0
C191 C 0.98352 0.35543 0.86154 0.0
C192 C 0.98824 0.45725 0.86869 0.0
H193 H 8e-05 0.52765 0.83705 0.0
C194 C -0.00346 0.47551 0.88602 0.0
C195 C 0.98912 0.47623 0.85081 0.0
C196 C 0.97881 0.45831 0.83188 0.0
C197 C 0.00574 0.51238 0.88597 0.0
C198 C 0.00734 0.5312 0.86806 0.0
C199 C -0.001 0.51298 0.85072 0.0
C200 C 0.01735 0.56995 0.86708 0.0
C201 C 0.01277 0.53105 0.90514 0.0
C202 C 0.99272 0.5956 0.85984 0.0
C203 C 0.00185 0.63241 0.85946 0.0
C204 C 0.03577 0.64394 0.8663 0.0
C205 C 0.0606 0.61804 0.87317 0.0
C206 C 0.05153 0.58134 0.87345 0.0
H207 H 0.00126 0.51556 0.91756 0.0
H208 H 0.04241 0.53335 0.90744 0.0
H209 H 0.00111 0.55882 0.90524 0.0
H210 H 0.96626 0.5872 0.85476 0.0
H211 H 0.98228 0.6518 0.85403 0.0
H212 H 0.34792 -0.0029 0.34976 0.0
H213 H 0.41185 0.97931 0.34885 0.0
H214 H 0.44188 0.0824 0.37375 0.0
H215 H 0.37824 0.10018 0.37498 0.0
H216 H 0.47311 0.01352 0.33101 0.0
H217 H 0.48417 0.00651 0.41157 0.0
H218 H 0.44118 0.00836 0.39915 0.0
H219 H 0.46758 0.0489 0.40224 0.0
C220 C 0.36819 0.01599 0.35496 0.0
C221 C 0.35816 0.04984 0.36263 0.0
C222 C 0.4046 0.00585 0.35438 0.0
C223 C 0.43134 0.0294 0.36149 0.0
C224 C 0.42149 0.06367 0.36852 0.0
H225 H 0.66571 0.00333 0.35134 0.0
H226 H 0.6036 0.0264 0.34865 0.0
C227 C 0.38517 0.07377 0.36916 0.0
C228 C 0.46946 0.01768 0.36218 0.0
H229 H 0.53817 -0.0015 0.39364 0.0
C230 C 0.48745 0.01024 0.34466 0.0
C231 C 0.48776 0.01318 0.38008 0.0
C232 C 0.46918 0.01933 0.39936 0.0
C233 C 0.52355 -0.00156 0.34458 0.0
C234 C 0.54196 -0.00552 0.36247 0.0
C235 C 0.52393 0.00192 0.37996 0.0
C236 C 0.57936 0.98069 0.36354 0.0
C237 C 0.54142 0.98944 0.32545 0.0
C238 C 0.58611 0.94776 0.37306 0.0
C239 C 0.62133 0.93472 0.37472 0.0
C240 C 0.65046 0.95448 0.36694 0.0
C241 C 0.64371 0.98754 0.35741 0.0
C242 C 0.60832 0.00061 0.35577 0.0
H243 H 0.52142 0.98693 0.31346 0.0
H244 H 0.56075 0.01135 0.3216 0.0
H245 H 0.55687 0.96368 0.32657 0.0
H246 H 0.56404 0.93212 0.37921 0.0
H247 H 0.62571 0.90916 0.38214 0.0
H248 H 0.96047 0.17554 0.92471 0.0
H249 H 0.98371 0.17137 0.95787 0.0
H250 H 0.92019 0.26488 0.97405 0.0
H251 H 0.89545 0.26792 0.94097 0.0
H252 H 0.02484 0.21792 0.97535 0.0
H253 H 0.9008 0.20165 0.01973 0.0
H254 H 0.90044 0.19728 0.99361 0.0
H255 H 0.89936 0.24148 1.00476 0.0
C256 C 0.95073 0.19461 0.9355 0.0
C257 C 0.92596 0.22187 0.93036 0.0
C258 C 0.96421 0.19236 0.95442 0.0
C259 C 0.95366 0.21767 0.96858 0.0
C260 C 0.92813 0.24445 0.96359 0.0
H261 H 0.08448 0.26266 0.07224 0.0
H262 H 0.05983 0.26207 0.03912 0.0
C263 C 0.91401 0.24623 0.94467 0.0
C264 C 0.97146 0.21727 0.98803 0.0
H265 H 0.95498 0.21575 0.03687 0.0
C266 C 0.00951 0.21718 0.98881 0.0
C267 C 0.9516 0.21604 1.00562 0.0
C268 C 0.91082 0.21374 1.00593 0.0
C269 C 0.02821 0.21576 1.00659 0.0
C270 C 0.00836 0.21574 0.02419 0.0
C271 C 0.9703 0.21595 0.02341 0.0
C272 C 0.02616 0.21461 0.04362 0.0
C273 C 0.06898 0.21322 1.00622 0.0
C274 C 0.01551 0.1883 0.05725 0.0
C275 C 0.02896 0.18913 0.07621 0.0
C276 C 0.0538 0.21595 0.08191 0.0
C277 C 0.06588 0.24129 0.0681 0.0
C278 C 0.0518 0.24091 0.04916 0.0
H279 H 0.07891 0.20212 0.99218 0.0
H280 H 0.08064 0.24078 0.00796 0.0
H281 H 0.07923 0.19578 0.01819 0.0
H282 H -0.00408 0.16765 0.05338 0.0
H283 H 0.01911 0.16934 0.08662 0.0
H284 H 0.75984 0.08795 0.57648 0.0
H285 H 0.76327 0.0664 0.54267 0.0
H286 H 0.71619 0.96428 0.55999 0.0
H287 H 0.71233 0.98555 0.59347 0.0
H288 H 0.80151 0.00473 0.52943 0.0
H289 H 0.6551 0.99239 0.51282 0.0
H290 H 0.67188 0.01834 0.53318 0.0
H291 H 0.66848 0.96975 0.5348 0.0
C292 C 0.74974 0.06114 0.57298 0.0
C293 C 0.73571 0.03852 0.58762 0.0
C294 C 0.75182 0.04882 0.55371 0.0
C295 C 0.73955 0.01389 0.54878 0.0
C296 C 0.72514 0.99156 0.56336 0.0
H297 H 0.7376 0.88403 0.4421 0.0
H298 H 0.73475 0.90355 0.47631 0.0
C299 C 0.72314 0.00375 0.58253 0.0
C300 C 0.74347 -0.00021 0.52866 0.0
H301 H 0.69575 0.96481 0.49044 0.0
C302 C 0.77839 -0.00376 0.52084 0.0
C303 C 0.71328 0.98832 0.51757 0.0
C304 C 0.67503 0.99265 0.52492 0.0
C305 C 0.78397 0.98115 0.50232 0.0
C306 C 0.75378 0.96982 0.49121 0.0
C307 C 0.71887 0.97321 0.49906 0.0
C308 C 0.75763 0.9567 0.47091 0.0
C309 C 0.82219 0.97696 0.49493 0.0
C310 C 0.77142 0.98004 0.45662 0.0
C311 C 0.77301 0.96904 0.43723 0.0
C312 C 0.76072 0.93445 0.43165 0.0
C313 C 0.74749 0.91072 0.446 0.0
C314 C 0.74574 0.92189 0.46549 0.0
H315 H 0.84214 0.97692 0.50702 0.0
H316 H 0.82531 0.95147 0.48648 0.0
H317 H 0.82875 9e-05 0.4852 0.0
H318 H 0.7801 0.00723 0.46037 0.0
H319 H 0.78326 0.98804 0.42653 0.0
H320 H 0.88978 0.75762 0.07179 0.0
H321 H 0.90993 0.76173 0.0377 0.0
H322 H 0.02101 0.766 0.05674 0.0
H323 H 0.00139 0.76187 0.09049 0.0
H324 H 0.95647 0.8171 0.01907 0.0
H325 H 0.01706 0.67916 0.01815 0.0
H326 H 0.98453 0.69318 0.03626 0.0
H327 H 0.03092 0.70739 0.03811 0.0
C328 C 0.91844 0.75961 0.06867 0.0
C329 C 0.94396 0.75917 0.08383 0.0
C330 C 0.92991 0.76194 0.04923 0.0
C331 C 0.96701 0.76357 0.04473 0.0
C332 C 0.99233 0.76412 0.05988 0.0
H333 H 0.09449 0.76109 0.93743 0.0
H334 H 0.07531 0.76423 0.97167 0.0
C335 C 0.98098 0.76189 0.07918 0.0
C336 C 0.9797 0.76446 0.02426 0.0
H337 H 0.02922 0.71679 0.99099 0.0
C338 C 0.97219 0.79512 0.01286 0.0
C339 C 0.00054 0.73589 0.0163 0.0
C340 C 0.00857 0.70187 0.02774 0.0
C341 C 0.98541 0.79819 0.99375 0.0
C342 C 0.00605 0.76947 0.98572 0.0
C343 C 0.01363 0.73888 0.99718 0.0
C344 C 0.01824 0.76964 0.96512 0.0
C345 C 0.97771 0.83247 0.98247 0.0
C346 C 0.99259 0.7714 0.95013 0.0
C347 C 0.00343 0.76968 0.93072 0.0
C348 C 0.04021 0.76584 0.92579 0.0
C349 C 0.06602 0.76423 0.94078 0.0
C350 C 0.05507 0.76596 0.96031 0.0
H351 H 0.97183 0.85562 0.99232 0.0
H352 H 0.00087 0.83988 0.97297 0.0
H353 H 0.95358 0.82815 0.97315 0.0
H354 H 0.96399 0.77331 0.95345 0.0
H355 H 0.98277 0.77079 0.91956 0.0
H356 H 0.23614 0.10541 0.43896 0.0
H357 H 0.23407 0.08471 0.47305 0.0
H358 H 0.25494 0.97506 0.45436 0.0
H359 H 0.25697 -0.0048 0.42064 0.0
H360 H 0.18628 0.02714 0.48895 0.0
H361 H 0.33246 -0.00454 0.49705 0.0
H362 H 0.3154 0.02547 0.47839 0.0
H363 H 0.31147 0.97716 0.47561 0.0
C364 C 0.24044 0.07696 0.44219 0.0
C365 C 0.24677 0.05198 0.42712 0.0
C366 C 0.23921 0.06518 0.46161 0.0
C367 C 0.24482 0.02842 0.46619 0.0
C368 C 0.2511 0.0036 0.45116 0.0
H369 H 0.25142 0.89393 0.57054 0.0
H370 H 0.25207 0.91664 0.53688 0.0
C371 C 0.25207 0.01521 0.43187 0.0
C372 C 0.24312 0.01528 0.48656 0.0
H373 H 0.29328 0.97358 0.52182 0.0
C374 C 0.20971 0.01575 0.49624 0.0
C375 C 0.27364 1e-05 0.49589 0.0
C376 C 0.31039 -0.00033 0.48631 0.0
C377 C 0.20583 0.00064 0.51491 0.0
C378 C 0.23639 0.98535 0.52427 0.0
C379 C 0.26984 0.98508 0.51459 0.0
C380 C 0.23458 0.9709 0.54443 0.0
C381 C 0.16883 0.00035 0.52421 0.0
C382 C 0.22477 0.99386 0.55978 0.0
C383 C 0.22429 0.98099 0.57887 0.0
C384 C 0.23391 0.94489 0.5831 0.0
C385 C 0.24368 0.92178 0.56772 0.0
C386 C 0.24415 0.93475 0.54853 0.0
H387 H 0.14699 0.00295 0.51319 0.0
H388 H 0.16436 0.97504 0.53265 0.0
H389 H 0.16657 0.0237 0.53432 0.0
H390 H 0.21811 0.02203 0.55706 0.0
H391 H 0.21685 -0.00038 0.59038 0.0
H392 H 0.18386 0.20645 0.17319 0.0
H393 H 0.21666 0.20242 0.20419 0.0
H394 H 0.15791 0.29517 0.22569 0.0
H395 H 0.12456 0.29876 0.19505 0.0
H396 H 0.25789 0.25046 0.22997 0.0
H397 H 0.12395 0.20959 0.25999 0.0
H398 H 0.13249 0.21234 0.23421 0.0
H399 H 0.12525 0.25298 0.2481 0.0
C400 C 0.17886 0.22666 0.1843 0.0
C401 C 0.15138 0.25259 0.18188 0.0
C402 C 0.19752 0.22431 0.20201 0.0
C403 C 0.18908 0.24803 0.21735 0.0
C404 C 0.16432 0.27622 0.21415 0.0
H405 H 0.22159 0.19891 0.34088 0.0
H406 H 0.21102 0.23668 0.31192 0.0
C407 C 0.1454 0.27829 0.19662 0.0
C408 C 0.20216 0.24026 0.2373 0.0
H409 H 0.17297 0.20969 0.28148 0.0
C410 C 0.23936 0.2419 0.24132 0.0
C411 C 0.17786 0.22921 0.2521 0.0
C412 C 0.13769 0.22559 0.24845 0.0
C413 C 0.25296 0.23207 0.25969 0.0
C414 C 0.22875 0.21972 0.27423 0.0
C415 C 0.19147 0.21949 0.2704 0.0
C416 C 0.24134 0.202 0.29241 0.0
C417 C 0.29315 0.23457 0.26326 0.0
C418 C 0.26244 0.17049 0.29113 0.0
C419 C 0.2683 0.14901 0.30752 0.0
C420 C 0.25305 0.15844 0.32555 0.0
C421 C 0.23379 0.19113 0.32718 0.0
C422 C 0.22772 0.21265 0.31066 0.0
H423 H 0.30561 0.25618 0.25417 0.0
H424 H 0.2992 0.24018 0.27879 0.0
H425 H 0.30602 0.20845 0.2592 0.0
H426 H 0.27249 0.16116 0.27721 0.0
H427 H 0.28335 0.12399 0.30583 0.0
H428 H 0.84496 0.30871 0.82028 0.0
H429 H 0.81438 0.30338 0.78892 0.0
H430 H 0.77154 0.19929 0.80624 0.0
H431 H 0.80098 0.20531 0.83792 0.0
H432 H 0.83635 0.25319 0.76521 0.0
H433 H 0.68906 0.23526 0.77386 0.0
H434 H 0.71704 0.25375 0.793 0.0
H435 H 0.71293 0.20534 0.78991 0.0
C436 C 0.82768 0.28545 0.81769 0.0
C437 C 0.82536 0.25735 0.83145 0.0
C438 C 0.81029 0.28238 0.79974 0.0
C439 C 0.79061 0.25095 0.79512 0.0
C440 C 0.78583 0.2242 0.80952 0.0
H441 H 0.79175 0.10723 0.70507 0.0
H442 H 0.79839 0.1485 0.73248 0.0
C443 C 0.80277 0.22757 0.82766 0.0
C444 C 0.78145 0.24296 0.7745 0.0
H445 H 0.71634 0.20549 0.7455 0.0
C446 C 0.80973 0.24386 0.76081 0.0
C447 C 0.74678 0.23093 0.76857 0.0
C448 C 0.71468 0.23165 0.78211 0.0
C449 C 0.80504 0.2304 0.74193 0.0
C450 C 0.77136 0.21538 0.73661 0.0
C451 C 0.74224 0.21696 0.74969 0.0
C452 C 0.76816 0.19217 0.71918 0.0
C453 C 0.83679 0.23017 0.72813 0.0
C454 C 0.7493 0.20339 0.70248 0.0
C455 C 0.74585 0.17983 0.68652 0.0
C456 C 0.76066 0.14472 0.68737 0.0
C457 C 0.77997 0.13409 0.70403 0.0
C458 C 0.78378 0.15759 0.71971 0.0
H459 H 0.85775 0.25023 0.73246 0.0
H460 H 0.84933 0.20281 0.72819 0.0
H461 H 0.82784 0.23619 0.71305 0.0
H462 H 0.73706 0.23006 0.70189 0.0
H463 H 0.73058 0.18849 0.6739 0.0
H464 H 0.71296 0.86632 0.31121 0.0
H465 H 0.72216 0.82942 0.28232 0.0
H466 H 0.78804 0.75514 0.31547 0.0
H467 H 0.77919 0.7926 0.34465 0.0
H468 H 0.82317 0.78375 0.28436 0.0
H469 H 0.68991 0.73361 0.25976 0.0
H470 H 0.68891 0.78131 0.26484 0.0
H471 H 0.69767 0.74964 0.28424 0.0
C472 C 0.72859 0.84156 0.31252 0.0
C473 C 0.74562 0.83245 0.33015 0.0
C474 C 0.73352 0.82025 0.29599 0.0
C475 C 0.75546 0.78926 0.29672 0.0
C476 C 0.77071 0.7788 0.31463 0.0
H477 H 0.86773 0.68844 0.19953 0.0
H478 H 0.83587 0.69513 0.23046 0.0
C479 C 0.76561 0.80013 0.33129 0.0
C480 C 0.76723 0.77202 0.27827 0.0
H481 H 0.73618 0.73905 0.23487 0.0
C482 C 0.80422 0.77319 0.27372 0.0
C483 C 0.74242 0.75877 0.26426 0.0
C484 C 0.70255 0.75542 0.2686 0.0
C485 C 0.81694 0.76315 0.25529 0.0
C486 C 0.79206 0.75082 0.24109 0.0
C487 C 0.75515 0.74859 0.24576 0.0
C488 C 0.80435 0.74145 0.2212 0.0
C489 C 0.85677 0.76747 0.25088 0.0
C490 C 0.79531 0.76376 0.20534 0.0
C491 C 0.81316 0.75963 0.18747 0.0
C492 C 0.84039 0.73335 0.18541 0.0
C493 C 0.84705 0.70915 0.20081 0.0
C494 C 0.82896 0.71297 0.21849 0.0
H495 H 0.87073 0.78463 0.26184 0.0
H496 H 0.86987 0.74038 0.25093 0.0
H497 H 0.86085 0.77977 0.23629 0.0
H498 H 0.77629 0.78586 0.20716 0.0
H499 H 0.80769 0.77872 0.17584 0.0
H500 H 0.29929 0.85319 0.69451 0.0
H501 H 0.29168 0.81883 0.72461 0.0
H502 H 0.19714 0.76673 0.7006 0.0
H503 H 0.20546 0.80039 0.67015 0.0
H504 H 0.23196 0.83347 0.74501 0.0
H505 H 0.23936 0.68519 0.73322 0.0
H506 H 0.25814 0.71753 0.7162 0.0
H507 H 0.21046 0.70753 0.71599 0.0
C508 C 0.27784 0.83318 0.69536 0.0
C509 C 0.25289 0.82941 0.68008 0.0
C510 C 0.27346 0.81363 0.71258 0.0
C511 C 0.24382 0.79022 0.71493 0.0
C512 C 0.22063 0.78407 0.69903 0.0
H513 H 0.10127 0.72267 0.80272 0.0
H514 H 0.13952 0.72936 0.77414 0.0
C515 C 0.22534 0.80334 0.68162 0.0
C516 C 0.23337 0.77825 0.7348 0.0
H517 H 0.20678 0.70506 0.76174 0.0
C518 C 0.22723 0.80528 0.74881 0.0
C519 C 0.22694 0.74155 0.73969 0.0
C520 C 0.2344 0.71125 0.72553 0.0
C521 C 0.21305 0.79694 0.76718 0.0
C522 C 0.20547 0.76034 0.7719 0.0
C523 C 0.21286 0.73307 0.75816 0.0
C524 C 0.18546 0.75073 0.78991 0.0
C525 C 0.20417 0.82769 0.7809 0.0
C526 C 0.19905 0.75923 0.80847 0.0
C527 C 0.17697 0.75573 0.82497 0.0
C528 C 0.14113 0.74346 0.82308 0.0
C529 C 0.12864 0.7326 0.80466 0.0
C530 C 0.15056 0.73619 0.78827 0.0
H531 H 0.20533 0.85456 0.77357 0.0
H532 H 0.17672 0.82416 0.7872 0.0
H533 H 0.22399 0.82791 0.79301 0.0
H534 H 0.22619 0.76991 0.8101 0.0
H535 H 0.18739 0.76405 0.839 0.0
H536 H 0.09278 0.11022 0.15803 0.0
H537 H 0.07248 0.04839 0.16481 0.0
H538 H 0.96506 0.0881 0.17695 0.0
H539 H 0.9851 0.15025 0.17004 0.0
H540 H 0.03478 0.01368 0.1978 0.0
H541 H 0.95566 0.019 0.1289 0.0
H542 H 0.99036 0.05176 0.13464 0.0
H543 H 0.94688 0.05446 0.14621 0.0
C544 C 0.06495 0.1059 0.16244 0.0
C545 C 0.04035 0.13495 0.16326 0.0
C546 C 0.05349 0.07059 0.1664 0.0
C547 C 0.01725 0.06378 0.17115 0.0
C548 C -0.00691 0.09293 0.17313 0.0
H549 H 0.89725 0.86316 0.16471 0.0
H550 H 0.91575 0.92518 0.17207 0.0
C551 C 0.00457 0.12834 0.1692 0.0
C552 C 0.00415 0.02596 0.17198 0.0
H553 H 0.9537 0.96473 0.14664 0.0
C554 C 0.01681 0.0029 0.18674 0.0
C555 C 0.98103 0.01211 0.1574 0.0
C556 C 0.96781 0.03542 0.14077 0.0
C557 C 0.0066 0.96617 0.18738 0.0
C558 C 0.98381 0.95225 0.17264 0.0
C559 C 0.97102 0.97551 0.158 0.0
C560 C 0.97316 0.91356 0.1716 0.0
C561 C 0.01999 0.94277 0.20388 0.0
C562 C -0.00068 0.8862 0.16937 0.0
C563 C 0.98875 0.85049 0.16535 0.0
C564 C 0.95194 0.84196 0.16314 0.0
C565 C 0.92585 0.86908 0.16617 0.0
C566 C 0.93636 0.90449 0.17042 0.0
H567 H 0.02788 0.95938 0.21668 0.0
H568 H -0.00094 0.92289 0.20845 0.0
H569 H 0.04424 0.92752 0.19901 0.0
H570 H 0.02788 0.89273 0.16979 0.0
H571 H 0.00936 0.83007 0.16297 0.0
H572 H 0.1121 0.90145 0.6353 0.0
H573 H 0.04917 0.91643 0.64199 0.0
H574 H 0.08271 0.98568 0.68929 0.0
H575 H 0.1463 0.97199 0.68199 0.0
H576 H 0.00524 0.90843 0.67228 0.0
H577 H 0.02534 0.05542 0.65706 0.0
H578 H 0.06004 0.02225 0.65238 0.0
H579 H 0.05177 0.03772 0.67679 0.0
C580 C 0.10612 0.91981 0.64717 0.0
C581 C 0.13403 0.93599 0.65796 0.0
C582 C 0.07011 0.92822 0.65104 0.0
C583 C 0.06123 0.95263 0.66594 0.0
C584 C 0.089 0.9675 0.67741 0.0
H585 H 0.82646 0.99082 0.68297 0.0
H586 H 0.88853 0.97058 0.68979 0.0
C587 C 0.12524 0.95958 0.67328 0.0
C588 C 0.02296 0.96365 0.66842 0.0
H589 H 0.96631 0.03613 0.66366 0.0
C590 C -0.00335 0.9364 0.67059 0.0
C591 C 0.01192 0.00017 0.66613 0.0
C592 C 0.03864 0.03058 0.6628 0.0
C593 C 0.95956 0.94436 0.66946 0.0
C594 C 0.94862 0.98075 0.66671 0.0
C595 C 0.97488 0.00823 0.66571 0.0
C596 C 0.91058 0.99083 0.66267 0.0
C597 C 0.93265 0.91356 0.67005 0.0
C598 C 0.90249 0.00904 0.64528 0.0
C599 C 0.8675 0.02114 0.64158 0.0
C600 C 0.83975 0.01487 0.6551 0.0
C601 C 0.84741 -0.0044 0.67225 0.0
C602 C 0.88276 0.98398 0.67612 0.0
H603 H 0.9459 0.88678 0.66797 0.0
H604 H 0.91896 0.91332 0.68441 0.0
H605 H 0.91164 0.91699 0.65864 0.0
H606 H 0.92349 0.01444 0.63465 0.0
H607 H 0.86226 0.03583 0.62822 0.0
H608 H 0.89114 0.12019 0.8507 0.0
H609 H 0.91403 0.05934 0.8439 0.0
H610 H 0.0217 0.10253 0.8367 0.0
H611 H -0.00099 0.16375 0.84361 0.0
H612 H 0.95774 0.02735 0.81209 0.0
H613 H 0.02555 0.03151 0.88444 0.0
H614 H 0.99084 0.06349 0.8776 0.0
H615 H 0.03574 0.06794 0.86791 0.0
C616 C 0.9196 0.11687 0.84734 0.0
C617 C 0.94343 0.14659 0.84794 0.0
C618 C 0.93256 0.08212 0.84337 0.0
C619 C 0.96953 0.07654 0.84004 0.0
C620 C -0.00693 0.10642 0.83941 0.0
H621 H 0.08925 0.8756 0.8504 0.0
H622 H 0.07236 0.9382 0.8433 0.0
C623 C 0.98009 0.14129 0.84332 0.0
C624 C 0.98371 0.03912 0.83939 0.0
H625 H 0.03035 0.97763 0.86663 0.0
C626 C 0.97392 0.01643 0.82388 0.0
C627 C 0.00453 0.02511 0.85491 0.0
C628 C 0.01467 0.04806 0.87226 0.0
C629 C 0.98459 0.97985 0.82347 0.0
C630 C 0.0048 0.96565 0.83921 0.0
C631 C 0.01496 0.98861 0.85455 0.0
C632 C 0.01509 0.9269 0.84058 0.0
C633 C 0.97435 0.95689 0.80618 0.0
C634 C 0.98854 0.89961 0.84109 0.0
C635 C -0.0018 0.86361 0.84498 0.0
C636 C 0.03445 0.85463 0.84877 0.0
C637 C 0.06104 0.88181 0.84768 0.0
C638 C 0.05146 0.91757 0.84357 0.0
H639 H 0.96903 0.97384 0.79312 0.0
H640 H -0.00405 0.93701 0.80266 0.0
H641 H 0.94921 0.94166 0.80957 0.0
H642 H 0.9602 0.90632 0.83929 0.0
H643 H 0.97718 0.84317 0.84584 0.0
H644 H 0.88231 0.89467 0.36814 0.0
H645 H 0.94455 0.91519 0.36321 0.0
H646 H 0.90546 0.01584 0.33913 0.0
H647 H 0.84278 -0.00443 0.34405 0.0
H648 H 0.97173 0.97318 0.31946 0.0
H649 H 0.97987 0.00702 0.39834 0.0
H650 H 0.96069 0.96378 0.39179 0.0
H651 H 0.9373 0.00475 0.38548 0.0
C652 C 0.88689 0.92099 0.36156 0.0
C653 C 0.85773 0.94371 0.35663 0.0
C654 C 0.92242 0.93257 0.35872 0.0
C655 C 0.92933 0.96694 0.35087 0.0
C656 C 0.90042 0.98913 0.34515 0.0
H657 H 0.12259 0.09418 0.36364 0.0
H658 H 0.06066 0.07283 0.35924 0.0
C659 C 0.86476 0.97759 0.34803 0.0
C660 C 0.96668 0.98084 0.35037 0.0
H661 H 0.03317 0.01339 0.37992 0.0
C662 C 0.98529 0.98209 0.3326 0.0
C663 C 0.98389 0.9925 0.36759 0.0
C664 C 0.96452 0.99225 0.38692 0.0
C665 C 0.0212 -0.00543 0.33169 0.0
C666 C 0.03859 0.00571 0.349 0.0
C667 C 0.01972 0.00469 0.36669 0.0
C668 C 0.07615 0.0194 0.34926 0.0
C669 C 0.04008 -0.00375 0.31226 0.0
C670 C 0.10534 -0.00354 0.34486 0.0
C671 C 0.14093 0.00861 0.34736 0.0
C672 C 0.14763 0.04375 0.35443 0.0
C673 C 0.11828 0.0669 0.35826 0.0
C674 C 0.08288 0.0548 0.35572 0.0
H675 H 0.02069 0.9941 0.29996 0.0
H676 H 0.05556 0.02195 0.31078 0.0
H677 H 0.05953 0.97341 0.31117 0.0
H678 H 0.10062 0.96881 0.34018 0.0
H679 H 0.16307 0.9902 0.34435 0.0
loop_
_geom_bond_atom_site_label_1
_geom_bond_atom_site_label_2
_geom_bond_distance
_geom_bond_site_symmetry_2
_ccdc_geom_bond_type
In0 O1 2.294 . S
In0 O2 2.326 . S
In0 O6 2.266 . S
In0 O7 2.326 . S
In0 O8 2.266 . S
In0 O9 2.326 . S
In0 O11 2.294 . S
In0 O12 2.326 . S
O1 In0 2.294 . S
O1 C10 1.240 . S
O2 In0 2.326 . S
O2 C10 1.252 . S
C3 O6 1.252 . S
C3 O7 1.260 . S
C4 O11 1.240 . S
C4 O12 1.252 . S
C5 O8 1.252 . S
C5 O9 1.260 . S
O6 In0 2.266 . S
O6 C3 1.252 . S
O7 In0 2.326 . S
O7 C3 1.260 . S
O8 In0 2.266 . S
O8 C5 1.252 . S
O9 In0 2.326 . S
O9 C5 1.260 . S
C10 O1 1.240 . S
C10 O2 1.252 . S
O11 In0 2.294 . S
O11 C4 1.240 . S
O12 In0 2.326 . S
O12 C4 1.252 . S
In13 O14 2.294 . S
In13 O15 2.326 . S
In13 O19 2.266 . S
In13 O20 2.326 . S
In13 O21 2.266 . S
In13 O22 2.326 . S
In13 O24 2.294 . S
In13 O25 2.326 . S
O14 In13 2.294 . S
O14 C23 1.240 . S
O15 In13 2.326 . S
O15 C23 1.252 . S
C16 O19 1.252 . S
C16 O20 1.260 . S
C17 O24 1.240 . S
C17 O25 1.252 . S
C18 O21 1.252 . S
C18 O22 1.260 . S
O19 In13 2.266 . S
O19 C16 1.252 . S
O20 In13 2.326 . S
O20 C16 1.260 . S
O21 In13 2.266 . S
O21 C18 1.252 . S
O22 In13 2.326 . S
O22 C18 1.260 . S
C23 O14 1.240 . S
C23 O15 1.252 . S
O24 In13 2.294 . S
O24 C17 1.240 . S
O25 In13 2.326 . S
O25 C17 1.252 . S
In26 O27 2.294 . S
In26 O28 2.326 . S
In26 O32 2.266 . S
In26 O33 2.326 . S
In26 O34 2.266 . S
In26 O35 2.326 . S
In26 O37 2.294 . S
In26 O38 2.326 . S
O27 In26 2.294 . S
O27 C36 1.240 . S
O28 In26 2.326 . S
O28 C36 1.252 . S
C29 O32 1.252 . S
C29 O33 1.260 . S
C30 O37 1.240 . S
C30 O38 1.252 . S
C31 O34 1.252 . S
C31 O35 1.260 . S
O32 In26 2.266 . S
O32 C29 1.252 . S
O33 In26 2.326 . S
O33 C29 1.260 . S
O34 In26 2.266 . S
O34 C31 1.252 . S
O35 In26 2.326 . S
O35 C31 1.260 . S
C36 O27 1.240 . S
C36 O28 1.252 . S
O37 In26 2.294 . S
O37 C30 1.240 . S
O38 In26 2.326 . S
O38 C30 1.252 . S
In39 O40 2.294 . S
In39 O41 2.326 . S
In39 O45 2.266 . S
In39 O46 2.326 . S
In39 O47 2.266 . S
In39 O48 2.326 . S
In39 O50 2.294 . S
In39 O51 2.326 . S
O40 In39 2.294 . S
O40 C49 1.240 . S
O41 In39 2.326 . S
O41 C49 1.252 . S
C42 O45 1.252 . S
C42 O46 1.260 . S
C43 O50 1.240 . S
C43 O51 1.252 . S
C44 O47 1.252 . S
C44 O48 1.260 . S
O45 In39 2.266 . S
O45 C42 1.252 . S
O46 In39 2.326 . S
O46 C42 1.260 . S
O47 In39 2.266 . S
O47 C44 1.252 . S
O48 In39 2.326 . S
O48 C44 1.260 . S
C49 O40 1.240 . S
C49 O41 1.252 . S
O50 In39 2.294 . S
O50 C43 1.240 . S
O51 In39 2.326 . S
O51 C43 1.252 . S
In52 O53 2.294 . S
In52 O54 2.326 . S
In52 O58 2.266 . S
In52 O59 2.326 . S
In52 O60 2.266 . S
In52 O61 2.326 . S
In52 O63 2.294 . S
In52 O64 2.326 . S
O53 In52 2.294 . S
O53 C62 1.240 . S
O54 In52 2.326 . S
O54 C62 1.252 . S
C55 O58 1.252 . S
C55 O59 1.260 . S
C56 O63 1.240 . S
C56 O64 1.252 . S
C57 O60 1.252 . S
C57 O61 1.260 . S
O58 In52 2.266 . S
O58 C55 1.252 . S
O59 In52 2.326 . S
O59 C55 1.260 . S
O60 In52 2.266 . S
O60 C57 1.252 . S
O61 In52 2.326 . S
O61 C57 1.260 . S
C62 O53 1.240 . S
C62 O54 1.252 . S
O63 In52 2.294 . S
O63 C56 1.240 . S
O64 In52 2.326 . S
O64 C56 1.252 . S
In65 O66 2.294 . S
In65 O67 2.326 . S
In65 O71 2.266 . S
In65 O72 2.326 . S
In65 O73 2.266 . S
In65 O74 2.326 . S
In65 O76 2.294 . S
In65 O77 2.326 . S
O66 In65 2.294 . S
O66 C75 1.240 . S
O67 In65 2.326 . S
O67 C75 1.252 . S
C68 O71 1.252 . S
C68 O72 1.260 . S
C69 O76 1.240 . S
C69 O77 1.252 . S
C70 O73 1.252 . S
C70 O74 1.260 . S
O71 In65 2.266 . S
O71 C68 1.252 . S
O72 In65 2.326 . S
O72 C68 1.260 . S
O73 In65 2.266 . S
O73 C70 1.252 . S
O74 In65 2.326 . S
O74 C70 1.260 . S
C75 O66 1.240 . S
C75 O67 1.252 . S
O76 In65 2.294 . S
O76 C69 1.240 . S
O77 In65 2.326 . S
O77 C69 1.252 . S
In78 O79 2.294 . S
In78 O80 2.326 . S
In78 O84 2.266 . S
In78 O85 2.326 . S
In78 O86 2.266 . S
In78 O87 2.326 . S
In78 O89 2.294 . S
In78 O90 2.326 . S
O79 In78 2.294 . S
O79 C88 1.240 . S
O80 In78 2.326 . S
O80 C88 1.252 . S
C81 O84 1.252 . S
C81 O85 1.260 . S
C82 O89 1.240 . S
C82 O90 1.252 . S
C83 O86 1.252 . S
C83 O87 1.260 . S
O84 In78 2.266 . S
O84 C81 1.252 . S
O85 In78 2.326 . S
O85 C81 1.260 . S
O86 In78 2.266 . S
O86 C83 1.252 . S
O87 In78 2.326 . S
O87 C83 1.260 . S
C88 O79 1.240 . S
C88 O80 1.252 . S
O89 In78 2.294 . S
O89 C82 1.240 . S
O90 In78 2.326 . S
O90 C82 1.252 . S
In91 O92 2.294 . S
In91 O93 2.326 . S
In91 O97 2.266 . S
In91 O98 2.326 . S
In91 O99 2.266 . S
In91 O100 2.326 . S
In91 O102 2.294 . S
In91 O103 2.326 . S
O92 In91 2.294 . S
O92 C101 1.240 . S
O93 In91 2.326 . S
O93 C101 1.252 . S
C94 O97 1.252 . S
C94 O98 1.260 . S
C95 O102 1.240 . S
C95 O103 1.252 . S
C96 O99 1.252 . S
C96 O100 1.260 . S
O97 In91 2.266 . S
O97 C94 1.252 . S
O98 In91 2.326 . S
O98 C94 1.260 . S
O99 In91 2.266 . S
O99 C96 1.252 . S
O100 In91 2.326 . S
O100 C96 1.260 . S
C101 O92 1.240 . S
C101 O93 1.252 . S
O102 In91 2.294 . S
O102 C95 1.240 . S
O103 In91 2.326 . S
O103 C95 1.252 . S
H104 C112 0.929 . S
H105 C114 0.930 1_655 S
H106 C116 0.930 . S
H107 C119 0.929 . S
H108 C122 0.930 . S
H109 C124 0.960 . S
H110 C124 0.960 . S
H111 C124 0.960 . S
C112 H104 0.929 . S
C112 C113 1.377 . S
C112 C114 1.384 . S
C113 C112 1.377 . S
C113 C119 1.390 . S
C114 H105 0.930 1_455 S
C114 C112 1.384 . S
C114 C115 1.372 . S
C115 C114 1.372 . S
C115 C116 1.400 . S
C115 C120 1.490 . S
C116 H106 0.930 . S
C116 C115 1.400 . S
C116 C119 1.386 . S
H117 C133 0.930 . S
H118 C134 0.931 . S
C119 H107 0.929 . S
C119 C113 1.390 . S
C119 C116 1.386 . S
C120 C115 1.490 . S
C120 C122 1.395 1_455 S
C120 C123 1.403 . S
H121 C127 0.930 . S
C122 H108 0.930 . S
C122 C120 1.395 1_655 S
C122 C125 1.403 . S
C123 C120 1.403 . S
C123 C124 1.524 . S
C123 C127 1.400 . S
C124 H109 0.960 . S
C124 H110 0.960 . S
C124 H111 0.960 . S
C124 C123 1.524 . S
C125 C122 1.403 . S
C125 C126 1.392 . S
C125 C129 1.495 . S
C126 C125 1.392 . S
C126 C127 1.385 1_655 S
C126 C128 1.478 . S
C127 H121 0.930 . S
C127 C123 1.400 . S
C127 C126 1.385 1_455 S
C128 C126 1.478 . S
C128 C130 1.381 . S
C128 C134 1.383 . S
C129 C125 1.495 . S
C129 H135 0.959 . S
C129 H136 0.961 . S
C129 H137 0.960 . S
C130 C128 1.381 . S
C130 C131 1.394 . S
C130 H138 0.930 . S
C131 C130 1.394 . S
C131 C132 1.383 . S
C131 H139 0.929 . S
C132 C131 1.383 . S
C132 C133 1.377 . S
C133 H117 0.930 . S
C133 C132 1.377 . S
C133 C134 1.379 . S
C134 H118 0.931 . S
C134 C128 1.383 . S
C134 C133 1.379 . S
H135 C129 0.959 . S
H136 C129 0.961 . S
H137 C129 0.960 . S
H138 C130 0.930 . S
H139 C131 0.929 . S
H140 C148 0.929 . S
H141 C150 0.930 . S
H142 C152 0.930 . S
H143 C155 0.929 1_545 S
H144 C158 0.930 . S
H145 C160 0.960 . S
H146 C160 0.960 . S
H147 C160 0.960 . S
C148 H140 0.929 . S
C148 C149 1.377 . S
C148 C150 1.384 . S
C149 C148 1.377 . S
C149 C155 1.390 . S
C150 H141 0.930 . S
C150 C148 1.384 . S
C150 C151 1.372 . S
C151 C150 1.372 . S
C151 C152 1.400 1_565 S
C151 C156 1.490 . S
C152 H142 0.930 . S
C152 C151 1.400 1_545 S
C152 C155 1.386 1_545 S
H153 C169 0.930 . S
H154 C170 0.931 . S
C155 H143 0.929 1_565 S
C155 C149 1.390 . S
C155 C152 1.386 1_565 S
C156 C151 1.490 . S
C156 C158 1.395 . S
C156 C159 1.403 1_565 S
H157 C163 0.930 . S
C158 H144 0.930 . S
C158 C156 1.395 . S
C158 C161 1.403 . S
C159 C156 1.403 1_545 S
C159 C160 1.524 . S
C159 C163 1.400 . S
C160 H145 0.960 . S
C160 H146 0.960 . S
C160 H147 0.960 . S
C160 C159 1.524 . S
C161 C158 1.403 . S
C161 C162 1.392 1_565 S
C161 C165 1.495 . S
C162 C161 1.392 1_545 S
C162 C163 1.385 . S
C162 C164 1.478 . S
C163 H157 0.930 . S
C163 C159 1.400 . S
C163 C162 1.385 . S
C164 C162 1.478 . S
C164 C166 1.381 1_545 S
C164 C170 1.383 . S
C165 C161 1.495 . S
C165 H171 0.959 . S
C165 H172 0.961 . S
C165 H173 0.960 . S
C166 C164 1.381 1_565 S
C166 C167 1.390 1_565 S
C166 H174 0.930 . S
C167 C166 1.390 1_545 S
C167 C168 1.398 . S
C167 H175 0.920 1_545 S
C168 C167 1.398 . S
C168 C169 1.377 . S
C169 H153 0.930 . S
C169 C168 1.377 . S
C169 C170 1.379 . S
C170 H154 0.931 . S
C170 C164 1.383 . S
C170 C169 1.379 . S
H171 C165 0.959 . S
H172 C165 0.961 . S
H173 C165 0.960 . S
H174 C166 0.930 . S
H175 C167 0.920 1_565 S
H176 C184 0.929 . S
H177 C186 0.930 . S
H178 C188 0.930 1_455 S
H179 C191 0.929 . S
H180 C194 0.930 . S
H181 C196 0.960 . S
H182 C196 0.960 . S
H183 C196 0.960 . S
C184 H176 0.929 . S
C184 C185 1.377 . S
C184 C186 1.384 . S
C185 C184 1.377 . S
C185 C191 1.390 . S
C186 H177 0.930 . S
C186 C184 1.384 . S
C186 C187 1.372 . S
C187 C186 1.372 . S
C187 C188 1.400 . S
C187 C192 1.490 . S
C188 H178 0.930 1_655 S
C188 C187 1.400 . S
C188 C191 1.386 . S
H189 C205 0.930 . S
H190 C206 0.931 . S
C191 H179 0.929 . S
C191 C185 1.390 . S
C191 C188 1.386 . S
C192 C187 1.490 . S
C192 C194 1.395 1_655 S
C192 C195 1.403 . S
H193 C199 0.930 . S
C194 H180 0.930 . S
C194 C192 1.395 1_455 S
C194 C197 1.403 . S
C195 C192 1.403 . S
C195 C196 1.524 . S
C195 C199 1.400 . S
C196 H181 0.960 . S
C196 H182 0.960 . S
C196 H183 0.960 . S
C196 C195 1.524 . S
C197 C194 1.403 . S
C197 C198 1.392 . S
C197 C201 1.495 . S
C198 C197 1.392 . S
C198 C199 1.385 1_455 S
C198 C200 1.478 . S
C199 H193 0.930 . S
C199 C195 1.400 . S
C199 C198 1.385 1_655 S
C200 C198 1.478 . S
C200 C202 1.381 . S
C200 C206 1.383 . S
C201 C197 1.495 . S
C201 H207 0.959 . S
C201 H208 0.961 . S
C201 H209 0.960 . S
C202 C200 1.381 . S
C202 C203 1.394 . S
C202 H210 0.930 1_455 S
C203 C202 1.394 . S
C203 C204 1.383 . S
C203 H211 0.929 . S
C204 C203 1.383 . S
C204 C205 1.377 . S
C205 H189 0.930 . S
C205 C204 1.377 . S
C205 C206 1.379 . S
C206 H190 0.931 . S
C206 C200 1.383 . S
C206 C205 1.379 . S
H207 C201 0.959 . S
H208 C201 0.961 . S
H209 C201 0.960 . S
H210 C202 0.930 1_655 S
H211 C203 0.929 . S
H212 C220 0.921 1_565 S
H213 C222 0.913 1_565 S
H214 C224 0.930 . S
H215 C227 0.929 . S
H216 C230 0.930 . S
H217 C232 0.960 . S
H218 C232 0.960 . S
H219 C232 0.960 . S
C220 H212 0.921 1_545 S
C220 C221 1.377 . S
C220 C222 1.390 . S
C221 C220 1.377 . S
C221 C227 1.390 . S
C222 H213 0.913 1_545 S
C222 C220 1.390 . S
C222 C223 1.383 . S
C223 C222 1.383 . S
C223 C224 1.400 . S
C223 C228 1.490 . S
C224 H214 0.930 . S
C224 C223 1.400 . S
C224 C227 1.386 . S
H225 C241 0.930 . S
H226 C242 0.931 1_545 S
C227 H215 0.929 . S
C227 C221 1.390 . S
C227 C224 1.386 . S
C228 C223 1.490 . S
C228 C230 1.395 1_545 S
C228 C231 1.403 . S
H229 C235 0.930 . S
C230 H216 0.930 . S
C230 C228 1.395 1_565 S
C230 C233 1.403 . S
C231 C228 1.403 . S
C231 C232 1.524 . S
C231 C235 1.400 . S
C232 H217 0.960 . S
C232 H218 0.960 . S
C232 H219 0.960 . S
C232 C231 1.524 . S
C233 C230 1.403 . S
C233 C234 1.392 . S
C233 C237 1.495 . S
C234 C233 1.392 . S
C234 C235 1.385 1_565 S
C234 C236 1.478 . S
C235 H229 0.930 . S
C235 C231 1.400 . S
C235 C234 1.385 1_545 S
C236 C234 1.478 . S
C236 C238 1.381 . S
C236 C242 1.383 . S
C237 C233 1.495 . S
C237 H243 0.959 . S
C237 H244 0.961 . S
C237 H245 0.960 . S
C238 C236 1.381 . S
C238 C239 1.394 . S
C238 H246 0.930 . S
C239 C238 1.394 . S
C239 C240 1.383 . S
C239 H247 0.929 . S
C240 C239 1.383 . S
C240 C241 1.377 . S
C241 H225 0.930 . S
C241 C240 1.377 . S
C241 C242 1.379 . S
C242 H226 0.931 1_565 S
C242 C236 1.383 . S
C242 C241 1.379 . S
H243 C237 0.959 . S
H244 C237 0.961 . S
H245 C237 0.960 . S
H246 C238 0.930 . S
H247 C239 0.929 . S
H248 C256 0.929 . S
H249 C258 0.930 . S
H250 C260 0.930 . S
H251 C263 0.929 . S
H252 C266 0.930 . S
H253 C268 0.960 1_554 S
H254 C268 0.960 . S
H255 C268 0.960 . S
C256 H248 0.929 . S
C256 C257 1.377 . S
C256 C258 1.384 . S
C257 C256 1.377 . S
C257 C263 1.390 . S
C258 H249 0.930 . S
C258 C256 1.384 . S
C258 C259 1.372 . S
C259 C258 1.372 . S
C259 C260 1.400 . S
C259 C264 1.490 . S
C260 H250 0.930 . S
C260 C259 1.400 . S
C260 C263 1.386 . S
H261 C277 0.930 . S
H262 C278 0.931 . S
C263 H251 0.929 . S
C263 C257 1.390 . S
C263 C260 1.386 . S
C264 C259 1.490 . S
C264 C266 1.395 1_655 S
C264 C267 1.403 . S
H265 C271 0.930 . S
C266 H252 0.930 . S
C266 C264 1.395 1_455 S
C266 C269 1.403 1_556 S
C267 C264 1.403 . S
C267 C268 1.524 . S
C267 C271 1.400 1_556 S
C268 H253 0.960 1_556 S
C268 H254 0.960 . S
C268 H255 0.960 . S
C268 C267 1.524 . S
C269 C266 1.403 1_554 S
C269 C270 1.392 . S
C269 C273 1.495 . S
C270 C269 1.392 . S
C270 C271 1.385 1_455 S
C270 C272 1.478 . S
C271 H265 0.930 . S
C271 C267 1.400 1_554 S
C271 C270 1.385 1_655 S
C272 C270 1.478 . S
C272 C274 1.381 . S
C272 C278 1.383 . S
C273 C269 1.495 . S
C273 H279 0.959 1_554 S
C273 H280 0.961 . S
C273 H281 0.960 . S
C274 C272 1.381 . S
C274 C275 1.394 . S
C274 H282 0.930 . S
C275 C274 1.394 . S
C275 C276 1.383 . S
C275 H283 0.929 . S
C276 C275 1.383 . S
C276 C277 1.377 . S
C277 H261 0.930 . S
C277 C276 1.377 . S
C277 C278 1.379 . S
C278 H262 0.931 . S
C278 C272 1.383 . S
C278 C277 1.379 . S
H279 C273 0.959 1_556 S
H280 C273 0.961 . S
H281 C273 0.960 . S
H282 C274 0.930 . S
H283 C275 0.929 . S
H284 C292 0.929 . S
H285 C294 0.930 . S
H286 C296 0.930 1_565 S
H287 C299 0.929 . S
H288 C302 0.930 . S
H289 C304 0.960 1_565 S
H290 C304 0.960 . S
H291 C304 0.960 1_565 S
C292 H284 0.929 . S
C292 C293 1.377 . S
C292 C294 1.384 . S
C293 C292 1.377 . S
C293 C299 1.390 . S
C294 H285 0.930 . S
C294 C292 1.384 . S
C294 C295 1.372 . S
C295 C294 1.372 . S
C295 C296 1.400 . S
C295 C300 1.490 . S
C296 H286 0.930 1_545 S
C296 C295 1.400 . S
C296 C299 1.386 . S
H297 C313 0.930 . S
H298 C314 0.931 . S
C299 H287 0.929 . S
C299 C293 1.390 . S
C299 C296 1.386 . S
C300 C295 1.490 . S
C300 C302 1.395 . S
C300 C303 1.403 . S
H301 C307 0.930 . S
C302 H288 0.930 . S
C302 C300 1.395 . S
C302 C305 1.391 1_545 S
C303 C300 1.403 . S
C303 C304 1.524 . S
C303 C307 1.400 1_545 S
C304 H289 0.960 1_545 S
C304 H290 0.960 . S
C304 H291 0.960 1_545 S
C304 C303 1.524 . S
C305 C302 1.391 1_565 S
C305 C306 1.404 . S
C305 C309 1.498 . S
C306 C305 1.404 . S
C306 C307 1.385 . S
C306 C308 1.478 . S
C307 H301 0.930 . S
C307 C303 1.400 1_565 S
C307 C306 1.385 . S
C308 C306 1.478 . S
C308 C310 1.381 . S
C308 C314 1.383 . S
C309 C305 1.498 . S
C309 H315 0.959 1_565 S
C309 H316 0.961 . S
C309 H317 0.960 1_565 S
C310 C308 1.381 . S
C310 C311 1.394 . S
C310 H318 0.930 1_565 S
C311 C310 1.394 . S
C311 C312 1.383 . S
C311 H319 0.929 . S
C312 C311 1.383 . S
C312 C313 1.377 . S
C313 H297 0.930 . S
C313 C312 1.377 . S
C313 C314 1.379 . S
C314 H298 0.931 . S
C314 C308 1.383 . S
C314 C313 1.379 . S
H315 C309 0.959 1_545 S
H316 C309 0.961 . S
H317 C309 0.960 1_545 S
H318 C310 0.930 1_545 S
H319 C311 0.929 . S
H320 C328 0.929 . S
H321 C330 0.930 . S
H322 C332 0.930 1_455 S
H323 C335 0.929 . S
H324 C338 0.930 . S
H325 C340 0.960 1_455 S
H326 C340 0.960 . S
H327 C340 0.960 1_455 S
C328 H320 0.929 . S
C328 C329 1.377 . S
C328 C330 1.384 . S
C329 C328 1.377 . S
C329 C335 1.390 . S
C330 H321 0.930 . S
C330 C328 1.384 . S
C330 C331 1.372 . S
C331 C330 1.372 . S
C331 C332 1.400 . S
C331 C336 1.490 . S
C332 H322 0.930 1_655 S
C332 C331 1.400 . S
C332 C335 1.386 . S
H333 C349 0.930 . S
H334 C350 0.931 . S
C335 H323 0.929 . S
C335 C329 1.390 . S
C335 C332 1.386 . S
C336 C331 1.490 . S
C336 C338 1.395 . S
C336 C339 1.403 . S
H337 C343 0.930 . S
C338 H324 0.930 . S
C338 C336 1.395 . S
C338 C341 1.391 1_654 S
C339 C336 1.403 . S
C339 C340 1.524 . S
C339 C343 1.400 1_654 S
C340 H325 0.960 1_655 S
C340 H326 0.960 . S
C340 H327 0.960 1_655 S
C340 C339 1.524 . S
C341 C338 1.391 1_456 S
C341 C342 1.403 . S
C341 C345 1.498 . S
C342 C341 1.403 . S
C342 C343 1.385 . S
C342 C344 1.478 . S
C343 H337 0.930 . S
C343 C339 1.400 1_456 S
C343 C342 1.385 . S
C344 C342 1.478 . S
C344 C346 1.381 . S
C344 C350 1.383 . S
C345 C341 1.498 . S
C345 H351 0.959 1_455 S
C345 H352 0.961 . S
C345 H353 0.960 1_455 S
C346 C344 1.381 . S
C346 C347 1.394 . S
C346 H354 0.930 1_455 S
C347 C346 1.394 . S
C347 C348 1.383 . S
C347 H355 0.929 . S
C348 C347 1.383 . S
C348 C349 1.377 . S
C349 H333 0.930 . S
C349 C348 1.377 . S
C349 C350 1.379 . S
C350 H334 0.931 . S
C350 C344 1.383 . S
C350 C349 1.379 . S
H351 C345 0.959 1_655 S
H352 C345 0.961 . S
H353 C345 0.960 1_655 S
H354 C346 0.930 1_655 S
H355 C347 0.929 . S
H356 C364 0.929 . S
H357 C366 0.930 . S
H358 C368 0.930 . S
H359 C371 0.929 . S
H360 C374 0.930 . S
H361 C376 0.960 . S
H362 C376 0.960 . S
H363 C376 0.960 . S
C364 H356 0.929 . S
C364 C365 1.377 . S
C364 C366 1.384 . S
C365 C364 1.377 . S
C365 C371 1.390 . S
C366 H357 0.930 . S
C366 C364 1.384 . S
C366 C367 1.372 . S
C367 C366 1.372 . S
C367 C368 1.400 . S
C367 C372 1.490 . S
C368 H358 0.930 . S
C368 C367 1.400 . S
C368 C371 1.386 . S
H369 C385 0.930 . S
H370 C386 0.931 . S
C371 H359 0.929 . S
C371 C365 1.390 . S
C371 C368 1.386 . S
C372 C367 1.490 . S
C372 C374 1.395 1_545 S
C372 C375 1.403 . S
H373 C379 0.931 . S
C374 H360 0.930 . S
C374 C372 1.395 1_565 S
C374 C377 1.403 . S
C375 C372 1.403 . S
C375 C376 1.524 . S
C375 C379 1.409 . S
C376 H361 0.960 . S
C376 H362 0.960 . S
C376 H363 0.960 . S
C376 C375 1.524 . S
C377 C374 1.403 . S
C377 C378 1.392 . S
C377 C381 1.495 . S
C378 C377 1.392 . S
C378 C379 1.376 1_565 S
C378 C380 1.478 . S
C379 H373 0.931 . S
C379 C375 1.409 . S
C379 C378 1.376 1_545 S
C380 C378 1.478 . S
C380 C382 1.381 . S
C380 C386 1.383 . S
C381 C377 1.495 . S
C381 H387 0.959 . S
C381 H388 0.961 . S
C381 H389 0.960 . S
C382 C380 1.381 . S
C382 C383 1.394 . S
C382 H390 0.930 . S
C383 C382 1.394 . S
C383 C384 1.383 . S
C383 H391 0.929 . S
C384 C383 1.383 . S
C384 C385 1.377 . S
C385 H369 0.930 . S
C385 C384 1.377 . S
C385 C386 1.379 . S
C386 H370 0.931 . S
C386 C380 1.383 . S
C386 C385 1.379 . S
H387 C381 0.959 . S
H388 C381 0.961 . S
H389 C381 0.960 . S
H390 C382 0.930 . S
H391 C383 0.929 . S
H392 C400 0.929 . S
H393 C402 0.930 . S
H394 C404 0.930 . S
H395 C407 0.929 . S
H396 C410 0.930 . S
H397 C412 0.960 . S
H398 C412 0.960 . S
H399 C412 0.960 . S
C400 H392 0.929 . S
C400 C401 1.377 . S
C400 C402 1.384 . S
C401 C400 1.377 . S
C401 C407 1.390 . S
C402 H393 0.930 . S
C402 C400 1.384 . S
C402 C403 1.372 . S
C403 C402 1.372 . S
C403 C404 1.400 . S
C403 C408 1.490 . S
C404 H394 0.930 . S
C404 C403 1.400 . S
C404 C407 1.386 . S
H405 C421 0.930 . S
H406 C422 0.931 . S
C407 H395 0.929 . S
C407 C401 1.390 . S
C407 C404 1.386 . S
C408 C403 1.490 . S
C408 C410 1.395 . S
C408 C411 1.403 . S
H409 C415 0.930 . S
C410 H396 0.930 . S
C410 C408 1.395 . S
C410 C413 1.403 . S
C411 C408 1.403 . S
C411 C412 1.524 . S
C411 C415 1.400 . S
C412 H397 0.960 . S
C412 H398 0.960 . S
C412 H399 0.960 . S
C412 C411 1.524 . S
C413 C410 1.403 . S
C413 C414 1.392 . S
C413 C417 1.495 . S
C414 C413 1.392 . S
C414 C415 1.385 . S
C414 C416 1.478 . S
C415 H409 0.930 . S
C415 C411 1.400 . S
C415 C414 1.385 . S
C416 C414 1.478 . S
C416 C418 1.381 . S
C416 C422 1.383 . S
C417 C413 1.495 . S
C417 H423 0.959 . S
C417 H424 0.961 . S
C417 H425 0.960 . S
C418 C416 1.381 . S
C418 C419 1.394 . S
C418 H426 0.930 . S
C419 C418 1.394 . S
C419 C420 1.383 . S
C419 H427 0.929 . S
C420 C419 1.383 . S
C420 C421 1.377 . S
C421 H405 0.930 . S
C421 C420 1.377 . S
C421 C422 1.379 . S
C422 H406 0.931 . S
C422 C416 1.383 . S
C422 C421 1.379 . S
H423 C417 0.959 . S
H424 C417 0.961 . S
H425 C417 0.960 . S
H426 C418 0.930 . S
H427 C419 0.929 . S
H428 C436 0.929 . S
H429 C438 0.930 . S
H430 C440 0.930 . S
H431 C443 0.929 . S
H432 C446 0.930 . S
H433 C448 0.960 . S
H434 C448 0.960 . S
H435 C448 0.960 . S
C436 H428 0.929 . S
C436 C437 1.377 . S
C436 C438 1.384 . S
C437 C436 1.377 . S
C437 C443 1.390 . S
C438 H429 0.930 . S
C438 C436 1.384 . S
C438 C439 1.372 . S
C439 C438 1.372 . S
C439 C440 1.400 . S
C439 C444 1.490 . S
C440 H430 0.930 . S
C440 C439 1.400 . S
C440 C443 1.386 . S
H441 C457 0.930 . S
H442 C458 0.931 . S
C443 H431 0.929 . S
C443 C437 1.390 . S
C443 C440 1.386 . S
C444 C439 1.490 . S
C444 C446 1.395 . S
C444 C447 1.403 . S
H445 C451 0.930 . S
C446 H432 0.930 . S
C446 C444 1.395 . S
C446 C449 1.403 . S
C447 C444 1.403 . S
C447 C448 1.524 . S
C447 C451 1.400 . S
C448 H433 0.960 . S
C448 H434 0.960 . S
C448 H435 0.960 . S
C448 C447 1.524 . S
C449 C446 1.403 . S
C449 C450 1.392 . S
C449 C453 1.495 . S
C450 C449 1.392 . S
C450 C451 1.385 . S
C450 C452 1.478 . S
C451 H445 0.930 . S
C451 C447 1.400 . S
C451 C450 1.385 . S
C452 C450 1.478 . S
C452 C454 1.381 . S
C452 C458 1.383 . S
C453 C449 1.495 . S
C453 H459 0.959 . S
C453 H460 0.961 . S
C453 H461 0.960 . S
C454 C452 1.381 . S
C454 C455 1.394 . S
C454 H462 0.930 . S
C455 C454 1.394 . S
C455 C456 1.383 . S
C455 H463 0.929 . S
C456 C455 1.383 . S
C456 C457 1.377 . S
C457 H441 0.930 . S
C457 C456 1.377 . S
C457 C458 1.379 . S
C458 H442 0.931 . S
C458 C452 1.383 . S
C458 C457 1.379 . S
H459 C453 0.959 . S
H460 C453 0.961 . S
H461 C453 0.960 . S
H462 C454 0.930 . S
H463 C455 0.929 . S
H464 C472 0.929 . S
H465 C474 0.930 . S
H466 C476 0.930 . S
H467 C479 0.929 . S
H468 C482 0.930 . S
H469 C484 0.960 . S
H470 C484 0.960 . S
H471 C484 0.960 . S
C472 H464 0.929 . S
C472 C473 1.377 . S
C472 C474 1.384 . S
C473 C472 1.377 . S
C473 C479 1.390 . S
C474 H465 0.930 . S
C474 C472 1.384 . S
C474 C475 1.372 . S
C475 C474 1.372 . S
C475 C476 1.400 . S
C475 C480 1.490 . S
C476 H466 0.930 . S
C476 C475 1.400 . S
C476 C479 1.386 . S
H477 C493 0.930 . S
H478 C494 0.931 . S
C479 H467 0.929 . S
C479 C473 1.390 . S
C479 C476 1.386 . S
C480 C475 1.490 . S
C480 C482 1.395 . S
C480 C483 1.403 . S
H481 C487 0.930 . S
C482 H468 0.930 . S
C482 C480 1.395 . S
C482 C485 1.403 . S
C483 C480 1.403 . S
C483 C484 1.524 . S
C483 C487 1.400 . S
C484 H469 0.960 . S
C484 H470 0.960 . S
C484 H471 0.960 . S
C484 C483 1.524 . S
C485 C482 1.403 . S
C485 C486 1.392 . S
C485 C489 1.495 . S
C486 C485 1.392 . S
C486 C487 1.385 . S
C486 C488 1.478 . S
C487 H481 0.930 . S
C487 C483 1.400 . S
C487 C486 1.385 . S
C488 C486 1.478 . S
C488 C490 1.381 . S
C488 C494 1.383 . S
C489 C485 1.495 . S
C489 H495 0.959 . S
C489 H496 0.961 . S
C489 H497 0.960 . S
C490 C488 1.381 . S
C490 C491 1.394 . S
C490 H498 0.930 . S
C491 C490 1.394 . S
C491 C492 1.383 . S
C491 H499 0.929 . S
C492 C491 1.383 . S
C492 C493 1.377 . S
C493 H477 0.930 . S
C493 C492 1.377 . S
C493 C494 1.379 . S
C494 H478 0.931 . S
C494 C488 1.383 . S
C494 C493 1.379 . S
H495 C489 0.959 . S
H496 C489 0.961 . S
H497 C489 0.960 . S
H498 C490 0.930 . S
H499 C491 0.929 . S
H500 C508 0.929 . S
H501 C510 0.930 . S
H502 C512 0.930 . S
H503 C515 0.929 . S
H504 C518 0.930 . S
H505 C520 0.960 . S
H506 C520 0.960 . S
H507 C520 0.960 . S
C508 H500 0.929 . S
C508 C509 1.377 . S
C508 C510 1.384 . S
C509 C508 1.377 . S
C509 C515 1.390 . S
C510 H501 0.930 . S
C510 C508 1.384 . S
C510 C511 1.372 . S
C511 C510 1.372 . S
C511 C512 1.400 . S
C511 C516 1.490 . S
C512 H502 0.930 . S
C512 C511 1.400 . S
C512 C515 1.386 . S
H513 C529 0.930 . S
H514 C530 0.931 . S
C515 H503 0.929 . S
C515 C509 1.390 . S
C515 C512 1.386 . S
C516 C511 1.490 . S
C516 C518 1.395 . S
C516 C519 1.403 . S
H517 C523 0.930 . S
C518 H504 0.930 . S
C518 C516 1.395 . S
C518 C521 1.403 . S
C519 C516 1.403 . S
C519 C520 1.524 . S
C519 C523 1.400 . S
C520 H505 0.960 . S
C520 H506 0.960 . S
C520 H507 0.960 . S
C520 C519 1.524 . S
C521 C518 1.403 . S
C521 C522 1.392 . S
C521 C525 1.495 . S
C522 C521 1.392 . S
C522 C523 1.385 . S
C522 C524 1.478 . S
C523 H517 0.930 . S
C523 C519 1.400 . S
C523 C522 1.385 . S
C524 C522 1.478 . S
C524 C526 1.381 . S
C524 C530 1.383 . S
C525 C521 1.495 . S
C525 H531 0.959 . S
C525 H532 0.961 . S
C525 H533 0.960 . S
C526 C524 1.381 . S
C526 C527 1.394 . S
C526 H534 0.930 . S
C527 C526 1.394 . S
C527 C528 1.383 . S
C527 H535 0.929 . S
C528 C527 1.383 . S
C528 C529 1.377 . S
C529 H513 0.930 . S
C529 C528 1.377 . S
C529 C530 1.379 . S
C530 H514 0.931 . S
C530 C524 1.383 . S
C530 C529 1.379 . S
H531 C525 0.959 . S
H532 C525 0.961 . S
H533 C525 0.960 . S
H534 C526 0.930 . S
H535 C527 0.929 . S
H536 C544 0.929 . S
H537 C546 0.930 . S
H538 C548 0.930 . S
H539 C551 0.912 1_655 S
H540 C554 0.930 . S
H541 C556 0.960 . S
H542 C556 0.960 . S
H543 C556 0.960 . S
C544 H536 0.929 . S
C544 C545 1.377 . S
C544 C546 1.384 . S
C545 C544 1.377 . S
C545 C551 1.413 . S
C546 H537 0.930 . S
C546 C544 1.384 . S
C546 C547 1.372 . S
C547 C546 1.372 . S
C547 C548 1.400 1_455 S
C547 C552 1.490 . S
C548 H538 0.930 . S
C548 C547 1.400 1_655 S
C548 C551 1.381 1_655 S
H549 C565 0.930 . S
H550 C566 0.931 . S
C551 H539 0.912 1_455 S
C551 C545 1.413 . S
C551 C548 1.381 1_455 S
C552 C547 1.490 . S
C552 C554 1.395 . S
C552 C555 1.403 1_455 S
H553 C559 0.930 . S
C554 H540 0.930 . S
C554 C552 1.395 . S
C554 C557 1.403 1_545 S
C555 C552 1.403 1_655 S
C555 C556 1.524 . S
C555 C559 1.400 1_545 S
C556 H541 0.960 . S
C556 H542 0.960 . S
C556 H543 0.960 . S
C556 C555 1.524 . S
C557 C554 1.403 1_565 S
C557 C558 1.392 1_455 S
C557 C561 1.495 . S
C558 C557 1.392 1_655 S
C558 C559 1.385 . S
C558 C560 1.478 . S
C559 H553 0.930 . S
C559 C555 1.400 1_565 S
C559 C558 1.385 . S
C560 C558 1.478 . S
C560 C562 1.381 1_655 S
C560 C566 1.383 . S
C561 C557 1.495 . S
C561 H567 0.959 . S
C561 H568 0.961 . S
C561 H569 0.960 . S
C562 C560 1.381 1_455 S
C562 C563 1.393 1_455 S
C562 H570 0.930 . S
C563 C562 1.393 1_655 S
C563 C564 1.386 . S
C563 H571 0.928 1_655 S
C564 C563 1.386 . S
C564 C565 1.377 . S
C565 H549 0.930 . S
C565 C564 1.377 . S
C565 C566 1.379 . S
C566 H550 0.931 . S
C566 C560 1.383 . S
C566 C565 1.379 . S
H567 C561 0.959 . S
H568 C561 0.961 . S
H569 C561 0.960 . S
H570 C562 0.930 . S
H571 C563 0.928 1_455 S
H572 C580 0.929 . S
H573 C582 0.930 . S
H574 C584 0.930 1_545 S
H575 C587 0.929 . S
H576 C590 0.930 . S
H577 C592 0.960 . S
H578 C592 0.960 . S
H579 C592 0.960 . S
C580 H572 0.929 . S
C580 C581 1.377 . S
C580 C582 1.384 . S
C581 C580 1.377 . S
C581 C587 1.390 . S
C582 H573 0.930 . S
C582 C580 1.384 . S
C582 C583 1.372 . S
C583 C582 1.372 . S
C583 C584 1.400 . S
C583 C588 1.490 . S
C584 H574 0.930 1_565 S
C584 C583 1.400 . S
C584 C587 1.386 . S
H585 C601 0.930 . S
H586 C602 0.931 . S
C587 H575 0.929 . S
C587 C581 1.390 . S
C587 C584 1.386 . S
C588 C583 1.490 . S
C588 C590 1.395 . S
C588 C591 1.403 1_565 S
H589 C595 0.930 . S
C590 H576 0.930 . S
C590 C588 1.395 . S
C590 C593 1.403 1_455 S
C591 C588 1.403 1_545 S
C591 C592 1.524 . S
C591 C595 1.400 1_455 S
C592 H577 0.960 . S
C592 H578 0.960 . S
C592 H579 0.960 . S
C592 C591 1.524 . S
C593 C590 1.403 1_655 S
C593 C594 1.394 1_565 S
C593 C597 1.495 . S
C594 C593 1.394 1_545 S
C594 C595 1.384 . S
C594 C596 1.477 . S
C595 H589 0.930 . S
C595 C591 1.400 1_655 S
C595 C594 1.384 . S
C596 C594 1.477 . S
C596 C598 1.386 . S
C596 C602 1.383 . S
C597 C593 1.495 . S
C597 H603 0.959 . S
C597 H604 0.961 . S
C597 H605 0.960 . S
C598 C596 1.386 . S
C598 C599 1.401 . S
C598 H606 0.920 1_545 S
C599 C598 1.401 . S
C599 C600 1.383 . S
C599 H607 0.929 . S
C600 C599 1.383 . S
C600 C601 1.377 . S
C601 H585 0.930 . S
C601 C600 1.377 . S
C601 C602 1.379 . S
C602 H586 0.931 . S
C602 C596 1.383 . S
C602 C601 1.379 . S
H603 C597 0.959 . S
H604 C597 0.961 . S
H605 C597 0.960 . S
H606 C598 0.920 1_565 S
H607 C599 0.929 . S
H608 C616 0.929 . S
H609 C618 0.930 . S
H610 C620 0.930 . S
H611 C623 0.929 . S
H612 C626 0.930 . S
H613 C628 0.960 . S
H614 C628 0.960 . S
H615 C628 0.960 . S
C616 H608 0.929 . S
C616 C617 1.377 . S
C616 C618 1.384 . S
C617 C616 1.377 . S
C617 C623 1.390 1_655 S
C618 H609 0.930 . S
C618 C616 1.384 . S
C618 C619 1.372 . S
C619 C618 1.372 . S
C619 C620 1.400 1_655 S
C619 C624 1.490 . S
C620 H610 0.930 . S
C620 C619 1.400 1_455 S
C620 C623 1.386 . S
H621 C637 0.930 . S
H622 C638 0.931 . S
C623 H611 0.929 . S
C623 C617 1.390 1_455 S
C623 C620 1.386 . S
C624 C619 1.490 . S
C624 C626 1.395 . S
C624 C627 1.403 1_655 S
H625 C631 0.930 . S
C626 H612 0.930 . S
C626 C624 1.395 . S
C626 C629 1.403 1_545 S
C627 C624 1.403 1_455 S
C627 C628 1.524 . S
C627 C631 1.400 1_545 S
C628 H613 0.960 . S
C628 H614 0.960 . S
C628 H615 0.960 . S
C628 C627 1.524 . S
C629 C626 1.403 1_565 S
C629 C630 1.392 1_655 S
C629 C633 1.495 . S
C630 C629 1.392 1_455 S
C630 C631 1.385 . S
C630 C632 1.478 . S
C631 H625 0.930 . S
C631 C627 1.400 1_565 S
C631 C630 1.385 . S
C632 C630 1.478 . S
C632 C634 1.381 1_455 S
C632 C638 1.383 . S
C633 C629 1.495 . S
C633 H639 0.959 . S
C633 H640 0.961 . S
C633 H641 0.960 . S
C634 C632 1.381 1_655 S
C634 C635 1.394 . S
C634 H642 0.930 . S
C635 C634 1.394 . S
C635 C636 1.383 1_655 S
C635 H643 0.929 . S
C636 C635 1.383 1_455 S
C636 C637 1.377 . S
C637 H621 0.930 . S
C637 C636 1.377 . S
C637 C638 1.379 . S
C638 H622 0.931 . S
C638 C632 1.383 . S
C638 C637 1.379 . S
H639 C633 0.959 . S
H640 C633 0.961 . S
H641 C633 0.960 . S
H642 C634 0.930 . S
H643 C635 0.929 . S
H644 C652 0.929 . S
H645 C654 0.930 . S
H646 C656 0.930 . S
H647 C659 0.929 . S
H648 C662 0.930 . S
H649 C664 0.960 . S
H650 C664 0.960 . S
H651 C664 0.960 . S
C652 H644 0.929 . S
C652 C653 1.377 . S
C652 C654 1.384 . S
C653 C652 1.377 . S
C653 C659 1.390 1_565 S
C654 H645 0.930 . S
C654 C652 1.384 . S
C654 C655 1.372 . S
C655 C654 1.372 . S
C655 C656 1.400 1_565 S
C655 C660 1.490 . S
C656 H646 0.930 . S
C656 C655 1.400 1_545 S
C656 C659 1.386 . S
H657 C673 0.930 . S
H658 C674 0.931 . S
C659 H647 0.929 . S
C659 C653 1.390 1_545 S
C659 C656 1.386 . S
C660 C655 1.490 . S
C660 C662 1.395 . S
C660 C663 1.403 1_565 S
H661 C667 0.930 . S
C662 H648 0.930 . S
C662 C660 1.395 . S
C662 C665 1.403 1_655 S
C663 C660 1.403 1_545 S
C663 C664 1.524 . S
C663 C667 1.400 1_655 S
C664 H649 0.960 . S
C664 H650 0.960 . S
C664 H651 0.960 . S
C664 C663 1.524 . S
C665 C662 1.403 1_455 S
C665 C666 1.392 1_565 S
C665 C669 1.495 . S
C666 C665 1.392 1_545 S
C666 C667 1.385 . S
C666 C668 1.478 . S
C667 H661 0.930 . S
C667 C663 1.400 1_455 S
C667 C666 1.385 . S
C668 C666 1.478 . S
C668 C670 1.381 1_545 S
C668 C674 1.383 . S
C669 C665 1.495 . S
C669 H675 0.959 . S
C669 H676 0.961 . S
C669 H677 0.960 . S
C670 C668 1.381 1_565 S
C670 C671 1.394 . S
C670 H678 0.930 . S
C671 C670 1.394 . S
C671 C672 1.383 1_565 S
C671 H679 0.929 . S
C672 C671 1.383 1_545 S
C672 C673 1.377 . S
C673 H657 0.930 . S
C673 C672 1.377 . S
C673 C674 1.379 . S
C674 H658 0.931 . S
C674 C668 1.383 . S
C674 C673 1.379 . S
H675 C669 0.959 . S
H676 C669 0.961 . S
H677 C669 0.960 . S
H678 C670 0.930 . S
H679 C671 0.929 . S
C113 C4 1.270 . S
C132 C30 1.263 . S
C149 C49 1.274 . S
C168 C17 1.269 . S
C185 C82 1.270 . S
C204 C56 1.258 . S
C221 C69 1.270 . S
C240 C95 1.265 . S
C257 C88 1.464 . S
C276 C10 1.477 . S
C293 C23 1.465 . S
C312 C101 1.451 . S
C329 C36 1.465 . S
C348 C62 1.451 . S
C365 C75 1.466 . S
C384 C43 1.464 . S
C401 C3 1.284 . S
C420 C68 1.300 . S
C437 C81 1.288 . S
C456 C16 1.283 . S
C473 C94 1.279 . S
C492 C29 1.260 . S
C509 C44 1.287 . S
C528 C55 1.274 . S
C545 C5 1.021 . S
C564 C31 1.043 . S
C581 C42 1.023 . S
C600 C18 1.041 . S
C617 C83 1.019 . S
C636 C57 1.039 . S
C653 C96 1.020 . S
C672 C70 1.042 . S
