# Generated by pormake.
# Topology sma, (6)-cn, num edge types: 1
# Building blocks:
#     Node 0, Type 0, BuildingBlock: VOLQOD_clean_sbu_1, # of connection points: 6
#     Node 1, Type 0, BuildingBlock: VOLQOD_clean_sbu_1, # of connection points: 6
#     Node 2, Type 0, BuildingBlock: VOLQOD_clean_sbu_1, # of connection points: 6
#     Edge 3, Type (0, 0), BuildingBlock: XUDNAN_clean_linker_2, # of connection points: 2
#     Edge 4, Type (0, 0), BuildingBlock: XUDNAN_clean_linker_2, # of connection points: 2
#     Edge 5, Type (0, 0), BuildingBlock: XUDNAN_clean_linker_2, # of connection points: 2
#     Edge 6, Type (0, 0), BuildingBlock: XUDNAN_clean_linker_2, # of connection points: 2
#     Edge 7, Type (0, 0), BuildingBlock: XUDNAN_clean_linker_2, # of connection points: 2
#     Edge 8, Type (0, 0), BuildingBlock: XUDNAN_clean_linker_2, # of connection points: 2
#     Edge 9, Type (0, 0), BuildingBlock: XUDNAN_clean_linker_2, # of connection points: 2
#     Edge 10, Type (0, 0), BuildingBlock: XUDNAN_clean_linker_2, # of connection points: 2
#     Edge 11, Type (0, 0), BuildingBlock: XUDNAN_clean_linker_2, # of connection points: 2
# Relax obj value: 0.284
# Max RMSD: 0.234
# Mean RMSD: 0.234
data_MOF--net-sma--node1-VOLQOD_clean_sbu_1--edge1-XUDNAN_clean_linker_2
_symmetry_space_group_name_H-M    P1
_symmetry_Int_Tables_number       1
_symmetry_cell_setting            triclinic
loop_
_symmetry_equiv_pos_as_xyz
'x, y, z'
_cell_length_a     30.710008
_cell_length_b     30.858946
_cell_length_c     16.696465
_cell_angle_alpha  89.887129
_cell_angle_beta   90.473951
_cell_angle_gamma 120.06512
loop_
_atom_site_label
_atom_site_type_symbol
_atom_site_fract_x
_atom_site_fract_y
_atom_site_fract_z
_atom_type_partial_charge
O0 O 0.01046 0.55262 0.95651 0.0
Zn1 Zn 0.0119 0.57823 0.06697 0.0
O2 O 0.0033 0.52658 0.13845 0.0
Zn3 Zn 0.06418 0.54276 0.19048 0.0
Zn4 Zn 0.97916 0.46348 0.08554 0.0
Zn5 Zn 0.961 0.52349 0.22254 0.0
O6 O 0.04925 0.51993 0.30409 0.0
O7 O 0.00117 0.55375 0.3226 0.0
O8 O 0.07433 0.64424 0.09822 0.0
O9 O 0.10602 0.61651 0.19223 0.0
O10 O 0.09977 0.51354 0.13147 0.0
O11 O 0.03666 0.4512 0.06519 0.0
O12 O 0.92606 0.40681 0.15334 0.0
O13 O 0.95185 0.58712 0.07308 0.0
O14 O 0.91824 0.45188 0.25029 0.0
O15 O 0.91729 0.55197 0.18915 0.0
C16 C 0.9826 0.50843 0.9286 0.0
C17 C 0.02735 0.53557 0.35056 0.0
C18 C 0.08311 0.47626 0.08396 0.0
C19 C 0.10665 0.65233 0.15337 0.0
C20 C 0.90783 0.4099 0.22019 0.0
C21 C 0.91791 0.57521 0.12557 0.0
O22 O 0.95907 0.47021 0.97383 0.0
O23 O 0.49738 0.07115 0.30305 0.0
Zn24 Zn 0.46978 0.05145 0.41359 0.0
O25 O 0.50718 0.02558 0.46763 0.0
Zn26 Zn 0.54734 0.06752 0.55245 0.0
Zn27 Zn 0.54962 0.01552 0.39712 0.0
Zn28 Zn 0.46096 0.96555 0.51872 0.0
O29 O 0.5372 0.02764 0.65213 0.0
O30 O 0.45482 0.9811 0.63261 0.0
O31 O 0.46764 0.10523 0.48153 0.0
O32 O 0.51987 0.11154 0.58003 0.0
O33 O 0.61978 0.10956 0.52037 0.0
O34 O 0.61965 0.07399 0.40485 0.0
O35 O 0.55082 0.95207 0.42783 0.0
O36 O 0.39911 -0.00427 0.39129 0.0
O37 O 0.49018 0.92113 0.51885 0.0
O38 O 0.39476 0.93251 0.46114 0.0
C39 C 0.51113 0.0468 0.258 0.0
C40 C 0.49274 0.00234 0.67949 0.0
C41 C 0.64225 0.10793 0.45758 0.0
C42 C 0.48903 0.12303 0.54905 0.0
C43 C 0.52511 0.91948 0.48092 0.0
C44 C 0.37541 0.94995 0.41218 0.0
O45 O 0.52605 0.01782 0.28609 0.0
O46 O 0.47198 0.50106 0.61475 0.0
Zn47 Zn 0.44596 0.47759 0.72517 0.0
O48 O 0.49849 0.52053 0.79677 0.0
Zn49 Zn 0.48424 0.56639 0.84777 0.0
Zn50 Zn 0.56209 0.55829 0.7445 0.0
Zn51 Zn 0.50047 0.48086 0.88169 0.0
O52 O 0.50529 0.57237 0.96261 0.0
O53 O 0.47002 0.49045 -0.01934 0.0
O54 O 0.38072 0.47616 0.7543 0.0
O55 O 0.4106 0.53767 0.84437 0.0
O56 O 0.517 0.63214 0.7915 0.0
O57 O 0.57641 0.62852 0.72242 0.0
O58 O 0.61832 0.56088 0.81422 0.0
O59 O 0.43541 0.40815 0.7324 0.0
O60 O 0.57212 0.50888 0.91128 0.0
O61 O 0.47132 0.40893 0.84872 0.0
C62 C 0.51619 0.51647 0.58771 0.0
C63 C 0.48881 0.53462 0.00886 0.0
C64 C 0.5537 0.65168 0.74309 0.0
C65 C 0.37392 0.50272 0.80585 0.0
C66 C 0.61461 0.53973 0.88171 0.0
C67 C 0.44744 0.38621 0.78535 0.0
O68 O 0.55452 0.53073 0.63364 0.0
H69 H 0.18466 0.5371 0.07826 0.0
H70 H 0.06328 0.39559 -0.01173 0.0
H71 H 0.12372 0.38706 0.90173 0.0
H72 H 0.24506 0.58054 0.8928 0.0
H73 H 0.30764 0.61134 0.93522 0.0
H74 H 0.25556 0.60416 -0.006 0.0
H75 H 0.27692 0.55872 0.10524 0.0
H76 H 0.3297 0.56675 0.04759 0.0
H77 H 0.28259 0.50506 0.07943 0.0
H78 H 0.1993 0.39609 0.82232 0.0
H79 H 0.28253 0.41994 0.76438 0.0
H80 H 0.34972 0.55762 0.90319 0.0
C81 C 0.17071 0.50372 0.04172 0.0
C82 C 0.11932 0.46678 0.04069 0.0
C83 C 0.10265 0.42422 -0.00949 0.0
C84 C 0.13662 0.41918 0.94086 0.0
C85 C 0.18687 0.45724 0.94172 0.0
C86 C 0.20368 0.49853 -0.00873 0.0
C87 C 0.25885 0.53521 -0.02024 0.0
C88 C 0.26723 0.58578 0.94858 0.0
C89 C 0.28876 0.54178 0.05761 0.0
C90 C 0.2708 0.50802 0.91651 0.0
C91 C 0.2291 0.46312 0.89491 0.0
C92 C 0.23215 0.43129 0.83869 0.0
C93 C 0.27944 0.44526 0.80568 0.0
C94 C 0.32268 0.49063 0.82913 0.0
C95 C 0.31758 0.52266 0.88372 0.0
H96 H 0.68942 0.13359 0.31276 0.0
H97 H 0.70875 0.17824 0.56288 0.0
H98 H 0.78651 0.25635 0.5293 0.0
H99 H 0.82771 0.1948 0.2624 0.0
H100 H 0.8169 0.21294 0.16486 0.0
H101 H 0.76896 0.1561 0.21055 0.0
H102 H 0.70525 0.18723 0.19364 0.0
H103 H 0.75294 0.24438 0.14923 0.0
H104 H 0.71976 0.24671 0.23617 0.0
H105 H 0.85202 0.33398 0.46751 0.0
H106 H 0.90446 0.40624 0.38194 0.0
H107 H 0.8437 0.31278 0.17006 0.0
C108 C 0.71103 0.15889 0.36099 0.0
C109 C 0.69325 0.14971 0.44061 0.0
C110 C 0.7218 0.18442 0.50161 0.0
C111 C 0.76609 0.22879 0.48312 0.0
C112 C 0.78136 0.23769 0.40351 0.0
C113 C 0.7551 0.20353 0.34341 0.0
C114 C 0.77628 0.22475 0.2616 0.0
C115 C 0.79881 0.1954 0.22256 0.0
C116 C 0.73617 0.22583 0.20701 0.0
C117 C 0.81698 0.27706 0.28486 0.0
C118 C 0.81963 0.28329 0.36717 0.0
C119 C 0.85101 0.32934 0.40316 0.0
C120 C 0.88024 0.37025 0.35389 0.0
C121 C 0.87792 0.36499 0.26937 0.0
C122 C 0.84659 0.31757 0.23449 0.0
H123 H 0.48643 0.85577 0.60671 0.0
H124 H 0.59477 0.89822 0.41464 0.0
H125 H 0.61933 0.83794 0.46642 0.0
H126 H 0.56219 0.84404 0.75913 0.0
H127 H 0.50932 0.79172 0.80615 0.0
H128 H 0.50066 0.83779 0.75319 0.0
H129 H 0.43172 0.76821 0.6636 0.0
H130 H 0.43962 0.72192 0.71708 0.0
H131 H 0.44594 0.72629 0.60969 0.0
H132 H 0.62965 0.77037 0.53989 0.0
H133 H 0.62205 0.70036 0.6227 0.0
H134 H 0.50924 0.70787 0.76758 0.0
C135 C 0.51516 0.85246 0.57472 0.0
C136 C 0.53846 0.88158 0.50618 0.0
C137 C 0.5762 0.8761 0.46705 0.0
C138 C 0.59055 0.8422 0.49629 0.0
C139 C 0.56713 0.8147 0.56498 0.0
C140 C 0.53019 0.81962 0.60336 0.0
C141 C 0.51016 0.78596 0.67551 0.0
C142 C 0.52127 0.81673 0.75306 0.0
C143 C 0.45352 0.74837 0.66583 0.0
C144 C 0.54094 0.76037 0.67139 0.0
C145 C 0.57384 0.77741 0.60768 0.0
C146 C 0.60432 0.75713 0.59029 0.0
C147 C 0.5999 0.71753 0.63793 0.0
C148 C 0.56518 0.6987 0.70197 0.0
C149 C 0.53647 0.72153 0.71969 0.0
H150 H 0.71217 0.57273 0.83383 0.0
H151 H 0.61778 0.53801 0.04358 0.0
H152 H 0.68983 0.55617 0.13062 0.0
H153 H 0.77665 0.5136 0.89973 0.0
H154 H 0.83689 0.55855 0.85922 0.0
H155 H 0.78006 0.55047 0.81357 0.0
H156 H 0.81229 0.64525 0.83148 0.0
H157 H 0.86924 0.65351 0.87769 0.0
H158 H 0.83079 0.67313 0.92966 0.0
H159 H 0.76754 0.5675 0.19407 0.0
H160 H 0.84626 0.56864 0.22924 0.0
H161 H 0.89169 0.59669 -0.01985 0.0
C162 C 0.70714 0.57004 0.89813 0.0
C163 C 0.65948 0.55383 0.93191 0.0
C164 C 0.65393 0.54988 0.0163 0.0
C165 C 0.69473 0.56062 0.06644 0.0
C166 C 0.74099 0.57544 0.03148 0.0
C167 C 0.74761 0.58023 0.94937 0.0
C168 C 0.8001 0.59186 0.92725 0.0
C169 C 0.79828 0.55119 0.87171 0.0
C170 C 0.82986 0.64405 0.88928 0.0
C171 C 0.82095 0.59075 0.00937 0.0
C172 C 0.78653 0.58215 0.06873 0.0
C173 C 0.79532 0.5752 0.14846 0.0
C174 C 0.84006 0.57579 0.16786 0.0
C175 C 0.87524 0.58309 0.10763 0.0
C176 C 0.86603 0.59204 0.02785 0.0
H177 H 0.31317 0.8513 0.44618 0.0
H178 H 0.33121 0.96865 0.28273 0.0
H179 H 0.26021 0.90593 0.2006 0.0
H180 H 0.29311 0.76385 0.30292 0.0
H181 H 0.24734 0.71044 0.35855 0.0
H182 H 0.29389 0.76524 0.4109 0.0
H183 H 0.22387 0.77193 0.48598 0.0
H184 H 0.17697 0.71647 0.43489 0.0
H185 H 0.17438 0.77348 0.4295 0.0
H186 H 0.1921 0.82753 0.12864 0.0
H187 H 0.13189 0.74207 0.0785 0.0
H188 H 0.16321 0.67917 0.28922 0.0
C189 C 0.30149 0.86419 0.39433 0.0
C190 C 0.32768 0.91489 0.37112 0.0
C191 C 0.3114 0.93 0.3022 0.0
C192 C 0.27121 0.89463 0.25497 0.0
C193 C 0.24756 0.84451 0.27793 0.0
C194 C 0.26182 0.82957 0.34669 0.0
C195 C 0.23324 0.77342 0.35588 0.0
C196 C 0.26904 0.75202 0.35709 0.0
C197 C 0.20014 0.75792 0.431 0.0
C198 C 0.20176 0.75886 0.28034 0.0
C199 C 0.20977 0.80008 0.23629 0.0
C200 C 0.18525 0.795 0.1631 0.0
C201 C 0.15137 0.74643 0.13487 0.0
C202 C 0.14313 0.70391 0.17945 0.0
C203 C 0.16883 0.71069 0.25298 0.0
H204 H 0.42726 0.33914 0.63984 0.0
H205 H 0.45309 0.32118 0.89069 0.0
H206 H 0.45611 0.24498 0.85714 0.0
H207 H 0.35289 0.20155 0.58775 0.0
H208 H 0.38206 0.21253 0.49091 0.0
H209 H 0.37191 0.25968 0.53628 0.0
H210 H 0.4667 0.32428 0.52161 0.0
H211 H 0.47742 0.27735 0.47757 0.0
H212 H 0.51265 0.31101 0.56532 0.0
H213 H 0.47023 0.18066 0.79574 0.0
H214 H 0.49041 0.12827 0.71087 0.0
H215 H 0.45568 0.18675 0.49807 0.0
C216 C 0.43164 0.31814 0.68816 0.0
C217 C 0.4396 0.33588 0.76804 0.0
C218 C 0.44668 0.30814 0.82921 0.0
C219 C 0.44833 0.26476 0.81074 0.0
C220 C 0.44257 0.24955 0.73096 0.0
C221 C 0.43374 0.27495 0.67063 0.0
C222 C 0.43429 0.25383 0.58889 0.0
C223 C 0.38217 0.2305 0.54859 0.0
C224 C 0.47521 0.29402 0.53525 0.0
C225 C 0.44703 0.21405 0.61254 0.0
C226 C 0.45096 0.21194 0.69491 0.0
C227 C 0.46637 0.18127 0.73133 0.0
C228 C 0.47825 0.15206 0.68243 0.0
C229 C 0.47473 0.15365 0.59785 0.0
C230 C 0.45811 0.18446 0.56253 0.0
H231 H 0.99146 0.57322 0.81043 0.0
H232 H 0.97531 0.42708 0.85278 0.0
H233 H 0.98751 0.4192 0.70858 0.0
H234 H 0.92463 0.54046 0.61755 0.0
H235 H 0.96506 0.60173 0.57623 0.0
H236 H 0.95332 0.59457 0.68229 0.0
H237 H 0.04948 0.63943 0.70943 0.0
H238 H 0.06149 0.6458 0.60347 0.0
H239 H 0.0862 0.61501 0.66526 0.0
H240 H 0.00919 0.43085 0.56325 0.0
H241 H 0.02517 0.455 0.42069 0.0
H242 H 0.0218 0.59104 0.47234 0.0
C243 C 0.9898 0.53931 0.78897 0.0
C244 C 0.98251 0.50075 0.84206 0.0
C245 C 0.98036 0.45677 0.81245 0.0
C246 C 0.98766 0.45216 0.731 0.0
C247 C -0.00385 0.4915 0.68042 0.0
C248 C -0.00396 0.53369 0.70782 0.0
C249 C 0.00512 0.57014 0.64076 0.0
C250 C 0.9593 0.57711 0.62848 0.0
C251 C 0.05345 0.62057 0.65566 0.0
C252 C 0.0112 0.54221 0.5716 0.0
C253 C 0.00655 0.49725 0.59593 0.0
C254 C 0.01243 0.4657 0.54318 0.0
C255 C 0.02199 0.47994 0.46276 0.0
C256 C 0.02473 0.52483 0.43631 0.0
C257 C 0.01972 0.55648 0.49145 0.0
H258 H 0.56577 0.03509 0.14123 0.0
H259 H 0.43931 0.05821 0.18041 0.0
H260 H 0.41957 0.04715 0.03561 0.0
H261 H 0.60298 0.10177 0.94974 0.0
H262 H 0.62137 0.05941 0.90859 0.0
H263 H 0.6262 0.07104 0.01486 0.0
H264 H 0.57114 0.9756 0.03993 0.0
H265 H 0.56527 0.96374 0.93373 0.0
H266 H 0.50966 0.94143 -0.00606 0.0
H267 H 0.409 0.02568 0.89014 0.0
H268 H 0.41632 0.00881 0.74774 0.0
H269 H 0.55277 0.0051 0.80251 0.0
C270 C 0.53439 0.03852 0.11897 0.0
C271 C 0.50398 0.04743 0.17131 0.0
C272 C 0.4633 0.05188 0.14067 0.0
C273 C 0.45157 0.04525 0.05887 0.0
C274 C 0.48149 0.03511 0.00902 0.0
C275 C 0.52276 0.03295 0.03746 0.0
C276 C 0.54921 0.0223 0.97101 0.0
C277 C 0.60312 0.06626 0.96042 0.0
C278 C 0.54876 0.97282 -0.01444 0.0
C279 C 0.51583 0.01797 0.90098 0.0
C280 C 0.47661 0.02482 0.92438 0.0
C281 C 0.43978 0.02074 0.87078 0.0
C282 C 0.44394 0.01065 0.79047 0.0
C283 C 0.48503 0.00563 0.76501 0.0
C284 C 0.52112 0.00894 0.82093 0.0
H285 H 0.45076 0.46053 0.46904 0.0
H286 H 0.59844 0.58977 0.51252 0.0
H287 H 0.6066 0.60958 0.3681 0.0
H288 H 0.48306 0.42602 0.27714 0.0
H289 H 0.42157 0.40555 0.23477 0.0
H290 H 0.42877 0.40083 0.34107 0.0
H291 H 0.38464 0.45241 0.36648 0.0
H292 H 0.37824 0.45819 0.26031 0.0
H293 H 0.40974 0.51354 0.322 0.0
H294 H 0.59493 0.61986 0.22263 0.0
H295 H 0.5704 0.61227 0.07984 0.0
H296 H 0.43284 0.47334 0.13015 0.0
C297 C 0.48508 0.49252 0.44776 0.0
C298 C 0.52399 0.5237 0.50123 0.0
C299 C 0.56849 0.5652 0.4719 0.0
C300 C 0.57327 0.57696 0.39032 0.0
C301 C 0.53358 0.54624 0.33934 0.0
C302 C 0.49089 0.5042 0.36646 0.0
C303 C 0.45407 0.47705 0.29898 0.0
C304 C 0.44645 0.42424 0.28729 0.0
C305 C 0.40371 0.47522 0.31281 0.0
C306 C 0.48233 0.511 0.22993 0.0
C307 C 0.52782 0.55101 0.25468 0.0
C308 C 0.55968 0.58845 0.20222 0.0
C309 C 0.54522 0.58412 0.12165 0.0
C310 C 0.49977 0.5423 0.09475 0.0
C311 C 0.46782 0.50558 0.1496 0.0
loop_
_geom_bond_atom_site_label_1
_geom_bond_atom_site_label_2
_geom_bond_distance
_geom_bond_site_symmetry_2
_ccdc_geom_bond_type
O0 Zn1 1.953 1_556 S
O0 C16 1.225 . S
Zn1 O0 1.953 1_554 S
Zn1 O2 1.949 . S
Zn1 O8 1.919 . S
Zn1 O13 1.924 1_455 S
O2 Zn1 1.949 . S
O2 Zn3 1.923 . S
O2 Zn4 1.950 1_455 S
O2 Zn5 1.945 1_455 S
Zn3 O2 1.923 . S
Zn3 O6 1.933 . S
Zn3 O9 1.941 . S
Zn3 O10 1.965 . S
Zn4 O2 1.950 1_655 S
Zn4 O11 1.938 1_655 S
Zn4 O12 1.906 . S
Zn4 O22 1.953 1_554 S
Zn5 O2 1.945 1_655 S
Zn5 O7 1.932 . S
Zn5 O14 1.977 . S
Zn5 O15 1.910 . S
O6 Zn3 1.933 . S
O6 C17 1.226 . S
O7 Zn5 1.932 . S
O7 C17 1.307 1_655 S
O8 Zn1 1.919 . S
O8 C19 1.253 . S
O9 Zn3 1.941 . S
O9 C19 1.283 . S
O10 Zn3 1.965 . S
O10 C18 1.303 . S
O11 Zn4 1.938 1_455 S
O11 C18 1.247 . S
O12 Zn4 1.906 . S
O12 C20 1.304 . S
O13 Zn1 1.924 1_655 S
O13 C21 1.311 . S
O14 Zn5 1.977 . S
O14 C20 1.272 . S
O15 Zn5 1.910 . S
O15 C21 1.231 . S
C16 O0 1.225 . S
C16 O22 1.298 1_455 S
C17 O6 1.226 . S
C17 O7 1.307 1_455 S
C18 O10 1.303 . S
C18 O11 1.247 . S
C19 O8 1.253 . S
C19 O9 1.283 . S
C20 O12 1.304 . S
C20 O14 1.272 . S
C21 O13 1.311 . S
C21 O15 1.231 . S
O22 Zn4 1.953 1_556 S
O22 C16 1.298 1_655 S
O23 Zn24 1.953 . S
O23 C39 1.225 . S
Zn24 O23 1.953 . S
Zn24 O25 1.949 . S
Zn24 O31 1.919 . S
Zn24 O36 1.924 1_545 S
O25 Zn24 1.949 . S
O25 Zn26 1.923 . S
O25 Zn27 1.950 . S
O25 Zn28 1.945 1_545 S
Zn26 O25 1.923 . S
Zn26 O29 1.933 . S
Zn26 O32 1.941 . S
Zn26 O33 1.965 . S
Zn27 O25 1.950 . S
Zn27 O34 1.938 . S
Zn27 O35 1.906 1_545 S
Zn27 O45 1.953 . S
Zn28 O25 1.945 1_565 S
Zn28 O30 1.932 . S
Zn28 O37 1.977 . S
Zn28 O38 1.910 . S
O29 Zn26 1.933 . S
O29 C40 1.226 . S
O30 Zn28 1.932 . S
O30 C40 1.307 1_565 S
O31 Zn24 1.919 . S
O31 C42 1.253 . S
O32 Zn26 1.941 . S
O32 C42 1.283 . S
O33 Zn26 1.965 . S
O33 C41 1.303 . S
O34 Zn27 1.938 . S
O34 C41 1.247 . S
O35 Zn27 1.906 1_565 S
O35 C43 1.304 . S
O36 Zn24 1.924 1_565 S
O36 C44 1.311 . S
O37 Zn28 1.977 . S
O37 C43 1.272 . S
O38 Zn28 1.910 . S
O38 C44 1.231 . S
C39 O23 1.225 . S
C39 O45 1.298 . S
C40 O29 1.226 . S
C40 O30 1.307 1_545 S
C41 O33 1.303 . S
C41 O34 1.247 . S
C42 O31 1.253 . S
C42 O32 1.283 . S
C43 O35 1.304 . S
C43 O37 1.272 . S
C44 O36 1.311 . S
C44 O38 1.231 . S
O45 Zn27 1.953 . S
O45 C39 1.298 . S
O46 Zn47 1.953 . S
O46 C62 1.225 . S
Zn47 O46 1.953 . S
Zn47 O48 1.949 . S
Zn47 O54 1.919 . S
Zn47 O59 1.924 . S
O48 Zn47 1.949 . S
O48 Zn49 1.923 . S
O48 Zn50 1.950 . S
O48 Zn51 1.945 . S
Zn49 O48 1.923 . S
Zn49 O52 1.933 1_556 S
Zn49 O55 1.941 . S
Zn49 O56 1.965 . S
Zn50 O48 1.950 . S
Zn50 O57 1.938 . S
Zn50 O58 1.906 . S
Zn50 O68 1.953 . S
Zn51 O48 1.945 . S
Zn51 O53 1.932 1_556 S
Zn51 O60 1.977 . S
Zn51 O61 1.910 . S
O52 Zn49 1.933 1_554 S
O52 C63 1.226 . S
O53 Zn51 1.932 1_554 S
O53 C63 1.307 . S
O54 Zn47 1.919 . S
O54 C65 1.253 . S
O55 Zn49 1.941 . S
O55 C65 1.283 . S
O56 Zn49 1.965 . S
O56 C64 1.303 . S
O57 Zn50 1.938 . S
O57 C64 1.247 . S
O58 Zn50 1.906 . S
O58 C66 1.304 . S
O59 Zn47 1.924 . S
O59 C67 1.311 . S
O60 Zn51 1.977 . S
O60 C66 1.272 . S
O61 Zn51 1.910 . S
O61 C67 1.231 . S
C62 O46 1.225 . S
C62 O68 1.298 . S
C63 O52 1.226 . S
C63 O53 1.307 . S
C64 O56 1.303 . S
C64 O57 1.247 . S
C65 O54 1.253 . S
C65 O55 1.283 . S
C66 O58 1.304 . S
C66 O60 1.272 . S
C67 O59 1.311 . S
C67 O61 1.231 . S
O68 Zn50 1.953 . S
O68 C62 1.298 . S
H69 C81 0.930 . S
H70 C83 0.930 . S
H71 C84 0.930 . S
H72 C88 0.959 . S
H73 C88 0.959 . S
H74 C88 0.961 . S
H75 C89 0.960 . S
H76 C89 0.961 1_556 S
H77 C89 0.959 . S
H78 C92 0.929 1_554 S
H79 C93 0.931 . S
H80 C95 0.930 . S
C81 H69 0.930 . S
C81 C82 1.399 . S
C81 C86 1.399 . S
C82 C81 1.399 . S
C82 C83 1.376 . S
C83 H70 0.930 . S
C83 C82 1.376 . S
C83 C84 1.388 . S
C84 H71 0.930 . S
C84 C83 1.388 . S
C84 C85 1.390 . S
C85 C84 1.390 . S
C85 C86 1.394 . S
C85 C91 1.460 1_554 S
C86 C81 1.399 . S
C86 C85 1.394 . S
C86 C87 1.516 1_554 S
C87 C86 1.516 1_556 S
C87 C88 1.502 . S
C87 C89 1.561 1_556 S
C87 C90 1.526 . S
C88 H72 0.959 . S
C88 H73 0.959 . S
C88 H74 0.961 . S
C88 C87 1.502 . S
C89 H75 0.960 . S
C89 H76 0.961 1_554 S
C89 H77 0.959 . S
C89 C87 1.561 1_554 S
C90 C87 1.526 . S
C90 C91 1.402 . S
C90 C95 1.390 . S
C91 C85 1.460 1_556 S
C91 C90 1.402 . S
C91 C92 1.399 . S
C92 H78 0.929 1_556 S
C92 C91 1.399 . S
C92 C93 1.385 . S
C93 H79 0.931 . S
C93 C92 1.385 . S
C93 C94 1.389 . S
C94 C93 1.389 . S
C94 C95 1.387 . S
C95 H80 0.930 . S
C95 C90 1.390 . S
C95 C94 1.387 . S
H96 C108 0.930 . S
H97 C110 0.930 . S
H98 C111 0.930 . S
H99 C115 0.959 . S
H100 C115 0.959 . S
H101 C115 0.961 . S
H102 C116 0.960 . S
H103 C116 0.961 . S
H104 C116 0.959 . S
H105 C119 0.929 . S
H106 C120 0.931 . S
H107 C122 0.930 . S
C108 H96 0.930 . S
C108 C109 1.399 . S
C108 C113 1.399 . S
C109 C108 1.399 . S
C109 C110 1.376 . S
C110 H97 0.930 . S
C110 C109 1.376 . S
C110 C111 1.388 . S
C111 H98 0.930 . S
C111 C110 1.388 . S
C111 C112 1.390 . S
C112 C111 1.390 . S
C112 C113 1.394 . S
C112 C118 1.465 . S
C113 C108 1.399 . S
C113 C112 1.394 . S
C113 C114 1.516 . S
C114 C113 1.516 . S
C114 C115 1.502 . S
C114 C116 1.561 . S
C114 C117 1.526 . S
C115 H99 0.959 . S
C115 H100 0.959 . S
C115 H101 0.961 . S
C115 C114 1.502 . S
C116 H102 0.960 . S
C116 H103 0.961 . S
C116 H104 0.959 . S
C116 C114 1.561 . S
C117 C114 1.526 . S
C117 C118 1.396 . S
C117 C122 1.390 . S
C118 C112 1.465 . S
C118 C117 1.396 . S
C118 C119 1.399 . S
C119 H105 0.929 . S
C119 C118 1.399 . S
C119 C120 1.385 . S
C120 H106 0.931 . S
C120 C119 1.385 . S
C120 C121 1.389 . S
C121 C120 1.389 . S
C121 C122 1.387 . S
C122 H107 0.930 . S
C122 C117 1.390 . S
C122 C121 1.387 . S
H123 C135 0.930 . S
H124 C137 0.930 . S
H125 C138 0.930 . S
H126 C142 0.959 . S
H127 C142 0.959 . S
H128 C142 0.961 . S
H129 C143 0.960 . S
H130 C143 0.961 . S
H131 C143 0.959 . S
H132 C146 0.929 . S
H133 C147 0.931 . S
H134 C149 0.930 . S
C135 H123 0.930 . S
C135 C136 1.399 . S
C135 C140 1.399 . S
C136 C135 1.399 . S
C136 C137 1.376 . S
C137 H124 0.930 . S
C137 C136 1.376 . S
C137 C138 1.388 . S
C138 H125 0.930 . S
C138 C137 1.388 . S
C138 C139 1.390 . S
C139 C138 1.390 . S
C139 C140 1.394 . S
C139 C145 1.465 . S
C140 C135 1.399 . S
C140 C139 1.394 . S
C140 C141 1.516 . S
C141 C140 1.516 . S
C141 C142 1.502 . S
C141 C143 1.561 . S
C141 C144 1.526 . S
C142 H126 0.959 . S
C142 H127 0.959 . S
C142 H128 0.961 . S
C142 C141 1.502 . S
C143 H129 0.960 . S
C143 H130 0.961 . S
C143 H131 0.959 . S
C143 C141 1.561 . S
C144 C141 1.526 . S
C144 C145 1.396 . S
C144 C149 1.390 . S
C145 C139 1.465 . S
C145 C144 1.396 . S
C145 C146 1.399 . S
C146 H132 0.929 . S
C146 C145 1.399 . S
C146 C147 1.385 . S
C147 H133 0.931 . S
C147 C146 1.385 . S
C147 C148 1.389 . S
C148 C147 1.389 . S
C148 C149 1.387 . S
C149 H134 0.930 . S
C149 C144 1.390 . S
C149 C148 1.387 . S
H150 C162 0.930 . S
H151 C164 0.930 . S
H152 C165 0.930 . S
H153 C169 0.959 . S
H154 C169 0.959 . S
H155 C169 0.961 . S
H156 C170 0.960 1_556 S
H157 C170 0.961 . S
H158 C170 0.959 . S
H159 C173 0.929 . S
H160 C174 0.931 . S
H161 C176 0.930 . S
C162 H150 0.930 . S
C162 C163 1.399 . S
C162 C167 1.399 . S
C163 C162 1.399 . S
C163 C164 1.376 . S
C164 H151 0.930 . S
C164 C163 1.376 . S
C164 C165 1.388 1_556 S
C165 H152 0.930 . S
C165 C164 1.388 1_554 S
C165 C166 1.390 . S
C166 C165 1.390 . S
C166 C167 1.394 1_554 S
C166 C172 1.465 . S
C167 C162 1.399 . S
C167 C166 1.394 1_556 S
C167 C168 1.516 . S
C168 C167 1.516 . S
C168 C169 1.502 . S
C168 C170 1.561 1_556 S
C168 C171 1.526 1_556 S
C169 H153 0.959 . S
C169 H154 0.959 . S
C169 H155 0.961 . S
C169 C168 1.502 . S
C170 H156 0.960 1_554 S
C170 H157 0.961 . S
C170 H158 0.959 . S
C170 C168 1.561 1_554 S
C171 C168 1.526 1_554 S
C171 C172 1.396 . S
C171 C176 1.390 . S
C172 C166 1.465 . S
C172 C171 1.396 . S
C172 C173 1.399 . S
C173 H159 0.929 . S
C173 C172 1.399 . S
C173 C174 1.385 . S
C174 H160 0.931 . S
C174 C173 1.385 . S
C174 C175 1.389 . S
C175 C174 1.389 . S
C175 C176 1.387 . S
C176 H161 0.930 . S
C176 C171 1.390 . S
C176 C175 1.387 . S
H177 C189 0.930 . S
H178 C191 0.930 . S
H179 C192 0.930 . S
H180 C196 0.959 . S
H181 C196 0.959 . S
H182 C196 0.961 . S
H183 C197 0.960 . S
H184 C197 0.961 . S
H185 C197 0.959 . S
H186 C200 0.929 . S
H187 C201 0.931 . S
H188 C203 0.930 . S
C189 H177 0.930 . S
C189 C190 1.399 . S
C189 C194 1.399 . S
C190 C189 1.399 . S
C190 C191 1.376 . S
C191 H178 0.930 . S
C191 C190 1.376 . S
C191 C192 1.388 . S
C192 H179 0.930 . S
C192 C191 1.388 . S
C192 C193 1.390 . S
C193 C192 1.390 . S
C193 C194 1.394 . S
C193 C199 1.465 . S
C194 C189 1.399 . S
C194 C193 1.394 . S
C194 C195 1.516 . S
C195 C194 1.516 . S
C195 C196 1.502 . S
C195 C197 1.561 . S
C195 C198 1.526 . S
C196 H180 0.959 . S
C196 H181 0.959 . S
C196 H182 0.961 . S
C196 C195 1.502 . S
C197 H183 0.960 . S
C197 H184 0.961 . S
C197 H185 0.959 . S
C197 C195 1.561 . S
C198 C195 1.526 . S
C198 C199 1.396 . S
C198 C203 1.390 . S
C199 C193 1.465 . S
C199 C198 1.396 . S
C199 C200 1.399 . S
C200 H186 0.929 . S
C200 C199 1.399 . S
C200 C201 1.385 . S
C201 H187 0.931 . S
C201 C200 1.385 . S
C201 C202 1.389 . S
C202 C201 1.389 . S
C202 C203 1.387 . S
C203 H188 0.930 . S
C203 C198 1.390 . S
C203 C202 1.387 . S
H204 C216 0.930 . S
H205 C218 0.930 . S
H206 C219 0.930 . S
H207 C223 0.959 . S
H208 C223 0.959 . S
H209 C223 0.961 . S
H210 C224 0.960 . S
H211 C224 0.961 . S
H212 C224 0.959 . S
H213 C227 0.929 . S
H214 C228 0.931 . S
H215 C230 0.930 . S
C216 H204 0.930 . S
C216 C217 1.399 . S
C216 C221 1.399 . S
C217 C216 1.399 . S
C217 C218 1.376 . S
C218 H205 0.930 . S
C218 C217 1.376 . S
C218 C219 1.388 . S
C219 H206 0.930 . S
C219 C218 1.388 . S
C219 C220 1.390 . S
C220 C219 1.390 . S
C220 C221 1.394 . S
C220 C226 1.465 . S
C221 C216 1.399 . S
C221 C220 1.394 . S
C221 C222 1.516 . S
C222 C221 1.516 . S
C222 C223 1.502 . S
C222 C224 1.561 . S
C222 C225 1.526 . S
C223 H207 0.959 . S
C223 H208 0.959 . S
C223 H209 0.961 . S
C223 C222 1.502 . S
C224 H210 0.960 . S
C224 H211 0.961 . S
C224 H212 0.959 . S
C224 C222 1.561 . S
C225 C222 1.526 . S
C225 C226 1.396 . S
C225 C230 1.390 . S
C226 C220 1.465 . S
C226 C225 1.396 . S
C226 C227 1.399 . S
C227 H213 0.929 . S
C227 C226 1.399 . S
C227 C228 1.385 . S
C228 H214 0.931 . S
C228 C227 1.385 . S
C228 C229 1.389 . S
C229 C228 1.389 . S
C229 C230 1.387 . S
C230 H215 0.930 . S
C230 C225 1.390 . S
C230 C229 1.387 . S
H231 C243 0.930 . S
H232 C245 0.930 . S
H233 C246 0.930 . S
H234 C250 0.959 . S
H235 C250 0.959 . S
H236 C250 0.961 . S
H237 C251 0.960 . S
H238 C251 0.961 . S
H239 C251 0.959 . S
H240 C254 0.929 . S
H241 C255 0.931 . S
H242 C257 0.930 . S
C243 H231 0.930 . S
C243 C244 1.399 . S
C243 C248 1.399 . S
C244 C243 1.399 . S
C244 C245 1.376 . S
C245 H232 0.930 . S
C245 C244 1.376 . S
C245 C246 1.388 . S
C246 H233 0.930 . S
C246 C245 1.388 . S
C246 C247 1.390 . S
C247 C246 1.390 . S
C247 C248 1.394 . S
C247 C253 1.465 . S
C248 C243 1.399 . S
C248 C247 1.394 . S
C248 C249 1.516 . S
C249 C248 1.516 . S
C249 C250 1.502 1_455 S
C249 C251 1.561 . S
C249 C252 1.526 . S
C250 H234 0.959 . S
C250 H235 0.959 . S
C250 H236 0.961 . S
C250 C249 1.502 1_655 S
C251 H237 0.960 . S
C251 H238 0.961 . S
C251 H239 0.959 . S
C251 C249 1.561 . S
C252 C249 1.526 . S
C252 C253 1.396 . S
C252 C257 1.390 . S
C253 C247 1.465 . S
C253 C252 1.396 . S
C253 C254 1.399 . S
C254 H240 0.929 . S
C254 C253 1.399 . S
C254 C255 1.385 . S
C255 H241 0.931 . S
C255 C254 1.385 . S
C255 C256 1.389 . S
C256 C255 1.389 . S
C256 C257 1.387 . S
C257 H242 0.930 . S
C257 C252 1.390 . S
C257 C256 1.387 . S
H258 C270 0.930 . S
H259 C272 0.930 . S
H260 C273 0.930 . S
H261 C277 0.959 . S
H262 C277 0.959 . S
H263 C277 0.961 1_554 S
H264 C278 0.960 . S
H265 C278 0.961 1_556 S
H266 C278 0.959 1_556 S
H267 C281 0.929 . S
H268 C282 0.931 . S
H269 C284 0.930 . S
C270 H258 0.930 . S
C270 C271 1.399 1_565 S
C270 C275 1.399 1_565 S
C271 C270 1.399 1_545 S
C271 C272 1.376 . S
C272 H259 0.930 . S
C272 C271 1.376 . S
C272 C273 1.388 . S
C273 H260 0.930 . S
C273 C272 1.388 . S
C273 C274 1.390 . S
C274 C273 1.390 . S
C274 C275 1.394 . S
C274 C280 1.465 1_554 S
C275 C270 1.399 1_545 S
C275 C274 1.394 . S
C275 C276 1.526 1_545 S
C276 C275 1.526 1_565 S
C276 C277 1.501 1_554 S
C276 C278 1.561 . S
C276 C279 1.516 1_564 S
C277 H261 0.959 . S
C277 H262 0.959 . S
C277 H263 0.961 1_556 S
C277 C276 1.501 1_556 S
C278 H264 0.960 . S
C278 H265 0.961 1_554 S
C278 H266 0.959 1_554 S
C278 C276 1.561 . S
C279 C276 1.516 1_546 S
C279 C280 1.396 . S
C279 C284 1.390 1_545 S
C280 C274 1.465 1_556 S
C280 C279 1.396 . S
C280 C281 1.399 . S
C281 H267 0.929 . S
C281 C280 1.399 . S
C281 C282 1.385 . S
C282 H268 0.931 . S
C282 C281 1.385 . S
C282 C283 1.389 . S
C283 C282 1.389 . S
C283 C284 1.387 1_545 S
C284 H269 0.930 . S
C284 C279 1.390 1_565 S
C284 C283 1.387 1_565 S
H285 C297 0.930 . S
H286 C299 0.930 . S
H287 C300 0.930 . S
H288 C304 0.959 . S
H289 C304 0.959 . S
H290 C304 0.961 . S
H291 C305 0.960 . S
H292 C305 0.961 . S
H293 C305 0.959 . S
H294 C308 0.929 . S
H295 C309 0.931 . S
H296 C311 0.930 . S
C297 H285 0.930 . S
C297 C298 1.399 . S
C297 C302 1.399 . S
C298 C297 1.399 . S
C298 C299 1.376 . S
C299 H286 0.930 . S
C299 C298 1.376 . S
C299 C300 1.388 . S
C300 H287 0.930 . S
C300 C299 1.388 . S
C300 C301 1.390 . S
C301 C300 1.390 . S
C301 C302 1.394 . S
C301 C307 1.465 . S
C302 C297 1.399 . S
C302 C301 1.394 . S
C302 C303 1.516 . S
C303 C302 1.516 . S
C303 C304 1.502 . S
C303 C305 1.561 . S
C303 C306 1.526 . S
C304 H288 0.959 . S
C304 H289 0.959 . S
C304 H290 0.961 . S
C304 C303 1.502 . S
C305 H291 0.960 . S
C305 H292 0.961 . S
C305 H293 0.959 . S
C305 C303 1.561 . S
C306 C303 1.526 . S
C306 C307 1.396 . S
C306 C311 1.390 . S
C307 C301 1.465 . S
C307 C306 1.396 . S
C307 C308 1.399 . S
C308 H294 0.929 . S
C308 C307 1.399 . S
C308 C309 1.385 . S
C309 H295 0.931 . S
C309 C308 1.385 . S
C309 C310 1.389 . S
C310 C309 1.389 . S
C310 C311 1.387 . S
C311 H296 0.930 . S
C311 C306 1.390 . S
C311 C310 1.387 . S
C82 C18 1.412 . S
C94 C65 1.412 . S
C109 C41 1.404 . S
C121 C20 1.348 . S
C136 C43 1.357 . S
C148 C64 1.352 . S
C163 C66 1.278 . S
C175 C21 1.332 . S
C190 C44 1.341 . S
C202 C19 1.302 . S
C217 C67 1.374 . S
C229 C42 1.342 . S
C244 C16 0.965 . S
C256 C17 0.950 . S
C271 C39 0.955 . S
C283 C40 0.963 . S
C298 C62 0.961 . S
C310 C63 0.953 . S
