# Generated by pormake.
# Topology rac, (4)-cn, num edge types: 1
# Building blocks:
#     Node 0, Type 0, BuildingBlock: QUQFOY_clean_sbu_1, # of connection points: 4
#     Node 1, Type 0, BuildingBlock: QUQFOY_clean_sbu_1, # of connection points: 4
#     Node 2, Type 0, BuildingBlock: QUQFOY_clean_sbu_1, # of connection points: 4
#     Node 3, Type 0, BuildingBlock: QUQFOY_clean_sbu_1, # of connection points: 4
#     Node 4, Type 0, BuildingBlock: QUQFOY_clean_sbu_1, # of connection points: 4
#     Node 5, Type 0, BuildingBlock: QUQFOY_clean_sbu_1, # of connection points: 4
#     Node 6, Type 0, BuildingBlock: QUQFOY_clean_sbu_1, # of connection points: 4
#     Node 7, Type 0, BuildingBlock: QUQFOY_clean_sbu_1, # of connection points: 4
#     Edge 8, Type (0, 0), BuildingBlock: XIVTED_clean_linker_0, # of connection points: 2
#     Edge 9, Type (0, 0), BuildingBlock: XIVTED_clean_linker_0, # of connection points: 2
#     Edge 10, Type (0, 0), BuildingBlock: XIVTED_clean_linker_0, # of connection points: 2
#     Edge 11, Type (0, 0), BuildingBlock: XIVTED_clean_linker_0, # of connection points: 2
#     Edge 12, Type (0, 0), BuildingBlock: XIVTED_clean_linker_0, # of connection points: 2
#     Edge 13, Type (0, 0), BuildingBlock: XIVTED_clean_linker_0, # of connection points: 2
#     Edge 14, Type (0, 0), BuildingBlock: XIVTED_clean_linker_0, # of connection points: 2
#     Edge 15, Type (0, 0), BuildingBlock: XIVTED_clean_linker_0, # of connection points: 2
#     Edge 16, Type (0, 0), BuildingBlock: XIVTED_clean_linker_0, # of connection points: 2
#     Edge 17, Type (0, 0), BuildingBlock: XIVTED_clean_linker_0, # of connection points: 2
#     Edge 18, Type (0, 0), BuildingBlock: XIVTED_clean_linker_0, # of connection points: 2
#     Edge 19, Type (0, 0), BuildingBlock: XIVTED_clean_linker_0, # of connection points: 2
#     Edge 20, Type (0, 0), BuildingBlock: XIVTED_clean_linker_0, # of connection points: 2
#     Edge 21, Type (0, 0), BuildingBlock: XIVTED_clean_linker_0, # of connection points: 2
#     Edge 22, Type (0, 0), BuildingBlock: XIVTED_clean_linker_0, # of connection points: 2
#     Edge 23, Type (0, 0), BuildingBlock: XIVTED_clean_linker_0, # of connection points: 2
# Relax obj value: 0.259
# Max RMSD: 0.150
# Mean RMSD: 0.150
data_MOF--net-rac--node1-QUQFOY_clean_sbu_1--edge1-XIVTED_clean_linker_0
_symmetry_space_group_name_H-M    P1
_symmetry_Int_Tables_number       1
_symmetry_cell_setting            triclinic
loop_
_symmetry_equiv_pos_as_xyz
'x, y, z'
_cell_length_a     41.631784
_cell_length_b     20.518416
_cell_length_c     46.952103
_cell_angle_alpha  90.09762
_cell_angle_beta   89.981368
_cell_angle_gamma 90.003817
loop_
_atom_site_label
_atom_site_type_symbol
_atom_site_fract_x
_atom_site_fract_y
_atom_site_fract_z
_atom_type_partial_charge
O0 O 0.36592 0.30638 0.0417 0.0
Cd1 Cd 0.40032 0.23763 0.03729 0.0
Cd2 Cd 0.39352 0.23338 0.09674 0.0
O3 O 0.37903 0.32627 0.08624 0.0
O4 O 0.42715 0.26877 0.00485 0.0
O5 O 0.44347 0.2697 0.04989 0.0
C6 C 0.44777 0.28799 0.02374 0.0
C7 C 0.4013 0.22802 0.14669 0.0
C8 C 0.36425 0.34202 0.06366 0.0
C9 C 0.36326 0.12731 0.05697 0.0
O10 O 0.36604 0.15718 0.08066 0.0
O11 O 0.37981 0.14538 0.03552 0.0
O12 O 0.37357 0.23455 0.13525 0.0
O13 O 0.42551 0.22213 0.12976 0.0
O14 O 0.16988 0.67346 0.0471 0.0
Cd15 Cd 0.1324 0.73545 0.04346 0.0
Cd16 Cd 0.14344 0.75199 0.10221 0.0
O17 O 0.17021 0.66981 0.09403 0.0
O18 O 0.10619 0.69808 0.01175 0.0
O19 O 0.09056 0.69774 0.05691 0.0
C20 C 0.08634 0.6777 0.03099 0.0
C21 C 0.13242 0.76146 0.15157 0.0
C22 C 0.18051 0.6498 0.07012 0.0
C23 C 0.16284 0.85962 0.05902 0.0
O24 O 0.16179 0.83586 0.08403 0.0
O25 O 0.14894 0.83051 0.0384 0.0
O26 O 0.16062 0.76872 0.14111 0.0
O27 O 0.10941 0.74975 0.13395 0.0
O28 O 0.36189 0.16988 0.46388 0.0
Cd29 Cd 0.39885 0.233 0.46808 0.0
Cd30 Cd 0.38893 0.24819 0.40905 0.0
O31 O 0.36389 0.16376 0.41703 0.0
O32 O 0.42505 0.19624 0.49986 0.0
O33 O 0.44095 0.19641 0.45475 0.0
C34 C 0.44509 0.17631 0.48065 0.0
C35 C 0.39937 0.25842 0.35964 0.0
C36 C 0.35278 0.14429 0.4407 0.0
C37 C 0.36748 0.35535 0.45207 0.0
O38 O 0.369 0.33086 0.42718 0.0
O39 O 0.38162 0.32761 0.47288 0.0
O40 O 0.37114 0.26333 0.37028 0.0
O41 O 0.42274 0.24873 0.3771 0.0
O42 O 0.16593 0.8015 0.47 0.0
Cd43 Cd 0.13072 0.73427 0.47357 0.0
Cd44 Cd 0.13808 0.73008 0.41422 0.0
O45 O 0.15432 0.82157 0.42515 0.0
O46 O 0.1036 0.76562 0.50584 0.0
O47 O 0.08818 0.76868 0.46058 0.0
C48 C 0.08355 0.7863 0.4868 0.0
C49 C 0.13008 0.72622 0.36425 0.0
C50 C 0.16876 0.83664 0.44803 0.0
C51 C 0.16668 0.62217 0.45367 0.0
O52 O 0.16438 0.65208 0.43 0.0
O53 O 0.15028 0.64114 0.47509 0.0
O54 O 0.15794 0.73063 0.37566 0.0
O55 O 0.10585 0.72151 0.38121 0.0
O56 O 0.66936 0.67335 0.96089 0.0
Cd57 Cd 0.63195 0.73528 0.9655 0.0
Cd58 Cd 0.64289 0.75383 0.90675 0.0
O59 O 0.66957 0.67118 0.91394 0.0
O60 O 0.60662 0.69699 0.99756 0.0
O61 O 0.5897 0.69787 0.95279 0.0
C62 C 0.58621 0.67715 0.97866 0.0
C63 C 0.6316 0.76575 0.85757 0.0
C64 C 0.67992 0.65041 0.93766 0.0
C65 C 0.66275 0.85952 0.95093 0.0
O66 O 0.66161 0.83653 0.92575 0.0
O67 O 0.64865 0.83006 0.97132 0.0
O68 O 0.65986 0.77257 0.86795 0.0
O69 O 0.6087 0.75307 0.87516 0.0
O70 O 0.86524 0.30747 0.96947 0.0
Cd71 Cd 0.89959 0.23862 0.97362 0.0
Cd72 Cd 0.89275 0.23478 0.91381 0.0
O73 O 0.87832 0.32746 0.92493 0.0
O74 O 0.92682 0.26959 0.00586 0.0
O75 O 0.94259 0.27054 0.96065 0.0
C76 C 0.94722 0.28877 0.98679 0.0
C77 C 0.89921 0.22992 0.86368 0.0
C78 C 0.86359 0.34319 0.94758 0.0
C79 C 0.86302 0.1278 0.95345 0.0
O80 O 0.86588 0.15775 0.92983 0.0
O81 O 0.87914 0.14631 0.9751 0.0
O82 O 0.8718 0.23638 0.87574 0.0
O83 O 0.92387 0.22411 0.88006 0.0
O84 O 0.66627 0.80502 0.53898 0.0
Cd85 Cd 0.63163 0.7364 0.53598 0.0
Cd86 Cd 0.63852 0.73642 0.59491 0.0
O87 O 0.65224 0.82889 0.5829 0.0
O88 O 0.60343 0.76617 0.50426 0.0
O89 O 0.58921 0.76941 0.54987 0.0
C90 C 0.58378 0.78657 0.52374 0.0
C91 C 0.63039 0.73484 0.64485 0.0
C92 C 0.66745 0.84274 0.56029 0.0
C93 C 0.66891 0.62784 0.55674 0.0
O94 O 0.66647 0.65965 0.57997 0.0
O95 O 0.6519 0.64393 0.53528 0.0
O96 O 0.65815 0.7418 0.63348 0.0
O97 O 0.60642 0.72627 0.62789 0.0
O98 O 0.86212 0.17405 0.54461 0.0
Cd99 Cd 0.89976 0.23589 0.54192 0.0
Cd100 Cd 0.88843 0.24936 0.60075 0.0
O101 O 0.8622 0.16705 0.59147 0.0
O102 O 0.92635 0.20012 0.51011 0.0
O103 O 0.94124 0.19675 0.55544 0.0
C104 C 0.94579 0.1782 0.52935 0.0
C105 C 0.89868 0.25646 0.65033 0.0
C106 C 0.85174 0.14868 0.56737 0.0
C107 C 0.86916 0.3591 0.55861 0.0
O108 O 0.8699 0.33388 0.58334 0.0
O109 O 0.8834 0.33131 0.53781 0.0
O110 O 0.87057 0.26306 0.63964 0.0
O111 O 0.92205 0.24681 0.63282 0.0
H112 H 0.33489 0.07726 0.00794 0.0
H113 H 0.18308 0.95122 0.09687 0.0
H114 H 0.32843 0.07207 0.09966 0.0
H115 H 0.19863 0.88547 0.01068 0.0
H116 H 0.23246 0.01445 0.09427 0.0
H117 H 0.28326 0.01832 0.00528 0.0
C118 C 0.32308 0.06271 0.02747 0.0
C119 C 0.33617 0.08003 0.05409 0.0
C120 C 0.22498 0.9869 0.07573 0.0
C121 C 0.27667 0.01491 0.05111 0.0
C122 C 0.19646 0.9514 0.07707 0.0
C123 C 0.18661 0.91264 0.05402 0.0
C124 C 0.24417 0.98399 0.05114 0.0
C125 C 0.20514 0.91497 0.02892 0.0
C126 C 0.29344 0.02973 0.02591 0.0
C127 C 0.31942 0.06042 0.07863 0.0
N128 N 0.23327 0.94939 0.02823 0.0
N129 N 0.2906 0.02982 0.07651 0.0
H130 H 0.19542 0.57419 0.5028 0.0
H131 H 0.34589 0.4435 0.4134 0.0
H132 H 0.20019 0.56294 0.4111 0.0
H133 H 0.3319 0.38297 0.50044 0.0
H134 H 0.29617 0.50558 0.41583 0.0
H135 H 0.24691 0.51484 0.5054 0.0
C136 C 0.20681 0.55811 0.48327 0.0
C137 C 0.19333 0.57397 0.45666 0.0
C138 C 0.30404 0.47939 0.43458 0.0
C139 C 0.25268 0.50838 0.45954 0.0
C140 C 0.33276 0.44454 0.43332 0.0
C141 C 0.34318 0.40759 0.4567 0.0
C142 C 0.28524 0.47773 0.45942 0.0
C143 C 0.32495 0.41104 0.48195 0.0
C144 C 0.23637 0.52492 0.48479 0.0
C145 C 0.20954 0.55246 0.43211 0.0
N146 N 0.29664 0.44487 0.48257 0.0
N147 N 0.23832 0.52171 0.43417 0.0
H148 H 0.69626 0.88722 1.00047 0.0
H149 H 0.83217 0.06559 0.91022 0.0
H150 H 0.68615 0.94765 0.91298 0.0
H151 H 0.83174 0.0823 1.00186 0.0
H152 H 0.78147 0.00733 0.91239 0.0
H153 H 0.74653 0.95044 1.00349 0.0
C154 C 0.70397 0.91532 0.9822 0.0
C155 C 0.68688 0.91177 0.95636 0.0
C156 C 0.79243 0.02331 0.93212 0.0
C157 C 0.74491 0.98183 0.9594 0.0
C158 C 0.8217 0.0561 0.93094 0.0
C159 C 0.83638 0.07947 0.95588 0.0
C160 C 0.77735 0.01293 0.95847 0.0
C161 C 0.82145 0.06503 0.98207 0.0
C162 C 0.73291 0.95066 0.98385 0.0
C163 C 0.69847 0.9484 0.93329 0.0
N164 N 0.79263 0.03294 0.9827 0.0
N165 N 0.72683 0.98083 0.93524 0.0
H166 H 0.69669 0.57473 0.50808 0.0
H167 H 0.84871 0.44906 0.59712 0.0
H168 H 0.70441 0.57579 0.59975 0.0
H169 H 0.83359 0.38677 0.51039 0.0
H170 H 0.79941 0.5126 0.5948 0.0
H171 H 0.74825 0.51565 0.50558 0.0
C172 C 0.70878 0.56152 0.52766 0.0
C173 C 0.69604 0.58058 0.55418 0.0
C174 C 0.80695 0.48575 0.57608 0.0
C175 C 0.75548 0.51518 0.55137 0.0
C176 C 0.83543 0.45008 0.57727 0.0
C177 C 0.8454 0.41227 0.55395 0.0
C178 C 0.7879 0.48387 0.5514 0.0
C179 C 0.827 0.41557 0.52883 0.0
C180 C 0.73838 0.52846 0.52618 0.0
C181 C 0.71314 0.56269 0.57878 0.0
N182 N 0.7989 0.45007 0.5283 0.0
N183 N 0.7419 0.53184 0.57673 0.0
H184 H 0.45596 0.21684 0.18031 0.0
H185 H 0.3561 0.30175 0.32117 0.0
H186 H 0.35341 0.24653 0.18483 0.0
H187 H 0.45169 0.22133 0.32673 0.0
H188 H 0.3591 0.29594 0.26977 0.0
H189 H 0.45865 0.22822 0.23266 0.0
C190 C 0.43409 0.22542 0.19223 0.0
C191 C 0.40442 0.2308 0.17812 0.0
C192 C 0.37955 0.27951 0.28206 0.0
C193 C 0.40741 0.24472 0.23749 0.0
C194 C 0.3779 0.28306 0.31154 0.0
C195 C 0.40354 0.26129 0.32835 0.0
C196 C 0.40704 0.25371 0.2689 0.0
C197 C 0.43132 0.23842 0.31451 0.0
C198 C 0.43566 0.23199 0.22201 0.0
C199 C 0.37685 0.24204 0.1946 0.0
N200 N 0.43229 0.23471 0.28547 0.0
N201 N 0.37909 0.24884 0.2232 0.0
H202 H 0.07541 0.71544 0.33059 0.0
H203 H 0.17449 0.80809 0.19044 0.0
H204 H 0.17783 0.74701 0.32623 0.0
H205 H 0.08056 0.72022 0.18405 0.0
H206 H 0.17121 0.80154 0.24183 0.0
H207 H 0.07264 0.72823 0.27831 0.0
C208 C 0.09723 0.72477 0.31873 0.0
C209 C 0.1269 0.73016 0.33285 0.0
C210 C 0.15119 0.78365 0.22935 0.0
C211 C 0.1238 0.74575 0.27359 0.0
C212 C 0.153 0.78761 0.19988 0.0
C213 C 0.12793 0.76391 0.18285 0.0
C214 C 0.12413 0.75552 0.24224 0.0
C215 C 0.10049 0.7388 0.19644 0.0
C216 C 0.09562 0.73211 0.28899 0.0
C217 C 0.1544 0.74238 0.31645 0.0
N218 N 0.09938 0.73472 0.22547 0.0
N219 N 0.15212 0.74999 0.2879 0.0
H220 H 0.67231 0.81909 0.81929 0.0
H221 H 0.57647 0.71458 0.6786 0.0
H222 H 0.58072 0.72139 0.82471 0.0
H223 H 0.67672 0.76768 0.68264 0.0
H224 H 0.5732 0.72727 0.73086 0.0
H225 H 0.66915 0.81487 0.76783 0.0
C226 C 0.65134 0.79697 0.80961 0.0
C227 C 0.62693 0.76985 0.82637 0.0
C228 C 0.59581 0.73601 0.72013 0.0
C229 C 0.6233 0.76398 0.7669 0.0
C230 C 0.59771 0.72874 0.69039 0.0
C231 C 0.62694 0.73988 0.6762 0.0
C232 C 0.62323 0.7553 0.73547 0.0
C233 C 0.65368 0.75827 0.6925 0.0
C234 C 0.64959 0.79436 0.7801 0.0
C235 C 0.60013 0.74268 0.81252 0.0
N236 N 0.65112 0.76551 0.72106 0.0
N237 N 0.59912 0.73983 0.78347 0.0
H238 H 0.9521 0.22388 0.6827 0.0
H239 H 0.85011 0.24613 0.82661 0.0
H240 H 0.85413 0.29103 0.68951 0.0
H241 H 0.95296 0.21945 0.82882 0.0
H242 H 0.85238 0.25516 0.77539 0.0
H243 H 0.9546 0.21742 0.73517 0.0
C244 C 0.93131 0.23781 0.69516 0.0
C245 C 0.90277 0.2575 0.68167 0.0
C246 C 0.8746 0.24742 0.78688 0.0
C247 C 0.90538 0.24966 0.74125 0.0
C248 C 0.87331 0.24193 0.81631 0.0
C249 C 0.90142 0.23211 0.83218 0.0
C250 C 0.90423 0.24288 0.77276 0.0
C251 C 0.93071 0.22706 0.81739 0.0
C252 C 0.93273 0.23395 0.72503 0.0
C253 C 0.87655 0.27493 0.69882 0.0
N254 N 0.9314 0.23245 0.78839 0.0
N255 N 0.87848 0.27025 0.72751 0.0
H256 H 0.49073 0.34913 0.05935 0.0
H257 H 0.54407 0.61438 0.94277 0.0
H258 H 0.45918 0.34515 0.97184 0.0
H259 H 0.57595 0.61755 0.03019 0.0
H260 H 0.51226 0.51687 0.95313 0.0
H261 H 0.52321 0.44551 0.04876 0.0
C262 C 0.49105 0.3677 0.03778 0.0
C263 C 0.47215 0.33856 0.01647 0.0
C264 C 0.52604 0.53913 0.97011 0.0
C265 C 0.50888 0.45036 1.0043 0.0
C266 C 0.54402 0.5953 0.96426 0.0
C267 C 0.56273 0.62465 0.98563 0.0
C268 C 0.52675 0.51169 0.99754 0.0
C269 C 0.56186 0.59698 0.01302 0.0
C270 C 0.50941 0.42325 0.03179 0.0
C271 C 0.47339 0.36557 0.98897 0.0
N272 N 0.54437 0.54209 0.01812 0.0
N273 N 0.4912 0.41999 0.98375 0.0
H274 H 0.04511 0.61427 0.06742 0.0
H275 H 0.98961 0.35012 0.9508 0.0
H276 H 0.07486 0.61891 0.97941 0.0
H277 H 0.95944 0.34557 0.0387 0.0
H278 H 0.02223 0.44646 0.96122 0.0
H279 H 1.01314 0.51679 0.05726 0.0
C280 C 0.04455 0.59552 0.04585 0.0
C281 C 0.06272 0.62527 0.02425 0.0
C282 C 1.0087 0.42409 0.97831 0.0
C283 C 0.02656 0.51234 0.01255 0.0
C284 C 0.99027 0.36855 0.97242 0.0
C285 C 0.97171 0.33927 0.99389 0.0
C286 C 1.00861 0.45103 0.00588 0.0
C287 C 0.97338 0.36611 0.02144 0.0
C288 C 0.02648 0.53937 0.04011 0.0
C289 C 0.0612 0.59803 0.99676 0.0
N290 N 0.99126 0.42052 0.02658 0.0
N291 N 0.04365 0.54313 0.99177 0.0
H292 H 0.54259 0.84958 0.56037 0.0
H293 H 0.48623 0.11281 0.44411 0.0
H294 H 0.57047 0.84229 0.47191 0.0
H295 H 0.45681 0.11792 0.53221 0.0
H296 H 0.51811 0.01524 0.45409 0.0
H297 H 0.51017 0.94631 0.55029 0.0
C298 C 0.54146 0.86749 0.53871 0.0
C299 C 0.55932 0.83732 0.51697 0.0
C300 C 0.50487 0.03794 0.4713 0.0
C301 C 0.52268 0.94953 0.50536 0.0
C302 C 0.48686 0.09416 0.46567 0.0
C303 C 0.46879 0.12405 0.48734 0.0
C304 C 0.50484 0.01099 0.49883 0.0
C305 C 0.47039 0.09692 0.5148 0.0
C306 C 0.52314 0.92325 0.53301 0.0
C307 C 0.55708 0.86351 0.48937 0.0
N308 N 0.48789 0.04196 0.5197 0.0
N309 N 0.53935 0.91816 0.48443 0.0
H310 H 0.959 0.12476 0.477 0.0
H311 H 0.07006 0.83861 0.53935 0.0
H312 H 0.98478 0.10905 0.56572 0.0
H313 H 0.04351 0.85376 0.45078 0.0
H314 H 0.03802 0.93576 0.5496 0.0
H315 H 0.99055 0.02692 0.46693 0.0
C316 C 0.97169 0.10142 0.49434 0.0
C317 C 0.96921 0.12562 0.52228 0.0
C318 C 0.03895 0.91757 0.52796 0.0
C319 C 1.00505 0.01212 0.51091 0.0
C320 C 0.05705 0.86159 0.5221 0.0
C321 C 0.05951 0.83752 0.49413 0.0
C322 C 0.02317 0.95026 0.5057 0.0
C323 C 0.04226 0.87008 0.47269 0.0
C324 C 0.98953 0.04506 0.48858 0.0
C325 C 0.98607 0.09262 0.54383 0.0
N326 N 0.02505 0.92483 0.47889 0.0
N327 N 1.00308 0.03754 0.53773 0.0
H328 H 0.20602 0.59177 0.02302 0.0
H329 H 0.34612 0.41574 0.10948 0.0
H330 H 0.21639 0.60354 0.11447 0.0
H331 H 0.33058 0.39229 0.01904 0.0
H332 H 0.30193 0.49364 0.11109 0.0
H333 H 0.25379 0.52377 0.02086 0.0
C334 C 0.21822 0.57965 0.04269 0.0
C335 C 0.20725 0.60329 0.06898 0.0
C336 C 0.30838 0.4718 0.09087 0.0
C337 C 0.26211 0.52619 0.0666 0.0
C338 C 0.33374 0.42772 0.08989 0.0
C339 C 0.3417 0.39694 0.06414 0.0
C340 C 0.29101 0.485 0.06594 0.0
C341 C 0.32497 0.41436 0.03941 0.0
C342 C 0.24559 0.5411 0.04142 0.0
C343 C 0.22398 0.5861 0.09377 0.0
N344 N 0.30018 0.45689 0.04097 0.0
N345 N 0.25071 0.54862 0.09196 0.0
H346 H 0.32002 0.09326 0.39539 0.0
H347 H 0.20125 0.88707 0.49342 0.0
H348 H 0.32565 0.0874 0.48727 0.0
H349 H 0.19007 0.90651 0.40232 0.0
H350 H 0.24619 0.96285 0.49167 0.0
H351 H 0.27277 0.02315 0.39737 0.0
C352 C 0.31152 0.0767 0.41595 0.0
C353 C 0.32668 0.09626 0.44122 0.0
C354 C 0.23374 0.95096 0.47209 0.0
C355 C 0.27255 0.01707 0.44363 0.0
C356 C 0.208 0.90793 0.4731 0.0
C357 C 0.19217 0.89005 0.44793 0.0
C358 C 0.24376 0.97583 0.44573 0.0
C359 C 0.20173 0.91881 0.42222 0.0
C360 C 0.28441 0.03718 0.41708 0.0
C361 C 0.31461 0.07365 0.46727 0.0
N362 N 0.2272 0.95989 0.42173 0.0
N363 N 0.28816 0.03531 0.4678 0.0
H364 H 0.71574 0.60542 0.89289 0.0
H365 H 0.83102 0.39536 0.99254 0.0
H366 H 0.70562 0.59135 0.98429 0.0
H367 H 0.84441 0.41495 0.90169 0.0
H368 H 0.7869 0.47294 0.99016 0.0
H369 H 0.76368 0.53731 0.89561 0.0
C370 C 0.72342 0.5875 0.91348 0.0
C371 C 0.70672 0.604 0.93841 0.0
C372 C 0.79967 0.46072 0.97077 0.0
C373 C 0.76162 0.52715 0.9417 0.0
C374 C 0.82494 0.41666 0.97214 0.0
C375 C 0.84106 0.39812 0.94721 0.0
C376 C 0.79039 0.48597 0.94427 0.0
C377 C 0.83244 0.42762 0.9214 0.0
C378 C 0.75092 0.54914 0.91504 0.0
C379 C 0.71781 0.57988 0.96454 0.0
N380 N 0.80735 0.46964 0.92054 0.0
N381 N 0.74463 0.54269 0.96549 0.0
H382 H 0.68355 0.92181 0.60493 0.0
H383 H 0.82665 0.09151 0.51985 0.0
H384 H 0.70311 0.88776 0.51573 0.0
H385 H 0.81533 0.10206 0.61125 0.0
H386 H 0.77861 0.02409 0.51715 0.0
H387 H 0.72785 -0.00063 0.60638 0.0
C388 C 0.69684 0.93138 0.58554 0.0
C389 C 0.68999 0.89769 0.56025 0.0
C390 C 0.7867 0.04102 0.53779 0.0
C391 C 0.74081 0.9854 0.56191 0.0
C392 C 0.81419 0.07922 0.53938 0.0
C393 C 0.82496 0.10232 0.56583 0.0
C394 C 0.76985 0.02611 0.56281 0.0
C395 C 0.80792 0.085 0.59043 0.0
C396 C 0.72227 0.97525 0.58645 0.0
C397 C 0.70786 0.91216 0.53575 0.0
N398 N 0.78106 0.04802 0.58831 0.0
N399 N 0.7327 0.95461 0.53726 0.0
loop_
_geom_bond_atom_site_label_1
_geom_bond_atom_site_label_2
_geom_bond_distance
_geom_bond_site_symmetry_2
_ccdc_geom_bond_type
O0 Cd1 2.223 . S
O0 C8 1.315 . S
Cd1 O0 2.223 . S
Cd1 O4 2.297 . S
Cd1 O5 2.439 . S
Cd1 O11 2.240 . S
Cd2 O3 2.240 . S
Cd2 O10 2.223 . S
Cd2 O12 2.297 . S
Cd2 O13 2.439 . S
O3 Cd2 2.240 . S
O3 C8 1.279 . S
O4 Cd1 2.297 . S
O4 C6 1.247 . S
O5 Cd1 2.439 . S
O5 C6 1.208 . S
C6 O4 1.247 . S
C6 O5 1.208 . S
C7 O12 1.247 . S
C7 O13 1.208 . S
C8 O0 1.315 . S
C8 O3 1.279 . S
C9 O10 1.315 . S
C9 O11 1.279 . S
O10 Cd2 2.223 . S
O10 C9 1.315 . S
O11 Cd1 2.240 . S
O11 C9 1.279 . S
O12 Cd2 2.297 . S
O12 C7 1.247 . S
O13 Cd2 2.439 . S
O13 C7 1.208 . S
O14 Cd15 2.223 . S
O14 C22 1.315 . S
Cd15 O14 2.223 . S
Cd15 O18 2.297 . S
Cd15 O19 2.439 . S
Cd15 O25 2.240 . S
Cd16 O17 2.240 . S
Cd16 O24 2.223 . S
Cd16 O26 2.297 . S
Cd16 O27 2.439 . S
O17 Cd16 2.240 . S
O17 C22 1.279 . S
O18 Cd15 2.297 . S
O18 C20 1.247 . S
O19 Cd15 2.439 . S
O19 C20 1.208 . S
C20 O18 1.247 . S
C20 O19 1.208 . S
C21 O26 1.247 . S
C21 O27 1.208 . S
C22 O14 1.315 . S
C22 O17 1.279 . S
C23 O24 1.315 . S
C23 O25 1.279 . S
O24 Cd16 2.223 . S
O24 C23 1.315 . S
O25 Cd15 2.240 . S
O25 C23 1.279 . S
O26 Cd16 2.297 . S
O26 C21 1.247 . S
O27 Cd16 2.439 . S
O27 C21 1.208 . S
O28 Cd29 2.223 . S
O28 C36 1.315 . S
Cd29 O28 2.223 . S
Cd29 O32 2.297 . S
Cd29 O33 2.439 . S
Cd29 O39 2.240 . S
Cd30 O31 2.240 . S
Cd30 O38 2.223 . S
Cd30 O40 2.297 . S
Cd30 O41 2.439 . S
O31 Cd30 2.240 . S
O31 C36 1.279 . S
O32 Cd29 2.297 . S
O32 C34 1.247 . S
O33 Cd29 2.439 . S
O33 C34 1.208 . S
C34 O32 1.247 . S
C34 O33 1.208 . S
C35 O40 1.247 . S
C35 O41 1.208 . S
C36 O28 1.315 . S
C36 O31 1.279 . S
C37 O38 1.315 . S
C37 O39 1.279 . S
O38 Cd30 2.223 . S
O38 C37 1.315 . S
O39 Cd29 2.240 . S
O39 C37 1.279 . S
O40 Cd30 2.297 . S
O40 C35 1.247 . S
O41 Cd30 2.439 . S
O41 C35 1.208 . S
O42 Cd43 2.223 . S
O42 C50 1.315 . S
Cd43 O42 2.223 . S
Cd43 O46 2.297 . S
Cd43 O47 2.439 . S
Cd43 O53 2.240 . S
Cd44 O45 2.240 . S
Cd44 O52 2.223 . S
Cd44 O54 2.297 . S
Cd44 O55 2.439 . S
O45 Cd44 2.240 . S
O45 C50 1.279 . S
O46 Cd43 2.297 . S
O46 C48 1.247 . S
O47 Cd43 2.439 . S
O47 C48 1.208 . S
C48 O46 1.247 . S
C48 O47 1.208 . S
C49 O54 1.247 . S
C49 O55 1.208 . S
C50 O42 1.315 . S
C50 O45 1.279 . S
C51 O52 1.315 . S
C51 O53 1.279 . S
O52 Cd44 2.223 . S
O52 C51 1.315 . S
O53 Cd43 2.240 . S
O53 C51 1.279 . S
O54 Cd44 2.297 . S
O54 C49 1.247 . S
O55 Cd44 2.439 . S
O55 C49 1.208 . S
O56 Cd57 2.223 . S
O56 C64 1.315 . S
Cd57 O56 2.223 . S
Cd57 O60 2.297 . S
Cd57 O61 2.439 . S
Cd57 O67 2.240 . S
Cd58 O59 2.240 . S
Cd58 O66 2.223 . S
Cd58 O68 2.297 . S
Cd58 O69 2.439 . S
O59 Cd58 2.240 . S
O59 C64 1.279 . S
O60 Cd57 2.297 . S
O60 C62 1.247 . S
O61 Cd57 2.439 . S
O61 C62 1.208 . S
C62 O60 1.247 . S
C62 O61 1.208 . S
C63 O68 1.247 . S
C63 O69 1.208 . S
C64 O56 1.315 . S
C64 O59 1.279 . S
C65 O66 1.315 . S
C65 O67 1.279 . S
O66 Cd58 2.223 . S
O66 C65 1.315 . S
O67 Cd57 2.240 . S
O67 C65 1.279 . S
O68 Cd58 2.297 . S
O68 C63 1.247 . S
O69 Cd58 2.439 . S
O69 C63 1.208 . S
O70 Cd71 2.223 . S
O70 C78 1.315 . S
Cd71 O70 2.223 . S
Cd71 O74 2.297 . S
Cd71 O75 2.439 . S
Cd71 O81 2.240 . S
Cd72 O73 2.240 . S
Cd72 O80 2.223 . S
Cd72 O82 2.297 . S
Cd72 O83 2.439 . S
O73 Cd72 2.240 . S
O73 C78 1.279 . S
O74 Cd71 2.297 . S
O74 C76 1.247 . S
O75 Cd71 2.439 . S
O75 C76 1.208 . S
C76 O74 1.247 . S
C76 O75 1.208 . S
C77 O82 1.247 . S
C77 O83 1.208 . S
C78 O70 1.315 . S
C78 O73 1.279 . S
C79 O80 1.315 . S
C79 O81 1.279 . S
O80 Cd72 2.223 . S
O80 C79 1.315 . S
O81 Cd71 2.240 . S
O81 C79 1.279 . S
O82 Cd72 2.297 . S
O82 C77 1.247 . S
O83 Cd72 2.439 . S
O83 C77 1.208 . S
O84 Cd85 2.223 . S
O84 C92 1.315 . S
Cd85 O84 2.223 . S
Cd85 O88 2.297 . S
Cd85 O89 2.439 . S
Cd85 O95 2.240 . S
Cd86 O87 2.240 . S
Cd86 O94 2.223 . S
Cd86 O96 2.297 . S
Cd86 O97 2.439 . S
O87 Cd86 2.240 . S
O87 C92 1.279 . S
O88 Cd85 2.297 . S
O88 C90 1.247 . S
O89 Cd85 2.439 . S
O89 C90 1.208 . S
C90 O88 1.247 . S
C90 O89 1.208 . S
C91 O96 1.247 . S
C91 O97 1.208 . S
C92 O84 1.315 . S
C92 O87 1.279 . S
C93 O94 1.315 . S
C93 O95 1.279 . S
O94 Cd86 2.223 . S
O94 C93 1.315 . S
O95 Cd85 2.240 . S
O95 C93 1.279 . S
O96 Cd86 2.297 . S
O96 C91 1.247 . S
O97 Cd86 2.439 . S
O97 C91 1.208 . S
O98 Cd99 2.223 . S
O98 C106 1.315 . S
Cd99 O98 2.223 . S
Cd99 O102 2.297 . S
Cd99 O103 2.439 . S
Cd99 O109 2.240 . S
Cd100 O101 2.240 . S
Cd100 O108 2.223 . S
Cd100 O110 2.297 . S
Cd100 O111 2.439 . S
O101 Cd100 2.240 . S
O101 C106 1.279 . S
O102 Cd99 2.297 . S
O102 C104 1.247 . S
O103 Cd99 2.439 . S
O103 C104 1.208 . S
C104 O102 1.247 . S
C104 O103 1.208 . S
C105 O110 1.247 . S
C105 O111 1.208 . S
C106 O98 1.315 . S
C106 O101 1.279 . S
C107 O108 1.315 . S
C107 O109 1.279 . S
O108 Cd100 2.223 . S
O108 C107 1.315 . S
O109 Cd99 2.240 . S
O109 C107 1.279 . S
O110 Cd100 2.297 . S
O110 C105 1.247 . S
O111 Cd100 2.439 . S
O111 C105 1.208 . S
H112 C118 0.930 . S
H113 C122 0.930 . S
H114 C127 0.929 . S
H115 C125 0.929 . S
H116 C120 0.929 1_545 S
H117 C126 0.929 1_565 S
C118 H112 0.930 . S
C118 C119 1.367 . S
C118 C126 1.378 . S
C119 C118 1.367 . S
C119 C127 1.433 . S
C120 H116 0.929 1_565 S
C120 C122 1.378 . S
C120 C124 1.350 . S
C121 C124 1.463 1_545 S
C121 C126 1.350 . S
C121 N129 1.427 . S
C122 H113 0.930 . S
C122 C120 1.378 . S
C122 C123 1.367 . S
C123 C122 1.367 . S
C123 C125 1.433 . S
C124 C120 1.350 . S
C124 C121 1.463 1_565 S
C124 N128 1.427 . S
C125 H115 0.929 . S
C125 C123 1.433 . S
C125 N128 1.384 . S
C126 H117 0.929 1_545 S
C126 C118 1.378 . S
C126 C121 1.350 . S
C127 H114 0.929 . S
C127 C119 1.433 . S
C127 N129 1.384 . S
N128 C124 1.427 . S
N128 C125 1.384 . S
N129 C121 1.427 . S
N129 C127 1.384 . S
H130 C136 0.930 . S
H131 C140 0.930 . S
H132 C145 0.929 . S
H133 C143 0.929 . S
H134 C138 0.929 . S
H135 C144 0.929 . S
C136 H130 0.930 . S
C136 C137 1.367 . S
C136 C144 1.378 . S
C137 C136 1.367 . S
C137 C145 1.433 . S
C138 H134 0.929 . S
C138 C140 1.378 . S
C138 C142 1.350 . S
C139 C142 1.463 . S
C139 C144 1.350 . S
C139 N147 1.427 . S
C140 H131 0.930 . S
C140 C138 1.378 . S
C140 C141 1.367 . S
C141 C140 1.367 . S
C141 C143 1.433 . S
C142 C138 1.350 . S
C142 C139 1.463 . S
C142 N146 1.427 . S
C143 H133 0.929 . S
C143 C141 1.433 . S
C143 N146 1.384 . S
C144 H135 0.929 . S
C144 C136 1.378 . S
C144 C139 1.350 . S
C145 H132 0.929 . S
C145 C137 1.433 . S
C145 N147 1.384 . S
N146 C142 1.427 . S
N146 C143 1.384 . S
N147 C139 1.427 . S
N147 C145 1.384 . S
H148 C154 0.930 . S
H149 C158 0.930 . S
H150 C163 0.929 . S
H151 C161 0.929 . S
H152 C156 0.929 . S
H153 C162 0.929 . S
C154 H148 0.930 . S
C154 C155 1.367 . S
C154 C162 1.378 . S
C155 C154 1.367 . S
C155 C163 1.433 . S
C156 H152 0.929 . S
C156 C158 1.378 . S
C156 C160 1.350 . S
C157 C160 1.463 1_565 S
C157 C162 1.350 . S
C157 N165 1.427 . S
C158 H149 0.930 . S
C158 C156 1.378 . S
C158 C159 1.367 . S
C159 C158 1.367 . S
C159 C161 1.433 . S
C160 C156 1.350 . S
C160 C157 1.463 1_545 S
C160 N164 1.427 . S
C161 H151 0.929 . S
C161 C159 1.433 . S
C161 N164 1.384 . S
C162 H153 0.929 . S
C162 C154 1.378 . S
C162 C157 1.350 . S
C163 H150 0.929 . S
C163 C155 1.433 . S
C163 N165 1.384 . S
N164 C160 1.427 . S
N164 C161 1.384 . S
N165 C157 1.427 . S
N165 C163 1.384 . S
H166 C172 0.930 . S
H167 C176 0.930 . S
H168 C181 0.929 . S
H169 C179 0.929 . S
H170 C174 0.929 . S
H171 C180 0.929 . S
C172 H166 0.930 . S
C172 C173 1.367 . S
C172 C180 1.378 . S
C173 C172 1.367 . S
C173 C181 1.433 . S
C174 H170 0.929 . S
C174 C176 1.378 . S
C174 C178 1.350 . S
C175 C178 1.463 . S
C175 C180 1.350 . S
C175 N183 1.427 . S
C176 H167 0.930 . S
C176 C174 1.378 . S
C176 C177 1.367 . S
C177 C176 1.367 . S
C177 C179 1.433 . S
C178 C174 1.350 . S
C178 C175 1.463 . S
C178 N182 1.427 . S
C179 H169 0.929 . S
C179 C177 1.433 . S
C179 N182 1.384 . S
C180 H171 0.929 . S
C180 C172 1.378 . S
C180 C175 1.350 . S
C181 H168 0.929 . S
C181 C173 1.433 . S
C181 N183 1.384 . S
N182 C178 1.427 . S
N182 C179 1.384 . S
N183 C175 1.427 . S
N183 C181 1.384 . S
H184 C190 0.930 . S
H185 C194 0.930 . S
H186 C199 0.929 . S
H187 C197 0.929 . S
H188 C192 0.929 . S
H189 C198 0.929 . S
C190 H184 0.930 . S
C190 C191 1.367 . S
C190 C198 1.378 . S
C191 C190 1.367 . S
C191 C199 1.433 . S
C192 H188 0.929 . S
C192 C194 1.378 . S
C192 C196 1.350 . S
C193 C196 1.463 . S
C193 C198 1.350 . S
C193 N201 1.427 . S
C194 H185 0.930 . S
C194 C192 1.378 . S
C194 C195 1.367 . S
C195 C194 1.367 . S
C195 C197 1.433 . S
C196 C192 1.350 . S
C196 C193 1.463 . S
C196 N200 1.427 . S
C197 H187 0.929 . S
C197 C195 1.433 . S
C197 N200 1.384 . S
C198 H189 0.929 . S
C198 C190 1.378 . S
C198 C193 1.350 . S
C199 H186 0.929 . S
C199 C191 1.433 . S
C199 N201 1.384 . S
N200 C196 1.427 . S
N200 C197 1.384 . S
N201 C193 1.427 . S
N201 C199 1.384 . S
H202 C208 0.930 . S
H203 C212 0.930 . S
H204 C217 0.929 . S
H205 C215 0.929 . S
H206 C210 0.929 . S
H207 C216 0.929 . S
C208 H202 0.930 . S
C208 C209 1.367 . S
C208 C216 1.378 . S
C209 C208 1.367 . S
C209 C217 1.433 . S
C210 H206 0.929 . S
C210 C212 1.378 . S
C210 C214 1.350 . S
C211 C214 1.463 . S
C211 C216 1.350 . S
C211 N219 1.427 . S
C212 H203 0.930 . S
C212 C210 1.378 . S
C212 C213 1.367 . S
C213 C212 1.367 . S
C213 C215 1.433 . S
C214 C210 1.350 . S
C214 C211 1.463 . S
C214 N218 1.427 . S
C215 H205 0.929 . S
C215 C213 1.433 . S
C215 N218 1.384 . S
C216 H207 0.929 . S
C216 C208 1.378 . S
C216 C211 1.350 . S
C217 H204 0.929 . S
C217 C209 1.433 . S
C217 N219 1.384 . S
N218 C214 1.427 . S
N218 C215 1.384 . S
N219 C211 1.427 . S
N219 C217 1.384 . S
H220 C226 0.930 . S
H221 C230 0.930 . S
H222 C235 0.929 . S
H223 C233 0.929 . S
H224 C228 0.929 . S
H225 C234 0.929 . S
C226 H220 0.930 . S
C226 C227 1.367 . S
C226 C234 1.378 . S
C227 C226 1.367 . S
C227 C235 1.433 . S
C228 H224 0.929 . S
C228 C230 1.378 . S
C228 C232 1.350 . S
C229 C232 1.463 . S
C229 C234 1.350 . S
C229 N237 1.427 . S
C230 H221 0.930 . S
C230 C228 1.378 . S
C230 C231 1.367 . S
C231 C230 1.367 . S
C231 C233 1.433 . S
C232 C228 1.350 . S
C232 C229 1.463 . S
C232 N236 1.427 . S
C233 H223 0.929 . S
C233 C231 1.433 . S
C233 N236 1.384 . S
C234 H225 0.929 . S
C234 C226 1.378 . S
C234 C229 1.350 . S
C235 H222 0.929 . S
C235 C227 1.433 . S
C235 N237 1.384 . S
N236 C232 1.427 . S
N236 C233 1.384 . S
N237 C229 1.427 . S
N237 C235 1.384 . S
H238 C244 0.930 . S
H239 C248 0.930 . S
H240 C253 0.929 . S
H241 C251 0.929 . S
H242 C246 0.929 . S
H243 C252 0.929 . S
C244 H238 0.930 . S
C244 C245 1.367 . S
C244 C252 1.378 . S
C245 C244 1.367 . S
C245 C253 1.433 . S
C246 H242 0.929 . S
C246 C248 1.378 . S
C246 C250 1.350 . S
C247 C250 1.463 . S
C247 C252 1.350 . S
C247 N255 1.427 . S
C248 H239 0.930 . S
C248 C246 1.378 . S
C248 C249 1.367 . S
C249 C248 1.367 . S
C249 C251 1.433 . S
C250 C246 1.350 . S
C250 C247 1.463 . S
C250 N254 1.427 . S
C251 H241 0.929 . S
C251 C249 1.433 . S
C251 N254 1.384 . S
C252 H243 0.929 . S
C252 C244 1.378 . S
C252 C247 1.350 . S
C253 H240 0.929 . S
C253 C245 1.433 . S
C253 N255 1.384 . S
N254 C250 1.427 . S
N254 C251 1.384 . S
N255 C247 1.427 . S
N255 C253 1.384 . S
H256 C262 0.930 . S
H257 C266 0.930 . S
H258 C271 0.948 . S
H259 C269 0.948 . S
H260 C264 0.929 . S
H261 C270 0.929 . S
C262 H256 0.930 . S
C262 C263 1.367 . S
C262 C270 1.378 . S
C263 C262 1.367 . S
C263 C271 1.403 1_554 S
C264 H260 0.929 . S
C264 C266 1.378 . S
C264 C268 1.350 . S
C265 C268 1.463 1_554 S
C265 C270 1.350 . S
C265 N273 1.427 1_554 S
C266 H257 0.930 . S
C266 C264 1.378 . S
C266 C267 1.367 . S
C267 C266 1.367 . S
C267 C269 1.403 1_556 S
C268 C264 1.350 . S
C268 C265 1.463 1_556 S
C268 N272 1.427 1_556 S
C269 H259 0.948 . S
C269 C267 1.403 1_554 S
C269 N272 1.396 . S
C270 H261 0.929 . S
C270 C262 1.378 . S
C270 C265 1.350 . S
C271 H258 0.948 . S
C271 C263 1.403 1_556 S
C271 N273 1.396 . S
N272 C268 1.427 1_554 S
N272 C269 1.396 . S
N273 C265 1.427 1_556 S
N273 C271 1.396 . S
H274 C280 0.930 . S
H275 C284 0.930 . S
H276 C289 0.941 . S
H277 C287 0.941 . S
H278 C282 0.929 . S
H279 C288 0.929 . S
C280 H274 0.930 . S
C280 C281 1.367 . S
C280 C288 1.378 1_455 S
C281 C280 1.367 . S
C281 C289 1.433 . S
C282 H278 0.929 . S
C282 C284 1.378 1_455 S
C282 C286 1.350 1_455 S
C283 C286 1.463 1_454 S
C283 C288 1.350 1_455 S
C283 N291 1.427 1_554 S
C284 H275 0.930 . S
C284 C282 1.378 1_655 S
C284 C285 1.367 . S
C285 C284 1.367 . S
C285 C287 1.433 . S
C286 C282 1.350 1_655 S
C286 C283 1.463 1_656 S
C286 N290 1.427 1_556 S
C287 H277 0.941 . S
C287 C285 1.433 . S
C287 N290 1.384 1_556 S
C288 H279 0.929 . S
C288 C280 1.378 1_655 S
C288 C283 1.350 1_655 S
C289 H276 0.941 . S
C289 C281 1.433 . S
C289 N291 1.384 1_554 S
N290 C286 1.427 1_554 S
N290 C287 1.384 1_554 S
N291 C283 1.427 1_556 S
N291 C289 1.384 1_556 S
H292 C298 0.930 . S
H293 C302 0.930 . S
H294 C307 0.929 . S
H295 C305 0.929 . S
H296 C300 0.929 1_565 S
H297 C306 0.929 1_545 S
C298 H292 0.930 . S
C298 C299 1.367 . S
C298 C306 1.378 . S
C299 C298 1.367 . S
C299 C307 1.433 . S
C300 H296 0.929 1_545 S
C300 C302 1.378 . S
C300 C304 1.350 . S
C301 C304 1.463 1_565 S
C301 C306 1.350 . S
C301 N309 1.427 . S
C302 H293 0.930 . S
C302 C300 1.378 . S
C302 C303 1.367 . S
C303 C302 1.367 . S
C303 C305 1.433 . S
C304 C300 1.350 . S
C304 C301 1.463 1_545 S
C304 N308 1.427 . S
C305 H295 0.929 . S
C305 C303 1.433 . S
C305 N308 1.384 . S
C306 H297 0.929 1_565 S
C306 C298 1.378 . S
C306 C301 1.350 . S
C307 H294 0.929 . S
C307 C299 1.433 . S
C307 N309 1.384 . S
N308 C304 1.427 . S
N308 C305 1.384 . S
N309 C301 1.427 . S
N309 C307 1.384 . S
H310 C316 0.930 . S
H311 C320 0.930 . S
H312 C325 0.929 . S
H313 C323 0.929 . S
H314 C318 0.929 1_545 S
H315 C324 0.929 1_565 S
C316 H310 0.930 . S
C316 C317 1.367 . S
C316 C324 1.378 . S
C317 C316 1.367 . S
C317 C325 1.433 . S
C318 H314 0.929 1_565 S
C318 C320 1.378 . S
C318 C322 1.350 . S
C319 C322 1.463 1_645 S
C319 C324 1.350 . S
C319 N327 1.427 1_655 S
C320 H311 0.930 . S
C320 C318 1.378 . S
C320 C321 1.367 . S
C321 C320 1.367 . S
C321 C323 1.433 . S
C322 C318 1.350 . S
C322 C319 1.463 1_465 S
C322 N326 1.427 1_455 S
C323 H313 0.929 . S
C323 C321 1.433 . S
C323 N326 1.384 1_455 S
C324 H315 0.929 1_545 S
C324 C316 1.378 . S
C324 C319 1.350 . S
C325 H312 0.929 . S
C325 C317 1.433 . S
C325 N327 1.384 1_655 S
N326 C322 1.427 1_655 S
N326 C323 1.384 1_655 S
N327 C319 1.427 1_455 S
N327 C325 1.384 1_455 S
H328 C334 0.930 . S
H329 C338 0.930 . S
H330 C343 0.929 . S
H331 C341 0.929 . S
H332 C336 0.929 . S
H333 C342 0.929 . S
C334 H328 0.930 . S
C334 C335 1.367 . S
C334 C342 1.378 . S
C335 C334 1.367 . S
C335 C343 1.433 . S
C336 H332 0.929 . S
C336 C338 1.378 . S
C336 C340 1.350 . S
C337 C340 1.463 . S
C337 C342 1.350 . S
C337 N345 1.427 . S
C338 H329 0.930 . S
C338 C336 1.378 . S
C338 C339 1.367 . S
C339 C338 1.367 . S
C339 C341 1.433 . S
C340 C336 1.350 . S
C340 C337 1.463 . S
C340 N344 1.427 . S
C341 H331 0.929 . S
C341 C339 1.433 . S
C341 N344 1.384 . S
C342 H333 0.929 . S
C342 C334 1.378 . S
C342 C337 1.350 . S
C343 H330 0.929 . S
C343 C335 1.433 . S
C343 N345 1.384 . S
N344 C340 1.427 . S
N344 C341 1.384 . S
N345 C337 1.427 . S
N345 C343 1.384 . S
H346 C352 0.930 . S
H347 C356 0.930 . S
H348 C361 0.929 . S
H349 C359 0.929 . S
H350 C354 0.929 . S
H351 C360 0.929 . S
C352 H346 0.930 . S
C352 C353 1.367 . S
C352 C360 1.378 . S
C353 C352 1.367 . S
C353 C361 1.433 . S
C354 H350 0.929 . S
C354 C356 1.378 . S
C354 C358 1.350 . S
C355 C358 1.463 1_545 S
C355 C360 1.350 . S
C355 N363 1.427 . S
C356 H347 0.930 . S
C356 C354 1.378 . S
C356 C357 1.367 . S
C357 C356 1.367 . S
C357 C359 1.433 . S
C358 C354 1.350 . S
C358 C355 1.463 1_565 S
C358 N362 1.427 . S
C359 H349 0.929 . S
C359 C357 1.433 . S
C359 N362 1.384 . S
C360 H351 0.929 . S
C360 C352 1.378 . S
C360 C355 1.350 . S
C361 H348 0.929 . S
C361 C353 1.433 . S
C361 N363 1.384 . S
N362 C358 1.427 . S
N362 C359 1.384 . S
N363 C355 1.427 . S
N363 C361 1.384 . S
H364 C370 0.930 . S
H365 C374 0.930 . S
H366 C379 0.929 . S
H367 C377 0.929 . S
H368 C372 0.929 . S
H369 C378 0.929 . S
C370 H364 0.930 . S
C370 C371 1.367 . S
C370 C378 1.378 . S
C371 C370 1.367 . S
C371 C379 1.433 . S
C372 H368 0.929 . S
C372 C374 1.378 . S
C372 C376 1.350 . S
C373 C376 1.463 . S
C373 C378 1.350 . S
C373 N381 1.427 . S
C374 H365 0.930 . S
C374 C372 1.378 . S
C374 C375 1.367 . S
C375 C374 1.367 . S
C375 C377 1.433 . S
C376 C372 1.350 . S
C376 C373 1.463 . S
C376 N380 1.427 . S
C377 H367 0.929 . S
C377 C375 1.433 . S
C377 N380 1.384 . S
C378 H369 0.929 . S
C378 C370 1.378 . S
C378 C373 1.350 . S
C379 H366 0.929 . S
C379 C371 1.433 . S
C379 N381 1.384 . S
N380 C376 1.427 . S
N380 C377 1.384 . S
N381 C373 1.427 . S
N381 C379 1.384 . S
H382 C388 0.930 . S
H383 C392 0.930 . S
H384 C397 0.929 . S
H385 C395 0.929 . S
H386 C390 0.929 1_565 S
H387 C396 0.929 1_545 S
C388 H382 0.930 . S
C388 C389 1.367 . S
C388 C396 1.378 . S
C389 C388 1.367 . S
C389 C397 1.433 . S
C390 H386 0.929 1_545 S
C390 C392 1.378 . S
C390 C394 1.350 . S
C391 C394 1.463 1_565 S
C391 C396 1.350 . S
C391 N399 1.427 . S
C392 H383 0.930 . S
C392 C390 1.378 . S
C392 C393 1.367 . S
C393 C392 1.367 . S
C393 C395 1.433 . S
C394 C390 1.350 . S
C394 C391 1.463 1_545 S
C394 N398 1.427 . S
C395 H385 0.929 . S
C395 C393 1.433 . S
C395 N398 1.384 . S
C396 H387 0.929 1_565 S
C396 C388 1.378 . S
C396 C391 1.350 . S
C397 H384 0.929 . S
C397 C389 1.433 . S
C397 N399 1.384 . S
N398 C394 1.427 . S
N398 C395 1.384 . S
N399 C391 1.427 . S
N399 C397 1.384 . S
C119 C9 1.618 . S
C123 C23 1.614 . S
C137 C51 1.613 . S
C141 C37 1.607 . S
C155 C65 1.611 . S
C159 C79 1.608 . S
C173 C93 1.620 . S
C177 C107 1.611 . S
C191 C7 1.711 . S
C195 C35 1.704 . S
C209 C49 1.709 . S
C213 C21 1.707 . S
C227 C63 1.701 . S
C231 C91 1.712 . S
C245 C105 1.703 . S
C249 C77 1.693 . S
C263 C6 1.286 . S
C267 C62 1.286 . S
C281 C20 1.287 . S
C285 C76 1.287 . S
C299 C90 1.280 . S
C303 C34 1.280 . S
C317 C104 1.278 . S
C321 C48 1.278 . S
C335 C22 1.375 . S
C339 C8 1.374 . S
C353 C36 1.375 . S
C357 C50 1.376 . S
C371 C64 1.375 . S
C375 C78 1.376 . S
C389 C92 1.372 . S
C393 C106 1.372 . S
