# Generated by pormake.
# Topology fcg, (5)-cn, num edge types: 1
# Building blocks:
#     Node 0, Type 0, BuildingBlock: XOMCOT_clean_sbu_1, # of connection points: 5
#     Node 1, Type 0, BuildingBlock: XOMCOT_clean_sbu_1, # of connection points: 5
#     Node 2, Type 0, BuildingBlock: XOMCOT_clean_sbu_1, # of connection points: 5
#     Node 3, Type 0, BuildingBlock: XOMCOT_clean_sbu_1, # of connection points: 5
#     Node 4, Type 0, BuildingBlock: XOMCOT_clean_sbu_1, # of connection points: 5
#     Node 5, Type 0, BuildingBlock: XOMCOT_clean_sbu_1, # of connection points: 5
#     Node 6, Type 0, BuildingBlock: XOMCOT_clean_sbu_1, # of connection points: 5
#     Node 7, Type 0, BuildingBlock: XOMCOT_clean_sbu_1, # of connection points: 5
#     Node 8, Type 0, BuildingBlock: XOMCOT_clean_sbu_1, # of connection points: 5
#     Node 9, Type 0, BuildingBlock: XOMCOT_clean_sbu_1, # of connection points: 5
#     Node 10, Type 0, BuildingBlock: XOMCOT_clean_sbu_1, # of connection points: 5
#     Node 11, Type 0, BuildingBlock: XOMCOT_clean_sbu_1, # of connection points: 5
#     Node 12, Type 0, BuildingBlock: XOMCOT_clean_sbu_1, # of connection points: 5
#     Node 13, Type 0, BuildingBlock: XOMCOT_clean_sbu_1, # of connection points: 5
#     Node 14, Type 0, BuildingBlock: XOMCOT_clean_sbu_1, # of connection points: 5
#     Node 15, Type 0, BuildingBlock: XOMCOT_clean_sbu_1, # of connection points: 5
#     Node 16, Type 0, BuildingBlock: XOMCOT_clean_sbu_1, # of connection points: 5
#     Node 17, Type 0, BuildingBlock: XOMCOT_clean_sbu_1, # of connection points: 5
#     Node 18, Type 0, BuildingBlock: XOMCOT_clean_sbu_1, # of connection points: 5
#     Node 19, Type 0, BuildingBlock: XOMCOT_clean_sbu_1, # of connection points: 5
#     Node 20, Type 0, BuildingBlock: XOMCOT_clean_sbu_1, # of connection points: 5
#     Node 21, Type 0, BuildingBlock: XOMCOT_clean_sbu_1, # of connection points: 5
#     Node 22, Type 0, BuildingBlock: XOMCOT_clean_sbu_1, # of connection points: 5
#     Node 23, Type 0, BuildingBlock: XOMCOT_clean_sbu_1, # of connection points: 5
#     Node 24, Type 0, BuildingBlock: XOMCOT_clean_sbu_1, # of connection points: 5
#     Node 25, Type 0, BuildingBlock: XOMCOT_clean_sbu_1, # of connection points: 5
#     Node 26, Type 0, BuildingBlock: XOMCOT_clean_sbu_1, # of connection points: 5
#     Node 27, Type 0, BuildingBlock: XOMCOT_clean_sbu_1, # of connection points: 5
#     Node 28, Type 0, BuildingBlock: XOMCOT_clean_sbu_1, # of connection points: 5
#     Node 29, Type 0, BuildingBlock: XOMCOT_clean_sbu_1, # of connection points: 5
#     Node 30, Type 0, BuildingBlock: XOMCOT_clean_sbu_1, # of connection points: 5
#     Node 31, Type 0, BuildingBlock: XOMCOT_clean_sbu_1, # of connection points: 5
#     Node 32, Type 0, BuildingBlock: XOMCOT_clean_sbu_1, # of connection points: 5
#     Node 33, Type 0, BuildingBlock: XOMCOT_clean_sbu_1, # of connection points: 5
#     Node 34, Type 0, BuildingBlock: XOMCOT_clean_sbu_1, # of connection points: 5
#     Node 35, Type 0, BuildingBlock: XOMCOT_clean_sbu_1, # of connection points: 5
#     Node 36, Type 0, BuildingBlock: XOMCOT_clean_sbu_1, # of connection points: 5
#     Node 37, Type 0, BuildingBlock: XOMCOT_clean_sbu_1, # of connection points: 5
#     Node 38, Type 0, BuildingBlock: XOMCOT_clean_sbu_1, # of connection points: 5
#     Node 39, Type 0, BuildingBlock: XOMCOT_clean_sbu_1, # of connection points: 5
#     Node 40, Type 0, BuildingBlock: XOMCOT_clean_sbu_1, # of connection points: 5
#     Node 41, Type 0, BuildingBlock: XOMCOT_clean_sbu_1, # of connection points: 5
#     Node 42, Type 0, BuildingBlock: XOMCOT_clean_sbu_1, # of connection points: 5
#     Node 43, Type 0, BuildingBlock: XOMCOT_clean_sbu_1, # of connection points: 5
#     Node 44, Type 0, BuildingBlock: XOMCOT_clean_sbu_1, # of connection points: 5
#     Node 45, Type 0, BuildingBlock: XOMCOT_clean_sbu_1, # of connection points: 5
#     Node 46, Type 0, BuildingBlock: XOMCOT_clean_sbu_1, # of connection points: 5
#     Node 47, Type 0, BuildingBlock: XOMCOT_clean_sbu_1, # of connection points: 5
#     Edge 48, Type (0, 0), BuildingBlock: KIFKEQ_clean_linker_1, # of connection points: 2
#     Edge 49, Type (0, 0), BuildingBlock: KIFKEQ_clean_linker_1, # of connection points: 2
#     Edge 50, Type (0, 0), BuildingBlock: KIFKEQ_clean_linker_1, # of connection points: 2
#     Edge 51, Type (0, 0), BuildingBlock: KIFKEQ_clean_linker_1, # of connection points: 2
#     Edge 52, Type (0, 0), BuildingBlock: KIFKEQ_clean_linker_1, # of connection points: 2
#     Edge 53, Type (0, 0), BuildingBlock: KIFKEQ_clean_linker_1, # of connection points: 2
#     Edge 54, Type (0, 0), BuildingBlock: KIFKEQ_clean_linker_1, # of connection points: 2
#     Edge 55, Type (0, 0), BuildingBlock: KIFKEQ_clean_linker_1, # of connection points: 2
#     Edge 56, Type (0, 0), BuildingBlock: KIFKEQ_clean_linker_1, # of connection points: 2
#     Edge 57, Type (0, 0), BuildingBlock: KIFKEQ_clean_linker_1, # of connection points: 2
#     Edge 58, Type (0, 0), BuildingBlock: KIFKEQ_clean_linker_1, # of connection points: 2
#     Edge 59, Type (0, 0), BuildingBlock: KIFKEQ_clean_linker_1, # of connection points: 2
#     Edge 60, Type (0, 0), BuildingBlock: KIFKEQ_clean_linker_1, # of connection points: 2
#     Edge 61, Type (0, 0), BuildingBlock: KIFKEQ_clean_linker_1, # of connection points: 2
#     Edge 62, Type (0, 0), BuildingBlock: KIFKEQ_clean_linker_1, # of connection points: 2
#     Edge 63, Type (0, 0), BuildingBlock: KIFKEQ_clean_linker_1, # of connection points: 2
#     Edge 64, Type (0, 0), BuildingBlock: KIFKEQ_clean_linker_1, # of connection points: 2
#     Edge 65, Type (0, 0), BuildingBlock: KIFKEQ_clean_linker_1, # of connection points: 2
#     Edge 66, Type (0, 0), BuildingBlock: KIFKEQ_clean_linker_1, # of connection points: 2
#     Edge 67, Type (0, 0), BuildingBlock: KIFKEQ_clean_linker_1, # of connection points: 2
#     Edge 68, Type (0, 0), BuildingBlock: KIFKEQ_clean_linker_1, # of connection points: 2
#     Edge 69, Type (0, 0), BuildingBlock: KIFKEQ_clean_linker_1, # of connection points: 2
#     Edge 70, Type (0, 0), BuildingBlock: KIFKEQ_clean_linker_1, # of connection points: 2
#     Edge 71, Type (0, 0), BuildingBlock: KIFKEQ_clean_linker_1, # of connection points: 2
#     Edge 72, Type (0, 0), BuildingBlock: KIFKEQ_clean_linker_1, # of connection points: 2
#     Edge 73, Type (0, 0), BuildingBlock: KIFKEQ_clean_linker_1, # of connection points: 2
#     Edge 74, Type (0, 0), BuildingBlock: KIFKEQ_clean_linker_1, # of connection points: 2
#     Edge 75, Type (0, 0), BuildingBlock: KIFKEQ_clean_linker_1, # of connection points: 2
#     Edge 76, Type (0, 0), BuildingBlock: KIFKEQ_clean_linker_1, # of connection points: 2
#     Edge 77, Type (0, 0), BuildingBlock: KIFKEQ_clean_linker_1, # of connection points: 2
#     Edge 78, Type (0, 0), BuildingBlock: KIFKEQ_clean_linker_1, # of connection points: 2
#     Edge 79, Type (0, 0), BuildingBlock: KIFKEQ_clean_linker_1, # of connection points: 2
#     Edge 80, Type (0, 0), BuildingBlock: KIFKEQ_clean_linker_1, # of connection points: 2
#     Edge 81, Type (0, 0), BuildingBlock: KIFKEQ_clean_linker_1, # of connection points: 2
#     Edge 82, Type (0, 0), BuildingBlock: KIFKEQ_clean_linker_1, # of connection points: 2
#     Edge 83, Type (0, 0), BuildingBlock: KIFKEQ_clean_linker_1, # of connection points: 2
#     Edge 84, Type (0, 0), BuildingBlock: KIFKEQ_clean_linker_1, # of connection points: 2
#     Edge 85, Type (0, 0), BuildingBlock: KIFKEQ_clean_linker_1, # of connection points: 2
#     Edge 86, Type (0, 0), BuildingBlock: KIFKEQ_clean_linker_1, # of connection points: 2
#     Edge 87, Type (0, 0), BuildingBlock: KIFKEQ_clean_linker_1, # of connection points: 2
#     Edge 88, Type (0, 0), BuildingBlock: KIFKEQ_clean_linker_1, # of connection points: 2
#     Edge 89, Type (0, 0), BuildingBlock: KIFKEQ_clean_linker_1, # of connection points: 2
#     Edge 90, Type (0, 0), BuildingBlock: KIFKEQ_clean_linker_1, # of connection points: 2
#     Edge 91, Type (0, 0), BuildingBlock: KIFKEQ_clean_linker_1, # of connection points: 2
#     Edge 92, Type (0, 0), BuildingBlock: KIFKEQ_clean_linker_1, # of connection points: 2
#     Edge 93, Type (0, 0), BuildingBlock: KIFKEQ_clean_linker_1, # of connection points: 2
#     Edge 94, Type (0, 0), BuildingBlock: KIFKEQ_clean_linker_1, # of connection points: 2
#     Edge 95, Type (0, 0), BuildingBlock: KIFKEQ_clean_linker_1, # of connection points: 2
#     Edge 96, Type (0, 0), BuildingBlock: KIFKEQ_clean_linker_1, # of connection points: 2
#     Edge 97, Type (0, 0), BuildingBlock: KIFKEQ_clean_linker_1, # of connection points: 2
#     Edge 98, Type (0, 0), BuildingBlock: KIFKEQ_clean_linker_1, # of connection points: 2
#     Edge 99, Type (0, 0), BuildingBlock: KIFKEQ_clean_linker_1, # of connection points: 2
#     Edge 100, Type (0, 0), BuildingBlock: KIFKEQ_clean_linker_1, # of connection points: 2
#     Edge 101, Type (0, 0), BuildingBlock: KIFKEQ_clean_linker_1, # of connection points: 2
#     Edge 102, Type (0, 0), BuildingBlock: KIFKEQ_clean_linker_1, # of connection points: 2
#     Edge 103, Type (0, 0), BuildingBlock: KIFKEQ_clean_linker_1, # of connection points: 2
#     Edge 104, Type (0, 0), BuildingBlock: KIFKEQ_clean_linker_1, # of connection points: 2
#     Edge 105, Type (0, 0), BuildingBlock: KIFKEQ_clean_linker_1, # of connection points: 2
#     Edge 106, Type (0, 0), BuildingBlock: KIFKEQ_clean_linker_1, # of connection points: 2
#     Edge 107, Type (0, 0), BuildingBlock: KIFKEQ_clean_linker_1, # of connection points: 2
#     Edge 108, Type (0, 0), BuildingBlock: KIFKEQ_clean_linker_1, # of connection points: 2
#     Edge 109, Type (0, 0), BuildingBlock: KIFKEQ_clean_linker_1, # of connection points: 2
#     Edge 110, Type (0, 0), BuildingBlock: KIFKEQ_clean_linker_1, # of connection points: 2
#     Edge 111, Type (0, 0), BuildingBlock: KIFKEQ_clean_linker_1, # of connection points: 2
#     Edge 112, Type (0, 0), BuildingBlock: KIFKEQ_clean_linker_1, # of connection points: 2
#     Edge 113, Type (0, 0), BuildingBlock: KIFKEQ_clean_linker_1, # of connection points: 2
#     Edge 114, Type (0, 0), BuildingBlock: KIFKEQ_clean_linker_1, # of connection points: 2
#     Edge 115, Type (0, 0), BuildingBlock: KIFKEQ_clean_linker_1, # of connection points: 2
#     Edge 116, Type (0, 0), BuildingBlock: KIFKEQ_clean_linker_1, # of connection points: 2
#     Edge 117, Type (0, 0), BuildingBlock: KIFKEQ_clean_linker_1, # of connection points: 2
#     Edge 118, Type (0, 0), BuildingBlock: KIFKEQ_clean_linker_1, # of connection points: 2
#     Edge 119, Type (0, 0), BuildingBlock: KIFKEQ_clean_linker_1, # of connection points: 2
#     Edge 120, Type (0, 0), BuildingBlock: KIFKEQ_clean_linker_1, # of connection points: 2
#     Edge 121, Type (0, 0), BuildingBlock: KIFKEQ_clean_linker_1, # of connection points: 2
#     Edge 122, Type (0, 0), BuildingBlock: KIFKEQ_clean_linker_1, # of connection points: 2
#     Edge 123, Type (0, 0), BuildingBlock: KIFKEQ_clean_linker_1, # of connection points: 2
#     Edge 124, Type (0, 0), BuildingBlock: KIFKEQ_clean_linker_1, # of connection points: 2
#     Edge 125, Type (0, 0), BuildingBlock: KIFKEQ_clean_linker_1, # of connection points: 2
#     Edge 126, Type (0, 0), BuildingBlock: KIFKEQ_clean_linker_1, # of connection points: 2
#     Edge 127, Type (0, 0), BuildingBlock: KIFKEQ_clean_linker_1, # of connection points: 2
#     Edge 128, Type (0, 0), BuildingBlock: KIFKEQ_clean_linker_1, # of connection points: 2
#     Edge 129, Type (0, 0), BuildingBlock: KIFKEQ_clean_linker_1, # of connection points: 2
#     Edge 130, Type (0, 0), BuildingBlock: KIFKEQ_clean_linker_1, # of connection points: 2
#     Edge 131, Type (0, 0), BuildingBlock: KIFKEQ_clean_linker_1, # of connection points: 2
#     Edge 132, Type (0, 0), BuildingBlock: KIFKEQ_clean_linker_1, # of connection points: 2
#     Edge 133, Type (0, 0), BuildingBlock: KIFKEQ_clean_linker_1, # of connection points: 2
#     Edge 134, Type (0, 0), BuildingBlock: KIFKEQ_clean_linker_1, # of connection points: 2
#     Edge 135, Type (0, 0), BuildingBlock: KIFKEQ_clean_linker_1, # of connection points: 2
#     Edge 136, Type (0, 0), BuildingBlock: KIFKEQ_clean_linker_1, # of connection points: 2
#     Edge 137, Type (0, 0), BuildingBlock: KIFKEQ_clean_linker_1, # of connection points: 2
#     Edge 138, Type (0, 0), BuildingBlock: KIFKEQ_clean_linker_1, # of connection points: 2
#     Edge 139, Type (0, 0), BuildingBlock: KIFKEQ_clean_linker_1, # of connection points: 2
#     Edge 140, Type (0, 0), BuildingBlock: KIFKEQ_clean_linker_1, # of connection points: 2
#     Edge 141, Type (0, 0), BuildingBlock: KIFKEQ_clean_linker_1, # of connection points: 2
#     Edge 142, Type (0, 0), BuildingBlock: KIFKEQ_clean_linker_1, # of connection points: 2
#     Edge 143, Type (0, 0), BuildingBlock: KIFKEQ_clean_linker_1, # of connection points: 2
#     Edge 144, Type (0, 0), BuildingBlock: KIFKEQ_clean_linker_1, # of connection points: 2
#     Edge 145, Type (0, 0), BuildingBlock: KIFKEQ_clean_linker_1, # of connection points: 2
#     Edge 146, Type (0, 0), BuildingBlock: KIFKEQ_clean_linker_1, # of connection points: 2
#     Edge 147, Type (0, 0), BuildingBlock: KIFKEQ_clean_linker_1, # of connection points: 2
#     Edge 148, Type (0, 0), BuildingBlock: KIFKEQ_clean_linker_1, # of connection points: 2
#     Edge 149, Type (0, 0), BuildingBlock: KIFKEQ_clean_linker_1, # of connection points: 2
#     Edge 150, Type (0, 0), BuildingBlock: KIFKEQ_clean_linker_1, # of connection points: 2
#     Edge 151, Type (0, 0), BuildingBlock: KIFKEQ_clean_linker_1, # of connection points: 2
#     Edge 152, Type (0, 0), BuildingBlock: KIFKEQ_clean_linker_1, # of connection points: 2
#     Edge 153, Type (0, 0), BuildingBlock: KIFKEQ_clean_linker_1, # of connection points: 2
#     Edge 154, Type (0, 0), BuildingBlock: KIFKEQ_clean_linker_1, # of connection points: 2
#     Edge 155, Type (0, 0), BuildingBlock: KIFKEQ_clean_linker_1, # of connection points: 2
#     Edge 156, Type (0, 0), BuildingBlock: KIFKEQ_clean_linker_1, # of connection points: 2
#     Edge 157, Type (0, 0), BuildingBlock: KIFKEQ_clean_linker_1, # of connection points: 2
#     Edge 158, Type (0, 0), BuildingBlock: KIFKEQ_clean_linker_1, # of connection points: 2
#     Edge 159, Type (0, 0), BuildingBlock: KIFKEQ_clean_linker_1, # of connection points: 2
#     Edge 160, Type (0, 0), BuildingBlock: KIFKEQ_clean_linker_1, # of connection points: 2
#     Edge 161, Type (0, 0), BuildingBlock: KIFKEQ_clean_linker_1, # of connection points: 2
#     Edge 162, Type (0, 0), BuildingBlock: KIFKEQ_clean_linker_1, # of connection points: 2
#     Edge 163, Type (0, 0), BuildingBlock: KIFKEQ_clean_linker_1, # of connection points: 2
#     Edge 164, Type (0, 0), BuildingBlock: KIFKEQ_clean_linker_1, # of connection points: 2
#     Edge 165, Type (0, 0), BuildingBlock: KIFKEQ_clean_linker_1, # of connection points: 2
#     Edge 166, Type (0, 0), BuildingBlock: KIFKEQ_clean_linker_1, # of connection points: 2
#     Edge 167, Type (0, 0), BuildingBlock: KIFKEQ_clean_linker_1, # of connection points: 2
# Relax obj value: 0.360
# Max RMSD: 0.248
# Mean RMSD: 0.248
data_MOF--net-fcg--node1-XOMCOT_clean_sbu_1--edge1-KIFKEQ_clean_linker_1
_symmetry_space_group_name_H-M    P1
_symmetry_Int_Tables_number       1
_symmetry_cell_setting            triclinic
loop_
_symmetry_equiv_pos_as_xyz
'x, y, z'
_cell_length_a     67.51889
_cell_length_b     67.541606
_cell_length_c     67.520141
_cell_angle_alpha  90.019097
_cell_angle_beta   90.00172
_cell_angle_gamma 89.963163
loop_
_atom_site_label
_atom_site_type_symbol
_atom_site_fract_x
_atom_site_fract_y
_atom_site_fract_z
_atom_type_partial_charge
C0 C 0.12827 0.29415 0.12636 0.0
C1 C 0.14647 0.28712 0.12004 0.0
N2 N 0.14706 0.26751 0.12359 0.0
N3 N 0.1176 0.27892 0.13363 0.0
C4 C 0.12946 0.26299 0.13166 0.0
H5 H 0.12278 0.30912 0.12479 0.0
Co6 Co 0.09092 0.27786 0.1401 0.0
C7 C 0.08713 0.23628 0.1535 0.0
O8 O 0.07207 0.23283 0.14167 0.0
N9 N 0.06395 0.27631 0.14647 0.0
C10 C 0.03608 0.26944 0.16254 0.0
C11 C 0.0562 0.27197 0.16436 0.0
C12 C 0.04822 0.27668 0.13412 0.0
N13 N 0.03102 0.27227 0.14341 0.0
O14 O 0.08677 0.26424 0.11573 0.0
H15 H 0.06475 0.26981 0.17773 0.0
H16 H 0.04945 0.27967 0.11849 0.0
O17 O 0.09518 0.2533 0.15389 0.0
C18 C 0.08516 0.27613 0.10121 0.0
O19 O 0.08311 0.29513 0.1049 0.0
N20 N 0.09587 0.29228 0.1632 0.0
C21 C 0.1053 0.31709 0.19481 0.0
C22 C 0.11293 0.2978 0.19383 0.0
C23 C 0.10823 0.2857 0.17779 0.0
C24 C 0.08817 0.31092 0.16391 0.0
C25 C 0.09269 0.32362 0.17963 0.0
H26 H 0.11519 0.27136 0.17681 0.0
H27 H 0.07882 0.31608 0.15196 0.0
H28 H 0.12483 0.24796 0.13462 0.0
H29 H 0.15806 0.29559 0.11292 0.0
H30 H 0.02621 0.26504 0.17434 0.0
H31 H 0.12316 0.29238 0.20493 0.0
H32 H 0.08658 0.33845 0.1798 0.0
C33 C 0.70198 0.1324 0.13465 0.0
C34 C 0.70912 0.15018 0.1274 0.0
N35 N 0.72778 0.14722 0.12094 0.0
N36 N 0.71629 0.11855 0.133 0.0
C37 C 0.73167 0.12804 0.12457 0.0
H38 H 0.68744 0.12979 0.14085 0.0
Co39 Co 0.71721 0.0919 0.13968 0.0
C40 C 0.75985 0.08696 0.14869 0.0
O41 O 0.76153 0.07149 0.13701 0.0
N42 N 0.7189 0.06499 0.14634 0.0
C43 C 0.72779 0.03739 0.16195 0.0
C44 C 0.72453 0.05739 0.16396 0.0
C45 C 0.71849 0.04926 0.134 0.0
N46 N 0.72421 0.03232 0.14298 0.0
O47 O 0.72743 0.08676 0.11383 0.0
H48 H 0.72741 0.06605 0.17713 0.0
H49 H 0.71482 0.0503 0.1185 0.0
O50 O 0.7433 0.09582 0.15036 0.0
C51 C 0.71313 0.08583 0.10157 0.0
O52 O 0.69497 0.08537 0.10862 0.0
N53 N 0.7058 0.09752 0.16424 0.0
C54 C 0.68476 0.10741 0.19833 0.0
C55 C 0.704 0.11463 0.19527 0.0
C56 C 0.71422 0.10967 0.17803 0.0
C57 C 0.68719 0.09023 0.16697 0.0
C58 C 0.67639 0.09495 0.18397 0.0
H59 H 0.72856 0.11624 0.1755 0.0
H60 H 0.68058 0.081 0.15566 0.0
H61 H 0.74573 0.12099 0.12148 0.0
H62 H 0.70121 0.16411 0.12688 0.0
H63 H 0.73354 0.02767 0.17331 0.0
H64 H 0.7108 0.12472 0.20572 0.0
H65 H 0.66157 0.08909 0.18575 0.0
C66 C 0.8658 0.70176 0.13412 0.0
C67 C 0.84858 0.71045 0.12722 0.0
N68 N 0.85265 0.72939 0.12241 0.0
N69 N 0.88043 0.71535 0.13387 0.0
C70 C 0.87195 0.7319 0.12665 0.0
H71 H 0.86757 0.68658 0.13889 0.0
Co72 Co 0.90711 0.71358 0.14024 0.0
C73 C 0.9162 0.7545 0.1542 0.0
O74 O 0.93372 0.75514 0.14578 0.0
N75 N 0.93418 0.71224 0.14656 0.0
C76 C 0.96286 0.71305 0.16285 0.0
C77 C 0.94257 0.71363 0.1647 0.0
C78 C 0.9497 0.71093 0.13399 0.0
N79 N 0.96724 0.71151 0.14348 0.0
O80 O 0.91288 0.72484 0.11499 0.0
H81 H 0.93449 0.7155 0.17841 0.0
H82 H 0.94833 0.7097 0.1181 0.0
O83 O 0.90535 0.73921 0.1525 0.0
C84 C 0.91212 0.71077 0.10244 0.0
O85 O 0.91136 0.69252 0.1092 0.0
N86 N 0.90064 0.70117 0.16402 0.0
C87 C 0.88873 0.67843 0.19626 0.0
C88 C 0.88359 0.69853 0.19502 0.0
C89 C 0.88956 0.70964 0.17867 0.0
C90 C 0.90594 0.68174 0.16504 0.0
C91 C 0.90023 0.67009 0.18111 0.0
H92 H 0.88456 0.72479 0.17748 0.0
H93 H 0.91433 0.67518 0.15306 0.0
H94 H 0.87988 0.74567 0.12462 0.0
H95 H 0.83432 0.70333 0.12562 0.0
H96 H 0.97355 0.7143 0.17473 0.0
H97 H 0.87431 0.70542 0.20615 0.0
H98 H 0.90454 0.65465 0.18151 0.0
C99 C 0.28066 0.86738 0.13191 0.0
C100 C 0.27275 0.8496 0.12573 0.0
N101 N 0.25302 0.85192 0.1235 0.0
N102 N 0.26595 0.88075 0.13364 0.0
C103 C 0.24936 0.87091 0.1285 0.0
H104 H 0.29619 0.87055 0.13423 0.0
Co105 Co 0.26773 0.90775 0.13801 0.0
C106 C 0.2283 0.91827 0.15405 0.0
O107 O 0.22681 0.93426 0.14308 0.0
N108 N 0.2693 0.9353 0.14232 0.0
C109 C 0.26892 0.96505 0.15654 0.0
C110 C 0.26976 0.94496 0.15984 0.0
C111 C 0.26824 0.9499 0.12868 0.0
N112 N 0.26784 0.96814 0.13685 0.0
O113 O 0.2541 0.91156 0.11357 0.0
H114 H 0.27 0.93791 0.17421 0.0
H115 H 0.26685 0.94728 0.11302 0.0
O116 O 0.2433 0.90698 0.15243 0.0
C117 C 0.26644 0.91154 0.09933 0.0
O118 O 0.28547 0.9119 0.10343 0.0
N119 N 0.28223 0.90298 0.16114 0.0
C120 C 0.30726 0.89291 0.19229 0.0
C121 C 0.28681 0.88989 0.19381 0.0
C122 C 0.27454 0.89472 0.17794 0.0
C123 C 0.30206 0.90637 0.15954 0.0
C124 C 0.31493 0.9013 0.17494 0.0
H125 H 0.25904 0.89113 0.17909 0.0
H126 H 0.30794 0.9125 0.14596 0.0
H127 H 0.23502 0.87796 0.12722 0.0
H128 H 0.28097 0.83619 0.12268 0.0
H129 H 0.26888 0.97641 0.16784 0.0
H130 H 0.28045 0.88303 0.20684 0.0
H131 H 0.3307 0.90369 0.17324 0.0
C132 C 0.12763 0.7076 0.86811 0.0
C133 C 0.1452 0.71513 0.87531 0.0
N134 N 0.14397 0.7351 0.8755 0.0
N135 N 0.11547 0.72275 0.86369 0.0
C136 C 0.12579 0.7392 0.86829 0.0
H137 H 0.12367 0.69213 0.8669 0.0
Co138 Co 0.08896 0.72205 0.85663 0.0
C139 C 0.08249 0.76279 0.84174 0.0
O140 O 0.06666 0.7655 0.85272 0.0
N141 N 0.06203 0.72167 0.84979 0.0
C142 C 0.03343 0.72753 0.83456 0.0
C143 C 0.05365 0.72603 0.83218 0.0
C144 C 0.04662 0.71997 0.86239 0.0
N145 N 0.02903 0.72394 0.85372 0.0
O146 O 0.08329 0.7356 0.88074 0.0
H147 H 0.06181 0.72913 0.81875 0.0
H148 H 0.04831 0.71642 0.87782 0.0
O149 O 0.09202 0.74657 0.84263 0.0
C150 C 0.08228 0.72345 0.89509 0.0
O151 O 0.08244 0.70438 0.89119 0.0
N152 N 0.09544 0.70783 0.83376 0.0
C153 C 0.11012 0.68292 0.80434 0.0
C154 C 0.11619 0.70272 0.80545 0.0
C155 C 0.10882 0.71489 0.82035 0.0
C156 C 0.08874 0.68884 0.83252 0.0
C157 C 0.09579 0.6761 0.81776 0.0
H158 H 0.11484 0.72962 0.82171 0.0
H159 H 0.07856 0.6833 0.84358 0.0
H160 H 0.11969 0.75392 0.86691 0.0
H161 H 0.15754 0.70644 0.8807 0.0
H162 H 0.02302 0.73194 0.82322 0.0
H163 H 0.12711 0.7086 0.79528 0.0
H164 H 0.09087 0.66085 0.81749 0.0
C165 C 0.29172 0.13103 0.86036 0.0
C166 C 0.28315 0.14886 0.86582 0.0
N167 N 0.26335 0.14643 0.8658 0.0
N168 N 0.27726 0.11763 0.85713 0.0
C169 C 0.26027 0.12747 0.86071 0.0
H170 H 0.30739 0.12786 0.85949 0.0
Co171 Co 0.27852 0.0905 0.85254 0.0
C172 C 0.23667 0.08208 0.84018 0.0
O173 O 0.23471 0.0658 0.85063 0.0
N174 N 0.27917 0.06305 0.84808 0.0
C175 C 0.27589 0.03349 0.83391 0.0
C176 C 0.27675 0.05357 0.83063 0.0
C177 C 0.2798 0.04838 0.86168 0.0
N178 N 0.27767 0.03025 0.85352 0.0
O179 O 0.26741 0.0868 0.87823 0.0
H180 H 0.27497 0.06081 0.81645 0.0
H181 H 0.28084 0.05095 0.87741 0.0
O182 O 0.25286 0.09166 0.84041 0.0
C183 C 0.2817 0.0883 0.89047 0.0
O184 O 0.29984 0.08823 0.88337 0.0
N185 N 0.2908 0.09518 0.8282 0.0
C186 C 0.31303 0.1053 0.79494 0.0
C187 C 0.29309 0.11094 0.7965 0.0
C188 C 0.28227 0.1059 0.81333 0.0
C189 C 0.31008 0.08936 0.82691 0.0
C190 C 0.32148 0.0942 0.81033 0.0
H191 H 0.26733 0.1114 0.8147 0.0
H192 H 0.31675 0.08133 0.83906 0.0
H193 H 0.2458 0.12061 0.86078 0.0
H194 H 0.2908 0.16239 0.86972 0.0
H195 H 0.27381 0.02225 0.82269 0.0
H196 H 0.28613 0.12 0.78524 0.0
H197 H 0.33683 0.08957 0.80973 0.0
C198 C 0.8639 0.29011 0.88399 0.0
C199 C 0.84708 0.28045 0.89027 0.0
N200 N 0.84749 0.26188 0.88301 0.0
N201 N 0.87481 0.27774 0.8727 0.0
C202 C 0.86439 0.26066 0.87244 0.0
H203 H 0.86851 0.30476 0.8885 0.0
Co204 Co 0.90105 0.28207 0.86519 0.0
C205 C 0.90981 0.23994 0.85235 0.0
O206 O 0.92322 0.23566 0.86575 0.0
N207 N 0.92768 0.28642 0.85824 0.0
C208 C 0.9556 0.3006 0.84801 0.0
C209 C 0.93526 0.30126 0.84718 0.0
C210 C 0.94377 0.27705 0.86566 0.0
N211 N 0.96091 0.28538 0.85974 0.0
O212 O 0.90868 0.27109 0.88994 0.0
H213 H 0.92665 0.31252 0.83974 0.0
H214 H 0.94301 0.26532 0.87649 0.0
O215 O 0.90152 0.25685 0.85212 0.0
C216 C 0.91159 0.28506 0.90226 0.0
O217 O 0.9127 0.30324 0.89539 0.0
N218 N 0.89257 0.2941 0.84168 0.0
C219 C 0.8776 0.31473 0.80931 0.0
C220 C 0.8878 0.29686 0.80656 0.0
C221 C 0.89518 0.28668 0.82301 0.0
C222 C 0.88354 0.31193 0.84443 0.0
C223 C 0.87567 0.32236 0.82848 0.0
H224 H 0.90314 0.27302 0.82061 0.0
H225 H 0.88244 0.31811 0.85914 0.0
H226 H 0.86975 0.24702 0.86604 0.0
H227 H 0.83585 0.2864 0.90004 0.0
H228 H 0.96566 0.31102 0.84115 0.0
H229 H 0.88973 0.29065 0.79189 0.0
H230 H 0.86826 0.33636 0.83109 0.0
C231 C 0.70561 0.86683 0.86942 0.0
C232 C 0.71391 0.84953 0.87652 0.0
N233 N 0.7333 0.85284 0.87998 0.0
N234 N 0.71984 0.88076 0.8682 0.0
C235 C 0.73642 0.87183 0.8748 0.0
H236 H 0.69025 0.86913 0.8655 0.0
Co237 Co 0.71816 0.90712 0.86062 0.0
C238 C 0.75929 0.91567 0.84745 0.0
O239 O 0.7603 0.93237 0.85737 0.0
N240 N 0.71688 0.93388 0.85311 0.0
C241 C 0.71834 0.96177 0.83558 0.0
C242 C 0.71848 0.94141 0.83463 0.0
C243 C 0.71593 0.94997 0.86499 0.0
N244 N 0.71691 0.96705 0.85473 0.0
O245 O 0.72947 0.91392 0.88557 0.0
H246 H 0.72026 0.93269 0.82131 0.0
H247 H 0.71474 0.94934 0.88093 0.0
O248 O 0.74375 0.90508 0.84832 0.0
C249 C 0.71554 0.9138 0.8983 0.0
O250 O 0.69721 0.91302 0.89176 0.0
N251 N 0.70579 0.89944 0.83704 0.0
C252 C 0.68356 0.88326 0.80631 0.0
C253 C 0.70363 0.87847 0.80851 0.0
C254 C 0.71446 0.88658 0.82405 0.0
C255 C 0.68645 0.90479 0.83481 0.0
C256 C 0.67505 0.897 0.81937 0.0
H257 H 0.72945 0.88154 0.82622 0.0
H258 H 0.67964 0.91454 0.84556 0.0
H259 H 0.75063 0.87919 0.87569 0.0
H260 H 0.70621 0.83573 0.87917 0.0
H261 H 0.71983 0.97189 0.82324 0.0
H262 H 0.71077 0.86799 0.79868 0.0
H263 H 0.65952 0.9009 0.81827 0.0
C264 C 0.14088 0.12622 0.28579 0.0
C265 C 0.13617 0.14368 0.27635 0.0
N266 N 0.13394 0.13989 0.25686 0.0
N267 N 0.14187 0.11158 0.27226 0.0
C268 C 0.1376 0.12037 0.25484 0.0
H269 H 0.1425 0.12418 0.30159 0.0
Co270 Co 0.14391 0.08454 0.27619 0.0
C271 C 0.17137 0.06994 0.24495 0.0
O272 O 0.17722 0.05544 0.25651 0.0
N273 N 0.14527 0.05678 0.28001 0.0
C274 C 0.15077 0.02599 0.29063 0.0
C275 C 0.15499 0.04571 0.29363 0.0
C276 C 0.13535 0.04331 0.26896 0.0
N277 N 0.1383 0.02464 0.27518 0.0
O278 O 0.11907 0.08186 0.26306 0.0
H279 H 0.1645 0.05129 0.30516 0.0
H280 H 0.12601 0.04701 0.25648 0.0
O281 O 0.15815 0.08209 0.25103 0.0
C282 C 0.10464 0.07902 0.27483 0.0
O283 O 0.10838 0.07574 0.29365 0.0
N284 N 0.16731 0.08867 0.29057 0.0
C285 C 0.19712 0.10113 0.31617 0.0
C286 C 0.20045 0.1004 0.29573 0.0
C287 C 0.18515 0.09463 0.28308 0.0
C288 C 0.16392 0.08929 0.31048 0.0
C289 C 0.17864 0.09545 0.32358 0.0
H290 H 0.18747 0.09625 0.2674 0.0
H291 H 0.14938 0.08559 0.3161 0.0
H292 H 0.13645 0.11234 0.24103 0.0
H293 H 0.13354 0.15781 0.28345 0.0
H294 H 0.15583 0.01368 0.29957 0.0
H295 H 0.21435 0.10545 0.28951 0.0
H296 H 0.17547 0.09625 0.33929 0.0
C297 C 0.8674 0.12826 0.28715 0.0
C298 C 0.8503 0.12354 0.27702 0.0
N299 N 0.855 0.12036 0.25787 0.0
N300 N 0.8827 0.12829 0.27434 0.0
C301 C 0.87472 0.12329 0.25673 0.0
H302 H 0.86863 0.13126 0.30284 0.0
Co303 Co 0.90938 0.1325 0.27905 0.0
C304 C 0.92317 0.1582 0.24585 0.0
O305 O 0.93784 0.16498 0.25665 0.0
N306 N 0.93693 0.13615 0.28364 0.0
C307 C 0.96696 0.14502 0.29418 0.0
C308 C 0.94693 0.14774 0.29662 0.0
C309 C 0.95142 0.1266 0.27355 0.0
N310 N 0.9697 0.13164 0.27971 0.0
O311 O 0.91433 0.10666 0.26853 0.0
H312 H 0.94047 0.15775 0.30721 0.0
H313 H 0.9487 0.11629 0.2616 0.0
O314 O 0.91173 0.1448 0.25283 0.0
C315 C 0.91734 0.09423 0.28238 0.0
O316 O 0.91884 0.10084 0.30063 0.0
N317 N 0.90303 0.15685 0.29094 0.0
C318 C 0.88885 0.18915 0.3126 0.0
C319 C 0.88807 0.18908 0.29182 0.0
C320 C 0.89493 0.17268 0.28129 0.0
C321 C 0.90309 0.15629 0.31112 0.0
C322 C 0.89653 0.17243 0.32224 0.0
H323 H 0.89255 0.17244 0.26553 0.0
H324 H 0.90825 0.1431 0.31862 0.0
H325 H 0.8833 0.12181 0.24329 0.0
H326 H 0.83565 0.12217 0.28337 0.0
H327 H 0.9786 0.15198 0.30274 0.0
H328 H 0.88135 0.20118 0.28374 0.0
H329 H 0.89728 0.17167 0.33824 0.0
C330 C 0.86256 0.85563 0.29249 0.0
C331 C 0.8674 0.83884 0.28189 0.0
N332 N 0.8692 0.84391 0.26268 0.0
N333 N 0.86137 0.87111 0.27995 0.0
C334 C 0.86551 0.86349 0.26194 0.0
H335 H 0.86111 0.85667 0.30841 0.0
Co336 Co 0.8599 0.89783 0.28621 0.0
C337 C 0.83718 0.91642 0.25277 0.0
O338 O 0.83312 0.93246 0.26297 0.0
N339 N 0.85913 0.92522 0.29263 0.0
C340 C 0.85285 0.95461 0.30632 0.0
C341 C 0.84764 0.93499 0.30587 0.0
C342 C 0.87105 0.93954 0.28509 0.0
N343 N 0.86758 0.95744 0.29326 0.0
O344 O 0.88584 0.90063 0.27566 0.0
H345 H 0.83597 0.92867 0.3147 0.0
H346 H 0.88227 0.93693 0.27397 0.0
O347 O 0.84793 0.90281 0.26039 0.0
C348 C 0.89803 0.89649 0.28943 0.0
O349 O 0.89108 0.89446 0.3075 0.0
N350 N 0.83522 0.8934 0.29803 0.0
C351 C 0.80174 0.88304 0.31992 0.0
C352 C 0.80084 0.88464 0.2992 0.0
C353 C 0.8178 0.8896 0.28849 0.0
C354 C 0.83657 0.89111 0.31803 0.0
C355 C 0.81996 0.88637 0.32932 0.0
H356 H 0.8169 0.88948 0.27257 0.0
H357 H 0.85071 0.89325 0.32527 0.0
H358 H 0.86735 0.87239 0.24875 0.0
H359 H 0.87 0.82421 0.2879 0.0
H360 H 0.84618 0.96597 0.31546 0.0
H361 H 0.78734 0.88133 0.2912 0.0
H362 H 0.82146 0.88527 0.34524 0.0
C363 C 0.1329 0.86531 0.29384 0.0
C364 C 0.14953 0.87601 0.28861 0.0
N365 N 0.14567 0.88553 0.27153 0.0
N366 N 0.11882 0.8677 0.2798 0.0
C367 C 0.127 0.88049 0.26679 0.0
H368 H 0.1316 0.85584 0.30666 0.0
Co369 Co 0.09346 0.85641 0.27677 0.0
C370 C 0.11684 0.83984 0.24216 0.0
O371 O 0.13407 0.84474 0.24969 0.0
N372 N 0.06815 0.84579 0.27385 0.0
C373 C 0.04243 0.82613 0.26757 0.0
C374 C 0.06278 0.82708 0.26925 0.0
C375 C 0.05092 0.85585 0.27492 0.0
N376 N 0.03515 0.84437 0.27092 0.0
O377 O 0.08554 0.87959 0.26246 0.0
H378 H 0.07299 0.81495 0.26696 0.0
H379 H 0.04976 0.87134 0.27861 0.0
O380 O 0.10085 0.84345 0.2517 0.0
C381 C 0.08116 0.89412 0.27365 0.0
O382 O 0.0798 0.89093 0.29281 0.0
N383 N 0.10095 0.8344 0.29208 0.0
C384 C 0.11457 0.80689 0.31959 0.0
C385 C 0.11868 0.80456 0.29942 0.0
C386 C 0.1116 0.81836 0.28586 0.0
C387 C 0.0958 0.83627 0.31153 0.0
C388 C 0.10243 0.8226 0.32561 0.0
H389 H 0.11511 0.816 0.27057 0.0
H390 H 0.08721 0.84895 0.31622 0.0
H391 H 0.12023 0.88424 0.25279 0.0
H392 H 0.16359 0.87609 0.29631 0.0
H393 H 0.03374 0.81323 0.26373 0.0
H394 H 0.1276 0.79228 0.29418 0.0
H395 H 0.09887 0.82479 0.3411 0.0
C396 C 0.1366 0.86499 0.70319 0.0
C397 C 0.12954 0.84749 0.71117 0.0
N398 N 0.12367 0.85114 0.72991 0.0
N399 N 0.13539 0.87933 0.71704 0.0
C400 C 0.12754 0.8704 0.73303 0.0
H401 H 0.14202 0.86717 0.68827 0.0
Co402 Co 0.14083 0.90627 0.71653 0.0
C403 C 0.15247 0.91319 0.75874 0.0
O404 O 0.14216 0.92956 0.76075 0.0
N405 N 0.14616 0.93348 0.71662 0.0
C406 C 0.16067 0.96269 0.72103 0.0
C407 C 0.16355 0.94252 0.72053 0.0
C408 C 0.13303 0.94843 0.71465 0.0
N409 N 0.14138 0.96637 0.71743 0.0
O410 O 0.11502 0.91074 0.72726 0.0
H411 H 0.17734 0.93492 0.72347 0.0
H412 H 0.11742 0.94621 0.71207 0.0
O413 O 0.15241 0.90386 0.74238 0.0
C414 C 0.10273 0.90954 0.71298 0.0
O415 O 0.10983 0.90904 0.69485 0.0
N416 N 0.16525 0.90121 0.70461 0.0
C417 C 0.19874 0.89127 0.68268 0.0
C418 C 0.19676 0.88506 0.70241 0.0
C419 C 0.17981 0.89004 0.71309 0.0
C420 C 0.16697 0.9076 0.68556 0.0
C421 C 0.18366 0.90285 0.6743 0.0
H422 H 0.17811 0.88414 0.72783 0.0
H423 H 0.15507 0.91604 0.67894 0.0
H424 H 0.12464 0.87801 0.74684 0.0
H425 H 0.12844 0.83336 0.70369 0.0
H426 H 0.1719 0.9737 0.72404 0.0
H427 H 0.20779 0.87565 0.70927 0.0
H428 H 0.1846 0.90792 0.65912 0.0
C429 C 0.13104 0.13838 0.70604 0.0
C430 C 0.14779 0.13324 0.71648 0.0
N431 N 0.1425 0.1294 0.73536 0.0
N432 N 0.11536 0.13805 0.71837 0.0
C433 C 0.12277 0.13247 0.73606 0.0
H434 H 0.13025 0.14149 0.69036 0.0
Co435 Co 0.08891 0.14095 0.71187 0.0
C436 C 0.072 0.16725 0.74238 0.0
O437 O 0.06023 0.17468 0.72878 0.0
N438 N 0.06172 0.14297 0.70529 0.0
C439 C 0.0324 0.14654 0.6906 0.0
C440 C 0.05228 0.15057 0.68932 0.0
C441 C 0.04704 0.13452 0.71605 0.0
N442 N 0.02916 0.13638 0.7074 0.0
O443 O 0.08449 0.11513 0.72211 0.0
H444 H 0.05905 0.15817 0.67707 0.0
H445 H 0.04954 0.12649 0.72969 0.0
O446 O 0.08381 0.15311 0.73781 0.0
C447 C 0.0849 0.10251 0.70812 0.0
O448 O 0.0855 0.10905 0.68979 0.0
N449 N 0.09489 0.16557 0.7004 0.0
C450 C 0.11057 0.19773 0.67993 0.0
C451 C 0.11028 0.1976 0.70065 0.0
C452 C 0.10266 0.18123 0.71063 0.0
C453 C 0.09596 0.16518 0.68024 0.0
C454 C 0.10316 0.18136 0.66965 0.0
H455 H 0.10442 0.18073 0.72649 0.0
H456 H 0.09194 0.15183 0.67235 0.0
H457 H 0.11372 0.13024 0.74909 0.0
H458 H 0.16254 0.13164 0.71042 0.0
H459 H 0.02123 0.15047 0.67978 0.0
H460 H 0.1166 0.20972 0.70905 0.0
H461 H 0.104 0.1806 0.65364 0.0
C462 C 0.87069 0.13062 0.71426 0.0
C463 C 0.87666 0.14825 0.72274 0.0
N464 N 0.87244 0.14749 0.74221 0.0
N465 N 0.86288 0.11891 0.72842 0.0
C466 C 0.8642 0.12963 0.74524 0.0
H467 H 0.87305 0.12615 0.69906 0.0
Co468 Co 0.8575 0.09201 0.72685 0.0
C469 C 0.83795 0.08278 0.7656 0.0
O470 O 0.84518 0.0648 0.76714 0.0
N471 N 0.85236 0.0644 0.72544 0.0
C472 C 0.83817 0.03472 0.72224 0.0
C473 C 0.83533 0.05488 0.72085 0.0
C474 C 0.86518 0.04956 0.72964 0.0
N475 N 0.85703 0.03146 0.72776 0.0
O476 O 0.88163 0.08768 0.74082 0.0
H477 H 0.82154 0.06194 0.71688 0.0
H478 H 0.88013 0.05176 0.7347 0.0
O479 O 0.84258 0.09371 0.75097 0.0
C480 C 0.89518 0.08603 0.72779 0.0
O481 O 0.88999 0.08478 0.70907 0.0
N482 N 0.83494 0.09748 0.71174 0.0
C483 C 0.80516 0.10815 0.68535 0.0
C484 C 0.80146 0.10767 0.70575 0.0
C485 C 0.81664 0.10257 0.71879 0.0
C486 C 0.83865 0.09745 0.69191 0.0
C487 C 0.82399 0.10294 0.6784 0.0
H488 H 0.81352 0.10298 0.73443 0.0
H489 H 0.85327 0.09359 0.68662 0.0
H490 H 0.8608 0.12389 0.7598 0.0
H491 H 0.88415 0.16034 0.71535 0.0
H492 H 0.82725 0.0234 0.71919 0.0
H493 H 0.78712 0.11188 0.71161 0.0
H494 H 0.82734 0.10322 0.66272 0.0
C495 C 0.86533 0.86669 0.70974 0.0
C496 C 0.84816 0.87354 0.71856 0.0
N497 N 0.85193 0.87675 0.73791 0.0
N498 N 0.87963 0.86536 0.72361 0.0
C499 C 0.871 0.87158 0.74051 0.0
H500 H 0.86732 0.86312 0.69424 0.0
Co501 Co 0.90617 0.85843 0.72168 0.0
C502 C 0.9142 0.84255 0.76181 0.0
O503 O 0.93048 0.85298 0.76393 0.0
N504 N 0.93314 0.85153 0.72031 0.0
C505 C 0.96137 0.83443 0.72109 0.0
C506 C 0.94102 0.83312 0.72085 0.0
C507 C 0.94902 0.86371 0.72037 0.0
N508 N 0.96628 0.85372 0.72098 0.0
O509 O 0.91234 0.88242 0.73517 0.0
H510 H 0.93254 0.81957 0.72164 0.0
H511 H 0.94814 0.87967 0.72019 0.0
O512 O 0.90394 0.84411 0.7461 0.0
C513 C 0.91297 0.89648 0.72265 0.0
O514 O 0.91275 0.89201 0.70369 0.0
N515 N 0.89932 0.83578 0.70728 0.0
C516 C 0.88827 0.80406 0.68335 0.0
C517 C 0.8818 0.80526 0.70305 0.0
C518 C 0.88731 0.82134 0.7147 0.0
C519 C 0.90556 0.83508 0.68809 0.0
C520 C 0.90024 0.81926 0.67583 0.0
H521 H 0.88136 0.82241 0.72948 0.0
H522 H 0.9146 0.84694 0.68227 0.0
H523 H 0.87868 0.87235 0.75456 0.0
H524 H 0.83417 0.87634 0.71125 0.0
H525 H 0.97172 0.82221 0.72194 0.0
H526 H 0.872 0.79417 0.70924 0.0
H527 H 0.90542 0.81894 0.66065 0.0
C528 C 0.29185 0.12628 0.12346 0.0
C529 C 0.28458 0.11831 0.1408 0.0
N530 N 0.26459 0.11871 0.14009 0.0
N531 N 0.27652 0.13179 0.11199 0.0
C532 C 0.26021 0.12707 0.12248 0.0
H533 H 0.30725 0.12722 0.11912 0.0
Co534 Co 0.27677 0.13992 0.08578 0.0
C535 C 0.23697 0.15746 0.08043 0.0
O536 O 0.23397 0.14785 0.06378 0.0
N537 N 0.27669 0.14789 0.05911 0.0
C538 C 0.2749 0.16576 0.03143 0.0
C539 C 0.27608 0.16652 0.05179 0.0
C540 C 0.27575 0.13616 0.04294 0.0
N541 N 0.27448 0.1466 0.02601 0.0
O542 O 0.26222 0.11659 0.0796 0.0
H543 H 0.276 0.17983 0.0607 0.0
H544 H 0.27589 0.12019 0.04337 0.0
O545 O 0.25294 0.15489 0.0901 0.0
C546 C 0.27443 0.1023 0.07799 0.0
O547 O 0.29343 0.10647 0.07709 0.0
N548 N 0.29215 0.16182 0.09277 0.0
C549 C 0.31839 0.19043 0.10648 0.0
C550 C 0.29915 0.18923 0.11414 0.0
C551 C 0.28626 0.17477 0.10713 0.0
C552 C 0.31075 0.16286 0.08496 0.0
C553 C 0.32408 0.17731 0.09143 0.0
H554 H 0.27189 0.17343 0.11401 0.0
H555 H 0.3154 0.15209 0.07405 0.0
H556 H 0.24537 0.12916 0.11686 0.0
H557 H 0.2934 0.11193 0.15255 0.0
H558 H 0.27386 0.17826 0.02145 0.0
H559 H 0.29425 0.19913 0.12578 0.0
H560 H 0.33892 0.17768 0.08535 0.0
C561 C 0.28839 0.85873 0.86388 0.0
C562 C 0.27823 0.8639 0.84692 0.0
N563 N 0.25924 0.86769 0.85187 0.0
N564 N 0.27576 0.85903 0.87932 0.0
C565 C 0.2582 0.86455 0.87155 0.0
H566 H 0.30405 0.85557 0.86497 0.0
Co567 Co 0.28084 0.85602 0.90611 0.0
C568 C 0.25034 0.82835 0.92057 0.0
O569 O 0.2635 0.82098 0.93285 0.0
N570 N 0.28559 0.85376 0.93377 0.0
C571 C 0.29613 0.84738 0.96445 0.0
C572 C 0.29961 0.84432 0.94461 0.0
C573 C 0.2739 0.86247 0.94757 0.0
N574 N 0.27998 0.85887 0.96621 0.0
O575 O 0.26951 0.88156 0.9101 0.0
H576 H 0.31166 0.83558 0.93891 0.0
H577 H 0.26086 0.8711 0.94406 0.0
O578 O 0.25509 0.8429 0.90938 0.0
C579 C 0.28315 0.89453 0.91099 0.0
O580 O 0.30164 0.88845 0.91179 0.0
N581 N 0.29361 0.8319 0.90062 0.0
C582 C 0.31668 0.8002 0.88722 0.0
C583 C 0.29595 0.79985 0.8854 0.0
C584 C 0.28472 0.81595 0.8919 0.0
C585 C 0.31373 0.83295 0.9015 0.0
C586 C 0.32551 0.81708 0.89552 0.0
H587 H 0.26906 0.81597 0.88874 0.0
H588 H 0.32071 0.84639 0.90673 0.0
H589 H 0.24496 0.86663 0.88034 0.0
H590 H 0.28451 0.86548 0.83226 0.0
H591 H 0.30506 0.84198 0.97661 0.0
H592 H 0.28847 0.78769 0.87812 0.0
H593 H 0.34142 0.81825 0.89711 0.0
C594 C 0.12281 0.28741 0.86631 0.0
C595 C 0.11523 0.28009 0.84879 0.0
N596 N 0.11452 0.26013 0.84999 0.0
N597 N 0.12696 0.27212 0.87839 0.0
C598 C 0.12178 0.25582 0.8681 0.0
H599 H 0.12456 0.30283 0.87024 0.0
Co600 Co 0.13467 0.27232 0.90477 0.0
C601 C 0.15022 0.23145 0.9105 0.0
O602 O 0.14109 0.22881 0.92748 0.0
N603 N 0.14222 0.27208 0.93163 0.0
C604 C 0.15907 0.26686 0.95948 0.0
C605 C 0.16041 0.2686 0.93919 0.0
C606 C 0.13024 0.27281 0.94763 0.0
N607 N 0.13997 0.26933 0.96476 0.0
O608 O 0.11016 0.25958 0.9108 0.0
H609 H 0.17365 0.26641 0.93043 0.0
H610 H 0.11453 0.27542 0.94676 0.0
O611 O 0.14805 0.24752 0.90094 0.0
C612 C 0.09708 0.27312 0.91222 0.0
O613 O 0.10301 0.29166 0.91267 0.0
N614 N 0.15773 0.28603 0.89795 0.0
C615 C 0.18773 0.31048 0.88378 0.0
C616 C 0.18559 0.29114 0.87658 0.0
C617 C 0.17046 0.27915 0.8838 0.0
C618 C 0.15983 0.30463 0.90548 0.0
C619 C 0.17494 0.31708 0.89876 0.0
H620 H 0.16837 0.26475 0.8772 0.0
H621 H 0.14928 0.31008 0.91624 0.0
H622 H 0.1229 0.24106 0.87413 0.0
H623 H 0.11005 0.28891 0.83647 0.0
H624 H 0.17112 0.26315 0.96937 0.0
H625 H 0.19522 0.2855 0.86504 0.0
H626 H 0.17601 0.33201 0.90451 0.0
C627 C 0.69629 0.13519 0.86468 0.0
C628 C 0.705 0.12966 0.84696 0.0
N629 N 0.72479 0.12975 0.84953 0.0
N630 N 0.71063 0.13853 0.87818 0.0
C631 C 0.72772 0.135 0.86849 0.0
H632 H 0.68059 0.13595 0.86774 0.0
Co633 Co 0.70892 0.14297 0.90526 0.0
C634 C 0.75044 0.15421 0.91516 0.0
O635 O 0.75139 0.14268 0.93079 0.0
N636 N 0.70777 0.14735 0.93276 0.0
C637 C 0.71103 0.16165 0.96227 0.0
C638 C 0.70974 0.16487 0.94221 0.0
C639 C 0.70782 0.13375 0.94745 0.0
N640 N 0.71 0.142 0.96554 0.0
O641 O 0.71974 0.11712 0.90909 0.0
H642 H 0.71113 0.17908 0.93498 0.0
H643 H 0.70747 0.11798 0.94492 0.0
O644 O 0.73472 0.15495 0.90481 0.0
C645 C 0.70545 0.1049 0.90742 0.0
O646 O 0.68734 0.11207 0.90687 0.0
N647 N 0.69693 0.16743 0.90046 0.0
C648 C 0.67548 0.20144 0.89115 0.0
C649 C 0.69543 0.19962 0.88564 0.0
C650 C 0.70586 0.18242 0.89026 0.0
C651 C 0.67758 0.16888 0.90598 0.0
C652 C 0.66656 0.18582 0.90154 0.0
H653 H 0.72087 0.18094 0.88496 0.0
H654 H 0.6706 0.15665 0.91359 0.0
H655 H 0.74212 0.13503 0.87549 0.0
H656 H 0.69744 0.12559 0.83342 0.0
H657 H 0.71305 0.17293 0.97346 0.0
H658 H 0.70273 0.21106 0.87709 0.0
H659 H 0.65118 0.1866 0.90602 0.0
C660 C 0.86391 0.70424 0.86659 0.0
C661 C 0.87064 0.71287 0.84927 0.0
N662 N 0.87345 0.73234 0.8527 0.0
N663 N 0.8623 0.71834 0.88063 0.0
C664 C 0.86814 0.73519 0.8717 0.0
H665 H 0.86085 0.6887 0.86892 0.0
Co666 Co 0.85625 0.71677 0.90738 0.0
C667 C 0.84157 0.7572 0.91556 0.0
O668 O 0.85318 0.75919 0.93105 0.0
N669 N 0.85025 0.71579 0.93456 0.0
C670 C 0.83416 0.71737 0.96333 0.0
C671 C 0.83213 0.71673 0.94305 0.0
C672 C 0.86299 0.71601 0.95 0.0
N673 N 0.85361 0.71712 0.96756 0.0
O674 O 0.88061 0.73008 0.91255 0.0
H675 H 0.8183 0.71757 0.93501 0.0
H676 H 0.8789 0.71565 0.94857 0.0
O677 O 0.84198 0.74134 0.90541 0.0
C678 C 0.89472 0.71756 0.91294 0.0
O679 O 0.89028 0.69861 0.91331 0.0
N680 N 0.8333 0.70249 0.90144 0.0
C681 C 0.80178 0.67802 0.89089 0.0
C682 C 0.80278 0.69761 0.88402 0.0
C683 C 0.81872 0.70958 0.88936 0.0
C684 C 0.83269 0.68351 0.90822 0.0
C685 C 0.81696 0.67104 0.90326 0.0
H686 H 0.81969 0.72425 0.88313 0.0
H687 H 0.84464 0.67797 0.91734 0.0
H688 H 0.86879 0.74933 0.87919 0.0
H689 H 0.87381 0.70532 0.83549 0.0
H690 H 0.82232 0.71865 0.97407 0.0
H691 H 0.79174 0.70346 0.87395 0.0
H692 H 0.81679 0.65605 0.90893 0.0
C693 C 0.71083 0.8675 0.13402 0.0
C694 C 0.71915 0.87353 0.15171 0.0
N695 N 0.73895 0.8747 0.14929 0.0
N696 N 0.72539 0.86487 0.12063 0.0
C697 C 0.74223 0.8694 0.13033 0.0
H698 H 0.69522 0.86557 0.13098 0.0
Co699 Co 0.72396 0.85902 0.09384 0.0
C700 C 0.76375 0.84266 0.0857 0.0
O701 O 0.7661 0.85371 0.06987 0.0
N702 N 0.72297 0.85317 0.06659 0.0
C703 C 0.72352 0.83704 0.0378 0.0
C704 C 0.72312 0.83504 0.05808 0.0
C705 C 0.72345 0.86589 0.05114 0.0
N706 N 0.72392 0.85648 0.03356 0.0
O707 O 0.73807 0.8829 0.08893 0.0
H708 H 0.72344 0.82118 0.06609 0.0
H709 H 0.72359 0.8818 0.05254 0.0
O710 O 0.74802 0.84404 0.09598 0.0
C711 C 0.72576 0.89715 0.08809 0.0
O712 O 0.70675 0.89302 0.08753 0.0
N713 N 0.70889 0.83656 0.09952 0.0
C714 C 0.68327 0.80585 0.10948 0.0
C715 C 0.70305 0.80561 0.11581 0.0
C716 C 0.7156 0.82121 0.11085 0.0
C717 C 0.68972 0.83712 0.09327 0.0
C718 C 0.67663 0.82185 0.09802 0.0
H719 H 0.73046 0.8212 0.11671 0.0
H720 H 0.68453 0.84966 0.08475 0.0
H721 H 0.7566 0.86968 0.12326 0.0
H722 H 0.71119 0.87689 0.16521 0.0
H723 H 0.72407 0.82517 0.02704 0.0
H724 H 0.70862 0.79382 0.12516 0.0
H725 H 0.66145 0.82261 0.09289 0.0
C726 C 0.1433 0.70301 0.12977 0.0
C727 C 0.1396 0.71308 0.14718 0.0
N728 N 0.1341 0.73172 0.14259 0.0
N729 N 0.14023 0.71535 0.11437 0.0
C730 C 0.13441 0.73255 0.12266 0.0
H731 H 0.14792 0.68774 0.12843 0.0
Co732 Co 0.14202 0.71088 0.08731 0.0
C733 C 0.16277 0.74664 0.07145 0.0
O734 O 0.16993 0.73656 0.05644 0.0
N735 N 0.14315 0.70666 0.05967 0.0
C736 C 0.15018 0.69757 0.02872 0.0
C737 C 0.15439 0.69446 0.0484 0.0
C738 C 0.13209 0.7168 0.04636 0.0
N739 N 0.13614 0.71163 0.02753 0.0
O740 O 0.11504 0.71876 0.08514 0.0
H741 H 0.16529 0.6841 0.05374 0.0
H742 H 0.12171 0.72834 0.05033 0.0
O743 O 0.1512 0.73816 0.08383 0.0
C744 C 0.10407 0.70359 0.08724 0.0
O745 O 0.11262 0.68612 0.08799 0.0
N746 N 0.16791 0.70148 0.09093 0.0
C747 C 0.20272 0.68283 0.10312 0.0
C748 C 0.2013 0.70355 0.1029 0.0
C749 C 0.18364 0.71258 0.09715 0.0
C750 C 0.16898 0.68132 0.09131 0.0
C751 C 0.18635 0.67168 0.09697 0.0
H752 H 0.18244 0.72836 0.09904 0.0
H753 H 0.15598 0.67268 0.0877 0.0
H754 H 0.13004 0.74538 0.11414 0.0
H755 H 0.14118 0.70724 0.16202 0.0
H756 H 0.15679 0.68994 0.01626 0.0
H757 H 0.21347 0.71271 0.10791 0.0
H758 H 0.18659 0.65565 0.09754 0.0
C759 C 0.86183 0.28912 0.13913 0.0
C760 C 0.86783 0.2797 0.15627 0.0
N761 N 0.86966 0.26018 0.15241 0.0
N762 N 0.8599 0.27553 0.12466 0.0
C763 C 0.86474 0.25815 0.13318 0.0
H764 H 0.8596 0.30486 0.13718 0.0
Co765 Co 0.85493 0.27873 0.09787 0.0
C766 C 0.83867 0.23949 0.08645 0.0
O767 O 0.84936 0.23836 0.07024 0.0
N768 N 0.84998 0.28147 0.07054 0.0
C769 C 0.83486 0.2828 0.04122 0.0
C770 C 0.83216 0.28237 0.06142 0.0
C771 C 0.86321 0.28121 0.05551 0.0
N772 N 0.85441 0.28187 0.03763 0.0
O773 O 0.87929 0.26533 0.09282 0.0
H774 H 0.818 0.28205 0.0689 0.0
H775 H 0.87905 0.28024 0.05739 0.0
O776 O 0.84032 0.25435 0.0979 0.0
C777 C 0.89343 0.27778 0.09324 0.0
O778 O 0.88912 0.29675 0.09401 0.0
N779 N 0.83195 0.29302 0.10379 0.0
C780 C 0.79967 0.3169 0.11326 0.0
C781 C 0.79994 0.29684 0.11859 0.0
C782 C 0.81631 0.28518 0.11391 0.0
C783 C 0.83215 0.31255 0.09875 0.0
C784 C 0.81609 0.3248 0.10328 0.0
H785 H 0.81654 0.27002 0.11893 0.0
H786 H 0.84491 0.31864 0.09121 0.0
H787 H 0.86572 0.24438 0.12506 0.0
H788 H 0.87091 0.28674 0.17033 0.0
H789 H 0.82336 0.28302 0.03005 0.0
H790 H 0.78786 0.29032 0.12687 0.0
H791 H 0.8165 0.34025 0.09903 0.0
C792 C 0.63373 0.78666 0.63343 0.0
C793 C 0.6513 0.77791 0.6275 0.0
N794 N 0.64846 0.75818 0.62689 0.0
N795 N 0.62008 0.77239 0.63639 0.0
C796 C 0.62949 0.75531 0.63214 0.0
H797 H 0.63094 0.80235 0.63501 0.0
Co798 Co 0.59325 0.77442 0.64201 0.0
C799 C 0.58309 0.7333 0.65531 0.0
O800 O 0.56564 0.7327 0.64673 0.0
N801 N 0.56593 0.77602 0.64752 0.0
C802 C 0.53664 0.77411 0.66256 0.0
C803 C 0.55684 0.77475 0.6653 0.0
C804 C 0.5509 0.77623 0.6343 0.0
N805 N 0.53294 0.77492 0.64297 0.0
O806 O 0.58821 0.76379 0.61639 0.0
H807 H 0.56439 0.77351 0.67937 0.0
H808 H 0.55302 0.77628 0.61849 0.0
O809 O 0.59397 0.74858 0.65379 0.0
C810 C 0.58892 0.77816 0.60419 0.0
O811 O 0.58992 0.79626 0.6113 0.0
N812 N 0.59932 0.78617 0.66629 0.0
C813 C 0.61301 0.80779 0.69862 0.0
C814 C 0.61721 0.78752 0.69688 0.0
C815 C 0.6104 0.777 0.6805 0.0
C816 C 0.59457 0.8057 0.66797 0.0
C817 C 0.60115 0.81681 0.68415 0.0
H818 H 0.61494 0.76176 0.67888 0.0
H819 H 0.58627 0.81286 0.65628 0.0
H820 H 0.62233 0.74099 0.63195 0.0
H821 H 0.66498 0.78542 0.62386 0.0
H822 H 0.52564 0.77278 0.67413 0.0
H823 H 0.62623 0.77996 0.70778 0.0
H824 H 0.5978 0.83248 0.6848 0.0
C825 C 0.20573 0.63457 0.63632 0.0
C826 C 0.21436 0.65189 0.62961 0.0
N827 N 0.23315 0.6478 0.62421 0.0
N828 N 0.21921 0.61986 0.63536 0.0
C829 C 0.23564 0.6284 0.62796 0.0
H830 H 0.19063 0.63278 0.64138 0.0
Co831 Co 0.21757 0.593 0.6409 0.0
C832 C 0.25898 0.58389 0.6526 0.0
O833 O 0.25968 0.56754 0.64209 0.0
N834 N 0.21646 0.56578 0.64634 0.0
C835 C 0.21969 0.53646 0.66101 0.0
C836 C 0.21944 0.55664 0.66388 0.0
C837 C 0.21473 0.55085 0.63315 0.0
N838 N 0.21684 0.53286 0.64158 0.0
O839 O 0.22863 0.588 0.61537 0.0
H840 H 0.22208 0.56417 0.67777 0.0
H841 H 0.21297 0.55308 0.61745 0.0
O842 O 0.24335 0.5944 0.65287 0.0
C843 C 0.2148 0.58895 0.60258 0.0
O844 O 0.19644 0.59039 0.60892 0.0
N845 N 0.20538 0.5986 0.66505 0.0
C846 C 0.18298 0.60905 0.69808 0.0
C847 C 0.20299 0.61452 0.69667 0.0
C848 C 0.21393 0.60928 0.67993 0.0
C849 C 0.18605 0.59298 0.66621 0.0
C850 C 0.17457 0.59797 0.68266 0.0
H851 H 0.22899 0.6145 0.67867 0.0
H852 H 0.17942 0.5849 0.65406 0.0
H853 H 0.2493 0.62043 0.62538 0.0
H854 H 0.20727 0.66622 0.62847 0.0
H855 H 0.22216 0.52539 0.67231 0.0
H856 H 0.20993 0.62351 0.708 0.0
H857 H 0.1592 0.59342 0.68317 0.0
C858 C 0.3663 0.20767 0.62114 0.0
C859 C 0.3491 0.21554 0.61336 0.0
N860 N 0.34924 0.23518 0.61674 0.0
N861 N 0.37716 0.22242 0.62907 0.0
C862 C 0.36633 0.23896 0.62619 0.0
H863 H 0.3712 0.19247 0.6199 0.0
Co864 Co 0.40356 0.22145 0.63644 0.0
C865 C 0.41072 0.26165 0.65295 0.0
O866 O 0.42793 0.26369 0.64412 0.0
N867 N 0.43048 0.22069 0.64359 0.0
C868 C 0.45888 0.22228 0.66026 0.0
C869 C 0.43852 0.22215 0.66184 0.0
C870 C 0.44621 0.21983 0.63127 0.0
N871 N 0.46367 0.22087 0.64094 0.0
O872 O 0.40952 0.2349 0.61232 0.0
H873 H 0.43013 0.22352 0.67542 0.0
H874 H 0.44498 0.21916 0.61539 0.0
O875 O 0.40056 0.24599 0.65052 0.0
C876 C 0.41051 0.22219 0.59841 0.0
O877 O 0.41077 0.2033 0.60314 0.0
N878 N 0.39669 0.20715 0.65909 0.0
C879 C 0.38252 0.18208 0.68861 0.0
C880 C 0.37638 0.2019 0.68769 0.0
C881 C 0.38352 0.21417 0.67274 0.0
C882 C 0.40321 0.18807 0.65997 0.0
C883 C 0.39645 0.17528 0.67478 0.0
H884 H 0.37766 0.229 0.67165 0.0
H885 H 0.41319 0.18257 0.64869 0.0
H886 H 0.37156 0.25377 0.62932 0.0
H887 H 0.33782 0.20765 0.60514 0.0
H888 H 0.46925 0.2234 0.67242 0.0
H889 H 0.36571 0.20775 0.69815 0.0
H890 H 0.40137 0.16002 0.67483 0.0
C891 C 0.7905 0.36131 0.63123 0.0
C892 C 0.78173 0.34392 0.625 0.0
N893 N 0.76246 0.3476 0.62117 0.0
N894 N 0.77672 0.37575 0.6315 0.0
C895 C 0.75991 0.36697 0.62525 0.0
H896 H 0.80592 0.36337 0.63503 0.0
Co897 Co 0.77919 0.40253 0.6371 0.0
C898 C 0.73808 0.41372 0.64876 0.0
O899 O 0.73825 0.43061 0.63912 0.0
N900 N 0.78128 0.4298 0.64269 0.0
C901 C 0.77961 0.45885 0.65821 0.0
C902 C 0.7797 0.43863 0.66059 0.0
C903 C 0.78225 0.44504 0.62974 0.0
N904 N 0.78108 0.46286 0.63873 0.0
O905 O 0.76918 0.40783 0.61127 0.0
H906 H 0.77786 0.43093 0.6745 0.0
H907 H 0.78274 0.44322 0.61388 0.0
O908 O 0.75308 0.40232 0.6483 0.0
C909 C 0.78377 0.40691 0.59934 0.0
O910 O 0.80173 0.40579 0.60679 0.0
N911 N 0.79044 0.39628 0.66156 0.0
C912 C 0.81156 0.38351 0.69452 0.0
C913 C 0.79091 0.38165 0.69389 0.0
C914 C 0.7806 0.38786 0.6771 0.0
C915 C 0.81046 0.39863 0.66213 0.0
C916 C 0.82138 0.39223 0.67847 0.0
H917 H 0.76486 0.3852 0.67649 0.0
H918 H 0.81803 0.40494 0.6495 0.0
H919 H 0.74601 0.37477 0.62368 0.0
H920 H 0.78909 0.32982 0.62308 0.0
H921 H 0.77818 0.46969 0.66992 0.0
H922 H 0.78291 0.37464 0.7059 0.0
H923 H 0.83735 0.39382 0.67846 0.0
C924 C 0.63239 0.20746 0.37241 0.0
C925 C 0.64966 0.21656 0.37856 0.0
N926 N 0.64738 0.23627 0.37641 0.0
N927 N 0.61944 0.22147 0.36651 0.0
C928 C 0.62898 0.23878 0.3692 0.0
H929 H 0.62922 0.19177 0.37281 0.0
Co930 Co 0.59298 0.21889 0.35976 0.0
C931 C 0.58343 0.25872 0.34423 0.0
O932 O 0.56774 0.26038 0.35562 0.0
N933 N 0.56599 0.21673 0.35308 0.0
C934 C 0.5376 0.21797 0.33634 0.0
C935 C 0.55793 0.21731 0.33477 0.0
C936 C 0.55025 0.21694 0.36543 0.0
N937 N 0.5328 0.21787 0.35571 0.0
O938 O 0.58679 0.23244 0.38373 0.0
H939 H 0.56628 0.21807 0.32113 0.0
H940 H 0.55146 0.21752 0.38132 0.0
O941 O 0.59417 0.24327 0.34509 0.0
C942 C 0.58619 0.21996 0.39785 0.0
O943 O 0.58646 0.20099 0.3935 0.0
N944 N 0.6002 0.20451 0.33722 0.0
C945 C 0.61512 0.17989 0.30766 0.0
C946 C 0.62022 0.2 0.30828 0.0
C947 C 0.61275 0.21202 0.32328 0.0
C948 C 0.5947 0.18511 0.33667 0.0
C949 C 0.60186 0.17252 0.32185 0.0
H950 H 0.6179 0.2271 0.32416 0.0
H951 H 0.58522 0.17924 0.34817 0.0
H952 H 0.62219 0.25312 0.36696 0.0
H953 H 0.66273 0.2093 0.38435 0.0
H954 H 0.52726 0.21885 0.32413 0.0
H955 H 0.63033 0.20632 0.29756 0.0
H956 H 0.59776 0.15702 0.32203 0.0
C957 C 0.7867 0.63422 0.36572 0.0
C958 C 0.77782 0.65155 0.3721 0.0
N959 N 0.75835 0.64798 0.37479 0.0
N960 N 0.77275 0.62002 0.3642 0.0
C961 C 0.75576 0.62887 0.36979 0.0
H962 H 0.80228 0.63202 0.36273 0.0
Co963 Co 0.77459 0.59327 0.35822 0.0
C964 C 0.7344 0.58511 0.3421 0.0
O965 O 0.73198 0.56902 0.35276 0.0
N966 N 0.77589 0.5661 0.35226 0.0
C967 C 0.77393 0.53724 0.33646 0.0
C968 C 0.77411 0.55751 0.33428 0.0
C969 C 0.77692 0.55075 0.36503 0.0
N970 N 0.77562 0.53304 0.35589 0.0
O971 O 0.76111 0.58799 0.38246 0.0
H972 H 0.77241 0.56547 0.32049 0.0
H973 H 0.77777 0.55242 0.38088 0.0
O974 O 0.75021 0.5952 0.34367 0.0
C975 C 0.7739 0.58758 0.39633 0.0
O976 O 0.79278 0.58772 0.39158 0.0
N977 N 0.78907 0.59922 0.33544 0.0
C978 C 0.81395 0.60981 0.30433 0.0
C979 C 0.79415 0.61609 0.30467 0.0
C980 C 0.78199 0.6108 0.32047 0.0
C981 C 0.80825 0.59295 0.33541 0.0
C982 C 0.82098 0.59803 0.31992 0.0
H983 H 0.76714 0.61667 0.32096 0.0
H984 H 0.81376 0.58422 0.34767 0.0
H985 H 0.74167 0.62127 0.37037 0.0
H986 H 0.78519 0.66547 0.37503 0.0
H987 H 0.77248 0.52651 0.32465 0.0
H988 H 0.78829 0.62567 0.29321 0.0
H989 H 0.83619 0.59293 0.32023 0.0
C990 C 0.36226 0.79347 0.37461 0.0
C991 C 0.34603 0.78285 0.38084 0.0
N992 N 0.34747 0.76438 0.37345 0.0
N993 N 0.37381 0.78182 0.36319 0.0
C994 C 0.36433 0.7642 0.36276 0.0
H995 H 0.36625 0.80814 0.37959 0.0
Co996 Co 0.40019 0.78697 0.35715 0.0
C997 C 0.40936 0.74564 0.34349 0.0
O998 O 0.41967 0.74077 0.35925 0.0
N999 N 0.42699 0.79216 0.35176 0.0
C1000 C 0.45501 0.80772 0.34419 0.0
C1001 C 0.43473 0.80806 0.34243 0.0
C1002 C 0.44292 0.78241 0.35902 0.0
N1003 N 0.46012 0.79162 0.35479 0.0
O1004 O 0.40682 0.77389 0.38117 0.0
H1005 H 0.42625 0.81982 0.33565 0.0
H1006 H 0.44192 0.76968 0.36863 0.0
O1007 O 0.40168 0.7628 0.34206 0.0
C1008 C 0.41037 0.78558 0.39551 0.0
O1009 O 0.41299 0.80448 0.39172 0.0
N1010 N 0.39255 0.80091 0.33438 0.0
C1011 C 0.37839 0.82403 0.30331 0.0
C1012 C 0.38847 0.80628 0.29947 0.0
C1013 C 0.39548 0.79487 0.31527 0.0
C1014 C 0.38377 0.81865 0.33825 0.0
C1015 C 0.37634 0.83033 0.32296 0.0
H1016 H 0.40332 0.78132 0.31201 0.0
H1017 H 0.3825 0.82377 0.35335 0.0
H1018 H 0.37053 0.75088 0.35646 0.0
H1019 H 0.3347 0.78799 0.39095 0.0
H1020 H 0.46511 0.81895 0.33884 0.0
H1021 H 0.39049 0.80104 0.28444 0.0
H1022 H 0.36907 0.8442 0.32648 0.0
C1023 C 0.20613 0.36831 0.36335 0.0
C1024 C 0.21435 0.35099 0.37053 0.0
N1025 N 0.23405 0.35371 0.37239 0.0
N1026 N 0.2207 0.38165 0.36052 0.0
C1027 C 0.23742 0.37232 0.36612 0.0
H1028 H 0.19058 0.37112 0.36073 0.0
Co1029 Co 0.21962 0.408 0.35293 0.0
C1030 C 0.25931 0.41447 0.33531 0.0
O1031 O 0.26162 0.43175 0.34395 0.0
N1032 N 0.21892 0.43479 0.34537 0.0
C1033 C 0.21954 0.46274 0.32782 0.0
C1034 C 0.21881 0.44237 0.32682 0.0
C1035 C 0.21982 0.45084 0.35728 0.0
N1036 N 0.22039 0.46791 0.34703 0.0
O1037 O 0.23413 0.41427 0.37637 0.0
H1038 H 0.21872 0.43367 0.31338 0.0
H1039 H 0.22017 0.45025 0.37324 0.0
O1040 O 0.24365 0.40442 0.33817 0.0
C1041 C 0.22262 0.41619 0.39117 0.0
O1042 O 0.20341 0.41675 0.38804 0.0
N1043 N 0.20438 0.40106 0.33084 0.0
C1044 C 0.17868 0.38967 0.30063 0.0
C1045 C 0.1985 0.38344 0.3006 0.0
C1046 C 0.21107 0.3891 0.31596 0.0
C1047 C 0.18516 0.40723 0.3312 0.0
C1048 C 0.17202 0.40172 0.31619 0.0
H1049 H 0.22598 0.38333 0.3161 0.0
H1050 H 0.17999 0.41628 0.34337 0.0
H1051 H 0.25188 0.37921 0.36579 0.0
H1052 H 0.20639 0.33768 0.37456 0.0
H1053 H 0.21999 0.4729 0.31543 0.0
H1054 H 0.20408 0.37367 0.28916 0.0
H1055 H 0.15681 0.40678 0.31679 0.0
C1056 C 0.63476 0.62571 0.78978 0.0
C1057 C 0.62897 0.64306 0.78067 0.0
N1058 N 0.63015 0.64041 0.76092 0.0
N1059 N 0.63951 0.61231 0.77576 0.0
C1060 C 0.63658 0.62171 0.7584 0.0
H1061 H 0.63433 0.62265 0.8055 0.0
Co1062 Co 0.64299 0.58537 0.77867 0.0
C1063 C 0.67247 0.5736 0.74822 0.0
O1064 O 0.67891 0.55935 0.75978 0.0
N1065 N 0.64569 0.55757 0.78133 0.0
C1066 C 0.65137 0.52644 0.79077 0.0
C1067 C 0.65445 0.54608 0.79524 0.0
C1068 C 0.63754 0.5444 0.76859 0.0
N1069 N 0.6406 0.52549 0.77406 0.0
O1070 O 0.61868 0.582 0.7647 0.0
H1071 H 0.6624 0.55126 0.80806 0.0
H1072 H 0.62937 0.54855 0.75546 0.0
O1073 O 0.65807 0.58456 0.75388 0.0
C1074 C 0.60379 0.57795 0.7755 0.0
O1075 O 0.60674 0.57332 0.79417 0.0
N1076 N 0.66591 0.59028 0.79369 0.0
C1077 C 0.6957 0.60271 0.81958 0.0
C1078 C 0.69782 0.60497 0.79904 0.0
C1079 C 0.68261 0.59905 0.78639 0.0
C1080 C 0.66325 0.58871 0.81364 0.0
C1081 C 0.6781 0.59444 0.82686 0.0
H1082 H 0.68396 0.60274 0.77094 0.0
H1083 H 0.64932 0.58319 0.81933 0.0
H1084 H 0.63742 0.61444 0.74415 0.0
H1085 H 0.62359 0.6563 0.78795 0.0
H1086 H 0.65593 0.51387 0.79961 0.0
H1087 H 0.71067 0.61225 0.7928 0.0
H1088 H 0.67565 0.59269 0.84261 0.0
C1089 C 0.36954 0.62763 0.78689 0.0
C1090 C 0.35253 0.62213 0.77706 0.0
N1091 N 0.35592 0.62358 0.75745 0.0
N1092 N 0.3835 0.63249 0.77349 0.0
C1093 C 0.37477 0.6299 0.75571 0.0
H1094 H 0.37194 0.62713 0.80272 0.0
Co1095 Co 0.41009 0.63642 0.77846 0.0
C1096 C 0.4237 0.66605 0.74934 0.0
O1097 O 0.43596 0.67295 0.76276 0.0
N1098 N 0.4377 0.63953 0.78348 0.0
C1099 C 0.46777 0.6466 0.79525 0.0
C1100 C 0.44776 0.64944 0.79773 0.0
C1101 C 0.45216 0.63087 0.77256 0.0
N1102 N 0.47046 0.63479 0.77947 0.0
O1103 O 0.41491 0.61183 0.76549 0.0
H1104 H 0.4414 0.65832 0.80934 0.0
H1105 H 0.44942 0.6218 0.75964 0.0
O1106 O 0.41286 0.65103 0.7534 0.0
C1107 C 0.41772 0.59748 0.77737 0.0
O1108 O 0.42047 0.60137 0.79624 0.0
N1109 N 0.40353 0.65961 0.79243 0.0
C1110 C 0.38872 0.69017 0.81616 0.0
C1111 C 0.38707 0.69098 0.79546 0.0
C1112 C 0.39422 0.67544 0.78391 0.0
C1113 C 0.4041 0.65795 0.81255 0.0
C1114 C 0.39734 0.67328 0.82469 0.0
H1115 H 0.39114 0.67576 0.76825 0.0
H1116 H 0.40983 0.64455 0.8192 0.0
H1117 H 0.3825 0.63118 0.74173 0.0
H1118 H 0.33893 0.61692 0.78376 0.0
H1119 H 0.47941 0.65223 0.80474 0.0
H1120 H 0.37948 0.70309 0.7882 0.0
H1121 H 0.39868 0.67175 0.84059 0.0
C1122 C 0.3565 0.36421 0.79081 0.0
C1123 C 0.36177 0.34679 0.78146 0.0
N1124 N 0.36272 0.35034 0.76185 0.0
N1125 N 0.35424 0.37852 0.77706 0.0
C1126 C 0.35821 0.36961 0.75965 0.0
H1127 H 0.35535 0.36653 0.80661 0.0
Co1128 Co 0.3514 0.40552 0.78077 0.0
C1129 C 0.32803 0.41995 0.74583 0.0
O1130 O 0.32216 0.43589 0.75528 0.0
N1131 N 0.34925 0.43335 0.78452 0.0
C1132 C 0.34091 0.46399 0.7937 0.0
C1133 C 0.33665 0.44419 0.79578 0.0
C1134 C 0.36096 0.44712 0.77579 0.0
N1135 N 0.35627 0.46575 0.78117 0.0
O1136 O 0.37738 0.40848 0.77036 0.0
H1137 H 0.32482 0.43842 0.80479 0.0
H1138 H 0.37257 0.44369 0.76532 0.0
O1139 O 0.33969 0.40767 0.75431 0.0
C1140 C 0.38994 0.40844 0.78441 0.0
O1141 O 0.38333 0.4092 0.80271 0.0
N1142 N 0.32675 0.40099 0.7926 0.0
C1143 C 0.29445 0.38804 0.81493 0.0
C1144 C 0.29383 0.38776 0.79413 0.0
C1145 C 0.31022 0.39407 0.78322 0.0
C1146 C 0.32772 0.40115 0.81276 0.0
C1147 C 0.31163 0.39514 0.82421 0.0
H1148 H 0.30989 0.39219 0.76738 0.0
H1149 H 0.34127 0.40573 0.81996 0.0
H1150 H 0.3593 0.3774 0.7457 0.0
H1151 H 0.36514 0.3328 0.78852 0.0
H1152 H 0.3335 0.47612 0.80113 0.0
H1153 H 0.28121 0.38171 0.78631 0.0
H1154 H 0.31284 0.39566 0.84019 0.0
C1155 C 0.62606 0.37479 0.7844 0.0
C1156 C 0.64313 0.38143 0.77528 0.0
N1157 N 0.64158 0.37771 0.75572 0.0
N1158 N 0.61394 0.36703 0.77057 0.0
C1159 C 0.6238 0.36904 0.75334 0.0
H1160 H 0.62234 0.3763 0.79991 0.0
Co1161 Co 0.58766 0.35947 0.77297 0.0
C1162 C 0.58036 0.33956 0.73448 0.0
O1163 O 0.56366 0.34905 0.73135 0.0
N1164 N 0.56096 0.35215 0.7751 0.0
C1165 C 0.53265 0.33529 0.77493 0.0
C1166 C 0.55301 0.33382 0.77428 0.0
C1167 C 0.54522 0.36439 0.77649 0.0
N1168 N 0.52782 0.35461 0.77628 0.0
O1169 O 0.58103 0.38166 0.75689 0.0
H1170 H 0.56145 0.32029 0.77281 0.0
H1171 H 0.54635 0.38029 0.77692 0.0
O1172 O 0.59037 0.34282 0.75009 0.0
C1173 C 0.57996 0.39736 0.76724 0.0
O1174 O 0.58006 0.39574 0.78665 0.0
N1175 N 0.59515 0.33852 0.78949 0.0
C1176 C 0.60935 0.3107 0.81643 0.0
C1177 C 0.61607 0.31081 0.7968 0.0
C1178 C 0.60889 0.3249 0.78359 0.0
C1179 C 0.58824 0.33857 0.80846 0.0
C1180 C 0.595 0.32458 0.82218 0.0
H1181 H 0.61505 0.32529 0.76884 0.0
H1182 H 0.57779 0.3498 0.81307 0.0
H1183 H 0.6175 0.36546 0.73905 0.0
H1184 H 0.65549 0.38874 0.78239 0.0
H1185 H 0.52227 0.32311 0.77434 0.0
H1186 H 0.62708 0.30028 0.79174 0.0
H1187 H 0.58961 0.3251 0.83728 0.0
C1188 C 0.62729 0.36812 0.20746 0.0
C1189 C 0.62026 0.35067 0.21551 0.0
N1190 N 0.61727 0.35358 0.23504 0.0
N1191 N 0.62896 0.38171 0.22199 0.0
C1192 C 0.62271 0.37242 0.2385 0.0
H1193 H 0.63083 0.37078 0.19206 0.0
Co1194 Co 0.6364 0.40813 0.22114 0.0
C1195 C 0.65072 0.41433 0.26219 0.0
O1196 O 0.63969 0.43015 0.26481 0.0
N1197 N 0.64368 0.43487 0.22074 0.0
C1198 C 0.65941 0.46316 0.2266 0.0
C1199 C 0.66135 0.44289 0.22548 0.0
C1200 C 0.63148 0.45052 0.21846 0.0
N1201 N 0.64046 0.46796 0.22239 0.0
O1202 O 0.61219 0.41436 0.23434 0.0
H1203 H 0.67452 0.43447 0.22902 0.0
H1204 H 0.61611 0.44909 0.21453 0.0
O1205 O 0.65006 0.40492 0.24589 0.0
C1206 C 0.59789 0.41549 0.22211 0.0
O1207 O 0.60187 0.41501 0.20306 0.0
N1208 N 0.65938 0.40132 0.20727 0.0
C1209 C 0.68989 0.38754 0.18319 0.0
C1210 C 0.6879 0.38073 0.20269 0.0
C1211 C 0.67249 0.3877 0.21446 0.0
C1212 C 0.66133 0.40854 0.18852 0.0
C1213 C 0.67666 0.40197 0.17623 0.0
H1214 H 0.67056 0.38131 0.22896 0.0
H1215 H 0.65053 0.41893 0.18286 0.0
H1216 H 0.62219 0.37944 0.2529 0.0
H1217 H 0.61726 0.33708 0.20757 0.0
H1218 H 0.67089 0.47334 0.23113 0.0
H1219 H 0.69787 0.36965 0.20864 0.0
H1220 H 0.6776 0.40741 0.16117 0.0
C1221 C 0.63213 0.63598 0.20184 0.0
C1222 C 0.64938 0.62921 0.21063 0.0
N1223 N 0.64548 0.6253 0.22983 0.0
N1224 N 0.61766 0.63652 0.21559 0.0
C1225 C 0.62628 0.62998 0.23236 0.0
H1226 H 0.63021 0.63995 0.18644 0.0
Co1227 Co 0.59087 0.64259 0.21393 0.0
C1228 C 0.58234 0.65607 0.25477 0.0
O1229 O 0.56647 0.64494 0.25635 0.0
N1230 N 0.56371 0.64864 0.213 0.0
C1231 C 0.5352 0.66407 0.21891 0.0
C1232 C 0.55525 0.66648 0.21618 0.0
C1233 C 0.54842 0.63577 0.21332 0.0
N1234 N 0.53096 0.64463 0.2174 0.0
O1235 O 0.5856 0.61784 0.22636 0.0
H1236 H 0.56332 0.68019 0.21802 0.0
H1237 H 0.55014 0.62001 0.21157 0.0
O1238 O 0.59264 0.6558 0.239 0.0
C1239 C 0.5855 0.60399 0.21357 0.0
O1240 O 0.58569 0.60875 0.19469 0.0
N1241 N 0.59684 0.66604 0.20062 0.0
C1242 C 0.60782 0.69818 0.17726 0.0
C1243 C 0.61378 0.697 0.19713 0.0
C1244 C 0.60829 0.68071 0.20853 0.0
C1245 C 0.59077 0.66696 0.18141 0.0
C1246 C 0.59604 0.68297 0.16944 0.0
H1247 H 0.61393 0.67958 0.22345 0.0
H1248 H 0.58211 0.65497 0.17526 0.0
H1249 H 0.61846 0.62856 0.24628 0.0
H1250 H 0.66348 0.62691 0.20338 0.0
H1251 H 0.52487 0.6756 0.22308 0.0
H1252 H 0.62333 0.70814 0.2036 0.0
H1253 H 0.59116 0.68331 0.15416 0.0
C1254 C 0.37247 0.63194 0.20735 0.0
C1255 C 0.37903 0.64939 0.21574 0.0
N1256 N 0.37837 0.64748 0.23562 0.0
N1257 N 0.36751 0.61926 0.22191 0.0
C1258 C 0.37124 0.62912 0.23886 0.0
H1259 H 0.37192 0.62849 0.19171 0.0
Co1260 Co 0.36049 0.59272 0.22018 0.0
C1261 C 0.34435 0.58874 0.26108 0.0
O1262 O 0.35927 0.57808 0.26757 0.0
N1263 N 0.35365 0.56581 0.21897 0.0
C1264 C 0.33699 0.53749 0.22128 0.0
C1265 C 0.33547 0.55783 0.22129 0.0
C1266 C 0.36589 0.55005 0.21748 0.0
N1267 N 0.35621 0.53263 0.21895 0.0
O1268 O 0.38362 0.58683 0.23515 0.0
H1269 H 0.32201 0.56627 0.22336 0.0
H1270 H 0.38174 0.55123 0.21613 0.0
O1271 O 0.34423 0.59514 0.24338 0.0
C1272 C 0.39824 0.5858 0.22329 0.0
O1273 O 0.39467 0.58558 0.20414 0.0
N1274 N 0.33878 0.59945 0.20437 0.0
C1275 C 0.31093 0.61398 0.17778 0.0
C1276 C 0.31168 0.62116 0.19721 0.0
C1277 C 0.32573 0.61373 0.21029 0.0
C1278 C 0.338 0.59192 0.18564 0.0
C1279 C 0.32391 0.59883 0.17209 0.0
H1280 H 0.32683 0.62034 0.22481 0.0
H1281 H 0.3488 0.58104 0.18098 0.0
H1282 H 0.3692 0.62268 0.25337 0.0
H1283 H 0.38453 0.66217 0.20779 0.0
H1284 H 0.32487 0.52716 0.22299 0.0
H1285 H 0.30186 0.63289 0.20207 0.0
H1286 H 0.3238 0.59311 0.15711 0.0
C1287 C 0.36471 0.36015 0.19966 0.0
C1288 C 0.34682 0.365 0.20833 0.0
N1289 N 0.34943 0.36529 0.22811 0.0
N1290 N 0.37836 0.35751 0.21399 0.0
C1291 C 0.3686 0.3608 0.23109 0.0
H1292 H 0.3678 0.35965 0.18395 0.0
Co1293 Co 0.40554 0.35529 0.21143 0.0
C1294 C 0.41892 0.33096 0.24623 0.0
O1295 O 0.43577 0.3264 0.23769 0.0
N1296 N 0.4335 0.35373 0.20888 0.0
C1297 C 0.46466 0.34572 0.2013 0.0
C1298 C 0.44504 0.34156 0.19783 0.0
C1299 C 0.44667 0.36517 0.21881 0.0
N1300 N 0.4656 0.3606 0.21447 0.0
O1301 O 0.40759 0.38101 0.22285 0.0
H1302 H 0.43988 0.32999 0.18814 0.0
H1303 H 0.44259 0.37635 0.22951 0.0
O1304 O 0.40671 0.34257 0.23753 0.0
C1305 C 0.40789 0.39393 0.20912 0.0
O1306 O 0.40922 0.38778 0.1907 0.0
N1307 N 0.40204 0.33099 0.19859 0.0
C1308 C 0.39229 0.29855 0.17494 0.0
C1309 C 0.39089 0.29742 0.19565 0.0
C1310 C 0.39556 0.31389 0.20721 0.0
C1311 C 0.40303 0.33251 0.17849 0.0
C1312 C 0.39858 0.31638 0.16638 0.0
H1313 H 0.39287 0.31301 0.22291 0.0
H1314 H 0.40724 0.34646 0.17185 0.0
H1315 H 0.37575 0.36149 0.24541 0.0
H1316 H 0.33319 0.36865 0.20072 0.0
H1317 H 0.47726 0.33852 0.19447 0.0
H1318 H 0.38528 0.28426 0.20287 0.0
H1319 H 0.39978 0.31799 0.15047 0.0
C1320 C 0.79738 0.63277 0.63221 0.0
C1321 C 0.78956 0.62659 0.65009 0.0
N1322 N 0.77015 0.62267 0.64741 0.0
N1323 N 0.7829 0.63273 0.61848 0.0
C1324 C 0.76665 0.62635 0.62813 0.0
H1325 H 0.81256 0.63707 0.62942 0.0
Co1326 Co 0.78326 0.63907 0.59175 0.0
C1327 C 0.74132 0.65062 0.58445 0.0
O1328 O 0.73996 0.64077 0.56774 0.0
N1329 N 0.78302 0.64544 0.56468 0.0
C1330 C 0.77611 0.66111 0.53657 0.0
C1331 C 0.77884 0.66325 0.55663 0.0
C1332 C 0.78319 0.63285 0.54914 0.0
N1333 N 0.77861 0.64187 0.53186 0.0
O1334 O 0.7726 0.61343 0.58651 0.0
H1335 H 0.77647 0.67672 0.56498 0.0
H1336 H 0.78579 0.61717 0.55058 0.0
O1337 O 0.75731 0.65037 0.5944 0.0
C1338 C 0.78656 0.60074 0.5864 0.0
O1339 O 0.80492 0.60721 0.58673 0.0
N1340 N 0.79493 0.66342 0.59778 0.0
C1341 C 0.81673 0.69573 0.61118 0.0
C1342 C 0.79688 0.69332 0.61676 0.0
C1343 C 0.78626 0.67698 0.61004 0.0
C1344 C 0.81398 0.66585 0.59159 0.0
C1345 C 0.82516 0.68204 0.59801 0.0
H1346 H 0.77145 0.67477 0.61563 0.0
H1347 H 0.82077 0.6547 0.5823 0.0
H1348 H 0.75252 0.624 0.62095 0.0
H1349 H 0.79748 0.62532 0.66397 0.0
H1350 H 0.77139 0.67268 0.52655 0.0
H1351 H 0.78979 0.70362 0.62682 0.0
H1352 H 0.84052 0.68323 0.59356 0.0
C1353 C 0.79386 0.36417 0.36005 0.0
C1354 C 0.78449 0.37127 0.34328 0.0
N1355 N 0.7656 0.37567 0.34808 0.0
N1356 N 0.78075 0.36387 0.37511 0.0
C1357 C 0.7638 0.37097 0.36735 0.0
H1358 H 0.80919 0.35964 0.36123 0.0
Co1359 Co 0.78355 0.35709 0.40159 0.0
C1360 C 0.74286 0.34411 0.41215 0.0
O1361 O 0.74264 0.35397 0.42892 0.0
N1362 N 0.78581 0.35044 0.42854 0.0
C1363 C 0.78331 0.33433 0.45718 0.0
C1364 C 0.78361 0.33239 0.43689 0.0
C1365 C 0.78706 0.36298 0.44407 0.0
N1366 N 0.78533 0.35367 0.46165 0.0
O1367 O 0.77244 0.38223 0.40809 0.0
H1368 H 0.78132 0.31879 0.42875 0.0
H1369 H 0.78797 0.37885 0.44259 0.0
O1370 O 0.75792 0.34483 0.40086 0.0
C1371 C 0.78599 0.3953 0.40722 0.0
O1372 O 0.80445 0.38937 0.40543 0.0
N1373 N 0.79555 0.33324 0.39427 0.0
C1374 C 0.817 0.30105 0.38001 0.0
C1375 C 0.79715 0.30376 0.37458 0.0
C1376 C 0.78666 0.31998 0.38185 0.0
C1377 C 0.81478 0.33075 0.39989 0.0
C1378 C 0.82574 0.31456 0.39312 0.0
H1379 H 0.7717 0.32233 0.3767 0.0
H1380 H 0.82177 0.3417 0.40927 0.0
H1381 H 0.75027 0.37263 0.37578 0.0
H1382 H 0.79112 0.37332 0.32883 0.0
H1383 H 0.7812 0.32247 0.46773 0.0
H1384 H 0.78991 0.29364 0.36445 0.0
H1385 H 0.84113 0.31309 0.39741 0.0
C1386 C 0.61837 0.79348 0.36595 0.0
C1387 C 0.61243 0.78514 0.34821 0.0
N1388 N 0.61532 0.76544 0.34941 0.0
N1389 N 0.62482 0.77899 0.37809 0.0
C1390 C 0.62263 0.76216 0.36762 0.0
H1391 H 0.6175 0.80896 0.36997 0.0
Co1392 Co 0.63192 0.78016 0.40458 0.0
C1393 C 0.64714 0.73964 0.41193 0.0
O1394 O 0.63594 0.73723 0.42765 0.0
N1395 N 0.63893 0.78085 0.43155 0.0
C1396 C 0.65586 0.77767 0.45966 0.0
C1397 C 0.65725 0.77889 0.43936 0.0
C1398 C 0.62674 0.78089 0.44741 0.0
N1399 N 0.63659 0.77882 0.46468 0.0
O1400 O 0.60769 0.76689 0.41036 0.0
H1401 H 0.67073 0.77762 0.4308 0.0
H1402 H 0.61083 0.78138 0.44639 0.0
O1403 O 0.64623 0.75565 0.40205 0.0
C1404 C 0.5942 0.78001 0.41162 0.0
O1405 O 0.59953 0.79872 0.41224 0.0
N1406 N 0.65471 0.79433 0.39783 0.0
C1407 C 0.68539 0.81836 0.38463 0.0
C1408 C 0.68303 0.79922 0.37706 0.0
C1409 C 0.66758 0.78742 0.38384 0.0
C1410 C 0.65679 0.81292 0.40544 0.0
C1411 C 0.67231 0.82514 0.39924 0.0
H1412 H 0.66547 0.77307 0.37715 0.0
H1413 H 0.6461 0.81842 0.41604 0.0
H1414 H 0.6254 0.74754 0.37353 0.0
H1415 H 0.60635 0.79286 0.33555 0.0
H1416 H 0.66809 0.77573 0.46984 0.0
H1417 H 0.69286 0.79353 0.36572 0.0
H1418 H 0.67361 0.83996 0.40523 0.0
C1419 C 0.20431 0.63988 0.36321 0.0
C1420 C 0.21222 0.63398 0.34523 0.0
N1421 N 0.23024 0.62614 0.34868 0.0
N1422 N 0.21756 0.63604 0.37768 0.0
C1423 C 0.23307 0.62766 0.36831 0.0
H1424 H 0.19003 0.64679 0.36552 0.0
Co1425 Co 0.21754 0.64071 0.40486 0.0
C1426 C 0.25982 0.65124 0.41148 0.0
O1427 O 0.26169 0.64024 0.42742 0.0
N1428 N 0.2183 0.64539 0.43224 0.0
C1429 C 0.22362 0.65979 0.46137 0.0
C1430 C 0.22202 0.66282 0.44132 0.0
C1431 C 0.21763 0.63204 0.44713 0.0
N1432 N 0.22102 0.64035 0.46501 0.0
O1433 O 0.22804 0.61474 0.40843 0.0
H1434 H 0.22419 0.67678 0.43379 0.0
H1435 H 0.21564 0.61636 0.44484 0.0
O1436 O 0.24343 0.65194 0.40226 0.0
C1437 C 0.21366 0.60259 0.40729 0.0
O1438 O 0.19557 0.6098 0.40765 0.0
N1439 N 0.20579 0.6654 0.40074 0.0
C1440 C 0.18411 0.69963 0.393 0.0
C1441 C 0.20373 0.69775 0.38636 0.0
C1442 C 0.2143 0.68044 0.39026 0.0
C1443 C 0.18683 0.66697 0.40745 0.0
C1444 C 0.17572 0.68402 0.40382 0.0
H1445 H 0.22899 0.67891 0.38415 0.0
H1446 H 0.18021 0.65473 0.41537 0.0
H1447 H 0.24654 0.62317 0.37576 0.0
H1448 H 0.2053 0.63533 0.33083 0.0
H1449 H 0.22675 0.67105 0.47233 0.0
H1450 H 0.2106 0.7092 0.37749 0.0
H1451 H 0.16063 0.68487 0.4092 0.0
C1452 C 0.36266 0.2043 0.36143 0.0
C1453 C 0.36804 0.21247 0.34346 0.0
N1454 N 0.36926 0.23228 0.34571 0.0
N1455 N 0.36052 0.21894 0.37483 0.0
C1456 C 0.36469 0.23571 0.36482 0.0
H1457 H 0.36106 0.1887 0.36464 0.0
Co1458 Co 0.35613 0.21777 0.40196 0.0
C1459 C 0.34182 0.25846 0.41019 0.0
O1460 O 0.35369 0.26092 0.4254 0.0
N1461 N 0.35171 0.21716 0.42964 0.0
C1462 C 0.33714 0.21785 0.45924 0.0
C1463 C 0.33419 0.21563 0.43921 0.0
C1464 C 0.365 0.22035 0.4443 0.0
N1465 N 0.35657 0.22097 0.46244 0.0
O1466 O 0.38099 0.23068 0.40546 0.0
H1467 H 0.31997 0.21365 0.43218 0.0
H1468 H 0.3805 0.22315 0.44175 0.0
O1469 O 0.34213 0.24238 0.40041 0.0
C1470 C 0.39398 0.21698 0.40562 0.0
O1471 O 0.38788 0.19851 0.40621 0.0
N1472 N 0.33292 0.20344 0.3975 0.0
C1473 C 0.30272 0.17755 0.38708 0.0
C1474 C 0.29976 0.19805 0.38606 0.0
C1475 C 0.31521 0.21083 0.39106 0.0
C1476 C 0.33574 0.18355 0.39929 0.0
C1477 C 0.32087 0.17028 0.39394 0.0
H1478 H 0.31292 0.22651 0.38924 0.0
H1479 H 0.34997 0.178 0.40414 0.0
H1480 H 0.36546 0.25013 0.37175 0.0
H1481 H 0.37111 0.20444 0.32994 0.0
H1482 H 0.32573 0.21738 0.47047 0.0
H1483 H 0.28595 0.20409 0.38055 0.0
H1484 H 0.32363 0.1545 0.39478 0.0
C1485 C 0.20802 0.36255 0.62596 0.0
C1486 C 0.21682 0.3677 0.6436 0.0
N1487 N 0.23623 0.37098 0.64023 0.0
N1488 N 0.22185 0.36244 0.61158 0.0
C1489 C 0.23887 0.36762 0.6207 0.0
H1490 H 0.19242 0.3598 0.62362 0.0
Co1491 Co 0.21743 0.35977 0.58464 0.0
C1492 C 0.24879 0.33342 0.56978 0.0
O1493 O 0.23583 0.32632 0.55715 0.0
N1494 N 0.21293 0.35794 0.55688 0.0
C1495 C 0.20265 0.35127 0.52619 0.0
C1496 C 0.19957 0.34767 0.54598 0.0
C1497 C 0.2238 0.36775 0.54315 0.0
N1498 N 0.21786 0.36395 0.5245 0.0
O1499 O 0.22788 0.38566 0.58135 0.0
H1500 H 0.18834 0.33787 0.55161 0.0
H1501 H 0.23616 0.37731 0.54669 0.0
O1502 O 0.24375 0.34758 0.58138 0.0
C1503 C 0.21366 0.39803 0.58104 0.0
O1504 O 0.19547 0.39116 0.58015 0.0
N1505 N 0.20557 0.33513 0.5896 0.0
C1506 C 0.18403 0.3038 0.60544 0.0
C1507 C 0.20471 0.3039 0.60652 0.0
C1508 C 0.21523 0.31984 0.59874 0.0
C1509 C 0.18538 0.3354 0.58894 0.0
C1510 C 0.1743 0.31958 0.59624 0.0
H1511 H 0.23091 0.32051 0.60166 0.0
H1512 H 0.1778 0.34841 0.58346 0.0
H1513 H 0.25267 0.37006 0.61292 0.0
H1514 H 0.20939 0.36935 0.65771 0.0
H1515 H 0.19409 0.34535 0.51399 0.0
H1516 H 0.21261 0.29223 0.61418 0.0
H1517 H 0.15827 0.32028 0.59586 0.0
C1518 C 0.62844 0.19894 0.63242 0.0
C1519 C 0.62265 0.2076 0.65002 0.0
N1520 N 0.62624 0.22717 0.64877 0.0
N1521 N 0.63559 0.21306 0.62023 0.0
C1522 C 0.63402 0.23003 0.63065 0.0
H1523 H 0.62621 0.18364 0.62829 0.0
Co1524 Co 0.6401 0.21126 0.59313 0.0
C1525 C 0.65343 0.25274 0.58498 0.0
O1526 O 0.64032 0.25619 0.57104 0.0
N1527 N 0.64426 0.20971 0.56538 0.0
C1528 C 0.65618 0.20372 0.53514 0.0
C1529 C 0.65904 0.20087 0.55512 0.0
C1530 C 0.63259 0.21767 0.55113 0.0
N1531 N 0.63948 0.21429 0.5327 0.0
O1532 O 0.61513 0.2238 0.58951 0.0
H1533 H 0.67119 0.19265 0.56149 0.0
H1534 H 0.61937 0.22618 0.55406 0.0
O1535 O 0.65381 0.23612 0.59382 0.0
C1536 C 0.60173 0.21061 0.58822 0.0
O1537 O 0.60726 0.19202 0.58647 0.0
N1538 N 0.6637 0.19758 0.59802 0.0
C1539 C 0.69505 0.17374 0.61011 0.0
C1540 C 0.69821 0.19371 0.60549 0.0
C1541 C 0.68227 0.20549 0.59957 0.0
C1542 C 0.66063 0.17794 0.60138 0.0
C1543 C 0.67607 0.16576 0.60766 0.0
H1544 H 0.68503 0.22092 0.59655 0.0
H1545 H 0.6459 0.17186 0.59977 0.0
H1546 H 0.63673 0.24455 0.6245 0.0
H1547 H 0.61553 0.20025 0.66235 0.0
H1548 H 0.66541 0.19802 0.52334 0.0
H1549 H 0.71271 0.20036 0.60724 0.0
H1550 H 0.67314 0.15033 0.61091 0.0
C1551 C 0.36941 0.79148 0.63177 0.0
C1552 C 0.37645 0.78337 0.64917 0.0
N1553 N 0.37752 0.76351 0.64699 0.0
N1554 N 0.36596 0.77678 0.61877 0.0
C1555 C 0.371 0.76004 0.62842 0.0
H1556 H 0.36757 0.80706 0.62856 0.0
Co1557 Co 0.3592 0.77808 0.59216 0.0
C1558 C 0.34492 0.7372 0.58459 0.0
O1559 O 0.35571 0.73508 0.56854 0.0
N1560 N 0.35255 0.77892 0.56518 0.0
C1561 C 0.33654 0.77445 0.53676 0.0
C1562 C 0.33465 0.77534 0.55703 0.0
C1563 C 0.36493 0.78055 0.54955 0.0
N1564 N 0.3557 0.77756 0.53204 0.0
O1565 O 0.3838 0.7655 0.58641 0.0
H1566 H 0.32126 0.7725 0.56536 0.0
H1567 H 0.38056 0.78337 0.55101 0.0
O1568 O 0.34572 0.75318 0.59451 0.0
C1569 C 0.39711 0.77886 0.58631 0.0
O1570 O 0.39145 0.79749 0.58676 0.0
N1571 N 0.33603 0.79166 0.59869 0.0
C1572 C 0.3058 0.81597 0.61268 0.0
C1573 C 0.30698 0.79609 0.61854 0.0
C1574 C 0.32229 0.7842 0.6115 0.0
C1575 C 0.33483 0.81077 0.59232 0.0
C1576 C 0.31968 0.82319 0.59902 0.0
H1577 H 0.32364 0.76936 0.61723 0.0
H1578 H 0.34616 0.81659 0.58261 0.0
H1579 H 0.37035 0.7456 0.62159 0.0
H1580 H 0.38105 0.79164 0.66209 0.0
H1581 H 0.32481 0.77084 0.52647 0.0
H1582 H 0.29648 0.78991 0.62898 0.0
H1583 H 0.31943 0.83852 0.59433 0.0
H1584 H 0.15893 0.27124 0.00034 0.0
H1585 H 0.10128 0.26214 0.97387 0.0
H1586 H 0.14407 0.26859 0.03316 0.0
H1587 H 0.08658 0.26019 0.0066 0.0
H1588 H 0.06973 0.29085 0.06731 0.0
H1589 H 0.08244 0.28616 0.03379 0.0
H1590 H 0.12517 0.24397 0.05583 0.0
H1591 H 0.11215 0.24846 0.08945 0.0
C1592 C 0.14318 0.26852 0.0014 0.0
C1593 C 0.13137 0.26723 0.98427 0.0
C1594 C 0.13469 0.26695 0.02024 0.0
C1595 C 0.11417 0.26423 0.02238 0.0
C1596 C 0.10241 0.26248 0.00536 0.0
C1597 C 0.1109 0.26382 0.98655 0.0
C1598 C 0.08144 0.28014 0.06487 0.0
C1599 C 0.08986 0.2699 0.08086 0.0
C1600 C 0.08873 0.27747 0.04572 0.0
C1601 C 0.10487 0.26479 0.04226 0.0
C1602 C 0.11278 0.25389 0.05814 0.0
C1603 C 0.10518 0.25628 0.07729 0.0
H1604 H 0.74571 0.10104 0.08268 0.0
H1605 H 0.68681 0.0784 0.07224 0.0
H1606 H 0.74735 0.11232 0.04828 0.0
H1607 H 0.68817 0.09005 0.03831 0.0
H1608 H 0.72821 0.15579 -0.00128 0.0
H1609 H 0.73156 0.13898 0.03032 0.0
H1610 H 0.70227 0.08754 0.00606 0.0
H1611 H 0.69792 0.10476 0.97476 0.0
C1612 C 0.73333 0.09806 0.07292 0.0
C1613 C 0.71609 0.08895 0.08015 0.0
C1614 C 0.73415 0.10473 0.0533 0.0
C1615 C 0.71779 0.10231 0.04059 0.0
C1616 C 0.70111 0.09203 0.04757 0.0
C1617 C 0.70029 0.08543 0.0671 0.0
C1618 C 0.7223 0.14098 0.00011 0.0
C1619 C 0.71257 0.13178 0.98415 0.0
C1620 C 0.72457 0.13117 0.01818 0.0
C1621 C 0.71723 0.11187 0.02075 0.0
C1622 C 0.70794 0.10247 0.00466 0.0
C1623 C 0.70558 0.11232 0.98662 0.0
H1624 H 0.90208 0.74582 0.08415 0.0
H1625 H 0.91172 0.68348 0.07306 0.0
H1626 H 0.88859 0.74946 0.0505 0.0
H1627 H 0.89787 0.68717 0.04 0.0
H1628 H 0.84077 0.70028 0.00136 0.0
H1629 H 0.85728 0.70102 0.03369 0.0
H1630 H 0.90325 0.73818 0.00958 0.0
H1631 H 0.8869 0.7372 0.97708 0.0
C1632 C 0.90178 0.73306 0.07443 0.0
C1633 C 0.90785 0.71434 0.08129 0.0
C1634 C 0.89399 0.73513 0.05529 0.0
C1635 C 0.89204 0.7185 0.04297 0.0
C1636 C 0.8991 0.70012 0.04941 0.0
C1637 C 0.90706 0.69808 0.06831 0.0
C1638 C 0.85427 0.70875 0.00305 0.0
C1639 C 0.86267 0.71853 0.98677 0.0
C1640 C 0.86369 0.70915 0.02144 0.0
C1641 C 0.88144 0.71968 0.02394 0.0
C1642 C 0.88953 0.73005 0.00791 0.0
C1643 C 0.88029 0.72934 0.98938 0.0
H1644 H 0.26453 0.89539 0.9714 0.0
H1645 H 0.27736 0.84059 0.00162 0.0
H1646 H 0.25447 0.91042 0.00286 0.0
H1647 H 0.26717 0.85552 0.03303 0.0
H1648 H 0.2397 0.88456 0.08595 0.0
H1649 H 0.23738 0.87217 0.05186 0.0
H1650 H 0.27791 0.91772 0.03267 0.0
H1651 H 0.2806 0.92967 0.06669 0.0
C1652 C 0.26473 0.88644 0.9847 0.0
C1653 C 0.27187 0.8669 0.98418 0.0
C1654 C 0.25901 0.89503 0.00265 0.0
C1655 C 0.25998 0.88409 0.02031 0.0
C1656 C 0.26605 0.8642 0.01959 0.0
C1657 C 0.27209 0.85573 0.0017 0.0
C1658 C 0.24746 0.89235 0.07427 0.0
C1659 C 0.2603 0.90805 0.07878 0.0
C1660 C 0.24627 0.88518 0.05485 0.0
C1661 C 0.25754 0.89396 0.03971 0.0
C1662 C 0.26894 0.9108 0.04403 0.0
C1663 C 0.27049 0.91763 0.06345 0.0
H1664 H 0.1538 0.71742 0.99217 0.0
H1665 H 0.09807 0.72313 0.02293 0.0
H1666 H 0.13777 0.72716 0.96124 0.0
H1667 H 0.08195 0.73292 0.99194 0.0
H1668 H 0.10702 0.75208 0.90897 0.0
H1669 H 0.11888 0.75493 0.94317 0.0
H1670 H 0.0761 0.7111 0.96153 0.0
H1671 H 0.06458 0.70806 0.92744 0.0
C1672 C 0.13816 0.72099 0.99231 0.0
C1673 C 0.12711 0.7193 0.00983 0.0
C1674 C 0.12904 0.72683 0.97471 0.0
C1675 C 0.10863 0.73085 0.97424 0.0
C1676 C 0.09772 0.72994 0.99193 0.0
C1677 C 0.10692 0.72437 0.00962 0.0
C1678 C 0.09965 0.7437 0.9205 0.0
C1679 C 0.08495 0.72982 0.9157 0.0
C1680 C 0.10653 0.7452 0.93999 0.0
C1681 C 0.0985 0.7331 0.95492 0.0
C1682 C 0.08246 0.7207 0.95036 0.0
C1683 C 0.07588 0.71892 0.93087 0.0
H1684 H 0.24647 0.0955 0.90989 0.0
H1685 H 0.30999 0.09464 0.9182 0.0
H1686 H 0.24259 0.1099 0.94315 0.0
H1687 H 0.30601 0.10933 0.95077 0.0
H1688 H 0.29149 0.16095 0.99288 0.0
H1689 H 0.2912 0.14567 0.95995 0.0
H1690 H 0.25335 0.09907 0.98176 0.0
H1691 H 0.25384 0.11425 0.01479 0.0
C1692 C 0.25952 0.09808 0.91886 0.0
C1693 C 0.27853 0.09402 0.91137 0.0
C1694 C 0.25729 0.10638 0.93778 0.0
C1695 C 0.27405 0.11098 0.94923 0.0
C1696 C 0.29291 0.10619 0.94205 0.0
C1697 C 0.29512 0.09767 0.92342 0.0
C1698 C 0.28291 0.14762 0.99053 0.0
C1699 C 0.27286 0.13865 0.00634 0.0
C1700 C 0.28279 0.13886 0.9718 0.0
C1701 C 0.2723 0.12121 0.96847 0.0
C1702 C 0.26148 0.11271 0.98401 0.0
C1703 C 0.26191 0.12128 0.00286 0.0
H1704 H 0.88576 0.25902 0.02779 0.0
H1705 H 0.84464 0.30218 0.00477 0.0
H1706 H 0.90257 0.25775 0.99552 0.0
H1707 H 0.86165 0.3012 0.9727 0.0
H1708 H 0.91471 0.31271 0.93127 0.0
H1709 H 0.90188 0.31049 0.96488 0.0
H1710 H 0.88807 0.24883 0.9558 0.0
H1711 H 0.90048 0.25102 0.92168 0.0
C1712 C 0.88041 0.26826 0.01583 0.0
C1713 C 0.864 0.28079 0.01868 0.0
C1714 C 0.88991 0.26743 0.99744 0.0
C1715 C 0.88338 0.27944 0.98183 0.0
C1716 C 0.86694 0.29187 0.98464 0.0
C1717 C 0.8572 0.29239 0.00286 0.0
C1718 C 0.90931 0.29853 0.93646 0.0
C1719 C 0.90838 0.28209 0.92371 0.0
C1720 C 0.90193 0.29733 0.95568 0.0
C1721 C 0.89382 0.27959 0.96267 0.0
C1722 C 0.89428 0.26267 0.9506 0.0
C1723 C 0.90143 0.26392 0.93116 0.0
H1724 H 0.70548 0.84418 0.00041 0.0
H1725 H 0.74465 0.88915 0.02331 0.0
H1726 H 0.70557 0.86062 0.96805 0.0
H1727 H 0.74499 0.90543 0.99076 0.0
H1728 H 0.75081 0.90418 0.91643 0.0
H1729 H 0.7548 0.89119 0.95021 0.0
H1730 H 0.69259 0.90058 0.96119 0.0
H1731 H 0.68856 0.91396 0.92798 0.0
C1732 C 0.7143 0.85741 -0.00159 0.0
C1733 C 0.72493 0.8655 0.01431 0.0
C1734 C 0.71431 0.86681 0.98 0.0
C1735 C 0.72528 0.88422 0.97709 0.0
C1736 C 0.73648 0.89199 0.99274 0.0
C1737 C 0.73616 0.88278 0.0113 0.0
C1738 C 0.73814 0.90403 0.92627 0.0
C1739 C 0.71934 0.90997 0.9195 0.0
C1740 C 0.74042 0.89652 0.94549 0.0
C1741 C 0.72391 0.89471 0.95801 0.0
C1742 C 0.70545 0.90169 0.95165 0.0
C1743 C 0.70321 0.90939 0.93266 0.0
H1744 H 0.07146 0.06201 0.28949 0.0
H1745 H 0.09166 0.10532 0.24705 0.0
H1746 H 0.03751 0.07365 0.28531 0.0
H1747 H 0.05759 0.11723 0.24306 0.0
H1748 H 0.00481 0.15049 0.27686 0.0
H1749 H 0.03698 0.13546 0.26971 0.0
H1750 H 0.00865 0.0788 0.26118 0.0
H1751 H 0.97646 0.09388 0.26836 0.0
C1752 C 0.06851 0.07365 0.27885 0.0
C1753 C 0.0841 0.08282 0.26865 0.0
C1754 C 0.04909 0.08028 0.27641 0.0
C1755 C 0.04498 0.09643 0.26398 0.0
C1756 C 0.06042 0.1048 0.2528 0.0
C1757 C 0.07984 0.0979 0.25496 0.0
C1758 C 0.00548 0.13489 0.2732 0.0
C1759 C 0.98823 0.12331 0.27332 0.0
C1760 C 0.02381 0.12634 0.26889 0.0
C1761 C 0.02526 0.10597 0.26488 0.0
C1762 C 0.00791 0.09453 0.26422 0.0
C1763 C 0.98953 0.10316 0.26825 0.0
H1764 H 0.87608 0.98558 0.32009 0.0
H1765 H 0.88237 0.97066 0.25828 0.0
H1766 H 0.89203 0.01729 0.31421 0.0
H1767 H 0.89866 0.00269 0.25228 0.0
H1768 H 0.89717 0.07447 0.25316 0.0
H1769 H 0.8881 0.03931 0.25357 0.0
H1770 H 0.92513 0.03047 0.30496 0.0
H1771 H 0.93389 0.06543 0.30473 0.0
C1772 C 0.88094 0.98911 0.30523 0.0
C1773 C 0.8779 0.97572 0.28964 0.0
C1774 C 0.89029 0.00717 0.30188 0.0
C1775 C 0.89675 0.01241 0.2828 0.0
C1776 C 0.89384 -0.00099 0.26713 0.0
C1777 C 0.88465 0.9807 0.27057 0.0
C1778 C 0.90385 0.06483 0.26411 0.0
C1779 C 0.91599 0.07267 0.2791 0.0
C1780 C 0.89865 0.04473 0.26437 0.0
C1781 C 0.90559 0.03227 0.27956 0.0
C1782 C 0.91922 0.03982 0.29334 0.0
C1783 C 0.92429 0.05981 0.29315 0.0
H1784 H 0.0215 0.87914 0.25685 0.0
H1785 H 0.0031 0.82417 0.28365 0.0
H1786 H 0.9876 0.89178 0.2592 0.0
H1787 H 0.96913 0.83684 0.28611 0.0
H1788 H 0.92411 0.87994 0.31509 0.0
H1789 H 0.95651 0.86613 0.30793 0.0
H1790 H 0.95107 0.88429 0.2469 0.0
H1791 H 0.91808 0.898 0.25394 0.0
C1792 C 0.01012 0.86973 0.26308 0.0
C1793 C 0.01487 0.85078 0.2703 0.0
C1794 C 0.99075 0.87689 0.26426 0.0
C1795 C 0.97587 0.86532 0.27294 0.0
C1796 C 0.98044 0.84607 0.27945 0.0
C1797 C -0.00024 0.83879 0.27798 0.0
C1798 C 0.92976 0.88115 0.30013 0.0
C1799 C 0.9185 0.8901 0.28506 0.0
C1800 C 0.94826 0.87303 0.29602 0.0
C1801 C 0.95611 0.87391 0.27683 0.0
C1802 C 0.94523 0.88338 0.26181 0.0
C1803 C 0.92645 0.89127 0.26586 0.0
H1804 H 0.09834 0.90772 0.23936 0.0
H1805 H 0.06752 0.92722 0.29196 0.0
H1806 H 0.1105 0.94145 0.23413 0.0
H1807 H 0.0789 0.96094 0.28613 0.0
H1808 H 0.09956 0.02178 0.26612 0.0
H1809 H 0.08115 0.99123 0.25924 0.0
H1810 H 0.13559 0.95785 0.26234 0.0
H1811 H 0.15387 0.98833 0.26976 0.0
C1812 C 0.09362 0.91927 0.24942 0.0
C1813 C 0.0826 0.91473 0.2665 0.0
C1814 C 0.10053 0.93854 0.24636 0.0
C1815 C 0.09584 0.95359 0.25992 0.0
C1816 C 0.08273 0.94954 0.2755 0.0
C1817 C 0.07627 0.93022 0.27885 0.0
C1818 C 0.10759 0.00795 0.26486 0.0
C1819 C 0.12807 0.00725 0.26855 0.0
C1820 C 0.09709 0.99057 0.26093 0.0
C1821 C 0.10703 0.97234 0.26011 0.0
C1822 C 0.12768 0.97182 0.26262 0.0
C1823 C 0.13809 0.98913 0.26704 0.0
H1824 H -0.00091 0.83985 0.70301 0.0
H1825 H 0.97756 0.88644 0.74111 0.0
H1826 H 0.032 0.85513 0.70296 0.0
H1827 H 0.01063 0.90158 0.74129 0.0
H1828 H 0.08346 0.90184 0.74815 0.0
H1829 H 0.04968 0.88872 0.75191 0.0
H1830 H 0.04117 0.89252 0.68872 0.0
H1831 H 0.07431 0.90598 0.68489 0.0
C1832 C 0.0015 0.8532 0.71156 0.0
C1833 C 0.98583 0.86207 0.72191 0.0
C1834 C 0.02023 0.86194 0.7115 0.0
C1835 C 0.0237 0.87949 0.72211 0.0
C1836 C 0.00825 0.88802 0.73307 0.0
C1837 C 0.98939 0.87947 0.73281 0.0
C1838 C 0.07418 0.90032 0.73516 0.0
C1839 C 0.0816 0.90485 0.71622 0.0
C1840 C 0.05496 0.89276 0.73731 0.0
C1841 C 0.0431 0.88941 0.72054 0.0
C1842 C 0.05019 0.89476 0.70181 0.0
C1843 C 0.06915 0.90254 0.69968 0.0
H1844 H 0.09678 0.08493 0.74279 0.0
H1845 H 0.08191 0.07234 0.68183 0.0
H1846 H 0.10839 0.05085 0.74689 0.0
H1847 H 0.09395 0.03875 0.6857 0.0
H1848 H 0.10633 0.97559 0.69996 0.0
H1849 H 0.08926 0.00719 0.70064 0.0
H1850 H 0.13686 0.03219 0.73533 0.0
H1851 H 0.15345 0.00021 0.73563 0.0
C1852 C 0.09562 0.07479 0.73041 0.0
C1853 C 0.08852 0.08131 0.71196 0.0
C1854 C 0.10248 0.05536 0.73267 0.0
C1855 C 0.10229 0.04212 0.71656 0.0
C1856 C 0.09415 0.04843 0.69848 0.0
C1857 C 0.08733 0.06777 0.69623 0.0
C1858 C 0.11306 0.98767 0.70803 0.0
C1859 C 0.13137 0.98526 0.71768 0.0
C1860 C 0.10332 0.0059 0.70826 0.0
C1861 C 0.11169 0.02227 0.71799 0.0
C1862 C 0.12985 0.01983 0.7279 0.0
C1863 C 0.13955 0.00154 0.72778 0.0
H1864 H 0.00077 0.12166 0.68362 0.0
H1865 H 0.01633 0.13039 0.74501 0.0
H1866 H 0.96991 0.10612 0.69354 0.0
H1867 H 0.98514 0.11449 0.75509 0.0
H1868 H 0.91269 0.11232 0.75297 0.0
H1869 H 0.9475 0.12262 0.75135 0.0
H1870 H 0.95966 0.07472 0.71073 0.0
H1871 H 0.92499 0.06478 0.71208 0.0
C1872 C 0.99753 0.12032 0.69926 0.0
C1873 C 0.01089 0.12732 0.71353 0.0
C1874 C 0.97998 0.11116 0.70496 0.0
C1875 C 0.97528 0.10885 0.7251 0.0
C1876 C 0.9885 0.116 0.73948 0.0
C1877 C 0.00629 0.125 0.73372 0.0
C1878 C 0.92306 0.10351 0.74445 0.0
C1879 C 0.91629 0.08788 0.73253 0.0
C1880 C 0.94292 0.10944 0.74344 0.0
C1881 C 0.95611 0.09971 0.73056 0.0
C1882 C 0.94969 0.08271 0.72046 0.0
C1883 C 0.92993 0.07693 0.72133 0.0
H1884 H 0.84023 0.99635 0.7379 0.0
H1885 H 0.89632 0.02396 0.72425 0.0
H1886 H 0.85688 0.96437 0.74089 0.0
H1887 H 0.91293 0.9923 0.72799 0.0
H1888 H 0.92438 0.92904 0.70246 0.0
H1889 H 0.91243 0.96266 0.70716 0.0
H1890 H 0.88168 0.94445 0.76025 0.0
H1891 H 0.89384 0.91056 0.75548 0.0
C1892 C 0.85609 0.99565 0.7357 0.0
C1893 C 0.86687 0.01273 0.73069 0.0
C1894 C 0.86567 0.97739 0.73772 0.0
C1895 C 0.88622 0.97584 0.73469 0.0
C1896 C 0.89707 0.99301 0.73031 0.0
C1897 C 0.88752 0.01121 0.72831 0.0
C1898 C 0.91553 0.93234 0.71544 0.0
C1899 C 0.90992 0.91724 0.72854 0.0
C1900 C 0.9087 0.95161 0.71817 0.0
C1901 C 0.89594 0.95616 0.73397 0.0
C1902 C 0.89132 0.9413 0.74782 0.0
C1903 C 0.89843 0.92199 0.74521 0.0
H1904 H 0.29434 0.06944 0.06698 0.0
H1905 H 0.24178 0.0887 0.09792 0.0
H1906 H 0.28989 0.03621 0.07972 0.0
H1907 H 0.23688 0.05501 0.11038 0.0
H1908 H 0.2558 0.00352 0.15215 0.0
H1909 H 0.25368 0.03505 0.13495 0.0
H1910 H 0.27142 0.00653 0.08048 0.0
H1911 H 0.27485 0.9754 0.09781 0.0
C1912 C 0.28145 0.06637 0.07604 0.0
C1913 C 0.26847 0.08163 0.08152 0.0
C1914 C 0.27883 0.04726 0.08331 0.0
C1915 C 0.26311 0.04294 0.09626 0.0
C1916 C 0.2493 0.05794 0.10068 0.0
C1917 C 0.25193 0.07715 0.09332 0.0
C1918 C 0.25941 0.00393 0.13656 0.0
C1919 C 0.2657 0.98677 0.12653 0.0
C1920 C 0.25783 0.02201 0.12658 0.0
C1921 C 0.26239 0.02336 0.1063 0.0
C1922 C 0.26803 0.0061 0.09615 0.0
C1923 C 0.26981 0.98811 0.10613 0.0
H1924 H 0.26081 0.99614 0.84025 0.0
H1925 H 0.29126 0.02168 0.89045 0.0
H1926 H 0.25967 0.96441 0.85715 0.0
H1927 H 0.28907 0.99026 0.90776 0.0
H1928 H 0.24941 0.91149 0.89589 0.0
H1929 H 0.24572 0.94558 0.88419 0.0
H1930 H 0.30476 0.9589 0.90506 0.0
H1931 H 0.30813 0.92529 0.91718 0.0
C1932 C 0.2672 0.99508 0.8549 0.0
C1933 C 0.27632 0.01155 0.86383 0.0
C1934 C 0.26621 0.97691 0.86476 0.0
C1935 C 0.27425 0.97475 0.88385 0.0
C1936 C 0.28291 0.99133 0.89298 0.0
C1937 C 0.284 0.00945 0.88309 0.0
C1938 C 0.26134 0.9219 0.89845 0.0
C1939 C 0.2791 0.91571 0.90735 0.0
C1940 C 0.25934 0.94135 0.89154 0.0
C1941 C 0.27504 0.95494 0.89347 0.0
C1942 C 0.29229 0.94896 0.90346 0.0
C1943 C 0.29428 0.9296 0.91032 0.0
H1944 H 0.07965 0.24428 0.88957 0.0
H1945 H 0.0668 0.29401 0.92765 0.0
H1946 H 0.04536 0.24487 0.87742 0.0
H1947 H 0.03277 0.2945 0.91572 0.0
H1948 H 0.99062 0.31143 0.8659 0.0
H1949 H 0.02262 0.30479 0.881 0.0
H1950 H 0.00751 0.24295 0.88657 0.0
H1951 H 0.97524 0.24961 0.87112 0.0
C1952 C 0.0693 0.25477 0.89592 0.0
C1953 C 0.07582 0.26919 0.90944 0.0
C1954 C 0.04975 0.2552 0.88888 0.0
C1955 C 0.03661 0.27004 0.89532 0.0
C1956 C 0.04273 0.28319 0.9102 0.0
C1957 C 0.06214 0.2828 0.91715 0.0
C1958 C 0.99416 0.29637 0.87005 0.0
C1959 C 0.98038 0.28106 0.86733 0.0
C1960 C 0.0124 0.2926 0.87895 0.0
C1961 C 0.01739 0.2734 0.88524 0.0
C1962 C 0.00396 0.25789 0.88194 0.0
C1963 C 0.98553 0.26172 0.8732 0.0
H1964 H 0.69993 -0.00057 0.83875 0.0
H1965 H 0.7343 0.97926 0.88871 0.0
H1966 H 0.69875 0.03273 0.85304 0.0
H1967 H 0.73331 0.01272 0.90293 0.0
H1968 H 0.74077 0.08463 0.90371 0.0
H1969 H 0.74512 0.0506 0.89141 0.0
H1970 H 0.68171 0.04399 0.88742 0.0
H1971 H 0.67724 0.07737 0.89997 0.0
C1972 C 0.7074 0.00221 0.85266 0.0
C1973 C 0.71704 0.98679 0.86272 0.0
C1974 C 0.70669 0.02117 0.86085 0.0
C1975 C 0.71592 0.02517 0.87907 0.0
C1976 C 0.72615 0.00996 0.88884 0.0
C1977 C 0.72655 0.99086 0.88081 0.0
C1978 C 0.72779 0.07575 0.90055 0.0
C1979 C 0.70867 0.08375 0.90273 0.0
C1980 C 0.73029 0.05636 0.8935 0.0
C1981 C 0.71372 0.04491 0.88825 0.0
C1982 C 0.6947 0.05266 0.89112 0.0
C1983 C 0.69219 0.07177 0.89841 0.0
H1984 H 0.9925 0.72617 0.83651 0.0
H1985 H 0.02192 0.72666 0.89352 0.0
H1986 H 0.96062 0.72892 0.85325 0.0
H1987 H 0.9901 0.7286 0.90989 0.0
H1988 H 0.92801 0.69836 0.92431 0.0
H1989 H 0.96129 0.70292 0.91099 0.0
H1990 H 0.94097 0.75335 0.87737 0.0
H1991 H 0.90766 0.74914 0.89132 0.0
C1992 C 0.99234 0.72698 0.8525 0.0
C1993 C 0.01003 0.72587 0.8635 0.0
C1994 C 0.97403 0.72863 0.86207 0.0
C1995 C 0.97298 0.72898 0.88284 0.0
C1996 C 0.99054 0.72824 0.89385 0.0
C1997 C 0.00882 0.72689 0.88434 0.0
C1998 C 0.9308 0.71078 0.91455 0.0
C1999 C 0.9153 0.72336 0.90874 0.0
C2000 C 0.94981 0.71336 0.9069 0.0
C2001 C 0.95358 0.72833 0.89299 0.0
C2002 C 0.93834 0.74159 0.88795 0.0
C2003 C 0.91939 0.73929 0.89602 0.0
H2004 H 0.75473 0.91061 0.11278 0.0
H2005 H 0.70932 0.92988 0.07212 0.0
H2006 H 0.758 0.94461 0.12514 0.0
H2007 H 0.71273 0.96373 0.08418 0.0
H2008 H 0.7308 0.02507 0.10382 0.0
H2009 H 0.73589 0.99307 0.08815 0.0
H2010 H 0.73227 0.96446 0.14516 0.0
H2011 H 0.72658 0.9964 0.16094 0.0
C2012 C 0.74603 0.92225 0.10597 0.0
C2013 C 0.73179 0.91775 0.09151 0.0
C2014 C 0.74773 0.94161 0.11318 0.0
C2015 C 0.73548 0.95672 0.10572 0.0
C2016 C 0.72243 0.95241 0.09011 0.0
C2017 C 0.72048 0.93307 0.08321 0.0
C2018 C 0.73088 0.01204 0.1131 0.0
C2019 C 0.72793 0.01341 0.13371 0.0
C2020 C 0.73403 0.9937 0.10407 0.0
C2021 C 0.73456 0.97634 0.11544 0.0
C2022 C 0.73226 0.97768 0.13607 0.0
C2023 C 0.7289 0.996 0.1451 0.0
H2024 H 0.08133 0.73736 0.08941 0.0
H2025 H 0.0789 0.67384 0.09706 0.0
H2026 H 0.0474 0.74001 0.10224 0.0
H2027 H 0.04544 0.67664 0.11002 0.0
H2028 H 9e-05 0.69422 0.15816 0.0
H2029 H 0.03287 0.69305 0.14274 0.0
H2030 H 0.01098 0.7273 0.09341 0.0
H2031 H 0.9781 0.72837 0.10882 0.0
C2032 C 0.07351 0.72399 0.09355 0.0
C2033 C 0.08285 0.70542 0.09234 0.0
C2034 C 0.05415 0.72552 0.10089 0.0
C2035 C 0.04401 0.70854 0.10735 0.0
C2036 C 0.05308 0.68997 0.10541 0.0
C2037 C 0.07221 0.6884 0.09787 0.0
C2038 C 0.00234 0.70157 0.14409 0.0
C2039 C 0.98659 0.71126 0.13461 0.0
C2040 C 0.021 0.70082 0.13523 0.0
C2041 C 0.02434 0.71002 0.11687 0.0
C2042 C 0.00874 0.72013 0.10758 0.0
C2043 C 0.98996 0.72059 0.1163 0.0
H2044 H 0.99548 0.26922 0.16243 0.0
H2045 H 0.02194 0.2695 0.104 0.0
H2046 H 0.96296 0.26584 0.14752 0.0
H2047 H 0.98925 0.26677 0.08932 0.0
H2048 H 0.90751 0.24682 0.11503 0.0
H2049 H 0.94188 0.24216 0.12591 0.0
H2050 H 0.96009 0.29103 0.08894 0.0
H2051 H 0.92586 0.29584 0.0784 0.0
C2052 C 0.99456 0.26837 0.14648 0.0
C2053 C 0.01163 0.26985 0.13456 0.0
C2054 C 0.97582 0.26634 0.13794 0.0
C2055 C 0.97362 0.26597 0.11728 0.0
C2056 C 0.99056 0.2671 0.10531 0.0
C2057 C 0.00934 0.26886 0.11382 0.0
C2058 C 0.919 0.25609 0.10877 0.0
C2059 C 0.91416 0.27166 0.09587 0.0
C2060 C 0.93858 0.25358 0.11514 0.0
C2061 C 0.95358 0.26633 0.10835 0.0
C2062 C 0.94887 0.28091 0.09431 0.0
C2063 C 0.9293 0.28367 0.08828 0.0
H2064 H 0.58152 0.8048 0.57531 0.0
H2065 H 0.60237 0.74509 0.58475 0.0
H2066 H 0.59147 0.80301 0.54088 0.0
H2067 H 0.61201 0.74304 0.5498 0.0
H2068 H 0.65273 0.76087 0.49693 0.0
H2069 H 0.63825 0.75818 0.52986 0.0
H2070 H 0.58574 0.78836 0.5092 0.0
H2071 H 0.60058 0.79203 0.4767 0.0
C2072 C 0.58782 0.79109 0.56986 0.0
C2073 C 0.59126 0.77512 0.58271 0.0
C2074 C 0.59344 0.79001 0.55006 0.0
C2075 C 0.60267 0.77293 0.54259 0.0
C2076 C 0.60517 0.75651 0.5552 0.0
C2077 C 0.59943 0.75757 0.57512 0.0
C2078 C 0.63818 0.76709 0.49943 0.0
C2079 C 0.62794 0.77681 0.48412 0.0
C2080 C 0.62972 0.76522 0.51824 0.0
C2081 C 0.61081 0.77302 0.52216 0.0
C2082 C 0.6004 0.78234 0.50674 0.0
C2083 C 0.60888 0.7843 0.48801 0.0
H2084 H 0.24013 0.65328 0.49803 0.0
H2085 H 0.20582 0.60443 0.47493 0.0
H2086 H 0.2412 0.63731 0.53022 0.0
H2087 H 0.20789 0.58796 0.50683 0.0
H2088 H 0.24943 0.60034 0.58463 0.0
H2089 H 0.25356 0.60999 0.54991 0.0
H2090 H 0.19283 0.59339 0.53826 0.0
H2091 H 0.18898 0.58335 0.57249 0.0
C2092 C 0.23289 0.63911 0.49972 0.0
C2093 C 0.22263 0.63034 0.48384 0.0
C2094 C 0.23383 0.62975 0.51815 0.0
C2095 C 0.22462 0.61135 0.52115 0.0
C2096 C 0.21496 0.60225 0.5051 0.0
C2097 C 0.21391 0.61165 0.48671 0.0
C2098 C 0.2372 0.59825 0.57446 0.0
C2099 C 0.21885 0.59121 0.58125 0.0
C2100 C 0.23947 0.60398 0.55465 0.0
C2101 C 0.22346 0.60265 0.54133 0.0
C2102 C 0.20554 0.59445 0.54798 0.0
C2103 C 0.20328 0.5888 0.56768 0.0
H2104 H 0.33954 0.23346 0.49684 0.0
H2105 H 0.39592 0.21776 0.47076 0.0
H2106 H 0.35562 0.23796 0.5287 0.0
H2107 H 0.41207 0.22344 0.5023 0.0
H2108 H 0.38958 0.25344 0.58327 0.0
H2109 H 0.37838 0.25701 0.54893 0.0
H2110 H 0.41285 0.20554 0.53262 0.0
H2111 H 0.42419 0.20236 0.56656 0.0
C2112 C 0.35535 0.23109 0.49777 0.0
C2113 C 0.36629 0.22493 0.48112 0.0
C2114 C 0.36465 0.23405 0.51604 0.0
C2115 C 0.38515 0.23104 0.5181 0.0
C2116 C 0.39621 0.22567 0.5013 0.0
C2117 C 0.38691 0.22256 0.4831 0.0
C2118 C 0.39529 0.2434 0.57213 0.0
C2119 C 0.40774 0.22763 0.57749 0.0
C2120 C 0.38868 0.24525 0.55254 0.0
C2121 C 0.39454 0.23143 0.53804 0.0
C2122 C 0.40815 0.21657 0.54328 0.0
C2123 C 0.41462 0.21468 0.56277 0.0
H2124 H 0.81099 0.41301 0.57066 0.0
H2125 H 0.75092 0.39308 0.57981 0.0
H2126 H 0.8098 0.40156 0.53665 0.0
H2127 H 0.74947 0.38197 0.54528 0.0
H2128 H 0.76713 0.33905 0.49449 0.0
H2129 H 0.7645 0.35485 0.52679 0.0
H2130 H 0.79607 0.40577 0.50443 0.0
H2131 H 0.79967 0.38957 0.47253 0.0
C2132 C 0.79732 0.40661 0.56521 0.0
C2133 C 0.78108 0.40386 0.57789 0.0
C2134 C 0.7966 0.40011 0.54565 0.0
C2135 C 0.7796 0.39069 0.53825 0.0
C2136 C 0.7629 0.38892 0.55063 0.0
C2137 C 0.76361 0.39551 0.5703 0.0
C2138 C 0.77371 0.35351 0.49649 0.0
C2139 C 0.78374 0.36293 0.48086 0.0
C2140 C 0.77187 0.36274 0.51494 0.0
C2141 C 0.78 0.38162 0.5182 0.0
C2142 C 0.78977 0.39115 0.50249 0.0
C2143 C 0.7917 0.3819 0.48411 0.0
H2144 H 0.65775 0.22198 0.49784 0.0
H2145 H 0.60029 0.21953 0.52582 0.0
H2146 H 0.64192 0.22885 0.46605 0.0
H2147 H 0.58452 0.22683 0.49417 0.0
H2148 H 0.57025 0.20252 0.43005 0.0
H2149 H 0.58163 0.20577 0.46411 0.0
H2150 H 0.62103 0.25296 0.44648 0.0
H2151 H 0.60942 0.24971 0.41221 0.0
C2152 C 0.64177 0.22311 0.49723 0.0
C2153 C 0.63029 0.22001 0.5143 0.0
C2154 C 0.63272 0.22733 0.4791 0.0
C2155 C 0.61197 0.2284 0.47764 0.0
C2156 C 0.60053 0.22604 0.49485 0.0
C2157 C 0.60959 0.22195 0.51299 0.0
C2158 C 0.58082 0.21405 0.43361 0.0
C2159 C 0.58895 0.22588 0.41861 0.0
C2160 C 0.58734 0.21594 0.4531 0.0
C2161 C 0.60236 0.2295 0.45792 0.0
C2162 C 0.60953 0.24229 0.44313 0.0
C2163 C 0.60274 0.24061 0.4236 0.0
H2164 H 0.79178 0.57164 0.42832 0.0
H2165 H 0.74481 0.61137 0.41106 0.0
H2166 H 0.78939 0.58344 0.46239 0.0
H2167 H 0.74265 0.6236 0.44522 0.0
H2168 H 0.77218 0.60257 0.52457 0.0
H2169 H 0.76656 0.58696 0.49268 0.0
H2170 H 0.76959 0.64393 0.46402 0.0
H2171 H 0.77595 0.65971 0.49578 0.0
C2172 C 0.78051 0.58246 0.43201 0.0
C2173 C 0.76846 0.59062 0.41717 0.0
C2174 C 0.77915 0.58923 0.45147 0.0
C2175 C 0.76599 0.60457 0.45635 0.0
C2176 C 0.75301 0.61184 0.44176 0.0
C2177 C 0.75409 0.60473 0.42232 0.0
C2178 C 0.77188 0.6119 0.51159 0.0
C2179 C 0.77481 0.63253 0.51295 0.0
C2180 C 0.76842 0.60288 0.4933 0.0
C2181 C 0.76749 0.61425 0.47596 0.0
C2182 C 0.76988 0.63486 0.47725 0.0
C2183 C 0.77361 0.64388 0.4955 0.0
H2184 H 0.33723 0.77892 0.49618 0.0
H2185 H 0.39498 0.77296 0.52339 0.0
H2186 H 0.35256 0.77684 0.46363 0.0
H2187 H 0.41012 0.77158 0.49083 0.0
H2188 H 0.42575 0.80137 0.4291 0.0
H2189 H 0.4135 0.79678 0.46282 0.0
H2190 H 0.37237 0.75255 0.44187 0.0
H2191 H 0.3848 0.75698 0.40811 0.0
C2192 C 0.35311 0.77702 0.49536 0.0
C2193 C 0.36475 0.77629 0.51265 0.0
C2194 C 0.36188 0.77578 0.47665 0.0
C2195 C 0.38252 0.774 0.47474 0.0
C2196 C 0.39418 0.77308 0.4919 0.0
C2197 C 0.38542 0.77406 0.51061 0.0
C2198 C 0.4145 0.79026 0.43182 0.0
C2199 C 0.40628 0.77949 0.41606 0.0
C2200 C 0.40749 0.78764 0.45109 0.0
C2201 C 0.39187 0.77445 0.45489 0.0
C2202 C 0.38432 0.76292 0.43929 0.0
C2203 C 0.3916 0.76529 0.42004 0.0
H2204 H 0.22237 0.3459 0.48922 0.0
H2205 H 0.22951 0.40182 0.51923 0.0
H2206 H 0.23052 0.36171 0.45768 0.0
H2207 H 0.23747 0.41777 0.48759 0.0
H2208 H 0.20757 0.43323 0.42416 0.0
H2209 H 0.21272 0.42226 0.45819 0.0
H2210 H 0.25782 0.38152 0.43825 0.0
H2211 H 0.25301 0.39301 0.40414 0.0
C2212 C 0.226 0.36151 0.48905 0.0
C2213 C 0.22516 0.3727 0.50654 0.0
C2214 C 0.23088 0.37051 0.47109 0.0
C2215 C 0.23467 0.39094 0.47025 0.0
C2216 C 0.23468 0.40198 0.48789 0.0
C2217 C 0.23016 0.39288 0.50593 0.0
C2218 C 0.21912 0.42251 0.42718 0.0
C2219 C 0.22981 0.41384 0.4116 0.0
C2220 C 0.22211 0.41625 0.44663 0.0
C2221 C 0.23554 0.40092 0.45077 0.0
C2222 C 0.24734 0.39333 0.43539 0.0
C2223 C 0.24467 0.39995 0.41593 0.0
H2224 H 0.47633 0.59774 0.76554 0.0
H2225 H 0.50623 0.65254 0.779 0.0
H2226 H 0.50825 0.58198 0.7586 0.0
H2227 H 0.53814 0.63686 0.77202 0.0
H2228 H 0.59255 0.60645 0.74917 0.0
H2229 H 0.55908 0.61976 0.74491 0.0
H2230 H 0.53612 0.57415 0.78336 0.0
H2231 H 0.56952 0.56107 0.78785 0.0
C2232 C 0.48969 0.60652 0.76654 0.0
C2233 C 0.48888 0.62631 0.77293 0.0
C2234 C 0.50793 0.59749 0.76266 0.0
C2235 C 0.52563 0.60821 0.76477 0.0
C2236 C 0.52471 0.62831 0.77007 0.0
C2237 C 0.50651 0.63723 0.77426 0.0
C2238 C 0.58025 0.59889 0.75616 0.0
C2239 C 0.58356 0.58277 0.76889 0.0
C2240 C 0.56115 0.6066 0.75385 0.0
C2241 C 0.54506 0.59805 0.76391 0.0
C2242 C 0.54822 0.58095 0.77532 0.0
C2243 C 0.56732 0.57349 0.77793 0.0
H2244 H 0.43214 0.56375 0.79366 0.0
H2245 H 0.39216 0.58514 0.74857 0.0
H2246 H 0.41858 0.53049 0.78997 0.0
H2247 H 0.37842 0.5518 0.74498 0.0
H2248 H 0.33998 0.50198 0.77632 0.0
H2249 H 0.35749 0.53301 0.7701 0.0
H2250 H 0.41292 0.50119 0.7673 0.0
H2251 H 0.39537 0.47017 0.77367 0.0
C2252 C 0.42086 0.56118 0.78254 0.0
C2253 C 0.41317 0.57698 0.77144 0.0
C2254 C 0.41312 0.54214 0.78039 0.0
C2255 C 0.39732 0.53861 0.76732 0.0
C2256 C 0.39051 0.55416 0.75526 0.0
C2257 C 0.3985 0.57318 0.75718 0.0
C2258 C 0.35587 0.50163 0.77419 0.0
C2259 C 0.36633 0.48371 0.77563 0.0
C2260 C 0.36587 0.51933 0.7704 0.0
C2261 C 0.38657 0.51949 0.76819 0.0
C2262 C 0.39696 0.50148 0.76897 0.0
C2263 C 0.38692 0.48374 0.77252 0.0
H2264 H 0.51741 0.39023 0.79156 0.0
H2265 H 0.49389 0.33906 0.7612 0.0
H2266 H 0.48495 0.40565 0.79088 0.0
H2267 H 0.46104 0.35417 0.76139 0.0
H2268 H 0.42017 0.41297 0.81039 0.0
H2269 H 0.45382 0.40073 0.80725 0.0
H2270 H 0.44136 0.38147 0.74749 0.0
H2271 H 0.40727 0.39342 0.75085 0.0
C2272 C 0.50535 0.38226 0.78466 0.0
C2273 C 0.50833 0.36337 0.77641 0.0
C2274 C 0.48666 0.39106 0.78444 0.0
C2275 C 0.47039 0.38116 0.77609 0.0
C2276 C 0.47333 0.36231 0.76772 0.0
C2277 C 0.49209 0.35351 0.76789 0.0
C2278 C 0.42467 0.40641 0.79646 0.0
C2279 C 0.41108 0.40412 0.78089 0.0
C2280 C 0.44401 0.39945 0.79462 0.0
C2281 C 0.45027 0.39001 0.77715 0.0
C2282 C 0.4369 0.38844 0.76123 0.0
C2283 C 0.41747 0.3955 0.76306 0.0
H2284 H 0.56302 0.43205 0.77755 0.0
H2285 H 0.607 0.40656 0.73881 0.0
H2286 H 0.57709 0.46483 0.77208 0.0
H2287 H 0.62155 0.43938 0.73376 0.0
H2288 H 0.65648 0.48887 0.77196 0.0
H2289 H 0.63939 0.45848 0.76221 0.0
H2290 H 0.58718 0.49245 0.74771 0.0
H2291 H 0.6043 0.52282 0.75743 0.0
C2292 C 0.5752 0.43364 0.76722 0.0
C2293 C 0.58395 0.41689 0.75861 0.0
C2294 C 0.58328 0.45237 0.76409 0.0
C2295 C 0.60052 0.45457 0.75266 0.0
C2296 C 0.60827 0.43803 0.74267 0.0
C2297 C 0.59986 0.4193 0.74544 0.0
C2298 C 0.6415 0.48983 0.76631 0.0
C2299 C 0.63166 0.50812 0.76561 0.0
C2300 C 0.6318 0.47251 0.76052 0.0
C2301 C 0.61197 0.47317 0.75419 0.0
C2302 C 0.60248 0.49158 0.75248 0.0
C2303 C 0.61229 0.50893 0.758 0.0
H2304 H 0.56547 0.43126 0.20474 0.0
H2305 H 0.58384 0.39368 0.25303 0.0
H2306 H 0.53143 0.42 0.20876 0.0
H2307 H 0.54969 0.38197 0.25683 0.0
H2308 H 0.50083 0.34349 0.22233 0.0
H2309 H 0.53171 0.36033 0.2308 0.0
H2310 H 0.50098 0.41642 0.23123 0.0
H2311 H 0.47005 0.39948 0.22277 0.0
C2312 C 0.56205 0.42108 0.21666 0.0
C2313 C 0.57721 0.41321 0.22849 0.0
C2314 C 0.54257 0.41466 0.219 0.0
C2315 C 0.53799 0.39996 0.23297 0.0
C2316 C 0.55289 0.39325 0.24589 0.0
C2317 C 0.57236 0.40002 0.24381 0.0
C2318 C 0.50067 0.35936 0.22451 0.0
C2319 C 0.48316 0.37022 0.22168 0.0
C2320 C 0.51824 0.36898 0.22961 0.0
C2321 C 0.51869 0.38967 0.23171 0.0
C2322 C 0.501 0.40045 0.22974 0.0
C2323 C 0.48334 0.39077 0.22493 0.0
H2324 H 0.65858 0.50397 0.22553 0.0
H2325 H 0.60077 0.47629 0.22264 0.0
H2326 H 0.64269 0.53628 0.22739 0.0
H2327 H 0.58529 0.50857 0.22375 0.0
H2328 H 0.57442 0.57125 0.1933 0.0
H2329 H 0.58649 0.53755 0.19826 0.0
H2330 H 0.61796 0.55643 0.25062 0.0
H2331 H 0.60532 0.59017 0.24595 0.0
C2332 C 0.64259 0.50458 0.22541 0.0
C2333 C 0.63115 0.48723 0.22368 0.0
C2334 C 0.6335 0.52316 0.22656 0.0
C2335 C 0.6128 0.52483 0.22574 0.0
C2336 C 0.60131 0.50764 0.22431 0.0
C2337 C 0.61033 0.48908 0.22346 0.0
C2338 C 0.58345 0.56807 0.20618 0.0
C2339 C 0.58904 0.58326 0.21921 0.0
C2340 C 0.59036 0.54882 0.209 0.0
C2341 C 0.6033 0.54452 0.22469 0.0
C2342 C 0.60811 0.55947 0.23833 0.0
C2343 C 0.60079 0.57868 0.23575 0.0
H2344 H 0.43154 0.56891 0.20914 0.0
H2345 H 0.41054 0.61259 0.2508 0.0
H2346 H 0.46498 0.5823 0.21179 0.0
H2347 H 0.44404 0.62638 0.25315 0.0
H2348 H 0.52536 0.60615 0.22833 0.0
H2349 H 0.49408 0.58976 0.23498 0.0
H2350 H 0.46294 0.64464 0.22491 0.0
H2351 H 0.4942 0.66111 0.21753 0.0
C2352 C 0.43429 0.58092 0.21942 0.0
C2353 C 0.41859 0.5897 0.22981 0.0
C2354 C 0.45338 0.58863 0.2209 0.0
C2355 C 0.457 0.60551 0.23248 0.0
C2356 C 0.44156 0.61343 0.24401 0.0
C2357 C 0.42249 0.60542 0.24285 0.0
C2358 C 0.51194 0.61481 0.22727 0.0
C2359 C 0.51241 0.635 0.222 0.0
C2360 C 0.49401 0.60539 0.23136 0.0
C2361 C 0.47616 0.61595 0.23057 0.0
C2362 C 0.47657 0.63622 0.22595 0.0
C2363 C 0.49449 0.64563 0.22162 0.0
H2364 H 0.39166 0.52172 0.20335 0.0
H2365 H 0.3408 0.49894 0.23482 0.0
H2366 H 0.40664 0.4891 0.20383 0.0
H2367 H 0.3554 0.46595 0.23432 0.0
H2368 H 0.39325 0.41097 0.24308 0.0
H2369 H 0.38212 0.44526 0.24716 0.0
H2370 H 0.40118 0.45833 0.18747 0.0
H2371 H 0.41267 0.42454 0.18366 0.0
C2372 C 0.38365 0.50982 0.21046 0.0
C2373 C 0.36494 0.51308 0.21902 0.0
C2374 C 0.3922 0.491 0.21055 0.0
C2375 C 0.38222 0.47485 0.21905 0.0
C2376 C 0.36362 0.4781 0.22785 0.0
C2377 C 0.35508 0.49699 0.22784 0.0
C2378 C 0.39544 0.42134 0.23104 0.0
C2379 C 0.40381 0.41507 0.21304 0.0
C2380 C 0.38886 0.4409 0.23328 0.0
C2381 C 0.39064 0.45453 0.2176 0.0
C2382 C 0.39977 0.44835 0.19995 0.0
C2383 C 0.40628 0.4289 0.19772 0.0
H2384 H 0.76432 0.49646 0.65327 0.0
H2385 H 0.79528 0.47285 0.60246 0.0
H2386 H 0.76336 0.52888 0.63761 0.0
H2387 H 0.79344 0.50502 0.58641 0.0
H2388 H 0.75273 0.58282 0.60002 0.0
H2389 H 0.74933 0.54831 0.61061 0.0
H2390 H 0.80912 0.53653 0.59099 0.0
H2391 H 0.81228 0.5706 0.58008 0.0
C2392 C 0.77089 0.49812 0.63876 0.0
C2393 C 0.78005 0.482 0.62925 0.0
C2394 C 0.77002 0.51667 0.62961 0.0
C2395 C 0.77827 0.51956 0.61072 0.0
C2396 C 0.78708 0.50336 0.60104 0.0
C2397 C 0.78799 0.48483 0.6102 0.0
C2398 C 0.76491 0.57267 0.5975 0.0
C2399 C 0.7828 0.5794 0.5893 0.0
C2400 C 0.76306 0.55299 0.60377 0.0
C2401 C 0.77903 0.5397 0.60184 0.0
C2402 C 0.79646 0.54625 0.59256 0.0
C2403 C 0.79831 0.56585 0.58638 0.0
H2404 H 0.81079 0.42614 0.41326 0.0
H2405 H 0.75125 0.41213 0.39456 0.0
H2406 H 0.80629 0.46012 0.40255 0.0
H2407 H 0.74651 0.44654 0.38411 0.0
H2408 H 0.79049 0.52316 0.39191 0.0
H2409 H 0.78959 0.49095 0.4078 0.0
H2410 H 0.7595 0.4666 0.35686 0.0
H2411 H 0.75946 0.49915 0.34132 0.0
C2412 C 0.79654 0.43049 0.40729 0.0
C2413 C 0.78141 0.41649 0.40467 0.0
C2414 C 0.79392 0.45002 0.40122 0.0
C2415 C 0.77609 0.45604 0.39233 0.0
C2416 C 0.76052 0.44228 0.39068 0.0
C2417 C 0.76313 0.42266 0.39688 0.0
C2418 C 0.78336 0.51108 0.38418 0.0
C2419 C 0.77511 0.51383 0.36524 0.0
C2420 C 0.783 0.49253 0.39326 0.0
C2421 C 0.77452 0.47617 0.38359 0.0
C2422 C 0.76593 0.47894 0.36483 0.0
C2423 C 0.76622 0.49756 0.35576 0.0
H2424 H 0.56296 0.79898 0.42762 0.0
H2425 H 0.57826 0.75176 0.38733 0.0
H2426 H 0.52919 0.79903 0.41491 0.0
H2427 H 0.54431 0.75199 0.37431 0.0
H2428 H 0.47491 0.75551 0.36448 0.0
H2429 H 0.50647 0.74866 0.38126 0.0
H2430 H 0.51986 0.81115 0.38094 0.0
H2431 H 0.48856 0.81797 0.36462 0.0
C2432 C 0.55888 0.78818 0.41647 0.0
C2433 C 0.57315 0.77544 0.40837 0.0
C2434 C 0.53963 0.78833 0.40907 0.0
C2435 C 0.53431 0.77586 0.3933 0.0
C2436 C 0.54805 0.76177 0.38646 0.0
C2437 C 0.56741 0.76155 0.39399 0.0
C2438 C 0.48466 0.76773 0.36802 0.0
C2439 C 0.47924 0.78728 0.36323 0.0
C2440 C 0.50269 0.76379 0.37754 0.0
C2441 C 0.51543 0.7794 0.38268 0.0
C2442 C 0.51016 0.79885 0.37749 0.0
C2443 C 0.49233 0.80274 0.36787 0.0
H2444 H 0.24213 0.47909 0.37866 0.0
H2445 H 0.20199 0.50082 0.33395 0.0
H2446 H 0.24256 0.51187 0.39431 0.0
H2447 H 0.2022 0.53352 0.34973 0.0
H2448 H 0.18529 0.57475 0.40183 0.0
H2449 H 0.18893 0.54235 0.38661 0.0
H2450 H 0.25222 0.55047 0.38365 0.0
H2451 H 0.24866 0.58348 0.39859 0.0
C2452 C 0.23349 0.49093 0.37217 0.0
C2453 C 0.22188 0.48748 0.35522 0.0
C2454 C 0.23387 0.50964 0.38101 0.0
C2455 C 0.22234 0.52506 0.37323 0.0
C2456 C 0.21115 0.52176 0.356 0.0
C2457 C 0.21107 0.50317 0.34695 0.0
C2458 C 0.20005 0.56965 0.39817 0.0
C2459 C 0.21669 0.58176 0.40133 0.0
C2460 C 0.20207 0.55114 0.38934 0.0
C2461 C 0.22079 0.54416 0.38374 0.0
C2462 C 0.23763 0.55567 0.38782 0.0
C2463 C 0.23559 0.57445 0.39644 0.0
H2464 H 0.49955 0.23298 0.33856 0.0
H2465 H 0.52173 0.20757 0.39299 0.0
H2466 H 0.46674 0.23567 0.35328 0.0
H2467 H 0.48936 0.21139 0.40798 0.0
H2468 H 0.42429 0.1928 0.4153 0.0
H2469 H 0.45841 0.19514 0.40453 0.0
H2470 H 0.44621 0.25213 0.37804 0.0
H2471 H 0.41152 0.24943 0.3885 0.0
C2472 C 0.49753 0.22804 0.35365 0.0
C2473 C 0.51338 0.2199 0.36447 0.0
C2474 C 0.47875 0.22992 0.36223 0.0
C2475 C 0.4754 0.22377 0.38184 0.0
C2476 C 0.49135 0.21609 0.39278 0.0
C2477 C 0.51004 0.21407 0.38419 0.0
C2478 C 0.42895 0.20602 0.4075 0.0
C2479 C 0.41525 0.22089 0.40266 0.0
C2480 C 0.44859 0.20743 0.4014 0.0
C2481 C 0.45507 0.22377 0.3903 0.0
C2482 C 0.4416 0.23922 0.38635 0.0
C2483 C 0.42183 0.23782 0.39255 0.0
H2484 H 0.23445 0.49889 0.65424 0.0
H2485 H 0.20121 0.52399 0.6056 0.0
H2486 H 0.23566 0.46727 0.63698 0.0
H2487 H 0.20349 0.49284 0.58792 0.0
H2488 H 0.18699 0.42774 0.57711 0.0
H2489 H 0.18915 0.46093 0.59054 0.0
H2490 H 0.24945 0.44965 0.60891 0.0
H2491 H 0.24701 0.41592 0.5959 0.0
C2492 C 0.22743 0.49774 0.63988 0.0
C2493 C 0.21763 0.51406 0.63142 0.0
C2494 C 0.22844 0.47967 0.62981 0.0
C2495 C 0.21974 0.47752 0.61101 0.0
C2496 C 0.2102 0.49391 0.60245 0.0
C2497 C 0.20906 0.51189 0.61256 0.0
C2498 C 0.20085 0.43241 0.58371 0.0
C2499 C 0.21678 0.41918 0.58556 0.0
C2500 C 0.20213 0.45153 0.59134 0.0
C2501 C 0.21942 0.45794 0.60097 0.0
C2502 C 0.2358 0.44505 0.60186 0.0
C2503 C 0.2345 0.42583 0.5942 0.0
H2504 H 0.57026 0.18679 0.5813 0.0
H2505 H 0.58586 0.24415 0.60492 0.0
H2506 H 0.53666 0.19089 0.59317 0.0
H2507 H 0.55173 0.2486 0.61641 0.0
H2508 H 0.49784 0.23502 0.6571 0.0
H2509 H 0.53072 0.23476 0.64221 0.0
H2510 H 0.50646 0.2083 0.58924 0.0
H2511 H 0.47405 0.2074 0.60445 0.0
C2512 C 0.56637 0.20051 0.58866 0.0
C2513 C 0.58071 0.21512 0.59221 0.0
C2514 C 0.54702 0.20292 0.5954 0.0
C2515 C 0.54146 0.22005 0.60584 0.0
C2516 C 0.5556 0.23511 0.60864 0.0
C2517 C 0.57507 0.23268 0.60185 0.0
C2518 C 0.49953 0.22897 0.64236 0.0
C2519 C 0.48317 0.22115 0.63209 0.0
C2520 C 0.51836 0.22913 0.63368 0.0
C2521 C 0.52126 0.22151 0.6145 0.0
C2522 C 0.50484 0.21407 0.60412 0.0
C2523 C 0.48611 0.21377 0.61282 0.0
H2524 H 0.52414 0.78602 0.60527 0.0
H2525 H 0.49859 0.7598 0.6578 0.0
H2526 H 0.49274 0.78274 0.58831 0.0
H2527 H 0.46672 0.75774 0.64112 0.0
H2528 H 0.41329 0.74567 0.60328 0.0
H2529 H 0.4474 0.74212 0.61519 0.0
H2530 H 0.46186 0.79912 0.58991 0.0
H2531 H 0.42829 0.80228 0.57766 0.0
C2532 C 0.51192 0.77946 0.61325 0.0
C2533 C 0.51405 0.77322 0.63302 0.0
C2534 C 0.49378 0.77775 0.60352 0.0
C2535 C 0.47714 0.77004 0.61334 0.0
C2536 C 0.47928 0.76351 0.633 0.0
C2537 C 0.49752 0.76504 0.64271 0.0
C2538 C 0.424 0.75707 0.59974 0.0
C2539 C 0.41819 0.77426 0.58958 0.0
C2540 C 0.44344 0.75519 0.60679 0.0
C2541 C 0.45734 0.77043 0.6037 0.0
C2542 C 0.4517 0.78698 0.59242 0.0
C2543 C 0.43238 0.78885 0.58545 0.0
H2544 H 0.18528 0.38825 0.26078 0.0
H2545 H 0.14121 0.37504 0.30519 0.0
H2546 H 0.16437 0.37317 0.23549 0.0
H2547 H 0.12007 0.36025 0.27978 0.0
H2548 H 0.10788 0.30899 0.23433 0.0
H2549 H 0.12303 0.32939 0.26 0.0
H2550 H 0.13255 0.37605 0.21732 0.0
H2551 H 0.1177 0.35545 0.19152 0.0
C2552 C 0.171 0.38233 0.26507 0.0
C2553 C 0.16494 0.38268 0.28498 0.0
C2554 C 0.15894 0.37388 0.25056 0.0
C2555 C 0.1406 0.36547 0.25566 0.0
C2556 C 0.1342 0.36648 0.27545 0.0
C2557 C 0.14622 0.37508 0.28996 0.0
C2558 C 0.11301 0.3237 0.2305 0.0
C2559 C 0.11176 0.33057 0.2109 0.0
C2560 C 0.12153 0.33545 0.24523 0.0
C2561 C 0.12909 0.35428 0.24065 0.0
C2562 C 0.12702 0.36152 0.22123 0.0
C2563 C 0.11836 0.3498 0.20652 0.0
H2564 H 0.65399 0.179 0.29713 0.0
H2565 H 0.59789 0.15069 0.28521 0.0
H2566 H 0.66971 0.15875 0.27191 0.0
H2567 H 0.61387 0.12979 0.26019 0.0
H2568 H 0.64616 0.11958 0.19934 0.0
H2569 H 0.6285 0.13446 0.22714 0.0
H2570 H 0.67958 0.12506 0.26453 0.0
H2571 H 0.69728 0.11034 0.23668 0.0
C2572 C 0.64502 0.16839 0.28912 0.0
C2573 C 0.62465 0.16662 0.29297 0.0
C2574 C 0.6541 0.15656 0.27485 0.0
C2575 C 0.64306 0.14261 0.26407 0.0
C2576 C 0.62274 0.14052 0.26816 0.0
C2577 C 0.61362 0.15236 0.28256 0.0
C2578 C 0.65345 0.12031 0.21361 0.0
C2579 C 0.67318 0.11399 0.21579 0.0
C2580 C 0.64333 0.12882 0.22955 0.0
C2581 C 0.65272 0.13114 0.24798 0.0
C2582 C 0.67208 0.12384 0.2504 0.0
C2583 C 0.68221 0.11541 0.23448 0.0
H2584 H 0.87315 0.64121 0.19371 0.0
H2585 H 0.88642 0.68769 0.23563 0.0
H2586 H 0.85761 0.62195 0.21999 0.0
H2587 H 0.87033 0.66868 0.26179 0.0
H2588 H 0.85168 0.62401 0.3079 0.0
H2589 H 0.8724 0.63825 0.28189 0.0
H2590 H 0.82673 0.62588 0.23882 0.0
H2591 H 0.80629 0.6112 0.26468 0.0
C2592 C 0.87301 0.64718 0.2086 0.0
C2593 C 0.88094 0.66601 0.2126 0.0
C2594 C 0.86394 0.63623 0.2236 0.0
C2595 C 0.86264 0.64385 0.24292 0.0
C2596 C 0.87124 0.66234 0.24709 0.0
C2597 C 0.88026 0.67332 0.23207 0.0
C2598 C 0.84626 0.62396 0.2928 0.0
C2599 C 0.82733 0.61658 0.28832 0.0
C2600 C 0.85804 0.63228 0.27796 0.0
C2601 C 0.85115 0.63327 0.25835 0.0
C2602 C 0.83253 0.62518 0.25376 0.0
C2603 C 0.82074 0.61695 0.26859 0.0
H2604 H 0.34093 0.83842 0.30145 0.0
H2605 H 0.39564 0.83569 0.26853 0.0
H2606 H 0.32553 0.85682 0.27465 0.0
H2607 H 0.38053 0.85492 0.24182 0.0
H2608 H 0.33867 0.86789 0.18911 0.0
H2609 H 0.35718 0.85244 0.21602 0.0
H2610 H 0.32417 0.88733 0.25846 0.0
H2611 H 0.30509 0.90191 0.23149 0.0
C2612 C 0.34974 0.84207 0.28855 0.0
C2613 C 0.36946 0.83568 0.28704 0.0
C2614 C 0.34097 0.85275 0.2732 0.0
C2615 C 0.3518 0.85756 0.25605 0.0
C2616 C 0.37165 0.85129 0.25466 0.0
C2617 C 0.38034 0.84033 0.26995 0.0
C2618 C 0.33566 0.87242 0.2042 0.0
C2619 C 0.32043 0.88595 0.20831 0.0
C2620 C 0.34629 0.86363 0.21965 0.0
C2621 C 0.34204 0.86841 0.2395 0.0
C2622 C 0.3275 0.88285 0.24343 0.0
C2623 C 0.31667 0.89135 0.22801 0.0
H2624 H 0.14949 0.67985 0.79672 0.0
H2625 H 0.09289 0.65514 0.78013 0.0
H2626 H 0.16584 0.65925 0.77218 0.0
H2627 H 0.10943 0.63394 0.75571 0.0
H2628 H 0.14537 0.62403 0.69686 0.0
H2629 H 0.12671 0.63904 0.72387 0.0
H2630 H 0.17423 0.62511 0.76439 0.0
H2631 H 0.19294 0.61014 0.73733 0.0
C2632 C 0.14054 0.66994 0.78783 0.0
C2633 C 0.11987 0.66931 0.79013 0.0
C2634 C 0.14995 0.65792 0.77394 0.0
C2635 C 0.13895 0.64492 0.76201 0.0
C2636 C 0.11829 0.64392 0.7646 0.0
C2637 C 0.10884 0.65594 0.77863 0.0
C2638 C 0.15165 0.62378 0.71161 0.0
C2639 C 0.17072 0.61606 0.71493 0.0
C2640 C 0.14094 0.63237 0.7271 0.0
C2641 C 0.14907 0.63342 0.74623 0.0
C2642 C 0.16772 0.62484 0.74973 0.0
C2643 C 0.17844 0.61629 0.73425 0.0
H2644 H 0.34347 0.17888 0.69784 0.0
H2645 H 0.4008 0.15424 0.71194 0.0
H2646 H 0.32812 0.15752 0.72239 0.0
H2647 H 0.38528 0.13235 0.73639 0.0
H2648 H 0.35064 0.12033 0.79591 0.0
H2649 H 0.36861 0.13634 0.76898 0.0
H2650 H 0.32069 0.12264 0.72888 0.0
H2651 H 0.30272 0.10662 0.7558 0.0
C2652 C 0.35279 0.16887 0.70621 0.0
C2653 C 0.37336 0.1684 0.70314 0.0
C2654 C 0.34396 0.15642 0.72009 0.0
C2655 C 0.35547 0.14318 0.73128 0.0
C2656 C 0.37605 0.14248 0.72805 0.0
C2657 C 0.3849 0.1549 0.71401 0.0
C2658 C 0.34416 0.12031 0.78124 0.0
C2659 C 0.32516 0.11241 0.77803 0.0
C2660 C 0.35445 0.12949 0.76581 0.0
C2661 C 0.34595 0.13097 0.74687 0.0
C2662 C 0.32745 0.12208 0.74342 0.0
C2663 C 0.31717 0.11291 0.75882 0.0
H2664 H 0.80584 0.39049 0.73382 0.0
H2665 H 0.84227 0.35753 0.69297 0.0
H2666 H 0.82294 0.37507 0.76164 0.0
H2667 H 0.85876 0.34123 0.72063 0.0
H2668 H 0.89546 0.32571 0.77477 0.0
H2669 H 0.88076 0.34401 0.74723 0.0
H2670 H 0.82458 0.34483 0.77809 0.0
H2671 H 0.83968 0.3275 0.80584 0.0
C2672 C 0.81753 0.3799 0.73086 0.0
C2673 C 0.8228 0.37518 0.71134 0.0
C2674 C 0.82724 0.37091 0.74676 0.0
C2675 C 0.84215 0.35669 0.74346 0.0
C2676 C 0.8476 0.35229 0.72382 0.0
C2677 C 0.83813 0.36157 0.70794 0.0
C2678 C 0.87998 0.32988 0.77555 0.0
C2679 C 0.86868 0.32531 0.79237 0.0
C2680 C 0.8715 0.34028 0.75978 0.0
C2681 C 0.85145 0.34602 0.76039 0.0
C2682 C 0.84017 0.34115 0.77723 0.0
C2683 C 0.84874 0.33108 0.79309 0.0
H2684 H 0.68317 0.8438 0.79891 0.0
H2685 H 0.65636 0.89882 0.78035 0.0
H2686 H 0.66494 0.82617 0.77339 0.0
H2687 H 0.63811 0.88108 0.75442 0.0
H2688 H 0.59617 0.83685 0.72165 0.0
H2689 H 0.612 0.85578 0.74829 0.0
H2690 H 0.66686 0.82459 0.73757 0.0
H2691 H 0.65115 0.8058 0.71127 0.0
C2692 C 0.67345 0.85215 0.78924 0.0
C2693 C 0.67145 0.87273 0.79136 0.0
C2694 C 0.663 0.84205 0.77462 0.0
C2695 C 0.65033 0.85228 0.76168 0.0
C2696 C 0.64773 0.8728 0.76422 0.0
C2697 C 0.65818 0.88294 0.77899 0.0
C2698 C 0.61162 0.83414 0.725 0.0
C2699 C 0.62233 0.81962 0.7146 0.0
C2700 C 0.62068 0.84499 0.7402 0.0
C2701 C 0.6406 0.84149 0.74519 0.0
C2702 C 0.65135 0.82729 0.73443 0.0
C2703 C 0.64234 0.81649 0.71936 0.0
H2704 H 0.19302 0.13345 0.33947 0.0
H2705 H 0.235 0.0886 0.32208 0.0
H2706 H 0.21861 0.15035 0.35835 0.0
H2707 H 0.26054 0.10459 0.34209 0.0
H2708 H 0.30669 0.15182 0.35668 0.0
H2709 H 0.28104 0.13175 0.34132 0.0
H2710 H 0.23912 0.15192 0.3855 0.0
H2711 H 0.26473 0.17305 0.39985 0.0
C2712 C 0.2077 0.12698 0.34017 0.0
C2713 C 0.21216 0.10983 0.32938 0.0
C2714 C 0.22239 0.13656 0.3511 0.0
C2715 C 0.24181 0.12895 0.35179 0.0
C2716 C 0.24594 0.11121 0.34158 0.0
C2717 C 0.23133 0.10191 0.33026 0.0
C2718 C 0.29199 0.15174 0.36313 0.0
C2719 C 0.28756 0.16392 0.37934 0.0
C2720 C 0.27727 0.14013 0.35445 0.0
C2721 C 0.25785 0.14013 0.36207 0.0
C2722 C 0.25372 0.15182 0.37888 0.0
C2723 C 0.26838 0.1638 0.38725 0.0
H2724 H 0.81929 0.29146 0.34101 0.0
H2725 H 0.84139 0.27454 0.39859 0.0
H2726 H 0.8384 0.26482 0.32577 0.0
H2727 H 0.86062 0.24776 0.38326 0.0
H2728 H 0.86773 0.188 0.34734 0.0
H2729 H 0.85211 0.21557 0.36466 0.0
H2730 H 0.87474 0.25608 0.32074 0.0
H2731 H 0.89094 0.22867 0.30368 0.0
C2732 C 0.82821 0.28197 0.3504 0.0
C2733 C 0.8288 0.28494 0.37098 0.0
C2734 C 0.83928 0.26688 0.34166 0.0
C2735 C 0.85102 0.2543 0.35335 0.0
C2736 C 0.85163 0.25723 0.37395 0.0
C2737 C 0.84073 0.27255 0.38268 0.0
C2738 C 0.86981 0.20282 0.34159 0.0
C2739 C 0.88054 0.20607 0.32401 0.0
C2740 C 0.86078 0.21859 0.35151 0.0
C2741 C 0.86212 0.2379 0.34395 0.0
C2742 C 0.87326 0.24127 0.32672 0.0
C2743 C 0.88246 0.22556 0.31692 0.0
H2744 H 0.69196 0.82697 0.34601 0.0
H2745 H 0.7139 0.83868 0.4049 0.0
H2746 H 0.71942 0.84575 0.33192 0.0
H2747 H 0.74161 0.85752 0.39075 0.0
H2748 H 0.8004 0.85845 0.3522 0.0
H2749 H 0.77122 0.84632 0.36952 0.0
H2750 H 0.73372 0.88065 0.33077 0.0
H2751 H 0.76294 0.8934 0.31374 0.0
C2752 C 0.70261 0.83375 0.35591 0.0
C2753 C 0.70099 0.83131 0.37649 0.0
C2754 C 0.7182 0.84461 0.34788 0.0
C2755 C 0.73261 0.85304 0.36026 0.0
C2756 C 0.7307 0.85107 0.38091 0.0
C2757 C 0.71488 0.84042 0.38898 0.0
C2758 C 0.78601 0.86387 0.34765 0.0
C2759 C 0.78405 0.87684 0.33146 0.0
C2760 C 0.76929 0.85687 0.35759 0.0
C2761 C 0.75026 0.86252 0.35143 0.0
C2762 C 0.74826 0.87594 0.33568 0.0
C2763 C 0.76498 0.88312 0.32587 0.0
H2764 H 0.19551 0.73847 0.39284 0.0
H2765 H 0.14578 0.70036 0.37997 0.0
H2766 H 0.17757 0.76653 0.37878 0.0
H2767 H 0.12785 0.72841 0.36599 0.0
H2768 H 0.09682 0.7861 0.34959 0.0
H2769 H 0.11251 0.76178 0.37165 0.0
H2770 H 0.16901 0.77335 0.3439 0.0
H2771 H 0.15343 0.79752 0.3222 0.0
C2772 C 0.18067 0.73614 0.3872 0.0
C2773 C 0.17216 0.71716 0.38728 0.0
C2774 C 0.1704 0.75219 0.3792 0.0
C2775 C 0.15139 0.74961 0.37111 0.0
C2776 C 0.14239 0.7309 0.37229 0.0
C2777 C 0.15268 0.71482 0.38029 0.0
C2778 C 0.11263 0.78357 0.3485 0.0
C2779 C 0.12392 0.79347 0.33413 0.0
C2780 C 0.12157 0.76964 0.36101 0.0
C2781 C 0.14198 0.76569 0.3595 0.0
C2782 C 0.15331 0.77623 0.34561 0.0
C2783 C 0.14437 0.78991 0.33303 0.0
H2784 H 0.28248 0.84405 0.59476 0.0
H2785 H 0.29611 0.81823 0.65168 0.0
H2786 H 0.25787 0.8656 0.61052 0.0
H2787 H 0.27134 0.83919 0.66723 0.0
H2788 H 0.23769 0.88946 0.6935 0.0
H2789 H 0.26479 0.8738 0.67544 0.0
H2790 H 0.22521 0.8614 0.62673 0.0
H2791 H 0.19812 0.87712 0.64475 0.0
C2792 C 0.28026 0.84304 0.61061 0.0
C2793 C 0.29106 0.82933 0.62196 0.0
C2794 C 0.26613 0.85527 0.6196 0.0
C2795 C 0.26272 0.85413 0.64012 0.0
C2796 C 0.2738 0.84064 0.65145 0.0
C2797 C 0.28779 0.82841 0.64248 0.0
C2798 C 0.23484 0.88354 0.67886 0.0
C2799 C 0.21574 0.88433 0.67063 0.0
C2800 C 0.25033 0.87457 0.66853 0.0
C2801 C 0.24706 0.86615 0.64977 0.0
C2802 C 0.22823 0.8679 0.64108 0.0
C2803 C 0.21272 0.8769 0.65141 0.0
H2804 H 0.09593 0.22007 0.64963 0.0
H2805 H 0.14787 0.21111 0.68573 0.0
H2806 H 0.11296 0.24645 0.63159 0.0
H2807 H 0.16533 0.23654 0.66722 0.0
H2808 H 0.18604 0.2952 0.64441 0.0
H2809 H 0.1672 0.27051 0.66262 0.0
H2810 H 0.13805 0.25291 0.6083 0.0
H2811 H 0.15627 0.27861 0.5904 0.0
C2812 C 0.11104 0.22376 0.65359 0.0
C2813 C 0.12057 0.21384 0.66914 0.0
C2814 C 0.12087 0.23871 0.6432 0.0
C2815 C 0.14054 0.24373 0.64797 0.0
C2816 C 0.15005 0.2335 0.66343 0.0
C2817 C 0.14011 0.21886 0.67401 0.0
C2818 C 0.1756 0.28599 0.63644 0.0
C2819 C 0.17266 0.28855 0.61606 0.0
C2820 C 0.16486 0.27176 0.64681 0.0
C2821 C 0.15123 0.25949 0.63693 0.0
C2822 C 0.14822 0.26223 0.61646 0.0
C2823 C 0.15873 0.27679 0.60616 0.0
H2824 H 0.80782 0.13832 0.65893 0.0
H2825 H 0.7677 0.09396 0.68121 0.0
H2826 H 0.78125 0.15256 0.63908 0.0
H2827 H 0.74125 0.10733 0.66053 0.0
H2828 H 0.69342 0.152 0.64379 0.0
H2829 H 0.72027 0.13452 0.66014 0.0
H2830 H 0.75972 0.15037 0.61218 0.0
H2831 H 0.73283 0.16877 0.59641 0.0
C2832 C 0.79336 0.13136 0.65915 0.0
C2833 C 0.78968 0.11517 0.67161 0.0
C2834 C 0.77813 0.13942 0.64771 0.0
C2835 C 0.75896 0.13123 0.64824 0.0
C2836 C 0.75564 0.11438 0.66008 0.0
C2837 C 0.77078 0.10659 0.67182 0.0
C2838 C 0.7078 0.15152 0.63667 0.0
C2839 C 0.71111 0.16171 0.61888 0.0
C2840 C 0.72322 0.14139 0.64597 0.0
C2841 C 0.74228 0.14093 0.63752 0.0
C2842 C 0.74538 0.15068 0.61934 0.0
C2843 C 0.72999 0.16112 0.61021 0.0
H2844 H 0.81751 0.70606 0.65004 0.0
H2845 H 0.84375 0.72051 0.59351 0.0
H2846 H 0.83718 0.73166 0.66586 0.0
H2847 H 0.86399 0.74605 0.60958 0.0
H2848 H 0.87421 0.80564 0.64534 0.0
H2849 H 0.85889 0.77877 0.62651 0.0
H2850 H 0.87196 0.73811 0.67412 0.0
H2851 H 0.88715 0.7649 0.69291 0.0
C2852 C 0.82745 0.71479 0.64097 0.0
C2853 C 0.82894 0.71141 0.6205 0.0
C2854 C 0.83894 0.72928 0.65009 0.0
C2855 C 0.85225 0.74076 0.63899 0.0
C2856 C 0.8538 0.73745 0.61849 0.0
C2857 C 0.84233 0.72279 0.60933 0.0
C2858 C 0.87417 0.79087 0.65157 0.0
C2859 C 0.88161 0.7874 0.6707 0.0
C2860 C 0.86541 0.77549 0.64079 0.0
C2861 C 0.86396 0.75642 0.64898 0.0
C2862 C 0.87247 0.75276 0.66761 0.0
C2863 C 0.88118 0.76808 0.67836 0.0
H2864 H 0.37104 0.3001 0.14042 0.0
H2865 H 0.39816 0.2589 0.18125 0.0
H2866 H 0.35668 0.27256 0.12214 0.0
H2867 H 0.38339 0.23136 0.16309 0.0
H2868 H 0.3265 0.19614 0.14539 0.0
H2869 H 0.34783 0.22122 0.16011 0.0
H2870 H 0.36387 0.2419 0.10174 0.0
H2871 H 0.34227 0.21668 0.08694 0.0
C2872 C 0.37434 0.28517 0.14525 0.0
C2873 C 0.38562 0.28173 0.16243 0.0
C2874 C 0.36609 0.26939 0.13475 0.0
C2875 C 0.36881 0.24985 0.14129 0.0
C2876 C 0.38085 0.24631 0.15789 0.0
C2877 C 0.38922 0.26208 0.16831 0.0
C2878 C 0.33467 0.20598 0.13571 0.0
C2879 C 0.33262 0.20467 0.11506 0.0
C2880 C 0.34704 0.22019 0.14412 0.0
C2881 C 0.35751 0.23349 0.13206 0.0
C2882 C 0.35588 0.23186 0.11136 0.0
C2883 C 0.34364 0.21744 0.10291 0.0
H2884 H 0.30821 0.76042 0.8868 0.0
H2885 H 0.35309 0.80254 0.86919 0.0
H2886 H 0.32679 0.73408 0.87086 0.0
H2887 H 0.37246 0.77597 0.85486 0.0
H2888 H 0.38858 0.72996 0.80841 0.0
H2889 H 0.3721 0.75598 0.82681 0.0
H2890 H 0.35474 0.7135 0.87145 0.0
H2891 H 0.36983 0.68715 0.85214 0.0
C2892 C 0.32212 0.76407 0.87971 0.0
C2893 C 0.32898 0.78373 0.87919 0.0
C2894 C 0.33298 0.74886 0.87083 0.0
C2895 C 0.35115 0.75283 0.86144 0.0
C2896 C 0.35837 0.77236 0.8616 0.0
C2897 C 0.34736 0.78761 0.87018 0.0
C2898 C 0.3811 0.72609 0.82206 0.0
C2899 C 0.38039 0.70635 0.82861 0.0
C2900 C 0.3719 0.74113 0.83284 0.0
C2901 C 0.362 0.73692 0.85068 0.0
C2902 C 0.36191 0.71729 0.85762 0.0
C2903 C 0.37088 0.70217 0.84668 0.0
H2904 H 0.29699 0.36579 0.84879 0.0
H2905 H 0.25449 0.39063 0.80781 0.0
H2906 H 0.27026 0.34952 0.86663 0.0
H2907 H 0.22781 0.37383 0.82548 0.0
H2908 H 0.19406 0.31678 0.84456 0.0
H2909 H 0.219 0.33785 0.82919 0.0
H2910 H 0.2394 0.35599 0.88704 0.0
H2911 H 0.21437 0.33467 0.9025 0.0
C2912 C 0.28193 0.36813 0.84379 0.0
C2913 C 0.27794 0.3795 0.82677 0.0
C2914 C 0.26662 0.35874 0.85402 0.0
C2915 C 0.24698 0.36034 0.84739 0.0
C2916 C 0.24286 0.37216 0.83077 0.0
C2917 C 0.25816 0.38171 0.82062 0.0
C2918 C 0.20388 0.32526 0.85399 0.0
C2919 C 0.20244 0.32397 0.87471 0.0
C2920 C 0.218 0.33749 0.8452 0.0
C2921 C 0.23111 0.34857 0.85693 0.0
C2922 C 0.22952 0.34751 0.87767 0.0
C2923 C 0.21519 0.33542 0.88649 0.0
H2924 H 0.64832 0.30208 0.82158 0.0
H2925 H 0.59012 0.28765 0.84379 0.0
H2926 H 0.66285 0.27704 0.84296 0.0
H2927 H 0.60479 0.26271 0.86573 0.0
H2928 H 0.63809 0.20211 0.87559 0.0
H2929 H 0.62092 0.23023 0.86083 0.0
H2930 H 0.66946 0.26847 0.87733 0.0
H2931 H 0.68667 0.24031 0.89203 0.0
C2932 C 0.63865 0.29361 0.83117 0.0
C2933 C 0.61807 0.29662 0.83084 0.0
C2934 C 0.647 0.27943 0.84362 0.0
C2935 C 0.63497 0.26789 0.85606 0.0
C2936 C 0.61441 0.27129 0.85619 0.0
C2937 C 0.60604 0.28562 0.84376 0.0
C2938 C 0.64488 0.2166 0.87649 0.0
C2939 C 0.66384 0.21896 0.88477 0.0
C2940 C 0.63503 0.23273 0.86804 0.0
C2941 C 0.64393 0.25153 0.86772 0.0
C2942 C 0.66239 0.25409 0.87702 0.0
C2943 C 0.67224 0.23797 0.88542 0.0
H2944 H 0.80435 0.63898 0.88015 0.0
H2945 H 0.76254 0.68707 0.8862 0.0
H2946 H 0.77838 0.61818 0.86622 0.0
H2947 H 0.73687 0.66665 0.87135 0.0
H2948 H 0.69044 0.62278 0.85449 0.0
H2949 H 0.7157 0.63838 0.87496 0.0
H2950 H 0.76107 0.61692 0.83522 0.0
H2951 H 0.73593 0.60048 0.81536 0.0
C2952 C 0.78956 0.64504 0.87876 0.0
C2953 C 0.78557 0.66476 0.88416 0.0
C2954 C 0.77473 0.63319 0.87055 0.0
C2955 C 0.75558 0.64078 0.86749 0.0
C2956 C 0.7514 0.66023 0.87364 0.0
C2957 C 0.7662 0.67205 0.88191 0.0
C2958 C 0.70584 0.62095 0.8504 0.0
C2959 C 0.71115 0.61048 0.83319 0.0
C2960 C 0.72031 0.63012 0.86201 0.0
C2961 C 0.7404 0.62909 0.85664 0.0
C2962 C 0.74576 0.6179 0.83991 0.0
C2963 C 0.73132 0.60867 0.82836 0.0
H2964 H 0.6901 0.76602 0.11007 0.0
H2965 H 0.64549 0.80989 0.12349 0.0
H2966 H 0.66907 0.74031 0.12415 0.0
H2967 H 0.62418 0.78405 0.13712 0.0
H2968 H 0.60999 0.73753 0.1864 0.0
H2969 H 0.62595 0.76365 0.16728 0.0
H2970 H 0.63787 0.72199 0.1202 0.0
H2971 H 0.62239 0.69571 0.13959 0.0
C2972 C 0.67569 0.77011 0.11582 0.0
C2973 C 0.66951 0.78998 0.11582 0.0
C2974 C 0.66355 0.75537 0.12369 0.0
C2975 C 0.64499 0.76017 0.1318 0.0
C2976 C 0.63848 0.77994 0.13113 0.0
C2977 C 0.65061 0.79469 0.12316 0.0
C2978 C 0.61589 0.734 0.1719 0.0
C2979 C 0.61509 0.71455 0.16457 0.0
C2980 C 0.62485 0.749 0.16086 0.0
C2981 C 0.63326 0.74484 0.14227 0.0
C2982 C 0.6317 0.72557 0.13457 0.0
C2983 C 0.62267 0.71058 0.14559 0.0
H2984 H 0.30889 0.65291 0.16886 0.0
H2985 H 0.28283 0.5964 0.15449 0.0
H2986 H 0.28455 0.6696 0.14814 0.0
H2987 H 0.25782 0.61314 0.13415 0.0
H2988 H 0.22236 0.65 0.08935 0.0
H2989 H 0.25041 0.63299 0.10485 0.0
H2990 H 0.25003 0.67609 0.15219 0.0
H2991 H 0.22242 0.69302 0.1367 0.0
C2992 C 0.29792 0.64409 0.16115 0.0
C2993 C 0.29747 0.62346 0.16342 0.0
C2994 C 0.28394 0.65362 0.14937 0.0
C2995 C 0.269 0.64274 0.13979 0.0
C2996 C 0.26918 0.62194 0.14125 0.0
C2997 C 0.2834 0.61236 0.15293 0.0
C2998 C 0.2284 0.65583 0.10301 0.0
C2999 C 0.22034 0.67295 0.11171 0.0
C3000 C 0.2444 0.64608 0.1119 0.0
C3001 C 0.25256 0.65326 0.12967 0.0
C3002 C 0.24447 0.67042 0.13825 0.0
C3003 C 0.22861 0.68016 0.12937 0.0
H3004 H 0.76034 0.30826 0.11034 0.0
H3005 H 0.8007 0.354 0.12954 0.0
H3006 H 0.73264 0.32688 0.12416 0.0
H3007 H 0.77297 0.37261 0.14347 0.0
H3008 H 0.71563 0.40616 0.15783 0.0
H3009 H 0.74131 0.39067 0.13725 0.0
H3010 H 0.72342 0.3331 0.15861 0.0
H3011 H 0.69776 0.34842 0.17863 0.0
C3012 C 0.76325 0.32238 0.11738 0.0
C3013 C 0.7827 0.32955 0.11911 0.0
C3014 C 0.74741 0.33304 0.12528 0.0
C3015 C 0.75067 0.35107 0.13514 0.0
C3016 C 0.76997 0.35883 0.13584 0.0
C3017 C 0.78585 0.34816 0.12788 0.0
C3018 C 0.71712 0.39019 0.15788 0.0
C3019 C 0.70487 0.37849 0.16996 0.0
C3020 C 0.73184 0.38135 0.14623 0.0
C3021 C 0.73435 0.36067 0.14629 0.0
C3022 C 0.72172 0.34903 0.15801 0.0
C3023 C 0.70718 0.35783 0.16969 0.0
H3024 H 0.11439 0.13059 0.22292 0.0
H3025 H 0.13799 0.17979 0.25632 0.0
H3026 H 0.10358 0.1532 0.19709 0.0
H3027 H 0.12632 0.20254 0.23088 0.0
H3028 H 0.12252 0.23549 0.17273 0.0
H3029 H 0.13385 0.2118 0.19729 0.0
H3030 H 0.07941 0.17885 0.19062 0.0
H3031 H 0.06818 0.2025 0.1656 0.0
C3032 C 0.11737 0.14622 0.22475 0.0
C3033 C 0.12727 0.15334 0.24167 0.0
C3034 C 0.1109 0.15922 0.21003 0.0
C3035 C 0.11412 0.17968 0.21186 0.0
C3036 C 0.12386 0.18683 0.22885 0.0
C3037 C 0.13036 0.17382 0.24356 0.0
C3038 C 0.11293 0.2232 0.17648 0.0
C3039 C 0.09435 0.22096 0.16736 0.0
C3040 C 0.11941 0.20965 0.19065 0.0
C3041 C 0.10745 0.19356 0.19613 0.0
C3042 C 0.08905 0.19102 0.18663 0.0
C3043 C 0.08259 0.20457 0.17233 0.0
H3044 H 0.81569 0.12803 0.25507 0.0
H3045 H 0.86457 0.10068 0.22411 0.0
H3046 H 0.79381 0.11992 0.22758 0.0
H3047 H 0.84289 0.09335 0.19625 0.0
H3048 H 0.79151 0.06453 0.16063 0.0
H3049 H 0.81515 0.07244 0.18688 0.0
H3050 H 0.78818 0.13009 0.1937 0.0
H3051 H 0.76448 0.12207 0.16779 0.0
C3052 C 0.82177 0.12026 0.24244 0.0
C3053 C 0.84192 0.11512 0.24181 0.0
C3054 C 0.80929 0.11583 0.22655 0.0
C3055 C 0.81665 0.10616 0.20961 0.0
C3056 C 0.83672 0.10074 0.20909 0.0
C3057 C 0.84921 0.10516 0.22499 0.0
C3058 C 0.79086 0.07899 0.16754 0.0
C3059 C 0.77601 0.09259 0.16232 0.0
C3060 C 0.80438 0.08353 0.18259 0.0
C3061 C 0.80334 0.10178 0.19262 0.0
C3062 C 0.78907 0.1157 0.18666 0.0
C3063 C 0.77555 0.11115 0.17172 0.0
H3064 H 0.87838 0.76468 0.16331 0.0
H3065 H 0.93925 0.77932 0.17642 0.0
H3066 H 0.86726 0.7876 0.189 0.0
H3067 H 0.92805 0.80208 0.20245 0.0
H3068 H 0.89713 0.81524 0.26398 0.0
H3069 H 0.90928 0.79537 0.23612 0.0
H3070 H 0.86867 0.82547 0.19697 0.0
H3071 H 0.85669 0.84547 0.22482 0.0
C3072 C 0.88937 0.773 0.17153 0.0
C3073 C 0.90968 0.77026 0.16788 0.0
C3074 C 0.88299 0.78613 0.18619 0.0
C3075 C 0.89681 0.79648 0.19775 0.0
C3076 C 0.91712 0.79414 0.19379 0.0
C3077 C 0.92351 0.78128 0.17882 0.0
C3078 C 0.89076 0.81749 0.24944 0.0
C3079 C 0.87591 0.83177 0.24652 0.0
C3080 C 0.89785 0.80633 0.23349 0.0
C3081 C 0.88996 0.809 0.21442 0.0
C3082 C 0.87499 0.82315 0.21154 0.0
C3083 C 0.86817 0.83457 0.22741 0.0
H3084 H 0.22164 0.8837 0.17336 0.0
H3085 H 0.20503 0.94547 0.17319 0.0
H3086 H 0.20309 0.87871 0.20378 0.0
H3087 H 0.18668 0.94058 0.20404 0.0
H3088 H 0.13772 0.91506 0.24593 0.0
H3089 H 0.15777 0.92462 0.21753 0.0
H3090 H 0.205 0.88678 0.23844 0.0
H3091 H 0.18444 0.87659 0.26634 0.0
C3092 C 0.21395 0.89622 0.17983 0.0
C3093 C 0.21481 0.91498 0.17093 0.0
C3094 C 0.20352 0.89342 0.19741 0.0
C3095 C 0.19374 0.90934 0.20661 0.0
C3096 C 0.19405 0.92801 0.19735 0.0
C3097 C 0.20445 0.93079 0.17963 0.0
C3098 C 0.1525 0.90904 0.24456 0.0
C3099 C 0.15936 0.89481 0.25811 0.0
C3100 C 0.16405 0.91459 0.22835 0.0
C3101 C 0.18281 0.90609 0.22543 0.0
C3102 C 0.19037 0.89319 0.23998 0.0
C3103 C 0.17875 0.88758 0.25615 0.0
H3104 H 0.11815 0.76649 0.82353 0.0
H3105 H 0.059 0.79085 0.82426 0.0
H3106 H 0.12646 0.78717 0.79528 0.0
H3107 H 0.06718 0.81138 0.7956 0.0
H3108 H 0.09742 0.86022 0.75869 0.0
H3109 H 0.08692 0.83915 0.78587 0.0
H3110 H 0.11952 0.79027 0.76041 0.0
H3111 H 0.13083 0.81182 0.73359 0.0
C3112 C 0.10691 0.77628 0.81761 0.0
C3113 C 0.0879 0.77702 0.82606 0.0
C3114 C 0.11162 0.78801 0.80129 0.0
C3115 C 0.09741 0.80071 0.79295 0.0
C3116 C 0.07851 0.80182 0.80172 0.0
C3117 C 0.07383 0.79013 0.81817 0.0
C3118 C 0.1024 0.84498 0.75891 0.0
C3119 C 0.11529 0.83776 0.74422 0.0
C3120 C 0.09616 0.83282 0.77438 0.0
C3121 C 0.10257 0.81308 0.77549 0.0
C3122 C 0.11465 0.80555 0.76022 0.0
C3123 C 0.12093 0.81777 0.74472 0.0
H3124 H 0.1818 0.13591 0.73945 0.0
H3125 H 0.1319 0.10694 0.76704 0.0
H3126 H 0.20328 0.12399 0.76578 0.0
H3127 H 0.15333 0.09562 0.79388 0.0
H3128 H 0.20487 0.06131 0.82545 0.0
H3129 H 0.18104 0.07268 0.80052 0.0
H3130 H 0.20865 0.13037 0.80061 0.0
H3131 H 0.23243 0.11902 0.82498 0.0
C3132 C 0.1754 0.127 0.75113 0.0
C3133 C 0.15511 0.12247 0.75114 0.0
C3134 C 0.18768 0.12034 0.76636 0.0
C3135 C 0.17998 0.109 0.78204 0.0
C3136 C 0.15972 0.10427 0.78199 0.0
C3137 C 0.14741 0.11097 0.76672 0.0
C3138 C 0.20565 0.07646 0.82027 0.0
C3139 C 0.2207 0.08916 0.82697 0.0
C3140 C 0.19201 0.08299 0.80603 0.0
C3141 C 0.19318 0.10233 0.79833 0.0
C3142 C 0.20766 0.11523 0.80582 0.0
C3143 C 0.22125 0.10872 0.81989 0.0
H3144 H 0.90662 0.16815 0.74539 0.0
H3145 H 0.85034 0.15764 0.77367 0.0
H3146 H 0.91628 0.19003 0.77284 0.0
H3147 H 0.8598 0.17961 0.80091 0.0
H3148 H 0.87637 0.23988 0.82994 0.0
H3149 H 0.86763 0.21744 0.80314 0.0
H3150 H 0.92226 0.18543 0.81185 0.0
H3151 H 0.93101 0.2078 0.83918 0.0
C3152 C 0.89627 0.17076 0.75735 0.0
C3153 C 0.8777 0.1614 0.75743 0.0
C3154 C 0.90185 0.18303 0.77311 0.0
C3155 C 0.88878 0.18641 0.78896 0.0
C3156 C 0.87011 0.17727 0.78884 0.0
C3157 C 0.86471 0.16475 0.77331 0.0
C3158 C 0.8865 0.22798 0.82631 0.0
C3159 C 0.90436 0.22554 0.83677 0.0
C3160 C 0.88145 0.21514 0.81096 0.0
C3161 C 0.89429 0.19978 0.80544 0.0
C3162 C 0.91219 0.19727 0.81579 0.0
C3163 C 0.91709 0.20994 0.83149 0.0
H3164 H 0.78864 0.93912 0.83191 0.0
H3165 H 0.7648 0.8798 0.82992 0.0
H3166 H 0.81119 0.9308 0.80474 0.0
H3167 H 0.78706 0.87163 0.80282 0.0
H3168 H 0.81234 0.87093 0.74033 0.0
H3169 H 0.79049 0.88116 0.76737 0.0
H3170 H 0.83995 0.90899 0.79686 0.0
H3171 H 0.86161 0.89909 0.76972 0.0
C3172 C 0.78837 0.92427 0.82586 0.0
C3173 C 0.77474 0.91021 0.83288 0.0
C3174 C 0.80122 0.91953 0.81027 0.0
C3175 C 0.80062 0.90068 0.80141 0.0
C3176 C 0.78751 0.88644 0.80898 0.0
C3177 C 0.7748 0.89112 0.82457 0.0
C3178 C 0.81844 0.87946 0.75245 0.0
C3179 C 0.83871 0.88404 0.75298 0.0
C3180 C 0.80601 0.88515 0.76802 0.0
C3181 C 0.81357 0.8957 0.78434 0.0
C3182 C 0.83368 0.90091 0.7845 0.0
C3183 C 0.84612 0.89508 0.76903 0.0
H3184 H 0.27175 0.10951 0.17868 0.0
H3185 H 0.22567 0.1094 0.13412 0.0
H3186 H 0.24835 0.09612 0.20263 0.0
H3187 H 0.20232 0.09672 0.15832 0.0
H3188 H 0.16419 0.09857 0.21704 0.0
H3189 H 0.18653 0.10954 0.19073 0.0
H3190 H 0.22837 0.06407 0.20713 0.0
H3191 H 0.20613 0.05295 0.23325 0.0
C3192 C 0.25676 0.1066 0.17388 0.0
C3193 C 0.25075 0.11073 0.15436 0.0
C3194 C 0.24333 0.09894 0.18765 0.0
C3195 C 0.22353 0.09544 0.1823 0.0
C3196 C 0.21745 0.09951 0.16288 0.0
C3197 C 0.23091 0.10691 0.14903 0.0
C3198 C 0.17801 0.09072 0.21484 0.0
C3199 C 0.1834 0.07494 0.22732 0.0
C3200 C 0.19078 0.09699 0.19978 0.0
C3201 C 0.20925 0.08777 0.19708 0.0
C3202 C 0.21433 0.0716 0.20908 0.0
C3203 C 0.20149 0.06516 0.22394 0.0
H3204 H 0.89431 0.2643 0.1839 0.0
H3205 H 0.86185 0.22089 0.14996 0.0
H3206 H 0.90782 0.23799 0.20455 0.0
H3207 H 0.87605 0.19451 0.17002 0.0
H3208 H 0.88753 0.15668 0.22638 0.0
H3209 H 0.8746 0.18088 0.20299 0.0
H3210 H 0.93112 0.21085 0.20277 0.0
H3211 H 0.94391 0.18693 0.22651 0.0
C3212 C 0.89 0.24918 0.18087 0.0
C3213 C 0.87703 0.24475 0.16522 0.0
C3214 C 0.89799 0.23403 0.19252 0.0
C3215 C 0.89321 0.21409 0.1888 0.0
C3216 C 0.88001 0.20969 0.17334 0.0
C3217 C 0.87201 0.22483 0.16171 0.0
C3218 C 0.89735 0.16816 0.22103 0.0
C3219 C 0.91671 0.16998 0.2285 0.0
C3220 C 0.88991 0.18209 0.20762 0.0
C3221 C 0.9017 0.19805 0.2013 0.0
C3222 C 0.92147 0.19905 0.20775 0.0
C3223 C 0.92887 0.1852 0.2212 0.0
H3224 H 0.73351 0.8987 0.18116 0.0
H3225 H 0.77802 0.8654 0.14944 0.0
H3226 H 0.75862 0.90973 0.20465 0.0
H3227 H 0.8032 0.87717 0.17225 0.0
H3228 H 0.83655 0.88188 0.23154 0.0
H3229 H 0.81324 0.87241 0.20589 0.0
H3230 H 0.7874 0.93093 0.20761 0.0
H3231 H 0.81051 0.94032 0.23372 0.0
C3232 C 0.74862 0.89373 0.17917 0.0
C3233 C 0.75369 0.88115 0.16337 0.0
C3234 C 0.76309 0.90029 0.19247 0.0
C3235 C 0.78298 0.89443 0.19029 0.0
C3236 C 0.78803 0.88186 0.17449 0.0
C3237 C 0.77357 0.87527 0.16125 0.0
C3238 C 0.82616 0.89288 0.22626 0.0
C3239 C 0.82537 0.91184 0.23483 0.0
C3240 C 0.81275 0.88743 0.21148 0.0
C3241 C 0.79827 0.90083 0.20482 0.0
C3242 C 0.7981 0.92011 0.2127 0.0
C3243 C 0.81149 0.92555 0.22753 0.0
H3244 H 0.08816 0.81296 0.23201 0.0
H3245 H 0.14535 0.83541 0.21421 0.0
H3246 H 0.09061 0.78698 0.20683 0.0
H3247 H 0.14776 0.80958 0.18915 0.0
H3248 H 0.13883 0.77087 0.13549 0.0
H3249 H 0.13203 0.79815 0.1579 0.0
H3250 H 0.11275 0.75674 0.20262 0.0
H3251 H 0.11921 0.72924 0.17988 0.0
C3252 C 0.10106 0.81258 0.22249 0.0
C3253 C 0.11662 0.82616 0.22511 0.0
C3254 C 0.10254 0.79761 0.20823 0.0
C3255 C 0.11943 0.79619 0.19615 0.0
C3256 C 0.13451 0.81036 0.19817 0.0
C3257 C 0.13316 0.82512 0.21255 0.0
C3258 C 0.1329 0.76751 0.14996 0.0
C3259 C 0.12961 0.74782 0.15588 0.0
C3260 C 0.12913 0.78318 0.16286 0.0
C3261 C 0.12189 0.77958 0.182 0.0
C3262 C 0.11817 0.75996 0.18786 0.0
C3263 C 0.12208 0.74421 0.17495 0.0
H3264 H 0.16749 0.93422 0.79017 0.0
H3265 H 0.16822 0.8764 0.7628 0.0
H3266 H 0.1932 0.92342 0.81337 0.0
H3267 H 0.19359 0.86562 0.78594 0.0
H3268 H 0.25528 0.86106 0.81252 0.0
H3269 H 0.22856 0.8724 0.79106 0.0
H3270 H 0.20046 0.90093 0.84097 0.0
H3271 H 0.22756 0.8902 0.86226 0.0
C3272 C 0.17291 0.91915 0.78931 0.0
C3273 C 0.16603 0.90626 0.7745 0.0
C3274 C 0.18763 0.91295 0.80258 0.0
C3275 C 0.19568 0.89375 0.80128 0.0
C3276 C 0.1881 0.88066 0.78701 0.0
C3277 C 0.17348 0.88683 0.7738 0.0
C3278 C 0.24351 0.86989 0.81887 0.0
C3279 C 0.24352 0.87458 0.83913 0.0
C3280 C 0.22806 0.87621 0.80663 0.0
C3281 C 0.21226 0.88743 0.81434 0.0
C3282 C 0.21242 0.89238 0.83454 0.0
C3283 C 0.22785 0.88601 0.8468 0.0
H3284 H 0.0537 0.20147 0.75356 0.0
H3285 H 0.09809 0.15941 0.77263 0.0
H3286 H 0.06299 0.22353 0.78049 0.0
H3287 H 0.10719 0.18159 0.7998 0.0
H3288 H 0.10446 0.22134 0.85587 0.0
H3289 H 0.09287 0.19784 0.8313 0.0
H3290 H 0.09474 0.2434 0.78659 0.0
H3291 H 0.10704 0.26696 0.81092 0.0
C3292 C 0.06522 0.19674 0.76367 0.0
C3293 C 0.07528 0.17871 0.7608 0.0
C3294 C 0.0706 0.20948 0.77902 0.0
C3295 C 0.08598 0.20439 0.79203 0.0
C3296 C 0.09527 0.18587 0.78996 0.0
C3297 C 0.09004 0.17317 0.77442 0.0
C3298 C 0.10272 0.22648 0.84082 0.0
C3299 C 0.10695 0.24624 0.83551 0.0
C3300 C 0.09595 0.21291 0.82675 0.0
C3301 C 0.09289 0.21879 0.80709 0.0
C3302 C 0.09676 0.23852 0.80174 0.0
C3303 C 0.1038 0.25205 0.81575 0.0
H3304 H 0.82528 0.12066 0.77078 0.0
H3305 H 0.81443 0.06068 0.79028 0.0
H3306 H 0.79716 0.13213 0.79012 0.0
H3307 H 0.78611 0.07233 0.80979 0.0
H3308 H 0.72399 0.0994 0.82329 0.0
H3309 H 0.75189 0.08758 0.80309 0.0
H3310 H 0.78823 0.13503 0.82584 0.0
H3311 H 0.76046 0.14676 0.84573 0.0
C3312 C 0.81702 0.10993 0.77937 0.0
C3313 C 0.82215 0.08975 0.77907 0.0
C3314 C 0.80089 0.11653 0.79044 0.0
C3315 C 0.78939 0.10311 0.80136 0.0
C3316 C 0.79461 0.08295 0.8013 0.0
C3317 C 0.81094 0.07634 0.79034 0.0
C3318 C 0.73787 0.10741 0.82363 0.0
C3319 C 0.74014 0.12398 0.83598 0.0
C3320 C 0.75387 0.10054 0.81233 0.0
C3321 C 0.77224 0.11033 0.81301 0.0
C3322 C 0.77424 0.12724 0.82494 0.0
C3323 C 0.75839 0.13392 0.83635 0.0
H3324 H 0.87892 0.82332 0.7648 0.0
H3325 H 0.93693 0.82682 0.79162 0.0
H3326 H 0.87058 0.79565 0.78622 0.0
H3327 H 0.92842 0.79905 0.81331 0.0
H3328 H 0.89475 0.7648 0.86261 0.0
H3329 H 0.90536 0.7914 0.84088 0.0
H3330 H 0.88046 0.76039 0.79079 0.0
H3331 H 0.86949 0.73373 0.81277 0.0
C3332 C 0.88994 0.81814 0.77523 0.0
C3333 C 0.90869 0.82713 0.77634 0.0
C3334 C 0.88516 0.80221 0.78744 0.0
C3335 C 0.89894 0.79498 0.80121 0.0
C3336 C 0.91749 0.80433 0.80281 0.0
C3337 C 0.92234 0.82026 0.79046 0.0
C3338 C 0.89154 0.76358 0.84699 0.0
C3339 C 0.88108 0.74721 0.83945 0.0
C3340 C 0.8978 0.77877 0.8345 0.0
C3341 C 0.89365 0.77805 0.81416 0.0
C3342 C 0.88367 0.76144 0.80648 0.0
C3343 C 0.87754 0.74611 0.81899 0.0
H3344 H 0.16887 0.26677 0.08989 0.0
H3345 H 0.15809 0.23572 0.14464 0.0
H3346 H 0.19098 0.23994 0.0791 0.0
H3347 H 0.17973 0.20892 0.13391 0.0
H3348 H 0.23506 0.17454 0.11684 0.0
H3349 H 0.21476 0.20244 0.12715 0.0
H3350 H 0.18744 0.20408 0.06933 0.0
H3351 H 0.20815 0.17621 0.0588 0.0
C3352 C 0.17153 0.25438 0.09971 0.0
C3353 C 0.1619 0.25328 0.1181 0.0
C3354 C 0.18391 0.23893 0.09346 0.0
C3355 C 0.187 0.22229 0.10563 0.0
C3356 C 0.17779 0.22159 0.12426 0.0
C3357 C 0.16536 0.23687 0.13038 0.0
C3358 C 0.22472 0.18081 0.1063 0.0
C3359 C 0.22323 0.17318 0.08698 0.0
C3360 C 0.21304 0.19677 0.11224 0.0
C3361 C 0.19958 0.20552 0.09902 0.0
C3362 C 0.19789 0.19779 0.07975 0.0
C3363 C 0.20955 0.18169 0.07381 0.0
H3364 H 0.22108 0.83614 0.89334 0.0
H3365 H 0.2389 0.79382 0.93798 0.0
H3366 H 0.19429 0.81392 0.8832 0.0
H3367 H 0.21237 0.77175 0.92767 0.0
H3368 H 0.18303 0.72844 0.88312 0.0
H3369 H 0.20717 0.75208 0.89562 0.0
H3370 H 0.16237 0.79761 0.89675 0.0
H3371 H 0.13798 0.77404 0.88495 0.0
C3372 C 0.21911 0.8223 0.9012 0.0
C3373 C 0.23224 0.81671 0.91637 0.0
C3374 C 0.20379 0.80959 0.89537 0.0
C3375 C 0.20148 0.79101 0.90448 0.0
C3376 C 0.21404 0.78584 0.9202 0.0
C3377 C 0.22915 0.79858 0.92616 0.0
C3378 C 0.17815 0.74337 0.88621 0.0
C3379 C 0.1584 0.74913 0.88287 0.0
C3380 C 0.19204 0.75694 0.89336 0.0
C3381 C 0.18661 0.77666 0.89714 0.0
C3382 C 0.16699 0.78254 0.89376 0.0
C3383 C 0.15301 0.76893 0.88688 0.0
H3384 H 0.26349 0.17222 0.89653 0.0
H3385 H 0.22842 0.15104 0.84755 0.0
H3386 H 0.23538 0.19254 0.90776 0.0
H3387 H 0.20048 0.1711 0.85863 0.0
H3388 H 0.16366 0.22664 0.87296 0.0
H3389 H 0.19189 0.20702 0.86195 0.0
H3390 H 0.20044 0.18567 0.92162 0.0
H3391 H 0.17207 0.20547 0.93274 0.0
C3392 C 0.24988 0.17221 0.88804 0.0
C3393 C 0.24804 0.16018 0.87119 0.0
C3394 C 0.23377 0.18357 0.89456 0.0
C3395 C 0.21573 0.18327 0.88411 0.0
C3396 C 0.2142 0.17169 0.86692 0.0
C3397 C 0.23014 0.16021 0.8606 0.0
C3398 C 0.17144 0.21762 0.88371 0.0
C3399 C 0.16565 0.21753 0.9037 0.0
C3400 C 0.1876 0.20639 0.8774 0.0
C3401 C 0.19844 0.19496 0.89097 0.0
C3402 C 0.19247 0.19457 0.91092 0.0
C3403 C 0.1761 0.20566 0.91721 0.0
H3404 H 0.78036 0.16744 0.93925 0.0
H3405 H 0.75724 0.17208 0.87976 0.0
H3406 H 0.80508 0.19283 0.93149 0.0
H3407 H 0.7816 0.19745 0.87215 0.0
H3408 H 0.83904 0.23036 0.85983 0.0
H3409 H 0.81743 0.20254 0.86783 0.0
H3410 H 0.80415 0.22914 0.92448 0.0
H3411 H 0.82615 0.25673 0.91666 0.0
C3412 C 0.78071 0.17369 0.92449 0.0
C3413 C 0.76679 0.16787 0.91017 0.0
C3414 C 0.79472 0.18834 0.9201 0.0
C3415 C 0.79519 0.19722 0.90125 0.0
C3416 C 0.78172 0.19081 0.88676 0.0
C3417 C 0.76767 0.17636 0.89118 0.0
C3418 C 0.8316 0.2302 0.87403 0.0
C3419 C 0.83423 0.2458 0.88756 0.0
C3420 C 0.81915 0.21433 0.87857 0.0
C3421 C 0.80912 0.21364 0.8968 0.0
C3422 C 0.81185 0.22915 0.9104 0.0
C3423 C 0.82422 0.2451 0.9058 0.0
H3424 H 0.73356 0.81301 0.87519 0.0
H3425 H 0.76647 0.86145 0.90084 0.0
H3426 H 0.75978 0.79012 0.88493 0.0
H3427 H 0.79301 0.83875 0.90988 0.0
H3428 H 0.8287 0.78805 0.93869 0.0
H3429 H 0.80168 0.8111 0.93147 0.0
H3430 H 0.79356 0.78357 0.87428 0.0
H3431 H 0.82027 0.76057 0.88151 0.0
C3432 C 0.7463 0.81874 0.88303 0.0
C3433 C 0.74802 0.83907 0.88703 0.0
C3434 C 0.76144 0.80568 0.88841 0.0
C3435 C 0.77861 0.81266 0.89796 0.0
C3436 C 0.77998 0.83288 0.9026 0.0
C3437 C 0.76486 0.84593 0.8972 0.0
C3438 C 0.82123 0.78705 0.92452 0.0
C3439 C 0.8265 0.77236 0.91076 0.0
C3440 C 0.80575 0.80024 0.92039 0.0
C3441 C 0.79529 0.79899 0.9024 0.0
C3442 C 0.80097 0.78462 0.88847 0.0
C3443 C 0.81637 0.77149 0.89259 0.0
H3444 H 0.81323 0.73273 0.12919 0.0
H3445 H 0.86221 0.7601 0.09857 0.0
H3446 H 0.79174 0.76005 0.11911 0.0
H3447 H 0.84108 0.78774 0.08923 0.0
H3448 H 0.79221 0.82634 0.06179 0.0
H3449 H 0.81321 0.79776 0.06909 0.0
H3450 H 0.78835 0.79467 0.12799 0.0
H3451 H 0.76729 0.82291 0.12062 0.0
C3452 C 0.81935 0.74447 0.12017 0.0
C3453 C 0.83946 0.74439 0.11492 0.0
C3454 C 0.80713 0.76025 0.1146 0.0
C3455 C 0.81478 0.77623 0.1036 0.0
C3456 C 0.83469 0.77568 0.09764 0.0
C3457 C 0.84687 0.75994 0.10321 0.0
C3458 C 0.7914 0.81965 0.07634 0.0
C3459 C 0.778 0.82678 0.09057 0.0
C3460 C 0.80339 0.80326 0.08053 0.0
C3461 C 0.80225 0.79375 0.09904 0.0
C3462 C 0.78923 0.8013 0.11342 0.0
C3463 C 0.77726 0.81759 0.10923 0.0
H3464 H 0.15901 0.7671 0.10623 0.0
H3465 H 0.18912 0.76849 0.04981 0.0
H3466 H 0.17991 0.79384 0.11815 0.0
H3467 H 0.20983 0.79558 0.06161 0.0
H3468 H 0.26063 0.82114 0.0988 0.0
H3469 H 0.23685 0.79783 0.08507 0.0
H3470 H 0.18944 0.82819 0.11552 0.0
H3471 H 0.21338 0.85101 0.12993 0.0
C3472 C 0.16971 0.77345 0.09617 0.0
C3473 C 0.17248 0.76548 0.07713 0.0
C3474 C 0.18175 0.78882 0.10302 0.0
C3475 C 0.19679 0.79665 0.09094 0.0
C3476 C 0.19869 0.78956 0.07145 0.0
C3477 C 0.18668 0.77415 0.06462 0.0
C3478 C 0.24519 0.82273 0.10275 0.0
C3479 C 0.23897 0.83793 0.11554 0.0
C3480 C 0.23148 0.80955 0.09462 0.0
C3481 C 0.21118 0.81122 0.09905 0.0
C3482 C 0.20495 0.82641 0.11186 0.0
C3483 C 0.21868 0.8396 0.12 0.0
H3484 H 0.75687 0.14013 0.09441 0.0
H3485 H 0.7303 0.18628 0.12977 0.0
H3486 H 0.78363 0.16239 0.08514 0.0
H3487 H 0.75671 0.20895 0.11986 0.0
H3488 H 0.81978 0.23322 0.12145 0.0
H3489 H 0.7916 0.21179 0.12783 0.0
H3490 H 0.79296 0.19182 0.06704 0.0
H3491 H 0.82149 0.2132 0.06069 0.0
C3492 C 0.75665 0.15514 0.10003 0.0
C3493 C 0.74168 0.16137 0.11311 0.0
C3494 C 0.77189 0.16797 0.09455 0.0
C3495 C 0.77248 0.18738 0.10197 0.0
C3496 C 0.7569 0.19395 0.1142 0.0
C3497 C 0.74163 0.18108 0.11969 0.0
C3498 C 0.81409 0.22426 0.10942 0.0
C3499 C 0.8228 0.22498 0.09052 0.0
C3500 C 0.79782 0.21209 0.11305 0.0
C3501 C 0.78981 0.20032 0.09788 0.0
C3502 C 0.79881 0.20066 0.07907 0.0
C3503 C 0.81519 0.21286 0.07544 0.0
H3504 H 0.56026 0.70624 0.6752 0.0
H3505 H 0.62081 0.72486 0.66629 0.0
H3506 H 0.5714 0.6828 0.70064 0.0
H3507 H 0.63183 0.70157 0.69143 0.0
H3508 H 0.64584 0.64411 0.72447 0.0
H3509 H 0.63368 0.66487 0.69744 0.0
H3510 H 0.58688 0.68665 0.73522 0.0
H3511 H 0.59903 0.6657 0.76225 0.0
C3512 C 0.57593 0.70509 0.67842 0.0
C3513 C 0.58966 0.71737 0.66877 0.0
C3514 C 0.58228 0.69184 0.69308 0.0
C3515 C 0.60246 0.69046 0.69805 0.0
C3516 C 0.61621 0.70222 0.68783 0.0
C3517 C 0.60987 0.71559 0.67345 0.0
C3518 C 0.63296 0.65333 0.72695 0.0
C3519 C 0.62345 0.65343 0.74546 0.0
C3520 C 0.62603 0.66522 0.71153 0.0
C3521 C 0.6093 0.6773 0.71422 0.0
C3522 C 0.59969 0.67733 0.73269 0.0
C3523 C 0.60679 0.66558 0.74822 0.0
H3524 H 0.33032 0.59282 0.75736 0.0
H3525 H 0.3527 0.64072 0.72152 0.0
H3526 H 0.30857 0.58263 0.73018 0.0
H3527 H 0.33088 0.63061 0.69434 0.0
H3528 H 0.26792 0.62077 0.66584 0.0
H3529 H 0.29283 0.63003 0.69032 0.0
H3530 H 0.31188 0.56912 0.69413 0.0
H3531 H 0.287 0.55981 0.66933 0.0
C3532 C 0.33049 0.6012 0.7437 0.0
C3533 C 0.34304 0.61764 0.74155 0.0
C3534 C 0.31825 0.59525 0.7281 0.0
C3535 C 0.31811 0.60582 0.71018 0.0
C3536 C 0.33068 0.62225 0.70803 0.0
C3537 C 0.34316 0.62799 0.72351 0.0
C3538 C 0.27759 0.60938 0.67172 0.0
C3539 C 0.27552 0.58955 0.66573 0.0
C3540 C 0.29188 0.61471 0.68566 0.0
C3541 C 0.30419 0.60027 0.69415 0.0
C3542 C 0.30246 0.5805 0.68786 0.0
C3543 C 0.28836 0.57521 0.67361 0.0
H3544 H 0.4329 0.28764 0.67479 0.0
H3545 H 0.37278 0.26828 0.66456 0.0
H3546 H 0.42122 0.30929 0.70156 0.0
H3547 H 0.3612 0.29 0.69099 0.0
H3548 H 0.34799 0.34834 0.72493 0.0
H3549 H 0.36003 0.32773 0.69766 0.0
H3550 H 0.40441 0.30263 0.73626 0.0
H3551 H 0.39218 0.32323 0.76363 0.0
C3552 C 0.4172 0.28824 0.67805 0.0
C3553 C 0.40375 0.27632 0.66759 0.0
C3554 C 0.41056 0.30045 0.69345 0.0
C3555 C 0.39034 0.3012 0.69834 0.0
C3556 C 0.37685 0.28974 0.68746 0.0
C3557 C 0.3835 0.27731 0.67235 0.0
C3558 C 0.36027 0.33835 0.72755 0.0
C3559 C 0.36913 0.33726 0.74634 0.0
C3560 C 0.36712 0.32657 0.71201 0.0
C3561 C 0.3832 0.31371 0.71487 0.0
C3562 C 0.39209 0.31258 0.73366 0.0
C3563 C 0.38499 0.32414 0.74933 0.0
H3564 H 0.72882 0.37734 0.66303 0.0
H3565 H 0.71087 0.43869 0.66575 0.0
H3566 H 0.70494 0.36914 0.68869 0.0
H3567 H 0.68662 0.43036 0.69146 0.0
H3568 H 0.6658 0.40972 0.75428 0.0
H3569 H 0.68786 0.41905 0.72702 0.0
H3570 H 0.66905 0.36746 0.69423 0.0
H3571 H 0.64749 0.35797 0.72155 0.0
C3572 C 0.71958 0.38905 0.66896 0.0
C3573 C 0.72175 0.40868 0.66242 0.0
C3574 C 0.70584 0.38432 0.68362 0.0
C3575 C 0.69397 0.39912 0.69216 0.0
C3576 C 0.69574 0.4187 0.68528 0.0
C3577 C 0.70944 0.42342 0.67043 0.0
C3578 C 0.66658 0.40032 0.74132 0.0
C3579 C 0.65502 0.38307 0.74007 0.0
C3580 C 0.67897 0.40579 0.72561 0.0
C3581 C 0.68015 0.394 0.70847 0.0
C3582 C 0.66857 0.37677 0.70729 0.0
C3583 C 0.65614 0.3714 0.72288 0.0
H3584 H 0.55925 0.28833 0.33044 0.0
H3585 H 0.6175 0.26282 0.32306 0.0
H3586 H 0.56582 0.31096 0.30293 0.0
H3587 H 0.624 0.2853 0.29575 0.0
H3588 H 0.6223 0.31379 0.23513 0.0
H3589 H 0.61283 0.29081 0.26147 0.0
H3590 H 0.58719 0.33923 0.29451 0.0
H3591 H 0.59614 0.36197 0.26804 0.0
C3592 C 0.57349 0.28766 0.32308 0.0
C3593 C 0.58777 0.27365 0.32881 0.0
C3594 C 0.57724 0.30058 0.3073 0.0
C3595 C 0.59532 0.2997 0.29697 0.0
C3596 C 0.60973 0.286 0.30306 0.0
C3597 C 0.60602 0.27318 0.3188 0.0
C3598 C 0.61436 0.31942 0.24787 0.0
C3599 C 0.61017 0.33971 0.2496 0.0
C3600 C 0.60912 0.30633 0.26304 0.0
C3601 C 0.59946 0.31326 0.28017 0.0
C3602 C 0.59455 0.33342 0.2815 0.0
C3603 C 0.59988 0.34648 0.26641 0.0
H3604 H 0.70527 0.56211 0.32554 0.0
H3605 H 0.73142 0.62042 0.32295 0.0
H3606 H 0.68422 0.57042 0.29724 0.0
H3607 H 0.71049 0.62867 0.29484 0.0
H3608 H 0.68518 0.63067 0.23264 0.0
H3609 H 0.70669 0.61985 0.25975 0.0
H3610 H 0.65663 0.59215 0.28835 0.0
H3611 H 0.63545 0.60245 0.26116 0.0
C3612 C 0.70638 0.57674 0.31908 0.0
C3613 C 0.72014 0.59052 0.32637 0.0
C3614 C 0.69438 0.58149 0.30284 0.0
C3615 C 0.69591 0.60012 0.2936 0.0
C3616 C 0.70931 0.61403 0.30127 0.0
C3617 C 0.72123 0.60932 0.31747 0.0
C3618 C 0.67889 0.62202 0.24457 0.0
C3619 C 0.65858 0.61761 0.24484 0.0
C3620 C 0.69113 0.61599 0.26019 0.0
C3621 C 0.68331 0.6053 0.27631 0.0
C3622 C 0.66315 0.60027 0.27615 0.0
C3623 C 0.65095 0.60637 0.26063 0.0
H3624 H 0.42816 0.71017 0.33717 0.0
H3625 H 0.38264 0.74834 0.31337 0.0
H3626 H 0.42241 0.68668 0.31025 0.0
H3627 H 0.37653 0.72477 0.28693 0.0
H3628 H 0.39029 0.63964 0.27328 0.0
H3629 H 0.39842 0.66337 0.29895 0.0
H3630 H 0.39015 0.71123 0.2573 0.0
H3631 H 0.38088 0.68744 0.23181 0.0
C3632 C 0.41688 0.7135 0.32626 0.0
C3633 C 0.40593 0.73115 0.32739 0.0
C3634 C 0.41352 0.70002 0.31086 0.0
C3635 C 0.39904 0.70384 0.29633 0.0
C3636 C 0.38808 0.7215 0.29757 0.0
C3637 C 0.39152 0.73499 0.31284 0.0
C3638 C 0.38996 0.65521 0.26957 0.0
C3639 C 0.38457 0.66159 0.25046 0.0
C3640 C 0.39496 0.66885 0.28428 0.0
C3641 C 0.39486 0.68927 0.28029 0.0
C3642 C 0.39006 0.69564 0.26102 0.0
C3643 C 0.38495 0.68197 0.2463 0.0
H3644 H 0.26524 0.37638 0.32389 0.0
H3645 H 0.28569 0.43607 0.3134 0.0
H3646 H 0.28695 0.36426 0.29766 0.0
H3647 H 0.30736 0.42385 0.28692 0.0
H3648 H 0.32263 0.39497 0.22563 0.0
H3649 H 0.30132 0.40726 0.2524 0.0
H3650 H 0.32447 0.36219 0.29139 0.0
H3651 H 0.34577 0.35005 0.26469 0.0
C3652 C 0.27448 0.38689 0.31605 0.0
C3653 C 0.2738 0.40717 0.32068 0.0
C3654 C 0.28691 0.37993 0.30108 0.0
C3655 C 0.2987 0.39315 0.29022 0.0
C3656 C 0.29824 0.41341 0.29498 0.0
C3657 C 0.28602 0.42035 0.31022 0.0
C3658 C 0.32292 0.3876 0.23986 0.0
C3659 C 0.33573 0.37155 0.24315 0.0
C3660 C 0.31096 0.39474 0.2552 0.0
C3661 C 0.31137 0.38572 0.27395 0.0
C3662 C 0.32385 0.36937 0.27706 0.0
C3663 C 0.33602 0.36247 0.26185 0.0
H3664 H 0.70287 0.55312 0.73124 0.0
H3665 H 0.67049 0.60819 0.72711 0.0
H3666 H 0.72621 0.56494 0.70643 0.0
H3667 H 0.69408 0.62017 0.70265 0.0
H3668 H 0.7305 0.62872 0.64658 0.0
H3669 H 0.70596 0.61578 0.66944 0.0
H3670 H 0.75256 0.58914 0.7043 0.0
H3671 H 0.77714 0.60136 0.68078 0.0
C3672 C 0.70063 0.56769 0.72492 0.0
C3673 C 0.68483 0.57972 0.7312 0.0
C3674 C 0.71413 0.57454 0.71084 0.0
C3675 C 0.7122 0.59361 0.70274 0.0
C3676 C 0.69595 0.60535 0.70847 0.0
C3677 C 0.68239 0.59847 0.72251 0.0
C3678 C 0.73555 0.61991 0.65898 0.0
C3679 C 0.75582 0.6159 0.66172 0.0
C3680 C 0.72145 0.61269 0.67224 0.0
C3681 C 0.72725 0.60134 0.68866 0.0
C3682 C 0.74755 0.59757 0.69161 0.0
C3683 C 0.76169 0.60478 0.67829 0.0
H3684 H 0.44 0.70173 0.73996 0.0
H3685 H 0.39662 0.65923 0.71965 0.0
H3686 H 0.42919 0.72491 0.71463 0.0
H3687 H 0.38598 0.68259 0.69404 0.0
H3688 H 0.38788 0.72501 0.63956 0.0
H3689 H 0.39964 0.70064 0.66312 0.0
H3690 H 0.39675 0.74413 0.70982 0.0
H3691 H 0.38427 0.76859 0.68648 0.0
C3692 C 0.42834 0.69718 0.72993 0.0
C3693 C 0.41908 0.67862 0.73196 0.0
C3694 C 0.42208 0.71057 0.71551 0.0
C3695 C 0.40659 0.70565 0.70258 0.0
C3696 C 0.39797 0.68674 0.70386 0.0
C3697 C 0.40408 0.67337 0.7185 0.0
C3698 C 0.38939 0.72952 0.65483 0.0
C3699 C 0.38489 0.749 0.66096 0.0
C3700 C 0.39625 0.71544 0.66833 0.0
C3701 C 0.39912 0.7205 0.68825 0.0
C3702 C 0.39486 0.73989 0.69445 0.0
C3703 C 0.38773 0.75394 0.68102 0.0
H3704 H 0.33051 0.38472 0.72565 0.0
H3705 H 0.30181 0.44192 0.72425 0.0
H3706 H 0.30947 0.37352 0.69856 0.0
H3707 H 0.28094 0.43074 0.69705 0.0
H3708 H 0.22925 0.39437 0.67203 0.0
H3709 H 0.25342 0.40702 0.69554 0.0
H3710 H 0.30032 0.37793 0.66317 0.0
H3711 H 0.27592 0.36481 0.63978 0.0
C3712 C 0.32004 0.39506 0.71932 0.0
C3713 C 0.31774 0.41417 0.7273 0.0
C3714 C 0.30798 0.38862 0.70375 0.0
C3715 C 0.29334 0.40115 0.69586 0.0
C3716 C 0.29181 0.42061 0.70309 0.0
C3717 C 0.30388 0.42705 0.71861 0.0
C3718 C 0.24468 0.39051 0.66999 0.0
C3719 C 0.25064 0.37848 0.65409 0.0
C3720 C 0.25858 0.398 0.68332 0.0
C3721 C 0.27882 0.3936 0.68114 0.0
C3722 C 0.28483 0.38153 0.66527 0.0
C3723 C 0.27089 0.37413 0.65182 0.0
H3724 H 0.59328 0.22808 0.67168 0.0
H3725 H 0.64536 0.2614 0.65563 0.0
H3726 H 0.58185 0.25582 0.69212 0.0
H3727 H 0.6339 0.28916 0.67572 0.0
H3728 H 0.61754 0.32456 0.73132 0.0
H3729 H 0.6286 0.29682 0.71118 0.0
H3730 H 0.56976 0.29096 0.68679 0.0
H3731 H 0.55853 0.31878 0.70724 0.0
C3732 C 0.60238 0.24123 0.67275 0.0
C3733 C 0.62024 0.2426 0.66217 0.0
C3734 C 0.59572 0.25718 0.68419 0.0
C3735 C 0.60694 0.27468 0.68542 0.0
C3736 C 0.62499 0.27583 0.67515 0.0
C3737 C 0.63152 0.26 0.66361 0.0
C3738 C 0.60693 0.3174 0.72165 0.0
C3739 C 0.58713 0.3238 0.72091 0.0
C3740 C 0.61331 0.30157 0.71004 0.0
C3741 C 0.60003 0.29167 0.69749 0.0
C3742 C 0.58026 0.29819 0.69652 0.0
C3743 C 0.57389 0.31422 0.70805 0.0
H3744 H 0.73494 0.39894 0.35919 0.0
H3745 H 0.76103 0.36969 0.30867 0.0
H3746 H 0.70659 0.4086 0.33914 0.0
H3747 H 0.73296 0.38003 0.2883 0.0
H3748 H 0.66972 0.37901 0.26535 0.0
H3749 H 0.69817 0.37101 0.28592 0.0
H3750 H 0.69588 0.42947 0.31184 0.0
H3751 H 0.66713 0.43743 0.29127 0.0
C3752 C 0.73466 0.39466 0.34375 0.0
C3753 C 0.75008 0.38327 0.33557 0.0
C3754 C 0.7185 0.40039 0.3322 0.0
C3755 C 0.71739 0.3949 0.31218 0.0
C3756 C 0.7332 0.38418 0.30379 0.0
C3757 C 0.7494 0.37846 0.31536 0.0
C3758 C 0.67524 0.39015 0.27547 0.0
C3759 C 0.66629 0.40892 0.27657 0.0
C3760 C 0.69164 0.38561 0.28717 0.0
C3761 C 0.69952 0.39971 0.30027 0.0
C3762 C 0.69013 0.41826 0.30192 0.0
C3763 C 0.67364 0.42281 0.29019 0.0
H3764 H 0.61805 0.67321 0.26121 0.0
H3765 H 0.5576 0.67287 0.28222 0.0
H3766 H 0.62578 0.70029 0.2837 0.0
H3767 H 0.56546 0.70008 0.30497 0.0
H3768 H 0.58396 0.76406 0.3244 0.0
H3769 H 0.57545 0.73675 0.30188 0.0
H3770 H 0.62811 0.7054 0.32025 0.0
H3771 H 0.63659 0.73259 0.3424 0.0
C3772 C 0.60645 0.67884 0.27077 0.0
C3773 C 0.58722 0.67094 0.26999 0.0
C3774 C 0.6109 0.69431 0.28366 0.0
C3775 C 0.59619 0.70234 0.29598 0.0
C3776 C 0.577 0.69428 0.29545 0.0
C3777 C 0.57258 0.67859 0.28264 0.0
C3778 C 0.59377 0.75141 0.32335 0.0
C3779 C 0.61092 0.75038 0.33506 0.0
C3780 C 0.5888 0.73573 0.31071 0.0
C3781 C 0.6011 0.71895 0.30942 0.0
C3782 C 0.61842 0.71817 0.32088 0.0
C3783 C 0.62323 0.73368 0.33359 0.0
H3784 H 0.23861 0.64093 0.31246 0.0
H3785 H 0.25445 0.5949 0.35375 0.0
H3786 H 0.26606 0.63112 0.29099 0.0
H3787 H 0.2815 0.58456 0.33218 0.0
H3788 H 0.34198 0.58749 0.30161 0.0
H3789 H 0.31333 0.59561 0.32217 0.0
H3790 H 0.27864 0.60653 0.26946 0.0
H3791 H 0.30732 0.59909 0.24911 0.0
C3792 C 0.24772 0.62842 0.31667 0.0
C3793 C 0.24454 0.61875 0.33475 0.0
C3794 C 0.26347 0.62277 0.30443 0.0
C3795 C 0.27619 0.60715 0.30994 0.0
C3796 C 0.27237 0.59696 0.32768 0.0
C3797 C 0.2568 0.60276 0.33997 0.0
C3798 C 0.32821 0.5916 0.29448 0.0
C3799 C 0.32699 0.59287 0.27378 0.0
C3800 C 0.31173 0.59615 0.30623 0.0
C3801 C 0.29362 0.60182 0.29749 0.0
C3802 C 0.2924 0.60266 0.27674 0.0
C3803 C 0.30888 0.59833 0.26506 0.0
H3804 H 0.38195 0.32996 0.26312 0.0
H3805 H 0.44042 0.30428 0.26771 0.0
H3806 H 0.3697 0.30638 0.28747 0.0
H3807 H 0.42819 0.28088 0.29225 0.0
H3808 H 0.39434 0.22676 0.3148 0.0
H3809 H 0.40649 0.25192 0.2919 0.0
H3810 H 0.37156 0.29625 0.32206 0.0
H3811 H 0.35893 0.27098 0.3445 0.0
C3812 C 0.3923 0.31959 0.2696 0.0
C3813 C 0.41216 0.31898 0.26334 0.0
C3814 C 0.38526 0.30602 0.28357 0.0
C3815 C 0.39791 0.29155 0.29159 0.0
C3816 C 0.41796 0.29155 0.28602 0.0
C3817 C 0.42501 0.30511 0.27208 0.0
C3818 C 0.38907 0.24181 0.31637 0.0
C3819 C 0.37572 0.24686 0.33151 0.0
C3820 C 0.39623 0.2563 0.30343 0.0
C3821 C 0.39014 0.27615 0.30528 0.0
C3822 C 0.3765 0.28111 0.32018 0.0
C3823 C 0.3694 0.26664 0.33315 0.0
H3824 H 0.73321 0.66281 0.62182 0.0
H3825 H 0.71482 0.67039 0.56102 0.0
H3826 H 0.71057 0.68906 0.63202 0.0
H3827 H 0.69216 0.6969 0.57129 0.0
H3828 H 0.6756 0.75952 0.59739 0.0
H3829 H 0.69715 0.73225 0.58649 0.0
H3830 H 0.67325 0.69507 0.63268 0.0
H3831 H 0.65186 0.72218 0.64343 0.0
C3832 C 0.72413 0.66995 0.61068 0.0
C3833 C 0.72569 0.66455 0.59064 0.0
C3834 C 0.7112 0.68496 0.61652 0.0
C3835 C 0.69976 0.69508 0.60241 0.0
C3836 C 0.70099 0.68943 0.58241 0.0
C3837 C 0.71374 0.67414 0.57658 0.0
C3838 C 0.67517 0.74556 0.60525 0.0
C3839 C 0.66214 0.74289 0.62123 0.0
C3840 C 0.68727 0.72993 0.59891 0.0
C3841 C 0.68673 0.71156 0.6087 0.0
C3842 C 0.67397 0.70908 0.6249 0.0
C3843 C 0.66172 0.72454 0.63101 0.0
H3844 H 0.67347 0.23674 0.40693 0.0
H3845 H 0.65174 0.27117 0.35767 0.0
H3846 H 0.69552 0.26406 0.41623 0.0
H3847 H 0.67346 0.29844 0.36702 0.0
H3848 H 0.73348 0.33011 0.37568 0.0
H3849 H 0.71001 0.30403 0.36742 0.0
H3850 H 0.69298 0.29974 0.42891 0.0
H3851 H 0.71667 0.32596 0.43728 0.0
C3852 C 0.67352 0.25008 0.39806 0.0
C3853 C 0.66096 0.25184 0.38157 0.0
C3854 C 0.68592 0.26578 0.4035 0.0
C3855 C 0.68613 0.28339 0.39238 0.0
C3856 C 0.67367 0.28503 0.37581 0.0
C3857 C 0.66118 0.26947 0.37052 0.0
C3858 C 0.72461 0.32374 0.38743 0.0
C3859 C 0.72691 0.33004 0.40713 0.0
C3860 C 0.71113 0.30885 0.38268 0.0
C3861 C 0.69976 0.29979 0.39754 0.0
C3862 C 0.70172 0.30635 0.41721 0.0
C3863 C 0.71509 0.32148 0.42196 0.0
H3864 H 0.75695 0.68785 0.37024 0.0
H3865 H 0.72529 0.63832 0.39532 0.0
H3866 H 0.72999 0.70993 0.38017 0.0
H3867 H 0.69824 0.66013 0.40467 0.0
H3868 H 0.66149 0.70916 0.43461 0.0
H3869 H 0.68932 0.68728 0.42688 0.0
H3870 H 0.69559 0.71543 0.36979 0.0
H3871 H 0.66798 0.73722 0.37748 0.0
C3872 C 0.74434 0.68171 0.37799 0.0
C3873 C 0.7432 0.66131 0.3818 0.0
C3874 C 0.72881 0.69429 0.3835 0.0
C3875 C 0.71188 0.68673 0.39305 0.0
C3876 C 0.71108 0.66644 0.39743 0.0
C3877 C 0.72653 0.6539 0.39186 0.0
C3878 C 0.6687 0.71053 0.42035 0.0
C3879 C 0.66264 0.72504 0.40674 0.0
C3880 C 0.68466 0.69803 0.41593 0.0
C3881 C 0.69484 0.69981 0.39782 0.0
C3882 C 0.6884 0.714 0.38405 0.0
C3883 C 0.67248 0.72643 0.38844 0.0
H3884 H 0.32816 0.75784 0.40806 0.0
H3885 H 0.34065 0.73208 0.35088 0.0
H3886 H 0.30906 0.72857 0.41711 0.0
H3887 H 0.32201 0.70253 0.36011 0.0
H3888 H 0.26471 0.66777 0.37521 0.0
H3889 H 0.28717 0.69434 0.36602 0.0
H3890 H 0.3131 0.69275 0.42449 0.0
H3891 H 0.29024 0.66619 0.43386 0.0
C3892 C 0.32673 0.74598 0.39738 0.0
C3893 C 0.33574 0.74735 0.37866 0.0
C3894 C 0.31606 0.72907 0.40269 0.0
C3895 C 0.3141 0.7132 0.38936 0.0
C3896 C 0.32316 0.71456 0.37066 0.0
C3897 C 0.3339 0.73143 0.3654 0.0
C3898 C 0.27535 0.67293 0.38606 0.0
C3899 C 0.27562 0.66504 0.40532 0.0
C3900 C 0.28831 0.68808 0.38074 0.0
C3901 C 0.3018 0.69576 0.39458 0.0
C3902 C 0.30267 0.68729 0.41361 0.0
C3903 C 0.28974 0.67197 0.41891 0.0
H3904 H 0.23311 0.31365 0.37025 0.0
H3905 H 0.26834 0.36272 0.39115 0.0
H3906 H 0.25916 0.29071 0.38058 0.0
H3907 H 0.29448 0.33998 0.40095 0.0
H3908 H 0.32961 0.29038 0.43223 0.0
H3909 H 0.3026 0.31331 0.42451 0.0
H3910 H 0.29293 0.28317 0.36892 0.0
H3911 H 0.31973 0.2604 0.37654 0.0
C3912 C 0.2463 0.31952 0.37719 0.0
C3913 C 0.24871 0.34001 0.37969 0.0
C3914 C 0.2613 0.30643 0.38293 0.0
C3915 C 0.27895 0.31357 0.39142 0.0
C3916 C 0.28104 0.334 0.39455 0.0
C3917 C 0.26612 0.34706 0.38872 0.0
C3918 C 0.3218 0.28878 0.41831 0.0
C3919 C 0.32668 0.27346 0.4051 0.0
C3920 C 0.30633 0.30187 0.4139 0.0
C3921 C 0.29546 0.29986 0.39623 0.0
C3922 C 0.30069 0.28482 0.38286 0.0
C3923 C 0.31614 0.27182 0.38722 0.0
H3924 H 0.33206 0.26447 0.6373 0.0
H3925 H 0.33735 0.23929 0.57898 0.0
H3926 H 0.30977 0.28993 0.62454 0.0
H3927 H 0.3163 0.26544 0.5656 0.0
H3928 H 0.25895 0.29822 0.55316 0.0
H3929 H 0.2841 0.27537 0.56396 0.0
H3930 H 0.30526 0.31856 0.60633 0.0
H3931 H 0.27883 0.34112 0.59629 0.0
C3932 C 0.32842 0.26457 0.62168 0.0
C3933 C 0.33589 0.24982 0.60914 0.0
C3934 C 0.31592 0.27929 0.61425 0.0
C3935 C 0.31106 0.27987 0.59396 0.0
C3936 C 0.31916 0.26528 0.58137 0.0
C3937 C 0.33123 0.25027 0.58894 0.0
C3938 C 0.26908 0.30303 0.56463 0.0
C3939 C 0.2667 0.32147 0.574 0.0
C3940 C 0.28372 0.28987 0.57078 0.0
C3941 C 0.29678 0.29489 0.5862 0.0
C3942 C 0.29519 0.31389 0.59476 0.0
C3943 C 0.2802 0.32698 0.58884 0.0
H3944 H 0.76219 0.30761 0.62533 0.0
H3945 H 0.72852 0.35651 0.60144 0.0
H3946 H 0.73598 0.2849 0.61549 0.0
H3947 H 0.7019 0.33404 0.59267 0.0
H3948 H 0.66499 0.28518 0.56345 0.0
H3949 H 0.69212 0.30792 0.57094 0.0
H3950 H 0.70321 0.27658 0.62565 0.0
H3951 H 0.67663 0.25366 0.61789 0.0
C3952 C 0.74927 0.31353 0.61794 0.0
C3953 C 0.74745 0.33395 0.61442 0.0
C3954 C 0.73409 0.30054 0.61252 0.0
C3955 C 0.71667 0.30765 0.6035 0.0
C3956 C 0.71511 0.32799 0.59949 0.0
C3957 C 0.73031 0.34095 0.60481 0.0
C3958 C 0.67318 0.28326 0.57711 0.0
C3959 C 0.66874 0.26757 0.59 0.0
C3960 C 0.68871 0.29629 0.58143 0.0
C3961 C 0.70002 0.29398 0.59882 0.0
C3962 C 0.69519 0.27854 0.6119 0.0
C3963 C 0.67981 0.26548 0.60752 0.0
H3964 H 0.263 0.63838 0.59921 0.0
H3965 H 0.23701 0.68706 0.63151 0.0
H3966 H 0.29045 0.65943 0.58923 0.0
H3967 H 0.26413 0.70849 0.62082 0.0
H3968 H 0.32691 0.73279 0.62028 0.0
H3969 H 0.29907 0.71153 0.62848 0.0
H3970 H 0.29994 0.68751 0.56915 0.0
H3971 H 0.32813 0.70874 0.56101 0.0
C3972 C 0.2631 0.65364 0.6041 0.0
C3973 C 0.248 0.66098 0.61645 0.0
C3974 C 0.27874 0.66577 0.59817 0.0
C3975 C 0.27963 0.68558 0.60441 0.0
C3976 C 0.26408 0.69317 0.61607 0.0
C3977 C 0.24841 0.681 0.62201 0.0
C3978 C 0.32121 0.72294 0.60899 0.0
C3979 C 0.32962 0.72253 0.58995 0.0
C3980 C 0.30514 0.71085 0.61365 0.0
C3981 C 0.29705 0.69806 0.59939 0.0
C3982 C 0.30587 0.69717 0.58051 0.0
C3983 C 0.32204 0.70927 0.57584 0.0
loop_
_geom_bond_atom_site_label_1
_geom_bond_atom_site_label_2
_geom_bond_distance
_geom_bond_site_symmetry_2
_ccdc_geom_bond_type
C0 C1 1.351 . S
C0 N3 1.368 . S
C0 H5 0.931 . S
C1 C0 1.351 . S
C1 N2 1.373 . S
C1 H29 0.930 . S
N2 C1 1.373 . S
N2 C4 1.340 . S
N3 C0 1.368 . S
N3 C4 1.321 . S
N3 Co6 2.135 . S
C4 N2 1.340 . S
C4 N3 1.321 . S
C4 H28 0.930 . S
H5 C0 0.931 . S
Co6 N3 2.135 . S
Co6 N9 2.121 . S
Co6 O14 2.055 . S
Co6 O17 2.039 . S
Co6 N20 2.140 . S
C7 O8 1.227 . S
C7 O17 1.265 . S
O8 C7 1.227 . S
N9 Co6 2.121 . S
N9 C11 1.375 . S
N9 C12 1.313 . S
C10 C11 1.338 . S
C10 N13 1.377 . S
C10 H30 0.930 . S
C11 N9 1.375 . S
C11 C10 1.338 . S
C11 H15 0.931 . S
C12 N9 1.313 . S
C12 N13 1.344 . S
C12 H16 0.930 . S
N13 C10 1.377 . S
N13 C12 1.344 . S
O14 Co6 2.055 . S
O14 C18 1.253 . S
H15 C11 0.931 . S
H16 C12 0.930 . S
O17 Co6 2.039 . S
O17 C7 1.265 . S
C18 O14 1.253 . S
C18 O19 1.227 . S
O19 C18 1.227 . S
N20 Co6 2.140 . S
N20 C23 1.346 . S
N20 C24 1.345 . S
C21 C22 1.387 . S
C21 C25 1.391 . S
C22 C21 1.387 . S
C22 C23 1.369 . S
C22 H31 0.929 . S
C23 N20 1.346 . S
C23 C22 1.369 . S
C23 H26 0.928 . S
C24 N20 1.345 . S
C24 C25 1.371 . S
C24 H27 0.931 . S
C25 C21 1.391 . S
C25 C24 1.371 . S
C25 H32 0.930 . S
H26 C23 0.928 . S
H27 C24 0.931 . S
H28 C4 0.930 . S
H29 C1 0.930 . S
H30 C10 0.930 . S
H31 C22 0.929 . S
H32 C25 0.930 . S
C33 C34 1.351 . S
C33 N36 1.368 . S
C33 H38 0.931 . S
C34 C33 1.351 . S
C34 N35 1.373 . S
C34 H62 0.930 . S
N35 C34 1.373 . S
N35 C37 1.340 . S
N36 C33 1.368 . S
N36 C37 1.321 . S
N36 Co39 2.135 . S
C37 N35 1.340 . S
C37 N36 1.321 . S
C37 H61 0.930 . S
H38 C33 0.931 . S
Co39 N36 2.135 . S
Co39 N42 2.121 . S
Co39 O47 2.055 . S
Co39 O50 2.039 . S
Co39 N53 2.140 . S
C40 O41 1.227 . S
C40 O50 1.265 . S
O41 C40 1.227 . S
N42 Co39 2.121 . S
N42 C44 1.375 . S
N42 C45 1.313 . S
C43 C44 1.338 . S
C43 N46 1.377 . S
C43 H63 0.930 . S
C44 N42 1.375 . S
C44 C43 1.338 . S
C44 H48 0.931 . S
C45 N42 1.313 . S
C45 N46 1.344 . S
C45 H49 0.930 . S
N46 C43 1.377 . S
N46 C45 1.344 . S
O47 Co39 2.055 . S
O47 C51 1.253 . S
H48 C44 0.931 . S
H49 C45 0.930 . S
O50 Co39 2.039 . S
O50 C40 1.265 . S
C51 O47 1.253 . S
C51 O52 1.227 . S
O52 C51 1.227 . S
N53 Co39 2.140 . S
N53 C56 1.346 . S
N53 C57 1.345 . S
C54 C55 1.387 . S
C54 C58 1.391 . S
C55 C54 1.387 . S
C55 C56 1.369 . S
C55 H64 0.929 . S
C56 N53 1.346 . S
C56 C55 1.369 . S
C56 H59 0.928 . S
C57 N53 1.345 . S
C57 C58 1.371 . S
C57 H60 0.931 . S
C58 C54 1.391 . S
C58 C57 1.371 . S
C58 H65 0.930 . S
H59 C56 0.928 . S
H60 C57 0.931 . S
H61 C37 0.930 . S
H62 C34 0.930 . S
H63 C43 0.930 . S
H64 C55 0.929 . S
H65 C58 0.930 . S
C66 C67 1.351 . S
C66 N69 1.368 . S
C66 H71 0.931 . S
C67 C66 1.351 . S
C67 N68 1.373 . S
C67 H95 0.930 . S
N68 C67 1.373 . S
N68 C70 1.340 . S
N69 C66 1.368 . S
N69 C70 1.321 . S
N69 Co72 2.135 . S
C70 N68 1.340 . S
C70 N69 1.321 . S
C70 H94 0.930 . S
H71 C66 0.931 . S
Co72 N69 2.135 . S
Co72 N75 2.121 . S
Co72 O80 2.055 . S
Co72 O83 2.039 . S
Co72 N86 2.140 . S
C73 O74 1.227 . S
C73 O83 1.265 . S
O74 C73 1.227 . S
N75 Co72 2.121 . S
N75 C77 1.375 . S
N75 C78 1.313 . S
C76 C77 1.338 . S
C76 N79 1.377 . S
C76 H96 0.930 . S
C77 N75 1.375 . S
C77 C76 1.338 . S
C77 H81 0.931 . S
C78 N75 1.313 . S
C78 N79 1.344 . S
C78 H82 0.930 . S
N79 C76 1.377 . S
N79 C78 1.344 . S
O80 Co72 2.055 . S
O80 C84 1.253 . S
H81 C77 0.931 . S
H82 C78 0.930 . S
O83 Co72 2.039 . S
O83 C73 1.265 . S
C84 O80 1.253 . S
C84 O85 1.227 . S
O85 C84 1.227 . S
N86 Co72 2.140 . S
N86 C89 1.346 . S
N86 C90 1.345 . S
C87 C88 1.387 . S
C87 C91 1.391 . S
C88 C87 1.387 . S
C88 C89 1.369 . S
C88 H97 0.929 . S
C89 N86 1.346 . S
C89 C88 1.369 . S
C89 H92 0.928 . S
C90 N86 1.345 . S
C90 C91 1.371 . S
C90 H93 0.931 . S
C91 C87 1.391 . S
C91 C90 1.371 . S
C91 H98 0.930 . S
H92 C89 0.928 . S
H93 C90 0.931 . S
H94 C70 0.930 . S
H95 C67 0.930 . S
H96 C76 0.930 . S
H97 C88 0.929 . S
H98 C91 0.930 . S
C99 C100 1.351 . S
C99 N102 1.368 . S
C99 H104 0.931 . S
C100 C99 1.351 . S
C100 N101 1.373 . S
C100 H128 0.930 . S
N101 C100 1.373 . S
N101 C103 1.340 . S
N102 C99 1.368 . S
N102 C103 1.321 . S
N102 Co105 2.135 . S
C103 N101 1.340 . S
C103 N102 1.321 . S
C103 H127 0.930 . S
H104 C99 0.931 . S
Co105 N102 2.135 . S
Co105 N108 2.121 . S
Co105 O113 2.055 . S
Co105 O116 2.039 . S
Co105 N119 2.140 . S
C106 O107 1.227 . S
C106 O116 1.265 . S
O107 C106 1.227 . S
N108 Co105 2.121 . S
N108 C110 1.375 . S
N108 C111 1.313 . S
C109 C110 1.338 . S
C109 N112 1.377 . S
C109 H129 0.930 . S
C110 N108 1.375 . S
C110 C109 1.338 . S
C110 H114 0.931 . S
C111 N108 1.313 . S
C111 N112 1.344 . S
C111 H115 0.930 . S
N112 C109 1.377 . S
N112 C111 1.344 . S
O113 Co105 2.055 . S
O113 C117 1.253 . S
H114 C110 0.931 . S
H115 C111 0.930 . S
O116 Co105 2.039 . S
O116 C106 1.265 . S
C117 O113 1.253 . S
C117 O118 1.227 . S
O118 C117 1.227 . S
N119 Co105 2.140 . S
N119 C122 1.346 . S
N119 C123 1.345 . S
C120 C121 1.387 . S
C120 C124 1.391 . S
C121 C120 1.387 . S
C121 C122 1.369 . S
C121 H130 0.929 . S
C122 N119 1.346 . S
C122 C121 1.369 . S
C122 H125 0.928 . S
C123 N119 1.345 . S
C123 C124 1.371 . S
C123 H126 0.931 . S
C124 C120 1.391 . S
C124 C123 1.371 . S
C124 H131 0.930 . S
H125 C122 0.928 . S
H126 C123 0.931 . S
H127 C103 0.930 . S
H128 C100 0.930 . S
H129 C109 0.930 . S
H130 C121 0.929 . S
H131 C124 0.930 . S
C132 C133 1.351 . S
C132 N135 1.368 . S
C132 H137 0.931 . S
C133 C132 1.351 . S
C133 N134 1.373 . S
C133 H161 0.930 . S
N134 C133 1.373 . S
N134 C136 1.340 . S
N135 C132 1.368 . S
N135 C136 1.321 . S
N135 Co138 2.135 . S
C136 N134 1.340 . S
C136 N135 1.321 . S
C136 H160 0.930 . S
H137 C132 0.931 . S
Co138 N135 2.135 . S
Co138 N141 2.121 . S
Co138 O146 2.055 . S
Co138 O149 2.039 . S
Co138 N152 2.140 . S
C139 O140 1.227 . S
C139 O149 1.265 . S
O140 C139 1.227 . S
N141 Co138 2.121 . S
N141 C143 1.375 . S
N141 C144 1.313 . S
C142 C143 1.338 . S
C142 N145 1.377 . S
C142 H162 0.930 . S
C143 N141 1.375 . S
C143 C142 1.338 . S
C143 H147 0.931 . S
C144 N141 1.313 . S
C144 N145 1.344 . S
C144 H148 0.930 . S
N145 C142 1.377 . S
N145 C144 1.344 . S
O146 Co138 2.055 . S
O146 C150 1.253 . S
H147 C143 0.931 . S
H148 C144 0.930 . S
O149 Co138 2.039 . S
O149 C139 1.265 . S
C150 O146 1.253 . S
C150 O151 1.227 . S
O151 C150 1.227 . S
N152 Co138 2.140 . S
N152 C155 1.346 . S
N152 C156 1.345 . S
C153 C154 1.387 . S
C153 C157 1.391 . S
C154 C153 1.387 . S
C154 C155 1.369 . S
C154 H163 0.929 . S
C155 N152 1.346 . S
C155 C154 1.369 . S
C155 H158 0.928 . S
C156 N152 1.345 . S
C156 C157 1.371 . S
C156 H159 0.931 . S
C157 C153 1.391 . S
C157 C156 1.371 . S
C157 H164 0.930 . S
H158 C155 0.928 . S
H159 C156 0.931 . S
H160 C136 0.930 . S
H161 C133 0.930 . S
H162 C142 0.930 . S
H163 C154 0.929 . S
H164 C157 0.930 . S
C165 C166 1.351 . S
C165 N168 1.368 . S
C165 H170 0.931 . S
C166 C165 1.351 . S
C166 N167 1.373 . S
C166 H194 0.930 . S
N167 C166 1.373 . S
N167 C169 1.340 . S
N168 C165 1.368 . S
N168 C169 1.321 . S
N168 Co171 2.135 . S
C169 N167 1.340 . S
C169 N168 1.321 . S
C169 H193 0.930 . S
H170 C165 0.931 . S
Co171 N168 2.135 . S
Co171 N174 2.121 . S
Co171 O179 2.055 . S
Co171 O182 2.039 . S
Co171 N185 2.140 . S
C172 O173 1.227 . S
C172 O182 1.265 . S
O173 C172 1.227 . S
N174 Co171 2.121 . S
N174 C176 1.375 . S
N174 C177 1.313 . S
C175 C176 1.338 . S
C175 N178 1.377 . S
C175 H195 0.930 . S
C176 N174 1.375 . S
C176 C175 1.338 . S
C176 H180 0.931 . S
C177 N174 1.313 . S
C177 N178 1.344 . S
C177 H181 0.930 . S
N178 C175 1.377 . S
N178 C177 1.344 . S
O179 Co171 2.055 . S
O179 C183 1.253 . S
H180 C176 0.931 . S
H181 C177 0.930 . S
O182 Co171 2.039 . S
O182 C172 1.265 . S
C183 O179 1.253 . S
C183 O184 1.227 . S
O184 C183 1.227 . S
N185 Co171 2.140 . S
N185 C188 1.346 . S
N185 C189 1.345 . S
C186 C187 1.387 . S
C186 C190 1.391 . S
C187 C186 1.387 . S
C187 C188 1.369 . S
C187 H196 0.929 . S
C188 N185 1.346 . S
C188 C187 1.369 . S
C188 H191 0.928 . S
C189 N185 1.345 . S
C189 C190 1.371 . S
C189 H192 0.931 . S
C190 C186 1.391 . S
C190 C189 1.371 . S
C190 H197 0.930 . S
H191 C188 0.928 . S
H192 C189 0.931 . S
H193 C169 0.930 . S
H194 C166 0.930 . S
H195 C175 0.930 . S
H196 C187 0.929 . S
H197 C190 0.930 . S
C198 C199 1.351 . S
C198 N201 1.368 . S
C198 H203 0.931 . S
C199 C198 1.351 . S
C199 N200 1.373 . S
C199 H227 0.930 . S
N200 C199 1.373 . S
N200 C202 1.340 . S
N201 C198 1.368 . S
N201 C202 1.321 . S
N201 Co204 2.135 . S
C202 N200 1.340 . S
C202 N201 1.321 . S
C202 H226 0.930 . S
H203 C198 0.931 . S
Co204 N201 2.135 . S
Co204 N207 2.121 . S
Co204 O212 2.055 . S
Co204 O215 2.039 . S
Co204 N218 2.140 . S
C205 O206 1.227 . S
C205 O215 1.265 . S
O206 C205 1.227 . S
N207 Co204 2.121 . S
N207 C209 1.375 . S
N207 C210 1.313 . S
C208 C209 1.338 . S
C208 N211 1.377 . S
C208 H228 0.930 . S
C209 N207 1.375 . S
C209 C208 1.338 . S
C209 H213 0.931 . S
C210 N207 1.313 . S
C210 N211 1.344 . S
C210 H214 0.930 . S
N211 C208 1.377 . S
N211 C210 1.344 . S
O212 Co204 2.055 . S
O212 C216 1.253 . S
H213 C209 0.931 . S
H214 C210 0.930 . S
O215 Co204 2.039 . S
O215 C205 1.265 . S
C216 O212 1.253 . S
C216 O217 1.227 . S
O217 C216 1.227 . S
N218 Co204 2.140 . S
N218 C221 1.346 . S
N218 C222 1.345 . S
C219 C220 1.387 . S
C219 C223 1.391 . S
C220 C219 1.387 . S
C220 C221 1.369 . S
C220 H229 0.929 . S
C221 N218 1.346 . S
C221 C220 1.369 . S
C221 H224 0.928 . S
C222 N218 1.345 . S
C222 C223 1.371 . S
C222 H225 0.931 . S
C223 C219 1.391 . S
C223 C222 1.371 . S
C223 H230 0.930 . S
H224 C221 0.928 . S
H225 C222 0.931 . S
H226 C202 0.930 . S
H227 C199 0.930 . S
H228 C208 0.930 . S
H229 C220 0.929 . S
H230 C223 0.930 . S
C231 C232 1.351 . S
C231 N234 1.368 . S
C231 H236 0.931 . S
C232 C231 1.351 . S
C232 N233 1.373 . S
C232 H260 0.930 . S
N233 C232 1.373 . S
N233 C235 1.340 . S
N234 C231 1.368 . S
N234 C235 1.321 . S
N234 Co237 2.135 . S
C235 N233 1.340 . S
C235 N234 1.321 . S
C235 H259 0.930 . S
H236 C231 0.931 . S
Co237 N234 2.135 . S
Co237 N240 2.121 . S
Co237 O245 2.055 . S
Co237 O248 2.039 . S
Co237 N251 2.140 . S
C238 O239 1.227 . S
C238 O248 1.265 . S
O239 C238 1.227 . S
N240 Co237 2.121 . S
N240 C242 1.375 . S
N240 C243 1.313 . S
C241 C242 1.338 . S
C241 N244 1.377 . S
C241 H261 0.930 . S
C242 N240 1.375 . S
C242 C241 1.338 . S
C242 H246 0.931 . S
C243 N240 1.313 . S
C243 N244 1.344 . S
C243 H247 0.930 . S
N244 C241 1.377 . S
N244 C243 1.344 . S
O245 Co237 2.055 . S
O245 C249 1.253 . S
H246 C242 0.931 . S
H247 C243 0.930 . S
O248 Co237 2.039 . S
O248 C238 1.265 . S
C249 O245 1.253 . S
C249 O250 1.227 . S
O250 C249 1.227 . S
N251 Co237 2.140 . S
N251 C254 1.346 . S
N251 C255 1.345 . S
C252 C253 1.387 . S
C252 C256 1.391 . S
C253 C252 1.387 . S
C253 C254 1.369 . S
C253 H262 0.929 . S
C254 N251 1.346 . S
C254 C253 1.369 . S
C254 H257 0.928 . S
C255 N251 1.345 . S
C255 C256 1.371 . S
C255 H258 0.931 . S
C256 C252 1.391 . S
C256 C255 1.371 . S
C256 H263 0.930 . S
H257 C254 0.928 . S
H258 C255 0.931 . S
H259 C235 0.930 . S
H260 C232 0.930 . S
H261 C241 0.930 . S
H262 C253 0.929 . S
H263 C256 0.930 . S
C264 C265 1.351 . S
C264 N267 1.368 . S
C264 H269 0.931 . S
C265 C264 1.351 . S
C265 N266 1.373 . S
C265 H293 0.930 . S
N266 C265 1.373 . S
N266 C268 1.340 . S
N267 C264 1.368 . S
N267 C268 1.321 . S
N267 Co270 2.135 . S
C268 N266 1.340 . S
C268 N267 1.321 . S
C268 H292 0.930 . S
H269 C264 0.931 . S
Co270 N267 2.135 . S
Co270 N273 2.121 . S
Co270 O278 2.055 . S
Co270 O281 2.039 . S
Co270 N284 2.140 . S
C271 O272 1.227 . S
C271 O281 1.265 . S
O272 C271 1.227 . S
N273 Co270 2.121 . S
N273 C275 1.375 . S
N273 C276 1.313 . S
C274 C275 1.338 . S
C274 N277 1.377 . S
C274 H294 0.930 . S
C275 N273 1.375 . S
C275 C274 1.338 . S
C275 H279 0.931 . S
C276 N273 1.313 . S
C276 N277 1.344 . S
C276 H280 0.930 . S
N277 C274 1.377 . S
N277 C276 1.344 . S
O278 Co270 2.055 . S
O278 C282 1.253 . S
H279 C275 0.931 . S
H280 C276 0.930 . S
O281 Co270 2.039 . S
O281 C271 1.265 . S
C282 O278 1.253 . S
C282 O283 1.227 . S
O283 C282 1.227 . S
N284 Co270 2.140 . S
N284 C287 1.346 . S
N284 C288 1.345 . S
C285 C286 1.387 . S
C285 C289 1.391 . S
C286 C285 1.387 . S
C286 C287 1.369 . S
C286 H295 0.929 . S
C287 N284 1.346 . S
C287 C286 1.369 . S
C287 H290 0.928 . S
C288 N284 1.345 . S
C288 C289 1.371 . S
C288 H291 0.931 . S
C289 C285 1.391 . S
C289 C288 1.371 . S
C289 H296 0.930 . S
H290 C287 0.928 . S
H291 C288 0.931 . S
H292 C268 0.930 . S
H293 C265 0.930 . S
H294 C274 0.930 . S
H295 C286 0.929 . S
H296 C289 0.930 . S
C297 C298 1.351 . S
C297 N300 1.368 . S
C297 H302 0.931 . S
C298 C297 1.351 . S
C298 N299 1.373 . S
C298 H326 0.930 . S
N299 C298 1.373 . S
N299 C301 1.340 . S
N300 C297 1.368 . S
N300 C301 1.321 . S
N300 Co303 2.135 . S
C301 N299 1.340 . S
C301 N300 1.321 . S
C301 H325 0.930 . S
H302 C297 0.931 . S
Co303 N300 2.135 . S
Co303 N306 2.121 . S
Co303 O311 2.055 . S
Co303 O314 2.039 . S
Co303 N317 2.140 . S
C304 O305 1.227 . S
C304 O314 1.265 . S
O305 C304 1.227 . S
N306 Co303 2.121 . S
N306 C308 1.375 . S
N306 C309 1.313 . S
C307 C308 1.338 . S
C307 N310 1.377 . S
C307 H327 0.930 . S
C308 N306 1.375 . S
C308 C307 1.338 . S
C308 H312 0.931 . S
C309 N306 1.313 . S
C309 N310 1.344 . S
C309 H313 0.930 . S
N310 C307 1.377 . S
N310 C309 1.344 . S
O311 Co303 2.055 . S
O311 C315 1.253 . S
H312 C308 0.931 . S
H313 C309 0.930 . S
O314 Co303 2.039 . S
O314 C304 1.265 . S
C315 O311 1.253 . S
C315 O316 1.227 . S
O316 C315 1.227 . S
N317 Co303 2.140 . S
N317 C320 1.346 . S
N317 C321 1.345 . S
C318 C319 1.387 . S
C318 C322 1.391 . S
C319 C318 1.387 . S
C319 C320 1.369 . S
C319 H328 0.929 . S
C320 N317 1.346 . S
C320 C319 1.369 . S
C320 H323 0.928 . S
C321 N317 1.345 . S
C321 C322 1.371 . S
C321 H324 0.931 . S
C322 C318 1.391 . S
C322 C321 1.371 . S
C322 H329 0.930 . S
H323 C320 0.928 . S
H324 C321 0.931 . S
H325 C301 0.930 . S
H326 C298 0.930 . S
H327 C307 0.930 . S
H328 C319 0.929 . S
H329 C322 0.930 . S
C330 C331 1.351 . S
C330 N333 1.368 . S
C330 H335 0.931 . S
C331 C330 1.351 . S
C331 N332 1.373 . S
C331 H359 0.930 . S
N332 C331 1.373 . S
N332 C334 1.340 . S
N333 C330 1.368 . S
N333 C334 1.321 . S
N333 Co336 2.135 . S
C334 N332 1.340 . S
C334 N333 1.321 . S
C334 H358 0.930 . S
H335 C330 0.931 . S
Co336 N333 2.135 . S
Co336 N339 2.121 . S
Co336 O344 2.055 . S
Co336 O347 2.039 . S
Co336 N350 2.140 . S
C337 O338 1.227 . S
C337 O347 1.265 . S
O338 C337 1.227 . S
N339 Co336 2.121 . S
N339 C341 1.375 . S
N339 C342 1.313 . S
C340 C341 1.338 . S
C340 N343 1.377 . S
C340 H360 0.930 . S
C341 N339 1.375 . S
C341 C340 1.338 . S
C341 H345 0.931 . S
C342 N339 1.313 . S
C342 N343 1.344 . S
C342 H346 0.930 . S
N343 C340 1.377 . S
N343 C342 1.344 . S
O344 Co336 2.055 . S
O344 C348 1.253 . S
H345 C341 0.931 . S
H346 C342 0.930 . S
O347 Co336 2.039 . S
O347 C337 1.265 . S
C348 O344 1.253 . S
C348 O349 1.227 . S
O349 C348 1.227 . S
N350 Co336 2.140 . S
N350 C353 1.346 . S
N350 C354 1.345 . S
C351 C352 1.387 . S
C351 C355 1.391 . S
C352 C351 1.387 . S
C352 C353 1.369 . S
C352 H361 0.929 . S
C353 N350 1.346 . S
C353 C352 1.369 . S
C353 H356 0.928 . S
C354 N350 1.345 . S
C354 C355 1.371 . S
C354 H357 0.931 . S
C355 C351 1.391 . S
C355 C354 1.371 . S
C355 H362 0.930 . S
H356 C353 0.928 . S
H357 C354 0.931 . S
H358 C334 0.930 . S
H359 C331 0.930 . S
H360 C340 0.930 . S
H361 C352 0.929 . S
H362 C355 0.930 . S
C363 C364 1.351 . S
C363 N366 1.368 . S
C363 H368 0.931 . S
C364 C363 1.351 . S
C364 N365 1.373 . S
C364 H392 0.930 . S
N365 C364 1.373 . S
N365 C367 1.340 . S
N366 C363 1.368 . S
N366 C367 1.321 . S
N366 Co369 2.135 . S
C367 N365 1.340 . S
C367 N366 1.321 . S
C367 H391 0.930 . S
H368 C363 0.931 . S
Co369 N366 2.135 . S
Co369 N372 2.121 . S
Co369 O377 2.055 . S
Co369 O380 2.039 . S
Co369 N383 2.140 . S
C370 O371 1.227 . S
C370 O380 1.265 . S
O371 C370 1.227 . S
N372 Co369 2.121 . S
N372 C374 1.375 . S
N372 C375 1.313 . S
C373 C374 1.338 . S
C373 N376 1.377 . S
C373 H393 0.930 . S
C374 N372 1.375 . S
C374 C373 1.338 . S
C374 H378 0.931 . S
C375 N372 1.313 . S
C375 N376 1.344 . S
C375 H379 0.930 . S
N376 C373 1.377 . S
N376 C375 1.344 . S
O377 Co369 2.055 . S
O377 C381 1.253 . S
H378 C374 0.931 . S
H379 C375 0.930 . S
O380 Co369 2.039 . S
O380 C370 1.265 . S
C381 O377 1.253 . S
C381 O382 1.227 . S
O382 C381 1.227 . S
N383 Co369 2.140 . S
N383 C386 1.346 . S
N383 C387 1.345 . S
C384 C385 1.387 . S
C384 C388 1.391 . S
C385 C384 1.387 . S
C385 C386 1.369 . S
C385 H394 0.929 . S
C386 N383 1.346 . S
C386 C385 1.369 . S
C386 H389 0.928 . S
C387 N383 1.345 . S
C387 C388 1.371 . S
C387 H390 0.931 . S
C388 C384 1.391 . S
C388 C387 1.371 . S
C388 H395 0.930 . S
H389 C386 0.928 . S
H390 C387 0.931 . S
H391 C367 0.930 . S
H392 C364 0.930 . S
H393 C373 0.930 . S
H394 C385 0.929 . S
H395 C388 0.930 . S
C396 C397 1.351 . S
C396 N399 1.368 . S
C396 H401 0.931 . S
C397 C396 1.351 . S
C397 N398 1.373 . S
C397 H425 0.930 . S
N398 C397 1.373 . S
N398 C400 1.340 . S
N399 C396 1.368 . S
N399 C400 1.321 . S
N399 Co402 2.135 . S
C400 N398 1.340 . S
C400 N399 1.321 . S
C400 H424 0.930 . S
H401 C396 0.931 . S
Co402 N399 2.135 . S
Co402 N405 2.121 . S
Co402 O410 2.055 . S
Co402 O413 2.039 . S
Co402 N416 2.140 . S
C403 O404 1.227 . S
C403 O413 1.265 . S
O404 C403 1.227 . S
N405 Co402 2.121 . S
N405 C407 1.375 . S
N405 C408 1.313 . S
C406 C407 1.338 . S
C406 N409 1.377 . S
C406 H426 0.930 . S
C407 N405 1.375 . S
C407 C406 1.338 . S
C407 H411 0.931 . S
C408 N405 1.313 . S
C408 N409 1.344 . S
C408 H412 0.930 . S
N409 C406 1.377 . S
N409 C408 1.344 . S
O410 Co402 2.055 . S
O410 C414 1.253 . S
H411 C407 0.931 . S
H412 C408 0.930 . S
O413 Co402 2.039 . S
O413 C403 1.265 . S
C414 O410 1.253 . S
C414 O415 1.227 . S
O415 C414 1.227 . S
N416 Co402 2.140 . S
N416 C419 1.346 . S
N416 C420 1.345 . S
C417 C418 1.387 . S
C417 C421 1.391 . S
C418 C417 1.387 . S
C418 C419 1.369 . S
C418 H427 0.929 . S
C419 N416 1.346 . S
C419 C418 1.369 . S
C419 H422 0.928 . S
C420 N416 1.345 . S
C420 C421 1.371 . S
C420 H423 0.931 . S
C421 C417 1.391 . S
C421 C420 1.371 . S
C421 H428 0.930 . S
H422 C419 0.928 . S
H423 C420 0.931 . S
H424 C400 0.930 . S
H425 C397 0.930 . S
H426 C406 0.930 . S
H427 C418 0.929 . S
H428 C421 0.930 . S
C429 C430 1.351 . S
C429 N432 1.368 . S
C429 H434 0.931 . S
C430 C429 1.351 . S
C430 N431 1.373 . S
C430 H458 0.930 . S
N431 C430 1.373 . S
N431 C433 1.340 . S
N432 C429 1.368 . S
N432 C433 1.321 . S
N432 Co435 2.135 . S
C433 N431 1.340 . S
C433 N432 1.321 . S
C433 H457 0.930 . S
H434 C429 0.931 . S
Co435 N432 2.135 . S
Co435 N438 2.121 . S
Co435 O443 2.055 . S
Co435 O446 2.039 . S
Co435 N449 2.140 . S
C436 O437 1.227 . S
C436 O446 1.265 . S
O437 C436 1.227 . S
N438 Co435 2.121 . S
N438 C440 1.375 . S
N438 C441 1.313 . S
C439 C440 1.338 . S
C439 N442 1.377 . S
C439 H459 0.930 . S
C440 N438 1.375 . S
C440 C439 1.338 . S
C440 H444 0.931 . S
C441 N438 1.313 . S
C441 N442 1.344 . S
C441 H445 0.930 . S
N442 C439 1.377 . S
N442 C441 1.344 . S
O443 Co435 2.055 . S
O443 C447 1.253 . S
H444 C440 0.931 . S
H445 C441 0.930 . S
O446 Co435 2.039 . S
O446 C436 1.265 . S
C447 O443 1.253 . S
C447 O448 1.227 . S
O448 C447 1.227 . S
N449 Co435 2.140 . S
N449 C452 1.346 . S
N449 C453 1.345 . S
C450 C451 1.387 . S
C450 C454 1.391 . S
C451 C450 1.387 . S
C451 C452 1.369 . S
C451 H460 0.929 . S
C452 N449 1.346 . S
C452 C451 1.369 . S
C452 H455 0.928 . S
C453 N449 1.345 . S
C453 C454 1.371 . S
C453 H456 0.931 . S
C454 C450 1.391 . S
C454 C453 1.371 . S
C454 H461 0.930 . S
H455 C452 0.928 . S
H456 C453 0.931 . S
H457 C433 0.930 . S
H458 C430 0.930 . S
H459 C439 0.930 . S
H460 C451 0.929 . S
H461 C454 0.930 . S
C462 C463 1.351 . S
C462 N465 1.368 . S
C462 H467 0.931 . S
C463 C462 1.351 . S
C463 N464 1.373 . S
C463 H491 0.930 . S
N464 C463 1.373 . S
N464 C466 1.340 . S
N465 C462 1.368 . S
N465 C466 1.321 . S
N465 Co468 2.135 . S
C466 N464 1.340 . S
C466 N465 1.321 . S
C466 H490 0.930 . S
H467 C462 0.931 . S
Co468 N465 2.135 . S
Co468 N471 2.121 . S
Co468 O476 2.055 . S
Co468 O479 2.039 . S
Co468 N482 2.140 . S
C469 O470 1.227 . S
C469 O479 1.265 . S
O470 C469 1.227 . S
N471 Co468 2.121 . S
N471 C473 1.375 . S
N471 C474 1.313 . S
C472 C473 1.338 . S
C472 N475 1.377 . S
C472 H492 0.930 . S
C473 N471 1.375 . S
C473 C472 1.338 . S
C473 H477 0.931 . S
C474 N471 1.313 . S
C474 N475 1.344 . S
C474 H478 0.930 . S
N475 C472 1.377 . S
N475 C474 1.344 . S
O476 Co468 2.055 . S
O476 C480 1.253 . S
H477 C473 0.931 . S
H478 C474 0.930 . S
O479 Co468 2.039 . S
O479 C469 1.265 . S
C480 O476 1.253 . S
C480 O481 1.227 . S
O481 C480 1.227 . S
N482 Co468 2.140 . S
N482 C485 1.346 . S
N482 C486 1.345 . S
C483 C484 1.387 . S
C483 C487 1.391 . S
C484 C483 1.387 . S
C484 C485 1.369 . S
C484 H493 0.929 . S
C485 N482 1.346 . S
C485 C484 1.369 . S
C485 H488 0.928 . S
C486 N482 1.345 . S
C486 C487 1.371 . S
C486 H489 0.931 . S
C487 C483 1.391 . S
C487 C486 1.371 . S
C487 H494 0.930 . S
H488 C485 0.928 . S
H489 C486 0.931 . S
H490 C466 0.930 . S
H491 C463 0.930 . S
H492 C472 0.930 . S
H493 C484 0.929 . S
H494 C487 0.930 . S
C495 C496 1.351 . S
C495 N498 1.368 . S
C495 H500 0.931 . S
C496 C495 1.351 . S
C496 N497 1.373 . S
C496 H524 0.930 . S
N497 C496 1.373 . S
N497 C499 1.340 . S
N498 C495 1.368 . S
N498 C499 1.321 . S
N498 Co501 2.135 . S
C499 N497 1.340 . S
C499 N498 1.321 . S
C499 H523 0.930 . S
H500 C495 0.931 . S
Co501 N498 2.135 . S
Co501 N504 2.121 . S
Co501 O509 2.055 . S
Co501 O512 2.039 . S
Co501 N515 2.140 . S
C502 O503 1.227 . S
C502 O512 1.265 . S
O503 C502 1.227 . S
N504 Co501 2.121 . S
N504 C506 1.375 . S
N504 C507 1.313 . S
C505 C506 1.338 . S
C505 N508 1.377 . S
C505 H525 0.930 . S
C506 N504 1.375 . S
C506 C505 1.338 . S
C506 H510 0.931 . S
C507 N504 1.313 . S
C507 N508 1.344 . S
C507 H511 0.930 . S
N508 C505 1.377 . S
N508 C507 1.344 . S
O509 Co501 2.055 . S
O509 C513 1.253 . S
H510 C506 0.931 . S
H511 C507 0.930 . S
O512 Co501 2.039 . S
O512 C502 1.265 . S
C513 O509 1.253 . S
C513 O514 1.227 . S
O514 C513 1.227 . S
N515 Co501 2.140 . S
N515 C518 1.346 . S
N515 C519 1.345 . S
C516 C517 1.387 . S
C516 C520 1.391 . S
C517 C516 1.387 . S
C517 C518 1.369 . S
C517 H526 0.929 . S
C518 N515 1.346 . S
C518 C517 1.369 . S
C518 H521 0.928 . S
C519 N515 1.345 . S
C519 C520 1.371 . S
C519 H522 0.931 . S
C520 C516 1.391 . S
C520 C519 1.371 . S
C520 H527 0.930 . S
H521 C518 0.928 . S
H522 C519 0.931 . S
H523 C499 0.930 . S
H524 C496 0.930 . S
H525 C505 0.930 . S
H526 C517 0.929 . S
H527 C520 0.930 . S
C528 C529 1.351 . S
C528 N531 1.368 . S
C528 H533 0.931 . S
C529 C528 1.351 . S
C529 N530 1.373 . S
C529 H557 0.930 . S
N530 C529 1.373 . S
N530 C532 1.340 . S
N531 C528 1.368 . S
N531 C532 1.321 . S
N531 Co534 2.135 . S
C532 N530 1.340 . S
C532 N531 1.321 . S
C532 H556 0.930 . S
H533 C528 0.931 . S
Co534 N531 2.135 . S
Co534 N537 2.121 . S
Co534 O542 2.055 . S
Co534 O545 2.039 . S
Co534 N548 2.140 . S
C535 O536 1.227 . S
C535 O545 1.265 . S
O536 C535 1.227 . S
N537 Co534 2.121 . S
N537 C539 1.375 . S
N537 C540 1.313 . S
C538 C539 1.338 . S
C538 N541 1.377 . S
C538 H558 0.930 . S
C539 N537 1.375 . S
C539 C538 1.338 . S
C539 H543 0.931 . S
C540 N537 1.313 . S
C540 N541 1.344 . S
C540 H544 0.930 . S
N541 C538 1.377 . S
N541 C540 1.344 . S
O542 Co534 2.055 . S
O542 C546 1.253 . S
H543 C539 0.931 . S
H544 C540 0.930 . S
O545 Co534 2.039 . S
O545 C535 1.265 . S
C546 O542 1.253 . S
C546 O547 1.227 . S
O547 C546 1.227 . S
N548 Co534 2.140 . S
N548 C551 1.346 . S
N548 C552 1.345 . S
C549 C550 1.387 . S
C549 C553 1.391 . S
C550 C549 1.387 . S
C550 C551 1.369 . S
C550 H559 0.929 . S
C551 N548 1.346 . S
C551 C550 1.369 . S
C551 H554 0.928 . S
C552 N548 1.345 . S
C552 C553 1.371 . S
C552 H555 0.931 . S
C553 C549 1.391 . S
C553 C552 1.371 . S
C553 H560 0.930 . S
H554 C551 0.928 . S
H555 C552 0.931 . S
H556 C532 0.930 . S
H557 C529 0.930 . S
H558 C538 0.930 . S
H559 C550 0.929 . S
H560 C553 0.930 . S
C561 C562 1.351 . S
C561 N564 1.368 . S
C561 H566 0.931 . S
C562 C561 1.351 . S
C562 N563 1.373 . S
C562 H590 0.930 . S
N563 C562 1.373 . S
N563 C565 1.340 . S
N564 C561 1.368 . S
N564 C565 1.321 . S
N564 Co567 2.135 . S
C565 N563 1.340 . S
C565 N564 1.321 . S
C565 H589 0.930 . S
H566 C561 0.931 . S
Co567 N564 2.135 . S
Co567 N570 2.121 . S
Co567 O575 2.055 . S
Co567 O578 2.039 . S
Co567 N581 2.140 . S
C568 O569 1.227 . S
C568 O578 1.265 . S
O569 C568 1.227 . S
N570 Co567 2.121 . S
N570 C572 1.375 . S
N570 C573 1.313 . S
C571 C572 1.338 . S
C571 N574 1.377 . S
C571 H591 0.930 . S
C572 N570 1.375 . S
C572 C571 1.338 . S
C572 H576 0.931 . S
C573 N570 1.313 . S
C573 N574 1.344 . S
C573 H577 0.930 . S
N574 C571 1.377 . S
N574 C573 1.344 . S
O575 Co567 2.055 . S
O575 C579 1.253 . S
H576 C572 0.931 . S
H577 C573 0.930 . S
O578 Co567 2.039 . S
O578 C568 1.265 . S
C579 O575 1.253 . S
C579 O580 1.227 . S
O580 C579 1.227 . S
N581 Co567 2.140 . S
N581 C584 1.346 . S
N581 C585 1.345 . S
C582 C583 1.387 . S
C582 C586 1.391 . S
C583 C582 1.387 . S
C583 C584 1.369 . S
C583 H592 0.929 . S
C584 N581 1.346 . S
C584 C583 1.369 . S
C584 H587 0.928 . S
C585 N581 1.345 . S
C585 C586 1.371 . S
C585 H588 0.931 . S
C586 C582 1.391 . S
C586 C585 1.371 . S
C586 H593 0.930 . S
H587 C584 0.928 . S
H588 C585 0.931 . S
H589 C565 0.930 . S
H590 C562 0.930 . S
H591 C571 0.930 . S
H592 C583 0.929 . S
H593 C586 0.930 . S
C594 C595 1.351 . S
C594 N597 1.368 . S
C594 H599 0.931 . S
C595 C594 1.351 . S
C595 N596 1.373 . S
C595 H623 0.930 . S
N596 C595 1.373 . S
N596 C598 1.340 . S
N597 C594 1.368 . S
N597 C598 1.321 . S
N597 Co600 2.135 . S
C598 N596 1.340 . S
C598 N597 1.321 . S
C598 H622 0.930 . S
H599 C594 0.931 . S
Co600 N597 2.135 . S
Co600 N603 2.121 . S
Co600 O608 2.055 . S
Co600 O611 2.039 . S
Co600 N614 2.140 . S
C601 O602 1.227 . S
C601 O611 1.265 . S
O602 C601 1.227 . S
N603 Co600 2.121 . S
N603 C605 1.375 . S
N603 C606 1.313 . S
C604 C605 1.338 . S
C604 N607 1.377 . S
C604 H624 0.930 . S
C605 N603 1.375 . S
C605 C604 1.338 . S
C605 H609 0.931 . S
C606 N603 1.313 . S
C606 N607 1.344 . S
C606 H610 0.930 . S
N607 C604 1.377 . S
N607 C606 1.344 . S
O608 Co600 2.055 . S
O608 C612 1.253 . S
H609 C605 0.931 . S
H610 C606 0.930 . S
O611 Co600 2.039 . S
O611 C601 1.265 . S
C612 O608 1.253 . S
C612 O613 1.227 . S
O613 C612 1.227 . S
N614 Co600 2.140 . S
N614 C617 1.346 . S
N614 C618 1.345 . S
C615 C616 1.387 . S
C615 C619 1.391 . S
C616 C615 1.387 . S
C616 C617 1.369 . S
C616 H625 0.929 . S
C617 N614 1.346 . S
C617 C616 1.369 . S
C617 H620 0.928 . S
C618 N614 1.345 . S
C618 C619 1.371 . S
C618 H621 0.931 . S
C619 C615 1.391 . S
C619 C618 1.371 . S
C619 H626 0.930 . S
H620 C617 0.928 . S
H621 C618 0.931 . S
H622 C598 0.930 . S
H623 C595 0.930 . S
H624 C604 0.930 . S
H625 C616 0.929 . S
H626 C619 0.930 . S
C627 C628 1.351 . S
C627 N630 1.368 . S
C627 H632 0.931 . S
C628 C627 1.351 . S
C628 N629 1.373 . S
C628 H656 0.930 . S
N629 C628 1.373 . S
N629 C631 1.340 . S
N630 C627 1.368 . S
N630 C631 1.321 . S
N630 Co633 2.135 . S
C631 N629 1.340 . S
C631 N630 1.321 . S
C631 H655 0.930 . S
H632 C627 0.931 . S
Co633 N630 2.135 . S
Co633 N636 2.121 . S
Co633 O641 2.055 . S
Co633 O644 2.039 . S
Co633 N647 2.140 . S
C634 O635 1.227 . S
C634 O644 1.265 . S
O635 C634 1.227 . S
N636 Co633 2.121 . S
N636 C638 1.375 . S
N636 C639 1.313 . S
C637 C638 1.338 . S
C637 N640 1.377 . S
C637 H657 0.930 . S
C638 N636 1.375 . S
C638 C637 1.338 . S
C638 H642 0.931 . S
C639 N636 1.313 . S
C639 N640 1.344 . S
C639 H643 0.930 . S
N640 C637 1.377 . S
N640 C639 1.344 . S
O641 Co633 2.055 . S
O641 C645 1.253 . S
H642 C638 0.931 . S
H643 C639 0.930 . S
O644 Co633 2.039 . S
O644 C634 1.265 . S
C645 O641 1.253 . S
C645 O646 1.227 . S
O646 C645 1.227 . S
N647 Co633 2.140 . S
N647 C650 1.346 . S
N647 C651 1.345 . S
C648 C649 1.387 . S
C648 C652 1.391 . S
C649 C648 1.387 . S
C649 C650 1.369 . S
C649 H658 0.929 . S
C650 N647 1.346 . S
C650 C649 1.369 . S
C650 H653 0.928 . S
C651 N647 1.345 . S
C651 C652 1.371 . S
C651 H654 0.931 . S
C652 C648 1.391 . S
C652 C651 1.371 . S
C652 H659 0.930 . S
H653 C650 0.928 . S
H654 C651 0.931 . S
H655 C631 0.930 . S
H656 C628 0.930 . S
H657 C637 0.930 . S
H658 C649 0.929 . S
H659 C652 0.930 . S
C660 C661 1.351 . S
C660 N663 1.368 . S
C660 H665 0.931 . S
C661 C660 1.351 . S
C661 N662 1.373 . S
C661 H689 0.930 . S
N662 C661 1.373 . S
N662 C664 1.340 . S
N663 C660 1.368 . S
N663 C664 1.321 . S
N663 Co666 2.135 . S
C664 N662 1.340 . S
C664 N663 1.321 . S
C664 H688 0.930 . S
H665 C660 0.931 . S
Co666 N663 2.135 . S
Co666 N669 2.121 . S
Co666 O674 2.055 . S
Co666 O677 2.039 . S
Co666 N680 2.140 . S
C667 O668 1.227 . S
C667 O677 1.265 . S
O668 C667 1.227 . S
N669 Co666 2.121 . S
N669 C671 1.375 . S
N669 C672 1.313 . S
C670 C671 1.338 . S
C670 N673 1.377 . S
C670 H690 0.930 . S
C671 N669 1.375 . S
C671 C670 1.338 . S
C671 H675 0.931 . S
C672 N669 1.313 . S
C672 N673 1.344 . S
C672 H676 0.930 . S
N673 C670 1.377 . S
N673 C672 1.344 . S
O674 Co666 2.055 . S
O674 C678 1.253 . S
H675 C671 0.931 . S
H676 C672 0.930 . S
O677 Co666 2.039 . S
O677 C667 1.265 . S
C678 O674 1.253 . S
C678 O679 1.227 . S
O679 C678 1.227 . S
N680 Co666 2.140 . S
N680 C683 1.346 . S
N680 C684 1.345 . S
C681 C682 1.387 . S
C681 C685 1.391 . S
C682 C681 1.387 . S
C682 C683 1.369 . S
C682 H691 0.929 . S
C683 N680 1.346 . S
C683 C682 1.369 . S
C683 H686 0.928 . S
C684 N680 1.345 . S
C684 C685 1.371 . S
C684 H687 0.931 . S
C685 C681 1.391 . S
C685 C684 1.371 . S
C685 H692 0.930 . S
H686 C683 0.928 . S
H687 C684 0.931 . S
H688 C664 0.930 . S
H689 C661 0.930 . S
H690 C670 0.930 . S
H691 C682 0.929 . S
H692 C685 0.930 . S
C693 C694 1.351 . S
C693 N696 1.368 . S
C693 H698 0.931 . S
C694 C693 1.351 . S
C694 N695 1.373 . S
C694 H722 0.930 . S
N695 C694 1.373 . S
N695 C697 1.340 . S
N696 C693 1.368 . S
N696 C697 1.321 . S
N696 Co699 2.135 . S
C697 N695 1.340 . S
C697 N696 1.321 . S
C697 H721 0.930 . S
H698 C693 0.931 . S
Co699 N696 2.135 . S
Co699 N702 2.121 . S
Co699 O707 2.055 . S
Co699 O710 2.039 . S
Co699 N713 2.140 . S
C700 O701 1.227 . S
C700 O710 1.265 . S
O701 C700 1.227 . S
N702 Co699 2.121 . S
N702 C704 1.375 . S
N702 C705 1.313 . S
C703 C704 1.338 . S
C703 N706 1.377 . S
C703 H723 0.930 . S
C704 N702 1.375 . S
C704 C703 1.338 . S
C704 H708 0.931 . S
C705 N702 1.313 . S
C705 N706 1.344 . S
C705 H709 0.930 . S
N706 C703 1.377 . S
N706 C705 1.344 . S
O707 Co699 2.055 . S
O707 C711 1.253 . S
H708 C704 0.931 . S
H709 C705 0.930 . S
O710 Co699 2.039 . S
O710 C700 1.265 . S
C711 O707 1.253 . S
C711 O712 1.227 . S
O712 C711 1.227 . S
N713 Co699 2.140 . S
N713 C716 1.346 . S
N713 C717 1.345 . S
C714 C715 1.387 . S
C714 C718 1.391 . S
C715 C714 1.387 . S
C715 C716 1.369 . S
C715 H724 0.929 . S
C716 N713 1.346 . S
C716 C715 1.369 . S
C716 H719 0.928 . S
C717 N713 1.345 . S
C717 C718 1.371 . S
C717 H720 0.931 . S
C718 C714 1.391 . S
C718 C717 1.371 . S
C718 H725 0.930 . S
H719 C716 0.928 . S
H720 C717 0.931 . S
H721 C697 0.930 . S
H722 C694 0.930 . S
H723 C703 0.930 . S
H724 C715 0.929 . S
H725 C718 0.930 . S
C726 C727 1.351 . S
C726 N729 1.368 . S
C726 H731 0.931 . S
C727 C726 1.351 . S
C727 N728 1.373 . S
C727 H755 0.930 . S
N728 C727 1.373 . S
N728 C730 1.340 . S
N729 C726 1.368 . S
N729 C730 1.321 . S
N729 Co732 2.135 . S
C730 N728 1.340 . S
C730 N729 1.321 . S
C730 H754 0.930 . S
H731 C726 0.931 . S
Co732 N729 2.135 . S
Co732 N735 2.121 . S
Co732 O740 2.055 . S
Co732 O743 2.039 . S
Co732 N746 2.140 . S
C733 O734 1.227 . S
C733 O743 1.265 . S
O734 C733 1.227 . S
N735 Co732 2.121 . S
N735 C737 1.375 . S
N735 C738 1.313 . S
C736 C737 1.338 . S
C736 N739 1.377 . S
C736 H756 0.930 . S
C737 N735 1.375 . S
C737 C736 1.338 . S
C737 H741 0.931 . S
C738 N735 1.313 . S
C738 N739 1.344 . S
C738 H742 0.930 . S
N739 C736 1.377 . S
N739 C738 1.344 . S
O740 Co732 2.055 . S
O740 C744 1.253 . S
H741 C737 0.931 . S
H742 C738 0.930 . S
O743 Co732 2.039 . S
O743 C733 1.265 . S
C744 O740 1.253 . S
C744 O745 1.227 . S
O745 C744 1.227 . S
N746 Co732 2.140 . S
N746 C749 1.346 . S
N746 C750 1.345 . S
C747 C748 1.387 . S
C747 C751 1.391 . S
C748 C747 1.387 . S
C748 C749 1.369 . S
C748 H757 0.929 . S
C749 N746 1.346 . S
C749 C748 1.369 . S
C749 H752 0.928 . S
C750 N746 1.345 . S
C750 C751 1.371 . S
C750 H753 0.931 . S
C751 C747 1.391 . S
C751 C750 1.371 . S
C751 H758 0.930 . S
H752 C749 0.928 . S
H753 C750 0.931 . S
H754 C730 0.930 . S
H755 C727 0.930 . S
H756 C736 0.930 . S
H757 C748 0.929 . S
H758 C751 0.930 . S
C759 C760 1.351 . S
C759 N762 1.368 . S
C759 H764 0.931 . S
C760 C759 1.351 . S
C760 N761 1.373 . S
C760 H788 0.930 . S
N761 C760 1.373 . S
N761 C763 1.340 . S
N762 C759 1.368 . S
N762 C763 1.321 . S
N762 Co765 2.135 . S
C763 N761 1.340 . S
C763 N762 1.321 . S
C763 H787 0.930 . S
H764 C759 0.931 . S
Co765 N762 2.135 . S
Co765 N768 2.121 . S
Co765 O773 2.055 . S
Co765 O776 2.039 . S
Co765 N779 2.140 . S
C766 O767 1.227 . S
C766 O776 1.265 . S
O767 C766 1.227 . S
N768 Co765 2.121 . S
N768 C770 1.375 . S
N768 C771 1.313 . S
C769 C770 1.338 . S
C769 N772 1.377 . S
C769 H789 0.930 . S
C770 N768 1.375 . S
C770 C769 1.338 . S
C770 H774 0.931 . S
C771 N768 1.313 . S
C771 N772 1.344 . S
C771 H775 0.930 . S
N772 C769 1.377 . S
N772 C771 1.344 . S
O773 Co765 2.055 . S
O773 C777 1.253 . S
H774 C770 0.931 . S
H775 C771 0.930 . S
O776 Co765 2.039 . S
O776 C766 1.265 . S
C777 O773 1.253 . S
C777 O778 1.227 . S
O778 C777 1.227 . S
N779 Co765 2.140 . S
N779 C782 1.346 . S
N779 C783 1.345 . S
C780 C781 1.387 . S
C780 C784 1.391 . S
C781 C780 1.387 . S
C781 C782 1.369 . S
C781 H790 0.929 . S
C782 N779 1.346 . S
C782 C781 1.369 . S
C782 H785 0.928 . S
C783 N779 1.345 . S
C783 C784 1.371 . S
C783 H786 0.931 . S
C784 C780 1.391 . S
C784 C783 1.371 . S
C784 H791 0.930 . S
H785 C782 0.928 . S
H786 C783 0.931 . S
H787 C763 0.930 . S
H788 C760 0.930 . S
H789 C769 0.930 . S
H790 C781 0.929 . S
H791 C784 0.930 . S
C792 C793 1.351 . S
C792 N795 1.368 . S
C792 H797 0.931 . S
C793 C792 1.351 . S
C793 N794 1.373 . S
C793 H821 0.930 . S
N794 C793 1.373 . S
N794 C796 1.340 . S
N795 C792 1.368 . S
N795 C796 1.321 . S
N795 Co798 2.135 . S
C796 N794 1.340 . S
C796 N795 1.321 . S
C796 H820 0.930 . S
H797 C792 0.931 . S
Co798 N795 2.135 . S
Co798 N801 2.121 . S
Co798 O806 2.055 . S
Co798 O809 2.039 . S
Co798 N812 2.140 . S
C799 O800 1.227 . S
C799 O809 1.265 . S
O800 C799 1.227 . S
N801 Co798 2.121 . S
N801 C803 1.375 . S
N801 C804 1.313 . S
C802 C803 1.338 . S
C802 N805 1.377 . S
C802 H822 0.930 . S
C803 N801 1.375 . S
C803 C802 1.338 . S
C803 H807 0.931 . S
C804 N801 1.313 . S
C804 N805 1.344 . S
C804 H808 0.930 . S
N805 C802 1.377 . S
N805 C804 1.344 . S
O806 Co798 2.055 . S
O806 C810 1.253 . S
H807 C803 0.931 . S
H808 C804 0.930 . S
O809 Co798 2.039 . S
O809 C799 1.265 . S
C810 O806 1.253 . S
C810 O811 1.227 . S
O811 C810 1.227 . S
N812 Co798 2.140 . S
N812 C815 1.346 . S
N812 C816 1.345 . S
C813 C814 1.387 . S
C813 C817 1.391 . S
C814 C813 1.387 . S
C814 C815 1.369 . S
C814 H823 0.929 . S
C815 N812 1.346 . S
C815 C814 1.369 . S
C815 H818 0.928 . S
C816 N812 1.345 . S
C816 C817 1.371 . S
C816 H819 0.931 . S
C817 C813 1.391 . S
C817 C816 1.371 . S
C817 H824 0.930 . S
H818 C815 0.928 . S
H819 C816 0.931 . S
H820 C796 0.930 . S
H821 C793 0.930 . S
H822 C802 0.930 . S
H823 C814 0.929 . S
H824 C817 0.930 . S
C825 C826 1.351 . S
C825 N828 1.368 . S
C825 H830 0.931 . S
C826 C825 1.351 . S
C826 N827 1.373 . S
C826 H854 0.930 . S
N827 C826 1.373 . S
N827 C829 1.340 . S
N828 C825 1.368 . S
N828 C829 1.321 . S
N828 Co831 2.135 . S
C829 N827 1.340 . S
C829 N828 1.321 . S
C829 H853 0.930 . S
H830 C825 0.931 . S
Co831 N828 2.135 . S
Co831 N834 2.121 . S
Co831 O839 2.055 . S
Co831 O842 2.039 . S
Co831 N845 2.140 . S
C832 O833 1.227 . S
C832 O842 1.265 . S
O833 C832 1.227 . S
N834 Co831 2.121 . S
N834 C836 1.375 . S
N834 C837 1.313 . S
C835 C836 1.338 . S
C835 N838 1.377 . S
C835 H855 0.930 . S
C836 N834 1.375 . S
C836 C835 1.338 . S
C836 H840 0.931 . S
C837 N834 1.313 . S
C837 N838 1.344 . S
C837 H841 0.930 . S
N838 C835 1.377 . S
N838 C837 1.344 . S
O839 Co831 2.055 . S
O839 C843 1.253 . S
H840 C836 0.931 . S
H841 C837 0.930 . S
O842 Co831 2.039 . S
O842 C832 1.265 . S
C843 O839 1.253 . S
C843 O844 1.227 . S
O844 C843 1.227 . S
N845 Co831 2.140 . S
N845 C848 1.346 . S
N845 C849 1.345 . S
C846 C847 1.387 . S
C846 C850 1.391 . S
C847 C846 1.387 . S
C847 C848 1.369 . S
C847 H856 0.929 . S
C848 N845 1.346 . S
C848 C847 1.369 . S
C848 H851 0.928 . S
C849 N845 1.345 . S
C849 C850 1.371 . S
C849 H852 0.931 . S
C850 C846 1.391 . S
C850 C849 1.371 . S
C850 H857 0.930 . S
H851 C848 0.928 . S
H852 C849 0.931 . S
H853 C829 0.930 . S
H854 C826 0.930 . S
H855 C835 0.930 . S
H856 C847 0.929 . S
H857 C850 0.930 . S
C858 C859 1.351 . S
C858 N861 1.368 . S
C858 H863 0.931 . S
C859 C858 1.351 . S
C859 N860 1.373 . S
C859 H887 0.930 . S
N860 C859 1.373 . S
N860 C862 1.340 . S
N861 C858 1.368 . S
N861 C862 1.321 . S
N861 Co864 2.135 . S
C862 N860 1.340 . S
C862 N861 1.321 . S
C862 H886 0.930 . S
H863 C858 0.931 . S
Co864 N861 2.135 . S
Co864 N867 2.121 . S
Co864 O872 2.055 . S
Co864 O875 2.039 . S
Co864 N878 2.140 . S
C865 O866 1.227 . S
C865 O875 1.265 . S
O866 C865 1.227 . S
N867 Co864 2.121 . S
N867 C869 1.375 . S
N867 C870 1.313 . S
C868 C869 1.338 . S
C868 N871 1.377 . S
C868 H888 0.930 . S
C869 N867 1.375 . S
C869 C868 1.338 . S
C869 H873 0.931 . S
C870 N867 1.313 . S
C870 N871 1.344 . S
C870 H874 0.930 . S
N871 C868 1.377 . S
N871 C870 1.344 . S
O872 Co864 2.055 . S
O872 C876 1.253 . S
H873 C869 0.931 . S
H874 C870 0.930 . S
O875 Co864 2.039 . S
O875 C865 1.265 . S
C876 O872 1.253 . S
C876 O877 1.227 . S
O877 C876 1.227 . S
N878 Co864 2.140 . S
N878 C881 1.346 . S
N878 C882 1.345 . S
C879 C880 1.387 . S
C879 C883 1.391 . S
C880 C879 1.387 . S
C880 C881 1.369 . S
C880 H889 0.929 . S
C881 N878 1.346 . S
C881 C880 1.369 . S
C881 H884 0.928 . S
C882 N878 1.345 . S
C882 C883 1.371 . S
C882 H885 0.931 . S
C883 C879 1.391 . S
C883 C882 1.371 . S
C883 H890 0.930 . S
H884 C881 0.928 . S
H885 C882 0.931 . S
H886 C862 0.930 . S
H887 C859 0.930 . S
H888 C868 0.930 . S
H889 C880 0.929 . S
H890 C883 0.930 . S
C891 C892 1.351 . S
C891 N894 1.368 . S
C891 H896 0.931 . S
C892 C891 1.351 . S
C892 N893 1.373 . S
C892 H920 0.930 . S
N893 C892 1.373 . S
N893 C895 1.340 . S
N894 C891 1.368 . S
N894 C895 1.321 . S
N894 Co897 2.135 . S
C895 N893 1.340 . S
C895 N894 1.321 . S
C895 H919 0.930 . S
H896 C891 0.931 . S
Co897 N894 2.135 . S
Co897 N900 2.121 . S
Co897 O905 2.055 . S
Co897 O908 2.039 . S
Co897 N911 2.140 . S
C898 O899 1.227 . S
C898 O908 1.265 . S
O899 C898 1.227 . S
N900 Co897 2.121 . S
N900 C902 1.375 . S
N900 C903 1.313 . S
C901 C902 1.338 . S
C901 N904 1.377 . S
C901 H921 0.930 . S
C902 N900 1.375 . S
C902 C901 1.338 . S
C902 H906 0.931 . S
C903 N900 1.313 . S
C903 N904 1.344 . S
C903 H907 0.930 . S
N904 C901 1.377 . S
N904 C903 1.344 . S
O905 Co897 2.055 . S
O905 C909 1.253 . S
H906 C902 0.931 . S
H907 C903 0.930 . S
O908 Co897 2.039 . S
O908 C898 1.265 . S
C909 O905 1.253 . S
C909 O910 1.227 . S
O910 C909 1.227 . S
N911 Co897 2.140 . S
N911 C914 1.346 . S
N911 C915 1.345 . S
C912 C913 1.387 . S
C912 C916 1.391 . S
C913 C912 1.387 . S
C913 C914 1.369 . S
C913 H922 0.929 . S
C914 N911 1.346 . S
C914 C913 1.369 . S
C914 H917 0.928 . S
C915 N911 1.345 . S
C915 C916 1.371 . S
C915 H918 0.931 . S
C916 C912 1.391 . S
C916 C915 1.371 . S
C916 H923 0.930 . S
H917 C914 0.928 . S
H918 C915 0.931 . S
H919 C895 0.930 . S
H920 C892 0.930 . S
H921 C901 0.930 . S
H922 C913 0.929 . S
H923 C916 0.930 . S
C924 C925 1.351 . S
C924 N927 1.368 . S
C924 H929 0.931 . S
C925 C924 1.351 . S
C925 N926 1.373 . S
C925 H953 0.930 . S
N926 C925 1.373 . S
N926 C928 1.340 . S
N927 C924 1.368 . S
N927 C928 1.321 . S
N927 Co930 2.135 . S
C928 N926 1.340 . S
C928 N927 1.321 . S
C928 H952 0.930 . S
H929 C924 0.931 . S
Co930 N927 2.135 . S
Co930 N933 2.121 . S
Co930 O938 2.055 . S
Co930 O941 2.039 . S
Co930 N944 2.140 . S
C931 O932 1.227 . S
C931 O941 1.265 . S
O932 C931 1.227 . S
N933 Co930 2.121 . S
N933 C935 1.375 . S
N933 C936 1.313 . S
C934 C935 1.338 . S
C934 N937 1.377 . S
C934 H954 0.930 . S
C935 N933 1.375 . S
C935 C934 1.338 . S
C935 H939 0.931 . S
C936 N933 1.313 . S
C936 N937 1.344 . S
C936 H940 0.930 . S
N937 C934 1.377 . S
N937 C936 1.344 . S
O938 Co930 2.055 . S
O938 C942 1.253 . S
H939 C935 0.931 . S
H940 C936 0.930 . S
O941 Co930 2.039 . S
O941 C931 1.265 . S
C942 O938 1.253 . S
C942 O943 1.227 . S
O943 C942 1.227 . S
N944 Co930 2.140 . S
N944 C947 1.346 . S
N944 C948 1.345 . S
C945 C946 1.387 . S
C945 C949 1.391 . S
C946 C945 1.387 . S
C946 C947 1.369 . S
C946 H955 0.929 . S
C947 N944 1.346 . S
C947 C946 1.369 . S
C947 H950 0.928 . S
C948 N944 1.345 . S
C948 C949 1.371 . S
C948 H951 0.931 . S
C949 C945 1.391 . S
C949 C948 1.371 . S
C949 H956 0.930 . S
H950 C947 0.928 . S
H951 C948 0.931 . S
H952 C928 0.930 . S
H953 C925 0.930 . S
H954 C934 0.930 . S
H955 C946 0.929 . S
H956 C949 0.930 . S
C957 C958 1.351 . S
C957 N960 1.368 . S
C957 H962 0.931 . S
C958 C957 1.351 . S
C958 N959 1.373 . S
C958 H986 0.930 . S
N959 C958 1.373 . S
N959 C961 1.340 . S
N960 C957 1.368 . S
N960 C961 1.321 . S
N960 Co963 2.135 . S
C961 N959 1.340 . S
C961 N960 1.321 . S
C961 H985 0.930 . S
H962 C957 0.931 . S
Co963 N960 2.135 . S
Co963 N966 2.121 . S
Co963 O971 2.055 . S
Co963 O974 2.039 . S
Co963 N977 2.140 . S
C964 O965 1.227 . S
C964 O974 1.265 . S
O965 C964 1.227 . S
N966 Co963 2.121 . S
N966 C968 1.375 . S
N966 C969 1.313 . S
C967 C968 1.338 . S
C967 N970 1.377 . S
C967 H987 0.930 . S
C968 N966 1.375 . S
C968 C967 1.338 . S
C968 H972 0.931 . S
C969 N966 1.313 . S
C969 N970 1.344 . S
C969 H973 0.930 . S
N970 C967 1.377 . S
N970 C969 1.344 . S
O971 Co963 2.055 . S
O971 C975 1.253 . S
H972 C968 0.931 . S
H973 C969 0.930 . S
O974 Co963 2.039 . S
O974 C964 1.265 . S
C975 O971 1.253 . S
C975 O976 1.227 . S
O976 C975 1.227 . S
N977 Co963 2.140 . S
N977 C980 1.346 . S
N977 C981 1.345 . S
C978 C979 1.387 . S
C978 C982 1.391 . S
C979 C978 1.387 . S
C979 C980 1.369 . S
C979 H988 0.929 . S
C980 N977 1.346 . S
C980 C979 1.369 . S
C980 H983 0.928 . S
C981 N977 1.345 . S
C981 C982 1.371 . S
C981 H984 0.931 . S
C982 C978 1.391 . S
C982 C981 1.371 . S
C982 H989 0.930 . S
H983 C980 0.928 . S
H984 C981 0.931 . S
H985 C961 0.930 . S
H986 C958 0.930 . S
H987 C967 0.930 . S
H988 C979 0.929 . S
H989 C982 0.930 . S
C990 C991 1.351 . S
C990 N993 1.368 . S
C990 H995 0.931 . S
C991 C990 1.351 . S
C991 N992 1.373 . S
C991 H1019 0.930 . S
N992 C991 1.373 . S
N992 C994 1.340 . S
N993 C990 1.368 . S
N993 C994 1.321 . S
N993 Co996 2.135 . S
C994 N992 1.340 . S
C994 N993 1.321 . S
C994 H1018 0.930 . S
H995 C990 0.931 . S
Co996 N993 2.135 . S
Co996 N999 2.121 . S
Co996 O1004 2.055 . S
Co996 O1007 2.039 . S
Co996 N1010 2.140 . S
C997 O998 1.227 . S
C997 O1007 1.265 . S
O998 C997 1.227 . S
N999 Co996 2.121 . S
N999 C1001 1.375 . S
N999 C1002 1.313 . S
C1000 C1001 1.338 . S
C1000 N1003 1.377 . S
C1000 H1020 0.930 . S
C1001 N999 1.375 . S
C1001 C1000 1.338 . S
C1001 H1005 0.931 . S
C1002 N999 1.313 . S
C1002 N1003 1.344 . S
C1002 H1006 0.930 . S
N1003 C1000 1.377 . S
N1003 C1002 1.344 . S
O1004 Co996 2.055 . S
O1004 C1008 1.253 . S
H1005 C1001 0.931 . S
H1006 C1002 0.930 . S
O1007 Co996 2.039 . S
O1007 C997 1.265 . S
C1008 O1004 1.253 . S
C1008 O1009 1.227 . S
O1009 C1008 1.227 . S
N1010 Co996 2.140 . S
N1010 C1013 1.346 . S
N1010 C1014 1.345 . S
C1011 C1012 1.387 . S
C1011 C1015 1.391 . S
C1012 C1011 1.387 . S
C1012 C1013 1.369 . S
C1012 H1021 0.929 . S
C1013 N1010 1.346 . S
C1013 C1012 1.369 . S
C1013 H1016 0.928 . S
C1014 N1010 1.345 . S
C1014 C1015 1.371 . S
C1014 H1017 0.931 . S
C1015 C1011 1.391 . S
C1015 C1014 1.371 . S
C1015 H1022 0.930 . S
H1016 C1013 0.928 . S
H1017 C1014 0.931 . S
H1018 C994 0.930 . S
H1019 C991 0.930 . S
H1020 C1000 0.930 . S
H1021 C1012 0.929 . S
H1022 C1015 0.930 . S
C1023 C1024 1.351 . S
C1023 N1026 1.368 . S
C1023 H1028 0.931 . S
C1024 C1023 1.351 . S
C1024 N1025 1.373 . S
C1024 H1052 0.930 . S
N1025 C1024 1.373 . S
N1025 C1027 1.340 . S
N1026 C1023 1.368 . S
N1026 C1027 1.321 . S
N1026 Co1029 2.135 . S
C1027 N1025 1.340 . S
C1027 N1026 1.321 . S
C1027 H1051 0.930 . S
H1028 C1023 0.931 . S
Co1029 N1026 2.135 . S
Co1029 N1032 2.121 . S
Co1029 O1037 2.055 . S
Co1029 O1040 2.039 . S
Co1029 N1043 2.140 . S
C1030 O1031 1.227 . S
C1030 O1040 1.265 . S
O1031 C1030 1.227 . S
N1032 Co1029 2.121 . S
N1032 C1034 1.375 . S
N1032 C1035 1.313 . S
C1033 C1034 1.338 . S
C1033 N1036 1.377 . S
C1033 H1053 0.930 . S
C1034 N1032 1.375 . S
C1034 C1033 1.338 . S
C1034 H1038 0.931 . S
C1035 N1032 1.313 . S
C1035 N1036 1.344 . S
C1035 H1039 0.930 . S
N1036 C1033 1.377 . S
N1036 C1035 1.344 . S
O1037 Co1029 2.055 . S
O1037 C1041 1.253 . S
H1038 C1034 0.931 . S
H1039 C1035 0.930 . S
O1040 Co1029 2.039 . S
O1040 C1030 1.265 . S
C1041 O1037 1.253 . S
C1041 O1042 1.227 . S
O1042 C1041 1.227 . S
N1043 Co1029 2.140 . S
N1043 C1046 1.346 . S
N1043 C1047 1.345 . S
C1044 C1045 1.387 . S
C1044 C1048 1.391 . S
C1045 C1044 1.387 . S
C1045 C1046 1.369 . S
C1045 H1054 0.929 . S
C1046 N1043 1.346 . S
C1046 C1045 1.369 . S
C1046 H1049 0.928 . S
C1047 N1043 1.345 . S
C1047 C1048 1.371 . S
C1047 H1050 0.931 . S
C1048 C1044 1.391 . S
C1048 C1047 1.371 . S
C1048 H1055 0.930 . S
H1049 C1046 0.928 . S
H1050 C1047 0.931 . S
H1051 C1027 0.930 . S
H1052 C1024 0.930 . S
H1053 C1033 0.930 . S
H1054 C1045 0.929 . S
H1055 C1048 0.930 . S
C1056 C1057 1.351 . S
C1056 N1059 1.368 . S
C1056 H1061 0.931 . S
C1057 C1056 1.351 . S
C1057 N1058 1.373 . S
C1057 H1085 0.930 . S
N1058 C1057 1.373 . S
N1058 C1060 1.340 . S
N1059 C1056 1.368 . S
N1059 C1060 1.321 . S
N1059 Co1062 2.135 . S
C1060 N1058 1.340 . S
C1060 N1059 1.321 . S
C1060 H1084 0.930 . S
H1061 C1056 0.931 . S
Co1062 N1059 2.135 . S
Co1062 N1065 2.121 . S
Co1062 O1070 2.055 . S
Co1062 O1073 2.039 . S
Co1062 N1076 2.140 . S
C1063 O1064 1.227 . S
C1063 O1073 1.265 . S
O1064 C1063 1.227 . S
N1065 Co1062 2.121 . S
N1065 C1067 1.375 . S
N1065 C1068 1.313 . S
C1066 C1067 1.338 . S
C1066 N1069 1.377 . S
C1066 H1086 0.930 . S
C1067 N1065 1.375 . S
C1067 C1066 1.338 . S
C1067 H1071 0.931 . S
C1068 N1065 1.313 . S
C1068 N1069 1.344 . S
C1068 H1072 0.930 . S
N1069 C1066 1.377 . S
N1069 C1068 1.344 . S
O1070 Co1062 2.055 . S
O1070 C1074 1.253 . S
H1071 C1067 0.931 . S
H1072 C1068 0.930 . S
O1073 Co1062 2.039 . S
O1073 C1063 1.265 . S
C1074 O1070 1.253 . S
C1074 O1075 1.227 . S
O1075 C1074 1.227 . S
N1076 Co1062 2.140 . S
N1076 C1079 1.346 . S
N1076 C1080 1.345 . S
C1077 C1078 1.387 . S
C1077 C1081 1.391 . S
C1078 C1077 1.387 . S
C1078 C1079 1.369 . S
C1078 H1087 0.929 . S
C1079 N1076 1.346 . S
C1079 C1078 1.369 . S
C1079 H1082 0.928 . S
C1080 N1076 1.345 . S
C1080 C1081 1.371 . S
C1080 H1083 0.931 . S
C1081 C1077 1.391 . S
C1081 C1080 1.371 . S
C1081 H1088 0.930 . S
H1082 C1079 0.928 . S
H1083 C1080 0.931 . S
H1084 C1060 0.930 . S
H1085 C1057 0.930 . S
H1086 C1066 0.930 . S
H1087 C1078 0.929 . S
H1088 C1081 0.930 . S
C1089 C1090 1.351 . S
C1089 N1092 1.368 . S
C1089 H1094 0.931 . S
C1090 C1089 1.351 . S
C1090 N1091 1.373 . S
C1090 H1118 0.930 . S
N1091 C1090 1.373 . S
N1091 C1093 1.340 . S
N1092 C1089 1.368 . S
N1092 C1093 1.321 . S
N1092 Co1095 2.135 . S
C1093 N1091 1.340 . S
C1093 N1092 1.321 . S
C1093 H1117 0.930 . S
H1094 C1089 0.931 . S
Co1095 N1092 2.135 . S
Co1095 N1098 2.121 . S
Co1095 O1103 2.055 . S
Co1095 O1106 2.039 . S
Co1095 N1109 2.140 . S
C1096 O1097 1.227 . S
C1096 O1106 1.265 . S
O1097 C1096 1.227 . S
N1098 Co1095 2.121 . S
N1098 C1100 1.375 . S
N1098 C1101 1.313 . S
C1099 C1100 1.338 . S
C1099 N1102 1.377 . S
C1099 H1119 0.930 . S
C1100 N1098 1.375 . S
C1100 C1099 1.338 . S
C1100 H1104 0.931 . S
C1101 N1098 1.313 . S
C1101 N1102 1.344 . S
C1101 H1105 0.930 . S
N1102 C1099 1.377 . S
N1102 C1101 1.344 . S
O1103 Co1095 2.055 . S
O1103 C1107 1.253 . S
H1104 C1100 0.931 . S
H1105 C1101 0.930 . S
O1106 Co1095 2.039 . S
O1106 C1096 1.265 . S
C1107 O1103 1.253 . S
C1107 O1108 1.227 . S
O1108 C1107 1.227 . S
N1109 Co1095 2.140 . S
N1109 C1112 1.346 . S
N1109 C1113 1.345 . S
C1110 C1111 1.387 . S
C1110 C1114 1.391 . S
C1111 C1110 1.387 . S
C1111 C1112 1.369 . S
C1111 H1120 0.929 . S
C1112 N1109 1.346 . S
C1112 C1111 1.369 . S
C1112 H1115 0.928 . S
C1113 N1109 1.345 . S
C1113 C1114 1.371 . S
C1113 H1116 0.931 . S
C1114 C1110 1.391 . S
C1114 C1113 1.371 . S
C1114 H1121 0.930 . S
H1115 C1112 0.928 . S
H1116 C1113 0.931 . S
H1117 C1093 0.930 . S
H1118 C1090 0.930 . S
H1119 C1099 0.930 . S
H1120 C1111 0.929 . S
H1121 C1114 0.930 . S
C1122 C1123 1.351 . S
C1122 N1125 1.368 . S
C1122 H1127 0.931 . S
C1123 C1122 1.351 . S
C1123 N1124 1.373 . S
C1123 H1151 0.930 . S
N1124 C1123 1.373 . S
N1124 C1126 1.340 . S
N1125 C1122 1.368 . S
N1125 C1126 1.321 . S
N1125 Co1128 2.135 . S
C1126 N1124 1.340 . S
C1126 N1125 1.321 . S
C1126 H1150 0.930 . S
H1127 C1122 0.931 . S
Co1128 N1125 2.135 . S
Co1128 N1131 2.121 . S
Co1128 O1136 2.055 . S
Co1128 O1139 2.039 . S
Co1128 N1142 2.140 . S
C1129 O1130 1.227 . S
C1129 O1139 1.265 . S
O1130 C1129 1.227 . S
N1131 Co1128 2.121 . S
N1131 C1133 1.375 . S
N1131 C1134 1.313 . S
C1132 C1133 1.338 . S
C1132 N1135 1.377 . S
C1132 H1152 0.930 . S
C1133 N1131 1.375 . S
C1133 C1132 1.338 . S
C1133 H1137 0.931 . S
C1134 N1131 1.313 . S
C1134 N1135 1.344 . S
C1134 H1138 0.930 . S
N1135 C1132 1.377 . S
N1135 C1134 1.344 . S
O1136 Co1128 2.055 . S
O1136 C1140 1.253 . S
H1137 C1133 0.931 . S
H1138 C1134 0.930 . S
O1139 Co1128 2.039 . S
O1139 C1129 1.265 . S
C1140 O1136 1.253 . S
C1140 O1141 1.227 . S
O1141 C1140 1.227 . S
N1142 Co1128 2.140 . S
N1142 C1145 1.346 . S
N1142 C1146 1.345 . S
C1143 C1144 1.387 . S
C1143 C1147 1.391 . S
C1144 C1143 1.387 . S
C1144 C1145 1.369 . S
C1144 H1153 0.929 . S
C1145 N1142 1.346 . S
C1145 C1144 1.369 . S
C1145 H1148 0.928 . S
C1146 N1142 1.345 . S
C1146 C1147 1.371 . S
C1146 H1149 0.931 . S
C1147 C1143 1.391 . S
C1147 C1146 1.371 . S
C1147 H1154 0.930 . S
H1148 C1145 0.928 . S
H1149 C1146 0.931 . S
H1150 C1126 0.930 . S
H1151 C1123 0.930 . S
H1152 C1132 0.930 . S
H1153 C1144 0.929 . S
H1154 C1147 0.930 . S
C1155 C1156 1.351 . S
C1155 N1158 1.368 . S
C1155 H1160 0.931 . S
C1156 C1155 1.351 . S
C1156 N1157 1.373 . S
C1156 H1184 0.930 . S
N1157 C1156 1.373 . S
N1157 C1159 1.340 . S
N1158 C1155 1.368 . S
N1158 C1159 1.321 . S
N1158 Co1161 2.135 . S
C1159 N1157 1.340 . S
C1159 N1158 1.321 . S
C1159 H1183 0.930 . S
H1160 C1155 0.931 . S
Co1161 N1158 2.135 . S
Co1161 N1164 2.121 . S
Co1161 O1169 2.055 . S
Co1161 O1172 2.039 . S
Co1161 N1175 2.140 . S
C1162 O1163 1.227 . S
C1162 O1172 1.265 . S
O1163 C1162 1.227 . S
N1164 Co1161 2.121 . S
N1164 C1166 1.375 . S
N1164 C1167 1.313 . S
C1165 C1166 1.338 . S
C1165 N1168 1.377 . S
C1165 H1185 0.930 . S
C1166 N1164 1.375 . S
C1166 C1165 1.338 . S
C1166 H1170 0.931 . S
C1167 N1164 1.313 . S
C1167 N1168 1.344 . S
C1167 H1171 0.930 . S
N1168 C1165 1.377 . S
N1168 C1167 1.344 . S
O1169 Co1161 2.055 . S
O1169 C1173 1.253 . S
H1170 C1166 0.931 . S
H1171 C1167 0.930 . S
O1172 Co1161 2.039 . S
O1172 C1162 1.265 . S
C1173 O1169 1.253 . S
C1173 O1174 1.227 . S
O1174 C1173 1.227 . S
N1175 Co1161 2.140 . S
N1175 C1178 1.346 . S
N1175 C1179 1.345 . S
C1176 C1177 1.387 . S
C1176 C1180 1.391 . S
C1177 C1176 1.387 . S
C1177 C1178 1.369 . S
C1177 H1186 0.929 . S
C1178 N1175 1.346 . S
C1178 C1177 1.369 . S
C1178 H1181 0.928 . S
C1179 N1175 1.345 . S
C1179 C1180 1.371 . S
C1179 H1182 0.931 . S
C1180 C1176 1.391 . S
C1180 C1179 1.371 . S
C1180 H1187 0.930 . S
H1181 C1178 0.928 . S
H1182 C1179 0.931 . S
H1183 C1159 0.930 . S
H1184 C1156 0.930 . S
H1185 C1165 0.930 . S
H1186 C1177 0.929 . S
H1187 C1180 0.930 . S
C1188 C1189 1.351 . S
C1188 N1191 1.368 . S
C1188 H1193 0.931 . S
C1189 C1188 1.351 . S
C1189 N1190 1.373 . S
C1189 H1217 0.930 . S
N1190 C1189 1.373 . S
N1190 C1192 1.340 . S
N1191 C1188 1.368 . S
N1191 C1192 1.321 . S
N1191 Co1194 2.135 . S
C1192 N1190 1.340 . S
C1192 N1191 1.321 . S
C1192 H1216 0.930 . S
H1193 C1188 0.931 . S
Co1194 N1191 2.135 . S
Co1194 N1197 2.121 . S
Co1194 O1202 2.055 . S
Co1194 O1205 2.039 . S
Co1194 N1208 2.140 . S
C1195 O1196 1.227 . S
C1195 O1205 1.265 . S
O1196 C1195 1.227 . S
N1197 Co1194 2.121 . S
N1197 C1199 1.375 . S
N1197 C1200 1.313 . S
C1198 C1199 1.338 . S
C1198 N1201 1.377 . S
C1198 H1218 0.930 . S
C1199 N1197 1.375 . S
C1199 C1198 1.338 . S
C1199 H1203 0.931 . S
C1200 N1197 1.313 . S
C1200 N1201 1.344 . S
C1200 H1204 0.930 . S
N1201 C1198 1.377 . S
N1201 C1200 1.344 . S
O1202 Co1194 2.055 . S
O1202 C1206 1.253 . S
H1203 C1199 0.931 . S
H1204 C1200 0.930 . S
O1205 Co1194 2.039 . S
O1205 C1195 1.265 . S
C1206 O1202 1.253 . S
C1206 O1207 1.227 . S
O1207 C1206 1.227 . S
N1208 Co1194 2.140 . S
N1208 C1211 1.346 . S
N1208 C1212 1.345 . S
C1209 C1210 1.387 . S
C1209 C1213 1.391 . S
C1210 C1209 1.387 . S
C1210 C1211 1.369 . S
C1210 H1219 0.929 . S
C1211 N1208 1.346 . S
C1211 C1210 1.369 . S
C1211 H1214 0.928 . S
C1212 N1208 1.345 . S
C1212 C1213 1.371 . S
C1212 H1215 0.931 . S
C1213 C1209 1.391 . S
C1213 C1212 1.371 . S
C1213 H1220 0.930 . S
H1214 C1211 0.928 . S
H1215 C1212 0.931 . S
H1216 C1192 0.930 . S
H1217 C1189 0.930 . S
H1218 C1198 0.930 . S
H1219 C1210 0.929 . S
H1220 C1213 0.930 . S
C1221 C1222 1.351 . S
C1221 N1224 1.368 . S
C1221 H1226 0.931 . S
C1222 C1221 1.351 . S
C1222 N1223 1.373 . S
C1222 H1250 0.930 . S
N1223 C1222 1.373 . S
N1223 C1225 1.340 . S
N1224 C1221 1.368 . S
N1224 C1225 1.321 . S
N1224 Co1227 2.135 . S
C1225 N1223 1.340 . S
C1225 N1224 1.321 . S
C1225 H1249 0.930 . S
H1226 C1221 0.931 . S
Co1227 N1224 2.135 . S
Co1227 N1230 2.121 . S
Co1227 O1235 2.055 . S
Co1227 O1238 2.039 . S
Co1227 N1241 2.140 . S
C1228 O1229 1.227 . S
C1228 O1238 1.265 . S
O1229 C1228 1.227 . S
N1230 Co1227 2.121 . S
N1230 C1232 1.375 . S
N1230 C1233 1.313 . S
C1231 C1232 1.338 . S
C1231 N1234 1.377 . S
C1231 H1251 0.930 . S
C1232 N1230 1.375 . S
C1232 C1231 1.338 . S
C1232 H1236 0.931 . S
C1233 N1230 1.313 . S
C1233 N1234 1.344 . S
C1233 H1237 0.930 . S
N1234 C1231 1.377 . S
N1234 C1233 1.344 . S
O1235 Co1227 2.055 . S
O1235 C1239 1.253 . S
H1236 C1232 0.931 . S
H1237 C1233 0.930 . S
O1238 Co1227 2.039 . S
O1238 C1228 1.265 . S
C1239 O1235 1.253 . S
C1239 O1240 1.227 . S
O1240 C1239 1.227 . S
N1241 Co1227 2.140 . S
N1241 C1244 1.346 . S
N1241 C1245 1.345 . S
C1242 C1243 1.387 . S
C1242 C1246 1.391 . S
C1243 C1242 1.387 . S
C1243 C1244 1.369 . S
C1243 H1252 0.929 . S
C1244 N1241 1.346 . S
C1244 C1243 1.369 . S
C1244 H1247 0.928 . S
C1245 N1241 1.345 . S
C1245 C1246 1.371 . S
C1245 H1248 0.931 . S
C1246 C1242 1.391 . S
C1246 C1245 1.371 . S
C1246 H1253 0.930 . S
H1247 C1244 0.928 . S
H1248 C1245 0.931 . S
H1249 C1225 0.930 . S
H1250 C1222 0.930 . S
H1251 C1231 0.930 . S
H1252 C1243 0.929 . S
H1253 C1246 0.930 . S
C1254 C1255 1.351 . S
C1254 N1257 1.368 . S
C1254 H1259 0.931 . S
C1255 C1254 1.351 . S
C1255 N1256 1.373 . S
C1255 H1283 0.930 . S
N1256 C1255 1.373 . S
N1256 C1258 1.340 . S
N1257 C1254 1.368 . S
N1257 C1258 1.321 . S
N1257 Co1260 2.135 . S
C1258 N1256 1.340 . S
C1258 N1257 1.321 . S
C1258 H1282 0.930 . S
H1259 C1254 0.931 . S
Co1260 N1257 2.135 . S
Co1260 N1263 2.121 . S
Co1260 O1268 2.055 . S
Co1260 O1271 2.039 . S
Co1260 N1274 2.140 . S
C1261 O1262 1.227 . S
C1261 O1271 1.265 . S
O1262 C1261 1.227 . S
N1263 Co1260 2.121 . S
N1263 C1265 1.375 . S
N1263 C1266 1.313 . S
C1264 C1265 1.338 . S
C1264 N1267 1.377 . S
C1264 H1284 0.930 . S
C1265 N1263 1.375 . S
C1265 C1264 1.338 . S
C1265 H1269 0.931 . S
C1266 N1263 1.313 . S
C1266 N1267 1.344 . S
C1266 H1270 0.930 . S
N1267 C1264 1.377 . S
N1267 C1266 1.344 . S
O1268 Co1260 2.055 . S
O1268 C1272 1.253 . S
H1269 C1265 0.931 . S
H1270 C1266 0.930 . S
O1271 Co1260 2.039 . S
O1271 C1261 1.265 . S
C1272 O1268 1.253 . S
C1272 O1273 1.227 . S
O1273 C1272 1.227 . S
N1274 Co1260 2.140 . S
N1274 C1277 1.346 . S
N1274 C1278 1.345 . S
C1275 C1276 1.387 . S
C1275 C1279 1.391 . S
C1276 C1275 1.387 . S
C1276 C1277 1.369 . S
C1276 H1285 0.929 . S
C1277 N1274 1.346 . S
C1277 C1276 1.369 . S
C1277 H1280 0.928 . S
C1278 N1274 1.345 . S
C1278 C1279 1.371 . S
C1278 H1281 0.931 . S
C1279 C1275 1.391 . S
C1279 C1278 1.371 . S
C1279 H1286 0.930 . S
H1280 C1277 0.928 . S
H1281 C1278 0.931 . S
H1282 C1258 0.930 . S
H1283 C1255 0.930 . S
H1284 C1264 0.930 . S
H1285 C1276 0.929 . S
H1286 C1279 0.930 . S
C1287 C1288 1.351 . S
C1287 N1290 1.368 . S
C1287 H1292 0.931 . S
C1288 C1287 1.351 . S
C1288 N1289 1.373 . S
C1288 H1316 0.930 . S
N1289 C1288 1.373 . S
N1289 C1291 1.340 . S
N1290 C1287 1.368 . S
N1290 C1291 1.321 . S
N1290 Co1293 2.135 . S
C1291 N1289 1.340 . S
C1291 N1290 1.321 . S
C1291 H1315 0.930 . S
H1292 C1287 0.931 . S
Co1293 N1290 2.135 . S
Co1293 N1296 2.121 . S
Co1293 O1301 2.055 . S
Co1293 O1304 2.039 . S
Co1293 N1307 2.140 . S
C1294 O1295 1.227 . S
C1294 O1304 1.265 . S
O1295 C1294 1.227 . S
N1296 Co1293 2.121 . S
N1296 C1298 1.375 . S
N1296 C1299 1.313 . S
C1297 C1298 1.338 . S
C1297 N1300 1.377 . S
C1297 H1317 0.930 . S
C1298 N1296 1.375 . S
C1298 C1297 1.338 . S
C1298 H1302 0.931 . S
C1299 N1296 1.313 . S
C1299 N1300 1.344 . S
C1299 H1303 0.930 . S
N1300 C1297 1.377 . S
N1300 C1299 1.344 . S
O1301 Co1293 2.055 . S
O1301 C1305 1.253 . S
H1302 C1298 0.931 . S
H1303 C1299 0.930 . S
O1304 Co1293 2.039 . S
O1304 C1294 1.265 . S
C1305 O1301 1.253 . S
C1305 O1306 1.227 . S
O1306 C1305 1.227 . S
N1307 Co1293 2.140 . S
N1307 C1310 1.346 . S
N1307 C1311 1.345 . S
C1308 C1309 1.387 . S
C1308 C1312 1.391 . S
C1309 C1308 1.387 . S
C1309 C1310 1.369 . S
C1309 H1318 0.929 . S
C1310 N1307 1.346 . S
C1310 C1309 1.369 . S
C1310 H1313 0.928 . S
C1311 N1307 1.345 . S
C1311 C1312 1.371 . S
C1311 H1314 0.931 . S
C1312 C1308 1.391 . S
C1312 C1311 1.371 . S
C1312 H1319 0.930 . S
H1313 C1310 0.928 . S
H1314 C1311 0.931 . S
H1315 C1291 0.930 . S
H1316 C1288 0.930 . S
H1317 C1297 0.930 . S
H1318 C1309 0.929 . S
H1319 C1312 0.930 . S
C1320 C1321 1.351 . S
C1320 N1323 1.368 . S
C1320 H1325 0.931 . S
C1321 C1320 1.351 . S
C1321 N1322 1.373 . S
C1321 H1349 0.930 . S
N1322 C1321 1.373 . S
N1322 C1324 1.340 . S
N1323 C1320 1.368 . S
N1323 C1324 1.321 . S
N1323 Co1326 2.135 . S
C1324 N1322 1.340 . S
C1324 N1323 1.321 . S
C1324 H1348 0.930 . S
H1325 C1320 0.931 . S
Co1326 N1323 2.135 . S
Co1326 N1329 2.121 . S
Co1326 O1334 2.055 . S
Co1326 O1337 2.039 . S
Co1326 N1340 2.140 . S
C1327 O1328 1.227 . S
C1327 O1337 1.265 . S
O1328 C1327 1.227 . S
N1329 Co1326 2.121 . S
N1329 C1331 1.375 . S
N1329 C1332 1.313 . S
C1330 C1331 1.338 . S
C1330 N1333 1.377 . S
C1330 H1350 0.930 . S
C1331 N1329 1.375 . S
C1331 C1330 1.338 . S
C1331 H1335 0.931 . S
C1332 N1329 1.313 . S
C1332 N1333 1.344 . S
C1332 H1336 0.930 . S
N1333 C1330 1.377 . S
N1333 C1332 1.344 . S
O1334 Co1326 2.055 . S
O1334 C1338 1.253 . S
H1335 C1331 0.931 . S
H1336 C1332 0.930 . S
O1337 Co1326 2.039 . S
O1337 C1327 1.265 . S
C1338 O1334 1.253 . S
C1338 O1339 1.227 . S
O1339 C1338 1.227 . S
N1340 Co1326 2.140 . S
N1340 C1343 1.346 . S
N1340 C1344 1.345 . S
C1341 C1342 1.387 . S
C1341 C1345 1.391 . S
C1342 C1341 1.387 . S
C1342 C1343 1.369 . S
C1342 H1351 0.929 . S
C1343 N1340 1.346 . S
C1343 C1342 1.369 . S
C1343 H1346 0.928 . S
C1344 N1340 1.345 . S
C1344 C1345 1.371 . S
C1344 H1347 0.931 . S
C1345 C1341 1.391 . S
C1345 C1344 1.371 . S
C1345 H1352 0.930 . S
H1346 C1343 0.928 . S
H1347 C1344 0.931 . S
H1348 C1324 0.930 . S
H1349 C1321 0.930 . S
H1350 C1330 0.930 . S
H1351 C1342 0.929 . S
H1352 C1345 0.930 . S
C1353 C1354 1.351 . S
C1353 N1356 1.368 . S
C1353 H1358 0.931 . S
C1354 C1353 1.351 . S
C1354 N1355 1.373 . S
C1354 H1382 0.930 . S
N1355 C1354 1.373 . S
N1355 C1357 1.340 . S
N1356 C1353 1.368 . S
N1356 C1357 1.321 . S
N1356 Co1359 2.135 . S
C1357 N1355 1.340 . S
C1357 N1356 1.321 . S
C1357 H1381 0.930 . S
H1358 C1353 0.931 . S
Co1359 N1356 2.135 . S
Co1359 N1362 2.121 . S
Co1359 O1367 2.055 . S
Co1359 O1370 2.039 . S
Co1359 N1373 2.140 . S
C1360 O1361 1.227 . S
C1360 O1370 1.265 . S
O1361 C1360 1.227 . S
N1362 Co1359 2.121 . S
N1362 C1364 1.375 . S
N1362 C1365 1.313 . S
C1363 C1364 1.338 . S
C1363 N1366 1.377 . S
C1363 H1383 0.930 . S
C1364 N1362 1.375 . S
C1364 C1363 1.338 . S
C1364 H1368 0.931 . S
C1365 N1362 1.313 . S
C1365 N1366 1.344 . S
C1365 H1369 0.930 . S
N1366 C1363 1.377 . S
N1366 C1365 1.344 . S
O1367 Co1359 2.055 . S
O1367 C1371 1.253 . S
H1368 C1364 0.931 . S
H1369 C1365 0.930 . S
O1370 Co1359 2.039 . S
O1370 C1360 1.265 . S
C1371 O1367 1.253 . S
C1371 O1372 1.227 . S
O1372 C1371 1.227 . S
N1373 Co1359 2.140 . S
N1373 C1376 1.346 . S
N1373 C1377 1.345 . S
C1374 C1375 1.387 . S
C1374 C1378 1.391 . S
C1375 C1374 1.387 . S
C1375 C1376 1.369 . S
C1375 H1384 0.929 . S
C1376 N1373 1.346 . S
C1376 C1375 1.369 . S
C1376 H1379 0.928 . S
C1377 N1373 1.345 . S
C1377 C1378 1.371 . S
C1377 H1380 0.931 . S
C1378 C1374 1.391 . S
C1378 C1377 1.371 . S
C1378 H1385 0.930 . S
H1379 C1376 0.928 . S
H1380 C1377 0.931 . S
H1381 C1357 0.930 . S
H1382 C1354 0.930 . S
H1383 C1363 0.930 . S
H1384 C1375 0.929 . S
H1385 C1378 0.930 . S
C1386 C1387 1.351 . S
C1386 N1389 1.368 . S
C1386 H1391 0.931 . S
C1387 C1386 1.351 . S
C1387 N1388 1.373 . S
C1387 H1415 0.930 . S
N1388 C1387 1.373 . S
N1388 C1390 1.340 . S
N1389 C1386 1.368 . S
N1389 C1390 1.321 . S
N1389 Co1392 2.135 . S
C1390 N1388 1.340 . S
C1390 N1389 1.321 . S
C1390 H1414 0.930 . S
H1391 C1386 0.931 . S
Co1392 N1389 2.135 . S
Co1392 N1395 2.121 . S
Co1392 O1400 2.055 . S
Co1392 O1403 2.039 . S
Co1392 N1406 2.140 . S
C1393 O1394 1.227 . S
C1393 O1403 1.265 . S
O1394 C1393 1.227 . S
N1395 Co1392 2.121 . S
N1395 C1397 1.375 . S
N1395 C1398 1.313 . S
C1396 C1397 1.338 . S
C1396 N1399 1.377 . S
C1396 H1416 0.930 . S
C1397 N1395 1.375 . S
C1397 C1396 1.338 . S
C1397 H1401 0.931 . S
C1398 N1395 1.313 . S
C1398 N1399 1.344 . S
C1398 H1402 0.930 . S
N1399 C1396 1.377 . S
N1399 C1398 1.344 . S
O1400 Co1392 2.055 . S
O1400 C1404 1.253 . S
H1401 C1397 0.931 . S
H1402 C1398 0.930 . S
O1403 Co1392 2.039 . S
O1403 C1393 1.265 . S
C1404 O1400 1.253 . S
C1404 O1405 1.227 . S
O1405 C1404 1.227 . S
N1406 Co1392 2.140 . S
N1406 C1409 1.346 . S
N1406 C1410 1.345 . S
C1407 C1408 1.387 . S
C1407 C1411 1.391 . S
C1408 C1407 1.387 . S
C1408 C1409 1.369 . S
C1408 H1417 0.929 . S
C1409 N1406 1.346 . S
C1409 C1408 1.369 . S
C1409 H1412 0.928 . S
C1410 N1406 1.345 . S
C1410 C1411 1.371 . S
C1410 H1413 0.931 . S
C1411 C1407 1.391 . S
C1411 C1410 1.371 . S
C1411 H1418 0.930 . S
H1412 C1409 0.928 . S
H1413 C1410 0.931 . S
H1414 C1390 0.930 . S
H1415 C1387 0.930 . S
H1416 C1396 0.930 . S
H1417 C1408 0.929 . S
H1418 C1411 0.930 . S
C1419 C1420 1.351 . S
C1419 N1422 1.368 . S
C1419 H1424 0.931 . S
C1420 C1419 1.351 . S
C1420 N1421 1.373 . S
C1420 H1448 0.930 . S
N1421 C1420 1.373 . S
N1421 C1423 1.340 . S
N1422 C1419 1.368 . S
N1422 C1423 1.321 . S
N1422 Co1425 2.135 . S
C1423 N1421 1.340 . S
C1423 N1422 1.321 . S
C1423 H1447 0.930 . S
H1424 C1419 0.931 . S
Co1425 N1422 2.135 . S
Co1425 N1428 2.121 . S
Co1425 O1433 2.055 . S
Co1425 O1436 2.039 . S
Co1425 N1439 2.140 . S
C1426 O1427 1.227 . S
C1426 O1436 1.265 . S
O1427 C1426 1.227 . S
N1428 Co1425 2.121 . S
N1428 C1430 1.375 . S
N1428 C1431 1.313 . S
C1429 C1430 1.338 . S
C1429 N1432 1.377 . S
C1429 H1449 0.930 . S
C1430 N1428 1.375 . S
C1430 C1429 1.338 . S
C1430 H1434 0.931 . S
C1431 N1428 1.313 . S
C1431 N1432 1.344 . S
C1431 H1435 0.930 . S
N1432 C1429 1.377 . S
N1432 C1431 1.344 . S
O1433 Co1425 2.055 . S
O1433 C1437 1.253 . S
H1434 C1430 0.931 . S
H1435 C1431 0.930 . S
O1436 Co1425 2.039 . S
O1436 C1426 1.265 . S
C1437 O1433 1.253 . S
C1437 O1438 1.227 . S
O1438 C1437 1.227 . S
N1439 Co1425 2.140 . S
N1439 C1442 1.346 . S
N1439 C1443 1.345 . S
C1440 C1441 1.387 . S
C1440 C1444 1.391 . S
C1441 C1440 1.387 . S
C1441 C1442 1.369 . S
C1441 H1450 0.929 . S
C1442 N1439 1.346 . S
C1442 C1441 1.369 . S
C1442 H1445 0.928 . S
C1443 N1439 1.345 . S
C1443 C1444 1.371 . S
C1443 H1446 0.931 . S
C1444 C1440 1.391 . S
C1444 C1443 1.371 . S
C1444 H1451 0.930 . S
H1445 C1442 0.928 . S
H1446 C1443 0.931 . S
H1447 C1423 0.930 . S
H1448 C1420 0.930 . S
H1449 C1429 0.930 . S
H1450 C1441 0.929 . S
H1451 C1444 0.930 . S
C1452 C1453 1.351 . S
C1452 N1455 1.368 . S
C1452 H1457 0.931 . S
C1453 C1452 1.351 . S
C1453 N1454 1.373 . S
C1453 H1481 0.930 . S
N1454 C1453 1.373 . S
N1454 C1456 1.340 . S
N1455 C1452 1.368 . S
N1455 C1456 1.321 . S
N1455 Co1458 2.135 . S
C1456 N1454 1.340 . S
C1456 N1455 1.321 . S
C1456 H1480 0.930 . S
H1457 C1452 0.931 . S
Co1458 N1455 2.135 . S
Co1458 N1461 2.121 . S
Co1458 O1466 2.055 . S
Co1458 O1469 2.039 . S
Co1458 N1472 2.140 . S
C1459 O1460 1.227 . S
C1459 O1469 1.265 . S
O1460 C1459 1.227 . S
N1461 Co1458 2.121 . S
N1461 C1463 1.375 . S
N1461 C1464 1.313 . S
C1462 C1463 1.338 . S
C1462 N1465 1.377 . S
C1462 H1482 0.930 . S
C1463 N1461 1.375 . S
C1463 C1462 1.338 . S
C1463 H1467 0.931 . S
C1464 N1461 1.313 . S
C1464 N1465 1.344 . S
C1464 H1468 0.930 . S
N1465 C1462 1.377 . S
N1465 C1464 1.344 . S
O1466 Co1458 2.055 . S
O1466 C1470 1.253 . S
H1467 C1463 0.931 . S
H1468 C1464 0.930 . S
O1469 Co1458 2.039 . S
O1469 C1459 1.265 . S
C1470 O1466 1.253 . S
C1470 O1471 1.227 . S
O1471 C1470 1.227 . S
N1472 Co1458 2.140 . S
N1472 C1475 1.346 . S
N1472 C1476 1.345 . S
C1473 C1474 1.387 . S
C1473 C1477 1.391 . S
C1474 C1473 1.387 . S
C1474 C1475 1.369 . S
C1474 H1483 0.929 . S
C1475 N1472 1.346 . S
C1475 C1474 1.369 . S
C1475 H1478 0.928 . S
C1476 N1472 1.345 . S
C1476 C1477 1.371 . S
C1476 H1479 0.931 . S
C1477 C1473 1.391 . S
C1477 C1476 1.371 . S
C1477 H1484 0.930 . S
H1478 C1475 0.928 . S
H1479 C1476 0.931 . S
H1480 C1456 0.930 . S
H1481 C1453 0.930 . S
H1482 C1462 0.930 . S
H1483 C1474 0.929 . S
H1484 C1477 0.930 . S
C1485 C1486 1.351 . S
C1485 N1488 1.368 . S
C1485 H1490 0.931 . S
C1486 C1485 1.351 . S
C1486 N1487 1.373 . S
C1486 H1514 0.930 . S
N1487 C1486 1.373 . S
N1487 C1489 1.340 . S
N1488 C1485 1.368 . S
N1488 C1489 1.321 . S
N1488 Co1491 2.135 . S
C1489 N1487 1.340 . S
C1489 N1488 1.321 . S
C1489 H1513 0.930 . S
H1490 C1485 0.931 . S
Co1491 N1488 2.135 . S
Co1491 N1494 2.121 . S
Co1491 O1499 2.055 . S
Co1491 O1502 2.039 . S
Co1491 N1505 2.140 . S
C1492 O1493 1.227 . S
C1492 O1502 1.265 . S
O1493 C1492 1.227 . S
N1494 Co1491 2.121 . S
N1494 C1496 1.375 . S
N1494 C1497 1.313 . S
C1495 C1496 1.338 . S
C1495 N1498 1.377 . S
C1495 H1515 0.930 . S
C1496 N1494 1.375 . S
C1496 C1495 1.338 . S
C1496 H1500 0.931 . S
C1497 N1494 1.313 . S
C1497 N1498 1.344 . S
C1497 H1501 0.930 . S
N1498 C1495 1.377 . S
N1498 C1497 1.344 . S
O1499 Co1491 2.055 . S
O1499 C1503 1.253 . S
H1500 C1496 0.931 . S
H1501 C1497 0.930 . S
O1502 Co1491 2.039 . S
O1502 C1492 1.265 . S
C1503 O1499 1.253 . S
C1503 O1504 1.227 . S
O1504 C1503 1.227 . S
N1505 Co1491 2.140 . S
N1505 C1508 1.346 . S
N1505 C1509 1.345 . S
C1506 C1507 1.387 . S
C1506 C1510 1.391 . S
C1507 C1506 1.387 . S
C1507 C1508 1.369 . S
C1507 H1516 0.929 . S
C1508 N1505 1.346 . S
C1508 C1507 1.369 . S
C1508 H1511 0.928 . S
C1509 N1505 1.345 . S
C1509 C1510 1.371 . S
C1509 H1512 0.931 . S
C1510 C1506 1.391 . S
C1510 C1509 1.371 . S
C1510 H1517 0.930 . S
H1511 C1508 0.928 . S
H1512 C1509 0.931 . S
H1513 C1489 0.930 . S
H1514 C1486 0.930 . S
H1515 C1495 0.930 . S
H1516 C1507 0.929 . S
H1517 C1510 0.930 . S
C1518 C1519 1.351 . S
C1518 N1521 1.368 . S
C1518 H1523 0.931 . S
C1519 C1518 1.351 . S
C1519 N1520 1.373 . S
C1519 H1547 0.930 . S
N1520 C1519 1.373 . S
N1520 C1522 1.340 . S
N1521 C1518 1.368 . S
N1521 C1522 1.321 . S
N1521 Co1524 2.135 . S
C1522 N1520 1.340 . S
C1522 N1521 1.321 . S
C1522 H1546 0.930 . S
H1523 C1518 0.931 . S
Co1524 N1521 2.135 . S
Co1524 N1527 2.121 . S
Co1524 O1532 2.055 . S
Co1524 O1535 2.039 . S
Co1524 N1538 2.140 . S
C1525 O1526 1.227 . S
C1525 O1535 1.265 . S
O1526 C1525 1.227 . S
N1527 Co1524 2.121 . S
N1527 C1529 1.375 . S
N1527 C1530 1.313 . S
C1528 C1529 1.338 . S
C1528 N1531 1.377 . S
C1528 H1548 0.930 . S
C1529 N1527 1.375 . S
C1529 C1528 1.338 . S
C1529 H1533 0.931 . S
C1530 N1527 1.313 . S
C1530 N1531 1.344 . S
C1530 H1534 0.930 . S
N1531 C1528 1.377 . S
N1531 C1530 1.344 . S
O1532 Co1524 2.055 . S
O1532 C1536 1.253 . S
H1533 C1529 0.931 . S
H1534 C1530 0.930 . S
O1535 Co1524 2.039 . S
O1535 C1525 1.265 . S
C1536 O1532 1.253 . S
C1536 O1537 1.227 . S
O1537 C1536 1.227 . S
N1538 Co1524 2.140 . S
N1538 C1541 1.346 . S
N1538 C1542 1.345 . S
C1539 C1540 1.387 . S
C1539 C1543 1.391 . S
C1540 C1539 1.387 . S
C1540 C1541 1.369 . S
C1540 H1549 0.929 . S
C1541 N1538 1.346 . S
C1541 C1540 1.369 . S
C1541 H1544 0.928 . S
C1542 N1538 1.345 . S
C1542 C1543 1.371 . S
C1542 H1545 0.931 . S
C1543 C1539 1.391 . S
C1543 C1542 1.371 . S
C1543 H1550 0.930 . S
H1544 C1541 0.928 . S
H1545 C1542 0.931 . S
H1546 C1522 0.930 . S
H1547 C1519 0.930 . S
H1548 C1528 0.930 . S
H1549 C1540 0.929 . S
H1550 C1543 0.930 . S
C1551 C1552 1.351 . S
C1551 N1554 1.368 . S
C1551 H1556 0.931 . S
C1552 C1551 1.351 . S
C1552 N1553 1.373 . S
C1552 H1580 0.930 . S
N1553 C1552 1.373 . S
N1553 C1555 1.340 . S
N1554 C1551 1.368 . S
N1554 C1555 1.321 . S
N1554 Co1557 2.135 . S
C1555 N1553 1.340 . S
C1555 N1554 1.321 . S
C1555 H1579 0.930 . S
H1556 C1551 0.931 . S
Co1557 N1554 2.135 . S
Co1557 N1560 2.121 . S
Co1557 O1565 2.055 . S
Co1557 O1568 2.039 . S
Co1557 N1571 2.140 . S
C1558 O1559 1.227 . S
C1558 O1568 1.265 . S
O1559 C1558 1.227 . S
N1560 Co1557 2.121 . S
N1560 C1562 1.375 . S
N1560 C1563 1.313 . S
C1561 C1562 1.338 . S
C1561 N1564 1.377 . S
C1561 H1581 0.930 . S
C1562 N1560 1.375 . S
C1562 C1561 1.338 . S
C1562 H1566 0.931 . S
C1563 N1560 1.313 . S
C1563 N1564 1.344 . S
C1563 H1567 0.930 . S
N1564 C1561 1.377 . S
N1564 C1563 1.344 . S
O1565 Co1557 2.055 . S
O1565 C1569 1.253 . S
H1566 C1562 0.931 . S
H1567 C1563 0.930 . S
O1568 Co1557 2.039 . S
O1568 C1558 1.265 . S
C1569 O1565 1.253 . S
C1569 O1570 1.227 . S
O1570 C1569 1.227 . S
N1571 Co1557 2.140 . S
N1571 C1574 1.346 . S
N1571 C1575 1.345 . S
C1572 C1573 1.387 . S
C1572 C1576 1.391 . S
C1573 C1572 1.387 . S
C1573 C1574 1.369 . S
C1573 H1582 0.929 . S
C1574 N1571 1.346 . S
C1574 C1573 1.369 . S
C1574 H1577 0.928 . S
C1575 N1571 1.345 . S
C1575 C1576 1.371 . S
C1575 H1578 0.931 . S
C1576 C1572 1.391 . S
C1576 C1575 1.371 . S
C1576 H1583 0.930 . S
H1577 C1574 0.928 . S
H1578 C1575 0.931 . S
H1579 C1555 0.930 . S
H1580 C1552 0.930 . S
H1581 C1561 0.930 . S
H1582 C1573 0.929 . S
H1583 C1576 0.930 . S
H1584 C1592 0.950 . S
H1585 C1597 0.950 . S
H1586 C1594 0.950 . S
H1587 C1596 0.944 1_554 S
H1588 C1598 0.950 . S
H1589 C1600 0.950 . S
H1590 C1602 0.950 . S
H1591 C1603 0.950 . S
C1592 H1584 0.950 . S
C1592 C1593 1.386 . S
C1592 C1594 1.391 1_556 S
C1593 C1592 1.386 . S
C1593 C1597 1.393 . S
C1594 H1586 0.950 . S
C1594 C1592 1.391 1_554 S
C1594 C1595 1.400 . S
C1595 C1594 1.400 . S
C1595 C1596 1.379 1_554 S
C1595 C1601 1.491 . S
C1596 H1587 0.944 1_556 S
C1596 C1595 1.379 1_556 S
C1596 C1597 1.416 . S
C1597 H1585 0.950 . S
C1597 C1593 1.393 . S
C1597 C1596 1.416 . S
C1598 H1588 0.950 . S
C1598 C1599 1.386 . S
C1598 C1600 1.391 . S
C1599 C1598 1.386 . S
C1599 C1603 1.393 . S
C1600 H1589 0.950 . S
C1600 C1598 1.391 . S
C1600 C1601 1.400 . S
C1601 C1595 1.491 . S
C1601 C1600 1.400 . S
C1601 C1602 1.398 . S
C1602 H1590 0.950 . S
C1602 C1601 1.398 . S
C1602 C1603 1.391 . S
C1603 H1591 0.950 . S
C1603 C1599 1.393 . S
C1603 C1602 1.391 . S
H1604 C1612 0.950 . S
H1605 C1617 0.950 . S
H1606 C1614 0.950 . S
H1607 C1616 0.950 . S
H1608 C1618 0.950 . S
H1609 C1620 0.950 . S
H1610 C1622 0.948 1_554 S
H1611 C1623 0.950 . S
C1612 H1604 0.950 . S
C1612 C1613 1.386 . S
C1612 C1614 1.391 . S
C1613 C1612 1.386 . S
C1613 C1617 1.393 . S
C1614 H1606 0.950 . S
C1614 C1612 1.391 . S
C1614 C1615 1.400 . S
C1615 C1614 1.400 . S
C1615 C1616 1.398 . S
C1615 C1621 1.491 . S
C1616 H1607 0.950 . S
C1616 C1615 1.398 . S
C1616 C1617 1.391 . S
C1617 H1605 0.950 . S
C1617 C1613 1.393 . S
C1617 C1616 1.391 . S
C1618 H1608 0.950 . S
C1618 C1619 1.386 . S
C1618 C1620 1.391 1_556 S
C1619 C1618 1.386 . S
C1619 C1623 1.393 . S
C1620 H1609 0.950 . S
C1620 C1618 1.391 1_554 S
C1620 C1621 1.400 . S
C1621 C1615 1.491 . S
C1621 C1620 1.400 . S
C1621 C1622 1.394 1_554 S
C1622 H1610 0.948 1_556 S
C1622 C1621 1.394 1_556 S
C1622 C1623 1.397 . S
C1623 H1611 0.950 . S
C1623 C1619 1.393 . S
C1623 C1622 1.397 . S
H1624 C1632 0.950 . S
H1625 C1637 0.950 . S
H1626 C1634 0.950 . S
H1627 C1636 0.950 . S
H1628 C1638 0.950 . S
H1629 C1640 0.950 . S
H1630 C1642 0.950 . S
H1631 C1643 0.950 . S
C1632 H1624 0.950 . S
C1632 C1633 1.386 . S
C1632 C1634 1.391 . S
C1633 C1632 1.386 . S
C1633 C1637 1.393 . S
C1634 H1626 0.950 . S
C1634 C1632 1.391 . S
C1634 C1635 1.400 . S
C1635 C1634 1.400 . S
C1635 C1636 1.398 . S
C1635 C1641 1.491 . S
C1636 H1627 0.950 . S
C1636 C1635 1.398 . S
C1636 C1637 1.391 . S
C1637 H1625 0.950 . S
C1637 C1633 1.393 . S
C1637 C1636 1.391 . S
C1638 H1628 0.950 . S
C1638 C1639 1.386 . S
C1638 C1640 1.391 1_556 S
C1639 C1638 1.386 . S
C1639 C1643 1.393 . S
C1640 H1629 0.950 . S
C1640 C1638 1.391 1_554 S
C1640 C1641 1.400 . S
C1641 C1635 1.491 . S
C1641 C1640 1.400 . S
C1641 C1642 1.398 . S
C1642 H1630 0.950 . S
C1642 C1641 1.398 . S
C1642 C1643 1.391 1_554 S
C1643 H1631 0.950 . S
C1643 C1639 1.393 . S
C1643 C1642 1.391 1_556 S
H1644 C1652 0.950 . S
H1645 C1657 0.950 . S
H1646 C1654 0.950 . S
H1647 C1656 0.950 . S
H1648 C1658 0.950 . S
H1649 C1660 0.950 . S
H1650 C1662 0.950 . S
H1651 C1663 0.950 . S
C1652 H1644 0.950 . S
C1652 C1653 1.386 . S
C1652 C1654 1.391 1_556 S
C1653 C1652 1.386 . S
C1653 C1657 1.393 . S
C1654 H1646 0.950 . S
C1654 C1652 1.391 1_554 S
C1654 C1655 1.400 . S
C1655 C1654 1.400 . S
C1655 C1656 1.398 . S
C1655 C1661 1.491 . S
C1656 H1647 0.950 . S
C1656 C1655 1.398 . S
C1656 C1657 1.391 1_554 S
C1657 H1645 0.950 . S
C1657 C1653 1.393 . S
C1657 C1656 1.391 1_556 S
C1658 H1648 0.950 . S
C1658 C1659 1.386 . S
C1658 C1660 1.391 . S
C1659 C1658 1.386 . S
C1659 C1663 1.393 . S
C1660 H1649 0.950 . S
C1660 C1658 1.391 . S
C1660 C1661 1.400 . S
C1661 C1655 1.491 . S
C1661 C1660 1.400 . S
C1661 C1662 1.398 . S
C1662 H1650 0.950 . S
C1662 C1661 1.398 . S
C1662 C1663 1.391 . S
C1663 H1651 0.950 . S
C1663 C1659 1.393 . S
C1663 C1662 1.391 . S
H1664 C1672 0.950 . S
H1665 C1677 0.950 . S
H1666 C1674 0.950 . S
H1667 C1676 0.954 . S
H1668 C1678 0.950 . S
H1669 C1680 0.950 . S
H1670 C1682 0.950 . S
H1671 C1683 0.950 . S
C1672 H1664 0.950 . S
C1672 C1673 1.386 . S
C1672 C1674 1.391 1_554 S
C1673 C1672 1.386 . S
C1673 C1677 1.393 . S
C1674 H1666 0.950 . S
C1674 C1672 1.391 1_556 S
C1674 C1675 1.400 . S
C1675 C1674 1.400 . S
C1675 C1676 1.407 . S
C1675 C1681 1.491 . S
C1676 H1667 0.954 . S
C1676 C1675 1.407 . S
C1676 C1677 1.378 1_556 S
C1677 H1665 0.950 . S
C1677 C1673 1.393 . S
C1677 C1676 1.378 1_554 S
C1678 H1668 0.950 . S
C1678 C1679 1.386 . S
C1678 C1680 1.391 . S
C1679 C1678 1.386 . S
C1679 C1683 1.393 . S
C1680 H1669 0.950 . S
C1680 C1678 1.391 . S
C1680 C1681 1.400 . S
C1681 C1675 1.491 . S
C1681 C1680 1.400 . S
C1681 C1682 1.398 . S
C1682 H1670 0.950 . S
C1682 C1681 1.398 . S
C1682 C1683 1.391 . S
C1683 H1671 0.950 . S
C1683 C1679 1.393 . S
C1683 C1682 1.391 . S
H1684 C1692 0.950 . S
H1685 C1697 0.950 . S
H1686 C1694 0.950 . S
H1687 C1696 0.950 . S
H1688 C1698 0.950 . S
H1689 C1700 0.950 . S
H1690 C1702 0.950 . S
H1691 C1703 0.950 . S
C1692 H1684 0.950 . S
C1692 C1693 1.386 . S
C1692 C1694 1.391 . S
C1693 C1692 1.386 . S
C1693 C1697 1.393 . S
C1694 H1686 0.950 . S
C1694 C1692 1.391 . S
C1694 C1695 1.400 . S
C1695 C1694 1.400 . S
C1695 C1696 1.398 . S
C1695 C1701 1.491 . S
C1696 H1687 0.950 . S
C1696 C1695 1.398 . S
C1696 C1697 1.391 . S
C1697 H1685 0.950 . S
C1697 C1693 1.393 . S
C1697 C1696 1.391 . S
C1698 H1688 0.950 . S
C1698 C1699 1.386 . S
C1698 C1700 1.391 1_554 S
C1699 C1698 1.386 . S
C1699 C1703 1.393 . S
C1700 H1689 0.950 . S
C1700 C1698 1.391 1_556 S
C1700 C1701 1.400 . S
C1701 C1695 1.491 . S
C1701 C1700 1.400 . S
C1701 C1702 1.398 . S
C1702 H1690 0.950 . S
C1702 C1701 1.398 . S
C1702 C1703 1.391 1_556 S
C1703 H1691 0.950 . S
C1703 C1699 1.393 . S
C1703 C1702 1.391 1_554 S
H1704 C1712 0.950 . S
H1705 C1717 0.950 . S
H1706 C1714 0.948 1_556 S
H1707 C1716 0.950 . S
H1708 C1718 0.950 . S
H1709 C1720 0.950 . S
H1710 C1722 0.950 . S
H1711 C1723 0.950 . S
C1712 H1704 0.950 . S
C1712 C1713 1.386 . S
C1712 C1714 1.399 . S
C1713 C1712 1.386 . S
C1713 C1717 1.393 . S
C1714 H1706 0.948 1_554 S
C1714 C1712 1.399 . S
C1714 C1715 1.394 1_554 S
C1715 C1714 1.394 1_556 S
C1715 C1716 1.398 . S
C1715 C1721 1.491 . S
C1716 H1707 0.950 . S
C1716 C1715 1.398 . S
C1716 C1717 1.391 1_556 S
C1717 H1705 0.950 . S
C1717 C1713 1.393 . S
C1717 C1716 1.391 1_554 S
C1718 H1708 0.950 . S
C1718 C1719 1.386 . S
C1718 C1720 1.391 . S
C1719 C1718 1.386 . S
C1719 C1723 1.393 . S
C1720 H1709 0.950 . S
C1720 C1718 1.391 . S
C1720 C1721 1.400 . S
C1721 C1715 1.491 . S
C1721 C1720 1.400 . S
C1721 C1722 1.398 . S
C1722 H1710 0.950 . S
C1722 C1721 1.398 . S
C1722 C1723 1.391 . S
C1723 H1711 0.950 . S
C1723 C1719 1.393 . S
C1723 C1722 1.391 . S
H1724 C1732 0.950 . S
H1725 C1737 0.950 . S
H1726 C1734 0.950 . S
H1727 C1736 0.950 . S
H1728 C1738 0.950 . S
H1729 C1740 0.950 . S
H1730 C1742 0.950 . S
H1731 C1743 0.950 . S
C1732 H1724 0.950 . S
C1732 C1733 1.386 . S
C1732 C1734 1.391 1_554 S
C1733 C1732 1.386 . S
C1733 C1737 1.393 . S
C1734 H1726 0.950 . S
C1734 C1732 1.391 1_556 S
C1734 C1735 1.400 . S
C1735 C1734 1.400 . S
C1735 C1736 1.398 . S
C1735 C1741 1.491 . S
C1736 H1727 0.950 . S
C1736 C1735 1.398 . S
C1736 C1737 1.391 1_556 S
C1737 H1725 0.950 . S
C1737 C1733 1.393 . S
C1737 C1736 1.391 1_554 S
C1738 H1728 0.950 . S
C1738 C1739 1.386 . S
C1738 C1740 1.391 . S
C1739 C1738 1.386 . S
C1739 C1743 1.393 . S
C1740 H1729 0.950 . S
C1740 C1738 1.391 . S
C1740 C1741 1.400 . S
C1741 C1735 1.491 . S
C1741 C1740 1.400 . S
C1741 C1742 1.398 . S
C1742 H1730 0.950 . S
C1742 C1741 1.398 . S
C1742 C1743 1.391 . S
C1743 H1731 0.950 . S
C1743 C1739 1.393 . S
C1743 C1742 1.391 . S
H1744 C1752 0.950 . S
H1745 C1757 0.950 . S
H1746 C1754 0.950 . S
H1747 C1756 0.950 . S
H1748 C1758 0.950 . S
H1749 C1760 0.950 . S
H1750 C1762 0.969 . S
H1751 C1763 0.950 . S
C1752 H1744 0.950 . S
C1752 C1753 1.386 . S
C1752 C1754 1.391 . S
C1753 C1752 1.386 . S
C1753 C1757 1.393 . S
C1754 H1746 0.950 . S
C1754 C1752 1.391 . S
C1754 C1755 1.400 . S
C1755 C1754 1.400 . S
C1755 C1756 1.398 . S
C1755 C1761 1.491 . S
C1756 H1747 0.950 . S
C1756 C1755 1.398 . S
C1756 C1757 1.391 . S
C1757 H1745 0.950 . S
C1757 C1753 1.393 . S
C1757 C1756 1.391 . S
C1758 H1748 0.950 . S
C1758 C1759 1.386 . S
C1758 C1760 1.391 1_655 S
C1759 C1758 1.386 . S
C1759 C1763 1.393 . S
C1760 H1749 0.950 . S
C1760 C1758 1.391 1_455 S
C1760 C1761 1.400 . S
C1761 C1755 1.491 . S
C1761 C1760 1.400 . S
C1761 C1762 1.436 . S
C1762 H1750 0.969 . S
C1762 C1761 1.436 . S
C1762 C1763 1.337 1_455 S
C1763 H1751 0.950 . S
C1763 C1759 1.393 . S
C1763 C1762 1.337 1_655 S
H1764 C1772 0.950 . S
H1765 C1777 0.950 . S
H1766 C1774 0.950 . S
H1767 C1776 0.950 . S
H1768 C1778 0.950 . S
H1769 C1780 0.950 . S
H1770 C1782 0.950 . S
H1771 C1783 0.950 . S
C1772 H1764 0.950 . S
C1772 C1773 1.386 . S
C1772 C1774 1.391 1_565 S
C1773 C1772 1.386 . S
C1773 C1777 1.393 . S
C1774 H1766 0.950 . S
C1774 C1772 1.391 1_545 S
C1774 C1775 1.400 . S
C1775 C1774 1.400 . S
C1775 C1776 1.398 . S
C1775 C1781 1.491 . S
C1776 H1767 0.950 . S
C1776 C1775 1.398 . S
C1776 C1777 1.391 1_545 S
C1777 H1765 0.950 . S
C1777 C1773 1.393 . S
C1777 C1776 1.391 1_565 S
C1778 H1768 0.950 . S
C1778 C1779 1.386 . S
C1778 C1780 1.391 . S
C1779 C1778 1.386 . S
C1779 C1783 1.393 . S
C1780 H1769 0.950 . S
C1780 C1778 1.391 . S
C1780 C1781 1.400 . S
C1781 C1775 1.491 . S
C1781 C1780 1.400 . S
C1781 C1782 1.398 . S
C1782 H1770 0.950 . S
C1782 C1781 1.398 . S
C1782 C1783 1.391 . S
C1783 H1771 0.950 . S
C1783 C1779 1.393 . S
C1783 C1782 1.391 . S
H1784 C1792 0.950 . S
H1785 C1797 0.950 . S
H1786 C1794 0.950 . S
H1787 C1796 0.950 . S
H1788 C1798 0.950 . S
H1789 C1800 0.950 . S
H1790 C1802 0.950 . S
H1791 C1803 0.950 . S
C1792 H1784 0.950 . S
C1792 C1793 1.386 . S
C1792 C1794 1.391 1_455 S
C1793 C1792 1.386 . S
C1793 C1797 1.393 . S
C1794 H1786 0.950 . S
C1794 C1792 1.391 1_655 S
C1794 C1795 1.400 . S
C1795 C1794 1.400 . S
C1795 C1796 1.398 . S
C1795 C1801 1.491 . S
C1796 H1787 0.950 . S
C1796 C1795 1.398 . S
C1796 C1797 1.391 1_655 S
C1797 H1785 0.950 . S
C1797 C1793 1.393 . S
C1797 C1796 1.391 1_455 S
C1798 H1788 0.950 . S
C1798 C1799 1.386 . S
C1798 C1800 1.391 . S
C1799 C1798 1.386 . S
C1799 C1803 1.393 . S
C1800 H1789 0.950 . S
C1800 C1798 1.391 . S
C1800 C1801 1.400 . S
C1801 C1795 1.491 . S
C1801 C1800 1.400 . S
C1801 C1802 1.398 . S
C1802 H1790 0.950 . S
C1802 C1801 1.398 . S
C1802 C1803 1.391 . S
C1803 H1791 0.950 . S
C1803 C1799 1.393 . S
C1803 C1802 1.391 . S
H1804 C1812 0.950 . S
H1805 C1817 0.950 . S
H1806 C1814 0.950 . S
H1807 C1816 0.950 . S
H1808 C1818 0.950 . S
H1809 C1820 0.950 . S
H1810 C1822 0.950 . S
H1811 C1823 0.950 . S
C1812 H1804 0.950 . S
C1812 C1813 1.386 . S
C1812 C1814 1.391 . S
C1813 C1812 1.386 . S
C1813 C1817 1.393 . S
C1814 H1806 0.950 . S
C1814 C1812 1.391 . S
C1814 C1815 1.400 . S
C1815 C1814 1.400 . S
C1815 C1816 1.398 . S
C1815 C1821 1.491 . S
C1816 H1807 0.950 . S
C1816 C1815 1.398 . S
C1816 C1817 1.391 . S
C1817 H1805 0.950 . S
C1817 C1813 1.393 . S
C1817 C1816 1.391 . S
C1818 H1808 0.950 . S
C1818 C1819 1.386 . S
C1818 C1820 1.391 1_545 S
C1819 C1818 1.386 . S
C1819 C1823 1.393 . S
C1820 H1809 0.950 . S
C1820 C1818 1.391 1_565 S
C1820 C1821 1.400 . S
C1821 C1815 1.491 . S
C1821 C1820 1.400 . S
C1821 C1822 1.398 . S
C1822 H1810 0.950 . S
C1822 C1821 1.398 . S
C1822 C1823 1.391 1_565 S
C1823 H1811 0.950 . S
C1823 C1819 1.393 . S
C1823 C1822 1.391 1_545 S
H1824 C1832 0.950 . S
H1825 C1837 0.950 . S
H1826 C1834 0.950 . S
H1827 C1836 0.959 . S
H1828 C1838 0.950 . S
H1829 C1840 0.950 . S
H1830 C1842 0.950 . S
H1831 C1843 0.950 . S
C1832 H1824 0.950 . S
C1832 C1833 1.386 . S
C1832 C1834 1.391 1_655 S
C1833 C1832 1.386 . S
C1833 C1837 1.393 . S
C1834 H1826 0.950 . S
C1834 C1832 1.391 1_455 S
C1834 C1835 1.400 . S
C1835 C1834 1.400 . S
C1835 C1836 1.418 . S
C1835 C1841 1.491 . S
C1836 H1827 0.959 . S
C1836 C1835 1.418 . S
C1836 C1837 1.363 1_455 S
C1837 H1825 0.950 . S
C1837 C1833 1.393 . S
C1837 C1836 1.363 1_655 S
C1838 H1828 0.950 . S
C1838 C1839 1.386 . S
C1838 C1840 1.391 . S
C1839 C1838 1.386 . S
C1839 C1843 1.393 . S
C1840 H1829 0.950 . S
C1840 C1838 1.391 . S
C1840 C1841 1.400 . S
C1841 C1835 1.491 . S
C1841 C1840 1.400 . S
C1841 C1842 1.398 . S
C1842 H1830 0.950 . S
C1842 C1841 1.398 . S
C1842 C1843 1.391 . S
C1843 H1831 0.950 . S
C1843 C1839 1.393 . S
C1843 C1842 1.391 . S
H1844 C1852 0.950 . S
H1845 C1857 0.950 . S
H1846 C1854 0.950 . S
H1847 C1856 0.950 . S
H1848 C1858 0.950 . S
H1849 C1860 0.950 . S
H1850 C1862 0.950 . S
H1851 C1863 0.950 . S
C1852 H1844 0.950 . S
C1852 C1853 1.386 . S
C1852 C1854 1.391 . S
C1853 C1852 1.386 . S
C1853 C1857 1.393 . S
C1854 H1846 0.950 . S
C1854 C1852 1.391 . S
C1854 C1855 1.400 . S
C1855 C1854 1.400 . S
C1855 C1856 1.398 . S
C1855 C1861 1.491 . S
C1856 H1847 0.950 . S
C1856 C1855 1.398 . S
C1856 C1857 1.391 . S
C1857 H1845 0.950 . S
C1857 C1853 1.393 . S
C1857 C1856 1.391 . S
C1858 H1848 0.950 . S
C1858 C1859 1.386 . S
C1858 C1860 1.391 1_565 S
C1859 C1858 1.386 . S
C1859 C1863 1.393 . S
C1860 H1849 0.950 . S
C1860 C1858 1.391 1_545 S
C1860 C1861 1.400 . S
C1861 C1855 1.491 . S
C1861 C1860 1.400 . S
C1861 C1862 1.398 . S
C1862 H1850 0.950 . S
C1862 C1861 1.398 . S
C1862 C1863 1.391 1_545 S
C1863 H1851 0.950 . S
C1863 C1859 1.393 . S
C1863 C1862 1.391 1_565 S
H1864 C1872 0.950 . S
H1865 C1877 0.950 . S
H1866 C1874 0.950 . S
H1867 C1876 0.950 . S
H1868 C1878 0.950 . S
H1869 C1880 0.950 . S
H1870 C1882 0.950 . S
H1871 C1883 0.950 . S
C1872 H1864 0.950 . S
C1872 C1873 1.386 . S
C1872 C1874 1.391 1_455 S
C1873 C1872 1.386 . S
C1873 C1877 1.393 . S
C1874 H1866 0.950 . S
C1874 C1872 1.391 1_655 S
C1874 C1875 1.400 . S
C1875 C1874 1.400 . S
C1875 C1876 1.398 . S
C1875 C1881 1.491 . S
C1876 H1867 0.950 . S
C1876 C1875 1.398 . S
C1876 C1877 1.391 1_655 S
C1877 H1865 0.950 . S
C1877 C1873 1.393 . S
C1877 C1876 1.391 1_455 S
C1878 H1868 0.950 . S
C1878 C1879 1.386 . S
C1878 C1880 1.391 . S
C1879 C1878 1.386 . S
C1879 C1883 1.393 . S
C1880 H1869 0.950 . S
C1880 C1878 1.391 . S
C1880 C1881 1.400 . S
C1881 C1875 1.491 . S
C1881 C1880 1.400 . S
C1881 C1882 1.398 . S
C1882 H1870 0.950 . S
C1882 C1881 1.398 . S
C1882 C1883 1.391 . S
C1883 H1871 0.950 . S
C1883 C1879 1.393 . S
C1883 C1882 1.391 . S
H1884 C1892 0.950 . S
H1885 C1897 0.950 . S
H1886 C1894 0.950 . S
H1887 C1896 0.949 1_565 S
H1888 C1898 0.950 . S
H1889 C1900 0.950 . S
H1890 C1902 0.950 . S
H1891 C1903 0.950 . S
C1892 H1884 0.950 . S
C1892 C1893 1.386 . S
C1892 C1894 1.391 1_545 S
C1893 C1892 1.386 . S
C1893 C1897 1.393 . S
C1894 H1886 0.950 . S
C1894 C1892 1.391 1_565 S
C1894 C1895 1.400 . S
C1895 C1894 1.400 . S
C1895 C1896 1.396 1_565 S
C1895 C1901 1.491 . S
C1896 H1887 0.949 1_545 S
C1896 C1895 1.396 1_545 S
C1896 C1897 1.394 . S
C1897 H1885 0.950 . S
C1897 C1893 1.393 . S
C1897 C1896 1.394 . S
C1898 H1888 0.950 . S
C1898 C1899 1.386 . S
C1898 C1900 1.391 . S
C1899 C1898 1.386 . S
C1899 C1903 1.393 . S
C1900 H1889 0.950 . S
C1900 C1898 1.391 . S
C1900 C1901 1.400 . S
C1901 C1895 1.491 . S
C1901 C1900 1.400 . S
C1901 C1902 1.398 . S
C1902 H1890 0.950 . S
C1902 C1901 1.398 . S
C1902 C1903 1.391 . S
C1903 H1891 0.950 . S
C1903 C1899 1.393 . S
C1903 C1902 1.391 . S
H1904 C1912 0.950 . S
H1905 C1917 0.950 . S
H1906 C1914 0.950 . S
H1907 C1916 0.950 . S
H1908 C1918 0.950 . S
H1909 C1920 0.950 . S
H1910 C1922 0.950 . S
H1911 C1923 0.950 . S
C1912 H1904 0.950 . S
C1912 C1913 1.386 . S
C1912 C1914 1.391 . S
C1913 C1912 1.386 . S
C1913 C1917 1.393 . S
C1914 H1906 0.950 . S
C1914 C1912 1.391 . S
C1914 C1915 1.400 . S
C1915 C1914 1.400 . S
C1915 C1916 1.398 . S
C1915 C1921 1.491 . S
C1916 H1907 0.950 . S
C1916 C1915 1.398 . S
C1916 C1917 1.391 . S
C1917 H1905 0.950 . S
C1917 C1913 1.393 . S
C1917 C1916 1.391 . S
C1918 H1908 0.950 . S
C1918 C1919 1.386 . S
C1918 C1920 1.391 1_565 S
C1919 C1918 1.386 . S
C1919 C1923 1.393 . S
C1920 H1909 0.950 . S
C1920 C1918 1.391 1_545 S
C1920 C1921 1.400 . S
C1921 C1915 1.491 . S
C1921 C1920 1.400 . S
C1921 C1922 1.398 . S
C1922 H1910 0.950 . S
C1922 C1921 1.398 . S
C1922 C1923 1.391 1_545 S
C1923 H1911 0.950 . S
C1923 C1919 1.393 . S
C1923 C1922 1.391 1_565 S
H1924 C1932 0.950 . S
H1925 C1937 0.950 . S
H1926 C1934 0.950 . S
H1927 C1936 0.945 1_565 S
H1928 C1938 0.950 . S
H1929 C1940 0.950 . S
H1930 C1942 0.950 . S
H1931 C1943 0.950 . S
C1932 H1924 0.950 . S
C1932 C1933 1.386 . S
C1932 C1934 1.391 1_545 S
C1933 C1932 1.386 . S
C1933 C1937 1.393 . S
C1934 H1926 0.950 . S
C1934 C1932 1.391 1_565 S
C1934 C1935 1.400 . S
C1935 C1934 1.400 . S
C1935 C1936 1.382 1_565 S
C1935 C1941 1.491 . S
C1936 H1927 0.945 1_545 S
C1936 C1935 1.382 1_545 S
C1936 C1937 1.413 . S
C1937 H1925 0.950 . S
C1937 C1933 1.393 . S
C1937 C1936 1.413 . S
C1938 H1928 0.950 . S
C1938 C1939 1.386 . S
C1938 C1940 1.391 . S
C1939 C1938 1.386 . S
C1939 C1943 1.393 . S
C1940 H1929 0.950 . S
C1940 C1938 1.391 . S
C1940 C1941 1.400 . S
C1941 C1935 1.491 . S
C1941 C1940 1.400 . S
C1941 C1942 1.398 . S
C1942 H1930 0.950 . S
C1942 C1941 1.398 . S
C1942 C1943 1.391 . S
C1943 H1931 0.950 . S
C1943 C1939 1.393 . S
C1943 C1942 1.391 . S
H1944 C1952 0.950 . S
H1945 C1957 0.950 . S
H1946 C1954 0.950 . S
H1947 C1956 0.950 . S
H1948 C1958 0.950 . S
H1949 C1960 0.950 . S
H1950 C1962 0.950 . S
H1951 C1963 0.950 . S
C1952 H1944 0.950 . S
C1952 C1953 1.386 . S
C1952 C1954 1.391 . S
C1953 C1952 1.386 . S
C1953 C1957 1.393 . S
C1954 H1946 0.950 . S
C1954 C1952 1.391 . S
C1954 C1955 1.400 . S
C1955 C1954 1.400 . S
C1955 C1956 1.398 . S
C1955 C1961 1.491 . S
C1956 H1947 0.950 . S
C1956 C1955 1.398 . S
C1956 C1957 1.391 . S
C1957 H1945 0.950 . S
C1957 C1953 1.393 . S
C1957 C1956 1.391 . S
C1958 H1948 0.950 . S
C1958 C1959 1.386 . S
C1958 C1960 1.391 1_655 S
C1959 C1958 1.386 . S
C1959 C1963 1.393 . S
C1960 H1949 0.950 . S
C1960 C1958 1.391 1_455 S
C1960 C1961 1.400 . S
C1961 C1955 1.491 . S
C1961 C1960 1.400 . S
C1961 C1962 1.398 . S
C1962 H1950 0.950 . S
C1962 C1961 1.398 . S
C1962 C1963 1.391 1_455 S
C1963 H1951 0.950 . S
C1963 C1959 1.393 . S
C1963 C1962 1.391 1_655 S
H1964 C1972 0.950 . S
H1965 C1977 0.950 . S
H1966 C1974 0.950 . S
H1967 C1976 0.950 . S
H1968 C1978 0.950 . S
H1969 C1980 0.950 . S
H1970 C1982 0.950 . S
H1971 C1983 0.950 . S
C1972 H1964 0.950 . S
C1972 C1973 1.386 . S
C1972 C1974 1.391 1_565 S
C1973 C1972 1.386 . S
C1973 C1977 1.393 . S
C1974 H1966 0.950 . S
C1974 C1972 1.391 1_545 S
C1974 C1975 1.400 . S
C1975 C1974 1.400 . S
C1975 C1976 1.398 . S
C1975 C1981 1.491 . S
C1976 H1967 0.950 . S
C1976 C1975 1.398 . S
C1976 C1977 1.391 1_545 S
C1977 H1965 0.950 . S
C1977 C1973 1.393 . S
C1977 C1976 1.391 1_565 S
C1978 H1968 0.950 . S
C1978 C1979 1.386 . S
C1978 C1980 1.391 . S
C1979 C1978 1.386 . S
C1979 C1983 1.393 . S
C1980 H1969 0.950 . S
C1980 C1978 1.391 . S
C1980 C1981 1.400 . S
C1981 C1975 1.491 . S
C1981 C1980 1.400 . S
C1981 C1982 1.398 . S
C1982 H1970 0.950 . S
C1982 C1981 1.398 . S
C1982 C1983 1.391 . S
C1983 H1971 0.950 . S
C1983 C1979 1.393 . S
C1983 C1982 1.391 . S
H1984 C1992 0.950 . S
H1985 C1997 0.950 . S
H1986 C1994 0.950 . S
H1987 C1996 0.944 1_655 S
H1988 C1998 0.950 . S
H1989 C2000 0.950 . S
H1990 C2002 0.950 . S
H1991 C2003 0.950 . S
C1992 H1984 0.950 . S
C1992 C1993 1.386 . S
C1992 C1994 1.391 1_455 S
C1993 C1992 1.386 . S
C1993 C1997 1.393 . S
C1994 H1986 0.950 . S
C1994 C1992 1.391 1_655 S
C1994 C1995 1.400 . S
C1995 C1994 1.400 . S
C1995 C1996 1.379 1_655 S
C1995 C2001 1.491 . S
C1996 H1987 0.944 1_455 S
C1996 C1995 1.379 1_455 S
C1996 C1997 1.416 . S
C1997 H1985 0.950 . S
C1997 C1993 1.393 . S
C1997 C1996 1.416 . S
C1998 H1988 0.950 . S
C1998 C1999 1.386 . S
C1998 C2000 1.391 . S
C1999 C1998 1.386 . S
C1999 C2003 1.393 . S
C2000 H1989 0.950 . S
C2000 C1998 1.391 . S
C2000 C2001 1.400 . S
C2001 C1995 1.491 . S
C2001 C2000 1.400 . S
C2001 C2002 1.398 . S
C2002 H1990 0.950 . S
C2002 C2001 1.398 . S
C2002 C2003 1.391 . S
C2003 H1991 0.950 . S
C2003 C1999 1.393 . S
C2003 C2002 1.391 . S
H2004 C2012 0.950 . S
H2005 C2017 0.950 . S
H2006 C2014 0.950 . S
H2007 C2016 0.950 . S
H2008 C2018 0.950 . S
H2009 C2020 0.944 1_565 S
H2010 C2022 0.950 . S
H2011 C2023 0.950 . S
C2012 H2004 0.950 . S
C2012 C2013 1.386 . S
C2012 C2014 1.391 . S
C2013 C2012 1.386 . S
C2013 C2017 1.393 . S
C2014 H2006 0.950 . S
C2014 C2012 1.391 . S
C2014 C2015 1.400 . S
C2015 C2014 1.400 . S
C2015 C2016 1.398 . S
C2015 C2021 1.491 . S
C2016 H2007 0.950 . S
C2016 C2015 1.398 . S
C2016 C2017 1.391 . S
C2017 H2005 0.950 . S
C2017 C2013 1.393 . S
C2017 C2016 1.391 . S
C2018 H2008 0.950 . S
C2018 C2019 1.386 . S
C2018 C2020 1.417 . S
C2019 C2018 1.386 . S
C2019 C2023 1.393 . S
C2020 H2009 0.944 1_545 S
C2020 C2018 1.417 . S
C2020 C2021 1.381 1_545 S
C2021 C2015 1.491 . S
C2021 C2020 1.381 1_565 S
C2021 C2022 1.398 . S
C2022 H2010 0.950 . S
C2022 C2021 1.398 . S
C2022 C2023 1.391 1_565 S
C2023 H2011 0.950 . S
C2023 C2019 1.393 . S
C2023 C2022 1.391 1_545 S
H2024 C2032 0.950 . S
H2025 C2037 0.950 . S
H2026 C2034 0.950 . S
H2027 C2036 0.950 . S
H2028 C2038 0.950 . S
H2029 C2040 0.950 . S
H2030 C2042 0.950 . S
H2031 C2043 0.950 . S
C2032 H2024 0.950 . S
C2032 C2033 1.386 . S
C2032 C2034 1.391 . S
C2033 C2032 1.386 . S
C2033 C2037 1.393 . S
C2034 H2026 0.950 . S
C2034 C2032 1.391 . S
C2034 C2035 1.400 . S
C2035 C2034 1.400 . S
C2035 C2036 1.398 . S
C2035 C2041 1.491 . S
C2036 H2027 0.950 . S
C2036 C2035 1.398 . S
C2036 C2037 1.391 . S
C2037 H2025 0.950 . S
C2037 C2033 1.393 . S
C2037 C2036 1.391 . S
C2038 H2028 0.950 . S
C2038 C2039 1.386 . S
C2038 C2040 1.391 1_655 S
C2039 C2038 1.386 . S
C2039 C2043 1.393 . S
C2040 H2029 0.950 . S
C2040 C2038 1.391 1_455 S
C2040 C2041 1.400 . S
C2041 C2035 1.491 . S
C2041 C2040 1.400 . S
C2041 C2042 1.398 . S
C2042 H2030 0.950 . S
C2042 C2041 1.398 . S
C2042 C2043 1.391 1_455 S
C2043 H2031 0.950 . S
C2043 C2039 1.393 . S
C2043 C2042 1.391 1_655 S
H2044 C2052 0.950 . S
H2045 C2057 0.950 . S
H2046 C2054 0.950 . S
H2047 C2056 0.956 . S
H2048 C2058 0.950 . S
H2049 C2060 0.950 . S
H2050 C2062 0.950 . S
H2051 C2063 0.950 . S
C2052 H2044 0.950 . S
C2052 C2053 1.386 . S
C2052 C2054 1.391 1_455 S
C2053 C2052 1.386 . S
C2053 C2057 1.393 . S
C2054 H2046 0.950 . S
C2054 C2052 1.391 1_655 S
C2054 C2055 1.400 . S
C2055 C2054 1.400 . S
C2055 C2056 1.413 . S
C2055 C2061 1.491 . S
C2056 H2047 0.956 . S
C2056 C2055 1.413 . S
C2056 C2057 1.370 1_655 S
C2057 H2045 0.950 . S
C2057 C2053 1.393 . S
C2057 C2056 1.370 1_455 S
C2058 H2048 0.950 . S
C2058 C2059 1.386 . S
C2058 C2060 1.391 . S
C2059 C2058 1.386 . S
C2059 C2063 1.393 . S
C2060 H2049 0.950 . S
C2060 C2058 1.391 . S
C2060 C2061 1.400 . S
C2061 C2055 1.491 . S
C2061 C2060 1.400 . S
C2061 C2062 1.398 . S
C2062 H2050 0.950 . S
C2062 C2061 1.398 . S
C2062 C2063 1.391 . S
C2063 H2051 0.950 . S
C2063 C2059 1.393 . S
C2063 C2062 1.391 . S
H2064 C2072 0.950 . S
H2065 C2077 0.950 . S
H2066 C2074 0.950 . S
H2067 C2076 0.950 . S
H2068 C2078 0.950 . S
H2069 C2080 0.950 . S
H2070 C2082 0.950 . S
H2071 C2083 0.950 . S
C2072 H2064 0.950 . S
C2072 C2073 1.386 . S
C2072 C2074 1.391 . S
C2073 C2072 1.386 . S
C2073 C2077 1.393 . S
C2074 H2066 0.950 . S
C2074 C2072 1.391 . S
C2074 C2075 1.400 . S
C2075 C2074 1.400 . S
C2075 C2076 1.398 . S
C2075 C2081 1.491 . S
C2076 H2067 0.950 . S
C2076 C2075 1.398 . S
C2076 C2077 1.391 . S
C2077 H2065 0.950 . S
C2077 C2073 1.393 . S
C2077 C2076 1.391 . S
C2078 H2068 0.950 . S
C2078 C2079 1.386 . S
C2078 C2080 1.391 . S
C2079 C2078 1.386 . S
C2079 C2083 1.393 . S
C2080 H2069 0.950 . S
C2080 C2078 1.391 . S
C2080 C2081 1.400 . S
C2081 C2075 1.491 . S
C2081 C2080 1.400 . S
C2081 C2082 1.398 . S
C2082 H2070 0.950 . S
C2082 C2081 1.398 . S
C2082 C2083 1.391 . S
C2083 H2071 0.950 . S
C2083 C2079 1.393 . S
C2083 C2082 1.391 . S
H2084 C2092 0.950 . S
H2085 C2097 0.950 . S
H2086 C2094 0.950 . S
H2087 C2096 0.950 . S
H2088 C2098 0.950 . S
H2089 C2100 0.950 . S
H2090 C2102 0.950 . S
H2091 C2103 0.950 . S
C2092 H2084 0.950 . S
C2092 C2093 1.386 . S
C2092 C2094 1.391 . S
C2093 C2092 1.386 . S
C2093 C2097 1.393 . S
C2094 H2086 0.950 . S
C2094 C2092 1.391 . S
C2094 C2095 1.400 . S
C2095 C2094 1.400 . S
C2095 C2096 1.398 . S
C2095 C2101 1.491 . S
C2096 H2087 0.950 . S
C2096 C2095 1.398 . S
C2096 C2097 1.391 . S
C2097 H2085 0.950 . S
C2097 C2093 1.393 . S
C2097 C2096 1.391 . S
C2098 H2088 0.950 . S
C2098 C2099 1.386 . S
C2098 C2100 1.391 . S
C2099 C2098 1.386 . S
C2099 C2103 1.393 . S
C2100 H2089 0.950 . S
C2100 C2098 1.391 . S
C2100 C2101 1.400 . S
C2101 C2095 1.491 . S
C2101 C2100 1.400 . S
C2101 C2102 1.398 . S
C2102 H2090 0.950 . S
C2102 C2101 1.398 . S
C2102 C2103 1.391 . S
C2103 H2091 0.950 . S
C2103 C2099 1.393 . S
C2103 C2102 1.391 . S
H2104 C2112 0.950 . S
H2105 C2117 0.950 . S
H2106 C2114 0.950 . S
H2107 C2116 0.950 . S
H2108 C2118 0.950 . S
H2109 C2120 0.950 . S
H2110 C2122 0.950 . S
H2111 C2123 0.950 . S
C2112 H2104 0.950 . S
C2112 C2113 1.386 . S
C2112 C2114 1.391 . S
C2113 C2112 1.386 . S
C2113 C2117 1.393 . S
C2114 H2106 0.950 . S
C2114 C2112 1.391 . S
C2114 C2115 1.400 . S
C2115 C2114 1.400 . S
C2115 C2116 1.398 . S
C2115 C2121 1.491 . S
C2116 H2107 0.950 . S
C2116 C2115 1.398 . S
C2116 C2117 1.391 . S
C2117 H2105 0.950 . S
C2117 C2113 1.393 . S
C2117 C2116 1.391 . S
C2118 H2108 0.950 . S
C2118 C2119 1.386 . S
C2118 C2120 1.391 . S
C2119 C2118 1.386 . S
C2119 C2123 1.393 . S
C2120 H2109 0.950 . S
C2120 C2118 1.391 . S
C2120 C2121 1.400 . S
C2121 C2115 1.491 . S
C2121 C2120 1.400 . S
C2121 C2122 1.398 . S
C2122 H2110 0.950 . S
C2122 C2121 1.398 . S
C2122 C2123 1.391 . S
C2123 H2111 0.950 . S
C2123 C2119 1.393 . S
C2123 C2122 1.391 . S
H2124 C2132 0.950 . S
H2125 C2137 0.950 . S
H2126 C2134 0.950 . S
H2127 C2136 0.950 . S
H2128 C2138 0.950 . S
H2129 C2140 0.950 . S
H2130 C2142 0.950 . S
H2131 C2143 0.950 . S
C2132 H2124 0.950 . S
C2132 C2133 1.386 . S
C2132 C2134 1.391 . S
C2133 C2132 1.386 . S
C2133 C2137 1.393 . S
C2134 H2126 0.950 . S
C2134 C2132 1.391 . S
C2134 C2135 1.400 . S
C2135 C2134 1.400 . S
C2135 C2136 1.398 . S
C2135 C2141 1.491 . S
C2136 H2127 0.950 . S
C2136 C2135 1.398 . S
C2136 C2137 1.391 . S
C2137 H2125 0.950 . S
C2137 C2133 1.393 . S
C2137 C2136 1.391 . S
C2138 H2128 0.950 . S
C2138 C2139 1.386 . S
C2138 C2140 1.391 . S
C2139 C2138 1.386 . S
C2139 C2143 1.393 . S
C2140 H2129 0.950 . S
C2140 C2138 1.391 . S
C2140 C2141 1.400 . S
C2141 C2135 1.491 . S
C2141 C2140 1.400 . S
C2141 C2142 1.398 . S
C2142 H2130 0.950 . S
C2142 C2141 1.398 . S
C2142 C2143 1.391 . S
C2143 H2131 0.950 . S
C2143 C2139 1.393 . S
C2143 C2142 1.391 . S
H2144 C2152 0.950 . S
H2145 C2157 0.950 . S
H2146 C2154 0.950 . S
H2147 C2156 0.950 . S
H2148 C2158 0.950 . S
H2149 C2160 0.950 . S
H2150 C2162 0.950 . S
H2151 C2163 0.950 . S
C2152 H2144 0.950 . S
C2152 C2153 1.386 . S
C2152 C2154 1.391 . S
C2153 C2152 1.386 . S
C2153 C2157 1.393 . S
C2154 H2146 0.950 . S
C2154 C2152 1.391 . S
C2154 C2155 1.400 . S
C2155 C2154 1.400 . S
C2155 C2156 1.398 . S
C2155 C2161 1.491 . S
C2156 H2147 0.950 . S
C2156 C2155 1.398 . S
C2156 C2157 1.391 . S
C2157 H2145 0.950 . S
C2157 C2153 1.393 . S
C2157 C2156 1.391 . S
C2158 H2148 0.950 . S
C2158 C2159 1.386 . S
C2158 C2160 1.391 . S
C2159 C2158 1.386 . S
C2159 C2163 1.393 . S
C2160 H2149 0.950 . S
C2160 C2158 1.391 . S
C2160 C2161 1.400 . S
C2161 C2155 1.491 . S
C2161 C2160 1.400 . S
C2161 C2162 1.398 . S
C2162 H2150 0.950 . S
C2162 C2161 1.398 . S
C2162 C2163 1.391 . S
C2163 H2151 0.950 . S
C2163 C2159 1.393 . S
C2163 C2162 1.391 . S
H2164 C2172 0.950 . S
H2165 C2177 0.950 . S
H2166 C2174 0.950 . S
H2167 C2176 0.950 . S
H2168 C2178 0.950 . S
H2169 C2180 0.950 . S
H2170 C2182 0.950 . S
H2171 C2183 0.950 . S
C2172 H2164 0.950 . S
C2172 C2173 1.386 . S
C2172 C2174 1.391 . S
C2173 C2172 1.386 . S
C2173 C2177 1.393 . S
C2174 H2166 0.950 . S
C2174 C2172 1.391 . S
C2174 C2175 1.400 . S
C2175 C2174 1.400 . S
C2175 C2176 1.398 . S
C2175 C2181 1.491 . S
C2176 H2167 0.950 . S
C2176 C2175 1.398 . S
C2176 C2177 1.391 . S
C2177 H2165 0.950 . S
C2177 C2173 1.393 . S
C2177 C2176 1.391 . S
C2178 H2168 0.950 . S
C2178 C2179 1.386 . S
C2178 C2180 1.391 . S
C2179 C2178 1.386 . S
C2179 C2183 1.393 . S
C2180 H2169 0.950 . S
C2180 C2178 1.391 . S
C2180 C2181 1.400 . S
C2181 C2175 1.491 . S
C2181 C2180 1.400 . S
C2181 C2182 1.398 . S
C2182 H2170 0.950 . S
C2182 C2181 1.398 . S
C2182 C2183 1.391 . S
C2183 H2171 0.950 . S
C2183 C2179 1.393 . S
C2183 C2182 1.391 . S
H2184 C2192 0.950 . S
H2185 C2197 0.950 . S
H2186 C2194 0.950 . S
H2187 C2196 0.950 . S
H2188 C2198 0.950 . S
H2189 C2200 0.950 . S
H2190 C2202 0.950 . S
H2191 C2203 0.950 . S
C2192 H2184 0.950 . S
C2192 C2193 1.386 . S
C2192 C2194 1.391 . S
C2193 C2192 1.386 . S
C2193 C2197 1.393 . S
C2194 H2186 0.950 . S
C2194 C2192 1.391 . S
C2194 C2195 1.400 . S
C2195 C2194 1.400 . S
C2195 C2196 1.398 . S
C2195 C2201 1.491 . S
C2196 H2187 0.950 . S
C2196 C2195 1.398 . S
C2196 C2197 1.391 . S
C2197 H2185 0.950 . S
C2197 C2193 1.393 . S
C2197 C2196 1.391 . S
C2198 H2188 0.950 . S
C2198 C2199 1.386 . S
C2198 C2200 1.391 . S
C2199 C2198 1.386 . S
C2199 C2203 1.393 . S
C2200 H2189 0.950 . S
C2200 C2198 1.391 . S
C2200 C2201 1.400 . S
C2201 C2195 1.491 . S
C2201 C2200 1.400 . S
C2201 C2202 1.398 . S
C2202 H2190 0.950 . S
C2202 C2201 1.398 . S
C2202 C2203 1.391 . S
C2203 H2191 0.950 . S
C2203 C2199 1.393 . S
C2203 C2202 1.391 . S
H2204 C2212 0.950 . S
H2205 C2217 0.950 . S
H2206 C2214 0.950 . S
H2207 C2216 0.950 . S
H2208 C2218 0.950 . S
H2209 C2220 0.950 . S
H2210 C2222 0.950 . S
H2211 C2223 0.950 . S
C2212 H2204 0.950 . S
C2212 C2213 1.386 . S
C2212 C2214 1.391 . S
C2213 C2212 1.386 . S
C2213 C2217 1.393 . S
C2214 H2206 0.950 . S
C2214 C2212 1.391 . S
C2214 C2215 1.400 . S
C2215 C2214 1.400 . S
C2215 C2216 1.398 . S
C2215 C2221 1.491 . S
C2216 H2207 0.950 . S
C2216 C2215 1.398 . S
C2216 C2217 1.391 . S
C2217 H2205 0.950 . S
C2217 C2213 1.393 . S
C2217 C2216 1.391 . S
C2218 H2208 0.950 . S
C2218 C2219 1.386 . S
C2218 C2220 1.391 . S
C2219 C2218 1.386 . S
C2219 C2223 1.393 . S
C2220 H2209 0.950 . S
C2220 C2218 1.391 . S
C2220 C2221 1.400 . S
C2221 C2215 1.491 . S
C2221 C2220 1.400 . S
C2221 C2222 1.398 . S
C2222 H2210 0.950 . S
C2222 C2221 1.398 . S
C2222 C2223 1.391 . S
C2223 H2211 0.950 . S
C2223 C2219 1.393 . S
C2223 C2222 1.391 . S
H2224 C2232 0.950 . S
H2225 C2237 0.950 . S
H2226 C2234 0.950 . S
H2227 C2236 0.950 . S
H2228 C2238 0.950 . S
H2229 C2240 0.950 . S
H2230 C2242 0.950 . S
H2231 C2243 0.950 . S
C2232 H2224 0.950 . S
C2232 C2233 1.386 . S
C2232 C2234 1.391 . S
C2233 C2232 1.386 . S
C2233 C2237 1.393 . S
C2234 H2226 0.950 . S
C2234 C2232 1.391 . S
C2234 C2235 1.400 . S
C2235 C2234 1.400 . S
C2235 C2236 1.398 . S
C2235 C2241 1.491 . S
C2236 H2227 0.950 . S
C2236 C2235 1.398 . S
C2236 C2237 1.391 . S
C2237 H2225 0.950 . S
C2237 C2233 1.393 . S
C2237 C2236 1.391 . S
C2238 H2228 0.950 . S
C2238 C2239 1.386 . S
C2238 C2240 1.391 . S
C2239 C2238 1.386 . S
C2239 C2243 1.393 . S
C2240 H2229 0.950 . S
C2240 C2238 1.391 . S
C2240 C2241 1.400 . S
C2241 C2235 1.491 . S
C2241 C2240 1.400 . S
C2241 C2242 1.398 . S
C2242 H2230 0.950 . S
C2242 C2241 1.398 . S
C2242 C2243 1.391 . S
C2243 H2231 0.950 . S
C2243 C2239 1.393 . S
C2243 C2242 1.391 . S
H2244 C2252 0.950 . S
H2245 C2257 0.950 . S
H2246 C2254 0.950 . S
H2247 C2256 0.950 . S
H2248 C2258 0.950 . S
H2249 C2260 0.950 . S
H2250 C2262 0.950 . S
H2251 C2263 0.950 . S
C2252 H2244 0.950 . S
C2252 C2253 1.386 . S
C2252 C2254 1.391 . S
C2253 C2252 1.386 . S
C2253 C2257 1.393 . S
C2254 H2246 0.950 . S
C2254 C2252 1.391 . S
C2254 C2255 1.400 . S
C2255 C2254 1.400 . S
C2255 C2256 1.398 . S
C2255 C2261 1.491 . S
C2256 H2247 0.950 . S
C2256 C2255 1.398 . S
C2256 C2257 1.391 . S
C2257 H2245 0.950 . S
C2257 C2253 1.393 . S
C2257 C2256 1.391 . S
C2258 H2248 0.950 . S
C2258 C2259 1.386 . S
C2258 C2260 1.391 . S
C2259 C2258 1.386 . S
C2259 C2263 1.393 . S
C2260 H2249 0.950 . S
C2260 C2258 1.391 . S
C2260 C2261 1.400 . S
C2261 C2255 1.491 . S
C2261 C2260 1.400 . S
C2261 C2262 1.398 . S
C2262 H2250 0.950 . S
C2262 C2261 1.398 . S
C2262 C2263 1.391 . S
C2263 H2251 0.950 . S
C2263 C2259 1.393 . S
C2263 C2262 1.391 . S
H2264 C2272 0.950 . S
H2265 C2277 0.950 . S
H2266 C2274 0.950 . S
H2267 C2276 0.950 . S
H2268 C2278 0.950 . S
H2269 C2280 0.950 . S
H2270 C2282 0.950 . S
H2271 C2283 0.950 . S
C2272 H2264 0.950 . S
C2272 C2273 1.386 . S
C2272 C2274 1.391 . S
C2273 C2272 1.386 . S
C2273 C2277 1.393 . S
C2274 H2266 0.950 . S
C2274 C2272 1.391 . S
C2274 C2275 1.400 . S
C2275 C2274 1.400 . S
C2275 C2276 1.398 . S
C2275 C2281 1.491 . S
C2276 H2267 0.950 . S
C2276 C2275 1.398 . S
C2276 C2277 1.391 . S
C2277 H2265 0.950 . S
C2277 C2273 1.393 . S
C2277 C2276 1.391 . S
C2278 H2268 0.950 . S
C2278 C2279 1.386 . S
C2278 C2280 1.391 . S
C2279 C2278 1.386 . S
C2279 C2283 1.393 . S
C2280 H2269 0.950 . S
C2280 C2278 1.391 . S
C2280 C2281 1.400 . S
C2281 C2275 1.491 . S
C2281 C2280 1.400 . S
C2281 C2282 1.398 . S
C2282 H2270 0.950 . S
C2282 C2281 1.398 . S
C2282 C2283 1.391 . S
C2283 H2271 0.950 . S
C2283 C2279 1.393 . S
C2283 C2282 1.391 . S
H2284 C2292 0.950 . S
H2285 C2297 0.950 . S
H2286 C2294 0.950 . S
H2287 C2296 0.950 . S
H2288 C2298 0.950 . S
H2289 C2300 0.950 . S
H2290 C2302 0.950 . S
H2291 C2303 0.950 . S
C2292 H2284 0.950 . S
C2292 C2293 1.386 . S
C2292 C2294 1.391 . S
C2293 C2292 1.386 . S
C2293 C2297 1.393 . S
C2294 H2286 0.950 . S
C2294 C2292 1.391 . S
C2294 C2295 1.400 . S
C2295 C2294 1.400 . S
C2295 C2296 1.398 . S
C2295 C2301 1.491 . S
C2296 H2287 0.950 . S
C2296 C2295 1.398 . S
C2296 C2297 1.391 . S
C2297 H2285 0.950 . S
C2297 C2293 1.393 . S
C2297 C2296 1.391 . S
C2298 H2288 0.950 . S
C2298 C2299 1.386 . S
C2298 C2300 1.391 . S
C2299 C2298 1.386 . S
C2299 C2303 1.393 . S
C2300 H2289 0.950 . S
C2300 C2298 1.391 . S
C2300 C2301 1.400 . S
C2301 C2295 1.491 . S
C2301 C2300 1.400 . S
C2301 C2302 1.398 . S
C2302 H2290 0.950 . S
C2302 C2301 1.398 . S
C2302 C2303 1.391 . S
C2303 H2291 0.950 . S
C2303 C2299 1.393 . S
C2303 C2302 1.391 . S
H2304 C2312 0.950 . S
H2305 C2317 0.950 . S
H2306 C2314 0.950 . S
H2307 C2316 0.950 . S
H2308 C2318 0.950 . S
H2309 C2320 0.950 . S
H2310 C2322 0.950 . S
H2311 C2323 0.950 . S
C2312 H2304 0.950 . S
C2312 C2313 1.386 . S
C2312 C2314 1.391 . S
C2313 C2312 1.386 . S
C2313 C2317 1.393 . S
C2314 H2306 0.950 . S
C2314 C2312 1.391 . S
C2314 C2315 1.400 . S
C2315 C2314 1.400 . S
C2315 C2316 1.398 . S
C2315 C2321 1.491 . S
C2316 H2307 0.950 . S
C2316 C2315 1.398 . S
C2316 C2317 1.391 . S
C2317 H2305 0.950 . S
C2317 C2313 1.393 . S
C2317 C2316 1.391 . S
C2318 H2308 0.950 . S
C2318 C2319 1.386 . S
C2318 C2320 1.391 . S
C2319 C2318 1.386 . S
C2319 C2323 1.393 . S
C2320 H2309 0.950 . S
C2320 C2318 1.391 . S
C2320 C2321 1.400 . S
C2321 C2315 1.491 . S
C2321 C2320 1.400 . S
C2321 C2322 1.398 . S
C2322 H2310 0.950 . S
C2322 C2321 1.398 . S
C2322 C2323 1.391 . S
C2323 H2311 0.950 . S
C2323 C2319 1.393 . S
C2323 C2322 1.391 . S
H2324 C2332 0.950 . S
H2325 C2337 0.950 . S
H2326 C2334 0.950 . S
H2327 C2336 0.950 . S
H2328 C2338 0.950 . S
H2329 C2340 0.950 . S
H2330 C2342 0.950 . S
H2331 C2343 0.950 . S
C2332 H2324 0.950 . S
C2332 C2333 1.386 . S
C2332 C2334 1.391 . S
C2333 C2332 1.386 . S
C2333 C2337 1.393 . S
C2334 H2326 0.950 . S
C2334 C2332 1.391 . S
C2334 C2335 1.400 . S
C2335 C2334 1.400 . S
C2335 C2336 1.398 . S
C2335 C2341 1.491 . S
C2336 H2327 0.950 . S
C2336 C2335 1.398 . S
C2336 C2337 1.391 . S
C2337 H2325 0.950 . S
C2337 C2333 1.393 . S
C2337 C2336 1.391 . S
C2338 H2328 0.950 . S
C2338 C2339 1.386 . S
C2338 C2340 1.391 . S
C2339 C2338 1.386 . S
C2339 C2343 1.393 . S
C2340 H2329 0.950 . S
C2340 C2338 1.391 . S
C2340 C2341 1.400 . S
C2341 C2335 1.491 . S
C2341 C2340 1.400 . S
C2341 C2342 1.398 . S
C2342 H2330 0.950 . S
C2342 C2341 1.398 . S
C2342 C2343 1.391 . S
C2343 H2331 0.950 . S
C2343 C2339 1.393 . S
C2343 C2342 1.391 . S
H2344 C2352 0.950 . S
H2345 C2357 0.950 . S
H2346 C2354 0.950 . S
H2347 C2356 0.950 . S
H2348 C2358 0.950 . S
H2349 C2360 0.950 . S
H2350 C2362 0.950 . S
H2351 C2363 0.950 . S
C2352 H2344 0.950 . S
C2352 C2353 1.386 . S
C2352 C2354 1.391 . S
C2353 C2352 1.386 . S
C2353 C2357 1.393 . S
C2354 H2346 0.950 . S
C2354 C2352 1.391 . S
C2354 C2355 1.400 . S
C2355 C2354 1.400 . S
C2355 C2356 1.398 . S
C2355 C2361 1.491 . S
C2356 H2347 0.950 . S
C2356 C2355 1.398 . S
C2356 C2357 1.391 . S
C2357 H2345 0.950 . S
C2357 C2353 1.393 . S
C2357 C2356 1.391 . S
C2358 H2348 0.950 . S
C2358 C2359 1.386 . S
C2358 C2360 1.391 . S
C2359 C2358 1.386 . S
C2359 C2363 1.393 . S
C2360 H2349 0.950 . S
C2360 C2358 1.391 . S
C2360 C2361 1.400 . S
C2361 C2355 1.491 . S
C2361 C2360 1.400 . S
C2361 C2362 1.398 . S
C2362 H2350 0.950 . S
C2362 C2361 1.398 . S
C2362 C2363 1.391 . S
C2363 H2351 0.950 . S
C2363 C2359 1.393 . S
C2363 C2362 1.391 . S
H2364 C2372 0.950 . S
H2365 C2377 0.950 . S
H2366 C2374 0.950 . S
H2367 C2376 0.950 . S
H2368 C2378 0.950 . S
H2369 C2380 0.950 . S
H2370 C2382 0.950 . S
H2371 C2383 0.950 . S
C2372 H2364 0.950 . S
C2372 C2373 1.386 . S
C2372 C2374 1.391 . S
C2373 C2372 1.386 . S
C2373 C2377 1.393 . S
C2374 H2366 0.950 . S
C2374 C2372 1.391 . S
C2374 C2375 1.400 . S
C2375 C2374 1.400 . S
C2375 C2376 1.398 . S
C2375 C2381 1.491 . S
C2376 H2367 0.950 . S
C2376 C2375 1.398 . S
C2376 C2377 1.391 . S
C2377 H2365 0.950 . S
C2377 C2373 1.393 . S
C2377 C2376 1.391 . S
C2378 H2368 0.950 . S
C2378 C2379 1.386 . S
C2378 C2380 1.391 . S
C2379 C2378 1.386 . S
C2379 C2383 1.393 . S
C2380 H2369 0.950 . S
C2380 C2378 1.391 . S
C2380 C2381 1.400 . S
C2381 C2375 1.491 . S
C2381 C2380 1.400 . S
C2381 C2382 1.398 . S
C2382 H2370 0.950 . S
C2382 C2381 1.398 . S
C2382 C2383 1.391 . S
C2383 H2371 0.950 . S
C2383 C2379 1.393 . S
C2383 C2382 1.391 . S
H2384 C2392 0.950 . S
H2385 C2397 0.950 . S
H2386 C2394 0.950 . S
H2387 C2396 0.950 . S
H2388 C2398 0.950 . S
H2389 C2400 0.950 . S
H2390 C2402 0.950 . S
H2391 C2403 0.950 . S
C2392 H2384 0.950 . S
C2392 C2393 1.386 . S
C2392 C2394 1.391 . S
C2393 C2392 1.386 . S
C2393 C2397 1.393 . S
C2394 H2386 0.950 . S
C2394 C2392 1.391 . S
C2394 C2395 1.400 . S
C2395 C2394 1.400 . S
C2395 C2396 1.398 . S
C2395 C2401 1.491 . S
C2396 H2387 0.950 . S
C2396 C2395 1.398 . S
C2396 C2397 1.391 . S
C2397 H2385 0.950 . S
C2397 C2393 1.393 . S
C2397 C2396 1.391 . S
C2398 H2388 0.950 . S
C2398 C2399 1.386 . S
C2398 C2400 1.391 . S
C2399 C2398 1.386 . S
C2399 C2403 1.393 . S
C2400 H2389 0.950 . S
C2400 C2398 1.391 . S
C2400 C2401 1.400 . S
C2401 C2395 1.491 . S
C2401 C2400 1.400 . S
C2401 C2402 1.398 . S
C2402 H2390 0.950 . S
C2402 C2401 1.398 . S
C2402 C2403 1.391 . S
C2403 H2391 0.950 . S
C2403 C2399 1.393 . S
C2403 C2402 1.391 . S
H2404 C2412 0.950 . S
H2405 C2417 0.950 . S
H2406 C2414 0.950 . S
H2407 C2416 0.950 . S
H2408 C2418 0.950 . S
H2409 C2420 0.950 . S
H2410 C2422 0.950 . S
H2411 C2423 0.950 . S
C2412 H2404 0.950 . S
C2412 C2413 1.386 . S
C2412 C2414 1.391 . S
C2413 C2412 1.386 . S
C2413 C2417 1.393 . S
C2414 H2406 0.950 . S
C2414 C2412 1.391 . S
C2414 C2415 1.400 . S
C2415 C2414 1.400 . S
C2415 C2416 1.398 . S
C2415 C2421 1.491 . S
C2416 H2407 0.950 . S
C2416 C2415 1.398 . S
C2416 C2417 1.391 . S
C2417 H2405 0.950 . S
C2417 C2413 1.393 . S
C2417 C2416 1.391 . S
C2418 H2408 0.950 . S
C2418 C2419 1.386 . S
C2418 C2420 1.391 . S
C2419 C2418 1.386 . S
C2419 C2423 1.393 . S
C2420 H2409 0.950 . S
C2420 C2418 1.391 . S
C2420 C2421 1.400 . S
C2421 C2415 1.491 . S
C2421 C2420 1.400 . S
C2421 C2422 1.398 . S
C2422 H2410 0.950 . S
C2422 C2421 1.398 . S
C2422 C2423 1.391 . S
C2423 H2411 0.950 . S
C2423 C2419 1.393 . S
C2423 C2422 1.391 . S
H2424 C2432 0.950 . S
H2425 C2437 0.950 . S
H2426 C2434 0.950 . S
H2427 C2436 0.950 . S
H2428 C2438 0.950 . S
H2429 C2440 0.950 . S
H2430 C2442 0.950 . S
H2431 C2443 0.950 . S
C2432 H2424 0.950 . S
C2432 C2433 1.386 . S
C2432 C2434 1.391 . S
C2433 C2432 1.386 . S
C2433 C2437 1.393 . S
C2434 H2426 0.950 . S
C2434 C2432 1.391 . S
C2434 C2435 1.400 . S
C2435 C2434 1.400 . S
C2435 C2436 1.398 . S
C2435 C2441 1.491 . S
C2436 H2427 0.950 . S
C2436 C2435 1.398 . S
C2436 C2437 1.391 . S
C2437 H2425 0.950 . S
C2437 C2433 1.393 . S
C2437 C2436 1.391 . S
C2438 H2428 0.950 . S
C2438 C2439 1.386 . S
C2438 C2440 1.391 . S
C2439 C2438 1.386 . S
C2439 C2443 1.393 . S
C2440 H2429 0.950 . S
C2440 C2438 1.391 . S
C2440 C2441 1.400 . S
C2441 C2435 1.491 . S
C2441 C2440 1.400 . S
C2441 C2442 1.398 . S
C2442 H2430 0.950 . S
C2442 C2441 1.398 . S
C2442 C2443 1.391 . S
C2443 H2431 0.950 . S
C2443 C2439 1.393 . S
C2443 C2442 1.391 . S
H2444 C2452 0.950 . S
H2445 C2457 0.950 . S
H2446 C2454 0.950 . S
H2447 C2456 0.950 . S
H2448 C2458 0.950 . S
H2449 C2460 0.950 . S
H2450 C2462 0.950 . S
H2451 C2463 0.950 . S
C2452 H2444 0.950 . S
C2452 C2453 1.386 . S
C2452 C2454 1.391 . S
C2453 C2452 1.386 . S
C2453 C2457 1.393 . S
C2454 H2446 0.950 . S
C2454 C2452 1.391 . S
C2454 C2455 1.400 . S
C2455 C2454 1.400 . S
C2455 C2456 1.398 . S
C2455 C2461 1.491 . S
C2456 H2447 0.950 . S
C2456 C2455 1.398 . S
C2456 C2457 1.391 . S
C2457 H2445 0.950 . S
C2457 C2453 1.393 . S
C2457 C2456 1.391 . S
C2458 H2448 0.950 . S
C2458 C2459 1.386 . S
C2458 C2460 1.391 . S
C2459 C2458 1.386 . S
C2459 C2463 1.393 . S
C2460 H2449 0.950 . S
C2460 C2458 1.391 . S
C2460 C2461 1.400 . S
C2461 C2455 1.491 . S
C2461 C2460 1.400 . S
C2461 C2462 1.398 . S
C2462 H2450 0.950 . S
C2462 C2461 1.398 . S
C2462 C2463 1.391 . S
C2463 H2451 0.950 . S
C2463 C2459 1.393 . S
C2463 C2462 1.391 . S
H2464 C2472 0.950 . S
H2465 C2477 0.950 . S
H2466 C2474 0.950 . S
H2467 C2476 0.950 . S
H2468 C2478 0.950 . S
H2469 C2480 0.950 . S
H2470 C2482 0.950 . S
H2471 C2483 0.950 . S
C2472 H2464 0.950 . S
C2472 C2473 1.386 . S
C2472 C2474 1.391 . S
C2473 C2472 1.386 . S
C2473 C2477 1.393 . S
C2474 H2466 0.950 . S
C2474 C2472 1.391 . S
C2474 C2475 1.400 . S
C2475 C2474 1.400 . S
C2475 C2476 1.398 . S
C2475 C2481 1.491 . S
C2476 H2467 0.950 . S
C2476 C2475 1.398 . S
C2476 C2477 1.391 . S
C2477 H2465 0.950 . S
C2477 C2473 1.393 . S
C2477 C2476 1.391 . S
C2478 H2468 0.950 . S
C2478 C2479 1.386 . S
C2478 C2480 1.391 . S
C2479 C2478 1.386 . S
C2479 C2483 1.393 . S
C2480 H2469 0.950 . S
C2480 C2478 1.391 . S
C2480 C2481 1.400 . S
C2481 C2475 1.491 . S
C2481 C2480 1.400 . S
C2481 C2482 1.398 . S
C2482 H2470 0.950 . S
C2482 C2481 1.398 . S
C2482 C2483 1.391 . S
C2483 H2471 0.950 . S
C2483 C2479 1.393 . S
C2483 C2482 1.391 . S
H2484 C2492 0.950 . S
H2485 C2497 0.950 . S
H2486 C2494 0.950 . S
H2487 C2496 0.950 . S
H2488 C2498 0.950 . S
H2489 C2500 0.950 . S
H2490 C2502 0.950 . S
H2491 C2503 0.950 . S
C2492 H2484 0.950 . S
C2492 C2493 1.386 . S
C2492 C2494 1.391 . S
C2493 C2492 1.386 . S
C2493 C2497 1.393 . S
C2494 H2486 0.950 . S
C2494 C2492 1.391 . S
C2494 C2495 1.400 . S
C2495 C2494 1.400 . S
C2495 C2496 1.398 . S
C2495 C2501 1.491 . S
C2496 H2487 0.950 . S
C2496 C2495 1.398 . S
C2496 C2497 1.391 . S
C2497 H2485 0.950 . S
C2497 C2493 1.393 . S
C2497 C2496 1.391 . S
C2498 H2488 0.950 . S
C2498 C2499 1.386 . S
C2498 C2500 1.391 . S
C2499 C2498 1.386 . S
C2499 C2503 1.393 . S
C2500 H2489 0.950 . S
C2500 C2498 1.391 . S
C2500 C2501 1.400 . S
C2501 C2495 1.491 . S
C2501 C2500 1.400 . S
C2501 C2502 1.398 . S
C2502 H2490 0.950 . S
C2502 C2501 1.398 . S
C2502 C2503 1.391 . S
C2503 H2491 0.950 . S
C2503 C2499 1.393 . S
C2503 C2502 1.391 . S
H2504 C2512 0.950 . S
H2505 C2517 0.950 . S
H2506 C2514 0.950 . S
H2507 C2516 0.950 . S
H2508 C2518 0.950 . S
H2509 C2520 0.950 . S
H2510 C2522 0.950 . S
H2511 C2523 0.950 . S
C2512 H2504 0.950 . S
C2512 C2513 1.386 . S
C2512 C2514 1.391 . S
C2513 C2512 1.386 . S
C2513 C2517 1.393 . S
C2514 H2506 0.950 . S
C2514 C2512 1.391 . S
C2514 C2515 1.400 . S
C2515 C2514 1.400 . S
C2515 C2516 1.398 . S
C2515 C2521 1.491 . S
C2516 H2507 0.950 . S
C2516 C2515 1.398 . S
C2516 C2517 1.391 . S
C2517 H2505 0.950 . S
C2517 C2513 1.393 . S
C2517 C2516 1.391 . S
C2518 H2508 0.950 . S
C2518 C2519 1.386 . S
C2518 C2520 1.391 . S
C2519 C2518 1.386 . S
C2519 C2523 1.393 . S
C2520 H2509 0.950 . S
C2520 C2518 1.391 . S
C2520 C2521 1.400 . S
C2521 C2515 1.491 . S
C2521 C2520 1.400 . S
C2521 C2522 1.398 . S
C2522 H2510 0.950 . S
C2522 C2521 1.398 . S
C2522 C2523 1.391 . S
C2523 H2511 0.950 . S
C2523 C2519 1.393 . S
C2523 C2522 1.391 . S
H2524 C2532 0.950 . S
H2525 C2537 0.950 . S
H2526 C2534 0.950 . S
H2527 C2536 0.950 . S
H2528 C2538 0.950 . S
H2529 C2540 0.950 . S
H2530 C2542 0.950 . S
H2531 C2543 0.950 . S
C2532 H2524 0.950 . S
C2532 C2533 1.386 . S
C2532 C2534 1.391 . S
C2533 C2532 1.386 . S
C2533 C2537 1.393 . S
C2534 H2526 0.950 . S
C2534 C2532 1.391 . S
C2534 C2535 1.400 . S
C2535 C2534 1.400 . S
C2535 C2536 1.398 . S
C2535 C2541 1.491 . S
C2536 H2527 0.950 . S
C2536 C2535 1.398 . S
C2536 C2537 1.391 . S
C2537 H2525 0.950 . S
C2537 C2533 1.393 . S
C2537 C2536 1.391 . S
C2538 H2528 0.950 . S
C2538 C2539 1.386 . S
C2538 C2540 1.391 . S
C2539 C2538 1.386 . S
C2539 C2543 1.393 . S
C2540 H2529 0.950 . S
C2540 C2538 1.391 . S
C2540 C2541 1.400 . S
C2541 C2535 1.491 . S
C2541 C2540 1.400 . S
C2541 C2542 1.398 . S
C2542 H2530 0.950 . S
C2542 C2541 1.398 . S
C2542 C2543 1.391 . S
C2543 H2531 0.950 . S
C2543 C2539 1.393 . S
C2543 C2542 1.391 . S
H2544 C2552 0.950 . S
H2545 C2557 0.950 . S
H2546 C2554 0.950 . S
H2547 C2556 0.950 . S
H2548 C2558 0.950 . S
H2549 C2560 0.950 . S
H2550 C2562 0.950 . S
H2551 C2563 0.950 . S
C2552 H2544 0.950 . S
C2552 C2553 1.386 . S
C2552 C2554 1.391 . S
C2553 C2552 1.386 . S
C2553 C2557 1.393 . S
C2554 H2546 0.950 . S
C2554 C2552 1.391 . S
C2554 C2555 1.400 . S
C2555 C2554 1.400 . S
C2555 C2556 1.398 . S
C2555 C2561 1.491 . S
C2556 H2547 0.950 . S
C2556 C2555 1.398 . S
C2556 C2557 1.391 . S
C2557 H2545 0.950 . S
C2557 C2553 1.393 . S
C2557 C2556 1.391 . S
C2558 H2548 0.950 . S
C2558 C2559 1.386 . S
C2558 C2560 1.391 . S
C2559 C2558 1.386 . S
C2559 C2563 1.393 . S
C2560 H2549 0.950 . S
C2560 C2558 1.391 . S
C2560 C2561 1.400 . S
C2561 C2555 1.491 . S
C2561 C2560 1.400 . S
C2561 C2562 1.398 . S
C2562 H2550 0.950 . S
C2562 C2561 1.398 . S
C2562 C2563 1.391 . S
C2563 H2551 0.950 . S
C2563 C2559 1.393 . S
C2563 C2562 1.391 . S
H2564 C2572 0.950 . S
H2565 C2577 0.950 . S
H2566 C2574 0.950 . S
H2567 C2576 0.950 . S
H2568 C2578 0.950 . S
H2569 C2580 0.950 . S
H2570 C2582 0.950 . S
H2571 C2583 0.950 . S
C2572 H2564 0.950 . S
C2572 C2573 1.386 . S
C2572 C2574 1.391 . S
C2573 C2572 1.386 . S
C2573 C2577 1.393 . S
C2574 H2566 0.950 . S
C2574 C2572 1.391 . S
C2574 C2575 1.400 . S
C2575 C2574 1.400 . S
C2575 C2576 1.398 . S
C2575 C2581 1.491 . S
C2576 H2567 0.950 . S
C2576 C2575 1.398 . S
C2576 C2577 1.391 . S
C2577 H2565 0.950 . S
C2577 C2573 1.393 . S
C2577 C2576 1.391 . S
C2578 H2568 0.950 . S
C2578 C2579 1.386 . S
C2578 C2580 1.391 . S
C2579 C2578 1.386 . S
C2579 C2583 1.393 . S
C2580 H2569 0.950 . S
C2580 C2578 1.391 . S
C2580 C2581 1.400 . S
C2581 C2575 1.491 . S
C2581 C2580 1.400 . S
C2581 C2582 1.398 . S
C2582 H2570 0.950 . S
C2582 C2581 1.398 . S
C2582 C2583 1.391 . S
C2583 H2571 0.950 . S
C2583 C2579 1.393 . S
C2583 C2582 1.391 . S
H2584 C2592 0.950 . S
H2585 C2597 0.950 . S
H2586 C2594 0.950 . S
H2587 C2596 0.950 . S
H2588 C2598 0.950 . S
H2589 C2600 0.950 . S
H2590 C2602 0.950 . S
H2591 C2603 0.950 . S
C2592 H2584 0.950 . S
C2592 C2593 1.386 . S
C2592 C2594 1.391 . S
C2593 C2592 1.386 . S
C2593 C2597 1.393 . S
C2594 H2586 0.950 . S
C2594 C2592 1.391 . S
C2594 C2595 1.400 . S
C2595 C2594 1.400 . S
C2595 C2596 1.398 . S
C2595 C2601 1.491 . S
C2596 H2587 0.950 . S
C2596 C2595 1.398 . S
C2596 C2597 1.391 . S
C2597 H2585 0.950 . S
C2597 C2593 1.393 . S
C2597 C2596 1.391 . S
C2598 H2588 0.950 . S
C2598 C2599 1.386 . S
C2598 C2600 1.391 . S
C2599 C2598 1.386 . S
C2599 C2603 1.393 . S
C2600 H2589 0.950 . S
C2600 C2598 1.391 . S
C2600 C2601 1.400 . S
C2601 C2595 1.491 . S
C2601 C2600 1.400 . S
C2601 C2602 1.398 . S
C2602 H2590 0.950 . S
C2602 C2601 1.398 . S
C2602 C2603 1.391 . S
C2603 H2591 0.950 . S
C2603 C2599 1.393 . S
C2603 C2602 1.391 . S
H2604 C2612 0.950 . S
H2605 C2617 0.950 . S
H2606 C2614 0.950 . S
H2607 C2616 0.950 . S
H2608 C2618 0.950 . S
H2609 C2620 0.950 . S
H2610 C2622 0.950 . S
H2611 C2623 0.950 . S
C2612 H2604 0.950 . S
C2612 C2613 1.386 . S
C2612 C2614 1.391 . S
C2613 C2612 1.386 . S
C2613 C2617 1.393 . S
C2614 H2606 0.950 . S
C2614 C2612 1.391 . S
C2614 C2615 1.400 . S
C2615 C2614 1.400 . S
C2615 C2616 1.398 . S
C2615 C2621 1.491 . S
C2616 H2607 0.950 . S
C2616 C2615 1.398 . S
C2616 C2617 1.391 . S
C2617 H2605 0.950 . S
C2617 C2613 1.393 . S
C2617 C2616 1.391 . S
C2618 H2608 0.950 . S
C2618 C2619 1.386 . S
C2618 C2620 1.391 . S
C2619 C2618 1.386 . S
C2619 C2623 1.393 . S
C2620 H2609 0.950 . S
C2620 C2618 1.391 . S
C2620 C2621 1.400 . S
C2621 C2615 1.491 . S
C2621 C2620 1.400 . S
C2621 C2622 1.398 . S
C2622 H2610 0.950 . S
C2622 C2621 1.398 . S
C2622 C2623 1.391 . S
C2623 H2611 0.950 . S
C2623 C2619 1.393 . S
C2623 C2622 1.391 . S
H2624 C2632 0.950 . S
H2625 C2637 0.950 . S
H2626 C2634 0.950 . S
H2627 C2636 0.950 . S
H2628 C2638 0.950 . S
H2629 C2640 0.950 . S
H2630 C2642 0.950 . S
H2631 C2643 0.950 . S
C2632 H2624 0.950 . S
C2632 C2633 1.386 . S
C2632 C2634 1.391 . S
C2633 C2632 1.386 . S
C2633 C2637 1.393 . S
C2634 H2626 0.950 . S
C2634 C2632 1.391 . S
C2634 C2635 1.400 . S
C2635 C2634 1.400 . S
C2635 C2636 1.398 . S
C2635 C2641 1.491 . S
C2636 H2627 0.950 . S
C2636 C2635 1.398 . S
C2636 C2637 1.391 . S
C2637 H2625 0.950 . S
C2637 C2633 1.393 . S
C2637 C2636 1.391 . S
C2638 H2628 0.950 . S
C2638 C2639 1.386 . S
C2638 C2640 1.391 . S
C2639 C2638 1.386 . S
C2639 C2643 1.393 . S
C2640 H2629 0.950 . S
C2640 C2638 1.391 . S
C2640 C2641 1.400 . S
C2641 C2635 1.491 . S
C2641 C2640 1.400 . S
C2641 C2642 1.398 . S
C2642 H2630 0.950 . S
C2642 C2641 1.398 . S
C2642 C2643 1.391 . S
C2643 H2631 0.950 . S
C2643 C2639 1.393 . S
C2643 C2642 1.391 . S
H2644 C2652 0.950 . S
H2645 C2657 0.950 . S
H2646 C2654 0.950 . S
H2647 C2656 0.950 . S
H2648 C2658 0.950 . S
H2649 C2660 0.950 . S
H2650 C2662 0.950 . S
H2651 C2663 0.950 . S
C2652 H2644 0.950 . S
C2652 C2653 1.386 . S
C2652 C2654 1.391 . S
C2653 C2652 1.386 . S
C2653 C2657 1.393 . S
C2654 H2646 0.950 . S
C2654 C2652 1.391 . S
C2654 C2655 1.400 . S
C2655 C2654 1.400 . S
C2655 C2656 1.398 . S
C2655 C2661 1.491 . S
C2656 H2647 0.950 . S
C2656 C2655 1.398 . S
C2656 C2657 1.391 . S
C2657 H2645 0.950 . S
C2657 C2653 1.393 . S
C2657 C2656 1.391 . S
C2658 H2648 0.950 . S
C2658 C2659 1.386 . S
C2658 C2660 1.391 . S
C2659 C2658 1.386 . S
C2659 C2663 1.393 . S
C2660 H2649 0.950 . S
C2660 C2658 1.391 . S
C2660 C2661 1.400 . S
C2661 C2655 1.491 . S
C2661 C2660 1.400 . S
C2661 C2662 1.398 . S
C2662 H2650 0.950 . S
C2662 C2661 1.398 . S
C2662 C2663 1.391 . S
C2663 H2651 0.950 . S
C2663 C2659 1.393 . S
C2663 C2662 1.391 . S
H2664 C2672 0.950 . S
H2665 C2677 0.950 . S
H2666 C2674 0.950 . S
H2667 C2676 0.950 . S
H2668 C2678 0.950 . S
H2669 C2680 0.950 . S
H2670 C2682 0.950 . S
H2671 C2683 0.950 . S
C2672 H2664 0.950 . S
C2672 C2673 1.386 . S
C2672 C2674 1.391 . S
C2673 C2672 1.386 . S
C2673 C2677 1.393 . S
C2674 H2666 0.950 . S
C2674 C2672 1.391 . S
C2674 C2675 1.400 . S
C2675 C2674 1.400 . S
C2675 C2676 1.398 . S
C2675 C2681 1.491 . S
C2676 H2667 0.950 . S
C2676 C2675 1.398 . S
C2676 C2677 1.391 . S
C2677 H2665 0.950 . S
C2677 C2673 1.393 . S
C2677 C2676 1.391 . S
C2678 H2668 0.950 . S
C2678 C2679 1.386 . S
C2678 C2680 1.391 . S
C2679 C2678 1.386 . S
C2679 C2683 1.393 . S
C2680 H2669 0.950 . S
C2680 C2678 1.391 . S
C2680 C2681 1.400 . S
C2681 C2675 1.491 . S
C2681 C2680 1.400 . S
C2681 C2682 1.398 . S
C2682 H2670 0.950 . S
C2682 C2681 1.398 . S
C2682 C2683 1.391 . S
C2683 H2671 0.950 . S
C2683 C2679 1.393 . S
C2683 C2682 1.391 . S
H2684 C2692 0.950 . S
H2685 C2697 0.950 . S
H2686 C2694 0.950 . S
H2687 C2696 0.950 . S
H2688 C2698 0.950 . S
H2689 C2700 0.950 . S
H2690 C2702 0.950 . S
H2691 C2703 0.950 . S
C2692 H2684 0.950 . S
C2692 C2693 1.386 . S
C2692 C2694 1.391 . S
C2693 C2692 1.386 . S
C2693 C2697 1.393 . S
C2694 H2686 0.950 . S
C2694 C2692 1.391 . S
C2694 C2695 1.400 . S
C2695 C2694 1.400 . S
C2695 C2696 1.398 . S
C2695 C2701 1.491 . S
C2696 H2687 0.950 . S
C2696 C2695 1.398 . S
C2696 C2697 1.391 . S
C2697 H2685 0.950 . S
C2697 C2693 1.393 . S
C2697 C2696 1.391 . S
C2698 H2688 0.950 . S
C2698 C2699 1.386 . S
C2698 C2700 1.391 . S
C2699 C2698 1.386 . S
C2699 C2703 1.393 . S
C2700 H2689 0.950 . S
C2700 C2698 1.391 . S
C2700 C2701 1.400 . S
C2701 C2695 1.491 . S
C2701 C2700 1.400 . S
C2701 C2702 1.398 . S
C2702 H2690 0.950 . S
C2702 C2701 1.398 . S
C2702 C2703 1.391 . S
C2703 H2691 0.950 . S
C2703 C2699 1.393 . S
C2703 C2702 1.391 . S
H2704 C2712 0.950 . S
H2705 C2717 0.950 . S
H2706 C2714 0.950 . S
H2707 C2716 0.950 . S
H2708 C2718 0.950 . S
H2709 C2720 0.950 . S
H2710 C2722 0.950 . S
H2711 C2723 0.950 . S
C2712 H2704 0.950 . S
C2712 C2713 1.386 . S
C2712 C2714 1.391 . S
C2713 C2712 1.386 . S
C2713 C2717 1.393 . S
C2714 H2706 0.950 . S
C2714 C2712 1.391 . S
C2714 C2715 1.400 . S
C2715 C2714 1.400 . S
C2715 C2716 1.398 . S
C2715 C2721 1.491 . S
C2716 H2707 0.950 . S
C2716 C2715 1.398 . S
C2716 C2717 1.391 . S
C2717 H2705 0.950 . S
C2717 C2713 1.393 . S
C2717 C2716 1.391 . S
C2718 H2708 0.950 . S
C2718 C2719 1.386 . S
C2718 C2720 1.391 . S
C2719 C2718 1.386 . S
C2719 C2723 1.393 . S
C2720 H2709 0.950 . S
C2720 C2718 1.391 . S
C2720 C2721 1.400 . S
C2721 C2715 1.491 . S
C2721 C2720 1.400 . S
C2721 C2722 1.398 . S
C2722 H2710 0.950 . S
C2722 C2721 1.398 . S
C2722 C2723 1.391 . S
C2723 H2711 0.950 . S
C2723 C2719 1.393 . S
C2723 C2722 1.391 . S
H2724 C2732 0.950 . S
H2725 C2737 0.950 . S
H2726 C2734 0.950 . S
H2727 C2736 0.950 . S
H2728 C2738 0.950 . S
H2729 C2740 0.950 . S
H2730 C2742 0.950 . S
H2731 C2743 0.950 . S
C2732 H2724 0.950 . S
C2732 C2733 1.386 . S
C2732 C2734 1.391 . S
C2733 C2732 1.386 . S
C2733 C2737 1.393 . S
C2734 H2726 0.950 . S
C2734 C2732 1.391 . S
C2734 C2735 1.400 . S
C2735 C2734 1.400 . S
C2735 C2736 1.398 . S
C2735 C2741 1.491 . S
C2736 H2727 0.950 . S
C2736 C2735 1.398 . S
C2736 C2737 1.391 . S
C2737 H2725 0.950 . S
C2737 C2733 1.393 . S
C2737 C2736 1.391 . S
C2738 H2728 0.950 . S
C2738 C2739 1.386 . S
C2738 C2740 1.391 . S
C2739 C2738 1.386 . S
C2739 C2743 1.393 . S
C2740 H2729 0.950 . S
C2740 C2738 1.391 . S
C2740 C2741 1.400 . S
C2741 C2735 1.491 . S
C2741 C2740 1.400 . S
C2741 C2742 1.398 . S
C2742 H2730 0.950 . S
C2742 C2741 1.398 . S
C2742 C2743 1.391 . S
C2743 H2731 0.950 . S
C2743 C2739 1.393 . S
C2743 C2742 1.391 . S
H2744 C2752 0.950 . S
H2745 C2757 0.950 . S
H2746 C2754 0.950 . S
H2747 C2756 0.950 . S
H2748 C2758 0.950 . S
H2749 C2760 0.950 . S
H2750 C2762 0.950 . S
H2751 C2763 0.950 . S
C2752 H2744 0.950 . S
C2752 C2753 1.386 . S
C2752 C2754 1.391 . S
C2753 C2752 1.386 . S
C2753 C2757 1.393 . S
C2754 H2746 0.950 . S
C2754 C2752 1.391 . S
C2754 C2755 1.400 . S
C2755 C2754 1.400 . S
C2755 C2756 1.398 . S
C2755 C2761 1.491 . S
C2756 H2747 0.950 . S
C2756 C2755 1.398 . S
C2756 C2757 1.391 . S
C2757 H2745 0.950 . S
C2757 C2753 1.393 . S
C2757 C2756 1.391 . S
C2758 H2748 0.950 . S
C2758 C2759 1.386 . S
C2758 C2760 1.391 . S
C2759 C2758 1.386 . S
C2759 C2763 1.393 . S
C2760 H2749 0.950 . S
C2760 C2758 1.391 . S
C2760 C2761 1.400 . S
C2761 C2755 1.491 . S
C2761 C2760 1.400 . S
C2761 C2762 1.398 . S
C2762 H2750 0.950 . S
C2762 C2761 1.398 . S
C2762 C2763 1.391 . S
C2763 H2751 0.950 . S
C2763 C2759 1.393 . S
C2763 C2762 1.391 . S
H2764 C2772 0.950 . S
H2765 C2777 0.950 . S
H2766 C2774 0.950 . S
H2767 C2776 0.950 . S
H2768 C2778 0.950 . S
H2769 C2780 0.950 . S
H2770 C2782 0.950 . S
H2771 C2783 0.950 . S
C2772 H2764 0.950 . S
C2772 C2773 1.386 . S
C2772 C2774 1.391 . S
C2773 C2772 1.386 . S
C2773 C2777 1.393 . S
C2774 H2766 0.950 . S
C2774 C2772 1.391 . S
C2774 C2775 1.400 . S
C2775 C2774 1.400 . S
C2775 C2776 1.398 . S
C2775 C2781 1.491 . S
C2776 H2767 0.950 . S
C2776 C2775 1.398 . S
C2776 C2777 1.391 . S
C2777 H2765 0.950 . S
C2777 C2773 1.393 . S
C2777 C2776 1.391 . S
C2778 H2768 0.950 . S
C2778 C2779 1.386 . S
C2778 C2780 1.391 . S
C2779 C2778 1.386 . S
C2779 C2783 1.393 . S
C2780 H2769 0.950 . S
C2780 C2778 1.391 . S
C2780 C2781 1.400 . S
C2781 C2775 1.491 . S
C2781 C2780 1.400 . S
C2781 C2782 1.398 . S
C2782 H2770 0.950 . S
C2782 C2781 1.398 . S
C2782 C2783 1.391 . S
C2783 H2771 0.950 . S
C2783 C2779 1.393 . S
C2783 C2782 1.391 . S
H2784 C2792 0.950 . S
H2785 C2797 0.950 . S
H2786 C2794 0.950 . S
H2787 C2796 0.950 . S
H2788 C2798 0.950 . S
H2789 C2800 0.950 . S
H2790 C2802 0.950 . S
H2791 C2803 0.950 . S
C2792 H2784 0.950 . S
C2792 C2793 1.386 . S
C2792 C2794 1.391 . S
C2793 C2792 1.386 . S
C2793 C2797 1.393 . S
C2794 H2786 0.950 . S
C2794 C2792 1.391 . S
C2794 C2795 1.400 . S
C2795 C2794 1.400 . S
C2795 C2796 1.398 . S
C2795 C2801 1.491 . S
C2796 H2787 0.950 . S
C2796 C2795 1.398 . S
C2796 C2797 1.391 . S
C2797 H2785 0.950 . S
C2797 C2793 1.393 . S
C2797 C2796 1.391 . S
C2798 H2788 0.950 . S
C2798 C2799 1.386 . S
C2798 C2800 1.391 . S
C2799 C2798 1.386 . S
C2799 C2803 1.393 . S
C2800 H2789 0.950 . S
C2800 C2798 1.391 . S
C2800 C2801 1.400 . S
C2801 C2795 1.491 . S
C2801 C2800 1.400 . S
C2801 C2802 1.398 . S
C2802 H2790 0.950 . S
C2802 C2801 1.398 . S
C2802 C2803 1.391 . S
C2803 H2791 0.950 . S
C2803 C2799 1.393 . S
C2803 C2802 1.391 . S
H2804 C2812 0.950 . S
H2805 C2817 0.950 . S
H2806 C2814 0.950 . S
H2807 C2816 0.950 . S
H2808 C2818 0.950 . S
H2809 C2820 0.950 . S
H2810 C2822 0.950 . S
H2811 C2823 0.950 . S
C2812 H2804 0.950 . S
C2812 C2813 1.386 . S
C2812 C2814 1.391 . S
C2813 C2812 1.386 . S
C2813 C2817 1.393 . S
C2814 H2806 0.950 . S
C2814 C2812 1.391 . S
C2814 C2815 1.400 . S
C2815 C2814 1.400 . S
C2815 C2816 1.398 . S
C2815 C2821 1.491 . S
C2816 H2807 0.950 . S
C2816 C2815 1.398 . S
C2816 C2817 1.391 . S
C2817 H2805 0.950 . S
C2817 C2813 1.393 . S
C2817 C2816 1.391 . S
C2818 H2808 0.950 . S
C2818 C2819 1.386 . S
C2818 C2820 1.391 . S
C2819 C2818 1.386 . S
C2819 C2823 1.393 . S
C2820 H2809 0.950 . S
C2820 C2818 1.391 . S
C2820 C2821 1.400 . S
C2821 C2815 1.491 . S
C2821 C2820 1.400 . S
C2821 C2822 1.398 . S
C2822 H2810 0.950 . S
C2822 C2821 1.398 . S
C2822 C2823 1.391 . S
C2823 H2811 0.950 . S
C2823 C2819 1.393 . S
C2823 C2822 1.391 . S
H2824 C2832 0.950 . S
H2825 C2837 0.950 . S
H2826 C2834 0.950 . S
H2827 C2836 0.950 . S
H2828 C2838 0.950 . S
H2829 C2840 0.950 . S
H2830 C2842 0.950 . S
H2831 C2843 0.950 . S
C2832 H2824 0.950 . S
C2832 C2833 1.386 . S
C2832 C2834 1.391 . S
C2833 C2832 1.386 . S
C2833 C2837 1.393 . S
C2834 H2826 0.950 . S
C2834 C2832 1.391 . S
C2834 C2835 1.400 . S
C2835 C2834 1.400 . S
C2835 C2836 1.398 . S
C2835 C2841 1.491 . S
C2836 H2827 0.950 . S
C2836 C2835 1.398 . S
C2836 C2837 1.391 . S
C2837 H2825 0.950 . S
C2837 C2833 1.393 . S
C2837 C2836 1.391 . S
C2838 H2828 0.950 . S
C2838 C2839 1.386 . S
C2838 C2840 1.391 . S
C2839 C2838 1.386 . S
C2839 C2843 1.393 . S
C2840 H2829 0.950 . S
C2840 C2838 1.391 . S
C2840 C2841 1.400 . S
C2841 C2835 1.491 . S
C2841 C2840 1.400 . S
C2841 C2842 1.398 . S
C2842 H2830 0.950 . S
C2842 C2841 1.398 . S
C2842 C2843 1.391 . S
C2843 H2831 0.950 . S
C2843 C2839 1.393 . S
C2843 C2842 1.391 . S
H2844 C2852 0.950 . S
H2845 C2857 0.950 . S
H2846 C2854 0.950 . S
H2847 C2856 0.950 . S
H2848 C2858 0.950 . S
H2849 C2860 0.950 . S
H2850 C2862 0.950 . S
H2851 C2863 0.950 . S
C2852 H2844 0.950 . S
C2852 C2853 1.386 . S
C2852 C2854 1.391 . S
C2853 C2852 1.386 . S
C2853 C2857 1.393 . S
C2854 H2846 0.950 . S
C2854 C2852 1.391 . S
C2854 C2855 1.400 . S
C2855 C2854 1.400 . S
C2855 C2856 1.398 . S
C2855 C2861 1.491 . S
C2856 H2847 0.950 . S
C2856 C2855 1.398 . S
C2856 C2857 1.391 . S
C2857 H2845 0.950 . S
C2857 C2853 1.393 . S
C2857 C2856 1.391 . S
C2858 H2848 0.950 . S
C2858 C2859 1.386 . S
C2858 C2860 1.391 . S
C2859 C2858 1.386 . S
C2859 C2863 1.393 . S
C2860 H2849 0.950 . S
C2860 C2858 1.391 . S
C2860 C2861 1.400 . S
C2861 C2855 1.491 . S
C2861 C2860 1.400 . S
C2861 C2862 1.398 . S
C2862 H2850 0.950 . S
C2862 C2861 1.398 . S
C2862 C2863 1.391 . S
C2863 H2851 0.950 . S
C2863 C2859 1.393 . S
C2863 C2862 1.391 . S
H2864 C2872 0.950 . S
H2865 C2877 0.950 . S
H2866 C2874 0.950 . S
H2867 C2876 0.950 . S
H2868 C2878 0.950 . S
H2869 C2880 0.950 . S
H2870 C2882 0.950 . S
H2871 C2883 0.950 . S
C2872 H2864 0.950 . S
C2872 C2873 1.386 . S
C2872 C2874 1.391 . S
C2873 C2872 1.386 . S
C2873 C2877 1.393 . S
C2874 H2866 0.950 . S
C2874 C2872 1.391 . S
C2874 C2875 1.400 . S
C2875 C2874 1.400 . S
C2875 C2876 1.398 . S
C2875 C2881 1.491 . S
C2876 H2867 0.950 . S
C2876 C2875 1.398 . S
C2876 C2877 1.391 . S
C2877 H2865 0.950 . S
C2877 C2873 1.393 . S
C2877 C2876 1.391 . S
C2878 H2868 0.950 . S
C2878 C2879 1.386 . S
C2878 C2880 1.391 . S
C2879 C2878 1.386 . S
C2879 C2883 1.393 . S
C2880 H2869 0.950 . S
C2880 C2878 1.391 . S
C2880 C2881 1.400 . S
C2881 C2875 1.491 . S
C2881 C2880 1.400 . S
C2881 C2882 1.398 . S
C2882 H2870 0.950 . S
C2882 C2881 1.398 . S
C2882 C2883 1.391 . S
C2883 H2871 0.950 . S
C2883 C2879 1.393 . S
C2883 C2882 1.391 . S
H2884 C2892 0.950 . S
H2885 C2897 0.950 . S
H2886 C2894 0.950 . S
H2887 C2896 0.950 . S
H2888 C2898 0.950 . S
H2889 C2900 0.950 . S
H2890 C2902 0.950 . S
H2891 C2903 0.950 . S
C2892 H2884 0.950 . S
C2892 C2893 1.386 . S
C2892 C2894 1.391 . S
C2893 C2892 1.386 . S
C2893 C2897 1.393 . S
C2894 H2886 0.950 . S
C2894 C2892 1.391 . S
C2894 C2895 1.400 . S
C2895 C2894 1.400 . S
C2895 C2896 1.398 . S
C2895 C2901 1.491 . S
C2896 H2887 0.950 . S
C2896 C2895 1.398 . S
C2896 C2897 1.391 . S
C2897 H2885 0.950 . S
C2897 C2893 1.393 . S
C2897 C2896 1.391 . S
C2898 H2888 0.950 . S
C2898 C2899 1.386 . S
C2898 C2900 1.391 . S
C2899 C2898 1.386 . S
C2899 C2903 1.393 . S
C2900 H2889 0.950 . S
C2900 C2898 1.391 . S
C2900 C2901 1.400 . S
C2901 C2895 1.491 . S
C2901 C2900 1.400 . S
C2901 C2902 1.398 . S
C2902 H2890 0.950 . S
C2902 C2901 1.398 . S
C2902 C2903 1.391 . S
C2903 H2891 0.950 . S
C2903 C2899 1.393 . S
C2903 C2902 1.391 . S
H2904 C2912 0.950 . S
H2905 C2917 0.950 . S
H2906 C2914 0.950 . S
H2907 C2916 0.950 . S
H2908 C2918 0.950 . S
H2909 C2920 0.950 . S
H2910 C2922 0.950 . S
H2911 C2923 0.950 . S
C2912 H2904 0.950 . S
C2912 C2913 1.386 . S
C2912 C2914 1.391 . S
C2913 C2912 1.386 . S
C2913 C2917 1.393 . S
C2914 H2906 0.950 . S
C2914 C2912 1.391 . S
C2914 C2915 1.400 . S
C2915 C2914 1.400 . S
C2915 C2916 1.398 . S
C2915 C2921 1.491 . S
C2916 H2907 0.950 . S
C2916 C2915 1.398 . S
C2916 C2917 1.391 . S
C2917 H2905 0.950 . S
C2917 C2913 1.393 . S
C2917 C2916 1.391 . S
C2918 H2908 0.950 . S
C2918 C2919 1.386 . S
C2918 C2920 1.391 . S
C2919 C2918 1.386 . S
C2919 C2923 1.393 . S
C2920 H2909 0.950 . S
C2920 C2918 1.391 . S
C2920 C2921 1.400 . S
C2921 C2915 1.491 . S
C2921 C2920 1.400 . S
C2921 C2922 1.398 . S
C2922 H2910 0.950 . S
C2922 C2921 1.398 . S
C2922 C2923 1.391 . S
C2923 H2911 0.950 . S
C2923 C2919 1.393 . S
C2923 C2922 1.391 . S
H2924 C2932 0.950 . S
H2925 C2937 0.950 . S
H2926 C2934 0.950 . S
H2927 C2936 0.950 . S
H2928 C2938 0.950 . S
H2929 C2940 0.950 . S
H2930 C2942 0.950 . S
H2931 C2943 0.950 . S
C2932 H2924 0.950 . S
C2932 C2933 1.386 . S
C2932 C2934 1.391 . S
C2933 C2932 1.386 . S
C2933 C2937 1.393 . S
C2934 H2926 0.950 . S
C2934 C2932 1.391 . S
C2934 C2935 1.400 . S
C2935 C2934 1.400 . S
C2935 C2936 1.398 . S
C2935 C2941 1.491 . S
C2936 H2927 0.950 . S
C2936 C2935 1.398 . S
C2936 C2937 1.391 . S
C2937 H2925 0.950 . S
C2937 C2933 1.393 . S
C2937 C2936 1.391 . S
C2938 H2928 0.950 . S
C2938 C2939 1.386 . S
C2938 C2940 1.391 . S
C2939 C2938 1.386 . S
C2939 C2943 1.393 . S
C2940 H2929 0.950 . S
C2940 C2938 1.391 . S
C2940 C2941 1.400 . S
C2941 C2935 1.491 . S
C2941 C2940 1.400 . S
C2941 C2942 1.398 . S
C2942 H2930 0.950 . S
C2942 C2941 1.398 . S
C2942 C2943 1.391 . S
C2943 H2931 0.950 . S
C2943 C2939 1.393 . S
C2943 C2942 1.391 . S
H2944 C2952 0.950 . S
H2945 C2957 0.950 . S
H2946 C2954 0.950 . S
H2947 C2956 0.950 . S
H2948 C2958 0.950 . S
H2949 C2960 0.950 . S
H2950 C2962 0.950 . S
H2951 C2963 0.950 . S
C2952 H2944 0.950 . S
C2952 C2953 1.386 . S
C2952 C2954 1.391 . S
C2953 C2952 1.386 . S
C2953 C2957 1.393 . S
C2954 H2946 0.950 . S
C2954 C2952 1.391 . S
C2954 C2955 1.400 . S
C2955 C2954 1.400 . S
C2955 C2956 1.398 . S
C2955 C2961 1.491 . S
C2956 H2947 0.950 . S
C2956 C2955 1.398 . S
C2956 C2957 1.391 . S
C2957 H2945 0.950 . S
C2957 C2953 1.393 . S
C2957 C2956 1.391 . S
C2958 H2948 0.950 . S
C2958 C2959 1.386 . S
C2958 C2960 1.391 . S
C2959 C2958 1.386 . S
C2959 C2963 1.393 . S
C2960 H2949 0.950 . S
C2960 C2958 1.391 . S
C2960 C2961 1.400 . S
C2961 C2955 1.491 . S
C2961 C2960 1.400 . S
C2961 C2962 1.398 . S
C2962 H2950 0.950 . S
C2962 C2961 1.398 . S
C2962 C2963 1.391 . S
C2963 H2951 0.950 . S
C2963 C2959 1.393 . S
C2963 C2962 1.391 . S
H2964 C2972 0.950 . S
H2965 C2977 0.950 . S
H2966 C2974 0.950 . S
H2967 C2976 0.950 . S
H2968 C2978 0.950 . S
H2969 C2980 0.950 . S
H2970 C2982 0.950 . S
H2971 C2983 0.950 . S
C2972 H2964 0.950 . S
C2972 C2973 1.386 . S
C2972 C2974 1.391 . S
C2973 C2972 1.386 . S
C2973 C2977 1.393 . S
C2974 H2966 0.950 . S
C2974 C2972 1.391 . S
C2974 C2975 1.400 . S
C2975 C2974 1.400 . S
C2975 C2976 1.398 . S
C2975 C2981 1.491 . S
C2976 H2967 0.950 . S
C2976 C2975 1.398 . S
C2976 C2977 1.391 . S
C2977 H2965 0.950 . S
C2977 C2973 1.393 . S
C2977 C2976 1.391 . S
C2978 H2968 0.950 . S
C2978 C2979 1.386 . S
C2978 C2980 1.391 . S
C2979 C2978 1.386 . S
C2979 C2983 1.393 . S
C2980 H2969 0.950 . S
C2980 C2978 1.391 . S
C2980 C2981 1.400 . S
C2981 C2975 1.491 . S
C2981 C2980 1.400 . S
C2981 C2982 1.398 . S
C2982 H2970 0.950 . S
C2982 C2981 1.398 . S
C2982 C2983 1.391 . S
C2983 H2971 0.950 . S
C2983 C2979 1.393 . S
C2983 C2982 1.391 . S
H2984 C2992 0.950 . S
H2985 C2997 0.950 . S
H2986 C2994 0.950 . S
H2987 C2996 0.950 . S
H2988 C2998 0.950 . S
H2989 C3000 0.950 . S
H2990 C3002 0.950 . S
H2991 C3003 0.950 . S
C2992 H2984 0.950 . S
C2992 C2993 1.386 . S
C2992 C2994 1.391 . S
C2993 C2992 1.386 . S
C2993 C2997 1.393 . S
C2994 H2986 0.950 . S
C2994 C2992 1.391 . S
C2994 C2995 1.400 . S
C2995 C2994 1.400 . S
C2995 C2996 1.398 . S
C2995 C3001 1.491 . S
C2996 H2987 0.950 . S
C2996 C2995 1.398 . S
C2996 C2997 1.391 . S
C2997 H2985 0.950 . S
C2997 C2993 1.393 . S
C2997 C2996 1.391 . S
C2998 H2988 0.950 . S
C2998 C2999 1.386 . S
C2998 C3000 1.391 . S
C2999 C2998 1.386 . S
C2999 C3003 1.393 . S
C3000 H2989 0.950 . S
C3000 C2998 1.391 . S
C3000 C3001 1.400 . S
C3001 C2995 1.491 . S
C3001 C3000 1.400 . S
C3001 C3002 1.398 . S
C3002 H2990 0.950 . S
C3002 C3001 1.398 . S
C3002 C3003 1.391 . S
C3003 H2991 0.950 . S
C3003 C2999 1.393 . S
C3003 C3002 1.391 . S
H3004 C3012 0.950 . S
H3005 C3017 0.950 . S
H3006 C3014 0.950 . S
H3007 C3016 0.950 . S
H3008 C3018 0.950 . S
H3009 C3020 0.950 . S
H3010 C3022 0.950 . S
H3011 C3023 0.950 . S
C3012 H3004 0.950 . S
C3012 C3013 1.386 . S
C3012 C3014 1.391 . S
C3013 C3012 1.386 . S
C3013 C3017 1.393 . S
C3014 H3006 0.950 . S
C3014 C3012 1.391 . S
C3014 C3015 1.400 . S
C3015 C3014 1.400 . S
C3015 C3016 1.398 . S
C3015 C3021 1.491 . S
C3016 H3007 0.950 . S
C3016 C3015 1.398 . S
C3016 C3017 1.391 . S
C3017 H3005 0.950 . S
C3017 C3013 1.393 . S
C3017 C3016 1.391 . S
C3018 H3008 0.950 . S
C3018 C3019 1.386 . S
C3018 C3020 1.391 . S
C3019 C3018 1.386 . S
C3019 C3023 1.393 . S
C3020 H3009 0.950 . S
C3020 C3018 1.391 . S
C3020 C3021 1.400 . S
C3021 C3015 1.491 . S
C3021 C3020 1.400 . S
C3021 C3022 1.398 . S
C3022 H3010 0.950 . S
C3022 C3021 1.398 . S
C3022 C3023 1.391 . S
C3023 H3011 0.950 . S
C3023 C3019 1.393 . S
C3023 C3022 1.391 . S
H3024 C3032 0.950 . S
H3025 C3037 0.950 . S
H3026 C3034 0.950 . S
H3027 C3036 0.950 . S
H3028 C3038 0.950 . S
H3029 C3040 0.950 . S
H3030 C3042 0.950 . S
H3031 C3043 0.950 . S
C3032 H3024 0.950 . S
C3032 C3033 1.386 . S
C3032 C3034 1.391 . S
C3033 C3032 1.386 . S
C3033 C3037 1.393 . S
C3034 H3026 0.950 . S
C3034 C3032 1.391 . S
C3034 C3035 1.400 . S
C3035 C3034 1.400 . S
C3035 C3036 1.398 . S
C3035 C3041 1.491 . S
C3036 H3027 0.950 . S
C3036 C3035 1.398 . S
C3036 C3037 1.391 . S
C3037 H3025 0.950 . S
C3037 C3033 1.393 . S
C3037 C3036 1.391 . S
C3038 H3028 0.950 . S
C3038 C3039 1.386 . S
C3038 C3040 1.391 . S
C3039 C3038 1.386 . S
C3039 C3043 1.393 . S
C3040 H3029 0.950 . S
C3040 C3038 1.391 . S
C3040 C3041 1.400 . S
C3041 C3035 1.491 . S
C3041 C3040 1.400 . S
C3041 C3042 1.398 . S
C3042 H3030 0.950 . S
C3042 C3041 1.398 . S
C3042 C3043 1.391 . S
C3043 H3031 0.950 . S
C3043 C3039 1.393 . S
C3043 C3042 1.391 . S
H3044 C3052 0.950 . S
H3045 C3057 0.950 . S
H3046 C3054 0.950 . S
H3047 C3056 0.950 . S
H3048 C3058 0.950 . S
H3049 C3060 0.950 . S
H3050 C3062 0.950 . S
H3051 C3063 0.950 . S
C3052 H3044 0.950 . S
C3052 C3053 1.386 . S
C3052 C3054 1.391 . S
C3053 C3052 1.386 . S
C3053 C3057 1.393 . S
C3054 H3046 0.950 . S
C3054 C3052 1.391 . S
C3054 C3055 1.400 . S
C3055 C3054 1.400 . S
C3055 C3056 1.398 . S
C3055 C3061 1.491 . S
C3056 H3047 0.950 . S
C3056 C3055 1.398 . S
C3056 C3057 1.391 . S
C3057 H3045 0.950 . S
C3057 C3053 1.393 . S
C3057 C3056 1.391 . S
C3058 H3048 0.950 . S
C3058 C3059 1.386 . S
C3058 C3060 1.391 . S
C3059 C3058 1.386 . S
C3059 C3063 1.393 . S
C3060 H3049 0.950 . S
C3060 C3058 1.391 . S
C3060 C3061 1.400 . S
C3061 C3055 1.491 . S
C3061 C3060 1.400 . S
C3061 C3062 1.398 . S
C3062 H3050 0.950 . S
C3062 C3061 1.398 . S
C3062 C3063 1.391 . S
C3063 H3051 0.950 . S
C3063 C3059 1.393 . S
C3063 C3062 1.391 . S
H3064 C3072 0.950 . S
H3065 C3077 0.950 . S
H3066 C3074 0.950 . S
H3067 C3076 0.950 . S
H3068 C3078 0.950 . S
H3069 C3080 0.950 . S
H3070 C3082 0.950 . S
H3071 C3083 0.950 . S
C3072 H3064 0.950 . S
C3072 C3073 1.386 . S
C3072 C3074 1.391 . S
C3073 C3072 1.386 . S
C3073 C3077 1.393 . S
C3074 H3066 0.950 . S
C3074 C3072 1.391 . S
C3074 C3075 1.400 . S
C3075 C3074 1.400 . S
C3075 C3076 1.398 . S
C3075 C3081 1.491 . S
C3076 H3067 0.950 . S
C3076 C3075 1.398 . S
C3076 C3077 1.391 . S
C3077 H3065 0.950 . S
C3077 C3073 1.393 . S
C3077 C3076 1.391 . S
C3078 H3068 0.950 . S
C3078 C3079 1.386 . S
C3078 C3080 1.391 . S
C3079 C3078 1.386 . S
C3079 C3083 1.393 . S
C3080 H3069 0.950 . S
C3080 C3078 1.391 . S
C3080 C3081 1.400 . S
C3081 C3075 1.491 . S
C3081 C3080 1.400 . S
C3081 C3082 1.398 . S
C3082 H3070 0.950 . S
C3082 C3081 1.398 . S
C3082 C3083 1.391 . S
C3083 H3071 0.950 . S
C3083 C3079 1.393 . S
C3083 C3082 1.391 . S
H3084 C3092 0.950 . S
H3085 C3097 0.950 . S
H3086 C3094 0.950 . S
H3087 C3096 0.950 . S
H3088 C3098 0.950 . S
H3089 C3100 0.950 . S
H3090 C3102 0.950 . S
H3091 C3103 0.950 . S
C3092 H3084 0.950 . S
C3092 C3093 1.386 . S
C3092 C3094 1.391 . S
C3093 C3092 1.386 . S
C3093 C3097 1.393 . S
C3094 H3086 0.950 . S
C3094 C3092 1.391 . S
C3094 C3095 1.400 . S
C3095 C3094 1.400 . S
C3095 C3096 1.398 . S
C3095 C3101 1.491 . S
C3096 H3087 0.950 . S
C3096 C3095 1.398 . S
C3096 C3097 1.391 . S
C3097 H3085 0.950 . S
C3097 C3093 1.393 . S
C3097 C3096 1.391 . S
C3098 H3088 0.950 . S
C3098 C3099 1.386 . S
C3098 C3100 1.391 . S
C3099 C3098 1.386 . S
C3099 C3103 1.393 . S
C3100 H3089 0.950 . S
C3100 C3098 1.391 . S
C3100 C3101 1.400 . S
C3101 C3095 1.491 . S
C3101 C3100 1.400 . S
C3101 C3102 1.398 . S
C3102 H3090 0.950 . S
C3102 C3101 1.398 . S
C3102 C3103 1.391 . S
C3103 H3091 0.950 . S
C3103 C3099 1.393 . S
C3103 C3102 1.391 . S
H3104 C3112 0.950 . S
H3105 C3117 0.950 . S
H3106 C3114 0.950 . S
H3107 C3116 0.950 . S
H3108 C3118 0.950 . S
H3109 C3120 0.950 . S
H3110 C3122 0.950 . S
H3111 C3123 0.950 . S
C3112 H3104 0.950 . S
C3112 C3113 1.386 . S
C3112 C3114 1.391 . S
C3113 C3112 1.386 . S
C3113 C3117 1.393 . S
C3114 H3106 0.950 . S
C3114 C3112 1.391 . S
C3114 C3115 1.400 . S
C3115 C3114 1.400 . S
C3115 C3116 1.398 . S
C3115 C3121 1.491 . S
C3116 H3107 0.950 . S
C3116 C3115 1.398 . S
C3116 C3117 1.391 . S
C3117 H3105 0.950 . S
C3117 C3113 1.393 . S
C3117 C3116 1.391 . S
C3118 H3108 0.950 . S
C3118 C3119 1.386 . S
C3118 C3120 1.391 . S
C3119 C3118 1.386 . S
C3119 C3123 1.393 . S
C3120 H3109 0.950 . S
C3120 C3118 1.391 . S
C3120 C3121 1.400 . S
C3121 C3115 1.491 . S
C3121 C3120 1.400 . S
C3121 C3122 1.398 . S
C3122 H3110 0.950 . S
C3122 C3121 1.398 . S
C3122 C3123 1.391 . S
C3123 H3111 0.950 . S
C3123 C3119 1.393 . S
C3123 C3122 1.391 . S
H3124 C3132 0.950 . S
H3125 C3137 0.950 . S
H3126 C3134 0.950 . S
H3127 C3136 0.950 . S
H3128 C3138 0.950 . S
H3129 C3140 0.950 . S
H3130 C3142 0.950 . S
H3131 C3143 0.950 . S
C3132 H3124 0.950 . S
C3132 C3133 1.386 . S
C3132 C3134 1.391 . S
C3133 C3132 1.386 . S
C3133 C3137 1.393 . S
C3134 H3126 0.950 . S
C3134 C3132 1.391 . S
C3134 C3135 1.400 . S
C3135 C3134 1.400 . S
C3135 C3136 1.398 . S
C3135 C3141 1.491 . S
C3136 H3127 0.950 . S
C3136 C3135 1.398 . S
C3136 C3137 1.391 . S
C3137 H3125 0.950 . S
C3137 C3133 1.393 . S
C3137 C3136 1.391 . S
C3138 H3128 0.950 . S
C3138 C3139 1.386 . S
C3138 C3140 1.391 . S
C3139 C3138 1.386 . S
C3139 C3143 1.393 . S
C3140 H3129 0.950 . S
C3140 C3138 1.391 . S
C3140 C3141 1.400 . S
C3141 C3135 1.491 . S
C3141 C3140 1.400 . S
C3141 C3142 1.398 . S
C3142 H3130 0.950 . S
C3142 C3141 1.398 . S
C3142 C3143 1.391 . S
C3143 H3131 0.950 . S
C3143 C3139 1.393 . S
C3143 C3142 1.391 . S
H3144 C3152 0.950 . S
H3145 C3157 0.950 . S
H3146 C3154 0.950 . S
H3147 C3156 0.950 . S
H3148 C3158 0.950 . S
H3149 C3160 0.950 . S
H3150 C3162 0.950 . S
H3151 C3163 0.950 . S
C3152 H3144 0.950 . S
C3152 C3153 1.386 . S
C3152 C3154 1.391 . S
C3153 C3152 1.386 . S
C3153 C3157 1.393 . S
C3154 H3146 0.950 . S
C3154 C3152 1.391 . S
C3154 C3155 1.400 . S
C3155 C3154 1.400 . S
C3155 C3156 1.398 . S
C3155 C3161 1.491 . S
C3156 H3147 0.950 . S
C3156 C3155 1.398 . S
C3156 C3157 1.391 . S
C3157 H3145 0.950 . S
C3157 C3153 1.393 . S
C3157 C3156 1.391 . S
C3158 H3148 0.950 . S
C3158 C3159 1.386 . S
C3158 C3160 1.391 . S
C3159 C3158 1.386 . S
C3159 C3163 1.393 . S
C3160 H3149 0.950 . S
C3160 C3158 1.391 . S
C3160 C3161 1.400 . S
C3161 C3155 1.491 . S
C3161 C3160 1.400 . S
C3161 C3162 1.398 . S
C3162 H3150 0.950 . S
C3162 C3161 1.398 . S
C3162 C3163 1.391 . S
C3163 H3151 0.950 . S
C3163 C3159 1.393 . S
C3163 C3162 1.391 . S
H3164 C3172 0.950 . S
H3165 C3177 0.950 . S
H3166 C3174 0.950 . S
H3167 C3176 0.950 . S
H3168 C3178 0.950 . S
H3169 C3180 0.950 . S
H3170 C3182 0.950 . S
H3171 C3183 0.950 . S
C3172 H3164 0.950 . S
C3172 C3173 1.386 . S
C3172 C3174 1.391 . S
C3173 C3172 1.386 . S
C3173 C3177 1.393 . S
C3174 H3166 0.950 . S
C3174 C3172 1.391 . S
C3174 C3175 1.400 . S
C3175 C3174 1.400 . S
C3175 C3176 1.398 . S
C3175 C3181 1.491 . S
C3176 H3167 0.950 . S
C3176 C3175 1.398 . S
C3176 C3177 1.391 . S
C3177 H3165 0.950 . S
C3177 C3173 1.393 . S
C3177 C3176 1.391 . S
C3178 H3168 0.950 . S
C3178 C3179 1.386 . S
C3178 C3180 1.391 . S
C3179 C3178 1.386 . S
C3179 C3183 1.393 . S
C3180 H3169 0.950 . S
C3180 C3178 1.391 . S
C3180 C3181 1.400 . S
C3181 C3175 1.491 . S
C3181 C3180 1.400 . S
C3181 C3182 1.398 . S
C3182 H3170 0.950 . S
C3182 C3181 1.398 . S
C3182 C3183 1.391 . S
C3183 H3171 0.950 . S
C3183 C3179 1.393 . S
C3183 C3182 1.391 . S
H3184 C3192 0.950 . S
H3185 C3197 0.950 . S
H3186 C3194 0.950 . S
H3187 C3196 0.950 . S
H3188 C3198 0.950 . S
H3189 C3200 0.950 . S
H3190 C3202 0.950 . S
H3191 C3203 0.950 . S
C3192 H3184 0.950 . S
C3192 C3193 1.386 . S
C3192 C3194 1.391 . S
C3193 C3192 1.386 . S
C3193 C3197 1.393 . S
C3194 H3186 0.950 . S
C3194 C3192 1.391 . S
C3194 C3195 1.400 . S
C3195 C3194 1.400 . S
C3195 C3196 1.398 . S
C3195 C3201 1.491 . S
C3196 H3187 0.950 . S
C3196 C3195 1.398 . S
C3196 C3197 1.391 . S
C3197 H3185 0.950 . S
C3197 C3193 1.393 . S
C3197 C3196 1.391 . S
C3198 H3188 0.950 . S
C3198 C3199 1.386 . S
C3198 C3200 1.391 . S
C3199 C3198 1.386 . S
C3199 C3203 1.393 . S
C3200 H3189 0.950 . S
C3200 C3198 1.391 . S
C3200 C3201 1.400 . S
C3201 C3195 1.491 . S
C3201 C3200 1.400 . S
C3201 C3202 1.398 . S
C3202 H3190 0.950 . S
C3202 C3201 1.398 . S
C3202 C3203 1.391 . S
C3203 H3191 0.950 . S
C3203 C3199 1.393 . S
C3203 C3202 1.391 . S
H3204 C3212 0.950 . S
H3205 C3217 0.950 . S
H3206 C3214 0.950 . S
H3207 C3216 0.950 . S
H3208 C3218 0.950 . S
H3209 C3220 0.950 . S
H3210 C3222 0.950 . S
H3211 C3223 0.950 . S
C3212 H3204 0.950 . S
C3212 C3213 1.386 . S
C3212 C3214 1.391 . S
C3213 C3212 1.386 . S
C3213 C3217 1.393 . S
C3214 H3206 0.950 . S
C3214 C3212 1.391 . S
C3214 C3215 1.400 . S
C3215 C3214 1.400 . S
C3215 C3216 1.398 . S
C3215 C3221 1.491 . S
C3216 H3207 0.950 . S
C3216 C3215 1.398 . S
C3216 C3217 1.391 . S
C3217 H3205 0.950 . S
C3217 C3213 1.393 . S
C3217 C3216 1.391 . S
C3218 H3208 0.950 . S
C3218 C3219 1.386 . S
C3218 C3220 1.391 . S
C3219 C3218 1.386 . S
C3219 C3223 1.393 . S
C3220 H3209 0.950 . S
C3220 C3218 1.391 . S
C3220 C3221 1.400 . S
C3221 C3215 1.491 . S
C3221 C3220 1.400 . S
C3221 C3222 1.398 . S
C3222 H3210 0.950 . S
C3222 C3221 1.398 . S
C3222 C3223 1.391 . S
C3223 H3211 0.950 . S
C3223 C3219 1.393 . S
C3223 C3222 1.391 . S
H3224 C3232 0.950 . S
H3225 C3237 0.950 . S
H3226 C3234 0.950 . S
H3227 C3236 0.950 . S
H3228 C3238 0.950 . S
H3229 C3240 0.950 . S
H3230 C3242 0.950 . S
H3231 C3243 0.950 . S
C3232 H3224 0.950 . S
C3232 C3233 1.386 . S
C3232 C3234 1.391 . S
C3233 C3232 1.386 . S
C3233 C3237 1.393 . S
C3234 H3226 0.950 . S
C3234 C3232 1.391 . S
C3234 C3235 1.400 . S
C3235 C3234 1.400 . S
C3235 C3236 1.398 . S
C3235 C3241 1.491 . S
C3236 H3227 0.950 . S
C3236 C3235 1.398 . S
C3236 C3237 1.391 . S
C3237 H3225 0.950 . S
C3237 C3233 1.393 . S
C3237 C3236 1.391 . S
C3238 H3228 0.950 . S
C3238 C3239 1.386 . S
C3238 C3240 1.391 . S
C3239 C3238 1.386 . S
C3239 C3243 1.393 . S
C3240 H3229 0.950 . S
C3240 C3238 1.391 . S
C3240 C3241 1.400 . S
C3241 C3235 1.491 . S
C3241 C3240 1.400 . S
C3241 C3242 1.398 . S
C3242 H3230 0.950 . S
C3242 C3241 1.398 . S
C3242 C3243 1.391 . S
C3243 H3231 0.950 . S
C3243 C3239 1.393 . S
C3243 C3242 1.391 . S
H3244 C3252 0.950 . S
H3245 C3257 0.950 . S
H3246 C3254 0.950 . S
H3247 C3256 0.950 . S
H3248 C3258 0.950 . S
H3249 C3260 0.950 . S
H3250 C3262 0.950 . S
H3251 C3263 0.950 . S
C3252 H3244 0.950 . S
C3252 C3253 1.386 . S
C3252 C3254 1.391 . S
C3253 C3252 1.386 . S
C3253 C3257 1.393 . S
C3254 H3246 0.950 . S
C3254 C3252 1.391 . S
C3254 C3255 1.400 . S
C3255 C3254 1.400 . S
C3255 C3256 1.398 . S
C3255 C3261 1.491 . S
C3256 H3247 0.950 . S
C3256 C3255 1.398 . S
C3256 C3257 1.391 . S
C3257 H3245 0.950 . S
C3257 C3253 1.393 . S
C3257 C3256 1.391 . S
C3258 H3248 0.950 . S
C3258 C3259 1.386 . S
C3258 C3260 1.391 . S
C3259 C3258 1.386 . S
C3259 C3263 1.393 . S
C3260 H3249 0.950 . S
C3260 C3258 1.391 . S
C3260 C3261 1.400 . S
C3261 C3255 1.491 . S
C3261 C3260 1.400 . S
C3261 C3262 1.398 . S
C3262 H3250 0.950 . S
C3262 C3261 1.398 . S
C3262 C3263 1.391 . S
C3263 H3251 0.950 . S
C3263 C3259 1.393 . S
C3263 C3262 1.391 . S
H3264 C3272 0.950 . S
H3265 C3277 0.950 . S
H3266 C3274 0.950 . S
H3267 C3276 0.950 . S
H3268 C3278 0.950 . S
H3269 C3280 0.950 . S
H3270 C3282 0.950 . S
H3271 C3283 0.950 . S
C3272 H3264 0.950 . S
C3272 C3273 1.386 . S
C3272 C3274 1.391 . S
C3273 C3272 1.386 . S
C3273 C3277 1.393 . S
C3274 H3266 0.950 . S
C3274 C3272 1.391 . S
C3274 C3275 1.400 . S
C3275 C3274 1.400 . S
C3275 C3276 1.398 . S
C3275 C3281 1.491 . S
C3276 H3267 0.950 . S
C3276 C3275 1.398 . S
C3276 C3277 1.391 . S
C3277 H3265 0.950 . S
C3277 C3273 1.393 . S
C3277 C3276 1.391 . S
C3278 H3268 0.950 . S
C3278 C3279 1.386 . S
C3278 C3280 1.391 . S
C3279 C3278 1.386 . S
C3279 C3283 1.393 . S
C3280 H3269 0.950 . S
C3280 C3278 1.391 . S
C3280 C3281 1.400 . S
C3281 C3275 1.491 . S
C3281 C3280 1.400 . S
C3281 C3282 1.398 . S
C3282 H3270 0.950 . S
C3282 C3281 1.398 . S
C3282 C3283 1.391 . S
C3283 H3271 0.950 . S
C3283 C3279 1.393 . S
C3283 C3282 1.391 . S
H3284 C3292 0.950 . S
H3285 C3297 0.950 . S
H3286 C3294 0.950 . S
H3287 C3296 0.950 . S
H3288 C3298 0.950 . S
H3289 C3300 0.950 . S
H3290 C3302 0.950 . S
H3291 C3303 0.950 . S
C3292 H3284 0.950 . S
C3292 C3293 1.386 . S
C3292 C3294 1.391 . S
C3293 C3292 1.386 . S
C3293 C3297 1.393 . S
C3294 H3286 0.950 . S
C3294 C3292 1.391 . S
C3294 C3295 1.400 . S
C3295 C3294 1.400 . S
C3295 C3296 1.398 . S
C3295 C3301 1.491 . S
C3296 H3287 0.950 . S
C3296 C3295 1.398 . S
C3296 C3297 1.391 . S
C3297 H3285 0.950 . S
C3297 C3293 1.393 . S
C3297 C3296 1.391 . S
C3298 H3288 0.950 . S
C3298 C3299 1.386 . S
C3298 C3300 1.391 . S
C3299 C3298 1.386 . S
C3299 C3303 1.393 . S
C3300 H3289 0.950 . S
C3300 C3298 1.391 . S
C3300 C3301 1.400 . S
C3301 C3295 1.491 . S
C3301 C3300 1.400 . S
C3301 C3302 1.398 . S
C3302 H3290 0.950 . S
C3302 C3301 1.398 . S
C3302 C3303 1.391 . S
C3303 H3291 0.950 . S
C3303 C3299 1.393 . S
C3303 C3302 1.391 . S
H3304 C3312 0.950 . S
H3305 C3317 0.950 . S
H3306 C3314 0.950 . S
H3307 C3316 0.950 . S
H3308 C3318 0.950 . S
H3309 C3320 0.950 . S
H3310 C3322 0.950 . S
H3311 C3323 0.950 . S
C3312 H3304 0.950 . S
C3312 C3313 1.386 . S
C3312 C3314 1.391 . S
C3313 C3312 1.386 . S
C3313 C3317 1.393 . S
C3314 H3306 0.950 . S
C3314 C3312 1.391 . S
C3314 C3315 1.400 . S
C3315 C3314 1.400 . S
C3315 C3316 1.398 . S
C3315 C3321 1.491 . S
C3316 H3307 0.950 . S
C3316 C3315 1.398 . S
C3316 C3317 1.391 . S
C3317 H3305 0.950 . S
C3317 C3313 1.393 . S
C3317 C3316 1.391 . S
C3318 H3308 0.950 . S
C3318 C3319 1.386 . S
C3318 C3320 1.391 . S
C3319 C3318 1.386 . S
C3319 C3323 1.393 . S
C3320 H3309 0.950 . S
C3320 C3318 1.391 . S
C3320 C3321 1.400 . S
C3321 C3315 1.491 . S
C3321 C3320 1.400 . S
C3321 C3322 1.398 . S
C3322 H3310 0.950 . S
C3322 C3321 1.398 . S
C3322 C3323 1.391 . S
C3323 H3311 0.950 . S
C3323 C3319 1.393 . S
C3323 C3322 1.391 . S
H3324 C3332 0.950 . S
H3325 C3337 0.950 . S
H3326 C3334 0.950 . S
H3327 C3336 0.950 . S
H3328 C3338 0.950 . S
H3329 C3340 0.950 . S
H3330 C3342 0.950 . S
H3331 C3343 0.950 . S
C3332 H3324 0.950 . S
C3332 C3333 1.386 . S
C3332 C3334 1.391 . S
C3333 C3332 1.386 . S
C3333 C3337 1.393 . S
C3334 H3326 0.950 . S
C3334 C3332 1.391 . S
C3334 C3335 1.400 . S
C3335 C3334 1.400 . S
C3335 C3336 1.398 . S
C3335 C3341 1.491 . S
C3336 H3327 0.950 . S
C3336 C3335 1.398 . S
C3336 C3337 1.391 . S
C3337 H3325 0.950 . S
C3337 C3333 1.393 . S
C3337 C3336 1.391 . S
C3338 H3328 0.950 . S
C3338 C3339 1.386 . S
C3338 C3340 1.391 . S
C3339 C3338 1.386 . S
C3339 C3343 1.393 . S
C3340 H3329 0.950 . S
C3340 C3338 1.391 . S
C3340 C3341 1.400 . S
C3341 C3335 1.491 . S
C3341 C3340 1.400 . S
C3341 C3342 1.398 . S
C3342 H3330 0.950 . S
C3342 C3341 1.398 . S
C3342 C3343 1.391 . S
C3343 H3331 0.950 . S
C3343 C3339 1.393 . S
C3343 C3342 1.391 . S
H3344 C3352 0.950 . S
H3345 C3357 0.950 . S
H3346 C3354 0.950 . S
H3347 C3356 0.950 . S
H3348 C3358 0.950 . S
H3349 C3360 0.950 . S
H3350 C3362 0.950 . S
H3351 C3363 0.950 . S
C3352 H3344 0.950 . S
C3352 C3353 1.386 . S
C3352 C3354 1.391 . S
C3353 C3352 1.386 . S
C3353 C3357 1.393 . S
C3354 H3346 0.950 . S
C3354 C3352 1.391 . S
C3354 C3355 1.400 . S
C3355 C3354 1.400 . S
C3355 C3356 1.398 . S
C3355 C3361 1.491 . S
C3356 H3347 0.950 . S
C3356 C3355 1.398 . S
C3356 C3357 1.391 . S
C3357 H3345 0.950 . S
C3357 C3353 1.393 . S
C3357 C3356 1.391 . S
C3358 H3348 0.950 . S
C3358 C3359 1.386 . S
C3358 C3360 1.391 . S
C3359 C3358 1.386 . S
C3359 C3363 1.393 . S
C3360 H3349 0.950 . S
C3360 C3358 1.391 . S
C3360 C3361 1.400 . S
C3361 C3355 1.491 . S
C3361 C3360 1.400 . S
C3361 C3362 1.398 . S
C3362 H3350 0.950 . S
C3362 C3361 1.398 . S
C3362 C3363 1.391 . S
C3363 H3351 0.950 . S
C3363 C3359 1.393 . S
C3363 C3362 1.391 . S
H3364 C3372 0.950 . S
H3365 C3377 0.950 . S
H3366 C3374 0.950 . S
H3367 C3376 0.950 . S
H3368 C3378 0.950 . S
H3369 C3380 0.950 . S
H3370 C3382 0.950 . S
H3371 C3383 0.950 . S
C3372 H3364 0.950 . S
C3372 C3373 1.386 . S
C3372 C3374 1.391 . S
C3373 C3372 1.386 . S
C3373 C3377 1.393 . S
C3374 H3366 0.950 . S
C3374 C3372 1.391 . S
C3374 C3375 1.400 . S
C3375 C3374 1.400 . S
C3375 C3376 1.398 . S
C3375 C3381 1.491 . S
C3376 H3367 0.950 . S
C3376 C3375 1.398 . S
C3376 C3377 1.391 . S
C3377 H3365 0.950 . S
C3377 C3373 1.393 . S
C3377 C3376 1.391 . S
C3378 H3368 0.950 . S
C3378 C3379 1.386 . S
C3378 C3380 1.391 . S
C3379 C3378 1.386 . S
C3379 C3383 1.393 . S
C3380 H3369 0.950 . S
C3380 C3378 1.391 . S
C3380 C3381 1.400 . S
C3381 C3375 1.491 . S
C3381 C3380 1.400 . S
C3381 C3382 1.398 . S
C3382 H3370 0.950 . S
C3382 C3381 1.398 . S
C3382 C3383 1.391 . S
C3383 H3371 0.950 . S
C3383 C3379 1.393 . S
C3383 C3382 1.391 . S
H3384 C3392 0.950 . S
H3385 C3397 0.950 . S
H3386 C3394 0.950 . S
H3387 C3396 0.950 . S
H3388 C3398 0.950 . S
H3389 C3400 0.950 . S
H3390 C3402 0.950 . S
H3391 C3403 0.950 . S
C3392 H3384 0.950 . S
C3392 C3393 1.386 . S
C3392 C3394 1.391 . S
C3393 C3392 1.386 . S
C3393 C3397 1.393 . S
C3394 H3386 0.950 . S
C3394 C3392 1.391 . S
C3394 C3395 1.400 . S
C3395 C3394 1.400 . S
C3395 C3396 1.398 . S
C3395 C3401 1.491 . S
C3396 H3387 0.950 . S
C3396 C3395 1.398 . S
C3396 C3397 1.391 . S
C3397 H3385 0.950 . S
C3397 C3393 1.393 . S
C3397 C3396 1.391 . S
C3398 H3388 0.950 . S
C3398 C3399 1.386 . S
C3398 C3400 1.391 . S
C3399 C3398 1.386 . S
C3399 C3403 1.393 . S
C3400 H3389 0.950 . S
C3400 C3398 1.391 . S
C3400 C3401 1.400 . S
C3401 C3395 1.491 . S
C3401 C3400 1.400 . S
C3401 C3402 1.398 . S
C3402 H3390 0.950 . S
C3402 C3401 1.398 . S
C3402 C3403 1.391 . S
C3403 H3391 0.950 . S
C3403 C3399 1.393 . S
C3403 C3402 1.391 . S
H3404 C3412 0.950 . S
H3405 C3417 0.950 . S
H3406 C3414 0.950 . S
H3407 C3416 0.950 . S
H3408 C3418 0.950 . S
H3409 C3420 0.950 . S
H3410 C3422 0.950 . S
H3411 C3423 0.950 . S
C3412 H3404 0.950 . S
C3412 C3413 1.386 . S
C3412 C3414 1.391 . S
C3413 C3412 1.386 . S
C3413 C3417 1.393 . S
C3414 H3406 0.950 . S
C3414 C3412 1.391 . S
C3414 C3415 1.400 . S
C3415 C3414 1.400 . S
C3415 C3416 1.398 . S
C3415 C3421 1.491 . S
C3416 H3407 0.950 . S
C3416 C3415 1.398 . S
C3416 C3417 1.391 . S
C3417 H3405 0.950 . S
C3417 C3413 1.393 . S
C3417 C3416 1.391 . S
C3418 H3408 0.950 . S
C3418 C3419 1.386 . S
C3418 C3420 1.391 . S
C3419 C3418 1.386 . S
C3419 C3423 1.393 . S
C3420 H3409 0.950 . S
C3420 C3418 1.391 . S
C3420 C3421 1.400 . S
C3421 C3415 1.491 . S
C3421 C3420 1.400 . S
C3421 C3422 1.398 . S
C3422 H3410 0.950 . S
C3422 C3421 1.398 . S
C3422 C3423 1.391 . S
C3423 H3411 0.950 . S
C3423 C3419 1.393 . S
C3423 C3422 1.391 . S
H3424 C3432 0.950 . S
H3425 C3437 0.950 . S
H3426 C3434 0.950 . S
H3427 C3436 0.950 . S
H3428 C3438 0.950 . S
H3429 C3440 0.950 . S
H3430 C3442 0.950 . S
H3431 C3443 0.950 . S
C3432 H3424 0.950 . S
C3432 C3433 1.386 . S
C3432 C3434 1.391 . S
C3433 C3432 1.386 . S
C3433 C3437 1.393 . S
C3434 H3426 0.950 . S
C3434 C3432 1.391 . S
C3434 C3435 1.400 . S
C3435 C3434 1.400 . S
C3435 C3436 1.398 . S
C3435 C3441 1.491 . S
C3436 H3427 0.950 . S
C3436 C3435 1.398 . S
C3436 C3437 1.391 . S
C3437 H3425 0.950 . S
C3437 C3433 1.393 . S
C3437 C3436 1.391 . S
C3438 H3428 0.950 . S
C3438 C3439 1.386 . S
C3438 C3440 1.391 . S
C3439 C3438 1.386 . S
C3439 C3443 1.393 . S
C3440 H3429 0.950 . S
C3440 C3438 1.391 . S
C3440 C3441 1.400 . S
C3441 C3435 1.491 . S
C3441 C3440 1.400 . S
C3441 C3442 1.398 . S
C3442 H3430 0.950 . S
C3442 C3441 1.398 . S
C3442 C3443 1.391 . S
C3443 H3431 0.950 . S
C3443 C3439 1.393 . S
C3443 C3442 1.391 . S
H3444 C3452 0.950 . S
H3445 C3457 0.950 . S
H3446 C3454 0.950 . S
H3447 C3456 0.950 . S
H3448 C3458 0.950 . S
H3449 C3460 0.950 . S
H3450 C3462 0.950 . S
H3451 C3463 0.950 . S
C3452 H3444 0.950 . S
C3452 C3453 1.386 . S
C3452 C3454 1.391 . S
C3453 C3452 1.386 . S
C3453 C3457 1.393 . S
C3454 H3446 0.950 . S
C3454 C3452 1.391 . S
C3454 C3455 1.400 . S
C3455 C3454 1.400 . S
C3455 C3456 1.398 . S
C3455 C3461 1.491 . S
C3456 H3447 0.950 . S
C3456 C3455 1.398 . S
C3456 C3457 1.391 . S
C3457 H3445 0.950 . S
C3457 C3453 1.393 . S
C3457 C3456 1.391 . S
C3458 H3448 0.950 . S
C3458 C3459 1.386 . S
C3458 C3460 1.391 . S
C3459 C3458 1.386 . S
C3459 C3463 1.393 . S
C3460 H3449 0.950 . S
C3460 C3458 1.391 . S
C3460 C3461 1.400 . S
C3461 C3455 1.491 . S
C3461 C3460 1.400 . S
C3461 C3462 1.398 . S
C3462 H3450 0.950 . S
C3462 C3461 1.398 . S
C3462 C3463 1.391 . S
C3463 H3451 0.950 . S
C3463 C3459 1.393 . S
C3463 C3462 1.391 . S
H3464 C3472 0.950 . S
H3465 C3477 0.950 . S
H3466 C3474 0.950 . S
H3467 C3476 0.950 . S
H3468 C3478 0.950 . S
H3469 C3480 0.950 . S
H3470 C3482 0.950 . S
H3471 C3483 0.950 . S
C3472 H3464 0.950 . S
C3472 C3473 1.386 . S
C3472 C3474 1.391 . S
C3473 C3472 1.386 . S
C3473 C3477 1.393 . S
C3474 H3466 0.950 . S
C3474 C3472 1.391 . S
C3474 C3475 1.400 . S
C3475 C3474 1.400 . S
C3475 C3476 1.398 . S
C3475 C3481 1.491 . S
C3476 H3467 0.950 . S
C3476 C3475 1.398 . S
C3476 C3477 1.391 . S
C3477 H3465 0.950 . S
C3477 C3473 1.393 . S
C3477 C3476 1.391 . S
C3478 H3468 0.950 . S
C3478 C3479 1.386 . S
C3478 C3480 1.391 . S
C3479 C3478 1.386 . S
C3479 C3483 1.393 . S
C3480 H3469 0.950 . S
C3480 C3478 1.391 . S
C3480 C3481 1.400 . S
C3481 C3475 1.491 . S
C3481 C3480 1.400 . S
C3481 C3482 1.398 . S
C3482 H3470 0.950 . S
C3482 C3481 1.398 . S
C3482 C3483 1.391 . S
C3483 H3471 0.950 . S
C3483 C3479 1.393 . S
C3483 C3482 1.391 . S
H3484 C3492 0.950 . S
H3485 C3497 0.950 . S
H3486 C3494 0.950 . S
H3487 C3496 0.950 . S
H3488 C3498 0.950 . S
H3489 C3500 0.950 . S
H3490 C3502 0.950 . S
H3491 C3503 0.950 . S
C3492 H3484 0.950 . S
C3492 C3493 1.386 . S
C3492 C3494 1.391 . S
C3493 C3492 1.386 . S
C3493 C3497 1.393 . S
C3494 H3486 0.950 . S
C3494 C3492 1.391 . S
C3494 C3495 1.400 . S
C3495 C3494 1.400 . S
C3495 C3496 1.398 . S
C3495 C3501 1.491 . S
C3496 H3487 0.950 . S
C3496 C3495 1.398 . S
C3496 C3497 1.391 . S
C3497 H3485 0.950 . S
C3497 C3493 1.393 . S
C3497 C3496 1.391 . S
C3498 H3488 0.950 . S
C3498 C3499 1.386 . S
C3498 C3500 1.391 . S
C3499 C3498 1.386 . S
C3499 C3503 1.393 . S
C3500 H3489 0.950 . S
C3500 C3498 1.391 . S
C3500 C3501 1.400 . S
C3501 C3495 1.491 . S
C3501 C3500 1.400 . S
C3501 C3502 1.398 . S
C3502 H3490 0.950 . S
C3502 C3501 1.398 . S
C3502 C3503 1.391 . S
C3503 H3491 0.950 . S
C3503 C3499 1.393 . S
C3503 C3502 1.391 . S
H3504 C3512 0.950 . S
H3505 C3517 0.950 . S
H3506 C3514 0.950 . S
H3507 C3516 0.950 . S
H3508 C3518 0.950 . S
H3509 C3520 0.950 . S
H3510 C3522 0.950 . S
H3511 C3523 0.950 . S
C3512 H3504 0.950 . S
C3512 C3513 1.386 . S
C3512 C3514 1.391 . S
C3513 C3512 1.386 . S
C3513 C3517 1.393 . S
C3514 H3506 0.950 . S
C3514 C3512 1.391 . S
C3514 C3515 1.400 . S
C3515 C3514 1.400 . S
C3515 C3516 1.398 . S
C3515 C3521 1.491 . S
C3516 H3507 0.950 . S
C3516 C3515 1.398 . S
C3516 C3517 1.391 . S
C3517 H3505 0.950 . S
C3517 C3513 1.393 . S
C3517 C3516 1.391 . S
C3518 H3508 0.950 . S
C3518 C3519 1.386 . S
C3518 C3520 1.391 . S
C3519 C3518 1.386 . S
C3519 C3523 1.393 . S
C3520 H3509 0.950 . S
C3520 C3518 1.391 . S
C3520 C3521 1.400 . S
C3521 C3515 1.491 . S
C3521 C3520 1.400 . S
C3521 C3522 1.398 . S
C3522 H3510 0.950 . S
C3522 C3521 1.398 . S
C3522 C3523 1.391 . S
C3523 H3511 0.950 . S
C3523 C3519 1.393 . S
C3523 C3522 1.391 . S
H3524 C3532 0.950 . S
H3525 C3537 0.950 . S
H3526 C3534 0.950 . S
H3527 C3536 0.950 . S
H3528 C3538 0.950 . S
H3529 C3540 0.950 . S
H3530 C3542 0.950 . S
H3531 C3543 0.950 . S
C3532 H3524 0.950 . S
C3532 C3533 1.386 . S
C3532 C3534 1.391 . S
C3533 C3532 1.386 . S
C3533 C3537 1.393 . S
C3534 H3526 0.950 . S
C3534 C3532 1.391 . S
C3534 C3535 1.400 . S
C3535 C3534 1.400 . S
C3535 C3536 1.398 . S
C3535 C3541 1.491 . S
C3536 H3527 0.950 . S
C3536 C3535 1.398 . S
C3536 C3537 1.391 . S
C3537 H3525 0.950 . S
C3537 C3533 1.393 . S
C3537 C3536 1.391 . S
C3538 H3528 0.950 . S
C3538 C3539 1.386 . S
C3538 C3540 1.391 . S
C3539 C3538 1.386 . S
C3539 C3543 1.393 . S
C3540 H3529 0.950 . S
C3540 C3538 1.391 . S
C3540 C3541 1.400 . S
C3541 C3535 1.491 . S
C3541 C3540 1.400 . S
C3541 C3542 1.398 . S
C3542 H3530 0.950 . S
C3542 C3541 1.398 . S
C3542 C3543 1.391 . S
C3543 H3531 0.950 . S
C3543 C3539 1.393 . S
C3543 C3542 1.391 . S
H3544 C3552 0.950 . S
H3545 C3557 0.950 . S
H3546 C3554 0.950 . S
H3547 C3556 0.950 . S
H3548 C3558 0.950 . S
H3549 C3560 0.950 . S
H3550 C3562 0.950 . S
H3551 C3563 0.950 . S
C3552 H3544 0.950 . S
C3552 C3553 1.386 . S
C3552 C3554 1.391 . S
C3553 C3552 1.386 . S
C3553 C3557 1.393 . S
C3554 H3546 0.950 . S
C3554 C3552 1.391 . S
C3554 C3555 1.400 . S
C3555 C3554 1.400 . S
C3555 C3556 1.398 . S
C3555 C3561 1.491 . S
C3556 H3547 0.950 . S
C3556 C3555 1.398 . S
C3556 C3557 1.391 . S
C3557 H3545 0.950 . S
C3557 C3553 1.393 . S
C3557 C3556 1.391 . S
C3558 H3548 0.950 . S
C3558 C3559 1.386 . S
C3558 C3560 1.391 . S
C3559 C3558 1.386 . S
C3559 C3563 1.393 . S
C3560 H3549 0.950 . S
C3560 C3558 1.391 . S
C3560 C3561 1.400 . S
C3561 C3555 1.491 . S
C3561 C3560 1.400 . S
C3561 C3562 1.398 . S
C3562 H3550 0.950 . S
C3562 C3561 1.398 . S
C3562 C3563 1.391 . S
C3563 H3551 0.950 . S
C3563 C3559 1.393 . S
C3563 C3562 1.391 . S
H3564 C3572 0.950 . S
H3565 C3577 0.950 . S
H3566 C3574 0.950 . S
H3567 C3576 0.950 . S
H3568 C3578 0.950 . S
H3569 C3580 0.950 . S
H3570 C3582 0.950 . S
H3571 C3583 0.950 . S
C3572 H3564 0.950 . S
C3572 C3573 1.386 . S
C3572 C3574 1.391 . S
C3573 C3572 1.386 . S
C3573 C3577 1.393 . S
C3574 H3566 0.950 . S
C3574 C3572 1.391 . S
C3574 C3575 1.400 . S
C3575 C3574 1.400 . S
C3575 C3576 1.398 . S
C3575 C3581 1.491 . S
C3576 H3567 0.950 . S
C3576 C3575 1.398 . S
C3576 C3577 1.391 . S
C3577 H3565 0.950 . S
C3577 C3573 1.393 . S
C3577 C3576 1.391 . S
C3578 H3568 0.950 . S
C3578 C3579 1.386 . S
C3578 C3580 1.391 . S
C3579 C3578 1.386 . S
C3579 C3583 1.393 . S
C3580 H3569 0.950 . S
C3580 C3578 1.391 . S
C3580 C3581 1.400 . S
C3581 C3575 1.491 . S
C3581 C3580 1.400 . S
C3581 C3582 1.398 . S
C3582 H3570 0.950 . S
C3582 C3581 1.398 . S
C3582 C3583 1.391 . S
C3583 H3571 0.950 . S
C3583 C3579 1.393 . S
C3583 C3582 1.391 . S
H3584 C3592 0.950 . S
H3585 C3597 0.950 . S
H3586 C3594 0.950 . S
H3587 C3596 0.950 . S
H3588 C3598 0.950 . S
H3589 C3600 0.950 . S
H3590 C3602 0.950 . S
H3591 C3603 0.950 . S
C3592 H3584 0.950 . S
C3592 C3593 1.386 . S
C3592 C3594 1.391 . S
C3593 C3592 1.386 . S
C3593 C3597 1.393 . S
C3594 H3586 0.950 . S
C3594 C3592 1.391 . S
C3594 C3595 1.400 . S
C3595 C3594 1.400 . S
C3595 C3596 1.398 . S
C3595 C3601 1.491 . S
C3596 H3587 0.950 . S
C3596 C3595 1.398 . S
C3596 C3597 1.391 . S
C3597 H3585 0.950 . S
C3597 C3593 1.393 . S
C3597 C3596 1.391 . S
C3598 H3588 0.950 . S
C3598 C3599 1.386 . S
C3598 C3600 1.391 . S
C3599 C3598 1.386 . S
C3599 C3603 1.393 . S
C3600 H3589 0.950 . S
C3600 C3598 1.391 . S
C3600 C3601 1.400 . S
C3601 C3595 1.491 . S
C3601 C3600 1.400 . S
C3601 C3602 1.398 . S
C3602 H3590 0.950 . S
C3602 C3601 1.398 . S
C3602 C3603 1.391 . S
C3603 H3591 0.950 . S
C3603 C3599 1.393 . S
C3603 C3602 1.391 . S
H3604 C3612 0.950 . S
H3605 C3617 0.950 . S
H3606 C3614 0.950 . S
H3607 C3616 0.950 . S
H3608 C3618 0.950 . S
H3609 C3620 0.950 . S
H3610 C3622 0.950 . S
H3611 C3623 0.950 . S
C3612 H3604 0.950 . S
C3612 C3613 1.386 . S
C3612 C3614 1.391 . S
C3613 C3612 1.386 . S
C3613 C3617 1.393 . S
C3614 H3606 0.950 . S
C3614 C3612 1.391 . S
C3614 C3615 1.400 . S
C3615 C3614 1.400 . S
C3615 C3616 1.398 . S
C3615 C3621 1.491 . S
C3616 H3607 0.950 . S
C3616 C3615 1.398 . S
C3616 C3617 1.391 . S
C3617 H3605 0.950 . S
C3617 C3613 1.393 . S
C3617 C3616 1.391 . S
C3618 H3608 0.950 . S
C3618 C3619 1.386 . S
C3618 C3620 1.391 . S
C3619 C3618 1.386 . S
C3619 C3623 1.393 . S
C3620 H3609 0.950 . S
C3620 C3618 1.391 . S
C3620 C3621 1.400 . S
C3621 C3615 1.491 . S
C3621 C3620 1.400 . S
C3621 C3622 1.398 . S
C3622 H3610 0.950 . S
C3622 C3621 1.398 . S
C3622 C3623 1.391 . S
C3623 H3611 0.950 . S
C3623 C3619 1.393 . S
C3623 C3622 1.391 . S
H3624 C3632 0.950 . S
H3625 C3637 0.950 . S
H3626 C3634 0.950 . S
H3627 C3636 0.950 . S
H3628 C3638 0.950 . S
H3629 C3640 0.950 . S
H3630 C3642 0.950 . S
H3631 C3643 0.950 . S
C3632 H3624 0.950 . S
C3632 C3633 1.386 . S
C3632 C3634 1.391 . S
C3633 C3632 1.386 . S
C3633 C3637 1.393 . S
C3634 H3626 0.950 . S
C3634 C3632 1.391 . S
C3634 C3635 1.400 . S
C3635 C3634 1.400 . S
C3635 C3636 1.398 . S
C3635 C3641 1.491 . S
C3636 H3627 0.950 . S
C3636 C3635 1.398 . S
C3636 C3637 1.391 . S
C3637 H3625 0.950 . S
C3637 C3633 1.393 . S
C3637 C3636 1.391 . S
C3638 H3628 0.950 . S
C3638 C3639 1.386 . S
C3638 C3640 1.391 . S
C3639 C3638 1.386 . S
C3639 C3643 1.393 . S
C3640 H3629 0.950 . S
C3640 C3638 1.391 . S
C3640 C3641 1.400 . S
C3641 C3635 1.491 . S
C3641 C3640 1.400 . S
C3641 C3642 1.398 . S
C3642 H3630 0.950 . S
C3642 C3641 1.398 . S
C3642 C3643 1.391 . S
C3643 H3631 0.950 . S
C3643 C3639 1.393 . S
C3643 C3642 1.391 . S
H3644 C3652 0.950 . S
H3645 C3657 0.950 . S
H3646 C3654 0.950 . S
H3647 C3656 0.950 . S
H3648 C3658 0.950 . S
H3649 C3660 0.950 . S
H3650 C3662 0.950 . S
H3651 C3663 0.950 . S
C3652 H3644 0.950 . S
C3652 C3653 1.386 . S
C3652 C3654 1.391 . S
C3653 C3652 1.386 . S
C3653 C3657 1.393 . S
C3654 H3646 0.950 . S
C3654 C3652 1.391 . S
C3654 C3655 1.400 . S
C3655 C3654 1.400 . S
C3655 C3656 1.398 . S
C3655 C3661 1.491 . S
C3656 H3647 0.950 . S
C3656 C3655 1.398 . S
C3656 C3657 1.391 . S
C3657 H3645 0.950 . S
C3657 C3653 1.393 . S
C3657 C3656 1.391 . S
C3658 H3648 0.950 . S
C3658 C3659 1.386 . S
C3658 C3660 1.391 . S
C3659 C3658 1.386 . S
C3659 C3663 1.393 . S
C3660 H3649 0.950 . S
C3660 C3658 1.391 . S
C3660 C3661 1.400 . S
C3661 C3655 1.491 . S
C3661 C3660 1.400 . S
C3661 C3662 1.398 . S
C3662 H3650 0.950 . S
C3662 C3661 1.398 . S
C3662 C3663 1.391 . S
C3663 H3651 0.950 . S
C3663 C3659 1.393 . S
C3663 C3662 1.391 . S
H3664 C3672 0.950 . S
H3665 C3677 0.950 . S
H3666 C3674 0.950 . S
H3667 C3676 0.950 . S
H3668 C3678 0.950 . S
H3669 C3680 0.950 . S
H3670 C3682 0.950 . S
H3671 C3683 0.950 . S
C3672 H3664 0.950 . S
C3672 C3673 1.386 . S
C3672 C3674 1.391 . S
C3673 C3672 1.386 . S
C3673 C3677 1.393 . S
C3674 H3666 0.950 . S
C3674 C3672 1.391 . S
C3674 C3675 1.400 . S
C3675 C3674 1.400 . S
C3675 C3676 1.398 . S
C3675 C3681 1.491 . S
C3676 H3667 0.950 . S
C3676 C3675 1.398 . S
C3676 C3677 1.391 . S
C3677 H3665 0.950 . S
C3677 C3673 1.393 . S
C3677 C3676 1.391 . S
C3678 H3668 0.950 . S
C3678 C3679 1.386 . S
C3678 C3680 1.391 . S
C3679 C3678 1.386 . S
C3679 C3683 1.393 . S
C3680 H3669 0.950 . S
C3680 C3678 1.391 . S
C3680 C3681 1.400 . S
C3681 C3675 1.491 . S
C3681 C3680 1.400 . S
C3681 C3682 1.398 . S
C3682 H3670 0.950 . S
C3682 C3681 1.398 . S
C3682 C3683 1.391 . S
C3683 H3671 0.950 . S
C3683 C3679 1.393 . S
C3683 C3682 1.391 . S
H3684 C3692 0.950 . S
H3685 C3697 0.950 . S
H3686 C3694 0.950 . S
H3687 C3696 0.950 . S
H3688 C3698 0.950 . S
H3689 C3700 0.950 . S
H3690 C3702 0.950 . S
H3691 C3703 0.950 . S
C3692 H3684 0.950 . S
C3692 C3693 1.386 . S
C3692 C3694 1.391 . S
C3693 C3692 1.386 . S
C3693 C3697 1.393 . S
C3694 H3686 0.950 . S
C3694 C3692 1.391 . S
C3694 C3695 1.400 . S
C3695 C3694 1.400 . S
C3695 C3696 1.398 . S
C3695 C3701 1.491 . S
C3696 H3687 0.950 . S
C3696 C3695 1.398 . S
C3696 C3697 1.391 . S
C3697 H3685 0.950 . S
C3697 C3693 1.393 . S
C3697 C3696 1.391 . S
C3698 H3688 0.950 . S
C3698 C3699 1.386 . S
C3698 C3700 1.391 . S
C3699 C3698 1.386 . S
C3699 C3703 1.393 . S
C3700 H3689 0.950 . S
C3700 C3698 1.391 . S
C3700 C3701 1.400 . S
C3701 C3695 1.491 . S
C3701 C3700 1.400 . S
C3701 C3702 1.398 . S
C3702 H3690 0.950 . S
C3702 C3701 1.398 . S
C3702 C3703 1.391 . S
C3703 H3691 0.950 . S
C3703 C3699 1.393 . S
C3703 C3702 1.391 . S
H3704 C3712 0.950 . S
H3705 C3717 0.950 . S
H3706 C3714 0.950 . S
H3707 C3716 0.950 . S
H3708 C3718 0.950 . S
H3709 C3720 0.950 . S
H3710 C3722 0.950 . S
H3711 C3723 0.950 . S
C3712 H3704 0.950 . S
C3712 C3713 1.386 . S
C3712 C3714 1.391 . S
C3713 C3712 1.386 . S
C3713 C3717 1.393 . S
C3714 H3706 0.950 . S
C3714 C3712 1.391 . S
C3714 C3715 1.400 . S
C3715 C3714 1.400 . S
C3715 C3716 1.398 . S
C3715 C3721 1.491 . S
C3716 H3707 0.950 . S
C3716 C3715 1.398 . S
C3716 C3717 1.391 . S
C3717 H3705 0.950 . S
C3717 C3713 1.393 . S
C3717 C3716 1.391 . S
C3718 H3708 0.950 . S
C3718 C3719 1.386 . S
C3718 C3720 1.391 . S
C3719 C3718 1.386 . S
C3719 C3723 1.393 . S
C3720 H3709 0.950 . S
C3720 C3718 1.391 . S
C3720 C3721 1.400 . S
C3721 C3715 1.491 . S
C3721 C3720 1.400 . S
C3721 C3722 1.398 . S
C3722 H3710 0.950 . S
C3722 C3721 1.398 . S
C3722 C3723 1.391 . S
C3723 H3711 0.950 . S
C3723 C3719 1.393 . S
C3723 C3722 1.391 . S
H3724 C3732 0.950 . S
H3725 C3737 0.950 . S
H3726 C3734 0.950 . S
H3727 C3736 0.950 . S
H3728 C3738 0.950 . S
H3729 C3740 0.950 . S
H3730 C3742 0.950 . S
H3731 C3743 0.950 . S
C3732 H3724 0.950 . S
C3732 C3733 1.386 . S
C3732 C3734 1.391 . S
C3733 C3732 1.386 . S
C3733 C3737 1.393 . S
C3734 H3726 0.950 . S
C3734 C3732 1.391 . S
C3734 C3735 1.400 . S
C3735 C3734 1.400 . S
C3735 C3736 1.398 . S
C3735 C3741 1.491 . S
C3736 H3727 0.950 . S
C3736 C3735 1.398 . S
C3736 C3737 1.391 . S
C3737 H3725 0.950 . S
C3737 C3733 1.393 . S
C3737 C3736 1.391 . S
C3738 H3728 0.950 . S
C3738 C3739 1.386 . S
C3738 C3740 1.391 . S
C3739 C3738 1.386 . S
C3739 C3743 1.393 . S
C3740 H3729 0.950 . S
C3740 C3738 1.391 . S
C3740 C3741 1.400 . S
C3741 C3735 1.491 . S
C3741 C3740 1.400 . S
C3741 C3742 1.398 . S
C3742 H3730 0.950 . S
C3742 C3741 1.398 . S
C3742 C3743 1.391 . S
C3743 H3731 0.950 . S
C3743 C3739 1.393 . S
C3743 C3742 1.391 . S
H3744 C3752 0.950 . S
H3745 C3757 0.950 . S
H3746 C3754 0.950 . S
H3747 C3756 0.950 . S
H3748 C3758 0.950 . S
H3749 C3760 0.950 . S
H3750 C3762 0.950 . S
H3751 C3763 0.950 . S
C3752 H3744 0.950 . S
C3752 C3753 1.386 . S
C3752 C3754 1.391 . S
C3753 C3752 1.386 . S
C3753 C3757 1.393 . S
C3754 H3746 0.950 . S
C3754 C3752 1.391 . S
C3754 C3755 1.400 . S
C3755 C3754 1.400 . S
C3755 C3756 1.398 . S
C3755 C3761 1.491 . S
C3756 H3747 0.950 . S
C3756 C3755 1.398 . S
C3756 C3757 1.391 . S
C3757 H3745 0.950 . S
C3757 C3753 1.393 . S
C3757 C3756 1.391 . S
C3758 H3748 0.950 . S
C3758 C3759 1.386 . S
C3758 C3760 1.391 . S
C3759 C3758 1.386 . S
C3759 C3763 1.393 . S
C3760 H3749 0.950 . S
C3760 C3758 1.391 . S
C3760 C3761 1.400 . S
C3761 C3755 1.491 . S
C3761 C3760 1.400 . S
C3761 C3762 1.398 . S
C3762 H3750 0.950 . S
C3762 C3761 1.398 . S
C3762 C3763 1.391 . S
C3763 H3751 0.950 . S
C3763 C3759 1.393 . S
C3763 C3762 1.391 . S
H3764 C3772 0.950 . S
H3765 C3777 0.950 . S
H3766 C3774 0.950 . S
H3767 C3776 0.950 . S
H3768 C3778 0.950 . S
H3769 C3780 0.950 . S
H3770 C3782 0.950 . S
H3771 C3783 0.950 . S
C3772 H3764 0.950 . S
C3772 C3773 1.386 . S
C3772 C3774 1.391 . S
C3773 C3772 1.386 . S
C3773 C3777 1.393 . S
C3774 H3766 0.950 . S
C3774 C3772 1.391 . S
C3774 C3775 1.400 . S
C3775 C3774 1.400 . S
C3775 C3776 1.398 . S
C3775 C3781 1.491 . S
C3776 H3767 0.950 . S
C3776 C3775 1.398 . S
C3776 C3777 1.391 . S
C3777 H3765 0.950 . S
C3777 C3773 1.393 . S
C3777 C3776 1.391 . S
C3778 H3768 0.950 . S
C3778 C3779 1.386 . S
C3778 C3780 1.391 . S
C3779 C3778 1.386 . S
C3779 C3783 1.393 . S
C3780 H3769 0.950 . S
C3780 C3778 1.391 . S
C3780 C3781 1.400 . S
C3781 C3775 1.491 . S
C3781 C3780 1.400 . S
C3781 C3782 1.398 . S
C3782 H3770 0.950 . S
C3782 C3781 1.398 . S
C3782 C3783 1.391 . S
C3783 H3771 0.950 . S
C3783 C3779 1.393 . S
C3783 C3782 1.391 . S
H3784 C3792 0.950 . S
H3785 C3797 0.950 . S
H3786 C3794 0.950 . S
H3787 C3796 0.950 . S
H3788 C3798 0.950 . S
H3789 C3800 0.950 . S
H3790 C3802 0.950 . S
H3791 C3803 0.950 . S
C3792 H3784 0.950 . S
C3792 C3793 1.386 . S
C3792 C3794 1.391 . S
C3793 C3792 1.386 . S
C3793 C3797 1.393 . S
C3794 H3786 0.950 . S
C3794 C3792 1.391 . S
C3794 C3795 1.400 . S
C3795 C3794 1.400 . S
C3795 C3796 1.398 . S
C3795 C3801 1.491 . S
C3796 H3787 0.950 . S
C3796 C3795 1.398 . S
C3796 C3797 1.391 . S
C3797 H3785 0.950 . S
C3797 C3793 1.393 . S
C3797 C3796 1.391 . S
C3798 H3788 0.950 . S
C3798 C3799 1.386 . S
C3798 C3800 1.391 . S
C3799 C3798 1.386 . S
C3799 C3803 1.393 . S
C3800 H3789 0.950 . S
C3800 C3798 1.391 . S
C3800 C3801 1.400 . S
C3801 C3795 1.491 . S
C3801 C3800 1.400 . S
C3801 C3802 1.398 . S
C3802 H3790 0.950 . S
C3802 C3801 1.398 . S
C3802 C3803 1.391 . S
C3803 H3791 0.950 . S
C3803 C3799 1.393 . S
C3803 C3802 1.391 . S
H3804 C3812 0.950 . S
H3805 C3817 0.950 . S
H3806 C3814 0.950 . S
H3807 C3816 0.950 . S
H3808 C3818 0.950 . S
H3809 C3820 0.950 . S
H3810 C3822 0.950 . S
H3811 C3823 0.950 . S
C3812 H3804 0.950 . S
C3812 C3813 1.386 . S
C3812 C3814 1.391 . S
C3813 C3812 1.386 . S
C3813 C3817 1.393 . S
C3814 H3806 0.950 . S
C3814 C3812 1.391 . S
C3814 C3815 1.400 . S
C3815 C3814 1.400 . S
C3815 C3816 1.398 . S
C3815 C3821 1.491 . S
C3816 H3807 0.950 . S
C3816 C3815 1.398 . S
C3816 C3817 1.391 . S
C3817 H3805 0.950 . S
C3817 C3813 1.393 . S
C3817 C3816 1.391 . S
C3818 H3808 0.950 . S
C3818 C3819 1.386 . S
C3818 C3820 1.391 . S
C3819 C3818 1.386 . S
C3819 C3823 1.393 . S
C3820 H3809 0.950 . S
C3820 C3818 1.391 . S
C3820 C3821 1.400 . S
C3821 C3815 1.491 . S
C3821 C3820 1.400 . S
C3821 C3822 1.398 . S
C3822 H3810 0.950 . S
C3822 C3821 1.398 . S
C3822 C3823 1.391 . S
C3823 H3811 0.950 . S
C3823 C3819 1.393 . S
C3823 C3822 1.391 . S
H3824 C3832 0.950 . S
H3825 C3837 0.950 . S
H3826 C3834 0.950 . S
H3827 C3836 0.950 . S
H3828 C3838 0.950 . S
H3829 C3840 0.950 . S
H3830 C3842 0.950 . S
H3831 C3843 0.950 . S
C3832 H3824 0.950 . S
C3832 C3833 1.386 . S
C3832 C3834 1.391 . S
C3833 C3832 1.386 . S
C3833 C3837 1.393 . S
C3834 H3826 0.950 . S
C3834 C3832 1.391 . S
C3834 C3835 1.400 . S
C3835 C3834 1.400 . S
C3835 C3836 1.398 . S
C3835 C3841 1.491 . S
C3836 H3827 0.950 . S
C3836 C3835 1.398 . S
C3836 C3837 1.391 . S
C3837 H3825 0.950 . S
C3837 C3833 1.393 . S
C3837 C3836 1.391 . S
C3838 H3828 0.950 . S
C3838 C3839 1.386 . S
C3838 C3840 1.391 . S
C3839 C3838 1.386 . S
C3839 C3843 1.393 . S
C3840 H3829 0.950 . S
C3840 C3838 1.391 . S
C3840 C3841 1.400 . S
C3841 C3835 1.491 . S
C3841 C3840 1.400 . S
C3841 C3842 1.398 . S
C3842 H3830 0.950 . S
C3842 C3841 1.398 . S
C3842 C3843 1.391 . S
C3843 H3831 0.950 . S
C3843 C3839 1.393 . S
C3843 C3842 1.391 . S
H3844 C3852 0.950 . S
H3845 C3857 0.950 . S
H3846 C3854 0.950 . S
H3847 C3856 0.950 . S
H3848 C3858 0.950 . S
H3849 C3860 0.950 . S
H3850 C3862 0.950 . S
H3851 C3863 0.950 . S
C3852 H3844 0.950 . S
C3852 C3853 1.386 . S
C3852 C3854 1.391 . S
C3853 C3852 1.386 . S
C3853 C3857 1.393 . S
C3854 H3846 0.950 . S
C3854 C3852 1.391 . S
C3854 C3855 1.400 . S
C3855 C3854 1.400 . S
C3855 C3856 1.398 . S
C3855 C3861 1.491 . S
C3856 H3847 0.950 . S
C3856 C3855 1.398 . S
C3856 C3857 1.391 . S
C3857 H3845 0.950 . S
C3857 C3853 1.393 . S
C3857 C3856 1.391 . S
C3858 H3848 0.950 . S
C3858 C3859 1.386 . S
C3858 C3860 1.391 . S
C3859 C3858 1.386 . S
C3859 C3863 1.393 . S
C3860 H3849 0.950 . S
C3860 C3858 1.391 . S
C3860 C3861 1.400 . S
C3861 C3855 1.491 . S
C3861 C3860 1.400 . S
C3861 C3862 1.398 . S
C3862 H3850 0.950 . S
C3862 C3861 1.398 . S
C3862 C3863 1.391 . S
C3863 H3851 0.950 . S
C3863 C3859 1.393 . S
C3863 C3862 1.391 . S
H3864 C3872 0.950 . S
H3865 C3877 0.950 . S
H3866 C3874 0.950 . S
H3867 C3876 0.950 . S
H3868 C3878 0.950 . S
H3869 C3880 0.950 . S
H3870 C3882 0.950 . S
H3871 C3883 0.950 . S
C3872 H3864 0.950 . S
C3872 C3873 1.386 . S
C3872 C3874 1.391 . S
C3873 C3872 1.386 . S
C3873 C3877 1.393 . S
C3874 H3866 0.950 . S
C3874 C3872 1.391 . S
C3874 C3875 1.400 . S
C3875 C3874 1.400 . S
C3875 C3876 1.398 . S
C3875 C3881 1.491 . S
C3876 H3867 0.950 . S
C3876 C3875 1.398 . S
C3876 C3877 1.391 . S
C3877 H3865 0.950 . S
C3877 C3873 1.393 . S
C3877 C3876 1.391 . S
C3878 H3868 0.950 . S
C3878 C3879 1.386 . S
C3878 C3880 1.391 . S
C3879 C3878 1.386 . S
C3879 C3883 1.393 . S
C3880 H3869 0.950 . S
C3880 C3878 1.391 . S
C3880 C3881 1.400 . S
C3881 C3875 1.491 . S
C3881 C3880 1.400 . S
C3881 C3882 1.398 . S
C3882 H3870 0.950 . S
C3882 C3881 1.398 . S
C3882 C3883 1.391 . S
C3883 H3871 0.950 . S
C3883 C3879 1.393 . S
C3883 C3882 1.391 . S
H3884 C3892 0.950 . S
H3885 C3897 0.950 . S
H3886 C3894 0.950 . S
H3887 C3896 0.950 . S
H3888 C3898 0.950 . S
H3889 C3900 0.950 . S
H3890 C3902 0.950 . S
H3891 C3903 0.950 . S
C3892 H3884 0.950 . S
C3892 C3893 1.386 . S
C3892 C3894 1.391 . S
C3893 C3892 1.386 . S
C3893 C3897 1.393 . S
C3894 H3886 0.950 . S
C3894 C3892 1.391 . S
C3894 C3895 1.400 . S
C3895 C3894 1.400 . S
C3895 C3896 1.398 . S
C3895 C3901 1.491 . S
C3896 H3887 0.950 . S
C3896 C3895 1.398 . S
C3896 C3897 1.391 . S
C3897 H3885 0.950 . S
C3897 C3893 1.393 . S
C3897 C3896 1.391 . S
C3898 H3888 0.950 . S
C3898 C3899 1.386 . S
C3898 C3900 1.391 . S
C3899 C3898 1.386 . S
C3899 C3903 1.393 . S
C3900 H3889 0.950 . S
C3900 C3898 1.391 . S
C3900 C3901 1.400 . S
C3901 C3895 1.491 . S
C3901 C3900 1.400 . S
C3901 C3902 1.398 . S
C3902 H3890 0.950 . S
C3902 C3901 1.398 . S
C3902 C3903 1.391 . S
C3903 H3891 0.950 . S
C3903 C3899 1.393 . S
C3903 C3902 1.391 . S
H3904 C3912 0.950 . S
H3905 C3917 0.950 . S
H3906 C3914 0.950 . S
H3907 C3916 0.950 . S
H3908 C3918 0.950 . S
H3909 C3920 0.950 . S
H3910 C3922 0.950 . S
H3911 C3923 0.950 . S
C3912 H3904 0.950 . S
C3912 C3913 1.386 . S
C3912 C3914 1.391 . S
C3913 C3912 1.386 . S
C3913 C3917 1.393 . S
C3914 H3906 0.950 . S
C3914 C3912 1.391 . S
C3914 C3915 1.400 . S
C3915 C3914 1.400 . S
C3915 C3916 1.398 . S
C3915 C3921 1.491 . S
C3916 H3907 0.950 . S
C3916 C3915 1.398 . S
C3916 C3917 1.391 . S
C3917 H3905 0.950 . S
C3917 C3913 1.393 . S
C3917 C3916 1.391 . S
C3918 H3908 0.950 . S
C3918 C3919 1.386 . S
C3918 C3920 1.391 . S
C3919 C3918 1.386 . S
C3919 C3923 1.393 . S
C3920 H3909 0.950 . S
C3920 C3918 1.391 . S
C3920 C3921 1.400 . S
C3921 C3915 1.491 . S
C3921 C3920 1.400 . S
C3921 C3922 1.398 . S
C3922 H3910 0.950 . S
C3922 C3921 1.398 . S
C3922 C3923 1.391 . S
C3923 H3911 0.950 . S
C3923 C3919 1.393 . S
C3923 C3922 1.391 . S
H3924 C3932 0.950 . S
H3925 C3937 0.950 . S
H3926 C3934 0.950 . S
H3927 C3936 0.950 . S
H3928 C3938 0.950 . S
H3929 C3940 0.950 . S
H3930 C3942 0.950 . S
H3931 C3943 0.950 . S
C3932 H3924 0.950 . S
C3932 C3933 1.386 . S
C3932 C3934 1.391 . S
C3933 C3932 1.386 . S
C3933 C3937 1.393 . S
C3934 H3926 0.950 . S
C3934 C3932 1.391 . S
C3934 C3935 1.400 . S
C3935 C3934 1.400 . S
C3935 C3936 1.398 . S
C3935 C3941 1.491 . S
C3936 H3927 0.950 . S
C3936 C3935 1.398 . S
C3936 C3937 1.391 . S
C3937 H3925 0.950 . S
C3937 C3933 1.393 . S
C3937 C3936 1.391 . S
C3938 H3928 0.950 . S
C3938 C3939 1.386 . S
C3938 C3940 1.391 . S
C3939 C3938 1.386 . S
C3939 C3943 1.393 . S
C3940 H3929 0.950 . S
C3940 C3938 1.391 . S
C3940 C3941 1.400 . S
C3941 C3935 1.491 . S
C3941 C3940 1.400 . S
C3941 C3942 1.398 . S
C3942 H3930 0.950 . S
C3942 C3941 1.398 . S
C3942 C3943 1.391 . S
C3943 H3931 0.950 . S
C3943 C3939 1.393 . S
C3943 C3942 1.391 . S
H3944 C3952 0.950 . S
H3945 C3957 0.950 . S
H3946 C3954 0.950 . S
H3947 C3956 0.950 . S
H3948 C3958 0.950 . S
H3949 C3960 0.950 . S
H3950 C3962 0.950 . S
H3951 C3963 0.950 . S
C3952 H3944 0.950 . S
C3952 C3953 1.386 . S
C3952 C3954 1.391 . S
C3953 C3952 1.386 . S
C3953 C3957 1.393 . S
C3954 H3946 0.950 . S
C3954 C3952 1.391 . S
C3954 C3955 1.400 . S
C3955 C3954 1.400 . S
C3955 C3956 1.398 . S
C3955 C3961 1.491 . S
C3956 H3947 0.950 . S
C3956 C3955 1.398 . S
C3956 C3957 1.391 . S
C3957 H3945 0.950 . S
C3957 C3953 1.393 . S
C3957 C3956 1.391 . S
C3958 H3948 0.950 . S
C3958 C3959 1.386 . S
C3958 C3960 1.391 . S
C3959 C3958 1.386 . S
C3959 C3963 1.393 . S
C3960 H3949 0.950 . S
C3960 C3958 1.391 . S
C3960 C3961 1.400 . S
C3961 C3955 1.491 . S
C3961 C3960 1.400 . S
C3961 C3962 1.398 . S
C3962 H3950 0.950 . S
C3962 C3961 1.398 . S
C3962 C3963 1.391 . S
C3963 H3951 0.950 . S
C3963 C3959 1.393 . S
C3963 C3962 1.391 . S
H3964 C3972 0.950 . S
H3965 C3977 0.950 . S
H3966 C3974 0.950 . S
H3967 C3976 0.950 . S
H3968 C3978 0.950 . S
H3969 C3980 0.950 . S
H3970 C3982 0.950 . S
H3971 C3983 0.950 . S
C3972 H3964 0.950 . S
C3972 C3973 1.386 . S
C3972 C3974 1.391 . S
C3973 C3972 1.386 . S
C3973 C3977 1.393 . S
C3974 H3966 0.950 . S
C3974 C3972 1.391 . S
C3974 C3975 1.400 . S
C3975 C3974 1.400 . S
C3975 C3976 1.398 . S
C3975 C3981 1.491 . S
C3976 H3967 0.950 . S
C3976 C3975 1.398 . S
C3976 C3977 1.391 . S
C3977 H3965 0.950 . S
C3977 C3973 1.393 . S
C3977 C3976 1.391 . S
C3978 H3968 0.950 . S
C3978 C3979 1.386 . S
C3978 C3980 1.391 . S
C3979 C3978 1.386 . S
C3979 C3983 1.393 . S
C3980 H3969 0.950 . S
C3980 C3978 1.391 . S
C3980 C3981 1.400 . S
C3981 C3975 1.491 . S
C3981 C3980 1.400 . S
C3981 C3982 1.398 . S
C3982 H3970 0.950 . S
C3982 C3981 1.398 . S
C3982 C3983 1.391 . S
C3983 H3971 0.950 . S
C3983 C3979 1.393 . S
C3983 C3982 1.391 . S
C1593 N607 1.499 . S
C1599 C18 1.521 . S
C1613 C51 1.530 . S
C1619 N640 1.473 . S
C1633 C84 1.533 . S
C1639 N673 1.481 . S
C1653 N574 1.476 . S
C1659 C117 1.522 . S
C1673 N739 1.496 . S
C1679 C150 1.517 . S
C1693 C183 1.533 . S
C1699 N541 1.478 . S
C1713 N772 1.474 . S
C1719 C216 1.531 . S
C1733 N706 1.488 . S
C1739 C249 1.517 . S
C1753 C282 1.521 . S
C1759 N310 1.479 . S
C1773 N343 1.488 . S
C1779 C315 1.517 . S
C1793 N376 1.478 . S
C1799 C348 1.533 . S
C1813 C381 1.532 . S
C1819 N277 1.487 . S
C1833 N508 1.495 . S
C1839 C414 1.517 . S
C1853 C447 1.530 . S
C1859 N409 1.493 . S
C1873 N442 1.493 . S
C1879 C480 1.517 . S
C1893 N475 1.499 . S
C1899 C513 1.523 . S
C1913 C546 1.519 . S
C1919 N112 1.481 . S
C1933 N178 1.499 . S
C1939 C579 1.520 . S
C1953 C612 1.533 . S
C1959 N211 1.478 . S
C1973 N244 1.482 . S
C1979 C645 1.519 . S
C1993 N145 1.499 . S
C1999 C678 1.521 . S
C2013 C711 1.524 . S
C2019 N46 1.499 . S
C2033 C744 1.533 . S
C2039 N79 1.482 . S
C2053 N13 1.495 . S
C2059 C777 1.517 . S
C2073 C810 1.523 . S
C2079 N1399 1.475 . S
C2093 N1432 1.498 . S
C2099 C843 1.519 . S
C2113 N1465 1.498 . S
C2119 C876 1.519 . S
C2133 C909 1.523 . S
C2139 N1366 1.476 . S
C2153 N1531 1.499 . S
C2159 C942 1.523 . S
C2173 C975 1.518 . S
C2179 N1333 1.497 . S
C2193 N1564 1.499 . S
C2199 C1008 1.521 . S
C2213 N1498 1.497 . S
C2219 C1041 1.527 . S
C2233 N1102 1.473 . S
C2239 C1074 1.530 . S
C2253 C1107 1.525 . S
C2259 N1135 1.474 . S
C2273 N1168 1.476 . S
C2279 C1140 1.533 . S
C2293 C1173 1.525 . S
C2299 N1069 1.474 . S
C2313 C1206 1.526 . S
C2319 N1300 1.473 . S
C2333 N1201 1.499 . S
C2339 C1239 1.520 . S
C2353 C1272 1.517 . S
C2359 N1234 1.487 . S
C2373 N1267 1.478 . S
C2379 C1305 1.521 . S
C2393 N904 1.499 . S
C2399 C1338 1.520 . S
C2413 C1371 1.517 . S
C2419 N970 1.494 . S
C2433 C1404 1.517 . S
C2439 N1003 1.490 . S
C2453 N1036 1.478 . S
C2459 C1437 1.533 . S
C2473 N937 1.493 . S
C2479 C1470 1.530 . S
C2493 N838 1.498 . S
C2499 C1503 1.525 . S
C2513 C1536 1.522 . S
C2519 N871 1.476 . S
C2533 N805 1.482 . S
C2539 C1569 1.519 . S
C2553 C1044 1.456 . S
C2559 C21 1.460 . S
C2573 C945 1.456 . S
C2579 C54 1.439 . S
C2593 C87 1.461 . S
C2599 C978 1.450 . S
C2613 C1011 1.455 . S
C2619 C120 1.438 . S
C2633 C153 1.458 . S
C2639 C846 1.442 . S
C2653 C879 1.457 . S
C2659 C186 1.441 . S
C2673 C912 1.437 . S
C2679 C219 1.454 . S
C2693 C252 1.460 . S
C2699 C813 1.457 . S
C2713 C285 1.440 . S
C2719 C1473 1.428 . S
C2733 C1374 1.460 . S
C2739 C318 1.447 . S
C2753 C1407 1.458 . S
C2759 C351 1.442 . S
C2773 C1440 1.450 . S
C2779 C384 1.461 . S
C2793 C1572 1.428 . S
C2799 C417 1.440 . S
C2813 C450 1.430 . S
C2819 C1506 1.431 . S
C2833 C483 1.445 . S
C2839 C1539 1.430 . S
C2853 C1341 1.455 . S
C2859 C516 1.439 . S
C2873 C1308 1.437 . S
C2879 C549 1.428 . S
C2893 C582 1.451 . S
C2899 C1110 1.461 . S
C2913 C1143 1.436 . S
C2919 C615 1.428 . S
C2933 C1176 1.450 . S
C2939 C648 1.433 . S
C2953 C681 1.435 . S
C2959 C1077 1.428 . S
C2973 C714 1.455 . S
C2979 C1242 1.461 . S
C2993 C1275 1.460 . S
C2999 C747 1.456 . S
C3013 C780 1.440 . S
C3019 C1209 1.456 . S
C3033 N266 1.117 . S
C3039 C7 1.120 . S
C3053 N299 1.127 . S
C3059 C40 1.122 . S
C3073 C73 1.108 . S
C3079 N332 1.106 . S
C3093 C106 1.118 . S
C3099 N365 1.123 . S
C3113 C139 1.129 . S
C3119 N398 1.133 . S
C3133 N431 1.116 . S
C3139 C172 1.111 . S
C3153 N464 1.143 . S
C3159 C205 1.144 . S
C3173 C238 1.113 . S
C3179 N497 1.110 . S
C3193 N530 1.145 . S
C3199 C271 1.142 . S
C3213 N761 1.147 . S
C3219 C304 1.146 . S
C3233 N695 1.144 . S
C3239 C337 1.141 . S
C3253 C370 1.141 . S
C3259 N728 1.144 . S
C3273 C403 1.113 . S
C3279 N563 1.110 . S
C3293 C436 1.136 . S
C3299 N596 1.140 . S
C3313 C469 1.099 . S
C3319 N629 1.100 . S
C3333 C502 1.134 . S
C3339 N662 1.138 . S
C3353 N2 1.147 . S
C3359 C535 1.145 . S
C3373 C568 1.106 . S
C3379 N134 1.104 . S
C3393 N167 1.146 . S
C3399 C601 1.146 . S
C3413 C634 1.137 . S
C3419 N200 1.135 . S
C3433 N233 1.122 . S
C3439 C667 1.117 . S
C3453 N68 1.126 . S
C3459 C700 1.121 . S
C3473 C733 1.102 . S
C3479 N101 1.105 . S
C3493 N35 1.120 . S
C3499 C766 1.123 . S
C3513 C799 1.140 . S
C3519 N1058 1.138 . S
C3533 N1091 1.145 . S
C3539 C832 1.145 . S
C3553 C865 1.139 . S
C3559 N1124 1.137 . S
C3573 C898 1.099 . S
C3579 N1157 1.100 . S
C3593 C931 1.123 . S
C3599 N1190 1.120 . S
C3613 C964 1.132 . S
C3619 N1223 1.129 . S
C3633 C997 1.135 . S
C3639 N1256 1.133 . S
C3653 C1030 1.103 . S
C3659 N1289 1.102 . S
C3673 C1063 1.146 . S
C3679 N1322 1.147 . S
C3693 C1096 1.137 . S
C3699 N1553 1.141 . S
C3713 C1129 1.101 . S
C3719 N1487 1.104 . S
C3733 N1520 1.144 . S
C3739 C1162 1.145 . S
C3753 N1355 1.117 . S
C3759 C1195 1.120 . S
C3773 C1228 1.104 . S
C3779 N1388 1.108 . S
C3793 N1421 1.138 . S
C3799 C1261 1.134 . S
C3813 C1294 1.102 . S
C3819 N1454 1.106 . S
C3833 C1327 1.099 . S
C3839 N794 1.100 . S
C3853 N926 1.145 . S
C3859 C1360 1.146 . S
C3873 N959 1.115 . S
C3879 C1393 1.110 . S
C3893 N992 1.140 . S
C3899 C1426 1.142 . S
C3913 N1025 1.116 . S
C3919 C1459 1.111 . S
C3933 N860 1.112 . S
C3939 C1492 1.115 . S
C3953 N893 1.133 . S
C3959 C1525 1.128 . S
C3973 N827 1.131 . S
C3979 C1558 1.134 . S
