# Generated by pormake.
# Topology sml, (6)-cn, num edge types: 1
# Building blocks:
#     Node 0, Type 0, BuildingBlock: KUMJIN_clean_sbu_1, # of connection points: 6
#     Node 1, Type 0, BuildingBlock: KUMJIN_clean_sbu_1, # of connection points: 6
#     Node 2, Type 0, BuildingBlock: KUMJIN_clean_sbu_1, # of connection points: 6
#     Node 3, Type 0, BuildingBlock: KUMJIN_clean_sbu_1, # of connection points: 6
#     Node 4, Type 0, BuildingBlock: KUMJIN_clean_sbu_1, # of connection points: 6
#     Node 5, Type 0, BuildingBlock: KUMJIN_clean_sbu_1, # of connection points: 6
#     Edge 6, Type (0, 0), BuildingBlock: ZUJKAS_clean_linker_0, # of connection points: 2
#     Edge 7, Type (0, 0), BuildingBlock: ZUJKAS_clean_linker_0, # of connection points: 2
#     Edge 8, Type (0, 0), BuildingBlock: ZUJKAS_clean_linker_0, # of connection points: 2
#     Edge 9, Type (0, 0), BuildingBlock: ZUJKAS_clean_linker_0, # of connection points: 2
#     Edge 10, Type (0, 0), BuildingBlock: ZUJKAS_clean_linker_0, # of connection points: 2
#     Edge 11, Type (0, 0), BuildingBlock: ZUJKAS_clean_linker_0, # of connection points: 2
#     Edge 12, Type (0, 0), BuildingBlock: ZUJKAS_clean_linker_0, # of connection points: 2
#     Edge 13, Type (0, 0), BuildingBlock: ZUJKAS_clean_linker_0, # of connection points: 2
#     Edge 14, Type (0, 0), BuildingBlock: ZUJKAS_clean_linker_0, # of connection points: 2
#     Edge 15, Type (0, 0), BuildingBlock: ZUJKAS_clean_linker_0, # of connection points: 2
#     Edge 16, Type (0, 0), BuildingBlock: ZUJKAS_clean_linker_0, # of connection points: 2
#     Edge 17, Type (0, 0), BuildingBlock: ZUJKAS_clean_linker_0, # of connection points: 2
#     Edge 18, Type (0, 0), BuildingBlock: ZUJKAS_clean_linker_0, # of connection points: 2
#     Edge 19, Type (0, 0), BuildingBlock: ZUJKAS_clean_linker_0, # of connection points: 2
#     Edge 20, Type (0, 0), BuildingBlock: ZUJKAS_clean_linker_0, # of connection points: 2
#     Edge 21, Type (0, 0), BuildingBlock: ZUJKAS_clean_linker_0, # of connection points: 2
#     Edge 22, Type (0, 0), BuildingBlock: ZUJKAS_clean_linker_0, # of connection points: 2
#     Edge 23, Type (0, 0), BuildingBlock: ZUJKAS_clean_linker_0, # of connection points: 2
# Relax obj value: 0.053
# Max RMSD: 0.161
# Mean RMSD: 0.161
data_MOF--net-sml--node1-KUMJIN_clean_sbu_1--edge1-ZUJKAS_clean_linker_0
_symmetry_space_group_name_H-M    P1
_symmetry_Int_Tables_number       1
_symmetry_cell_setting            triclinic
loop_
_symmetry_equiv_pos_as_xyz
'x, y, z'
_cell_length_a     44.93823
_cell_length_b     44.938612
_cell_length_c     28.905627
_cell_angle_alpha  90.046223
_cell_angle_beta   89.912718
_cell_angle_gamma 119.9581
loop_
_atom_site_label
_atom_site_type_symbol
_atom_site_fract_x
_atom_site_fract_y
_atom_site_fract_z
_atom_type_partial_charge
Eu0 Eu 0.16787 0.42271 0.93619 0.0
C1 C 0.29895 0.44693 0.05473 0.0
N2 N 0.27065 0.41643 0.0442 0.0
C3 C 0.3059 0.39205 0.02533 0.0
C4 C 0.33214 0.45128 0.05007 0.0
C5 C 0.27355 0.38899 0.03044 0.0
C6 C 0.33535 0.42338 0.03502 0.0
C7 C 0.32365 0.5062 0.07962 0.0
C8 C 0.29467 0.47417 0.06894 0.0
C9 C 0.35674 0.51061 0.07498 0.0
C10 C 0.36097 0.48326 0.0602 0.0
Eu11 Eu 0.21714 0.41361 0.05245 0.0
N12 N 0.26228 0.46939 0.07213 0.0
C13 C 0.31855 0.53282 0.09507 0.0
C14 C 0.25726 0.49473 0.08974 0.0
C15 C 0.28519 0.52689 0.10071 0.0
H16 H 0.25082 0.36457 0.02427 0.0
H17 H 0.28094 0.54696 0.11413 0.0
H18 H 0.12571 0.46244 0.96966 0.0
H19 H 0.11793 0.29231 0.86683 0.0
H20 H 0.23196 0.49025 0.09685 0.0
H21 H 0.34013 0.55777 0.10371 0.0
H22 H 0.16221 0.35129 0.88435 0.0
H23 H 0.30809 0.37023 0.01415 0.0
H24 H 0.37926 0.53508 0.08289 0.0
H25 H 0.38667 0.48709 0.05676 0.0
H26 H 0.06563 0.44925 0.98009 0.0
H27 H 0.36041 0.42571 0.03097 0.0
H28 H 0.0568 0.27338 0.88119 0.0
N29 N 0.11149 0.41244 0.94556 0.0
C30 C 0.08559 0.3805 0.93461 0.0
C31 C 0.0709 0.4297 0.96733 0.0
C32 C 0.05101 0.37178 0.94039 0.0
C33 C 0.10481 0.43709 0.96144 0.0
C34 C 0.04387 0.39688 0.95687 0.0
N35 N 0.12757 0.36528 0.91455 0.0
C36 C 0.13614 0.34323 0.89384 0.0
C37 C 0.0674 0.32272 0.908 0.0
C38 C 0.09385 0.35615 0.91925 0.0
C39 C 0.07635 0.29927 0.8903 0.0
C40 C 0.11083 0.30978 0.88246 0.0
H41 H 0.01763 0.39116 0.96178 0.0
H42 H -0.00199 0.33109 0.93452 0.0
H43 H 0.01233 0.28825 0.90573 0.0
O44 O 0.18083 0.42789 0.86157 0.0
O45 O 0.13515 0.39584 0.99887 0.0
O46 O 0.1653 0.37167 0.02717 0.0
O47 O 0.1615 0.459 0.89339 0.0
O48 O 0.20266 0.3996 0.92771 0.0
O49 O 0.19832 0.37217 0.99719 0.0
O50 O 0.20452 0.41152 0.12706 0.0
O51 O 0.2516 0.44387 0.99172 0.0
O52 O 0.21819 0.46442 0.96461 0.0
O53 O 0.22085 0.3771 0.09784 0.0
O54 O 0.18513 0.43998 0.06157 0.0
O55 O 0.18387 0.46446 0.9909 0.0
C56 C 0.13778 0.37466 0.02736 0.0
C57 C 0.17481 0.46889 0.81151 0.0
C58 C 0.18316 0.47421 0.72745 0.0
C59 C 0.18154 0.50466 0.72895 0.0
C60 C 0.17324 0.49934 0.81175 0.0
C61 C 0.17658 0.51702 0.77076 0.0
C62 C 0.17964 0.45625 0.76907 0.0
C63 C 0.20706 0.37771 0.95316 0.0
C64 C 0.17236 0.45145 0.85597 0.0
C65 C 0.02474 0.33831 0.93014 0.0
C66 C 0.03291 0.31388 0.91394 0.0
C67 C 0.24674 0.46357 0.96295 0.0
C68 C 0.20767 0.36998 0.1798 0.0
C69 C 0.19863 0.36629 0.26378 0.0
C70 C 0.19963 0.33551 0.26396 0.0
C71 C 0.20857 0.33917 0.18132 0.0
C72 C 0.20287 0.38364 0.22136 0.0
C73 C 0.20461 0.32216 0.22308 0.0
C74 C 0.17978 0.46148 0.0364 0.0
C75 C 0.21105 0.38672 0.13443 0.0
H76 H 0.18364 0.51874 0.69756 0.0
H77 H 0.16972 0.50975 0.84378 0.0
H78 H 0.17532 0.54045 0.77138 0.0
H79 H 0.18103 0.43287 0.76847 0.0
H80 H 0.19703 0.32191 0.296 0.0
H81 H 0.21212 0.32797 0.15007 0.0
H82 H 0.20202 0.40732 0.22069 0.0
H83 H 0.20539 0.29848 0.22377 0.0
Eu84 Eu 0.82018 0.24929 0.42396 0.0
C85 C 0.69034 0.15434 0.30864 0.0
N86 N 0.71534 0.14693 0.31968 0.0
C87 C 0.67291 0.09009 0.34275 0.0
C88 C 0.65541 0.12996 0.31563 0.0
C89 C 0.70721 0.11521 0.3356 0.0
C90 C 0.64688 0.09757 0.33305 0.0
C91 C 0.67453 0.19493 0.27883 0.0
C92 C 0.69995 0.1867 0.29116 0.0
C93 C 0.63973 0.17104 0.28681 0.0
C94 C 0.6302 0.13865 0.30519 0.0
Eu95 Eu 0.77273 0.19108 0.30881 0.0
N96 N 0.73392 0.20943 0.28409 0.0
C97 C 0.68474 0.22647 0.25732 0.0
C98 C 0.74337 0.23828 0.25837 0.0
C99 C 0.71925 0.24785 0.24601 0.0
H100 H 0.72729 0.10941 0.34278 0.0
H101 H 0.72719 0.2713 0.22678 0.0
H102 H 0.85188 0.33111 0.39214 0.0
H103 H 0.88715 0.18177 0.48126 0.0
H104 H 0.76918 0.25344 0.24565 0.0
H105 H 0.66603 0.23374 0.24726 0.0
H106 H 0.83707 0.18801 0.46535 0.0
H107 H 0.66657 0.06504 0.3558 0.0
H108 H 0.61993 0.17711 0.27798 0.0
H109 H 0.60323 0.12036 0.31066 0.0
H110 H 0.90851 0.38344 0.38205 0.0
H111 H 0.62033 0.07813 0.33888 0.0
H112 H 0.9457 0.23118 0.47084 0.0
N113 N 0.87293 0.3004 0.41399 0.0
C114 C 0.9017 0.299 0.42439 0.0
C115 C 0.90695 0.35984 0.39382 0.0
C116 C 0.93453 0.32823 0.41915 0.0
C117 C 0.87497 0.33017 0.39922 0.0
C118 C 0.93688 0.35887 0.40375 0.0
N119 N 0.86626 0.23969 0.44181 0.0
C120 C 0.86212 0.20944 0.45847 0.0
C121 C 0.92785 0.26548 0.44819 0.0
C122 C 0.89831 0.26779 0.4384 0.0
C123 C 0.92366 0.23398 0.46293 0.0
C124 C 0.89066 0.20598 0.46857 0.0
H125 H 0.96163 0.38187 0.39929 0.0
H126 H 0.98933 0.34802 0.42477 0.0
H127 H 0.9835 0.29321 0.45041 0.0
O128 O 0.809 0.23886 0.49897 0.0
O129 O 0.85371 0.25417 0.36242 0.0
O130 O 0.82517 0.20036 0.33068 0.0
O131 O 0.82448 0.28944 0.47 0.0
O132 O 0.78919 0.19123 0.43284 0.0
O133 O 0.78956 0.16578 0.3628 0.0
O134 O 0.78367 0.19691 0.23361 0.0
O135 O 0.74004 0.18481 0.37237 0.0
O136 O 0.76816 0.23948 0.40028 0.0
O137 O 0.76447 0.14714 0.26713 0.0
O138 O 0.80658 0.24928 0.30113 0.0
O139 O 0.80029 0.27166 0.37015 0.0
C140 C 0.85282 0.2306 0.33473 0.0
C141 C 0.81294 0.28368 0.55237 0.0
C142 C 0.81065 0.28145 0.63718 0.0
C143 C 0.80956 0.31219 0.63739 0.0
C144 C 0.8119 0.31441 0.55397 0.0
C145 C 0.81008 0.3284 0.59614 0.0
C146 C 0.81188 0.26693 0.59425 0.0
C147 C 0.78472 0.16458 0.40802 0.0
C148 C 0.81561 0.27018 0.50668 0.0
C149 C 0.9639 0.32586 0.42868 0.0
C150 C 0.96057 0.2946 0.44317 0.0
C151 C 0.74083 0.20897 0.39867 0.0
C152 C 0.7751 0.14849 0.18447 0.0
C153 C 0.77722 0.1479 0.09962 0.0
C154 C 0.77515 0.11564 0.10176 0.0
C155 C 0.77286 0.11617 0.18523 0.0
C156 C 0.77763 0.16451 0.14141 0.0
C157 C 0.77304 0.10002 0.14419 0.0
C158 C 0.80788 0.27468 0.32573 0.0
C159 C 0.7743 0.16459 0.22887 0.0
H160 H 0.80795 0.3236 0.66965 0.0
H161 H 0.8124 0.32772 0.52248 0.0
H162 H 0.80914 0.352 0.59686 0.0
H163 H 0.81285 0.24333 0.59353 0.0
H164 H 0.7755 0.10252 0.07048 0.0
H165 H 0.77108 0.10334 0.21768 0.0
H166 H 0.77905 0.1893 0.14039 0.0
H167 H 0.77151 0.07521 0.14525 0.0
Eu168 Eu 0.57975 0.75179 0.61151 0.0
C169 C 0.58758 0.88395 0.71976 0.0
N170 N 0.60838 0.87015 0.72151 0.0
C171 C 0.6581 0.92627 0.7188 0.0
C172 C 0.60135 0.91971 0.71568 0.0
C173 C 0.64315 0.89062 0.72327 0.0
C174 C 0.63711 0.94084 0.7141 0.0
C175 C 0.5303 0.87604 0.72733 0.0
C176 C 0.55255 0.86244 0.72541 0.0
C177 C 0.54366 0.91146 0.72092 0.0
C178 C 0.57912 0.93325 0.71501 0.0
Eu179 Eu 0.58099 0.8098 0.72455 0.0
N180 N 0.54046 0.82838 0.73149 0.0
C181 C 0.49546 0.85372 0.73683 0.0
C182 C 0.50704 0.80686 0.7439 0.0
C183 C 0.48389 0.81907 0.74585 0.0
H184 H 0.65931 0.87929 0.72731 0.0
H185 H 0.45719 0.80179 0.75431 0.0
H186 H 0.54768 0.67079 0.64516 0.0
H187 H 0.71256 0.84626 0.56317 0.0
H188 H 0.49815 0.78005 0.75074 0.0
H189 H 0.4775 0.86315 0.7385 0.0
H190 H 0.64994 0.82102 0.56312 0.0
H191 H 0.68576 0.94245 0.71895 0.0
H192 H 0.52693 0.92237 0.72169 0.0
H193 H 0.58918 0.96063 0.71139 0.0
H194 H 0.56868 0.63188 0.67082 0.0
H195 H 0.64874 0.96845 0.71081 0.0
H196 H 0.73874 0.81455 0.59812 0.0
N197 N 0.59778 0.71305 0.63415 0.0
C198 C 0.6321 0.72493 0.63404 0.0
C199 C 0.58677 0.658 0.6607 0.0
C200 C 0.64524 0.70389 0.649 0.0
C201 C 0.57496 0.67995 0.6461 0.0
C202 C 0.62207 0.67012 0.66259 0.0
N203 N 0.64046 0.77769 0.60406 0.0
C204 C 0.66086 0.80787 0.58141 0.0
C205 C 0.68985 0.77117 0.6183 0.0
C206 C 0.65408 0.75834 0.61929 0.0
C207 C 0.71114 0.80379 0.59957 0.0
C208 C 0.69649 0.82185 0.58007 0.0
H209 H 0.63117 0.65317 0.67433 0.0
H210 H 0.6915 0.70155 0.6619 0.0
H211 H 0.73058 0.76034 0.63463 0.0
O212 O 0.58966 0.74967 0.53725 0.0
O213 O 0.59098 0.74443 0.68596 0.0
O214 O 0.62419 0.79962 0.70902 0.0
O215 O 0.5442 0.70757 0.56959 0.0
O216 O 0.59674 0.80804 0.60098 0.0
O217 O 0.62283 0.82864 0.67057 0.0
O218 O 0.57538 0.77906 0.78622 0.0
O219 O 0.54094 0.80139 0.67044 0.0
O220 O 0.54231 0.77118 0.60486 0.0
O221 O 0.59389 0.83335 0.79299 0.0
O222 O 0.53746 0.7547 0.72147 0.0
O223 O 0.53216 0.72149 0.65568 0.0
C224 C 0.61724 0.7677 0.70946 0.0
C225 C 0.55177 0.7016 0.4872 0.0
C226 C 0.55478 0.70085 0.40259 0.0
C227 C 0.53262 0.66509 0.40341 0.0
C228 C 0.52939 0.66592 0.48688 0.0
C229 C 0.51996 0.64786 0.44523 0.0
C230 C 0.56426 0.7191 0.44478 0.0
C231 C 0.61624 0.83394 0.6282 0.0
C232 C 0.56205 0.72 0.53194 0.0
C233 C 0.6809 0.71717 0.64996 0.0
C234 C 0.70314 0.75072 0.63464 0.0
C235 C 0.53029 0.7878 0.62907 0.0
C236 C 0.61366 0.80851 0.84762 0.0
C237 C 0.62976 0.80338 0.92677 0.0
C238 C 0.66373 0.81593 0.9116 0.0
C239 C 0.64772 0.82127 0.8334 0.0
C240 C 0.60476 0.79976 0.89434 0.0
C241 C 0.67258 0.82484 0.86527 0.0
C242 C 0.52193 0.72617 0.69668 0.0
C243 C 0.58753 0.80527 0.81426 0.0
H244 H 0.52473 0.6505 0.37151 0.0
H245 H 0.51943 0.65188 0.51892 0.0
H246 H 0.50278 0.62034 0.44537 0.0
H247 H 0.58146 0.74665 0.44455 0.0
H248 H 0.68361 0.81935 0.93575 0.0
H249 H 0.65508 0.82877 0.79776 0.0
H250 H 0.57842 0.79003 0.90533 0.0
H251 H 0.69885 0.83473 0.85406 0.0
Eu252 Eu 0.74526 0.56759 0.0916 0.0
C253 C 0.84997 0.54725 0.96575 0.0
N254 N 0.85278 0.57776 0.97801 0.0
C255 C 0.91222 0.60062 0.99636 0.0
C256 C 0.87835 0.54207 0.96932 0.0
C257 C 0.88334 0.60449 0.99239 0.0
C258 C 0.90969 0.56921 0.98498 0.0
C259 C 0.81457 0.48881 0.93832 0.0
C260 C 0.81826 0.52082 0.95097 0.0
C261 C 0.84273 0.48348 0.94209 0.0
C262 C 0.87451 0.51001 0.95759 0.0
Eu263 Eu 0.8026 0.58182 0.97277 0.0
N264 N 0.79119 0.5265 0.94859 0.0
C265 C 0.78281 0.46322 0.92158 0.0
C266 C 0.76104 0.50245 0.92901 0.0
C267 C 0.75612 0.4703 0.91618 0.0
H268 H 0.88545 0.6289 1.00025 0.0
H269 H 0.73191 0.4512 0.90139 0.0
H270 H 0.66307 0.52387 0.05978 0.0
H271 H 0.81994 0.69783 0.16348 0.0
H272 H 0.74099 0.50805 0.92157 0.0
H273 H 0.77895 0.43832 0.91142 0.0
H274 H 0.8093 0.64073 0.14189 0.0
H275 H 0.93641 0.62185 1.0081 0.0
H276 H 0.84026 0.45899 0.93277 0.0
H277 H 0.89599 0.50551 0.96025 0.0
H278 H 0.61319 0.53289 0.05397 0.0
H279 H 0.93208 0.56623 0.98824 0.0
H280 H 0.77393 0.71235 0.15534 0.0
N281 N 0.69651 0.57392 0.08572 0.0
C282 C 0.70032 0.60461 0.09927 0.0
C283 C 0.63755 0.55326 0.06668 0.0
C284 C 0.67263 0.61091 0.09639 0.0
C285 C 0.66578 0.54825 0.06984 0.0
C286 C 0.64098 0.58473 0.07995 0.0
N287 N 0.75893 0.62357 0.11586 0.0
C288 C 0.78953 0.64694 0.1352 0.0
C289 C 0.73716 0.66248 0.12783 0.0
C290 C 0.73246 0.63023 0.11423 0.0
C291 C 0.76931 0.6873 0.14451 0.0
C292 C 0.79542 0.67929 0.14884 0.0
H293 H 0.6191 0.5886 0.07721 0.0
H294 H 0.65651 0.6485 0.10722 0.0
H295 H 0.71287 0.69351 0.13512 0.0
O296 O 0.75483 0.56264 0.1656 0.0
O297 O 0.73775 0.59592 0.03201 0.0
O298 O 0.79179 0.62194 1.00273 0.0
O299 O 0.7044 0.52943 0.13501 0.0
O300 O 0.80345 0.59287 0.09831 0.0
O301 O 0.82591 0.62211 0.02947 0.0
O302 O 0.79156 0.58618 0.89917 0.0
O303 O 0.80911 0.55193 0.03163 0.0
O304 O 0.75515 0.52687 0.0616 0.0
O305 O 0.84236 0.6202 0.92838 0.0
O306 O 0.74415 0.55485 0.96588 0.0
O307 O 0.72098 0.52686 0.03559 0.0
C308 C 0.76105 0.61823 1.00389 0.0
C309 C 0.70985 0.5195 0.21621 0.0
C310 C 0.71328 0.51502 0.30034 0.0
C311 C 0.68322 0.48267 0.29877 0.0
C312 C 0.67984 0.48716 0.21592 0.0
C313 C 0.6667 0.46894 0.25691 0.0
C314 C 0.72651 0.53348 0.25869 0.0
C315 C 0.82927 0.61601 0.07326 0.0
C316 C 0.72345 0.53773 0.17182 0.0
C317 C 0.67747 0.64315 0.10929 0.0
C318 C 0.70962 0.66884 0.125 0.0
C319 C 0.78542 0.52952 0.05936 0.0
C320 C 0.83531 0.62974 0.84759 0.0
C321 C 0.83058 0.63391 0.76364 0.0
C322 C 0.86005 0.66673 0.76475 0.0
C323 C 0.86471 0.66254 0.84742 0.0
C324 C 0.81828 0.61538 0.80543 0.0
C325 C 0.87692 0.68083 0.8063 0.0
C326 C 0.7184 0.53153 0.99096 0.0
C327 C 0.82264 0.61149 0.89217 0.0
H328 H 0.67214 0.46811 0.33017 0.0
H329 H 0.66657 0.47573 0.18384 0.0
H330 H 0.64354 0.44405 0.25625 0.0
H331 H 0.74971 0.55838 0.25932 0.0
H332 H 0.87046 0.68136 0.73324 0.0
H333 H 0.87821 0.67427 0.87925 0.0
H334 H 0.79552 0.59014 0.80518 0.0
H335 H 0.89962 0.70607 0.80661 0.0
Eu336 Eu 0.24644 0.82041 0.27053 0.0
C337 C 0.14259 0.69541 0.39755 0.0
N338 N 0.13916 0.72264 0.3847 0.0
C339 C 0.07979 0.68509 0.36694 0.0
C340 C 0.11459 0.66162 0.39461 0.0
C341 C 0.10833 0.7181 0.37025 0.0
C342 C 0.08296 0.65669 0.37894 0.0
C343 C 0.17881 0.67362 0.42601 0.0
C344 C 0.17452 0.70142 0.41249 0.0
C345 C 0.15106 0.63989 0.42271 0.0
C346 C 0.11906 0.63391 0.40702 0.0
Eu347 Eu 0.18871 0.77737 0.38917 0.0
N348 N 0.20112 0.73438 0.4146 0.0
C349 C 0.21069 0.68056 0.44332 0.0
C350 C 0.23124 0.74123 0.43506 0.0
C351 C 0.2368 0.71456 0.44865 0.0
H352 H 0.10574 0.74003 0.36184 0.0
H353 H 0.26103 0.72028 0.46408 0.0
H354 H 0.32872 0.85659 0.30144 0.0
H355 H 0.17412 0.87959 0.20222 0.0
H356 H 0.25069 0.76705 0.44278 0.0
H357 H 0.215 0.65994 0.45415 0.0
H358 H 0.1831 0.83195 0.22319 0.0
H359 H 0.05538 0.68158 0.35522 0.0
H360 H 0.154 0.61826 0.43268 0.0
H361 H 0.09788 0.60775 0.40482 0.0
H362 H 0.37967 0.91472 0.30742 0.0
H363 H 0.06084 0.63112 0.37619 0.0
H364 H 0.22162 0.93947 0.20948 0.0
N365 N 0.29624 0.87467 0.27632 0.0
C366 C 0.2933 0.90214 0.26328 0.0
C367 C 0.35553 0.91153 0.29505 0.0
C368 C 0.32164 0.93573 0.26624 0.0
C369 C 0.32668 0.87873 0.29181 0.0
C370 C 0.35301 0.94017 0.28226 0.0
N371 N 0.23426 0.86393 0.24731 0.0
C372 C 0.20363 0.85766 0.22916 0.0
C373 C 0.2576 0.92483 0.23572 0.0
C374 C 0.26142 0.89666 0.24873 0.0
C375 C 0.22558 0.91854 0.21986 0.0
C376 C 0.19864 0.88479 0.21601 0.0
H377 H 0.37538 0.96558 0.28503 0.0
H378 H 0.3392 0.98976 0.25583 0.0
H379 H 0.28326 0.98022 0.22877 0.0
O380 O 0.236 0.80568 0.19669 0.0
O381 O 0.25343 0.85636 0.32975 0.0
O382 O 0.19933 0.82819 0.3589 0.0
O383 O 0.28656 0.82206 0.2264 0.0
O384 O 0.18828 0.788 0.26334 0.0
O385 O 0.16454 0.79319 0.33223 0.0
O386 O 0.19953 0.79313 0.46259 0.0
O387 O 0.18212 0.74064 0.33048 0.0
O388 O 0.23615 0.76999 0.30132 0.0
O389 O 0.14872 0.77609 0.43324 0.0
O390 O 0.24716 0.80934 0.39599 0.0
O391 O 0.27031 0.80375 0.32676 0.0
C392 C 0.22999 0.85535 0.35767 0.0
C393 C 0.28002 0.80628 0.14524 0.0
C394 C 0.27565 0.79817 0.06112 0.0
C395 C 0.30517 0.79488 0.06207 0.0
C396 C 0.30948 0.80295 0.14493 0.0
C397 C 0.3219 0.79729 0.10363 0.0
C398 C 0.26315 0.80398 0.10308 0.0
C399 C 0.16201 0.78458 0.28811 0.0
C400 C 0.26712 0.81145 0.18992 0.0
C401 C 0.31772 0.96376 0.25374 0.0
C402 C 0.28582 0.95832 0.23848 0.0
C403 C 0.20587 0.7424 0.30237 0.0
C404 C 0.15579 0.79307 0.51399 0.0
C405 C 0.16068 0.80223 0.59791 0.0
C406 C 0.13128 0.80573 0.59683 0.0
C407 C 0.12644 0.7966 0.51418 0.0
C408 C 0.17286 0.79582 0.55611 0.0
C409 C 0.11436 0.8029 0.55531 0.0
C410 C 0.27293 0.81148 0.37124 0.0
C411 C 0.16842 0.78734 0.46945 0.0
H412 H 0.31571 0.79095 0.03044 0.0
H413 H 0.32287 0.80446 0.17675 0.0
H414 H 0.34464 0.79479 0.10382 0.0
H415 H 0.24034 0.80641 0.10293 0.0
H416 H 0.12097 0.81012 0.62836 0.0
H417 H 0.11291 0.79478 0.48236 0.0
H418 H 0.19558 0.79323 0.55634 0.0
H419 H 0.0917 0.80556 0.55503 0.0
Eu420 Eu 0.42231 0.17402 0.75892 0.0
C421 C 0.45162 0.30053 0.63509 0.0
N422 N 0.42003 0.27481 0.6479 0.0
C423 C 0.40302 0.31581 0.66847 0.0
C424 C 0.46041 0.33521 0.63968 0.0
C425 C 0.39557 0.28181 0.66358 0.0
C426 C 0.43565 0.34265 0.65675 0.0
C427 C 0.50831 0.31816 0.60449 0.0
C428 C 0.47541 0.29199 0.6184 0.0
C429 C 0.5174 0.35277 0.6098 0.0
C430 C 0.49352 0.36127 0.62739 0.0
Eu431 Eu 0.40986 0.21817 0.641 0.0
N432 N 0.46599 0.2582 0.61408 0.0
C433 C 0.53076 0.30879 0.58435 0.0
C434 C 0.48652 0.24924 0.59008 0.0
C435 C 0.5195 0.27418 0.57617 0.0
H436 H 0.37031 0.2611 0.67211 0.0
H437 H 0.53591 0.26671 0.55819 0.0
H438 H 0.46837 0.13791 0.72671 0.0
H439 H 0.29024 0.11438 0.82546 0.0
H440 H 0.47731 0.22311 0.57982 0.0
H441 H 0.55621 0.3281 0.57315 0.0
H442 H 0.34714 0.16216 0.80591 0.0
H443 H 0.38361 0.32128 0.68128 0.0
H444 H 0.54265 0.37316 0.59967 0.0
H445 H 0.50083 0.38807 0.63093 0.0
H446 H 0.46098 0.07976 0.71904 0.0
H447 H 0.44141 0.36897 0.66078 0.0
H448 H 0.27769 0.05452 0.81639 0.0
N449 N 0.41763 0.11972 0.75129 0.0
C450 C 0.38707 0.09215 0.76365 0.0
C451 C 0.43999 0.08289 0.73152 0.0
C452 C 0.3817 0.05854 0.75973 0.0
C453 C 0.44406 0.11572 0.73568 0.0
C454 C 0.40867 0.05417 0.74353 0.0
N455 N 0.36632 0.13035 0.78075 0.0
C456 C 0.34189 0.13649 0.79914 0.0
C457 C 0.32847 0.06932 0.79057 0.0
C458 C 0.36063 0.09758 0.77837 0.0
C459 C 0.3027 0.07553 0.80663 0.0
C460 C 0.30961 0.10927 0.81149 0.0
H461 H 0.40554 0.02875 0.74003 0.0
H462 H 0.34498 0.00442 0.76857 0.0
H463 H 0.2985 0.01384 0.79591 0.0
O464 O 0.42564 0.18748 0.83328 0.0
O465 O 0.3944 0.13899 0.69845 0.0
O466 O 0.36827 0.16675 0.66815 0.0
O467 O 0.45936 0.17049 0.80349 0.0
O468 O 0.39626 0.20623 0.76609 0.0
O469 O 0.36872 0.20212 0.69643 0.0
O470 O 0.40365 0.20328 0.56717 0.0
O471 O 0.43811 0.25355 0.70165 0.0
O472 O 0.46375 0.22516 0.73151 0.0
O473 O 0.37273 0.2232 0.59814 0.0
O474 O 0.43573 0.18551 0.6348 0.0
O475 O 0.46411 0.19215 0.70431 0.0
C476 C 0.37166 0.13953 0.67073 0.0
C477 C 0.46769 0.18467 0.88511 0.0
C478 C 0.47133 0.19277 0.96921 0.0
C479 C 0.50301 0.19354 0.96866 0.0
C480 C 0.49937 0.1855 0.88583 0.0
C481 C 0.51682 0.1899 0.92731 0.0
C482 C 0.4536 0.18817 0.92708 0.0
C483 C 0.37368 0.20975 0.74091 0.0
C484 C 0.45037 0.18081 0.84016 0.0
C485 C 0.3496 0.03044 0.77141 0.0
C486 C 0.32309 0.03581 0.78683 0.0
C487 C 0.46086 0.25265 0.72905 0.0
C488 C 0.36194 0.20771 0.51689 0.0
C489 C 0.35705 0.19935 0.43284 0.0
C490 C 0.3256 0.19903 0.43434 0.0
C491 C 0.33054 0.20741 0.51714 0.0
C492 C 0.37524 0.20379 0.47448 0.0
C493 C 0.31255 0.20307 0.47614 0.0
C494 C 0.45978 0.18449 0.65985 0.0
C495 C 0.37991 0.21147 0.56123 0.0
H496 H 0.51696 0.19649 1.00045 0.0
H497 H 0.51088 0.18299 0.85419 0.0
H498 H 0.54118 0.19046 0.92742 0.0
H499 H 0.42924 0.18766 0.92695 0.0
H500 H 0.31129 0.19619 0.40294 0.0
H501 H 0.31965 0.21025 0.54918 0.0
H502 H 0.39943 0.20392 0.47388 0.0
H503 H 0.28837 0.20289 0.47676 0.0
H504 H 0.38305 0.23742 0.82749 0.0
H505 H 0.35144 0.26198 0.86451 0.0
H506 H 0.28737 0.23843 0.74358 0.0
H507 H 0.31782 0.21223 0.70707 0.0
H508 H 0.34712 0.3161 0.83869 0.0
H509 H 0.21601 0.20291 0.84381 0.0
H510 H 0.25339 0.19947 0.83032 0.0
H511 H 0.23371 0.21238 0.7865 0.0
C512 C 0.36188 0.23692 0.80893 0.0
C513 C 0.3531 0.22296 0.76413 0.0
C514 C 0.34391 0.25114 0.83014 0.0
C515 C 0.31677 0.25178 0.8071 0.0
C516 C 0.3077 0.23758 0.76253 0.0
H517 H 0.24492 0.39378 0.87392 0.0
H518 H 0.27046 0.36248 0.83814 0.0
C519 C 0.32541 0.22293 0.74148 0.0
C520 C 0.2993 0.26892 0.82892 0.0
H521 H 0.22081 0.25722 0.86021 0.0
C522 C 0.31951 0.30313 0.84359 0.0
C523 C 0.26332 0.25189 0.83594 0.0
C524 C 0.24038 0.21454 0.82376 0.0
C525 C 0.30475 0.3209 0.86447 0.0
C526 C 0.26864 0.30437 0.86959 0.0
C527 C 0.24844 0.27 0.85567 0.0
C528 C 0.25147 0.32227 0.88982 0.0
C529 C 0.32809 0.35699 0.88171 0.0
C530 C 0.23102 0.30925 0.92961 0.0
C531 C 0.21589 0.32681 0.94973 0.0
C532 C 0.22113 0.3578 0.93054 0.0
C533 C 0.24062 0.37012 0.88976 0.0
C534 C 0.25552 0.35244 0.86951 0.0
H535 H 0.35469 0.36209 0.88731 0.0
H536 H 0.3292 0.37558 0.85555 0.0
H537 H 0.31842 0.36177 0.91466 0.0
H538 H 0.22727 0.28583 0.9456 0.0
H539 H 0.20052 0.31638 0.98069 0.0
H540 H 0.13133 0.32496 0.08855 0.0
H541 H 0.08319 0.29113 0.1413 0.0
H542 H 0.03176 0.34418 0.09161 0.0
H543 H 0.07914 0.37757 0.03895 0.0
H544 H 0.05818 0.31304 0.21171 0.0
H545 H 0.95637 0.24497 0.08137 0.0
H546 H 0.00145 0.26719 0.0666 0.0
H547 H 0.97865 0.2905 0.07215 0.0
C548 C 0.10957 0.32912 0.08855 0.0
C549 C 0.10885 0.3536 0.05898 0.0
C550 C 0.08212 0.3098 0.11871 0.0
C551 C 0.05351 0.31454 0.11959 0.0
C552 C 0.05304 0.33929 0.09054 0.0
H553 H 0.91096 0.29301 0.32601 0.0
H554 H 0.96038 0.30834 0.27673 0.0
C555 C 0.08031 0.3585 0.0605 0.0
C556 C 0.02476 0.29516 0.15239 0.0
H557 H 0.93725 0.24874 0.15812 0.0
C558 C 0.03177 0.29846 0.20001 0.0
C559 C 0.99033 0.27559 0.13716 0.0
C560 C 0.98127 0.26902 0.0865 0.0
C561 C 0.00513 0.2845 0.2328 0.0
C562 C 0.9706 0.26738 0.21748 0.0
C563 C 0.96369 0.26224 0.1699 0.0
C564 C 0.94137 0.257 0.24984 0.0
C565 C 0.01426 0.28869 0.28351 0.0
C566 C 0.91371 0.22312 0.25049 0.0
C567 C 0.88509 0.21421 0.27868 0.0
C568 C 0.88362 0.23912 0.30655 0.0
C569 C 0.91145 0.27297 0.30584 0.0
C570 C 0.93991 0.28181 0.2777 0.0
H571 H 0.03983 0.29111 0.28922 0.0
H572 H 0.01551 0.31252 0.29654 0.0
H573 H 0.99483 0.26667 0.30412 0.0
H574 H 0.91413 0.20364 0.22884 0.0
H575 H 0.864 0.18797 0.27818 0.0
H576 H 0.76745 0.1508 0.49933 0.0
H577 H 0.74335 0.09576 0.53879 0.0
H578 H 0.74813 0.04769 0.41189 0.0
H579 H 0.7743 0.10321 0.37268 0.0
H580 H 0.68465 0.04066 0.52429 0.0
H581 H 0.78668 0.00738 0.49949 0.0
H582 H 0.79332 0.04958 0.48687 0.0
H583 H 0.77227 0.01527 0.4455 0.0
C584 C 0.76398 0.1287 0.47982 0.0
C585 C 0.77253 0.13147 0.43255 0.0
C586 C 0.75003 0.09714 0.50251 0.0
C587 C 0.74409 0.06752 0.47852 0.0
C588 C 0.75312 0.07025 0.43151 0.0
H589 H 0.59366 0.86063 0.5621 0.0
H590 H 0.6252 0.91753 0.52635 0.0
C591 C 0.7677 0.10201 0.40894 0.0
C592 C 0.72657 0.03363 0.50217 0.0
H593 H 0.73195 0.96184 0.52446 0.0
C594 C 0.69518 0.02358 0.5246 0.0
C595 C 0.74047 0.01147 0.50327 0.0
C596 C 0.77521 0.02162 0.48292 0.0
C597 C 0.67708 0.99187 0.54738 0.0
C598 C 0.69008 0.96897 0.54629 0.0
C599 C 0.72177 0.97922 0.5247 0.0
C600 C 0.67117 0.93428 0.56736 0.0
C601 C 0.64457 0.98354 0.57313 0.0
C602 C 0.68698 0.92427 0.60094 0.0
C603 C 0.6692 0.89156 0.62073 0.0
C604 C 0.63521 0.8685 0.60762 0.0
C605 C 0.6197 0.8782 0.57326 0.0
C606 C 0.63757 0.91077 0.55317 0.0
H607 H 0.644 0.00721 0.58268 0.0
H608 H 0.6221 0.96789 0.55058 0.0
H609 H 0.64177 0.96871 0.60515 0.0
H610 H 0.71304 0.94182 0.612 0.0
H611 H 0.6821 0.88423 0.64605 0.0
H612 H 0.59565 0.70424 0.74499 0.0
H613 H 0.62851 0.68538 0.79148 0.0
H614 H 0.71583 0.78797 0.78848 0.0
H615 H 0.68326 0.8069 0.74042 0.0
H616 H 0.69737 0.69333 0.76749 0.0
H617 H 0.69204 0.75729 0.93004 0.0
H618 H 0.66304 0.74936 0.8824 0.0
H619 H 0.70706 0.78292 0.87832 0.0
C620 C 0.62191 0.72278 0.75397 0.0
C621 C 0.63691 0.75706 0.73923 0.0
C622 C 0.64061 0.71196 0.78052 0.0
C623 C 0.67449 0.73531 0.79337 0.0
C624 C 0.68961 0.76965 0.77897 0.0
H625 H 0.80086 0.66381 0.93639 0.0
H626 H 0.78431 0.69563 0.88331 0.0
C627 C 0.67096 0.78044 0.75187 0.0
C628 C 0.6934 0.72338 0.82262 0.0
H629 H 0.7181 0.72321 0.93412 0.0
C630 C 0.70243 0.70018 0.80378 0.0
C631 C 0.69958 0.73226 0.86991 0.0
C632 C 0.68981 0.75666 0.89174 0.0
C633 C 0.71674 0.68487 0.83149 0.0
C634 C 0.72217 0.69317 0.87907 0.0
C635 C 0.71401 0.71709 0.89754 0.0
C636 C 0.73301 0.6748 0.91121 0.0
C637 C 0.72448 0.65878 0.81028 0.0
C638 C 0.7098 0.65302 0.94474 0.0
C639 C 0.71908 0.63487 0.97491 0.0
C640 C 0.75194 0.63841 0.97253 0.0
C641 C 0.77538 0.6606 0.93921 0.0
C642 C 0.76595 0.67867 0.90873 0.0
H643 H 0.71422 0.65164 0.77456 0.0
H644 H 0.75271 0.66955 0.80892 0.0
H645 H 0.71342 0.63516 0.83179 0.0
H646 H 0.68424 0.64969 0.94712 0.0
H647 H 0.70028 0.61783 0.9998 0.0
H648 H 0.14363 0.75352 0.20365 0.0
H649 H 0.08799 0.72928 0.16558 0.0
H650 H 0.04827 0.7595 0.2813 0.0
H651 H 0.10458 0.78572 0.31845 0.0
H652 H 0.02909 0.67767 0.19225 0.0
H653 H 0.01446 0.79247 0.17641 0.0
H654 H 0.0546 0.79532 0.19234 0.0
H655 H 0.02153 0.78457 0.23504 0.0
C656 C 0.12327 0.75557 0.22076 0.0
C657 C 0.12853 0.77134 0.26436 0.0
C658 C 0.09138 0.74152 0.19898 0.0
C659 C 0.06396 0.74281 0.22029 0.0
C660 C 0.06918 0.75882 0.26364 0.0
H661 H 0.85045 0.60166 0.15433 0.0
H662 H 0.907 0.63341 0.19021 0.0
C663 C 0.1013 0.77339 0.28516 0.0
C664 C 0.02956 0.72571 0.19812 0.0
H665 H 0.96413 0.73821 0.16262 0.0
C666 C 0.01501 0.69101 0.18554 0.0
C667 C 0.01134 0.7432 0.1887 0.0
C668 C 0.02643 0.78103 0.19837 0.0
C669 C 0.98266 0.67321 0.16442 0.0
C670 C 0.96374 0.69023 0.15708 0.0
C671 C 0.97846 0.72507 0.16889 0.0
C672 C 0.92876 0.67229 0.13682 0.0
C673 C 0.96942 0.63654 0.14931 0.0
C674 C 0.92167 0.68454 0.09604 0.0
C675 C 0.88909 0.66679 0.07588 0.0
C676 C 0.86311 0.63632 0.09595 0.0
C677 C 0.86996 0.62485 0.1377 0.0
C678 C 0.9024 0.64279 0.15805 0.0
H679 H 0.99067 0.63091 0.14469 0.0
H680 H 0.95189 0.61889 0.17625 0.0
H681 H 0.95497 0.63094 0.1163 0.0
H682 H 0.94155 0.70748 0.07934 0.0
H683 H 0.88443 0.67664 0.04418 0.0
H684 H 0.37789 0.08258 0.66039 0.0
H685 H 0.34643 0.0345 0.6079 0.0
H686 H 0.2871 0.07982 0.56004 0.0
H687 H 0.31914 0.12872 0.6121 0.0
H688 H 0.27887 0.98706 0.6005 0.0
H689 H 0.32475 0.06543 0.44005 0.0
H690 H 0.34293 0.08238 0.49609 0.0
H691 H 0.30242 0.07818 0.47977 0.0
C692 C 0.35802 0.08234 0.639 0.0
C693 C 0.35108 0.10957 0.64044 0.0
C694 C 0.34003 0.05476 0.60894 0.0
C695 C 0.31471 0.05373 0.57956 0.0
C696 C 0.30701 0.0804 0.58172 0.0
H697 H 0.18828 0.86403 0.4192 0.0
H698 H 0.20468 0.91214 0.47261 0.0
C699 C 0.3252 0.10822 0.6117 0.0
C700 C 0.29719 0.02493 0.54625 0.0
H701 H 0.28702 0.00609 0.43089 0.0
C702 C 0.28038 0.99117 0.56339 0.0
C703 C 0.29951 0.03041 0.49785 0.0
C704 C 0.31861 0.066 0.47718 0.0
C705 C 0.26664 0.96271 0.53352 0.0
C706 C 0.26905 0.9682 0.48511 0.0
C707 C 0.28501 0.00195 0.468 0.0
C708 C 0.25808 0.93956 0.45158 0.0
C709 C 0.25117 0.92716 0.55409 0.0
C710 C 0.28233 0.93949 0.42102 0.0
C711 C 0.27297 0.91238 0.39017 0.0
C712 C 0.23909 0.88465 0.38914 0.0
C713 C 0.21461 0.88495 0.41923 0.0
C714 C 0.22399 0.91231 0.45 0.0
H715 H 0.25845 0.92789 0.59097 0.0
H716 H 0.22275 0.91441 0.55231 0.0
H717 H 0.2594 0.9112 0.53456 0.0
H718 H 0.30877 0.96022 0.42158 0.0
H719 H 0.29255 0.91298 0.36766 0.0
H720 H 0.14724 0.40894 0.69198 0.0
H721 H 0.15058 0.39038 0.61308 0.0
H722 H 0.23208 0.4927 0.581 0.0
H723 H 0.22923 0.51116 0.65963 0.0
H724 H 0.13966 0.41861 0.53155 0.0
H725 H 0.26933 0.43221 0.5312 0.0
H726 H 0.24683 0.43031 0.58392 0.0
H727 H 0.26851 0.46959 0.5514 0.0
C728 C 0.16638 0.42722 0.66839 0.0
C729 C 0.1879 0.46152 0.68198 0.0
C730 C 0.1681 0.41668 0.62325 0.0
C731 C 0.19172 0.4401 0.59118 0.0
C732 C 0.21398 0.47403 0.60523 0.0
H733 H 0.23544 0.43189 0.29807 0.0
H734 H 0.23217 0.45146 0.37638 0.0
C735 C 0.21215 0.48461 0.65012 0.0
C736 C 0.19167 0.42988 0.54219 0.0
H737 H 0.24222 0.42431 0.4581 0.0
C738 C 0.162 0.41962 0.51555 0.0
C739 C 0.22094 0.43155 0.52122 0.0
C740 C 0.25313 0.44121 0.54845 0.0
C741 C 0.16095 0.41146 0.46838 0.0
C742 C 0.1902 0.41304 0.44741 0.0
C743 C 0.2199 0.42336 0.47405 0.0
C744 C 0.19002 0.40242 0.39857 0.0
C745 C 0.12876 0.40189 0.44121 0.0
C746 C 0.16715 0.36856 0.38481 0.0
C747 C 0.16892 0.35744 0.34025 0.0
C748 C 0.19374 0.37986 0.30844 0.0
C749 C 0.21585 0.41413 0.32164 0.0
C750 C 0.21416 0.42524 0.36645 0.0
H751 H 0.11305 0.41167 0.458 0.0
H752 H 0.13497 0.41211 0.40538 0.0
H753 H 0.11288 0.3735 0.43928 0.0
H754 H 0.14868 0.35031 0.40907 0.0
H755 H 0.1514 0.33093 0.33104 0.0
H756 H 0.73869 0.11622 0.02316 0.0
H757 H 0.74565 0.13916 0.94486 0.0
H758 H 0.82573 0.23783 0.99267 0.0
H759 H 0.81949 0.21466 0.0713 0.0
H760 H 0.73985 0.19267 0.9085 0.0
H761 H 0.87282 0.21649 0.88703 0.0
H762 H 0.84536 0.19128 0.93408 0.0
H763 H 0.86672 0.23738 0.93614 0.0
C764 C 0.75786 0.14282 0.01708 0.0
C765 C 0.7789 0.16347 0.05341 0.0
C766 C 0.76169 0.15594 0.97227 0.0
C767 C 0.78672 0.19 0.96255 0.0
C768 C 0.80677 0.21122 0.9991 0.0
H769 H 0.8496 0.31277 0.71324 0.0
H770 H 0.84377 0.28894 0.79086 0.0
C771 C 0.8029 0.19809 0.04414 0.0
C772 C 0.79186 0.20281 0.91401 0.0
H773 H 0.85065 0.23486 0.82607 0.0
C774 C 0.76405 0.20181 0.89044 0.0
C775 C 0.82339 0.21456 0.8903 0.0
C776 C 0.85373 0.21476 0.91293 0.0
C777 C 0.76709 0.21285 0.84426 0.0
C778 C 0.79863 0.22465 0.82059 0.0
C779 C 0.82644 0.22564 0.84412 0.0
C780 C 0.80378 0.2378 0.77225 0.0
C781 C 0.73677 0.21265 0.82159 0.0
C782 C 0.78409 0.21668 0.7354 0.0
C783 C 0.7874 0.2303 0.69074 0.0
C784 C 0.81041 0.26529 0.68228 0.0
C785 C 0.83127 0.28583 0.7188 0.0
C786 C 0.82805 0.27223 0.76318 0.0
H787 H 0.71735 0.21033 0.84737 0.0
H788 H 0.74513 0.23644 0.80112 0.0
H789 H 0.72419 0.19043 0.79768 0.0
H790 H 0.76567 0.18984 0.74137 0.0
H791 H 0.77098 0.21385 0.66337 0.0
H792 H 0.58563 0.68445 0.33404 0.0
H793 H 0.60049 0.7086 0.25593 0.0
H794 H 0.56618 0.78006 0.28974 0.0
H795 H 0.55153 0.7561 0.36852 0.0
H796 H 0.53691 0.7356 0.20407 0.0
H797 H 0.67943 0.80687 0.21219 0.0
H798 H 0.65854 0.7644 0.23671 0.0
H799 H 0.65269 0.79732 0.26304 0.0
C800 C 0.58171 0.70564 0.32503 0.0
C801 C 0.56746 0.71843 0.35732 0.0
C802 C 0.59029 0.71947 0.28048 0.0
C803 C 0.58457 0.74619 0.26711 0.0
C804 C 0.57095 0.75955 0.29949 0.0
H805 H 0.59221 0.82149 0.983 0.0
H806 H 0.58059 0.80986 0.06586 0.0
C807 C 0.56279 0.746 0.34446 0.0
C808 C 0.59087 0.75836 0.2184 0.0
H809 H 0.65435 0.79681 0.13749 0.0
C810 C 0.56257 0.74939 0.18949 0.0
C811 C 0.62434 0.7761 0.19955 0.0
C812 C 0.6556 0.78704 0.22942 0.0
C813 C 0.56677 0.75639 0.14171 0.0
C814 C 0.60031 0.77363 0.12255 0.0
C815 C 0.62864 0.78348 0.15195 0.0
C816 C 0.60669 0.78052 0.07198 0.0
C817 C 0.53513 0.74376 0.11201 0.0
C818 C 0.62589 0.76864 0.04779 0.0
C819 C 0.63294 0.77567 1.00064 0.0
C820 C 0.62085 0.79466 0.97645 0.0
C821 C 0.6014 0.80633 1.00052 0.0
C822 C 0.59467 0.79961 0.0479 0.0
H823 H 0.51191 0.72321 0.12951 0.0
H824 H 0.53056 0.76541 0.1049 0.0
H825 H 0.53837 0.73369 0.07843 0.0
H826 H 0.63545 0.75385 0.06546 0.0
H827 H 0.64779 0.76612 0.98302 0.0
H828 H 0.80842 0.56927 0.7289 0.0
H829 H 0.78828 0.54886 0.64997 0.0
H830 H 0.79499 0.64561 0.61722 0.0
H831 H 0.81504 0.66608 0.69568 0.0
H832 H 0.73212 0.54287 0.59728 0.0
H833 H 0.85698 0.63762 0.51928 0.0
H834 H 0.85187 0.62825 0.58044 0.0
H835 H 0.83812 0.65612 0.55582 0.0
C836 C 0.80505 0.58594 0.70507 0.0
C837 C 0.81377 0.61945 0.71833 0.0
C838 C 0.79375 0.57435 0.65992 0.0
C839 C 0.79101 0.59606 0.62733 0.0
C840 C 0.79784 0.62877 0.64134 0.0
H841 H 0.73655 0.57983 0.33514 0.0
H842 H 0.75642 0.59987 0.41426 0.0
C843 C 0.80918 0.64037 0.68626 0.0
C844 C 0.7817 0.58494 0.57845 0.0
H845 H 0.81122 0.6052 0.46725 0.0
C846 C 0.74946 0.55636 0.56886 0.0
C847 C 0.80434 0.60265 0.54135 0.0
C848 C 0.8399 0.63269 0.54958 0.0
C849 C 0.73895 0.54543 0.52316 0.0
C850 C 0.76161 0.56313 0.48605 0.0
C851 C 0.79387 0.5917 0.49565 0.0
C852 C 0.75229 0.55209 0.43712 0.0
C853 C 0.70333 0.5155 0.51498 0.0
C854 C 0.74474 0.51914 0.42315 0.0
C855 C 0.73347 0.50772 0.37815 0.0
C856 C 0.72977 0.5291 0.34591 0.0
C857 C 0.73921 0.5628 0.35913 0.0
C858 C 0.75038 0.57419 0.40437 0.0
H859 H 0.68621 0.51089 0.54515 0.0
H860 H 0.69149 0.51982 0.4839 0.0
H861 H 0.70493 0.49192 0.50927 0.0
H862 H 0.747 0.50198 0.44735 0.0
H863 H 0.72703 0.48184 0.36877 0.0
H864 H 0.17633 0.84992 0.66603 0.0
H865 H 0.19642 0.84943 0.74436 0.0
H866 H 0.20313 0.7594 0.71113 0.0
H867 H 0.18226 0.75935 0.63261 0.0
H868 H 0.16652 0.75291 0.79272 0.0
H869 H 0.29119 0.87483 0.79357 0.0
H870 H 0.25576 0.87962 0.77476 0.0
H871 H 0.26877 0.85451 0.74079 0.0
C872 C 0.18241 0.83019 0.67522 0.0
C873 C 0.17756 0.80456 0.64315 0.0
C874 C 0.19417 0.83011 0.71995 0.0
C875 C 0.20156 0.80455 0.7336 0.0
C876 C 0.19771 0.77946 0.70129 0.0
H877 H 0.26052 0.75113 0.9923 0.0
H878 H 0.24033 0.75192 0.91414 0.0
C879 C 0.18604 0.7796 0.65635 0.0
C880 C 0.21104 0.80279 0.78243 0.0
H881 H 0.26971 0.84829 0.86665 0.0
C882 C 0.18922 0.77365 0.8088 0.0
C883 C 0.24048 0.83 0.80355 0.0
C884 C 0.26559 0.86139 0.77665 0.0
C885 C 0.19575 0.77122 0.85581 0.0
C886 C 0.22521 0.79841 0.8769 0.0
C887 C 0.247 0.82756 0.85057 0.0
C888 C 0.2348 0.79651 0.92561 0.0
C889 C 0.17067 0.73983 0.88272 0.0
C890 C 0.23847 0.82133 0.95826 0.0
C891 C 0.25016 0.82099 1.00313 0.0
C892 C 0.25887 0.79611 0.01589 0.0
C893 C 0.25426 0.77078 0.98345 0.0
C894 C 0.24245 0.77103 0.93882 0.0
H895 H 0.14507 0.72635 0.8658 0.0
H896 H 0.18054 0.72163 0.88464 0.0
H897 H 0.16749 0.74672 0.91857 0.0
H898 H 0.23286 0.84132 0.94875 0.0
H899 H 0.25375 0.84102 0.02716 0.0
H900 H 0.32213 0.1529 0.3645 0.0
H901 H 0.34188 0.15139 0.28612 0.0
H902 H 0.4418 0.23682 0.31911 0.0
H903 H 0.42219 0.23824 0.3979 0.0
H904 H 0.36383 0.20272 0.22186 0.0
H905 H 0.46657 0.1714 0.25588 0.0
H906 H 0.43536 0.16629 0.29917 0.0
H907 H 0.47156 0.20806 0.28738 0.0
C908 C 0.34844 0.17114 0.35521 0.0
C909 C 0.37058 0.19578 0.38737 0.0
C910 C 0.3597 0.17024 0.31039 0.0
C911 C 0.39338 0.19385 0.29666 0.0
C912 C 0.41589 0.2179 0.32907 0.0
H913 H 0.50515 0.23949 0.03761 0.0
H914 H 0.4847 0.24055 0.11566 0.0
C915 C 0.40467 0.21871 0.37412 0.0
C916 C 0.40408 0.19448 0.24771 0.0
H917 H 0.46284 0.18835 0.1793 0.0
C918 C 0.38538 0.1994 0.21253 0.0
C919 C 0.43222 0.19021 0.23551 0.0
C920 C 0.45242 0.18337 0.27139 0.0
C921 C 0.39442 0.20079 0.16565 0.0
C922 C 0.42262 0.19662 0.15347 0.0
C923 C 0.44127 0.19163 0.18864 0.0
C924 C 0.43357 0.1976 0.10459 0.0
C925 C 0.3742 0.20755 0.1297 0.0
C926 C 0.41145 0.17347 0.07195 0.0
C927 C 0.42308 0.1729 0.02707 0.0
C928 C 0.45718 0.19617 0.01425 0.0
C929 C 0.47885 0.22097 0.04658 0.0
C930 C 0.4672 0.22162 0.09121 0.0
H931 H 0.35961 0.21905 0.14521 0.0
H932 H 0.39134 0.225 0.10227 0.0
H933 H 0.35547 0.1829 0.11323 0.0
H934 H 0.38557 0.15428 0.08165 0.0
H935 H 0.40592 0.15325 1.00314 0.0
H936 H 0.18648 0.5217 1.00325 0.0
H937 H 0.18526 0.56732 0.04803 0.0
H938 H 0.15925 0.50492 0.17094 0.0
H939 H 0.16049 0.4592 0.12665 0.0
H940 H 0.13413 0.56951 0.10714 0.0
H941 H 0.25168 0.59306 0.20139 0.0
H942 H 0.2374 0.56792 0.149 0.0
H943 H 0.21672 0.54951 0.20312 0.0
C944 C 0.17997 0.51742 0.03964 0.0
C945 C 0.17417 0.48703 0.06155 0.0
C946 C 0.17929 0.54353 0.06516 0.0
C947 C 0.1728 0.53968 0.11289 0.0
C948 C 0.16492 0.50858 0.13426 0.0
H949 H 0.14774 0.67885 0.29945 0.0
H950 H 0.13824 0.62919 0.25323 0.0
C951 C 0.16559 0.48248 0.10885 0.0
C952 C 0.1765 0.56894 0.14089 0.0
H953 H 0.22556 0.62484 0.22566 0.0
C954 C 0.15403 0.58162 0.13315 0.0
C955 C 0.20286 0.58495 0.17422 0.0
C956 C 0.22878 0.57345 0.18231 0.0
C957 C 0.15703 0.60977 0.15834 0.0
C958 C 0.18293 0.62526 0.19242 0.0
C959 C 0.20553 0.6127 0.19981 0.0
C960 C 0.18799 0.65536 0.21977 0.0
C961 C 0.13304 0.62321 0.14756 0.0
C962 C 0.2193 0.68632 0.21693 0.0
C963 C 0.22497 0.71454 0.24366 0.0
C964 C 0.19945 0.71235 0.274 0.0
C965 C 0.16798 0.68135 0.27664 0.0
C966 C 0.16238 0.65303 0.24992 0.0
H967 H 0.12019 0.61382 0.11357 0.0
H968 H 0.11285 0.61433 0.17463 0.0
H969 H 0.14706 0.65173 0.14736 0.0
H970 H 0.23942 0.68864 0.19393 0.0
H971 H 0.24943 0.73807 0.24052 0.0
H972 H 0.68287 0.14709 0.4147 0.0
H973 H 0.63141 0.13654 0.45746 0.0
H974 H 0.67789 0.24484 0.48642 0.0
H975 H 0.72904 0.25573 0.44305 0.0
H976 H 0.62686 0.15339 0.55226 0.0
H977 H 0.5834 0.21853 0.42912 0.0
H978 H 0.614 0.20532 0.41344 0.0
H979 H 0.62756 0.24396 0.44628 0.0
C980 C 0.68195 0.16871 0.42963 0.0
C981 C 0.70981 0.20231 0.42483 0.0
C982 C 0.65265 0.16259 0.45432 0.0
C983 C 0.65072 0.18998 0.47449 0.0
C984 C 0.67867 0.22344 0.47038 0.0
H985 H 0.52491 0.20325 0.68774 0.0
H986 H 0.56921 0.1996 0.64309 0.0
C987 C 0.70795 0.22958 0.44576 0.0
C988 C 0.61975 0.18373 0.50052 0.0
H989 H 0.55672 0.20495 0.5033 0.0
C990 C 0.61128 0.16435 0.54142 0.0
C991 C 0.59927 0.19769 0.48589 0.0
C992 C 0.60624 0.21728 0.44106 0.0
C993 C 0.58348 0.15961 0.56903 0.0
C994 C 0.56403 0.175 0.55551 0.0
C995 C 0.57181 0.19335 0.51376 0.0
C996 C 0.53621 0.17355 0.58472 0.0
C997 C 0.57521 0.13822 0.61237 0.0
C998 C 0.50293 0.16004 0.5668 0.0
C999 C 0.4776 0.16221 0.59216 0.0
C1000 C 0.48524 0.1783 0.63571 0.0
C1001 C 0.5182 0.1906 0.65438 0.0
C1002 C 0.54353 0.18842 0.62896 0.0
H1003 H 0.58564 0.12044 0.61079 0.0
H1004 H 0.58701 0.15546 0.64253 0.0
H1005 H 0.54704 0.12298 0.6182 0.0
H1006 H 0.49679 0.14851 0.53269 0.0
H1007 H 0.45234 0.15225 0.57706 0.0
H1008 H 0.24046 0.49858 0.89061 0.0
H1009 H 0.28496 0.5378 0.83775 0.0
H1010 H 0.35976 0.5217 0.90993 0.0
H1011 H 0.3147 0.48087 0.96181 0.0
H1012 H 0.3384 0.59651 0.85805 0.0
H1013 H 0.38417 0.51455 0.77839 0.0
H1014 H 0.34512 0.49704 0.81198 0.0
H1015 H 0.38612 0.51455 0.84036 0.0
C1016 C 0.26625 0.50292 0.89492 0.0
C1017 C 0.27403 0.48657 0.93045 0.0
C1018 C 0.29172 0.52543 0.86461 0.0
C1019 C 0.3257 0.53247 0.86937 0.0
C1020 C 0.33359 0.51604 0.90471 0.0
H1021 H 0.50325 0.71968 0.78738 0.0
H1022 H 0.45514 0.67159 0.82529 0.0
C1023 C 0.30788 0.49296 0.9347 0.0
C1024 C 0.35303 0.55909 0.83964 0.0
H1025 H 0.4201 0.5754 0.76802 0.0
C1026 C 0.356 0.5917 0.83803 0.0
C1027 C 0.37572 0.55278 0.81285 0.0
C1028 C 0.37244 0.51773 0.81053 0.0
C1029 C 0.38146 0.61835 0.81149 0.0
C1030 C 0.40545 0.61268 0.78695 0.0
C1031 C 0.40192 0.57981 0.78726 0.0
C1032 C 0.43537 0.64117 0.76309 0.0
C1033 C 0.38227 0.65233 0.80995 0.0
C1034 C 0.44113 0.63959 0.71557 0.0
C1035 C 0.46918 0.66717 0.69353 0.0
C1036 C 0.49179 0.69674 0.71873 0.0
C1037 C 0.48609 0.69775 0.76648 0.0
C1038 C 0.45846 0.67021 0.78837 0.0
H1039 H 0.35651 0.64909 0.81708 0.0
H1040 H 0.40007 0.66956 0.83695 0.0
H1041 H 0.39125 0.66502 0.77579 0.0
H1042 H 0.42374 0.61724 0.69549 0.0
H1043 H 0.47298 0.66543 0.65683 0.0
H1044 H 0.84 0.29835 0.24265 0.0
H1045 H 0.84411 0.34627 0.1974 0.0
H1046 H 0.79438 0.36989 0.30753 0.0
H1047 H 0.79008 0.32199 0.35296 0.0
H1048 H 0.78579 0.34955 0.16992 0.0
H1049 H 0.87575 0.46467 0.27126 0.0
H1050 H 0.87307 0.42345 0.27838 0.0
H1051 H 0.84149 0.4315 0.30464 0.0
C1052 C 0.8304 0.31407 0.2575 0.0
C1053 C 0.81444 0.30624 0.30117 0.0
C1054 C 0.83281 0.34143 0.23165 0.0
C1055 C 0.81975 0.36171 0.24926 0.0
C1056 C 0.80513 0.35488 0.29365 0.0
H1057 H 0.73998 0.47572 0.11249 0.0
H1058 H 0.75071 0.43577 0.15673 0.0
C1059 C 0.80261 0.32745 0.3195 0.0
C1060 C 0.81838 0.38778 0.21951 0.0
H1061 H 0.84304 0.47289 0.21268 0.0
C1062 C 0.79861 0.37658 0.179 0.0
C1063 C 0.83527 0.42301 0.23136 0.0
C1064 C 0.85786 0.43653 0.27356 0.0
C1065 C 0.79439 0.39953 0.15073 0.0
C1066 C 0.81015 0.43449 0.16354 0.0
C1067 C 0.83084 0.44597 0.20321 0.0
C1068 C 0.80418 0.45913 0.13704 0.0
C1069 C 0.77288 0.38623 0.10752 0.0
C1070 C 0.83091 0.48578 0.11193 0.0
C1071 C 0.82488 0.50868 0.08641 0.0
C1072 C 0.79204 0.50534 0.08594 0.0
C1073 C 0.76549 0.47886 0.11177 0.0
C1074 C 0.77153 0.45596 0.13704 0.0
H1075 H 0.76897 0.36071 0.09712 0.0
H1076 H 0.7473 0.38354 0.11397 0.0
H1077 H 0.78505 0.40447 0.07835 0.0
H1078 H 0.85633 0.48866 0.11177 0.0
H1079 H 0.84596 0.52904 0.06734 0.0
H1080 H 0.29348 0.83922 0.45736 0.0
H1081 H 0.34062 0.84225 0.50317 0.0
H1082 H 0.37016 0.80121 0.3884 0.0
H1083 H 0.32302 0.79791 0.34232 0.0
H1084 H 0.3453 0.78296 0.52391 0.0
H1085 H 0.46215 0.88273 0.43435 0.0
H1086 H 0.42045 0.87894 0.42713 0.0
H1087 H 0.43077 0.85027 0.397 0.0
C1088 C 0.31032 0.83131 0.44159 0.0
C1089 C 0.3043 0.81799 0.39635 0.0
C1090 C 0.33722 0.83309 0.46782 0.0
C1091 C 0.3589 0.82209 0.44908 0.0
C1092 C 0.35399 0.81029 0.40324 0.0
H1093 H 0.48059 0.74458 0.56947 0.0
H1094 H 0.43843 0.75442 0.52885 0.0
C1095 C 0.32698 0.80836 0.377 0.0
C1096 C 0.38453 0.81993 0.47877 0.0
H1097 H 0.47013 0.84764 0.48922 0.0
C1098 C 0.37263 0.79735 0.51663 0.0
C1099 C 0.42013 0.83886 0.46923 0.0
C1100 C 0.43428 0.86432 0.42997 0.0
C1101 C 0.39536 0.79239 0.54438 0.0
C1102 C 0.43076 0.8104 0.53384 0.0
C1103 C 0.44286 0.83377 0.49692 0.0
C1104 C 0.45543 0.8042 0.55974 0.0
C1105 C 0.38147 0.7677 0.58452 0.0
C1106 C 0.4788 0.829 0.59044 0.0
C1107 C 0.5027 0.82334 0.6139 0.0
C1108 C 0.50377 0.79296 0.6066 0.0
C1109 C 0.48029 0.7682 0.57577 0.0
C1110 C 0.45619 0.77372 0.5527 0.0
H1111 H 0.35447 0.76022 0.59279 0.0
H1112 H 0.3824 0.74412 0.57581 0.0
H1113 H 0.39754 0.77925 0.61577 0.0
H1114 H 0.47866 0.85278 0.59599 0.0
H1115 H 0.52104 0.84319 0.63651 0.0
H1116 H 0.6975 0.53847 0.90501 0.0
H1117 H 0.64928 0.49484 0.86029 0.0
H1118 H 0.62015 0.42467 0.97535 0.0
H1119 H 0.66815 0.46823 0.0205 0.0
H1120 H 0.64253 0.43274 0.83644 0.0
H1121 H 0.52804 0.41318 0.93455 0.0
H1122 H 0.57008 0.45034 0.94275 0.0
H1123 H 0.55931 0.41014 0.96974 0.0
C1124 C 0.68053 0.51393 0.92109 0.0
C1125 C 0.68681 0.50671 0.9662 0.0
C1126 C 0.65297 0.48906 0.89548 0.0
C1127 C 0.63098 0.45661 0.91459 0.0
C1128 C 0.6364 0.44976 0.96022 0.0
H1129 H 0.51606 0.26207 0.7797 0.0
H1130 H 0.55641 0.31309 0.82285 0.0
C1131 C 0.66396 0.47465 0.98593 0.0
C1132 C 0.60456 0.42897 0.88532 0.0
H1133 H 0.519 0.36996 0.87879 0.0
C1134 C 0.61547 0.41927 0.84544 0.0
C1135 C 0.56924 0.41163 0.8969 0.0
C1136 C 0.55586 0.42203 0.93807 0.0
C1137 C 0.59219 0.39196 0.81764 0.0
C1138 C 0.55716 0.37358 0.83042 0.0
C1139 C 0.54597 0.38397 0.86936 0.0
C1140 C 0.53213 0.34264 0.80471 0.0
C1141 C 0.6053 0.38286 0.7749 0.0
C1142 C 0.50463 0.34213 0.78107 0.0
C1143 C 0.48137 0.31289 0.75635 0.0
C1144 C 0.48523 0.2837 0.75507 0.0
C1145 C 0.5125 0.2842 0.77954 0.0
C1146 C 0.53568 0.31337 0.80413 0.0
H1147 H 0.63047 0.40449 0.76347 0.0
H1148 H 0.60876 0.36058 0.78261 0.0
H1149 H 0.58669 0.37559 0.74597 0.0
H1150 H 0.50135 0.36443 0.78144 0.0
H1151 H 0.46032 0.31312 0.73856 0.0
loop_
_geom_bond_atom_site_label_1
_geom_bond_atom_site_label_2
_geom_bond_distance
_geom_bond_site_symmetry_2
_ccdc_geom_bond_type
Eu0 N29 2.600 . S
Eu0 N35 2.562 . S
Eu0 O44 2.462 . S
Eu0 O45 2.373 1_556 S
Eu0 O47 2.432 . S
Eu0 O48 2.291 . S
Eu0 O52 2.335 . S
Eu0 O55 2.372 . S
Eu0 C64 2.787 . S
C1 N2 1.365 . S
C1 C4 1.405 . S
C1 C8 1.448 . S
N2 C1 1.365 . S
N2 C5 1.319 . S
N2 Eu11 2.600 . S
C3 C5 1.397 . S
C3 C6 1.367 . S
C3 H23 0.931 . S
C4 C1 1.405 . S
C4 C6 1.403 . S
C4 C10 1.439 . S
C5 N2 1.319 . S
C5 C3 1.397 . S
C5 H16 0.930 . S
C6 C3 1.367 . S
C6 C4 1.403 . S
C6 H27 0.929 . S
C7 C8 1.430 . S
C7 C9 1.387 . S
C7 C13 1.404 . S
C8 C1 1.448 . S
C8 C7 1.430 . S
C8 N12 1.351 . S
C9 C7 1.387 . S
C9 C10 1.374 . S
C9 H24 0.931 . S
C10 C4 1.439 . S
C10 C9 1.374 . S
C10 H25 0.931 . S
Eu11 N2 2.600 . S
Eu11 N12 2.562 . S
Eu11 O46 2.335 . S
Eu11 O49 2.372 . S
Eu11 O50 2.462 . S
Eu11 O51 2.373 1_554 S
Eu11 O53 2.432 . S
Eu11 O54 2.291 . S
Eu11 C75 2.787 . S
N12 C8 1.351 . S
N12 Eu11 2.562 . S
N12 C14 1.325 . S
C13 C7 1.404 . S
C13 C15 1.366 . S
C13 H21 0.930 . S
C14 N12 1.325 . S
C14 C15 1.416 . S
C14 H20 0.929 . S
C15 C13 1.366 . S
C15 C14 1.416 . S
C15 H17 0.930 . S
H16 C5 0.930 . S
H17 C15 0.930 . S
H18 C33 0.930 . S
H19 C40 0.930 . S
H20 C14 0.929 . S
H21 C13 0.930 . S
H22 C36 0.929 . S
H23 C3 0.931 . S
H24 C9 0.931 . S
H25 C10 0.931 . S
H26 C31 0.931 . S
H27 C6 0.929 . S
H28 C39 0.930 . S
N29 Eu0 2.600 . S
N29 C30 1.365 . S
N29 C33 1.319 . S
C30 N29 1.365 . S
C30 C32 1.405 . S
C30 C38 1.448 . S
C31 H26 0.931 . S
C31 C33 1.397 . S
C31 C34 1.367 . S
C32 C30 1.405 . S
C32 C34 1.403 . S
C32 C65 1.439 . S
C33 H18 0.930 . S
C33 N29 1.319 . S
C33 C31 1.397 . S
C34 C31 1.367 . S
C34 C32 1.403 . S
C34 H41 0.929 . S
N35 Eu0 2.562 . S
N35 C36 1.325 . S
N35 C38 1.351 . S
C36 H22 0.929 . S
C36 N35 1.325 . S
C36 C40 1.416 . S
C37 C38 1.430 . S
C37 C39 1.404 . S
C37 C66 1.387 . S
C38 C30 1.448 . S
C38 N35 1.351 . S
C38 C37 1.430 . S
C39 H28 0.930 . S
C39 C37 1.404 . S
C39 C40 1.366 . S
C40 H19 0.930 . S
C40 C36 1.416 . S
C40 C39 1.366 . S
H41 C34 0.929 . S
H42 C65 0.931 . S
H43 C66 0.931 . S
O44 Eu0 2.462 . S
O44 C64 1.252 . S
O45 Eu0 2.373 1_554 S
O45 C56 1.249 . S
O46 Eu11 2.335 . S
O46 C56 1.264 . S
O47 Eu0 2.432 . S
O47 C64 1.268 . S
O48 Eu0 2.291 . S
O48 C63 1.255 . S
O49 Eu11 2.372 . S
O49 C63 1.257 1_554 S
O50 Eu11 2.462 . S
O50 C75 1.252 . S
O51 Eu11 2.373 1_556 S
O51 C67 1.249 . S
O52 Eu0 2.335 . S
O52 C67 1.264 . S
O53 Eu11 2.432 . S
O53 C75 1.268 . S
O54 Eu11 2.291 . S
O54 C74 1.255 . S
O55 Eu0 2.372 . S
O55 C74 1.257 1_556 S
C56 O45 1.249 . S
C56 O46 1.264 . S
C57 C60 1.382 . S
C57 C62 1.390 . S
C57 C64 1.506 . S
C58 C59 1.398 . S
C58 C62 1.392 . S
C59 C58 1.398 . S
C59 C61 1.372 . S
C59 H76 0.931 . S
C60 C57 1.382 . S
C60 C61 1.390 . S
C60 H77 0.931 . S
C61 C59 1.372 . S
C61 C60 1.390 . S
C61 H78 0.929 . S
C62 C57 1.390 . S
C62 C58 1.392 . S
C62 H79 0.930 . S
C63 O48 1.255 . S
C63 O49 1.257 1_556 S
C64 Eu0 2.787 . S
C64 O44 1.252 . S
C64 O47 1.268 . S
C64 C57 1.506 . S
C65 C32 1.439 . S
C65 H42 0.931 . S
C65 C66 1.374 . S
C66 C37 1.387 . S
C66 H43 0.931 . S
C66 C65 1.374 . S
C67 O51 1.249 . S
C67 O52 1.264 . S
C68 C71 1.382 . S
C68 C72 1.390 . S
C68 C75 1.506 . S
C69 C70 1.398 . S
C69 C72 1.392 . S
C70 C69 1.398 . S
C70 C73 1.372 . S
C70 H80 0.931 . S
C71 C68 1.382 . S
C71 C73 1.390 . S
C71 H81 0.931 . S
C72 C68 1.390 . S
C72 C69 1.392 . S
C72 H82 0.930 . S
C73 C70 1.372 . S
C73 C71 1.390 . S
C73 H83 0.929 . S
C74 O54 1.255 . S
C74 O55 1.257 1_554 S
C75 Eu11 2.787 . S
C75 O50 1.252 . S
C75 O53 1.268 . S
C75 C68 1.506 . S
H76 C59 0.931 . S
H77 C60 0.931 . S
H78 C61 0.929 . S
H79 C62 0.930 . S
H80 C70 0.931 . S
H81 C71 0.931 . S
H82 C72 0.930 . S
H83 C73 0.929 . S
Eu84 N113 2.600 . S
Eu84 N119 2.562 . S
Eu84 O128 2.462 . S
Eu84 O129 2.373 . S
Eu84 O131 2.432 . S
Eu84 O132 2.291 . S
Eu84 O136 2.335 . S
Eu84 O139 2.372 . S
Eu84 C148 2.787 . S
C85 N86 1.365 . S
C85 C88 1.405 . S
C85 C92 1.448 . S
N86 C85 1.365 . S
N86 C89 1.319 . S
N86 Eu95 2.600 . S
C87 C89 1.397 . S
C87 C90 1.367 . S
C87 H107 0.931 . S
C88 C85 1.405 . S
C88 C90 1.403 . S
C88 C94 1.439 . S
C89 N86 1.319 . S
C89 C87 1.397 . S
C89 H100 0.930 . S
C90 C87 1.367 . S
C90 C88 1.403 . S
C90 H111 0.929 . S
C91 C92 1.430 . S
C91 C93 1.387 . S
C91 C97 1.404 . S
C92 C85 1.448 . S
C92 C91 1.430 . S
C92 N96 1.351 . S
C93 C91 1.387 . S
C93 C94 1.374 . S
C93 H108 0.931 . S
C94 C88 1.439 . S
C94 C93 1.374 . S
C94 H109 0.931 . S
Eu95 N86 2.600 . S
Eu95 N96 2.562 . S
Eu95 O130 2.335 . S
Eu95 O133 2.372 . S
Eu95 O134 2.462 . S
Eu95 O135 2.373 . S
Eu95 O137 2.432 . S
Eu95 O138 2.291 . S
Eu95 C159 2.787 . S
N96 C92 1.351 . S
N96 Eu95 2.562 . S
N96 C98 1.325 . S
C97 C91 1.404 . S
C97 C99 1.366 . S
C97 H105 0.930 . S
C98 N96 1.325 . S
C98 C99 1.416 . S
C98 H104 0.929 . S
C99 C97 1.366 . S
C99 C98 1.416 . S
C99 H101 0.930 . S
H100 C89 0.930 . S
H101 C99 0.930 . S
H102 C117 0.930 . S
H103 C124 0.930 . S
H104 C98 0.929 . S
H105 C97 0.930 . S
H106 C120 0.929 . S
H107 C87 0.931 . S
H108 C93 0.931 . S
H109 C94 0.931 . S
H110 C115 0.931 . S
H111 C90 0.929 . S
H112 C123 0.930 . S
N113 Eu84 2.600 . S
N113 C114 1.365 . S
N113 C117 1.319 . S
C114 N113 1.365 . S
C114 C116 1.405 . S
C114 C122 1.448 . S
C115 H110 0.931 . S
C115 C117 1.397 . S
C115 C118 1.367 . S
C116 C114 1.405 . S
C116 C118 1.403 . S
C116 C149 1.439 . S
C117 H102 0.930 . S
C117 N113 1.319 . S
C117 C115 1.397 . S
C118 C115 1.367 . S
C118 C116 1.403 . S
C118 H125 0.929 . S
N119 Eu84 2.562 . S
N119 C120 1.325 . S
N119 C122 1.351 . S
C120 H106 0.929 . S
C120 N119 1.325 . S
C120 C124 1.416 . S
C121 C122 1.430 . S
C121 C123 1.404 . S
C121 C150 1.387 . S
C122 C114 1.448 . S
C122 N119 1.351 . S
C122 C121 1.430 . S
C123 H112 0.930 . S
C123 C121 1.404 . S
C123 C124 1.366 . S
C124 H103 0.930 . S
C124 C120 1.416 . S
C124 C123 1.366 . S
H125 C118 0.929 . S
H126 C149 0.931 . S
H127 C150 0.931 . S
O128 Eu84 2.462 . S
O128 C148 1.252 . S
O129 Eu84 2.373 . S
O129 C140 1.249 . S
O130 Eu95 2.335 . S
O130 C140 1.264 . S
O131 Eu84 2.432 . S
O131 C148 1.268 . S
O132 Eu84 2.291 . S
O132 C147 1.255 . S
O133 Eu95 2.372 . S
O133 C147 1.257 . S
O134 Eu95 2.462 . S
O134 C159 1.252 . S
O135 Eu95 2.373 . S
O135 C151 1.249 . S
O136 Eu84 2.335 . S
O136 C151 1.264 . S
O137 Eu95 2.432 . S
O137 C159 1.268 . S
O138 Eu95 2.291 . S
O138 C158 1.255 . S
O139 Eu84 2.372 . S
O139 C158 1.257 . S
C140 O129 1.249 . S
C140 O130 1.264 . S
C141 C144 1.382 . S
C141 C146 1.390 . S
C141 C148 1.506 . S
C142 C143 1.398 . S
C142 C146 1.392 . S
C143 C142 1.398 . S
C143 C145 1.372 . S
C143 H160 0.931 . S
C144 C141 1.382 . S
C144 C145 1.390 . S
C144 H161 0.931 . S
C145 C143 1.372 . S
C145 C144 1.390 . S
C145 H162 0.929 . S
C146 C141 1.390 . S
C146 C142 1.392 . S
C146 H163 0.930 . S
C147 O132 1.255 . S
C147 O133 1.257 . S
C148 Eu84 2.787 . S
C148 O128 1.252 . S
C148 O131 1.268 . S
C148 C141 1.506 . S
C149 C116 1.439 . S
C149 H126 0.931 . S
C149 C150 1.374 . S
C150 C121 1.387 . S
C150 H127 0.931 . S
C150 C149 1.374 . S
C151 O135 1.249 . S
C151 O136 1.264 . S
C152 C155 1.382 . S
C152 C156 1.390 . S
C152 C159 1.506 . S
C153 C154 1.398 . S
C153 C156 1.392 . S
C154 C153 1.398 . S
C154 C157 1.372 . S
C154 H164 0.931 . S
C155 C152 1.382 . S
C155 C157 1.390 . S
C155 H165 0.931 . S
C156 C152 1.390 . S
C156 C153 1.392 . S
C156 H166 0.930 . S
C157 C154 1.372 . S
C157 C155 1.390 . S
C157 H167 0.929 . S
C158 O138 1.255 . S
C158 O139 1.257 . S
C159 Eu95 2.787 . S
C159 O134 1.252 . S
C159 O137 1.268 . S
C159 C152 1.506 . S
H160 C143 0.931 . S
H161 C144 0.931 . S
H162 C145 0.929 . S
H163 C146 0.930 . S
H164 C154 0.931 . S
H165 C155 0.931 . S
H166 C156 0.930 . S
H167 C157 0.929 . S
Eu168 N197 2.600 . S
Eu168 N203 2.562 . S
Eu168 O212 2.462 . S
Eu168 O213 2.373 . S
Eu168 O215 2.432 . S
Eu168 O216 2.291 . S
Eu168 O220 2.335 . S
Eu168 O223 2.372 . S
Eu168 C232 2.787 . S
C169 N170 1.365 . S
C169 C172 1.405 . S
C169 C176 1.448 . S
N170 C169 1.365 . S
N170 C173 1.319 . S
N170 Eu179 2.600 . S
C171 C173 1.397 . S
C171 C174 1.367 . S
C171 H191 0.931 . S
C172 C169 1.405 . S
C172 C174 1.403 . S
C172 C178 1.439 . S
C173 N170 1.319 . S
C173 C171 1.397 . S
C173 H184 0.930 . S
C174 C171 1.367 . S
C174 C172 1.403 . S
C174 H195 0.929 . S
C175 C176 1.430 . S
C175 C177 1.387 . S
C175 C181 1.404 . S
C176 C169 1.448 . S
C176 C175 1.430 . S
C176 N180 1.351 . S
C177 C175 1.387 . S
C177 C178 1.374 . S
C177 H192 0.931 . S
C178 C172 1.439 . S
C178 C177 1.374 . S
C178 H193 0.931 . S
Eu179 N170 2.600 . S
Eu179 N180 2.562 . S
Eu179 O214 2.335 . S
Eu179 O217 2.372 . S
Eu179 O218 2.462 . S
Eu179 O219 2.373 . S
Eu179 O221 2.432 . S
Eu179 O222 2.291 . S
Eu179 C243 2.787 . S
N180 C176 1.351 . S
N180 Eu179 2.562 . S
N180 C182 1.325 . S
C181 C175 1.404 . S
C181 C183 1.366 . S
C181 H189 0.930 . S
C182 N180 1.325 . S
C182 C183 1.416 . S
C182 H188 0.929 . S
C183 C181 1.366 . S
C183 C182 1.416 . S
C183 H185 0.930 . S
H184 C173 0.930 . S
H185 C183 0.930 . S
H186 C201 0.930 . S
H187 C208 0.930 . S
H188 C182 0.929 . S
H189 C181 0.930 . S
H190 C204 0.929 . S
H191 C171 0.931 . S
H192 C177 0.931 . S
H193 C178 0.931 . S
H194 C199 0.931 . S
H195 C174 0.929 . S
H196 C207 0.930 . S
N197 Eu168 2.600 . S
N197 C198 1.365 . S
N197 C201 1.319 . S
C198 N197 1.365 . S
C198 C200 1.405 . S
C198 C206 1.448 . S
C199 H194 0.931 . S
C199 C201 1.397 . S
C199 C202 1.367 . S
C200 C198 1.405 . S
C200 C202 1.403 . S
C200 C233 1.439 . S
C201 H186 0.930 . S
C201 N197 1.319 . S
C201 C199 1.397 . S
C202 C199 1.367 . S
C202 C200 1.403 . S
C202 H209 0.929 . S
N203 Eu168 2.562 . S
N203 C204 1.325 . S
N203 C206 1.351 . S
C204 H190 0.929 . S
C204 N203 1.325 . S
C204 C208 1.416 . S
C205 C206 1.430 . S
C205 C207 1.404 . S
C205 C234 1.387 . S
C206 C198 1.448 . S
C206 N203 1.351 . S
C206 C205 1.430 . S
C207 H196 0.930 . S
C207 C205 1.404 . S
C207 C208 1.366 . S
C208 H187 0.930 . S
C208 C204 1.416 . S
C208 C207 1.366 . S
H209 C202 0.929 . S
H210 C233 0.931 . S
H211 C234 0.931 . S
O212 Eu168 2.462 . S
O212 C232 1.252 . S
O213 Eu168 2.373 . S
O213 C224 1.249 . S
O214 Eu179 2.335 . S
O214 C224 1.264 . S
O215 Eu168 2.432 . S
O215 C232 1.268 . S
O216 Eu168 2.291 . S
O216 C231 1.255 . S
O217 Eu179 2.372 . S
O217 C231 1.257 . S
O218 Eu179 2.462 . S
O218 C243 1.252 . S
O219 Eu179 2.373 . S
O219 C235 1.249 . S
O220 Eu168 2.335 . S
O220 C235 1.264 . S
O221 Eu179 2.432 . S
O221 C243 1.268 . S
O222 Eu179 2.291 . S
O222 C242 1.255 . S
O223 Eu168 2.372 . S
O223 C242 1.257 . S
C224 O213 1.249 . S
C224 O214 1.264 . S
C225 C228 1.382 . S
C225 C230 1.390 . S
C225 C232 1.506 . S
C226 C227 1.398 . S
C226 C230 1.392 . S
C227 C226 1.398 . S
C227 C229 1.372 . S
C227 H244 0.931 . S
C228 C225 1.382 . S
C228 C229 1.390 . S
C228 H245 0.931 . S
C229 C227 1.372 . S
C229 C228 1.390 . S
C229 H246 0.929 . S
C230 C225 1.390 . S
C230 C226 1.392 . S
C230 H247 0.930 . S
C231 O216 1.255 . S
C231 O217 1.257 . S
C232 Eu168 2.787 . S
C232 O212 1.252 . S
C232 O215 1.268 . S
C232 C225 1.506 . S
C233 C200 1.439 . S
C233 H210 0.931 . S
C233 C234 1.374 . S
C234 C205 1.387 . S
C234 H211 0.931 . S
C234 C233 1.374 . S
C235 O219 1.249 . S
C235 O220 1.264 . S
C236 C239 1.382 . S
C236 C240 1.390 . S
C236 C243 1.506 . S
C237 C238 1.398 . S
C237 C240 1.392 . S
C238 C237 1.398 . S
C238 C241 1.372 . S
C238 H248 0.931 . S
C239 C236 1.382 . S
C239 C241 1.390 . S
C239 H249 0.931 . S
C240 C236 1.390 . S
C240 C237 1.392 . S
C240 H250 0.930 . S
C241 C238 1.372 . S
C241 C239 1.390 . S
C241 H251 0.929 . S
C242 O222 1.255 . S
C242 O223 1.257 . S
C243 Eu179 2.787 . S
C243 O218 1.252 . S
C243 O221 1.268 . S
C243 C236 1.506 . S
H244 C227 0.931 . S
H245 C228 0.931 . S
H246 C229 0.929 . S
H247 C230 0.930 . S
H248 C238 0.931 . S
H249 C239 0.931 . S
H250 C240 0.930 . S
H251 C241 0.929 . S
Eu252 N281 2.600 . S
Eu252 N287 2.562 . S
Eu252 O296 2.462 . S
Eu252 O297 2.373 . S
Eu252 O299 2.432 . S
Eu252 O300 2.291 . S
Eu252 O304 2.335 . S
Eu252 O307 2.372 . S
Eu252 C316 2.787 . S
C253 N254 1.365 . S
C253 C256 1.405 . S
C253 C260 1.448 . S
N254 C253 1.365 . S
N254 C257 1.319 . S
N254 Eu263 2.600 . S
C255 C257 1.397 . S
C255 C258 1.367 . S
C255 H275 0.931 . S
C256 C253 1.405 . S
C256 C258 1.403 . S
C256 C262 1.439 . S
C257 N254 1.319 . S
C257 C255 1.397 . S
C257 H268 0.930 . S
C258 C255 1.367 . S
C258 C256 1.403 . S
C258 H279 0.929 . S
C259 C260 1.430 . S
C259 C261 1.387 . S
C259 C265 1.404 . S
C260 C253 1.448 . S
C260 C259 1.430 . S
C260 N264 1.351 . S
C261 C259 1.387 . S
C261 C262 1.374 . S
C261 H276 0.931 . S
C262 C256 1.439 . S
C262 C261 1.374 . S
C262 H277 0.931 . S
Eu263 N254 2.600 . S
Eu263 N264 2.562 . S
Eu263 O298 2.335 . S
Eu263 O301 2.372 1_556 S
Eu263 O302 2.462 . S
Eu263 O303 2.373 1_556 S
Eu263 O305 2.432 . S
Eu263 O306 2.291 . S
Eu263 C327 2.787 . S
N264 C260 1.351 . S
N264 Eu263 2.562 . S
N264 C266 1.325 . S
C265 C259 1.404 . S
C265 C267 1.366 . S
C265 H273 0.930 . S
C266 N264 1.325 . S
C266 C267 1.416 . S
C266 H272 0.929 . S
C267 C265 1.366 . S
C267 C266 1.416 . S
C267 H269 0.930 . S
H268 C257 0.930 . S
H269 C267 0.930 . S
H270 C285 0.930 . S
H271 C292 0.930 . S
H272 C266 0.929 . S
H273 C265 0.930 . S
H274 C288 0.929 . S
H275 C255 0.931 . S
H276 C261 0.931 . S
H277 C262 0.931 . S
H278 C283 0.931 . S
H279 C258 0.929 . S
H280 C291 0.930 . S
N281 Eu252 2.600 . S
N281 C282 1.365 . S
N281 C285 1.319 . S
C282 N281 1.365 . S
C282 C284 1.405 . S
C282 C290 1.448 . S
C283 H278 0.931 . S
C283 C285 1.397 . S
C283 C286 1.367 . S
C284 C282 1.405 . S
C284 C286 1.403 . S
C284 C317 1.439 . S
C285 H270 0.930 . S
C285 N281 1.319 . S
C285 C283 1.397 . S
C286 C283 1.367 . S
C286 C284 1.403 . S
C286 H293 0.929 . S
N287 Eu252 2.562 . S
N287 C288 1.325 . S
N287 C290 1.351 . S
C288 H274 0.929 . S
C288 N287 1.325 . S
C288 C292 1.416 . S
C289 C290 1.430 . S
C289 C291 1.404 . S
C289 C318 1.387 . S
C290 C282 1.448 . S
C290 N287 1.351 . S
C290 C289 1.430 . S
C291 H280 0.930 . S
C291 C289 1.404 . S
C291 C292 1.366 . S
C292 H271 0.930 . S
C292 C288 1.416 . S
C292 C291 1.366 . S
H293 C286 0.929 . S
H294 C317 0.931 . S
H295 C318 0.931 . S
O296 Eu252 2.462 . S
O296 C316 1.252 . S
O297 Eu252 2.373 . S
O297 C308 1.249 1_554 S
O298 Eu263 2.335 . S
O298 C308 1.264 . S
O299 Eu252 2.432 . S
O299 C316 1.268 . S
O300 Eu252 2.291 . S
O300 C315 1.255 . S
O301 Eu263 2.372 1_554 S
O301 C315 1.257 . S
O302 Eu263 2.462 . S
O302 C327 1.252 . S
O303 Eu263 2.373 1_554 S
O303 C319 1.249 . S
O304 Eu252 2.335 . S
O304 C319 1.264 . S
O305 Eu263 2.432 . S
O305 C327 1.268 . S
O306 Eu263 2.291 . S
O306 C326 1.255 . S
O307 Eu252 2.372 . S
O307 C326 1.257 1_554 S
C308 O297 1.249 1_556 S
C308 O298 1.264 . S
C309 C312 1.382 . S
C309 C314 1.390 . S
C309 C316 1.506 . S
C310 C311 1.398 . S
C310 C314 1.392 . S
C311 C310 1.398 . S
C311 C313 1.372 . S
C311 H328 0.931 . S
C312 C309 1.382 . S
C312 C313 1.390 . S
C312 H329 0.931 . S
C313 C311 1.372 . S
C313 C312 1.390 . S
C313 H330 0.929 . S
C314 C309 1.390 . S
C314 C310 1.392 . S
C314 H331 0.930 . S
C315 O300 1.255 . S
C315 O301 1.257 . S
C316 Eu252 2.787 . S
C316 O296 1.252 . S
C316 O299 1.268 . S
C316 C309 1.506 . S
C317 C284 1.439 . S
C317 H294 0.931 . S
C317 C318 1.374 . S
C318 C289 1.387 . S
C318 H295 0.931 . S
C318 C317 1.374 . S
C319 O303 1.249 . S
C319 O304 1.264 . S
C320 C323 1.382 . S
C320 C324 1.390 . S
C320 C327 1.506 . S
C321 C322 1.398 . S
C321 C324 1.392 . S
C322 C321 1.398 . S
C322 C325 1.372 . S
C322 H332 0.931 . S
C323 C320 1.382 . S
C323 C325 1.390 . S
C323 H333 0.931 . S
C324 C320 1.390 . S
C324 C321 1.392 . S
C324 H334 0.930 . S
C325 C322 1.372 . S
C325 C323 1.390 . S
C325 H335 0.929 . S
C326 O306 1.255 . S
C326 O307 1.257 1_556 S
C327 Eu263 2.787 . S
C327 O302 1.252 . S
C327 O305 1.268 . S
C327 C320 1.506 . S
H328 C311 0.931 . S
H329 C312 0.931 . S
H330 C313 0.929 . S
H331 C314 0.930 . S
H332 C322 0.931 . S
H333 C323 0.931 . S
H334 C324 0.930 . S
H335 C325 0.929 . S
Eu336 N365 2.600 . S
Eu336 N371 2.562 . S
Eu336 O380 2.462 . S
Eu336 O381 2.373 . S
Eu336 O383 2.432 . S
Eu336 O384 2.291 . S
Eu336 O388 2.335 . S
Eu336 O391 2.372 . S
Eu336 C400 2.787 . S
C337 N338 1.365 . S
C337 C340 1.405 . S
C337 C344 1.448 . S
N338 C337 1.365 . S
N338 C341 1.319 . S
N338 Eu347 2.600 . S
C339 C341 1.397 . S
C339 C342 1.367 . S
C339 H359 0.931 . S
C340 C337 1.405 . S
C340 C342 1.403 . S
C340 C346 1.439 . S
C341 N338 1.319 . S
C341 C339 1.397 . S
C341 H352 0.930 . S
C342 C339 1.367 . S
C342 C340 1.403 . S
C342 H363 0.929 . S
C343 C344 1.430 . S
C343 C345 1.387 . S
C343 C349 1.404 . S
C344 C337 1.448 . S
C344 C343 1.430 . S
C344 N348 1.351 . S
C345 C343 1.387 . S
C345 C346 1.374 . S
C345 H360 0.931 . S
C346 C340 1.439 . S
C346 C345 1.374 . S
C346 H361 0.931 . S
Eu347 N338 2.600 . S
Eu347 N348 2.562 . S
Eu347 O382 2.335 . S
Eu347 O385 2.372 . S
Eu347 O386 2.462 . S
Eu347 O387 2.373 . S
Eu347 O389 2.432 . S
Eu347 O390 2.291 . S
Eu347 C411 2.787 . S
N348 C344 1.351 . S
N348 Eu347 2.562 . S
N348 C350 1.325 . S
C349 C343 1.404 . S
C349 C351 1.366 . S
C349 H357 0.930 . S
C350 N348 1.325 . S
C350 C351 1.416 . S
C350 H356 0.929 . S
C351 C349 1.366 . S
C351 C350 1.416 . S
C351 H353 0.930 . S
H352 C341 0.930 . S
H353 C351 0.930 . S
H354 C369 0.930 . S
H355 C376 0.930 . S
H356 C350 0.929 . S
H357 C349 0.930 . S
H358 C372 0.929 . S
H359 C339 0.931 . S
H360 C345 0.931 . S
H361 C346 0.931 . S
H362 C367 0.931 . S
H363 C342 0.929 . S
H364 C375 0.930 . S
N365 Eu336 2.600 . S
N365 C366 1.365 . S
N365 C369 1.319 . S
C366 N365 1.365 . S
C366 C368 1.405 . S
C366 C374 1.448 . S
C367 H362 0.931 . S
C367 C369 1.397 . S
C367 C370 1.367 . S
C368 C366 1.405 . S
C368 C370 1.403 . S
C368 C401 1.439 . S
C369 H354 0.930 . S
C369 N365 1.319 . S
C369 C367 1.397 . S
C370 C367 1.367 . S
C370 C368 1.403 . S
C370 H377 0.929 . S
N371 Eu336 2.562 . S
N371 C372 1.325 . S
N371 C374 1.351 . S
C372 H358 0.929 . S
C372 N371 1.325 . S
C372 C376 1.416 . S
C373 C374 1.430 . S
C373 C375 1.404 . S
C373 C402 1.387 . S
C374 C366 1.448 . S
C374 N371 1.351 . S
C374 C373 1.430 . S
C375 H364 0.930 . S
C375 C373 1.404 . S
C375 C376 1.366 . S
C376 H355 0.930 . S
C376 C372 1.416 . S
C376 C375 1.366 . S
H377 C370 0.929 . S
H378 C401 0.931 . S
H379 C402 0.931 . S
O380 Eu336 2.462 . S
O380 C400 1.252 . S
O381 Eu336 2.373 . S
O381 C392 1.249 . S
O382 Eu347 2.335 . S
O382 C392 1.264 . S
O383 Eu336 2.432 . S
O383 C400 1.268 . S
O384 Eu336 2.291 . S
O384 C399 1.255 . S
O385 Eu347 2.372 . S
O385 C399 1.257 . S
O386 Eu347 2.462 . S
O386 C411 1.252 . S
O387 Eu347 2.373 . S
O387 C403 1.249 . S
O388 Eu336 2.335 . S
O388 C403 1.264 . S
O389 Eu347 2.432 . S
O389 C411 1.268 . S
O390 Eu347 2.291 . S
O390 C410 1.255 . S
O391 Eu336 2.372 . S
O391 C410 1.257 . S
C392 O381 1.249 . S
C392 O382 1.264 . S
C393 C396 1.382 . S
C393 C398 1.390 . S
C393 C400 1.506 . S
C394 C395 1.398 . S
C394 C398 1.392 . S
C395 C394 1.398 . S
C395 C397 1.372 . S
C395 H412 0.931 . S
C396 C393 1.382 . S
C396 C397 1.390 . S
C396 H413 0.931 . S
C397 C395 1.372 . S
C397 C396 1.390 . S
C397 H414 0.929 . S
C398 C393 1.390 . S
C398 C394 1.392 . S
C398 H415 0.930 . S
C399 O384 1.255 . S
C399 O385 1.257 . S
C400 Eu336 2.787 . S
C400 O380 1.252 . S
C400 O383 1.268 . S
C400 C393 1.506 . S
C401 C368 1.439 . S
C401 H378 0.931 . S
C401 C402 1.374 . S
C402 C373 1.387 . S
C402 H379 0.931 . S
C402 C401 1.374 . S
C403 O387 1.249 . S
C403 O388 1.264 . S
C404 C407 1.382 . S
C404 C408 1.390 . S
C404 C411 1.506 . S
C405 C406 1.398 . S
C405 C408 1.392 . S
C406 C405 1.398 . S
C406 C409 1.372 . S
C406 H416 0.931 . S
C407 C404 1.382 . S
C407 C409 1.390 . S
C407 H417 0.931 . S
C408 C404 1.390 . S
C408 C405 1.392 . S
C408 H418 0.930 . S
C409 C406 1.372 . S
C409 C407 1.390 . S
C409 H419 0.929 . S
C410 O390 1.255 . S
C410 O391 1.257 . S
C411 Eu347 2.787 . S
C411 O386 1.252 . S
C411 O389 1.268 . S
C411 C404 1.506 . S
H412 C395 0.931 . S
H413 C396 0.931 . S
H414 C397 0.929 . S
H415 C398 0.930 . S
H416 C406 0.931 . S
H417 C407 0.931 . S
H418 C408 0.930 . S
H419 C409 0.929 . S
Eu420 N449 2.600 . S
Eu420 N455 2.562 . S
Eu420 O464 2.462 . S
Eu420 O465 2.373 . S
Eu420 O467 2.432 . S
Eu420 O468 2.291 . S
Eu420 O472 2.335 . S
Eu420 O475 2.372 . S
Eu420 C484 2.787 . S
C421 N422 1.365 . S
C421 C424 1.405 . S
C421 C428 1.448 . S
N422 C421 1.365 . S
N422 C425 1.319 . S
N422 Eu431 2.600 . S
C423 C425 1.397 . S
C423 C426 1.367 . S
C423 H443 0.931 . S
C424 C421 1.405 . S
C424 C426 1.403 . S
C424 C430 1.439 . S
C425 N422 1.319 . S
C425 C423 1.397 . S
C425 H436 0.930 . S
C426 C423 1.367 . S
C426 C424 1.403 . S
C426 H447 0.929 . S
C427 C428 1.430 . S
C427 C429 1.387 . S
C427 C433 1.404 . S
C428 C421 1.448 . S
C428 C427 1.430 . S
C428 N432 1.351 . S
C429 C427 1.387 . S
C429 C430 1.374 . S
C429 H444 0.931 . S
C430 C424 1.439 . S
C430 C429 1.374 . S
C430 H445 0.931 . S
Eu431 N422 2.600 . S
Eu431 N432 2.562 . S
Eu431 O466 2.335 . S
Eu431 O469 2.372 . S
Eu431 O470 2.462 . S
Eu431 O471 2.373 . S
Eu431 O473 2.432 . S
Eu431 O474 2.291 . S
Eu431 C495 2.787 . S
N432 C428 1.351 . S
N432 Eu431 2.562 . S
N432 C434 1.325 . S
C433 C427 1.404 . S
C433 C435 1.366 . S
C433 H441 0.930 . S
C434 N432 1.325 . S
C434 C435 1.416 . S
C434 H440 0.929 . S
C435 C433 1.366 . S
C435 C434 1.416 . S
C435 H437 0.930 . S
H436 C425 0.930 . S
H437 C435 0.930 . S
H438 C453 0.930 . S
H439 C460 0.930 . S
H440 C434 0.929 . S
H441 C433 0.930 . S
H442 C456 0.929 . S
H443 C423 0.931 . S
H444 C429 0.931 . S
H445 C430 0.931 . S
H446 C451 0.931 . S
H447 C426 0.929 . S
H448 C459 0.930 . S
N449 Eu420 2.600 . S
N449 C450 1.365 . S
N449 C453 1.319 . S
C450 N449 1.365 . S
C450 C452 1.405 . S
C450 C458 1.448 . S
C451 H446 0.931 . S
C451 C453 1.397 . S
C451 C454 1.367 . S
C452 C450 1.405 . S
C452 C454 1.403 . S
C452 C485 1.439 . S
C453 H438 0.930 . S
C453 N449 1.319 . S
C453 C451 1.397 . S
C454 C451 1.367 . S
C454 C452 1.403 . S
C454 H461 0.929 . S
N455 Eu420 2.562 . S
N455 C456 1.325 . S
N455 C458 1.351 . S
C456 H442 0.929 . S
C456 N455 1.325 . S
C456 C460 1.416 . S
C457 C458 1.430 . S
C457 C459 1.404 . S
C457 C486 1.387 . S
C458 C450 1.448 . S
C458 N455 1.351 . S
C458 C457 1.430 . S
C459 H448 0.930 . S
C459 C457 1.404 . S
C459 C460 1.366 . S
C460 H439 0.930 . S
C460 C456 1.416 . S
C460 C459 1.366 . S
H461 C454 0.929 . S
H462 C485 0.931 . S
H463 C486 0.931 . S
O464 Eu420 2.462 . S
O464 C484 1.252 . S
O465 Eu420 2.373 . S
O465 C476 1.249 . S
O466 Eu431 2.335 . S
O466 C476 1.264 . S
O467 Eu420 2.432 . S
O467 C484 1.268 . S
O468 Eu420 2.291 . S
O468 C483 1.255 . S
O469 Eu431 2.372 . S
O469 C483 1.257 . S
O470 Eu431 2.462 . S
O470 C495 1.252 . S
O471 Eu431 2.373 . S
O471 C487 1.249 . S
O472 Eu420 2.335 . S
O472 C487 1.264 . S
O473 Eu431 2.432 . S
O473 C495 1.268 . S
O474 Eu431 2.291 . S
O474 C494 1.255 . S
O475 Eu420 2.372 . S
O475 C494 1.257 . S
C476 O465 1.249 . S
C476 O466 1.264 . S
C477 C480 1.382 . S
C477 C482 1.390 . S
C477 C484 1.506 . S
C478 C479 1.398 . S
C478 C482 1.392 . S
C479 C478 1.398 . S
C479 C481 1.372 . S
C479 H496 0.932 1_556 S
C480 C477 1.382 . S
C480 C481 1.390 . S
C480 H497 0.931 . S
C481 C479 1.372 . S
C481 C480 1.390 . S
C481 H498 0.929 . S
C482 C477 1.390 . S
C482 C478 1.392 . S
C482 H499 0.930 . S
C483 O468 1.255 . S
C483 O469 1.257 . S
C484 Eu420 2.787 . S
C484 O464 1.252 . S
C484 O467 1.268 . S
C484 C477 1.506 . S
C485 C452 1.439 . S
C485 H462 0.931 . S
C485 C486 1.374 . S
C486 C457 1.387 . S
C486 H463 0.931 . S
C486 C485 1.374 . S
C487 O471 1.249 . S
C487 O472 1.264 . S
C488 C491 1.382 . S
C488 C492 1.390 . S
C488 C495 1.506 . S
C489 C490 1.398 . S
C489 C492 1.392 . S
C490 C489 1.398 . S
C490 C493 1.372 . S
C490 H500 0.931 . S
C491 C488 1.382 . S
C491 C493 1.390 . S
C491 H501 0.931 . S
C492 C488 1.390 . S
C492 C489 1.392 . S
C492 H502 0.930 . S
C493 C490 1.372 . S
C493 C491 1.390 . S
C493 H503 0.929 . S
C494 O474 1.255 . S
C494 O475 1.257 . S
C495 Eu431 2.787 . S
C495 O470 1.252 . S
C495 O473 1.268 . S
C495 C488 1.506 . S
H496 C479 0.932 1_554 S
H497 C480 0.931 . S
H498 C481 0.929 . S
H499 C482 0.930 . S
H500 C490 0.931 . S
H501 C491 0.931 . S
H502 C492 0.930 . S
H503 C493 0.929 . S
H504 C512 0.929 . S
H505 C514 0.930 . S
H506 C516 0.930 . S
H507 C519 0.929 . S
H508 C522 0.930 . S
H509 C524 0.960 . S
H510 C524 0.960 . S
H511 C524 0.960 . S
C512 H504 0.929 . S
C512 C513 1.377 . S
C512 C514 1.384 . S
C513 C512 1.377 . S
C513 C519 1.390 . S
C514 H505 0.930 . S
C514 C512 1.384 . S
C514 C515 1.372 . S
C515 C514 1.372 . S
C515 C516 1.400 . S
C515 C520 1.490 . S
C516 H506 0.930 . S
C516 C515 1.400 . S
C516 C519 1.386 . S
H517 C533 0.930 . S
H518 C534 0.931 . S
C519 H507 0.929 . S
C519 C513 1.390 . S
C519 C516 1.386 . S
C520 C515 1.490 . S
C520 C522 1.395 . S
C520 C523 1.403 . S
H521 C527 0.930 . S
C522 H508 0.930 . S
C522 C520 1.395 . S
C522 C525 1.403 . S
C523 C520 1.403 . S
C523 C524 1.524 . S
C523 C527 1.400 . S
C524 H509 0.960 . S
C524 H510 0.960 . S
C524 H511 0.960 . S
C524 C523 1.524 . S
C525 C522 1.403 . S
C525 C526 1.392 . S
C525 C529 1.495 . S
C526 C525 1.392 . S
C526 C527 1.385 . S
C526 C528 1.478 . S
C527 H521 0.930 . S
C527 C523 1.400 . S
C527 C526 1.385 . S
C528 C526 1.478 . S
C528 C530 1.381 . S
C528 C534 1.383 . S
C529 C525 1.495 . S
C529 H535 0.959 . S
C529 H536 0.961 . S
C529 H537 0.960 . S
C530 C528 1.381 . S
C530 C531 1.394 . S
C530 H538 0.930 . S
C531 C530 1.394 . S
C531 C532 1.383 . S
C531 H539 0.929 . S
C532 C531 1.383 . S
C532 C533 1.377 . S
C533 H517 0.930 . S
C533 C532 1.377 . S
C533 C534 1.379 . S
C534 H518 0.931 . S
C534 C528 1.383 . S
C534 C533 1.379 . S
H535 C529 0.959 . S
H536 C529 0.961 . S
H537 C529 0.960 . S
H538 C530 0.930 . S
H539 C531 0.929 . S
H540 C548 0.929 . S
H541 C550 0.930 . S
H542 C552 0.930 . S
H543 C555 0.929 . S
H544 C558 0.930 . S
H545 C560 0.960 . S
H546 C560 0.960 . S
H547 C560 0.960 1_455 S
C548 H540 0.929 . S
C548 C549 1.377 . S
C548 C550 1.384 . S
C549 C548 1.377 . S
C549 C555 1.390 . S
C550 H541 0.930 . S
C550 C548 1.384 . S
C550 C551 1.372 . S
C551 C550 1.372 . S
C551 C552 1.400 . S
C551 C556 1.490 . S
C552 H542 0.930 . S
C552 C551 1.400 . S
C552 C555 1.386 . S
H553 C569 0.930 . S
H554 C570 0.931 . S
C555 H543 0.929 . S
C555 C549 1.390 . S
C555 C552 1.386 . S
C556 C551 1.490 . S
C556 C558 1.395 . S
C556 C559 1.403 1_455 S
H557 C563 0.930 . S
C558 H544 0.930 . S
C558 C556 1.395 . S
C558 C561 1.403 . S
C559 C556 1.403 1_655 S
C559 C560 1.524 . S
C559 C563 1.400 . S
C560 H545 0.960 . S
C560 H546 0.960 . S
C560 H547 0.960 1_655 S
C560 C559 1.524 . S
C561 C558 1.403 . S
C561 C562 1.392 1_455 S
C561 C565 1.495 . S
C562 C561 1.392 1_655 S
C562 C563 1.385 . S
C562 C564 1.478 . S
C563 H557 0.930 . S
C563 C559 1.400 . S
C563 C562 1.385 . S
C564 C562 1.478 . S
C564 C566 1.381 . S
C564 C570 1.383 . S
C565 C561 1.495 . S
C565 H571 0.959 . S
C565 H572 0.961 . S
C565 H573 0.960 1_455 S
C566 C564 1.381 . S
C566 C567 1.394 . S
C566 H574 0.930 . S
C567 C566 1.394 . S
C567 C568 1.383 . S
C567 H575 0.929 . S
C568 C567 1.383 . S
C568 C569 1.377 . S
C569 H553 0.930 . S
C569 C568 1.377 . S
C569 C570 1.379 . S
C570 H554 0.931 . S
C570 C564 1.383 . S
C570 C569 1.379 . S
H571 C565 0.959 . S
H572 C565 0.961 . S
H573 C565 0.960 1_655 S
H574 C566 0.930 . S
H575 C567 0.929 . S
H576 C584 0.929 . S
H577 C586 0.930 . S
H578 C588 0.930 . S
H579 C591 0.929 . S
H580 C594 0.930 . S
H581 C596 0.960 1_565 S
H582 C596 0.960 . S
H583 C596 0.960 . S
C584 H576 0.929 . S
C584 C585 1.377 . S
C584 C586 1.384 . S
C585 C584 1.377 . S
C585 C591 1.390 . S
C586 H577 0.930 . S
C586 C584 1.384 . S
C586 C587 1.372 . S
C587 C586 1.372 . S
C587 C588 1.400 . S
C587 C592 1.490 . S
C588 H578 0.930 . S
C588 C587 1.400 . S
C588 C591 1.386 . S
H589 C605 0.930 . S
H590 C606 0.931 . S
C591 H579 0.929 . S
C591 C585 1.390 . S
C591 C588 1.386 . S
C592 C587 1.490 . S
C592 C594 1.395 . S
C592 C595 1.403 . S
H593 C599 0.930 . S
C594 H580 0.930 . S
C594 C592 1.395 . S
C594 C597 1.380 1_545 S
C595 C592 1.403 . S
C595 C596 1.524 . S
C595 C599 1.400 1_545 S
C596 H581 0.960 1_545 S
C596 H582 0.960 . S
C596 H583 0.960 . S
C596 C595 1.524 . S
C597 C594 1.380 1_565 S
C597 C598 1.426 . S
C597 C601 1.485 . S
C598 C597 1.426 . S
C598 C599 1.385 . S
C598 C600 1.478 . S
C599 H593 0.930 . S
C599 C595 1.400 1_565 S
C599 C598 1.385 . S
C600 C598 1.478 . S
C600 C602 1.381 . S
C600 C606 1.383 . S
C601 C597 1.485 . S
C601 H607 0.959 1_565 S
C601 H608 0.961 . S
C601 H609 0.960 . S
C602 C600 1.381 . S
C602 C603 1.394 . S
C602 H610 0.930 . S
C603 C602 1.394 . S
C603 C604 1.383 . S
C603 H611 0.929 . S
C604 C603 1.383 . S
C604 C605 1.377 . S
C605 H589 0.930 . S
C605 C604 1.377 . S
C605 C606 1.379 . S
C606 H590 0.931 . S
C606 C600 1.383 . S
C606 C605 1.379 . S
H607 C601 0.959 1_545 S
H608 C601 0.961 . S
H609 C601 0.960 . S
H610 C602 0.930 . S
H611 C603 0.929 . S
H612 C620 0.929 . S
H613 C622 0.930 . S
H614 C624 0.930 . S
H615 C627 0.929 . S
H616 C630 0.930 . S
H617 C632 0.960 . S
H618 C632 0.960 . S
H619 C632 0.960 . S
C620 H612 0.929 . S
C620 C621 1.377 . S
C620 C622 1.384 . S
C621 C620 1.377 . S
C621 C627 1.390 . S
C622 H613 0.930 . S
C622 C620 1.384 . S
C622 C623 1.372 . S
C623 C622 1.372 . S
C623 C624 1.400 . S
C623 C628 1.490 . S
C624 H614 0.930 . S
C624 C623 1.400 . S
C624 C627 1.386 . S
H625 C641 0.930 . S
H626 C642 0.931 . S
C627 H615 0.929 . S
C627 C621 1.390 . S
C627 C624 1.386 . S
C628 C623 1.490 . S
C628 C630 1.395 . S
C628 C631 1.403 . S
H629 C635 0.930 . S
C630 H616 0.930 . S
C630 C628 1.395 . S
C630 C633 1.403 . S
C631 C628 1.403 . S
C631 C632 1.524 . S
C631 C635 1.400 . S
C632 H617 0.960 . S
C632 H618 0.960 . S
C632 H619 0.960 . S
C632 C631 1.524 . S
C633 C630 1.403 . S
C633 C634 1.392 . S
C633 C637 1.495 . S
C634 C633 1.392 . S
C634 C635 1.385 . S
C634 C636 1.478 . S
C635 H629 0.930 . S
C635 C631 1.400 . S
C635 C634 1.385 . S
C636 C634 1.478 . S
C636 C638 1.381 . S
C636 C642 1.383 . S
C637 C633 1.495 . S
C637 H643 0.959 . S
C637 H644 0.961 . S
C637 H645 0.960 . S
C638 C636 1.381 . S
C638 C639 1.394 . S
C638 H646 0.930 . S
C639 C638 1.394 . S
C639 C640 1.383 . S
C639 H647 0.929 . S
C640 C639 1.383 . S
C640 C641 1.377 . S
C641 H625 0.930 . S
C641 C640 1.377 . S
C641 C642 1.379 . S
C642 H626 0.931 . S
C642 C636 1.383 . S
C642 C641 1.379 . S
H643 C637 0.959 . S
H644 C637 0.961 . S
H645 C637 0.960 . S
H646 C638 0.930 . S
H647 C639 0.929 . S
H648 C656 0.929 . S
H649 C658 0.930 . S
H650 C660 0.930 . S
H651 C663 0.929 . S
H652 C666 0.930 . S
H653 C668 0.960 . S
H654 C668 0.960 . S
H655 C668 0.960 . S
C656 H648 0.929 . S
C656 C657 1.377 . S
C656 C658 1.384 . S
C657 C656 1.377 . S
C657 C663 1.390 . S
C658 H649 0.930 . S
C658 C656 1.384 . S
C658 C659 1.372 . S
C659 C658 1.372 . S
C659 C660 1.400 . S
C659 C664 1.490 . S
C660 H650 0.930 . S
C660 C659 1.400 . S
C660 C663 1.386 . S
H661 C677 0.930 . S
H662 C678 0.931 . S
C663 H651 0.929 . S
C663 C657 1.390 . S
C663 C660 1.386 . S
C664 C659 1.490 . S
C664 C666 1.395 . S
C664 C667 1.403 . S
H665 C671 0.930 . S
C666 H652 0.930 . S
C666 C664 1.395 . S
C666 C669 1.403 1_455 S
C667 C664 1.403 . S
C667 C668 1.524 . S
C667 C671 1.400 1_455 S
C668 H653 0.960 . S
C668 H654 0.960 . S
C668 H655 0.960 . S
C668 C667 1.524 . S
C669 C666 1.403 1_655 S
C669 C670 1.392 . S
C669 C673 1.495 . S
C670 C669 1.392 . S
C670 C671 1.385 . S
C670 C672 1.478 . S
C671 H665 0.930 . S
C671 C667 1.400 1_655 S
C671 C670 1.385 . S
C672 C670 1.478 . S
C672 C674 1.381 . S
C672 C678 1.383 . S
C673 C669 1.495 . S
C673 H679 0.927 1_655 S
C673 H680 0.961 . S
C673 H681 0.960 . S
C674 C672 1.381 . S
C674 C675 1.394 . S
C674 H682 0.930 . S
C675 C674 1.394 . S
C675 C676 1.383 . S
C675 H683 0.929 . S
C676 C675 1.383 . S
C676 C677 1.377 . S
C677 H661 0.930 . S
C677 C676 1.377 . S
C677 C678 1.379 . S
C678 H662 0.931 . S
C678 C672 1.383 . S
C678 C677 1.379 . S
H679 C673 0.927 1_455 S
H680 C673 0.961 . S
H681 C673 0.960 . S
H682 C674 0.930 . S
H683 C675 0.929 . S
H684 C692 0.929 . S
H685 C694 0.930 . S
H686 C696 0.930 . S
H687 C699 0.929 . S
H688 C702 0.939 1_545 S
H689 C704 0.960 . S
H690 C704 0.960 . S
H691 C704 0.960 . S
C692 H684 0.929 . S
C692 C693 1.377 . S
C692 C694 1.384 . S
C693 C692 1.377 . S
C693 C699 1.390 . S
C694 H685 0.930 . S
C694 C692 1.384 . S
C694 C695 1.372 . S
C695 C694 1.372 . S
C695 C696 1.400 . S
C695 C700 1.490 . S
C696 H686 0.930 . S
C696 C695 1.400 . S
C696 C699 1.386 . S
H697 C713 0.930 . S
H698 C714 0.931 . S
C699 H687 0.929 . S
C699 C693 1.390 . S
C699 C696 1.386 . S
C700 C695 1.490 . S
C700 C702 1.383 1_545 S
C700 C703 1.403 . S
H701 C707 0.930 . S
C702 H688 0.939 1_565 S
C702 C700 1.383 1_565 S
C702 C705 1.413 . S
C703 C700 1.403 . S
C703 C704 1.524 . S
C703 C707 1.400 1_545 S
C704 H689 0.960 . S
C704 H690 0.960 . S
C704 H691 0.960 . S
C704 C703 1.524 . S
C705 C702 1.413 . S
C705 C706 1.392 . S
C705 C709 1.495 . S
C706 C705 1.392 . S
C706 C707 1.385 . S
C706 C708 1.478 . S
C707 H701 0.930 . S
C707 C703 1.400 1_565 S
C707 C706 1.385 . S
C708 C706 1.478 . S
C708 C710 1.381 . S
C708 C714 1.383 . S
C709 C705 1.495 . S
C709 H715 0.959 . S
C709 H716 0.961 . S
C709 H717 0.960 . S
C710 C708 1.381 . S
C710 C711 1.394 . S
C710 H718 0.930 . S
C711 C710 1.394 . S
C711 C712 1.383 . S
C711 H719 0.929 . S
C712 C711 1.383 . S
C712 C713 1.377 . S
C713 H697 0.930 . S
C713 C712 1.377 . S
C713 C714 1.379 . S
C714 H698 0.931 . S
C714 C708 1.383 . S
C714 C713 1.379 . S
H715 C709 0.959 . S
H716 C709 0.961 . S
H717 C709 0.960 . S
H718 C710 0.930 . S
H719 C711 0.929 . S
H720 C728 0.929 . S
H721 C730 0.930 . S
H722 C732 0.930 . S
H723 C735 0.929 . S
H724 C738 0.930 . S
H725 C740 0.960 . S
H726 C740 0.960 . S
H727 C740 0.960 . S
C728 H720 0.929 . S
C728 C729 1.377 . S
C728 C730 1.384 . S
C729 C728 1.377 . S
C729 C735 1.390 . S
C730 H721 0.930 . S
C730 C728 1.384 . S
C730 C731 1.372 . S
C731 C730 1.372 . S
C731 C732 1.400 . S
C731 C736 1.490 . S
C732 H722 0.930 . S
C732 C731 1.400 . S
C732 C735 1.386 . S
H733 C749 0.930 . S
H734 C750 0.931 . S
C735 H723 0.929 . S
C735 C729 1.390 . S
C735 C732 1.386 . S
C736 C731 1.490 . S
C736 C738 1.395 . S
C736 C739 1.403 . S
H737 C743 0.930 . S
C738 H724 0.930 . S
C738 C736 1.395 . S
C738 C741 1.403 . S
C739 C736 1.403 . S
C739 C740 1.524 . S
C739 C743 1.400 . S
C740 H725 0.960 . S
C740 H726 0.960 . S
C740 H727 0.960 . S
C740 C739 1.524 . S
C741 C738 1.403 . S
C741 C742 1.392 . S
C741 C745 1.495 . S
C742 C741 1.392 . S
C742 C743 1.385 . S
C742 C744 1.478 . S
C743 H737 0.930 . S
C743 C739 1.400 . S
C743 C742 1.385 . S
C744 C742 1.478 . S
C744 C746 1.381 . S
C744 C750 1.383 . S
C745 C741 1.495 . S
C745 H751 0.959 . S
C745 H752 0.961 . S
C745 H753 0.960 . S
C746 C744 1.381 . S
C746 C747 1.394 . S
C746 H754 0.930 . S
C747 C746 1.394 . S
C747 C748 1.383 . S
C747 H755 0.929 . S
C748 C747 1.383 . S
C748 C749 1.377 . S
C749 H733 0.930 . S
C749 C748 1.377 . S
C749 C750 1.379 . S
C750 H734 0.931 . S
C750 C744 1.383 . S
C750 C749 1.379 . S
H751 C745 0.959 . S
H752 C745 0.961 . S
H753 C745 0.960 . S
H754 C746 0.930 . S
H755 C747 0.929 . S
H756 C764 0.929 . S
H757 C766 0.930 . S
H758 C768 0.930 . S
H759 C771 0.929 . S
H760 C774 0.930 . S
H761 C776 0.960 . S
H762 C776 0.960 . S
H763 C776 0.960 . S
C764 H756 0.929 . S
C764 C765 1.377 . S
C764 C766 1.384 1_554 S
C765 C764 1.377 . S
C765 C771 1.390 . S
C766 H757 0.930 . S
C766 C764 1.384 1_556 S
C766 C767 1.372 . S
C767 C766 1.372 . S
C767 C768 1.400 . S
C767 C772 1.490 . S
C768 H758 0.930 . S
C768 C767 1.400 . S
C768 C771 1.386 1_556 S
H769 C785 0.930 . S
H770 C786 0.931 . S
C771 H759 0.929 . S
C771 C765 1.390 . S
C771 C768 1.386 1_554 S
C772 C767 1.490 . S
C772 C774 1.395 . S
C772 C775 1.403 . S
H773 C779 0.930 . S
C774 H760 0.930 . S
C774 C772 1.395 . S
C774 C777 1.403 . S
C775 C772 1.403 . S
C775 C776 1.524 . S
C775 C779 1.400 . S
C776 H761 0.960 . S
C776 H762 0.960 . S
C776 H763 0.960 . S
C776 C775 1.524 . S
C777 C774 1.403 . S
C777 C778 1.392 . S
C777 C781 1.495 . S
C778 C777 1.392 . S
C778 C779 1.385 . S
C778 C780 1.478 . S
C779 H773 0.930 . S
C779 C775 1.400 . S
C779 C778 1.385 . S
C780 C778 1.478 . S
C780 C782 1.381 . S
C780 C786 1.383 . S
C781 C777 1.495 . S
C781 H787 0.959 . S
C781 H788 0.961 . S
C781 H789 0.960 . S
C782 C780 1.381 . S
C782 C783 1.394 . S
C782 H790 0.930 . S
C783 C782 1.394 . S
C783 C784 1.383 . S
C783 H791 0.929 . S
C784 C783 1.383 . S
C784 C785 1.377 . S
C785 H769 0.930 . S
C785 C784 1.377 . S
C785 C786 1.379 . S
C786 H770 0.931 . S
C786 C780 1.383 . S
C786 C785 1.379 . S
H787 C781 0.959 . S
H788 C781 0.961 . S
H789 C781 0.960 . S
H790 C782 0.930 . S
H791 C783 0.929 . S
H792 C800 0.929 . S
H793 C802 0.930 . S
H794 C804 0.930 . S
H795 C807 0.929 . S
H796 C810 0.930 . S
H797 C812 0.960 . S
H798 C812 0.960 . S
H799 C812 0.960 . S
C800 H792 0.929 . S
C800 C801 1.377 . S
C800 C802 1.384 . S
C801 C800 1.377 . S
C801 C807 1.390 . S
C802 H793 0.930 . S
C802 C800 1.384 . S
C802 C803 1.372 . S
C803 C802 1.372 . S
C803 C804 1.400 . S
C803 C808 1.490 . S
C804 H794 0.930 . S
C804 C803 1.400 . S
C804 C807 1.386 . S
H805 C821 0.930 1_556 S
H806 C822 0.931 . S
C807 H795 0.929 . S
C807 C801 1.390 . S
C807 C804 1.386 . S
C808 C803 1.490 . S
C808 C810 1.395 . S
C808 C811 1.403 . S
H809 C815 0.930 . S
C810 H796 0.930 . S
C810 C808 1.395 . S
C810 C813 1.403 . S
C811 C808 1.403 . S
C811 C812 1.524 . S
C811 C815 1.400 . S
C812 H797 0.960 . S
C812 H798 0.960 . S
C812 H799 0.960 . S
C812 C811 1.524 . S
C813 C810 1.403 . S
C813 C814 1.392 . S
C813 C817 1.495 . S
C814 C813 1.392 . S
C814 C815 1.385 . S
C814 C816 1.478 . S
C815 H809 0.930 . S
C815 C811 1.400 . S
C815 C814 1.385 . S
C816 C814 1.478 . S
C816 C818 1.381 . S
C816 C822 1.383 . S
C817 C813 1.495 . S
C817 H823 0.959 . S
C817 H824 0.961 . S
C817 H825 0.960 . S
C818 C816 1.381 . S
C818 C819 1.394 1_554 S
C818 H826 0.930 . S
C819 C818 1.394 1_556 S
C819 C820 1.383 . S
C819 H827 0.929 . S
C820 C819 1.383 . S
C820 C821 1.377 1_556 S
C821 H805 0.930 1_554 S
C821 C820 1.377 1_554 S
C821 C822 1.379 . S
C822 H806 0.931 . S
C822 C816 1.383 . S
C822 C821 1.379 . S
H823 C817 0.959 . S
H824 C817 0.961 . S
H825 C817 0.960 . S
H826 C818 0.930 . S
H827 C819 0.929 . S
H828 C836 0.929 . S
H829 C838 0.930 . S
H830 C840 0.930 . S
H831 C843 0.929 . S
H832 C846 0.930 . S
H833 C848 0.960 . S
H834 C848 0.960 . S
H835 C848 0.960 . S
C836 H828 0.929 . S
C836 C837 1.377 . S
C836 C838 1.384 . S
C837 C836 1.377 . S
C837 C843 1.390 . S
C838 H829 0.930 . S
C838 C836 1.384 . S
C838 C839 1.372 . S
C839 C838 1.372 . S
C839 C840 1.400 . S
C839 C844 1.490 . S
C840 H830 0.930 . S
C840 C839 1.400 . S
C840 C843 1.386 . S
H841 C857 0.930 . S
H842 C858 0.931 . S
C843 H831 0.929 . S
C843 C837 1.390 . S
C843 C840 1.386 . S
C844 C839 1.490 . S
C844 C846 1.395 . S
C844 C847 1.403 . S
H845 C851 0.930 . S
C846 H832 0.930 . S
C846 C844 1.395 . S
C846 C849 1.403 . S
C847 C844 1.403 . S
C847 C848 1.524 . S
C847 C851 1.400 . S
C848 H833 0.960 . S
C848 H834 0.960 . S
C848 H835 0.960 . S
C848 C847 1.524 . S
C849 C846 1.403 . S
C849 C850 1.392 . S
C849 C853 1.495 . S
C850 C849 1.392 . S
C850 C851 1.385 . S
C850 C852 1.478 . S
C851 H845 0.930 . S
C851 C847 1.400 . S
C851 C850 1.385 . S
C852 C850 1.478 . S
C852 C854 1.381 . S
C852 C858 1.383 . S
C853 C849 1.495 . S
C853 H859 0.959 . S
C853 H860 0.961 . S
C853 H861 0.960 . S
C854 C852 1.381 . S
C854 C855 1.394 . S
C854 H862 0.930 . S
C855 C854 1.394 . S
C855 C856 1.383 . S
C855 H863 0.929 . S
C856 C855 1.383 . S
C856 C857 1.377 . S
C857 H841 0.930 . S
C857 C856 1.377 . S
C857 C858 1.379 . S
C858 H842 0.931 . S
C858 C852 1.383 . S
C858 C857 1.379 . S
H859 C853 0.959 . S
H860 C853 0.961 . S
H861 C853 0.960 . S
H862 C854 0.930 . S
H863 C855 0.929 . S
H864 C872 0.929 . S
H865 C874 0.930 . S
H866 C876 0.930 . S
H867 C879 0.929 . S
H868 C882 0.930 . S
H869 C884 0.960 . S
H870 C884 0.960 . S
H871 C884 0.960 . S
C872 H864 0.929 . S
C872 C873 1.377 . S
C872 C874 1.384 . S
C873 C872 1.377 . S
C873 C879 1.390 . S
C874 H865 0.930 . S
C874 C872 1.384 . S
C874 C875 1.372 . S
C875 C874 1.372 . S
C875 C876 1.400 . S
C875 C880 1.490 . S
C876 H866 0.930 . S
C876 C875 1.400 . S
C876 C879 1.386 . S
H877 C893 0.930 . S
H878 C894 0.931 . S
C879 H867 0.929 . S
C879 C873 1.390 . S
C879 C876 1.386 . S
C880 C875 1.490 . S
C880 C882 1.395 . S
C880 C883 1.403 . S
H881 C887 0.930 . S
C882 H868 0.930 . S
C882 C880 1.395 . S
C882 C885 1.403 . S
C883 C880 1.403 . S
C883 C884 1.524 . S
C883 C887 1.400 . S
C884 H869 0.960 . S
C884 H870 0.960 . S
C884 H871 0.960 . S
C884 C883 1.524 . S
C885 C882 1.403 . S
C885 C886 1.392 . S
C885 C889 1.495 . S
C886 C885 1.392 . S
C886 C887 1.385 . S
C886 C888 1.478 . S
C887 H881 0.930 . S
C887 C883 1.400 . S
C887 C886 1.385 . S
C888 C886 1.478 . S
C888 C890 1.381 . S
C888 C894 1.383 . S
C889 C885 1.495 . S
C889 H895 0.959 . S
C889 H896 0.961 . S
C889 H897 0.960 . S
C890 C888 1.381 . S
C890 C891 1.394 1_556 S
C890 H898 0.930 . S
C891 C890 1.394 1_554 S
C891 C892 1.383 . S
C891 H899 0.929 . S
C892 C891 1.383 . S
C892 C893 1.377 . S
C893 H877 0.930 . S
C893 C892 1.377 . S
C893 C894 1.379 1_554 S
C894 H878 0.931 . S
C894 C888 1.383 . S
C894 C893 1.379 1_556 S
H895 C889 0.959 . S
H896 C889 0.961 . S
H897 C889 0.960 . S
H898 C890 0.930 . S
H899 C891 0.929 . S
H900 C908 0.929 . S
H901 C910 0.930 . S
H902 C912 0.930 . S
H903 C915 0.929 . S
H904 C918 0.930 . S
H905 C920 0.960 . S
H906 C920 0.960 . S
H907 C920 0.960 . S
C908 H900 0.929 . S
C908 C909 1.377 . S
C908 C910 1.384 . S
C909 C908 1.377 . S
C909 C915 1.390 . S
C910 H901 0.930 . S
C910 C908 1.384 . S
C910 C911 1.372 . S
C911 C910 1.372 . S
C911 C912 1.400 . S
C911 C916 1.490 . S
C912 H902 0.930 . S
C912 C911 1.400 . S
C912 C915 1.386 . S
H913 C929 0.930 1_556 S
H914 C930 0.931 . S
C915 H903 0.929 . S
C915 C909 1.390 . S
C915 C912 1.386 . S
C916 C911 1.490 . S
C916 C918 1.395 . S
C916 C919 1.403 . S
H917 C923 0.930 . S
C918 H904 0.930 . S
C918 C916 1.395 . S
C918 C921 1.403 . S
C919 C916 1.403 . S
C919 C920 1.524 . S
C919 C923 1.400 . S
C920 H905 0.960 . S
C920 H906 0.960 . S
C920 H907 0.960 . S
C920 C919 1.524 . S
C921 C918 1.403 . S
C921 C922 1.392 . S
C921 C925 1.495 . S
C922 C921 1.392 . S
C922 C923 1.385 . S
C922 C924 1.478 . S
C923 H917 0.930 . S
C923 C919 1.400 . S
C923 C922 1.385 . S
C924 C922 1.478 . S
C924 C926 1.381 . S
C924 C930 1.383 . S
C925 C921 1.495 . S
C925 H931 0.959 . S
C925 H932 0.961 . S
C925 H933 0.960 . S
C926 C924 1.381 . S
C926 C927 1.394 . S
C926 H934 0.930 . S
C927 C926 1.394 . S
C927 C928 1.383 1_554 S
C927 H935 0.929 1_554 S
C928 C927 1.383 1_556 S
C928 C929 1.377 1_556 S
C929 H913 0.930 1_554 S
C929 C928 1.377 1_554 S
C929 C930 1.379 . S
C930 H914 0.931 . S
C930 C924 1.383 . S
C930 C929 1.379 . S
H931 C925 0.959 . S
H932 C925 0.961 . S
H933 C925 0.960 . S
H934 C926 0.930 . S
H935 C927 0.929 1_556 S
H936 C944 0.929 . S
H937 C946 0.930 . S
H938 C948 0.930 . S
H939 C951 0.929 . S
H940 C954 0.930 . S
H941 C956 0.960 . S
H942 C956 0.960 . S
H943 C956 0.960 . S
C944 H936 0.929 . S
C944 C945 1.377 . S
C944 C946 1.384 . S
C945 C944 1.377 . S
C945 C951 1.390 . S
C946 H937 0.930 . S
C946 C944 1.384 . S
C946 C947 1.372 . S
C947 C946 1.372 . S
C947 C948 1.400 . S
C947 C952 1.490 . S
C948 H938 0.930 . S
C948 C947 1.400 . S
C948 C951 1.386 . S
H949 C965 0.930 . S
H950 C966 0.931 . S
C951 H939 0.929 . S
C951 C945 1.390 . S
C951 C948 1.386 . S
C952 C947 1.490 . S
C952 C954 1.395 . S
C952 C955 1.403 . S
H953 C959 0.930 . S
C954 H940 0.930 . S
C954 C952 1.395 . S
C954 C957 1.403 . S
C955 C952 1.403 . S
C955 C956 1.524 . S
C955 C959 1.400 . S
C956 H941 0.960 . S
C956 H942 0.960 . S
C956 H943 0.960 . S
C956 C955 1.524 . S
C957 C954 1.403 . S
C957 C958 1.392 . S
C957 C961 1.495 . S
C958 C957 1.392 . S
C958 C959 1.385 . S
C958 C960 1.478 . S
C959 H953 0.930 . S
C959 C955 1.400 . S
C959 C958 1.385 . S
C960 C958 1.478 . S
C960 C962 1.381 . S
C960 C966 1.383 . S
C961 C957 1.495 . S
C961 H967 0.959 . S
C961 H968 0.961 . S
C961 H969 0.960 . S
C962 C960 1.381 . S
C962 C963 1.394 . S
C962 H970 0.930 . S
C963 C962 1.394 . S
C963 C964 1.383 . S
C963 H971 0.929 . S
C964 C963 1.383 . S
C964 C965 1.377 . S
C965 H949 0.930 . S
C965 C964 1.377 . S
C965 C966 1.379 . S
C966 H950 0.931 . S
C966 C960 1.383 . S
C966 C965 1.379 . S
H967 C961 0.959 . S
H968 C961 0.961 . S
H969 C961 0.960 . S
H970 C962 0.930 . S
H971 C963 0.929 . S
H972 C980 0.929 . S
H973 C982 0.930 . S
H974 C984 0.930 . S
H975 C987 0.929 . S
H976 C990 0.930 . S
H977 C992 0.960 . S
H978 C992 0.960 . S
H979 C992 0.960 . S
C980 H972 0.929 . S
C980 C981 1.377 . S
C980 C982 1.384 . S
C981 C980 1.377 . S
C981 C987 1.390 . S
C982 H973 0.930 . S
C982 C980 1.384 . S
C982 C983 1.372 . S
C983 C982 1.372 . S
C983 C984 1.400 . S
C983 C988 1.490 . S
C984 H974 0.930 . S
C984 C983 1.400 . S
C984 C987 1.386 . S
H985 C1001 0.930 . S
H986 C1002 0.931 . S
C987 H975 0.929 . S
C987 C981 1.390 . S
C987 C984 1.386 . S
C988 C983 1.490 . S
C988 C990 1.395 . S
C988 C991 1.403 . S
H989 C995 0.930 . S
C990 H976 0.930 . S
C990 C988 1.395 . S
C990 C993 1.403 . S
C991 C988 1.403 . S
C991 C992 1.524 . S
C991 C995 1.400 . S
C992 H977 0.960 . S
C992 H978 0.960 . S
C992 H979 0.960 . S
C992 C991 1.524 . S
C993 C990 1.403 . S
C993 C994 1.392 . S
C993 C997 1.495 . S
C994 C993 1.392 . S
C994 C995 1.385 . S
C994 C996 1.478 . S
C995 H989 0.930 . S
C995 C991 1.400 . S
C995 C994 1.385 . S
C996 C994 1.478 . S
C996 C998 1.381 . S
C996 C1002 1.383 . S
C997 C993 1.495 . S
C997 H1003 0.959 . S
C997 H1004 0.961 . S
C997 H1005 0.960 . S
C998 C996 1.381 . S
C998 C999 1.394 . S
C998 H1006 0.930 . S
C999 C998 1.394 . S
C999 C1000 1.383 . S
C999 H1007 0.929 . S
C1000 C999 1.383 . S
C1000 C1001 1.377 . S
C1001 H985 0.930 . S
C1001 C1000 1.377 . S
C1001 C1002 1.379 . S
C1002 H986 0.931 . S
C1002 C996 1.383 . S
C1002 C1001 1.379 . S
H1003 C997 0.959 . S
H1004 C997 0.961 . S
H1005 C997 0.960 . S
H1006 C998 0.930 . S
H1007 C999 0.929 . S
H1008 C1016 0.929 . S
H1009 C1018 0.930 . S
H1010 C1020 0.930 . S
H1011 C1023 0.929 . S
H1012 C1026 0.930 . S
H1013 C1028 0.960 . S
H1014 C1028 0.960 . S
H1015 C1028 0.960 . S
C1016 H1008 0.929 . S
C1016 C1017 1.377 . S
C1016 C1018 1.384 . S
C1017 C1016 1.377 . S
C1017 C1023 1.390 . S
C1018 H1009 0.930 . S
C1018 C1016 1.384 . S
C1018 C1019 1.372 . S
C1019 C1018 1.372 . S
C1019 C1020 1.400 . S
C1019 C1024 1.490 . S
C1020 H1010 0.930 . S
C1020 C1019 1.400 . S
C1020 C1023 1.386 . S
H1021 C1037 0.930 . S
H1022 C1038 0.931 . S
C1023 H1011 0.929 . S
C1023 C1017 1.390 . S
C1023 C1020 1.386 . S
C1024 C1019 1.490 . S
C1024 C1026 1.395 . S
C1024 C1027 1.403 . S
H1025 C1031 0.930 . S
C1026 H1012 0.930 . S
C1026 C1024 1.395 . S
C1026 C1029 1.403 . S
C1027 C1024 1.403 . S
C1027 C1028 1.524 . S
C1027 C1031 1.400 . S
C1028 H1013 0.960 . S
C1028 H1014 0.960 . S
C1028 H1015 0.960 . S
C1028 C1027 1.524 . S
C1029 C1026 1.403 . S
C1029 C1030 1.392 . S
C1029 C1033 1.495 . S
C1030 C1029 1.392 . S
C1030 C1031 1.385 . S
C1030 C1032 1.478 . S
C1031 H1025 0.930 . S
C1031 C1027 1.400 . S
C1031 C1030 1.385 . S
C1032 C1030 1.478 . S
C1032 C1034 1.381 . S
C1032 C1038 1.383 . S
C1033 C1029 1.495 . S
C1033 H1039 0.959 . S
C1033 H1040 0.961 . S
C1033 H1041 0.960 . S
C1034 C1032 1.381 . S
C1034 C1035 1.394 . S
C1034 H1042 0.930 . S
C1035 C1034 1.394 . S
C1035 C1036 1.383 . S
C1035 H1043 0.929 . S
C1036 C1035 1.383 . S
C1036 C1037 1.377 . S
C1037 H1021 0.930 . S
C1037 C1036 1.377 . S
C1037 C1038 1.379 . S
C1038 H1022 0.931 . S
C1038 C1032 1.383 . S
C1038 C1037 1.379 . S
H1039 C1033 0.959 . S
H1040 C1033 0.961 . S
H1041 C1033 0.960 . S
H1042 C1034 0.930 . S
H1043 C1035 0.929 . S
H1044 C1052 0.929 . S
H1045 C1054 0.930 . S
H1046 C1056 0.930 . S
H1047 C1059 0.929 . S
H1048 C1062 0.930 . S
H1049 C1064 0.960 . S
H1050 C1064 0.960 . S
H1051 C1064 0.960 . S
C1052 H1044 0.929 . S
C1052 C1053 1.377 . S
C1052 C1054 1.384 . S
C1053 C1052 1.377 . S
C1053 C1059 1.390 . S
C1054 H1045 0.930 . S
C1054 C1052 1.384 . S
C1054 C1055 1.372 . S
C1055 C1054 1.372 . S
C1055 C1056 1.400 . S
C1055 C1060 1.490 . S
C1056 H1046 0.930 . S
C1056 C1055 1.400 . S
C1056 C1059 1.386 . S
H1057 C1073 0.930 . S
H1058 C1074 0.931 . S
C1059 H1047 0.929 . S
C1059 C1053 1.390 . S
C1059 C1056 1.386 . S
C1060 C1055 1.490 . S
C1060 C1062 1.395 . S
C1060 C1063 1.403 . S
H1061 C1067 0.930 . S
C1062 H1048 0.930 . S
C1062 C1060 1.395 . S
C1062 C1065 1.403 . S
C1063 C1060 1.403 . S
C1063 C1064 1.524 . S
C1063 C1067 1.400 . S
C1064 H1049 0.960 . S
C1064 H1050 0.960 . S
C1064 H1051 0.960 . S
C1064 C1063 1.524 . S
C1065 C1062 1.403 . S
C1065 C1066 1.392 . S
C1065 C1069 1.495 . S
C1066 C1065 1.392 . S
C1066 C1067 1.385 . S
C1066 C1068 1.478 . S
C1067 H1061 0.930 . S
C1067 C1063 1.400 . S
C1067 C1066 1.385 . S
C1068 C1066 1.478 . S
C1068 C1070 1.381 . S
C1068 C1074 1.383 . S
C1069 C1065 1.495 . S
C1069 H1075 0.959 . S
C1069 H1076 0.961 . S
C1069 H1077 0.960 . S
C1070 C1068 1.381 . S
C1070 C1071 1.394 . S
C1070 H1078 0.930 . S
C1071 C1070 1.394 . S
C1071 C1072 1.383 . S
C1071 H1079 0.929 . S
C1072 C1071 1.383 . S
C1072 C1073 1.377 . S
C1073 H1057 0.930 . S
C1073 C1072 1.377 . S
C1073 C1074 1.379 . S
C1074 H1058 0.931 . S
C1074 C1068 1.383 . S
C1074 C1073 1.379 . S
H1075 C1069 0.959 . S
H1076 C1069 0.961 . S
H1077 C1069 0.960 . S
H1078 C1070 0.930 . S
H1079 C1071 0.929 . S
H1080 C1088 0.929 . S
H1081 C1090 0.930 . S
H1082 C1092 0.930 . S
H1083 C1095 0.929 . S
H1084 C1098 0.930 . S
H1085 C1100 0.960 . S
H1086 C1100 0.960 . S
H1087 C1100 0.960 . S
C1088 H1080 0.929 . S
C1088 C1089 1.377 . S
C1088 C1090 1.384 . S
C1089 C1088 1.377 . S
C1089 C1095 1.390 . S
C1090 H1081 0.930 . S
C1090 C1088 1.384 . S
C1090 C1091 1.372 . S
C1091 C1090 1.372 . S
C1091 C1092 1.400 . S
C1091 C1096 1.490 . S
C1092 H1082 0.930 . S
C1092 C1091 1.400 . S
C1092 C1095 1.386 . S
H1093 C1109 0.930 . S
H1094 C1110 0.931 . S
C1095 H1083 0.929 . S
C1095 C1089 1.390 . S
C1095 C1092 1.386 . S
C1096 C1091 1.490 . S
C1096 C1098 1.395 . S
C1096 C1099 1.403 . S
H1097 C1103 0.930 . S
C1098 H1084 0.930 . S
C1098 C1096 1.395 . S
C1098 C1101 1.403 . S
C1099 C1096 1.403 . S
C1099 C1100 1.524 . S
C1099 C1103 1.400 . S
C1100 H1085 0.960 . S
C1100 H1086 0.960 . S
C1100 H1087 0.960 . S
C1100 C1099 1.524 . S
C1101 C1098 1.403 . S
C1101 C1102 1.392 . S
C1101 C1105 1.495 . S
C1102 C1101 1.392 . S
C1102 C1103 1.385 . S
C1102 C1104 1.478 . S
C1103 H1097 0.930 . S
C1103 C1099 1.400 . S
C1103 C1102 1.385 . S
C1104 C1102 1.478 . S
C1104 C1106 1.381 . S
C1104 C1110 1.383 . S
C1105 C1101 1.495 . S
C1105 H1111 0.959 . S
C1105 H1112 0.961 . S
C1105 H1113 0.960 . S
C1106 C1104 1.381 . S
C1106 C1107 1.394 . S
C1106 H1114 0.930 . S
C1107 C1106 1.394 . S
C1107 C1108 1.383 . S
C1107 H1115 0.929 . S
C1108 C1107 1.383 . S
C1108 C1109 1.377 . S
C1109 H1093 0.930 . S
C1109 C1108 1.377 . S
C1109 C1110 1.379 . S
C1110 H1094 0.931 . S
C1110 C1104 1.383 . S
C1110 C1109 1.379 . S
H1111 C1105 0.959 . S
H1112 C1105 0.961 . S
H1113 C1105 0.960 . S
H1114 C1106 0.930 . S
H1115 C1107 0.929 . S
H1116 C1124 0.929 . S
H1117 C1126 0.930 . S
H1118 C1128 0.930 . S
H1119 C1131 0.929 . S
H1120 C1134 0.930 . S
H1121 C1136 0.960 . S
H1122 C1136 0.960 . S
H1123 C1136 0.960 . S
C1124 H1116 0.929 . S
C1124 C1125 1.377 . S
C1124 C1126 1.384 . S
C1125 C1124 1.377 . S
C1125 C1131 1.390 . S
C1126 H1117 0.930 . S
C1126 C1124 1.384 . S
C1126 C1127 1.372 . S
C1127 C1126 1.372 . S
C1127 C1128 1.400 . S
C1127 C1132 1.490 . S
C1128 H1118 0.930 . S
C1128 C1127 1.400 . S
C1128 C1131 1.386 . S
H1129 C1145 0.930 . S
H1130 C1146 0.931 . S
C1131 H1119 0.929 . S
C1131 C1125 1.390 . S
C1131 C1128 1.386 . S
C1132 C1127 1.490 . S
C1132 C1134 1.395 . S
C1132 C1135 1.403 . S
H1133 C1139 0.930 . S
C1134 H1120 0.930 . S
C1134 C1132 1.395 . S
C1134 C1137 1.403 . S
C1135 C1132 1.403 . S
C1135 C1136 1.524 . S
C1135 C1139 1.400 . S
C1136 H1121 0.960 . S
C1136 H1122 0.960 . S
C1136 H1123 0.960 . S
C1136 C1135 1.524 . S
C1137 C1134 1.403 . S
C1137 C1138 1.392 . S
C1137 C1141 1.495 . S
C1138 C1137 1.392 . S
C1138 C1139 1.385 . S
C1138 C1140 1.478 . S
C1139 H1133 0.930 . S
C1139 C1135 1.400 . S
C1139 C1138 1.385 . S
C1140 C1138 1.478 . S
C1140 C1142 1.381 . S
C1140 C1146 1.383 . S
C1141 C1137 1.495 . S
C1141 H1147 0.959 . S
C1141 H1148 0.961 . S
C1141 H1149 0.960 . S
C1142 C1140 1.381 . S
C1142 C1143 1.394 . S
C1142 H1150 0.930 . S
C1143 C1142 1.394 . S
C1143 C1144 1.383 . S
C1143 H1151 0.929 . S
C1144 C1143 1.383 . S
C1144 C1145 1.377 . S
C1145 H1129 0.930 . S
C1145 C1144 1.377 . S
C1145 C1146 1.379 . S
C1146 H1130 0.931 . S
C1146 C1140 1.383 . S
C1146 C1145 1.379 . S
H1147 C1141 0.959 . S
H1148 C1141 0.961 . S
H1149 C1141 0.960 . S
H1150 C1142 0.930 . S
H1151 C1143 0.929 . S
C513 C483 1.287 . S
C532 C63 1.265 . S
C549 C56 1.251 . S
C568 C140 1.257 . S
C585 C147 1.287 . S
C604 C231 1.264 . S
C621 C224 1.240 . S
C640 C308 1.254 . S
C657 C399 1.287 . S
C676 C315 1.268 . S
C693 C476 1.241 . S
C712 C392 1.226 . S
C729 C58 1.127 . S
C748 C69 1.125 . S
C765 C153 1.108 . S
C784 C142 1.074 . S
C801 C226 1.111 . S
C820 C237 1.136 . S
C837 C321 1.115 . S
C856 C310 1.068 . S
C873 C405 1.114 . S
C892 C394 1.148 . S
C909 C489 1.119 . S
C928 C478 1.162 . S
C945 C74 1.582 . S
C964 C403 1.593 . S
C981 C151 1.600 . S
C1000 C494 1.570 . S
C1017 C67 1.600 . S
C1036 C242 1.594 . S
C1053 C158 1.587 . S
C1072 C319 1.603 . S
C1089 C410 1.584 . S
C1108 C235 1.602 . S
C1125 C326 1.585 . S
C1144 C487 1.603 . S
