# Generated by pormake.
# Topology qtz-x, (6)-cn, num edge types: 1
# Building blocks:
#     Node 0, Type 0, BuildingBlock: UKALOJ_clean_sbu_0, # of connection points: 6
#     Node 1, Type 0, BuildingBlock: UKALOJ_clean_sbu_0, # of connection points: 6
#     Node 2, Type 0, BuildingBlock: UKALOJ_clean_sbu_0, # of connection points: 6
#     Edge 3, Type (0, 0), BuildingBlock: MIFKUJ_clean_linker_0, # of connection points: 2
#     Edge 4, Type (0, 0), BuildingBlock: MIFKUJ_clean_linker_0, # of connection points: 2
#     Edge 5, Type (0, 0), BuildingBlock: MIFKUJ_clean_linker_0, # of connection points: 2
#     Edge 6, Type (0, 0), BuildingBlock: MIFKUJ_clean_linker_0, # of connection points: 2
#     Edge 7, Type (0, 0), BuildingBlock: MIFKUJ_clean_linker_0, # of connection points: 2
#     Edge 8, Type (0, 0), BuildingBlock: MIFKUJ_clean_linker_0, # of connection points: 2
#     Edge 9, Type (0, 0), BuildingBlock: MIFKUJ_clean_linker_0, # of connection points: 2
#     Edge 10, Type (0, 0), BuildingBlock: MIFKUJ_clean_linker_0, # of connection points: 2
#     Edge 11, Type (0, 0), BuildingBlock: MIFKUJ_clean_linker_0, # of connection points: 2
# Relax obj value: 0.273
# Max RMSD: 0.251
# Mean RMSD: 0.249
data_MOF--net-qtz-x--node1-UKALOJ_clean_sbu_0--edge1-MIFKUJ_clean_linker_0
_symmetry_space_group_name_H-M    P1
_symmetry_Int_Tables_number       1
_symmetry_cell_setting            triclinic
loop_
_symmetry_equiv_pos_as_xyz
'x, y, z'
_cell_length_a     24.336315
_cell_length_b     24.403663
_cell_length_c     44.302346
_cell_angle_alpha  93.75831
_cell_angle_beta   93.596821
_cell_angle_gamma 120.28261
loop_
_atom_site_label
_atom_site_type_symbol
_atom_site_fract_x
_atom_site_fract_y
_atom_site_fract_z
_atom_type_partial_charge
Zn0 Zn 0.00581 0.52077 0.17468 0.0
O1 O 0.06269 0.56329 0.13864 0.0
C2 C 0.89487 0.43958 0.12814 0.0
Zn3 Zn -0.00131 0.42851 0.16106 0.0
C4 C 0.07903 0.5298 0.12262 0.0
O5 O 0.06008 0.47283 0.12792 0.0
C6 C 0.9257 0.41785 0.21297 0.0
O7 O 0.08025 0.45558 0.19387 0.0
O8 O 0.08992 0.54981 0.20268 0.0
N9 N 0.99353 0.34541 0.14625 0.0
C10 C 0.00165 0.30299 0.16094 0.0
C11 C 0.98123 0.2696 0.11353 0.0
N12 N 0.98077 0.32458 0.11684 0.0
N13 N 0.99405 0.25505 0.14085 0.0
C14 C 0.01073 0.65012 0.17456 0.0
C15 C 0.01543 0.67605 0.222 0.0
N16 N 0.01062 0.6037 0.18944 0.0
N17 N 0.01363 0.6199 0.21889 0.0
N18 N 0.01408 0.69617 0.19453 0.0
H19 H 0.97922 0.59911 0.12925 0.0
H20 H 0.05248 0.67469 0.13289 0.0
H21 H 0.97733 0.67217 0.13338 0.0
C22 C 0.00408 0.6486 0.14057 0.0
C23 C 0.02391 0.31248 0.19424 0.0
H24 H 0.07691 0.34255 0.19749 0.0
H25 H 0.01053 0.26676 0.20339 0.0
H26 H 0.0043 0.33743 0.20748 0.0
O27 O 0.9355 0.38368 0.19377 0.0
O28 O 0.95089 0.47734 0.21109 0.0
C29 C 0.1104 0.51223 0.20738 0.0
O30 O 0.92007 0.49094 0.14611 0.0
O31 O 0.91917 0.40417 0.1288 0.0
Zn32 Zn 0.59051 0.01673 0.5069 0.0
O33 O 0.56653 0.93951 0.47198 0.0
C34 C 0.5895 0.09205 0.45755 0.0
Zn35 Zn 0.49368 0.00191 0.49599 0.0
C36 C 0.50999 0.90806 0.4583 0.0
O37 O 0.46923 0.92359 0.4645 0.0
C38 C 0.57098 0.10973 0.54473 0.0
O39 O 0.45952 0.93925 0.53087 0.0
O40 O 0.55566 0.95346 0.53981 0.0
N41 N 0.40571 0.98988 0.48503 0.0
C42 C 0.35923 0.98315 0.5021 0.0
C43 C 0.32476 0.97629 0.45569 0.0
N44 N 0.38431 0.98575 0.45625 0.0
N45 N 0.308 0.97454 0.48415 0.0
C46 C 0.7014 0.98983 0.51668 0.0
C47 C 0.78155 0.0836 0.52917 0.0
N48 N 0.67945 0.03065 0.51698 0.0
N49 N 0.72922 0.08883 0.52486 0.0
N50 N 0.76549 0.022 0.52408 0.0
H51 H 0.61133 0.90215 0.51749 0.0
H52 H 0.6812 0.89467 0.52302 0.0
H53 H 0.6543 0.90392 0.48586 0.0
C54 C 0.65965 0.91856 0.51061 0.0
C55 C 0.36164 0.97779 0.53567 0.0
H56 H 0.34785 0.92805 0.53914 0.0
H57 H 0.32797 0.98832 0.54668 0.0
H58 H 0.41069 0.01013 0.5471 0.0
O59 O 0.51791 0.08065 0.5279 0.0
O60 O 0.61213 0.09301 0.54112 0.0
C61 C 0.49822 0.92791 0.54595 0.0
O62 O 0.62609 0.08136 0.4746 0.0
O63 O 0.53012 0.0643 0.46085 0.0
Zn64 Zn 0.54147 0.57102 0.84625 0.0
O65 O 0.58098 0.54062 0.81113 0.0
C66 C 0.46663 0.59682 0.79977 0.0
Zn67 Zn 0.44513 0.48676 0.83347 0.0
C68 C 0.54199 0.48933 0.79423 0.0
O69 O 0.48387 0.45846 0.7993 0.0
C70 C 0.44091 0.56594 0.88479 0.0
O71 O 0.46669 0.4348 0.86514 0.0
O72 O 0.56243 0.51955 0.87595 0.0
N73 N 0.35911 0.40917 0.81843 0.0
C74 C 0.31798 0.35916 0.83221 0.0
C75 C 0.2798 0.34276 0.78565 0.0
N76 N 0.33534 0.39906 0.78954 0.0
N77 N 0.26822 0.31667 0.81205 0.0
C78 C 0.67149 0.6959 0.84698 0.0
C79 C 0.70877 0.71315 0.89373 0.0
N80 N 0.62802 0.64828 0.86122 0.0
N81 N 0.6512 0.65899 0.89024 0.0
N82 N 0.72226 0.7373 0.86694 0.0
H83 H 0.63203 0.65316 0.80059 0.0
H84 H 0.71349 0.71954 0.80489 0.0
H85 H 0.64837 0.7332 0.80913 0.0
C86 C 0.66594 0.70016 0.81342 0.0
C87 C 0.32497 0.35358 0.86558 0.0
H88 H 0.35181 0.40127 0.87891 0.0
H89 H 0.35173 0.3285 0.86951 0.0
H90 H 0.27737 0.32576 0.87389 0.0
O91 O 0.40569 0.51527 0.86692 0.0
O92 O 0.50027 0.59928 0.88162 0.0
C93 C 0.52212 0.46264 0.87993 0.0
O94 O 0.52047 0.62312 0.8159 0.0
O95 O 0.42515 0.53931 0.80257 0.0
H96 H 0.08565 0.78257 0.15737 0.0
H97 H 0.08355 0.87914 0.14736 0.0
H98 H 0.94242 0.83648 0.21029 0.0
H99 H 0.94355 0.73908 0.21972 0.0
H100 H 0.91073 0.86914 0.15679 0.0
H101 H 0.09447 0.95023 0.23115 0.0
H102 H 0.19856 0.96699 0.25247 0.0
H103 H 0.28491 0.05976 0.17503 0.0
H104 H 0.18106 0.04275 0.15303 0.0
H105 H 0.92545 0.16625 0.1772 0.0
H106 H 0.93072 0.0705 0.18551 0.0
H107 H 0.07379 0.12215 0.12293 0.0
H108 H 0.06928 0.21876 0.11527 0.0
H109 H 0.10567 0.08479 0.17452 0.0
H110 H 0.92317 0.00605 0.10054 0.0
H111 H 0.81926 0.98908 0.07882 0.0
H112 H 0.73067 0.89151 0.15482 0.0
H113 H 0.83431 0.90868 0.17722 0.0
C114 C 0.05362 0.79352 0.16866 0.0
C115 C 0.01381 0.75316 0.18884 0.0
C116 C 0.05297 0.84888 0.16324 0.0
C117 C 0.01294 0.86487 0.17817 0.0
C118 C 0.97348 0.82477 0.1985 0.0
C119 C 0.97431 0.76955 0.20397 0.0
C120 C 0.01154 0.92307 0.17236 0.0
C121 C 0.95314 0.91642 0.16102 0.0
C122 C 0.06735 0.98436 0.17711 0.0
C123 C 0.12983 0.99459 0.19029 0.0
C124 C 0.13552 0.97368 0.21853 0.0
C125 C 0.1945 0.98334 0.23077 0.0
C126 C 0.24827 0.01425 0.21507 0.0
C127 C 0.2432 0.03572 0.18714 0.0
C128 C 0.1843 0.02614 0.17479 0.0
C129 C 0.95863 0.15735 0.1657 0.0
C130 C -0.00196 0.19992 0.14618 0.0
C131 C 0.96113 0.10256 0.17012 0.0
C132 C 0.00244 0.08922 0.15469 0.0
C133 C 0.04177 0.13179 0.13509 0.0
C134 C 0.03914 0.18656 0.13067 0.0
C135 C 0.00472 0.03092 0.15918 0.0
C136 C 0.06328 0.03752 0.17022 0.0
C137 C 0.94907 0.96953 0.15409 0.0
C138 C 0.88667 0.95922 0.14071 0.0
C139 C 0.88166 0.98147 0.11276 0.0
C140 C 0.82278 0.97172 0.1003 0.0
C141 C 0.76843 0.93939 0.11547 0.0
C142 C 0.77283 0.91662 0.14311 0.0
C143 C 0.83162 0.9263 0.15569 0.0
H144 H 0.72288 0.93185 0.10577 0.0
H145 H 0.2939 0.0217 0.22459 0.0
H146 H 0.19114 0.88143 0.45989 0.0
H147 H 0.08833 0.87092 0.47011 0.0
H148 H 0.18799 0.03846 0.53577 0.0
H149 H 0.29061 0.04991 0.52484 0.0
H150 H 0.07206 0.93437 0.55433 0.0
H151 H 0.15091 0.05913 0.46921 0.0
H152 H 0.18981 0.07691 0.41864 0.0
H153 H 0.01503 0.91068 0.37825 0.0
H154 H 0.97548 0.89144 0.42871 0.0
H155 H 0.87116 0.06496 0.56329 0.0
H156 H 0.95448 0.03747 0.55993 0.0
H157 H 0.84357 0.90118 0.48163 0.0
H158 H 0.7629 0.93198 0.4837 0.0
H159 H 0.95731 0.97266 0.46937 0.0
H160 H 0.86987 0.85618 0.55272 0.0
H161 H 0.8298 0.83564 0.60293 0.0
H162 H 0.01541 0.97812 0.64666 0.0
H163 H 0.05631 0.00069 0.59672 0.0
C164 C 0.1906 0.91527 0.47677 0.0
C165 C 0.24811 0.96547 0.49218 0.0
C166 C 0.13224 0.9092 0.48265 0.0
C167 C 0.13087 0.95367 0.50385 0.0
C168 C 0.18822 0.00313 0.51972 0.0
C169 C 0.24657 0.00945 0.51363 0.0
C170 C 0.07043 0.95235 0.50749 0.0
C171 C 0.0468 0.94295 0.53591 0.0
C172 C 0.03697 0.96167 0.48307 0.0
C173 C 0.0606 0.97342 0.45275 0.0
C174 C 0.12103 0.02607 0.44958 0.0
C175 C 0.14315 0.03646 0.42094 0.0
C176 C 0.105 0.99483 0.39526 0.0
C177 C 0.04458 0.94281 0.39817 0.0
C178 C 0.02228 0.93215 0.42677 0.0
C179 C 0.86435 0.02846 0.54569 0.0
C180 C 0.80984 -0.0005 0.52424 0.0
C181 C 0.91155 0.01226 0.54395 0.0
C182 C 0.90474 0.96632 0.52086 0.0
C183 C 0.84949 0.93619 0.49986 0.0
C184 C 0.80281 0.9531 0.50135 0.0
C185 C 0.95838 0.95526 0.5165 0.0
C186 C 0.98126 0.9627 0.48784 0.0
C187 C 0.99059 0.94353 0.5407 0.0
C188 C 0.96604 0.93051 0.57087 0.0
C189 C 0.90202 0.88366 0.57301 0.0
C190 C 0.87915 0.87162 0.60145 0.0
C191 C 0.91996 0.90576 0.62797 0.0
C192 C 0.98377 0.95193 0.62611 0.0
C193 C 0.00683 0.96433 0.59773 0.0
H194 H 0.90221 0.89632 0.64998 0.0
H195 H 0.12219 0.00297 0.3731 0.0
H196 H 0.84352 0.77291 0.88632 0.0
H197 H 0.94065 0.87054 0.87656 0.0
H198 H 0.82406 0.92882 0.82676 0.0
H199 H 0.72743 0.83188 0.83683 0.0
H200 H 0.92323 0.94145 0.79629 0.0
H201 H 0.89026 0.99659 0.89721 0.0
H202 H 0.8744 0.98302 0.95125 0.0
H203 H 0.05565 0.99395 0.96755 0.0
H204 H 0.07219 0.00671 0.91347 0.0
H205 H 0.14494 0.27063 0.792 0.0
H206 H 0.05348 0.16711 0.80022 0.0
H207 H 0.18175 0.12174 0.84926 0.0
H208 H 0.27294 0.22491 0.8408 0.0
H209 H 0.08026 0.09921 0.87976 0.0
H210 H 0.11611 0.051 0.77905 0.0
H211 H 0.13226 0.06709 0.72523 0.0
H212 H 0.94563 0.04388 0.70834 0.0
H213 H 0.92875 0.02875 0.76221 0.0
C214 C 0.8391 0.80689 0.87337 0.0
C215 C 0.77864 0.79473 0.86168 0.0
C216 C 0.89421 0.86232 0.86782 0.0
C217 C 0.88923 0.90654 0.85088 0.0
C218 C 0.82872 0.89476 0.83956 0.0
C219 C 0.77375 0.8394 0.84511 0.0
C220 C 0.94705 0.96527 0.84486 0.0
C221 C 0.95733 0.97634 0.81449 0.0
C222 C 0.99202 0.00964 0.86871 0.0
C223 C 0.98211 0.00186 0.90122 0.0
C224 C 0.92646 0.99551 0.91226 0.0
C225 C 0.91741 0.98808 0.94291 0.0
C226 C 0.9639 0.98742 0.9628 0.0
C227 C 0.01962 0.99434 0.9521 0.0
C228 C 0.02888 0.00172 0.92146 0.0
C229 C 0.15319 0.2382 0.80441 0.0
C230 C 0.21524 0.2558 0.81644 0.0
C231 C 0.10131 0.17931 0.80901 0.0
C232 C 0.11115 0.137 0.8253 0.0
C233 C 0.17334 0.1541 0.83684 0.0
C234 C 0.22514 0.21299 0.83225 0.0
C235 C 0.05622 0.07574 0.83118 0.0
C236 C 0.04646 0.06414 0.86153 0.0
C237 C 0.01171 0.03095 0.80729 0.0
C238 C 0.02144 0.03939 0.77478 0.0
C239 C 0.0787 0.04984 0.76393 0.0
C240 C 0.08796 0.05871 0.7334 0.0
C241 C 0.0401 0.05677 0.71342 0.0
C242 C 0.98272 0.04554 0.72387 0.0
C243 C 0.97326 0.03677 0.7544 0.0
H244 H 0.04749 0.06398 0.68983 0.0
H245 H 0.95681 0.9817 0.98652 0.0
H246 H 0.3153 0.50693 0.89399 0.0
H247 H 0.26685 0.53169 0.93489 0.0
H248 H 0.4515 0.69047 0.97225 0.0
H249 H 0.5012 0.66524 0.93106 0.0
H250 H 0.38798 0.62001 0.01607 0.0
H251 H 0.33989 0.71981 0.94004 0.0
H252 H 0.30548 0.73398 0.88909 0.0
H253 H 0.11638 0.57521 0.89311 0.0
H254 H 0.14984 0.55936 0.94389 0.0
H255 H 0.18182 0.65021 0.12135 0.0
H256 H 0.25572 0.68639 0.08175 0.0
H257 H 0.13935 0.50304 0.02855 0.0
H258 H 0.0674 0.46615 0.06825 0.0
H259 H 0.18664 0.62309 0.99597 0.0
H260 H 0.25151 0.51173 0.06627 0.0
H261 H 0.2874 0.50019 0.11754 0.0
H262 H 0.44912 0.69096 0.12427 0.0
H263 H 0.41348 0.70387 0.07316 0.0
C264 C 0.34588 0.54754 0.91067 0.0
C265 C 0.41224 0.5842 0.90917 0.0
C266 C 0.31788 0.56194 0.93401 0.0
C267 C 0.35527 0.61366 0.95638 0.0
C268 C 0.42165 0.65066 0.95506 0.0
C269 C 0.44992 0.63626 0.93151 0.0
C270 C 0.32431 0.62544 0.98188 0.0
C271 C 0.34507 0.62269 0.01174 0.0
C272 C 0.26827 0.62905 0.97638 0.0
C273 C 0.24752 0.6383 0.94581 0.0
C274 C 0.29106 0.68763 0.93 0.0
C275 C 0.2717 0.696 0.90114 0.0
C276 C 0.20879 0.6555 0.88786 0.0
C277 C 0.16509 0.60658 0.90344 0.0
C278 C 0.1842 0.59797 0.9323 0.0
C279 C 0.1718 0.6182 0.10096 0.0
C280 C 0.11929 0.55541 0.09778 0.0
C281 C 0.2139 0.63879 0.07848 0.0
C282 C 0.20273 0.59727 0.05231 0.0
C283 C 0.14853 0.53576 0.04855 0.0
C284 C 0.1077 0.51471 0.07125 0.0
C285 C 0.24911 0.61501 0.02954 0.0
C286 C 0.23095 0.62296 1.00027 0.0
C287 C 0.30786 0.61706 0.03561 0.0
C288 C 0.32936 0.6091 0.06616 0.0
C289 C 0.29433 0.55143 0.07883 0.0
C290 C 0.31469 0.54459 0.10782 0.0
C291 C 0.37037 0.59491 0.12421 0.0
C292 C 0.4059 0.6521 0.11159 0.0
C293 C 0.38564 0.65921 0.08263 0.0
H294 H 0.38609 0.58953 0.14664 0.0
H295 H 0.1939 0.66205 0.86551 0.0
H296 H 0.52741 0.09256 0.40377 0.0
H297 H 0.57679 0.15356 0.36131 0.0
H298 H 0.76157 0.24681 0.41448 0.0
H299 H 0.71303 0.18577 0.45659 0.0
H300 H 0.73766 0.3298 0.3805 0.0
H301 H 0.72524 0.1242 0.36777 0.0
H302 H 0.66637 0.00646 0.36313 0.0
H303 H 0.55072 -0.00101 0.2839 0.0
H304 H 0.60824 0.1168 0.28839 0.0
H305 H 0.96149 0.4496 0.27366 0.0
H306 H 0.89857 0.39709 0.31477 0.0
H307 H 0.73738 0.27053 0.24854 0.0
H308 H 0.80283 0.31959 0.20745 0.0
H309 H 0.73926 0.20454 0.28806 0.0
H310 H 0.75319 0.40852 0.29763 0.0
H311 H 0.80879 0.52616 0.30205 0.0
H312 H 0.91513 0.53779 0.38573 0.0
H313 H 0.86055 0.42023 0.38167 0.0
C314 C 0.57834 0.12689 0.40653 0.0
C315 C 0.61647 0.13414 0.43338 0.0
C316 C 0.60647 0.16149 0.38228 0.0
C317 C 0.67288 0.20435 0.38475 0.0
C318 C 0.71029 0.21404 0.41214 0.0
C319 C 0.68249 0.1789 0.43611 0.0
C320 C 0.70468 0.23578 0.35827 0.0
C321 C 0.7382 0.30264 0.36024 0.0
C322 C 0.70416 0.20009 0.33169 0.0
C323 C 0.67055 0.12929 0.32861 0.0
C324 C 0.68695 0.09745 0.34949 0.0
C325 C 0.65387 0.03071 0.34688 0.0
C326 C 0.60471 0.99525 0.32329 0.0
C327 C 0.58873 0.02651 0.30219 0.0
C328 C 0.62156 0.09326 0.30475 0.0
C329 C 0.9125 0.4107 0.26806 0.0
C330 C 0.88648 0.38872 0.23762 0.0
C331 C 0.87622 0.38099 0.29153 0.0
C332 C 0.81219 0.33073 0.285 0.0
C333 C 0.78638 0.30917 0.25436 0.0
C334 C 0.82353 0.33733 0.23088 0.0
C335 C 0.77284 0.29939 0.30998 0.0
C336 C 0.73803 0.23225 0.3079 0.0
C337 C 0.77143 0.33493 0.33631 0.0
C338 C 0.80299 0.40559 0.33925 0.0
C339 C 0.78849 0.43619 0.31694 0.0
C340 C 0.81985 0.50285 0.31938 0.0
C341 C 0.86552 0.53942 0.34414 0.0
C342 C 0.87971 0.5094 0.36658 0.0
C343 C 0.84847 0.44276 0.36427 0.0
H344 H 0.88987 0.59102 0.34594 0.0
H345 H 0.57911 0.94358 0.32133 0.0
H346 H 0.3539 0.55938 0.76465 0.0
H347 H 0.33676 0.61309 0.72343 0.0
H348 H 0.53449 0.76453 0.7406 0.0
H349 H 0.55104 0.7127 0.78236 0.0
H350 H 0.46493 0.81385 0.72719 0.0
H351 H 0.47785 0.63346 0.68383 0.0
H352 H 0.44417 0.51939 0.67522 0.0
H353 H 0.25689 0.47432 0.63818 0.0
H354 H 0.28929 0.58812 0.64697 0.0
H355 H 0.57661 0.91891 0.58905 0.0
H356 H 0.54753 0.8592 0.63299 0.0
H357 H 0.34777 0.78762 0.6055 0.0
H358 H 0.37661 0.84872 0.56119 0.0
H359 H 0.39142 0.69369 0.62397 0.0
H360 H 0.39391 0.8851 0.65949 0.0
H361 H 0.43886 0.00161 0.6659 0.0
H362 H 0.60884 0.02809 0.71609 0.0
H363 H 0.56537 0.91179 0.70954 0.0
C364 C 0.39348 0.60454 0.75986 0.0
C365 C 0.4541 0.63144 0.77661 0.0
C366 C 0.38367 0.63505 0.7362 0.0
C367 C 0.43461 0.69235 0.72851 0.0
C368 C 0.49437 0.72039 0.74603 0.0
C369 C 0.50392 0.69045 0.76988 0.0
C370 C 0.4276 0.72191 0.70133 0.0
C371 C 0.44858 0.7874 0.70467 0.0
C372 C 0.40502 0.68732 0.67191 0.0
C373 C 0.38571 0.61908 0.6664 0.0
C374 C 0.42936 0.59913 0.67404 0.0
C375 C 0.41053 0.53456 0.6691 0.0
C376 C 0.34837 0.48961 0.65625 0.0
C377 C 0.30498 0.50918 0.64821 0.0
C378 C 0.32354 0.57368 0.65315 0.0
C379 C 0.52636 0.89037 0.59213 0.0
C380 C 0.47886 0.8887 0.57164 0.0
C381 C 0.50992 0.85641 0.61733 0.0
C382 C 0.44567 0.8195 0.6225 0.0
C383 C 0.39767 0.81612 0.60181 0.0
C384 C 0.41421 0.85108 0.57664 0.0
C385 C 0.43032 0.78549 0.64995 0.0
C386 C 0.40562 0.71943 0.64664 0.0
C387 C 0.45058 0.81971 0.67934 0.0
C388 C 0.47643 0.88966 0.68389 0.0
C389 C 0.44104 0.91578 0.67173 0.0
C390 C 0.46624 0.9818 0.67541 0.0
C391 C 0.5267 0.02224 0.69136 0.0
C392 C 0.562 0.99671 0.70374 0.0
C393 C 0.53704 0.93071 0.7001 0.0
H394 H 0.54616 0.07335 0.69416 0.0
H395 H 0.33386 0.43964 0.65245 0.0
H396 H 0.6315 0.45978 0.88638 0.0
H397 H 0.67399 0.43237 0.93075 0.0
H398 H 0.49973 0.37686 0.97159 0.0
H399 H 0.45573 0.40175 0.92639 0.0
H400 H 0.65716 0.49793 0.99768 0.0
H401 H 0.49533 0.27033 0.9736 0.0
H402 H 0.43723 0.17134 0.93813 0.0
H403 H 0.61492 0.18285 0.92244 0.0
H404 H 0.67413 0.28256 0.95745 0.0
H405 H 0.80093 0.46836 0.13328 0.0
H406 H 0.71697 0.45052 0.09374 0.0
H407 H 0.78618 0.36183 0.03129 0.0
H408 H 0.86708 0.37559 0.07148 0.0
H409 H 0.66625 0.30524 0.0185 0.0
H410 H 0.83004 0.52685 0.03576 0.0
H411 H 0.90011 0.63113 0.06619 0.0
H412 H 0.73536 0.64009 0.08837 0.0
H413 H 0.66425 0.53529 0.05849 0.0
C414 C 0.60138 0.43941 0.90434 0.0
C415 C 0.54026 0.43222 0.90299 0.0
C416 C 0.62568 0.42395 0.92963 0.0
C417 C 0.58981 0.40229 0.95427 0.0
C418 C 0.52762 0.39254 0.95253 0.0
C419 C 0.50251 0.4065 0.92674 0.0
C420 C 0.62161 0.39891 0.98305 0.0
C421 C 0.65795 0.45542 1.0028 0.0
C422 C 0.62466 0.34425 0.98874 0.0
C423 C 0.58914 0.28428 0.96783 0.0
C424 C 0.52204 0.25218 0.96229 0.0
C425 C 0.4889 0.19583 0.94235 0.0
C426 C 0.52237 0.17093 0.92796 0.0
C427 C 0.58906 0.20224 0.93356 0.0
C428 C 0.62241 0.25863 0.95346 0.0
C429 C 0.79743 0.44418 0.11123 0.0
C430 C 0.84069 0.42377 0.10531 0.0
C431 C 0.74971 0.43431 0.08856 0.0
C432 C 0.74612 0.40638 0.05915 0.0
C433 C 0.78779 0.38361 0.05369 0.0
C434 C 0.83422 0.39168 0.07664 0.0
C435 C 0.70207 0.40451 0.0336 0.0
C436 C 0.66431 0.34746 0.01411 0.0
C437 C 0.69912 0.45944 0.02758 0.0
C438 C 0.74182 0.52289 0.0452 0.0
C439 C 0.80876 0.5509 0.04728 0.0
C440 C 0.84866 0.61009 0.06442 0.0
C441 C 0.8222 0.64213 0.07927 0.0
C442 C 0.75578 0.61514 0.07691 0.0
C443 C 0.71566 0.55585 0.05989 0.0
H444 H 0.85316 0.68792 0.09255 0.0
H445 H 0.49663 0.12728 0.91254 0.0
H446 H 0.12859 0.45029 0.25275 0.0
H447 H 0.21228 0.50013 0.2964 0.0
H448 H 0.30277 0.67622 0.25536 0.0
H449 H 0.21883 0.62734 0.21242 0.0
H450 H 0.39144 0.64821 0.28832 0.0
H451 H 0.19932 0.66102 0.29865 0.0
H452 H 0.08237 0.6115 0.29834 0.0
H453 H 0.08469 0.50271 0.37026 0.0
H454 H 0.20165 0.5508 0.37056 0.0
H455 H 0.537 0.91624 0.39987 0.0
H456 H 0.48193 0.83137 0.3575 0.0
H457 H 0.38154 0.69598 0.42072 0.0
H458 H 0.43454 0.78205 0.46287 0.0
H459 H 0.29977 0.6851 0.37904 0.0
H460 H 0.49663 0.68862 0.37561 0.0
H461 H 0.61326 0.73712 0.37515 0.0
H462 H 0.60385 0.81266 0.29139 0.0
H463 H 0.48724 0.76519 0.2915 0.0
C464 C 0.16761 0.4989 0.25269 0.0
C465 C 0.16739 0.53525 0.22945 0.0
C466 C 0.21519 0.52733 0.27758 0.0
C467 C 0.26348 0.59196 0.27912 0.0
C468 C 0.26618 0.6263 0.25455 0.0
C469 C 0.2181 0.59845 0.23012 0.0
C470 C 0.30506 0.62705 0.30784 0.0
C471 C 0.37172 0.65618 0.30829 0.0
C472 C 0.279 0.63646 0.33397 0.0
C473 C 0.20903 0.60886 0.33437 0.0
C474 C 0.17481 0.6262 0.31425 0.0
C475 C 0.10854 0.59842 0.31408 0.0
C476 C 0.07607 0.55381 0.3342 0.0
C477 C 0.10989 0.53714 0.35463 0.0
C478 C 0.17616 0.56463 0.3548 0.0
C479 C 0.50484 0.86783 0.40468 0.0
C480 C 0.49065 0.85503 0.43449 0.0
C481 C 0.47331 0.81919 0.38048 0.0
C482 C 0.42781 0.75667 0.38578 0.0
C483 C 0.41635 0.74355 0.41594 0.0
C484 C 0.44704 0.79247 0.44004 0.0
C485 C 0.38715 0.70728 0.35982 0.0
C486 C 0.32021 0.67587 0.35965 0.0
C487 C 0.41315 0.69561 0.33408 0.0
C488 C 0.48317 0.72352 0.33365 0.0
C489 C 0.51946 0.7158 0.35716 0.0
C490 C 0.58558 0.74308 0.35695 0.0
C491 C 0.61595 0.778 0.33327 0.0
C492 C 0.58024 0.78555 0.3097 0.0
C493 C 0.5141 0.75832 0.30979 0.0
H494 H 0.66716 0.79915 0.33317 0.0
H495 H 0.02474 0.53229 0.33402 0.0
H496 H 0.4721 0.43291 0.74011 0.0
H497 H 0.49451 0.37846 0.69897 0.0
H498 H 0.67654 0.43322 0.74831 0.0
H499 H 0.65498 0.49055 0.78953 0.0
H500 H 0.68298 0.43374 0.68609 0.0
H501 H 0.55121 0.28701 0.75244 0.0
H502 H 0.46072 0.23729 0.78322 0.0
H503 H 0.32781 0.17689 0.70263 0.0
H504 H 0.4175 0.22711 0.6714 0.0
H505 H 0.67419 0.17567 0.58861 0.0
H506 H 0.68551 0.24896 0.63245 0.0
H507 H 0.50375 0.22771 0.60093 0.0
H508 H 0.49185 0.15465 0.55749 0.0
H509 H 0.51069 0.20728 0.66021 0.0
H510 H 0.64442 0.36397 0.59505 0.0
H511 H 0.7357 0.41502 0.56482 0.0
H512 H 0.8663 0.4543 0.64409 0.0
H513 H 0.77565 0.40271 0.67472 0.0
C514 C 0.51737 0.43419 0.74204 0.0
C515 C 0.56147 0.46506 0.76813 0.0
C516 C 0.53006 0.40291 0.71855 0.0
C517 C 0.58634 0.40014 0.72095 0.0
C518 C 0.63252 0.43429 0.74614 0.0
C519 C 0.62026 0.46694 0.76961 0.0
C520 C 0.59368 0.35784 0.69793 0.0
C521 C 0.64598 0.38391 0.68077 0.0
C522 C 0.54535 0.29275 0.69096 0.0
C523 C 0.49116 0.26114 0.70959 0.0
C524 C 0.50269 0.26336 0.74129 0.0
C525 C 0.45153 0.23509 0.75882 0.0
C526 C 0.38856 0.20403 0.7449 0.0
C527 C 0.37662 0.20097 0.71339 0.0
C528 C 0.42761 0.22924 0.69575 0.0
C529 C 0.63707 0.18731 0.59084 0.0
C530 C 0.58201 0.1591 0.56958 0.0
C531 C 0.64367 0.22925 0.61588 0.0
C532 C 0.59542 0.24374 0.61997 0.0
C533 C 0.54143 0.21699 0.5983 0.0
C534 C 0.53483 0.17532 0.57339 0.0
C535 C 0.59851 0.28377 0.64749 0.0
C536 C 0.54819 0.2569 0.66574 0.0
C537 C 0.64886 0.34769 0.65548 0.0
C538 C 0.70324 0.37882 0.63708 0.0
C539 C 0.69256 0.38299 0.60597 0.0
C540 C 0.74419 0.41213 0.58878 0.0
C541 C 0.80675 0.4377 0.6025 0.0
C542 C 0.81781 0.43437 0.63348 0.0
C543 C 0.76634 0.40523 0.65077 0.0
H544 H 0.84665 0.46024 0.58915 0.0
H545 H 0.34901 0.18227 0.75852 0.0
loop_
_geom_bond_atom_site_label_1
_geom_bond_atom_site_label_2
_geom_bond_distance
_geom_bond_site_symmetry_2
_ccdc_geom_bond_type
Zn0 O1 2.055 . S
Zn0 O8 2.046 . S
Zn0 N16 2.036 . S
Zn0 O28 2.053 1_455 S
Zn0 O30 2.066 1_455 S
O1 Zn0 2.055 . S
O1 C4 1.259 . S
C2 O30 1.256 . S
C2 O31 1.244 . S
Zn3 O5 2.046 . S
Zn3 O7 2.055 . S
Zn3 N9 2.036 . S
Zn3 O27 2.066 1_455 S
Zn3 O31 2.053 1_455 S
C4 O1 1.259 . S
C4 O5 1.254 . S
O5 Zn3 2.046 . S
O5 C4 1.254 . S
C6 O27 1.256 . S
C6 O28 1.244 . S
O7 Zn3 2.055 . S
O7 C29 1.259 . S
O8 Zn0 2.046 . S
O8 C29 1.254 . S
N9 Zn3 2.036 . S
N9 C10 1.298 . S
N9 N12 1.398 1_455 S
C10 N9 1.298 . S
C10 N13 1.367 1_455 S
C10 C23 1.481 . S
C11 N12 1.299 . S
C11 N13 1.379 . S
N12 N9 1.398 1_655 S
N12 C11 1.299 . S
N13 C10 1.367 1_655 S
N13 C11 1.379 . S
C14 N16 1.298 . S
C14 N18 1.367 1_455 S
C14 C22 1.481 . S
C15 N17 1.299 . S
C15 N18 1.379 . S
N16 Zn0 2.036 . S
N16 C14 1.298 . S
N16 N17 1.398 1_455 S
N17 C15 1.299 . S
N17 N16 1.398 1_655 S
N18 C14 1.367 1_655 S
N18 C15 1.379 . S
H19 C22 0.980 . S
H20 C22 0.981 . S
H21 C22 0.981 . S
C22 C14 1.481 . S
C22 H19 0.980 . S
C22 H20 0.981 . S
C22 H21 0.981 . S
C23 C10 1.481 . S
C23 H24 0.980 . S
C23 H25 0.981 . S
C23 H26 0.981 . S
H24 C23 0.980 . S
H25 C23 0.981 . S
H26 C23 0.981 . S
O27 Zn3 2.066 1_655 S
O27 C6 1.256 . S
O28 Zn0 2.053 1_655 S
O28 C6 1.244 . S
C29 O7 1.259 . S
C29 O8 1.254 . S
O30 Zn0 2.066 1_655 S
O30 C2 1.256 . S
O31 C2 1.244 . S
O31 Zn3 2.053 1_655 S
Zn32 O33 2.055 . S
Zn32 O40 2.046 . S
Zn32 N48 2.036 1_565 S
Zn32 O60 2.053 1_565 S
Zn32 O62 2.066 1_565 S
O33 Zn32 2.055 . S
O33 C36 1.259 . S
C34 O62 1.256 . S
C34 O63 1.244 . S
Zn35 O37 2.046 . S
Zn35 O39 2.055 . S
Zn35 N41 2.036 1_565 S
Zn35 O59 2.066 1_565 S
Zn35 O63 2.053 1_565 S
C36 O33 1.259 . S
C36 O37 1.254 . S
O37 Zn35 2.046 . S
O37 C36 1.254 . S
C38 O59 1.256 . S
C38 O60 1.244 . S
O39 Zn35 2.055 . S
O39 C61 1.259 . S
O40 Zn32 2.046 . S
O40 C61 1.254 . S
N41 Zn35 2.036 1_545 S
N41 C42 1.298 . S
N41 N44 1.398 . S
C42 N41 1.298 . S
C42 N45 1.367 . S
C42 C55 1.481 1_545 S
C43 N44 1.299 . S
C43 N45 1.379 . S
N44 N41 1.398 . S
N44 C43 1.299 . S
N45 C42 1.367 . S
N45 C43 1.379 . S
C46 N48 1.297 . S
C46 N50 1.367 . S
C46 C54 1.481 1_545 S
C47 N49 1.299 . S
C47 N50 1.379 . S
N48 Zn32 2.036 1_545 S
N48 C46 1.297 . S
N48 N49 1.398 . S
N49 C47 1.299 . S
N49 N48 1.398 . S
N50 C46 1.367 . S
N50 C47 1.379 . S
H51 C54 0.980 . S
H52 C54 0.981 . S
H53 C54 0.981 1_545 S
C54 C46 1.481 1_565 S
C54 H51 0.980 . S
C54 H52 0.981 . S
C54 H53 0.981 1_565 S
C55 C42 1.481 1_565 S
C55 H56 0.980 . S
C55 H57 0.981 . S
C55 H58 0.981 1_565 S
H56 C55 0.980 . S
H57 C55 0.981 . S
H58 C55 0.981 1_545 S
O59 Zn35 2.066 1_545 S
O59 C38 1.256 . S
O60 Zn32 2.053 1_545 S
O60 C38 1.244 . S
C61 O39 1.259 . S
C61 O40 1.254 . S
O62 Zn32 2.066 1_545 S
O62 C34 1.256 . S
O63 C34 1.244 . S
O63 Zn35 2.053 1_545 S
Zn64 O65 2.055 . S
Zn64 O72 2.046 . S
Zn64 N80 2.036 . S
Zn64 O92 2.053 . S
Zn64 O94 2.066 . S
O65 Zn64 2.055 . S
O65 C68 1.259 . S
C66 O94 1.256 . S
C66 O95 1.244 . S
Zn67 O69 2.046 . S
Zn67 O71 2.055 . S
Zn67 N73 2.036 . S
Zn67 O91 2.066 . S
Zn67 O95 2.053 . S
C68 O65 1.259 . S
C68 O69 1.254 . S
O69 Zn67 2.046 . S
O69 C68 1.254 . S
C70 O91 1.256 . S
C70 O92 1.244 . S
O71 Zn67 2.055 . S
O71 C93 1.259 . S
O72 Zn64 2.046 . S
O72 C93 1.254 . S
N73 Zn67 2.036 . S
N73 C74 1.298 . S
N73 N76 1.398 . S
C74 N73 1.298 . S
C74 N77 1.367 . S
C74 C87 1.481 . S
C75 N76 1.299 . S
C75 N77 1.379 . S
N76 N73 1.398 . S
N76 C75 1.299 . S
N77 C74 1.367 . S
N77 C75 1.379 . S
C78 N80 1.298 . S
C78 N82 1.367 . S
C78 C86 1.481 . S
C79 N81 1.299 . S
C79 N82 1.379 . S
N80 Zn64 2.036 . S
N80 C78 1.298 . S
N80 N81 1.398 . S
N81 C79 1.299 . S
N81 N80 1.398 . S
N82 C78 1.367 . S
N82 C79 1.379 . S
H83 C86 0.980 . S
H84 C86 0.981 . S
H85 C86 0.981 . S
C86 C78 1.481 . S
C86 H83 0.980 . S
C86 H84 0.981 . S
C86 H85 0.981 . S
C87 C74 1.481 . S
C87 H88 0.980 . S
C87 H89 0.981 . S
C87 H90 0.981 . S
H88 C87 0.980 . S
H89 C87 0.981 . S
H90 C87 0.981 . S
O91 Zn67 2.066 . S
O91 C70 1.256 . S
O92 Zn64 2.053 . S
O92 C70 1.244 . S
C93 O71 1.259 . S
C93 O72 1.254 . S
O94 Zn64 2.066 . S
O94 C66 1.256 . S
O95 C66 1.244 . S
O95 Zn67 2.053 . S
H96 C114 0.951 . S
H97 C116 0.951 . S
H98 C118 0.950 . S
H99 C119 0.950 . S
H100 C121 0.950 . S
H101 C124 0.950 . S
H102 C125 0.950 . S
H103 C127 0.950 . S
H104 C128 0.950 . S
H105 C129 0.951 . S
H106 C131 0.951 . S
H107 C133 0.950 . S
H108 C134 0.950 . S
H109 C136 0.950 . S
H110 C139 0.952 . S
H111 C140 0.950 . S
H112 C142 0.950 . S
H113 C143 0.950 . S
C114 H96 0.951 . S
C114 C115 1.366 1_455 S
C114 C116 1.388 . S
C115 C114 1.366 1_655 S
C115 C119 1.385 . S
C116 H97 0.951 . S
C116 C114 1.388 . S
C116 C117 1.366 1_455 S
C117 C116 1.366 1_655 S
C117 C118 1.414 . S
C117 C120 1.499 . S
C118 H98 0.950 . S
C118 C117 1.414 . S
C118 C119 1.374 . S
C119 H99 0.950 . S
C119 C115 1.385 . S
C119 C118 1.374 . S
C120 C117 1.499 . S
C120 C121 1.373 . S
C120 C122 1.389 1_655 S
C121 H100 0.950 . S
C121 C120 1.373 . S
C121 C137 1.377 . S
C122 C120 1.389 1_455 S
C122 C123 1.524 . S
C122 C136 1.377 1_565 S
C123 C122 1.524 . S
C123 C124 1.397 . S
C123 C128 1.363 1_565 S
C124 H101 0.950 . S
C124 C123 1.397 . S
C124 C125 1.334 . S
C125 H102 0.950 . S
C125 C124 1.334 . S
C125 C126 1.287 . S
C126 C125 1.287 . S
C126 C127 1.524 1_565 S
C126 H145 0.913 . S
C127 H103 0.950 . S
C127 C126 1.524 1_545 S
C127 C128 1.415 . S
C128 H104 0.950 . S
C128 C123 1.363 1_545 S
C128 C127 1.415 . S
C129 H105 0.951 . S
C129 C130 1.366 . S
C129 C131 1.388 . S
C130 C129 1.366 . S
C130 C134 1.385 1_655 S
C131 H106 0.951 . S
C131 C129 1.388 . S
C131 C132 1.366 . S
C132 C131 1.366 . S
C132 C133 1.414 1_655 S
C132 C135 1.499 . S
C133 H107 0.950 . S
C133 C132 1.414 1_455 S
C133 C134 1.374 . S
C134 H108 0.950 . S
C134 C130 1.385 1_455 S
C134 C133 1.374 . S
C135 C132 1.499 . S
C135 C136 1.373 1_655 S
C135 C137 1.389 1_545 S
C136 H109 0.950 . S
C136 C122 1.377 1_545 S
C136 C135 1.373 1_455 S
C137 C121 1.377 . S
C137 C135 1.389 1_565 S
C137 C138 1.524 . S
C138 C137 1.524 . S
C138 C139 1.397 . S
C138 C143 1.363 . S
C139 H110 0.952 . S
C139 C138 1.397 . S
C139 C140 1.334 . S
C140 H111 0.950 . S
C140 C139 1.334 . S
C140 C141 1.287 . S
C141 C140 1.287 . S
C141 C142 1.524 . S
C141 H144 0.999 . S
C142 H112 0.950 . S
C142 C141 1.524 . S
C142 C143 1.415 . S
C143 H113 0.950 . S
C143 C138 1.363 . S
C143 C142 1.415 . S
H144 C141 0.999 . S
H145 C126 0.913 . S
H146 C164 0.951 . S
H147 C166 0.951 . S
H148 C168 0.950 . S
H149 C169 0.950 . S
H150 C171 0.950 . S
H151 C174 0.950 . S
H152 C175 0.950 . S
H153 C177 0.950 . S
H154 C178 0.950 . S
H155 C179 0.951 . S
H156 C181 0.951 . S
H157 C183 0.950 . S
H158 C184 0.950 . S
H159 C186 0.950 . S
H160 C189 0.950 . S
H161 C190 0.950 . S
H162 C192 0.950 . S
H163 C193 0.950 1_455 S
C164 H146 0.951 . S
C164 C165 1.366 . S
C164 C166 1.388 . S
C165 C164 1.366 . S
C165 C169 1.385 . S
C166 H147 0.951 . S
C166 C164 1.388 . S
C166 C167 1.366 . S
C167 C166 1.366 . S
C167 C168 1.414 . S
C167 C170 1.499 . S
C168 H148 0.950 . S
C168 C167 1.414 . S
C168 C169 1.374 . S
C169 H149 0.950 . S
C169 C165 1.385 . S
C169 C168 1.374 . S
C170 C167 1.499 . S
C170 C171 1.373 1_545 S
C170 C172 1.389 . S
C171 H150 0.950 . S
C171 C170 1.373 1_565 S
C171 C187 1.377 . S
C172 C170 1.389 . S
C172 C173 1.524 . S
C172 C186 1.377 . S
C173 C172 1.524 . S
C173 C174 1.397 . S
C173 C178 1.363 . S
C174 H151 0.950 . S
C174 C173 1.397 . S
C174 C175 1.334 . S
C175 H152 0.950 . S
C175 C174 1.334 . S
C175 C176 1.287 . S
C176 C175 1.287 . S
C176 C177 1.524 . S
C176 H195 0.913 . S
C177 H153 0.950 . S
C177 C176 1.524 . S
C177 C178 1.415 . S
C178 H154 0.950 . S
C178 C173 1.363 . S
C178 C177 1.415 . S
C179 H155 0.951 . S
C179 C180 1.366 . S
C179 C181 1.388 . S
C180 C179 1.366 . S
C180 C184 1.385 . S
C181 H156 0.951 . S
C181 C179 1.388 . S
C181 C182 1.366 . S
C182 C181 1.366 . S
C182 C183 1.414 . S
C182 C185 1.499 . S
C183 H157 0.950 . S
C183 C182 1.414 . S
C183 C184 1.374 . S
C184 H158 0.950 . S
C184 C180 1.385 . S
C184 C183 1.374 . S
C185 C182 1.499 . S
C185 C186 1.373 1_655 S
C185 C187 1.389 1_645 S
C186 H159 0.950 . S
C186 C172 1.377 . S
C186 C185 1.373 1_455 S
C187 C171 1.377 . S
C187 C185 1.389 1_465 S
C187 C188 1.524 1_455 S
C188 C187 1.524 1_655 S
C188 C189 1.397 . S
C188 C193 1.363 . S
C189 H160 0.950 . S
C189 C188 1.397 . S
C189 C190 1.334 . S
C190 H161 0.950 . S
C190 C189 1.334 . S
C190 C191 1.287 . S
C191 C190 1.287 . S
C191 C192 1.524 . S
C191 H194 0.999 . S
C192 H162 0.950 . S
C192 C191 1.524 . S
C192 C193 1.415 . S
C193 H163 0.950 1_655 S
C193 C188 1.363 . S
C193 C192 1.415 . S
H194 C191 0.999 . S
H195 C176 0.913 . S
H196 C214 0.951 . S
H197 C216 0.951 . S
H198 C218 0.950 . S
H199 C219 0.950 . S
H200 C221 0.950 . S
H201 C224 0.950 . S
H202 C225 0.950 . S
H203 C227 0.950 . S
H204 C228 0.956 1_445 S
H205 C229 0.951 . S
H206 C231 0.951 . S
H207 C233 0.950 . S
H208 C234 0.950 . S
H209 C236 0.950 . S
H210 C239 0.950 . S
H211 C240 0.950 . S
H212 C242 0.950 1_655 S
H213 C243 0.950 . S
C214 H196 0.951 . S
C214 C215 1.366 . S
C214 C216 1.388 . S
C215 C214 1.366 . S
C215 C219 1.385 . S
C216 H197 0.951 . S
C216 C214 1.388 . S
C216 C217 1.366 . S
C217 C216 1.366 . S
C217 C218 1.414 . S
C217 C220 1.499 . S
C218 H198 0.950 . S
C218 C217 1.414 . S
C218 C219 1.374 . S
C219 H199 0.950 . S
C219 C215 1.385 . S
C219 C218 1.374 . S
C220 C217 1.499 . S
C220 C221 1.373 . S
C220 C222 1.389 1_565 S
C221 H200 0.950 . S
C221 C220 1.373 . S
C221 C237 1.377 1_665 S
C222 C220 1.389 1_545 S
C222 C223 1.524 . S
C222 C236 1.377 1_655 S
C223 C222 1.524 . S
C223 C224 1.396 1_545 S
C223 C228 1.357 1_545 S
C224 H201 0.950 . S
C224 C223 1.396 1_565 S
C224 C225 1.334 . S
C225 H202 0.950 . S
C225 C224 1.334 . S
C225 C226 1.287 . S
C226 C225 1.287 . S
C226 C227 1.524 . S
C226 H245 0.913 . S
C227 H203 0.950 . S
C227 C226 1.524 . S
C227 C228 1.416 . S
C228 H204 0.956 1_665 S
C228 C223 1.357 1_565 S
C228 C227 1.416 . S
C229 H205 0.951 . S
C229 C230 1.366 . S
C229 C231 1.388 . S
C230 C229 1.366 . S
C230 C234 1.385 . S
C231 H206 0.951 . S
C231 C229 1.388 . S
C231 C232 1.366 . S
C232 C231 1.366 . S
C232 C233 1.414 . S
C232 C235 1.499 . S
C233 H207 0.950 . S
C233 C232 1.414 . S
C233 C234 1.374 . S
C234 H208 0.950 . S
C234 C230 1.385 . S
C234 C233 1.374 . S
C235 C232 1.499 . S
C235 C236 1.373 . S
C235 C237 1.389 . S
C236 H209 0.950 . S
C236 C222 1.377 1_455 S
C236 C235 1.373 . S
C237 C221 1.377 1_445 S
C237 C235 1.389 . S
C237 C238 1.524 . S
C238 C237 1.524 . S
C238 C239 1.397 . S
C238 C243 1.363 1_455 S
C239 H210 0.950 . S
C239 C238 1.397 . S
C239 C240 1.334 . S
C240 H211 0.950 . S
C240 C239 1.334 . S
C240 C241 1.287 . S
C241 C240 1.287 . S
C241 C242 1.524 . S
C241 H244 0.999 . S
C242 H212 0.950 1_455 S
C242 C241 1.524 . S
C242 C243 1.415 1_455 S
C243 H213 0.950 . S
C243 C238 1.363 1_655 S
C243 C242 1.415 1_655 S
H244 C241 0.999 . S
H245 C226 0.913 . S
H246 C264 0.951 . S
H247 C266 0.951 . S
H248 C268 0.950 . S
H249 C269 0.950 . S
H250 C271 0.950 1_554 S
H251 C274 0.950 . S
H252 C275 0.950 . S
H253 C277 0.950 . S
H254 C278 0.950 . S
H255 C279 0.951 . S
H256 C281 0.951 . S
H257 C283 0.950 . S
H258 C284 0.950 . S
H259 C286 0.950 . S
H260 C289 0.950 . S
H261 C290 0.950 . S
H262 C292 0.950 . S
H263 C293 0.950 . S
C264 H246 0.951 . S
C264 C265 1.366 . S
C264 C266 1.388 . S
C265 C264 1.366 . S
C265 C269 1.385 . S
C266 H247 0.951 . S
C266 C264 1.388 . S
C266 C267 1.366 . S
C267 C266 1.366 . S
C267 C268 1.414 . S
C267 C270 1.499 . S
C268 H248 0.950 . S
C268 C267 1.414 . S
C268 C269 1.374 . S
C269 H249 0.950 . S
C269 C265 1.385 . S
C269 C268 1.374 . S
C270 C267 1.499 . S
C270 C271 1.378 . S
C270 C272 1.389 . S
C271 H250 0.950 1_556 S
C271 C270 1.378 . S
C271 C287 1.372 1_556 S
C272 C270 1.389 . S
C272 C273 1.524 . S
C272 C286 1.377 . S
C273 C272 1.524 . S
C273 C274 1.397 . S
C273 C278 1.363 . S
C274 H251 0.950 . S
C274 C273 1.397 . S
C274 C275 1.334 . S
C275 H252 0.950 . S
C275 C274 1.334 . S
C275 C276 1.287 . S
C276 C275 1.287 . S
C276 C277 1.524 . S
C276 H295 0.913 . S
C277 H253 0.950 . S
C277 C276 1.524 . S
C277 C278 1.415 . S
C278 H254 0.950 . S
C278 C273 1.363 . S
C278 C277 1.415 . S
C279 H255 0.951 . S
C279 C280 1.366 . S
C279 C281 1.388 . S
C280 C279 1.366 . S
C280 C284 1.385 . S
C281 H256 0.951 . S
C281 C279 1.388 . S
C281 C282 1.366 . S
C282 C281 1.366 . S
C282 C283 1.414 . S
C282 C285 1.499 . S
C283 H257 0.950 . S
C283 C282 1.414 . S
C283 C284 1.374 . S
C284 H258 0.950 . S
C284 C280 1.385 . S
C284 C283 1.374 . S
C285 C282 1.499 . S
C285 C286 1.373 1_554 S
C285 C287 1.389 . S
C286 H259 0.950 . S
C286 C272 1.377 . S
C286 C285 1.373 1_556 S
C287 C271 1.372 1_554 S
C287 C285 1.389 . S
C287 C288 1.524 . S
C288 C287 1.524 . S
C288 C289 1.397 . S
C288 C293 1.363 . S
C289 H260 0.950 . S
C289 C288 1.397 . S
C289 C290 1.334 . S
C290 H261 0.950 . S
C290 C289 1.334 . S
C290 C291 1.287 . S
C291 C290 1.287 . S
C291 C292 1.524 . S
C291 H294 0.999 . S
C292 H262 0.950 . S
C292 C291 1.524 . S
C292 C293 1.415 . S
C293 H263 0.950 . S
C293 C288 1.363 . S
C293 C292 1.415 . S
H294 C291 0.999 . S
H295 C276 0.913 . S
H296 C314 0.951 . S
H297 C316 0.951 . S
H298 C318 0.950 . S
H299 C319 0.950 . S
H300 C321 0.950 . S
H301 C324 0.950 . S
H302 C325 0.950 1_565 S
H303 C327 0.950 . S
H304 C328 0.950 . S
H305 C329 0.951 . S
H306 C331 0.951 . S
H307 C333 0.950 . S
H308 C334 0.950 . S
H309 C336 0.950 . S
H310 C339 0.950 . S
H311 C340 0.950 . S
H312 C342 0.950 . S
H313 C343 0.950 . S
C314 H296 0.951 . S
C314 C315 1.366 . S
C314 C316 1.388 . S
C315 C314 1.366 . S
C315 C319 1.385 . S
C316 H297 0.951 . S
C316 C314 1.388 . S
C316 C317 1.366 . S
C317 C316 1.366 . S
C317 C318 1.414 . S
C317 C320 1.499 . S
C318 H298 0.950 . S
C318 C317 1.414 . S
C318 C319 1.374 . S
C319 H299 0.950 . S
C319 C315 1.385 . S
C319 C318 1.374 . S
C320 C317 1.499 . S
C320 C321 1.373 . S
C320 C322 1.389 . S
C321 H300 0.950 . S
C321 C320 1.373 . S
C321 C337 1.377 . S
C322 C320 1.389 . S
C322 C323 1.524 . S
C322 C336 1.377 . S
C323 C322 1.524 . S
C323 C324 1.397 . S
C323 C328 1.363 . S
C324 H301 0.950 . S
C324 C323 1.397 . S
C324 C325 1.334 . S
C325 H302 0.950 1_545 S
C325 C324 1.334 . S
C325 C326 1.287 1_545 S
C326 C325 1.287 1_565 S
C326 C327 1.524 1_565 S
C326 H345 0.913 . S
C327 H303 0.950 . S
C327 C326 1.524 1_545 S
C327 C328 1.415 . S
C328 H304 0.950 . S
C328 C323 1.363 . S
C328 C327 1.415 . S
C329 H305 0.951 . S
C329 C330 1.366 . S
C329 C331 1.388 . S
C330 C329 1.366 . S
C330 C334 1.385 . S
C331 H306 0.951 . S
C331 C329 1.388 . S
C331 C332 1.366 . S
C332 C331 1.366 . S
C332 C333 1.414 . S
C332 C335 1.499 . S
C333 H307 0.950 . S
C333 C332 1.414 . S
C333 C334 1.374 . S
C334 H308 0.950 . S
C334 C330 1.385 . S
C334 C333 1.374 . S
C335 C332 1.499 . S
C335 C336 1.373 . S
C335 C337 1.389 . S
C336 H309 0.950 . S
C336 C322 1.377 . S
C336 C335 1.373 . S
C337 C321 1.377 . S
C337 C335 1.389 . S
C337 C338 1.524 . S
C338 C337 1.524 . S
C338 C339 1.397 . S
C338 C343 1.363 . S
C339 H310 0.950 . S
C339 C338 1.397 . S
C339 C340 1.334 . S
C340 H311 0.950 . S
C340 C339 1.334 . S
C340 C341 1.287 . S
C341 C340 1.287 . S
C341 C342 1.524 . S
C341 H344 0.999 . S
C342 H312 0.950 . S
C342 C341 1.524 . S
C342 C343 1.415 . S
C343 H313 0.950 . S
C343 C338 1.363 . S
C343 C342 1.415 . S
H344 C341 0.999 . S
H345 C326 0.913 . S
H346 C364 0.951 . S
H347 C366 0.951 . S
H348 C368 0.950 . S
H349 C369 0.950 . S
H350 C371 0.950 . S
H351 C374 0.950 . S
H352 C375 0.950 . S
H353 C377 0.950 . S
H354 C378 0.950 . S
H355 C379 0.951 . S
H356 C381 0.951 . S
H357 C383 0.950 . S
H358 C384 0.950 . S
H359 C386 0.950 . S
H360 C389 0.950 . S
H361 C390 0.950 1_545 S
H362 C392 0.950 . S
H363 C393 0.950 . S
C364 H346 0.951 . S
C364 C365 1.366 . S
C364 C366 1.388 . S
C365 C364 1.366 . S
C365 C369 1.385 . S
C366 H347 0.951 . S
C366 C364 1.388 . S
C366 C367 1.366 . S
C367 C366 1.366 . S
C367 C368 1.414 . S
C367 C370 1.499 . S
C368 H348 0.950 . S
C368 C367 1.414 . S
C368 C369 1.374 . S
C369 H349 0.950 . S
C369 C365 1.385 . S
C369 C368 1.374 . S
C370 C367 1.499 . S
C370 C371 1.373 . S
C370 C372 1.389 . S
C371 H350 0.950 . S
C371 C370 1.373 . S
C371 C387 1.377 . S
C372 C370 1.389 . S
C372 C373 1.524 . S
C372 C386 1.377 . S
C373 C372 1.524 . S
C373 C374 1.397 . S
C373 C378 1.363 . S
C374 H351 0.950 . S
C374 C373 1.397 . S
C374 C375 1.334 . S
C375 H352 0.950 . S
C375 C374 1.334 . S
C375 C376 1.287 . S
C376 C375 1.287 . S
C376 C377 1.524 . S
C376 H395 0.913 . S
C377 H353 0.950 . S
C377 C376 1.524 . S
C377 C378 1.415 . S
C378 H354 0.950 . S
C378 C373 1.363 . S
C378 C377 1.415 . S
C379 H355 0.951 . S
C379 C380 1.366 . S
C379 C381 1.388 . S
C380 C379 1.366 . S
C380 C384 1.385 . S
C381 H356 0.951 . S
C381 C379 1.388 . S
C381 C382 1.366 . S
C382 C381 1.366 . S
C382 C383 1.414 . S
C382 C385 1.499 . S
C383 H357 0.950 . S
C383 C382 1.414 . S
C383 C384 1.374 . S
C384 H358 0.950 . S
C384 C380 1.385 . S
C384 C383 1.374 . S
C385 C382 1.499 . S
C385 C386 1.373 . S
C385 C387 1.389 . S
C386 H359 0.950 . S
C386 C372 1.377 . S
C386 C385 1.373 . S
C387 C371 1.377 . S
C387 C385 1.389 . S
C387 C388 1.524 . S
C388 C387 1.524 . S
C388 C389 1.397 . S
C388 C393 1.363 . S
C389 H360 0.950 . S
C389 C388 1.397 . S
C389 C390 1.334 . S
C390 H361 0.950 1_565 S
C390 C389 1.334 . S
C390 C391 1.287 1_565 S
C391 C390 1.287 1_545 S
C391 C392 1.524 1_545 S
C391 H394 0.999 . S
C392 H362 0.950 . S
C392 C391 1.524 1_565 S
C392 C393 1.415 . S
C393 H363 0.950 . S
C393 C388 1.363 . S
C393 C392 1.415 . S
H394 C391 0.999 . S
H395 C376 0.913 . S
H396 C414 0.951 . S
H397 C416 0.951 . S
H398 C418 0.950 . S
H399 C419 0.950 . S
H400 C421 0.950 . S
H401 C424 0.950 . S
H402 C425 0.950 . S
H403 C427 0.950 . S
H404 C428 0.950 . S
H405 C429 0.951 . S
H406 C431 0.951 . S
H407 C433 0.950 . S
H408 C434 0.950 . S
H409 C436 0.950 . S
H410 C439 0.950 . S
H411 C440 0.950 . S
H412 C442 0.950 . S
H413 C443 0.950 . S
C414 H396 0.951 . S
C414 C415 1.366 . S
C414 C416 1.388 . S
C415 C414 1.366 . S
C415 C419 1.385 . S
C416 H397 0.951 . S
C416 C414 1.388 . S
C416 C417 1.366 . S
C417 C416 1.366 . S
C417 C418 1.414 . S
C417 C420 1.499 . S
C418 H398 0.950 . S
C418 C417 1.414 . S
C418 C419 1.374 . S
C419 H399 0.950 . S
C419 C415 1.385 . S
C419 C418 1.374 . S
C420 C417 1.499 . S
C420 C421 1.373 1_556 S
C420 C422 1.389 . S
C421 H400 0.950 . S
C421 C420 1.373 1_554 S
C421 C437 1.377 . S
C422 C420 1.389 . S
C422 C423 1.524 . S
C422 C436 1.377 . S
C423 C422 1.524 . S
C423 C424 1.397 . S
C423 C428 1.363 . S
C424 H401 0.950 . S
C424 C423 1.397 . S
C424 C425 1.334 . S
C425 H402 0.950 . S
C425 C424 1.334 . S
C425 C426 1.287 . S
C426 C425 1.287 . S
C426 C427 1.524 . S
C426 H445 0.913 . S
C427 H403 0.950 . S
C427 C426 1.524 . S
C427 C428 1.415 . S
C428 H404 0.950 . S
C428 C423 1.363 . S
C428 C427 1.415 . S
C429 H405 0.951 . S
C429 C430 1.366 . S
C429 C431 1.388 . S
C430 C429 1.366 . S
C430 C434 1.385 . S
C431 H406 0.951 . S
C431 C429 1.388 . S
C431 C432 1.366 . S
C432 C431 1.366 . S
C432 C433 1.414 . S
C432 C435 1.499 . S
C433 H407 0.950 . S
C433 C432 1.414 . S
C433 C434 1.374 . S
C434 H408 0.950 . S
C434 C430 1.385 . S
C434 C433 1.374 . S
C435 C432 1.499 . S
C435 C436 1.373 1_554 S
C435 C437 1.389 . S
C436 H409 0.950 . S
C436 C422 1.377 . S
C436 C435 1.373 1_556 S
C437 C421 1.377 . S
C437 C435 1.389 . S
C437 C438 1.524 . S
C438 C437 1.524 . S
C438 C439 1.397 . S
C438 C443 1.363 . S
C439 H410 0.950 . S
C439 C438 1.397 . S
C439 C440 1.334 . S
C440 H411 0.950 . S
C440 C439 1.334 . S
C440 C441 1.287 . S
C441 C440 1.287 . S
C441 C442 1.524 . S
C441 H444 0.999 . S
C442 H412 0.950 . S
C442 C441 1.524 . S
C442 C443 1.415 . S
C443 H413 0.950 . S
C443 C438 1.363 . S
C443 C442 1.415 . S
H444 C441 0.999 . S
H445 C426 0.913 . S
H446 C464 0.951 . S
H447 C466 0.951 . S
H448 C468 0.950 . S
H449 C469 0.950 . S
H450 C471 0.950 . S
H451 C474 0.950 . S
H452 C475 0.950 . S
H453 C477 0.950 . S
H454 C478 0.950 . S
H455 C479 0.951 . S
H456 C481 0.951 . S
H457 C483 0.950 . S
H458 C484 0.950 . S
H459 C486 0.950 . S
H460 C489 0.950 . S
H461 C490 0.950 . S
H462 C492 0.950 . S
H463 C493 0.950 . S
C464 H446 0.951 . S
C464 C465 1.366 . S
C464 C466 1.388 . S
C465 C464 1.366 . S
C465 C469 1.385 . S
C466 H447 0.951 . S
C466 C464 1.388 . S
C466 C467 1.366 . S
C467 C466 1.366 . S
C467 C468 1.414 . S
C467 C470 1.499 . S
C468 H448 0.950 . S
C468 C467 1.414 . S
C468 C469 1.374 . S
C469 H449 0.950 . S
C469 C465 1.385 . S
C469 C468 1.374 . S
C470 C467 1.499 . S
C470 C471 1.373 . S
C470 C472 1.389 . S
C471 H450 0.950 . S
C471 C470 1.373 . S
C471 C487 1.377 . S
C472 C470 1.389 . S
C472 C473 1.524 . S
C472 C486 1.377 . S
C473 C472 1.524 . S
C473 C474 1.397 . S
C473 C478 1.363 . S
C474 H451 0.950 . S
C474 C473 1.397 . S
C474 C475 1.334 . S
C475 H452 0.950 . S
C475 C474 1.334 . S
C475 C476 1.287 . S
C476 C475 1.287 . S
C476 C477 1.524 . S
C476 H495 0.913 . S
C477 H453 0.950 . S
C477 C476 1.524 . S
C477 C478 1.415 . S
C478 H454 0.950 . S
C478 C473 1.363 . S
C478 C477 1.415 . S
C479 H455 0.951 . S
C479 C480 1.366 . S
C479 C481 1.388 . S
C480 C479 1.366 . S
C480 C484 1.385 . S
C481 H456 0.951 . S
C481 C479 1.388 . S
C481 C482 1.366 . S
C482 C481 1.366 . S
C482 C483 1.414 . S
C482 C485 1.499 . S
C483 H457 0.950 . S
C483 C482 1.414 . S
C483 C484 1.374 . S
C484 H458 0.950 . S
C484 C480 1.385 . S
C484 C483 1.374 . S
C485 C482 1.499 . S
C485 C486 1.373 . S
C485 C487 1.389 . S
C486 H459 0.950 . S
C486 C472 1.377 . S
C486 C485 1.373 . S
C487 C471 1.377 . S
C487 C485 1.389 . S
C487 C488 1.524 . S
C488 C487 1.524 . S
C488 C489 1.397 . S
C488 C493 1.363 . S
C489 H460 0.950 . S
C489 C488 1.397 . S
C489 C490 1.334 . S
C490 H461 0.950 . S
C490 C489 1.334 . S
C490 C491 1.287 . S
C491 C490 1.287 . S
C491 C492 1.524 . S
C491 H494 0.999 . S
C492 H462 0.950 . S
C492 C491 1.524 . S
C492 C493 1.415 . S
C493 H463 0.950 . S
C493 C488 1.363 . S
C493 C492 1.415 . S
H494 C491 0.999 . S
H495 C476 0.913 . S
H496 C514 0.951 . S
H497 C516 0.951 . S
H498 C518 0.950 . S
H499 C519 0.950 . S
H500 C521 0.950 . S
H501 C524 0.950 . S
H502 C525 0.950 . S
H503 C527 0.950 . S
H504 C528 0.950 . S
H505 C529 0.951 . S
H506 C531 0.951 . S
H507 C533 0.950 . S
H508 C534 0.950 . S
H509 C536 0.950 . S
H510 C539 0.950 . S
H511 C540 0.950 . S
H512 C542 0.950 . S
H513 C543 0.950 . S
C514 H496 0.951 . S
C514 C515 1.366 . S
C514 C516 1.388 . S
C515 C514 1.366 . S
C515 C519 1.385 . S
C516 H497 0.951 . S
C516 C514 1.388 . S
C516 C517 1.366 . S
C517 C516 1.366 . S
C517 C518 1.414 . S
C517 C520 1.499 . S
C518 H498 0.950 . S
C518 C517 1.414 . S
C518 C519 1.374 . S
C519 H499 0.950 . S
C519 C515 1.385 . S
C519 C518 1.374 . S
C520 C517 1.499 . S
C520 C521 1.373 . S
C520 C522 1.389 . S
C521 H500 0.950 . S
C521 C520 1.373 . S
C521 C537 1.377 . S
C522 C520 1.389 . S
C522 C523 1.524 . S
C522 C536 1.377 . S
C523 C522 1.524 . S
C523 C524 1.397 . S
C523 C528 1.363 . S
C524 H501 0.950 . S
C524 C523 1.397 . S
C524 C525 1.334 . S
C525 H502 0.950 . S
C525 C524 1.334 . S
C525 C526 1.287 . S
C526 C525 1.287 . S
C526 C527 1.524 . S
C526 H545 0.913 . S
C527 H503 0.950 . S
C527 C526 1.524 . S
C527 C528 1.415 . S
C528 H504 0.950 . S
C528 C523 1.363 . S
C528 C527 1.415 . S
C529 H505 0.951 . S
C529 C530 1.366 . S
C529 C531 1.388 . S
C530 C529 1.366 . S
C530 C534 1.385 . S
C531 H506 0.951 . S
C531 C529 1.388 . S
C531 C532 1.366 . S
C532 C531 1.366 . S
C532 C533 1.414 . S
C532 C535 1.499 . S
C533 H507 0.950 . S
C533 C532 1.414 . S
C533 C534 1.374 . S
C534 H508 0.950 . S
C534 C530 1.385 . S
C534 C533 1.374 . S
C535 C532 1.499 . S
C535 C536 1.373 . S
C535 C537 1.389 . S
C536 H509 0.950 . S
C536 C522 1.377 . S
C536 C535 1.373 . S
C537 C521 1.377 . S
C537 C535 1.389 . S
C537 C538 1.524 . S
C538 C537 1.524 . S
C538 C539 1.397 . S
C538 C543 1.363 . S
C539 H510 0.950 . S
C539 C538 1.397 . S
C539 C540 1.334 . S
C540 H511 0.950 . S
C540 C539 1.334 . S
C540 C541 1.287 . S
C541 C540 1.287 . S
C541 C542 1.524 . S
C541 H544 0.999 . S
C542 H512 0.950 . S
C542 C541 1.524 . S
C542 C543 1.415 . S
C543 H513 0.950 . S
C543 C538 1.363 . S
C543 C542 1.415 . S
H544 C541 0.999 . S
H545 C526 0.913 . S
C115 N18 0.836 . S
C130 N13 0.835 . S
C165 N45 0.836 . S
C180 N50 0.836 . S
C215 N82 0.828 . S
C230 N77 0.828 . S
C265 C70 1.480 . S
C280 C4 1.489 . S
C315 C34 1.900 . S
C330 C6 1.900 . S
C365 C66 1.480 . S
C380 C61 1.488 . S
C415 C93 1.508 . S
C430 C2 1.505 . S
C465 C29 1.102 . S
C480 C36 1.101 . S
C515 C68 1.508 . S
C530 C38 1.504 . S
