# Generated by pormake.
# Topology fny, (5)-cn, num edge types: 1
# Building blocks:
#     Node 0, Type 0, BuildingBlock: XOMCOT_clean_sbu_1, # of connection points: 5
#     Node 1, Type 0, BuildingBlock: XOMCOT_clean_sbu_1, # of connection points: 5
#     Node 2, Type 0, BuildingBlock: XOMCOT_clean_sbu_1, # of connection points: 5
#     Node 3, Type 0, BuildingBlock: XOMCOT_clean_sbu_1, # of connection points: 5
#     Node 4, Type 0, BuildingBlock: XOMCOT_clean_sbu_1, # of connection points: 5
#     Node 5, Type 0, BuildingBlock: XOMCOT_clean_sbu_1, # of connection points: 5
#     Node 6, Type 0, BuildingBlock: XOMCOT_clean_sbu_1, # of connection points: 5
#     Node 7, Type 0, BuildingBlock: XOMCOT_clean_sbu_1, # of connection points: 5
#     Node 8, Type 0, BuildingBlock: XOMCOT_clean_sbu_1, # of connection points: 5
#     Node 9, Type 0, BuildingBlock: XOMCOT_clean_sbu_1, # of connection points: 5
#     Node 10, Type 0, BuildingBlock: XOMCOT_clean_sbu_1, # of connection points: 5
#     Node 11, Type 0, BuildingBlock: XOMCOT_clean_sbu_1, # of connection points: 5
#     Edge 12, Type (0, 0), BuildingBlock: KIFKEQ_clean_linker_1, # of connection points: 2
#     Edge 13, Type (0, 0), BuildingBlock: KIFKEQ_clean_linker_1, # of connection points: 2
#     Edge 14, Type (0, 0), BuildingBlock: KIFKEQ_clean_linker_1, # of connection points: 2
#     Edge 15, Type (0, 0), BuildingBlock: KIFKEQ_clean_linker_1, # of connection points: 2
#     Edge 16, Type (0, 0), BuildingBlock: KIFKEQ_clean_linker_1, # of connection points: 2
#     Edge 17, Type (0, 0), BuildingBlock: KIFKEQ_clean_linker_1, # of connection points: 2
#     Edge 18, Type (0, 0), BuildingBlock: KIFKEQ_clean_linker_1, # of connection points: 2
#     Edge 19, Type (0, 0), BuildingBlock: KIFKEQ_clean_linker_1, # of connection points: 2
#     Edge 20, Type (0, 0), BuildingBlock: KIFKEQ_clean_linker_1, # of connection points: 2
#     Edge 21, Type (0, 0), BuildingBlock: KIFKEQ_clean_linker_1, # of connection points: 2
#     Edge 22, Type (0, 0), BuildingBlock: KIFKEQ_clean_linker_1, # of connection points: 2
#     Edge 23, Type (0, 0), BuildingBlock: KIFKEQ_clean_linker_1, # of connection points: 2
#     Edge 24, Type (0, 0), BuildingBlock: KIFKEQ_clean_linker_1, # of connection points: 2
#     Edge 25, Type (0, 0), BuildingBlock: KIFKEQ_clean_linker_1, # of connection points: 2
#     Edge 26, Type (0, 0), BuildingBlock: KIFKEQ_clean_linker_1, # of connection points: 2
#     Edge 27, Type (0, 0), BuildingBlock: KIFKEQ_clean_linker_1, # of connection points: 2
#     Edge 28, Type (0, 0), BuildingBlock: KIFKEQ_clean_linker_1, # of connection points: 2
#     Edge 29, Type (0, 0), BuildingBlock: KIFKEQ_clean_linker_1, # of connection points: 2
#     Edge 30, Type (0, 0), BuildingBlock: KIFKEQ_clean_linker_1, # of connection points: 2
#     Edge 31, Type (0, 0), BuildingBlock: KIFKEQ_clean_linker_1, # of connection points: 2
#     Edge 32, Type (0, 0), BuildingBlock: KIFKEQ_clean_linker_1, # of connection points: 2
#     Edge 33, Type (0, 0), BuildingBlock: KIFKEQ_clean_linker_1, # of connection points: 2
#     Edge 34, Type (0, 0), BuildingBlock: KIFKEQ_clean_linker_1, # of connection points: 2
#     Edge 35, Type (0, 0), BuildingBlock: KIFKEQ_clean_linker_1, # of connection points: 2
#     Edge 36, Type (0, 0), BuildingBlock: KIFKEQ_clean_linker_1, # of connection points: 2
#     Edge 37, Type (0, 0), BuildingBlock: KIFKEQ_clean_linker_1, # of connection points: 2
#     Edge 38, Type (0, 0), BuildingBlock: KIFKEQ_clean_linker_1, # of connection points: 2
#     Edge 39, Type (0, 0), BuildingBlock: KIFKEQ_clean_linker_1, # of connection points: 2
#     Edge 40, Type (0, 0), BuildingBlock: KIFKEQ_clean_linker_1, # of connection points: 2
#     Edge 41, Type (0, 0), BuildingBlock: KIFKEQ_clean_linker_1, # of connection points: 2
# Relax obj value: 0.261
# Max RMSD: 0.208
# Mean RMSD: 0.208
data_MOF--net-fny--node1-XOMCOT_clean_sbu_1--edge1-KIFKEQ_clean_linker_1
_symmetry_space_group_name_H-M    P1
_symmetry_Int_Tables_number       1
_symmetry_cell_setting            triclinic
loop_
_symmetry_equiv_pos_as_xyz
'x, y, z'
_cell_length_a     62.322001
_cell_length_b     62.393459
_cell_length_c     24.219358
_cell_angle_alpha  89.774899
_cell_angle_beta   90.245333
_cell_angle_gamma 120.01152
loop_
_atom_site_label
_atom_site_type_symbol
_atom_site_fract_x
_atom_site_fract_y
_atom_site_fract_z
_atom_type_partial_charge
C0 C 0.30061 0.47959 0.2712 0.0
C1 C 0.27998 0.47014 0.23773 0.0
N2 N 0.28575 0.48469 0.19285 0.0
N3 N 0.3196 0.4996 0.24688 0.0
C4 C 0.30936 0.50288 0.20065 0.0
H5 H 0.30164 0.4721 0.31078 0.0
Co6 Co 0.35199 0.51777 0.2762 0.0
C7 C 0.36473 0.53641 0.1584 0.0
O8 O 0.354 0.51325 0.14195 0.0
N9 N 0.38319 0.53509 0.30662 0.0
C10 C 0.42287 0.56087 0.32448 0.0
C11 C 0.40238 0.55788 0.29595 0.0
C12 C 0.39217 0.52476 0.34179 0.0
N13 N 0.41633 0.53988 0.35291 0.0
O14 O 0.34162 0.53805 0.31813 0.0
H15 H 0.40168 0.57133 0.2689 0.0
H16 H 0.3812 0.50619 0.358 0.0
O17 O 0.36425 0.541 0.2101 0.0
C18 C 0.33586 0.52834 0.36664 0.0
O19 O 0.33812 0.50881 0.37611 0.0
N20 N 0.36168 0.49592 0.24447 0.0
C21 C 0.38335 0.46567 0.24102 0.0
C22 C 0.39433 0.48869 0.21377 0.0
C23 C 0.3836 0.50375 0.2172 0.0
C24 C 0.35019 0.47307 0.26853 0.0
C25 C 0.36054 0.45776 0.26722 0.0
H26 H 0.39429 0.52256 0.2025 0.0
H27 H 0.3345 0.46767 0.29497 0.0
H28 H 0.31854 0.51853 0.1733 0.0
H29 H 0.26245 0.45345 0.24501 0.0
H30 H 0.4409 0.57747 0.3257 0.0
H31 H 0.41185 0.49581 0.19261 0.0
H32 H 0.35157 0.44077 0.29088 0.0
C33 C 0.83133 0.29918 0.76507 0.0
C34 C 0.82202 0.28141 0.72452 0.0
N35 N 0.82131 0.29223 0.6768 0.0
N36 N 0.83636 0.32108 0.74314 0.0
C37 C 0.83029 0.31634 0.68926 0.0
H38 H 0.83399 0.29628 0.808 0.0
Co39 Co 0.84892 0.35037 0.78222 0.0
C40 C 0.83753 0.38474 0.712 0.0
O41 O 0.85172 0.40429 0.74191 0.0
N42 N 0.86183 0.3793 0.82372 0.0
C43 C 0.86592 0.40942 0.87901 0.0
C44 C 0.84964 0.38972 0.84721 0.0
C45 C 0.88505 0.39211 0.84444 0.0
N46 N 0.88818 0.41091 0.87657 0.0
O47 O 0.81823 0.33634 0.82542 0.0
H48 H 0.83002 0.38305 0.84251 0.0
H49 H 0.89901 0.38686 0.83954 0.0
O50 O 0.83558 0.36371 0.72363 0.0
C51 C 0.82181 0.32988 0.87339 0.0
O52 O 0.84397 0.3333 0.8845 0.0
N53 N 0.87962 0.36266 0.74576 0.0
C54 C 0.93109 0.38654 0.73372 0.0
C55 C 0.91718 0.39582 0.70772 0.0
C56 C 0.8914 0.38355 0.71407 0.0
C57 C 0.89247 0.35196 0.76613 0.0
C58 C 0.9182 0.3636 0.76074 0.0
H59 H 0.88156 0.39208 0.69705 0.0
H60 H 0.8831 0.33569 0.792 0.0
H61 H 0.83244 0.33031 0.6597 0.0
H62 H 0.81552 0.2619 0.73026 0.0
H63 H 0.86136 0.42052 0.90544 0.0
H64 H 0.92625 0.41311 0.68505 0.0
H65 H 0.92798 0.35566 0.78171 0.0
C66 C 0.53931 0.83076 0.26163 0.0
C67 C 0.54555 0.81818 0.2245 0.0
N68 N 0.52481 0.80176 0.19799 0.0
N69 N 0.51482 0.82281 0.25741 0.0
C70 C 0.50641 0.80409 0.22072 0.0
H71 H 0.55224 0.84512 0.28866 0.0
Co72 Co 0.49562 0.83424 0.29238 0.0
C73 C 0.47681 0.82771 0.17555 0.0
O74 O 0.50013 0.83959 0.1599 0.0
N75 N 0.47721 0.84543 0.32798 0.0
C76 C 0.45283 0.86087 0.34645 0.0
C77 C 0.45515 0.8435 0.31605 0.0
C78 C 0.48762 0.8634 0.36603 0.0
N79 N 0.47351 0.87349 0.37721 0.0
O80 O 0.4773 0.80208 0.33034 0.0
H81 H 0.44222 0.83134 0.28528 0.0
H82 H 0.50605 0.87006 0.38247 0.0
O83 O 0.47184 0.82348 0.22741 0.0
C84 C 0.48704 0.8041 0.37827 0.0
O85 O 0.50599 0.82572 0.39172 0.0
N86 N 0.51515 0.86696 0.2632 0.0
C87 C 0.54134 0.91897 0.25594 0.0
C88 C 0.51865 0.90489 0.2284 0.0
C89 C 0.50562 0.87908 0.23357 0.0
C90 C 0.53722 0.8805 0.29008 0.0
C91 C 0.55076 0.9063 0.28625 0.0
H92 H 0.48693 0.86934 0.21786 0.0
H93 H 0.54305 0.87167 0.32015 0.0
H94 H 0.48719 0.79304 0.20861 0.0
H95 H 0.5641 0.822 0.21511 0.0
H96 H 0.43729 0.86408 0.34571 0.0
H97 H 0.51035 0.91377 0.20522 0.0
H98 H 0.56753 0.91627 0.31056 0.0
C99 C 0.72077 0.51459 0.79069 0.0
C100 C 0.7384 0.52383 0.74975 0.0
N101 N 0.72677 0.51614 0.7007 0.0
N102 N 0.69825 0.5009 0.76741 0.0
C103 C 0.70245 0.50247 0.7126 0.0
H104 H 0.72417 0.51731 0.83461 0.0
Co105 Co 0.66849 0.48334 0.80396 0.0
C106 C 0.63302 0.44371 0.7247 0.0
O107 O 0.61413 0.44316 0.74981 0.0
N108 N 0.63846 0.46573 0.84207 0.0
C109 C 0.60598 0.43583 0.88592 0.0
C110 C 0.62792 0.44209 0.86004 0.0
C111 C 0.6228 0.47351 0.85856 0.0
N112 N 0.60278 0.45565 0.88469 0.0
O113 O 0.68164 0.46488 0.84384 0.0
H114 H 0.63562 0.4301 0.85439 0.0
H115 H 0.62591 0.49195 0.85233 0.0
O116 O 0.6552 0.45872 0.74156 0.0
C117 C 0.68718 0.47309 0.89342 0.0
O118 O 0.6824 0.4905 0.90845 0.0
N119 N 0.65791 0.50403 0.77171 0.0
C120 C 0.63978 0.53658 0.75577 0.0
C121 C 0.63365 0.51693 0.71881 0.0
C122 C 0.64307 0.5009 0.72725 0.0
C123 C 0.66619 0.52447 0.8041 0.0
C124 C 0.6571 0.54069 0.79758 0.0
H125 H 0.63785 0.48589 0.69879 0.0
H126 H 0.67837 0.52698 0.83848 0.0
H127 H 0.68804 0.49314 0.68201 0.0
H128 H 0.75824 0.53506 0.75562 0.0
H129 H 0.59391 0.4184 0.90624 0.0
H130 H 0.62123 0.51358 0.68438 0.0
H131 H 0.66253 0.55535 0.82752 0.0
C132 C 0.20613 0.71667 0.26129 0.0
C133 C 0.2089 0.73003 0.21388 0.0
N134 N 0.20461 0.71506 0.17022 0.0
N135 N 0.20038 0.6935 0.24743 0.0
C136 C 0.19906 0.69296 0.19192 0.0
H137 H 0.20888 0.72365 0.30301 0.0
Co138 Co 0.19628 0.66826 0.29427 0.0
C139 C 0.21305 0.63703 0.22822 0.0
O140 O 0.21168 0.62343 0.27093 0.0
N141 N 0.19197 0.64297 0.34316 0.0
C142 C 0.17837 0.62085 0.42008 0.0
C143 C 0.17146 0.62769 0.37222 0.0
C144 C 0.21073 0.64365 0.37257 0.0
N145 N 0.2033 0.63194 0.42126 0.0
O146 O 0.22962 0.69022 0.32562 0.0
H147 H 0.15302 0.62435 0.36365 0.0
H148 H 0.23004 0.65557 0.3624 0.0
O149 O 0.20824 0.65469 0.234 0.0
C150 C 0.22646 0.69807 0.37226 0.0
O151 O 0.2037 0.69198 0.38579 0.0
N152 N 0.16338 0.64949 0.27065 0.0
C153 C 0.11179 0.62538 0.25833 0.0
C154 C 0.126 0.61704 0.22995 0.0
C155 C 0.15191 0.62934 0.23692 0.0
C156 C 0.15004 0.65813 0.29713 0.0
C157 C 0.12442 0.64629 0.29222 0.0
H158 H 0.1625 0.62239 0.21619 0.0
H159 H 0.15942 0.67388 0.32436 0.0
H160 H 0.19432 0.6767 0.16781 0.0
H161 H 0.2149 0.74956 0.2118 0.0
H162 H 0.16622 0.61127 0.45443 0.0
H163 H 0.11725 0.60114 0.20292 0.0
H164 H 0.11466 0.65318 0.31662 0.0
C165 C 0.49807 0.17297 0.77072 0.0
C166 C 0.48447 0.17867 0.73443 0.0
N167 N 0.50012 0.20012 0.70888 0.0
N168 N 0.52216 0.19059 0.76706 0.0
C169 C 0.52271 0.20691 0.72973 0.0
H170 H 0.49096 0.15677 0.79688 0.0
Co171 Co 0.55026 0.19339 0.80045 0.0
C172 C 0.58497 0.20082 0.70932 0.0
O173 O 0.59124 0.1866 0.73685 0.0
N174 N 0.5795 0.19771 0.83355 0.0
C175 C 0.60884 0.19966 0.88902 0.0
C176 C 0.58523 0.18458 0.86899 0.0
C177 C 0.60018 0.22022 0.83157 0.0
N178 N 0.61801 0.22233 0.86618 0.0
O179 O 0.55883 0.22638 0.82749 0.0
H180 H 0.57269 0.16611 0.88362 0.0
H181 H 0.60133 0.23569 0.80868 0.0
O182 O 0.56859 0.20543 0.72906 0.0
C183 C 0.55197 0.22277 0.8782 0.0
O184 O 0.53998 0.19977 0.89595 0.0
N185 N 0.53934 0.16009 0.78278 0.0
C186 C 0.5139 0.1084 0.77446 0.0
C187 C 0.52234 0.12333 0.72684 0.0
C188 C 0.53489 0.14927 0.73184 0.0
C189 C 0.53032 0.14574 0.82882 0.0
C190 C 0.51813 0.12005 0.82582 0.0
H191 H 0.53984 0.16042 0.69483 0.0
H192 H 0.53173 0.15436 0.86831 0.0
H193 H 0.53964 0.2231 0.71651 0.0
H194 H 0.46472 0.16777 0.727 0.0
H195 H 0.61724 0.19515 0.92302 0.0
H196 H 0.51885 0.11506 0.6862 0.0
H197 H 0.51102 0.10937 0.86344 0.0
C198 C 0.54004 0.71442 0.76788 0.0
C199 C 0.54713 0.73461 0.80136 0.0
N200 N 0.52746 0.73064 0.83183 0.0
N201 N 0.51618 0.69737 0.77827 0.0
C202 C 0.5088 0.7085 0.81515 0.0
H203 H 0.55185 0.71267 0.73808 0.0
Co204 Co 0.49645 0.66587 0.74759 0.0
C205 C 0.47979 0.65563 0.86695 0.0
O206 O 0.50319 0.66807 0.88207 0.0
N207 N 0.47731 0.6352 0.71623 0.0
C208 C 0.45073 0.59548 0.70113 0.0
C209 C 0.45478 0.61622 0.7298 0.0
C210 C 0.48634 0.62587 0.67898 0.0
N211 N 0.47079 0.60168 0.66968 0.0
O212 O 0.47679 0.67841 0.71037 0.0
H213 H 0.44241 0.61709 0.75967 0.0
H214 H 0.50452 0.63647 0.66075 0.0
O215 O 0.47439 0.65402 0.81516 0.0
C216 C 0.48507 0.68467 0.66094 0.0
O217 O 0.50305 0.68082 0.6455 0.0
N218 N 0.5174 0.65424 0.77564 0.0
C219 C 0.54664 0.63157 0.78302 0.0
C220 C 0.52508 0.62311 0.81496 0.0
C221 C 0.51037 0.63419 0.80948 0.0
C222 C 0.53827 0.66259 0.7445 0.0
C223 C 0.55319 0.65184 0.74791 0.0
H224 H 0.49247 0.6252 0.82907 0.0
H225 H 0.54193 0.67579 0.71193 0.0
H226 H 0.49019 0.7 0.83125 0.0
H227 H 0.56548 0.7507 0.80368 0.0
H228 H 0.43425 0.57738 0.70288 0.0
H229 H 0.51887 0.60731 0.84216 0.0
H230 H 0.56871 0.65831 0.71991 0.0
C231 C 0.83642 0.53429 0.28492 0.0
C232 C 0.8224 0.54053 0.31772 0.0
N233 N 0.80379 0.5196 0.33932 0.0
N234 N 0.82694 0.50951 0.28658 0.0
C235 C 0.80641 0.50113 0.31793 0.0
H236 H 0.85301 0.54742 0.26362 0.0
Co237 Co 0.83841 0.48915 0.25754 0.0
C238 C 0.8314 0.47522 0.37718 0.0
O239 O 0.84223 0.49895 0.38874 0.0
N240 N 0.84946 0.46913 0.22846 0.0
C241 C 0.86166 0.44156 0.21756 0.0
C242 C 0.84513 0.44653 0.24411 0.0
C243 C 0.86807 0.47722 0.19184 0.0
N244 N 0.87622 0.4611 0.18521 0.0
O245 O 0.80616 0.46921 0.222 0.0
H246 H 0.83149 0.43477 0.27414 0.0
H247 H 0.87624 0.49519 0.17231 0.0
O248 O 0.82817 0.46841 0.3264 0.0
C249 C 0.80816 0.47677 0.17196 0.0
O250 O 0.83 0.49446 0.15557 0.0
N251 N 0.87114 0.51011 0.28413 0.0
C252 C 0.92331 0.53744 0.28632 0.0
C253 C 0.90997 0.51742 0.32262 0.0
C254 C 0.88403 0.50356 0.31969 0.0
C255 C 0.88377 0.52979 0.24959 0.0
C256 C 0.90959 0.54363 0.25001 0.0
H257 H 0.87481 0.48651 0.34275 0.0
H258 H 0.87391 0.53312 0.21697 0.0
H259 H 0.79443 0.48179 0.32796 0.0
H260 H 0.82674 0.55912 0.32829 0.0
H261 H 0.8628 0.42487 0.2216 0.0
H262 H 0.9194 0.51162 0.35142 0.0
H263 H 0.91855 0.55791 0.21904 0.0
C264 C 0.30981 0.83899 0.79069 0.0
C265 C 0.288 0.82374 0.8175 0.0
N266 N 0.28816 0.80308 0.83293 0.0
N267 N 0.32401 0.82825 0.78983 0.0
C268 C 0.30991 0.80608 0.81444 0.0
H269 H 0.31471 0.8569 0.77421 0.0
Co270 Co 0.35569 0.83926 0.76089 0.0
C271 C 0.36134 0.82776 0.87886 0.0
O272 O 0.34824 0.83801 0.89352 0.0
N273 N 0.38659 0.85016 0.73137 0.0
C274 C 0.42658 0.8636 0.71943 0.0
C275 C 0.40544 0.84666 0.74676 0.0
C276 C 0.39642 0.86874 0.69449 0.0
N277 N 0.42079 0.87765 0.68713 0.0
O278 O 0.3425 0.80789 0.7204 0.0
H279 H 0.40425 0.83346 0.77735 0.0
H280 H 0.38599 0.87639 0.6755 0.0
O281 O 0.36515 0.82629 0.82722 0.0
C282 C 0.33705 0.81115 0.67106 0.0
O283 O 0.34117 0.83333 0.65778 0.0
N284 N 0.36863 0.87129 0.79233 0.0
C285 C 0.3976 0.92307 0.79731 0.0
C286 C 0.40286 0.90805 0.83152 0.0
C287 C 0.38845 0.8822 0.8277 0.0
C288 C 0.36288 0.8858 0.7604 0.0
C289 C 0.37678 0.91156 0.76284 0.0
H290 H 0.39516 0.87142 0.84863 0.0
H291 H 0.34933 0.87749 0.72775 0.0
H292 H 0.31593 0.79268 0.82 0.0
H293 H 0.27374 0.82818 0.82723 0.0
H294 H 0.4447 0.86534 0.72292 0.0
H295 H 0.41923 0.91612 0.8575 0.0
H296 H 0.37216 0.92235 0.73517 0.0
C297 C 0.50011 0.29329 0.27281 0.0
C298 C 0.49044 0.27449 0.31123 0.0
N299 N 0.4986 0.28444 0.3616 0.0
N300 N 0.51445 0.31495 0.29878 0.0
C301 C 0.51298 0.30903 0.35281 0.0
H302 H 0.49689 0.2913 0.22875 0.0
Co303 Co 0.53156 0.34565 0.26497 0.0
C304 C 0.56948 0.38066 0.34775 0.0
O305 O 0.56921 0.39945 0.32386 0.0
N306 N 0.54863 0.3765 0.22956 0.0
C307 C 0.57823 0.41023 0.18865 0.0
C308 C 0.57258 0.3882 0.21348 0.0
C309 C 0.54008 0.39157 0.21294 0.0
N310 N 0.55773 0.41232 0.18855 0.0
O311 O 0.55149 0.33459 0.22446 0.0
H312 H 0.58516 0.3812 0.21955 0.0
H313 H 0.5212 0.38741 0.21754 0.0
O314 O 0.55541 0.35861 0.32924 0.0
C315 C 0.54304 0.32975 0.17486 0.0
O316 O 0.52453 0.33335 0.16233 0.0
N317 N 0.50945 0.35434 0.2967 0.0
C318 C 0.47593 0.37159 0.30637 0.0
C319 C 0.49501 0.3781 0.34557 0.0
C320 C 0.51158 0.36914 0.34021 0.0
C321 C 0.48938 0.34547 0.26263 0.0
C322 C 0.47271 0.3541 0.26604 0.0
H323 H 0.52637 0.37491 0.3698 0.0
H324 H 0.48772 0.33344 0.22887 0.0
H325 H 0.52256 0.32245 0.38504 0.0
H326 H 0.47828 0.25504 0.30266 0.0
H327 H 0.59574 0.42306 0.1696 0.0
H328 H 0.49767 0.39063 0.37908 0.0
H329 H 0.4586 0.34836 0.23441 0.0
C330 C 0.20231 0.48882 0.75294 0.0
C331 C 0.20373 0.4726 0.78974 0.0
N332 N 0.20388 0.48072 0.8413 0.0
N333 N 0.202 0.50719 0.7814 0.0
C334 C 0.2027 0.50155 0.83491 0.0
H335 H 0.20255 0.48785 0.7084 0.0
Co336 Co 0.2035 0.53568 0.75395 0.0
C337 C 0.20752 0.56641 0.85142 0.0
O338 O 0.19064 0.56989 0.82714 0.0
N339 N 0.20593 0.56509 0.72739 0.0
C340 C 0.20162 0.59656 0.69848 0.0
C341 C 0.1897 0.57131 0.706 0.0
C342 C 0.22742 0.58682 0.73185 0.0
N343 N 0.22529 0.6062 0.71532 0.0
O344 O 0.23722 0.5468 0.72537 0.0
H345 H 0.17051 0.55865 0.69635 0.0
H346 H 0.24459 0.58853 0.74686 0.0
O347 O 0.21492 0.55269 0.82817 0.0
C348 C 0.23423 0.54249 0.67311 0.0
O349 O 0.21153 0.53234 0.65364 0.0
N350 N 0.16961 0.52199 0.77109 0.0
C351 C 0.11789 0.49211 0.77315 0.0
C352 C 0.13149 0.50111 0.8225 0.0
C353 C 0.15752 0.51567 0.82068 0.0
C354 C 0.15657 0.51304 0.72331 0.0
C355 C 0.13089 0.49861 0.72323 0.0
H356 H 0.16779 0.52084 0.859 0.0
H357 H 0.16633 0.51687 0.68453 0.0
H358 H 0.20377 0.51319 0.86892 0.0
H359 H 0.20542 0.45665 0.77937 0.0
H360 H 0.19393 0.60686 0.67887 0.0
H361 H 0.12224 0.49603 0.86211 0.0
H362 H 0.12133 0.49228 0.68407 0.0
C363 C 0.7043 0.17354 0.27692 0.0
C364 C 0.72224 0.17986 0.31733 0.0
N365 N 0.7253 0.20031 0.34314 0.0
N366 N 0.69626 0.18999 0.2778 0.0
C367 C 0.70971 0.2062 0.31762 0.0
H368 H 0.69712 0.15764 0.24993 0.0
Co369 Co 0.6715 0.19181 0.23931 0.0
C370 C 0.6412 0.19857 0.32486 0.0
O371 O 0.62138 0.18426 0.29541 0.0
N372 N 0.64701 0.19511 0.20122 0.0
C373 C 0.62091 0.19609 0.14005 0.0
C374 C 0.62947 0.18158 0.16339 0.0
C375 C 0.648 0.21723 0.20117 0.0
N376 N 0.63304 0.21874 0.1633 0.0
O377 O 0.69597 0.22516 0.21383 0.0
H378 H 0.62466 0.1633 0.14956 0.0
H379 H 0.66128 0.23291 0.22519 0.0
O380 O 0.66266 0.20336 0.30794 0.0
C381 C 0.70056 0.22238 0.16358 0.0
O382 O 0.69021 0.19971 0.14418 0.0
N383 N 0.64942 0.15831 0.25609 0.0
C384 C 0.62524 0.10661 0.26477 0.0
C385 C 0.62862 0.12134 0.3115 0.0
C386 C 0.6412 0.1473 0.30648 0.0
C387 C 0.6465 0.14422 0.21085 0.0
C388 C 0.6341 0.11852 0.21392 0.0
H389 H 0.6454 0.15835 0.3434 0.0
H390 H 0.65478 0.15311 0.17211 0.0
H391 H 0.70794 0.22208 0.32807 0.0
H392 H 0.73155 0.16971 0.32818 0.0
H393 H 0.60904 0.19128 0.10405 0.0
H394 H 0.6227 0.11299 0.35191 0.0
H395 H 0.63199 0.10811 0.17664 0.0
H396 H 0.36464 0.53128 0.04665 0.0
H397 H 0.3969 0.58672 0.1742 0.0
H398 H 0.39034 0.56148 0.97798 0.0
H399 H 0.42244 0.61753 0.10453 0.0
H400 H 0.48664 0.65514 0.97844 0.0
H401 H 0.45746 0.62863 0.04812 0.0
H402 H 0.39982 0.5967 0.92434 0.0
H403 H 0.42947 0.62296 0.85389 0.0
C404 C 0.377 0.55007 0.06015 0.0
C405 C 0.37871 0.55636 0.11649 0.0
C406 C 0.39172 0.5676 1.02028 0.0
C407 C 0.40874 0.59218 0.03506 0.0
C408 C 0.40989 0.59875 0.09128 0.0
C409 C 0.39506 0.5811 0.13141 0.0
C410 C 0.4677 0.64264 0.96585 0.0
C411 C 0.46062 0.64114 0.90997 0.0
C412 C 0.45079 0.62745 1.00628 0.0
C413 C 0.42609 0.61019 0.99246 0.0
C414 C 0.41874 0.60935 0.93682 0.0
C415 C 0.43573 0.62458 0.89622 0.0
H416 H 0.80992 0.40677 0.70156 0.0
H417 H 0.84436 0.37424 0.60572 0.0
H418 H 0.80268 0.42408 0.61803 0.0
H419 H 0.83843 0.39274 0.52159 0.0
H420 H 0.81882 0.42582 0.37292 0.0
H421 H 0.81441 0.39869 0.45096 0.0
H422 H 0.82888 0.45795 0.56381 0.0
H423 H 0.83242 0.4843 0.48701 0.0
C424 C 0.81542 0.40286 0.66219 0.0
C425 C 0.82754 0.38904 0.6601 0.0
C426 C 0.81164 0.41311 0.61422 0.0
C427 C 0.82059 0.41053 0.56278 0.0
C428 C 0.8312 0.39516 0.56016 0.0
C429 C 0.83454 0.38444 0.60837 0.0
C430 C 0.82064 0.43284 0.41449 0.0
C431 C 0.82608 0.45735 0.42344 0.0
C432 C 0.81831 0.41733 0.45933 0.0
C433 C 0.82118 0.42592 0.5142 0.0
C434 C 0.82598 0.45025 0.52266 0.0
C435 C 0.82828 0.4656 0.47821 0.0
H436 H 0.42662 0.81073 0.1895 0.0
H437 H 0.48277 0.83274 0.06395 0.0
H438 H 0.39653 0.80627 0.11854 0.0
H439 H 0.45334 0.82924 0.99401 0.0
H440 H 0.39345 0.8095 0.8674 0.0
H441 H 0.41863 0.80493 0.93905 0.0
H442 H 0.38617 0.83032 0.06135 0.0
H443 H 0.36059 0.83398 0.99044 0.0
C444 C 0.43254 0.81445 0.14686 0.0
C445 C 0.45727 0.82228 0.13287 0.0
C446 C 0.41531 0.81212 0.10599 0.0
C447 C 0.42232 0.81755 0.04995 0.0
C448 C 0.44688 0.82452 0.03612 0.0
C449 C 0.46397 0.82677 0.07672 0.0
C450 C 0.39147 0.8138 0.90966 0.0
C451 C 0.37502 0.8223 0.92266 0.0
C452 C 0.40609 0.81137 0.95097 0.0
C453 C 0.40483 0.81749 1.00656 0.0
C454 C 0.38766 0.8251 1.01958 0.0
C455 C 0.373 0.82739 0.97846 0.0
H456 H 0.5615 0.34913 0.43597 0.0
H457 H 0.60924 0.42402 0.37967 0.0
H458 H 0.58046 0.36079 0.52794 0.0
H459 H 0.62781 0.4357 0.47078 0.0
H460 H 0.6644 0.45209 0.6364 0.0
H461 H 0.65268 0.43326 0.54454 0.0
H462 H 0.5779 0.38538 0.60167 0.0
H463 H 0.58964 0.40382 0.69274 0.0
C464 C 0.57636 0.3679 0.44278 0.0
C465 C 0.58361 0.38567 0.4005 0.0
C466 C 0.58714 0.37468 0.49566 0.0
C467 C 0.60559 0.39932 0.50727 0.0
C468 C 0.61389 0.41655 0.46372 0.0
C469 C 0.60303 0.40985 0.41132 0.0
C470 C 0.64564 0.43717 0.62961 0.0
C471 C 0.62792 0.42972 0.6719 0.0
C472 C 0.63882 0.42645 0.57679 0.0
C473 C 0.6142 0.40788 0.5652 0.0
C474 C 0.59703 0.39941 0.60873 0.0
C475 C 0.60377 0.41019 0.66111 0.0
H476 H 0.23164 0.60658 0.2041 0.0
H477 H 0.20325 0.64949 0.12548 0.0
H478 H 0.23521 0.59111 0.11436 0.0
H479 H 0.20611 0.63364 0.03605 0.0
H480 H 0.2258 0.61462 0.8748 0.0
H481 H 0.23115 0.63356 0.96523 0.0
H482 H 0.21203 0.56368 0.04251 0.0
H483 H 0.20781 0.54516 0.95111 0.0
C484 C 0.22627 0.61289 0.16763 0.0
C485 C 0.21728 0.62953 0.17242 0.0
C486 C 0.22815 0.60381 0.11594 0.0
C487 C 0.22096 0.61094 0.0672 0.0
C488 C 0.21237 0.62795 0.07205 0.0
C489 C 0.21066 0.63714 0.12372 0.0
C490 C 0.22353 0.60354 0.91124 0.0
C491 C 0.21671 0.57851 0.90585 0.0
C492 C 0.22616 0.61429 0.96331 0.0
C493 C 0.2215 0.60018 1.01189 0.0
C494 C 0.21597 0.57535 1.00644 0.0
C495 C 0.21367 0.56466 0.95398 0.0
H496 H 0.60894 0.21397 0.35195 0.0
H497 H 0.6644 0.19995 0.4221 0.0
H498 H 0.59785 0.22089 0.44365 0.0
H499 H 0.65225 0.20491 0.51451 0.0
H500 H 0.63298 0.22105 0.67924 0.0
H501 H 0.64964 0.22667 0.58625 0.0
H502 H 0.57607 0.20053 0.51977 0.0
H503 H 0.56017 0.19693 0.61313 0.0
C504 C 0.61888 0.21254 0.38729 0.0
C505 C 0.63757 0.2065 0.37995 0.0
C506 C 0.61229 0.21617 0.44017 0.0
C507 C 0.62368 0.21307 0.48756 0.0
C508 C 0.64313 0.20791 0.4797 0.0
C509 C 0.65017 0.20496 0.42653 0.0
C510 C 0.6206 0.21725 0.64444 0.0
C511 C 0.59535 0.20875 0.65326 0.0
C512 C 0.63004 0.22006 0.5909 0.0
C513 C 0.6143 0.21361 0.54451 0.0
C514 C 0.58909 0.20609 0.5537 0.0
C515 C 0.57981 0.20397 0.60742 0.0
H516 H 0.59216 0.4598 0.1671 0.0
H517 H 0.5151 0.40574 0.14101 0.0
H518 H 0.59141 0.48237 0.08686 0.0
H519 H 0.51395 0.4289 0.06152 0.0
H520 H 0.60772 0.49791 0.92928 0.0
H521 H 0.58357 0.49898 1.00645 0.0
H522 H 0.53234 0.42074 0.98519 0.0
H523 H 0.55593 0.42005 0.90728 0.0
C524 C 0.57477 0.45328 0.14537 0.0
C525 C 0.55428 0.43014 0.15777 0.0
C526 C 0.5741 0.4665 0.0996 0.0
C527 C 0.55298 0.45638 0.06521 0.0
C528 C 0.53086 0.43645 0.08561 0.0
C529 C 0.53158 0.42308 0.13125 0.0
C530 C 0.59066 0.48119 0.93944 0.0
C531 C 0.58449 0.45844 0.91474 0.0
C532 C 0.57672 0.48185 0.98372 0.0
C533 C 0.55705 0.45966 1.00458 0.0
C534 C 0.54793 0.43816 0.97196 0.0
C535 C 0.56173 0.43754 0.92762 0.0
H536 H 0.19012 0.64001 0.52157 0.0
H537 H 0.252 0.64609 0.42919 0.0
H538 H 0.21577 0.65668 0.60117 0.0
H539 H 0.27884 0.66431 0.5095 0.0
H540 H 0.26682 0.61544 0.66154 0.0
H541 H 0.28303 0.64613 0.58943 0.0
H542 H 0.24781 0.68338 0.6624 0.0
H543 H 0.22954 0.65111 0.73275 0.0
C544 C 0.20929 0.64469 0.51847 0.0
C545 C 0.21866 0.6405 0.46979 0.0
C546 C 0.22452 0.65524 0.56398 0.0
C547 C 0.24974 0.66181 0.5627 0.0
C548 C 0.25953 0.65922 0.51256 0.0
C549 C 0.2441 0.64845 0.4668 0.0
C550 C 0.26347 0.63085 0.66395 0.0
C551 C 0.24526 0.62992 0.69938 0.0
C552 C 0.27297 0.64878 0.62253 0.0
C553 C 0.26293 0.66443 0.61595 0.0
C554 C 0.25324 0.66937 0.66356 0.0
C555 C 0.24259 0.65086 0.70377 0.0
H556 H 0.5996 0.22771 0.11324 0.0
H557 H 0.67751 0.26082 0.15112 0.0
H558 H 0.60955 0.25546 0.03529 0.0
H559 H 0.68755 0.28813 0.07237 0.0
H560 H 0.61463 0.26375 0.88136 0.0
H561 H 0.63093 0.28923 0.96269 0.0
H562 H 0.67852 0.25854 0.9925 0.0
H563 H 0.66171 0.23253 0.91183 0.0
C564 C 0.61874 0.24181 0.10658 0.0
C565 C 0.63773 0.24122 0.1363 0.0
C566 C 0.62459 0.25805 0.06217 0.0
C567 C 0.64953 0.27301 0.0459 0.0
C568 C 0.66823 0.27633 0.08315 0.0
C569 C 0.66237 0.26036 0.12814 0.0
C570 C 0.62964 0.26342 0.9032 0.0
C571 C 0.63585 0.24497 0.8925 0.0
C572 C 0.63921 0.27839 0.94975 0.0
C573 C 0.65462 0.27458 0.98593 0.0
C574 C 0.66579 0.26118 0.96666 0.0
C575 C 0.65599 0.24594 0.9206 0.0
H576 H 0.45278 0.55215 0.67526 0.0
H577 H 0.49726 0.61695 0.57572 0.0
H578 H 0.45015 0.52582 0.59822 0.0
H579 H 0.49399 0.5914 0.49912 0.0
H580 H 0.46598 0.5581 0.3536 0.0
H581 H 0.49059 0.56277 0.43605 0.0
H582 H 0.42292 0.51807 0.5276 0.0
H583 H 0.39909 0.51258 0.44573 0.0
C584 C 0.46229 0.56072 0.63718 0.0
C585 C 0.47416 0.58648 0.63038 0.0
C586 C 0.46097 0.54571 0.59314 0.0
C587 C 0.47059 0.5563 0.54114 0.0
C588 C 0.48584 0.5822 0.53773 0.0
C589 C 0.48754 0.59711 0.58189 0.0
C590 C 0.45662 0.54866 0.39119 0.0
C591 C 0.43068 0.53616 0.39431 0.0
C592 C 0.47064 0.55122 0.43838 0.0
C593 C 0.45877 0.54237 0.48961 0.0
C594 C 0.433 0.5259 0.48971 0.0
C595 C 0.41908 0.52288 0.44239 0.0
H596 H 0.90577 0.44081 0.19571 0.0
H597 H 0.89108 0.48847 0.09209 0.0
H598 H 0.93139 0.43825 0.12303 0.0
H599 H 0.91541 0.48553 1.02004 0.0
H600 H 0.9218 0.4595 0.8777 0.0
H601 H 0.94201 0.48246 0.96167 0.0
H602 H 0.91532 0.41293 0.04862 0.0
H603 H 0.89751 0.39082 0.96389 0.0
C604 C 0.90827 0.45097 0.15769 0.0
C605 C 0.89545 0.46382 0.14844 0.0
C606 C 0.9231 0.44969 0.11616 0.0
C607 C 0.92453 0.46051 0.06412 0.0
C608 C 0.91473 0.47647 0.05868 0.0
C609 C 0.9003 0.478 0.10026 0.0
C610 C 0.92168 0.44946 0.91439 0.0
C611 C 0.90752 0.42364 0.91585 0.0
C612 C 0.93303 0.46246 0.9626 0.0
C613 C 0.92843 0.4496 1.01314 0.0
C614 C 0.91861 0.42376 1.01139 0.0
C615 C 0.90813 0.41085 0.96277 0.0
H616 H 0.5013 0.88329 0.46908 0.0
H617 H 0.45953 0.90827 0.37298 0.0
H618 H 0.50097 0.90671 0.54657 0.0
H619 H 0.46 0.9332 0.4509 0.0
H620 H 0.40639 0.89235 0.5959 0.0
H621 H 0.43195 0.91363 0.51892 0.0
H622 H 0.4973 0.92986 0.61412 0.0
H623 H 0.47089 0.90729 0.6921 0.0
C624 C 0.49281 0.89464 0.46389 0.0
C625 C 0.47906 0.89276 0.4164 0.0
C626 C 0.49284 0.90854 0.50856 0.0
C627 C 0.47881 0.92056 0.50667 0.0
C628 C 0.46958 0.92282 0.45503 0.0
C629 C 0.46909 0.90841 0.41052 0.0
C630 C 0.42623 0.90102 0.60143 0.0
C631 C 0.43652 0.89663 0.64878 0.0
C632 C 0.44121 0.91371 0.55684 0.0
C633 C 0.46675 0.92187 0.55854 0.0
C634 C 0.47749 0.92226 0.61013 0.0
C635 C 0.46239 0.90914 0.65469 0.0
H636 H 0.18766 0.48324 0.94283 0.0
H637 H 0.23336 0.46075 0.85555 0.0
H638 H 0.20501 0.47958 0.03043 0.0
H639 H 0.25027 0.45639 0.94331 0.0
H640 H 0.2356 0.46132 0.18408 0.0
H641 H 0.21139 0.45343 0.09888 0.0
H642 H 0.27923 0.48993 1.00481 0.0
H643 H 0.30314 0.49725 0.08898 0.0
C644 C 0.20097 0.4769 0.94258 0.0
C645 C 0.2095 0.47271 0.89237 0.0
C646 C 0.21076 0.47462 0.99274 0.0
C647 C 0.22931 0.46812 0.99363 0.0
C648 C 0.23629 0.46186 0.94373 0.0
C649 C 0.22642 0.46408 0.89353 0.0
C650 C 0.24523 0.46745 0.14507 0.0
C651 C 0.27126 0.48016 0.14331 0.0
C652 C 0.23142 0.46299 0.09642 0.0
C653 C 0.24341 0.47088 0.04513 0.0
C654 C 0.26941 0.48323 0.0435 0.0
C655 C 0.28314 0.48783 0.09193 0.0
H656 H 0.81691 0.24919 0.63948 0.0
H657 H 0.80163 0.30754 0.59634 0.0
H658 H 0.79493 0.22645 0.55662 0.0
H659 H 0.78056 0.2853 0.51307 0.0
H660 H 0.71489 0.22395 0.42238 0.0
H661 H 0.74063 0.24689 0.5001 0.0
H662 H 0.79519 0.22715 0.45228 0.0
H663 H 0.76915 0.20404 0.37314 0.0
C664 C 0.80907 0.25727 0.6122 0.0
C665 C 0.81079 0.28007 0.62504 0.0
C666 C 0.79673 0.24436 0.56445 0.0
C667 C 0.78579 0.25397 0.52876 0.0
C668 C 0.78848 0.27725 0.54031 0.0
C669 C 0.80081 0.29014 0.58784 0.0
C670 C 0.7325 0.2247 0.4278 0.0
C671 C 0.74022 0.21258 0.39089 0.0
C672 C 0.74726 0.23786 0.47246 0.0
C673 C 0.77015 0.23923 0.48168 0.0
C674 C 0.77763 0.22644 0.44603 0.0
C675 C 0.76276 0.21321 0.4009 0.0
H676 H 0.55263 0.78186 0.16668 0.0
H677 H 0.49507 0.79625 0.11151 0.0
H678 H 0.55335 0.76572 0.07528 0.0
H679 H 0.49637 0.78124 1.02029 0.0
H680 H 0.48758 0.72946 0.8797 0.0
H681 H 0.48629 0.74542 0.96983 0.0
H682 H 0.56594 0.77956 0.98306 0.0
H683 H 0.56703 0.76202 0.89462 0.0
C684 C 0.54012 0.78147 0.13502 0.0
C685 C 0.52367 0.79006 0.1463 0.0
C686 C 0.54067 0.77251 0.0826 0.0
C687 C 0.52503 0.77235 0.04028 0.0
C688 C 0.50838 0.78068 0.05201 0.0
C689 C 0.50759 0.78926 0.10448 0.0
C690 C 0.50484 0.74028 0.90177 0.0
C691 C 0.52735 0.74402 0.88006 0.0
C692 C 0.50413 0.7497 0.95336 0.0
C693 C 0.52599 0.76349 0.98412 0.0
C694 C 0.54868 0.76847 0.96108 0.0
C695 C 0.54935 0.75877 0.90973 0.0
H696 H 0.77056 0.5191 0.6785 0.0
H697 H 0.70797 0.51938 0.6021 0.0
H698 H 0.78772 0.52016 0.58755 0.0
H699 H 0.72521 0.52036 0.51065 0.0
H700 H 0.79086 0.48687 0.42333 0.0
H701 H 0.77147 0.48736 0.50974 0.0
H702 H 0.7654 0.54967 0.45209 0.0
H703 H 0.78498 0.54919 0.36457 0.0
C704 C 0.76068 0.51979 0.64229 0.0
C705 C 0.73791 0.51908 0.64731 0.0
C706 C 0.77037 0.52015 0.5903 0.0
C707 C 0.75762 0.5201 0.54231 0.0
C708 C 0.73534 0.5204 0.54714 0.0
C709 C 0.72546 0.5197 0.59928 0.0
C710 C 0.78492 0.50034 0.42832 0.0
C711 C 0.78937 0.51798 0.38702 0.0
C712 C 0.7741 0.50079 0.47813 0.0
C713 C 0.76725 0.51872 0.48763 0.0
C714 C 0.77058 0.53568 0.4456 0.0
C715 C 0.78177 0.53544 0.39579 0.0
H716 H 0.20298 0.75318 0.12036 0.0
H717 H 0.21773 0.69352 0.09019 0.0
H718 H 0.21843 0.76969 0.0285 0.0
H719 H 0.23223 0.70947 0.99808 0.0
H720 H 0.2974 0.77379 0.90039 0.0
H721 H 0.27115 0.74736 0.9736 0.0
H722 H 0.21389 0.76358 0.92612 0.0
H723 H 0.24014 0.78992 0.85142 0.0
C724 C 0.20904 0.74333 0.09383 0.0
C725 C 0.20948 0.72228 0.11307 0.0
C726 C 0.21759 0.75259 0.04096 0.0
C727 C 0.22674 0.74096 1.00642 0.0
C728 C 0.22552 0.71895 1.02413 0.0
C729 C 0.21699 0.7097 0.07688 0.0
C730 C 0.27898 0.77122 0.90408 0.0
C731 C 0.27106 0.78431 0.87024 0.0
C732 C 0.26387 0.756 0.94627 0.0
C733 C 0.24053 0.75355 0.95577 0.0
C734 C 0.23195 0.76542 0.92007 0.0
C735 C 0.24703 0.78055 0.87749 0.0
H736 H 0.52438 0.24904 0.68599 0.0
H737 H 0.46444 0.17874 0.63024 0.0
H738 H 0.52034 0.26892 0.60328 0.0
H739 H 0.45968 0.19883 0.54795 0.0
H740 H 0.48802 0.2371 0.37721 0.0
H741 H 0.48405 0.21631 0.46482 0.0
H742 H 0.49523 0.28144 0.55189 0.0
H743 H 0.49935 0.30232 0.46399 0.0
C744 C 0.5101 0.23789 0.65632 0.0
C745 C 0.49498 0.21225 0.66426 0.0
C746 C 0.50757 0.24934 0.60914 0.0
C747 C 0.4898 0.23545 0.5687 0.0
C748 C 0.4738 0.21 0.57796 0.0
C749 C 0.47632 0.19852 0.62536 0.0
C750 C 0.48919 0.24686 0.41493 0.0
C751 C 0.49424 0.27148 0.41348 0.0
C752 C 0.48684 0.23489 0.46529 0.0
C753 C 0.48942 0.24722 0.51546 0.0
C754 C 0.49355 0.27154 0.51401 0.0
C755 C 0.49596 0.28354 0.46361 0.0
H756 H 0.68753 0.47718 1.00482 0.0
H757 H 0.71647 0.45186 0.87477 0.0
H758 H 0.71356 0.47195 0.0718 0.0
H759 H 0.74248 0.44598 0.94271 0.0
H760 H 0.811 0.47948 0.06036 0.0
H761 H 0.77897 0.4725 0.99399 0.0
H762 H 0.72492 0.44692 0.12517 0.0
H763 H 0.75761 0.45458 0.1925 0.0
C764 C 0.69915 0.46998 0.99058 0.0
C765 C 0.70002 0.46518 0.93406 0.0
C766 C 0.71402 0.46676 0.02941 0.0
C767 C 0.73045 0.4587 1.01317 0.0
C768 C 0.73037 0.45258 0.95692 0.0
C769 C 0.71528 0.45571 0.91786 0.0
C770 C 0.79222 0.472 0.07523 0.0
C771 C 0.78701 0.46783 0.1321 0.0
C772 C 0.77368 0.46776 0.03677 0.0
C773 C 0.74917 0.45927 0.05369 0.0
C774 C 0.74362 0.45381 0.1104 0.0
C775 C 0.7623 0.45796 0.14912 0.0
H776 H 0.22005 0.69642 0.48294 0.0
H777 H 0.27757 0.72832 0.35988 0.0
H778 H 0.24962 0.72015 0.55452 0.0
H779 H 0.30775 0.75244 0.43257 0.0
H780 H 0.33962 0.8174 0.56009 0.0
H781 H 0.3163 0.78753 0.48863 0.0
H782 H 0.28479 0.72953 0.61142 0.0
H783 H 0.30818 0.76001 0.68393 0.0
C784 C 0.2392 0.70839 0.47108 0.0
C785 C 0.24627 0.71071 0.41515 0.0
C786 C 0.25632 0.72191 0.51264 0.0
C787 C 0.28123 0.73858 0.4999 0.0
C788 C 0.28866 0.74008 0.44415 0.0
C789 C 0.27142 0.72616 0.40232 0.0
C790 C 0.32801 0.79821 0.57207 0.0
C791 C 0.32567 0.79125 0.62815 0.0
C792 C 0.31472 0.78092 0.53065 0.0
C793 C 0.29837 0.75595 0.54366 0.0
C794 C 0.29692 0.74864 0.5996 0.0
C795 C 0.31049 0.76606 0.64131 0.0
H796 H 0.57074 0.3061 0.18473 0.0
H797 H 0.5357 0.32997 0.06458 0.0
H798 H 0.57963 0.28458 0.11134 0.0
H799 H 0.54367 0.30815 0.99258 0.0
H800 H 0.56521 0.2721 0.8612 0.0
H801 H 0.56998 0.30227 0.93219 0.0
H802 H 0.55672 0.24821 0.05919 0.0
H803 H 0.55272 0.2189 0.98941 0.0
C804 C 0.56526 0.30708 0.14272 0.0
C805 C 0.55222 0.31954 0.13096 0.0
C806 C 0.57014 0.29456 0.10053 0.0
C807 C 0.56214 0.29425 0.04555 0.0
C808 C 0.55041 0.30799 0.03376 0.0
C809 C 0.54557 0.32037 0.07561 0.0
C810 C 0.56372 0.26691 0.90433 0.0
C811 C 0.55805 0.24286 0.91927 0.0
C812 C 0.56629 0.28412 0.94521 0.0
C813 C 0.56343 0.27774 1.00198 0.0
C814 C 0.55925 0.25413 1.01648 0.0
C815 C 0.55661 0.23708 0.97596 0.0
H816 H 0.31708 0.56078 0.36439 0.0
H817 H 0.33225 0.51549 0.47477 0.0
H818 H 0.29732 0.57022 0.44079 0.0
H819 H 0.31206 0.52397 0.54942 0.0
H820 H 0.28083 0.54699 0.68896 0.0
H821 H 0.30952 0.54937 0.61663 0.0
H822 H 0.26079 0.55153 0.49206 0.0
H823 H 0.23318 0.55014 0.56344 0.0
C824 C 0.31645 0.55304 0.40484 0.0
C825 C 0.32613 0.53715 0.41277 0.0
C826 C 0.3049 0.55824 0.44885 0.0
C827 C 0.30271 0.54773 0.50204 0.0
C828 C 0.31343 0.53278 0.50998 0.0
C829 C 0.32489 0.52766 0.46641 0.0
C830 C 0.27664 0.54858 0.64621 0.0
C831 C 0.25449 0.5481 0.63237 0.0
C832 C 0.29295 0.54965 0.60437 0.0
C833 C 0.28755 0.55032 0.5476 0.0
C834 C 0.26604 0.55127 0.53461 0.0
C835 C 0.24992 0.55022 0.57605 0.0
H836 H 0.7404 0.26934 0.18471 0.0
H837 H 0.69435 0.22218 0.05312 0.0
H838 H 0.76798 0.29954 0.11582 0.0
H839 H 0.72172 0.25157 0.98503 0.0
H840 H 0.77097 0.31145 0.86561 0.0
H841 H 0.73987 0.29016 0.9381 0.0
H842 H 0.798 0.30154 0.05248 0.0
H843 H 0.82861 0.32302 0.98144 0.0
C844 C 0.73594 0.26561 0.14128 0.0
C845 C 0.71543 0.24314 0.12454 0.0
C846 C 0.75184 0.28278 0.10159 0.0
C847 C 0.74744 0.27796 0.04433 0.0
C848 C 0.72589 0.25621 0.02825 0.0
C849 C 0.71023 0.23913 0.06762 0.0
C850 C 0.77705 0.30967 0.90646 0.0
C851 C 0.80234 0.31875 0.91719 0.0
C852 C 0.75922 0.29734 0.94812 0.0
C853 C 0.76626 0.2939 1.00161 0.0
C854 C 0.79167 0.30398 1.01249 0.0
C855 C 0.80933 0.31613 0.97113 0.0
H856 H 0.49302 0.80842 0.4893 0.0
H857 H 0.46301 0.75307 0.36138 0.0
H858 H 0.4866 0.77708 0.55708 0.0
H859 H 0.4561 0.72112 0.43017 0.0
H860 H 0.48646 0.68309 0.54933 0.0
H861 H 0.4812 0.70899 0.48193 0.0
H862 H 0.46003 0.74172 0.61219 0.0
H863 H 0.4658 0.71571 0.68041 0.0
C864 C 0.48458 0.78938 0.47567 0.0
C865 C 0.47872 0.78342 0.41945 0.0
C866 C 0.48069 0.77124 0.51501 0.0
C867 C 0.47091 0.74634 0.49973 0.0
C868 C 0.46396 0.7401 0.44375 0.0
C869 C 0.46769 0.75838 0.40418 0.0
C870 C 0.48023 0.69548 0.56375 0.0
C871 C 0.47669 0.69731 0.62064 0.0
C872 C 0.47704 0.71033 0.52471 0.0
C873 C 0.47035 0.7278 0.54101 0.0
C874 C 0.46553 0.72878 0.59779 0.0
C875 C 0.46855 0.71365 0.63707 0.0
H876 H 0.3633 0.41516 0.2535 0.0
H877 H 0.43381 0.48318 0.24496 0.0
H878 H 0.38435 0.39275 0.27673 0.0
H879 H 0.455 0.46024 0.26112 0.0
H880 H 0.48961 0.41937 0.33675 0.0
H881 H 0.46687 0.44108 0.32355 0.0
H882 H 0.40646 0.37535 0.24998 0.0
H883 H 0.42781 0.35294 0.26956 0.0
C884 C 0.38332 0.42544 0.25594 0.0
C885 C 0.3966 0.45125 0.24767 0.0
C886 C 0.39557 0.41235 0.26839 0.0
C887 C 0.42163 0.42444 0.27126 0.0
C888 C 0.43496 0.45012 0.26088 0.0
C889 C 0.42268 0.46333 0.25003 0.0
C890 C 0.47115 0.40925 0.31937 0.0
C891 C 0.46086 0.38428 0.30384 0.0
C892 C 0.45822 0.42198 0.31043 0.0
C893 C 0.4348 0.41037 0.28444 0.0
C894 C 0.42425 0.38519 0.27049 0.0
C895 C 0.43685 0.37229 0.28085 0.0
H896 H 0.09138 0.45066 0.71053 0.0
H897 H 0.08228 0.49522 0.83394 0.0
H898 H 0.04673 0.42548 0.70088 0.0
H899 H 0.0372 0.46919 0.82599 0.0
H900 H 0.95959 0.43664 0.74935 0.0
H901 H 1.00431 0.46119 0.76176 0.0
H902 H 1.00977 0.3952 0.74448 0.0
H903 H 0.9652 0.37084 0.72936 0.0
C904 C 0.0798 0.45502 0.73593 0.0
C905 C 0.09047 0.47524 0.77248 0.0
C906 C 0.0541 0.44034 0.73082 0.0
C907 C 0.03821 0.4453 0.76236 0.0
C908 C 0.04885 0.46505 0.80033 0.0
C909 C 0.07469 0.4798 0.80544 0.0
C910 C 0.97036 0.4274 0.74704 0.0
C911 C 0.95869 0.40171 0.73777 0.0
C912 C 0.99602 0.44146 0.75523 0.0
C913 C 1.01076 0.43024 0.7545 0.0
C914 C 0.99911 0.40458 0.74485 0.0
C915 C 0.97346 0.39053 0.73656 0.0
H916 H 0.64008 0.07743 0.21269 0.0
H917 H 0.58459 0.07344 0.32515 0.0
H918 H 0.61981 0.03265 0.21108 0.0
H919 H 0.56482 0.02825 0.32579 0.0
H920 H 0.52003 0.94826 0.26259 0.0
H921 H 0.54056 0.9932 0.26747 0.0
H922 H 0.61181 0.99728 0.26282 0.0
H923 H 0.59127 0.95244 0.25482 0.0
C924 C 0.62353 0.06698 0.23729 0.0
C925 C 0.61376 0.07913 0.26839 0.0
C926 C 0.61206 0.04119 0.23696 0.0
C927 C 0.59056 0.02665 0.26813 0.0
C928 C 0.58113 0.03879 0.30055 0.0
C929 C 0.59262 0.06472 0.30076 0.0
C930 C 0.54008 0.95873 0.26155 0.0
C931 C 0.55394 0.9466 0.25765 0.0
C932 C 0.55189 0.98456 0.26539 0.0
C933 C 0.57791 0.99902 0.26567 0.0
C934 C 0.59176 0.98687 0.26203 0.0
C935 C 0.57995 0.96106 0.25794 0.0
H936 H 0.5292 0.58154 0.79603 0.0
H937 H 0.59666 0.65075 0.76594 0.0
H938 H 0.552 0.55962 0.78895 0.0
H939 H 0.6189 0.62858 0.75321 0.0
H940 H 0.65864 0.58564 0.78363 0.0
H941 H 0.63643 0.60795 0.79368 0.0
H942 H 0.57021 0.54498 0.72892 0.0
H943 H 0.59182 0.52176 0.72422 0.0
C944 C 0.54891 0.59221 0.78816 0.0
C945 C 0.56093 0.6181 0.78169 0.0
C946 C 0.56198 0.57946 0.78279 0.0
C947 C 0.58741 0.5921 0.76975 0.0
C948 C 0.59946 0.61802 0.76388 0.0
C949 C 0.58652 0.63081 0.77037 0.0
C950 C 0.63925 0.57633 0.77213 0.0
C951 C 0.62709 0.5516 0.75382 0.0
C952 C 0.6265 0.58938 0.77707 0.0
C953 C 0.60128 0.57838 0.76262 0.0
C954 C 0.5894 0.55402 0.7419 0.0
C955 C 0.60204 0.54078 0.73801 0.0
H956 H 0.08146 0.64554 0.26485 0.0
H957 H 0.07858 0.57536 0.24431 0.0
H958 H 0.03724 0.62455 0.27472 0.0
H959 H 0.03361 0.55432 0.24705 0.0
H960 H 0.95483 0.51918 0.3092 0.0
H961 H 0.99942 0.54008 0.30086 0.0
H962 H 0.99946 0.60517 0.23846 0.0
H963 H 0.95557 0.58556 0.254 0.0
C964 C 0.07143 0.62555 0.26193 0.0
C965 C 0.08402 0.61226 0.25519 0.0
C966 C 0.04566 0.61338 0.26638 0.0
C967 C 0.03128 0.58745 0.26203 0.0
C968 C 0.04377 0.5742 0.25222 0.0
C969 C 0.06975 0.58639 0.24941 0.0
C970 C 0.96432 0.53821 0.29531 0.0
C971 C 0.9511 0.55049 0.2826 0.0
C972 C 0.99013 0.55012 0.28911 0.0
C973 C 1.00358 0.57451 0.26858 0.0
C974 C 0.99027 0.58666 0.2555 0.0
C975 C 0.96465 0.57506 0.26337 0.0
H976 H 0.41412 0.95088 0.70318 0.0
H977 H 0.42138 0.95658 0.88063 0.0
H978 H 0.4433 0.99501 0.69447 0.0
H979 H 0.45041 1.00095 0.8721 0.0
H980 H 0.51874 0.07502 0.83882 0.0
H981 H 0.49144 0.0303 0.84296 0.0
H982 H 0.44756 0.03481 0.7096 0.0
H983 H 0.47524 0.07957 0.705 0.0
C984 C 0.42167 0.96165 0.74047 0.0
C985 C 0.41517 0.95022 0.79271 0.0
C986 C 0.43848 0.98701 0.73543 0.0
C987 C 0.44927 1.0017 0.78251 0.0
C988 C 0.44281 0.99022 0.83481 0.0
C989 C 0.42606 0.96478 0.83982 0.0
C990 C 0.50336 0.06641 0.81008 0.0
C991 C 0.49912 0.08087 0.77169 0.0
C992 C 0.48758 0.04077 0.81271 0.0
C993 C 0.46702 0.02886 0.77717 0.0
C994 C 0.4633 0.04324 0.73737 0.0
C995 C 0.4792 0.06893 0.73457 0.0
loop_
_geom_bond_atom_site_label_1
_geom_bond_atom_site_label_2
_geom_bond_distance
_geom_bond_site_symmetry_2
_ccdc_geom_bond_type
C0 C1 1.351 . S
C0 N3 1.368 . S
C0 H5 0.931 . S
C1 C0 1.351 . S
C1 N2 1.373 . S
C1 H29 0.930 . S
N2 C1 1.373 . S
N2 C4 1.340 . S
N3 C0 1.368 . S
N3 C4 1.321 . S
N3 Co6 2.135 . S
C4 N2 1.340 . S
C4 N3 1.321 . S
C4 H28 0.930 . S
H5 C0 0.931 . S
Co6 N3 2.135 . S
Co6 N9 2.121 . S
Co6 O14 2.055 . S
Co6 O17 2.039 . S
Co6 N20 2.140 . S
C7 O8 1.227 . S
C7 O17 1.265 . S
O8 C7 1.227 . S
N9 Co6 2.121 . S
N9 C11 1.375 . S
N9 C12 1.313 . S
C10 C11 1.338 . S
C10 N13 1.377 . S
C10 H30 0.930 . S
C11 N9 1.375 . S
C11 C10 1.338 . S
C11 H15 0.931 . S
C12 N9 1.313 . S
C12 N13 1.344 . S
C12 H16 0.930 . S
N13 C10 1.377 . S
N13 C12 1.344 . S
O14 Co6 2.055 . S
O14 C18 1.253 . S
H15 C11 0.931 . S
H16 C12 0.930 . S
O17 Co6 2.039 . S
O17 C7 1.265 . S
C18 O14 1.253 . S
C18 O19 1.227 . S
O19 C18 1.227 . S
N20 Co6 2.140 . S
N20 C23 1.346 . S
N20 C24 1.345 . S
C21 C22 1.387 . S
C21 C25 1.391 . S
C22 C21 1.387 . S
C22 C23 1.369 . S
C22 H31 0.929 . S
C23 N20 1.346 . S
C23 C22 1.369 . S
C23 H26 0.928 . S
C24 N20 1.345 . S
C24 C25 1.371 . S
C24 H27 0.931 . S
C25 C21 1.391 . S
C25 C24 1.371 . S
C25 H32 0.930 . S
H26 C23 0.928 . S
H27 C24 0.931 . S
H28 C4 0.930 . S
H29 C1 0.930 . S
H30 C10 0.930 . S
H31 C22 0.929 . S
H32 C25 0.930 . S
C33 C34 1.351 . S
C33 N36 1.368 . S
C33 H38 0.931 . S
C34 C33 1.351 . S
C34 N35 1.373 . S
C34 H62 0.930 . S
N35 C34 1.373 . S
N35 C37 1.340 . S
N36 C33 1.368 . S
N36 C37 1.321 . S
N36 Co39 2.135 . S
C37 N35 1.340 . S
C37 N36 1.321 . S
C37 H61 0.930 . S
H38 C33 0.931 . S
Co39 N36 2.135 . S
Co39 N42 2.121 . S
Co39 O47 2.055 . S
Co39 O50 2.039 . S
Co39 N53 2.140 . S
C40 O41 1.227 . S
C40 O50 1.265 . S
O41 C40 1.227 . S
N42 Co39 2.121 . S
N42 C44 1.375 . S
N42 C45 1.313 . S
C43 C44 1.338 . S
C43 N46 1.377 . S
C43 H63 0.930 . S
C44 N42 1.375 . S
C44 C43 1.338 . S
C44 H48 0.931 . S
C45 N42 1.313 . S
C45 N46 1.344 . S
C45 H49 0.930 . S
N46 C43 1.377 . S
N46 C45 1.344 . S
O47 Co39 2.055 . S
O47 C51 1.253 . S
H48 C44 0.931 . S
H49 C45 0.930 . S
O50 Co39 2.039 . S
O50 C40 1.265 . S
C51 O47 1.253 . S
C51 O52 1.227 . S
O52 C51 1.227 . S
N53 Co39 2.140 . S
N53 C56 1.346 . S
N53 C57 1.345 . S
C54 C55 1.387 . S
C54 C58 1.391 . S
C55 C54 1.387 . S
C55 C56 1.369 . S
C55 H64 0.929 . S
C56 N53 1.346 . S
C56 C55 1.369 . S
C56 H59 0.928 . S
C57 N53 1.345 . S
C57 C58 1.371 . S
C57 H60 0.931 . S
C58 C54 1.391 . S
C58 C57 1.371 . S
C58 H65 0.930 . S
H59 C56 0.928 . S
H60 C57 0.931 . S
H61 C37 0.930 . S
H62 C34 0.930 . S
H63 C43 0.930 . S
H64 C55 0.929 . S
H65 C58 0.930 . S
C66 C67 1.351 . S
C66 N69 1.368 . S
C66 H71 0.931 . S
C67 C66 1.351 . S
C67 N68 1.373 . S
C67 H95 0.930 . S
N68 C67 1.373 . S
N68 C70 1.340 . S
N69 C66 1.368 . S
N69 C70 1.321 . S
N69 Co72 2.135 . S
C70 N68 1.340 . S
C70 N69 1.321 . S
C70 H94 0.930 . S
H71 C66 0.931 . S
Co72 N69 2.135 . S
Co72 N75 2.121 . S
Co72 O80 2.055 . S
Co72 O83 2.039 . S
Co72 N86 2.140 . S
C73 O74 1.227 . S
C73 O83 1.265 . S
O74 C73 1.227 . S
N75 Co72 2.121 . S
N75 C77 1.375 . S
N75 C78 1.313 . S
C76 C77 1.338 . S
C76 N79 1.377 . S
C76 H96 0.930 . S
C77 N75 1.375 . S
C77 C76 1.338 . S
C77 H81 0.931 . S
C78 N75 1.313 . S
C78 N79 1.344 . S
C78 H82 0.930 . S
N79 C76 1.377 . S
N79 C78 1.344 . S
O80 Co72 2.055 . S
O80 C84 1.253 . S
H81 C77 0.931 . S
H82 C78 0.930 . S
O83 Co72 2.039 . S
O83 C73 1.265 . S
C84 O80 1.253 . S
C84 O85 1.227 . S
O85 C84 1.227 . S
N86 Co72 2.140 . S
N86 C89 1.346 . S
N86 C90 1.345 . S
C87 C88 1.387 . S
C87 C91 1.391 . S
C88 C87 1.387 . S
C88 C89 1.369 . S
C88 H97 0.929 . S
C89 N86 1.346 . S
C89 C88 1.369 . S
C89 H92 0.928 . S
C90 N86 1.345 . S
C90 C91 1.371 . S
C90 H93 0.931 . S
C91 C87 1.391 . S
C91 C90 1.371 . S
C91 H98 0.930 . S
H92 C89 0.928 . S
H93 C90 0.931 . S
H94 C70 0.930 . S
H95 C67 0.930 . S
H96 C76 0.930 . S
H97 C88 0.929 . S
H98 C91 0.930 . S
C99 C100 1.351 . S
C99 N102 1.368 . S
C99 H104 0.931 . S
C100 C99 1.351 . S
C100 N101 1.373 . S
C100 H128 0.930 . S
N101 C100 1.373 . S
N101 C103 1.340 . S
N102 C99 1.368 . S
N102 C103 1.321 . S
N102 Co105 2.135 . S
C103 N101 1.340 . S
C103 N102 1.321 . S
C103 H127 0.930 . S
H104 C99 0.931 . S
Co105 N102 2.135 . S
Co105 N108 2.121 . S
Co105 O113 2.055 . S
Co105 O116 2.039 . S
Co105 N119 2.140 . S
C106 O107 1.227 . S
C106 O116 1.265 . S
O107 C106 1.227 . S
N108 Co105 2.121 . S
N108 C110 1.375 . S
N108 C111 1.313 . S
C109 C110 1.338 . S
C109 N112 1.377 . S
C109 H129 0.930 . S
C110 N108 1.375 . S
C110 C109 1.338 . S
C110 H114 0.931 . S
C111 N108 1.313 . S
C111 N112 1.344 . S
C111 H115 0.930 . S
N112 C109 1.377 . S
N112 C111 1.344 . S
O113 Co105 2.055 . S
O113 C117 1.253 . S
H114 C110 0.931 . S
H115 C111 0.930 . S
O116 Co105 2.039 . S
O116 C106 1.265 . S
C117 O113 1.253 . S
C117 O118 1.227 . S
O118 C117 1.227 . S
N119 Co105 2.140 . S
N119 C122 1.346 . S
N119 C123 1.345 . S
C120 C121 1.387 . S
C120 C124 1.391 . S
C121 C120 1.387 . S
C121 C122 1.369 . S
C121 H130 0.929 . S
C122 N119 1.346 . S
C122 C121 1.369 . S
C122 H125 0.928 . S
C123 N119 1.345 . S
C123 C124 1.371 . S
C123 H126 0.931 . S
C124 C120 1.391 . S
C124 C123 1.371 . S
C124 H131 0.930 . S
H125 C122 0.928 . S
H126 C123 0.931 . S
H127 C103 0.930 . S
H128 C100 0.930 . S
H129 C109 0.930 . S
H130 C121 0.929 . S
H131 C124 0.930 . S
C132 C133 1.351 . S
C132 N135 1.368 . S
C132 H137 0.931 . S
C133 C132 1.351 . S
C133 N134 1.373 . S
C133 H161 0.930 . S
N134 C133 1.373 . S
N134 C136 1.340 . S
N135 C132 1.368 . S
N135 C136 1.321 . S
N135 Co138 2.135 . S
C136 N134 1.340 . S
C136 N135 1.321 . S
C136 H160 0.930 . S
H137 C132 0.931 . S
Co138 N135 2.135 . S
Co138 N141 2.121 . S
Co138 O146 2.055 . S
Co138 O149 2.039 . S
Co138 N152 2.140 . S
C139 O140 1.227 . S
C139 O149 1.265 . S
O140 C139 1.227 . S
N141 Co138 2.121 . S
N141 C143 1.375 . S
N141 C144 1.313 . S
C142 C143 1.338 . S
C142 N145 1.377 . S
C142 H162 0.930 . S
C143 N141 1.375 . S
C143 C142 1.338 . S
C143 H147 0.931 . S
C144 N141 1.313 . S
C144 N145 1.344 . S
C144 H148 0.930 . S
N145 C142 1.377 . S
N145 C144 1.344 . S
O146 Co138 2.055 . S
O146 C150 1.253 . S
H147 C143 0.931 . S
H148 C144 0.930 . S
O149 Co138 2.039 . S
O149 C139 1.265 . S
C150 O146 1.253 . S
C150 O151 1.227 . S
O151 C150 1.227 . S
N152 Co138 2.140 . S
N152 C155 1.346 . S
N152 C156 1.345 . S
C153 C154 1.387 . S
C153 C157 1.391 . S
C154 C153 1.387 . S
C154 C155 1.369 . S
C154 H163 0.929 . S
C155 N152 1.346 . S
C155 C154 1.369 . S
C155 H158 0.928 . S
C156 N152 1.345 . S
C156 C157 1.371 . S
C156 H159 0.931 . S
C157 C153 1.391 . S
C157 C156 1.371 . S
C157 H164 0.930 . S
H158 C155 0.928 . S
H159 C156 0.931 . S
H160 C136 0.930 . S
H161 C133 0.930 . S
H162 C142 0.930 . S
H163 C154 0.929 . S
H164 C157 0.930 . S
C165 C166 1.351 . S
C165 N168 1.368 . S
C165 H170 0.931 . S
C166 C165 1.351 . S
C166 N167 1.373 . S
C166 H194 0.930 . S
N167 C166 1.373 . S
N167 C169 1.340 . S
N168 C165 1.368 . S
N168 C169 1.321 . S
N168 Co171 2.135 . S
C169 N167 1.340 . S
C169 N168 1.321 . S
C169 H193 0.930 . S
H170 C165 0.931 . S
Co171 N168 2.135 . S
Co171 N174 2.121 . S
Co171 O179 2.055 . S
Co171 O182 2.039 . S
Co171 N185 2.140 . S
C172 O173 1.227 . S
C172 O182 1.265 . S
O173 C172 1.227 . S
N174 Co171 2.121 . S
N174 C176 1.375 . S
N174 C177 1.313 . S
C175 C176 1.338 . S
C175 N178 1.377 . S
C175 H195 0.930 . S
C176 N174 1.375 . S
C176 C175 1.338 . S
C176 H180 0.931 . S
C177 N174 1.313 . S
C177 N178 1.344 . S
C177 H181 0.930 . S
N178 C175 1.377 . S
N178 C177 1.344 . S
O179 Co171 2.055 . S
O179 C183 1.253 . S
H180 C176 0.931 . S
H181 C177 0.930 . S
O182 Co171 2.039 . S
O182 C172 1.265 . S
C183 O179 1.253 . S
C183 O184 1.227 . S
O184 C183 1.227 . S
N185 Co171 2.140 . S
N185 C188 1.346 . S
N185 C189 1.345 . S
C186 C187 1.387 . S
C186 C190 1.391 . S
C187 C186 1.387 . S
C187 C188 1.369 . S
C187 H196 0.929 . S
C188 N185 1.346 . S
C188 C187 1.369 . S
C188 H191 0.928 . S
C189 N185 1.345 . S
C189 C190 1.371 . S
C189 H192 0.931 . S
C190 C186 1.391 . S
C190 C189 1.371 . S
C190 H197 0.930 . S
H191 C188 0.928 . S
H192 C189 0.931 . S
H193 C169 0.930 . S
H194 C166 0.930 . S
H195 C175 0.930 . S
H196 C187 0.929 . S
H197 C190 0.930 . S
C198 C199 1.351 . S
C198 N201 1.368 . S
C198 H203 0.931 . S
C199 C198 1.351 . S
C199 N200 1.373 . S
C199 H227 0.930 . S
N200 C199 1.373 . S
N200 C202 1.340 . S
N201 C198 1.368 . S
N201 C202 1.321 . S
N201 Co204 2.135 . S
C202 N200 1.340 . S
C202 N201 1.321 . S
C202 H226 0.930 . S
H203 C198 0.931 . S
Co204 N201 2.135 . S
Co204 N207 2.121 . S
Co204 O212 2.055 . S
Co204 O215 2.039 . S
Co204 N218 2.140 . S
C205 O206 1.227 . S
C205 O215 1.265 . S
O206 C205 1.227 . S
N207 Co204 2.121 . S
N207 C209 1.375 . S
N207 C210 1.313 . S
C208 C209 1.338 . S
C208 N211 1.377 . S
C208 H228 0.930 . S
C209 N207 1.375 . S
C209 C208 1.338 . S
C209 H213 0.931 . S
C210 N207 1.313 . S
C210 N211 1.344 . S
C210 H214 0.930 . S
N211 C208 1.377 . S
N211 C210 1.344 . S
O212 Co204 2.055 . S
O212 C216 1.253 . S
H213 C209 0.931 . S
H214 C210 0.930 . S
O215 Co204 2.039 . S
O215 C205 1.265 . S
C216 O212 1.253 . S
C216 O217 1.227 . S
O217 C216 1.227 . S
N218 Co204 2.140 . S
N218 C221 1.346 . S
N218 C222 1.345 . S
C219 C220 1.387 . S
C219 C223 1.391 . S
C220 C219 1.387 . S
C220 C221 1.369 . S
C220 H229 0.929 . S
C221 N218 1.346 . S
C221 C220 1.369 . S
C221 H224 0.928 . S
C222 N218 1.345 . S
C222 C223 1.371 . S
C222 H225 0.931 . S
C223 C219 1.391 . S
C223 C222 1.371 . S
C223 H230 0.930 . S
H224 C221 0.928 . S
H225 C222 0.931 . S
H226 C202 0.930 . S
H227 C199 0.930 . S
H228 C208 0.930 . S
H229 C220 0.929 . S
H230 C223 0.930 . S
C231 C232 1.351 . S
C231 N234 1.368 . S
C231 H236 0.931 . S
C232 C231 1.351 . S
C232 N233 1.373 . S
C232 H260 0.930 . S
N233 C232 1.373 . S
N233 C235 1.340 . S
N234 C231 1.368 . S
N234 C235 1.321 . S
N234 Co237 2.135 . S
C235 N233 1.340 . S
C235 N234 1.321 . S
C235 H259 0.930 . S
H236 C231 0.931 . S
Co237 N234 2.135 . S
Co237 N240 2.121 . S
Co237 O245 2.055 . S
Co237 O248 2.039 . S
Co237 N251 2.140 . S
C238 O239 1.227 . S
C238 O248 1.265 . S
O239 C238 1.227 . S
N240 Co237 2.121 . S
N240 C242 1.375 . S
N240 C243 1.313 . S
C241 C242 1.338 . S
C241 N244 1.377 . S
C241 H261 0.930 . S
C242 N240 1.375 . S
C242 C241 1.338 . S
C242 H246 0.931 . S
C243 N240 1.313 . S
C243 N244 1.344 . S
C243 H247 0.930 . S
N244 C241 1.377 . S
N244 C243 1.344 . S
O245 Co237 2.055 . S
O245 C249 1.253 . S
H246 C242 0.931 . S
H247 C243 0.930 . S
O248 Co237 2.039 . S
O248 C238 1.265 . S
C249 O245 1.253 . S
C249 O250 1.227 . S
O250 C249 1.227 . S
N251 Co237 2.140 . S
N251 C254 1.346 . S
N251 C255 1.345 . S
C252 C253 1.387 . S
C252 C256 1.391 . S
C253 C252 1.387 . S
C253 C254 1.369 . S
C253 H262 0.929 . S
C254 N251 1.346 . S
C254 C253 1.369 . S
C254 H257 0.928 . S
C255 N251 1.345 . S
C255 C256 1.371 . S
C255 H258 0.931 . S
C256 C252 1.391 . S
C256 C255 1.371 . S
C256 H263 0.930 . S
H257 C254 0.928 . S
H258 C255 0.931 . S
H259 C235 0.930 . S
H260 C232 0.930 . S
H261 C241 0.930 . S
H262 C253 0.929 . S
H263 C256 0.930 . S
C264 C265 1.351 . S
C264 N267 1.368 . S
C264 H269 0.931 . S
C265 C264 1.351 . S
C265 N266 1.373 . S
C265 H293 0.930 . S
N266 C265 1.373 . S
N266 C268 1.340 . S
N267 C264 1.368 . S
N267 C268 1.321 . S
N267 Co270 2.135 . S
C268 N266 1.340 . S
C268 N267 1.321 . S
C268 H292 0.930 . S
H269 C264 0.931 . S
Co270 N267 2.135 . S
Co270 N273 2.121 . S
Co270 O278 2.055 . S
Co270 O281 2.039 . S
Co270 N284 2.140 . S
C271 O272 1.227 . S
C271 O281 1.265 . S
O272 C271 1.227 . S
N273 Co270 2.121 . S
N273 C275 1.375 . S
N273 C276 1.313 . S
C274 C275 1.338 . S
C274 N277 1.377 . S
C274 H294 0.930 . S
C275 N273 1.375 . S
C275 C274 1.338 . S
C275 H279 0.931 . S
C276 N273 1.313 . S
C276 N277 1.344 . S
C276 H280 0.930 . S
N277 C274 1.377 . S
N277 C276 1.344 . S
O278 Co270 2.055 . S
O278 C282 1.253 . S
H279 C275 0.931 . S
H280 C276 0.930 . S
O281 Co270 2.039 . S
O281 C271 1.265 . S
C282 O278 1.253 . S
C282 O283 1.227 . S
O283 C282 1.227 . S
N284 Co270 2.140 . S
N284 C287 1.346 . S
N284 C288 1.345 . S
C285 C286 1.387 . S
C285 C289 1.391 . S
C286 C285 1.387 . S
C286 C287 1.369 . S
C286 H295 0.929 . S
C287 N284 1.346 . S
C287 C286 1.369 . S
C287 H290 0.928 . S
C288 N284 1.345 . S
C288 C289 1.371 . S
C288 H291 0.931 . S
C289 C285 1.391 . S
C289 C288 1.371 . S
C289 H296 0.930 . S
H290 C287 0.928 . S
H291 C288 0.931 . S
H292 C268 0.930 . S
H293 C265 0.930 . S
H294 C274 0.930 . S
H295 C286 0.929 . S
H296 C289 0.930 . S
C297 C298 1.351 . S
C297 N300 1.368 . S
C297 H302 0.931 . S
C298 C297 1.351 . S
C298 N299 1.373 . S
C298 H326 0.930 . S
N299 C298 1.373 . S
N299 C301 1.340 . S
N300 C297 1.368 . S
N300 C301 1.321 . S
N300 Co303 2.135 . S
C301 N299 1.340 . S
C301 N300 1.321 . S
C301 H325 0.930 . S
H302 C297 0.931 . S
Co303 N300 2.135 . S
Co303 N306 2.121 . S
Co303 O311 2.055 . S
Co303 O314 2.039 . S
Co303 N317 2.140 . S
C304 O305 1.227 . S
C304 O314 1.265 . S
O305 C304 1.227 . S
N306 Co303 2.121 . S
N306 C308 1.375 . S
N306 C309 1.313 . S
C307 C308 1.338 . S
C307 N310 1.377 . S
C307 H327 0.930 . S
C308 N306 1.375 . S
C308 C307 1.338 . S
C308 H312 0.931 . S
C309 N306 1.313 . S
C309 N310 1.344 . S
C309 H313 0.930 . S
N310 C307 1.377 . S
N310 C309 1.344 . S
O311 Co303 2.055 . S
O311 C315 1.253 . S
H312 C308 0.931 . S
H313 C309 0.930 . S
O314 Co303 2.039 . S
O314 C304 1.265 . S
C315 O311 1.253 . S
C315 O316 1.227 . S
O316 C315 1.227 . S
N317 Co303 2.140 . S
N317 C320 1.346 . S
N317 C321 1.345 . S
C318 C319 1.387 . S
C318 C322 1.391 . S
C319 C318 1.387 . S
C319 C320 1.369 . S
C319 H328 0.929 . S
C320 N317 1.346 . S
C320 C319 1.369 . S
C320 H323 0.928 . S
C321 N317 1.345 . S
C321 C322 1.371 . S
C321 H324 0.931 . S
C322 C318 1.391 . S
C322 C321 1.371 . S
C322 H329 0.930 . S
H323 C320 0.928 . S
H324 C321 0.931 . S
H325 C301 0.930 . S
H326 C298 0.930 . S
H327 C307 0.930 . S
H328 C319 0.929 . S
H329 C322 0.930 . S
C330 C331 1.351 . S
C330 N333 1.368 . S
C330 H335 0.931 . S
C331 C330 1.351 . S
C331 N332 1.373 . S
C331 H359 0.930 . S
N332 C331 1.373 . S
N332 C334 1.340 . S
N333 C330 1.368 . S
N333 C334 1.321 . S
N333 Co336 2.135 . S
C334 N332 1.340 . S
C334 N333 1.321 . S
C334 H358 0.930 . S
H335 C330 0.931 . S
Co336 N333 2.135 . S
Co336 N339 2.121 . S
Co336 O344 2.055 . S
Co336 O347 2.039 . S
Co336 N350 2.140 . S
C337 O338 1.227 . S
C337 O347 1.265 . S
O338 C337 1.227 . S
N339 Co336 2.121 . S
N339 C341 1.375 . S
N339 C342 1.313 . S
C340 C341 1.338 . S
C340 N343 1.377 . S
C340 H360 0.930 . S
C341 N339 1.375 . S
C341 C340 1.338 . S
C341 H345 0.931 . S
C342 N339 1.313 . S
C342 N343 1.344 . S
C342 H346 0.930 . S
N343 C340 1.377 . S
N343 C342 1.344 . S
O344 Co336 2.055 . S
O344 C348 1.253 . S
H345 C341 0.931 . S
H346 C342 0.930 . S
O347 Co336 2.039 . S
O347 C337 1.265 . S
C348 O344 1.253 . S
C348 O349 1.227 . S
O349 C348 1.227 . S
N350 Co336 2.140 . S
N350 C353 1.346 . S
N350 C354 1.345 . S
C351 C352 1.387 . S
C351 C355 1.391 . S
C352 C351 1.387 . S
C352 C353 1.369 . S
C352 H361 0.929 . S
C353 N350 1.346 . S
C353 C352 1.369 . S
C353 H356 0.928 . S
C354 N350 1.345 . S
C354 C355 1.371 . S
C354 H357 0.931 . S
C355 C351 1.391 . S
C355 C354 1.371 . S
C355 H362 0.930 . S
H356 C353 0.928 . S
H357 C354 0.931 . S
H358 C334 0.930 . S
H359 C331 0.930 . S
H360 C340 0.930 . S
H361 C352 0.929 . S
H362 C355 0.930 . S
C363 C364 1.351 . S
C363 N366 1.368 . S
C363 H368 0.931 . S
C364 C363 1.351 . S
C364 N365 1.373 . S
C364 H392 0.930 . S
N365 C364 1.373 . S
N365 C367 1.340 . S
N366 C363 1.368 . S
N366 C367 1.321 . S
N366 Co369 2.135 . S
C367 N365 1.340 . S
C367 N366 1.321 . S
C367 H391 0.930 . S
H368 C363 0.931 . S
Co369 N366 2.135 . S
Co369 N372 2.121 . S
Co369 O377 2.055 . S
Co369 O380 2.039 . S
Co369 N383 2.140 . S
C370 O371 1.227 . S
C370 O380 1.265 . S
O371 C370 1.227 . S
N372 Co369 2.121 . S
N372 C374 1.375 . S
N372 C375 1.313 . S
C373 C374 1.338 . S
C373 N376 1.377 . S
C373 H393 0.930 . S
C374 N372 1.375 . S
C374 C373 1.338 . S
C374 H378 0.931 . S
C375 N372 1.313 . S
C375 N376 1.344 . S
C375 H379 0.930 . S
N376 C373 1.377 . S
N376 C375 1.344 . S
O377 Co369 2.055 . S
O377 C381 1.253 . S
H378 C374 0.931 . S
H379 C375 0.930 . S
O380 Co369 2.039 . S
O380 C370 1.265 . S
C381 O377 1.253 . S
C381 O382 1.227 . S
O382 C381 1.227 . S
N383 Co369 2.140 . S
N383 C386 1.346 . S
N383 C387 1.345 . S
C384 C385 1.387 . S
C384 C388 1.391 . S
C385 C384 1.387 . S
C385 C386 1.369 . S
C385 H394 0.929 . S
C386 N383 1.346 . S
C386 C385 1.369 . S
C386 H389 0.928 . S
C387 N383 1.345 . S
C387 C388 1.371 . S
C387 H390 0.931 . S
C388 C384 1.391 . S
C388 C387 1.371 . S
C388 H395 0.930 . S
H389 C386 0.928 . S
H390 C387 0.931 . S
H391 C367 0.930 . S
H392 C364 0.930 . S
H393 C373 0.930 . S
H394 C385 0.929 . S
H395 C388 0.930 . S
H396 C404 0.950 . S
H397 C409 0.950 . S
H398 C406 0.950 . S
H399 C408 0.950 . S
H400 C410 0.950 . S
H401 C412 0.950 . S
H402 C414 0.950 . S
H403 C415 0.950 . S
C404 H396 0.950 . S
C404 C405 1.386 . S
C404 C406 1.391 . S
C405 C404 1.386 . S
C405 C409 1.393 . S
C406 H398 0.950 . S
C406 C404 1.391 . S
C406 C407 1.400 . S
C407 C406 1.400 . S
C407 C408 1.398 . S
C407 C413 1.491 1_554 S
C408 H399 0.950 . S
C408 C407 1.398 . S
C408 C409 1.391 . S
C409 H397 0.950 . S
C409 C405 1.393 . S
C409 C408 1.391 . S
C410 H400 0.950 . S
C410 C411 1.386 . S
C410 C412 1.391 . S
C411 C410 1.386 . S
C411 C415 1.393 . S
C412 H401 0.950 . S
C412 C410 1.391 . S
C412 C413 1.400 . S
C413 C407 1.491 1_556 S
C413 C412 1.400 . S
C413 C414 1.398 . S
C414 H402 0.950 . S
C414 C413 1.398 . S
C414 C415 1.391 . S
C415 H403 0.950 . S
C415 C411 1.393 . S
C415 C414 1.391 . S
H416 C424 0.950 . S
H417 C429 0.950 . S
H418 C426 0.950 . S
H419 C428 0.950 . S
H420 C430 0.950 . S
H421 C432 0.950 . S
H422 C434 0.950 . S
H423 C435 0.950 . S
C424 H416 0.950 . S
C424 C425 1.386 . S
C424 C426 1.391 . S
C425 C424 1.386 . S
C425 C429 1.393 . S
C426 H418 0.950 . S
C426 C424 1.391 . S
C426 C427 1.400 . S
C427 C426 1.400 . S
C427 C428 1.398 . S
C427 C433 1.491 . S
C428 H419 0.950 . S
C428 C427 1.398 . S
C428 C429 1.391 . S
C429 H417 0.950 . S
C429 C425 1.393 . S
C429 C428 1.391 . S
C430 H420 0.950 . S
C430 C431 1.386 . S
C430 C432 1.391 . S
C431 C430 1.386 . S
C431 C435 1.393 . S
C432 H421 0.950 . S
C432 C430 1.391 . S
C432 C433 1.400 . S
C433 C427 1.491 . S
C433 C432 1.400 . S
C433 C434 1.398 . S
C434 H422 0.950 . S
C434 C433 1.398 . S
C434 C435 1.391 . S
C435 H423 0.950 . S
C435 C431 1.393 . S
C435 C434 1.391 . S
H436 C444 0.950 . S
H437 C449 0.950 . S
H438 C446 0.950 . S
H439 C448 0.950 1_556 S
H440 C450 0.950 . S
H441 C452 0.950 . S
H442 C454 0.950 1_554 S
H443 C455 0.950 . S
C444 H436 0.950 . S
C444 C445 1.386 . S
C444 C446 1.391 . S
C445 C444 1.386 . S
C445 C449 1.393 . S
C446 H438 0.950 . S
C446 C444 1.391 . S
C446 C447 1.400 . S
C447 C446 1.400 . S
C447 C448 1.398 . S
C447 C453 1.491 1_554 S
C448 H439 0.950 1_554 S
C448 C447 1.398 . S
C448 C449 1.391 . S
C449 H437 0.950 . S
C449 C445 1.393 . S
C449 C448 1.391 . S
C450 H440 0.950 . S
C450 C451 1.386 . S
C450 C452 1.391 . S
C451 C450 1.386 . S
C451 C455 1.393 . S
C452 H441 0.950 . S
C452 C450 1.391 . S
C452 C453 1.400 . S
C453 C447 1.491 1_556 S
C453 C452 1.400 . S
C453 C454 1.398 . S
C454 H442 0.950 1_556 S
C454 C453 1.398 . S
C454 C455 1.391 . S
C455 H443 0.950 . S
C455 C451 1.393 . S
C455 C454 1.391 . S
H456 C464 0.950 . S
H457 C469 0.950 . S
H458 C466 0.950 . S
H459 C468 0.950 . S
H460 C470 0.950 . S
H461 C472 0.950 . S
H462 C474 0.950 . S
H463 C475 0.950 . S
C464 H456 0.950 . S
C464 C465 1.386 . S
C464 C466 1.391 . S
C465 C464 1.386 . S
C465 C469 1.393 . S
C466 H458 0.950 . S
C466 C464 1.391 . S
C466 C467 1.400 . S
C467 C466 1.400 . S
C467 C468 1.398 . S
C467 C473 1.491 . S
C468 H459 0.950 . S
C468 C467 1.398 . S
C468 C469 1.391 . S
C469 H457 0.950 . S
C469 C465 1.393 . S
C469 C468 1.391 . S
C470 H460 0.950 . S
C470 C471 1.386 . S
C470 C472 1.391 . S
C471 C470 1.386 . S
C471 C475 1.393 . S
C472 H461 0.950 . S
C472 C470 1.391 . S
C472 C473 1.400 . S
C473 C467 1.491 . S
C473 C472 1.400 . S
C473 C474 1.398 . S
C474 H462 0.950 . S
C474 C473 1.398 . S
C474 C475 1.391 . S
C475 H463 0.950 . S
C475 C471 1.393 . S
C475 C474 1.391 . S
H476 C484 0.950 . S
H477 C489 0.950 . S
H478 C486 0.950 . S
H479 C488 0.950 . S
H480 C490 0.950 . S
H481 C492 0.950 . S
H482 C494 0.950 . S
H483 C495 0.950 . S
C484 H476 0.950 . S
C484 C485 1.386 . S
C484 C486 1.391 . S
C485 C484 1.386 . S
C485 C489 1.393 . S
C486 H478 0.950 . S
C486 C484 1.391 . S
C486 C487 1.400 . S
C487 C486 1.400 . S
C487 C488 1.398 . S
C487 C493 1.491 1_554 S
C488 H479 0.950 . S
C488 C487 1.398 . S
C488 C489 1.391 . S
C489 H477 0.950 . S
C489 C485 1.393 . S
C489 C488 1.391 . S
C490 H480 0.950 . S
C490 C491 1.386 . S
C490 C492 1.391 . S
C491 C490 1.386 . S
C491 C495 1.393 . S
C492 H481 0.950 . S
C492 C490 1.391 . S
C492 C493 1.400 . S
C493 C487 1.491 1_556 S
C493 C492 1.400 . S
C493 C494 1.398 . S
C494 H482 0.950 . S
C494 C493 1.398 . S
C494 C495 1.391 . S
C495 H483 0.950 . S
C495 C491 1.393 . S
C495 C494 1.391 . S
H496 C504 0.950 . S
H497 C509 0.950 . S
H498 C506 0.950 . S
H499 C508 0.950 . S
H500 C510 0.950 . S
H501 C512 0.950 . S
H502 C514 0.950 . S
H503 C515 0.950 . S
C504 H496 0.950 . S
C504 C505 1.386 . S
C504 C506 1.391 . S
C505 C504 1.386 . S
C505 C509 1.393 . S
C506 H498 0.950 . S
C506 C504 1.391 . S
C506 C507 1.400 . S
C507 C506 1.400 . S
C507 C508 1.398 . S
C507 C513 1.491 . S
C508 H499 0.950 . S
C508 C507 1.398 . S
C508 C509 1.391 . S
C509 H497 0.950 . S
C509 C505 1.393 . S
C509 C508 1.391 . S
C510 H500 0.950 . S
C510 C511 1.386 . S
C510 C512 1.391 . S
C511 C510 1.386 . S
C511 C515 1.393 . S
C512 H501 0.950 . S
C512 C510 1.391 . S
C512 C513 1.400 . S
C513 C507 1.491 . S
C513 C512 1.400 . S
C513 C514 1.398 . S
C514 H502 0.950 . S
C514 C513 1.398 . S
C514 C515 1.391 . S
C515 H503 0.950 . S
C515 C511 1.393 . S
C515 C514 1.391 . S
H516 C524 0.950 . S
H517 C529 0.950 . S
H518 C526 0.950 . S
H519 C528 0.950 . S
H520 C530 0.950 . S
H521 C532 0.950 . S
H522 C534 0.950 . S
H523 C535 0.950 . S
C524 H516 0.950 . S
C524 C525 1.386 . S
C524 C526 1.391 . S
C525 C524 1.386 . S
C525 C529 1.393 . S
C526 H518 0.950 . S
C526 C524 1.391 . S
C526 C527 1.400 . S
C527 C526 1.400 . S
C527 C528 1.398 . S
C527 C533 1.491 1_554 S
C528 H519 0.950 . S
C528 C527 1.398 . S
C528 C529 1.391 . S
C529 H517 0.950 . S
C529 C525 1.393 . S
C529 C528 1.391 . S
C530 H520 0.950 . S
C530 C531 1.386 . S
C530 C532 1.391 . S
C531 C530 1.386 . S
C531 C535 1.393 . S
C532 H521 0.950 . S
C532 C530 1.391 . S
C532 C533 1.400 . S
C533 C527 1.491 1_556 S
C533 C532 1.400 . S
C533 C534 1.398 . S
C534 H522 0.950 . S
C534 C533 1.398 . S
C534 C535 1.391 . S
C535 H523 0.950 . S
C535 C531 1.393 . S
C535 C534 1.391 . S
H536 C544 0.950 . S
H537 C549 0.950 . S
H538 C546 0.950 . S
H539 C548 0.950 . S
H540 C550 0.950 . S
H541 C552 0.950 . S
H542 C554 0.950 . S
H543 C555 0.950 . S
C544 H536 0.950 . S
C544 C545 1.386 . S
C544 C546 1.391 . S
C545 C544 1.386 . S
C545 C549 1.393 . S
C546 H538 0.950 . S
C546 C544 1.391 . S
C546 C547 1.400 . S
C547 C546 1.400 . S
C547 C548 1.398 . S
C547 C553 1.491 . S
C548 H539 0.950 . S
C548 C547 1.398 . S
C548 C549 1.391 . S
C549 H537 0.950 . S
C549 C545 1.393 . S
C549 C548 1.391 . S
C550 H540 0.950 . S
C550 C551 1.386 . S
C550 C552 1.391 . S
C551 C550 1.386 . S
C551 C555 1.393 . S
C552 H541 0.950 . S
C552 C550 1.391 . S
C552 C553 1.400 . S
C553 C547 1.491 . S
C553 C552 1.400 . S
C553 C554 1.398 . S
C554 H542 0.950 . S
C554 C553 1.398 . S
C554 C555 1.391 . S
C555 H543 0.950 . S
C555 C551 1.393 . S
C555 C554 1.391 . S
H556 C564 0.950 . S
H557 C569 0.950 . S
H558 C566 0.950 1_556 S
H559 C568 0.950 . S
H560 C570 0.950 . S
H561 C572 0.950 1_554 S
H562 C574 0.950 . S
H563 C575 0.950 . S
C564 H556 0.950 . S
C564 C565 1.386 . S
C564 C566 1.391 . S
C565 C564 1.386 . S
C565 C569 1.393 . S
C566 H558 0.950 1_554 S
C566 C564 1.391 . S
C566 C567 1.400 . S
C567 C566 1.400 . S
C567 C568 1.398 . S
C567 C573 1.491 1_554 S
C568 H559 0.950 . S
C568 C567 1.398 . S
C568 C569 1.391 . S
C569 H557 0.950 . S
C569 C565 1.393 . S
C569 C568 1.391 . S
C570 H560 0.950 . S
C570 C571 1.386 . S
C570 C572 1.391 . S
C571 C570 1.386 . S
C571 C575 1.393 . S
C572 H561 0.950 1_556 S
C572 C570 1.391 . S
C572 C573 1.400 . S
C573 C567 1.491 1_556 S
C573 C572 1.400 . S
C573 C574 1.398 . S
C574 H562 0.950 . S
C574 C573 1.398 . S
C574 C575 1.391 . S
C575 H563 0.950 . S
C575 C571 1.393 . S
C575 C574 1.391 . S
H576 C584 0.950 . S
H577 C589 0.950 . S
H578 C586 0.950 . S
H579 C588 0.950 . S
H580 C590 0.950 . S
H581 C592 0.950 . S
H582 C594 0.950 . S
H583 C595 0.950 . S
C584 H576 0.950 . S
C584 C585 1.386 . S
C584 C586 1.391 . S
C585 C584 1.386 . S
C585 C589 1.393 . S
C586 H578 0.950 . S
C586 C584 1.391 . S
C586 C587 1.400 . S
C587 C586 1.400 . S
C587 C588 1.398 . S
C587 C593 1.491 . S
C588 H579 0.950 . S
C588 C587 1.398 . S
C588 C589 1.391 . S
C589 H577 0.950 . S
C589 C585 1.393 . S
C589 C588 1.391 . S
C590 H580 0.950 . S
C590 C591 1.386 . S
C590 C592 1.391 . S
C591 C590 1.386 . S
C591 C595 1.393 . S
C592 H581 0.950 . S
C592 C590 1.391 . S
C592 C593 1.400 . S
C593 C587 1.491 . S
C593 C592 1.400 . S
C593 C594 1.398 . S
C594 H582 0.950 . S
C594 C593 1.398 . S
C594 C595 1.391 . S
C595 H583 0.950 . S
C595 C591 1.393 . S
C595 C594 1.391 . S
H596 C604 0.950 . S
H597 C609 0.950 . S
H598 C606 0.950 . S
H599 C608 0.950 1_556 S
H600 C610 0.950 . S
H601 C612 0.950 . S
H602 C614 0.950 1_554 S
H603 C615 0.950 . S
C604 H596 0.950 . S
C604 C605 1.386 . S
C604 C606 1.391 . S
C605 C604 1.386 . S
C605 C609 1.393 . S
C606 H598 0.950 . S
C606 C604 1.391 . S
C606 C607 1.400 . S
C607 C606 1.400 . S
C607 C608 1.398 . S
C607 C613 1.491 1_554 S
C608 H599 0.950 1_554 S
C608 C607 1.398 . S
C608 C609 1.391 . S
C609 H597 0.950 . S
C609 C605 1.393 . S
C609 C608 1.391 . S
C610 H600 0.950 . S
C610 C611 1.386 . S
C610 C612 1.391 . S
C611 C610 1.386 . S
C611 C615 1.393 . S
C612 H601 0.950 . S
C612 C610 1.391 . S
C612 C613 1.400 . S
C613 C607 1.491 1_556 S
C613 C612 1.400 . S
C613 C614 1.398 . S
C614 H602 0.950 1_556 S
C614 C613 1.398 . S
C614 C615 1.391 . S
C615 H603 0.950 . S
C615 C611 1.393 . S
C615 C614 1.391 . S
H616 C624 0.950 . S
H617 C629 0.950 . S
H618 C626 0.950 . S
H619 C628 0.950 . S
H620 C630 0.950 . S
H621 C632 0.950 . S
H622 C634 0.950 . S
H623 C635 0.950 . S
C624 H616 0.950 . S
C624 C625 1.386 . S
C624 C626 1.391 . S
C625 C624 1.386 . S
C625 C629 1.393 . S
C626 H618 0.950 . S
C626 C624 1.391 . S
C626 C627 1.400 . S
C627 C626 1.400 . S
C627 C628 1.398 . S
C627 C633 1.491 . S
C628 H619 0.950 . S
C628 C627 1.398 . S
C628 C629 1.391 . S
C629 H617 0.950 . S
C629 C625 1.393 . S
C629 C628 1.391 . S
C630 H620 0.950 . S
C630 C631 1.386 . S
C630 C632 1.391 . S
C631 C630 1.386 . S
C631 C635 1.393 . S
C632 H621 0.950 . S
C632 C630 1.391 . S
C632 C633 1.400 . S
C633 C627 1.491 . S
C633 C632 1.400 . S
C633 C634 1.398 . S
C634 H622 0.950 . S
C634 C633 1.398 . S
C634 C635 1.391 . S
C635 H623 0.950 . S
C635 C631 1.393 . S
C635 C634 1.391 . S
H636 C644 0.950 . S
H637 C649 0.950 . S
H638 C646 0.950 . S
H639 C648 0.950 . S
H640 C650 0.950 . S
H641 C652 0.950 . S
H642 C654 0.950 . S
H643 C655 0.950 . S
C644 H636 0.950 . S
C644 C645 1.386 . S
C644 C646 1.391 . S
C645 C644 1.386 . S
C645 C649 1.393 . S
C646 H638 0.950 . S
C646 C644 1.391 . S
C646 C647 1.400 . S
C647 C646 1.400 . S
C647 C648 1.398 . S
C647 C653 1.491 1_556 S
C648 H639 0.950 . S
C648 C647 1.398 . S
C648 C649 1.391 . S
C649 H637 0.950 . S
C649 C645 1.393 . S
C649 C648 1.391 . S
C650 H640 0.950 . S
C650 C651 1.386 . S
C650 C652 1.391 . S
C651 C650 1.386 . S
C651 C655 1.393 . S
C652 H641 0.950 . S
C652 C650 1.391 . S
C652 C653 1.400 . S
C653 C647 1.491 1_554 S
C653 C652 1.400 . S
C653 C654 1.398 . S
C654 H642 0.950 . S
C654 C653 1.398 . S
C654 C655 1.391 . S
C655 H643 0.950 . S
C655 C651 1.393 . S
C655 C654 1.391 . S
H656 C664 0.950 . S
H657 C669 0.950 . S
H658 C666 0.950 . S
H659 C668 0.950 . S
H660 C670 0.950 . S
H661 C672 0.950 . S
H662 C674 0.950 . S
H663 C675 0.950 . S
C664 H656 0.950 . S
C664 C665 1.386 . S
C664 C666 1.391 . S
C665 C664 1.386 . S
C665 C669 1.393 . S
C666 H658 0.950 . S
C666 C664 1.391 . S
C666 C667 1.400 . S
C667 C666 1.400 . S
C667 C668 1.398 . S
C667 C673 1.491 . S
C668 H659 0.950 . S
C668 C667 1.398 . S
C668 C669 1.391 . S
C669 H657 0.950 . S
C669 C665 1.393 . S
C669 C668 1.391 . S
C670 H660 0.950 . S
C670 C671 1.386 . S
C670 C672 1.391 . S
C671 C670 1.386 . S
C671 C675 1.393 . S
C672 H661 0.950 . S
C672 C670 1.391 . S
C672 C673 1.400 . S
C673 C667 1.491 . S
C673 C672 1.400 . S
C673 C674 1.398 . S
C674 H662 0.950 . S
C674 C673 1.398 . S
C674 C675 1.391 . S
C675 H663 0.950 . S
C675 C671 1.393 . S
C675 C674 1.391 . S
H676 C684 0.950 . S
H677 C689 0.950 . S
H678 C686 0.950 . S
H679 C688 0.950 1_556 S
H680 C690 0.950 . S
H681 C692 0.950 . S
H682 C694 0.950 1_554 S
H683 C695 0.950 . S
C684 H676 0.950 . S
C684 C685 1.386 . S
C684 C686 1.391 . S
C685 C684 1.386 . S
C685 C689 1.393 . S
C686 H678 0.950 . S
C686 C684 1.391 . S
C686 C687 1.400 . S
C687 C686 1.400 . S
C687 C688 1.398 . S
C687 C693 1.491 1_554 S
C688 H679 0.950 1_554 S
C688 C687 1.398 . S
C688 C689 1.391 . S
C689 H677 0.950 . S
C689 C685 1.393 . S
C689 C688 1.391 . S
C690 H680 0.950 . S
C690 C691 1.386 . S
C690 C692 1.391 . S
C691 C690 1.386 . S
C691 C695 1.393 . S
C692 H681 0.950 . S
C692 C690 1.391 . S
C692 C693 1.400 . S
C693 C687 1.491 1_556 S
C693 C692 1.400 . S
C693 C694 1.398 . S
C694 H682 0.950 1_556 S
C694 C693 1.398 . S
C694 C695 1.391 . S
C695 H683 0.950 . S
C695 C691 1.393 . S
C695 C694 1.391 . S
H696 C704 0.950 . S
H697 C709 0.950 . S
H698 C706 0.950 . S
H699 C708 0.950 . S
H700 C710 0.950 . S
H701 C712 0.950 . S
H702 C714 0.950 . S
H703 C715 0.950 . S
C704 H696 0.950 . S
C704 C705 1.386 . S
C704 C706 1.391 . S
C705 C704 1.386 . S
C705 C709 1.393 . S
C706 H698 0.950 . S
C706 C704 1.391 . S
C706 C707 1.400 . S
C707 C706 1.400 . S
C707 C708 1.398 . S
C707 C713 1.491 . S
C708 H699 0.950 . S
C708 C707 1.398 . S
C708 C709 1.391 . S
C709 H697 0.950 . S
C709 C705 1.393 . S
C709 C708 1.391 . S
C710 H700 0.950 . S
C710 C711 1.386 . S
C710 C712 1.391 . S
C711 C710 1.386 . S
C711 C715 1.393 . S
C712 H701 0.950 . S
C712 C710 1.391 . S
C712 C713 1.400 . S
C713 C707 1.491 . S
C713 C712 1.400 . S
C713 C714 1.398 . S
C714 H702 0.950 . S
C714 C713 1.398 . S
C714 C715 1.391 . S
C715 H703 0.950 . S
C715 C711 1.393 . S
C715 C714 1.391 . S
H716 C724 0.950 . S
H717 C729 0.950 . S
H718 C726 0.950 . S
H719 C728 0.950 . S
H720 C730 0.950 . S
H721 C732 0.950 . S
H722 C734 0.950 . S
H723 C735 0.950 . S
C724 H716 0.950 . S
C724 C725 1.386 . S
C724 C726 1.391 . S
C725 C724 1.386 . S
C725 C729 1.393 . S
C726 H718 0.950 . S
C726 C724 1.391 . S
C726 C727 1.400 . S
C727 C726 1.400 . S
C727 C728 1.398 . S
C727 C733 1.491 1_554 S
C728 H719 0.950 . S
C728 C727 1.398 . S
C728 C729 1.391 . S
C729 H717 0.950 . S
C729 C725 1.393 . S
C729 C728 1.391 . S
C730 H720 0.950 . S
C730 C731 1.386 . S
C730 C732 1.391 . S
C731 C730 1.386 . S
C731 C735 1.393 . S
C732 H721 0.950 . S
C732 C730 1.391 . S
C732 C733 1.400 . S
C733 C727 1.491 1_556 S
C733 C732 1.400 . S
C733 C734 1.398 . S
C734 H722 0.950 . S
C734 C733 1.398 . S
C734 C735 1.391 . S
C735 H723 0.950 . S
C735 C731 1.393 . S
C735 C734 1.391 . S
H736 C744 0.950 . S
H737 C749 0.950 . S
H738 C746 0.950 . S
H739 C748 0.950 . S
H740 C750 0.950 . S
H741 C752 0.950 . S
H742 C754 0.950 . S
H743 C755 0.950 . S
C744 H736 0.950 . S
C744 C745 1.386 . S
C744 C746 1.391 . S
C745 C744 1.386 . S
C745 C749 1.393 . S
C746 H738 0.950 . S
C746 C744 1.391 . S
C746 C747 1.400 . S
C747 C746 1.400 . S
C747 C748 1.398 . S
C747 C753 1.491 . S
C748 H739 0.950 . S
C748 C747 1.398 . S
C748 C749 1.391 . S
C749 H737 0.950 . S
C749 C745 1.393 . S
C749 C748 1.391 . S
C750 H740 0.950 . S
C750 C751 1.386 . S
C750 C752 1.391 . S
C751 C750 1.386 . S
C751 C755 1.393 . S
C752 H741 0.950 . S
C752 C750 1.391 . S
C752 C753 1.400 . S
C753 C747 1.491 . S
C753 C752 1.400 . S
C753 C754 1.398 . S
C754 H742 0.950 . S
C754 C753 1.398 . S
C754 C755 1.391 . S
C755 H743 0.950 . S
C755 C751 1.393 . S
C755 C754 1.391 . S
H756 C764 0.950 . S
H757 C769 0.950 . S
H758 C766 0.950 1_554 S
H759 C768 0.950 . S
H760 C770 0.950 . S
H761 C772 0.950 1_556 S
H762 C774 0.950 . S
H763 C775 0.950 . S
C764 H756 0.950 . S
C764 C765 1.386 . S
C764 C766 1.391 . S
C765 C764 1.386 . S
C765 C769 1.393 . S
C766 H758 0.950 1_556 S
C766 C764 1.391 . S
C766 C767 1.400 . S
C767 C766 1.400 . S
C767 C768 1.398 . S
C767 C773 1.491 1_556 S
C768 H759 0.950 . S
C768 C767 1.398 . S
C768 C769 1.391 . S
C769 H757 0.950 . S
C769 C765 1.393 . S
C769 C768 1.391 . S
C770 H760 0.950 . S
C770 C771 1.386 . S
C770 C772 1.391 . S
C771 C770 1.386 . S
C771 C775 1.393 . S
C772 H761 0.950 1_554 S
C772 C770 1.391 . S
C772 C773 1.400 . S
C773 C767 1.491 1_554 S
C773 C772 1.400 . S
C773 C774 1.398 . S
C774 H762 0.950 . S
C774 C773 1.398 . S
C774 C775 1.391 . S
C775 H763 0.950 . S
C775 C771 1.393 . S
C775 C774 1.391 . S
H776 C784 0.950 . S
H777 C789 0.950 . S
H778 C786 0.950 . S
H779 C788 0.950 . S
H780 C790 0.950 . S
H781 C792 0.950 . S
H782 C794 0.950 . S
H783 C795 0.950 . S
C784 H776 0.950 . S
C784 C785 1.386 . S
C784 C786 1.391 . S
C785 C784 1.386 . S
C785 C789 1.393 . S
C786 H778 0.950 . S
C786 C784 1.391 . S
C786 C787 1.400 . S
C787 C786 1.400 . S
C787 C788 1.398 . S
C787 C793 1.491 . S
C788 H779 0.950 . S
C788 C787 1.398 . S
C788 C789 1.391 . S
C789 H777 0.950 . S
C789 C785 1.393 . S
C789 C788 1.391 . S
C790 H780 0.950 . S
C790 C791 1.386 . S
C790 C792 1.391 . S
C791 C790 1.386 . S
C791 C795 1.393 . S
C792 H781 0.950 . S
C792 C790 1.391 . S
C792 C793 1.400 . S
C793 C787 1.491 . S
C793 C792 1.400 . S
C793 C794 1.398 . S
C794 H782 0.950 . S
C794 C793 1.398 . S
C794 C795 1.391 . S
C795 H783 0.950 . S
C795 C791 1.393 . S
C795 C794 1.391 . S
H796 C804 0.950 . S
H797 C809 0.950 . S
H798 C806 0.950 . S
H799 C808 0.950 1_556 S
H800 C810 0.950 . S
H801 C812 0.950 . S
H802 C814 0.950 1_554 S
H803 C815 0.950 . S
C804 H796 0.950 . S
C804 C805 1.386 . S
C804 C806 1.391 . S
C805 C804 1.386 . S
C805 C809 1.393 . S
C806 H798 0.950 . S
C806 C804 1.391 . S
C806 C807 1.400 . S
C807 C806 1.400 . S
C807 C808 1.398 . S
C807 C813 1.491 1_554 S
C808 H799 0.950 1_554 S
C808 C807 1.398 . S
C808 C809 1.391 . S
C809 H797 0.950 . S
C809 C805 1.393 . S
C809 C808 1.391 . S
C810 H800 0.950 . S
C810 C811 1.386 . S
C810 C812 1.391 . S
C811 C810 1.386 . S
C811 C815 1.393 . S
C812 H801 0.950 . S
C812 C810 1.391 . S
C812 C813 1.400 . S
C813 C807 1.491 1_556 S
C813 C812 1.400 . S
C813 C814 1.398 . S
C814 H802 0.950 1_556 S
C814 C813 1.398 . S
C814 C815 1.391 . S
C815 H803 0.950 . S
C815 C811 1.393 . S
C815 C814 1.391 . S
H816 C824 0.950 . S
H817 C829 0.950 . S
H818 C826 0.950 . S
H819 C828 0.950 . S
H820 C830 0.950 . S
H821 C832 0.950 . S
H822 C834 0.950 . S
H823 C835 0.950 . S
C824 H816 0.950 . S
C824 C825 1.386 . S
C824 C826 1.391 . S
C825 C824 1.386 . S
C825 C829 1.393 . S
C826 H818 0.950 . S
C826 C824 1.391 . S
C826 C827 1.400 . S
C827 C826 1.400 . S
C827 C828 1.398 . S
C827 C833 1.491 . S
C828 H819 0.950 . S
C828 C827 1.398 . S
C828 C829 1.391 . S
C829 H817 0.950 . S
C829 C825 1.393 . S
C829 C828 1.391 . S
C830 H820 0.950 . S
C830 C831 1.386 . S
C830 C832 1.391 . S
C831 C830 1.386 . S
C831 C835 1.393 . S
C832 H821 0.950 . S
C832 C830 1.391 . S
C832 C833 1.400 . S
C833 C827 1.491 . S
C833 C832 1.400 . S
C833 C834 1.398 . S
C834 H822 0.950 . S
C834 C833 1.398 . S
C834 C835 1.391 . S
C835 H823 0.950 . S
C835 C831 1.393 . S
C835 C834 1.391 . S
H836 C844 0.950 . S
H837 C849 0.950 . S
H838 C846 0.950 . S
H839 C848 0.950 1_556 S
H840 C850 0.950 . S
H841 C852 0.950 . S
H842 C854 0.950 1_554 S
H843 C855 0.950 . S
C844 H836 0.950 . S
C844 C845 1.386 . S
C844 C846 1.391 . S
C845 C844 1.386 . S
C845 C849 1.393 . S
C846 H838 0.950 . S
C846 C844 1.391 . S
C846 C847 1.400 . S
C847 C846 1.400 . S
C847 C848 1.398 . S
C847 C853 1.491 1_554 S
C848 H839 0.950 1_554 S
C848 C847 1.398 . S
C848 C849 1.391 . S
C849 H837 0.950 . S
C849 C845 1.393 . S
C849 C848 1.391 . S
C850 H840 0.950 . S
C850 C851 1.386 . S
C850 C852 1.391 . S
C851 C850 1.386 . S
C851 C855 1.393 . S
C852 H841 0.950 . S
C852 C850 1.391 . S
C852 C853 1.400 . S
C853 C847 1.491 1_556 S
C853 C852 1.400 . S
C853 C854 1.398 . S
C854 H842 0.950 1_556 S
C854 C853 1.398 . S
C854 C855 1.391 . S
C855 H843 0.950 . S
C855 C851 1.393 . S
C855 C854 1.391 . S
H856 C864 0.950 . S
H857 C869 0.950 . S
H858 C866 0.950 . S
H859 C868 0.950 . S
H860 C870 0.950 . S
H861 C872 0.950 . S
H862 C874 0.950 . S
H863 C875 0.950 . S
C864 H856 0.950 . S
C864 C865 1.386 . S
C864 C866 1.391 . S
C865 C864 1.386 . S
C865 C869 1.393 . S
C866 H858 0.950 . S
C866 C864 1.391 . S
C866 C867 1.400 . S
C867 C866 1.400 . S
C867 C868 1.398 . S
C867 C873 1.491 . S
C868 H859 0.950 . S
C868 C867 1.398 . S
C868 C869 1.391 . S
C869 H857 0.950 . S
C869 C865 1.393 . S
C869 C868 1.391 . S
C870 H860 0.950 . S
C870 C871 1.386 . S
C870 C872 1.391 . S
C871 C870 1.386 . S
C871 C875 1.393 . S
C872 H861 0.950 . S
C872 C870 1.391 . S
C872 C873 1.400 . S
C873 C867 1.491 . S
C873 C872 1.400 . S
C873 C874 1.398 . S
C874 H862 0.950 . S
C874 C873 1.398 . S
C874 C875 1.391 . S
C875 H863 0.950 . S
C875 C871 1.393 . S
C875 C874 1.391 . S
H876 C884 0.950 . S
H877 C889 0.950 . S
H878 C886 0.950 . S
H879 C888 0.950 . S
H880 C890 0.950 . S
H881 C892 0.950 . S
H882 C894 0.950 . S
H883 C895 0.950 . S
C884 H876 0.950 . S
C884 C885 1.386 . S
C884 C886 1.391 . S
C885 C884 1.386 . S
C885 C889 1.393 . S
C886 H878 0.950 . S
C886 C884 1.391 . S
C886 C887 1.400 . S
C887 C886 1.400 . S
C887 C888 1.398 . S
C887 C893 1.491 . S
C888 H879 0.950 . S
C888 C887 1.398 . S
C888 C889 1.391 . S
C889 H877 0.950 . S
C889 C885 1.393 . S
C889 C888 1.391 . S
C890 H880 0.950 . S
C890 C891 1.386 . S
C890 C892 1.391 . S
C891 C890 1.386 . S
C891 C895 1.393 . S
C892 H881 0.950 . S
C892 C890 1.391 . S
C892 C893 1.400 . S
C893 C887 1.491 . S
C893 C892 1.400 . S
C893 C894 1.398 . S
C894 H882 0.950 . S
C894 C893 1.398 . S
C894 C895 1.391 . S
C895 H883 0.950 . S
C895 C891 1.393 . S
C895 C894 1.391 . S
H896 C904 0.950 . S
H897 C909 0.950 . S
H898 C906 0.950 . S
H899 C908 0.950 . S
H900 C910 0.950 . S
H901 C912 0.950 . S
H902 C914 0.950 . S
H903 C915 0.950 . S
C904 H896 0.950 . S
C904 C905 1.386 . S
C904 C906 1.391 . S
C905 C904 1.386 . S
C905 C909 1.393 . S
C906 H898 0.950 . S
C906 C904 1.391 . S
C906 C907 1.400 . S
C907 C906 1.400 . S
C907 C908 1.398 . S
C907 C913 1.491 1_455 S
C908 H899 0.950 . S
C908 C907 1.398 . S
C908 C909 1.391 . S
C909 H897 0.950 . S
C909 C905 1.393 . S
C909 C908 1.391 . S
C910 H900 0.950 . S
C910 C911 1.386 . S
C910 C912 1.391 . S
C911 C910 1.386 . S
C911 C915 1.393 . S
C912 H901 0.950 . S
C912 C910 1.391 . S
C912 C913 1.400 . S
C913 C907 1.491 1_655 S
C913 C912 1.400 . S
C913 C914 1.398 . S
C914 H902 0.950 . S
C914 C913 1.398 . S
C914 C915 1.391 . S
C915 H903 0.950 . S
C915 C911 1.393 . S
C915 C914 1.391 . S
H916 C924 0.950 . S
H917 C929 0.950 . S
H918 C926 0.950 . S
H919 C928 0.950 . S
H920 C930 0.950 . S
H921 C932 0.950 . S
H922 C934 0.950 . S
H923 C935 0.950 . S
C924 H916 0.950 . S
C924 C925 1.386 . S
C924 C926 1.391 . S
C925 C924 1.386 . S
C925 C929 1.393 . S
C926 H918 0.950 . S
C926 C924 1.391 . S
C926 C927 1.400 . S
C927 C926 1.400 . S
C927 C928 1.398 . S
C927 C933 1.491 1_545 S
C928 H919 0.950 . S
C928 C927 1.398 . S
C928 C929 1.391 . S
C929 H917 0.950 . S
C929 C925 1.393 . S
C929 C928 1.391 . S
C930 H920 0.950 . S
C930 C931 1.386 . S
C930 C932 1.391 . S
C931 C930 1.386 . S
C931 C935 1.393 . S
C932 H921 0.950 . S
C932 C930 1.391 . S
C932 C933 1.400 . S
C933 C927 1.491 1_565 S
C933 C932 1.400 . S
C933 C934 1.398 . S
C934 H922 0.950 . S
C934 C933 1.398 . S
C934 C935 1.391 . S
C935 H923 0.950 . S
C935 C931 1.393 . S
C935 C934 1.391 . S
H936 C944 0.950 . S
H937 C949 0.950 . S
H938 C946 0.950 . S
H939 C948 0.950 . S
H940 C950 0.950 . S
H941 C952 0.950 . S
H942 C954 0.950 . S
H943 C955 0.950 . S
C944 H936 0.950 . S
C944 C945 1.386 . S
C944 C946 1.391 . S
C945 C944 1.386 . S
C945 C949 1.393 . S
C946 H938 0.950 . S
C946 C944 1.391 . S
C946 C947 1.400 . S
C947 C946 1.400 . S
C947 C948 1.398 . S
C947 C953 1.491 . S
C948 H939 0.950 . S
C948 C947 1.398 . S
C948 C949 1.391 . S
C949 H937 0.950 . S
C949 C945 1.393 . S
C949 C948 1.391 . S
C950 H940 0.950 . S
C950 C951 1.386 . S
C950 C952 1.391 . S
C951 C950 1.386 . S
C951 C955 1.393 . S
C952 H941 0.950 . S
C952 C950 1.391 . S
C952 C953 1.400 . S
C953 C947 1.491 . S
C953 C952 1.400 . S
C953 C954 1.398 . S
C954 H942 0.950 . S
C954 C953 1.398 . S
C954 C955 1.391 . S
C955 H943 0.950 . S
C955 C951 1.393 . S
C955 C954 1.391 . S
H956 C964 0.950 . S
H957 C969 0.950 . S
H958 C966 0.950 . S
H959 C968 0.950 . S
H960 C970 0.950 . S
H961 C972 0.950 . S
H962 C974 0.950 . S
H963 C975 0.950 . S
C964 H956 0.950 . S
C964 C965 1.386 . S
C964 C966 1.391 . S
C965 C964 1.386 . S
C965 C969 1.393 . S
C966 H958 0.950 . S
C966 C964 1.391 . S
C966 C967 1.400 . S
C967 C966 1.400 . S
C967 C968 1.398 . S
C967 C973 1.491 1_455 S
C968 H959 0.950 . S
C968 C967 1.398 . S
C968 C969 1.391 . S
C969 H957 0.950 . S
C969 C965 1.393 . S
C969 C968 1.391 . S
C970 H960 0.950 . S
C970 C971 1.386 . S
C970 C972 1.391 . S
C971 C970 1.386 . S
C971 C975 1.393 . S
C972 H961 0.950 . S
C972 C970 1.391 . S
C972 C973 1.400 . S
C973 C967 1.491 1_655 S
C973 C972 1.400 . S
C973 C974 1.398 . S
C974 H962 0.950 . S
C974 C973 1.398 . S
C974 C975 1.391 . S
C975 H963 0.950 . S
C975 C971 1.393 . S
C975 C974 1.391 . S
H976 C984 0.950 . S
H977 C989 0.950 . S
H978 C986 0.950 . S
H979 C988 0.950 . S
H980 C990 0.950 . S
H981 C992 0.950 . S
H982 C994 0.950 . S
H983 C995 0.950 . S
C984 H976 0.950 . S
C984 C985 1.386 . S
C984 C986 1.391 . S
C985 C984 1.386 . S
C985 C989 1.393 . S
C986 H978 0.950 . S
C986 C984 1.391 . S
C986 C987 1.400 . S
C987 C986 1.400 . S
C987 C988 1.398 . S
C987 C993 1.491 1_565 S
C988 H979 0.950 . S
C988 C987 1.398 . S
C988 C989 1.391 . S
C989 H977 0.950 . S
C989 C985 1.393 . S
C989 C988 1.391 . S
C990 H980 0.950 . S
C990 C991 1.386 . S
C990 C992 1.391 . S
C991 C990 1.386 . S
C991 C995 1.393 . S
C992 H981 0.950 . S
C992 C990 1.391 . S
C992 C993 1.400 . S
C993 C987 1.491 1_545 S
C993 C992 1.400 . S
C993 C994 1.398 . S
C994 H982 0.950 . S
C994 C993 1.398 . S
C994 C995 1.391 . S
C995 H983 0.950 . S
C995 C991 1.393 . S
C995 C994 1.391 . S
C405 C7 2.321 . S
C411 C205 2.320 . S
C425 C40 2.317 . S
C431 C238 2.323 . S
C445 C73 2.311 . S
C451 C271 2.317 . S
C465 C304 2.317 . S
C471 C106 2.311 . S
C485 C139 2.317 . S
C491 C337 2.323 . S
C505 C370 2.311 . S
C511 C172 2.319 . S
C525 N310 0.924 . S
C531 N112 0.924 . S
C545 N145 0.942 . S
C551 N343 0.940 . S
C565 N376 0.934 . S
C571 N178 0.933 . S
C585 N211 0.961 . S
C591 N13 0.961 . S
C605 N244 0.959 . S
C611 N46 0.960 . S
C625 N79 0.930 . S
C631 N277 0.929 . S
C645 N332 0.847 . S
C651 N2 0.842 . S
C665 N35 0.814 . S
C671 N365 0.796 . S
C685 N68 0.794 . S
C691 N200 0.809 . S
C705 N101 0.793 . S
C711 N233 0.794 . S
C725 N134 0.794 . S
C731 N266 0.794 . S
C745 N167 0.846 . S
C751 N299 0.845 . S
C765 C117 1.763 . S
C771 C249 1.764 . S
C785 C150 1.762 . S
C791 C282 1.763 . S
C805 C315 1.767 . S
C811 C183 1.767 . S
C825 C18 1.760 . S
C831 C348 1.760 . S
C845 C381 1.764 . S
C851 C51 1.764 . S
C865 C84 1.762 . S
C871 C216 1.762 . S
C885 C21 1.229 . S
C891 C318 1.246 . S
C905 C351 1.237 . S
C911 C54 1.242 . S
C925 C384 1.239 . S
C931 C87 1.240 . S
C945 C219 1.241 . S
C951 C120 1.230 . S
C965 C153 1.234 . S
C971 C252 1.244 . S
C985 C285 1.245 . S
C991 C186 1.232 . S
