# Generated by pormake.
# Topology snz, (6)-cn, num edge types: 1
# Building blocks:
#     Node 0, Type 0, BuildingBlock: BETGAK_clean_sbu_0, # of connection points: 6
#     Node 1, Type 0, BuildingBlock: BETGAK_clean_sbu_0, # of connection points: 6
#     Node 2, Type 0, BuildingBlock: BETGAK_clean_sbu_0, # of connection points: 6
#     Node 3, Type 0, BuildingBlock: BETGAK_clean_sbu_0, # of connection points: 6
#     Node 4, Type 0, BuildingBlock: BETGAK_clean_sbu_0, # of connection points: 6
#     Node 5, Type 0, BuildingBlock: BETGAK_clean_sbu_0, # of connection points: 6
#     Node 6, Type 0, BuildingBlock: BETGAK_clean_sbu_0, # of connection points: 6
#     Node 7, Type 0, BuildingBlock: BETGAK_clean_sbu_0, # of connection points: 6
#     Node 8, Type 0, BuildingBlock: BETGAK_clean_sbu_0, # of connection points: 6
#     Edge 9, Type (0, 0), BuildingBlock: AJUNOK_clean_linker_0, # of connection points: 2
#     Edge 10, Type (0, 0), BuildingBlock: AJUNOK_clean_linker_0, # of connection points: 2
#     Edge 11, Type (0, 0), BuildingBlock: AJUNOK_clean_linker_0, # of connection points: 2
#     Edge 12, Type (0, 0), BuildingBlock: AJUNOK_clean_linker_0, # of connection points: 2
#     Edge 13, Type (0, 0), BuildingBlock: AJUNOK_clean_linker_0, # of connection points: 2
#     Edge 14, Type (0, 0), BuildingBlock: AJUNOK_clean_linker_0, # of connection points: 2
#     Edge 15, Type (0, 0), BuildingBlock: AJUNOK_clean_linker_0, # of connection points: 2
#     Edge 16, Type (0, 0), BuildingBlock: AJUNOK_clean_linker_0, # of connection points: 2
#     Edge 17, Type (0, 0), BuildingBlock: AJUNOK_clean_linker_0, # of connection points: 2
#     Edge 18, Type (0, 0), BuildingBlock: AJUNOK_clean_linker_0, # of connection points: 2
#     Edge 19, Type (0, 0), BuildingBlock: AJUNOK_clean_linker_0, # of connection points: 2
#     Edge 20, Type (0, 0), BuildingBlock: AJUNOK_clean_linker_0, # of connection points: 2
#     Edge 21, Type (0, 0), BuildingBlock: AJUNOK_clean_linker_0, # of connection points: 2
#     Edge 22, Type (0, 0), BuildingBlock: AJUNOK_clean_linker_0, # of connection points: 2
#     Edge 23, Type (0, 0), BuildingBlock: AJUNOK_clean_linker_0, # of connection points: 2
#     Edge 24, Type (0, 0), BuildingBlock: AJUNOK_clean_linker_0, # of connection points: 2
#     Edge 25, Type (0, 0), BuildingBlock: AJUNOK_clean_linker_0, # of connection points: 2
#     Edge 26, Type (0, 0), BuildingBlock: AJUNOK_clean_linker_0, # of connection points: 2
#     Edge 27, Type (0, 0), BuildingBlock: AJUNOK_clean_linker_0, # of connection points: 2
#     Edge 28, Type (0, 0), BuildingBlock: AJUNOK_clean_linker_0, # of connection points: 2
#     Edge 29, Type (0, 0), BuildingBlock: AJUNOK_clean_linker_0, # of connection points: 2
#     Edge 30, Type (0, 0), BuildingBlock: AJUNOK_clean_linker_0, # of connection points: 2
#     Edge 31, Type (0, 0), BuildingBlock: AJUNOK_clean_linker_0, # of connection points: 2
#     Edge 32, Type (0, 0), BuildingBlock: AJUNOK_clean_linker_0, # of connection points: 2
#     Edge 33, Type (0, 0), BuildingBlock: AJUNOK_clean_linker_0, # of connection points: 2
#     Edge 34, Type (0, 0), BuildingBlock: AJUNOK_clean_linker_0, # of connection points: 2
#     Edge 35, Type (0, 0), BuildingBlock: AJUNOK_clean_linker_0, # of connection points: 2
# Relax obj value: 0.626
# Max RMSD: 0.284
# Mean RMSD: 0.189
data_MOF--net-snz--node1-BETGAK_clean_sbu_0--edge1-AJUNOK_clean_linker_0
_symmetry_space_group_name_H-M    P1
_symmetry_Int_Tables_number       1
_symmetry_cell_setting            triclinic
loop_
_symmetry_equiv_pos_as_xyz
'x, y, z'
_cell_length_a     54.264611
_cell_length_b     41.681257
_cell_length_c     12.385511
_cell_angle_alpha  97.873297
_cell_angle_beta   97.339713
_cell_angle_gamma 121.35269
loop_
_atom_site_label
_atom_site_type_symbol
_atom_site_fract_x
_atom_site_fract_y
_atom_site_fract_z
_atom_type_partial_charge
La0 La 0.16785 0.50862 0.24719 0.0
La1 La 0.13687 0.52118 0.23608 0.0
C2 C 0.20554 0.48833 0.26531 0.0
C3 C 0.21747 0.4699 0.33514 0.0
C4 C 0.24815 0.48945 0.38266 0.0
C5 C 0.26038 0.47103 0.43492 0.0
C6 C 0.24252 0.43202 0.4411 0.0
C7 C 0.21164 0.41284 0.3967 0.0
C8 C 0.19939 0.43127 0.34427 0.0
C9 C 0.14483 0.49433 0.98584 0.0
C10 C 0.10506 0.43387 0.15102 0.0
C11 C 0.09871 0.53921 0.24435 0.0
C12 C 0.08154 0.55252 0.18453 0.0
C13 C 0.06083 0.55563 0.23428 0.0
C14 C 1.04666 0.57254 0.18935 0.0
C15 C 0.05252 0.58647 1.09223 0.0
C16 C 0.07342 0.58342 1.0423 0.0
C17 C 0.08786 0.56669 1.08816 0.0
C18 C 0.13708 0.49367 0.4646 0.0
C19 C 0.19487 0.59861 0.29954 0.0
O20 O 0.21212 0.52313 0.30565 0.0
O21 O 0.17825 0.46678 0.20702 0.0
O22 O 0.15797 0.5212 1.08115 0.0
O23 O 0.15784 0.52045 1.08428 0.0
O24 O 0.13036 0.44623 0.22038 0.0
O25 O 0.10271 0.46222 0.13132 0.0
O26 O 0.12729 0.56347 0.27352 0.0
O27 O 0.09167 0.50378 0.21072 0.0
O28 O 0.15374 0.51884 0.40965 0.0
O29 O 0.15318 0.51839 0.40637 0.0
O30 O 0.16837 0.58188 0.23508 0.0
O31 O 0.20069 0.5733 0.32951 0.0
H32 H 0.26296 0.51896 0.37704 0.0
H33 H 0.28408 0.48755 0.47014 0.0
H34 H 0.19691 0.38293 0.39903 0.0
H35 H 0.17572 0.41477 0.30821 0.0
H36 H 0.05619 0.54591 0.31036 0.0
H37 H 1.03148 0.57539 0.23231 0.0
H38 H 0.07853 0.59387 0.96761 0.0
H39 H 0.10425 0.56539 1.04963 0.0
La40 La 0.67763 0.53201 1.07365 0.0
La41 La 0.64135 0.5319 1.05537 0.0
C42 C 0.72821 0.53878 1.10214 0.0
C43 C 0.7552 0.55347 1.05405 0.0
C44 C 0.77775 0.54818 1.09754 0.0
C45 C 0.80513 0.566 1.06602 0.0
C46 C 0.81117 0.59014 0.99034 0.0
C47 C 0.78812 0.59449 0.9443 0.0
C48 C 0.7607 0.5767 0.97622 0.0
C49 C 0.65408 0.50909 0.29303 0.0
C50 C 0.69293 0.61655 0.12513 0.0
C51 C 0.59257 0.52755 1.03206 0.0
C52 C 0.57128 0.51478 1.10437 0.0
C53 C 0.54411 0.51147 1.07504 0.0
C54 C 0.52331 0.49687 0.14102 0.0
C55 C 0.52926 0.48496 0.23677 0.0
C56 C 0.55673 0.48881 0.26627 0.0
C57 C 0.5775 0.50358 0.20085 0.0
C58 C 0.64708 0.51133 0.80655 0.0
C59 C 0.62069 0.44666 1.01195 0.0
O60 O 0.70308 0.50727 1.04746 0.0
O61 O 0.72356 0.56464 0.14547 0.0
O62 O 0.66329 0.53608 0.23559 0.0
O63 O 0.6633 0.53538 0.23201 0.0
O64 O 0.70235 0.59583 1.0782 0.0
O65 O 0.66593 0.59491 0.13879 0.0
O66 O 0.61835 0.55955 1.07662 0.0
O67 O 0.5956 0.50065 0.98226 0.0
O68 O 0.66035 0.53838 0.90154 0.0
O69 O 0.65981 0.53774 0.90412 0.0
O70 O 0.61329 0.46964 1.05617 0.0
O71 O 0.64821 0.46645 0.99856 0.0
H72 H 0.77453 0.531 0.15891 0.0
H73 H 0.82192 0.56159 1.10357 0.0
H74 H 0.79115 0.61165 0.88313 0.0
H75 H 0.74397 0.58171 0.94159 0.0
H76 H 0.53888 0.51988 1.00081 0.0
H77 H 0.50265 0.49509 0.11738 0.0
H78 H 0.56198 0.47977 0.33902 0.0
H79 H 0.59829 0.50571 0.22467 0.0
La80 La 0.62888 0.0692 0.89753 0.0
La81 La 0.67082 0.11508 0.93123 0.0
C82 C 0.57662 1.0096 0.85173 0.0
C83 C 0.55618 0.99383 0.92603 0.0
C84 C 0.52877 0.95834 0.88684 0.0
C85 C 0.50929 0.94408 0.95775 0.0
C86 C 0.51684 0.96527 1.06865 0.0
C87 C 0.54455 1.00057 1.10795 0.0
C88 C 0.56403 1.01468 1.03738 0.0
C89 C 0.64022 0.09411 0.66711 0.0
C90 C 0.62032 0.13479 0.89769 0.0
C91 C 0.72835 0.16353 0.96999 0.0
C92 C 0.75589 0.16586 0.93649 0.0
C93 C 0.7755 0.1953 0.88759 0.0
C94 C 0.80269 0.19997 0.86953 0.0
C95 C 0.81223 0.1758 0.90051 0.0
C96 C 0.79218 0.14588 0.94725 0.0
C97 C 0.76516 0.14132 0.96544 0.0
C98 C 0.6604 0.09367 0.16565 0.0
C99 C 0.66781 0.0411 0.96049 0.0
O100 O 0.60042 1.00878 0.87312 0.0
O101 O 0.58305 0.0432 0.83642 0.0
O102 O 0.64897 0.08131 0.74637 0.0
O103 O 0.64849 0.08146 0.74915 0.0
O104 O 0.60849 0.10211 0.92658 0.0
O105 O 0.64798 0.14767 0.88363 0.0
O106 O 0.70892 0.16547 0.90169 0.0
O107 O 0.71427 0.13833 1.02627 0.0
O108 O 0.65117 0.10515 1.08369 0.0
O109 O 0.65169 0.10495 1.08056 0.0
O110 O 0.68185 0.06992 0.91351 0.0
O111 O 0.64317 0.03605 0.97804 0.0
H112 H 0.52237 0.94181 0.80135 0.0
H113 H 0.48809 0.91679 0.92535 0.0
H114 H 0.55123 1.01719 0.19352 0.0
H115 H 0.58522 0.04202 1.06959 0.0
H116 H 0.77016 0.21556 0.86523 0.0
H117 H 0.81673 0.22352 0.83356 0.0
H118 H 0.79714 0.12536 0.96991 0.0
H119 H 0.75164 0.11856 1.00477 0.0
La120 La 0.82718 0.86906 0.33639 0.0
La121 La 0.79672 0.88322 0.32874 0.0
C122 C 0.86416 0.84904 0.32529 0.0
C123 C 0.8823 0.83769 0.38876 0.0
C124 C 0.9024 0.83296 0.33896 0.0
C125 C 0.91634 0.81612 0.38662 0.0
C126 C 0.91044 0.80335 0.48532 0.0
C127 C 0.89097 0.8093 0.53722 0.0
C128 C 0.8769 0.82605 0.48907 0.0
C129 C 0.82455 0.89179 1.10196 0.0
C130 C 0.76874 0.79309 0.28764 0.0
C131 C 0.76117 0.90696 0.3213 0.0
C132 C 0.74414 0.91973 0.25301 0.0
C133 C 0.72561 0.92841 0.30175 0.0
C134 C 0.71283 0.94625 0.25033 0.0
C135 C 0.71762 0.95584 0.14646 0.0
C136 C 0.7362 0.94694 1.0972 0.0
C137 C 0.74934 0.92939 0.14974 0.0
C138 C 0.79891 0.8614 0.56504 0.0
C139 C 0.85964 0.95726 0.40628 0.0
O140 O 0.87182 0.885 0.34768 0.0
O141 O 0.83562 0.82544 0.30801 0.0
O142 O 0.80827 0.86908 0.16305 0.0
O143 O 0.80875 0.86939 0.16603 0.0
O144 O 0.79537 0.81017 0.3512 0.0
O145 O 0.76303 0.81815 0.25539 0.0
O146 O 0.75237 0.87062 0.30704 0.0
O147 O 0.78985 0.92869 0.34107 0.0
O148 O 0.81504 0.88378 0.5033 0.0
O149 O 0.81462 0.88353 0.49988 0.0
O150 O 0.83386 0.94419 0.33896 0.0
O151 O 0.86251 0.92948 0.42891 0.0
H152 H 0.90653 0.84106 0.26054 0.0
H153 H 0.9311 0.81201 0.34416 0.0
H154 H 0.88648 0.80086 0.61488 0.0
H155 H 0.86124 0.82898 0.52852 0.0
H156 H 0.72184 0.9227 0.38283 0.0
H157 H 0.69993 0.95374 0.29486 0.0
H158 H 0.74077 0.95374 1.01789 0.0
H159 H 0.76408 0.92415 1.11073 0.0
La160 La 0.3225 0.85878 0.54319 0.0
La161 La 0.28656 0.86012 0.52812 0.0
C162 C 0.3703 0.86084 0.5603 0.0
C163 C 0.39186 0.87523 0.48935 0.0
C164 C 0.41697 0.87313 0.50663 0.0
C165 C 0.43749 0.88776 0.43949 0.0
C166 C 0.4333 0.90506 0.35502 0.0
C167 C 0.40788 0.90661 0.33725 0.0
C168 C 0.38737 0.89179 0.40355 0.0
C169 C 0.31557 0.87446 0.7932 0.0
C170 C 0.3438 0.9447 0.60706 0.0
C171 C 0.23665 0.8549 0.50028 0.0
C172 C 0.20802 0.83629 0.538 0.0
C173 C 0.18465 0.83886 0.48642 0.0
C174 C 0.15669 0.81955 0.5131 0.0
C175 C 0.15098 0.79678 0.59245 0.0
C176 C 0.17463 0.79468 0.64545 0.0
C177 C 0.20265 0.81388 0.61805 0.0
C178 C 0.29363 0.84534 0.2781 0.0
C179 C 0.27035 0.77509 0.45762 0.0
O180 O 0.34423 0.83011 0.51016 0.0
O181 O 0.36792 0.88711 0.61891 0.0
O182 O 0.30247 0.84935 0.69434 0.0
O183 O 0.30305 0.85006 0.69194 0.0
O184 O 0.35151 0.92239 0.5596 0.0
O185 O 0.31604 0.92439 0.61856 0.0
O186 O 0.26107 0.88312 0.57078 0.0
O187 O 0.24177 0.83169 0.44141 0.0
O188 O 0.30665 0.87016 0.37751 0.0
O189 O 0.30603 0.86939 0.37997 0.0
O190 O 0.26088 0.7953 0.50648 0.0
O191 O 0.29749 0.79712 0.44653 0.0
H192 H 0.42078 0.86039 0.57218 0.0
H193 H 0.45687 0.88613 0.45468 0.0
H194 H 0.40375 0.91905 0.27141 0.0
H195 H 0.36798 0.89338 0.38797 0.0
H196 H 0.18792 0.85568 0.42404 0.0
H197 H 0.13957 0.82286 0.47213 0.0
H198 H 0.17132 0.77756 0.70697 0.0
H199 H 0.22 0.81087 0.65856 0.0
La200 La 0.29023 0.27431 0.6598 0.0
La201 La 0.33219 0.31972 0.69265 0.0
C202 C 0.23261 0.22662 0.6217 0.0
C203 C 0.20531 0.22418 0.65803 0.0
C204 C 0.18302 0.19083 0.68629 0.0
C205 C 0.15603 0.1864 0.7057 0.0
C206 C 0.14947 0.2151 0.69815 0.0
C207 C 0.1719 0.24848 0.66979 0.0
C208 C 0.1988 0.25281 0.65019 0.0
C209 C 0.3008 0.29559 0.42534 0.0
C210 C 0.29353 0.34817 0.62851 0.0
C211 C 0.38472 0.37867 0.73756 0.0
C212 C 0.40587 0.39393 0.66494 0.0
C213 C 0.42629 0.43388 0.68268 0.0
C214 C 0.44572 0.44835 0.61171 0.0
C215 C 0.44509 0.42313 0.52151 0.0
C216 C 0.42477 0.38307 0.50495 0.0
C217 C 0.40519 0.36868 0.57499 0.0
C218 C 0.32066 0.29514 0.92351 0.0
C219 C 0.34041 0.2541 0.69544 0.0
O220 O 0.2519 0.22355 0.68685 0.0
O221 O 0.24679 0.25271 0.56806 0.0
O222 O 0.30967 0.28351 0.50656 0.0
O223 O 0.30914 0.28377 0.5098 0.0
O224 O 0.27969 0.31992 0.67763 0.0
O225 O 0.31813 0.35299 0.61123 0.0
O226 O 0.3612 0.38 0.71357 0.0
O227 O 0.37784 0.34528 0.75645 0.0
O228 O 0.31219 0.30819 0.84422 0.0
O229 O 0.31267 0.30802 0.84148 0.0
O230 O 0.35208 0.28625 0.66373 0.0
O231 O 0.31288 0.2417 0.71025 0.0
H232 H 0.18604 0.16727 0.69045 0.0
H233 H 0.1398 0.15946 0.72309 0.0
H234 H 0.16876 0.27176 0.6624 0.0
H235 H 0.2144 0.27869 0.6263 0.0
H236 H 0.42707 0.4539 0.75092 0.0
H237 H 0.46102 0.47937 0.62664 0.0
H238 H 0.42417 0.3627 0.43847 0.0
H239 H 0.38953 0.33771 0.55865 0.0
La240 La 0.48447 0.19976 0.71109 0.0
La241 La 0.47896 0.1931 0.89781 0.0
C242 C 0.47598 0.20708 0.51414 0.0
C243 C 0.47841 0.24218 0.49001 0.0
C244 C 0.48733 0.27346 0.57975 0.0
C245 C 0.49835 0.31049 0.56236 0.0
C246 C 0.50204 0.31715 0.4557 0.0
C247 C 0.48769 0.28435 0.36349 0.0
C248 C 0.47605 0.24713 0.3809 0.0
C249 C 0.52831 0.27093 0.84679 0.0
C250 C 0.43351 0.21143 0.78697 0.0
C251 C 0.49567 0.20402 1.10689 0.0
C252 C 0.52446 0.23691 0.17672 0.0
C253 C 0.52938 0.24553 0.29322 0.0
C254 C 0.54971 0.28368 0.35482 0.0
C255 C 0.56466 0.31356 0.2992 0.0
C256 C 0.56416 0.30296 0.18622 0.0
C257 C 0.54425 0.26466 0.12564 0.0
C258 C 0.43482 0.12124 0.76725 0.0
C259 C 0.5275 0.1782 0.81569 0.0
O260 O 0.50078 0.21275 0.56692 0.0
O261 O 0.45443 0.18671 0.56056 0.0
O262 O 0.53094 0.25054 0.76694 0.0
O263 O 0.5012 0.24973 0.85425 0.0
O264 O 0.44616 0.20799 0.70544 0.0
O265 O 0.44419 0.20785 0.88369 0.0
O266 O 0.49679 0.17976 1.03317 0.0
O267 O 0.47838 0.21387 1.06159 0.0
O268 O 0.43351 0.14085 0.85399 0.0
O269 O 0.46138 0.1426 0.75321 0.0
O270 O 0.52011 0.19098 0.90176 0.0
O271 O 0.51197 0.17368 0.7166 0.0
H272 H 0.48829 0.27013 0.66485 0.0
H273 H 0.50728 0.3344 0.63463 0.0
H274 H 0.48878 0.28741 0.27856 0.0
H275 H 0.46806 0.22306 0.31005 0.0
H276 H 0.51532 0.22398 0.33501 0.0
H277 H 0.54999 0.29024 0.44282 0.0
H278 H 0.57602 0.32494 0.14168 0.0
H279 H 0.54202 0.25775 1.03665 0.0
La280 La 0.97881 0.17741 0.86238 0.0
La281 La 0.97974 0.21163 0.70672 0.0
C282 C 0.97012 0.14195 1.01635 0.0
C283 C 0.96601 0.1043 1.01865 0.0
C284 C 0.98424 0.0937 0.97615 0.0
C285 C 0.9843 0.06216 1.00261 0.0
C286 C 0.96868 0.04432 1.08196 0.0
C287 C 0.94403 0.04705 1.09148 0.0
C288 C 0.9437 0.07837 1.06522 0.0
C289 C 0.95217 0.12249 0.66503 0.0
C290 C 0.92885 0.19666 0.82749 0.0
C291 C 0.98213 0.22351 0.5146 0.0
C292 C 0.98773 0.19983 0.43336 0.0
C293 C 0.96377 0.16271 0.3745 0.0
C294 C 0.96822 0.13292 0.34582 0.0
C295 C 0.99678 0.13955 0.37307 0.0
C296 C 1.02112 0.17782 0.41777 0.0
C297 C 1.01665 0.20782 0.44508 0.0
C298 C 1.00857 0.26913 0.89638 0.0
C299 C 1.03351 0.19832 0.76391 0.0
O300 O 0.99633 0.16992 1.01137 0.0
O301 O 0.94906 0.14043 0.94837 0.0
O302 O 0.97307 0.12817 0.7429 0.0
O303 O 0.9488 0.15018 0.69536 0.0
O304 O 0.94676 0.19347 0.90237 0.0
O305 O 0.93676 0.20247 0.73189 0.0
O306 O 1.00384 0.24642 0.60234 0.0
O307 O 0.95716 0.2042 0.54463 0.0
O308 O 0.98909 0.26502 0.81385 0.0
O309 O 1.01029 0.23943 0.87434 0.0
O310 O 1.01655 0.20201 0.68588 0.0
O311 O 1.02384 0.19113 0.85559 0.0
H312 H 0.99995 0.11135 0.93042 0.0
H313 H 1.00077 0.05716 0.97917 0.0
H314 H 0.92844 0.03022 0.13874 0.0
H315 H 0.92761 0.08406 1.08972 0.0
H316 H 0.94118 0.15561 0.36118 0.0
H317 H 0.94893 0.10425 0.30607 0.0
H318 H 1.04349 0.18454 0.43855 0.0
H319 H 1.03568 0.23644 0.48733 0.0
La320 La 0.96552 0.66128 0.70192 0.0
La321 La 0.99609 0.7282 0.87911 0.0
C322 C 0.93709 0.61195 0.51668 0.0
C323 C 0.90774 0.59911 0.44986 0.0
C324 C 0.89723 0.57645 0.33978 0.0
C325 C 0.87835 0.58029 0.26157 0.0
C326 C 0.87481 0.6113 0.29166 0.0
C327 C 0.87622 0.62261 0.40551 0.0
C328 C 0.89389 0.61786 0.48506 0.0
C329 C 0.98986 0.65018 0.88213 0.0
C330 C 1.03495 0.72425 0.72124 0.0
C331 C 1.01669 0.77925 1.06002 0.0
C332 C 1.00045 0.78949 0.12877 0.0
C333 C 1.00489 0.7896 0.24292 0.0
C334 C 0.9808 0.77667 0.2934 0.0
C335 C 0.9524 0.76199 0.22701 0.0
C336 C 0.95064 0.77361 0.12717 0.0
C337 C 0.97441 0.7861 1.0755 0.0
C338 C 0.97108 0.73731 0.696 0.0
C339 C 0.92738 0.66467 0.86489 0.0
O340 O 0.95744 0.64841 0.52628 0.0
O341 O 0.93756 0.60282 0.61306 0.0
O342 O 0.96438 0.6253 0.81503 0.0
O343 O 1.00161 0.68041 0.84533 0.0
O344 O 1.009 0.69574 0.65392 0.0
O345 O 1.03568 0.73809 0.82485 0.0
O346 O 1.01631 0.78667 0.96108 0.0
O347 O 1.01078 0.74427 1.05471 0.0
O348 O 0.99779 0.76165 0.75554 0.0
O349 O 0.95961 0.70827 0.73779 0.0
O350 O 0.95307 0.69428 0.92946 0.0
O351 O 0.92642 0.65019 0.76237 0.0
H352 H 0.90634 0.55996 0.31122 0.0
H353 H 0.87364 0.56676 0.17389 0.0
H354 H 0.87034 0.64293 0.43341 0.0
H355 H 0.90019 0.63383 0.57049 0.0
H356 H 1.02503 0.79303 0.28673 0.0
H357 H 0.98298 0.76942 0.37327 0.0
H358 H 0.92946 0.76575 1.07915 0.0
H359 H 0.97068 0.78731 0.98851 0.0
C360 C 0.12618 0.46727 0.76521 0.0
C361 C 0.14553 0.50035 0.85744 0.0
C362 C 0.12478 0.46675 0.64639 0.0
C363 C 0.14289 0.49911 0.60152 0.0
H364 H 0.1112 0.44014 0.78523 0.0
H365 H 0.10861 0.43943 0.5871 0.0
S366 S 0.19909 0.59567 0.79863 0.0
N367 N 0.18443 0.56844 0.88692 0.0
N368 N 0.18204 0.56747 0.67047 0.0
C369 C 0.16283 0.53308 0.69221 0.0
C370 C 0.1641 0.53368 0.81539 0.0
C371 C 0.63713 0.4827 0.58922 0.0
C372 C 0.65197 0.51661 0.68019 0.0
C373 C 0.63817 0.48203 0.47176 0.0
C374 C 0.65384 0.51531 0.42691 0.0
H375 H 0.62393 0.45505 0.60922 0.0
H376 H 0.62599 0.45386 0.41363 0.0
S377 S 0.69769 0.61442 0.62092 0.0
N378 N 0.68387 0.58651 0.70856 0.0
N379 N 0.68557 0.58543 0.4944 0.0
C380 C 0.66898 0.55018 0.51623 0.0
C381 C 0.66811 0.55081 0.63815 0.0
C382 C 0.66259 0.08034 0.48829 0.0
C383 C 0.64603 0.09335 0.53949 0.0
C384 C 0.66623 0.08087 0.37227 0.0
C385 C 0.65394 0.09423 0.29211 0.0
H386 H 0.67313 0.06947 0.53821 0.0
H387 H 0.6794 0.07028 0.34452 0.0
S388 S 0.60745 0.13064 0.37466 0.0
N389 N 0.61649 0.11965 0.49022 0.0
N390 N 0.62327 0.12039 0.28223 0.0
C391 C 0.63718 0.10698 0.34188 0.0
C392 C 0.63344 0.10653 0.46 0.0
C393 C 0.7876 0.84375 0.76235 0.0
C394 C 0.80701 0.87053 0.7028 0.0
C395 C 0.79217 0.84954 0.88514 0.0
C396 C 0.81687 0.88327 0.96439 0.0
H397 H 0.76788 0.81703 0.71223 0.0
H398 H 0.77584 0.82678 0.9178 0.0
S399 S 0.87583 0.96432 0.86424 0.0
N400 N 0.85302 0.93357 0.74457 0.0
N401 N 0.86147 0.94425 0.96534 0.0
C402 C 0.83649 0.91031 0.90618 0.0
C403 C 0.83181 0.90432 0.78114 0.0
C404 C 0.28776 0.82996 0.93955 0.0
C405 C 0.30896 0.86572 0.9154 0.0
C406 C 0.28392 0.82495 1.0531 0.0
C407 C 0.30064 0.85464 0.1568 0.0
H408 H 0.27365 0.80503 0.86971 0.0
H409 H 0.26697 0.79642 1.05935 0.0
S410 S 0.36001 0.95456 0.1492 0.0
N411 N 0.34748 0.93186 1.01495 0.0
N412 N 0.34036 0.92242 0.2185 0.0
C413 C 0.32196 0.89043 0.13381 0.0
C414 C 0.3259 0.89564 1.01831 0.0
C415 C 0.32577 0.2808 0.1287 0.0
C416 C 0.31467 0.29597 1.05074 0.0
C417 C 0.32225 0.28029 0.24494 0.0
C418 C 0.30701 0.2951 0.29838 0.0
H419 H 0.33782 0.26869 1.09897 0.0
H420 H 0.33172 0.26785 0.29299 0.0
S421 S 0.27296 0.33912 0.14173 0.0
N422 N 0.2873 0.3269 1.04677 0.0
N423 N 0.28065 0.32599 0.25477 0.0
C424 C 0.29586 0.31044 0.22148 0.0
C425 C 0.29953 0.31096 1.10335 0.0
C426 C 0.52865 0.3609 0.33638 0.0
C427 C 0.52792 0.35481 0.44546 0.0
C428 C 0.54958 0.3589 0.28447 0.0
C429 C 0.5697 0.35204 0.34429 0.0
H430 H 0.50922 0.35671 0.28331 0.0
H431 H 0.54511 0.35329 0.19386 0.0
S432 S 0.59355 0.37688 0.65211 0.0
N433 N 0.56159 0.37364 0.62674 0.0
N434 N 0.60066 0.36942 0.5287 0.0
C435 C 0.57699 0.36532 0.46091 0.0
C436 C 0.55571 0.36714 0.51324 0.0
C437 C 0.97712 0.06886 0.35096 0.0
C438 C 1.00025 0.1063 0.34724 0.0
C439 C 0.97165 0.03606 0.27547 0.0
C440 C 0.98574 0.04244 0.18526 0.0
H441 H 0.96123 0.06526 0.40072 0.0
H442 H 0.95112 1.00864 0.26753 0.0
S443 S 0.06262 0.12393 0.21583 0.0
N444 N 1.04877 0.14096 0.30086 0.0
N445 N 1.03678 0.07742 0.165 0.0
C446 C 1.01559 0.07393 0.21921 0.0
C447 C 1.02211 0.10815 0.29301 0.0
C448 C 0.88117 0.67262 0.25177 0.0
C449 C 0.88793 0.64399 0.23462 0.0
C450 C 0.90153 0.71098 0.24695 0.0
C451 C 0.92913 0.72167 0.22437 0.0
H452 H 0.86113 0.66611 0.27825 0.0
H453 H 0.89631 0.73258 0.26627 0.0
S454 S 0.95504 0.65695 0.14501 0.0
N455 N 0.92242 0.62875 0.1711 0.0
N456 N 0.96008 0.69999 0.16493 0.0
C457 C 0.93459 0.69262 0.194 0.0
C458 C 0.91403 0.6539 0.19725 0.0
C459 C 0.25513 0.36698 0.60821 0.0
C460 C 0.28123 0.37079 0.58461 0.0
C461 C 0.24284 0.38655 0.56226 0.0
C462 C 0.25603 0.41128 0.49053 0.0
H463 H 0.244 0.34869 0.66284 0.0
H464 H 0.22288 0.38247 0.58419 0.0
S465 S 0.32365 0.42972 0.39573 0.0
N466 N 0.31919 0.40075 0.48036 0.0
N467 N 0.29625 0.43651 0.39452 0.0
C468 C 0.28201 0.41507 0.46578 0.0
C469 C 0.29449 0.39523 0.51242 0.0
C470 C 0.69961 0.68439 0.17481 0.0
C471 C 0.71211 0.66165 0.16427 0.0
C472 C 0.71733 0.72606 0.21171 0.0
C473 C 0.74886 0.74799 0.24476 0.0
H474 H 0.67569 0.66985 0.15302 0.0
H475 H 0.70605 0.74114 0.21622 0.0
S476 S 0.79339 0.70351 0.23653 0.0
N477 N 0.75881 0.66585 0.19074 0.0
N478 N 0.79129 0.74181 0.26344 0.0
C479 C 0.76147 0.72536 0.23581 0.0
C480 C 0.74353 0.68329 0.19517 0.0
C481 C 0.48342 0.91268 0.15712 0.0
C482 C 0.49583 0.95064 0.14307 0.0
C483 C 0.46367 0.89838 0.22738 0.0
C484 C 0.45521 0.92129 0.28478 0.0
H485 H 0.48923 0.894 0.11417 0.0
H486 H 0.45455 0.86895 0.23534 0.0
S487 S 0.48128 1.02254 0.27643 0.0
N488 N 0.49815 1.0108 0.19252 0.0
N489 N 0.46109 0.98395 0.32411 0.0
C490 C 0.46746 0.95927 0.27149 0.0
C491 C 0.48777 0.97394 0.20094 0.0
C492 C 0.5817 0.14958 0.95273 0.0
C493 C 0.60051 0.15207 0.87897 0.0
C494 C 0.55946 0.15864 0.93277 0.0
C495 C 0.55276 0.16947 0.83433 0.0
H496 H 0.58393 0.13989 1.02804 0.0
H497 H 0.54663 0.15597 0.99507 0.0
S498 S 0.59436 0.18075 0.60953 0.0
N499 N 0.61009 0.16741 0.70078 0.0
N500 N 0.5684 0.18252 0.66163 0.0
C501 C 0.57128 0.17207 0.75911 0.0
C502 C 0.59471 0.16391 0.7813 0.0
C503 C 1.03056 0.34198 0.96717 0.0
C504 C 1.03337 0.31004 0.96928 0.0
C505 C 0.05326 0.38076 1.0264 0.0
C506 C 0.08064 0.39087 1.09336 0.0
H507 H 1.01049 0.33715 0.9174 0.0
H508 H 1.04922 0.40329 1.01849 0.0
S509 S 0.10035 0.31912 0.1309 0.0
N510 N 0.06672 0.29227 1.04703 0.0
N511 N 0.10874 0.36409 0.15756 0.0
C512 C 0.08376 0.35922 1.0978 0.0
C513 C 0.06054 0.31949 1.03666 0.0
C514 C 0.8837 0.60882 0.91309 0.0
C515 C 0.89891 0.64755 0.90398 0.0
C516 C 0.85586 0.59086 0.942 0.0
C517 C 0.84129 0.61036 0.96045 0.0
H518 H 0.89349 0.59215 0.89785 0.0
H519 H 0.8454 0.56104 0.94767 0.0
S520 S 0.87089 0.71172 0.94001 0.0
N521 N 0.89668 0.7043 0.91114 0.0
N522 N 0.8449 0.67126 0.96589 0.0
C523 C 0.85628 0.64913 0.95033 0.0
C524 C 0.88481 0.66746 0.92207 0.0
C525 C 1.03736 0.65513 0.9632 0.0
C526 C 1.00637 0.63668 0.94696 0.0
C527 C 0.05218 0.63889 1.01013 0.0
C528 C 1.03664 0.60375 1.04349 0.0
H529 H 0.05014 0.68161 0.9363 0.0
H530 H 0.07599 0.65393 1.02017 0.0
S531 S 0.95531 0.54465 1.02091 0.0
N532 N 0.96086 0.58205 0.97115 0.0
N533 N 0.98833 0.55139 1.05656 0.0
C534 C 1.00573 0.58561 1.02952 0.0
C535 C 0.99075 0.6021 0.98218 0.0
C536 C 0.56759 0.38359 0.98242 0.0
C537 C 0.59785 0.40141 0.97451 0.0
C538 C 0.54562 0.34244 0.94471 0.0
C539 C 0.55201 0.31559 0.89511 0.0
H540 H 0.5605 0.40181 1.01763 0.0
H541 H 0.52319 0.33175 0.95313 0.0
S542 S 0.62768 0.34485 0.85921 0.0
N543 N 0.63244 0.38647 0.91647 0.0
N544 N 0.59231 0.31132 0.84591 0.0
C545 C 0.58228 0.33293 0.88881 0.0
C546 C 0.60463 0.3747 0.92803 0.0
C547 C 0.88168 0.19905 0.77392 0.0
C548 C 0.89975 0.19257 0.84963 0.0
C549 C 0.85432 0.19412 0.79112 0.0
C550 C 0.84249 0.18173 0.8846 0.0
H551 H 0.88868 0.20801 0.6994 0.0
H552 H 0.84199 0.19948 0.72841 0.0
S553 S 0.88089 0.16152 0.11187 0.0
N554 N 0.90311 0.17344 1.02463 0.0
N555 N 0.853 0.1645 1.05675 0.0
C556 C 0.86051 0.17538 0.96138 0.0
C557 C 0.88846 0.18068 0.94419 0.0
C558 C 0.70821 0.02608 0.99405 0.0
C559 C 0.67962 1.01747 1.00019 0.0
C560 C 0.72005 1.00588 1.03894 0.0
C561 C 0.70396 0.97579 1.09247 0.0
H562 H 0.72186 0.04906 0.95559 0.0
H563 H 0.7424 1.0147 1.0339 0.0
S564 S 0.62672 0.93883 0.12079 0.0
N565 N 0.63491 0.9747 1.05921 0.0
N566 N 0.65641 0.9366 0.13911 0.0
C567 C 0.67491 0.96605 1.09536 0.0
C568 C 0.663 0.98674 1.05052 0.0
C569 C 0.26395 0.70746 0.40613 0.0
C570 C 0.25133 0.73003 0.41816 0.0
C571 C 0.24632 0.66575 0.37134 0.0
C572 C 0.21476 0.64364 0.34264 0.0
H573 H 0.28789 0.72217 0.42516 0.0
H574 H 0.25766 0.65079 0.36488 0.0
S575 S 0.16997 0.68755 0.35737 0.0
N576 N 0.20453 0.72544 0.39829 0.0
N577 N 0.17218 0.64935 0.33006 0.0
C578 C 0.20204 0.66607 0.35344 0.0
C579 C 0.2199 0.70819 0.39156 0.0
C580 C 0.51635 0.48215 0.42449 0.0
C581 C 0.50719 0.46886 0.30686 0.0
C582 C 0.49616 0.46741 0.49273 0.0
C583 C 0.46593 0.43858 0.44642 0.0
H584 H 0.53934 0.5044 0.46431 0.0
H585 H 0.50441 0.47838 0.58279 0.0
S586 S 0.43057 0.39342 0.14299 0.0
N587 N 0.4659 0.42442 0.14708 0.0
N588 N 0.42779 0.39756 0.2747 0.0
C589 C 0.45645 0.42498 0.32877 0.0
C590 C 0.47706 0.43995 0.25928 0.0
C591 C 0.9697 0.78392 0.59137 0.0
C592 C 0.9542 0.75073 0.63301 0.0
C593 C 0.95533 0.80018 0.54224 0.0
C594 C 0.92481 0.78428 0.53368 0.0
H595 H 0.99336 0.79795 0.5985 0.0
H596 H 0.96849 0.82612 0.5135 0.0
S597 S 0.87364 0.6964 0.62573 0.0
N598 N 0.90628 0.70188 0.65953 0.0
N599 N 0.87924 0.73199 0.56617 0.0
C600 C 0.90886 0.75046 0.57246 0.0
C601 C 0.9235 0.73378 0.62207 0.0
C602 C 0.41669 0.05034 0.65795 0.0
C603 C 0.41138 0.07627 0.72174 0.0
C604 C 0.39513 1.00902 0.62207 0.0
C605 C 0.36632 0.99002 0.64584 0.0
H606 H 0.43797 0.06193 0.63643 0.0
H607 H 0.40135 0.99161 0.57477 0.0
S608 S 0.33981 0.04345 0.80672 0.0
N609 N 0.37367 0.07811 0.80423 0.0
N610 N 0.33437 1.00265 0.73752 0.0
C611 C 0.36065 1.01569 0.70805 0.0
C612 C 0.38258 0.05764 0.74523 0.0
C613 C 0.0787 0.22167 0.67076 0.0
C614 C 0.06291 0.20197 0.74805 0.0
C615 C 0.10589 0.22565 0.65562 0.0
C616 C 0.11967 0.21026 0.71667 0.0
H617 H 0.07027 0.23497 0.62206 0.0
H618 H 0.11607 0.2409 0.59381 0.0
S619 S 0.08895 0.15766 0.93591 0.0
N620 N 0.06451 0.16785 0.8897 0.0
N621 N 0.11468 0.17552 0.86354 0.0
C622 C 0.10423 0.19087 0.79559 0.0
C623 C 0.07653 0.1869 0.81092 0.0
C624 C 0.40317 0.23321 0.67092 0.0
C625 C 0.40801 0.21973 0.76607 0.0
C626 C 0.3809 0.24207 0.64855 0.0
C627 C 0.36041 0.23721 0.71668 0.0
H628 H 0.41742 0.23803 0.61298 0.0
H629 H 0.38005 0.25361 0.57595 0.0
S630 S 0.36203 0.20263 0.97806 0.0
N631 N 0.38907 0.20227 0.93075 0.0
N632 N 0.34766 0.21768 0.88761 0.0
C633 C 0.36452 0.22311 0.81154 0.0
C634 C 0.38781 0.21478 0.83597 0.0
C635 C 0.91053 1.01144 0.53433 0.0
C636 C 0.88339 1.00048 0.46325 0.0
C637 C 0.93222 0.05034 0.59536 0.0
C638 C 0.9285 0.08146 0.59094 0.0
H639 H 0.91507 0.98949 0.54456 0.0
H640 H 0.95216 0.0559 0.6485 0.0
S641 S 0.86218 0.0702 0.41603 0.0
N642 N 0.85479 0.0257 0.39126 0.0
N643 N 0.89504 0.0978 0.505 0.0
C644 C 0.90173 0.07124 0.51888 0.0
C645 C 0.87953 0.0314 0.45593 0.0
C646 C 0.09128 0.76169 0.76511 0.0
C647 C 0.06391 0.74051 0.68418 0.0
C648 C 0.11892 0.77881 0.73486 0.0
C649 C 0.12088 0.77635 0.62187 0.0
H650 H 0.09147 0.76525 0.85354 0.0
H651 H 0.13901 0.79498 0.80119 0.0
S652 S 0.05614 0.72332 0.37577 0.0
N653 N 1.04089 0.71738 0.48469 0.0
N654 N 0.09242 0.74955 0.428 0.0
C655 C 0.09369 0.75489 0.53976 0.0
C656 C 0.06547 0.737 0.57069 0.0
loop_
_geom_bond_atom_site_label_1
_geom_bond_atom_site_label_2
_geom_bond_distance
_geom_bond_site_symmetry_2
_ccdc_geom_bond_type
La0 C2 2.928 . S
La0 O20 2.521 . S
La0 O21 2.628 . S
La0 O22 2.554 1_554 S
La0 O23 2.757 1_554 S
La0 O24 2.470 1_554 S
La0 O29 2.482 . S
La0 O31 2.503 . S
La1 C11 2.928 1_554 S
La1 O23 2.482 1_554 S
La1 O25 2.503 1_554 S
La1 O26 2.484 1_455 S
La1 O27 2.628 1_554 S
La1 O28 2.554 . S
La1 O29 2.757 . S
La1 O30 2.470 . S
C2 La0 2.928 . S
C2 C3 1.503 . S
C2 O20 1.261 . S
C2 O21 1.243 . S
C3 C2 1.503 . S
C3 C4 1.394 . S
C3 C8 1.373 . S
C4 C3 1.394 . S
C4 C5 1.380 . S
C4 H32 0.930 . S
C5 C4 1.380 . S
C5 C6 1.376 . S
C5 H33 0.930 . S
C6 C5 1.376 . S
C6 C7 1.370 . S
C7 C6 1.370 . S
C7 C8 1.396 . S
C7 H34 0.929 . S
C8 C3 1.373 . S
C8 C7 1.396 . S
C8 H35 0.929 . S
C9 O22 1.240 . S
C9 O23 1.289 . S
C10 O24 1.258 . S
C10 O25 1.256 . S
C11 La1 2.928 1_556 S
C11 C12 1.499 . S
C11 O26 1.255 1_456 S
C11 O27 1.243 . S
C12 C11 1.499 . S
C12 C13 1.398 1_456 S
C12 C17 1.373 . S
C13 C12 1.398 1_654 S
C13 C14 1.380 . S
C13 H36 0.930 . S
C14 C13 1.380 . S
C14 C15 1.376 1_554 S
C14 H37 0.930 . S
C15 C14 1.376 1_556 S
C15 C16 1.370 1_655 S
C16 C15 1.370 1_455 S
C16 C17 1.396 . S
C16 H38 0.929 . S
C17 C12 1.373 . S
C17 C16 1.396 . S
C17 H39 0.929 . S
C18 O28 1.240 . S
C18 O29 1.289 . S
C19 O30 1.258 . S
C19 O31 1.256 . S
O20 La0 2.521 . S
O20 C2 1.261 . S
O21 La0 2.628 . S
O21 C2 1.243 . S
O22 La0 2.554 1_556 S
O22 C9 1.240 . S
O23 La0 2.757 1_556 S
O23 La1 2.482 1_556 S
O23 C9 1.289 . S
O24 La0 2.470 1_556 S
O24 C10 1.258 . S
O25 La1 2.503 1_556 S
O25 C10 1.256 . S
O26 La1 2.484 1_655 S
O26 C11 1.255 1_654 S
O27 La1 2.628 1_556 S
O27 C11 1.243 . S
O28 La1 2.554 . S
O28 C18 1.240 . S
O29 La0 2.482 . S
O29 La1 2.757 . S
O29 C18 1.289 . S
O30 La1 2.470 . S
O30 C19 1.258 . S
O31 La0 2.503 . S
O31 C19 1.256 . S
H32 C4 0.930 . S
H33 C5 0.930 . S
H34 C7 0.929 . S
H35 C8 0.929 . S
H36 C13 0.930 . S
H37 C14 0.930 . S
H38 C16 0.929 . S
H39 C17 0.929 . S
La40 C42 2.928 . S
La40 O60 2.521 . S
La40 O61 2.628 . S
La40 O62 2.554 . S
La40 O63 2.757 . S
La40 O64 2.470 . S
La40 O69 2.482 . S
La40 O71 2.503 . S
La41 C51 2.928 . S
La41 O63 2.482 . S
La41 O65 2.503 . S
La41 O66 2.521 . S
La41 O67 2.628 . S
La41 O68 2.554 1_554 S
La41 O69 2.757 . S
La41 O70 2.470 . S
C42 La40 2.928 . S
C42 C43 1.503 . S
C42 O60 1.261 . S
C42 O61 1.243 . S
C43 C42 1.503 . S
C43 C44 1.394 . S
C43 C48 1.373 . S
C44 C43 1.394 . S
C44 C45 1.380 . S
C44 H72 0.930 . S
C45 C44 1.380 . S
C45 C46 1.376 . S
C45 H73 0.930 . S
C46 C45 1.376 . S
C46 C47 1.370 . S
C47 C46 1.370 . S
C47 C48 1.396 . S
C47 H74 0.929 . S
C48 C43 1.373 . S
C48 C47 1.396 . S
C48 H75 0.929 . S
C49 O62 1.240 . S
C49 O63 1.289 . S
C50 O64 1.258 . S
C50 O65 1.256 . S
C51 La41 2.928 . S
C51 C52 1.503 . S
C51 O66 1.261 . S
C51 O67 1.243 . S
C52 C51 1.503 . S
C52 C53 1.394 . S
C52 C57 1.373 . S
C53 C52 1.394 . S
C53 C54 1.380 . S
C53 H76 0.930 . S
C54 C53 1.380 . S
C54 C55 1.376 . S
C54 H77 0.930 . S
C55 C54 1.376 . S
C55 C56 1.370 . S
C56 C55 1.370 . S
C56 C57 1.396 . S
C56 H78 0.929 . S
C57 C52 1.373 . S
C57 C56 1.396 . S
C57 H79 0.929 . S
C58 O68 1.240 . S
C58 O69 1.289 1_556 S
C59 O70 1.258 . S
C59 O71 1.256 . S
O60 La40 2.521 . S
O60 C42 1.261 . S
O61 La40 2.628 . S
O61 C42 1.243 . S
O62 La40 2.554 . S
O62 C49 1.240 . S
O63 La40 2.757 . S
O63 La41 2.482 . S
O63 C49 1.289 . S
O64 La40 2.470 . S
O64 C50 1.258 . S
O65 La41 2.503 . S
O65 C50 1.256 . S
O66 La41 2.521 . S
O66 C51 1.261 . S
O67 La41 2.628 . S
O67 C51 1.243 . S
O68 La41 2.554 1_556 S
O68 C58 1.240 . S
O69 La40 2.482 . S
O69 La41 2.757 . S
O69 C58 1.289 1_554 S
O70 La41 2.470 . S
O70 C59 1.258 . S
O71 La40 2.503 . S
O71 C59 1.256 . S
H72 C44 0.930 . S
H73 C45 0.930 . S
H74 C47 0.929 . S
H75 C48 0.929 . S
H76 C53 0.930 . S
H77 C54 0.930 . S
H78 C56 0.929 . S
H79 C57 0.929 . S
La80 C82 2.928 . S
La80 O100 2.521 . S
La80 O101 2.628 . S
La80 O102 2.554 1_554 S
La80 O103 2.757 . S
La80 O104 2.470 . S
La80 O109 2.482 . S
La80 O111 2.503 . S
La81 C91 2.928 . S
La81 O103 2.482 . S
La81 O105 2.503 . S
La81 O106 2.521 . S
La81 O107 2.628 . S
La81 O108 2.554 . S
La81 O109 2.757 . S
La81 O110 2.470 . S
C82 La80 2.928 . S
C82 C83 1.503 . S
C82 O100 1.261 . S
C82 O101 1.243 . S
C83 C82 1.503 . S
C83 C84 1.394 . S
C83 C88 1.373 . S
C84 C83 1.394 . S
C84 C85 1.380 . S
C84 H112 0.930 . S
C85 C84 1.380 . S
C85 C86 1.376 . S
C85 H113 0.930 1_544 S
C86 C85 1.376 . S
C86 C87 1.370 . S
C87 C86 1.370 . S
C87 C88 1.396 . S
C87 H114 0.929 . S
C88 C83 1.373 . S
C88 C87 1.396 . S
C88 H115 0.929 . S
C89 O102 1.240 . S
C89 O103 1.289 1_556 S
C90 O104 1.258 . S
C90 O105 1.256 . S
C91 La81 2.928 . S
C91 C92 1.503 . S
C91 O106 1.261 . S
C91 O107 1.243 . S
C92 C91 1.503 . S
C92 C93 1.394 . S
C92 C97 1.373 . S
C93 C92 1.394 . S
C93 C94 1.380 . S
C93 H116 0.930 . S
C94 C93 1.380 . S
C94 C95 1.376 . S
C94 H117 0.930 . S
C95 C94 1.376 . S
C95 C96 1.370 . S
C96 C95 1.370 . S
C96 C97 1.396 . S
C96 H118 0.929 . S
C97 C92 1.373 . S
C97 C96 1.396 . S
C97 H119 0.929 . S
C98 O108 1.240 . S
C98 O109 1.289 . S
C99 O110 1.258 . S
C99 O111 1.256 . S
O100 La80 2.521 . S
O100 C82 1.261 . S
O101 La80 2.628 . S
O101 C82 1.243 . S
O102 La80 2.554 1_556 S
O102 C89 1.240 . S
O103 La80 2.757 . S
O103 La81 2.482 . S
O103 C89 1.289 1_554 S
O104 La80 2.470 . S
O104 C90 1.258 . S
O105 La81 2.503 . S
O105 C90 1.256 . S
O106 La81 2.521 . S
O106 C91 1.261 . S
O107 La81 2.628 . S
O107 C91 1.243 . S
O108 La81 2.554 . S
O108 C98 1.240 . S
O109 La80 2.482 . S
O109 La81 2.757 . S
O109 C98 1.289 . S
O110 La81 2.470 . S
O110 C99 1.258 . S
O111 La80 2.503 . S
O111 C99 1.256 . S
H112 C84 0.930 . S
H113 C85 0.930 1_566 S
H114 C87 0.929 . S
H115 C88 0.929 . S
H116 C93 0.930 . S
H117 C94 0.930 . S
H118 C96 0.929 . S
H119 C97 0.929 . S
La120 C122 2.928 . S
La120 O140 2.521 . S
La120 O141 2.628 . S
La120 O142 2.554 . S
La120 O143 2.757 . S
La120 O144 2.470 . S
La120 O149 2.482 . S
La120 O151 2.503 . S
La121 C131 2.928 . S
La121 O143 2.482 . S
La121 O145 2.503 . S
La121 O146 2.521 . S
La121 O147 2.628 . S
La121 O148 2.554 . S
La121 O149 2.757 . S
La121 O150 2.470 . S
C122 La120 2.928 . S
C122 C123 1.503 . S
C122 O140 1.261 . S
C122 O141 1.243 . S
C123 C122 1.503 . S
C123 C124 1.394 . S
C123 C128 1.373 . S
C124 C123 1.394 . S
C124 C125 1.380 . S
C124 H152 0.930 . S
C125 C124 1.380 . S
C125 C126 1.376 . S
C125 H153 0.930 . S
C126 C125 1.376 . S
C126 C127 1.370 . S
C127 C126 1.370 . S
C127 C128 1.396 . S
C127 H154 0.929 . S
C128 C123 1.373 . S
C128 C127 1.396 . S
C128 H155 0.929 . S
C129 O142 1.240 . S
C129 O143 1.289 . S
C130 O144 1.258 . S
C130 O145 1.256 . S
C131 La121 2.928 . S
C131 C132 1.503 . S
C131 O146 1.261 . S
C131 O147 1.243 . S
C132 C131 1.503 . S
C132 C133 1.394 . S
C132 C137 1.373 . S
C133 C132 1.394 . S
C133 C134 1.380 . S
C133 H156 0.930 . S
C134 C133 1.380 . S
C134 C135 1.376 1_565 S
C134 H157 0.930 . S
C135 C134 1.376 1_545 S
C135 C136 1.370 . S
C136 C135 1.370 . S
C136 C137 1.396 1_545 S
C136 H158 0.929 . S
C137 C132 1.373 . S
C137 C136 1.396 1_565 S
C137 H159 0.929 . S
C138 O148 1.240 . S
C138 O149 1.289 . S
C139 O150 1.258 . S
C139 O151 1.256 . S
O140 La120 2.521 . S
O140 C122 1.261 . S
O141 La120 2.628 . S
O141 C122 1.243 . S
O142 La120 2.554 . S
O142 C129 1.240 . S
O143 La120 2.757 . S
O143 La121 2.482 . S
O143 C129 1.289 . S
O144 La120 2.470 . S
O144 C130 1.258 . S
O145 La121 2.503 . S
O145 C130 1.256 . S
O146 La121 2.521 . S
O146 C131 1.261 . S
O147 La121 2.628 . S
O147 C131 1.243 . S
O148 La121 2.554 . S
O148 C138 1.240 . S
O149 La120 2.482 . S
O149 La121 2.757 . S
O149 C138 1.289 . S
O150 La121 2.470 . S
O150 C139 1.258 . S
O151 La120 2.503 . S
O151 C139 1.256 . S
H152 C124 0.930 . S
H153 C125 0.930 . S
H154 C127 0.929 . S
H155 C128 0.929 . S
H156 C133 0.930 . S
H157 C134 0.930 . S
H158 C136 0.929 . S
H159 C137 0.929 . S
La160 C162 2.928 . S
La160 O180 2.521 . S
La160 O181 2.628 . S
La160 O182 2.554 . S
La160 O183 2.757 . S
La160 O184 2.470 . S
La160 O189 2.482 . S
La160 O191 2.503 . S
La161 C171 2.928 . S
La161 O183 2.482 . S
La161 O185 2.503 . S
La161 O186 2.521 . S
La161 O187 2.628 . S
La161 O188 2.554 . S
La161 O189 2.757 . S
La161 O190 2.470 . S
C162 La160 2.928 . S
C162 C163 1.503 . S
C162 O180 1.261 . S
C162 O181 1.243 . S
C163 C162 1.503 . S
C163 C164 1.394 . S
C163 C168 1.373 . S
C164 C163 1.394 . S
C164 C165 1.380 . S
C164 H192 0.930 . S
C165 C164 1.380 . S
C165 C166 1.376 . S
C165 H193 0.930 . S
C166 C165 1.376 . S
C166 C167 1.370 . S
C167 C166 1.370 . S
C167 C168 1.396 . S
C167 H194 0.929 . S
C168 C163 1.373 . S
C168 C167 1.396 . S
C168 H195 0.929 . S
C169 O182 1.240 . S
C169 O183 1.289 . S
C170 O184 1.258 . S
C170 O185 1.256 . S
C171 La161 2.928 . S
C171 C172 1.503 . S
C171 O186 1.261 . S
C171 O187 1.243 . S
C172 C171 1.503 . S
C172 C173 1.394 . S
C172 C177 1.373 . S
C173 C172 1.394 . S
C173 C174 1.380 . S
C173 H196 0.930 . S
C174 C173 1.380 . S
C174 C175 1.376 . S
C174 H197 0.930 . S
C175 C174 1.376 . S
C175 C176 1.370 . S
C176 C175 1.370 . S
C176 C177 1.396 . S
C176 H198 0.929 . S
C177 C172 1.373 . S
C177 C176 1.396 . S
C177 H199 0.929 . S
C178 O188 1.240 . S
C178 O189 1.289 . S
C179 O190 1.258 . S
C179 O191 1.256 . S
O180 La160 2.521 . S
O180 C162 1.261 . S
O181 La160 2.628 . S
O181 C162 1.243 . S
O182 La160 2.554 . S
O182 C169 1.240 . S
O183 La160 2.757 . S
O183 La161 2.482 . S
O183 C169 1.289 . S
O184 La160 2.470 . S
O184 C170 1.258 . S
O185 La161 2.503 . S
O185 C170 1.256 . S
O186 La161 2.521 . S
O186 C171 1.261 . S
O187 La161 2.628 . S
O187 C171 1.243 . S
O188 La161 2.554 . S
O188 C178 1.240 . S
O189 La160 2.482 . S
O189 La161 2.757 . S
O189 C178 1.289 . S
O190 La161 2.470 . S
O190 C179 1.258 . S
O191 La160 2.503 . S
O191 C179 1.256 . S
H192 C164 0.930 . S
H193 C165 0.930 . S
H194 C167 0.929 . S
H195 C168 0.929 . S
H196 C173 0.930 . S
H197 C174 0.930 . S
H198 C176 0.929 . S
H199 C177 0.929 . S
La200 C202 2.928 . S
La200 O220 2.521 . S
La200 O221 2.628 . S
La200 O222 2.554 . S
La200 O223 2.757 . S
La200 O224 2.470 . S
La200 O229 2.482 . S
La200 O231 2.503 . S
La201 C211 2.928 . S
La201 O223 2.482 . S
La201 O225 2.503 . S
La201 O226 2.521 . S
La201 O227 2.628 . S
La201 O228 2.554 . S
La201 O229 2.757 . S
La201 O230 2.470 . S
C202 La200 2.928 . S
C202 C203 1.503 . S
C202 O220 1.261 . S
C202 O221 1.243 . S
C203 C202 1.503 . S
C203 C204 1.394 . S
C203 C208 1.373 . S
C204 C203 1.394 . S
C204 C205 1.380 . S
C204 H232 0.930 . S
C205 C204 1.380 . S
C205 C206 1.376 . S
C205 H233 0.930 . S
C206 C205 1.376 . S
C206 C207 1.370 . S
C207 C206 1.370 . S
C207 C208 1.396 . S
C207 H234 0.929 . S
C208 C203 1.373 . S
C208 C207 1.396 . S
C208 H235 0.929 . S
C209 O222 1.240 . S
C209 O223 1.289 . S
C210 O224 1.258 . S
C210 O225 1.256 . S
C211 La201 2.928 . S
C211 C212 1.503 . S
C211 O226 1.261 . S
C211 O227 1.243 . S
C212 C211 1.503 . S
C212 C213 1.394 . S
C212 C217 1.373 . S
C213 C212 1.394 . S
C213 C214 1.380 . S
C213 H236 0.930 . S
C214 C213 1.380 . S
C214 C215 1.376 . S
C214 H237 0.930 . S
C215 C214 1.376 . S
C215 C216 1.370 . S
C216 C215 1.370 . S
C216 C217 1.396 . S
C216 H238 0.929 . S
C217 C212 1.373 . S
C217 C216 1.396 . S
C217 H239 0.929 . S
C218 O228 1.240 . S
C218 O229 1.289 . S
C219 O230 1.258 . S
C219 O231 1.256 . S
O220 La200 2.521 . S
O220 C202 1.261 . S
O221 La200 2.628 . S
O221 C202 1.243 . S
O222 La200 2.554 . S
O222 C209 1.240 . S
O223 La200 2.757 . S
O223 La201 2.482 . S
O223 C209 1.289 . S
O224 La200 2.470 . S
O224 C210 1.258 . S
O225 La201 2.503 . S
O225 C210 1.256 . S
O226 La201 2.521 . S
O226 C211 1.261 . S
O227 La201 2.628 . S
O227 C211 1.243 . S
O228 La201 2.554 . S
O228 C218 1.240 . S
O229 La200 2.482 . S
O229 La201 2.757 . S
O229 C218 1.289 . S
O230 La201 2.470 . S
O230 C219 1.258 . S
O231 La200 2.503 . S
O231 C219 1.256 . S
H232 C204 0.930 . S
H233 C205 0.930 . S
H234 C207 0.929 . S
H235 C208 0.929 . S
H236 C213 0.930 . S
H237 C214 0.930 . S
H238 C216 0.929 . S
H239 C217 0.929 . S
La240 C242 2.928 . S
La240 O260 2.521 . S
La240 O261 2.628 . S
La240 O262 2.554 . S
La240 O263 2.757 . S
La240 O264 2.470 . S
La240 O269 2.482 . S
La240 O271 2.503 . S
La241 C251 2.928 . S
La241 O263 2.482 . S
La241 O265 2.503 . S
La241 O266 2.521 . S
La241 O267 2.628 . S
La241 O268 2.554 . S
La241 O269 2.757 . S
La241 O270 2.470 . S
C242 La240 2.928 . S
C242 C243 1.503 . S
C242 O260 1.261 . S
C242 O261 1.243 . S
C243 C242 1.503 . S
C243 C244 1.394 . S
C243 C248 1.373 . S
C244 C243 1.394 . S
C244 C245 1.380 . S
C244 H272 0.930 . S
C245 C244 1.380 . S
C245 C246 1.376 . S
C245 H273 0.930 . S
C246 C245 1.376 . S
C246 C247 1.370 . S
C247 C246 1.370 . S
C247 C248 1.396 . S
C247 H274 0.929 . S
C248 C243 1.373 . S
C248 C247 1.396 . S
C248 H275 0.929 . S
C249 O262 1.240 . S
C249 O263 1.289 . S
C250 O264 1.258 . S
C250 O265 1.256 . S
C251 La241 2.928 . S
C251 C252 1.503 1_556 S
C251 O266 1.261 . S
C251 O267 1.243 . S
C252 C251 1.503 1_554 S
C252 C253 1.394 . S
C252 C257 1.373 . S
C253 C252 1.394 . S
C253 C254 1.380 . S
C253 H276 0.930 . S
C254 C253 1.380 . S
C254 C255 1.376 . S
C254 H277 0.930 . S
C255 C254 1.376 . S
C255 C256 1.370 . S
C256 C255 1.370 . S
C256 C257 1.396 . S
C256 H278 0.929 . S
C257 C252 1.373 . S
C257 C256 1.396 . S
C257 H279 0.929 . S
C258 O268 1.240 . S
C258 O269 1.289 . S
C259 O270 1.258 . S
C259 O271 1.256 . S
O260 La240 2.521 . S
O260 C242 1.261 . S
O261 La240 2.628 . S
O261 C242 1.243 . S
O262 La240 2.554 . S
O262 C249 1.240 . S
O263 La240 2.757 . S
O263 La241 2.482 . S
O263 C249 1.289 . S
O264 La240 2.470 . S
O264 C250 1.258 . S
O265 La241 2.503 . S
O265 C250 1.256 . S
O266 La241 2.521 . S
O266 C251 1.261 . S
O267 La241 2.628 . S
O267 C251 1.243 . S
O268 La241 2.554 . S
O268 C258 1.240 . S
O269 La240 2.482 . S
O269 La241 2.757 . S
O269 C258 1.289 . S
O270 La241 2.470 . S
O270 C259 1.258 . S
O271 La240 2.503 . S
O271 C259 1.256 . S
H272 C244 0.930 . S
H273 C245 0.930 . S
H274 C247 0.929 . S
H275 C248 0.929 . S
H276 C253 0.930 . S
H277 C254 0.930 . S
H278 C256 0.929 . S
H279 C257 0.929 . S
La280 C282 2.928 . S
La280 O300 2.521 . S
La280 O301 2.628 . S
La280 O302 2.554 . S
La280 O303 2.757 . S
La280 O304 2.470 . S
La280 O309 2.482 . S
La280 O311 2.503 . S
La281 C291 2.928 . S
La281 O303 2.482 . S
La281 O305 2.503 . S
La281 O306 2.521 . S
La281 O307 2.628 . S
La281 O308 2.554 . S
La281 O309 2.757 . S
La281 O310 2.470 . S
C282 La280 2.928 . S
C282 C283 1.503 1_556 S
C282 O300 1.261 . S
C282 O301 1.243 . S
C283 C282 1.503 1_554 S
C283 C284 1.394 . S
C283 C288 1.373 . S
C284 C283 1.394 . S
C284 C285 1.380 . S
C284 H312 0.930 . S
C285 C284 1.380 . S
C285 C286 1.376 . S
C285 H313 0.930 . S
C286 C285 1.376 . S
C286 C287 1.370 . S
C287 C286 1.370 . S
C287 C288 1.396 . S
C287 H314 0.929 . S
C288 C283 1.373 . S
C288 C287 1.396 . S
C288 H315 0.929 . S
C289 O302 1.240 . S
C289 O303 1.289 . S
C290 O304 1.258 . S
C290 O305 1.256 . S
C291 La281 2.928 . S
C291 C292 1.503 . S
C291 O306 1.261 . S
C291 O307 1.243 . S
C292 C291 1.503 . S
C292 C293 1.394 . S
C292 C297 1.373 . S
C293 C292 1.394 . S
C293 C294 1.380 . S
C293 H316 0.930 . S
C294 C293 1.380 . S
C294 C295 1.376 . S
C294 H317 0.930 . S
C295 C294 1.376 . S
C295 C296 1.370 . S
C296 C295 1.370 . S
C296 C297 1.396 . S
C296 H318 0.929 . S
C297 C292 1.373 . S
C297 C296 1.396 . S
C297 H319 0.929 . S
C298 O308 1.240 . S
C298 O309 1.289 . S
C299 O310 1.258 . S
C299 O311 1.256 . S
O300 La280 2.521 . S
O300 C282 1.261 . S
O301 La280 2.628 . S
O301 C282 1.243 . S
O302 La280 2.554 . S
O302 C289 1.240 . S
O303 La280 2.757 . S
O303 La281 2.482 . S
O303 C289 1.289 . S
O304 La280 2.470 . S
O304 C290 1.258 . S
O305 La281 2.503 . S
O305 C290 1.256 . S
O306 La281 2.521 . S
O306 C291 1.261 . S
O307 La281 2.628 . S
O307 C291 1.243 . S
O308 La281 2.554 . S
O308 C298 1.240 . S
O309 La280 2.482 . S
O309 La281 2.757 . S
O309 C298 1.289 . S
O310 La281 2.470 . S
O310 C299 1.258 . S
O311 La280 2.503 . S
O311 C299 1.256 . S
H312 C284 0.930 . S
H313 C285 0.930 . S
H314 C287 0.929 . S
H315 C288 0.929 . S
H316 C293 0.930 . S
H317 C294 0.930 . S
H318 C296 0.929 . S
H319 C297 0.929 . S
La320 C322 2.928 . S
La320 O340 2.521 . S
La320 O341 2.628 . S
La320 O342 2.554 . S
La320 O343 2.757 . S
La320 O344 2.470 . S
La320 O349 2.482 . S
La320 O351 2.503 . S
La321 C331 2.928 . S
La321 O343 2.482 . S
La321 O345 2.503 . S
La321 O346 2.521 . S
La321 O347 2.628 . S
La321 O348 2.554 . S
La321 O349 2.757 . S
La321 O350 2.470 . S
C322 La320 2.928 . S
C322 C323 1.503 . S
C322 O340 1.261 . S
C322 O341 1.243 . S
C323 C322 1.503 . S
C323 C324 1.394 . S
C323 C328 1.373 . S
C324 C323 1.394 . S
C324 C325 1.380 . S
C324 H352 0.930 . S
C325 C324 1.380 . S
C325 C326 1.376 . S
C325 H353 0.930 . S
C326 C325 1.376 . S
C326 C327 1.370 . S
C327 C326 1.370 . S
C327 C328 1.396 . S
C327 H354 0.929 . S
C328 C323 1.373 . S
C328 C327 1.396 . S
C328 H355 0.929 . S
C329 O342 1.240 . S
C329 O343 1.289 . S
C330 O344 1.258 . S
C330 O345 1.256 . S
C331 La321 2.928 . S
C331 C332 1.503 1_556 S
C331 O346 1.261 . S
C331 O347 1.243 . S
C332 C331 1.503 1_554 S
C332 C333 1.394 . S
C332 C337 1.373 . S
C333 C332 1.394 . S
C333 C334 1.380 . S
C333 H356 0.930 . S
C334 C333 1.380 . S
C334 C335 1.376 . S
C334 H357 0.930 . S
C335 C334 1.376 . S
C335 C336 1.370 . S
C336 C335 1.370 . S
C336 C337 1.396 . S
C336 H358 0.929 . S
C337 C332 1.373 . S
C337 C336 1.396 . S
C337 H359 0.929 . S
C338 O348 1.240 . S
C338 O349 1.289 . S
C339 O350 1.258 . S
C339 O351 1.256 . S
O340 La320 2.521 . S
O340 C322 1.261 . S
O341 La320 2.628 . S
O341 C322 1.243 . S
O342 La320 2.554 . S
O342 C329 1.240 . S
O343 La320 2.757 . S
O343 La321 2.482 . S
O343 C329 1.289 . S
O344 La320 2.470 . S
O344 C330 1.258 . S
O345 La321 2.503 . S
O345 C330 1.256 . S
O346 La321 2.521 . S
O346 C331 1.261 . S
O347 La321 2.628 . S
O347 C331 1.243 . S
O348 La321 2.554 . S
O348 C338 1.240 . S
O349 La320 2.482 . S
O349 La321 2.757 . S
O349 C338 1.289 . S
O350 La321 2.470 . S
O350 C339 1.258 . S
O351 La320 2.503 . S
O351 C339 1.256 . S
H352 C324 0.930 . S
H353 C325 0.930 . S
H354 C327 0.929 . S
H355 C328 0.929 . S
H356 C333 0.930 . S
H357 C334 0.930 . S
H358 C336 0.929 . S
H359 C337 0.929 . S
C360 C361 1.369 . S
C360 C362 1.419 . S
C360 H364 0.930 . S
C361 C360 1.369 . S
C361 C370 1.429 . S
C362 C360 1.419 . S
C362 C363 1.363 . S
C362 H365 0.929 . S
C363 C362 1.363 . S
C363 C369 1.428 . S
H364 C360 0.930 . S
H365 C362 0.929 . S
S366 N367 1.613 . S
S366 N368 1.610 . S
N367 S366 1.613 . S
N367 C370 1.350 . S
N368 S366 1.610 . S
N368 C369 1.351 . S
C369 C363 1.428 . S
C369 N368 1.351 . S
C369 C370 1.434 . S
C370 C361 1.429 . S
C370 N367 1.350 . S
C370 C369 1.434 . S
C371 C372 1.369 . S
C371 C373 1.419 . S
C371 H375 0.930 . S
C372 C371 1.369 . S
C372 C381 1.429 . S
C373 C371 1.419 . S
C373 C374 1.363 . S
C373 H376 0.929 . S
C374 C373 1.363 . S
C374 C380 1.428 . S
H375 C371 0.930 . S
H376 C373 0.929 . S
S377 N378 1.613 . S
S377 N379 1.610 . S
N378 S377 1.613 . S
N378 C381 1.350 . S
N379 S377 1.610 . S
N379 C380 1.351 . S
C380 C374 1.428 . S
C380 N379 1.351 . S
C380 C381 1.434 . S
C381 C372 1.429 . S
C381 N378 1.350 . S
C381 C380 1.434 . S
C382 C383 1.369 . S
C382 C384 1.419 . S
C382 H386 0.930 . S
C383 C382 1.369 . S
C383 C392 1.429 . S
C384 C382 1.419 . S
C384 C385 1.363 . S
C384 H387 0.929 . S
C385 C384 1.363 . S
C385 C391 1.428 . S
H386 C382 0.930 . S
H387 C384 0.929 . S
S388 N389 1.613 . S
S388 N390 1.610 . S
N389 S388 1.613 . S
N389 C392 1.350 . S
N390 S388 1.610 . S
N390 C391 1.351 . S
C391 C385 1.428 . S
C391 N390 1.351 . S
C391 C392 1.434 . S
C392 C383 1.429 . S
C392 N389 1.350 . S
C392 C391 1.434 . S
C393 C394 1.369 . S
C393 C395 1.419 . S
C393 H397 0.930 . S
C394 C393 1.369 . S
C394 C403 1.429 . S
C395 C393 1.419 . S
C395 C396 1.363 . S
C395 H398 0.929 . S
C396 C395 1.363 . S
C396 C402 1.428 . S
H397 C393 0.930 . S
H398 C395 0.929 . S
S399 N400 1.613 . S
S399 N401 1.610 . S
N400 S399 1.613 . S
N400 C403 1.350 . S
N401 S399 1.610 . S
N401 C402 1.351 . S
C402 C396 1.428 . S
C402 N401 1.351 . S
C402 C403 1.434 . S
C403 C394 1.429 . S
C403 N400 1.350 . S
C403 C402 1.434 . S
C404 C405 1.369 . S
C404 C406 1.419 . S
C404 H408 0.930 . S
C405 C404 1.369 . S
C405 C414 1.429 . S
C406 C404 1.419 . S
C406 C407 1.363 . S
C406 H409 0.929 . S
C407 C406 1.363 . S
C407 C413 1.428 . S
H408 C404 0.930 . S
H409 C406 0.929 . S
S410 N411 1.613 . S
S410 N412 1.610 . S
N411 S410 1.613 . S
N411 C414 1.350 . S
N412 S410 1.610 . S
N412 C413 1.351 . S
C413 C407 1.428 . S
C413 N412 1.351 . S
C413 C414 1.434 . S
C414 C405 1.429 . S
C414 N411 1.350 . S
C414 C413 1.434 . S
C415 C416 1.369 . S
C415 C417 1.419 . S
C415 H419 0.930 . S
C416 C415 1.369 . S
C416 C425 1.429 . S
C417 C415 1.419 . S
C417 C418 1.363 . S
C417 H420 0.929 . S
C418 C417 1.363 . S
C418 C424 1.428 . S
H419 C415 0.930 . S
H420 C417 0.929 . S
S421 N422 1.613 . S
S421 N423 1.610 . S
N422 S421 1.613 . S
N422 C425 1.350 . S
N423 S421 1.610 . S
N423 C424 1.351 . S
C424 C418 1.428 . S
C424 N423 1.351 . S
C424 C425 1.434 . S
C425 C416 1.429 . S
C425 N422 1.350 . S
C425 C424 1.434 . S
C426 C427 1.369 . S
C426 C428 1.419 . S
C426 H430 0.930 . S
C427 C426 1.369 . S
C427 C436 1.429 . S
C428 C426 1.419 . S
C428 C429 1.363 . S
C428 H431 0.929 . S
C429 C428 1.363 . S
C429 C435 1.428 . S
H430 C426 0.930 . S
H431 C428 0.929 . S
S432 N433 1.613 . S
S432 N434 1.610 . S
N433 S432 1.613 . S
N433 C436 1.350 . S
N434 S432 1.610 . S
N434 C435 1.351 . S
C435 C429 1.428 . S
C435 N434 1.351 . S
C435 C436 1.434 . S
C436 C427 1.429 . S
C436 N433 1.350 . S
C436 C435 1.434 . S
C437 C438 1.369 . S
C437 C439 1.419 . S
C437 H441 0.930 . S
C438 C437 1.369 . S
C438 C447 1.429 . S
C439 C437 1.419 . S
C439 C440 1.363 . S
C439 H442 0.929 . S
C440 C439 1.363 . S
C440 C446 1.428 . S
H441 C437 0.930 . S
H442 C439 0.929 . S
S443 N444 1.613 . S
S443 N445 1.610 . S
N444 S443 1.613 . S
N444 C447 1.350 . S
N445 S443 1.610 . S
N445 C446 1.351 . S
C446 C440 1.428 . S
C446 N445 1.351 . S
C446 C447 1.434 . S
C447 C438 1.429 . S
C447 N444 1.350 . S
C447 C446 1.434 . S
C448 C449 1.369 . S
C448 C450 1.419 . S
C448 H452 0.930 . S
C449 C448 1.369 . S
C449 C458 1.429 . S
C450 C448 1.419 . S
C450 C451 1.363 . S
C450 H453 0.929 . S
C451 C450 1.363 . S
C451 C457 1.428 . S
H452 C448 0.930 . S
H453 C450 0.929 . S
S454 N455 1.613 . S
S454 N456 1.610 . S
N455 S454 1.613 . S
N455 C458 1.350 . S
N456 S454 1.610 . S
N456 C457 1.351 . S
C457 C451 1.428 . S
C457 N456 1.351 . S
C457 C458 1.434 . S
C458 C449 1.429 . S
C458 N455 1.350 . S
C458 C457 1.434 . S
C459 C460 1.369 . S
C459 C461 1.419 . S
C459 H463 0.930 . S
C460 C459 1.369 . S
C460 C469 1.429 . S
C461 C459 1.419 . S
C461 C462 1.363 . S
C461 H464 0.929 . S
C462 C461 1.363 . S
C462 C468 1.428 . S
H463 C459 0.930 . S
H464 C461 0.929 . S
S465 N466 1.613 1_556 S
S465 N467 1.610 1_556 S
N466 S465 1.613 1_554 S
N466 C469 1.350 . S
N467 S465 1.610 1_554 S
N467 C468 1.351 . S
C468 C462 1.428 . S
C468 N467 1.351 . S
C468 C469 1.434 . S
C469 C460 1.429 . S
C469 N466 1.350 . S
C469 C468 1.434 . S
C470 C471 1.369 . S
C470 C472 1.419 . S
C470 H474 0.930 . S
C471 C470 1.369 . S
C471 C480 1.429 . S
C472 C470 1.419 . S
C472 C473 1.363 . S
C472 H475 0.929 . S
C473 C472 1.363 . S
C473 C479 1.428 . S
H474 C470 0.930 . S
H475 C472 0.929 . S
S476 N477 1.613 . S
S476 N478 1.610 . S
N477 S476 1.613 . S
N477 C480 1.350 . S
N478 S476 1.610 . S
N478 C479 1.351 . S
C479 C473 1.428 . S
C479 N478 1.351 . S
C479 C480 1.434 . S
C480 C471 1.429 . S
C480 N477 1.350 . S
C480 C479 1.434 . S
C481 C482 1.369 1_565 S
C481 C483 1.419 . S
C481 H485 0.930 . S
C482 C481 1.369 1_545 S
C482 C491 1.429 . S
C483 C481 1.419 . S
C483 C484 1.363 . S
C483 H486 0.929 . S
C484 C483 1.363 . S
C484 C490 1.428 1_565 S
H485 C481 0.930 . S
H486 C483 0.929 . S
S487 N488 1.613 . S
S487 N489 1.610 . S
N488 S487 1.613 . S
N488 C491 1.350 . S
N489 S487 1.610 . S
N489 C490 1.351 . S
C490 C484 1.428 1_545 S
C490 N489 1.351 . S
C490 C491 1.434 . S
C491 C482 1.429 . S
C491 N488 1.350 . S
C491 C490 1.434 . S
C492 C493 1.369 . S
C492 C494 1.419 . S
C492 H496 0.930 . S
C493 C492 1.369 . S
C493 C502 1.429 1_554 S
C494 C492 1.419 . S
C494 C495 1.363 1_554 S
C494 H497 0.929 . S
C495 C494 1.363 1_556 S
C495 C501 1.428 . S
H496 C492 0.930 . S
H497 C494 0.929 . S
S498 N499 1.613 . S
S498 N500 1.610 . S
N499 S498 1.613 . S
N499 C502 1.350 . S
N500 S498 1.610 . S
N500 C501 1.351 . S
C501 C495 1.428 . S
C501 N500 1.351 . S
C501 C502 1.434 . S
C502 C493 1.429 1_556 S
C502 N499 1.350 . S
C502 C501 1.434 . S
C503 C504 1.369 . S
C503 C505 1.419 . S
C503 H507 0.930 . S
C504 C503 1.369 . S
C504 C513 1.429 . S
C505 C503 1.419 . S
C505 C506 1.363 1_655 S
C505 H508 0.929 . S
C506 C505 1.363 1_455 S
C506 C512 1.428 . S
H507 C503 0.930 . S
H508 C505 0.929 . S
S509 N510 1.613 1_454 S
S509 N511 1.610 . S
N510 S509 1.613 1_656 S
N510 C513 1.350 . S
N511 S509 1.610 . S
N511 C512 1.351 1_554 S
C512 C506 1.428 . S
C512 N511 1.351 1_556 S
C512 C513 1.434 1_455 S
C513 C504 1.429 . S
C513 N510 1.350 . S
C513 C512 1.434 1_655 S
C514 C515 1.369 . S
C514 C516 1.419 1_556 S
C514 H518 0.930 . S
C515 C514 1.369 . S
C515 C524 1.429 . S
C516 C514 1.419 1_554 S
C516 C517 1.363 . S
C516 H519 0.929 . S
C517 C516 1.363 . S
C517 C523 1.428 1_554 S
H518 C514 0.930 . S
H519 C516 0.929 . S
S520 N521 1.613 . S
S520 N522 1.610 1_556 S
N521 S520 1.613 . S
N521 C524 1.350 . S
N522 S520 1.610 1_554 S
N522 C523 1.351 1_554 S
C523 C517 1.428 1_556 S
C523 N522 1.351 1_556 S
C523 C524 1.434 . S
C524 C515 1.429 . S
C524 N521 1.350 . S
C524 C523 1.434 . S
C525 C526 1.369 . S
C525 C527 1.419 . S
C525 H529 0.930 . S
C526 C525 1.369 . S
C526 C535 1.429 . S
C527 C525 1.419 . S
C527 C528 1.363 . S
C527 H530 0.929 . S
C528 C527 1.363 . S
C528 C534 1.428 . S
H529 C525 0.930 . S
H530 C527 0.929 . S
S531 N532 1.613 . S
S531 N533 1.610 . S
N532 S531 1.613 . S
N532 C535 1.350 . S
N533 S531 1.610 . S
N533 C534 1.351 . S
C534 C528 1.428 . S
C534 N533 1.351 . S
C534 C535 1.434 . S
C535 C526 1.429 . S
C535 N532 1.350 . S
C535 C534 1.434 . S
C536 C537 1.369 1_554 S
C536 C538 1.419 1_554 S
C536 H540 0.930 . S
C537 C536 1.369 1_556 S
C537 C546 1.429 . S
C538 C536 1.419 1_556 S
C538 C539 1.363 . S
C538 H541 0.929 . S
C539 C538 1.363 . S
C539 C545 1.428 . S
H540 C536 0.930 . S
H541 C538 0.929 . S
S542 N543 1.613 . S
S542 N544 1.610 . S
N543 S542 1.613 . S
N543 C546 1.350 . S
N544 S542 1.610 . S
N544 C545 1.351 . S
C545 C539 1.428 . S
C545 N544 1.351 . S
C545 C546 1.434 . S
C546 C537 1.429 . S
C546 N543 1.350 . S
C546 C545 1.434 . S
C547 C548 1.369 . S
C547 C549 1.419 . S
C547 H551 0.930 . S
C548 C547 1.369 . S
C548 C557 1.434 . S
C549 C547 1.419 . S
C549 C550 1.363 1_556 S
C549 H552 0.929 . S
C550 C549 1.363 1_554 S
C550 C556 1.428 . S
H551 C547 0.930 . S
H552 C549 0.929 . S
S553 N554 1.613 . S
S553 N555 1.610 . S
N554 S553 1.613 . S
N554 C557 1.348 1_554 S
N555 S553 1.610 . S
N555 C556 1.351 . S
C556 C550 1.428 . S
C556 N555 1.351 . S
C556 C557 1.429 1_554 S
C557 C548 1.434 . S
C557 N554 1.348 1_556 S
C557 C556 1.429 1_556 S
C558 C559 1.369 . S
C558 C560 1.419 . S
C558 H562 0.930 . S
C559 C558 1.369 . S
C559 C568 1.429 . S
C560 C558 1.419 . S
C560 C561 1.363 . S
C560 H563 0.929 . S
C561 C560 1.363 . S
C561 C567 1.428 . S
H562 C558 0.930 . S
H563 C560 0.929 . S
S564 N565 1.613 1_565 S
S564 N566 1.610 . S
N565 S564 1.613 1_545 S
N565 C568 1.350 . S
N566 S564 1.610 . S
N566 C567 1.351 1_565 S
C567 C561 1.428 . S
C567 N566 1.351 1_545 S
C567 C568 1.434 . S
C568 C559 1.429 . S
C568 N565 1.350 . S
C568 C567 1.434 . S
C569 C570 1.369 . S
C569 C571 1.419 . S
C569 H573 0.930 . S
C570 C569 1.369 . S
C570 C579 1.429 . S
C571 C569 1.419 . S
C571 C572 1.363 . S
C571 H574 0.929 . S
C572 C571 1.363 . S
C572 C578 1.428 . S
H573 C569 0.930 . S
H574 C571 0.929 . S
S575 N576 1.613 . S
S575 N577 1.610 . S
N576 S575 1.613 . S
N576 C579 1.350 . S
N577 S575 1.610 . S
N577 C578 1.351 . S
C578 C572 1.428 . S
C578 N577 1.351 . S
C578 C579 1.434 . S
C579 C570 1.429 . S
C579 N576 1.350 . S
C579 C578 1.434 . S
C580 C581 1.369 . S
C580 C582 1.419 . S
C580 H584 0.930 . S
C581 C580 1.369 . S
C581 C590 1.429 . S
C582 C580 1.419 . S
C582 C583 1.363 . S
C582 H585 0.929 . S
C583 C582 1.363 . S
C583 C589 1.428 . S
H584 C580 0.930 . S
H585 C582 0.929 . S
S586 N587 1.613 . S
S586 N588 1.610 1_556 S
N587 S586 1.613 . S
N587 C590 1.350 1_556 S
N588 S586 1.610 1_554 S
N588 C589 1.351 . S
C589 C583 1.428 . S
C589 N588 1.351 . S
C589 C590 1.434 . S
C590 C581 1.429 . S
C590 N587 1.350 1_554 S
C590 C589 1.434 . S
C591 C592 1.369 . S
C591 C593 1.419 . S
C591 H595 0.930 . S
C592 C591 1.369 . S
C592 C601 1.429 . S
C593 C591 1.419 . S
C593 C594 1.363 . S
C593 H596 0.929 . S
C594 C593 1.363 . S
C594 C600 1.428 . S
H595 C591 0.930 . S
H596 C593 0.929 . S
S597 N598 1.613 . S
S597 N599 1.610 . S
N598 S597 1.613 . S
N598 C601 1.350 . S
N599 S597 1.610 . S
N599 C600 1.351 . S
C600 C594 1.428 . S
C600 N599 1.351 . S
C600 C601 1.434 . S
C601 C592 1.429 . S
C601 N598 1.350 . S
C601 C600 1.434 . S
C602 C603 1.369 . S
C602 C604 1.419 1_545 S
C602 H606 0.930 . S
C603 C602 1.369 . S
C603 C612 1.429 . S
C604 C602 1.419 1_565 S
C604 C605 1.363 . S
C604 H607 0.929 . S
C605 C604 1.363 . S
C605 C611 1.428 1_565 S
H606 C602 0.930 . S
H607 C604 0.929 . S
S608 N609 1.613 . S
S608 N610 1.610 . S
N609 S608 1.613 . S
N609 C612 1.350 . S
N610 S608 1.610 . S
N610 C611 1.351 . S
C611 C605 1.428 1_545 S
C611 N610 1.351 . S
C611 C612 1.434 . S
C612 C603 1.429 . S
C612 N609 1.350 . S
C612 C611 1.434 . S
C613 C614 1.369 . S
C613 C615 1.419 1_655 S
C613 H617 0.930 . S
C614 C613 1.369 . S
C614 C623 1.429 . S
C615 C613 1.419 1_455 S
C615 C616 1.363 . S
C615 H618 0.929 . S
C616 C615 1.363 . S
C616 C622 1.428 . S
H617 C613 0.930 . S
H618 C615 0.929 . S
S619 N620 1.613 1_455 S
S619 N621 1.610 . S
N620 S619 1.613 1_655 S
N620 C623 1.350 . S
N621 S619 1.610 . S
N621 C622 1.351 . S
C622 C616 1.428 . S
C622 N621 1.351 . S
C622 C623 1.434 1_455 S
C623 C614 1.429 . S
C623 N620 1.350 . S
C623 C622 1.434 1_655 S
C624 C625 1.369 . S
C624 C626 1.419 . S
C624 H628 0.930 . S
C625 C624 1.369 . S
C625 C634 1.429 . S
C626 C624 1.419 . S
C626 C627 1.363 . S
C626 H629 0.929 . S
C627 C626 1.363 . S
C627 C633 1.428 . S
H628 C624 0.930 . S
H629 C626 0.929 . S
S630 N631 1.613 . S
S630 N632 1.610 . S
N631 S630 1.613 . S
N631 C634 1.350 . S
N632 S630 1.610 . S
N632 C633 1.351 . S
C633 C627 1.428 . S
C633 N632 1.351 . S
C633 C634 1.434 . S
C634 C625 1.429 . S
C634 N631 1.350 . S
C634 C633 1.434 . S
C635 C636 1.369 1_545 S
C635 C637 1.419 . S
C635 H639 0.930 . S
C636 C635 1.369 1_565 S
C636 C645 1.430 . S
C637 C635 1.419 . S
C637 C638 1.363 . S
C637 H640 0.929 . S
C638 C637 1.363 . S
C638 C644 1.428 . S
H639 C635 0.930 . S
H640 C637 0.929 . S
S641 N642 1.613 . S
S641 N643 1.610 1_565 S
N642 S641 1.613 . S
N642 C645 1.352 . S
N643 S641 1.610 1_545 S
N643 C644 1.351 . S
C644 C638 1.428 . S
C644 N643 1.351 . S
C644 C645 1.430 1_545 S
C645 C636 1.430 . S
C645 N642 1.352 . S
C645 C644 1.430 1_565 S
C646 C647 1.369 1_455 S
C646 C648 1.419 . S
C646 H650 0.930 . S
C647 C646 1.369 1_655 S
C647 C656 1.429 . S
C648 C646 1.419 . S
C648 C649 1.363 . S
C648 H651 0.929 . S
C649 C648 1.363 . S
C649 C655 1.428 1_455 S
H650 C646 0.930 . S
H651 C648 0.929 . S
S652 N653 1.613 . S
S652 N654 1.610 . S
N653 S652 1.613 . S
N653 C656 1.350 . S
N654 S652 1.610 . S
N654 C655 1.351 . S
C655 C649 1.428 1_655 S
C655 N654 1.351 . S
C655 C656 1.434 . S
C656 C647 1.429 . S
C656 N653 1.350 . S
C656 C655 1.434 . S
C361 C9 3.627 . S
C363 C18 3.627 . S
C372 C58 3.731 . S
C374 C49 3.732 . S
C383 C89 3.780 . S
C385 C98 3.780 . S
C394 C138 3.628 . S
C396 C129 3.626 1_556 S
C405 C169 3.732 . S
C407 C178 3.732 1_556 S
C416 C218 3.781 . S
C418 C209 3.779 1_556 S
C427 C246 0.313 . S
C429 C255 0.298 . S
C438 C295 0.301 . S
C440 C286 0.272 . S
C449 C326 0.720 . S
C451 C335 0.716 . S
C460 C210 1.561 . S
C462 C6 1.607 . S
C471 C50 2.660 . S
C473 C130 2.703 . S
C482 C86 1.201 . S
C484 C166 1.225 . S
C493 C90 3.115 . S
C495 C259 3.334 . S
C504 C298 1.380 . S
C506 C10 1.257 . S
C515 C339 2.258 . S
C517 C46 2.043 . S
C526 C329 1.166 . S
C528 C15 1.049 . S
C537 C59 2.383 1_556 S
C539 C249 2.482 . S
C548 C290 3.249 . S
C550 C95 2.961 . S
C559 C99 1.561 . S
C561 C135 1.607 . S
C570 C179 2.661 . S
C572 C19 2.703 . S
C581 C55 1.227 . S
C583 C215 1.202 . S
C592 C338 1.159 . S
C594 C126 1.063 . S
C603 C258 2.478 . S
C605 C170 2.389 . S
C614 C299 3.250 . S
C616 C206 2.960 . S
C625 C250 3.334 . S
C627 C219 3.116 . S
C636 C139 1.249 . S
C638 C289 1.380 . S
C647 C330 2.258 . S
C649 C175 2.049 . S
