# Generated by pormake.
# Topology mon, (4)-cn, num edge types: 1
# Building blocks:
#     Node 0, Type 0, BuildingBlock: AZAVOO_clean_sbu_0, # of connection points: 4
#     Node 1, Type 0, BuildingBlock: AZAVOO_clean_sbu_0, # of connection points: 4
#     Node 2, Type 0, BuildingBlock: AZAVOO_clean_sbu_0, # of connection points: 4
#     Node 3, Type 0, BuildingBlock: AZAVOO_clean_sbu_0, # of connection points: 4
#     Node 4, Type 0, BuildingBlock: AZAVOO_clean_sbu_0, # of connection points: 4
#     Node 5, Type 0, BuildingBlock: AZAVOO_clean_sbu_0, # of connection points: 4
#     Node 6, Type 0, BuildingBlock: AZAVOO_clean_sbu_0, # of connection points: 4
#     Node 7, Type 0, BuildingBlock: AZAVOO_clean_sbu_0, # of connection points: 4
#     Node 8, Type 0, BuildingBlock: AZAVOO_clean_sbu_0, # of connection points: 4
#     Node 9, Type 0, BuildingBlock: AZAVOO_clean_sbu_0, # of connection points: 4
#     Node 10, Type 0, BuildingBlock: AZAVOO_clean_sbu_0, # of connection points: 4
#     Node 11, Type 0, BuildingBlock: AZAVOO_clean_sbu_0, # of connection points: 4
#     Node 12, Type 0, BuildingBlock: AZAVOO_clean_sbu_0, # of connection points: 4
#     Node 13, Type 0, BuildingBlock: AZAVOO_clean_sbu_0, # of connection points: 4
#     Node 14, Type 0, BuildingBlock: AZAVOO_clean_sbu_0, # of connection points: 4
#     Node 15, Type 0, BuildingBlock: AZAVOO_clean_sbu_0, # of connection points: 4
#     Edge 16, Type (0, 0), BuildingBlock: OJICUG_clean_linker_0, # of connection points: 2
#     Edge 17, Type (0, 0), BuildingBlock: OJICUG_clean_linker_0, # of connection points: 2
#     Edge 18, Type (0, 0), BuildingBlock: OJICUG_clean_linker_0, # of connection points: 2
#     Edge 19, Type (0, 0), BuildingBlock: OJICUG_clean_linker_0, # of connection points: 2
#     Edge 20, Type (0, 0), BuildingBlock: OJICUG_clean_linker_0, # of connection points: 2
#     Edge 21, Type (0, 0), BuildingBlock: OJICUG_clean_linker_0, # of connection points: 2
#     Edge 22, Type (0, 0), BuildingBlock: OJICUG_clean_linker_0, # of connection points: 2
#     Edge 23, Type (0, 0), BuildingBlock: OJICUG_clean_linker_0, # of connection points: 2
#     Edge 24, Type (0, 0), BuildingBlock: OJICUG_clean_linker_0, # of connection points: 2
#     Edge 25, Type (0, 0), BuildingBlock: OJICUG_clean_linker_0, # of connection points: 2
#     Edge 26, Type (0, 0), BuildingBlock: OJICUG_clean_linker_0, # of connection points: 2
#     Edge 27, Type (0, 0), BuildingBlock: OJICUG_clean_linker_0, # of connection points: 2
#     Edge 28, Type (0, 0), BuildingBlock: OJICUG_clean_linker_0, # of connection points: 2
#     Edge 29, Type (0, 0), BuildingBlock: OJICUG_clean_linker_0, # of connection points: 2
#     Edge 30, Type (0, 0), BuildingBlock: OJICUG_clean_linker_0, # of connection points: 2
#     Edge 31, Type (0, 0), BuildingBlock: OJICUG_clean_linker_0, # of connection points: 2
#     Edge 32, Type (0, 0), BuildingBlock: OJICUG_clean_linker_0, # of connection points: 2
#     Edge 33, Type (0, 0), BuildingBlock: OJICUG_clean_linker_0, # of connection points: 2
#     Edge 34, Type (0, 0), BuildingBlock: OJICUG_clean_linker_0, # of connection points: 2
#     Edge 35, Type (0, 0), BuildingBlock: OJICUG_clean_linker_0, # of connection points: 2
#     Edge 36, Type (0, 0), BuildingBlock: OJICUG_clean_linker_0, # of connection points: 2
#     Edge 37, Type (0, 0), BuildingBlock: OJICUG_clean_linker_0, # of connection points: 2
#     Edge 38, Type (0, 0), BuildingBlock: OJICUG_clean_linker_0, # of connection points: 2
#     Edge 39, Type (0, 0), BuildingBlock: OJICUG_clean_linker_0, # of connection points: 2
#     Edge 40, Type (0, 0), BuildingBlock: OJICUG_clean_linker_0, # of connection points: 2
#     Edge 41, Type (0, 0), BuildingBlock: OJICUG_clean_linker_0, # of connection points: 2
#     Edge 42, Type (0, 0), BuildingBlock: OJICUG_clean_linker_0, # of connection points: 2
#     Edge 43, Type (0, 0), BuildingBlock: OJICUG_clean_linker_0, # of connection points: 2
#     Edge 44, Type (0, 0), BuildingBlock: OJICUG_clean_linker_0, # of connection points: 2
#     Edge 45, Type (0, 0), BuildingBlock: OJICUG_clean_linker_0, # of connection points: 2
#     Edge 46, Type (0, 0), BuildingBlock: OJICUG_clean_linker_0, # of connection points: 2
#     Edge 47, Type (0, 0), BuildingBlock: OJICUG_clean_linker_0, # of connection points: 2
# Relax obj value: 0.179
# Max RMSD: 0.147
# Mean RMSD: 0.147
data_MOF--net-mon--node1-AZAVOO_clean_sbu_0--edge1-OJICUG_clean_linker_0
_symmetry_space_group_name_H-M    P1
_symmetry_Int_Tables_number       1
_symmetry_cell_setting            triclinic
loop_
_symmetry_equiv_pos_as_xyz
'x, y, z'
_cell_length_a     25.27012
_cell_length_b     25.34806
_cell_length_c     62.21913
_cell_angle_alpha  90.080807
_cell_angle_beta   90.038568
_cell_angle_gamma 90.649894
loop_
_atom_site_label
_atom_site_type_symbol
_atom_site_fract_x
_atom_site_fract_y
_atom_site_fract_z
_atom_type_partial_charge
Mg0 Mg 0.03955 0.01899 0.5677 0.0
O1 O 0.11161 -0.01437 0.58481 0.0
O2 O 0.18351 0.03002 0.57396 0.0
Mg3 Mg 0.15732 0.09025 0.54893 0.0
C4 C 0.1614 -0.00575 0.58534 0.0
C5 C 0.9493 0.94586 0.58234 0.0
O6 O 0.9451 0.94451 0.56129 0.0
O7 O 0.04098 0.09324 0.58841 0.0
O8 O 0.11071 0.13606 0.57442 0.0
O9 O 0.05142 0.96267 0.54086 0.0
O10 O 0.08548 0.04338 0.54159 0.0
C11 C 0.0715 0.13371 0.58738 0.0
C12 C 0.07994 -0.001 0.53173 0.0
O13 O -0.01474 0.97463 0.59079 0.0
Mg14 Mg 0.25581 0.74076 0.81777 0.0
O15 O 0.28776 0.8119 0.83606 0.0
O16 O 0.24414 0.88372 0.82588 0.0
Mg17 Mg 0.18582 0.85815 0.79964 0.0
C18 C 0.2792 0.86124 0.83729 0.0
C19 C 0.32842 0.65186 0.83302 0.0
O20 O 0.33254 0.64846 0.81202 0.0
O21 O 0.17992 0.739 0.8374 0.0
O22 O 0.1378 0.80839 0.82367 0.0
O23 O 0.31414 0.75568 0.79176 0.0
O24 O 0.23328 0.78797 0.79203 0.0
C25 C 0.13925 0.76831 0.8361 0.0
C26 C 0.27827 0.78391 0.78254 0.0
O27 O 0.29827 0.68654 0.84104 0.0
Mg28 Mg 0.55067 0.94568 0.06771 0.0
O29 O 0.47614 0.97647 0.0836 0.0
O30 O 0.40622 0.93037 0.07174 0.0
Mg31 Mg 0.43685 0.87085 0.04724 0.0
C32 C 0.42657 0.96666 0.08342 0.0
C33 C 0.63719 0.02078 0.08375 0.0
O34 O 0.64362 0.02146 0.0628 0.0
O35 O 0.5496 0.87215 0.08851 0.0
O36 O 0.48222 0.82714 0.07371 0.0
O37 O 0.53952 0.00173 0.04093 0.0
O38 O 0.50786 0.91997 0.04093 0.0
C39 C 0.52016 0.831 0.08726 0.0
C40 C 0.51278 0.96472 0.03133 0.0
O41 O 0.60097 -0.00841 0.09169 0.0
Mg42 Mg 0.33189 0.2259 0.31398 0.0
O43 O 0.3 0.15503 0.33241 0.0
O44 O 0.34382 0.08316 0.32237 0.0
Mg45 Mg 0.40209 0.10841 0.29612 0.0
C46 C 0.30875 0.10574 0.33376 0.0
C47 C 0.25871 0.31471 0.3294 0.0
O48 O 0.25295 0.31744 0.30844 0.0
O49 O 0.40754 0.22776 0.33377 0.0
O50 O 0.44993 0.15806 0.32038 0.0
O51 O 0.27358 0.21062 0.28797 0.0
O52 O 0.35449 0.17836 0.28831 0.0
C53 C 0.44814 0.19829 0.33277 0.0
C54 C 0.30946 0.18224 0.27881 0.0
O55 O 0.2897 0.28051 0.33719 0.0
Mg56 Mg 0.05179 0.9551 0.40473 0.0
O57 O 0.12658 -0.01201 0.3892 0.0
O58 O 0.19651 0.94424 0.40146 0.0
Mg59 Mg 0.16572 0.88484 0.42622 0.0
C60 C 0.17619 0.97955 0.38955 0.0
C61 C 0.96583 0.02811 0.3873 0.0
O62 O 0.95838 0.03082 0.40817 0.0
O63 O 0.05489 0.88089 0.38418 0.0
O64 O 0.12227 0.8387 0.39959 0.0
O65 O 0.06099 0.01187 0.43165 0.0
O66 O 0.09363 0.93129 0.43188 0.0
C67 C 0.08489 0.84087 0.38576 0.0
C68 C 0.08744 0.97575 0.44152 0.0
O69 O 0.00218 -0.00133 0.38011 0.0
Mg70 Mg 0.31208 0.73975 0.657 0.0
O71 O 0.28045 0.81206 0.63958 0.0
O72 O 0.32949 0.88204 0.64916 0.0
Mg73 Mg 0.39097 0.85451 0.6735 0.0
C74 C 0.29154 0.86119 0.63848 0.0
C75 C 0.27375 0.6369 0.63492 0.0
O76 O 0.31564 0.62012 0.64527 0.0
O77 O 0.38415 0.73608 0.63511 0.0
O78 O 0.43175 0.80441 0.64764 0.0
O79 O 0.25875 0.75578 0.6843 0.0
O80 O 0.34109 0.78595 0.68229 0.0
C81 C 0.42611 0.76469 0.63512 0.0
C82 C 0.29714 0.78311 0.6927 0.0
O83 O 0.26274 0.68568 0.63558 0.0
Mg84 Mg 0.54192 0.01322 0.9043 0.0
O85 O 0.46581 0.98085 0.88961 0.0
O86 O 0.39692 0.0242 0.90309 0.0
Mg87 Mg 0.42985 0.0832 0.92762 0.0
C88 C 0.41624 -0.01086 0.89075 0.0
C89 C 0.62628 0.94059 0.88573 0.0
O90 O 0.63501 0.93805 0.90652 0.0
O91 O 0.53742 0.088 0.88424 0.0
O92 O 0.47133 0.12984 0.90071 0.0
O93 O 0.53456 0.95556 0.9309 0.0
O94 O 0.502 0.03615 0.93201 0.0
C95 C 0.50763 0.12802 0.88643 0.0
C96 C 0.50852 -0.00874 0.94122 0.0
O97 O 0.58957 0.97008 0.8789 0.0
Mg98 Mg 0.27061 0.21964 0.15291 0.0
O99 O 0.30182 0.14674 0.13615 0.0
O100 O 0.25457 0.07628 0.14639 0.0
Mg101 Mg 0.19405 0.10496 0.17097 0.0
C102 C 0.29169 0.09743 0.13539 0.0
C103 C 0.34885 0.3056 0.13762 0.0
O104 O 0.35297 0.30965 0.15861 0.0
O105 O 0.19768 0.22083 0.13166 0.0
O106 O 0.15104 0.15307 0.1451 0.0
O107 O 0.32559 0.20587 0.17994 0.0
O108 O 0.2434 0.17492 0.17888 0.0
C109 C 0.15588 0.19212 0.13222 0.0
C110 C 0.28785 0.17885 0.18892 0.0
O111 O 0.3172 0.27139 0.12973 0.0
Mg112 Mg 0.84075 0.24515 0.15269 0.0
O113 O 0.8098 0.31692 0.13514 0.0
O114 O 0.85605 0.38821 0.14528 0.0
Mg115 Mg 0.9157 0.36111 0.1705 0.0
C116 C 0.81963 0.36625 0.13411 0.0
C117 C 0.76489 0.15713 0.13788 0.0
O118 O 0.76148 0.15386 0.15891 0.0
O119 O 0.91438 0.2436 0.13194 0.0
O120 O 0.96007 0.31241 0.14512 0.0
O121 O 0.78429 0.25972 0.17903 0.0
O122 O 0.8663 0.29131 0.1786 0.0
C123 C 0.95587 0.27276 0.13246 0.0
C124 C 0.82126 0.28751 0.1882 0.0
O125 O 0.79549 0.19174 0.12967 0.0
Mg126 Mg 0.74476 0.72012 0.6497 0.0
O127 O 0.77825 0.64948 0.63196 0.0
O128 O 0.73537 0.57668 0.6426 0.0
Mg129 Mg 0.67614 0.60128 0.66845 0.0
C130 C 0.77039 0.59978 0.63111 0.0
C131 C 0.81608 0.81114 0.63485 0.0
O132 O 0.81827 0.81464 0.6559 0.0
O133 O 0.66911 0.71828 0.62981 0.0
O134 O 0.62739 0.64829 0.64397 0.0
O135 O 0.80326 0.70843 0.67569 0.0
O136 O 0.72272 0.67336 0.67593 0.0
C137 C 0.62861 0.68785 0.63123 0.0
C138 C 0.76796 0.67938 0.68522 0.0
O139 O 0.78715 0.77533 0.6264 0.0
Mg140 Mg 0.76983 0.24484 0.31323 0.0
O141 O 0.80131 0.3174 0.3307 0.0
O142 O 0.75789 0.38841 0.31944 0.0
Mg143 Mg 0.69973 0.36054 0.29353 0.0
C144 C 0.79274 0.36682 0.33125 0.0
C145 C 0.84291 0.15777 0.32993 0.0
O146 O 0.84866 0.15351 0.30901 0.0
O147 O 0.69404 0.2448 0.33286 0.0
O148 O 0.65182 0.31341 0.31855 0.0
O149 O 0.82882 0.25799 0.2874 0.0
O150 O 0.74786 0.2902 0.28684 0.0
C151 C 0.65357 0.27432 0.3315 0.0
C152 C 0.79336 0.28585 0.27774 0.0
O153 O 0.81176 0.1924 0.33731 0.0
Mg154 Mg 0.81964 0.72308 0.81066 0.0
O155 O 0.78747 0.65023 0.82766 0.0
O156 O 0.83157 0.57949 0.8165 0.0
Mg157 Mg 0.89083 0.60788 0.79116 0.0
C158 C 0.79619 0.60084 0.82813 0.0
C159 C 0.74545 0.80968 0.82744 0.0
O160 O 0.73921 0.81409 0.80656 0.0
O161 O 0.89421 0.72259 0.83103 0.0
O162 O 0.93728 0.65407 0.81704 0.0
O163 O 0.76184 0.71037 0.78436 0.0
O164 O 0.84289 0.67826 0.78422 0.0
C165 C 0.9346 0.69288 0.83014 0.0
C166 C 0.79771 0.68271 0.77485 0.0
O167 O 0.77689 0.77513 0.83465 0.0
Mg168 Mg 0.56106 0.51526 0.06565 0.0
O169 O 0.63608 0.48437 0.08102 0.0
O170 O 0.70566 0.53079 0.06915 0.0
Mg171 Mg 0.6741 0.59057 0.04499 0.0
C172 C 0.68562 0.49428 0.08075 0.0
C173 C 0.47587 0.43885 0.08215 0.0
O174 O 0.46895 0.4372 0.06122 0.0
O175 O 0.56291 0.58827 0.08681 0.0
O176 O 0.62985 0.63371 0.07199 0.0
O177 O 0.5713 0.45984 0.03854 0.0
O178 O 0.60277 0.54166 0.03869 0.0
C179 C 0.59238 0.62941 0.08571 0.0
C180 C 0.59742 0.49712 0.0289 0.0
O181 O 0.51183 0.46889 0.0898 0.0
Mg182 Mg 0.03565 0.45232 0.56559 0.0
O183 O 0.95953 0.48363 0.58026 0.0
O184 O 0.89105 0.43698 0.56738 0.0
Mg185 Mg 0.92392 0.37729 0.54344 0.0
C186 C 0.91004 0.47353 0.5793 0.0
C187 C 0.13294 0.48892 0.59231 0.0
O188 O 0.15249 0.44738 0.58262 0.0
O189 O 0.03259 0.37881 0.58663 0.0
O190 O 0.96661 0.33393 0.57073 0.0
O191 O 0.0275 0.50784 0.53851 0.0
O192 O -0.00449 0.4262 0.53817 0.0
C193 C 0.00313 0.33771 0.58491 0.0
C194 C 0.00167 0.47079 0.52854 0.0
O195 O 0.08438 0.49968 0.58968 0.0
Mg196 Mg 0.54641 0.44961 0.90346 0.0
O197 O 0.61861 0.48114 0.88563 0.0
O198 O 0.6902 0.4378 0.89649 0.0
Mg199 Mg 0.66335 0.37983 0.92248 0.0
C200 C 0.66814 0.4725 0.8848 0.0
C201 C 0.45734 0.52131 0.88781 0.0
O202 O 0.45269 0.52426 0.90881 0.0
O203 O 0.54574 0.37417 0.8836 0.0
O204 O 0.61538 0.33254 0.89753 0.0
O205 O 0.56039 0.50794 0.92954 0.0
O206 O 0.59277 0.42728 0.92955 0.0
C207 C 0.5758 0.33409 0.88474 0.0
C208 C 0.58853 0.47231 0.93893 0.0
O209 O 0.49294 0.49209 0.87988 0.0
Mg210 Mg 0.04861 0.51987 0.40242 0.0
O211 O 0.9745 0.48804 0.38597 0.0
O212 O 0.904 0.53131 0.39804 0.0
Mg213 Mg 0.93373 0.58982 0.4234 0.0
C214 C 0.92488 0.49645 0.38604 0.0
C215 C 0.13575 0.448 0.38542 0.0
O216 O 0.14262 0.44588 0.40634 0.0
O217 O 0.04709 0.59504 0.38249 0.0
O218 O 0.97895 0.63672 0.39758 0.0
O219 O 0.03744 0.46177 0.4287 0.0
O220 O 0.00501 0.54243 0.42925 0.0
C221 C 0.01712 0.63509 0.38412 0.0
C222 C 0.0101 0.49739 0.4385 0.0
O223 O 0.09936 0.47697 0.37796 0.0
C224 C 0.09056 0.22608 0.59904 0.0
C225 C 0.0542 0.18395 0.59704 0.0
H226 H 0.10222 0.30964 0.59753 0.0
C227 C -0.00017 0.19453 0.59831 0.0
H228 H 0.13275 0.21898 0.59847 0.0
C229 C 0.9823 0.24656 0.59744 0.0
C230 C 0.01895 0.28847 0.5957 0.0
H231 H 0.97076 0.16292 0.59706 0.0
H232 H 0.9403 0.25353 0.59565 0.0
C233 C 0.073 0.27814 0.59856 0.0
C234 C 0.02631 0.67474 0.84279 0.0
C235 C -0.01602 0.70996 0.84096 0.0
H236 H 0.11026 0.66612 0.84368 0.0
C237 C -0.00655 0.76396 0.84464 0.0
H238 H 0.02 0.63277 0.84046 0.0
C239 C 0.04532 0.78319 0.84625 0.0
C240 C 0.08815 0.74855 0.84452 0.0
H241 H 0.96159 0.79209 0.84365 0.0
H242 H 0.05194 0.8255 0.84643 0.0
C243 C 0.07812 0.69391 0.84478 0.0
C244 C 0.61109 0.72077 0.09856 0.0
C245 C 0.57535 0.67817 0.09655 0.0
H246 H 0.6209 0.80454 0.09812 0.0
C247 C 0.52098 0.68737 0.09911 0.0
H248 H 0.6533 0.71463 0.09707 0.0
C249 C 0.50231 0.73901 0.09936 0.0
C250 C 0.5379 0.78174 0.09746 0.0
H251 H 0.49244 0.65528 0.09794 0.0
H252 H 0.46001 0.74522 0.09845 0.0
C253 C 0.59243 0.77238 0.09924 0.0
C254 C 0.59332 0.20209 0.34377 0.0
C255 C 0.60314 0.2564 0.34119 0.0
H256 H 0.53481 0.14043 0.34339 0.0
C257 C 0.56057 0.29142 0.34265 0.0
H258 H 0.62532 0.17408 0.34297 0.0
C259 C 0.50861 0.27209 0.34323 0.0
C260 C 0.49872 0.2175 0.34195 0.0
H261 H 0.56708 0.33357 0.34109 0.0
H262 H 0.47658 0.29996 0.34195 0.0
C263 C 0.54136 0.18273 0.34397 0.0
C264 C 0.10566 0.74993 0.37345 0.0
C265 C 0.06892 0.79091 0.37526 0.0
H266 H 0.11744 0.66661 0.37396 0.0
C267 C 0.01481 0.77916 0.37272 0.0
H268 H 0.14769 0.75803 0.37499 0.0
C269 C -0.00261 0.72667 0.37247 0.0
C270 C 0.03396 0.68557 0.37435 0.0
H271 H -0.01447 0.80994 0.3738 0.0
H272 H 0.95525 0.7185 0.37327 0.0
C273 C 0.08825 0.69746 0.37278 0.0
C274 C 0.51733 0.77956 0.62103 0.0
C275 C 0.4742 0.74506 0.62439 0.0
H276 H 0.60145 0.78788 0.61969 0.0
C277 C 0.48234 0.69043 0.62292 0.0
H278 H 0.51203 0.82189 0.62169 0.0
C279 C 0.53377 0.67084 0.62207 0.0
C280 C 0.5775 0.70566 0.62236 0.0
H281 H 0.44982 0.66277 0.62519 0.0
H282 H 0.53933 0.62868 0.62358 0.0
C283 C 0.56868 0.75996 0.61982 0.0
C284 C 0.50357 0.27183 0.87432 0.0
C285 C 0.55799 0.2836 0.87518 0.0
H286 H 0.44421 0.21134 0.877 0.0
C287 C 0.59429 0.24245 0.87266 0.0
H288 H 0.47458 0.30273 0.876 0.0
C289 C 0.57678 0.18999 0.87289 0.0
C290 C 0.52287 0.17828 0.87605 0.0
H291 H 0.63648 0.25053 0.87293 0.0
H292 H 0.60607 0.15914 0.87344 0.0
C293 C 0.48611 0.21938 0.87495 0.0
C294 C 0.09998 0.26651 0.12018 0.0
C295 C 0.10713 0.21179 0.12206 0.0
H296 H 0.0446 0.32958 0.12182 0.0
C297 C 0.0629 0.17805 0.12003 0.0
H298 H 0.13333 0.2936 0.12135 0.0
C299 C 0.01194 0.19877 0.11998 0.0
C300 C 0.00482 0.2534 0.12234 0.0
H301 H 0.06737 0.13565 0.12098 0.0
H302 H 0.97862 0.17161 0.12094 0.0
C303 C 0.04902 0.28723 0.12052 0.0
C304 C 0.10328 0.03225 0.47377 0.0
C305 C 0.10124 0.9819 0.46439 0.0
H306 H 0.10002 0.07709 0.50287 0.0
C307 C 0.10296 0.93716 0.47768 0.0
H308 H 0.10235 0.06734 0.46386 0.0
C309 C 0.10034 0.94267 0.49999 0.0
C310 C 0.0974 -0.00701 0.5093 0.0
H311 H 0.10153 0.89782 0.47087 0.0
H312 H 0.09721 0.90756 0.50984 0.0
C313 C 0.10207 0.03776 0.4961 0.0
C314 C 0.23975 0.80825 0.74719 0.0
C315 C 0.2848 0.80136 0.76011 0.0
H316 H 0.20842 0.80773 0.71521 0.0
C317 C 0.33494 0.80101 0.75042 0.0
H318 H 0.20056 0.80905 0.75423 0.0
C319 C 0.33945 0.80151 0.72805 0.0
C320 C 0.29377 0.80109 0.71515 0.0
H321 H 0.37032 0.79628 0.76004 0.0
H322 H 0.37827 0.79687 0.72096 0.0
C323 C 0.24416 0.80742 0.72484 0.0
C324 C 0.49223 0.02149 -0.00016 0.0
C325 C 0.49641 0.97093 0.00879 0.0
H326 H 0.49093 0.06745 0.97108 0.0
C327 C 0.49401 0.92659 -0.00476 0.0
H328 H 0.49359 0.05626 0.00999 0.0
C329 C 0.49369 0.93297 0.97295 0.0
C330 C 0.49446 -0.01627 0.96397 0.0
H331 H 0.49707 0.88711 0.00174 0.0
H332 H 0.49621 0.89834 0.96279 0.0
C333 C 0.49059 0.02782 0.97758 0.0
C334 C 0.24715 0.16157 0.22463 0.0
C335 C 0.29241 0.16242 0.21152 0.0
H336 H 0.2171 0.16735 0.25672 0.0
C337 C 0.34248 0.15776 0.22103 0.0
H338 H 0.208 0.16492 0.21769 0.0
C339 C 0.34757 0.15794 0.24336 0.0
C340 C 0.30274 0.16419 0.25645 0.0
H341 H 0.37792 0.15784 0.21123 0.0
H342 H 0.38698 0.15834 0.25023 0.0
C343 C 0.25232 0.1631 0.24697 0.0
C344 C 0.76438 0.30933 0.21954 0.0
C345 C 0.81513 0.30466 0.21066 0.0
H346 H 0.71778 0.30895 0.24818 0.0
C347 C 0.85942 0.30587 0.22431 0.0
H348 H 0.72965 0.30898 0.20931 0.0
C349 C 0.85264 0.30462 0.24658 0.0
C350 C 0.80154 0.30344 0.25543 0.0
H351 H 0.89906 0.30249 0.21787 0.0
H352 H 0.88715 0.30066 0.25677 0.0
C353 C 0.75766 0.30939 0.2418 0.0
C354 C 0.7318 0.65959 0.72152 0.0
C355 C 0.77568 0.6632 0.70771 0.0
H356 H 0.7045 0.66323 0.75406 0.0
C357 C 0.82685 0.6616 0.71645 0.0
H358 H 0.69186 0.6606 0.7152 0.0
C359 C 0.83403 0.66192 0.73871 0.0
C360 C 0.79012 0.66519 0.75247 0.0
H361 H 0.8613 0.66393 0.70613 0.0
H362 H 0.87396 0.66465 0.745 0.0
C363 C 0.73898 0.66127 0.74377 0.0
C364 C 0.6084 0.53037 0.9704 0.0
C365 C 0.60689 0.47976 0.96121 0.0
H366 H 0.60854 0.57563 -0.00056 0.0
C367 C 0.61376 0.43554 0.97448 0.0
H368 H 0.60365 0.56512 0.9605 0.0
C369 C 0.61542 0.44144 -0.00322 0.0
C370 C 0.61158 0.49172 0.00606 0.0
H371 H 0.61302 0.39602 0.96783 0.0
H372 H 0.61606 0.40647 0.00677 0.0
C373 C 0.61138 0.53634 -0.00731 0.0
C374 C -0.01162 0.43237 0.4921 0.0
C375 C -0.01182 0.47672 0.50566 0.0
H376 H -0.0042 0.40422 0.45977 0.0
C377 C -0.01538 0.52721 0.49661 0.0
H378 H -0.00894 0.39295 0.49868 0.0
C379 C -0.01377 0.53357 0.47434 0.0
C380 C -0.00725 0.48957 0.46087 0.0
H381 H -0.01597 0.56198 0.50675 0.0
H382 H -0.01301 0.57321 0.46786 0.0
C383 C -0.00871 0.43879 0.46983 0.0
C384 C 0.27731 0.94488 0.618 0.0
C385 C 0.25851 0.89525 0.62479 0.0
H386 H 0.26153 0.01497 0.60003 0.0
C387 C 0.20744 0.87869 0.61865 0.0
H388 H 0.31654 0.9587 0.62244 0.0
C389 C 0.17568 0.91121 0.60611 0.0
C390 C 0.19464 0.96062 0.59913 0.0
H391 H 0.19169 0.84079 0.62374 0.0
H392 H 0.13649 0.89728 0.60165 0.0
C393 C 0.24586 0.97705 0.60513 0.0
C394 C 0.36301 0.87519 0.8578 0.0
C395 C 0.31303 0.89358 0.85162 0.0
H396 H 0.43495 0.8913 0.87477 0.0
C397 C 0.2967 0.94346 0.85873 0.0
H398 H 0.37685 0.83702 0.85249 0.0
C399 C 0.32983 0.97435 0.87178 0.0
C400 C 0.38026 0.9563 0.87754 0.0
H401 H 0.25831 0.95855 0.85425 0.0
H402 H 0.31639 0.01271 0.877 0.0
C403 C 0.39645 0.90641 0.87045 0.0
C404 C 0.40908 0.04971 0.10359 0.0
C405 C 0.39168 -0.00037 0.09674 0.0
H406 H 0.39087 0.12 0.1209 0.0
C407 C 0.34077 0.9819 0.10255 0.0
H408 H 0.44797 0.06463 0.09927 0.0
C409 C 0.30815 0.0135 0.11521 0.0
C410 C 0.32552 0.06375 0.12191 0.0
H411 H 0.32636 0.94341 0.09751 0.0
H412 H 0.26921 -0.00122 0.11958 0.0
C413 C 0.37621 0.08159 0.11589 0.0
C414 C 0.19401 0.06151 0.36849 0.0
C415 C 0.21097 0.01202 0.37571 0.0
H416 H 0.21192 0.13013 0.34984 0.0
C417 C 0.26092 -0.00616 0.36936 0.0
H418 H 0.15583 0.07672 0.3732 0.0
C419 C 0.29285 0.0242 0.3557 0.0
C420 C 0.27581 0.07371 0.34849 0.0
H421 H 0.27493 0.95575 0.37464 0.0
H422 H 0.33093 0.00901 0.35085 0.0
C423 C 0.22627 0.09223 0.35519 0.0
C424 C 0.94027 0.05668 0.3502 0.0
C425 C 0.9334 0.06016 0.37256 0.0
H426 H 0.91699 0.08461 0.31922 0.0
C427 C 0.8958 0.09532 0.38077 0.0
H428 H 0.96887 0.02996 0.34335 0.0
C429 C 0.86615 0.12678 0.36695 0.0
C430 C 0.87333 0.12362 0.34459 0.0
H431 H 0.88951 0.09897 0.39793 0.0
H432 H 0.83779 0.15373 0.3738 0.0
C433 C 0.91049 0.08802 0.33636 0.0
C434 C 0.70775 0.08981 0.08856 0.0
C435 C 0.67061 0.05473 0.09769 0.0
H436 H 0.76654 0.14971 0.09406 0.0
C437 C 0.66524 0.05311 0.12015 0.0
H438 H 0.71285 0.09206 0.07131 0.0
C439 C 0.69617 0.08611 0.1332 0.0
C440 C 0.73295 0.12154 0.12406 0.0
H441 H 0.63702 0.0265 0.12767 0.0
H442 H 0.69092 0.08407 0.15046 0.0
C443 C 0.73851 0.12293 0.10161 0.0
C444 C 0.6782 0.87956 0.83435 0.0
C445 C 0.71571 0.84396 0.8423 0.0
H446 H 0.62049 0.93802 0.8418 0.0
C447 C 0.72415 0.84113 0.86459 0.0
H448 H 0.67075 0.88272 0.81726 0.0
C449 C 0.69548 0.87295 0.87863 0.0
C450 C 0.65759 0.90817 0.87071 0.0
H451 H 0.75282 0.8142 0.87123 0.0
H452 H 0.70279 0.86955 0.89572 0.0
C453 C 0.64937 0.91127 0.84841 0.0
C454 C 0.84543 0.8448 0.59884 0.0
C455 C 0.84864 0.84695 0.62137 0.0
H456 H 0.87447 0.87451 0.56888 0.0
C457 C 0.88429 0.8829 0.63097 0.0
H458 H 0.81833 0.81761 0.59095 0.0
C459 C 0.91665 0.9154 0.61833 0.0
C460 C 0.91388 0.91282 0.5958 0.0
H461 H 0.88776 0.88557 0.64829 0.0
H462 H 0.94407 0.94226 0.62623 0.0
C463 C 0.87762 0.87747 0.5862 0.0
C464 C 0.73614 0.38039 0.11364 0.0
C465 C 0.78627 0.39901 0.12009 0.0
H466 H 0.66498 0.39611 0.09638 0.0
C467 C 0.80346 0.44922 0.11331 0.0
H468 H 0.72164 0.34197 0.11868 0.0
C469 C 0.77112 0.4801 0.10026 0.0
C470 C 0.72066 0.46167 0.09412 0.0
H471 H 0.84198 0.46452 0.11799 0.0
H472 H 0.78528 0.51866 0.09525 0.0
C473 C 0.70354 0.41154 0.10096 0.0
C474 C 0.87558 0.38231 0.35221 0.0
C475 C 0.8258 0.40011 0.3455 0.0
H476 H 0.94607 0.39913 0.37004 0.0
C477 C 0.80859 0.44997 0.35226 0.0
H478 H 0.89006 0.34418 0.34717 0.0
C479 C 0.8405 0.48126 0.36564 0.0
C480 C 0.89057 0.46363 0.3721 0.0
H481 H 0.77033 0.46461 0.34736 0.0
H482 H 0.82629 0.51948 0.37069 0.0
C483 C 0.90781 0.41393 0.36521 0.0
C484 C 0.82326 0.48647 0.59796 0.0
C485 C 0.8736 0.50588 0.59219 0.0
H486 H 0.75116 0.5008 0.61502 0.0
C487 C 0.88904 0.55671 0.59887 0.0
H488 H 0.81034 0.44738 0.59305 0.0
C489 C 0.85492 0.58754 0.61108 0.0
C490 C 0.80499 0.56783 0.61723 0.0
H491 H 0.92744 0.57289 0.59455 0.0
H492 H 0.86817 0.62648 0.61607 0.0
C493 C 0.78946 0.51697 0.61056 0.0
C494 C 0.78159 0.51804 0.84938 0.0
C495 C 0.7636 0.56745 0.84246 0.0
H496 H 0.76571 0.44938 0.86847 0.0
C497 C 0.71396 0.58504 0.84943 0.0
H498 H 0.81978 0.50356 0.8443 0.0
C499 C 0.6828 0.55382 0.86296 0.0
C500 C 0.701 0.50472 0.87011 0.0
H501 H 0.6989 0.62283 0.84429 0.0
H502 H 0.64471 0.56854 0.86804 0.0
C503 C 0.75077 0.48715 0.86326 0.0
C504 C 0.38628 0.58822 0.88272 0.0
C505 C 0.42298 0.55321 0.87375 0.0
H506 H 0.32764 0.64681 0.87694 0.0
C507 C 0.42731 0.54995 0.85128 0.0
H508 H 0.38192 0.59168 0.89998 0.0
C509 C 0.39607 0.5815 0.83807 0.0
C510 C 0.35995 0.61709 0.84705 0.0
H511 H 0.45514 0.52334 0.84385 0.0
H512 H 0.40073 0.57835 0.82081 0.0
C513 C 0.35515 0.61987 0.86951 0.0
C514 C 0.21978 0.5111 0.60976 0.0
C515 C 0.16825 0.52594 0.60404 0.0
H516 H 0.29353 0.53451 0.62407 0.0
C517 C 0.15175 0.57755 0.60856 0.0
H518 H 0.23367 0.47163 0.60646 0.0
C519 C 0.1863 0.61379 0.61828 0.0
C520 C 0.23784 0.59898 0.62399 0.0
H521 H 0.1124 0.59034 0.60422 0.0
H522 H 0.17242 0.65331 0.62148 0.0
C523 C 0.2541 0.54714 0.61979 0.0
C524 C 0.20607 0.38077 0.37955 0.0
C525 C 0.16844 0.41536 0.37098 0.0
H526 H 0.264 0.32187 0.37319 0.0
C527 C 0.1616 0.41743 0.34858 0.0
H528 H 0.21234 0.3782 0.39674 0.0
C529 C 0.19135 0.38515 0.33507 0.0
C530 C 0.22844 0.35002 0.34367 0.0
H531 H 0.13298 0.44368 0.34147 0.0
H532 H 0.18483 0.38741 0.31789 0.0
C533 C 0.23568 0.3484 0.36605 0.0
C534 C 0.4489 0.40798 0.11884 0.0
C535 C 0.44294 0.40537 0.09641 0.0
H536 H 0.42379 0.37862 0.14944 0.0
C537 C 0.40551 0.36995 0.08765 0.0
H538 H 0.47738 0.43485 0.12609 0.0
C539 C 0.3749 0.33761 0.10102 0.0
C540 C 0.38093 0.3401 0.12345 0.0
H541 H 0.39996 0.36692 0.07043 0.0
H542 H 0.34655 0.31062 0.09375 0.0
C543 C 0.41815 0.37574 0.13222 0.0
loop_
_geom_bond_atom_site_label_1
_geom_bond_atom_site_label_2
_geom_bond_distance
_geom_bond_site_symmetry_2
_ccdc_geom_bond_type
Mg0 O1 2.028 . S
Mg0 O7 1.986 . S
Mg0 O9 2.114 1_545 S
Mg0 O10 2.251 . S
Mg0 O13 2.010 . S
O1 Mg0 2.028 . S
O1 C4 1.250 . S
O2 Mg3 2.028 . S
O2 C4 1.248 . S
Mg3 O2 2.028 . S
Mg3 O8 2.032 . S
Mg3 O10 2.079 . S
C4 O1 1.250 . S
C4 O2 1.248 . S
C5 O6 1.264 . S
C5 O13 1.249 1_665 S
O6 C5 1.264 . S
O7 Mg0 1.986 . S
O7 C11 1.246 . S
O8 Mg3 2.032 . S
O8 C11 1.259 . S
O9 Mg0 2.114 1_565 S
O9 C12 1.252 1_565 S
O10 Mg0 2.251 . S
O10 Mg3 2.079 . S
O10 C12 1.273 . S
C11 O7 1.246 . S
C11 O8 1.259 . S
C12 O9 1.252 1_545 S
C12 O10 1.273 . S
O13 Mg0 2.010 . S
O13 C5 1.249 1_445 S
Mg14 O15 2.028 . S
Mg14 O21 1.986 . S
Mg14 O23 2.114 . S
Mg14 O24 2.251 . S
Mg14 O27 2.010 . S
O15 Mg14 2.028 . S
O15 C18 1.250 . S
O16 Mg17 2.028 . S
O16 C18 1.248 . S
Mg17 O16 2.028 . S
Mg17 O22 2.032 . S
Mg17 O24 2.079 . S
C18 O15 1.250 . S
C18 O16 1.248 . S
C19 O20 1.264 . S
C19 O27 1.249 . S
O20 C19 1.264 . S
O21 Mg14 1.986 . S
O21 C25 1.246 . S
O22 Mg17 2.032 . S
O22 C25 1.259 . S
O23 Mg14 2.114 . S
O23 C26 1.252 . S
O24 Mg14 2.251 . S
O24 Mg17 2.079 . S
O24 C26 1.273 . S
C25 O21 1.246 . S
C25 O22 1.259 . S
C26 O23 1.252 . S
C26 O24 1.273 . S
O27 Mg14 2.010 . S
O27 C19 1.249 . S
Mg28 O29 2.028 . S
Mg28 O35 1.986 . S
Mg28 O37 2.114 1_565 S
Mg28 O38 2.251 . S
Mg28 O41 2.010 . S
O29 Mg28 2.028 . S
O29 C32 1.250 . S
O30 Mg31 2.028 . S
O30 C32 1.248 . S
Mg31 O30 2.028 . S
Mg31 O36 2.032 . S
Mg31 O38 2.079 . S
C32 O29 1.250 . S
C32 O30 1.248 . S
C33 O34 1.264 . S
C33 O41 1.249 1_545 S
O34 C33 1.264 . S
O35 Mg28 1.986 . S
O35 C39 1.246 . S
O36 Mg31 2.032 . S
O36 C39 1.259 . S
O37 Mg28 2.114 1_545 S
O37 C40 1.252 1_545 S
O38 Mg28 2.251 . S
O38 Mg31 2.079 . S
O38 C40 1.273 . S
C39 O35 1.246 . S
C39 O36 1.259 . S
C40 O37 1.252 1_565 S
C40 O38 1.273 . S
O41 Mg28 2.010 . S
O41 C33 1.249 1_565 S
Mg42 O43 2.028 . S
Mg42 O49 1.986 . S
Mg42 O51 2.114 . S
Mg42 O52 2.251 . S
Mg42 O55 2.010 . S
O43 Mg42 2.028 . S
O43 C46 1.250 . S
O44 Mg45 2.028 . S
O44 C46 1.248 . S
Mg45 O44 2.028 . S
Mg45 O50 2.032 . S
Mg45 O52 2.079 . S
C46 O43 1.250 . S
C46 O44 1.248 . S
C47 O48 1.264 . S
C47 O55 1.249 . S
O48 C47 1.264 . S
O49 Mg42 1.986 . S
O49 C53 1.246 . S
O50 Mg45 2.032 . S
O50 C53 1.259 . S
O51 Mg42 2.114 . S
O51 C54 1.252 . S
O52 Mg42 2.251 . S
O52 Mg45 2.079 . S
O52 C54 1.273 . S
C53 O49 1.246 . S
C53 O50 1.259 . S
C54 O51 1.252 . S
C54 O52 1.273 . S
O55 Mg42 2.010 . S
O55 C47 1.249 . S
Mg56 O57 2.028 . S
Mg56 O63 1.986 . S
Mg56 O65 2.114 1_565 S
Mg56 O66 2.251 . S
Mg56 O69 2.010 . S
O57 Mg56 2.028 . S
O57 C60 1.250 . S
O58 Mg59 2.028 . S
O58 C60 1.248 . S
Mg59 O58 2.028 . S
Mg59 O64 2.032 . S
Mg59 O66 2.079 . S
C60 O57 1.250 . S
C60 O58 1.248 . S
C61 O62 1.264 . S
C61 O69 1.249 1_645 S
O62 C61 1.264 . S
O63 Mg56 1.986 . S
O63 C67 1.246 . S
O64 Mg59 2.032 . S
O64 C67 1.259 . S
O65 Mg56 2.114 1_545 S
O65 C68 1.252 1_545 S
O66 Mg56 2.251 . S
O66 Mg59 2.079 . S
O66 C68 1.273 . S
C67 O63 1.246 . S
C67 O64 1.259 . S
C68 O65 1.252 1_565 S
C68 O66 1.273 . S
O69 Mg56 2.010 . S
O69 C61 1.249 1_465 S
Mg70 O71 2.028 . S
Mg70 O77 1.986 . S
Mg70 O79 2.114 . S
Mg70 O80 2.251 . S
Mg70 O83 2.010 . S
O71 Mg70 2.028 . S
O71 C74 1.250 . S
O72 Mg73 2.028 . S
O72 C74 1.248 . S
Mg73 O72 2.028 . S
Mg73 O78 2.032 . S
Mg73 O80 2.079 . S
C74 O71 1.250 . S
C74 O72 1.248 . S
C75 O76 1.264 . S
C75 O83 1.249 . S
O76 C75 1.264 . S
O77 Mg70 1.986 . S
O77 C81 1.246 . S
O78 Mg73 2.032 . S
O78 C81 1.259 . S
O79 Mg70 2.114 . S
O79 C82 1.252 . S
O80 Mg70 2.251 . S
O80 Mg73 2.079 . S
O80 C82 1.273 . S
C81 O77 1.246 . S
C81 O78 1.259 . S
C82 O79 1.252 . S
C82 O80 1.273 . S
O83 Mg70 2.010 . S
O83 C75 1.249 . S
Mg84 O85 2.028 . S
Mg84 O91 1.986 . S
Mg84 O93 2.114 1_545 S
Mg84 O94 2.251 . S
Mg84 O97 2.010 . S
O85 Mg84 2.028 . S
O85 C88 1.250 . S
O86 Mg87 2.028 . S
O86 C88 1.248 . S
Mg87 O86 2.028 . S
Mg87 O92 2.032 . S
Mg87 O94 2.079 . S
C88 O85 1.250 . S
C88 O86 1.248 . S
C89 O90 1.264 . S
C89 O97 1.249 1_565 S
O90 C89 1.264 . S
O91 Mg84 1.986 . S
O91 C95 1.246 . S
O92 Mg87 2.032 . S
O92 C95 1.259 . S
O93 Mg84 2.114 1_565 S
O93 C96 1.252 1_565 S
O94 Mg84 2.251 . S
O94 Mg87 2.079 . S
O94 C96 1.273 . S
C95 O91 1.246 . S
C95 O92 1.259 . S
C96 O93 1.252 1_545 S
C96 O94 1.273 . S
O97 Mg84 2.010 . S
O97 C89 1.249 1_545 S
Mg98 O99 2.028 . S
Mg98 O105 1.986 . S
Mg98 O107 2.114 . S
Mg98 O108 2.251 . S
Mg98 O111 2.010 . S
O99 Mg98 2.028 . S
O99 C102 1.250 . S
O100 Mg101 2.028 . S
O100 C102 1.248 . S
Mg101 O100 2.028 . S
Mg101 O106 2.032 . S
Mg101 O108 2.079 . S
C102 O99 1.250 . S
C102 O100 1.248 . S
C103 O104 1.264 . S
C103 O111 1.249 . S
O104 C103 1.264 . S
O105 Mg98 1.986 . S
O105 C109 1.246 . S
O106 Mg101 2.032 . S
O106 C109 1.259 . S
O107 Mg98 2.114 . S
O107 C110 1.252 . S
O108 Mg98 2.251 . S
O108 Mg101 2.079 . S
O108 C110 1.273 . S
C109 O105 1.246 . S
C109 O106 1.259 . S
C110 O107 1.252 . S
C110 O108 1.273 . S
O111 Mg98 2.010 . S
O111 C103 1.249 . S
Mg112 O113 2.028 . S
Mg112 O119 1.986 . S
Mg112 O121 2.114 . S
Mg112 O122 2.251 . S
Mg112 O125 2.010 . S
O113 Mg112 2.028 . S
O113 C116 1.250 . S
O114 Mg115 2.028 . S
O114 C116 1.248 . S
Mg115 O114 2.028 . S
Mg115 O120 2.032 . S
Mg115 O122 2.079 . S
C116 O113 1.250 . S
C116 O114 1.248 . S
C117 O118 1.264 . S
C117 O125 1.249 . S
O118 C117 1.264 . S
O119 Mg112 1.986 . S
O119 C123 1.246 . S
O120 Mg115 2.032 . S
O120 C123 1.259 . S
O121 Mg112 2.114 . S
O121 C124 1.252 . S
O122 Mg112 2.251 . S
O122 Mg115 2.079 . S
O122 C124 1.273 . S
C123 O119 1.246 . S
C123 O120 1.259 . S
C124 O121 1.252 . S
C124 O122 1.273 . S
O125 Mg112 2.010 . S
O125 C117 1.249 . S
Mg126 O127 2.028 . S
Mg126 O133 1.986 . S
Mg126 O135 2.114 . S
Mg126 O136 2.251 . S
Mg126 O139 2.010 . S
O127 Mg126 2.028 . S
O127 C130 1.250 . S
O128 Mg129 2.028 . S
O128 C130 1.248 . S
Mg129 O128 2.028 . S
Mg129 O134 2.032 . S
Mg129 O136 2.079 . S
C130 O127 1.250 . S
C130 O128 1.248 . S
C131 O132 1.264 . S
C131 O139 1.249 . S
O132 C131 1.264 . S
O133 Mg126 1.986 . S
O133 C137 1.246 . S
O134 Mg129 2.032 . S
O134 C137 1.259 . S
O135 Mg126 2.114 . S
O135 C138 1.252 . S
O136 Mg126 2.251 . S
O136 Mg129 2.079 . S
O136 C138 1.273 . S
C137 O133 1.246 . S
C137 O134 1.259 . S
C138 O135 1.252 . S
C138 O136 1.273 . S
O139 Mg126 2.010 . S
O139 C131 1.249 . S
Mg140 O141 2.028 . S
Mg140 O147 1.986 . S
Mg140 O149 2.114 . S
Mg140 O150 2.251 . S
Mg140 O153 2.010 . S
O141 Mg140 2.028 . S
O141 C144 1.250 . S
O142 Mg143 2.028 . S
O142 C144 1.248 . S
Mg143 O142 2.028 . S
Mg143 O148 2.032 . S
Mg143 O150 2.079 . S
C144 O141 1.250 . S
C144 O142 1.248 . S
C145 O146 1.264 . S
C145 O153 1.249 . S
O146 C145 1.264 . S
O147 Mg140 1.986 . S
O147 C151 1.246 . S
O148 Mg143 2.032 . S
O148 C151 1.259 . S
O149 Mg140 2.114 . S
O149 C152 1.252 . S
O150 Mg140 2.251 . S
O150 Mg143 2.079 . S
O150 C152 1.273 . S
C151 O147 1.246 . S
C151 O148 1.259 . S
C152 O149 1.252 . S
C152 O150 1.273 . S
O153 Mg140 2.010 . S
O153 C145 1.249 . S
Mg154 O155 2.028 . S
Mg154 O161 1.986 . S
Mg154 O163 2.114 . S
Mg154 O164 2.251 . S
Mg154 O167 2.010 . S
O155 Mg154 2.028 . S
O155 C158 1.250 . S
O156 Mg157 2.028 . S
O156 C158 1.248 . S
Mg157 O156 2.028 . S
Mg157 O162 2.032 . S
Mg157 O164 2.079 . S
C158 O155 1.250 . S
C158 O156 1.248 . S
C159 O160 1.264 . S
C159 O167 1.249 . S
O160 C159 1.264 . S
O161 Mg154 1.986 . S
O161 C165 1.246 . S
O162 Mg157 2.032 . S
O162 C165 1.259 . S
O163 Mg154 2.114 . S
O163 C166 1.252 . S
O164 Mg154 2.251 . S
O164 Mg157 2.079 . S
O164 C166 1.273 . S
C165 O161 1.246 . S
C165 O162 1.259 . S
C166 O163 1.252 . S
C166 O164 1.273 . S
O167 Mg154 2.010 . S
O167 C159 1.249 . S
Mg168 O169 2.028 . S
Mg168 O175 1.986 . S
Mg168 O177 2.114 . S
Mg168 O178 2.251 . S
Mg168 O181 2.010 . S
O169 Mg168 2.028 . S
O169 C172 1.250 . S
O170 Mg171 2.028 . S
O170 C172 1.248 . S
Mg171 O170 2.028 . S
Mg171 O176 2.032 . S
Mg171 O178 2.079 . S
C172 O169 1.250 . S
C172 O170 1.248 . S
C173 O174 1.264 . S
C173 O181 1.249 . S
O174 C173 1.264 . S
O175 Mg168 1.986 . S
O175 C179 1.246 . S
O176 Mg171 2.032 . S
O176 C179 1.259 . S
O177 Mg168 2.114 . S
O177 C180 1.252 . S
O178 Mg168 2.251 . S
O178 Mg171 2.079 . S
O178 C180 1.273 . S
C179 O175 1.246 . S
C179 O176 1.259 . S
C180 O177 1.252 . S
C180 O178 1.273 . S
O181 Mg168 2.010 . S
O181 C173 1.249 . S
Mg182 O183 2.028 1_455 S
Mg182 O189 1.986 . S
Mg182 O191 2.114 . S
Mg182 O192 2.251 1_455 S
Mg182 O195 2.010 . S
O183 Mg182 2.028 1_655 S
O183 C186 1.250 . S
O184 Mg185 2.028 . S
O184 C186 1.248 . S
Mg185 O184 2.028 . S
Mg185 O190 2.032 . S
Mg185 O192 2.079 . S
C186 O183 1.250 . S
C186 O184 1.248 . S
C187 O188 1.264 . S
C187 O195 1.249 . S
O188 C187 1.264 . S
O189 Mg182 1.986 . S
O189 C193 1.246 . S
O190 Mg185 2.032 . S
O190 C193 1.259 1_655 S
O191 Mg182 2.114 . S
O191 C194 1.252 . S
O192 Mg182 2.251 1_655 S
O192 Mg185 2.079 . S
O192 C194 1.273 1_655 S
C193 O189 1.246 . S
C193 O190 1.259 1_455 S
C194 O191 1.252 . S
C194 O192 1.273 1_455 S
O195 Mg182 2.010 . S
O195 C187 1.249 . S
Mg196 O197 2.028 . S
Mg196 O203 1.986 . S
Mg196 O205 2.114 . S
Mg196 O206 2.251 . S
Mg196 O209 2.010 . S
O197 Mg196 2.028 . S
O197 C200 1.250 . S
O198 Mg199 2.028 . S
O198 C200 1.248 . S
Mg199 O198 2.028 . S
Mg199 O204 2.032 . S
Mg199 O206 2.079 . S
C200 O197 1.250 . S
C200 O198 1.248 . S
C201 O202 1.264 . S
C201 O209 1.249 . S
O202 C201 1.264 . S
O203 Mg196 1.986 . S
O203 C207 1.246 . S
O204 Mg199 2.032 . S
O204 C207 1.259 . S
O205 Mg196 2.114 . S
O205 C208 1.252 . S
O206 Mg196 2.251 . S
O206 Mg199 2.079 . S
O206 C208 1.273 . S
C207 O203 1.246 . S
C207 O204 1.259 . S
C208 O205 1.252 . S
C208 O206 1.273 . S
O209 Mg196 2.010 . S
O209 C201 1.249 . S
Mg210 O211 2.028 1_455 S
Mg210 O217 1.986 . S
Mg210 O219 2.114 . S
Mg210 O220 2.251 1_455 S
Mg210 O223 2.010 . S
O211 Mg210 2.028 1_655 S
O211 C214 1.250 . S
O212 Mg213 2.028 . S
O212 C214 1.248 . S
Mg213 O212 2.028 . S
Mg213 O218 2.032 . S
Mg213 O220 2.079 . S
C214 O211 1.250 . S
C214 O212 1.248 . S
C215 O216 1.264 . S
C215 O223 1.249 . S
O216 C215 1.264 . S
O217 Mg210 1.986 . S
O217 C221 1.246 . S
O218 Mg213 2.032 . S
O218 C221 1.259 1_655 S
O219 Mg210 2.114 . S
O219 C222 1.252 . S
O220 Mg210 2.251 1_655 S
O220 Mg213 2.079 . S
O220 C222 1.273 1_655 S
C221 O217 1.246 . S
C221 O218 1.259 1_455 S
C222 O219 1.252 . S
C222 O220 1.273 1_455 S
O223 Mg210 2.010 . S
O223 C215 1.249 . S
C224 C225 1.387 . S
C224 H228 0.950 . S
C224 C233 1.390 . S
C225 C224 1.387 . S
C225 C227 1.387 . S
H226 C233 0.950 . S
C227 C225 1.387 . S
C227 C229 1.390 . S
C227 H231 0.950 . S
H228 C224 0.950 . S
C229 C227 1.390 . S
C229 C230 1.387 . S
C229 H232 0.950 . S
C230 C229 1.387 . S
C230 C233 1.387 . S
H231 C227 0.950 . S
H232 C229 0.950 . S
C233 C224 1.390 . S
C233 H226 0.950 . S
C233 C230 1.387 . S
C234 C235 1.387 . S
C234 H238 0.950 . S
C234 C243 1.390 . S
C235 C234 1.387 . S
C235 C237 1.387 . S
H236 C243 0.950 . S
C237 C235 1.387 . S
C237 C239 1.390 . S
C237 H241 0.950 . S
H238 C234 0.950 . S
C239 C237 1.390 . S
C239 C240 1.387 . S
C239 H242 0.950 . S
C240 C239 1.387 . S
C240 C243 1.387 . S
H241 C237 0.950 . S
H242 C239 0.950 . S
C243 C234 1.390 . S
C243 H236 0.950 . S
C243 C240 1.387 . S
C244 C245 1.387 . S
C244 H248 0.950 . S
C244 C253 1.390 . S
C245 C244 1.387 . S
C245 C247 1.387 . S
H246 C253 0.950 . S
C247 C245 1.387 . S
C247 C249 1.390 . S
C247 H251 0.950 . S
H248 C244 0.950 . S
C249 C247 1.390 . S
C249 C250 1.387 . S
C249 H252 0.950 . S
C250 C249 1.387 . S
C250 C253 1.387 . S
H251 C247 0.950 . S
H252 C249 0.950 . S
C253 C244 1.390 . S
C253 H246 0.950 . S
C253 C250 1.387 . S
C254 C255 1.387 . S
C254 H258 0.950 . S
C254 C263 1.390 . S
C255 C254 1.387 . S
C255 C257 1.387 . S
H256 C263 0.950 . S
C257 C255 1.387 . S
C257 C259 1.390 . S
C257 H261 0.950 . S
H258 C254 0.950 . S
C259 C257 1.390 . S
C259 C260 1.387 . S
C259 H262 0.950 . S
C260 C259 1.387 . S
C260 C263 1.387 . S
H261 C257 0.950 . S
H262 C259 0.950 . S
C263 C254 1.390 . S
C263 H256 0.950 . S
C263 C260 1.387 . S
C264 C265 1.387 . S
C264 H268 0.950 . S
C264 C273 1.390 . S
C265 C264 1.387 . S
C265 C267 1.387 . S
H266 C273 0.950 . S
C267 C265 1.387 . S
C267 C269 1.390 . S
C267 H271 0.950 . S
H268 C264 0.950 . S
C269 C267 1.390 . S
C269 C270 1.387 . S
C269 H272 0.950 . S
C270 C269 1.387 . S
C270 C273 1.387 . S
H271 C267 0.950 . S
H272 C269 0.950 . S
C273 C264 1.390 . S
C273 H266 0.950 . S
C273 C270 1.387 . S
C274 C275 1.387 . S
C274 H278 0.950 . S
C274 C283 1.390 . S
C275 C274 1.387 . S
C275 C277 1.387 . S
H276 C283 0.950 . S
C277 C275 1.387 . S
C277 C279 1.390 . S
C277 H281 0.950 . S
H278 C274 0.950 . S
C279 C277 1.390 . S
C279 C280 1.387 . S
C279 H282 0.950 . S
C280 C279 1.387 . S
C280 C283 1.387 . S
H281 C277 0.950 . S
H282 C279 0.950 . S
C283 C274 1.390 . S
C283 H276 0.950 . S
C283 C280 1.387 . S
C284 C285 1.387 . S
C284 H288 0.950 . S
C284 C293 1.390 . S
C285 C284 1.387 . S
C285 C287 1.387 . S
H286 C293 0.950 . S
C287 C285 1.387 . S
C287 C289 1.390 . S
C287 H291 0.950 . S
H288 C284 0.950 . S
C289 C287 1.390 . S
C289 C290 1.387 . S
C289 H292 0.950 . S
C290 C289 1.387 . S
C290 C293 1.387 . S
H291 C287 0.950 . S
H292 C289 0.950 . S
C293 C284 1.390 . S
C293 H286 0.950 . S
C293 C290 1.387 . S
C294 C295 1.387 . S
C294 H298 0.950 . S
C294 C303 1.390 . S
C295 C294 1.387 . S
C295 C297 1.387 . S
H296 C303 0.950 . S
C297 C295 1.387 . S
C297 C299 1.390 . S
C297 H301 0.950 . S
H298 C294 0.950 . S
C299 C297 1.390 . S
C299 C300 1.387 . S
C299 H302 0.950 . S
C300 C299 1.387 . S
C300 C303 1.387 . S
H301 C297 0.950 . S
H302 C299 0.950 . S
C303 C294 1.390 . S
C303 H296 0.950 . S
C303 C300 1.387 . S
C304 C305 1.387 . S
C304 H308 0.950 . S
C304 C313 1.390 1_565 S
C305 C304 1.387 . S
C305 C307 1.387 . S
H306 C313 0.950 . S
C307 C305 1.387 . S
C307 C309 1.390 1_565 S
C307 H311 0.950 . S
H308 C304 0.950 . S
C309 C307 1.390 1_545 S
C309 C310 1.387 . S
C309 H312 0.950 . S
C310 C309 1.387 . S
C310 C313 1.387 . S
H311 C307 0.950 . S
H312 C309 0.950 . S
C313 C304 1.390 1_545 S
C313 H306 0.950 . S
C313 C310 1.387 . S
C314 C315 1.387 . S
C314 H318 0.950 . S
C314 C323 1.390 . S
C315 C314 1.387 . S
C315 C317 1.387 . S
H316 C323 0.950 . S
C317 C315 1.387 . S
C317 C319 1.390 . S
C317 H321 0.950 . S
H318 C314 0.950 . S
C319 C317 1.390 . S
C319 C320 1.387 . S
C319 H322 0.950 . S
C320 C319 1.387 . S
C320 C323 1.387 . S
H321 C317 0.950 . S
H322 C319 0.950 . S
C323 C314 1.390 . S
C323 H316 0.950 . S
C323 C320 1.387 . S
C324 C325 1.387 . S
C324 H328 0.950 . S
C324 C333 1.390 1_564 S
C325 C324 1.387 . S
C325 C327 1.387 . S
H326 C333 0.950 . S
C327 C325 1.387 . S
C327 C329 1.390 1_564 S
C327 H331 0.950 . S
H328 C324 0.950 . S
C329 C327 1.390 1_546 S
C329 C330 1.387 . S
C329 H332 0.950 . S
C330 C329 1.387 . S
C330 C333 1.387 . S
H331 C327 0.950 . S
H332 C329 0.950 . S
C333 C324 1.390 1_546 S
C333 H326 0.950 . S
C333 C330 1.387 . S
C334 C335 1.387 . S
C334 H338 0.950 . S
C334 C343 1.390 . S
C335 C334 1.387 . S
C335 C337 1.387 . S
H336 C343 0.950 . S
C337 C335 1.387 . S
C337 C339 1.390 . S
C337 H341 0.950 . S
H338 C334 0.950 . S
C339 C337 1.390 . S
C339 C340 1.387 . S
C339 H342 0.950 . S
C340 C339 1.387 . S
C340 C343 1.387 . S
H341 C337 0.950 . S
H342 C339 0.950 . S
C343 C334 1.390 . S
C343 H336 0.950 . S
C343 C340 1.387 . S
C344 C345 1.387 . S
C344 H348 0.950 . S
C344 C353 1.390 . S
C345 C344 1.387 . S
C345 C347 1.387 . S
H346 C353 0.950 . S
C347 C345 1.387 . S
C347 C349 1.390 . S
C347 H351 0.950 . S
H348 C344 0.950 . S
C349 C347 1.390 . S
C349 C350 1.387 . S
C349 H352 0.950 . S
C350 C349 1.387 . S
C350 C353 1.387 . S
H351 C347 0.950 . S
H352 C349 0.950 . S
C353 C344 1.390 . S
C353 H346 0.950 . S
C353 C350 1.387 . S
C354 C355 1.387 . S
C354 H358 0.950 . S
C354 C363 1.390 . S
C355 C354 1.387 . S
C355 C357 1.387 . S
H356 C363 0.950 . S
C357 C355 1.387 . S
C357 C359 1.390 . S
C357 H361 0.950 . S
H358 C354 0.950 . S
C359 C357 1.390 . S
C359 C360 1.387 . S
C359 H362 0.950 . S
C360 C359 1.387 . S
C360 C363 1.387 . S
H361 C357 0.950 . S
H362 C359 0.950 . S
C363 C354 1.390 . S
C363 H356 0.950 . S
C363 C360 1.387 . S
C364 C365 1.387 . S
C364 H368 0.950 . S
C364 C373 1.390 1_556 S
C365 C364 1.387 . S
C365 C367 1.387 . S
H366 C373 0.950 . S
C367 C365 1.387 . S
C367 C369 1.390 1_556 S
C367 H371 0.950 . S
H368 C364 0.950 . S
C369 C367 1.390 1_554 S
C369 C370 1.387 . S
C369 H372 0.950 . S
C370 C369 1.387 . S
C370 C373 1.387 . S
H371 C367 0.950 . S
H372 C369 0.950 . S
C373 C364 1.390 1_554 S
C373 H366 0.950 . S
C373 C370 1.387 . S
C374 C375 1.387 1_655 S
C374 H378 0.950 . S
C374 C383 1.390 . S
C375 C374 1.387 1_455 S
C375 C377 1.387 . S
H376 C383 0.950 . S
C377 C375 1.387 . S
C377 C379 1.390 . S
C377 H381 0.950 . S
H378 C374 0.950 . S
C379 C377 1.390 . S
C379 C380 1.387 . S
C379 H382 0.950 . S
C380 C379 1.387 . S
C380 C383 1.387 1_455 S
H381 C377 0.950 . S
H382 C379 0.950 . S
C383 C374 1.390 . S
C383 H376 0.950 . S
C383 C380 1.387 1_655 S
C384 C385 1.387 . S
C384 H388 0.950 . S
C384 C393 1.390 . S
C385 C384 1.387 . S
C385 C387 1.387 . S
H386 C393 0.950 1_545 S
C387 C385 1.387 . S
C387 C389 1.390 . S
C387 H391 0.950 . S
H388 C384 0.950 . S
C389 C387 1.390 . S
C389 C390 1.387 . S
C389 H392 0.950 . S
C390 C389 1.387 . S
C390 C393 1.387 . S
H391 C387 0.950 . S
H392 C389 0.950 . S
C393 C384 1.390 . S
C393 H386 0.950 1_565 S
C393 C390 1.387 . S
C394 C395 1.387 . S
C394 H398 0.950 . S
C394 C403 1.390 . S
C395 C394 1.387 . S
C395 C397 1.387 . S
H396 C403 0.950 . S
C397 C395 1.387 . S
C397 C399 1.390 . S
C397 H401 0.950 . S
H398 C394 0.950 . S
C399 C397 1.390 . S
C399 C400 1.387 . S
C399 H402 0.950 1_565 S
C400 C399 1.387 . S
C400 C403 1.387 . S
H401 C397 0.950 . S
H402 C399 0.950 1_545 S
C403 C394 1.390 . S
C403 H396 0.950 . S
C403 C400 1.387 . S
C404 C405 1.387 . S
C404 H408 0.950 . S
C404 C413 1.390 . S
C405 C404 1.387 . S
C405 C407 1.387 . S
H406 C413 0.950 . S
C407 C405 1.387 . S
C407 C409 1.390 . S
C407 H411 0.950 . S
H408 C404 0.950 . S
C409 C407 1.390 . S
C409 C410 1.387 . S
C409 H412 0.950 . S
C410 C409 1.387 . S
C410 C413 1.387 . S
H411 C407 0.950 . S
H412 C409 0.950 . S
C413 C404 1.390 . S
C413 H406 0.950 . S
C413 C410 1.387 . S
C414 C415 1.387 . S
C414 H418 0.950 . S
C414 C423 1.390 . S
C415 C414 1.387 . S
C415 C417 1.387 . S
H416 C423 0.950 . S
C417 C415 1.387 . S
C417 C419 1.390 . S
C417 H421 0.950 1_545 S
H418 C414 0.950 . S
C419 C417 1.390 . S
C419 C420 1.387 . S
C419 H422 0.950 . S
C420 C419 1.387 . S
C420 C423 1.387 . S
H421 C417 0.950 1_565 S
H422 C419 0.950 . S
C423 C414 1.390 . S
C423 H416 0.950 . S
C423 C420 1.387 . S
C424 C425 1.387 . S
C424 H428 0.950 . S
C424 C433 1.390 . S
C425 C424 1.387 . S
C425 C427 1.387 . S
H426 C433 0.950 . S
C427 C425 1.387 . S
C427 C429 1.390 . S
C427 H431 0.950 . S
H428 C424 0.950 . S
C429 C427 1.390 . S
C429 C430 1.387 . S
C429 H432 0.950 . S
C430 C429 1.387 . S
C430 C433 1.387 . S
H431 C427 0.950 . S
H432 C429 0.950 . S
C433 C424 1.390 . S
C433 H426 0.950 . S
C433 C430 1.387 . S
C434 C435 1.387 . S
C434 H438 0.950 . S
C434 C443 1.390 . S
C435 C434 1.387 . S
C435 C437 1.387 . S
H436 C443 0.950 . S
C437 C435 1.387 . S
C437 C439 1.390 . S
C437 H441 0.950 . S
H438 C434 0.950 . S
C439 C437 1.390 . S
C439 C440 1.387 . S
C439 H442 0.950 . S
C440 C439 1.387 . S
C440 C443 1.387 . S
H441 C437 0.950 . S
H442 C439 0.950 . S
C443 C434 1.390 . S
C443 H436 0.950 . S
C443 C440 1.387 . S
C444 C445 1.387 . S
C444 H448 0.950 . S
C444 C453 1.390 . S
C445 C444 1.387 . S
C445 C447 1.387 . S
H446 C453 0.950 . S
C447 C445 1.387 . S
C447 C449 1.390 . S
C447 H451 0.950 . S
H448 C444 0.950 . S
C449 C447 1.390 . S
C449 C450 1.387 . S
C449 H452 0.950 . S
C450 C449 1.387 . S
C450 C453 1.387 . S
H451 C447 0.950 . S
H452 C449 0.950 . S
C453 C444 1.390 . S
C453 H446 0.950 . S
C453 C450 1.387 . S
C454 C455 1.387 . S
C454 H458 0.950 . S
C454 C463 1.390 . S
C455 C454 1.387 . S
C455 C457 1.387 . S
H456 C463 0.950 . S
C457 C455 1.387 . S
C457 C459 1.390 . S
C457 H461 0.950 . S
H458 C454 0.950 . S
C459 C457 1.390 . S
C459 C460 1.387 . S
C459 H462 0.950 . S
C460 C459 1.387 . S
C460 C463 1.387 . S
H461 C457 0.950 . S
H462 C459 0.950 . S
C463 C454 1.390 . S
C463 H456 0.950 . S
C463 C460 1.387 . S
C464 C465 1.387 . S
C464 H468 0.950 . S
C464 C473 1.390 . S
C465 C464 1.387 . S
C465 C467 1.387 . S
H466 C473 0.950 . S
C467 C465 1.387 . S
C467 C469 1.390 . S
C467 H471 0.950 . S
H468 C464 0.950 . S
C469 C467 1.390 . S
C469 C470 1.387 . S
C469 H472 0.950 . S
C470 C469 1.387 . S
C470 C473 1.387 . S
H471 C467 0.950 . S
H472 C469 0.950 . S
C473 C464 1.390 . S
C473 H466 0.950 . S
C473 C470 1.387 . S
C474 C475 1.387 . S
C474 H478 0.950 . S
C474 C483 1.390 . S
C475 C474 1.387 . S
C475 C477 1.387 . S
H476 C483 0.950 . S
C477 C475 1.387 . S
C477 C479 1.390 . S
C477 H481 0.950 . S
H478 C474 0.950 . S
C479 C477 1.390 . S
C479 C480 1.387 . S
C479 H482 0.950 . S
C480 C479 1.387 . S
C480 C483 1.387 . S
H481 C477 0.950 . S
H482 C479 0.950 . S
C483 C474 1.390 . S
C483 H476 0.950 . S
C483 C480 1.387 . S
C484 C485 1.387 . S
C484 H488 0.950 . S
C484 C493 1.390 . S
C485 C484 1.387 . S
C485 C487 1.387 . S
H486 C493 0.950 . S
C487 C485 1.387 . S
C487 C489 1.390 . S
C487 H491 0.950 . S
H488 C484 0.950 . S
C489 C487 1.390 . S
C489 C490 1.387 . S
C489 H492 0.950 . S
C490 C489 1.387 . S
C490 C493 1.387 . S
H491 C487 0.950 . S
H492 C489 0.950 . S
C493 C484 1.390 . S
C493 H486 0.950 . S
C493 C490 1.387 . S
C494 C495 1.387 . S
C494 H498 0.950 . S
C494 C503 1.390 . S
C495 C494 1.387 . S
C495 C497 1.387 . S
H496 C503 0.950 . S
C497 C495 1.387 . S
C497 C499 1.390 . S
C497 H501 0.950 . S
H498 C494 0.950 . S
C499 C497 1.390 . S
C499 C500 1.387 . S
C499 H502 0.950 . S
C500 C499 1.387 . S
C500 C503 1.387 . S
H501 C497 0.950 . S
H502 C499 0.950 . S
C503 C494 1.390 . S
C503 H496 0.950 . S
C503 C500 1.387 . S
C504 C505 1.387 . S
C504 H508 0.950 . S
C504 C513 1.390 . S
C505 C504 1.387 . S
C505 C507 1.387 . S
H506 C513 0.950 . S
C507 C505 1.387 . S
C507 C509 1.390 . S
C507 H511 0.950 . S
H508 C504 0.950 . S
C509 C507 1.390 . S
C509 C510 1.387 . S
C509 H512 0.950 . S
C510 C509 1.387 . S
C510 C513 1.387 . S
H511 C507 0.950 . S
H512 C509 0.950 . S
C513 C504 1.390 . S
C513 H506 0.950 . S
C513 C510 1.387 . S
C514 C515 1.387 . S
C514 H518 0.950 . S
C514 C523 1.390 . S
C515 C514 1.387 . S
C515 C517 1.387 . S
H516 C523 0.950 . S
C517 C515 1.387 . S
C517 C519 1.390 . S
C517 H521 0.950 . S
H518 C514 0.950 . S
C519 C517 1.390 . S
C519 C520 1.387 . S
C519 H522 0.950 . S
C520 C519 1.387 . S
C520 C523 1.387 . S
H521 C517 0.950 . S
H522 C519 0.950 . S
C523 C514 1.390 . S
C523 H516 0.950 . S
C523 C520 1.387 . S
C524 C525 1.387 . S
C524 H528 0.950 . S
C524 C533 1.390 . S
C525 C524 1.387 . S
C525 C527 1.387 . S
H526 C533 0.950 . S
C527 C525 1.387 . S
C527 C529 1.390 . S
C527 H531 0.950 . S
H528 C524 0.950 . S
C529 C527 1.390 . S
C529 C530 1.387 . S
C529 H532 0.950 . S
C530 C529 1.387 . S
C530 C533 1.387 . S
H531 C527 0.950 . S
H532 C529 0.950 . S
C533 C524 1.390 . S
C533 H526 0.950 . S
C533 C530 1.387 . S
C534 C535 1.387 . S
C534 H538 0.950 . S
C534 C543 1.390 . S
C535 C534 1.387 . S
C535 C537 1.387 . S
H536 C543 0.950 . S
C537 C535 1.387 . S
C537 C539 1.390 . S
C537 H541 0.950 . S
H538 C534 0.950 . S
C539 C537 1.390 . S
C539 C540 1.387 . S
C539 H542 0.950 . S
C540 C539 1.387 . S
C540 C543 1.387 . S
H541 C537 0.950 . S
H542 C539 0.950 . S
C543 C534 1.390 . S
C543 H536 0.950 . S
C543 C540 1.387 . S
C225 C11 1.258 . S
C230 C193 1.258 . S
C235 C165 1.258 1_455 S
C240 C25 1.258 . S
C245 C179 1.258 . S
C250 C39 1.258 . S
C255 C151 1.258 . S
C260 C53 1.258 . S
C265 C67 1.258 . S
C270 C221 1.258 . S
C275 C81 1.258 . S
C280 C137 1.258 . S
C285 C207 1.258 . S
C290 C95 1.258 . S
C295 C109 1.258 . S
C300 C123 1.258 1_455 S
C305 C68 1.595 . S
C310 C12 1.595 . S
C315 C26 1.595 . S
C320 C82 1.595 . S
C325 C40 1.595 . S
C330 C96 1.595 . S
C335 C110 1.595 . S
C340 C54 1.595 . S
C345 C124 1.595 . S
C350 C152 1.595 . S
C355 C138 1.595 . S
C360 C166 1.595 . S
C365 C208 1.595 . S
C370 C180 1.595 . S
C375 C194 1.595 . S
C380 C222 1.595 . S
C385 C74 1.313 . S
C390 C4 1.313 1_565 S
C395 C18 1.315 . S
C400 C88 1.315 1_565 S
C405 C32 1.314 1_545 S
C410 C102 1.315 . S
C415 C60 1.314 1_545 S
C420 C46 1.314 . S
C425 C61 1.208 . S
C430 C145 1.203 . S
C435 C33 1.204 . S
C440 C117 1.209 . S
C445 C159 1.203 . S
C450 C89 1.208 . S
C455 C131 1.208 . S
C460 C5 1.203 . S
C465 C116 1.314 . S
C470 C172 1.314 . S
C475 C144 1.314 . S
C480 C214 1.315 . S
C485 C186 1.314 . S
C490 C130 1.314 . S
C495 C158 1.313 . S
C500 C200 1.314 . S
C505 C201 1.203 . S
C510 C19 1.208 . S
C515 C187 1.209 . S
C520 C75 1.208 . S
C525 C215 1.204 . S
C530 C47 1.209 . S
C535 C173 1.209 . S
C540 C103 1.206 . S
