# Generated by pormake.
# Topology lcy-a, (4)-cn, num edge types: 1
# Building blocks:
#     Node 0, Type 0, BuildingBlock: AZAVOO_clean_sbu_0, # of connection points: 4
#     Node 1, Type 0, BuildingBlock: AZAVOO_clean_sbu_0, # of connection points: 4
#     Node 2, Type 0, BuildingBlock: AZAVOO_clean_sbu_0, # of connection points: 4
#     Node 3, Type 0, BuildingBlock: AZAVOO_clean_sbu_0, # of connection points: 4
#     Node 4, Type 0, BuildingBlock: AZAVOO_clean_sbu_0, # of connection points: 4
#     Node 5, Type 0, BuildingBlock: AZAVOO_clean_sbu_0, # of connection points: 4
#     Node 6, Type 0, BuildingBlock: AZAVOO_clean_sbu_0, # of connection points: 4
#     Node 7, Type 0, BuildingBlock: AZAVOO_clean_sbu_0, # of connection points: 4
#     Node 8, Type 0, BuildingBlock: AZAVOO_clean_sbu_0, # of connection points: 4
#     Node 9, Type 0, BuildingBlock: AZAVOO_clean_sbu_0, # of connection points: 4
#     Node 10, Type 0, BuildingBlock: AZAVOO_clean_sbu_0, # of connection points: 4
#     Node 11, Type 0, BuildingBlock: AZAVOO_clean_sbu_0, # of connection points: 4
#     Node 12, Type 0, BuildingBlock: AZAVOO_clean_sbu_0, # of connection points: 4
#     Node 13, Type 0, BuildingBlock: AZAVOO_clean_sbu_0, # of connection points: 4
#     Node 14, Type 0, BuildingBlock: AZAVOO_clean_sbu_0, # of connection points: 4
#     Node 15, Type 0, BuildingBlock: AZAVOO_clean_sbu_0, # of connection points: 4
#     Node 16, Type 0, BuildingBlock: AZAVOO_clean_sbu_0, # of connection points: 4
#     Node 17, Type 0, BuildingBlock: AZAVOO_clean_sbu_0, # of connection points: 4
#     Node 18, Type 0, BuildingBlock: AZAVOO_clean_sbu_0, # of connection points: 4
#     Node 19, Type 0, BuildingBlock: AZAVOO_clean_sbu_0, # of connection points: 4
#     Node 20, Type 0, BuildingBlock: AZAVOO_clean_sbu_0, # of connection points: 4
#     Node 21, Type 0, BuildingBlock: AZAVOO_clean_sbu_0, # of connection points: 4
#     Node 22, Type 0, BuildingBlock: AZAVOO_clean_sbu_0, # of connection points: 4
#     Node 23, Type 0, BuildingBlock: AZAVOO_clean_sbu_0, # of connection points: 4
#     Edge 24, Type (0, 0), BuildingBlock: OJICUG_clean_linker_0, # of connection points: 2
#     Edge 25, Type (0, 0), BuildingBlock: OJICUG_clean_linker_0, # of connection points: 2
#     Edge 26, Type (0, 0), BuildingBlock: OJICUG_clean_linker_0, # of connection points: 2
#     Edge 27, Type (0, 0), BuildingBlock: OJICUG_clean_linker_0, # of connection points: 2
#     Edge 28, Type (0, 0), BuildingBlock: OJICUG_clean_linker_0, # of connection points: 2
#     Edge 29, Type (0, 0), BuildingBlock: OJICUG_clean_linker_0, # of connection points: 2
#     Edge 30, Type (0, 0), BuildingBlock: OJICUG_clean_linker_0, # of connection points: 2
#     Edge 31, Type (0, 0), BuildingBlock: OJICUG_clean_linker_0, # of connection points: 2
#     Edge 32, Type (0, 0), BuildingBlock: OJICUG_clean_linker_0, # of connection points: 2
#     Edge 33, Type (0, 0), BuildingBlock: OJICUG_clean_linker_0, # of connection points: 2
#     Edge 34, Type (0, 0), BuildingBlock: OJICUG_clean_linker_0, # of connection points: 2
#     Edge 35, Type (0, 0), BuildingBlock: OJICUG_clean_linker_0, # of connection points: 2
#     Edge 36, Type (0, 0), BuildingBlock: OJICUG_clean_linker_0, # of connection points: 2
#     Edge 37, Type (0, 0), BuildingBlock: OJICUG_clean_linker_0, # of connection points: 2
#     Edge 38, Type (0, 0), BuildingBlock: OJICUG_clean_linker_0, # of connection points: 2
#     Edge 39, Type (0, 0), BuildingBlock: OJICUG_clean_linker_0, # of connection points: 2
#     Edge 40, Type (0, 0), BuildingBlock: OJICUG_clean_linker_0, # of connection points: 2
#     Edge 41, Type (0, 0), BuildingBlock: OJICUG_clean_linker_0, # of connection points: 2
#     Edge 42, Type (0, 0), BuildingBlock: OJICUG_clean_linker_0, # of connection points: 2
#     Edge 43, Type (0, 0), BuildingBlock: OJICUG_clean_linker_0, # of connection points: 2
#     Edge 44, Type (0, 0), BuildingBlock: OJICUG_clean_linker_0, # of connection points: 2
#     Edge 45, Type (0, 0), BuildingBlock: OJICUG_clean_linker_0, # of connection points: 2
#     Edge 46, Type (0, 0), BuildingBlock: OJICUG_clean_linker_0, # of connection points: 2
#     Edge 47, Type (0, 0), BuildingBlock: OJICUG_clean_linker_0, # of connection points: 2
#     Edge 48, Type (0, 0), BuildingBlock: OJICUG_clean_linker_0, # of connection points: 2
#     Edge 49, Type (0, 0), BuildingBlock: OJICUG_clean_linker_0, # of connection points: 2
#     Edge 50, Type (0, 0), BuildingBlock: OJICUG_clean_linker_0, # of connection points: 2
#     Edge 51, Type (0, 0), BuildingBlock: OJICUG_clean_linker_0, # of connection points: 2
#     Edge 52, Type (0, 0), BuildingBlock: OJICUG_clean_linker_0, # of connection points: 2
#     Edge 53, Type (0, 0), BuildingBlock: OJICUG_clean_linker_0, # of connection points: 2
#     Edge 54, Type (0, 0), BuildingBlock: OJICUG_clean_linker_0, # of connection points: 2
#     Edge 55, Type (0, 0), BuildingBlock: OJICUG_clean_linker_0, # of connection points: 2
#     Edge 56, Type (0, 0), BuildingBlock: OJICUG_clean_linker_0, # of connection points: 2
#     Edge 57, Type (0, 0), BuildingBlock: OJICUG_clean_linker_0, # of connection points: 2
#     Edge 58, Type (0, 0), BuildingBlock: OJICUG_clean_linker_0, # of connection points: 2
#     Edge 59, Type (0, 0), BuildingBlock: OJICUG_clean_linker_0, # of connection points: 2
#     Edge 60, Type (0, 0), BuildingBlock: OJICUG_clean_linker_0, # of connection points: 2
#     Edge 61, Type (0, 0), BuildingBlock: OJICUG_clean_linker_0, # of connection points: 2
#     Edge 62, Type (0, 0), BuildingBlock: OJICUG_clean_linker_0, # of connection points: 2
#     Edge 63, Type (0, 0), BuildingBlock: OJICUG_clean_linker_0, # of connection points: 2
#     Edge 64, Type (0, 0), BuildingBlock: OJICUG_clean_linker_0, # of connection points: 2
#     Edge 65, Type (0, 0), BuildingBlock: OJICUG_clean_linker_0, # of connection points: 2
#     Edge 66, Type (0, 0), BuildingBlock: OJICUG_clean_linker_0, # of connection points: 2
#     Edge 67, Type (0, 0), BuildingBlock: OJICUG_clean_linker_0, # of connection points: 2
#     Edge 68, Type (0, 0), BuildingBlock: OJICUG_clean_linker_0, # of connection points: 2
#     Edge 69, Type (0, 0), BuildingBlock: OJICUG_clean_linker_0, # of connection points: 2
#     Edge 70, Type (0, 0), BuildingBlock: OJICUG_clean_linker_0, # of connection points: 2
#     Edge 71, Type (0, 0), BuildingBlock: OJICUG_clean_linker_0, # of connection points: 2
# Relax obj value: 0.394
# Max RMSD: 0.244
# Mean RMSD: 0.244
data_MOF--net-lcy-a--node1-AZAVOO_clean_sbu_0--edge1-OJICUG_clean_linker_0
_symmetry_space_group_name_H-M    P1
_symmetry_Int_Tables_number       1
_symmetry_cell_setting            triclinic
loop_
_symmetry_equiv_pos_as_xyz
'x, y, z'
_cell_length_a     40.839006
_cell_length_b     40.837243
_cell_length_c     40.80863
_cell_angle_alpha  90.067595
_cell_angle_beta   89.887435
_cell_angle_gamma 90.085168
loop_
_atom_site_label
_atom_site_type_symbol
_atom_site_fract_x
_atom_site_fract_y
_atom_site_fract_z
_atom_type_partial_charge
Mg0 Mg 0.17275 0.32197 0.38173 0.0
O1 O 0.20578 0.27938 0.36605 0.0
O2 O 0.24983 0.29953 0.34054 0.0
Mg3 Mg 0.24892 0.35534 0.34759 0.0
C4 C 0.23212 0.27546 0.34977 0.0
C5 C 0.13561 0.28689 0.43894 0.0
O6 O 0.14201 0.31502 0.45323 0.0
O7 O 0.20438 0.33115 0.42732 0.0
O8 O 0.25017 0.3494 0.40307 0.0
O9 O 0.15606 0.32363 0.32872 0.0
O10 O 0.19534 0.35439 0.34928 0.0
C11 C 0.23386 0.3415 0.42855 0.0
C12 C 0.17946 0.34459 0.32416 0.0
O13 O 0.14299 0.28316 0.40889 0.0
Mg14 Mg 0.94253 0.93176 0.6412 0.0
O15 O 0.98607 0.96386 0.62449 0.0
O16 O 0.96779 -0.00037 0.58743 0.0
Mg17 Mg 0.91187 0.99592 0.58669 0.0
C18 C 0.99111 0.98626 0.60329 0.0
C19 C 0.00543 0.90786 0.68195 0.0
O20 O 0.02229 0.91599 0.65575 0.0
O21 O 0.92541 0.97169 0.67685 0.0
O22 O 0.90988 0.00985 0.64079 0.0
O23 O 0.94964 0.90298 0.5939 0.0
O24 O 0.91553 0.94428 0.6002 0.0
C25 C 0.91445 0.00018 0.67016 0.0
C26 C 0.92911 0.92345 0.58116 0.0
O27 O 0.9744 0.91027 0.6817 0.0
Mg28 Mg 0.33054 0.66997 0.90299 0.0
O29 O 0.29066 0.70812 0.89373 0.0
O30 O 0.25444 0.68753 0.85828 0.0
Mg31 Mg 0.26715 0.63299 0.85116 0.0
C32 C 0.26563 0.71115 0.87548 0.0
C33 C 0.35306 0.73465 0.93811 0.0
O34 O 0.34717 0.7466 0.90883 0.0
O35 O 0.29746 0.64372 0.94029 0.0
O36 O 0.26113 0.62195 0.9055 0.0
O37 O 0.35211 0.68602 0.85429 0.0
O38 O 0.31864 0.64415 0.86041 0.0
C39 C 0.27224 0.6261 0.93441 0.0
C40 C 0.33402 0.66349 0.84116 0.0
O41 O 0.34984 0.70405 0.94291 0.0
Mg42 Mg 0.5764 0.08165 0.13048 0.0
O43 O 0.5323 0.04905 0.11763 0.0
O44 O 0.54755 0.01356 0.07889 0.0
Mg45 Mg 0.6032 0.01885 0.07203 0.0
C46 C 0.52563 0.02657 0.09702 0.0
C47 C 0.51608 0.1094 0.16983 0.0
O48 O 0.50236 0.10715 0.14082 0.0
O49 O 0.59787 0.0416 0.16398 0.0
O50 O 0.61275 0.00592 0.12523 0.0
O51 O 0.56427 0.11025 0.08406 0.0
O52 O 0.60016 0.07022 0.08679 0.0
C53 C 0.6108 0.01441 0.15526 0.0
C54 C 0.58418 0.0905 0.06922 0.0
O55 O 0.54615 0.10203 0.17295 0.0
Mg56 Mg 0.67262 0.1504 0.61252 0.0
O57 O 0.70851 0.19294 0.61999 0.0
O58 O 0.74887 0.17607 0.65269 0.0
Mg59 Mg 0.74286 0.12032 0.65933 0.0
C60 C 0.73409 0.19856 0.63684 0.0
C61 C 0.64221 0.21245 0.57858 0.0
O62 O 0.64887 0.22571 0.60715 0.0
O63 O 0.70561 0.12814 0.57266 0.0
O64 O 0.74634 0.11018 0.60449 0.0
O65 O 0.6526 0.16355 0.66275 0.0
O66 O 0.68993 0.12573 0.65379 0.0
C67 C 0.73285 0.11326 0.57647 0.0
C68 C 0.67381 0.14306 0.67431 0.0
O69 O 0.64753 0.1821 0.57422 0.0
Mg70 Mg 0.07135 0.42872 0.84459 0.0
O71 O 0.02953 0.46391 0.8586 0.0
O72 O 0.04865 0.50059 0.89447 0.0
Mg73 Mg 0.10449 0.49456 0.89576 0.0
C74 C 0.02511 0.4875 0.87861 0.0
C75 C 0.00697 0.40237 0.80989 0.0
O76 O 0.99365 0.40889 0.83848 0.0
O77 O 0.09101 0.46535 0.80679 0.0
O78 O 0.10793 0.50492 0.8409 0.0
O79 O 0.06175 0.40362 0.89324 0.0
O80 O 0.09863 0.44232 0.88539 0.0
C81 C 0.10351 0.49353 0.81211 0.0
C82 C 0.08313 0.42372 0.90531 0.0
O83 O 0.03757 0.40663 0.80592 0.0
Mg84 Mg 0.81983 0.82653 0.10549 0.0
O85 O 0.78032 0.78745 0.11562 0.0
O86 O 0.74581 0.80811 0.15284 0.0
Mg87 Mg 0.75857 0.86242 0.16067 0.0
C88 C 0.75608 0.78444 0.13515 0.0
C89 C 0.84301 0.76386 0.06517 0.0
O90 O 0.8368 0.74871 0.09288 0.0
O91 O 0.78564 0.85411 0.07009 0.0
O92 O 0.75082 0.87488 0.10694 0.0
O93 O 0.84339 0.8098 0.15323 0.0
O94 O 0.80946 0.85133 0.14894 0.0
C95 C 0.76078 0.8717 0.07744 0.0
C96 C 0.82591 0.8322 0.16734 0.0
O97 O 0.83895 0.79468 0.06347 0.0
Mg98 Mg 0.43254 0.5737 0.37392 0.0
O99 O 0.46871 0.53254 0.3846 0.0
O100 O 0.44147 0.49088 0.4075 0.0
Mg101 Mg 0.38641 0.50311 0.40544 0.0
C102 C 0.46807 0.50451 0.39818 0.0
C103 C 0.4695 0.60803 0.3164 0.0
O104 O 0.4398 0.60633 0.30419 0.0
O105 O 0.41569 0.54688 0.32749 0.0
O106 O 0.38711 0.50554 0.34961 0.0
O107 O 0.43729 0.5868 0.42768 0.0
O108 O 0.39844 0.55525 0.40756 0.0
C109 C 0.39767 0.52145 0.32487 0.0
C110 C 0.413 0.56697 0.43268 0.0
O111 O 0.47431 0.59835 0.3456 0.0
Mg112 Mg 0.37336 0.16804 0.31992 0.0
O113 O 0.36456 0.20982 0.28399 0.0
O114 O 0.33405 0.24813 0.30832 0.0
Mg115 Mg 0.32916 0.23362 0.36274 0.0
C116 C 0.34849 0.23645 0.28312 0.0
C117 C 0.43812 0.14326 0.28355 0.0
O118 O 0.45207 0.14888 0.31198 0.0
O119 O 0.41485 0.19725 0.34504 0.0
O120 O 0.38423 0.23471 0.3708 0.0
O121 O 0.3221 0.15102 0.30678 0.0
O122 O 0.33378 0.18195 0.34942 0.0
C123 C 0.41193 0.22177 0.36437 0.0
C124 C 0.31207 0.1689 0.331 0.0
O125 O 0.40744 0.14752 0.28051 0.0
Mg126 Mg 0.07966 0.1369 0.58284 0.0
O127 O 0.04202 0.12285 0.54357 0.0
O128 O 0.00828 0.08512 0.56441 0.0
Mg129 Mg 0.01948 0.08118 0.61955 0.0
C130 C 0.01879 0.10225 0.54043 0.0
C131 C 0.09987 0.1747 0.51786 0.0
O132 O 0.09462 0.14599 0.50427 0.0
O133 O 0.04295 0.17206 0.6072 0.0
O134 O 0.00854 0.1351 0.62842 0.0
O135 O 0.10584 0.08953 0.56935 0.0
O136 O 0.07041 0.0945 0.60972 0.0
C137 C 0.01748 0.16473 0.62395 0.0
C138 C 0.08825 0.07588 0.59197 0.0
O139 O 0.09696 0.17777 0.54874 0.0
Mg140 Mg 0.12418 0.82711 0.83896 0.0
O141 O 0.14169 0.79631 0.7954 0.0
O142 O 0.16472 0.75054 0.81426 0.0
Mg143 Mg 0.15409 0.74839 0.86963 0.0
C144 C 0.15757 0.76991 0.79082 0.0
C145 C 0.07039 0.86612 0.80056 0.0
O146 O 0.05289 0.85768 0.82624 0.0
O147 O 0.07728 0.79631 0.84388 0.0
O148 O 0.09877 0.74903 0.86141 0.0
O149 O 0.17717 0.84244 0.84442 0.0
O150 O 0.15413 0.80203 0.87186 0.0
C151 C 0.07436 0.76658 0.85306 0.0
C152 C 0.18009 0.81779 0.86413 0.0
O153 O 0.10076 0.85942 0.80001 0.0
Mg154 Mg 0.41497 0.88567 0.0776 0.0
O155 O 0.45271 0.89585 0.0375 0.0
O156 O 0.49305 0.9262 0.05855 0.0
Mg157 Mg 0.48438 0.92952 0.11429 0.0
C158 C 0.47897 0.91233 0.03431 0.0
C159 C 0.38637 0.82115 0.04552 0.0
O160 O 0.39267 0.80913 0.07467 0.0
O161 O 0.44689 0.84405 0.0984 0.0
O162 O 0.48679 0.87434 0.12055 0.0
O163 O 0.39655 0.93724 0.06776 0.0
O164 O 0.43163 0.92459 0.10655 0.0
C165 C 0.47338 0.84668 0.11485 0.0
C166 C 0.41678 0.94673 0.09026 0.0
O167 O 0.3912 0.85145 0.04021 0.0
Mg168 Mg 0.87026 0.31624 0.67112 0.0
O169 O 0.85341 0.28904 0.71739 0.0
O170 O 0.82736 0.24333 0.7025 0.0
Mg171 Mg 0.83497 0.23722 0.64713 0.0
C172 C 0.83656 0.26371 0.72435 0.0
C173 C 0.92761 0.35635 0.70194 0.0
O174 O 0.94184 0.34663 0.67472 0.0
O175 O 0.91531 0.28287 0.66637 0.0
O176 O 0.89023 0.2356 0.65411 0.0
O177 O 0.81755 0.33352 0.66604 0.0
O178 O 0.8382 0.29039 0.64109 0.0
C179 C 0.91601 0.25221 0.6602 0.0
C180 C 0.81322 0.30792 0.64778 0.0
O181 O 0.89746 0.34994 0.70637 0.0
Mg182 Mg 0.91859 0.63111 0.91288 0.0
O183 O 0.95625 0.61708 0.95165 0.0
O184 O 0.99637 0.58866 0.92761 0.0
Mg185 Mg 0.98769 0.59054 0.87182 0.0
C186 C 0.98242 0.60029 0.95312 0.0
C187 C 0.88833 0.69178 0.95138 0.0
O188 O 0.89514 0.70722 0.92397 0.0
O189 O 0.95089 0.67454 0.89601 0.0
O190 O 0.99023 0.64613 0.87045 0.0
O191 O 0.89969 0.57899 0.91791 0.0
O192 O 0.93509 0.59486 0.88043 0.0
C193 C 0.97714 0.67323 0.87887 0.0
C194 C 0.91992 0.57144 0.89465 0.0
O195 O 0.8941 0.66126 0.95343 0.0
Mg196 Mg 0.6048 0.68302 0.16774 0.0
O197 O 0.62162 0.71434 0.21159 0.0
O198 O 0.65217 0.75567 0.1927 0.0
Mg199 Mg 0.64639 0.75637 0.13683 0.0
C200 C 0.64048 0.73878 0.21628 0.0
C201 C 0.57705 0.64906 0.23319 0.0
O202 O 0.60562 0.65672 0.24582 0.0
O203 O 0.5624 0.71821 0.15756 0.0
O204 O 0.59106 0.76234 0.1419 0.0
O205 O 0.65625 0.66165 0.1675 0.0
O206 O 0.64042 0.70318 0.13712 0.0
C207 C 0.56403 0.74805 0.14844 0.0
C208 C 0.66364 0.68491 0.14723 0.0
O209 O 0.5716 0.6548 0.20305 0.0
Mg210 Mg 0.56899 0.35341 0.4352 0.0
O211 O 0.53446 0.36905 0.47681 0.0
O212 O 0.49317 0.39758 0.45525 0.0
Mg213 Mg 0.49697 0.39273 0.39927 0.0
C214 C 0.50889 0.38661 0.4799 0.0
C215 C 0.60135 0.2931 0.46968 0.0
O216 O 0.5948 0.27966 0.44117 0.0
O217 O 0.53571 0.30994 0.42208 0.0
O218 O 0.4925 0.33705 0.40206 0.0
O219 O 0.58886 0.40514 0.43722 0.0
O220 O 0.55024 0.38849 0.40335 0.0
C221 C 0.50705 0.31051 0.40967 0.0
C222 C 0.56695 0.4121 0.41542 0.0
O223 O 0.59539 0.32334 0.47397 0.0
Mg224 Mg 0.32765 0.38616 0.17421 0.0
O225 O 0.28823 0.37683 0.21306 0.0
O226 O 0.31085 0.34956 0.25468 0.0
Mg227 Mg 0.3666 0.34833 0.24547 0.0
C228 C 0.28597 0.3617 0.24021 0.0
C229 C 0.26069 0.41402 0.1462 0.0
O230 O 0.24893 0.3855 0.15535 0.0
O231 O 0.34688 0.43004 0.20325 0.0
O232 O 0.3707 0.40417 0.24528 0.0
O233 O 0.31883 0.33384 0.15817 0.0
O234 O 0.3574 0.34909 0.19269 0.0
C235 C 0.36338 0.43026 0.22977 0.0
C236 C 0.34141 0.32591 0.17895 0.0
O237 O 0.29116 0.41973 0.14902 0.0
Mg238 Mg 0.82454 0.12377 0.82348 0.0
O239 O 0.78343 0.13179 0.78615 0.0
O240 O 0.79971 0.16864 0.7492 0.0
Mg241 Mg 0.85423 0.17884 0.75908 0.0
C242 C 0.77775 0.15013 0.76161 0.0
C243 C 0.76346 0.08512 0.84896 0.0
O244 O 0.74986 0.11381 0.84389 0.0
O245 O 0.85087 0.08869 0.78787 0.0
O246 O 0.86705 0.12538 0.75065 0.0
O247 O 0.80739 0.17105 0.84752 0.0
O248 O 0.84708 0.16775 0.81106 0.0
C249 C 0.8656 0.096 0.76116 0.0
C250 C 0.82819 0.18566 0.8285 0.0
O251 O 0.79402 0.08178 0.84408 0.0
Mg252 Mg 0.11965 0.55484 0.07034 0.0
O253 O 0.10853 0.51703 0.03021 0.0
O254 O 0.08654 0.5431 0.98745 0.0
Mg255 Mg 0.09132 0.5983 0.99719 0.0
C256 C 0.09493 0.51685 0.00215 0.0
C257 C 0.17455 0.51959 0.10827 0.0
O258 O 0.18593 0.54967 0.10703 0.0
O259 O 0.16726 0.56918 0.04424 0.0
O260 O 0.14698 0.5939 0.99971 0.0
O261 O 0.0657 0.55236 0.08279 0.0
O262 O 0.0879 0.58902 0.04988 0.0
C263 C 0.17099 0.58397 0.01697 0.0
C264 C 0.06207 0.57603 0.06201 0.0
O265 O 0.1461 0.51374 0.09714 0.0
Mg266 Mg 0.68034 0.88112 0.3124 0.0
O267 O 0.72292 0.86412 0.27931 0.0
O268 O 0.70271 0.83053 0.24112 0.0
Mg269 Mg 0.64675 0.83246 0.24484 0.0
C270 C 0.72684 0.8442 0.25554 0.0
C271 C 0.74555 0.91345 0.34164 0.0
O272 O 0.75883 0.88486 0.33528 0.0
O273 O 0.66532 0.9202 0.27482 0.0
O274 O 0.64764 0.88724 0.23471 0.0
O275 O 0.68445 0.83161 0.3378 0.0
O276 O 0.65074 0.84266 0.29726 0.0
C277 C 0.65381 0.91572 0.24605 0.0
C278 C 0.6631 0.8215 0.31664 0.0
O279 O 0.71521 0.91777 0.33626 0.0
Mg280 Mg 0.36347 0.41884 0.58077 0.0
O281 O 0.37532 0.45736 0.54154 0.0
O282 O 0.40751 0.43404 0.50386 0.0
Mg283 Mg 0.41007 0.37883 0.51511 0.0
C284 C 0.39321 0.45908 0.51599 0.0
C285 C 0.33287 0.48524 0.6069 0.0
O286 O 0.36233 0.4965 0.60041 0.0
O287 O 0.32315 0.39625 0.54849 0.0
O288 O 0.3549 0.37211 0.51086 0.0
O289 O 0.41413 0.42981 0.60134 0.0
O290 O 0.40308 0.3897 0.56704 0.0
C291 C 0.32677 0.37839 0.52299 0.0
C292 C 0.42449 0.40644 0.58254 0.0
O293 O 0.32676 0.45503 0.60241 0.0
Mg294 Mg 0.19742 0.63608 0.67928 0.0
O295 O 0.23466 0.64459 0.72025 0.0
O296 O 0.21034 0.6733 0.76001 0.0
Mg297 Mg 0.15566 0.67799 0.74718 0.0
C298 C 0.23567 0.66002 0.74736 0.0
C299 C 0.22934 0.57276 0.64857 0.0
O300 O 0.19931 0.56173 0.65216 0.0
O301 O 0.17331 0.59353 0.70797 0.0
O302 O 0.14801 0.62296 0.74669 0.0
O303 O 0.20901 0.68829 0.66328 0.0
O304 O 0.16772 0.67455 0.69513 0.0
C305 C 0.15436 0.59564 0.7329 0.0
C306 C 0.18491 0.69712 0.68195 0.0
O307 O 0.23571 0.60226 0.6563 0.0
Mg308 Mg 0.62359 0.94286 0.9256 0.0
O309 O 0.60917 0.98721 0.95725 0.0
O310 O 0.58027 0.96949 0.0002 0.0
Mg311 Mg 0.5837 0.91343 0.00046 0.0
C312 C 0.59181 0.99264 0.98264 0.0
C313 C 0.68432 0.97522 0.89066 0.0
O314 O 0.69826 0.94759 0.89934 0.0
O315 O 0.66704 0.93124 0.95944 0.0
O316 O 0.63928 0.91597 0.00431 0.0
O317 O 0.57159 0.94403 0.90619 0.0
O318 O 0.58824 0.91297 0.947 0.0
C319 C 0.66608 0.92174 0.98924 0.0
C320 C 0.56463 0.92378 0.9296 0.0
O321 O 0.65397 0.9793 0.89623 0.0
Mg322 Mg 0.87883 0.05831 0.42627 0.0
O323 O 0.89446 0.01772 0.46187 0.0
O324 O 0.91808 0.04113 0.50538 0.0
Mg325 Mg 0.90967 0.09653 0.5015 0.0
C326 C 0.91006 0.01584 0.4888 0.0
C327 C 0.82408 0.02236 0.38741 0.0
O328 O 0.81037 0.05111 0.39192 0.0
O329 O 0.83208 0.06731 0.45632 0.0
O330 O 0.85442 0.08858 0.50173 0.0
O331 O 0.9321 0.06056 0.4107 0.0
O332 O 0.90989 0.09257 0.44809 0.0
C333 C 0.82969 0.07897 0.48526 0.0
C334 C 0.93563 0.08255 0.43333 0.0
O335 O 0.85332 0.018 0.39705 0.0
C336 C 0.1119 0.20041 0.4633 0.0
C337 C 0.10802 0.20354 0.4974 0.0
H338 H 0.12333 0.22429 0.41801 0.0
C339 C 0.11165 0.23464 0.51178 0.0
H340 H 0.10908 0.17686 0.45141 0.0
C341 C 0.11959 0.26186 0.49262 0.0
C342 C 0.12417 0.25863 0.45863 0.0
H343 H 0.10859 0.23798 0.53794 0.0
H344 H 0.12272 0.28532 0.50461 0.0
C345 C 0.11992 0.22766 0.44413 0.0
C346 C 0.00421 0.89155 0.74106 0.0
C347 C 0.02231 0.89776 0.71237 0.0
H348 H 0.00517 0.87723 0.79141 0.0
C349 C 0.05659 0.89497 0.71337 0.0
H350 H 0.97778 0.8937 0.74125 0.0
C351 C 0.07235 0.8856 0.74227 0.0
C352 C 0.05416 0.87891 0.77081 0.0
H353 H 0.07127 0.89979 0.69177 0.0
H354 H 0.09875 0.88313 0.74208 0.0
C355 C 0.01995 0.88229 0.76993 0.0
C356 C 0.36631 0.74428 0.99734 0.0
C357 C 0.36155 0.75677 0.96561 0.0
H358 H 0.37756 0.75478 0.04746 0.0
C359 C 0.36419 0.79071 0.96057 0.0
H360 H 0.3643 0.71827 0.00211 0.0
C361 C 0.37167 0.81167 0.98662 0.0
C362 C 0.37666 0.79917 0.01831 0.0
H363 H 0.36053 0.80116 0.93648 0.0
H364 H 0.37381 0.83767 0.98181 0.0
C365 C 0.37377 0.76525 0.02339 0.0
C366 C 0.4624 0.12343 0.19604 0.0
C367 C 0.49631 0.11849 0.19891 0.0
H368 H 0.41744 0.13481 0.22043 0.0
C369 C 0.51092 0.1214 0.22996 0.0
H370 H 0.45033 0.12123 0.17253 0.0
C371 C 0.49202 0.12916 0.25751 0.0
C372 C 0.45809 0.13406 0.25463 0.0
H373 H 0.53698 0.11766 0.23304 0.0
H374 H 0.50405 0.13136 0.28105 0.0
C375 C 0.4435 0.13107 0.22358 0.0
C376 C 0.62705 0.26698 0.55495 0.0
C377 C 0.63126 0.23306 0.55089 0.0
H378 H 0.61461 0.3126 0.53247 0.0
C379 C 0.62613 0.21919 0.51977 0.0
H380 H 0.63096 0.27847 0.57855 0.0
C381 C 0.61695 0.23878 0.4933 0.0
C382 C 0.61266 0.27268 0.49736 0.0
H383 H 0.62931 0.19317 0.51575 0.0
H384 H 0.61302 0.22726 0.46971 0.0
C385 C 0.61784 0.28657 0.52847 0.0
C386 C 0.9813 0.3749 0.72497 0.0
C387 C 0.94741 0.37037 0.7289 0.0
H388 H 0.02667 0.3883 0.74739 0.0
C389 C 0.93313 0.37711 0.75956 0.0
H390 H 0.99312 0.36987 0.70172 0.0
C391 C 0.95243 0.38754 0.78586 0.0
C392 C 0.98642 0.39145 0.78207 0.0
H393 H 0.90709 0.37378 0.76346 0.0
H394 H 0.9407 0.39227 0.80921 0.0
C395 C 0.00059 0.38532 0.75124 0.0
C396 C 0.86024 0.76147 0.00615 0.0
C397 C 0.8542 0.74529 0.03598 0.0
H398 H 0.87553 0.75734 0.95613 0.0
C399 C 0.85882 0.71123 0.03753 0.0
H400 H 0.85684 0.78768 0.00404 0.0
C401 C 0.86951 0.69379 0.00998 0.0
C402 C 0.87579 0.71003 0.98023 0.0
H403 H 0.85432 0.69797 0.06007 0.0
H404 H 0.87306 0.66761 0.01212 0.0
C405 C 0.87089 0.74404 0.97862 0.0
C406 C 0.55516 0.63106 0.28795 0.0
C407 C 0.55002 0.63729 0.25446 0.0
H408 H 0.53379 0.61704 0.33389 0.0
C409 C 0.51824 0.63386 0.24171 0.0
H410 H 0.57931 0.63359 0.29859 0.0
C411 C 0.49218 0.62476 0.26195 0.0
C412 C 0.49722 0.61865 0.29544 0.0
H413 H 0.51331 0.63859 0.21608 0.0
H414 H 0.46805 0.62241 0.25122 0.0
C415 C 0.52905 0.62173 0.30821 0.0
C416 C 0.25044 0.47279 0.13274 0.0
C417 C 0.23845 0.44066 0.13591 0.0
H418 H 0.23964 0.5228 0.12213 0.0
C419 C 0.20497 0.43472 0.13059 0.0
H420 H 0.27605 0.47831 0.1369 0.0
C421 C 0.18399 0.46039 0.122 0.0
C422 C 0.19605 0.49251 0.11892 0.0
H423 H 0.19496 0.41026 0.13299 0.0
H424 H 0.15836 0.45504 0.11774 0.0
C425 C 0.22947 0.49841 0.1245 0.0
C426 C 0.68992 0.03335 0.87196 0.0
C427 C 0.70435 0.00274 0.87812 0.0
H428 H 0.69724 0.08334 0.85816 0.0
C429 C 0.73836 0.9993 0.87408 0.0
H430 H 0.6638 0.03689 0.8749 0.0
C431 C 0.75758 0.02602 0.86458 0.0
C432 C 0.7432 0.05676 0.85896 0.0
H433 H 0.75026 0.97607 0.87869 0.0
H434 H 0.78374 0.0226 0.86188 0.0
C435 C 0.70913 0.06006 0.86251 0.0
C436 C 0.7994 0.93696 0.35996 0.0
C437 C 0.76593 0.94118 0.35321 0.0
H438 H 0.84414 0.9593 0.37588 0.0
C439 C 0.75211 0.97249 0.35688 0.0
H440 H 0.81084 0.9132 0.35724 0.0
C441 C 0.7712 0.99891 0.36727 0.0
C442 C 0.80457 0.99466 0.37439 0.0
H443 H 0.72645 0.9767 0.3517 0.0
H444 H 0.75963 0.02259 0.37008 0.0
C445 C 0.81852 0.96342 0.37051 0.0
C446 C 0.2493 0.51726 0.6317 0.0
C447 C 0.25578 0.55059 0.63737 0.0
H448 H 0.26846 0.47052 0.61791 0.0
C449 C 0.28793 0.56225 0.6331 0.0
H450 H 0.22485 0.50742 0.63487 0.0
C451 C 0.31301 0.54104 0.62336 0.0
C452 C 0.30652 0.50768 0.61781 0.0
H453 H 0.29379 0.58778 0.63733 0.0
H454 H 0.33748 0.55082 0.62022 0.0
C455 C 0.27437 0.49605 0.62209 0.0
C456 C 0.30238 0.33556 0.48753 0.0
C457 C 0.2982 0.36452 0.50572 0.0
H458 H 0.28416 0.30509 0.44901 0.0
C459 C 0.26851 0.38169 0.50328 0.0
H460 H 0.32481 0.32153 0.48929 0.0
C461 C 0.24495 0.37189 0.48025 0.0
C462 C 0.2509 0.34476 0.45991 0.0
H463 H 0.26472 0.40407 0.51703 0.0
H464 H 0.22361 0.38711 0.47635 0.0
C465 C 0.27901 0.32587 0.46474 0.0
C466 C 0.89038 0.01332 0.7255 0.0
C467 C 0.90614 0.02339 0.69653 0.0
H468 H 0.86456 0.02855 0.76892 0.0
C469 C 0.91099 0.05685 0.69085 0.0
H470 H 0.8863 0.98757 0.7303 0.0
C471 C 0.89891 0.08 0.71265 0.0
C472 C 0.88123 0.07038 0.74067 0.0
H473 H 0.92343 0.06526 0.66891 0.0
H474 H 0.90266 0.10559 0.7068 0.0
C475 C 0.87782 0.03674 0.74741 0.0
C476 C 0.24707 0.62769 0.99047 0.0
C477 C 0.25363 0.6107 0.96124 0.0
H478 H 0.21492 0.63189 0.03205 0.0
C479 C 0.23737 0.58098 0.95504 0.0
H480 H 0.25915 0.65076 0.99563 0.0
C481 C 0.21256 0.5702 0.97582 0.0
C482 C 0.2037 0.58885 0.00318 0.0
H483 H 0.24219 0.5673 0.93278 0.0
H484 H 0.19844 0.54875 0.96899 0.0
C485 C 0.22193 0.61689 0.01129 0.0
C486 C 0.62166 0.99668 0.2138 0.0
C487 C 0.62437 0.99136 0.17979 0.0
H488 H 0.62951 0.97679 0.26204 0.0
C489 C 0.63993 0.96272 0.16862 0.0
H490 H 0.61007 0.0186 0.22318 0.0
C491 C 0.65084 0.93923 0.19053 0.0
C492 C 0.64682 0.94364 0.22434 0.0
H493 H 0.64308 0.95783 0.1427 0.0
H494 H 0.66175 0.91704 0.18087 0.0
C495 C 0.63299 0.97295 0.23599 0.0
C496 C 0.76986 0.07135 0.55309 0.0
C497 C 0.75057 0.09938 0.5482 0.0
H498 H 0.80987 0.04236 0.53578 0.0
C499 C 0.75274 0.11619 0.51825 0.0
H500 H 0.76838 0.05773 0.57583 0.0
C501 C 0.77656 0.10713 0.49513 0.0
C502 C 0.79791 0.08103 0.50176 0.0
H503 H 0.7382 0.13793 0.51401 0.0
H504 H 0.78021 0.12223 0.47362 0.0
C505 C 0.79336 0.06232 0.5301 0.0
C506 C 0.10876 0.57068 0.76425 0.0
C507 C 0.13821 0.56639 0.74686 0.0
H508 H 0.07445 0.55023 0.79814 0.0
C509 C 0.1529 0.53528 0.7463 0.0
H510 H 0.09647 0.59418 0.76468 0.0
C511 C 0.13982 0.50979 0.76541 0.0
C512 C 0.1119 0.51531 0.78485 0.0
H513 H 0.17556 0.53134 0.73304 0.0
H514 H 0.15278 0.48672 0.76689 0.0
C515 C 0.09588 0.54548 0.78316 0.0
C516 C 0.71903 0.89197 0.99685 0.0
C517 C 0.69629 0.91546 0.00762 0.0
H518 H 0.75774 0.85916 0.01085 0.0
C519 C 0.69844 0.92766 0.03959 0.0
H520 H 0.71743 0.88195 0.97232 0.0
C521 C 0.7211 0.91478 0.06139 0.0
C522 C 0.74193 0.88906 0.05185 0.0
H523 H 0.68111 0.94575 0.04838 0.0
H524 H 0.721 0.92386 0.08635 0.0
C525 C 0.74184 0.87878 0.01893 0.0
C526 C 0.34885 0.48134 0.25898 0.0
C527 C 0.37296 0.46132 0.24497 0.0
H528 H 0.33826 0.517 0.29611 0.0
C529 C 0.40604 0.4668 0.25255 0.0
H530 H 0.32318 0.47702 0.25386 0.0
C531 C 0.41472 0.49017 0.276 0.0
C532 C 0.39029 0.50763 0.29262 0.0
H533 H 0.4249 0.4512 0.24226 0.0
H534 H 0.44008 0.49207 0.28356 0.0
C535 C 0.35746 0.50413 0.28305 0.0
C536 C 0.46046 0.2745 0.42182 0.0
C537 C 0.48898 0.28009 0.40366 0.0
H538 H 0.41397 0.25075 0.42378 0.0
C539 C 0.49477 0.2618 0.37503 0.0
H540 H 0.45541 0.28869 0.44372 0.0
C541 C 0.4708 0.24011 0.36326 0.0
C542 C 0.44082 0.237 0.37992 0.0
H543 H 0.51644 0.26636 0.36037 0.0
H544 H 0.47455 0.22807 0.33988 0.0
C545 C 0.43667 0.25304 0.41016 0.0
C546 C 0.99632 0.22278 0.62606 0.0
C547 C 0.99645 0.19056 0.63824 0.0
H548 H 0.97034 0.26856 0.62426 0.0
C549 C 0.97365 0.18182 0.6626 0.0
H550 H 0.01372 0.23026 0.60744 0.0
C551 C 0.94922 0.20351 0.67209 0.0
C552 C 0.94721 0.23457 0.65779 0.0
H553 H 0.97346 0.15747 0.67311 0.0
H554 H 0.93055 0.19521 0.6891 0.0
C555 C 0.97174 0.24475 0.63584 0.0
C556 C 0.99889 0.72974 0.88987 0.0
C557 C 0.99435 0.70325 0.86839 0.0
H558 H 0.02851 0.77181 0.9013 0.0
C559 C 0.01142 0.70278 0.83843 0.0
H560 H 0.98617 0.73052 0.91318 0.0
C561 C 0.03518 0.72629 0.83161 0.0
C562 C 0.04214 0.75082 0.8545 0.0
H563 H 0.00815 0.68274 0.8213 0.0
H564 H 0.05007 0.72365 0.80974 0.0
C565 C 0.02294 0.75337 0.88302 0.0
C566 C 0.51179 0.76251 0.12022 0.0
C567 C 0.53435 0.76794 0.14562 0.0
H568 H 0.47402 0.78366 0.09027 0.0
C569 C 0.53274 0.79691 0.16383 0.0
H570 H 0.51308 0.74038 0.1056 0.0
C571 C 0.5108 0.82137 0.15517 0.0
C572 C 0.49026 0.81751 0.12783 0.0
H573 H 0.55006 0.80156 0.1834 0.0
H574 H 0.51139 0.84419 0.16874 0.0
C575 C 0.48966 0.78725 0.11138 0.0
C576 C 0.20695 0.38045 0.2841 0.0
C577 C 0.19607 0.34885 0.29249 0.0
H578 H 0.24419 0.40925 0.26048 0.0
C579 C 0.21191 0.32165 0.27872 0.0
H580 H 0.19552 0.4018 0.29497 0.0
C581 C 0.24081 0.32588 0.26071 0.0
C582 C 0.25332 0.3574 0.25496 0.0
H583 H 0.20434 0.29706 0.28521 0.0
H584 H 0.25417 0.3045 0.25267 0.0
C585 C 0.23514 0.38471 0.26502 0.0
C586 C 0.94942 0.97589 0.51274 0.0
C587 C 0.9175 0.98339 0.50253 0.0
H588 H 0.97913 0.9463 0.5441 0.0
C589 C 0.89191 0.9618 0.51016 0.0
H590 H 0.9696 0.99202 0.50666 0.0
C591 C 0.89727 0.93606 0.53207 0.0
C592 C 0.92833 0.93147 0.54613 0.0
H593 H 0.86713 0.96703 0.5023 0.0
H594 H 0.87627 0.92281 0.54151 0.0
C595 C 0.95496 0.94933 0.53366 0.0
C596 C 0.28716 0.63544 0.76918 0.0
C597 C 0.26729 0.663 0.76453 0.0
H598 H 0.326 0.61442 0.79733 0.0
C599 C 0.27689 0.69306 0.77824 0.0
H600 H 0.28056 0.6121 0.75839 0.0
C601 C 0.30383 0.69477 0.79934 0.0
C602 C 0.32073 0.66614 0.8078 0.0
H603 H 0.26252 0.71483 0.77396 0.0
H604 H 0.30869 0.71751 0.81215 0.0
C605 C 0.31355 0.63694 0.79093 0.0
C606 C 0.55306 0.0646 0.02505 0.0
C607 C 0.58133 0.0818 0.03438 0.0
H608 H 0.53466 0.02105 0.00188 0.0
C609 C 0.61081 0.07528 0.01771 0.0
H610 H 0.52997 0.06924 0.03732 0.0
C611 C 0.61347 0.04778 0.99739 0.0
C612 C 0.58663 0.02667 0.99364 0.0
H613 H 0.633 0.08821 0.02445 0.0
H614 H 0.63736 0.04095 0.98805 0.0
C615 C 0.55588 0.03656 0.00543 0.0
C616 C 0.70038 0.11846 0.72251 0.0
C617 C 0.68875 0.14682 0.70686 0.0
H618 H 0.73805 0.09731 0.75228 0.0
C619 C 0.70257 0.17718 0.71509 0.0
H620 H 0.69031 0.09469 0.71629 0.0
C621 C 0.73078 0.17846 0.7345 0.0
C622 C 0.7448 0.1496 0.74675 0.0
H623 H 0.69421 0.19935 0.70322 0.0
H624 H 0.74264 0.20177 0.73848 0.0
C625 C 0.72807 0.11987 0.74258 0.0
C626 C 0.11653 0.46534 0.97784 0.0
C627 C 0.08972 0.48537 0.98535 0.0
H628 H 0.13501 0.42788 0.94607 0.0
C629 C 0.05865 0.47707 0.97323 0.0
H630 H 0.14068 0.47123 0.98713 0.0
C631 C 0.05508 0.45109 0.95111 0.0
C632 C 0.08282 0.4343 0.93971 0.0
H633 H 0.03757 0.49199 0.97918 0.0
H634 H 0.03149 0.44726 0.93961 0.0
C635 C 0.11317 0.44016 0.95483 0.0
C636 C 0.7683 0.80674 0.23059 0.0
C637 C 0.76016 0.83782 0.24291 0.0
H638 H 0.79907 0.77953 0.19785 0.0
C639 C 0.78247 0.86364 0.23893 0.0
H640 H 0.75199 0.78622 0.23453 0.0
C641 C 0.80956 0.85976 0.21825 0.0
C642 C 0.81464 0.83003 0.20151 0.0
H643 H 0.77707 0.88772 0.24868 0.0
H644 H 0.82372 0.88126 0.21175 0.0
C645 C 0.79575 0.80271 0.21036 0.0
C646 C 0.43061 0.50176 0.49306 0.0
C647 C 0.39871 0.49136 0.5007 0.0
H648 H 0.46048 0.53647 0.46728 0.0
C649 C 0.3722 0.51145 0.49238 0.0
H650 H 0.45146 0.48705 0.49989 0.0
C651 C 0.37731 0.53951 0.47334 0.0
C652 C 0.40909 0.54842 0.46333 0.0
H653 H 0.34739 0.50412 0.49837 0.0
H654 H 0.35625 0.55265 0.46409 0.0
C655 C 0.43582 0.53045 0.47506 0.0
C656 C 0.24698 0.2191 0.36757 0.0
C657 C 0.24326 0.24198 0.34229 0.0
H658 H 0.27168 0.17563 0.38311 0.0
C659 C 0.25378 0.23383 0.31057 0.0
H660 H 0.23866 0.22473 0.39217 0.0
C661 C 0.27142 0.20496 0.30501 0.0
C662 C 0.27974 0.1847 0.33147 0.0
H663 H 0.25018 0.25085 0.2906 0.0
H664 H 0.28233 0.20102 0.28112 0.0
C665 C 0.26534 0.19071 0.36223 0.0
C666 C 0.04524 0.00483 0.62483 0.0
C667 C 0.02466 0.99878 0.59804 0.0
H668 H 0.08461 0.03413 0.64321 0.0
C669 C 0.03447 0.00938 0.56679 0.0
H670 H 0.03856 0.99642 0.64912 0.0
C671 C 0.06152 0.0302 0.56319 0.0
C672 C 0.07834 0.04124 0.59104 0.0
H673 H 0.01958 0.00374 0.54562 0.0
H674 H 0.06588 0.04148 0.53956 0.0
C675 C 0.07199 0.02598 0.62132 0.0
C676 C 0.23714 0.75825 0.90194 0.0
C677 C 0.24963 0.74338 0.87359 0.0
H678 H 0.20508 0.79514 0.92109 0.0
C679 C 0.24553 0.75893 0.84323 0.0
H680 H 0.24038 0.74684 0.92567 0.0
C681 C 0.22693 0.78757 0.84083 0.0
C682 C 0.21111 0.80021 0.86862 0.0
H683 H 0.25559 0.74826 0.82118 0.0
H684 H 0.22193 0.79757 0.81678 0.0
C685 C 0.21755 0.7862 0.8994 0.0
C686 C 0.47221 0.01009 0.12219 0.0
C687 C 0.49147 0.01491 0.09413 0.0
H688 H 0.43094 0.98489 0.1426 0.0
C689 C 0.47874 0.00595 0.06344 0.0
H690 H 0.48115 0.01737 0.1461 0.0
C691 C 0.44924 0.98857 0.06125 0.0
C692 C 0.43276 0.97905 0.08989 0.0
H693 H 0.49262 0.01064 0.04138 0.0
H694 H 0.44193 0.9788 0.03768 0.0
C695 C 0.4431 0.99209 0.1201 0.0
C696 C 0.75052 0.2477 0.66935 0.0
C697 C 0.74653 0.23239 0.6388 0.0
H698 H 0.77268 0.28716 0.69593 0.0
C699 C 0.75651 0.24888 0.61039 0.0
H700 H 0.74232 0.23579 0.69151 0.0
C701 C 0.77421 0.27815 0.61293 0.0
C702 C 0.78141 0.29162 0.64385 0.0
H703 H 0.75325 0.23771 0.58652 0.0
H704 H 0.78541 0.28822 0.59105 0.0
C705 C 0.76718 0.27756 0.6718 0.0
C706 C 0.98035 0.50802 0.91497 0.0
C707 C 0.99177 0.50057 0.88336 0.0
H708 H 0.94546 0.53481 0.94371 0.0
C709 C 0.97237 0.50867 0.85626 0.0
H710 H 0.99454 0.50115 0.93622 0.0
C711 C 0.94445 0.52806 0.86049 0.0
C712 C 0.93524 0.53896 0.89191 0.0
H713 H 0.98048 0.50281 0.83165 0.0
H714 H 0.93227 0.5376 0.83896 0.0
C715 C 0.95185 0.52659 0.91927 0.0
C716 C 0.71149 0.7121 0.17187 0.0
C717 C 0.69684 0.69849 0.14396 0.0
H718 H 0.74091 0.75116 0.19083 0.0
C719 C 0.70688 0.70949 0.11284 0.0
H720 H 0.70382 0.70445 0.19612 0.0
C721 C 0.72845 0.736 0.10981 0.0
C722 C 0.73947 0.75242 0.13789 0.0
H723 H 0.69543 0.69978 0.09095 0.0
H724 H 0.73405 0.74545 0.08564 0.0
C725 C 0.73213 0.73932 0.16887 0.0
C726 C 0.50956 0.47899 0.43489 0.0
C727 C 0.49919 0.48721 0.40319 0.0
H728 H 0.54244 0.45023 0.46388 0.0
C729 C 0.51771 0.47696 0.37614 0.0
H730 H 0.49584 0.4871 0.45608 0.0
C731 C 0.54399 0.45552 0.38055 0.0
C732 C 0.55261 0.44486 0.41211 0.0
H733 H 0.51023 0.48332 0.3515 0.0
H734 H 0.55555 0.44482 0.35915 0.0
C735 C 0.53661 0.45848 0.43936 0.0
C736 C 0.31533 0.26414 0.23991 0.0
C737 C 0.34592 0.25383 0.2516 0.0
H738 H 0.28959 0.2935 0.20485 0.0
C739 C 0.37413 0.26103 0.23335 0.0
H740 H 0.29321 0.25806 0.25311 0.0
C741 C 0.37213 0.28151 0.20599 0.0
C742 C 0.34178 0.29422 0.19595 0.0
H743 H 0.39795 0.25291 0.24166 0.0
H744 H 0.39458 0.28973 0.19442 0.0
C745 C 0.31319 0.28371 0.21187 0.0
C746 C 0.79606 0.22561 0.7976 0.0
C747 C 0.82383 0.2194 0.81682 0.0
H748 H 0.77883 0.24429 0.75156 0.0
C749 C 0.85259 0.23734 0.81052 0.0
H750 H 0.7735 0.21231 0.80202 0.0
C751 C 0.85564 0.25551 0.78164 0.0
C752 C 0.82988 0.25586 0.75899 0.0
H753 H 0.87435 0.23304 0.82504 0.0
H754 H 0.87934 0.26563 0.77522 0.0
C755 C 0.7993 0.24319 0.76831 0.0
C756 C 0.00312 0.56113 0.99515 0.0
C757 C 0.99656 0.59346 0.98555 0.0
H758 H 0.0271 0.52988 0.02974 0.0
C759 C 0.00478 0.61926 0.00668 0.0
H760 H 0.99635 0.54085 0.97953 0.0
C761 C 0.02276 0.61304 0.03513 0.0
C762 C 0.03177 0.58087 0.04334 0.0
H763 H -0.00042 0.64436 -0.0001 0.0
H764 H 0.03213 0.63357 0.04913 0.0
C765 C 0.02002 0.55482 0.02425 0.0
C766 C 0.68653 0.77466 0.28756 0.0
C767 C 0.66034 0.78726 0.30596 0.0
H768 H 0.70042 0.75057 0.24287 0.0
C769 C 0.62858 0.7755 0.29965 0.0
H770 H 0.71124 0.78328 0.29193 0.0
C771 C 0.62241 0.75632 0.2719 0.0
C772 C 0.64794 0.74912 0.25006 0.0
H773 H 0.60792 0.78503 0.31336 0.0
H774 H 0.59731 0.75049 0.26559 0.0
C775 C 0.68028 0.75651 0.25911 0.0
C776 C 0.4714 0.37417 0.56315 0.0
C777 C 0.45784 0.4053 0.56899 0.0
H778 H 0.49845 0.34379 0.52981 0.0
C779 C 0.46813 0.43169 0.54953 0.0
H780 H 0.46355 0.35334 0.57762 0.0
C781 C 0.48677 0.4259 0.52126 0.0
C782 C 0.49645 0.39396 0.51304 0.0
H783 H 0.45794 0.45586 0.5534 0.0
H784 H 0.49181 0.44595 0.50469 0.0
C785 C 0.49081 0.36856 0.53543 0.0
C786 C 0.15187 0.74262 0.70302 0.0
C787 C 0.18323 0.72921 0.6982 0.0
H788 H 0.11905 0.76614 0.73676 0.0
C789 C 0.20801 0.7368 0.72076 0.0
H790 H 0.13224 0.73685 0.68613 0.0
C791 C 0.20001 0.75189 0.75056 0.0
C792 C 0.16758 0.76109 0.75723 0.0
H793 H 0.23235 0.72673 0.71769 0.0
H794 H 0.21864 0.75441 0.76921 0.0
C795 C 0.14413 0.75871 0.73231 0.0
C796 C 0.50198 0.88759 0.98341 0.0
C797 C 0.4935 0.91557 0.00141 0.0
H798 H 0.53131 0.8685 0.94426 0.0
C799 C 0.50095 0.9466 0.98864 0.0
H800 H 0.49607 0.86342 0.99262 0.0
C801 C 0.51948 0.94957 0.95991 0.0
C802 C 0.53201 0.9215 0.94457 0.0
H803 H 0.49392 0.96851 0.00172 0.0
H804 H 0.52752 0.9737 0.95234 0.0
C805 C 0.52149 0.89053 0.95536 0.0
C806 C 0.98117 0.06109 0.46649 0.0
C807 C 0.96671 0.08785 0.45065 0.0
H808 H 0.00795 0.04479 0.50844 0.0
C809 C 0.97415 0.11969 0.46153 0.0
H810 H 0.9754 0.0363 0.45894 0.0
C811 C 0.99314 0.12455 0.48963 0.0
C812 C 0.00401 0.09756 0.5078 0.0
H813 H 0.96275 0.1407 0.45007 0.0
H814 H 0.99697 0.14923 0.49862 0.0
C815 C 0.99913 0.0659 0.49526 0.0
loop_
_geom_bond_atom_site_label_1
_geom_bond_atom_site_label_2
_geom_bond_distance
_geom_bond_site_symmetry_2
_ccdc_geom_bond_type
Mg0 O1 2.028 . S
Mg0 O7 1.986 . S
Mg0 O9 2.114 . S
Mg0 O10 2.251 . S
Mg0 O13 2.010 . S
O1 Mg0 2.028 . S
O1 C4 1.250 . S
O2 Mg3 2.028 . S
O2 C4 1.248 . S
Mg3 O2 2.028 . S
Mg3 O8 2.032 . S
Mg3 O10 2.079 . S
C4 O1 1.250 . S
C4 O2 1.248 . S
C5 O6 1.264 . S
C5 O13 1.249 . S
O6 C5 1.264 . S
O7 Mg0 1.986 . S
O7 C11 1.246 . S
O8 Mg3 2.032 . S
O8 C11 1.259 . S
O9 Mg0 2.114 . S
O9 C12 1.252 . S
O10 Mg0 2.251 . S
O10 Mg3 2.079 . S
O10 C12 1.273 . S
C11 O7 1.246 . S
C11 O8 1.259 . S
C12 O9 1.252 . S
C12 O10 1.273 . S
O13 Mg0 2.010 . S
O13 C5 1.249 . S
Mg14 O15 2.028 . S
Mg14 O21 1.986 . S
Mg14 O23 2.114 . S
Mg14 O24 2.251 . S
Mg14 O27 2.010 . S
O15 Mg14 2.028 . S
O15 C18 1.250 . S
O16 Mg17 2.028 . S
O16 C18 1.248 1_545 S
Mg17 O16 2.028 . S
Mg17 O22 2.032 . S
Mg17 O24 2.079 1_545 S
C18 O15 1.250 . S
C18 O16 1.248 1_565 S
C19 O20 1.264 . S
C19 O27 1.249 . S
O20 C19 1.264 . S
O21 Mg14 1.986 . S
O21 C25 1.246 . S
O22 Mg17 2.032 . S
O22 C25 1.259 1_545 S
O23 Mg14 2.114 . S
O23 C26 1.252 . S
O24 Mg14 2.251 . S
O24 Mg17 2.079 1_565 S
O24 C26 1.273 . S
C25 O21 1.246 . S
C25 O22 1.259 1_565 S
C26 O23 1.252 . S
C26 O24 1.273 . S
O27 Mg14 2.010 . S
O27 C19 1.249 . S
Mg28 O29 2.028 . S
Mg28 O35 1.986 . S
Mg28 O37 2.114 . S
Mg28 O38 2.251 . S
Mg28 O41 2.010 . S
O29 Mg28 2.028 . S
O29 C32 1.250 . S
O30 Mg31 2.028 . S
O30 C32 1.248 . S
Mg31 O30 2.028 . S
Mg31 O36 2.032 . S
Mg31 O38 2.079 . S
C32 O29 1.250 . S
C32 O30 1.248 . S
C33 O34 1.264 . S
C33 O41 1.249 . S
O34 C33 1.264 . S
O35 Mg28 1.986 . S
O35 C39 1.246 . S
O36 Mg31 2.032 . S
O36 C39 1.259 . S
O37 Mg28 2.114 . S
O37 C40 1.252 . S
O38 Mg28 2.251 . S
O38 Mg31 2.079 . S
O38 C40 1.273 . S
C39 O35 1.246 . S
C39 O36 1.259 . S
C40 O37 1.252 . S
C40 O38 1.273 . S
O41 Mg28 2.010 . S
O41 C33 1.249 . S
Mg42 O43 2.028 . S
Mg42 O49 1.986 . S
Mg42 O51 2.114 . S
Mg42 O52 2.251 . S
Mg42 O55 2.010 . S
O43 Mg42 2.028 . S
O43 C46 1.250 . S
O44 Mg45 2.028 . S
O44 C46 1.248 1_565 S
Mg45 O44 2.028 . S
Mg45 O50 2.032 . S
Mg45 O52 2.079 1_565 S
C46 O43 1.250 . S
C46 O44 1.248 1_545 S
C47 O48 1.264 . S
C47 O55 1.249 . S
O48 C47 1.264 . S
O49 Mg42 1.986 . S
O49 C53 1.246 . S
O50 Mg45 2.032 . S
O50 C53 1.259 1_565 S
O51 Mg42 2.114 . S
O51 C54 1.252 . S
O52 Mg42 2.251 . S
O52 Mg45 2.079 1_545 S
O52 C54 1.273 . S
C53 O49 1.246 . S
C53 O50 1.259 1_545 S
C54 O51 1.252 . S
C54 O52 1.273 . S
O55 Mg42 2.010 . S
O55 C47 1.249 . S
Mg56 O57 2.028 . S
Mg56 O63 1.986 . S
Mg56 O65 2.114 . S
Mg56 O66 2.251 . S
Mg56 O69 2.010 . S
O57 Mg56 2.028 . S
O57 C60 1.250 . S
O58 Mg59 2.028 . S
O58 C60 1.248 . S
Mg59 O58 2.028 . S
Mg59 O64 2.032 . S
Mg59 O66 2.079 . S
C60 O57 1.250 . S
C60 O58 1.248 . S
C61 O62 1.264 . S
C61 O69 1.249 . S
O62 C61 1.264 . S
O63 Mg56 1.986 . S
O63 C67 1.246 . S
O64 Mg59 2.032 . S
O64 C67 1.259 . S
O65 Mg56 2.114 . S
O65 C68 1.252 . S
O66 Mg56 2.251 . S
O66 Mg59 2.079 . S
O66 C68 1.273 . S
C67 O63 1.246 . S
C67 O64 1.259 . S
C68 O65 1.252 . S
C68 O66 1.273 . S
O69 Mg56 2.010 . S
O69 C61 1.249 . S
Mg70 O71 2.028 . S
Mg70 O77 1.986 . S
Mg70 O79 2.114 . S
Mg70 O80 2.251 . S
Mg70 O83 2.010 . S
O71 Mg70 2.028 . S
O71 C74 1.250 . S
O72 Mg73 2.028 . S
O72 C74 1.248 . S
Mg73 O72 2.028 . S
Mg73 O78 2.032 . S
Mg73 O80 2.079 . S
C74 O71 1.250 . S
C74 O72 1.248 . S
C75 O76 1.264 . S
C75 O83 1.249 . S
O76 C75 1.264 . S
O77 Mg70 1.986 . S
O77 C81 1.246 . S
O78 Mg73 2.032 . S
O78 C81 1.259 . S
O79 Mg70 2.114 . S
O79 C82 1.252 . S
O80 Mg70 2.251 . S
O80 Mg73 2.079 . S
O80 C82 1.273 . S
C81 O77 1.246 . S
C81 O78 1.259 . S
C82 O79 1.252 . S
C82 O80 1.273 . S
O83 Mg70 2.010 . S
O83 C75 1.249 . S
Mg84 O85 2.028 . S
Mg84 O91 1.986 . S
Mg84 O93 2.114 . S
Mg84 O94 2.251 . S
Mg84 O97 2.010 . S
O85 Mg84 2.028 . S
O85 C88 1.250 . S
O86 Mg87 2.028 . S
O86 C88 1.248 . S
Mg87 O86 2.028 . S
Mg87 O92 2.032 . S
Mg87 O94 2.079 . S
C88 O85 1.250 . S
C88 O86 1.248 . S
C89 O90 1.264 . S
C89 O97 1.249 . S
O90 C89 1.264 . S
O91 Mg84 1.986 . S
O91 C95 1.246 . S
O92 Mg87 2.032 . S
O92 C95 1.259 . S
O93 Mg84 2.114 . S
O93 C96 1.252 . S
O94 Mg84 2.251 . S
O94 Mg87 2.079 . S
O94 C96 1.273 . S
C95 O91 1.246 . S
C95 O92 1.259 . S
C96 O93 1.252 . S
C96 O94 1.273 . S
O97 Mg84 2.010 . S
O97 C89 1.249 . S
Mg98 O99 2.028 . S
Mg98 O105 1.986 . S
Mg98 O107 2.114 . S
Mg98 O108 2.251 . S
Mg98 O111 2.010 . S
O99 Mg98 2.028 . S
O99 C102 1.250 . S
O100 Mg101 2.028 . S
O100 C102 1.248 . S
Mg101 O100 2.028 . S
Mg101 O106 2.032 . S
Mg101 O108 2.079 . S
C102 O99 1.250 . S
C102 O100 1.248 . S
C103 O104 1.264 . S
C103 O111 1.249 . S
O104 C103 1.264 . S
O105 Mg98 1.986 . S
O105 C109 1.246 . S
O106 Mg101 2.032 . S
O106 C109 1.259 . S
O107 Mg98 2.114 . S
O107 C110 1.252 . S
O108 Mg98 2.251 . S
O108 Mg101 2.079 . S
O108 C110 1.273 . S
C109 O105 1.246 . S
C109 O106 1.259 . S
C110 O107 1.252 . S
C110 O108 1.273 . S
O111 Mg98 2.010 . S
O111 C103 1.249 . S
Mg112 O113 2.028 . S
Mg112 O119 1.986 . S
Mg112 O121 2.114 . S
Mg112 O122 2.251 . S
Mg112 O125 2.010 . S
O113 Mg112 2.028 . S
O113 C116 1.250 . S
O114 Mg115 2.028 . S
O114 C116 1.248 . S
Mg115 O114 2.028 . S
Mg115 O120 2.032 . S
Mg115 O122 2.079 . S
C116 O113 1.250 . S
C116 O114 1.248 . S
C117 O118 1.264 . S
C117 O125 1.249 . S
O118 C117 1.264 . S
O119 Mg112 1.986 . S
O119 C123 1.246 . S
O120 Mg115 2.032 . S
O120 C123 1.259 . S
O121 Mg112 2.114 . S
O121 C124 1.252 . S
O122 Mg112 2.251 . S
O122 Mg115 2.079 . S
O122 C124 1.273 . S
C123 O119 1.246 . S
C123 O120 1.259 . S
C124 O121 1.252 . S
C124 O122 1.273 . S
O125 Mg112 2.010 . S
O125 C117 1.249 . S
Mg126 O127 2.028 . S
Mg126 O133 1.986 . S
Mg126 O135 2.114 . S
Mg126 O136 2.251 . S
Mg126 O139 2.010 . S
O127 Mg126 2.028 . S
O127 C130 1.250 . S
O128 Mg129 2.028 . S
O128 C130 1.248 1_655 S
Mg129 O128 2.028 . S
Mg129 O134 2.032 . S
Mg129 O136 2.079 1_655 S
C130 O127 1.250 . S
C130 O128 1.248 1_455 S
C131 O132 1.264 . S
C131 O139 1.249 . S
O132 C131 1.264 . S
O133 Mg126 1.986 . S
O133 C137 1.246 . S
O134 Mg129 2.032 . S
O134 C137 1.259 1_655 S
O135 Mg126 2.114 . S
O135 C138 1.252 . S
O136 Mg126 2.251 . S
O136 Mg129 2.079 1_455 S
O136 C138 1.273 . S
C137 O133 1.246 . S
C137 O134 1.259 1_455 S
C138 O135 1.252 . S
C138 O136 1.273 . S
O139 Mg126 2.010 . S
O139 C131 1.249 . S
Mg140 O141 2.028 . S
Mg140 O147 1.986 . S
Mg140 O149 2.114 . S
Mg140 O150 2.251 . S
Mg140 O153 2.010 . S
O141 Mg140 2.028 . S
O141 C144 1.250 . S
O142 Mg143 2.028 . S
O142 C144 1.248 . S
Mg143 O142 2.028 . S
Mg143 O148 2.032 . S
Mg143 O150 2.079 . S
C144 O141 1.250 . S
C144 O142 1.248 . S
C145 O146 1.264 . S
C145 O153 1.249 . S
O146 C145 1.264 . S
O147 Mg140 1.986 . S
O147 C151 1.246 . S
O148 Mg143 2.032 . S
O148 C151 1.259 . S
O149 Mg140 2.114 . S
O149 C152 1.252 . S
O150 Mg140 2.251 . S
O150 Mg143 2.079 . S
O150 C152 1.273 . S
C151 O147 1.246 . S
C151 O148 1.259 . S
C152 O149 1.252 . S
C152 O150 1.273 . S
O153 Mg140 2.010 . S
O153 C145 1.249 . S
Mg154 O155 2.028 . S
Mg154 O161 1.986 . S
Mg154 O163 2.114 . S
Mg154 O164 2.251 . S
Mg154 O167 2.010 . S
O155 Mg154 2.028 . S
O155 C158 1.250 . S
O156 Mg157 2.028 . S
O156 C158 1.248 . S
Mg157 O156 2.028 . S
Mg157 O162 2.032 . S
Mg157 O164 2.079 . S
C158 O155 1.250 . S
C158 O156 1.248 . S
C159 O160 1.264 . S
C159 O167 1.249 . S
O160 C159 1.264 . S
O161 Mg154 1.986 . S
O161 C165 1.246 . S
O162 Mg157 2.032 . S
O162 C165 1.259 . S
O163 Mg154 2.114 . S
O163 C166 1.252 . S
O164 Mg154 2.251 . S
O164 Mg157 2.079 . S
O164 C166 1.273 . S
C165 O161 1.246 . S
C165 O162 1.259 . S
C166 O163 1.252 . S
C166 O164 1.273 . S
O167 Mg154 2.010 . S
O167 C159 1.249 . S
Mg168 O169 2.028 . S
Mg168 O175 1.986 . S
Mg168 O177 2.114 . S
Mg168 O178 2.251 . S
Mg168 O181 2.010 . S
O169 Mg168 2.028 . S
O169 C172 1.250 . S
O170 Mg171 2.028 . S
O170 C172 1.248 . S
Mg171 O170 2.028 . S
Mg171 O176 2.032 . S
Mg171 O178 2.079 . S
C172 O169 1.250 . S
C172 O170 1.248 . S
C173 O174 1.264 . S
C173 O181 1.249 . S
O174 C173 1.264 . S
O175 Mg168 1.986 . S
O175 C179 1.246 . S
O176 Mg171 2.032 . S
O176 C179 1.259 . S
O177 Mg168 2.114 . S
O177 C180 1.252 . S
O178 Mg168 2.251 . S
O178 Mg171 2.079 . S
O178 C180 1.273 . S
C179 O175 1.246 . S
C179 O176 1.259 . S
C180 O177 1.252 . S
C180 O178 1.273 . S
O181 Mg168 2.010 . S
O181 C173 1.249 . S
Mg182 O183 2.028 . S
Mg182 O189 1.986 . S
Mg182 O191 2.114 . S
Mg182 O192 2.251 . S
Mg182 O195 2.010 . S
O183 Mg182 2.028 . S
O183 C186 1.250 . S
O184 Mg185 2.028 . S
O184 C186 1.248 1_455 S
Mg185 O184 2.028 . S
Mg185 O190 2.032 . S
Mg185 O192 2.079 1_455 S
C186 O183 1.250 . S
C186 O184 1.248 1_655 S
C187 O188 1.264 . S
C187 O195 1.249 . S
O188 C187 1.264 . S
O189 Mg182 1.986 . S
O189 C193 1.246 . S
O190 Mg185 2.032 . S
O190 C193 1.259 1_455 S
O191 Mg182 2.114 . S
O191 C194 1.252 . S
O192 Mg182 2.251 . S
O192 Mg185 2.079 1_655 S
O192 C194 1.273 . S
C193 O189 1.246 . S
C193 O190 1.259 1_655 S
C194 O191 1.252 . S
C194 O192 1.273 . S
O195 Mg182 2.010 . S
O195 C187 1.249 . S
Mg196 O197 2.028 . S
Mg196 O203 1.986 . S
Mg196 O205 2.114 . S
Mg196 O206 2.251 . S
Mg196 O209 2.010 . S
O197 Mg196 2.028 . S
O197 C200 1.250 . S
O198 Mg199 2.028 . S
O198 C200 1.248 . S
Mg199 O198 2.028 . S
Mg199 O204 2.032 . S
Mg199 O206 2.079 . S
C200 O197 1.250 . S
C200 O198 1.248 . S
C201 O202 1.264 . S
C201 O209 1.249 . S
O202 C201 1.264 . S
O203 Mg196 1.986 . S
O203 C207 1.246 . S
O204 Mg199 2.032 . S
O204 C207 1.259 . S
O205 Mg196 2.114 . S
O205 C208 1.252 . S
O206 Mg196 2.251 . S
O206 Mg199 2.079 . S
O206 C208 1.273 . S
C207 O203 1.246 . S
C207 O204 1.259 . S
C208 O205 1.252 . S
C208 O206 1.273 . S
O209 Mg196 2.010 . S
O209 C201 1.249 . S
Mg210 O211 2.028 . S
Mg210 O217 1.986 . S
Mg210 O219 2.114 . S
Mg210 O220 2.251 . S
Mg210 O223 2.010 . S
O211 Mg210 2.028 . S
O211 C214 1.250 . S
O212 Mg213 2.028 . S
O212 C214 1.248 . S
Mg213 O212 2.028 . S
Mg213 O218 2.032 . S
Mg213 O220 2.079 . S
C214 O211 1.250 . S
C214 O212 1.248 . S
C215 O216 1.264 . S
C215 O223 1.249 . S
O216 C215 1.264 . S
O217 Mg210 1.986 . S
O217 C221 1.246 . S
O218 Mg213 2.032 . S
O218 C221 1.259 . S
O219 Mg210 2.114 . S
O219 C222 1.252 . S
O220 Mg210 2.251 . S
O220 Mg213 2.079 . S
O220 C222 1.273 . S
C221 O217 1.246 . S
C221 O218 1.259 . S
C222 O219 1.252 . S
C222 O220 1.273 . S
O223 Mg210 2.010 . S
O223 C215 1.249 . S
Mg224 O225 2.028 . S
Mg224 O231 1.986 . S
Mg224 O233 2.114 . S
Mg224 O234 2.251 . S
Mg224 O237 2.010 . S
O225 Mg224 2.028 . S
O225 C228 1.250 . S
O226 Mg227 2.028 . S
O226 C228 1.248 . S
Mg227 O226 2.028 . S
Mg227 O232 2.032 . S
Mg227 O234 2.079 . S
C228 O225 1.250 . S
C228 O226 1.248 . S
C229 O230 1.264 . S
C229 O237 1.249 . S
O230 C229 1.264 . S
O231 Mg224 1.986 . S
O231 C235 1.246 . S
O232 Mg227 2.032 . S
O232 C235 1.259 . S
O233 Mg224 2.114 . S
O233 C236 1.252 . S
O234 Mg224 2.251 . S
O234 Mg227 2.079 . S
O234 C236 1.273 . S
C235 O231 1.246 . S
C235 O232 1.259 . S
C236 O233 1.252 . S
C236 O234 1.273 . S
O237 Mg224 2.010 . S
O237 C229 1.249 . S
Mg238 O239 2.028 . S
Mg238 O245 1.986 . S
Mg238 O247 2.114 . S
Mg238 O248 2.251 . S
Mg238 O251 2.010 . S
O239 Mg238 2.028 . S
O239 C242 1.250 . S
O240 Mg241 2.028 . S
O240 C242 1.248 . S
Mg241 O240 2.028 . S
Mg241 O246 2.032 . S
Mg241 O248 2.079 . S
C242 O239 1.250 . S
C242 O240 1.248 . S
C243 O244 1.264 . S
C243 O251 1.249 . S
O244 C243 1.264 . S
O245 Mg238 1.986 . S
O245 C249 1.246 . S
O246 Mg241 2.032 . S
O246 C249 1.259 . S
O247 Mg238 2.114 . S
O247 C250 1.252 . S
O248 Mg238 2.251 . S
O248 Mg241 2.079 . S
O248 C250 1.273 . S
C249 O245 1.246 . S
C249 O246 1.259 . S
C250 O247 1.252 . S
C250 O248 1.273 . S
O251 Mg238 2.010 . S
O251 C243 1.249 . S
Mg252 O253 2.028 . S
Mg252 O259 1.986 . S
Mg252 O261 2.114 . S
Mg252 O262 2.251 . S
Mg252 O265 2.010 . S
O253 Mg252 2.028 . S
O253 C256 1.250 . S
O254 Mg255 2.028 . S
O254 C256 1.248 1_556 S
Mg255 O254 2.028 . S
Mg255 O260 2.032 . S
Mg255 O262 2.079 1_556 S
C256 O253 1.250 . S
C256 O254 1.248 1_554 S
C257 O258 1.264 . S
C257 O265 1.249 . S
O258 C257 1.264 . S
O259 Mg252 1.986 . S
O259 C263 1.246 . S
O260 Mg255 2.032 . S
O260 C263 1.259 1_556 S
O261 Mg252 2.114 . S
O261 C264 1.252 . S
O262 Mg252 2.251 . S
O262 Mg255 2.079 1_554 S
O262 C264 1.273 . S
C263 O259 1.246 . S
C263 O260 1.259 1_554 S
C264 O261 1.252 . S
C264 O262 1.273 . S
O265 Mg252 2.010 . S
O265 C257 1.249 . S
Mg266 O267 2.028 . S
Mg266 O273 1.986 . S
Mg266 O275 2.114 . S
Mg266 O276 2.251 . S
Mg266 O279 2.010 . S
O267 Mg266 2.028 . S
O267 C270 1.250 . S
O268 Mg269 2.028 . S
O268 C270 1.248 . S
Mg269 O268 2.028 . S
Mg269 O274 2.032 . S
Mg269 O276 2.079 . S
C270 O267 1.250 . S
C270 O268 1.248 . S
C271 O272 1.264 . S
C271 O279 1.249 . S
O272 C271 1.264 . S
O273 Mg266 1.986 . S
O273 C277 1.246 . S
O274 Mg269 2.032 . S
O274 C277 1.259 . S
O275 Mg266 2.114 . S
O275 C278 1.252 . S
O276 Mg266 2.251 . S
O276 Mg269 2.079 . S
O276 C278 1.273 . S
C277 O273 1.246 . S
C277 O274 1.259 . S
C278 O275 1.252 . S
C278 O276 1.273 . S
O279 Mg266 2.010 . S
O279 C271 1.249 . S
Mg280 O281 2.028 . S
Mg280 O287 1.986 . S
Mg280 O289 2.114 . S
Mg280 O290 2.251 . S
Mg280 O293 2.010 . S
O281 Mg280 2.028 . S
O281 C284 1.250 . S
O282 Mg283 2.028 . S
O282 C284 1.248 . S
Mg283 O282 2.028 . S
Mg283 O288 2.032 . S
Mg283 O290 2.079 . S
C284 O281 1.250 . S
C284 O282 1.248 . S
C285 O286 1.264 . S
C285 O293 1.249 . S
O286 C285 1.264 . S
O287 Mg280 1.986 . S
O287 C291 1.246 . S
O288 Mg283 2.032 . S
O288 C291 1.259 . S
O289 Mg280 2.114 . S
O289 C292 1.252 . S
O290 Mg280 2.251 . S
O290 Mg283 2.079 . S
O290 C292 1.273 . S
C291 O287 1.246 . S
C291 O288 1.259 . S
C292 O289 1.252 . S
C292 O290 1.273 . S
O293 Mg280 2.010 . S
O293 C285 1.249 . S
Mg294 O295 2.028 . S
Mg294 O301 1.986 . S
Mg294 O303 2.114 . S
Mg294 O304 2.251 . S
Mg294 O307 2.010 . S
O295 Mg294 2.028 . S
O295 C298 1.250 . S
O296 Mg297 2.028 . S
O296 C298 1.248 . S
Mg297 O296 2.028 . S
Mg297 O302 2.032 . S
Mg297 O304 2.079 . S
C298 O295 1.250 . S
C298 O296 1.248 . S
C299 O300 1.264 . S
C299 O307 1.249 . S
O300 C299 1.264 . S
O301 Mg294 1.986 . S
O301 C305 1.246 . S
O302 Mg297 2.032 . S
O302 C305 1.259 . S
O303 Mg294 2.114 . S
O303 C306 1.252 . S
O304 Mg294 2.251 . S
O304 Mg297 2.079 . S
O304 C306 1.273 . S
C305 O301 1.246 . S
C305 O302 1.259 . S
C306 O303 1.252 . S
C306 O304 1.273 . S
O307 Mg294 2.010 . S
O307 C299 1.249 . S
Mg308 O309 2.028 . S
Mg308 O315 1.986 . S
Mg308 O317 2.114 . S
Mg308 O318 2.251 . S
Mg308 O321 2.010 . S
O309 Mg308 2.028 . S
O309 C312 1.250 . S
O310 Mg311 2.028 . S
O310 C312 1.248 1_554 S
Mg311 O310 2.028 . S
Mg311 O316 2.032 . S
Mg311 O318 2.079 1_554 S
C312 O309 1.250 . S
C312 O310 1.248 1_556 S
C313 O314 1.264 . S
C313 O321 1.249 . S
O314 C313 1.264 . S
O315 Mg308 1.986 . S
O315 C319 1.246 . S
O316 Mg311 2.032 . S
O316 C319 1.259 1_554 S
O317 Mg308 2.114 . S
O317 C320 1.252 . S
O318 Mg308 2.251 . S
O318 Mg311 2.079 1_556 S
O318 C320 1.273 . S
C319 O315 1.246 . S
C319 O316 1.259 1_556 S
C320 O317 1.252 . S
C320 O318 1.273 . S
O321 Mg308 2.010 . S
O321 C313 1.249 . S
Mg322 O323 2.028 . S
Mg322 O329 1.986 . S
Mg322 O331 2.114 . S
Mg322 O332 2.251 . S
Mg322 O335 2.010 . S
O323 Mg322 2.028 . S
O323 C326 1.250 . S
O324 Mg325 2.028 . S
O324 C326 1.248 . S
Mg325 O324 2.028 . S
Mg325 O330 2.032 . S
Mg325 O332 2.079 . S
C326 O323 1.250 . S
C326 O324 1.248 . S
C327 O328 1.264 . S
C327 O335 1.249 . S
O328 C327 1.264 . S
O329 Mg322 1.986 . S
O329 C333 1.246 . S
O330 Mg325 2.032 . S
O330 C333 1.259 . S
O331 Mg322 2.114 . S
O331 C334 1.252 . S
O332 Mg322 2.251 . S
O332 Mg325 2.079 . S
O332 C334 1.273 . S
C333 O329 1.246 . S
C333 O330 1.259 . S
C334 O331 1.252 . S
C334 O332 1.273 . S
O335 Mg322 2.010 . S
O335 C327 1.249 . S
C336 C337 1.387 . S
C336 H340 0.950 . S
C336 C345 1.390 . S
C337 C336 1.387 . S
C337 C339 1.387 . S
H338 C345 0.950 . S
C339 C337 1.387 . S
C339 C341 1.390 . S
C339 H343 0.950 . S
H340 C336 0.950 . S
C341 C339 1.390 . S
C341 C342 1.387 . S
C341 H344 0.950 . S
C342 C341 1.387 . S
C342 C345 1.387 . S
H343 C339 0.950 . S
H344 C341 0.950 . S
C345 C336 1.390 . S
C345 H338 0.950 . S
C345 C342 1.387 . S
C346 C347 1.387 . S
C346 H350 0.950 . S
C346 C355 1.390 . S
C347 C346 1.387 . S
C347 C349 1.387 . S
H348 C355 0.950 . S
C349 C347 1.387 . S
C349 C351 1.390 . S
C349 H353 0.950 . S
H350 C346 0.950 . S
C351 C349 1.390 . S
C351 C352 1.387 . S
C351 H354 0.950 . S
C352 C351 1.387 . S
C352 C355 1.387 . S
H353 C349 0.950 . S
H354 C351 0.950 . S
C355 C346 1.390 . S
C355 H348 0.950 . S
C355 C352 1.387 . S
C356 C357 1.387 . S
C356 H360 0.950 . S
C356 C365 1.390 . S
C357 C356 1.387 . S
C357 C359 1.387 . S
H358 C365 0.950 1_554 S
C359 C357 1.387 . S
C359 C361 1.390 . S
C359 H363 0.950 . S
H360 C356 0.950 . S
C361 C359 1.390 . S
C361 C362 1.387 . S
C361 H364 0.950 . S
C362 C361 1.387 . S
C362 C365 1.387 . S
H363 C359 0.950 . S
H364 C361 0.950 . S
C365 C356 1.390 . S
C365 H358 0.950 1_556 S
C365 C362 1.387 . S
C366 C367 1.387 . S
C366 H370 0.950 . S
C366 C375 1.390 . S
C367 C366 1.387 . S
C367 C369 1.387 . S
H368 C375 0.950 . S
C369 C367 1.387 . S
C369 C371 1.390 . S
C369 H373 0.950 . S
H370 C366 0.950 . S
C371 C369 1.390 . S
C371 C372 1.387 . S
C371 H374 0.950 . S
C372 C371 1.387 . S
C372 C375 1.387 . S
H373 C369 0.950 . S
H374 C371 0.950 . S
C375 C366 1.390 . S
C375 H368 0.950 . S
C375 C372 1.387 . S
C376 C377 1.387 . S
C376 H380 0.950 . S
C376 C385 1.390 . S
C377 C376 1.387 . S
C377 C379 1.387 . S
H378 C385 0.950 . S
C379 C377 1.387 . S
C379 C381 1.390 . S
C379 H383 0.950 . S
H380 C376 0.950 . S
C381 C379 1.390 . S
C381 C382 1.387 . S
C381 H384 0.950 . S
C382 C381 1.387 . S
C382 C385 1.387 . S
H383 C379 0.950 . S
H384 C381 0.950 . S
C385 C376 1.390 . S
C385 H378 0.950 . S
C385 C382 1.387 . S
C386 C387 1.387 . S
C386 H390 0.950 . S
C386 C395 1.390 . S
C387 C386 1.387 . S
C387 C389 1.387 . S
H388 C395 0.950 . S
C389 C387 1.387 . S
C389 C391 1.390 . S
C389 H393 0.950 . S
H390 C386 0.950 . S
C391 C389 1.390 . S
C391 C392 1.387 . S
C391 H394 0.950 . S
C392 C391 1.387 . S
C392 C395 1.387 . S
H393 C389 0.950 . S
H394 C391 0.950 . S
C395 C386 1.390 . S
C395 H388 0.950 . S
C395 C392 1.387 . S
C396 C397 1.387 . S
C396 H400 0.950 . S
C396 C405 1.390 . S
C397 C396 1.387 . S
C397 C399 1.387 . S
H398 C405 0.950 . S
C399 C397 1.387 . S
C399 C401 1.390 . S
C399 H403 0.950 . S
H400 C396 0.950 . S
C401 C399 1.390 . S
C401 C402 1.387 . S
C401 H404 0.950 . S
C402 C401 1.387 . S
C402 C405 1.387 . S
H403 C399 0.950 . S
H404 C401 0.950 . S
C405 C396 1.390 . S
C405 H398 0.950 . S
C405 C402 1.387 . S
C406 C407 1.387 . S
C406 H410 0.950 . S
C406 C415 1.390 . S
C407 C406 1.387 . S
C407 C409 1.387 . S
H408 C415 0.950 . S
C409 C407 1.387 . S
C409 C411 1.390 . S
C409 H413 0.950 . S
H410 C406 0.950 . S
C411 C409 1.390 . S
C411 C412 1.387 . S
C411 H414 0.950 . S
C412 C411 1.387 . S
C412 C415 1.387 . S
H413 C409 0.950 . S
H414 C411 0.950 . S
C415 C406 1.390 . S
C415 H408 0.950 . S
C415 C412 1.387 . S
C416 C417 1.387 . S
C416 H420 0.950 . S
C416 C425 1.390 . S
C417 C416 1.387 . S
C417 C419 1.387 . S
H418 C425 0.950 . S
C419 C417 1.387 . S
C419 C421 1.390 . S
C419 H423 0.950 . S
H420 C416 0.950 . S
C421 C419 1.390 . S
C421 C422 1.387 . S
C421 H424 0.950 . S
C422 C421 1.387 . S
C422 C425 1.387 . S
H423 C419 0.950 . S
H424 C421 0.950 . S
C425 C416 1.390 . S
C425 H418 0.950 . S
C425 C422 1.387 . S
C426 C427 1.387 . S
C426 H430 0.950 . S
C426 C435 1.390 . S
C427 C426 1.387 . S
C427 C429 1.387 . S
H428 C435 0.950 . S
C429 C427 1.387 . S
C429 C431 1.390 . S
C429 H433 0.950 . S
H430 C426 0.950 . S
C431 C429 1.390 . S
C431 C432 1.387 . S
C431 H434 0.950 . S
C432 C431 1.387 . S
C432 C435 1.387 . S
H433 C429 0.950 . S
H434 C431 0.950 . S
C435 C426 1.390 . S
C435 H428 0.950 . S
C435 C432 1.387 . S
C436 C437 1.387 . S
C436 H440 0.950 . S
C436 C445 1.390 . S
C437 C436 1.387 . S
C437 C439 1.387 . S
H438 C445 0.950 . S
C439 C437 1.387 . S
C439 C441 1.390 . S
C439 H443 0.950 . S
H440 C436 0.950 . S
C441 C439 1.390 . S
C441 C442 1.387 . S
C441 H444 0.950 . S
C442 C441 1.387 . S
C442 C445 1.387 . S
H443 C439 0.950 . S
H444 C441 0.950 . S
C445 C436 1.390 . S
C445 H438 0.950 . S
C445 C442 1.387 . S
C446 C447 1.387 . S
C446 H450 0.950 . S
C446 C455 1.390 . S
C447 C446 1.387 . S
C447 C449 1.387 . S
H448 C455 0.950 . S
C449 C447 1.387 . S
C449 C451 1.390 . S
C449 H453 0.950 . S
H450 C446 0.950 . S
C451 C449 1.390 . S
C451 C452 1.387 . S
C451 H454 0.950 . S
C452 C451 1.387 . S
C452 C455 1.387 . S
H453 C449 0.950 . S
H454 C451 0.950 . S
C455 C446 1.390 . S
C455 H448 0.950 . S
C455 C452 1.387 . S
C456 C457 1.387 . S
C456 H460 0.950 . S
C456 C465 1.390 . S
C457 C456 1.387 . S
C457 C459 1.387 . S
H458 C465 0.950 . S
C459 C457 1.387 . S
C459 C461 1.390 . S
C459 H463 0.950 . S
H460 C456 0.950 . S
C461 C459 1.390 . S
C461 C462 1.387 . S
C461 H464 0.950 . S
C462 C461 1.387 . S
C462 C465 1.387 . S
H463 C459 0.950 . S
H464 C461 0.950 . S
C465 C456 1.390 . S
C465 H458 0.950 . S
C465 C462 1.387 . S
C466 C467 1.387 1_565 S
C466 H470 0.950 . S
C466 C475 1.390 1_565 S
C467 C466 1.387 1_545 S
C467 C469 1.387 . S
H468 C475 0.950 . S
C469 C467 1.387 . S
C469 C471 1.390 . S
C469 H473 0.950 . S
H470 C466 0.950 . S
C471 C469 1.390 . S
C471 C472 1.387 . S
C471 H474 0.950 . S
C472 C471 1.387 . S
C472 C475 1.387 . S
H473 C469 0.950 . S
H474 C471 0.950 . S
C475 C466 1.390 1_545 S
C475 H468 0.950 . S
C475 C472 1.387 . S
C476 C477 1.387 . S
C476 H480 0.950 . S
C476 C485 1.390 1_556 S
C477 C476 1.387 . S
C477 C479 1.387 . S
H478 C485 0.950 . S
C479 C477 1.387 . S
C479 C481 1.390 . S
C479 H483 0.950 . S
H480 C476 0.950 . S
C481 C479 1.390 . S
C481 C482 1.387 . S
C481 H484 0.950 . S
C482 C481 1.387 . S
C482 C485 1.387 1_556 S
H483 C479 0.950 . S
H484 C481 0.950 . S
C485 C476 1.390 1_554 S
C485 H478 0.950 . S
C485 C482 1.387 1_554 S
C486 C487 1.387 1_545 S
C486 H490 0.950 . S
C486 C495 1.390 1_545 S
C487 C486 1.387 1_565 S
C487 C489 1.387 . S
H488 C495 0.950 . S
C489 C487 1.387 . S
C489 C491 1.390 . S
C489 H493 0.950 . S
H490 C486 0.950 . S
C491 C489 1.390 . S
C491 C492 1.387 . S
C491 H494 0.950 . S
C492 C491 1.387 . S
C492 C495 1.387 . S
H493 C489 0.950 . S
H494 C491 0.950 . S
C495 C486 1.390 1_565 S
C495 H488 0.950 . S
C495 C492 1.387 . S
C496 C497 1.387 . S
C496 H500 0.950 . S
C496 C505 1.390 . S
C497 C496 1.387 . S
C497 C499 1.387 . S
H498 C505 0.950 . S
C499 C497 1.387 . S
C499 C501 1.390 . S
C499 H503 0.950 . S
H500 C496 0.950 . S
C501 C499 1.390 . S
C501 C502 1.387 . S
C501 H504 0.950 . S
C502 C501 1.387 . S
C502 C505 1.387 . S
H503 C499 0.950 . S
H504 C501 0.950 . S
C505 C496 1.390 . S
C505 H498 0.950 . S
C505 C502 1.387 . S
C506 C507 1.387 . S
C506 H510 0.950 . S
C506 C515 1.390 . S
C507 C506 1.387 . S
C507 C509 1.387 . S
H508 C515 0.950 . S
C509 C507 1.387 . S
C509 C511 1.390 . S
C509 H513 0.950 . S
H510 C506 0.950 . S
C511 C509 1.390 . S
C511 C512 1.387 . S
C511 H514 0.950 . S
C512 C511 1.387 . S
C512 C515 1.387 . S
H513 C509 0.950 . S
H514 C511 0.950 . S
C515 C506 1.390 . S
C515 H508 0.950 . S
C515 C512 1.387 . S
C516 C517 1.387 1_556 S
C516 H520 0.950 . S
C516 C525 1.390 1_556 S
C517 C516 1.387 1_554 S
C517 C519 1.387 . S
H518 C525 0.950 . S
C519 C517 1.387 . S
C519 C521 1.390 . S
C519 H523 0.950 . S
H520 C516 0.950 . S
C521 C519 1.390 . S
C521 C522 1.387 . S
C521 H524 0.950 . S
C522 C521 1.387 . S
C522 C525 1.387 . S
H523 C519 0.950 . S
H524 C521 0.950 . S
C525 C516 1.390 1_554 S
C525 H518 0.950 . S
C525 C522 1.387 . S
C526 C527 1.387 . S
C526 H530 0.950 . S
C526 C535 1.390 . S
C527 C526 1.387 . S
C527 C529 1.387 . S
H528 C535 0.950 . S
C529 C527 1.387 . S
C529 C531 1.390 . S
C529 H533 0.950 . S
H530 C526 0.950 . S
C531 C529 1.390 . S
C531 C532 1.387 . S
C531 H534 0.950 . S
C532 C531 1.387 . S
C532 C535 1.387 . S
H533 C529 0.950 . S
H534 C531 0.950 . S
C535 C526 1.390 . S
C535 H528 0.950 . S
C535 C532 1.387 . S
C536 C537 1.387 . S
C536 H540 0.950 . S
C536 C545 1.390 . S
C537 C536 1.387 . S
C537 C539 1.387 . S
H538 C545 0.950 . S
C539 C537 1.387 . S
C539 C541 1.390 . S
C539 H543 0.950 . S
H540 C536 0.950 . S
C541 C539 1.390 . S
C541 C542 1.387 . S
C541 H544 0.950 . S
C542 C541 1.387 . S
C542 C545 1.387 . S
H543 C539 0.950 . S
H544 C541 0.950 . S
C545 C536 1.390 . S
C545 H538 0.950 . S
C545 C542 1.387 . S
C546 C547 1.387 . S
C546 H550 0.950 1_655 S
C546 C555 1.390 . S
C547 C546 1.387 . S
C547 C549 1.387 . S
H548 C555 0.950 . S
C549 C547 1.387 . S
C549 C551 1.390 . S
C549 H553 0.950 . S
H550 C546 0.950 1_455 S
C551 C549 1.390 . S
C551 C552 1.387 . S
C551 H554 0.950 . S
C552 C551 1.387 . S
C552 C555 1.387 . S
H553 C549 0.950 . S
H554 C551 0.950 . S
C555 C546 1.390 . S
C555 H548 0.950 . S
C555 C552 1.387 . S
C556 C557 1.387 . S
C556 H560 0.950 . S
C556 C565 1.390 . S
C557 C556 1.387 . S
C557 C559 1.387 . S
H558 C565 0.950 . S
C559 C557 1.387 . S
C559 C561 1.390 . S
C559 H563 0.950 . S
H560 C556 0.950 . S
C561 C559 1.390 . S
C561 C562 1.387 . S
C561 H564 0.950 . S
C562 C561 1.387 . S
C562 C565 1.387 . S
H563 C559 0.950 . S
H564 C561 0.950 . S
C565 C556 1.390 . S
C565 H558 0.950 . S
C565 C562 1.387 . S
C566 C567 1.387 . S
C566 H570 0.950 . S
C566 C575 1.390 . S
C567 C566 1.387 . S
C567 C569 1.387 . S
H568 C575 0.950 . S
C569 C567 1.387 . S
C569 C571 1.390 . S
C569 H573 0.950 . S
H570 C566 0.950 . S
C571 C569 1.390 . S
C571 C572 1.387 . S
C571 H574 0.950 . S
C572 C571 1.387 . S
C572 C575 1.387 . S
H573 C569 0.950 . S
H574 C571 0.950 . S
C575 C566 1.390 . S
C575 H568 0.950 . S
C575 C572 1.387 . S
C576 C577 1.387 . S
C576 H580 0.950 . S
C576 C585 1.390 . S
C577 C576 1.387 . S
C577 C579 1.387 . S
H578 C585 0.950 . S
C579 C577 1.387 . S
C579 C581 1.390 . S
C579 H583 0.950 . S
H580 C576 0.950 . S
C581 C579 1.390 . S
C581 C582 1.387 . S
C581 H584 0.950 . S
C582 C581 1.387 . S
C582 C585 1.387 . S
H583 C579 0.950 . S
H584 C581 0.950 . S
C585 C576 1.390 . S
C585 H578 0.950 . S
C585 C582 1.387 . S
C586 C587 1.387 . S
C586 H590 0.950 1_565 S
C586 C595 1.390 . S
C587 C586 1.387 . S
C587 C589 1.387 . S
H588 C595 0.950 . S
C589 C587 1.387 . S
C589 C591 1.390 . S
C589 H593 0.950 . S
H590 C586 0.950 1_545 S
C591 C589 1.390 . S
C591 C592 1.387 . S
C591 H594 0.950 . S
C592 C591 1.387 . S
C592 C595 1.387 . S
H593 C589 0.950 . S
H594 C591 0.950 . S
C595 C586 1.390 . S
C595 H588 0.950 . S
C595 C592 1.387 . S
C596 C597 1.387 . S
C596 H600 0.950 . S
C596 C605 1.390 . S
C597 C596 1.387 . S
C597 C599 1.387 . S
H598 C605 0.950 . S
C599 C597 1.387 . S
C599 C601 1.390 . S
C599 H603 0.950 . S
H600 C596 0.950 . S
C601 C599 1.390 . S
C601 C602 1.387 . S
C601 H604 0.950 . S
C602 C601 1.387 . S
C602 C605 1.387 . S
H603 C599 0.950 . S
H604 C601 0.950 . S
C605 C596 1.390 . S
C605 H598 0.950 . S
C605 C602 1.387 . S
C606 C607 1.387 . S
C606 H610 0.950 . S
C606 C615 1.390 . S
C607 C606 1.387 . S
C607 C609 1.387 . S
H608 C615 0.950 1_565 S
C609 C607 1.387 . S
C609 C611 1.390 . S
C609 H613 0.950 . S
H610 C606 0.950 . S
C611 C609 1.390 . S
C611 C612 1.387 . S
C611 H614 0.950 1_554 S
C612 C611 1.387 . S
C612 C615 1.387 . S
H613 C609 0.950 . S
H614 C611 0.950 1_556 S
C615 C606 1.390 . S
C615 H608 0.950 1_545 S
C615 C612 1.387 . S
C616 C617 1.387 . S
C616 H620 0.950 . S
C616 C625 1.390 . S
C617 C616 1.387 . S
C617 C619 1.387 . S
H618 C625 0.950 . S
C619 C617 1.387 . S
C619 C621 1.390 . S
C619 H623 0.950 . S
H620 C616 0.950 . S
C621 C619 1.390 . S
C621 C622 1.387 . S
C621 H624 0.950 . S
C622 C621 1.387 . S
C622 C625 1.387 . S
H623 C619 0.950 . S
H624 C621 0.950 . S
C625 C616 1.390 . S
C625 H618 0.950 . S
C625 C622 1.387 . S
C626 C627 1.387 . S
C626 H630 0.950 1_556 S
C626 C635 1.390 . S
C627 C626 1.387 . S
C627 C629 1.387 . S
H628 C635 0.950 . S
C629 C627 1.387 . S
C629 C631 1.390 . S
C629 H633 0.950 . S
H630 C626 0.950 1_554 S
C631 C629 1.390 . S
C631 C632 1.387 . S
C631 H634 0.950 . S
C632 C631 1.387 . S
C632 C635 1.387 . S
H633 C629 0.950 . S
H634 C631 0.950 . S
C635 C626 1.390 . S
C635 H628 0.950 . S
C635 C632 1.387 . S
C636 C637 1.387 . S
C636 H640 0.950 . S
C636 C645 1.390 . S
C637 C636 1.387 . S
C637 C639 1.387 . S
H638 C645 0.950 . S
C639 C637 1.387 . S
C639 C641 1.390 . S
C639 H643 0.950 . S
H640 C636 0.950 . S
C641 C639 1.390 . S
C641 C642 1.387 . S
C641 H644 0.950 . S
C642 C641 1.387 . S
C642 C645 1.387 . S
H643 C639 0.950 . S
H644 C641 0.950 . S
C645 C636 1.390 . S
C645 H638 0.950 . S
C645 C642 1.387 . S
C646 C647 1.387 . S
C646 H650 0.950 . S
C646 C655 1.390 . S
C647 C646 1.387 . S
C647 C649 1.387 . S
H648 C655 0.950 . S
C649 C647 1.387 . S
C649 C651 1.390 . S
C649 H653 0.950 . S
H650 C646 0.950 . S
C651 C649 1.390 . S
C651 C652 1.387 . S
C651 H654 0.950 . S
C652 C651 1.387 . S
C652 C655 1.387 . S
H653 C649 0.950 . S
H654 C651 0.950 . S
C655 C646 1.390 . S
C655 H648 0.950 . S
C655 C652 1.387 . S
C656 C657 1.387 . S
C656 H660 0.950 . S
C656 C665 1.390 . S
C657 C656 1.387 . S
C657 C659 1.387 . S
H658 C665 0.950 . S
C659 C657 1.387 . S
C659 C661 1.390 . S
C659 H663 0.950 . S
H660 C656 0.950 . S
C661 C659 1.390 . S
C661 C662 1.387 . S
C661 H664 0.950 . S
C662 C661 1.387 . S
C662 C665 1.387 . S
H663 C659 0.950 . S
H664 C661 0.950 . S
C665 C656 1.390 . S
C665 H658 0.950 . S
C665 C662 1.387 . S
C666 C667 1.387 . S
C666 H670 0.950 . S
C666 C675 1.390 . S
C667 C666 1.387 . S
C667 C669 1.387 . S
H668 C675 0.950 . S
C669 C667 1.387 . S
C669 C671 1.390 . S
C669 H673 0.950 1_545 S
H670 C666 0.950 . S
C671 C669 1.390 . S
C671 C672 1.387 . S
C671 H674 0.950 . S
C672 C671 1.387 . S
C672 C675 1.387 . S
H673 C669 0.950 1_565 S
H674 C671 0.950 . S
C675 C666 1.390 . S
C675 H668 0.950 . S
C675 C672 1.387 . S
C676 C677 1.387 . S
C676 H680 0.950 . S
C676 C685 1.390 . S
C677 C676 1.387 . S
C677 C679 1.387 . S
H678 C685 0.950 . S
C679 C677 1.387 . S
C679 C681 1.390 . S
C679 H683 0.950 . S
H680 C676 0.950 . S
C681 C679 1.390 . S
C681 C682 1.387 . S
C681 H684 0.950 . S
C682 C681 1.387 . S
C682 C685 1.387 . S
H683 C679 0.950 . S
H684 C681 0.950 . S
C685 C676 1.390 . S
C685 H678 0.950 . S
C685 C682 1.387 . S
C686 C687 1.387 . S
C686 H690 0.950 . S
C686 C695 1.390 . S
C687 C686 1.387 . S
C687 C689 1.387 . S
H688 C695 0.950 . S
C689 C687 1.387 . S
C689 C691 1.390 . S
C689 H693 0.950 1_565 S
H690 C686 0.950 . S
C691 C689 1.390 . S
C691 C692 1.387 . S
C691 H694 0.950 . S
C692 C691 1.387 . S
C692 C695 1.387 . S
H693 C689 0.950 1_545 S
H694 C691 0.950 . S
C695 C686 1.390 . S
C695 H688 0.950 . S
C695 C692 1.387 . S
C696 C697 1.387 . S
C696 H700 0.950 . S
C696 C705 1.390 . S
C697 C696 1.387 . S
C697 C699 1.387 . S
H698 C705 0.950 . S
C699 C697 1.387 . S
C699 C701 1.390 . S
C699 H703 0.950 . S
H700 C696 0.950 . S
C701 C699 1.390 . S
C701 C702 1.387 . S
C701 H704 0.950 . S
C702 C701 1.387 . S
C702 C705 1.387 . S
H703 C699 0.950 . S
H704 C701 0.950 . S
C705 C696 1.390 . S
C705 H698 0.950 . S
C705 C702 1.387 . S
C706 C707 1.387 . S
C706 H710 0.950 . S
C706 C715 1.390 . S
C707 C706 1.387 . S
C707 C709 1.387 . S
H708 C715 0.950 . S
C709 C707 1.387 . S
C709 C711 1.390 . S
C709 H713 0.950 . S
H710 C706 0.950 . S
C711 C709 1.390 . S
C711 C712 1.387 . S
C711 H714 0.950 . S
C712 C711 1.387 . S
C712 C715 1.387 . S
H713 C709 0.950 . S
H714 C711 0.950 . S
C715 C706 1.390 . S
C715 H708 0.950 . S
C715 C712 1.387 . S
C716 C717 1.387 . S
C716 H720 0.950 . S
C716 C725 1.390 . S
C717 C716 1.387 . S
C717 C719 1.387 . S
H718 C725 0.950 . S
C719 C717 1.387 . S
C719 C721 1.390 . S
C719 H723 0.950 . S
H720 C716 0.950 . S
C721 C719 1.390 . S
C721 C722 1.387 . S
C721 H724 0.950 . S
C722 C721 1.387 . S
C722 C725 1.387 . S
H723 C719 0.950 . S
H724 C721 0.950 . S
C725 C716 1.390 . S
C725 H718 0.950 . S
C725 C722 1.387 . S
C726 C727 1.387 . S
C726 H730 0.950 . S
C726 C735 1.390 . S
C727 C726 1.387 . S
C727 C729 1.387 . S
H728 C735 0.950 . S
C729 C727 1.387 . S
C729 C731 1.390 . S
C729 H733 0.950 . S
H730 C726 0.950 . S
C731 C729 1.390 . S
C731 C732 1.387 . S
C731 H734 0.950 . S
C732 C731 1.387 . S
C732 C735 1.387 . S
H733 C729 0.950 . S
H734 C731 0.950 . S
C735 C726 1.390 . S
C735 H728 0.950 . S
C735 C732 1.387 . S
C736 C737 1.387 . S
C736 H740 0.950 . S
C736 C745 1.390 . S
C737 C736 1.387 . S
C737 C739 1.387 . S
H738 C745 0.950 . S
C739 C737 1.387 . S
C739 C741 1.390 . S
C739 H743 0.950 . S
H740 C736 0.950 . S
C741 C739 1.390 . S
C741 C742 1.387 . S
C741 H744 0.950 . S
C742 C741 1.387 . S
C742 C745 1.387 . S
H743 C739 0.950 . S
H744 C741 0.950 . S
C745 C736 1.390 . S
C745 H738 0.950 . S
C745 C742 1.387 . S
C746 C747 1.387 . S
C746 H750 0.950 . S
C746 C755 1.390 . S
C747 C746 1.387 . S
C747 C749 1.387 . S
H748 C755 0.950 . S
C749 C747 1.387 . S
C749 C751 1.390 . S
C749 H753 0.950 . S
H750 C746 0.950 . S
C751 C749 1.390 . S
C751 C752 1.387 . S
C751 H754 0.950 . S
C752 C751 1.387 . S
C752 C755 1.387 . S
H753 C749 0.950 . S
H754 C751 0.950 . S
C755 C746 1.390 . S
C755 H748 0.950 . S
C755 C752 1.387 . S
C756 C757 1.387 . S
C756 H760 0.950 1_455 S
C756 C765 1.390 . S
C757 C756 1.387 . S
C757 C759 1.387 . S
H758 C765 0.950 . S
C759 C757 1.387 . S
C759 C761 1.390 . S
C759 H763 0.950 . S
H760 C756 0.950 1_655 S
C761 C759 1.390 . S
C761 C762 1.387 . S
C761 H764 0.950 . S
C762 C761 1.387 . S
C762 C765 1.387 . S
H763 C759 0.950 . S
H764 C761 0.950 . S
C765 C756 1.390 . S
C765 H758 0.950 . S
C765 C762 1.387 . S
C766 C767 1.387 . S
C766 H770 0.950 . S
C766 C775 1.390 . S
C767 C766 1.387 . S
C767 C769 1.387 . S
H768 C775 0.950 . S
C769 C767 1.387 . S
C769 C771 1.390 . S
C769 H773 0.950 . S
H770 C766 0.950 . S
C771 C769 1.390 . S
C771 C772 1.387 . S
C771 H774 0.950 . S
C772 C771 1.387 . S
C772 C775 1.387 . S
H773 C769 0.950 . S
H774 C771 0.950 . S
C775 C766 1.390 . S
C775 H768 0.950 . S
C775 C772 1.387 . S
C776 C777 1.387 . S
C776 H780 0.950 . S
C776 C785 1.390 . S
C777 C776 1.387 . S
C777 C779 1.387 . S
H778 C785 0.950 . S
C779 C777 1.387 . S
C779 C781 1.390 . S
C779 H783 0.950 . S
H780 C776 0.950 . S
C781 C779 1.390 . S
C781 C782 1.387 . S
C781 H784 0.950 . S
C782 C781 1.387 . S
C782 C785 1.387 . S
H783 C779 0.950 . S
H784 C781 0.950 . S
C785 C776 1.390 . S
C785 H778 0.950 . S
C785 C782 1.387 . S
C786 C787 1.387 . S
C786 H790 0.950 . S
C786 C795 1.390 . S
C787 C786 1.387 . S
C787 C789 1.387 . S
H788 C795 0.950 . S
C789 C787 1.387 . S
C789 C791 1.390 . S
C789 H793 0.950 . S
H790 C786 0.950 . S
C791 C789 1.390 . S
C791 C792 1.387 . S
C791 H794 0.950 . S
C792 C791 1.387 . S
C792 C795 1.387 . S
H793 C789 0.950 . S
H794 C791 0.950 . S
C795 C786 1.390 . S
C795 H788 0.950 . S
C795 C792 1.387 . S
C796 C797 1.387 . S
C796 H800 0.950 . S
C796 C805 1.390 . S
C797 C796 1.387 . S
C797 C799 1.387 . S
H798 C805 0.950 . S
C799 C797 1.387 . S
C799 C801 1.390 . S
C799 H803 0.950 . S
H800 C796 0.950 . S
C801 C799 1.390 . S
C801 C802 1.387 . S
C801 H804 0.950 . S
C802 C801 1.387 . S
C802 C805 1.387 . S
H803 C799 0.950 . S
H804 C801 0.950 . S
C805 C796 1.390 . S
C805 H798 0.950 . S
C805 C802 1.387 . S
C806 C807 1.387 . S
C806 H810 0.950 . S
C806 C815 1.390 . S
C807 C806 1.387 . S
C807 C809 1.387 . S
H808 C815 0.950 . S
C809 C807 1.387 . S
C809 C811 1.390 . S
C809 H813 0.950 . S
H810 C806 0.950 . S
C811 C809 1.390 . S
C811 C812 1.387 . S
C811 H814 0.950 . S
C812 C811 1.387 . S
C812 C815 1.387 . S
H813 C809 0.950 . S
H814 C811 0.950 . S
C815 C806 1.390 . S
C815 H808 0.950 . S
C815 C812 1.387 . S
C337 C131 1.405 . S
C342 C5 1.409 . S
C347 C19 1.410 1_455 S
C352 C145 1.406 . S
C357 C33 1.410 . S
C362 C159 1.407 1_556 S
C367 C47 1.405 . S
C372 C117 1.410 . S
C377 C61 1.405 . S
C382 C215 1.410 . S
C387 C173 1.405 . S
C392 C75 1.410 1_655 S
C397 C89 1.410 . S
C402 C187 1.406 1_554 S
C407 C201 1.405 . S
C412 C103 1.409 . S
C417 C229 1.410 . S
C422 C257 1.406 . S
C427 C313 1.410 1_545 S
C432 C243 1.405 . S
C437 C271 1.405 . S
C442 C327 1.410 1_565 S
C447 C299 1.405 . S
C452 C285 1.410 . S
C457 C291 1.529 . S
C462 C11 1.532 . S
C467 C25 1.531 1_545 S
C472 C249 1.530 . S
C477 C39 1.531 . S
C482 C263 1.529 1_556 S
C487 C53 1.530 1_565 S
C492 C277 1.530 . S
C497 C67 1.529 . S
C502 C333 1.532 . S
C507 C305 1.530 . S
C512 C81 1.530 . S
C517 C319 1.529 1_554 S
C522 C95 1.532 . S
C527 C235 1.531 . S
C532 C109 1.529 . S
C537 C221 1.531 . S
C542 C123 1.529 . S
C547 C137 1.531 1_655 S
C552 C179 1.529 . S
C557 C193 1.531 1_455 S
C562 C151 1.529 . S
C567 C207 1.529 . S
C572 C165 1.532 . S
C577 C12 1.086 . S
C582 C228 1.166 . S
C587 C326 1.168 1_565 S
C592 C26 1.082 . S
C597 C298 1.166 . S
C602 C40 1.086 . S
C607 C54 1.082 . S
C612 C312 1.168 1_544 S
C617 C68 1.086 . S
C622 C242 1.166 . S
C627 C256 1.167 1_556 S
C632 C82 1.084 . S
C637 C270 1.169 . S
C642 C96 1.080 . S
C647 C284 1.169 . S
C652 C110 1.080 . S
C657 C4 1.166 . S
C662 C124 1.086 . S
C667 C18 1.166 1_445 S
C672 C138 1.086 . S
C677 C32 1.166 . S
C682 C152 1.086 . S
C687 C46 1.166 1_565 S
C692 C166 1.086 . S
C697 C60 1.168 . S
C702 C180 1.083 . S
C707 C74 1.169 1_655 S
C712 C194 1.080 . S
C717 C208 1.080 . S
C722 C88 1.169 . S
C727 C102 1.169 . S
C732 C222 1.080 . S
C737 C116 1.169 . S
C742 C236 1.080 . S
C747 C250 1.081 . S
C752 C172 1.169 . S
C757 C186 1.169 1_454 S
C762 C264 1.080 . S
C767 C278 1.080 . S
C772 C200 1.169 . S
C777 C292 1.085 . S
C782 C214 1.166 . S
C787 C306 1.086 . S
C792 C144 1.166 . S
C797 C158 1.166 1_556 S
C802 C320 1.086 . S
C807 C334 1.081 . S
C812 C130 1.169 1_655 S
