# Generated by pormake.
# Topology uoj, (4)-cn, num edge types: 1
# Building blocks:
#     Node 0, Type 0, BuildingBlock: QUQFOY_clean_sbu_3, # of connection points: 4
#     Node 1, Type 0, BuildingBlock: QUQFOY_clean_sbu_3, # of connection points: 4
#     Node 2, Type 0, BuildingBlock: QUQFOY_clean_sbu_3, # of connection points: 4
#     Node 3, Type 0, BuildingBlock: QUQFOY_clean_sbu_3, # of connection points: 4
#     Node 4, Type 0, BuildingBlock: QUQFOY_clean_sbu_3, # of connection points: 4
#     Node 5, Type 0, BuildingBlock: QUQFOY_clean_sbu_3, # of connection points: 4
#     Node 6, Type 0, BuildingBlock: QUQFOY_clean_sbu_3, # of connection points: 4
#     Node 7, Type 0, BuildingBlock: QUQFOY_clean_sbu_3, # of connection points: 4
#     Edge 8, Type (0, 0), BuildingBlock: TEMPAE_clean_linker_10, # of connection points: 2
#     Edge 9, Type (0, 0), BuildingBlock: TEMPAE_clean_linker_10, # of connection points: 2
#     Edge 10, Type (0, 0), BuildingBlock: TEMPAE_clean_linker_10, # of connection points: 2
#     Edge 11, Type (0, 0), BuildingBlock: TEMPAE_clean_linker_10, # of connection points: 2
#     Edge 12, Type (0, 0), BuildingBlock: TEMPAE_clean_linker_10, # of connection points: 2
#     Edge 13, Type (0, 0), BuildingBlock: TEMPAE_clean_linker_10, # of connection points: 2
#     Edge 14, Type (0, 0), BuildingBlock: TEMPAE_clean_linker_10, # of connection points: 2
#     Edge 15, Type (0, 0), BuildingBlock: TEMPAE_clean_linker_10, # of connection points: 2
#     Edge 16, Type (0, 0), BuildingBlock: TEMPAE_clean_linker_10, # of connection points: 2
#     Edge 17, Type (0, 0), BuildingBlock: TEMPAE_clean_linker_10, # of connection points: 2
#     Edge 18, Type (0, 0), BuildingBlock: TEMPAE_clean_linker_10, # of connection points: 2
#     Edge 19, Type (0, 0), BuildingBlock: TEMPAE_clean_linker_10, # of connection points: 2
#     Edge 20, Type (0, 0), BuildingBlock: TEMPAE_clean_linker_10, # of connection points: 2
#     Edge 21, Type (0, 0), BuildingBlock: TEMPAE_clean_linker_10, # of connection points: 2
#     Edge 22, Type (0, 0), BuildingBlock: TEMPAE_clean_linker_10, # of connection points: 2
#     Edge 23, Type (0, 0), BuildingBlock: TEMPAE_clean_linker_10, # of connection points: 2
# Relax obj value: 0.110
# Max RMSD: 0.138
# Mean RMSD: 0.138
data_MOF--net-uoj--node1-QUQFOY_clean_sbu_3--edge1-TEMPAE_clean_linker_10
_symmetry_space_group_name_H-M    P1
_symmetry_Int_Tables_number       1
_symmetry_cell_setting            triclinic
loop_
_symmetry_equiv_pos_as_xyz
'x, y, z'
_cell_length_a     35.1215
_cell_length_b     35.055105
_cell_length_c     36.874454
_cell_angle_alpha  90.004612
_cell_angle_beta   89.981185
_cell_angle_gamma 91.627444
loop_
_atom_site_label
_atom_site_type_symbol
_atom_site_fract_x
_atom_site_fract_y
_atom_site_fract_z
_atom_type_partial_charge
C0 C 0.03277 0.2591 0.29901 0.0
O1 O -0.00338 0.25737 0.29958 0.0
Cd2 Cd 0.96071 0.2397 0.35293 0.0
O3 O 0.05172 0.24963 0.32684 0.0
Cd4 Cd 0.03945 0.22473 0.38846 0.0
C5 C -0.00291 0.30518 0.41382 0.0
O6 O -0.01642 0.18201 0.37885 0.0
O7 O -0.00033 0.19585 0.43419 0.0
O8 O 0.0858 0.17659 0.37917 0.0
C9 C -0.02097 0.17623 0.41262 0.0
O10 O 0.96933 0.29315 0.39435 0.0
C11 C 0.10627 0.1853 0.40643 0.0
O12 O 0.0278 0.28683 0.41564 0.0
O13 O 0.09698 0.21444 0.42457 0.0
C14 C 0.23557 0.84659 0.48339 0.0
O15 O 0.25388 0.84871 0.4538 0.0
Cd16 Cd 0.30675 0.89389 0.44959 0.0
O17 O 0.24799 0.86404 0.51129 0.0
Cd18 Cd 0.30396 0.90157 0.52958 0.0
C19 C 0.26885 0.97456 0.48667 0.0
O20 O 0.35792 0.8838 0.49091 0.0
O21 O 0.35686 0.94144 0.51213 0.0
O22 O 0.31823 0.85411 0.57487 0.0
C23 C 0.37551 0.91533 0.49711 0.0
O24 O 0.28293 0.95795 0.45923 0.0
C25 C 0.32004 0.87689 0.60157 0.0
O26 O 0.26839 0.95868 0.51774 0.0
O27 O 0.31298 0.91165 0.59516 0.0
C28 C 0.89928 0.63171 0.39867 0.0
O29 O 0.93291 0.64102 0.38881 0.0
Cd30 Cd -0.01594 0.65478 0.42928 0.0
O31 O 0.88999 0.63253 0.43212 0.0
Cd32 Cd 0.92045 0.65139 0.4911 0.0
C33 C 0.97206 0.57361 0.48281 0.0
O34 O 0.96365 0.70165 0.47017 0.0
O35 O -0.02161 0.67601 0.52111 0.0
O36 O 0.8669 0.69108 0.50017 0.0
C37 C -0.01487 0.70181 0.4977 0.0
O38 O -0.00911 0.59401 0.46008 0.0
C39 C 0.86203 0.68394 0.5336 0.0
O40 O 0.94226 0.58619 0.49795 0.0
O41 O 0.88305 0.65885 0.54751 0.0
C42 C 0.77599 0.00744 0.52453 0.0
O43 O 0.7614 -0.0202 0.50655 0.0
Cd44 Cd 0.70539 0.94393 0.52346 0.0
O45 O 0.76228 0.01717 0.55509 0.0
Cd46 Cd 0.71055 -0.00327 0.59699 0.0
C47 C 0.73785 0.90555 0.60344 0.0
O48 O 0.66516 -0.01034 0.54823 0.0
O49 O 0.64587 0.96856 0.60002 0.0
O50 O 0.70468 0.06455 0.61087 0.0
C51 C 0.63854 0.97486 0.56697 0.0
O52 O 0.724 0.90173 0.57172 0.0
C53 C 0.69879 0.05997 0.64456 0.0
O54 O 0.74134 0.93819 0.61859 0.0
O55 O 0.7008 0.02612 0.65662 0.0
C56 C 0.38414 0.76242 0.98506 0.0
O57 O 0.38899 0.78817 0.00891 0.0
Cd58 Cd 0.4366 0.83783 -0.00083 0.0
O59 O 0.40112 0.76505 0.9547 0.0
Cd60 Cd 0.44252 0.80909 0.92057 0.0
C61 C 0.51297 0.78376 0.97467 0.0
O62 O 0.42519 0.87139 0.94403 0.0
O63 O 0.4804 0.86699 0.91834 0.0
O64 O 0.39374 0.80686 0.87448 0.0
C65 C 0.45459 0.88799 0.93066 0.0
O66 O 0.49758 0.80623 -0.00285 0.0
C67 C 0.41593 0.80248 0.84777 0.0
O68 O 0.49747 0.77641 0.94412 0.0
O69 O 0.45107 0.79875 0.85496 0.0
C70 C 0.74967 0.51777 0.19374 0.0
O71 O 0.74913 0.4819 0.18891 0.0
Cd72 Cd 0.73929 0.45285 0.13028 0.0
O73 O 0.74348 0.54009 0.1673 0.0
Cd74 Cd 0.72843 0.53526 0.10211 0.0
C75 C 0.81239 0.49568 0.08313 0.0
O76 O 0.68489 0.47904 0.10074 0.0
O77 O 0.70565 0.50146 0.0494 0.0
O78 O 0.68136 0.58395 0.10774 0.0
C79 C 0.68338 0.47868 0.06632 0.0
O80 O 0.79834 0.46521 0.09711 0.0
C81 C 0.69585 0.60585 0.08371 0.0
O82 O 0.79372 0.52625 0.08298 0.0
O83 O 0.72699 0.59584 0.06955 0.0
C84 C 0.51197 0.2979 0.92729 0.0
O85 O 0.48672 0.28002 0.94576 0.0
Cd86 Cd 0.45131 0.22516 0.92538 0.0
O87 O 0.51864 0.28889 0.89444 0.0
Cd88 Cd 0.49202 0.24265 0.84954 0.0
C89 C 0.40105 0.26874 0.85851 0.0
O90 O 0.49481 0.18979 0.89142 0.0
O91 O 0.46299 0.17869 0.84245 0.0
O92 O 0.55688 0.2406 0.82605 0.0
C93 C 0.47751 0.16588 0.87126 0.0
O94 O 0.40139 0.24833 0.88701 0.0
C95 C 0.54738 0.23632 0.79308 0.0
O96 O 0.43161 0.27636 0.84088 0.0
O97 O 0.51213 0.23865 0.78585 0.0
C98 C 0.16016 0.42782 0.11498 0.0
O99 O 0.16715 0.46115 0.12717 0.0
Cd100 Cd 0.1738 0.51635 0.08993 0.0
O101 O 0.16034 0.42153 0.0809 0.0
Cd102 Cd 0.174 0.4583 0.02408 0.0
C103 C 0.0915 0.5001 0.03975 0.0
O104 O 0.22114 0.50492 0.04574 0.0
O105 O 0.19121 0.51973 -0.00316 0.0
O106 O 0.21792 0.41037 0.00599 0.0
C107 C 0.21791 0.52734 0.01905 0.0
O108 O 0.11038 0.51934 0.06331 0.0
C109 C 0.20601 0.40662 0.97366 0.0
O110 O 0.10712 0.47387 0.02159 0.0
O111 O 0.1772 0.42572 0.96483 0.0
C112 C 0.13862 0.36025 0.12818 0.0
C113 C 0.14777 0.39727 0.14055 0.0
C114 C 0.12231 0.33269 0.15162 0.0
C115 C 0.11459 0.34261 0.18805 0.0
C116 C 0.12522 0.37938 0.20101 0.0
C117 C 0.14188 0.40612 0.17721 0.0
C118 C 0.11203 0.2935 0.13707 0.0
C119 C 0.11737 0.39117 0.23967 0.0
C120 C 0.03337 0.29678 0.24144 0.0
C121 C 0.05306 0.27544 0.26714 0.0
C122 C 0.05298 0.31722 0.21421 0.0
C123 C 0.0932 0.3158 0.21234 0.0
C124 C 0.11297 0.29218 0.2366 0.0
C125 C 0.0927 0.2725 0.26392 0.0
C126 C 0.03086 0.3423 0.18898 0.0
C127 C 0.15575 0.28934 0.23499 0.0
H128 H 0.14323 0.35307 0.09996 0.0
H129 H 0.14893 0.43455 0.18714 0.0
H130 H 0.1225 0.27114 0.15556 0.0
H131 H 0.08059 0.28983 0.13558 0.0
H132 H 0.12399 0.28884 0.10958 0.0
H133 H 0.12876 0.42034 0.24584 0.0
H134 H 0.08619 0.39044 0.24463 0.0
H135 H 0.13019 0.37086 0.25887 0.0
H136 H 0.00275 0.29916 0.24368 0.0
H137 H 0.10809 0.25568 0.28342 0.0
H138 H 0.03889 0.33695 0.16038 0.0
H139 H 0.03793 0.37272 0.19491 0.0
H140 H -0.00042 0.33761 0.19183 0.0
H141 H 0.16532 0.28501 0.20665 0.0
H142 H 0.16612 0.26563 0.252 0.0
H143 H 0.16928 0.31642 0.24476 0.0
C144 C 0.33973 0.88965 0.66581 0.0
C145 C 0.33182 0.86353 0.63785 0.0
C146 C 0.35338 0.87733 0.6995 0.0
C147 C 0.35901 0.83794 0.7054 0.0
C148 C 0.35045 0.81139 0.67749 0.0
C149 C 0.33706 0.82451 0.64403 0.0
C150 C 0.36226 0.90652 0.72865 0.0
C151 C 0.35575 0.76916 0.68287 0.0
C152 C 0.42696 0.81282 0.78138 0.0
C153 C 0.40165 0.80598 0.81021 0.0
C154 C 0.41344 0.82229 0.74677 0.0
C155 C 0.37371 0.82462 0.74089 0.0
C156 C 0.34802 0.81584 0.76945 0.0
C157 C 0.36231 0.80675 0.80378 0.0
C158 C 0.4417 0.83145 0.71693 0.0
C159 C 0.30546 0.81752 0.76415 0.0
H160 H 0.3359 0.91983 0.66117 0.0
H161 H 0.33097 0.80413 0.62255 0.0
H162 H 0.34515 0.89994 0.75328 0.0
H163 H 0.39271 0.90532 0.73644 0.0
H164 H 0.35629 0.93603 0.71978 0.0
H165 H 0.3471 0.75218 0.65865 0.0
H166 H 0.38606 0.76374 0.68892 0.0
H167 H 0.33877 0.75886 0.70647 0.0
H168 H 0.45739 0.81244 0.78622 0.0
H169 H 0.34257 0.80133 0.82592 0.0
H170 H 0.43979 0.86192 0.70917 0.0
H171 H 0.43489 0.81418 0.69245 0.0
H172 H 0.47147 0.82604 0.72523 0.0
H173 H 0.29753 0.84737 0.75858 0.0
H174 H 0.28933 0.80717 0.7883 0.0
H175 H 0.29649 0.80012 0.74035 0.0
C176 C 0.8838 0.61241 0.33512 0.0
C177 C 0.87167 0.6176 0.371 0.0
C178 C 0.85931 0.59656 0.30888 0.0
C179 C 0.8215 0.58589 0.31854 0.0
C180 C 0.8086 0.59195 0.35441 0.0
C181 C 0.83393 0.6076 0.38033 0.0
C182 C 0.87427 0.59045 0.27094 0.0
C183 C 0.76831 0.58132 0.3655 0.0
C184 C 0.75888 0.57333 0.23573 0.0
C185 C 0.76162 0.53407 0.22916 0.0
C186 C 0.77579 0.59029 0.26644 0.0
C187 C 0.79625 0.56749 0.29091 0.0
C188 C 0.79685 0.52748 0.28577 0.0
C189 C 0.77933 0.5112 0.25503 0.0
C190 C 0.77397 0.63296 0.27129 0.0
C191 C 0.81848 0.50219 0.31118 0.0
H192 H 0.91287 0.61999 0.32756 0.0
H193 H 0.82427 0.61158 0.40795 0.0
H194 H 0.8725 0.55963 0.26406 0.0
H195 H 0.85653 0.60562 0.251 0.0
H196 H 0.90432 0.60068 0.26778 0.0
H197 H 0.76201 0.59009 0.39377 0.0
H198 H 0.74776 0.59484 0.34699 0.0
H199 H 0.76357 0.54999 0.36324 0.0
H200 H 0.74481 0.59116 0.21613 0.0
H201 H 0.78145 0.48082 0.25028 0.0
H202 H 0.80212 0.64639 0.2647 0.0
H203 H 0.76739 0.64017 0.29987 0.0
H204 H 0.75223 0.64563 0.25343 0.0
H205 H 0.84952 0.50776 0.30762 0.0
H206 H 0.81226 0.4714 0.30607 0.0
H207 H 0.81147 0.50865 0.33981 0.0
C208 C 0.56164 0.20369 0.7347 0.0
C209 C 0.57493 0.22227 0.7661 0.0
C210 C 0.586 0.18173 0.71353 0.0
C211 C 0.62474 0.17889 0.72363 0.0
C212 C 0.63906 0.20045 0.75334 0.0
C213 C 0.6139 0.22163 0.77445 0.0
C214 C 0.5695 0.1591 0.68211 0.0
C215 C 0.68038 0.19911 0.76437 0.0
C216 C 0.66766 0.08373 0.70075 0.0
C217 C 0.68552 0.09166 0.66749 0.0
C218 C 0.64897 0.11228 0.71991 0.0
C219 C 0.6487 0.14989 0.70583 0.0
C220 C 0.66883 0.15863 0.67348 0.0
C221 C 0.68669 0.12932 0.65448 0.0
C222 C 0.62767 0.10164 0.75422 0.0
C223 C 0.67008 0.19854 0.65809 0.0
H224 H 0.53158 0.204 0.72806 0.0
H225 H 0.62444 0.23616 0.79854 0.0
H226 H 0.58722 0.16342 0.65749 0.0
H227 H 0.56947 0.12822 0.68877 0.0
H228 H 0.53984 0.16707 0.67577 0.0
H229 H 0.68834 0.22225 0.78375 0.0
H230 H 0.68574 0.17131 0.77752 0.0
H231 H 0.69922 0.20149 0.74026 0.0
H232 H 0.66654 0.05471 0.71093 0.0
H233 H 0.70063 0.1357 0.62887 0.0
H234 H 0.59671 0.10555 0.75014 0.0
H235 H 0.6369 0.12062 0.77681 0.0
H236 H 0.63208 0.07159 0.76241 0.0
H237 H 0.64165 0.20538 0.64715 0.0
H238 H 0.69132 0.20184 0.6359 0.0
H239 H 0.67704 0.21972 0.67963 0.0
C240 C 0.2666 0.0371 0.45525 0.0
C241 C 0.25159 0.01191 0.48143 0.0
C242 C 0.2477 0.07038 0.44607 0.0
C243 C 0.21241 0.07787 0.46272 0.0
C244 C 0.19831 0.05369 0.49076 0.0
C245 C 0.21843 0.02112 0.50013 0.0
C246 C 0.26423 0.09607 0.41684 0.0
C247 C 0.16046 0.06041 0.50873 0.0
C248 C 0.16128 0.17055 0.44693 0.0
C249 C 0.13657 0.15994 0.41856 0.0
C250 C 0.18717 0.14455 0.46101 0.0
C251 C 0.18756 0.10702 0.44687 0.0
C252 C 0.16327 0.09656 0.41769 0.0
C253 C 0.13843 0.12328 0.40365 0.0
C254 C 0.21344 0.1569 0.49146 0.0
C255 C 0.16253 0.05667 0.40204 0.0
H256 H 0.29266 0.03022 0.4412 0.0
H257 H 0.20687 0.00158 0.52039 0.0
H258 H 0.24791 0.09165 0.39135 0.0
H259 H 0.26195 0.12651 0.42458 0.0
H260 H 0.29459 0.09014 0.41134 0.0
H261 H 0.15568 0.04173 0.53274 0.0
H262 H 0.15852 0.09059 0.51735 0.0
H263 H 0.13717 0.05458 0.48897 0.0
H264 H 0.15996 0.19892 0.45847 0.0
H265 H 0.11931 0.11482 0.38183 0.0
H266 H 0.24324 0.14971 0.48494 0.0
H267 H 0.20543 0.14132 0.51663 0.0
H268 H 0.2123 0.18803 0.49688 0.0
H269 H 0.19113 0.0497 0.39163 0.0
H270 H 0.14167 0.05314 0.37956 0.0
H271 H 0.15506 0.03562 0.42356 0.0
C272 C 0.173 0.83395 0.51314 0.0
C273 C 0.19897 0.82512 0.48568 0.0
C274 C 0.13772 0.81461 0.51575 0.0
C275 C 0.12855 0.78524 0.49072 0.0
C276 C 0.15475 0.77588 0.46313 0.0
C277 C 0.1896 0.79628 0.46068 0.0
C278 C 0.11015 0.82587 0.54507 0.0
C279 C 0.14602 0.74422 0.43637 0.0
C280 C 0.05211 0.71259 0.51832 0.0
C281 C 0.021 0.72452 0.49789 0.0
C282 C 0.08746 0.73198 0.51604 0.0
C283 C 0.09138 0.76445 0.49341 0.0
C284 C 0.05973 0.77727 0.47355 0.0
C285 C 0.02495 0.75686 0.47576 0.0
C286 C 0.12079 0.71729 0.53724 0.0
C287 C 0.0627 0.81235 0.44982 0.0
H288 H 0.17997 0.85652 0.53232 0.0
H289 H 0.20972 0.78933 0.43954 0.0
H290 H 0.0829 0.83447 0.5327 0.0
H291 H 0.1036 0.80113 0.563 0.0
H292 H 0.12148 0.84982 0.562 0.0
H293 H 0.16984 0.73991 0.4171 0.0
H294 H 0.14005 0.71709 0.45108 0.0
H295 H 0.1201 0.75075 0.42063 0.0
H296 H 0.04918 0.68738 0.53523 0.0
H297 H 0.00081 0.76616 0.46007 0.0
H298 H 0.13197 0.73968 0.55597 0.0
H299 H 0.14424 0.71027 0.51841 0.0
H300 H 0.11303 0.69143 0.55334 0.0
H301 H 0.0728 0.83729 0.46607 0.0
H302 H 0.03504 0.81919 0.43711 0.0
H303 H 0.08392 0.80806 0.42803 0.0
C304 C 0.79416 0.86868 0.61895 0.0
C305 C 0.75455 0.87154 0.61934 0.0
C306 C 0.81077 0.83281 0.61648 0.0
C307 C 0.78695 0.7995 0.61488 0.0
C308 C 0.74752 0.80228 0.6218 0.0
C309 C 0.73157 0.83848 0.62319 0.0
C310 C 0.85308 0.83111 0.60994 0.0
C311 C 0.72147 0.76734 0.62251 0.0
C312 C 0.81487 0.73501 0.53793 0.0
C313 C 0.83681 0.70793 0.55557 0.0
C314 C 0.79725 0.76389 0.55729 0.0
C315 C 0.80091 0.76535 0.59556 0.0
C316 C 0.82023 0.73615 0.61392 0.0
C317 C 0.83836 0.70787 0.59362 0.0
C318 C 0.77668 0.79418 0.53635 0.0
C319 C 0.82369 0.73574 0.65467 0.0
H320 H 0.81184 0.89434 0.6158 0.0
H321 H 0.70085 0.84082 0.62362 0.0
H322 H 0.86535 0.80712 0.62516 0.0
H323 H 0.85833 0.82619 0.58064 0.0
H324 H 0.8682 0.85807 0.618 0.0
H325 H 0.6946 0.77295 0.63724 0.0
H326 H 0.71407 0.75894 0.59431 0.0
H327 H 0.73565 0.74297 0.63552 0.0
H328 H 0.81311 0.73496 0.50857 0.0
H329 H 0.85515 0.68689 0.60749 0.0
H330 H 0.79057 0.82256 0.54117 0.0
H331 H 0.74675 0.79561 0.54572 0.0
H332 H 0.77646 0.78869 0.50667 0.0
H333 H 0.84931 0.75288 0.66281 0.0
H334 H 0.82711 0.70623 0.66493 0.0
H335 H 0.79853 0.74816 0.66795 0.0
C336 C 0.81204 0.06898 0.51673 0.0
C337 C 0.8077 0.03008 0.50856 0.0
C338 C 0.8402 0.09166 0.49968 0.0
C339 C 0.8652 0.07471 0.47466 0.0
C340 C 0.86155 0.03523 0.46697 0.0
C341 C 0.83243 0.01344 0.48368 0.0
C342 C 0.84283 0.13385 0.50801 0.0
C343 C 0.88843 0.01606 0.44122 0.0
C344 C 0.91684 0.14049 0.40816 0.0
C345 C 0.95093 0.14817 0.42672 0.0
C346 C 0.88867 0.11613 0.42324 0.0
C347 C 0.89551 0.09839 0.45705 0.0
C348 C 0.93068 0.10479 0.47502 0.0
C349 C 0.95777 0.1301 0.45986 0.0
C350 C 0.85112 0.11056 0.40376 0.0
C351 C 0.93938 0.08553 0.51059 0.0
H352 H 0.79263 0.08196 0.53565 0.0
H353 H 0.82915 -0.01671 0.47749 0.0
H354 H 0.87104 0.14134 0.51995 0.0
H355 H 0.84022 0.15053 0.4826 0.0
H356 H 0.82036 0.14275 0.5272 0.0
H357 H 0.88233 -0.01512 0.43894 0.0
H358 H 0.88638 0.02895 0.41385 0.0
H359 H 0.91826 0.02062 0.45054 0.0
H360 H 0.91159 0.1547 0.3826 0.0
H361 H -0.01558 0.13579 0.47398 0.0
H362 H 0.82782 0.12156 0.42082 0.0
H363 H 0.84486 0.07975 0.3992 0.0
H364 H 0.85081 0.12548 0.37718 0.0
H365 H 0.92012 0.09597 0.53203 0.0
H366 H 0.96928 0.09104 0.5194 0.0
H367 H 0.93426 0.05424 0.50827 0.0
C368 C 0.23052 0.5919 -0.00736 0.0
C369 C 0.2412 0.56283 0.0163 0.0
C370 C 0.25258 0.62566 0.98954 0.0
C371 C 0.28638 0.63005 0.01017 0.0
C372 C 0.2971 0.60095 0.0344 0.0
C373 C 0.27418 0.56773 0.03736 0.0
C374 C 0.2401 0.65632 0.96371 0.0
C375 C 0.33331 0.60446 0.05638 0.0
C376 C 0.36285 0.69584 0.97094 0.0
C377 C 0.35927 0.72866 -0.00772 0.0
C378 C 0.33965 0.66339 0.97691 0.0
C379 C 0.31178 0.66397 0.00457 0.0
C380 C 0.30796 0.69694 0.02629 0.0
C381 C 0.33205 0.72891 0.02007 0.0
C382 C 0.34492 0.6285 0.95355 0.0
C383 C 0.27814 0.69858 0.05571 0.0
H384 H 0.20485 0.58833 0.97653 0.0
H385 H 0.28252 0.54524 0.05565 0.0
H386 H 0.23886 0.68411 0.978 0.0
H387 H 0.26119 0.65979 0.94146 0.0
H388 H 0.21174 0.64959 0.95158 0.0
H389 H 0.33671 0.57997 0.07511 0.0
H390 H 0.35826 0.60606 0.03792 0.0
H391 H 0.33365 0.63117 0.07251 0.0
H392 H 0.38412 0.69535 0.94963 0.0
H393 H 0.32914 0.75427 0.03654 0.0
H394 H 0.31843 0.62186 0.93815 0.0
H395 H 0.35061 0.60341 0.97086 0.0
H396 H 0.36875 0.63237 0.93396 0.0
H397 H 0.24938 0.69408 0.04374 0.0
H398 H 0.27903 0.7263 0.07033 0.0
H399 H 0.28224 0.67534 0.07562 0.0
C400 C 0.69101 0.66256 0.04292 0.0
C401 C 0.67508 0.63889 0.06995 0.0
C402 C 0.66926 0.69045 0.02599 0.0
C403 C 0.63068 0.69421 0.03608 0.0
C404 C 0.61503 0.67153 0.06445 0.0
C405 C 0.63752 0.64434 0.08121 0.0
C406 C 0.68707 0.71475 -0.00361 0.0
C407 C 0.57392 0.67464 0.07594 0.0
C408 C 0.57001 0.77847 0.01436 0.0
C409 C 0.54741 0.76375 0.98598 0.0
C410 C 0.59934 0.75721 0.02928 0.0
C411 C 0.60564 0.72013 0.01589 0.0
C412 C 0.58447 0.70607 0.98579 0.0
C413 C 0.55575 0.72826 0.97096 0.0
C414 C 0.62194 0.7735 0.06077 0.0
C415 C 0.59024 0.66651 0.97092 0.0
H416 H 0.72011 0.65856 0.03421 0.0
H417 H 0.62504 0.62617 0.1021 0.0
H418 H 0.67455 0.70641 0.96984 0.0
H419 H 0.68096 0.74528 0.00082 0.0
H420 H 0.71842 0.71161 -0.00513 0.0
H421 H 0.56656 0.65581 0.09929 0.0
H422 H 0.56794 0.70449 0.08354 0.0
H423 H 0.55492 0.66678 0.05292 0.0
H424 H 0.56401 0.80619 0.02572 0.0
H425 H 0.53837 0.71679 0.94901 0.0
H426 H 0.65278 0.76863 0.05707 0.0
H427 H 0.61292 0.75883 0.08615 0.0
H428 H 0.61773 0.80458 0.06418 0.0
H429 H 0.62087 0.662 0.96565 0.0
H430 H 0.57411 0.66128 0.9454 0.0
H431 H 0.58063 0.64499 -0.00873 0.0
C432 C 0.64122 0.46596 0.01352 0.0
C433 C 0.65648 0.45361 0.04643 0.0
C434 C 0.61611 0.44238 -0.00641 0.0
C435 C 0.6072 0.40515 0.00638 0.0
C436 C 0.62264 0.39251 0.03964 0.0
C437 C 0.64668 0.41724 0.05965 0.0
C438 C 0.59919 0.45726 0.95888 0.0
C439 C 0.61451 0.35261 0.0536 0.0
C440 C 0.51986 0.35035 0.97232 0.0
C441 C 0.53556 0.32762 0.94523 0.0
C442 C 0.54269 0.37664 -0.00827 0.0
C443 C 0.58227 0.37917 0.98462 0.0
C444 C 0.59819 0.35646 0.95704 0.0
C445 C 0.57445 0.33134 0.93722 0.0
C446 C 0.52455 0.40136 0.02009 0.0
C447 C 0.64045 0.35777 0.94931 0.0
H448 H 0.6486 0.49432 0.00355 0.0
H449 H 0.65877 0.40774 0.08503 0.0
H450 H 0.60886 0.44011 0.93553 0.0
H451 H 0.56766 0.45439 0.95988 0.0
H452 H 0.6073 0.48767 0.95388 0.0
H453 H 0.62923 0.34709 0.07966 0.0
H454 H 0.58344 0.34788 0.05763 0.0
H455 H 0.62379 0.33143 0.03329 0.0
H456 H 0.48969 0.34751 0.97832 0.0
H457 H 0.5866 0.31337 0.91652 0.0
H458 H 0.53202 0.43186 0.01498 0.0
H459 H 0.53568 0.39419 0.04732 0.0
H460 H 0.49303 0.39771 0.02053 0.0
H461 H 0.64994 0.38715 0.94176 0.0
H462 H 0.64827 0.33808 0.92709 0.0
H463 H 0.65632 0.34995 0.97412 0.0
C464 C 0.36658 0.32873 0.85021 0.0
C465 C 0.36567 0.28881 0.85117 0.0
C466 C 0.3343 0.34902 0.86023 0.0
C467 C 0.30072 0.32864 0.87095 0.0
C468 C 0.29802 0.28869 0.86568 0.0
C469 C 0.3308 0.26912 0.85624 0.0
C470 C 0.33804 0.39174 0.86455 0.0
C471 C 0.26226 0.26601 0.87523 0.0
C472 C 0.25865 0.3634 0.95894 0.0
C473 C 0.22714 0.38361 0.94715 0.0
C474 C 0.28225 0.34511 0.93429 0.0
C475 C 0.27403 0.34667 0.89669 0.0
C476 C 0.24132 0.36564 0.88459 0.0
C477 C 0.2183 0.38415 0.91002 0.0
C478 C 0.31665 0.32492 0.94863 0.0
C479 C 0.23128 0.36762 0.84487 0.0
H480 H 0.39356 0.34398 0.84621 0.0
H481 H 0.33007 0.23816 0.85654 0.0
H482 H 0.31151 0.40564 0.85604 0.0
H483 H 0.343 0.39869 0.89357 0.0
H484 H 0.36227 0.4039 0.84853 0.0
H485 H 0.26154 0.23763 0.8618 0.0
H486 H 0.26124 0.26146 0.905 0.0
H487 H 0.23648 0.28159 0.86735 0.0
H488 H 0.26559 0.36268 0.98757 0.0
H489 H 0.19402 0.39985 0.90069 0.0
H490 H 0.34306 0.33775 0.93672 0.0
H491 H 0.31517 0.29439 0.94067 0.0
H492 H 0.31895 0.32653 0.97864 0.0
H493 H 0.24902 0.3904 0.83177 0.0
H494 H 0.20088 0.37445 0.84083 0.0
H495 H 0.23706 0.34038 0.83085 0.0
C496 C 0.01339 0.5194 0.46749 0.0
C497 C -0.01775 0.53314 0.48694 0.0
C498 C 0.01831 0.48025 0.46306 0.0
C499 C -0.00804 0.45414 0.47918 0.0
C500 C 0.96329 0.46768 0.50251 0.0
C501 C 0.95849 0.50718 0.50588 0.0
C502 C 0.04925 0.46711 0.43786 0.0
C503 C 0.9357 0.44057 0.52141 0.0
C504 C 0.96918 0.36917 0.41937 0.0
C505 C -0.00611 0.34194 0.4329 0.0
C506 C 0.96737 0.40534 0.43515 0.0
C507 C -0.00986 0.41419 0.46588 0.0
C508 C 0.01362 0.38612 0.48095 0.0
C509 C 0.01575 0.35041 0.46385 0.0
C510 C 0.94243 0.43466 0.41776 0.0
C511 C 0.03732 0.39409 0.51437 0.0
H512 H 0.03247 0.53921 0.45339 0.0
H513 H 0.93479 0.51752 0.52154 0.0
H514 H 0.065 0.44343 0.45019 0.0
H515 H 0.03614 0.4562 0.41236 0.0
H516 H 0.06994 0.49053 0.4309 0.0
H517 H 0.92118 0.45458 0.54441 0.0
H518 H 0.91364 0.43042 0.50186 0.0
H519 H 0.9505 0.41519 0.53168 0.0
H520 H 0.95228 0.36275 0.39542 0.0
H521 H 0.03451 0.32917 0.47465 0.0
H522 H 0.96032 0.45917 0.40799 0.0
H523 H 0.92214 0.44581 0.43793 0.0
H524 H 0.92591 0.42284 0.39444 0.0
H525 H 0.06286 0.41169 0.50692 0.0
H526 H 0.04703 0.36735 0.52711 0.0
H527 H 0.02102 0.41036 0.53468 0.0
C528 C 0.59954 0.95916 0.51225 0.0
C529 C 0.60277 0.96124 0.55013 0.0
C530 C 0.56517 0.94744 0.4959 0.0
C531 C 0.53335 0.93842 0.51805 0.0
C532 C 0.53687 0.93926 0.55632 0.0
C533 C 0.5717 0.95046 0.57191 0.0
C534 C 0.56255 0.94613 0.45505 0.0
C535 C 0.50338 0.93006 0.58087 0.0
C536 C 0.43252 0.95788 0.49288 0.0
C537 C 0.41672 0.92077 0.4918 0.0
C538 C 0.47156 0.96412 0.49801 0.0
C539 C 0.49516 0.93238 0.50191 0.0
C540 C 0.48004 0.89495 0.49651 0.0
C541 C 0.44066 0.88951 0.49153 0.0
C542 C 0.48665 0.00454 0.50327 0.0
C543 C 0.50469 0.86055 0.4995 0.0
H544 H 0.62378 0.96697 0.49534 0.0
H545 H 0.57426 0.95188 0.60118 0.0
H546 H 0.54716 0.91974 0.446 0.0
H547 H 0.54622 0.97071 0.44525 0.0
H548 H 0.59111 0.94743 0.44208 0.0
H549 H 0.51147 0.93014 0.61 0.0
H550 H 0.481 0.95137 0.57678 0.0
H551 H 0.49069 0.90163 0.57405 0.0
H552 H 0.41401 -0.01789 0.49231 0.0
H553 H 0.42845 0.86079 0.49032 0.0
H554 H 0.51343 0.00952 0.48785 0.0
H555 H 0.4932 0.00931 0.5324 0.0
H556 H 0.46578 0.02596 0.49461 0.0
H557 H 0.53277 0.86601 0.48643 0.0
H558 H 0.49085 0.8349 0.48694 0.0
H559 H 0.50988 0.85429 0.52855 0.0
C560 C 0.48348 0.1145 0.91723 0.0
C561 C 0.47146 0.12602 0.88277 0.0
C562 C 0.47923 0.07643 0.92822 0.0
C563 C 0.46281 0.0494 0.90401 0.0
C564 C 0.44981 0.06098 0.86951 0.0
C565 C 0.45423 0.09931 0.8593 0.0
C566 C 0.49325 0.06497 0.96527 0.0
C567 C 0.4323 0.03271 0.84299 0.0
C568 C 0.49045 0.94654 0.91131 0.0
C569 C 0.45781 0.92974 0.92717 0.0
C570 C 0.49272 -0.01428 0.90439 0.0
C571 C 0.46164 0.00853 0.91369 0.0
C572 C 0.42915 -0.00796 0.93089 0.0
C573 C 0.4276 0.95266 0.93744 0.0
C574 C 0.5279 0.00247 0.88609 0.0
C575 C 0.39566 0.01578 0.94136 0.0
H576 H 0.49661 0.13516 0.93556 0.0
H577 H 0.44487 0.10819 0.83267 0.0
H578 H 0.47042 0.04909 0.98022 0.0
H579 H 0.51748 0.04557 0.96234 0.0
H580 H 0.50278 0.08996 0.98179 0.0
H581 H 0.42179 0.04674 0.81806 0.0
H582 H 0.45373 0.01159 0.83507 0.0
H583 H 0.40819 0.0167 0.85588 0.0
H584 H 0.51396 0.92893 0.90346 0.0
H585 H 0.40236 0.93973 0.94977 0.0
H586 H 0.5402 0.02628 0.90252 0.0
H587 H 0.52017 0.01438 0.85929 0.0
H588 H 0.55014 -0.01902 0.88195 0.0
H589 H 0.40533 0.04041 0.95822 0.0
H590 H 0.37365 -0.00099 0.95663 0.0
H591 H 0.38235 0.02747 0.9166 0.0
C592 C 0.02799 0.48529 0.01115 0.0
C593 C 0.04995 0.50533 0.03703 0.0
C594 C -0.01196 0.48551 0.01232 0.0
C595 C 0.96987 0.50567 0.04039 0.0
C596 C -0.00812 0.5278 0.06517 0.0
C597 C 0.03163 0.52765 0.06296 0.0
C598 C 0.96538 0.46248 0.98482 0.0
C599 C 0.9736 0.54946 0.09571 0.0
C600 C 0.8644 0.52488 0.04494 0.0
C601 C 0.85161 0.49602 0.06873 0.0
C602 C 0.90249 0.52703 0.03346 0.0
C603 C 0.92841 0.50027 0.04685 0.0
C604 C 0.91531 0.47028 0.0698 0.0
C605 C 0.87696 0.46831 0.08015 0.0
C606 C 0.9153 0.55876 0.0082 0.0
C607 C 0.94221 0.44148 0.08507 0.0
H608 H 0.04194 0.46833 -0.00925 0.0
H609 H 0.0483 0.54345 0.08295 0.0
H610 H 0.95353 0.43619 -0.00215 0.0
H611 H 0.94101 0.47887 0.97466 0.0
H612 H -0.01684 0.454 0.9614 0.0
H613 H -0.00542 0.56748 0.11103 0.0
H614 H 0.95114 0.56802 0.08506 0.0
H615 H 0.95973 0.52897 0.11487 0.0
H616 H 0.84474 0.54608 0.03566 0.0
H617 H 0.86723 0.44596 0.09854 0.0
H618 H 0.93313 0.54744 0.98604 0.0
H619 H 0.93306 0.58004 0.02333 0.0
H620 H 0.89083 0.5736 -0.00392 0.0
H621 H 0.95821 0.42782 0.06289 0.0
H622 H 0.9271 0.4188 0.101 0.0
H623 H 0.96336 0.45615 0.103 0.0
loop_
_geom_bond_atom_site_label_1
_geom_bond_atom_site_label_2
_geom_bond_distance
_geom_bond_site_symmetry_2
_ccdc_geom_bond_type
C0 O1 1.306 . S
C0 O3 1.160 . S
O1 C0 1.306 . S
O1 Cd2 2.228 . S
Cd2 O1 2.228 . S
Cd2 O6 2.273 . S
Cd2 O10 2.277 . S
O3 C0 1.160 . S
O3 Cd4 2.203 . S
Cd4 O3 2.203 . S
Cd4 O6 2.411 . S
Cd4 O7 2.333 . S
Cd4 O8 2.352 . S
Cd4 O12 2.277 . S
Cd4 O13 2.356 . S
C5 O10 1.209 . S
C5 O12 1.226 . S
O6 Cd2 2.273 . S
O6 Cd4 2.411 . S
O6 C9 1.320 . S
O7 Cd4 2.333 . S
O7 C9 1.214 . S
O8 Cd4 2.352 . S
O8 C11 1.258 . S
C9 O6 1.320 . S
C9 O7 1.214 . S
O10 Cd2 2.277 . S
O10 C5 1.209 . S
C11 O8 1.258 . S
C11 O13 1.282 . S
O12 Cd4 2.277 . S
O12 C5 1.226 . S
O13 Cd4 2.356 . S
O13 C11 1.282 . S
C14 O15 1.306 . S
C14 O17 1.160 . S
O15 C14 1.306 . S
O15 Cd16 2.228 . S
Cd16 O15 2.228 . S
Cd16 O20 2.273 . S
Cd16 O24 2.277 . S
O17 C14 1.160 . S
O17 Cd18 2.203 . S
Cd18 O17 2.203 . S
Cd18 O20 2.411 . S
Cd18 O21 2.333 . S
Cd18 O22 2.352 . S
Cd18 O26 2.277 . S
Cd18 O27 2.356 . S
C19 O24 1.209 . S
C19 O26 1.226 . S
O20 Cd16 2.273 . S
O20 Cd18 2.411 . S
O20 C23 1.320 . S
O21 Cd18 2.333 . S
O21 C23 1.214 . S
O22 Cd18 2.352 . S
O22 C25 1.258 . S
C23 O20 1.320 . S
C23 O21 1.214 . S
O24 Cd16 2.277 . S
O24 C19 1.209 . S
C25 O22 1.258 . S
C25 O27 1.282 . S
O26 Cd18 2.277 . S
O26 C19 1.226 . S
O27 Cd18 2.356 . S
O27 C25 1.282 . S
C28 O29 1.306 . S
C28 O31 1.160 . S
O29 C28 1.306 . S
O29 Cd30 2.228 . S
Cd30 O29 2.228 . S
Cd30 O34 2.273 . S
Cd30 O38 2.277 . S
O31 C28 1.160 . S
O31 Cd32 2.203 . S
Cd32 O31 2.203 . S
Cd32 O34 2.411 . S
Cd32 O35 2.333 . S
Cd32 O36 2.352 . S
Cd32 O40 2.277 . S
Cd32 O41 2.356 . S
C33 O38 1.209 . S
C33 O40 1.226 . S
O34 Cd30 2.273 . S
O34 Cd32 2.411 . S
O34 C37 1.320 . S
O35 Cd32 2.333 . S
O35 C37 1.214 . S
O36 Cd32 2.352 . S
O36 C39 1.258 . S
C37 O34 1.320 . S
C37 O35 1.214 . S
O38 Cd30 2.277 . S
O38 C33 1.209 . S
C39 O36 1.258 . S
C39 O41 1.282 . S
O40 Cd32 2.277 . S
O40 C33 1.226 . S
O41 Cd32 2.356 . S
O41 C39 1.282 . S
C42 O43 1.306 . S
C42 O45 1.160 . S
O43 C42 1.306 . S
O43 Cd44 2.228 . S
Cd44 O43 2.228 . S
Cd44 O48 2.273 . S
Cd44 O52 2.277 . S
O45 C42 1.160 . S
O45 Cd46 2.203 . S
Cd46 O45 2.203 . S
Cd46 O48 2.411 . S
Cd46 O49 2.333 . S
Cd46 O50 2.352 . S
Cd46 O54 2.277 . S
Cd46 O55 2.356 . S
C47 O52 1.209 . S
C47 O54 1.226 . S
O48 Cd44 2.273 . S
O48 Cd46 2.411 . S
O48 C51 1.320 . S
O49 Cd46 2.333 . S
O49 C51 1.214 . S
O50 Cd46 2.352 . S
O50 C53 1.258 . S
C51 O48 1.320 . S
C51 O49 1.214 . S
O52 Cd44 2.277 . S
O52 C47 1.209 . S
C53 O50 1.258 . S
C53 O55 1.282 . S
O54 Cd46 2.277 . S
O54 C47 1.226 . S
O55 Cd46 2.356 . S
O55 C53 1.282 . S
C56 O57 1.306 1_556 S
C56 O59 1.160 . S
O57 C56 1.306 1_554 S
O57 Cd58 2.228 . S
Cd58 O57 2.228 . S
Cd58 O62 2.273 1_554 S
Cd58 O66 2.277 . S
O59 C56 1.160 . S
O59 Cd60 2.203 . S
Cd60 O59 2.203 . S
Cd60 O62 2.411 . S
Cd60 O63 2.333 . S
Cd60 O64 2.352 . S
Cd60 O68 2.277 . S
Cd60 O69 2.356 . S
C61 O66 1.209 1_556 S
C61 O68 1.226 . S
O62 Cd58 2.273 1_556 S
O62 Cd60 2.411 . S
O62 C65 1.320 . S
O63 Cd60 2.333 . S
O63 C65 1.214 . S
O64 Cd60 2.352 . S
O64 C67 1.258 . S
C65 O62 1.320 . S
C65 O63 1.214 . S
O66 Cd58 2.277 . S
O66 C61 1.209 1_554 S
C67 O64 1.258 . S
C67 O69 1.282 . S
O68 Cd60 2.277 . S
O68 C61 1.226 . S
O69 Cd60 2.356 . S
O69 C67 1.282 . S
C70 O71 1.306 . S
C70 O73 1.160 . S
O71 C70 1.306 . S
O71 Cd72 2.228 . S
Cd72 O71 2.228 . S
Cd72 O76 2.273 . S
Cd72 O80 2.277 . S
O73 C70 1.160 . S
O73 Cd74 2.203 . S
Cd74 O73 2.203 . S
Cd74 O76 2.411 . S
Cd74 O77 2.333 . S
Cd74 O78 2.352 . S
Cd74 O82 2.277 . S
Cd74 O83 2.356 1_554 S
C75 O80 1.209 . S
C75 O82 1.226 . S
O76 Cd72 2.273 . S
O76 Cd74 2.411 . S
O76 C79 1.320 . S
O77 Cd74 2.333 . S
O77 C79 1.214 . S
O78 Cd74 2.352 . S
O78 C81 1.258 . S
C79 O76 1.320 . S
C79 O77 1.214 . S
O80 Cd72 2.277 . S
O80 C75 1.209 . S
C81 O78 1.258 . S
C81 O83 1.282 1_554 S
O82 Cd74 2.277 . S
O82 C75 1.226 . S
O83 Cd74 2.356 1_556 S
O83 C81 1.282 1_556 S
C84 O85 1.306 1_556 S
C84 O87 1.160 . S
O85 C84 1.306 1_554 S
O85 Cd86 2.228 . S
Cd86 O85 2.228 . S
Cd86 O90 2.273 1_554 S
Cd86 O94 2.277 . S
O87 C84 1.160 . S
O87 Cd88 2.203 . S
Cd88 O87 2.203 . S
Cd88 O90 2.411 . S
Cd88 O91 2.333 . S
Cd88 O92 2.352 . S
Cd88 O96 2.277 . S
Cd88 O97 2.356 . S
C89 O94 1.209 1_556 S
C89 O96 1.226 . S
O90 Cd86 2.273 1_556 S
O90 Cd88 2.411 . S
O90 C93 1.320 . S
O91 Cd88 2.333 . S
O91 C93 1.214 . S
O92 Cd88 2.352 . S
O92 C95 1.258 . S
C93 O90 1.320 . S
C93 O91 1.214 . S
O94 Cd86 2.277 . S
O94 C89 1.209 1_554 S
C95 O92 1.258 . S
C95 O97 1.282 . S
O96 Cd88 2.277 . S
O96 C89 1.226 . S
O97 Cd88 2.356 . S
O97 C95 1.282 . S
C98 O99 1.306 . S
C98 O101 1.160 . S
O99 C98 1.306 . S
O99 Cd100 2.228 . S
Cd100 O99 2.228 . S
Cd100 O104 2.273 . S
Cd100 O108 2.277 . S
O101 C98 1.160 . S
O101 Cd102 2.203 . S
Cd102 O101 2.203 . S
Cd102 O104 2.411 . S
Cd102 O105 2.333 . S
Cd102 O106 2.352 . S
Cd102 O110 2.277 . S
Cd102 O111 2.356 1_554 S
C103 O108 1.209 . S
C103 O110 1.226 . S
O104 Cd100 2.273 . S
O104 Cd102 2.411 . S
O104 C107 1.320 . S
O105 Cd102 2.333 . S
O105 C107 1.214 . S
O106 Cd102 2.352 . S
O106 C109 1.258 . S
C107 O104 1.320 . S
C107 O105 1.214 . S
O108 Cd100 2.277 . S
O108 C103 1.209 . S
C109 O106 1.258 . S
C109 O111 1.282 1_554 S
O110 Cd102 2.277 . S
O110 C103 1.226 . S
O111 Cd102 2.356 1_556 S
O111 C109 1.282 1_556 S
C112 C113 1.391 . S
C112 C114 1.394 . S
C112 H128 0.931 . S
C113 C112 1.391 . S
C113 C117 1.376 . S
C114 C112 1.394 . S
C114 C115 1.369 . S
C114 C118 1.531 . S
C115 C114 1.369 . S
C115 C116 1.410 . S
C115 C123 1.503 . S
C116 C115 1.410 . S
C116 C117 1.392 . S
C116 C119 1.511 . S
C117 C113 1.376 . S
C117 C116 1.392 . S
C117 H129 0.929 . S
C118 C114 1.531 . S
C118 H130 0.960 . S
C118 H131 0.962 . S
C118 H132 0.960 . S
C119 C116 1.511 . S
C119 H133 0.961 . S
C119 H134 0.961 . S
C119 H135 0.961 . S
C120 C121 1.370 . S
C120 C122 1.363 . S
C120 H136 0.931 . S
C121 C120 1.370 . S
C121 C125 1.408 . S
C122 C120 1.363 . S
C122 C123 1.370 . S
C122 C126 1.524 . S
C123 C115 1.503 . S
C123 C122 1.370 . S
C123 C124 1.403 . S
C124 C123 1.403 . S
C124 C125 1.404 . S
C124 C127 1.539 . S
C125 C121 1.408 . S
C125 C124 1.404 . S
C125 H137 0.930 . S
C126 C122 1.524 . S
C126 H138 0.956 . S
C126 H139 0.961 . S
C126 H140 0.961 . S
C127 C124 1.539 . S
C127 H141 0.958 . S
C127 H142 0.961 . S
C127 H143 0.960 . S
H128 C112 0.931 . S
H129 C117 0.929 . S
H130 C118 0.960 . S
H131 C118 0.962 . S
H132 C118 0.960 . S
H133 C119 0.961 . S
H134 C119 0.961 . S
H135 C119 0.961 . S
H136 C120 0.931 . S
H137 C125 0.930 . S
H138 C126 0.956 . S
H139 C126 0.961 . S
H140 C126 0.961 . S
H141 C127 0.958 . S
H142 C127 0.961 . S
H143 C127 0.960 . S
C144 C145 1.391 . S
C144 C146 1.394 . S
C144 H160 0.931 . S
C145 C144 1.391 . S
C145 C149 1.376 . S
C146 C144 1.394 . S
C146 C147 1.369 . S
C146 C150 1.531 . S
C147 C146 1.369 . S
C147 C148 1.410 . S
C147 C155 1.503 . S
C148 C147 1.410 . S
C148 C149 1.392 . S
C148 C151 1.511 . S
C149 C145 1.376 . S
C149 C148 1.392 . S
C149 H161 0.929 . S
C150 C146 1.531 . S
C150 H162 0.960 . S
C150 H163 0.962 . S
C150 H164 0.960 . S
C151 C148 1.511 . S
C151 H165 0.961 . S
C151 H166 0.961 . S
C151 H167 0.961 . S
C152 C153 1.370 . S
C152 C154 1.363 . S
C152 H168 0.931 . S
C153 C152 1.370 . S
C153 C157 1.408 . S
C154 C152 1.363 . S
C154 C155 1.370 . S
C154 C158 1.524 . S
C155 C147 1.503 . S
C155 C154 1.370 . S
C155 C156 1.403 . S
C156 C155 1.403 . S
C156 C157 1.404 . S
C156 C159 1.539 . S
C157 C153 1.408 . S
C157 C156 1.404 . S
C157 H169 0.930 . S
C158 C154 1.524 . S
C158 H170 0.956 . S
C158 H171 0.961 . S
C158 H172 0.961 . S
C159 C156 1.539 . S
C159 H173 0.958 . S
C159 H174 0.961 . S
C159 H175 0.960 . S
H160 C144 0.931 . S
H161 C149 0.929 . S
H162 C150 0.960 . S
H163 C150 0.962 . S
H164 C150 0.960 . S
H165 C151 0.961 . S
H166 C151 0.961 . S
H167 C151 0.961 . S
H168 C152 0.931 . S
H169 C157 0.930 . S
H170 C158 0.956 . S
H171 C158 0.961 . S
H172 C158 0.961 . S
H173 C159 0.958 . S
H174 C159 0.961 . S
H175 C159 0.960 . S
C176 C177 1.391 . S
C176 C178 1.394 . S
C176 H192 0.931 . S
C177 C176 1.391 . S
C177 C181 1.376 . S
C178 C176 1.394 . S
C178 C179 1.369 . S
C178 C182 1.531 . S
C179 C178 1.369 . S
C179 C180 1.410 . S
C179 C187 1.503 . S
C180 C179 1.410 . S
C180 C181 1.392 . S
C180 C183 1.511 . S
C181 C177 1.376 . S
C181 C180 1.392 . S
C181 H193 0.929 . S
C182 C178 1.531 . S
C182 H194 0.960 . S
C182 H195 0.962 . S
C182 H196 0.960 . S
C183 C180 1.511 . S
C183 H197 0.961 . S
C183 H198 0.961 . S
C183 H199 0.961 . S
C184 C185 1.370 . S
C184 C186 1.363 . S
C184 H200 0.931 . S
C185 C184 1.370 . S
C185 C189 1.408 . S
C186 C184 1.363 . S
C186 C187 1.370 . S
C186 C190 1.524 . S
C187 C179 1.503 . S
C187 C186 1.370 . S
C187 C188 1.403 . S
C188 C187 1.403 . S
C188 C189 1.404 . S
C188 C191 1.539 . S
C189 C185 1.408 . S
C189 C188 1.404 . S
C189 H201 0.930 . S
C190 C186 1.524 . S
C190 H202 0.956 . S
C190 H203 0.961 . S
C190 H204 0.961 . S
C191 C188 1.539 . S
C191 H205 0.958 . S
C191 H206 0.961 . S
C191 H207 0.960 . S
H192 C176 0.931 . S
H193 C181 0.929 . S
H194 C182 0.960 . S
H195 C182 0.962 . S
H196 C182 0.960 . S
H197 C183 0.961 . S
H198 C183 0.961 . S
H199 C183 0.961 . S
H200 C184 0.931 . S
H201 C189 0.930 . S
H202 C190 0.956 . S
H203 C190 0.961 . S
H204 C190 0.961 . S
H205 C191 0.958 . S
H206 C191 0.961 . S
H207 C191 0.960 . S
C208 C209 1.391 . S
C208 C210 1.394 . S
C208 H224 0.931 . S
C209 C208 1.391 . S
C209 C213 1.376 . S
C210 C208 1.394 . S
C210 C211 1.369 . S
C210 C214 1.531 . S
C211 C210 1.369 . S
C211 C212 1.410 . S
C211 C219 1.503 . S
C212 C211 1.410 . S
C212 C213 1.392 . S
C212 C215 1.511 . S
C213 C209 1.376 . S
C213 C212 1.392 . S
C213 H225 0.929 . S
C214 C210 1.531 . S
C214 H226 0.960 . S
C214 H227 0.962 . S
C214 H228 0.960 . S
C215 C212 1.511 . S
C215 H229 0.961 . S
C215 H230 0.961 . S
C215 H231 0.961 . S
C216 C217 1.370 . S
C216 C218 1.363 . S
C216 H232 0.931 . S
C217 C216 1.370 . S
C217 C221 1.408 . S
C218 C216 1.363 . S
C218 C219 1.370 . S
C218 C222 1.524 . S
C219 C211 1.503 . S
C219 C218 1.370 . S
C219 C220 1.403 . S
C220 C219 1.403 . S
C220 C221 1.404 . S
C220 C223 1.539 . S
C221 C217 1.408 . S
C221 C220 1.404 . S
C221 H233 0.930 . S
C222 C218 1.524 . S
C222 H234 0.956 . S
C222 H235 0.961 . S
C222 H236 0.961 . S
C223 C220 1.539 . S
C223 H237 0.958 . S
C223 H238 0.961 . S
C223 H239 0.960 . S
H224 C208 0.931 . S
H225 C213 0.929 . S
H226 C214 0.960 . S
H227 C214 0.962 . S
H228 C214 0.960 . S
H229 C215 0.961 . S
H230 C215 0.961 . S
H231 C215 0.961 . S
H232 C216 0.931 . S
H233 C221 0.930 . S
H234 C222 0.956 . S
H235 C222 0.961 . S
H236 C222 0.961 . S
H237 C223 0.958 . S
H238 C223 0.961 . S
H239 C223 0.960 . S
C240 C241 1.391 . S
C240 C242 1.394 . S
C240 H256 0.931 . S
C241 C240 1.391 . S
C241 C245 1.376 . S
C242 C240 1.394 . S
C242 C243 1.369 . S
C242 C246 1.531 . S
C243 C242 1.369 . S
C243 C244 1.410 . S
C243 C251 1.503 . S
C244 C243 1.410 . S
C244 C245 1.392 . S
C244 C247 1.511 . S
C245 C241 1.376 . S
C245 C244 1.392 . S
C245 H257 0.929 . S
C246 C242 1.531 . S
C246 H258 0.960 . S
C246 H259 0.962 . S
C246 H260 0.960 . S
C247 C244 1.511 . S
C247 H261 0.961 . S
C247 H262 0.961 . S
C247 H263 0.961 . S
C248 C249 1.370 . S
C248 C250 1.363 . S
C248 H264 0.931 . S
C249 C248 1.370 . S
C249 C253 1.408 . S
C250 C248 1.363 . S
C250 C251 1.370 . S
C250 C254 1.524 . S
C251 C243 1.503 . S
C251 C250 1.370 . S
C251 C252 1.403 . S
C252 C251 1.403 . S
C252 C253 1.404 . S
C252 C255 1.539 . S
C253 C249 1.408 . S
C253 C252 1.404 . S
C253 H265 0.930 . S
C254 C250 1.524 . S
C254 H266 0.956 . S
C254 H267 0.961 . S
C254 H268 0.961 . S
C255 C252 1.539 . S
C255 H269 0.958 . S
C255 H270 0.961 . S
C255 H271 0.960 . S
H256 C240 0.931 . S
H257 C245 0.929 . S
H258 C246 0.960 . S
H259 C246 0.962 . S
H260 C246 0.960 . S
H261 C247 0.961 . S
H262 C247 0.961 . S
H263 C247 0.961 . S
H264 C248 0.931 . S
H265 C253 0.930 . S
H266 C254 0.956 . S
H267 C254 0.961 . S
H268 C254 0.961 . S
H269 C255 0.958 . S
H270 C255 0.961 . S
H271 C255 0.960 . S
C272 C273 1.391 . S
C272 C274 1.394 . S
C272 H288 0.931 . S
C273 C272 1.391 . S
C273 C277 1.376 . S
C274 C272 1.394 . S
C274 C275 1.369 . S
C274 C278 1.531 . S
C275 C274 1.369 . S
C275 C276 1.410 . S
C275 C283 1.503 . S
C276 C275 1.410 . S
C276 C277 1.392 . S
C276 C279 1.511 . S
C277 C273 1.376 . S
C277 C276 1.392 . S
C277 H289 0.929 . S
C278 C274 1.531 . S
C278 H290 0.960 . S
C278 H291 0.962 . S
C278 H292 0.960 . S
C279 C276 1.511 . S
C279 H293 0.961 . S
C279 H294 0.961 . S
C279 H295 0.961 . S
C280 C281 1.370 . S
C280 C282 1.363 . S
C280 H296 0.931 . S
C281 C280 1.370 . S
C281 C285 1.408 . S
C282 C280 1.363 . S
C282 C283 1.370 . S
C282 C286 1.524 . S
C283 C275 1.503 . S
C283 C282 1.370 . S
C283 C284 1.403 . S
C284 C283 1.403 . S
C284 C285 1.404 . S
C284 C287 1.539 . S
C285 C281 1.408 . S
C285 C284 1.404 . S
C285 H297 0.930 . S
C286 C282 1.524 . S
C286 H298 0.956 . S
C286 H299 0.961 . S
C286 H300 0.961 . S
C287 C284 1.539 . S
C287 H301 0.958 . S
C287 H302 0.961 . S
C287 H303 0.960 . S
H288 C272 0.931 . S
H289 C277 0.929 . S
H290 C278 0.960 . S
H291 C278 0.962 . S
H292 C278 0.960 . S
H293 C279 0.961 . S
H294 C279 0.961 . S
H295 C279 0.961 . S
H296 C280 0.931 . S
H297 C285 0.930 . S
H298 C286 0.956 . S
H299 C286 0.961 . S
H300 C286 0.961 . S
H301 C287 0.958 . S
H302 C287 0.961 . S
H303 C287 0.960 . S
C304 C305 1.391 . S
C304 C306 1.394 . S
C304 H320 0.931 . S
C305 C304 1.391 . S
C305 C309 1.376 . S
C306 C304 1.394 . S
C306 C307 1.369 . S
C306 C310 1.531 . S
C307 C306 1.369 . S
C307 C308 1.410 . S
C307 C315 1.503 . S
C308 C307 1.410 . S
C308 C309 1.392 . S
C308 C311 1.511 . S
C309 C305 1.376 . S
C309 C308 1.392 . S
C309 H321 0.929 . S
C310 C306 1.531 . S
C310 H322 0.960 . S
C310 H323 0.962 . S
C310 H324 0.960 . S
C311 C308 1.511 . S
C311 H325 0.961 . S
C311 H326 0.961 . S
C311 H327 0.961 . S
C312 C313 1.370 . S
C312 C314 1.363 . S
C312 H328 0.931 . S
C313 C312 1.370 . S
C313 C317 1.408 . S
C314 C312 1.363 . S
C314 C315 1.370 . S
C314 C318 1.524 . S
C315 C307 1.503 . S
C315 C314 1.370 . S
C315 C316 1.403 . S
C316 C315 1.403 . S
C316 C317 1.404 . S
C316 C319 1.539 . S
C317 C313 1.408 . S
C317 C316 1.404 . S
C317 H329 0.930 . S
C318 C314 1.524 . S
C318 H330 0.956 . S
C318 H331 0.961 . S
C318 H332 0.961 . S
C319 C316 1.539 . S
C319 H333 0.958 . S
C319 H334 0.961 . S
C319 H335 0.960 . S
H320 C304 0.931 . S
H321 C309 0.929 . S
H322 C310 0.960 . S
H323 C310 0.962 . S
H324 C310 0.960 . S
H325 C311 0.961 . S
H326 C311 0.961 . S
H327 C311 0.961 . S
H328 C312 0.931 . S
H329 C317 0.930 . S
H330 C318 0.956 . S
H331 C318 0.961 . S
H332 C318 0.961 . S
H333 C319 0.958 . S
H334 C319 0.961 . S
H335 C319 0.960 . S
C336 C337 1.391 . S
C336 C338 1.394 . S
C336 H352 0.931 . S
C337 C336 1.391 . S
C337 C341 1.376 . S
C338 C336 1.394 . S
C338 C339 1.369 . S
C338 C342 1.531 . S
C339 C338 1.369 . S
C339 C340 1.410 . S
C339 C347 1.503 . S
C340 C339 1.410 . S
C340 C341 1.392 . S
C340 C343 1.511 . S
C341 C337 1.376 . S
C341 C340 1.392 . S
C341 H353 0.929 . S
C342 C338 1.531 . S
C342 H354 0.960 . S
C342 H355 0.962 . S
C342 H356 0.960 . S
C343 C340 1.511 . S
C343 H357 0.961 . S
C343 H358 0.961 . S
C343 H359 0.961 . S
C344 C345 1.370 . S
C344 C346 1.363 . S
C344 H360 0.931 . S
C345 C344 1.370 . S
C345 C349 1.408 . S
C346 C344 1.363 . S
C346 C347 1.370 . S
C346 C350 1.524 . S
C347 C339 1.503 . S
C347 C346 1.370 . S
C347 C348 1.403 . S
C348 C347 1.403 . S
C348 C349 1.404 . S
C348 C351 1.539 . S
C349 C345 1.408 . S
C349 C348 1.404 . S
C349 H361 0.930 . S
C350 C346 1.524 . S
C350 H362 0.956 . S
C350 H363 0.961 . S
C350 H364 0.961 . S
C351 C348 1.539 . S
C351 H365 0.958 . S
C351 H366 0.961 . S
C351 H367 0.960 . S
H352 C336 0.931 . S
H353 C341 0.929 . S
H354 C342 0.960 . S
H355 C342 0.962 . S
H356 C342 0.960 . S
H357 C343 0.961 . S
H358 C343 0.961 . S
H359 C343 0.961 . S
H360 C344 0.931 . S
H361 C349 0.930 . S
H362 C350 0.956 . S
H363 C350 0.961 . S
H364 C350 0.961 . S
H365 C351 0.958 . S
H366 C351 0.961 . S
H367 C351 0.960 . S
C368 C369 1.391 . S
C368 C370 1.394 . S
C368 H384 0.931 . S
C369 C368 1.391 . S
C369 C373 1.376 . S
C370 C368 1.394 . S
C370 C371 1.369 . S
C370 C374 1.531 . S
C371 C370 1.369 . S
C371 C372 1.410 . S
C371 C379 1.503 . S
C372 C371 1.410 . S
C372 C373 1.392 . S
C372 C375 1.511 1_554 S
C373 C369 1.376 . S
C373 C372 1.392 . S
C373 H385 0.929 1_554 S
C374 C370 1.531 . S
C374 H386 0.960 . S
C374 H387 0.962 . S
C374 H388 0.960 . S
C375 C372 1.511 1_556 S
C375 H389 0.961 . S
C375 H390 0.961 . S
C375 H391 0.961 . S
C376 C377 1.370 . S
C376 C378 1.363 . S
C376 H392 0.931 . S
C377 C376 1.370 . S
C377 C381 1.408 1_556 S
C378 C376 1.363 . S
C378 C379 1.370 1_556 S
C378 C382 1.524 . S
C379 C371 1.503 . S
C379 C378 1.370 1_554 S
C379 C380 1.403 . S
C380 C379 1.403 . S
C380 C381 1.404 . S
C380 C383 1.539 . S
C381 C377 1.408 1_554 S
C381 C380 1.404 . S
C381 H393 0.930 . S
C382 C378 1.524 . S
C382 H394 0.956 . S
C382 H395 0.961 . S
C382 H396 0.961 . S
C383 C380 1.539 . S
C383 H397 0.958 . S
C383 H398 0.961 . S
C383 H399 0.960 . S
H384 C368 0.931 . S
H385 C373 0.929 1_556 S
H386 C374 0.960 . S
H387 C374 0.962 . S
H388 C374 0.960 . S
H389 C375 0.961 . S
H390 C375 0.961 . S
H391 C375 0.961 . S
H392 C376 0.931 . S
H393 C381 0.930 . S
H394 C382 0.956 . S
H395 C382 0.961 . S
H396 C382 0.961 . S
H397 C383 0.958 . S
H398 C383 0.961 . S
H399 C383 0.960 . S
C400 C401 1.391 1_556 S
C400 C402 1.394 . S
C400 H416 0.931 . S
C401 C400 1.391 1_554 S
C401 C405 1.376 . S
C402 C400 1.394 . S
C402 C403 1.369 . S
C402 C406 1.531 . S
C403 C402 1.369 . S
C403 C404 1.410 1_556 S
C403 C411 1.503 . S
C404 C403 1.410 1_554 S
C404 C405 1.392 . S
C404 C407 1.511 . S
C405 C401 1.376 . S
C405 C404 1.392 . S
C405 H417 0.929 . S
C406 C402 1.531 . S
C406 H418 0.960 . S
C406 H419 0.962 . S
C406 H420 0.960 . S
C407 C404 1.511 . S
C407 H421 0.961 . S
C407 H422 0.961 . S
C407 H423 0.961 . S
C408 C409 1.363 1_554 S
C408 C410 1.365 . S
C408 H424 0.937 . S
C409 C408 1.363 1_556 S
C409 C413 1.408 . S
C410 C408 1.365 . S
C410 C411 1.370 1_554 S
C410 C414 1.524 . S
C411 C403 1.503 . S
C411 C410 1.370 1_556 S
C411 C412 1.403 . S
C412 C411 1.403 . S
C412 C413 1.404 . S
C412 C415 1.539 . S
C413 C409 1.408 . S
C413 C412 1.404 . S
C413 H425 0.930 . S
C414 C410 1.524 . S
C414 H426 0.956 . S
C414 H427 0.961 . S
C414 H428 0.961 . S
C415 C412 1.539 . S
C415 H429 0.958 . S
C415 H430 0.961 . S
C415 H431 0.960 . S
H416 C400 0.931 . S
H417 C405 0.929 . S
H418 C406 0.960 . S
H419 C406 0.962 . S
H420 C406 0.960 . S
H421 C407 0.961 . S
H422 C407 0.961 . S
H423 C407 0.961 . S
H424 C408 0.937 . S
H425 C413 0.930 . S
H426 C414 0.956 . S
H427 C414 0.961 . S
H428 C414 0.961 . S
H429 C415 0.958 . S
H430 C415 0.961 . S
H431 C415 0.960 . S
C432 C433 1.391 1_556 S
C432 C434 1.394 . S
C432 H448 0.931 . S
C433 C432 1.391 1_554 S
C433 C437 1.376 . S
C434 C432 1.394 . S
C434 C435 1.369 1_556 S
C434 C438 1.531 . S
C435 C434 1.369 1_554 S
C435 C436 1.410 . S
C435 C443 1.507 . S
C436 C435 1.410 . S
C436 C437 1.392 . S
C436 C439 1.511 . S
C437 C433 1.376 . S
C437 C436 1.392 . S
C437 H449 0.929 . S
C438 C434 1.531 . S
C438 H450 0.960 . S
C438 H451 0.962 . S
C438 H452 0.960 . S
C439 C436 1.511 . S
C439 H453 0.961 . S
C439 H454 0.961 . S
C439 H455 0.961 . S
C440 C441 1.370 1_554 S
C440 C442 1.363 . S
C440 H456 0.931 . S
C441 C440 1.370 1_556 S
C441 C445 1.408 . S
C442 C440 1.363 . S
C442 C443 1.385 . S
C442 C446 1.524 . S
C443 C435 1.507 . S
C443 C442 1.385 . S
C443 C444 1.385 1_554 S
C444 C443 1.385 1_556 S
C444 C445 1.404 . S
C444 C447 1.539 . S
C445 C441 1.408 . S
C445 C444 1.404 . S
C445 H457 0.930 . S
C446 C442 1.524 . S
C446 H458 0.956 . S
C446 H459 0.961 . S
C446 H460 0.961 . S
C447 C444 1.539 . S
C447 H461 0.958 . S
C447 H462 0.961 . S
C447 H463 0.960 . S
H448 C432 0.931 . S
H449 C437 0.929 . S
H450 C438 0.960 . S
H451 C438 0.962 . S
H452 C438 0.960 . S
H453 C439 0.961 . S
H454 C439 0.961 . S
H455 C439 0.961 . S
H456 C440 0.931 . S
H457 C445 0.930 . S
H458 C446 0.956 . S
H459 C446 0.961 . S
H460 C446 0.961 . S
H461 C447 0.958 . S
H462 C447 0.961 . S
H463 C447 0.960 . S
C464 C465 1.391 1_554 S
C464 C466 1.394 . S
C464 H480 0.931 . S
C465 C464 1.391 1_556 S
C465 C469 1.376 . S
C466 C464 1.394 . S
C466 C467 1.369 1_554 S
C466 C470 1.531 . S
C467 C466 1.369 1_556 S
C467 C468 1.410 . S
C467 C475 1.503 . S
C468 C467 1.410 . S
C468 C469 1.392 . S
C468 C471 1.511 . S
C469 C465 1.376 . S
C469 C468 1.392 . S
C469 H481 0.929 . S
C470 C466 1.531 . S
C470 H482 0.960 . S
C470 H483 0.962 . S
C470 H484 0.960 . S
C471 C468 1.511 . S
C471 H485 0.961 . S
C471 H486 0.961 . S
C471 H487 0.961 . S
C472 C473 1.370 . S
C472 C474 1.363 . S
C472 H488 0.931 . S
C473 C472 1.370 . S
C473 C477 1.408 1_554 S
C474 C472 1.363 . S
C474 C475 1.370 1_554 S
C474 C478 1.524 . S
C475 C467 1.503 . S
C475 C474 1.370 1_556 S
C475 C476 1.403 . S
C476 C475 1.403 . S
C476 C477 1.404 . S
C476 C479 1.539 . S
C477 C473 1.408 1_556 S
C477 C476 1.404 . S
C477 H489 0.930 . S
C478 C474 1.524 . S
C478 H490 0.956 . S
C478 H491 0.961 . S
C478 H492 0.961 . S
C479 C476 1.539 . S
C479 H493 0.958 . S
C479 H494 0.961 . S
C479 H495 0.960 . S
H480 C464 0.931 . S
H481 C469 0.929 . S
H482 C470 0.960 . S
H483 C470 0.962 . S
H484 C470 0.960 . S
H485 C471 0.961 . S
H486 C471 0.961 . S
H487 C471 0.961 . S
H488 C472 0.931 . S
H489 C477 0.930 . S
H490 C478 0.956 . S
H491 C478 0.961 . S
H492 C478 0.961 . S
H493 C479 0.958 . S
H494 C479 0.961 . S
H495 C479 0.960 . S
C496 C497 1.391 . S
C496 C498 1.394 1_655 S
C496 H512 0.931 1_655 S
C497 C496 1.391 . S
C497 C501 1.376 . S
C498 C496 1.394 1_455 S
C498 C499 1.369 1_455 S
C498 C502 1.531 . S
C499 C498 1.369 1_655 S
C499 C500 1.410 . S
C499 C507 1.503 1_655 S
C500 C499 1.410 . S
C500 C501 1.392 . S
C500 C503 1.511 . S
C501 C497 1.376 . S
C501 C500 1.392 . S
C501 H513 0.929 . S
C502 C498 1.531 . S
C502 H514 0.960 . S
C502 H515 0.962 . S
C502 H516 0.960 . S
C503 C500 1.511 . S
C503 H517 0.961 . S
C503 H518 0.961 . S
C503 H519 0.961 . S
C504 C505 1.370 . S
C504 C506 1.363 . S
C504 H520 0.931 . S
C505 C504 1.370 . S
C505 C509 1.408 . S
C506 C504 1.363 . S
C506 C507 1.370 . S
C506 C510 1.524 1_455 S
C507 C499 1.503 1_455 S
C507 C506 1.370 . S
C507 C508 1.403 . S
C508 C507 1.403 . S
C508 C509 1.404 . S
C508 C511 1.539 . S
C509 C505 1.408 . S
C509 C508 1.404 . S
C509 H521 0.930 . S
C510 C506 1.524 1_655 S
C510 H522 0.956 . S
C510 H523 0.961 . S
C510 H524 0.961 . S
C511 C508 1.539 . S
C511 H525 0.958 . S
C511 H526 0.961 . S
C511 H527 0.960 . S
H512 C496 0.931 1_455 S
H513 C501 0.929 . S
H514 C502 0.960 . S
H515 C502 0.962 . S
H516 C502 0.960 . S
H517 C503 0.961 . S
H518 C503 0.961 . S
H519 C503 0.961 . S
H520 C504 0.931 . S
H521 C509 0.930 . S
H522 C510 0.956 . S
H523 C510 0.961 . S
H524 C510 0.961 . S
H525 C511 0.958 . S
H526 C511 0.961 . S
H527 C511 0.960 . S
C528 C529 1.391 . S
C528 C530 1.394 . S
C528 H544 0.931 . S
C529 C528 1.391 . S
C529 C533 1.376 . S
C530 C528 1.394 . S
C530 C531 1.369 . S
C530 C534 1.531 . S
C531 C530 1.369 . S
C531 C532 1.410 . S
C531 C539 1.503 1_545 S
C532 C531 1.410 . S
C532 C533 1.392 . S
C532 C535 1.511 1_545 S
C533 C529 1.376 . S
C533 C532 1.392 . S
C533 H545 0.929 . S
C534 C530 1.531 . S
C534 H546 0.960 1_545 S
C534 H547 0.962 . S
C534 H548 0.960 . S
C535 C532 1.511 1_565 S
C535 H549 0.961 1_565 S
C535 H550 0.961 . S
C535 H551 0.961 . S
C536 C537 1.370 . S
C536 C538 1.363 1_565 S
C536 H552 0.931 1_565 S
C537 C536 1.370 . S
C537 C541 1.408 . S
C538 C536 1.363 1_545 S
C538 C539 1.370 1_545 S
C538 C542 1.524 . S
C539 C531 1.503 1_565 S
C539 C538 1.370 1_565 S
C539 C540 1.403 . S
C540 C539 1.403 . S
C540 C541 1.404 . S
C540 C543 1.539 . S
C541 C537 1.408 . S
C541 C540 1.404 . S
C541 H553 0.930 . S
C542 C538 1.524 . S
C542 H554 0.956 . S
C542 H555 0.961 . S
C542 H556 0.961 . S
C543 C540 1.539 . S
C543 H557 0.958 . S
C543 H558 0.961 . S
C543 H559 0.960 . S
H544 C528 0.931 . S
H545 C533 0.929 . S
H546 C534 0.960 1_565 S
H547 C534 0.962 . S
H548 C534 0.960 . S
H549 C535 0.961 1_545 S
H550 C535 0.961 . S
H551 C535 0.961 . S
H552 C536 0.931 1_545 S
H553 C541 0.930 . S
H554 C542 0.956 . S
H555 C542 0.961 . S
H556 C542 0.961 . S
H557 C543 0.958 . S
H558 C543 0.961 . S
H559 C543 0.960 . S
C560 C561 1.391 1_554 S
C560 C562 1.394 . S
C560 H576 0.931 . S
C561 C560 1.391 1_556 S
C561 C565 1.376 . S
C562 C560 1.394 . S
C562 C563 1.369 1_554 S
C562 C566 1.531 . S
C563 C562 1.369 1_556 S
C563 C564 1.410 . S
C563 C571 1.503 1_545 S
C564 C563 1.410 . S
C564 C565 1.392 . S
C564 C567 1.511 . S
C565 C561 1.376 . S
C565 C564 1.392 . S
C565 H577 0.929 . S
C566 C562 1.531 . S
C566 H578 0.960 . S
C566 H579 0.962 . S
C566 H580 0.960 . S
C567 C564 1.511 . S
C567 H581 0.961 . S
C567 H582 0.961 1_545 S
C567 H583 0.961 . S
C568 C569 1.370 . S
C568 C570 1.363 . S
C568 H584 0.931 1_556 S
C569 C568 1.370 . S
C569 C573 1.408 . S
C570 C568 1.363 . S
C570 C571 1.370 . S
C570 C574 1.524 1_556 S
C571 C563 1.503 1_565 S
C571 C570 1.370 . S
C571 C572 1.403 . S
C572 C571 1.403 . S
C572 C573 1.404 . S
C572 C575 1.539 1_565 S
C573 C569 1.408 . S
C573 C572 1.404 . S
C573 H585 0.930 . S
C574 C570 1.524 1_554 S
C574 H586 0.956 . S
C574 H587 0.961 1_554 S
C574 H588 0.961 . S
C575 C572 1.539 1_545 S
C575 H589 0.958 . S
C575 H590 0.961 1_545 S
C575 H591 0.960 . S
H576 C560 0.931 . S
H577 C565 0.929 . S
H578 C566 0.960 . S
H579 C566 0.962 . S
H580 C566 0.960 . S
H581 C567 0.961 . S
H582 C567 0.961 1_565 S
H583 C567 0.961 . S
H584 C568 0.931 1_554 S
H585 C573 0.930 . S
H586 C574 0.956 . S
H587 C574 0.961 1_556 S
H588 C574 0.961 . S
H589 C575 0.958 . S
H590 C575 0.961 1_565 S
H591 C575 0.960 . S
C592 C593 1.391 . S
C592 C594 1.394 . S
C592 H608 0.931 . S
C593 C592 1.391 . S
C593 C597 1.376 . S
C594 C592 1.394 . S
C594 C595 1.369 . S
C594 C598 1.531 1_455 S
C595 C594 1.369 . S
C595 C596 1.410 . S
C595 C603 1.503 1_455 S
C596 C595 1.410 . S
C596 C597 1.392 . S
C596 C599 1.511 1_554 S
C597 C593 1.376 . S
C597 C596 1.392 . S
C597 H609 0.929 1_554 S
C598 C594 1.531 1_655 S
C598 H610 0.960 . S
C598 H611 0.962 . S
C598 H612 0.960 1_655 S
C599 C596 1.511 1_556 S
C599 H613 0.961 . S
C599 H614 0.961 . S
C599 H615 0.961 . S
C600 C601 1.370 . S
C600 C602 1.363 . S
C600 H616 0.931 1_554 S
C601 C600 1.370 . S
C601 C605 1.408 . S
C602 C600 1.363 . S
C602 C603 1.370 . S
C602 C606 1.524 1_554 S
C603 C595 1.503 1_655 S
C603 C602 1.370 . S
C603 C604 1.403 . S
C604 C603 1.403 . S
C604 C605 1.404 . S
C604 C607 1.539 1_655 S
C605 C601 1.408 . S
C605 C604 1.404 . S
C605 H617 0.930 . S
C606 C602 1.524 1_556 S
C606 H618 0.956 . S
C606 H619 0.961 . S
C606 H620 0.961 . S
C607 C604 1.539 1_455 S
C607 H621 0.958 . S
C607 H622 0.961 . S
C607 H623 0.960 . S
H608 C592 0.931 . S
H609 C597 0.929 1_556 S
H610 C598 0.960 . S
H611 C598 0.962 . S
H612 C598 0.960 1_455 S
H613 C599 0.961 . S
H614 C599 0.961 . S
H615 C599 0.961 . S
H616 C600 0.931 1_556 S
H617 C605 0.930 . S
H618 C606 0.956 . S
H619 C606 0.961 . S
H620 C606 0.961 . S
H621 C607 0.958 . S
H622 C607 0.961 . S
H623 C607 0.960 . S
C113 C98 1.526 . S
C121 C0 1.522 . S
C145 C25 1.544 . S
C153 C67 1.564 . S
C177 C28 1.510 . S
C185 C70 1.512 . S
C209 C95 1.569 . S
C217 C53 1.565 . S
C241 C19 1.492 1_545 S
C249 C11 1.464 . S
C273 C14 1.385 . S
C281 C37 1.441 1_455 S
C305 C47 1.476 1_565 S
C313 C39 1.480 . S
C337 C42 1.385 . S
C345 C9 1.441 1_655 S
C369 C107 1.437 . S
C377 C56 1.408 . S
C401 C81 1.456 . S
C409 C61 1.489 . S
C433 C79 1.440 . S
C441 C84 1.421 . S
C465 C89 1.482 . S
C473 C109 1.469 . S
C497 C33 1.089 . S
C505 C5 1.092 . S
C529 C51 1.047 . S
C537 C23 1.078 . S
C561 C93 1.028 . S
C569 C65 1.067 . S
C593 C103 1.042 . S
C601 C75 1.083 . S
