# Generated by pormake.
# Topology sra, (4)-cn, num edge types: 1
# Building blocks:
#     Node 0, Type 0, BuildingBlock: ICAMEG_clean_sbu_1, # of connection points: 4
#     Node 1, Type 0, BuildingBlock: ICAMEG_clean_sbu_1, # of connection points: 4
#     Node 2, Type 0, BuildingBlock: ICAMEG_clean_sbu_1, # of connection points: 4
#     Node 3, Type 0, BuildingBlock: ICAMEG_clean_sbu_1, # of connection points: 4
#     Node 4, Type 0, BuildingBlock: ICAMEG_clean_sbu_1, # of connection points: 4
#     Node 5, Type 0, BuildingBlock: ICAMEG_clean_sbu_1, # of connection points: 4
#     Node 6, Type 0, BuildingBlock: ICAMEG_clean_sbu_1, # of connection points: 4
#     Node 7, Type 0, BuildingBlock: ICAMEG_clean_sbu_1, # of connection points: 4
#     Edge 8, Type (0, 0), BuildingBlock: UVAHIK_clean_linker_0, # of connection points: 2
#     Edge 9, Type (0, 0), BuildingBlock: UVAHIK_clean_linker_0, # of connection points: 2
#     Edge 10, Type (0, 0), BuildingBlock: UVAHIK_clean_linker_0, # of connection points: 2
#     Edge 11, Type (0, 0), BuildingBlock: UVAHIK_clean_linker_0, # of connection points: 2
#     Edge 12, Type (0, 0), BuildingBlock: UVAHIK_clean_linker_0, # of connection points: 2
#     Edge 13, Type (0, 0), BuildingBlock: UVAHIK_clean_linker_0, # of connection points: 2
#     Edge 14, Type (0, 0), BuildingBlock: UVAHIK_clean_linker_0, # of connection points: 2
#     Edge 15, Type (0, 0), BuildingBlock: UVAHIK_clean_linker_0, # of connection points: 2
#     Edge 16, Type (0, 0), BuildingBlock: UVAHIK_clean_linker_0, # of connection points: 2
#     Edge 17, Type (0, 0), BuildingBlock: UVAHIK_clean_linker_0, # of connection points: 2
#     Edge 18, Type (0, 0), BuildingBlock: UVAHIK_clean_linker_0, # of connection points: 2
#     Edge 19, Type (0, 0), BuildingBlock: UVAHIK_clean_linker_0, # of connection points: 2
#     Edge 20, Type (0, 0), BuildingBlock: UVAHIK_clean_linker_0, # of connection points: 2
#     Edge 21, Type (0, 0), BuildingBlock: UVAHIK_clean_linker_0, # of connection points: 2
#     Edge 22, Type (0, 0), BuildingBlock: UVAHIK_clean_linker_0, # of connection points: 2
#     Edge 23, Type (0, 0), BuildingBlock: UVAHIK_clean_linker_0, # of connection points: 2
# Relax obj value: 0.019
# Max RMSD: 0.062
# Mean RMSD: 0.062
data_MOF--net-sra--node1-ICAMEG_clean_sbu_1--edge1-UVAHIK_clean_linker_0
_symmetry_space_group_name_H-M    P1
_symmetry_Int_Tables_number       1
_symmetry_cell_setting            triclinic
loop_
_symmetry_equiv_pos_as_xyz
'x, y, z'
_cell_length_a     38.646357
_cell_length_b     72.004758
_cell_length_c     39.22758
_cell_angle_alpha  90.017107
_cell_angle_beta   89.999727
_cell_angle_gamma 90.000805
loop_
_atom_site_label
_atom_site_type_symbol
_atom_site_fract_x
_atom_site_fract_y
_atom_site_fract_z
_atom_type_partial_charge
Co0 Co 0.01751 0.11574 0.21435 0.0
Co1 Co 0.98993 0.12079 0.13079 0.0
O2 O 0.02049 0.11 0.16554 0.0
C3 C 0.09062 0.12451 0.198 0.0
O4 O 0.08028 0.13217 0.1694 0.0
C5 C 0.98357 0.07996 0.12043 0.0
O6 O 0.98447 0.07776 0.15362 0.0
O7 O 0.94777 0.11507 0.15837 0.0
O8 O 0.96624 0.11489 0.21259 0.0
H9 H 0.89266 0.16105 0.0889 0.0
H10 H 0.06197 0.08464 0.19153 0.0
O11 O 0.06896 0.11684 0.21795 0.0
H12 H 0.97519 0.05626 0.26755 0.0
H13 H 0.05305 0.1103 0.33746 0.0
H14 H 0.97368 0.14063 0.2563 0.0
H15 H 0.97491 0.09001 0.25686 0.0
H16 H 0.0559 0.10301 0.27609 0.0
O17 O 0.98549 0.09612 0.10743 0.0
H18 H 0.93148 0.14741 0.13209 0.0
H19 H 0.98372 0.1167 0.05528 0.0
H20 H 0.96974 0.14822 0.3175 0.0
H21 H 0.06342 0.05084 0.20179 0.0
H22 H 0.00963 0.133 0.35854 0.0
H23 H 0.01972 0.03644 0.23995 0.0
O24 O 0.01664 0.14294 0.20504 0.0
H25 H 0.1046 0.10593 0.07699 0.0
H26 H 0.01564 0.15418 0.09337 0.0
H27 H 0.06815 0.16151 0.06031 0.0
H28 H 0.11307 0.13727 0.05188 0.0
H29 H 0.05184 0.09928 0.1102 0.0
H30 H 0.94528 0.12987 0.01132 0.0
H31 H 0.89944 0.15228 0.02802 0.0
O32 O 0.9937 0.14579 0.15267 0.0
C33 C 0.94228 0.11407 0.1904 0.0
C34 C 0.9126 0.15135 0.08129 0.0
C35 C 0.9421 0.13383 0.03775 0.0
N36 N 0.95999 0.13138 0.09619 0.0
C37 C 0.93472 0.14362 0.10562 0.0
C38 C 0.96374 0.12638 0.06278 0.0
C39 C 0.9164 0.1464 0.04714 0.0
C40 C 0.04309 0.07849 0.20844 0.0
N41 N 0.01845 0.08929 0.22365 0.0
C42 C 0.04395 0.05934 0.21403 0.0
C43 C 0.01938 0.05126 0.2354 0.0
C44 C 0.99437 0.06237 0.25087 0.0
C45 C 0.99427 0.08147 0.24464 0.0
C46 C 0.03548 0.11699 0.31984 0.0
C47 C 0.99099 0.13387 0.27403 0.0
C48 C 0.03701 0.11295 0.28505 0.0
N49 N 0.01481 0.12129 0.26267 0.0
C50 C 0.9887 0.13826 0.30864 0.0
C51 C 0.01111 0.12973 0.33165 0.0
C52 C 0.00531 0.15272 0.18034 0.0
C53 C 0.0852 0.11661 0.08045 0.0
C54 C 0.03516 0.14361 0.09003 0.0
C55 C 0.06478 0.14781 0.07116 0.0
C56 C 0.08996 0.1342 0.06641 0.0
N57 N 0.03068 0.12633 0.10374 0.0
C58 C 0.05522 0.1129 0.09913 0.0
Co59 Co 0.01941 0.38968 0.21232 0.0
Co60 Co 0.04495 0.38358 0.12847 0.0
O61 O 0.01572 0.39504 0.1635 0.0
C62 C 0.94582 0.38169 0.19745 0.0
O63 O 0.95559 0.3735 0.16913 0.0
C64 C 0.05483 0.42406 0.1171 0.0
O65 O 0.05869 0.42603 0.15016 0.0
O66 O 0.08799 0.38904 0.15498 0.0
O67 O 0.07064 0.38975 0.20955 0.0
H68 H 0.1398 0.34204 0.08538 0.0
H69 H 0.97652 0.42127 0.18897 0.0
O70 O 0.96799 0.38937 0.21683 0.0
H71 H 0.06591 0.44894 0.26293 0.0
H72 H 0.9865 0.3967 0.33586 0.0
H73 H 0.06279 0.36452 0.25418 0.0
H74 H 0.06397 0.41509 0.25353 0.0
H75 H 0.98286 0.40349 0.27434 0.0
O76 O 0.04933 0.40804 0.10445 0.0
H77 H 0.10248 0.35639 0.1291 0.0
H78 H 0.04942 0.38699 0.05275 0.0
H79 H 0.0675 0.35742 0.31552 0.0
H80 H 0.97733 0.45519 0.19788 0.0
H81 H 0.02916 0.37356 0.35682 0.0
H82 H 0.02234 0.46924 0.23501 0.0
O83 O 0.01875 0.36241 0.20373 0.0
H84 H 0.92949 0.39916 0.07702 0.0
H85 H 0.01725 0.3502 0.0924 0.0
H86 H 0.96371 0.34312 0.0608 0.0
H87 H 0.91938 0.36773 0.05288 0.0
H88 H 0.98326 0.40555 0.1088 0.0
H89 H 0.08634 0.37311 0.00824 0.0
H90 H 0.13184 0.3504 0.02445 0.0
O91 O 0.04081 0.35879 0.15113 0.0
C92 C 0.09418 0.39014 0.18689 0.0
C93 C 0.12 0.35187 0.07799 0.0
C94 C 0.09003 0.36933 0.0347 0.0
N95 N 0.07367 0.37241 0.09347 0.0
C96 C 0.09874 0.36 0.10262 0.0
C97 C 0.06927 0.37719 0.06002 0.0
C98 C 0.11554 0.35659 0.04381 0.0
C99 C 0.99598 0.42728 0.20541 0.0
N100 N 0.02007 0.41621 0.22081 0.0
C101 C 0.9964 0.44649 0.21025 0.0
C102 C 0.02169 0.45436 0.23105 0.0
C103 C 0.04616 0.44299 0.24671 0.0
C104 C 0.04498 0.42383 0.24122 0.0
C105 C 0.0034 0.3896 0.31813 0.0
C106 C 0.04616 0.37168 0.27203 0.0
C107 C 0.00141 0.39336 0.28326 0.0
N108 N 0.02276 0.38451 0.26073 0.0
C109 C 0.04889 0.36757 0.30671 0.0
C110 C 0.02734 0.37662 0.32987 0.0
C111 C 0.0293 0.35226 0.17918 0.0
C112 C 0.94861 0.38832 0.08028 0.0
C113 C -0.00201 0.36092 0.08932 0.0
C114 C 0.96777 0.35686 0.07125 0.0
C115 C 0.94294 0.37068 0.06678 0.0
N116 N 0.00335 0.37824 0.10253 0.0
C117 C 0.97916 0.39187 0.09816 0.0
Co118 Co 0.01688 0.89065 0.79357 0.0
Co119 Co 0.98841 0.88528 0.87682 0.0
O120 O 0.01921 0.89623 0.84245 0.0
C121 C 0.0895 0.88161 0.81112 0.0
O122 O 0.07839 0.87396 0.83945 0.0
C123 C 0.98151 0.92612 0.88696 0.0
O124 O 0.98296 0.92829 0.85379 0.0
O125 O 0.94652 0.89073 0.84865 0.0
O126 O 0.9656 0.89163 0.79465 0.0
H127 H 0.89138 0.84449 0.91748 0.0
H128 H 0.06131 0.92156 0.8173 0.0
O129 O 0.0684 0.88939 0.79074 0.0
H130 H 0.97587 0.95039 0.7404 0.0
H131 H 0.05435 0.89632 0.67105 0.0
H132 H 0.97339 0.86603 0.75073 0.0
H133 H 0.97512 0.91662 0.75075 0.0
H134 H 0.05636 0.90342 0.73253 0.0
O135 O 0.98318 0.90996 0.90003 0.0
H136 H 0.9306 0.85829 0.8748 0.0
H137 H 0.98097 0.88945 0.95221 0.0
H138 H 0.97029 0.85864 0.6894 0.0
H139 H 0.06322 0.95538 0.80741 0.0
H140 H 0.01099 0.87384 0.6491 0.0
H141 H 0.02019 0.97001 0.7688 0.0
O142 O 0.01564 0.86343 0.80257 0.0
H143 H 0.10215 0.90085 0.93187 0.0
H144 H 0.01411 0.85217 0.91502 0.0
H145 H 0.06632 0.84517 0.94879 0.0
H146 H 0.11077 0.86964 0.95745 0.0
H147 H 0.04972 0.90715 0.89795 0.0
H148 H 0.94212 0.87612 0.99566 0.0
H149 H 0.89702 0.85341 0.9784 0.0
O150 O 0.99308 0.86028 0.85506 0.0
C151 C 0.94137 0.89207 0.8166 0.0
C152 C 0.911 0.85433 0.92533 0.0
C153 C 0.93944 0.8721 0.96921 0.0
N154 N 0.9582 0.87455 0.91103 0.0
C155 C 0.93334 0.86214 0.9013 0.0
C156 C 0.96132 0.87964 0.94447 0.0
C157 C 0.91415 0.85935 0.9595 0.0
C158 C 0.04273 0.92781 0.80019 0.0
N159 N 0.01821 0.91712 0.78455 0.0
C160 C 0.04384 0.94697 0.79481 0.0
C161 C 0.01965 0.95518 0.77319 0.0
C162 C 0.99476 0.94418 0.75727 0.0
C163 C 0.99439 0.92506 0.76331 0.0
C164 C 0.03643 0.88964 0.68834 0.0
C165 C 0.99104 0.87279 0.73332 0.0
C166 C 0.03749 0.89358 0.72319 0.0
N167 N 0.01484 0.88525 0.74516 0.0
C168 C 0.98923 0.86851 0.69864 0.0
C169 C 0.01209 0.87703 0.67605 0.0
C170 C 0.00467 0.85351 0.82723 0.0
C171 C 0.08296 0.89007 0.9283 0.0
C172 C 0.03345 0.86282 0.91844 0.0
C173 C 0.06289 0.85881 0.93772 0.0
C174 C 0.0878 0.87255 0.94261 0.0
N175 N 0.02889 0.88003 0.90445 0.0
C176 C 0.05316 0.89358 0.90921 0.0
Co177 Co 0.01769 0.61685 0.79408 0.0
Co178 Co 0.04405 0.62214 0.8778 0.0
O179 O 0.01427 0.6111 0.84277 0.0
C180 C 0.94418 0.62482 0.80948 0.0
O181 O 0.95407 0.63284 0.83792 0.0
C182 C 0.053 0.58154 0.8888 0.0
O183 O 0.05685 0.57958 0.85573 0.0
O184 O 0.08675 0.61637 0.85097 0.0
O185 O 0.06894 0.61668 0.79653 0.0
H186 H 0.14052 0.66258 0.92096 0.0
H187 H 0.97481 0.58511 0.81684 0.0
O188 O 0.96625 0.61724 0.78986 0.0
H189 H 0.06355 0.55795 0.74151 0.0
H190 H 0.98402 0.61087 0.67054 0.0
H191 H 0.06092 0.64229 0.75265 0.0
H192 H 0.06185 0.59172 0.75189 0.0
H193 H 0.98071 0.60357 0.73188 0.0
O194 O 0.04774 0.59757 0.9015 0.0
H195 H 0.10255 0.64875 0.87723 0.0
H196 H 0.04869 0.61845 0.95346 0.0
H197 H 0.0653 0.64989 0.6915 0.0
H198 H 0.97538 0.55127 0.80695 0.0
H199 H 0.02665 0.63413 0.64997 0.0
H200 H 0.02006 0.53748 0.76912 0.0
O201 O 0.01722 0.64405 0.8034 0.0
H202 H 0.92845 0.60745 0.92981 0.0
H203 H 0.01754 0.6557 0.9142 0.0
H204 H 0.96441 0.66316 0.94619 0.0
H205 H 0.91942 0.63891 0.95422 0.0
H206 H 0.98183 0.60067 0.89766 0.0
H207 H 0.08626 0.63182 0.99798 0.0
H208 H 0.13248 0.65412 0.98183 0.0
O209 O 0.0407 0.64705 0.8555 0.0
C210 C 0.09265 0.61574 0.81896 0.0
C211 C 0.12041 0.65292 0.92832 0.0
C212 C 0.08999 0.63564 0.97154 0.0
N213 N 0.07331 0.6329 0.9128 0.0
C214 C 0.09878 0.64508 0.90369 0.0
C215 C 0.06886 0.62807 0.94621 0.0
C216 C 0.11591 0.64815 0.96247 0.0
C217 C 0.99413 0.57922 0.80011 0.0
N218 N 0.01817 0.59038 0.78486 0.0
C219 C 0.99441 0.56005 0.7947 0.0
C220 C 0.01952 0.55232 0.77351 0.0
C221 C 0.04394 0.56379 0.75803 0.0
C222 C 0.0429 0.5829 0.76407 0.0
C223 C 0.00105 0.6178 0.68837 0.0
C224 C 0.04415 0.63529 0.73471 0.0
C225 C -0.00075 0.61376 0.72314 0.0
N226 N 0.02077 0.6224 0.74579 0.0
C227 C 0.04669 0.63969 0.70013 0.0
C228 C 0.02497 0.63085 0.67685 0.0
C229 C 0.02871 0.65391 0.82793 0.0
C230 C 0.94787 0.61813 0.92651 0.0
C231 C -0.00201 0.64514 0.91735 0.0
C232 C 0.96801 0.64941 0.93563 0.0
C233 C 0.9428 0.63579 0.94016 0.0
N234 N 0.00277 0.62779 0.90401 0.0
C235 C 0.9782 0.61436 0.90843 0.0
Co236 Co 0.51613 0.61481 0.71422 0.0
Co237 Co 0.49026 0.62107 0.63049 0.0
O238 O 0.51971 0.60963 0.66532 0.0
C239 C 0.58923 0.62352 0.69887 0.0
O240 O 0.57879 0.63172 0.67081 0.0
C241 C 0.48068 0.58058 0.6188 0.0
O242 O 0.47703 0.5785 0.65186 0.0
O243 O 0.44738 0.61546 0.65713 0.0
O244 O 0.46488 0.61433 0.71166 0.0
H245 H 0.39487 0.66245 0.58806 0.0
H246 H 0.5598 0.58365 0.69026 0.0
O247 O 0.56758 0.61554 0.71842 0.0
H248 H 0.47162 0.55501 0.76434 0.0
H249 H 0.54994 0.60767 0.83749 0.0
H250 H 0.47217 0.63941 0.75663 0.0
H251 H 0.47253 0.5889 0.75533 0.0
H252 H 0.55348 0.60113 0.77586 0.0
O253 O 0.486 0.59665 0.6063 0.0
H254 H 0.43247 0.64811 0.63154 0.0
H255 H 0.48557 0.61781 0.55476 0.0
H256 H 0.46755 0.64625 0.81809 0.0
H257 H 0.56002 0.5497 0.69877 0.0
H258 H 0.50664 0.63032 0.85898 0.0
H259 H 0.51562 0.53517 0.73596 0.0
O260 O 0.51597 0.64212 0.70602 0.0
H261 H 0.60571 0.60589 0.57859 0.0
H262 H 0.51754 0.65459 0.59458 0.0
H263 H 0.57095 0.66187 0.56292 0.0
H264 H 0.61548 0.6374 0.5547 0.0
H265 H 0.55207 0.5993 0.61044 0.0
H266 H 0.44836 0.63169 0.51048 0.0
H267 H 0.40271 0.65424 0.52704 0.0
O268 O 0.49426 0.64581 0.65331 0.0
C269 C 0.44129 0.61406 0.68903 0.0
C270 C 0.41474 0.65268 0.58052 0.0
C271 C 0.44472 0.63539 0.53699 0.0
N272 N 0.46131 0.63223 0.59568 0.0
C273 C 0.43616 0.64455 0.60501 0.0
C274 C 0.46565 0.62754 0.56218 0.0
C275 C 0.41912 0.64805 0.54629 0.0
C276 C 0.5406 0.57743 0.70672 0.0
N277 N 0.51628 0.58824 0.72238 0.0
C278 C 0.54077 0.5582 0.71134 0.0
C279 C 0.51582 0.55005 0.73217 0.0
C280 C 0.49111 0.56118 0.74808 0.0
C281 C 0.4917 0.58036 0.74282 0.0
C282 C 0.53272 0.61467 0.81994 0.0
C283 C 0.48912 0.63234 0.7743 0.0
C284 C 0.53465 0.61106 0.78501 0.0
N285 N 0.51288 0.61979 0.76271 0.0
C286 C 0.48645 0.63631 0.80905 0.0
C287 C 0.50841 0.62738 0.83197 0.0
C288 C 0.50546 0.6523 0.68151 0.0
C289 C 0.58649 0.61667 0.58198 0.0
C290 C 0.53689 0.64393 0.59136 0.0
C291 C 0.56702 0.6481 0.57326 0.0
C292 C 0.59198 0.63436 0.56862 0.0
N293 N 0.53171 0.62656 0.60444 0.0
C294 C 0.55602 0.613 0.5999 0.0
Co295 Co 0.5181 0.88896 0.71466 0.0
Co296 Co 0.54245 0.88322 0.63042 0.0
O297 O 0.51339 0.89436 0.66593 0.0
C298 C 0.44452 0.88037 0.70101 0.0
O299 O 0.45414 0.87218 0.67264 0.0
C300 C 0.5507 0.92377 0.6185 0.0
O301 O 0.55524 0.92589 0.65145 0.0
O302 O 0.58569 0.88932 0.6561 0.0
O303 O 0.56931 0.88945 0.71099 0.0
H304 H 0.63835 0.84288 0.58578 0.0
H305 H 0.47395 0.92025 0.69217 0.0
O306 O 0.46676 0.88826 0.72004 0.0
H307 H 0.56388 0.94852 0.76473 0.0
H308 H 0.48722 0.89559 0.83878 0.0
H309 H 0.56293 0.86412 0.75566 0.0
H310 H 0.56268 0.91467 0.75521 0.0
H311 H 0.48227 0.90241 0.77736 0.0
O312 O 0.54526 0.90767 0.60616 0.0
H313 H 0.60131 0.85685 0.63013 0.0
H314 H 0.54517 0.88647 0.5546 0.0
H315 H 0.56895 0.857 0.81688 0.0
H316 H 0.47401 0.95416 0.70123 0.0
H317 H 0.53091 0.87278 0.85891 0.0
H318 H 0.51929 0.96851 0.73765 0.0
O319 O 0.51805 0.86169 0.70599 0.0
H320 H 0.42544 0.89716 0.58083 0.0
H321 H 0.51546 0.84932 0.59547 0.0
H322 H 0.46166 0.84146 0.56494 0.0
H323 H 0.41619 0.8655 0.5574 0.0
H324 H 0.47951 0.90435 0.61154 0.0
H325 H 0.58178 0.87295 0.50947 0.0
H326 H 0.62868 0.85092 0.52495 0.0
O327 O 0.53999 0.85846 0.65329 0.0
C328 C 0.59242 0.89029 0.68792 0.0
C329 C 0.61794 0.85242 0.57871 0.0
C330 C 0.58622 0.86932 0.53588 0.0
N331 N 0.57098 0.87237 0.59495 0.0
C332 C 0.59683 0.86033 0.60369 0.0
C333 C 0.56564 0.87697 0.56156 0.0
C334 C 0.61252 0.85695 0.54458 0.0
C335 C 0.49354 0.92638 0.70831 0.0
N336 N 0.51819 0.91549 0.72325 0.0
C337 C 0.49352 0.94559 0.71323 0.0
C338 C 0.51896 0.95364 0.73363 0.0
C339 C 0.54401 0.94243 0.74881 0.0
C340 C 0.54325 0.92328 0.74326 0.0
C341 C 0.50399 0.88864 0.82073 0.0
C342 C 0.54642 0.87113 0.77382 0.0
C343 C 0.50126 0.89242 0.78591 0.0
N344 N 0.52246 0.88376 0.76298 0.0
C345 C 0.54989 0.867 0.80844 0.0
C346 C 0.52851 0.87585 0.832 0.0
C347 C 0.52896 0.85172 0.68135 0.0
C348 C 0.44507 0.88657 0.58392 0.0
C349 C 0.49572 0.8598 0.59252 0.0
C350 C 0.46536 0.8553 0.57507 0.0
C351 C 0.43988 0.8688 0.57082 0.0
N352 N 0.50062 0.87726 0.60532 0.0
C353 C 0.47579 0.89058 0.60118 0.0
Co354 Co 0.51784 0.38973 0.29289 0.0
Co355 Co 0.49111 0.38358 0.37635 0.0
O356 O 0.52082 0.39508 0.34177 0.0
C357 C 0.5911 0.38164 0.30881 0.0
O358 O 0.58073 0.3734 0.33686 0.0
C359 C 0.48125 0.42407 0.38807 0.0
O360 O 0.4778 0.42622 0.35501 0.0
O361 O 0.44844 0.38913 0.34931 0.0
O362 O 0.46658 0.3898 0.29498 0.0
H363 H 0.39556 0.34207 0.41796 0.0
H364 H 0.56042 0.42132 0.31691 0.0
O365 O 0.56934 0.38942 0.28912 0.0
H366 H 0.47209 0.44902 0.24179 0.0
H367 H 0.55253 0.39681 0.16983 0.0
H368 H 0.47504 0.36462 0.25035 0.0
H369 H 0.47388 0.41517 0.25115 0.0
H370 H 0.55531 0.40356 0.23142 0.0
O371 O 0.48653 0.40799 0.40051 0.0
H372 H 0.43345 0.35647 0.3748 0.0
H373 H 0.48574 0.38683 0.45204 0.0
H374 H 0.47118 0.35755 0.18894 0.0
H375 H 0.55975 0.45524 0.30805 0.0
H376 H 0.51013 0.3737 0.14822 0.0
H377 H 0.51527 0.4693 0.27033 0.0
O378 O 0.51837 0.36246 0.30138 0.0
H379 H 0.606 0.39895 0.42925 0.0
H380 H 0.51824 0.35011 0.41254 0.0
H381 H 0.57139 0.34292 0.44469 0.0
H382 H 0.61572 0.36747 0.45328 0.0
H383 H 0.55262 0.40545 0.39692 0.0
H384 H 0.44823 0.37289 0.49599 0.0
H385 H 0.40283 0.35027 0.47905 0.0
O386 O 0.49544 0.35883 0.35359 0.0
C387 C 0.44271 0.39021 0.31731 0.0
C388 C 0.41531 0.35186 0.42567 0.0
C389 C 0.44483 0.36918 0.46946 0.0
N390 N 0.46191 0.37238 0.41091 0.0
C391 C 0.4369 0.36002 0.40136 0.0
C392 C 0.46593 0.37707 0.44445 0.0
C393 C 0.41938 0.35649 0.45994 0.0
C394 C 0.54119 0.42733 0.30022 0.0
N395 N 0.51731 0.41628 0.28447 0.0
C396 C 0.54085 0.44655 0.2954 0.0
C397 C 0.51586 0.45443 0.27427 0.0
C398 C 0.49161 0.44306 0.25827 0.0
C399 C 0.49269 0.4239 0.26373 0.0
C400 C 0.53538 0.38971 0.18731 0.0
C401 C 0.49193 0.37179 0.23276 0.0
C402 C 0.53688 0.39345 0.22222 0.0
N403 N 0.51518 0.38459 0.24442 0.0
C404 C 0.48969 0.36769 0.19803 0.0
C405 C 0.51157 0.37674 0.1752 0.0
C406 C 0.50739 0.3523 0.32571 0.0
C407 C 0.58687 0.38814 0.4257 0.0
C408 C 0.53751 0.3608 0.41592 0.0
C409 C 0.56749 0.35669 0.43429 0.0
C410 C 0.59233 0.37047 0.43914 0.0
N411 N 0.53236 0.37816 0.40277 0.0
C412 C 0.55655 0.39176 0.40751 0.0
Co413 Co 0.51882 0.11569 0.29334 0.0
Co414 Co 0.54409 0.12122 0.3774 0.0
O415 O 0.51456 0.11026 0.3421 0.0
C416 C 0.44575 0.12482 0.30809 0.0
O417 O 0.45611 0.13287 0.33634 0.0
C418 C 0.552 0.08061 0.38869 0.0
O419 O 0.55597 0.0786 0.35565 0.0
O420 O 0.58698 0.11515 0.35116 0.0
O421 O 0.57005 0.11481 0.29643 0.0
H422 H 0.64076 0.16124 0.42142 0.0
H423 H 0.4741 0.08472 0.31622 0.0
O424 O 0.46743 0.1168 0.28862 0.0
H425 H 0.56235 0.05585 0.24249 0.0
H426 H 0.48617 0.10949 0.16959 0.0
H427 H 0.56387 0.14019 0.25188 0.0
H428 H 0.5622 0.08969 0.25217 0.0
H429 H 0.48179 0.10263 0.23104 0.0
O430 O 0.54703 0.09668 0.40133 0.0
H431 H 0.60309 0.1475 0.37733 0.0
H432 H 0.54769 0.11768 0.45314 0.0
H433 H 0.56933 0.14734 0.19062 0.0
H434 H 0.47312 0.05082 0.30702 0.0
H435 H 0.53028 0.13194 0.14901 0.0
H436 H 0.51755 0.03617 0.27 0.0
O437 O 0.51961 0.14295 0.30208 0.0
H438 H 0.42754 0.10731 0.42807 0.0
H439 H 0.51773 0.15503 0.41311 0.0
H440 H 0.46433 0.16287 0.44433 0.0
H441 H 0.41878 0.13889 0.45203 0.0
H442 H 0.48122 0.10014 0.39669 0.0
H443 H 0.58493 0.13096 0.49801 0.0
H444 H 0.63178 0.15297 0.48226 0.0
O445 O 0.5415 0.14607 0.35484 0.0
C446 C 0.59337 0.11402 0.31929 0.0
C447 C 0.62037 0.1517 0.42862 0.0
C448 C 0.58907 0.13469 0.4716 0.0
N449 N 0.57309 0.1319 0.41267 0.0
C450 C 0.59891 0.14392 0.40378 0.0
C451 C 0.56812 0.12718 0.44606 0.0
C452 C 0.61534 0.14704 0.46274 0.0
C453 C 0.49332 0.07845 0.29983 0.0
N454 N 0.51808 0.08917 0.28465 0.0
C455 C 0.49272 0.05925 0.29482 0.0
C456 C 0.51769 0.05104 0.27409 0.0
C457 C 0.54285 0.06207 0.25866 0.0
C458 C 0.54268 0.08122 0.2643 0.0
C459 C 0.50337 0.11626 0.18746 0.0
C460 C 0.54692 0.13335 0.2339 0.0
C461 C 0.50097 0.11246 0.22229 0.0
N462 N 0.52272 0.12091 0.24499 0.0
C463 C 0.55007 0.13749 0.19926 0.0
C464 C 0.52813 0.12885 0.17593 0.0
C465 C 0.5306 0.15286 0.32678 0.0
C466 C 0.44721 0.11787 0.42491 0.0
C467 C 0.49795 0.14457 0.41613 0.0
C468 C 0.46781 0.14906 0.43397 0.0
C469 C 0.44229 0.1356 0.43831 0.0
N470 N 0.50259 0.12716 0.40304 0.0
C471 C 0.47771 0.11387 0.40727 0.0
C472 C 0.03078 0.32027 0.15397 0.0
C473 C 0.02712 0.33176 0.18276 0.0
C474 C 0.02705 0.30105 0.15672 0.0
C475 C 0.036 0.26167 0.21269 0.0
H476 H 0.96921 0.23796 0.15314 0.0
C477 C 0.01285 0.18195 0.21491 0.0
C478 C 0.00611 0.17328 0.18346 0.0
C479 C 0.01372 0.20137 0.21742 0.0
C480 C 0.98836 0.24425 0.16963 0.0
H481 H 0.01801 0.33185 0.23739 0.0
H482 H 0.01255 0.29801 0.24221 0.0
H483 H 0.9752 0.27161 0.15251 0.0
H484 H 0.99503 0.17836 0.13002 0.0
H485 H -0.00187 0.21181 0.13401 0.0
H486 H 0.05048 0.23435 0.22872 0.0
C487 C 0.01771 0.3041 0.21748 0.0
C488 C 0.99154 0.26356 0.16941 0.0
C489 C 0.02073 0.32344 0.21464 0.0
C490 C 0.00029 0.18447 0.15468 0.0
C491 C 0.00169 0.20379 0.15708 0.0
C492 C 0.0333 0.24227 0.21249 0.0
C493 C 0.02034 0.2928 0.18842 0.0
C494 C 0.01561 0.27243 0.19064 0.0
C495 C 0.00824 0.21256 0.18848 0.0
C496 C 0.00974 0.23326 0.19059 0.0
H497 H 0.03606 0.32608 0.12909 0.0
H498 H 0.02958 0.29259 0.13401 0.0
H499 H 0.05488 0.26823 0.22918 0.0
H500 H 0.01719 0.17377 0.23768 0.0
H501 H 0.01834 0.20756 0.24216 0.0
C502 C 0.01248 0.82446 0.79225 0.0
C503 C 0.0065 0.83299 0.82403 0.0
C504 C 0.01528 0.8051 0.78974 0.0
C505 C 0.04174 0.7648 0.83821 0.0
H506 H 0.98232 0.73537 0.77971 0.0
C507 C 0.03376 0.68571 0.8534 0.0
C508 C 0.02767 0.67446 0.82474 0.0
C509 C 0.03215 0.70502 0.85096 0.0
C510 C -0.00037 0.74335 0.79571 0.0
H511 H -0.00189 0.82766 0.8779 0.0
H512 H 0.0042 0.79411 0.87353 0.0
H513 H 0.97783 0.76925 0.77898 0.0
H514 H 0.01589 0.67485 0.77067 0.0
H515 H 0.0144 0.70862 0.76608 0.0
H516 H 0.06432 0.73927 0.85447 0.0
C517 C 0.00654 0.80243 0.85064 0.0
C518 C 0.99687 0.76275 0.79537 0.0
C519 C 0.00303 0.82168 0.85307 0.0
C520 C 0.02044 0.68307 0.79336 0.0
C521 C 0.01938 0.70248 0.79078 0.0
C522 C 0.04497 0.74549 0.83812 0.0
C523 C 0.01285 0.79398 0.81903 0.0
C524 C 0.01746 0.77359 0.81711 0.0
C525 C 0.02512 0.71373 0.81961 0.0
C526 C 0.02345 0.73443 0.81744 0.0
H527 H 0.01505 0.83273 0.76932 0.0
H528 H 0.02015 0.79886 0.76507 0.0
H529 H 0.05824 0.77291 0.85487 0.0
H530 H 0.03943 0.67965 0.87801 0.0
H531 H 0.03593 0.71308 0.87396 0.0
C532 C 0.51373 0.68107 0.71725 0.0
C533 C 0.50746 0.6728 0.68529 0.0
C534 C 0.51674 0.7004 0.72022 0.0
C535 C 0.54345 0.74089 0.67251 0.0
H536 H 0.48391 0.7703 0.73093 0.0
C537 C 0.53435 0.81982 0.65641 0.0
C538 C 0.52832 0.83119 0.68493 0.0
C539 C 0.53308 0.80052 0.65919 0.0
C540 C 0.50126 0.76232 0.71497 0.0
H541 H 0.49866 0.67857 0.63163 0.0
H542 H 0.50514 0.71204 0.63679 0.0
H543 H 0.47942 0.73641 0.73161 0.0
H544 H 0.51699 0.83102 0.73911 0.0
H545 H 0.51601 0.79724 0.74425 0.0
H546 H 0.56598 0.76644 0.65625 0.0
C547 C 0.50757 0.70354 0.65945 0.0
C548 C 0.49851 0.74292 0.71529 0.0
C549 C 0.50386 0.68434 0.65657 0.0
C550 C 0.5215 0.8227 0.71653 0.0
C551 C 0.52074 0.8033 0.71943 0.0
C552 C 0.54666 0.7602 0.67261 0.0
C553 C 0.51423 0.71174 0.69122 0.0
C554 C 0.5191 0.7321 0.69352 0.0
C555 C 0.52643 0.79194 0.69074 0.0
C556 C 0.52504 0.77125 0.6932 0.0
H557 H 0.5164 0.67262 0.73994 0.0
H558 H 0.52185 0.70646 0.74499 0.0
H559 H 0.55994 0.73279 0.65582 0.0
H560 H 0.5397 0.82577 0.63165 0.0
H561 H 0.5368 0.79236 0.6363 0.0
C562 C 0.50536 0.32031 0.35082 0.0
C563 C 0.5096 0.33181 0.32212 0.0
C564 C 0.50917 0.3011 0.34813 0.0
C565 C 0.50123 0.26168 0.29231 0.0
H566 H 0.5674 0.23814 0.35274 0.0
C567 C 0.5239 0.1819 0.29154 0.0
C568 C 0.53015 0.17339 0.32323 0.0
C569 C 0.52328 0.2013 0.28865 0.0
C570 C 0.54843 0.24439 0.33599 0.0
H571 H 0.51982 0.3319 0.26769 0.0
H572 H 0.52543 0.29806 0.26294 0.0
H573 H 0.56144 0.2718 0.35297 0.0
H574 H 0.54066 0.17876 0.3767 0.0
H575 H 0.53799 0.21219 0.37205 0.0
H576 H 0.48685 0.2343 0.27645 0.0
C577 C 0.51975 0.30415 0.28757 0.0
C578 C 0.54528 0.2637 0.33598 0.0
C579 C 0.51665 0.32349 0.29036 0.0
C580 C 0.53576 0.18474 0.35186 0.0
C581 C 0.53462 0.20404 0.34909 0.0
C582 C 0.5039 0.24227 0.29274 0.0
C583 C 0.51656 0.29285 0.31657 0.0
C584 C 0.5214 0.2725 0.31445 0.0
C585 C 0.52853 0.21265 0.31745 0.0
C586 C 0.52721 0.23334 0.31498 0.0
H587 H 0.49955 0.32612 0.3756 0.0
H588 H 0.50621 0.29264 0.37078 0.0
H589 H 0.4825 0.26819 0.2756 0.0
H590 H 0.51973 0.1736 0.26888 0.0
H591 H 0.51901 0.20737 0.26376 0.0
C592 C 0.40032 0.12314 0.26306 0.0
C593 C 0.40912 0.12569 0.29754 0.0
C594 C 0.36589 0.12405 0.25256 0.0
C595 C 0.27834 0.11628 0.28139 0.0
H596 H 0.25122 0.14729 0.20508 0.0
C597 C 0.13564 0.12378 0.24334 0.0
C598 C 0.12722 0.12547 0.20865 0.0
C599 C 0.16997 0.12457 0.25409 0.0
C600 C 0.25838 0.13832 0.22607 0.0
H601 H 0.38879 0.13111 0.34807 0.0
H602 H 0.32812 0.13218 0.32967 0.0
H603 H 0.31127 0.14731 0.22441 0.0
H604 H 0.14811 0.12934 0.15793 0.0
H605 H 0.20851 0.12997 0.17648 0.0
H606 H 0.22616 0.10663 0.28244 0.0
C607 C 0.34812 0.12967 0.31088 0.0
C608 C 0.29273 0.13846 0.23727 0.0
C609 C 0.38274 0.12912 0.32135 0.0
C610 C 0.15389 0.12806 0.18485 0.0
C611 C 0.18847 0.12853 0.19557 0.0
C612 C 0.24417 0.11588 0.26986 0.0
C613 C 0.33947 0.12721 0.27636 0.0
C614 C 0.30294 0.12749 0.26509 0.0
C615 C 0.19695 0.12673 0.23038 0.0
C616 C 0.23363 0.12697 0.24214 0.0
H617 H 0.4201 0.12059 0.24406 0.0
H618 H 0.35985 0.12195 0.22586 0.0
H619 H 0.28574 0.10747 0.30256 0.0
H620 H 0.11561 0.12207 0.26241 0.0
H621 H 0.17523 0.12366 0.28115 0.0
C622 C 0.65417 0.37786 0.32242 0.0
C623 C 0.62781 0.38105 0.29848 0.0
C624 C 0.68883 0.37743 0.31205 0.0
C625 C 0.74428 0.36816 0.23888 0.0
H626 H 0.8106 0.40082 0.28242 0.0
C627 C 0.88242 0.37824 0.18507 0.0
C628 C 0.90931 0.38117 0.20849 0.0
C629 C 0.84796 0.37794 0.1961 0.0
C630 C 0.79267 0.39134 0.27031 0.0
H631 H 0.61692 0.3859 0.2449 0.0
H632 H 0.67723 0.38473 0.2269 0.0
H633 H 0.75111 0.39997 0.30287 0.0
H634 H 0.92142 0.3855 0.26191 0.0
H635 H 0.86195 0.38419 0.28126 0.0
H636 H 0.78573 0.35909 0.20688 0.0
C637 C 0.67114 0.38274 0.25361 0.0
C638 C 0.75855 0.39094 0.28202 0.0
C639 C 0.63667 0.38354 0.26401 0.0
C640 C 0.90121 0.38348 0.24313 0.0
C641 C 0.86697 0.38285 0.25422 0.0
C642 C 0.77855 0.3683 0.22752 0.0
C643 C 0.69753 0.37977 0.27752 0.0
C644 C 0.73403 0.37945 0.26627 0.0
C645 C 0.83979 0.38024 0.23088 0.0
C646 C 0.80321 0.37997 0.24296 0.0
H647 H 0.64805 0.37592 0.34913 0.0
H648 H 0.70883 0.37507 0.33092 0.0
H649 H 0.72579 0.35909 0.22646 0.0
H650 H 0.88795 0.37648 0.15818 0.0
H651 H 0.82776 0.37617 0.17727 0.0
C652 C 0.15229 0.87752 0.82582 0.0
C653 C 0.12633 0.88046 0.80134 0.0
C654 C 0.18709 0.87672 0.81596 0.0
C655 C 0.24341 0.8662 0.74383 0.0
H656 H 0.3094 0.89949 0.78624 0.0
C657 C 0.38112 0.87639 0.68925 0.0
C658 C 0.40812 0.87971 0.71238 0.0
C659 C 0.34675 0.87596 0.70053 0.0
C660 C 0.29157 0.88983 0.77448 0.0
H661 H 0.11629 0.88441 0.74736 0.0
H662 H 0.17679 0.8826 0.73027 0.0
H663 H 0.24983 0.89881 0.8065 0.0
H664 H 0.42049 0.88463 0.76557 0.0
H665 H 0.36115 0.88315 0.78537 0.0
H666 H 0.28501 0.85685 0.7123 0.0
C667 C 0.17031 0.88109 0.757 0.0
C668 C 0.2574 0.88952 0.78609 0.0
C669 C 0.13572 0.88226 0.76687 0.0
C670 C 0.40019 0.8823 0.747 0.0
C671 C 0.36604 0.88156 0.75835 0.0
C672 C 0.27772 0.86627 0.73257 0.0
C673 C 0.19632 0.87842 0.78143 0.0
C674 C 0.23298 0.87783 0.77066 0.0
C675 C 0.33876 0.87854 0.73528 0.0
C676 C 0.30224 0.8782 0.74756 0.0
H677 H 0.14575 0.87611 0.85255 0.0
H678 H 0.20678 0.87461 0.83523 0.0
H679 H 0.22502 0.85697 0.73168 0.0
H680 H 0.38649 0.87442 0.66238 0.0
H681 H 0.32647 0.8739 0.68188 0.0
C682 C 0.65221 0.62777 0.68541 0.0
C683 C 0.6259 0.62432 0.70929 0.0
C684 C 0.68685 0.62839 0.69581 0.0
C685 C 0.74215 0.63758 0.76917 0.0
H686 H 0.80909 0.60566 0.72472 0.0
C687 C 0.88079 0.62799 0.82223 0.0
C688 C 0.90762 0.62536 0.79862 0.0
C689 C 0.84627 0.62821 0.81135 0.0
C690 C 0.79098 0.61494 0.73709 0.0
H691 H 0.61508 0.61918 0.76278 0.0
H692 H 0.67536 0.62065 0.78085 0.0
H693 H 0.74953 0.60624 0.70446 0.0
H694 H 0.91955 0.62153 0.74503 0.0
H695 H 0.85998 0.62269 0.72597 0.0
H696 H 0.7835 0.64672 0.80125 0.0
C697 C 0.66924 0.62272 0.75416 0.0
C698 C 0.75682 0.61518 0.72549 0.0
C699 C 0.6348 0.62175 0.74373 0.0
C700 C 0.89939 0.6233 0.76395 0.0
C701 C 0.8651 0.62385 0.75302 0.0
C702 C 0.77647 0.6376 0.78043 0.0
C703 C 0.69558 0.62595 0.73031 0.0
C704 C 0.73209 0.62641 0.74155 0.0
C705 C 0.83798 0.62612 0.77655 0.0
C706 C 0.80135 0.62621 0.76464 0.0
H707 H 0.64608 0.62978 0.65872 0.0
H708 H 0.7068 0.63094 0.67698 0.0
H709 H 0.7235 0.64645 0.78183 0.0
H710 H 0.88642 0.62955 0.84914 0.0
H711 H 0.82612 0.62972 0.83032 0.0
C712 C 0.65643 0.89283 0.67614 0.0
C713 C 0.62881 0.89225 0.69944 0.0
C714 C 0.69063 0.89416 0.68779 0.0
C715 C 0.7425 0.90681 0.7642 0.0
H716 H 0.81279 0.87588 0.72245 0.0
C717 C 0.87684 0.89371 0.82557 0.0
C718 C 0.9055 0.89377 0.80348 0.0
C719 C 0.84315 0.89456 0.81247 0.0
C720 C 0.79353 0.88476 0.73417 0.0
H721 H 0.61576 0.89266 0.7534 0.0
H722 H 0.6748 0.89472 0.77334 0.0
H723 H 0.75425 0.87589 0.69932 0.0
H724 H 0.92096 0.89508 0.75019 0.0
H725 H 0.86263 0.89667 0.72776 0.0
H726 H 0.78175 0.91546 0.79935 0.0
C727 C 0.6702 0.89449 0.74611 0.0
C728 C 0.76001 0.88481 0.72082 0.0
C729 C 0.63621 0.89317 0.73455 0.0
C730 C 0.89964 0.89494 0.76811 0.0
C731 C 0.86611 0.89573 0.75511 0.0
C732 C 0.776 0.90671 0.77761 0.0
C733 C 0.69786 0.89496 0.72295 0.0
C734 C 0.73402 0.89574 0.73582 0.0
C735 C 0.83746 0.8954 0.77706 0.0
C736 C 0.80186 0.89563 0.76282 0.0
H737 H 0.6517 0.89215 0.64895 0.0
H738 H 0.71139 0.89465 0.66927 0.0
H739 H 0.72322 0.91562 0.77604 0.0
H740 H 0.88036 0.89277 0.85291 0.0
H741 H 0.82153 0.89414 0.83003 0.0
C742 C 0.37697 0.61291 0.67843 0.0
C743 C 0.40507 0.61242 0.70118 0.0
C744 C 0.34295 0.61213 0.6907 0.0
C745 C 0.29129 0.59941 0.76719 0.0
H746 H 0.22327 0.63273 0.72812 0.0
C747 C 0.15704 0.6134 0.82888 0.0
C748 C 0.12874 0.61414 0.80639 0.0
C749 C 0.19092 0.61246 0.8162 0.0
C750 C 0.24188 0.62322 0.73911 0.0
H751 H 0.41917 0.61055 0.75477 0.0
H752 H 0.36039 0.60944 0.77581 0.0
H753 H 0.28158 0.63187 0.70458 0.0
H754 H 0.11413 0.6142 0.7528 0.0
H755 H 0.17262 0.61244 0.73114 0.0
H756 H 0.25155 0.59093 0.80197 0.0
C757 C 0.36448 0.61012 0.74852 0.0
C758 C 0.27527 0.62267 0.72551 0.0
C759 C 0.39831 0.61089 0.73635 0.0
C760 C 0.13513 0.61371 0.77105 0.0
C761 C 0.16879 0.61283 0.75849 0.0
C762 C 0.25789 0.6 0.78085 0.0
C763 C 0.33636 0.61083 0.72593 0.0
C764 C 0.3004 0.61079 0.73943 0.0
C765 C 0.19709 0.61234 0.78083 0.0
C766 C 0.23282 0.6119 0.76694 0.0
H767 H 0.38119 0.61407 0.65122 0.0
H768 H 0.32181 0.61252 0.67259 0.0
H769 H 0.30991 0.58992 0.77823 0.0
H770 H 0.15309 0.61373 0.85621 0.0
H771 H 0.21229 0.6122 0.83406 0.0
C772 C 0.6575 0.11191 0.33055 0.0
C773 C 0.62966 0.11206 0.30748 0.0
C774 C 0.69162 0.11079 0.31864 0.0
C775 C 0.7435 0.09819 0.24222 0.0
H776 H 0.81264 0.13025 0.28297 0.0
C777 C 0.87784 0.11192 0.18093 0.0
C778 C 0.90632 0.11228 0.20324 0.0
C779 C 0.84406 0.11094 0.1938 0.0
C780 C 0.79371 0.12107 0.27153 0.0
H781 H 0.61613 0.11099 0.25367 0.0
H782 H 0.67508 0.10929 0.23326 0.0
H783 H 0.75417 0.12978 0.30619 0.0
H784 H 0.92135 0.11159 0.25669 0.0
H785 H 0.86293 0.10977 0.2787 0.0
H786 H 0.78306 0.08968 0.20727 0.0
C787 C 0.6707 0.10973 0.26053 0.0
C788 C 0.76023 0.12075 0.28493 0.0
C789 C 0.63677 0.11083 0.27234 0.0
C790 C 0.90019 0.1114 0.2386 0.0
C791 C 0.86659 0.11048 0.25136 0.0
C792 C 0.77699 0.09855 0.22875 0.0
C793 C 0.69858 0.10978 0.28345 0.0
C794 C 0.73467 0.10938 0.27034 0.0
C795 C 0.83812 0.11039 0.22919 0.0
C796 C 0.80244 0.11002 0.24322 0.0
H797 H 0.653 0.11283 0.35776 0.0
H798 H 0.71255 0.11069 0.337 0.0
H799 H 0.72455 0.08907 0.23067 0.0
H800 H 0.88158 0.11261 0.1536 0.0
H801 H 0.82257 0.11103 0.17607 0.0
C802 C 0.13722 0.39268 0.23427 0.0
C803 C 0.13043 0.39169 0.19904 0.0
C804 C 0.17104 0.39356 0.24643 0.0
C805 C 0.26079 0.38255 0.22273 0.0
H806 H 0.28295 0.41344 0.30084 0.0
C807 C 0.40041 0.39259 0.26928 0.0
C808 C 0.40665 0.39167 0.30462 0.0
C809 C 0.36679 0.39326 0.25659 0.0
C810 C 0.27705 0.40461 0.27925 0.0
H811 H 0.15423 0.39104 0.14898 0.0
H812 H 0.21362 0.3928 0.17034 0.0
H813 H 0.2246 0.41402 0.27707 0.0
H814 H 0.38204 0.39097 0.35431 0.0
H815 H 0.32291 0.39215 0.33194 0.0
H816 H 0.31326 0.37317 0.22489 0.0
C817 C 0.19251 0.39268 0.18849 0.0
C818 C 0.24366 0.40495 0.26557 0.0
C819 C 0.15849 0.39178 0.17624 0.0
C820 C 0.37821 0.39171 0.32699 0.0
C821 C 0.34437 0.39244 0.31419 0.0
C822 C 0.29419 0.38226 0.23634 0.0
C823 C 0.19913 0.39353 0.22377 0.0
C824 C 0.23509 0.39386 0.23724 0.0
C825 C 0.33836 0.39305 0.27881 0.0
C826 C 0.30268 0.39326 0.26478 0.0
H827 H 0.1164 0.39254 0.25275 0.0
H828 H 0.17515 0.39386 0.27373 0.0
H829 H 0.25493 0.37359 0.20132 0.0
H830 H 0.42153 0.39265 0.25113 0.0
H831 H 0.36306 0.39403 0.22926 0.0
C832 C 0.9664 0.06563 0.06492 0.0
C833 C 0.98115 0.0637 0.0975 0.0
C834 C 0.96502 0.05053 0.04256 0.0
C835 C 0.01006 0.01026 0.01536 0.0
H836 H 0.92254 0.99007 0.98397 0.0
C837 C 0.9933 0.95963 0.90017 0.0
C838 C 0.97925 0.94241 0.90983 0.0
C839 C 0.99311 0.97461 0.92298 0.0
C840 C 0.9471 0.99565 0.99248 0.0
H841 H 0.00623 0.04451 0.13215 0.0
H842 H 0.00493 0.01817 0.09227 0.0
H843 H 0.92301 0.01589 0.02499 0.0
H844 H 0.95314 0.9275 0.9504 0.0
H845 H 0.95158 0.95395 0.98961 0.0
H846 H 0.03415 0.9904 0.98207 0.0
C847 C 0.99395 0.03134 0.0845 0.0
C848 C 0.94737 0.01035 0.01585 0.0
C849 C 0.99453 0.04635 0.10728 0.0
C850 C 0.96421 0.94061 0.9423 0.0
C851 C 0.96323 0.9557 0.9647 0.0
C852 C 0.00979 0.99587 0.99133 0.0
C853 C 0.97913 0.03334 0.05201 0.0
C854 C 0.97885 0.01766 0.02763 0.0
C855 C 0.97805 0.97275 0.9554 0.0
C856 C 0.97831 0.9884 0.97986 0.0
H857 H 0.95581 0.07883 0.05673 0.0
H858 H 0.95356 0.05236 0.01757 0.0
H859 H 0.03462 0.01579 0.02399 0.0
H860 H 0.00525 0.96136 0.8754 0.0
H861 H 0.00463 0.98767 0.91531 0.0
C862 C 0.05617 0.54703 0.89886 0.0
C863 C 0.05438 0.56521 0.91184 0.0
C864 C 0.0569 0.53175 0.92098 0.0
C865 C 0.07712 0.50249 0.97357 0.0
H866 H 0.02055 0.50363 0.05522 0.0
C867 C 0.05571 0.4379 0.05851 0.0
C868 C 0.05624 0.4404 0.09408 0.0
C869 C 0.05642 0.45317 0.03653 0.0
C870 C 0.03681 0.50318 0.03275 0.0
H871 H 0.05245 0.58153 0.95836 0.0
H872 H 0.05434 0.55506 0.99664 0.0
H873 H 0.01941 0.52985 0.016 0.0
H874 H 0.05799 0.46098 0.1344 0.0
H875 H 0.05925 0.4877 0.09593 0.0
H876 H 0.09418 0.47567 0.99024 0.0
C877 C 0.05447 0.55251 0.96943 0.0
C878 C 0.03618 0.51823 0.01022 0.0
C879 C 0.0536 0.56773 0.94739 0.0
C880 C 0.05759 0.45856 0.10715 0.0
C881 C 0.0581 0.47387 0.0851 0.0
C882 C 0.07763 0.48739 0.99605 0.0
C883 C 0.05595 0.5343 0.95658 0.0
C884 C 0.05637 0.51811 0.98034 0.0
C885 C 0.0575 0.47135 0.04952 0.0
C886 C 0.05748 0.48756 0.02592 0.0
H887 H 0.05665 0.54459 0.87162 0.0
H888 H 0.05764 0.51792 0.91014 0.0
H889 H 0.09343 0.50201 0.95114 0.0
H890 H 0.05463 0.42412 0.0475 0.0
H891 H 0.05549 0.45072 0.0093 0.0
C892 C 0.4801 0.43757 0.44693 0.0
C893 C 0.47968 0.44028 0.41141 0.0
C894 C 0.47929 0.45268 0.46924 0.0
C895 C 0.45754 0.5028 0.47417 0.0
H896 H 0.5138 0.50099 0.556 0.0
C897 C 0.47984 0.56693 0.56004 0.0
C898 C 0.4792 0.56432 0.59558 0.0
C899 C 0.47894 0.55174 0.53787 0.0
C900 C 0.49762 0.50163 0.53348 0.0
H901 H 0.47804 0.46112 0.37157 0.0
H902 H 0.47713 0.48758 0.41058 0.0
H903 H 0.51454 0.47492 0.51639 0.0
H904 H 0.47708 0.54361 0.63564 0.0
H905 H 0.4755 0.51703 0.59683 0.0
H906 H 0.44096 0.52963 0.49119 0.0
C907 C 0.47755 0.4737 0.42117 0.0
C908 C 0.49803 0.48667 0.51072 0.0
C909 C 0.47823 0.45853 0.39877 0.0
C910 C 0.47758 0.54611 0.60842 0.0
C911 C 0.47688 0.53088 0.58618 0.0
C912 C 0.45726 0.5178 0.49688 0.0
C913 C 0.47821 0.47096 0.45672 0.0
C914 C 0.47796 0.48703 0.48077 0.0
C915 C 0.47756 0.53352 0.55063 0.0
C916 C 0.4773 0.5174 0.52682 0.0
H917 H 0.48099 0.42371 0.45763 0.0
H918 H 0.47919 0.44999 0.4964 0.0
H919 H 0.44134 0.50346 0.45169 0.0
H920 H 0.48113 0.58074 0.5492 0.0
H921 H 0.47996 0.55428 0.51068 0.0
C922 C 0.55046 0.93731 0.55968 0.0
C923 C 0.5517 0.93999 0.59519 0.0
C924 C 0.55115 0.95244 0.53741 0.0
C925 C 0.57415 1.0024 0.53245 0.0
H926 H 0.51699 1.00111 0.4512 0.0
C927 C 0.55249 0.06681 0.44732 0.0
C928 C 0.553 0.06428 0.41175 0.0
C929 C 0.55312 0.05157 0.46935 0.0
C930 C 0.53341 1.0016 0.47356 0.0
H931 H 0.5545 0.96078 0.63507 0.0
H932 H 0.55513 0.98727 0.59616 0.0
H933 H 0.516 0.97499 0.49069 0.0
H934 H 0.55452 0.04364 0.37151 0.0
H935 H 0.55559 0.01696 0.4101 0.0
H936 H 0.59121 0.02914 0.51542 0.0
C937 C 0.55422 0.9734 0.58552 0.0
C938 C 0.53287 0.98661 0.49625 0.0
C939 C 0.55368 0.95822 0.60787 0.0
C940 C 0.55414 0.04609 0.39875 0.0
C941 C 0.55455 0.0308 0.42086 0.0
C942 C 0.57456 0.01743 0.50983 0.0
C943 C 0.55289 0.9707 0.54997 0.0
C944 C 0.55326 0.98679 0.526 0.0
C945 C 0.55408 0.03338 0.45644 0.0
C946 C 0.55418 0.01721 0.48012 0.0
H947 H 0.54914 0.92347 0.54895 0.0
H948 H 0.55072 0.94977 0.51024 0.0
H949 H 0.59064 0.00292 0.55475 0.0
H950 H 0.55157 0.08061 0.45828 0.0
H951 H 0.55227 0.05406 0.49657 0.0
loop_
_geom_bond_atom_site_label_1
_geom_bond_atom_site_label_2
_geom_bond_distance
_geom_bond_site_symmetry_2
_ccdc_geom_bond_type
Co0 O2 2.143 . S
Co0 O8 2.074 1_455 S
Co0 O11 2.093 . S
Co0 O24 2.097 . S
Co0 N41 2.151 . S
Co0 N49 2.214 . S
Co1 O2 2.160 1_655 S
Co1 O7 2.058 . S
Co1 O17 2.057 1_655 S
Co1 O32 2.037 1_655 S
Co1 N36 2.145 . S
Co1 N57 2.257 1_655 S
O2 Co0 2.143 . S
O2 Co1 2.160 1_455 S
C3 O4 1.278 . S
C3 O11 1.224 . S
O4 C3 1.278 . S
C5 O6 1.245 . S
C5 O17 1.232 . S
O6 C5 1.245 . S
O7 Co1 2.058 . S
O7 C33 1.269 . S
O8 Co0 2.074 1_655 S
O8 C33 1.257 . S
H9 C34 0.930 . S
H10 C40 0.930 . S
O11 Co0 2.093 . S
O11 C3 1.224 . S
H12 C44 0.929 1_655 S
H13 C46 0.930 . S
H14 C47 0.930 . S
H15 C45 0.929 1_655 S
H16 C48 0.928 . S
O17 Co1 2.057 1_455 S
O17 C5 1.232 . S
H18 C37 0.929 . S
H19 C38 0.929 . S
H20 C50 0.931 . S
H21 C42 0.929 . S
H22 C51 0.930 . S
H23 C43 0.931 . S
O24 Co0 2.097 . S
O24 C52 1.214 . S
H25 C53 0.929 . S
H26 C54 0.929 . S
H27 C55 0.930 . S
H28 C56 0.929 . S
H29 C58 0.930 . S
H30 C35 0.930 . S
H31 C39 0.930 . S
O32 Co1 2.037 1_455 S
O32 C52 1.234 . S
C33 O7 1.269 . S
C33 O8 1.257 . S
C34 H9 0.930 . S
C34 C37 1.388 . S
C34 C39 1.418 . S
C35 H30 0.930 . S
C35 C38 1.404 . S
C35 C39 1.353 . S
N36 Co1 2.145 . S
N36 C37 1.397 . S
N36 C38 1.334 . S
C37 H18 0.929 . S
C37 C34 1.388 . S
C37 N36 1.397 . S
C38 H19 0.929 . S
C38 C35 1.404 . S
C38 N36 1.334 . S
C39 H31 0.930 . S
C39 C34 1.418 . S
C39 C35 1.353 . S
C40 H10 0.930 . S
C40 N41 1.330 . S
C40 C42 1.446 . S
N41 Co0 2.151 . S
N41 C40 1.330 . S
N41 C45 1.418 . S
C42 H21 0.929 . S
C42 C40 1.446 . S
C42 C43 1.332 . S
C43 H23 0.931 . S
C43 C42 1.332 . S
C43 C44 1.267 . S
C44 H12 0.929 1_455 S
C44 C43 1.267 . S
C44 C45 1.251 . S
C45 H15 0.929 1_455 S
C45 N41 1.418 . S
C45 C44 1.251 . S
C46 H13 0.930 . S
C46 C48 1.406 . S
C46 C51 1.261 . S
C47 H14 0.930 . S
C47 N49 1.325 1_655 S
C47 C50 1.357 . S
C48 H16 0.928 . S
C48 C46 1.406 . S
C48 N49 1.261 . S
N49 Co0 2.214 . S
N49 C47 1.325 1_455 S
N49 C48 1.261 . S
C50 H20 0.931 . S
C50 C47 1.357 . S
C50 C51 1.312 1_655 S
C51 H22 0.930 . S
C51 C46 1.261 . S
C51 C50 1.312 1_455 S
C52 O24 1.214 . S
C52 O32 1.234 . S
C53 H25 0.929 . S
C53 C56 1.391 . S
C53 C58 1.391 . S
C54 H26 0.929 . S
C54 C55 1.390 . S
C54 N57 1.391 . S
C55 H27 0.930 . S
C55 C54 1.390 . S
C55 C56 1.392 . S
C56 H28 0.929 . S
C56 C53 1.391 . S
C56 C55 1.392 . S
N57 Co1 2.257 1_455 S
N57 C54 1.391 . S
N57 C58 1.388 . S
C58 H29 0.930 . S
C58 C53 1.391 . S
C58 N57 1.388 . S
Co59 O61 2.143 . S
Co59 O67 2.074 . S
Co59 O70 2.093 1_455 S
Co59 O83 2.097 . S
Co59 N100 2.151 . S
Co59 N108 2.214 . S
Co60 O61 2.160 . S
Co60 O66 2.058 . S
Co60 O76 2.057 . S
Co60 O91 2.037 . S
Co60 N95 2.145 . S
Co60 N116 2.257 1_455 S
O61 Co59 2.143 . S
O61 Co60 2.160 . S
C62 O63 1.278 . S
C62 O70 1.224 . S
O63 C62 1.278 . S
C64 O65 1.245 . S
C64 O76 1.232 . S
O65 C64 1.245 . S
O66 Co60 2.058 . S
O66 C92 1.269 . S
O67 Co59 2.074 . S
O67 C92 1.257 . S
H68 C93 0.930 . S
H69 C99 0.930 . S
O70 Co59 2.093 1_655 S
O70 C62 1.224 . S
H71 C103 0.929 . S
H72 C105 0.922 1_655 S
H73 C106 0.930 . S
H74 C104 0.929 . S
H75 C107 0.928 1_655 S
O76 Co60 2.057 . S
O76 C64 1.232 . S
H77 C96 0.929 . S
H78 C97 0.929 . S
H79 C109 0.931 . S
H80 C101 0.929 . S
H81 C110 0.930 . S
H82 C102 0.931 . S
O83 Co59 2.097 . S
O83 C111 1.214 . S
H84 C112 0.929 . S
H85 C113 0.929 1_455 S
H86 C114 0.930 . S
H87 C115 0.929 . S
H88 C117 0.930 . S
H89 C94 0.930 . S
H90 C98 0.930 . S
O91 Co60 2.037 . S
O91 C111 1.234 . S
C92 O66 1.269 . S
C92 O67 1.257 . S
C93 H68 0.930 . S
C93 C96 1.388 . S
C93 C98 1.418 . S
C94 H89 0.930 . S
C94 C97 1.404 . S
C94 C98 1.353 . S
N95 Co60 2.145 . S
N95 C96 1.397 . S
N95 C97 1.334 . S
C96 H77 0.929 . S
C96 C93 1.388 . S
C96 N95 1.397 . S
C97 H78 0.929 . S
C97 C94 1.404 . S
C97 N95 1.334 . S
C98 H90 0.930 . S
C98 C93 1.418 . S
C98 C94 1.353 . S
C99 H69 0.930 . S
C99 N100 1.330 1_655 S
C99 C101 1.446 . S
N100 Co59 2.151 . S
N100 C99 1.330 1_455 S
N100 C104 1.418 . S
C101 H80 0.929 . S
C101 C99 1.446 . S
C101 C102 1.332 1_655 S
C102 H82 0.931 . S
C102 C101 1.332 1_455 S
C102 C103 1.267 . S
C103 H71 0.929 . S
C103 C102 1.267 . S
C103 C104 1.251 . S
C104 H74 0.929 . S
C104 N100 1.418 . S
C104 C103 1.251 . S
C105 H72 0.922 1_455 S
C105 C107 1.406 . S
C105 C110 1.261 . S
C106 H73 0.930 . S
C106 N108 1.325 . S
C106 C109 1.357 . S
C107 H75 0.928 1_455 S
C107 C105 1.406 . S
C107 N108 1.261 . S
N108 Co59 2.214 . S
N108 C106 1.325 . S
N108 C107 1.261 . S
C109 H79 0.931 . S
C109 C106 1.357 . S
C109 C110 1.312 . S
C110 H81 0.930 . S
C110 C105 1.261 . S
C110 C109 1.312 . S
C111 O83 1.214 . S
C111 O91 1.234 . S
C112 H84 0.929 . S
C112 C115 1.391 . S
C112 C117 1.391 . S
C113 H85 0.929 1_655 S
C113 C114 1.390 . S
C113 N116 1.391 . S
C114 H86 0.930 . S
C114 C113 1.390 . S
C114 C115 1.392 . S
C115 H87 0.929 . S
C115 C112 1.391 . S
C115 C114 1.392 . S
N116 Co60 2.257 1_655 S
N116 C113 1.391 . S
N116 C117 1.388 . S
C117 H88 0.930 . S
C117 C112 1.391 . S
C117 N116 1.388 . S
Co118 O120 2.143 . S
Co118 O126 2.074 1_455 S
Co118 O129 2.093 . S
Co118 O142 2.097 . S
Co118 N159 2.151 . S
Co118 N167 2.214 . S
Co119 O120 2.160 1_655 S
Co119 O125 2.058 . S
Co119 O135 2.057 1_655 S
Co119 O150 2.037 1_655 S
Co119 N154 2.145 . S
Co119 N175 2.257 1_655 S
O120 Co118 2.143 . S
O120 Co119 2.160 1_455 S
C121 O122 1.278 . S
C121 O129 1.224 . S
O122 C121 1.278 . S
C123 O124 1.245 . S
C123 O135 1.232 . S
O124 C123 1.245 . S
O125 Co119 2.058 . S
O125 C151 1.269 . S
O126 Co118 2.074 1_655 S
O126 C151 1.257 . S
H127 C152 0.930 . S
H128 C158 0.930 . S
O129 Co118 2.093 . S
O129 C121 1.224 . S
H130 C162 0.929 1_655 S
H131 C164 0.930 . S
H132 C165 0.930 . S
H133 C163 0.929 1_655 S
H134 C166 0.928 . S
O135 Co119 2.057 1_455 S
O135 C123 1.232 . S
H136 C155 0.929 . S
H137 C156 0.929 . S
H138 C168 0.931 . S
H139 C160 0.929 . S
H140 C169 0.930 . S
H141 C161 0.931 . S
O142 Co118 2.097 . S
O142 C170 1.214 . S
H143 C171 0.929 . S
H144 C172 0.929 . S
H145 C173 0.930 . S
H146 C174 0.929 . S
H147 C176 0.930 . S
H148 C153 0.930 . S
H149 C157 0.930 . S
O150 Co119 2.037 1_455 S
O150 C170 1.234 . S
C151 O125 1.269 . S
C151 O126 1.257 . S
C152 H127 0.930 . S
C152 C155 1.388 . S
C152 C157 1.418 . S
C153 H148 0.930 . S
C153 C156 1.404 . S
C153 C157 1.353 . S
N154 Co119 2.145 . S
N154 C155 1.397 . S
N154 C156 1.334 . S
C155 H136 0.929 . S
C155 C152 1.388 . S
C155 N154 1.397 . S
C156 H137 0.929 . S
C156 C153 1.404 . S
C156 N154 1.334 . S
C157 H149 0.930 . S
C157 C152 1.418 . S
C157 C153 1.353 . S
C158 H128 0.930 . S
C158 N159 1.330 . S
C158 C160 1.446 . S
N159 Co118 2.151 . S
N159 C158 1.330 . S
N159 C163 1.418 . S
C160 H139 0.929 . S
C160 C158 1.446 . S
C160 C161 1.332 . S
C161 H141 0.931 . S
C161 C160 1.332 . S
C161 C162 1.267 . S
C162 H130 0.929 1_455 S
C162 C161 1.267 . S
C162 C163 1.251 . S
C163 H133 0.929 1_455 S
C163 N159 1.418 . S
C163 C162 1.251 . S
C164 H131 0.930 . S
C164 C166 1.406 . S
C164 C169 1.261 . S
C165 H132 0.930 . S
C165 N167 1.325 1_655 S
C165 C168 1.357 . S
C166 H134 0.928 . S
C166 C164 1.406 . S
C166 N167 1.261 . S
N167 Co118 2.214 . S
N167 C165 1.325 1_455 S
N167 C166 1.261 . S
C168 H138 0.931 . S
C168 C165 1.357 . S
C168 C169 1.312 1_655 S
C169 H140 0.930 . S
C169 C164 1.261 . S
C169 C168 1.312 1_455 S
C170 O142 1.214 . S
C170 O150 1.234 . S
C171 H143 0.929 . S
C171 C174 1.391 . S
C171 C176 1.391 . S
C172 H144 0.929 . S
C172 C173 1.390 . S
C172 N175 1.391 . S
C173 H145 0.930 . S
C173 C172 1.390 . S
C173 C174 1.392 . S
C174 H146 0.929 . S
C174 C171 1.391 . S
C174 C173 1.392 . S
N175 Co119 2.257 1_455 S
N175 C172 1.391 . S
N175 C176 1.388 . S
C176 H147 0.930 . S
C176 C171 1.391 . S
C176 N175 1.388 . S
Co177 O179 2.143 . S
Co177 O185 2.074 . S
Co177 O188 2.093 1_455 S
Co177 O201 2.097 . S
Co177 N218 2.151 . S
Co177 N226 2.214 . S
Co178 O179 2.160 . S
Co178 O184 2.058 . S
Co178 O194 2.057 . S
Co178 O209 2.037 . S
Co178 N213 2.145 . S
Co178 N234 2.257 1_455 S
O179 Co177 2.143 . S
O179 Co178 2.160 . S
C180 O181 1.278 . S
C180 O188 1.224 . S
O181 C180 1.278 . S
C182 O183 1.245 . S
C182 O194 1.232 . S
O183 C182 1.245 . S
O184 Co178 2.058 . S
O184 C210 1.269 . S
O185 Co177 2.074 . S
O185 C210 1.257 . S
H186 C211 0.930 . S
H187 C217 0.930 . S
O188 Co177 2.093 1_655 S
O188 C180 1.224 . S
H189 C221 0.929 . S
H190 C223 0.922 1_655 S
H191 C224 0.930 . S
H192 C222 0.929 . S
H193 C225 0.928 1_655 S
O194 Co178 2.057 . S
O194 C182 1.232 . S
H195 C214 0.929 . S
H196 C215 0.929 . S
H197 C227 0.931 . S
H198 C219 0.929 . S
H199 C228 0.930 . S
H200 C220 0.931 . S
O201 Co177 2.097 . S
O201 C229 1.214 . S
H202 C230 0.929 . S
H203 C231 0.929 1_455 S
H204 C232 0.930 . S
H205 C233 0.929 . S
H206 C235 0.930 . S
H207 C212 0.930 . S
H208 C216 0.930 . S
O209 Co178 2.037 . S
O209 C229 1.234 . S
C210 O184 1.269 . S
C210 O185 1.257 . S
C211 H186 0.930 . S
C211 C214 1.388 . S
C211 C216 1.418 . S
C212 H207 0.930 . S
C212 C215 1.404 . S
C212 C216 1.353 . S
N213 Co178 2.145 . S
N213 C214 1.397 . S
N213 C215 1.334 . S
C214 H195 0.929 . S
C214 C211 1.388 . S
C214 N213 1.397 . S
C215 H196 0.929 . S
C215 C212 1.404 . S
C215 N213 1.334 . S
C216 H208 0.930 . S
C216 C211 1.418 . S
C216 C212 1.353 . S
C217 H187 0.930 . S
C217 N218 1.330 1_655 S
C217 C219 1.446 . S
N218 Co177 2.151 . S
N218 C217 1.330 1_455 S
N218 C222 1.418 . S
C219 H198 0.929 . S
C219 C217 1.446 . S
C219 C220 1.332 1_655 S
C220 H200 0.931 . S
C220 C219 1.332 1_455 S
C220 C221 1.267 . S
C221 H189 0.929 . S
C221 C220 1.267 . S
C221 C222 1.251 . S
C222 H192 0.929 . S
C222 N218 1.418 . S
C222 C221 1.251 . S
C223 H190 0.922 1_455 S
C223 C225 1.406 . S
C223 C228 1.261 . S
C224 H191 0.930 . S
C224 N226 1.325 . S
C224 C227 1.357 . S
C225 H193 0.928 1_455 S
C225 C223 1.406 . S
C225 N226 1.261 . S
N226 Co177 2.214 . S
N226 C224 1.325 . S
N226 C225 1.261 . S
C227 H197 0.931 . S
C227 C224 1.357 . S
C227 C228 1.312 . S
C228 H199 0.930 . S
C228 C223 1.261 . S
C228 C227 1.312 . S
C229 O201 1.214 . S
C229 O209 1.234 . S
C230 H202 0.929 . S
C230 C233 1.391 . S
C230 C235 1.391 . S
C231 H203 0.929 1_655 S
C231 C232 1.390 . S
C231 N234 1.391 . S
C232 H204 0.930 . S
C232 C231 1.390 . S
C232 C233 1.392 . S
C233 H205 0.929 . S
C233 C230 1.391 . S
C233 C232 1.392 . S
N234 Co178 2.257 1_655 S
N234 C231 1.391 . S
N234 C235 1.388 . S
C235 H206 0.930 . S
C235 C230 1.391 . S
C235 N234 1.388 . S
Co236 O238 2.143 . S
Co236 O244 2.074 . S
Co236 O247 2.093 . S
Co236 O260 2.097 . S
Co236 N277 2.151 . S
Co236 N285 2.214 . S
Co237 O238 2.160 . S
Co237 O243 2.058 . S
Co237 O253 2.057 . S
Co237 O268 2.037 . S
Co237 N272 2.145 . S
Co237 N293 2.257 . S
O238 Co236 2.143 . S
O238 Co237 2.160 . S
C239 O240 1.278 . S
C239 O247 1.224 . S
O240 C239 1.278 . S
C241 O242 1.245 . S
C241 O253 1.232 . S
O242 C241 1.245 . S
O243 Co237 2.058 . S
O243 C269 1.269 . S
O244 Co236 2.074 . S
O244 C269 1.257 . S
H245 C270 0.930 . S
H246 C276 0.930 . S
O247 Co236 2.093 . S
O247 C239 1.224 . S
H248 C280 0.929 . S
H249 C282 0.930 . S
H250 C283 0.930 . S
H251 C281 0.929 . S
H252 C284 0.928 . S
O253 Co237 2.057 . S
O253 C241 1.232 . S
H254 C273 0.929 . S
H255 C274 0.929 . S
H256 C286 0.931 . S
H257 C278 0.929 . S
H258 C287 0.930 . S
H259 C279 0.931 . S
O260 Co236 2.097 . S
O260 C288 1.214 . S
H261 C289 0.929 . S
H262 C290 0.929 . S
H263 C291 0.930 . S
H264 C292 0.929 . S
H265 C294 0.930 . S
H266 C271 0.930 . S
H267 C275 0.930 . S
O268 Co237 2.037 . S
O268 C288 1.234 . S
C269 O243 1.269 . S
C269 O244 1.257 . S
C270 H245 0.930 . S
C270 C273 1.388 . S
C270 C275 1.418 . S
C271 H266 0.930 . S
C271 C274 1.404 . S
C271 C275 1.353 . S
N272 Co237 2.145 . S
N272 C273 1.397 . S
N272 C274 1.334 . S
C273 H254 0.929 . S
C273 C270 1.388 . S
C273 N272 1.397 . S
C274 H255 0.929 . S
C274 C271 1.404 . S
C274 N272 1.334 . S
C275 H267 0.930 . S
C275 C270 1.418 . S
C275 C271 1.353 . S
C276 H246 0.930 . S
C276 N277 1.330 . S
C276 C278 1.446 . S
N277 Co236 2.151 . S
N277 C276 1.330 . S
N277 C281 1.418 . S
C278 H257 0.929 . S
C278 C276 1.446 . S
C278 C279 1.332 . S
C279 H259 0.931 . S
C279 C278 1.332 . S
C279 C280 1.267 . S
C280 H248 0.929 . S
C280 C279 1.267 . S
C280 C281 1.251 . S
C281 H251 0.929 . S
C281 N277 1.418 . S
C281 C280 1.251 . S
C282 H249 0.930 . S
C282 C284 1.406 . S
C282 C287 1.261 . S
C283 H250 0.930 . S
C283 N285 1.325 . S
C283 C286 1.357 . S
C284 H252 0.928 . S
C284 C282 1.406 . S
C284 N285 1.261 . S
N285 Co236 2.214 . S
N285 C283 1.325 . S
N285 C284 1.261 . S
C286 H256 0.931 . S
C286 C283 1.357 . S
C286 C287 1.312 . S
C287 H258 0.930 . S
C287 C282 1.261 . S
C287 C286 1.312 . S
C288 O260 1.214 . S
C288 O268 1.234 . S
C289 H261 0.929 . S
C289 C292 1.391 . S
C289 C294 1.391 . S
C290 H262 0.929 . S
C290 C291 1.390 . S
C290 N293 1.391 . S
C291 H263 0.930 . S
C291 C290 1.390 . S
C291 C292 1.392 . S
C292 H264 0.929 . S
C292 C289 1.391 . S
C292 C291 1.392 . S
N293 Co237 2.257 . S
N293 C290 1.391 . S
N293 C294 1.388 . S
C294 H265 0.930 . S
C294 C289 1.391 . S
C294 N293 1.388 . S
Co295 O297 2.143 . S
Co295 O303 2.074 . S
Co295 O306 2.093 . S
Co295 O319 2.097 . S
Co295 N336 2.151 . S
Co295 N344 2.214 . S
Co296 O297 2.160 . S
Co296 O302 2.058 . S
Co296 O312 2.057 . S
Co296 O327 2.037 . S
Co296 N331 2.145 . S
Co296 N352 2.257 . S
O297 Co295 2.143 . S
O297 Co296 2.160 . S
C298 O299 1.278 . S
C298 O306 1.224 . S
O299 C298 1.278 . S
C300 O301 1.245 . S
C300 O312 1.232 . S
O301 C300 1.245 . S
O302 Co296 2.058 . S
O302 C328 1.269 . S
O303 Co295 2.074 . S
O303 C328 1.257 . S
H304 C329 0.930 . S
H305 C335 0.930 . S
O306 Co295 2.093 . S
O306 C298 1.224 . S
H307 C339 0.929 . S
H308 C341 0.930 . S
H309 C342 0.930 . S
H310 C340 0.929 . S
H311 C343 0.928 . S
O312 Co296 2.057 . S
O312 C300 1.232 . S
H313 C332 0.929 . S
H314 C333 0.929 . S
H315 C345 0.931 . S
H316 C337 0.929 . S
H317 C346 0.930 . S
H318 C338 0.931 . S
O319 Co295 2.097 . S
O319 C347 1.214 . S
H320 C348 0.929 . S
H321 C349 0.929 . S
H322 C350 0.930 . S
H323 C351 0.929 . S
H324 C353 0.930 . S
H325 C330 0.930 . S
H326 C334 0.930 . S
O327 Co296 2.037 . S
O327 C347 1.234 . S
C328 O302 1.269 . S
C328 O303 1.257 . S
C329 H304 0.930 . S
C329 C332 1.388 . S
C329 C334 1.418 . S
C330 H325 0.930 . S
C330 C333 1.404 . S
C330 C334 1.353 . S
N331 Co296 2.145 . S
N331 C332 1.397 . S
N331 C333 1.334 . S
C332 H313 0.929 . S
C332 C329 1.388 . S
C332 N331 1.397 . S
C333 H314 0.929 . S
C333 C330 1.404 . S
C333 N331 1.334 . S
C334 H326 0.930 . S
C334 C329 1.418 . S
C334 C330 1.353 . S
C335 H305 0.930 . S
C335 N336 1.330 . S
C335 C337 1.446 . S
N336 Co295 2.151 . S
N336 C335 1.330 . S
N336 C340 1.418 . S
C337 H316 0.929 . S
C337 C335 1.446 . S
C337 C338 1.332 . S
C338 H318 0.931 . S
C338 C337 1.332 . S
C338 C339 1.267 . S
C339 H307 0.929 . S
C339 C338 1.267 . S
C339 C340 1.251 . S
C340 H310 0.929 . S
C340 N336 1.418 . S
C340 C339 1.251 . S
C341 H308 0.930 . S
C341 C343 1.406 . S
C341 C346 1.261 . S
C342 H309 0.930 . S
C342 N344 1.325 . S
C342 C345 1.357 . S
C343 H311 0.928 . S
C343 C341 1.406 . S
C343 N344 1.261 . S
N344 Co295 2.214 . S
N344 C342 1.325 . S
N344 C343 1.261 . S
C345 H315 0.931 . S
C345 C342 1.357 . S
C345 C346 1.312 . S
C346 H317 0.930 . S
C346 C341 1.261 . S
C346 C345 1.312 . S
C347 O319 1.214 . S
C347 O327 1.234 . S
C348 H320 0.929 . S
C348 C351 1.391 . S
C348 C353 1.391 . S
C349 H321 0.929 . S
C349 C350 1.390 . S
C349 N352 1.391 . S
C350 H322 0.930 . S
C350 C349 1.390 . S
C350 C351 1.392 . S
C351 H323 0.929 . S
C351 C348 1.391 . S
C351 C350 1.392 . S
N352 Co296 2.257 . S
N352 C349 1.391 . S
N352 C353 1.388 . S
C353 H324 0.930 . S
C353 C348 1.391 . S
C353 N352 1.388 . S
Co354 O356 2.143 . S
Co354 O362 2.074 . S
Co354 O365 2.093 . S
Co354 O378 2.097 . S
Co354 N395 2.151 . S
Co354 N403 2.214 . S
Co355 O356 2.160 . S
Co355 O361 2.058 . S
Co355 O371 2.057 . S
Co355 O386 2.037 . S
Co355 N390 2.145 . S
Co355 N411 2.257 . S
O356 Co354 2.143 . S
O356 Co355 2.160 . S
C357 O358 1.278 . S
C357 O365 1.224 . S
O358 C357 1.278 . S
C359 O360 1.245 . S
C359 O371 1.232 . S
O360 C359 1.245 . S
O361 Co355 2.058 . S
O361 C387 1.269 . S
O362 Co354 2.074 . S
O362 C387 1.257 . S
H363 C388 0.930 . S
H364 C394 0.930 . S
O365 Co354 2.093 . S
O365 C357 1.224 . S
H366 C398 0.929 . S
H367 C400 0.930 . S
H368 C401 0.930 . S
H369 C399 0.929 . S
H370 C402 0.928 . S
O371 Co355 2.057 . S
O371 C359 1.232 . S
H372 C391 0.929 . S
H373 C392 0.929 . S
H374 C404 0.931 . S
H375 C396 0.929 . S
H376 C405 0.930 . S
H377 C397 0.931 . S
O378 Co354 2.097 . S
O378 C406 1.214 . S
H379 C407 0.929 . S
H380 C408 0.929 . S
H381 C409 0.930 . S
H382 C410 0.929 . S
H383 C412 0.930 . S
H384 C389 0.930 . S
H385 C393 0.930 . S
O386 Co355 2.037 . S
O386 C406 1.234 . S
C387 O361 1.269 . S
C387 O362 1.257 . S
C388 H363 0.930 . S
C388 C391 1.388 . S
C388 C393 1.418 . S
C389 H384 0.930 . S
C389 C392 1.404 . S
C389 C393 1.353 . S
N390 Co355 2.145 . S
N390 C391 1.397 . S
N390 C392 1.334 . S
C391 H372 0.929 . S
C391 C388 1.388 . S
C391 N390 1.397 . S
C392 H373 0.929 . S
C392 C389 1.404 . S
C392 N390 1.334 . S
C393 H385 0.930 . S
C393 C388 1.418 . S
C393 C389 1.353 . S
C394 H364 0.930 . S
C394 N395 1.330 . S
C394 C396 1.446 . S
N395 Co354 2.151 . S
N395 C394 1.330 . S
N395 C399 1.418 . S
C396 H375 0.929 . S
C396 C394 1.446 . S
C396 C397 1.332 . S
C397 H377 0.931 . S
C397 C396 1.332 . S
C397 C398 1.267 . S
C398 H366 0.929 . S
C398 C397 1.267 . S
C398 C399 1.251 . S
C399 H369 0.929 . S
C399 N395 1.418 . S
C399 C398 1.251 . S
C400 H367 0.930 . S
C400 C402 1.406 . S
C400 C405 1.261 . S
C401 H368 0.930 . S
C401 N403 1.325 . S
C401 C404 1.357 . S
C402 H370 0.928 . S
C402 C400 1.406 . S
C402 N403 1.261 . S
N403 Co354 2.214 . S
N403 C401 1.325 . S
N403 C402 1.261 . S
C404 H374 0.931 . S
C404 C401 1.357 . S
C404 C405 1.312 . S
C405 H376 0.930 . S
C405 C400 1.261 . S
C405 C404 1.312 . S
C406 O378 1.214 . S
C406 O386 1.234 . S
C407 H379 0.929 . S
C407 C410 1.391 . S
C407 C412 1.391 . S
C408 H380 0.929 . S
C408 C409 1.390 . S
C408 N411 1.391 . S
C409 H381 0.930 . S
C409 C408 1.390 . S
C409 C410 1.392 . S
C410 H382 0.929 . S
C410 C407 1.391 . S
C410 C409 1.392 . S
N411 Co355 2.257 . S
N411 C408 1.391 . S
N411 C412 1.388 . S
C412 H383 0.930 . S
C412 C407 1.391 . S
C412 N411 1.388 . S
Co413 O415 2.143 . S
Co413 O421 2.074 . S
Co413 O424 2.093 . S
Co413 O437 2.097 . S
Co413 N454 2.151 . S
Co413 N462 2.214 . S
Co414 O415 2.160 . S
Co414 O420 2.058 . S
Co414 O430 2.057 . S
Co414 O445 2.037 . S
Co414 N449 2.145 . S
Co414 N470 2.257 . S
O415 Co413 2.143 . S
O415 Co414 2.160 . S
C416 O417 1.278 . S
C416 O424 1.224 . S
O417 C416 1.278 . S
C418 O419 1.245 . S
C418 O430 1.232 . S
O419 C418 1.245 . S
O420 Co414 2.058 . S
O420 C446 1.269 . S
O421 Co413 2.074 . S
O421 C446 1.257 . S
H422 C447 0.930 . S
H423 C453 0.930 . S
O424 Co413 2.093 . S
O424 C416 1.224 . S
H425 C457 0.929 . S
H426 C459 0.930 . S
H427 C460 0.930 . S
H428 C458 0.929 . S
H429 C461 0.928 . S
O430 Co414 2.057 . S
O430 C418 1.232 . S
H431 C450 0.929 . S
H432 C451 0.929 . S
H433 C463 0.931 . S
H434 C455 0.929 . S
H435 C464 0.930 . S
H436 C456 0.931 . S
O437 Co413 2.097 . S
O437 C465 1.214 . S
H438 C466 0.929 . S
H439 C467 0.929 . S
H440 C468 0.930 . S
H441 C469 0.929 . S
H442 C471 0.930 . S
H443 C448 0.930 . S
H444 C452 0.930 . S
O445 Co414 2.037 . S
O445 C465 1.234 . S
C446 O420 1.269 . S
C446 O421 1.257 . S
C447 H422 0.930 . S
C447 C450 1.388 . S
C447 C452 1.418 . S
C448 H443 0.930 . S
C448 C451 1.404 . S
C448 C452 1.353 . S
N449 Co414 2.145 . S
N449 C450 1.397 . S
N449 C451 1.334 . S
C450 H431 0.929 . S
C450 C447 1.388 . S
C450 N449 1.397 . S
C451 H432 0.929 . S
C451 C448 1.404 . S
C451 N449 1.334 . S
C452 H444 0.930 . S
C452 C447 1.418 . S
C452 C448 1.353 . S
C453 H423 0.930 . S
C453 N454 1.330 . S
C453 C455 1.446 . S
N454 Co413 2.151 . S
N454 C453 1.330 . S
N454 C458 1.418 . S
C455 H434 0.929 . S
C455 C453 1.446 . S
C455 C456 1.332 . S
C456 H436 0.931 . S
C456 C455 1.332 . S
C456 C457 1.267 . S
C457 H425 0.929 . S
C457 C456 1.267 . S
C457 C458 1.251 . S
C458 H428 0.929 . S
C458 N454 1.418 . S
C458 C457 1.251 . S
C459 H426 0.930 . S
C459 C461 1.406 . S
C459 C464 1.261 . S
C460 H427 0.930 . S
C460 N462 1.325 . S
C460 C463 1.357 . S
C461 H429 0.928 . S
C461 C459 1.406 . S
C461 N462 1.261 . S
N462 Co413 2.214 . S
N462 C460 1.325 . S
N462 C461 1.261 . S
C463 H433 0.931 . S
C463 C460 1.357 . S
C463 C464 1.312 . S
C464 H435 0.930 . S
C464 C459 1.261 . S
C464 C463 1.312 . S
C465 O437 1.214 . S
C465 O445 1.234 . S
C466 H438 0.929 . S
C466 C469 1.391 . S
C466 C471 1.391 . S
C467 H439 0.929 . S
C467 C468 1.390 . S
C467 N470 1.391 . S
C468 H440 0.930 . S
C468 C467 1.390 . S
C468 C469 1.392 . S
C469 H441 0.929 . S
C469 C466 1.391 . S
C469 C468 1.392 . S
N470 Co414 2.257 . S
N470 C467 1.391 . S
N470 C471 1.388 . S
C471 H442 0.930 . S
C471 C466 1.391 . S
C471 N470 1.388 . S
C472 C473 1.349 . S
C472 C474 1.327 . S
C472 H497 0.950 . S
C473 C472 1.349 . S
C473 C489 1.349 . S
C474 C472 1.327 . S
C474 C493 1.429 . S
C474 H498 0.950 . S
C475 C492 1.574 . S
C475 C494 1.368 . S
C475 H499 0.949 1_455 S
H476 C480 0.949 . S
C477 C478 1.349 1_655 S
C477 C479 1.327 . S
C477 H500 0.950 . S
C478 C477 1.349 1_455 S
C478 C490 1.349 . S
C479 C477 1.327 . S
C479 C495 1.429 1_655 S
C479 H501 0.950 . S
C480 H476 0.949 . S
C480 C488 1.574 . S
C480 C496 1.368 . S
H481 C489 0.934 1_655 S
H482 C487 0.950 1_655 S
H483 C488 0.949 . S
H484 C490 0.950 . S
H485 C491 0.950 . S
H486 C492 0.942 1_655 S
C487 H482 0.950 1_455 S
C487 C489 1.327 . S
C487 C493 1.429 . S
C488 C480 1.574 . S
C488 H483 0.949 . S
C488 C494 1.368 . S
C489 C473 1.349 . S
C489 H481 0.934 1_455 S
C489 C487 1.327 . S
C490 C478 1.349 . S
C490 H484 0.950 . S
C490 C491 1.327 . S
C491 H485 0.950 . S
C491 C490 1.327 . S
C491 C495 1.429 . S
C492 C475 1.574 . S
C492 H486 0.942 1_455 S
C492 C496 1.375 . S
C493 C474 1.429 . S
C493 C487 1.429 . S
C493 C494 1.523 . S
C494 C475 1.368 . S
C494 C488 1.368 . S
C494 C493 1.523 . S
C495 C479 1.429 1_455 S
C495 C491 1.429 . S
C495 C496 1.523 . S
C496 C480 1.368 . S
C496 C492 1.375 . S
C496 C495 1.523 . S
H497 C472 0.950 . S
H498 C474 0.950 . S
H499 C475 0.949 1_655 S
H500 C477 0.950 . S
H501 C479 0.950 . S
C502 C503 1.349 . S
C502 C504 1.327 . S
C502 H527 0.950 . S
C503 C502 1.349 . S
C503 C519 1.349 1_455 S
C504 C502 1.327 . S
C504 C523 1.429 . S
C504 H528 0.950 . S
C505 C522 1.574 . S
C505 C524 1.375 . S
C505 H529 0.942 1_455 S
H506 C510 0.949 . S
C507 C508 1.349 . S
C507 C509 1.327 . S
C507 H530 0.934 1_455 S
C508 C507 1.349 . S
C508 C520 1.349 . S
C509 C507 1.327 . S
C509 C525 1.429 . S
C509 H531 0.950 1_455 S
C510 H506 0.949 . S
C510 C518 1.574 . S
C510 C526 1.368 . S
H511 C519 0.950 . S
H512 C517 0.950 . S
H513 C518 0.949 . S
H514 C520 0.950 . S
H515 C521 0.950 . S
H516 C522 0.949 1_655 S
C517 H512 0.950 . S
C517 C519 1.327 . S
C517 C523 1.429 1_655 S
C518 C510 1.574 . S
C518 H513 0.949 . S
C518 C524 1.368 . S
C519 C503 1.349 1_655 S
C519 H511 0.950 . S
C519 C517 1.327 . S
C520 C508 1.349 . S
C520 H514 0.950 . S
C520 C521 1.327 . S
C521 H515 0.950 . S
C521 C520 1.327 . S
C521 C525 1.429 . S
C522 C505 1.574 . S
C522 H516 0.949 1_455 S
C522 C526 1.368 . S
C523 C504 1.429 . S
C523 C517 1.429 1_455 S
C523 C524 1.523 . S
C524 C505 1.375 . S
C524 C518 1.368 . S
C524 C523 1.523 . S
C525 C509 1.429 . S
C525 C521 1.429 . S
C525 C526 1.523 . S
C526 C510 1.368 . S
C526 C522 1.368 . S
C526 C525 1.523 . S
H527 C502 0.950 . S
H528 C504 0.950 . S
H529 C505 0.942 1_655 S
H530 C507 0.934 1_655 S
H531 C509 0.950 1_655 S
C532 C533 1.349 . S
C532 C534 1.327 . S
C532 H557 0.950 . S
C533 C532 1.349 . S
C533 C549 1.349 . S
C534 C532 1.327 . S
C534 C553 1.429 . S
C534 H558 0.950 . S
C535 C552 1.574 . S
C535 C554 1.368 . S
C535 H559 0.949 . S
H536 C540 0.949 . S
C537 C538 1.349 . S
C537 C539 1.327 . S
C537 H560 0.950 . S
C538 C537 1.349 . S
C538 C550 1.349 . S
C539 C537 1.327 . S
C539 C555 1.429 . S
C539 H561 0.950 . S
C540 H536 0.949 . S
C540 C548 1.574 . S
C540 C556 1.368 . S
H541 C549 0.950 . S
H542 C547 0.950 . S
H543 C548 0.949 . S
H544 C550 0.950 . S
H545 C551 0.950 . S
H546 C552 0.949 . S
C547 H542 0.950 . S
C547 C549 1.327 . S
C547 C553 1.429 . S
C548 C540 1.574 . S
C548 H543 0.949 . S
C548 C554 1.368 . S
C549 C533 1.349 . S
C549 H541 0.950 . S
C549 C547 1.327 . S
C550 C538 1.349 . S
C550 H544 0.950 . S
C550 C551 1.327 . S
C551 H545 0.950 . S
C551 C550 1.327 . S
C551 C555 1.429 . S
C552 C535 1.574 . S
C552 H546 0.949 . S
C552 C556 1.368 . S
C553 C534 1.429 . S
C553 C547 1.429 . S
C553 C554 1.523 . S
C554 C535 1.368 . S
C554 C548 1.368 . S
C554 C553 1.523 . S
C555 C539 1.429 . S
C555 C551 1.429 . S
C555 C556 1.523 . S
C556 C540 1.368 . S
C556 C552 1.368 . S
C556 C555 1.523 . S
H557 C532 0.950 . S
H558 C534 0.950 . S
H559 C535 0.949 . S
H560 C537 0.950 . S
H561 C539 0.950 . S
C562 C563 1.349 . S
C562 C564 1.327 . S
C562 H587 0.950 . S
C563 C562 1.349 . S
C563 C579 1.349 . S
C564 C562 1.327 . S
C564 C583 1.429 . S
C564 H588 0.950 . S
C565 C582 1.574 . S
C565 C584 1.368 . S
C565 H589 0.949 . S
H566 C570 0.949 . S
C567 C568 1.349 . S
C567 C569 1.327 . S
C567 H590 0.950 . S
C568 C567 1.349 . S
C568 C580 1.349 . S
C569 C567 1.327 . S
C569 C585 1.429 . S
C569 H591 0.950 . S
C570 H566 0.949 . S
C570 C578 1.574 . S
C570 C586 1.368 . S
H571 C579 0.950 . S
H572 C577 0.950 . S
H573 C578 0.949 . S
H574 C580 0.950 . S
H575 C581 0.950 . S
H576 C582 0.949 . S
C577 H572 0.950 . S
C577 C579 1.327 . S
C577 C583 1.429 . S
C578 C570 1.574 . S
C578 H573 0.949 . S
C578 C584 1.368 . S
C579 C563 1.349 . S
C579 H571 0.950 . S
C579 C577 1.327 . S
C580 C568 1.349 . S
C580 H574 0.950 . S
C580 C581 1.327 . S
C581 H575 0.950 . S
C581 C580 1.327 . S
C581 C585 1.429 . S
C582 C565 1.574 . S
C582 H576 0.949 . S
C582 C586 1.368 . S
C583 C564 1.429 . S
C583 C577 1.429 . S
C583 C584 1.523 . S
C584 C565 1.368 . S
C584 C578 1.368 . S
C584 C583 1.523 . S
C585 C569 1.429 . S
C585 C581 1.429 . S
C585 C586 1.523 . S
C586 C570 1.368 . S
C586 C582 1.368 . S
C586 C585 1.523 . S
H587 C562 0.950 . S
H588 C564 0.950 . S
H589 C565 0.949 . S
H590 C567 0.950 . S
H591 C569 0.950 . S
C592 C593 1.349 . S
C592 C594 1.327 . S
C592 H617 0.950 . S
C593 C592 1.349 . S
C593 C609 1.349 . S
C594 C592 1.327 . S
C594 C613 1.429 . S
C594 H618 0.950 . S
C595 C612 1.574 . S
C595 C614 1.368 . S
C595 H619 0.949 . S
H596 C600 0.949 . S
C597 C598 1.349 . S
C597 C599 1.327 . S
C597 H620 0.950 . S
C598 C597 1.349 . S
C598 C610 1.349 . S
C599 C597 1.327 . S
C599 C615 1.429 . S
C599 H621 0.950 . S
C600 H596 0.949 . S
C600 C608 1.574 . S
C600 C616 1.368 . S
H601 C609 0.950 . S
H602 C607 0.950 . S
H603 C608 0.949 . S
H604 C610 0.950 . S
H605 C611 0.950 . S
H606 C612 0.949 . S
C607 H602 0.950 . S
C607 C609 1.327 . S
C607 C613 1.429 . S
C608 C600 1.574 . S
C608 H603 0.949 . S
C608 C614 1.368 . S
C609 C593 1.349 . S
C609 H601 0.950 . S
C609 C607 1.327 . S
C610 C598 1.349 . S
C610 H604 0.950 . S
C610 C611 1.327 . S
C611 H605 0.950 . S
C611 C610 1.327 . S
C611 C615 1.429 . S
C612 C595 1.574 . S
C612 H606 0.949 . S
C612 C616 1.368 . S
C613 C594 1.429 . S
C613 C607 1.429 . S
C613 C614 1.523 . S
C614 C595 1.368 . S
C614 C608 1.368 . S
C614 C613 1.523 . S
C615 C599 1.429 . S
C615 C611 1.429 . S
C615 C616 1.523 . S
C616 C600 1.368 . S
C616 C612 1.368 . S
C616 C615 1.523 . S
H617 C592 0.950 . S
H618 C594 0.950 . S
H619 C595 0.949 . S
H620 C597 0.950 . S
H621 C599 0.950 . S
C622 C623 1.349 . S
C622 C624 1.327 . S
C622 H647 0.950 . S
C623 C622 1.349 . S
C623 C639 1.349 . S
C624 C622 1.327 . S
C624 C643 1.429 . S
C624 H648 0.950 . S
C625 C642 1.574 . S
C625 C644 1.368 . S
C625 H649 0.949 . S
H626 C630 0.949 . S
C627 C628 1.349 . S
C627 C629 1.327 . S
C627 H650 0.950 . S
C628 C627 1.349 . S
C628 C640 1.349 . S
C629 C627 1.327 . S
C629 C645 1.429 . S
C629 H651 0.950 . S
C630 H626 0.949 . S
C630 C638 1.574 . S
C630 C646 1.368 . S
H631 C639 0.950 . S
H632 C637 0.950 . S
H633 C638 0.949 . S
H634 C640 0.950 . S
H635 C641 0.950 . S
H636 C642 0.949 . S
C637 H632 0.950 . S
C637 C639 1.327 . S
C637 C643 1.429 . S
C638 C630 1.574 . S
C638 H633 0.949 . S
C638 C644 1.368 . S
C639 C623 1.349 . S
C639 H631 0.950 . S
C639 C637 1.327 . S
C640 C628 1.349 . S
C640 H634 0.950 . S
C640 C641 1.327 . S
C641 H635 0.950 . S
C641 C640 1.327 . S
C641 C645 1.429 . S
C642 C625 1.574 . S
C642 H636 0.949 . S
C642 C646 1.368 . S
C643 C624 1.429 . S
C643 C637 1.429 . S
C643 C644 1.523 . S
C644 C625 1.368 . S
C644 C638 1.368 . S
C644 C643 1.523 . S
C645 C629 1.429 . S
C645 C641 1.429 . S
C645 C646 1.523 . S
C646 C630 1.368 . S
C646 C642 1.368 . S
C646 C645 1.523 . S
H647 C622 0.950 . S
H648 C624 0.950 . S
H649 C625 0.949 . S
H650 C627 0.950 . S
H651 C629 0.950 . S
C652 C653 1.349 . S
C652 C654 1.327 . S
C652 H677 0.950 . S
C653 C652 1.349 . S
C653 C669 1.349 . S
C654 C652 1.327 . S
C654 C673 1.429 . S
C654 H678 0.950 . S
C655 C672 1.574 . S
C655 C674 1.368 . S
C655 H679 0.949 . S
H656 C660 0.949 . S
C657 C658 1.349 . S
C657 C659 1.327 . S
C657 H680 0.950 . S
C658 C657 1.349 . S
C658 C670 1.349 . S
C659 C657 1.327 . S
C659 C675 1.429 . S
C659 H681 0.950 . S
C660 H656 0.949 . S
C660 C668 1.574 . S
C660 C676 1.368 . S
H661 C669 0.950 . S
H662 C667 0.950 . S
H663 C668 0.949 . S
H664 C670 0.950 . S
H665 C671 0.950 . S
H666 C672 0.949 . S
C667 H662 0.950 . S
C667 C669 1.327 . S
C667 C673 1.429 . S
C668 C660 1.574 . S
C668 H663 0.949 . S
C668 C674 1.368 . S
C669 C653 1.349 . S
C669 H661 0.950 . S
C669 C667 1.327 . S
C670 C658 1.349 . S
C670 H664 0.950 . S
C670 C671 1.327 . S
C671 H665 0.950 . S
C671 C670 1.327 . S
C671 C675 1.429 . S
C672 C655 1.574 . S
C672 H666 0.949 . S
C672 C676 1.368 . S
C673 C654 1.429 . S
C673 C667 1.429 . S
C673 C674 1.523 . S
C674 C655 1.368 . S
C674 C668 1.368 . S
C674 C673 1.523 . S
C675 C659 1.429 . S
C675 C671 1.429 . S
C675 C676 1.523 . S
C676 C660 1.368 . S
C676 C672 1.368 . S
C676 C675 1.523 . S
H677 C652 0.950 . S
H678 C654 0.950 . S
H679 C655 0.949 . S
H680 C657 0.950 . S
H681 C659 0.950 . S
C682 C683 1.349 . S
C682 C684 1.327 . S
C682 H707 0.950 . S
C683 C682 1.349 . S
C683 C699 1.349 . S
C684 C682 1.327 . S
C684 C703 1.429 . S
C684 H708 0.950 . S
C685 C702 1.574 . S
C685 C704 1.368 . S
C685 H709 0.949 . S
H686 C690 0.949 . S
C687 C688 1.349 . S
C687 C689 1.327 . S
C687 H710 0.950 . S
C688 C687 1.349 . S
C688 C700 1.349 . S
C689 C687 1.327 . S
C689 C705 1.429 . S
C689 H711 0.950 . S
C690 H686 0.949 . S
C690 C698 1.574 . S
C690 C706 1.368 . S
H691 C699 0.950 . S
H692 C697 0.950 . S
H693 C698 0.949 . S
H694 C700 0.950 . S
H695 C701 0.950 . S
H696 C702 0.949 . S
C697 H692 0.950 . S
C697 C699 1.327 . S
C697 C703 1.429 . S
C698 C690 1.574 . S
C698 H693 0.949 . S
C698 C704 1.368 . S
C699 C683 1.349 . S
C699 H691 0.950 . S
C699 C697 1.327 . S
C700 C688 1.349 . S
C700 H694 0.950 . S
C700 C701 1.327 . S
C701 H695 0.950 . S
C701 C700 1.327 . S
C701 C705 1.429 . S
C702 C685 1.574 . S
C702 H696 0.949 . S
C702 C706 1.368 . S
C703 C684 1.429 . S
C703 C697 1.429 . S
C703 C704 1.523 . S
C704 C685 1.368 . S
C704 C698 1.368 . S
C704 C703 1.523 . S
C705 C689 1.429 . S
C705 C701 1.429 . S
C705 C706 1.523 . S
C706 C690 1.368 . S
C706 C702 1.368 . S
C706 C705 1.523 . S
H707 C682 0.950 . S
H708 C684 0.950 . S
H709 C685 0.949 . S
H710 C687 0.950 . S
H711 C689 0.950 . S
C712 C713 1.349 . S
C712 C714 1.327 . S
C712 H737 0.950 . S
C713 C712 1.349 . S
C713 C729 1.349 . S
C714 C712 1.327 . S
C714 C733 1.429 . S
C714 H738 0.950 . S
C715 C732 1.574 . S
C715 C734 1.368 . S
C715 H739 0.949 . S
H716 C720 0.949 . S
C717 C718 1.349 . S
C717 C719 1.327 . S
C717 H740 0.950 . S
C718 C717 1.349 . S
C718 C730 1.349 . S
C719 C717 1.327 . S
C719 C735 1.429 . S
C719 H741 0.950 . S
C720 H716 0.949 . S
C720 C728 1.574 . S
C720 C736 1.368 . S
H721 C729 0.950 . S
H722 C727 0.950 . S
H723 C728 0.949 . S
H724 C730 0.950 . S
H725 C731 0.950 . S
H726 C732 0.949 . S
C727 H722 0.950 . S
C727 C729 1.327 . S
C727 C733 1.429 . S
C728 C720 1.574 . S
C728 H723 0.949 . S
C728 C734 1.368 . S
C729 C713 1.349 . S
C729 H721 0.950 . S
C729 C727 1.327 . S
C730 C718 1.349 . S
C730 H724 0.950 . S
C730 C731 1.327 . S
C731 H725 0.950 . S
C731 C730 1.327 . S
C731 C735 1.429 . S
C732 C715 1.574 . S
C732 H726 0.949 . S
C732 C736 1.368 . S
C733 C714 1.429 . S
C733 C727 1.429 . S
C733 C734 1.523 . S
C734 C715 1.368 . S
C734 C728 1.368 . S
C734 C733 1.523 . S
C735 C719 1.429 . S
C735 C731 1.429 . S
C735 C736 1.523 . S
C736 C720 1.368 . S
C736 C732 1.368 . S
C736 C735 1.523 . S
H737 C712 0.950 . S
H738 C714 0.950 . S
H739 C715 0.949 . S
H740 C717 0.950 . S
H741 C719 0.950 . S
C742 C743 1.349 . S
C742 C744 1.327 . S
C742 H767 0.950 . S
C743 C742 1.349 . S
C743 C759 1.349 . S
C744 C742 1.327 . S
C744 C763 1.429 . S
C744 H768 0.950 . S
C745 C762 1.574 . S
C745 C764 1.368 . S
C745 H769 0.949 . S
H746 C750 0.949 . S
C747 C748 1.349 . S
C747 C749 1.327 . S
C747 H770 0.950 . S
C748 C747 1.349 . S
C748 C760 1.349 . S
C749 C747 1.327 . S
C749 C765 1.429 . S
C749 H771 0.950 . S
C750 H746 0.949 . S
C750 C758 1.574 . S
C750 C766 1.368 . S
H751 C759 0.950 . S
H752 C757 0.950 . S
H753 C758 0.949 . S
H754 C760 0.950 . S
H755 C761 0.950 . S
H756 C762 0.949 . S
C757 H752 0.950 . S
C757 C759 1.327 . S
C757 C763 1.429 . S
C758 C750 1.574 . S
C758 H753 0.949 . S
C758 C764 1.368 . S
C759 C743 1.349 . S
C759 H751 0.950 . S
C759 C757 1.327 . S
C760 C748 1.349 . S
C760 H754 0.950 . S
C760 C761 1.327 . S
C761 H755 0.950 . S
C761 C760 1.327 . S
C761 C765 1.429 . S
C762 C745 1.574 . S
C762 H756 0.949 . S
C762 C766 1.368 . S
C763 C744 1.429 . S
C763 C757 1.429 . S
C763 C764 1.523 . S
C764 C745 1.368 . S
C764 C758 1.368 . S
C764 C763 1.523 . S
C765 C749 1.429 . S
C765 C761 1.429 . S
C765 C766 1.523 . S
C766 C750 1.368 . S
C766 C762 1.368 . S
C766 C765 1.523 . S
H767 C742 0.950 . S
H768 C744 0.950 . S
H769 C745 0.949 . S
H770 C747 0.950 . S
H771 C749 0.950 . S
C772 C773 1.349 . S
C772 C774 1.327 . S
C772 H797 0.950 . S
C773 C772 1.349 . S
C773 C789 1.349 . S
C774 C772 1.327 . S
C774 C793 1.429 . S
C774 H798 0.950 . S
C775 C792 1.574 . S
C775 C794 1.368 . S
C775 H799 0.949 . S
H776 C780 0.949 . S
C777 C778 1.349 . S
C777 C779 1.327 . S
C777 H800 0.950 . S
C778 C777 1.349 . S
C778 C790 1.349 . S
C779 C777 1.327 . S
C779 C795 1.429 . S
C779 H801 0.950 . S
C780 H776 0.949 . S
C780 C788 1.574 . S
C780 C796 1.368 . S
H781 C789 0.950 . S
H782 C787 0.950 . S
H783 C788 0.949 . S
H784 C790 0.950 . S
H785 C791 0.950 . S
H786 C792 0.949 . S
C787 H782 0.950 . S
C787 C789 1.327 . S
C787 C793 1.429 . S
C788 C780 1.574 . S
C788 H783 0.949 . S
C788 C794 1.368 . S
C789 C773 1.349 . S
C789 H781 0.950 . S
C789 C787 1.327 . S
C790 C778 1.349 . S
C790 H784 0.950 . S
C790 C791 1.327 . S
C791 H785 0.950 . S
C791 C790 1.327 . S
C791 C795 1.429 . S
C792 C775 1.574 . S
C792 H786 0.949 . S
C792 C796 1.368 . S
C793 C774 1.429 . S
C793 C787 1.429 . S
C793 C794 1.523 . S
C794 C775 1.368 . S
C794 C788 1.368 . S
C794 C793 1.523 . S
C795 C779 1.429 . S
C795 C791 1.429 . S
C795 C796 1.523 . S
C796 C780 1.368 . S
C796 C792 1.368 . S
C796 C795 1.523 . S
H797 C772 0.950 . S
H798 C774 0.950 . S
H799 C775 0.949 . S
H800 C777 0.950 . S
H801 C779 0.950 . S
C802 C803 1.349 . S
C802 C804 1.327 . S
C802 H827 0.950 . S
C803 C802 1.349 . S
C803 C819 1.349 . S
C804 C802 1.327 . S
C804 C823 1.429 . S
C804 H828 0.950 . S
C805 C822 1.574 . S
C805 C824 1.368 . S
C805 H829 0.949 . S
H806 C810 0.949 . S
C807 C808 1.349 . S
C807 C809 1.327 . S
C807 H830 0.950 . S
C808 C807 1.349 . S
C808 C820 1.349 . S
C809 C807 1.327 . S
C809 C825 1.429 . S
C809 H831 0.950 . S
C810 H806 0.949 . S
C810 C818 1.574 . S
C810 C826 1.368 . S
H811 C819 0.950 . S
H812 C817 0.950 . S
H813 C818 0.949 . S
H814 C820 0.950 . S
H815 C821 0.950 . S
H816 C822 0.949 . S
C817 H812 0.950 . S
C817 C819 1.327 . S
C817 C823 1.429 . S
C818 C810 1.574 . S
C818 H813 0.949 . S
C818 C824 1.368 . S
C819 C803 1.349 . S
C819 H811 0.950 . S
C819 C817 1.327 . S
C820 C808 1.349 . S
C820 H814 0.950 . S
C820 C821 1.327 . S
C821 H815 0.950 . S
C821 C820 1.327 . S
C821 C825 1.429 . S
C822 C805 1.574 . S
C822 H816 0.949 . S
C822 C826 1.368 . S
C823 C804 1.429 . S
C823 C817 1.429 . S
C823 C824 1.523 . S
C824 C805 1.368 . S
C824 C818 1.368 . S
C824 C823 1.523 . S
C825 C809 1.429 . S
C825 C821 1.429 . S
C825 C826 1.523 . S
C826 C810 1.368 . S
C826 C822 1.368 . S
C826 C825 1.523 . S
H827 C802 0.950 . S
H828 C804 0.950 . S
H829 C805 0.949 . S
H830 C807 0.950 . S
H831 C809 0.950 . S
C832 C833 1.349 1_655 S
C832 C834 1.327 . S
C832 H857 0.950 . S
C833 C832 1.349 1_455 S
C833 C849 1.349 . S
C834 C832 1.327 . S
C834 C853 1.429 1_655 S
C834 H858 0.950 . S
C835 C852 1.574 1_544 S
C835 C854 1.368 . S
C835 H859 0.949 . S
H836 C840 0.949 . S
C837 C838 1.349 . S
C837 C839 1.327 . S
C837 H860 0.950 . S
C838 C837 1.349 . S
C838 C850 1.349 1_455 S
C839 C837 1.327 . S
C839 C855 1.429 . S
C839 H861 0.950 . S
C840 H836 0.949 . S
C840 C848 1.574 1_566 S
C840 C856 1.368 1_655 S
H841 C849 0.950 . S
H842 C847 0.950 . S
H843 C848 0.949 . S
H844 C850 0.950 . S
H845 C851 0.950 . S
H846 C852 0.949 . S
C847 H842 0.950 . S
C847 C849 1.327 . S
C847 C853 1.429 . S
C848 C840 1.574 1_544 S
C848 H843 0.949 . S
C848 C854 1.368 1_655 S
C849 C833 1.349 . S
C849 H841 0.950 . S
C849 C847 1.327 . S
C850 C838 1.349 1_655 S
C850 H844 0.950 . S
C850 C851 1.327 . S
C851 H845 0.950 . S
C851 C850 1.327 . S
C851 C855 1.429 1_655 S
C852 C835 1.574 1_566 S
C852 H846 0.949 . S
C852 C856 1.368 . S
C853 C834 1.429 1_455 S
C853 C847 1.429 . S
C853 C854 1.523 . S
C854 C835 1.368 . S
C854 C848 1.368 1_455 S
C854 C853 1.523 . S
C855 C839 1.429 . S
C855 C851 1.429 1_455 S
C855 C856 1.523 . S
C856 C840 1.368 1_455 S
C856 C852 1.368 . S
C856 C855 1.523 . S
H857 C832 0.950 . S
H858 C834 0.950 . S
H859 C835 0.949 . S
H860 C837 0.950 . S
H861 C839 0.950 . S
C862 C863 1.347 . S
C862 C864 1.327 1_455 S
C862 H887 0.952 1_455 S
C863 C862 1.347 . S
C863 C879 1.349 . S
C864 C862 1.327 1_655 S
C864 C883 1.411 1_655 S
C864 H888 0.968 . S
C865 C882 1.574 1_556 S
C865 C884 1.368 . S
C865 H889 0.949 . S
H866 C870 0.949 . S
C867 C868 1.349 . S
C867 C869 1.327 . S
C867 H890 0.950 . S
C868 C867 1.349 . S
C868 C880 1.347 . S
C869 C867 1.327 . S
C869 C885 1.429 . S
C869 H891 0.950 . S
C870 H866 0.949 . S
C870 C878 1.574 1_554 S
C870 C886 1.368 1_655 S
H871 C879 0.950 . S
H872 C877 0.950 . S
H873 C878 0.949 . S
H874 C880 0.952 1_655 S
H875 C881 0.968 . S
H876 C882 0.949 . S
C877 H872 0.950 . S
C877 C879 1.327 . S
C877 C883 1.429 . S
C878 C870 1.574 1_556 S
C878 H873 0.949 . S
C878 C884 1.368 1_655 S
C879 C863 1.349 . S
C879 H871 0.950 . S
C879 C877 1.327 . S
C880 C868 1.347 . S
C880 H874 0.952 1_455 S
C880 C881 1.327 1_455 S
C881 H875 0.968 . S
C881 C880 1.327 1_655 S
C881 C885 1.411 1_655 S
C882 C865 1.574 1_554 S
C882 H876 0.949 . S
C882 C886 1.368 . S
C883 C864 1.411 1_455 S
C883 C877 1.429 . S
C883 C884 1.523 . S
C884 C865 1.368 . S
C884 C878 1.368 1_455 S
C884 C883 1.523 . S
C885 C869 1.429 . S
C885 C881 1.411 1_455 S
C885 C886 1.523 . S
C886 C870 1.368 1_455 S
C886 C882 1.368 . S
C886 C885 1.523 . S
H887 C862 0.952 1_655 S
H888 C864 0.968 . S
H889 C865 0.949 . S
H890 C867 0.950 . S
H891 C869 0.950 . S
C892 C893 1.349 . S
C892 C894 1.327 . S
C892 H917 0.950 . S
C893 C892 1.349 . S
C893 C909 1.349 . S
C894 C892 1.327 . S
C894 C913 1.429 . S
C894 H918 0.950 . S
C895 C912 1.574 . S
C895 C914 1.368 . S
C895 H919 0.949 . S
H896 C900 0.949 . S
C897 C898 1.349 . S
C897 C899 1.327 . S
C897 H920 0.950 . S
C898 C897 1.349 . S
C898 C910 1.349 . S
C899 C897 1.327 . S
C899 C915 1.429 . S
C899 H921 0.950 . S
C900 H896 0.949 . S
C900 C908 1.574 . S
C900 C916 1.368 . S
H901 C909 0.950 . S
H902 C907 0.950 . S
H903 C908 0.949 . S
H904 C910 0.950 . S
H905 C911 0.950 . S
H906 C912 0.949 . S
C907 H902 0.950 . S
C907 C909 1.327 . S
C907 C913 1.429 . S
C908 C900 1.574 . S
C908 H903 0.949 . S
C908 C914 1.368 . S
C909 C893 1.349 . S
C909 H901 0.950 . S
C909 C907 1.327 . S
C910 C898 1.349 . S
C910 H904 0.950 . S
C910 C911 1.327 . S
C911 H905 0.950 . S
C911 C910 1.327 . S
C911 C915 1.429 . S
C912 C895 1.574 . S
C912 H906 0.949 . S
C912 C916 1.368 . S
C913 C894 1.429 . S
C913 C907 1.429 . S
C913 C914 1.523 . S
C914 C895 1.368 . S
C914 C908 1.368 . S
C914 C913 1.523 . S
C915 C899 1.429 . S
C915 C911 1.429 . S
C915 C916 1.523 . S
C916 C900 1.368 . S
C916 C912 1.368 . S
C916 C915 1.523 . S
H917 C892 0.950 . S
H918 C894 0.950 . S
H919 C895 0.949 . S
H920 C897 0.950 . S
H921 C899 0.950 . S
C922 C923 1.349 . S
C922 C924 1.327 . S
C922 H947 0.950 . S
C923 C922 1.349 . S
C923 C939 1.349 . S
C924 C922 1.327 . S
C924 C943 1.429 . S
C924 H948 0.950 . S
C925 C942 1.596 . S
C925 C944 1.346 1_545 S
C925 H949 0.949 . S
H926 C930 0.949 . S
C927 C928 1.349 . S
C927 C929 1.327 . S
C927 H950 0.950 . S
C928 C927 1.349 . S
C928 C940 1.349 . S
C929 C927 1.327 . S
C929 C945 1.429 . S
C929 H951 0.950 . S
C930 H926 0.949 . S
C930 C938 1.596 . S
C930 C946 1.346 1_565 S
H931 C939 0.950 . S
H932 C937 0.950 . S
H933 C938 0.949 . S
H934 C940 0.950 . S
H935 C941 0.950 . S
H936 C942 0.949 . S
C937 H932 0.950 . S
C937 C939 1.327 . S
C937 C943 1.429 . S
C938 C930 1.596 . S
C938 H933 0.949 . S
C938 C944 1.368 . S
C939 C923 1.349 . S
C939 H931 0.950 . S
C939 C937 1.327 . S
C940 C928 1.349 . S
C940 H934 0.950 . S
C940 C941 1.327 . S
C941 H935 0.950 . S
C941 C940 1.327 . S
C941 C945 1.429 . S
C942 C925 1.596 . S
C942 H936 0.949 . S
C942 C946 1.368 . S
C943 C924 1.429 . S
C943 C937 1.429 . S
C943 C944 1.523 . S
C944 C925 1.346 1_565 S
C944 C938 1.368 . S
C944 C943 1.523 . S
C945 C929 1.429 . S
C945 C941 1.429 . S
C945 C946 1.523 . S
C946 C930 1.346 1_545 S
C946 C942 1.368 . S
C946 C945 1.523 . S
H947 C922 0.950 . S
H948 C924 0.950 . S
H949 C925 0.949 . S
H950 C927 0.950 . S
H951 C929 0.950 . S
C473 C111 1.496 . S
C478 C52 1.496 . S
C503 C170 1.496 . S
C508 C229 1.496 . S
C533 C288 1.496 . S
C538 C347 1.496 . S
C563 C406 1.496 . S
C568 C465 1.496 . S
C593 C416 1.177 . S
C598 C3 1.177 . S
C623 C357 1.177 . S
C628 C62 1.177 . S
C653 C121 1.177 . S
C658 C298 1.177 . S
C683 C239 1.177 . S
C688 C180 1.177 . S
C713 C328 1.769 . S
C718 C151 1.769 . S
C743 C269 1.769 . S
C748 C210 1.769 . S
C773 C446 1.769 . S
C778 C33 1.769 . S
C803 C92 1.769 . S
C808 C387 1.769 . S
C833 C5 1.476 . S
C838 C123 1.476 . S
C863 C182 1.476 . S
C868 C64 1.476 . S
C893 C359 1.476 . S
C898 C241 1.476 . S
C923 C300 1.476 . S
C928 C418 1.476 . S
