# Generated by pormake.
# Topology vbj, (5)-cn, num edge types: 1
# Building blocks:
#     Node 0, Type 0, BuildingBlock: XOMCOT_clean_sbu_0, # of connection points: 5
#     Node 1, Type 0, BuildingBlock: XOMCOT_clean_sbu_0, # of connection points: 5
#     Node 2, Type 0, BuildingBlock: XOMCOT_clean_sbu_0, # of connection points: 5
#     Node 3, Type 0, BuildingBlock: XOMCOT_clean_sbu_0, # of connection points: 5
#     Node 4, Type 0, BuildingBlock: XOMCOT_clean_sbu_0, # of connection points: 5
#     Node 5, Type 0, BuildingBlock: XOMCOT_clean_sbu_0, # of connection points: 5
#     Node 6, Type 0, BuildingBlock: XOMCOT_clean_sbu_0, # of connection points: 5
#     Node 7, Type 0, BuildingBlock: XOMCOT_clean_sbu_0, # of connection points: 5
#     Node 8, Type 0, BuildingBlock: XOMCOT_clean_sbu_0, # of connection points: 5
#     Node 9, Type 0, BuildingBlock: XOMCOT_clean_sbu_0, # of connection points: 5
#     Node 10, Type 0, BuildingBlock: XOMCOT_clean_sbu_0, # of connection points: 5
#     Node 11, Type 0, BuildingBlock: XOMCOT_clean_sbu_0, # of connection points: 5
#     Node 12, Type 0, BuildingBlock: XOMCOT_clean_sbu_0, # of connection points: 5
#     Node 13, Type 0, BuildingBlock: XOMCOT_clean_sbu_0, # of connection points: 5
#     Node 14, Type 0, BuildingBlock: XOMCOT_clean_sbu_0, # of connection points: 5
#     Node 15, Type 0, BuildingBlock: XOMCOT_clean_sbu_0, # of connection points: 5
#     Edge 16, Type (0, 0), BuildingBlock: OJICUG_clean_linker_0, # of connection points: 2
#     Edge 17, Type (0, 0), BuildingBlock: OJICUG_clean_linker_0, # of connection points: 2
#     Edge 18, Type (0, 0), BuildingBlock: OJICUG_clean_linker_0, # of connection points: 2
#     Edge 19, Type (0, 0), BuildingBlock: OJICUG_clean_linker_0, # of connection points: 2
#     Edge 20, Type (0, 0), BuildingBlock: OJICUG_clean_linker_0, # of connection points: 2
#     Edge 21, Type (0, 0), BuildingBlock: OJICUG_clean_linker_0, # of connection points: 2
#     Edge 22, Type (0, 0), BuildingBlock: OJICUG_clean_linker_0, # of connection points: 2
#     Edge 23, Type (0, 0), BuildingBlock: OJICUG_clean_linker_0, # of connection points: 2
#     Edge 24, Type (0, 0), BuildingBlock: OJICUG_clean_linker_0, # of connection points: 2
#     Edge 25, Type (0, 0), BuildingBlock: OJICUG_clean_linker_0, # of connection points: 2
#     Edge 26, Type (0, 0), BuildingBlock: OJICUG_clean_linker_0, # of connection points: 2
#     Edge 27, Type (0, 0), BuildingBlock: OJICUG_clean_linker_0, # of connection points: 2
#     Edge 28, Type (0, 0), BuildingBlock: OJICUG_clean_linker_0, # of connection points: 2
#     Edge 29, Type (0, 0), BuildingBlock: OJICUG_clean_linker_0, # of connection points: 2
#     Edge 30, Type (0, 0), BuildingBlock: OJICUG_clean_linker_0, # of connection points: 2
#     Edge 31, Type (0, 0), BuildingBlock: OJICUG_clean_linker_0, # of connection points: 2
#     Edge 32, Type (0, 0), BuildingBlock: OJICUG_clean_linker_0, # of connection points: 2
#     Edge 33, Type (0, 0), BuildingBlock: OJICUG_clean_linker_0, # of connection points: 2
#     Edge 34, Type (0, 0), BuildingBlock: OJICUG_clean_linker_0, # of connection points: 2
#     Edge 35, Type (0, 0), BuildingBlock: OJICUG_clean_linker_0, # of connection points: 2
#     Edge 36, Type (0, 0), BuildingBlock: OJICUG_clean_linker_0, # of connection points: 2
#     Edge 37, Type (0, 0), BuildingBlock: OJICUG_clean_linker_0, # of connection points: 2
#     Edge 38, Type (0, 0), BuildingBlock: OJICUG_clean_linker_0, # of connection points: 2
#     Edge 39, Type (0, 0), BuildingBlock: OJICUG_clean_linker_0, # of connection points: 2
#     Edge 40, Type (0, 0), BuildingBlock: OJICUG_clean_linker_0, # of connection points: 2
#     Edge 41, Type (0, 0), BuildingBlock: OJICUG_clean_linker_0, # of connection points: 2
#     Edge 42, Type (0, 0), BuildingBlock: OJICUG_clean_linker_0, # of connection points: 2
#     Edge 43, Type (0, 0), BuildingBlock: OJICUG_clean_linker_0, # of connection points: 2
#     Edge 44, Type (0, 0), BuildingBlock: OJICUG_clean_linker_0, # of connection points: 2
#     Edge 45, Type (0, 0), BuildingBlock: OJICUG_clean_linker_0, # of connection points: 2
#     Edge 46, Type (0, 0), BuildingBlock: OJICUG_clean_linker_0, # of connection points: 2
#     Edge 47, Type (0, 0), BuildingBlock: OJICUG_clean_linker_0, # of connection points: 2
#     Edge 48, Type (0, 0), BuildingBlock: OJICUG_clean_linker_0, # of connection points: 2
#     Edge 49, Type (0, 0), BuildingBlock: OJICUG_clean_linker_0, # of connection points: 2
#     Edge 50, Type (0, 0), BuildingBlock: OJICUG_clean_linker_0, # of connection points: 2
#     Edge 51, Type (0, 0), BuildingBlock: OJICUG_clean_linker_0, # of connection points: 2
#     Edge 52, Type (0, 0), BuildingBlock: OJICUG_clean_linker_0, # of connection points: 2
#     Edge 53, Type (0, 0), BuildingBlock: OJICUG_clean_linker_0, # of connection points: 2
#     Edge 54, Type (0, 0), BuildingBlock: OJICUG_clean_linker_0, # of connection points: 2
#     Edge 55, Type (0, 0), BuildingBlock: OJICUG_clean_linker_0, # of connection points: 2
# Relax obj value: 0.086
# Max RMSD: 0.162
# Mean RMSD: 0.154
data_MOF--net-vbj--node1-XOMCOT_clean_sbu_0--edge1-OJICUG_clean_linker_0
_symmetry_space_group_name_H-M    P1
_symmetry_Int_Tables_number       1
_symmetry_cell_setting            triclinic
loop_
_symmetry_equiv_pos_as_xyz
'x, y, z'
_cell_length_a     18.660896
_cell_length_b     50.644585
_cell_length_c     38.141647
_cell_angle_alpha  89.128949
_cell_angle_beta   91.176656
_cell_angle_gamma 90.250148
loop_
_atom_site_label
_atom_site_type_symbol
_atom_site_fract_x
_atom_site_fract_y
_atom_site_fract_z
_atom_type_partial_charge
Co0 Co 0.09557 0.13935 0.07299 0.0
C1 C 0.17275 0.08785 0.06387 0.0
C2 C 0.07794 0.09042 0.03137 0.0
C3 C 0.11158 0.06687 0.02494 0.0
N4 N 0.11574 0.1037 0.05606 0.0
N5 N 0.17097 0.06518 0.04549 0.0
H6 H 0.21657 0.09313 0.0814 0.0
H7 H 0.02999 0.09738 0.01797 0.0
C8 C 0.94301 0.15213 0.04414 0.0
O9 O 0.93655 0.17368 0.06234 0.0
N10 N 0.07923 0.175 0.09022 0.0
C11 C 0.08822 0.18201 0.12403 0.0
C12 C 0.07261 0.20826 0.12718 0.0
C13 C 0.06339 0.19794 0.07279 0.0
N14 N 0.05629 0.21828 0.09514 0.0
C15 C 0.11131 0.1121 0.13857 0.0
C16 C 0.98213 0.12736 0.16568 0.0
C17 C 0.03474 0.11645 0.18828 0.0
C18 C 0.09849 0.10762 0.17404 0.0
C19 C 0.99625 0.13074 0.12993 0.0
N20 N 0.06179 0.1244 0.11715 0.0
H21 H 0.1639 0.10778 0.12929 0.0
H22 H 0.95714 0.14079 0.11356 0.0
H23 H 0.10459 0.16892 0.14531 0.0
H24 H 0.0532 0.19939 0.04478 0.0
O25 O 0.19536 0.1438 0.08596 0.0
O26 O 0.14645 0.1541 0.03398 0.0
O27 O 0.99698 0.1368 0.0488 0.0
C28 C 0.20347 0.15285 0.0542 0.0
H29 H 0.09386 0.05214 1.00636 0.0
H30 H 0.07173 0.21916 0.15138 0.0
H31 H 0.93202 0.13437 0.17587 0.0
H32 H 0.14061 0.09932 0.19074 0.0
Co33 Co 0.44813 0.9052 0.07541 0.0
C34 C 0.37608 0.95811 0.0678 0.0
C35 C 0.45636 0.95254 0.02922 0.0
C36 C 0.42226 0.97614 0.02217 0.0
N37 N 0.42797 0.94111 0.05801 0.0
N38 N 0.37187 0.97969 0.04641 0.0
H39 H 0.33892 0.95415 0.08861 0.0
H40 H 0.49682 0.9439 0.01316 0.0
C41 C 0.59101 0.89071 0.04191 0.0
O42 O 0.59233 0.86695 0.05586 0.0
N43 N 0.4646 0.86914 0.09308 0.0
C44 C 0.46286 0.8618 0.12724 0.0
C45 C 0.46778 0.83487 0.13012 0.0
C46 C 0.46692 0.84598 0.07553 0.0
N47 N 0.47096 0.82486 0.09771 0.0
C48 C 0.44606 0.92959 0.14224 0.0
C49 C 0.58377 0.91551 0.16291 0.0
C50 C 0.53571 0.92378 0.18813 0.0
C51 C 0.4673 0.93199 0.17732 0.0
C52 C 0.56044 0.91345 0.12792 0.0
N53 N 0.49106 0.91914 0.11835 0.0
H54 H 0.39095 0.93361 0.13528 0.0
H55 H 0.59619 0.9047 0.10965 0.0
H56 H 0.45629 0.87493 0.14896 0.0
H57 H 0.46571 0.8446 0.04722 0.0
O58 O 0.3501 0.90164 0.09017 0.0
O59 O 0.39009 0.89148 0.03762 0.0
O60 O 0.54276 0.90734 0.04987 0.0
C61 C 0.33644 0.89306 0.05876 0.0
H62 H 0.43249 0.98939 1.00028 0.0
H63 H 0.46932 0.82345 0.15435 0.0
H64 H 0.63686 0.90872 0.17061 0.0
H65 H 0.42869 0.93823 0.19631 0.0
Co66 Co 0.5627 0.90801 0.46209 0.0
C67 C 0.52464 0.84999 0.45113 0.0
C68 C 0.58039 0.8582 0.49945 0.0
C69 C 0.56585 0.83167 0.4986 0.0
N70 N 0.55483 0.86992 0.4698 0.0
N71 N 0.5307 0.82643 0.46829 0.0
H72 H 0.49797 0.85234 0.42598 0.0
H73 H 0.60839 0.86838 0.52039 0.0
C74 C 0.71315 0.88818 0.45936 0.0
O75 O 0.69143 0.86744 0.44176 0.0
N76 N 0.57307 0.94592 0.45639 0.0
C77 C 0.53558 0.96195 0.43448 0.0
C78 C 0.56657 0.98673 0.43513 0.0
C79 C 0.62577 0.96116 0.47031 0.0
N80 N 0.62372 0.98628 0.45759 0.0
C81 C 0.51065 0.89787 0.39242 0.0
C82 C 0.63001 0.91619 0.3577 0.0
C83 C 0.56954 0.90852 0.3379 0.0
C84 C 0.50945 0.89913 0.35583 0.0
C85 C 0.62901 0.91454 0.39433 0.0
N86 N 0.57042 0.90483 0.41137 0.0
H87 H 0.4621 0.89226 0.40556 0.0
H88 H 0.67417 0.92252 0.40881 0.0
H89 H 0.49086 0.95579 0.41804 0.0
H90 H 0.66566 0.95374 0.48884 0.0
O91 O 0.46018 0.91155 0.4648 0.0
O92 O 0.5351 0.91279 0.51053 0.0
O93 O 0.6689 0.90552 0.46932 0.0
C94 C 0.46932 0.91372 0.4985 0.0
H95 H 0.58106 0.81725 0.5186 0.0
H96 H 0.54972 1.0034 0.41899 0.0
H97 H 0.67726 0.92396 0.34508 0.0
H98 H 0.46048 0.89392 0.3418 0.0
Co99 Co 0.90968 0.14341 0.44625 0.0
C100 C 0.8363 0.09139 0.45534 0.0
C101 C 0.91591 0.0966 0.49564 0.0
C102 C 0.88008 0.07308 0.5019 0.0
N103 N 0.89033 0.10781 0.46555 0.0
N104 N 0.82971 0.06993 0.47651 0.0
H105 H 0.79984 0.09546 0.43363 0.0
H106 H 0.95459 0.10542 0.51336 0.0
C107 C 0.05523 0.13287 0.4817 0.0
O108 O 0.05972 0.10994 0.46625 0.0
N109 N 0.92526 0.17884 0.42791 0.0
C110 C 0.90859 0.18798 0.39544 0.0
C111 C 0.92265 0.21472 0.39402 0.0
C112 C 0.94836 0.20008 0.4459 0.0
N113 N 0.94752 0.22239 0.42581 0.0
C114 C 0.92442 0.11207 0.3851 0.0
C115 C 0.04646 0.13681 0.36116 0.0
C116 C 1.00762 0.12012 0.33865 0.0
C117 C 0.94788 0.10682 0.35154 0.0
C118 C 0.02253 0.14076 0.39534 0.0
N119 N 0.96041 0.12923 0.40648 0.0
H120 H 0.87349 0.10411 0.39219 0.0
H121 H 0.05022 0.155 0.4116 0.0
H122 H 0.88645 0.17611 0.37448 0.0
H123 H 0.96466 0.19915 0.47326 0.0
O124 O 0.81407 0.14388 0.42556 0.0
O125 O 0.84402 0.15759 0.47907 0.0
O126 O 1.0005 0.14756 0.4761 0.0
C127 C 0.79458 0.15392 0.45503 0.0
H128 H 0.88781 0.0601 0.52446 0.0
H129 H 0.91309 0.22759 0.37153 0.0
H130 H 0.09269 0.14764 0.35188 0.0
H131 H 0.91563 0.09424 0.33467 0.0
Co132 Co 0.9169 0.90469 0.88942 0.0
C133 C 0.96407 0.84832 0.89238 0.0
C134 C 0.84993 0.85291 0.88772 0.0
C135 C 0.86512 0.82646 0.88819 0.0
N136 N 0.91167 0.86661 0.89062 0.0
N137 N 0.93683 0.82348 0.89097 0.0
H138 H 0.02057 0.85315 0.89396 0.0
H139 H 0.79722 0.86157 0.88501 0.0
C140 C 0.81179 0.91827 0.94374 0.0
O141 O 0.85875 0.93584 0.95479 0.0
N142 N 0.91627 0.94326 0.88588 0.0
C143 C 0.96794 0.95994 0.87458 0.0
C144 C 0.93884 0.98462 0.86872 0.0
C145 C 0.85585 0.95792 0.88429 0.0
N146 N 0.86803 0.98333 0.87492 0.0
C147 C 0.03481 0.91753 0.93447 0.0
C148 C 1.00287 0.88236 0.98816 0.0
C149 C 0.06891 0.89549 0.98842 0.0
C150 C 0.08373 0.91379 0.96188 0.0
C151 C 0.95431 0.88707 0.96026 0.0
N152 N 0.97124 0.9042 0.93349 0.0
H153 H 0.05125 0.92955 0.91276 0.0
H154 H 0.90515 0.87572 0.9591 0.0
H155 H 0.02182 0.95443 0.86803 0.0
H156 H 0.80315 0.94977 0.88825 0.0
O157 O 0.99799 0.90333 0.85959 0.0
O158 O 0.88559 0.90418 0.84007 0.0
O159 O 0.82365 0.90507 0.91601 0.0
C160 C 0.954 0.90353 0.83301 0.0
H161 H 0.826 0.81067 0.88671 0.0
H162 H 0.96718 1.00171 0.85867 0.0
H163 H 0.99064 0.8677 1.00814 0.0
H164 H 0.13517 0.92381 0.96106 0.0
Co165 Co 0.61237 0.14515 0.88498 0.0
C166 C 0.56519 0.20136 0.88899 0.0
C167 C 0.67874 0.19698 0.88329 0.0
C168 C 0.6636 0.2234 0.88452 0.0
N169 N 0.61737 0.18317 0.88634 0.0
N170 N 0.59225 0.22624 0.888 0.0
H171 H 0.50894 0.19644 0.8911 0.0
H172 H 0.73113 0.1884 0.88015 0.0
C173 C 0.72019 0.13015 0.94056 0.0
O174 O 0.67345 0.11232 0.95083 0.0
N175 N 0.61317 0.10668 0.88139 0.0
C176 C 0.56102 0.09008 0.87005 0.0
C177 C 0.59 0.06546 0.86503 0.0
C178 C 0.67362 0.09209 0.88057 0.0
N179 N 0.66113 0.06674 0.87181 0.0
C180 C 0.49577 0.13161 0.92846 0.0
C181 C 0.53042 0.16511 0.98289 0.0
C182 C 0.46351 0.15259 0.98188 0.0
C183 C 0.44737 0.13507 0.95502 0.0
C184 C 0.57821 0.16083 0.95569 0.0
N185 N 0.55995 0.14453 0.92854 0.0
H186 H 0.47838 0.12024 0.90645 0.0
H187 H 0.62776 0.17196 0.95529 0.0
H188 H 0.50669 0.09559 0.86306 0.0
H189 H 0.72645 0.10024 0.88489 0.0
O190 O 0.52947 0.14715 0.85442 0.0
O191 O 0.64042 0.14696 0.83553 0.0
O192 O 0.70726 0.1442 0.91278 0.0
C193 C 0.57155 0.14774 0.82801 0.0
H194 H 0.70254 0.23926 0.88325 0.0
H195 H 0.56121 0.0484 0.85532 0.0
H196 H 0.54382 0.1791 1.00323 0.0
H197 H 0.39548 0.1254 0.95334 0.0
Co198 Co 0.40225 0.15311 0.63028 0.0
C199 C 0.44556 0.21017 0.63148 0.0
C200 C 0.33455 0.20415 0.64209 0.0
C201 C 0.34906 0.23079 0.64351 0.0
N202 N 0.39467 0.19124 0.63358 0.0
N203 N 0.41899 0.23453 0.63666 0.0
H204 H 0.50152 0.20647 0.628 0.0
H205 H 0.28345 0.19477 0.64694 0.0
C206 C 0.28091 0.16632 0.57927 0.0
O207 O 0.31689 0.18752 0.56979 0.0
N208 N 0.40526 0.11533 0.62833 0.0
C209 C 0.45921 0.09878 0.62133 0.0
C210 C 0.43294 0.07318 0.62315 0.0
C211 C 0.34798 0.09995 0.63448 0.0
N212 N 0.3628 0.07415 0.63123 0.0
C213 C 0.52296 0.16495 0.58908 0.0
C214 C 0.47129 0.1484 0.5248 0.0
C215 C 0.53936 0.16026 0.52715 0.0
C216 C 0.56521 0.16794 0.56004 0.0
C217 C 0.42976 0.14598 0.55508 0.0
N218 N 0.45435 0.15571 0.58644 0.0
H219 H 0.54739 0.16962 0.61395 0.0
H220 H 0.37919 0.13565 0.55328 0.0
H221 H 0.51321 0.10485 0.61517 0.0
H222 H 0.29641 0.10765 0.64166 0.0
O223 O 0.48501 0.15316 0.66124 0.0
O224 O 0.37451 0.15018 0.67987 0.0
O225 O 0.30557 0.15131 0.60408 0.0
C226 C 0.44317 0.15111 0.68755 0.0
H227 H 0.31091 0.24612 0.64905 0.0
H228 H 0.46271 0.05536 0.61829 0.0
H229 H 0.45092 0.14083 0.50012 0.0
H230 H 0.61941 0.1753 0.56378 0.0
Co231 Co 0.11247 0.91053 0.63778 0.0
C232 C 0.05842 0.85557 0.63565 0.0
C233 C 0.17349 0.85746 0.63867 0.0
C234 C 0.15305 0.83138 0.63764 0.0
N235 N 0.11423 0.87253 0.63706 0.0
N236 N 0.08085 0.83026 0.63579 0.0
H237 H 1.00287 0.86162 0.63409 0.0
H238 H 0.22779 0.8649 0.64071 0.0
C239 C 0.2193 0.92496 0.58438 0.0
O240 O 0.16977 0.9413 0.5723 0.0
N241 N 0.1145 0.949 0.64052 0.0
C242 C 0.0617 0.96602 0.64823 0.0
C243 C 0.09006 0.99113 0.65045 0.0
C244 C 0.17478 0.9639 0.64115 0.0
N245 N 0.16129 0.9897 0.64574 0.0
C246 C 0.99712 0.92371 0.59044 0.0
C247 C 0.03675 0.89126 0.53655 0.0
C248 C 0.97217 0.90513 0.53366 0.0
C249 C 0.95307 0.92173 0.56088 0.0
C250 C 0.0803 0.89424 0.56653 0.0
N251 N 0.06052 0.91056 0.59297 0.0
H252 H 0.97736 0.93446 0.61214 0.0
H253 H 0.12875 0.8827 0.56904 0.0
H254 H 1.00698 0.96075 0.65384 0.0
H255 H 0.22803 0.95603 0.63863 0.0
O256 O 0.0298 0.90913 0.66681 0.0
O257 O 0.14161 0.90907 0.68729 0.0
O258 O 0.20812 0.9114 0.61252 0.0
C259 C 0.07293 0.90838 0.69375 0.0
H260 H 0.18848 0.8145 0.63886 0.0
H261 H 0.0608 1.0089 0.65618 0.0
H262 H 0.05241 0.87777 0.51635 0.0
H263 H 0.90195 0.93182 0.56044 0.0
Co264 Co 0.59451 0.63909 0.07387 0.0
C265 C 0.67198 0.58766 0.0648 0.0
C266 C 0.57724 0.59014 0.03224 0.0
C267 C 0.61114 0.56665 0.02578 0.0
N268 N 0.61484 0.60344 0.05699 0.0
N269 N 0.67049 0.56501 0.04637 0.0
H270 H 0.71574 0.59299 0.08234 0.0
H271 H 0.5293 0.59707 0.01881 0.0
C272 C 0.44198 0.65179 0.04497 0.0
O273 O 0.43541 0.67333 0.06319 0.0
N274 N 0.57802 0.67475 0.09104 0.0
C275 C 0.58684 0.68179 0.12484 0.0
C276 C 0.57113 0.70804 0.12793 0.0
C277 C 0.56218 0.69766 0.07355 0.0
N278 N 0.5549 0.71802 0.09586 0.0
C279 C 0.6102 0.61186 0.13945 0.0
C280 C 0.48097 0.62709 0.16654 0.0
C281 C 0.53359 0.6162 0.18914 0.0
C282 C 0.59736 0.60739 0.17492 0.0
C283 C 0.49512 0.63047 0.13079 0.0
N284 N 0.56068 0.62415 0.11802 0.0
H285 H 0.66281 0.60756 0.1302 0.0
H286 H 0.45599 0.64051 0.1144 0.0
H287 H 0.60317 0.66872 0.14615 0.0
H288 H 0.55211 0.69908 0.04553 0.0
O289 O 0.69423 0.64357 0.0869 0.0
O290 O 0.64543 0.65382 0.03487 0.0
O291 O 0.496 0.63649 0.04963 0.0
C292 C 0.70242 0.65256 0.05511 0.0
H293 H 0.59367 0.55193 1.00714 0.0
H294 H 0.57015 0.71896 0.15211 0.0
H295 H 0.43084 0.63409 0.17671 0.0
H296 H 0.63949 0.5991 0.19163 0.0
Co297 Co 0.94909 0.40545 0.07595 0.0
C298 C 0.87689 0.45833 0.06853 0.0
C299 C 0.95768 0.45301 0.03015 0.0
C300 C 0.9234 0.47658 0.02315 0.0
N301 N 0.92907 0.44143 0.05878 0.0
N302 N 0.8727 0.47997 0.04727 0.0
H303 H 0.83949 0.45423 0.0892 0.0
H304 H 0.99838 0.44449 0.01412 0.0
C305 C 0.0922 0.39101 0.04261 0.0
O306 O 0.09422 0.36741 0.05703 0.0
N307 N 0.9654 0.36933 0.09336 0.0
C308 C 0.96318 0.36184 0.12745 0.0
C309 C 0.96816 0.3349 0.13012 0.0
C310 C 0.96813 0.34626 0.07562 0.0
N311 N 0.97189 0.32504 0.09765 0.0
C312 C 0.94744 0.42976 0.14283 0.0
C313 C 0.08487 0.41532 0.16351 0.0
C314 C 0.03697 0.42374 0.18871 0.0
C315 C 0.96872 0.43212 0.17791 0.0
C316 C 0.06152 0.41333 0.12852 0.0
N317 N 0.99226 0.41921 0.11894 0.0
H318 H 0.89242 0.43392 0.13586 0.0
H319 H 0.09712 0.40451 0.11025 0.0
H320 H 0.95628 0.37488 0.14923 0.0
H321 H 0.96743 0.34502 0.0473 0.0
O322 O 0.85114 0.40193 0.0908 0.0
O323 O 0.89082 0.39191 0.03814 0.0
O324 O 0.04355 0.40756 0.0503 0.0
C325 C 0.83728 0.39349 0.05935 0.0
H326 H 0.93371 0.48992 1.00136 0.0
H327 H 0.96938 0.32337 0.15427 0.0
H328 H 0.13783 0.40841 0.17122 0.0
H329 H 0.93023 0.43846 0.1969 0.0
Co330 Co 0.06302 0.40792 0.46266 0.0
C331 C 0.02509 0.34993 0.45145 0.0
C332 C 0.08056 0.35803 0.49988 0.0
C333 C 0.06605 0.33149 0.4989 0.0
N334 N 0.05515 0.36981 0.47024 0.0
N335 N 0.03109 0.32632 0.46852 0.0
H336 H 0.99857 0.35232 0.42627 0.0
H337 H 0.10844 0.36817 0.5209 0.0
C338 C 0.21353 0.38812 0.45998 0.0
O339 O 0.19189 0.36738 0.44234 0.0
N340 N 0.07335 0.44584 0.45706 0.0
C341 C 0.03581 0.46189 0.43521 0.0
C342 C 0.06668 0.48668 0.43595 0.0
C343 C 0.12597 0.46107 0.47105 0.0
N344 N 0.1238 0.48622 0.45842 0.0
C345 C 1.01112 0.39788 0.39293 0.0
C346 C 0.13063 0.41621 0.35834 0.0
C347 C 0.07025 0.40853 0.33849 0.0
C348 C 1.01007 0.39915 0.35634 0.0
C349 C 0.12949 0.41454 0.39496 0.0
N350 N 0.07084 0.40482 0.41194 0.0
H351 H 0.96252 0.39227 0.40602 0.0
H352 H 0.1746 0.42252 0.40948 0.0
H353 H 0.99111 0.45573 0.41874 0.0
H354 H 0.16588 0.45365 0.48957 0.0
O355 O 0.96049 0.41144 0.46535 0.0
O356 O 0.03538 0.41262 0.5111 0.0
O357 O 0.16921 0.40544 0.46994 0.0
C358 C 0.96962 0.41358 0.49906 0.0
H359 H 0.08117 0.31703 0.51886 0.0
H360 H 0.04976 0.50337 0.41987 0.0
H361 H 0.17793 0.42398 0.34577 0.0
H362 H 0.96118 0.39393 0.34226 0.0
Co363 Co 0.40913 0.64344 0.44708 0.0
C364 C 0.3358 0.59143 0.45635 0.0
C365 C 0.4155 0.59668 0.49659 0.0
C366 C 0.37976 0.57315 0.50289 0.0
N367 N 0.38982 0.60787 0.4665 0.0
N368 N 0.32933 0.56998 0.47753 0.0
H369 H 0.29928 0.59547 0.43465 0.0
H370 H 0.45423 0.60552 0.51427 0.0
C371 C 0.55472 0.63293 0.48249 0.0
O372 O 0.55917 0.60999 0.46708 0.0
N373 N 0.42465 0.67882 0.42859 0.0
C374 C 0.40788 0.68787 0.39609 0.0
C375 C 0.42195 0.71461 0.39451 0.0
C376 C 0.44783 0.70012 0.44645 0.0
N377 N 0.44693 0.72237 0.42624 0.0
C378 C 0.42372 0.61199 0.38601 0.0
C379 C 0.54574 0.63668 0.36196 0.0
C380 C 0.50683 0.61997 0.33951 0.0
C381 C 0.44711 0.60669 0.35245 0.0
C382 C 0.52189 0.64068 0.39614 0.0
N383 N 0.45978 0.62917 0.40734 0.0
H384 H 0.37279 0.60405 0.39314 0.0
H385 H 0.54962 0.65493 0.41236 0.0
H386 H 0.38567 0.67594 0.3752 0.0
H387 H 0.46423 0.69927 0.47379 0.0
O388 O 0.31346 0.64386 0.42644 0.0
O389 O 0.34355 0.65768 0.47988 0.0
O390 O 0.5 0.64763 0.47687 0.0
C391 C 0.29405 0.65396 0.45589 0.0
H392 H 0.38759 0.56018 0.52544 0.0
H393 H 0.41232 0.72741 0.37196 0.0
H394 H 0.59196 0.6475 0.35264 0.0
H395 H 0.4148 0.5941 0.33562 0.0
Co396 Co 0.4177 0.40479 0.89001 0.0
C397 C 0.4671 0.34882 0.89379 0.0
C398 C 0.3526 0.3525 0.88995 0.0
C399 C 0.36925 0.32615 0.89118 0.0
N400 N 0.4137 0.3667 0.89194 0.0
N401 N 0.44112 0.32381 0.89356 0.0
H402 H 0.52339 0.35402 0.89529 0.0
H403 H 0.29941 0.36074 0.88707 0.0
C404 C 0.31198 0.41854 0.94394 0.0
O405 O 0.35846 0.43637 0.95474 0.0
N406 N 0.41624 0.44333 0.88581 0.0
C407 C 0.46778 0.46001 0.87435 0.0
C408 C 0.43853 0.48462 0.86827 0.0
C409 C 0.3557 0.45793 0.88407 0.0
N410 N 0.36774 0.48331 0.8745 0.0
C411 C 0.53519 0.41834 0.935 0.0
C412 C 0.50353 0.38347 0.98908 0.0
C413 C 0.5695 0.39663 0.98916 0.0
C414 C 0.58416 0.41482 0.96245 0.0
C415 C 0.45494 0.38797 0.96115 0.0
N416 N 0.47178 0.40491 0.93415 0.0
H417 H 0.55157 0.43022 0.91315 0.0
H418 H 0.40592 0.37653 0.96011 0.0
H419 H 0.52175 0.45452 0.86792 0.0
H420 H 0.30306 0.44976 0.88818 0.0
O421 O 0.49894 0.40342 0.86027 0.0
O422 O 0.38653 0.40369 0.84069 0.0
O423 O 0.32428 0.40513 0.91645 0.0
C424 C 0.45497 0.40321 0.83367 0.0
H425 H 0.33143 0.30994 0.88923 0.0
H426 H 0.46679 0.5017 0.85812 0.0
H427 H 0.49144 0.3689 1.0092 0.0
H428 H 0.63556 0.42484 0.9615 0.0
Co429 Co 0.11143 0.64497 0.88591 0.0
C430 C 0.06238 0.7008 0.89061 0.0
C431 C 0.1764 0.69721 0.88595 0.0
C432 C 0.16003 0.72353 0.8879 0.0
N433 N 0.11546 0.68299 0.888 0.0
N434 N 0.08846 0.7258 0.89084 0.0
H435 H 1.00628 0.69557 0.89255 0.0
H436 H 0.22923 0.68902 0.88275 0.0
C437 C 0.21978 0.62975 0.94111 0.0
O438 O 0.17344 0.6117 0.95115 0.0
N439 N 0.11282 0.60654 0.88164 0.0
C440 C 0.06075 0.58999 0.87009 0.0
C441 C 0.0898 0.56544 0.8648 0.0
C442 C 0.17334 0.59201 0.88067 0.0
N443 N 0.16091 0.56671 0.87161 0.0
C444 C 0.99517 0.63079 0.92931 0.0
C445 C 0.02958 0.66401 0.9841 0.0
C446 C 0.96266 0.65151 0.98289 0.0
C447 C 0.94667 0.6341 0.95587 0.0
C448 C 0.07745 0.65989 0.95689 0.0
N449 N 0.05925 0.64378 0.92952 0.0
H450 H 0.97784 0.61955 0.90717 0.0
H451 H 0.12691 0.67107 0.95663 0.0
H452 H 1.00638 0.59551 0.8632 0.0
H453 H 0.22614 0.60013 0.88516 0.0
O454 O 0.02839 0.64705 0.85542 0.0
O455 O 0.13933 0.64735 0.83648 0.0
O456 O 0.20645 0.644 0.91356 0.0
C457 C 0.07043 0.648 0.829 0.0
H458 H 0.19774 0.73977 0.88625 0.0
H459 H 0.06107 0.54842 0.85492 0.0
H460 H 0.04287 0.67791 1.00455 0.0
H461 H 0.89478 0.62444 0.95404 0.0
Co462 Co 0.90153 0.65325 0.63119 0.0
C463 C 0.94476 0.71032 0.63204 0.0
C464 C 0.83386 0.70431 0.6429 0.0
C465 C 0.84834 0.73096 0.64415 0.0
N466 N 0.89392 0.69138 0.63434 0.0
N467 N 0.9182 0.7347 0.63713 0.0
H468 H 1.00068 0.70662 0.62844 0.0
H469 H 0.7828 0.69493 0.64787 0.0
C470 C 0.7803 0.6664 0.58011 0.0
O471 O 0.81628 0.6876 0.57063 0.0
N472 N 0.90462 0.61546 0.62936 0.0
C473 C 0.95866 0.59894 0.62243 0.0
C474 C 0.93252 0.57332 0.62428 0.0
C475 C 0.8474 0.60005 0.63551 0.0
N476 N 0.86235 0.57425 0.63231 0.0
C477 C 0.02244 0.66495 0.59004 0.0
C478 C 0.9708 0.64843 0.52575 0.0
C479 C 0.03891 0.66025 0.52812 0.0
C480 C 0.06476 0.66791 0.56102 0.0
C481 C 0.92922 0.64604 0.55601 0.0
N482 N 0.95378 0.65577 0.58738 0.0
H483 H 0.04682 0.66965 0.61492 0.0
H484 H 0.8786 0.63573 0.55419 0.0
H485 H 0.01265 0.60503 0.61628 0.0
H486 H 0.79576 0.60773 0.64262 0.0
O487 O 0.98418 0.65338 0.66221 0.0
O488 O 0.87363 0.65042 0.68077 0.0
O489 O 0.80493 0.6514 0.60493 0.0
C490 C 0.94226 0.65138 0.6885 0.0
H491 H 0.81021 0.7463 0.64967 0.0
H492 H 0.9624 0.55552 0.61945 0.0
H493 H 0.95044 0.64088 0.50106 0.0
H494 H 0.11898 0.67525 0.56478 0.0
Co495 Co 0.61303 0.41037 0.63839 0.0
C496 C 0.55916 0.35539 0.63601 0.0
C497 C 0.67421 0.35733 0.63911 0.0
C498 C 0.65385 0.33124 0.63795 0.0
N499 N 0.61491 0.37238 0.63753 0.0
N500 N 0.58165 0.3301 0.63606 0.0
H501 H 0.50359 0.36143 0.63443 0.0
H502 H 0.7285 0.36478 0.64121 0.0
C503 C 0.71976 0.42492 0.58499 0.0
O504 O 0.67021 0.44127 0.57296 0.0
N505 N 0.61491 0.44884 0.64126 0.0
C506 C 0.56204 0.46579 0.6491 0.0
C507 C 0.59023 0.49092 0.65139 0.0
C508 C 0.67508 0.4638 0.64188 0.0
N509 N 0.66144 0.48957 0.64659 0.0
C510 C 0.49756 0.42359 0.59114 0.0
C511 C 0.53719 0.39125 0.53713 0.0
C512 C 0.47254 0.40509 0.53431 0.0
C513 C 0.45345 0.42164 0.56159 0.0
C514 C 0.58079 0.39421 0.5671 0.0
N515 N 0.56101 0.41047 0.5936 0.0
H516 H 0.47781 0.4343 0.61288 0.0
H517 H 0.62928 0.38268 0.56954 0.0
H518 H 0.50737 0.46046 0.65475 0.0
H519 H 0.72838 0.45598 0.63926 0.0
O520 O 0.53043 0.40885 0.66746 0.0
O521 O 0.64229 0.40882 0.68788 0.0
O522 O 0.70862 0.41133 0.61311 0.0
C523 C 0.57363 0.40807 0.69438 0.0
H524 H 0.68931 0.31437 0.63911 0.0
H525 H 0.56087 0.50865 0.65723 0.0
H526 H 0.55285 0.3778 0.51688 0.0
H527 H 0.4023 0.4317 0.5612 0.0
C528 C 0.40148 0.14751 0.03871 0.0
C529 C 0.40566 0.15952 1.00549 0.0
H530 H 0.33284 0.13629 0.0808 0.0
C531 C 0.34617 0.17307 0.99129 0.0
H532 H 0.44666 0.13663 0.04974 0.0
C533 C 0.28114 0.17253 1.00854 0.0
C534 C 0.27491 0.15856 0.04035 0.0
H535 H 0.34852 0.18224 0.96547 0.0
H536 H 0.23476 0.18166 0.99593 0.0
C537 C 0.33635 0.1472 0.05624 0.0
C538 C 0.13783 0.90154 0.04417 0.0
C539 C 0.12781 0.88811 0.01259 0.0
H540 H 0.21307 0.91322 0.08427 0.0
C541 C 0.18356 0.87282 0.99961 0.0
H542 H 0.09569 0.91385 0.0541 0.0
C543 C 0.25072 0.87291 0.01623 0.0
C544 C 0.26271 0.88808 0.04624 0.0
H545 H 0.17683 0.86267 0.97494 0.0
H546 H 0.2943 0.86241 1.00439 0.0
C547 C 0.20495 0.9013 0.06118 0.0
C548 C 0.81644 0.91734 0.47261 0.0
C549 C 0.78891 0.89166 0.46929 0.0
H550 H 0.89892 0.94169 0.4947 0.0
C551 C 0.83076 0.87005 0.48044 0.0
H552 H 0.78559 0.93428 0.46352 0.0
C553 C 0.89568 0.87432 0.49852 0.0
C554 C 0.91916 0.90021 0.50525 0.0
H555 H 0.81044 0.85008 0.47802 0.0
H556 H 0.92384 0.85752 0.50997 0.0
C557 C 0.88131 0.92158 0.49025 0.0
C558 C 0.70027 0.18231 0.47844 0.0
C559 C 0.71929 0.15871 0.46263 0.0
H560 H 0.62336 0.20207 0.50915 0.0
C561 C 0.6691 0.13808 0.46013 0.0
H562 H 0.73809 0.19856 0.48014 0.0
C563 C 0.6044 0.13959 0.47791 0.0
C564 C 0.58918 0.16208 0.4975 0.0
H565 H 0.68293 0.11985 0.44758 0.0
H566 H 0.57034 0.12225 0.47931 0.0
C567 C 0.63471 0.18424 0.49495 0.0
C568 C 0.72712 0.88546 0.96992 0.0
C569 C 0.75036 0.91172 0.96616 0.0
H570 H 0.65982 0.85818 0.99757 0.0
C571 C 0.71962 0.93122 0.9869 0.0
H572 H 0.75062 0.86999 0.95463 0.0
C573 C 0.66683 0.92456 1.01111 0.0
C574 C 0.6455 0.89813 0.01581 0.0
H575 H 0.7369 0.95161 0.9846 0.0
H576 H 0.64414 0.93996 0.02679 0.0
C577 C 0.67586 0.87868 0.99482 0.0
C578 C 0.80441 0.16166 0.97061 0.0
C579 C 0.78289 0.1356 0.9639 0.0
H580 H 0.87042 0.18727 1.00203 0.0
C581 C 0.81586 0.11487 0.98313 0.0
H582 H 0.77918 0.17803 0.9566 0.0
C583 C 0.86896 0.1201 1.0087 0.0
C584 C 0.88841 0.14622 0.01642 0.0
H585 H 0.79986 0.09459 0.97868 0.0
H586 H 0.89311 0.10375 0.02319 0.0
C587 C 0.85589 0.16693 0.99694 0.0
C588 C 0.12412 0.16821 0.51383 0.0
C589 C 0.11158 0.14125 0.50761 0.0
H590 H 0.18747 0.19719 0.54104 0.0
C591 C 0.15266 0.12253 0.52678 0.0
H592 H 0.09347 0.18316 0.49959 0.0
C593 C 0.20519 0.1306 0.55139 0.0
C594 C 0.21918 0.15759 0.55676 0.0
H595 H 0.14395 0.10161 0.52289 0.0
H596 H 0.23656 0.11568 0.56531 0.0
C597 C 0.17787 0.17626 0.53768 0.0
C598 C 0.28201 0.92854 0.52765 0.0
C599 C 0.28476 0.92172 0.56353 0.0
H600 H 0.33754 0.93121 0.47933 0.0
C601 C 0.3496 0.91234 0.57832 0.0
H602 H 0.23284 0.93565 0.51529 0.0
C603 C 0.41067 0.9102 0.55752 0.0
C604 C 0.40712 0.91685 0.52153 0.0
H605 H 0.35329 0.90698 0.60589 0.0
H606 H 0.46015 0.90296 0.56939 0.0
C607 C 0.34208 0.92593 0.50692 0.0
C608 C 0.78027 0.67178 1.00922 0.0
C609 C 0.77392 0.65807 0.04122 0.0
H610 H 0.84771 0.68104 0.96602 0.0
C611 C 0.83522 0.64671 0.05725 0.0
H612 H 0.734 0.6809 0.9965 0.0
C613 C 0.90033 0.64677 0.03971 0.0
C614 C 0.9046 0.65851 1.00633 0.0
H615 H 0.83159 0.636 0.08195 0.0
H616 H 0.94542 0.63592 0.05088 0.0
C617 C 0.84527 0.67205 0.99195 0.0
C618 C 0.75121 0.37371 0.01671 0.0
C619 C 0.76347 0.38874 0.04682 0.0
H620 H 0.67713 0.36378 0.97538 0.0
C621 C 0.70598 0.40206 0.06184 0.0
H622 H 0.79459 0.36314 1.00481 0.0
C623 C 0.63886 0.40253 0.04484 0.0
C624 C 0.6286 0.38923 0.01319 0.0
H625 H 0.71434 0.41388 0.08501 0.0
H626 H 0.59693 0.41488 0.05486 0.0
C627 C 0.68406 0.37385 1.0001 0.0
C628 C 0.33118 0.37002 0.48103 0.0
C629 C 0.28926 0.39162 0.46995 0.0
H630 H 0.42433 0.35749 0.51052 0.0
C631 C 0.3167 0.41731 0.47333 0.0
H632 H 0.31094 0.35004 0.47855 0.0
C633 C 0.38156 0.42155 0.49099 0.0
C634 C 0.4195 0.40018 0.50592 0.0
H635 H 0.28579 0.43424 0.46428 0.0
H636 H 0.3991 0.44167 0.49548 0.0
C637 C 0.3961 0.37429 0.49912 0.0
C638 C 0.1998 0.68232 0.47941 0.0
C639 C 0.21877 0.65874 0.46353 0.0
H640 H 0.12297 0.70205 0.51019 0.0
C641 C 0.16856 0.63812 0.46102 0.0
H642 H 0.23764 0.69857 0.48112 0.0
C643 C 0.10391 0.63962 0.47884 0.0
C644 C 0.08874 0.66208 0.49847 0.0
H645 H 0.18236 0.61991 0.44842 0.0
H646 H 0.06983 0.62228 0.48021 0.0
C647 C 0.13429 0.68424 0.49595 0.0
C648 C 0.21956 0.43151 0.98694 0.0
C649 C 0.25076 0.41195 0.96646 0.0
H650 H 0.14404 0.4403 0.02678 0.0
C651 C 0.22823 0.38563 0.97063 0.0
H652 H 0.2363 0.45194 0.98433 0.0
C653 C 0.17724 0.37887 0.99566 0.0
C654 C 0.14645 0.39838 0.01639 0.0
H655 H 0.25211 0.37012 0.95554 0.0
H656 H 0.16174 0.35834 0.99873 0.0
C657 C 0.16707 0.42485 1.01129 0.0
C658 C 0.3155 0.61451 0.98368 0.0
C659 C 0.28232 0.63524 0.96454 0.0
H660 H 0.39273 0.6034 0.02374 0.0
C661 C 0.30345 0.66132 0.97142 0.0
H662 H 0.2998 0.59422 0.97909 0.0
C663 C 0.35477 0.6666 0.99781 0.0
C664 C 0.3875 0.64589 0.0172 0.0
H665 H 0.27805 0.67769 0.95748 0.0
H666 H 0.36902 0.68695 1.00302 0.0
C667 C 0.36842 0.61975 1.00932 0.0
C668 C 0.65209 0.6226 0.52759 0.0
C669 C 0.61106 0.64132 0.5084 0.0
H670 H 0.73593 0.61576 0.56616 0.0
C671 C 0.62362 0.66828 0.5146 0.0
H672 H 0.64337 0.60168 0.52372 0.0
C673 C 0.67734 0.67634 0.53847 0.0
C674 C 0.7186 0.65767 0.55758 0.0
H675 H 0.593 0.68323 0.50034 0.0
H676 H 0.68695 0.69727 0.54182 0.0
C677 C 0.70459 0.63067 0.55222 0.0
C678 C 0.84245 0.4259 0.5075 0.0
C679 C 0.90744 0.41673 0.52209 0.0
H680 H 0.7333 0.43573 0.51592 0.0
C681 C 0.91098 0.41005 0.55806 0.0
H682 H 0.83794 0.43121 0.47992 0.0
C683 C 0.84996 0.41222 0.57888 0.0
C684 C 0.78518 0.42169 0.56412 0.0
H685 H 0.96042 0.40274 0.56991 0.0
H686 H 0.85364 0.40682 0.60644 0.0
C687 C 0.78243 0.42855 0.52826 0.0
C688 C 0.24071 0.03146 0.01481 0.0
C689 C 0.22263 0.04391 0.0461 0.0
H690 H 0.30247 1.00148 0.99046 0.0
C691 C 0.25403 0.03463 0.07781 0.0
H692 H 0.21768 0.03819 0.98999 0.0
C693 C 0.30166 1.01312 0.07816 0.0
C694 C 0.32032 1.00096 0.04671 0.0
H695 H 0.24063 0.0437 0.10233 0.0
H696 H 0.32499 1.00628 0.10287 0.0
C697 C 0.28944 1.0105 0.01507 0.0
C698 C 0.74233 1.00262 0.48018 0.0
C699 C 0.67473 1.00753 0.46413 0.0
H700 H 0.8443 1.01853 0.49667 0.0
C701 C 0.65876 0.03367 0.45362 0.0
H702 H 0.7576 0.98291 0.48848 0.0
C703 C 0.70908 0.05398 0.45799 0.0
C704 C 0.77685 0.049 0.47341 0.0
H705 H 0.60726 0.03864 0.44189 0.0
H706 H 0.69448 0.07368 0.4494 0.0
C707 C 0.79247 1.02311 0.48491 0.0
C708 C 0.78733 0.05129 0.86987 0.0
C709 C 0.71327 0.04572 0.87005 0.0
H710 H 0.89394 0.0362 0.87175 0.0
C711 C 0.69132 1.01913 0.86999 0.0
H712 H 0.80714 0.07135 0.86925 0.0
C713 C 0.74171 0.99878 0.87063 0.0
C714 C 0.81579 1.00435 0.87169 0.0
H715 H 0.63512 1.01387 0.87029 0.0
H716 H 0.72191 0.97871 0.87056 0.0
C717 C 0.83772 0.03093 0.87084 0.0
C718 C 0.28566 1.00698 0.65052 0.0
C719 C 0.21212 1.01117 0.64354 0.0
H720 H 0.39137 1.02379 0.65215 0.0
C721 C 0.18949 0.03638 0.63238 0.0
H722 H 0.30498 0.98791 0.65956 0.0
C723 C 0.23899 0.05683 0.6281 0.0
C724 C 0.31248 0.05267 0.635 0.0
H725 H 0.13366 0.04017 0.62603 0.0
H726 H 0.21964 0.07582 0.61872 0.0
C727 C 0.33532 0.02751 0.64622 0.0
C728 C 0.80173 0.51316 0.07903 0.0
C729 C 0.82083 0.50114 0.04756 0.0
H730 H 0.74002 0.54354 0.10322 0.0
C731 C 0.79005 0.51069 0.01591 0.0
H732 H 0.82498 0.5063 0.10375 0.0
C733 C 0.74095 0.53153 0.01565 0.0
C734 C 0.72244 0.54385 0.04696 0.0
H735 H 0.80342 0.50176 0.99128 0.0
H736 H 0.71799 0.53827 0.99082 0.0
C737 C 0.75375 0.53456 0.07869 0.0
C738 C 0.20868 0.55399 0.45916 0.0
C739 C 0.27656 0.54902 0.47445 0.0
H740 H 0.10687 0.53861 0.4431 0.0
C741 C 0.29241 0.52311 0.48578 0.0
H742 H 0.19391 0.5737 0.4507 0.0
C743 C 0.24238 0.5026 0.481 0.0
C744 C 0.17468 0.5075 0.46505 0.0
H745 H 0.34434 0.51854 0.49745 0.0
H746 H 0.25782 0.48286 0.48915 0.0
C747 C 0.15847 0.53365 0.45473 0.0
C748 C 0.24143 0.49874 0.87029 0.0
C749 C 0.31549 0.50432 0.87127 0.0
H750 H 0.13485 0.51385 0.87008 0.0
C751 C 0.33743 0.53091 0.87038 0.0
H752 H 0.22165 0.47867 0.87026 0.0
C753 C 0.28705 0.55126 0.86946 0.0
C754 C 0.21301 0.54569 0.86975 0.0
H755 H 0.39364 0.53617 0.87123 0.0
H756 H 0.30681 0.57134 0.86883 0.0
C757 C 0.19104 0.5191 0.86971 0.0
C758 C 0.83519 0.52756 0.64718 0.0
C759 C 0.81216 0.55272 0.63607 0.0
H760 H 0.80515 0.48789 0.66035 0.0
C761 C 0.73863 0.55682 0.6292 0.0
H762 H 0.89127 0.52388 0.65308 0.0
C763 C 0.68928 0.53631 0.63342 0.0
C764 C 0.71211 0.5111 0.64446 0.0
H765 H 0.71912 0.57581 0.61991 0.0
H766 H 0.63342 0.54006 0.6271 0.0
C767 C 0.78569 0.50697 0.65141 0.0
C768 C 0.03528 0.28933 0.06686 0.0
C769 C 0.98219 0.29748 0.09006 0.0
H770 H 0.10099 0.25701 0.05017 0.0
C771 C 0.94707 0.27825 0.11035 0.0
H772 H 0.06364 0.30381 0.05117 0.0
C773 C 0.96829 0.2519 0.10981 0.0
C774 C 0.02514 0.24397 0.08892 0.0
H775 H 0.90562 0.28392 0.12818 0.0
H776 H 0.94283 0.2378 0.12725 0.0
C777 C 0.0567 0.26266 0.06631 0.0
C778 C 0.53384 0.78896 0.06704 0.0
C779 C 0.48106 0.79726 0.09032 0.0
H780 H 0.59922 0.75652 0.05044 0.0
C781 C 0.44613 0.77814 0.11088 0.0
H782 H 0.56204 0.80335 0.05114 0.0
C783 C 0.46727 0.75177 0.11053 0.0
C784 C 0.52384 0.74372 0.08955 0.0
H785 H 0.40492 0.78392 0.12878 0.0
H786 H 0.44195 0.73778 0.12815 0.0
C787 C 0.55517 0.76227 0.06667 0.0
C788 C 0.48766 0.78131 0.48233 0.0
C789 C 0.50604 0.8007 0.45725 0.0
H790 H 0.45353 0.74169 0.49238 0.0
C791 C 0.5028 0.7941 0.42161 0.0
H792 H 0.48821 0.78585 0.50996 0.0
C793 C 0.4833 0.76851 0.41142 0.0
C794 C 0.46608 0.74893 0.43661 0.0
H795 H 0.51732 0.80847 0.40168 0.0
H796 H 0.48325 0.76398 0.3838 0.0
C797 C 0.46789 0.75585 0.47219 0.0
C798 C 1.00341 0.29413 0.42163 0.0
C799 C 1.00652 0.30062 0.45731 0.0
H800 H 0.98399 0.26414 0.38364 0.0
C801 C 0.98805 0.28115 0.48227 0.0
H802 H 0.01799 0.30857 0.40179 0.0
C803 C 0.96832 0.25573 0.47197 0.0
C804 C 0.96663 0.24892 0.43635 0.0
H805 H 0.9885 0.2856 0.50993 0.0
H806 H 0.95388 0.24151 0.49207 0.0
C807 C 0.98394 0.26857 0.41128 0.0
C808 C 0.04446 0.79691 0.90617 0.0
C809 C 0.97508 0.79877 0.8914 0.0
H810 H 0.13434 0.77206 0.91822 0.0
C811 C 0.94309 0.77592 0.87724 0.0
H812 H 0.07028 0.81392 0.91782 0.0
C813 C 0.97954 0.7519 0.87775 0.0
C814 C 0.04912 0.75015 0.89213 0.0
H815 H 0.89028 0.7766 0.86506 0.0
H816 H 0.95399 0.73487 0.866 0.0
C817 C 0.08107 0.77288 0.90649 0.0
C818 C 0.48693 0.25211 0.9056 0.0
C819 C 0.55418 0.25091 0.88985 0.0
H820 H 0.39893 0.2764 0.91979 0.0
C821 C 0.58433 0.27436 0.87621 0.0
H822 H 0.46265 0.23459 0.9169 0.0
C823 C 0.54813 0.29835 0.87816 0.0
C824 C 0.48061 0.29945 0.89351 0.0
H825 H 0.63541 0.27422 0.86333 0.0
H826 H 0.57211 0.31589 0.86675 0.0
C827 C 0.45054 0.2761 0.90737 0.0
C828 C 0.5234 0.26089 0.6176 0.0
C829 C 0.45823 0.25915 0.63543 0.0
H830 H 0.61331 0.2849 0.60374 0.0
C831 C 0.43277 0.28174 0.65218 0.0
H832 H 0.5439 0.24426 0.60351 0.0
C833 C 0.47238 0.30526 0.65172 0.0
C834 C 0.53847 0.30656 0.63483 0.0
H835 H 0.38316 0.28116 0.66634 0.0
H836 H 0.45246 0.32218 0.66548 0.0
C837 C 0.56319 0.28424 0.61753 0.0
C838 C 0.93205 0.78196 0.65237 0.0
C839 C 0.95739 0.75932 0.63569 0.0
H840 H 0.95183 0.82244 0.66543 0.0
C841 C 0.02242 0.76101 0.61774 0.0
H842 H 0.88255 0.78142 0.66662 0.0
C843 C 0.06221 0.78436 0.61749 0.0
C844 C 0.03762 0.80673 0.63472 0.0
H845 H 0.04283 0.74434 0.6037 0.0
H846 H 0.11224 0.78498 0.60361 0.0
C847 C 0.97165 0.80548 0.65173 0.0
C848 C 0.03559 0.09399 0.24739 0.0
C849 C 0.02761 0.11708 0.22685 0.0
H850 H 0.03531 0.07685 0.29929 0.0
C851 C 0.01782 0.1413 0.24352 0.0
H852 H 0.04392 0.07514 0.23509 0.0
C853 C 0.01543 0.14241 0.2801 0.0
C854 C 0.02155 0.11924 0.30062 0.0
H855 H 0.01277 0.15943 0.22823 0.0
H856 H 1.0064 0.16125 0.29231 0.0
C857 C 0.03145 0.095 0.28397 0.0
C858 C 0.52422 0.89636 0.24207 0.0
C859 C 0.55105 0.91925 0.2258 0.0
H860 H 0.51048 0.87472 0.29005 0.0
C861 C 0.58771 0.93804 0.24601 0.0
H862 H 0.4958 0.88164 0.22677 0.0
C863 C 0.59569 0.93425 0.28237 0.0
C864 C 0.56698 0.91162 0.29899 0.0
H865 H 0.60833 0.9559 0.23384 0.0
H866 H 0.62201 0.9495 0.29758 0.0
C867 C 0.53225 0.89253 0.27825 0.0
C868 C 0.05818 0.90387 0.79273 0.0
C869 C 0.9832 0.90407 0.79711 0.0
H870 H 0.14548 0.90515 0.75694 0.0
C871 C 0.93843 0.90547 0.76724 0.0
H872 H 0.0945 0.90282 0.81522 0.0
C873 C 0.96804 0.90681 0.73379 0.0
C874 C 0.04305 0.90681 0.72947 0.0
H875 H 0.88071 0.90572 0.76969 0.0
H876 H 0.93185 0.90796 0.71126 0.0
C877 C 0.08774 0.90525 0.75933 0.0
C878 C 0.4643 0.14828 0.7871 0.0
C879 C 0.53969 0.14862 0.79187 0.0
H880 H 0.37447 0.14871 0.75083 0.0
C881 C 0.5823 0.14962 0.7621 0.0
H882 H 0.4295 0.14746 0.80947 0.0
C883 C 0.55037 0.15035 0.72847 0.0
C884 C 0.47498 0.15005 0.7237 0.0
H885 H 0.6402 0.14986 0.76473 0.0
H886 H 0.58517 0.15117 0.7061 0.0
C887 C 0.43237 0.14896 0.75347 0.0
C888 C 0.51444 0.64221 0.28093 0.0
C889 C 0.52063 0.61907 0.30147 0.0
H890 H 0.51163 0.6592 0.22904 0.0
C891 C 0.53048 0.59481 0.28485 0.0
H892 H 0.50544 0.66106 0.29313 0.0
C893 C 0.53452 0.59377 0.24827 0.0
C894 C 0.52648 0.61685 0.22771 0.0
H895 H 0.5344 0.57667 0.30019 0.0
H896 H 0.54282 0.57491 0.23598 0.0
C897 C 0.51672 0.64109 0.24435 0.0
C898 C 0.09635 0.43431 0.28301 0.0
C899 C 0.06787 0.41162 0.29959 0.0
H900 H 0.10891 0.45599 0.2345 0.0
C901 C 0.03353 0.39246 0.27881 0.0
H902 H 0.12237 0.4496 0.29826 0.0
C903 C 0.02568 0.39627 0.24262 0.0
C904 C 0.05226 0.41922 0.22639 0.0
H905 H 0.01192 0.37462 0.29059 0.0
H906 H 0.99754 0.3815 0.22728 0.0
C907 C 0.08851 0.43808 0.24664 0.0
C908 C 0.43932 0.40493 0.76792 0.0
C909 C 0.48415 0.4036 0.79777 0.0
H910 H 0.43261 0.4074 0.71194 0.0
C911 C 0.55912 0.40345 0.79336 0.0
H912 H 0.3816 0.40514 0.77038 0.0
C913 C 0.58861 0.40485 0.75995 0.0
C914 C 0.54385 0.40638 0.73011 0.0
H915 H 0.59547 0.40245 0.81585 0.0
H916 H 0.64634 0.40481 0.75753 0.0
C917 C 0.46885 0.40628 0.73446 0.0
C918 C 0.96319 0.64868 0.78807 0.0
C919 C 0.03857 0.64904 0.79286 0.0
H920 H 0.87342 0.64904 0.75176 0.0
C921 C 0.08123 0.65009 0.76311 0.0
H922 H 0.92837 0.64782 0.81043 0.0
C923 C 0.04935 0.6508 0.72948 0.0
C924 C 0.97398 0.65042 0.72467 0.0
H925 H 0.13912 0.65035 0.76576 0.0
H926 H 0.0842 0.65163 0.70712 0.0
C927 C 0.93131 0.64933 0.75443 0.0
loop_
_geom_bond_atom_site_label_1
_geom_bond_atom_site_label_2
_geom_bond_distance
_geom_bond_site_symmetry_2
_ccdc_geom_bond_type
Co0 N4 2.148 . S
Co0 N10 2.128 . S
Co0 N20 2.194 . S
Co0 O25 2.351 . S
Co0 O26 2.155 . S
Co0 O27 2.096 1_455 S
C1 N4 1.301 . S
C1 N5 1.328 . S
C1 H6 0.930 . S
C2 C3 1.333 . S
C2 N4 1.317 . S
C2 H7 0.930 1_455 S
C3 C2 1.333 . S
C3 N5 1.350 . S
C3 H29 0.931 . S
N4 Co0 2.148 . S
N4 C1 1.301 . S
N4 C2 1.317 . S
N5 C1 1.328 . S
N5 C3 1.350 . S
H6 C1 0.930 . S
H7 C2 0.930 1_655 S
C8 O9 1.224 . S
C8 O27 1.247 . S
O9 C8 1.224 . S
N10 Co0 2.128 . S
N10 C11 1.355 . S
N10 C13 1.311 . S
C11 N10 1.355 . S
C11 C12 1.363 . S
C11 H23 0.929 . S
C12 C11 1.363 . S
C12 N14 1.375 . S
C12 H30 0.931 . S
C13 N10 1.311 . S
C13 N14 1.347 . S
C13 H24 0.929 1_455 S
N14 C12 1.375 . S
N14 C13 1.347 . S
C15 C18 1.365 . S
C15 N20 1.328 . S
C15 H21 0.929 . S
C16 C17 1.362 1_655 S
C16 C19 1.377 1_655 S
C16 H31 0.929 . S
C17 C16 1.362 1_455 S
C17 C18 1.366 . S
C18 C15 1.365 . S
C18 C17 1.366 . S
C18 H32 0.930 . S
C19 C16 1.377 1_455 S
C19 N20 1.317 . S
C19 H22 0.929 1_455 S
N20 Co0 2.194 . S
N20 C15 1.328 . S
N20 C19 1.317 . S
H21 C15 0.929 . S
H22 C19 0.929 1_655 S
H23 C11 0.929 . S
H24 C13 0.929 1_655 S
O25 Co0 2.351 . S
O25 C28 1.244 . S
O26 Co0 2.155 . S
O26 C28 1.240 . S
O27 Co0 2.096 1_655 S
O27 C8 1.247 . S
C28 O25 1.244 . S
C28 O26 1.240 . S
H29 C3 0.931 . S
H30 C12 0.931 . S
H31 C16 0.929 . S
H32 C18 0.930 . S
Co33 N37 2.148 . S
Co33 N43 2.128 . S
Co33 N53 2.194 . S
Co33 O58 2.351 . S
Co33 O59 2.155 . S
Co33 O60 2.096 . S
C34 N37 1.301 . S
C34 N38 1.328 . S
C34 H39 0.930 . S
C35 C36 1.333 . S
C35 N37 1.317 . S
C35 H40 0.930 . S
C36 C35 1.333 . S
C36 N38 1.350 . S
C36 H62 0.931 . S
N37 Co33 2.148 . S
N37 C34 1.301 . S
N37 C35 1.317 . S
N38 C34 1.328 . S
N38 C36 1.350 . S
H39 C34 0.930 . S
H40 C35 0.930 . S
C41 O42 1.224 . S
C41 O60 1.247 . S
O42 C41 1.224 . S
N43 Co33 2.128 . S
N43 C44 1.355 . S
N43 C46 1.311 . S
C44 N43 1.355 . S
C44 C45 1.363 . S
C44 H56 0.929 . S
C45 C44 1.363 . S
C45 N47 1.375 . S
C45 H63 0.931 . S
C46 N43 1.311 . S
C46 N47 1.347 . S
C46 H57 0.929 . S
N47 C45 1.375 . S
N47 C46 1.347 . S
C48 C51 1.365 . S
C48 N53 1.328 . S
C48 H54 0.929 . S
C49 C50 1.362 . S
C49 C52 1.378 . S
C49 H64 0.929 . S
C50 C49 1.362 . S
C50 C51 1.366 . S
C51 C48 1.365 . S
C51 C50 1.366 . S
C51 H65 0.930 . S
C52 C49 1.378 . S
C52 N53 1.315 . S
C52 H55 0.930 . S
N53 Co33 2.194 . S
N53 C48 1.328 . S
N53 C52 1.315 . S
H54 C48 0.929 . S
H55 C52 0.930 . S
H56 C44 0.929 . S
H57 C46 0.929 . S
O58 Co33 2.351 . S
O58 C61 1.244 . S
O59 Co33 2.155 . S
O59 C61 1.240 . S
O60 Co33 2.096 . S
O60 C41 1.247 . S
C61 O58 1.244 . S
C61 O59 1.240 . S
H62 C36 0.931 . S
H63 C45 0.931 . S
H64 C49 0.929 . S
H65 C51 0.930 . S
Co66 N70 2.148 . S
Co66 N76 2.128 . S
Co66 N86 2.194 . S
Co66 O91 2.351 . S
Co66 O92 2.155 . S
Co66 O93 2.096 . S
C67 N70 1.301 . S
C67 N71 1.328 . S
C67 H72 0.930 . S
C68 C69 1.333 . S
C68 N70 1.317 . S
C68 H73 0.930 . S
C69 C68 1.333 . S
C69 N71 1.350 . S
C69 H95 0.931 . S
N70 Co66 2.148 . S
N70 C67 1.301 . S
N70 C68 1.317 . S
N71 C67 1.328 . S
N71 C69 1.350 . S
H72 C67 0.930 . S
H73 C68 0.930 . S
C74 O75 1.224 . S
C74 O93 1.247 . S
O75 C74 1.224 . S
N76 Co66 2.128 . S
N76 C77 1.355 . S
N76 C79 1.311 . S
C77 N76 1.355 . S
C77 C78 1.363 . S
C77 H89 0.929 . S
C78 C77 1.363 . S
C78 N80 1.375 . S
C78 H96 0.931 . S
C79 N76 1.311 . S
C79 N80 1.347 . S
C79 H90 0.929 . S
N80 C78 1.375 . S
N80 C79 1.347 . S
C81 C84 1.365 . S
C81 N86 1.328 . S
C81 H87 0.929 . S
C82 C83 1.362 . S
C82 C85 1.378 . S
C82 H97 0.929 . S
C83 C82 1.362 . S
C83 C84 1.366 . S
C84 C81 1.365 . S
C84 C83 1.366 . S
C84 H98 0.930 . S
C85 C82 1.378 . S
C85 N86 1.315 . S
C85 H88 0.930 . S
N86 Co66 2.194 . S
N86 C81 1.328 . S
N86 C85 1.315 . S
H87 C81 0.929 . S
H88 C85 0.930 . S
H89 C77 0.929 . S
H90 C79 0.929 . S
O91 Co66 2.351 . S
O91 C94 1.244 . S
O92 Co66 2.155 . S
O92 C94 1.240 . S
O93 Co66 2.096 . S
O93 C74 1.247 . S
C94 O91 1.244 . S
C94 O92 1.240 . S
H95 C69 0.931 . S
H96 C78 0.931 . S
H97 C82 0.929 . S
H98 C84 0.930 . S
Co99 N103 2.148 . S
Co99 N109 2.128 . S
Co99 N119 2.194 . S
Co99 O124 2.351 . S
Co99 O125 2.155 . S
Co99 O126 2.096 1_655 S
C100 N103 1.301 . S
C100 N104 1.328 . S
C100 H105 0.930 . S
C101 C102 1.333 . S
C101 N103 1.317 . S
C101 H106 0.930 1_655 S
C102 C101 1.333 . S
C102 N104 1.350 . S
C102 H128 0.931 . S
N103 Co99 2.148 . S
N103 C100 1.301 . S
N103 C101 1.317 . S
N104 C100 1.328 . S
N104 C102 1.350 . S
H105 C100 0.930 . S
H106 C101 0.930 1_455 S
C107 O108 1.224 . S
C107 O126 1.247 . S
O108 C107 1.224 . S
N109 Co99 2.128 . S
N109 C110 1.355 . S
N109 C112 1.311 . S
C110 N109 1.355 . S
C110 C111 1.363 . S
C110 H122 0.929 . S
C111 C110 1.363 . S
C111 N113 1.375 . S
C111 H129 0.931 . S
C112 N109 1.311 . S
C112 N113 1.347 . S
C112 H123 0.929 1_655 S
N113 C111 1.375 . S
N113 C112 1.347 . S
C114 C117 1.365 . S
C114 N119 1.328 . S
C114 H120 0.929 . S
C115 C116 1.362 1_455 S
C115 C118 1.378 . S
C115 H130 0.929 . S
C116 C115 1.362 1_655 S
C116 C117 1.366 . S
C117 C114 1.365 . S
C117 C116 1.366 . S
C117 H131 0.930 . S
C118 C115 1.378 . S
C118 N119 1.315 1_455 S
C118 H121 0.930 . S
N119 Co99 2.194 . S
N119 C114 1.328 . S
N119 C118 1.315 1_655 S
H120 C114 0.929 . S
H121 C118 0.930 . S
H122 C110 0.929 . S
H123 C112 0.929 1_455 S
O124 Co99 2.351 . S
O124 C127 1.244 . S
O125 Co99 2.155 . S
O125 C127 1.240 . S
O126 Co99 2.096 1_455 S
O126 C107 1.247 . S
C127 O124 1.244 . S
C127 O125 1.240 . S
H128 C102 0.931 . S
H129 C111 0.931 . S
H130 C115 0.929 . S
H131 C117 0.930 . S
Co132 N136 2.148 . S
Co132 N142 2.128 . S
Co132 N152 2.194 . S
Co132 O157 2.351 . S
Co132 O158 2.155 . S
Co132 O159 2.096 . S
C133 N136 1.301 . S
C133 N137 1.328 . S
C133 H138 0.930 . S
C134 C135 1.333 . S
C134 N136 1.317 . S
C134 H139 0.930 . S
C135 C134 1.333 . S
C135 N137 1.350 . S
C135 H161 0.931 . S
N136 Co132 2.148 . S
N136 C133 1.301 . S
N136 C134 1.317 . S
N137 C133 1.328 . S
N137 C135 1.350 . S
H138 C133 0.930 . S
H139 C134 0.930 . S
C140 O141 1.224 . S
C140 O159 1.247 . S
O141 C140 1.224 . S
N142 Co132 2.128 . S
N142 C143 1.355 . S
N142 C145 1.311 . S
C143 N142 1.355 . S
C143 C144 1.363 . S
C143 H155 0.929 . S
C144 C143 1.363 . S
C144 N146 1.375 . S
C144 H162 0.931 . S
C145 N142 1.311 . S
C145 N146 1.347 . S
C145 H156 0.929 . S
N146 C144 1.375 . S
N146 C145 1.347 . S
C147 C150 1.365 . S
C147 N152 1.328 1_455 S
C147 H153 0.929 . S
C148 C149 1.362 . S
C148 C151 1.378 1_455 S
C148 H163 0.929 . S
C149 C148 1.362 . S
C149 C150 1.366 . S
C150 C147 1.365 . S
C150 C149 1.366 . S
C150 H164 0.930 . S
C151 C148 1.378 1_655 S
C151 N152 1.315 . S
C151 H154 0.930 . S
N152 Co132 2.194 . S
N152 C147 1.328 1_655 S
N152 C151 1.315 . S
H153 C147 0.929 . S
H154 C151 0.930 . S
H155 C143 0.929 . S
H156 C145 0.929 . S
O157 Co132 2.351 . S
O157 C160 1.244 . S
O158 Co132 2.155 . S
O158 C160 1.240 . S
O159 Co132 2.096 . S
O159 C140 1.247 . S
C160 O157 1.244 . S
C160 O158 1.240 . S
H161 C135 0.931 . S
H162 C144 0.931 . S
H163 C148 0.929 . S
H164 C150 0.930 . S
Co165 N169 2.148 . S
Co165 N175 2.128 . S
Co165 N185 2.194 . S
Co165 O190 2.351 . S
Co165 O191 2.155 . S
Co165 O192 2.096 . S
C166 N169 1.301 . S
C166 N170 1.328 . S
C166 H171 0.930 . S
C167 C168 1.333 . S
C167 N169 1.317 . S
C167 H172 0.930 . S
C168 C167 1.333 . S
C168 N170 1.350 . S
C168 H194 0.931 . S
N169 Co165 2.148 . S
N169 C166 1.301 . S
N169 C167 1.317 . S
N170 C166 1.328 . S
N170 C168 1.350 . S
H171 C166 0.930 . S
H172 C167 0.930 . S
C173 O174 1.224 . S
C173 O192 1.247 . S
O174 C173 1.224 . S
N175 Co165 2.128 . S
N175 C176 1.355 . S
N175 C178 1.311 . S
C176 N175 1.355 . S
C176 C177 1.363 . S
C176 H188 0.929 . S
C177 C176 1.363 . S
C177 N179 1.375 . S
C177 H195 0.931 . S
C178 N175 1.311 . S
C178 N179 1.347 . S
C178 H189 0.929 . S
N179 C177 1.375 . S
N179 C178 1.347 . S
C180 C183 1.365 . S
C180 N185 1.328 . S
C180 H186 0.929 . S
C181 C182 1.362 . S
C181 C184 1.378 . S
C181 H196 0.929 . S
C182 C181 1.362 . S
C182 C183 1.366 . S
C183 C180 1.365 . S
C183 C182 1.366 . S
C183 H197 0.930 . S
C184 C181 1.378 . S
C184 N185 1.315 . S
C184 H187 0.930 . S
N185 Co165 2.194 . S
N185 C180 1.328 . S
N185 C184 1.315 . S
H186 C180 0.929 . S
H187 C184 0.930 . S
H188 C176 0.929 . S
H189 C178 0.929 . S
O190 Co165 2.351 . S
O190 C193 1.244 . S
O191 Co165 2.155 . S
O191 C193 1.240 . S
O192 Co165 2.096 . S
O192 C173 1.247 . S
C193 O190 1.244 . S
C193 O191 1.240 . S
H194 C168 0.931 . S
H195 C177 0.931 . S
H196 C181 0.929 . S
H197 C183 0.930 . S
Co198 N202 2.148 . S
Co198 N208 2.128 . S
Co198 N218 2.194 . S
Co198 O223 2.351 . S
Co198 O224 2.155 . S
Co198 O225 2.096 . S
C199 N202 1.301 . S
C199 N203 1.328 . S
C199 H204 0.930 . S
C200 C201 1.333 . S
C200 N202 1.317 . S
C200 H205 0.930 . S
C201 C200 1.333 . S
C201 N203 1.350 . S
C201 H227 0.931 . S
N202 Co198 2.148 . S
N202 C199 1.301 . S
N202 C200 1.317 . S
N203 C199 1.328 . S
N203 C201 1.350 . S
H204 C199 0.930 . S
H205 C200 0.930 . S
C206 O207 1.224 . S
C206 O225 1.247 . S
O207 C206 1.224 . S
N208 Co198 2.128 . S
N208 C209 1.355 . S
N208 C211 1.311 . S
C209 N208 1.355 . S
C209 C210 1.363 . S
C209 H221 0.929 . S
C210 C209 1.363 . S
C210 N212 1.375 . S
C210 H228 0.931 . S
C211 N208 1.311 . S
C211 N212 1.347 . S
C211 H222 0.929 . S
N212 C210 1.375 . S
N212 C211 1.347 . S
C213 C216 1.365 . S
C213 N218 1.328 . S
C213 H219 0.929 . S
C214 C215 1.362 . S
C214 C217 1.378 . S
C214 H229 0.929 . S
C215 C214 1.362 . S
C215 C216 1.366 . S
C216 C213 1.365 . S
C216 C215 1.366 . S
C216 H230 0.930 . S
C217 C214 1.378 . S
C217 N218 1.315 . S
C217 H220 0.930 . S
N218 Co198 2.194 . S
N218 C213 1.328 . S
N218 C217 1.315 . S
H219 C213 0.929 . S
H220 C217 0.930 . S
H221 C209 0.929 . S
H222 C211 0.929 . S
O223 Co198 2.351 . S
O223 C226 1.244 . S
O224 Co198 2.155 . S
O224 C226 1.240 . S
O225 Co198 2.096 . S
O225 C206 1.247 . S
C226 O223 1.244 . S
C226 O224 1.240 . S
H227 C201 0.931 . S
H228 C210 0.931 . S
H229 C214 0.929 . S
H230 C216 0.930 . S
Co231 N235 2.148 . S
Co231 N241 2.128 . S
Co231 N251 2.194 . S
Co231 O256 2.351 . S
Co231 O257 2.155 . S
Co231 O258 2.096 . S
C232 N235 1.301 . S
C232 N236 1.328 . S
C232 H237 0.930 . S
C233 C234 1.333 . S
C233 N235 1.317 . S
C233 H238 0.930 . S
C234 C233 1.333 . S
C234 N236 1.350 . S
C234 H260 0.931 . S
N235 Co231 2.148 . S
N235 C232 1.301 . S
N235 C233 1.317 . S
N236 C232 1.328 . S
N236 C234 1.350 . S
H237 C232 0.930 . S
H238 C233 0.930 . S
C239 O240 1.224 . S
C239 O258 1.247 . S
O240 C239 1.224 . S
N241 Co231 2.128 . S
N241 C242 1.355 . S
N241 C244 1.311 . S
C242 N241 1.355 . S
C242 C243 1.363 . S
C242 H254 0.929 . S
C243 C242 1.363 . S
C243 N245 1.375 . S
C243 H261 0.931 . S
C244 N241 1.311 . S
C244 N245 1.347 . S
C244 H255 0.929 . S
N245 C243 1.375 . S
N245 C244 1.347 . S
C246 C249 1.365 . S
C246 N251 1.328 1_655 S
C246 H252 0.929 . S
C247 C248 1.362 . S
C247 C250 1.378 1_655 S
C247 H262 0.929 . S
C248 C247 1.362 . S
C248 C249 1.366 . S
C249 C246 1.365 . S
C249 C248 1.366 . S
C249 H263 0.930 . S
C250 C247 1.378 1_455 S
C250 N251 1.315 . S
C250 H253 0.930 . S
N251 Co231 2.194 . S
N251 C246 1.328 1_455 S
N251 C250 1.315 . S
H252 C246 0.929 . S
H253 C250 0.930 . S
H254 C242 0.929 . S
H255 C244 0.929 . S
O256 Co231 2.351 . S
O256 C259 1.244 . S
O257 Co231 2.155 . S
O257 C259 1.240 . S
O258 Co231 2.096 . S
O258 C239 1.247 . S
C259 O256 1.244 . S
C259 O257 1.240 . S
H260 C234 0.931 . S
H261 C243 0.931 . S
H262 C247 0.929 . S
H263 C249 0.930 . S
Co264 N268 2.148 . S
Co264 N274 2.128 . S
Co264 N284 2.194 . S
Co264 O289 2.351 . S
Co264 O290 2.155 . S
Co264 O291 2.096 . S
C265 N268 1.301 . S
C265 N269 1.328 . S
C265 H270 0.930 . S
C266 C267 1.333 . S
C266 N268 1.317 . S
C266 H271 0.930 . S
C267 C266 1.333 . S
C267 N269 1.350 . S
C267 H293 0.931 . S
N268 Co264 2.148 . S
N268 C265 1.301 . S
N268 C266 1.317 . S
N269 C265 1.328 . S
N269 C267 1.350 . S
H270 C265 0.930 . S
H271 C266 0.930 . S
C272 O273 1.224 . S
C272 O291 1.247 . S
O273 C272 1.224 . S
N274 Co264 2.128 . S
N274 C275 1.355 . S
N274 C277 1.311 . S
C275 N274 1.355 . S
C275 C276 1.363 . S
C275 H287 0.929 . S
C276 C275 1.363 . S
C276 N278 1.375 . S
C276 H294 0.931 . S
C277 N274 1.311 . S
C277 N278 1.347 . S
C277 H288 0.929 . S
N278 C276 1.375 . S
N278 C277 1.347 . S
C279 C282 1.365 . S
C279 N284 1.328 . S
C279 H285 0.929 . S
C280 C281 1.362 . S
C280 C283 1.378 . S
C280 H295 0.929 . S
C281 C280 1.362 . S
C281 C282 1.366 . S
C282 C279 1.365 . S
C282 C281 1.366 . S
C282 H296 0.930 . S
C283 C280 1.378 . S
C283 N284 1.315 . S
C283 H286 0.930 . S
N284 Co264 2.194 . S
N284 C279 1.328 . S
N284 C283 1.315 . S
H285 C279 0.929 . S
H286 C283 0.930 . S
H287 C275 0.929 . S
H288 C277 0.929 . S
O289 Co264 2.351 . S
O289 C292 1.244 . S
O290 Co264 2.155 . S
O290 C292 1.240 . S
O291 Co264 2.096 . S
O291 C272 1.247 . S
C292 O289 1.244 . S
C292 O290 1.240 . S
H293 C267 0.931 . S
H294 C276 0.931 . S
H295 C280 0.929 . S
H296 C282 0.930 . S
Co297 N301 2.148 . S
Co297 N307 2.128 . S
Co297 N317 2.194 . S
Co297 O322 2.351 . S
Co297 O323 2.155 . S
Co297 O324 2.096 1_655 S
C298 N301 1.301 . S
C298 N302 1.328 . S
C298 H303 0.930 . S
C299 C300 1.333 . S
C299 N301 1.317 . S
C299 H304 0.930 1_655 S
C300 C299 1.333 . S
C300 N302 1.350 . S
C300 H326 0.931 . S
N301 Co297 2.148 . S
N301 C298 1.301 . S
N301 C299 1.317 . S
N302 C298 1.328 . S
N302 C300 1.350 . S
H303 C298 0.930 . S
H304 C299 0.930 1_455 S
C305 O306 1.224 . S
C305 O324 1.247 . S
O306 C305 1.224 . S
N307 Co297 2.128 . S
N307 C308 1.355 . S
N307 C310 1.311 . S
C308 N307 1.355 . S
C308 C309 1.363 . S
C308 H320 0.929 . S
C309 C308 1.363 . S
C309 N311 1.375 . S
C309 H327 0.931 . S
C310 N307 1.311 . S
C310 N311 1.347 . S
C310 H321 0.929 1_655 S
N311 C309 1.375 . S
N311 C310 1.347 . S
C312 C315 1.365 . S
C312 N317 1.328 . S
C312 H318 0.929 . S
C313 C314 1.362 1_455 S
C313 C316 1.377 . S
C313 H328 0.929 . S
C314 C313 1.362 1_655 S
C314 C315 1.366 . S
C315 C312 1.365 . S
C315 C314 1.366 . S
C315 H329 0.930 . S
C316 C313 1.377 . S
C316 N317 1.316 1_455 S
C316 H319 0.929 . S
N317 Co297 2.194 . S
N317 C312 1.328 . S
N317 C316 1.316 1_655 S
H318 C312 0.929 . S
H319 C316 0.929 . S
H320 C308 0.929 . S
H321 C310 0.929 1_455 S
O322 Co297 2.351 . S
O322 C325 1.244 . S
O323 Co297 2.155 . S
O323 C325 1.240 . S
O324 Co297 2.096 1_455 S
O324 C305 1.247 . S
C325 O322 1.244 . S
C325 O323 1.240 . S
H326 C300 0.931 . S
H327 C309 0.931 . S
H328 C313 0.929 . S
H329 C315 0.930 . S
Co330 N334 2.148 . S
Co330 N340 2.128 . S
Co330 N350 2.194 . S
Co330 O355 2.351 1_455 S
Co330 O356 2.155 1_455 S
Co330 O357 2.096 . S
C331 N334 1.301 1_655 S
C331 N335 1.328 1_655 S
C331 H336 0.930 . S
C332 C333 1.333 . S
C332 N334 1.317 . S
C332 H337 0.930 . S
C333 C332 1.333 . S
C333 N335 1.350 . S
C333 H359 0.931 . S
N334 Co330 2.148 . S
N334 C331 1.301 1_455 S
N334 C332 1.317 . S
N335 C331 1.328 1_455 S
N335 C333 1.350 . S
H336 C331 0.930 . S
H337 C332 0.930 . S
C338 O339 1.224 . S
C338 O357 1.247 . S
O339 C338 1.224 . S
N340 Co330 2.128 . S
N340 C341 1.355 . S
N340 C343 1.311 . S
C341 N340 1.355 . S
C341 C342 1.363 . S
C341 H353 0.929 1_455 S
C342 C341 1.363 . S
C342 N344 1.375 . S
C342 H360 0.931 . S
C343 N340 1.311 . S
C343 N344 1.347 . S
C343 H354 0.929 . S
N344 C342 1.375 . S
N344 C343 1.347 . S
C345 C348 1.365 . S
C345 N350 1.328 1_655 S
C345 H351 0.929 . S
C346 C347 1.362 . S
C346 C349 1.378 . S
C346 H361 0.929 . S
C347 C346 1.362 . S
C347 C348 1.366 1_455 S
C348 C345 1.365 . S
C348 C347 1.366 1_655 S
C348 H362 0.930 . S
C349 C346 1.378 . S
C349 N350 1.315 . S
C349 H352 0.930 . S
N350 Co330 2.194 . S
N350 C345 1.328 1_455 S
N350 C349 1.315 . S
H351 C345 0.929 . S
H352 C349 0.930 . S
H353 C341 0.929 1_655 S
H354 C343 0.929 . S
O355 Co330 2.351 1_655 S
O355 C358 1.244 . S
O356 Co330 2.155 1_655 S
O356 C358 1.240 . S
O357 Co330 2.096 . S
O357 C338 1.247 . S
C358 O355 1.244 . S
C358 O356 1.240 . S
H359 C333 0.931 . S
H360 C342 0.931 . S
H361 C346 0.929 . S
H362 C348 0.930 . S
Co363 N367 2.148 . S
Co363 N373 2.128 . S
Co363 N383 2.194 . S
Co363 O388 2.351 . S
Co363 O389 2.155 . S
Co363 O390 2.096 . S
C364 N367 1.301 . S
C364 N368 1.328 . S
C364 H369 0.930 . S
C365 C366 1.333 . S
C365 N367 1.317 . S
C365 H370 0.930 . S
C366 C365 1.333 . S
C366 N368 1.350 . S
C366 H392 0.931 . S
N367 Co363 2.148 . S
N367 C364 1.301 . S
N367 C365 1.317 . S
N368 C364 1.328 . S
N368 C366 1.350 . S
H369 C364 0.930 . S
H370 C365 0.930 . S
C371 O372 1.224 . S
C371 O390 1.247 . S
O372 C371 1.224 . S
N373 Co363 2.128 . S
N373 C374 1.355 . S
N373 C376 1.311 . S
C374 N373 1.355 . S
C374 C375 1.363 . S
C374 H386 0.929 . S
C375 C374 1.363 . S
C375 N377 1.375 . S
C375 H393 0.931 . S
C376 N373 1.311 . S
C376 N377 1.347 . S
C376 H387 0.929 . S
N377 C375 1.375 . S
N377 C376 1.347 . S
C378 C381 1.365 . S
C378 N383 1.328 . S
C378 H384 0.929 . S
C379 C380 1.362 . S
C379 C382 1.378 . S
C379 H394 0.929 . S
C380 C379 1.362 . S
C380 C381 1.366 . S
C381 C378 1.365 . S
C381 C380 1.366 . S
C381 H395 0.930 . S
C382 C379 1.378 . S
C382 N383 1.315 . S
C382 H385 0.930 . S
N383 Co363 2.194 . S
N383 C378 1.328 . S
N383 C382 1.315 . S
H384 C378 0.929 . S
H385 C382 0.930 . S
H386 C374 0.929 . S
H387 C376 0.929 . S
O388 Co363 2.351 . S
O388 C391 1.244 . S
O389 Co363 2.155 . S
O389 C391 1.240 . S
O390 Co363 2.096 . S
O390 C371 1.247 . S
C391 O388 1.244 . S
C391 O389 1.240 . S
H392 C366 0.931 . S
H393 C375 0.931 . S
H394 C379 0.929 . S
H395 C381 0.930 . S
Co396 N400 2.148 . S
Co396 N406 2.128 . S
Co396 N416 2.194 . S
Co396 O421 2.351 . S
Co396 O422 2.155 . S
Co396 O423 2.096 . S
C397 N400 1.301 . S
C397 N401 1.328 . S
C397 H402 0.930 . S
C398 C399 1.333 . S
C398 N400 1.317 . S
C398 H403 0.930 . S
C399 C398 1.333 . S
C399 N401 1.350 . S
C399 H425 0.931 . S
N400 Co396 2.148 . S
N400 C397 1.301 . S
N400 C398 1.317 . S
N401 C397 1.328 . S
N401 C399 1.350 . S
H402 C397 0.930 . S
H403 C398 0.930 . S
C404 O405 1.224 . S
C404 O423 1.247 . S
O405 C404 1.224 . S
N406 Co396 2.128 . S
N406 C407 1.355 . S
N406 C409 1.311 . S
C407 N406 1.355 . S
C407 C408 1.363 . S
C407 H419 0.929 . S
C408 C407 1.363 . S
C408 N410 1.375 . S
C408 H426 0.931 . S
C409 N406 1.311 . S
C409 N410 1.347 . S
C409 H420 0.929 . S
N410 C408 1.375 . S
N410 C409 1.347 . S
C411 C414 1.365 . S
C411 N416 1.328 . S
C411 H417 0.929 . S
C412 C413 1.362 . S
C412 C415 1.378 . S
C412 H427 0.929 . S
C413 C412 1.362 . S
C413 C414 1.366 . S
C414 C411 1.365 . S
C414 C413 1.366 . S
C414 H428 0.930 . S
C415 C412 1.378 . S
C415 N416 1.315 . S
C415 H418 0.930 . S
N416 Co396 2.194 . S
N416 C411 1.328 . S
N416 C415 1.315 . S
H417 C411 0.929 . S
H418 C415 0.930 . S
H419 C407 0.929 . S
H420 C409 0.929 . S
O421 Co396 2.351 . S
O421 C424 1.244 . S
O422 Co396 2.155 . S
O422 C424 1.240 . S
O423 Co396 2.096 . S
O423 C404 1.247 . S
C424 O421 1.244 . S
C424 O422 1.240 . S
H425 C399 0.931 . S
H426 C408 0.931 . S
H427 C412 0.929 . S
H428 C414 0.930 . S
Co429 N433 2.148 . S
Co429 N439 2.128 . S
Co429 N449 2.194 . S
Co429 O454 2.351 . S
Co429 O455 2.155 . S
Co429 O456 2.096 . S
C430 N433 1.301 . S
C430 N434 1.328 . S
C430 H435 0.930 . S
C431 C432 1.333 . S
C431 N433 1.317 . S
C431 H436 0.930 . S
C432 C431 1.333 . S
C432 N434 1.350 . S
C432 H458 0.931 . S
N433 Co429 2.148 . S
N433 C430 1.301 . S
N433 C431 1.317 . S
N434 C430 1.328 . S
N434 C432 1.350 . S
H435 C430 0.930 . S
H436 C431 0.930 . S
C437 O438 1.224 . S
C437 O456 1.247 . S
O438 C437 1.224 . S
N439 Co429 2.128 . S
N439 C440 1.355 . S
N439 C442 1.311 . S
C440 N439 1.355 . S
C440 C441 1.363 . S
C440 H452 0.929 . S
C441 C440 1.363 . S
C441 N443 1.375 . S
C441 H459 0.931 . S
C442 N439 1.311 . S
C442 N443 1.347 . S
C442 H453 0.929 . S
N443 C441 1.375 . S
N443 C442 1.347 . S
C444 C447 1.365 . S
C444 N449 1.328 1_655 S
C444 H450 0.929 . S
C445 C446 1.362 . S
C445 C448 1.378 1_655 S
C445 H460 0.929 . S
C446 C445 1.362 . S
C446 C447 1.366 . S
C447 C444 1.365 . S
C447 C446 1.366 . S
C447 H461 0.930 . S
C448 C445 1.378 1_455 S
C448 N449 1.315 . S
C448 H451 0.930 . S
N449 Co429 2.194 . S
N449 C444 1.328 1_455 S
N449 C448 1.315 . S
H450 C444 0.929 . S
H451 C448 0.930 . S
H452 C440 0.929 . S
H453 C442 0.929 . S
O454 Co429 2.351 . S
O454 C457 1.244 . S
O455 Co429 2.155 . S
O455 C457 1.240 . S
O456 Co429 2.096 . S
O456 C437 1.247 . S
C457 O454 1.244 . S
C457 O455 1.240 . S
H458 C432 0.931 . S
H459 C441 0.931 . S
H460 C445 0.929 . S
H461 C447 0.930 . S
Co462 N466 2.148 . S
Co462 N472 2.128 . S
Co462 N482 2.194 . S
Co462 O487 2.351 . S
Co462 O488 2.155 . S
Co462 O489 2.096 . S
C463 N466 1.301 . S
C463 N467 1.328 . S
C463 H468 0.930 . S
C464 C465 1.333 . S
C464 N466 1.317 . S
C464 H469 0.930 . S
C465 C464 1.333 . S
C465 N467 1.350 . S
C465 H491 0.931 . S
N466 Co462 2.148 . S
N466 C463 1.301 . S
N466 C464 1.317 . S
N467 C463 1.328 . S
N467 C465 1.350 . S
H468 C463 0.930 . S
H469 C464 0.930 . S
C470 O471 1.224 . S
C470 O489 1.247 . S
O471 C470 1.224 . S
N472 Co462 2.128 . S
N472 C473 1.355 . S
N472 C475 1.311 . S
C473 N472 1.355 . S
C473 C474 1.363 . S
C473 H485 0.929 . S
C474 C473 1.363 . S
C474 N476 1.375 . S
C474 H492 0.931 . S
C475 N472 1.311 . S
C475 N476 1.347 . S
C475 H486 0.929 . S
N476 C474 1.375 . S
N476 C475 1.347 . S
C477 C480 1.365 . S
C477 N482 1.328 1_455 S
C477 H483 0.929 . S
C478 C479 1.362 . S
C478 C481 1.378 1_455 S
C478 H493 0.929 . S
C479 C478 1.362 . S
C479 C480 1.366 . S
C480 C477 1.365 . S
C480 C479 1.366 . S
C480 H494 0.930 . S
C481 C478 1.378 1_655 S
C481 N482 1.315 . S
C481 H484 0.930 . S
N482 Co462 2.194 . S
N482 C477 1.328 1_655 S
N482 C481 1.315 . S
H483 C477 0.929 . S
H484 C481 0.930 . S
H485 C473 0.929 . S
H486 C475 0.929 . S
O487 Co462 2.351 . S
O487 C490 1.244 . S
O488 Co462 2.155 . S
O488 C490 1.240 . S
O489 Co462 2.096 . S
O489 C470 1.247 . S
C490 O487 1.244 . S
C490 O488 1.240 . S
H491 C465 0.931 . S
H492 C474 0.931 . S
H493 C478 0.929 . S
H494 C480 0.930 . S
Co495 N499 2.148 . S
Co495 N505 2.128 . S
Co495 N515 2.194 . S
Co495 O520 2.351 . S
Co495 O521 2.155 . S
Co495 O522 2.096 . S
C496 N499 1.301 . S
C496 N500 1.328 . S
C496 H501 0.930 . S
C497 C498 1.333 . S
C497 N499 1.317 . S
C497 H502 0.930 . S
C498 C497 1.333 . S
C498 N500 1.350 . S
C498 H524 0.931 . S
N499 Co495 2.148 . S
N499 C496 1.301 . S
N499 C497 1.317 . S
N500 C496 1.328 . S
N500 C498 1.350 . S
H501 C496 0.930 . S
H502 C497 0.930 . S
C503 O504 1.224 . S
C503 O522 1.247 . S
O504 C503 1.224 . S
N505 Co495 2.128 . S
N505 C506 1.355 . S
N505 C508 1.311 . S
C506 N505 1.355 . S
C506 C507 1.363 . S
C506 H518 0.929 . S
C507 C506 1.363 . S
C507 N509 1.375 . S
C507 H525 0.931 . S
C508 N505 1.311 . S
C508 N509 1.347 . S
C508 H519 0.929 . S
N509 C507 1.375 . S
N509 C508 1.347 . S
C510 C513 1.365 . S
C510 N515 1.328 . S
C510 H516 0.929 . S
C511 C512 1.362 . S
C511 C514 1.378 . S
C511 H526 0.929 . S
C512 C511 1.362 . S
C512 C513 1.366 . S
C513 C510 1.365 . S
C513 C512 1.366 . S
C513 H527 0.930 . S
C514 C511 1.378 . S
C514 N515 1.315 . S
C514 H517 0.930 . S
N515 Co495 2.194 . S
N515 C510 1.328 . S
N515 C514 1.315 . S
H516 C510 0.929 . S
H517 C514 0.930 . S
H518 C506 0.929 . S
H519 C508 0.929 . S
O520 Co495 2.351 . S
O520 C523 1.244 . S
O521 Co495 2.155 . S
O521 C523 1.240 . S
O522 Co495 2.096 . S
O522 C503 1.247 . S
C523 O520 1.244 . S
C523 O521 1.240 . S
H524 C498 0.931 . S
H525 C507 0.931 . S
H526 C511 0.929 . S
H527 C513 0.930 . S
C528 C529 1.400 . S
C528 H532 0.948 1_556 S
C528 C537 1.379 1_556 S
C529 C528 1.400 . S
C529 C531 1.387 . S
H530 C537 0.950 . S
C531 C529 1.387 . S
C531 C533 1.390 . S
C531 H535 0.950 . S
H532 C528 0.948 1_554 S
C533 C531 1.390 . S
C533 C534 1.387 1_556 S
C533 H536 0.950 . S
C534 C533 1.387 1_554 S
C534 C537 1.387 . S
H535 C531 0.950 . S
H536 C533 0.950 . S
C537 C528 1.379 1_554 S
C537 H530 0.950 . S
C537 C534 1.387 . S
C538 C539 1.387 . S
C538 H542 0.950 . S
C538 C547 1.390 1_556 S
C539 C538 1.387 . S
C539 C541 1.387 . S
H540 C547 0.950 . S
C541 C539 1.387 . S
C541 C543 1.390 1_556 S
C541 H545 0.950 . S
H542 C538 0.950 . S
C543 C541 1.390 1_554 S
C543 C544 1.387 . S
C543 H546 0.950 . S
C544 C543 1.387 . S
C544 C547 1.387 . S
H545 C541 0.950 . S
H546 C543 0.950 . S
C547 C538 1.390 1_554 S
C547 H540 0.950 . S
C547 C544 1.387 . S
C548 C549 1.387 . S
C548 H552 0.950 . S
C548 C557 1.390 . S
C549 C548 1.387 . S
C549 C551 1.387 . S
H550 C557 0.950 . S
C551 C549 1.387 . S
C551 C553 1.390 . S
C551 H555 0.950 . S
H552 C548 0.950 . S
C553 C551 1.390 . S
C553 C554 1.387 . S
C553 H556 0.950 . S
C554 C553 1.387 . S
C554 C557 1.387 . S
H555 C551 0.950 . S
H556 C553 0.950 . S
C557 C548 1.390 . S
C557 H550 0.950 . S
C557 C554 1.387 . S
C558 C559 1.387 . S
C558 H562 0.950 . S
C558 C567 1.390 . S
C559 C558 1.387 . S
C559 C561 1.387 . S
H560 C567 0.950 . S
C561 C559 1.387 . S
C561 C563 1.390 . S
C561 H565 0.950 . S
H562 C558 0.950 . S
C563 C561 1.390 . S
C563 C564 1.387 . S
C563 H566 0.950 . S
C564 C563 1.387 . S
C564 C567 1.387 . S
H565 C561 0.950 . S
H566 C563 0.950 . S
C567 C558 1.390 . S
C567 H560 0.950 . S
C567 C564 1.387 . S
C568 C569 1.387 . S
C568 H572 0.950 . S
C568 C577 1.390 . S
C569 C568 1.387 . S
C569 C571 1.387 . S
H570 C577 0.950 1_554 S
C571 C569 1.387 . S
C571 C573 1.390 . S
C571 H575 0.950 . S
H572 C568 0.950 . S
C573 C571 1.390 . S
C573 C574 1.386 1_556 S
C573 H576 0.950 . S
C574 C573 1.386 1_554 S
C574 C577 1.387 1_554 S
H575 C571 0.950 . S
H576 C573 0.950 . S
C577 C568 1.390 . S
C577 H570 0.950 1_556 S
C577 C574 1.387 1_556 S
C578 C579 1.387 . S
C578 H582 0.950 . S
C578 C587 1.390 . S
C579 C578 1.387 . S
C579 C581 1.387 . S
H580 C587 0.950 1_554 S
C581 C579 1.387 . S
C581 C583 1.390 . S
C581 H585 0.950 . S
H582 C578 0.950 . S
C583 C581 1.390 . S
C583 C584 1.376 1_556 S
C583 H586 0.950 . S
C584 C583 1.376 1_554 S
C584 C587 1.386 1_554 S
H585 C581 0.950 . S
H586 C583 0.950 . S
C587 C578 1.390 . S
C587 H580 0.950 1_556 S
C587 C584 1.386 1_556 S
C588 C589 1.387 . S
C588 H592 0.950 . S
C588 C597 1.390 . S
C589 C588 1.387 . S
C589 C591 1.387 . S
H590 C597 0.950 . S
C591 C589 1.387 . S
C591 C593 1.390 . S
C591 H595 0.950 . S
H592 C588 0.950 . S
C593 C591 1.390 . S
C593 C594 1.387 . S
C593 H596 0.950 . S
C594 C593 1.387 . S
C594 C597 1.387 . S
H595 C591 0.950 . S
H596 C593 0.950 . S
C597 C588 1.390 . S
C597 H590 0.950 . S
C597 C594 1.387 . S
C598 C599 1.387 . S
C598 H602 0.950 . S
C598 C607 1.390 . S
C599 C598 1.387 . S
C599 C601 1.387 . S
H600 C607 0.950 . S
C601 C599 1.387 . S
C601 C603 1.390 . S
C601 H605 0.950 . S
H602 C598 0.950 . S
C603 C601 1.390 . S
C603 C604 1.387 . S
C603 H606 0.950 . S
C604 C603 1.387 . S
C604 C607 1.387 . S
H605 C601 0.950 . S
H606 C603 0.950 . S
C607 C598 1.390 . S
C607 H600 0.950 . S
C607 C604 1.387 . S
C608 C609 1.387 . S
C608 H612 0.950 . S
C608 C617 1.390 1_554 S
C609 C608 1.387 . S
C609 C611 1.387 . S
H610 C617 0.950 . S
C611 C609 1.387 . S
C611 C613 1.390 1_554 S
C611 H615 0.950 . S
H612 C608 0.950 . S
C613 C611 1.390 1_556 S
C613 C614 1.387 . S
C613 H616 0.950 . S
C614 C613 1.387 . S
C614 C617 1.387 . S
H615 C611 0.950 . S
H616 C613 0.950 . S
C617 C608 1.390 1_556 S
C617 H610 0.950 . S
C617 C614 1.387 . S
C618 C619 1.387 1_556 S
C618 H622 0.950 . S
C618 C627 1.390 . S
C619 C618 1.387 1_554 S
C619 C621 1.387 . S
H620 C627 0.950 . S
C621 C619 1.387 . S
C621 C623 1.390 . S
C621 H625 0.950 . S
H622 C618 0.950 . S
C623 C621 1.390 . S
C623 C624 1.387 1_554 S
C623 H626 0.950 . S
C624 C623 1.387 1_556 S
C624 C627 1.387 . S
H625 C621 0.950 . S
H626 C623 0.950 . S
C627 C618 1.390 . S
C627 H620 0.950 . S
C627 C624 1.387 . S
C628 C629 1.387 . S
C628 H632 0.950 . S
C628 C637 1.390 . S
C629 C628 1.387 . S
C629 C631 1.387 . S
H630 C637 0.950 . S
C631 C629 1.387 . S
C631 C633 1.390 . S
C631 H635 0.950 . S
H632 C628 0.950 . S
C633 C631 1.390 . S
C633 C634 1.387 . S
C633 H636 0.950 . S
C634 C633 1.387 . S
C634 C637 1.387 . S
H635 C631 0.950 . S
H636 C633 0.950 . S
C637 C628 1.390 . S
C637 H630 0.950 . S
C637 C634 1.387 . S
C638 C639 1.387 . S
C638 H642 0.950 . S
C638 C647 1.390 . S
C639 C638 1.387 . S
C639 C641 1.387 . S
H640 C647 0.950 . S
C641 C639 1.387 . S
C641 C643 1.390 . S
C641 H645 0.950 . S
H642 C638 0.950 . S
C643 C641 1.390 . S
C643 C644 1.387 . S
C643 H646 0.950 . S
C644 C643 1.387 . S
C644 C647 1.387 . S
H645 C641 0.950 . S
H646 C643 0.950 . S
C647 C638 1.390 . S
C647 H640 0.950 . S
C647 C644 1.387 . S
C648 C649 1.387 . S
C648 H652 0.950 . S
C648 C657 1.390 . S
C649 C648 1.387 . S
C649 C651 1.387 . S
H650 C657 0.950 . S
C651 C649 1.387 . S
C651 C653 1.390 . S
C651 H655 0.950 . S
H652 C648 0.950 . S
C653 C651 1.390 . S
C653 C654 1.387 . S
C653 H656 0.950 1_556 S
C654 C653 1.387 . S
C654 C657 1.386 . S
H655 C651 0.950 . S
H656 C653 0.950 1_554 S
C657 C648 1.390 . S
C657 H650 0.950 . S
C657 C654 1.386 . S
C658 C659 1.387 . S
C658 H662 0.950 . S
C658 C667 1.390 . S
C659 C658 1.387 . S
C659 C661 1.387 . S
H660 C667 0.950 . S
C661 C659 1.387 . S
C661 C663 1.390 . S
C661 H665 0.950 . S
H662 C658 0.950 . S
C663 C661 1.390 . S
C663 C664 1.386 1_556 S
C663 H666 0.950 1_556 S
C664 C663 1.386 1_554 S
C664 C667 1.381 1_554 S
H665 C661 0.950 . S
H666 C663 0.950 1_554 S
C667 C658 1.390 . S
C667 H660 0.950 . S
C667 C664 1.381 1_556 S
C668 C669 1.387 . S
C668 H672 0.950 . S
C668 C677 1.390 . S
C669 C668 1.387 . S
C669 C671 1.387 . S
H670 C677 0.950 . S
C671 C669 1.387 . S
C671 C673 1.390 . S
C671 H675 0.950 . S
H672 C668 0.950 . S
C673 C671 1.390 . S
C673 C674 1.387 . S
C673 H676 0.950 . S
C674 C673 1.387 . S
C674 C677 1.387 . S
H675 C671 0.950 . S
H676 C673 0.950 . S
C677 C668 1.390 . S
C677 H670 0.950 . S
C677 C674 1.387 . S
C678 C679 1.387 . S
C678 H682 0.950 . S
C678 C687 1.390 . S
C679 C678 1.387 . S
C679 C681 1.387 . S
H680 C687 0.950 . S
C681 C679 1.387 . S
C681 C683 1.390 . S
C681 H685 0.950 . S
H682 C678 0.950 . S
C683 C681 1.390 . S
C683 C684 1.387 . S
C683 H686 0.950 . S
C684 C683 1.387 . S
C684 C687 1.387 . S
H685 C681 0.950 . S
H686 C683 0.950 . S
C687 C678 1.390 . S
C687 H680 0.950 . S
C687 C684 1.387 . S
C688 C689 1.387 . S
C688 H692 0.950 . S
C688 C697 1.390 1_545 S
C689 C688 1.387 . S
C689 C691 1.387 . S
H690 C697 0.950 . S
C691 C689 1.387 . S
C691 C693 1.390 1_545 S
C691 H695 0.950 . S
H692 C688 0.950 . S
C693 C691 1.390 1_565 S
C693 C694 1.387 . S
C693 H696 0.950 . S
C694 C693 1.387 . S
C694 C697 1.387 . S
H695 C691 0.950 . S
H696 C693 0.950 . S
C697 C688 1.390 1_565 S
C697 H690 0.950 . S
C697 C694 1.387 . S
C698 C699 1.387 . S
C698 H702 0.950 . S
C698 C707 1.390 1_565 S
C699 C698 1.387 . S
C699 C701 1.387 . S
H700 C707 0.950 . S
C701 C699 1.387 . S
C701 C703 1.390 1_565 S
C701 H705 0.950 . S
H702 C698 0.950 . S
C703 C701 1.390 1_545 S
C703 C704 1.387 . S
C703 H706 0.950 . S
C704 C703 1.387 . S
C704 C707 1.387 . S
H705 C701 0.950 . S
H706 C703 0.950 . S
C707 C698 1.390 1_545 S
C707 H700 0.950 . S
C707 C704 1.387 . S
C708 C709 1.387 . S
C708 H712 0.950 . S
C708 C717 1.390 1_545 S
C709 C708 1.387 . S
C709 C711 1.387 . S
H710 C717 0.950 . S
C711 C709 1.387 . S
C711 C713 1.390 1_545 S
C711 H715 0.950 . S
H712 C708 0.950 . S
C713 C711 1.390 1_565 S
C713 C714 1.387 . S
C713 H716 0.950 . S
C714 C713 1.387 . S
C714 C717 1.387 . S
H715 C711 0.950 . S
H716 C713 0.950 . S
C717 C708 1.390 1_565 S
C717 H710 0.950 . S
C717 C714 1.387 . S
C718 C719 1.387 . S
C718 H722 0.950 . S
C718 C727 1.390 1_565 S
C719 C718 1.387 . S
C719 C721 1.387 . S
H720 C727 0.950 . S
C721 C719 1.387 . S
C721 C723 1.390 1_565 S
C721 H725 0.950 . S
H722 C718 0.950 . S
C723 C721 1.390 1_545 S
C723 C724 1.387 . S
C723 H726 0.950 . S
C724 C723 1.387 . S
C724 C727 1.387 . S
H725 C721 0.950 . S
H726 C723 0.950 . S
C727 C718 1.390 1_545 S
C727 H720 0.950 . S
C727 C724 1.387 . S
C728 C729 1.387 . S
C728 H732 0.950 . S
C728 C737 1.390 . S
C729 C728 1.387 . S
C729 C731 1.387 . S
H730 C737 0.950 . S
C731 C729 1.387 . S
C731 C733 1.390 . S
C731 H735 0.950 . S
H732 C728 0.950 . S
C733 C731 1.390 . S
C733 C734 1.387 . S
C733 H736 0.950 . S
C734 C733 1.387 . S
C734 C737 1.387 . S
H735 C731 0.950 . S
H736 C733 0.950 . S
C737 C728 1.390 . S
C737 H730 0.950 . S
C737 C734 1.387 . S
C738 C739 1.387 . S
C738 H742 0.950 . S
C738 C747 1.390 . S
C739 C738 1.387 . S
C739 C741 1.387 . S
H740 C747 0.950 . S
C741 C739 1.387 . S
C741 C743 1.390 . S
C741 H745 0.950 . S
H742 C738 0.950 . S
C743 C741 1.390 . S
C743 C744 1.387 . S
C743 H746 0.950 . S
C744 C743 1.387 . S
C744 C747 1.387 . S
H745 C741 0.950 . S
H746 C743 0.950 . S
C747 C738 1.390 . S
C747 H740 0.950 . S
C747 C744 1.387 . S
C748 C749 1.387 . S
C748 H752 0.950 . S
C748 C757 1.390 . S
C749 C748 1.387 . S
C749 C751 1.387 . S
H750 C757 0.950 . S
C751 C749 1.387 . S
C751 C753 1.390 . S
C751 H755 0.950 . S
H752 C748 0.950 . S
C753 C751 1.390 . S
C753 C754 1.387 . S
C753 H756 0.950 . S
C754 C753 1.387 . S
C754 C757 1.387 . S
H755 C751 0.950 . S
H756 C753 0.950 . S
C757 C748 1.390 . S
C757 H750 0.950 . S
C757 C754 1.387 . S
C758 C759 1.387 . S
C758 H762 0.950 . S
C758 C767 1.390 . S
C759 C758 1.387 . S
C759 C761 1.387 . S
H760 C767 0.950 . S
C761 C759 1.387 . S
C761 C763 1.390 . S
C761 H765 0.950 . S
H762 C758 0.950 . S
C763 C761 1.390 . S
C763 C764 1.387 . S
C763 H766 0.950 . S
C764 C763 1.387 . S
C764 C767 1.387 . S
H765 C761 0.950 . S
H766 C763 0.950 . S
C767 C758 1.390 . S
C767 H760 0.950 . S
C767 C764 1.387 . S
C768 C769 1.387 . S
C768 H772 0.966 . S
C768 C777 1.390 1_455 S
C769 C768 1.387 . S
C769 C771 1.387 . S
H770 C777 0.955 . S
C771 C769 1.387 . S
C771 C773 1.390 1_455 S
C771 H775 0.950 . S
H772 C768 0.966 . S
C773 C771 1.390 1_655 S
C773 C774 1.387 . S
C773 H776 0.950 . S
C774 C773 1.387 . S
C774 C777 1.387 . S
H775 C771 0.950 . S
H776 C773 0.950 . S
C777 C768 1.390 1_655 S
C777 H770 0.955 . S
C777 C774 1.387 . S
C778 C779 1.387 . S
C778 H782 0.969 . S
C778 C787 1.390 . S
C779 C778 1.387 . S
C779 C781 1.387 . S
H780 C787 0.959 . S
C781 C779 1.387 . S
C781 C783 1.390 . S
C781 H785 0.950 . S
H782 C778 0.969 . S
C783 C781 1.390 . S
C783 C784 1.387 . S
C783 H786 0.950 . S
C784 C783 1.387 . S
C784 C787 1.387 . S
H785 C781 0.950 . S
H786 C783 0.950 . S
C787 C778 1.390 . S
C787 H780 0.959 . S
C787 C784 1.387 . S
C788 C789 1.387 . S
C788 H792 0.950 . S
C788 C797 1.390 . S
C789 C788 1.387 . S
C789 C791 1.387 . S
H790 C797 0.950 . S
C791 C789 1.387 . S
C791 C793 1.390 . S
C791 H795 0.950 . S
H792 C788 0.950 . S
C793 C791 1.390 . S
C793 C794 1.387 . S
C793 H796 0.950 . S
C794 C793 1.387 . S
C794 C797 1.387 . S
H795 C791 0.950 . S
H796 C793 0.950 . S
C797 C788 1.390 . S
C797 H790 0.950 . S
C797 C794 1.387 . S
C798 C799 1.388 . S
C798 H802 0.950 . S
C798 C807 1.389 1_655 S
C799 C798 1.388 . S
C799 C801 1.387 . S
H800 C807 0.950 . S
C801 C799 1.387 . S
C801 C803 1.390 1_655 S
C801 H805 0.950 . S
H802 C798 0.950 . S
C803 C801 1.390 1_455 S
C803 C804 1.387 . S
C803 H806 0.950 . S
C804 C803 1.387 . S
C804 C807 1.387 . S
H805 C801 0.950 . S
H806 C803 0.950 . S
C807 C798 1.389 1_455 S
C807 H800 0.950 . S
C807 C804 1.387 . S
C808 C809 1.387 . S
C808 H812 0.950 . S
C808 C817 1.390 1_655 S
C809 C808 1.387 . S
C809 C811 1.387 . S
H810 C817 0.950 . S
C811 C809 1.387 . S
C811 C813 1.390 1_655 S
C811 H815 0.950 . S
H812 C808 0.950 . S
C813 C811 1.390 1_455 S
C813 C814 1.387 . S
C813 H816 0.950 . S
C814 C813 1.387 . S
C814 C817 1.387 . S
H815 C811 0.950 . S
H816 C813 0.950 . S
C817 C808 1.390 1_455 S
C817 H810 0.950 . S
C817 C814 1.387 . S
C818 C819 1.387 . S
C818 H822 0.950 . S
C818 C827 1.390 . S
C819 C818 1.387 . S
C819 C821 1.387 . S
H820 C827 0.950 . S
C821 C819 1.387 . S
C821 C823 1.390 . S
C821 H825 0.950 . S
H822 C818 0.950 . S
C823 C821 1.390 . S
C823 C824 1.387 . S
C823 H826 0.950 . S
C824 C823 1.387 . S
C824 C827 1.387 . S
H825 C821 0.950 . S
H826 C823 0.950 . S
C827 C818 1.390 . S
C827 H820 0.950 . S
C827 C824 1.387 . S
C828 C829 1.387 . S
C828 H832 0.950 . S
C828 C837 1.390 . S
C829 C828 1.387 . S
C829 C831 1.387 . S
H830 C837 0.950 . S
C831 C829 1.387 . S
C831 C833 1.390 . S
C831 H835 0.950 . S
H832 C828 0.950 . S
C833 C831 1.390 . S
C833 C834 1.387 . S
C833 H836 0.950 . S
C834 C833 1.387 . S
C834 C837 1.387 . S
H835 C831 0.950 . S
H836 C833 0.950 . S
C837 C828 1.390 . S
C837 H830 0.950 . S
C837 C834 1.387 . S
C838 C839 1.387 . S
C838 H842 0.950 . S
C838 C847 1.390 1_655 S
C839 C838 1.387 . S
C839 C841 1.387 . S
H840 C847 0.950 . S
C841 C839 1.387 . S
C841 C843 1.390 1_655 S
C841 H845 0.950 . S
H842 C838 0.950 . S
C843 C841 1.390 1_455 S
C843 C844 1.387 . S
C843 H846 0.950 . S
C844 C843 1.387 . S
C844 C847 1.387 . S
H845 C841 0.950 . S
H846 C843 0.950 . S
C847 C838 1.390 1_455 S
C847 H840 0.950 . S
C847 C844 1.387 . S
C848 C849 1.387 . S
C848 H852 0.950 . S
C848 C857 1.390 1_455 S
C849 C848 1.387 . S
C849 C851 1.387 . S
H850 C857 0.950 . S
C851 C849 1.387 . S
C851 C853 1.390 1_455 S
C851 H855 0.950 . S
H852 C848 0.950 . S
C853 C851 1.390 1_655 S
C853 C854 1.387 . S
C853 H856 0.950 . S
C854 C853 1.387 . S
C854 C857 1.387 . S
H855 C851 0.950 . S
H856 C853 0.950 . S
C857 C848 1.390 1_655 S
C857 H850 0.950 . S
C857 C854 1.387 . S
C858 C859 1.387 . S
C858 H862 0.950 . S
C858 C867 1.390 . S
C859 C858 1.387 . S
C859 C861 1.387 . S
H860 C867 0.950 . S
C861 C859 1.387 . S
C861 C863 1.390 . S
C861 H865 0.950 . S
H862 C858 0.950 . S
C863 C861 1.390 . S
C863 C864 1.387 . S
C863 H866 0.950 . S
C864 C863 1.387 . S
C864 C867 1.387 . S
H865 C861 0.950 . S
H866 C863 0.950 . S
C867 C858 1.390 . S
C867 H860 0.950 . S
C867 C864 1.387 . S
C868 C869 1.387 . S
C868 H872 0.950 . S
C868 C877 1.390 1_655 S
C869 C868 1.387 . S
C869 C871 1.387 . S
H870 C877 0.950 . S
C871 C869 1.387 . S
C871 C873 1.390 1_655 S
C871 H875 0.950 . S
H872 C868 0.950 . S
C873 C871 1.390 1_455 S
C873 C874 1.387 . S
C873 H876 0.950 . S
C874 C873 1.387 . S
C874 C877 1.387 . S
H875 C871 0.950 . S
H876 C873 0.950 . S
C877 C868 1.390 1_455 S
C877 H870 0.950 . S
C877 C874 1.387 . S
C878 C879 1.387 . S
C878 H882 0.950 . S
C878 C887 1.390 . S
C879 C878 1.387 . S
C879 C881 1.387 . S
H880 C887 0.950 . S
C881 C879 1.387 . S
C881 C883 1.390 . S
C881 H885 0.950 . S
H882 C878 0.950 . S
C883 C881 1.390 . S
C883 C884 1.387 . S
C883 H886 0.950 . S
C884 C883 1.387 . S
C884 C887 1.387 . S
H885 C881 0.950 . S
H886 C883 0.950 . S
C887 C878 1.390 . S
C887 H880 0.950 . S
C887 C884 1.387 . S
C888 C889 1.387 . S
C888 H892 0.950 . S
C888 C897 1.390 . S
C889 C888 1.387 . S
C889 C891 1.387 . S
H890 C897 0.950 . S
C891 C889 1.387 . S
C891 C893 1.390 . S
C891 H895 0.950 . S
H892 C888 0.950 . S
C893 C891 1.390 . S
C893 C894 1.387 . S
C893 H896 0.950 . S
C894 C893 1.387 . S
C894 C897 1.387 . S
H895 C891 0.950 . S
H896 C893 0.950 . S
C897 C888 1.390 . S
C897 H890 0.950 . S
C897 C894 1.387 . S
C898 C899 1.387 . S
C898 H902 0.950 . S
C898 C907 1.390 1_455 S
C899 C898 1.387 . S
C899 C901 1.387 . S
H900 C907 0.950 . S
C901 C899 1.387 . S
C901 C903 1.390 1_455 S
C901 H905 0.950 . S
H902 C898 0.950 . S
C903 C901 1.390 1_655 S
C903 C904 1.387 . S
C903 H906 0.950 . S
C904 C903 1.387 . S
C904 C907 1.387 . S
H905 C901 0.950 . S
H906 C903 0.950 . S
C907 C898 1.390 1_655 S
C907 H900 0.950 . S
C907 C904 1.387 . S
C908 C909 1.387 . S
C908 H912 0.950 . S
C908 C917 1.390 . S
C909 C908 1.387 . S
C909 C911 1.387 . S
H910 C917 0.950 . S
C911 C909 1.387 . S
C911 C913 1.390 . S
C911 H915 0.950 . S
H912 C908 0.950 . S
C913 C911 1.390 . S
C913 C914 1.387 . S
C913 H916 0.950 . S
C914 C913 1.387 . S
C914 C917 1.387 . S
H915 C911 0.950 . S
H916 C913 0.950 . S
C917 C908 1.390 . S
C917 H910 0.950 . S
C917 C914 1.387 . S
C918 C919 1.387 . S
C918 H922 0.950 . S
C918 C927 1.390 1_455 S
C919 C918 1.387 . S
C919 C921 1.387 . S
H920 C927 0.950 . S
C921 C919 1.387 . S
C921 C923 1.390 1_455 S
C921 H925 0.950 . S
H922 C918 0.950 . S
C923 C921 1.390 1_655 S
C923 C924 1.387 . S
C923 H926 0.950 . S
C924 C923 1.387 . S
C924 C927 1.387 . S
H925 C921 0.950 . S
H926 C923 0.950 . S
C927 C918 1.390 1_655 S
C927 H920 0.950 . S
C927 C924 1.387 . S
C529 C182 1.008 . S
C534 C28 1.017 . S
C539 C149 1.009 . S
C544 C61 1.018 . S
C549 C74 1.037 . S
C554 C248 1.026 . S
C559 C127 1.016 . S
C564 C215 1.010 . S
C569 C140 1.439 . S
C574 C41 1.468 . S
C579 C173 1.443 . S
C584 C8 1.482 . S
C589 C107 1.459 . S
C594 C206 1.432 . S
C599 C239 1.423 . S
C604 C94 1.444 . S
C609 C292 1.014 . S
C614 C446 1.007 . S
C619 C325 1.016 . S
C624 C413 1.008 . S
C629 C338 1.034 . S
C634 C512 1.023 . S
C639 C391 1.016 . S
C644 C479 1.010 . S
C649 C404 1.436 . S
C654 C305 1.467 1_556 S
C659 C437 1.440 . S
C664 C272 1.475 . S
C669 C371 1.458 . S
C674 C470 1.430 . S
C679 C358 1.444 . S
C684 C503 1.423 . S
C689 N5 1.844 . S
C694 N38 1.846 . S
C699 N80 1.865 . S
C704 N104 1.859 . S
C709 N179 1.697 . S
C714 N146 1.697 . S
C719 N245 1.686 . S
C724 N212 1.689 . S
C729 N302 1.845 . S
C734 N269 1.842 . S
C739 N368 1.858 . S
C744 N344 1.864 . S
C749 N410 1.697 . S
C754 N443 1.697 . S
C759 N476 1.689 . S
C764 N509 1.686 . S
C769 N311 1.689 1_455 S
C774 N14 1.687 1_655 S
C779 N47 1.689 . S
C784 N278 1.687 . S
C789 N71 1.693 . S
C794 N377 1.688 . S
C799 N335 1.697 1_655 S
C804 N113 1.691 1_455 S
C809 N137 1.405 . S
C814 N434 1.406 . S
C819 N170 1.406 . S
C824 N401 1.405 . S
C829 N203 1.439 . S
C834 N500 1.437 . S
C839 N467 1.438 . S
C844 N236 1.435 . S
C849 C17 1.533 . S
C854 C116 1.532 . S
C859 C50 1.542 . S
C864 C83 1.530 . S
C869 C160 1.638 . S
C874 C259 1.639 . S
C879 C193 1.638 . S
C884 C226 1.637 . S
C889 C380 1.534 . S
C894 C281 1.534 . S
C899 C347 1.528 . S
C904 C314 1.540 . S
C909 C424 1.638 . S
C914 C523 1.639 . S
C919 C457 1.638 . S
C924 C490 1.637 . S
