# Generated by pormake.
# Topology sml, (6)-cn, num edge types: 1
# Building blocks:
#     Node 0, Type 0, BuildingBlock: LEVNOQ01_clean_sbu_1, # of connection points: 6
#     Node 1, Type 0, BuildingBlock: LEVNOQ01_clean_sbu_1, # of connection points: 6
#     Node 2, Type 0, BuildingBlock: LEVNOQ01_clean_sbu_1, # of connection points: 6
#     Node 3, Type 0, BuildingBlock: LEVNOQ01_clean_sbu_1, # of connection points: 6
#     Node 4, Type 0, BuildingBlock: LEVNOQ01_clean_sbu_1, # of connection points: 6
#     Node 5, Type 0, BuildingBlock: LEVNOQ01_clean_sbu_1, # of connection points: 6
#     Edge 6, Type (0, 0), BuildingBlock: MIFKUJ_clean_linker_0, # of connection points: 2
#     Edge 7, Type (0, 0), BuildingBlock: MIFKUJ_clean_linker_0, # of connection points: 2
#     Edge 8, Type (0, 0), BuildingBlock: MIFKUJ_clean_linker_0, # of connection points: 2
#     Edge 9, Type (0, 0), BuildingBlock: MIFKUJ_clean_linker_0, # of connection points: 2
#     Edge 10, Type (0, 0), BuildingBlock: MIFKUJ_clean_linker_0, # of connection points: 2
#     Edge 11, Type (0, 0), BuildingBlock: MIFKUJ_clean_linker_0, # of connection points: 2
#     Edge 12, Type (0, 0), BuildingBlock: MIFKUJ_clean_linker_0, # of connection points: 2
#     Edge 13, Type (0, 0), BuildingBlock: MIFKUJ_clean_linker_0, # of connection points: 2
#     Edge 14, Type (0, 0), BuildingBlock: MIFKUJ_clean_linker_0, # of connection points: 2
#     Edge 15, Type (0, 0), BuildingBlock: MIFKUJ_clean_linker_0, # of connection points: 2
#     Edge 16, Type (0, 0), BuildingBlock: MIFKUJ_clean_linker_0, # of connection points: 2
#     Edge 17, Type (0, 0), BuildingBlock: MIFKUJ_clean_linker_0, # of connection points: 2
#     Edge 18, Type (0, 0), BuildingBlock: MIFKUJ_clean_linker_0, # of connection points: 2
#     Edge 19, Type (0, 0), BuildingBlock: MIFKUJ_clean_linker_0, # of connection points: 2
#     Edge 20, Type (0, 0), BuildingBlock: MIFKUJ_clean_linker_0, # of connection points: 2
#     Edge 21, Type (0, 0), BuildingBlock: MIFKUJ_clean_linker_0, # of connection points: 2
#     Edge 22, Type (0, 0), BuildingBlock: MIFKUJ_clean_linker_0, # of connection points: 2
#     Edge 23, Type (0, 0), BuildingBlock: MIFKUJ_clean_linker_0, # of connection points: 2
# Relax obj value: 0.144
# Max RMSD: 0.170
# Mean RMSD: 0.170
data_MOF--net-sml--node1-LEVNOQ01_clean_sbu_1--edge1-MIFKUJ_clean_linker_0
_symmetry_space_group_name_H-M    P1
_symmetry_Int_Tables_number       1
_symmetry_cell_setting            triclinic
loop_
_symmetry_equiv_pos_as_xyz
'x, y, z'
_cell_length_a     51.424816
_cell_length_b     51.517743
_cell_length_c     20.03189
_cell_angle_alpha  89.944104
_cell_angle_beta   90.278446
_cell_angle_gamma 120.08129
loop_
_atom_site_label
_atom_site_type_symbol
_atom_site_fract_x
_atom_site_fract_y
_atom_site_fract_z
_atom_type_partial_charge
O0 O 0.1626 0.37262 0.84436 0.0
Mg1 Mg 0.16572 0.35612 0.93858 0.0
O2 O 0.20109 0.41615 0.87434 0.0
Mg3 Mg 0.21257 0.41918 -0.01345 0.0
O4 O 0.16561 0.38062 0.0191 0.0
O5 O 0.12855 0.33402 -0.00473 0.0
O6 O 0.22597 0.42351 0.09998 0.0
O7 O 0.18924 0.44792 0.00109 0.0
Mg8 Mg 0.2537 0.48265 0.01696 0.0
O9 O 0.2596 0.45711 0.94832 0.0
O10 O 0.25595 0.47206 0.11689 0.0
O11 O 0.22286 0.49553 -0.01273 0.0
O12 O 0.29373 0.50513 0.97208 0.0
C13 C 0.22539 0.36169 0.95799 0.0
C14 C 0.18285 0.39902 0.82978 0.0
C15 C 0.13946 0.3576 0.03273 0.0
C16 C 0.24242 0.44546 0.13876 0.0
C17 C 0.19583 0.47506 -0.00685 0.0
C18 C 0.28531 0.48119 0.93705 0.0
O19 O 0.19799 0.34305 0.94653 0.0
O20 O 0.234 0.38899 0.97204 0.0
O21 O 0.77474 0.16885 0.16531 0.0
Mg22 Mg 0.79962 0.16326 0.24253 0.0
O23 O 0.77869 0.2104 0.20878 0.0
Mg24 Mg 0.79075 0.21404 0.32139 0.0
O25 O 0.78052 0.16623 0.32862 0.0
O26 O 0.78048 0.12467 0.30121 0.0
O27 O 0.80172 0.21386 0.43645 0.0
O28 O 0.74123 0.19778 0.34496 0.0
Mg29 Mg 0.7948 0.25673 0.40301 0.0
O30 O 0.80239 0.26391 0.30371 0.0
O31 O 0.83148 0.26105 0.45776 0.0
O32 O 0.74918 0.22698 0.43224 0.0
O33 O 0.80305 0.29764 0.37615 0.0
C34 C 0.85711 0.22251 0.27018 0.0
C35 C 0.7717 0.19178 0.16073 0.0
C36 C 0.77252 0.13878 0.34182 0.0
C37 C 0.82068 0.23421 0.4753 0.0
C38 C 0.73134 0.20535 0.39496 0.0
C39 C 0.8067 0.29051 0.31662 0.0
O40 O 0.84624 0.1963 0.24572 0.0
O41 O 0.84047 0.23115 0.29781 0.0
O42 O 0.62141 0.79461 0.52923 0.0
Mg43 Mg 0.64188 0.81164 0.62305 0.0
O44 O 0.57433 0.78225 0.55355 0.0
Mg45 Mg 0.57284 0.79156 0.6665 0.0
O46 O 0.61153 0.78443 0.69066 0.0
O47 O 0.65672 0.78928 0.68468 0.0
O48 O 0.57749 0.80368 0.78171 0.0
O49 O 0.54109 0.73988 0.68595 0.0
Mg50 Mg 0.52503 0.78715 0.72992 0.0
O51 O 0.53308 0.79931 0.63219 0.0
O52 O 0.54682 0.82039 0.80107 0.0
O53 O 0.50797 0.74157 0.75263 0.0
O54 O 0.49265 0.79274 0.68991 0.0
C55 C 0.63122 0.86278 0.64151 0.0
C56 C 0.5943 0.78507 0.51164 0.0
C57 C 0.6305 0.77688 0.71166 0.0
C58 C 0.56859 0.81752 0.81962 0.0
C59 C 0.51808 0.72671 0.72359 0.0
C60 C 0.50813 0.79994 0.63576 0.0
O61 O 0.65164 0.85581 0.64138 0.0
O62 O 0.60349 0.84276 0.64613 0.0
O63 O 0.80963 0.57508 0.82732 0.0
Mg64 Mg 0.81982 0.61562 0.87539 0.0
O65 O 0.76656 0.55634 0.87964 0.0
Mg66 Mg 0.77691 0.57436 -0.01052 0.0
O67 O 0.82573 0.60994 0.97327 0.0
O68 O 0.86313 0.64338 0.91126 0.0
O69 O 0.78752 0.59203 0.1001 0.0
O70 O 0.7908 0.54057 0.01747 0.0
Mg71 Mg 0.73395 0.53929 0.10361 0.0
O72 O 0.72805 0.53801 0.00386 0.0
O73 O 0.74389 0.5823 0.13699 0.0
O74 O 0.76651 0.52448 0.11436 0.0
O75 O 0.69066 0.50897 0.07159 0.0
C76 C 0.76688 0.62505 0.91326 0.0
C77 C 0.78187 0.55617 0.82997 0.0
C78 C 0.85376 0.62997 0.9678 0.0
C79 C 0.77201 0.59587 0.14434 0.0
C80 C 0.78524 0.5255 0.07126 0.0
C81 C 0.7004 0.51743 0.01184 0.0
O82 O 0.78697 0.62988 0.87022 0.0
O83 O 0.76171 0.60767 0.96291 0.0
O84 O 0.22323 0.82695 0.18058 0.0
Mg85 Mg 0.19144 0.8208 0.25119 0.0
O86 O 0.21079 0.78106 0.20865 0.0
Mg87 Mg 0.19921 0.77677 0.32337 0.0
O88 O 0.20735 0.82489 0.3452 0.0
O89 O 0.1986 0.85885 0.295 0.0
O90 O 0.18743 0.77506 0.44033 0.0
O91 O 0.2499 0.7976 0.34092 0.0
Mg92 Mg 0.20164 0.74118 0.39578 0.0
O93 O 0.19249 0.72792 0.29883 0.0
O94 O 0.16331 0.72689 0.45376 0.0
O95 O 0.2452 0.77314 0.43317 0.0
O96 O 0.20435 0.70456 0.37795 0.0
C97 C 0.13318 0.76344 0.26434 0.0
C98 C 0.22224 0.80261 0.16685 0.0
C99 C 0.20875 0.85083 0.34526 0.0
C100 C 0.17015 0.75232 0.4758 0.0
C101 C 0.26171 0.79348 0.39249 0.0
C102 C 0.19599 0.70564 0.31785 0.0
O103 O 0.14611 0.78867 0.2355 0.0
O104 O 0.14805 0.75536 0.30151 0.0
O105 O 0.39391 0.22326 0.49991 0.0
Mg106 Mg 0.36724 0.19453 0.57555 0.0
O107 O 0.43039 0.21792 0.54305 0.0
Mg108 Mg 0.4202 0.20229 0.65337 0.0
O109 O 0.38109 0.21227 0.66908 0.0
O110 O 0.33891 0.20542 0.61896 0.0
O111 O 0.41133 0.18688 0.76297 0.0
O112 O 0.44928 0.25368 0.68637 0.0
Mg113 Mg 0.47363 0.22209 0.70011 0.0
O114 O 0.45737 0.18792 0.63371 0.0
O115 O 0.45785 0.21437 0.79903 0.0
O116 O 0.49438 0.26481 0.65753 0.0
O117 O 0.50035 0.20458 0.69244 0.0
C118 C 0.36509 0.13643 0.59165 0.0
C119 C 0.41983 0.22642 0.49562 0.0
C120 C 0.35748 0.21537 0.66869 0.0
C121 C 0.43034 0.19669 0.81039 0.0
C122 C 0.47638 0.27345 0.67376 0.0
C123 C 0.4819 0.1873 0.64721 0.0
O124 O 0.35116 0.14839 0.56573 0.0
O125 O 0.38938 0.15225 0.6242 0.0
H126 H 0.3988 0.26065 0.74899 0.0
H127 H 0.38937 0.29547 0.81497 0.0
H128 H 0.29468 0.24199 0.77067 0.0
H129 H 0.30374 0.20745 0.70588 0.0
H130 H 0.32575 0.30512 0.72707 0.0
H131 H 0.31202 0.23904 0.91573 0.0
H132 H 0.33061 0.21509 -0.00569 0.0
H133 H 0.40011 0.30172 0.06082 0.0
H134 H 0.38228 0.32619 0.98144 0.0
H135 H 0.21465 0.30921 0.90249 0.0
H136 H 0.25123 0.29594 0.86503 0.0
H137 H 0.3232 0.3787 0.94513 0.0
H138 H 0.28639 0.39287 0.98216 0.0
H139 H 0.32224 0.3187 0.97135 0.0
H140 H 0.32193 0.38247 0.7989 0.0
H141 H 0.3005 0.40284 0.71808 0.0
H142 H 0.25428 0.31771 0.61802 0.0
H143 H 0.27473 0.29653 0.69917 0.0
C144 C 0.37593 0.25594 0.75528 0.0
C145 C 0.35202 0.23175 0.72163 0.0
C146 C 0.37064 0.27586 0.79244 0.0
C147 C 0.34145 0.27145 0.79617 0.0
C148 C 0.3174 0.2459 0.7673 0.0
C149 C 0.32261 0.22618 0.73054 0.0
C150 C 0.33544 0.29427 0.8244 0.0
C151 C 0.32527 0.30849 0.78042 0.0
C152 C 0.33581 0.29915 0.89373 0.0
C153 C 0.34616 0.28442 0.94196 0.0
C154 C 0.33147 0.25297 0.94661 0.0
C155 C 0.34181 0.2393 -0.00859 0.0
C156 C 0.36661 0.25688 0.03235 0.0
C157 C 0.38098 0.28815 0.02888 0.0
C158 C 0.37078 0.30192 0.98398 0.0
C159 C 0.23816 0.32458 0.9132 0.0
C160 C 0.24763 0.35222 0.94515 0.0
C161 C 0.25903 0.31697 0.89132 0.0
C162 C 0.28975 0.33659 0.90157 0.0
C163 C 0.29946 0.3635 0.93648 0.0
C164 C 0.27847 0.37145 0.95768 0.0
C165 C 0.31103 0.32828 0.87407 0.0
C166 C 0.32397 0.31661 0.91789 0.0
C167 C 0.31273 0.3253 0.80426 0.0
C168 C 0.29985 0.33784 0.75566 0.0
C169 C 0.30691 0.36794 0.76023 0.0
C170 C 0.29495 0.37966 0.71421 0.0
C171 C 0.27602 0.36158 0.66297 0.0
C172 C 0.26894 0.3317 0.65775 0.0
C173 C 0.28073 0.31983 0.70378 0.0
H174 H 0.26688 0.37072 0.62726 0.0
H175 H 0.37472 0.24633 0.06679 0.0
H176 H 0.10483 0.31105 0.11192 0.0
H177 H 0.06303 0.30495 0.17918 0.0
H178 H 0.08911 0.39761 0.14518 0.0
H179 H 0.13121 0.40366 0.07563 0.0
H180 H 0.05177 0.32997 0.28784 0.0
H181 H 0.04124 0.3993 0.10715 0.0
H182 H 0.05246 0.41808 -0.00881 0.0
H183 H 0.02516 0.32928 0.92074 0.0
H184 H 0.01417 0.31018 0.03639 0.0
H185 H 0.89268 0.27193 0.34647 0.0
H186 H 0.94577 0.30928 0.32784 0.0
H187 H 0.94646 0.26023 0.15414 0.0
H188 H 0.8939 0.22259 0.1732 0.0
H189 H 0.97286 0.32305 0.13331 0.0
H190 H 0.97607 0.25076 0.27728 0.0
H191 H 0.96475 0.21888 0.377 0.0
H192 H 0.00594 0.29724 0.50191 0.0
H193 H 0.01713 0.32961 0.40266 0.0
C194 C 0.10222 0.3304 0.12034 0.0
C195 C 0.12087 0.35767 0.08806 0.0
C196 C 0.07837 0.32694 0.159 0.0
C197 C 0.07258 0.35063 0.16603 0.0
C198 C 0.0929 0.37889 0.13922 0.0
C199 C 0.11709 0.38243 0.10029 0.0
C200 C 0.04289 0.34341 0.19255 0.0
C201 C 0.03463 0.32966 0.25547 0.0
C202 C 0.02039 0.34192 0.14914 0.0
C203 C 0.0272 0.35346 0.08008 0.0
C204 C 0.03778 0.38389 0.06682 0.0
C205 C 0.04411 0.39457 0.00125 0.0
C206 C 0.0396 0.3749 0.94865 0.0
C207 C 0.02875 0.34451 0.96151 0.0
C208 C 0.02254 0.33377 0.02701 0.0
C209 C 0.90427 0.2691 0.30454 0.0
C210 C 0.88932 0.24427 0.26157 0.0
C211 C 0.93445 0.29046 0.29389 0.0
C212 C 0.94979 0.28755 0.23935 0.0
C213 C 0.93483 0.26292 0.19618 0.0
C214 C 0.90495 0.24129 0.20757 0.0
C215 C 0.98187 0.30932 0.22811 0.0
C216 C 0.99018 0.3253 0.16794 0.0
C217 C 0.00432 0.31178 0.27283 0.0
C218 C -0.00313 0.29255 0.33282 0.0
C219 C 0.98228 0.26117 0.32612 0.0
C220 C 0.976 0.24302 0.38248 0.0
C221 C 0.98447 0.25602 0.44581 0.0
C222 C -0.00073 0.28721 0.45283 0.0
C223 C 0.00556 0.30548 0.39655 0.0
H224 H 0.9797 0.24193 0.48939 0.0
H225 H 0.04444 0.38319 0.89793 0.0
H226 H 0.79145 0.12136 0.44905 0.0
H227 H 0.75902 0.07807 0.51822 0.0
H228 H 0.68073 0.07458 0.42946 0.0
H229 H 0.7134 0.11869 0.36145 0.0
H230 H 0.67163 0.04879 0.56515 0.0
H231 H 0.70541 0.04136 0.34714 0.0
H232 H 0.74295 0.05499 0.25803 0.0
H233 H 0.79295 0.02687 0.38089 0.0
H234 H 0.75604 0.01369 0.47137 0.0
H235 H 0.59549 0.8848 0.59655 0.0
H236 H 0.61253 0.93564 0.55477 0.0
H237 H 0.70362 0.96196 0.61044 0.0
H238 H 0.68702 0.91164 0.65168 0.0
H239 H 0.69748 0.97424 0.47865 0.0
H240 H 0.66315 0.98427 0.69945 0.0
H241 H 0.62364 0.96921 0.78448 0.0
H242 H 0.57134 0.98958 0.64909 0.0
H243 H 0.61035 0.00428 0.56283 0.0
C244 C 0.76737 0.11243 0.44736 0.0
C245 C 0.75472 0.12302 0.40026 0.0
C246 C 0.74886 0.08766 0.48656 0.0
C247 C 0.71756 0.07279 0.47751 0.0
C248 C 0.70484 0.08576 0.43691 0.0
C249 C 0.72347 0.11093 0.39825 0.0
C250 C 0.69955 0.04103 0.49773 0.0
C251 C 0.67697 0.03235 0.54584 0.0
C252 C 0.70615 0.01951 0.47125 0.0
C253 C 0.7281 0.02682 0.41633 0.0
C254 C 0.72454 0.03831 0.35539 0.0
C255 C 0.74569 0.04594 0.3046 0.0
C256 C 0.77036 0.04187 0.31385 0.0
C257 C 0.77386 0.03006 0.37384 0.0
C258 C 0.75282 0.0225 0.4249 0.0
C259 C 0.61903 0.90166 0.60127 0.0
C260 C 0.63995 0.89423 0.62733 0.0
C261 C 0.62871 0.93059 0.57712 0.0
C262 C 0.65933 0.95241 0.57933 0.0
C263 C 0.67992 0.94533 0.60795 0.0
C264 C 0.67035 0.91659 0.63178 0.0
C265 C 0.67079 0.98233 0.54903 0.0
C266 C 0.69192 0.99056 0.4978 0.0
C267 C 0.66246 0.00309 0.57201 0.0
C268 C 0.63952 0.9951 0.62454 0.0
C269 C 0.64314 0.98537 0.6877 0.0
C270 C 0.62085 0.97691 0.73611 0.0
C271 C 0.59496 0.97837 0.72214 0.0
C272 C 0.59138 0.98842 0.65981 0.0
C273 C 0.61358 0.99684 0.61116 0.0
H274 H 0.57771 0.97177 0.75966 0.0
H275 H 0.78673 0.0478 0.27449 0.0
H276 H 0.60675 0.71889 0.68205 0.0
H277 H 0.61898 0.6857 0.74314 0.0
H278 H 0.65095 0.74778 0.90901 0.0
H279 H 0.64037 0.782 0.84509 0.0
H280 H 0.69427 0.74254 0.86152 0.0
H281 H 0.59364 0.66997 0.92196 0.0
H282 H 0.5394 0.6377 0.89986 0.0
H283 H 0.55808 0.58828 0.75402 0.0
H284 H 0.61244 0.62057 0.77422 0.0
H285 H 0.74818 0.64944 0.00823 0.0
H286 H 0.71496 0.67045 -0.00733 0.0
H287 H 0.70787 0.6496 0.78258 0.0
H288 H 0.74216 0.6298 0.7973 0.0
H289 H 0.64921 0.63203 0.87217 0.0
H290 H 0.74526 0.71032 0.78789 0.0
H291 H 0.80003 0.74447 0.79448 0.0
H292 H 0.78914 0.78366 0.97364 0.0
H293 H 0.73424 0.74922 0.96879 0.0
C294 C 0.61468 0.72453 0.73312 0.0
C295 C 0.62264 0.75274 0.75926 0.0
C296 C 0.62172 0.70552 0.76827 0.0
C297 C 0.63612 0.71427 0.83074 0.0
C298 C 0.64002 0.74066 0.86074 0.0
C299 C 0.63362 0.76003 0.82473 0.0
C300 C 0.65293 0.69987 0.85622 0.0
C301 C 0.68407 0.71838 0.86603 0.0
C302 C 0.64001 0.6683 0.85932 0.0
C303 C 0.6072 0.64774 0.84973 0.0
C304 C 0.5862 0.65222 0.8852 0.0
C305 C 0.55542 0.63395 0.8729 0.0
C306 C 0.54531 0.61093 0.82564 0.0
C307 C 0.56595 0.60606 0.79076 0.0
C308 C 0.59676 0.6243 0.80275 0.0
C309 C 0.7396 0.64953 0.95878 0.0
C310 C 0.74781 0.63841 0.90377 0.0
C311 C 0.72059 0.6613 0.95009 0.0
C312 C 0.70893 0.66123 0.8867 0.0
C313 C 0.71663 0.6496 0.83188 0.0
C314 C 0.73637 0.63866 0.84018 0.0
C315 C 0.68997 0.67483 0.87705 0.0
C316 C 0.65882 0.65616 0.86987 0.0
C317 C 0.70277 0.70623 0.87532 0.0
C318 C 0.73574 0.72679 0.87877 0.0
C319 C 0.75458 0.72587 0.82931 0.0
C320 C 0.78563 0.74535 0.83256 0.0
C321 C 0.79808 0.76611 0.88466 0.0
C322 C 0.77947 0.76747 0.93349 0.0
C323 C 0.74839 0.74795 0.93056 0.0
H324 H 0.82212 0.78122 0.88704 0.0
H325 H 0.52147 0.59688 0.81605 0.0
H326 H 0.09563 0.77731 0.19825 0.0
H327 H 0.04227 0.74557 0.17763 0.0
H328 H 0.04273 0.67287 0.28355 0.0
H329 H 0.09701 0.70485 0.30468 0.0
H330 H 0.01224 0.6579 0.15459 0.0
H331 H 0.01088 0.70429 0.35996 0.0
H332 H 0.02845 0.74718 0.43708 0.0
H333 H -0.00023 0.79159 0.29864 0.0
H334 H 0.98245 0.7492 0.22018 0.0
H335 H 0.8564 0.5937 0.06432 0.0
H336 H 0.89753 0.6078 0.14554 0.0
H337 H 0.93887 0.69968 0.07918 0.0
H338 H 0.89873 0.68561 -0.00278 0.0
H339 H 0.94222 0.69335 0.21982 0.0
H340 H 0.95965 0.65928 0.00788 0.0
H341 H 0.94809 0.62275 0.91709 0.0
H342 H 0.95157 0.56103 0.05606 0.0
H343 H 0.96243 0.59696 0.14801 0.0
C344 C 0.08457 0.75465 0.21763 0.0
C345 C 0.10058 0.74367 0.25358 0.0
C346 C 0.05397 0.73656 0.20594 0.0
C347 C 0.03856 0.70712 0.23009 0.0
C348 C 0.05432 0.69571 0.26518 0.0
C349 C 0.0852 0.71398 0.2773 0.0
C350 C 0.00607 0.68864 0.21602 0.0
C351 C -0.00351 0.66479 0.17082 0.0
C352 C 0.98597 0.69836 0.236 0.0
C353 C 0.99527 0.72345 0.2842 0.0
C354 C 0.00833 0.7232 0.34591 0.0
C355 C 0.01828 0.74746 0.38984 0.0
C356 C 0.01519 0.77208 0.3728 0.0
C357 C 0.00206 0.77246 0.31186 0.0
C358 C 0.9921 0.74828 0.2677 0.0
C359 C 0.874 0.61697 0.06835 0.0
C360 C 0.87477 0.63859 0.02436 0.0
C361 C 0.89737 0.62496 0.11453 0.0
C362 C 0.92118 0.65474 0.11799 0.0
C363 C 0.92063 0.67662 0.07738 0.0
C364 C 0.89783 0.66855 0.03037 0.0
C365 C 0.94862 0.66304 0.15737 0.0
C366 C 0.95736 0.68527 0.20656 0.0
C367 C 0.96819 0.65229 0.14005 0.0
C368 C 0.96118 0.6305 0.08504 0.0
C369 C 0.95745 0.63771 0.01927 0.0
C370 C 0.9511 0.61715 0.96755 0.0
C371 C 0.94886 0.58948 0.98084 0.0
C372 C 0.95306 0.58236 0.04588 0.0
C373 C 0.95926 0.60279 0.09784 0.0
H374 H 0.94404 0.57362 0.94071 0.0
H375 H 0.02299 0.79087 0.40681 0.0
H376 H 0.31638 0.09783 0.51798 0.0
H377 H 0.29408 0.04381 0.50824 0.0
H378 H 0.36252 0.04644 0.63803 0.0
H379 H 0.38547 0.10117 0.64801 0.0
H380 H 0.34886 0.01008 0.5161 0.0
H381 H 0.29705 0.02075 0.7058 0.0
H382 H 0.2707 0.04306 0.76386 0.0
H383 H 0.2028 0.01002 0.61082 0.0
H384 H 0.22888 0.98783 0.55149 0.0
H385 H 0.25206 0.85511 0.43254 0.0
H386 H 0.28265 0.8976 0.5072 0.0
H387 H 0.22898 0.93744 0.45355 0.0
H388 H 0.19877 0.89563 0.37979 0.0
H389 H 0.24175 0.94649 0.57869 0.0
H390 H 0.29706 0.95417 0.37398 0.0
H391 H 0.32282 0.93799 0.29487 0.0
H392 H 0.38165 0.94128 0.45173 0.0
H393 H 0.35607 0.95725 0.53168 0.0
C394 C 0.32681 0.08708 0.54466 0.0
C395 C 0.35254 0.10378 0.58438 0.0
C396 C 0.31396 0.05617 0.53911 0.0
C397 C 0.32637 0.04122 0.5735 0.0
C398 C 0.35255 0.05771 0.61171 0.0
C399 C 0.36555 0.08887 0.61733 0.0
C400 C 0.31148 0.00829 0.56815 0.0
C401 C 0.32572 0.99583 0.53152 0.0
C402 C 0.28117 0.99006 0.58737 0.0
C403 C 0.26489 0.00251 0.62438 0.0
C404 C 0.2765 0.01823 0.68457 0.0
C405 C 0.26162 0.03089 0.71766 0.0
C406 C 0.23508 0.02792 0.6911 0.0
C407 C 0.2233 0.01222 0.63148 0.0
C408 C 0.23807 -0.00049 0.59822 0.0
C409 C 0.24637 0.87258 0.43843 0.0
C410 C 0.22327 0.87232 0.40014 0.0
C411 C 0.26387 0.89681 0.48093 0.0
C412 C 0.25814 0.92069 0.48603 0.0
C413 C 0.23378 0.91924 0.45091 0.0
C414 C 0.21657 0.89536 0.40842 0.0
C415 C 0.27844 0.94867 0.52263 0.0
C416 C 0.2653 0.96023 0.56578 0.0
C417 C 0.30934 0.96641 0.50686 0.0
C418 C 0.32437 0.95639 0.45896 0.0
C419 C 0.31532 0.95117 0.39163 0.0
C420 C 0.32994 0.94211 0.3466 0.0
C421 C 0.3538 0.93849 0.36824 0.0
C422 C 0.36314 0.944 0.43494 0.0
C423 C 0.34858 0.95304 0.48015 0.0
H424 H 0.3651 0.9315 0.33329 0.0
H425 H 0.22364 0.03781 0.7167 0.0
H426 H 0.22366 0.45401 0.77957 0.0
H427 H 0.24103 0.46545 0.66401 0.0
H428 H 0.1752 0.37539 0.60531 0.0
H429 H 0.15746 0.36374 0.72008 0.0
H430 H 0.23564 0.39461 0.56374 0.0
H431 H 0.16184 0.42692 0.5626 0.0
H432 H 0.13939 0.45623 0.60461 0.0
H433 H 0.22196 0.53811 0.56757 0.0
H434 H 0.24505 0.50919 0.52617 0.0
H435 H 0.21104 0.39354 0.21162 0.0
H436 H 0.21024 0.38893 0.33357 0.0
H437 H 0.27779 0.4824 0.35065 0.0
H438 H 0.27904 0.48722 0.22971 0.0
H439 H 0.22584 0.46753 0.41932 0.0
H440 H 0.29561 0.43382 0.39751 0.0
H441 H 0.31738 0.40384 0.35622 0.0
H442 H 0.24316 0.32403 0.43736 0.0
H443 H 0.2205 0.35336 0.47772 0.0
C444 C 0.21244 0.43682 0.74182 0.0
C445 C 0.18919 0.40793 0.75903 0.0
C446 C 0.22256 0.44335 0.67604 0.0
C447 C 0.20962 0.42108 0.62674 0.0
C448 C 0.18564 0.39269 0.64312 0.0
C449 C 0.17531 0.38622 0.70857 0.0
C450 C 0.22103 0.42706 0.55779 0.0
C451 C 0.23336 0.41034 0.53168 0.0
C452 C 0.21904 0.44847 0.51749 0.0
C453 C 0.20526 0.46591 0.54204 0.0
C454 C 0.17529 0.45117 0.56397 0.0
C455 C 0.16244 0.4677 0.58756 0.0
C456 C 0.17927 0.49901 0.58895 0.0
C457 C 0.20898 0.51385 0.56657 0.0
C458 C 0.22195 0.49741 0.54301 0.0
C459 C 0.22618 0.41291 0.24128 0.0
C460 C 0.24471 0.44083 0.21098 0.0
C461 C 0.22579 0.41023 0.31086 0.0
C462 C 0.2439 0.4354 0.35087 0.0
C463 C 0.26361 0.46278 0.32056 0.0
C464 C 0.26415 0.46544 0.25134 0.0
C465 C 0.23942 0.43415 0.42383 0.0
C466 C 0.22858 0.45199 0.45113 0.0
C467 C 0.24274 0.41367 0.46498 0.0
C468 C 0.2561 0.39581 0.43991 0.0
C469 C 0.28366 0.40982 0.40575 0.0
C470 C 0.29622 0.39293 0.38264 0.0
C471 C 0.28161 0.36204 0.39392 0.0
C472 C 0.25442 0.34796 0.42846 0.0
C473 C 0.2417 0.36471 0.45144 0.0
H474 H 0.29139 0.34901 0.37607 0.0
H475 H 0.16928 0.51177 0.60721 0.0
H476 H 0.79746 0.24695 0.10423 0.0
H477 H 0.80196 0.2565 0.98445 0.0
H478 H 0.73662 0.16348 0.94728 0.0
H479 H 0.73335 0.15359 0.0671 0.0
H480 H 0.78808 0.17729 0.89409 0.0
H481 H 0.72697 0.22447 0.89555 0.0
H482 H 0.71251 0.26033 0.93831 0.0
H483 H 0.79978 0.33384 0.88954 0.0
H484 H 0.81486 0.29841 0.84698 0.0
H485 H 0.78536 0.18169 0.54143 0.0
H486 H 0.77581 0.17671 0.6612 0.0
H487 H 0.84679 0.2681 0.69147 0.0
H488 H 0.85649 0.27339 0.57161 0.0
H489 H 0.79378 0.25758 0.74756 0.0
H490 H 0.85615 0.21374 0.75096 0.0
H491 H 0.87428 0.18024 0.71202 0.0
H492 H 0.78866 0.10334 0.75701 0.0
H493 H 0.76989 0.13642 0.79554 0.0
C494 C 0.7831 0.22886 0.07058 0.0
C495 C 0.76549 0.19944 0.09432 0.0
C496 C 0.78566 0.23434 0.00201 0.0
C497 C 0.76992 0.21058 0.95684 0.0
C498 C 0.74925 0.18202 0.98132 0.0
C499 C 0.74727 0.1764 0.04965 0.0
C500 C 0.77916 0.21393 0.88608 0.0
C501 C 0.78862 0.19444 0.86168 0.0
C502 C 0.78152 0.23736 0.84503 0.0
C503 C 0.77209 0.25875 0.8684 0.0
C504 C 0.74311 0.24828 0.89409 0.0
C505 C 0.7348 0.26853 0.91827 0.0
C506 C 0.75524 0.29934 0.91676 0.0
C507 C 0.78396 0.30997 0.89065 0.0
C508 C 0.79237 0.28981 0.8663 0.0
C509 C 0.79961 0.20044 0.57369 0.0
C510 C 0.82137 0.22807 0.54698 0.0
C511 C 0.79398 0.19763 0.6421 0.0
C512 C 0.81027 0.22225 0.68479 0.0
C513 C 0.83368 0.24905 0.65903 0.0
C514 C 0.83937 0.25187 0.59067 0.0
C515 C 0.8017 0.22033 0.75561 0.0
C516 C 0.79279 0.24025 0.78006 0.0
C517 C 0.80019 0.19759 0.79736 0.0
C518 C 0.81155 0.17756 0.77565 0.0
C519 C 0.84113 0.18968 0.75224 0.0
C520 C 0.85153 0.17078 0.73029 0.0
C521 C 0.83261 0.13968 0.7319 0.0
C522 C 0.80328 0.12743 0.75577 0.0
C523 C 0.79277 0.14625 0.77779 0.0
H524 H 0.84068 0.12507 0.71476 0.0
H525 H 0.7488 0.31497 0.93576 0.0
H526 H 0.63236 0.79215 0.41039 0.0
H527 H 0.62707 0.80181 0.29384 0.0
H528 H 0.53685 0.78336 0.33013 0.0
H529 H 0.54216 0.77465 0.44876 0.0
H530 H 0.55705 0.7562 0.20306 0.0
H531 H 0.56729 0.84342 0.31779 0.0
H532 H 0.58957 0.88543 0.39793 0.0
H533 H 0.67478 0.92167 0.29975 0.0
H534 H 0.65318 0.87945 0.21996 0.0
H535 H 0.54708 0.83878 0.91624 0.0
H536 H 0.55449 0.83778 0.03609 0.0
H537 H 0.6212 0.81203 0.00204 0.0
H538 H 0.61318 0.81184 0.8813 0.0
H539 H 0.60909 0.86266 0.12995 0.0
H540 H 0.5983 0.7605 0.05206 0.0
H541 H 0.5753 0.71988 0.9682 0.0
H542 H 0.49014 0.71503 -0.00509 0.0
H543 H 0.51285 0.7559 0.07808 0.0
C544 C 0.61114 0.78967 0.39389 0.0
C545 C 0.58781 0.78304 0.4393 0.0
C546 C 0.60831 0.79541 0.32728 0.0
C547 C 0.58194 0.79402 0.30443 0.0
C548 C 0.55756 0.78498 0.34775 0.0
C549 C 0.56055 0.77973 0.41516 0.0
C550 C 0.5806 0.80238 0.23495 0.0
C551 C 0.56819 0.77946 0.18721 0.0
C552 C 0.59548 0.83279 0.21464 0.0
C553 C 0.6087 0.8579 0.26355 0.0
C554 C 0.59091 0.86001 0.31399 0.0
C555 C 0.60339 0.88396 0.3592 0.0
C556 C 0.63361 0.90614 0.35416 0.0
C557 C 0.6514 0.90442 0.30379 0.0
C558 C 0.63905 0.88046 0.25859 0.0
C559 C 0.56384 0.83351 0.93392 0.0
C560 C 0.57895 0.82451 0.88944 0.0
C561 C 0.56809 0.8331 0.00248 0.0
C562 C 0.58778 0.82411 0.0274 0.0
C563 C 0.6054 0.81838 0.98323 0.0
C564 C 0.60087 0.81837 0.91443 0.0
C565 C 0.58636 0.81648 0.09852 0.0
C566 C 0.59804 0.83947 0.14623 0.0
C567 C 0.57102 0.78621 0.11917 0.0
C568 C 0.55725 0.76129 0.07053 0.0
C569 C 0.57468 0.75074 0.0398 0.0
C570 C 0.56173 0.72772 -0.0076 0.0
C571 C 0.53127 0.71487 0.97614 0.0
C572 C 0.51371 0.72497 0.00743 0.0
C573 C 0.52663 0.74812 0.05452 0.0
H574 H 0.5213 0.69711 0.93931 0.0
H575 H 0.64321 0.9247 0.3891 0.0
H576 H 0.78567 0.51701 0.74376 0.0
H577 H 0.77769 0.5164 0.62282 0.0
H578 H 0.74224 0.57605 0.64956 0.0
H579 H 0.7467 0.57344 0.76957 0.0
H580 H 0.72211 0.55139 0.54337 0.0
H581 H 0.82562 0.59809 0.63246 0.0
H582 H 0.86708 0.59577 0.68959 0.0
H583 H 0.86147 0.53127 0.54602 0.0
H584 H 0.81984 0.53305 0.48848 0.0
H585 H 0.76399 0.62874 0.24056 0.0
H586 H 0.76608 0.62186 0.36117 0.0
H587 H 0.80062 0.56212 0.32424 0.0
H588 H 0.80177 0.57176 0.20544 0.0
H589 H 0.81999 0.58425 0.43368 0.0
H590 H 0.71751 0.54127 0.34048 0.0
H591 H 0.67637 0.54515 0.28616 0.0
H592 H 0.68089 0.6052 0.44027 0.0
H593 H 0.72216 0.60185 0.49509 0.0
C594 C 0.77456 0.52846 0.72357 0.0
C595 C 0.76689 0.54537 0.76536 0.0
C596 C 0.77063 0.52874 0.65445 0.0
C597 C 0.76113 0.54772 0.62648 0.0
C598 C 0.75012 0.5616 0.6692 0.0
C599 C 0.75253 0.56 0.73816 0.0
C600 C 0.76617 0.55661 0.55477 0.0
C601 C 0.74359 0.55866 0.51959 0.0
C602 C 0.79407 0.56595 0.52281 0.0
C603 C 0.81956 0.56555 0.55656 0.0
C604 C 0.83329 0.58346 0.61315 0.0
C605 C 0.85676 0.58219 0.64563 0.0
C606 C 0.86687 0.56335 0.62151 0.0
C607 C 0.85361 0.54583 0.56469 0.0
C608 C 0.83011 0.54697 0.53211 0.0
C609 C 0.77341 0.61538 0.25882 0.0
C610 C 0.78269 0.60077 0.21391 0.0
C611 C 0.77391 0.6108 0.3276 0.0
C612 C 0.78192 0.5901 0.35196 0.0
C613 C 0.79388 0.57785 0.30721 0.0
C614 C 0.79472 0.58353 0.23897 0.0
C615 C 0.77601 0.57927 0.42237 0.0
C616 C 0.79844 0.57685 0.45725 0.0
C617 C 0.74809 0.56991 0.45428 0.0
C618 C 0.72301 0.57146 0.42152 0.0
C619 C 0.70972 0.55532 0.36262 0.0
C620 C 0.68641 0.55745 0.33176 0.0
C621 C 0.67606 0.57545 0.35968 0.0
C622 C 0.68893 0.59129 0.41865 0.0
C623 C 0.71224 0.58925 0.44965 0.0
H624 H 0.65804 0.57709 0.33568 0.0
H625 H 0.885 0.56237 0.64678 0.0
H626 H 0.17807 0.80202 0.54461 0.0
H627 H 0.18401 0.80914 0.66588 0.0
H628 H 0.16343 0.71738 0.68878 0.0
H629 H 0.15449 0.70941 0.57029 0.0
H630 H 0.14757 0.73002 0.7927 0.0
H631 H 0.24227 0.78747 0.66339 0.0
H632 H 0.27718 0.82752 0.58736 0.0
H633 H 0.26845 0.89311 0.70155 0.0
H634 H 0.2334 0.85354 0.77806 0.0
H635 H 0.21584 0.7511 0.10887 0.0
H636 H 0.21023 0.74006 -0.0111 0.0
H637 H 0.23059 0.83079 0.94876 0.0
H638 H 0.23933 0.84259 0.06558 0.0
H639 H 0.2475 0.81575 0.85273 0.0
H640 H 0.15253 0.76099 0.98008 0.0
H641 H 0.12058 0.7234 0.06397 0.0
H642 H 0.12907 0.6554 0.95901 0.0
H643 H 0.16121 0.69263 0.87485 0.0
C644 C 0.17383 0.78319 0.57604 0.0
C645 C 0.1665 0.7554 0.5478 0.0
C646 C 0.17769 0.78735 0.6452 0.0
C647 C 0.17573 0.76424 0.68629 0.0
C648 C 0.16555 0.73577 0.65849 0.0
C649 C 0.16051 0.73127 0.5902 0.0
C650 C 0.18678 0.7698 0.75639 0.0
C651 C 0.16946 0.74881 0.80572 0.0
C652 C 0.21526 0.79427 0.77413 0.0
C653 C 0.23521 0.81759 0.72614 0.0
C654 C 0.24766 0.81041 0.67192 0.0
C655 C 0.26749 0.83301 0.62886 0.0
C656 C 0.27514 0.86279 0.63986 0.0
C657 C 0.2626 0.87005 0.69327 0.0
C658 C 0.24279 0.84758 0.73647 0.0
C659 C 0.2202 0.76889 0.07395 0.0
C660 C 0.22708 0.79744 0.09679 0.0
C661 C 0.21648 0.76244 0.0055 0.0
C662 C 0.21843 0.78412 0.95982 0.0
C663 C 0.22845 0.8134 0.98255 0.0
C664 C 0.23331 0.82012 0.04998 0.0
C665 C 0.20793 0.7767 0.88959 0.0
C666 C 0.22551 0.79707 0.83988 0.0
C667 C 0.17949 0.75204 0.87206 0.0
C668 C 0.1594 0.7296 0.92156 0.0
C669 C 0.14753 0.73801 0.97495 0.0
C670 C 0.12944 0.71678 0.02256 0.0
C671 C 0.12286 0.68705 0.01689 0.0
C672 C 0.13421 0.67843 0.96339 0.0
C673 C 0.15232 0.69957 0.9157 0.0
H674 H 0.10894 0.67068 0.05389 0.0
H675 H 0.29101 0.88029 0.60743 0.0
H676 H 0.45417 0.20484 0.4452 0.0
H677 H 0.45864 0.19716 0.32679 0.0
H678 H 0.42058 0.25285 0.27752 0.0
H679 H 0.415 0.25965 0.39614 0.0
H680 H 0.38682 0.19594 0.23195 0.0
H681 H 0.4941 0.27155 0.23425 0.0
H682 H 0.54538 0.2922 0.27995 0.0
H683 H 0.54335 0.20973 0.23491 0.0
H684 H 0.49195 0.18851 0.1894 0.0
H685 H 0.39741 0.21343 0.88411 0.0
H686 H 0.39503 0.21275 0.00601 0.0
H687 H 0.44085 0.16176 0.01327 0.0
H688 H 0.44455 0.16392 0.89134 0.0
H689 H 0.46957 0.20793 0.08574 0.0
H690 H 0.36775 0.13417 0.06825 0.0
H691 H 0.31522 0.10859 0.02896 0.0
H692 H 0.30366 0.17907 0.11104 0.0
H693 H 0.35624 0.20539 0.14986 0.0
C694 C 0.44801 0.21654 0.40917 0.0
C695 C 0.43367 0.23232 0.42944 0.0
C696 C 0.45048 0.21204 0.34144 0.0
C697 C 0.43942 0.22401 0.29363 0.0
C698 C 0.42881 0.24308 0.31394 0.0
C699 C 0.42586 0.24715 0.38154 0.0
C700 C 0.43447 0.21315 0.22411 0.0
C701 C 0.40491 0.19899 0.19927 0.0
C702 C 0.45781 0.21516 0.1838 0.0
C703 C 0.48914 0.22841 0.20877 0.0
C704 C 0.50458 0.25781 0.2342 0.0
C705 C 0.53366 0.26961 0.26005 0.0
C706 C 0.54759 0.25226 0.26043 0.0
C707 C 0.53254 0.22314 0.23455 0.0
C708 C 0.50347 0.21125 0.20856 0.0
C709 C 0.40592 0.20117 0.91195 0.0
C710 C 0.42101 0.1886 0.87938 0.0
C711 C 0.40458 0.20074 0.98148 0.0
C712 C 0.41782 0.18721 0.01883 0.0
C713 C 0.43069 0.17247 0.98548 0.0
C714 C 0.43258 0.17348 0.91611 0.0
C715 C 0.42196 0.19219 0.09172 0.0
C716 C 0.45129 0.20478 0.11787 0.0
C717 C 0.39819 0.18807 0.13379 0.0
C718 C 0.36627 0.17208 0.11109 0.0
C719 C 0.35416 0.14444 0.07732 0.0
C720 C 0.32431 0.12974 0.05525 0.0
C721 C 0.30616 0.14226 0.06721 0.0
C722 C 0.31777 0.16942 0.10165 0.0
C723 C 0.34762 0.18425 0.12368 0.0
H724 H 0.28306 0.13086 0.05001 0.0
H725 H 0.57005 0.26139 0.28072 0.0
H726 H 0.17532 0.50364 0.91299 0.0
H727 H 0.15733 0.5366 0.954 0.0
H728 H 0.15539 0.50464 0.15448 0.0
H729 H 0.17028 0.46979 0.11224 0.0
H730 H 0.12218 0.52586 0.15682 0.0
H731 H 0.22154 0.56347 0.07821 0.0
H732 H 0.26213 0.57304 -0.00045 0.0
H733 H 0.23383 0.62087 0.87025 0.0
H734 H 0.19275 0.61118 0.94784 0.0
H735 H 0.20269 0.65769 0.34467 0.0
H736 H 0.18827 0.61389 0.27551 0.0
H737 H 0.1587 0.65135 0.12019 0.0
H738 H 0.17318 0.69592 0.1898 0.0
H739 H 0.19842 0.62799 0.08244 0.0
H740 H 0.10635 0.59632 0.21034 0.0
H741 H 0.08079 0.59028 0.31797 0.0
H742 H 0.1143 0.5339 0.38931 0.0
H743 H 0.14033 0.53986 0.28252 0.0
C744 C 0.16916 0.50245 0.96502 0.0
C745 C 0.17416 0.48446 0.00975 0.0
C746 C 0.15936 0.52157 -0.01129 0.0
C747 C 0.15642 0.5242 0.05779 0.0
C748 C 0.15777 0.5034 0.10107 0.0
C749 C 0.16624 0.48336 0.07692 0.0
C750 C 0.15743 0.55136 0.08609 0.0
C751 C 0.13868 0.54814 0.14001 0.0
C752 C 0.17945 0.58065 0.06553 0.0
C753 C 0.20378 0.58616 0.01817 0.0
C754 C 0.22381 0.57579 0.03268 0.0
C755 C 0.24692 0.58126 -0.01164 0.0
C756 C 0.25047 0.59744 0.92979 0.0
C757 C 0.23095 0.60823 0.91551 0.0
C758 C 0.20773 0.60272 0.95958 0.0
C759 C 0.19311 0.65681 0.29588 0.0
C760 C 0.18886 0.68024 0.27289 0.0
C761 C 0.1847 0.63159 0.25665 0.0
C762 C 0.17178 0.62916 0.19369 0.0
C763 C 0.16826 0.65278 0.1693 0.0
C764 C 0.17663 0.67819 0.20887 0.0
C765 C 0.16344 0.60229 0.15288 0.0
C766 C 0.18107 0.60565 0.09707 0.0
C767 C 0.14216 0.57322 0.17525 0.0
C768 C 0.12521 0.56849 0.23823 0.0
C769 C 0.10823 0.58261 0.24893 0.0
C770 C 0.0937 0.57923 0.30986 0.0
C771 C 0.0959 0.56169 0.36041 0.0
C772 C 0.11253 0.5474 0.35006 0.0
C773 C 0.1271 0.5507 0.28925 0.0
H774 H 0.08473 0.5592 0.40761 0.0
H775 H 0.26842 0.60172 0.89559 0.0
H776 H 0.68659 0.18786 0.30286 0.0
H777 H 0.63338 0.1706 0.32474 0.0
H778 H 0.64993 0.17213 0.53637 0.0
H779 H 0.70327 0.19057 0.51489 0.0
H780 H 0.59322 0.11976 0.48397 0.0
H781 H 0.6529 0.228 0.48749 0.0
H782 H 0.68751 0.27831 0.44293 0.0
H783 H 0.62638 0.26302 0.28108 0.0
H784 H 0.5917 0.21222 0.32385 0.0
H785 H 0.51191 0.16016 0.69086 0.0
H786 H 0.54233 0.14665 0.62306 0.0
H787 H 0.50531 0.16259 0.44412 0.0
H788 H 0.47476 0.17655 0.51285 0.0
H789 H 0.5648 0.19778 0.45057 0.0
H790 H 0.49894 0.09307 0.4725 0.0
H791 H 0.46471 0.0462 0.5314 0.0
H792 H 0.53724 0.05726 0.65786 0.0
H793 H 0.57184 0.10443 0.60045 0.0
C794 C 0.67866 0.18394 0.35391 0.0
C795 C 0.69885 0.19062 0.40733 0.0
C796 C 0.64839 0.17414 0.36627 0.0
C797 C 0.63789 0.17014 0.43209 0.0
C798 C 0.65768 0.17498 0.48525 0.0
C799 C 0.68807 0.18562 0.47302 0.0
C800 C 0.60717 0.16395 0.44644 0.0
C801 C 0.58676 0.13662 0.47636 0.0
C802 C 0.59877 0.18585 0.43503 0.0
C803 C 0.62006 0.21598 0.40791 0.0
C804 C 0.64712 0.23508 0.44159 0.0
C805 C 0.66669 0.26376 0.41685 0.0
C806 C 0.65924 0.27379 0.35896 0.0
C807 C 0.63221 0.25514 0.32568 0.0
C808 C 0.61262 0.22637 0.35005 0.0
C809 C 0.5093 0.15956 0.63706 0.0
C810 C 0.49127 0.16962 0.60692 0.0
C811 C 0.5266 0.15166 0.5982 0.0
C812 C 0.52613 0.15357 0.52837 0.0
C813 C 0.50592 0.16087 0.49794 0.0
C814 C 0.48834 0.16863 0.53713 0.0
C815 C 0.55074 0.15371 0.48979 0.0
C816 C 0.5704 0.18017 0.45562 0.0
C817 C 0.55855 0.13117 0.4983 0.0
C818 C 0.53802 0.10235 0.53201 0.0
C819 C 0.50759 0.08557 0.51298 0.0
C820 C 0.48811 0.05894 0.54614 0.0
C821 C 0.49879 0.04876 0.59833 0.0
C822 C 0.52901 0.06514 0.61732 0.0
C823 C 0.54859 0.0918 0.58434 0.0
H824 H 0.48365 0.02817 0.62404 0.0
H825 H 0.67431 0.29608 0.34016 0.0
H826 H 0.28489 0.50522 0.81969 0.0
H827 H 0.32988 0.53507 0.75532 0.0
H828 H 0.37451 0.49522 0.86139 0.0
H829 H 0.32962 0.46703 0.93024 0.0
H830 H 0.40192 0.55124 0.88305 0.0
H831 H 0.36551 0.49619 0.67445 0.0
H832 H 0.32595 0.4706 0.58893 0.0
H833 H 0.32655 0.55276 0.54867 0.0
H834 H 0.36581 0.57876 0.63422 0.0
H835 H 0.53243 0.68476 0.76903 0.0
H836 H 0.49695 0.63057 0.78354 0.0
H837 H 0.42597 0.64176 0.69792 0.0
H838 H 0.46096 0.69514 0.68385 0.0
H839 H 0.42035 0.59198 0.65323 0.0
H840 H 0.42761 0.63567 0.86886 0.0
H841 H 0.44997 0.66348 0.97321 0.0
H842 H 0.49078 0.60969 0.01023 0.0
H843 H 0.4681 0.58116 0.90639 0.0
C844 C 0.30369 0.50147 0.82643 0.0
C845 C 0.30393 0.48392 0.87959 0.0
C846 C 0.32962 0.5186 0.78924 0.0
C847 C 0.35594 0.51758 0.803 0.0
C848 C 0.3546 0.49652 0.84982 0.0
C849 C 0.32882 0.48005 0.88858 0.0
C850 C 0.38556 0.54295 0.78144 0.0
C851 C 0.4065 0.55937 0.83203 0.0
C852 C 0.39086 0.55471 0.71571 0.0
C853 C 0.36881 0.53948 0.66069 0.0
C854 C 0.35734 0.50884 0.64712 0.0
C855 C 0.33488 0.49424 0.59873 0.0
C856 C 0.32376 0.51004 0.56336 0.0
C857 C 0.33526 0.54055 0.57589 0.0
C858 C 0.35772 0.55527 0.62411 0.0
C859 C 0.50939 0.6753 0.75213 0.0
C860 C 0.49929 0.69383 0.72487 0.0
C861 C 0.48911 0.6445 0.76083 0.0
C862 C 0.45874 0.63203 0.7417 0.0
C863 C 0.44924 0.65064 0.71243 0.0
C864 C 0.46922 0.68117 0.70454 0.0
C865 C 0.43597 0.60017 0.75519 0.0
C866 C 0.41646 0.58279 0.7033 0.0
C867 C 0.43082 0.58817 0.82038 0.0
C868 C 0.44672 0.60675 0.87939 0.0
C869 C 0.44176 0.63012 0.89877 0.0
C870 C 0.45429 0.64585 0.95804 0.0
C871 C 0.47199 0.63852 -0.00187 0.0
C872 C 0.47716 0.61541 0.979 0.0
C873 C 0.46441 0.59939 0.92004 0.0
H874 H 0.48162 0.6507 0.04409 0.0
H875 H 0.30621 0.49863 0.52635 0.0
H876 H 0.84796 0.34882 0.32905 0.0
H877 H 0.85411 0.38921 0.25567 0.0
H878 H 0.7921 0.32436 0.11433 0.0
H879 H 0.78627 0.28342 0.18772 0.0
H880 H 0.84991 0.39493 0.07369 0.0
H881 H 0.75292 0.33282 0.19236 0.0
H882 H 0.72556 0.30385 0.29178 0.0
H883 H 0.77788 0.38095 0.41593 0.0
H884 H 0.80602 0.41013 0.31732 0.0
H885 H 0.79215 0.49161 0.97769 0.0
H886 H 0.8043 0.45206 -0.00243 0.0
H887 H 0.82083 0.47735 0.20575 0.0
H888 H 0.80662 0.5155 0.18656 0.0
H889 H 0.78359 0.42209 0.19784 0.0
H890 H 0.87707 0.48638 0.08624 0.0
H891 H 0.90892 0.51759 -0.00615 0.0
H892 H 0.86904 0.44133 0.86281 0.0
H893 H 0.83651 0.40971 0.95408 0.0
C894 C 0.83655 0.34317 0.28111 0.0
C895 C 0.81613 0.31328 0.26432 0.0
C896 C 0.84038 0.36621 0.23895 0.0
C897 C 0.82336 0.35962 0.18021 0.0
C898 C 0.80556 0.3297 0.1594 0.0
C899 C 0.80206 0.30643 0.20145 0.0
C900 C 0.81802 0.38308 0.1533 0.0
C901 C 0.83499 0.40069 0.09946 0.0
C902 C 0.79921 0.39083 0.18871 0.0
C903 C 0.78171 0.37352 0.24763 0.0
C904 C 0.75872 0.3435 0.24094 0.0
C905 C 0.74307 0.32706 0.29712 0.0
C906 C 0.74998 0.34054 0.36015 0.0
C907 C 0.77255 0.37052 0.3671 0.0
C908 C 0.78836 0.38701 0.3111 0.0
C909 C 0.79904 0.48905 0.02732 0.0
C910 C 0.79828 0.50621 0.08087 0.0
C911 C 0.80614 0.46659 0.03857 0.0
C912 C 0.81351 0.46172 0.10314 0.0
C913 C 0.81493 0.48052 0.1556 0.0
C914 C 0.80691 0.5023 0.14476 0.0
C915 C 0.81594 0.43488 0.11826 0.0
C916 C 0.79827 0.41644 0.17055 0.0
C917 C 0.83435 0.42679 0.08158 0.0
C918 C 0.85413 0.44574 0.02688 0.0
C919 C 0.87491 0.4763 0.03761 0.0
C920 C 0.89312 0.49406 0.98546 0.0
C921 C 0.89098 0.48148 0.9225 0.0
C922 C 0.87066 0.45106 0.91159 0.0
C923 C 0.85233 0.4332 0.96352 0.0
H924 H 0.90511 0.49528 0.88222 0.0
H925 H 0.73783 0.32779 0.40357 0.0
H926 H 0.29453 0.80707 0.50684 0.0
H927 H 0.34704 0.8199 0.51708 0.0
H928 H 0.35414 0.82081 0.30263 0.0
H929 H 0.30231 0.81025 0.29216 0.0
H930 H 0.35723 0.77341 0.44004 0.0
H931 H 0.401 0.86637 0.29801 0.0
H932 H 0.40914 0.91681 0.27324 0.0
H933 H 0.44079 0.94504 0.47354 0.0
H934 H 0.43202 0.89447 0.49991 0.0
H935 H 0.49134 0.77452 0.51212 0.0
H936 H 0.45815 0.78184 0.43495 0.0
H937 H 0.46548 0.85336 0.56047 0.0
H938 H 0.49833 0.8461 0.63641 0.0
H939 H 0.45824 0.86453 0.43639 0.0
H940 H 0.4133 0.7819 0.59017 0.0
H941 H 0.40263 0.73419 0.6423 0.0
H942 H 0.36978 0.68866 0.45486 0.0
H943 H 0.38078 0.73629 0.40132 0.0
C944 C 0.30779 0.81159 0.46207 0.0
C945 C 0.29455 0.80796 0.39889 0.0
C946 C 0.3377 0.81883 0.46786 0.0
C947 C 0.35451 0.82174 0.41056 0.0
C948 C 0.34186 0.81967 0.34733 0.0
C949 C 0.31219 0.81343 0.34151 0.0
C950 C 0.38243 0.82061 0.418 0.0
C951 C 0.37949 0.7931 0.43726 0.0
C952 C 0.41111 0.84656 0.41652 0.0
C953 C 0.41529 0.87651 0.4012 0.0
C954 C 0.40906 0.88313 0.33712 0.0
C955 C 0.41399 0.9118 0.32268 0.0
C956 C 0.42546 0.93411 0.37179 0.0
C957 C 0.43189 0.92775 0.43555 0.0
C958 C 0.42687 0.89907 0.4503 0.0
C959 C 0.48685 0.79264 0.52107 0.0
C960 C 0.49713 0.80983 0.57962 0.0
C961 C 0.4678 0.79667 0.47748 0.0
C962 C 0.45905 0.81787 0.4926 0.0
C963 C 0.47198 0.83697 0.54765 0.0
C964 C 0.4907 0.83281 0.59108 0.0
C965 C 0.43311 0.81731 0.45911 0.0
C966 C 0.43623 0.84445 0.43585 0.0
C967 C 0.40427 0.79125 0.45987 0.0
C968 C 0.3985 0.76277 0.49139 0.0
C969 C 0.40423 0.7618 0.55983 0.0
C970 C 0.39803 0.73477 0.58969 0.0
C971 C 0.3857 0.70844 0.55182 0.0
C972 C 0.3795 0.7091 0.48403 0.0
C973 C 0.38577 0.73612 0.45387 0.0
H974 H 0.38081 0.68751 0.57507 0.0
H975 H 0.42934 0.95632 0.36045 0.0
H976 H 0.68705 0.4613 0.98491 0.0
H977 H 0.64955 0.42645 0.90577 0.0
H978 H 0.6344 0.49703 0.83524 0.0
H979 H 0.67238 0.53217 0.9151 0.0
H980 H 0.58315 0.44753 0.87998 0.0
H981 H 0.66333 0.46536 0.72917 0.0
H982 H 0.71172 0.46998 0.69715 0.0
H983 H 0.67968 0.3788 0.75633 0.0
H984 H 0.63121 0.37369 0.78929 0.0
H985 H 0.4976 0.32643 0.60763 0.0
H986 H 0.53442 0.3759 0.65308 0.0
H987 H 0.52623 0.33605 0.84681 0.0
H988 H 0.48833 0.28741 0.80271 0.0
H989 H 0.58879 0.37611 0.72308 0.0
H990 H 0.52307 0.36989 0.91968 0.0
H991 H 0.47479 0.36279 0.96074 0.0
H992 H 0.48099 0.43006 0.82446 0.0
H993 H 0.52886 0.4367 0.781 0.0
C994 C 0.67625 0.46949 0.95112 0.0
C995 C 0.68226 0.49913 0.95564 0.0
C996 C 0.655 0.44967 0.90571 0.0
C997 C 0.63931 0.45919 0.86435 0.0
C998 C 0.64643 0.48935 0.86654 0.0
C999 C 0.66804 0.50935 0.9118 0.0
C1000 C 0.61275 0.43653 0.82672 0.0
C1001 C 0.58452 0.43238 0.84443 0.0
C1002 C 0.61443 0.41617 0.78196 0.0
C1003 C 0.64361 0.41919 0.76191 0.0
C1004 C 0.66665 0.44635 0.73573 0.0
C1005 C 0.6941 0.44904 0.71732 0.0
C1006 C 0.69879 0.42472 0.72477 0.0
C1007 C 0.67602 0.39762 0.75051 0.0
C1008 C 0.64852 0.39479 0.7689 0.0
C1009 C 0.50245 0.3288 0.66068 0.0
C1010 C 0.48969 0.30356 0.70232 0.0
C1011 C 0.52358 0.35687 0.68644 0.0
C1012 C 0.5325 0.35973 0.75365 0.0
C1013 C 0.51871 0.33467 0.7957 0.0
C1014 C 0.4971 0.30688 0.77044 0.0
C1015 C 0.55954 0.38718 0.77706 0.0
C1016 C 0.58771 0.39193 0.75705 0.0
C1017 C 0.55794 0.4076 0.82122 0.0
C1018 C 0.52894 0.40311 0.84578 0.0
C1019 C 0.51375 0.38262 0.89741 0.0
C1020 C 0.48654 0.37878 0.92131 0.0
C1021 C 0.47469 0.39579 0.89484 0.0
C1022 C 0.49005 0.41669 0.84446 0.0
C1023 C 0.51712 0.42038 0.81992 0.0
H1024 H 0.45371 0.39292 0.91367 0.0
H1025 H 0.72006 0.42686 0.71053 0.0
loop_
_geom_bond_atom_site_label_1
_geom_bond_atom_site_label_2
_geom_bond_distance
_geom_bond_site_symmetry_2
_ccdc_geom_bond_type
O0 Mg1 1.990 . S
O0 C14 1.253 . S
Mg1 O0 1.990 . S
Mg1 O4 2.180 1_556 S
Mg1 O5 2.117 . S
Mg1 O19 2.030 . S
O2 Mg3 2.072 1_556 S
O2 C14 1.260 . S
Mg3 O2 2.072 1_554 S
Mg3 O4 2.099 . S
Mg3 O6 2.079 . S
Mg3 O7 2.072 . S
Mg3 O9 2.099 . S
Mg3 O20 2.079 1_554 S
O4 Mg1 2.180 1_554 S
O4 Mg3 2.099 . S
O4 C15 1.279 . S
O5 Mg1 2.117 . S
O5 C15 1.250 1_556 S
O6 Mg3 2.079 . S
O6 C16 1.264 . S
O7 Mg3 2.072 . S
O7 C17 1.260 . S
Mg8 O9 2.180 . S
Mg8 O10 2.030 . S
Mg8 O11 1.990 . S
Mg8 O12 2.117 . S
O9 Mg3 2.099 . S
O9 Mg8 2.180 . S
O9 C18 1.279 1_554 S
O10 Mg8 2.030 . S
O10 C16 1.248 . S
O11 Mg8 1.990 . S
O11 C17 1.253 . S
O12 Mg8 2.117 . S
O12 C18 1.250 1_554 S
C13 O19 1.248 . S
C13 O20 1.264 . S
C14 O0 1.253 . S
C14 O2 1.260 . S
C15 O4 1.279 . S
C15 O5 1.250 1_554 S
C16 O6 1.264 . S
C16 O10 1.248 . S
C17 O7 1.260 . S
C17 O11 1.253 . S
C18 O9 1.279 1_556 S
C18 O12 1.250 1_556 S
O19 Mg1 2.030 . S
O19 C13 1.248 . S
O20 Mg3 2.079 1_556 S
O20 C13 1.264 . S
O21 Mg22 1.990 . S
O21 C35 1.253 . S
Mg22 O21 1.990 . S
Mg22 O25 2.180 . S
Mg22 O26 2.117 . S
Mg22 O40 2.030 . S
O23 Mg24 2.072 . S
O23 C35 1.260 . S
Mg24 O23 2.072 . S
Mg24 O25 2.099 . S
Mg24 O27 2.079 . S
Mg24 O28 2.072 . S
Mg24 O30 2.099 . S
Mg24 O41 2.079 . S
O25 Mg22 2.180 . S
O25 Mg24 2.099 . S
O25 C36 1.279 . S
O26 Mg22 2.117 . S
O26 C36 1.250 . S
O27 Mg24 2.079 . S
O27 C37 1.264 . S
O28 Mg24 2.072 . S
O28 C38 1.260 . S
Mg29 O30 2.180 . S
Mg29 O31 2.030 . S
Mg29 O32 1.990 . S
Mg29 O33 2.117 . S
O30 Mg24 2.099 . S
O30 Mg29 2.180 . S
O30 C39 1.279 . S
O31 Mg29 2.030 . S
O31 C37 1.248 . S
O32 Mg29 1.990 . S
O32 C38 1.253 . S
O33 Mg29 2.117 . S
O33 C39 1.250 . S
C34 O40 1.248 . S
C34 O41 1.264 . S
C35 O21 1.253 . S
C35 O23 1.260 . S
C36 O25 1.279 . S
C36 O26 1.250 . S
C37 O27 1.264 . S
C37 O31 1.248 . S
C38 O28 1.260 . S
C38 O32 1.253 . S
C39 O30 1.279 . S
C39 O33 1.250 . S
O40 Mg22 2.030 . S
O40 C34 1.248 . S
O41 Mg24 2.079 . S
O41 C34 1.264 . S
O42 Mg43 1.990 . S
O42 C56 1.253 . S
Mg43 O42 1.990 . S
Mg43 O46 2.180 . S
Mg43 O47 2.117 . S
Mg43 O61 2.030 . S
O44 Mg45 2.072 . S
O44 C56 1.260 . S
Mg45 O44 2.072 . S
Mg45 O46 2.099 . S
Mg45 O48 2.079 . S
Mg45 O49 2.072 . S
Mg45 O51 2.099 . S
Mg45 O62 2.079 . S
O46 Mg43 2.180 . S
O46 Mg45 2.099 . S
O46 C57 1.279 . S
O47 Mg43 2.117 . S
O47 C57 1.250 . S
O48 Mg45 2.079 . S
O48 C58 1.264 . S
O49 Mg45 2.072 . S
O49 C59 1.260 . S
Mg50 O51 2.180 . S
Mg50 O52 2.030 . S
Mg50 O53 1.990 . S
Mg50 O54 2.117 . S
O51 Mg45 2.099 . S
O51 Mg50 2.180 . S
O51 C60 1.279 . S
O52 Mg50 2.030 . S
O52 C58 1.248 . S
O53 Mg50 1.990 . S
O53 C59 1.253 . S
O54 Mg50 2.117 . S
O54 C60 1.250 . S
C55 O61 1.248 . S
C55 O62 1.264 . S
C56 O42 1.253 . S
C56 O44 1.260 . S
C57 O46 1.279 . S
C57 O47 1.250 . S
C58 O48 1.264 . S
C58 O52 1.248 . S
C59 O49 1.260 . S
C59 O53 1.253 . S
C60 O51 1.279 . S
C60 O54 1.250 . S
O61 Mg43 2.030 . S
O61 C55 1.248 . S
O62 Mg45 2.079 . S
O62 C55 1.264 . S
O63 Mg64 1.990 . S
O63 C77 1.253 . S
Mg64 O63 1.990 . S
Mg64 O67 2.180 1_556 S
Mg64 O68 2.117 . S
Mg64 O82 2.030 . S
O65 Mg66 2.072 1_556 S
O65 C77 1.260 . S
Mg66 O65 2.072 1_554 S
Mg66 O67 2.099 . S
Mg66 O69 2.079 . S
Mg66 O70 2.072 . S
Mg66 O72 2.099 . S
Mg66 O83 2.079 1_554 S
O67 Mg64 2.180 1_554 S
O67 Mg66 2.099 . S
O67 C78 1.279 . S
O68 Mg64 2.117 . S
O68 C78 1.250 1_556 S
O69 Mg66 2.079 . S
O69 C79 1.264 . S
O70 Mg66 2.072 . S
O70 C80 1.260 . S
Mg71 O72 2.180 . S
Mg71 O73 2.030 . S
Mg71 O74 1.990 . S
Mg71 O75 2.117 . S
O72 Mg66 2.099 . S
O72 Mg71 2.180 . S
O72 C81 1.279 1_554 S
O73 Mg71 2.030 . S
O73 C79 1.248 . S
O74 Mg71 1.990 . S
O74 C80 1.253 . S
O75 Mg71 2.117 . S
O75 C81 1.250 1_554 S
C76 O82 1.248 . S
C76 O83 1.264 . S
C77 O63 1.253 . S
C77 O65 1.260 . S
C78 O67 1.279 . S
C78 O68 1.250 1_554 S
C79 O69 1.264 . S
C79 O73 1.248 . S
C80 O70 1.260 . S
C80 O74 1.253 . S
C81 O72 1.279 1_556 S
C81 O75 1.250 1_556 S
O82 Mg64 2.030 . S
O82 C76 1.248 . S
O83 Mg66 2.079 1_556 S
O83 C76 1.264 . S
O84 Mg85 1.990 . S
O84 C98 1.253 . S
Mg85 O84 1.990 . S
Mg85 O88 2.180 . S
Mg85 O89 2.117 . S
Mg85 O103 2.030 . S
O86 Mg87 2.072 . S
O86 C98 1.260 . S
Mg87 O86 2.072 . S
Mg87 O88 2.099 . S
Mg87 O90 2.079 . S
Mg87 O91 2.072 . S
Mg87 O93 2.099 . S
Mg87 O104 2.079 . S
O88 Mg85 2.180 . S
O88 Mg87 2.099 . S
O88 C99 1.279 . S
O89 Mg85 2.117 . S
O89 C99 1.250 . S
O90 Mg87 2.079 . S
O90 C100 1.264 . S
O91 Mg87 2.072 . S
O91 C101 1.260 . S
Mg92 O93 2.180 . S
Mg92 O94 2.030 . S
Mg92 O95 1.990 . S
Mg92 O96 2.117 . S
O93 Mg87 2.099 . S
O93 Mg92 2.180 . S
O93 C102 1.279 . S
O94 Mg92 2.030 . S
O94 C100 1.248 . S
O95 Mg92 1.990 . S
O95 C101 1.253 . S
O96 Mg92 2.117 . S
O96 C102 1.250 . S
C97 O103 1.248 . S
C97 O104 1.264 . S
C98 O84 1.253 . S
C98 O86 1.260 . S
C99 O88 1.279 . S
C99 O89 1.250 . S
C100 O90 1.264 . S
C100 O94 1.248 . S
C101 O91 1.260 . S
C101 O95 1.253 . S
C102 O93 1.279 . S
C102 O96 1.250 . S
O103 Mg85 2.030 . S
O103 C97 1.248 . S
O104 Mg87 2.079 . S
O104 C97 1.264 . S
O105 Mg106 1.990 . S
O105 C119 1.253 . S
Mg106 O105 1.990 . S
Mg106 O109 2.180 . S
Mg106 O110 2.117 . S
Mg106 O124 2.030 . S
O107 Mg108 2.072 . S
O107 C119 1.260 . S
Mg108 O107 2.072 . S
Mg108 O109 2.099 . S
Mg108 O111 2.079 . S
Mg108 O112 2.072 . S
Mg108 O114 2.099 . S
Mg108 O125 2.079 . S
O109 Mg106 2.180 . S
O109 Mg108 2.099 . S
O109 C120 1.279 . S
O110 Mg106 2.117 . S
O110 C120 1.250 . S
O111 Mg108 2.079 . S
O111 C121 1.264 . S
O112 Mg108 2.072 . S
O112 C122 1.260 . S
Mg113 O114 2.180 . S
Mg113 O115 2.030 . S
Mg113 O116 1.990 . S
Mg113 O117 2.117 . S
O114 Mg108 2.099 . S
O114 Mg113 2.180 . S
O114 C123 1.279 . S
O115 Mg113 2.030 . S
O115 C121 1.248 . S
O116 Mg113 1.990 . S
O116 C122 1.253 . S
O117 Mg113 2.117 . S
O117 C123 1.250 . S
C118 O124 1.248 . S
C118 O125 1.264 . S
C119 O105 1.253 . S
C119 O107 1.260 . S
C120 O109 1.279 . S
C120 O110 1.250 . S
C121 O111 1.264 . S
C121 O115 1.248 . S
C122 O112 1.260 . S
C122 O116 1.253 . S
C123 O114 1.279 . S
C123 O117 1.250 . S
O124 Mg106 2.030 . S
O124 C118 1.248 . S
O125 Mg108 2.079 . S
O125 C118 1.264 . S
H126 C144 0.951 . S
H127 C146 0.951 . S
H128 C148 0.950 . S
H129 C149 0.950 . S
H130 C151 0.950 . S
H131 C154 0.950 . S
H132 C155 0.950 . S
H133 C157 0.950 . S
H134 C158 0.950 . S
H135 C159 0.951 . S
H136 C161 0.951 . S
H137 C163 0.950 . S
H138 C164 0.950 . S
H139 C166 0.950 . S
H140 C169 0.950 . S
H141 C170 0.950 . S
H142 C172 0.950 . S
H143 C173 0.950 . S
C144 H126 0.951 . S
C144 C145 1.366 . S
C144 C146 1.388 . S
C145 C144 1.366 . S
C145 C149 1.385 . S
C146 H127 0.951 . S
C146 C144 1.388 . S
C146 C147 1.366 . S
C147 C146 1.366 . S
C147 C148 1.414 . S
C147 C150 1.499 . S
C148 H128 0.950 . S
C148 C147 1.414 . S
C148 C149 1.374 . S
C149 H129 0.950 . S
C149 C145 1.385 . S
C149 C148 1.374 . S
C150 C147 1.499 . S
C150 C151 1.373 . S
C150 C152 1.389 . S
C151 H130 0.950 . S
C151 C150 1.373 . S
C151 C167 1.377 . S
C152 C150 1.389 . S
C152 C153 1.524 . S
C152 C166 1.377 . S
C153 C152 1.524 . S
C153 C154 1.397 . S
C153 C158 1.363 . S
C154 H131 0.950 . S
C154 C153 1.397 . S
C154 C155 1.334 . S
C155 H132 0.950 . S
C155 C154 1.334 . S
C155 C156 1.287 1_556 S
C156 C155 1.287 1_554 S
C156 C157 1.524 . S
C156 H175 0.913 . S
C157 H133 0.950 . S
C157 C156 1.524 . S
C157 C158 1.415 1_554 S
C158 H134 0.950 . S
C158 C153 1.363 . S
C158 C157 1.415 1_556 S
C159 H135 0.951 . S
C159 C160 1.366 . S
C159 C161 1.388 . S
C160 C159 1.366 . S
C160 C164 1.385 . S
C161 H136 0.951 . S
C161 C159 1.388 . S
C161 C162 1.366 . S
C162 C161 1.366 . S
C162 C163 1.414 . S
C162 C165 1.499 . S
C163 H137 0.950 . S
C163 C162 1.414 . S
C163 C164 1.374 . S
C164 H138 0.950 . S
C164 C160 1.385 . S
C164 C163 1.374 . S
C165 C162 1.499 . S
C165 C166 1.373 . S
C165 C167 1.389 . S
C166 H139 0.950 . S
C166 C152 1.377 . S
C166 C165 1.373 . S
C167 C151 1.377 . S
C167 C165 1.389 . S
C167 C168 1.524 . S
C168 C167 1.524 . S
C168 C169 1.397 . S
C168 C173 1.363 . S
C169 H140 0.950 . S
C169 C168 1.397 . S
C169 C170 1.334 . S
C170 H141 0.950 . S
C170 C169 1.334 . S
C170 C171 1.287 . S
C171 C170 1.287 . S
C171 C172 1.524 . S
C171 H174 0.999 . S
C172 H142 0.950 . S
C172 C171 1.524 . S
C172 C173 1.415 . S
C173 H143 0.950 . S
C173 C168 1.363 . S
C173 C172 1.415 . S
H174 C171 0.999 . S
H175 C156 0.913 . S
H176 C194 0.951 1_556 S
H177 C196 0.951 . S
H178 C198 0.950 . S
H179 C199 0.950 . S
H180 C201 0.950 . S
H181 C204 0.950 . S
H182 C205 0.950 . S
H183 C207 0.950 1_655 S
H184 C208 0.950 1_655 S
H185 C209 0.951 . S
H186 C211 0.951 . S
H187 C213 0.950 . S
H188 C214 0.950 . S
H189 C216 0.950 . S
H190 C219 0.950 . S
H191 C220 0.950 . S
H192 C222 0.950 . S
H193 C223 0.950 . S
C194 H176 0.951 1_554 S
C194 C195 1.366 . S
C194 C196 1.388 . S
C195 C194 1.366 . S
C195 C199 1.385 . S
C196 H177 0.951 . S
C196 C194 1.388 . S
C196 C197 1.366 . S
C197 C196 1.366 . S
C197 C198 1.414 . S
C197 C200 1.499 . S
C198 H178 0.950 . S
C198 C197 1.414 . S
C198 C199 1.374 . S
C199 H179 0.950 . S
C199 C195 1.385 . S
C199 C198 1.374 . S
C200 C197 1.499 . S
C200 C201 1.373 . S
C200 C202 1.389 . S
C201 H180 0.950 . S
C201 C200 1.373 . S
C201 C217 1.377 . S
C202 C200 1.389 . S
C202 C203 1.524 . S
C202 C216 1.377 1_455 S
C203 C202 1.524 . S
C203 C204 1.397 . S
C203 C208 1.363 1_554 S
C204 H181 0.950 . S
C204 C203 1.397 . S
C204 C205 1.334 1_554 S
C205 H182 0.950 . S
C205 C204 1.334 1_556 S
C205 C206 1.287 . S
C206 C205 1.287 . S
C206 C207 1.524 . S
C206 H225 0.913 . S
C207 H183 0.950 1_455 S
C207 C206 1.524 . S
C207 C208 1.415 . S
C208 H184 0.950 1_455 S
C208 C203 1.363 1_556 S
C208 C207 1.415 . S
C209 H185 0.951 . S
C209 C210 1.366 . S
C209 C211 1.388 . S
C210 C209 1.366 . S
C210 C214 1.385 . S
C211 H186 0.951 . S
C211 C209 1.388 . S
C211 C212 1.366 . S
C212 C211 1.366 . S
C212 C213 1.414 . S
C212 C215 1.499 . S
C213 H187 0.950 . S
C213 C212 1.414 . S
C213 C214 1.374 . S
C214 H188 0.950 . S
C214 C210 1.385 . S
C214 C213 1.374 . S
C215 C212 1.499 . S
C215 C216 1.373 . S
C215 C217 1.389 1_655 S
C216 H189 0.950 . S
C216 C202 1.377 1_655 S
C216 C215 1.373 . S
C217 C201 1.377 . S
C217 C215 1.389 1_455 S
C217 C218 1.524 . S
C218 C217 1.524 . S
C218 C219 1.397 1_455 S
C218 C223 1.363 . S
C219 H190 0.950 . S
C219 C218 1.397 1_655 S
C219 C220 1.334 . S
C220 H191 0.950 . S
C220 C219 1.334 . S
C220 C221 1.287 . S
C221 C220 1.287 . S
C221 C222 1.524 1_655 S
C221 H224 0.999 . S
C222 H192 0.950 . S
C222 C221 1.524 1_455 S
C222 C223 1.415 . S
C223 H193 0.950 . S
C223 C218 1.363 . S
C223 C222 1.415 . S
H224 C221 0.999 . S
H225 C206 0.913 . S
H226 C244 0.951 . S
H227 C246 0.951 . S
H228 C248 0.950 . S
H229 C249 0.950 . S
H230 C251 0.950 . S
H231 C254 0.950 . S
H232 C255 0.950 . S
H233 C257 0.950 . S
H234 C258 0.950 . S
H235 C259 0.951 . S
H236 C261 0.951 . S
H237 C263 0.950 . S
H238 C264 0.950 . S
H239 C266 0.950 . S
H240 C269 0.950 . S
H241 C270 0.950 . S
H242 C272 0.924 1_545 S
H243 C273 0.950 . S
C244 H226 0.951 . S
C244 C245 1.366 . S
C244 C246 1.388 . S
C245 C244 1.366 . S
C245 C249 1.385 . S
C246 H227 0.951 . S
C246 C244 1.388 . S
C246 C247 1.366 . S
C247 C246 1.366 . S
C247 C248 1.414 . S
C247 C250 1.499 . S
C248 H228 0.950 . S
C248 C247 1.414 . S
C248 C249 1.374 . S
C249 H229 0.950 . S
C249 C245 1.385 . S
C249 C248 1.374 . S
C250 C247 1.499 . S
C250 C251 1.373 . S
C250 C252 1.389 . S
C251 H230 0.950 . S
C251 C250 1.373 . S
C251 C267 1.377 . S
C252 C250 1.389 . S
C252 C253 1.524 . S
C252 C266 1.377 1_545 S
C253 C252 1.524 . S
C253 C254 1.397 . S
C253 C258 1.363 . S
C254 H231 0.950 . S
C254 C253 1.397 . S
C254 C255 1.334 . S
C255 H232 0.950 . S
C255 C254 1.334 . S
C255 C256 1.287 . S
C256 C255 1.287 . S
C256 C257 1.524 . S
C256 H275 0.913 . S
C257 H233 0.950 . S
C257 C256 1.524 . S
C257 C258 1.415 . S
C258 H234 0.950 . S
C258 C253 1.363 . S
C258 C257 1.415 . S
C259 H235 0.951 . S
C259 C260 1.366 . S
C259 C261 1.388 . S
C260 C259 1.366 . S
C260 C264 1.385 . S
C261 H236 0.951 . S
C261 C259 1.388 . S
C261 C262 1.366 . S
C262 C261 1.366 . S
C262 C263 1.414 . S
C262 C265 1.499 . S
C263 H237 0.950 . S
C263 C262 1.414 . S
C263 C264 1.374 . S
C264 H238 0.950 . S
C264 C260 1.385 . S
C264 C263 1.374 . S
C265 C262 1.499 . S
C265 C266 1.373 . S
C265 C267 1.389 1_565 S
C266 H239 0.950 . S
C266 C252 1.377 1_565 S
C266 C265 1.373 . S
C267 C251 1.377 . S
C267 C265 1.389 1_545 S
C267 C268 1.524 1_545 S
C268 C267 1.524 1_565 S
C268 C269 1.397 . S
C268 C273 1.363 1_565 S
C269 H240 0.950 . S
C269 C268 1.397 . S
C269 C270 1.334 . S
C270 H241 0.950 . S
C270 C269 1.334 . S
C270 C271 1.287 . S
C271 C270 1.287 . S
C271 C272 1.544 . S
C271 H274 0.999 . S
C272 H242 0.924 1_565 S
C272 C271 1.544 . S
C272 C273 1.426 1_565 S
C273 H243 0.950 . S
C273 C268 1.363 1_545 S
C273 C272 1.426 1_545 S
H274 C271 0.999 . S
H275 C256 0.913 . S
H276 C294 0.951 . S
H277 C296 0.951 . S
H278 C298 0.950 . S
H279 C299 0.950 . S
H280 C301 0.950 . S
H281 C304 0.950 . S
H282 C305 0.950 . S
H283 C307 0.950 . S
H284 C308 0.950 . S
H285 C309 0.951 1_554 S
H286 C311 0.951 . S
H287 C313 0.950 . S
H288 C314 0.950 . S
H289 C316 0.950 . S
H290 C319 0.950 . S
H291 C320 0.950 . S
H292 C322 0.950 . S
H293 C323 0.950 . S
C294 H276 0.951 . S
C294 C295 1.366 . S
C294 C296 1.388 . S
C295 C294 1.366 . S
C295 C299 1.385 . S
C296 H277 0.951 . S
C296 C294 1.388 . S
C296 C297 1.366 . S
C297 C296 1.366 . S
C297 C298 1.414 . S
C297 C300 1.499 . S
C298 H278 0.950 . S
C298 C297 1.414 . S
C298 C299 1.374 . S
C299 H279 0.950 . S
C299 C295 1.385 . S
C299 C298 1.374 . S
C300 C297 1.499 . S
C300 C301 1.373 . S
C300 C302 1.389 . S
C301 H280 0.950 . S
C301 C300 1.373 . S
C301 C317 1.377 . S
C302 C300 1.389 . S
C302 C303 1.524 . S
C302 C316 1.377 . S
C303 C302 1.524 . S
C303 C304 1.397 . S
C303 C308 1.363 . S
C304 H281 0.950 . S
C304 C303 1.397 . S
C304 C305 1.334 . S
C305 H282 0.950 . S
C305 C304 1.334 . S
C305 C306 1.287 . S
C306 C305 1.287 . S
C306 C307 1.524 . S
C306 H325 0.913 . S
C307 H283 0.950 . S
C307 C306 1.524 . S
C307 C308 1.415 . S
C308 H284 0.950 . S
C308 C303 1.363 . S
C308 C307 1.415 . S
C309 H285 0.951 1_556 S
C309 C310 1.366 . S
C309 C311 1.388 . S
C310 C309 1.366 . S
C310 C314 1.385 . S
C311 H286 0.951 . S
C311 C309 1.388 . S
C311 C312 1.366 . S
C312 C311 1.366 . S
C312 C313 1.414 . S
C312 C315 1.499 . S
C313 H287 0.950 . S
C313 C312 1.414 . S
C313 C314 1.374 . S
C314 H288 0.950 . S
C314 C310 1.385 . S
C314 C313 1.374 . S
C315 C312 1.499 . S
C315 C316 1.373 . S
C315 C317 1.389 . S
C316 H289 0.950 . S
C316 C302 1.377 . S
C316 C315 1.373 . S
C317 C301 1.377 . S
C317 C315 1.389 . S
C317 C318 1.524 . S
C318 C317 1.524 . S
C318 C319 1.397 . S
C318 C323 1.363 . S
C319 H290 0.950 . S
C319 C318 1.397 . S
C319 C320 1.334 . S
C320 H291 0.950 . S
C320 C319 1.334 . S
C320 C321 1.287 . S
C321 C320 1.287 . S
C321 C322 1.524 . S
C321 H324 0.999 . S
C322 H292 0.950 . S
C322 C321 1.524 . S
C322 C323 1.415 . S
C323 H293 0.950 . S
C323 C318 1.363 . S
C323 C322 1.415 . S
H324 C321 0.999 . S
H325 C306 0.913 . S
H326 C344 0.951 . S
H327 C346 0.951 . S
H328 C348 0.950 . S
H329 C349 0.950 . S
H330 C351 0.950 . S
H331 C354 0.950 . S
H332 C355 0.950 . S
H333 C357 0.964 . S
H334 C358 0.950 . S
H335 C359 0.951 . S
H336 C361 0.951 . S
H337 C363 0.950 . S
H338 C364 0.950 . S
H339 C366 0.950 . S
H340 C369 0.950 1_556 S
H341 C370 0.950 . S
H342 C372 0.950 . S
H343 C373 0.950 . S
C344 H326 0.951 . S
C344 C345 1.366 . S
C344 C346 1.388 . S
C345 C344 1.366 . S
C345 C349 1.385 . S
C346 H327 0.951 . S
C346 C344 1.388 . S
C346 C347 1.366 . S
C347 C346 1.366 . S
C347 C348 1.414 . S
C347 C350 1.499 . S
C348 H328 0.950 . S
C348 C347 1.414 . S
C348 C349 1.374 . S
C349 H329 0.950 . S
C349 C345 1.385 . S
C349 C348 1.374 . S
C350 C347 1.499 . S
C350 C351 1.373 . S
C350 C352 1.389 1_455 S
C351 H330 0.950 . S
C351 C350 1.373 . S
C351 C367 1.377 1_455 S
C352 C350 1.389 1_655 S
C352 C353 1.524 1_655 S
C352 C366 1.377 . S
C353 C352 1.524 1_455 S
C353 C354 1.397 . S
C353 C358 1.363 1_455 S
C354 H331 0.950 . S
C354 C353 1.397 . S
C354 C355 1.334 . S
C355 H332 0.950 . S
C355 C354 1.334 . S
C355 C356 1.287 . S
C356 C355 1.287 . S
C356 C357 1.524 . S
C356 H375 0.913 . S
C357 H333 0.964 . S
C357 C356 1.524 . S
C357 C358 1.415 1_455 S
C358 H334 0.950 . S
C358 C353 1.363 1_655 S
C358 C357 1.415 1_655 S
C359 H335 0.951 . S
C359 C360 1.366 . S
C359 C361 1.388 . S
C360 C359 1.366 . S
C360 C364 1.385 . S
C361 H336 0.951 . S
C361 C359 1.388 . S
C361 C362 1.366 . S
C362 C361 1.366 . S
C362 C363 1.414 . S
C362 C365 1.499 . S
C363 H337 0.950 . S
C363 C362 1.414 . S
C363 C364 1.374 . S
C364 H338 0.950 . S
C364 C360 1.385 . S
C364 C363 1.374 . S
C365 C362 1.499 . S
C365 C366 1.373 . S
C365 C367 1.389 . S
C366 H339 0.950 . S
C366 C352 1.377 . S
C366 C365 1.373 . S
C367 C351 1.377 1_655 S
C367 C365 1.389 . S
C367 C368 1.524 . S
C368 C367 1.524 . S
C368 C369 1.397 . S
C368 C373 1.363 . S
C369 H340 0.950 1_554 S
C369 C368 1.397 . S
C369 C370 1.334 1_554 S
C370 H341 0.950 . S
C370 C369 1.334 1_556 S
C370 C371 1.287 . S
C371 C370 1.287 . S
C371 C372 1.524 1_556 S
C371 H374 0.999 . S
C372 H342 0.950 . S
C372 C371 1.524 1_554 S
C372 C373 1.415 . S
C373 H343 0.950 . S
C373 C368 1.363 . S
C373 C372 1.415 . S
H374 C371 0.999 . S
H375 C356 0.913 . S
H376 C394 0.951 . S
H377 C396 0.951 . S
H378 C398 0.950 . S
H379 C399 0.950 . S
H380 C401 0.950 . S
H381 C404 0.950 . S
H382 C405 0.950 . S
H383 C407 0.950 . S
H384 C408 0.950 1_565 S
H385 C409 0.951 . S
H386 C411 0.951 . S
H387 C413 0.950 . S
H388 C414 0.950 . S
H389 C416 0.950 . S
H390 C419 0.950 . S
H391 C420 0.950 . S
H392 C422 0.950 . S
H393 C423 0.950 . S
C394 H376 0.951 . S
C394 C395 1.366 . S
C394 C396 1.388 . S
C395 C394 1.366 . S
C395 C399 1.385 . S
C396 H377 0.951 . S
C396 C394 1.388 . S
C396 C397 1.366 . S
C397 C396 1.366 . S
C397 C398 1.414 . S
C397 C400 1.499 . S
C398 H378 0.950 . S
C398 C397 1.414 . S
C398 C399 1.374 . S
C399 H379 0.950 . S
C399 C395 1.385 . S
C399 C398 1.374 . S
C400 C397 1.499 . S
C400 C401 1.373 . S
C400 C402 1.388 1_545 S
C401 H380 0.950 . S
C401 C400 1.373 . S
C401 C417 1.377 1_545 S
C402 C400 1.388 1_565 S
C402 C403 1.513 1_565 S
C402 C416 1.390 . S
C403 C402 1.513 1_545 S
C403 C404 1.397 . S
C403 C408 1.363 . S
C404 H381 0.950 . S
C404 C403 1.397 . S
C404 C405 1.334 . S
C405 H382 0.950 . S
C405 C404 1.334 . S
C405 C406 1.287 . S
C406 C405 1.287 . S
C406 C407 1.524 . S
C406 H425 0.913 . S
C407 H383 0.950 . S
C407 C406 1.524 . S
C407 C408 1.415 . S
C408 H384 0.950 1_545 S
C408 C403 1.363 . S
C408 C407 1.415 . S
C409 H385 0.951 . S
C409 C410 1.366 . S
C409 C411 1.388 . S
C410 C409 1.366 . S
C410 C414 1.385 . S
C411 H386 0.951 . S
C411 C409 1.388 . S
C411 C412 1.366 . S
C412 C411 1.366 . S
C412 C413 1.414 . S
C412 C415 1.499 . S
C413 H387 0.950 . S
C413 C412 1.414 . S
C413 C414 1.374 . S
C414 H388 0.950 . S
C414 C410 1.385 . S
C414 C413 1.374 . S
C415 C412 1.499 . S
C415 C416 1.373 . S
C415 C417 1.389 . S
C416 H389 0.950 . S
C416 C402 1.390 . S
C416 C415 1.373 . S
C417 C401 1.377 1_565 S
C417 C415 1.389 . S
C417 C418 1.524 . S
C418 C417 1.524 . S
C418 C419 1.397 . S
C418 C423 1.363 . S
C419 H390 0.950 . S
C419 C418 1.397 . S
C419 C420 1.334 . S
C420 H391 0.950 . S
C420 C419 1.334 . S
C420 C421 1.287 . S
C421 C420 1.287 . S
C421 C422 1.524 . S
C421 H424 0.999 . S
C422 H392 0.950 . S
C422 C421 1.524 . S
C422 C423 1.415 . S
C423 H393 0.950 . S
C423 C418 1.363 . S
C423 C422 1.415 . S
H424 C421 0.999 . S
H425 C406 0.913 . S
H426 C444 0.951 . S
H427 C446 0.951 . S
H428 C448 0.950 . S
H429 C449 0.950 . S
H430 C451 0.950 . S
H431 C454 0.950 . S
H432 C455 0.950 . S
H433 C457 0.950 . S
H434 C458 0.950 . S
H435 C459 0.951 . S
H436 C461 0.951 . S
H437 C463 0.950 . S
H438 C464 0.950 . S
H439 C466 0.950 . S
H440 C469 0.950 . S
H441 C470 0.950 . S
H442 C472 0.950 . S
H443 C473 0.950 . S
C444 H426 0.951 . S
C444 C445 1.366 . S
C444 C446 1.388 . S
C445 C444 1.366 . S
C445 C449 1.385 . S
C446 H427 0.951 . S
C446 C444 1.388 . S
C446 C447 1.366 . S
C447 C446 1.366 . S
C447 C448 1.414 . S
C447 C450 1.499 . S
C448 H428 0.950 . S
C448 C447 1.414 . S
C448 C449 1.374 . S
C449 H429 0.950 . S
C449 C445 1.385 . S
C449 C448 1.374 . S
C450 C447 1.499 . S
C450 C451 1.373 . S
C450 C452 1.389 . S
C451 H430 0.950 . S
C451 C450 1.373 . S
C451 C467 1.377 . S
C452 C450 1.389 . S
C452 C453 1.524 . S
C452 C466 1.377 . S
C453 C452 1.524 . S
C453 C454 1.397 . S
C453 C458 1.363 . S
C454 H431 0.950 . S
C454 C453 1.397 . S
C454 C455 1.334 . S
C455 H432 0.950 . S
C455 C454 1.334 . S
C455 C456 1.287 . S
C456 C455 1.287 . S
C456 C457 1.524 . S
C456 H475 0.913 . S
C457 H433 0.950 . S
C457 C456 1.524 . S
C457 C458 1.415 . S
C458 H434 0.950 . S
C458 C453 1.363 . S
C458 C457 1.415 . S
C459 H435 0.951 . S
C459 C460 1.366 . S
C459 C461 1.388 . S
C460 C459 1.366 . S
C460 C464 1.385 . S
C461 H436 0.951 . S
C461 C459 1.388 . S
C461 C462 1.366 . S
C462 C461 1.366 . S
C462 C463 1.414 . S
C462 C465 1.499 . S
C463 H437 0.950 . S
C463 C462 1.414 . S
C463 C464 1.374 . S
C464 H438 0.950 . S
C464 C460 1.385 . S
C464 C463 1.374 . S
C465 C462 1.499 . S
C465 C466 1.373 . S
C465 C467 1.389 . S
C466 H439 0.950 . S
C466 C452 1.377 . S
C466 C465 1.373 . S
C467 C451 1.377 . S
C467 C465 1.389 . S
C467 C468 1.524 . S
C468 C467 1.524 . S
C468 C469 1.397 . S
C468 C473 1.363 . S
C469 H440 0.950 . S
C469 C468 1.397 . S
C469 C470 1.334 . S
C470 H441 0.950 . S
C470 C469 1.334 . S
C470 C471 1.287 . S
C471 C470 1.287 . S
C471 C472 1.524 . S
C471 H474 0.999 . S
C472 H442 0.950 . S
C472 C471 1.524 . S
C472 C473 1.415 . S
C473 H443 0.950 . S
C473 C468 1.363 . S
C473 C472 1.415 . S
H474 C471 0.999 . S
H475 C456 0.913 . S
H476 C494 0.951 . S
H477 C496 0.951 . S
H478 C498 0.959 . S
H479 C499 0.950 . S
H480 C501 0.950 . S
H481 C504 0.950 . S
H482 C505 0.950 1_554 S
H483 C507 0.950 . S
H484 C508 0.950 . S
H485 C509 0.951 . S
H486 C511 0.951 . S
H487 C513 0.950 . S
H488 C514 0.950 . S
H489 C516 0.950 . S
H490 C519 0.950 . S
H491 C520 0.950 . S
H492 C522 0.950 . S
H493 C523 0.950 . S
C494 H476 0.951 . S
C494 C495 1.366 . S
C494 C496 1.388 . S
C495 C494 1.366 . S
C495 C499 1.385 . S
C496 H477 0.951 . S
C496 C494 1.388 . S
C496 C497 1.366 1_554 S
C497 C496 1.366 1_556 S
C497 C498 1.414 1_556 S
C497 C500 1.499 . S
C498 H478 0.959 . S
C498 C497 1.414 1_554 S
C498 C499 1.374 . S
C499 H479 0.950 . S
C499 C495 1.385 . S
C499 C498 1.374 . S
C500 C497 1.499 . S
C500 C501 1.373 . S
C500 C502 1.389 . S
C501 H480 0.950 . S
C501 C500 1.373 . S
C501 C517 1.377 . S
C502 C500 1.389 . S
C502 C503 1.524 . S
C502 C516 1.377 . S
C503 C502 1.524 . S
C503 C504 1.397 . S
C503 C508 1.363 . S
C504 H481 0.950 . S
C504 C503 1.397 . S
C504 C505 1.334 . S
C505 H482 0.950 1_556 S
C505 C504 1.334 . S
C505 C506 1.287 . S
C506 C505 1.287 . S
C506 C507 1.524 . S
C506 H525 0.913 . S
C507 H483 0.950 . S
C507 C506 1.524 . S
C507 C508 1.415 . S
C508 H484 0.950 . S
C508 C503 1.363 . S
C508 C507 1.415 . S
C509 H485 0.951 . S
C509 C510 1.366 . S
C509 C511 1.388 . S
C510 C509 1.366 . S
C510 C514 1.385 . S
C511 H486 0.951 . S
C511 C509 1.388 . S
C511 C512 1.366 . S
C512 C511 1.366 . S
C512 C513 1.414 . S
C512 C515 1.499 . S
C513 H487 0.950 . S
C513 C512 1.414 . S
C513 C514 1.374 . S
C514 H488 0.950 . S
C514 C510 1.385 . S
C514 C513 1.374 . S
C515 C512 1.499 . S
C515 C516 1.373 . S
C515 C517 1.389 . S
C516 H489 0.950 . S
C516 C502 1.377 . S
C516 C515 1.373 . S
C517 C501 1.377 . S
C517 C515 1.389 . S
C517 C518 1.524 . S
C518 C517 1.524 . S
C518 C519 1.397 . S
C518 C523 1.363 . S
C519 H490 0.950 . S
C519 C518 1.397 . S
C519 C520 1.334 . S
C520 H491 0.950 . S
C520 C519 1.334 . S
C520 C521 1.287 . S
C521 C520 1.287 . S
C521 C522 1.524 . S
C521 H524 0.999 . S
C522 H492 0.950 . S
C522 C521 1.524 . S
C522 C523 1.415 . S
C523 H493 0.950 . S
C523 C518 1.363 . S
C523 C522 1.415 . S
H524 C521 0.999 . S
H525 C506 0.913 . S
H526 C544 0.951 . S
H527 C546 0.951 . S
H528 C548 0.950 . S
H529 C549 0.950 . S
H530 C551 0.950 . S
H531 C554 0.950 . S
H532 C555 0.950 . S
H533 C557 0.950 . S
H534 C558 0.950 . S
H535 C559 0.951 . S
H536 C561 0.951 1_554 S
H537 C563 0.950 1_554 S
H538 C564 0.950 . S
H539 C566 0.950 . S
H540 C569 0.950 . S
H541 C570 0.950 1_556 S
H542 C572 0.950 . S
H543 C573 0.950 . S
C544 H526 0.951 . S
C544 C545 1.366 . S
C544 C546 1.388 . S
C545 C544 1.366 . S
C545 C549 1.385 . S
C546 H527 0.951 . S
C546 C544 1.388 . S
C546 C547 1.366 . S
C547 C546 1.366 . S
C547 C548 1.414 . S
C547 C550 1.499 . S
C548 H528 0.950 . S
C548 C547 1.414 . S
C548 C549 1.374 . S
C549 H529 0.950 . S
C549 C545 1.385 . S
C549 C548 1.374 . S
C550 C547 1.499 . S
C550 C551 1.373 . S
C550 C552 1.389 . S
C551 H530 0.950 . S
C551 C550 1.373 . S
C551 C567 1.377 . S
C552 C550 1.389 . S
C552 C553 1.524 . S
C552 C566 1.377 . S
C553 C552 1.524 . S
C553 C554 1.397 . S
C553 C558 1.363 . S
C554 H531 0.950 . S
C554 C553 1.397 . S
C554 C555 1.334 . S
C555 H532 0.950 . S
C555 C554 1.334 . S
C555 C556 1.287 . S
C556 C555 1.287 . S
C556 C557 1.524 . S
C556 H575 0.913 . S
C557 H533 0.950 . S
C557 C556 1.524 . S
C557 C558 1.415 . S
C558 H534 0.950 . S
C558 C553 1.363 . S
C558 C557 1.415 . S
C559 H535 0.951 . S
C559 C560 1.366 . S
C559 C561 1.388 . S
C560 C559 1.366 . S
C560 C564 1.385 . S
C561 H536 0.951 1_556 S
C561 C559 1.388 . S
C561 C562 1.366 1_556 S
C562 C561 1.366 1_554 S
C562 C563 1.414 1_554 S
C562 C565 1.499 . S
C563 H537 0.950 1_556 S
C563 C562 1.414 1_556 S
C563 C564 1.374 . S
C564 H538 0.950 . S
C564 C560 1.385 . S
C564 C563 1.374 . S
C565 C562 1.499 . S
C565 C566 1.373 . S
C565 C567 1.389 . S
C566 H539 0.950 . S
C566 C552 1.377 . S
C566 C565 1.373 . S
C567 C551 1.377 . S
C567 C565 1.389 . S
C567 C568 1.524 . S
C568 C567 1.524 . S
C568 C569 1.397 . S
C568 C573 1.363 . S
C569 H540 0.950 . S
C569 C568 1.397 . S
C569 C570 1.334 . S
C570 H541 0.950 1_554 S
C570 C569 1.334 . S
C570 C571 1.287 . S
C571 C570 1.287 . S
C571 C572 1.524 . S
C571 H574 0.999 . S
C572 H542 0.950 . S
C572 C571 1.524 . S
C572 C573 1.415 . S
C573 H543 0.950 . S
C573 C568 1.363 . S
C573 C572 1.415 . S
H574 C571 0.999 . S
H575 C556 0.913 . S
H576 C594 0.951 . S
H577 C596 0.951 . S
H578 C598 0.950 . S
H579 C599 0.950 . S
H580 C601 0.950 . S
H581 C604 0.950 . S
H582 C605 0.950 . S
H583 C607 0.950 . S
H584 C608 0.950 . S
H585 C609 0.951 . S
H586 C611 0.951 . S
H587 C613 0.950 . S
H588 C614 0.950 . S
H589 C616 0.950 . S
H590 C619 0.950 . S
H591 C620 0.950 . S
H592 C622 0.950 . S
H593 C623 0.950 . S
C594 H576 0.951 . S
C594 C595 1.366 . S
C594 C596 1.388 . S
C595 C594 1.366 . S
C595 C599 1.385 . S
C596 H577 0.951 . S
C596 C594 1.388 . S
C596 C597 1.366 . S
C597 C596 1.366 . S
C597 C598 1.414 . S
C597 C600 1.499 . S
C598 H578 0.950 . S
C598 C597 1.414 . S
C598 C599 1.374 . S
C599 H579 0.950 . S
C599 C595 1.385 . S
C599 C598 1.374 . S
C600 C597 1.499 . S
C600 C601 1.373 . S
C600 C602 1.389 . S
C601 H580 0.950 . S
C601 C600 1.373 . S
C601 C617 1.377 . S
C602 C600 1.389 . S
C602 C603 1.524 . S
C602 C616 1.377 . S
C603 C602 1.524 . S
C603 C604 1.397 . S
C603 C608 1.363 . S
C604 H581 0.950 . S
C604 C603 1.397 . S
C604 C605 1.334 . S
C605 H582 0.950 . S
C605 C604 1.334 . S
C605 C606 1.287 . S
C606 C605 1.287 . S
C606 C607 1.524 . S
C606 H625 0.913 . S
C607 H583 0.950 . S
C607 C606 1.524 . S
C607 C608 1.415 . S
C608 H584 0.950 . S
C608 C603 1.363 . S
C608 C607 1.415 . S
C609 H585 0.951 . S
C609 C610 1.366 . S
C609 C611 1.388 . S
C610 C609 1.366 . S
C610 C614 1.385 . S
C611 H586 0.951 . S
C611 C609 1.388 . S
C611 C612 1.366 . S
C612 C611 1.366 . S
C612 C613 1.414 . S
C612 C615 1.499 . S
C613 H587 0.950 . S
C613 C612 1.414 . S
C613 C614 1.374 . S
C614 H588 0.950 . S
C614 C610 1.385 . S
C614 C613 1.374 . S
C615 C612 1.499 . S
C615 C616 1.373 . S
C615 C617 1.389 . S
C616 H589 0.950 . S
C616 C602 1.377 . S
C616 C615 1.373 . S
C617 C601 1.377 . S
C617 C615 1.389 . S
C617 C618 1.524 . S
C618 C617 1.524 . S
C618 C619 1.397 . S
C618 C623 1.363 . S
C619 H590 0.950 . S
C619 C618 1.397 . S
C619 C620 1.334 . S
C620 H591 0.950 . S
C620 C619 1.334 . S
C620 C621 1.287 . S
C621 C620 1.287 . S
C621 C622 1.524 . S
C621 H624 0.999 . S
C622 H592 0.950 . S
C622 C621 1.524 . S
C622 C623 1.415 . S
C623 H593 0.950 . S
C623 C618 1.363 . S
C623 C622 1.415 . S
H624 C621 0.999 . S
H625 C606 0.913 . S
H626 C644 0.951 . S
H627 C646 0.951 . S
H628 C648 0.950 . S
H629 C649 0.950 . S
H630 C651 0.950 . S
H631 C654 0.950 . S
H632 C655 0.950 . S
H633 C657 0.950 . S
H634 C658 0.950 . S
H635 C659 0.951 . S
H636 C661 0.951 . S
H637 C663 0.950 . S
H638 C664 0.950 . S
H639 C666 0.950 . S
H640 C669 0.950 . S
H641 C670 0.948 1_554 S
H642 C672 0.950 . S
H643 C673 0.950 . S
C644 H626 0.951 . S
C644 C645 1.366 . S
C644 C646 1.388 . S
C645 C644 1.366 . S
C645 C649 1.385 . S
C646 H627 0.951 . S
C646 C644 1.388 . S
C646 C647 1.366 . S
C647 C646 1.366 . S
C647 C648 1.414 . S
C647 C650 1.499 . S
C648 H628 0.950 . S
C648 C647 1.414 . S
C648 C649 1.374 . S
C649 H629 0.950 . S
C649 C645 1.385 . S
C649 C648 1.374 . S
C650 C647 1.499 . S
C650 C651 1.373 . S
C650 C652 1.389 . S
C651 H630 0.950 . S
C651 C650 1.373 . S
C651 C667 1.377 . S
C652 C650 1.389 . S
C652 C653 1.524 . S
C652 C666 1.377 . S
C653 C652 1.524 . S
C653 C654 1.397 . S
C653 C658 1.363 . S
C654 H631 0.950 . S
C654 C653 1.397 . S
C654 C655 1.334 . S
C655 H632 0.950 . S
C655 C654 1.334 . S
C655 C656 1.287 . S
C656 C655 1.287 . S
C656 C657 1.524 . S
C656 H675 0.913 . S
C657 H633 0.950 . S
C657 C656 1.524 . S
C657 C658 1.415 . S
C658 H634 0.950 . S
C658 C653 1.363 . S
C658 C657 1.415 . S
C659 H635 0.951 . S
C659 C660 1.366 . S
C659 C661 1.388 . S
C660 C659 1.366 . S
C660 C664 1.385 . S
C661 H636 0.951 . S
C661 C659 1.388 . S
C661 C662 1.366 1_554 S
C662 C661 1.366 1_556 S
C662 C663 1.414 1_556 S
C662 C665 1.499 . S
C663 H637 0.950 . S
C663 C662 1.414 1_554 S
C663 C664 1.374 . S
C664 H638 0.950 . S
C664 C660 1.385 . S
C664 C663 1.374 . S
C665 C662 1.499 . S
C665 C666 1.373 . S
C665 C667 1.389 . S
C666 H639 0.950 . S
C666 C652 1.377 . S
C666 C665 1.373 . S
C667 C651 1.377 . S
C667 C665 1.389 . S
C667 C668 1.524 . S
C668 C667 1.524 . S
C668 C669 1.397 . S
C668 C673 1.363 . S
C669 H640 0.950 . S
C669 C668 1.397 . S
C669 C670 1.336 . S
C670 H641 0.948 1_556 S
C670 C669 1.336 . S
C670 C671 1.287 . S
C671 C670 1.287 . S
C671 C672 1.524 . S
C671 H674 0.999 1_556 S
C672 H642 0.950 . S
C672 C671 1.524 . S
C672 C673 1.415 . S
C673 H643 0.950 . S
C673 C668 1.363 . S
C673 C672 1.415 . S
H674 C671 0.999 1_554 S
H675 C656 0.913 . S
H676 C694 0.951 . S
H677 C696 0.951 . S
H678 C698 0.950 . S
H679 C699 0.950 . S
H680 C701 0.950 . S
H681 C704 0.950 . S
H682 C705 0.950 . S
H683 C707 0.950 . S
H684 C708 0.950 . S
H685 C709 0.951 . S
H686 C711 0.951 1_554 S
H687 C713 0.951 . S
H688 C714 0.950 . S
H689 C716 0.950 . S
H690 C719 0.950 . S
H691 C720 0.950 . S
H692 C722 0.950 . S
H693 C723 0.950 . S
C694 H676 0.951 . S
C694 C695 1.366 . S
C694 C696 1.388 . S
C695 C694 1.366 . S
C695 C699 1.385 . S
C696 H677 0.951 . S
C696 C694 1.388 . S
C696 C697 1.366 . S
C697 C696 1.366 . S
C697 C698 1.414 . S
C697 C700 1.499 . S
C698 H678 0.950 . S
C698 C697 1.414 . S
C698 C699 1.374 . S
C699 H679 0.950 . S
C699 C695 1.385 . S
C699 C698 1.374 . S
C700 C697 1.499 . S
C700 C701 1.373 . S
C700 C702 1.389 . S
C701 H680 0.950 . S
C701 C700 1.373 . S
C701 C717 1.377 . S
C702 C700 1.389 . S
C702 C703 1.524 . S
C702 C716 1.377 . S
C703 C702 1.524 . S
C703 C704 1.397 . S
C703 C708 1.363 . S
C704 H681 0.950 . S
C704 C703 1.397 . S
C704 C705 1.334 . S
C705 H682 0.950 . S
C705 C704 1.334 . S
C705 C706 1.287 . S
C706 C705 1.287 . S
C706 C707 1.524 . S
C706 H725 0.913 . S
C707 H683 0.950 . S
C707 C706 1.524 . S
C707 C708 1.415 . S
C708 H684 0.950 . S
C708 C703 1.363 . S
C708 C707 1.415 . S
C709 H685 0.951 . S
C709 C710 1.366 . S
C709 C711 1.388 . S
C710 C709 1.366 . S
C710 C714 1.385 . S
C711 H686 0.951 1_556 S
C711 C709 1.388 . S
C711 C712 1.366 1_556 S
C712 C711 1.366 1_554 S
C712 C713 1.415 . S
C712 C715 1.499 . S
C713 H687 0.951 . S
C713 C712 1.415 . S
C713 C714 1.372 1_554 S
C714 H688 0.950 . S
C714 C710 1.385 . S
C714 C713 1.372 1_556 S
C715 C712 1.499 . S
C715 C716 1.373 . S
C715 C717 1.389 . S
C716 H689 0.950 . S
C716 C702 1.377 . S
C716 C715 1.373 . S
C717 C701 1.377 . S
C717 C715 1.389 . S
C717 C718 1.524 . S
C718 C717 1.524 . S
C718 C719 1.397 . S
C718 C723 1.363 . S
C719 H690 0.950 . S
C719 C718 1.397 . S
C719 C720 1.334 . S
C720 H691 0.950 . S
C720 C719 1.334 . S
C720 C721 1.287 . S
C721 C720 1.287 . S
C721 C722 1.524 . S
C721 H724 0.999 . S
C722 H692 0.950 . S
C722 C721 1.524 . S
C722 C723 1.415 . S
C723 H693 0.950 . S
C723 C718 1.363 . S
C723 C722 1.415 . S
H724 C721 0.999 . S
H725 C706 0.913 . S
H726 C744 0.951 1_556 S
H727 C746 0.951 . S
H728 C748 0.950 . S
H729 C749 0.950 . S
H730 C751 0.950 . S
H731 C754 0.950 . S
H732 C755 0.950 . S
H733 C757 0.950 . S
H734 C758 0.950 . S
H735 C759 0.951 . S
H736 C761 0.951 . S
H737 C763 0.950 . S
H738 C764 0.950 . S
H739 C766 0.950 . S
H740 C769 0.950 . S
H741 C770 0.950 . S
H742 C772 0.950 . S
H743 C773 0.950 . S
C744 H726 0.951 1_554 S
C744 C745 1.366 . S
C744 C746 1.388 . S
C745 C744 1.366 . S
C745 C749 1.385 . S
C746 H727 0.951 . S
C746 C744 1.388 . S
C746 C747 1.366 . S
C747 C746 1.366 . S
C747 C748 1.414 . S
C747 C750 1.499 . S
C748 H728 0.950 . S
C748 C747 1.414 . S
C748 C749 1.374 . S
C749 H729 0.950 . S
C749 C745 1.385 . S
C749 C748 1.374 . S
C750 C747 1.499 . S
C750 C751 1.373 . S
C750 C752 1.389 . S
C751 H730 0.950 . S
C751 C750 1.373 . S
C751 C767 1.377 . S
C752 C750 1.389 . S
C752 C753 1.524 . S
C752 C766 1.377 . S
C753 C752 1.524 . S
C753 C754 1.397 . S
C753 C758 1.363 1_554 S
C754 H731 0.950 . S
C754 C753 1.397 . S
C754 C755 1.334 . S
C755 H732 0.950 . S
C755 C754 1.334 . S
C755 C756 1.287 1_554 S
C756 C755 1.287 1_556 S
C756 C757 1.524 . S
C756 H775 0.913 . S
C757 H733 0.950 . S
C757 C756 1.524 . S
C757 C758 1.415 . S
C758 H734 0.950 . S
C758 C753 1.363 1_556 S
C758 C757 1.415 . S
C759 H735 0.951 . S
C759 C760 1.366 . S
C759 C761 1.388 . S
C760 C759 1.366 . S
C760 C764 1.385 . S
C761 H736 0.951 . S
C761 C759 1.388 . S
C761 C762 1.366 . S
C762 C761 1.366 . S
C762 C763 1.414 . S
C762 C765 1.499 . S
C763 H737 0.950 . S
C763 C762 1.414 . S
C763 C764 1.374 . S
C764 H738 0.950 . S
C764 C760 1.385 . S
C764 C763 1.374 . S
C765 C762 1.499 . S
C765 C766 1.373 . S
C765 C767 1.389 . S
C766 H739 0.950 . S
C766 C752 1.377 . S
C766 C765 1.373 . S
C767 C751 1.377 . S
C767 C765 1.389 . S
C767 C768 1.524 . S
C768 C767 1.524 . S
C768 C769 1.397 . S
C768 C773 1.363 . S
C769 H740 0.950 . S
C769 C768 1.397 . S
C769 C770 1.334 . S
C770 H741 0.950 . S
C770 C769 1.334 . S
C770 C771 1.287 . S
C771 C770 1.287 . S
C771 C772 1.524 . S
C771 H774 0.999 . S
C772 H742 0.950 . S
C772 C771 1.524 . S
C772 C773 1.415 . S
C773 H743 0.950 . S
C773 C768 1.363 . S
C773 C772 1.415 . S
H774 C771 0.999 . S
H775 C756 0.913 . S
H776 C794 0.951 . S
H777 C796 0.951 . S
H778 C798 0.950 . S
H779 C799 0.950 . S
H780 C801 0.950 . S
H781 C804 0.950 . S
H782 C805 0.950 . S
H783 C807 0.950 . S
H784 C808 0.950 . S
H785 C809 0.951 . S
H786 C811 0.951 . S
H787 C813 0.950 . S
H788 C814 0.950 . S
H789 C816 0.950 . S
H790 C819 0.950 . S
H791 C820 0.950 . S
H792 C822 0.950 . S
H793 C823 0.950 . S
C794 H776 0.951 . S
C794 C795 1.366 . S
C794 C796 1.388 . S
C795 C794 1.366 . S
C795 C799 1.385 . S
C796 H777 0.951 . S
C796 C794 1.388 . S
C796 C797 1.366 . S
C797 C796 1.366 . S
C797 C798 1.414 . S
C797 C800 1.499 . S
C798 H778 0.950 . S
C798 C797 1.414 . S
C798 C799 1.374 . S
C799 H779 0.950 . S
C799 C795 1.385 . S
C799 C798 1.374 . S
C800 C797 1.499 . S
C800 C801 1.373 . S
C800 C802 1.389 . S
C801 H780 0.950 . S
C801 C800 1.373 . S
C801 C817 1.377 . S
C802 C800 1.389 . S
C802 C803 1.524 . S
C802 C816 1.377 . S
C803 C802 1.524 . S
C803 C804 1.397 . S
C803 C808 1.363 . S
C804 H781 0.950 . S
C804 C803 1.397 . S
C804 C805 1.334 . S
C805 H782 0.950 . S
C805 C804 1.334 . S
C805 C806 1.287 . S
C806 C805 1.287 . S
C806 C807 1.524 . S
C806 H825 0.913 . S
C807 H783 0.950 . S
C807 C806 1.524 . S
C807 C808 1.415 . S
C808 H784 0.950 . S
C808 C803 1.363 . S
C808 C807 1.415 . S
C809 H785 0.951 . S
C809 C810 1.366 . S
C809 C811 1.388 . S
C810 C809 1.366 . S
C810 C814 1.385 . S
C811 H786 0.951 . S
C811 C809 1.388 . S
C811 C812 1.366 . S
C812 C811 1.366 . S
C812 C813 1.414 . S
C812 C815 1.499 . S
C813 H787 0.950 . S
C813 C812 1.414 . S
C813 C814 1.374 . S
C814 H788 0.950 . S
C814 C810 1.385 . S
C814 C813 1.374 . S
C815 C812 1.499 . S
C815 C816 1.373 . S
C815 C817 1.389 . S
C816 H789 0.950 . S
C816 C802 1.377 . S
C816 C815 1.373 . S
C817 C801 1.377 . S
C817 C815 1.389 . S
C817 C818 1.524 . S
C818 C817 1.524 . S
C818 C819 1.397 . S
C818 C823 1.363 . S
C819 H790 0.950 . S
C819 C818 1.397 . S
C819 C820 1.334 . S
C820 H791 0.950 . S
C820 C819 1.334 . S
C820 C821 1.287 . S
C821 C820 1.287 . S
C821 C822 1.524 . S
C821 H824 0.999 . S
C822 H792 0.950 . S
C822 C821 1.524 . S
C822 C823 1.415 . S
C823 H793 0.950 . S
C823 C818 1.363 . S
C823 C822 1.415 . S
H824 C821 0.999 . S
H825 C806 0.913 . S
H826 C844 0.951 . S
H827 C846 0.951 . S
H828 C848 0.950 . S
H829 C849 0.950 . S
H830 C851 0.950 . S
H831 C854 0.950 . S
H832 C855 0.950 . S
H833 C857 0.950 . S
H834 C858 0.950 . S
H835 C859 0.951 . S
H836 C861 0.951 . S
H837 C863 0.950 . S
H838 C864 0.950 . S
H839 C866 0.950 . S
H840 C869 0.950 . S
H841 C870 0.950 . S
H842 C872 0.950 . S
H843 C873 0.950 . S
C844 H826 0.951 . S
C844 C845 1.366 . S
C844 C846 1.388 . S
C845 C844 1.366 . S
C845 C849 1.385 . S
C846 H827 0.951 . S
C846 C844 1.388 . S
C846 C847 1.366 . S
C847 C846 1.366 . S
C847 C848 1.414 . S
C847 C850 1.499 . S
C848 H828 0.950 . S
C848 C847 1.414 . S
C848 C849 1.374 . S
C849 H829 0.950 . S
C849 C845 1.385 . S
C849 C848 1.374 . S
C850 C847 1.499 . S
C850 C851 1.373 . S
C850 C852 1.389 . S
C851 H830 0.950 . S
C851 C850 1.373 . S
C851 C867 1.377 . S
C852 C850 1.389 . S
C852 C853 1.524 . S
C852 C866 1.377 . S
C853 C852 1.524 . S
C853 C854 1.397 . S
C853 C858 1.363 . S
C854 H831 0.950 . S
C854 C853 1.397 . S
C854 C855 1.334 . S
C855 H832 0.950 . S
C855 C854 1.334 . S
C855 C856 1.287 . S
C856 C855 1.287 . S
C856 C857 1.524 . S
C856 H875 0.913 . S
C857 H833 0.950 . S
C857 C856 1.524 . S
C857 C858 1.415 . S
C858 H834 0.950 . S
C858 C853 1.363 . S
C858 C857 1.415 . S
C859 H835 0.951 . S
C859 C860 1.366 . S
C859 C861 1.388 . S
C860 C859 1.366 . S
C860 C864 1.385 . S
C861 H836 0.951 . S
C861 C859 1.388 . S
C861 C862 1.366 . S
C862 C861 1.366 . S
C862 C863 1.414 . S
C862 C865 1.499 . S
C863 H837 0.950 . S
C863 C862 1.414 . S
C863 C864 1.374 . S
C864 H838 0.950 . S
C864 C860 1.385 . S
C864 C863 1.374 . S
C865 C862 1.499 . S
C865 C866 1.373 . S
C865 C867 1.389 . S
C866 H839 0.950 . S
C866 C852 1.377 . S
C866 C865 1.373 . S
C867 C851 1.377 . S
C867 C865 1.389 . S
C867 C868 1.524 . S
C868 C867 1.524 . S
C868 C869 1.397 . S
C868 C873 1.363 . S
C869 H840 0.950 . S
C869 C868 1.397 . S
C869 C870 1.335 1_556 S
C870 H841 0.950 . S
C870 C869 1.335 1_554 S
C870 C871 1.286 . S
C871 C870 1.286 . S
C871 C872 1.524 . S
C871 H874 0.999 . S
C872 H842 0.950 . S
C872 C871 1.524 . S
C872 C873 1.415 1_554 S
C873 H843 0.950 . S
C873 C868 1.363 . S
C873 C872 1.415 1_556 S
H874 C871 0.999 . S
H875 C856 0.913 . S
H876 C894 0.951 . S
H877 C896 0.951 . S
H878 C898 0.950 . S
H879 C899 0.950 . S
H880 C901 0.950 . S
H881 C904 0.950 . S
H882 C905 0.950 . S
H883 C907 0.950 . S
H884 C908 0.950 . S
H885 C909 0.951 1_556 S
H886 C911 0.951 . S
H887 C913 0.950 . S
H888 C914 0.950 . S
H889 C916 0.950 . S
H890 C919 0.950 . S
H891 C920 0.950 . S
H892 C922 0.950 . S
H893 C923 0.950 1_556 S
C894 H876 0.951 . S
C894 C895 1.366 . S
C894 C896 1.388 . S
C895 C894 1.366 . S
C895 C899 1.385 . S
C896 H877 0.951 . S
C896 C894 1.388 . S
C896 C897 1.366 . S
C897 C896 1.366 . S
C897 C898 1.414 . S
C897 C900 1.499 . S
C898 H878 0.950 . S
C898 C897 1.414 . S
C898 C899 1.374 . S
C899 H879 0.950 . S
C899 C895 1.385 . S
C899 C898 1.374 . S
C900 C897 1.499 . S
C900 C901 1.373 . S
C900 C902 1.389 . S
C901 H880 0.950 . S
C901 C900 1.373 . S
C901 C917 1.377 . S
C902 C900 1.389 . S
C902 C903 1.524 . S
C902 C916 1.377 . S
C903 C902 1.524 . S
C903 C904 1.397 . S
C903 C908 1.363 . S
C904 H881 0.950 . S
C904 C903 1.397 . S
C904 C905 1.334 . S
C905 H882 0.950 . S
C905 C904 1.334 . S
C905 C906 1.287 . S
C906 C905 1.287 . S
C906 C907 1.524 . S
C906 H925 0.913 . S
C907 H883 0.950 . S
C907 C906 1.524 . S
C907 C908 1.415 . S
C908 H884 0.950 . S
C908 C903 1.363 . S
C908 C907 1.415 . S
C909 H885 0.951 1_554 S
C909 C910 1.366 . S
C909 C911 1.388 . S
C910 C909 1.366 . S
C910 C914 1.385 . S
C911 H886 0.951 . S
C911 C909 1.388 . S
C911 C912 1.366 . S
C912 C911 1.366 . S
C912 C913 1.414 . S
C912 C915 1.499 . S
C913 H887 0.950 . S
C913 C912 1.414 . S
C913 C914 1.374 . S
C914 H888 0.950 . S
C914 C910 1.385 . S
C914 C913 1.374 . S
C915 C912 1.499 . S
C915 C916 1.373 . S
C915 C917 1.389 . S
C916 H889 0.950 . S
C916 C902 1.377 . S
C916 C915 1.373 . S
C917 C901 1.377 . S
C917 C915 1.389 . S
C917 C918 1.524 . S
C918 C917 1.524 . S
C918 C919 1.397 . S
C918 C923 1.363 . S
C919 H890 0.950 . S
C919 C918 1.397 . S
C919 C920 1.334 . S
C920 H891 0.950 . S
C920 C919 1.334 . S
C920 C921 1.287 1_554 S
C921 C920 1.287 1_556 S
C921 C922 1.524 . S
C921 H924 0.999 . S
C922 H892 0.950 . S
C922 C921 1.524 . S
C922 C923 1.415 1_556 S
C923 H893 0.950 1_554 S
C923 C918 1.363 . S
C923 C922 1.415 1_554 S
H924 C921 0.999 . S
H925 C906 0.913 . S
H926 C944 0.951 . S
H927 C946 0.951 . S
H928 C948 0.950 . S
H929 C949 0.950 . S
H930 C951 0.950 . S
H931 C954 0.950 . S
H932 C955 0.950 . S
H933 C957 0.950 . S
H934 C958 0.950 . S
H935 C959 0.951 . S
H936 C961 0.951 . S
H937 C963 0.950 . S
H938 C964 0.950 . S
H939 C966 0.950 . S
H940 C969 0.950 . S
H941 C970 0.950 . S
H942 C972 0.950 . S
H943 C973 0.950 . S
C944 H926 0.951 . S
C944 C945 1.366 . S
C944 C946 1.388 . S
C945 C944 1.366 . S
C945 C949 1.385 . S
C946 H927 0.951 . S
C946 C944 1.388 . S
C946 C947 1.366 . S
C947 C946 1.366 . S
C947 C948 1.414 . S
C947 C950 1.499 . S
C948 H928 0.950 . S
C948 C947 1.414 . S
C948 C949 1.374 . S
C949 H929 0.950 . S
C949 C945 1.385 . S
C949 C948 1.374 . S
C950 C947 1.499 . S
C950 C951 1.373 . S
C950 C952 1.389 . S
C951 H930 0.950 . S
C951 C950 1.373 . S
C951 C967 1.377 . S
C952 C950 1.389 . S
C952 C953 1.524 . S
C952 C966 1.377 . S
C953 C952 1.524 . S
C953 C954 1.397 . S
C953 C958 1.363 . S
C954 H931 0.950 . S
C954 C953 1.397 . S
C954 C955 1.334 . S
C955 H932 0.950 . S
C955 C954 1.334 . S
C955 C956 1.287 . S
C956 C955 1.287 . S
C956 C957 1.524 . S
C956 H975 0.913 . S
C957 H933 0.950 . S
C957 C956 1.524 . S
C957 C958 1.415 . S
C958 H934 0.950 . S
C958 C953 1.363 . S
C958 C957 1.415 . S
C959 H935 0.951 . S
C959 C960 1.366 . S
C959 C961 1.388 . S
C960 C959 1.366 . S
C960 C964 1.385 . S
C961 H936 0.951 . S
C961 C959 1.388 . S
C961 C962 1.366 . S
C962 C961 1.366 . S
C962 C963 1.414 . S
C962 C965 1.499 . S
C963 H937 0.950 . S
C963 C962 1.414 . S
C963 C964 1.374 . S
C964 H938 0.950 . S
C964 C960 1.385 . S
C964 C963 1.374 . S
C965 C962 1.499 . S
C965 C966 1.373 . S
C965 C967 1.389 . S
C966 H939 0.950 . S
C966 C952 1.377 . S
C966 C965 1.373 . S
C967 C951 1.377 . S
C967 C965 1.389 . S
C967 C968 1.524 . S
C968 C967 1.524 . S
C968 C969 1.397 . S
C968 C973 1.363 . S
C969 H940 0.950 . S
C969 C968 1.397 . S
C969 C970 1.334 . S
C970 H941 0.950 . S
C970 C969 1.334 . S
C970 C971 1.287 . S
C971 C970 1.287 . S
C971 C972 1.524 . S
C971 H974 0.999 . S
C972 H942 0.950 . S
C972 C971 1.524 . S
C972 C973 1.415 . S
C973 H943 0.950 . S
C973 C968 1.363 . S
C973 C972 1.415 . S
H974 C971 0.999 . S
H975 C956 0.913 . S
H976 C994 0.951 . S
H977 C996 0.951 . S
H978 C998 0.950 . S
H979 C999 0.950 . S
H980 C1001 0.950 . S
H981 C1004 0.950 . S
H982 C1005 0.950 . S
H983 C1007 0.950 . S
H984 C1008 0.950 . S
H985 C1009 0.951 . S
H986 C1011 0.951 . S
H987 C1013 0.950 . S
H988 C1014 0.950 . S
H989 C1016 0.950 . S
H990 C1019 0.950 . S
H991 C1020 0.950 . S
H992 C1022 0.950 . S
H993 C1023 0.950 . S
C994 H976 0.951 . S
C994 C995 1.366 . S
C994 C996 1.388 . S
C995 C994 1.366 . S
C995 C999 1.385 . S
C996 H977 0.951 . S
C996 C994 1.388 . S
C996 C997 1.366 . S
C997 C996 1.366 . S
C997 C998 1.414 . S
C997 C1000 1.499 . S
C998 H978 0.950 . S
C998 C997 1.414 . S
C998 C999 1.374 . S
C999 H979 0.950 . S
C999 C995 1.385 . S
C999 C998 1.374 . S
C1000 C997 1.499 . S
C1000 C1001 1.373 . S
C1000 C1002 1.389 . S
C1001 H980 0.950 . S
C1001 C1000 1.373 . S
C1001 C1017 1.377 . S
C1002 C1000 1.389 . S
C1002 C1003 1.524 . S
C1002 C1016 1.377 . S
C1003 C1002 1.524 . S
C1003 C1004 1.397 . S
C1003 C1008 1.363 . S
C1004 H981 0.950 . S
C1004 C1003 1.397 . S
C1004 C1005 1.334 . S
C1005 H982 0.950 . S
C1005 C1004 1.334 . S
C1005 C1006 1.287 . S
C1006 C1005 1.287 . S
C1006 C1007 1.524 . S
C1006 H1025 0.913 . S
C1007 H983 0.950 . S
C1007 C1006 1.524 . S
C1007 C1008 1.415 . S
C1008 H984 0.950 . S
C1008 C1003 1.363 . S
C1008 C1007 1.415 . S
C1009 H985 0.951 . S
C1009 C1010 1.366 . S
C1009 C1011 1.388 . S
C1010 C1009 1.366 . S
C1010 C1014 1.385 . S
C1011 H986 0.951 . S
C1011 C1009 1.388 . S
C1011 C1012 1.366 . S
C1012 C1011 1.366 . S
C1012 C1013 1.414 . S
C1012 C1015 1.499 . S
C1013 H987 0.950 . S
C1013 C1012 1.414 . S
C1013 C1014 1.374 . S
C1014 H988 0.950 . S
C1014 C1010 1.385 . S
C1014 C1013 1.374 . S
C1015 C1012 1.499 . S
C1015 C1016 1.373 . S
C1015 C1017 1.389 . S
C1016 H989 0.950 . S
C1016 C1002 1.377 . S
C1016 C1015 1.373 . S
C1017 C1001 1.377 . S
C1017 C1015 1.389 . S
C1017 C1018 1.524 . S
C1018 C1017 1.524 . S
C1018 C1019 1.397 . S
C1018 C1023 1.363 . S
C1019 H990 0.950 . S
C1019 C1018 1.397 . S
C1019 C1020 1.334 . S
C1020 H991 0.950 . S
C1020 C1019 1.334 . S
C1020 C1021 1.287 . S
C1021 C1020 1.287 . S
C1021 C1022 1.524 . S
C1021 H1024 0.999 . S
C1022 H992 0.950 . S
C1022 C1021 1.524 . S
C1022 C1023 1.415 . S
C1023 H993 0.950 . S
C1023 C1018 1.363 . S
C1023 C1022 1.415 . S
H1024 C1021 0.999 . S
H1025 C1006 0.913 . S
C145 C120 1.333 . S
C160 C13 1.422 . S
C195 C15 1.334 . S
C210 C34 1.422 . S
C245 C36 1.335 . S
C260 C55 1.421 . S
C295 C57 1.333 . S
C310 C76 1.422 . S
C345 C97 1.421 . S
C360 C78 1.334 . S
C395 C118 1.421 . S
C410 C99 1.334 . S
C445 C14 1.080 . S
C460 C16 1.074 . S
C495 C35 1.080 . S
C510 C37 1.073 . S
C545 C56 1.080 . S
C560 C58 1.074 . S
C595 C77 1.081 . S
C610 C79 1.074 . S
C645 C100 1.074 . S
C660 C98 1.080 . S
C695 C119 1.080 . S
C710 C121 1.073 . S
C745 C17 1.282 . S
C760 C102 1.168 . S
C795 C38 1.282 . S
C810 C123 1.167 . S
C845 C18 1.167 . S
C860 C59 1.281 . S
C895 C39 1.169 . S
C910 C80 1.280 . S
C945 C101 1.280 . S
C960 C60 1.169 . S
C995 C81 1.168 . S
C1010 C122 1.281 . S
