# Generated by pormake.
# Topology uki, (4)-cn, num edge types: 1
# Building blocks:
#     Node 0, Type 0, BuildingBlock: KOZSID_clean_sbu_0, # of connection points: 4
#     Node 1, Type 0, BuildingBlock: KOZSID_clean_sbu_0, # of connection points: 4
#     Node 2, Type 0, BuildingBlock: KOZSID_clean_sbu_0, # of connection points: 4
#     Node 3, Type 0, BuildingBlock: KOZSID_clean_sbu_0, # of connection points: 4
#     Node 4, Type 0, BuildingBlock: KOZSID_clean_sbu_0, # of connection points: 4
#     Node 5, Type 0, BuildingBlock: KOZSID_clean_sbu_0, # of connection points: 4
#     Node 6, Type 0, BuildingBlock: KOZSID_clean_sbu_0, # of connection points: 4
#     Node 7, Type 0, BuildingBlock: KOZSID_clean_sbu_0, # of connection points: 4
#     Node 8, Type 0, BuildingBlock: KOZSID_clean_sbu_0, # of connection points: 4
#     Node 9, Type 0, BuildingBlock: KOZSID_clean_sbu_0, # of connection points: 4
#     Node 10, Type 0, BuildingBlock: KOZSID_clean_sbu_0, # of connection points: 4
#     Node 11, Type 0, BuildingBlock: KOZSID_clean_sbu_0, # of connection points: 4
#     Node 12, Type 0, BuildingBlock: KOZSID_clean_sbu_0, # of connection points: 4
#     Node 13, Type 0, BuildingBlock: KOZSID_clean_sbu_0, # of connection points: 4
#     Node 14, Type 0, BuildingBlock: KOZSID_clean_sbu_0, # of connection points: 4
#     Node 15, Type 0, BuildingBlock: KOZSID_clean_sbu_0, # of connection points: 4
#     Edge 16, Type (0, 0), BuildingBlock: AJUNOK_clean_linker_0, # of connection points: 2
#     Edge 17, Type (0, 0), BuildingBlock: AJUNOK_clean_linker_0, # of connection points: 2
#     Edge 18, Type (0, 0), BuildingBlock: AJUNOK_clean_linker_0, # of connection points: 2
#     Edge 19, Type (0, 0), BuildingBlock: AJUNOK_clean_linker_0, # of connection points: 2
#     Edge 20, Type (0, 0), BuildingBlock: AJUNOK_clean_linker_0, # of connection points: 2
#     Edge 21, Type (0, 0), BuildingBlock: AJUNOK_clean_linker_0, # of connection points: 2
#     Edge 22, Type (0, 0), BuildingBlock: AJUNOK_clean_linker_0, # of connection points: 2
#     Edge 23, Type (0, 0), BuildingBlock: AJUNOK_clean_linker_0, # of connection points: 2
#     Edge 24, Type (0, 0), BuildingBlock: AJUNOK_clean_linker_0, # of connection points: 2
#     Edge 25, Type (0, 0), BuildingBlock: AJUNOK_clean_linker_0, # of connection points: 2
#     Edge 26, Type (0, 0), BuildingBlock: AJUNOK_clean_linker_0, # of connection points: 2
#     Edge 27, Type (0, 0), BuildingBlock: AJUNOK_clean_linker_0, # of connection points: 2
#     Edge 28, Type (0, 0), BuildingBlock: AJUNOK_clean_linker_0, # of connection points: 2
#     Edge 29, Type (0, 0), BuildingBlock: AJUNOK_clean_linker_0, # of connection points: 2
#     Edge 30, Type (0, 0), BuildingBlock: AJUNOK_clean_linker_0, # of connection points: 2
#     Edge 31, Type (0, 0), BuildingBlock: AJUNOK_clean_linker_0, # of connection points: 2
#     Edge 32, Type (0, 0), BuildingBlock: AJUNOK_clean_linker_0, # of connection points: 2
#     Edge 33, Type (0, 0), BuildingBlock: AJUNOK_clean_linker_0, # of connection points: 2
#     Edge 34, Type (0, 0), BuildingBlock: AJUNOK_clean_linker_0, # of connection points: 2
#     Edge 35, Type (0, 0), BuildingBlock: AJUNOK_clean_linker_0, # of connection points: 2
#     Edge 36, Type (0, 0), BuildingBlock: AJUNOK_clean_linker_0, # of connection points: 2
#     Edge 37, Type (0, 0), BuildingBlock: AJUNOK_clean_linker_0, # of connection points: 2
#     Edge 38, Type (0, 0), BuildingBlock: AJUNOK_clean_linker_0, # of connection points: 2
#     Edge 39, Type (0, 0), BuildingBlock: AJUNOK_clean_linker_0, # of connection points: 2
#     Edge 40, Type (0, 0), BuildingBlock: AJUNOK_clean_linker_0, # of connection points: 2
#     Edge 41, Type (0, 0), BuildingBlock: AJUNOK_clean_linker_0, # of connection points: 2
#     Edge 42, Type (0, 0), BuildingBlock: AJUNOK_clean_linker_0, # of connection points: 2
#     Edge 43, Type (0, 0), BuildingBlock: AJUNOK_clean_linker_0, # of connection points: 2
#     Edge 44, Type (0, 0), BuildingBlock: AJUNOK_clean_linker_0, # of connection points: 2
#     Edge 45, Type (0, 0), BuildingBlock: AJUNOK_clean_linker_0, # of connection points: 2
#     Edge 46, Type (0, 0), BuildingBlock: AJUNOK_clean_linker_0, # of connection points: 2
#     Edge 47, Type (0, 0), BuildingBlock: AJUNOK_clean_linker_0, # of connection points: 2
# Relax obj value: 0.126
# Max RMSD: 0.238
# Mean RMSD: 0.238
data_MOF--net-uki--node1-KOZSID_clean_sbu_0--edge1-AJUNOK_clean_linker_0
_symmetry_space_group_name_H-M    P1
_symmetry_Int_Tables_number       1
_symmetry_cell_setting            triclinic
loop_
_symmetry_equiv_pos_as_xyz
'x, y, z'
_cell_length_a     29.52616
_cell_length_b     29.53346
_cell_length_c     67.161344
_cell_angle_alpha  89.982084
_cell_angle_beta   89.876367
_cell_angle_gamma 89.99919
loop_
_atom_site_label
_atom_site_type_symbol
_atom_site_fract_x
_atom_site_fract_y
_atom_site_fract_z
_atom_type_partial_charge
C0 C 0.19616 0.22751 0.34005 0.0
C1 C 0.22513 0.19068 0.33784 0.0
C2 C 0.21388 0.16972 0.32036 0.0
C3 C 0.17781 0.1937 0.31309 0.0
N4 N 0.16565 0.22865 0.32484 0.0
Co5 Co 0.10717 0.26179 0.32236 0.0
N6 N 0.09909 0.24319 0.2941 0.0
C7 C 0.121 0.20899 0.28506 0.0
C8 C 0.10883 0.20388 0.26547 0.0
C9 C 0.07687 0.23673 0.26203 0.0
C10 C 0.07108 0.25989 0.27983 0.0
N11 N 0.04813 0.29385 0.32015 0.0
C12 C 0.02369 0.3054 0.30385 0.0
C13 C 0.98332 0.32627 0.30928 0.0
C14 C 0.98276 0.32809 0.32963 0.0
C15 C 0.02245 0.30807 0.3355 0.0
N16 N 0.11557 0.28127 0.35052 0.0
C17 C 0.08394 0.30151 0.36196 0.0
C18 C 0.10143 0.32021 0.37893 0.0
C19 C 0.14665 0.31044 0.37838 0.0
C20 C 0.15418 0.28424 0.36149 0.0
N21 N 0.13908 0.3165 0.31314 0.0
C22 C 0.17744 0.39455 0.29574 0.0
C23 C 0.14483 0.39797 0.31092 0.0
C24 C 0.1262 0.35868 0.31941 0.0
C25 C 0.19183 0.35108 0.2902 0.0
C26 C 0.17234 0.31272 0.29902 0.0
N27 N 0.07526 0.20623 0.33097 0.0
C28 C 0.07706 0.13498 0.34869 0.0
C29 C 0.04306 0.11711 0.33639 0.0
C30 C 0.02289 0.14634 0.32255 0.0
C31 C 0.03924 0.19057 0.32015 0.0
C32 C 0.09229 0.17962 0.34589 0.0
H33 H 0.02418 0.21118 0.3087 0.0
H34 H 0.11937 0.19175 0.35521 0.0
H35 H 0.10052 0.36255 0.3307 0.0
H36 H 0.18315 0.27988 0.29388 0.0
C37 C 0.15582 0.18598 0.29493 0.0
C38 C 0.19633 0.25827 0.35754 0.0
C39 C 0.03611 0.29464 0.28321 0.0
C40 C 0.04078 0.31061 0.35456 0.0
H41 H 0.25093 0.17908 0.34804 0.0
H42 H 0.22974 0.14013 0.31388 0.0
H43 H 0.12219 0.17978 0.25483 0.0
H44 H 0.05934 0.24242 0.24812 0.0
H45 H 0.95699 0.33895 0.29958 0.0
H46 H 0.95744 0.34404 0.33895 0.0
H47 H 0.08399 0.341 0.38978 0.0
H48 H 0.17099 0.32183 0.38927 0.0
H49 H 0.13334 0.43076 0.31606 0.0
H50 H 0.21684 0.34658 0.27854 0.0
H51 H 0.09256 0.11432 0.36012 0.0
H52 H 0.99608 0.13444 0.31289 0.0
C53 C 0.30196 1.00326 0.72649 0.0
C54 C 0.31848 0.04569 0.7212 0.0
C55 C 0.31512 0.04879 0.70092 0.0
C56 C 0.29672 1.00838 0.69496 0.0
N57 N 0.28847 0.9799 0.71019 0.0
Co58 Co 0.26082 0.91882 0.708 0.0
N59 N 0.27523 0.91512 0.6791 0.0
C60 C 0.28512 0.95059 0.66724 0.0
C61 C 0.2911 0.93878 0.64768 0.0
C62 C 0.28413 0.89302 0.64707 0.0
C63 C 0.27442 0.87933 0.66642 0.0
N64 N 0.23276 0.85777 0.70554 0.0
C65 C 0.23617 0.82635 0.69079 0.0
C66 C 0.2111 0.78802 0.69549 0.0
C67 C 0.19034 0.7964 0.71342 0.0
C68 C 0.20411 0.83904 0.71882 0.0
N69 N 0.24648 0.92302 0.73687 0.0
C70 C 0.21615 0.89733 0.74668 0.0
C71 C 0.21373 0.90759 0.76661 0.0
C72 C 0.24424 0.94209 0.76945 0.0
C73 C 0.26354 0.95113 0.75102 0.0
N74 N 0.20154 0.9467 0.70185 0.0
C75 C 0.11247 0.98 0.69698 0.0
C76 C 0.14206 0.99906 0.71098 0.0
C77 C 0.18617 0.98223 0.71309 0.0
C78 C 0.12904 0.9445 0.68512 0.0
C79 C 0.17356 0.92863 0.68767 0.0
N80 N 0.31937 0.89076 0.71487 0.0
C81 C 0.3604 0.83935 0.73618 0.0
C82 C 0.40204 0.85727 0.73001 0.0
C83 C 0.40135 0.89135 0.71536 0.0
C84 C 0.35969 0.90742 0.70791 0.0
C85 C 0.31991 0.85637 0.72852 0.0
H86 H 0.36004 0.93415 0.69694 0.0
H87 H 0.28889 0.84265 0.73435 0.0
H88 H 0.20735 0.99723 0.72434 0.0
H89 H 0.18488 0.90094 0.67847 0.0
C90 C 0.2934 0.99335 0.67532 0.0
C91 C 0.29585 0.98814 0.74716 0.0
C92 C 0.25998 0.83316 0.67164 0.0
C93 C 0.1967 0.85953 0.7374 0.0
H94 H 0.3311 0.07194 0.73095 0.0
H95 H 0.32612 0.07663 0.6916 0.0
H96 H 0.30006 0.96069 0.63536 0.0
H97 H 0.28498 0.87238 0.63376 0.0
H98 H 0.20783 0.75726 0.68688 0.0
H99 H 0.16901 0.77346 0.72181 0.0
H100 H 0.19356 0.89084 0.77789 0.0
H101 H 0.25141 0.95866 0.78346 0.0
H102 H 0.13083 0.02595 0.72077 0.0
H103 H 0.10764 0.92887 0.67399 0.0
H104 H 0.35885 0.81333 0.74754 0.0
H105 H 0.43263 0.90576 0.7098 0.0
C106 C 0.83352 0.80598 0.33967 0.0
C107 C 0.79535 0.83116 0.33487 0.0
C108 C 0.80408 0.85182 0.31698 0.0
C109 C 0.84667 0.83769 0.31161 0.0
N110 N 0.86507 0.80891 0.3249 0.0
Co111 Co 0.92514 0.77864 0.32196 0.0
N112 N 0.92933 0.79298 0.29306 0.0
C113 C 0.90342 0.82302 0.28327 0.0
C114 C 0.91348 0.82535 0.26331 0.0
C115 C 0.94805 0.79495 0.26037 0.0
C116 C 0.95727 0.77578 0.27877 0.0
N117 N 0.98612 0.75038 0.31943 0.0
C118 C 1.00967 0.73745 0.30303 0.0
C119 C 0.05176 0.72007 0.3082 0.0
C120 C 0.05455 0.72228 0.32852 0.0
C121 C 1.01425 0.74087 0.33461 0.0
N122 N 0.921 0.76323 0.35078 0.0
C123 C 0.95604 0.75117 0.36243 0.0
C124 C 0.94403 0.74439 0.38193 0.0
C125 C 0.89856 0.75313 0.38273 0.0
C126 C 0.88524 0.76471 0.36356 0.0
N127 N 0.89532 0.72054 0.31476 0.0
C128 C 0.85807 0.64147 0.2971 0.0
C129 C 0.90027 0.64055 0.30688 0.0
C130 C 0.91721 0.67973 0.31627 0.0
C131 C 0.8339 0.68231 0.29798 0.0
C132 C 0.85358 0.72121 0.30589 0.0
N133 N 0.95426 0.83711 0.32845 0.0
C134 C 0.95328 0.9084 0.34619 0.0
C135 C 0.98783 0.9258 0.33403 0.0
C136 C 1.00619 0.89709 0.31945 0.0
C137 C 0.98916 0.8531 0.31697 0.0
C138 C 0.93732 0.86412 0.34329 0.0
H139 H 1.00338 0.83258 0.30525 0.0
H140 H 0.9102 0.85237 0.35272 0.0
H141 H 0.94913 0.677 0.32391 0.0
H142 H 0.83489 0.75191 0.30386 0.0
C143 C 0.86642 0.84343 0.29278 0.0
C144 C 0.83974 0.78184 0.35875 0.0
C145 C 0.99449 0.74356 0.28241 0.0
C146 C 0.9987 0.74268 0.35423 0.0
H147 H 0.76428 0.83424 0.34333 0.0
H148 H 0.78115 0.87281 0.30846 0.0
H149 H 0.89675 0.84564 0.25209 0.0
H150 H 0.96469 0.78786 0.24634 0.0
H151 H 0.07781 0.70723 0.29835 0.0
H152 H 0.08197 0.71015 0.33777 0.0
H153 H 0.96565 0.73401 0.3941 0.0
H154 H 0.87793 0.75237 0.39607 0.0
H155 H 0.92144 0.61075 0.30672 0.0
H156 H 0.8003 0.68538 0.29174 0.0
H157 H 0.93826 0.92908 0.35777 0.0
H158 H 0.03245 0.90903 0.30947 0.0
C159 C 0.72539 0.03384 0.72143 0.0
C160 C 0.69865 0.99753 0.71545 0.0
C161 C 0.70254 0.99451 0.69518 0.0
C162 C 0.73032 0.02966 0.68981 0.0
N163 N 0.74351 0.05505 0.7054 0.0
Co164 Co 0.77868 0.11207 0.70378 0.0
N165 N 0.76558 0.11889 0.67493 0.0
C166 C 0.7564 0.08405 0.66268 0.0
C167 C 0.76112 0.09474 0.64295 0.0
C168 C 0.77399 0.13925 0.64276 0.0
C169 C 0.77398 0.1541 0.66243 0.0
N170 N 0.81428 0.16907 0.70189 0.0
C171 C 0.81822 0.19888 0.68648 0.0
C172 C 0.85932 0.22165 0.68786 0.0
C173 C 0.87853 0.20982 0.70571 0.0
C174 C 0.8499 0.17811 0.71369 0.0
N175 N 0.79221 0.10469 0.73254 0.0
C176 C 0.82708 0.12442 0.74203 0.0
C177 C 0.83043 0.11126 0.76158 0.0
C178 C 0.79583 0.08083 0.76445 0.0
C179 C 0.77324 0.07698 0.74642 0.0
N180 N 0.83441 0.07747 0.69728 0.0
C181 C 0.92255 0.04087 0.694 0.0
C182 C 0.89081 0.02259 0.70737 0.0
C183 C 0.84701 0.04109 0.70867 0.0
C184 C 0.90765 0.07511 0.68112 0.0
C185 C 0.86377 0.09274 0.68295 0.0
N186 N 0.72401 0.14658 0.71098 0.0
C187 C 0.68848 0.19791 0.73421 0.0
C188 C 0.64519 0.18422 0.7281 0.0
C189 C 0.64243 0.15274 0.71245 0.0
C190 C 0.68218 0.13475 0.70394 0.0
C191 C 0.72716 0.17903 0.72544 0.0
H192 H 0.67906 0.10981 0.69228 0.0
H193 H 0.75977 0.18897 0.73117 0.0
H194 H 0.82413 0.0273 0.71963 0.0
H195 H 0.85466 0.1203 0.6733 0.0
C196 C 0.73986 0.04325 0.67031 0.0
C197 C 0.73858 0.04222 0.74229 0.0
C198 C 0.78761 0.19998 0.66895 0.0
C199 C 0.85437 0.15638 0.73219 0.0
H200 H 0.67976 0.97443 0.72483 0.0
H201 H 0.6862 0.97021 0.6855 0.0
H202 H 0.75633 0.07275 0.63024 0.0
H203 H 0.78364 0.158 0.62958 0.0
H204 H 0.87528 0.24265 0.67667 0.0
H205 H 0.91041 0.22157 0.71172 0.0
H206 H 0.85519 0.12218 0.77243 0.0
H207 H 0.78918 0.06223 0.77803 0.0
H208 H 0.90032 0.99555 0.71742 0.0
H209 H 0.93016 0.08914 0.66996 0.0
H210 H 0.69267 0.22143 0.74643 0.0
H211 H 0.60978 0.14139 0.70709 0.0
C212 C 0.2033 0.29641 0.93706 0.0
C213 C 0.24638 0.30741 0.94374 0.0
C214 C 0.2446 0.30717 0.96408 0.0
C215 C 0.20078 0.29595 0.96873 0.0
N216 N 0.17433 0.28961 0.95265 0.0
Co217 Co 0.10914 0.27042 0.95327 0.0
N218 N 0.1039 0.28041 0.98267 0.0
C219 C 0.13882 0.28732 0.9952 0.0
C220 C 0.12603 0.29034 0.0148 0.0
C221 C 0.08013 0.28422 0.01479 0.0
C222 C 0.06751 0.2777 0.99511 0.0
N223 N 0.04362 0.25232 0.95362 0.0
C224 C 1.01188 0.2551 0.9683 0.0
C225 C 0.97027 0.23878 0.96188 0.0
C226 C 0.97614 0.22461 0.94272 0.0
C227 C 0.02076 0.23303 0.93849 0.0
N228 N 0.11456 0.25913 0.92395 0.0
C229 C 0.08335 0.23858 0.91243 0.0
C230 C 0.09536 0.23588 0.89276 0.0
C231 C 0.13714 0.25539 0.89166 0.0
C232 C 0.14858 0.26846 0.91087 0.0
N233 N 0.12804 0.20695 0.95894 0.0
C234 C 0.16308 0.12725 0.97653 0.0
C235 C 0.11873 0.14153 0.98023 0.0
C236 C 0.10208 0.18096 0.97139 0.0
C237 C 0.18792 0.15111 0.96206 0.0
C238 C 0.16952 0.19038 0.95322 0.0
N239 N 0.0904 0.33412 0.94843 0.0
C240 C 0.04033 0.38926 0.9332 0.0
C241 C 0.05713 0.42411 0.94539 0.0
C242 C 0.09198 0.41282 0.95866 0.0
C243 C 0.1081 0.36817 0.95988 0.0
C244 C 0.05743 0.34484 0.93489 0.0
H245 H 0.13433 0.36125 0.97051 0.0
H246 H 0.04296 0.31906 0.92555 0.0
H247 H 0.0689 0.19133 0.97566 0.0
H248 H 0.19001 0.20829 0.94255 0.0
C249 C 0.18269 0.29338 0.98791 0.0
C250 C 0.19314 0.28715 0.91599 0.0
C251 C 0.02125 0.26534 0.98927 0.0
C252 C 0.04123 0.22664 0.92007 0.0
H253 H 0.2764 0.31346 0.93486 0.0
H254 H 0.27209 0.31414 0.97427 0.0
H255 H 0.1475 0.2963 0.02757 0.0
H256 H 0.05846 0.28356 0.02781 0.0
H257 H 0.93927 0.23577 0.97041 0.0
H258 H 0.95085 0.20996 0.93301 0.0
H259 H 0.07562 0.22232 0.88058 0.0
H260 H 0.15699 0.25927 0.87821 0.0
H261 H 0.09746 0.12336 0.99068 0.0
H262 H 0.22221 0.1411 0.95838 0.0
H263 H 1.01302 0.39577 0.92286 0.0
H264 H 0.10664 0.43836 0.96826 0.0
C265 C 0.25744 1.01577 0.05241 0.0
C266 C 0.25713 0.06061 0.05866 0.0
C267 C 0.25391 0.05996 0.07894 0.0
C268 C 0.25466 1.015 0.08398 0.0
N269 N 0.25828 0.98697 0.06826 0.0
Co270 Co 0.27994 0.92283 0.06997 0.0
N271 N 0.26447 0.91864 0.09895 0.0
C272 C 0.25385 0.95393 0.11079 0.0
C273 C 0.2474 0.94229 0.13033 0.0
C274 C 0.2551 0.89676 0.1311 0.0
C275 C 0.26594 0.8831 0.11187 0.0
N276 N 0.30453 0.85966 0.07213 0.0
C277 C 0.30486 0.8298 0.08769 0.0
C278 C 0.3283 0.79066 0.08274 0.0
C279 C 0.34483 0.79688 0.06388 0.0
C280 C 0.33 0.83898 0.05822 0.0
N281 N 0.29497 0.92757 0.04086 0.0
C282 C 0.32526 0.90094 0.03153 0.0
C283 C 0.33972 0.91816 0.0137 0.0
C284 C 0.31668 0.95803 1.01149 0.0
C285 C 0.28691 0.96161 0.02744 0.0
N286 N 0.34123 0.9462 0.0767 0.0
C287 C 0.43066 0.976 0.08409 0.0
C288 C 0.40453 0.99525 0.06896 0.0
C289 C 0.3604 0.9801 0.06556 0.0
C290 C 0.41098 0.94159 0.0956 0.0
C291 C 0.36631 0.92753 0.09179 0.0
N292 N 0.21874 0.89843 0.06274 0.0
C293 C 0.16911 0.83328 0.05966 0.0
C294 C 0.144 0.85455 0.04474 0.0
C295 C 0.15385 0.89995 0.04064 0.0
C296 C 0.19061 0.92123 0.04997 0.0
C297 C 0.20555 0.85586 0.06857 0.0
H298 H 0.1959 0.95586 0.04637 0.0
H299 H 0.22294 0.83771 0.07988 0.0
H300 H 0.34251 0.99574 0.05355 0.0
H301 H 0.35261 0.9011 0.10099 0.0
C302 C 0.25209 0.99775 0.10321 0.0
C303 C 0.25769 1.0016 0.03128 0.0
C304 C 0.28333 0.83758 0.10728 0.0
C305 C 0.33981 0.86057 0.04023 0.0
H306 H 0.25872 0.09066 0.04946 0.0
H307 H 0.25207 0.08881 0.08884 0.0
H308 H 0.23955 0.96451 0.14268 0.0
H309 H 0.25519 0.87648 0.14452 0.0
H310 H 0.33358 0.76096 0.09187 0.0
H311 H 0.36555 0.7736 0.05538 0.0
H312 H 0.36574 0.90466 1.004 0.0
H313 H 0.32406 0.98321 1.00026 0.0
H314 H 0.41847 0.02128 0.05937 0.0
H315 H 0.42992 0.9257 0.10749 0.0
H316 H 0.16117 0.79903 0.06426 0.0
H317 H 0.13435 0.91863 0.02974 0.0
C318 C 0.83137 0.73405 0.94016 0.0
C319 C 0.78853 0.72175 0.94676 0.0
C320 C 0.79022 0.72103 0.9671 0.0
C321 C 0.83379 0.73297 0.9718 0.0
N322 N 0.86016 0.74064 0.95575 0.0
Co323 Co 0.92487 0.76133 0.95643 0.0
N324 N 0.93019 0.75 0.98573 0.0
C325 C 0.89554 0.74106 0.99822 0.0
C326 C 0.90853 0.73667 0.01773 0.0
C327 C 0.95423 0.74407 0.0177 0.0
C328 C 0.96653 0.75271 0.99811 0.0
N329 N 0.98958 0.78187 0.9569 0.0
C330 C 0.02111 0.78015 0.97161 0.0
C331 C 0.06201 0.7987 0.96537 0.0
C332 C 0.05586 0.81313 0.94628 0.0
C333 C 1.0118 0.80268 0.94192 0.0
N334 N 0.91946 0.77327 0.92716 0.0
C335 C 0.95017 0.79489 0.9157 0.0
C336 C 0.93839 0.79739 0.89602 0.0
C337 C 0.89725 0.77662 0.89485 0.0
C338 C 0.88595 0.76308 0.91404 0.0
N339 N 0.90425 0.82388 0.96241 0.0
C340 C 0.86747 0.90579 0.97711 0.0
C341 C 0.9089 0.88915 0.98405 0.0
C342 C 0.92663 0.8488 0.97649 0.0
C343 C 0.84591 0.88159 0.96182 0.0
C344 C 0.86512 0.84119 0.95451 0.0
N345 N 0.94545 0.6984 0.95112 0.0
C346 C 0.99696 0.64521 0.93539 0.0
C347 C 0.98007 0.60915 0.94689 0.0
C348 C 0.94464 0.61893 0.96016 0.0
C349 C 0.92788 0.66324 0.96198 0.0
C350 C 0.9792 0.68924 0.93766 0.0
H351 H 0.90113 0.66892 0.97255 0.0
H352 H 0.99367 0.71595 0.9288 0.0
H353 H 0.95759 0.83707 0.98289 0.0
H354 H 0.84731 0.82334 0.94298 0.0
C355 C 0.85181 0.73457 0.99096 0.0
C356 C 0.84146 0.74427 0.91919 0.0
C357 C 1.01205 0.76798 0.99242 0.0
C358 C 0.99155 0.80848 0.92346 0.0
H359 H 0.75875 0.7153 0.93784 0.0
H360 H 0.7629 0.71283 0.97725 0.0
H361 H 0.8873 0.72908 0.03045 0.0
H362 H 0.97592 0.74438 0.03067 0.0
H363 H 0.09275 0.80286 0.97391 0.0
H364 H 0.08061 0.8292 0.93669 0.0
H365 H 0.95778 0.81189 0.88389 0.0
H366 H 0.87744 0.77264 0.88142 0.0
H367 H 0.92667 0.90591 0.99606 0.0
H368 H 0.81397 0.89328 0.95581 0.0
H369 H 0.02474 0.63989 0.9251 0.0
H370 H 0.92993 0.59242 0.96926 0.0
C371 C 0.80599 0.03054 0.04989 0.0
C372 C 0.83185 0.99257 0.05434 0.0
C373 C 0.83632 0.99147 0.07461 0.0
C374 C 0.81295 0.02855 0.08139 0.0
N375 N 0.79414 0.05308 0.0667 0.0
Co376 Co 0.75698 0.10867 0.07022 0.0
N377 N 0.77927 0.11807 0.09789 0.0
C378 C 0.80316 0.08787 0.10866 0.0
C379 C 0.82157 0.10619 0.12552 0.0
C380 C 0.80774 0.15034 0.12563 0.0
C381 C 0.77974 0.15627 0.1092 0.0
N382 N 0.71912 0.16381 0.07392 0.0
C383 C 0.71771 0.19419 0.08918 0.0
C384 C 0.67886 0.22067 0.08789 0.0
C385 C 0.65647 0.20774 0.07098 0.0
C386 C 0.68191 0.17331 0.0631 0.0
N387 N 0.73516 0.09928 0.04247 0.0
C388 C 0.69764 0.11771 0.03459 0.0
C389 C 0.69062 0.10496 0.01517 0.0
C390 C 0.72583 0.07635 1.01061 0.0
C391 C 0.75228 0.07313 0.0276 0.0
N392 N 0.70604 0.07175 0.08015 0.0
C393 C 0.62025 0.03377 0.08745 0.0
C394 C 0.64889 1.0158 0.07277 0.0
C395 C 0.69167 0.03497 0.06948 0.0
C396 C 0.63761 0.06793 0.09978 0.0
C397 C 0.68059 0.08619 0.09598 0.0
N398 N 0.80703 0.1457 0.05981 0.0
C399 C 0.8346 0.19893 0.03536 0.0
C400 C 0.87958 0.19101 0.0411 0.0
C401 C 0.8869 0.16192 0.05735 0.0
C402 C 0.85044 0.13916 0.06624 0.0
C403 C 0.79899 0.17648 0.04501 0.0
H404 H 0.85762 0.11548 0.07801 0.0
H405 H 0.76494 0.18288 0.03999 0.0
H406 H 0.71182 0.02177 0.0574 0.0
H407 H 0.69197 0.11381 0.10517 0.0
C408 C 0.81567 0.04616 0.10059 0.0
C409 C 0.79104 0.04224 0.0297 0.0
C410 C 0.75016 0.19623 0.106 0.0
C411 C 0.67332 0.15057 0.04518 0.0
H412 H 0.84605 0.96821 0.04404 0.0
H413 H 0.85604 0.96767 0.08326 0.0
H414 H 0.8447 0.09021 0.13585 0.0
H415 H 0.81772 0.17506 0.13663 0.0
H416 H 0.66695 0.24584 0.09835 0.0
H417 H 0.62509 0.22147 0.06528 0.0
H418 H 0.66375 0.11589 1.00535 0.0
H419 H 0.73103 0.05928 0.99654 0.0
H420 H 0.63734 0.98889 0.06307 0.0
H421 H 0.61746 0.08169 0.11184 0.0
H422 H 0.82685 0.22112 0.02299 0.0
H423 H 0.92065 0.15603 0.06305 0.0
C424 C 0.70712 0.72546 0.8381 0.0
C425 C 0.7444 0.69872 0.83351 0.0
C426 C 0.73626 0.67993 0.81521 0.0
C427 C 0.69483 0.69643 0.8095 0.0
N428 N 0.67648 0.72484 0.82299 0.0
Co429 Co 0.61698 0.7563 0.82012 0.0
N430 N 0.61356 0.74336 0.79106 0.0
C431 C 0.63976 0.71391 0.78103 0.0
C432 C 0.63026 0.71257 0.76102 0.0
C433 C 0.59569 0.74297 0.75829 0.0
C434 C 0.58589 0.76108 0.77686 0.0
N435 N 0.55624 0.78514 0.81769 0.0
C436 C 0.53278 0.79823 0.80133 0.0
C437 C 0.49068 0.81563 0.80657 0.0
C438 C 0.48778 0.81329 0.82688 0.0
C439 C 0.52802 0.79459 0.83291 0.0
N440 N 0.62062 0.77039 0.84908 0.0
C441 C 0.58562 0.78286 0.86074 0.0
C442 C 0.59739 0.78876 0.88031 0.0
C443 C 0.64264 0.779 0.88115 0.0
C444 C 0.65606 0.76775 0.86194 0.0
N445 N 0.6476 0.81457 0.81353 0.0
C446 C 0.68503 0.89304 0.79546 0.0
C447 C 0.64193 0.89383 0.80444 0.0
C448 C 0.62478 0.85505 0.81404 0.0
C449 C 0.71065 0.85352 0.7981 0.0
C450 C 0.69091 0.81461 0.80612 0.0
N451 N 0.58691 0.69806 0.82599 0.0
C452 C 0.58557 0.62654 0.84347 0.0
C453 C 0.55218 0.60973 0.83061 0.0
C454 C 0.53482 0.63912 0.81612 0.0
C455 C 0.55249 0.68292 0.81408 0.0
C456 C 0.60236 0.67059 0.84094 0.0
H457 H 0.5391 0.70396 0.80239 0.0
H458 H 0.62884 0.68179 0.85077 0.0
H459 H 0.59213 0.85795 0.82106 0.0
H460 H 0.71116 0.78458 0.80544 0.0
C461 C 0.676 0.69237 0.79048 0.0
C462 C 0.70122 0.74973 0.8571 0.0
C463 C 0.54816 0.79251 0.78069 0.0
C464 C 0.54326 0.79222 0.85252 0.0
H465 H 0.77459 0.69353 0.8423 0.0
H466 H 0.75882 0.65842 0.80671 0.0
H467 H 0.64719 0.69274 0.74968 0.0
H468 H 0.5793 0.75062 0.74429 0.0
H469 H 0.4647 0.82858 0.79675 0.0
H470 H 0.46029 0.8253 0.83617 0.0
H471 H 0.57573 0.79916 0.8925 0.0
H472 H 0.66306 0.77885 0.89451 0.0
H473 H 0.62064 0.92358 0.8036 0.0
H474 H 0.74564 0.85155 0.79344 0.0
H475 H 0.59912 0.60563 0.85529 0.0
H476 H 0.50882 0.62784 0.80591 0.0
C477 C 0.81025 0.50937 0.22101 0.0
C478 C 0.83729 0.5458 0.21543 0.0
C479 C 0.83819 0.54647 0.19511 0.0
C480 C 0.81259 0.5101 0.18935 0.0
N481 N 0.79562 0.48632 0.20478 0.0
Co482 Co 0.76128 0.42838 0.20296 0.0
N483 N 0.77977 0.41879 0.17469 0.0
C484 C 0.80217 0.44872 0.16316 0.0
C485 C 0.82056 0.42958 0.14642 0.0
C486 C 0.80822 0.38508 0.14719 0.0
C487 C 0.78077 0.37994 0.16387 0.0
N488 N 0.72629 0.37072 0.2009 0.0
C489 C 0.72413 0.33942 0.18598 0.0
C490 C 0.68917 0.30888 0.18952 0.0
C491 C 0.66948 0.32094 0.20721 0.0
C492 C 0.69274 0.35849 0.21343 0.0
N493 N 0.74375 0.43768 0.23132 0.0
C494 C 0.70919 0.41699 0.24068 0.0
C495 C 0.70432 0.43048 0.26013 0.0
C496 C 0.73782 0.46191 0.26317 0.0
C497 C 0.76142 0.46577 0.24535 0.0
N498 N 0.7064 0.4619 0.19461 0.0
C499 C 0.61833 0.49788 0.18968 0.0
C500 C 0.64896 0.51695 0.20326 0.0
C501 C 0.69265 0.49891 0.20532 0.0
C502 C 0.63406 0.46214 0.17772 0.0
C503 C 0.67821 0.4451 0.18022 0.0
N504 N 0.81525 0.39499 0.21204 0.0
C505 C 0.84878 0.34381 0.23588 0.0
C506 C 0.89248 0.35753 0.23035 0.0
C507 C 0.89662 0.38848 0.2146 0.0
C508 C 0.85774 0.40658 0.20561 0.0
C509 C 0.81083 0.36283 0.2266 0.0
H510 H 0.86227 0.43114 0.19395 0.0
H511 H 0.77782 0.35284 0.23184 0.0
H512 H 0.71441 0.51356 0.21646 0.0
H513 H 0.68868 0.41697 0.1711 0.0
C514 C 0.81404 0.49117 0.17042 0.0
C515 C 0.79716 0.49959 0.24175 0.0
C516 C 0.75158 0.34008 0.16749 0.0
C517 C 0.68589 0.38159 0.2314 0.0
H518 H 0.85524 0.56918 0.22496 0.0
H519 H 0.858 0.5688 0.18573 0.0
H520 H 0.8427 0.44539 0.13559 0.0
H521 H 0.81784 0.3596 0.13642 0.0
H522 H 0.67776 0.28159 0.18006 0.0
H523 H 0.64128 0.30448 0.21456 0.0
H524 H 0.67997 0.41829 0.27094 0.0
H525 H 0.74369 0.48042 0.27683 0.0
H526 H 0.63865 0.54426 0.21301 0.0
H527 H 0.61207 0.44674 0.16675 0.0
H528 H 0.84379 0.31994 0.24794 0.0
H529 H 0.92968 0.39928 0.20945 0.0
C530 C 0.32975 0.30426 0.8345 0.0
C531 C 0.29247 0.33015 0.82915 0.0
C532 C 0.30241 0.34942 0.81109 0.0
C533 C 0.34488 0.33398 0.80626 0.0
N534 N 0.36213 0.30567 0.82003 0.0
Co535 Co 0.42261 0.27571 0.81846 0.0
N536 N 0.42924 0.28901 0.78951 0.0
C537 C 0.4045 0.3192 0.77918 0.0
C538 C 0.41634 0.32126 0.75942 0.0
C539 C 0.451 0.29074 0.75718 0.0
C540 C 0.4586 0.27184 0.7758 0.0
N541 N 0.48319 0.24613 0.81708 0.0
C542 C 0.50806 0.23256 0.80113 0.0
C543 C 0.54922 0.21434 0.80714 0.0
C544 C 0.55017 0.21684 0.82748 0.0
C545 C 0.50978 0.2364 0.83277 0.0
N546 N 0.41624 0.2623 0.84743 0.0
C547 C 0.45027 0.25056 0.85971 0.0
C548 C 0.43674 0.24508 0.87911 0.0
C549 C 0.39135 0.25436 0.87916 0.0
C550 C 0.37963 0.26495 0.85969 0.0
N551 N 0.39339 0.21788 0.81168 0.0
C552 C 0.35873 0.13544 0.79723 0.0
C553 C 0.39202 0.13608 0.81213 0.0
C554 C 0.40859 0.17766 0.81928 0.0
C555 C 0.34187 0.17694 0.79045 0.0
C556 C 0.35964 0.21746 0.79775 0.0
N557 N 0.4518 0.3341 0.82469 0.0
C558 C 0.45097 0.4066 0.84137 0.0
C559 C 0.48784 0.42169 0.82995 0.0
C560 C 0.50691 0.39143 0.81622 0.0
C561 C 0.48867 0.34801 0.8139 0.0
C562 C 0.43373 0.36274 0.83864 0.0
H563 H 0.50374 0.32625 0.80287 0.0
H564 H 0.40503 0.35253 0.84749 0.0
H565 H 0.43464 0.17725 0.83052 0.0
H566 H 0.34706 0.24847 0.79147 0.0
C567 C 0.36661 0.33981 0.78788 0.0
C568 C 0.33463 0.28179 0.854 0.0
C569 C 0.4961 0.24044 0.78018 0.0
C570 C 0.49311 0.2402 0.85216 0.0
H571 H 0.26148 0.33504 0.8375 0.0
H572 H 0.28065 0.37098 0.80226 0.0
H573 H 0.40076 0.34147 0.74786 0.0
H574 H 0.46893 0.28356 0.74348 0.0
H575 H 0.57613 0.20128 0.7978 0.0
H576 H 0.57666 0.20475 0.83724 0.0
H577 H 0.45727 0.23489 0.89167 0.0
H578 H 0.36962 0.25437 0.89216 0.0
H579 H 0.40558 0.10476 0.81802 0.0
H580 H 0.31639 0.17819 0.77889 0.0
H581 H 0.43528 0.42867 0.85226 0.0
H582 H 0.53485 0.40165 0.80676 0.0
C583 C 0.23793 0.52655 0.22396 0.0
C584 C 0.2203 0.48497 0.21817 0.0
C585 C 0.22182 0.48397 0.19781 0.0
C586 C 0.24026 0.52474 0.19231 0.0
N587 N 0.25031 0.55149 0.20791 0.0
Co588 Co 0.27826 0.61261 0.2064 0.0
N589 N 0.26167 0.61935 0.17782 0.0
C590 C 0.25008 0.5852 0.16554 0.0
C591 C 0.24295 0.59883 0.1463 0.0
C592 C 0.25101 0.64441 0.14632 0.0
C593 C 0.26249 0.65619 0.1657 0.0
N594 N 0.30672 0.67368 0.20464 0.0
C595 C 0.3033 0.70632 0.19038 0.0
C596 C 0.32927 0.7438 0.19539 0.0
C597 C 0.35063 0.73366 0.21295 0.0
C598 C 0.33633 0.69087 0.21786 0.0
N599 N 0.29468 0.60535 0.23494 0.0
C600 C 0.32583 0.62987 0.24476 0.0
C601 C 0.32981 0.6174 0.26439 0.0
C602 C 0.29942 0.58267 0.26703 0.0
C603 C 0.2786 0.5758 0.24879 0.0
N604 N 0.33697 0.58508 0.19873 0.0
C605 C 0.42683 0.55471 0.19246 0.0
C606 C 0.39824 0.53343 0.20633 0.0
C607 C 0.35371 0.54893 0.20918 0.0
C608 C 0.40823 0.5898 0.18095 0.0
C609 C 0.36353 0.60437 0.18429 0.0
N610 N 0.22038 0.6405 0.21477 0.0
C611 C 0.18137 0.69136 0.23718 0.0
C612 C 0.13901 0.6751 0.23114 0.0
C613 C 0.13836 0.6418 0.21614 0.0
C614 C 0.17935 0.62518 0.20808 0.0
C615 C 0.22117 0.67377 0.22895 0.0
H616 H 0.17788 0.59928 0.19676 0.0
H617 H 0.25274 0.68636 0.23464 0.0
H618 H 0.33342 0.53257 0.22044 0.0
H619 H 0.35107 0.63227 0.17554 0.0
C620 C 0.24191 0.54181 0.17296 0.0
C621 C 0.2457 0.53949 0.24476 0.0
C622 C 0.2788 0.70147 0.17134 0.0
C623 C 0.34482 0.66849 0.23591 0.0
H624 H 0.20802 0.45799 0.22766 0.0
H625 H 0.20951 0.45733 0.18817 0.0
H626 H 0.23273 0.57819 0.13377 0.0
H627 H 0.24984 0.66613 0.13335 0.0
H628 H 0.33285 0.77508 0.18715 0.0
H629 H 0.37293 0.75547 0.2214 0.0
H630 H 0.35098 0.63279 0.27565 0.0
H631 H 0.29334 0.56449 0.28077 0.0
H632 H 0.41069 0.50598 0.2155 0.0
H633 H 0.42822 0.60641 0.16956 0.0
H634 H 0.18399 0.71666 0.2488 0.0
H635 H 0.10652 0.62859 0.21068 0.0
C636 C 0.70782 0.80418 0.44205 0.0
C637 C 0.74637 0.82786 0.44766 0.0
C638 C 0.73664 0.84852 0.46544 0.0
C639 C 0.69309 0.83585 0.46996 0.0
N640 N 0.67505 0.80791 0.45626 0.0
Co641 Co 0.61384 0.77976 0.45789 0.0
N642 N 0.6075 0.79356 0.48675 0.0
C643 C 0.63265 0.82351 0.49699 0.0
C644 C 0.62152 0.82499 0.51685 0.0
C645 C 0.58703 0.79426 0.51921 0.0
C646 C 0.57875 0.77583 0.50057 0.0
N647 N 0.55265 0.75187 0.45935 0.0
C648 C 0.5282 0.73796 0.47534 0.0
C649 C 0.48634 0.72116 0.46948 0.0
C650 C 0.48468 0.72477 0.44917 0.0
C651 C 0.52537 0.74358 0.44375 0.0
N652 N 0.61974 0.76576 0.42902 0.0
C653 C 0.58516 0.75572 0.41674 0.0
C654 C 0.59837 0.74998 0.39732 0.0
C655 C 0.64413 0.75727 0.39727 0.0
C656 C 0.65643 0.76695 0.41677 0.0
N657 N 0.64159 0.7213 0.46493 0.0
C658 C 0.67547 0.63861 0.47961 0.0
C659 C 0.64202 0.63942 0.46474 0.0
C660 C 0.62578 0.68115 0.45749 0.0
C661 C 0.69251 0.68008 0.48631 0.0
C662 C 0.67522 0.72062 0.4789 0.0
N663 N 0.58629 0.83899 0.45142 0.0
C664 C 0.58927 0.91102 0.43429 0.0
C665 C 0.5527 0.92761 0.44551 0.0
C666 C 0.53274 0.89825 0.45943 0.0
C667 C 0.54981 0.85434 0.46209 0.0
C668 C 0.60528 0.86677 0.43735 0.0
H669 H 0.53415 0.83326 0.47326 0.0
H670 H 0.6338 0.8555 0.42863 0.0
H671 H 0.59965 0.68097 0.44628 0.0
H672 H 0.6882 0.75149 0.48512 0.0
C673 C 0.67123 0.8429 0.48827 0.0
C674 C 0.70218 0.7817 0.42254 0.0
C675 C 0.54172 0.74378 0.49623 0.0
C676 C 0.54189 0.74711 0.42431 0.0
H677 H 0.77817 0.83027 0.4397 0.0
H678 H 0.75931 0.86885 0.47439 0.0
H679 H 0.63785 0.84453 0.52843 0.0
H680 H 0.56997 0.78634 0.53305 0.0
H681 H 0.45956 0.70812 0.47889 0.0
H682 H 0.45764 0.71361 0.43948 0.0
H683 H 0.57737 0.74096 0.38474 0.0
H684 H 0.66569 0.75665 0.38422 0.0
H685 H 0.62824 0.60817 0.45889 0.0
H686 H 0.71798 0.68136 0.49789 0.0
H687 H 0.60569 0.93224 0.42327 0.0
H688 H 0.50499 0.90956 0.46875 0.0
C689 C 0.73059 0.5125 0.55173 0.0
C690 C 0.71148 0.55446 0.55592 0.0
C691 C 0.71139 0.55898 0.5762 0.0
C692 C 0.73057 0.51987 0.58327 0.0
N693 N 0.74267 0.49095 0.56872 0.0
Co694 Co 0.77243 0.43131 0.57253 0.0
N695 N 0.75367 0.42858 0.60099 0.0
C696 C 0.73803 0.46358 0.61187 0.0
C697 C 0.72471 0.45126 0.63068 0.0
C698 C 0.73302 0.40578 0.63186 0.0
C699 C 0.75197 0.39296 0.61376 0.0
N700 N 0.80248 0.37173 0.57653 0.0
C701 C 0.79879 0.34144 0.59171 0.0
C702 C 0.828 0.30518 0.5888 0.0
C703 C 0.85082 0.31332 0.57134 0.0
C704 C 0.83452 0.35402 0.56454 0.0
N705 N 0.79086 0.43434 0.54407 0.0
C706 C 0.82389 0.40966 0.53553 0.0
C707 C 0.82861 0.41856 0.51555 0.0
C708 C 0.79672 0.45106 0.51133 0.0
C709 C 0.77437 0.46038 0.52906 0.0
N710 N 0.82953 0.462 0.5799 0.0
C711 C 0.91805 0.49622 0.58531 0.0
C712 C 0.88906 0.51439 0.57085 0.0
C713 C 0.84519 0.49711 0.56847 0.0
C714 C 0.90085 0.46174 0.5976 0.0
C715 C 0.85651 0.44551 0.59481 0.0
N716 N 0.71633 0.40038 0.56445 0.0
C717 C 0.68053 0.34624 0.5427 0.0
C718 C 0.63736 0.36136 0.54827 0.0
C719 C 0.63467 0.39621 0.5625 0.0
C720 C 0.67452 0.41506 0.57049 0.0
C721 C 0.71916 0.3657 0.55102 0.0
H722 H 0.67154 0.44227 0.58113 0.0
H723 H 0.75152 0.35364 0.5459 0.0
H724 H 0.8247 0.511 0.5567 0.0
H725 H 0.84472 0.41845 0.60427 0.0
C726 C 0.7298 0.5056 0.60307 0.0
C727 C 0.73968 0.49584 0.5315 0.0
C728 C 0.77164 0.34799 0.60995 0.0
C729 C 0.84391 0.37367 0.54594 0.0
H730 H 0.699 0.57934 0.54544 0.0
H731 H 0.69725 0.58664 0.58476 0.0
H732 H 0.70923 0.47244 0.64195 0.0
H733 H 0.72636 0.38468 0.6447 0.0
H734 H 0.83293 0.2763 0.59848 0.0
H735 H 0.87568 0.29167 0.56427 0.0
H736 H 0.85121 0.40212 0.5051 0.0
H737 H 0.79069 0.46612 0.4969 0.0
H738 H 0.90076 0.54056 0.56078 0.0
H739 H 0.92174 0.44692 0.60912 0.0
H740 H 0.68477 0.3206 0.53133 0.0
H741 H 0.60209 0.40915 0.56725 0.0
C742 C 0.33941 0.22786 0.43668 0.0
C743 C 0.30838 0.19283 0.43912 0.0
C744 C 0.31805 0.17225 0.45687 0.0
C745 C 0.35488 0.19493 0.46419 0.0
N746 N 0.36896 0.22887 0.45227 0.0
Co747 Co 0.42721 0.26214 0.4557 0.0
N748 N 0.43292 0.2437 0.48411 0.0
C749 C 0.40976 0.21006 0.49297 0.0
C750 C 0.41938 0.20601 0.51289 0.0
C751 C 0.45093 0.23898 0.51675 0.0
C752 C 0.45919 0.26104 0.49886 0.0
N753 N 0.48596 0.29436 0.45884 0.0
C754 C 0.50905 0.30588 0.47552 0.0
C755 C 0.5498 0.32681 0.47074 0.0
C756 C 0.55193 0.32889 0.45042 0.0
C757 C 0.51273 0.30892 0.44391 0.0
N758 N 0.4211 0.2817 0.42743 0.0
C759 C 0.45296 0.30349 0.41668 0.0
C760 C 0.43592 0.32386 0.39997 0.0
C761 C 0.39082 0.31344 0.39993 0.0
C762 C 0.38317 0.28496 0.41605 0.0
N763 N 0.39442 0.31678 0.46438 0.0
C764 C 0.35398 0.39457 0.48108 0.0
C765 C 0.38809 0.39821 0.46657 0.0
C766 C 0.40767 0.35907 0.45838 0.0
C767 C 0.33991 0.35096 0.48659 0.0
C768 C 0.36018 0.3128 0.47802 0.0
N769 N 0.46001 0.20664 0.44767 0.0
C770 C 0.46065 0.13556 0.42981 0.0
C771 C 0.49394 0.118 0.44258 0.0
C772 C 0.5124 0.1473 0.45684 0.0
C773 C 0.49521 0.19126 0.45908 0.0
C774 C 0.44448 0.17993 0.43248 0.0
H775 H 0.509 0.21191 0.47081 0.0
H776 H 0.41798 0.19182 0.42278 0.0
H777 H 0.4344 0.36318 0.4476 0.0
H778 H 0.34919 0.27995 0.48305 0.0
C779 C 0.37528 0.18748 0.48272 0.0
C780 C 0.3419 0.257 0.41871 0.0
C781 C 0.49479 0.29543 0.49598 0.0
C782 C 0.4956 0.31242 0.42467 0.0
H783 H 0.28223 0.18204 0.42893 0.0
H784 H 0.30043 0.14392 0.46357 0.0
H785 H 0.40432 0.18282 0.52348 0.0
H786 H 0.46647 0.24558 0.53103 0.0
H787 H 0.57529 0.33955 0.48085 0.0
H788 H 0.57783 0.34518 0.44152 0.0
H789 H 0.45352 0.34604 0.38971 0.0
H790 H 0.36659 0.32519 0.38904 0.0
H791 H 0.40007 0.43113 0.46178 0.0
H792 H 0.31461 0.34609 0.49809 0.0
H793 H 0.44646 0.11487 0.41807 0.0
H794 H 0.53852 0.13568 0.46692 0.0
C795 C 0.29771 0.52676 0.55283 0.0
C796 C 0.3154 0.48489 0.55821 0.0
C797 C 0.31421 0.48293 0.57856 0.0
C798 C 0.29588 0.52343 0.58447 0.0
N799 N 0.28565 0.55094 0.56914 0.0
Co800 Co 0.2573 0.61175 0.5713 0.0
N801 N 0.27433 0.61712 0.59985 0.0
C802 C 0.28595 0.58243 0.61182 0.0
C803 C 0.29362 0.5953 0.63113 0.0
C804 C 0.28596 0.64096 0.63145 0.0
C805 C 0.27417 0.65352 0.61219 0.0
N806 N 0.22856 0.67251 0.57374 0.0
C807 C 0.23277 0.70467 0.58814 0.0
C808 C 0.20662 0.74235 0.58361 0.0
C809 C 0.18441 0.7328 0.56618 0.0
C810 C 0.19842 0.69015 0.56087 0.0
N811 N 0.2404 0.60588 0.54277 0.0
C812 C 0.20894 0.63078 0.5333 0.0
C813 C 0.20502 0.61966 0.51352 0.0
C814 C 0.23569 0.5854 0.51041 0.0
C815 C 0.25654 0.5773 0.52856 0.0
N816 N 0.199 0.58343 0.57885 0.0
C817 C 0.10935 0.55255 0.58472 0.0
C818 C 0.13814 0.53176 0.57082 0.0
C819 C 0.18258 0.54755 0.56815 0.0
C820 C 0.1276 0.58732 0.5965 0.0
C821 C 0.17229 0.60209 0.59339 0.0
N822 N 0.31469 0.64047 0.56303 0.0
C823 C 0.35259 0.69269 0.54091 0.0
C824 C 0.3952 0.6772 0.54695 0.0
C825 C 0.39659 0.64299 0.56153 0.0
C826 C 0.35597 0.62538 0.56951 0.0
C827 C 0.31322 0.67423 0.54909 0.0
H828 H 0.35789 0.59889 0.58056 0.0
H829 H 0.28144 0.68653 0.54352 0.0
H830 H 0.20299 0.53175 0.55678 0.0
H831 H 0.1846 0.62975 0.60234 0.0
C832 C 0.2942 0.53943 0.60399 0.0
C833 C 0.28919 0.54046 0.53216 0.0
C834 C 0.25846 0.69918 0.60684 0.0
C835 C 0.18972 0.6687 0.54263 0.0
H836 H 0.32737 0.45825 0.54847 0.0
H837 H 0.32651 0.45577 0.58793 0.0
H838 H 0.30413 0.57417 0.64345 0.0
H839 H 0.28774 0.66226 0.64453 0.0
H840 H 0.20359 0.77342 0.59202 0.0
H841 H 0.16194 0.755 0.55802 0.0
H842 H 0.18371 0.63567 0.50247 0.0
H843 H 0.24185 0.56824 0.49643 0.0
H844 H 0.12587 0.5046 0.56144 0.0
H845 H 0.10728 0.60356 0.60788 0.0
H846 H 0.34943 0.718 0.52932 0.0
H847 H 0.42875 0.62981 0.56664 0.0
C848 C 0.24176 0.43994 0.28085 0.0
C849 C 0.19509 0.43553 0.28502 0.0
C850 C 0.25848 0.47551 0.26894 0.0
C851 C 0.22924 0.50816 0.26075 0.0
H852 H 0.26546 0.41501 0.28643 0.0
H853 H 0.29427 0.47632 0.26537 0.0
S854 S 0.10475 0.51265 0.26697 0.0
N855 N 0.12017 0.46771 0.27993 0.0
N856 N 0.15185 0.53435 0.25772 0.0
C857 C 0.18289 0.505 0.2652 0.0
C858 C 0.16578 0.46889 0.27732 0.0
C859 C 0.48668 0.77851 0.75555 0.0
C860 C 0.51767 0.80857 0.76433 0.0
C861 C 0.45116 0.79437 0.74347 0.0
C862 C 0.44489 0.84104 0.73975 0.0
H863 H 0.48853 0.74266 0.75889 0.0
H864 H 0.4273 0.76993 0.73762 0.0
S865 S 0.51904 0.9332 0.75848 0.0
N866 N 0.5416 0.88659 0.76774 0.0
N867 N 0.4749 0.91676 0.74523 0.0
C868 C 0.47721 0.87118 0.74769 0.0
C869 C 0.51339 0.85488 0.75999 0.0
C870 C 0.79649 0.57874 0.25517 0.0
C871 C 0.8093 0.53334 0.25756 0.0
C872 C 0.8127 0.61261 0.26784 0.0
C873 C 0.84037 0.60278 0.28449 0.0
H874 H 0.77551 0.58858 0.24268 0.0
H875 H 0.80427 0.64707 0.26389 0.0
S876 S 0.87718 0.48673 0.29908 0.0
N877 N 0.84858 0.47893 0.27825 0.0
N878 N 0.87521 0.54168 0.30363 0.0
C879 C 0.85077 0.55653 0.28782 0.0
C880 C 0.83576 0.52211 0.27419 0.0
C881 C 0.53518 0.18253 0.75845 0.0
C882 C 0.53006 0.22791 0.76444 0.0
C883 C 0.57114 0.16906 0.74592 0.0
C884 C 0.60378 0.20036 0.73907 0.0
H885 H 0.51205 0.15702 0.76405 0.0
H886 H 0.57455 0.13347 0.74232 0.0
S887 S 0.60391 0.32378 0.74973 0.0
N888 N 0.55964 0.30433 0.76213 0.0
N889 N 0.62645 0.27954 0.73838 0.0
C890 C 0.59795 0.24614 0.74447 0.0
C891 C 0.56139 0.25975 0.75719 0.0
C892 C 0.19663 0.05974 0.02264 0.0
C893 C 0.22873 0.02747 0.01585 0.0
C894 C 0.17632 0.09147 1.00996 0.0
C895 C 0.18397 0.09108 0.98932 0.0
H896 H 0.18651 0.06129 0.03806 0.0
H897 H 0.15465 0.11699 0.01657 0.0
S898 S 0.24135 0.99877 0.96187 0.0
N899 N 0.24987 0.98639 0.98553 0.0
N900 N 0.21317 0.04699 0.96181 0.0
C901 C 0.20951 0.0549 0.98168 0.0
C902 C 0.23063 0.02234 0.99477 0.0
C903 C 0.06631 0.84949 0.02929 0.0
C904 C 0.10874 0.82949 0.03314 0.0
C905 C 0.03425 0.82817 0.01699 0.0
C906 C 0.0434 0.78612 1.00799 0.0
H907 H 0.05808 0.88225 0.03558 0.0
H908 H 1.00265 0.84545 0.01396 0.0
S909 S 0.14866 0.71915 1.01314 0.0
N910 N 0.15765 0.76462 0.0269 0.0
N911 N 0.09714 0.72485 1.00394 0.0
C912 C 0.08495 0.76515 1.01208 0.0
C913 C 0.11764 0.78673 0.02462 0.0
C914 C 0.80046 0.94252 0.99397 0.0
C915 C 0.84561 0.94555 0.98719 0.0
C916 C 0.78171 0.97568 1.00662 0.0
C917 C 0.80721 1.0134 1.0128 0.0
H918 H 0.78032 0.91292 0.9905 0.0
H919 H 0.74791 0.97053 1.0125 0.0
S920 S 0.92466 0.04056 0.9975 0.0
N921 N 0.9136 0.99214 0.98618 0.0
N922 N 0.87839 0.05374 1.0101 0.0
C923 C 0.85129 1.01824 1.00526 0.0
C924 C 0.87044 0.98459 0.99241 0.0
C925 C 0.91559 0.25586 0.022 0.0
C926 C 0.91828 0.21126 0.02956 0.0
C927 C 0.94983 0.27401 1.0097 0.0
C928 C 0.98841 0.24856 1.00469 0.0
H929 H 0.88643 0.27677 0.02534 0.0
H930 H 0.94558 0.30775 1.00366 0.0
S931 S 1.01297 0.13081 0.02047 0.0
N932 N 0.96332 0.1422 0.03061 0.0
N933 N 0.02818 0.17736 1.00864 0.0
C934 C 0.99238 0.20474 1.01263 0.0
C935 C 0.95729 0.18587 0.02479 0.0
C936 C 0.68868 0.97697 0.78651 0.0
C937 C 0.70222 0.93176 0.78275 0.0
C938 C 0.70167 1.01295 0.77388 0.0
C939 C 0.72968 1.00549 0.75727 0.0
H940 H 0.66737 0.98484 0.79917 0.0
H941 H 0.68893 0.04667 0.77689 0.0
S942 S 0.77694 0.89551 0.74078 0.0
N943 N 0.74519 0.8828 0.76022 0.0
N944 N 0.77382 0.95098 0.73855 0.0
C945 C 0.74578 0.96139 0.75398 0.0
C946 C 0.73094 0.92447 0.76612 0.0
C947 C 0.97294 0.2796 0.2589 0.0
C948 C 1.00488 0.30982 0.26696 0.0
C949 C 0.93775 0.29497 0.2465 0.0
C950 C 0.93295 0.34123 0.24171 0.0
H951 H 0.97402 0.24409 0.26291 0.0
H952 H 0.91343 0.27057 0.241 0.0
S953 S 1.0072 0.4341 0.2596 0.0
N954 N 0.02946 0.38791 0.26942 0.0
N955 N 0.9633 0.41704 0.24638 0.0
C956 C 0.96532 0.37159 0.24941 0.0
C957 C 1.00115 0.35586 0.26198 0.0
C958 C 0.28117 0.04864 0.77271 0.0
C959 C 0.31182 0.01889 0.76341 0.0
C960 C 0.29651 0.08469 0.78461 0.0
C961 C 0.34312 0.0925 0.78763 0.0
H962 H 0.2452 0.04553 0.76988 0.0
H963 H 0.27174 0.10776 0.79085 0.0
S964 S 0.4369 0.02391 0.7666 0.0
N965 N 0.39061 0.99892 0.75829 0.0
N966 N 0.41957 0.06666 0.78051 0.0
C967 C 0.37396 0.06184 0.77902 0.0
C968 C 0.35828 0.02517 0.76691 0.0
C969 C 0.0568 0.75602 0.25729 0.0
C970 C 0.02472 0.72683 0.26596 0.0
C971 C 0.09198 0.73924 0.24515 0.0
C972 C 0.09679 0.69248 0.2412 0.0
H973 H 0.05605 0.79184 0.26074 0.0
H974 H 0.11665 0.76302 0.23938 0.0
S975 S 0.01966 0.60234 0.25971 0.0
N976 N 0.99851 0.64945 0.26915 0.0
N977 N 0.06434 0.61767 0.24645 0.0
C978 C 0.06347 0.66325 0.24908 0.0
C979 C 0.02771 0.68045 0.26148 0.0
C980 C 0.7541 0.55454 0.50516 0.0
C981 C 0.72392 0.52425 0.51441 0.0
C982 C 0.7383 0.58941 0.49273 0.0
C983 C 0.69163 0.59575 0.48918 0.0
H984 H 0.78993 0.55301 0.50854 0.0
H985 H 0.76273 0.61304 0.48663 0.0
S986 S 0.59902 0.52392 0.50927 0.0
N987 N 0.64565 0.50118 0.51845 0.0
N988 N 0.6157 0.567 0.49537 0.0
C989 C 0.66134 0.56412 0.49753 0.0
C990 C 0.67754 0.52846 0.51012 0.0
C991 C 0.56316 0.37222 0.53022 0.0
C992 C 0.59618 0.34274 0.53808 0.0
C993 C 0.52843 0.35616 0.5177 0.0
C994 C 0.52519 0.31002 0.51264 0.0
H995 H 0.56562 0.40834 0.5328 0.0
H996 H 0.50529 0.38034 0.51111 0.0
S997 S 0.60033 0.21816 0.53056 0.0
N998 N 0.62043 0.2643 0.54125 0.0
N999 N 0.55678 0.23486 0.51705 0.0
C1000 C 0.55663 0.27995 0.52108 0.0
C1001 C 0.59162 0.29611 0.53396 0.0
C1002 C 0.34947 0.5047 0.5109 0.0
C1003 C 0.3034 0.50861 0.51598 0.0
C1004 C 0.36519 0.46905 0.49881 0.0
C1005 C 0.3355 0.43555 0.49149 0.0
H1006 H 0.37381 0.52827 0.51707 0.0
H1007 H 0.40125 0.46645 0.49604 0.0
S1008 S 0.21104 0.43237 0.49958 0.0
N1009 N 0.22803 0.47711 0.51228 0.0
N1010 N 0.25701 0.41103 0.48913 0.0
C1011 C 0.28898 0.44037 0.49582 0.0
C1012 C 0.2731 0.47659 0.50816 0.0
C1013 C 0.50479 0.68174 0.51644 0.0
C1014 C 0.50953 0.72821 0.51217 0.0
C1015 C 0.46943 0.66562 0.52872 0.0
C1016 C 0.43709 0.69533 0.53701 0.0
H1017 H 0.52751 0.65753 0.50956 0.0
H1018 H 0.46599 0.62942 0.53083 0.0
S1019 S 0.43634 0.82046 0.53132 0.0
N1020 N 0.47992 0.80375 0.51774 0.0
N1021 N 0.41461 0.77402 0.54116 0.0
C1022 C 0.44286 0.74209 0.53352 0.0
C1023 C 0.47867 0.75836 0.52101 0.0
C1024 C 0.25944 0.25524 0.40788 0.0
C1025 C 0.30564 0.25425 0.40263 0.0
C1026 C 0.22503 0.25304 0.39343 0.0
C1027 C 0.23445 0.25632 0.37283 0.0
H1028 H 0.24953 0.25695 0.42339 0.0
H1029 H 0.19059 0.2493 0.39868 0.0
S1030 S 0.34956 0.24859 0.3507 0.0
N1031 N 0.35824 0.2446 0.3749 0.0
N1032 N 0.29462 0.2567 0.34804 0.0
C1033 C 0.28061 0.25552 0.36732 0.0
C1034 C 0.31563 0.25102 0.38204 0.0
C1035 C 0.21857 0.75055 0.63152 0.0
C1036 C 0.25909 0.73541 0.6226 0.0
C1037 C 0.21897 0.78162 0.64745 0.0
C1038 C 0.25993 0.79755 0.6556 0.0
H1039 H 0.18629 0.73799 0.62626 0.0
H1040 H 0.18693 0.7934 0.65338 0.0
S1041 S 0.3752 0.76783 0.63793 0.0
N1042 N 0.34117 0.73907 0.62308 0.0
N1043 N 0.34195 0.79583 0.65345 0.0
C1044 C 0.30058 0.78239 0.64692 0.0
C1045 C 0.30015 0.75162 0.63043 0.0
C1046 C 0.75496 0.74218 0.39846 0.0
C1047 C 0.73883 0.78284 0.40686 0.0
C1048 C 0.78681 0.74224 0.38276 0.0
C1049 C 0.80411 0.78296 0.37488 0.0
H1050 H 0.74242 0.71003 0.40394 0.0
H1051 H 0.79814 0.71013 0.37677 0.0
S1052 S 0.77341 0.89867 0.3917 0.0
N1053 N 0.74152 0.86501 0.40548 0.0
N1054 N 0.80423 0.86502 0.37745 0.0
C1055 C 0.78891 0.8238 0.38341 0.0
C1056 C 0.75554 0.82377 0.39897 0.0
C1057 C 0.74989 0.23875 0.63892 0.0
C1058 C 0.77811 0.24204 0.65596 0.0
C1059 C 0.74857 0.2725 0.62413 0.0
C1060 C 0.77286 0.31292 0.62619 0.0
H1061 H 0.72809 0.2099 0.63668 0.0
H1062 H 0.72802 0.26701 0.611 0.0
S1063 S 0.83087 0.35096 0.67205 0.0
N1064 N 0.81401 0.299 0.6772 0.0
N1065 N 0.8161 0.36005 0.64873 0.0
C1066 C 0.79566 0.32009 0.64427 0.0
C1067 C 0.79629 0.28584 0.65951 0.0
C1068 C 0.2447 0.24559 0.89198 0.0
C1069 C 0.23036 0.28679 0.90056 0.0
C1070 C 0.27763 0.24443 0.87676 0.0
C1071 C 0.29791 0.28436 0.86957 0.0
H1072 H 0.22997 0.21397 0.89699 0.0
H1073 H 0.28747 0.21199 0.8706 0.0
S1074 S 0.27535 0.40052 0.88815 0.0
N1075 N 0.24047 0.36828 0.90121 0.0
N1076 N 0.30362 0.36598 0.87329 0.0
C1077 C 0.28499 0.3256 0.87846 0.0
C1078 C 0.25101 0.32683 0.89377 0.0
C1079 C 0.32105 0.7528 0.14731 0.0
C1080 C 0.27976 0.73807 0.1557 0.0
C1081 C 0.32213 0.78442 0.13156 0.0
C1082 C 0.28194 0.80153 0.12314 0.0
H1083 H 0.35278 0.73948 0.15285 0.0
H1084 H 0.35466 0.7957 0.12597 0.0
S1085 S 0.16516 0.77266 0.13914 0.0
N1086 N 0.19782 0.74299 0.15424 0.0
N1087 N 0.19978 0.80073 0.12423 0.0
C1088 C 0.24054 0.78658 0.13122 0.0
C1089 C 0.23947 0.75522 0.1475 0.0
C1090 C 0.78491 0.70593 0.89641 0.0
C1091 C 0.80402 0.74598 0.90402 0.0
C1092 C 0.75177 0.70722 0.88132 0.0
C1093 C 0.73716 0.74857 0.87297 0.0
H1094 H 0.79591 0.67341 0.90208 0.0
H1095 H 0.73749 0.6756 0.8761 0.0
S1096 S 0.77442 0.86294 0.88864 0.0
N1097 N 0.8036 0.82818 0.903 0.0
N1098 N 0.74296 0.83044 0.8742 0.0
C1099 C 0.75536 0.78875 0.88078 0.0
C1100 C 0.78838 0.7875 0.89635 0.0
C1101 C 0.74557 0.22359 0.14208 0.0
C1102 C 0.747 0.23368 0.1215 0.0
C1103 C 0.74792 0.25772 0.15667 0.0
C1104 C 0.74588 0.30391 0.1516 0.0
H1105 H 0.74377 0.18885 0.14712 0.0
H1106 H 0.7513 0.24765 0.1721 0.0
S1107 S 0.73419 0.34893 0.10013 0.0
N1108 N 0.74279 0.29418 0.097 0.0
N1109 N 0.7327 0.35705 0.12444 0.0
C1110 C 0.74023 0.31432 0.13119 0.0
C1111 C 0.74395 0.27979 0.11622 0.0
C1112 C 0.9707 1.00938 0.33674 0.0
C1113 C 1.00293 0.97419 0.33588 0.0
C1114 C 0.98385 0.05524 0.33725 0.0
C1115 C 0.02985 0.06804 0.33721 0.0
H1116 H 0.93488 1.00149 0.33648 0.0
H1117 H 0.95769 0.08094 0.33758 0.0
S1118 S 0.12778 0.98916 0.33575 0.0
N1119 N 0.08309 0.95555 0.33564 0.0
N1120 N 0.10772 0.04133 0.33642 0.0
C1121 C 0.06243 0.03316 0.33675 0.0
C1122 C 0.04904 0.98648 0.33609 0.0
C1123 C 0.98261 0.97947 0.69454 0.0
C1124 C 0.9712 0.02582 0.69407 0.0
C1125 C 0.02814 0.96497 0.69499 0.0
C1126 C 0.06434 0.99616 0.69528 0.0
H1127 H 0.95611 0.95411 0.69448 0.0
H1128 H 0.03501 0.92896 0.69557 0.0
S1129 S 0.05309 0.12138 0.69425 0.0
N1130 N 1.00035 0.10284 0.69409 0.0
N1131 N 0.08531 0.07571 0.69458 0.0
C1132 C 0.05337 0.04257 0.69469 0.0
C1133 C 1.00712 0.05732 0.69415 0.0
C1134 C 0.02771 0.49387 0.96314 0.0
C1135 C 0.03754 0.47138 0.9451 0.0
C1136 C 1.00925 0.5379 0.9635 0.0
C1137 C 0.99998 0.56207 0.94584 0.0
H1138 H 0.03383 0.47706 0.97721 0.0
H1139 H 1.00262 0.55334 0.97783 0.0
S1140 S 0.01967 0.51917 0.89455 0.0
N1141 N 0.03692 0.47737 0.90901 0.0
N1142 N 1.0019 0.55955 0.90967 0.0
C1143 C 1.00978 0.54013 0.92767 0.0
C1144 C 0.02841 0.49506 0.9273 0.0
C1145 C 0.5141 0.95925 0.08752 0.0
C1146 C 0.47853 0.99103 0.08718 0.0
C1147 C 0.55975 0.97312 0.08813 0.0
C1148 C 0.57168 0.01934 0.08872 0.0
H1149 H 0.50667 0.9234 0.08657 0.0
H1150 H 0.58594 0.94746 0.08786 0.0
S1151 S 0.49117 0.11599 0.08914 0.0
N1152 N 0.45839 0.07074 0.08844 0.0
N1153 N 0.54368 0.09677 0.08933 0.0
C1154 C 0.5363 0.05135 0.08901 0.0
C1155 C 0.48995 0.03724 0.08829 0.0
C1156 C 0.47448 0.50601 0.83099 0.0
C1157 C 0.50495 0.4693 0.83157 0.0
C1158 C 0.48989 0.55112 0.83097 0.0
C1159 C 0.53644 0.56155 0.83176 0.0
H1160 H 0.43839 0.49984 0.82999 0.0
H1161 H 0.46509 0.5781 0.83024 0.0
S1162 S 0.63024 0.47795 0.83421 0.0
N1163 N 0.58392 0.44664 0.8337 0.0
N1164 N 0.61284 0.53105 0.83334 0.0
C1165 C 0.56722 0.52516 0.83276 0.0
C1166 C 0.55153 0.47925 0.8327 0.0
C1167 C 0.53416 0.48148 0.18918 0.0
C1168 C 0.56974 0.51337 0.18892 0.0
C1169 C 0.48836 0.495 0.19007 0.0
C1170 C 0.47584 0.5411 0.19053 0.0
H1171 H 0.54176 0.4456 0.18925 0.0
H1172 H 0.4625 0.46901 0.19046 0.0
S1173 S 0.55569 0.63835 0.18947 0.0
N1174 N 0.58886 0.5934 0.18848 0.0
N1175 N 0.50339 0.61869 0.19051 0.0
C1176 C 0.51107 0.57335 0.1899 0.0
C1177 C 0.5577 0.55957 0.18906 0.0
C1178 C 0.55443 0.05724 0.44276 0.0
C1179 C 0.50823 0.06916 0.44181 0.0
C1180 C 0.56845 1.01164 0.4434 0.0
C1181 C 0.53691 0.97577 0.4434 0.0
H1182 H 0.58008 0.08345 0.44313 0.0
H1183 H 0.60434 1.00447 0.44448 0.0
S1184 S 0.41193 0.98828 0.44064 0.0
N1185 N 0.43096 0.04085 0.44067 0.0
N1186 N 0.45722 0.95557 0.44164 0.0
C1187 C 0.49065 0.98718 0.44213 0.0
C1188 C 0.47638 0.03361 0.44135 0.0
C1189 C 1.00196 0.47951 0.58712 0.0
C1190 C 0.96651 0.5115 0.58673 0.0
C1191 C 0.0478 0.49294 0.58676 0.0
C1192 C 0.06035 0.53902 0.58627 0.0
H1193 H 0.99424 0.44365 0.58711 0.0
H1194 H 0.07367 0.46694 0.58677 0.0
S1195 S 0.98072 0.63641 0.58584 0.0
N1196 N 0.94742 0.59153 0.58655 0.0
N1197 N 0.03304 0.61667 0.58564 0.0
C1198 C 0.02521 0.57136 0.58632 0.0
C1199 C 0.97858 0.55767 0.58657 0.0
loop_
_geom_bond_atom_site_label_1
_geom_bond_atom_site_label_2
_geom_bond_distance
_geom_bond_site_symmetry_2
_ccdc_geom_bond_type
C0 C1 1.443 . S
C0 N4 1.376 . S
C0 C38 1.389 . S
C1 C0 1.443 . S
C1 C2 1.340 . S
C1 H41 0.951 . S
C2 C1 1.340 . S
C2 C3 1.439 . S
C2 H42 0.950 . S
C3 C2 1.439 . S
C3 N4 1.374 . S
C3 C37 1.395 . S
N4 C0 1.376 . S
N4 C3 1.374 . S
N4 Co5 2.008 . S
Co5 N4 2.008 . S
Co5 N6 1.995 . S
Co5 N11 2.008 . S
Co5 N16 1.995 . S
Co5 N21 2.282 . S
Co5 N27 2.282 . S
N6 Co5 1.995 . S
N6 C7 1.376 . S
N6 C10 1.383 . S
C7 N6 1.376 . S
C7 C8 1.446 . S
C7 C37 1.391 . S
C8 C7 1.446 . S
C8 C9 1.339 . S
C8 H43 0.949 . S
C9 C8 1.339 . S
C9 C10 1.439 . S
C9 H44 0.950 . S
C10 N6 1.383 . S
C10 C9 1.439 . S
C10 C39 1.392 1_455 S
N11 Co5 2.008 . S
N11 C12 1.376 1_455 S
N11 C15 1.374 . S
C12 N11 1.376 1_655 S
C12 C13 1.443 . S
C12 C39 1.389 . S
C13 C12 1.443 . S
C13 C14 1.340 . S
C13 H45 0.951 . S
C14 C13 1.340 . S
C14 C15 1.439 1_655 S
C14 H46 0.950 . S
C15 N11 1.374 . S
C15 C14 1.439 1_455 S
C15 C40 1.395 . S
N16 Co5 1.995 . S
N16 C17 1.376 . S
N16 C20 1.383 . S
C17 N16 1.376 . S
C17 C18 1.446 . S
C17 C40 1.391 . S
C18 C17 1.446 . S
C18 C19 1.339 . S
C18 H47 0.949 . S
C19 C18 1.339 . S
C19 C20 1.439 . S
C19 H48 0.950 . S
C20 N16 1.383 . S
C20 C19 1.439 . S
C20 C38 1.392 . S
N21 Co5 2.282 . S
N21 C24 1.332 . S
N21 C26 1.332 . S
C22 C23 1.386 . S
C22 C25 1.388 . S
C23 C22 1.386 . S
C23 C24 1.382 . S
C23 H49 0.950 . S
C24 N21 1.332 . S
C24 C23 1.382 . S
C24 H35 0.952 . S
C25 C22 1.388 . S
C25 C26 1.382 . S
C25 H50 0.950 . S
C26 N21 1.332 . S
C26 C25 1.382 . S
C26 H36 0.948 . S
N27 Co5 2.282 . S
N27 C31 1.332 . S
N27 C32 1.332 . S
C28 C29 1.388 . S
C28 C32 1.382 . S
C28 H51 0.950 . S
C29 C28 1.388 . S
C29 C30 1.386 . S
C30 C29 1.386 . S
C30 C31 1.382 . S
C30 H52 0.950 . S
C31 N27 1.332 . S
C31 C30 1.382 . S
C31 H33 0.952 . S
C32 N27 1.332 . S
C32 C28 1.382 . S
C32 H34 0.948 . S
H33 C31 0.952 . S
H34 C32 0.948 . S
H35 C24 0.952 . S
H36 C26 0.948 . S
C37 C3 1.395 . S
C37 C7 1.391 . S
C38 C0 1.389 . S
C38 C20 1.392 . S
C39 C10 1.392 1_655 S
C39 C12 1.389 . S
C40 C15 1.395 . S
C40 C17 1.391 . S
H41 C1 0.951 . S
H42 C2 0.950 . S
H43 C8 0.949 . S
H44 C9 0.950 . S
H45 C13 0.951 . S
H46 C14 0.950 . S
H47 C18 0.949 . S
H48 C19 0.950 . S
H49 C23 0.950 . S
H50 C25 0.950 . S
H51 C28 0.950 . S
H52 C30 0.950 . S
C53 C54 1.443 . S
C53 N57 1.376 1_545 S
C53 C91 1.389 . S
C54 C53 1.443 . S
C54 C55 1.340 . S
C54 H94 0.951 . S
C55 C54 1.340 . S
C55 C56 1.439 1_545 S
C55 H95 0.950 . S
C56 C55 1.439 1_565 S
C56 N57 1.374 . S
C56 C90 1.395 . S
N57 C53 1.376 1_565 S
N57 C56 1.374 . S
N57 Co58 2.008 . S
Co58 N57 2.008 . S
Co58 N59 1.995 . S
Co58 N64 2.008 . S
Co58 N69 1.995 . S
Co58 N74 2.282 . S
Co58 N80 2.282 . S
N59 Co58 1.995 . S
N59 C60 1.376 . S
N59 C63 1.383 . S
C60 N59 1.376 . S
C60 C61 1.446 . S
C60 C90 1.391 . S
C61 C60 1.446 . S
C61 C62 1.339 . S
C61 H96 0.949 . S
C62 C61 1.339 . S
C62 C63 1.439 . S
C62 H97 0.950 . S
C63 N59 1.383 . S
C63 C62 1.439 . S
C63 C92 1.392 . S
N64 Co58 2.008 . S
N64 C65 1.376 . S
N64 C68 1.374 . S
C65 N64 1.376 . S
C65 C66 1.443 . S
C65 C92 1.389 . S
C66 C65 1.443 . S
C66 C67 1.340 . S
C66 H98 0.951 . S
C67 C66 1.340 . S
C67 C68 1.439 . S
C67 H99 0.950 . S
C68 N64 1.374 . S
C68 C67 1.439 . S
C68 C93 1.395 . S
N69 Co58 1.995 . S
N69 C70 1.376 . S
N69 C73 1.383 . S
C70 N69 1.376 . S
C70 C71 1.446 . S
C70 C93 1.391 . S
C71 C70 1.446 . S
C71 C72 1.339 . S
C71 H100 0.949 . S
C72 C71 1.339 . S
C72 C73 1.439 . S
C72 H101 0.950 . S
C73 N69 1.383 . S
C73 C72 1.439 . S
C73 C91 1.392 1_565 S
N74 Co58 2.282 . S
N74 C77 1.332 . S
N74 C79 1.332 . S
C75 C76 1.386 . S
C75 C78 1.388 . S
C76 C75 1.386 . S
C76 C77 1.382 . S
C76 H102 0.950 . S
C77 N74 1.332 . S
C77 C76 1.382 . S
C77 H88 0.952 . S
C78 C75 1.388 . S
C78 C79 1.382 . S
C78 H103 0.950 . S
C79 N74 1.332 . S
C79 C78 1.382 . S
C79 H89 0.948 . S
N80 Co58 2.282 . S
N80 C84 1.332 . S
N80 C85 1.332 . S
C81 C82 1.388 . S
C81 C85 1.382 . S
C81 H104 0.950 . S
C82 C81 1.388 . S
C82 C83 1.386 . S
C83 C82 1.386 . S
C83 C84 1.382 . S
C83 H105 0.950 . S
C84 N80 1.332 . S
C84 C83 1.382 . S
C84 H86 0.952 . S
C85 N80 1.332 . S
C85 C81 1.382 . S
C85 H87 0.948 . S
H86 C84 0.952 . S
H87 C85 0.948 . S
H88 C77 0.952 . S
H89 C79 0.948 . S
C90 C56 1.395 . S
C90 C60 1.391 . S
C91 C53 1.389 . S
C91 C73 1.392 1_545 S
C92 C63 1.392 . S
C92 C65 1.389 . S
C93 C68 1.395 . S
C93 C70 1.391 . S
H94 C54 0.951 . S
H95 C55 0.950 . S
H96 C61 0.949 . S
H97 C62 0.950 . S
H98 C66 0.951 . S
H99 C67 0.950 . S
H100 C71 0.949 . S
H101 C72 0.950 . S
H102 C76 0.950 . S
H103 C78 0.950 . S
H104 C81 0.950 . S
H105 C83 0.950 . S
C106 C107 1.443 . S
C106 N110 1.376 . S
C106 C144 1.389 . S
C107 C106 1.443 . S
C107 C108 1.340 . S
C107 H147 0.951 . S
C108 C107 1.340 . S
C108 C109 1.439 . S
C108 H148 0.950 . S
C109 C108 1.439 . S
C109 N110 1.374 . S
C109 C143 1.395 . S
N110 C106 1.376 . S
N110 C109 1.374 . S
N110 Co111 2.008 . S
Co111 N110 2.008 . S
Co111 N112 1.995 . S
Co111 N117 2.008 . S
Co111 N122 1.995 . S
Co111 N127 2.282 . S
Co111 N133 2.282 . S
N112 Co111 1.995 . S
N112 C113 1.376 . S
N112 C116 1.383 . S
C113 N112 1.376 . S
C113 C114 1.446 . S
C113 C143 1.391 . S
C114 C113 1.446 . S
C114 C115 1.339 . S
C114 H149 0.949 . S
C115 C114 1.339 . S
C115 C116 1.439 . S
C115 H150 0.950 . S
C116 N112 1.383 . S
C116 C115 1.439 . S
C116 C145 1.392 1_655 S
N117 Co111 2.008 . S
N117 C118 1.376 1_655 S
N117 C121 1.374 . S
C118 N117 1.376 1_455 S
C118 C119 1.443 . S
C118 C145 1.389 . S
C119 C118 1.443 . S
C119 C120 1.340 . S
C119 H151 0.951 . S
C120 C119 1.340 . S
C120 C121 1.439 1_455 S
C120 H152 0.950 . S
C121 N117 1.374 . S
C121 C120 1.439 1_655 S
C121 C146 1.395 . S
N122 Co111 1.995 . S
N122 C123 1.376 . S
N122 C126 1.383 . S
C123 N122 1.376 . S
C123 C124 1.446 . S
C123 C146 1.391 . S
C124 C123 1.446 . S
C124 C125 1.339 . S
C124 H153 0.949 . S
C125 C124 1.339 . S
C125 C126 1.439 . S
C125 H154 0.950 . S
C126 N122 1.383 . S
C126 C125 1.439 . S
C126 C144 1.392 . S
N127 Co111 2.282 . S
N127 C130 1.332 . S
N127 C132 1.332 . S
C128 C129 1.386 . S
C128 C131 1.388 . S
C129 C128 1.386 . S
C129 C130 1.382 . S
C129 H155 0.950 . S
C130 N127 1.332 . S
C130 C129 1.382 . S
C130 H141 0.952 . S
C131 C128 1.388 . S
C131 C132 1.382 . S
C131 H156 0.950 . S
C132 N127 1.332 . S
C132 C131 1.382 . S
C132 H142 0.948 . S
N133 Co111 2.282 . S
N133 C137 1.332 . S
N133 C138 1.332 . S
C134 C135 1.388 . S
C134 C138 1.382 . S
C134 H157 0.950 . S
C135 C134 1.388 . S
C135 C136 1.386 . S
C136 C135 1.386 . S
C136 C137 1.382 . S
C136 H158 0.950 . S
C137 N133 1.332 . S
C137 C136 1.382 . S
C137 H139 0.952 . S
C138 N133 1.332 . S
C138 C134 1.382 . S
C138 H140 0.948 . S
H139 C137 0.952 . S
H140 C138 0.948 . S
H141 C130 0.952 . S
H142 C132 0.948 . S
C143 C109 1.395 . S
C143 C113 1.391 . S
C144 C106 1.389 . S
C144 C126 1.392 . S
C145 C116 1.392 1_455 S
C145 C118 1.389 . S
C146 C121 1.395 . S
C146 C123 1.391 . S
H147 C107 0.951 . S
H148 C108 0.950 . S
H149 C114 0.949 . S
H150 C115 0.950 . S
H151 C119 0.951 . S
H152 C120 0.950 . S
H153 C124 0.949 . S
H154 C125 0.950 . S
H155 C129 0.950 . S
H156 C131 0.950 . S
H157 C134 0.950 . S
H158 C136 0.950 . S
C159 C160 1.443 . S
C159 N163 1.376 1_565 S
C159 C197 1.389 . S
C160 C159 1.443 . S
C160 C161 1.340 . S
C160 H200 0.951 . S
C161 C160 1.340 . S
C161 C162 1.439 1_565 S
C161 H201 0.950 . S
C162 C161 1.439 1_545 S
C162 N163 1.374 . S
C162 C196 1.395 . S
N163 C159 1.376 1_545 S
N163 C162 1.374 . S
N163 Co164 2.008 . S
Co164 N163 2.008 . S
Co164 N165 1.995 . S
Co164 N170 2.008 . S
Co164 N175 1.995 . S
Co164 N180 2.282 . S
Co164 N186 2.282 . S
N165 Co164 1.995 . S
N165 C166 1.376 . S
N165 C169 1.383 . S
C166 N165 1.376 . S
C166 C167 1.446 . S
C166 C196 1.391 . S
C167 C166 1.446 . S
C167 C168 1.339 . S
C167 H202 0.949 . S
C168 C167 1.339 . S
C168 C169 1.439 . S
C168 H203 0.950 . S
C169 N165 1.383 . S
C169 C168 1.439 . S
C169 C198 1.392 . S
N170 Co164 2.008 . S
N170 C171 1.376 . S
N170 C174 1.374 . S
C171 N170 1.376 . S
C171 C172 1.443 . S
C171 C198 1.389 . S
C172 C171 1.443 . S
C172 C173 1.340 . S
C172 H204 0.951 . S
C173 C172 1.340 . S
C173 C174 1.439 . S
C173 H205 0.950 . S
C174 N170 1.374 . S
C174 C173 1.439 . S
C174 C199 1.395 . S
N175 Co164 1.995 . S
N175 C176 1.376 . S
N175 C179 1.383 . S
C176 N175 1.376 . S
C176 C177 1.446 . S
C176 C199 1.391 . S
C177 C176 1.446 . S
C177 C178 1.339 . S
C177 H206 0.949 . S
C178 C177 1.339 . S
C178 C179 1.439 . S
C178 H207 0.950 . S
C179 N175 1.383 . S
C179 C178 1.439 . S
C179 C197 1.392 1_545 S
N180 Co164 2.282 . S
N180 C183 1.332 . S
N180 C185 1.332 . S
C181 C182 1.386 . S
C181 C184 1.388 . S
C182 C181 1.386 . S
C182 C183 1.382 . S
C182 H208 0.950 . S
C183 N180 1.332 . S
C183 C182 1.382 . S
C183 H194 0.952 . S
C184 C181 1.388 . S
C184 C185 1.382 . S
C184 H209 0.950 . S
C185 N180 1.332 . S
C185 C184 1.382 . S
C185 H195 0.948 . S
N186 Co164 2.282 . S
N186 C190 1.332 . S
N186 C191 1.332 . S
C187 C188 1.388 . S
C187 C191 1.382 . S
C187 H210 0.950 . S
C188 C187 1.388 . S
C188 C189 1.386 . S
C189 C188 1.386 . S
C189 C190 1.382 . S
C189 H211 0.950 . S
C190 N186 1.332 . S
C190 C189 1.382 . S
C190 H192 0.952 . S
C191 N186 1.332 . S
C191 C187 1.382 . S
C191 H193 0.948 . S
H192 C190 0.952 . S
H193 C191 0.948 . S
H194 C183 0.952 . S
H195 C185 0.948 . S
C196 C162 1.395 . S
C196 C166 1.391 . S
C197 C159 1.389 . S
C197 C179 1.392 1_565 S
C198 C169 1.392 . S
C198 C171 1.389 . S
C199 C174 1.395 . S
C199 C176 1.391 . S
H200 C160 0.951 . S
H201 C161 0.950 . S
H202 C167 0.949 . S
H203 C168 0.950 . S
H204 C172 0.951 . S
H205 C173 0.950 . S
H206 C177 0.949 . S
H207 C178 0.950 . S
H208 C182 0.950 . S
H209 C184 0.950 . S
H210 C187 0.950 . S
H211 C189 0.950 . S
C212 C213 1.443 . S
C212 N216 1.376 . S
C212 C250 1.389 . S
C213 C212 1.443 . S
C213 C214 1.340 . S
C213 H253 0.951 . S
C214 C213 1.340 . S
C214 C215 1.439 . S
C214 H254 0.950 . S
C215 C214 1.439 . S
C215 N216 1.374 . S
C215 C249 1.395 . S
N216 C212 1.376 . S
N216 C215 1.374 . S
N216 Co217 2.008 . S
Co217 N216 2.008 . S
Co217 N218 1.995 . S
Co217 N223 2.008 . S
Co217 N228 1.995 . S
Co217 N233 2.282 . S
Co217 N239 2.282 . S
N218 Co217 1.995 . S
N218 C219 1.376 . S
N218 C222 1.383 . S
C219 N218 1.376 . S
C219 C220 1.446 . S
C219 C249 1.391 . S
C220 C219 1.446 . S
C220 C221 1.339 . S
C220 H255 0.949 1_556 S
C221 C220 1.339 . S
C221 C222 1.439 . S
C221 H256 0.950 1_556 S
C222 N218 1.383 . S
C222 C221 1.439 . S
C222 C251 1.392 1_455 S
N223 Co217 2.008 . S
N223 C224 1.376 1_455 S
N223 C227 1.374 . S
C224 N223 1.376 1_655 S
C224 C225 1.443 . S
C224 C251 1.389 . S
C225 C224 1.443 . S
C225 C226 1.340 . S
C225 H257 0.951 . S
C226 C225 1.340 . S
C226 C227 1.439 1_655 S
C226 H258 0.950 . S
C227 N223 1.374 . S
C227 C226 1.439 1_455 S
C227 C252 1.395 . S
N228 Co217 1.995 . S
N228 C229 1.376 . S
N228 C232 1.383 . S
C229 N228 1.376 . S
C229 C230 1.446 . S
C229 C252 1.391 . S
C230 C229 1.446 . S
C230 C231 1.339 . S
C230 H259 0.949 . S
C231 C230 1.339 . S
C231 C232 1.439 . S
C231 H260 0.950 . S
C232 N228 1.383 . S
C232 C231 1.439 . S
C232 C250 1.392 . S
N233 Co217 2.282 . S
N233 C236 1.332 . S
N233 C238 1.332 . S
C234 C235 1.386 . S
C234 C237 1.388 . S
C235 C234 1.386 . S
C235 C236 1.382 . S
C235 H261 0.950 . S
C236 N233 1.332 . S
C236 C235 1.382 . S
C236 H247 0.952 . S
C237 C234 1.388 . S
C237 C238 1.382 . S
C237 H262 0.950 . S
C238 N233 1.332 . S
C238 C237 1.382 . S
C238 H248 0.948 . S
N239 Co217 2.282 . S
N239 C243 1.332 . S
N239 C244 1.332 . S
C240 C241 1.388 . S
C240 C244 1.382 . S
C240 H263 0.950 . S
C241 C240 1.388 . S
C241 C242 1.386 . S
C242 C241 1.386 . S
C242 C243 1.382 . S
C242 H264 0.950 . S
C243 N239 1.332 . S
C243 C242 1.382 . S
C243 H245 0.952 . S
C244 N239 1.332 . S
C244 C240 1.382 . S
C244 H246 0.948 . S
H245 C243 0.952 . S
H246 C244 0.948 . S
H247 C236 0.952 . S
H248 C238 0.948 . S
C249 C215 1.395 . S
C249 C219 1.391 . S
C250 C212 1.389 . S
C250 C232 1.392 . S
C251 C222 1.392 1_655 S
C251 C224 1.389 . S
C252 C227 1.395 . S
C252 C229 1.391 . S
H253 C213 0.951 . S
H254 C214 0.950 . S
H255 C220 0.949 1_554 S
H256 C221 0.950 1_554 S
H257 C225 0.951 . S
H258 C226 0.950 . S
H259 C230 0.949 . S
H260 C231 0.950 . S
H261 C235 0.950 . S
H262 C237 0.950 . S
H263 C240 0.950 . S
H264 C242 0.950 . S
C265 C266 1.443 . S
C265 N269 1.376 1_545 S
C265 C303 1.389 . S
C266 C265 1.443 . S
C266 C267 1.340 . S
C266 H306 0.951 . S
C267 C266 1.340 . S
C267 C268 1.439 1_545 S
C267 H307 0.950 . S
C268 C267 1.439 1_565 S
C268 N269 1.374 . S
C268 C302 1.395 . S
N269 C265 1.376 1_565 S
N269 C268 1.374 . S
N269 Co270 2.008 . S
Co270 N269 2.008 . S
Co270 N271 1.995 . S
Co270 N276 2.008 . S
Co270 N281 1.995 . S
Co270 N286 2.282 . S
Co270 N292 2.282 . S
N271 Co270 1.995 . S
N271 C272 1.376 . S
N271 C275 1.383 . S
C272 N271 1.376 . S
C272 C273 1.446 . S
C272 C302 1.391 . S
C273 C272 1.446 . S
C273 C274 1.339 . S
C273 H308 0.949 . S
C274 C273 1.339 . S
C274 C275 1.439 . S
C274 H309 0.950 . S
C275 N271 1.383 . S
C275 C274 1.439 . S
C275 C304 1.392 . S
N276 Co270 2.008 . S
N276 C277 1.376 . S
N276 C280 1.374 . S
C277 N276 1.376 . S
C277 C278 1.443 . S
C277 C304 1.389 . S
C278 C277 1.443 . S
C278 C279 1.340 . S
C278 H310 0.951 . S
C279 C278 1.340 . S
C279 C280 1.439 . S
C279 H311 0.950 . S
C280 N276 1.374 . S
C280 C279 1.439 . S
C280 C305 1.395 . S
N281 Co270 1.995 . S
N281 C282 1.376 . S
N281 C285 1.383 . S
C282 N281 1.376 . S
C282 C283 1.446 . S
C282 C305 1.391 . S
C283 C282 1.446 . S
C283 C284 1.339 . S
C283 H312 0.949 1_554 S
C284 C283 1.339 . S
C284 C285 1.439 . S
C284 H313 0.950 1_554 S
C285 N281 1.383 . S
C285 C284 1.439 . S
C285 C303 1.392 1_565 S
N286 Co270 2.282 . S
N286 C289 1.332 . S
N286 C291 1.332 . S
C287 C288 1.386 . S
C287 C290 1.388 . S
C288 C287 1.386 . S
C288 C289 1.382 . S
C288 H314 0.950 . S
C289 N286 1.332 . S
C289 C288 1.382 . S
C289 H300 0.952 . S
C290 C287 1.388 . S
C290 C291 1.382 . S
C290 H315 0.950 . S
C291 N286 1.332 . S
C291 C290 1.382 . S
C291 H301 0.948 . S
N292 Co270 2.282 . S
N292 C296 1.332 . S
N292 C297 1.332 . S
C293 C294 1.388 . S
C293 C297 1.382 . S
C293 H316 0.950 . S
C294 C293 1.388 . S
C294 C295 1.386 . S
C295 C294 1.386 . S
C295 C296 1.382 . S
C295 H317 0.950 . S
C296 N292 1.332 . S
C296 C295 1.382 . S
C296 H298 0.952 . S
C297 N292 1.332 . S
C297 C293 1.382 . S
C297 H299 0.948 . S
H298 C296 0.952 . S
H299 C297 0.948 . S
H300 C289 0.952 . S
H301 C291 0.948 . S
C302 C268 1.395 . S
C302 C272 1.391 . S
C303 C265 1.389 . S
C303 C285 1.392 1_545 S
C304 C275 1.392 . S
C304 C277 1.389 . S
C305 C280 1.395 . S
C305 C282 1.391 . S
H306 C266 0.951 . S
H307 C267 0.950 . S
H308 C273 0.949 . S
H309 C274 0.950 . S
H310 C278 0.951 . S
H311 C279 0.950 . S
H312 C283 0.949 1_556 S
H313 C284 0.950 1_556 S
H314 C288 0.950 . S
H315 C290 0.950 . S
H316 C293 0.950 . S
H317 C295 0.950 . S
C318 C319 1.443 . S
C318 N322 1.376 . S
C318 C356 1.389 . S
C319 C318 1.443 . S
C319 C320 1.340 . S
C319 H359 0.951 . S
C320 C319 1.340 . S
C320 C321 1.439 . S
C320 H360 0.950 . S
C321 C320 1.439 . S
C321 N322 1.374 . S
C321 C355 1.395 . S
N322 C318 1.376 . S
N322 C321 1.374 . S
N322 Co323 2.008 . S
Co323 N322 2.008 . S
Co323 N324 1.995 . S
Co323 N329 2.008 . S
Co323 N334 1.995 . S
Co323 N339 2.282 . S
Co323 N345 2.282 . S
N324 Co323 1.995 . S
N324 C325 1.376 . S
N324 C328 1.383 . S
C325 N324 1.376 . S
C325 C326 1.446 . S
C325 C355 1.391 . S
C326 C325 1.446 . S
C326 C327 1.339 . S
C326 H361 0.949 1_556 S
C327 C326 1.339 . S
C327 C328 1.439 . S
C327 H362 0.950 1_556 S
C328 N324 1.383 . S
C328 C327 1.439 . S
C328 C357 1.392 1_655 S
N329 Co323 2.008 . S
N329 C330 1.376 1_655 S
N329 C333 1.374 . S
C330 N329 1.376 1_455 S
C330 C331 1.443 . S
C330 C357 1.389 . S
C331 C330 1.443 . S
C331 C332 1.340 . S
C331 H363 0.951 . S
C332 C331 1.340 . S
C332 C333 1.439 1_455 S
C332 H364 0.950 . S
C333 N329 1.374 . S
C333 C332 1.439 1_655 S
C333 C358 1.395 . S
N334 Co323 1.995 . S
N334 C335 1.376 . S
N334 C338 1.383 . S
C335 N334 1.376 . S
C335 C336 1.446 . S
C335 C358 1.391 . S
C336 C335 1.446 . S
C336 C337 1.339 . S
C336 H365 0.949 . S
C337 C336 1.339 . S
C337 C338 1.439 . S
C337 H366 0.950 . S
C338 N334 1.383 . S
C338 C337 1.439 . S
C338 C356 1.392 . S
N339 Co323 2.282 . S
N339 C342 1.332 . S
N339 C344 1.332 . S
C340 C341 1.386 . S
C340 C343 1.388 . S
C341 C340 1.386 . S
C341 C342 1.382 . S
C341 H367 0.950 . S
C342 N339 1.332 . S
C342 C341 1.382 . S
C342 H353 0.952 . S
C343 C340 1.388 . S
C343 C344 1.382 . S
C343 H368 0.950 . S
C344 N339 1.332 . S
C344 C343 1.382 . S
C344 H354 0.948 . S
N345 Co323 2.282 . S
N345 C349 1.332 . S
N345 C350 1.332 . S
C346 C347 1.388 . S
C346 C350 1.382 . S
C346 H369 0.950 . S
C347 C346 1.388 . S
C347 C348 1.386 . S
C348 C347 1.386 . S
C348 C349 1.382 . S
C348 H370 0.950 . S
C349 N345 1.332 . S
C349 C348 1.382 . S
C349 H351 0.952 . S
C350 N345 1.332 . S
C350 C346 1.382 . S
C350 H352 0.948 . S
H351 C349 0.952 . S
H352 C350 0.948 . S
H353 C342 0.952 . S
H354 C344 0.948 . S
C355 C321 1.395 . S
C355 C325 1.391 . S
C356 C318 1.389 . S
C356 C338 1.392 . S
C357 C328 1.392 1_455 S
C357 C330 1.389 . S
C358 C333 1.395 . S
C358 C335 1.391 . S
H359 C319 0.951 . S
H360 C320 0.950 . S
H361 C326 0.949 1_554 S
H362 C327 0.950 1_554 S
H363 C331 0.951 . S
H364 C332 0.950 . S
H365 C336 0.949 . S
H366 C337 0.950 . S
H367 C341 0.950 . S
H368 C343 0.950 . S
H369 C346 0.950 . S
H370 C348 0.950 . S
C371 C372 1.443 . S
C371 N375 1.376 1_565 S
C371 C409 1.389 . S
C372 C371 1.443 . S
C372 C373 1.340 . S
C372 H412 0.951 . S
C373 C372 1.340 . S
C373 C374 1.439 1_565 S
C373 H413 0.950 . S
C374 C373 1.439 1_545 S
C374 N375 1.374 . S
C374 C408 1.395 . S
N375 C371 1.376 1_545 S
N375 C374 1.374 . S
N375 Co376 2.008 . S
Co376 N375 2.008 . S
Co376 N377 1.995 . S
Co376 N382 2.008 . S
Co376 N387 1.995 . S
Co376 N392 2.282 . S
Co376 N398 2.282 . S
N377 Co376 1.995 . S
N377 C378 1.376 . S
N377 C381 1.383 . S
C378 N377 1.376 . S
C378 C379 1.446 . S
C378 C408 1.391 . S
C379 C378 1.446 . S
C379 C380 1.339 . S
C379 H414 0.949 . S
C380 C379 1.339 . S
C380 C381 1.439 . S
C380 H415 0.950 . S
C381 N377 1.383 . S
C381 C380 1.439 . S
C381 C410 1.392 . S
N382 Co376 2.008 . S
N382 C383 1.376 . S
N382 C386 1.374 . S
C383 N382 1.376 . S
C383 C384 1.443 . S
C383 C410 1.389 . S
C384 C383 1.443 . S
C384 C385 1.340 . S
C384 H416 0.951 . S
C385 C384 1.340 . S
C385 C386 1.439 . S
C385 H417 0.950 . S
C386 N382 1.374 . S
C386 C385 1.439 . S
C386 C411 1.395 . S
N387 Co376 1.995 . S
N387 C388 1.376 . S
N387 C391 1.383 . S
C388 N387 1.376 . S
C388 C389 1.446 . S
C388 C411 1.391 . S
C389 C388 1.446 . S
C389 C390 1.339 . S
C389 H418 0.949 1_554 S
C390 C389 1.339 . S
C390 C391 1.439 . S
C390 H419 0.950 1_554 S
C391 N387 1.383 . S
C391 C390 1.439 . S
C391 C409 1.392 1_545 S
N392 Co376 2.282 . S
N392 C395 1.332 . S
N392 C397 1.332 . S
C393 C394 1.386 . S
C393 C396 1.388 . S
C394 C393 1.386 . S
C394 C395 1.382 . S
C394 H420 0.950 . S
C395 N392 1.332 . S
C395 C394 1.382 . S
C395 H406 0.952 . S
C396 C393 1.388 . S
C396 C397 1.382 . S
C396 H421 0.950 . S
C397 N392 1.332 . S
C397 C396 1.382 . S
C397 H407 0.948 . S
N398 Co376 2.282 . S
N398 C402 1.332 . S
N398 C403 1.332 . S
C399 C400 1.388 . S
C399 C403 1.382 . S
C399 H422 0.950 . S
C400 C399 1.388 . S
C400 C401 1.386 . S
C401 C400 1.386 . S
C401 C402 1.382 . S
C401 H423 0.950 . S
C402 N398 1.332 . S
C402 C401 1.382 . S
C402 H404 0.952 . S
C403 N398 1.332 . S
C403 C399 1.382 . S
C403 H405 0.948 . S
H404 C402 0.952 . S
H405 C403 0.948 . S
H406 C395 0.952 . S
H407 C397 0.948 . S
C408 C374 1.395 . S
C408 C378 1.391 . S
C409 C371 1.389 . S
C409 C391 1.392 1_565 S
C410 C381 1.392 . S
C410 C383 1.389 . S
C411 C386 1.395 . S
C411 C388 1.391 . S
H412 C372 0.951 . S
H413 C373 0.950 . S
H414 C379 0.949 . S
H415 C380 0.950 . S
H416 C384 0.951 . S
H417 C385 0.950 . S
H418 C389 0.949 1_556 S
H419 C390 0.950 1_556 S
H420 C394 0.950 . S
H421 C396 0.950 . S
H422 C399 0.950 . S
H423 C401 0.950 . S
C424 C425 1.443 . S
C424 N428 1.376 . S
C424 C462 1.389 . S
C425 C424 1.443 . S
C425 C426 1.340 . S
C425 H465 0.951 . S
C426 C425 1.340 . S
C426 C427 1.439 . S
C426 H466 0.950 . S
C427 C426 1.439 . S
C427 N428 1.374 . S
C427 C461 1.395 . S
N428 C424 1.376 . S
N428 C427 1.374 . S
N428 Co429 2.008 . S
Co429 N428 2.008 . S
Co429 N430 1.995 . S
Co429 N435 2.008 . S
Co429 N440 1.995 . S
Co429 N445 2.282 . S
Co429 N451 2.282 . S
N430 Co429 1.995 . S
N430 C431 1.376 . S
N430 C434 1.383 . S
C431 N430 1.376 . S
C431 C432 1.446 . S
C431 C461 1.391 . S
C432 C431 1.446 . S
C432 C433 1.339 . S
C432 H467 0.949 . S
C433 C432 1.339 . S
C433 C434 1.439 . S
C433 H468 0.950 . S
C434 N430 1.383 . S
C434 C433 1.439 . S
C434 C463 1.392 . S
N435 Co429 2.008 . S
N435 C436 1.376 . S
N435 C439 1.374 . S
C436 N435 1.376 . S
C436 C437 1.443 . S
C436 C463 1.389 . S
C437 C436 1.443 . S
C437 C438 1.340 . S
C437 H469 0.951 . S
C438 C437 1.340 . S
C438 C439 1.439 . S
C438 H470 0.950 . S
C439 N435 1.374 . S
C439 C438 1.439 . S
C439 C464 1.395 . S
N440 Co429 1.995 . S
N440 C441 1.376 . S
N440 C444 1.383 . S
C441 N440 1.376 . S
C441 C442 1.446 . S
C441 C464 1.391 . S
C442 C441 1.446 . S
C442 C443 1.339 . S
C442 H471 0.949 . S
C443 C442 1.339 . S
C443 C444 1.439 . S
C443 H472 0.950 . S
C444 N440 1.383 . S
C444 C443 1.439 . S
C444 C462 1.392 . S
N445 Co429 2.282 . S
N445 C448 1.332 . S
N445 C450 1.332 . S
C446 C447 1.386 . S
C446 C449 1.388 . S
C447 C446 1.386 . S
C447 C448 1.382 . S
C447 H473 0.950 . S
C448 N445 1.332 . S
C448 C447 1.382 . S
C448 H459 0.952 . S
C449 C446 1.388 . S
C449 C450 1.382 . S
C449 H474 0.950 . S
C450 N445 1.332 . S
C450 C449 1.382 . S
C450 H460 0.948 . S
N451 Co429 2.282 . S
N451 C455 1.332 . S
N451 C456 1.332 . S
C452 C453 1.388 . S
C452 C456 1.382 . S
C452 H475 0.950 . S
C453 C452 1.388 . S
C453 C454 1.386 . S
C454 C453 1.386 . S
C454 C455 1.382 . S
C454 H476 0.950 . S
C455 N451 1.332 . S
C455 C454 1.382 . S
C455 H457 0.952 . S
C456 N451 1.332 . S
C456 C452 1.382 . S
C456 H458 0.948 . S
H457 C455 0.952 . S
H458 C456 0.948 . S
H459 C448 0.952 . S
H460 C450 0.948 . S
C461 C427 1.395 . S
C461 C431 1.391 . S
C462 C424 1.389 . S
C462 C444 1.392 . S
C463 C434 1.392 . S
C463 C436 1.389 . S
C464 C439 1.395 . S
C464 C441 1.391 . S
H465 C425 0.951 . S
H466 C426 0.950 . S
H467 C432 0.949 . S
H468 C433 0.950 . S
H469 C437 0.951 . S
H470 C438 0.950 . S
H471 C442 0.949 . S
H472 C443 0.950 . S
H473 C447 0.950 . S
H474 C449 0.950 . S
H475 C452 0.950 . S
H476 C454 0.950 . S
C477 C478 1.443 . S
C477 N481 1.376 . S
C477 C515 1.389 . S
C478 C477 1.443 . S
C478 C479 1.340 . S
C478 H518 0.951 . S
C479 C478 1.340 . S
C479 C480 1.439 . S
C479 H519 0.950 . S
C480 C479 1.439 . S
C480 N481 1.374 . S
C480 C514 1.395 . S
N481 C477 1.376 . S
N481 C480 1.374 . S
N481 Co482 2.008 . S
Co482 N481 2.008 . S
Co482 N483 1.995 . S
Co482 N488 2.008 . S
Co482 N493 1.995 . S
Co482 N498 2.282 . S
Co482 N504 2.282 . S
N483 Co482 1.995 . S
N483 C484 1.376 . S
N483 C487 1.383 . S
C484 N483 1.376 . S
C484 C485 1.446 . S
C484 C514 1.391 . S
C485 C484 1.446 . S
C485 C486 1.339 . S
C485 H520 0.949 . S
C486 C485 1.339 . S
C486 C487 1.439 . S
C486 H521 0.950 . S
C487 N483 1.383 . S
C487 C486 1.439 . S
C487 C516 1.392 . S
N488 Co482 2.008 . S
N488 C489 1.376 . S
N488 C492 1.374 . S
C489 N488 1.376 . S
C489 C490 1.443 . S
C489 C516 1.389 . S
C490 C489 1.443 . S
C490 C491 1.340 . S
C490 H522 0.951 . S
C491 C490 1.340 . S
C491 C492 1.439 . S
C491 H523 0.950 . S
C492 N488 1.374 . S
C492 C491 1.439 . S
C492 C517 1.395 . S
N493 Co482 1.995 . S
N493 C494 1.376 . S
N493 C497 1.383 . S
C494 N493 1.376 . S
C494 C495 1.446 . S
C494 C517 1.391 . S
C495 C494 1.446 . S
C495 C496 1.339 . S
C495 H524 0.949 . S
C496 C495 1.339 . S
C496 C497 1.439 . S
C496 H525 0.950 . S
C497 N493 1.383 . S
C497 C496 1.439 . S
C497 C515 1.392 . S
N498 Co482 2.282 . S
N498 C501 1.332 . S
N498 C503 1.332 . S
C499 C500 1.386 . S
C499 C502 1.388 . S
C500 C499 1.386 . S
C500 C501 1.382 . S
C500 H526 0.950 . S
C501 N498 1.332 . S
C501 C500 1.382 . S
C501 H512 0.952 . S
C502 C499 1.388 . S
C502 C503 1.382 . S
C502 H527 0.950 . S
C503 N498 1.332 . S
C503 C502 1.382 . S
C503 H513 0.948 . S
N504 Co482 2.282 . S
N504 C508 1.332 . S
N504 C509 1.332 . S
C505 C506 1.388 . S
C505 C509 1.382 . S
C505 H528 0.950 . S
C506 C505 1.388 . S
C506 C507 1.386 . S
C507 C506 1.386 . S
C507 C508 1.382 . S
C507 H529 0.950 . S
C508 N504 1.332 . S
C508 C507 1.382 . S
C508 H510 0.952 . S
C509 N504 1.332 . S
C509 C505 1.382 . S
C509 H511 0.948 . S
H510 C508 0.952 . S
H511 C509 0.948 . S
H512 C501 0.952 . S
H513 C503 0.948 . S
C514 C480 1.395 . S
C514 C484 1.391 . S
C515 C477 1.389 . S
C515 C497 1.392 . S
C516 C487 1.392 . S
C516 C489 1.389 . S
C517 C492 1.395 . S
C517 C494 1.391 . S
H518 C478 0.951 . S
H519 C479 0.950 . S
H520 C485 0.949 . S
H521 C486 0.950 . S
H522 C490 0.951 . S
H523 C491 0.950 . S
H524 C495 0.949 . S
H525 C496 0.950 . S
H526 C500 0.950 . S
H527 C502 0.950 . S
H528 C505 0.950 . S
H529 C507 0.950 . S
C530 C531 1.443 . S
C530 N534 1.376 . S
C530 C568 1.389 . S
C531 C530 1.443 . S
C531 C532 1.340 . S
C531 H571 0.951 . S
C532 C531 1.340 . S
C532 C533 1.439 . S
C532 H572 0.950 . S
C533 C532 1.439 . S
C533 N534 1.374 . S
C533 C567 1.395 . S
N534 C530 1.376 . S
N534 C533 1.374 . S
N534 Co535 2.008 . S
Co535 N534 2.008 . S
Co535 N536 1.995 . S
Co535 N541 2.008 . S
Co535 N546 1.995 . S
Co535 N551 2.282 . S
Co535 N557 2.282 . S
N536 Co535 1.995 . S
N536 C537 1.376 . S
N536 C540 1.383 . S
C537 N536 1.376 . S
C537 C538 1.446 . S
C537 C567 1.391 . S
C538 C537 1.446 . S
C538 C539 1.339 . S
C538 H573 0.949 . S
C539 C538 1.339 . S
C539 C540 1.439 . S
C539 H574 0.950 . S
C540 N536 1.383 . S
C540 C539 1.439 . S
C540 C569 1.392 . S
N541 Co535 2.008 . S
N541 C542 1.376 . S
N541 C545 1.374 . S
C542 N541 1.376 . S
C542 C543 1.443 . S
C542 C569 1.389 . S
C543 C542 1.443 . S
C543 C544 1.340 . S
C543 H575 0.951 . S
C544 C543 1.340 . S
C544 C545 1.439 . S
C544 H576 0.950 . S
C545 N541 1.374 . S
C545 C544 1.439 . S
C545 C570 1.395 . S
N546 Co535 1.995 . S
N546 C547 1.376 . S
N546 C550 1.383 . S
C547 N546 1.376 . S
C547 C548 1.446 . S
C547 C570 1.391 . S
C548 C547 1.446 . S
C548 C549 1.339 . S
C548 H577 0.949 . S
C549 C548 1.339 . S
C549 C550 1.439 . S
C549 H578 0.950 . S
C550 N546 1.383 . S
C550 C549 1.439 . S
C550 C568 1.392 . S
N551 Co535 2.282 . S
N551 C554 1.332 . S
N551 C556 1.332 . S
C552 C553 1.386 . S
C552 C555 1.388 . S
C553 C552 1.386 . S
C553 C554 1.382 . S
C553 H579 0.950 . S
C554 N551 1.332 . S
C554 C553 1.382 . S
C554 H565 0.952 . S
C555 C552 1.388 . S
C555 C556 1.382 . S
C555 H580 0.950 . S
C556 N551 1.332 . S
C556 C555 1.382 . S
C556 H566 0.948 . S
N557 Co535 2.282 . S
N557 C561 1.332 . S
N557 C562 1.332 . S
C558 C559 1.388 . S
C558 C562 1.382 . S
C558 H581 0.950 . S
C559 C558 1.388 . S
C559 C560 1.386 . S
C560 C559 1.386 . S
C560 C561 1.382 . S
C560 H582 0.950 . S
C561 N557 1.332 . S
C561 C560 1.382 . S
C561 H563 0.952 . S
C562 N557 1.332 . S
C562 C558 1.382 . S
C562 H564 0.948 . S
H563 C561 0.952 . S
H564 C562 0.948 . S
H565 C554 0.952 . S
H566 C556 0.948 . S
C567 C533 1.395 . S
C567 C537 1.391 . S
C568 C530 1.389 . S
C568 C550 1.392 . S
C569 C540 1.392 . S
C569 C542 1.389 . S
C570 C545 1.395 . S
C570 C547 1.391 . S
H571 C531 0.951 . S
H572 C532 0.950 . S
H573 C538 0.949 . S
H574 C539 0.950 . S
H575 C543 0.951 . S
H576 C544 0.950 . S
H577 C548 0.949 . S
H578 C549 0.950 . S
H579 C553 0.950 . S
H580 C555 0.950 . S
H581 C558 0.950 . S
H582 C560 0.950 . S
C583 C584 1.443 . S
C583 N587 1.376 . S
C583 C621 1.389 . S
C584 C583 1.443 . S
C584 C585 1.340 . S
C584 H624 0.951 . S
C585 C584 1.340 . S
C585 C586 1.439 . S
C585 H625 0.950 . S
C586 C585 1.439 . S
C586 N587 1.374 . S
C586 C620 1.395 . S
N587 C583 1.376 . S
N587 C586 1.374 . S
N587 Co588 2.008 . S
Co588 N587 2.008 . S
Co588 N589 1.995 . S
Co588 N594 2.008 . S
Co588 N599 1.995 . S
Co588 N604 2.282 . S
Co588 N610 2.282 . S
N589 Co588 1.995 . S
N589 C590 1.376 . S
N589 C593 1.383 . S
C590 N589 1.376 . S
C590 C591 1.446 . S
C590 C620 1.391 . S
C591 C590 1.446 . S
C591 C592 1.339 . S
C591 H626 0.949 . S
C592 C591 1.339 . S
C592 C593 1.439 . S
C592 H627 0.950 . S
C593 N589 1.383 . S
C593 C592 1.439 . S
C593 C622 1.392 . S
N594 Co588 2.008 . S
N594 C595 1.376 . S
N594 C598 1.374 . S
C595 N594 1.376 . S
C595 C596 1.443 . S
C595 C622 1.389 . S
C596 C595 1.443 . S
C596 C597 1.340 . S
C596 H628 0.951 . S
C597 C596 1.340 . S
C597 C598 1.439 . S
C597 H629 0.950 . S
C598 N594 1.374 . S
C598 C597 1.439 . S
C598 C623 1.395 . S
N599 Co588 1.995 . S
N599 C600 1.376 . S
N599 C603 1.383 . S
C600 N599 1.376 . S
C600 C601 1.446 . S
C600 C623 1.391 . S
C601 C600 1.446 . S
C601 C602 1.339 . S
C601 H630 0.949 . S
C602 C601 1.339 . S
C602 C603 1.439 . S
C602 H631 0.950 . S
C603 N599 1.383 . S
C603 C602 1.439 . S
C603 C621 1.392 . S
N604 Co588 2.282 . S
N604 C607 1.332 . S
N604 C609 1.332 . S
C605 C606 1.386 . S
C605 C608 1.388 . S
C606 C605 1.386 . S
C606 C607 1.382 . S
C606 H632 0.950 . S
C607 N604 1.332 . S
C607 C606 1.382 . S
C607 H618 0.952 . S
C608 C605 1.388 . S
C608 C609 1.382 . S
C608 H633 0.950 . S
C609 N604 1.332 . S
C609 C608 1.382 . S
C609 H619 0.948 . S
N610 Co588 2.282 . S
N610 C614 1.332 . S
N610 C615 1.332 . S
C611 C612 1.388 . S
C611 C615 1.382 . S
C611 H634 0.950 . S
C612 C611 1.388 . S
C612 C613 1.386 . S
C613 C612 1.386 . S
C613 C614 1.382 . S
C613 H635 0.950 . S
C614 N610 1.332 . S
C614 C613 1.382 . S
C614 H616 0.952 . S
C615 N610 1.332 . S
C615 C611 1.382 . S
C615 H617 0.948 . S
H616 C614 0.952 . S
H617 C615 0.948 . S
H618 C607 0.952 . S
H619 C609 0.948 . S
C620 C586 1.395 . S
C620 C590 1.391 . S
C621 C583 1.389 . S
C621 C603 1.392 . S
C622 C593 1.392 . S
C622 C595 1.389 . S
C623 C598 1.395 . S
C623 C600 1.391 . S
H624 C584 0.951 . S
H625 C585 0.950 . S
H626 C591 0.949 . S
H627 C592 0.950 . S
H628 C596 0.951 . S
H629 C597 0.950 . S
H630 C601 0.949 . S
H631 C602 0.950 . S
H632 C606 0.950 . S
H633 C608 0.950 . S
H634 C611 0.950 . S
H635 C613 0.950 . S
C636 C637 1.443 . S
C636 N640 1.376 . S
C636 C674 1.389 . S
C637 C636 1.443 . S
C637 C638 1.340 . S
C637 H677 0.951 . S
C638 C637 1.340 . S
C638 C639 1.439 . S
C638 H678 0.950 . S
C639 C638 1.439 . S
C639 N640 1.374 . S
C639 C673 1.395 . S
N640 C636 1.376 . S
N640 C639 1.374 . S
N640 Co641 2.008 . S
Co641 N640 2.008 . S
Co641 N642 1.995 . S
Co641 N647 2.008 . S
Co641 N652 1.995 . S
Co641 N657 2.282 . S
Co641 N663 2.282 . S
N642 Co641 1.995 . S
N642 C643 1.376 . S
N642 C646 1.383 . S
C643 N642 1.376 . S
C643 C644 1.446 . S
C643 C673 1.391 . S
C644 C643 1.446 . S
C644 C645 1.339 . S
C644 H679 0.949 . S
C645 C644 1.339 . S
C645 C646 1.439 . S
C645 H680 0.950 . S
C646 N642 1.383 . S
C646 C645 1.439 . S
C646 C675 1.392 . S
N647 Co641 2.008 . S
N647 C648 1.376 . S
N647 C651 1.374 . S
C648 N647 1.376 . S
C648 C649 1.443 . S
C648 C675 1.389 . S
C649 C648 1.443 . S
C649 C650 1.340 . S
C649 H681 0.951 . S
C650 C649 1.340 . S
C650 C651 1.439 . S
C650 H682 0.950 . S
C651 N647 1.374 . S
C651 C650 1.439 . S
C651 C676 1.395 . S
N652 Co641 1.995 . S
N652 C653 1.376 . S
N652 C656 1.383 . S
C653 N652 1.376 . S
C653 C654 1.446 . S
C653 C676 1.391 . S
C654 C653 1.446 . S
C654 C655 1.339 . S
C654 H683 0.949 . S
C655 C654 1.339 . S
C655 C656 1.439 . S
C655 H684 0.950 . S
C656 N652 1.383 . S
C656 C655 1.439 . S
C656 C674 1.392 . S
N657 Co641 2.282 . S
N657 C660 1.332 . S
N657 C662 1.332 . S
C658 C659 1.386 . S
C658 C661 1.388 . S
C659 C658 1.386 . S
C659 C660 1.382 . S
C659 H685 0.950 . S
C660 N657 1.332 . S
C660 C659 1.382 . S
C660 H671 0.952 . S
C661 C658 1.388 . S
C661 C662 1.382 . S
C661 H686 0.950 . S
C662 N657 1.332 . S
C662 C661 1.382 . S
C662 H672 0.948 . S
N663 Co641 2.282 . S
N663 C667 1.332 . S
N663 C668 1.332 . S
C664 C665 1.388 . S
C664 C668 1.382 . S
C664 H687 0.950 . S
C665 C664 1.388 . S
C665 C666 1.386 . S
C666 C665 1.386 . S
C666 C667 1.382 . S
C666 H688 0.950 . S
C667 N663 1.332 . S
C667 C666 1.382 . S
C667 H669 0.952 . S
C668 N663 1.332 . S
C668 C664 1.382 . S
C668 H670 0.948 . S
H669 C667 0.952 . S
H670 C668 0.948 . S
H671 C660 0.952 . S
H672 C662 0.948 . S
C673 C639 1.395 . S
C673 C643 1.391 . S
C674 C636 1.389 . S
C674 C656 1.392 . S
C675 C646 1.392 . S
C675 C648 1.389 . S
C676 C651 1.395 . S
C676 C653 1.391 . S
H677 C637 0.951 . S
H678 C638 0.950 . S
H679 C644 0.949 . S
H680 C645 0.950 . S
H681 C649 0.951 . S
H682 C650 0.950 . S
H683 C654 0.949 . S
H684 C655 0.950 . S
H685 C659 0.950 . S
H686 C661 0.950 . S
H687 C664 0.950 . S
H688 C666 0.950 . S
C689 C690 1.443 . S
C689 N693 1.376 . S
C689 C727 1.389 . S
C690 C689 1.443 . S
C690 C691 1.340 . S
C690 H730 0.951 . S
C691 C690 1.340 . S
C691 C692 1.439 . S
C691 H731 0.950 . S
C692 C691 1.439 . S
C692 N693 1.374 . S
C692 C726 1.395 . S
N693 C689 1.376 . S
N693 C692 1.374 . S
N693 Co694 2.008 . S
Co694 N693 2.008 . S
Co694 N695 1.995 . S
Co694 N700 2.008 . S
Co694 N705 1.995 . S
Co694 N710 2.282 . S
Co694 N716 2.282 . S
N695 Co694 1.995 . S
N695 C696 1.376 . S
N695 C699 1.383 . S
C696 N695 1.376 . S
C696 C697 1.446 . S
C696 C726 1.391 . S
C697 C696 1.446 . S
C697 C698 1.339 . S
C697 H732 0.949 . S
C698 C697 1.339 . S
C698 C699 1.439 . S
C698 H733 0.950 . S
C699 N695 1.383 . S
C699 C698 1.439 . S
C699 C728 1.392 . S
N700 Co694 2.008 . S
N700 C701 1.376 . S
N700 C704 1.374 . S
C701 N700 1.376 . S
C701 C702 1.443 . S
C701 C728 1.389 . S
C702 C701 1.443 . S
C702 C703 1.340 . S
C702 H734 0.951 . S
C703 C702 1.340 . S
C703 C704 1.439 . S
C703 H735 0.950 . S
C704 N700 1.374 . S
C704 C703 1.439 . S
C704 C729 1.395 . S
N705 Co694 1.995 . S
N705 C706 1.376 . S
N705 C709 1.383 . S
C706 N705 1.376 . S
C706 C707 1.446 . S
C706 C729 1.391 . S
C707 C706 1.446 . S
C707 C708 1.339 . S
C707 H736 0.949 . S
C708 C707 1.339 . S
C708 C709 1.439 . S
C708 H737 0.950 . S
C709 N705 1.383 . S
C709 C708 1.439 . S
C709 C727 1.392 . S
N710 Co694 2.282 . S
N710 C713 1.332 . S
N710 C715 1.332 . S
C711 C712 1.386 . S
C711 C714 1.388 . S
C712 C711 1.386 . S
C712 C713 1.382 . S
C712 H738 0.950 . S
C713 N710 1.332 . S
C713 C712 1.382 . S
C713 H724 0.952 . S
C714 C711 1.388 . S
C714 C715 1.382 . S
C714 H739 0.950 . S
C715 N710 1.332 . S
C715 C714 1.382 . S
C715 H725 0.948 . S
N716 Co694 2.282 . S
N716 C720 1.332 . S
N716 C721 1.332 . S
C717 C718 1.388 . S
C717 C721 1.382 . S
C717 H740 0.950 . S
C718 C717 1.388 . S
C718 C719 1.386 . S
C719 C718 1.386 . S
C719 C720 1.382 . S
C719 H741 0.950 . S
C720 N716 1.332 . S
C720 C719 1.382 . S
C720 H722 0.952 . S
C721 N716 1.332 . S
C721 C717 1.382 . S
C721 H723 0.948 . S
H722 C720 0.952 . S
H723 C721 0.948 . S
H724 C713 0.952 . S
H725 C715 0.948 . S
C726 C692 1.395 . S
C726 C696 1.391 . S
C727 C689 1.389 . S
C727 C709 1.392 . S
C728 C699 1.392 . S
C728 C701 1.389 . S
C729 C704 1.395 . S
C729 C706 1.391 . S
H730 C690 0.951 . S
H731 C691 0.950 . S
H732 C697 0.949 . S
H733 C698 0.950 . S
H734 C702 0.951 . S
H735 C703 0.950 . S
H736 C707 0.949 . S
H737 C708 0.950 . S
H738 C712 0.950 . S
H739 C714 0.950 . S
H740 C717 0.950 . S
H741 C719 0.950 . S
C742 C743 1.443 . S
C742 N746 1.376 . S
C742 C780 1.389 . S
C743 C742 1.443 . S
C743 C744 1.340 . S
C743 H783 0.951 . S
C744 C743 1.340 . S
C744 C745 1.439 . S
C744 H784 0.950 . S
C745 C744 1.439 . S
C745 N746 1.374 . S
C745 C779 1.395 . S
N746 C742 1.376 . S
N746 C745 1.374 . S
N746 Co747 2.008 . S
Co747 N746 2.008 . S
Co747 N748 1.995 . S
Co747 N753 2.008 . S
Co747 N758 1.995 . S
Co747 N763 2.282 . S
Co747 N769 2.282 . S
N748 Co747 1.995 . S
N748 C749 1.376 . S
N748 C752 1.383 . S
C749 N748 1.376 . S
C749 C750 1.446 . S
C749 C779 1.391 . S
C750 C749 1.446 . S
C750 C751 1.339 . S
C750 H785 0.949 . S
C751 C750 1.339 . S
C751 C752 1.439 . S
C751 H786 0.950 . S
C752 N748 1.383 . S
C752 C751 1.439 . S
C752 C781 1.392 . S
N753 Co747 2.008 . S
N753 C754 1.376 . S
N753 C757 1.374 . S
C754 N753 1.376 . S
C754 C755 1.443 . S
C754 C781 1.389 . S
C755 C754 1.443 . S
C755 C756 1.340 . S
C755 H787 0.951 . S
C756 C755 1.340 . S
C756 C757 1.439 . S
C756 H788 0.950 . S
C757 N753 1.374 . S
C757 C756 1.439 . S
C757 C782 1.395 . S
N758 Co747 1.995 . S
N758 C759 1.376 . S
N758 C762 1.383 . S
C759 N758 1.376 . S
C759 C760 1.446 . S
C759 C782 1.391 . S
C760 C759 1.446 . S
C760 C761 1.339 . S
C760 H789 0.949 . S
C761 C760 1.339 . S
C761 C762 1.439 . S
C761 H790 0.950 . S
C762 N758 1.383 . S
C762 C761 1.439 . S
C762 C780 1.392 . S
N763 Co747 2.282 . S
N763 C766 1.332 . S
N763 C768 1.332 . S
C764 C765 1.386 . S
C764 C767 1.388 . S
C765 C764 1.386 . S
C765 C766 1.382 . S
C765 H791 0.950 . S
C766 N763 1.332 . S
C766 C765 1.382 . S
C766 H777 0.952 . S
C767 C764 1.388 . S
C767 C768 1.382 . S
C767 H792 0.950 . S
C768 N763 1.332 . S
C768 C767 1.382 . S
C768 H778 0.948 . S
N769 Co747 2.282 . S
N769 C773 1.332 . S
N769 C774 1.332 . S
C770 C771 1.388 . S
C770 C774 1.382 . S
C770 H793 0.950 . S
C771 C770 1.388 . S
C771 C772 1.386 . S
C772 C771 1.386 . S
C772 C773 1.382 . S
C772 H794 0.950 . S
C773 N769 1.332 . S
C773 C772 1.382 . S
C773 H775 0.952 . S
C774 N769 1.332 . S
C774 C770 1.382 . S
C774 H776 0.948 . S
H775 C773 0.952 . S
H776 C774 0.948 . S
H777 C766 0.952 . S
H778 C768 0.948 . S
C779 C745 1.395 . S
C779 C749 1.391 . S
C780 C742 1.389 . S
C780 C762 1.392 . S
C781 C752 1.392 . S
C781 C754 1.389 . S
C782 C757 1.395 . S
C782 C759 1.391 . S
H783 C743 0.951 . S
H784 C744 0.950 . S
H785 C750 0.949 . S
H786 C751 0.950 . S
H787 C755 0.951 . S
H788 C756 0.950 . S
H789 C760 0.949 . S
H790 C761 0.950 . S
H791 C765 0.950 . S
H792 C767 0.950 . S
H793 C770 0.950 . S
H794 C772 0.950 . S
C795 C796 1.443 . S
C795 N799 1.376 . S
C795 C833 1.389 . S
C796 C795 1.443 . S
C796 C797 1.340 . S
C796 H836 0.951 . S
C797 C796 1.340 . S
C797 C798 1.439 . S
C797 H837 0.950 . S
C798 C797 1.439 . S
C798 N799 1.374 . S
C798 C832 1.395 . S
N799 C795 1.376 . S
N799 C798 1.374 . S
N799 Co800 2.008 . S
Co800 N799 2.008 . S
Co800 N801 1.995 . S
Co800 N806 2.008 . S
Co800 N811 1.995 . S
Co800 N816 2.282 . S
Co800 N822 2.282 . S
N801 Co800 1.995 . S
N801 C802 1.376 . S
N801 C805 1.383 . S
C802 N801 1.376 . S
C802 C803 1.446 . S
C802 C832 1.391 . S
C803 C802 1.446 . S
C803 C804 1.339 . S
C803 H838 0.949 . S
C804 C803 1.339 . S
C804 C805 1.439 . S
C804 H839 0.950 . S
C805 N801 1.383 . S
C805 C804 1.439 . S
C805 C834 1.392 . S
N806 Co800 2.008 . S
N806 C807 1.376 . S
N806 C810 1.374 . S
C807 N806 1.376 . S
C807 C808 1.443 . S
C807 C834 1.389 . S
C808 C807 1.443 . S
C808 C809 1.340 . S
C808 H840 0.951 . S
C809 C808 1.340 . S
C809 C810 1.439 . S
C809 H841 0.950 . S
C810 N806 1.374 . S
C810 C809 1.439 . S
C810 C835 1.395 . S
N811 Co800 1.995 . S
N811 C812 1.376 . S
N811 C815 1.383 . S
C812 N811 1.376 . S
C812 C813 1.446 . S
C812 C835 1.391 . S
C813 C812 1.446 . S
C813 C814 1.339 . S
C813 H842 0.949 . S
C814 C813 1.339 . S
C814 C815 1.439 . S
C814 H843 0.950 . S
C815 N811 1.383 . S
C815 C814 1.439 . S
C815 C833 1.392 . S
N816 Co800 2.282 . S
N816 C819 1.332 . S
N816 C821 1.332 . S
C817 C818 1.386 . S
C817 C820 1.388 . S
C818 C817 1.386 . S
C818 C819 1.382 . S
C818 H844 0.950 . S
C819 N816 1.332 . S
C819 C818 1.382 . S
C819 H830 0.952 . S
C820 C817 1.388 . S
C820 C821 1.382 . S
C820 H845 0.950 . S
C821 N816 1.332 . S
C821 C820 1.382 . S
C821 H831 0.948 . S
N822 Co800 2.282 . S
N822 C826 1.332 . S
N822 C827 1.332 . S
C823 C824 1.388 . S
C823 C827 1.382 . S
C823 H846 0.950 . S
C824 C823 1.388 . S
C824 C825 1.386 . S
C825 C824 1.386 . S
C825 C826 1.382 . S
C825 H847 0.950 . S
C826 N822 1.332 . S
C826 C825 1.382 . S
C826 H828 0.952 . S
C827 N822 1.332 . S
C827 C823 1.382 . S
C827 H829 0.948 . S
H828 C826 0.952 . S
H829 C827 0.948 . S
H830 C819 0.952 . S
H831 C821 0.948 . S
C832 C798 1.395 . S
C832 C802 1.391 . S
C833 C795 1.389 . S
C833 C815 1.392 . S
C834 C805 1.392 . S
C834 C807 1.389 . S
C835 C810 1.395 . S
C835 C812 1.391 . S
H836 C796 0.951 . S
H837 C797 0.950 . S
H838 C803 0.949 . S
H839 C804 0.950 . S
H840 C808 0.951 . S
H841 C809 0.950 . S
H842 C813 0.949 . S
H843 C814 0.950 . S
H844 C818 0.950 . S
H845 C820 0.950 . S
H846 C823 0.950 . S
H847 C825 0.950 . S
C848 C849 1.369 . S
C848 C850 1.419 . S
C848 H852 0.930 . S
C849 C848 1.369 . S
C849 C858 1.429 . S
C850 C848 1.419 . S
C850 C851 1.363 . S
C850 H853 0.929 . S
C851 C850 1.363 . S
C851 C857 1.428 . S
H852 C848 0.930 . S
H853 C850 0.929 . S
S854 N855 1.613 . S
S854 N856 1.610 . S
N855 S854 1.613 . S
N855 C858 1.350 . S
N856 S854 1.610 . S
N856 C857 1.351 . S
C857 C851 1.428 . S
C857 N856 1.351 . S
C857 C858 1.434 . S
C858 C849 1.429 . S
C858 N855 1.350 . S
C858 C857 1.434 . S
C859 C860 1.369 . S
C859 C861 1.419 . S
C859 H863 0.930 . S
C860 C859 1.369 . S
C860 C869 1.429 . S
C861 C859 1.419 . S
C861 C862 1.363 . S
C861 H864 0.929 . S
C862 C861 1.363 . S
C862 C868 1.428 . S
H863 C859 0.930 . S
H864 C861 0.929 . S
S865 N866 1.613 . S
S865 N867 1.610 . S
N866 S865 1.613 . S
N866 C869 1.350 . S
N867 S865 1.610 . S
N867 C868 1.351 . S
C868 C862 1.428 . S
C868 N867 1.351 . S
C868 C869 1.434 . S
C869 C860 1.429 . S
C869 N866 1.350 . S
C869 C868 1.434 . S
C870 C871 1.369 . S
C870 C872 1.419 . S
C870 H874 0.930 . S
C871 C870 1.369 . S
C871 C880 1.429 . S
C872 C870 1.419 . S
C872 C873 1.363 . S
C872 H875 0.929 . S
C873 C872 1.363 . S
C873 C879 1.428 . S
H874 C870 0.930 . S
H875 C872 0.929 . S
S876 N877 1.613 . S
S876 N878 1.610 . S
N877 S876 1.613 . S
N877 C880 1.350 . S
N878 S876 1.610 . S
N878 C879 1.351 . S
C879 C873 1.428 . S
C879 N878 1.351 . S
C879 C880 1.434 . S
C880 C871 1.429 . S
C880 N877 1.350 . S
C880 C879 1.434 . S
C881 C882 1.369 . S
C881 C883 1.419 . S
C881 H885 0.930 . S
C882 C881 1.369 . S
C882 C891 1.429 . S
C883 C881 1.419 . S
C883 C884 1.363 . S
C883 H886 0.929 . S
C884 C883 1.363 . S
C884 C890 1.428 . S
H885 C881 0.930 . S
H886 C883 0.929 . S
S887 N888 1.613 . S
S887 N889 1.610 . S
N888 S887 1.613 . S
N888 C891 1.350 . S
N889 S887 1.610 . S
N889 C890 1.351 . S
C890 C884 1.428 . S
C890 N889 1.351 . S
C890 C891 1.434 . S
C891 C882 1.429 . S
C891 N888 1.350 . S
C891 C890 1.434 . S
C892 C893 1.369 . S
C892 C894 1.419 1_554 S
C892 H896 0.930 . S
C893 C892 1.369 . S
C893 C902 1.429 1_554 S
C894 C892 1.419 1_556 S
C894 C895 1.363 . S
C894 H897 0.925 1_556 S
C895 C894 1.363 . S
C895 C901 1.428 . S
H896 C892 0.930 . S
H897 C894 0.925 1_554 S
S898 N899 1.613 . S
S898 N900 1.610 . S
N899 S898 1.613 . S
N899 C902 1.350 . S
N900 S898 1.610 . S
N900 C901 1.351 . S
C901 C895 1.428 . S
C901 N900 1.351 . S
C901 C902 1.434 . S
C902 C893 1.429 1_556 S
C902 N899 1.350 . S
C902 C901 1.434 . S
C903 C904 1.369 . S
C903 C905 1.419 . S
C903 H907 0.930 . S
C904 C903 1.369 . S
C904 C913 1.429 . S
C905 C903 1.419 . S
C905 C906 1.363 1_554 S
C905 H908 0.929 1_455 S
C906 C905 1.363 1_556 S
C906 C912 1.428 . S
H907 C903 0.930 . S
H908 C905 0.929 1_655 S
S909 N910 1.633 . S
S909 N911 1.610 . S
N910 S909 1.633 . S
N910 C913 1.347 1_556 S
N911 S909 1.610 . S
N911 C912 1.351 . S
C912 C906 1.428 . S
C912 N911 1.351 . S
C912 C913 1.434 1_556 S
C913 C904 1.429 . S
C913 N910 1.347 1_554 S
C913 C912 1.434 1_554 S
C914 C915 1.369 . S
C914 C916 1.419 1_556 S
C914 H918 0.930 . S
C915 C914 1.369 . S
C915 C924 1.429 . S
C916 C914 1.419 1_554 S
C916 C917 1.363 . S
C916 H919 0.929 . S
C917 C916 1.363 . S
C917 C923 1.428 1_554 S
H918 C914 0.930 . S
H919 C916 0.929 . S
S920 N921 1.613 . S
S920 N922 1.650 . S
N921 S920 1.613 . S
N921 C924 1.350 1_545 S
N922 S920 1.650 . S
N922 C923 1.353 1_545 S
C923 C917 1.428 1_556 S
C923 N922 1.353 1_565 S
C923 C924 1.434 . S
C924 C915 1.429 . S
C924 N921 1.350 1_565 S
C924 C923 1.434 . S
C925 C926 1.369 . S
C925 C927 1.419 . S
C925 H929 0.930 . S
C926 C925 1.369 . S
C926 C935 1.462 . S
C927 C925 1.419 . S
C927 C928 1.363 1_554 S
C927 H930 0.929 . S
C928 C927 1.363 1_556 S
C928 C934 1.428 . S
H929 C925 0.930 . S
H930 C927 0.929 . S
S931 N932 1.613 . S
S931 N933 1.610 . S
N932 S931 1.613 . S
N932 C935 1.342 1_556 S
N933 S931 1.610 . S
N933 C934 1.351 . S
C934 C928 1.428 . S
C934 N933 1.351 . S
C934 C935 1.406 1_556 S
C935 C926 1.462 . S
C935 N932 1.342 1_554 S
C935 C934 1.406 1_554 S
C936 C937 1.369 . S
C936 C938 1.419 . S
C936 H940 0.930 . S
C937 C936 1.369 . S
C937 C946 1.429 . S
C938 C936 1.419 . S
C938 C939 1.363 . S
C938 H941 0.929 1_565 S
C939 C938 1.363 . S
C939 C945 1.428 . S
H940 C936 0.930 . S
H941 C938 0.929 1_545 S
S942 N943 1.613 . S
S942 N944 1.610 . S
N943 S942 1.613 . S
N943 C946 1.350 . S
N944 S942 1.610 . S
N944 C945 1.351 . S
C945 C939 1.428 . S
C945 N944 1.351 . S
C945 C946 1.434 . S
C946 C937 1.429 . S
C946 N943 1.350 . S
C946 C945 1.434 . S
C947 C948 1.369 . S
C947 C949 1.419 . S
C947 H951 0.930 . S
C948 C947 1.369 . S
C948 C957 1.429 . S
C949 C947 1.419 . S
C949 C950 1.363 . S
C949 H952 0.929 . S
C950 C949 1.363 . S
C950 C956 1.428 . S
H951 C947 0.930 . S
H952 C949 0.929 . S
S953 N954 1.613 . S
S953 N955 1.610 1_455 S
N954 S953 1.613 . S
N954 C957 1.350 1_455 S
N955 S953 1.610 1_655 S
N955 C956 1.351 . S
C956 C950 1.428 . S
C956 N955 1.351 . S
C956 C957 1.434 . S
C957 C948 1.429 . S
C957 N954 1.350 1_655 S
C957 C956 1.434 . S
C958 C959 1.369 . S
C958 C960 1.419 . S
C958 H962 0.930 . S
C959 C958 1.369 . S
C959 C968 1.429 . S
C960 C958 1.419 . S
C960 C961 1.363 . S
C960 H963 0.929 . S
C961 C960 1.363 . S
C961 C967 1.428 . S
H962 C958 0.930 . S
H963 C960 0.929 . S
S964 N965 1.613 . S
S964 N966 1.610 . S
N965 S964 1.613 . S
N965 C968 1.350 . S
N966 S964 1.610 . S
N966 C967 1.351 . S
C967 C961 1.428 . S
C967 N966 1.351 . S
C967 C968 1.434 . S
C968 C959 1.429 . S
C968 N965 1.350 . S
C968 C967 1.434 . S
C969 C970 1.369 . S
C969 C971 1.419 . S
C969 H973 0.930 . S
C970 C969 1.369 . S
C970 C979 1.429 . S
C971 C969 1.419 . S
C971 C972 1.363 . S
C971 H974 0.929 . S
C972 C971 1.363 . S
C972 C978 1.428 . S
H973 C969 0.930 . S
H974 C971 0.929 . S
S975 N976 1.613 . S
S975 N977 1.610 . S
N976 S975 1.613 . S
N976 C979 1.350 . S
N977 S975 1.610 . S
N977 C978 1.351 . S
C978 C972 1.428 . S
C978 N977 1.351 . S
C978 C979 1.434 . S
C979 C970 1.429 . S
C979 N976 1.350 . S
C979 C978 1.434 . S
C980 C981 1.369 . S
C980 C982 1.419 . S
C980 H984 0.930 . S
C981 C980 1.369 . S
C981 C990 1.429 . S
C982 C980 1.419 . S
C982 C983 1.363 . S
C982 H985 0.929 . S
C983 C982 1.363 . S
C983 C989 1.428 . S
H984 C980 0.930 . S
H985 C982 0.929 . S
S986 N987 1.613 . S
S986 N988 1.610 . S
N987 S986 1.613 . S
N987 C990 1.350 . S
N988 S986 1.610 . S
N988 C989 1.351 . S
C989 C983 1.428 . S
C989 N988 1.351 . S
C989 C990 1.434 . S
C990 C981 1.429 . S
C990 N987 1.350 . S
C990 C989 1.434 . S
C991 C992 1.369 . S
C991 C993 1.419 . S
C991 H995 0.930 . S
C992 C991 1.369 . S
C992 C1001 1.429 . S
C993 C991 1.419 . S
C993 C994 1.363 . S
C993 H996 0.929 . S
C994 C993 1.363 . S
C994 C1000 1.428 . S
H995 C991 0.930 . S
H996 C993 0.929 . S
S997 N998 1.613 . S
S997 N999 1.610 . S
N998 S997 1.613 . S
N998 C1001 1.350 . S
N999 S997 1.610 . S
N999 C1000 1.351 . S
C1000 C994 1.428 . S
C1000 N999 1.351 . S
C1000 C1001 1.434 . S
C1001 C992 1.429 . S
C1001 N998 1.350 . S
C1001 C1000 1.434 . S
C1002 C1003 1.369 . S
C1002 C1004 1.419 . S
C1002 H1006 0.930 . S
C1003 C1002 1.369 . S
C1003 C1012 1.429 . S
C1004 C1002 1.419 . S
C1004 C1005 1.363 . S
C1004 H1007 0.929 . S
C1005 C1004 1.363 . S
C1005 C1011 1.428 . S
H1006 C1002 0.930 . S
H1007 C1004 0.929 . S
S1008 N1009 1.613 . S
S1008 N1010 1.610 . S
N1009 S1008 1.613 . S
N1009 C1012 1.350 . S
N1010 S1008 1.610 . S
N1010 C1011 1.351 . S
C1011 C1005 1.428 . S
C1011 N1010 1.351 . S
C1011 C1012 1.434 . S
C1012 C1003 1.429 . S
C1012 N1009 1.350 . S
C1012 C1011 1.434 . S
C1013 C1014 1.369 . S
C1013 C1015 1.419 . S
C1013 H1017 0.930 . S
C1014 C1013 1.369 . S
C1014 C1023 1.429 . S
C1015 C1013 1.419 . S
C1015 C1016 1.363 . S
C1015 H1018 0.929 . S
C1016 C1015 1.363 . S
C1016 C1022 1.428 . S
H1017 C1013 0.930 . S
H1018 C1015 0.929 . S
S1019 N1020 1.613 . S
S1019 N1021 1.610 . S
N1020 S1019 1.613 . S
N1020 C1023 1.350 . S
N1021 S1019 1.610 . S
N1021 C1022 1.351 . S
C1022 C1016 1.428 . S
C1022 N1021 1.351 . S
C1022 C1023 1.434 . S
C1023 C1014 1.429 . S
C1023 N1020 1.350 . S
C1023 C1022 1.434 . S
C1024 C1025 1.369 . S
C1024 C1026 1.419 . S
C1024 H1028 0.930 . S
C1025 C1024 1.369 . S
C1025 C1034 1.429 . S
C1026 C1024 1.419 . S
C1026 C1027 1.363 . S
C1026 H1029 0.929 . S
C1027 C1026 1.363 . S
C1027 C1033 1.428 . S
H1028 C1024 0.930 . S
H1029 C1026 0.929 . S
S1030 N1031 1.613 . S
S1030 N1032 1.610 . S
N1031 S1030 1.613 . S
N1031 C1034 1.350 . S
N1032 S1030 1.610 . S
N1032 C1033 1.351 . S
C1033 C1027 1.428 . S
C1033 N1032 1.351 . S
C1033 C1034 1.434 . S
C1034 C1025 1.429 . S
C1034 N1031 1.350 . S
C1034 C1033 1.434 . S
C1035 C1036 1.369 . S
C1035 C1037 1.419 . S
C1035 H1039 0.930 . S
C1036 C1035 1.369 . S
C1036 C1045 1.429 . S
C1037 C1035 1.419 . S
C1037 C1038 1.363 . S
C1037 H1040 0.929 . S
C1038 C1037 1.363 . S
C1038 C1044 1.428 . S
H1039 C1035 0.930 . S
H1040 C1037 0.929 . S
S1041 N1042 1.613 . S
S1041 N1043 1.610 . S
N1042 S1041 1.613 . S
N1042 C1045 1.350 . S
N1043 S1041 1.610 . S
N1043 C1044 1.351 . S
C1044 C1038 1.428 . S
C1044 N1043 1.351 . S
C1044 C1045 1.434 . S
C1045 C1036 1.429 . S
C1045 N1042 1.350 . S
C1045 C1044 1.434 . S
C1046 C1047 1.369 . S
C1046 C1048 1.419 . S
C1046 H1050 0.930 . S
C1047 C1046 1.369 . S
C1047 C1056 1.429 . S
C1048 C1046 1.419 . S
C1048 C1049 1.363 . S
C1048 H1051 0.929 . S
C1049 C1048 1.363 . S
C1049 C1055 1.428 . S
H1050 C1046 0.930 . S
H1051 C1048 0.929 . S
S1052 N1053 1.613 . S
S1052 N1054 1.610 . S
N1053 S1052 1.613 . S
N1053 C1056 1.350 . S
N1054 S1052 1.610 . S
N1054 C1055 1.351 . S
C1055 C1049 1.428 . S
C1055 N1054 1.351 . S
C1055 C1056 1.434 . S
C1056 C1047 1.429 . S
C1056 N1053 1.350 . S
C1056 C1055 1.434 . S
C1057 C1058 1.369 . S
C1057 C1059 1.419 . S
C1057 H1061 0.930 . S
C1058 C1057 1.369 . S
C1058 C1067 1.429 . S
C1059 C1057 1.419 . S
C1059 C1060 1.363 . S
C1059 H1062 0.929 . S
C1060 C1059 1.363 . S
C1060 C1066 1.428 . S
H1061 C1057 0.930 . S
H1062 C1059 0.929 . S
S1063 N1064 1.613 . S
S1063 N1065 1.610 . S
N1064 S1063 1.613 . S
N1064 C1067 1.350 . S
N1065 S1063 1.610 . S
N1065 C1066 1.351 . S
C1066 C1060 1.428 . S
C1066 N1065 1.351 . S
C1066 C1067 1.434 . S
C1067 C1058 1.429 . S
C1067 N1064 1.350 . S
C1067 C1066 1.434 . S
C1068 C1069 1.369 . S
C1068 C1070 1.419 . S
C1068 H1072 0.930 . S
C1069 C1068 1.369 . S
C1069 C1078 1.429 . S
C1070 C1068 1.419 . S
C1070 C1071 1.363 . S
C1070 H1073 0.929 . S
C1071 C1070 1.363 . S
C1071 C1077 1.428 . S
H1072 C1068 0.930 . S
H1073 C1070 0.929 . S
S1074 N1075 1.613 . S
S1074 N1076 1.610 . S
N1075 S1074 1.613 . S
N1075 C1078 1.350 . S
N1076 S1074 1.610 . S
N1076 C1077 1.351 . S
C1077 C1071 1.428 . S
C1077 N1076 1.351 . S
C1077 C1078 1.434 . S
C1078 C1069 1.429 . S
C1078 N1075 1.350 . S
C1078 C1077 1.434 . S
C1079 C1080 1.369 . S
C1079 C1081 1.419 . S
C1079 H1083 0.930 . S
C1080 C1079 1.369 . S
C1080 C1089 1.429 . S
C1081 C1079 1.419 . S
C1081 C1082 1.363 . S
C1081 H1084 0.929 . S
C1082 C1081 1.363 . S
C1082 C1088 1.428 . S
H1083 C1079 0.930 . S
H1084 C1081 0.929 . S
S1085 N1086 1.613 . S
S1085 N1087 1.610 . S
N1086 S1085 1.613 . S
N1086 C1089 1.350 . S
N1087 S1085 1.610 . S
N1087 C1088 1.351 . S
C1088 C1082 1.428 . S
C1088 N1087 1.351 . S
C1088 C1089 1.434 . S
C1089 C1080 1.429 . S
C1089 N1086 1.350 . S
C1089 C1088 1.434 . S
C1090 C1091 1.369 . S
C1090 C1092 1.419 . S
C1090 H1094 0.930 . S
C1091 C1090 1.369 . S
C1091 C1100 1.429 . S
C1092 C1090 1.419 . S
C1092 C1093 1.363 . S
C1092 H1095 0.929 . S
C1093 C1092 1.363 . S
C1093 C1099 1.428 . S
H1094 C1090 0.930 . S
H1095 C1092 0.929 . S
S1096 N1097 1.613 . S
S1096 N1098 1.610 . S
N1097 S1096 1.613 . S
N1097 C1100 1.350 . S
N1098 S1096 1.610 . S
N1098 C1099 1.351 . S
C1099 C1093 1.428 . S
C1099 N1098 1.351 . S
C1099 C1100 1.434 . S
C1100 C1091 1.429 . S
C1100 N1097 1.350 . S
C1100 C1099 1.434 . S
C1101 C1102 1.369 . S
C1101 C1103 1.419 . S
C1101 H1105 0.930 . S
C1102 C1101 1.369 . S
C1102 C1111 1.429 . S
C1103 C1101 1.419 . S
C1103 C1104 1.363 . S
C1103 H1106 0.929 . S
C1104 C1103 1.363 . S
C1104 C1110 1.428 . S
H1105 C1101 0.930 . S
H1106 C1103 0.929 . S
S1107 N1108 1.613 . S
S1107 N1109 1.610 . S
N1108 S1107 1.613 . S
N1108 C1111 1.350 . S
N1109 S1107 1.610 . S
N1109 C1110 1.351 . S
C1110 C1104 1.428 . S
C1110 N1109 1.351 . S
C1110 C1111 1.434 . S
C1111 C1102 1.429 . S
C1111 N1108 1.350 . S
C1111 C1110 1.434 . S
C1112 C1113 1.369 . S
C1112 C1114 1.419 1_565 S
C1112 H1116 0.930 . S
C1113 C1112 1.369 . S
C1113 C1122 1.429 1_655 S
C1114 C1112 1.419 1_545 S
C1114 C1115 1.363 1_655 S
C1114 H1117 0.929 . S
C1115 C1114 1.363 1_455 S
C1115 C1121 1.428 . S
H1116 C1112 0.930 . S
H1117 C1114 0.929 . S
S1118 N1119 1.613 . S
S1118 N1120 1.610 1_565 S
N1119 S1118 1.613 . S
N1119 C1122 1.350 . S
N1120 S1118 1.610 1_545 S
N1120 C1121 1.351 . S
C1121 C1115 1.428 . S
C1121 N1120 1.351 . S
C1121 C1122 1.434 1_545 S
C1122 C1113 1.429 1_455 S
C1122 N1119 1.350 . S
C1122 C1121 1.434 1_565 S
C1123 C1124 1.369 1_565 S
C1123 C1125 1.419 1_655 S
C1123 H1127 0.930 . S
C1124 C1123 1.369 1_545 S
C1124 C1133 1.429 . S
C1125 C1123 1.419 1_455 S
C1125 C1126 1.363 . S
C1125 H1128 0.929 . S
C1126 C1125 1.363 . S
C1126 C1132 1.428 1_565 S
H1127 C1123 0.930 . S
H1128 C1125 0.929 . S
S1129 N1130 1.613 1_455 S
S1129 N1131 1.610 . S
N1130 S1129 1.613 1_655 S
N1130 C1133 1.350 . S
N1131 S1129 1.610 . S
N1131 C1132 1.351 . S
C1132 C1126 1.428 1_545 S
C1132 N1131 1.351 . S
C1132 C1133 1.434 1_455 S
C1133 C1124 1.429 . S
C1133 N1130 1.350 . S
C1133 C1132 1.434 1_655 S
C1134 C1135 1.369 . S
C1134 C1136 1.416 1_455 S
C1134 H1138 0.930 . S
C1135 C1134 1.369 . S
C1135 C1144 1.429 . S
C1136 C1134 1.416 1_655 S
C1136 C1137 1.366 . S
C1136 H1139 0.929 . S
C1137 C1136 1.366 . S
C1137 C1143 1.428 . S
H1138 C1134 0.930 . S
H1139 C1136 0.929 . S
S1140 N1141 1.613 1_655 S
S1140 N1142 1.610 . S
N1141 S1140 1.613 1_455 S
N1141 C1144 1.350 . S
N1142 S1140 1.610 . S
N1142 C1143 1.351 . S
C1143 C1137 1.428 . S
C1143 N1142 1.351 . S
C1143 C1144 1.434 1_655 S
C1144 C1135 1.429 . S
C1144 N1141 1.350 . S
C1144 C1143 1.434 1_455 S
C1145 C1146 1.369 . S
C1145 C1147 1.419 . S
C1145 H1149 0.930 . S
C1146 C1145 1.369 . S
C1146 C1155 1.429 1_565 S
C1147 C1145 1.419 . S
C1147 C1148 1.363 1_565 S
C1147 H1150 0.929 . S
C1148 C1147 1.363 1_545 S
C1148 C1154 1.428 . S
H1149 C1145 0.930 . S
H1150 C1147 0.929 . S
S1151 N1152 1.613 . S
S1151 N1153 1.610 . S
N1152 S1151 1.613 . S
N1152 C1155 1.350 . S
N1153 S1151 1.610 . S
N1153 C1154 1.351 . S
C1154 C1148 1.428 . S
C1154 N1153 1.351 . S
C1154 C1155 1.434 . S
C1155 C1146 1.429 1_545 S
C1155 N1152 1.350 . S
C1155 C1154 1.434 . S
C1156 C1157 1.369 . S
C1156 C1158 1.419 . S
C1156 H1160 0.930 . S
C1157 C1156 1.369 . S
C1157 C1166 1.429 . S
C1158 C1156 1.419 . S
C1158 C1159 1.363 . S
C1158 H1161 0.929 . S
C1159 C1158 1.363 . S
C1159 C1165 1.428 . S
H1160 C1156 0.930 . S
H1161 C1158 0.929 . S
S1162 N1163 1.613 . S
S1162 N1164 1.610 . S
N1163 S1162 1.613 . S
N1163 C1166 1.350 . S
N1164 S1162 1.610 . S
N1164 C1165 1.351 . S
C1165 C1159 1.428 . S
C1165 N1164 1.351 . S
C1165 C1166 1.434 . S
C1166 C1157 1.429 . S
C1166 N1163 1.350 . S
C1166 C1165 1.434 . S
C1167 C1168 1.369 . S
C1167 C1169 1.419 . S
C1167 H1171 0.930 . S
C1168 C1167 1.369 . S
C1168 C1177 1.429 . S
C1169 C1167 1.419 . S
C1169 C1170 1.363 . S
C1169 H1172 0.929 . S
C1170 C1169 1.363 . S
C1170 C1176 1.428 . S
H1171 C1167 0.930 . S
H1172 C1169 0.929 . S
S1173 N1174 1.613 . S
S1173 N1175 1.610 . S
N1174 S1173 1.613 . S
N1174 C1177 1.350 . S
N1175 S1173 1.610 . S
N1175 C1176 1.351 . S
C1176 C1170 1.428 . S
C1176 N1175 1.351 . S
C1176 C1177 1.434 . S
C1177 C1168 1.429 . S
C1177 N1174 1.350 . S
C1177 C1176 1.434 . S
C1178 C1179 1.369 . S
C1178 C1180 1.419 1_545 S
C1178 H1182 0.930 . S
C1179 C1178 1.369 . S
C1179 C1188 1.429 . S
C1180 C1178 1.419 1_565 S
C1180 C1181 1.363 . S
C1180 H1183 0.929 . S
C1181 C1180 1.363 . S
C1181 C1187 1.428 . S
H1182 C1178 0.930 . S
H1183 C1180 0.929 . S
S1184 N1185 1.613 1_565 S
S1184 N1186 1.610 . S
N1185 S1184 1.613 1_545 S
N1185 C1188 1.350 . S
N1186 S1184 1.610 . S
N1186 C1187 1.351 . S
C1187 C1181 1.428 . S
C1187 N1186 1.351 . S
C1187 C1188 1.434 1_565 S
C1188 C1179 1.429 . S
C1188 N1185 1.350 . S
C1188 C1187 1.434 1_545 S
C1189 C1190 1.369 . S
C1189 C1191 1.419 1_655 S
C1189 H1193 0.930 . S
C1190 C1189 1.369 . S
C1190 C1199 1.429 . S
C1191 C1189 1.419 1_455 S
C1191 C1192 1.363 . S
C1191 H1194 0.929 . S
C1192 C1191 1.363 . S
C1192 C1198 1.428 . S
H1193 C1189 0.930 . S
H1194 C1191 0.929 . S
S1195 N1196 1.613 . S
S1195 N1197 1.610 1_655 S
N1196 S1195 1.613 . S
N1196 C1199 1.350 . S
N1197 S1195 1.610 1_455 S
N1197 C1198 1.351 . S
C1198 C1192 1.428 . S
C1198 N1197 1.351 . S
C1198 C1199 1.434 1_455 S
C1199 C1190 1.429 . S
C1199 N1196 1.350 . S
C1199 C1198 1.434 1_655 S
C849 C22 1.718 . S
C851 C621 1.806 . S
C860 C463 1.802 . S
C862 C82 1.725 . S
C871 C515 1.803 . S
C873 C128 1.725 . S
C882 C569 1.806 . S
C884 C188 1.720 . S
C893 C303 1.805 . S
C895 C234 1.722 . S
C904 C294 1.718 . S
C906 C357 1.806 . S
C915 C340 1.726 . S
C917 C409 1.803 . S
C926 C400 1.721 . S
C928 C251 1.805 . S
C937 C446 1.716 . S
C939 C197 1.806 . S
C948 C39 1.804 . S
C950 C506 1.722 . S
C959 C91 1.803 . S
C961 C552 1.723 . S
C970 C145 1.806 . S
C972 C612 1.719 . S
C981 C727 1.803 . S
C983 C658 1.725 . S
C992 C718 1.717 . S
C994 C781 1.806 . S
C1003 C833 1.807 . S
C1005 C764 1.718 . S
C1014 C675 1.807 . S
C1016 C824 1.719 . S
C1025 C780 2.048 . S
C1027 C38 2.047 . S
C1036 C834 2.048 . S
C1038 C92 2.047 . S
C1047 C674 2.051 . S
C1049 C144 2.049 . S
C1058 C198 2.047 . S
C1060 C728 2.050 . S
C1069 C250 2.051 . S
C1071 C568 2.049 . S
C1080 C622 2.048 . S
C1082 C304 2.046 . S
C1091 C356 2.046 . S
C1093 C462 2.047 . S
C1102 C410 2.046 . S
C1104 C516 2.049 . S
C1113 C135 1.980 . S
C1115 C29 1.980 . S
C1124 C181 1.979 . S
C1126 C75 1.979 . S
C1135 C241 1.981 . S
C1137 C347 1.980 . S
C1146 C287 1.976 . S
C1148 C393 1.977 . S
C1157 C559 1.977 . S
C1159 C453 1.977 . S
C1168 C499 1.976 . S
C1170 C605 1.976 . S
C1179 C771 1.977 . S
C1181 C665 1.977 . S
C1190 C711 1.979 . S
C1192 C817 1.979 . S
