# Generated by pormake.
# Topology vmc, (5)-cn, num edge types: 1
# Building blocks:
#     Node 0, Type 0, BuildingBlock: BEQFEK_clean_sbu_0, # of connection points: 5
#     Node 1, Type 0, BuildingBlock: BEQFEK_clean_sbu_0, # of connection points: 5
#     Node 2, Type 0, BuildingBlock: BEQFEK_clean_sbu_0, # of connection points: 5
#     Node 3, Type 0, BuildingBlock: BEQFEK_clean_sbu_0, # of connection points: 5
#     Node 4, Type 0, BuildingBlock: BEQFEK_clean_sbu_0, # of connection points: 5
#     Node 5, Type 0, BuildingBlock: BEQFEK_clean_sbu_0, # of connection points: 5
#     Node 6, Type 0, BuildingBlock: BEQFEK_clean_sbu_0, # of connection points: 5
#     Node 7, Type 0, BuildingBlock: BEQFEK_clean_sbu_0, # of connection points: 5
#     Edge 8, Type (0, 0), BuildingBlock: MIFKUJ_clean_linker_0, # of connection points: 2
#     Edge 9, Type (0, 0), BuildingBlock: MIFKUJ_clean_linker_0, # of connection points: 2
#     Edge 10, Type (0, 0), BuildingBlock: MIFKUJ_clean_linker_0, # of connection points: 2
#     Edge 11, Type (0, 0), BuildingBlock: MIFKUJ_clean_linker_0, # of connection points: 2
#     Edge 12, Type (0, 0), BuildingBlock: MIFKUJ_clean_linker_0, # of connection points: 2
#     Edge 13, Type (0, 0), BuildingBlock: MIFKUJ_clean_linker_0, # of connection points: 2
#     Edge 14, Type (0, 0), BuildingBlock: MIFKUJ_clean_linker_0, # of connection points: 2
#     Edge 15, Type (0, 0), BuildingBlock: MIFKUJ_clean_linker_0, # of connection points: 2
#     Edge 16, Type (0, 0), BuildingBlock: MIFKUJ_clean_linker_0, # of connection points: 2
#     Edge 17, Type (0, 0), BuildingBlock: MIFKUJ_clean_linker_0, # of connection points: 2
#     Edge 18, Type (0, 0), BuildingBlock: MIFKUJ_clean_linker_0, # of connection points: 2
#     Edge 19, Type (0, 0), BuildingBlock: MIFKUJ_clean_linker_0, # of connection points: 2
#     Edge 20, Type (0, 0), BuildingBlock: MIFKUJ_clean_linker_0, # of connection points: 2
#     Edge 21, Type (0, 0), BuildingBlock: MIFKUJ_clean_linker_0, # of connection points: 2
#     Edge 22, Type (0, 0), BuildingBlock: MIFKUJ_clean_linker_0, # of connection points: 2
#     Edge 23, Type (0, 0), BuildingBlock: MIFKUJ_clean_linker_0, # of connection points: 2
#     Edge 24, Type (0, 0), BuildingBlock: MIFKUJ_clean_linker_0, # of connection points: 2
#     Edge 25, Type (0, 0), BuildingBlock: MIFKUJ_clean_linker_0, # of connection points: 2
#     Edge 26, Type (0, 0), BuildingBlock: MIFKUJ_clean_linker_0, # of connection points: 2
#     Edge 27, Type (0, 0), BuildingBlock: MIFKUJ_clean_linker_0, # of connection points: 2
# Relax obj value: 0.490
# Max RMSD: 0.270
# Mean RMSD: 0.270
data_MOF--net-vmc--node1-BEQFEK_clean_sbu_0--edge1-MIFKUJ_clean_linker_0
_symmetry_space_group_name_H-M    P1
_symmetry_Int_Tables_number       1
_symmetry_cell_setting            triclinic
loop_
_symmetry_equiv_pos_as_xyz
'x, y, z'
_cell_length_a     60.287739
_cell_length_b     59.538779
_cell_length_c     35.063807
_cell_angle_alpha  89.99424
_cell_angle_beta   104.38646
_cell_angle_gamma 89.969807
loop_
_atom_site_label
_atom_site_type_symbol
_atom_site_fract_x
_atom_site_fract_y
_atom_site_fract_z
_atom_type_partial_charge
Co0 Co 0.38103 0.44839 0.12002 0.0
Co1 Co 0.34425 0.41044 0.11511 0.0
C2 C 0.39292 0.40293 0.15744 0.0
O3 O 0.39735 0.42319 0.15082 0.0
O4 O 0.37302 0.39461 0.14419 0.0
C5 C 0.42557 0.46807 0.12662 0.0
O6 O 0.43293 0.4522 0.15272 0.0
C7 C 0.31971 0.36825 0.08907 0.0
C8 C 0.28503 0.37595 0.09573 0.0
C9 C 0.29778 0.35927 0.08348 0.0
N10 N 0.31972 0.38912 0.10381 0.0
N11 N 0.29898 0.39354 0.10799 0.0
C12 C 0.33991 0.35819 0.07776 0.0
H13 H 0.35205 0.37154 0.07404 0.0
H14 H 0.33434 0.34841 0.05008 0.0
H15 H 0.34897 0.34674 0.10152 0.0
C16 C 0.36384 0.44683 0.0343 0.0
N17 N 0.36403 0.4388 0.0702 0.0
N18 N 0.34794 0.42348 0.06707 0.0
C19 C 0.33676 0.42156 0.02861 0.0
C20 C 0.34668 0.4362 0.0068 0.0
C21 C 0.37906 0.46528 0.02667 0.0
H22 H 0.39719 0.45991 0.03686 0.0
H23 H 0.37544 0.46964 0.99497 0.0
H24 H 0.37659 0.48042 0.04357 0.0
O25 O 0.36054 0.4624 0.14861 0.0
O26 O 0.33601 0.43459 0.14972 0.0
H27 H 0.30398 0.4092 0.03223 0.0
H28 H 0.30733 0.41189 0.98248 0.0
C29 C 0.31607 0.4073 0.01323 0.0
H30 H 0.32134 0.38945 0.01383 0.0
H31 H 0.29424 0.40874 0.11849 0.0
O32 O 0.40418 0.47022 0.11181 0.0
C33 C 0.34342 0.45444 0.15927 0.0
Co34 Co 0.62914 0.44825 0.40286 0.0
Co35 Co 0.66228 0.40874 0.39579 0.0
C36 C 0.61148 0.40312 0.37015 0.0
O37 O 0.6092 0.42331 0.38014 0.0
O38 O 0.63127 0.39441 0.37413 0.0
C39 C 0.58825 0.47311 0.39828 0.0
O40 O 0.58112 0.46237 0.36473 0.0
C41 C 0.68554 0.36545 0.41645 0.0
C42 C 0.71833 0.3709 0.40052 0.0
C43 C 0.70644 0.35528 0.4171 0.0
N44 N 0.68526 0.38601 0.4004 0.0
N45 N 0.70483 0.38907 0.39058 0.0
C46 C 0.66691 0.35691 0.43395 0.0
H47 H 0.65632 0.37105 0.44018 0.0
H48 H 0.67422 0.34743 0.46147 0.0
H49 H 0.65566 0.34548 0.41262 0.0
C50 C 0.65446 0.44675 0.48512 0.0
N51 N 0.65045 0.43877 0.44824 0.0
N52 N 0.66486 0.42238 0.44669 0.0
C53 C 0.67886 0.4197 0.4832 0.0
C54 C 0.67259 0.43508 0.50847 0.0
C55 C 0.64079 0.46501 0.49783 0.0
H56 H 0.64161 0.4804 0.48039 0.0
H57 H 0.62263 0.45965 0.49199 0.0
H58 H 0.64702 0.46897 0.52961 0.0
O59 O 0.64486 0.46049 0.36473 0.0
O60 O 0.66745 0.4321 0.35717 0.0
H61 H 0.70807 0.40364 0.47063 0.0
H62 H 0.71005 0.40769 0.52258 0.0
C63 C 0.69838 0.40349 0.49365 0.0
H64 H 0.69157 0.38633 0.49541 0.0
H65 H 0.70922 0.40381 0.37812 0.0
O66 O 0.60891 0.47084 0.41767 0.0
C67 C 0.65964 0.45193 0.34864 0.0
Co68 Co 0.61521 0.55951 0.88948 0.0
Co69 Co 0.65402 0.59464 0.88859 0.0
C70 C 0.60437 0.60586 0.85679 0.0
O71 O 0.59879 0.58648 0.8662 0.0
O72 O 0.62529 0.61168 0.86266 0.0
C73 C 0.5706 0.54102 0.88594 0.0
O74 O 0.56341 0.55627 0.85858 0.0
C75 C 0.67927 0.63642 0.91194 0.0
C76 C 0.71357 0.62857 0.90368 0.0
C77 C 0.70108 0.64536 0.91628 0.0
N78 N 0.67897 0.61547 0.89748 0.0
N79 N 0.69948 0.61093 0.8923 0.0
C80 C 0.65955 0.64657 0.92467 0.0
H81 H 0.64794 0.63322 0.9304 0.0
H82 H 0.66571 0.6569 0.95157 0.0
H83 H 0.64969 0.6575 0.90078 0.0
C84 C 0.63753 0.55885 0.97351 0.0
N85 N 0.6359 0.56691 0.93715 0.0
N86 N 0.6524 0.5815 0.93801 0.0
C87 C 0.66534 0.58293 0.97552 0.0
C88 C 0.65607 0.56883 0.99918 0.0
C89 C 0.62256 0.5406 0.98277 0.0
H90 H 0.62205 0.52641 0.96209 0.0
H91 H 0.60488 0.54713 0.9787 0.0
H92 H 0.62879 0.53421 0.01326 0.0
O93 O 0.63166 0.54561 0.85343 0.0
O94 O 0.65916 0.5703 0.85184 0.0
H95 H 0.69763 0.59473 0.96846 0.0
H96 H 0.69569 0.59338 0.01915 0.0
C97 C 0.68622 0.59727 0.98848 0.0
H98 H 0.68103 0.61517 0.98698 0.0
H99 H 0.70399 0.59562 0.88184 0.0
O100 O 0.59198 0.53868 0.90065 0.0
C101 C 0.64889 0.55172 0.84099 0.0
Co102 Co 0.38069 0.56095 0.59865 0.0
Co103 Co 0.3423 0.59467 0.60774 0.0
C104 C 0.39233 0.60712 0.6302 0.0
O105 O 0.39802 0.58813 0.61912 0.0
O106 O 0.37151 0.61202 0.62838 0.0
C107 C 0.42004 0.53154 0.60499 0.0
O108 O 0.42416 0.53457 0.64321 0.0
C109 C 0.31583 0.63587 0.58737 0.0
C110 C 0.28365 0.62845 0.60417 0.0
C111 C 0.29453 0.64485 0.58731 0.0
N112 N 0.31742 0.61527 0.60351 0.0
N113 N 0.2982 0.61098 0.6138 0.0
C114 C 0.33361 0.64556 0.56901 0.0
H115 H 0.34429 0.63198 0.56112 0.0
H116 H 0.3255 0.65544 0.54235 0.0
H117 H 0.34494 0.65683 0.59052 0.0
C118 C 0.35244 0.55887 0.51786 0.0
N119 N 0.35701 0.56766 0.55425 0.0
N120 N 0.34046 0.58147 0.55711 0.0
C121 C 0.32455 0.58163 0.5222 0.0
C122 C 0.33167 0.56721 0.49639 0.0
C123 C 0.36779 0.54266 0.50408 0.0
H124 H 0.36896 0.52688 0.52128 0.0
H125 H 0.38521 0.54997 0.5093 0.0
H126 H 0.36157 0.53878 0.4723 0.0
O127 O 0.36806 0.54688 0.63977 0.0
O128 O 0.3406 0.57043 0.64667 0.0
H129 H 0.29401 0.5908 0.53915 0.0
H130 H 0.29045 0.5884 0.48647 0.0
C131 C 0.3022 0.59383 0.51459 0.0
H132 H 0.30533 0.61211 0.51304 0.0
H133 H 0.2948 0.59593 0.62651 0.0
O134 O 0.40243 0.54045 0.58255 0.0
C135 C 0.35217 0.55238 0.65613 0.0
Co136 Co 0.87512 0.94581 0.10698 0.0
Co137 Co 0.83832 0.90873 0.10815 0.0
C138 C 0.88698 0.90084 0.14748 0.0
O139 O 0.89108 0.92083 0.13886 0.0
O140 O 0.86707 0.89238 0.13585 0.0
C141 C 0.91162 0.95054 0.07636 0.0
O142 O 0.90562 0.92933 0.07097 0.0
C143 C 0.81328 0.86656 0.08763 0.0
C144 C 0.77886 0.87493 0.09478 0.0
C145 C 0.79144 0.85773 0.08356 0.0
N146 N 0.81348 0.88784 0.10058 0.0
N147 N 0.79291 0.89269 0.10514 0.0
C148 C 0.83314 0.85593 0.07603 0.0
H149 H 0.84495 0.86901 0.07001 0.0
H150 H 0.82715 0.84521 0.04958 0.0
H151 H 0.84274 0.8453 0.10062 0.0
C152 C 0.85221 0.94546 0.02282 0.0
N153 N 0.85511 0.93675 0.05911 0.0
N154 N 0.84003 0.92066 0.05824 0.0
C155 C 0.8273 0.91841 0.02069 0.0
C156 C 0.83487 0.93397 0.99726 0.0
C157 C 0.86453 0.96565 0.01301 0.0
H158 H 0.86882 0.97734 0.03835 0.0
H159 H 0.8805 0.9601 0.00556 0.0
H160 H 0.85403 0.97471 0.98712 0.0
O161 O 0.85751 0.96159 0.13879 0.0
O162 O 0.83258 0.93446 0.14257 0.0
H163 H 0.79544 0.90514 0.02709 0.0
H164 H 0.79803 0.90612 0.97677 0.0
C165 C 0.80733 0.90292 0.00781 0.0
H166 H 0.81349 0.88532 0.01052 0.0
H167 H 0.78831 0.90828 0.1144 0.0
O168 O 0.90035 0.9632 0.09402 0.0
C169 C 0.84085 0.95415 0.15157 0.0
Co170 Co 0.12491 0.95192 0.39185 0.0
Co171 Co 0.15774 0.91073 0.39446 0.0
C172 C 0.10899 0.90735 0.35223 0.0
O173 O 0.10691 0.92789 0.36039 0.0
O174 O 0.12784 0.89694 0.36509 0.0
C175 C 0.08203 0.97543 0.37941 0.0
O176 O 0.07651 0.96404 0.34632 0.0
C177 C 0.17983 0.86673 0.41671 0.0
C178 C 0.21543 0.87384 0.41447 0.0
C179 C 0.20155 0.8571 0.42347 0.0
N180 N 0.18104 0.88806 0.40461 0.0
N181 N 0.20232 0.8921 0.40297 0.0
C182 C 0.15864 0.85677 0.42471 0.0
H183 H 0.14657 0.87022 0.4283 0.0
H184 H 0.163 0.84618 0.45159 0.0
H185 H 0.15004 0.84613 0.39939 0.0
C186 C 0.14308 0.94963 0.477 0.0
N187 N 0.14171 0.94133 0.4409 0.0
N188 N 0.15554 0.924 0.44336 0.0
C189 C 0.16615 0.92068 0.4818 0.0
C190 C 0.15833 0.93672 0.50433 0.0
C191 C 0.13157 0.97088 0.48462 0.0
H192 H 0.13273 0.98364 0.46217 0.0
H193 H 0.11324 0.96736 0.48247 0.0
H194 H 0.1395 0.97791 0.51415 0.0
O195 O 0.14574 0.96464 0.36305 0.0
O196 O 0.16715 0.93447 0.35995 0.0
H197 H 0.19737 0.90365 0.48148 0.0
H198 H 0.19049 0.90365 0.52891 0.0
C199 C 0.1833 0.90255 0.49664 0.0
H200 H 0.17492 0.88599 0.4898 0.0
H201 H 0.20802 0.90752 0.39495 0.0
O202 O 0.1023 0.97406 0.40102 0.0
C203 C 0.16166 0.95495 0.35126 0.0
Co204 Co 0.12888 0.05341 0.90637 0.0
Co205 Co 0.1603 0.09414 0.89788 0.0
C206 C 0.10965 0.09795 0.87147 0.0
O207 O 0.10843 0.07762 0.88164 0.0
O208 O 0.12899 0.10769 0.87611 0.0
C209 C 0.08896 0.02653 0.90032 0.0
O210 O 0.08296 0.03486 0.86452 0.0
C211 C 0.18311 0.13797 0.91579 0.0
C212 C 0.21632 0.13171 0.90174 0.0
C213 C 0.20414 0.14787 0.91657 0.0
N214 N 0.18303 0.11702 0.90136 0.0
N215 N 0.20283 0.11349 0.89261 0.0
C216 C 0.16421 0.14723 0.93189 0.0
H217 H 0.15349 0.13341 0.93882 0.0
H218 H 0.17127 0.15736 0.95873 0.0
H219 H 0.15319 0.15823 0.90941 0.0
C220 C 0.1549 0.05567 0.98794 0.0
N221 N 0.14995 0.06385 0.95118 0.0
N222 N 0.16337 0.08102 0.94925 0.0
C223 C 0.1774 0.08427 0.98559 0.0
C224 C 0.17226 0.06833 0.01108 0.0
C225 C 0.14365 0.03554 1.00035 0.0
H226 H 0.14301 0.02174 0.97886 0.0
H227 H 0.12587 0.04 1.00088 0.0
H228 H 0.15296 0.0296 0.02994 0.0
O229 O 0.14526 0.04079 0.86963 0.0
O230 O 0.16591 0.07039 0.86004 0.0
H231 H 0.20625 0.10113 0.97344 0.0
H232 H 0.2073 0.09853 0.02533 0.0
C233 C 0.19596 0.1015 0.99559 0.0
H234 H 0.18815 0.11839 0.99503 0.0
H235 H 0.20742 0.09838 0.88159 0.0
O236 O 0.10861 0.03112 0.92211 0.0
C237 C 0.15938 0.05004 0.85291 0.0
Co238 Co 0.87606 0.05195 0.59297 0.0
Co239 Co 0.8433 0.09083 0.60481 0.0
C240 C 0.89431 0.09585 0.63036 0.0
O241 O 0.89627 0.07606 0.61817 0.0
O242 O 0.8746 0.10459 0.62725 0.0
C243 C 0.91658 0.027 0.59448 0.0
O244 O 0.92378 0.0363 0.62934 0.0
C245 C 0.82046 0.13449 0.58794 0.0
C246 C 0.78813 0.12895 0.60541 0.0
C247 C 0.79986 0.14478 0.58893 0.0
N248 N 0.82072 0.11367 0.60296 0.0
N249 N 0.80146 0.11056 0.61375 0.0
C250 C 0.83871 0.14321 0.5697 0.0
H251 H 0.84894 0.12913 0.56222 0.0
H252 H 0.83106 0.15311 0.54281 0.0
H253 H 0.85037 0.15429 0.59109 0.0
C254 C 0.84984 0.05593 0.51132 0.0
N255 N 0.85451 0.06286 0.54891 0.0
N256 N 0.84007 0.0788 0.5527 0.0
C257 C 0.82525 0.08208 0.51712 0.0
C258 C 0.83128 0.06787 0.48987 0.0
C259 C 0.86228 0.03732 0.49671 0.0
H260 H 0.86181 0.02198 0.51447 0.0
H261 H 0.88045 0.04221 0.50051 0.0
H262 H 0.85469 0.03345 0.46521 0.0
O263 O 0.86086 0.03855 0.63101 0.0
O264 O 0.83815 0.06622 0.64117 0.0
H265 H 0.79627 0.09622 0.53357 0.0
H266 H 0.79289 0.09371 0.48093 0.0
C267 C 0.80512 0.09758 0.50948 0.0
H268 H 0.81114 0.1151 0.50846 0.0
H269 H 0.79712 0.09563 0.6257 0.0
O270 O 0.89598 0.03006 0.5753 0.0
C271 C 0.8462 0.04635 0.64822 0.0
H272 H 0.36947 0.51047 0.67698 0.0
H273 H 0.36398 0.48695 0.73078 0.0
H274 H 0.32003 0.53745 0.76137 0.0
H275 H 0.325 0.56093 0.70685 0.0
H276 H 0.37619 0.49419 0.80625 0.0
H277 H 0.28172 0.51351 0.80564 0.0
H278 H 0.24523 0.52254 0.75805 0.0
H279 H 0.26838 0.48929 0.66634 0.0
H280 H 0.30486 0.4798 0.71346 0.0
H281 H 0.31966 0.47086 0.97413 0.0
H282 H 0.31648 0.48687 0.90856 0.0
H283 H 0.35583 0.43151 0.88036 0.0
H284 H 0.35925 0.41573 0.94633 0.0
H285 H 0.30116 0.4746 0.83166 0.0
H286 H 0.39361 0.45186 0.83253 0.0
H287 H 0.43011 0.44224 0.87965 0.0
H288 H 0.41119 0.482 0.96872 0.0
H289 H 0.37454 0.49182 0.92213 0.0
C290 C 0.35845 0.51655 0.69488 0.0
C291 C 0.34769 0.53765 0.68757 0.0
C292 C 0.35536 0.50305 0.72572 0.0
C293 C 0.34148 0.5103 0.75005 0.0
C294 C 0.3305 0.53126 0.74261 0.0
C295 C 0.33344 0.54474 0.71151 0.0
C296 C 0.33952 0.49641 0.78435 0.0
C297 C 0.35974 0.48959 0.81134 0.0
C298 C 0.31811 0.49072 0.79156 0.0
C299 C 0.29612 0.49615 0.76304 0.0
C300 C 0.27899 0.50806 0.77535 0.0
C301 C 0.25831 0.51326 0.74845 0.0
C302 C 0.25452 0.50656 0.70917 0.0
C303 C 0.27137 0.49456 0.69673 0.0
C304 C 0.29207 0.48929 0.72352 0.0
C305 C 0.32688 0.46177 0.95329 0.0
C306 C 0.33944 0.44201 0.96473 0.0
C307 C 0.32518 0.47094 0.916 0.0
C308 C 0.33624 0.46059 0.88981 0.0
C309 C 0.34743 0.43994 0.90031 0.0
C310 C 0.34916 0.43079 0.93769 0.0
C311 C 0.33778 0.47247 0.85331 0.0
C312 C 0.31754 0.47902 0.82614 0.0
C313 C 0.35918 0.47787 0.84578 0.0
C314 C 0.38124 0.47233 0.87399 0.0
C315 C 0.39724 0.45853 0.86218 0.0
C316 C 0.4179 0.45297 0.88883 0.0
C317 C 0.42286 0.46133 0.92724 0.0
C318 C 0.40722 0.47538 0.93905 0.0
C319 C 0.38647 0.48089 0.91257 0.0
H320 H 0.43888 0.45702 0.94777 0.0
H321 H 0.23851 0.51062 0.68839 0.0
H322 H 0.7008 0.46868 0.54205 0.0
H323 H 0.70409 0.48366 0.60818 0.0
H324 H 0.66667 0.42658 0.63538 0.0
H325 H 0.66322 0.41178 0.56887 0.0
H326 H 0.64548 0.46516 0.6417 0.0
H327 H 0.72204 0.43779 0.68841 0.0
H328 H 0.76231 0.43181 0.68712 0.0
H329 H 0.77373 0.50304 0.69218 0.0
H330 H 0.73343 0.50949 0.69293 0.0
H331 H 0.63727 0.50793 0.82386 0.0
H332 H 0.64775 0.48405 0.77472 0.0
H333 H 0.68805 0.53785 0.74417 0.0
H334 H 0.67808 0.56181 0.79433 0.0
H335 H 0.70932 0.4986 0.74293 0.0
H336 H 0.63354 0.52665 0.68838 0.0
H337 H 0.59287 0.53437 0.68475 0.0
H338 H 0.57982 0.46368 0.68963 0.0
H339 H 0.62048 0.45554 0.69372 0.0
C340 C 0.69439 0.4588 0.56296 0.0
C341 C 0.68205 0.43899 0.55085 0.0
C342 C 0.69616 0.46739 0.60069 0.0
C343 C 0.68559 0.45627 0.62681 0.0
C344 C 0.675 0.43541 0.61576 0.0
C345 C 0.67324 0.42683 0.57799 0.0
C346 C 0.68213 0.46818 0.66215 0.0
C347 C 0.6595 0.47196 0.66438 0.0
C348 C 0.70035 0.47795 0.69075 0.0
C349 C 0.72463 0.47412 0.69044 0.0
C350 C 0.73308 0.4522 0.68894 0.0
C351 C 0.75593 0.44872 0.68837 0.0
C352 C 0.77056 0.46703 0.6895 0.0
C353 C 0.76237 0.48887 0.69129 0.0
C354 C 0.73953 0.49244 0.69185 0.0
C355 C 0.64846 0.51472 0.80688 0.0
C356 C 0.65661 0.53692 0.81274 0.0
C357 C 0.65441 0.50101 0.77869 0.0
C358 C 0.66831 0.50927 0.75514 0.0
C359 C 0.67721 0.53113 0.76188 0.0
C360 C 0.67145 0.54483 0.79048 0.0
C361 C 0.67269 0.49536 0.72251 0.0
C362 C 0.69538 0.49142 0.72058 0.0
C363 C 0.65452 0.48564 0.6937 0.0
C364 C 0.63012 0.4905 0.69185 0.0
C365 C 0.62204 0.51276 0.68908 0.0
C366 C 0.59898 0.51721 0.68683 0.0
C367 C 0.58378 0.49953 0.68708 0.0
C368 C 0.59162 0.47736 0.68958 0.0
C369 C 0.61467 0.47282 0.69181 0.0
H370 H 0.56592 0.503 0.68523 0.0
H371 H 0.78824 0.46431 0.68904 0.0
H372 H 0.65993 0.49744 0.34165 0.0
H373 H 0.66681 0.51942 0.28684 0.0
H374 H 0.68169 0.45865 0.2311 0.0
H375 H 0.67525 0.43646 0.28642 0.0
H376 H 0.70449 0.52303 0.24787 0.0
H377 H 0.64825 0.46447 0.13501 0.0
H378 H 0.61704 0.43691 0.12975 0.0
H379 H 0.5939 0.47177 0.21993 0.0
H380 H 0.62481 0.49962 0.22538 0.0
H381 H 0.69641 0.5499 0.03945 0.0
H382 H 0.70395 0.53314 0.10567 0.0
H383 H 0.63955 0.55913 0.11918 0.0
H384 H 0.63221 0.57604 0.05362 0.0
H385 H 0.64425 0.51158 0.12424 0.0
H386 H 0.68431 0.57922 0.17596 0.0
H387 H 0.7137 0.60864 0.1816 0.0
H388 H 0.76674 0.55902 0.21458 0.0
H389 H 0.73762 0.52924 0.20854 0.0
C390 C 0.66508 0.48876 0.31809 0.0
C391 C 0.66687 0.4652 0.31814 0.0
C392 C 0.66917 0.50138 0.28696 0.0
C393 C 0.67468 0.49065 0.25496 0.0
C394 C 0.67748 0.46721 0.25565 0.0
C395 C 0.6738 0.45458 0.28722 0.0
C396 C 0.6748 0.50376 0.21912 0.0
C397 C 0.6915 0.52041 0.22066 0.0
C398 C 0.65763 0.50055 0.18393 0.0
C399 C 0.63901 0.48391 0.18095 0.0
C400 C 0.63649 0.46622 0.15369 0.0
C401 C 0.61885 0.45057 0.15067 0.0
C402 C 0.60356 0.45253 0.17461 0.0
C403 C 0.60584 0.47019 0.20156 0.0
C404 C 0.62343 0.48588 0.20468 0.0
C405 C 0.6844 0.55275 0.05736 0.0
C406 C 0.66378 0.56422 0.04178 0.0
C407 C 0.68862 0.5431 0.09496 0.0
C408 C 0.67219 0.54477 0.11706 0.0
C409 C 0.65239 0.55762 0.1025 0.0
C410 C 0.64828 0.56737 0.06525 0.0
C411 C 0.67396 0.5309 0.15276 0.0
C412 C 0.65754 0.51401 0.15116 0.0
C413 C 0.69127 0.53409 0.18782 0.0
C414 C 0.70878 0.55196 0.1913 0.0
C415 C 0.70223 0.57454 0.18397 0.0
C416 C 0.71885 0.59129 0.18735 0.0
C417 C 0.74208 0.5857 0.19831 0.0
C418 C 0.74874 0.56333 0.20601 0.0
C419 C 0.73219 0.54651 0.20264 0.0
H420 H 0.75491 0.59869 0.20094 0.0
H421 H 0.58991 0.44041 0.1722 0.0
H422 H 0.32173 0.44054 0.21509 0.0
H423 H 0.30964 0.46395 0.26359 0.0
H424 H 0.32841 0.52346 0.20855 0.0
H425 H 0.34157 0.50004 0.16144 0.0
H426 H 0.34621 0.52643 0.28071 0.0
H427 H 0.27058 0.50925 0.20893 0.0
H428 H 0.23803 0.48572 0.17489 0.0
H429 H 0.23928 0.45141 0.28311 0.0
H430 H 0.27206 0.47451 0.31773 0.0
H431 H 0.32159 0.59251 0.42951 0.0
H432 H 0.31199 0.57793 0.36178 0.0
H433 H 0.3067 0.51105 0.40612 0.0
H434 H 0.31585 0.52569 0.47338 0.0
H435 H 0.27729 0.51706 0.3324 0.0
H436 H 0.35849 0.53075 0.39778 0.0
H437 H 0.38993 0.55597 0.43082 0.0
H438 H 0.37572 0.59917 0.32954 0.0
H439 H 0.34407 0.57431 0.29615 0.0
C440 C 0.32287 0.45863 0.21297 0.0
C441 C 0.33278 0.46846 0.18474 0.0
C442 C 0.31581 0.47206 0.24058 0.0
C443 C 0.31794 0.49559 0.23976 0.0
C444 C 0.32669 0.50539 0.21009 0.0
C445 C 0.33419 0.49198 0.18311 0.0
C446 C 0.31355 0.50977 0.27218 0.0
C447 C 0.33081 0.52471 0.29118 0.0
C448 C 0.29364 0.50749 0.28653 0.0
C449 C 0.27391 0.49353 0.26588 0.0
C450 C 0.26403 0.49657 0.22543 0.0
C451 C 0.24552 0.48333 0.20603 0.0
C452 C 0.23662 0.46705 0.22681 0.0
C453 C 0.2462 0.46402 0.26705 0.0
C454 C 0.26473 0.47721 0.28659 0.0
C455 C 0.31742 0.57489 0.42446 0.0
C456 C 0.31959 0.56012 0.45631 0.0
C457 C 0.31208 0.56654 0.3859 0.0
C458 C 0.3091 0.54332 0.37899 0.0
C459 C 0.30897 0.52899 0.41069 0.0
C460 C 0.31422 0.53733 0.44909 0.0
C461 C 0.30998 0.53335 0.34056 0.0
C462 C 0.29228 0.51909 0.32088 0.0
C463 C 0.32932 0.5364 0.32508 0.0
C464 C 0.34881 0.55085 0.34471 0.0
C465 C 0.36206 0.54567 0.38268 0.0
C466 C 0.37988 0.5599 0.40145 0.0
C467 C 0.3847 0.57922 0.38236 0.0
C468 C 0.37189 0.58424 0.34433 0.0
C469 C 0.35404 0.57009 0.32546 0.0
H470 H 0.3984 0.5903 0.39693 0.0
H471 H 0.22229 0.45681 0.21173 0.0
H472 H 0.85081 0.91565 0.93894 0.0
H473 H 0.84714 0.93184 0.87339 0.0
H474 H 0.7994 0.98093 0.89642 0.0
H475 H 0.80282 0.96436 0.96176 0.0
H476 H 0.7887 0.96964 0.81901 0.0
H477 H 0.85552 0.99504 0.91452 0.0
H478 H 0.89197 0.99291 0.96555 0.0
H479 H 0.92213 0.95497 0.88726 0.0
H480 H 0.88592 0.95705 0.8356 0.0
H481 H 0.81654 0.05673 0.69408 0.0
H482 H 0.8087 0.03437 0.748 0.0
H483 H 0.85292 0.98191 0.72483 0.0
H484 H 0.86088 0.00395 0.67129 0.0
H485 H 0.86391 0.99517 0.80169 0.0
H486 H 0.79594 0.97421 0.70327 0.0
H487 H 0.76014 0.98141 0.65274 0.0
H488 H 0.73193 0.01483 0.73852 0.0
H489 H 0.76771 0.0081 0.78947 0.0
C490 C 0.83877 0.92923 0.92916 0.0
C491 C 0.82682 0.93862 0.95483 0.0
C492 C 0.83691 0.93868 0.89203 0.0
C493 C 0.82338 0.95791 0.88035 0.0
C494 C 0.80997 0.96614 0.90481 0.0
C495 C 0.81175 0.95659 0.94193 0.0
C496 C 0.82507 0.97064 0.84474 0.0
C497 C 0.80511 0.97537 0.81531 0.0
C498 C 0.84648 0.97815 0.83985 0.0
C499 C 0.86794 0.97598 0.87138 0.0
C500 C 0.86985 0.98604 0.90834 0.0
C501 C 0.89049 0.98493 0.9373 0.0
C502 C 0.90929 0.9737 0.92971 0.0
C503 C 0.90752 0.9636 0.89312 0.0
C504 C 0.88698 0.96481 0.86394 0.0
C505 C 0.82437 0.04032 0.70014 0.0
C506 C 0.83949 0.03225 0.67848 0.0
C507 C 0.81978 0.02752 0.73086 0.0
C508 C 0.83021 0.00645 0.74038 0.0
C509 C 0.84472 0.99812 0.71803 0.0
C510 C 0.84924 0.0108 0.68737 0.0
C511 C 0.82764 0.99378 0.77549 0.0
C512 C 0.8475 0.98925 0.80511 0.0
C513 C 0.80613 0.98685 0.78067 0.0
C514 C 0.7846 0.99085 0.75009 0.0
C515 C 0.78219 0.98327 0.71128 0.0
C516 C 0.76188 0.98723 0.68258 0.0
C517 C 0.7438 0.99862 0.69239 0.0
C518 C 0.74596 0.00603 0.73095 0.0
C519 C 0.76624 0.00213 0.75976 0.0
H520 H 0.72809 0.00167 0.67012 0.0
H521 H 0.92527 0.97298 0.95207 0.0
H522 H 0.17385 0.00679 0.85984 0.0
H523 H 0.18366 0.98324 0.80933 0.0
H524 H 0.17077 0.03928 0.72846 0.0
H525 H 0.16281 0.0632 0.78018 0.0
H526 H 0.15983 0.96833 0.74884 0.0
H527 H 0.19378 0.03452 0.65309 0.0
H528 H 0.21893 0.06778 0.66336 0.0
H529 H 0.25198 0.04472 0.77963 0.0
H530 H 0.22727 0.01117 0.76989 0.0
H531 H 0.12927 0.94026 0.55135 0.0
H532 H 0.13765 0.95461 0.6183 0.0
H533 H 0.20982 0.95566 0.62216 0.0
H534 H 0.20105 0.94273 0.55349 0.0
H535 H 0.20067 0.99237 0.64929 0.0
H536 H 0.18521 0.9186 0.68173 0.0
H537 H 0.16545 0.88209 0.67698 0.0
H538 H 0.1059 0.91428 0.69816 0.0
H539 H 0.12515 0.95105 0.70247 0.0
C540 C 0.17371 0.01414 0.83151 0.0
C541 C 0.16771 0.03677 0.82381 0.0
C542 C 0.17919 1.00066 0.80254 0.0
C543 C 0.17814 0.00935 0.76484 0.0
C544 C 0.17245 0.03218 0.75746 0.0
C545 C 0.16772 0.04586 0.78693 0.0
C546 C 0.1808 0.99414 0.73239 0.0
C547 C 0.16902 0.97354 0.72741 0.0
C548 C 0.19345 1.00031 0.70492 0.0
C549 C 0.20854 0.02037 0.71082 0.0
C550 C 0.2065 0.03647 0.68076 0.0
C551 C 0.22066 0.05539 0.68652 0.0
C552 C 0.237 0.05839 0.72215 0.0
C553 C 0.23927 0.04242 0.75208 0.0
C554 C 0.22517 0.02346 0.74648 0.0
C555 C 0.14697 0.94313 0.56681 0.0
C556 C 0.16452 0.94036 0.54741 0.0
C557 C 0.15181 0.95118 0.6053 0.0
C558 C 0.17445 0.956 0.62583 0.0
C559 C 0.19221 0.95206 0.6071 0.0
C560 C 0.18727 0.94438 0.56808 0.0
C561 C 0.17895 0.96712 0.66511 0.0
C562 C 0.19198 0.98695 0.67131 0.0
C563 C 0.16836 0.95973 0.6947 0.0
C564 C 0.15664 0.93763 0.69229 0.0
C565 C 0.16785 0.91793 0.68516 0.0
C566 C 0.15674 0.89717 0.68256 0.0
C567 C 0.13443 0.89587 0.68723 0.0
C568 C 0.12319 0.91532 0.69458 0.0
C569 C 0.13422 0.93612 0.69718 0.0
H570 H 0.12586 0.87979 0.6852 0.0
H571 H 0.24793 0.07306 0.72655 0.0
H572 H 0.20672 0.03994 0.04445 0.0
H573 H 0.21281 0.02338 0.11036 0.0
H574 H 0.16419 0.07006 0.13751 0.0
H575 H 0.15792 0.08635 0.07145 0.0
H576 H 0.22386 0.03718 0.19153 0.0
H577 H 0.13012 0.04569 0.16974 0.0
H578 H 0.09369 0.04801 0.11854 0.0
H579 H 0.11993 0.00217 0.0459 0.0
H580 H 0.15675 1.00015 0.09627 0.0
H581 H 0.16789 1.00015 0.34894 0.0
H582 H 0.17952 0.02162 0.29759 0.0
H583 H 0.19031 0.95997 0.24037 0.0
H584 H 0.17934 0.93827 0.29236 0.0
H585 H 0.15208 1.00005 0.20301 0.0
H586 H 0.23188 0.97781 0.25555 0.0
H587 H 0.26725 0.97491 0.30876 0.0
H588 H 0.26852 0.04659 0.32275 0.0
H589 H 0.23292 0.04986 0.27 0.0
C590 C 0.19824 0.04732 0.06528 0.0
C591 C 0.18215 0.06458 0.05339 0.0
C592 C 0.20155 0.03775 0.10274 0.0
C593 C 0.18865 0.04524 0.12853 0.0
C594 C 0.17412 0.06387 0.11787 0.0
C595 C 0.17078 0.07338 0.08042 0.0
C596 C 0.18811 0.03183 0.16394 0.0
C597 C 0.20819 0.02907 0.19411 0.0
C598 C 0.16772 0.02119 0.16736 0.0
C599 C 0.14611 0.02294 0.13644 0.0
C600 C 0.12811 0.03625 0.14268 0.0
C601 C 0.10746 0.03758 0.11379 0.0
C602 C 0.10456 0.02536 0.07888 0.0
C603 C 0.12227 0.01176 0.07282 0.0
C604 C 0.14309 0.01067 0.10136 0.0
C605 C 0.17336 0.99115 0.32602 0.0
C606 C 0.17261 0.96754 0.3245 0.0
C607 C 0.1801 0.00344 0.29688 0.0
C608 C 0.18594 0.99234 0.26553 0.0
C609 C 0.1862 0.96877 0.26479 0.0
C610 C 0.17992 0.95642 0.29443 0.0
C611 C 0.18779 0.00531 0.23055 0.0
C612 C 0.16781 0.00811 0.2005 0.0
C613 C 0.20822 0.016 0.2276 0.0
C614 C 0.22958 0.01404 0.25922 0.0
C615 C 0.23954 0.99292 0.27031 0.0
C616 C 0.25967 0.99122 0.30029 0.0
C617 C 0.27008 0.01054 0.31923 0.0
C618 C 0.26041 0.03162 0.30812 0.0
C619 C 0.24027 0.03341 0.27816 0.0
H620 H 0.28568 0.00919 0.34242 0.0
H621 H 0.08856 0.02641 0.05659 0.0
H622 H 0.84486 0.08373 0.42725 0.0
H623 H 0.83503 0.0677 0.36096 0.0
H624 H 0.78433 0.02553 0.39304 0.0
H625 H 0.79442 0.04159 0.45964 0.0
H626 H 0.815 1.00129 0.36832 0.0
H627 H 0.76862 0.06435 0.31821 0.0
H628 H 0.75852 0.1044 0.30806 0.0
H629 H 0.81367 0.11416 0.25237 0.0
H630 H 0.82434 0.07423 0.26269 0.0
H631 H 0.80616 0.94448 0.18726 0.0
H632 H 0.7939 0.96687 0.23693 0.0
H633 H 0.84296 0.01811 0.22827 0.0
H634 H 0.85497 0.9962 0.17829 0.0
H635 H 0.80432 0.03702 0.23722 0.0
H636 H 0.85527 0.97748 0.30008 0.0
H637 H 0.86766 0.93809 0.31251 0.0
H638 H 0.80559 0.92276 0.34626 0.0
H639 H 0.79271 0.96204 0.33355 0.0
C640 C 0.83085 0.07185 0.41942 0.0
C641 C 0.82008 0.0641 0.44802 0.0
C642 C 0.82527 0.06262 0.3816 0.0
C643 C 0.80886 0.04543 0.37188 0.0
C644 C 0.79695 0.03884 0.39979 0.0
C645 C 0.80252 0.04814 0.43763 0.0
C646 C 0.80702 0.03208 0.33539 0.0
C647 C 0.81198 0.00902 0.33945 0.0
C648 C 0.80374 0.04222 0.29788 0.0
C649 C 0.79735 0.06627 0.29142 0.0
C650 C 0.7787 0.07505 0.30404 0.0
C651 C 0.77286 0.09774 0.29821 0.0
C652 C 0.78546 0.11182 0.27962 0.0
C653 C 0.80392 0.10323 0.26675 0.0
C654 C 0.80984 0.08055 0.27253 0.0
C655 C 0.81416 0.96064 0.19557 0.0
C656 C 0.83176 0.96838 0.17904 0.0
C657 C 0.80714 0.97341 0.22403 0.0
C658 C 0.81772 0.99405 0.23674 0.0
C659 C 0.83452 0.00226 0.21897 0.0
C660 C 0.84148 0.98959 0.19049 0.0
C661 C 0.8127 0.00643 0.27049 0.0
C662 C 0.80665 0.02925 0.26593 0.0
C663 C 0.81519 0.99618 0.30774 0.0
C664 C 0.8229 0.97259 0.31538 0.0
C665 C 0.84419 0.96566 0.30985 0.0
C666 C 0.85131 0.94337 0.317 0.0
C667 C 0.83738 0.92791 0.33003 0.0
C668 C 0.81633 0.93473 0.33606 0.0
C669 C 0.80911 0.957 0.3289 0.0
H670 H 0.84293 0.91066 0.33557 0.0
H671 H 0.78091 0.12939 0.27515 0.0
H672 H 0.47175 0.4614 0.13994 0.0
H673 H 0.49646 0.47453 0.09917 0.0
H674 H 0.44119 0.51505 0.03132 0.0
H675 H 0.41606 0.50118 0.07088 0.0
H676 H 0.45809 0.49118 0.98425 0.0
H677 H 0.49111 0.53773 0.09517 0.0
H678 H 0.50894 0.54658 0.16473 0.0
H679 H 0.56568 0.50347 0.16222 0.0
H680 H 0.54804 0.49411 0.09279 0.0
H681 H 0.5249 0.5497 0.87452 0.0
H682 H 0.49983 0.53663 0.91483 0.0
H683 H 0.55408 0.49443 0.98112 0.0
H684 H 0.57944 0.50782 0.94149 0.0
H685 H 0.53759 0.51953 0.02885 0.0
H686 H 0.50428 0.47251 0.91816 0.0
H687 H 0.48599 0.46304 0.84904 0.0
H688 H 0.42962 0.50669 0.85134 0.0
H689 H 0.4477 0.51663 0.92034 0.0
C690 C 0.46492 0.47334 0.1167 0.0
C691 C 0.4418 0.47986 0.10813 0.0
C692 C 0.47916 0.48099 0.09355 0.0
C693 C 0.4707 0.49579 0.0621 0.0
C694 C 0.44805 0.50351 0.05524 0.0
C695 C 0.43373 0.49563 0.07802 0.0
C696 C 0.48474 0.50161 0.03423 0.0
C697 C 0.47536 0.4977 0.99394 0.0
C698 C 0.50751 0.50951 0.047 0.0
C699 C 0.51812 0.51506 0.08884 0.0
C700 C 0.50729 0.52999 0.10954 0.0
C701 C 0.51738 0.53512 0.14894 0.0
C702 C 0.5384 0.52555 0.16791 0.0
C703 C 0.54939 0.51085 0.1475 0.0
C704 C 0.53936 0.50564 0.10811 0.0
C705 C 0.53136 0.53726 0.8971 0.0
C706 C 0.55424 0.52995 0.90504 0.0
C707 C 0.51696 0.52974 0.92008 0.0
C708 C 0.52507 0.51454 0.95102 0.0
C709 C 0.5475 0.50626 0.95753 0.0
C710 C 0.56196 0.51388 0.93476 0.0
C711 C 0.51097 0.50893 0.97888 0.0
C712 C 0.52033 0.51293 0.01916 0.0
C713 C 0.48817 0.50112 0.9661 0.0
C714 C 0.47751 0.49554 0.9243 0.0
C715 C 0.48812 0.4803 0.90379 0.0
C716 C 0.47775 0.4748 0.86466 0.0
C717 C 0.45672 0.48435 0.84574 0.0
C718 C 0.44599 0.49942 0.86594 0.0
C719 C 0.45627 0.50496 0.90508 0.0
H720 H 0.44868 0.48 0.8155 0.0
H721 H 0.54619 0.52955 0.19841 0.0
H722 H 0.59697 0.49398 0.46995 0.0
H723 H 0.56907 0.50458 0.50667 0.0
H724 H 0.51397 0.48629 0.40739 0.0
H725 H 0.54173 0.47546 0.37041 0.0
H726 H 0.50611 0.52615 0.4457 0.0
H727 H 0.53089 0.44925 0.47887 0.0
H728 H 0.56071 0.4205 0.50165 0.0
H729 H 0.58417 0.45543 0.61137 0.0
H730 H 0.55459 0.48454 0.58913 0.0
H731 H 0.41409 0.51705 0.52951 0.0
H732 H 0.44372 0.50684 0.49652 0.0
H733 H 0.49514 0.51365 0.60611 0.0
H734 H 0.46529 0.5229 0.63983 0.0
H735 H 0.50691 0.48112 0.5653 0.0
H736 H 0.48688 0.55785 0.53619 0.0
H737 H 0.46037 0.58989 0.51715 0.0
H738 H 0.43279 0.55965 0.40408 0.0
H739 H 0.4587 0.52722 0.42309 0.0
C740 C 0.57892 0.49247 0.45566 0.0
C741 C 0.57157 0.48353 0.41745 0.0
C742 C 0.56302 0.49849 0.47676 0.0
C743 C 0.53954 0.49575 0.45996 0.0
C744 C 0.53207 0.48833 0.42091 0.0
C745 C 0.54796 0.4822 0.39982 0.0
C746 C 0.52277 0.49952 0.48367 0.0
C747 C 0.50608 0.51614 0.47156 0.0
C748 C 0.52336 0.487 0.51825 0.0
C749 C 0.54064 0.46915 0.53221 0.0
C750 C 0.54246 0.45084 0.50782 0.0
C751 C 0.5593 0.43448 0.52065 0.0
C752 C 0.57434 0.43617 0.55793 0.0
C753 C 0.57249 0.45416 0.58254 0.0
C754 C 0.55566 0.47057 0.56987 0.0
C755 C 0.43165 0.51606 0.54678 0.0
C756 C 0.43742 0.52135 0.5871 0.0
C757 C 0.44862 0.51038 0.5278 0.0
C758 C 0.47175 0.51033 0.54851 0.0
C759 C 0.47742 0.51389 0.5894 0.0
C760 C 0.46033 0.51919 0.60863 0.0
C761 C 0.48989 0.50755 0.52695 0.0
C762 C 0.50689 0.49117 0.53948 0.0
C763 C 0.48997 0.52064 0.49322 0.0
C764 C 0.47438 0.54003 0.48136 0.0
C765 C 0.47486 0.55796 0.50757 0.0
C766 C 0.46001 0.57617 0.49675 0.0
C767 C 0.44479 0.57675 0.45951 0.0
C768 C 0.44447 0.55914 0.433 0.0
C769 C 0.45923 0.54083 0.4438 0.0
H770 H 0.43337 0.59091 0.45118 0.0
H771 H 0.58742 0.42353 0.56777 0.0
H772 H 0.04515 0.01426 0.86309 0.0
H773 H 0.01542 1.0007 0.89376 0.0
H774 H 0.06389 1.0013 0.00735 0.0
H775 H 0.09379 0.01392 0.97682 0.0
H776 H 0.03828 0.96757 0.00503 0.0
H777 H 0.02435 0.0453 0.97262 0.0
H778 H 0.01755 0.07855 0.92931 0.0
H779 H 0.9557 0.04887 0.86006 0.0
H780 H 0.96232 0.01524 0.90256 0.0
H781 H 0.93064 0.99281 0.0838 0.0
H782 H 0.9616 0.00628 0.05541 0.0
H783 H 0.96411 0.94161 0.00117 0.0
H784 H 0.93332 0.92823 0.02869 0.0
H785 H 0.96503 0.00979 0.97887 0.0
H786 H 0.01934 0.92782 0.00848 0.0
H787 H 0.02835 0.8976 0.05812 0.0
H788 H 0.01266 0.94161 0.14478 0.0
H789 H 0.00384 0.97217 0.09587 0.0
C790 C 0.04954 0.01119 0.89452 0.0
C791 C 0.07177 0.01546 0.91758 0.0
C792 C 0.03248 0.00363 0.91207 0.0
C793 C 0.03724 1.00064 0.95307 0.0
C794 C 0.05972 0.00374 0.97576 0.0
C795 C 0.07683 0.01099 0.95821 0.0
C796 C 0.0188 0.9949 0.97266 0.0
C797 C 0.02228 0.97682 0.99923 0.0
C798 C 0.99811 0.00734 0.96598 0.0
C799 C 0.99397 0.02764 0.94057 0.0
C800 C 0.00938 0.04579 0.948 0.0
C801 C 0.00555 0.06471 0.9236 0.0
C802 C 0.98624 0.0658 0.89189 0.0
C803 C 0.97067 0.04798 0.88459 0.0
C804 C 0.97445 0.02899 0.90883 0.0
C805 C 0.93782 0.98152 0.06579 0.0
C806 C 0.92984 0.95935 0.05907 0.0
C807 C 0.95542 0.98923 0.04956 0.0
C808 C 0.96535 0.9748 0.02677 0.0
C809 C 0.95699 0.95287 0.01932 0.0
C810 C 0.93935 0.94528 0.0351 0.0
C811 C 0.98451 0.98235 0.01058 0.0
C812 C 0.98111 1.00067 0.98464 0.0
C813 C 0.00557 0.97061 0.01875 0.0
C814 C 0.01079 0.95225 0.04837 0.0
C815 C 0.01791 0.93108 0.03817 0.0
C816 C 0.023 0.9139 0.06619 0.0
C817 C 0.02118 0.91772 0.10461 0.0
C818 C 0.01413 0.9387 0.11504 0.0
C819 C 0.00901 0.95593 0.08714 0.0
H820 H 0.02511 0.9044 0.12626 0.0
H821 H 0.9833 0.08046 0.87303 0.0
H822 H 0.90752 0.00706 0.52199 0.0
H823 H 0.93503 0.99794 0.48368 0.0
H824 H 0.99062 0.01641 0.5821 0.0
H825 H 0.96321 0.02589 0.62051 0.0
H826 H 0.99298 0.03785 0.51495 0.0
H827 H 0.98175 0.96199 0.55374 0.0
H828 H 0.95927 0.92842 0.5612 0.0
H829 H 0.93258 0.92507 0.43584 0.0
H830 H 0.95467 0.95882 0.42765 0.0
H831 H 0.08743 0.99879 0.44814 0.0
H832 H 0.05781 0.00825 0.48158 0.0
H833 H 0.00595 0.98454 0.38157 0.0
H834 H 0.03566 0.97424 0.34836 0.0
H835 H 1.00009 0.9663 0.44656 0.0
H836 H 0.01169 0.04105 0.40667 0.0
H837 H 0.03358 0.07484 0.39806 0.0
H838 H 0.05853 0.0809 0.52345 0.0
H839 H 0.03704 0.04696 0.53282 0.0
C840 C 0.92561 0.00881 0.53577 0.0
C841 C 0.93317 0.01741 0.57419 0.0
C842 C 0.94132 0.00353 0.51384 0.0
C843 C 0.96485 0.00658 0.53002 0.0
C844 C 0.97251 0.01406 0.56904 0.0
C845 C 0.95682 0.01933 0.59102 0.0
C846 C 0.98134 0.00363 0.50537 0.0
C847 C 0.9948 0.02211 0.50042 0.0
C848 C 0.983 0.98337 0.48524 0.0
C849 C 0.96969 0.96308 0.49013 0.0
C850 C 0.97093 0.95422 0.52779 0.0
C851 C 0.95829 0.93513 0.53214 0.0
C852 C 0.94445 0.92466 0.49903 0.0
C853 C 0.94328 0.93322 0.46147 0.0
C854 C 0.95587 0.95231 0.45695 0.0
C855 C 0.06972 0.99588 0.43293 0.0
C856 C 0.06394 0.98548 0.39578 0.0
C857 C 0.05275 0.00145 0.45204 0.0
C858 C 0.02963 0.99712 0.43409 0.0
C859 C 0.0237 0.98793 0.39604 0.0
C860 C 0.0407 0.9822 0.37698 0.0
C861 C 0.01197 1.00047 0.45641 0.0
C862 C 0.99824 0.98209 0.4609 0.0
C863 C 0.00995 0.02089 0.47593 0.0
C864 C 0.02289 0.04134 0.47042 0.0
C865 C 0.02199 0.04948 0.4324 0.0
C866 C 0.03429 0.06868 0.42739 0.0
C867 C 0.04747 0.07998 0.46018 0.0
C868 C 0.04833 0.07212 0.49807 0.0
C869 C 0.03606 0.05292 0.50325 0.0
H870 H 0.05699 0.09485 0.45623 0.0
H871 H 0.93468 0.90988 0.50246 0.0
H872 H 0.31961 0.31817 0.08865 0.0
H873 H 0.3037 0.28265 0.05927 0.0
H874 H 0.23863 0.3149 0.01171 0.0
H875 H 0.25455 0.3506 0.04043 0.0
H876 H 0.23344 0.27493 0.04539 0.0
H877 H 0.27375 0.30269 0.95277 0.0
H878 H 0.30721 0.31737 0.93219 0.0
H879 H 0.34453 0.25692 0.97273 0.0
H880 H 0.31138 0.242 0.99411 0.0
H881 H 0.1816 0.18834 0.91347 0.0
H882 H 0.19744 0.22418 0.94173 0.0
H883 H 0.26369 0.19316 0.98409 0.0
H884 H 0.24794 0.15732 0.95581 0.0
H885 H 0.26827 0.2327 0.95295 0.0
H886 H 0.22863 0.20485 0.04605 0.0
H887 H 0.19562 0.18993 0.0677 0.0
H888 H 0.15762 0.25011 0.02784 0.0
H889 H 0.19031 0.26525 0.00539 0.0
C890 C 0.3021 0.3179 0.07118 0.0
C891 C 0.28856 0.33743 0.06601 0.0
C892 C 0.29294 0.29748 0.05467 0.0
C893 C 0.27004 0.29616 0.0328 0.0
C894 C 0.25636 0.31551 0.02835 0.0
C895 C 0.26551 0.33591 0.04477 0.0
C896 C 0.26028 0.27461 0.01473 0.0
C897 C 0.24087 0.26583 0.02478 0.0
C898 C 0.27028 0.26247 0.98854 0.0
C899 C 0.29016 0.27132 0.97539 0.0
C900 C 0.28915 0.29259 0.95757 0.0
C901 C 0.30805 0.30095 0.94572 0.0
C902 C 0.328 0.28811 0.95124 0.0
C903 C 0.32907 0.26686 0.96852 0.0
C904 C 0.31022 0.25844 0.98048 0.0
C905 C 0.19942 0.18904 0.92938 0.0
C906 C 0.21338 0.16985 0.93318 0.0
C907 C 0.20851 0.2096 0.94536 0.0
C908 C 0.2317 0.21133 0.96565 0.0
C909 C 0.24575 0.19227 0.9687 0.0
C910 C 0.2367 0.17178 0.95255 0.0
C911 C 0.2414 0.23296 0.9836 0.0
C912 C 0.26081 0.24177 0.97354 0.0
C913 C 0.23146 0.24508 0.00993 0.0
C914 C 0.21184 0.23609 0.02369 0.0
C915 C 0.21318 0.21483 0.04164 0.0
C916 C 0.19453 0.20634 0.05409 0.0
C917 C 0.17451 0.21904 0.04906 0.0
C918 C 0.17312 0.24028 0.03166 0.0
C919 C 0.19171 0.24883 0.01909 0.0
H920 H 0.16009 0.21244 0.05872 0.0
H921 H 0.34262 0.29461 0.94205 0.0
H922 H 0.68361 0.31534 0.41918 0.0
H923 H 0.69958 0.28 0.44947 0.0
H924 H 0.76665 0.31014 0.48318 0.0
H925 H 0.75074 0.34561 0.4533 0.0
H926 H 0.76868 0.26899 0.45311 0.0
H927 H 0.73527 0.30205 0.55054 0.0
H928 H 0.70444 0.31929 0.57546 0.0
H929 H 0.66383 0.25961 0.54595 0.0
H930 H 0.69431 0.24213 0.52027 0.0
H931 H 0.8229 0.18467 0.58808 0.0
H932 H 0.80709 0.22037 0.55911 0.0
H933 H 0.73974 0.1908 0.52553 0.0
H934 H 0.75549 0.155 0.55419 0.0
H935 H 0.73801 0.23183 0.55591 0.0
H936 H 0.77132 0.19888 0.45807 0.0
H937 H 0.80218 0.18163 0.43321 0.0
H938 H 0.84298 0.24113 0.46352 0.0
H939 H 0.81248 0.25861 0.48914 0.0
C940 C 0.70165 0.31463 0.43372 0.0
C941 C 0.71578 0.33351 0.43472 0.0
C942 C 0.71081 0.29433 0.45079 0.0
C943 C 0.73427 0.2925 0.46918 0.0
C944 C 0.7485 0.31116 0.46931 0.0
C945 C 0.73936 0.33143 0.45223 0.0
C946 C 0.74404 0.27113 0.48816 0.0
C947 C 0.76217 0.26102 0.47595 0.0
C948 C 0.73526 0.26047 0.51741 0.0
C949 C 0.71699 0.27087 0.53313 0.0
C950 C 0.7197 0.29266 0.54909 0.0
C951 C 0.7023 0.30247 0.56338 0.0
C952 C 0.68216 0.29057 0.5622 0.0
C953 C 0.67942 0.26882 0.5468 0.0
C954 C 0.69676 0.25895 0.53239 0.0
C955 C 0.80482 0.18562 0.57391 0.0
C956 C 0.79056 0.1668 0.57252 0.0
C957 C 0.79576 0.20611 0.55759 0.0
C958 C 0.77227 0.20819 0.53952 0.0
C959 C 0.75792 0.1896 0.53915 0.0
C960 C 0.76696 0.16914 0.55553 0.0
C961 C 0.76264 0.22967 0.52083 0.0
C962 C 0.74453 0.23981 0.53308 0.0
C963 C 0.77144 0.24036 0.49162 0.0
C964 C 0.78971 0.22997 0.47587 0.0
C965 C 0.78694 0.20822 0.4597 0.0
C966 C 0.80436 0.19841 0.44544 0.0
C967 C 0.82455 0.21025 0.44687 0.0
C968 C 0.82734 0.23196 0.46248 0.0
C969 C 0.80999 0.24184 0.47685 0.0
H970 H 0.83802 0.20263 0.43582 0.0
H971 H 0.66871 0.2982 0.57328 0.0
H972 H 0.81305 0.81661 0.09336 0.0
H973 H 0.79775 0.78064 0.06506 0.0
H974 H 0.73325 0.81243 0.01132 0.0
H975 H 0.74856 0.84854 0.03927 0.0
H976 H 0.72676 0.77283 0.0439 0.0
H977 H 0.77131 0.7996 0.95717 0.0
H978 H 0.80602 0.81412 0.94049 0.0
H979 H 0.84252 0.75408 0.98636 0.0
H980 H 0.8081 0.73934 0.00388 0.0
H981 H 0.67942 0.6864 0.90855 0.0
H982 H 0.69481 0.7221 0.93796 0.0
H983 H 0.75938 0.68999 0.99003 0.0
H984 H 0.744 0.65416 0.96083 0.0
H985 H 0.76599 0.72963 0.95878 0.0
H986 H 0.72148 0.70271 0.04521 0.0
H987 H 0.68686 0.68817 0.06219 0.0
H988 H 0.65039 0.74839 0.01727 0.0
H989 H 0.68471 0.76315 0.99945 0.0
C990 C 0.79578 0.81607 0.07492 0.0
C991 C 0.78224 0.83559 0.06764 0.0
C992 C 0.78697 0.79543 0.05899 0.0
C993 C 0.76446 0.79388 0.03546 0.0
C994 C 0.75069 0.81321 0.02921 0.0
C995 C 0.75948 0.83384 0.04518 0.0
C996 C 0.7553 0.77216 0.0172 0.0
C997 C 0.73518 0.76353 0.02489 0.0
C998 C 0.76654 0.75975 0.99307 0.0
C999 C 0.78719 0.76847 0.98218 0.0
C1000 C 0.78678 0.78956 0.96395 0.0
C1001 C 0.8064 0.79783 0.95432 0.0
C1002 C 0.82648 0.78506 0.96245 0.0
C1003 C 0.82696 0.76397 0.98013 0.0
C1004 C 0.8074 0.75564 0.9899 0.0
C1005 C 0.69673 0.68681 0.92688 0.0
C1006 C 0.71028 0.66729 0.93324 0.0
C1007 C 0.70558 0.70729 0.94347 0.0
C1008 C 0.72814 0.70868 0.96683 0.0
C1009 C 0.7419 0.68934 0.9723 0.0
C1010 C 0.73307 0.66887 0.95562 0.0
C1011 C 0.73743 0.73029 0.98544 0.0
C1012 C 0.75757 0.73892 0.97782 0.0
C1013 C 0.72621 0.74268 0.00965 0.0
C1014 C 0.70561 0.73394 0.02065 0.0
C1015 C 0.70603 0.71278 0.03869 0.0
C1016 C 0.68646 0.70451 0.0485 0.0
C1017 C 0.66642 0.71733 0.04072 0.0
C1018 C 0.66592 0.73847 0.02322 0.0
C1019 C 0.68543 0.7468 0.01329 0.0
H1020 H 0.65129 0.71089 0.04834 0.0
H1021 H 0.84165 0.79148 0.95497 0.0
H1022 H 0.24369 0.84678 0.46908 0.0
H1023 H 0.25822 0.81026 0.4956 0.0
H1024 H 0.19303 0.78003 0.44149 0.0
H1025 H 0.17847 0.81649 0.41405 0.0
H1026 H 0.21036 0.76588 0.51863 0.0
H1027 H 0.23672 0.77246 0.40086 0.0
H1028 H 0.25577 0.79091 0.35461 0.0
H1029 H 0.31933 0.79155 0.44333 0.0
H1030 H 0.30058 0.77338 0.49031 0.0
H1031 H 0.25027 0.65298 0.54836 0.0
H1032 H 0.23334 0.68846 0.5199 0.0
H1033 H 0.29867 0.7213 0.56163 0.0
H1034 H 0.31563 0.68586 0.58988 0.0
H1035 H 0.27995 0.73354 0.48848 0.0
H1036 H 0.25406 0.72839 0.60696 0.0
H1037 H 0.23545 0.71071 0.65454 0.0
H1038 H 0.17171 0.70809 0.56644 0.0
H1039 H 0.19002 0.72549 0.51815 0.0
C1040 C 0.2324 0.83238 0.46272 0.0
C1041 C 0.20975 0.83472 0.43994 0.0
C1042 C 0.24076 0.8115 0.47793 0.0
C1043 C 0.22675 0.79238 0.47041 0.0
C1044 C 0.20408 0.79461 0.44789 0.0
C1045 C 0.19571 0.81554 0.43251 0.0
C1046 C 0.23594 0.77012 0.48594 0.0
C1047 C 0.22536 0.75861 0.51157 0.0
C1048 C 0.25584 0.76092 0.47747 0.0
C1049 C 0.26719 0.77174 0.44921 0.0
C1050 C 0.25472 0.77669 0.41061 0.0
C1051 C 0.26547 0.78707 0.38424 0.0
C1052 C 0.28873 0.79244 0.39605 0.0
C1053 C 0.3013 0.78739 0.43423 0.0
C1054 C 0.29063 0.77704 0.46073 0.0
C1055 C 0.26099 0.6678 0.55153 0.0
C1056 C 0.28438 0.66653 0.57075 0.0
C1057 C 0.25129 0.68809 0.53535 0.0
C1058 C 0.26468 0.70764 0.53877 0.0
C1059 C 0.28801 0.70643 0.55832 0.0
C1060 C 0.29774 0.6861 0.57425 0.0
C1061 C 0.25452 0.7293 0.52154 0.0
C1062 C 0.2649 0.74072 0.4955 0.0
C1063 C 0.23453 0.73847 0.52985 0.0
C1064 C 0.22347 0.72803 0.55883 0.0
C1065 C 0.23612 0.72388 0.59764 0.0
C1066 C 0.22562 0.71394 0.62476 0.0
C1067 C 0.20243 0.70822 0.61349 0.0
C1068 C 0.18968 0.71249 0.57511 0.0
C1069 C 0.2001 0.72241 0.54786 0.0
H1070 H 0.19433 0.70053 0.63453 0.0
H1071 H 0.29702 0.80047 0.3756 0.0
H1072 H 0.57001 0.40941 0.3847 0.0
H1073 H 0.53346 0.39423 0.34889 0.0
H1074 H 0.5675 0.35347 0.27892 0.0
H1075 H 0.6047 0.36901 0.31504 0.0
H1076 H 0.5327 0.37708 0.23317 0.0
H1077 H 0.53886 0.32772 0.34 0.0
H1078 H 0.54758 0.31544 0.40926 0.0
H1079 H 0.49552 0.35941 0.4307 0.0
H1080 H 0.48669 0.37223 0.36173 0.0
H1081 H 0.41351 0.36524 0.13749 0.0
H1082 H 0.45081 0.34991 0.17381 0.0
H1083 H 0.452 0.3967 0.26826 0.0
H1084 H 0.41527 0.41208 0.23197 0.0
H1085 H 0.47056 0.35478 0.29536 0.0
H1086 H 0.47313 0.4101 0.19226 0.0
H1087 H 0.46448 0.42206 0.12277 0.0
H1088 H 0.50151 0.36543 0.09463 0.0
H1089 H 0.50964 0.35261 0.16368 0.0
C1090 C 0.56987 0.39686 0.36225 0.0
C1091 C 0.59025 0.39046 0.3526 0.0
C1092 C 0.54889 0.38804 0.34192 0.0
C1093 C 0.54765 0.37248 0.31141 0.0
C1094 C 0.56806 0.36533 0.30254 0.0
C1095 C 0.58929 0.37411 0.3233 0.0
C1096 C 0.5247 0.36599 0.28673 0.0
C1097 C 0.51925 0.37145 0.24651 0.0
C1098 C 0.50706 0.35869 0.304 0.0
C1099 C 0.51212 0.35094 0.34557 0.0
C1100 C 0.52933 0.33486 0.3595 0.0
C1101 C 0.53429 0.32779 0.39874 0.0
C1102 C 0.5221 0.33663 0.42436 0.0
C1103 C 0.50491 0.35254 0.41079 0.0
C1104 C 0.49988 0.35967 0.37158 0.0
C1105 C 0.42145 0.37158 0.16664 0.0
C1106 C 0.41161 0.38967 0.18225 0.0
C1107 C 0.44275 0.36295 0.18721 0.0
C1108 C 0.45424 0.37227 0.22365 0.0
C1109 C 0.44344 0.38917 0.24035 0.0
C1110 C 0.42246 0.39795 0.21965 0.0
C1111 C 0.47856 0.36693 0.24259 0.0
C1112 C 0.48421 0.35941 0.28174 0.0
C1113 C 0.49638 0.37223 0.2243 0.0
C1114 C 0.49168 0.38019 0.18299 0.0
C1115 C 0.47923 0.40007 0.17119 0.0
C1116 C 0.47445 0.40703 0.13191 0.0
C1117 C 0.48247 0.39456 0.10435 0.0
C1118 C 0.49526 0.37505 0.116 0.0
C1119 C 0.49988 0.36788 0.15516 0.0
H1120 H 0.4788 0.40002 0.07398 0.0
H1121 H 0.52598 0.33115 0.45473 0.0
H1122 H 0.4229 0.62745 0.59641 0.0
H1123 H 0.45966 0.6438 0.63108 0.0
H1124 H 0.44164 0.63481 0.74179 0.0
H1125 H 0.40426 0.61991 0.70669 0.0
H1126 H 0.47104 0.66836 0.74925 0.0
H1127 H 0.46823 0.59235 0.70239 0.0
H1128 H 0.45738 0.56358 0.65088 0.0
H1129 H 0.49988 0.59503 0.58465 0.0
H1130 H 0.51076 0.62437 0.63581 0.0
H1131 H 0.5639 0.6123 0.87509 0.0
H1132 H 0.5293 0.62875 0.83311 0.0
H1133 H 0.56717 0.64811 0.74893 0.0
H1134 H 0.60221 0.63195 0.79166 0.0
H1135 H 0.53077 0.61857 0.72002 0.0
H1136 H 0.54177 0.68852 0.78731 0.0
H1137 H 0.55059 0.71369 0.8449 0.0
H1138 H 0.49217 0.68878 0.88103 0.0
H1139 H 0.48317 0.6632 0.824 0.0
C1140 C 0.42645 0.62997 0.62795 0.0
C1141 C 0.41089 0.62252 0.64901 0.0
C1142 C 0.44749 0.63915 0.64781 0.0
C1143 C 0.45376 0.63993 0.68921 0.0
C1144 C 0.4373 0.63436 0.7099 0.0
C1145 C 0.41595 0.62582 0.68988 0.0
C1146 C 0.47824 0.64258 0.71097 0.0
C1147 C 0.48415 0.65759 0.7428 0.0
C1148 C 0.49551 0.6287 0.70242 0.0
C1149 C 0.49006 0.61064 0.67257 0.0
C1150 C 0.47525 0.59312 0.67683 0.0
C1151 C 0.46907 0.57675 0.64769 0.0
C1152 C 0.47783 0.5775 0.61442 0.0
C1153 C 0.49305 0.59453 0.61042 0.0
C1154 C 0.49924 0.61105 0.63948 0.0
C1155 C 0.56504 0.62084 0.84834 0.0
C1156 C 0.58566 0.62087 0.83651 0.0
C1157 C 0.54527 0.63032 0.82443 0.0
C1158 C 0.54565 0.63974 0.78793 0.0
C1159 C 0.56658 0.6411 0.77717 0.0
C1160 C 0.58657 0.63196 0.80159 0.0
C1161 C 0.52359 0.64409 0.75879 0.0
C1162 C 0.51799 0.63009 0.72565 0.0
C1163 C 0.5066 0.6584 0.76706 0.0
C1164 C 0.51184 0.67387 0.80135 0.0
C1165 C 0.53088 0.68829 0.80765 0.0
C1166 C 0.5359 0.70266 0.8402 0.0
C1167 C 0.52196 0.70283 0.86662 0.0
C1168 C 0.50294 0.68865 0.86051 0.0
C1169 C 0.49784 0.67424 0.82802 0.0
H1170 H 0.52588 0.71396 0.8918 0.0
H1171 H 0.47277 0.56489 0.5918 0.0
H1172 H 0.07785 0.92655 0.2927 0.0
H1173 H 0.04127 0.91152 0.2564 0.0
H1174 H 0.05697 0.84824 0.31719 0.0
H1175 H 0.09418 0.86351 0.35421 0.0
H1176 H 0.02629 0.87787 0.20701 0.0
H1177 H 0.00475 0.83056 0.33466 0.0
H1178 H 0.01643 0.82884 0.40731 0.0
H1179 H 0.03538 0.89851 0.41198 0.0
H1180 H 0.02359 0.90065 0.33946 0.0
H1181 H 0.90716 0.86205 0.13065 0.0
H1182 H 0.94539 0.84838 0.1657 0.0
H1183 H 0.94852 0.89915 0.25472 0.0
H1184 H 0.91074 0.91267 0.21989 0.0
H1185 H 0.97099 0.86219 0.28743 0.0
H1186 H 0.96856 0.91117 0.17555 0.0
H1187 H 0.9562 0.92185 0.10577 0.0
H1188 H 0.98464 0.86083 0.07286 0.0
H1189 H 0.99709 0.84972 0.14288 0.0
C1190 C 0.07373 0.9093 0.29802 0.0
C1191 C 0.08875 0.89627 0.32657 0.0
C1192 C 0.05283 0.90066 0.27698 0.0
C1193 C 0.04625 0.87879 0.28414 0.0
C1194 C 0.06168 0.86521 0.31129 0.0
C1195 C 0.08292 0.87387 0.33226 0.0
C1196 C 0.02236 0.87166 0.26551 0.0
C1197 C 0.01431 0.87373 0.22449 0.0
C1198 C 0.00657 0.86671 0.28823 0.0
C1199 C 0.01362 0.86564 0.33175 0.0
C1200 C 0.01142 0.84548 0.35126 0.0
C1201 C 0.01804 0.84445 0.39238 0.0
C1202 C 0.02674 0.86353 0.41423 0.0
C1203 C 0.02874 0.88371 0.39502 0.0
C1204 C 0.02212 0.88484 0.35393 0.0
C1205 C 0.91571 0.86958 0.15855 0.0
C1206 C 0.90609 0.88829 0.17283 0.0
C1207 C 0.93757 0.8619 0.17841 0.0
C1208 C 0.94994 0.87286 0.21272 0.0
C1209 C 0.93934 0.8903 0.22853 0.0
C1210 C 0.91775 0.89805 0.2086 0.0
C1211 C 0.9749 0.86898 0.22911 0.0
C1212 C 0.98312 0.86496 0.26966 0.0
C1213 C 0.99082 0.873 0.2062 0.0
C1214 C 0.98339 0.87946 0.16422 0.0
C1215 C 0.97198 0.89994 0.15337 0.0
C1216 C 0.96494 0.90606 0.11377 0.0
C1217 C 0.96939 0.89193 0.08472 0.0
C1218 C 0.98104 0.87168 0.09534 0.0
C1219 C 0.98811 0.86546 0.135 0.0
H1220 H 0.96405 0.89677 0.05405 0.0
H1221 H 0.03186 0.86269 0.44605 0.0
H1222 H 0.0668 0.08422 0.87137 0.0
H1223 H 0.03076 0.09827 0.83201 0.0
H1224 H 0.066 0.15217 0.7893 0.0
H1225 H 0.10285 0.13743 0.82818 0.0
H1226 H 0.00502 0.13256 0.82414 0.0
H1227 H 0.03756 0.1624 0.69307 0.0
H1228 H 0.07066 0.15767 0.66409 0.0
H1229 H 0.0822 0.09141 0.71351 0.0
H1230 H 0.04904 0.0957 0.74239 0.0
H1231 H 0.89976 0.13489 0.67499 0.0
H1232 H 0.93602 0.15025 0.71494 0.0
H1233 H 0.97309 0.09779 0.6723 0.0
H1234 H 0.93772 0.08332 0.63165 0.0
H1235 H 0.99777 0.13222 0.68021 0.0
H1236 H 0.95516 0.09466 0.76467 0.0
H1237 H 0.92237 0.08998 0.79441 0.0
H1238 H 0.93126 0.15755 0.83845 0.0
H1239 H 0.96407 0.1626 0.80881 0.0
C1240 C 0.06704 0.09921 0.85396 0.0
C1241 C 0.08784 0.10941 0.85234 0.0
C1242 C 0.04625 0.1074 0.83163 0.0
C1243 C 0.04552 0.12614 0.80711 0.0
C1244 C 0.06611 0.13746 0.8075 0.0
C1245 C 0.08715 0.12909 0.82986 0.0
C1246 C 0.02339 0.1318 0.7787 0.0
C1247 C 0.00348 0.13294 0.79264 0.0
C1248 C 0.02118 0.13226 0.73754 0.0
C1249 C 0.0411 0.12953 0.72034 0.0
C1250 C 0.0472 0.14685 0.69773 0.0
C1251 C 0.06594 0.14424 0.68131 0.0
C1252 C 0.07859 0.1243 0.68712 0.0
C1253 C 0.07245 0.10688 0.70919 0.0
C1254 C 0.05371 0.1094 0.72559 0.0
C1255 C 0.91573 0.127 0.6736 0.0
C1256 C 0.91573 0.10765 0.65055 0.0
C1257 C 0.93645 0.13569 0.69664 0.0
C1258 C 0.9574 0.125 0.69727 0.0
C1259 C 0.95733 0.1065 0.67249 0.0
C1260 C 0.93689 0.09805 0.64938 0.0
C1261 C 0.97938 0.13126 0.72564 0.0
C1262 C 0.99928 0.13275 0.71168 0.0
C1263 C 0.98159 0.13199 0.76679 0.0
C1264 C 0.96177 0.12911 0.78411 0.0
C1265 C 0.94999 0.10854 0.78048 0.0
C1266 C 0.93145 0.10582 0.79737 0.0
C1267 C 0.92468 0.12349 0.81816 0.0
C1268 C 0.93648 0.1439 0.82223 0.0
C1269 C 0.95504 0.14671 0.80542 0.0
H1270 H 0.91032 0.12135 0.83121 0.0
H1271 H 0.0931 0.12231 0.6744 0.0
loop_
_geom_bond_atom_site_label_1
_geom_bond_atom_site_label_2
_geom_bond_distance
_geom_bond_site_symmetry_2
_ccdc_geom_bond_type
Co0 O3 1.970 . S
Co0 N17 1.989 1_554 S
Co0 O25 1.967 . S
Co0 O32 1.920 . S
Co1 O4 1.966 . S
Co1 N10 2.022 . S
Co1 N18 1.993 1_554 S
Co1 O26 1.941 . S
C2 O3 1.258 . S
C2 O4 1.263 . S
O3 Co0 1.970 . S
O3 C2 1.258 . S
O4 Co1 1.966 . S
O4 C2 1.263 . S
C5 O6 1.235 . S
C5 O32 1.289 . S
O6 C5 1.235 . S
C7 C9 1.400 . S
C7 N10 1.351 . S
C7 C12 1.501 . S
C8 C9 1.387 . S
C8 N11 1.341 . S
C9 C7 1.400 . S
C9 C8 1.387 . S
N10 Co1 2.022 . S
N10 C7 1.351 . S
N10 N11 1.365 . S
N11 C8 1.341 . S
N11 N10 1.365 . S
N11 H31 0.862 . S
C12 C7 1.501 . S
C12 H13 0.961 . S
C12 H14 0.961 . S
C12 H15 0.960 . S
H13 C12 0.961 . S
H14 C12 0.961 . S
H15 C12 0.960 . S
C16 N17 1.342 . S
C16 C20 1.401 . S
C16 C21 1.499 . S
N17 Co0 1.989 1_556 S
N17 C16 1.342 . S
N17 N18 1.388 . S
N18 Co1 1.993 1_556 S
N18 N17 1.388 . S
N18 C19 1.346 . S
C19 N18 1.346 . S
C19 C20 1.396 . S
C19 C29 1.510 . S
C20 C16 1.401 . S
C20 C19 1.396 . S
C21 C16 1.499 . S
C21 H22 0.959 . S
C21 H23 0.960 . S
C21 H24 0.961 . S
H22 C21 0.959 . S
H23 C21 0.960 . S
H24 C21 0.961 . S
O25 Co0 1.967 . S
O25 C33 1.258 . S
O26 Co1 1.941 . S
O26 C33 1.266 . S
H27 C29 0.959 . S
H28 C29 0.961 . S
C29 C19 1.510 . S
C29 H27 0.959 . S
C29 H28 0.961 . S
C29 H30 0.960 . S
H30 C29 0.960 . S
H31 N11 0.862 . S
O32 Co0 1.920 . S
O32 C5 1.289 . S
C33 O25 1.258 . S
C33 O26 1.266 . S
Co34 O37 1.970 . S
Co34 N51 1.989 . S
Co34 O59 1.967 . S
Co34 O66 1.920 . S
Co35 O38 1.966 . S
Co35 N44 2.022 . S
Co35 N52 1.993 . S
Co35 O60 1.941 . S
C36 O37 1.258 . S
C36 O38 1.263 . S
O37 Co34 1.970 . S
O37 C36 1.258 . S
O38 Co35 1.966 . S
O38 C36 1.263 . S
C39 O40 1.235 . S
C39 O66 1.289 . S
O40 C39 1.235 . S
C41 C43 1.400 . S
C41 N44 1.351 . S
C41 C46 1.501 . S
C42 C43 1.387 . S
C42 N45 1.341 . S
C43 C41 1.400 . S
C43 C42 1.387 . S
N44 Co35 2.022 . S
N44 C41 1.351 . S
N44 N45 1.365 . S
N45 C42 1.341 . S
N45 N44 1.365 . S
N45 H65 0.862 . S
C46 C41 1.501 . S
C46 H47 0.961 . S
C46 H48 0.961 . S
C46 H49 0.960 . S
H47 C46 0.961 . S
H48 C46 0.961 . S
H49 C46 0.960 . S
C50 N51 1.342 . S
C50 C54 1.401 . S
C50 C55 1.499 . S
N51 Co34 1.989 . S
N51 C50 1.342 . S
N51 N52 1.388 . S
N52 Co35 1.993 . S
N52 N51 1.388 . S
N52 C53 1.346 . S
C53 N52 1.346 . S
C53 C54 1.396 . S
C53 C63 1.510 . S
C54 C50 1.401 . S
C54 C53 1.396 . S
C55 C50 1.499 . S
C55 H56 0.959 . S
C55 H57 0.960 . S
C55 H58 0.961 . S
H56 C55 0.959 . S
H57 C55 0.960 . S
H58 C55 0.961 . S
O59 Co34 1.967 . S
O59 C67 1.258 . S
O60 Co35 1.941 . S
O60 C67 1.266 . S
H61 C63 0.959 . S
H62 C63 0.961 . S
C63 C53 1.510 . S
C63 H61 0.959 . S
C63 H62 0.961 . S
C63 H64 0.960 . S
H64 C63 0.960 . S
H65 N45 0.862 . S
O66 Co34 1.920 . S
O66 C39 1.289 . S
C67 O59 1.258 . S
C67 O60 1.266 . S
Co68 O71 1.970 . S
Co68 N85 1.989 1_556 S
Co68 O93 1.967 . S
Co68 O100 1.920 . S
Co69 O72 1.966 . S
Co69 N78 2.022 . S
Co69 N86 1.993 1_556 S
Co69 O94 1.941 . S
C70 O71 1.258 . S
C70 O72 1.263 . S
O71 Co68 1.970 . S
O71 C70 1.258 . S
O72 Co69 1.966 . S
O72 C70 1.263 . S
C73 O74 1.235 . S
C73 O100 1.289 . S
O74 C73 1.235 . S
C75 C77 1.400 . S
C75 N78 1.351 . S
C75 C80 1.501 . S
C76 C77 1.387 . S
C76 N79 1.341 . S
C77 C75 1.400 . S
C77 C76 1.387 . S
N78 Co69 2.022 . S
N78 C75 1.351 . S
N78 N79 1.365 . S
N79 C76 1.341 . S
N79 N78 1.365 . S
N79 H99 0.862 . S
C80 C75 1.501 . S
C80 H81 0.961 . S
C80 H82 0.961 . S
C80 H83 0.960 . S
H81 C80 0.961 . S
H82 C80 0.961 . S
H83 C80 0.960 . S
C84 N85 1.342 . S
C84 C88 1.401 . S
C84 C89 1.499 . S
N85 Co68 1.989 1_554 S
N85 C84 1.342 . S
N85 N86 1.388 . S
N86 Co69 1.993 1_554 S
N86 N85 1.388 . S
N86 C87 1.346 . S
C87 N86 1.346 . S
C87 C88 1.396 . S
C87 C97 1.510 . S
C88 C84 1.401 . S
C88 C87 1.396 . S
C89 C84 1.499 . S
C89 H90 0.959 . S
C89 H91 0.960 . S
C89 H92 0.961 . S
H90 C89 0.959 . S
H91 C89 0.960 . S
H92 C89 0.961 . S
O93 Co68 1.967 . S
O93 C101 1.258 . S
O94 Co69 1.941 . S
O94 C101 1.266 . S
H95 C97 0.959 . S
H96 C97 0.961 . S
C97 C87 1.510 . S
C97 H95 0.959 . S
C97 H96 0.961 . S
C97 H98 0.960 . S
H98 C97 0.960 . S
H99 N79 0.862 . S
O100 Co68 1.920 . S
O100 C73 1.289 . S
C101 O93 1.258 . S
C101 O94 1.266 . S
Co102 O105 1.970 . S
Co102 N119 1.989 . S
Co102 O127 1.967 . S
Co102 O134 1.920 . S
Co103 O106 1.966 . S
Co103 N112 2.022 . S
Co103 N120 1.993 . S
Co103 O128 1.941 . S
C104 O105 1.258 . S
C104 O106 1.263 . S
O105 Co102 1.970 . S
O105 C104 1.258 . S
O106 Co103 1.966 . S
O106 C104 1.263 . S
C107 O108 1.235 . S
C107 O134 1.289 . S
O108 C107 1.235 . S
C109 C111 1.400 . S
C109 N112 1.351 . S
C109 C114 1.501 . S
C110 C111 1.387 . S
C110 N113 1.341 . S
C111 C109 1.400 . S
C111 C110 1.387 . S
N112 Co103 2.022 . S
N112 C109 1.351 . S
N112 N113 1.365 . S
N113 C110 1.341 . S
N113 N112 1.365 . S
N113 H133 0.862 . S
C114 C109 1.501 . S
C114 H115 0.961 . S
C114 H116 0.961 . S
C114 H117 0.960 . S
H115 C114 0.961 . S
H116 C114 0.961 . S
H117 C114 0.960 . S
C118 N119 1.342 . S
C118 C122 1.401 . S
C118 C123 1.499 . S
N119 Co102 1.989 . S
N119 C118 1.342 . S
N119 N120 1.388 . S
N120 Co103 1.993 . S
N120 N119 1.388 . S
N120 C121 1.346 . S
C121 N120 1.346 . S
C121 C122 1.396 . S
C121 C131 1.510 . S
C122 C118 1.401 . S
C122 C121 1.396 . S
C123 C118 1.499 . S
C123 H124 0.959 . S
C123 H125 0.960 . S
C123 H126 0.961 . S
H124 C123 0.959 . S
H125 C123 0.960 . S
H126 C123 0.961 . S
O127 Co102 1.967 . S
O127 C135 1.258 . S
O128 Co103 1.941 . S
O128 C135 1.266 . S
H129 C131 0.959 . S
H130 C131 0.961 . S
C131 C121 1.510 . S
C131 H129 0.959 . S
C131 H130 0.961 . S
C131 H132 0.960 . S
H132 C131 0.960 . S
H133 N113 0.862 . S
O134 Co102 1.920 . S
O134 C107 1.289 . S
C135 O127 1.258 . S
C135 O128 1.266 . S
Co136 O139 1.970 . S
Co136 N153 1.989 1_554 S
Co136 O161 1.967 . S
Co136 O168 1.920 . S
Co137 O140 1.966 . S
Co137 N146 2.022 . S
Co137 N154 1.993 1_554 S
Co137 O162 1.941 . S
C138 O139 1.258 . S
C138 O140 1.263 . S
O139 Co136 1.970 . S
O139 C138 1.258 . S
O140 Co137 1.966 . S
O140 C138 1.263 . S
C141 O142 1.235 . S
C141 O168 1.289 . S
O142 C141 1.235 . S
C143 C145 1.400 . S
C143 N146 1.351 . S
C143 C148 1.501 . S
C144 C145 1.387 . S
C144 N147 1.341 . S
C145 C143 1.400 . S
C145 C144 1.387 . S
N146 Co137 2.022 . S
N146 C143 1.351 . S
N146 N147 1.365 . S
N147 C144 1.341 . S
N147 N146 1.365 . S
N147 H167 0.862 . S
C148 C143 1.501 . S
C148 H149 0.961 . S
C148 H150 0.961 . S
C148 H151 0.960 . S
H149 C148 0.961 . S
H150 C148 0.961 . S
H151 C148 0.960 . S
C152 N153 1.342 . S
C152 C156 1.401 . S
C152 C157 1.499 . S
N153 Co136 1.989 1_556 S
N153 C152 1.342 . S
N153 N154 1.388 . S
N154 Co137 1.993 1_556 S
N154 N153 1.388 . S
N154 C155 1.346 . S
C155 N154 1.346 . S
C155 C156 1.396 . S
C155 C165 1.510 . S
C156 C152 1.401 . S
C156 C155 1.396 . S
C157 C152 1.499 . S
C157 H158 0.959 . S
C157 H159 0.960 . S
C157 H160 0.961 . S
H158 C157 0.959 . S
H159 C157 0.960 . S
H160 C157 0.961 . S
O161 Co136 1.967 . S
O161 C169 1.258 . S
O162 Co137 1.941 . S
O162 C169 1.266 . S
H163 C165 0.959 . S
H164 C165 0.961 . S
C165 C155 1.510 . S
C165 H163 0.959 . S
C165 H164 0.961 . S
C165 H166 0.960 . S
H166 C165 0.960 . S
H167 N147 0.862 . S
O168 Co136 1.920 . S
O168 C141 1.289 . S
C169 O161 1.258 . S
C169 O162 1.266 . S
Co170 O173 1.970 . S
Co170 N187 1.989 . S
Co170 O195 1.967 . S
Co170 O202 1.920 . S
Co171 O174 1.966 . S
Co171 N180 2.022 . S
Co171 N188 1.993 . S
Co171 O196 1.941 . S
C172 O173 1.258 . S
C172 O174 1.263 . S
O173 Co170 1.970 . S
O173 C172 1.258 . S
O174 Co171 1.966 . S
O174 C172 1.263 . S
C175 O176 1.235 . S
C175 O202 1.289 . S
O176 C175 1.235 . S
C177 C179 1.400 . S
C177 N180 1.351 . S
C177 C182 1.501 . S
C178 C179 1.387 . S
C178 N181 1.341 . S
C179 C177 1.400 . S
C179 C178 1.387 . S
N180 Co171 2.022 . S
N180 C177 1.351 . S
N180 N181 1.365 . S
N181 C178 1.341 . S
N181 N180 1.365 . S
N181 H201 0.862 . S
C182 C177 1.501 . S
C182 H183 0.961 . S
C182 H184 0.961 . S
C182 H185 0.960 . S
H183 C182 0.961 . S
H184 C182 0.961 . S
H185 C182 0.960 . S
C186 N187 1.342 . S
C186 C190 1.401 . S
C186 C191 1.499 . S
N187 Co170 1.989 . S
N187 C186 1.342 . S
N187 N188 1.388 . S
N188 Co171 1.993 . S
N188 N187 1.388 . S
N188 C189 1.346 . S
C189 N188 1.346 . S
C189 C190 1.396 . S
C189 C199 1.510 . S
C190 C186 1.401 . S
C190 C189 1.396 . S
C191 C186 1.499 . S
C191 H192 0.959 . S
C191 H193 0.960 . S
C191 H194 0.961 . S
H192 C191 0.959 . S
H193 C191 0.960 . S
H194 C191 0.961 . S
O195 Co170 1.967 . S
O195 C203 1.258 . S
O196 Co171 1.941 . S
O196 C203 1.266 . S
H197 C199 0.959 . S
H198 C199 0.961 . S
C199 C189 1.510 . S
C199 H197 0.959 . S
C199 H198 0.961 . S
C199 H200 0.960 . S
H200 C199 0.960 . S
H201 N181 0.862 . S
O202 Co170 1.920 . S
O202 C175 1.289 . S
C203 O195 1.258 . S
C203 O196 1.266 . S
Co204 O207 1.970 . S
Co204 N221 1.989 1_556 S
Co204 O229 1.967 . S
Co204 O236 1.920 . S
Co205 O208 1.966 . S
Co205 N214 2.022 . S
Co205 N222 1.993 1_556 S
Co205 O230 1.941 . S
C206 O207 1.258 . S
C206 O208 1.263 . S
O207 Co204 1.970 . S
O207 C206 1.258 . S
O208 Co205 1.966 . S
O208 C206 1.263 . S
C209 O210 1.235 . S
C209 O236 1.289 . S
O210 C209 1.235 . S
C211 C213 1.400 . S
C211 N214 1.351 . S
C211 C216 1.501 . S
C212 C213 1.387 . S
C212 N215 1.341 . S
C213 C211 1.400 . S
C213 C212 1.387 . S
N214 Co205 2.022 . S
N214 C211 1.351 . S
N214 N215 1.365 . S
N215 C212 1.341 . S
N215 N214 1.365 . S
N215 H235 0.862 . S
C216 C211 1.501 . S
C216 H217 0.961 . S
C216 H218 0.961 . S
C216 H219 0.960 . S
H217 C216 0.961 . S
H218 C216 0.961 . S
H219 C216 0.960 . S
C220 N221 1.342 . S
C220 C224 1.401 . S
C220 C225 1.499 . S
N221 Co204 1.989 1_554 S
N221 C220 1.342 . S
N221 N222 1.388 . S
N222 Co205 1.993 1_554 S
N222 N221 1.388 . S
N222 C223 1.346 . S
C223 N222 1.346 . S
C223 C224 1.396 . S
C223 C233 1.510 . S
C224 C220 1.401 . S
C224 C223 1.396 . S
C225 C220 1.499 . S
C225 H226 0.959 . S
C225 H227 0.960 . S
C225 H228 0.961 . S
H226 C225 0.959 . S
H227 C225 0.960 . S
H228 C225 0.961 . S
O229 Co204 1.967 . S
O229 C237 1.258 . S
O230 Co205 1.941 . S
O230 C237 1.266 . S
H231 C233 0.959 . S
H232 C233 0.961 . S
C233 C223 1.510 . S
C233 H231 0.959 . S
C233 H232 0.961 . S
C233 H234 0.960 . S
H234 C233 0.960 . S
H235 N215 0.862 . S
O236 Co204 1.920 . S
O236 C209 1.289 . S
C237 O229 1.258 . S
C237 O230 1.266 . S
Co238 O241 1.970 . S
Co238 N255 1.989 . S
Co238 O263 1.967 . S
Co238 O270 1.920 . S
Co239 O242 1.966 . S
Co239 N248 2.022 . S
Co239 N256 1.993 . S
Co239 O264 1.941 . S
C240 O241 1.258 . S
C240 O242 1.263 . S
O241 Co238 1.970 . S
O241 C240 1.258 . S
O242 Co239 1.966 . S
O242 C240 1.263 . S
C243 O244 1.235 . S
C243 O270 1.289 . S
O244 C243 1.235 . S
C245 C247 1.400 . S
C245 N248 1.351 . S
C245 C250 1.501 . S
C246 C247 1.387 . S
C246 N249 1.341 . S
C247 C245 1.400 . S
C247 C246 1.387 . S
N248 Co239 2.022 . S
N248 C245 1.351 . S
N248 N249 1.365 . S
N249 C246 1.341 . S
N249 N248 1.365 . S
N249 H269 0.862 . S
C250 C245 1.501 . S
C250 H251 0.961 . S
C250 H252 0.961 . S
C250 H253 0.960 . S
H251 C250 0.961 . S
H252 C250 0.961 . S
H253 C250 0.960 . S
C254 N255 1.342 . S
C254 C258 1.401 . S
C254 C259 1.499 . S
N255 Co238 1.989 . S
N255 C254 1.342 . S
N255 N256 1.388 . S
N256 Co239 1.993 . S
N256 N255 1.388 . S
N256 C257 1.346 . S
C257 N256 1.346 . S
C257 C258 1.396 . S
C257 C267 1.510 . S
C258 C254 1.401 . S
C258 C257 1.396 . S
C259 C254 1.499 . S
C259 H260 0.959 . S
C259 H261 0.960 . S
C259 H262 0.961 . S
H260 C259 0.959 . S
H261 C259 0.960 . S
H262 C259 0.961 . S
O263 Co238 1.967 . S
O263 C271 1.258 . S
O264 Co239 1.941 . S
O264 C271 1.266 . S
H265 C267 0.959 . S
H266 C267 0.961 . S
C267 C257 1.510 . S
C267 H265 0.959 . S
C267 H266 0.961 . S
C267 H268 0.960 . S
H268 C267 0.960 . S
H269 N249 0.862 . S
O270 Co238 1.920 . S
O270 C243 1.289 . S
C271 O263 1.258 . S
C271 O264 1.266 . S
H272 C290 0.951 . S
H273 C292 0.951 . S
H274 C294 0.950 . S
H275 C295 0.950 . S
H276 C297 0.950 . S
H277 C300 0.950 . S
H278 C301 0.950 . S
H279 C303 0.950 . S
H280 C304 0.950 . S
H281 C305 0.951 . S
H282 C307 0.951 . S
H283 C309 0.950 . S
H284 C310 0.950 . S
H285 C312 0.950 . S
H286 C315 0.950 . S
H287 C316 0.950 . S
H288 C318 0.950 . S
H289 C319 0.950 . S
C290 H272 0.951 . S
C290 C291 1.366 . S
C290 C292 1.388 . S
C291 C290 1.366 . S
C291 C295 1.385 . S
C292 H273 0.951 . S
C292 C290 1.388 . S
C292 C293 1.366 . S
C293 C292 1.366 . S
C293 C294 1.414 . S
C293 C296 1.499 . S
C294 H274 0.950 . S
C294 C293 1.414 . S
C294 C295 1.374 . S
C295 H275 0.950 . S
C295 C291 1.385 . S
C295 C294 1.374 . S
C296 C293 1.499 . S
C296 C297 1.373 . S
C296 C298 1.389 . S
C297 H276 0.950 . S
C297 C296 1.373 . S
C297 C313 1.377 . S
C298 C296 1.389 . S
C298 C299 1.524 . S
C298 C312 1.377 . S
C299 C298 1.524 . S
C299 C300 1.397 . S
C299 C304 1.363 . S
C300 H277 0.950 . S
C300 C299 1.397 . S
C300 C301 1.334 . S
C301 H278 0.950 . S
C301 C300 1.334 . S
C301 C302 1.287 . S
C302 C301 1.287 . S
C302 C303 1.524 . S
C302 H321 0.913 . S
C303 H279 0.950 . S
C303 C302 1.524 . S
C303 C304 1.415 . S
C304 H280 0.950 . S
C304 C299 1.363 . S
C304 C303 1.415 . S
C305 H281 0.951 . S
C305 C306 1.366 . S
C305 C307 1.388 . S
C306 C305 1.366 . S
C306 C310 1.385 . S
C307 H282 0.951 . S
C307 C305 1.388 . S
C307 C308 1.366 . S
C308 C307 1.366 . S
C308 C309 1.414 . S
C308 C311 1.499 . S
C309 H283 0.950 . S
C309 C308 1.414 . S
C309 C310 1.374 . S
C310 H284 0.950 . S
C310 C306 1.385 . S
C310 C309 1.374 . S
C311 C308 1.499 . S
C311 C312 1.373 . S
C311 C313 1.389 . S
C312 H285 0.950 . S
C312 C298 1.377 . S
C312 C311 1.373 . S
C313 C297 1.377 . S
C313 C311 1.389 . S
C313 C314 1.524 . S
C314 C313 1.524 . S
C314 C315 1.397 . S
C314 C319 1.363 . S
C315 H286 0.950 . S
C315 C314 1.397 . S
C315 C316 1.334 . S
C316 H287 0.950 . S
C316 C315 1.334 . S
C316 C317 1.287 . S
C317 C316 1.287 . S
C317 C318 1.524 . S
C317 H320 0.999 . S
C318 H288 0.950 . S
C318 C317 1.524 . S
C318 C319 1.415 . S
C319 H289 0.950 . S
C319 C314 1.363 . S
C319 C318 1.415 . S
H320 C317 0.999 . S
H321 C302 0.913 . S
H322 C340 0.951 . S
H323 C342 0.951 . S
H324 C344 0.950 . S
H325 C345 0.950 . S
H326 C347 0.950 . S
H327 C350 0.950 . S
H328 C351 0.950 . S
H329 C353 0.950 . S
H330 C354 0.950 . S
H331 C355 0.951 . S
H332 C357 0.951 . S
H333 C359 0.950 . S
H334 C360 0.950 . S
H335 C362 0.950 . S
H336 C365 0.950 . S
H337 C366 0.950 . S
H338 C368 0.950 . S
H339 C369 0.950 . S
C340 H322 0.951 . S
C340 C341 1.366 . S
C340 C342 1.388 . S
C341 C340 1.366 . S
C341 C345 1.385 . S
C342 H323 0.951 . S
C342 C340 1.388 . S
C342 C343 1.366 . S
C343 C342 1.366 . S
C343 C344 1.414 . S
C343 C346 1.499 . S
C344 H324 0.950 . S
C344 C343 1.414 . S
C344 C345 1.374 . S
C345 H325 0.950 . S
C345 C341 1.385 . S
C345 C344 1.374 . S
C346 C343 1.499 . S
C346 C347 1.373 . S
C346 C348 1.389 . S
C347 H326 0.950 . S
C347 C346 1.373 . S
C347 C363 1.377 . S
C348 C346 1.389 . S
C348 C349 1.524 . S
C348 C362 1.377 . S
C349 C348 1.524 . S
C349 C350 1.397 . S
C349 C354 1.363 . S
C350 H327 0.950 . S
C350 C349 1.397 . S
C350 C351 1.334 . S
C351 H328 0.950 . S
C351 C350 1.334 . S
C351 C352 1.287 . S
C352 C351 1.287 . S
C352 C353 1.524 . S
C352 H371 0.913 . S
C353 H329 0.950 . S
C353 C352 1.524 . S
C353 C354 1.415 . S
C354 H330 0.950 . S
C354 C349 1.363 . S
C354 C353 1.415 . S
C355 H331 0.951 . S
C355 C356 1.366 . S
C355 C357 1.388 . S
C356 C355 1.366 . S
C356 C360 1.385 . S
C357 H332 0.951 . S
C357 C355 1.388 . S
C357 C358 1.366 . S
C358 C357 1.366 . S
C358 C359 1.414 . S
C358 C361 1.499 . S
C359 H333 0.950 . S
C359 C358 1.414 . S
C359 C360 1.374 . S
C360 H334 0.950 . S
C360 C356 1.385 . S
C360 C359 1.374 . S
C361 C358 1.499 . S
C361 C362 1.373 . S
C361 C363 1.389 . S
C362 H335 0.950 . S
C362 C348 1.377 . S
C362 C361 1.373 . S
C363 C347 1.377 . S
C363 C361 1.389 . S
C363 C364 1.524 . S
C364 C363 1.524 . S
C364 C365 1.397 . S
C364 C369 1.363 . S
C365 H336 0.950 . S
C365 C364 1.397 . S
C365 C366 1.334 . S
C366 H337 0.950 . S
C366 C365 1.334 . S
C366 C367 1.287 . S
C367 C366 1.287 . S
C367 C368 1.524 . S
C367 H370 0.999 . S
C368 H338 0.950 . S
C368 C367 1.524 . S
C368 C369 1.415 . S
C369 H339 0.950 . S
C369 C364 1.363 . S
C369 C368 1.415 . S
H370 C367 0.999 . S
H371 C352 0.913 . S
H372 C390 0.951 . S
H373 C392 0.951 . S
H374 C394 0.950 . S
H375 C395 0.950 . S
H376 C397 0.950 . S
H377 C400 0.950 . S
H378 C401 0.950 . S
H379 C403 0.950 . S
H380 C404 0.950 . S
H381 C405 0.951 . S
H382 C407 0.951 . S
H383 C409 0.950 . S
H384 C410 0.950 . S
H385 C412 0.950 . S
H386 C415 0.950 . S
H387 C416 0.950 . S
H388 C418 0.950 . S
H389 C419 0.950 . S
C390 H372 0.951 . S
C390 C391 1.366 . S
C390 C392 1.388 . S
C391 C390 1.366 . S
C391 C395 1.385 . S
C392 H373 0.951 . S
C392 C390 1.388 . S
C392 C393 1.366 . S
C393 C392 1.366 . S
C393 C394 1.414 . S
C393 C396 1.499 . S
C394 H374 0.950 . S
C394 C393 1.414 . S
C394 C395 1.374 . S
C395 H375 0.950 . S
C395 C391 1.385 . S
C395 C394 1.374 . S
C396 C393 1.499 . S
C396 C397 1.373 . S
C396 C398 1.389 . S
C397 H376 0.950 . S
C397 C396 1.373 . S
C397 C413 1.377 . S
C398 C396 1.389 . S
C398 C399 1.524 . S
C398 C412 1.377 . S
C399 C398 1.524 . S
C399 C400 1.397 . S
C399 C404 1.363 . S
C400 H377 0.950 . S
C400 C399 1.397 . S
C400 C401 1.334 . S
C401 H378 0.950 . S
C401 C400 1.334 . S
C401 C402 1.287 . S
C402 C401 1.287 . S
C402 C403 1.524 . S
C402 H421 0.913 . S
C403 H379 0.950 . S
C403 C402 1.524 . S
C403 C404 1.415 . S
C404 H380 0.950 . S
C404 C399 1.363 . S
C404 C403 1.415 . S
C405 H381 0.951 . S
C405 C406 1.366 . S
C405 C407 1.388 . S
C406 C405 1.366 . S
C406 C410 1.385 . S
C407 H382 0.951 . S
C407 C405 1.388 . S
C407 C408 1.366 . S
C408 C407 1.366 . S
C408 C409 1.414 . S
C408 C411 1.499 . S
C409 H383 0.950 . S
C409 C408 1.414 . S
C409 C410 1.374 . S
C410 H384 0.950 . S
C410 C406 1.385 . S
C410 C409 1.374 . S
C411 C408 1.499 . S
C411 C412 1.373 . S
C411 C413 1.389 . S
C412 H385 0.950 . S
C412 C398 1.377 . S
C412 C411 1.373 . S
C413 C397 1.377 . S
C413 C411 1.389 . S
C413 C414 1.524 . S
C414 C413 1.524 . S
C414 C415 1.397 . S
C414 C419 1.363 . S
C415 H386 0.950 . S
C415 C414 1.397 . S
C415 C416 1.334 . S
C416 H387 0.950 . S
C416 C415 1.334 . S
C416 C417 1.287 . S
C417 C416 1.287 . S
C417 C418 1.524 . S
C417 H420 0.999 . S
C418 H388 0.950 . S
C418 C417 1.524 . S
C418 C419 1.415 . S
C419 H389 0.950 . S
C419 C414 1.363 . S
C419 C418 1.415 . S
H420 C417 0.999 . S
H421 C402 0.913 . S
H422 C440 0.951 . S
H423 C442 0.951 . S
H424 C444 0.950 . S
H425 C445 0.950 . S
H426 C447 0.950 . S
H427 C450 0.950 . S
H428 C451 0.950 . S
H429 C453 0.950 . S
H430 C454 0.950 . S
H431 C455 0.951 . S
H432 C457 0.951 . S
H433 C459 0.950 . S
H434 C460 0.950 . S
H435 C462 0.950 . S
H436 C465 0.950 . S
H437 C466 0.950 . S
H438 C468 0.950 . S
H439 C469 0.950 . S
C440 H422 0.951 . S
C440 C441 1.366 . S
C440 C442 1.388 . S
C441 C440 1.366 . S
C441 C445 1.385 . S
C442 H423 0.951 . S
C442 C440 1.388 . S
C442 C443 1.366 . S
C443 C442 1.366 . S
C443 C444 1.414 . S
C443 C446 1.499 . S
C444 H424 0.950 . S
C444 C443 1.414 . S
C444 C445 1.374 . S
C445 H425 0.950 . S
C445 C441 1.385 . S
C445 C444 1.374 . S
C446 C443 1.499 . S
C446 C447 1.373 . S
C446 C448 1.389 . S
C447 H426 0.950 . S
C447 C446 1.373 . S
C447 C463 1.377 . S
C448 C446 1.389 . S
C448 C449 1.524 . S
C448 C462 1.377 . S
C449 C448 1.524 . S
C449 C450 1.397 . S
C449 C454 1.363 . S
C450 H427 0.950 . S
C450 C449 1.397 . S
C450 C451 1.334 . S
C451 H428 0.950 . S
C451 C450 1.334 . S
C451 C452 1.287 . S
C452 C451 1.287 . S
C452 C453 1.524 . S
C452 H471 0.913 . S
C453 H429 0.950 . S
C453 C452 1.524 . S
C453 C454 1.415 . S
C454 H430 0.950 . S
C454 C449 1.363 . S
C454 C453 1.415 . S
C455 H431 0.951 . S
C455 C456 1.366 . S
C455 C457 1.388 . S
C456 C455 1.366 . S
C456 C460 1.385 . S
C457 H432 0.951 . S
C457 C455 1.388 . S
C457 C458 1.366 . S
C458 C457 1.366 . S
C458 C459 1.414 . S
C458 C461 1.499 . S
C459 H433 0.950 . S
C459 C458 1.414 . S
C459 C460 1.374 . S
C460 H434 0.950 . S
C460 C456 1.385 . S
C460 C459 1.374 . S
C461 C458 1.499 . S
C461 C462 1.373 . S
C461 C463 1.389 . S
C462 H435 0.950 . S
C462 C448 1.377 . S
C462 C461 1.373 . S
C463 C447 1.377 . S
C463 C461 1.389 . S
C463 C464 1.524 . S
C464 C463 1.524 . S
C464 C465 1.397 . S
C464 C469 1.363 . S
C465 H436 0.950 . S
C465 C464 1.397 . S
C465 C466 1.334 . S
C466 H437 0.950 . S
C466 C465 1.334 . S
C466 C467 1.287 . S
C467 C466 1.287 . S
C467 C468 1.524 . S
C467 H470 0.999 . S
C468 H438 0.950 . S
C468 C467 1.524 . S
C468 C469 1.415 . S
C469 H439 0.950 . S
C469 C464 1.363 . S
C469 C468 1.415 . S
H470 C467 0.999 . S
H471 C452 0.913 . S
H472 C490 0.951 . S
H473 C492 0.951 . S
H474 C494 0.950 . S
H475 C495 0.950 . S
H476 C497 0.950 . S
H477 C500 0.950 . S
H478 C501 0.950 . S
H479 C503 0.950 . S
H480 C504 0.950 . S
H481 C505 0.951 . S
H482 C507 0.951 . S
H483 C509 0.950 1_565 S
H484 C510 0.950 . S
H485 C512 0.950 . S
H486 C515 0.950 . S
H487 C516 0.950 . S
H488 C518 0.950 . S
H489 C519 0.950 . S
C490 H472 0.951 . S
C490 C491 1.366 . S
C490 C492 1.388 . S
C491 C490 1.366 . S
C491 C495 1.385 . S
C492 H473 0.951 . S
C492 C490 1.388 . S
C492 C493 1.366 . S
C493 C492 1.366 . S
C493 C494 1.414 . S
C493 C496 1.499 . S
C494 H474 0.950 . S
C494 C493 1.414 . S
C494 C495 1.374 . S
C495 H475 0.950 . S
C495 C491 1.385 . S
C495 C494 1.374 . S
C496 C493 1.499 . S
C496 C497 1.373 . S
C496 C498 1.389 . S
C497 H476 0.950 . S
C497 C496 1.373 . S
C497 C513 1.377 . S
C498 C496 1.389 . S
C498 C499 1.524 . S
C498 C512 1.377 . S
C499 C498 1.524 . S
C499 C500 1.397 . S
C499 C504 1.363 . S
C500 H477 0.950 . S
C500 C499 1.397 . S
C500 C501 1.334 . S
C501 H478 0.950 . S
C501 C500 1.334 . S
C501 C502 1.287 . S
C502 C501 1.287 . S
C502 C503 1.524 . S
C502 H521 0.913 . S
C503 H479 0.950 . S
C503 C502 1.524 . S
C503 C504 1.415 . S
C504 H480 0.950 . S
C504 C499 1.363 . S
C504 C503 1.415 . S
C505 H481 0.951 . S
C505 C506 1.366 . S
C505 C507 1.388 . S
C506 C505 1.366 . S
C506 C510 1.385 . S
C507 H482 0.951 . S
C507 C505 1.388 . S
C507 C508 1.366 . S
C508 C507 1.366 . S
C508 C509 1.414 . S
C508 C511 1.499 1_545 S
C509 H483 0.950 1_545 S
C509 C508 1.414 . S
C509 C510 1.374 . S
C510 H484 0.950 . S
C510 C506 1.385 . S
C510 C509 1.374 . S
C511 C508 1.499 1_565 S
C511 C512 1.373 . S
C511 C513 1.389 . S
C512 H485 0.950 . S
C512 C498 1.377 . S
C512 C511 1.373 . S
C513 C497 1.377 . S
C513 C511 1.389 . S
C513 C514 1.524 . S
C514 C513 1.524 . S
C514 C515 1.397 . S
C514 C519 1.363 1_565 S
C515 H486 0.950 . S
C515 C514 1.397 . S
C515 C516 1.334 . S
C516 H487 0.950 . S
C516 C515 1.334 . S
C516 C517 1.287 . S
C517 C516 1.287 . S
C517 C518 1.524 1_565 S
C517 H520 0.999 . S
C518 H488 0.950 . S
C518 C517 1.524 1_545 S
C518 C519 1.415 . S
C519 H489 0.950 . S
C519 C514 1.363 1_545 S
C519 C518 1.415 . S
H520 C517 0.999 . S
H521 C502 0.913 . S
H522 C540 0.951 . S
H523 C542 0.951 . S
H524 C544 0.950 . S
H525 C545 0.950 . S
H526 C547 0.950 . S
H527 C550 0.950 . S
H528 C551 0.950 . S
H529 C553 0.950 . S
H530 C554 0.950 . S
H531 C555 0.951 . S
H532 C557 0.951 . S
H533 C559 0.950 . S
H534 C560 0.950 . S
H535 C562 0.950 . S
H536 C565 0.950 . S
H537 C566 0.950 . S
H538 C568 0.950 . S
H539 C569 0.950 . S
C540 H522 0.951 . S
C540 C541 1.366 . S
C540 C542 1.388 . S
C541 C540 1.366 . S
C541 C545 1.385 . S
C542 H523 0.951 . S
C542 C540 1.388 . S
C542 C543 1.366 . S
C543 C542 1.366 . S
C543 C544 1.414 . S
C543 C546 1.499 . S
C544 H524 0.950 . S
C544 C543 1.414 . S
C544 C545 1.374 . S
C545 H525 0.950 . S
C545 C541 1.385 . S
C545 C544 1.374 . S
C546 C543 1.499 . S
C546 C547 1.373 1_545 S
C546 C548 1.389 . S
C547 H526 0.950 . S
C547 C546 1.373 1_565 S
C547 C563 1.377 . S
C548 C546 1.389 . S
C548 C549 1.524 . S
C548 C562 1.377 1_545 S
C549 C548 1.524 . S
C549 C550 1.397 . S
C549 C554 1.363 . S
C550 H527 0.950 . S
C550 C549 1.397 . S
C550 C551 1.334 . S
C551 H528 0.950 . S
C551 C550 1.334 . S
C551 C552 1.287 . S
C552 C551 1.287 . S
C552 C553 1.524 . S
C552 H571 0.913 . S
C553 H529 0.950 . S
C553 C552 1.524 . S
C553 C554 1.415 . S
C554 H530 0.950 . S
C554 C549 1.363 . S
C554 C553 1.415 . S
C555 H531 0.951 . S
C555 C556 1.366 . S
C555 C557 1.388 . S
C556 C555 1.366 . S
C556 C560 1.385 . S
C557 H532 0.951 . S
C557 C555 1.388 . S
C557 C558 1.366 . S
C558 C557 1.366 . S
C558 C559 1.414 . S
C558 C561 1.499 . S
C559 H533 0.950 . S
C559 C558 1.414 . S
C559 C560 1.374 . S
C560 H534 0.950 . S
C560 C556 1.385 . S
C560 C559 1.374 . S
C561 C558 1.499 . S
C561 C562 1.373 . S
C561 C563 1.389 . S
C562 H535 0.950 . S
C562 C548 1.377 1_565 S
C562 C561 1.373 . S
C563 C547 1.377 . S
C563 C561 1.389 . S
C563 C564 1.524 . S
C564 C563 1.524 . S
C564 C565 1.397 . S
C564 C569 1.363 . S
C565 H536 0.950 . S
C565 C564 1.397 . S
C565 C566 1.334 . S
C566 H537 0.950 . S
C566 C565 1.334 . S
C566 C567 1.287 . S
C567 C566 1.287 . S
C567 C568 1.524 . S
C567 H570 0.999 . S
C568 H538 0.950 . S
C568 C567 1.524 . S
C568 C569 1.415 . S
C569 H539 0.950 . S
C569 C564 1.363 . S
C569 C568 1.415 . S
H570 C567 0.999 . S
H571 C552 0.913 . S
H572 C590 0.951 . S
H573 C592 0.951 . S
H574 C594 0.950 . S
H575 C595 0.950 . S
H576 C597 0.950 . S
H577 C600 0.950 . S
H578 C601 0.950 . S
H579 C603 0.982 . S
H580 C604 0.950 . S
H581 C605 0.951 . S
H582 C607 0.951 1_545 S
H583 C609 0.950 . S
H584 C610 0.950 . S
H585 C612 0.936 1_565 S
H586 C615 0.950 . S
H587 C616 0.950 . S
H588 C618 0.950 . S
H589 C619 0.950 . S
C590 H572 0.951 . S
C590 C591 1.366 . S
C590 C592 1.388 . S
C591 C590 1.366 . S
C591 C595 1.385 . S
C592 H573 0.951 . S
C592 C590 1.388 . S
C592 C593 1.366 . S
C593 C592 1.366 . S
C593 C594 1.414 . S
C593 C596 1.499 . S
C594 H574 0.950 . S
C594 C593 1.414 . S
C594 C595 1.374 . S
C595 H575 0.950 . S
C595 C591 1.385 . S
C595 C594 1.374 . S
C596 C593 1.499 . S
C596 C597 1.373 . S
C596 C598 1.389 . S
C597 H576 0.950 . S
C597 C596 1.373 . S
C597 C613 1.377 . S
C598 C596 1.389 . S
C598 C599 1.524 . S
C598 C612 1.393 . S
C599 C598 1.524 . S
C599 C600 1.397 . S
C599 C604 1.363 1_545 S
C600 H577 0.950 . S
C600 C599 1.397 . S
C600 C601 1.334 . S
C601 H578 0.950 . S
C601 C600 1.334 . S
C601 C602 1.287 . S
C602 C601 1.287 . S
C602 C603 1.484 1_545 S
C602 H621 0.913 . S
C603 H579 0.982 . S
C603 C602 1.484 1_565 S
C603 C604 1.419 . S
C604 H580 0.950 . S
C604 C599 1.363 1_565 S
C604 C603 1.419 . S
C605 H581 0.951 . S
C605 C606 1.366 . S
C605 C607 1.388 . S
C606 C605 1.366 . S
C606 C610 1.385 . S
C607 H582 0.951 1_565 S
C607 C605 1.388 . S
C607 C608 1.366 . S
C608 C607 1.366 . S
C608 C609 1.414 . S
C608 C611 1.499 . S
C609 H583 0.950 . S
C609 C608 1.414 . S
C609 C610 1.374 . S
C610 H584 0.950 . S
C610 C606 1.385 . S
C610 C609 1.374 . S
C611 C608 1.499 . S
C611 C612 1.371 1_565 S
C611 C613 1.389 1_565 S
C612 H585 0.936 1_545 S
C612 C598 1.393 . S
C612 C611 1.371 1_545 S
C613 C597 1.377 . S
C613 C611 1.389 1_545 S
C613 C614 1.524 . S
C614 C613 1.524 . S
C614 C615 1.397 1_545 S
C614 C619 1.363 . S
C615 H586 0.950 . S
C615 C614 1.397 1_565 S
C615 C616 1.334 . S
C616 H587 0.950 . S
C616 C615 1.334 . S
C616 C617 1.305 . S
C617 C616 1.305 . S
C617 C618 1.502 1_565 S
C617 H620 1.002 . S
C618 H588 0.950 . S
C618 C617 1.502 1_545 S
C618 C619 1.415 . S
C619 H589 0.950 . S
C619 C614 1.363 . S
C619 C618 1.415 . S
H620 C617 1.002 . S
H621 C602 0.913 . S
H622 C640 0.951 . S
H623 C642 0.951 . S
H624 C644 0.950 . S
H625 C645 0.950 . S
H626 C647 0.930 1_565 S
H627 C650 0.950 . S
H628 C651 0.950 . S
H629 C653 0.950 . S
H630 C654 0.950 . S
H631 C655 0.951 . S
H632 C657 0.951 . S
H633 C659 0.950 1_545 S
H634 C660 0.950 . S
H635 C662 0.950 . S
H636 C665 0.950 . S
H637 C666 0.950 . S
H638 C668 0.950 . S
H639 C669 0.950 . S
C640 H622 0.951 . S
C640 C641 1.366 . S
C640 C642 1.388 . S
C641 C640 1.366 . S
C641 C645 1.385 . S
C642 H623 0.951 . S
C642 C640 1.388 . S
C642 C643 1.366 . S
C643 C642 1.366 . S
C643 C644 1.414 . S
C643 C646 1.499 . S
C644 H624 0.950 . S
C644 C643 1.414 . S
C644 C645 1.374 . S
C645 H625 0.950 . S
C645 C641 1.385 . S
C645 C644 1.374 . S
C646 C643 1.499 . S
C646 C647 1.416 . S
C646 C648 1.389 . S
C647 H626 0.930 1_545 S
C647 C646 1.416 . S
C647 C663 1.355 1_545 S
C648 C646 1.389 . S
C648 C649 1.524 . S
C648 C662 1.377 . S
C649 C648 1.524 . S
C649 C650 1.397 . S
C649 C654 1.363 . S
C650 H627 0.950 . S
C650 C649 1.397 . S
C650 C651 1.334 . S
C651 H628 0.950 . S
C651 C650 1.334 . S
C651 C652 1.287 . S
C652 C651 1.287 . S
C652 C653 1.524 . S
C652 H671 0.913 . S
C653 H629 0.950 . S
C653 C652 1.524 . S
C653 C654 1.415 . S
C654 H630 0.950 . S
C654 C649 1.363 . S
C654 C653 1.415 . S
C655 H631 0.951 . S
C655 C656 1.366 . S
C655 C657 1.388 . S
C656 C655 1.366 . S
C656 C660 1.385 . S
C657 H632 0.951 . S
C657 C655 1.388 . S
C657 C658 1.366 . S
C658 C657 1.366 . S
C658 C659 1.414 . S
C658 C661 1.505 . S
C659 H633 0.950 1_565 S
C659 C658 1.414 . S
C659 C660 1.374 . S
C660 H634 0.950 . S
C660 C656 1.385 . S
C660 C659 1.374 . S
C661 C658 1.505 . S
C661 C662 1.362 1_565 S
C661 C663 1.395 . S
C662 H635 0.950 . S
C662 C648 1.377 . S
C662 C661 1.362 1_545 S
C663 C647 1.355 1_565 S
C663 C661 1.395 . S
C663 C664 1.524 . S
C664 C663 1.524 . S
C664 C665 1.397 . S
C664 C669 1.363 . S
C665 H636 0.950 . S
C665 C664 1.397 . S
C665 C666 1.334 . S
C666 H637 0.950 . S
C666 C665 1.334 . S
C666 C667 1.287 . S
C667 C666 1.287 . S
C667 C668 1.524 . S
C667 H670 0.999 . S
C668 H638 0.950 . S
C668 C667 1.524 . S
C668 C669 1.415 . S
C669 H639 0.950 . S
C669 C664 1.363 . S
C669 C668 1.415 . S
H670 C667 0.999 . S
H671 C652 0.913 . S
H672 C690 0.951 . S
H673 C692 0.951 . S
H674 C694 0.950 . S
H675 C695 0.950 . S
H676 C697 0.950 . S
H677 C700 0.950 . S
H678 C701 0.950 . S
H679 C703 0.950 . S
H680 C704 0.950 . S
H681 C705 0.951 . S
H682 C707 0.951 . S
H683 C709 0.950 . S
H684 C710 0.950 . S
H685 C712 0.950 . S
H686 C715 0.950 . S
H687 C716 0.950 . S
H688 C718 0.950 . S
H689 C719 0.950 . S
C690 H672 0.951 . S
C690 C691 1.366 . S
C690 C692 1.388 . S
C691 C690 1.366 . S
C691 C695 1.385 1_554 S
C692 H673 0.951 . S
C692 C690 1.388 . S
C692 C693 1.366 . S
C693 C692 1.366 . S
C693 C694 1.414 1_554 S
C693 C696 1.499 . S
C694 H674 0.950 . S
C694 C693 1.414 1_556 S
C694 C695 1.374 . S
C695 H675 0.950 . S
C695 C691 1.385 1_556 S
C695 C694 1.374 . S
C696 C693 1.499 . S
C696 C697 1.373 1_554 S
C696 C698 1.389 . S
C697 H676 0.950 . S
C697 C696 1.373 1_556 S
C697 C713 1.377 . S
C698 C696 1.389 . S
C698 C699 1.524 . S
C698 C712 1.377 . S
C699 C698 1.524 . S
C699 C700 1.397 . S
C699 C704 1.363 . S
C700 H677 0.950 . S
C700 C699 1.397 . S
C700 C701 1.334 . S
C701 H678 0.950 . S
C701 C700 1.334 . S
C701 C702 1.287 . S
C702 C701 1.287 . S
C702 C703 1.524 . S
C702 H721 0.913 . S
C703 H679 0.950 . S
C703 C702 1.524 . S
C703 C704 1.415 . S
C704 H680 0.950 . S
C704 C699 1.363 . S
C704 C703 1.415 . S
C705 H681 0.951 . S
C705 C706 1.366 . S
C705 C707 1.388 . S
C706 C705 1.366 . S
C706 C710 1.385 1_556 S
C707 H682 0.951 . S
C707 C705 1.388 . S
C707 C708 1.366 . S
C708 C707 1.366 . S
C708 C709 1.414 1_556 S
C708 C711 1.499 . S
C709 H683 0.950 . S
C709 C708 1.414 1_554 S
C709 C710 1.374 . S
C710 H684 0.950 . S
C710 C706 1.385 1_554 S
C710 C709 1.374 . S
C711 C708 1.499 . S
C711 C712 1.373 1_556 S
C711 C713 1.389 . S
C712 H685 0.950 . S
C712 C698 1.377 . S
C712 C711 1.373 1_554 S
C713 C697 1.377 . S
C713 C711 1.389 . S
C713 C714 1.524 . S
C714 C713 1.524 . S
C714 C715 1.397 . S
C714 C719 1.363 . S
C715 H686 0.950 . S
C715 C714 1.397 . S
C715 C716 1.334 . S
C716 H687 0.950 . S
C716 C715 1.334 . S
C716 C717 1.287 . S
C717 C716 1.287 . S
C717 C718 1.524 . S
C717 H720 0.999 . S
C718 H688 0.950 . S
C718 C717 1.524 . S
C718 C719 1.415 . S
C719 H689 0.950 . S
C719 C714 1.363 . S
C719 C718 1.415 . S
H720 C717 0.999 . S
H721 C702 0.913 . S
H722 C740 0.951 . S
H723 C742 0.951 . S
H724 C744 0.950 . S
H725 C745 0.950 . S
H726 C747 0.950 . S
H727 C750 0.950 . S
H728 C751 0.950 . S
H729 C753 0.950 . S
H730 C754 0.950 . S
H731 C755 0.951 . S
H732 C757 0.951 . S
H733 C759 0.950 . S
H734 C760 0.950 . S
H735 C762 0.950 . S
H736 C765 0.950 . S
H737 C766 0.950 . S
H738 C768 0.950 . S
H739 C769 0.950 . S
C740 H722 0.951 . S
C740 C741 1.366 . S
C740 C742 1.388 . S
C741 C740 1.366 . S
C741 C745 1.385 . S
C742 H723 0.951 . S
C742 C740 1.388 . S
C742 C743 1.366 . S
C743 C742 1.366 . S
C743 C744 1.414 . S
C743 C746 1.499 . S
C744 H724 0.950 . S
C744 C743 1.414 . S
C744 C745 1.374 . S
C745 H725 0.950 . S
C745 C741 1.385 . S
C745 C744 1.374 . S
C746 C743 1.499 . S
C746 C747 1.373 . S
C746 C748 1.389 . S
C747 H726 0.950 . S
C747 C746 1.373 . S
C747 C763 1.377 . S
C748 C746 1.389 . S
C748 C749 1.524 . S
C748 C762 1.377 . S
C749 C748 1.524 . S
C749 C750 1.397 . S
C749 C754 1.363 . S
C750 H727 0.950 . S
C750 C749 1.397 . S
C750 C751 1.334 . S
C751 H728 0.950 . S
C751 C750 1.334 . S
C751 C752 1.287 . S
C752 C751 1.287 . S
C752 C753 1.524 . S
C752 H771 0.913 . S
C753 H729 0.950 . S
C753 C752 1.524 . S
C753 C754 1.415 . S
C754 H730 0.950 . S
C754 C749 1.363 . S
C754 C753 1.415 . S
C755 H731 0.951 . S
C755 C756 1.366 . S
C755 C757 1.388 . S
C756 C755 1.366 . S
C756 C760 1.385 . S
C757 H732 0.951 . S
C757 C755 1.388 . S
C757 C758 1.366 . S
C758 C757 1.366 . S
C758 C759 1.414 . S
C758 C761 1.499 . S
C759 H733 0.950 . S
C759 C758 1.414 . S
C759 C760 1.374 . S
C760 H734 0.950 . S
C760 C756 1.385 . S
C760 C759 1.374 . S
C761 C758 1.499 . S
C761 C762 1.373 . S
C761 C763 1.389 . S
C762 H735 0.950 . S
C762 C748 1.377 . S
C762 C761 1.373 . S
C763 C747 1.377 . S
C763 C761 1.389 . S
C763 C764 1.524 . S
C764 C763 1.524 . S
C764 C765 1.397 . S
C764 C769 1.363 . S
C765 H736 0.950 . S
C765 C764 1.397 . S
C765 C766 1.334 . S
C766 H737 0.950 . S
C766 C765 1.334 . S
C766 C767 1.287 . S
C767 C766 1.287 . S
C767 C768 1.524 . S
C767 H770 0.999 . S
C768 H738 0.950 . S
C768 C767 1.524 . S
C768 C769 1.415 . S
C769 H739 0.950 . S
C769 C764 1.363 . S
C769 C768 1.415 . S
H770 C767 0.999 . S
H771 C752 0.913 . S
H772 C790 0.951 . S
H773 C792 0.951 . S
H774 C794 0.950 . S
H775 C795 0.950 . S
H776 C797 0.950 . S
H777 C800 0.950 . S
H778 C801 0.950 . S
H779 C803 0.950 . S
H780 C804 0.950 . S
H781 C805 0.951 . S
H782 C807 0.951 . S
H783 C809 0.950 . S
H784 C810 0.950 . S
H785 C812 0.950 . S
H786 C815 0.950 . S
H787 C816 0.950 . S
H788 C818 0.950 . S
H789 C819 0.950 . S
C790 H772 0.951 . S
C790 C791 1.366 . S
C790 C792 1.388 . S
C791 C790 1.366 . S
C791 C795 1.385 1_556 S
C792 H773 0.951 . S
C792 C790 1.388 . S
C792 C793 1.366 . S
C793 C792 1.366 . S
C793 C794 1.414 1_556 S
C793 C796 1.499 . S
C794 H774 0.950 . S
C794 C793 1.414 1_554 S
C794 C795 1.374 . S
C795 H775 0.950 . S
C795 C791 1.385 1_554 S
C795 C794 1.374 . S
C796 C793 1.499 . S
C796 C797 1.373 1_546 S
C796 C798 1.385 . S
C797 H776 0.950 . S
C797 C796 1.373 1_564 S
C797 C813 1.382 1_455 S
C798 C796 1.385 . S
C798 C799 1.524 1_455 S
C798 C812 1.382 1_455 S
C799 C798 1.524 1_655 S
C799 C800 1.397 1_655 S
C799 C804 1.363 . S
C800 H777 0.950 . S
C800 C799 1.397 1_455 S
C800 C801 1.334 . S
C801 H778 0.950 . S
C801 C800 1.334 . S
C801 C802 1.287 1_455 S
C802 C801 1.287 1_655 S
C802 C803 1.524 . S
C802 H821 0.913 . S
C803 H779 0.950 . S
C803 C802 1.524 . S
C803 C804 1.415 . S
C804 H780 0.950 . S
C804 C799 1.363 . S
C804 C803 1.415 . S
C805 H781 0.951 . S
C805 C806 1.366 . S
C805 C807 1.388 . S
C806 C805 1.366 . S
C806 C810 1.385 1_554 S
C807 H782 0.951 . S
C807 C805 1.388 . S
C807 C808 1.366 . S
C808 C807 1.366 . S
C808 C809 1.414 1_554 S
C808 C811 1.499 . S
C809 H783 0.950 . S
C809 C808 1.414 1_556 S
C809 C810 1.374 . S
C810 H784 0.950 . S
C810 C806 1.385 1_556 S
C810 C809 1.374 . S
C811 C808 1.499 . S
C811 C812 1.373 1_564 S
C811 C813 1.385 . S
C812 H785 0.950 . S
C812 C798 1.382 1_655 S
C812 C811 1.373 1_546 S
C813 C797 1.382 1_655 S
C813 C811 1.385 . S
C813 C814 1.524 1_655 S
C814 C813 1.524 1_455 S
C814 C815 1.397 1_455 S
C814 C819 1.363 . S
C815 H786 0.950 . S
C815 C814 1.397 1_655 S
C815 C816 1.334 . S
C816 H787 0.950 . S
C816 C815 1.334 . S
C816 C817 1.287 1_655 S
C817 C816 1.287 1_455 S
C817 C818 1.524 . S
C817 H820 0.999 . S
C818 H788 0.950 . S
C818 C817 1.524 . S
C818 C819 1.415 . S
C819 H789 0.950 . S
C819 C814 1.363 . S
C819 C818 1.415 . S
H820 C817 0.999 . S
H821 C802 0.913 . S
H822 C840 0.960 . S
H823 C842 0.951 1_565 S
H824 C844 0.950 . S
H825 C845 0.950 . S
H826 C847 0.950 . S
H827 C850 0.950 . S
H828 C851 0.950 . S
H829 C853 0.950 . S
H830 C854 0.950 . S
H831 C855 0.960 . S
H832 C857 0.951 1_545 S
H833 C859 0.950 . S
H834 C860 0.950 . S
H835 C862 0.950 . S
H836 C865 0.950 . S
H837 C866 0.950 . S
H838 C868 0.950 . S
H839 C869 0.950 . S
C840 H822 0.960 . S
C840 C841 1.366 . S
C840 C842 1.388 . S
C841 C840 1.366 . S
C841 C845 1.385 . S
C842 H823 0.951 1_545 S
C842 C840 1.388 . S
C842 C843 1.366 . S
C843 C842 1.366 . S
C843 C844 1.414 . S
C843 C846 1.499 . S
C844 H824 0.950 . S
C844 C843 1.414 . S
C844 C845 1.374 . S
C845 H825 0.950 . S
C845 C841 1.385 . S
C845 C844 1.374 . S
C846 C843 1.499 . S
C846 C847 1.373 . S
C846 C848 1.389 1_545 S
C847 H826 0.950 . S
C847 C846 1.373 . S
C847 C863 1.377 1_655 S
C848 C846 1.389 1_565 S
C848 C849 1.524 . S
C848 C862 1.377 1_655 S
C849 C848 1.524 . S
C849 C850 1.397 . S
C849 C854 1.363 . S
C850 H827 0.950 . S
C850 C849 1.397 . S
C850 C851 1.334 . S
C851 H828 0.950 . S
C851 C850 1.334 . S
C851 C852 1.287 . S
C852 C851 1.287 . S
C852 C853 1.524 . S
C852 H871 0.913 . S
C853 H829 0.950 . S
C853 C852 1.524 . S
C853 C854 1.415 . S
C854 H830 0.950 . S
C854 C849 1.363 . S
C854 C853 1.415 . S
C855 H831 0.960 . S
C855 C856 1.366 . S
C855 C857 1.388 . S
C856 C855 1.366 . S
C856 C860 1.385 . S
C857 H832 0.951 1_565 S
C857 C855 1.388 . S
C857 C858 1.366 . S
C858 C857 1.366 . S
C858 C859 1.414 . S
C858 C861 1.499 . S
C859 H833 0.950 . S
C859 C858 1.414 . S
C859 C860 1.374 . S
C860 H834 0.950 . S
C860 C856 1.385 . S
C860 C859 1.374 . S
C861 C858 1.499 . S
C861 C862 1.373 . S
C861 C863 1.389 1_565 S
C862 H835 0.950 . S
C862 C848 1.377 1_455 S
C862 C861 1.373 . S
C863 C847 1.377 1_455 S
C863 C861 1.389 1_545 S
C863 C864 1.524 . S
C864 C863 1.524 . S
C864 C865 1.397 . S
C864 C869 1.363 . S
C865 H836 0.950 . S
C865 C864 1.397 . S
C865 C866 1.334 . S
C866 H837 0.950 . S
C866 C865 1.334 . S
C866 C867 1.287 . S
C867 C866 1.287 . S
C867 C868 1.524 . S
C867 H870 0.999 . S
C868 H838 0.950 . S
C868 C867 1.524 . S
C868 C869 1.415 . S
C869 H839 0.950 . S
C869 C864 1.363 . S
C869 C868 1.415 . S
H870 C867 0.999 . S
H871 C852 0.913 . S
H872 C890 0.951 . S
H873 C892 0.951 . S
H874 C894 0.950 . S
H875 C895 0.950 . S
H876 C897 0.950 . S
H877 C900 0.957 . S
H878 C901 0.950 1_556 S
H879 C903 0.950 . S
H880 C904 0.950 . S
H881 C905 0.951 . S
H882 C907 0.951 . S
H883 C909 0.950 . S
H884 C910 0.950 . S
H885 C912 0.950 . S
H886 C915 0.957 . S
H887 C916 0.950 1_554 S
H888 C918 0.950 . S
H889 C919 0.950 . S
C890 H872 0.951 . S
C890 C891 1.366 . S
C890 C892 1.388 . S
C891 C890 1.366 . S
C891 C895 1.385 1_554 S
C892 H873 0.951 . S
C892 C890 1.388 . S
C892 C893 1.366 . S
C893 C892 1.366 . S
C893 C894 1.414 1_554 S
C893 C896 1.499 . S
C894 H874 0.950 . S
C894 C893 1.414 1_556 S
C894 C895 1.374 . S
C895 H875 0.950 . S
C895 C891 1.385 1_556 S
C895 C894 1.374 . S
C896 C893 1.499 . S
C896 C897 1.373 1_554 S
C896 C898 1.389 . S
C897 H876 0.950 . S
C897 C896 1.373 1_556 S
C897 C913 1.377 . S
C898 C896 1.389 . S
C898 C899 1.524 . S
C898 C912 1.377 . S
C899 C898 1.524 . S
C899 C900 1.389 1_554 S
C899 C904 1.363 . S
C900 H877 0.957 . S
C900 C899 1.389 1_556 S
C900 C901 1.335 1_556 S
C901 H878 0.950 1_554 S
C901 C900 1.335 1_554 S
C901 C902 1.287 . S
C902 C901 1.287 . S
C902 C903 1.524 . S
C902 H921 0.913 . S
C903 H879 0.950 . S
C903 C902 1.524 . S
C903 C904 1.415 . S
C904 H880 0.950 . S
C904 C899 1.363 . S
C904 C903 1.415 . S
C905 H881 0.951 . S
C905 C906 1.366 . S
C905 C907 1.388 . S
C906 C905 1.366 . S
C906 C910 1.385 1_556 S
C907 H882 0.951 . S
C907 C905 1.388 . S
C907 C908 1.366 . S
C908 C907 1.366 . S
C908 C909 1.414 1_556 S
C908 C911 1.499 . S
C909 H883 0.950 . S
C909 C908 1.414 1_554 S
C909 C910 1.374 . S
C910 H884 0.950 . S
C910 C906 1.385 1_554 S
C910 C909 1.374 . S
C911 C908 1.499 . S
C911 C912 1.373 1_556 S
C911 C913 1.389 . S
C912 H885 0.950 . S
C912 C898 1.377 . S
C912 C911 1.373 1_554 S
C913 C897 1.377 . S
C913 C911 1.389 . S
C913 C914 1.524 . S
C914 C913 1.524 . S
C914 C915 1.389 1_556 S
C914 C919 1.363 . S
C915 H886 0.957 . S
C915 C914 1.389 1_554 S
C915 C916 1.335 1_554 S
C916 H887 0.950 1_556 S
C916 C915 1.335 1_556 S
C916 C917 1.287 . S
C917 C916 1.287 . S
C917 C918 1.524 . S
C917 H920 0.999 . S
C918 H888 0.950 . S
C918 C917 1.524 . S
C918 C919 1.415 . S
C919 H889 0.950 . S
C919 C914 1.363 . S
C919 C918 1.415 . S
H920 C917 0.999 . S
H921 C902 0.913 . S
H922 C940 0.951 . S
H923 C942 0.951 . S
H924 C944 0.950 . S
H925 C945 0.950 . S
H926 C947 0.950 . S
H927 C950 0.950 . S
H928 C951 0.950 . S
H929 C953 0.950 . S
H930 C954 0.950 . S
H931 C955 0.951 . S
H932 C957 0.951 . S
H933 C959 0.950 . S
H934 C960 0.950 . S
H935 C962 0.950 . S
H936 C965 0.950 . S
H937 C966 0.950 . S
H938 C968 0.950 . S
H939 C969 0.950 . S
C940 H922 0.951 . S
C940 C941 1.366 . S
C940 C942 1.388 . S
C941 C940 1.366 . S
C941 C945 1.385 . S
C942 H923 0.951 . S
C942 C940 1.388 . S
C942 C943 1.366 . S
C943 C942 1.366 . S
C943 C944 1.414 . S
C943 C946 1.499 . S
C944 H924 0.950 . S
C944 C943 1.414 . S
C944 C945 1.374 . S
C945 H925 0.950 . S
C945 C941 1.385 . S
C945 C944 1.374 . S
C946 C943 1.499 . S
C946 C947 1.373 . S
C946 C948 1.389 . S
C947 H926 0.950 . S
C947 C946 1.373 . S
C947 C963 1.377 . S
C948 C946 1.389 . S
C948 C949 1.524 . S
C948 C962 1.377 . S
C949 C948 1.524 . S
C949 C950 1.397 . S
C949 C954 1.363 . S
C950 H927 0.950 . S
C950 C949 1.397 . S
C950 C951 1.334 . S
C951 H928 0.950 . S
C951 C950 1.334 . S
C951 C952 1.287 . S
C952 C951 1.287 . S
C952 C953 1.524 . S
C952 H971 0.913 . S
C953 H929 0.950 . S
C953 C952 1.524 . S
C953 C954 1.415 . S
C954 H930 0.950 . S
C954 C949 1.363 . S
C954 C953 1.415 . S
C955 H931 0.951 . S
C955 C956 1.366 . S
C955 C957 1.388 . S
C956 C955 1.366 . S
C956 C960 1.385 . S
C957 H932 0.951 . S
C957 C955 1.388 . S
C957 C958 1.366 . S
C958 C957 1.366 . S
C958 C959 1.414 . S
C958 C961 1.499 . S
C959 H933 0.950 . S
C959 C958 1.414 . S
C959 C960 1.374 . S
C960 H934 0.950 . S
C960 C956 1.385 . S
C960 C959 1.374 . S
C961 C958 1.499 . S
C961 C962 1.373 . S
C961 C963 1.389 . S
C962 H935 0.950 . S
C962 C948 1.377 . S
C962 C961 1.373 . S
C963 C947 1.377 . S
C963 C961 1.389 . S
C963 C964 1.524 . S
C964 C963 1.524 . S
C964 C965 1.397 . S
C964 C969 1.363 . S
C965 H936 0.950 . S
C965 C964 1.397 . S
C965 C966 1.334 . S
C966 H937 0.950 . S
C966 C965 1.334 . S
C966 C967 1.287 . S
C967 C966 1.287 . S
C967 C968 1.524 . S
C967 H970 0.999 . S
C968 H938 0.950 . S
C968 C967 1.524 . S
C968 C969 1.415 . S
C969 H939 0.950 . S
C969 C964 1.363 . S
C969 C968 1.415 . S
H970 C967 0.999 . S
H971 C952 0.913 . S
H972 C990 0.951 . S
H973 C992 0.951 . S
H974 C994 0.950 . S
H975 C995 0.950 . S
H976 C997 0.950 . S
H977 C1000 0.950 . S
H978 C1001 0.950 . S
H979 C1003 0.950 . S
H980 C1004 0.950 . S
H981 C1005 0.951 . S
H982 C1007 0.951 . S
H983 C1009 0.950 . S
H984 C1010 0.950 . S
H985 C1012 0.950 . S
H986 C1015 0.950 . S
H987 C1016 0.950 . S
H988 C1018 0.950 . S
H989 C1019 0.950 . S
C990 H972 0.951 . S
C990 C991 1.366 . S
C990 C992 1.388 . S
C991 C990 1.366 . S
C991 C995 1.385 1_554 S
C992 H973 0.951 . S
C992 C990 1.388 . S
C992 C993 1.366 . S
C993 C992 1.366 . S
C993 C994 1.414 1_554 S
C993 C996 1.499 . S
C994 H974 0.950 . S
C994 C993 1.414 1_556 S
C994 C995 1.374 . S
C995 H975 0.950 . S
C995 C991 1.385 1_556 S
C995 C994 1.374 . S
C996 C993 1.499 . S
C996 C997 1.373 1_554 S
C996 C998 1.389 . S
C997 H976 0.950 . S
C997 C996 1.373 1_556 S
C997 C1013 1.377 . S
C998 C996 1.389 . S
C998 C999 1.524 . S
C998 C1012 1.377 . S
C999 C998 1.524 . S
C999 C1000 1.397 1_554 S
C999 C1004 1.363 . S
C1000 H977 0.950 . S
C1000 C999 1.397 1_556 S
C1000 C1001 1.334 . S
C1001 H978 0.950 . S
C1001 C1000 1.334 . S
C1001 C1002 1.287 1_556 S
C1002 C1001 1.287 1_554 S
C1002 C1003 1.524 . S
C1002 H1021 0.913 . S
C1003 H979 0.950 . S
C1003 C1002 1.524 . S
C1003 C1004 1.415 . S
C1004 H980 0.950 . S
C1004 C999 1.363 . S
C1004 C1003 1.415 . S
C1005 H981 0.951 . S
C1005 C1006 1.366 . S
C1005 C1007 1.388 . S
C1006 C1005 1.366 . S
C1006 C1010 1.385 1_556 S
C1007 H982 0.951 . S
C1007 C1005 1.388 . S
C1007 C1008 1.366 . S
C1008 C1007 1.366 . S
C1008 C1009 1.414 1_556 S
C1008 C1011 1.499 . S
C1009 H983 0.950 . S
C1009 C1008 1.414 1_554 S
C1009 C1010 1.374 . S
C1010 H984 0.950 . S
C1010 C1006 1.385 1_554 S
C1010 C1009 1.374 . S
C1011 C1008 1.499 . S
C1011 C1012 1.373 1_556 S
C1011 C1013 1.389 . S
C1012 H985 0.950 . S
C1012 C998 1.377 . S
C1012 C1011 1.373 1_554 S
C1013 C997 1.377 . S
C1013 C1011 1.389 . S
C1013 C1014 1.524 . S
C1014 C1013 1.524 . S
C1014 C1015 1.397 1_556 S
C1014 C1019 1.363 . S
C1015 H986 0.950 . S
C1015 C1014 1.397 1_554 S
C1015 C1016 1.334 . S
C1016 H987 0.950 . S
C1016 C1015 1.334 . S
C1016 C1017 1.287 1_554 S
C1017 C1016 1.287 1_556 S
C1017 C1018 1.524 . S
C1017 H1020 0.999 . S
C1018 H988 0.950 . S
C1018 C1017 1.524 . S
C1018 C1019 1.415 . S
C1019 H989 0.950 . S
C1019 C1014 1.363 . S
C1019 C1018 1.415 . S
H1020 C1017 0.999 . S
H1021 C1002 0.913 . S
H1022 C1040 0.951 . S
H1023 C1042 0.951 . S
H1024 C1044 0.950 . S
H1025 C1045 0.950 . S
H1026 C1047 0.950 . S
H1027 C1050 0.950 . S
H1028 C1051 0.950 . S
H1029 C1053 0.950 . S
H1030 C1054 0.950 . S
H1031 C1055 0.951 . S
H1032 C1057 0.951 . S
H1033 C1059 0.950 . S
H1034 C1060 0.950 . S
H1035 C1062 0.950 . S
H1036 C1065 0.950 . S
H1037 C1066 0.950 . S
H1038 C1068 0.950 . S
H1039 C1069 0.950 . S
C1040 H1022 0.951 . S
C1040 C1041 1.366 . S
C1040 C1042 1.388 . S
C1041 C1040 1.366 . S
C1041 C1045 1.385 . S
C1042 H1023 0.951 . S
C1042 C1040 1.388 . S
C1042 C1043 1.366 . S
C1043 C1042 1.366 . S
C1043 C1044 1.414 . S
C1043 C1046 1.499 . S
C1044 H1024 0.950 . S
C1044 C1043 1.414 . S
C1044 C1045 1.374 . S
C1045 H1025 0.950 . S
C1045 C1041 1.385 . S
C1045 C1044 1.374 . S
C1046 C1043 1.499 . S
C1046 C1047 1.373 . S
C1046 C1048 1.389 . S
C1047 H1026 0.950 . S
C1047 C1046 1.373 . S
C1047 C1063 1.377 . S
C1048 C1046 1.389 . S
C1048 C1049 1.524 . S
C1048 C1062 1.377 . S
C1049 C1048 1.524 . S
C1049 C1050 1.397 . S
C1049 C1054 1.363 . S
C1050 H1027 0.950 . S
C1050 C1049 1.397 . S
C1050 C1051 1.334 . S
C1051 H1028 0.950 . S
C1051 C1050 1.334 . S
C1051 C1052 1.287 . S
C1052 C1051 1.287 . S
C1052 C1053 1.524 . S
C1052 H1071 0.913 . S
C1053 H1029 0.950 . S
C1053 C1052 1.524 . S
C1053 C1054 1.415 . S
C1054 H1030 0.950 . S
C1054 C1049 1.363 . S
C1054 C1053 1.415 . S
C1055 H1031 0.951 . S
C1055 C1056 1.366 . S
C1055 C1057 1.388 . S
C1056 C1055 1.366 . S
C1056 C1060 1.385 . S
C1057 H1032 0.951 . S
C1057 C1055 1.388 . S
C1057 C1058 1.366 . S
C1058 C1057 1.366 . S
C1058 C1059 1.414 . S
C1058 C1061 1.499 . S
C1059 H1033 0.950 . S
C1059 C1058 1.414 . S
C1059 C1060 1.374 . S
C1060 H1034 0.950 . S
C1060 C1056 1.385 . S
C1060 C1059 1.374 . S
C1061 C1058 1.499 . S
C1061 C1062 1.373 . S
C1061 C1063 1.389 . S
C1062 H1035 0.950 . S
C1062 C1048 1.377 . S
C1062 C1061 1.373 . S
C1063 C1047 1.377 . S
C1063 C1061 1.389 . S
C1063 C1064 1.524 . S
C1064 C1063 1.524 . S
C1064 C1065 1.397 . S
C1064 C1069 1.363 . S
C1065 H1036 0.950 . S
C1065 C1064 1.397 . S
C1065 C1066 1.334 . S
C1066 H1037 0.950 . S
C1066 C1065 1.334 . S
C1066 C1067 1.287 . S
C1067 C1066 1.287 . S
C1067 C1068 1.524 . S
C1067 H1070 0.999 . S
C1068 H1038 0.950 . S
C1068 C1067 1.524 . S
C1068 C1069 1.415 . S
C1069 H1039 0.950 . S
C1069 C1064 1.363 . S
C1069 C1068 1.415 . S
H1070 C1067 0.999 . S
H1071 C1052 0.913 . S
H1072 C1090 0.951 . S
H1073 C1092 0.951 . S
H1074 C1094 0.950 . S
H1075 C1095 0.950 . S
H1076 C1097 0.950 . S
H1077 C1100 0.950 . S
H1078 C1101 0.950 . S
H1079 C1103 0.950 . S
H1080 C1104 0.950 . S
H1081 C1105 0.951 . S
H1082 C1107 0.951 . S
H1083 C1109 0.950 . S
H1084 C1110 0.950 . S
H1085 C1112 0.950 . S
H1086 C1115 0.950 . S
H1087 C1116 0.950 . S
H1088 C1118 0.950 . S
H1089 C1119 0.950 . S
C1090 H1072 0.951 . S
C1090 C1091 1.366 . S
C1090 C1092 1.388 . S
C1091 C1090 1.366 . S
C1091 C1095 1.385 . S
C1092 H1073 0.951 . S
C1092 C1090 1.388 . S
C1092 C1093 1.366 . S
C1093 C1092 1.366 . S
C1093 C1094 1.414 . S
C1093 C1096 1.499 . S
C1094 H1074 0.950 . S
C1094 C1093 1.414 . S
C1094 C1095 1.374 . S
C1095 H1075 0.950 . S
C1095 C1091 1.385 . S
C1095 C1094 1.374 . S
C1096 C1093 1.499 . S
C1096 C1097 1.373 . S
C1096 C1098 1.389 . S
C1097 H1076 0.950 . S
C1097 C1096 1.373 . S
C1097 C1113 1.377 . S
C1098 C1096 1.389 . S
C1098 C1099 1.524 . S
C1098 C1112 1.377 . S
C1099 C1098 1.524 . S
C1099 C1100 1.397 . S
C1099 C1104 1.363 . S
C1100 H1077 0.950 . S
C1100 C1099 1.397 . S
C1100 C1101 1.334 . S
C1101 H1078 0.950 . S
C1101 C1100 1.334 . S
C1101 C1102 1.287 . S
C1102 C1101 1.287 . S
C1102 C1103 1.524 . S
C1102 H1121 0.913 . S
C1103 H1079 0.950 . S
C1103 C1102 1.524 . S
C1103 C1104 1.415 . S
C1104 H1080 0.950 . S
C1104 C1099 1.363 . S
C1104 C1103 1.415 . S
C1105 H1081 0.951 . S
C1105 C1106 1.366 . S
C1105 C1107 1.388 . S
C1106 C1105 1.366 . S
C1106 C1110 1.385 . S
C1107 H1082 0.951 . S
C1107 C1105 1.388 . S
C1107 C1108 1.366 . S
C1108 C1107 1.366 . S
C1108 C1109 1.414 . S
C1108 C1111 1.499 . S
C1109 H1083 0.950 . S
C1109 C1108 1.414 . S
C1109 C1110 1.374 . S
C1110 H1084 0.950 . S
C1110 C1106 1.385 . S
C1110 C1109 1.374 . S
C1111 C1108 1.499 . S
C1111 C1112 1.373 . S
C1111 C1113 1.389 . S
C1112 H1085 0.950 . S
C1112 C1098 1.377 . S
C1112 C1111 1.373 . S
C1113 C1097 1.377 . S
C1113 C1111 1.389 . S
C1113 C1114 1.524 . S
C1114 C1113 1.524 . S
C1114 C1115 1.397 . S
C1114 C1119 1.363 . S
C1115 H1086 0.950 . S
C1115 C1114 1.397 . S
C1115 C1116 1.334 . S
C1116 H1087 0.950 . S
C1116 C1115 1.334 . S
C1116 C1117 1.287 . S
C1117 C1116 1.287 . S
C1117 C1118 1.524 . S
C1117 H1120 0.999 . S
C1118 H1088 0.950 . S
C1118 C1117 1.524 . S
C1118 C1119 1.415 . S
C1119 H1089 0.950 . S
C1119 C1114 1.363 . S
C1119 C1118 1.415 . S
H1120 C1117 0.999 . S
H1121 C1102 0.913 . S
H1122 C1140 0.951 . S
H1123 C1142 0.951 . S
H1124 C1144 0.950 . S
H1125 C1145 0.950 . S
H1126 C1147 0.950 . S
H1127 C1150 0.950 . S
H1128 C1151 0.950 . S
H1129 C1153 0.950 . S
H1130 C1154 0.950 . S
H1131 C1155 0.951 . S
H1132 C1157 0.951 . S
H1133 C1159 0.950 . S
H1134 C1160 0.950 . S
H1135 C1162 0.950 . S
H1136 C1165 0.950 . S
H1137 C1166 0.950 . S
H1138 C1168 0.950 . S
H1139 C1169 0.950 . S
C1140 H1122 0.951 . S
C1140 C1141 1.366 . S
C1140 C1142 1.388 . S
C1141 C1140 1.366 . S
C1141 C1145 1.385 . S
C1142 H1123 0.951 . S
C1142 C1140 1.388 . S
C1142 C1143 1.366 . S
C1143 C1142 1.366 . S
C1143 C1144 1.414 . S
C1143 C1146 1.499 . S
C1144 H1124 0.950 . S
C1144 C1143 1.414 . S
C1144 C1145 1.374 . S
C1145 H1125 0.950 . S
C1145 C1141 1.385 . S
C1145 C1144 1.374 . S
C1146 C1143 1.499 . S
C1146 C1147 1.373 . S
C1146 C1148 1.389 . S
C1147 H1126 0.950 . S
C1147 C1146 1.373 . S
C1147 C1163 1.377 . S
C1148 C1146 1.389 . S
C1148 C1149 1.524 . S
C1148 C1162 1.377 . S
C1149 C1148 1.524 . S
C1149 C1150 1.397 . S
C1149 C1154 1.363 . S
C1150 H1127 0.950 . S
C1150 C1149 1.397 . S
C1150 C1151 1.334 . S
C1151 H1128 0.950 . S
C1151 C1150 1.334 . S
C1151 C1152 1.287 . S
C1152 C1151 1.287 . S
C1152 C1153 1.524 . S
C1152 H1171 0.913 . S
C1153 H1129 0.950 . S
C1153 C1152 1.524 . S
C1153 C1154 1.415 . S
C1154 H1130 0.950 . S
C1154 C1149 1.363 . S
C1154 C1153 1.415 . S
C1155 H1131 0.951 . S
C1155 C1156 1.366 . S
C1155 C1157 1.388 . S
C1156 C1155 1.366 . S
C1156 C1160 1.385 . S
C1157 H1132 0.951 . S
C1157 C1155 1.388 . S
C1157 C1158 1.366 . S
C1158 C1157 1.366 . S
C1158 C1159 1.414 . S
C1158 C1161 1.499 . S
C1159 H1133 0.950 . S
C1159 C1158 1.414 . S
C1159 C1160 1.374 . S
C1160 H1134 0.950 . S
C1160 C1156 1.385 . S
C1160 C1159 1.374 . S
C1161 C1158 1.499 . S
C1161 C1162 1.373 . S
C1161 C1163 1.389 . S
C1162 H1135 0.950 . S
C1162 C1148 1.377 . S
C1162 C1161 1.373 . S
C1163 C1147 1.377 . S
C1163 C1161 1.389 . S
C1163 C1164 1.524 . S
C1164 C1163 1.524 . S
C1164 C1165 1.397 . S
C1164 C1169 1.363 . S
C1165 H1136 0.950 . S
C1165 C1164 1.397 . S
C1165 C1166 1.334 . S
C1166 H1137 0.950 . S
C1166 C1165 1.334 . S
C1166 C1167 1.287 . S
C1167 C1166 1.287 . S
C1167 C1168 1.524 . S
C1167 H1170 0.999 . S
C1168 H1138 0.950 . S
C1168 C1167 1.524 . S
C1168 C1169 1.415 . S
C1169 H1139 0.950 . S
C1169 C1164 1.363 . S
C1169 C1168 1.415 . S
H1170 C1167 0.999 . S
H1171 C1152 0.913 . S
H1172 C1190 0.951 . S
H1173 C1192 0.951 . S
H1174 C1194 0.950 . S
H1175 C1195 0.950 . S
H1176 C1197 0.950 . S
H1177 C1200 0.950 . S
H1178 C1201 0.939 1_455 S
H1179 C1203 0.950 . S
H1180 C1204 0.950 . S
H1181 C1205 0.951 . S
H1182 C1207 0.951 . S
H1183 C1209 0.950 . S
H1184 C1210 0.950 . S
H1185 C1212 0.950 . S
H1186 C1215 0.950 . S
H1187 C1216 0.939 1_655 S
H1188 C1218 0.950 . S
H1189 C1219 0.950 . S
C1190 H1172 0.951 . S
C1190 C1191 1.366 . S
C1190 C1192 1.388 . S
C1191 C1190 1.366 . S
C1191 C1195 1.385 . S
C1192 H1173 0.951 . S
C1192 C1190 1.388 . S
C1192 C1193 1.366 . S
C1193 C1192 1.366 . S
C1193 C1194 1.414 . S
C1193 C1196 1.499 . S
C1194 H1174 0.950 . S
C1194 C1193 1.414 . S
C1194 C1195 1.374 . S
C1195 H1175 0.950 . S
C1195 C1191 1.385 . S
C1195 C1194 1.374 . S
C1196 C1193 1.499 . S
C1196 C1197 1.373 . S
C1196 C1198 1.389 1_455 S
C1197 H1176 0.950 . S
C1197 C1196 1.373 . S
C1197 C1213 1.377 . S
C1198 C1196 1.389 1_655 S
C1198 C1199 1.524 . S
C1198 C1212 1.377 . S
C1199 C1198 1.524 . S
C1199 C1200 1.397 1_655 S
C1199 C1204 1.363 . S
C1200 H1177 0.950 . S
C1200 C1199 1.397 1_455 S
C1200 C1201 1.318 1_455 S
C1201 H1178 0.939 1_655 S
C1201 C1200 1.318 1_655 S
C1201 C1202 1.316 . S
C1202 C1201 1.316 . S
C1202 C1203 1.524 . S
C1202 H1221 0.913 . S
C1203 H1179 0.950 . S
C1203 C1202 1.524 . S
C1203 C1204 1.415 . S
C1204 H1180 0.950 . S
C1204 C1199 1.363 . S
C1204 C1203 1.415 . S
C1205 H1181 0.951 . S
C1205 C1206 1.366 . S
C1205 C1207 1.388 . S
C1206 C1205 1.366 . S
C1206 C1210 1.385 . S
C1207 H1182 0.951 . S
C1207 C1205 1.388 . S
C1207 C1208 1.366 . S
C1208 C1207 1.366 . S
C1208 C1209 1.414 . S
C1208 C1211 1.499 . S
C1209 H1183 0.950 . S
C1209 C1208 1.414 . S
C1209 C1210 1.374 . S
C1210 H1184 0.950 . S
C1210 C1206 1.385 . S
C1210 C1209 1.374 . S
C1211 C1208 1.499 . S
C1211 C1212 1.373 . S
C1211 C1213 1.389 1_655 S
C1212 H1185 0.950 . S
C1212 C1198 1.377 . S
C1212 C1211 1.373 . S
C1213 C1197 1.377 . S
C1213 C1211 1.389 1_455 S
C1213 C1214 1.524 . S
C1214 C1213 1.524 . S
C1214 C1215 1.397 1_455 S
C1214 C1219 1.363 . S
C1215 H1186 0.950 . S
C1215 C1214 1.397 1_655 S
C1215 C1216 1.318 1_655 S
C1216 H1187 0.939 1_455 S
C1216 C1215 1.318 1_455 S
C1216 C1217 1.316 . S
C1217 C1216 1.316 . S
C1217 C1218 1.524 . S
C1217 H1220 0.999 . S
C1218 H1188 0.950 . S
C1218 C1217 1.524 . S
C1218 C1219 1.415 . S
C1219 H1189 0.950 . S
C1219 C1214 1.363 . S
C1219 C1218 1.415 . S
H1220 C1217 0.999 . S
H1221 C1202 0.913 . S
H1222 C1240 0.951 . S
H1223 C1242 0.951 . S
H1224 C1244 0.950 . S
H1225 C1245 0.950 . S
H1226 C1247 0.950 . S
H1227 C1250 0.950 . S
H1228 C1251 0.950 . S
H1229 C1253 0.950 . S
H1230 C1254 0.950 . S
H1231 C1255 0.951 . S
H1232 C1257 0.951 . S
H1233 C1259 0.950 . S
H1234 C1260 0.950 . S
H1235 C1262 0.950 . S
H1236 C1265 0.950 . S
H1237 C1266 0.950 . S
H1238 C1268 0.950 . S
H1239 C1269 0.950 . S
C1240 H1222 0.951 . S
C1240 C1241 1.366 . S
C1240 C1242 1.388 . S
C1241 C1240 1.366 . S
C1241 C1245 1.385 . S
C1242 H1223 0.951 . S
C1242 C1240 1.388 . S
C1242 C1243 1.366 . S
C1243 C1242 1.366 . S
C1243 C1244 1.414 . S
C1243 C1246 1.499 . S
C1244 H1224 0.950 . S
C1244 C1243 1.414 . S
C1244 C1245 1.374 . S
C1245 H1225 0.950 . S
C1245 C1241 1.385 . S
C1245 C1244 1.374 . S
C1246 C1243 1.499 . S
C1246 C1247 1.373 . S
C1246 C1248 1.389 . S
C1247 H1226 0.950 . S
C1247 C1246 1.373 . S
C1247 C1263 1.377 1_455 S
C1248 C1246 1.389 . S
C1248 C1249 1.524 . S
C1248 C1262 1.377 1_455 S
C1249 C1248 1.524 . S
C1249 C1250 1.397 . S
C1249 C1254 1.363 . S
C1250 H1227 0.950 . S
C1250 C1249 1.397 . S
C1250 C1251 1.334 . S
C1251 H1228 0.950 . S
C1251 C1250 1.334 . S
C1251 C1252 1.287 . S
C1252 C1251 1.287 . S
C1252 C1253 1.524 . S
C1252 H1271 0.913 . S
C1253 H1229 0.950 . S
C1253 C1252 1.524 . S
C1253 C1254 1.415 . S
C1254 H1230 0.950 . S
C1254 C1249 1.363 . S
C1254 C1253 1.415 . S
C1255 H1231 0.951 . S
C1255 C1256 1.366 . S
C1255 C1257 1.388 . S
C1256 C1255 1.366 . S
C1256 C1260 1.385 . S
C1257 H1232 0.951 . S
C1257 C1255 1.388 . S
C1257 C1258 1.366 . S
C1258 C1257 1.366 . S
C1258 C1259 1.414 . S
C1258 C1261 1.499 . S
C1259 H1233 0.950 . S
C1259 C1258 1.414 . S
C1259 C1260 1.374 . S
C1260 H1234 0.950 . S
C1260 C1256 1.385 . S
C1260 C1259 1.374 . S
C1261 C1258 1.499 . S
C1261 C1262 1.373 . S
C1261 C1263 1.389 . S
C1262 H1235 0.950 . S
C1262 C1248 1.377 1_655 S
C1262 C1261 1.373 . S
C1263 C1247 1.377 1_655 S
C1263 C1261 1.389 . S
C1263 C1264 1.524 . S
C1264 C1263 1.524 . S
C1264 C1265 1.397 . S
C1264 C1269 1.363 . S
C1265 H1236 0.950 . S
C1265 C1264 1.397 . S
C1265 C1266 1.334 . S
C1266 H1237 0.950 . S
C1266 C1265 1.334 . S
C1266 C1267 1.287 . S
C1267 C1266 1.287 . S
C1267 C1268 1.524 . S
C1267 H1270 0.999 . S
C1268 H1238 0.950 . S
C1268 C1267 1.524 . S
C1268 C1269 1.415 . S
C1269 H1239 0.950 . S
C1269 C1264 1.363 . S
C1269 C1268 1.415 . S
H1270 C1267 0.999 . S
H1271 C1252 0.913 . S
C291 C135 1.351 . S
C306 C20 1.302 . S
C341 C54 1.301 . S
C356 C101 1.351 . S
C391 C67 1.352 . S
C406 C88 1.301 . S
C441 C33 1.351 . S
C456 C122 1.302 . S
C491 C156 1.302 . S
C506 C271 1.351 . S
C541 C237 1.351 . S
C556 C190 1.301 . S
C591 C224 1.302 . S
C606 C203 1.351 . S
C641 C258 1.301 . S
C656 C169 1.352 . S
C691 C5 0.575 . S
C706 C73 0.575 . S
C741 C39 0.579 . S
C756 C107 0.579 . S
C791 C209 0.578 . S
C806 C141 0.578 . S
C841 C243 0.575 . S
C856 C175 0.575 . S
C891 C9 1.273 . S
C906 C213 1.273 . S
C941 C43 1.273 . S
C956 C247 1.273 . S
C991 C145 1.273 . S
C1006 C77 1.273 . S
C1041 C179 1.274 . S
C1056 C111 1.274 . S
C1091 C36 1.789 . S
C1106 C2 1.790 . S
C1141 C104 1.790 . S
C1156 C70 1.789 . S
C1191 C172 1.790 . S
C1206 C138 1.790 . S
C1241 C206 1.790 . S
C1256 C240 1.790 . S
