# Generated by pormake.
# Topology fni, (5)-cn, num edge types: 1
# Building blocks:
#     Node 0, Type 0, BuildingBlock: XOMCOT_clean_sbu_1, # of connection points: 5
#     Node 1, Type 0, BuildingBlock: XOMCOT_clean_sbu_1, # of connection points: 5
#     Node 2, Type 0, BuildingBlock: XOMCOT_clean_sbu_1, # of connection points: 5
#     Node 3, Type 0, BuildingBlock: XOMCOT_clean_sbu_1, # of connection points: 5
#     Node 4, Type 0, BuildingBlock: XOMCOT_clean_sbu_1, # of connection points: 5
#     Node 5, Type 0, BuildingBlock: XOMCOT_clean_sbu_1, # of connection points: 5
#     Node 6, Type 0, BuildingBlock: XOMCOT_clean_sbu_1, # of connection points: 5
#     Node 7, Type 0, BuildingBlock: XOMCOT_clean_sbu_1, # of connection points: 5
#     Edge 8, Type (0, 0), BuildingBlock: MIFKUJ_clean_linker_0, # of connection points: 2
#     Edge 9, Type (0, 0), BuildingBlock: MIFKUJ_clean_linker_0, # of connection points: 2
#     Edge 10, Type (0, 0), BuildingBlock: MIFKUJ_clean_linker_0, # of connection points: 2
#     Edge 11, Type (0, 0), BuildingBlock: MIFKUJ_clean_linker_0, # of connection points: 2
#     Edge 12, Type (0, 0), BuildingBlock: MIFKUJ_clean_linker_0, # of connection points: 2
#     Edge 13, Type (0, 0), BuildingBlock: MIFKUJ_clean_linker_0, # of connection points: 2
#     Edge 14, Type (0, 0), BuildingBlock: MIFKUJ_clean_linker_0, # of connection points: 2
#     Edge 15, Type (0, 0), BuildingBlock: MIFKUJ_clean_linker_0, # of connection points: 2
#     Edge 16, Type (0, 0), BuildingBlock: MIFKUJ_clean_linker_0, # of connection points: 2
#     Edge 17, Type (0, 0), BuildingBlock: MIFKUJ_clean_linker_0, # of connection points: 2
#     Edge 18, Type (0, 0), BuildingBlock: MIFKUJ_clean_linker_0, # of connection points: 2
#     Edge 19, Type (0, 0), BuildingBlock: MIFKUJ_clean_linker_0, # of connection points: 2
#     Edge 20, Type (0, 0), BuildingBlock: MIFKUJ_clean_linker_0, # of connection points: 2
#     Edge 21, Type (0, 0), BuildingBlock: MIFKUJ_clean_linker_0, # of connection points: 2
#     Edge 22, Type (0, 0), BuildingBlock: MIFKUJ_clean_linker_0, # of connection points: 2
#     Edge 23, Type (0, 0), BuildingBlock: MIFKUJ_clean_linker_0, # of connection points: 2
#     Edge 24, Type (0, 0), BuildingBlock: MIFKUJ_clean_linker_0, # of connection points: 2
#     Edge 25, Type (0, 0), BuildingBlock: MIFKUJ_clean_linker_0, # of connection points: 2
#     Edge 26, Type (0, 0), BuildingBlock: MIFKUJ_clean_linker_0, # of connection points: 2
#     Edge 27, Type (0, 0), BuildingBlock: MIFKUJ_clean_linker_0, # of connection points: 2
# Relax obj value: 0.162
# Max RMSD: 0.170
# Mean RMSD: 0.163
data_MOF--net-fni--node1-XOMCOT_clean_sbu_1--edge1-MIFKUJ_clean_linker_0
_symmetry_space_group_name_H-M    P1
_symmetry_Int_Tables_number       1
_symmetry_cell_setting            triclinic
loop_
_symmetry_equiv_pos_as_xyz
'x, y, z'
_cell_length_a     69.141089
_cell_length_b     67.415294
_cell_length_c     22.023104
_cell_angle_alpha  93.788364
_cell_angle_beta   93.903071
_cell_angle_gamma 90.113519
loop_
_atom_site_label
_atom_site_type_symbol
_atom_site_fract_x
_atom_site_fract_y
_atom_site_fract_z
_atom_type_partial_charge
C0 C 0.40972 0.39812 0.14358 0.0
C1 C 0.40742 0.39936 0.20529 0.0
N2 N 0.42009 0.38689 0.23193 0.0
N3 N 0.42363 0.38477 0.13116 0.0
C4 C 0.42984 0.37836 0.18598 0.0
H5 H 0.40174 0.40643 0.10991 0.0
Co6 Co 0.43209 0.37717 0.05434 0.0
C7 C 0.43634 0.33331 0.05456 0.0
O8 O 0.43069 0.33156 0.99626 0.0
N9 N 0.44125 0.36982 0.9767 0.0
C10 C 0.46171 0.35884 0.90819 0.0
C11 C 0.45873 0.36141 0.96923 0.0
C12 C 0.43412 0.37259 0.91898 0.0
N13 N 0.44619 0.3659 0.87637 0.0
O14 O 0.45766 0.38679 0.08082 0.0
H15 H 0.46874 0.35731 0.00613 0.0
H16 H 0.42066 0.37992 0.90783 0.0
O17 O 0.43786 0.35059 0.08234 0.0
C18 C 0.45794 0.40561 0.07799 0.0
O19 O 0.44181 0.41451 0.06051 0.0
N20 N 0.40638 0.36991 0.02833 0.0
C21 C 0.36625 0.36816 1.00141 0.0
C22 C 0.3756 0.35398 0.03682 0.0
C23 C 0.39565 0.35532 0.05071 0.0
C24 C 0.39741 0.38399 0.99514 0.0
C25 C 0.37755 0.38311 0.97971 0.0
H26 H 0.40208 0.34545 0.08283 0.0
H27 H 0.40564 0.39662 0.98297 0.0
H28 H 0.44115 0.36747 0.19198 0.0
H29 H 0.39738 0.40892 0.22876 0.0
H30 H 0.47435 0.35219 0.88902 0.0
H31 H 0.36739 0.34265 0.05665 0.0
H32 H 0.37107 0.39449 0.95258 0.0
C33 C 0.62438 0.93321 0.24443 0.0
C34 C 0.62678 0.93284 0.1829 0.0
N35 N 0.6108 0.92463 0.15285 0.0
N36 N 0.60707 0.92504 0.25323 0.0
C37 C 0.59904 0.92009 0.19657 0.0
H38 H 0.63447 0.93942 0.28039 0.0
Co39 Co 0.59638 0.92283 0.32775 0.0
C40 C 0.58169 0.88156 0.32549 0.0
O41 O 0.58642 0.88157 0.38429 0.0
N42 N 0.58497 0.92124 0.40346 0.0
C43 C 0.56187 0.91838 0.46842 0.0
C44 C 0.56573 0.91872 0.40813 0.0
C45 C 0.59238 0.92275 0.46221 0.0
N46 N 0.5787 0.92086 0.50255 0.0
O47 O 0.57388 0.93665 0.29836 0.0
H48 H 0.55509 0.91679 0.36983 0.0
H49 H 0.60742 0.92543 0.47601 0.0
O50 O 0.58467 0.89717 0.29724 0.0
C51 C 0.57565 0.95546 0.29867 0.0
O52 O 0.5927 0.96355 0.31471 0.0
N53 N 0.61946 0.91046 0.35644 0.0
C54 C 0.65651 0.89739 0.39402 0.0
C55 C 0.64435 0.88563 0.35245 0.0
C56 C 0.62604 0.89258 0.33341 0.0
C57 C 0.63152 0.92253 0.39397 0.0
C58 C 0.6498 0.91611 0.41479 0.0
H59 H 0.61777 0.88394 0.29772 0.0
H60 H 0.62698 0.93746 0.40715 0.0
H61 H 0.58478 0.91346 0.18762 0.0
H62 H 0.63905 0.93879 0.16186 0.0
H63 H 0.54779 0.91604 0.48548 0.0
H64 H 0.64924 0.87157 0.33253 0.0
H65 H 0.65865 0.92591 0.44625 0.0
C66 C 0.06151 0.12227 0.47153 0.0
C67 C 0.05938 0.12391 0.40962 0.0
N68 N 0.07365 0.11354 0.38347 0.0
N69 N 0.07717 0.11109 0.48473 0.0
C70 C 0.08421 0.10588 0.43027 0.0
H71 H 0.0522 0.12877 0.50486 0.0
Co72 Co 0.08571 0.10429 0.56235 0.0
C73 C 0.12831 0.10852 0.56922 0.0
O74 O 0.12753 0.11627 0.62536 0.0
N75 N 0.09397 0.09665 0.64115 0.0
C76 C 0.10819 0.07832 0.71194 0.0
C77 C 0.10556 0.08085 0.65061 0.0
C78 C 0.08936 0.10312 0.69791 0.0
N79 N 0.09795 0.09233 0.74167 0.0
O80 O 0.08198 0.07663 0.53733 0.0
H81 H 0.11172 0.07162 0.61487 0.0
H82 H 0.07987 0.11537 0.70778 0.0
O83 O 0.11263 0.10318 0.53806 0.0
C84 C 0.06443 0.07068 0.53305 0.0
O85 O 0.05065 0.08376 0.54168 0.0
N86 N 0.08778 0.13174 0.58655 0.0
C87 C 0.08467 0.17266 0.61502 0.0
C88 C 0.09893 0.16519 0.57748 0.0
C89 C 0.09999 0.14474 0.56276 0.0
C90 C 0.07311 0.13891 0.61989 0.0
C91 C 0.07155 0.1592 0.63592 0.0
H92 H 0.1101 0.13963 0.53007 0.0
H93 H 0.06206 0.12884 0.63228 0.0
H94 H 0.09659 0.09629 0.42515 0.0
H95 H 0.04821 0.13228 0.38603 0.0
H96 H 0.11658 0.06673 0.73285 0.0
H97 H 0.10905 0.17507 0.55891 0.0
H98 H 0.05973 0.16436 0.66257 0.0
C99 C 0.86206 0.58748 0.70434 0.0
C100 C 0.85962 0.58683 0.64178 0.0
N101 N 0.8727 0.5992 0.62132 0.0
N102 N 0.87649 0.60033 0.72348 0.0
C103 C 0.88279 0.60713 0.67191 0.0
H104 H 0.85419 0.57866 0.73379 0.0
Co105 Co 0.88654 0.60538 0.8035 0.0
C106 C 0.89507 0.64892 0.81625 0.0
O107 O 0.88922 0.64992 0.87191 0.0
N108 N 0.89726 0.61 0.88455 0.0
C109 C 0.91895 0.61813 0.96157 0.0
C110 C 0.91545 0.61684 0.89934 0.0
C111 C 0.89023 0.60676 0.93897 0.0
N112 N 0.90304 0.61177 0.98686 0.0
O113 O 0.91102 0.59498 0.78115 0.0
H114 H 0.92554 0.62091 0.86675 0.0
H115 H 0.87612 0.60053 0.94364 0.0
O116 O 0.89431 0.6323 0.78443 0.0
C117 C 0.91111 0.57607 0.78048 0.0
O118 O 0.89509 0.56689 0.79178 0.0
N119 N 0.86176 0.61349 0.82522 0.0
C120 C 0.82317 0.61777 0.85467 0.0
C121 C 0.83264 0.63292 0.82692 0.0
C122 C 0.85187 0.63032 0.8114 0.0
C123 C 0.85241 0.59829 0.84891 0.0
C124 C 0.83331 0.60016 0.86461 0.0
H125 H 0.85841 0.6416 0.78682 0.0
H126 H 0.85989 0.58441 0.85505 0.0
H127 H 0.89476 0.61746 0.67155 0.0
H128 H 0.84947 0.57738 0.61356 0.0
H129 H 0.93223 0.62355 0.98581 0.0
H130 H 0.82528 0.64661 0.81704 0.0
H131 H 0.82645 0.58767 0.88321 0.0
C132 C 0.36196 0.09384 0.24768 0.0
C133 C 0.36031 0.09214 0.18495 0.0
N134 N 0.37441 0.10321 0.16405 0.0
N135 N 0.37688 0.1061 0.26653 0.0
C136 C 0.38426 0.11145 0.21472 0.0
H137 H 0.35292 0.08647 0.27757 0.0
Co138 Co 0.386 0.11292 0.34669 0.0
C139 C 0.39269 0.15653 0.35058 0.0
O140 O 0.38525 0.15849 0.404 0.0
N141 N 0.39593 0.11951 0.42813 0.0
C142 C 0.41715 0.12972 0.50475 0.0
C143 C 0.41369 0.1276 0.44246 0.0
C144 C 0.38909 0.11646 0.48308 0.0
N145 N 0.40164 0.12265 0.53033 0.0
O146 O 0.41081 0.10243 0.3287 0.0
H147 H 0.42367 0.1316 0.40945 0.0
H148 H 0.37528 0.10975 0.48919 0.0
O149 O 0.39354 0.13929 0.32291 0.0
C150 C 0.41106 0.08383 0.33577 0.0
O151 O 0.39533 0.07552 0.35324 0.0
N152 N 0.36083 0.12109 0.36401 0.0
C153 C 0.32166 0.12504 0.38567 0.0
C154 C 0.33073 0.13871 0.35129 0.0
C155 C 0.35039 0.13634 0.34034 0.0
C156 C 0.35174 0.10703 0.39363 0.0
C157 C 0.3324 0.10898 0.40648 0.0
H158 H 0.35685 0.14626 0.31083 0.0
H159 H 0.35953 0.09384 0.40605 0.0
H160 H 0.39697 0.12082 0.21448 0.0
H161 H 0.34945 0.08345 0.15719 0.0
H162 H 0.43029 0.13549 0.52919 0.0
H163 H 0.32267 0.15091 0.33257 0.0
H164 H 0.32569 0.09759 0.43066 0.0
C165 C 0.91077 0.89892 0.61572 0.0
C166 C 0.90833 0.90114 0.67725 0.0
N167 N 0.91529 0.88482 0.70336 0.0
N168 N 0.91924 0.88132 0.60289 0.0
C169 C 0.92184 0.87309 0.65707 0.0
H170 H 0.90663 0.90946 0.58229 0.0
Co171 Co 0.92512 0.87196 0.52519 0.0
C172 C 0.92968 0.82845 0.5289 0.0
O173 O 0.92081 0.82672 0.47408 0.0
N174 N 0.93161 0.86312 0.44569 0.0
C175 C 0.95022 0.85184 0.37242 0.0
C176 C 0.94883 0.85473 0.4342 0.0
C177 C 0.92293 0.86546 0.38959 0.0
N178 N 0.93391 0.85864 0.34423 0.0
O179 O 0.951 0.88258 0.54076 0.0
H180 H 0.95996 0.85134 0.46882 0.0
H181 H 0.90905 0.87236 0.38153 0.0
O182 O 0.93268 0.84581 0.55542 0.0
C183 C 0.95072 0.89953 0.51806 0.0
O184 O 0.9342 0.9055 0.49246 0.0
N185 N 0.89905 0.86406 0.5099 0.0
C186 C 0.85854 0.86203 0.49853 0.0
C187 C 0.86927 0.84858 0.53313 0.0
C188 C 0.88953 0.85012 0.53938 0.0
C189 C 0.88875 0.87747 0.47751 0.0
C190 C 0.86862 0.87643 0.46985 0.0
H191 H 0.89724 0.84096 0.57116 0.0
H192 H 0.89619 0.88975 0.45989 0.0
H193 H 0.9282 0.85867 0.66239 0.0
H194 H 0.90215 0.91395 0.7008 0.0
H195 H 0.96266 0.84597 0.35014 0.0
H196 H 0.86206 0.83776 0.55812 0.0
H197 H 0.861 0.8873 0.44326 0.0
C198 C 0.12418 0.43161 0.77388 0.0
C199 C 0.12676 0.432 0.71261 0.0
N200 N 0.11214 0.42168 0.68143 0.0
N201 N 0.10814 0.4209 0.78138 0.0
C202 C 0.10101 0.41519 0.72427 0.0
H203 H 0.13327 0.43891 0.81063 0.0
Co204 Co 0.09808 0.41662 0.85548 0.0
C205 C 0.0861 0.37446 0.8479 0.0
O206 O 0.09243 0.37374 0.90534 0.0
N207 N 0.0873 0.41293 0.931 0.0
C208 C 0.06487 0.40691 0.99565 0.0
C209 C 0.06844 0.40831 0.93551 0.0
C210 C 0.09472 0.4147 0.98971 0.0
N211 N 0.08145 0.41092 0.02994 0.0
O212 O 0.07481 0.4299 0.82935 0.0
H213 H 0.05792 0.40576 0.89712 0.0
H214 H 0.10943 0.41903 0.00344 0.0
O215 O 0.08737 0.39076 0.82158 0.0
C216 C 0.07616 0.44873 0.83849 0.0
O217 O 0.09261 0.45638 0.86293 0.0
N218 N 0.12196 0.4051 0.88071 0.0
C219 C 0.16051 0.3945 0.90893 0.0
C220 C 0.14853 0.38262 0.86724 0.0
C221 C 0.12946 0.38837 0.85282 0.0
C222 C 0.13366 0.41722 0.91932 0.0
C223 C 0.15275 0.41198 0.93538 0.0
H224 H 0.1213 0.37998 0.8163 0.0
H225 H 0.12836 0.43151 0.93592 0.0
H226 H 0.08787 0.40649 0.71434 0.0
H227 H 0.13821 0.43975 0.69256 0.0
H228 H 0.05113 0.40293 0.01242 0.0
H229 H 0.15413 0.36955 0.84324 0.0
H230 H 0.16147 0.42186 0.967 0.0
C231 C 0.5617 0.61867 0.9782 0.0
C232 C 0.55892 0.61906 0.91587 0.0
N233 N 0.57512 0.61227 0.89086 0.0
N234 N 0.57956 0.61174 0.99249 0.0
C235 C 0.58737 0.60785 0.93846 0.0
H236 H 0.55146 0.62336 0.01121 0.0
Co237 Co 0.58993 0.60887 0.07115 0.0
C238 C 0.63136 0.61826 0.06777 0.0
O239 O 0.6299 0.62918 0.11896 0.0
N240 N 0.60019 0.60508 0.15153 0.0
C241 C 0.61793 0.59134 0.22593 0.0
C242 C 0.61496 0.59252 0.16407 0.0
C243 C 0.59387 0.61059 0.20705 0.0
N244 N 0.60461 0.60269 0.25289 0.0
O245 O 0.58771 0.58051 0.05762 0.0
H246 H 0.62278 0.58418 0.13008 0.0
H247 H 0.58132 0.61963 0.21444 0.0
O248 O 0.61651 0.60874 0.04279 0.0
C249 C 0.57124 0.57531 0.07423 0.0
O250 O 0.55966 0.58936 0.09425 0.0
N251 N 0.59011 0.63699 0.08424 0.0
C252 C 0.58619 0.67825 0.10251 0.0
C253 C 0.59849 0.67003 0.05954 0.0
C254 C 0.59982 0.6494 0.04987 0.0
C255 C 0.57674 0.64472 0.12171 0.0
C256 C 0.57491 0.66525 0.13287 0.0
H257 H 0.60835 0.64349 0.01367 0.0
H258 H 0.56687 0.63496 0.14138 0.0
H259 H 0.6017 0.60174 0.93406 0.0
H260 H 0.5461 0.62434 0.89109 0.0
H261 H 0.62848 0.58213 0.24913 0.0
H262 H 0.60665 0.67944 0.03239 0.0
H263 H 0.56469 0.67082 0.16492 0.0
H264 H 0.53704 0.56171 0.10857 0.0
H265 H 0.52656 0.52762 0.1147 0.0
H266 H 0.5804 0.50645 0.04739 0.0
H267 H 0.59125 0.54112 0.04098 0.0
H268 H 0.54585 0.48566 0.99328 0.0
H269 H 0.57615 0.50205 0.19003 0.0
H270 H 0.58428 0.52339 0.28358 0.0
H271 H 0.52457 0.52333 0.32581 0.0
H272 H 0.516 0.50227 0.232 0.0
H273 H 0.4957 0.39581 0.05678 0.0
H274 H 0.5236 0.41893 0.06327 0.0
H275 H 0.48752 0.46592 0.13436 0.0
H276 H 0.45996 0.44318 0.12757 0.0
H277 H 0.52398 0.4671 0.19208 0.0
H278 H 0.49366 0.45975 0.98347 0.0
H279 H 0.4841 0.44 0.88775 0.0
H280 H 0.54347 0.42364 0.86827 0.0
H281 H 0.55332 0.44312 0.96438 0.0
C282 C 0.54678 0.54992 0.09488 0.0
C283 C 0.56509 0.55421 0.07463 0.0
C284 C 0.54073 0.53037 0.09863 0.0
C285 C 0.5528 0.51448 0.08248 0.0
C286 C 0.57092 0.51853 0.06049 0.0
C287 C 0.57709 0.5383 0.0569 0.0
C288 C 0.54596 0.49389 0.08946 0.0
C289 C 0.54163 0.48126 0.03704 0.0
C290 C 0.54034 0.48821 0.14651 0.0
C291 C 0.54544 0.50056 0.20382 0.0
C292 C 0.56473 0.50664 0.21912 0.0
C293 C 0.56942 0.5187 0.27221 0.0
C294 C 0.55495 0.52471 0.31062 0.0
C295 C 0.53577 0.51864 0.29607 0.0
C296 C 0.531 0.5066 0.24298 0.0
C297 C 0.49396 0.41096 0.07518 0.0
C298 C 0.4757 0.41777 0.0915 0.0
C299 C 0.50983 0.42416 0.0785 0.0
C300 C 0.50761 0.4442 0.09893 0.0
C301 C 0.48963 0.45055 0.11861 0.0
C302 C 0.47385 0.43755 0.11451 0.0
C303 C 0.52312 0.45934 0.09557 0.0
C304 C 0.52897 0.47103 0.14876 0.0
C305 C 0.53008 0.46415 0.03929 0.0
C306 C 0.52418 0.45265 0.98138 0.0
C307 C 0.50464 0.45182 0.95895 0.0
C308 C 0.49917 0.4407 0.90463 0.0
C309 C 0.51316 0.43052 0.87206 0.0
C310 C 0.53265 0.4315 0.89364 0.0
C311 C 0.53818 0.44257 0.94801 0.0
H312 H 0.5089 0.42191 0.83003 0.0
H313 H 0.55861 0.53407 0.35165 0.0
H314 H 0.44764 0.09573 0.31014 0.0
H315 H 0.47605 0.07448 0.29628 0.0
H316 H 0.44158 0.02274 0.32277 0.0
H317 H 0.41351 0.04369 0.33764 0.0
H318 H 0.47472 0.02134 0.38754 0.0
H319 H 0.45473 0.03411 0.18046 0.0
H320 H 0.44628 0.05498 0.09483 0.0
H321 H 0.50332 0.08093 0.11405 0.0
H322 H 0.51201 0.06041 0.20044 0.0
H323 H 0.53721 0.94489 0.29162 0.0
H324 H 0.50931 0.96722 0.28842 0.0
H325 H 0.54758 0.01742 0.28036 0.0
H326 H 0.5755 0.99526 0.28329 0.0
H327 H 0.51347 0.02037 0.20583 0.0
H328 H 0.53313 0.00714 0.41323 0.0
H329 H 0.54151 0.98528 0.49644 0.0
H330 H 0.48441 0.95953 0.47463 0.0
H331 H 0.47579 0.98101 0.39051 0.0
C332 C 0.44616 0.07982 0.31275 0.0
C333 C 0.42833 0.07142 0.32513 0.0
C334 C 0.46237 0.06768 0.30463 0.0
C335 C 0.46094 0.04696 0.30819 0.0
C336 C 0.4431 0.03865 0.32007 0.0
C337 C 0.42701 0.0507 0.32843 0.0
C338 C 0.47798 0.03379 0.30107 0.0
C339 C 0.48302 0.02101 0.34741 0.0
C340 C 0.48912 0.03358 0.24937 0.0
C341 C 0.48395 0.04588 0.19735 0.0
C342 C 0.46542 0.04438 0.16676 0.0
C343 C 0.46059 0.05613 0.11803 0.0
C344 C 0.47424 0.06932 0.09913 0.0
C345 C 0.49275 0.07074 0.12882 0.0
C346 C 0.49764 0.05905 0.17764 0.0
C347 C 0.53966 0.96063 0.28807 0.0
C348 C 0.55858 0.96833 0.28834 0.0
C349 C 0.52372 0.97338 0.28644 0.0
C350 C 0.52641 0.99401 0.28496 0.0
C351 C 0.54518 1.00157 0.28163 0.0
C352 C 0.56113 0.98887 0.2836 0.0
C353 C 0.5099 0.00782 0.2918 0.0
C354 C 0.50508 0.02076 0.24577 0.0
C355 C 0.49887 0.00815 0.34365 0.0
C356 C 0.50387 0.99555 0.39519 0.0
C357 C 0.52239 0.99673 0.42593 0.0
C358 C 0.52719 0.98441 0.47326 0.0
C359 C 0.51352 0.97098 0.4907 0.0
C360 C 0.49499 0.96991 0.461 0.0
C361 C 0.49014 0.98217 0.41351 0.0
H362 H 0.51727 0.96144 0.52729 0.0
H363 H 0.47048 0.07839 0.06138 0.0
H364 H 0.98708 0.89595 0.57804 0.0
H365 H 0.01463 0.91929 0.5783 0.0
H366 H 0.98059 0.95564 0.45784 0.0
H367 H 0.95362 0.93271 0.45673 0.0
H368 H 0.01626 0.95274 0.42244 0.0
H369 H 0.98581 0.96599 0.61496 0.0
H370 H 0.97576 0.95707 0.71507 0.0
H371 H 0.03482 0.9441 0.7714 0.0
H372 H 0.04517 0.95273 0.67124 0.0
H373 H 0.03114 0.05493 0.47824 0.0
H374 H 0.0204 0.02029 0.47244 0.0
H375 H 0.07458 0.00358 0.56319 0.0
H376 H 0.08567 0.03847 0.56793 0.0
H377 H 0.0389 0.99026 0.61558 0.0
H378 H 0.06902 0.98683 0.42771 0.0
H379 H 0.0773 0.9984 0.32875 0.0
H380 H 0.0174 0.99462 0.26332 0.0
H381 H 0.00869 0.98337 0.36223 0.0
C382 C 0.98563 0.90885 0.55132 0.0
C383 C 0.96809 0.91251 0.51775 0.0
C384 C 0.00133 0.92219 0.55157 0.0
C385 C 0.99969 0.9393 0.51815 0.0
C386 C 0.98234 0.94255 0.48367 0.0
C387 C 0.9668 0.9294 0.48351 0.0
C388 C 0.01531 0.95465 0.52025 0.0
C389 C 0.02133 0.96084 0.46474 0.0
C390 C 0.02243 0.96493 0.57545 0.0
C391 C 0.01621 0.95971 0.63543 0.0
C392 C 0.99662 0.96107 0.64855 0.0
C393 C 0.99088 0.9561 0.7053 0.0
C394 C 0.00463 0.94994 0.74948 0.0
C395 C 0.02417 0.94881 0.73706 0.0
C396 C 0.02998 0.95373 0.68033 0.0
C397 C 0.04091 0.04385 0.49608 0.0
C398 C 0.05925 0.04936 0.52335 0.0
C399 C 0.03477 0.02406 0.49269 0.0
C400 C 0.04671 0.00937 0.51729 0.0
C401 C 0.0652 0.01471 0.54378 0.0
C402 C 0.07155 0.03456 0.54607 0.0
C403 C 0.03902 0.9888 0.51766 0.0
C404 C 0.03445 0.9817 0.57348 0.0
C405 C 0.03303 0.97781 0.46269 0.0
C406 C 0.0382 0.9843 0.40261 0.0
C407 C 0.05759 0.98858 0.39238 0.0
C408 C 0.06237 0.99507 0.33625 0.0
C409 C 0.04789 0.99726 0.2898 0.0
C410 C 0.0286 0.99291 0.29934 0.0
C411 C 0.02374 0.98644 0.35542 0.0
H412 H 0.05162 0.0023 0.2464 0.0
H413 H 0.00016 0.94611 0.79341 0.0
H414 H 0.03842 0.43852 0.80161 0.0
H415 H 0.01127 0.46112 0.78218 0.0
H416 H 0.04971 0.51149 0.82173 0.0
H417 H 0.07667 0.48915 0.84228 0.0
H418 H 0.01791 0.51735 0.87845 0.0
H419 H 0.03244 0.4966 0.67431 0.0
H420 H 0.03816 0.4725 0.58833 0.0
H421 H 0.98044 0.4493 0.59296 0.0
H422 H 0.97446 0.47308 0.67961 0.0
H423 H 0.9489 0.58934 0.78581 0.0
H424 H 0.97822 0.56882 0.78456 0.0
H425 H 0.94275 0.51586 0.75706 0.0
H426 H 0.91362 0.53612 0.75762 0.0
H427 H 0.97412 0.51271 0.68996 0.0
H428 H 0.96062 0.53177 0.89811 0.0
H429 H 0.95475 0.55579 0.98421 0.0
H430 H 0.01083 0.58207 0.9715 0.0
H431 H 0.01691 0.55839 0.88464 0.0
C432 C 0.04108 0.45441 0.80575 0.0
C433 C 0.0597 0.46202 0.82358 0.0
C434 C 0.02557 0.46732 0.79442 0.0
C435 C 0.02846 0.48805 0.80003 0.0
C436 C 0.04709 0.49559 0.81723 0.0
C437 C 0.06251 0.48275 0.82885 0.0
C438 C 0.01203 0.50198 0.7901 0.0
C439 C 0.00855 0.51651 0.83675 0.0
C440 C 0.99956 0.50073 0.73621 0.0
C441 C 0.00307 0.48651 0.68383 0.0
C442 C 0.02101 0.48627 0.65729 0.0
C443 C 0.0243 0.47268 0.60839 0.0
C444 C 0.00969 0.45935 0.58529 0.0
C445 C 0.99175 0.45962 0.61095 0.0
C446 C 0.9884 0.47316 0.65992 0.0
C447 C 0.9474 0.57335 0.77847 0.0
C448 C 0.92895 0.56435 0.7724 0.0
C449 C 0.96413 0.56164 0.77805 0.0
C450 C 0.96266 0.54077 0.7715 0.0
C451 C 0.94426 0.5319 0.76226 0.0
C452 C 0.9276 0.54353 0.76293 0.0
C453 C 0.98007 0.52799 0.77828 0.0
C454 C 0.98366 0.51364 0.73127 0.0
C455 C 0.99267 0.52938 0.83181 0.0
C456 C 0.98913 0.54346 0.88446 0.0
C457 C 0.97164 0.54277 0.9134 0.0
C458 C 0.96828 0.55631 0.96236 0.0
C459 C 0.98238 0.57048 0.9832 0.0
C460 C 0.99991 0.57111 0.95523 0.0
C461 C 0.00332 0.55763 0.90614 0.0
H462 H 0.97976 0.58096 0.0211 0.0
H463 H 0.01226 0.44883 0.54744 0.0
H464 H 0.45297 0.37585 0.29511 0.0
H465 H 0.4571 0.37065 0.40408 0.0
H466 H 0.39683 0.38456 0.42295 0.0
H467 H 0.39271 0.38996 0.31428 0.0
H468 H 0.41808 0.40323 0.51147 0.0
H469 H 0.41458 0.33621 0.42426 0.0
H470 H 0.42362 0.30777 0.35586 0.0
H471 H 0.48139 0.30942 0.44093 0.0
H472 H 0.4728 0.33807 0.5092 0.0
H473 H 0.41204 0.36962 0.80871 0.0
H474 H 0.40753 0.37189 0.69854 0.0
H475 H 0.46907 0.36561 0.68351 0.0
H476 H 0.47386 0.36385 0.79375 0.0
H477 H 0.44701 0.34238 0.59358 0.0
H478 H 0.45024 0.41013 0.67821 0.0
H479 H 0.44085 0.43848 0.74625 0.0
H480 H 0.38257 0.43469 0.66526 0.0
H481 H 0.39156 0.40611 0.5973 0.0
C482 C 0.44056 0.3776 0.32234 0.0
C483 C 0.42251 0.38335 0.29594 0.0
C484 C 0.44293 0.3746 0.3847 0.0
C485 C 0.42723 0.377 0.42181 0.0
C486 C 0.40919 0.38266 0.39542 0.0
C487 C 0.40685 0.38581 0.33325 0.0
C488 C 0.42969 0.37425 0.48844 0.0
C489 C 0.42413 0.38977 0.52925 0.0
C490 C 0.43797 0.35688 0.51195 0.0
C491 C 0.4431 0.33945 0.47146 0.0
C492 C 0.42926 0.33061 0.42811 0.0
C493 C 0.43429 0.31444 0.38937 0.0
C494 C 0.45309 0.30686 0.39387 0.0
C495 C 0.46685 0.31535 0.43739 0.0
C496 C 0.4619 0.33154 0.47615 0.0
C497 C 0.42469 0.3689 0.78236 0.0
C498 C 0.44336 0.36669 0.81079 0.0
C499 C 0.42204 0.37008 0.71914 0.0
C500 C 0.43797 0.36902 0.68283 0.0
C501 C 0.45656 0.36637 0.71063 0.0
C502 C 0.45925 0.36533 0.77388 0.0
C503 C 0.43532 0.3713 0.61612 0.0
C504 C 0.44088 0.35575 0.57549 0.0
C505 C 0.42693 0.38857 0.59262 0.0
C506 C 0.42153 0.40585 0.63311 0.0
C507 C 0.43539 0.41524 0.67524 0.0
C508 C 0.43014 0.43137 0.71373 0.0
C509 C 0.41111 0.43835 0.71019 0.0
C510 C 0.3973 0.42925 0.66801 0.0
C511 C 0.40247 0.41309 0.62947 0.0
H512 H 0.40708 0.45084 0.74003 0.0
H513 H 0.457 0.2944 0.36369 0.0
H514 H 0.63679 0.9176 0.06791 0.0
H515 H 0.63052 0.91607 0.95718 0.0
H516 H 0.5696 0.92549 0.97892 0.0
H517 H 0.57581 0.9267 0.08997 0.0
H518 H 0.57415 0.89872 0.88757 0.0
H519 H 0.59978 0.9637 0.94578 0.0
H520 H 0.62311 0.98834 0.9958 0.0
H521 H 0.66783 0.96418 0.88726 0.0
H522 H 0.64483 0.9392 0.83717 0.0
H523 H 0.55194 0.929 0.58566 0.0
H524 H 0.55672 0.9285 0.69643 0.0
H525 H 0.61668 0.91293 0.68027 0.0
H526 H 0.61198 0.91287 0.56952 0.0
H527 H 0.61182 0.9433 0.76852 0.0
H528 H 0.58533 0.87819 0.71042 0.0
H529 H 0.56131 0.8543 0.66014 0.0
H530 H 0.51719 0.87999 0.76821 0.0
H531 H 0.54089 0.90424 0.81855 0.0
C532 C 0.62206 0.91935 0.04907 0.0
C533 C 0.60682 0.92246 0.08764 0.0
C534 C 0.61849 0.9185 0.98577 0.0
C535 C 0.59964 0.92108 0.95963 0.0
C536 C 0.58428 0.92353 0.998 0.0
C537 C 0.58783 0.92418 0.06144 0.0
C538 C 0.59608 0.92163 0.89239 0.0
C539 C 0.5822 0.90867 0.86168 0.0
C540 C 0.60677 0.9344 0.85832 0.0
C541 C 0.62062 0.94946 0.88813 0.0
C542 C 0.61463 0.96355 0.93289 0.0
C543 C 0.62779 0.97759 0.96121 0.0
C544 C 0.64695 0.97779 0.94482 0.0
C545 C 0.65299 0.96399 0.89996 0.0
C546 C 0.63989 0.9499 0.87155 0.0
C547 C 0.56611 0.92525 0.6054 0.0
C548 C 0.58156 0.92096 0.56822 0.0
C549 C 0.56882 0.92503 0.66887 0.0
C550 C 0.58703 0.92055 0.69653 0.0
C551 C 0.60252 0.91648 0.65982 0.0
C552 C 0.59981 0.91657 0.59637 0.0
C553 C 0.59002 0.92031 0.76385 0.0
C554 C 0.60377 0.93338 0.79452 0.0
C555 C 0.57909 0.90777 0.79783 0.0
C556 C 0.56484 0.89316 0.76779 0.0
C557 C 0.57046 0.87886 0.7231 0.0
C558 C 0.55692 0.86523 0.69466 0.0
C559 C 0.53772 0.86566 0.71085 0.0
C560 C 0.53205 0.87969 0.75565 0.0
C561 C 0.54554 0.89337 0.78418 0.0
H562 H 0.52726 0.8551 0.68879 0.0
H563 H 0.65712 0.98868 0.9668 0.0
H564 H 0.067 0.10662 0.79957 0.0
H565 H 0.06388 0.11035 0.90957 0.0
H566 H 0.12163 0.08736 0.94113 0.0
H567 H 0.12475 0.08346 0.83104 0.0
H568 H 0.0977 0.07111 0.0131 0.0
H569 H 0.112 0.13739 0.96288 0.0
H570 H 0.1078 0.16757 0.90604 0.0
H571 H 0.05024 0.17472 0.96572 0.0
H572 H 0.05399 0.1444 0.02223 0.0
H573 H 0.10696 0.10266 0.33103 0.0
H574 H 0.11187 0.09877 0.22204 0.0
H575 H 0.05254 0.11545 0.18031 0.0
H576 H 0.04727 0.11882 0.28861 0.0
H577 H 0.07863 0.13529 0.11485 0.0
H578 H 0.06419 0.06844 0.1624 0.0
H579 H 0.06845 0.03824 0.21916 0.0
H580 H 0.12678 0.0325 0.16497 0.0
H581 H 0.12295 0.06284 0.10856 0.0
C582 C 0.07911 0.10256 0.82991 0.0
C583 C 0.09616 0.09482 0.80656 0.0
C584 C 0.0773 0.10467 0.89283 0.0
C585 C 0.09262 0.09936 0.93372 0.0
C586 C 0.10961 0.09153 0.91051 0.0
C587 C 0.11137 0.08929 0.84758 0.0
C588 C 0.09083 0.10182 1.00065 0.0
C589 C 0.09383 0.08523 0.03546 0.0
C590 C 0.08544 0.12015 0.02976 0.0
C591 C 0.08322 0.13852 0.99637 0.0
C592 C 0.0984 0.14532 0.96356 0.0
C593 C 0.09611 0.16246 0.93144 0.0
C594 C 0.07875 0.17303 0.93214 0.0
C595 C 0.06367 0.16651 0.96516 0.0
C596 C 0.06588 0.14935 0.9973 0.0
C597 C 0.09485 0.10528 0.29887 0.0
C598 C 0.07669 0.11109 0.31911 0.0
C599 C 0.09773 0.10313 0.2365 0.0
C600 C 0.08254 0.1068 0.19317 0.0
C601 C 0.06448 0.11267 0.21305 0.0
C602 C 0.06153 0.11467 0.27523 0.0
C603 C 0.08541 0.10458 0.12697 0.0
C604 C 0.08261 0.12122 0.0924 0.0
C605 C 0.09105 0.08633 0.09816 0.0
C606 C 0.09336 0.06804 0.13182 0.0
C607 C 0.07799 0.06083 0.16302 0.0
C608 C 0.08031 0.04367 0.19505 0.0
C609 C 0.09789 0.03349 0.19582 0.0
C610 C 0.11317 0.04042 0.16441 0.0
C611 C 0.11093 0.05759 0.13237 0.0
H612 H 0.09966 0.0202 0.22063 0.0
H613 H 0.077 0.18629 0.9072 0.0
H614 H 0.86934 0.60396 0.03983 0.0
H615 H 0.86485 0.60247 0.14757 0.0
H616 H 0.92524 0.61679 0.19053 0.0
H617 H 0.93028 0.6172 0.08268 0.0
H618 H 0.91498 0.58909 0.25876 0.0
H619 H 0.88774 0.65199 0.20772 0.0
H620 H 0.86647 0.67413 0.14872 0.0
H621 H 0.81633 0.64296 0.19874 0.0
H622 H 0.8373 0.62052 0.25738 0.0
H623 H 0.90604 0.61113 0.57523 0.0
H624 H 0.9115 0.61485 0.46816 0.0
H625 H 0.8523 0.59727 0.41703 0.0
H626 H 0.84651 0.59425 0.52407 0.0
H627 H 0.86266 0.62768 0.35413 0.0
H628 H 0.88974 0.56438 0.4024 0.0
H629 H 0.91079 0.54192 0.46089 0.0
H630 H 0.96115 0.57378 0.41588 0.0
H631 H 0.94036 0.59661 0.35777 0.0
C632 C 0.88183 0.60662 0.07153 0.0
C633 C 0.90023 0.6108 0.0513 0.0
C634 C 0.87912 0.60598 0.13368 0.0
C635 C 0.89461 0.60992 0.17744 0.0
C636 C 0.91301 0.61382 0.15771 0.0
C637 C 0.91582 0.61421 0.09554 0.0
C638 C 0.89168 0.60977 0.24373 0.0
C639 C 0.90373 0.59779 0.27974 0.0
C640 C 0.87674 0.62077 0.27108 0.0
C641 C 0.8641 0.63448 0.23654 0.0
C642 C 0.87218 0.64981 0.20586 0.0
C643 C 0.86018 0.66242 0.1725 0.0
C644 C 0.84006 0.65994 0.16982 0.0
C645 C 0.8319 0.64489 0.20073 0.0
C646 C 0.84384 0.63223 0.23413 0.0
C647 C 0.89409 0.60832 0.54143 0.0
C648 C 0.87585 0.60223 0.55843 0.0
C649 C 0.8973 0.61027 0.48007 0.0
C650 C 0.88239 0.60603 0.43445 0.0
C651 C 0.86405 0.60051 0.45139 0.0
C652 C 0.86082 0.5986 0.51266 0.0
C653 C 0.88593 0.60699 0.36892 0.0
C654 C 0.87398 0.61911 0.33312 0.0
C655 C 0.90096 0.59613 0.34176 0.0
C656 C 0.91348 0.58232 0.37627 0.0
C657 C 0.90529 0.56668 0.40534 0.0
C658 C 0.91718 0.55388 0.43837 0.0
C659 C 0.93729 0.55646 0.44224 0.0
C660 C 0.94556 0.57182 0.41292 0.0
C661 C 0.93374 0.58469 0.3799 0.0
H662 H 0.94647 0.54653 0.46785 0.0
H663 H 0.8308 0.66971 0.14388 0.0
H664 H 0.39588 0.13222 0.11914 0.0
H665 H 0.40218 0.13588 0.01292 0.0
H666 H 0.36732 0.08378 0.95839 0.0
H667 H 0.36184 0.07932 0.06452 0.0
H668 H 0.39863 0.08307 0.89763 0.0
H669 H 0.35006 0.13288 0.94168 0.0
H670 H 0.3372 0.16171 1.00074 0.0
H671 H 0.38637 0.1968 0.96341 0.0
H672 H 0.39952 0.16819 0.90422 0.0
H673 H 0.38006 0.09573 0.58322 0.0
H674 H 0.37655 0.09335 0.69209 0.0
H675 H 0.4147 0.14386 0.73295 0.0
H676 H 0.41788 0.14666 0.62386 0.0
H677 H 0.38366 0.14631 0.80168 0.0
H678 H 0.43127 0.09767 0.75269 0.0
H679 H 0.44498 0.069 0.69529 0.0
H680 H 0.39884 0.03171 0.74394 0.0
H681 H 0.38468 0.06023 0.80094 0.0
C682 C 0.38971 0.12136 0.08489 0.0
C683 C 0.37822 0.1055 0.10103 0.0
C684 C 0.39315 0.12363 0.02383 0.0
C685 C 0.38495 0.11031 0.97734 0.0
C686 C 0.37374 0.09433 0.9933 0.0
C687 C 0.37044 0.09193 0.05429 0.0
C688 C 0.38798 0.11291 0.91201 0.0
C689 C 0.39511 0.09682 0.87652 0.0
C690 C 0.38398 0.13103 0.88469 0.0
C691 C 0.37583 0.14838 0.91891 0.0
C692 C 0.35813 0.14675 0.94618 0.0
C693 C 0.35078 0.16306 0.9796 0.0
C694 C 0.36096 0.18109 0.98583 0.0
C695 C 0.37846 0.18287 0.95841 0.0
C696 C 0.38585 0.16663 0.9248 0.0
C697 C 0.38755 0.10648 0.61519 0.0
C698 C 0.39931 0.12137 0.59465 0.0
C699 C 0.38567 0.10498 0.67756 0.0
C700 C 0.39555 0.11828 0.72079 0.0
C701 C 0.40701 0.13338 0.70047 0.0
C702 C 0.40894 0.13486 0.63808 0.0
C703 C 0.39396 0.11634 0.78715 0.0
C704 C 0.38717 0.13256 0.82282 0.0
C705 C 0.39832 0.09835 0.81471 0.0
C706 C 0.40681 0.08114 0.7806 0.0
C707 C 0.42395 0.08339 0.75074 0.0
C708 C 0.43182 0.06716 0.71835 0.0
C709 C 0.42276 0.04856 0.71584 0.0
C710 C 0.40583 0.04613 0.74586 0.0
C711 C 0.39789 0.06232 0.77826 0.0
H712 H 0.42888 0.03601 0.69075 0.0
H713 H 0.35528 0.19369 0.01188 0.0
H714 H 0.94888 0.83544 0.25387 0.0
H715 H 0.94423 0.83901 0.14434 0.0
H716 H 0.90508 0.88768 0.17661 0.0
H717 H 0.90993 0.88451 0.28648 0.0
H718 H 0.89198 0.86138 0.07909 0.0
H719 H 0.94987 0.89799 0.14817 0.0
H720 H 0.9823 0.90279 0.20103 0.0
H721 H 0.0049 0.85644 0.08321 0.0
H722 H 0.97252 0.85117 0.03019 0.0
H723 H 0.89346 0.90217 0.79028 0.0
H724 H 0.89531 0.89648 0.89852 0.0
H725 H 0.93933 0.85221 0.87043 0.0
H726 H 0.93829 0.85846 0.76262 0.0
H727 H 0.94956 0.87606 0.96653 0.0
H728 H 0.89178 0.83949 0.89645 0.0
H729 H 0.85921 0.83425 0.84471 0.0
H730 H 0.8364 0.88015 0.96356 0.0
H731 H 0.86884 0.88575 0.01586 0.0
C732 C 0.93934 0.84697 0.23789 0.0
C733 C 0.92996 0.85981 0.27932 0.0
C734 C 0.93663 0.84893 0.17517 0.0
C735 C 0.92449 0.86375 0.15245 0.0
C736 C 0.91451 0.87613 0.19328 0.0
C737 C 0.91727 0.87424 0.25616 0.0
C738 C 0.92277 0.86675 0.08621 0.0
C739 C 0.90451 0.86482 0.05448 0.0
C740 C 0.9392 0.87083 0.05406 0.0
C741 C 0.95872 0.87405 0.08561 0.0
C742 C 0.96172 0.88871 0.13385 0.0
C743 C 0.9801 0.89154 0.16379 0.0
C744 C 0.99564 0.87989 0.1456 0.0
C745 C 0.99284 0.86543 0.09731 0.0
C746 C 0.97448 0.86253 0.06726 0.0
C747 C 0.90366 0.89131 0.80689 0.0
C748 C 0.91577 0.88086 0.76719 0.0
C749 C 0.90451 0.88789 0.86891 0.0
C750 C 0.9173 0.87374 0.89261 0.0
C751 C 0.9293 0.86316 0.85318 0.0
C752 C 0.92855 0.86666 0.79122 0.0
C753 C 0.91875 0.87055 0.9589 0.0
C754 C 0.937 0.87253 0.99084 0.0
C755 C 0.90229 0.86648 0.99112 0.0
C756 C 0.88278 0.86316 0.95969 0.0
C757 C 0.87984 0.84856 0.91125 0.0
C758 C 0.86141 0.84551 0.88188 0.0
C759 C 0.84578 0.85691 0.90063 0.0
C760 C 0.84853 0.87134 0.94901 0.0
C761 C 0.86693 0.87444 0.97862 0.0
H762 H 0.83152 0.85453 0.87779 0.0
H763 H 0.00986 0.8821 0.16883 0.0
H764 H 0.07755 0.41741 0.6158 0.0
H765 H 0.07214 0.4142 0.50465 0.0
H766 H 0.1339 0.41643 0.48768 0.0
H767 H 0.13935 0.41983 0.59865 0.0
H768 H 0.11634 0.43996 0.41174 0.0
H769 H 0.10747 0.37267 0.46133 0.0
H770 H 0.09363 0.34551 0.51471 0.0
H771 H 0.03676 0.35876 0.43778 0.0
H772 H 0.05023 0.38622 0.38465 0.0
H773 H 0.11567 0.40783 0.09773 0.0
H774 H 0.1205 0.40877 0.20857 0.0
H775 H 0.05891 0.41455 0.2235 0.0
H776 H 0.05389 0.41423 0.11275 0.0
H777 H 0.07614 0.38659 0.29963 0.0
H778 H 0.08586 0.45434 0.25103 0.0
H779 H 0.10044 0.48105 0.19758 0.0
H780 H 0.15698 0.46581 0.27276 0.0
H781 H 0.14275 0.4388 0.32599 0.0
C782 C 0.08998 0.41696 0.58839 0.0
C783 C 0.10888 0.4189 0.61605 0.0
C784 C 0.08687 0.41513 0.52482 0.0
C785 C 0.10263 0.4149 0.48768 0.0
C786 C 0.12151 0.41664 0.51529 0.0
C787 C 0.12461 0.41862 0.57875 0.0
C788 C 0.09947 0.41347 0.42005 0.0
C789 C 0.10778 0.42811 0.38727 0.0
C790 C 0.08797 0.39825 0.38803 0.0
C791 C 0.07984 0.38164 0.41948 0.0
C792 C 0.09199 0.36989 0.45615 0.0
C793 C 0.08422 0.35443 0.48631 0.0
C794 C 0.06432 0.35045 0.47977 0.0
C795 C 0.05217 0.36189 0.44288 0.0
C796 C 0.05987 0.37739 0.41269 0.0
C797 C 0.10312 0.40954 0.12425 0.0
C798 C 0.08437 0.4111 0.09568 0.0
C799 C 0.10592 0.40994 0.18779 0.0
C800 C 0.09007 0.41182 0.22423 0.0
C801 C 0.07133 0.413 0.19615 0.0
C802 C 0.06851 0.41277 0.13262 0.0
C803 C 0.09309 0.413 0.29173 0.0
C804 C 0.08473 0.39837 0.32434 0.0
C805 C 0.10468 0.42812 0.32366 0.0
C806 C 0.11326 0.44442 0.29199 0.0
C807 C 0.10142 0.45658 0.25576 0.0
C808 C 0.10962 0.47179 0.22558 0.0
C809 C 0.12963 0.47509 0.23164 0.0
C810 C 0.14148 0.46322 0.26804 0.0
C811 C 0.13336 0.44796 0.29826 0.0
H812 H 0.13596 0.48688 0.20824 0.0
H813 H 0.05833 0.33848 0.50319 0.0
H814 H 0.54828 0.60778 0.79525 0.0
H815 H 0.55407 0.60608 0.68712 0.0
H816 H 0.6157 0.61059 0.73215 0.0
H817 H 0.60998 0.61303 0.84073 0.0
H818 H 0.60502 0.63438 0.64398 0.0
H819 H 0.59465 0.56634 0.67976 0.0
H820 H 0.57785 0.53747 0.71555 0.0
H821 H 0.52847 0.5478 0.59293 0.0
H822 H 0.54487 0.57693 0.557 0.0
H823 H 0.63233 0.60343 0.34532 0.0
H824 H 0.62756 0.60535 0.45474 0.0
H825 H 0.56569 0.60806 0.41539 0.0
H826 H 0.57042 0.60609 0.30577 0.0
H827 H 0.5773 0.58018 0.50053 0.0
H828 H 0.58848 0.64881 0.46611 0.0
H829 H 0.60631 0.67697 0.43002 0.0
H830 H 0.6556 0.66436 0.55035 0.0
H831 H 0.63815 0.63592 0.58653 0.0
C832 C 0.56307 0.60854 0.78234 0.0
C833 C 0.57865 0.61055 0.82688 0.0
C834 C 0.56637 0.60735 0.72037 0.0
C835 C 0.58533 0.60796 0.70147 0.0
C836 C 0.60095 0.61 0.7457 0.0
C837 C 0.59765 0.61121 0.8078 0.0
C838 C 0.58875 0.60692 0.6355 0.0
C839 C 0.59921 0.62236 0.61279 0.0
C840 C 0.58086 0.59143 0.59456 0.0
C841 C 0.57092 0.57395 0.61613 0.0
C842 C 0.58014 0.56257 0.6608 0.0
C843 C 0.5707 0.54613 0.68105 0.0
C844 C 0.55208 0.54084 0.65665 0.0
C845 C 0.54288 0.55194 0.61185 0.0
C846 C 0.55225 0.5684 0.59149 0.0
C847 C 0.61773 0.60445 0.36009 0.0
C848 C 0.60175 0.60465 0.31713 0.0
C849 C 0.61503 0.60565 0.42249 0.0
C850 C 0.59629 0.60694 0.44307 0.0
C851 C 0.58028 0.60712 0.40034 0.0
C852 C 0.58299 0.60616 0.33786 0.0
C853 C 0.59341 0.60768 0.50922 0.0
C854 C 0.5831 0.59216 0.53188 0.0
C855 C 0.60157 0.62299 0.55014 0.0
C856 C 0.61208 0.6401 0.52854 0.0
C857 C 0.60318 0.65193 0.48447 0.0
C858 C 0.61321 0.66796 0.46408 0.0
C859 C 0.63209 0.67242 0.48775 0.0
C860 C 0.64098 0.66087 0.53198 0.0
C861 C 0.63102 0.6448 0.55248 0.0
H862 H 0.63983 0.68485 0.47192 0.0
H863 H 0.5448 0.5281 0.67236 0.0
H864 H 0.19145 0.42023 0.92291 0.0
H865 H 0.22567 0.4123 0.9377 0.0
H866 H 0.21156 0.34982 0.93213 0.0
H867 H 0.177 0.35772 0.92035 0.0
H868 H 0.23988 0.35887 0.01844 0.0
H869 H 0.2286 0.37 0.80803 0.0
H870 H 0.21661 0.38762 0.71848 0.0
H871 H 0.25382 0.43729 0.777 0.0
H872 H 0.26583 0.42009 0.86742 0.0
H873 H 0.34103 0.33641 0.97882 0.0
H874 H 0.3056 0.33745 0.96189 0.0
H875 H 0.30753 0.40148 0.98328 0.0
H876 H 0.34259 0.40062 0.00202 0.0
H877 H 0.28501 0.38698 0.88024 0.0
H878 H 0.29377 0.376 0.09598 0.0
H879 H 0.30568 0.35757 0.18398 0.0
H880 H 0.27324 0.30601 0.11097 0.0
H881 H 0.26135 0.32406 0.02205 0.0
C882 C 0.1955 0.4048 0.92601 0.0
C883 C 0.18138 0.38961 0.92045 0.0
C884 C 0.21516 0.40027 0.93362 0.0
C885 C 0.22123 0.38043 0.93481 0.0
C886 C 0.20722 0.36523 0.93087 0.0
C887 C 0.18748 0.36976 0.92365 0.0
C888 C 0.24224 0.37576 0.9395 0.0
C889 C 0.2497 0.3647 0.98753 0.0
C890 C 0.25511 0.38343 0.89934 0.0
C891 C 0.24802 0.3938 0.84476 0.0
C892 C 0.23413 0.38474 0.80203 0.0
C893 C 0.22734 0.39464 0.75108 0.0
C894 C 0.23442 0.41358 0.74211 0.0
C895 C 0.24834 0.42263 0.78402 0.0
C896 C 0.25516 0.4128 0.83509 0.0
C897 C 0.33388 0.3507 0.98044 0.0
C898 C 0.34474 0.36844 0.99108 0.0
C899 C 0.31366 0.35126 0.97058 0.0
C900 C 0.30398 0.36955 0.97116 0.0
C901 C 0.31474 0.38721 0.98203 0.0
C902 C 0.33484 0.38667 0.99232 0.0
C903 C 0.28264 0.37061 0.96008 0.0
C904 C 0.27513 0.38094 0.91062 0.0
C905 C 0.26977 0.36211 0.99852 0.0
C906 C 0.27687 0.35129 0.05203 0.0
C907 C 0.28932 0.36067 0.09842 0.0
C908 C 0.29604 0.35031 0.14852 0.0
C909 C 0.29028 0.33061 0.15297 0.0
C910 C 0.27773 0.32125 0.1074 0.0
C911 C 0.27099 0.33154 0.05717 0.0
H912 H 0.29549 0.32261 0.19179 0.0
H913 H 0.22914 0.42123 0.70264 0.0
H914 H 0.56975 0.84746 0.37097 0.0
H915 H 0.56879 0.81417 0.3203 0.0
H916 H 0.58331 0.83831 0.15256 0.0
H917 H 0.58415 0.8719 0.20302 0.0
H918 H 0.55737 0.80605 0.13331 0.0
H919 H 0.61875 0.82159 0.23772 0.0
H920 H 0.64087 0.83387 0.32471 0.0
H921 H 0.62091 0.78794 0.43174 0.0
H922 H 0.59845 0.77556 0.34563 0.0
H923 H 0.61573 0.70559 0.11061 0.0
H924 H 0.61388 0.74144 0.1339 0.0
H925 H 0.55217 0.73637 0.14813 0.0
H926 H 0.55377 0.70066 0.12235 0.0
H927 H 0.60438 0.76083 0.2332 0.0
H928 H 0.52975 0.77919 0.11103 0.0
H929 H 0.50986 0.76824 0.01755 0.0
H930 H 0.56091 0.74788 0.93248 0.0
H931 H 0.58114 0.75896 0.02505 0.0
C932 C 0.57236 0.84578 0.32296 0.0
C933 C 0.57728 0.86228 0.29122 0.0
C934 C 0.57183 0.82673 0.2941 0.0
C935 C 0.57636 0.82375 0.23306 0.0
C936 C 0.57984 0.84031 0.19979 0.0
C937 C 0.5803 0.85948 0.22869 0.0
C938 C 0.57925 0.80326 0.20648 0.0
C939 C 0.56763 0.79612 0.15498 0.0
C940 C 0.5931 0.79055 0.23369 0.0
C941 C 0.60681 0.79774 0.28535 0.0
C942 C 0.61899 0.81418 0.27993 0.0
C943 C 0.63159 0.82116 0.32907 0.0
C944 C 0.63226 0.81172 0.38376 0.0
C945 C 0.62037 0.79525 0.38936 0.0
C946 C 0.60771 0.78823 0.34037 0.0
C947 C 0.6017 0.71214 0.11757 0.0
C948 C 0.58491 0.70019 0.11471 0.0
C949 C 0.60069 0.73263 0.13136 0.0
C950 C 0.58287 0.74167 0.1424 0.0
C951 C 0.56605 0.72983 0.13896 0.0
C952 C 0.56704 0.70933 0.125 0.0
C953 C 0.58205 0.76326 0.16088 0.0
C954 C 0.59414 0.77068 0.21109 0.0
C955 C 0.56898 0.7763 0.13139 0.0
C956 C 0.55694 0.76975 0.07527 0.0
C957 C 0.53674 0.77245 0.07229 0.0
C958 C 0.5254 0.76621 0.01947 0.0
C959 C 0.53411 0.75731 0.96918 0.0
C960 C 0.55418 0.7547 0.97154 0.0
C961 C 0.56558 0.76093 0.02422 0.0
H962 H 0.5253 0.75248 0.92834 0.0
H963 H 0.64202 0.81715 0.42176 0.0
H964 H 0.30602 0.12376 0.49502 0.0
H965 H 0.27178 0.12095 0.51422 0.0
H966 H 0.25602 0.12585 0.32285 0.0
H967 H 0.29049 0.12916 0.3037 0.0
H968 H 0.23001 0.14488 0.39257 0.0
H969 H 0.25813 0.08057 0.37998 0.0
H970 H 0.28242 0.05486 0.40228 0.0
H971 H 0.2701 0.05974 0.59114 0.0
H972 H 0.24594 0.08573 0.57017 0.0
H973 H 0.13524 0.10656 0.44741 0.0
H974 H 0.1669 0.10869 0.4035 0.0
H975 H 0.19537 0.11169 0.58434 0.0
H976 H 0.16405 0.10969 0.62823 0.0
H977 H 0.21335 0.08585 0.50234 0.0
H978 H 0.18766 0.15311 0.51332 0.0
H979 H 0.16318 0.17843 0.48864 0.0
H980 H 0.17034 0.16651 0.29754 0.0
H981 H 0.19468 0.1409 0.32112 0.0
C982 C 0.29523 0.12454 0.45721 0.0
C983 C 0.30086 0.12651 0.39784 0.0
C984 C 0.27568 0.12283 0.46812 0.0
C985 C 0.26134 0.12265 0.41972 0.0
C986 C 0.26684 0.1258 0.36081 0.0
C987 C 0.28649 0.12774 0.34994 0.0
C988 C 0.24087 0.11815 0.43089 0.0
C989 C 0.2263 0.13179 0.41554 0.0
C990 C 0.23596 0.10103 0.46078 0.0
C991 C 0.2503 0.0852 0.47353 0.0
C992 C 0.26067 0.07625 0.42634 0.0
C993 C 0.27441 0.06162 0.43874 0.0
C994 C 0.27782 0.05569 0.4981 0.0
C995 C 0.26745 0.06435 0.54518 0.0
C996 C 0.25371 0.07902 0.53304 0.0
C997 C 0.14829 0.10745 0.47764 0.0
C998 C 0.14718 0.10802 0.54129 0.0
C999 C 0.16633 0.10877 0.45254 0.0
C1000 C 0.18346 0.11048 0.49074 0.0
C1001 C 0.18234 0.11038 0.55405 0.0
C1002 C 0.16441 0.10931 0.57906 0.0
C1003 C 0.20269 0.11289 0.46588 0.0
C1004 C 0.21702 0.09877 0.47849 0.0
C1005 C 0.20728 0.12942 0.43299 0.0
C1006 C 0.19281 0.14494 0.41893 0.0
C1007 C 0.1839 0.15578 0.46602 0.0
C1008 C 0.17007 0.1702 0.45224 0.0
C1009 C 0.16516 0.17403 0.39155 0.0
C1010 C 0.17412 0.1635 0.34452 0.0
C1011 C 0.18794 0.14904 0.35807 0.0
H1012 H 0.15445 0.1852 0.38097 0.0
H1013 H 0.28847 0.04437 0.50762 0.0
H1014 H 0.90145 0.65459 0.69686 0.0
H1015 H 0.91118 0.68534 0.65402 0.0
H1016 H 0.91346 0.71559 0.83326 0.0
H1017 H 0.90321 0.68508 0.87604 0.0
H1018 H 0.8965 0.73846 0.75593 0.0
H1019 H 0.95538 0.70145 0.76015 0.0
H1020 H 0.97626 0.67244 0.74056 0.0
H1021 H 0.96438 0.67576 0.54759 0.0
H1022 H 0.94322 0.70465 0.56604 0.0
H1023 H 0.93809 0.8253 0.65224 0.0
H1024 H 0.93699 0.79501 0.7076 0.0
H1025 H 0.92654 0.76007 0.53729 0.0
H1026 H 0.92766 0.79011 0.48187 0.0
H1027 H 0.95031 0.74068 0.61845 0.0
H1028 H 0.88911 0.77583 0.61677 0.0
H1029 H 0.86955 0.80583 0.63652 0.0
H1030 H 0.88708 0.80637 0.82749 0.0
H1031 H 0.90703 0.77656 0.80863 0.0
C1032 C 0.90411 0.66775 0.72722 0.0
C1033 C 0.90157 0.66733 0.78992 0.0
C1034 C 0.90977 0.68534 0.7027 0.0
C1035 C 0.91335 0.70281 0.74047 0.0
C1036 C 0.91082 0.70237 0.80309 0.0
C1037 C 0.90498 0.68486 0.82751 0.0
C1038 C 0.91924 0.72163 0.71454 0.0
C1039 C 0.9085 0.73896 0.72679 0.0
C1040 C 0.93476 0.72241 0.67584 0.0
C1041 C 0.94759 0.70512 0.66452 0.0
C1042 C 0.95712 0.69592 0.71354 0.0
C1043 C 0.96902 0.6795 0.70264 0.0
C1044 C 0.97161 0.67223 0.64287 0.0
C1045 C 0.96235 0.6814 0.59387 0.0
C1046 C 0.95042 0.69781 0.60451 0.0
C1047 C 0.93588 0.81117 0.62651 0.0
C1048 C 0.9326 0.81022 0.56264 0.0
C1049 C 0.93523 0.79384 0.65824 0.0
C1050 C 0.93135 0.77529 0.62662 0.0
C1051 C 0.92947 0.77419 0.56271 0.0
C1052 C 0.93003 0.79145 0.5311 0.0
C1053 C 0.92747 0.75727 0.6595 0.0
C1054 C 0.93851 0.74013 0.64835 0.0
C1055 C 0.91231 0.75668 0.69944 0.0
C1056 C 0.89969 0.77409 0.71122 0.0
C1057 C 0.88883 0.78239 0.66294 0.0
C1058 C 0.8777 0.79937 0.67395 0.0
C1059 C 0.87712 0.80804 0.73319 0.0
C1060 C 0.88758 0.79967 0.7816 0.0
C1061 C 0.89879 0.78273 0.77079 0.0
H1062 H 0.86854 0.82123 0.74152 0.0
H1063 H 0.98082 0.65952 0.63453 0.0
H1064 H 0.8351 0.89445 0.50663 0.0
H1065 H 0.79991 0.89538 0.49878 0.0
H1066 H 0.79761 0.83129 0.48061 0.0
H1067 H 0.8332 0.83026 0.48596 0.0
H1068 H 0.77249 0.84664 0.39921 0.0
H1069 H 0.78545 0.85627 0.6126 0.0
H1070 H 0.80138 0.87028 0.70958 0.0
H1071 H 0.77987 0.92822 0.672 0.0
H1072 H 0.76405 0.91463 0.57432 0.0
H1073 H 0.66897 0.85952 0.41521 0.0
H1074 H 0.70212 0.84881 0.44209 0.0
H1075 H 0.72224 0.90939 0.44283 0.0
H1076 H 0.68952 0.92015 0.41384 0.0
H1077 H 0.73663 0.8893 0.54508 0.0
H1078 H 0.72845 0.87905 0.32342 0.0
H1079 H 0.71238 0.86426 0.22757 0.0
H1080 H 0.72448 0.80572 0.28557 0.0
H1081 H 0.7404 0.82019 0.3822 0.0
C1082 C 0.82719 0.88051 0.50038 0.0
C1083 C 0.837 0.86227 0.49622 0.0
C1084 C 0.80701 0.88106 0.49681 0.0
C1085 C 0.79608 0.8634 0.49002 0.0
C1086 C 0.80576 0.8451 0.4862 0.0
C1087 C 0.82607 0.84453 0.4896 0.0
C1088 C 0.77457 0.86442 0.48446 0.0
C1089 C 0.76458 0.85556 0.43191 0.0
C1090 C 0.76422 0.87613 0.52695 0.0
C1091 C 0.77363 0.88442 0.58589 0.0
C1092 C 0.78422 0.87202 0.62479 0.0
C1093 C 0.79322 0.87989 0.67994 0.0
C1094 C 0.79166 0.90013 0.69691 0.0
C1095 C 0.78106 0.91254 0.6588 0.0
C1096 C 0.77204 0.90475 0.60357 0.0
C1097 C 0.68046 0.87057 0.42065 0.0
C1098 C 0.67647 0.89075 0.41251 0.0
C1099 C 0.69936 0.86441 0.43637 0.0
C1100 C 0.71459 0.87833 0.44453 0.0
C1101 C 0.71064 0.89845 0.43731 0.0
C1102 C 0.69185 0.90458 0.42104 0.0
C1103 C 0.73483 0.87212 0.45899 0.0
C1104 C 0.74453 0.88 0.51325 0.0
C1105 C 0.74484 0.85935 0.41849 0.0
C1106 C 0.73539 0.85069 0.36029 0.0
C1107 C 0.72753 0.86302 0.31594 0.0
C1108 C 0.71848 0.8547 0.26144 0.0
C1109 C 0.71735 0.83406 0.25058 0.0
C1110 C 0.72533 0.8217 0.29411 0.0
C1111 C 0.73437 0.82995 0.34873 0.0
H1112 H 0.71034 0.82764 0.20835 0.0
H1113 H 0.79864 0.9062 0.73962 0.0
H1114 H 0.08773 0.2032 0.53967 0.0
H1115 H 0.08455 0.23886 0.56552 0.0
H1116 H 0.07438 0.22686 0.75074 0.0
H1117 H 0.07745 0.19123 0.72516 0.0
H1118 H 0.04949 0.25395 0.70977 0.0
H1119 H 0.11883 0.24341 0.70909 0.0
H1120 H 0.1489 0.23258 0.66295 0.0
H1121 H 0.13844 0.27321 0.52233 0.0
H1122 H 0.10815 0.28409 0.56723 0.0
H1123 H 0.07586 0.33973 0.89278 0.0
H1124 H 0.07162 0.30731 0.83805 0.0
H1125 H 0.08031 0.33353 0.66843 0.0
H1126 H 0.08482 0.3663 0.72354 0.0
H1127 H 0.10293 0.30114 0.68325 0.0
H1128 H 0.03602 0.31526 0.69369 0.0
H1129 H 0.00625 0.32631 0.74109 0.0
H1130 H 0.01198 0.27931 0.86338 0.0
H1131 H 0.04195 0.26814 0.81735 0.0
C1132 C 0.08498 0.20817 0.58604 0.0
C1133 C 0.08293 0.19437 0.63046 0.0
C1134 C 0.08312 0.22857 0.6007 0.0
C1135 C 0.07937 0.23558 0.66022 0.0
C1136 C 0.07718 0.22181 0.70445 0.0
C1137 C 0.07894 0.20145 0.68977 0.0
C1138 C 0.07789 0.25723 0.67708 0.0
C1139 C 0.06122 0.26425 0.70431 0.0
C1140 C 0.09287 0.27085 0.66784 0.0
C1141 C 0.11112 0.26439 0.64108 0.0
C1142 C 0.12287 0.24992 0.66806 0.0
C1143 C 0.13996 0.24379 0.64218 0.0
C1144 C 0.14554 0.25215 0.58962 0.0
C1145 C 0.13407 0.26672 0.56296 0.0
C1146 C 0.11695 0.27287 0.58861 0.0
C1147 C 0.07658 0.33872 0.84369 0.0
C1148 C 0.08072 0.35559 0.81253 0.0
C1149 C 0.07404 0.32015 0.81235 0.0
C1150 C 0.07549 0.31797 0.74903 0.0
C1151 C 0.07906 0.33488 0.71729 0.0
C1152 C 0.08151 0.3536 0.74875 0.0
C1153 C 0.07478 0.29773 0.71772 0.0
C1154 C 0.09102 0.29095 0.68772 0.0
C1155 C 0.0594 0.28432 0.72444 0.0
C1156 C 0.04132 0.29092 0.75221 0.0
C1157 C 0.03102 0.30736 0.73097 0.0
C1158 C 0.01409 0.31363 0.75756 0.0
C1159 C 0.00724 0.30353 0.80527 0.0
C1160 C 0.0173 0.28712 0.82641 0.0
C1161 C 0.03424 0.28079 0.80001 0.0
H1162 H 0.99414 0.30842 0.8258 0.0
H1163 H 0.15878 0.24739 0.56965 0.0
H1164 H 0.65582 0.64964 0.07116 0.0
H1165 H 0.68662 0.65173 0.0246 0.0
H1166 H 0.67934 0.59112 0.94965 0.0
H1167 H 0.64772 0.58945 0.99375 0.0
H1168 H 0.71762 0.63485 0.04741 0.0
H1169 H 0.70611 0.58236 0.82643 0.0
H1170 H 0.67969 0.57241 0.74937 0.0
H1171 H 0.6503 0.62725 0.78985 0.0
H1172 H 0.67669 0.63768 0.86636 0.0
H1173 H 0.80771 0.60458 0.95577 0.0
H1174 H 0.77419 0.60604 0.98253 0.0
H1175 H 0.75879 0.63791 0.82286 0.0
H1176 H 0.79233 0.63548 0.79364 0.0
H1177 H 0.73137 0.61187 0.83623 0.0
H1178 H 0.76326 0.66218 0.96544 0.0
H1179 H 0.78806 0.67807 0.03868 0.0
H1180 H 0.77431 0.63768 0.17248 0.0
H1181 H 0.74956 0.62136 0.09975 0.0
C1182 C 0.66071 0.63679 0.04431 0.0
C1183 C 0.6495 0.61931 0.03642 0.0
C1184 C 0.67836 0.63799 0.01771 0.0
C1185 C 0.68545 0.6216 0.98351 0.0
C1186 C 0.67411 0.60413 0.97485 0.0
C1187 C 0.6561 0.6031 1.00035 0.0
C1188 C 0.70519 0.62265 0.96039 0.0
C1189 C 0.72052 0.62985 1.00111 0.0
C1190 C 0.70907 0.61667 0.89951 0.0
C1191 C 0.69331 0.6107 0.85262 0.0
C1192 C 0.69407 0.59234 0.81866 0.0
C1193 C 0.67909 0.58662 0.7751 0.0
C1194 C 0.6633 0.59917 0.76486 0.0
C1195 C 0.66251 0.61752 0.79796 0.0
C1196 C 0.67747 0.62334 0.84146 0.0
C1197 C 0.79722 0.61173 0.92579 0.0
C1198 C 0.8028 0.61986 0.87235 0.0
C1199 C 0.77803 0.61274 0.94159 0.0
C1200 C 0.76395 0.6223 0.90517 0.0
C1201 C 0.76939 0.63048 0.85176 0.0
C1202 C 0.78864 0.6293 0.83553 0.0
C1203 C 0.74366 0.62376 0.92368 0.0
C1204 C 0.72831 0.61697 0.8823 0.0
C1205 C 0.73954 0.63095 0.98323 0.0
C1206 C 0.75464 0.64045 0.02695 0.0
C1207 C 0.76564 0.65656 0.01029 0.0
C1208 C 0.77966 0.66567 0.05174 0.0
C1209 C 0.78274 0.65889 0.11018 0.0
C1210 C 0.77188 0.64292 0.1272 0.0
C1211 C 0.75784 0.63375 0.0859 0.0
H1212 H 0.79348 0.66609 0.14234 0.0
H1213 H 0.65171 0.59469 0.73121 0.0
H1214 H 0.4413 0.29501 0.01144 0.0
H1215 H 0.4369 0.26488 0.06483 0.0
H1216 H 0.42672 0.30057 0.22941 0.0
H1217 H 0.43175 0.33079 0.17661 0.0
H1218 H 0.44564 0.2686 0.25835 0.0
H1219 H 0.38871 0.28089 0.13293 0.0
H1220 H 0.36977 0.28811 0.03808 0.0
H1221 H 0.38818 0.23308 0.95159 0.0
H1222 H 0.40736 0.22555 0.04595 0.0
H1223 H 0.393 0.19507 0.39775 0.0
H1224 H 0.40299 0.22471 0.34993 0.0
H1225 H 0.41728 0.18849 0.19058 0.0
H1226 H 0.40702 0.15868 0.23786 0.0
H1227 H 0.39662 0.22072 0.16002 0.0
H1228 H 0.45302 0.209 0.29538 0.0
H1229 H 0.47038 0.20371 0.39456 0.0
H1230 H 0.45006 0.25988 0.46798 0.0
H1231 H 0.43226 0.26529 0.36961 0.0
C1232 C 0.43844 0.29644 0.05928 0.0
C1233 C 0.43673 0.31529 0.08963 0.0
C1234 C 0.43579 0.2792 0.08969 0.0
C1235 C 0.43092 0.28042 0.15073 0.0
C1236 C 0.43032 0.29922 0.1822 0.0
C1237 C 0.43325 0.31651 0.15197 0.0
C1238 C 0.42552 0.26217 0.18051 0.0
C1239 C 0.4348 0.25824 0.2371 0.0
C1240 C 0.41141 0.24853 0.15283 0.0
C1241 C 0.39962 0.25276 0.09632 0.0
C1242 C 0.38879 0.27036 0.09361 0.0
C1243 C 0.37799 0.27448 0.03999 0.0
C1244 C 0.37779 0.26104 0.98886 0.0
C1245 C 0.38833 0.24342 0.99134 0.0
C1246 C 0.39915 0.23921 0.04489 0.0
C1247 C 0.39833 0.19334 0.3526 0.0
C1248 C 0.39923 0.17444 0.32173 0.0
C1249 C 0.40416 0.21034 0.32544 0.0
C1250 C 0.41116 0.20885 0.26696 0.0
C1251 C 0.41202 0.19001 0.23587 0.0
C1252 C 0.40618 0.17297 0.26302 0.0
C1253 C 0.41694 0.227 0.23748 0.0
C1254 C 0.4076 0.23099 0.18103 0.0
C1255 C 0.43068 0.24087 0.26597 0.0
C1256 C 0.44125 0.23751 0.32523 0.0
C1257 C 0.45214 0.22014 0.33283 0.0
C1258 C 0.46206 0.21713 0.3889 0.0
C1259 C 0.46131 0.23143 0.43757 0.0
C1260 C 0.45063 0.24879 0.43028 0.0
C1261 C 0.44063 0.25185 0.37438 0.0
H1262 H 0.46902 0.22908 0.48091 0.0
H1263 H 0.36945 0.26428 0.94734 0.0
loop_
_geom_bond_atom_site_label_1
_geom_bond_atom_site_label_2
_geom_bond_distance
_geom_bond_site_symmetry_2
_ccdc_geom_bond_type
C0 C1 1.351 . S
C0 N3 1.368 . S
C0 H5 0.931 . S
C1 C0 1.351 . S
C1 N2 1.373 . S
C1 H29 0.930 . S
N2 C1 1.373 . S
N2 C4 1.340 . S
N3 C0 1.368 . S
N3 C4 1.321 . S
N3 Co6 2.135 . S
C4 N2 1.340 . S
C4 N3 1.321 . S
C4 H28 0.930 . S
H5 C0 0.931 . S
Co6 N3 2.135 . S
Co6 N9 2.121 1_554 S
Co6 O14 2.055 . S
Co6 O17 2.039 . S
Co6 N20 2.140 . S
C7 O8 1.227 . S
C7 O17 1.265 . S
O8 C7 1.227 . S
N9 Co6 2.121 1_556 S
N9 C11 1.375 . S
N9 C12 1.313 . S
C10 C11 1.338 . S
C10 N13 1.377 . S
C10 H30 0.930 . S
C11 N9 1.375 . S
C11 C10 1.338 . S
C11 H15 0.931 . S
C12 N9 1.313 . S
C12 N13 1.344 . S
C12 H16 0.930 . S
N13 C10 1.377 . S
N13 C12 1.344 . S
O14 Co6 2.055 . S
O14 C18 1.253 . S
H15 C11 0.931 . S
H16 C12 0.930 . S
O17 Co6 2.039 . S
O17 C7 1.265 . S
C18 O14 1.253 . S
C18 O19 1.227 . S
O19 C18 1.227 . S
N20 Co6 2.140 . S
N20 C23 1.346 . S
N20 C24 1.345 . S
C21 C22 1.387 . S
C21 C25 1.391 . S
C22 C21 1.387 . S
C22 C23 1.369 . S
C22 H31 0.929 . S
C23 N20 1.346 . S
C23 C22 1.369 . S
C23 H26 0.928 . S
C24 N20 1.345 . S
C24 C25 1.371 . S
C24 H27 0.931 . S
C25 C21 1.391 . S
C25 C24 1.371 . S
C25 H32 0.930 1_554 S
H26 C23 0.928 . S
H27 C24 0.931 . S
H28 C4 0.930 . S
H29 C1 0.930 . S
H30 C10 0.930 . S
H31 C22 0.929 . S
H32 C25 0.930 1_556 S
C33 C34 1.351 . S
C33 N36 1.368 . S
C33 H38 0.931 . S
C34 C33 1.351 . S
C34 N35 1.373 . S
C34 H62 0.930 . S
N35 C34 1.373 . S
N35 C37 1.340 . S
N36 C33 1.368 . S
N36 C37 1.321 . S
N36 Co39 2.135 . S
C37 N35 1.340 . S
C37 N36 1.321 . S
C37 H61 0.930 . S
H38 C33 0.931 . S
Co39 N36 2.135 . S
Co39 N42 2.121 . S
Co39 O47 2.055 . S
Co39 O50 2.039 . S
Co39 N53 2.140 . S
C40 O41 1.227 . S
C40 O50 1.265 . S
O41 C40 1.227 . S
N42 Co39 2.121 . S
N42 C44 1.375 . S
N42 C45 1.313 . S
C43 C44 1.338 . S
C43 N46 1.377 . S
C43 H63 0.930 . S
C44 N42 1.375 . S
C44 C43 1.338 . S
C44 H48 0.931 . S
C45 N42 1.313 . S
C45 N46 1.344 . S
C45 H49 0.930 . S
N46 C43 1.377 . S
N46 C45 1.344 . S
O47 Co39 2.055 . S
O47 C51 1.253 . S
H48 C44 0.931 . S
H49 C45 0.930 . S
O50 Co39 2.039 . S
O50 C40 1.265 . S
C51 O47 1.253 . S
C51 O52 1.227 . S
O52 C51 1.227 . S
N53 Co39 2.140 . S
N53 C56 1.346 . S
N53 C57 1.345 . S
C54 C55 1.387 . S
C54 C58 1.391 . S
C55 C54 1.387 . S
C55 C56 1.369 . S
C55 H64 0.929 . S
C56 N53 1.346 . S
C56 C55 1.369 . S
C56 H59 0.928 . S
C57 N53 1.345 . S
C57 C58 1.371 . S
C57 H60 0.931 . S
C58 C54 1.391 . S
C58 C57 1.371 . S
C58 H65 0.930 . S
H59 C56 0.928 . S
H60 C57 0.931 . S
H61 C37 0.930 . S
H62 C34 0.930 . S
H63 C43 0.930 . S
H64 C55 0.929 . S
H65 C58 0.930 . S
C66 C67 1.351 . S
C66 N69 1.368 . S
C66 H71 0.931 . S
C67 C66 1.351 . S
C67 N68 1.373 . S
C67 H95 0.930 . S
N68 C67 1.373 . S
N68 C70 1.340 . S
N69 C66 1.368 . S
N69 C70 1.321 . S
N69 Co72 2.135 . S
C70 N68 1.340 . S
C70 N69 1.321 . S
C70 H94 0.930 . S
H71 C66 0.931 . S
Co72 N69 2.135 . S
Co72 N75 2.121 . S
Co72 O80 2.055 . S
Co72 O83 2.039 . S
Co72 N86 2.140 . S
C73 O74 1.227 . S
C73 O83 1.265 . S
O74 C73 1.227 . S
N75 Co72 2.121 . S
N75 C77 1.375 . S
N75 C78 1.313 . S
C76 C77 1.338 . S
C76 N79 1.377 . S
C76 H96 0.930 . S
C77 N75 1.375 . S
C77 C76 1.338 . S
C77 H81 0.931 . S
C78 N75 1.313 . S
C78 N79 1.344 . S
C78 H82 0.930 . S
N79 C76 1.377 . S
N79 C78 1.344 . S
O80 Co72 2.055 . S
O80 C84 1.253 . S
H81 C77 0.931 . S
H82 C78 0.930 . S
O83 Co72 2.039 . S
O83 C73 1.265 . S
C84 O80 1.253 . S
C84 O85 1.227 . S
O85 C84 1.227 . S
N86 Co72 2.140 . S
N86 C89 1.346 . S
N86 C90 1.345 . S
C87 C88 1.387 . S
C87 C91 1.391 . S
C88 C87 1.387 . S
C88 C89 1.369 . S
C88 H97 0.929 . S
C89 N86 1.346 . S
C89 C88 1.369 . S
C89 H92 0.928 . S
C90 N86 1.345 . S
C90 C91 1.371 . S
C90 H93 0.931 . S
C91 C87 1.391 . S
C91 C90 1.371 . S
C91 H98 0.930 . S
H92 C89 0.928 . S
H93 C90 0.931 . S
H94 C70 0.930 . S
H95 C67 0.930 . S
H96 C76 0.930 . S
H97 C88 0.929 . S
H98 C91 0.930 . S
C99 C100 1.351 . S
C99 N102 1.368 . S
C99 H104 0.931 . S
C100 C99 1.351 . S
C100 N101 1.373 . S
C100 H128 0.930 . S
N101 C100 1.373 . S
N101 C103 1.340 . S
N102 C99 1.368 . S
N102 C103 1.321 . S
N102 Co105 2.135 . S
C103 N101 1.340 . S
C103 N102 1.321 . S
C103 H127 0.930 . S
H104 C99 0.931 . S
Co105 N102 2.135 . S
Co105 N108 2.121 . S
Co105 O113 2.055 . S
Co105 O116 2.039 . S
Co105 N119 2.140 . S
C106 O107 1.227 . S
C106 O116 1.265 . S
O107 C106 1.227 . S
N108 Co105 2.121 . S
N108 C110 1.375 . S
N108 C111 1.313 . S
C109 C110 1.338 1_554 S
C109 N112 1.377 . S
C109 H129 0.930 . S
C110 N108 1.375 . S
C110 C109 1.338 1_556 S
C110 H114 0.931 . S
C111 N108 1.313 . S
C111 N112 1.344 1_556 S
C111 H115 0.930 . S
N112 C109 1.377 . S
N112 C111 1.344 1_554 S
O113 Co105 2.055 . S
O113 C117 1.253 . S
H114 C110 0.931 . S
H115 C111 0.930 . S
O116 Co105 2.039 . S
O116 C106 1.265 . S
C117 O113 1.253 . S
C117 O118 1.227 . S
O118 C117 1.227 . S
N119 Co105 2.140 . S
N119 C122 1.346 . S
N119 C123 1.345 . S
C120 C121 1.387 . S
C120 C124 1.391 . S
C121 C120 1.387 . S
C121 C122 1.369 . S
C121 H130 0.929 . S
C122 N119 1.346 . S
C122 C121 1.369 . S
C122 H125 0.928 . S
C123 N119 1.345 . S
C123 C124 1.371 . S
C123 H126 0.931 . S
C124 C120 1.391 . S
C124 C123 1.371 . S
C124 H131 0.930 . S
H125 C122 0.928 . S
H126 C123 0.931 . S
H127 C103 0.930 . S
H128 C100 0.930 . S
H129 C109 0.930 . S
H130 C121 0.929 . S
H131 C124 0.930 . S
C132 C133 1.351 . S
C132 N135 1.368 . S
C132 H137 0.931 . S
C133 C132 1.351 . S
C133 N134 1.373 . S
C133 H161 0.930 . S
N134 C133 1.373 . S
N134 C136 1.340 . S
N135 C132 1.368 . S
N135 C136 1.321 . S
N135 Co138 2.135 . S
C136 N134 1.340 . S
C136 N135 1.321 . S
C136 H160 0.930 . S
H137 C132 0.931 . S
Co138 N135 2.135 . S
Co138 N141 2.121 . S
Co138 O146 2.055 . S
Co138 O149 2.039 . S
Co138 N152 2.140 . S
C139 O140 1.227 . S
C139 O149 1.265 . S
O140 C139 1.227 . S
N141 Co138 2.121 . S
N141 C143 1.375 . S
N141 C144 1.313 . S
C142 C143 1.338 . S
C142 N145 1.377 . S
C142 H162 0.930 . S
C143 N141 1.375 . S
C143 C142 1.338 . S
C143 H147 0.931 . S
C144 N141 1.313 . S
C144 N145 1.344 . S
C144 H148 0.930 . S
N145 C142 1.377 . S
N145 C144 1.344 . S
O146 Co138 2.055 . S
O146 C150 1.253 . S
H147 C143 0.931 . S
H148 C144 0.930 . S
O149 Co138 2.039 . S
O149 C139 1.265 . S
C150 O146 1.253 . S
C150 O151 1.227 . S
O151 C150 1.227 . S
N152 Co138 2.140 . S
N152 C155 1.346 . S
N152 C156 1.345 . S
C153 C154 1.387 . S
C153 C157 1.391 . S
C154 C153 1.387 . S
C154 C155 1.369 . S
C154 H163 0.929 . S
C155 N152 1.346 . S
C155 C154 1.369 . S
C155 H158 0.928 . S
C156 N152 1.345 . S
C156 C157 1.371 . S
C156 H159 0.931 . S
C157 C153 1.391 . S
C157 C156 1.371 . S
C157 H164 0.930 . S
H158 C155 0.928 . S
H159 C156 0.931 . S
H160 C136 0.930 . S
H161 C133 0.930 . S
H162 C142 0.930 . S
H163 C154 0.929 . S
H164 C157 0.930 . S
C165 C166 1.351 . S
C165 N168 1.368 . S
C165 H170 0.931 . S
C166 C165 1.351 . S
C166 N167 1.373 . S
C166 H194 0.930 . S
N167 C166 1.373 . S
N167 C169 1.340 . S
N168 C165 1.368 . S
N168 C169 1.321 . S
N168 Co171 2.135 . S
C169 N167 1.340 . S
C169 N168 1.321 . S
C169 H193 0.930 . S
H170 C165 0.931 . S
Co171 N168 2.135 . S
Co171 N174 2.121 . S
Co171 O179 2.055 . S
Co171 O182 2.039 . S
Co171 N185 2.140 . S
C172 O173 1.227 . S
C172 O182 1.265 . S
O173 C172 1.227 . S
N174 Co171 2.121 . S
N174 C176 1.375 . S
N174 C177 1.313 . S
C175 C176 1.338 . S
C175 N178 1.377 . S
C175 H195 0.930 . S
C176 N174 1.375 . S
C176 C175 1.338 . S
C176 H180 0.931 . S
C177 N174 1.313 . S
C177 N178 1.344 . S
C177 H181 0.930 . S
N178 C175 1.377 . S
N178 C177 1.344 . S
O179 Co171 2.055 . S
O179 C183 1.253 . S
H180 C176 0.931 . S
H181 C177 0.930 . S
O182 Co171 2.039 . S
O182 C172 1.265 . S
C183 O179 1.253 . S
C183 O184 1.227 . S
O184 C183 1.227 . S
N185 Co171 2.140 . S
N185 C188 1.346 . S
N185 C189 1.345 . S
C186 C187 1.387 . S
C186 C190 1.391 . S
C187 C186 1.387 . S
C187 C188 1.369 . S
C187 H196 0.929 . S
C188 N185 1.346 . S
C188 C187 1.369 . S
C188 H191 0.928 . S
C189 N185 1.345 . S
C189 C190 1.371 . S
C189 H192 0.931 . S
C190 C186 1.391 . S
C190 C189 1.371 . S
C190 H197 0.930 . S
H191 C188 0.928 . S
H192 C189 0.931 . S
H193 C169 0.930 . S
H194 C166 0.930 . S
H195 C175 0.930 . S
H196 C187 0.929 . S
H197 C190 0.930 . S
C198 C199 1.351 . S
C198 N201 1.368 . S
C198 H203 0.931 . S
C199 C198 1.351 . S
C199 N200 1.373 . S
C199 H227 0.930 . S
N200 C199 1.373 . S
N200 C202 1.340 . S
N201 C198 1.368 . S
N201 C202 1.321 . S
N201 Co204 2.135 . S
C202 N200 1.340 . S
C202 N201 1.321 . S
C202 H226 0.930 . S
H203 C198 0.931 . S
Co204 N201 2.135 . S
Co204 N207 2.121 . S
Co204 O212 2.055 . S
Co204 O215 2.039 . S
Co204 N218 2.140 . S
C205 O206 1.227 . S
C205 O215 1.265 . S
O206 C205 1.227 . S
N207 Co204 2.121 . S
N207 C209 1.375 . S
N207 C210 1.313 . S
C208 C209 1.338 1_554 S
C208 N211 1.377 . S
C208 H228 0.930 . S
C209 N207 1.375 . S
C209 C208 1.338 1_556 S
C209 H213 0.931 . S
C210 N207 1.313 . S
C210 N211 1.344 1_556 S
C210 H214 0.930 . S
N211 C208 1.377 . S
N211 C210 1.344 1_554 S
O212 Co204 2.055 . S
O212 C216 1.253 . S
H213 C209 0.931 . S
H214 C210 0.930 . S
O215 Co204 2.039 . S
O215 C205 1.265 . S
C216 O212 1.253 . S
C216 O217 1.227 . S
O217 C216 1.227 . S
N218 Co204 2.140 . S
N218 C221 1.346 . S
N218 C222 1.345 . S
C219 C220 1.387 . S
C219 C223 1.391 . S
C220 C219 1.387 . S
C220 C221 1.369 . S
C220 H229 0.929 . S
C221 N218 1.346 . S
C221 C220 1.369 . S
C221 H224 0.928 . S
C222 N218 1.345 . S
C222 C223 1.371 . S
C222 H225 0.931 . S
C223 C219 1.391 . S
C223 C222 1.371 . S
C223 H230 0.930 . S
H224 C221 0.928 . S
H225 C222 0.931 . S
H226 C202 0.930 . S
H227 C199 0.930 . S
H228 C208 0.930 . S
H229 C220 0.929 . S
H230 C223 0.930 . S
C231 C232 1.351 . S
C231 N234 1.368 . S
C231 H236 0.931 . S
C232 C231 1.351 . S
C232 N233 1.373 . S
C232 H260 0.930 . S
N233 C232 1.373 . S
N233 C235 1.340 . S
N234 C231 1.368 . S
N234 C235 1.321 . S
N234 Co237 2.135 1_556 S
C235 N233 1.340 . S
C235 N234 1.321 . S
C235 H259 0.930 . S
H236 C231 0.931 . S
Co237 N234 2.135 1_554 S
Co237 N240 2.121 . S
Co237 O245 2.055 . S
Co237 O248 2.039 1_554 S
Co237 N251 2.140 . S
C238 O239 1.227 . S
C238 O248 1.265 . S
O239 C238 1.227 . S
N240 Co237 2.121 . S
N240 C242 1.375 . S
N240 C243 1.313 . S
C241 C242 1.338 . S
C241 N244 1.377 . S
C241 H261 0.930 . S
C242 N240 1.375 . S
C242 C241 1.338 . S
C242 H246 0.931 . S
C243 N240 1.313 . S
C243 N244 1.344 . S
C243 H247 0.930 . S
N244 C241 1.377 . S
N244 C243 1.344 . S
O245 Co237 2.055 . S
O245 C249 1.253 . S
H246 C242 0.931 . S
H247 C243 0.930 . S
O248 Co237 2.039 1_556 S
O248 C238 1.265 . S
C249 O245 1.253 . S
C249 O250 1.227 . S
O250 C249 1.227 . S
N251 Co237 2.140 . S
N251 C254 1.346 1_554 S
N251 C255 1.345 . S
C252 C253 1.387 1_554 S
C252 C256 1.391 . S
C253 C252 1.387 1_556 S
C253 C254 1.369 . S
C253 H262 0.929 . S
C254 N251 1.346 1_556 S
C254 C253 1.369 . S
C254 H257 0.928 . S
C255 N251 1.345 . S
C255 C256 1.371 . S
C255 H258 0.931 . S
C256 C252 1.391 . S
C256 C255 1.371 . S
C256 H263 0.930 . S
H257 C254 0.928 . S
H258 C255 0.931 . S
H259 C235 0.930 . S
H260 C232 0.930 . S
H261 C241 0.930 . S
H262 C253 0.929 . S
H263 C256 0.930 . S
H264 C282 0.951 . S
H265 C284 0.951 . S
H266 C286 0.950 . S
H267 C287 0.950 . S
H268 C289 0.950 . S
H269 C292 0.950 . S
H270 C293 0.950 . S
H271 C295 0.950 . S
H272 C296 0.961 . S
H273 C297 0.951 . S
H274 C299 0.951 . S
H275 C301 0.950 1_556 S
H276 C302 0.950 . S
H277 C304 0.950 . S
H278 C307 0.950 . S
H279 C308 0.950 . S
H280 C310 0.950 . S
H281 C311 0.950 . S
C282 H264 0.951 . S
C282 C283 1.366 1_556 S
C282 C284 1.388 . S
C283 C282 1.366 1_554 S
C283 C287 1.385 . S
C284 H265 0.951 . S
C284 C282 1.388 . S
C284 C285 1.366 1_556 S
C285 C284 1.366 1_554 S
C285 C286 1.414 . S
C285 C288 1.499 . S
C286 H266 0.950 . S
C286 C285 1.414 . S
C286 C287 1.374 . S
C287 H267 0.950 . S
C287 C283 1.385 . S
C287 C286 1.374 . S
C288 C285 1.499 . S
C288 C289 1.373 . S
C288 C290 1.389 . S
C289 H268 0.950 . S
C289 C288 1.373 . S
C289 C305 1.377 . S
C290 C288 1.389 . S
C290 C291 1.524 . S
C290 C304 1.377 . S
C291 C290 1.524 . S
C291 C292 1.397 . S
C291 C296 1.363 . S
C292 H269 0.950 . S
C292 C291 1.397 . S
C292 C293 1.334 . S
C293 H270 0.950 . S
C293 C292 1.334 . S
C293 C294 1.287 . S
C294 C293 1.287 . S
C294 C295 1.524 . S
C294 H313 0.913 . S
C295 H271 0.950 . S
C295 C294 1.524 . S
C295 C296 1.415 . S
C296 H272 0.961 . S
C296 C291 1.363 . S
C296 C295 1.415 . S
C297 H273 0.951 . S
C297 C298 1.366 . S
C297 C299 1.388 . S
C298 C297 1.366 . S
C298 C302 1.385 . S
C299 H274 0.951 . S
C299 C297 1.388 . S
C299 C300 1.366 . S
C300 C299 1.366 . S
C300 C301 1.414 . S
C300 C303 1.499 . S
C301 H275 0.950 1_554 S
C301 C300 1.414 . S
C301 C302 1.374 . S
C302 H276 0.950 . S
C302 C298 1.385 . S
C302 C301 1.374 . S
C303 C300 1.499 . S
C303 C304 1.373 . S
C303 C305 1.389 . S
C304 H277 0.950 . S
C304 C290 1.377 . S
C304 C303 1.373 . S
C305 C289 1.377 . S
C305 C303 1.389 . S
C305 C306 1.524 . S
C306 C305 1.524 . S
C306 C307 1.397 1_554 S
C306 C311 1.363 . S
C307 H278 0.950 . S
C307 C306 1.397 1_556 S
C307 C308 1.334 . S
C308 H279 0.950 . S
C308 C307 1.334 . S
C308 C309 1.287 . S
C309 C308 1.287 . S
C309 C310 1.524 1_556 S
C309 H312 0.999 . S
C310 H280 0.950 . S
C310 C309 1.524 1_554 S
C310 C311 1.415 . S
C311 H281 0.950 . S
C311 C306 1.363 . S
C311 C310 1.415 . S
H312 C309 0.999 . S
H313 C294 0.913 . S
H314 C332 0.951 . S
H315 C334 0.951 . S
H316 C336 0.950 . S
H317 C337 0.950 . S
H318 C339 0.950 . S
H319 C342 0.950 . S
H320 C343 0.950 . S
H321 C345 0.950 . S
H322 C346 0.950 . S
H323 C347 0.951 . S
H324 C349 0.951 . S
H325 C351 0.950 . S
H326 C352 0.950 . S
H327 C354 0.948 1_565 S
H328 C357 0.950 . S
H329 C358 0.950 . S
H330 C360 0.950 . S
H331 C361 0.950 . S
C332 H314 0.951 . S
C332 C333 1.366 . S
C332 C334 1.388 . S
C333 C332 1.366 . S
C333 C337 1.385 . S
C334 H315 0.951 . S
C334 C332 1.388 . S
C334 C335 1.366 . S
C335 C334 1.366 . S
C335 C336 1.414 . S
C335 C338 1.499 . S
C336 H316 0.950 . S
C336 C335 1.414 . S
C336 C337 1.374 . S
C337 H317 0.950 . S
C337 C333 1.385 . S
C337 C336 1.374 . S
C338 C335 1.499 . S
C338 C339 1.373 . S
C338 C340 1.389 . S
C339 H318 0.950 . S
C339 C338 1.373 . S
C339 C355 1.377 1_545 S
C340 C338 1.389 . S
C340 C341 1.524 . S
C340 C354 1.395 . S
C341 C340 1.524 . S
C341 C342 1.397 . S
C341 C346 1.363 . S
C342 H319 0.950 . S
C342 C341 1.397 . S
C342 C343 1.334 . S
C343 H320 0.950 . S
C343 C342 1.334 . S
C343 C344 1.287 . S
C344 C343 1.287 . S
C344 C345 1.524 . S
C344 H363 0.913 . S
C345 H321 0.950 . S
C345 C344 1.524 . S
C345 C346 1.415 . S
C346 H322 0.950 . S
C346 C341 1.363 . S
C346 C345 1.415 . S
C347 H323 0.951 . S
C347 C348 1.366 . S
C347 C349 1.388 . S
C348 C347 1.366 . S
C348 C352 1.385 . S
C349 H324 0.951 . S
C349 C347 1.388 . S
C349 C350 1.366 . S
C350 C349 1.366 . S
C350 C351 1.414 . S
C350 C353 1.499 . S
C351 H325 0.950 . S
C351 C350 1.414 . S
C351 C352 1.374 . S
C352 H326 0.950 . S
C352 C348 1.385 . S
C352 C351 1.374 . S
C353 C350 1.499 . S
C353 C354 1.357 1_565 S
C353 C355 1.389 . S
C354 H327 0.948 1_545 S
C354 C340 1.395 . S
C354 C353 1.357 1_545 S
C355 C339 1.377 1_565 S
C355 C353 1.389 . S
C355 C356 1.524 . S
C356 C355 1.524 . S
C356 C357 1.397 . S
C356 C361 1.363 . S
C357 H328 0.950 . S
C357 C356 1.397 . S
C357 C358 1.334 . S
C358 H329 0.950 . S
C358 C357 1.334 . S
C358 C359 1.287 . S
C359 C358 1.287 . S
C359 C360 1.524 . S
C359 H362 0.999 . S
C360 H330 0.950 . S
C360 C359 1.524 . S
C360 C361 1.415 . S
C361 H331 0.950 . S
C361 C356 1.363 . S
C361 C360 1.415 . S
H362 C359 0.999 . S
H363 C344 0.913 . S
H364 C382 0.951 . S
H365 C384 0.951 . S
H366 C386 0.950 . S
H367 C387 0.950 . S
H368 C389 0.950 . S
H369 C392 0.951 . S
H370 C393 0.950 . S
H371 C395 0.950 . S
H372 C396 0.954 1_455 S
H373 C397 0.951 . S
H374 C399 0.951 . S
H375 C401 0.950 . S
H376 C402 0.950 . S
H377 C404 0.950 . S
H378 C407 0.950 . S
H379 C408 0.950 . S
H380 C410 0.950 . S
H381 C411 0.950 1_655 S
C382 H364 0.951 . S
C382 C383 1.366 . S
C382 C384 1.388 . S
C383 C382 1.366 . S
C383 C387 1.385 . S
C384 H365 0.951 . S
C384 C382 1.388 . S
C384 C385 1.366 . S
C385 C384 1.366 . S
C385 C386 1.414 . S
C385 C388 1.499 . S
C386 H366 0.950 . S
C386 C385 1.414 . S
C386 C387 1.374 . S
C387 H367 0.950 . S
C387 C383 1.385 . S
C387 C386 1.374 . S
C388 C385 1.499 . S
C388 C389 1.373 . S
C388 C390 1.389 . S
C389 H368 0.950 . S
C389 C388 1.373 . S
C389 C405 1.377 1_655 S
C390 C388 1.389 . S
C390 C391 1.524 . S
C390 C404 1.377 1_665 S
C391 C390 1.524 . S
C391 C392 1.400 . S
C391 C396 1.365 . S
C392 H369 0.951 . S
C392 C391 1.400 . S
C392 C393 1.333 1_565 S
C393 H370 0.950 . S
C393 C392 1.333 1_545 S
C393 C394 1.287 . S
C394 C393 1.287 . S
C394 C395 1.524 . S
C394 H413 0.913 . S
C395 H371 0.950 . S
C395 C394 1.524 . S
C395 C396 1.412 1_545 S
C396 H372 0.954 1_655 S
C396 C391 1.365 . S
C396 C395 1.412 1_565 S
C397 H373 0.951 . S
C397 C398 1.366 . S
C397 C399 1.388 . S
C398 C397 1.366 . S
C398 C402 1.385 . S
C399 H374 0.951 . S
C399 C397 1.388 . S
C399 C400 1.366 . S
C400 C399 1.366 . S
C400 C401 1.414 . S
C400 C403 1.499 . S
C401 H375 0.950 . S
C401 C400 1.414 . S
C401 C402 1.374 . S
C402 H376 0.950 . S
C402 C398 1.385 . S
C402 C401 1.374 . S
C403 C400 1.499 . S
C403 C404 1.373 . S
C403 C405 1.389 1_545 S
C404 H377 0.950 . S
C404 C390 1.377 1_445 S
C404 C403 1.373 . S
C405 C389 1.377 1_455 S
C405 C403 1.389 1_565 S
C405 C406 1.524 . S
C406 C405 1.524 . S
C406 C407 1.397 . S
C406 C411 1.363 . S
C407 H378 0.950 . S
C407 C406 1.397 . S
C407 C408 1.334 . S
C408 H379 0.950 . S
C408 C407 1.334 . S
C408 C409 1.287 . S
C409 C408 1.287 . S
C409 C410 1.524 . S
C409 H412 0.999 . S
C410 H380 0.950 . S
C410 C409 1.524 . S
C410 C411 1.415 . S
C411 H381 0.950 1_455 S
C411 C406 1.363 . S
C411 C410 1.415 . S
H412 C409 0.999 . S
H413 C394 0.913 . S
H414 C432 0.951 . S
H415 C434 0.951 . S
H416 C436 0.950 . S
H417 C437 0.950 . S
H418 C439 0.950 . S
H419 C442 0.950 . S
H420 C443 0.950 . S
H421 C445 0.950 . S
H422 C446 0.950 . S
H423 C447 0.951 . S
H424 C449 0.951 . S
H425 C451 0.950 . S
H426 C452 0.950 . S
H427 C454 0.950 . S
H428 C457 0.950 . S
H429 C458 0.950 . S
H430 C460 0.950 . S
H431 C461 0.950 . S
C432 H414 0.951 . S
C432 C433 1.366 . S
C432 C434 1.388 . S
C433 C432 1.366 . S
C433 C437 1.385 . S
C434 H415 0.951 . S
C434 C432 1.388 . S
C434 C435 1.366 . S
C435 C434 1.366 . S
C435 C436 1.414 . S
C435 C438 1.499 . S
C436 H416 0.950 . S
C436 C435 1.414 . S
C436 C437 1.374 . S
C437 H417 0.950 . S
C437 C433 1.385 . S
C437 C436 1.374 . S
C438 C435 1.499 . S
C438 C439 1.373 . S
C438 C440 1.389 1_455 S
C439 H418 0.950 . S
C439 C438 1.373 . S
C439 C455 1.385 . S
C440 C438 1.389 1_655 S
C440 C441 1.524 . S
C440 C454 1.377 . S
C441 C440 1.524 . S
C441 C442 1.397 1_655 S
C441 C446 1.363 . S
C442 H419 0.950 . S
C442 C441 1.397 1_455 S
C442 C443 1.334 . S
C443 H420 0.950 . S
C443 C442 1.334 . S
C443 C444 1.287 1_455 S
C444 C443 1.287 1_655 S
C444 C445 1.524 . S
C444 H463 0.913 . S
C445 H421 0.950 . S
C445 C444 1.524 . S
C445 C446 1.415 . S
C446 H422 0.950 . S
C446 C441 1.363 . S
C446 C445 1.415 . S
C447 H423 0.951 . S
C447 C448 1.366 . S
C447 C449 1.388 . S
C448 C447 1.366 . S
C448 C452 1.385 . S
C449 H424 0.951 . S
C449 C447 1.388 . S
C449 C450 1.366 . S
C450 C449 1.366 . S
C450 C451 1.414 . S
C450 C453 1.499 . S
C451 H425 0.950 . S
C451 C450 1.414 . S
C451 C452 1.374 . S
C452 H426 0.950 . S
C452 C448 1.385 . S
C452 C451 1.374 . S
C453 C450 1.499 . S
C453 C454 1.373 . S
C453 C455 1.380 1_655 S
C454 H427 0.950 . S
C454 C440 1.377 . S
C454 C453 1.373 . S
C455 C439 1.385 . S
C455 C453 1.380 1_455 S
C455 C456 1.526 . S
C456 C455 1.526 . S
C456 C457 1.397 1_455 S
C456 C461 1.363 . S
C457 H428 0.950 . S
C457 C456 1.397 1_655 S
C457 C458 1.334 1_556 S
C458 H429 0.950 . S
C458 C457 1.334 1_554 S
C458 C459 1.287 1_655 S
C459 C458 1.287 1_455 S
C459 C460 1.524 . S
C459 H462 0.999 . S
C460 H430 0.950 . S
C460 C459 1.524 . S
C460 C461 1.415 1_554 S
C461 H431 0.950 . S
C461 C456 1.363 . S
C461 C460 1.415 1_556 S
H462 C459 0.999 . S
H463 C444 0.913 . S
H464 C482 0.951 . S
H465 C484 0.951 . S
H466 C486 0.950 . S
H467 C487 0.950 . S
H468 C489 0.950 . S
H469 C492 0.950 . S
H470 C493 0.950 . S
H471 C495 0.950 . S
H472 C496 0.950 . S
H473 C497 0.951 . S
H474 C499 0.951 . S
H475 C501 0.950 . S
H476 C502 0.950 . S
H477 C504 0.950 . S
H478 C507 0.950 . S
H479 C508 0.950 . S
H480 C510 0.950 . S
H481 C511 0.950 . S
C482 H464 0.951 . S
C482 C483 1.366 . S
C482 C484 1.388 . S
C483 C482 1.366 . S
C483 C487 1.385 . S
C484 H465 0.951 . S
C484 C482 1.388 . S
C484 C485 1.366 . S
C485 C484 1.366 . S
C485 C486 1.414 . S
C485 C488 1.499 . S
C486 H466 0.950 . S
C486 C485 1.414 . S
C486 C487 1.374 . S
C487 H467 0.950 . S
C487 C483 1.385 . S
C487 C486 1.374 . S
C488 C485 1.499 . S
C488 C489 1.373 . S
C488 C490 1.389 . S
C489 H468 0.950 . S
C489 C488 1.373 . S
C489 C505 1.377 . S
C490 C488 1.389 . S
C490 C491 1.524 . S
C490 C504 1.377 . S
C491 C490 1.524 . S
C491 C492 1.397 . S
C491 C496 1.363 . S
C492 H469 0.950 . S
C492 C491 1.397 . S
C492 C493 1.334 . S
C493 H470 0.950 . S
C493 C492 1.334 . S
C493 C494 1.287 . S
C494 C493 1.287 . S
C494 C495 1.524 . S
C494 H513 0.913 . S
C495 H471 0.950 . S
C495 C494 1.524 . S
C495 C496 1.415 . S
C496 H472 0.950 . S
C496 C491 1.363 . S
C496 C495 1.415 . S
C497 H473 0.951 . S
C497 C498 1.366 . S
C497 C499 1.388 . S
C498 C497 1.366 . S
C498 C502 1.385 . S
C499 H474 0.951 . S
C499 C497 1.388 . S
C499 C500 1.366 . S
C500 C499 1.366 . S
C500 C501 1.414 . S
C500 C503 1.499 . S
C501 H475 0.950 . S
C501 C500 1.414 . S
C501 C502 1.374 . S
C502 H476 0.950 . S
C502 C498 1.385 . S
C502 C501 1.374 . S
C503 C500 1.499 . S
C503 C504 1.373 . S
C503 C505 1.389 . S
C504 H477 0.950 . S
C504 C490 1.377 . S
C504 C503 1.373 . S
C505 C489 1.377 . S
C505 C503 1.389 . S
C505 C506 1.524 . S
C506 C505 1.524 . S
C506 C507 1.397 . S
C506 C511 1.363 . S
C507 H478 0.950 . S
C507 C506 1.397 . S
C507 C508 1.334 . S
C508 H479 0.950 . S
C508 C507 1.334 . S
C508 C509 1.287 . S
C509 C508 1.287 . S
C509 C510 1.524 . S
C509 H512 0.999 . S
C510 H480 0.950 . S
C510 C509 1.524 . S
C510 C511 1.415 . S
C511 H481 0.950 . S
C511 C506 1.363 . S
C511 C510 1.415 . S
H512 C509 0.999 . S
H513 C494 0.913 . S
H514 C532 0.951 . S
H515 C534 0.951 . S
H516 C536 0.950 . S
H517 C537 0.950 . S
H518 C539 0.950 . S
H519 C542 0.950 . S
H520 C543 0.950 . S
H521 C545 0.950 . S
H522 C546 0.950 . S
H523 C547 0.951 . S
H524 C549 0.951 . S
H525 C551 0.950 . S
H526 C552 0.950 . S
H527 C554 0.950 . S
H528 C557 0.950 . S
H529 C558 0.950 . S
H530 C560 0.950 . S
H531 C561 0.950 . S
C532 H514 0.951 . S
C532 C533 1.366 . S
C532 C534 1.388 1_554 S
C533 C532 1.366 . S
C533 C537 1.385 . S
C534 H515 0.951 . S
C534 C532 1.388 1_556 S
C534 C535 1.366 . S
C535 C534 1.366 . S
C535 C536 1.414 . S
C535 C538 1.499 . S
C536 H516 0.950 . S
C536 C535 1.414 . S
C536 C537 1.374 1_556 S
C537 H517 0.950 . S
C537 C533 1.385 . S
C537 C536 1.374 1_554 S
C538 C535 1.499 . S
C538 C539 1.373 . S
C538 C540 1.389 . S
C539 H518 0.950 . S
C539 C538 1.373 . S
C539 C555 1.377 . S
C540 C538 1.389 . S
C540 C541 1.524 . S
C540 C554 1.377 . S
C541 C540 1.524 . S
C541 C542 1.397 . S
C541 C546 1.363 . S
C542 H519 0.950 . S
C542 C541 1.397 . S
C542 C543 1.334 . S
C543 H520 0.950 . S
C543 C542 1.334 . S
C543 C544 1.287 . S
C544 C543 1.287 . S
C544 C545 1.524 . S
C544 H563 0.913 . S
C545 H521 0.950 . S
C545 C544 1.524 . S
C545 C546 1.415 . S
C546 H522 0.950 . S
C546 C541 1.363 . S
C546 C545 1.415 . S
C547 H523 0.951 . S
C547 C548 1.366 . S
C547 C549 1.388 . S
C548 C547 1.366 . S
C548 C552 1.385 . S
C549 H524 0.951 . S
C549 C547 1.388 . S
C549 C550 1.366 . S
C550 C549 1.366 . S
C550 C551 1.414 . S
C550 C553 1.499 . S
C551 H525 0.950 . S
C551 C550 1.414 . S
C551 C552 1.374 . S
C552 H526 0.950 . S
C552 C548 1.385 . S
C552 C551 1.374 . S
C553 C550 1.499 . S
C553 C554 1.373 . S
C553 C555 1.389 . S
C554 H527 0.950 . S
C554 C540 1.377 . S
C554 C553 1.373 . S
C555 C539 1.377 . S
C555 C553 1.389 . S
C555 C556 1.524 . S
C556 C555 1.524 . S
C556 C557 1.397 . S
C556 C561 1.363 . S
C557 H528 0.950 . S
C557 C556 1.397 . S
C557 C558 1.334 . S
C558 H529 0.950 . S
C558 C557 1.334 . S
C558 C559 1.287 . S
C559 C558 1.287 . S
C559 C560 1.524 . S
C559 H562 0.999 . S
C560 H530 0.950 . S
C560 C559 1.524 . S
C560 C561 1.415 . S
C561 H531 0.950 . S
C561 C556 1.363 . S
C561 C560 1.415 . S
H562 C559 0.999 . S
H563 C544 0.913 . S
H564 C582 0.951 . S
H565 C584 0.951 . S
H566 C586 0.950 . S
H567 C587 0.950 . S
H568 C589 0.950 . S
H569 C592 0.950 . S
H570 C593 0.950 . S
H571 C595 0.950 . S
H572 C596 0.950 . S
H573 C597 0.951 . S
H574 C599 0.951 . S
H575 C601 0.950 . S
H576 C602 0.950 . S
H577 C604 0.950 . S
H578 C607 0.950 . S
H579 C608 0.950 . S
H580 C610 0.950 . S
H581 C611 0.950 . S
C582 H564 0.951 . S
C582 C583 1.366 . S
C582 C584 1.388 . S
C583 C582 1.366 . S
C583 C587 1.385 . S
C584 H565 0.951 . S
C584 C582 1.388 . S
C584 C585 1.366 . S
C585 C584 1.366 . S
C585 C586 1.414 . S
C585 C588 1.499 . S
C586 H566 0.950 . S
C586 C585 1.414 . S
C586 C587 1.374 . S
C587 H567 0.950 . S
C587 C583 1.385 . S
C587 C586 1.374 . S
C588 C585 1.499 . S
C588 C589 1.373 . S
C588 C590 1.389 . S
C589 H568 0.950 . S
C589 C588 1.373 . S
C589 C605 1.377 1_556 S
C590 C588 1.389 . S
C590 C591 1.524 . S
C590 C604 1.377 1_556 S
C591 C590 1.524 . S
C591 C592 1.397 . S
C591 C596 1.363 . S
C592 H569 0.950 . S
C592 C591 1.397 . S
C592 C593 1.334 . S
C593 H570 0.950 . S
C593 C592 1.334 . S
C593 C594 1.287 . S
C594 C593 1.287 . S
C594 C595 1.524 . S
C594 H613 0.913 . S
C595 H571 0.950 . S
C595 C594 1.524 . S
C595 C596 1.415 . S
C596 H572 0.950 . S
C596 C591 1.363 . S
C596 C595 1.415 . S
C597 H573 0.951 . S
C597 C598 1.366 . S
C597 C599 1.388 . S
C598 C597 1.366 . S
C598 C602 1.385 . S
C599 H574 0.951 . S
C599 C597 1.388 . S
C599 C600 1.366 . S
C600 C599 1.366 . S
C600 C601 1.414 . S
C600 C603 1.499 . S
C601 H575 0.950 . S
C601 C600 1.414 . S
C601 C602 1.374 . S
C602 H576 0.950 . S
C602 C598 1.385 . S
C602 C601 1.374 . S
C603 C600 1.499 . S
C603 C604 1.373 . S
C603 C605 1.389 . S
C604 H577 0.950 . S
C604 C590 1.377 1_554 S
C604 C603 1.373 . S
C605 C589 1.377 1_554 S
C605 C603 1.389 . S
C605 C606 1.524 . S
C606 C605 1.524 . S
C606 C607 1.397 . S
C606 C611 1.363 . S
C607 H578 0.950 . S
C607 C606 1.397 . S
C607 C608 1.334 . S
C608 H579 0.950 . S
C608 C607 1.334 . S
C608 C609 1.287 . S
C609 C608 1.287 . S
C609 C610 1.524 . S
C609 H612 0.999 . S
C610 H580 0.950 . S
C610 C609 1.524 . S
C610 C611 1.415 . S
C611 H581 0.950 . S
C611 C606 1.363 . S
C611 C610 1.415 . S
H612 C609 0.999 . S
H613 C594 0.913 . S
H614 C632 0.951 . S
H615 C634 0.951 . S
H616 C636 0.950 . S
H617 C637 0.950 . S
H618 C639 0.950 . S
H619 C642 0.950 . S
H620 C643 0.950 . S
H621 C645 0.950 . S
H622 C646 0.950 . S
H623 C647 0.951 . S
H624 C649 0.951 . S
H625 C651 0.950 . S
H626 C652 0.950 . S
H627 C654 0.950 . S
H628 C657 0.950 . S
H629 C658 0.950 . S
H630 C660 0.950 . S
H631 C661 0.950 . S
C632 H614 0.951 . S
C632 C633 1.366 . S
C632 C634 1.388 . S
C633 C632 1.366 . S
C633 C637 1.385 . S
C634 H615 0.951 . S
C634 C632 1.388 . S
C634 C635 1.366 . S
C635 C634 1.366 . S
C635 C636 1.414 . S
C635 C638 1.499 . S
C636 H616 0.950 . S
C636 C635 1.414 . S
C636 C637 1.374 . S
C637 H617 0.950 . S
C637 C633 1.385 . S
C637 C636 1.374 . S
C638 C635 1.499 . S
C638 C639 1.373 . S
C638 C640 1.389 . S
C639 H618 0.950 . S
C639 C638 1.373 . S
C639 C655 1.377 . S
C640 C638 1.389 . S
C640 C641 1.524 . S
C640 C654 1.377 . S
C641 C640 1.524 . S
C641 C642 1.397 . S
C641 C646 1.363 . S
C642 H619 0.950 . S
C642 C641 1.397 . S
C642 C643 1.334 . S
C643 H620 0.950 . S
C643 C642 1.334 . S
C643 C644 1.287 . S
C644 C643 1.287 . S
C644 C645 1.524 . S
C644 H663 0.913 . S
C645 H621 0.950 . S
C645 C644 1.524 . S
C645 C646 1.415 . S
C646 H622 0.950 . S
C646 C641 1.363 . S
C646 C645 1.415 . S
C647 H623 0.951 . S
C647 C648 1.366 . S
C647 C649 1.388 . S
C648 C647 1.366 . S
C648 C652 1.385 . S
C649 H624 0.951 . S
C649 C647 1.388 . S
C649 C650 1.366 . S
C650 C649 1.366 . S
C650 C651 1.414 . S
C650 C653 1.499 . S
C651 H625 0.950 . S
C651 C650 1.414 . S
C651 C652 1.374 . S
C652 H626 0.950 . S
C652 C648 1.385 . S
C652 C651 1.374 . S
C653 C650 1.499 . S
C653 C654 1.373 . S
C653 C655 1.389 . S
C654 H627 0.950 . S
C654 C640 1.377 . S
C654 C653 1.373 . S
C655 C639 1.377 . S
C655 C653 1.389 . S
C655 C656 1.524 . S
C656 C655 1.524 . S
C656 C657 1.397 . S
C656 C661 1.363 . S
C657 H628 0.950 . S
C657 C656 1.397 . S
C657 C658 1.334 . S
C658 H629 0.950 . S
C658 C657 1.334 . S
C658 C659 1.287 . S
C659 C658 1.287 . S
C659 C660 1.524 . S
C659 H662 0.999 . S
C660 H630 0.950 . S
C660 C659 1.524 . S
C660 C661 1.415 . S
C661 H631 0.950 . S
C661 C656 1.363 . S
C661 C660 1.415 . S
H662 C659 0.999 . S
H663 C644 0.913 . S
H664 C682 0.951 . S
H665 C684 0.951 . S
H666 C686 0.950 . S
H667 C687 0.950 . S
H668 C689 0.950 . S
H669 C692 0.950 . S
H670 C693 0.950 . S
H671 C695 0.950 . S
H672 C696 0.950 . S
H673 C697 0.951 . S
H674 C699 0.951 . S
H675 C701 0.950 . S
H676 C702 0.950 . S
H677 C704 0.950 . S
H678 C707 0.950 . S
H679 C708 0.950 . S
H680 C710 0.950 . S
H681 C711 0.950 . S
C682 H664 0.951 . S
C682 C683 1.366 . S
C682 C684 1.388 1_554 S
C683 C682 1.366 . S
C683 C687 1.385 . S
C684 H665 0.951 . S
C684 C682 1.388 1_556 S
C684 C685 1.366 . S
C685 C684 1.366 . S
C685 C686 1.414 . S
C685 C688 1.499 . S
C686 H666 0.950 . S
C686 C685 1.414 . S
C686 C687 1.374 1_556 S
C687 H667 0.950 . S
C687 C683 1.385 . S
C687 C686 1.374 1_554 S
C688 C685 1.499 . S
C688 C689 1.373 . S
C688 C690 1.389 . S
C689 H668 0.950 . S
C689 C688 1.373 . S
C689 C705 1.377 . S
C690 C688 1.389 . S
C690 C691 1.524 . S
C690 C704 1.377 . S
C691 C690 1.524 . S
C691 C692 1.397 . S
C691 C696 1.363 . S
C692 H669 0.950 . S
C692 C691 1.397 . S
C692 C693 1.334 . S
C693 H670 0.950 . S
C693 C692 1.334 . S
C693 C694 1.287 . S
C694 C693 1.287 . S
C694 C695 1.524 . S
C694 H713 0.913 . S
C695 H671 0.950 . S
C695 C694 1.524 . S
C695 C696 1.415 . S
C696 H672 0.950 . S
C696 C691 1.363 . S
C696 C695 1.415 . S
C697 H673 0.951 . S
C697 C698 1.366 . S
C697 C699 1.388 . S
C698 C697 1.366 . S
C698 C702 1.385 . S
C699 H674 0.951 . S
C699 C697 1.388 . S
C699 C700 1.366 . S
C700 C699 1.366 . S
C700 C701 1.414 . S
C700 C703 1.499 . S
C701 H675 0.950 . S
C701 C700 1.414 . S
C701 C702 1.374 . S
C702 H676 0.950 . S
C702 C698 1.385 . S
C702 C701 1.374 . S
C703 C700 1.499 . S
C703 C704 1.373 . S
C703 C705 1.389 . S
C704 H677 0.950 . S
C704 C690 1.377 . S
C704 C703 1.373 . S
C705 C689 1.377 . S
C705 C703 1.389 . S
C705 C706 1.524 . S
C706 C705 1.524 . S
C706 C707 1.397 . S
C706 C711 1.363 . S
C707 H678 0.950 . S
C707 C706 1.397 . S
C707 C708 1.334 . S
C708 H679 0.950 . S
C708 C707 1.334 . S
C708 C709 1.287 . S
C709 C708 1.287 . S
C709 C710 1.524 . S
C709 H712 0.999 . S
C710 H680 0.950 . S
C710 C709 1.524 . S
C710 C711 1.415 . S
C711 H681 0.950 . S
C711 C706 1.363 . S
C711 C710 1.415 . S
H712 C709 0.999 . S
H713 C694 0.913 . S
H714 C732 0.951 . S
H715 C734 0.951 . S
H716 C736 0.950 . S
H717 C737 0.950 . S
H718 C739 0.950 . S
H719 C742 0.950 . S
H720 C743 0.950 . S
H721 C745 0.950 . S
H722 C746 0.950 . S
H723 C747 0.951 . S
H724 C749 0.951 . S
H725 C751 0.950 . S
H726 C752 0.950 . S
H727 C754 0.950 . S
H728 C757 0.950 . S
H729 C758 0.950 . S
H730 C760 0.950 . S
H731 C761 0.950 . S
C732 H714 0.951 . S
C732 C733 1.366 . S
C732 C734 1.388 . S
C733 C732 1.366 . S
C733 C737 1.385 . S
C734 H715 0.951 . S
C734 C732 1.388 . S
C734 C735 1.366 . S
C735 C734 1.366 . S
C735 C736 1.414 . S
C735 C738 1.499 . S
C736 H716 0.950 . S
C736 C735 1.414 . S
C736 C737 1.374 . S
C737 H717 0.950 . S
C737 C733 1.385 . S
C737 C736 1.374 . S
C738 C735 1.499 . S
C738 C739 1.373 . S
C738 C740 1.389 . S
C739 H718 0.950 . S
C739 C738 1.373 . S
C739 C755 1.377 . S
C740 C738 1.389 . S
C740 C741 1.524 . S
C740 C754 1.377 . S
C741 C740 1.524 . S
C741 C742 1.397 . S
C741 C746 1.363 . S
C742 H719 0.950 . S
C742 C741 1.397 . S
C742 C743 1.334 . S
C743 H720 0.950 . S
C743 C742 1.334 . S
C743 C744 1.287 . S
C744 C743 1.287 . S
C744 C745 1.524 . S
C744 H763 0.913 1_655 S
C745 H721 0.950 . S
C745 C744 1.524 . S
C745 C746 1.415 . S
C746 H722 0.950 . S
C746 C741 1.363 . S
C746 C745 1.415 . S
C747 H723 0.951 . S
C747 C748 1.366 . S
C747 C749 1.388 . S
C748 C747 1.366 . S
C748 C752 1.385 . S
C749 H724 0.951 . S
C749 C747 1.388 . S
C749 C750 1.366 . S
C750 C749 1.366 . S
C750 C751 1.414 . S
C750 C753 1.499 1_556 S
C751 H725 0.950 . S
C751 C750 1.414 . S
C751 C752 1.374 . S
C752 H726 0.950 . S
C752 C748 1.385 . S
C752 C751 1.374 . S
C753 C750 1.499 1_554 S
C753 C754 1.373 . S
C753 C755 1.389 . S
C754 H727 0.950 . S
C754 C740 1.377 . S
C754 C753 1.373 . S
C755 C739 1.377 . S
C755 C753 1.389 . S
C755 C756 1.524 . S
C756 C755 1.524 . S
C756 C757 1.397 1_554 S
C756 C761 1.363 . S
C757 H728 0.950 . S
C757 C756 1.397 1_556 S
C757 C758 1.334 . S
C758 H729 0.950 . S
C758 C757 1.334 . S
C758 C759 1.287 . S
C759 C758 1.287 . S
C759 C760 1.524 1_556 S
C759 H762 0.999 . S
C760 H730 0.950 . S
C760 C759 1.524 1_554 S
C760 C761 1.415 . S
C761 H731 0.950 . S
C761 C756 1.363 . S
C761 C760 1.415 . S
H762 C759 0.999 . S
H763 C744 0.913 1_455 S
H764 C782 0.951 . S
H765 C784 0.951 . S
H766 C786 0.950 . S
H767 C787 0.950 . S
H768 C789 0.950 . S
H769 C792 0.950 . S
H770 C793 0.950 . S
H771 C795 0.950 . S
H772 C796 0.950 . S
H773 C797 0.951 . S
H774 C799 0.951 . S
H775 C801 0.950 . S
H776 C802 0.950 . S
H777 C804 0.950 . S
H778 C807 0.950 . S
H779 C808 0.950 . S
H780 C810 0.950 . S
H781 C811 0.950 . S
C782 H764 0.951 . S
C782 C783 1.366 . S
C782 C784 1.388 . S
C783 C782 1.366 . S
C783 C787 1.385 . S
C784 H765 0.951 . S
C784 C782 1.388 . S
C784 C785 1.366 . S
C785 C784 1.366 . S
C785 C786 1.414 . S
C785 C788 1.499 . S
C786 H766 0.950 . S
C786 C785 1.414 . S
C786 C787 1.374 . S
C787 H767 0.950 . S
C787 C783 1.385 . S
C787 C786 1.374 . S
C788 C785 1.499 . S
C788 C789 1.373 . S
C788 C790 1.389 . S
C789 H768 0.950 . S
C789 C788 1.373 . S
C789 C805 1.377 . S
C790 C788 1.389 . S
C790 C791 1.524 . S
C790 C804 1.377 . S
C791 C790 1.524 . S
C791 C792 1.397 . S
C791 C796 1.363 . S
C792 H769 0.950 . S
C792 C791 1.397 . S
C792 C793 1.334 . S
C793 H770 0.950 . S
C793 C792 1.334 . S
C793 C794 1.287 . S
C794 C793 1.287 . S
C794 C795 1.524 . S
C794 H813 0.913 . S
C795 H771 0.950 . S
C795 C794 1.524 . S
C795 C796 1.415 . S
C796 H772 0.950 . S
C796 C791 1.363 . S
C796 C795 1.415 . S
C797 H773 0.951 . S
C797 C798 1.366 . S
C797 C799 1.388 . S
C798 C797 1.366 . S
C798 C802 1.385 . S
C799 H774 0.951 . S
C799 C797 1.388 . S
C799 C800 1.366 . S
C800 C799 1.366 . S
C800 C801 1.414 . S
C800 C803 1.499 . S
C801 H775 0.950 . S
C801 C800 1.414 . S
C801 C802 1.374 . S
C802 H776 0.950 . S
C802 C798 1.385 . S
C802 C801 1.374 . S
C803 C800 1.499 . S
C803 C804 1.373 . S
C803 C805 1.389 . S
C804 H777 0.950 . S
C804 C790 1.377 . S
C804 C803 1.373 . S
C805 C789 1.377 . S
C805 C803 1.389 . S
C805 C806 1.524 . S
C806 C805 1.524 . S
C806 C807 1.397 . S
C806 C811 1.363 . S
C807 H778 0.950 . S
C807 C806 1.397 . S
C807 C808 1.334 . S
C808 H779 0.950 . S
C808 C807 1.334 . S
C808 C809 1.287 . S
C809 C808 1.287 . S
C809 C810 1.524 . S
C809 H812 0.999 . S
C810 H780 0.950 . S
C810 C809 1.524 . S
C810 C811 1.415 . S
C811 H781 0.950 . S
C811 C806 1.363 . S
C811 C810 1.415 . S
H812 C809 0.999 . S
H813 C794 0.913 . S
H814 C832 0.951 . S
H815 C834 0.951 . S
H816 C836 0.950 . S
H817 C837 0.950 . S
H818 C839 0.950 . S
H819 C842 0.950 . S
H820 C843 0.950 . S
H821 C845 0.950 . S
H822 C846 0.950 . S
H823 C847 0.951 . S
H824 C849 0.951 . S
H825 C851 0.950 . S
H826 C852 0.950 . S
H827 C854 0.950 . S
H828 C857 0.950 . S
H829 C858 0.950 . S
H830 C860 0.950 . S
H831 C861 0.950 . S
C832 H814 0.951 . S
C832 C833 1.366 . S
C832 C834 1.388 . S
C833 C832 1.366 . S
C833 C837 1.385 . S
C834 H815 0.951 . S
C834 C832 1.388 . S
C834 C835 1.366 . S
C835 C834 1.366 . S
C835 C836 1.414 . S
C835 C838 1.499 . S
C836 H816 0.950 . S
C836 C835 1.414 . S
C836 C837 1.374 . S
C837 H817 0.950 . S
C837 C833 1.385 . S
C837 C836 1.374 . S
C838 C835 1.499 . S
C838 C839 1.373 . S
C838 C840 1.389 . S
C839 H818 0.950 . S
C839 C838 1.373 . S
C839 C855 1.377 . S
C840 C838 1.389 . S
C840 C841 1.524 . S
C840 C854 1.377 . S
C841 C840 1.524 . S
C841 C842 1.397 . S
C841 C846 1.363 . S
C842 H819 0.950 . S
C842 C841 1.397 . S
C842 C843 1.334 . S
C843 H820 0.950 . S
C843 C842 1.334 . S
C843 C844 1.287 . S
C844 C843 1.287 . S
C844 C845 1.524 . S
C844 H863 0.913 . S
C845 H821 0.950 . S
C845 C844 1.524 . S
C845 C846 1.415 . S
C846 H822 0.950 . S
C846 C841 1.363 . S
C846 C845 1.415 . S
C847 H823 0.951 . S
C847 C848 1.366 . S
C847 C849 1.388 . S
C848 C847 1.366 . S
C848 C852 1.385 . S
C849 H824 0.951 . S
C849 C847 1.388 . S
C849 C850 1.366 . S
C850 C849 1.366 . S
C850 C851 1.414 . S
C850 C853 1.499 . S
C851 H825 0.950 . S
C851 C850 1.414 . S
C851 C852 1.374 . S
C852 H826 0.950 . S
C852 C848 1.385 . S
C852 C851 1.374 . S
C853 C850 1.499 . S
C853 C854 1.373 . S
C853 C855 1.389 . S
C854 H827 0.950 . S
C854 C840 1.377 . S
C854 C853 1.373 . S
C855 C839 1.377 . S
C855 C853 1.389 . S
C855 C856 1.524 . S
C856 C855 1.524 . S
C856 C857 1.397 . S
C856 C861 1.363 . S
C857 H828 0.950 . S
C857 C856 1.397 . S
C857 C858 1.334 . S
C858 H829 0.950 . S
C858 C857 1.334 . S
C858 C859 1.287 . S
C859 C858 1.287 . S
C859 C860 1.524 . S
C859 H862 0.999 . S
C860 H830 0.950 . S
C860 C859 1.524 . S
C860 C861 1.415 . S
C861 H831 0.950 . S
C861 C856 1.363 . S
C861 C860 1.415 . S
H862 C859 0.999 . S
H863 C844 0.913 . S
H864 C882 0.951 . S
H865 C884 0.951 . S
H866 C886 0.950 . S
H867 C887 0.950 . S
H868 C889 0.950 . S
H869 C892 0.950 . S
H870 C893 0.950 . S
H871 C895 0.950 . S
H872 C896 0.950 1_554 S
H873 C897 0.945 1_556 S
H874 C899 0.951 . S
H875 C901 0.950 . S
H876 C902 0.950 . S
H877 C904 0.950 . S
H878 C907 0.950 . S
H879 C908 0.950 . S
H880 C910 0.950 . S
H881 C911 0.950 . S
C882 H864 0.951 . S
C882 C883 1.366 . S
C882 C884 1.388 . S
C883 C882 1.366 . S
C883 C887 1.385 . S
C884 H865 0.951 . S
C884 C882 1.388 . S
C884 C885 1.366 . S
C885 C884 1.366 . S
C885 C886 1.414 . S
C885 C888 1.499 . S
C886 H866 0.950 . S
C886 C885 1.414 . S
C886 C887 1.374 . S
C887 H867 0.950 . S
C887 C883 1.385 . S
C887 C886 1.374 . S
C888 C885 1.499 . S
C888 C889 1.373 . S
C888 C890 1.389 . S
C889 H868 0.950 . S
C889 C888 1.373 . S
C889 C905 1.377 . S
C890 C888 1.389 . S
C890 C891 1.524 . S
C890 C904 1.377 . S
C891 C890 1.524 . S
C891 C892 1.397 . S
C891 C896 1.363 . S
C892 H869 0.950 . S
C892 C891 1.397 . S
C892 C893 1.334 . S
C893 H870 0.950 . S
C893 C892 1.334 . S
C893 C894 1.287 . S
C894 C893 1.287 . S
C894 C895 1.524 . S
C894 H913 0.913 . S
C895 H871 0.950 . S
C895 C894 1.524 . S
C895 C896 1.415 . S
C896 H872 0.950 1_556 S
C896 C891 1.363 . S
C896 C895 1.415 . S
C897 H873 0.945 1_554 S
C897 C898 1.375 . S
C897 C899 1.385 1_554 S
C898 C897 1.375 . S
C898 C902 1.385 . S
C899 H874 0.951 . S
C899 C897 1.385 1_556 S
C899 C900 1.366 1_556 S
C900 C899 1.366 1_554 S
C900 C901 1.414 . S
C900 C903 1.499 1_554 S
C901 H875 0.950 . S
C901 C900 1.414 . S
C901 C902 1.374 . S
C902 H876 0.950 . S
C902 C898 1.385 . S
C902 C901 1.374 . S
C903 C900 1.499 1_556 S
C903 C904 1.373 . S
C903 C905 1.389 . S
C904 H877 0.950 . S
C904 C890 1.377 . S
C904 C903 1.373 . S
C905 C889 1.377 . S
C905 C903 1.389 . S
C905 C906 1.524 . S
C906 C905 1.524 . S
C906 C907 1.397 1_556 S
C906 C911 1.363 . S
C907 H878 0.950 . S
C907 C906 1.397 1_554 S
C907 C908 1.334 . S
C908 H879 0.950 . S
C908 C907 1.334 . S
C908 C909 1.287 . S
C909 C908 1.287 . S
C909 C910 1.524 1_554 S
C909 H912 0.999 . S
C910 H880 0.950 . S
C910 C909 1.524 1_556 S
C910 C911 1.415 . S
C911 H881 0.950 . S
C911 C906 1.363 . S
C911 C910 1.415 . S
H912 C909 0.999 . S
H913 C894 0.913 . S
H914 C932 0.951 . S
H915 C934 0.951 . S
H916 C936 0.950 . S
H917 C937 0.950 . S
H918 C939 0.950 . S
H919 C942 0.950 . S
H920 C943 0.950 . S
H921 C945 0.950 . S
H922 C946 0.950 . S
H923 C947 0.959 . S
H924 C949 0.951 . S
H925 C951 0.950 . S
H926 C952 0.950 . S
H927 C954 0.950 . S
H928 C957 0.950 . S
H929 C958 0.950 . S
H930 C960 0.950 . S
H931 C961 0.950 1_554 S
C932 H914 0.951 . S
C932 C933 1.366 . S
C932 C934 1.388 . S
C933 C932 1.366 . S
C933 C937 1.385 . S
C934 H915 0.951 . S
C934 C932 1.388 . S
C934 C935 1.366 . S
C935 C934 1.366 . S
C935 C936 1.414 . S
C935 C938 1.499 . S
C936 H916 0.950 . S
C936 C935 1.414 . S
C936 C937 1.374 . S
C937 H917 0.950 . S
C937 C933 1.385 . S
C937 C936 1.374 . S
C938 C935 1.499 . S
C938 C939 1.373 . S
C938 C940 1.389 . S
C939 H918 0.950 . S
C939 C938 1.373 . S
C939 C955 1.377 . S
C940 C938 1.389 . S
C940 C941 1.524 . S
C940 C954 1.377 . S
C941 C940 1.524 . S
C941 C942 1.397 . S
C941 C946 1.363 . S
C942 H919 0.950 . S
C942 C941 1.397 . S
C942 C943 1.334 . S
C943 H920 0.950 . S
C943 C942 1.334 . S
C943 C944 1.287 . S
C944 C943 1.287 . S
C944 C945 1.524 . S
C944 H963 0.913 . S
C945 H921 0.950 . S
C945 C944 1.524 . S
C945 C946 1.415 . S
C946 H922 0.950 . S
C946 C941 1.363 . S
C946 C945 1.415 . S
C947 H923 0.959 . S
C947 C948 1.366 . S
C947 C949 1.388 . S
C948 C947 1.366 . S
C948 C952 1.385 . S
C949 H924 0.951 . S
C949 C947 1.388 . S
C949 C950 1.366 . S
C950 C949 1.366 . S
C950 C951 1.414 . S
C950 C953 1.499 . S
C951 H925 0.950 . S
C951 C950 1.414 . S
C951 C952 1.374 . S
C952 H926 0.950 . S
C952 C948 1.385 . S
C952 C951 1.374 . S
C953 C950 1.499 . S
C953 C954 1.373 . S
C953 C955 1.389 . S
C954 H927 0.950 . S
C954 C940 1.377 . S
C954 C953 1.373 . S
C955 C939 1.377 . S
C955 C953 1.389 . S
C955 C956 1.524 . S
C956 C955 1.524 . S
C956 C957 1.397 . S
C956 C961 1.363 1_554 S
C957 H928 0.950 . S
C957 C956 1.397 . S
C957 C958 1.334 1_554 S
C958 H929 0.950 . S
C958 C957 1.334 1_556 S
C958 C959 1.287 . S
C959 C958 1.287 . S
C959 C960 1.524 . S
C959 H962 0.999 . S
C960 H930 0.950 . S
C960 C959 1.524 . S
C960 C961 1.415 . S
C961 H931 0.950 1_556 S
C961 C956 1.363 1_556 S
C961 C960 1.415 . S
H962 C959 0.999 . S
H963 C944 0.913 . S
H964 C982 0.951 . S
H965 C984 0.951 . S
H966 C986 0.950 . S
H967 C987 0.950 . S
H968 C989 0.950 . S
H969 C992 0.950 . S
H970 C993 0.950 . S
H971 C995 0.950 . S
H972 C996 0.950 . S
H973 C997 0.951 . S
H974 C999 0.951 . S
H975 C1001 0.950 . S
H976 C1002 0.950 . S
H977 C1004 0.950 . S
H978 C1007 0.950 . S
H979 C1008 0.950 . S
H980 C1010 0.950 . S
H981 C1011 0.950 . S
C982 H964 0.951 . S
C982 C983 1.366 . S
C982 C984 1.388 . S
C983 C982 1.366 . S
C983 C987 1.385 . S
C984 H965 0.951 . S
C984 C982 1.388 . S
C984 C985 1.366 . S
C985 C984 1.366 . S
C985 C986 1.414 . S
C985 C988 1.499 . S
C986 H966 0.950 . S
C986 C985 1.414 . S
C986 C987 1.374 . S
C987 H967 0.950 . S
C987 C983 1.385 . S
C987 C986 1.374 . S
C988 C985 1.499 . S
C988 C989 1.373 . S
C988 C990 1.389 . S
C989 H968 0.950 . S
C989 C988 1.373 . S
C989 C1005 1.377 . S
C990 C988 1.389 . S
C990 C991 1.524 . S
C990 C1004 1.377 . S
C991 C990 1.524 . S
C991 C992 1.397 . S
C991 C996 1.363 . S
C992 H969 0.950 . S
C992 C991 1.397 . S
C992 C993 1.334 . S
C993 H970 0.950 . S
C993 C992 1.334 . S
C993 C994 1.287 . S
C994 C993 1.287 . S
C994 C995 1.524 . S
C994 H1013 0.913 . S
C995 H971 0.950 . S
C995 C994 1.524 . S
C995 C996 1.415 . S
C996 H972 0.950 . S
C996 C991 1.363 . S
C996 C995 1.415 . S
C997 H973 0.951 . S
C997 C998 1.366 . S
C997 C999 1.388 . S
C998 C997 1.366 . S
C998 C1002 1.385 . S
C999 H974 0.951 . S
C999 C997 1.388 . S
C999 C1000 1.366 . S
C1000 C999 1.366 . S
C1000 C1001 1.414 . S
C1000 C1003 1.499 . S
C1001 H975 0.950 . S
C1001 C1000 1.414 . S
C1001 C1002 1.374 . S
C1002 H976 0.950 . S
C1002 C998 1.385 . S
C1002 C1001 1.374 . S
C1003 C1000 1.499 . S
C1003 C1004 1.373 . S
C1003 C1005 1.389 . S
C1004 H977 0.950 . S
C1004 C990 1.377 . S
C1004 C1003 1.373 . S
C1005 C989 1.377 . S
C1005 C1003 1.389 . S
C1005 C1006 1.524 . S
C1006 C1005 1.524 . S
C1006 C1007 1.397 . S
C1006 C1011 1.363 . S
C1007 H978 0.950 . S
C1007 C1006 1.397 . S
C1007 C1008 1.334 . S
C1008 H979 0.950 . S
C1008 C1007 1.334 . S
C1008 C1009 1.287 . S
C1009 C1008 1.287 . S
C1009 C1010 1.524 . S
C1009 H1012 0.999 . S
C1010 H980 0.950 . S
C1010 C1009 1.524 . S
C1010 C1011 1.415 . S
C1011 H981 0.950 . S
C1011 C1006 1.363 . S
C1011 C1010 1.415 . S
H1012 C1009 0.999 . S
H1013 C994 0.913 . S
H1014 C1032 0.951 . S
H1015 C1034 0.951 . S
H1016 C1036 0.950 . S
H1017 C1037 0.950 . S
H1018 C1039 0.950 . S
H1019 C1042 0.950 . S
H1020 C1043 0.950 . S
H1021 C1045 0.950 . S
H1022 C1046 0.950 . S
H1023 C1047 0.951 . S
H1024 C1049 0.951 . S
H1025 C1051 0.950 . S
H1026 C1052 0.950 . S
H1027 C1054 0.950 . S
H1028 C1057 0.950 . S
H1029 C1058 0.950 . S
H1030 C1060 0.950 . S
H1031 C1061 0.950 . S
C1032 H1014 0.951 . S
C1032 C1033 1.366 . S
C1032 C1034 1.388 . S
C1033 C1032 1.366 . S
C1033 C1037 1.385 . S
C1034 H1015 0.951 . S
C1034 C1032 1.388 . S
C1034 C1035 1.366 . S
C1035 C1034 1.366 . S
C1035 C1036 1.414 . S
C1035 C1038 1.499 . S
C1036 H1016 0.950 . S
C1036 C1035 1.414 . S
C1036 C1037 1.374 . S
C1037 H1017 0.950 . S
C1037 C1033 1.385 . S
C1037 C1036 1.374 . S
C1038 C1035 1.499 . S
C1038 C1039 1.373 . S
C1038 C1040 1.389 . S
C1039 H1018 0.950 . S
C1039 C1038 1.373 . S
C1039 C1055 1.377 . S
C1040 C1038 1.389 . S
C1040 C1041 1.524 . S
C1040 C1054 1.377 . S
C1041 C1040 1.524 . S
C1041 C1042 1.397 . S
C1041 C1046 1.363 . S
C1042 H1019 0.950 . S
C1042 C1041 1.397 . S
C1042 C1043 1.334 . S
C1043 H1020 0.950 . S
C1043 C1042 1.334 . S
C1043 C1044 1.287 . S
C1044 C1043 1.287 . S
C1044 C1045 1.524 . S
C1044 H1063 0.913 . S
C1045 H1021 0.950 . S
C1045 C1044 1.524 . S
C1045 C1046 1.415 . S
C1046 H1022 0.950 . S
C1046 C1041 1.363 . S
C1046 C1045 1.415 . S
C1047 H1023 0.951 . S
C1047 C1048 1.366 . S
C1047 C1049 1.388 . S
C1048 C1047 1.366 . S
C1048 C1052 1.385 . S
C1049 H1024 0.951 . S
C1049 C1047 1.388 . S
C1049 C1050 1.366 . S
C1050 C1049 1.366 . S
C1050 C1051 1.414 . S
C1050 C1053 1.499 . S
C1051 H1025 0.950 . S
C1051 C1050 1.414 . S
C1051 C1052 1.374 . S
C1052 H1026 0.950 . S
C1052 C1048 1.385 . S
C1052 C1051 1.374 . S
C1053 C1050 1.499 . S
C1053 C1054 1.373 . S
C1053 C1055 1.389 . S
C1054 H1027 0.950 . S
C1054 C1040 1.377 . S
C1054 C1053 1.373 . S
C1055 C1039 1.377 . S
C1055 C1053 1.389 . S
C1055 C1056 1.524 . S
C1056 C1055 1.524 . S
C1056 C1057 1.397 . S
C1056 C1061 1.363 . S
C1057 H1028 0.950 . S
C1057 C1056 1.397 . S
C1057 C1058 1.334 . S
C1058 H1029 0.950 . S
C1058 C1057 1.334 . S
C1058 C1059 1.287 . S
C1059 C1058 1.287 . S
C1059 C1060 1.524 . S
C1059 H1062 0.999 . S
C1060 H1030 0.950 . S
C1060 C1059 1.524 . S
C1060 C1061 1.415 . S
C1061 H1031 0.950 . S
C1061 C1056 1.363 . S
C1061 C1060 1.415 . S
H1062 C1059 0.999 . S
H1063 C1044 0.913 . S
H1064 C1082 0.951 . S
H1065 C1084 0.951 . S
H1066 C1086 0.950 . S
H1067 C1087 0.950 . S
H1068 C1089 0.950 . S
H1069 C1092 0.950 . S
H1070 C1093 0.950 . S
H1071 C1095 0.950 . S
H1072 C1096 0.950 . S
H1073 C1097 0.951 . S
H1074 C1099 0.951 . S
H1075 C1101 0.950 . S
H1076 C1102 0.950 . S
H1077 C1104 0.950 . S
H1078 C1107 0.950 . S
H1079 C1108 0.950 . S
H1080 C1110 0.950 . S
H1081 C1111 0.950 . S
C1082 H1064 0.951 . S
C1082 C1083 1.366 . S
C1082 C1084 1.388 . S
C1083 C1082 1.366 . S
C1083 C1087 1.385 . S
C1084 H1065 0.951 . S
C1084 C1082 1.388 . S
C1084 C1085 1.366 . S
C1085 C1084 1.366 . S
C1085 C1086 1.414 . S
C1085 C1088 1.499 . S
C1086 H1066 0.950 . S
C1086 C1085 1.414 . S
C1086 C1087 1.374 . S
C1087 H1067 0.950 . S
C1087 C1083 1.385 . S
C1087 C1086 1.374 . S
C1088 C1085 1.499 . S
C1088 C1089 1.373 . S
C1088 C1090 1.389 . S
C1089 H1068 0.950 . S
C1089 C1088 1.373 . S
C1089 C1105 1.377 . S
C1090 C1088 1.389 . S
C1090 C1091 1.524 . S
C1090 C1104 1.377 . S
C1091 C1090 1.524 . S
C1091 C1092 1.397 . S
C1091 C1096 1.363 . S
C1092 H1069 0.950 . S
C1092 C1091 1.397 . S
C1092 C1093 1.334 . S
C1093 H1070 0.950 . S
C1093 C1092 1.334 . S
C1093 C1094 1.287 . S
C1094 C1093 1.287 . S
C1094 C1095 1.524 . S
C1094 H1113 0.913 . S
C1095 H1071 0.950 . S
C1095 C1094 1.524 . S
C1095 C1096 1.415 . S
C1096 H1072 0.950 . S
C1096 C1091 1.363 . S
C1096 C1095 1.415 . S
C1097 H1073 0.951 . S
C1097 C1098 1.366 . S
C1097 C1099 1.388 . S
C1098 C1097 1.366 . S
C1098 C1102 1.385 . S
C1099 H1074 0.951 . S
C1099 C1097 1.388 . S
C1099 C1100 1.366 . S
C1100 C1099 1.366 . S
C1100 C1101 1.414 . S
C1100 C1103 1.499 . S
C1101 H1075 0.950 . S
C1101 C1100 1.414 . S
C1101 C1102 1.374 . S
C1102 H1076 0.950 . S
C1102 C1098 1.385 . S
C1102 C1101 1.374 . S
C1103 C1100 1.499 . S
C1103 C1104 1.373 . S
C1103 C1105 1.389 . S
C1104 H1077 0.950 . S
C1104 C1090 1.377 . S
C1104 C1103 1.373 . S
C1105 C1089 1.377 . S
C1105 C1103 1.389 . S
C1105 C1106 1.524 . S
C1106 C1105 1.524 . S
C1106 C1107 1.397 . S
C1106 C1111 1.363 . S
C1107 H1078 0.950 . S
C1107 C1106 1.397 . S
C1107 C1108 1.334 . S
C1108 H1079 0.950 . S
C1108 C1107 1.334 . S
C1108 C1109 1.287 . S
C1109 C1108 1.287 . S
C1109 C1110 1.524 . S
C1109 H1112 0.999 . S
C1110 H1080 0.950 . S
C1110 C1109 1.524 . S
C1110 C1111 1.415 . S
C1111 H1081 0.950 . S
C1111 C1106 1.363 . S
C1111 C1110 1.415 . S
H1112 C1109 0.999 . S
H1113 C1094 0.913 . S
H1114 C1132 0.951 . S
H1115 C1134 0.951 . S
H1116 C1136 0.950 . S
H1117 C1137 0.950 . S
H1118 C1139 0.950 . S
H1119 C1142 0.950 . S
H1120 C1143 0.950 . S
H1121 C1145 0.950 . S
H1122 C1146 0.950 . S
H1123 C1147 0.951 . S
H1124 C1149 0.951 . S
H1125 C1151 0.950 . S
H1126 C1152 0.950 . S
H1127 C1154 0.950 . S
H1128 C1157 0.950 . S
H1129 C1158 0.950 . S
H1130 C1160 0.950 . S
H1131 C1161 0.950 . S
C1132 H1114 0.951 . S
C1132 C1133 1.366 . S
C1132 C1134 1.388 . S
C1133 C1132 1.366 . S
C1133 C1137 1.385 . S
C1134 H1115 0.951 . S
C1134 C1132 1.388 . S
C1134 C1135 1.366 . S
C1135 C1134 1.366 . S
C1135 C1136 1.414 . S
C1135 C1138 1.499 . S
C1136 H1116 0.950 . S
C1136 C1135 1.414 . S
C1136 C1137 1.374 . S
C1137 H1117 0.950 . S
C1137 C1133 1.385 . S
C1137 C1136 1.374 . S
C1138 C1135 1.499 . S
C1138 C1139 1.373 . S
C1138 C1140 1.389 . S
C1139 H1118 0.950 . S
C1139 C1138 1.373 . S
C1139 C1155 1.377 . S
C1140 C1138 1.389 . S
C1140 C1141 1.524 . S
C1140 C1154 1.377 . S
C1141 C1140 1.524 . S
C1141 C1142 1.397 . S
C1141 C1146 1.363 . S
C1142 H1119 0.950 . S
C1142 C1141 1.397 . S
C1142 C1143 1.334 . S
C1143 H1120 0.950 . S
C1143 C1142 1.334 . S
C1143 C1144 1.287 . S
C1144 C1143 1.287 . S
C1144 C1145 1.524 . S
C1144 H1163 0.913 . S
C1145 H1121 0.950 . S
C1145 C1144 1.524 . S
C1145 C1146 1.415 . S
C1146 H1122 0.950 . S
C1146 C1141 1.363 . S
C1146 C1145 1.415 . S
C1147 H1123 0.951 . S
C1147 C1148 1.366 . S
C1147 C1149 1.388 . S
C1148 C1147 1.366 . S
C1148 C1152 1.385 . S
C1149 H1124 0.951 . S
C1149 C1147 1.388 . S
C1149 C1150 1.366 . S
C1150 C1149 1.366 . S
C1150 C1151 1.414 . S
C1150 C1153 1.499 . S
C1151 H1125 0.950 . S
C1151 C1150 1.414 . S
C1151 C1152 1.374 . S
C1152 H1126 0.950 . S
C1152 C1148 1.385 . S
C1152 C1151 1.374 . S
C1153 C1150 1.499 . S
C1153 C1154 1.373 . S
C1153 C1155 1.389 . S
C1154 H1127 0.950 . S
C1154 C1140 1.377 . S
C1154 C1153 1.373 . S
C1155 C1139 1.377 . S
C1155 C1153 1.389 . S
C1155 C1156 1.524 . S
C1156 C1155 1.524 . S
C1156 C1157 1.397 . S
C1156 C1161 1.363 . S
C1157 H1128 0.950 . S
C1157 C1156 1.397 . S
C1157 C1158 1.334 . S
C1158 H1129 0.950 . S
C1158 C1157 1.334 . S
C1158 C1159 1.287 . S
C1159 C1158 1.287 . S
C1159 C1160 1.524 . S
C1159 H1162 0.999 . S
C1160 H1130 0.950 . S
C1160 C1159 1.524 . S
C1160 C1161 1.415 . S
C1161 H1131 0.950 . S
C1161 C1156 1.363 . S
C1161 C1160 1.415 . S
H1162 C1159 0.999 . S
H1163 C1144 0.913 . S
H1164 C1182 0.951 . S
H1165 C1184 0.951 . S
H1166 C1186 0.950 . S
H1167 C1187 0.950 . S
H1168 C1189 0.937 1_554 S
H1169 C1192 0.950 . S
H1170 C1193 0.950 . S
H1171 C1195 0.950 . S
H1172 C1196 0.950 . S
H1173 C1197 0.951 . S
H1174 C1199 0.951 . S
H1175 C1201 0.950 . S
H1176 C1202 0.950 . S
H1177 C1204 0.950 . S
H1178 C1207 0.950 . S
H1179 C1208 0.950 . S
H1180 C1210 0.950 . S
H1181 C1211 0.950 . S
C1182 H1164 0.951 . S
C1182 C1183 1.366 . S
C1182 C1184 1.388 . S
C1183 C1182 1.366 . S
C1183 C1187 1.385 1_556 S
C1184 H1165 0.951 . S
C1184 C1182 1.388 . S
C1184 C1185 1.366 . S
C1185 C1184 1.366 . S
C1185 C1186 1.414 1_556 S
C1185 C1188 1.499 . S
C1186 H1166 0.950 . S
C1186 C1185 1.414 1_554 S
C1186 C1187 1.374 . S
C1187 H1167 0.950 . S
C1187 C1183 1.385 1_554 S
C1187 C1186 1.374 . S
C1188 C1185 1.499 . S
C1188 C1189 1.373 . S
C1188 C1190 1.389 . S
C1189 H1168 0.937 1_556 S
C1189 C1188 1.373 . S
C1189 C1205 1.377 . S
C1190 C1188 1.389 . S
C1190 C1191 1.524 . S
C1190 C1204 1.377 . S
C1191 C1190 1.524 . S
C1191 C1192 1.397 . S
C1191 C1196 1.363 . S
C1192 H1169 0.950 . S
C1192 C1191 1.397 . S
C1192 C1193 1.334 . S
C1193 H1170 0.950 . S
C1193 C1192 1.334 . S
C1193 C1194 1.287 . S
C1194 C1193 1.287 . S
C1194 C1195 1.524 . S
C1194 H1213 0.913 . S
C1195 H1171 0.950 . S
C1195 C1194 1.524 . S
C1195 C1196 1.415 . S
C1196 H1172 0.950 . S
C1196 C1191 1.363 . S
C1196 C1195 1.415 . S
C1197 H1173 0.951 . S
C1197 C1198 1.366 . S
C1197 C1199 1.388 . S
C1198 C1197 1.366 . S
C1198 C1202 1.385 . S
C1199 H1174 0.951 . S
C1199 C1197 1.388 . S
C1199 C1200 1.366 . S
C1200 C1199 1.366 . S
C1200 C1201 1.414 . S
C1200 C1203 1.499 . S
C1201 H1175 0.950 . S
C1201 C1200 1.414 . S
C1201 C1202 1.374 . S
C1202 H1176 0.950 . S
C1202 C1198 1.385 . S
C1202 C1201 1.374 . S
C1203 C1200 1.499 . S
C1203 C1204 1.373 . S
C1203 C1205 1.389 . S
C1204 H1177 0.950 . S
C1204 C1190 1.377 . S
C1204 C1203 1.373 . S
C1205 C1189 1.377 . S
C1205 C1203 1.389 . S
C1205 C1206 1.524 . S
C1206 C1205 1.524 . S
C1206 C1207 1.397 . S
C1206 C1211 1.363 1_556 S
C1207 H1178 0.950 . S
C1207 C1206 1.397 . S
C1207 C1208 1.334 . S
C1208 H1179 0.950 . S
C1208 C1207 1.334 . S
C1208 C1209 1.287 1_556 S
C1209 C1208 1.287 1_554 S
C1209 C1210 1.524 . S
C1209 H1212 0.999 . S
C1210 H1180 0.950 . S
C1210 C1209 1.524 . S
C1210 C1211 1.415 . S
C1211 H1181 0.950 . S
C1211 C1206 1.363 1_554 S
C1211 C1210 1.415 . S
H1212 C1209 0.999 . S
H1213 C1194 0.913 . S
H1214 C1232 0.951 . S
H1215 C1234 0.951 . S
H1216 C1236 0.950 . S
H1217 C1237 0.950 . S
H1218 C1239 0.950 . S
H1219 C1242 0.950 . S
H1220 C1243 0.950 . S
H1221 C1245 0.950 1_556 S
H1222 C1246 0.950 . S
H1223 C1247 0.951 . S
H1224 C1249 0.951 . S
H1225 C1251 0.950 . S
H1226 C1252 0.950 . S
H1227 C1254 0.950 . S
H1228 C1257 0.950 . S
H1229 C1258 0.950 . S
H1230 C1260 0.950 . S
H1231 C1261 0.950 . S
C1232 H1214 0.951 . S
C1232 C1233 1.366 . S
C1232 C1234 1.388 . S
C1233 C1232 1.366 . S
C1233 C1237 1.385 . S
C1234 H1215 0.951 . S
C1234 C1232 1.388 . S
C1234 C1235 1.366 . S
C1235 C1234 1.366 . S
C1235 C1236 1.414 . S
C1235 C1238 1.499 . S
C1236 H1216 0.950 . S
C1236 C1235 1.414 . S
C1236 C1237 1.374 . S
C1237 H1217 0.950 . S
C1237 C1233 1.385 . S
C1237 C1236 1.374 . S
C1238 C1235 1.499 . S
C1238 C1239 1.373 . S
C1238 C1240 1.389 . S
C1239 H1218 0.950 . S
C1239 C1238 1.373 . S
C1239 C1255 1.377 . S
C1240 C1238 1.389 . S
C1240 C1241 1.524 . S
C1240 C1254 1.377 . S
C1241 C1240 1.524 . S
C1241 C1242 1.397 . S
C1241 C1246 1.363 . S
C1242 H1219 0.950 . S
C1242 C1241 1.397 . S
C1242 C1243 1.334 1_554 S
C1243 H1220 0.950 . S
C1243 C1242 1.334 1_556 S
C1243 C1244 1.287 . S
C1244 C1243 1.287 . S
C1244 C1245 1.524 1_556 S
C1244 H1263 0.913 . S
C1245 H1221 0.950 1_554 S
C1245 C1244 1.524 1_554 S
C1245 C1246 1.415 . S
C1246 H1222 0.950 . S
C1246 C1241 1.363 . S
C1246 C1245 1.415 . S
C1247 H1223 0.951 . S
C1247 C1248 1.366 . S
C1247 C1249 1.388 . S
C1248 C1247 1.366 . S
C1248 C1252 1.385 . S
C1249 H1224 0.951 . S
C1249 C1247 1.388 . S
C1249 C1250 1.366 . S
C1250 C1249 1.366 . S
C1250 C1251 1.414 . S
C1250 C1253 1.499 . S
C1251 H1225 0.950 . S
C1251 C1250 1.414 . S
C1251 C1252 1.374 . S
C1252 H1226 0.950 . S
C1252 C1248 1.385 . S
C1252 C1251 1.374 . S
C1253 C1250 1.499 . S
C1253 C1254 1.373 . S
C1253 C1255 1.389 . S
C1254 H1227 0.950 . S
C1254 C1240 1.377 . S
C1254 C1253 1.373 . S
C1255 C1239 1.377 . S
C1255 C1253 1.389 . S
C1255 C1256 1.524 . S
C1256 C1255 1.524 . S
C1256 C1257 1.397 . S
C1256 C1261 1.363 . S
C1257 H1228 0.950 . S
C1257 C1256 1.397 . S
C1257 C1258 1.334 . S
C1258 H1229 0.950 . S
C1258 C1257 1.334 . S
C1258 C1259 1.287 . S
C1259 C1258 1.287 . S
C1259 C1260 1.524 . S
C1259 H1262 0.999 . S
C1260 H1230 0.950 . S
C1260 C1259 1.524 . S
C1260 C1261 1.415 . S
C1261 H1231 0.950 . S
C1261 C1256 1.363 . S
C1261 C1260 1.415 . S
H1262 C1259 0.999 . S
H1263 C1244 0.913 . S
C283 C249 1.083 . S
C298 C18 1.084 . S
C333 C150 1.092 . S
C348 C51 1.092 . S
C383 C183 1.084 . S
C398 C84 1.083 . S
C433 C216 1.092 . S
C448 C117 1.092 . S
C483 N2 1.199 . S
C498 N13 1.200 . S
C533 N35 1.188 . S
C548 N46 1.190 . S
C583 N79 1.202 . S
C598 N68 1.200 . S
C633 N112 1.221 . S
C648 N101 1.219 . S
C683 N134 1.218 . S
C698 N145 1.220 . S
C733 N178 1.200 . S
C748 N167 1.198 . S
C783 N200 1.187 . S
C798 N211 1.190 . S
C833 N233 1.199 . S
C848 N244 1.201 . S
C883 C219 1.320 . S
C898 C21 1.323 . S
C933 C40 1.284 . S
C948 C252 1.300 . S
C983 C153 1.619 . S
C998 C73 1.601 . S
C1033 C106 1.543 . S
C1048 C172 1.538 . S
C1083 C186 1.322 . S
C1098 C54 1.320 . S
C1133 C87 1.300 . S
C1148 C205 1.284 . S
C1183 C238 1.601 . S
C1198 C120 1.619 . S
C1233 C7 1.538 . S
C1248 C139 1.543 . S
