# Generated by pormake.
# Topology wli, (5)-cn, num edge types: 1
# Building blocks:
#     Node 0, Type 0, BuildingBlock: XOMCOT_clean_sbu_1, # of connection points: 5
#     Node 1, Type 0, BuildingBlock: XOMCOT_clean_sbu_1, # of connection points: 5
#     Node 2, Type 0, BuildingBlock: XOMCOT_clean_sbu_1, # of connection points: 5
#     Node 3, Type 0, BuildingBlock: XOMCOT_clean_sbu_1, # of connection points: 5
#     Node 4, Type 0, BuildingBlock: XOMCOT_clean_sbu_1, # of connection points: 5
#     Node 5, Type 0, BuildingBlock: XOMCOT_clean_sbu_1, # of connection points: 5
#     Edge 6, Type (0, 0), BuildingBlock: MIFKUJ_clean_linker_0, # of connection points: 2
#     Edge 7, Type (0, 0), BuildingBlock: MIFKUJ_clean_linker_0, # of connection points: 2
#     Edge 8, Type (0, 0), BuildingBlock: MIFKUJ_clean_linker_0, # of connection points: 2
#     Edge 9, Type (0, 0), BuildingBlock: MIFKUJ_clean_linker_0, # of connection points: 2
#     Edge 10, Type (0, 0), BuildingBlock: MIFKUJ_clean_linker_0, # of connection points: 2
#     Edge 11, Type (0, 0), BuildingBlock: MIFKUJ_clean_linker_0, # of connection points: 2
#     Edge 12, Type (0, 0), BuildingBlock: MIFKUJ_clean_linker_0, # of connection points: 2
#     Edge 13, Type (0, 0), BuildingBlock: MIFKUJ_clean_linker_0, # of connection points: 2
#     Edge 14, Type (0, 0), BuildingBlock: MIFKUJ_clean_linker_0, # of connection points: 2
#     Edge 15, Type (0, 0), BuildingBlock: MIFKUJ_clean_linker_0, # of connection points: 2
#     Edge 16, Type (0, 0), BuildingBlock: MIFKUJ_clean_linker_0, # of connection points: 2
#     Edge 17, Type (0, 0), BuildingBlock: MIFKUJ_clean_linker_0, # of connection points: 2
#     Edge 18, Type (0, 0), BuildingBlock: MIFKUJ_clean_linker_0, # of connection points: 2
#     Edge 19, Type (0, 0), BuildingBlock: MIFKUJ_clean_linker_0, # of connection points: 2
#     Edge 20, Type (0, 0), BuildingBlock: MIFKUJ_clean_linker_0, # of connection points: 2
# Relax obj value: 0.113
# Max RMSD: 0.138
# Mean RMSD: 0.138
data_MOF--net-wli--node1-XOMCOT_clean_sbu_1--edge1-MIFKUJ_clean_linker_0
_symmetry_space_group_name_H-M    P1
_symmetry_Int_Tables_number       1
_symmetry_cell_setting            triclinic
loop_
_symmetry_equiv_pos_as_xyz
'x, y, z'
_cell_length_a     45.875423
_cell_length_b     45.853629
_cell_length_c     33.792503
_cell_angle_alpha  89.759544
_cell_angle_beta   89.968771
_cell_angle_gamma 119.92209
loop_
_atom_site_label
_atom_site_type_symbol
_atom_site_fract_x
_atom_site_fract_y
_atom_site_fract_z
_atom_type_partial_charge
C0 C 0.19914 0.46385 0.02984 0.0
C1 C 0.22186 0.48943 1.00586 0.0
N2 N 0.25312 0.49749 0.01725 0.0
N3 N 0.21591 0.45559 0.0562 0.0
C4 C 0.2488 0.47648 0.04776 0.0
H5 H 0.17212 0.45292 0.0291 0.0
Co6 Co 0.19655 0.42647 0.09933 0.0
C7 C 0.23006 0.38511 0.09973 0.0
O8 O 0.20109 0.35873 0.10939 0.0
N9 N 0.17694 0.39835 0.1444 0.0
C10 C 0.1733 0.37658 0.20466 0.0
C11 C 0.19455 0.39442 0.17401 0.0
C12 C 0.14516 0.38414 0.15909 0.0
N13 N 0.14224 0.37028 0.19532 0.0
O14 O 0.22302 0.46291 0.13444 0.0
H15 H 0.22157 0.4052 0.17419 0.0
H16 H 0.1247 0.38516 0.14473 0.0
O17 O 0.23203 0.41385 0.09547 0.0
C18 C 0.20763 0.47949 0.13784 0.0
O19 O 0.17915 0.46881 0.11874 0.0
N20 N 0.16826 0.39219 0.06387 0.0
C21 C 0.12426 0.35476 1.00314 0.0
C22 C 0.1569 0.3596 1.00434 0.0
C23 C 0.17887 0.37924 0.03436 0.0
C24 C 0.13652 0.38756 0.06286 0.0
C25 C 0.11402 0.36866 0.03311 0.0
H26 H 0.20491 0.386 0.03171 0.0
H27 H 0.12954 0.40121 0.08304 0.0
H28 H 0.26915 0.47751 0.06503 0.0
H29 H 0.2158 0.50155 0.98229 0.0
H30 H 0.18048 0.37048 0.23267 0.0
H31 H 0.16612 0.35048 0.98065 0.0
H32 H 0.08937 0.36641 0.03241 0.0
C33 C 0.5612 0.73738 0.70019 0.0
C34 C 0.53508 0.73239 0.67592 0.0
N35 N 0.52374 0.75299 0.68768 0.0
N36 N 0.5667 0.76141 0.72681 0.0
C37 C 0.54322 0.7702 0.71874 0.0
H38 H 0.57517 0.72416 0.69866 0.0
Co39 Co 0.59911 0.77687 0.76658 0.0
C40 C 0.60602 0.84528 0.77727 0.0
O41 O 0.59712 0.83986 0.81472 0.0
N42 N 0.63157 0.79148 0.80689 0.0
C43 C 0.67519 0.82035 0.84691 0.0
C44 C 0.65725 0.8225 0.81539 0.0
C45 C 0.63503 0.77092 0.83295 0.0
N46 N 0.66121 0.78781 0.85773 0.0
O47 O 0.56447 0.76701 0.80519 0.0
H48 H 0.66338 0.84518 0.79911 0.0
H49 H 0.61892 0.74389 0.83348 0.0
O50 O 0.60746 0.82249 0.75727 0.0
C51 C 0.55142 0.73597 0.81451 0.0
O52 O 0.56279 0.71812 0.79686 0.0
N53 N 0.63197 0.78318 0.72931 0.0
C54 C 0.67132 0.77821 0.66981 0.0
C55 C 0.66296 0.80375 0.66858 0.0
C56 C 0.64287 0.80563 0.69855 0.0
C57 C 0.64129 0.7593 0.73189 0.0
C58 C 0.66092 0.75633 0.70244 0.0
H59 H 0.63472 0.82389 0.69566 0.0
H60 H 0.63179 0.7412 0.75588 0.0
H61 H 0.5406 0.78899 0.73515 0.0
H62 H 0.52479 0.71453 0.65192 0.0
H63 H 0.69753 0.84092 0.85989 0.0
H64 H 0.67014 0.8208 0.64353 0.0
H65 H 0.6669 0.73631 0.70447 0.0
C66 C 0.27454 0.82043 0.36382 0.0
C67 C 0.27647 0.7985 0.33778 0.0
N68 N 0.2579 0.76711 0.35238 0.0
N69 N 0.25427 0.80287 0.39434 0.0
C70 C 0.24473 0.77041 0.38667 0.0
H71 H 0.28772 0.84753 0.36103 0.0
Co72 Co 0.24502 0.82037 0.43937 0.0
C73 C 0.17046 0.78684 0.44085 0.0
O74 O 0.17356 0.8157 0.45193 0.0
N75 N 0.2369 0.83779 0.48628 0.0
C76 C 0.22076 0.83763 0.54859 0.0
C77 C 0.21607 0.81844 0.5156 0.0
C78 C 0.25503 0.86854 0.50314 0.0
N79 N 0.24549 0.86923 0.54091 0.0
O80 O 0.25562 0.79267 0.4722 0.0
H81 H 0.19968 0.79149 0.514 0.0
H82 H 0.27672 0.88938 0.48958 0.0
O83 O 0.19701 0.78463 0.43576 0.0
C84 C 0.28731 0.80441 0.47369 0.0
O85 O 0.30708 0.83147 0.45286 0.0
N86 N 0.23775 0.84968 0.40617 0.0
C87 C 0.24127 0.8946 0.3472 0.0
C88 C 0.21532 0.86091 0.34729 0.0
C89 C 0.21448 0.83873 0.37637 0.0
C90 C 0.26312 0.88234 0.40639 0.0
C91 C 0.26507 0.90527 0.37772 0.0
H92 H 0.19666 0.81235 0.37269 0.0
H93 H 0.28395 0.89 0.42637 0.0
H94 H 0.22877 0.74966 0.4061 0.0
H95 H 0.2913 0.80517 0.31087 0.0
H96 H 0.2077 0.82857 0.57653 0.0
H97 H 0.19668 0.85126 0.324 0.0
H98 H 0.28653 0.93052 0.37791 0.0
C99 C 0.46401 0.19335 0.99206 0.0
C100 C 0.48905 0.21533 0.01678 0.0
N101 N 0.50017 0.24691 1.00346 0.0
N102 N 0.45896 0.21089 0.96341 0.0
C103 C 0.48131 0.24349 0.97118 0.0
H104 H 0.45124 0.16621 0.99401 0.0
Co105 Co 0.43176 0.19254 0.91892 0.0
C106 C 0.38868 0.22376 0.91774 0.0
O107 O 0.36364 0.19417 0.90753 0.0
N108 N 0.40581 0.17418 0.87252 0.0
C109 C 0.38914 0.17362 0.8104 0.0
C110 C 0.40385 0.19316 0.84305 0.0
C111 C 0.39315 0.14323 0.8561 0.0
N112 N 0.38257 0.14214 0.81844 0.0
O113 O 0.46931 0.22067 0.88531 0.0
H114 H 0.41416 0.2201 0.84434 0.0
H115 H 0.39413 0.12252 0.86992 0.0
O116 O 0.41807 0.22737 0.92242 0.0
C117 C 0.48974 0.2095 0.88317 0.0
O118 O 0.48336 0.18265 0.90393 0.0
N119 N 0.39607 0.16289 0.95291 0.0
C120 C 0.35542 0.11803 0.01241 0.0
C121 C 0.36244 0.15153 0.01182 0.0
C122 C 0.38356 0.17371 0.98267 0.0
C123 C 0.38953 0.13044 0.95309 0.0
C124 C 0.36901 0.10755 0.98211 0.0
H125 H 0.39162 0.20003 0.9861 0.0
H126 H 0.40284 0.12295 0.93304 0.0
H127 H 0.48496 0.2641 0.95216 0.0
H128 H 0.49877 0.20844 0.04213 0.0
H129 H 0.38474 0.18233 0.78244 0.0
H130 H 0.35302 0.16112 0.03473 0.0
H131 H 0.36586 0.08253 0.98223 0.0
C132 C 0.82748 0.28001 0.64623 0.0
C133 C 0.80641 0.284 0.67179 0.0
N134 N 0.77444 0.26232 0.66135 0.0
N135 N 0.8089 0.25546 0.62021 0.0
C136 C 0.77662 0.2454 0.62989 0.0
H137 H 0.85465 0.29449 0.64629 0.0
Co138 Co 0.82532 0.24162 0.57819 0.0
C139 C 0.79194 0.16712 0.58827 0.0
O140 O 0.82052 0.16898 0.57828 0.0
N141 N 0.84212 0.22889 0.53377 0.0
C142 C 0.84319 0.20629 0.47567 0.0
C143 C 0.82361 0.20417 0.50766 0.0
C144 C 0.87246 0.24671 0.51555 0.0
N145 N 0.87387 0.23328 0.4806 0.0
O146 O 0.79662 0.24885 0.54296 0.0
H147 H 0.79693 0.18679 0.51042 0.0
H148 H 0.89261 0.27038 0.526 0.0
O149 O 0.78984 0.19403 0.58869 0.0
C150 C 0.81358 0.27692 0.5249 0.0
O151 O 0.84605 0.29492 0.53153 0.0
N152 N 0.85562 0.23813 0.61349 0.0
C153 C 0.90319 0.24664 0.67095 0.0
C154 C 0.86961 0.221 0.67476 0.0
C155 C 0.84605 0.2177 0.64626 0.0
C156 C 0.88809 0.26355 0.60996 0.0
C157 C 0.91235 0.26786 0.63777 0.0
H158 H 0.81988 0.20033 0.65234 0.0
H159 H 0.89476 0.28253 0.58745 0.0
H160 H 0.75516 0.22617 0.61405 0.0
H161 H 0.814 0.30214 0.69551 0.0
H162 H 0.83487 0.19063 0.44957 0.0
H163 H 0.86116 0.20505 0.70085 0.0
H164 H 0.93779 0.28861 0.63417 0.0
C165 C 0.74168 0.55484 0.30878 0.0
C166 C 0.73722 0.52954 0.33435 0.0
N167 N 0.76121 0.52143 0.32702 0.0
N168 N 0.76859 0.56306 0.28557 0.0
C169 C 0.77988 0.54219 0.29716 0.0
H170 H 0.72557 0.56571 0.30631 0.0
Co171 Co 0.78197 0.59283 0.24293 0.0
C172 C 0.85635 0.63249 0.24727 0.0
O173 O 0.85423 0.65886 0.23608 0.0
N174 N 0.79425 0.62179 0.19792 0.0
C175 C 0.81229 0.63884 0.13623 0.0
C176 C 0.81445 0.62188 0.16868 0.0
C177 C 0.77969 0.63862 0.18192 0.0
N178 N 0.79027 0.64924 0.14451 0.0
O179 O 0.77267 0.55626 0.20818 0.0
H180 H 0.82832 0.60853 0.16992 0.0
H181 H 0.7595 0.64055 0.19557 0.0
O182 O 0.82935 0.60387 0.25077 0.0
C183 C 0.74356 0.54611 0.19353 0.0
O184 O 0.72721 0.56165 0.20386 0.0
N185 N 0.78709 0.62713 0.27785 0.0
C186 C 0.77917 0.66584 0.33602 0.0
C187 C 0.806 0.65946 0.33781 0.0
C188 C 0.80901 0.63926 0.30898 0.0
C189 C 0.76075 0.63295 0.27613 0.0
C190 C 0.75661 0.65263 0.30441 0.0
H191 H 0.82746 0.63158 0.31363 0.0
H192 H 0.74114 0.61991 0.25459 0.0
H193 H 0.80093 0.54178 0.2833 0.0
H194 H 0.71691 0.51714 0.35552 0.0
H195 H 0.82479 0.64192 0.10807 0.0
H196 H 0.8231 0.668 0.36271 0.0
H197 H 0.73501 0.65618 0.30252 0.0
H198 H 0.25125 0.75121 0.27513 0.0
H199 H 0.24593 0.70006 0.24555 0.0
H200 H 0.25218 0.66375 0.36134 0.0
H201 H 0.25688 0.71484 0.39121 0.0
H202 H 0.29602 0.66082 0.29077 0.0
H203 H 0.18304 0.62612 0.33485 0.0
H204 H 0.13352 0.63333 0.34222 0.0
H205 H 0.12483 0.63551 0.21589 0.0
H206 H 0.17469 0.62887 0.20776 0.0
H207 H 0.24247 0.49517 0.20822 0.0
H208 H 0.25467 0.54313 0.25134 0.0
H209 H 0.21396 0.58109 0.16298 0.0
H210 H 0.20095 0.53318 0.12098 0.0
H211 H 0.18681 0.57931 0.23052 0.0
H212 H 0.3001 0.61902 0.18425 0.0
H213 H 0.35167 0.61599 0.17319 0.0
H214 H 0.36184 0.6078 0.29846 0.0
H215 H 0.31007 0.61039 0.31022 0.0
C216 C 0.25158 0.73234 0.2942 0.0
C217 C 0.25432 0.7368 0.33538 0.0
C218 C 0.24858 0.70324 0.27735 0.0
C219 C 0.24884 0.67832 0.30131 0.0
C220 C 0.25209 0.68284 0.34243 0.0
C221 C 0.25443 0.71175 0.35942 0.0
C222 C 0.24416 0.64705 0.28294 0.0
C223 C 0.27203 0.64251 0.27824 0.0
C224 C 0.21305 0.62377 0.26598 0.0
C225 C 0.18275 0.62724 0.27072 0.0
C226 C 0.17074 0.62841 0.30864 0.0
C227 C 0.14258 0.63234 0.31296 0.0
C228 C 0.12606 0.63489 0.27954 0.0
C229 C 0.13765 0.6335 0.24174 0.0
C230 C 0.16584 0.62962 0.23726 0.0
C231 C 0.2368 0.51419 0.19791 0.0
C232 C 0.22058 0.51045 0.16149 0.0
C233 C 0.24369 0.54152 0.22251 0.0
C234 C 0.23499 0.56567 0.21055 0.0
C235 C 0.22048 0.56264 0.17319 0.0
C236 C 0.21318 0.53529 0.1491 0.0
C237 C 0.23895 0.59319 0.23719 0.0
C238 C 0.21079 0.59712 0.24351 0.0
C239 C 0.26995 0.61607 0.25511 0.0
C240 C 0.301 0.61446 0.24808 0.0
C241 C 0.31317 0.61627 0.20941 0.0
C242 C 0.34247 0.6147 0.20302 0.0
C243 C 0.35995 0.61158 0.23509 0.0
C244 C 0.34823 0.61014 0.27364 0.0
C245 C 0.31893 0.61168 0.28019 0.0
H246 H 0.38264 0.61038 0.23009 0.0
H247 H 0.10422 0.63783 0.28297 0.0
H248 H 0.54078 0.68459 0.86257 0.0
H249 H 0.49114 0.64906 0.90237 0.0
H250 H 0.44901 0.71173 0.87144 0.0
H251 H 0.49962 0.74821 0.83173 0.0
H252 H 0.43392 0.68711 0.95001 0.0
H253 H 0.42553 0.64255 0.82005 0.0
H254 H 0.44502 0.62466 0.76189 0.0
H255 H 0.45172 0.55017 0.83254 0.0
H256 H 0.43277 0.568 0.89131 0.0
H257 H 0.26401 0.55676 0.98648 0.0
H258 H 0.31616 0.60145 0.95742 0.0
H259 H 0.36545 0.54449 0.98368 0.0
H260 H 0.31306 0.49944 0.01262 0.0
H261 H 0.37566 0.56793 0.90671 0.0
H262 H 0.38363 0.61251 0.03679 0.0
H263 H 0.36381 0.63034 0.09469 0.0
H264 H 0.35666 0.70428 0.02347 0.0
H265 H 0.37596 0.68653 0.96495 0.0
C266 C 0.52123 0.69122 0.86473 0.0
C267 C 0.52386 0.71894 0.8437 0.0
C268 C 0.49282 0.67083 0.88747 0.0
C269 C 0.46598 0.67722 0.88917 0.0
C270 C 0.46936 0.70622 0.87035 0.0
C271 C 0.49824 0.72705 0.84776 0.0
C272 C 0.43372 0.6519 0.90792 0.0
C273 C 0.42086 0.66117 0.94019 0.0
C274 C 0.41695 0.61787 0.89555 0.0
C275 C 0.42798 0.6068 0.86015 0.0
C276 C 0.43137 0.62251 0.82325 0.0
C277 C 0.4423 0.61237 0.79017 0.0
C278 C 0.44967 0.58634 0.79354 0.0
C279 C 0.44603 0.57035 0.82999 0.0
C280 C 0.43517 0.58044 0.86318 0.0
C281 C 0.28592 0.55369 0.98602 0.0
C282 C 0.28435 0.52443 1.00165 0.0
C283 C 0.31581 0.57943 0.96973 0.0
C284 C 0.34479 0.57645 0.96857 0.0
C285 C 0.34341 0.54738 0.98438 0.0
C286 C 0.31355 0.52173 1.00106 0.0
C287 C 0.37603 0.60295 0.94918 0.0
C288 C 0.38864 0.59387 0.91656 0.0
C289 C 0.39234 0.63706 0.96118 0.0
C290 C 0.38091 0.64794 0.99637 0.0
C291 C 0.37755 0.63237 0.03337 0.0
C292 C 0.36646 0.6425 0.06633 0.0
C293 C 0.35889 0.66836 0.06274 0.0
C294 C 0.36249 0.68422 0.0262 0.0
C295 C 0.37353 0.67415 0.99312 0.0
H296 H 0.3503 0.67617 0.08829 0.0
H297 H 0.45813 0.57852 0.76789 0.0
H298 H 0.34 0.79663 0.45429 0.0
H299 H 0.37185 0.77996 0.49769 0.0
H300 H 0.3031 0.7638 0.59341 0.0
H301 H 0.27033 0.77966 0.54934 0.0
H302 H 0.37736 0.81017 0.60744 0.0
H303 H 0.29893 0.69842 0.56478 0.0
H304 H 0.26583 0.65494 0.51538 0.0
H305 H 0.35683 0.67138 0.45923 0.0
H306 H 0.3905 0.71534 0.50794 0.0
H307 H 0.4781 0.76408 0.72566 0.0
H308 H 0.43048 0.76631 0.69586 0.0
H309 H 0.46092 0.75106 0.58044 0.0
H310 H 0.50756 0.74767 0.61037 0.0
H311 H 0.39725 0.71466 0.58504 0.0
H312 H 0.47539 0.83016 0.61699 0.0
H313 H 0.51154 0.87801 0.66007 0.0
H314 H 0.42553 0.85962 0.72951 0.0
H315 H 0.38893 0.8113 0.6872 0.0
C316 C 0.33125 0.78881 0.48435 0.0
C317 C 0.30269 0.78922 0.49851 0.0
C318 C 0.34946 0.77933 0.50909 0.0
C319 C 0.33984 0.7707 0.54872 0.0
C320 C 0.31082 0.77031 0.56284 0.0
C321 C 0.29203 0.77908 0.53767 0.0
C322 C 0.36175 0.76432 0.57537 0.0
C323 C 0.38119 0.78885 0.6034 0.0
C324 C 0.3674 0.73711 0.56897 0.0
C325 C 0.34724 0.71034 0.53992 0.0
C326 C 0.31189 0.69294 0.54174 0.0
C327 C 0.29302 0.66817 0.51388 0.0
C328 C 0.30921 0.66044 0.48414 0.0
C329 C 0.34432 0.6774 0.48228 0.0
C330 C 0.36331 0.70221 0.51005 0.0
C331 C 0.47463 0.76143 0.69392 0.0
C332 C 0.4965 0.75571 0.6703 0.0
C333 C 0.44744 0.76272 0.67687 0.0
C334 C 0.44211 0.75914 0.63573 0.0
C335 C 0.46419 0.75365 0.61223 0.0
C336 C 0.49092 0.75178 0.62932 0.0
C337 C 0.41372 0.76102 0.61673 0.0
C338 C 0.39309 0.73567 0.58993 0.0
C339 C 0.4075 0.78793 0.62365 0.0
C340 C 0.42951 0.81682 0.64928 0.0
C341 C 0.46424 0.83611 0.64169 0.0
C342 C 0.4848 0.86335 0.66593 0.0
C343 C 0.47086 0.87176 0.69761 0.0
C344 C 0.43631 0.853 0.70505 0.0
C345 C 0.41565 0.82568 0.68096 0.0
H346 H 0.48681 0.89288 0.71631 0.0
H347 H 0.29456 0.64128 0.46258 0.0
H348 H 0.55106 0.21888 0.90107 0.0
H349 H 0.59885 0.23584 0.85639 0.0
H350 H 0.54354 0.24955 0.76197 0.0
H351 H 0.49563 0.23338 0.80732 0.0
H352 H 0.57197 0.20446 0.74654 0.0
H353 H 0.60527 0.31597 0.78928 0.0
H354 H 0.61642 0.36005 0.83819 0.0
H355 H 0.69249 0.34477 0.89217 0.0
H356 H 0.68146 0.30021 0.84395 0.0
H357 H 0.71708 0.25082 0.62487 0.0
H358 H 0.66761 0.24844 0.65605 0.0
H359 H 0.71481 0.26344 0.77042 0.0
H360 H 0.76453 0.26711 0.73906 0.0
H361 H 0.68742 0.29998 0.76697 0.0
H362 H 0.64932 0.18396 0.73405 0.0
H363 H 0.63729 0.13667 0.68967 0.0
H364 H 0.56994 0.15683 0.6222 0.0
H365 H 0.58193 0.20453 0.66587 0.0
C366 C 0.54938 0.22626 0.87102 0.0
C367 C 0.51984 0.22504 0.8576 0.0
C368 C 0.57665 0.2359 0.84554 0.0
C369 C 0.5747 0.2439 0.8059 0.0
C370 C 0.54551 0.24354 0.79253 0.0
C371 C 0.51836 0.2346 0.81843 0.0
C372 C 0.60255 0.2503 0.77846 0.0
C373 C 0.59712 0.22577 0.75021 0.0
C374 C 0.63542 0.27757 0.7842 0.0
C375 C 0.64237 0.30457 0.8131 0.0
C376 C 0.6242 0.32181 0.81176 0.0
C377 C 0.63053 0.34693 0.83933 0.0
C378 C 0.65511 0.35517 0.86831 0.0
C379 C 0.67346 0.33836 0.86971 0.0
C380 C 0.66721 0.3132 0.84222 0.0
C381 C 0.71665 0.25333 0.65668 0.0
C382 C 0.74456 0.25908 0.6796 0.0
C383 C 0.68839 0.25196 0.67452 0.0
C384 C 0.68719 0.25544 0.71577 0.0
C385 C 0.71506 0.2609 0.73858 0.0
C386 C 0.74346 0.2629 0.72069 0.0
C387 C 0.65721 0.25358 0.73557 0.0
C388 C 0.66224 0.27895 0.76256 0.0
C389 C 0.62404 0.22672 0.72915 0.0
C390 C 0.61684 0.19806 0.70292 0.0
C391 C 0.63215 0.17846 0.70956 0.0
C392 C 0.62531 0.15157 0.68457 0.0
C393 C 0.60294 0.14383 0.65307 0.0
C394 C 0.58731 0.16291 0.64656 0.0
C395 C 0.59411 0.18986 0.67142 0.0
H396 H 0.59764 0.123 0.63377 0.0
H397 H 0.65996 0.37461 0.88965 0.0
H398 H 0.738 0.49364 0.39949 0.0
H399 H 0.74126 0.44723 0.4301 0.0
H400 H 0.79599 0.44232 0.32896 0.0
H401 H 0.79155 0.48799 0.29722 0.0
H402 H 0.75094 0.38051 0.35199 0.0
H403 H 0.83608 0.47805 0.41539 0.0
H404 H 0.86084 0.5321 0.45063 0.0
H405 H 0.7945 0.48379 0.54908 0.0
H406 H 0.76892 0.42946 0.51409 0.0
H407 H 0.83493 0.30417 0.45245 0.0
H408 H 0.81842 0.33983 0.41582 0.0
H409 H 0.74339 0.32113 0.50454 0.0
H410 H 0.75923 0.28436 0.54074 0.0
H411 H 0.79564 0.39254 0.48827 0.0
H412 H 0.7141 0.29238 0.42147 0.0
H413 H 0.69506 0.24005 0.3838 0.0
H414 H 0.76279 0.29599 0.28914 0.0
H415 H 0.78261 0.34864 0.3265 0.0
C416 C 0.75048 0.4826 0.38344 0.0
C417 C 0.76449 0.49475 0.34574 0.0
C418 C 0.75259 0.45616 0.40124 0.0
C419 C 0.76917 0.4414 0.38209 0.0
C420 C 0.78309 0.45329 0.34439 0.0
C421 C 0.78086 0.47973 0.32643 0.0
C422 C 0.77214 0.41382 0.40173 0.0
C423 C 0.76101 0.38329 0.38164 0.0
C424 C 0.78496 0.41719 0.44062 0.0
C425 C 0.80032 0.44975 0.46192 0.0
C426 C 0.82657 0.47899 0.44442 0.0
C427 C 0.84079 0.50969 0.46437 0.0
C428 C 0.82919 0.51142 0.50204 0.0
C429 C 0.80341 0.48242 0.51987 0.0
C430 C 0.78905 0.45166 0.49999 0.0
C431 C 0.81411 0.30675 0.46335 0.0
C432 C 0.79804 0.29129 0.49906 0.0
C433 C 0.80479 0.32719 0.44252 0.0
C434 C 0.77974 0.33316 0.4575 0.0
C435 C 0.76268 0.31668 0.49243 0.0
C436 C 0.77149 0.29549 0.51285 0.0
C437 C 0.77414 0.35927 0.43869 0.0
C438 C 0.78514 0.38967 0.45883 0.0
C439 C 0.762 0.35604 0.39956 0.0
C440 C 0.75005 0.32443 0.37696 0.0
C441 C 0.72516 0.2935 0.39278 0.0
C442 C 0.71417 0.26378 0.37144 0.0
C443 C 0.72776 0.26468 0.33414 0.0
C444 C 0.75231 0.29533 0.31805 0.0
C445 C 0.76339 0.32512 0.33928 0.0
H446 H 0.71922 0.24164 0.31767 0.0
H447 H 0.84025 0.53522 0.51744 0.0
H448 H 0.55415 0.25267 0.04317 0.0
H449 H 0.60088 0.30367 0.0705 0.0
H450 H 0.55765 0.36175 0.02525 0.0
H451 H 0.51049 0.3105 0.9978 0.0
H452 H 0.62524 0.39421 0.01356 0.0
H453 H 0.54952 0.3399 0.12192 0.0
H454 H 0.51404 0.293 0.16706 0.0
H455 H 0.60078 0.28825 0.20551 0.0
H456 H 0.63674 0.33484 0.16012 0.0
H457 H 0.69663 0.53553 0.13863 0.0
H458 H 0.66236 0.48472 0.10064 0.0
H459 H 0.71751 0.4396 0.14954 0.0
H460 H 0.75224 0.49099 0.18814 0.0
H461 H 0.64873 0.39928 0.15746 0.0
H462 H 0.72524 0.45928 0.05218 0.0
H463 H 0.759 0.50799 0.00856 0.0
H464 H 0.66897 0.50412 0.96595 0.0
H465 H 0.63467 0.45559 0.00964 0.0
C466 C 0.55431 0.27617 0.03927 0.0
C467 C 0.52826 0.27737 0.01868 0.0
C468 C 0.5812 0.3054 0.05479 0.0
C469 C 0.5826 0.33651 0.05039 0.0
C470 C 0.55711 0.33801 0.02901 0.0
C471 C 0.53017 0.30872 0.01333 0.0
C472 C 0.61023 0.36724 0.06895 0.0
C473 C 0.63022 0.39542 0.04506 0.0
C474 C 0.61728 0.36858 0.10993 0.0
C475 C 0.59575 0.34059 0.13728 0.0
C476 C 0.56099 0.32866 0.13974 0.0
C477 C 0.5408 0.30217 0.16542 0.0
C478 C 0.55513 0.28758 0.18905 0.0
C479 C 0.58971 0.29953 0.18712 0.0
C480 C 0.61001 0.32598 0.16144 0.0
C481 C 0.70191 0.51503 0.14086 0.0
C482 C 0.72704 0.51714 0.16644 0.0
C483 C 0.68238 0.48604 0.1189 0.0
C484 C 0.68745 0.45839 0.12201 0.0
C485 C 0.71329 0.46074 0.14659 0.0
C486 C 0.73322 0.49009 0.1684 0.0
C487 C 0.66365 0.42636 0.10215 0.0
C488 C 0.64418 0.39791 0.12584 0.0
C489 C 0.65688 0.42495 0.0611 0.0
C490 C 0.67739 0.45388 0.03438 0.0
C491 C 0.71264 0.46892 0.03367 0.0
C492 C 0.73188 0.49648 0.00889 0.0
C493 C 0.71614 0.50916 0.98453 0.0
C494 C 0.68113 0.49425 0.98482 0.0
C495 C 0.66177 0.46667 0.00952 0.0
H496 H 0.73108 0.53053 0.9654 0.0
H497 H 0.53946 0.26709 0.20893 0.0
H498 H 0.94674 0.30748 0.70296 0.0
H499 H 0.9862 0.31958 0.75696 0.0
H500 H 0.95443 0.21402 0.76712 0.0
H501 H 0.91421 0.20163 0.71301 0.0
H502 H 0.96001 0.23985 0.83814 0.0
H503 H 0.03165 0.27042 0.72622 0.0
H504 H 0.0561 0.29716 0.66199 0.0
H505 H 0.0915 0.39479 0.71273 0.0
H506 H 0.06683 0.36864 0.77716 0.0
H507 H 0.10379 0.29278 0.97076 0.0
H508 H 0.06751 0.26808 0.9124 0.0
H509 H 0.06119 0.35826 0.89811 0.0
H510 H 0.09653 0.38254 0.95654 0.0
H511 H 0.07833 0.33242 0.8267 0.0
H512 H 0.99848 0.29843 0.93624 0.0
H513 H 0.97465 0.27023 1.00004 0.0
H514 H 0.95682 0.17622 0.95188 0.0
H515 H 0.98105 0.20404 0.88791 0.0
C516 C 0.94846 0.28685 0.71623 0.0
C517 C 0.9277 0.25364 0.70331 0.0
C518 C 0.97107 0.29381 0.74716 0.0
C519 C 0.97387 0.26782 0.76561 0.0
C520 C 0.95288 0.23451 0.75316 0.0
C521 C 0.92995 0.22747 0.72229 0.0
C522 C 0.99807 0.27576 0.79864 0.0
C523 C 0.98607 0.25957 0.83532 0.0
C524 C 0.03213 0.30157 0.79518 0.0
C525 C 0.04719 0.31752 0.75651 0.0
C526 C 0.04445 0.29758 0.72364 0.0
C527 C 0.05838 0.31264 0.68719 0.0
C528 C 0.0753 0.34765 0.68326 0.0
C529 C 0.07838 0.36768 0.71581 0.0
C530 C 0.06447 0.35274 0.75233 0.0
C531 C 0.0945 0.30714 0.95509 0.0
C532 C 0.10258 0.33936 0.9682 0.0
C533 C 0.07386 0.29308 0.92193 0.0
C534 C 0.06174 0.31141 0.90111 0.0
C535 C 0.07033 0.34377 0.91383 0.0
C536 C 0.09029 0.3575 0.94728 0.0
C537 C 0.03989 0.29719 0.86604 0.0
C538 C 0.05243 0.31223 0.82907 0.0
C539 C 1.00656 0.27007 0.86911 0.0
C540 C 0.992 0.2534 0.9075 0.0
C541 C 0.98982 0.27183 0.93939 0.0
C542 C 0.97617 0.2559 0.97555 0.0
C543 C 0.96435 0.22148 0.98006 0.0
C544 C 0.96607 0.2029 0.94838 0.0
C545 C 0.97975 0.21873 0.91216 0.0
H546 H 0.95376 0.20918 0.00807 0.0
H547 H 0.08606 0.35926 0.65502 0.0
H548 H 0.82304 0.72496 0.37288 0.0
H549 H 0.81072 0.75208 0.42785 0.0
H550 H 0.7078 0.67069 0.42956 0.0
H551 H 0.71978 0.64431 0.37428 0.0
H552 H 0.70774 0.7263 0.43705 0.0
H553 H 0.7698 0.67859 0.49786 0.0
H554 H 0.81846 0.67019 0.50692 0.0
H555 H 0.88166 0.77542 0.53117 0.0
H556 H 0.83342 0.78452 0.5217 0.0
H557 H 0.65067 0.71897 0.63223 0.0
H558 H 0.67554 0.70835 0.57397 0.0
H559 H 0.75355 0.81256 0.57129 0.0
H560 H 0.7283 0.82358 0.62966 0.0
H561 H 0.77258 0.75606 0.56225 0.0
H562 H 0.7047 0.79983 0.50794 0.0
H563 H 0.65293 0.80331 0.50236 0.0
H564 H 0.59742 0.69926 0.46912 0.0
H565 H 0.64878 0.69502 0.47514 0.0
C566 C 0.79783 0.71301 0.38507 0.0
C567 C 0.7723 0.68271 0.36914 0.0
C568 C 0.79081 0.72842 0.41652 0.0
C569 C 0.75834 0.71335 0.43311 0.0
C570 C 0.73296 0.68302 0.41715 0.0
C571 C 0.73982 0.66795 0.3855 0.0
C572 C 0.7503 0.72865 0.46715 0.0
C573 C 0.72197 0.73272 0.46438 0.0
C574 C 0.76918 0.73778 0.50269 0.0
C575 C 0.79812 0.73231 0.50859 0.0
C576 C 0.79414 0.69998 0.50483 0.0
C577 C 0.82163 0.69508 0.51008 0.0
C578 C 0.85316 0.72227 0.51949 0.0
C579 C 0.85723 0.7544 0.52379 0.0
C580 C 0.82983 0.75944 0.5185 0.0
C581 C 0.67333 0.73957 0.61952 0.0
C582 C 0.68769 0.77207 0.63553 0.0
C583 C 0.68741 0.73349 0.58621 0.0
C584 C 0.71632 0.75967 0.56848 0.0
C585 C 0.73126 0.79206 0.58475 0.0
C586 C 0.71678 0.79833 0.61784 0.0
C587 C 0.7298 0.75284 0.53208 0.0
C588 C 0.75895 0.75028 0.53451 0.0
C589 C 0.71139 0.74449 0.49641 0.0
C590 C 0.68054 0.74706 0.4923 0.0
C591 C 0.6814 0.77762 0.49977 0.0
C592 C 0.65214 0.77974 0.49647 0.0
C593 C 0.62189 0.7515 0.48547 0.0
C594 C 0.62086 0.72111 0.47765 0.0
C595 C 0.65005 0.71884 0.48096 0.0
H596 H 0.59925 0.75319 0.48293 0.0
H597 H 0.87441 0.71843 0.52354 0.0
H598 H 0.3579 0.13489 0.09079 0.0
H599 H 0.33226 0.09751 0.14711 0.0
H600 H 0.28857 0.01191 0.06919 0.0
H601 H 0.31235 0.04946 0.01205 0.0
H602 H 0.24589 1.00236 0.12687 0.0
H603 H 0.36267 0.0356 0.12016 0.0
H604 H 0.42366 0.0754 0.1162 0.0
H605 H 0.41982 0.11886 0.22702 0.0
H606 H 0.35867 0.0796 0.23136 0.0
H607 H 0.23068 0.87886 0.2683 0.0
H608 H 0.24374 0.91722 0.21236 0.0
H609 H 0.27714 1.00074 0.29251 0.0
H610 H 0.26337 0.96239 0.34892 0.0
H611 H 0.32355 0.01174 0.23457 0.0
H612 H 0.2054 0.97401 0.24165 0.0
H613 H 0.14501 0.93178 0.24433 0.0
H614 H 0.15236 0.89348 0.13128 0.0
H615 H 0.21293 0.93519 0.12818 0.0
C616 C 0.34211 0.10825 0.08525 0.0
C617 C 0.3374 0.09532 0.04658 0.0
C618 C 0.32783 0.08679 0.11773 0.0
C619 C 0.30911 0.05179 0.11256 0.0
C620 C 0.30314 0.03881 0.074 0.0
C621 C 0.31708 0.06033 0.04135 0.0
C622 C 0.29712 0.02879 0.14746 0.0
C623 C 0.26294 1.0042 0.15022 0.0
C624 C 0.31923 0.03139 0.17827 0.0
C625 C 0.35604 0.05488 0.17588 0.0
C626 C 0.37479 0.0538 0.14355 0.0
C627 C 0.40939 0.07624 0.14125 0.0
C628 C 0.42559 0.0997 0.17129 0.0
C629 C 0.40722 0.1007 0.20374 0.0
C630 C 0.3726 0.07835 0.20615 0.0
C631 C 0.23991 0.90522 0.27424 0.0
C632 C 0.24591 0.91746 0.3133 0.0
C633 C 0.24753 0.92717 0.2421 0.0
C634 C 0.2613 0.96183 0.24824 0.0
C635 C 0.26658 0.97408 0.28711 0.0
C636 C 0.2588 0.95212 0.31931 0.0
C637 C 0.27234 0.98549 0.2141 0.0
C638 C 0.30645 0.0101 0.21138 0.0
C639 C 0.25025 0.98253 0.18316 0.0
C640 C 0.21378 0.95755 0.18485 0.0
C641 C 0.1942 0.95642 0.2175 0.0
C642 C 0.15992 0.9326 0.21907 0.0
C643 C 0.14487 0.90991 0.18804 0.0
C644 C 0.16406 0.91105 0.15532 0.0
C645 C 0.19836 0.9348 0.15362 0.0
H646 H 0.11833 0.89149 0.18931 0.0
H647 H 0.45238 0.11706 0.16945 0.0
H648 H 0.43108 0.28584 0.95098 0.0
H649 H 0.4151 0.3251 0.97948 0.0
H650 H 0.31224 0.25925 0.94433 0.0
H651 H 0.32811 0.22106 0.91469 0.0
H652 H 0.32467 0.3199 0.93558 0.0
H653 H 0.34459 0.25905 0.04084 0.0
H654 H 0.38002 0.24186 0.07775 0.0
H655 H 0.45039 0.34529 0.10365 0.0
H656 H 0.41554 0.36308 0.06644 0.0
H657 H 0.24006 0.33338 0.12029 0.0
H658 H 0.27856 0.31779 0.08973 0.0
H659 H 0.32067 0.40767 0.01779 0.0
H660 H 0.28206 0.42353 0.04847 0.0
H661 H 0.34694 0.3444 0.07876 0.0
H662 H 0.32705 0.38264 0.92364 0.0
H663 H 0.28662 0.3942 0.8886 0.0
H664 H 0.20744 0.32581 0.9661 0.0
H665 H 0.24726 0.31348 1.0011 0.0
C666 C 0.4052 0.28011 0.9487 0.0
C667 C 0.38087 0.2501 0.93079 0.0
C668 C 0.39602 0.30247 0.96527 0.0
C669 C 0.36225 0.29496 0.96479 0.0
C670 C 0.33842 0.2658 0.94523 0.0
C671 C 0.34758 0.24378 0.92838 0.0
C672 C 0.35073 0.31579 0.98651 0.0
C673 C 0.33004 0.32566 0.96674 0.0
C674 C 0.35723 0.32315 0.02737 0.0
C675 C 0.37766 0.3124 0.05058 0.0
C676 C 0.36767 0.27811 0.05433 0.0
C677 C 0.38765 0.26826 0.07527 0.0
C678 C 0.41748 0.29248 0.09296 0.0
C679 C 0.4273 0.32657 0.08989 0.0
C680 C 0.40745 0.33655 0.0689 0.0
C681 C 0.25801 0.35025 0.09859 0.0
C682 C 0.2578 0.37956 0.0866 0.0
C683 C 0.28016 0.34137 0.08127 0.0
C684 C 0.30232 0.36134 0.05118 0.0
C685 C 0.30367 0.39176 0.04082 0.0
C686 C 0.28167 0.40087 0.05849 0.0
C687 C 0.32076 0.34808 0.02782 0.0
C688 C 0.3425 0.3395 0.04732 0.0
C689 C 0.31458 0.34111 0.98694 0.0
C690 C 0.29023 0.3475 0.96524 0.0
C691 C 0.30098 0.36998 0.93303 0.0
C692 C 0.27817 0.37667 0.91321 0.0
C693 C 0.24452 0.36086 0.92522 0.0
C694 C 0.23353 0.33814 0.95691 0.0
C695 C 0.25621 0.3313 0.97674 0.0
H696 H 0.22693 0.36615 0.90992 0.0
H697 H 0.43295 0.28483 0.10909 0.0
H698 H 0.77995 0.10417 0.57185 0.0
H699 H 0.74159 0.05157 0.60595 0.0
H700 H 0.70601 0.10429 0.67889 0.0
H701 H 0.74388 0.15716 0.64397 0.0
H702 H 0.74337 0.04976 0.70161 0.0
H703 H 0.6461 0.06599 0.66594 0.0
H704 H 0.61584 0.08035 0.61622 0.0
H705 H 0.61372 1.00599 0.53756 0.0
H706 H 0.64449 0.99162 0.58672 0.0
H707 H 0.62927 0.90588 0.81475 0.0
H708 H 0.65462 0.96199 0.7844 0.0
H709 H 0.63626 0.91746 0.66845 0.0
H710 H 0.61084 0.86139 0.69855 0.0
H711 H 0.62352 0.97054 0.67076 0.0
H712 H 0.71168 0.94813 0.70778 0.0
H713 H 0.74372 0.93268 0.75348 0.0
H714 H 0.76622 0.01799 0.82609 0.0
H715 H 0.73381 0.03364 0.78111 0.0
C716 C 0.76345 0.1045 0.59456 0.0
C717 C 0.76486 0.13485 0.60503 0.0
C718 C 0.74157 0.0744 0.61407 0.0
C719 C 0.72074 0.07389 0.64476 0.0
C720 C 0.72141 0.10395 0.6548 0.0
C721 C 0.74302 0.13414 0.63478 0.0
C722 C 0.70047 0.04224 0.66778 0.0
C723 C 0.71694 0.03277 0.69563 0.0
C724 C 0.66635 0.01961 0.6591 0.0
C725 C 0.64795 0.02813 0.62964 0.0
C726 C 0.63952 0.05302 0.63783 0.0
C727 C 0.6222 0.06108 0.60983 0.0
C728 C 0.61297 0.04418 0.57368 0.0
C729 C 0.62097 0.01912 0.56552 0.0
C730 C 0.63835 0.01102 0.59342 0.0
C731 C 0.63023 0.90799 0.78279 0.0
C732 C 0.61836 0.87911 0.75912 0.0
C733 C 0.64486 0.94012 0.76545 0.0
C734 C 0.64769 0.94407 0.72408 0.0
C735 C 0.63446 0.91516 0.70039 0.0
C736 C 0.62015 0.88308 0.71769 0.0
C737 C 0.66619 0.97824 0.7055 0.0
C738 C 0.64965 0.98787 0.67781 0.0
C739 C 0.70036 1.00108 0.71439 0.0
C740 C 0.71997 0.99181 0.74136 0.0
C741 C 0.7232 0.96342 0.73369 0.0
C742 C 0.74147 0.95466 0.75942 0.0
C743 C 0.7569 0.97428 0.79274 0.0
C744 C 0.75418 1.00277 0.80032 0.0
C745 C 0.73587 0.0116 0.77471 0.0
H746 H 0.77105 0.96746 0.81262 0.0
H747 H 0.59953 0.05043 0.55205 0.0
H748 H 0.15507 0.72979 0.39796 0.0
H749 H 0.10097 0.69103 0.36701 0.0
H750 H 0.05672 0.74532 0.42009 0.0
H751 H 0.10996 0.7832 0.45173 0.0
H752 H 1.01161 0.68146 0.41893 0.0
H753 H 0.09095 0.76218 0.32474 0.0
H754 H 0.14463 0.78972 0.28795 0.0
H755 H 0.12105 0.69504 0.23632 0.0
H756 H 0.06743 0.66685 0.27336 0.0
H757 H 0.91791 0.68758 0.23562 0.0
H758 H 0.97047 0.70172 0.26843 0.0
H759 H 0.92264 0.60462 0.32608 0.0
H760 H 0.86926 0.59048 0.2937 0.0
H761 H 0.01354 0.68001 0.2722 0.0
H762 H 0.95598 0.6161 0.42117 0.0
H763 H 0.90308 0.59489 0.45892 0.0
H764 H 0.8832 0.66643 0.40034 0.0
H765 H 0.93632 0.68853 0.36294 0.0
C766 C 0.13359 0.73295 0.40375 0.0
C767 C 0.13701 0.75986 0.42705 0.0
C768 C 0.10269 0.71089 0.38582 0.0
C769 C 0.07475 0.71551 0.39059 0.0
C770 C 0.07774 0.74111 0.4158 0.0
C771 C 0.1084 0.76296 0.43377 0.0
C772 C 0.04325 0.69603 0.36709 0.0
C773 C 1.01208 0.68071 0.38686 0.0
C774 C 0.04361 0.69529 0.32516 0.0
C775 C 0.07542 0.71235 0.30218 0.0
C776 C 0.09731 0.74722 0.3057 0.0
C777 C 0.12772 0.76293 0.28482 0.0
C778 C 0.1363 0.74411 0.25993 0.0
C779 C 0.11441 0.70956 0.25572 0.0
C780 C 0.08402 0.6937 0.27665 0.0
C781 C 0.91854 0.66895 0.25486 0.0
C782 C 0.88919 0.63801 0.26232 0.0
C783 C 0.9488 0.67705 0.2735 0.0
C784 C 0.95062 0.65451 0.30023 0.0
C785 C 0.92185 0.62268 0.306 0.0
C786 C 0.89137 0.61452 0.28728 0.0
C787 C 0.98189 0.66591 0.32403 0.0
C788 C 1.01303 0.67983 0.3043 0.0
C789 C 0.98152 0.66617 0.36598 0.0
C790 C 0.94986 0.65359 0.38886 0.0
C791 C 0.94035 0.62734 0.41646 0.0
C792 C 0.91034 0.61518 0.43779 0.0
C793 C 0.88968 0.62915 0.43185 0.0
C794 C 0.89914 0.65552 0.4048 0.0
C795 C 0.92921 0.66789 0.38355 0.0
H796 H 0.86642 0.61963 0.44831 0.0
H797 H 0.15986 0.7563 0.24382 0.0
H798 H 0.91426 0.29899 0.46147 0.0
H799 H 0.95913 0.32214 0.41126 0.0
H800 H 0.93989 0.22216 0.38528 0.0
H801 H 0.8944 0.19882 0.43477 0.0
H802 H 0.01656 0.28966 0.40479 0.0
H803 H 0.91512 0.23593 0.3201 0.0
H804 H 0.85949 0.22742 0.30113 0.0
H805 H 0.90235 0.33383 0.28322 0.0
H806 H 0.95815 0.34296 0.30272 0.0
H807 H 0.12241 0.31586 0.24207 0.0
H808 H 0.07553 0.29204 0.28911 0.0
H809 H 0.05078 0.36809 0.25573 0.0
H810 H 0.09675 0.39074 0.20709 0.0
H811 H 0.99575 0.31456 0.26799 0.0
H812 H 0.09561 0.37112 0.34439 0.0
H813 H 0.15234 0.38637 0.36781 0.0
H814 H 0.1158 0.28478 0.40723 0.0
H815 H 0.05891 0.2688 0.38355 0.0
C816 C 0.91977 0.28201 0.44521 0.0
C817 C 0.90094 0.2471 0.45205 0.0
C818 C 0.94524 0.29523 0.41645 0.0
C819 C 0.95269 0.27382 0.39453 0.0
C820 C 0.93439 0.23905 0.4018 0.0
C821 C 0.90844 0.22576 0.42993 0.0
C822 C 0.9797 0.2878 0.36411 0.0
C823 C 1.01204 0.2947 0.37468 0.0
C824 C 0.97403 0.2957 0.32547 0.0
C825 C 0.94064 0.29015 0.31334 0.0
C826 C 0.91258 0.25752 0.31253 0.0
C827 C 0.88105 0.25258 0.30158 0.0
C828 C 0.87736 0.28008 0.29111 0.0
C829 C 0.90522 0.31256 0.29142 0.0
C830 C 0.9368 0.31763 0.30239 0.0
C831 C 0.10676 0.32728 0.24468 0.0
C832 C 0.11325 0.35518 0.22109 0.0
C833 C 0.0801 0.31385 0.2718 0.0
C834 C 0.05994 0.32872 0.277 0.0
C835 C 0.06589 0.35612 0.25258 0.0
C836 C 0.09214 0.36907 0.22473 0.0
C837 C 0.03301 0.31586 0.30808 0.0
C838 C 1.0006 0.30945 0.2979 0.0
C839 C 0.0389 0.3092 0.3475 0.0
C840 C 0.07307 0.31869 0.36184 0.0
C841 C 0.09972 0.35197 0.3578 0.0
C842 C 0.1319 0.36075 0.37116 0.0
C843 C 0.13769 0.33654 0.38891 0.0
C844 C 0.11129 0.3035 0.39343 0.0
C845 C 0.07906 0.29457 0.38007 0.0
H846 H 0.16262 0.34339 0.39923 0.0
H847 H 0.85293 0.27621 0.28265 0.0
H848 H 0.68564 0.81397 0.92971 0.0
H849 H 0.70596 0.79053 0.98083 0.0
H850 H 0.6853 0.70736 0.9041 0.0
H851 H 0.66329 0.72998 0.85399 0.0
H852 H 0.66926 0.68349 0.97258 0.0
H853 H 0.76832 0.77886 0.92203 0.0
H854 H 0.80572 0.83816 0.90297 0.0
H855 H 0.80742 0.8686 0.02334 0.0
H856 H 0.76966 0.80949 0.04303 0.0
H857 H 0.77947 0.63664 0.06611 0.0
H858 H 0.75639 0.66085 0.01956 0.0
H859 H 0.74767 0.71921 0.11372 0.0
H860 H 0.77061 0.69469 0.16071 0.0
H861 H 0.77833 0.75577 0.03917 0.0
H862 H 0.67964 0.65539 0.08708 0.0
H863 H 0.64702 0.5946 0.10181 0.0
H864 H 0.65052 0.57231 0.9792 0.0
H865 H 0.68357 0.633 0.96382 0.0
C866 C 0.68549 0.7907 0.9239 0.0
C867 C 0.673 0.77385 0.88789 0.0
C868 C 0.69729 0.77735 0.95302 0.0
C869 C 0.69797 0.74741 0.94626 0.0
C870 C 0.68514 0.73043 0.9103 0.0
C871 C 0.67257 0.74336 0.88159 0.0
C872 C 0.7119 0.73373 0.97653 0.0
C873 C 0.6933 0.69938 0.98668 0.0
C874 C 0.74316 0.75422 0.99563 0.0
C875 C 0.76587 0.78979 0.98392 0.0
C876 C 0.77647 0.79823 0.94438 0.0
C877 C 0.79776 0.8318 0.93347 0.0
C878 C 0.80886 0.85714 0.9619 0.0
C879 C 0.79875 0.84895 1.00133 0.0
C880 C 0.77743 0.81542 0.01239 0.0
C881 C 0.7729 0.65482 0.07688 0.0
C882 C 0.77699 0.66389 0.11707 0.0
C883 C 0.75953 0.66848 0.05029 0.0
C884 C 0.75024 0.69177 0.06319 0.0
C885 C 0.75468 0.70127 0.10317 0.0
C886 C 0.7676 0.68717 0.12998 0.0
C887 C 0.73569 0.70588 0.03479 0.0
C888 C 0.75422 0.74018 0.02503 0.0
C889 C 0.70487 0.68521 0.0153 0.0
C890 C 0.6843 0.64874 0.02436 0.0
C891 C 0.67362 0.63752 0.0633 0.0
C892 C 0.65502 0.60309 0.07176 0.0
C893 C 0.64676 0.57961 0.04147 0.0
C894 C 0.65695 0.59053 1.00263 0.0
C895 C 0.67556 0.62494 0.99401 0.0
H896 H 0.63242 0.55296 0.0481 0.0
H897 H 0.82535 0.88312 0.9534 0.0
H898 H 0.3874 0.14559 0.73819 0.0
H899 H 0.36484 0.09893 0.69182 0.0
H900 H 0.32715 0.02838 0.78912 0.0
H901 H 0.3496 0.07526 0.83605 0.0
H902 H 0.35644 0.00907 0.73263 0.0
H903 H 0.27421 0.04461 0.73528 0.0
H904 H 0.25403 0.08529 0.7309 0.0
H905 H 0.28954 0.10883 0.611 0.0
H906 H 0.31037 0.06861 0.61484 0.0
H907 H 0.24599 0.86531 0.62127 0.0
H908 H 0.2704 0.91173 0.66793 0.0
H909 H 0.30521 0.98272 0.571 0.0
H910 H 0.27967 0.93617 0.52387 0.0
H911 H 0.27767 1.00183 0.62748 0.0
H912 H 0.35946 0.96616 0.62412 0.0
H913 H 0.38011 0.92584 0.62814 0.0
H914 H 0.34616 0.90286 0.74863 0.0
H915 H 0.32485 0.9427 0.74517 0.0
C916 C 0.37403 0.12023 0.74992 0.0
C917 C 0.37 0.1143 0.79103 0.0
C918 C 0.3612 0.09349 0.72324 0.0
C919 C 0.34381 0.06009 0.73687 0.0
C920 C 0.34041 0.05395 0.77787 0.0
C921 C 0.35331 0.08078 0.80469 0.0
C922 C 0.32908 0.03173 0.70818 0.0
C923 C 0.33884 1.0072 0.70999 0.0
C924 C 0.30678 0.02973 0.67793 0.0
C925 C 0.29413 0.05382 0.67548 0.0
C926 C 0.27795 0.05865 0.70807 0.0
C927 C 0.26635 0.08159 0.70567 0.0
C928 C 0.27058 0.0997 0.67072 0.0
C929 C 0.28633 0.09482 0.63806 0.0
C930 C 0.298 0.07193 0.64033 0.0
C931 C 0.25853 0.89072 0.60967 0.0
C932 C 0.2607 0.89686 0.56859 0.0
C933 C 0.27289 0.91733 0.63653 0.0
C934 C 0.29007 0.9508 0.62308 0.0
C935 C 0.29222 0.95711 0.58214 0.0
C936 C 0.27781 0.93045 0.55518 0.0
C937 C 0.30504 0.97912 0.65183 0.0
C938 C 0.2953 1.00366 0.65006 0.0
C939 C 0.3274 0.98114 0.68204 0.0
C940 C 0.34026 0.9572 0.68425 0.0
C941 C 0.35614 0.95231 0.65138 0.0
C942 C 0.36802 0.92957 0.65357 0.0
C943 C 0.36438 0.91173 0.68859 0.0
C944 C 0.34892 0.91666 0.72151 0.0
C945 C 0.33697 0.93934 0.71946 0.0
H946 H 0.3736 0.89415 0.69023 0.0
H947 H 0.26158 0.11745 0.66892 0.0
loop_
_geom_bond_atom_site_label_1
_geom_bond_atom_site_label_2
_geom_bond_distance
_geom_bond_site_symmetry_2
_ccdc_geom_bond_type
C0 C1 1.351 1_554 S
C0 N3 1.368 . S
C0 H5 0.931 . S
C1 C0 1.351 1_556 S
C1 N2 1.373 . S
C1 H29 0.930 . S
N2 C1 1.373 . S
N2 C4 1.340 1_556 S
N3 C0 1.368 . S
N3 C4 1.321 . S
N3 Co6 2.135 . S
C4 N2 1.340 1_554 S
C4 N3 1.321 . S
C4 H28 0.930 . S
H5 C0 0.931 . S
Co6 N3 2.135 . S
Co6 N9 2.121 . S
Co6 O14 2.055 . S
Co6 O17 2.039 . S
Co6 N20 2.140 . S
C7 O8 1.227 . S
C7 O17 1.265 . S
O8 C7 1.227 . S
N9 Co6 2.121 . S
N9 C11 1.375 . S
N9 C12 1.313 . S
C10 C11 1.338 . S
C10 N13 1.377 . S
C10 H30 0.930 . S
C11 N9 1.375 . S
C11 C10 1.338 . S
C11 H15 0.931 . S
C12 N9 1.313 . S
C12 N13 1.344 . S
C12 H16 0.930 . S
N13 C10 1.377 . S
N13 C12 1.344 . S
O14 Co6 2.055 . S
O14 C18 1.253 . S
H15 C11 0.931 . S
H16 C12 0.930 . S
O17 Co6 2.039 . S
O17 C7 1.265 . S
C18 O14 1.253 . S
C18 O19 1.227 . S
O19 C18 1.227 . S
N20 Co6 2.140 . S
N20 C23 1.346 1_554 S
N20 C24 1.345 . S
C21 C22 1.387 . S
C21 C25 1.391 1_556 S
C22 C21 1.387 . S
C22 C23 1.369 . S
C22 H31 0.929 . S
C23 N20 1.346 1_556 S
C23 C22 1.369 . S
C23 H26 0.928 . S
C24 N20 1.345 . S
C24 C25 1.371 . S
C24 H27 0.931 . S
C25 C21 1.391 1_554 S
C25 C24 1.371 . S
C25 H32 0.930 . S
H26 C23 0.928 . S
H27 C24 0.931 . S
H28 C4 0.930 . S
H29 C1 0.930 . S
H30 C10 0.930 . S
H31 C22 0.929 . S
H32 C25 0.930 . S
C33 C34 1.351 . S
C33 N36 1.368 . S
C33 H38 0.931 . S
C34 C33 1.351 . S
C34 N35 1.373 . S
C34 H62 0.930 . S
N35 C34 1.373 . S
N35 C37 1.340 . S
N36 C33 1.368 . S
N36 C37 1.321 . S
N36 Co39 2.135 . S
C37 N35 1.340 . S
C37 N36 1.321 . S
C37 H61 0.930 . S
H38 C33 0.931 . S
Co39 N36 2.135 . S
Co39 N42 2.121 . S
Co39 O47 2.055 . S
Co39 O50 2.039 . S
Co39 N53 2.140 . S
C40 O41 1.227 . S
C40 O50 1.265 . S
O41 C40 1.227 . S
N42 Co39 2.121 . S
N42 C44 1.375 . S
N42 C45 1.313 . S
C43 C44 1.338 . S
C43 N46 1.377 . S
C43 H63 0.930 . S
C44 N42 1.375 . S
C44 C43 1.338 . S
C44 H48 0.931 . S
C45 N42 1.313 . S
C45 N46 1.344 . S
C45 H49 0.930 . S
N46 C43 1.377 . S
N46 C45 1.344 . S
O47 Co39 2.055 . S
O47 C51 1.253 . S
H48 C44 0.931 . S
H49 C45 0.930 . S
O50 Co39 2.039 . S
O50 C40 1.265 . S
C51 O47 1.253 . S
C51 O52 1.227 . S
O52 C51 1.227 . S
N53 Co39 2.140 . S
N53 C56 1.346 . S
N53 C57 1.345 . S
C54 C55 1.387 . S
C54 C58 1.391 . S
C55 C54 1.387 . S
C55 C56 1.369 . S
C55 H64 0.929 . S
C56 N53 1.346 . S
C56 C55 1.369 . S
C56 H59 0.928 . S
C57 N53 1.345 . S
C57 C58 1.371 . S
C57 H60 0.931 . S
C58 C54 1.391 . S
C58 C57 1.371 . S
C58 H65 0.930 . S
H59 C56 0.928 . S
H60 C57 0.931 . S
H61 C37 0.930 . S
H62 C34 0.930 . S
H63 C43 0.930 . S
H64 C55 0.929 . S
H65 C58 0.930 . S
C66 C67 1.351 . S
C66 N69 1.368 . S
C66 H71 0.931 . S
C67 C66 1.351 . S
C67 N68 1.373 . S
C67 H95 0.930 . S
N68 C67 1.373 . S
N68 C70 1.340 . S
N69 C66 1.368 . S
N69 C70 1.321 . S
N69 Co72 2.135 . S
C70 N68 1.340 . S
C70 N69 1.321 . S
C70 H94 0.930 . S
H71 C66 0.931 . S
Co72 N69 2.135 . S
Co72 N75 2.121 . S
Co72 O80 2.055 . S
Co72 O83 2.039 . S
Co72 N86 2.140 . S
C73 O74 1.227 . S
C73 O83 1.265 . S
O74 C73 1.227 . S
N75 Co72 2.121 . S
N75 C77 1.375 . S
N75 C78 1.313 . S
C76 C77 1.338 . S
C76 N79 1.377 . S
C76 H96 0.930 . S
C77 N75 1.375 . S
C77 C76 1.338 . S
C77 H81 0.931 . S
C78 N75 1.313 . S
C78 N79 1.344 . S
C78 H82 0.930 . S
N79 C76 1.377 . S
N79 C78 1.344 . S
O80 Co72 2.055 . S
O80 C84 1.253 . S
H81 C77 0.931 . S
H82 C78 0.930 . S
O83 Co72 2.039 . S
O83 C73 1.265 . S
C84 O80 1.253 . S
C84 O85 1.227 . S
O85 C84 1.227 . S
N86 Co72 2.140 . S
N86 C89 1.346 . S
N86 C90 1.345 . S
C87 C88 1.387 . S
C87 C91 1.391 . S
C88 C87 1.387 . S
C88 C89 1.369 . S
C88 H97 0.929 . S
C89 N86 1.346 . S
C89 C88 1.369 . S
C89 H92 0.928 . S
C90 N86 1.345 . S
C90 C91 1.371 . S
C90 H93 0.931 . S
C91 C87 1.391 . S
C91 C90 1.371 . S
C91 H98 0.930 . S
H92 C89 0.928 . S
H93 C90 0.931 . S
H94 C70 0.930 . S
H95 C67 0.930 . S
H96 C76 0.930 . S
H97 C88 0.929 . S
H98 C91 0.930 . S
C99 C100 1.351 1_556 S
C99 N102 1.368 . S
C99 H104 0.931 . S
C100 C99 1.351 1_554 S
C100 N101 1.373 . S
C100 H128 0.930 . S
N101 C100 1.373 . S
N101 C103 1.340 1_554 S
N102 C99 1.368 . S
N102 C103 1.321 . S
N102 Co105 2.135 . S
C103 N101 1.340 1_556 S
C103 N102 1.321 . S
C103 H127 0.930 . S
H104 C99 0.931 . S
Co105 N102 2.135 . S
Co105 N108 2.121 . S
Co105 O113 2.055 . S
Co105 O116 2.039 . S
Co105 N119 2.140 . S
C106 O107 1.227 . S
C106 O116 1.265 . S
O107 C106 1.227 . S
N108 Co105 2.121 . S
N108 C110 1.375 . S
N108 C111 1.313 . S
C109 C110 1.338 . S
C109 N112 1.377 . S
C109 H129 0.930 . S
C110 N108 1.375 . S
C110 C109 1.338 . S
C110 H114 0.931 . S
C111 N108 1.313 . S
C111 N112 1.344 . S
C111 H115 0.930 . S
N112 C109 1.377 . S
N112 C111 1.344 . S
O113 Co105 2.055 . S
O113 C117 1.253 . S
H114 C110 0.931 . S
H115 C111 0.930 . S
O116 Co105 2.039 . S
O116 C106 1.265 . S
C117 O113 1.253 . S
C117 O118 1.227 . S
O118 C117 1.227 . S
N119 Co105 2.140 . S
N119 C122 1.346 1_556 S
N119 C123 1.345 . S
C120 C121 1.387 . S
C120 C124 1.391 1_554 S
C121 C120 1.387 . S
C121 C122 1.369 . S
C121 H130 0.929 . S
C122 N119 1.346 1_554 S
C122 C121 1.369 . S
C122 H125 0.928 . S
C123 N119 1.345 . S
C123 C124 1.371 . S
C123 H126 0.931 . S
C124 C120 1.391 1_556 S
C124 C123 1.371 . S
C124 H131 0.930 . S
H125 C122 0.928 . S
H126 C123 0.931 . S
H127 C103 0.930 . S
H128 C100 0.930 . S
H129 C109 0.930 . S
H130 C121 0.929 . S
H131 C124 0.930 . S
C132 C133 1.351 . S
C132 N135 1.368 . S
C132 H137 0.931 . S
C133 C132 1.351 . S
C133 N134 1.373 . S
C133 H161 0.930 . S
N134 C133 1.373 . S
N134 C136 1.340 . S
N135 C132 1.368 . S
N135 C136 1.321 . S
N135 Co138 2.135 . S
C136 N134 1.340 . S
C136 N135 1.321 . S
C136 H160 0.930 . S
H137 C132 0.931 . S
Co138 N135 2.135 . S
Co138 N141 2.121 . S
Co138 O146 2.055 . S
Co138 O149 2.039 . S
Co138 N152 2.140 . S
C139 O140 1.227 . S
C139 O149 1.265 . S
O140 C139 1.227 . S
N141 Co138 2.121 . S
N141 C143 1.375 . S
N141 C144 1.313 . S
C142 C143 1.338 . S
C142 N145 1.377 . S
C142 H162 0.930 . S
C143 N141 1.375 . S
C143 C142 1.338 . S
C143 H147 0.931 . S
C144 N141 1.313 . S
C144 N145 1.344 . S
C144 H148 0.930 . S
N145 C142 1.377 . S
N145 C144 1.344 . S
O146 Co138 2.055 . S
O146 C150 1.253 . S
H147 C143 0.931 . S
H148 C144 0.930 . S
O149 Co138 2.039 . S
O149 C139 1.265 . S
C150 O146 1.253 . S
C150 O151 1.227 . S
O151 C150 1.227 . S
N152 Co138 2.140 . S
N152 C155 1.346 . S
N152 C156 1.345 . S
C153 C154 1.387 . S
C153 C157 1.391 . S
C154 C153 1.387 . S
C154 C155 1.369 . S
C154 H163 0.929 . S
C155 N152 1.346 . S
C155 C154 1.369 . S
C155 H158 0.928 . S
C156 N152 1.345 . S
C156 C157 1.371 . S
C156 H159 0.931 . S
C157 C153 1.391 . S
C157 C156 1.371 . S
C157 H164 0.930 . S
H158 C155 0.928 . S
H159 C156 0.931 . S
H160 C136 0.930 . S
H161 C133 0.930 . S
H162 C142 0.930 . S
H163 C154 0.929 . S
H164 C157 0.930 . S
C165 C166 1.351 . S
C165 N168 1.368 . S
C165 H170 0.931 . S
C166 C165 1.351 . S
C166 N167 1.373 . S
C166 H194 0.930 . S
N167 C166 1.373 . S
N167 C169 1.340 . S
N168 C165 1.368 . S
N168 C169 1.321 . S
N168 Co171 2.135 . S
C169 N167 1.340 . S
C169 N168 1.321 . S
C169 H193 0.930 . S
H170 C165 0.931 . S
Co171 N168 2.135 . S
Co171 N174 2.121 . S
Co171 O179 2.055 . S
Co171 O182 2.039 . S
Co171 N185 2.140 . S
C172 O173 1.227 . S
C172 O182 1.265 . S
O173 C172 1.227 . S
N174 Co171 2.121 . S
N174 C176 1.375 . S
N174 C177 1.313 . S
C175 C176 1.338 . S
C175 N178 1.377 . S
C175 H195 0.930 . S
C176 N174 1.375 . S
C176 C175 1.338 . S
C176 H180 0.931 . S
C177 N174 1.313 . S
C177 N178 1.344 . S
C177 H181 0.930 . S
N178 C175 1.377 . S
N178 C177 1.344 . S
O179 Co171 2.055 . S
O179 C183 1.253 . S
H180 C176 0.931 . S
H181 C177 0.930 . S
O182 Co171 2.039 . S
O182 C172 1.265 . S
C183 O179 1.253 . S
C183 O184 1.227 . S
O184 C183 1.227 . S
N185 Co171 2.140 . S
N185 C188 1.346 . S
N185 C189 1.345 . S
C186 C187 1.387 . S
C186 C190 1.391 . S
C187 C186 1.387 . S
C187 C188 1.369 . S
C187 H196 0.929 . S
C188 N185 1.346 . S
C188 C187 1.369 . S
C188 H191 0.928 . S
C189 N185 1.345 . S
C189 C190 1.371 . S
C189 H192 0.931 . S
C190 C186 1.391 . S
C190 C189 1.371 . S
C190 H197 0.930 . S
H191 C188 0.928 . S
H192 C189 0.931 . S
H193 C169 0.930 . S
H194 C166 0.930 . S
H195 C175 0.930 . S
H196 C187 0.929 . S
H197 C190 0.930 . S
H198 C216 0.951 . S
H199 C218 0.951 . S
H200 C220 0.950 . S
H201 C221 0.950 . S
H202 C223 0.950 . S
H203 C226 0.950 . S
H204 C227 0.950 . S
H205 C229 0.950 . S
H206 C230 0.950 . S
H207 C231 0.951 . S
H208 C233 0.951 . S
H209 C235 0.950 . S
H210 C236 0.950 . S
H211 C238 0.950 . S
H212 C241 0.950 . S
H213 C242 0.950 . S
H214 C244 0.950 . S
H215 C245 0.950 . S
C216 H198 0.951 . S
C216 C217 1.366 . S
C216 C218 1.388 . S
C217 C216 1.366 . S
C217 C221 1.385 . S
C218 H199 0.951 . S
C218 C216 1.388 . S
C218 C219 1.366 . S
C219 C218 1.366 . S
C219 C220 1.414 . S
C219 C222 1.499 . S
C220 H200 0.950 . S
C220 C219 1.414 . S
C220 C221 1.374 . S
C221 H201 0.950 . S
C221 C217 1.385 . S
C221 C220 1.374 . S
C222 C219 1.499 . S
C222 C223 1.373 . S
C222 C224 1.389 . S
C223 H202 0.950 . S
C223 C222 1.373 . S
C223 C239 1.377 . S
C224 C222 1.389 . S
C224 C225 1.524 . S
C224 C238 1.377 . S
C225 C224 1.524 . S
C225 C226 1.397 . S
C225 C230 1.363 . S
C226 H203 0.950 . S
C226 C225 1.397 . S
C226 C227 1.334 . S
C227 H204 0.950 . S
C227 C226 1.334 . S
C227 C228 1.287 . S
C228 C227 1.287 . S
C228 C229 1.524 . S
C228 H247 0.913 . S
C229 H205 0.950 . S
C229 C228 1.524 . S
C229 C230 1.415 . S
C230 H206 0.950 . S
C230 C225 1.363 . S
C230 C229 1.415 . S
C231 H207 0.951 . S
C231 C232 1.366 . S
C231 C233 1.388 . S
C232 C231 1.366 . S
C232 C236 1.385 . S
C233 H208 0.951 . S
C233 C231 1.388 . S
C233 C234 1.366 . S
C234 C233 1.366 . S
C234 C235 1.414 . S
C234 C237 1.499 . S
C235 H209 0.950 . S
C235 C234 1.414 . S
C235 C236 1.374 . S
C236 H210 0.950 . S
C236 C232 1.385 . S
C236 C235 1.374 . S
C237 C234 1.499 . S
C237 C238 1.373 . S
C237 C239 1.389 . S
C238 H211 0.950 . S
C238 C224 1.377 . S
C238 C237 1.373 . S
C239 C223 1.377 . S
C239 C237 1.389 . S
C239 C240 1.524 . S
C240 C239 1.524 . S
C240 C241 1.397 . S
C240 C245 1.363 . S
C241 H212 0.950 . S
C241 C240 1.397 . S
C241 C242 1.334 . S
C242 H213 0.950 . S
C242 C241 1.334 . S
C242 C243 1.287 . S
C243 C242 1.287 . S
C243 C244 1.524 . S
C243 H246 0.999 . S
C244 H214 0.950 . S
C244 C243 1.524 . S
C244 C245 1.415 . S
C245 H215 0.950 . S
C245 C240 1.363 . S
C245 C244 1.415 . S
H246 C243 0.999 . S
H247 C228 0.913 . S
H248 C266 0.951 . S
H249 C268 0.951 . S
H250 C270 0.950 . S
H251 C271 0.950 . S
H252 C273 0.950 . S
H253 C276 0.950 . S
H254 C277 0.950 . S
H255 C279 0.950 . S
H256 C280 0.950 . S
H257 C281 0.951 . S
H258 C283 0.951 . S
H259 C285 0.950 . S
H260 C286 0.950 . S
H261 C288 0.950 . S
H262 C291 0.950 . S
H263 C292 0.950 . S
H264 C294 0.950 . S
H265 C295 0.950 . S
C266 H248 0.951 . S
C266 C267 1.366 . S
C266 C268 1.388 . S
C267 C266 1.366 . S
C267 C271 1.385 . S
C268 H249 0.951 . S
C268 C266 1.388 . S
C268 C269 1.366 . S
C269 C268 1.366 . S
C269 C270 1.414 . S
C269 C272 1.499 . S
C270 H250 0.950 . S
C270 C269 1.414 . S
C270 C271 1.374 . S
C271 H251 0.950 . S
C271 C267 1.385 . S
C271 C270 1.374 . S
C272 C269 1.499 . S
C272 C273 1.373 . S
C272 C274 1.389 . S
C273 H252 0.950 . S
C273 C272 1.373 . S
C273 C289 1.377 . S
C274 C272 1.389 . S
C274 C275 1.524 . S
C274 C288 1.377 . S
C275 C274 1.524 . S
C275 C276 1.397 . S
C275 C280 1.363 . S
C276 H253 0.950 . S
C276 C275 1.397 . S
C276 C277 1.334 . S
C277 H254 0.950 . S
C277 C276 1.334 . S
C277 C278 1.287 . S
C278 C277 1.287 . S
C278 C279 1.524 . S
C278 H297 0.913 . S
C279 H255 0.950 . S
C279 C278 1.524 . S
C279 C280 1.415 . S
C280 H256 0.950 . S
C280 C275 1.363 . S
C280 C279 1.415 . S
C281 H257 0.951 . S
C281 C282 1.366 . S
C281 C283 1.388 . S
C282 C281 1.366 . S
C282 C286 1.385 . S
C283 H258 0.951 . S
C283 C281 1.388 . S
C283 C284 1.366 . S
C284 C283 1.366 . S
C284 C285 1.414 . S
C284 C287 1.499 . S
C285 H259 0.950 . S
C285 C284 1.414 . S
C285 C286 1.374 . S
C286 H260 0.950 . S
C286 C282 1.385 . S
C286 C285 1.374 . S
C287 C284 1.499 . S
C287 C288 1.373 . S
C287 C289 1.389 . S
C288 H261 0.950 . S
C288 C274 1.377 . S
C288 C287 1.373 . S
C289 C273 1.377 . S
C289 C287 1.389 . S
C289 C290 1.524 . S
C290 C289 1.524 . S
C290 C291 1.397 . S
C290 C295 1.363 . S
C291 H262 0.950 . S
C291 C290 1.397 . S
C291 C292 1.334 1_556 S
C292 H263 0.950 . S
C292 C291 1.334 1_554 S
C292 C293 1.287 . S
C293 C292 1.287 . S
C293 C294 1.524 1_554 S
C293 H296 0.999 . S
C294 H264 0.950 . S
C294 C293 1.524 1_556 S
C294 C295 1.415 . S
C295 H265 0.950 . S
C295 C290 1.363 . S
C295 C294 1.415 . S
H296 C293 0.999 . S
H297 C278 0.913 . S
H298 C316 0.951 . S
H299 C318 0.951 . S
H300 C320 0.950 . S
H301 C321 0.950 . S
H302 C323 0.950 . S
H303 C326 0.950 . S
H304 C327 0.950 . S
H305 C329 0.950 . S
H306 C330 0.950 . S
H307 C331 0.951 . S
H308 C333 0.951 . S
H309 C335 0.950 . S
H310 C336 0.950 . S
H311 C338 0.950 . S
H312 C341 0.950 . S
H313 C342 0.950 . S
H314 C344 0.950 . S
H315 C345 0.950 . S
C316 H298 0.951 . S
C316 C317 1.366 . S
C316 C318 1.388 . S
C317 C316 1.366 . S
C317 C321 1.385 . S
C318 H299 0.951 . S
C318 C316 1.388 . S
C318 C319 1.366 . S
C319 C318 1.366 . S
C319 C320 1.414 . S
C319 C322 1.499 . S
C320 H300 0.950 . S
C320 C319 1.414 . S
C320 C321 1.374 . S
C321 H301 0.950 . S
C321 C317 1.385 . S
C321 C320 1.374 . S
C322 C319 1.499 . S
C322 C323 1.373 . S
C322 C324 1.389 . S
C323 H302 0.950 . S
C323 C322 1.373 . S
C323 C339 1.377 . S
C324 C322 1.389 . S
C324 C325 1.524 . S
C324 C338 1.377 . S
C325 C324 1.524 . S
C325 C326 1.397 . S
C325 C330 1.363 . S
C326 H303 0.950 . S
C326 C325 1.397 . S
C326 C327 1.334 . S
C327 H304 0.950 . S
C327 C326 1.334 . S
C327 C328 1.287 . S
C328 C327 1.287 . S
C328 C329 1.524 . S
C328 H347 0.913 . S
C329 H305 0.950 . S
C329 C328 1.524 . S
C329 C330 1.415 . S
C330 H306 0.950 . S
C330 C325 1.363 . S
C330 C329 1.415 . S
C331 H307 0.951 . S
C331 C332 1.366 . S
C331 C333 1.388 . S
C332 C331 1.366 . S
C332 C336 1.385 . S
C333 H308 0.951 . S
C333 C331 1.388 . S
C333 C334 1.366 . S
C334 C333 1.366 . S
C334 C335 1.414 . S
C334 C337 1.499 . S
C335 H309 0.950 . S
C335 C334 1.414 . S
C335 C336 1.374 . S
C336 H310 0.950 . S
C336 C332 1.385 . S
C336 C335 1.374 . S
C337 C334 1.499 . S
C337 C338 1.373 . S
C337 C339 1.389 . S
C338 H311 0.950 . S
C338 C324 1.377 . S
C338 C337 1.373 . S
C339 C323 1.377 . S
C339 C337 1.389 . S
C339 C340 1.524 . S
C340 C339 1.524 . S
C340 C341 1.397 . S
C340 C345 1.363 . S
C341 H312 0.950 . S
C341 C340 1.397 . S
C341 C342 1.334 . S
C342 H313 0.950 . S
C342 C341 1.334 . S
C342 C343 1.287 . S
C343 C342 1.287 . S
C343 C344 1.524 . S
C343 H346 0.999 . S
C344 H314 0.950 . S
C344 C343 1.524 . S
C344 C345 1.415 . S
C345 H315 0.950 . S
C345 C340 1.363 . S
C345 C344 1.415 . S
H346 C343 0.999 . S
H347 C328 0.913 . S
H348 C366 0.951 . S
H349 C368 0.951 . S
H350 C370 0.950 . S
H351 C371 0.950 . S
H352 C373 0.950 . S
H353 C376 0.950 . S
H354 C377 0.950 . S
H355 C379 0.950 . S
H356 C380 0.950 . S
H357 C381 0.951 . S
H358 C383 0.951 . S
H359 C385 0.950 . S
H360 C386 0.950 . S
H361 C388 0.950 . S
H362 C391 0.950 . S
H363 C392 0.950 . S
H364 C394 0.950 . S
H365 C395 0.950 . S
C366 H348 0.951 . S
C366 C367 1.366 . S
C366 C368 1.388 . S
C367 C366 1.366 . S
C367 C371 1.385 . S
C368 H349 0.951 . S
C368 C366 1.388 . S
C368 C369 1.366 . S
C369 C368 1.366 . S
C369 C370 1.414 . S
C369 C372 1.499 . S
C370 H350 0.950 . S
C370 C369 1.414 . S
C370 C371 1.374 . S
C371 H351 0.950 . S
C371 C367 1.385 . S
C371 C370 1.374 . S
C372 C369 1.499 . S
C372 C373 1.373 . S
C372 C374 1.389 . S
C373 H352 0.950 . S
C373 C372 1.373 . S
C373 C389 1.377 . S
C374 C372 1.389 . S
C374 C375 1.524 . S
C374 C388 1.377 . S
C375 C374 1.524 . S
C375 C376 1.397 . S
C375 C380 1.363 . S
C376 H353 0.950 . S
C376 C375 1.397 . S
C376 C377 1.334 . S
C377 H354 0.950 . S
C377 C376 1.334 . S
C377 C378 1.287 . S
C378 C377 1.287 . S
C378 C379 1.524 . S
C378 H397 0.913 . S
C379 H355 0.950 . S
C379 C378 1.524 . S
C379 C380 1.415 . S
C380 H356 0.950 . S
C380 C375 1.363 . S
C380 C379 1.415 . S
C381 H357 0.951 . S
C381 C382 1.366 . S
C381 C383 1.388 . S
C382 C381 1.366 . S
C382 C386 1.385 . S
C383 H358 0.951 . S
C383 C381 1.388 . S
C383 C384 1.366 . S
C384 C383 1.366 . S
C384 C385 1.414 . S
C384 C387 1.499 . S
C385 H359 0.950 . S
C385 C384 1.414 . S
C385 C386 1.374 . S
C386 H360 0.950 . S
C386 C382 1.385 . S
C386 C385 1.374 . S
C387 C384 1.499 . S
C387 C388 1.373 . S
C387 C389 1.389 . S
C388 H361 0.950 . S
C388 C374 1.377 . S
C388 C387 1.373 . S
C389 C373 1.377 . S
C389 C387 1.389 . S
C389 C390 1.524 . S
C390 C389 1.524 . S
C390 C391 1.397 . S
C390 C395 1.363 . S
C391 H362 0.950 . S
C391 C390 1.397 . S
C391 C392 1.334 . S
C392 H363 0.950 . S
C392 C391 1.334 . S
C392 C393 1.287 . S
C393 C392 1.287 . S
C393 C394 1.524 . S
C393 H396 0.999 . S
C394 H364 0.950 . S
C394 C393 1.524 . S
C394 C395 1.415 . S
C395 H365 0.950 . S
C395 C390 1.363 . S
C395 C394 1.415 . S
H396 C393 0.999 . S
H397 C378 0.913 . S
H398 C416 0.951 . S
H399 C418 0.951 . S
H400 C420 0.950 . S
H401 C421 0.950 . S
H402 C423 0.950 . S
H403 C426 0.950 . S
H404 C427 0.950 . S
H405 C429 0.950 . S
H406 C430 0.950 . S
H407 C431 0.951 . S
H408 C433 0.951 . S
H409 C435 0.950 . S
H410 C436 0.950 . S
H411 C438 0.950 . S
H412 C441 0.950 . S
H413 C442 0.950 . S
H414 C444 0.950 . S
H415 C445 0.950 . S
C416 H398 0.951 . S
C416 C417 1.366 . S
C416 C418 1.388 . S
C417 C416 1.366 . S
C417 C421 1.385 . S
C418 H399 0.951 . S
C418 C416 1.388 . S
C418 C419 1.366 . S
C419 C418 1.366 . S
C419 C420 1.414 . S
C419 C422 1.499 . S
C420 H400 0.950 . S
C420 C419 1.414 . S
C420 C421 1.374 . S
C421 H401 0.950 . S
C421 C417 1.385 . S
C421 C420 1.374 . S
C422 C419 1.499 . S
C422 C423 1.373 . S
C422 C424 1.389 . S
C423 H402 0.950 . S
C423 C422 1.373 . S
C423 C439 1.377 . S
C424 C422 1.389 . S
C424 C425 1.524 . S
C424 C438 1.377 . S
C425 C424 1.524 . S
C425 C426 1.397 . S
C425 C430 1.363 . S
C426 H403 0.950 . S
C426 C425 1.397 . S
C426 C427 1.334 . S
C427 H404 0.950 . S
C427 C426 1.334 . S
C427 C428 1.287 . S
C428 C427 1.287 . S
C428 C429 1.524 . S
C428 H447 0.913 . S
C429 H405 0.950 . S
C429 C428 1.524 . S
C429 C430 1.415 . S
C430 H406 0.950 . S
C430 C425 1.363 . S
C430 C429 1.415 . S
C431 H407 0.951 . S
C431 C432 1.366 . S
C431 C433 1.388 . S
C432 C431 1.366 . S
C432 C436 1.385 . S
C433 H408 0.951 . S
C433 C431 1.388 . S
C433 C434 1.366 . S
C434 C433 1.366 . S
C434 C435 1.414 . S
C434 C437 1.499 . S
C435 H409 0.950 . S
C435 C434 1.414 . S
C435 C436 1.374 . S
C436 H410 0.950 . S
C436 C432 1.385 . S
C436 C435 1.374 . S
C437 C434 1.499 . S
C437 C438 1.373 . S
C437 C439 1.389 . S
C438 H411 0.950 . S
C438 C424 1.377 . S
C438 C437 1.373 . S
C439 C423 1.377 . S
C439 C437 1.389 . S
C439 C440 1.524 . S
C440 C439 1.524 . S
C440 C441 1.397 . S
C440 C445 1.363 . S
C441 H412 0.950 . S
C441 C440 1.397 . S
C441 C442 1.334 . S
C442 H413 0.950 . S
C442 C441 1.334 . S
C442 C443 1.287 . S
C443 C442 1.287 . S
C443 C444 1.524 . S
C443 H446 0.999 . S
C444 H414 0.950 . S
C444 C443 1.524 . S
C444 C445 1.415 . S
C445 H415 0.950 . S
C445 C440 1.363 . S
C445 C444 1.415 . S
H446 C443 0.999 . S
H447 C428 0.913 . S
H448 C466 0.951 . S
H449 C468 0.951 . S
H450 C470 0.950 . S
H451 C471 0.950 . S
H452 C473 0.950 . S
H453 C476 0.950 . S
H454 C477 0.950 . S
H455 C479 0.950 . S
H456 C480 0.950 . S
H457 C481 0.951 . S
H458 C483 0.951 . S
H459 C485 0.950 . S
H460 C486 0.950 . S
H461 C488 0.950 . S
H462 C491 0.950 . S
H463 C492 0.950 . S
H464 C494 0.946 1_556 S
H465 C495 0.950 . S
C466 H448 0.951 . S
C466 C467 1.366 . S
C466 C468 1.388 . S
C467 C466 1.366 . S
C467 C471 1.385 . S
C468 H449 0.951 . S
C468 C466 1.388 . S
C468 C469 1.366 . S
C469 C468 1.366 . S
C469 C470 1.414 . S
C469 C472 1.499 . S
C470 H450 0.950 . S
C470 C469 1.414 . S
C470 C471 1.374 . S
C471 H451 0.950 . S
C471 C467 1.385 . S
C471 C470 1.374 . S
C472 C469 1.499 . S
C472 C473 1.373 . S
C472 C474 1.389 . S
C473 H452 0.950 . S
C473 C472 1.373 . S
C473 C489 1.377 . S
C474 C472 1.389 . S
C474 C475 1.524 . S
C474 C488 1.377 . S
C475 C474 1.524 . S
C475 C476 1.397 . S
C475 C480 1.363 . S
C476 H453 0.950 . S
C476 C475 1.397 . S
C476 C477 1.334 . S
C477 H454 0.950 . S
C477 C476 1.334 . S
C477 C478 1.287 . S
C478 C477 1.287 . S
C478 C479 1.524 . S
C478 H497 0.913 . S
C479 H455 0.950 . S
C479 C478 1.524 . S
C479 C480 1.415 . S
C480 H456 0.950 . S
C480 C475 1.363 . S
C480 C479 1.415 . S
C481 H457 0.951 . S
C481 C482 1.366 . S
C481 C483 1.388 . S
C482 C481 1.366 . S
C482 C486 1.385 . S
C483 H458 0.951 . S
C483 C481 1.388 . S
C483 C484 1.366 . S
C484 C483 1.366 . S
C484 C485 1.414 . S
C484 C487 1.499 . S
C485 H459 0.950 . S
C485 C484 1.414 . S
C485 C486 1.374 . S
C486 H460 0.950 . S
C486 C482 1.385 . S
C486 C485 1.374 . S
C487 C484 1.499 . S
C487 C488 1.373 . S
C487 C489 1.389 . S
C488 H461 0.950 . S
C488 C474 1.377 . S
C488 C487 1.373 . S
C489 C473 1.377 . S
C489 C487 1.389 . S
C489 C490 1.524 . S
C490 C489 1.524 . S
C490 C491 1.397 . S
C490 C495 1.363 . S
C491 H462 0.950 . S
C491 C490 1.397 . S
C491 C492 1.334 . S
C492 H463 0.950 . S
C492 C491 1.334 . S
C492 C493 1.287 . S
C493 C492 1.287 . S
C493 C494 1.524 . S
C493 H496 0.999 . S
C494 H464 0.946 1_554 S
C494 C493 1.524 . S
C494 C495 1.415 . S
C495 H465 0.950 . S
C495 C490 1.363 . S
C495 C494 1.415 . S
H496 C493 0.999 . S
H497 C478 0.913 . S
H498 C516 0.951 . S
H499 C518 0.951 . S
H500 C520 0.950 . S
H501 C521 0.950 . S
H502 C523 0.950 . S
H503 C526 0.950 . S
H504 C527 0.950 . S
H505 C529 0.950 . S
H506 C530 0.950 . S
H507 C531 0.951 . S
H508 C533 0.951 . S
H509 C535 0.950 . S
H510 C536 0.950 . S
H511 C538 0.950 . S
H512 C541 0.950 . S
H513 C542 0.950 . S
H514 C544 0.950 . S
H515 C545 0.950 . S
C516 H498 0.951 . S
C516 C517 1.366 . S
C516 C518 1.388 . S
C517 C516 1.366 . S
C517 C521 1.385 . S
C518 H499 0.951 . S
C518 C516 1.388 . S
C518 C519 1.366 . S
C519 C518 1.366 . S
C519 C520 1.414 . S
C519 C522 1.499 . S
C520 H500 0.950 . S
C520 C519 1.414 . S
C520 C521 1.374 . S
C521 H501 0.950 . S
C521 C517 1.385 . S
C521 C520 1.374 . S
C522 C519 1.499 . S
C522 C523 1.373 . S
C522 C524 1.389 1_655 S
C523 H502 0.950 . S
C523 C522 1.373 . S
C523 C539 1.377 . S
C524 C522 1.389 1_455 S
C524 C525 1.524 . S
C524 C538 1.377 . S
C525 C524 1.524 . S
C525 C526 1.397 . S
C525 C530 1.363 . S
C526 H503 0.950 . S
C526 C525 1.397 . S
C526 C527 1.334 . S
C527 H504 0.950 . S
C527 C526 1.334 . S
C527 C528 1.287 . S
C528 C527 1.287 . S
C528 C529 1.524 . S
C528 H547 0.913 . S
C529 H505 0.950 . S
C529 C528 1.524 . S
C529 C530 1.415 . S
C530 H506 0.950 . S
C530 C525 1.363 . S
C530 C529 1.415 . S
C531 H507 0.951 . S
C531 C532 1.366 . S
C531 C533 1.388 . S
C532 C531 1.366 . S
C532 C536 1.385 . S
C533 H508 0.951 . S
C533 C531 1.388 . S
C533 C534 1.366 . S
C534 C533 1.366 . S
C534 C535 1.414 . S
C534 C537 1.499 . S
C535 H509 0.950 . S
C535 C534 1.414 . S
C535 C536 1.374 . S
C536 H510 0.950 . S
C536 C532 1.385 . S
C536 C535 1.374 . S
C537 C534 1.499 . S
C537 C538 1.373 . S
C537 C539 1.389 1_455 S
C538 H511 0.950 . S
C538 C524 1.377 . S
C538 C537 1.373 . S
C539 C523 1.377 . S
C539 C537 1.389 1_655 S
C539 C540 1.524 . S
C540 C539 1.524 . S
C540 C541 1.397 . S
C540 C545 1.363 . S
C541 H512 0.950 . S
C541 C540 1.397 . S
C541 C542 1.334 . S
C542 H513 0.950 . S
C542 C541 1.334 . S
C542 C543 1.287 . S
C543 C542 1.287 . S
C543 C544 1.524 . S
C543 H546 0.999 1_556 S
C544 H514 0.950 . S
C544 C543 1.524 . S
C544 C545 1.415 . S
C545 H515 0.950 . S
C545 C540 1.363 . S
C545 C544 1.415 . S
H546 C543 0.999 1_554 S
H547 C528 0.913 . S
H548 C566 0.951 . S
H549 C568 0.951 . S
H550 C570 0.950 . S
H551 C571 0.950 . S
H552 C573 0.950 . S
H553 C576 0.950 . S
H554 C577 0.950 . S
H555 C579 0.950 . S
H556 C580 0.950 . S
H557 C581 0.951 . S
H558 C583 0.951 . S
H559 C585 0.950 . S
H560 C586 0.950 . S
H561 C588 0.950 . S
H562 C591 0.950 . S
H563 C592 0.950 . S
H564 C594 0.950 . S
H565 C595 0.950 . S
C566 H548 0.951 . S
C566 C567 1.366 . S
C566 C568 1.388 . S
C567 C566 1.366 . S
C567 C571 1.385 . S
C568 H549 0.951 . S
C568 C566 1.388 . S
C568 C569 1.366 . S
C569 C568 1.366 . S
C569 C570 1.414 . S
C569 C572 1.499 . S
C570 H550 0.950 . S
C570 C569 1.414 . S
C570 C571 1.374 . S
C571 H551 0.950 . S
C571 C567 1.385 . S
C571 C570 1.374 . S
C572 C569 1.499 . S
C572 C573 1.373 . S
C572 C574 1.389 . S
C573 H552 0.950 . S
C573 C572 1.373 . S
C573 C589 1.377 . S
C574 C572 1.389 . S
C574 C575 1.524 . S
C574 C588 1.377 . S
C575 C574 1.524 . S
C575 C576 1.397 . S
C575 C580 1.363 . S
C576 H553 0.950 . S
C576 C575 1.397 . S
C576 C577 1.334 . S
C577 H554 0.950 . S
C577 C576 1.334 . S
C577 C578 1.287 . S
C578 C577 1.287 . S
C578 C579 1.524 . S
C578 H597 0.913 . S
C579 H555 0.950 . S
C579 C578 1.524 . S
C579 C580 1.415 . S
C580 H556 0.950 . S
C580 C575 1.363 . S
C580 C579 1.415 . S
C581 H557 0.951 . S
C581 C582 1.366 . S
C581 C583 1.388 . S
C582 C581 1.366 . S
C582 C586 1.385 . S
C583 H558 0.951 . S
C583 C581 1.388 . S
C583 C584 1.366 . S
C584 C583 1.366 . S
C584 C585 1.414 . S
C584 C587 1.499 . S
C585 H559 0.950 . S
C585 C584 1.414 . S
C585 C586 1.374 . S
C586 H560 0.950 . S
C586 C582 1.385 . S
C586 C585 1.374 . S
C587 C584 1.499 . S
C587 C588 1.373 . S
C587 C589 1.389 . S
C588 H561 0.950 . S
C588 C574 1.377 . S
C588 C587 1.373 . S
C589 C573 1.377 . S
C589 C587 1.389 . S
C589 C590 1.524 . S
C590 C589 1.524 . S
C590 C591 1.397 . S
C590 C595 1.363 . S
C591 H562 0.950 . S
C591 C590 1.397 . S
C591 C592 1.334 . S
C592 H563 0.950 . S
C592 C591 1.334 . S
C592 C593 1.287 . S
C593 C592 1.287 . S
C593 C594 1.524 . S
C593 H596 0.999 . S
C594 H564 0.950 . S
C594 C593 1.524 . S
C594 C595 1.415 . S
C595 H565 0.950 . S
C595 C590 1.363 . S
C595 C594 1.415 . S
H596 C593 0.999 . S
H597 C578 0.913 . S
H598 C616 0.951 . S
H599 C618 0.951 . S
H600 C620 0.950 . S
H601 C621 0.950 . S
H602 C623 0.950 . S
H603 C626 0.950 . S
H604 C627 0.950 . S
H605 C629 0.950 . S
H606 C630 0.950 . S
H607 C631 0.951 . S
H608 C633 0.951 . S
H609 C635 0.950 . S
H610 C636 0.950 . S
H611 C638 0.950 . S
H612 C641 0.950 . S
H613 C642 0.950 . S
H614 C644 0.950 . S
H615 C645 0.950 . S
C616 H598 0.951 . S
C616 C617 1.366 . S
C616 C618 1.388 . S
C617 C616 1.366 . S
C617 C621 1.385 . S
C618 H599 0.951 . S
C618 C616 1.388 . S
C618 C619 1.366 . S
C619 C618 1.366 . S
C619 C620 1.414 . S
C619 C622 1.499 . S
C620 H600 0.950 . S
C620 C619 1.414 . S
C620 C621 1.374 . S
C621 H601 0.950 . S
C621 C617 1.385 . S
C621 C620 1.374 . S
C622 C619 1.499 . S
C622 C623 1.373 1_545 S
C622 C624 1.389 . S
C623 H602 0.950 . S
C623 C622 1.373 1_565 S
C623 C639 1.377 . S
C624 C622 1.389 . S
C624 C625 1.524 . S
C624 C638 1.377 . S
C625 C624 1.524 . S
C625 C626 1.397 . S
C625 C630 1.363 . S
C626 H603 0.950 . S
C626 C625 1.397 . S
C626 C627 1.334 . S
C627 H604 0.950 . S
C627 C626 1.334 . S
C627 C628 1.287 . S
C628 C627 1.287 . S
C628 C629 1.524 . S
C628 H647 0.913 . S
C629 H605 0.950 . S
C629 C628 1.524 . S
C629 C630 1.415 . S
C630 H606 0.950 . S
C630 C625 1.363 . S
C630 C629 1.415 . S
C631 H607 0.951 . S
C631 C632 1.366 . S
C631 C633 1.388 . S
C632 C631 1.366 . S
C632 C636 1.385 . S
C633 H608 0.951 . S
C633 C631 1.388 . S
C633 C634 1.366 . S
C634 C633 1.366 . S
C634 C635 1.414 . S
C634 C637 1.499 . S
C635 H609 0.950 . S
C635 C634 1.414 . S
C635 C636 1.374 . S
C636 H610 0.950 . S
C636 C632 1.385 . S
C636 C635 1.374 . S
C637 C634 1.499 . S
C637 C638 1.373 1_565 S
C637 C639 1.389 . S
C638 H611 0.950 . S
C638 C624 1.377 . S
C638 C637 1.373 1_545 S
C639 C623 1.377 . S
C639 C637 1.389 . S
C639 C640 1.524 . S
C640 C639 1.524 . S
C640 C641 1.397 . S
C640 C645 1.363 . S
C641 H612 0.950 . S
C641 C640 1.397 . S
C641 C642 1.334 . S
C642 H613 0.950 . S
C642 C641 1.334 . S
C642 C643 1.287 . S
C643 C642 1.287 . S
C643 C644 1.524 . S
C643 H646 0.999 . S
C644 H614 0.950 . S
C644 C643 1.524 . S
C644 C645 1.415 . S
C645 H615 0.950 . S
C645 C640 1.363 . S
C645 C644 1.415 . S
H646 C643 0.999 . S
H647 C628 0.913 . S
H648 C666 0.951 . S
H649 C668 0.951 . S
H650 C670 0.950 . S
H651 C671 0.950 . S
H652 C673 0.950 . S
H653 C676 0.950 . S
H654 C677 0.950 . S
H655 C679 0.950 . S
H656 C680 0.950 . S
H657 C681 0.951 . S
H658 C683 0.951 . S
H659 C685 0.950 . S
H660 C686 0.950 . S
H661 C688 0.950 . S
H662 C691 0.950 . S
H663 C692 0.950 . S
H664 C694 0.950 . S
H665 C695 0.950 . S
C666 H648 0.951 . S
C666 C667 1.366 . S
C666 C668 1.388 . S
C667 C666 1.366 . S
C667 C671 1.385 . S
C668 H649 0.951 . S
C668 C666 1.388 . S
C668 C669 1.366 . S
C669 C668 1.366 . S
C669 C670 1.414 . S
C669 C672 1.499 . S
C670 H650 0.950 . S
C670 C669 1.414 . S
C670 C671 1.374 . S
C671 H651 0.950 . S
C671 C667 1.385 . S
C671 C670 1.374 . S
C672 C669 1.499 . S
C672 C673 1.373 . S
C672 C674 1.389 1_556 S
C673 H652 0.950 . S
C673 C672 1.373 . S
C673 C689 1.377 . S
C674 C672 1.389 1_554 S
C674 C675 1.524 . S
C674 C688 1.377 . S
C675 C674 1.524 . S
C675 C676 1.397 . S
C675 C680 1.363 . S
C676 H653 0.950 . S
C676 C675 1.397 . S
C676 C677 1.334 . S
C677 H654 0.950 . S
C677 C676 1.334 . S
C677 C678 1.287 . S
C678 C677 1.287 . S
C678 C679 1.524 . S
C678 H697 0.913 . S
C679 H655 0.950 . S
C679 C678 1.524 . S
C679 C680 1.415 . S
C680 H656 0.950 . S
C680 C675 1.363 . S
C680 C679 1.415 . S
C681 H657 0.951 . S
C681 C682 1.366 . S
C681 C683 1.388 . S
C682 C681 1.366 . S
C682 C686 1.385 . S
C683 H658 0.951 . S
C683 C681 1.388 . S
C683 C684 1.366 . S
C684 C683 1.366 . S
C684 C685 1.414 . S
C684 C687 1.499 . S
C685 H659 0.950 . S
C685 C684 1.414 . S
C685 C686 1.374 . S
C686 H660 0.950 . S
C686 C682 1.385 . S
C686 C685 1.374 . S
C687 C684 1.499 . S
C687 C688 1.373 . S
C687 C689 1.389 1_554 S
C688 H661 0.950 . S
C688 C674 1.377 . S
C688 C687 1.373 . S
C689 C673 1.377 . S
C689 C687 1.389 1_556 S
C689 C690 1.524 . S
C690 C689 1.524 . S
C690 C691 1.397 . S
C690 C695 1.363 . S
C691 H662 0.950 . S
C691 C690 1.397 . S
C691 C692 1.334 . S
C692 H663 0.950 . S
C692 C691 1.334 . S
C692 C693 1.287 . S
C693 C692 1.287 . S
C693 C694 1.524 . S
C693 H696 0.999 . S
C694 H664 0.950 . S
C694 C693 1.524 . S
C694 C695 1.415 . S
C695 H665 0.950 . S
C695 C690 1.363 . S
C695 C694 1.415 . S
H696 C693 0.999 . S
H697 C678 0.913 . S
H698 C716 0.951 . S
H699 C718 0.951 . S
H700 C720 0.950 . S
H701 C721 0.950 . S
H702 C723 0.950 . S
H703 C726 0.950 . S
H704 C727 0.950 . S
H705 C729 0.950 . S
H706 C730 0.950 1_565 S
H707 C731 0.951 . S
H708 C733 0.951 . S
H709 C735 0.950 . S
H710 C736 0.950 . S
H711 C738 0.950 . S
H712 C741 0.950 . S
H713 C742 0.950 . S
H714 C744 0.950 . S
H715 C745 0.950 1_545 S
C716 H698 0.951 . S
C716 C717 1.366 . S
C716 C718 1.388 . S
C717 C716 1.366 . S
C717 C721 1.385 . S
C718 H699 0.951 . S
C718 C716 1.388 . S
C718 C719 1.366 . S
C719 C718 1.366 . S
C719 C720 1.414 . S
C719 C722 1.499 . S
C720 H700 0.950 . S
C720 C719 1.414 . S
C720 C721 1.374 . S
C721 H701 0.950 . S
C721 C717 1.385 . S
C721 C720 1.374 . S
C722 C719 1.499 . S
C722 C723 1.373 . S
C722 C724 1.389 . S
C723 H702 0.950 . S
C723 C722 1.373 . S
C723 C739 1.377 1_545 S
C724 C722 1.389 . S
C724 C725 1.524 . S
C724 C738 1.377 1_545 S
C725 C724 1.524 . S
C725 C726 1.397 . S
C725 C730 1.363 . S
C726 H703 0.950 . S
C726 C725 1.397 . S
C726 C727 1.334 . S
C727 H704 0.950 . S
C727 C726 1.334 . S
C727 C728 1.287 . S
C728 C727 1.287 . S
C728 C729 1.524 . S
C728 H747 0.913 . S
C729 H705 0.950 . S
C729 C728 1.524 . S
C729 C730 1.415 . S
C730 H706 0.950 1_545 S
C730 C725 1.363 . S
C730 C729 1.415 . S
C731 H707 0.951 . S
C731 C732 1.366 . S
C731 C733 1.388 . S
C732 C731 1.366 . S
C732 C736 1.385 . S
C733 H708 0.951 . S
C733 C731 1.388 . S
C733 C734 1.366 . S
C734 C733 1.366 . S
C734 C735 1.414 . S
C734 C737 1.499 . S
C735 H709 0.950 . S
C735 C734 1.414 . S
C735 C736 1.374 . S
C736 H710 0.950 . S
C736 C732 1.385 . S
C736 C735 1.374 . S
C737 C734 1.499 . S
C737 C738 1.373 . S
C737 C739 1.389 . S
C738 H711 0.950 . S
C738 C724 1.377 1_565 S
C738 C737 1.373 . S
C739 C723 1.377 1_565 S
C739 C737 1.389 . S
C739 C740 1.524 . S
C740 C739 1.524 . S
C740 C741 1.397 . S
C740 C745 1.363 . S
C741 H712 0.950 . S
C741 C740 1.397 . S
C741 C742 1.334 . S
C742 H713 0.950 . S
C742 C741 1.334 . S
C742 C743 1.287 . S
C743 C742 1.287 . S
C743 C744 1.524 . S
C743 H746 0.999 . S
C744 H714 0.950 . S
C744 C743 1.524 . S
C744 C745 1.415 . S
C745 H715 0.950 1_565 S
C745 C740 1.363 . S
C745 C744 1.415 . S
H746 C743 0.999 . S
H747 C728 0.913 . S
H748 C766 0.951 . S
H749 C768 0.951 . S
H750 C770 0.950 . S
H751 C771 0.950 . S
H752 C773 0.950 . S
H753 C776 0.950 . S
H754 C777 0.950 . S
H755 C779 0.950 . S
H756 C780 0.950 . S
H757 C781 0.951 . S
H758 C783 0.951 . S
H759 C785 0.950 . S
H760 C786 0.950 . S
H761 C788 0.950 . S
H762 C791 0.950 . S
H763 C792 0.950 . S
H764 C794 0.950 . S
H765 C795 0.950 . S
C766 H748 0.951 . S
C766 C767 1.366 . S
C766 C768 1.388 . S
C767 C766 1.366 . S
C767 C771 1.385 . S
C768 H749 0.951 . S
C768 C766 1.388 . S
C768 C769 1.366 . S
C769 C768 1.366 . S
C769 C770 1.414 . S
C769 C772 1.499 . S
C770 H750 0.950 . S
C770 C769 1.414 . S
C770 C771 1.374 . S
C771 H751 0.950 . S
C771 C767 1.385 . S
C771 C770 1.374 . S
C772 C769 1.499 . S
C772 C773 1.373 . S
C772 C774 1.389 . S
C773 H752 0.950 . S
C773 C772 1.373 . S
C773 C789 1.377 1_455 S
C774 C772 1.389 . S
C774 C775 1.524 . S
C774 C788 1.377 1_455 S
C775 C774 1.524 . S
C775 C776 1.397 . S
C775 C780 1.363 . S
C776 H753 0.950 . S
C776 C775 1.397 . S
C776 C777 1.334 . S
C777 H754 0.950 . S
C777 C776 1.334 . S
C777 C778 1.287 . S
C778 C777 1.287 . S
C778 C779 1.524 . S
C778 H797 0.913 . S
C779 H755 0.950 . S
C779 C778 1.524 . S
C779 C780 1.415 . S
C780 H756 0.950 . S
C780 C775 1.363 . S
C780 C779 1.415 . S
C781 H757 0.951 . S
C781 C782 1.366 . S
C781 C783 1.388 . S
C782 C781 1.366 . S
C782 C786 1.385 . S
C783 H758 0.951 . S
C783 C781 1.388 . S
C783 C784 1.366 . S
C784 C783 1.366 . S
C784 C785 1.414 . S
C784 C787 1.499 . S
C785 H759 0.950 . S
C785 C784 1.414 . S
C785 C786 1.374 . S
C786 H760 0.950 . S
C786 C782 1.385 . S
C786 C785 1.374 . S
C787 C784 1.499 . S
C787 C788 1.373 . S
C787 C789 1.389 . S
C788 H761 0.950 . S
C788 C774 1.377 1_655 S
C788 C787 1.373 . S
C789 C773 1.377 1_655 S
C789 C787 1.389 . S
C789 C790 1.524 . S
C790 C789 1.524 . S
C790 C791 1.397 . S
C790 C795 1.363 . S
C791 H762 0.950 . S
C791 C790 1.397 . S
C791 C792 1.334 . S
C792 H763 0.950 . S
C792 C791 1.334 . S
C792 C793 1.287 . S
C793 C792 1.287 . S
C793 C794 1.524 . S
C793 H796 0.999 . S
C794 H764 0.950 . S
C794 C793 1.524 . S
C794 C795 1.415 . S
C795 H765 0.950 . S
C795 C790 1.363 . S
C795 C794 1.415 . S
H796 C793 0.999 . S
H797 C778 0.913 . S
H798 C816 0.951 . S
H799 C818 0.951 . S
H800 C820 0.950 . S
H801 C821 0.950 . S
H802 C823 0.950 . S
H803 C826 0.950 . S
H804 C827 0.950 . S
H805 C829 0.950 . S
H806 C830 0.950 . S
H807 C831 0.951 . S
H808 C833 0.951 . S
H809 C835 0.950 . S
H810 C836 0.950 . S
H811 C838 0.950 . S
H812 C841 0.950 . S
H813 C842 0.950 . S
H814 C844 0.950 . S
H815 C845 0.950 . S
C816 H798 0.951 . S
C816 C817 1.366 . S
C816 C818 1.388 . S
C817 C816 1.366 . S
C817 C821 1.385 . S
C818 H799 0.951 . S
C818 C816 1.388 . S
C818 C819 1.366 . S
C819 C818 1.366 . S
C819 C820 1.414 . S
C819 C822 1.499 . S
C820 H800 0.950 . S
C820 C819 1.414 . S
C820 C821 1.374 . S
C821 H801 0.950 . S
C821 C817 1.385 . S
C821 C820 1.374 . S
C822 C819 1.499 . S
C822 C823 1.373 1_655 S
C822 C824 1.389 . S
C823 H802 0.950 . S
C823 C822 1.373 1_455 S
C823 C839 1.377 . S
C824 C822 1.389 . S
C824 C825 1.524 . S
C824 C838 1.377 . S
C825 C824 1.524 . S
C825 C826 1.397 . S
C825 C830 1.363 . S
C826 H803 0.950 . S
C826 C825 1.397 . S
C826 C827 1.334 . S
C827 H804 0.950 . S
C827 C826 1.334 . S
C827 C828 1.287 . S
C828 C827 1.287 . S
C828 C829 1.524 . S
C828 H847 0.913 . S
C829 H805 0.950 . S
C829 C828 1.524 . S
C829 C830 1.415 . S
C830 H806 0.950 . S
C830 C825 1.363 . S
C830 C829 1.415 . S
C831 H807 0.951 . S
C831 C832 1.366 . S
C831 C833 1.388 . S
C832 C831 1.366 . S
C832 C836 1.385 . S
C833 H808 0.951 . S
C833 C831 1.388 . S
C833 C834 1.366 . S
C834 C833 1.366 . S
C834 C835 1.414 . S
C834 C837 1.499 . S
C835 H809 0.950 . S
C835 C834 1.414 . S
C835 C836 1.374 . S
C836 H810 0.950 . S
C836 C832 1.385 . S
C836 C835 1.374 . S
C837 C834 1.499 . S
C837 C838 1.373 1_455 S
C837 C839 1.389 . S
C838 H811 0.950 . S
C838 C824 1.377 . S
C838 C837 1.373 1_655 S
C839 C823 1.377 . S
C839 C837 1.389 . S
C839 C840 1.524 . S
C840 C839 1.524 . S
C840 C841 1.397 . S
C840 C845 1.363 . S
C841 H812 0.950 . S
C841 C840 1.397 . S
C841 C842 1.334 . S
C842 H813 0.950 . S
C842 C841 1.334 . S
C842 C843 1.287 . S
C843 C842 1.287 . S
C843 C844 1.524 . S
C843 H846 0.999 . S
C844 H814 0.950 . S
C844 C843 1.524 . S
C844 C845 1.415 . S
C845 H815 0.950 . S
C845 C840 1.363 . S
C845 C844 1.415 . S
H846 C843 0.999 . S
H847 C828 0.913 . S
H848 C866 0.951 . S
H849 C868 0.951 . S
H850 C870 0.950 . S
H851 C871 0.950 . S
H852 C873 0.950 . S
H853 C876 0.950 . S
H854 C877 0.950 . S
H855 C879 0.950 . S
H856 C880 0.950 . S
H857 C881 0.951 . S
H858 C883 0.951 . S
H859 C885 0.950 . S
H860 C886 0.950 . S
H861 C888 0.950 . S
H862 C891 0.950 . S
H863 C892 0.950 . S
H864 C894 0.950 . S
H865 C895 0.950 . S
C866 H848 0.951 . S
C866 C867 1.366 . S
C866 C868 1.388 . S
C867 C866 1.366 . S
C867 C871 1.385 . S
C868 H849 0.951 . S
C868 C866 1.388 . S
C868 C869 1.366 . S
C869 C868 1.366 . S
C869 C870 1.414 . S
C869 C872 1.499 . S
C870 H850 0.950 . S
C870 C869 1.414 . S
C870 C871 1.374 . S
C871 H851 0.950 . S
C871 C867 1.385 . S
C871 C870 1.374 . S
C872 C869 1.499 . S
C872 C873 1.373 . S
C872 C874 1.389 . S
C873 H852 0.950 . S
C873 C872 1.373 . S
C873 C889 1.377 1_556 S
C874 C872 1.389 . S
C874 C875 1.524 . S
C874 C888 1.377 1_556 S
C875 C874 1.524 . S
C875 C876 1.397 . S
C875 C880 1.363 1_556 S
C876 H853 0.950 . S
C876 C875 1.397 . S
C876 C877 1.334 . S
C877 H854 0.950 . S
C877 C876 1.334 . S
C877 C878 1.287 . S
C878 C877 1.287 . S
C878 C879 1.524 1_556 S
C878 H897 0.913 . S
C879 H855 0.950 . S
C879 C878 1.524 1_554 S
C879 C880 1.415 . S
C880 H856 0.950 . S
C880 C875 1.363 1_554 S
C880 C879 1.415 . S
C881 H857 0.951 . S
C881 C882 1.366 . S
C881 C883 1.388 . S
C882 C881 1.366 . S
C882 C886 1.385 . S
C883 H858 0.951 . S
C883 C881 1.388 . S
C883 C884 1.366 . S
C884 C883 1.366 . S
C884 C885 1.414 . S
C884 C887 1.499 . S
C885 H859 0.950 . S
C885 C884 1.414 . S
C885 C886 1.374 . S
C886 H860 0.950 . S
C886 C882 1.385 . S
C886 C885 1.374 . S
C887 C884 1.499 . S
C887 C888 1.373 . S
C887 C889 1.389 . S
C888 H861 0.950 . S
C888 C874 1.377 1_554 S
C888 C887 1.373 . S
C889 C873 1.377 1_554 S
C889 C887 1.389 . S
C889 C890 1.524 . S
C890 C889 1.524 . S
C890 C891 1.397 . S
C890 C895 1.363 1_554 S
C891 H862 0.950 . S
C891 C890 1.397 . S
C891 C892 1.334 . S
C892 H863 0.950 . S
C892 C891 1.334 . S
C892 C893 1.287 . S
C893 C892 1.287 . S
C893 C894 1.524 1_554 S
C893 H896 0.999 . S
C894 H864 0.950 . S
C894 C893 1.524 1_556 S
C894 C895 1.415 . S
C895 H865 0.950 . S
C895 C890 1.363 1_556 S
C895 C894 1.415 . S
H896 C893 0.999 . S
H897 C878 0.913 . S
H898 C916 0.951 . S
H899 C918 0.951 . S
H900 C920 0.950 . S
H901 C921 0.950 . S
H902 C923 0.950 . S
H903 C926 0.950 . S
H904 C927 0.950 . S
H905 C929 0.950 . S
H906 C930 0.950 . S
H907 C931 0.951 . S
H908 C933 0.951 . S
H909 C935 0.950 . S
H910 C936 0.950 . S
H911 C938 0.950 . S
H912 C941 0.950 . S
H913 C942 0.950 . S
H914 C944 0.950 . S
H915 C945 0.950 . S
C916 H898 0.951 . S
C916 C917 1.366 . S
C916 C918 1.388 . S
C917 C916 1.366 . S
C917 C921 1.385 . S
C918 H899 0.951 . S
C918 C916 1.388 . S
C918 C919 1.366 . S
C919 C918 1.366 . S
C919 C920 1.414 . S
C919 C922 1.499 . S
C920 H900 0.950 . S
C920 C919 1.414 . S
C920 C921 1.374 . S
C921 H901 0.950 . S
C921 C917 1.385 . S
C921 C920 1.374 . S
C922 C919 1.499 . S
C922 C923 1.373 1_545 S
C922 C924 1.389 . S
C923 H902 0.950 . S
C923 C922 1.373 1_565 S
C923 C939 1.377 . S
C924 C922 1.389 . S
C924 C925 1.524 . S
C924 C938 1.377 . S
C925 C924 1.524 . S
C925 C926 1.397 . S
C925 C930 1.363 . S
C926 H903 0.950 . S
C926 C925 1.397 . S
C926 C927 1.334 . S
C927 H904 0.950 . S
C927 C926 1.334 . S
C927 C928 1.287 . S
C928 C927 1.287 . S
C928 C929 1.524 . S
C928 H947 0.913 . S
C929 H905 0.950 . S
C929 C928 1.524 . S
C929 C930 1.415 . S
C930 H906 0.950 . S
C930 C925 1.363 . S
C930 C929 1.415 . S
C931 H907 0.951 . S
C931 C932 1.366 . S
C931 C933 1.388 . S
C932 C931 1.366 . S
C932 C936 1.385 . S
C933 H908 0.951 . S
C933 C931 1.388 . S
C933 C934 1.366 . S
C934 C933 1.366 . S
C934 C935 1.414 . S
C934 C937 1.499 . S
C935 H909 0.950 . S
C935 C934 1.414 . S
C935 C936 1.374 . S
C936 H910 0.950 . S
C936 C932 1.385 . S
C936 C935 1.374 . S
C937 C934 1.499 . S
C937 C938 1.373 1_565 S
C937 C939 1.389 . S
C938 H911 0.950 . S
C938 C924 1.377 . S
C938 C937 1.373 1_545 S
C939 C923 1.377 . S
C939 C937 1.389 . S
C939 C940 1.524 . S
C940 C939 1.524 . S
C940 C941 1.397 . S
C940 C945 1.363 . S
C941 H912 0.950 . S
C941 C940 1.397 . S
C941 C942 1.334 . S
C942 H913 0.950 . S
C942 C941 1.334 . S
C942 C943 1.287 . S
C943 C942 1.287 . S
C943 C944 1.524 . S
C943 H946 0.999 . S
C944 H914 0.950 . S
C944 C943 1.524 . S
C944 C945 1.415 . S
C945 H915 0.950 . S
C945 C940 1.363 . S
C945 C944 1.415 . S
H946 C943 0.999 . S
H947 C928 0.913 . S
C217 N68 1.107 . S
C232 C18 1.165 . S
C267 C51 1.166 . S
C282 N2 1.109 . S
C317 C84 1.165 . S
C332 N35 1.107 . S
C367 C117 1.165 . S
C382 N134 1.107 . S
C417 N167 1.107 . S
C432 C150 1.165 . S
C467 N101 1.107 . S
C482 C183 1.165 . S
C517 C153 0.474 . S
C532 C21 0.474 . S
C567 C186 0.475 . S
C582 C54 0.475 . S
C617 C120 0.474 . S
C632 C87 0.475 . S
C667 C106 1.501 . S
C682 C7 1.501 . S
C717 C139 1.501 . S
C732 C40 1.501 . S
C767 C73 1.501 . S
C782 C172 1.501 . S
C817 N145 2.115 . S
C832 N13 2.115 . S
C867 N46 2.115 . S
C882 N178 2.115 . S
C917 N112 2.115 . S
C932 N79 2.115 . S
