# Generated by pormake.
# Topology noy, (5)-cn, num edge types: 1
# Building blocks:
#     Node 0, Type 0, BuildingBlock: BEQFEK_clean_sbu_0, # of connection points: 5
#     Node 1, Type 0, BuildingBlock: BEQFEK_clean_sbu_0, # of connection points: 5
#     Node 2, Type 0, BuildingBlock: BEQFEK_clean_sbu_0, # of connection points: 5
#     Node 3, Type 0, BuildingBlock: BEQFEK_clean_sbu_0, # of connection points: 5
#     Node 4, Type 0, BuildingBlock: BEQFEK_clean_sbu_0, # of connection points: 5
#     Node 5, Type 0, BuildingBlock: BEQFEK_clean_sbu_0, # of connection points: 5
#     Node 6, Type 0, BuildingBlock: BEQFEK_clean_sbu_0, # of connection points: 5
#     Node 7, Type 0, BuildingBlock: BEQFEK_clean_sbu_0, # of connection points: 5
#     Edge 8, Type (0, 0), BuildingBlock: OJICUG_clean_linker_0, # of connection points: 2
#     Edge 9, Type (0, 0), BuildingBlock: OJICUG_clean_linker_0, # of connection points: 2
#     Edge 10, Type (0, 0), BuildingBlock: OJICUG_clean_linker_0, # of connection points: 2
#     Edge 11, Type (0, 0), BuildingBlock: OJICUG_clean_linker_0, # of connection points: 2
#     Edge 12, Type (0, 0), BuildingBlock: OJICUG_clean_linker_0, # of connection points: 2
#     Edge 13, Type (0, 0), BuildingBlock: OJICUG_clean_linker_0, # of connection points: 2
#     Edge 14, Type (0, 0), BuildingBlock: OJICUG_clean_linker_0, # of connection points: 2
#     Edge 15, Type (0, 0), BuildingBlock: OJICUG_clean_linker_0, # of connection points: 2
#     Edge 16, Type (0, 0), BuildingBlock: OJICUG_clean_linker_0, # of connection points: 2
#     Edge 17, Type (0, 0), BuildingBlock: OJICUG_clean_linker_0, # of connection points: 2
#     Edge 18, Type (0, 0), BuildingBlock: OJICUG_clean_linker_0, # of connection points: 2
#     Edge 19, Type (0, 0), BuildingBlock: OJICUG_clean_linker_0, # of connection points: 2
#     Edge 20, Type (0, 0), BuildingBlock: OJICUG_clean_linker_0, # of connection points: 2
#     Edge 21, Type (0, 0), BuildingBlock: OJICUG_clean_linker_0, # of connection points: 2
#     Edge 22, Type (0, 0), BuildingBlock: OJICUG_clean_linker_0, # of connection points: 2
#     Edge 23, Type (0, 0), BuildingBlock: OJICUG_clean_linker_0, # of connection points: 2
#     Edge 24, Type (0, 0), BuildingBlock: OJICUG_clean_linker_0, # of connection points: 2
#     Edge 25, Type (0, 0), BuildingBlock: OJICUG_clean_linker_0, # of connection points: 2
#     Edge 26, Type (0, 0), BuildingBlock: OJICUG_clean_linker_0, # of connection points: 2
#     Edge 27, Type (0, 0), BuildingBlock: OJICUG_clean_linker_0, # of connection points: 2
# Relax obj value: 0.072
# Max RMSD: 0.090
# Mean RMSD: 0.090
data_MOF--net-noy--node1-BEQFEK_clean_sbu_0--edge1-OJICUG_clean_linker_0
_symmetry_space_group_name_H-M    P1
_symmetry_Int_Tables_number       1
_symmetry_cell_setting            triclinic
loop_
_symmetry_equiv_pos_as_xyz
'x, y, z'
_cell_length_a     33.582623
_cell_length_b     35.553947
_cell_length_c     18.50689
_cell_angle_alpha  90.002801
_cell_angle_beta   89.868132
_cell_angle_gamma 89.997623
loop_
_atom_site_label
_atom_site_type_symbol
_atom_site_fract_x
_atom_site_fract_y
_atom_site_fract_z
_atom_type_partial_charge
Co0 Co 0.34444 0.42991 0.26282 0.0
Co1 Co 0.35453 0.37222 0.13658 0.0
C2 C 0.33178 0.45421 0.11155 0.0
O3 O 0.33087 0.46159 0.17882 0.0
O4 O 0.34058 0.42131 0.08898 0.0
C5 C 0.30671 0.47933 0.36865 0.0
O6 O 0.27629 0.48124 0.32428 0.0
C7 C 0.32152 0.32501 0.02154 0.0
C8 C 0.37122 0.28615 0.99855 0.0
C9 C 0.33209 0.29395 0.97946 0.0
N10 N 0.35271 0.33439 0.0633 0.0
N11 N 0.38249 0.31137 0.04865 0.0
C12 C 0.28198 0.34426 0.02689 0.0
H13 H 0.28051 0.36201 0.07615 0.0
H14 H 0.25751 0.3233 0.02804 0.0
H15 H 0.27793 0.36279 0.97924 0.0
C16 C 0.29114 0.36952 0.3181 0.0
N17 N 0.31449 0.38452 0.2662 0.0
N18 N 0.31887 0.35985 0.21363 0.0
C19 C 0.29853 0.32828 0.23097 0.0
C20 C 0.27994 0.33369 0.29705 0.0
C21 C 0.28143 0.38824 0.38839 0.0
H22 H 0.30914 0.39878 0.4138 0.0
H23 H 0.2615 0.41247 0.37805 0.0
H24 H 0.26613 0.36885 0.42631 0.0
O25 O 0.40209 0.41855 0.25981 0.0
O26 O 0.40999 0.37459 0.17552 0.0
H27 H 0.33076 0.28792 0.16721 0.0
H28 H 0.29315 0.26778 0.22553 0.0
C29 C 0.30056 0.292 0.19012 0.0
H30 H 0.27868 0.29263 0.14545 0.0
H31 H 0.41014 0.31227 0.0742 0.0
O32 O 0.33683 0.45951 0.35194 0.0
C33 C 0.4241 0.39579 0.22476 0.0
Co34 Co 0.66948 0.60221 0.76502 0.0
Co35 Co 0.66141 0.66008 0.63865 0.0
C36 C 0.68311 0.5783 0.61284 0.0
O37 O 0.68341 0.57097 0.68015 0.0
O38 O 0.67491 0.61126 0.59009 0.0
C39 C 0.70855 0.55506 0.87248 0.0
O40 O 0.74099 0.55833 0.83318 0.0
C41 C 0.69285 0.70609 0.51971 0.0
C42 C 0.64616 0.74936 0.50837 0.0
C43 C 0.68328 0.73889 0.48176 0.0
N44 N 0.6632 0.69856 0.56659 0.0
N45 N 0.63512 0.72417 0.55871 0.0
C46 C 0.73026 0.68322 0.5165 0.0
H47 H 0.73178 0.66355 0.56296 0.0
H48 H 0.75682 0.70177 0.51728 0.0
H49 H 0.73057 0.66649 0.46588 0.0
C50 C 0.72158 0.66288 0.82328 0.0
N51 N 0.69924 0.64775 0.77024 0.0
N52 N 0.69696 0.67181 0.71628 0.0
C53 C 0.71841 0.70281 0.73303 0.0
C54 C 0.73498 0.69799 0.80123 0.0
C55 C 0.72577 0.64639 0.89735 0.0
H56 H 0.69787 0.63201 0.91341 0.0
H57 H 0.75052 0.62575 0.89728 0.0
H58 H 0.7325 0.66843 0.93799 0.0
O59 O 0.61216 0.61365 0.76165 0.0
O60 O 0.60561 0.6578 0.6774 0.0
H61 H 0.6932 0.74653 0.6678 0.0
H62 H 0.73981 0.75942 0.70987 0.0
C63 C 0.72295 0.73623 0.68447 0.0
H64 H 0.73966 0.72776 0.63567 0.0
H65 H 0.60897 0.72508 0.58923 0.0
O66 O 0.67671 0.57126 0.85252 0.0
C67 C 0.59079 0.63669 0.72626 0.0
Co68 Co 0.34469 0.60082 0.75334 0.0
Co69 Co 0.35211 0.65858 0.88004 0.0
C70 C 0.33116 0.57661 0.90534 0.0
O71 O 0.33098 0.56935 0.838 0.0
O72 O 0.33906 0.6096 0.92827 0.0
C73 C 0.30589 0.55359 0.64587 0.0
O74 O 0.27355 0.55653 0.68555 0.0
C75 C 0.3198 0.70356 0.99915 0.0
C76 C 0.36616 0.74688 0.01446 0.0
C77 C 0.32917 0.73533 0.03916 0.0
N78 N 0.34964 0.6969 0.95235 0.0
N79 N 0.37749 0.72265 0.96234 0.0
C80 C 0.28393 0.67886 1.00687 0.0
H81 H 0.27996 0.66129 0.95783 0.0
H82 H 0.2567 0.69567 0.01688 0.0
H83 H 0.28826 0.66001 0.05399 0.0
C84 C 0.29209 0.66111 0.69529 0.0
N85 N 0.31449 0.64607 0.74833 0.0
N86 N 0.31636 0.66998 0.80258 0.0
C87 C 0.29449 0.70074 0.78612 0.0
C88 C 0.27823 0.696 0.71766 0.0
C89 C 0.28825 0.64483 0.62099 0.0
H90 H 0.31634 0.63074 0.60499 0.0
H91 H 0.26372 0.62397 0.62064 0.0
H92 H 0.28139 0.66692 0.58055 0.0
O93 O 0.40189 0.61277 0.75691 0.0
O94 O 0.40794 0.65692 0.84131 0.0
H95 H 0.3186 0.74493 0.8515 0.0
H96 H 0.27135 0.75654 0.81027 0.0
C97 C 0.28909 0.7338 0.8353 0.0
H98 H 0.27305 0.72458 0.88445 0.0
H99 H 0.40387 0.72413 0.93256 0.0
O100 O 0.33766 0.56998 0.66566 0.0
C101 C 0.423 0.63597 0.79242 0.0
Co102 Co 0.67081 0.43116 0.25577 0.0
Co103 Co 0.6612 0.37354 0.38224 0.0
C104 C 0.68316 0.45604 0.40627 0.0
O105 O 0.68436 0.46333 0.339 0.0
O106 O 0.67438 0.42314 0.42882 0.0
C107 C 0.70737 0.48118 0.15001 0.0
O108 O 0.73718 0.48437 0.19546 0.0
C109 C 0.69646 0.32699 0.49604 0.0
C110 C 0.64638 0.29027 0.52798 0.0
C111 C 0.68616 0.29762 0.54179 0.0
N112 N 0.6644 0.33621 0.45636 0.0
N113 N 0.63448 0.31433 0.47609 0.0
C114 C 0.73536 0.34752 0.49286 0.0
H115 H 0.73175 0.37513 0.46579 0.0
H116 H 0.75738 0.33086 0.46178 0.0
H117 H 0.74731 0.35151 0.54821 0.0
C118 C 0.72417 0.37096 0.2003 0.0
N119 N 0.70112 0.38599 0.25262 0.0
N120 N 0.69658 0.36118 0.30486 0.0
C121 C 0.71621 0.32933 0.28665 0.0
C122 C 0.73466 0.33474 0.22037 0.0
C123 C 0.73473 0.39039 0.13113 0.0
H124 H 0.75287 0.41558 0.14351 0.0
H125 H 0.75217 0.37205 0.09439 0.0
H126 H 0.70716 0.39962 0.10343 0.0
O127 O 0.6132 0.41921 0.25976 0.0
O128 O 0.60565 0.37507 0.34389 0.0
H129 H 0.71758 0.26861 0.28856 0.0
H130 H 0.73567 0.29118 0.36856 0.0
C131 C 0.7127 0.29264 0.32585 0.0
H132 H 0.68287 0.28996 0.35102 0.0
H133 H 0.60604 0.31555 0.45361 0.0
O134 O 0.67788 0.4604 0.166 0.0
C135 C 0.59137 0.39627 0.29478 0.0
Co136 Co 0.84632 0.93179 0.26438 0.0
Co137 Co 0.85381 0.87397 0.13781 0.0
C138 C 0.83228 0.95574 0.11237 0.0
O139 O 0.83225 0.96306 0.17969 0.0
O140 O 0.84027 0.92276 0.08943 0.0
C141 C 0.8071 0.97872 0.37206 0.0
O142 O 0.7747 0.9751 0.33304 0.0
C143 C 0.82238 0.82797 0.01911 0.0
C144 C 0.86912 0.78474 1.0074 0.0
C145 C 0.83202 0.79522 0.98097 0.0
N146 N 0.85197 0.83547 0.06587 0.0
N147 N 0.88007 0.80988 0.0578 0.0
C148 C 0.78501 0.85088 0.01607 0.0
H149 H 0.78352 0.87065 0.06241 0.0
H150 H 0.75842 0.83238 0.01726 0.0
H151 H 0.7847 0.86751 0.96534 0.0
C152 C 0.79431 0.87111 0.32358 0.0
N153 N 0.81649 0.88625 0.27014 0.0
N154 N 0.81844 0.86227 0.216 0.0
C155 C 0.79693 0.83133 0.23301 0.0
C156 C 0.78066 0.83608 0.30162 0.0
C157 C 0.7905 0.88746 0.39786 0.0
H158 H 0.81843 0.90192 0.41325 0.0
H159 H 0.76566 0.908 0.39863 0.0
H160 H 0.78409 0.86533 0.43853 0.0
O161 O 0.90367 0.92035 0.26015 0.0
O162 O 0.90964 0.87619 0.17569 0.0
H163 H 0.82165 0.78748 0.16729 0.0
H164 H 0.77492 0.77496 0.20972 0.0
C165 C 0.79201 0.79803 0.1843 0.0
H166 H 0.77539 0.80673 0.1357 0.0
H167 H 0.9062 0.80896 0.08816 0.0
O168 O 0.83911 0.96279 0.35189 0.0
C169 C 0.92476 0.89723 0.22422 0.0
Co170 Co 0.16906 0.10107 0.76346 0.0
Co171 Co 0.16225 0.15901 0.63668 0.0
C172 C 0.18272 0.07667 0.61195 0.0
O173 O 0.18307 0.06945 0.67927 0.0
O174 O 0.17468 0.10964 0.58906 0.0
C175 C 0.20781 0.05396 0.87043 0.0
O176 O 0.23998 0.05715 0.83036 0.0
C177 C 0.19501 0.20434 0.51669 0.0
C178 C 0.14926 0.24854 0.50504 0.0
C179 C 0.18585 0.23684 0.47868 0.0
N180 N 0.16552 0.19754 0.56438 0.0
N181 N 0.13806 0.22386 0.55642 0.0
C182 C 0.23065 0.17956 0.50609 0.0
H183 H 0.22601 0.15171 0.53144 0.0
H184 H 0.25725 0.19259 0.53095 0.0
H185 H 0.23685 0.17613 0.4475 0.0
C186 C 0.22164 0.16123 0.82225 0.0
N187 N 0.19945 0.14622 0.76886 0.0
N188 N 0.19761 0.17027 0.71484 0.0
C189 C 0.21907 0.20119 0.732 0.0
C190 C 0.23529 0.19629 0.80045 0.0
C191 C 0.22538 0.14481 0.89645 0.0
H192 H 0.19726 0.13075 0.91227 0.0
H193 H 0.24989 0.12393 0.89678 0.0
H194 H 0.23223 0.16683 0.93708 0.0
O195 O 0.11183 0.11325 0.75894 0.0
O196 O 0.10624 0.15771 0.67492 0.0
H197 H 0.1937 0.24596 0.66985 0.0
H198 H 0.24156 0.25738 0.70901 0.0
C199 C 0.22353 0.23483 0.68402 0.0
H200 H 0.23876 0.22632 0.6337 0.0
H201 H 0.11204 0.22543 0.58719 0.0
O202 O 0.17587 0.07021 0.85114 0.0
C203 C 0.09094 0.13665 0.72342 0.0
Co204 Co 0.84374 0.10286 0.75511 0.0
Co205 Co 0.85389 0.16052 0.88132 0.0
C206 C 0.83193 0.07799 0.90576 0.0
O207 O 0.83045 0.07068 0.83853 0.0
O208 O 0.84085 0.11089 0.92809 0.0
C209 C 0.80736 0.05263 0.64957 0.0
O210 O 0.77764 0.04905 0.69535 0.0
C211 C 0.81862 0.20706 0.99539 0.0
C212 C 0.86863 0.24385 0.02692 0.0
C213 C 0.82884 0.23648 0.041 0.0
N214 N 0.8507 0.19785 0.95551 0.0
N215 N 0.88059 0.21977 0.975 0.0
C216 C 0.77973 0.18651 0.99243 0.0
H217 H 0.78354 0.1586 0.96656 0.0
H218 H 0.75798 0.20281 0.96021 0.0
H219 H 0.76733 0.18314 0.04772 0.0
C220 C 0.79021 0.16299 0.70068 0.0
N221 N 0.81341 0.14799 0.75258 0.0
N222 N 0.81828 0.17287 0.80455 0.0
C223 C 0.79873 0.20476 0.78653 0.0
C224 C 0.77998 0.19929 0.7207 0.0
C225 C 0.7793 0.14345 0.63189 0.0
H226 H 0.76155 0.11808 0.64488 0.0
H227 H 0.76137 0.16163 0.59577 0.0
H228 H 0.80675 0.1345 0.60323 0.0
O229 O 0.9013 0.11492 0.75809 0.0
O230 O 0.90938 0.15902 0.84204 0.0
H231 H 0.79795 0.2655 0.78779 0.0
H232 H 0.77976 0.24334 0.86829 0.0
C233 C 0.80266 0.24154 0.82529 0.0
H234 H 0.83255 0.24404 0.85003 0.0
H235 H 0.90904 0.21857 0.95232 0.0
O236 O 0.83663 0.07369 0.66533 0.0
C237 C 0.92339 0.1378 0.79257 0.0
Co238 Co 0.17205 0.93012 0.25404 0.0
Co239 Co 0.16141 0.87232 0.37992 0.0
C240 C 0.18403 0.95439 0.40536 0.0
O241 O 0.18529 0.96183 0.33813 0.0
O242 O 0.17519 0.92145 0.42767 0.0
C243 C 0.20886 0.98037 0.14819 0.0
O244 O 0.23889 0.98366 0.1931 0.0
C245 C 0.19379 0.82479 0.49513 0.0
C246 C 0.14347 0.78668 0.51832 0.0
C247 C 0.18267 0.79402 0.5375 0.0
N248 N 0.1628 0.83449 0.45317 0.0
N249 N 0.13266 0.8119 0.4679 0.0
C250 C 0.23365 0.84344 0.48977 0.0
H251 H 0.23553 0.8609 0.44018 0.0
H252 H 0.25778 0.82211 0.48929 0.0
H253 H 0.23786 0.86217 0.53709 0.0
C254 C 0.22515 0.8697 0.19883 0.0
N255 N 0.2019 0.8847 0.25086 0.0
N256 N 0.19715 0.85988 0.30302 0.0
C257 C 0.21705 0.82813 0.28522 0.0
C258 C 0.23567 0.83351 0.21908 0.0
C259 C 0.23604 0.88924 0.12994 0.0
H260 H 0.25405 0.91445 0.14278 0.0
H261 H 0.25374 0.87099 0.09343 0.0
H262 H 0.2086 0.89846 0.1018 0.0
O263 O 0.11443 0.91874 0.25659 0.0
O264 O 0.10613 0.87476 0.34064 0.0
H265 H 0.22116 0.7675 0.2898 0.0
H266 H 0.23626 0.79181 0.37018 0.0
C267 C 0.21432 0.79173 0.32557 0.0
H268 H 0.18408 0.78814 0.34858 0.0
H269 H 0.10505 0.81313 0.44229 0.0
O270 O 0.1795 0.95952 0.16465 0.0
C271 C 0.09224 0.89602 0.29132 0.0
C272 C 0.48738 0.42921 0.25141 0.0
C273 C 0.46704 0.39515 0.24123 0.0
H274 H 0.54295 0.45603 0.27499 0.0
C275 C 0.4877 0.36107 0.24977 0.0
H276 H 0.47206 0.45583 0.24517 0.0
C277 C 0.52803 0.36118 0.26951 0.0
C278 C 0.54843 0.39537 0.27836 0.0
H279 H 0.47247 0.33446 0.24272 0.0
H280 H 0.54346 0.33466 0.2763 0.0
C281 C 0.52783 0.42932 0.26851 0.0
C282 C 0.52697 0.67152 0.74981 0.0
C283 C 0.54771 0.63745 0.74153 0.0
H284 H 0.47093 0.69783 0.77536 0.0
C285 C 0.52733 0.60337 0.75124 0.0
H286 H 0.54225 0.69813 0.74314 0.0
C287 C 0.4868 0.6032 0.7677 0.0
C288 C 0.46609 0.63711 0.77725 0.0
H289 H 0.54272 0.57675 0.74523 0.0
H290 H 0.47169 0.57645 0.77382 0.0
C291 C 0.48647 0.67135 0.76883 0.0
C292 C 0.02807 0.86159 0.26968 0.0
C293 C 0.04934 0.89554 0.27454 0.0
H294 H 0.97167 0.8354 0.24698 0.0
C295 C 0.02956 0.92959 0.26107 0.0
H296 H 0.04284 0.83498 0.27937 0.0
C297 C 0.98906 0.92987 0.2446 0.0
C298 C 0.96783 0.89603 0.23874 0.0
H299 H 0.04533 0.95613 0.2645 0.0
H300 H 0.97432 0.9566 0.23582 0.0
C301 C 0.98765 0.8618 0.25062 0.0
C302 C 0.02802 0.17216 0.75075 0.0
C303 C 0.04782 0.13795 0.73826 0.0
H304 H 0.97287 0.19894 0.78053 0.0
C305 C 0.02655 0.10412 0.74413 0.0
H306 H 0.04402 0.19856 0.74716 0.0
C307 C 0.98608 0.10438 0.76123 0.0
C308 C 0.96632 0.13839 0.77532 0.0
H309 H 0.04124 0.0774 0.73492 0.0
H310 H 0.97033 0.07783 0.76467 0.0
C311 C 0.98761 0.17235 0.77041 0.0
C312 C 0.32427 0.55256 0.03256 0.0
C313 C 0.3258 0.54536 0.95791 0.0
H314 H 0.32439 0.52961 0.13943 0.0
C315 C 0.32543 0.50771 0.93426 0.0
H316 H 0.32425 0.58116 0.05276 0.0
C317 C 0.32575 0.47806 0.98405 0.0
C318 C 0.32614 0.48529 0.05874 0.0
H319 H 0.32647 0.50104 0.87718 0.0
H320 H 0.3269 0.44947 0.96387 0.0
C321 C 0.32428 0.52291 0.08233 0.0
C322 C 0.6891 0.47986 0.53378 0.0
C323 C 0.68856 0.48715 0.45911 0.0
H324 H 0.68838 0.50275 0.64071 0.0
C325 C 0.69011 0.52479 0.43561 0.0
H326 H 0.6882 0.45126 0.55388 0.0
C327 C 0.68999 0.55441 0.48548 0.0
C328 C 0.68862 0.54714 0.56013 0.0
H329 H 0.68988 0.53152 0.37853 0.0
H330 H 0.68977 0.58302 0.46537 0.0
C331 C 0.68929 0.50948 0.58365 0.0
C332 C 0.74479 0.52985 0.98057 0.0
C333 C 0.70911 0.53511 0.94236 0.0
H334 H 0.77221 0.50916 0.07739 0.0
C335 C 0.67321 0.52248 0.97286 0.0
H336 H 0.77285 0.53958 0.95847 0.0
C337 C 0.67288 0.50489 0.04011 0.0
C338 C 0.70837 0.50008 0.07902 0.0
H339 H 0.64524 0.5261 0.94461 0.0
H340 H 0.64466 0.49543 0.06199 0.0
C341 C 0.74437 0.51275 0.04876 0.0
C342 C 0.34149 0.50446 0.47704 0.0
C343 C 0.30579 0.49849 0.43938 0.0
H344 H 0.36939 0.52656 0.5715 0.0
C345 C 0.2697 0.51019 0.47075 0.0
H346 H 0.3698 0.49578 0.4543 0.0
C347 C 0.26942 0.5274 0.53884 0.0
C348 C 0.30528 0.53372 0.57589 0.0
H349 H 0.24171 0.50571 0.44308 0.0
H350 H 0.24127 0.53631 0.56184 0.0
C351 C 0.34127 0.52211 0.54422 0.0
C352 C 0.82645 0.0542 0.03342 0.0
C353 C 0.82664 0.04691 0.95875 0.0
H354 H 0.82749 0.03132 0.14034 0.0
C355 C 0.82482 1.00927 0.93529 0.0
H356 H 0.82756 0.0828 0.05349 0.0
C357 C 0.825 0.97966 0.98516 0.0
C358 C 0.8267 0.98693 0.05978 0.0
H359 H 0.82479 1.00253 0.87822 0.0
H360 H 0.825 0.95104 0.96506 0.0
C361 C 0.82632 0.02459 0.08331 0.0
C362 C 0.1889 1.00781 0.58292 0.0
C363 C 0.18836 0.04547 0.55936 0.0
H364 H 0.18811 0.94959 0.55313 0.0
C365 C 0.19023 0.05273 0.48475 0.0
H366 H 0.18762 1.0011 0.63996 0.0
C367 C 0.19078 0.02312 0.43491 0.0
C368 C 0.18914 0.98547 0.45837 0.0
H369 H 0.19015 0.08135 0.46463 0.0
H370 H 0.19094 0.02986 0.37783 0.0
C371 C 0.18913 0.97819 0.53305 0.0
C372 C 0.17325 0.02171 0.97206 0.0
C373 C 0.20891 0.03418 0.94045 0.0
H374 H 0.14542 0.99485 0.06212 0.0
C375 C 0.24492 0.02889 0.97766 0.0
H376 H 0.14505 0.02538 0.94462 0.0
C377 C 0.24507 1.01187 0.04592 0.0
C378 C 0.2093 0.99931 0.07724 0.0
H379 H 0.27281 0.03851 0.95469 0.0
H380 H 0.27314 1.00822 0.07375 0.0
C381 C 0.17348 1.00421 0.03938 0.0
C382 C 0.84214 0.02933 0.53936 0.0
C383 C 0.80659 0.03375 0.57856 0.0
H384 H 0.87004 1.00841 0.44363 0.0
C385 C 0.77075 0.02066 0.54861 0.0
H386 H 0.87024 0.0391 0.561 0.0
C387 C 0.77055 1.00355 0.48043 0.0
C388 C 0.8063 0.99868 0.44192 0.0
H389 H 0.74287 0.02394 0.57748 0.0
H390 H 0.74262 0.9935 0.45857 0.0
C391 C 0.84203 1.01172 0.47211 0.0
C392 C 0.27317 0.28387 0.89582 0.0
C393 C 0.30742 0.27012 0.93072 0.0
H394 H 0.22262 0.27104 0.82955 0.0
C395 C 0.31844 0.23239 0.91904 0.0
H396 H 0.26438 0.31295 0.90038 0.0
C397 C 0.29538 0.20887 0.87558 0.0
C398 C 0.26059 0.22235 0.84283 0.0
H399 H 0.34468 0.22067 0.94444 0.0
H400 H 0.30459 0.17992 0.86805 0.0
C401 C 0.24965 0.26005 0.85336 0.0
C402 C 0.6974 0.80039 0.42111 0.0
C403 C 0.7077 0.76235 0.43147 0.0
H404 H 0.71187 0.85297 0.3711 0.0
C405 C 0.74134 0.74829 0.39475 0.0
H406 H 0.67164 0.81249 0.44763 0.0
C407 C 0.76521 0.7721 0.35276 0.0
C408 C 0.75502 0.81008 0.34371 0.0
H409 H 0.74957 0.71905 0.39758 0.0
H410 H 0.79199 0.76084 0.32825 0.0
C411 C 0.72061 0.82383 0.37759 0.0
C412 C 0.24369 0.79416 0.10844 0.0
C413 C 0.25807 0.80567 0.176 0.0
H414 H 0.25526 0.76279 0.01183 0.0
C415 C 0.29474 0.79189 0.20063 0.0
H416 H 0.21544 0.80457 0.08857 0.0
C417 C 0.31757 0.76807 0.15676 0.0
C418 C 0.30345 0.75699 0.08865 0.0
H419 H 0.3063 0.80058 0.25263 0.0
H420 H 0.34645 0.75871 0.17552 0.0
C421 C 0.26621 0.76999 0.06506 0.0
C422 C 0.69797 0.26444 0.65888 0.0
C423 C 0.71198 0.27557 0.59055 0.0
H424 H 0.70935 0.23204 0.7547 0.0
C425 C 0.74939 0.26281 0.56689 0.0
H426 H 0.66911 0.27374 0.67808 0.0
C427 C 0.77198 0.23869 0.61011 0.0
C428 C 0.75761 0.22711 0.67775 0.0
H429 H 0.76045 0.27001 0.51371 0.0
H430 H 0.80029 0.22838 0.59009 0.0
C431 C 0.72088 0.24074 0.7026 0.0
C432 C 0.7952 0.71043 0.87607 0.0
C433 C 0.76059 0.72405 0.84301 0.0
H434 H 0.84424 0.72186 0.94545 0.0
C435 C 0.75011 0.76192 0.85271 0.0
H436 H 0.80415 0.68137 0.86906 0.0
C437 C 0.7739 0.78575 0.89459 0.0
C438 C 0.80773 0.7718 0.93061 0.0
H439 H 0.72317 0.77306 0.82884 0.0
H440 H 0.76542 0.81491 0.8979 0.0
C441 C 0.81832 0.73387 0.91952 0.0
C442 C 0.19459 0.27439 0.36557 0.0
C443 C 0.21117 0.25836 0.42804 0.0
H444 H 0.20412 0.31037 0.27377 0.0
C445 C 0.25108 0.26604 0.44521 0.0
H446 H 0.16376 0.26918 0.35169 0.0
C447 C 0.2738 0.28982 0.40137 0.0
C448 C 0.25702 0.30612 0.33959 0.0
H449 H 0.26423 0.25521 0.49429 0.0
H450 H 0.30417 0.29628 0.41663 0.0
C451 C 0.21753 0.2978 0.32116 0.0
C452 C 0.81707 0.27004 0.15784 0.0
C453 C 0.80297 0.25855 0.0899 0.0
H454 H 0.80569 0.30269 0.25344 0.0
C455 C 0.76537 0.27094 0.06676 0.0
H456 H 0.84607 0.26103 0.17666 0.0
C457 C 0.7427 0.29503 0.11008 0.0
C458 C 0.75716 0.30697 0.17731 0.0
H459 H 0.75421 0.26345 0.01389 0.0
H460 H 0.71424 0.30504 0.09045 0.0
C461 C 0.79408 0.29372 0.20165 0.0
C462 C 0.24095 0.78377 0.62239 0.0
C463 C 0.20689 0.77011 0.58678 0.0
H464 H 0.29103 0.77078 0.68971 0.0
C465 C 0.19562 0.73243 0.59827 0.0
H466 H 0.24987 0.81282 0.61792 0.0
C467 C 0.21835 0.70883 0.64213 0.0
C468 C 0.25301 0.72219 0.67549 0.0
H469 H 0.16949 0.72082 0.57232 0.0
H470 H 0.20904 0.6799 0.64937 0.0
C471 C 0.26411 0.75988 0.66534 0.0
loop_
_geom_bond_atom_site_label_1
_geom_bond_atom_site_label_2
_geom_bond_distance
_geom_bond_site_symmetry_2
_ccdc_geom_bond_type
Co0 O3 1.970 . S
Co0 N17 1.989 . S
Co0 O25 1.967 . S
Co0 O32 1.920 . S
Co1 O4 1.966 . S
Co1 N10 2.022 . S
Co1 N18 1.993 . S
Co1 O26 1.941 . S
C2 O3 1.258 . S
C2 O4 1.263 . S
O3 Co0 1.970 . S
O3 C2 1.258 . S
O4 Co1 1.966 . S
O4 C2 1.263 . S
C5 O6 1.235 . S
C5 O32 1.289 . S
O6 C5 1.235 . S
C7 C9 1.400 1_554 S
C7 N10 1.351 . S
C7 C12 1.501 1_554 S
C8 C9 1.387 1_554 S
C8 N11 1.341 . S
C9 C7 1.400 1_556 S
C9 C8 1.387 1_556 S
N10 Co1 2.022 . S
N10 C7 1.351 . S
N10 N11 1.365 . S
N11 C8 1.341 . S
N11 N10 1.365 . S
N11 H31 0.862 . S
C12 C7 1.501 1_556 S
C12 H13 0.961 1_556 S
C12 H14 0.961 . S
C12 H15 0.960 . S
H13 C12 0.961 1_554 S
H14 C12 0.961 . S
H15 C12 0.960 . S
C16 N17 1.342 . S
C16 C20 1.401 . S
C16 C21 1.499 . S
N17 Co0 1.989 . S
N17 C16 1.342 . S
N17 N18 1.388 . S
N18 Co1 1.993 . S
N18 N17 1.388 . S
N18 C19 1.346 . S
C19 N18 1.346 . S
C19 C20 1.396 . S
C19 C29 1.510 . S
C20 C16 1.401 . S
C20 C19 1.396 . S
C21 C16 1.499 . S
C21 H22 0.959 . S
C21 H23 0.960 . S
C21 H24 0.961 . S
H22 C21 0.959 . S
H23 C21 0.960 . S
H24 C21 0.961 . S
O25 Co0 1.967 . S
O25 C33 1.258 . S
O26 Co1 1.941 . S
O26 C33 1.266 . S
H27 C29 0.959 . S
H28 C29 0.961 . S
C29 C19 1.510 . S
C29 H27 0.959 . S
C29 H28 0.961 . S
C29 H30 0.960 . S
H30 C29 0.960 . S
H31 N11 0.862 . S
O32 Co0 1.920 . S
O32 C5 1.289 . S
C33 O25 1.258 . S
C33 O26 1.266 . S
Co34 O37 1.970 . S
Co34 N51 1.989 . S
Co34 O59 1.967 . S
Co34 O66 1.920 . S
Co35 O38 1.966 . S
Co35 N44 2.022 . S
Co35 N52 1.993 . S
Co35 O60 1.941 . S
C36 O37 1.258 . S
C36 O38 1.263 . S
O37 Co34 1.970 . S
O37 C36 1.258 . S
O38 Co35 1.966 . S
O38 C36 1.263 . S
C39 O40 1.235 . S
C39 O66 1.289 . S
O40 C39 1.235 . S
C41 C43 1.400 . S
C41 N44 1.351 . S
C41 C46 1.501 . S
C42 C43 1.387 . S
C42 N45 1.341 . S
C43 C41 1.400 . S
C43 C42 1.387 . S
N44 Co35 2.022 . S
N44 C41 1.351 . S
N44 N45 1.365 . S
N45 C42 1.341 . S
N45 N44 1.365 . S
N45 H65 0.862 . S
C46 C41 1.501 . S
C46 H47 0.961 . S
C46 H48 0.961 . S
C46 H49 0.960 . S
H47 C46 0.961 . S
H48 C46 0.961 . S
H49 C46 0.960 . S
C50 N51 1.342 . S
C50 C54 1.401 . S
C50 C55 1.499 . S
N51 Co34 1.989 . S
N51 C50 1.342 . S
N51 N52 1.388 . S
N52 Co35 1.993 . S
N52 N51 1.388 . S
N52 C53 1.346 . S
C53 N52 1.346 . S
C53 C54 1.396 . S
C53 C63 1.510 . S
C54 C50 1.401 . S
C54 C53 1.396 . S
C55 C50 1.499 . S
C55 H56 0.959 . S
C55 H57 0.960 . S
C55 H58 0.961 . S
H56 C55 0.959 . S
H57 C55 0.960 . S
H58 C55 0.961 . S
O59 Co34 1.967 . S
O59 C67 1.258 . S
O60 Co35 1.941 . S
O60 C67 1.266 . S
H61 C63 0.959 . S
H62 C63 0.961 . S
C63 C53 1.510 . S
C63 H61 0.959 . S
C63 H62 0.961 . S
C63 H64 0.960 . S
H64 C63 0.960 . S
H65 N45 0.862 . S
O66 Co34 1.920 . S
O66 C39 1.289 . S
C67 O59 1.258 . S
C67 O60 1.266 . S
Co68 O71 1.970 . S
Co68 N85 1.989 . S
Co68 O93 1.967 . S
Co68 O100 1.920 . S
Co69 O72 1.966 . S
Co69 N78 2.022 . S
Co69 N86 1.993 . S
Co69 O94 1.941 . S
C70 O71 1.258 . S
C70 O72 1.263 . S
O71 Co68 1.970 . S
O71 C70 1.258 . S
O72 Co69 1.966 . S
O72 C70 1.263 . S
C73 O74 1.235 . S
C73 O100 1.289 . S
O74 C73 1.235 . S
C75 C77 1.400 1_556 S
C75 N78 1.351 . S
C75 C80 1.501 1_556 S
C76 C77 1.387 1_556 S
C76 N79 1.341 . S
C77 C75 1.400 1_554 S
C77 C76 1.387 1_554 S
N78 Co69 2.022 . S
N78 C75 1.351 . S
N78 N79 1.365 . S
N79 C76 1.341 . S
N79 N78 1.365 . S
N79 H99 0.862 . S
C80 C75 1.501 1_554 S
C80 H81 0.961 1_554 S
C80 H82 0.961 . S
C80 H83 0.960 . S
H81 C80 0.961 1_556 S
H82 C80 0.961 . S
H83 C80 0.960 . S
C84 N85 1.342 . S
C84 C88 1.401 . S
C84 C89 1.499 . S
N85 Co68 1.989 . S
N85 C84 1.342 . S
N85 N86 1.388 . S
N86 Co69 1.993 . S
N86 N85 1.388 . S
N86 C87 1.346 . S
C87 N86 1.346 . S
C87 C88 1.396 . S
C87 C97 1.510 . S
C88 C84 1.401 . S
C88 C87 1.396 . S
C89 C84 1.499 . S
C89 H90 0.959 . S
C89 H91 0.960 . S
C89 H92 0.961 . S
H90 C89 0.959 . S
H91 C89 0.960 . S
H92 C89 0.961 . S
O93 Co68 1.967 . S
O93 C101 1.258 . S
O94 Co69 1.941 . S
O94 C101 1.266 . S
H95 C97 0.959 . S
H96 C97 0.961 . S
C97 C87 1.510 . S
C97 H95 0.959 . S
C97 H96 0.961 . S
C97 H98 0.960 . S
H98 C97 0.960 . S
H99 N79 0.862 . S
O100 Co68 1.920 . S
O100 C73 1.289 . S
C101 O93 1.258 . S
C101 O94 1.266 . S
Co102 O105 1.970 . S
Co102 N119 1.989 . S
Co102 O127 1.967 . S
Co102 O134 1.920 . S
Co103 O106 1.966 . S
Co103 N112 2.022 . S
Co103 N120 1.993 . S
Co103 O128 1.941 . S
C104 O105 1.258 . S
C104 O106 1.263 . S
O105 Co102 1.970 . S
O105 C104 1.258 . S
O106 Co103 1.966 . S
O106 C104 1.263 . S
C107 O108 1.235 . S
C107 O134 1.289 . S
O108 C107 1.235 . S
C109 C111 1.400 . S
C109 N112 1.351 . S
C109 C114 1.501 . S
C110 C111 1.387 . S
C110 N113 1.341 . S
C111 C109 1.400 . S
C111 C110 1.387 . S
N112 Co103 2.022 . S
N112 C109 1.351 . S
N112 N113 1.365 . S
N113 C110 1.341 . S
N113 N112 1.365 . S
N113 H133 0.862 . S
C114 C109 1.501 . S
C114 H115 0.961 . S
C114 H116 0.961 . S
C114 H117 0.960 . S
H115 C114 0.961 . S
H116 C114 0.961 . S
H117 C114 0.960 . S
C118 N119 1.342 . S
C118 C122 1.401 . S
C118 C123 1.499 . S
N119 Co102 1.989 . S
N119 C118 1.342 . S
N119 N120 1.388 . S
N120 Co103 1.993 . S
N120 N119 1.388 . S
N120 C121 1.346 . S
C121 N120 1.346 . S
C121 C122 1.396 . S
C121 C131 1.510 . S
C122 C118 1.401 . S
C122 C121 1.396 . S
C123 C118 1.499 . S
C123 H124 0.959 . S
C123 H125 0.960 . S
C123 H126 0.961 . S
H124 C123 0.959 . S
H125 C123 0.960 . S
H126 C123 0.961 . S
O127 Co102 1.967 . S
O127 C135 1.258 . S
O128 Co103 1.941 . S
O128 C135 1.266 . S
H129 C131 0.959 . S
H130 C131 0.961 . S
C131 C121 1.510 . S
C131 H129 0.959 . S
C131 H130 0.961 . S
C131 H132 0.960 . S
H132 C131 0.960 . S
H133 N113 0.862 . S
O134 Co102 1.920 . S
O134 C107 1.289 . S
C135 O127 1.258 . S
C135 O128 1.266 . S
Co136 O139 1.970 . S
Co136 N153 1.989 . S
Co136 O161 1.967 . S
Co136 O168 1.920 . S
Co137 O140 1.966 . S
Co137 N146 2.022 . S
Co137 N154 1.993 . S
Co137 O162 1.941 . S
C138 O139 1.258 . S
C138 O140 1.263 . S
O139 Co136 1.970 . S
O139 C138 1.258 . S
O140 Co137 1.966 . S
O140 C138 1.263 . S
C141 O142 1.235 . S
C141 O168 1.289 . S
O142 C141 1.235 . S
C143 C145 1.400 1_554 S
C143 N146 1.351 . S
C143 C148 1.501 1_554 S
C144 C145 1.387 1_554 S
C144 N147 1.341 . S
C145 C143 1.400 1_556 S
C145 C144 1.387 1_556 S
N146 Co137 2.022 . S
N146 C143 1.351 . S
N146 N147 1.365 . S
N147 C144 1.341 . S
N147 N146 1.365 . S
N147 H167 0.862 . S
C148 C143 1.501 1_556 S
C148 H149 0.961 1_556 S
C148 H150 0.961 . S
C148 H151 0.960 . S
H149 C148 0.961 1_554 S
H150 C148 0.961 . S
H151 C148 0.960 . S
C152 N153 1.342 . S
C152 C156 1.401 . S
C152 C157 1.499 . S
N153 Co136 1.989 . S
N153 C152 1.342 . S
N153 N154 1.388 . S
N154 Co137 1.993 . S
N154 N153 1.388 . S
N154 C155 1.346 . S
C155 N154 1.346 . S
C155 C156 1.396 . S
C155 C165 1.510 . S
C156 C152 1.401 . S
C156 C155 1.396 . S
C157 C152 1.499 . S
C157 H158 0.959 . S
C157 H159 0.960 . S
C157 H160 0.961 . S
H158 C157 0.959 . S
H159 C157 0.960 . S
H160 C157 0.961 . S
O161 Co136 1.967 . S
O161 C169 1.258 . S
O162 Co137 1.941 . S
O162 C169 1.266 . S
H163 C165 0.959 . S
H164 C165 0.961 . S
C165 C155 1.510 . S
C165 H163 0.959 . S
C165 H164 0.961 . S
C165 H166 0.960 . S
H166 C165 0.960 . S
H167 N147 0.862 . S
O168 Co136 1.920 . S
O168 C141 1.289 . S
C169 O161 1.258 . S
C169 O162 1.266 . S
Co170 O173 1.970 . S
Co170 N187 1.989 . S
Co170 O195 1.967 . S
Co170 O202 1.920 . S
Co171 O174 1.966 . S
Co171 N180 2.022 . S
Co171 N188 1.993 . S
Co171 O196 1.941 . S
C172 O173 1.258 . S
C172 O174 1.263 . S
O173 Co170 1.970 . S
O173 C172 1.258 . S
O174 Co171 1.966 . S
O174 C172 1.263 . S
C175 O176 1.235 . S
C175 O202 1.289 . S
O176 C175 1.235 . S
C177 C179 1.400 . S
C177 N180 1.351 . S
C177 C182 1.501 . S
C178 C179 1.387 . S
C178 N181 1.341 . S
C179 C177 1.400 . S
C179 C178 1.387 . S
N180 Co171 2.022 . S
N180 C177 1.351 . S
N180 N181 1.365 . S
N181 C178 1.341 . S
N181 N180 1.365 . S
N181 H201 0.862 . S
C182 C177 1.501 . S
C182 H183 0.961 . S
C182 H184 0.961 . S
C182 H185 0.960 . S
H183 C182 0.961 . S
H184 C182 0.961 . S
H185 C182 0.960 . S
C186 N187 1.342 . S
C186 C190 1.401 . S
C186 C191 1.499 . S
N187 Co170 1.989 . S
N187 C186 1.342 . S
N187 N188 1.388 . S
N188 Co171 1.993 . S
N188 N187 1.388 . S
N188 C189 1.346 . S
C189 N188 1.346 . S
C189 C190 1.396 . S
C189 C199 1.510 . S
C190 C186 1.401 . S
C190 C189 1.396 . S
C191 C186 1.499 . S
C191 H192 0.959 . S
C191 H193 0.960 . S
C191 H194 0.961 . S
H192 C191 0.959 . S
H193 C191 0.960 . S
H194 C191 0.961 . S
O195 Co170 1.967 . S
O195 C203 1.258 . S
O196 Co171 1.941 . S
O196 C203 1.266 . S
H197 C199 0.959 . S
H198 C199 0.961 . S
C199 C189 1.510 . S
C199 H197 0.959 . S
C199 H198 0.961 . S
C199 H200 0.960 . S
H200 C199 0.960 . S
H201 N181 0.862 . S
O202 Co170 1.920 . S
O202 C175 1.289 . S
C203 O195 1.258 . S
C203 O196 1.266 . S
Co204 O207 1.970 . S
Co204 N221 1.989 . S
Co204 O229 1.967 . S
Co204 O236 1.920 . S
Co205 O208 1.966 . S
Co205 N214 2.022 . S
Co205 N222 1.993 . S
Co205 O230 1.941 . S
C206 O207 1.258 . S
C206 O208 1.263 . S
O207 Co204 1.970 . S
O207 C206 1.258 . S
O208 Co205 1.966 . S
O208 C206 1.263 . S
C209 O210 1.235 . S
C209 O236 1.289 . S
O210 C209 1.235 . S
C211 C213 1.400 1_556 S
C211 N214 1.351 . S
C211 C216 1.501 1_556 S
C212 C213 1.387 1_556 S
C212 N215 1.341 . S
C213 C211 1.400 1_554 S
C213 C212 1.387 1_554 S
N214 Co205 2.022 . S
N214 C211 1.351 . S
N214 N215 1.365 . S
N215 C212 1.341 . S
N215 N214 1.365 . S
N215 H235 0.862 . S
C216 C211 1.501 1_554 S
C216 H217 0.961 1_554 S
C216 H218 0.961 . S
C216 H219 0.960 . S
H217 C216 0.961 1_556 S
H218 C216 0.961 . S
H219 C216 0.960 . S
C220 N221 1.342 . S
C220 C224 1.401 . S
C220 C225 1.499 . S
N221 Co204 1.989 . S
N221 C220 1.342 . S
N221 N222 1.388 . S
N222 Co205 1.993 . S
N222 N221 1.388 . S
N222 C223 1.346 . S
C223 N222 1.346 . S
C223 C224 1.396 . S
C223 C233 1.510 . S
C224 C220 1.401 . S
C224 C223 1.396 . S
C225 C220 1.499 . S
C225 H226 0.959 . S
C225 H227 0.960 . S
C225 H228 0.961 . S
H226 C225 0.959 . S
H227 C225 0.960 . S
H228 C225 0.961 . S
O229 Co204 1.967 . S
O229 C237 1.258 . S
O230 Co205 1.941 . S
O230 C237 1.266 . S
H231 C233 0.959 . S
H232 C233 0.961 . S
C233 C223 1.510 . S
C233 H231 0.959 . S
C233 H232 0.961 . S
C233 H234 0.960 . S
H234 C233 0.960 . S
H235 N215 0.862 . S
O236 Co204 1.920 . S
O236 C209 1.289 . S
C237 O229 1.258 . S
C237 O230 1.266 . S
Co238 O241 1.970 . S
Co238 N255 1.989 . S
Co238 O263 1.967 . S
Co238 O270 1.920 . S
Co239 O242 1.966 . S
Co239 N248 2.022 . S
Co239 N256 1.993 . S
Co239 O264 1.941 . S
C240 O241 1.258 . S
C240 O242 1.263 . S
O241 Co238 1.970 . S
O241 C240 1.258 . S
O242 Co239 1.966 . S
O242 C240 1.263 . S
C243 O244 1.235 . S
C243 O270 1.289 . S
O244 C243 1.235 . S
C245 C247 1.400 . S
C245 N248 1.351 . S
C245 C250 1.501 . S
C246 C247 1.387 . S
C246 N249 1.341 . S
C247 C245 1.400 . S
C247 C246 1.387 . S
N248 Co239 2.022 . S
N248 C245 1.351 . S
N248 N249 1.365 . S
N249 C246 1.341 . S
N249 N248 1.365 . S
N249 H269 0.862 . S
C250 C245 1.501 . S
C250 H251 0.961 . S
C250 H252 0.961 . S
C250 H253 0.960 . S
H251 C250 0.961 . S
H252 C250 0.961 . S
H253 C250 0.960 . S
C254 N255 1.342 . S
C254 C258 1.401 . S
C254 C259 1.499 . S
N255 Co238 1.989 . S
N255 C254 1.342 . S
N255 N256 1.388 . S
N256 Co239 1.993 . S
N256 N255 1.388 . S
N256 C257 1.346 . S
C257 N256 1.346 . S
C257 C258 1.396 . S
C257 C267 1.510 . S
C258 C254 1.401 . S
C258 C257 1.396 . S
C259 C254 1.499 . S
C259 H260 0.959 . S
C259 H261 0.960 . S
C259 H262 0.961 . S
H260 C259 0.959 . S
H261 C259 0.960 . S
H262 C259 0.961 . S
O263 Co238 1.967 . S
O263 C271 1.258 . S
O264 Co239 1.941 . S
O264 C271 1.266 . S
H265 C267 0.959 . S
H266 C267 0.961 . S
C267 C257 1.510 . S
C267 H265 0.959 . S
C267 H266 0.961 . S
C267 H268 0.960 . S
H268 C267 0.960 . S
H269 N249 0.862 . S
O270 Co238 1.920 . S
O270 C243 1.289 . S
C271 O263 1.258 . S
C271 O264 1.266 . S
C272 C273 1.387 . S
C272 H276 0.950 . S
C272 C281 1.390 . S
C273 C272 1.387 . S
C273 C275 1.387 . S
H274 C281 0.950 . S
C275 C273 1.387 . S
C275 C277 1.390 . S
C275 H279 0.950 . S
H276 C272 0.950 . S
C277 C275 1.390 . S
C277 C278 1.387 . S
C277 H280 0.950 . S
C278 C277 1.387 . S
C278 C281 1.387 . S
H279 C275 0.950 . S
H280 C277 0.950 . S
C281 C272 1.390 . S
C281 H274 0.950 . S
C281 C278 1.387 . S
C282 C283 1.387 . S
C282 H286 0.950 . S
C282 C291 1.390 . S
C283 C282 1.387 . S
C283 C285 1.387 . S
H284 C291 0.950 . S
C285 C283 1.387 . S
C285 C287 1.390 . S
C285 H289 0.950 . S
H286 C282 0.950 . S
C287 C285 1.390 . S
C287 C288 1.387 . S
C287 H290 0.950 . S
C288 C287 1.387 . S
C288 C291 1.387 . S
H289 C285 0.950 . S
H290 C287 0.950 . S
C291 C282 1.390 . S
C291 H284 0.950 . S
C291 C288 1.387 . S
C292 C293 1.387 . S
C292 H296 0.950 . S
C292 C301 1.390 1_455 S
C293 C292 1.387 . S
C293 C295 1.387 . S
H294 C301 0.950 . S
C295 C293 1.387 . S
C295 C297 1.390 1_455 S
C295 H299 0.950 . S
H296 C292 0.950 . S
C297 C295 1.390 1_655 S
C297 C298 1.387 . S
C297 H300 0.950 . S
C298 C297 1.387 . S
C298 C301 1.387 . S
H299 C295 0.950 . S
H300 C297 0.950 . S
C301 C292 1.390 1_655 S
C301 H294 0.950 . S
C301 C298 1.387 . S
C302 C303 1.387 . S
C302 H306 0.950 . S
C302 C311 1.390 1_455 S
C303 C302 1.387 . S
C303 C305 1.387 . S
H304 C311 0.950 . S
C305 C303 1.387 . S
C305 C307 1.390 1_455 S
C305 H309 0.950 . S
H306 C302 0.950 . S
C307 C305 1.390 1_655 S
C307 C308 1.387 . S
C307 H310 0.950 . S
C308 C307 1.387 . S
C308 C311 1.387 . S
H309 C305 0.950 . S
H310 C307 0.950 . S
C311 C302 1.390 1_655 S
C311 H304 0.950 . S
C311 C308 1.387 . S
C312 C313 1.387 . S
C312 H316 0.950 . S
C312 C321 1.390 1_556 S
C313 C312 1.387 . S
C313 C315 1.387 . S
H314 C321 0.950 . S
C315 C313 1.387 . S
C315 C317 1.390 1_556 S
C315 H319 0.950 . S
H316 C312 0.950 . S
C317 C315 1.390 1_554 S
C317 C318 1.387 . S
C317 H320 0.950 . S
C318 C317 1.387 . S
C318 C321 1.387 . S
H319 C315 0.950 . S
H320 C317 0.950 . S
C321 C312 1.390 1_554 S
C321 H314 0.950 . S
C321 C318 1.387 . S
C322 C323 1.387 . S
C322 H326 0.950 . S
C322 C331 1.390 . S
C323 C322 1.387 . S
C323 C325 1.387 . S
H324 C331 0.950 . S
C325 C323 1.387 . S
C325 C327 1.390 . S
C325 H329 0.950 . S
H326 C322 0.950 . S
C327 C325 1.390 . S
C327 C328 1.387 . S
C327 H330 0.950 . S
C328 C327 1.387 . S
C328 C331 1.387 . S
H329 C325 0.950 . S
H330 C327 0.950 . S
C331 C322 1.390 . S
C331 H324 0.950 . S
C331 C328 1.387 . S
C332 C333 1.387 . S
C332 H336 0.950 . S
C332 C341 1.390 1_556 S
C333 C332 1.387 . S
C333 C335 1.387 . S
H334 C341 0.950 . S
C335 C333 1.387 . S
C335 C337 1.390 1_556 S
C335 H339 0.950 . S
H336 C332 0.950 . S
C337 C335 1.390 1_554 S
C337 C338 1.387 . S
C337 H340 0.950 . S
C338 C337 1.387 . S
C338 C341 1.387 . S
H339 C335 0.950 . S
H340 C337 0.950 . S
C341 C332 1.390 1_554 S
C341 H334 0.950 . S
C341 C338 1.387 . S
C342 C343 1.387 . S
C342 H346 0.950 . S
C342 C351 1.390 . S
C343 C342 1.387 . S
C343 C345 1.387 . S
H344 C351 0.950 . S
C345 C343 1.387 . S
C345 C347 1.390 . S
C345 H349 0.950 . S
H346 C342 0.950 . S
C347 C345 1.390 . S
C347 C348 1.387 . S
C347 H350 0.950 . S
C348 C347 1.387 . S
C348 C351 1.387 . S
H349 C345 0.950 . S
H350 C347 0.950 . S
C351 C342 1.390 . S
C351 H344 0.950 . S
C351 C348 1.387 . S
C352 C353 1.387 . S
C352 H356 0.950 . S
C352 C361 1.390 1_546 S
C353 C352 1.387 . S
C353 C355 1.387 . S
H354 C361 0.950 . S
C355 C353 1.387 . S
C355 C357 1.390 1_546 S
C355 H359 0.950 . S
H356 C352 0.950 . S
C357 C355 1.390 1_564 S
C357 C358 1.387 . S
C357 H360 0.950 . S
C358 C357 1.387 . S
C358 C361 1.387 . S
H359 C355 0.950 . S
H360 C357 0.950 . S
C361 C352 1.390 1_564 S
C361 H354 0.950 . S
C361 C358 1.387 . S
C362 C363 1.387 . S
C362 H366 0.950 . S
C362 C371 1.390 1_545 S
C363 C362 1.387 . S
C363 C365 1.387 . S
H364 C371 0.950 . S
C365 C363 1.387 . S
C365 C367 1.390 1_545 S
C365 H369 0.950 . S
H366 C362 0.950 . S
C367 C365 1.390 1_565 S
C367 C368 1.387 . S
C367 H370 0.950 . S
C368 C367 1.387 . S
C368 C371 1.387 . S
H369 C365 0.950 . S
H370 C367 0.950 . S
C371 C362 1.390 1_565 S
C371 H364 0.950 . S
C371 C368 1.387 . S
C372 C373 1.387 . S
C372 H376 0.950 . S
C372 C381 1.390 1_546 S
C373 C372 1.387 . S
C373 C375 1.387 . S
H374 C381 0.950 . S
C375 C373 1.387 . S
C375 C377 1.390 1_546 S
C375 H379 0.950 . S
H376 C372 0.950 . S
C377 C375 1.390 1_564 S
C377 C378 1.387 . S
C377 H380 0.950 . S
C378 C377 1.387 . S
C378 C381 1.387 . S
H379 C375 0.950 . S
H380 C377 0.950 . S
C381 C372 1.390 1_564 S
C381 H374 0.950 . S
C381 C378 1.387 . S
C382 C383 1.387 . S
C382 H386 0.950 . S
C382 C391 1.390 1_545 S
C383 C382 1.387 . S
C383 C385 1.387 . S
H384 C391 0.950 . S
C385 C383 1.387 . S
C385 C387 1.390 1_545 S
C385 H389 0.950 . S
H386 C382 0.950 . S
C387 C385 1.390 1_565 S
C387 C388 1.387 . S
C387 H390 0.950 . S
C388 C387 1.387 . S
C388 C391 1.387 . S
H389 C385 0.950 . S
H390 C387 0.950 . S
C391 C382 1.390 1_565 S
C391 H384 0.950 . S
C391 C388 1.387 . S
C392 C393 1.387 . S
C392 H396 0.950 . S
C392 C401 1.390 . S
C393 C392 1.387 . S
C393 C395 1.387 . S
H394 C401 0.950 . S
C395 C393 1.387 . S
C395 C397 1.390 . S
C395 H399 0.950 . S
H396 C392 0.950 . S
C397 C395 1.390 . S
C397 C398 1.387 . S
C397 H400 0.950 . S
C398 C397 1.387 . S
C398 C401 1.387 . S
H399 C395 0.950 . S
H400 C397 0.950 . S
C401 C392 1.390 . S
C401 H394 0.950 . S
C401 C398 1.387 . S
C402 C403 1.387 . S
C402 H406 0.950 . S
C402 C411 1.390 . S
C403 C402 1.387 . S
C403 C405 1.387 . S
H404 C411 0.950 . S
C405 C403 1.387 . S
C405 C407 1.390 . S
C405 H409 0.950 . S
H406 C402 0.950 . S
C407 C405 1.390 . S
C407 C408 1.387 . S
C407 H410 0.950 . S
C408 C407 1.387 . S
C408 C411 1.387 . S
H409 C405 0.950 . S
H410 C407 0.950 . S
C411 C402 1.390 . S
C411 H404 0.950 . S
C411 C408 1.387 . S
C412 C413 1.387 . S
C412 H416 0.950 . S
C412 C421 1.390 . S
C413 C412 1.387 . S
C413 C415 1.387 . S
H414 C421 0.950 1_556 S
C415 C413 1.387 . S
C415 C417 1.390 . S
C415 H419 0.950 . S
H416 C412 0.950 . S
C417 C415 1.390 . S
C417 C418 1.387 . S
C417 H420 0.950 . S
C418 C417 1.387 . S
C418 C421 1.387 . S
H419 C415 0.950 . S
H420 C417 0.950 . S
C421 C412 1.390 . S
C421 H414 0.950 1_554 S
C421 C418 1.387 . S
C422 C423 1.387 . S
C422 H426 0.950 . S
C422 C431 1.390 . S
C423 C422 1.387 . S
C423 C425 1.387 . S
H424 C431 0.950 . S
C425 C423 1.387 . S
C425 C427 1.390 . S
C425 H429 0.950 . S
H426 C422 0.950 . S
C427 C425 1.390 . S
C427 C428 1.387 . S
C427 H430 0.950 . S
C428 C427 1.387 . S
C428 C431 1.387 . S
H429 C425 0.950 . S
H430 C427 0.950 . S
C431 C422 1.390 . S
C431 H424 0.950 . S
C431 C428 1.387 . S
C432 C433 1.387 . S
C432 H436 0.950 . S
C432 C441 1.390 . S
C433 C432 1.387 . S
C433 C435 1.387 . S
H434 C441 0.950 1_554 S
C435 C433 1.387 . S
C435 C437 1.390 . S
C435 H439 0.950 . S
H436 C432 0.950 . S
C437 C435 1.390 . S
C437 C438 1.387 . S
C437 H440 0.950 . S
C438 C437 1.387 . S
C438 C441 1.387 . S
H439 C435 0.950 . S
H440 C437 0.950 . S
C441 C432 1.390 . S
C441 H434 0.950 1_556 S
C441 C438 1.387 . S
C442 C443 1.387 . S
C442 H446 0.950 . S
C442 C451 1.390 . S
C443 C442 1.387 . S
C443 C445 1.387 . S
H444 C451 0.950 . S
C445 C443 1.387 . S
C445 C447 1.390 . S
C445 H449 0.950 . S
H446 C442 0.950 . S
C447 C445 1.390 . S
C447 C448 1.387 . S
C447 H450 0.950 . S
C448 C447 1.387 . S
C448 C451 1.387 . S
H449 C445 0.950 . S
H450 C447 0.950 . S
C451 C442 1.390 . S
C451 H444 0.950 . S
C451 C448 1.387 . S
C452 C453 1.387 . S
C452 H456 0.950 . S
C452 C461 1.390 . S
C453 C452 1.387 . S
C453 C455 1.387 . S
H454 C461 0.950 . S
C455 C453 1.387 . S
C455 C457 1.390 . S
C455 H459 0.950 1_554 S
H456 C452 0.950 . S
C457 C455 1.390 . S
C457 C458 1.387 . S
C457 H460 0.950 . S
C458 C457 1.387 . S
C458 C461 1.387 . S
H459 C455 0.950 1_556 S
H460 C457 0.950 . S
C461 C452 1.390 . S
C461 H454 0.950 . S
C461 C458 1.387 . S
C462 C463 1.387 . S
C462 H466 0.950 . S
C462 C471 1.390 . S
C463 C462 1.387 . S
C463 C465 1.387 . S
H464 C471 0.950 . S
C465 C463 1.387 . S
C465 C467 1.390 . S
C465 H469 0.950 . S
H466 C462 0.950 . S
C467 C465 1.390 . S
C467 C468 1.387 . S
C467 H470 0.950 . S
C468 C467 1.387 . S
C468 C471 1.387 . S
H469 C465 0.950 . S
H470 C467 0.950 . S
C471 C462 1.390 . S
C471 H464 0.950 . S
C471 C468 1.387 . S
C273 C33 1.590 . S
C278 C135 1.590 . S
C283 C67 1.588 . S
C288 C101 1.588 . S
C293 C271 1.588 . S
C298 C169 1.588 . S
C303 C203 1.588 . S
C308 C237 1.588 . S
C313 C70 2.064 . S
C318 C2 2.064 . S
C323 C104 2.064 . S
C328 C36 2.064 . S
C333 C39 1.370 . S
C338 C107 1.370 . S
C343 C5 1.369 . S
C348 C73 1.369 . S
C353 C206 2.064 . S
C358 C138 2.064 . S
C363 C172 2.064 . S
C368 C240 2.064 . S
C373 C175 1.369 . S
C378 C243 1.369 . S
C383 C209 1.369 . S
C388 C141 1.369 . S
C393 C9 1.345 . S
C398 C190 1.390 . S
C403 C43 1.344 . S
C408 C156 1.390 . S
C413 C258 1.390 . S
C418 C77 1.344 . S
C423 C111 1.347 . S
C428 C224 1.390 . S
C433 C54 1.390 . S
C438 C145 1.345 . S
C443 C179 1.347 . S
C448 C20 1.390 . S
C453 C213 1.347 . S
C458 C122 1.390 . S
C463 C247 1.346 . S
C468 C88 1.390 . S
