# Generated by pormake.
# Topology snp, (6)-cn, num edge types: 1
# Building blocks:
#     Node 0, Type 0, BuildingBlock: JUFBIX_clean_sbu_0, # of connection points: 6
#     Node 1, Type 0, BuildingBlock: JUFBIX_clean_sbu_0, # of connection points: 6
#     Node 2, Type 0, BuildingBlock: JUFBIX_clean_sbu_0, # of connection points: 6
#     Node 3, Type 0, BuildingBlock: JUFBIX_clean_sbu_0, # of connection points: 6
#     Edge 4, Type (0, 0), BuildingBlock: XIVTED_clean_linker_0, # of connection points: 2
#     Edge 5, Type (0, 0), BuildingBlock: XIVTED_clean_linker_0, # of connection points: 2
#     Edge 6, Type (0, 0), BuildingBlock: XIVTED_clean_linker_0, # of connection points: 2
#     Edge 7, Type (0, 0), BuildingBlock: XIVTED_clean_linker_0, # of connection points: 2
#     Edge 8, Type (0, 0), BuildingBlock: XIVTED_clean_linker_0, # of connection points: 2
#     Edge 9, Type (0, 0), BuildingBlock: XIVTED_clean_linker_0, # of connection points: 2
#     Edge 10, Type (0, 0), BuildingBlock: XIVTED_clean_linker_0, # of connection points: 2
#     Edge 11, Type (0, 0), BuildingBlock: XIVTED_clean_linker_0, # of connection points: 2
#     Edge 12, Type (0, 0), BuildingBlock: XIVTED_clean_linker_0, # of connection points: 2
#     Edge 13, Type (0, 0), BuildingBlock: XIVTED_clean_linker_0, # of connection points: 2
#     Edge 14, Type (0, 0), BuildingBlock: XIVTED_clean_linker_0, # of connection points: 2
#     Edge 15, Type (0, 0), BuildingBlock: XIVTED_clean_linker_0, # of connection points: 2
# Relax obj value: 0.717
# Max RMSD: 0.268
# Mean RMSD: 0.265
data_MOF--net-snp--node1-JUFBIX_clean_sbu_0--edge1-XIVTED_clean_linker_0
_symmetry_space_group_name_H-M    P1
_symmetry_Int_Tables_number       1
_symmetry_cell_setting            triclinic
loop_
_symmetry_equiv_pos_as_xyz
'x, y, z'
_cell_length_a     27.062435
_cell_length_b     26.660641
_cell_length_c     27.781177
_cell_angle_alpha  88.659903
_cell_angle_beta   96.678842
_cell_angle_gamma 99.291318
loop_
_atom_site_label
_atom_site_type_symbol
_atom_site_fract_x
_atom_site_fract_y
_atom_site_fract_z
_atom_type_partial_charge
Co0 Co 0.25616 0.0963 0.08216 0.0
C1 C 0.33025 0.03794 0.08045 0.0
Co2 Co 0.23841 0.0358 0.0266 0.0
C3 C 0.24159 0.15138 0.16542 0.0
C4 C 0.30912 0.18423 0.13598 0.0
N5 N 0.26955 0.14619 0.12927 0.0
N6 N 0.26222 0.19068 0.19467 0.0
C7 C 0.30462 0.21179 0.17617 0.0
H8 H 0.20687 0.12643 0.17058 0.0
H9 H 0.33985 0.19082 0.11378 0.0
C10 C 0.1642 0.09425 0.02798 0.0
N11 N 0.22459 0.98592 0.97866 0.0
C12 C 0.20083 -0.0116 0.9332 0.0
C13 C 0.23777 0.93918 0.98191 0.0
N14 N 0.19906 0.94523 0.90795 0.0
C15 C 0.22237 0.91424 0.93859 0.0
C16 C 0.20536 0.00459 0.11531 0.0
O17 O 0.19407 0.11724 0.062 0.0
O18 O 0.17661 0.0567 0.00773 0.0
O19 O 0.20747 -0.01145 0.07282 0.0
O20 O 0.22494 0.04996 0.12626 0.0
O21 O 0.30048 0.01589 0.04597 0.0
H22 H 0.25736 0.92412 0.01381 0.0
H23 H 0.18571 0.02154 0.91869 0.0
O24 O 0.31832 0.07503 0.10189 0.0
O25 O 0.28604 0.14192 0.03809 0.0
O26 O 0.26847 0.08339 0.98182 0.0
C27 C 0.28619 0.12893 0.99457 0.0
H28 H 0.33149 0.24336 0.1918 0.0
H29 H 0.22708 0.87587 0.93059 0.0
Co30 Co 0.03314 0.24518 0.67717 0.0
C31 C 0.05831 0.34372 0.64239 0.0
Co32 Co 0.09403 0.25664 0.62902 0.0
C33 C 0.97736 0.20851 0.75783 0.0
C34 C 0.94205 0.26322 0.71475 0.0
N35 N -0.0181 0.23829 0.71788 0.0
N36 N 0.9365 0.21405 0.77981 0.0
C37 C 0.91427 0.2486 0.75276 0.0
H38 H 0.00403 0.18373 0.77096 0.0
H39 H 0.93369 0.29036 0.68664 0.0
C40 C 0.06615 0.15759 0.66033 0.0
N41 N 0.14608 0.26148 0.58994 0.0
C42 C 0.14474 0.26801 0.54139 0.0
C43 C 0.19188 0.2486 0.60405 0.0
N44 N 0.18748 0.25894 0.52503 0.0
C45 C 0.21722 0.24691 0.56434 0.0
C46 C 0.12894 0.27113 0.72575 0.0
O47 O 0.03735 0.17659 0.68507 0.0
O48 O 0.09614 0.18686 0.6363 0.0
O49 O 0.14126 0.27095 0.68324 0.0
O50 O 0.08254 0.26135 0.73216 0.0
O51 O 0.09091 0.32579 0.62144 0.0
H52 H 0.20459 0.23686 0.64023 0.0
H53 H 0.11161 0.27474 0.51792 0.0
O54 O 0.02942 0.31481 0.66793 0.0
O55 O -0.01592 0.22751 0.62054 0.0
O56 O 0.04582 0.24195 0.57468 0.0
C57 C -0.00064 0.22824 0.57866 0.0
H58 H 0.87985 0.26167 0.75941 0.0
H59 H 0.25318 0.23417 0.56382 0.0
Co60 Co 0.77948 0.98314 0.15201 0.0
C61 C 0.86031 0.94189 0.13233 0.0
Co62 Co 0.76002 0.92247 0.09656 0.0
C63 C 0.81985 0.03916 0.24274 0.0
C64 C 0.78089 0.08212 0.18916 0.0
N65 N 0.7945 0.03594 0.19747 0.0
N66 N 0.82289 0.08582 0.2624 0.0
C67 C 0.7983 0.11267 0.22859 0.0
H68 H 0.83667 0.00837 0.26042 0.0
H69 H 0.75971 0.09305 0.15623 0.0
C70 C 0.67952 0.96566 0.11531 0.0
N71 N 0.74469 0.87082 0.05123 0.0
C72 C 0.76831 0.86515 0.01198 0.0
C73 C 0.70655 0.83133 0.04964 0.0
N74 N 0.74627 0.82387 0.98566 0.0
C75 C 0.70739 0.80245 0.00942 0.0
C76 C 0.75175 0.88747 0.18998 0.0
O77 O 0.71249 -0.00689 0.14367 0.0
O78 O 0.69221 0.93157 0.09035 0.0
O79 O 0.748 0.87512 0.14581 0.0
O80 O 0.76428 0.9341 0.20189 0.0
O81 O 0.82797 0.91439 0.10319 0.0
H82 H 0.67955 0.82429 0.0758 0.0
H83 H 0.80031 0.8917 1.0023 0.0
O84 O 0.84592 0.97267 0.15987 0.0
O85 O 0.79578 0.03141 0.09993 0.0
O86 O 0.77317 0.9701 0.04687 0.0
C87 C 0.79111 0.01624 0.05616 0.0
H88 H 0.79303 0.15175 0.2322 0.0
H89 H 0.68128 0.76838 0.99861 0.0
Co90 Co 0.91894 0.76292 0.54988 0.0
C91 C 0.92576 0.85308 0.49935 0.0
Co92 Co -0.01973 0.77429 0.50241 0.0
C93 C 0.87302 0.75269 0.63953 0.0
C94 C 0.81897 0.75607 0.57739 0.0
N95 N 0.86837 0.75513 0.5906 0.0
N96 N 0.82856 0.75239 0.6573 0.0
C97 C 0.79444 0.75419 0.61817 0.0
H98 H 0.90859 0.75249 0.66173 0.0
H99 H 0.80216 0.76028 0.5406 0.0
C100 C 0.97385 0.6848 0.55409 0.0
N101 N 0.03048 0.78345 0.4605 0.0
C102 C 0.03026 0.80862 0.41755 0.0
C103 C 0.07485 0.76591 0.46626 0.0
N104 N 0.07255 0.80733 0.3963 0.0
C105 C 0.10061 0.7803 0.42689 0.0
C106 C 0.01058 0.81351 0.59474 0.0
O107 O 0.93826 0.70113 0.57178 0.0
O108 O -0.00348 0.71053 0.52183 0.0
O109 O 0.02743 0.80598 0.55495 0.0
O110 O 0.96449 0.79791 0.59921 0.0
O111 O 0.96313 0.83787 0.484 0.0
H112 H 0.08786 0.74428 0.49726 0.0
H113 H -0.00062 0.82721 0.40192 0.0
O114 O 0.9001 0.82481 0.52787 0.0
O115 O 0.87405 0.72907 0.50029 0.0
O116 O 0.93279 0.74348 0.45132 0.0
C117 C 0.8874 0.7266 0.45828 0.0
H118 H 0.75505 0.75682 0.61896 0.0
H119 H 0.13769 0.77252 0.42178 0.0
H120 H 0.94057 -0.00348 0.18632 0.0
H121 H 0.08928 0.05309 0.95875 0.0
H122 H 0.89716 0.91672 0.05057 0.0
H123 H 0.11627 0.14609 0.087 0.0
H124 H 0.00974 0.01239 0.98484 0.0
H125 H 0.00652 0.05159 0.14929 0.0
C126 C 0.94607 -0.01055 0.1492 0.0
C127 C 0.91226 0.95339 0.12091 0.0
C128 C 0.03247 0.04259 0.00675 0.0
C129 C -0.01418 0.01718 0.07795 0.0
C130 C 0.07736 0.06668 0.99132 0.0
C131 C 0.11092 0.09958 0.02309 0.0
C132 C 0.02181 0.0529 0.05339 0.0
C133 C 0.09265 0.11819 0.06312 0.0
C134 C -0.01733 0.02186 0.12766 0.0
C135 C 0.92169 0.94496 0.0734 0.0
N136 N 0.05007 0.09264 0.07868 0.0
N137 N 0.95701 0.97761 0.05291 0.0
H138 H -0.01814 0.92792 0.45059 0.0
H139 H -0.01178 0.08859 0.68756 0.0
H140 H 0.86551 0.9039 0.5463 0.0
H141 H 0.10524 0.10857 0.59213 0.0
H142 H 0.93902 0.02451 0.63301 0.0
H143 H 0.01661 0.00771 0.4913 0.0
C144 C 0.96226 0.94046 0.47884 0.0
C145 C 0.92341 0.90763 0.49798 0.0
C146 C 0.9756 0.04275 0.62417 0.0
C147 C 0.96335 -0.00277 0.54507 0.0
C148 C 0.00436 0.07838 0.65596 0.0
C149 C 0.0502 0.10516 0.64353 0.0
C150 C -0.0066 0.03333 0.58035 0.0
C151 C 0.06955 0.08966 0.60261 0.0
C152 C -0.0172 0.98551 0.50277 0.0
C153 C 0.89767 0.92688 0.53255 0.0
N154 N 0.04052 0.05538 0.57186 0.0
N155 N 0.91957 0.96964 0.55683 0.0
H156 H 0.59789 0.91047 0.06314 0.0
H157 H 0.40751 0.08181 0.14574 0.0
H158 H 0.64143 0.03568 0.16337 0.0
H159 H 0.36422 0.95767 0.0443 0.0
H160 H 0.49198 0.05958 0.15948 0.0
H161 H 0.51023 0.92243 0.06118 0.0
C162 C 0.58896 0.94048 0.08465 0.0
C163 C 0.62679 0.97242 0.11311 0.0
C164 C 0.46383 0.03699 0.13451 0.0
C165 C 0.52712 0.98607 0.11134 0.0
C166 C 0.41568 0.04961 0.12676 0.0
C167 C 0.37929 0.022 0.09331 0.0
C168 C 0.47535 -0.00331 0.10847 0.0
C169 C 0.39151 0.98039 0.06991 0.0
C170 C 0.539 0.94714 0.08372 0.0
C171 C 0.61334 0.01042 0.14067 0.0
N172 N 0.43879 0.96927 0.07762 0.0
N173 N 0.56449 0.01633 0.13893 0.0
H174 H 0.11068 0.41517 0.58755 0.0
H175 H 0.93439 0.62086 0.62299 0.0
H176 H -0.0082 0.39346 0.6809 0.0
H177 H 0.04895 0.63991 0.52496 0.0
H178 H 0.96017 0.54051 0.65035 0.0
H179 H 0.09438 0.50146 0.57051 0.0
C180 C 0.08142 0.42871 0.60475 0.0
C181 C 0.05214 0.39706 0.63523 0.0
C182 C 0.97976 0.56237 0.62297 0.0
C183 C 0.03319 0.49531 0.61575 0.0
C184 C 0.96499 0.60813 0.60726 0.0
C185 C -0.0107 0.63672 0.57136 0.0
C186 C 0.01902 0.54521 0.60254 0.0
C187 C 0.02895 0.61878 0.55246 0.0
C188 C 0.07211 0.47791 0.59497 0.0
C189 C 0.01496 0.41652 0.65682 0.0
N190 N 0.04246 0.57393 0.56817 0.0
N191 N 0.00627 0.46439 0.64634 0.0
H192 H 0.21177 0.17406 0.49085 0.0
H193 H 0.26927 0.28409 0.23405 0.0
H194 H 0.17837 0.32232 0.44801 0.0
H195 H 0.21893 0.12465 0.25844 0.0
H196 H 0.24605 0.3026 0.31417 0.0
H197 H 0.22546 0.15819 0.40745 0.0
C198 C 0.20752 0.20327 0.46362 0.0
C199 C 0.19433 0.24959 0.47587 0.0
C200 C 0.23965 0.26371 0.30154 0.0
C201 C 0.21014 0.23206 0.38085 0.0
C202 C 0.25311 0.25315 0.2562 0.0
C203 C 0.24597 0.20283 0.23982 0.0
C204 C 0.22018 0.22346 0.33086 0.0
C205 C 0.22462 0.16398 0.26954 0.0
C206 C 0.21495 0.19415 0.41615 0.0
C207 C 0.18856 0.28619 0.43951 0.0
N208 N 0.21308 0.17505 0.31389 0.0
N209 N 0.19716 0.27694 0.39343 0.0
H210 H 0.94642 0.11779 0.8083 0.0
H211 H 0.8154 0.12137 0.05182 0.0
H212 H 0.88622 0.24921 0.84797 0.0
H213 H 0.81617 0.98524 0.97105 0.0
H214 H 0.85338 0.17201 0.98595 0.0
H215 H 0.91251 0.07167 0.87764 0.0
C216 C 0.92651 0.13711 0.83186 0.0
C217 C 0.91892 0.18736 0.82209 0.0
C218 C 0.84495 0.13103 0.98283 0.0
C219 C 0.87992 0.13474 0.9017 0.0
C220 C 0.82328 0.10219 0.02031 0.0
C221 C 0.81191 0.049 0.01678 0.0
C222 C 0.85646 0.10632 0.94229 0.0
C223 C 0.82347 0.02612 0.97524 0.0
C224 C 0.90683 0.11067 0.87124 0.0
C225 C 0.89236 0.21032 0.85379 0.0
N226 N 0.84531 0.05475 0.94001 0.0
N227 N 0.87392 0.18393 0.89224 0.0
H228 H 0.78676 0.72782 0.45752 0.0
H229 H 0.75593 0.78763 0.1766 0.0
H230 H 0.89884 0.70865 0.36377 0.0
H231 H 0.74135 0.89436 0.28673 0.0
H232 H 0.77004 0.72458 0.23973 0.0
H233 H 0.73229 0.75126 0.38721 0.0
C234 C 0.79912 0.72625 0.42199 0.0
C235 C 0.84824 0.71817 0.41656 0.0
C236 C 0.76202 0.76124 0.24968 0.0
C237 C 0.78557 0.74353 0.33656 0.0
C238 C 0.75413 0.79739 0.21392 0.0
C239 C 0.74865 0.84676 0.22671 0.0
C240 C 0.76314 0.77424 0.29824 0.0
C241 C 0.74636 0.85706 0.27551 0.0
C242 C 0.76794 0.73979 0.38204 0.0
C243 C 0.86175 0.71588 0.36957 0.0
N244 N 0.75425 0.82113 0.30977 0.0
N245 N 0.83087 0.72964 0.33122 0.0
H246 H 0.11339 0.82059 0.61858 0.0
H247 H 0.11604 0.97817 0.86188 0.0
H248 H -0.0189 0.86655 0.66563 0.0
H249 H 0.22841 0.88494 0.84281 0.0
H250 H 0.07335 0.95227 0.78148 0.0
H251 H 0.1632 0.85845 0.69259 0.0
C252 C 0.09503 0.83917 0.6441 0.0
C253 C 0.04301 0.84004 0.63619 0.0
C254 C 0.10755 0.93774 0.7948 0.0
C255 C 0.09951 0.88362 0.72031 0.0
C256 C 0.13206 0.95277 0.84054 0.0
C257 C 0.17561 0.93336 0.85927 0.0
C258 C 0.12704 0.90356 0.76721 0.0
C259 C 0.19451 0.90017 0.83008 0.0
C260 C 0.12332 0.86049 0.68636 0.0
C261 C 0.02102 0.8645 0.67052 0.0
N262 N 0.17014 0.88629 0.78556 0.0
N263 N 0.0493 0.88526 0.71094 0.0
H264 H 0.68534 0.76699 0.91557 0.0
H265 H 0.89537 0.79377 0.73227 0.0
H266 H 0.83769 0.84438 0.95132 0.0
H267 H 0.74173 0.7202 0.69654 0.0
H268 H 0.8773 0.80631 0.81491 0.0
H269 H 0.70751 0.74358 0.8376 0.0
C270 C 0.72361 0.77868 0.90735 0.0
C271 C 0.75959 0.80797 0.94021 0.0
C272 C 0.84762 0.78712 0.78906 0.0
C273 C 0.78516 0.7817 0.85029 0.0
C274 C 0.85803 0.77959 0.74191 0.0
C275 C 0.81989 0.75613 0.70724 0.0
C276 C 0.79875 0.77103 0.8017 0.0
C277 C 0.77202 0.73919 0.7218 0.0
C278 C 0.7362 0.76551 0.86256 0.0
C279 C 0.80845 0.82252 0.92695 0.0
N280 N 0.76277 0.74717 0.76779 0.0
N281 N 0.81974 0.80939 0.88298 0.0
H282 H 0.15819 0.03637 0.18718 0.0
H283 H 0.13008 0.7754 0.33285 0.0
H284 H 0.19384 0.90023 0.1279 0.0
H285 H 0.04709 0.89556 0.35792 0.0
H286 H 0.1576 0.82051 0.26013 0.0
H287 H 0.12091 0.98593 0.25206 0.0
C288 C 0.15805 -0.0043 0.18776 0.0
C289 C 0.17948 0.97251 0.15219 0.0
C290 C 0.133 0.83674 0.28132 0.0
C291 C 0.13717 0.91435 0.22713 0.0
C292 C 0.11755 0.8112 0.32299 0.0
C293 C 0.08639 0.83183 0.35171 0.0
C294 C 0.11796 0.88377 0.26865 0.0
C295 C 0.0708 0.87806 0.33681 0.0
C296 C 0.13652 0.96687 0.22477 0.0
C297 C 0.17769 0.91959 0.15456 0.0
N298 N 0.0872 0.90269 0.29673 0.0
N299 N 0.15752 0.89232 0.19183 0.0
H300 H 0.22899 0.27019 0.72224 0.0
H301 H 0.28409 0.22977 1.00483 0.0
H302 H 0.1206 0.28042 0.82269 0.0
H303 H 0.30207 0.11909 0.89979 0.0
H304 H 0.26177 0.28675 0.9387 0.0
H305 H 0.29029 0.25415 0.79005 0.0
C306 C 0.21841 0.27057 0.7586 0.0
C307 C 0.16899 0.27503 0.76683 0.0
C308 C 0.27274 0.25086 0.93043 0.0
C309 C 0.23968 0.25867 0.84403 0.0
C310 C 0.28568 0.21828 0.96796 0.0
C311 C 0.29346 0.16896 0.95756 0.0
C312 C 0.26918 0.23442 0.88259 0.0
C313 C 0.2953 0.15637 0.90922 0.0
C314 C 0.25363 0.26168 0.7971 0.0
C315 C 0.1579 0.27609 0.81475 0.0
N316 N 0.28222 0.18867 0.87324 0.0
N317 N 0.19291 0.26716 0.85174 0.0
H318 H 0.87256 0.18074 0.28083 0.0
H319 H 0.92403 0.14491 0.5687 0.0
H320 H 0.8311 0.0358 0.34936 0.0
H321 H 0.00125 0.26708 0.48786 0.0
H322 H 0.87999 0.10768 0.49173 0.0
H323 H 0.91094 0.21597 0.35899 0.0
C324 C 0.87148 0.15629 0.31248 0.0
C325 C 0.8484 0.10526 0.30849 0.0
C326 C 0.9061 0.14297 0.49103 0.0
C327 C 0.89242 0.14565 0.3989 0.0
C328 C 0.93063 0.16457 0.53491 0.0
C329 C 0.96567 0.20961 0.53462 0.0
C330 C 0.91626 0.1671 0.44682 0.0
C331 C 0.97414 0.23264 0.48977 0.0
C332 C 0.89359 0.17641 0.35719 0.0
C333 C 0.8488 0.07522 0.3508 0.0
N334 N 0.9496 0.21131 0.44792 0.0
N335 N 0.87016 0.09594 0.39439 0.0
loop_
_geom_bond_atom_site_label_1
_geom_bond_atom_site_label_2
_geom_bond_distance
_geom_bond_site_symmetry_2
_ccdc_geom_bond_type
Co0 N5 2.057 . S
Co0 O17 2.021 . S
Co0 O20 2.062 . S
Co0 O24 2.117 . S
Co0 O25 2.020 . S
C1 O21 1.259 . S
C1 O24 1.258 . S
Co2 N11 2.057 1_544 S
Co2 O18 2.117 . S
Co2 O19 2.020 1_545 S
Co2 O21 2.021 . S
Co2 O26 2.062 1_554 S
C3 N5 1.316 . S
C3 N6 1.347 . S
C3 H8 0.931 . S
C4 N5 1.375 . S
C4 C7 1.350 . S
C4 H9 0.930 . S
N5 Co0 2.057 . S
N5 C3 1.316 . S
N5 C4 1.375 . S
N6 C3 1.347 . S
N6 C7 1.373 . S
C7 C4 1.350 . S
C7 N6 1.373 . S
C7 H28 0.931 . S
H8 C3 0.931 . S
H9 C4 0.930 . S
C10 O17 1.259 . S
C10 O18 1.258 . S
N11 Co2 2.057 1_566 S
N11 C12 1.316 . S
N11 C13 1.375 . S
C12 N11 1.316 . S
C12 N14 1.347 . S
C12 H23 0.931 . S
C13 N11 1.375 . S
C13 C15 1.350 . S
C13 H22 0.930 . S
N14 C12 1.347 . S
N14 C15 1.373 . S
C15 C13 1.350 . S
C15 N14 1.373 . S
C15 H29 0.931 . S
C16 O19 1.256 . S
C16 O20 1.255 1_565 S
O17 Co0 2.021 . S
O17 C10 1.259 . S
O18 Co2 2.117 . S
O18 C10 1.258 . S
O19 Co2 2.020 1_565 S
O19 C16 1.256 . S
O20 Co0 2.062 . S
O20 C16 1.255 1_545 S
O21 C1 1.259 . S
O21 Co2 2.021 . S
H22 C13 0.930 . S
H23 C12 0.931 . S
O24 Co0 2.117 . S
O24 C1 1.258 . S
O25 Co0 2.020 . S
O25 C27 1.256 1_554 S
O26 Co2 2.062 1_556 S
O26 C27 1.255 . S
C27 O25 1.256 1_556 S
C27 O26 1.255 . S
H28 C7 0.931 . S
H29 C15 0.931 . S
Co30 N35 2.057 1_455 S
Co30 O47 2.021 . S
Co30 O50 2.062 . S
Co30 O54 2.117 . S
Co30 O55 2.020 1_455 S
C31 O51 1.259 . S
C31 O54 1.258 . S
Co32 N41 2.057 . S
Co32 O48 2.117 . S
Co32 O49 2.020 . S
Co32 O51 2.021 . S
Co32 O56 2.062 . S
C33 N35 1.316 . S
C33 N36 1.347 . S
C33 H38 0.931 . S
C34 N35 1.375 . S
C34 C37 1.350 . S
C34 H39 0.930 . S
N35 Co30 2.057 1_655 S
N35 C33 1.316 . S
N35 C34 1.375 . S
N36 C33 1.347 . S
N36 C37 1.373 . S
C37 C34 1.350 . S
C37 N36 1.373 . S
C37 H58 0.931 . S
H38 C33 0.931 . S
H39 C34 0.930 . S
C40 O47 1.259 . S
C40 O48 1.258 . S
N41 Co32 2.057 . S
N41 C42 1.316 . S
N41 C43 1.375 . S
C42 N41 1.316 . S
C42 N44 1.347 . S
C42 H53 0.931 . S
C43 N41 1.375 . S
C43 C45 1.350 . S
C43 H52 0.930 . S
N44 C42 1.347 . S
N44 C45 1.373 . S
C45 C43 1.350 . S
C45 N44 1.373 . S
C45 H59 0.931 . S
C46 O49 1.256 . S
C46 O50 1.255 . S
O47 Co30 2.021 . S
O47 C40 1.259 . S
O48 Co32 2.117 . S
O48 C40 1.258 . S
O49 Co32 2.020 . S
O49 C46 1.256 . S
O50 Co30 2.062 . S
O50 C46 1.255 . S
O51 C31 1.259 . S
O51 Co32 2.021 . S
H52 C43 0.930 . S
H53 C42 0.931 . S
O54 Co30 2.117 . S
O54 C31 1.258 . S
O55 Co30 2.020 1_655 S
O55 C57 1.256 . S
O56 Co32 2.062 . S
O56 C57 1.255 1_455 S
C57 O55 1.256 . S
C57 O56 1.255 1_655 S
H58 C37 0.931 . S
H59 C45 0.931 . S
Co60 N65 2.057 . S
Co60 O77 2.021 . S
Co60 O80 2.062 1_545 S
Co60 O84 2.117 . S
Co60 O85 2.020 . S
C61 O81 1.259 . S
C61 O84 1.258 1_565 S
Co62 N71 2.057 . S
Co62 O78 2.117 . S
Co62 O79 2.020 . S
Co62 O81 2.021 . S
Co62 O86 2.062 1_565 S
C63 N65 1.316 . S
C63 N66 1.347 . S
C63 H68 0.931 . S
C64 N65 1.375 . S
C64 C67 1.350 . S
C64 H69 0.930 . S
N65 Co60 2.057 . S
N65 C63 1.316 . S
N65 C64 1.375 . S
N66 C63 1.347 . S
N66 C67 1.373 . S
C67 C64 1.350 . S
C67 N66 1.373 . S
C67 H88 0.931 . S
H68 C63 0.931 . S
H69 C64 0.930 . S
C70 O77 1.259 . S
C70 O78 1.258 1_545 S
N71 Co62 2.057 . S
N71 C72 1.316 1_554 S
N71 C73 1.372 1_554 S
C72 N71 1.316 1_556 S
C72 N74 1.347 . S
C72 H83 0.931 . S
C73 N71 1.372 1_556 S
C73 C75 1.361 . S
C73 H82 0.923 1_556 S
N74 C72 1.347 . S
N74 C75 1.373 . S
C75 C73 1.361 . S
C75 N74 1.373 . S
C75 H89 0.931 . S
C76 O79 1.256 . S
C76 O80 1.255 . S
O77 Co60 2.021 . S
O77 C70 1.259 . S
O78 Co62 2.117 . S
O78 C70 1.258 1_565 S
O79 Co62 2.020 . S
O79 C76 1.256 . S
O80 Co60 2.062 1_565 S
O80 C76 1.255 . S
O81 C61 1.259 . S
O81 Co62 2.021 . S
H82 C73 0.923 1_554 S
H83 C72 0.931 . S
O84 Co60 2.117 . S
O84 C61 1.258 1_545 S
O85 Co60 2.020 . S
O85 C87 1.256 . S
O86 Co62 2.062 1_545 S
O86 C87 1.255 . S
C87 O85 1.256 . S
C87 O86 1.255 . S
H88 C67 0.931 . S
H89 C75 0.931 . S
Co90 N95 2.057 . S
Co90 O107 2.021 . S
Co90 O110 2.062 1_655 S
Co90 O114 2.117 . S
Co90 O115 2.020 . S
C91 O111 1.259 . S
C91 O114 1.258 1_455 S
Co92 N101 2.057 . S
Co92 O108 2.117 . S
Co92 O109 2.020 . S
Co92 O111 2.021 . S
Co92 O116 2.062 1_455 S
C93 N95 1.316 . S
C93 N96 1.347 . S
C93 H98 0.931 . S
C94 N95 1.375 . S
C94 C97 1.350 . S
C94 H99 0.930 . S
N95 Co90 2.057 . S
N95 C93 1.316 . S
N95 C94 1.375 . S
N96 C93 1.347 . S
N96 C97 1.373 . S
C97 C94 1.350 . S
C97 N96 1.373 . S
C97 H118 0.931 . S
H98 C93 0.931 . S
H99 C94 0.930 . S
C100 O107 1.259 . S
C100 O108 1.258 1_655 S
N101 Co92 2.057 . S
N101 C102 1.316 . S
N101 C103 1.375 . S
C102 N101 1.316 . S
C102 N104 1.347 . S
C102 H113 0.931 . S
C103 N101 1.375 . S
C103 C105 1.350 . S
C103 H112 0.930 . S
N104 C102 1.347 . S
N104 C105 1.373 . S
C105 C103 1.350 . S
C105 N104 1.373 . S
C105 H119 0.931 . S
C106 O109 1.256 . S
C106 O110 1.255 . S
O107 Co90 2.021 . S
O107 C100 1.259 . S
O108 Co92 2.117 . S
O108 C100 1.258 1_455 S
O109 Co92 2.020 . S
O109 C106 1.256 . S
O110 Co90 2.062 1_455 S
O110 C106 1.255 . S
O111 C91 1.259 . S
O111 Co92 2.021 . S
H112 C103 0.930 . S
H113 C102 0.931 . S
O114 Co90 2.117 . S
O114 C91 1.258 1_655 S
O115 Co90 2.020 . S
O115 C117 1.256 . S
O116 Co92 2.062 1_655 S
O116 C117 1.255 . S
C117 O115 1.256 . S
C117 O116 1.255 . S
H118 C97 0.931 . S
H119 C105 0.931 . S
H120 C126 0.930 . S
H121 C130 0.923 1_566 S
H122 C135 0.929 . S
H123 C133 0.929 . S
H124 C128 0.929 1_565 S
H125 C134 0.929 1_455 S
C126 H120 0.930 . S
C126 C127 1.367 . S
C126 C134 1.378 . S
C127 C126 1.367 . S
C127 C135 1.433 1_545 S
C128 H124 0.929 1_545 S
C128 C130 1.378 . S
C128 C132 1.350 . S
C129 C132 1.463 . S
C129 C134 1.350 1_455 S
C129 N137 1.427 1_445 S
C130 H121 0.923 1_544 S
C130 C128 1.378 . S
C130 C131 1.367 . S
C131 C130 1.367 . S
C131 C133 1.433 . S
C132 C128 1.350 . S
C132 C129 1.463 . S
C132 N136 1.427 . S
C133 H123 0.929 . S
C133 C131 1.433 . S
C133 N136 1.384 . S
C134 H125 0.929 1_655 S
C134 C126 1.378 . S
C134 C129 1.350 1_655 S
C135 H122 0.929 . S
C135 C127 1.433 1_565 S
C135 N137 1.384 . S
N136 C132 1.427 . S
N136 C133 1.384 . S
N137 C129 1.427 1_665 S
N137 C135 1.384 . S
H138 C144 0.930 . S
H139 C148 0.930 1_655 S
H140 C153 0.929 . S
H141 C151 0.929 . S
H142 C146 0.929 . S
H143 C152 0.929 1_545 S
C144 H138 0.930 . S
C144 C145 1.367 . S
C144 C152 1.378 . S
C145 C144 1.367 . S
C145 C153 1.433 1_455 S
C146 H142 0.929 . S
C146 C148 1.378 1_655 S
C146 C150 1.350 1_655 S
C147 C150 1.463 1_565 S
C147 C152 1.350 . S
C147 N155 1.427 1_455 S
C148 H139 0.930 1_455 S
C148 C146 1.378 1_455 S
C148 C149 1.367 . S
C149 C148 1.367 . S
C149 C151 1.433 . S
C150 C146 1.350 1_455 S
C150 C147 1.463 1_545 S
C150 N154 1.427 . S
C151 H141 0.929 . S
C151 C149 1.433 . S
C151 N154 1.384 . S
C152 H143 0.929 1_565 S
C152 C144 1.378 . S
C152 C147 1.350 . S
C153 H140 0.929 . S
C153 C145 1.433 1_655 S
C153 N155 1.384 . S
N154 C150 1.427 . S
N154 C151 1.384 . S
N155 C147 1.427 1_655 S
N155 C153 1.384 . S
H156 C162 0.930 . S
H157 C166 0.930 . S
H158 C171 0.929 . S
H159 C169 0.929 . S
H160 C164 0.929 . S
H161 C170 0.929 . S
C162 H156 0.930 . S
C162 C163 1.367 . S
C162 C170 1.378 . S
C163 C162 1.367 . S
C163 C171 1.433 1_565 S
C164 H160 0.929 . S
C164 C166 1.378 . S
C164 C168 1.350 . S
C165 C168 1.463 . S
C165 C170 1.350 1_545 S
C165 N173 1.427 . S
C166 H157 0.930 . S
C166 C164 1.378 . S
C166 C167 1.367 . S
C167 C166 1.367 . S
C167 C169 1.433 1_545 S
C168 C164 1.350 . S
C168 C165 1.463 . S
C168 N172 1.427 1_545 S
C169 H159 0.929 . S
C169 C167 1.433 1_565 S
C169 N172 1.384 . S
C170 H161 0.929 . S
C170 C162 1.378 . S
C170 C165 1.350 1_565 S
C171 H158 0.929 . S
C171 C163 1.433 1_545 S
C171 N173 1.384 . S
N172 C168 1.427 1_565 S
N172 C169 1.384 . S
N173 C165 1.427 . S
N173 C171 1.384 . S
H174 C180 0.930 . S
H175 C184 0.930 . S
H176 C189 0.929 1_655 S
H177 C187 0.929 . S
H178 C182 0.929 . S
H179 C188 0.929 . S
C180 H174 0.930 . S
C180 C181 1.367 . S
C180 C188 1.378 . S
C181 C180 1.367 . S
C181 C189 1.433 . S
C182 H178 0.929 . S
C182 C184 1.378 . S
C182 C186 1.350 1_655 S
C183 C186 1.463 . S
C183 C188 1.350 . S
C183 N191 1.427 1_455 S
C184 H175 0.930 . S
C184 C182 1.378 . S
C184 C185 1.367 . S
C185 C184 1.367 . S
C185 C187 1.433 1_655 S
C186 C182 1.350 1_455 S
C186 C183 1.463 . S
C186 N190 1.427 . S
C187 H177 0.929 . S
C187 C185 1.433 1_455 S
C187 N190 1.384 . S
C188 H179 0.929 . S
C188 C180 1.378 . S
C188 C183 1.350 . S
C189 H176 0.929 1_455 S
C189 C181 1.433 . S
C189 N191 1.384 1_455 S
N190 C186 1.427 . S
N190 C187 1.384 . S
N191 C183 1.427 1_655 S
N191 C189 1.384 1_655 S
H192 C198 0.930 . S
H193 C202 0.930 . S
H194 C207 0.929 . S
H195 C205 0.929 . S
H196 C200 0.929 . S
H197 C206 0.929 . S
C198 H192 0.930 . S
C198 C199 1.367 . S
C198 C206 1.378 . S
C199 C198 1.367 . S
C199 C207 1.433 . S
C200 H196 0.929 . S
C200 C202 1.378 . S
C200 C204 1.350 . S
C201 C204 1.463 . S
C201 C206 1.350 . S
C201 N209 1.427 . S
C202 H193 0.930 . S
C202 C200 1.378 . S
C202 C203 1.367 . S
C203 C202 1.367 . S
C203 C205 1.433 . S
C204 C200 1.350 . S
C204 C201 1.463 . S
C204 N208 1.427 . S
C205 H195 0.929 . S
C205 C203 1.433 . S
C205 N208 1.384 . S
C206 H197 0.929 . S
C206 C198 1.378 . S
C206 C201 1.350 . S
C207 H194 0.929 . S
C207 C199 1.433 . S
C207 N209 1.384 . S
N208 C204 1.427 . S
N208 C205 1.384 . S
N209 C201 1.427 . S
N209 C207 1.384 . S
H210 C216 0.930 . S
H211 C220 0.930 1_554 S
H212 C225 0.929 . S
H213 C223 0.929 . S
H214 C218 0.929 . S
H215 C224 0.929 . S
C216 H210 0.930 . S
C216 C217 1.367 . S
C216 C224 1.378 . S
C217 C216 1.367 . S
C217 C225 1.433 . S
C218 H214 0.929 . S
C218 C220 1.378 . S
C218 C222 1.350 . S
C219 C222 1.463 . S
C219 C224 1.350 . S
C219 N227 1.427 . S
C220 H211 0.930 1_556 S
C220 C218 1.378 . S
C220 C221 1.367 . S
C221 C220 1.367 . S
C221 C223 1.433 . S
C222 C218 1.350 . S
C222 C219 1.463 . S
C222 N226 1.427 . S
C223 H213 0.929 . S
C223 C221 1.433 . S
C223 N226 1.384 . S
C224 H215 0.929 . S
C224 C216 1.378 . S
C224 C219 1.350 . S
C225 H212 0.929 . S
C225 C217 1.433 . S
C225 N227 1.384 . S
N226 C222 1.427 . S
N226 C223 1.384 . S
N227 C219 1.427 . S
N227 C225 1.384 . S
H228 C234 0.930 . S
H229 C238 0.930 . S
H230 C243 0.929 . S
H231 C241 0.929 . S
H232 C236 0.929 . S
H233 C242 0.929 . S
C234 H228 0.930 . S
C234 C235 1.367 . S
C234 C242 1.378 . S
C235 C234 1.367 . S
C235 C243 1.433 . S
C236 H232 0.929 . S
C236 C238 1.378 . S
C236 C240 1.350 . S
C237 C240 1.463 . S
C237 C242 1.350 . S
C237 N245 1.427 . S
C238 H229 0.930 . S
C238 C236 1.378 . S
C238 C239 1.367 . S
C239 C238 1.367 . S
C239 C241 1.433 . S
C240 C236 1.350 . S
C240 C237 1.463 . S
C240 N244 1.427 . S
C241 H231 0.929 . S
C241 C239 1.433 . S
C241 N244 1.384 . S
C242 H233 0.929 . S
C242 C234 1.378 . S
C242 C237 1.350 . S
C243 H230 0.929 . S
C243 C235 1.433 . S
C243 N245 1.384 . S
N244 C240 1.427 . S
N244 C241 1.384 . S
N245 C237 1.427 . S
N245 C243 1.384 . S
H246 C252 0.930 . S
H247 C256 0.930 . S
H248 C261 0.929 . S
H249 C259 0.929 . S
H250 C254 0.929 . S
H251 C260 0.929 . S
C252 H246 0.930 . S
C252 C253 1.367 . S
C252 C260 1.378 . S
C253 C252 1.367 . S
C253 C261 1.433 . S
C254 H250 0.929 . S
C254 C256 1.378 . S
C254 C258 1.350 . S
C255 C258 1.463 . S
C255 C260 1.350 . S
C255 N263 1.427 . S
C256 H247 0.930 . S
C256 C254 1.378 . S
C256 C257 1.367 . S
C257 C256 1.367 . S
C257 C259 1.433 . S
C258 C254 1.350 . S
C258 C255 1.463 . S
C258 N262 1.427 . S
C259 H249 0.929 . S
C259 C257 1.433 . S
C259 N262 1.384 . S
C260 H251 0.929 . S
C260 C252 1.378 . S
C260 C255 1.350 . S
C261 H248 0.929 . S
C261 C253 1.433 . S
C261 N263 1.384 . S
N262 C258 1.427 . S
N262 C259 1.384 . S
N263 C255 1.427 . S
N263 C261 1.384 . S
H264 C270 0.930 . S
H265 C274 0.930 . S
H266 C279 0.929 . S
H267 C277 0.929 . S
H268 C272 0.929 . S
H269 C278 0.929 . S
C270 H264 0.930 . S
C270 C271 1.367 . S
C270 C278 1.378 . S
C271 C270 1.367 . S
C271 C279 1.433 . S
C272 H268 0.929 . S
C272 C274 1.378 . S
C272 C276 1.350 . S
C273 C276 1.463 . S
C273 C278 1.350 . S
C273 N281 1.427 . S
C274 H265 0.930 . S
C274 C272 1.378 . S
C274 C275 1.367 . S
C275 C274 1.367 . S
C275 C277 1.433 . S
C276 C272 1.350 . S
C276 C273 1.463 . S
C276 N280 1.427 . S
C277 H267 0.929 . S
C277 C275 1.433 . S
C277 N280 1.384 . S
C278 H269 0.929 . S
C278 C270 1.378 . S
C278 C273 1.350 . S
C279 H266 0.929 . S
C279 C271 1.433 . S
C279 N281 1.384 . S
N280 C276 1.427 . S
N280 C277 1.384 . S
N281 C273 1.427 . S
N281 C279 1.384 . S
H282 C288 0.930 1_545 S
H283 C292 0.930 . S
H284 C297 0.929 . S
H285 C295 0.929 . S
H286 C290 0.929 . S
H287 C296 0.929 . S
C288 H282 0.930 1_565 S
C288 C289 1.367 . S
C288 C296 1.378 . S
C289 C288 1.367 . S
C289 C297 1.433 . S
C290 H286 0.929 . S
C290 C292 1.378 . S
C290 C294 1.350 . S
C291 C294 1.463 . S
C291 C296 1.350 . S
C291 N299 1.427 . S
C292 H283 0.930 . S
C292 C290 1.378 . S
C292 C293 1.367 . S
C293 C292 1.367 . S
C293 C295 1.433 . S
C294 C290 1.350 . S
C294 C291 1.463 . S
C294 N298 1.427 . S
C295 H285 0.929 . S
C295 C293 1.433 . S
C295 N298 1.384 . S
C296 H287 0.929 . S
C296 C288 1.378 . S
C296 C291 1.350 . S
C297 H284 0.929 . S
C297 C289 1.433 . S
C297 N299 1.384 . S
N298 C294 1.427 . S
N298 C295 1.384 . S
N299 C291 1.427 . S
N299 C297 1.384 . S
H300 C306 0.930 . S
H301 C310 0.930 . S
H302 C315 0.929 . S
H303 C313 0.929 . S
H304 C308 0.929 . S
H305 C314 0.929 . S
C306 H300 0.930 . S
C306 C307 1.367 . S
C306 C314 1.378 . S
C307 C306 1.367 . S
C307 C315 1.433 . S
C308 H304 0.929 . S
C308 C310 1.378 . S
C308 C312 1.350 . S
C309 C312 1.463 . S
C309 C314 1.350 . S
C309 N317 1.427 . S
C310 H301 0.930 . S
C310 C308 1.378 . S
C310 C311 1.367 . S
C311 C310 1.367 . S
C311 C313 1.433 . S
C312 C308 1.350 . S
C312 C309 1.463 . S
C312 N316 1.427 . S
C313 H303 0.929 . S
C313 C311 1.433 . S
C313 N316 1.384 . S
C314 H305 0.929 . S
C314 C306 1.378 . S
C314 C309 1.350 . S
C315 H302 0.929 . S
C315 C307 1.433 . S
C315 N317 1.384 . S
N316 C312 1.427 . S
N316 C313 1.384 . S
N317 C309 1.427 . S
N317 C315 1.384 . S
H318 C324 0.930 . S
H319 C328 0.930 . S
H320 C333 0.929 . S
H321 C331 0.929 . S
H322 C326 0.929 . S
H323 C332 0.929 . S
C324 H318 0.930 . S
C324 C325 1.367 . S
C324 C332 1.378 . S
C325 C324 1.367 . S
C325 C333 1.433 . S
C326 H322 0.929 . S
C326 C328 1.378 . S
C326 C330 1.350 . S
C327 C330 1.463 . S
C327 C332 1.350 . S
C327 N335 1.427 . S
C328 H319 0.930 . S
C328 C326 1.378 . S
C328 C329 1.367 . S
C329 C328 1.367 . S
C329 C331 1.433 . S
C330 C326 1.350 . S
C330 C327 1.463 . S
C330 N334 1.427 . S
C331 H321 0.929 . S
C331 C329 1.433 . S
C331 N334 1.384 . S
C332 H323 0.929 . S
C332 C324 1.378 . S
C332 C327 1.350 . S
C333 H320 0.929 . S
C333 C325 1.433 . S
C333 N335 1.384 . S
N334 C330 1.427 . S
N334 C331 1.384 . S
N335 C327 1.427 . S
N335 C333 1.384 . S
C127 C61 0.507 1_545 S
C131 C10 0.507 . S
C145 C91 0.590 . S
C149 C40 0.591 . S
C163 C70 0.693 1_565 S
C167 C1 0.694 . S
C181 C31 0.748 . S
C185 C100 0.747 . S
C199 N44 1.094 . S
C203 N6 1.189 . S
C217 N36 1.488 . S
C221 C87 1.463 1_556 S
C235 C117 1.532 . S
C239 C76 1.552 . S
C253 C106 1.320 . S
C257 N14 1.220 . S
C271 N74 1.188 . S
C275 N96 1.103 . S
C289 C16 1.454 . S
C293 N104 1.488 . S
C307 C46 1.532 . S
C311 C27 1.551 . S
C325 N66 1.229 . S
C329 C57 1.310 . S
