# Generated by pormake.
# Topology unf, (4)-cn, num edge types: 1
# Building blocks:
#     Node 0, Type 0, BuildingBlock: ICAMEG_clean_sbu_1, # of connection points: 4
#     Node 1, Type 0, BuildingBlock: ICAMEG_clean_sbu_1, # of connection points: 4
#     Node 2, Type 0, BuildingBlock: ICAMEG_clean_sbu_1, # of connection points: 4
#     Node 3, Type 0, BuildingBlock: ICAMEG_clean_sbu_1, # of connection points: 4
#     Node 4, Type 0, BuildingBlock: ICAMEG_clean_sbu_1, # of connection points: 4
#     Node 5, Type 0, BuildingBlock: ICAMEG_clean_sbu_1, # of connection points: 4
#     Node 6, Type 0, BuildingBlock: ICAMEG_clean_sbu_1, # of connection points: 4
#     Node 7, Type 0, BuildingBlock: ICAMEG_clean_sbu_1, # of connection points: 4
#     Node 8, Type 0, BuildingBlock: ICAMEG_clean_sbu_1, # of connection points: 4
#     Node 9, Type 0, BuildingBlock: ICAMEG_clean_sbu_1, # of connection points: 4
#     Node 10, Type 0, BuildingBlock: ICAMEG_clean_sbu_1, # of connection points: 4
#     Node 11, Type 0, BuildingBlock: ICAMEG_clean_sbu_1, # of connection points: 4
#     Edge 12, Type (0, 0), BuildingBlock: UVAHIK_clean_linker_0, # of connection points: 2
#     Edge 13, Type (0, 0), BuildingBlock: UVAHIK_clean_linker_0, # of connection points: 2
#     Edge 14, Type (0, 0), BuildingBlock: UVAHIK_clean_linker_0, # of connection points: 2
#     Edge 15, Type (0, 0), BuildingBlock: UVAHIK_clean_linker_0, # of connection points: 2
#     Edge 16, Type (0, 0), BuildingBlock: UVAHIK_clean_linker_0, # of connection points: 2
#     Edge 17, Type (0, 0), BuildingBlock: UVAHIK_clean_linker_0, # of connection points: 2
#     Edge 18, Type (0, 0), BuildingBlock: UVAHIK_clean_linker_0, # of connection points: 2
#     Edge 19, Type (0, 0), BuildingBlock: UVAHIK_clean_linker_0, # of connection points: 2
#     Edge 20, Type (0, 0), BuildingBlock: UVAHIK_clean_linker_0, # of connection points: 2
#     Edge 21, Type (0, 0), BuildingBlock: UVAHIK_clean_linker_0, # of connection points: 2
#     Edge 22, Type (0, 0), BuildingBlock: UVAHIK_clean_linker_0, # of connection points: 2
#     Edge 23, Type (0, 0), BuildingBlock: UVAHIK_clean_linker_0, # of connection points: 2
#     Edge 24, Type (0, 0), BuildingBlock: UVAHIK_clean_linker_0, # of connection points: 2
#     Edge 25, Type (0, 0), BuildingBlock: UVAHIK_clean_linker_0, # of connection points: 2
#     Edge 26, Type (0, 0), BuildingBlock: UVAHIK_clean_linker_0, # of connection points: 2
#     Edge 27, Type (0, 0), BuildingBlock: UVAHIK_clean_linker_0, # of connection points: 2
#     Edge 28, Type (0, 0), BuildingBlock: UVAHIK_clean_linker_0, # of connection points: 2
#     Edge 29, Type (0, 0), BuildingBlock: UVAHIK_clean_linker_0, # of connection points: 2
#     Edge 30, Type (0, 0), BuildingBlock: UVAHIK_clean_linker_0, # of connection points: 2
#     Edge 31, Type (0, 0), BuildingBlock: UVAHIK_clean_linker_0, # of connection points: 2
#     Edge 32, Type (0, 0), BuildingBlock: UVAHIK_clean_linker_0, # of connection points: 2
#     Edge 33, Type (0, 0), BuildingBlock: UVAHIK_clean_linker_0, # of connection points: 2
#     Edge 34, Type (0, 0), BuildingBlock: UVAHIK_clean_linker_0, # of connection points: 2
#     Edge 35, Type (0, 0), BuildingBlock: UVAHIK_clean_linker_0, # of connection points: 2
# Relax obj value: 0.235
# Max RMSD: 0.193
# Mean RMSD: 0.193
data_MOF--net-unf--node1-ICAMEG_clean_sbu_1--edge1-UVAHIK_clean_linker_0
_symmetry_space_group_name_H-M    P1
_symmetry_Int_Tables_number       1
_symmetry_cell_setting            triclinic
loop_
_symmetry_equiv_pos_as_xyz
'x, y, z'
_cell_length_a     48.870212
_cell_length_b     48.846426
_cell_length_c     52.372445
_cell_angle_alpha  90.009482
_cell_angle_beta   89.989816
_cell_angle_gamma 120.01988
loop_
_atom_site_label
_atom_site_type_symbol
_atom_site_fract_x
_atom_site_fract_y
_atom_site_fract_z
_atom_type_partial_charge
Co0 Co 0.14343 0.4312 0.05698 0.0
Co1 Co 0.09608 0.4079 0.11046 0.0
O2 O 0.1363 0.42143 0.09328 0.0
C3 C 0.16334 0.38348 0.06324 0.0
O4 O 0.13573 0.36463 0.07368 0.0
C5 C 0.14536 0.45915 0.14293 0.0
O6 O 0.15833 0.47587 0.12226 0.0
O7 O 0.09315 0.44435 0.09586 0.0
O8 O 0.11665 0.45131 0.05763 0.0
H9 H 0.98276 0.38136 0.11632 0.0
H10 H 0.19867 0.45018 0.09092 0.0
O11 O 0.1702 0.41094 0.05558 0.0
H12 H 0.21358 0.54952 0.05381 0.0
H13 H 0.20969 0.46646 0.97715 0.0
H14 H 0.10344 0.42831 0.01323 0.0
H15 H 0.16729 0.49835 0.04211 0.0
H16 H 0.19977 0.45443 0.0231 0.0
O17 O 0.11936 0.43308 0.14141 0.0
H18 H 0.03353 0.39822 0.09467 0.0
H19 H 0.07321 0.38855 0.16388 0.0
H20 H 0.11238 0.4403 0.96725 0.0
H21 H 0.24549 0.50078 0.10293 0.0
H22 H 0.16583 0.45952 0.94891 0.0
H23 H 0.25312 0.55094 0.0844 0.0
O24 O 0.1053 0.39027 0.04769 0.0
H25 H 0.15043 0.35511 0.15197 0.0
H26 H 0.05072 0.33862 0.11462 0.0
H27 H 0.05375 0.29283 0.1308 0.0
H28 H 0.10388 0.30094 0.14971 0.0
H29 H 0.14647 0.40017 0.1353 0.0
H30 H 0.02293 0.37182 0.18634 0.0
H31 H 0.97721 0.36804 0.16251 0.0
O32 O 0.07219 0.38176 0.08039 0.0
C33 C 0.09946 0.45602 0.0733 0.0
C34 C 0.0025 0.38292 0.12692 0.0
C35 C 0.02506 0.37762 0.16622 0.0
N36 N 0.05636 0.39446 0.12799 0.0
C37 C 0.03132 0.39243 0.11475 0.0
C38 C 0.05353 0.38725 0.15342 0.0
C39 C 0.99941 0.37547 0.15283 0.0
C40 C 0.20199 0.47187 0.08256 0.0
N41 N 0.18029 0.4713 0.06579 0.0
C42 C 0.22848 0.50047 0.08953 0.0
C43 C 0.23271 0.5286 0.07916 0.0
C44 C 0.21051 0.52783 0.06203 0.0
C45 C 0.18428 0.49879 0.05554 0.0
C46 C 0.18631 0.45815 0.98492 0.0
C47 C 0.12681 0.43684 0.00544 0.0
C48 C 0.18053 0.45123 0.01091 0.0
N49 N 0.1511 0.44088 0.02087 0.0
C50 C 0.13171 0.4435 0.97936 0.0
C51 C 0.16169 0.45426 0.96909 0.0
C52 C 0.07808 0.37537 0.05814 0.0
C53 C 0.12843 0.35128 0.14383 0.0
C54 C 0.07264 0.34234 0.12269 0.0
C55 C 0.0742 0.31632 0.1319 0.0
C56 C 0.10232 0.32089 0.14253 0.0
N57 N 0.09833 0.37209 0.12407 0.0
C58 C 0.126 0.37674 0.13444 0.0
Co59 Co 0.57042 0.71384 0.05331 0.0
Co60 Co 0.59243 0.69112 0.10846 0.0
O61 O 0.57952 0.71761 0.0899 0.0
C62 C 0.61856 0.78134 0.05939 0.0
O63 O 0.63437 0.7725 0.07423 0.0
C64 C 0.54087 0.69058 0.13986 0.0
O65 O 0.525 0.68805 0.11893 0.0
O66 O 0.55631 0.65139 0.09398 0.0
O67 O 0.54921 0.66694 0.05536 0.0
H68 H 0.61819 0.60408 0.11786 0.0
H69 H 0.55255 0.75275 0.08496 0.0
O70 O 0.59204 0.76087 0.05005 0.0
H71 H 0.45256 0.66833 0.04876 0.0
H72 H 0.53731 0.74231 0.97108 0.0
H73 H 0.57308 0.67438 0.01136 0.0
H74 H 0.50316 0.6712 0.03835 0.0
H75 H 0.54853 0.74618 0.01727 0.0
O76 O 0.56651 0.6898 0.13871 0.0
H77 H 0.60207 0.63763 0.09465 0.0
H78 H 0.61067 0.68895 0.16253 0.0
H79 H 0.56186 0.66954 0.96517 0.0
H80 H 0.50253 0.75099 0.09566 0.0
H81 H 0.54385 0.70368 0.94472 0.0
H82 H 0.45206 0.70847 0.07757 0.0
O83 O 0.61097 0.71536 0.04517 0.0
H84 H 0.6442 0.79887 0.14905 0.0
H85 H 0.6616 0.71522 0.11381 0.0
H86 H 0.70698 0.7643 0.13011 0.0
H87 H 0.69841 0.80654 0.14796 0.0
H88 H 0.59958 0.74961 0.13222 0.0
H89 H 0.62665 0.65579 0.18652 0.0
H90 H 0.63059 0.61304 0.16415 0.0
O91 O 0.61933 0.6926 0.07925 0.0
C92 C 0.54441 0.64545 0.0715 0.0
C93 C 0.61655 0.62262 0.12783 0.0
C94 C 0.62125 0.6516 0.16637 0.0
N95 N 0.60532 0.66517 0.12722 0.0
C96 C 0.60745 0.64171 0.11478 0.0
C97 C 0.61204 0.67022 0.1527 0.0
C98 C 0.62349 0.62765 0.1538 0.0
C99 C 0.53072 0.73438 0.07681 0.0
N100 N 0.53077 0.71214 0.06102 0.0
C101 C 0.50246 0.73342 0.08303 0.0
C102 C 0.47414 0.70952 0.07291 0.0
C103 C 0.4744 0.68696 0.05677 0.0
C104 C 0.5031 0.68863 0.05102 0.0
C105 C 0.5451 0.72728 0.97977 0.0
C106 C 0.56508 0.6892 1.00264 0.0
C107 C 0.55156 0.72941 0.00591 0.0
N108 N 0.56127 0.7104 0.01703 0.0
C109 C 0.55884 0.68641 0.97646 0.0
C110 C 0.54877 0.70559 0.965 0.0
C111 C 0.62587 0.70374 0.05664 0.0
C112 C 0.64823 0.78061 0.14138 0.0
C113 C 0.65769 0.73353 0.12139 0.0
C114 C 0.68347 0.76125 0.13069 0.0
C115 C 0.67864 0.78492 0.14073 0.0
N116 N 0.62792 0.72944 0.12211 0.0
C117 C 0.62302 0.75257 0.13193 0.0
Co118 Co 0.28701 0.85757 0.05729 0.0
Co119 Co 0.3142 0.90565 0.10986 0.0
O120 O 0.28543 0.8654 0.09353 0.0
C121 C 0.21946 0.83819 0.06412 0.0
O122 O 0.2284 0.86627 0.07371 0.0
C123 C 0.31389 0.85608 0.14319 0.0
O124 O 0.31831 0.8432 0.12275 0.0
O125 O 0.35196 0.90494 0.09578 0.0
O126 O 0.33405 0.88406 0.05698 0.0
H127 H 0.40687 0.01625 0.11433 0.0
H128 H 0.25158 0.80302 0.09207 0.0
O129 O 0.2399 0.83097 0.0568 0.0
H130 H 0.33412 0.78659 0.05311 0.0
H131 H 0.2533 0.79015 0.97806 0.0
H132 H 0.32276 0.89691 0.01283 0.0
H133 H 0.32934 0.83294 0.04147 0.0
H134 H 0.25269 0.80073 0.02405 0.0
O135 O 0.31402 0.88216 0.14139 0.0
H136 H 0.37027 0.9657 0.09341 0.0
H137 H 0.3191 0.93071 0.16262 0.0
H138 H 0.32431 0.88731 0.96677 0.0
H139 H 0.25531 0.75616 0.10405 0.0
H140 H 0.2894 0.8336 0.9491 0.0
H141 H 0.29688 0.74777 0.08457 0.0
O142 O 0.28433 0.89579 0.04828 0.0
H143 H 0.20766 0.85994 0.15181 0.0
H144 H 0.29483 0.95463 0.11134 0.0
H145 H 0.24801 0.95621 0.12687 0.0
H146 H 0.20403 0.90865 0.14734 0.0
H147 H 0.25476 0.85927 0.13582 0.0
H148 H 0.35528 0.98081 0.18436 0.0
H149 H 0.39949 0.02406 0.16015 0.0
O150 O 0.3142 0.92976 0.07897 0.0
C151 C 0.35656 0.89954 0.07271 0.0
C152 C 0.38768 0.9976 0.12508 0.0
C153 C 0.35875 0.97769 0.16439 0.0
N154 N 0.34257 0.94527 0.12675 0.0
C155 C 0.36685 0.96893 0.11332 0.0
C156 C 0.33841 0.94933 0.152 0.0
C157 C 0.38354 0.00196 0.15079 0.0
C158 C 0.26952 0.79935 0.0833 0.0
N159 N 0.29016 0.82065 0.06603 0.0
C160 C 0.27161 0.77285 0.09025 0.0
C161 C 0.29498 0.76819 0.07936 0.0
C162 C 0.31591 0.78999 0.06172 0.0
C163 C 0.31316 0.81625 0.05527 0.0
C164 C 0.26867 0.81364 0.98554 0.0
C165 C 0.30763 0.87343 0.00532 0.0
C166 C 0.26839 0.81978 0.01155 0.0
N167 N 0.28786 0.84935 0.02115 0.0
C168 C 0.30855 0.86816 0.97921 0.0
C169 C 0.28893 0.83803 0.9693 0.0
C170 C 0.29994 0.92365 0.0575 0.0
C171 C 0.22672 0.88086 0.14302 0.0
C172 C 0.27578 0.93381 0.12018 0.0
C173 C 0.24934 0.93487 0.12897 0.0
C174 C 0.22468 0.90818 0.14047 0.0
N175 N 0.27767 0.90697 0.12284 0.0
C176 C 0.25353 0.88067 0.13402 0.0
Co177 Co 0.57143 0.85889 0.45418 0.0
Co178 Co 0.59202 0.90403 0.3995 0.0
O179 O 0.57996 0.86446 0.41753 0.0
C180 C 0.61902 0.83895 0.44741 0.0
O181 O 0.63512 0.86386 0.43285 0.0
C182 C 0.54128 0.85298 0.36762 0.0
O183 O 0.52505 0.83968 0.38843 0.0
O184 O 0.55499 0.90591 0.41394 0.0
O185 O 0.55072 0.88511 0.45296 0.0
H186 H 0.61434 0.0159 0.39135 0.0
H187 H 0.55219 0.8022 0.42207 0.0
O188 O 0.59249 0.83292 0.45669 0.0
H189 H 0.45346 0.78769 0.46007 0.0
H190 H 0.539 0.79677 0.53618 0.0
H191 H 0.57596 0.90113 0.49668 0.0
H192 H 0.50461 0.83496 0.47016 0.0
H193 H 0.54928 0.80426 0.48987 0.0
O194 O 0.56688 0.87945 0.36894 0.0
H195 H 0.59943 0.96613 0.414 0.0
H196 H 0.6105 0.92573 0.34572 0.0
H197 H 0.5657 0.89462 0.54301 0.0
H198 H 0.5016 0.75438 0.41166 0.0
H199 H 0.54709 0.84213 0.56306 0.0
H200 H 0.45176 0.74696 0.43066 0.0
O201 O 0.61248 0.89753 0.46191 0.0
H202 H 0.64737 0.85221 0.35801 0.0
H203 H 0.6609 0.95087 0.39545 0.0
H204 H 0.70746 0.94937 0.37917 0.0
H205 H 0.70085 0.89979 0.36022 0.0
H206 H 0.6015 0.85461 0.3748 0.0
H207 H 0.62532 0.97499 0.32228 0.0
H208 H 0.6274 0.02056 0.34513 0.0
O209 O 0.61813 0.92946 0.42908 0.0
C210 C 0.5445 0.90081 0.43686 0.0
C211 C 0.61351 0.99621 0.38117 0.0
C212 C 0.61962 0.97323 0.3424 0.0
N213 N 0.60398 0.94299 0.3812 0.0
C214 C 0.60508 0.96796 0.3939 0.0
C215 C 0.61107 0.94534 0.35576 0.0
C216 C 0.62081 0.9988 0.35524 0.0
C217 C 0.53063 0.79896 0.43061 0.0
N218 N 0.53135 0.8213 0.44674 0.0
C219 C 0.50204 0.77192 0.42456 0.0
C220 C 0.47408 0.7678 0.43519 0.0
C221 C 0.47502 0.79067 0.45166 0.0
C222 C 0.50403 0.81744 0.45723 0.0
C223 C 0.54705 0.81974 0.52766 0.0
C224 C 0.56769 0.87817 0.50523 0.0
C225 C 0.55297 0.82414 0.50146 0.0
N226 N 0.56301 0.85305 0.49056 0.0
C227 C 0.562 0.87465 0.53149 0.0
C228 C 0.55158 0.8452 0.54273 0.0
C229 C 0.62607 0.92451 0.45106 0.0
C230 C 0.65054 0.87398 0.36614 0.0
C231 C 0.65782 0.92916 0.38733 0.0
C232 C 0.68428 0.92849 0.37808 0.0
C233 C 0.68055 0.90067 0.36743 0.0
N234 N 0.62844 0.90291 0.38596 0.0
C235 C 0.62462 0.87554 0.37557 0.0
Co236 Co 0.14388 0.71133 0.45493 0.0
Co237 Co 0.09824 0.68955 0.40029 0.0
O238 O 0.138 0.7155 0.41853 0.0
C239 C 0.16375 0.77893 0.4494 0.0
O240 O 0.13883 0.77033 0.43492 0.0
C241 C 0.14842 0.68836 0.36837 0.0
O242 O 0.16144 0.68499 0.38917 0.0
O243 O 0.09426 0.64947 0.4143 0.0
O244 O 0.11772 0.6645 0.45268 0.0
H245 H 0.98478 0.60377 0.39156 0.0
H246 H 0.20023 0.75001 0.42278 0.0
O247 O 0.16976 0.75828 0.45838 0.0
H248 H 0.21518 0.66451 0.45737 0.0
H249 H 0.2069 0.7385 0.53637 0.0
H250 H 0.10227 0.67185 0.4971 0.0
H251 H 0.16804 0.66797 0.46878 0.0
H252 H 0.19882 0.74289 0.4904 0.0
O253 O 0.12227 0.68812 0.36968 0.0
H254 H 0.03491 0.63662 0.41443 0.0
H255 H 0.07726 0.68798 0.34649 0.0
H256 H 0.10937 0.6665 0.54308 0.0
H257 H 0.24791 0.74765 0.41107 0.0
H258 H 0.162 0.69999 0.56302 0.0
H259 H 0.25555 0.70459 0.42835 0.0
O260 O 0.10527 0.71328 0.46381 0.0
H261 H 0.15472 0.79753 0.36013 0.0
H262 H 0.05381 0.71453 0.39611 0.0
H263 H 0.05794 0.76403 0.38039 0.0
H264 H 0.10868 0.80594 0.36217 0.0
H265 H 0.14968 0.74787 0.37638 0.0
H266 H 0.02766 0.65552 0.32285 0.0
H267 H 0.98093 0.61311 0.34542 0.0
O268 O 0.07349 0.69119 0.42995 0.0
C269 C 0.10051 0.64323 0.43657 0.0
C270 C 0.00498 0.62216 0.38151 0.0
C271 C 0.02906 0.65117 0.34294 0.0
N272 N 0.05904 0.66413 0.38181 0.0
C273 C 0.03343 0.64086 0.39436 0.0
C274 C 0.05714 0.66939 0.35641 0.0
C275 C 0.00284 0.62741 0.35562 0.0
C276 C 0.20357 0.73141 0.43059 0.0
N277 N 0.18142 0.70919 0.44648 0.0
C278 C 0.23054 0.73011 0.4238 0.0
C279 C 0.23478 0.7059 0.43346 0.0
C280 C 0.21211 0.68338 0.44971 0.0
C281 C 0.18541 0.68539 0.45603 0.0
C282 C 0.18387 0.72374 0.5279 0.0
C283 C 0.12529 0.68639 0.5056 0.0
C284 C 0.17913 0.72617 0.50189 0.0
N285 N 0.15015 0.7075 0.49104 0.0
C286 C 0.12914 0.68331 0.53166 0.0
C287 C 0.15867 0.70212 0.54284 0.0
C288 C 0.0786 0.70212 0.45265 0.0
C289 C 0.13246 0.77941 0.36795 0.0
C290 C 0.076 0.73269 0.38835 0.0
C291 C 0.07818 0.76064 0.37939 0.0
C292 C 0.10664 0.78413 0.36915 0.0
N293 N 0.10142 0.7282 0.3871 0.0
C294 C 0.1294 0.75114 0.37708 0.0
Co295 Co 0.28508 0.42635 0.45274 0.0
Co296 Co 0.31137 0.40625 0.39907 0.0
O297 O 0.2835 0.41837 0.41617 0.0
C298 C 0.21722 0.37967 0.44517 0.0
O299 O 0.22555 0.36051 0.43469 0.0
C300 C 0.31238 0.45733 0.36708 0.0
O301 O 0.31597 0.47375 0.38791 0.0
O302 O 0.34975 0.44328 0.41412 0.0
O303 O 0.33201 0.44589 0.45309 0.0
H304 H 0.4012 0.38417 0.39337 0.0
H305 H 0.25081 0.44809 0.41921 0.0
O306 O 0.23809 0.40681 0.45319 0.0
H307 H 0.33473 0.54454 0.46031 0.0
H308 H 0.25219 0.45797 0.53352 0.0
H309 H 0.31992 0.41989 0.49656 0.0
H310 H 0.32862 0.4924 0.47018 0.0
H311 H 0.25167 0.4487 0.48717 0.0
O312 O 0.31268 0.43144 0.36832 0.0
H313 H 0.36565 0.39894 0.415 0.0
H314 H 0.31623 0.38798 0.34559 0.0
H315 H 0.32135 0.42907 0.54296 0.0
H316 H 0.25583 0.4997 0.40901 0.0
H317 H 0.28731 0.44826 0.56173 0.0
H318 H 0.29811 0.54841 0.42956 0.0
O319 O 0.28113 0.3846 0.46047 0.0
H320 H 0.20501 0.35074 0.3563 0.0
H321 H 0.28965 0.33743 0.39488 0.0
H322 H 0.242 0.29082 0.37807 0.0
H323 H 0.19928 0.29733 0.35854 0.0
H324 H 0.2529 0.39666 0.37357 0.0
H325 H 0.3514 0.3733 0.32317 0.0
H326 H 0.3942 0.37123 0.34711 0.0
O327 O 0.30973 0.38002 0.42896 0.0
C328 C 0.35445 0.45275 0.43733 0.0
C329 C 0.38264 0.38498 0.38273 0.0
C330 C 0.35472 0.37893 0.34332 0.0
N331 N 0.3389 0.39437 0.38159 0.0
C332 C 0.36241 0.39331 0.39488 0.0
C333 C 0.33495 0.38739 0.35611 0.0
C334 C 0.37871 0.37774 0.35677 0.0
C335 C 0.26905 0.46914 0.42844 0.0
N336 N 0.28936 0.46722 0.44531 0.0
C337 C 0.27187 0.49831 0.42249 0.0
C338 C 0.29564 0.52564 0.43399 0.0
C339 C 0.31622 0.52349 0.45122 0.0
C340 C 0.31273 0.49391 0.45666 0.0
C341 C 0.26719 0.44968 0.52556 0.0
C342 C 0.30518 0.42842 0.50456 0.0
C343 C 0.26695 0.44433 0.49934 0.0
N344 N 0.28594 0.43401 0.48915 0.0
C345 C 0.30603 0.4335 0.53086 0.0
C346 C 0.2869 0.44423 0.54138 0.0
C347 C 0.29533 0.37139 0.45034 0.0
C348 C 0.2235 0.34762 0.36468 0.0
C349 C 0.27115 0.34046 0.38648 0.0
C350 C 0.24424 0.31398 0.37694 0.0
C351 C 0.22029 0.31765 0.36598 0.0
N352 N 0.2742 0.36981 0.38507 0.0
C353 C 0.25076 0.37356 0.37441 0.0
Co354 Co 0.8578 0.56859 0.9513 0.0
Co355 Co 0.90472 0.59131 0.8976 0.0
O356 O 0.86466 0.5781 0.91495 0.0
C357 C 0.83797 0.6164 0.94508 0.0
O358 O 0.86551 0.63517 0.9345 0.0
C359 C 0.85506 0.54003 0.8654 0.0
O360 O 0.84229 0.52338 0.88613 0.0
O361 O 0.90747 0.55477 0.91221 0.0
O362 O 0.88447 0.54837 0.95062 0.0
H363 H 0.01778 0.6171 0.89122 0.0
H364 H 0.80235 0.54948 0.91759 0.0
O365 O 0.83112 0.58895 0.95275 0.0
H366 H 0.78741 0.45033 0.95511 0.0
H367 H 0.79222 0.53406 0.0315 0.0
H368 H 0.89813 0.57179 0.99488 0.0
H369 H 0.83387 0.50152 0.9665 0.0
H370 H 0.80175 0.5457 0.98548 0.0
O371 O 0.8811 0.56607 0.86677 0.0
H372 H 0.96723 0.60067 0.91312 0.0
H373 H 0.92725 0.6103 0.84406 0.0
H374 H 0.88958 0.5602 0.04094 0.0
H375 H 0.75536 0.49886 0.9059 0.0
H376 H 0.8363 0.54118 0.05955 0.0
H377 H 0.74772 0.4488 0.92464 0.0
O378 O 0.89606 0.60955 0.96029 0.0
H379 H 0.85074 0.64454 0.8562 0.0
H380 H 0.95039 0.6605 0.89329 0.0
H381 H 0.94763 0.70642 0.87707 0.0
H382 H 0.89753 0.69859 0.85829 0.0
H383 H 0.85444 0.59935 0.8729 0.0
H384 H 0.9773 0.62661 0.82137 0.0
H385 H 0.02305 0.63019 0.845 0.0
O386 O 0.92893 0.61751 0.92755 0.0
C387 C 0.90137 0.54333 0.93486 0.0
C388 C 0.99802 0.61562 0.88071 0.0
C389 C 0.97528 0.62091 0.8415 0.0
N390 N 0.94427 0.60443 0.87989 0.0
C391 C 0.96933 0.60635 0.89302 0.0
C392 C 0.94694 0.61152 0.85443 0.0
C393 C 0.00095 0.62294 0.85478 0.0
C394 C 0.79902 0.52784 0.92604 0.0
N395 N 0.82081 0.52847 0.94275 0.0
C396 C 0.77244 0.49923 0.91926 0.0
C397 C 0.7682 0.47114 0.92974 0.0
C398 C 0.79049 0.47199 0.94681 0.0
C399 C 0.81681 0.50103 0.95311 0.0
C400 C 0.81552 0.54228 0.02361 0.0
C401 C 0.87483 0.56335 1.00279 0.0
C402 C 0.82108 0.54898 0.99758 0.0
N403 N 0.85042 0.5592 0.98747 0.0
C404 C 0.87015 0.55691 0.02891 0.0
C405 C 0.84026 0.54627 0.03934 0.0
C406 C 0.92323 0.62421 0.94976 0.0
C407 C 0.87273 0.64826 0.86428 0.0
C408 C 0.92848 0.6569 0.88527 0.0
C409 C 0.92707 0.68299 0.87603 0.0
C410 C 0.89897 0.67857 0.86549 0.0
N411 N 0.90266 0.62722 0.88397 0.0
C412 C 0.87501 0.62272 0.87368 0.0
Co413 Co 0.43213 0.28875 0.95404 0.0
Co414 Co 0.40964 0.31185 0.89949 0.0
O415 O 0.42322 0.28561 0.91749 0.0
C416 C 0.38541 0.22085 0.94729 0.0
O417 O 0.36772 0.22934 0.93454 0.0
C418 C 0.46159 0.31387 0.86771 0.0
O419 O 0.47783 0.317 0.88854 0.0
O420 O 0.44549 0.3516 0.91421 0.0
O421 O 0.45198 0.33561 0.95285 0.0
H422 H 0.38221 0.39786 0.89159 0.0
H423 H 0.45216 0.25226 0.92144 0.0
O424 O 0.41205 0.24173 0.95615 0.0
H425 H 0.55039 0.3377 0.95914 0.0
H426 H 0.46616 0.2596 0.03547 0.0
H427 H 0.4278 0.32625 0.99683 0.0
H428 H 0.49886 0.33264 0.96965 0.0
H429 H 0.45518 0.25668 0.98927 0.0
O430 O 0.43558 0.31392 0.86901 0.0
H431 H 0.39908 0.36451 0.91416 0.0
H432 H 0.39105 0.31451 0.84563 0.0
H433 H 0.43873 0.33011 0.04304 0.0
H434 H 0.50314 0.2562 0.91064 0.0
H435 H 0.45805 0.29661 0.06266 0.0
H436 H 0.55274 0.29925 0.92948 0.0
O437 O 0.39085 0.2856 0.96233 0.0
H438 H 0.35894 0.20443 0.8584 0.0
H439 H 0.34033 0.28703 0.89425 0.0
H440 H 0.29529 0.23776 0.87784 0.0
H441 H 0.30446 0.19604 0.85969 0.0
H442 H 0.40322 0.25388 0.8753 0.0
H443 H 0.37433 0.3475 0.82227 0.0
H444 H 0.36972 0.38947 0.84529 0.0
O445 O 0.3827 0.30953 0.92896 0.0
C446 C 0.45681 0.3573 0.93689 0.0
C447 C 0.38413 0.37966 0.88134 0.0
C448 C 0.37976 0.35142 0.84243 0.0
N449 N 0.39615 0.33764 0.88124 0.0
C450 C 0.39366 0.36067 0.89403 0.0
C451 C 0.38939 0.33291 0.85574 0.0
C452 C 0.37715 0.37495 0.85536 0.0
C453 C 0.47361 0.27085 0.92992 0.0
N454 N 0.47253 0.29217 0.94619 0.0
C455 C 0.50242 0.27305 0.92365 0.0
C456 C 0.53024 0.29724 0.93418 0.0
C457 C 0.52894 0.31886 0.9508 0.0
C458 C 0.49971 0.31596 0.9566 0.0
C459 C 0.45778 0.27434 0.02714 0.0
C460 C 0.43636 0.31171 0.00519 0.0
C461 C 0.45145 0.27273 1.001 0.0
N462 N 0.44102 0.2914 0.99034 0.0
C463 C 0.44243 0.31395 0.03139 0.0
C464 C 0.45324 0.29513 0.04238 0.0
C465 C 0.37593 0.2975 0.95129 0.0
C466 C 0.35464 0.22246 0.8662 0.0
C467 C 0.3445 0.26895 0.88652 0.0
C468 C 0.31891 0.24113 0.87717 0.0
C469 C 0.32408 0.21775 0.86697 0.0
N470 N 0.37443 0.27344 0.88569 0.0
C471 C 0.37966 0.2506 0.87571 0.0
Co472 Co 0.71386 0.14405 0.952 0.0
Co473 Co 0.68623 0.09771 0.89836 0.0
O474 O 0.71466 0.13763 0.91535 0.0
C475 C 0.78138 0.16451 0.94342 0.0
O476 O 0.77245 0.13693 0.93285 0.0
C477 C 0.68496 0.14801 0.86682 0.0
O478 O 0.68204 0.16103 0.8878 0.0
O479 O 0.6483 0.09657 0.91409 0.0
O480 O 0.6669 0.11702 0.9529 0.0
H481 H 0.59585 0.98593 0.89318 0.0
H482 H 0.74802 0.20005 0.91838 0.0
O483 O 0.76093 0.17113 0.95188 0.0
H484 H 0.66552 0.21357 0.96091 0.0
H485 H 0.74882 0.20863 0.03272 0.0
H486 H 0.6795 0.10292 0.99606 0.0
H487 H 0.67119 0.16719 0.9703 0.0
H488 H 0.74843 0.19978 0.98631 0.0
O489 O 0.68447 0.12171 0.86788 0.0
H490 H 0.6321 0.03616 0.91467 0.0
H491 H 0.6801 0.07465 0.84473 0.0
H492 H 0.67896 0.11079 0.04253 0.0
H493 H 0.74343 0.24699 0.90864 0.0
H494 H 0.7138 0.16396 0.06115 0.0
H495 H 0.70186 0.25392 0.92992 0.0
O496 O 0.71743 0.10594 0.95938 0.0
H497 H 0.79169 0.14814 0.85413 0.0
H498 H 0.70743 0.0503 0.8933 0.0
H499 H 0.75456 0.05108 0.87563 0.0
H500 H 0.79709 0.10024 0.85581 0.0
H501 H 0.74432 0.14643 0.87226 0.0
H502 H 0.64421 0.0249 0.82243 0.0
H503 H 0.60177 0.98006 0.84671 0.0
O504 O 0.68826 0.07298 0.92794 0.0
C505 C 0.64412 0.10145 0.93741 0.0
C506 C 0.61425 0.0053 0.88238 0.0
C507 C 0.64136 0.02719 0.84268 0.0
N508 N 0.65816 0.05836 0.88098 0.0
C509 C 0.63487 0.0338 0.89446 0.0
C510 C 0.66153 0.05536 0.85539 0.0
C511 C 0.61757 0.00203 0.85631 0.0
C512 C 0.73009 0.20307 0.92792 0.0
N513 N 0.70994 0.18093 0.94493 0.0
C514 C 0.72751 0.22962 0.92224 0.0
C515 C 0.70414 0.23346 0.93414 0.0
C516 C 0.68372 0.21081 0.95151 0.0
C517 C 0.68696 0.18453 0.95668 0.0
C518 C 0.73348 0.18537 0.02483 0.0
C519 C 0.6946 0.12617 1.00399 0.0
C520 C 0.73321 0.1802 0.99857 0.0
N521 N 0.71378 0.15092 0.98847 0.0
C522 C 0.69425 0.13046 0.03033 0.0
C523 C 0.71382 0.1603 0.04077 0.0
C524 C 0.70289 0.07855 0.94919 0.0
C525 C 0.77327 0.12654 0.86264 0.0
C526 C 0.72585 0.07181 0.88478 0.0
C527 C 0.75246 0.07209 0.87475 0.0
C528 C 0.77631 0.09967 0.86362 0.0
N529 N 0.72298 0.09823 0.88367 0.0
C530 C 0.74631 0.12539 0.87285 0.0
Co531 Co 0.43103 0.14354 0.55473 0.0
Co532 Co 0.41221 0.09899 0.60966 0.0
O533 O 0.42327 0.13823 0.59149 0.0
C534 C 0.38282 0.1625 0.56221 0.0
O535 O 0.36741 0.13774 0.57706 0.0
C536 C 0.46295 0.15091 0.64091 0.0
O537 O 0.47866 0.16423 0.6199 0.0
O538 O 0.44936 0.09774 0.59476 0.0
O539 O 0.45245 0.11796 0.55566 0.0
H540 H 0.39201 0.98787 0.61808 0.0
H541 H 0.45006 0.20039 0.58656 0.0
O542 O 0.40924 0.16884 0.55251 0.0
H543 H 0.54862 0.2162 0.54723 0.0
H544 H 0.46087 0.20479 0.47229 0.0
H545 H 0.42639 0.10116 0.5123 0.0
H546 H 0.49769 0.16831 0.53785 0.0
H547 H 0.4516 0.19767 0.51874 0.0
O548 O 0.43767 0.12413 0.6399 0.0
H549 H 0.40563 0.0372 0.59525 0.0
H550 H 0.39504 0.07769 0.66367 0.0
H551 H 0.43565 0.10731 0.46584 0.0
H552 H 0.50042 0.24883 0.59627 0.0
H553 H 0.45301 0.15942 0.44553 0.0
H554 H 0.55019 0.2569 0.5766 0.0
O555 O 0.39017 0.10445 0.54756 0.0
H556 H 0.35605 0.14954 0.65189 0.0
H557 H 0.34367 0.05129 0.61453 0.0
H558 H 0.29693 0.05198 0.63141 0.0
H559 H 0.30296 0.10134 0.65032 0.0
H560 H 0.4021 0.14795 0.63451 0.0
H561 H 0.38151 0.02886 0.68729 0.0
H562 H 0.37984 0.98347 0.66446 0.0
O563 O 0.38578 0.073 0.5804 0.0
C564 C 0.45938 0.10273 0.5717 0.0
C565 C 0.39267 0.00749 0.62825 0.0
C566 C 0.38683 0.03051 0.6671 0.0
N567 N 0.40126 0.06037 0.62811 0.0
C568 C 0.40037 0.03549 0.61542 0.0
C569 C 0.39465 0.05816 0.65364 0.0
C570 C 0.38586 0.00504 0.65427 0.0
C571 C 0.47157 0.20391 0.57773 0.0
N572 N 0.47093 0.18159 0.56163 0.0
C573 C 0.50004 0.23131 0.58339 0.0
C574 C 0.52796 0.23579 0.57238 0.0
C575 C 0.5271 0.21294 0.55593 0.0
C576 C 0.49821 0.18581 0.55076 0.0
C577 C 0.45336 0.18198 0.48092 0.0
C578 C 0.43412 0.12397 0.50364 0.0
C579 C 0.44802 0.17779 0.5072 0.0
N580 N 0.43868 0.14909 0.51825 0.0
C581 C 0.43925 0.12728 0.4773 0.0
C582 C 0.44896 0.15652 0.46592 0.0
C583 C 0.3772 0.07757 0.55856 0.0
C584 C 0.35314 0.12785 0.64378 0.0
C585 C 0.3465 0.07291 0.62264 0.0
C586 C 0.31994 0.07312 0.63223 0.0
C587 C 0.32335 0.10082 0.64285 0.0
N588 N 0.37567 0.0995 0.62365 0.0
C589 C 0.37917 0.12675 0.63402 0.0
Co590 Co 0.85512 0.28998 0.55542 0.0
Co591 Co 0.90049 0.31275 0.61023 0.0
O592 O 0.86088 0.28637 0.59193 0.0
C593 C 0.83581 0.2226 0.56169 0.0
O594 O 0.86061 0.23158 0.57639 0.0
C595 C 0.85001 0.31418 0.64159 0.0
O596 O 0.83704 0.31719 0.62062 0.0
O597 O 0.90432 0.35251 0.59565 0.0
O598 O 0.88094 0.33687 0.55729 0.0
H599 H 0.0137 0.39913 0.61894 0.0
H600 H 0.79874 0.25137 0.58754 0.0
O601 O 0.82962 0.24295 0.55234 0.0
H602 H 0.78298 0.33576 0.55154 0.0
H603 H 0.79255 0.26118 0.47369 0.0
H604 H 0.89678 0.32913 0.51314 0.0
H605 H 0.83047 0.33266 0.54069 0.0
H606 H 0.80044 0.25754 0.51981 0.0
O607 O 0.8762 0.31449 0.64053 0.0
H608 H 0.96377 0.36571 0.59601 0.0
H609 H 0.92121 0.31523 0.66424 0.0
H610 H 0.88986 0.33374 0.46701 0.0
H611 H 0.75072 0.25337 0.59871 0.0
H612 H 0.83744 0.29959 0.44698 0.0
H613 H 0.74267 0.29588 0.58072 0.0
O614 O 0.894 0.28831 0.54696 0.0
H615 H 0.84424 0.20539 0.65144 0.0
H616 H 0.94518 0.28818 0.61533 0.0
H617 H 0.94123 0.23905 0.6318 0.0
H618 H 0.89048 0.19725 0.65008 0.0
H619 H 0.84911 0.25467 0.63445 0.0
H620 H 0.97061 0.34827 0.68795 0.0
H621 H 0.01735 0.39053 0.66527 0.0
O622 O 0.92552 0.31083 0.58089 0.0
C623 C 0.89803 0.35839 0.57327 0.0
C624 C 0.9935 0.3808 0.62905 0.0
C625 C 0.9693 0.3523 0.66778 0.0
N626 N 0.93954 0.3386 0.62876 0.0
C627 C 0.96516 0.36179 0.61615 0.0
C628 C 0.94133 0.33375 0.65427 0.0
C629 C 0.99552 0.37598 0.65504 0.0
C630 C 0.79522 0.26973 0.57943 0.0
N631 N 0.81734 0.29183 0.56344 0.0
C632 C 0.76807 0.27083 0.58591 0.0
C633 C 0.7636 0.29472 0.57586 0.0
C634 C 0.78623 0.31713 0.55951 0.0
C635 C 0.81313 0.31533 0.5535 0.0
C636 C 0.81549 0.27623 0.4822 0.0
C637 C 0.87385 0.31432 0.5046 0.0
C638 C 0.82012 0.27422 0.50829 0.0
N639 N 0.84899 0.29324 0.51919 0.0
C640 C 0.8701 0.31698 0.47845 0.0
C641 C 0.84068 0.29779 0.46722 0.0
C642 C 0.9206 0.29967 0.55827 0.0
C643 C 0.86651 0.22346 0.64359 0.0
C644 C 0.92298 0.27006 0.62311 0.0
C645 C 0.92091 0.24232 0.6325 0.0
C646 C 0.89245 0.21889 0.64278 0.0
N647 N 0.89746 0.2744 0.62398 0.0
C648 C 0.86946 0.25152 0.63405 0.0
Co649 Co 0.71412 0.57253 0.55688 0.0
Co650 Co 0.6863 0.59102 0.61045 0.0
O651 O 0.71492 0.57978 0.59351 0.0
C652 C 0.78167 0.6196 0.56545 0.0
O653 O 0.77288 0.63843 0.57589 0.0
C654 C 0.68579 0.53994 0.6421 0.0
O655 O 0.68271 0.52391 0.62115 0.0
O656 O 0.64854 0.55387 0.59486 0.0
O657 O 0.66714 0.55249 0.55595 0.0
H658 H 0.59514 0.61114 0.61555 0.0
H659 H 0.74823 0.55069 0.59051 0.0
O660 O 0.76116 0.59253 0.55703 0.0
H661 H 0.6659 0.45464 0.54779 0.0
H662 H 0.74932 0.54325 0.47612 0.0
H663 H 0.67985 0.57937 0.51281 0.0
H664 H 0.67153 0.50671 0.53847 0.0
H665 H 0.74875 0.55148 0.52255 0.0
O666 O 0.68496 0.56558 0.64104 0.0
H667 H 0.6317 0.59756 0.59411 0.0
H668 H 0.6801 0.60811 0.664 0.0
H669 H 0.6795 0.57121 0.46632 0.0
H670 H 0.74368 0.49916 0.60017 0.0
H671 H 0.71443 0.55303 0.44768 0.0
H672 H 0.7022 0.45065 0.57879 0.0
O673 O 0.71771 0.61421 0.54955 0.0
H674 H 0.79186 0.64735 0.65444 0.0
H675 H 0.70682 0.65952 0.61522 0.0
H676 H 0.75372 0.70631 0.63273 0.0
H677 H 0.79663 0.70038 0.65259 0.0
H678 H 0.74472 0.60125 0.63647 0.0
H679 H 0.64392 0.62159 0.68624 0.0
H680 H 0.60111 0.62326 0.66196 0.0
O681 O 0.68797 0.6175 0.58073 0.0
C682 C 0.64435 0.54494 0.57151 0.0
C683 C 0.6137 0.6105 0.62634 0.0
C684 C 0.64104 0.61632 0.66602 0.0
N685 N 0.65799 0.60199 0.62778 0.0
C686 C 0.6345 0.60285 0.6143 0.0
C687 C 0.66138 0.60854 0.65334 0.0
C688 C 0.61705 0.61727 0.65238 0.0
C689 C 0.73033 0.52974 0.58093 0.0
N690 N 0.7102 0.53172 0.56391 0.0
C691 C 0.72778 0.5006 0.58656 0.0
C692 C 0.70446 0.47339 0.57461 0.0
C693 C 0.68405 0.47561 0.55724 0.0
C694 C 0.68727 0.50514 0.55211 0.0
C695 C 0.73394 0.55111 0.48402 0.0
C696 C 0.69496 0.57125 0.50487 0.0
C697 C 0.73356 0.55586 0.51029 0.0
N698 N 0.71409 0.56564 0.5204 0.0
C699 C 0.69473 0.56677 0.47852 0.0
C700 C 0.71435 0.5566 0.46807 0.0
C701 C 0.70287 0.6268 0.55961 0.0
C702 C 0.77327 0.65022 0.64592 0.0
C703 C 0.72541 0.65673 0.62376 0.0
C704 C 0.7519 0.68332 0.63369 0.0
C705 C 0.77595 0.67998 0.64484 0.0
N706 N 0.72289 0.62759 0.62497 0.0
C707 C 0.74644 0.62416 0.6358 0.0
C708 C 0.17608 0.34003 0.05745 0.0
C709 C 0.18602 0.37244 0.05838 0.0
C710 C 0.19696 0.32993 0.04948 0.0
C711 C 0.26808 0.35871 0.00961 0.0
H712 H 0.26916 0.28423 0.03384 0.0
C713 C 0.33069 0.30762 0.95213 0.0
C714 C 0.35063 0.29945 0.96532 0.0
C715 C 0.30936 0.31342 0.96529 0.0
C716 C 0.26924 0.3052 0.02702 0.0
H717 H 0.22619 0.41969 0.05376 0.0
H718 H 0.26265 0.40219 0.04062 0.0
H719 H 0.23592 0.3016 0.05544 0.0
H720 H 0.36266 0.28956 1.00276 0.0
H721 H 0.32556 0.30038 0.02591 0.0
H722 H 0.30155 0.36283 0.98156 0.0
C723 C 0.23854 0.38448 0.04515 0.0
C724 C 0.25004 0.31499 0.03923 0.0
C725 C 0.21767 0.39453 0.0528 0.0
C726 C 0.34764 0.2958 0.99201 0.0
C727 C 0.32634 0.30191 0.00527 0.0
C728 C 0.28717 0.34901 0.99752 0.0
C729 C 0.2282 0.3521 0.04253 0.0
C730 C 0.24921 0.34185 0.03058 0.0
C731 C 0.30761 0.31164 0.99205 0.0
C732 C 0.28775 0.32197 0.00584 0.0
H733 H 0.15182 0.32248 0.06169 0.0
H734 H 0.18819 0.30482 0.04759 0.0
H735 H 0.2677 0.37918 1.00212 0.0
H736 H 0.33206 0.31042 0.93159 0.0
H737 H 0.2947 0.32007 0.95446 0.0
C738 C 0.6211 0.82213 0.02942 0.0
C739 C 0.63246 0.81472 0.05147 0.0
C740 C 0.63495 0.85321 0.02079 0.0
C741 C 0.67533 0.93469 0.03875 0.0
H742 H 0.70184 0.94914 0.96785 0.0
C743 C 0.71521 0.05452 0.98703 0.0
C744 C 0.70187 0.05133 0.96263 0.0
C745 C 0.71276 0.02809 0.99972 0.0
C746 C 0.69451 0.94555 0.98766 0.0
H747 H 0.66669 0.83425 0.08222 0.0
H748 H 0.69048 0.88927 0.0673 0.0
H749 H 0.68543 0.8979 0.98729 0.0
H750 H 0.67561 0.01769 0.93249 0.0
H751 H 0.67107 0.97223 0.95451 0.0
H752 H 0.68258 0.98177 0.03868 0.0
C753 C 0.67108 0.87066 0.05666 0.0
C754 C 0.6853 0.91628 0.99879 0.0
C755 C 0.65755 0.83928 0.0651 0.0
C756 C 0.68639 0.02127 0.95117 0.0
C757 C 0.68398 0.99507 0.96376 0.0
C758 C 0.68422 0.964 0.02749 0.0
C759 C 0.66014 0.8777 0.03421 0.0
C760 C 0.67476 0.91029 0.02416 0.0
C761 C 0.69707 0.99805 0.98818 0.0
C762 C 0.69288 0.96934 1.00155 0.0
H763 H 0.60189 0.80381 0.01842 0.0
H764 H 0.62592 0.85816 1.00356 0.0
H765 H 0.66718 0.93049 0.05835 0.0
H766 H 0.72722 0.07731 0.99645 0.0
H767 H 0.72316 0.03116 0.01851 0.0
C768 C 0.17597 0.78335 0.05547 0.0
C769 C 0.18569 0.81534 0.05963 0.0
C770 C 0.1451 0.76218 0.04787 0.0
C771 C 0.06449 0.75087 0.03911 0.0
H772 H 0.06193 0.69677 0.98388 0.0
C773 C 0.94869 0.65267 0.99075 0.0
C774 C 0.9503 0.64921 0.9642 0.0
C775 C 0.97575 0.67389 0.00447 0.0
C776 C 0.06219 0.71184 0.99917 0.0
H777 H 0.17024 0.8499 0.06052 0.0
H778 H 0.1163 0.81295 0.04647 0.0
H779 H 0.1116 0.73106 0.00505 0.0
H780 H 0.98127 0.66679 0.93116 0.0
H781 H 0.02767 0.70391 0.95479 0.0
H782 H 0.01487 0.73199 0.03239 0.0
C783 C 0.13247 0.80416 0.04946 0.0
C784 C 0.09065 0.7312 0.01161 0.0
C785 C 0.16339 0.82537 0.0574 0.0
C786 C 0.97907 0.66852 0.95158 0.0
C787 C 0.00586 0.68972 0.96518 0.0
C788 C 0.03582 0.73137 0.02656 0.0
C789 C 0.12329 0.77253 0.04385 0.0
C790 C 0.09227 0.75107 0.03168 0.0
C791 C 0.0048 0.69203 0.99185 0.0
C792 C 0.03451 0.71195 0.00622 0.0
H793 H 0.19247 0.77479 0.05746 0.0
H794 H 0.1386 0.7378 0.0444 0.0
H795 H 0.06491 0.76576 0.05461 0.0
H796 H 0.92691 0.63815 1.00108 0.0
H797 H 0.97422 0.67512 0.02503 0.0
C798 C 0.6857 0.66706 0.5572 0.0
C799 C 0.70183 0.65295 0.5461 0.0
C800 C 0.68337 0.69083 0.54451 0.0
C801 C 0.68537 0.72285 0.48069 0.0
H802 H 0.68423 0.78913 0.52069 0.0
C803 C 0.65856 0.82059 0.44236 0.0
C804 C 0.63278 0.81937 0.45539 0.0
C805 C 0.67212 0.80289 0.45107 0.0
C806 C 0.68478 0.77092 0.50925 0.0
H807 H 0.72844 0.65318 0.51283 0.0
H808 H 0.72452 0.69524 0.49063 0.0
H809 H 0.70051 0.75448 0.54065 0.0
H810 H 0.60097 0.79853 0.48762 0.0
H811 H 0.62501 0.76847 0.50294 0.0
H812 H 0.66913 0.73944 0.44936 0.0
C813 C 0.71353 0.68753 0.50919 0.0
C814 C 0.6939 0.75095 0.52067 0.0
C815 C 0.71589 0.66356 0.52197 0.0
C816 C 0.62072 0.79998 0.47707 0.0
C817 C 0.63457 0.78289 0.48597 0.0
C818 C 0.67657 0.74319 0.46915 0.0
C819 C 0.69719 0.7014 0.52036 0.0
C820 C 0.69309 0.72588 0.50683 0.0
C821 C 0.66049 0.78435 0.47321 0.0
C822 C 0.67515 0.76662 0.48364 0.0
H823 H 0.67437 0.65949 0.57566 0.0
H824 H 0.66996 0.70039 0.55346 0.0
H825 H 0.68439 0.70372 0.46951 0.0
H826 H 0.66828 0.83527 0.42556 0.0
H827 H 0.69209 0.80426 0.44094 0.0
C828 C 0.18288 0.83692 0.44409 0.0
C829 C 0.18358 0.81224 0.45735 0.0
C830 C 0.20101 0.86823 0.4526 0.0
C831 C 0.23372 0.91344 0.51043 0.0
H832 H 0.3007 0.97925 0.46984 0.0
C833 C 0.33744 0.01991 0.55711 0.0
C834 C 0.35136 0.04978 0.54538 0.0
C835 C 0.31386 0.9933 0.54477 0.0
C836 C 0.28166 0.96139 0.48126 0.0
H837 H 0.20387 0.801 0.48979 0.0
H838 H 0.23471 0.85525 0.50479 0.0
H839 H 0.26464 0.92793 0.45036 0.0
H840 H 0.35104 0.07501 0.51137 0.0
H841 H 0.30927 0.02822 0.48984 0.0
H842 H 0.2505 0.9463 0.54137 0.0
C843 C 0.22037 0.85045 0.48779 0.0
C844 C 0.26113 0.93205 0.4701 0.0
C845 C 0.20284 0.81943 0.47909 0.0
C846 C 0.34081 0.05237 0.52098 0.0
C847 C 0.317 0.02556 0.50858 0.0
C848 C 0.25387 0.94274 0.52147 0.0
C849 C 0.21947 0.87507 0.47476 0.0
C850 C 0.23771 0.90757 0.48489 0.0
C851 C 0.30327 0.99571 0.52038 0.0
C852 C 0.27884 0.96668 0.50731 0.0
H853 H 0.16833 0.83204 0.42722 0.0
H854 H 0.20007 0.88695 0.44226 0.0
H855 H 0.21553 0.89498 0.52209 0.0
H856 H 0.34499 0.01682 0.5758 0.0
H857 H 0.30441 0.97062 0.55421 0.0
C858 C 0.97613 0.31015 0.55734 0.0
C859 C 0.94792 0.30179 0.54423 0.0
C860 C 0.00311 0.31553 0.54413 0.0
C861 C 0.0338 0.30502 0.48255 0.0
H862 H 0.11041 0.3788 0.50618 0.0
C863 C 0.16076 0.33699 0.45126 0.0
C864 C 0.18361 0.36925 0.44988 0.0
C865 C 0.12999 0.32756 0.45941 0.0
C866 C 0.08924 0.35836 0.49905 0.0
H867 H 0.92572 0.29129 0.50687 0.0
H868 H 0.97331 0.30132 0.48366 0.0
H869 H 0.0607 0.3638 0.5271 0.0
H870 H 0.19156 0.4169 0.4538 0.0
H871 H 0.13795 0.40055 0.46722 0.0
H872 H 0.0627 0.30009 0.45411 0.0
C873 C 0.97428 0.30333 0.50428 0.0
C874 C 0.06074 0.34945 0.51135 0.0
C875 C 0.94705 0.29768 0.51758 0.0
C876 C 0.17461 0.39184 0.45511 0.0
C877 C 0.1439 0.38246 0.46293 0.0
C878 C 0.0625 0.31402 0.47013 0.0
C879 C 0.0028 0.31307 0.5174 0.0
C880 C 0.03272 0.32252 0.50347 0.0
C881 C 0.12152 0.35026 0.46608 0.0
C882 C 0.09057 0.3408 0.4783 0.0
H883 H 0.97772 0.3133 0.57785 0.0
H884 H 0.02448 0.32224 0.5549 0.0
H885 H 0.01261 0.2841 0.47608 0.0
H886 H 0.16705 0.31906 0.44731 0.0
H887 H 0.11336 0.30257 0.4617 0.0
C888 C 0.6707 0.69293 0.0562 0.0
C889 C 0.65095 0.70119 0.0428 0.0
C890 C 0.69202 0.68692 0.04323 0.0
C891 C 0.73241 0.69495 0.9816 0.0
H892 H 0.73427 0.6213 0.00692 0.0
C893 C 0.82537 0.65993 0.95096 0.0
C894 C 0.81538 0.62751 0.95011 0.0
C895 C 0.80461 0.67011 0.95907 0.0
C896 C 0.7338 0.64168 0.99933 0.0
H897 H 0.63918 0.71089 0.00518 0.0
H898 H 0.67622 0.69971 0.98239 0.0
H899 H 0.70038 0.63769 0.02738 0.0
H900 H 0.77523 0.58031 0.95506 0.0
H901 H 0.73897 0.59795 0.96846 0.0
H902 H 0.76563 0.69839 0.95317 0.0
C903 C 0.67533 0.69829 1.00304 0.0
C904 C 0.7147 0.65141 0.01136 0.0
C905 C 0.65405 0.7046 0.0161 0.0
C906 C 0.7838 0.60548 0.95595 0.0
C907 C 0.76304 0.61561 0.96375 0.0
C908 C 0.75162 0.68513 0.96946 0.0
C909 C 0.69396 0.6886 0.01647 0.0
C910 C 0.71396 0.67831 1.00285 0.0
C911 C 0.77344 0.64802 0.96625 0.0
C912 C 0.75253 0.65837 0.97825 0.0
H913 H 0.66925 0.69031 0.07675 0.0
H914 H 0.70658 0.68029 0.05421 0.0
H915 H 0.7324 0.71582 0.97465 0.0
H916 H 0.84959 0.67744 0.94652 0.0
H917 H 0.81341 0.69525 0.96087 0.0
C918 C 0.34481 0.16303 0.94354 0.0
C919 C 0.37422 0.18708 0.95253 0.0
C920 C 0.33412 0.13131 0.94966 0.0
C921 C 0.36264 0.07859 0.9747 0.0
H922 H 0.27665 0.02654 0.999 0.0
C923 C 0.32733 0.98162 0.04878 0.0
C924 C 0.30387 0.95079 0.04203 0.0
C925 C 0.33306 0.00732 0.03358 0.0
C926 C 0.30053 0.04065 0.99182 0.0
H927 H 0.41559 0.19659 0.97473 0.0
H928 H 0.39689 0.14195 0.98568 0.0
H929 H 0.29273 0.07804 0.9795 0.0
H930 H 0.26732 0.92306 0.01432 0.0
H931 H 0.27693 0.96875 0.98798 0.0
H932 H 0.37091 0.04211 0.98853 0.0
C933 C 0.38221 0.14724 0.9735 0.0
C934 C 0.30977 0.07007 0.98062 0.0
C935 C 0.39286 0.17873 0.96738 0.0
C936 C 0.2856 0.94648 0.02001 0.0
C937 C 0.29102 0.9725 0.00497 0.0
C938 C 0.35353 0.0495 0.98613 0.0
C939 C 0.3527 0.12309 0.96481 0.0
C940 C 0.34125 0.08983 0.97272 0.0
C941 C 0.31519 0.003 0.01149 0.0
C942 C 0.3227 0.03073 0.99543 0.0
H943 H 0.32993 0.16869 0.93198 0.0
H944 H 0.31136 0.11326 0.94253 0.0
H945 H 0.38682 0.0928 0.96822 0.0
H946 H 0.34188 0.98598 0.06555 0.0
H947 H 0.35162 0.03072 0.03909 0.0
C948 C 0.05261 0.34796 0.01681 0.0
C949 C 0.05113 0.35052 0.04349 0.0
C950 C 0.02553 0.32708 1.00297 0.0
C951 C 0.93911 0.28868 0.00893 0.0
H952 H 0.9361 0.23719 0.95147 0.0
C953 C 0.83762 0.17741 0.94889 0.0
C954 C 0.81518 0.18734 0.94776 0.0
C955 C 0.86862 0.19841 0.95679 0.0
C956 C 0.9366 0.2514 0.96753 0.0
H957 H 0.02045 0.33158 0.07658 0.0
H958 H 0.97401 0.29499 0.05272 0.0
H959 H 0.98629 0.27011 0.97376 0.0
H960 H 0.80817 0.2276 0.9518 0.0
H961 H 0.86218 0.26429 0.96475 0.0
H962 H 0.88966 0.26959 1.00354 0.0
C963 C 0.99572 0.30967 0.04234 0.0
C964 C 0.96536 0.27042 0.98014 0.0
C965 C 0.02252 0.33056 0.05607 0.0
C966 C 0.82481 0.21911 0.95293 0.0
C967 C 0.85575 0.2401 0.96047 0.0
C968 C 0.91057 0.26979 0.99644 0.0
C969 C 0.99659 0.30836 0.01559 0.0
C970 C 0.96677 0.28895 1.0012 0.0
C971 C 0.87773 0.22975 0.96344 0.0
C972 C 0.90884 0.2508 0.97564 0.0
H973 H 0.07428 0.363 0.00652 0.0
H974 H 0.02692 0.32662 0.98235 0.0
H975 H 0.93945 0.30309 0.02478 0.0
H976 H 0.83085 0.15305 0.94498 0.0
H977 H 0.88491 0.18962 0.95895 0.0
C978 C 0.34306 0.18043 0.56814 0.0
C979 C 0.36836 0.18152 0.55444 0.0
C980 C 0.32888 0.19766 0.5597 0.0
C981 C 0.31295 0.22746 0.50187 0.0
H982 H 0.31644 0.29679 0.54064 0.0
C983 C 0.31129 0.33022 0.45269 0.0
C984 C 0.29625 0.34529 0.46404 0.0
C985 C 0.31367 0.30659 0.46557 0.0
C986 C 0.31456 0.27706 0.52977 0.0
H987 H 0.39863 0.20155 0.52125 0.0
H988 H 0.37348 0.23076 0.50639 0.0
H989 H 0.33243 0.26163 0.56075 0.0
H990 H 0.27157 0.3469 0.49797 0.0
H991 H 0.27558 0.30511 0.52054 0.0
H992 H 0.29565 0.24279 0.47079 0.0
C993 C 0.3648 0.21685 0.52369 0.0
C994 C 0.32378 0.25704 0.54128 0.0
C995 C 0.37929 0.20025 0.53232 0.0
C996 C 0.28326 0.33575 0.48863 0.0
C997 C 0.28568 0.31193 0.50161 0.0
C998 C 0.3034 0.24712 0.49049 0.0
C999 C 0.33939 0.21556 0.53717 0.0
C1000 C 0.32411 0.23284 0.52707 0.0
C1001 C 0.30099 0.29714 0.4902 0.0
C1002 C 0.30533 0.27295 0.50394 0.0
H1003 H 0.33423 0.16625 0.58529 0.0
H1004 H 0.30932 0.19645 0.57038 0.0
H1005 H 0.31268 0.20868 0.49066 0.0
H1006 H 0.32178 0.33695 0.43387 0.0
H1007 H 0.32627 0.29629 0.4564 0.0
C1008 C 0.81708 0.16476 0.56756 0.0
C1009 C 0.81641 0.18919 0.55386 0.0
C1010 C 0.79941 0.13336 0.55915 0.0
C1011 C 0.76901 0.08759 0.50143 0.0
H1012 H 0.69982 0.02219 0.5406 0.0
C1013 C 0.66675 0.98186 0.45283 0.0
C1014 C 0.65183 0.95198 0.4646 0.0
C1015 C 0.69012 0.00826 0.46553 0.0
C1016 C 0.7195 0.03993 0.52962 0.0
H1017 H 0.79671 0.19989 0.52072 0.0
H1018 H 0.76671 0.14548 0.50589 0.0
H1019 H 0.73515 0.07352 0.56041 0.0
H1020 H 0.65018 0.92652 0.49906 0.0
H1021 H 0.69156 0.97294 0.52126 0.0
H1022 H 0.75357 0.05463 0.47058 0.0
C1023 C 0.78063 0.15055 0.52317 0.0
C1024 C 0.7396 0.06927 0.54096 0.0
C1025 C 0.79768 0.18165 0.53177 0.0
C1026 C 0.66121 0.94916 0.48941 0.0
C1027 C 0.6848 0.97577 0.50218 0.0
C1028 C 0.74928 0.05828 0.49024 0.0
C1029 C 0.78149 0.12619 0.53665 0.0
C1030 C 0.7638 0.09361 0.52661 0.0
C1031 C 0.69947 0.00563 0.49036 0.0
C1032 C 0.72352 0.03451 0.50385 0.0
H1033 H 0.83124 0.16991 0.58469 0.0
H1034 H 0.8003 0.11483 0.56983 0.0
H1035 H 0.7878 0.10597 0.49014 0.0
H1036 H 0.66013 0.98513 0.43382 0.0
H1037 H 0.70032 0.03096 0.45603 0.0
C1038 C 0.05245 0.70381 0.49362 0.0
C1039 C 0.05139 0.69991 0.46694 0.0
C1040 C 0.02528 0.69796 0.50713 0.0
C1041 C 0.96554 0.69578 0.5292 0.0
H1042 H 0.88933 0.62141 0.50576 0.0
C1043 C 0.83806 0.66266 0.55989 0.0
C1044 C 0.81543 0.63033 0.56124 0.0
C1045 C 0.86901 0.67235 0.55205 0.0
C1046 C 0.91039 0.642 0.51284 0.0
H1047 H 0.02133 0.68859 0.43349 0.0
H1048 H 0.97467 0.67922 0.45683 0.0
H1049 H 0.93911 0.63693 0.48473 0.0
H1050 H 0.80802 0.58285 0.5577 0.0
H1051 H 0.86193 0.59965 0.54483 0.0
H1052 H 0.93645 0.7004 0.55764 0.0
C1053 C 0.99615 0.68597 0.46743 0.0
C1054 C 0.93892 0.6512 0.50049 0.0
C1055 C 0.02307 0.69158 0.45402 0.0
C1056 C 0.82481 0.60795 0.55638 0.0
C1057 C 0.85568 0.61759 0.54889 0.0
C1058 C 0.9368 0.6865 0.54166 0.0
C1059 C 0.99665 0.68818 0.49418 0.0
C1060 C 0.96677 0.67836 0.50828 0.0
C1061 C 0.87785 0.64984 0.54568 0.0
C1062 C 0.90888 0.65952 0.53354 0.0
H1063 H 0.07388 0.71019 0.50418 0.0
H1064 H 0.02637 0.6998 0.52776 0.0
H1065 H 0.98662 0.71686 0.5356 0.0
H1066 H 0.83147 0.68042 0.56356 0.0
H1067 H 0.88547 0.69738 0.54971 0.0
C1068 C 0.29327 0.48859 0.3419 0.0
C1069 C 0.30231 0.4654 0.34277 0.0
C1070 C 0.27909 0.49243 0.3199 0.0
C1071 C 0.26007 0.50274 0.26574 0.0
H1072 H 0.19566 0.42333 0.23675 0.0
C1073 C 0.19552 0.49003 0.16844 0.0
C1074 C 0.16324 0.46699 0.16736 0.0
C1075 C 0.21332 0.49352 0.1905 0.0
C1076 C 0.21339 0.44576 0.24468 0.0
H1077 H 0.30523 0.42943 0.32053 0.0
H1078 H 0.28088 0.43628 0.28244 0.0
H1079 H 0.22638 0.42296 0.27309 0.0
H1080 H 0.12404 0.43099 0.18931 0.0
H1081 H 0.15486 0.43723 0.22751 0.0
H1082 H 0.24671 0.52542 0.23712 0.0
C1083 C 0.28419 0.45113 0.29885 0.0
C1084 C 0.23131 0.44554 0.26536 0.0
C1085 C 0.29836 0.44735 0.3207 0.0
C1086 C 0.14888 0.44879 0.1893 0.0
C1087 C 0.16661 0.45222 0.21122 0.0
C1088 C 0.24223 0.50295 0.24478 0.0
C1089 C 0.27356 0.47307 0.29838 0.0
C1090 C 0.25491 0.47397 0.27617 0.0
C1091 C 0.19922 0.47397 0.21188 0.0
C1092 C 0.21854 0.47441 0.2341 0.0
H1093 H 0.29583 0.50282 0.35857 0.0
H1094 H 0.2711 0.50949 0.3202 0.0
H1095 H 0.27814 0.52504 0.27358 0.0
H1096 H 0.20739 0.50438 0.15187 0.0
H1097 H 0.23841 0.51044 0.19036 0.0
C1098 C 0.54975 0.70221 0.18664 0.0
C1099 C 0.53256 0.69994 0.16442 0.0
C1100 C 0.54601 0.7158 0.20888 0.0
C1101 C 0.4958 0.74082 0.24285 0.0
H1102 H 0.57563 0.80306 0.27273 0.0
C1103 C 0.55125 0.84999 0.32108 0.0
C1104 C 0.53325 0.83534 0.34306 0.0
C1105 C 0.54746 0.83258 0.29889 0.0
C1106 C 0.5531 0.78591 0.26457 0.0
H1107 H 0.49657 0.7087 0.14873 0.0
H1108 H 0.48992 0.73237 0.18783 0.0
H1109 H 0.5754 0.77306 0.2356 0.0
H1110 H 0.49585 0.79103 0.35831 0.0
H1111 H 0.48911 0.76058 0.31927 0.0
H1112 H 0.47363 0.75399 0.27209 0.0
C1113 C 0.50632 0.72355 0.1879 0.0
C1114 C 0.55296 0.76843 0.24343 0.0
C1115 C 0.51014 0.70998 0.1655 0.0
C1116 C 0.51007 0.8031 0.34174 0.0
C1117 C 0.50618 0.78564 0.31937 0.0
C1118 C 0.49594 0.75818 0.26431 0.0
C1119 C 0.52494 0.72747 0.20959 0.0
C1120 C 0.52436 0.74565 0.23228 0.0
C1121 C 0.52551 0.80003 0.29794 0.0
C1122 C 0.52465 0.78109 0.2753 0.0
H1123 H 0.56701 0.69449 0.18667 0.0
H1124 H 0.56027 0.71787 0.2254 0.0
H1125 H 0.47338 0.72338 0.23473 0.0
H1126 H 0.56915 0.87479 0.32124 0.0
H1127 H 0.56231 0.84453 0.28257 0.0
C1128 C 0.29574 0.80636 0.16907 0.0
C1129 C 0.30358 0.83825 0.16763 0.0
C1130 C 0.2817 0.78854 0.19118 0.0
C1131 C 0.23235 0.78653 0.24495 0.0
H1132 H 0.25086 0.72493 0.2748 0.0
C1133 C 0.19885 0.7086 0.34308 0.0
C1134 C 0.16632 0.69826 0.34395 0.0
C1135 C 0.21651 0.72286 0.32094 0.0
C1136 C 0.24551 0.74211 0.26669 0.0
H1137 H 0.30437 0.87677 0.18893 0.0
H1138 H 0.28028 0.84591 0.22724 0.0
H1139 H 0.28179 0.7567 0.23814 0.0
H1140 H 0.12655 0.69293 0.32159 0.0
H1141 H 0.15711 0.71737 0.28324 0.0
H1142 H 0.19634 0.77235 0.27333 0.0
C1143 C 0.28444 0.83447 0.21119 0.0
C1144 C 0.26306 0.76014 0.24561 0.0
C1145 C 0.29846 0.85224 0.18923 0.0
C1146 C 0.15159 0.70087 0.32175 0.0
C1147 C 0.16916 0.71509 0.29975 0.0
C1148 C 0.21473 0.76843 0.26576 0.0
C1149 C 0.27511 0.8022 0.21224 0.0
C1150 C 0.25677 0.7827 0.23459 0.0
C1151 C 0.20199 0.72712 0.29928 0.0
C1152 C 0.221 0.74595 0.27691 0.0
H1153 H 0.29923 0.79479 0.15277 0.0
H1154 H 0.27471 0.76371 0.19133 0.0
H1155 H 0.22655 0.80336 0.23676 0.0
H1156 H 0.21099 0.70708 0.35985 0.0
H1157 H 0.24176 0.73193 0.32122 0.0
C1158 C 0.80476 0.50875 0.84012 0.0
C1159 C 0.83694 0.5321 0.84108 0.0
C1160 C 0.78671 0.50507 0.81817 0.0
C1161 C 0.78542 0.55255 0.76428 0.0
H1162 H 0.7216 0.47292 0.73519 0.0
C1163 C 0.70564 0.50917 0.66706 0.0
C1164 C 0.69599 0.53192 0.66636 0.0
C1165 C 0.72 0.50549 0.68902 0.0
C1166 C 0.7394 0.49532 0.74309 0.0
H1167 H 0.87571 0.56851 0.81904 0.0
H1168 H 0.84446 0.56196 0.78105 0.0
H1169 H 0.75345 0.473 0.7715 0.0
H1170 H 0.6922 0.56722 0.68884 0.0
H1171 H 0.71687 0.56066 0.72684 0.0
H1172 H 0.77174 0.575 0.73606 0.0
C1173 C 0.83298 0.54685 0.79734 0.0
C1174 C 0.75748 0.49536 0.76397 0.0
C1175 C 0.85096 0.55046 0.81914 0.0
C1176 C 0.69952 0.54965 0.68855 0.0
C1177 C 0.71388 0.54603 0.71035 0.0
C1178 C 0.76726 0.55251 0.74369 0.0
C1179 C 0.80046 0.52475 0.7968 0.0
C1180 C 0.78085 0.52403 0.7747 0.0
C1181 C 0.72512 0.52458 0.71065 0.0
C1182 C 0.74399 0.52395 0.7328 0.0
H1183 H 0.79315 0.49428 0.85669 0.0
H1184 H 0.76169 0.48788 0.81839 0.0
H1185 H 0.8029 0.57506 0.77226 0.0
H1186 H 0.70341 0.4952 0.65031 0.0
H1187 H 0.72845 0.48881 0.6886 0.0
C1188 C 0.4931 0.29548 0.84196 0.0
C1189 C 0.46998 0.30461 0.84314 0.0
C1190 C 0.4971 0.28194 0.81962 0.0
C1191 C 0.50752 0.26447 0.76471 0.0
H1192 H 0.42802 0.20012 0.73583 0.0
C1193 C 0.49352 0.2013 0.6663 0.0
C1194 C 0.47101 0.16884 0.66534 0.0
C1195 C 0.49727 0.21891 0.68856 0.0
C1196 C 0.45047 0.21787 0.7437 0.0
H1197 H 0.43443 0.30846 0.8211 0.0
H1198 H 0.44149 0.28511 0.78248 0.0
H1199 H 0.42782 0.2302 0.77275 0.0
H1200 H 0.43622 0.12917 0.68766 0.0
H1201 H 0.44283 0.15969 0.72612 0.0
H1202 H 0.53005 0.25183 0.7354 0.0
C1203 C 0.45617 0.2879 0.79888 0.0
C1204 C 0.45035 0.23539 0.76473 0.0
C1205 C 0.45225 0.30146 0.82105 0.0
C1206 C 0.45359 0.15415 0.68754 0.0
C1207 C 0.45724 0.17169 0.70962 0.0
C1208 C 0.50763 0.24707 0.74337 0.0
C1209 C 0.47797 0.27712 0.79809 0.0
C1210 C 0.47881 0.25892 0.77552 0.0
C1211 C 0.47846 0.20443 0.71022 0.0
C1212 C 0.47905 0.22341 0.73274 0.0
H1213 H 0.5071 0.29745 0.85862 0.0
H1214 H 0.51406 0.27382 0.81963 0.0
H1215 H 0.52984 0.28251 0.77255 0.0
H1216 H 0.50727 0.21341 0.64955 0.0
H1217 H 0.51378 0.24412 0.68839 0.0
C1218 C 0.70367 0.19828 0.84152 0.0
C1219 C 0.69452 0.166 0.84242 0.0
C1220 C 0.71746 0.21615 0.81937 0.0
C1221 C 0.73553 0.24479 0.76474 0.0
H1222 H 0.80028 0.23012 0.73609 0.0
C1223 C 0.79962 0.29485 0.66682 0.0
C1224 C 0.83205 0.30466 0.666 0.0
C1225 C 0.78186 0.28096 0.689 0.0
C1226 C 0.78243 0.23469 0.74391 0.0
H1227 H 0.69095 0.12689 0.82009 0.0
H1228 H 0.71472 0.15786 0.78178 0.0
H1229 H 0.76978 0.19932 0.77266 0.0
H1230 H 0.87152 0.30944 0.68848 0.0
H1231 H 0.84074 0.2855 0.72684 0.0
H1232 H 0.74849 0.28035 0.73572 0.0
C1233 C 0.71174 0.16952 0.79826 0.0
C1234 C 0.76467 0.21676 0.76473 0.0
C1235 C 0.69792 0.15171 0.82024 0.0
C1236 C 0.84657 0.3019 0.68827 0.0
C1237 C 0.82888 0.288 0.71028 0.0
C1238 C 0.75318 0.26261 0.74361 0.0
C1239 C 0.72251 0.20212 0.79776 0.0
C1240 C 0.74098 0.2215 0.77542 0.0
C1241 C 0.79616 0.2765 0.71072 0.0
C1242 C 0.77698 0.25787 0.73307 0.0
H1243 H 0.7015 0.21008 0.85827 0.0
H1244 H 0.72557 0.24123 0.81961 0.0
H1245 H 0.71738 0.24894 0.77252 0.0
H1246 H 0.78764 0.29652 0.65001 0.0
H1247 H 0.75668 0.27229 0.68872 0.0
C1248 C 0.05433 0.46721 0.0737 0.0
C1249 C 0.08267 0.47193 0.0628 0.0
C1250 C 0.03485 0.47577 0.06031 0.0
C1251 C 0.0325 0.52208 0.00442 0.0
H1252 H 0.9434 0.45904 1.00342 0.0
C1253 C 0.94631 0.53187 0.93434 0.0
C1254 C 0.91807 0.52733 0.94532 0.0
C1255 C 0.96576 0.52325 0.9477 0.0
C1256 C 0.96818 0.47701 1.00359 0.0
H1257 H 0.11384 0.49178 0.03007 0.0
H1258 H 0.08028 0.5067 0.00709 0.0
H1259 H 0.97936 0.45129 0.03074 0.0
H1260 H 0.88704 0.50771 0.97816 0.0
H1261 H 0.92054 0.49265 1.00107 0.0
H1262 H 0.02131 0.54779 0.97726 0.0
C1263 C 0.07285 0.49628 0.02586 0.0
C1264 C 0.9888 0.47265 0.01941 0.0
C1265 C 0.09215 0.48761 0.03912 0.0
C1266 C 0.90865 0.51174 0.96905 0.0
C1267 C 0.92791 0.503 0.98226 0.0
C1268 C 0.01188 0.52643 0.9886 0.0
C1269 C 0.04345 0.48955 0.03586 0.0
C1270 C 0.02125 0.49513 0.02005 0.0
C1271 C 0.95723 0.50957 0.97219 0.0
C1272 C 0.97943 0.50396 0.98796 0.0
H1273 H 0.04629 0.45535 0.09191 0.0
H1274 H 0.01264 0.47082 0.06882 0.0
H1275 H 0.05727 0.54006 0.0046 0.0
H1276 H 0.9543 0.54365 0.91609 0.0
H1277 H 0.98791 0.52808 0.93913 0.0
C1278 C 0.53297 0.58906 0.07291 0.0
C1279 C 0.52817 0.61244 0.06162 0.0
C1280 C 0.52424 0.56067 0.05996 0.0
C1281 C 0.4775 0.51071 0.00471 0.0
H1282 H 0.54067 0.48485 1.00422 0.0
C1283 C 0.46774 0.41355 0.93583 0.0
C1284 C 0.47252 0.39014 0.9471 0.0
C1285 C 0.47623 0.44181 0.94888 0.0
C1286 C 0.52266 0.49159 1.00425 0.0
H1287 H 0.50794 0.62296 0.02872 0.0
H1288 H 0.49271 0.57389 0.00651 0.0
H1289 H 0.54849 0.52908 0.03094 0.0
H1290 H 0.49234 0.37942 0.98017 0.0
H1291 H 0.50718 0.42829 1.00255 0.0
H1292 H 0.45169 0.47324 0.97799 0.0
C1293 C 0.50334 0.57733 0.02524 0.0
C1294 C 0.52706 0.51687 0.01973 0.0
C1295 C 0.51218 0.60564 0.03805 0.0
C1296 C 0.48815 0.39676 0.97083 0.0
C1297 C 0.49676 0.42495 0.98374 0.0
C1298 C 0.47311 0.48544 0.98922 0.0
C1299 C 0.51019 0.5549 0.03559 0.0
C1300 C 0.50454 0.52679 0.02018 0.0
C1301 C 0.49002 0.44744 0.97335 0.0
C1302 C 0.49562 0.47552 0.98878 0.0
H1303 H 0.54509 0.59334 0.09103 0.0
H1304 H 0.52928 0.54361 0.06875 0.0
H1305 H 0.45949 0.51745 0.00474 0.0
H1306 H 0.4559 0.4094 0.91758 0.0
H1307 H 0.47125 0.45891 0.94009 0.0
C1308 C 0.39409 0.90828 0.03699 0.0
C1309 C 0.38909 0.91587 0.06186 0.0
C1310 C 0.42215 0.92781 0.02393 0.0
C1311 C 0.5045 0.99414 0.0309 0.0
H1312 H 0.49299 0.01088 0.96043 0.0
C1313 C 0.60708 0.09213 0.97368 0.0
C1314 C 0.61182 0.08471 0.94867 0.0
C1315 C 0.57916 0.07251 0.98688 0.0
C1316 C 0.49671 0.00627 0.97998 0.0
H1317 H 0.41116 0.94872 0.09321 0.0
H1318 H 0.46017 0.98302 0.07029 0.0
H1319 H 0.4475 0.97349 0.98552 0.0
H1320 H 0.58957 0.05186 0.91735 0.0
H1321 H 0.5408 0.01742 0.94049 0.0
H1322 H 0.55372 0.0269 0.02536 0.0
C1323 C 0.44217 0.96192 0.06087 0.0
C1324 C 0.47061 0.98474 0.9944 0.0
C1325 C 0.41401 0.94222 0.07405 0.0
C1326 C 0.58686 0.0583 0.93658 0.0
C1327 C 0.55885 0.03851 0.94989 0.0
C1328 C 0.53061 0.01566 0.01648 0.0
C1329 C 0.4461 0.95554 0.0353 0.0
C1330 C 0.47415 0.97832 0.02004 0.0
C1331 C 0.55511 0.04483 0.97552 0.0
C1332 C 0.52707 0.02207 0.99083 0.0
H1333 H 0.37569 0.88795 0.02703 0.0
H1334 H 0.4247 0.9216 0.00457 0.0
H1335 H 0.5082 0.98953 0.05045 0.0
H1336 H 0.62555 0.11245 0.9836 0.0
H1337 H 0.57677 0.07865 0.0063 0.0
C1338 C 0.51441 0.90949 0.47152 0.0
C1339 C 0.52844 0.91755 0.44714 0.0
C1340 C 0.50594 0.92921 0.48435 0.0
C1341 C 0.52783 0.0131 0.48735 0.0
H1342 H 0.45596 0.98209 0.53306 0.0
C1343 C 0.4893 0.09433 0.53671 0.0
C1344 C 0.47567 0.08631 0.56123 0.0
C1345 C 0.4979 0.07478 0.52377 0.0
C1346 C 0.47643 0.99113 0.5207 0.0
H1347 H 0.54205 0.95163 0.41638 0.0
H1348 H 0.5269 0.986 0.43875 0.0
H1349 H 0.46275 0.94491 0.50652 0.0
H1350 H 0.46295 0.05251 0.59211 0.0
H1351 H 0.4782 0.01836 0.56951 0.0
H1352 H 0.54145 0.05934 0.5015 0.0
C1353 C 0.52317 0.96464 0.44813 0.0
C1354 C 0.48023 0.9698 0.50533 0.0
C1355 C 0.53155 0.94474 0.43516 0.0
C1356 C 0.47311 0.05936 0.57322 0.0
C1357 C 0.48156 0.0396 0.56014 0.0
C1358 C 0.52401 0.03444 0.5027 0.0
C1359 C 0.51117 0.95759 0.47322 0.0
C1360 C 0.506 0.98047 0.48846 0.0
C1361 C 0.49314 0.04657 0.53493 0.0
C1362 C 0.49827 0.02375 0.5196 0.0
H1363 H 0.51148 0.88871 0.48139 0.0
H1364 H 0.4969 0.92298 0.50363 0.0
H1365 H 0.54832 0.02215 0.47501 0.0
H1366 H 0.49181 0.11494 0.52683 0.0
H1367 H 0.50663 0.08094 0.5044 0.0
C1368 C 0.90557 0.39812 0.53979 0.0
C1369 C 0.91502 0.3913 0.56322 0.0
C1370 C 0.92528 0.42608 0.52664 0.0
C1371 C 0.00983 0.48426 0.51958 0.0
H1372 H 0.97944 0.52961 0.47852 0.0
C1373 C 0.09276 0.60304 0.46966 0.0
C1374 C 0.08336 0.61021 0.44636 0.0
C1375 C 0.07296 0.575 0.48266 0.0
C1376 C 0.98826 0.51689 0.48954 0.0
H1377 H 0.95172 0.41008 0.59211 0.0
H1378 H 0.98608 0.45915 0.5692 0.0
H1379 H 0.94273 0.48635 0.50589 0.0
H1380 H 0.04661 0.59192 0.41751 0.0
H1381 H 0.01209 0.54265 0.44012 0.0
H1382 H 0.05535 0.51475 0.50321 0.0
C1383 C 0.96358 0.44238 0.56079 0.0
C1384 C 0.96722 0.49219 0.50539 0.0
C1385 C 0.9437 0.41438 0.57408 0.0
C1386 C 0.0546 0.58736 0.43544 0.0
C1387 C 0.03463 0.55924 0.44857 0.0
C1388 C 0.03087 0.50894 0.50371 0.0
C1389 C 0.95504 0.44807 0.5365 0.0
C1390 C 0.97772 0.47555 0.52065 0.0
C1391 C 0.04313 0.55322 0.47276 0.0
C1392 C 0.02039 0.52563 0.48848 0.0
H1393 H 0.88362 0.38103 0.5308 0.0
H1394 H 0.91788 0.42952 0.508 0.0
H1395 H 0.01865 0.47155 0.53062 0.0
H1396 H 0.11477 0.61994 0.47868 0.0
H1397 H 0.08034 0.57133 0.50122 0.0
C1398 C 0.39223 0.48135 0.47298 0.0
C1399 C 0.387 0.4687 0.44812 0.0
C1400 C 0.42064 0.49052 0.48569 0.0
C1401 C 0.48624 0.47367 0.48665 0.0
H1402 H 0.52367 0.54407 0.53405 0.0
C1403 C 0.60725 0.51676 0.53535 0.0
C1404 C 0.61198 0.52887 0.56038 0.0
C1405 C 0.57896 0.50754 0.52242 0.0
C1406 C 0.51324 0.52402 0.5212 0.0
H1407 H 0.40879 0.45793 0.41656 0.0
H1408 H 0.45871 0.47434 0.43872 0.0
H1409 H 0.4785 0.5353 0.50822 0.0
H1410 H 0.58943 0.53861 0.59198 0.0
H1411 H 0.53979 0.52225 0.5694 0.0
H1412 H 0.52107 0.46247 0.4996 0.0
C1413 C 0.44037 0.4765 0.44853 0.0
C1414 C 0.4874 0.51907 0.50625 0.0
C1415 C 0.41185 0.4674 0.4357 0.0
C1416 C 0.58677 0.52958 0.57271 0.0
C1417 C 0.55841 0.5205 0.55966 0.0
C1418 C 0.51212 0.47865 0.50158 0.0
C1419 C 0.44478 0.48739 0.47395 0.0
C1420 C 0.47349 0.4938 0.4888 0.0
C1421 C 0.55449 0.51016 0.5341 0.0
C1422 C 0.52595 0.50387 0.51908 0.0
H1423 H 0.37377 0.48285 0.48323 0.0
H1424 H 0.42299 0.49858 0.50526 0.0
H1425 H 0.47579 0.4536 0.47382 0.0
H1426 H 0.62601 0.51572 0.52518 0.0
H1427 H 0.57694 0.49987 0.50277 0.0
loop_
_geom_bond_atom_site_label_1
_geom_bond_atom_site_label_2
_geom_bond_distance
_geom_bond_site_symmetry_2
_ccdc_geom_bond_type
Co0 O2 2.143 . S
Co0 O8 2.074 . S
Co0 O11 2.093 . S
Co0 O24 2.097 . S
Co0 N41 2.151 . S
Co0 N49 2.214 1_554 S
Co1 O2 2.160 . S
Co1 O7 2.058 . S
Co1 O17 2.057 . S
Co1 O32 2.037 . S
Co1 N36 2.145 . S
Co1 N57 2.257 . S
O2 Co0 2.143 . S
O2 Co1 2.160 . S
C3 O4 1.278 . S
C3 O11 1.224 . S
O4 C3 1.278 . S
C5 O6 1.245 . S
C5 O17 1.232 . S
O6 C5 1.245 . S
O7 Co1 2.058 . S
O7 C33 1.269 . S
O8 Co0 2.074 . S
O8 C33 1.257 . S
H9 C34 0.930 . S
H10 C40 0.930 . S
O11 Co0 2.093 . S
O11 C3 1.224 . S
H12 C44 0.929 . S
H13 C46 0.930 . S
H14 C47 0.930 . S
H15 C45 0.929 . S
H16 C48 0.928 . S
O17 Co1 2.057 . S
O17 C5 1.232 . S
H18 C37 0.929 . S
H19 C38 0.929 . S
H20 C50 0.931 . S
H21 C42 0.929 . S
H22 C51 0.930 . S
H23 C43 0.931 . S
O24 Co0 2.097 . S
O24 C52 1.214 . S
H25 C53 0.929 . S
H26 C54 0.929 . S
H27 C55 0.930 . S
H28 C56 0.929 . S
H29 C58 0.930 . S
H30 C35 0.930 . S
H31 C39 0.942 . S
O32 Co1 2.037 . S
O32 C52 1.234 . S
C33 O7 1.269 . S
C33 O8 1.257 . S
C34 H9 0.930 . S
C34 C37 1.388 1_655 S
C34 C39 1.420 . S
C35 H30 0.930 . S
C35 C38 1.404 . S
C35 C39 1.339 1_455 S
N36 Co1 2.145 . S
N36 C37 1.397 . S
N36 C38 1.334 . S
C37 H18 0.929 . S
C37 C34 1.388 1_455 S
C37 N36 1.397 . S
C38 H19 0.929 . S
C38 C35 1.404 . S
C38 N36 1.334 . S
C39 H31 0.942 . S
C39 C34 1.420 . S
C39 C35 1.339 1_655 S
C40 H10 0.930 . S
C40 N41 1.330 . S
C40 C42 1.446 . S
N41 Co0 2.151 . S
N41 C40 1.330 . S
N41 C45 1.418 . S
C42 H21 0.929 . S
C42 C40 1.446 . S
C42 C43 1.332 . S
C43 H23 0.931 . S
C43 C42 1.332 . S
C43 C44 1.267 . S
C44 H12 0.929 . S
C44 C43 1.267 . S
C44 C45 1.251 . S
C45 H15 0.929 . S
C45 N41 1.418 . S
C45 C44 1.251 . S
C46 H13 0.930 . S
C46 C48 1.406 . S
C46 C51 1.261 . S
C47 H14 0.930 . S
C47 N49 1.325 . S
C47 C50 1.357 . S
C48 H16 0.928 . S
C48 C46 1.406 . S
C48 N49 1.261 . S
N49 Co0 2.214 1_556 S
N49 C47 1.325 . S
N49 C48 1.261 . S
C50 H20 0.931 . S
C50 C47 1.357 . S
C50 C51 1.312 . S
C51 H22 0.930 . S
C51 C46 1.261 . S
C51 C50 1.312 . S
C52 O24 1.214 . S
C52 O32 1.234 . S
C53 H25 0.929 . S
C53 C56 1.391 . S
C53 C58 1.391 . S
C54 H26 0.929 . S
C54 C55 1.390 . S
C54 N57 1.391 . S
C55 H27 0.930 . S
C55 C54 1.390 . S
C55 C56 1.392 . S
C56 H28 0.929 . S
C56 C53 1.391 . S
C56 C55 1.392 . S
N57 Co1 2.257 . S
N57 C54 1.391 . S
N57 C58 1.388 . S
C58 H29 0.930 . S
C58 C53 1.391 . S
C58 N57 1.388 . S
Co59 O61 2.143 . S
Co59 O67 2.074 . S
Co59 O70 2.093 . S
Co59 O83 2.097 . S
Co59 N100 2.151 . S
Co59 N108 2.214 1_554 S
Co60 O61 2.160 . S
Co60 O66 2.058 . S
Co60 O76 2.057 . S
Co60 O91 2.037 . S
Co60 N95 2.145 . S
Co60 N116 2.257 . S
O61 Co59 2.143 . S
O61 Co60 2.160 . S
C62 O63 1.278 . S
C62 O70 1.224 . S
O63 C62 1.278 . S
C64 O65 1.245 . S
C64 O76 1.232 . S
O65 C64 1.245 . S
O66 Co60 2.058 . S
O66 C92 1.269 . S
O67 Co59 2.074 . S
O67 C92 1.257 . S
H68 C93 0.930 . S
H69 C99 0.930 . S
O70 Co59 2.093 . S
O70 C62 1.224 . S
H71 C103 0.929 . S
H72 C105 0.930 . S
H73 C106 0.930 . S
H74 C104 0.929 . S
H75 C107 0.928 . S
O76 Co60 2.057 . S
O76 C64 1.232 . S
H77 C96 0.929 . S
H78 C97 0.929 . S
H79 C109 0.931 . S
H80 C101 0.929 . S
H81 C110 0.930 . S
H82 C102 0.931 . S
O83 Co59 2.097 . S
O83 C111 1.214 . S
H84 C112 0.929 . S
H85 C113 0.929 . S
H86 C114 0.930 . S
H87 C115 0.929 . S
H88 C117 0.930 . S
H89 C94 0.930 . S
H90 C98 0.930 . S
O91 Co60 2.037 . S
O91 C111 1.234 . S
C92 O66 1.269 . S
C92 O67 1.257 . S
C93 H68 0.930 . S
C93 C96 1.388 . S
C93 C98 1.418 . S
C94 H89 0.930 . S
C94 C97 1.404 . S
C94 C98 1.353 . S
N95 Co60 2.145 . S
N95 C96 1.397 . S
N95 C97 1.334 . S
C96 H77 0.929 . S
C96 C93 1.388 . S
C96 N95 1.397 . S
C97 H78 0.929 . S
C97 C94 1.404 . S
C97 N95 1.334 . S
C98 H90 0.930 . S
C98 C93 1.418 . S
C98 C94 1.353 . S
C99 H69 0.930 . S
C99 N100 1.330 . S
C99 C101 1.446 . S
N100 Co59 2.151 . S
N100 C99 1.330 . S
N100 C104 1.418 . S
C101 H80 0.929 . S
C101 C99 1.446 . S
C101 C102 1.332 . S
C102 H82 0.931 . S
C102 C101 1.332 . S
C102 C103 1.267 . S
C103 H71 0.929 . S
C103 C102 1.267 . S
C103 C104 1.251 . S
C104 H74 0.929 . S
C104 N100 1.418 . S
C104 C103 1.251 . S
C105 H72 0.930 . S
C105 C107 1.406 . S
C105 C110 1.261 . S
C106 H73 0.930 . S
C106 N108 1.325 . S
C106 C109 1.357 . S
C107 H75 0.928 . S
C107 C105 1.406 . S
C107 N108 1.261 . S
N108 Co59 2.214 1_556 S
N108 C106 1.325 . S
N108 C107 1.261 . S
C109 H79 0.931 . S
C109 C106 1.357 . S
C109 C110 1.312 . S
C110 H81 0.930 . S
C110 C105 1.261 . S
C110 C109 1.312 . S
C111 O83 1.214 . S
C111 O91 1.234 . S
C112 H84 0.929 . S
C112 C115 1.391 . S
C112 C117 1.391 . S
C113 H85 0.929 . S
C113 C114 1.390 . S
C113 N116 1.391 . S
C114 H86 0.930 . S
C114 C113 1.390 . S
C114 C115 1.392 . S
C115 H87 0.929 . S
C115 C112 1.391 . S
C115 C114 1.392 . S
N116 Co60 2.257 . S
N116 C113 1.391 . S
N116 C117 1.388 . S
C117 H88 0.930 . S
C117 C112 1.391 . S
C117 N116 1.388 . S
Co118 O120 2.143 . S
Co118 O126 2.074 . S
Co118 O129 2.093 . S
Co118 O142 2.097 . S
Co118 N159 2.151 . S
Co118 N167 2.214 1_554 S
Co119 O120 2.160 . S
Co119 O125 2.058 . S
Co119 O135 2.057 . S
Co119 O150 2.037 . S
Co119 N154 2.145 . S
Co119 N175 2.257 . S
O120 Co118 2.143 . S
O120 Co119 2.160 . S
C121 O122 1.278 . S
C121 O129 1.224 . S
O122 C121 1.278 . S
C123 O124 1.245 . S
C123 O135 1.232 . S
O124 C123 1.245 . S
O125 Co119 2.058 . S
O125 C151 1.269 . S
O126 Co118 2.074 . S
O126 C151 1.257 . S
H127 C152 0.930 . S
H128 C158 0.930 . S
O129 Co118 2.093 . S
O129 C121 1.224 . S
H130 C162 0.929 . S
H131 C164 0.930 . S
H132 C165 0.930 . S
H133 C163 0.929 . S
H134 C166 0.928 . S
O135 Co119 2.057 . S
O135 C123 1.232 . S
H136 C155 0.929 . S
H137 C156 0.929 . S
H138 C168 0.931 . S
H139 C160 0.929 . S
H140 C169 0.930 . S
H141 C161 0.931 . S
O142 Co118 2.097 . S
O142 C170 1.214 . S
H143 C171 0.929 . S
H144 C172 0.929 . S
H145 C173 0.930 . S
H146 C174 0.929 . S
H147 C176 0.930 . S
H148 C153 0.930 . S
H149 C157 0.944 . S
O150 Co119 2.037 . S
O150 C170 1.234 . S
C151 O125 1.269 . S
C151 O126 1.257 . S
C152 H127 0.930 . S
C152 C155 1.388 1_545 S
C152 C157 1.417 . S
C153 H148 0.930 . S
C153 C156 1.404 . S
C153 C157 1.340 1_565 S
N154 Co119 2.145 . S
N154 C155 1.397 . S
N154 C156 1.334 . S
C155 H136 0.929 . S
C155 C152 1.388 1_565 S
C155 N154 1.397 . S
C156 H137 0.929 . S
C156 C153 1.404 . S
C156 N154 1.334 . S
C157 H149 0.944 . S
C157 C152 1.417 . S
C157 C153 1.340 1_545 S
C158 H128 0.930 . S
C158 N159 1.330 . S
C158 C160 1.446 . S
N159 Co118 2.151 . S
N159 C158 1.330 . S
N159 C163 1.418 . S
C160 H139 0.929 . S
C160 C158 1.446 . S
C160 C161 1.332 . S
C161 H141 0.931 . S
C161 C160 1.332 . S
C161 C162 1.267 . S
C162 H130 0.929 . S
C162 C161 1.267 . S
C162 C163 1.251 . S
C163 H133 0.929 . S
C163 N159 1.418 . S
C163 C162 1.251 . S
C164 H131 0.930 . S
C164 C166 1.406 . S
C164 C169 1.261 . S
C165 H132 0.930 . S
C165 N167 1.325 . S
C165 C168 1.357 . S
C166 H134 0.928 . S
C166 C164 1.406 . S
C166 N167 1.261 . S
N167 Co118 2.214 1_556 S
N167 C165 1.325 . S
N167 C166 1.261 . S
C168 H138 0.931 . S
C168 C165 1.357 . S
C168 C169 1.312 . S
C169 H140 0.930 . S
C169 C164 1.261 . S
C169 C168 1.312 . S
C170 O142 1.214 . S
C170 O150 1.234 . S
C171 H143 0.929 . S
C171 C174 1.391 . S
C171 C176 1.391 . S
C172 H144 0.929 . S
C172 C173 1.390 . S
C172 N175 1.391 . S
C173 H145 0.930 . S
C173 C172 1.390 . S
C173 C174 1.392 . S
C174 H146 0.929 . S
C174 C171 1.391 . S
C174 C173 1.392 . S
N175 Co119 2.257 . S
N175 C172 1.391 . S
N175 C176 1.388 . S
C176 H147 0.930 . S
C176 C171 1.391 . S
C176 N175 1.388 . S
Co177 O179 2.143 . S
Co177 O185 2.074 . S
Co177 O188 2.093 . S
Co177 O201 2.097 . S
Co177 N218 2.151 . S
Co177 N226 2.214 . S
Co178 O179 2.160 . S
Co178 O184 2.058 . S
Co178 O194 2.057 . S
Co178 O209 2.037 . S
Co178 N213 2.145 . S
Co178 N234 2.257 . S
O179 Co177 2.143 . S
O179 Co178 2.160 . S
C180 O181 1.278 . S
C180 O188 1.224 . S
O181 C180 1.278 . S
C182 O183 1.245 . S
C182 O194 1.232 . S
O183 C182 1.245 . S
O184 Co178 2.058 . S
O184 C210 1.269 . S
O185 Co177 2.074 . S
O185 C210 1.257 . S
H186 C211 0.930 . S
H187 C217 0.930 . S
O188 Co177 2.093 . S
O188 C180 1.224 . S
H189 C221 0.929 . S
H190 C223 0.930 . S
H191 C224 0.930 . S
H192 C222 0.929 . S
H193 C225 0.928 . S
O194 Co178 2.057 . S
O194 C182 1.232 . S
H195 C214 0.929 . S
H196 C215 0.929 . S
H197 C227 0.931 . S
H198 C219 0.929 . S
H199 C228 0.930 . S
H200 C220 0.931 . S
O201 Co177 2.097 . S
O201 C229 1.214 . S
H202 C230 0.929 . S
H203 C231 0.929 . S
H204 C232 0.930 . S
H205 C233 0.929 . S
H206 C235 0.930 . S
H207 C212 0.930 . S
H208 C216 0.942 . S
O209 Co178 2.037 . S
O209 C229 1.234 . S
C210 O184 1.269 . S
C210 O185 1.257 . S
C211 H186 0.930 . S
C211 C214 1.388 1_545 S
C211 C216 1.420 . S
C212 H207 0.930 . S
C212 C215 1.404 . S
C212 C216 1.339 1_565 S
N213 Co178 2.145 . S
N213 C214 1.397 . S
N213 C215 1.334 . S
C214 H195 0.929 . S
C214 C211 1.388 1_565 S
C214 N213 1.397 . S
C215 H196 0.929 . S
C215 C212 1.404 . S
C215 N213 1.334 . S
C216 H208 0.942 . S
C216 C211 1.420 . S
C216 C212 1.339 1_545 S
C217 H187 0.930 . S
C217 N218 1.330 . S
C217 C219 1.446 . S
N218 Co177 2.151 . S
N218 C217 1.330 . S
N218 C222 1.418 . S
C219 H198 0.929 . S
C219 C217 1.446 . S
C219 C220 1.332 . S
C220 H200 0.931 . S
C220 C219 1.332 . S
C220 C221 1.267 . S
C221 H189 0.929 . S
C221 C220 1.267 . S
C221 C222 1.251 . S
C222 H192 0.929 . S
C222 N218 1.418 . S
C222 C221 1.251 . S
C223 H190 0.930 . S
C223 C225 1.406 . S
C223 C228 1.261 . S
C224 H191 0.930 . S
C224 N226 1.325 . S
C224 C227 1.357 . S
C225 H193 0.928 . S
C225 C223 1.406 . S
C225 N226 1.261 . S
N226 Co177 2.214 . S
N226 C224 1.325 . S
N226 C225 1.261 . S
C227 H197 0.931 . S
C227 C224 1.357 . S
C227 C228 1.312 . S
C228 H199 0.930 . S
C228 C223 1.261 . S
C228 C227 1.312 . S
C229 O201 1.214 . S
C229 O209 1.234 . S
C230 H202 0.929 . S
C230 C233 1.391 . S
C230 C235 1.391 . S
C231 H203 0.929 . S
C231 C232 1.390 . S
C231 N234 1.391 . S
C232 H204 0.930 . S
C232 C231 1.390 . S
C232 C233 1.392 . S
C233 H205 0.929 . S
C233 C230 1.391 . S
C233 C232 1.392 . S
N234 Co178 2.257 . S
N234 C231 1.391 . S
N234 C235 1.388 . S
C235 H206 0.930 . S
C235 C230 1.391 . S
C235 N234 1.388 . S
Co236 O238 2.143 . S
Co236 O244 2.074 . S
Co236 O247 2.093 . S
Co236 O260 2.097 . S
Co236 N277 2.151 . S
Co236 N285 2.214 . S
Co237 O238 2.160 . S
Co237 O243 2.058 . S
Co237 O253 2.057 . S
Co237 O268 2.037 . S
Co237 N272 2.145 . S
Co237 N293 2.257 . S
O238 Co236 2.143 . S
O238 Co237 2.160 . S
C239 O240 1.278 . S
C239 O247 1.224 . S
O240 C239 1.278 . S
C241 O242 1.245 . S
C241 O253 1.232 . S
O242 C241 1.245 . S
O243 Co237 2.058 . S
O243 C269 1.269 . S
O244 Co236 2.074 . S
O244 C269 1.257 . S
H245 C270 0.930 . S
H246 C276 0.930 . S
O247 Co236 2.093 . S
O247 C239 1.224 . S
H248 C280 0.929 . S
H249 C282 0.930 . S
H250 C283 0.930 . S
H251 C281 0.929 . S
H252 C284 0.928 . S
O253 Co237 2.057 . S
O253 C241 1.232 . S
H254 C273 0.929 . S
H255 C274 0.929 . S
H256 C286 0.931 . S
H257 C278 0.929 . S
H258 C287 0.930 . S
H259 C279 0.931 . S
O260 Co236 2.097 . S
O260 C288 1.214 . S
H261 C289 0.929 . S
H262 C290 0.929 . S
H263 C291 0.930 . S
H264 C292 0.929 . S
H265 C294 0.930 . S
H266 C271 0.930 . S
H267 C275 0.944 . S
O268 Co237 2.037 . S
O268 C288 1.234 . S
C269 O243 1.269 . S
C269 O244 1.257 . S
C270 H245 0.930 . S
C270 C273 1.388 1_655 S
C270 C275 1.417 . S
C271 H266 0.930 . S
C271 C274 1.404 . S
C271 C275 1.340 1_455 S
N272 Co237 2.145 . S
N272 C273 1.397 . S
N272 C274 1.334 . S
C273 H254 0.929 . S
C273 C270 1.388 1_455 S
C273 N272 1.397 . S
C274 H255 0.929 . S
C274 C271 1.404 . S
C274 N272 1.334 . S
C275 H267 0.944 . S
C275 C270 1.417 . S
C275 C271 1.340 1_655 S
C276 H246 0.930 . S
C276 N277 1.330 . S
C276 C278 1.446 . S
N277 Co236 2.151 . S
N277 C276 1.330 . S
N277 C281 1.418 . S
C278 H257 0.929 . S
C278 C276 1.446 . S
C278 C279 1.332 . S
C279 H259 0.931 . S
C279 C278 1.332 . S
C279 C280 1.267 . S
C280 H248 0.929 . S
C280 C279 1.267 . S
C280 C281 1.251 . S
C281 H251 0.929 . S
C281 N277 1.418 . S
C281 C280 1.251 . S
C282 H249 0.930 . S
C282 C284 1.406 . S
C282 C287 1.261 . S
C283 H250 0.930 . S
C283 N285 1.325 . S
C283 C286 1.357 . S
C284 H252 0.928 . S
C284 C282 1.406 . S
C284 N285 1.261 . S
N285 Co236 2.214 . S
N285 C283 1.325 . S
N285 C284 1.261 . S
C286 H256 0.931 . S
C286 C283 1.357 . S
C286 C287 1.312 . S
C287 H258 0.930 . S
C287 C282 1.261 . S
C287 C286 1.312 . S
C288 O260 1.214 . S
C288 O268 1.234 . S
C289 H261 0.929 . S
C289 C292 1.391 . S
C289 C294 1.391 . S
C290 H262 0.929 . S
C290 C291 1.390 . S
C290 N293 1.391 . S
C291 H263 0.930 . S
C291 C290 1.390 . S
C291 C292 1.392 . S
C292 H264 0.929 . S
C292 C289 1.391 . S
C292 C291 1.392 . S
N293 Co237 2.257 . S
N293 C290 1.391 . S
N293 C294 1.388 . S
C294 H265 0.930 . S
C294 C289 1.391 . S
C294 N293 1.388 . S
Co295 O297 2.143 . S
Co295 O303 2.074 . S
Co295 O306 2.093 . S
Co295 O319 2.097 . S
Co295 N336 2.151 . S
Co295 N344 2.214 . S
Co296 O297 2.160 . S
Co296 O302 2.058 . S
Co296 O312 2.057 . S
Co296 O327 2.037 . S
Co296 N331 2.145 . S
Co296 N352 2.257 . S
O297 Co295 2.143 . S
O297 Co296 2.160 . S
C298 O299 1.278 . S
C298 O306 1.224 . S
O299 C298 1.278 . S
C300 O301 1.245 . S
C300 O312 1.232 . S
O301 C300 1.245 . S
O302 Co296 2.058 . S
O302 C328 1.269 . S
O303 Co295 2.074 . S
O303 C328 1.257 . S
H304 C329 0.930 . S
H305 C335 0.930 . S
O306 Co295 2.093 . S
O306 C298 1.224 . S
H307 C339 0.929 . S
H308 C341 0.930 . S
H309 C342 0.930 . S
H310 C340 0.929 . S
H311 C343 0.928 . S
O312 Co296 2.057 . S
O312 C300 1.232 . S
H313 C332 0.929 . S
H314 C333 0.929 . S
H315 C345 0.931 . S
H316 C337 0.929 . S
H317 C346 0.930 . S
H318 C338 0.931 . S
O319 Co295 2.097 . S
O319 C347 1.214 . S
H320 C348 0.929 . S
H321 C349 0.929 . S
H322 C350 0.930 . S
H323 C351 0.929 . S
H324 C353 0.930 . S
H325 C330 0.930 . S
H326 C334 0.930 . S
O327 Co296 2.037 . S
O327 C347 1.234 . S
C328 O302 1.269 . S
C328 O303 1.257 . S
C329 H304 0.930 . S
C329 C332 1.388 . S
C329 C334 1.418 . S
C330 H325 0.930 . S
C330 C333 1.404 . S
C330 C334 1.353 . S
N331 Co296 2.145 . S
N331 C332 1.397 . S
N331 C333 1.334 . S
C332 H313 0.929 . S
C332 C329 1.388 . S
C332 N331 1.397 . S
C333 H314 0.929 . S
C333 C330 1.404 . S
C333 N331 1.334 . S
C334 H326 0.930 . S
C334 C329 1.418 . S
C334 C330 1.353 . S
C335 H305 0.930 . S
C335 N336 1.330 . S
C335 C337 1.446 . S
N336 Co295 2.151 . S
N336 C335 1.330 . S
N336 C340 1.418 . S
C337 H316 0.929 . S
C337 C335 1.446 . S
C337 C338 1.332 . S
C338 H318 0.931 . S
C338 C337 1.332 . S
C338 C339 1.267 . S
C339 H307 0.929 . S
C339 C338 1.267 . S
C339 C340 1.251 . S
C340 H310 0.929 . S
C340 N336 1.418 . S
C340 C339 1.251 . S
C341 H308 0.930 . S
C341 C343 1.406 . S
C341 C346 1.261 . S
C342 H309 0.930 . S
C342 N344 1.325 . S
C342 C345 1.357 . S
C343 H311 0.928 . S
C343 C341 1.406 . S
C343 N344 1.261 . S
N344 Co295 2.214 . S
N344 C342 1.325 . S
N344 C343 1.261 . S
C345 H315 0.931 . S
C345 C342 1.357 . S
C345 C346 1.312 . S
C346 H317 0.930 . S
C346 C341 1.261 . S
C346 C345 1.312 . S
C347 O319 1.214 . S
C347 O327 1.234 . S
C348 H320 0.929 . S
C348 C351 1.391 . S
C348 C353 1.391 . S
C349 H321 0.929 . S
C349 C350 1.390 . S
C349 N352 1.391 . S
C350 H322 0.930 . S
C350 C349 1.390 . S
C350 C351 1.392 . S
C351 H323 0.929 . S
C351 C348 1.391 . S
C351 C350 1.392 . S
N352 Co296 2.257 . S
N352 C349 1.391 . S
N352 C353 1.388 . S
C353 H324 0.930 . S
C353 C348 1.391 . S
C353 N352 1.388 . S
Co354 O356 2.143 . S
Co354 O362 2.074 . S
Co354 O365 2.093 . S
Co354 O378 2.097 . S
Co354 N395 2.151 . S
Co354 N403 2.214 1_556 S
Co355 O356 2.160 . S
Co355 O361 2.058 . S
Co355 O371 2.057 . S
Co355 O386 2.037 . S
Co355 N390 2.145 . S
Co355 N411 2.257 . S
O356 Co354 2.143 . S
O356 Co355 2.160 . S
C357 O358 1.278 . S
C357 O365 1.224 . S
O358 C357 1.278 . S
C359 O360 1.245 . S
C359 O371 1.232 . S
O360 C359 1.245 . S
O361 Co355 2.058 . S
O361 C387 1.269 . S
O362 Co354 2.074 . S
O362 C387 1.257 . S
H363 C388 0.930 . S
H364 C394 0.930 . S
O365 Co354 2.093 . S
O365 C357 1.224 . S
H366 C398 0.929 . S
H367 C400 0.930 . S
H368 C401 0.930 . S
H369 C399 0.929 . S
H370 C402 0.928 . S
O371 Co355 2.057 . S
O371 C359 1.232 . S
H372 C391 0.929 . S
H373 C392 0.929 . S
H374 C404 0.931 . S
H375 C396 0.929 . S
H376 C405 0.930 . S
H377 C397 0.931 . S
O378 Co354 2.097 . S
O378 C406 1.214 . S
H379 C407 0.929 . S
H380 C408 0.929 . S
H381 C409 0.930 . S
H382 C410 0.929 . S
H383 C412 0.930 . S
H384 C389 0.930 . S
H385 C393 0.942 . S
O386 Co355 2.037 . S
O386 C406 1.234 . S
C387 O361 1.269 . S
C387 O362 1.257 . S
C388 H363 0.930 . S
C388 C391 1.388 1_455 S
C388 C393 1.420 . S
C389 H384 0.930 . S
C389 C392 1.404 . S
C389 C393 1.339 1_655 S
N390 Co355 2.145 . S
N390 C391 1.397 . S
N390 C392 1.334 . S
C391 H372 0.929 . S
C391 C388 1.388 1_655 S
C391 N390 1.397 . S
C392 H373 0.929 . S
C392 C389 1.404 . S
C392 N390 1.334 . S
C393 H385 0.942 . S
C393 C388 1.420 . S
C393 C389 1.339 1_455 S
C394 H364 0.930 . S
C394 N395 1.330 . S
C394 C396 1.446 . S
N395 Co354 2.151 . S
N395 C394 1.330 . S
N395 C399 1.418 . S
C396 H375 0.929 . S
C396 C394 1.446 . S
C396 C397 1.332 . S
C397 H377 0.931 . S
C397 C396 1.332 . S
C397 C398 1.267 . S
C398 H366 0.929 . S
C398 C397 1.267 . S
C398 C399 1.251 . S
C399 H369 0.929 . S
C399 N395 1.418 . S
C399 C398 1.251 . S
C400 H367 0.930 . S
C400 C402 1.406 . S
C400 C405 1.261 . S
C401 H368 0.930 . S
C401 N403 1.325 . S
C401 C404 1.357 . S
C402 H370 0.928 . S
C402 C400 1.406 . S
C402 N403 1.261 . S
N403 Co354 2.214 1_554 S
N403 C401 1.325 . S
N403 C402 1.261 . S
C404 H374 0.931 . S
C404 C401 1.357 . S
C404 C405 1.312 . S
C405 H376 0.930 . S
C405 C400 1.261 . S
C405 C404 1.312 . S
C406 O378 1.214 . S
C406 O386 1.234 . S
C407 H379 0.929 . S
C407 C410 1.391 . S
C407 C412 1.391 . S
C408 H380 0.929 . S
C408 C409 1.390 . S
C408 N411 1.391 . S
C409 H381 0.930 . S
C409 C408 1.390 . S
C409 C410 1.392 . S
C410 H382 0.929 . S
C410 C407 1.391 . S
C410 C409 1.392 . S
N411 Co355 2.257 . S
N411 C408 1.391 . S
N411 C412 1.388 . S
C412 H383 0.930 . S
C412 C407 1.391 . S
C412 N411 1.388 . S
Co413 O415 2.143 . S
Co413 O421 2.074 . S
Co413 O424 2.093 . S
Co413 O437 2.097 . S
Co413 N454 2.151 . S
Co413 N462 2.214 1_556 S
Co414 O415 2.160 . S
Co414 O420 2.058 . S
Co414 O430 2.057 . S
Co414 O445 2.037 . S
Co414 N449 2.145 . S
Co414 N470 2.257 . S
O415 Co413 2.143 . S
O415 Co414 2.160 . S
C416 O417 1.278 . S
C416 O424 1.224 . S
O417 C416 1.278 . S
C418 O419 1.245 . S
C418 O430 1.232 . S
O419 C418 1.245 . S
O420 Co414 2.058 . S
O420 C446 1.269 . S
O421 Co413 2.074 . S
O421 C446 1.257 . S
H422 C447 0.930 . S
H423 C453 0.930 . S
O424 Co413 2.093 . S
O424 C416 1.224 . S
H425 C457 0.929 . S
H426 C459 0.930 . S
H427 C460 0.930 . S
H428 C458 0.929 . S
H429 C461 0.928 . S
O430 Co414 2.057 . S
O430 C418 1.232 . S
H431 C450 0.929 . S
H432 C451 0.929 . S
H433 C463 0.931 . S
H434 C455 0.929 . S
H435 C464 0.930 . S
H436 C456 0.931 . S
O437 Co413 2.097 . S
O437 C465 1.214 . S
H438 C466 0.929 . S
H439 C467 0.929 . S
H440 C468 0.930 . S
H441 C469 0.929 . S
H442 C471 0.930 . S
H443 C448 0.930 . S
H444 C452 0.930 . S
O445 Co414 2.037 . S
O445 C465 1.234 . S
C446 O420 1.269 . S
C446 O421 1.257 . S
C447 H422 0.930 . S
C447 C450 1.388 . S
C447 C452 1.418 . S
C448 H443 0.930 . S
C448 C451 1.404 . S
C448 C452 1.353 . S
N449 Co414 2.145 . S
N449 C450 1.397 . S
N449 C451 1.334 . S
C450 H431 0.929 . S
C450 C447 1.388 . S
C450 N449 1.397 . S
C451 H432 0.929 . S
C451 C448 1.404 . S
C451 N449 1.334 . S
C452 H444 0.930 . S
C452 C447 1.418 . S
C452 C448 1.353 . S
C453 H423 0.930 . S
C453 N454 1.330 . S
C453 C455 1.446 . S
N454 Co413 2.151 . S
N454 C453 1.330 . S
N454 C458 1.418 . S
C455 H434 0.929 . S
C455 C453 1.446 . S
C455 C456 1.332 . S
C456 H436 0.931 . S
C456 C455 1.332 . S
C456 C457 1.267 . S
C457 H425 0.929 . S
C457 C456 1.267 . S
C457 C458 1.251 . S
C458 H428 0.929 . S
C458 N454 1.418 . S
C458 C457 1.251 . S
C459 H426 0.930 . S
C459 C461 1.406 . S
C459 C464 1.261 . S
C460 H427 0.930 . S
C460 N462 1.325 . S
C460 C463 1.357 . S
C461 H429 0.928 . S
C461 C459 1.406 . S
C461 N462 1.261 . S
N462 Co413 2.214 1_554 S
N462 C460 1.325 . S
N462 C461 1.261 . S
C463 H433 0.931 . S
C463 C460 1.357 . S
C463 C464 1.312 . S
C464 H435 0.930 . S
C464 C459 1.261 . S
C464 C463 1.312 . S
C465 O437 1.214 . S
C465 O445 1.234 . S
C466 H438 0.929 . S
C466 C469 1.391 . S
C466 C471 1.391 . S
C467 H439 0.929 . S
C467 C468 1.390 . S
C467 N470 1.391 . S
C468 H440 0.930 . S
C468 C467 1.390 . S
C468 C469 1.392 . S
C469 H441 0.929 . S
C469 C466 1.391 . S
C469 C468 1.392 . S
N470 Co414 2.257 . S
N470 C467 1.391 . S
N470 C471 1.388 . S
C471 H442 0.930 . S
C471 C466 1.391 . S
C471 N470 1.388 . S
Co472 O474 2.143 . S
Co472 O480 2.074 . S
Co472 O483 2.093 . S
Co472 O496 2.097 . S
Co472 N513 2.151 . S
Co472 N521 2.214 1_556 S
Co473 O474 2.160 . S
Co473 O479 2.058 . S
Co473 O489 2.057 . S
Co473 O504 2.037 . S
Co473 N508 2.145 . S
Co473 N529 2.257 . S
O474 Co472 2.143 . S
O474 Co473 2.160 . S
C475 O476 1.278 . S
C475 O483 1.224 . S
O476 C475 1.278 . S
C477 O478 1.245 . S
C477 O489 1.232 . S
O478 C477 1.245 . S
O479 Co473 2.058 . S
O479 C505 1.269 . S
O480 Co472 2.074 . S
O480 C505 1.257 . S
H481 C506 0.930 . S
H482 C512 0.930 . S
O483 Co472 2.093 . S
O483 C475 1.224 . S
H484 C516 0.929 . S
H485 C518 0.930 . S
H486 C519 0.930 . S
H487 C517 0.929 . S
H488 C520 0.928 . S
O489 Co473 2.057 . S
O489 C477 1.232 . S
H490 C509 0.929 . S
H491 C510 0.929 . S
H492 C522 0.931 . S
H493 C514 0.929 . S
H494 C523 0.930 . S
H495 C515 0.931 . S
O496 Co472 2.097 . S
O496 C524 1.214 . S
H497 C525 0.929 . S
H498 C526 0.929 . S
H499 C527 0.930 . S
H500 C528 0.929 . S
H501 C530 0.930 . S
H502 C507 0.930 . S
H503 C511 0.944 . S
O504 Co473 2.037 . S
O504 C524 1.234 . S
C505 O479 1.269 . S
C505 O480 1.257 . S
C506 H481 0.930 . S
C506 C509 1.388 1_565 S
C506 C511 1.417 . S
C507 H502 0.930 . S
C507 C510 1.404 . S
C507 C511 1.340 1_545 S
N508 Co473 2.145 . S
N508 C509 1.397 . S
N508 C510 1.334 . S
C509 H490 0.929 . S
C509 C506 1.388 1_545 S
C509 N508 1.397 . S
C510 H491 0.929 . S
C510 C507 1.404 . S
C510 N508 1.334 . S
C511 H503 0.944 . S
C511 C506 1.417 . S
C511 C507 1.340 1_565 S
C512 H482 0.930 . S
C512 N513 1.330 . S
C512 C514 1.446 . S
N513 Co472 2.151 . S
N513 C512 1.330 . S
N513 C517 1.418 . S
C514 H493 0.929 . S
C514 C512 1.446 . S
C514 C515 1.332 . S
C515 H495 0.931 . S
C515 C514 1.332 . S
C515 C516 1.267 . S
C516 H484 0.929 . S
C516 C515 1.267 . S
C516 C517 1.251 . S
C517 H487 0.929 . S
C517 N513 1.418 . S
C517 C516 1.251 . S
C518 H485 0.930 . S
C518 C520 1.406 . S
C518 C523 1.261 . S
C519 H486 0.930 . S
C519 N521 1.325 . S
C519 C522 1.357 . S
C520 H488 0.928 . S
C520 C518 1.406 . S
C520 N521 1.261 . S
N521 Co472 2.214 1_554 S
N521 C519 1.325 . S
N521 C520 1.261 . S
C522 H492 0.931 . S
C522 C519 1.357 . S
C522 C523 1.312 . S
C523 H494 0.930 . S
C523 C518 1.261 . S
C523 C522 1.312 . S
C524 O496 1.214 . S
C524 O504 1.234 . S
C525 H497 0.929 . S
C525 C528 1.391 . S
C525 C530 1.391 . S
C526 H498 0.929 . S
C526 C527 1.390 . S
C526 N529 1.391 . S
C527 H499 0.930 . S
C527 C526 1.390 . S
C527 C528 1.392 . S
C528 H500 0.929 . S
C528 C525 1.391 . S
C528 C527 1.392 . S
N529 Co473 2.257 . S
N529 C526 1.391 . S
N529 C530 1.388 . S
C530 H501 0.930 . S
C530 C525 1.391 . S
C530 N529 1.388 . S
Co531 O533 2.143 . S
Co531 O539 2.074 . S
Co531 O542 2.093 . S
Co531 O555 2.097 . S
Co531 N572 2.151 . S
Co531 N580 2.214 . S
Co532 O533 2.160 . S
Co532 O538 2.058 . S
Co532 O548 2.057 . S
Co532 O563 2.037 . S
Co532 N567 2.145 . S
Co532 N588 2.257 . S
O533 Co531 2.143 . S
O533 Co532 2.160 . S
C534 O535 1.278 . S
C534 O542 1.224 . S
O535 C534 1.278 . S
C536 O537 1.245 . S
C536 O548 1.232 . S
O537 C536 1.245 . S
O538 Co532 2.058 . S
O538 C564 1.269 . S
O539 Co531 2.074 . S
O539 C564 1.257 . S
H540 C565 0.930 . S
H541 C571 0.930 . S
O542 Co531 2.093 . S
O542 C534 1.224 . S
H543 C575 0.929 . S
H544 C577 0.930 . S
H545 C578 0.930 . S
H546 C576 0.929 . S
H547 C579 0.928 . S
O548 Co532 2.057 . S
O548 C536 1.232 . S
H549 C568 0.929 . S
H550 C569 0.929 . S
H551 C581 0.931 . S
H552 C573 0.929 . S
H553 C582 0.930 . S
H554 C574 0.931 . S
O555 Co531 2.097 . S
O555 C583 1.214 . S
H556 C584 0.929 . S
H557 C585 0.929 . S
H558 C586 0.930 . S
H559 C587 0.929 . S
H560 C589 0.930 . S
H561 C566 0.930 . S
H562 C570 0.942 . S
O563 Co532 2.037 . S
O563 C583 1.234 . S
C564 O538 1.269 . S
C564 O539 1.257 . S
C565 H540 0.930 . S
C565 C568 1.388 1_565 S
C565 C570 1.420 . S
C566 H561 0.930 . S
C566 C569 1.404 . S
C566 C570 1.339 1_545 S
N567 Co532 2.145 . S
N567 C568 1.397 . S
N567 C569 1.334 . S
C568 H549 0.929 . S
C568 C565 1.388 1_545 S
C568 N567 1.397 . S
C569 H550 0.929 . S
C569 C566 1.404 . S
C569 N567 1.334 . S
C570 H562 0.942 . S
C570 C565 1.420 . S
C570 C566 1.339 1_565 S
C571 H541 0.930 . S
C571 N572 1.330 . S
C571 C573 1.446 . S
N572 Co531 2.151 . S
N572 C571 1.330 . S
N572 C576 1.418 . S
C573 H552 0.929 . S
C573 C571 1.446 . S
C573 C574 1.332 . S
C574 H554 0.931 . S
C574 C573 1.332 . S
C574 C575 1.267 . S
C575 H543 0.929 . S
C575 C574 1.267 . S
C575 C576 1.251 . S
C576 H546 0.929 . S
C576 N572 1.418 . S
C576 C575 1.251 . S
C577 H544 0.930 . S
C577 C579 1.406 . S
C577 C582 1.261 . S
C578 H545 0.930 . S
C578 N580 1.325 . S
C578 C581 1.357 . S
C579 H547 0.928 . S
C579 C577 1.406 . S
C579 N580 1.261 . S
N580 Co531 2.214 . S
N580 C578 1.325 . S
N580 C579 1.261 . S
C581 H551 0.931 . S
C581 C578 1.357 . S
C581 C582 1.312 . S
C582 H553 0.930 . S
C582 C577 1.261 . S
C582 C581 1.312 . S
C583 O555 1.214 . S
C583 O563 1.234 . S
C584 H556 0.929 . S
C584 C587 1.391 . S
C584 C589 1.391 . S
C585 H557 0.929 . S
C585 C586 1.390 . S
C585 N588 1.391 . S
C586 H558 0.930 . S
C586 C585 1.390 . S
C586 C587 1.392 . S
C587 H559 0.929 . S
C587 C584 1.391 . S
C587 C586 1.392 . S
N588 Co532 2.257 . S
N588 C585 1.391 . S
N588 C589 1.388 . S
C589 H560 0.930 . S
C589 C584 1.391 . S
C589 N588 1.388 . S
Co590 O592 2.143 . S
Co590 O598 2.074 . S
Co590 O601 2.093 . S
Co590 O614 2.097 . S
Co590 N631 2.151 . S
Co590 N639 2.214 . S
Co591 O592 2.160 . S
Co591 O597 2.058 . S
Co591 O607 2.057 . S
Co591 O622 2.037 . S
Co591 N626 2.145 . S
Co591 N647 2.257 . S
O592 Co590 2.143 . S
O592 Co591 2.160 . S
C593 O594 1.278 . S
C593 O601 1.224 . S
O594 C593 1.278 . S
C595 O596 1.245 . S
C595 O607 1.232 . S
O596 C595 1.245 . S
O597 Co591 2.058 . S
O597 C623 1.269 . S
O598 Co590 2.074 . S
O598 C623 1.257 . S
H599 C624 0.930 . S
H600 C630 0.930 . S
O601 Co590 2.093 . S
O601 C593 1.224 . S
H602 C634 0.929 . S
H603 C636 0.930 . S
H604 C637 0.930 . S
H605 C635 0.929 . S
H606 C638 0.928 . S
O607 Co591 2.057 . S
O607 C595 1.232 . S
H608 C627 0.929 . S
H609 C628 0.929 . S
H610 C640 0.931 . S
H611 C632 0.929 . S
H612 C641 0.930 . S
H613 C633 0.931 . S
O614 Co590 2.097 . S
O614 C642 1.214 . S
H615 C643 0.929 . S
H616 C644 0.929 . S
H617 C645 0.930 . S
H618 C646 0.929 . S
H619 C648 0.930 . S
H620 C625 0.930 . S
H621 C629 0.944 . S
O622 Co591 2.037 . S
O622 C642 1.234 . S
C623 O597 1.269 . S
C623 O598 1.257 . S
C624 H599 0.930 . S
C624 C627 1.388 1_455 S
C624 C629 1.417 . S
C625 H620 0.930 . S
C625 C628 1.404 . S
C625 C629 1.340 1_655 S
N626 Co591 2.145 . S
N626 C627 1.397 . S
N626 C628 1.334 . S
C627 H608 0.929 . S
C627 C624 1.388 1_655 S
C627 N626 1.397 . S
C628 H609 0.929 . S
C628 C625 1.404 . S
C628 N626 1.334 . S
C629 H621 0.944 . S
C629 C624 1.417 . S
C629 C625 1.340 1_455 S
C630 H600 0.930 . S
C630 N631 1.330 . S
C630 C632 1.446 . S
N631 Co590 2.151 . S
N631 C630 1.330 . S
N631 C635 1.418 . S
C632 H611 0.929 . S
C632 C630 1.446 . S
C632 C633 1.332 . S
C633 H613 0.931 . S
C633 C632 1.332 . S
C633 C634 1.267 . S
C634 H602 0.929 . S
C634 C633 1.267 . S
C634 C635 1.251 . S
C635 H605 0.929 . S
C635 N631 1.418 . S
C635 C634 1.251 . S
C636 H603 0.930 . S
C636 C638 1.406 . S
C636 C641 1.261 . S
C637 H604 0.930 . S
C637 N639 1.325 . S
C637 C640 1.357 . S
C638 H606 0.928 . S
C638 C636 1.406 . S
C638 N639 1.261 . S
N639 Co590 2.214 . S
N639 C637 1.325 . S
N639 C638 1.261 . S
C640 H610 0.931 . S
C640 C637 1.357 . S
C640 C641 1.312 . S
C641 H612 0.930 . S
C641 C636 1.261 . S
C641 C640 1.312 . S
C642 O614 1.214 . S
C642 O622 1.234 . S
C643 H615 0.929 . S
C643 C646 1.391 . S
C643 C648 1.391 . S
C644 H616 0.929 . S
C644 C645 1.390 . S
C644 N647 1.391 . S
C645 H617 0.930 . S
C645 C644 1.390 . S
C645 C646 1.392 . S
C646 H618 0.929 . S
C646 C643 1.391 . S
C646 C645 1.392 . S
N647 Co591 2.257 . S
N647 C644 1.391 . S
N647 C648 1.388 . S
C648 H619 0.930 . S
C648 C643 1.391 . S
C648 N647 1.388 . S
Co649 O651 2.143 . S
Co649 O657 2.074 . S
Co649 O660 2.093 . S
Co649 O673 2.097 . S
Co649 N690 2.151 . S
Co649 N698 2.214 . S
Co650 O651 2.160 . S
Co650 O656 2.058 . S
Co650 O666 2.057 . S
Co650 O681 2.037 . S
Co650 N685 2.145 . S
Co650 N706 2.257 . S
O651 Co649 2.143 . S
O651 Co650 2.160 . S
C652 O653 1.278 . S
C652 O660 1.224 . S
O653 C652 1.278 . S
C654 O655 1.245 . S
C654 O666 1.232 . S
O655 C654 1.245 . S
O656 Co650 2.058 . S
O656 C682 1.269 . S
O657 Co649 2.074 . S
O657 C682 1.257 . S
H658 C683 0.930 . S
H659 C689 0.930 . S
O660 Co649 2.093 . S
O660 C652 1.224 . S
H661 C693 0.929 . S
H662 C695 0.930 . S
H663 C696 0.930 . S
H664 C694 0.929 . S
H665 C697 0.928 . S
O666 Co650 2.057 . S
O666 C654 1.232 . S
H667 C686 0.929 . S
H668 C687 0.929 . S
H669 C699 0.931 . S
H670 C691 0.929 . S
H671 C700 0.930 . S
H672 C692 0.931 . S
O673 Co649 2.097 . S
O673 C701 1.214 . S
H674 C702 0.929 . S
H675 C703 0.929 . S
H676 C704 0.930 . S
H677 C705 0.929 . S
H678 C707 0.930 . S
H679 C684 0.930 . S
H680 C688 0.930 . S
O681 Co650 2.037 . S
O681 C701 1.234 . S
C682 O656 1.269 . S
C682 O657 1.257 . S
C683 H658 0.930 . S
C683 C686 1.388 . S
C683 C688 1.418 . S
C684 H679 0.930 . S
C684 C687 1.404 . S
C684 C688 1.353 . S
N685 Co650 2.145 . S
N685 C686 1.397 . S
N685 C687 1.334 . S
C686 H667 0.929 . S
C686 C683 1.388 . S
C686 N685 1.397 . S
C687 H668 0.929 . S
C687 C684 1.404 . S
C687 N685 1.334 . S
C688 H680 0.930 . S
C688 C683 1.418 . S
C688 C684 1.353 . S
C689 H659 0.930 . S
C689 N690 1.330 . S
C689 C691 1.446 . S
N690 Co649 2.151 . S
N690 C689 1.330 . S
N690 C694 1.418 . S
C691 H670 0.929 . S
C691 C689 1.446 . S
C691 C692 1.332 . S
C692 H672 0.931 . S
C692 C691 1.332 . S
C692 C693 1.267 . S
C693 H661 0.929 . S
C693 C692 1.267 . S
C693 C694 1.251 . S
C694 H664 0.929 . S
C694 N690 1.418 . S
C694 C693 1.251 . S
C695 H662 0.930 . S
C695 C697 1.406 . S
C695 C700 1.261 . S
C696 H663 0.930 . S
C696 N698 1.325 . S
C696 C699 1.357 . S
C697 H665 0.928 . S
C697 C695 1.406 . S
C697 N698 1.261 . S
N698 Co649 2.214 . S
N698 C696 1.325 . S
N698 C697 1.261 . S
C699 H669 0.931 . S
C699 C696 1.357 . S
C699 C700 1.312 . S
C700 H671 0.930 . S
C700 C695 1.261 . S
C700 C699 1.312 . S
C701 O673 1.214 . S
C701 O681 1.234 . S
C702 H674 0.929 . S
C702 C705 1.391 . S
C702 C707 1.391 . S
C703 H675 0.929 . S
C703 C704 1.390 . S
C703 N706 1.391 . S
C704 H676 0.930 . S
C704 C703 1.390 . S
C704 C705 1.392 . S
C705 H677 0.929 . S
C705 C702 1.391 . S
C705 C704 1.392 . S
N706 Co650 2.257 . S
N706 C703 1.391 . S
N706 C707 1.388 . S
C707 H678 0.930 . S
C707 C702 1.391 . S
C707 N706 1.388 . S
C708 C709 1.349 . S
C708 C710 1.327 . S
C708 H733 0.950 . S
C709 C708 1.349 . S
C709 C725 1.349 . S
C710 C708 1.327 . S
C710 C729 1.429 . S
C710 H734 0.950 . S
C711 C728 1.574 . S
C711 C730 1.368 1_556 S
C711 H735 0.949 . S
H712 C716 0.949 . S
C713 C714 1.349 . S
C713 C715 1.327 . S
C713 H736 0.950 . S
C714 C713 1.349 . S
C714 C726 1.349 . S
C715 C713 1.327 . S
C715 C731 1.429 . S
C715 H737 0.950 . S
C716 H712 0.949 . S
C716 C724 1.574 . S
C716 C732 1.368 1_554 S
H717 C725 0.950 1_556 S
H718 C723 0.930 1_556 S
H719 C724 0.949 . S
H720 C726 0.944 1_554 S
H721 C727 0.950 1_554 S
H722 C728 0.949 . S
C723 H718 0.930 1_554 S
C723 C725 1.334 . S
C723 C729 1.440 . S
C724 C716 1.574 . S
C724 H719 0.949 . S
C724 C730 1.368 . S
C725 C709 1.349 . S
C725 H717 0.950 1_554 S
C725 C723 1.334 . S
C726 C714 1.349 . S
C726 H720 0.944 1_556 S
C726 C727 1.327 . S
C727 H721 0.950 1_556 S
C727 C726 1.327 . S
C727 C731 1.429 . S
C728 C711 1.574 . S
C728 H722 0.949 . S
C728 C732 1.368 . S
C729 C710 1.429 . S
C729 C723 1.440 . S
C729 C730 1.523 . S
C730 C711 1.368 1_554 S
C730 C724 1.368 . S
C730 C729 1.523 . S
C731 C715 1.429 . S
C731 C727 1.429 . S
C731 C732 1.523 . S
C732 C716 1.368 1_556 S
C732 C728 1.368 . S
C732 C731 1.523 . S
H733 C708 0.950 . S
H734 C710 0.950 . S
H735 C711 0.949 . S
H736 C713 0.950 . S
H737 C715 0.950 . S
C738 C739 1.349 . S
C738 C740 1.327 . S
C738 H763 0.950 . S
C739 C738 1.349 . S
C739 C755 1.349 . S
C740 C738 1.327 . S
C740 C759 1.429 . S
C740 H764 0.950 1_554 S
C741 C758 1.574 . S
C741 C760 1.368 . S
C741 H765 0.949 . S
H742 C746 0.949 . S
C743 C744 1.349 . S
C743 C745 1.327 . S
C743 H766 0.950 . S
C744 C743 1.349 . S
C744 C756 1.349 . S
C745 C743 1.327 . S
C745 C761 1.429 1_545 S
C745 H767 0.950 1_556 S
C746 H742 0.949 . S
C746 C754 1.574 . S
C746 C762 1.368 . S
H747 C755 0.950 . S
H748 C753 0.950 . S
H749 C754 0.949 . S
H750 C756 0.950 . S
H751 C757 0.950 . S
H752 C758 0.949 . S
C753 H748 0.950 . S
C753 C755 1.327 . S
C753 C759 1.429 . S
C754 C746 1.574 . S
C754 H749 0.949 . S
C754 C760 1.368 1_556 S
C755 C739 1.349 . S
C755 H747 0.950 . S
C755 C753 1.327 . S
C756 C744 1.349 . S
C756 H750 0.950 . S
C756 C757 1.327 1_545 S
C757 H751 0.950 . S
C757 C756 1.327 1_565 S
C757 C761 1.429 . S
C758 C741 1.574 . S
C758 H752 0.949 . S
C758 C762 1.368 1_554 S
C759 C740 1.429 . S
C759 C753 1.429 . S
C759 C760 1.523 . S
C760 C741 1.368 . S
C760 C754 1.368 1_554 S
C760 C759 1.523 . S
C761 C745 1.429 1_565 S
C761 C757 1.429 . S
C761 C762 1.523 . S
C762 C746 1.368 . S
C762 C758 1.368 1_556 S
C762 C761 1.523 . S
H763 C738 0.950 . S
H764 C740 0.950 1_556 S
H765 C741 0.949 . S
H766 C743 0.950 . S
H767 C745 0.950 1_554 S
C768 C769 1.349 . S
C768 C770 1.312 1_554 S
C768 H793 0.950 1_554 S
C769 C768 1.349 . S
C769 C785 1.349 . S
C770 C768 1.312 1_556 S
C770 C789 1.400 1_556 S
C770 H794 0.995 . S
C771 C788 1.574 . S
C771 C790 1.368 . S
C771 H795 0.949 . S
H772 C776 0.949 . S
C773 C774 1.349 . S
C773 C775 1.336 . S
C773 H796 0.950 1_556 S
C774 C773 1.349 . S
C774 C786 1.349 . S
C775 C773 1.336 . S
C775 C791 1.445 1_655 S
C775 H797 0.924 1_556 S
C776 H772 0.949 . S
C776 C784 1.574 . S
C776 C792 1.368 . S
H777 C785 0.950 . S
H778 C783 0.950 . S
H779 C784 0.949 . S
H780 C786 0.950 . S
H781 C787 0.950 . S
H782 C788 0.949 . S
C783 H778 0.950 . S
C783 C785 1.327 . S
C783 C789 1.429 . S
C784 C776 1.574 . S
C784 H779 0.949 . S
C784 C790 1.368 1_556 S
C785 C769 1.349 . S
C785 H777 0.950 . S
C785 C783 1.327 . S
C786 C774 1.349 . S
C786 H780 0.950 . S
C786 C787 1.327 1_655 S
C787 H781 0.950 . S
C787 C786 1.327 1_455 S
C787 C791 1.429 . S
C788 C771 1.574 . S
C788 H782 0.949 . S
C788 C792 1.368 1_554 S
C789 C770 1.400 1_554 S
C789 C783 1.429 . S
C789 C790 1.523 . S
C790 C771 1.368 . S
C790 C784 1.368 1_554 S
C790 C789 1.523 . S
C791 C775 1.445 1_455 S
C791 C787 1.429 . S
C791 C792 1.523 . S
C792 C776 1.368 . S
C792 C788 1.368 1_556 S
C792 C791 1.523 . S
H793 C768 0.950 1_556 S
H794 C770 0.995 . S
H795 C771 0.949 . S
H796 C773 0.950 1_554 S
H797 C775 0.924 1_554 S
C798 C799 1.349 . S
C798 C800 1.327 . S
C798 H823 0.950 . S
C799 C798 1.349 . S
C799 C815 1.349 . S
C800 C798 1.327 . S
C800 C819 1.429 . S
C800 H824 0.950 . S
C801 C818 1.574 . S
C801 C820 1.368 . S
C801 H825 0.949 . S
H802 C806 0.949 . S
C803 C804 1.349 . S
C803 C805 1.327 . S
C803 H826 0.950 . S
C804 C803 1.349 . S
C804 C816 1.349 . S
C805 C803 1.327 . S
C805 C821 1.429 . S
C805 H827 0.950 . S
C806 H802 0.949 . S
C806 C814 1.574 . S
C806 C822 1.368 . S
H807 C815 0.950 . S
H808 C813 0.950 . S
H809 C814 0.949 . S
H810 C816 0.950 . S
H811 C817 0.950 . S
H812 C818 0.949 . S
C813 H808 0.950 . S
C813 C815 1.327 . S
C813 C819 1.429 . S
C814 C806 1.574 . S
C814 H809 0.949 . S
C814 C820 1.368 . S
C815 C799 1.349 . S
C815 H807 0.950 . S
C815 C813 1.327 . S
C816 C804 1.349 . S
C816 H810 0.950 . S
C816 C817 1.327 . S
C817 H811 0.950 . S
C817 C816 1.327 . S
C817 C821 1.429 . S
C818 C801 1.574 . S
C818 H812 0.949 . S
C818 C822 1.368 . S
C819 C800 1.429 . S
C819 C813 1.429 . S
C819 C820 1.523 . S
C820 C801 1.368 . S
C820 C814 1.368 . S
C820 C819 1.523 . S
C821 C805 1.429 . S
C821 C817 1.429 . S
C821 C822 1.523 . S
C822 C806 1.368 . S
C822 C818 1.368 . S
C822 C821 1.523 . S
H823 C798 0.950 . S
H824 C800 0.950 . S
H825 C801 0.949 . S
H826 C803 0.950 . S
H827 C805 0.950 . S
C828 C829 1.349 . S
C828 C830 1.327 . S
C828 H853 0.950 . S
C829 C828 1.349 . S
C829 C845 1.349 . S
C830 C828 1.327 . S
C830 C849 1.429 . S
C830 H854 0.950 . S
C831 C848 1.574 . S
C831 C850 1.368 . S
C831 H855 0.949 . S
H832 C836 0.949 . S
C833 C834 1.349 . S
C833 C835 1.327 1_545 S
C833 H856 0.950 . S
C834 C833 1.349 . S
C834 C846 1.349 . S
C835 C833 1.327 1_565 S
C835 C851 1.429 . S
C835 H857 0.950 . S
C836 H832 0.949 . S
C836 C844 1.574 . S
C836 C852 1.368 . S
H837 C845 0.950 . S
H838 C843 0.950 . S
H839 C844 0.949 . S
H840 C846 0.950 . S
H841 C847 0.950 . S
H842 C848 0.949 . S
C843 H838 0.950 . S
C843 C845 1.327 . S
C843 C849 1.429 . S
C844 C836 1.574 . S
C844 H839 0.949 . S
C844 C850 1.368 . S
C845 C829 1.349 . S
C845 H837 0.950 . S
C845 C843 1.327 . S
C846 C834 1.349 . S
C846 H840 0.950 . S
C846 C847 1.327 . S
C847 H841 0.950 . S
C847 C846 1.327 . S
C847 C851 1.429 1_545 S
C848 C831 1.574 . S
C848 H842 0.949 . S
C848 C852 1.368 . S
C849 C830 1.429 . S
C849 C843 1.429 . S
C849 C850 1.523 . S
C850 C831 1.368 . S
C850 C844 1.368 . S
C850 C849 1.523 . S
C851 C835 1.429 . S
C851 C847 1.429 1_565 S
C851 C852 1.523 . S
C852 C836 1.368 . S
C852 C848 1.368 . S
C852 C851 1.523 . S
H853 C828 0.950 . S
H854 C830 0.950 . S
H855 C831 0.949 . S
H856 C833 0.950 . S
H857 C835 0.950 . S
C858 C859 1.349 . S
C858 C860 1.327 1_655 S
C858 H883 0.950 . S
C859 C858 1.349 . S
C859 C875 1.349 . S
C860 C858 1.327 1_455 S
C860 C879 1.429 . S
C860 H884 0.950 . S
C861 C878 1.574 . S
C861 C880 1.368 . S
C861 H885 0.949 . S
H862 C866 0.949 . S
C863 C864 1.349 . S
C863 C865 1.327 . S
C863 H886 0.950 . S
C864 C863 1.349 . S
C864 C876 1.349 . S
C865 C863 1.327 . S
C865 C881 1.429 . S
C865 H887 0.950 . S
C866 H862 0.949 . S
C866 C874 1.574 . S
C866 C882 1.368 . S
H867 C875 0.950 . S
H868 C873 0.950 . S
H869 C874 0.949 . S
H870 C876 0.950 . S
H871 C877 0.950 . S
H872 C878 0.949 . S
C873 H868 0.950 . S
C873 C875 1.327 . S
C873 C879 1.429 1_655 S
C874 C866 1.574 . S
C874 H869 0.949 . S
C874 C880 1.368 . S
C875 C859 1.349 . S
C875 H867 0.950 . S
C875 C873 1.327 . S
C876 C864 1.349 . S
C876 H870 0.950 . S
C876 C877 1.327 . S
C877 H871 0.950 . S
C877 C876 1.327 . S
C877 C881 1.429 . S
C878 C861 1.574 . S
C878 H872 0.949 . S
C878 C882 1.368 . S
C879 C860 1.429 . S
C879 C873 1.429 1_455 S
C879 C880 1.523 . S
C880 C861 1.368 . S
C880 C874 1.368 . S
C880 C879 1.523 . S
C881 C865 1.429 . S
C881 C877 1.429 . S
C881 C882 1.523 . S
C882 C866 1.368 . S
C882 C878 1.368 . S
C882 C881 1.523 . S
H883 C858 0.950 . S
H884 C860 0.950 . S
H885 C861 0.949 . S
H886 C863 0.950 . S
H887 C865 0.950 . S
C888 C889 1.349 . S
C888 C890 1.327 . S
C888 H913 0.950 . S
C889 C888 1.349 . S
C889 C905 1.349 . S
C890 C888 1.327 . S
C890 C909 1.429 . S
C890 H914 0.950 . S
C891 C908 1.574 . S
C891 C910 1.368 1_556 S
C891 H915 0.949 . S
H892 C896 0.949 . S
C893 C894 1.349 . S
C893 C895 1.327 . S
C893 H916 0.950 . S
C894 C893 1.349 . S
C894 C906 1.349 . S
C895 C893 1.327 . S
C895 C911 1.429 . S
C895 H917 0.950 . S
C896 H892 0.949 . S
C896 C904 1.574 . S
C896 C912 1.368 1_554 S
H897 C905 0.950 1_556 S
H898 C903 0.909 1_556 S
H899 C904 0.949 . S
H900 C906 0.950 1_554 S
H901 C907 0.980 . S
H902 C908 0.949 . S
C903 H898 0.909 1_554 S
C903 C905 1.342 . S
C903 C909 1.455 . S
C904 C896 1.574 . S
C904 H899 0.949 . S
C904 C910 1.368 . S
C905 C889 1.349 . S
C905 H897 0.950 1_554 S
C905 C903 1.342 . S
C906 C894 1.349 . S
C906 H900 0.950 1_556 S
C906 C907 1.317 1_556 S
C907 H901 0.980 . S
C907 C906 1.317 1_554 S
C907 C911 1.410 1_554 S
C908 C891 1.574 . S
C908 H902 0.949 . S
C908 C912 1.368 . S
C909 C890 1.429 . S
C909 C903 1.455 . S
C909 C910 1.523 . S
C910 C891 1.368 1_554 S
C910 C904 1.368 . S
C910 C909 1.523 . S
C911 C895 1.429 . S
C911 C907 1.410 1_556 S
C911 C912 1.523 . S
C912 C896 1.368 1_556 S
C912 C908 1.368 . S
C912 C911 1.523 . S
H913 C888 0.950 . S
H914 C890 0.950 . S
H915 C891 0.949 . S
H916 C893 0.950 . S
H917 C895 0.950 . S
C918 C919 1.349 . S
C918 C920 1.327 . S
C918 H943 0.950 . S
C919 C918 1.349 . S
C919 C935 1.349 . S
C920 C918 1.327 . S
C920 C939 1.429 . S
C920 H944 0.950 . S
C921 C938 1.574 . S
C921 C940 1.368 1_554 S
C921 H945 0.949 . S
H922 C926 0.949 . S
C923 C924 1.349 . S
C923 C925 1.327 . S
C923 H946 0.950 . S
C924 C923 1.349 . S
C924 C936 1.349 . S
C925 C923 1.327 . S
C925 C941 1.429 1_565 S
C925 H947 0.950 1_565 S
C926 H922 0.949 . S
C926 C934 1.574 . S
C926 C942 1.368 1_556 S
H927 C935 0.950 1_554 S
H928 C933 0.972 . S
H929 C934 0.949 . S
H930 C936 0.950 1_556 S
H931 C937 0.950 1_556 S
H932 C938 0.949 . S
C933 H928 0.972 . S
C933 C935 1.320 1_554 S
C933 C939 1.415 1_554 S
C934 C926 1.574 . S
C934 H929 0.949 . S
C934 C940 1.368 . S
C935 C919 1.349 . S
C935 H927 0.950 1_556 S
C935 C933 1.320 1_556 S
C936 C924 1.349 . S
C936 H930 0.950 1_554 S
C936 C937 1.327 . S
C937 H931 0.950 1_554 S
C937 C936 1.327 . S
C937 C941 1.429 1_565 S
C938 C921 1.574 . S
C938 H932 0.949 . S
C938 C942 1.368 . S
C939 C920 1.429 . S
C939 C933 1.415 1_556 S
C939 C940 1.523 . S
C940 C921 1.368 1_556 S
C940 C934 1.368 . S
C940 C939 1.523 . S
C941 C925 1.429 1_545 S
C941 C937 1.429 1_545 S
C941 C942 1.523 . S
C942 C926 1.368 1_554 S
C942 C938 1.368 . S
C942 C941 1.523 . S
H943 C918 0.950 . S
H944 C920 0.950 . S
H945 C921 0.949 . S
H946 C923 0.950 . S
H947 C925 0.950 1_545 S
C948 C949 1.349 . S
C948 C950 1.327 . S
C948 H973 0.950 . S
C949 C948 1.349 . S
C949 C965 1.349 . S
C950 C948 1.327 . S
C950 C969 1.429 1_455 S
C950 H974 0.950 1_554 S
C951 C968 1.574 . S
C951 C970 1.368 . S
C951 H975 0.949 . S
H952 C956 0.949 . S
C953 C954 1.349 . S
C953 C955 1.327 . S
C953 H976 0.950 . S
C954 C953 1.349 . S
C954 C966 1.349 . S
C955 C953 1.327 . S
C955 C971 1.429 . S
C955 H977 0.950 1_556 S
C956 H952 0.949 . S
C956 C964 1.574 . S
C956 C972 1.368 . S
H957 C965 0.950 . S
H958 C963 0.950 1_655 S
H959 C964 0.949 . S
H960 C966 0.950 . S
H961 C967 0.950 . S
H962 C968 0.949 . S
C963 H958 0.950 1_455 S
C963 C965 1.327 . S
C963 C969 1.429 1_455 S
C964 C956 1.574 . S
C964 H959 0.949 . S
C964 C970 1.368 1_556 S
C965 C949 1.349 . S
C965 H957 0.950 . S
C965 C963 1.327 . S
C966 C954 1.349 . S
C966 H960 0.950 . S
C966 C967 1.327 . S
C967 H961 0.950 . S
C967 C966 1.327 . S
C967 C971 1.429 . S
C968 C951 1.574 . S
C968 H962 0.949 . S
C968 C972 1.368 1_554 S
C969 C950 1.429 1_655 S
C969 C963 1.429 1_655 S
C969 C970 1.523 . S
C970 C951 1.368 . S
C970 C964 1.368 1_554 S
C970 C969 1.523 . S
C971 C955 1.429 . S
C971 C967 1.429 . S
C971 C972 1.523 . S
C972 C956 1.368 . S
C972 C968 1.368 1_556 S
C972 C971 1.523 . S
H973 C948 0.950 . S
H974 C950 0.950 1_556 S
H975 C951 0.949 . S
H976 C953 0.950 . S
H977 C955 0.950 1_554 S
C978 C979 1.349 . S
C978 C980 1.327 . S
C978 H1003 0.950 . S
C979 C978 1.349 . S
C979 C995 1.349 . S
C980 C978 1.327 . S
C980 C999 1.429 . S
C980 H1004 0.950 . S
C981 C998 1.574 . S
C981 C1000 1.368 . S
C981 H1005 0.949 . S
H982 C986 0.949 . S
C983 C984 1.349 . S
C983 C985 1.327 . S
C983 H1006 0.950 . S
C984 C983 1.349 . S
C984 C996 1.349 . S
C985 C983 1.327 . S
C985 C1001 1.429 . S
C985 H1007 0.950 . S
C986 H982 0.949 . S
C986 C994 1.574 . S
C986 C1002 1.368 . S
H987 C995 0.950 . S
H988 C993 0.950 . S
H989 C994 0.949 . S
H990 C996 0.950 . S
H991 C997 0.950 . S
H992 C998 0.949 . S
C993 H988 0.950 . S
C993 C995 1.327 . S
C993 C999 1.429 . S
C994 C986 1.574 . S
C994 H989 0.949 . S
C994 C1000 1.368 . S
C995 C979 1.349 . S
C995 H987 0.950 . S
C995 C993 1.327 . S
C996 C984 1.349 . S
C996 H990 0.950 . S
C996 C997 1.327 . S
C997 H991 0.950 . S
C997 C996 1.327 . S
C997 C1001 1.429 . S
C998 C981 1.574 . S
C998 H992 0.949 . S
C998 C1002 1.368 . S
C999 C980 1.429 . S
C999 C993 1.429 . S
C999 C1000 1.523 . S
C1000 C981 1.368 . S
C1000 C994 1.368 . S
C1000 C999 1.523 . S
C1001 C985 1.429 . S
C1001 C997 1.429 . S
C1001 C1002 1.523 . S
C1002 C986 1.368 . S
C1002 C998 1.368 . S
C1002 C1001 1.523 . S
H1003 C978 0.950 . S
H1004 C980 0.950 . S
H1005 C981 0.949 . S
H1006 C983 0.950 . S
H1007 C985 0.950 . S
C1008 C1009 1.349 . S
C1008 C1010 1.327 . S
C1008 H1033 0.950 . S
C1009 C1008 1.349 . S
C1009 C1025 1.349 . S
C1010 C1008 1.327 . S
C1010 C1029 1.429 . S
C1010 H1034 0.950 . S
C1011 C1028 1.574 . S
C1011 C1030 1.368 . S
C1011 H1035 0.949 . S
H1012 C1016 0.949 . S
C1013 C1014 1.349 . S
C1013 C1015 1.358 . S
C1013 H1036 0.950 . S
C1014 C1013 1.349 . S
C1014 C1026 1.349 . S
C1015 C1013 1.358 . S
C1015 C1031 1.416 1_565 S
C1015 H1037 0.932 1_565 S
C1016 H1012 0.949 . S
C1016 C1024 1.574 . S
C1016 C1032 1.368 . S
H1017 C1025 0.950 . S
H1018 C1023 0.950 . S
H1019 C1024 0.949 . S
H1020 C1026 0.950 . S
H1021 C1027 0.950 . S
H1022 C1028 0.949 . S
C1023 H1018 0.950 . S
C1023 C1025 1.327 . S
C1023 C1029 1.429 . S
C1024 C1016 1.574 . S
C1024 H1019 0.949 . S
C1024 C1030 1.368 . S
C1025 C1009 1.349 . S
C1025 H1017 0.950 . S
C1025 C1023 1.327 . S
C1026 C1014 1.349 . S
C1026 H1020 0.950 . S
C1026 C1027 1.327 . S
C1027 H1021 0.950 . S
C1027 C1026 1.327 . S
C1027 C1031 1.429 1_565 S
C1028 C1011 1.574 . S
C1028 H1022 0.949 . S
C1028 C1032 1.368 . S
C1029 C1010 1.429 . S
C1029 C1023 1.429 . S
C1029 C1030 1.523 . S
C1030 C1011 1.368 . S
C1030 C1024 1.368 . S
C1030 C1029 1.523 . S
C1031 C1015 1.416 1_545 S
C1031 C1027 1.429 1_545 S
C1031 C1032 1.523 . S
C1032 C1016 1.368 . S
C1032 C1028 1.368 . S
C1032 C1031 1.523 . S
H1033 C1008 0.950 . S
H1034 C1010 0.950 . S
H1035 C1011 0.949 . S
H1036 C1013 0.950 . S
H1037 C1015 0.932 1_545 S
C1038 C1039 1.349 . S
C1038 C1040 1.327 . S
C1038 H1063 0.950 . S
C1039 C1038 1.349 . S
C1039 C1055 1.349 . S
C1040 C1038 1.327 . S
C1040 C1059 1.429 1_455 S
C1040 H1064 0.950 1_455 S
C1041 C1058 1.574 . S
C1041 C1060 1.368 . S
C1041 H1065 0.949 . S
H1042 C1046 0.949 . S
C1043 C1044 1.349 . S
C1043 C1045 1.327 . S
C1043 H1066 0.950 . S
C1044 C1043 1.349 . S
C1044 C1056 1.349 . S
C1045 C1043 1.327 . S
C1045 C1061 1.429 . S
C1045 H1067 0.950 . S
C1046 H1042 0.949 . S
C1046 C1054 1.574 . S
C1046 C1062 1.368 . S
H1047 C1055 0.950 . S
H1048 C1053 0.950 . S
H1049 C1054 0.949 . S
H1050 C1056 0.950 . S
H1051 C1057 0.950 . S
H1052 C1058 0.949 . S
C1053 H1048 0.950 . S
C1053 C1055 1.327 . S
C1053 C1059 1.429 1_455 S
C1054 C1046 1.574 . S
C1054 H1049 0.949 . S
C1054 C1060 1.368 . S
C1055 C1039 1.349 . S
C1055 H1047 0.950 . S
C1055 C1053 1.327 . S
C1056 C1044 1.349 . S
C1056 H1050 0.950 . S
C1056 C1057 1.327 . S
C1057 H1051 0.950 . S
C1057 C1056 1.327 . S
C1057 C1061 1.429 . S
C1058 C1041 1.574 . S
C1058 H1052 0.949 . S
C1058 C1062 1.368 . S
C1059 C1040 1.429 1_655 S
C1059 C1053 1.429 1_655 S
C1059 C1060 1.523 . S
C1060 C1041 1.368 . S
C1060 C1054 1.368 . S
C1060 C1059 1.523 . S
C1061 C1045 1.429 . S
C1061 C1057 1.429 . S
C1061 C1062 1.523 . S
C1062 C1046 1.368 . S
C1062 C1058 1.368 . S
C1062 C1061 1.523 . S
H1063 C1038 0.950 . S
H1064 C1040 0.950 1_655 S
H1065 C1041 0.949 . S
H1066 C1043 0.950 . S
H1067 C1045 0.950 . S
C1068 C1069 1.349 . S
C1068 C1070 1.327 . S
C1068 H1093 0.950 . S
C1069 C1068 1.349 . S
C1069 C1085 1.349 . S
C1070 C1068 1.327 . S
C1070 C1089 1.429 . S
C1070 H1094 0.950 . S
C1071 C1088 1.574 . S
C1071 C1090 1.368 . S
C1071 H1095 0.949 . S
H1072 C1076 0.949 . S
C1073 C1074 1.349 . S
C1073 C1075 1.327 . S
C1073 H1096 0.950 . S
C1074 C1073 1.349 . S
C1074 C1086 1.349 . S
C1075 C1073 1.327 . S
C1075 C1091 1.429 . S
C1075 H1097 0.950 . S
C1076 H1072 0.949 . S
C1076 C1084 1.574 . S
C1076 C1092 1.368 . S
H1077 C1085 0.950 . S
H1078 C1083 0.950 . S
H1079 C1084 0.949 . S
H1080 C1086 0.950 . S
H1081 C1087 0.950 . S
H1082 C1088 0.949 . S
C1083 H1078 0.950 . S
C1083 C1085 1.327 . S
C1083 C1089 1.429 . S
C1084 C1076 1.574 . S
C1084 H1079 0.949 . S
C1084 C1090 1.368 . S
C1085 C1069 1.349 . S
C1085 H1077 0.950 . S
C1085 C1083 1.327 . S
C1086 C1074 1.349 . S
C1086 H1080 0.950 . S
C1086 C1087 1.327 . S
C1087 H1081 0.950 . S
C1087 C1086 1.327 . S
C1087 C1091 1.429 . S
C1088 C1071 1.574 . S
C1088 H1082 0.949 . S
C1088 C1092 1.368 . S
C1089 C1070 1.429 . S
C1089 C1083 1.429 . S
C1089 C1090 1.523 . S
C1090 C1071 1.368 . S
C1090 C1084 1.368 . S
C1090 C1089 1.523 . S
C1091 C1075 1.429 . S
C1091 C1087 1.429 . S
C1091 C1092 1.523 . S
C1092 C1076 1.368 . S
C1092 C1088 1.368 . S
C1092 C1091 1.523 . S
H1093 C1068 0.950 . S
H1094 C1070 0.950 . S
H1095 C1071 0.949 . S
H1096 C1073 0.950 . S
H1097 C1075 0.950 . S
C1098 C1099 1.349 . S
C1098 C1100 1.327 . S
C1098 H1123 0.950 . S
C1099 C1098 1.349 . S
C1099 C1115 1.349 . S
C1100 C1098 1.327 . S
C1100 C1119 1.429 . S
C1100 H1124 0.950 . S
C1101 C1118 1.574 . S
C1101 C1120 1.368 . S
C1101 H1125 0.949 . S
H1102 C1106 0.949 . S
C1103 C1104 1.349 . S
C1103 C1105 1.327 . S
C1103 H1126 0.950 . S
C1104 C1103 1.349 . S
C1104 C1116 1.349 . S
C1105 C1103 1.327 . S
C1105 C1121 1.429 . S
C1105 H1127 0.950 . S
C1106 H1102 0.949 . S
C1106 C1114 1.574 . S
C1106 C1122 1.368 . S
H1107 C1115 0.950 . S
H1108 C1113 0.950 . S
H1109 C1114 0.949 . S
H1110 C1116 0.950 . S
H1111 C1117 0.950 . S
H1112 C1118 0.949 . S
C1113 H1108 0.950 . S
C1113 C1115 1.327 . S
C1113 C1119 1.429 . S
C1114 C1106 1.574 . S
C1114 H1109 0.949 . S
C1114 C1120 1.368 . S
C1115 C1099 1.349 . S
C1115 H1107 0.950 . S
C1115 C1113 1.327 . S
C1116 C1104 1.349 . S
C1116 H1110 0.950 . S
C1116 C1117 1.327 . S
C1117 H1111 0.950 . S
C1117 C1116 1.327 . S
C1117 C1121 1.429 . S
C1118 C1101 1.574 . S
C1118 H1112 0.949 . S
C1118 C1122 1.368 . S
C1119 C1100 1.429 . S
C1119 C1113 1.429 . S
C1119 C1120 1.523 . S
C1120 C1101 1.368 . S
C1120 C1114 1.368 . S
C1120 C1119 1.523 . S
C1121 C1105 1.429 . S
C1121 C1117 1.429 . S
C1121 C1122 1.523 . S
C1122 C1106 1.368 . S
C1122 C1118 1.368 . S
C1122 C1121 1.523 . S
H1123 C1098 0.950 . S
H1124 C1100 0.950 . S
H1125 C1101 0.949 . S
H1126 C1103 0.950 . S
H1127 C1105 0.950 . S
C1128 C1129 1.349 . S
C1128 C1130 1.327 . S
C1128 H1153 0.950 . S
C1129 C1128 1.349 . S
C1129 C1145 1.349 . S
C1130 C1128 1.327 . S
C1130 C1149 1.429 . S
C1130 H1154 0.950 . S
C1131 C1148 1.574 . S
C1131 C1150 1.368 . S
C1131 H1155 0.949 . S
H1132 C1136 0.949 . S
C1133 C1134 1.349 . S
C1133 C1135 1.327 . S
C1133 H1156 0.950 . S
C1134 C1133 1.349 . S
C1134 C1146 1.349 . S
C1135 C1133 1.327 . S
C1135 C1151 1.429 . S
C1135 H1157 0.950 . S
C1136 H1132 0.949 . S
C1136 C1144 1.574 . S
C1136 C1152 1.368 . S
H1137 C1145 0.950 . S
H1138 C1143 0.950 . S
H1139 C1144 0.949 . S
H1140 C1146 0.950 . S
H1141 C1147 0.950 . S
H1142 C1148 0.949 . S
C1143 H1138 0.950 . S
C1143 C1145 1.327 . S
C1143 C1149 1.429 . S
C1144 C1136 1.574 . S
C1144 H1139 0.949 . S
C1144 C1150 1.368 . S
C1145 C1129 1.349 . S
C1145 H1137 0.950 . S
C1145 C1143 1.327 . S
C1146 C1134 1.349 . S
C1146 H1140 0.950 . S
C1146 C1147 1.327 . S
C1147 H1141 0.950 . S
C1147 C1146 1.327 . S
C1147 C1151 1.429 . S
C1148 C1131 1.574 . S
C1148 H1142 0.949 . S
C1148 C1152 1.368 . S
C1149 C1130 1.429 . S
C1149 C1143 1.429 . S
C1149 C1150 1.523 . S
C1150 C1131 1.368 . S
C1150 C1144 1.368 . S
C1150 C1149 1.523 . S
C1151 C1135 1.429 . S
C1151 C1147 1.429 . S
C1151 C1152 1.523 . S
C1152 C1136 1.368 . S
C1152 C1148 1.368 . S
C1152 C1151 1.523 . S
H1153 C1128 0.950 . S
H1154 C1130 0.950 . S
H1155 C1131 0.949 . S
H1156 C1133 0.950 . S
H1157 C1135 0.950 . S
C1158 C1159 1.349 . S
C1158 C1160 1.327 . S
C1158 H1183 0.950 . S
C1159 C1158 1.349 . S
C1159 C1175 1.349 . S
C1160 C1158 1.327 . S
C1160 C1179 1.429 . S
C1160 H1184 0.950 . S
C1161 C1178 1.574 . S
C1161 C1180 1.368 . S
C1161 H1185 0.949 . S
H1162 C1166 0.949 . S
C1163 C1164 1.349 . S
C1163 C1165 1.327 . S
C1163 H1186 0.950 . S
C1164 C1163 1.349 . S
C1164 C1176 1.349 . S
C1165 C1163 1.327 . S
C1165 C1181 1.429 . S
C1165 H1187 0.950 . S
C1166 H1162 0.949 . S
C1166 C1174 1.574 . S
C1166 C1182 1.368 . S
H1167 C1175 0.950 . S
H1168 C1173 0.950 . S
H1169 C1174 0.949 . S
H1170 C1176 0.950 . S
H1171 C1177 0.950 . S
H1172 C1178 0.949 . S
C1173 H1168 0.950 . S
C1173 C1175 1.327 . S
C1173 C1179 1.429 . S
C1174 C1166 1.574 . S
C1174 H1169 0.949 . S
C1174 C1180 1.368 . S
C1175 C1159 1.349 . S
C1175 H1167 0.950 . S
C1175 C1173 1.327 . S
C1176 C1164 1.349 . S
C1176 H1170 0.950 . S
C1176 C1177 1.327 . S
C1177 H1171 0.950 . S
C1177 C1176 1.327 . S
C1177 C1181 1.429 . S
C1178 C1161 1.574 . S
C1178 H1172 0.949 . S
C1178 C1182 1.368 . S
C1179 C1160 1.429 . S
C1179 C1173 1.429 . S
C1179 C1180 1.523 . S
C1180 C1161 1.368 . S
C1180 C1174 1.368 . S
C1180 C1179 1.523 . S
C1181 C1165 1.429 . S
C1181 C1177 1.429 . S
C1181 C1182 1.523 . S
C1182 C1166 1.368 . S
C1182 C1178 1.368 . S
C1182 C1181 1.523 . S
H1183 C1158 0.950 . S
H1184 C1160 0.950 . S
H1185 C1161 0.949 . S
H1186 C1163 0.950 . S
H1187 C1165 0.950 . S
C1188 C1189 1.349 . S
C1188 C1190 1.327 . S
C1188 H1213 0.950 . S
C1189 C1188 1.349 . S
C1189 C1205 1.349 . S
C1190 C1188 1.327 . S
C1190 C1209 1.429 . S
C1190 H1214 0.950 . S
C1191 C1208 1.574 . S
C1191 C1210 1.368 . S
C1191 H1215 0.949 . S
H1192 C1196 0.949 . S
C1193 C1194 1.349 . S
C1193 C1195 1.327 . S
C1193 H1216 0.950 . S
C1194 C1193 1.349 . S
C1194 C1206 1.349 . S
C1195 C1193 1.327 . S
C1195 C1211 1.429 . S
C1195 H1217 0.950 . S
C1196 H1192 0.949 . S
C1196 C1204 1.574 . S
C1196 C1212 1.368 . S
H1197 C1205 0.950 . S
H1198 C1203 0.950 . S
H1199 C1204 0.949 . S
H1200 C1206 0.950 . S
H1201 C1207 0.950 . S
H1202 C1208 0.949 . S
C1203 H1198 0.950 . S
C1203 C1205 1.327 . S
C1203 C1209 1.429 . S
C1204 C1196 1.574 . S
C1204 H1199 0.949 . S
C1204 C1210 1.368 . S
C1205 C1189 1.349 . S
C1205 H1197 0.950 . S
C1205 C1203 1.327 . S
C1206 C1194 1.349 . S
C1206 H1200 0.950 . S
C1206 C1207 1.327 . S
C1207 H1201 0.950 . S
C1207 C1206 1.327 . S
C1207 C1211 1.429 . S
C1208 C1191 1.574 . S
C1208 H1202 0.949 . S
C1208 C1212 1.368 . S
C1209 C1190 1.429 . S
C1209 C1203 1.429 . S
C1209 C1210 1.523 . S
C1210 C1191 1.368 . S
C1210 C1204 1.368 . S
C1210 C1209 1.523 . S
C1211 C1195 1.429 . S
C1211 C1207 1.429 . S
C1211 C1212 1.523 . S
C1212 C1196 1.368 . S
C1212 C1208 1.368 . S
C1212 C1211 1.523 . S
H1213 C1188 0.950 . S
H1214 C1190 0.950 . S
H1215 C1191 0.949 . S
H1216 C1193 0.950 . S
H1217 C1195 0.950 . S
C1218 C1219 1.349 . S
C1218 C1220 1.327 . S
C1218 H1243 0.950 . S
C1219 C1218 1.349 . S
C1219 C1235 1.349 . S
C1220 C1218 1.327 . S
C1220 C1239 1.429 . S
C1220 H1244 0.950 . S
C1221 C1238 1.574 . S
C1221 C1240 1.368 . S
C1221 H1245 0.949 . S
H1222 C1226 0.949 . S
C1223 C1224 1.349 . S
C1223 C1225 1.327 . S
C1223 H1246 0.950 . S
C1224 C1223 1.349 . S
C1224 C1236 1.349 . S
C1225 C1223 1.327 . S
C1225 C1241 1.429 . S
C1225 H1247 0.950 . S
C1226 H1222 0.949 . S
C1226 C1234 1.574 . S
C1226 C1242 1.368 . S
H1227 C1235 0.950 . S
H1228 C1233 0.950 . S
H1229 C1234 0.949 . S
H1230 C1236 0.950 . S
H1231 C1237 0.950 . S
H1232 C1238 0.949 . S
C1233 H1228 0.950 . S
C1233 C1235 1.327 . S
C1233 C1239 1.429 . S
C1234 C1226 1.574 . S
C1234 H1229 0.949 . S
C1234 C1240 1.368 . S
C1235 C1219 1.349 . S
C1235 H1227 0.950 . S
C1235 C1233 1.327 . S
C1236 C1224 1.349 . S
C1236 H1230 0.950 . S
C1236 C1237 1.327 . S
C1237 H1231 0.950 . S
C1237 C1236 1.327 . S
C1237 C1241 1.429 . S
C1238 C1221 1.574 . S
C1238 H1232 0.949 . S
C1238 C1242 1.368 . S
C1239 C1220 1.429 . S
C1239 C1233 1.429 . S
C1239 C1240 1.523 . S
C1240 C1221 1.368 . S
C1240 C1234 1.368 . S
C1240 C1239 1.523 . S
C1241 C1225 1.429 . S
C1241 C1237 1.429 . S
C1241 C1242 1.523 . S
C1242 C1226 1.368 . S
C1242 C1238 1.368 . S
C1242 C1241 1.523 . S
H1243 C1218 0.950 . S
H1244 C1220 0.950 . S
H1245 C1221 0.949 . S
H1246 C1223 0.950 . S
H1247 C1225 0.950 . S
C1248 C1249 1.349 . S
C1248 C1250 1.327 . S
C1248 H1273 0.950 . S
C1249 C1248 1.349 . S
C1249 C1265 1.349 . S
C1250 C1248 1.327 . S
C1250 C1269 1.429 . S
C1250 H1274 0.950 . S
C1251 C1268 1.574 1_554 S
C1251 C1270 1.368 . S
C1251 H1275 0.949 . S
H1252 C1256 0.949 . S
C1253 C1254 1.349 . S
C1253 C1255 1.327 . S
C1253 H1276 0.950 . S
C1254 C1253 1.349 . S
C1254 C1266 1.349 . S
C1255 C1253 1.327 . S
C1255 C1271 1.429 . S
C1255 H1277 0.950 . S
C1256 H1252 0.949 . S
C1256 C1264 1.574 1_556 S
C1256 C1272 1.368 . S
H1257 C1265 0.950 . S
H1258 C1263 0.950 . S
H1259 C1264 0.949 . S
H1260 C1266 0.950 . S
H1261 C1267 0.950 . S
H1262 C1268 0.949 . S
C1263 H1258 0.950 . S
C1263 C1265 1.327 . S
C1263 C1269 1.429 . S
C1264 C1256 1.574 1_554 S
C1264 H1259 0.949 . S
C1264 C1270 1.368 1_655 S
C1265 C1249 1.349 . S
C1265 H1257 0.950 . S
C1265 C1263 1.327 . S
C1266 C1254 1.349 . S
C1266 H1260 0.950 . S
C1266 C1267 1.327 . S
C1267 H1261 0.950 . S
C1267 C1266 1.327 . S
C1267 C1271 1.429 . S
C1268 C1251 1.574 1_556 S
C1268 H1262 0.949 . S
C1268 C1272 1.368 1_455 S
C1269 C1250 1.429 . S
C1269 C1263 1.429 . S
C1269 C1270 1.523 . S
C1270 C1251 1.368 . S
C1270 C1264 1.368 1_455 S
C1270 C1269 1.523 . S
C1271 C1255 1.429 . S
C1271 C1267 1.429 . S
C1271 C1272 1.523 . S
C1272 C1256 1.368 . S
C1272 C1268 1.368 1_655 S
C1272 C1271 1.523 . S
H1273 C1248 0.950 . S
H1274 C1250 0.950 . S
H1275 C1251 0.949 . S
H1276 C1253 0.950 . S
H1277 C1255 0.950 . S
C1278 C1279 1.349 . S
C1278 C1280 1.327 . S
C1278 H1303 0.950 . S
C1279 C1278 1.349 . S
C1279 C1295 1.349 . S
C1280 C1278 1.327 . S
C1280 C1299 1.429 . S
C1280 H1304 0.925 1_554 S
C1281 C1298 1.574 . S
C1281 C1300 1.368 . S
C1281 H1305 0.949 . S
H1282 C1286 0.949 . S
C1283 C1284 1.349 . S
C1283 C1285 1.327 . S
C1283 H1306 0.950 . S
C1284 C1283 1.349 . S
C1284 C1296 1.349 . S
C1285 C1283 1.327 . S
C1285 C1301 1.429 . S
C1285 H1307 0.925 1_556 S
C1286 H1282 0.949 . S
C1286 C1294 1.574 . S
C1286 C1302 1.368 . S
H1287 C1295 0.950 . S
H1288 C1293 0.950 . S
H1289 C1294 0.949 . S
H1290 C1296 0.950 . S
H1291 C1297 0.950 . S
H1292 C1298 0.949 . S
C1293 H1288 0.950 . S
C1293 C1295 1.327 . S
C1293 C1299 1.429 . S
C1294 C1286 1.574 . S
C1294 H1289 0.949 . S
C1294 C1300 1.368 1_556 S
C1295 C1279 1.349 . S
C1295 H1287 0.950 . S
C1295 C1293 1.327 . S
C1296 C1284 1.349 . S
C1296 H1290 0.950 . S
C1296 C1297 1.327 . S
C1297 H1291 0.950 . S
C1297 C1296 1.327 . S
C1297 C1301 1.429 . S
C1298 C1281 1.574 . S
C1298 H1292 0.949 . S
C1298 C1302 1.368 1_554 S
C1299 C1280 1.429 . S
C1299 C1293 1.429 . S
C1299 C1300 1.523 . S
C1300 C1281 1.368 . S
C1300 C1294 1.368 1_554 S
C1300 C1299 1.523 . S
C1301 C1285 1.429 . S
C1301 C1297 1.429 . S
C1301 C1302 1.523 . S
C1302 C1286 1.368 . S
C1302 C1298 1.368 1_556 S
C1302 C1301 1.523 . S
H1303 C1278 0.950 . S
H1304 C1280 0.925 1_556 S
H1305 C1281 0.949 . S
H1306 C1283 0.950 . S
H1307 C1285 0.925 1_554 S
C1308 C1309 1.349 . S
C1308 C1310 1.327 . S
C1308 H1333 0.950 . S
C1309 C1308 1.349 . S
C1309 C1325 1.349 . S
C1310 C1308 1.327 . S
C1310 C1329 1.429 . S
C1310 H1334 0.950 . S
C1311 C1328 1.574 . S
C1311 C1330 1.368 1_545 S
C1311 H1335 0.949 . S
H1312 C1316 0.949 . S
C1313 C1314 1.349 . S
C1313 C1315 1.327 . S
C1313 H1336 0.950 . S
C1314 C1313 1.349 . S
C1314 C1326 1.349 . S
C1315 C1313 1.327 . S
C1315 C1331 1.429 . S
C1315 H1337 0.950 . S
C1316 H1312 0.949 . S
C1316 C1324 1.574 . S
C1316 C1332 1.368 1_565 S
H1317 C1325 0.950 . S
H1318 C1323 0.950 . S
H1319 C1324 0.949 . S
H1320 C1326 0.950 . S
H1321 C1327 0.950 . S
H1322 C1328 0.949 . S
C1323 H1318 0.950 . S
C1323 C1325 1.327 . S
C1323 C1329 1.429 . S
C1324 C1316 1.574 . S
C1324 H1319 0.949 . S
C1324 C1330 1.368 1_556 S
C1325 C1309 1.349 . S
C1325 H1317 0.950 . S
C1325 C1323 1.327 . S
C1326 C1314 1.349 . S
C1326 H1320 0.950 . S
C1326 C1327 1.327 . S
C1327 H1321 0.950 . S
C1327 C1326 1.327 . S
C1327 C1331 1.429 . S
C1328 C1311 1.574 . S
C1328 H1322 0.949 . S
C1328 C1332 1.368 1_554 S
C1329 C1310 1.429 . S
C1329 C1323 1.429 . S
C1329 C1330 1.523 . S
C1330 C1311 1.368 1_565 S
C1330 C1324 1.368 1_554 S
C1330 C1329 1.523 . S
C1331 C1315 1.429 . S
C1331 C1327 1.429 . S
C1331 C1332 1.523 . S
C1332 C1316 1.368 1_545 S
C1332 C1328 1.368 1_556 S
C1332 C1331 1.523 . S
H1333 C1308 0.950 . S
H1334 C1310 0.950 . S
H1335 C1311 0.949 . S
H1336 C1313 0.950 . S
H1337 C1315 0.950 . S
C1338 C1339 1.349 . S
C1338 C1340 1.327 . S
C1338 H1363 0.950 . S
C1339 C1338 1.349 . S
C1339 C1355 1.349 . S
C1340 C1338 1.327 . S
C1340 C1359 1.429 . S
C1340 H1364 0.950 . S
C1341 C1358 1.574 . S
C1341 C1360 1.368 1_545 S
C1341 H1365 0.949 . S
H1342 C1346 0.949 . S
C1343 C1344 1.349 . S
C1343 C1345 1.327 . S
C1343 H1366 0.950 . S
C1344 C1343 1.349 . S
C1344 C1356 1.349 . S
C1345 C1343 1.327 . S
C1345 C1361 1.429 . S
C1345 H1367 0.950 . S
C1346 H1342 0.949 . S
C1346 C1354 1.574 . S
C1346 C1362 1.368 1_565 S
H1347 C1355 0.950 . S
H1348 C1353 0.950 . S
H1349 C1354 0.949 . S
H1350 C1356 0.950 . S
H1351 C1357 0.950 . S
H1352 C1358 0.949 . S
C1353 H1348 0.950 . S
C1353 C1355 1.327 . S
C1353 C1359 1.429 . S
C1354 C1346 1.574 . S
C1354 H1349 0.949 . S
C1354 C1360 1.368 . S
C1355 C1339 1.349 . S
C1355 H1347 0.950 . S
C1355 C1353 1.327 . S
C1356 C1344 1.349 . S
C1356 H1350 0.950 . S
C1356 C1357 1.327 . S
C1357 H1351 0.950 . S
C1357 C1356 1.327 . S
C1357 C1361 1.429 . S
C1358 C1341 1.574 . S
C1358 H1352 0.949 . S
C1358 C1362 1.368 . S
C1359 C1340 1.429 . S
C1359 C1353 1.429 . S
C1359 C1360 1.523 . S
C1360 C1341 1.368 1_565 S
C1360 C1354 1.368 . S
C1360 C1359 1.523 . S
C1361 C1345 1.429 . S
C1361 C1357 1.429 . S
C1361 C1362 1.523 . S
C1362 C1346 1.368 1_545 S
C1362 C1358 1.368 . S
C1362 C1361 1.523 . S
H1363 C1338 0.950 . S
H1364 C1340 0.950 . S
H1365 C1341 0.949 . S
H1366 C1343 0.950 . S
H1367 C1345 0.950 . S
C1368 C1369 1.349 . S
C1368 C1370 1.327 . S
C1368 H1393 0.950 . S
C1369 C1368 1.349 . S
C1369 C1385 1.349 . S
C1370 C1368 1.327 . S
C1370 C1389 1.429 . S
C1370 H1394 0.950 . S
C1371 C1388 1.574 . S
C1371 C1390 1.368 1_455 S
C1371 H1395 0.949 . S
H1372 C1376 0.949 . S
C1373 C1374 1.349 . S
C1373 C1375 1.327 . S
C1373 H1396 0.950 . S
C1374 C1373 1.349 . S
C1374 C1386 1.349 . S
C1375 C1373 1.327 . S
C1375 C1391 1.429 . S
C1375 H1397 0.950 . S
C1376 H1372 0.949 . S
C1376 C1384 1.574 . S
C1376 C1392 1.368 1_655 S
H1377 C1385 0.950 . S
H1378 C1383 0.950 . S
H1379 C1384 0.949 . S
H1380 C1386 0.950 . S
H1381 C1387 0.950 . S
H1382 C1388 0.949 . S
C1383 H1378 0.950 . S
C1383 C1385 1.327 . S
C1383 C1389 1.429 . S
C1384 C1376 1.574 . S
C1384 H1379 0.949 . S
C1384 C1390 1.368 . S
C1385 C1369 1.349 . S
C1385 H1377 0.950 . S
C1385 C1383 1.327 . S
C1386 C1374 1.349 . S
C1386 H1380 0.950 . S
C1386 C1387 1.327 . S
C1387 H1381 0.950 . S
C1387 C1386 1.327 . S
C1387 C1391 1.429 . S
C1388 C1371 1.574 . S
C1388 H1382 0.949 . S
C1388 C1392 1.368 . S
C1389 C1370 1.429 . S
C1389 C1383 1.429 . S
C1389 C1390 1.523 . S
C1390 C1371 1.368 1_655 S
C1390 C1384 1.368 . S
C1390 C1389 1.523 . S
C1391 C1375 1.429 . S
C1391 C1387 1.429 . S
C1391 C1392 1.523 . S
C1392 C1376 1.368 1_455 S
C1392 C1388 1.368 . S
C1392 C1391 1.523 . S
H1393 C1368 0.950 . S
H1394 C1370 0.950 . S
H1395 C1371 0.949 . S
H1396 C1373 0.950 . S
H1397 C1375 0.950 . S
C1398 C1399 1.349 . S
C1398 C1400 1.327 . S
C1398 H1423 0.950 . S
C1399 C1398 1.349 . S
C1399 C1415 1.349 . S
C1400 C1398 1.327 . S
C1400 C1419 1.429 . S
C1400 H1424 0.950 . S
C1401 C1418 1.574 . S
C1401 C1420 1.368 . S
C1401 H1425 0.949 . S
H1402 C1406 0.949 . S
C1403 C1404 1.349 . S
C1403 C1405 1.327 . S
C1403 H1426 0.950 . S
C1404 C1403 1.349 . S
C1404 C1416 1.349 . S
C1405 C1403 1.327 . S
C1405 C1421 1.429 . S
C1405 H1427 0.950 . S
C1406 H1402 0.949 . S
C1406 C1414 1.574 . S
C1406 C1422 1.368 . S
H1407 C1415 0.950 . S
H1408 C1413 0.950 . S
H1409 C1414 0.949 . S
H1410 C1416 0.950 . S
H1411 C1417 0.950 . S
H1412 C1418 0.949 . S
C1413 H1408 0.950 . S
C1413 C1415 1.327 . S
C1413 C1419 1.429 . S
C1414 C1406 1.574 . S
C1414 H1409 0.949 . S
C1414 C1420 1.368 . S
C1415 C1399 1.349 . S
C1415 H1407 0.950 . S
C1415 C1413 1.327 . S
C1416 C1404 1.349 . S
C1416 H1410 0.950 . S
C1416 C1417 1.327 . S
C1417 H1411 0.950 . S
C1417 C1416 1.327 . S
C1417 C1421 1.429 . S
C1418 C1401 1.574 . S
C1418 H1412 0.949 . S
C1418 C1422 1.368 . S
C1419 C1400 1.429 . S
C1419 C1413 1.429 . S
C1419 C1420 1.523 . S
C1420 C1401 1.368 . S
C1420 C1414 1.368 . S
C1420 C1419 1.523 . S
C1421 C1405 1.429 . S
C1421 C1417 1.429 . S
C1421 C1422 1.523 . S
C1422 C1406 1.368 . S
C1422 C1418 1.368 . S
C1422 C1421 1.523 . S
H1423 C1398 0.950 . S
H1424 C1400 0.950 . S
H1425 C1401 0.949 . S
H1426 C1403 0.950 . S
H1427 C1405 0.950 . S
C709 C3 0.694 . S
C714 C465 0.693 . S
C739 C62 0.694 . S
C744 C524 0.693 . S
C769 C121 0.694 . S
C774 C406 0.693 . S
C799 C701 0.693 . S
C804 C180 0.694 . S
C829 C239 0.694 . S
C834 C583 0.693 . S
C859 C642 0.693 . S
C864 C298 0.694 . S
C889 C111 0.693 . S
C894 C357 0.694 . S
C919 C416 0.694 . S
C924 C170 0.693 . S
C949 C52 0.693 . S
C954 C475 0.694 . S
C979 C534 0.694 . S
C984 C347 0.693 . S
C1009 C593 0.694 . S
C1014 C229 0.693 . S
C1039 C288 0.693 . S
C1044 C652 0.694 . S
C1069 C300 1.657 . S
C1074 C5 1.657 . S
C1099 C64 1.657 . S
C1104 C182 1.657 . S
C1129 C123 1.657 . S
C1134 C241 1.657 . S
C1159 C359 1.657 . S
C1164 C654 1.657 . S
C1189 C418 1.657 . S
C1194 C536 1.657 . S
C1219 C477 1.657 . S
C1224 C595 1.657 . S
C1249 C33 1.767 . S
C1254 C387 1.767 . S
C1279 C92 1.767 . S
C1284 C446 1.767 . S
C1309 C151 1.767 . S
C1314 C505 1.767 . S
C1339 C210 1.767 . S
C1344 C564 1.767 . S
C1369 C623 1.767 . S
C1374 C269 1.767 . S
C1399 C328 1.767 . S
C1404 C682 1.767 . S
