# Generated by pormake.
# Topology wkh, (6)-cn, num edge types: 1
# Building blocks:
#     Node 0, Type 0, BuildingBlock: IZENUY_clean_sbu_0, # of connection points: 6
#     Node 1, Type 0, BuildingBlock: IZENUY_clean_sbu_0, # of connection points: 6
#     Node 2, Type 0, BuildingBlock: IZENUY_clean_sbu_0, # of connection points: 6
#     Node 3, Type 0, BuildingBlock: IZENUY_clean_sbu_0, # of connection points: 6
#     Node 4, Type 0, BuildingBlock: IZENUY_clean_sbu_0, # of connection points: 6
#     Node 5, Type 0, BuildingBlock: IZENUY_clean_sbu_0, # of connection points: 6
#     Node 6, Type 0, BuildingBlock: IZENUY_clean_sbu_0, # of connection points: 6
#     Node 7, Type 0, BuildingBlock: IZENUY_clean_sbu_0, # of connection points: 6
#     Node 8, Type 0, BuildingBlock: IZENUY_clean_sbu_0, # of connection points: 6
#     Node 9, Type 0, BuildingBlock: IZENUY_clean_sbu_0, # of connection points: 6
#     Node 10, Type 0, BuildingBlock: IZENUY_clean_sbu_0, # of connection points: 6
#     Node 11, Type 0, BuildingBlock: IZENUY_clean_sbu_0, # of connection points: 6
#     Edge 12, Type (0, 0), BuildingBlock: ZUJKAS_clean_linker_0, # of connection points: 2
#     Edge 13, Type (0, 0), BuildingBlock: ZUJKAS_clean_linker_0, # of connection points: 2
#     Edge 14, Type (0, 0), BuildingBlock: ZUJKAS_clean_linker_0, # of connection points: 2
#     Edge 15, Type (0, 0), BuildingBlock: ZUJKAS_clean_linker_0, # of connection points: 2
#     Edge 16, Type (0, 0), BuildingBlock: ZUJKAS_clean_linker_0, # of connection points: 2
#     Edge 17, Type (0, 0), BuildingBlock: ZUJKAS_clean_linker_0, # of connection points: 2
#     Edge 18, Type (0, 0), BuildingBlock: ZUJKAS_clean_linker_0, # of connection points: 2
#     Edge 19, Type (0, 0), BuildingBlock: ZUJKAS_clean_linker_0, # of connection points: 2
#     Edge 20, Type (0, 0), BuildingBlock: ZUJKAS_clean_linker_0, # of connection points: 2
#     Edge 21, Type (0, 0), BuildingBlock: ZUJKAS_clean_linker_0, # of connection points: 2
#     Edge 22, Type (0, 0), BuildingBlock: ZUJKAS_clean_linker_0, # of connection points: 2
#     Edge 23, Type (0, 0), BuildingBlock: ZUJKAS_clean_linker_0, # of connection points: 2
#     Edge 24, Type (0, 0), BuildingBlock: ZUJKAS_clean_linker_0, # of connection points: 2
#     Edge 25, Type (0, 0), BuildingBlock: ZUJKAS_clean_linker_0, # of connection points: 2
#     Edge 26, Type (0, 0), BuildingBlock: ZUJKAS_clean_linker_0, # of connection points: 2
#     Edge 27, Type (0, 0), BuildingBlock: ZUJKAS_clean_linker_0, # of connection points: 2
#     Edge 28, Type (0, 0), BuildingBlock: ZUJKAS_clean_linker_0, # of connection points: 2
#     Edge 29, Type (0, 0), BuildingBlock: ZUJKAS_clean_linker_0, # of connection points: 2
#     Edge 30, Type (0, 0), BuildingBlock: ZUJKAS_clean_linker_0, # of connection points: 2
#     Edge 31, Type (0, 0), BuildingBlock: ZUJKAS_clean_linker_0, # of connection points: 2
#     Edge 32, Type (0, 0), BuildingBlock: ZUJKAS_clean_linker_0, # of connection points: 2
#     Edge 33, Type (0, 0), BuildingBlock: ZUJKAS_clean_linker_0, # of connection points: 2
#     Edge 34, Type (0, 0), BuildingBlock: ZUJKAS_clean_linker_0, # of connection points: 2
#     Edge 35, Type (0, 0), BuildingBlock: ZUJKAS_clean_linker_0, # of connection points: 2
#     Edge 36, Type (0, 0), BuildingBlock: ZUJKAS_clean_linker_0, # of connection points: 2
#     Edge 37, Type (0, 0), BuildingBlock: ZUJKAS_clean_linker_0, # of connection points: 2
#     Edge 38, Type (0, 0), BuildingBlock: ZUJKAS_clean_linker_0, # of connection points: 2
#     Edge 39, Type (0, 0), BuildingBlock: ZUJKAS_clean_linker_0, # of connection points: 2
#     Edge 40, Type (0, 0), BuildingBlock: ZUJKAS_clean_linker_0, # of connection points: 2
#     Edge 41, Type (0, 0), BuildingBlock: ZUJKAS_clean_linker_0, # of connection points: 2
#     Edge 42, Type (0, 0), BuildingBlock: ZUJKAS_clean_linker_0, # of connection points: 2
#     Edge 43, Type (0, 0), BuildingBlock: ZUJKAS_clean_linker_0, # of connection points: 2
#     Edge 44, Type (0, 0), BuildingBlock: ZUJKAS_clean_linker_0, # of connection points: 2
#     Edge 45, Type (0, 0), BuildingBlock: ZUJKAS_clean_linker_0, # of connection points: 2
#     Edge 46, Type (0, 0), BuildingBlock: ZUJKAS_clean_linker_0, # of connection points: 2
#     Edge 47, Type (0, 0), BuildingBlock: ZUJKAS_clean_linker_0, # of connection points: 2
# Relax obj value: 0.287
# Max RMSD: 0.256
# Mean RMSD: 0.256
data_MOF--net-wkh--node1-IZENUY_clean_sbu_0--edge1-ZUJKAS_clean_linker_0
_symmetry_space_group_name_H-M    P1
_symmetry_Int_Tables_number       1
_symmetry_cell_setting            triclinic
loop_
_symmetry_equiv_pos_as_xyz
'x, y, z'
_cell_length_a     34.070468
_cell_length_b     34.091849
_cell_length_c     102.86252
_cell_angle_alpha  90.002089
_cell_angle_beta   89.993992
_cell_angle_gamma 120.00434
loop_
_atom_site_label
_atom_site_type_symbol
_atom_site_fract_x
_atom_site_fract_y
_atom_site_fract_z
_atom_type_partial_charge
Fe0 Fe 0.23495 0.32166 0.01843 0.0
Fe1 Fe 0.31214 0.30102 0.02034 0.0
O2 O 0.28758 0.33361 0.02521 0.0
Fe3 Fe 0.31511 0.37736 0.03689 0.0
O4 O 0.26701 0.35019 0.04781 0.0
O5 O 0.2145 0.33696 0.0333 0.0
O6 O 0.20729 0.26508 0.02486 0.0
C7 C 0.21975 0.23674 0.02272 0.0
C8 C 0.27533 0.41269 0.01898 0.0
O9 O 0.25796 0.2488 0.01765 0.0
C10 C 0.38822 0.38938 0.02255 0.0
O11 O 0.24502 0.30293 1.0023 0.0
O12 O 0.31565 0.31873 1.00364 0.0
O13 O 0.29366 0.41341 0.02985 0.0
O14 O 0.25977 0.37808 1.01184 0.0
C15 C 0.32809 0.30623 0.04643 0.0
O16 O 0.37053 0.34678 0.02227 0.0
O17 O 0.36611 0.40749 0.02682 0.0
C18 C 0.28145 0.30962 0.99683 0.0
O19 O 0.31022 0.28136 0.03666 0.0
O20 O 0.3395 0.34794 0.04622 0.0
C21 C 0.22668 0.33917 0.0451 0.0
Fe22 Fe 0.94725 0.30774 0.2042 0.0
Fe23 Fe 0.91523 0.23097 0.18407 0.0
O24 O 0.9592 0.28007 0.19153 0.0
Fe25 Fe 0.01559 0.30127 0.18638 0.0
O26 O 0.03166 0.29205 0.20224 0.0
O27 O 1.00153 0.32613 0.21304 0.0
O28 O 0.92346 0.25741 0.21421 0.0
C29 C 0.89136 0.21885 0.21105 0.0
C30 C 0.01213 0.38149 0.19119 0.0
O31 O 0.88035 0.20926 0.19914 0.0
C32 C 0.97496 0.27995 0.16281 0.0
O33 O 0.88989 0.29199 0.19793 0.0
O34 O 0.88726 0.26144 0.17896 0.0
O35 O 0.03386 0.36051 0.19008 0.0
O36 O 0.97125 0.36082 0.19496 0.0
C37 C 0.97981 0.20709 0.18608 0.0
O38 O 0.94301 0.24345 0.16769 0.0
O39 O 1.00235 0.31131 0.17016 0.0
C40 C 0.87039 0.27661 0.18703 0.0
O41 O 0.94023 0.19762 0.18891 0.0
O42 O 0.0082 0.24593 0.18184 0.0
C43 C 0.02769 0.30946 0.21259 0.0
Fe44 Fe 0.69242 0.91774 0.34915 0.0
Fe45 Fe 0.70462 0.01288 0.35045 0.0
O46 O 0.67985 0.95709 0.35661 0.0
Fe47 Fe 0.64299 0.94131 0.37026 0.0
O48 O 0.67885 0.92685 0.37964 0.0
O49 O 0.69058 0.88804 0.36457 0.0
O50 O 0.75288 0.95347 0.35184 0.0
C51 C 0.77486 0.9923 0.34688 0.0
C52 C 0.60334 0.86099 0.35445 0.0
O53 O 0.7559 0.01511 0.34445 0.0
C54 C 0.61665 0.99417 0.35717 0.0
O55 O 0.69696 0.94088 0.33243 0.0
O56 O 0.67714 0.99276 0.33483 0.0
O57 O 0.60687 0.88151 0.36509 0.0
O58 O 0.63332 0.87923 0.34581 0.0
C59 C 0.71462 0.02943 0.37653 0.0
O60 O 0.65806 0.02164 0.35512 0.0
O61 O 0.60408 0.95543 0.36193 0.0
C62 C 0.68542 0.968 0.32751 0.0
O63 O 0.73385 0.03598 0.36562 0.0
O64 O 0.67391 0.9977 0.37807 0.0
C65 C 0.69131 0.89904 0.37645 0.0
Fe66 Fe 0.70122 0.63866 0.53535 0.0
Fe67 Fe 0.78092 0.68629 0.51623 0.0
O68 O 0.7303 0.67972 0.52306 0.0
Fe69 Fe 0.70895 0.71461 0.51769 0.0
O70 O 0.71403 0.73779 0.53376 0.0
O71 O 0.68005 0.67227 0.54391 0.0
O72 O 0.74989 0.66532 0.54603 0.0
C73 C 0.78938 0.67334 0.54336 0.0
C74 C 0.62922 0.62916 0.52111 0.0
O75 O 0.80085 0.67279 0.53159 0.0
C76 C 0.73531 0.69863 0.49433 0.0
O77 O 0.719 0.59856 0.5293 0.0
O78 O 0.75219 0.62824 0.51075 0.0
O79 O 0.64943 0.67194 0.52029 0.0
O80 O 0.64973 0.6095 0.52548 0.0
C81 C 0.80374 0.77434 0.51817 0.0
O82 O 0.77081 0.70243 0.4997 0.0
O83 O 0.70261 0.69367 0.50125 0.0
C84 C 0.73578 0.59547 0.51856 0.0
O85 O 0.81284 0.74429 0.52136 0.0
O86 O 0.76467 0.76393 0.5141 0.0
C87 C 0.69485 0.71469 0.54374 0.0
Fe88 Fe 0.07633 0.70413 0.70191 0.0
Fe89 Fe 0.07948 0.78051 0.68496 0.0
O90 O 0.04907 0.72565 0.69184 0.0
Fe91 Fe 0.98975 0.69251 0.68913 0.0
O92 O 0.97651 0.66136 0.70444 0.0
O93 O 0.03895 0.69758 0.71555 0.0
O94 O 0.11672 0.75897 0.70919 0.0
C95 C 0.11666 0.79606 0.7098 0.0
C96 C 0.01295 0.62768 0.68657 0.0
O97 O 0.09825 0.80707 0.70095 0.0
C98 C 0.02148 0.73524 0.66475 0.0
O99 O 0.11741 0.71133 0.68931 0.0
O100 O 0.1314 0.77867 0.68258 0.0
O101 O 0.99686 0.64954 0.68095 0.0
O102 O 0.03954 0.6447 0.6963 0.0
C103 C 1.00086 0.77551 0.69473 0.0
O104 O 0.06251 0.75826 0.66832 0.0
O105 O 0.99059 0.71677 0.6732 0.0
C106 C 0.142 0.7481 0.68325 0.0
O107 O 0.03275 0.79172 0.68653 0.0
O108 O 0.98008 0.73387 0.69743 0.0
C109 C 0.99628 0.67542 0.71518 0.0
Fe110 Fe 0.30771 0.08277 0.85193 0.0
Fe111 Fe 0.30618 0.99331 0.85673 0.0
O112 O 0.33252 0.05289 0.85895 0.0
Fe113 Fe 0.38186 0.08127 0.86877 0.0
O114 O 0.36806 0.12286 0.87558 0.0
O115 O 0.30038 0.10222 0.86784 0.0
O116 O 0.24983 0.03628 0.85364 0.0
C117 C 0.23407 0.00478 0.86193 0.0
C118 C 0.40272 0.14503 0.8497 0.0
O119 O 0.25503 0.98431 0.86487 0.0
C120 C 0.39417 0.01589 0.85421 0.0
O121 O 0.31226 0.06482 0.83543 0.0
O122 O 0.28314 0.99311 0.84062 0.0
O123 O 0.4151 0.12056 0.85575 0.0
O124 O 0.3615 0.13459 0.8493 0.0
C125 C 0.3309 1.0032 0.88283 0.0
O126 O 0.35605 0.99934 0.8487 0.0
O127 O 0.40418 0.04356 0.86368 0.0
C128 C 0.29477 0.02365 0.83207 0.0
O129 O 0.32403 0.98152 0.87236 0.0
O130 O 0.35142 0.04582 0.88268 0.0
C131 C 0.33061 0.12215 0.8764 0.0
Fe132 Fe 0.71184 0.70051 0.84435 0.0
Fe133 Fe 0.64581 0.70423 0.82484 0.0
O134 O 0.68361 0.72809 0.8382 0.0
Fe135 Fe 0.69381 0.77966 0.84537 0.0
O136 O 0.7539 0.80741 0.84191 0.0
O137 O 0.7625 0.75211 0.84948 0.0
O138 O 0.73975 0.70661 0.82902 0.0
C139 C 0.72013 0.69206 0.81826 0.0
C140 C 0.69374 0.72674 0.86732 0.0
O141 O 0.67863 0.68073 0.81688 0.0
C142 C 0.60384 0.74235 0.8409 0.0
O143 O 0.66675 0.64346 0.84036 0.0
O144 O 0.60988 0.65117 0.83356 0.0
O145 O 0.70262 0.76426 0.86211 0.0
O146 O 0.68597 0.69344 0.8602 0.0
C147 C 0.68875 0.79421 0.81807 0.0
O148 O 0.60759 0.72552 0.83022 0.0
O149 O 0.63462 0.75559 0.84935 0.0
C150 C 0.62485 0.62697 0.83834 0.0
O151 O 0.67877 0.75441 0.81509 0.0
O152 O 0.68772 0.80473 0.8299 0.0
C153 C 0.77901 0.79297 0.84613 0.0
Fe154 Fe 0.02001 0.71237 1.01114 0.0
Fe155 Fe 0.95039 0.64653 0.99149 0.0
O156 O 0.96422 0.6841 1.00486 0.0
Fe157 Fe 0.92254 0.69385 1.01199 0.0
O158 O 0.95474 0.75363 1.00837 0.0
O159 O 0.01839 0.76285 1.01641 0.0
O160 O 0.04275 0.74053 0.99584 0.0
C161 C 0.0372 0.72064 0.98509 0.0
C162 C 0.975 0.69348 0.034 0.0
O163 O 1.00654 0.67947 0.98361 0.0
C164 C 0.87049 0.60403 1.00754 0.0
O165 O 0.03207 0.66734 1.00716 0.0
O166 O 0.96746 0.61067 1.00024 0.0
O167 O 0.94664 0.70283 0.0288 0.0
O168 O 1.00061 0.68592 0.02688 0.0
C169 C 0.90308 0.68906 0.98471 0.0
O170 O 0.89099 0.60826 0.99683 0.0
O171 O 0.88767 0.63469 1.01602 0.0
C172 C 1.00634 0.62546 1.00521 0.0
O173 O 0.9332 0.67949 0.98174 0.0
O174 O 0.89122 0.6875 0.99653 0.0
C175 C 0.9936 0.77881 1.01296 0.0
Fe176 Fe 0.30758 0.01163 0.17872 0.0
Fe177 Fe 0.31263 0.94544 0.1596 0.0
O178 O 0.2849 0.95618 0.17254 0.0
Fe179 Fe 0.23438 0.91185 0.17932 0.0
O180 O 0.20291 0.93973 0.17517 0.0
O181 O 0.25276 0.00528 0.18341 0.0
O182 O 0.301 0.03219 0.16317 0.0
C183 C 0.31888 0.02925 0.15275 0.0
C184 C 0.28244 0.96644 0.20156 0.0
O185 O 0.33334 1.00141 0.15176 0.0
C186 C 0.27841 0.86549 0.1755 0.0
O187 O 0.36657 0.02848 0.17527 0.0
O188 O 0.3651 0.96615 0.16902 0.0
O189 O 0.24618 0.93607 0.19614 0.0
O190 O 0.31527 0.99406 0.19465 0.0
C191 C 0.22381 0.89324 0.15198 0.0
O192 O 0.29475 0.88668 0.16489 0.0
O193 O 0.26257 0.88094 0.18381 0.0
C194 C 0.38635 0.00575 0.17377 0.0
O195 O 0.2631 0.92503 0.14928 0.0
O196 O 0.21298 0.88033 0.16372 0.0
C197 C 0.21313 0.97811 0.17946 0.0
Fe198 Fe 0.37712 0.29991 0.32779 0.0
Fe199 Fe 0.30424 0.22508 0.34519 0.0
O200 O 0.32937 0.27985 0.33822 0.0
Fe201 Fe 0.30504 0.31436 0.34118 0.0
O202 O 0.32153 0.3441 0.32561 0.0
O203 O 0.3452 0.3059 0.31436 0.0
O204 O 0.36128 0.24424 0.32086 0.0
C205 C 0.32358 0.20768 0.32036 0.0
C206 C 0.39372 0.37796 0.34283 0.0
O207 O 0.29422 0.19806 0.32918 0.0
C208 C 0.29614 0.27256 0.36561 0.0
O209 O 0.41145 0.29297 0.34028 0.0
O210 O 0.35771 0.22576 0.34704 0.0
O211 O 0.35652 0.35699 0.34884 0.0
O212 O 0.4014 0.36003 0.33297 0.0
C213 C 0.23015 0.23231 0.33666 0.0
O214 O 0.3118 0.24775 0.36179 0.0
O215 O 0.28365 0.29171 0.3574 0.0
C216 C 0.39902 0.25621 0.34638 0.0
O217 O 0.24649 0.21522 0.34434 0.0
O218 O 0.25262 0.27341 0.33345 0.0
C219 C 0.32518 0.32854 0.31487 0.0
Fe220 Fe 0.06775 0.37159 0.49281 0.0
Fe221 Fe 0.09917 0.3251 0.51249 0.0
O222 O 0.0553 0.33105 0.50527 0.0
Fe223 Fe 0.99877 0.2961 0.51039 0.0
O224 O 0.98179 0.27238 0.4943 0.0
O225 O 0.01327 0.33777 0.48413 0.0
O226 O 0.08985 0.34419 0.48248 0.0
C227 C 0.12107 0.33611 0.48542 0.0
C228 C 1.00477 0.38143 0.50663 0.0
O229 O 0.13318 0.33796 0.49724 0.0
C230 C 0.0398 0.31317 0.53399 0.0
O231 O 0.12556 0.41193 0.49888 0.0
O232 O 0.12803 0.38345 0.51772 0.0
O233 O 0.98204 0.33862 0.50737 0.0
O234 O 0.04515 0.40111 0.5024 0.0
C235 C 0.0343 0.23676 0.51077 0.0
O236 O 0.07211 0.30966 0.52893 0.0
O237 O 0.01224 0.31752 0.52681 0.0
C238 C 0.1451 0.41563 0.50972 0.0
O239 O 0.07358 0.26682 0.50766 0.0
O240 O 1.00514 0.2471 0.51439 0.0
C241 C 0.98619 0.29525 0.48423 0.0
Fe242 Fe 0.69624 0.99398 0.67737 0.0
Fe243 Fe 0.7004 0.06545 0.65839 0.0
O244 O 0.72428 0.05022 0.67146 0.0
Fe245 Fe 0.77639 0.09089 0.67859 0.0
O246 O 0.80335 0.05828 0.67468 0.0
O247 O 0.74786 0.99379 0.68194 0.0
O248 O 0.70052 0.97239 0.66177 0.0
C249 C 0.68575 0.97864 0.65121 0.0
C250 C 0.7242 0.03736 0.70051 0.0
O251 O 0.67582 0.00982 0.65014 0.0
C252 C 0.73986 0.14453 0.67476 0.0
O253 O 0.6393 0.98333 0.67388 0.0
O254 O 0.64779 0.04851 0.66733 0.0
O255 O 0.76157 0.06602 0.69524 0.0
O256 O 0.69056 0.01204 0.69348 0.0
C257 C 0.79032 0.11157 0.65138 0.0
O258 O 0.72256 0.12456 0.66407 0.0
O259 O 0.75318 0.12642 0.683 0.0
C260 C 0.62336 0.00931 0.67207 0.0
O261 O 0.75017 0.08254 0.64841 0.0
O262 O 0.80118 0.12265 0.66321 0.0
C263 C 0.78864 0.01826 0.67848 0.0
H264 H 0.82033 0.57399 0.02977 0.0
H265 H 0.7378 0.53603 0.03161 0.0
H266 H 0.72587 0.52478 0.98989 0.0
H267 H 0.80861 0.56285 0.98794 0.0
H268 H 0.67953 0.56685 1.00216 0.0
H269 H 0.63711 0.40309 0.0253 0.0
H270 H 0.68218 0.45253 0.03296 0.0
H271 H 0.6898 0.43766 1.01678 0.0
C272 C 0.80013 0.56225 0.02099 0.0
C273 C 0.82117 0.57122 1.00871 0.0
C274 C 0.7529 0.54065 0.02207 0.0
C275 C 0.72561 0.52759 1.0109 0.0
C276 C 0.74629 0.53457 0.99864 0.0
H277 H 0.43528 0.36391 1.00688 0.0
H278 H 0.51691 0.401 1.00373 0.0
C279 C 0.79361 0.55584 0.99755 0.0
C280 C 0.6759 0.50942 1.01202 0.0
H281 H 0.5785 0.42119 0.02428 0.0
C282 C 0.65735 0.53493 1.00695 0.0
C283 C 0.64705 0.46783 0.01829 0.0
C284 C 0.66481 0.43839 0.02357 0.0
C285 C 0.61075 0.52003 1.00806 0.0
C286 C 0.58202 0.47868 1.01447 0.0
C287 C 0.6006 0.45311 0.01947 0.0
C288 C 0.53209 0.45956 1.01543 0.0
C289 C 0.59242 0.54812 1.00216 0.0
C290 C 0.51308 0.4807 0.02283 0.0
C291 C 0.46587 0.45944 0.02465 0.0
C292 C 0.43713 0.41657 0.01919 0.0
C293 C 0.45638 0.39671 1.01134 0.0
C294 C 0.50315 0.41784 1.00952 0.0
H295 H 0.61723 0.57453 0.99549 0.0
H296 H 0.56067 0.52629 0.99671 0.0
H297 H 0.58436 0.5652 1.01004 0.0
H298 H 0.53481 0.51272 0.0276 0.0
H299 H 0.45216 0.47546 0.03081 0.0
H300 H 0.26599 0.81589 0.1975 0.0
H301 H 0.22343 0.73331 0.19948 0.0
H302 H 0.20834 0.7215 0.15778 0.0
H303 H 0.25255 0.80386 0.15576 0.0
H304 H 0.13833 0.68032 0.1937 0.0
H305 H 0.23709 0.62402 0.1643 0.0
H306 H 0.25949 0.68239 0.16891 0.0
H307 H 0.22192 0.65925 0.15518 0.0
C308 C 0.25506 0.79558 0.18873 0.0
C309 C 0.26333 0.81649 0.17646 0.0
C310 C 0.23025 0.74832 0.18987 0.0
C311 C 0.21263 0.72077 0.17879 0.0
C312 C 0.22237 0.74159 0.16649 0.0
H313 H 0.98061 0.44013 0.18518 0.0
H314 H 0.0264 0.52243 0.18161 0.0
C315 C 0.2479 0.78888 0.16532 0.0
C316 C 0.18136 0.67086 0.18024 0.0
H317 H 0.16239 0.56726 0.17017 0.0
C318 C 0.14381 0.65561 0.18861 0.0
C319 C 0.18826 0.63835 0.17364 0.0
C320 C 0.22912 0.65179 0.16511 0.0
C321 C 0.11347 0.60916 0.19065 0.0
C322 C 0.11981 0.57667 0.18382 0.0
C323 C 0.15708 0.59195 0.17535 0.0
C324 C 0.0907 0.5268 0.18603 0.0
C325 C 0.07592 0.59551 0.20047 0.0
C326 C 0.11129 0.50145 0.18943 0.0
C327 C 0.08543 0.45468 0.19118 0.0
C328 C 0.03798 0.43165 0.18971 0.0
C329 C 0.01699 0.4569 0.1865 0.0
C330 C 0.04319 0.50401 0.18452 0.0
H331 H 0.08304 0.62361 0.20728 0.0
H332 H 0.04388 0.58633 0.1953 0.0
H333 H 0.07079 0.56578 0.20623 0.0
H334 H 0.14768 0.51791 0.19073 0.0
H335 H 0.10287 0.43652 0.19375 0.0
H336 H 0.39305 0.20661 0.36757 0.0
H337 H 0.43239 0.1641 0.37104 0.0
H338 H 0.5157 0.2282 0.3374 0.0
H339 H 0.47676 0.27152 0.33404 0.0
H340 H 0.42734 0.10252 0.35334 0.0
H341 H 0.60747 0.22891 0.36275 0.0
H342 H 0.56272 0.24245 0.36408 0.0
H343 H 0.58511 0.24061 0.3484 0.0
C344 C 0.42101 0.21298 0.36122 0.0
C345 C 0.43209 0.24267 0.35059 0.0
C346 C 0.44319 0.18834 0.36314 0.0
C347 C 0.47697 0.19276 0.35448 0.0
C348 C 0.49028 0.22469 0.34435 0.0
H349 H 0.61965 0.05017 0.33826 0.0
H350 H 0.5816 0.09464 0.33783 0.0
C351 C 0.4682 0.24971 0.34247 0.0
C352 C 0.49437 0.16048 0.35525 0.0
H353 H 0.59097 0.15402 0.35755 0.0
C354 C 0.46311 0.11377 0.35439 0.0
C355 C 0.54098 0.17506 0.35659 0.0
C356 C 0.57601 0.22446 0.35813 0.0
C357 C 0.47728 0.08145 0.35447 0.0
C358 C 0.52395 0.0961 0.3556 0.0
C359 C 0.55514 0.14275 0.35665 0.0
C360 C 0.54173 0.06413 0.35512 0.0
C361 C 0.44237 0.03202 0.35289 0.0
C362 C 0.53076 0.03078 0.36473 0.0
C363 C 0.55224 0.00468 0.36491 0.0
C364 C 0.5853 0.01206 0.35555 0.0
C365 C 0.59429 0.04374 0.3456 0.0
C366 C 0.57277 0.06941 0.34538 0.0
H367 H 0.40951 0.02723 0.34929 0.0
H368 H 0.45454 0.01522 0.34605 0.0
H369 H 0.43632 0.01485 0.36245 0.0
H370 H 0.50731 0.02647 0.37245 0.0
H371 H 0.54525 0.98107 0.37281 0.0
H372 H 0.20654 0.46561 0.49069 0.0
H373 H 0.28924 0.5037 0.4924 0.0
H374 H 0.27815 0.47672 0.53357 0.0
H375 H 0.19557 0.43898 0.532 0.0
H376 H 0.35016 0.5628 0.52702 0.0
H377 H 0.35194 0.42775 0.49725 0.0
H378 H 0.32528 0.45587 0.48963 0.0
H379 H 0.30048 0.42233 0.50396 0.0
C380 C 0.22164 0.46893 0.50019 0.0
C381 C 0.19424 0.44895 0.5112 0.0
C382 C 0.26898 0.49015 0.50111 0.0
C383 C 0.28985 0.49194 0.51305 0.0
C384 C 0.26281 0.47527 0.52422 0.0
H385 H 0.56532 0.54169 0.52831 0.0
H386 H 0.48235 0.50596 0.52632 0.0
C387 C 0.21555 0.4539 0.52331 0.0
C388 C 0.33952 0.50928 0.51387 0.0
H389 H 0.42347 0.48969 0.50327 0.0
C390 C 0.36615 0.54681 0.52182 0.0
C391 C 0.3603 0.48783 0.5073 0.0
C392 C 0.33308 0.44596 0.49914 0.0
C393 C 0.41307 0.56415 0.52312 0.0
C394 C 0.43409 0.54367 0.51621 0.0
C395 C 0.40736 0.50548 0.5085 0.0
C396 C 0.48409 0.56294 0.5165 0.0
C397 C 0.43986 0.60422 0.53196 0.0
C398 C 0.51245 0.60595 0.51123 0.0
C399 C 0.55945 0.62619 0.51229 0.0
C400 C 0.57948 0.60395 0.51865 0.0
C401 C 0.55109 0.55979 0.52337 0.0
C402 C 0.50371 0.53942 0.52228 0.0
H403 H 0.41761 0.60894 0.53892 0.0
H404 H 0.46555 0.6002 0.53753 0.0
H405 H 0.45794 0.6354 0.52599 0.0
H406 H 0.49814 0.62435 0.5065 0.0
H407 H 0.58013 0.65996 0.50836 0.0
H408 H 0.74282 0.20448 0.65628 0.0
H409 H 0.78653 0.28733 0.65739 0.0
H410 H 0.822 0.27968 0.69716 0.0
H411 H 0.77746 0.1973 0.69629 0.0
H412 H 0.80676 0.34897 0.69392 0.0
H413 H 0.92316 0.35486 0.6552 0.0
H414 H 0.865 0.32912 0.65022 0.0
H415 H 0.88116 0.30249 0.66255 0.0
C416 C 0.75894 0.2204 0.66537 0.0
C417 C 0.75688 0.19398 0.67615 0.0
C418 C 0.78456 0.26786 0.66592 0.0
C419 C 0.8089 0.28983 0.67722 0.0
C420 C 0.8041 0.26364 0.68827 0.0
H421 H 0.01203 0.56112 0.70185 0.0
H422 H 0.96409 0.47904 0.69911 0.0
C423 C 0.7784 0.21636 0.68776 0.0
C424 C 0.84068 0.33978 0.67754 0.0
H425 H 0.93634 0.42531 0.6634 0.0
C426 C 0.83506 0.36558 0.68724 0.0
C427 C 0.87795 0.3616 0.66888 0.0
C428 C 0.88758 0.33561 0.6587 0.0
C429 C 0.86528 0.41238 0.68846 0.0
C430 C 0.90244 0.43407 0.67983 0.0
C431 C 0.90789 0.40855 0.67003 0.0
C432 C 0.93547 0.48343 0.68077 0.0
C433 C 0.85698 0.43847 0.6989 0.0
C434 C 0.93683 0.51305 0.67109 0.0
C435 C 0.96421 0.55997 0.67261 0.0
C436 C 0.99117 0.57829 0.6838 0.0
C437 C 0.99187 0.54832 0.69309 0.0
C438 C 0.96416 0.50136 0.6916 0.0
H439 H 0.82235 0.41882 0.70307 0.0
H440 H 0.88181 0.44658 0.70688 0.0
H441 H 0.86171 0.47092 0.69499 0.0
H442 H 0.91523 0.49994 0.6626 0.0
H443 H 0.96291 0.58197 0.66523 0.0
H444 H 0.58321 0.77366 0.8628 0.0
H445 H 0.54536 0.81828 0.86404 0.0
H446 H 0.51391 0.79623 0.82319 0.0
H447 H 0.55227 0.75165 0.82179 0.0
H448 H 0.57646 0.89994 0.84777 0.0
H449 H 0.39343 0.7739 0.84151 0.0
H450 H 0.43379 0.75817 0.84725 0.0
H451 H 0.43269 0.77094 0.83039 0.0
C452 C 0.56731 0.77723 0.85411 0.0
C453 C 0.57099 0.75899 0.84218 0.0
C454 C 0.54585 0.80303 0.85484 0.0
C455 C 0.52696 0.81082 0.84371 0.0
C456 C 0.52797 0.7904 0.83193 0.0
H457 H 0.3922 0.96888 0.83247 0.0
H458 H 0.42765 0.92253 0.82932 0.0
C459 C 0.54971 0.76465 0.83117 0.0
C460 C 0.50977 0.8433 0.84431 0.0
H461 H 0.4135 0.8507 0.84288 0.0
C462 C 0.54082 0.88923 0.8467 0.0
C463 C 0.4634 0.82939 0.84279 0.0
C464 C 0.42863 0.78041 0.84041 0.0
C465 C 0.52683 0.92164 0.84755 0.0
C466 C 0.4802 0.90763 0.84636 0.0
C467 C 0.44923 0.86165 0.84383 0.0
C468 C 0.46256 0.93975 0.84782 0.0
C469 C 0.56241 0.97071 0.84942 0.0
C470 C 0.47095 0.96589 0.85916 0.0
C471 C 0.45121 0.99314 0.8609 0.0
C472 C 0.42192 0.99419 0.85145 0.0
C473 C 0.41463 0.969 0.83995 0.0
C474 C 0.43471 0.9422 0.83816 0.0
H475 H 0.59615 0.97758 0.84594 0.0
H476 H 0.55331 0.99356 0.8442 0.0
H477 H 0.56552 0.979 0.85993 0.0
H478 H 0.49136 0.96392 0.86692 0.0
H479 H 0.45701 0.01144 0.86996 0.0
H480 H 0.6378 0.57436 0.85546 0.0
H481 H 0.59994 0.49198 0.85619 0.0
H482 H 0.50865 0.48362 0.82588 0.0
H483 H 0.54715 0.56697 0.82499 0.0
H484 H 0.51084 0.42516 0.86077 0.0
H485 H 0.56577 0.41144 0.8109 0.0
H486 H 0.58939 0.46467 0.81947 0.0
H487 H 0.53419 0.44057 0.81221 0.0
C488 C 0.60929 0.55508 0.84903 0.0
C489 C 0.59569 0.57727 0.84009 0.0
C490 C 0.58768 0.5079 0.84946 0.0
C491 C 0.55208 0.48151 0.84091 0.0
C492 C 0.5367 0.50333 0.8324 0.0
H493 H 0.39388 0.19168 0.82968 0.0
H494 H 0.43404 0.27383 0.827 0.0
C495 C 0.55829 0.55091 0.83201 0.0
C496 C 0.53245 0.4314 0.84085 0.0
H497 H 0.52163 0.3431 0.82235 0.0
C498 C 0.51316 0.40721 0.85237 0.0
C499 C 0.53573 0.40799 0.82991 0.0
C500 C 0.55769 0.43238 0.81743 0.0
C501 C 0.49658 0.36032 0.8532 0.0
C502 C 0.50033 0.33695 0.8423 0.0
C503 C 0.51927 0.36106 0.83075 0.0
C504 C 0.48192 0.287 0.84251 0.0
C505 C 0.47415 0.33603 0.86566 0.0
C506 C 0.49721 0.26669 0.85158 0.0
C507 C 0.47438 0.21939 0.85308 0.0
C508 C 0.43593 0.19176 0.84551 0.0
C509 C 0.42341 0.21206 0.83566 0.0
C510 C 0.44621 0.25911 0.83416 0.0
H511 H 0.46452 0.35651 0.87189 0.0
H512 H 0.44328 0.30303 0.8636 0.0
H513 H 0.49807 0.32937 0.87124 0.0
H514 H 0.52539 0.28752 0.85795 0.0
H515 H 0.48459 0.20489 0.86083 0.0
H516 H 0.06373 0.63343 0.02445 0.0
H517 H 0.10783 0.59509 0.02635 0.0
H518 H 0.03966 0.51377 0.99276 0.0
H519 H 0.99472 0.55204 0.99086 0.0
H520 H 0.07786 0.49537 0.02751 0.0
H521 H 0.18205 0.58859 0.98445 0.0
H522 H 0.14934 0.60794 0.99342 0.0
H523 H 0.12126 0.55978 0.98289 0.0
C524 C 0.05744 0.60674 0.0176 0.0
C525 C 0.02584 0.59576 1.00749 0.0
C526 C 0.08272 0.58493 0.01871 0.0
C527 C 0.07746 0.55207 1.00961 0.0
C528 C 0.04443 0.53935 0.99983 0.0
H529 H 0.23689 0.42164 0.99668 0.0
H530 H 0.19071 0.45743 0.99444 0.0
C531 C 0.01852 0.56088 0.99881 0.0
C532 C 0.10857 0.53337 1.01011 0.0
H533 H 0.20206 0.5407 0.99546 0.0
C534 C 0.1049 0.50502 0.02048 0.0
C535 C 0.1439 0.54625 1.00095 0.0
C536 C 0.14986 0.57751 0.9898 0.0
C537 C 0.13533 0.48873 0.02187 0.0
C538 C 0.17145 0.50245 1.01287 0.0
C539 C 0.17478 0.53055 1.00243 0.0
C540 C 0.2047 0.4862 1.01379 0.0
C541 C 0.12772 0.45608 0.03279 0.0
C542 C 0.23027 0.4926 0.02513 0.0
C543 C 0.25679 0.47193 0.02648 0.0
C544 C 0.25853 0.44476 1.01645 0.0
C545 C 0.23613 0.44196 1.00467 0.0
C546 C 0.20949 0.46234 1.00337 0.0
H547 H 0.09233 0.43958 0.03647 0.0
H548 H 0.13506 0.42928 0.02961 0.0
H549 H 0.15062 0.47481 0.04099 0.0
H550 H 0.22838 0.51215 0.03315 0.0
H551 H 0.2736 0.47499 0.03567 0.0
H552 H 0.43584 0.08292 0.18764 0.0
H553 H 0.51779 0.12879 0.18956 0.0
H554 H 0.53331 0.0303 0.16732 0.0
H555 H 0.45022 0.98355 0.16524 0.0
H556 H 0.59234 0.06905 0.19102 0.0
H557 H 0.59859 0.19967 0.15749 0.0
H558 H 0.55752 0.18301 0.17034 0.0
H559 H 0.55101 0.14259 0.1581 0.0
C560 C 0.45641 0.07059 0.18317 0.0
C561 C 0.43622 0.02964 0.17612 0.0
C562 C 0.50343 0.09708 0.18428 0.0
C563 C 0.53175 0.08351 0.17838 0.0
C564 C 0.51201 0.04159 0.17186 0.0
H565 H 0.82127 0.25403 0.16452 0.0
H566 H 0.73886 0.20858 0.16247 0.0
C567 C 0.46455 0.01484 0.17072 0.0
C568 C 0.58181 0.11421 0.17883 0.0
H569 H 0.6656 0.21945 0.16945 0.0
C570 C 0.60846 0.1018 0.18624 0.0
C571 C 0.60287 0.15688 0.17254 0.0
C572 C 0.5762 0.17136 0.16407 0.0
C573 C 0.65541 0.13137 0.18777 0.0
C574 C 0.67619 0.17475 0.18185 0.0
C575 C 0.64966 0.18659 0.17416 0.0
C576 C 0.72576 0.20744 0.18308 0.0
C577 C 0.6825 0.11566 0.19557 0.0
C578 C 0.74584 0.22421 0.19527 0.0
C579 C 0.79311 0.25075 0.19647 0.0
C580 C 0.82126 0.26094 0.18549 0.0
C581 C 0.8007 0.2469 0.17319 0.0
C582 C 0.75352 0.22061 0.172 0.0
H583 H 0.66397 0.07829 0.19683 0.0
H584 H 0.71558 0.12605 0.19084 0.0
H585 H 0.68931 0.13138 0.20536 0.0
H586 H 0.72505 0.21539 0.20393 0.0
H587 H 0.80763 0.26057 0.20611 0.0
H588 H 0.39472 0.42432 0.36462 0.0
H589 H 0.42963 0.5064 0.36717 0.0
H590 H 0.49074 0.52608 0.32928 0.0
H591 H 0.45591 0.44386 0.32662 0.0
H592 H 0.52416 0.58099 0.36495 0.0
H593 H 0.40867 0.58583 0.32761 0.0
H594 H 0.39798 0.53395 0.33542 0.0
H595 H 0.44003 0.55858 0.32287 0.0
C596 C 0.41628 0.44608 0.35691 0.0
C597 C 0.42224 0.42738 0.34537 0.0
C598 C 0.43615 0.49302 0.35839 0.0
C599 C 0.46206 0.5223 0.34832 0.0
C600 C 0.47029 0.50401 0.3371 0.0
H601 H 0.58498 0.80801 0.33284 0.0
H602 H 0.54783 0.72568 0.33199 0.0
C603 C 0.4507 0.45699 0.33565 0.0
C604 C 0.47839 0.57164 0.34932 0.0
H605 H 0.46426 0.65598 0.33628 0.0
C606 C 0.51105 0.59746 0.35872 0.0
C607 C 0.46101 0.59294 0.34122 0.0
C608 C 0.42472 0.5665 0.33126 0.0
C609 C 0.52785 0.64433 0.35998 0.0
C610 C 0.5105 0.66576 0.35186 0.0
C611 C 0.47741 0.63966 0.34255 0.0
C612 C 0.52829 0.71561 0.35227 0.0
C613 C 0.5652 0.67067 0.36968 0.0
C614 C 0.52778 0.73757 0.36379 0.0
C615 C 0.54924 0.78502 0.36433 0.0
C616 C 0.57134 0.81138 0.35331 0.0
C617 C 0.56863 0.78896 0.34155 0.0
C618 C 0.54743 0.74173 0.34105 0.0
H619 H 0.58244 0.65176 0.37268 0.0
H620 H 0.59098 0.70388 0.36562 0.0
H621 H 0.55053 0.67702 0.37852 0.0
H622 H 0.51201 0.71813 0.37249 0.0
H623 H 0.55055 0.801 0.37354 0.0
H624 H 0.02832 0.46892 0.49947 0.0
H625 H 0.98132 0.50477 0.50168 0.0
H626 H 0.87871 0.38607 0.52144 0.0
H627 H 0.92483 0.35036 0.51933 0.0
H628 H 0.84588 0.41434 0.50014 0.0
H629 H 0.94883 0.55504 0.53447 0.0
H630 H 0.97792 0.55035 0.52047 0.0
H631 H 0.95671 0.50672 0.53261 0.0
C632 C 0.9961 0.45085 0.50447 0.0
C633 C 0.9803 0.40662 0.50913 0.0
C634 C 0.96926 0.47134 0.50573 0.0
C635 C 0.92642 0.44802 0.51172 0.0
C636 C 0.91146 0.40461 0.51673 0.0
H637 H 0.74746 0.54569 0.53753 0.0
H638 H 0.79072 0.50627 0.53561 0.0
C639 C 0.93804 0.38427 0.5155 0.0
C640 C 0.89569 0.46723 0.5123 0.0
H641 H 0.88206 0.5507 0.52621 0.0
C642 C 0.85385 0.44426 0.5058 0.0
C643 C 0.90585 0.50588 0.51983 0.0
C644 C 0.94958 0.53092 0.52735 0.0
C645 C 0.82203 0.45898 0.50657 0.0
C646 C 0.83238 0.49792 0.51398 0.0
C647 C 0.87413 0.5208 0.52054 0.0
C648 C 0.80086 0.51614 0.51485 0.0
C649 C 0.77724 0.43228 0.49965 0.0
C650 C 0.79088 0.53348 0.50375 0.0
C651 C 0.76599 0.55585 0.5048 0.0
C652 C 0.75056 0.56144 0.51699 0.0
C653 C 0.7582 0.54152 0.52797 0.0
C654 C 0.78342 0.51942 0.52692 0.0
H655 H 0.77004 0.39763 0.49711 0.0
H656 H 0.74904 0.42957 0.50573 0.0
H657 H 0.77811 0.44996 0.4905 0.0
H658 H 0.80432 0.53179 0.49435 0.0
H659 H 0.76103 0.57103 0.49616 0.0
H660 H 0.56328 0.02505 0.65815 0.0
H661 H 0.48005 0.97921 0.65885 0.0
H662 H 0.4888 0.90157 0.69068 0.0
H663 H 0.57127 0.9464 0.68987 0.0
H664 H 0.43564 0.84723 0.67111 0.0
H665 H 0.38476 0.9739 0.68377 0.0
H666 H 0.42142 0.98848 0.66988 0.0
H667 H 0.44213 0.98512 0.68567 0.0
C668 C 0.54731 0.99905 0.66552 0.0
C669 C 0.57381 0.98934 0.67395 0.0
C670 C 0.49974 0.97274 0.6659 0.0
C671 C 0.47802 0.93681 0.67483 0.0
C672 C 0.50461 0.9288 0.68365 0.0
H673 H 0.20318 0.72955 0.69507 0.0
H674 H 0.28566 0.77203 0.69192 0.0
C675 C 0.55181 0.95467 0.68322 0.0
C676 C 0.42801 0.90543 0.67457 0.0
H677 H 0.32592 0.90034 0.67828 0.0
C678 C 0.41164 0.85888 0.67269 0.0
C679 C 0.39664 0.92049 0.67661 0.0
C680 C 0.41197 0.96964 0.67922 0.0
C681 C 0.36494 0.82715 0.67273 0.0
C682 C 0.33361 0.84219 0.67486 0.0
C683 C 0.34993 0.88876 0.67662 0.0
C684 C 0.28372 0.81051 0.67542 0.0
C685 C 0.34952 0.7779 0.67031 0.0
C686 C 0.25505 0.81684 0.66698 0.0
C687 C 0.20811 0.79258 0.66875 0.0
C688 C 0.18865 0.76144 0.67903 0.0
C689 C 0.21703 0.75255 0.6869 0.0
C690 C 0.26426 0.77711 0.68515 0.0
H691 H 0.37632 0.77354 0.66552 0.0
H692 H 0.34123 0.75969 0.67974 0.0
H693 H 0.31862 0.7619 0.66415 0.0
H694 H 0.26915 0.84222 0.65938 0.0
H695 H 0.18714 0.80036 0.66257 0.0
H696 H 0.20946 0.26131 0.98005 0.0
H697 H 0.21222 0.23114 0.95853 0.0
H698 H 0.35791 0.29916 0.96079 0.0
H699 H 0.35563 0.32939 0.98208 0.0
H700 H 0.26565 0.27704 0.93388 0.0
H701 H 0.31296 0.15961 0.95719 0.0
H702 H 0.28684 0.18628 0.96607 0.0
H703 H 0.3461 0.21785 0.96212 0.0
C704 C 0.24212 0.27063 0.97584 0.0
C705 C 0.28227 0.29754 0.98291 0.0
C706 C 0.24363 0.2532 0.96355 0.0
C707 C 0.28526 0.26225 0.95813 0.0
C708 C 0.32536 0.29113 0.96484 0.0
H709 H 0.39079 0.17426 0.89535 0.0
H710 H 0.37693 0.20812 0.91444 0.0
C711 C 0.32393 0.30853 0.97703 0.0
C712 C 0.28735 0.2398 0.94589 0.0
H713 H 0.31929 0.16592 0.93427 0.0
C714 C 0.27692 0.25239 0.93394 0.0
C715 C 0.30212 0.20768 0.94596 0.0
C716 C 0.31233 0.19164 0.95851 0.0
C717 C 0.28256 0.23502 0.92205 0.0
C718 C 0.29822 0.20348 0.92212 0.0
C719 C 0.30756 0.19021 0.93413 0.0
C720 C 0.30661 0.18472 0.90993 0.0
C721 C 0.2734 0.25199 0.90952 0.0
C722 C 0.27182 0.16016 0.90088 0.0
C723 C 0.27977 0.14088 0.88983 0.0
C724 C 0.3226 0.14524 0.88761 0.0
C725 C 0.35738 0.17013 0.89665 0.0
C726 C 0.34948 0.18952 0.90764 0.0
H727 H 0.27335 0.28427 0.91094 0.0
H728 H 0.29907 0.25732 0.90203 0.0
H729 H 0.23957 0.22644 0.90578 0.0
H730 H 0.23814 0.15494 0.90251 0.0
H731 H 0.25203 0.12173 0.88318 0.0
H732 H 0.94578 0.21128 0.14456 0.0
H733 H 0.97757 0.2159 0.1228 0.0
H734 H 0.06622 0.35958 0.12776 0.0
H735 H 0.03412 0.35548 0.14922 0.0
H736 H 0.03469 0.34014 0.10301 0.0
H737 H 0.1011 0.22762 0.1179 0.0
H738 H 0.04075 0.20289 0.11924 0.0
H739 H 0.07745 0.25005 0.12941 0.0
C740 C 0.97135 0.24401 0.14091 0.0
C741 C 0.98755 0.28291 0.14876 0.0
C742 C 0.98995 0.24653 0.1285 0.0
C743 C 0.02524 0.28796 0.12369 0.0
C744 C 0.03937 0.32714 0.13121 0.0
H745 H 0.2441 0.34654 0.07124 0.0
H746 H 0.19202 0.33234 0.0892 0.0
C747 C 0.02089 0.32468 0.14354 0.0
C748 C 0.04936 0.29082 0.11122 0.0
H749 H 0.11686 0.25588 0.09655 0.0
C750 C 0.05231 0.32138 0.10155 0.0
C751 C 0.07305 0.26692 0.10933 0.0
C752 C 0.07341 0.23531 0.11954 0.0
C753 C 0.07864 0.3292 0.09023 0.0
C754 C 0.10227 0.30525 0.08834 0.0
C755 C 0.09864 0.27409 0.0979 0.0
C756 C 0.13356 0.31423 0.07706 0.0
C757 C 0.08247 0.36453 0.08068 0.0
C758 C 0.11838 0.30872 0.06409 0.0
C759 C 0.14843 0.31719 0.05368 0.0
C760 C 0.19433 0.33104 0.05599 0.0
C761 C 0.20918 0.33616 0.069 0.0
C762 C 0.17928 0.32786 0.07934 0.0
H763 H 0.0714 0.38729 0.085 0.0
H764 H 0.11786 0.38549 0.07717 0.0
H765 H 0.06052 0.34744 0.07215 0.0
H766 H 0.08314 0.29731 0.06201 0.0
H767 H 0.13559 0.31246 0.04384 0.0
H768 H 0.90233 0.23326 0.23726 0.0
H769 H 0.86128 0.18106 0.25485 0.0
H770 H 0.7797 0.07746 0.22702 0.0
H771 H 0.82039 0.13036 0.20914 0.0
H772 H 0.72822 0.07973 0.24712 0.0
H773 H 0.87749 0.07839 0.2675 0.0
H774 H 0.88709 0.13495 0.2662 0.0
H775 H 0.87843 0.10191 0.25171 0.0
C776 C 0.87575 0.19939 0.23477 0.0
C777 C 0.86506 0.18613 0.22167 0.0
C778 C 0.85242 0.16932 0.24492 0.0
C779 C 0.81801 0.12477 0.24235 0.0
C780 C 0.80641 0.11148 0.2293 0.0
H781 H 0.72354 0.93813 0.30918 0.0
H782 H 0.75042 0.96926 0.28744 0.0
C783 C 0.82975 0.14178 0.21907 0.0
C784 C 0.79401 0.09291 0.25339 0.0
H785 H 0.81328 0.05251 0.2817 0.0
C786 C 0.74677 0.07332 0.25459 0.0
C787 C 0.81779 0.08354 0.26308 0.0
C788 C 0.86791 0.10041 0.262 0.0
C789 C 0.72319 0.04664 0.26547 0.0
C790 C 0.7475 0.03999 0.27561 0.0
C791 C 0.79441 0.05783 0.27408 0.0
C792 C 0.72573 0.01668 0.28814 0.0
C793 C 0.67236 0.02575 0.26592 0.0
C794 C 0.70201 0.03209 0.29581 0.0
C795 C 0.68614 0.01397 0.30821 0.0
C796 C 0.69404 0.98027 0.31341 0.0
C797 C 0.71633 0.96365 0.30552 0.0
C798 C 0.73208 0.98174 0.29308 0.0
H799 H 0.65779 0.02016 0.25597 0.0
H800 H 0.65612 0.99288 0.27117 0.0
H801 H 0.66377 0.04916 0.27102 0.0
H802 H 0.6975 0.0597 0.29248 0.0
H803 H 0.66951 0.02802 0.31397 0.0
H804 H 0.71431 0.83175 0.37472 0.0
H805 H 0.72929 0.79347 0.39268 0.0
H806 H 0.70724 0.87568 0.42029 0.0
H807 H 0.69367 0.91459 0.40258 0.0
H808 H 0.77874 0.86924 0.42729 0.0
H809 H 0.63681 0.69678 0.41613 0.0
H810 H 0.67721 0.72291 0.40323 0.0
H811 H 0.64293 0.74672 0.40821 0.0
C812 C 0.71286 0.84179 0.38461 0.0
C813 C 0.70247 0.87624 0.38711 0.0
C814 C 0.72106 0.81956 0.39492 0.0
C815 C 0.71866 0.83096 0.40795 0.0
C816 C 0.70924 0.86595 0.41039 0.0
H817 H 0.66311 0.68811 0.48001 0.0
H818 H 0.66358 0.71777 0.45845 0.0
C819 C 0.70132 0.88821 0.40017 0.0
C820 C 0.72567 0.80699 0.41919 0.0
H821 H 0.68229 0.70386 0.43422 0.0
C822 C 0.75789 0.83299 0.42873 0.0
C823 C 0.69826 0.75967 0.42122 0.0
C824 C 0.66157 0.72983 0.41174 0.0
C825 C 0.76259 0.8135 0.4403 0.0
C826 C 0.73512 0.7662 0.44236 0.0
C827 C 0.70371 0.73998 0.43266 0.0
C828 C 0.7351 0.74415 0.455 0.0
C829 C 0.79536 0.84431 0.45051 0.0
C830 C 0.77483 0.74733 0.46024 0.0
C831 C 0.77475 0.73041 0.47274 0.0
C832 C 0.73483 0.70961 0.48025 0.0
C833 C 0.69466 0.70413 0.47462 0.0
C834 C 0.69482 0.72111 0.46221 0.0
H835 H 0.8059 0.88041 0.44874 0.0
H836 H 0.78018 0.83485 0.46036 0.0
H837 H 0.82626 0.84121 0.45034 0.0
H838 H 0.8062 0.76384 0.45479 0.0
H839 H 0.80631 0.73524 0.47671 0.0
H840 H 0.88168 0.70443 0.54264 0.0
H841 H 0.93263 0.71774 0.56121 0.0
H842 H 0.81972 0.67224 0.58751 0.0
H843 H 0.76907 0.65934 0.56925 0.0
H844 H 0.94276 0.77563 0.58592 0.0
H845 H 0.88373 0.59413 0.59526 0.0
H846 H 0.87837 0.61483 0.57956 0.0
H847 H 0.83979 0.60775 0.59244 0.0
C848 C 0.8677 0.69709 0.55237 0.0
C849 C 0.82107 0.68058 0.55437 0.0
C850 C 0.89691 0.70491 0.56299 0.0
C851 C 0.87998 0.69578 0.57577 0.0
C852 C 0.83359 0.67929 0.57775 0.0
H853 H 0.93543 0.69038 0.65529 0.0
H854 H 0.90926 0.68403 0.6331 0.0
C855 C 0.80461 0.67195 0.56724 0.0
C856 C 0.90998 0.70306 0.58721 0.0
H857 H 0.92521 0.64584 0.61219 0.0
C858 C 0.93969 0.74736 0.59156 0.0
C859 C 0.90591 0.6662 0.59459 0.0
C860 C 0.87553 0.61797 0.59022 0.0
C861 C 0.96333 0.75561 0.60346 0.0
C862 C 0.95774 0.71857 0.61113 0.0
C863 C 0.92965 0.67437 0.6064 0.0
C864 C 0.97597 0.72417 0.6247 0.0
C865 C 0.99196 0.80379 0.60809 0.0
C866 C 0.02269 0.74896 0.6276 0.0
C867 C 0.03817 0.75297 0.64054 0.0
C868 C 0.0072 0.7321 0.65082 0.0
C869 C 0.96063 0.70717 0.64776 0.0
C870 C 0.94538 0.70331 0.63497 0.0
H871 H 0.98622 0.82785 0.60223 0.0
H872 H 0.98467 0.80686 0.61845 0.0
H873 H 0.0283 0.81393 0.6073 0.0
H874 H 0.04721 0.76478 0.61986 0.0
H875 H 0.07421 0.7722 0.64248 0.0
H876 H 0.28228 0.06883 0.81139 0.0
H877 H 0.25292 0.03798 0.78958 0.0
H878 H 0.2507 0.91433 0.79984 0.0
H879 H 0.27898 0.94422 0.82144 0.0
H880 H 0.28265 1.00313 0.76918 0.0
H881 H 0.12 0.86817 0.78909 0.0
H882 H 0.15953 0.91614 0.79867 0.0
H883 H 0.16772 0.8683 0.79648 0.0
C884 C 0.2759 0.03526 0.80893 0.0
C885 C 0.2824 0.00881 0.81828 0.0
C886 C 0.259 0.01758 0.79647 0.0
C887 C 0.24834 0.97323 0.79314 0.0
C888 C 0.25725 0.94802 0.80224 0.0
H889 H 0.15346 0.77951 0.73132 0.0
H890 H 0.18514 0.82641 0.75065 0.0
C891 C 0.27371 0.96537 0.81462 0.0
C892 C 0.2271 0.95225 0.78036 0.0
H893 H 0.13735 0.85749 0.76726 0.0
C894 C 0.25055 0.97167 0.76873 0.0
C895 C 0.18496 0.91126 0.7797 0.0
C896 C 0.15635 0.88998 0.79164 0.0
C897 C 0.23417 0.95001 0.75661 0.0
C898 C 0.19316 0.90796 0.75608 0.0
C899 C 0.16898 0.88947 0.76764 0.0
C900 C 0.17579 0.88114 0.74381 0.0
C901 C 0.26173 0.9712 0.74452 0.0
C902 C 0.15979 0.89611 0.73342 0.0
C903 C 0.14128 0.86908 0.72226 0.0
C904 C 0.13852 0.82651 0.72124 0.0
C905 C 0.15513 0.81207 0.73164 0.0
C906 C 0.17326 0.83888 0.74277 0.0
H907 H 0.29587 1.00018 0.74679 0.0
H908 H 0.26571 0.94566 0.73886 0.0
H909 H 0.2437 0.98366 0.73827 0.0
H910 H 0.16071 0.92827 0.73404 0.0
H911 H 0.12864 0.8813 0.71452 0.0
H912 H 0.73193 0.79664 0.88513 0.0
H913 H 0.76219 0.79556 0.90667 0.0
H914 H 0.71365 0.6527 0.90254 0.0
H915 H 0.68227 0.65317 0.88127 0.0
H916 H 0.70287 0.6717 0.92709 0.0
H917 H 0.87841 0.79336 0.91127 0.0
H918 H 0.84011 0.81494 0.91014 0.0
H919 H 0.83157 0.76825 0.90004 0.0
C920 C 0.72682 0.76476 0.88891 0.0
C921 C 0.7048 0.72506 0.88133 0.0
C922 C 0.74475 0.76432 0.90119 0.0
C923 C 0.74147 0.72429 0.90616 0.0
C924 C 0.71713 0.68417 0.89895 0.0
H925 H 0.91735 0.68841 0.95857 0.0
H926 H 0.87689 0.699 0.94069 0.0
C927 C 0.69907 0.68451 0.88673 0.0
C928 C 0.76465 0.72404 0.91855 0.0
H929 H 0.86883 0.76849 0.93301 0.0
C930 C 0.73914 0.6931 0.92842 0.0
C931 C 0.81217 0.75146 0.92028 0.0
C932 C 0.84231 0.78357 0.90984 0.0
C933 C 0.75964 0.68833 0.93977 0.0
C934 C 0.8071 0.71601 0.94155 0.0
C935 C 0.83247 0.74748 0.93178 0.0
C936 C 0.83176 0.71038 0.95286 0.0
C937 C 0.73043 0.6522 0.94947 0.0
C938 C 0.82059 0.71368 0.96586 0.0
C939 C 0.84366 0.70714 0.97626 0.0
C940 C 0.87882 0.69765 0.9739 0.0
C941 C 0.89046 0.69546 0.96087 0.0
C942 C 0.86732 0.70166 0.95056 0.0
H943 H 0.69745 0.62674 0.94519 0.0
H944 H 0.7479 0.63434 0.95318 0.0
H945 H 0.72327 0.6682 0.95784 0.0
H946 H 0.79412 0.72146 0.968 0.0
H947 H 0.83389 0.70942 0.98613 0.0
H948 H 0.94555 0.73347 0.05198 0.0
H949 H 0.97734 0.762 0.07362 0.0
H950 H 0.06669 0.7075 0.06923 0.0
H951 H 0.03434 0.67783 0.0479 0.0
H952 H 0.03752 0.69727 0.09372 0.0
H953 H 0.09831 0.87472 0.07851 0.0
H954 H 0.03803 0.83845 0.07744 0.0
H955 H 0.07468 0.82826 0.06714 0.0
C956 C 0.97125 0.72666 0.05573 0.0
C957 C 0.98748 0.70354 0.04806 0.0
C958 C 0.98993 0.7436 0.06808 0.0
C959 C 0.0255 0.73816 0.073 0.0
C960 C 0.03967 0.71266 0.06569 0.0
H961 H 0.24053 0.90685 0.12586 0.0
H962 H 0.18954 0.86793 0.1078 0.0
C963 C 0.02098 0.69562 0.05343 0.0
C964 C 0.04956 0.76029 0.08543 0.0
H965 H 0.1133 0.86345 0.10013 0.0
C966 C 0.05383 0.7336 0.09515 0.0
C967 C 0.07159 0.80786 0.0873 0.0
C968 C 0.0709 0.83913 0.07702 0.0
C969 C 0.07975 0.75295 0.10649 0.0
C970 C 0.10142 0.80047 0.10842 0.0
C971 C 0.09654 0.82705 0.09878 0.0
C972 C 0.132 0.82378 0.1198 0.0
C973 C 0.08525 0.72239 0.11602 0.0
C974 C 0.11703 0.8125 0.13275 0.0
C975 C 0.14657 0.83464 0.14323 0.0
C976 C 0.19168 0.86901 0.14102 0.0
C977 C 0.2062 0.88057 0.12804 0.0
C978 C 0.17689 0.85832 0.11762 0.0
H979 H 0.07653 0.6893 0.11158 0.0
H980 H 0.12053 0.73851 0.11974 0.0
H981 H 0.0622 0.71562 0.1244 0.0
H982 H 0.08235 0.78682 0.13478 0.0
H983 H 0.13395 0.82502 0.15306 0.0
H984 H 0.21023 0.93846 0.21851 0.0
H985 H 0.21095 0.97155 0.23981 0.0
H986 H 0.3561 0.05574 0.23749 0.0
H987 H 0.35581 0.02318 0.21633 0.0
H988 H 0.26345 0.98421 0.26465 0.0
H989 H 0.30496 0.14502 0.23987 0.0
H990 H 0.28198 0.09174 0.23133 0.0
H991 H 0.341 0.12251 0.23562 0.0
C992 C 0.24244 0.96316 0.22267 0.0
C993 C 0.28293 0.97831 0.21559 0.0
C994 C 0.24275 0.98224 0.23485 0.0
C995 C 0.2835 0.0168 0.24017 0.0
C996 C 0.32414 0.02969 0.23351 0.0
H997 H 0.38322 0.21423 0.30151 0.0
H998 H 0.36954 0.16506 0.28284 0.0
C999 C 0.32389 0.01078 0.22141 0.0
C1000 C 0.28387 0.04181 0.25216 0.0
H1001 H 0.31108 0.14747 0.26285 0.0
C1002 C 0.2734 0.01978 0.26427 0.0
C1003 C 0.29668 0.08821 0.25168 0.0
C1004 C 0.30644 0.11331 0.23893 0.0
C1005 C 0.27736 0.04343 0.27594 0.0
C1006 C 0.29141 0.09024 0.27547 0.0
C1007 C 0.30056 0.11175 0.26329 0.0
C1008 C 0.29927 0.1184 0.28744 0.0
C1009 C 0.26826 0.01853 0.28869 0.0
C1010 C 0.26437 0.10886 0.29641 0.0
C1011 C 0.27218 0.13711 0.30724 0.0
C1012 C 0.315 0.17575 0.30931 0.0
C1013 C 0.34979 0.1849 0.30032 0.0
C1014 C 0.34201 0.15673 0.28957 0.0
H1015 H 0.26827 0.98611 0.28763 0.0
H1016 H 0.29395 0.03969 0.29608 0.0
H1017 H 0.23446 0.01065 0.29235 0.0
H1018 H 0.23078 0.08015 0.29489 0.0
H1019 H 0.24443 0.12915 0.31386 0.0
H1020 H 0.287 0.21635 0.38637 0.0
H1021 H 0.26523 0.22194 0.40887 0.0
H1022 H 0.26374 0.34398 0.39888 0.0
H1023 H 0.28548 0.33886 0.37668 0.0
H1024 H 0.3048 0.34955 0.42308 0.0
H1025 H 0.13586 0.19353 0.41894 0.0
H1026 H 0.18464 0.18801 0.41549 0.0
H1027 H 0.17066 0.22109 0.40491 0.0
C1028 C 0.28252 0.24459 0.38903 0.0
C1029 C 0.28756 0.27686 0.37964 0.0
C1030 C 0.26975 0.24761 0.40187 0.0
C1031 C 0.26218 0.28311 0.40557 0.0
C1032 C 0.26914 0.3162 0.39632 0.0
H1033 H 0.09798 0.3234 0.45973 0.0
H1034 H 0.13525 0.30821 0.44185 0.0
C1035 C 0.28145 0.31305 0.38357 0.0
C1036 C 0.24531 0.2857 0.4188 0.0
H1037 H 0.15072 0.23616 0.43806 0.0
C1038 C 0.27141 0.32437 0.42647 0.0
C1039 C 0.20148 0.25317 0.42318 0.0
C1040 C 0.1712 0.21168 0.41521 0.0
C1041 C 0.25446 0.33203 0.43813 0.0
C1042 C 0.21023 0.29998 0.44236 0.0
C1043 C 0.1847 0.26063 0.43489 0.0
C1044 C 0.188 0.30877 0.45367 0.0
C1045 C 0.28313 0.37552 0.44549 0.0
C1046 C 0.20492 0.31398 0.46643 0.0
C1047 C 0.1835 0.32285 0.47682 0.0
C1048 C 0.14474 0.32673 0.47464 0.0
C1049 C 0.12788 0.32105 0.46185 0.0
C1050 C 0.14909 0.3121 0.45156 0.0
H1051 H 0.31299 0.40022 0.43976 0.0
H1052 H 0.26279 0.39153 0.44819 0.0
H1053 H 0.29558 0.36799 0.45459 0.0
H1054 H 0.2345 0.31092 0.46838 0.0
H1055 H 0.19734 0.32675 0.48651 0.0
H1056 H 0.07204 0.27559 0.55194 0.0
H1057 H 0.04134 0.24679 0.57369 0.0
H1058 H 0.94703 0.29531 0.56928 0.0
H1059 H 0.97812 0.32506 0.54786 0.0
H1060 H 0.97823 0.30807 0.59382 0.0
H1061 H 0.92209 0.13121 0.57886 0.0
H1062 H 0.982 0.16946 0.57756 0.0
H1063 H 0.94356 0.17731 0.56738 0.0
C1064 C 0.04542 0.28096 0.55571 0.0
C1065 C 0.02743 0.30242 0.54802 0.0
C1066 C 0.02743 0.26392 0.56812 0.0
C1067 C 0.99091 0.26772 0.57308 0.0
C1068 C 0.97486 0.29149 0.56572 0.0
H1069 H 0.7756 0.09811 0.62519 0.0
H1070 H 0.82788 0.13732 0.60741 0.0
C1071 C 0.99278 0.30853 0.5534 0.0
C1072 C 0.96764 0.24549 0.58558 0.0
H1073 H 0.90542 0.14211 0.60028 0.0
C1074 C 0.96266 0.27182 0.59527 0.0
C1075 C 0.94663 0.19801 0.58748 0.0
C1076 C 0.94837 0.16718 0.57725 0.0
C1077 C 0.93678 0.25211 0.6066 0.0
C1078 C 0.91582 0.20465 0.6085 0.0
C1079 C 0.92162 0.17848 0.59893 0.0
C1080 C 0.88468 0.18086 0.61972 0.0
C1081 C 0.93045 0.28217 0.61613 0.0
C1082 C 0.89889 0.19164 0.63275 0.0
C1083 C 0.86864 0.16926 0.64307 0.0
C1084 C 0.82355 0.13527 0.64062 0.0
C1085 C 0.80986 0.12412 0.62756 0.0
C1086 C 0.83991 0.14653 0.61731 0.0
H1087 H 0.93939 0.31545 0.61178 0.0
H1088 H 0.89487 0.26573 0.61962 0.0
H1089 H 0.9528 0.28855 0.62465 0.0
H1090 H 0.93346 0.2172 0.63495 0.0
H1091 H 0.88059 0.17863 0.65296 0.0
H1092 H 0.68922 0.77967 0.79195 0.0
H1093 H 0.70043 0.83087 0.77408 0.0
H1094 H 0.71979 0.93511 0.80133 0.0
H1095 H 0.7074 0.88317 0.81949 0.0
H1096 H 0.66534 0.93042 0.78146 0.0
H1097 H 0.81643 0.93438 0.76052 0.0
H1098 H 0.77046 0.87737 0.76206 0.0
H1099 H 0.79501 0.91122 0.77642 0.0
C1100 C 0.69614 0.81354 0.79425 0.0
C1101 C 0.69759 0.82713 0.80728 0.0
C1102 C 0.70293 0.84306 0.78394 0.0
C1103 C 0.71203 0.88743 0.78625 0.0
C1104 C 0.71325 0.90123 0.79923 0.0
H1105 H 0.7944 0.06954 0.71822 0.0
H1106 H 0.79332 0.03997 0.74002 0.0
C1107 C 0.70626 0.87149 0.80963 0.0
C1108 C 0.71849 0.91828 0.77504 0.0
H1109 H 0.77567 0.95752 0.74629 0.0
C1110 C 0.6899 0.93681 0.77386 0.0
C1111 C 0.75106 0.92765 0.76516 0.0
C1112 C 0.7853 0.91201 0.76616 0.0
C1113 C 0.69148 0.96233 0.76287 0.0
C1114 C 0.72183 0.96888 0.75255 0.0
C1115 C 0.7519 0.95222 0.75404 0.0
C1116 C 0.72159 0.99078 0.73991 0.0
C1117 C 0.66058 0.98211 0.76247 0.0
C1118 C 0.68163 0.97374 0.73253 0.0
C1119 C 0.68207 0.99089 0.7201 0.0
C1120 C 0.72264 0.0253 0.71458 0.0
C1121 C 0.76242 0.04339 0.72214 0.0
C1122 C 0.7619 0.02623 0.73461 0.0
H1123 H 0.65215 0.9882 0.77243 0.0
H1124 H 0.67614 0.01454 0.75701 0.0
H1125 H 0.62836 0.95777 0.75762 0.0
H1126 H 0.65024 0.94572 0.73613 0.0
H1127 H 0.65076 0.97573 0.71461 0.0
H1128 H 0.30646 0.10247 0.15346 0.0
H1129 H 0.3147 0.15353 0.1357 0.0
H1130 H 0.35476 0.08012 0.10992 0.0
H1131 H 0.34668 0.02856 0.1277 0.0
H1132 H 0.3944 0.20903 0.11895 0.0
H1133 H 0.24248 0.07895 0.0924 0.0
H1134 H 0.2522 0.07323 0.10938 0.0
H1135 H 0.28347 0.06304 0.0971 0.0
C1136 C 0.31719 0.09711 0.14404 0.0
C1137 C 0.32573 0.06118 0.142 0.0
C1138 C 0.32202 0.12652 0.13391 0.0
C1139 C 0.33502 0.12042 0.12149 0.0
C1140 C 0.34434 0.08515 0.11943 0.0
H1141 H 0.34376 0.23575 0.04638 0.0
H1142 H 0.34989 0.19494 0.06496 0.0
C1143 C 0.33983 0.05581 0.1296 0.0
C1144 C 0.33735 0.1502 0.11065 0.0
H1145 H 0.285 0.15017 0.08238 0.0
C1146 C 0.37059 0.19629 0.11093 0.0
C1147 C 0.30604 0.13345 0.10027 0.0
C1148 C 0.26874 0.08456 0.09973 0.0
C1149 C 0.37401 0.22593 0.10089 0.0
C1150 C 0.34261 0.20916 0.09049 0.0
C1151 C 0.30916 0.16307 0.09033 0.0
C1152 C 0.34422 0.23799 0.0794 0.0
C1153 C 0.41188 0.27454 0.10136 0.0
C1154 C 0.33998 0.27663 0.08128 0.0
C1155 C 0.33709 0.30064 0.07057 0.0
C1156 C 0.33752 0.28579 0.05785 0.0
C1157 C 0.34304 0.24793 0.05605 0.0
C1158 C 0.34651 0.22448 0.06668 0.0
H1159 H 0.43975 0.27884 0.10789 0.0
H1160 H 0.42605 0.28698 0.09152 0.0
H1161 H 0.39848 0.29602 0.10516 0.0
H1162 H 0.33717 0.28722 0.09099 0.0
H1163 H 0.33233 0.32936 0.07224 0.0
H1164 H 0.04306 0.35721 0.23561 0.0
H1165 H 0.09606 0.36538 0.25309 0.0
H1166 H 0.132 0.27843 0.2321 0.0
H1167 H 0.08004 0.27028 0.21476 0.0
H1168 H 0.10007 0.29712 0.2686 0.0
H1169 H 0.25514 0.39253 0.23873 0.0
H1170 H 0.20106 0.38584 0.23402 0.0
H1171 H 0.213 0.3407 0.23134 0.0
C1172 C 0.06225 0.33986 0.23474 0.0
C1173 C 0.05765 0.31363 0.22367 0.0
C1174 C 0.09252 0.34456 0.24472 0.0
C1175 C 0.11875 0.32332 0.24375 0.0
C1176 C 0.11306 0.29608 0.23291 0.0
H1177 H 0.30942 0.28637 0.29103 0.0
H1178 H 0.26031 0.28687 0.27361 0.0
C1179 C 0.08307 0.29138 0.22301 0.0
C1180 C 0.15189 0.32879 0.25401 0.0
H1181 H 0.26381 0.36285 0.25884 0.0
C1182 C 0.13593 0.31197 0.26652 0.0
C1183 C 0.19869 0.34787 0.25125 0.0
C1184 C 0.21815 0.36816 0.23814 0.0
C1185 C 0.16531 0.31259 0.27624 0.0
C1186 C 0.21198 0.33117 0.27341 0.0
C1187 C 0.22802 0.34842 0.26095 0.0
C1188 C 0.24466 0.33359 0.28339 0.0
C1189 C 0.14605 0.29222 0.28936 0.0
C1190 C 0.25342 0.36094 0.2944 0.0
C1191 C 0.28162 0.36104 0.30426 0.0
C1192 C 0.30182 0.33378 0.30335 0.0
C1193 C 0.29468 0.30795 0.29202 0.0
C1194 C 0.26642 0.308 0.28209 0.0
H1195 H 0.10857 0.27041 0.28908 0.0
H1196 H 0.16093 0.27175 0.29293 0.0
H1197 H 0.15457 0.31983 0.29646 0.0
H1198 H 0.23766 0.38158 0.29548 0.0
H1199 H 0.28642 0.38152 0.31281 0.0
H1200 H 0.69426 0.0174 0.40254 0.0
H1201 H 0.73878 0.0669 0.42047 0.0
H1202 H 0.83558 0.16168 0.39306 0.0
H1203 H 0.79212 0.11185 0.37516 0.0
H1204 H 0.87755 0.14578 0.41223 0.0
H1205 H 0.75066 0.18304 0.43368 0.0
H1206 H 0.73037 0.12342 0.43262 0.0
H1207 H 0.74282 0.15652 0.41798 0.0
C1208 C 0.72472 0.04907 0.40032 0.0
C1209 C 0.73951 0.0607 0.3874 0.0
C1210 C 0.75004 0.0775 0.41059 0.0
C1211 C 0.79022 0.1185 0.40813 0.0
C1212 C 0.80466 0.13036 0.39522 0.0
H1213 H 0.99341 0.32795 0.45939 0.0
H1214 H 0.94618 0.28767 0.44051 0.0
C1215 C 0.7797 0.10179 0.38498 0.0
C1216 C 0.8187 0.14777 0.41899 0.0
H1217 H 0.81648 0.20269 0.44657 0.0
C1218 C 0.86427 0.15863 0.41964 0.0
C1219 C 0.8015 0.16471 0.42868 0.0
C1220 C 0.75379 0.15673 0.42816 0.0
C1221 C 0.89263 0.1848 0.42987 0.0
C1222 C 0.87506 0.20067 0.43968 0.0
C1223 C 0.82976 0.19038 0.439 0.0
C1224 C 0.90271 0.22604 0.45109 0.0
C1225 C 0.94088 0.19433 0.43033 0.0
C1226 C 0.89347 0.20488 0.46327 0.0
C1227 C 0.92041 0.22756 0.474 0.0
C1228 C 0.95692 0.27218 0.47283 0.0
C1229 C 0.96553 0.29369 0.46064 0.0
C1230 C 0.9387 0.27072 0.44984 0.0
H1231 H 0.94758 0.17474 0.4229 0.0
H1232 H 0.96434 0.23094 0.42858 0.0
H1233 H 0.94866 0.18605 0.44009 0.0
H1234 H 0.86583 0.17042 0.46441 0.0
H1235 H 0.91264 0.20995 0.48324 0.0
H1236 H 0.67103 0.68356 0.56878 0.0
H1237 H 0.66208 0.72393 0.58732 0.0
H1238 H 0.69207 0.83732 0.56246 0.0
H1239 H 0.7014 0.79777 0.544 0.0
H1240 H 0.73483 0.8168 0.59571 0.0
H1241 H 0.57187 0.8071 0.5826 0.0
H1242 H 0.58785 0.76727 0.57655 0.0
H1243 H 0.61314 0.82324 0.56981 0.0
C1244 C 0.67524 0.71688 0.56724 0.0
C1245 C 0.68693 0.7374 0.55491 0.0
C1246 C 0.67017 0.73988 0.57783 0.0
C1247 C 0.67592 0.78335 0.57619 0.0
C1248 C 0.68688 0.80356 0.56388 0.0
H1249 H 0.67811 0.99217 0.62522 0.0
H1250 H 0.67409 0.94347 0.60707 0.0
C1251 C 0.69245 0.78093 0.55336 0.0
C1252 C 0.67339 0.8091 0.58745 0.0
H1253 H 0.61335 0.85596 0.60001 0.0
C1254 C 0.70807 0.82503 0.59675 0.0
C1255 C 0.63881 0.8203 0.58862 0.0
C1256 C 0.60053 0.80342 0.57893 0.0
C1257 C 0.70967 0.85274 0.60707 0.0
C1258 C 0.67481 0.86369 0.60835 0.0
C1259 C 0.63997 0.84752 0.59905 0.0
C1260 C 0.67405 0.89176 0.6193 0.0
C1261 C 0.74958 0.87126 0.61625 0.0
C1262 C 0.6739 0.87822 0.63218 0.0
C1263 C 0.67666 0.90607 0.64251 0.0
C1264 C 0.67872 0.94775 0.6402 0.0
C1265 C 0.67655 0.96028 0.62731 0.0
C1266 C 0.67432 0.93252 0.61694 0.0
H1267 H 0.77916 0.87105 0.61177 0.0
H1268 H 0.76012 0.90645 0.61925 0.0
H1269 H 0.73997 0.84975 0.62508 0.0
H1270 H 0.67232 0.84633 0.63427 0.0
H1271 H 0.67762 0.89506 0.65232 0.0
H1272 H 0.90457 0.62292 0.71744 0.0
H1273 H 0.85676 0.62158 0.73526 0.0
H1274 H 0.97547 0.71229 0.75733 0.0
H1275 H 0.02413 0.7143 0.73938 0.0
H1276 H 0.89591 0.62874 0.77101 0.0
H1277 H 0.84927 0.74077 0.74383 0.0
H1278 H 0.84624 0.6935 0.73513 0.0
H1279 H 0.90023 0.73878 0.74036 0.0
C1280 C 0.92077 0.64217 0.72613 0.0
C1281 C 0.96832 0.66892 0.72693 0.0
C1282 C 0.89326 0.64144 0.73629 0.0
C1283 C 0.91257 0.6673 0.74751 0.0
C1284 C 0.95998 0.69224 0.74869 0.0
H1285 H 0.80945 0.71645 0.81837 0.0
H1286 H 0.85345 0.70797 0.80116 0.0
C1287 C 0.98771 0.69317 0.73847 0.0
C1288 C 0.88292 0.66951 0.75769 0.0
H1289 H 0.81228 0.71145 0.76386 0.0
C1290 C 0.87771 0.64691 0.7695 0.0
C1291 C 0.85883 0.69278 0.75557 0.0
C1292 C 0.86392 0.71815 0.74309 0.0
C1293 C 0.84876 0.64676 0.77926 0.0
C1294 C 0.82524 0.67077 0.77727 0.0
C1295 C 0.83016 0.69297 0.76537 0.0
C1296 C 0.79748 0.67537 0.78768 0.0
C1297 C 0.84309 0.62024 0.79155 0.0
C1298 C 0.75141 0.66121 0.78572 0.0
C1299 C 0.72585 0.66635 0.7956 0.0
C1300 C 0.74606 0.68596 0.80758 0.0
C1301 C 0.7924 0.70064 0.80937 0.0
C1302 C 0.81774 0.69559 0.79954 0.0
H1303 H 0.8514 0.59298 0.78994 0.0
H1304 H 0.86652 0.64337 0.79909 0.0
H1305 H 0.80792 0.60476 0.79534 0.0
H1306 H 0.73519 0.64593 0.77658 0.0
H1307 H 0.6904 0.65496 0.79385 0.0
H1308 H 0.12888 0.77096 0.98653 0.0
H1309 H 0.18168 0.81734 0.96944 0.0
H1310 H 0.06959 0.77599 0.9429 0.0
H1311 H 0.01717 0.72674 0.95978 0.0
H1312 H 0.13509 0.78148 0.93008 0.0
H1313 H 0.20723 0.93837 0.95917 0.0
H1314 H 0.2166 0.89706 0.96711 0.0
H1315 H 0.15952 0.88621 0.96473 0.0
C1316 C 0.11571 0.7715 0.97699 0.0
C1317 C 0.06907 0.74549 0.97444 0.0
C1318 C 0.14581 0.79851 0.96726 0.0
C1319 C 0.1297 0.80174 0.95495 0.0
C1320 C 0.08305 0.77457 0.95231 0.0
H1321 H 0.28859 0.02477 0.90155 0.0
H1322 H 0.24013 0.97566 0.91901 0.0
C1323 C 0.05307 0.74635 0.96194 0.0
C1324 C 0.16137 0.83317 0.94485 0.0
H1325 H 0.24777 0.94153 0.93989 0.0
C1326 C 0.15946 0.81658 0.93223 0.0
C1327 C 0.1927 0.87943 0.94747 0.0
C1328 C 0.19377 0.90139 0.96031 0.0
C1329 C 0.188 0.84449 0.92225 0.0
C1330 C 0.22139 0.88988 0.92511 0.0
C1331 C 0.22296 0.90661 0.93769 0.0
C1332 C 0.25372 0.92108 0.91509 0.0
C1333 C 0.18062 0.82519 0.90868 0.0
C1334 C 0.27911 0.90786 0.90732 0.0
C1335 C 0.30589 0.93547 0.89712 0.0
C1336 C 0.30948 0.97776 0.89485 0.0
C1337 C 0.28686 0.99254 0.9032 0.0
C1338 C 0.25894 0.96431 0.91314 0.0
H1339 H 0.14537 0.79683 0.90735 0.0
H1340 H 0.18738 0.85136 0.90122 0.0
H1341 H 0.20369 0.81154 0.90697 0.0
H1342 H 0.2774 0.87567 0.90892 0.0
H1343 H 0.32315 0.9234 0.89085 0.0
H1344 H 0.14318 0.20124 0.03755 0.0
H1345 H 0.09302 0.12147 0.04308 0.0
H1346 H 0.17588 0.08503 0.02005 0.0
H1347 H 0.22659 0.16434 1.01475 0.0
H1348 H 0.04249 0.0513 0.02741 0.0
H1349 H 0.16374 0.01794 0.05338 0.0
H1350 H 0.17491 0.07477 0.05025 0.0
H1351 H 0.18835 0.04477 0.03821 0.0
C1352 C 0.1507 0.17614 0.0337 0.0
C1353 C 0.18877 0.18885 0.02572 0.0
C1354 C 0.1222 0.13078 0.03693 0.0
C1355 C 0.13153 0.09774 0.03225 0.0
C1356 C 0.16905 0.11033 0.02412 0.0
H1357 H 0.99362 0.84772 0.99975 0.0
H1358 H 0.01658 0.92328 1.00821 0.0
C1359 C 0.19771 0.15556 0.02098 0.0
C1360 C 0.10067 0.04946 0.03492 0.0
H1361 H 0.10519 0.95392 0.04082 0.0
C1362 C 0.05559 0.02984 0.03071 0.0
C1363 C 0.11718 0.02172 0.03975 0.0
C1364 C 0.16357 0.04109 0.0458 0.0
C1365 C 0.02835 0.98276 0.02971 0.0
C1366 C 0.04753 0.95532 0.03254 0.0
C1367 C 0.09068 0.97488 0.03827 0.0
C1368 C 0.02696 0.90806 0.028 0.0
C1369 C 0.98007 0.96325 0.02514 0.0
C1370 C 0.02629 0.87482 0.03618 0.0
C1371 C 0.01551 0.83273 0.03117 0.0
C1372 C 1.00417 0.82294 0.018 0.0
C1373 C 1.00246 0.85503 1.00993 0.0
C1374 C 0.0147 0.89775 1.01484 0.0
H1375 H 0.96514 0.98329 0.02905 0.0
H1376 H 0.97955 0.96525 1.01438 0.0
H1377 H 0.95853 0.92739 0.02818 0.0
H1378 H 0.03576 0.88202 0.04633 0.0
H1379 H 0.01623 0.80786 0.03758 0.0
H1380 H 0.19497 0.99505 0.20356 0.0
H1381 H 0.13602 0.01205 0.21001 0.0
H1382 H 0.09272 0.999 0.16996 0.0
H1383 H 0.14949 0.97848 0.16376 0.0
H1384 H 0.13693 0.08271 0.20374 0.0
H1385 H 0.97291 0.94526 0.18661 0.0
H1386 H 0.02209 0.93846 0.18764 0.0
H1387 H 0.01159 0.96217 0.17324 0.0
C1388 C 0.17205 0.99495 0.19624 0.0
C1389 C 0.17657 0.98617 0.18318 0.0
C1390 C 0.1383 1.0043 0.19992 0.0
C1391 C 0.10947 0.00623 0.19051 0.0
C1392 C 0.1134 0.99618 0.17747 0.0
H1393 H 0.05574 0.20994 0.17668 0.0
H1394 H 0.08055 0.15518 0.18045 0.0
C1395 C 0.14628 0.98533 0.17387 0.0
C1396 C 0.08125 0.02646 0.19383 0.0
H1397 H 0.98256 0.02257 0.18551 0.0
C1398 C 0.10259 0.06869 0.20011 0.0
C1399 C 0.03606 0.00799 0.18944 0.0
C1400 C 0.00933 0.96069 0.18401 0.0
C1401 C 0.08177 0.09491 0.20088 0.0
C1402 C 0.03936 0.07913 0.19481 0.0
C1403 C 0.01581 0.03503 0.1898 0.0
C1404 C 0.02225 0.11017 0.19211 0.0
C1405 C 0.10646 0.14036 0.20758 0.0
C1406 C 0.98029 0.10162 0.19694 0.0
C1407 C 0.96571 0.13265 0.19466 0.0
C1408 C 0.99301 0.17241 0.18752 0.0
C1409 C 0.03425 0.17988 0.18233 0.0
C1410 C 0.04856 0.1488 0.18453 0.0
H1411 H 0.1288 0.14024 0.21544 0.0
H1412 H 0.12824 0.16663 0.20042 0.0
H1413 H 0.08243 0.14991 0.21183 0.0
H1414 H 0.95946 0.07163 0.20269 0.0
H1415 H 0.93373 0.12609 0.19879 0.0
H1416 H 0.18956 0.24634 0.31562 0.0
H1417 H 0.11071 0.19839 0.30852 0.0
H1418 H 0.08718 0.10785 0.34068 0.0
H1419 H 0.16547 0.15422 0.34751 0.0
H1420 H 0.04544 0.06213 0.31815 0.0
H1421 H 0.01055 0.20277 0.32843 0.0
H1422 H 0.0524 0.21226 0.31633 0.0
H1423 H 0.06325 0.20647 0.33311 0.0
C1424 C 0.16739 0.21613 0.32113 0.0
C1425 C 0.18321 0.2043 0.33224 0.0
C1426 C 0.12262 0.18877 0.31703 0.0
C1427 C 0.09322 0.14992 0.32417 0.0
C1428 C 0.1095 0.13755 0.335 0.0
H1429 H 0.84414 0.97942 0.35509 0.0
H1430 H 0.91935 0.01125 0.345 0.0
C1431 C 0.15412 0.16434 0.33897 0.0
C1432 C 0.0443 0.12401 0.32148 0.0
H1433 H 0.94896 0.12996 0.32691 0.0
C1434 C 0.02413 0.07698 0.31971 0.0
C1435 C 0.0168 0.1437 0.32342 0.0
C1436 C 0.0366 0.19399 0.32549 0.0
C1437 C 0.97725 0.04862 0.32102 0.0
C1438 C 0.9504 0.06805 0.32417 0.0
C1439 C 0.96999 0.1153 0.32462 0.0
C1440 C 0.90323 0.04076 0.32863 0.0
C1441 C 0.95718 0.99814 0.31961 0.0
C1442 C 0.86964 0.0467 0.32271 0.0
C1443 C 0.8276 0.02978 0.3286 0.0
C1444 C 0.81836 0.0064 0.34049 0.0
C1445 C 0.85083 0.99769 0.346 0.0
C1446 C 0.89339 0.0153 0.34015 0.0
H1447 H 0.97816 0.99002 0.3131 0.0
H1448 H 0.9561 0.98328 0.3293 0.0
H1449 H 0.9221 0.98196 0.31572 0.0
H1450 H 0.87672 0.06635 0.31385 0.0
H1451 H 0.80259 0.03589 0.32396 0.0
H1452 H 0.9595 0.16536 0.52141 0.0
H1453 H 0.94403 0.08777 0.52362 0.0
H1454 H 0.07121 0.12403 0.505 0.0
H1455 H 0.08705 0.20204 0.50263 0.0
H1456 H 0.99634 0.04785 0.49452 0.0
H1457 H 1.00064 0.03377 0.54791 0.0
H1458 H 0.96752 0.059 0.5432 0.0
H1459 H 0.02723 0.08768 0.53956 0.0
C1460 C 0.98429 0.15697 0.51782 0.0
C1461 C 0.02447 0.18974 0.51186 0.0
C1462 C 0.97569 0.11282 0.51924 0.0
C1463 C 0.00712 0.10079 0.51478 0.0
C1464 C 0.04706 0.13315 0.5087 0.0
H1465 H 0.88925 0.80936 0.52798 0.0
H1466 H 0.95139 0.88775 0.52644 0.0
C1467 C 0.05584 0.17748 0.50731 0.0
C1468 C 0.99539 0.05316 0.51539 0.0
H1469 H 0.94941 0.9639 0.53628 0.0
C1470 C 0.9874 0.02949 0.50365 0.0
C1471 C 0.98487 0.02962 0.52733 0.0
C1472 C 0.99602 0.05398 0.54021 0.0
C1473 C 0.96407 0.98216 0.50352 0.0
C1474 C 0.94822 0.95862 0.51538 0.0
C1475 C 0.961 0.98229 0.52718 0.0
C1476 C 0.91238 0.91093 0.51566 0.0
C1477 C 0.95395 0.95778 0.49065 0.0
C1478 C 0.8699 0.89876 0.51034 0.0
C1479 C 0.83434 0.8544 0.51128 0.0
C1480 C 0.84079 0.82156 0.51758 0.0
C1481 C 0.88339 0.83397 0.523 0.0
C1482 C 0.91893 0.87852 0.5221 0.0
H1483 H 0.98031 0.97819 0.48332 0.0
H1484 H 0.95176 0.92431 0.49167 0.0
H1485 H 0.92097 0.95225 0.48694 0.0
H1486 H 0.86406 0.92384 0.50564 0.0
H1487 H 0.80194 0.84587 0.50703 0.0
H1488 H 0.05449 0.86299 0.70124 0.0
H1489 H 0.03072 0.91805 0.70607 0.0
H1490 H 0.89069 0.81145 0.7047 0.0
H1491 H 0.91458 0.7559 0.70041 0.0
H1492 H 0.98637 0.93011 0.68701 0.0
H1493 H 0.88457 0.8937 0.73172 0.0
H1494 H 0.92238 0.87167 0.72901 0.0
H1495 H 0.86583 0.84304 0.72238 0.0
C1496 C 0.01867 0.85121 0.70239 0.0
C1497 C 0.98614 0.80568 0.70016 0.0
C1498 C 1.00522 0.88256 0.70526 0.0
C1499 C 0.95904 0.86887 0.70573 0.0
C1500 C 0.92655 0.82262 0.70464 0.0
H1501 H 0.76895 0.93141 0.68099 0.0
H1502 H 0.8184 0.90461 0.68928 0.0
C1503 C 0.94011 0.79098 0.70202 0.0
C1504 C 0.94496 0.90299 0.70418 0.0
H1505 H 0.86467 0.92827 0.71386 0.0
C1506 C 0.96078 0.93085 0.69312 0.0
C1507 C 0.91171 0.90383 0.71215 0.0
C1508 C 0.89555 0.87673 0.72455 0.0
C1509 C 0.94116 0.95633 0.68913 0.0
C1510 C 0.90532 0.9542 0.69654 0.0
C1511 C 0.89203 0.92937 0.70818 0.0
C1512 C 0.87685 0.97165 0.69137 0.0
C1513 C 0.95629 0.98224 0.67649 0.0
C1514 C 0.89402 0.01815 0.68951 0.0
C1515 C 0.866 0.03356 0.68456 0.0
C1516 C 0.82047 1.00254 0.68161 0.0
C1517 C 0.8039 0.95599 0.68321 0.0
C1518 C 0.83191 0.94069 0.68804 0.0
H1519 H 0.98073 0.97566 0.67113 0.0
H1520 H 0.92664 0.97311 0.67011 0.0
H1521 H 0.97292 0.01909 0.67852 0.0
H1522 H 0.92867 0.04243 0.69211 0.0
H1523 H 0.87938 0.06969 0.68357 0.0
H1524 H 0.16563 0.91851 0.86673 0.0
H1525 H 0.08601 0.89605 0.87061 0.0
H1526 H 0.12283 0.03665 0.87344 0.0
H1527 H 0.20165 0.0591 0.86891 0.0
H1528 H 0.03126 0.91453 0.88846 0.0
H1529 H 0.05054 0.99259 0.83945 0.0
H1530 H 0.09363 0.98302 0.84635 0.0
H1531 H 0.08667 0.02892 0.85212 0.0
C1532 C 0.15671 0.94441 0.86851 0.0
C1533 C 0.18906 0.99037 0.86721 0.0
C1534 C 0.11148 0.93167 0.8708 0.0
C1535 C 0.09878 0.96489 0.87201 0.0
C1536 C 0.13206 0.01071 0.87228 0.0
H1537 H 0.82029 0.8854 0.84875 0.0
H1538 H 0.89603 0.93567 0.85778 0.0
C1539 C 0.17689 0.0234 0.86969 0.0
C1540 C 0.0509 0.95183 0.87047 0.0
H1541 H 0.97747 0.94977 0.84762 0.0
C1542 C 0.01941 0.92294 0.87968 0.0
C1543 C 0.03582 0.96332 0.85901 0.0
C1544 C 0.06825 0.99341 0.8486 0.0
C1545 C 0.97282 0.90287 0.87733 0.0
C1546 C 0.95796 0.91157 0.86541 0.0
C1547 C 0.98931 0.94337 0.85673 0.0
C1548 C 0.91167 0.88206 0.86062 0.0
C1549 C 0.93997 0.87086 0.88732 0.0
C1550 C 0.89678 0.83606 0.85874 0.0
C1551 C 0.85433 0.80769 0.85347 0.0
C1552 C 0.82598 0.82484 0.84992 0.0
C1553 C 0.84154 0.87135 0.85137 0.0
C1554 C 0.88436 0.89989 0.85667 0.0
H1555 H 0.95428 0.88023 0.89728 0.0
H1556 H 0.90721 0.87051 0.887 0.0
H1557 H 0.93329 0.83605 0.88533 0.0
H1558 H 0.91824 0.82213 0.86125 0.0
H1559 H 0.84347 0.77209 0.85234 0.0
loop_
_geom_bond_atom_site_label_1
_geom_bond_atom_site_label_2
_geom_bond_distance
_geom_bond_site_symmetry_2
_ccdc_geom_bond_type
Fe0 O2 1.918 . S
Fe0 O5 1.997 . S
Fe0 O6 2.002 . S
Fe0 O11 1.976 1_554 S
Fe0 O14 1.995 1_554 S
Fe1 O2 1.918 . S
Fe1 O9 1.997 . S
Fe1 O12 1.996 1_554 S
Fe1 O16 1.976 . S
Fe1 O19 2.002 . S
O2 Fe0 1.918 . S
O2 Fe1 1.918 . S
O2 Fe3 1.918 . S
Fe3 O2 1.918 . S
Fe3 O4 2.002 . S
Fe3 O13 1.976 . S
Fe3 O17 1.996 . S
Fe3 O20 1.997 . S
O4 Fe3 2.002 . S
O4 C21 1.295 . S
O5 Fe0 1.997 . S
O5 C21 1.235 . S
O6 Fe0 2.002 . S
O6 C7 1.295 . S
C7 O6 1.295 . S
C7 O9 1.235 . S
C8 O13 1.287 . S
C8 O14 1.252 1_554 S
O9 Fe1 1.997 . S
O9 C7 1.235 . S
C10 O16 1.287 . S
C10 O17 1.255 . S
O11 Fe0 1.976 1_556 S
O11 C18 1.287 . S
O12 Fe1 1.996 1_556 S
O12 C18 1.255 . S
O13 Fe3 1.976 . S
O13 C8 1.287 . S
O14 Fe0 1.995 1_556 S
O14 C8 1.252 1_556 S
C15 O19 1.295 . S
C15 O20 1.235 . S
O16 Fe1 1.976 . S
O16 C10 1.287 . S
O17 Fe3 1.996 . S
O17 C10 1.255 . S
C18 O11 1.287 . S
C18 O12 1.255 . S
O19 Fe1 2.002 . S
O19 C15 1.295 . S
O20 Fe3 1.997 . S
O20 C15 1.235 . S
C21 O4 1.295 . S
C21 O5 1.235 . S
Fe22 O24 1.918 . S
Fe22 O27 1.997 . S
Fe22 O28 2.002 . S
Fe22 O33 1.976 . S
Fe22 O36 1.996 . S
Fe23 O24 1.918 . S
Fe23 O31 1.997 . S
Fe23 O34 1.996 . S
Fe23 O38 1.976 . S
Fe23 O41 2.002 . S
O24 Fe22 1.918 . S
O24 Fe23 1.918 . S
O24 Fe25 1.918 1_655 S
Fe25 O24 1.918 1_455 S
Fe25 O26 2.002 . S
Fe25 O35 1.976 . S
Fe25 O39 1.996 . S
Fe25 O42 1.997 . S
O26 Fe25 2.002 . S
O26 C43 1.295 . S
O27 Fe22 1.997 . S
O27 C43 1.235 1_655 S
O28 Fe22 2.002 . S
O28 C29 1.295 . S
C29 O28 1.295 . S
C29 O31 1.235 . S
C30 O35 1.275 1_655 S
C30 O36 1.263 . S
O31 Fe23 1.997 . S
O31 C29 1.235 . S
C32 O38 1.287 . S
C32 O39 1.255 1_655 S
O33 Fe22 1.976 . S
O33 C40 1.287 . S
O34 Fe23 1.996 . S
O34 C40 1.255 . S
O35 Fe25 1.976 . S
O35 C30 1.275 1_455 S
O36 Fe22 1.996 . S
O36 C30 1.263 . S
C37 O41 1.295 1_455 S
C37 O42 1.235 . S
O38 Fe23 1.976 . S
O38 C32 1.287 . S
O39 Fe25 1.996 . S
O39 C32 1.255 1_455 S
C40 O33 1.287 . S
C40 O34 1.255 . S
O41 Fe23 2.002 . S
O41 C37 1.295 1_655 S
O42 Fe25 1.997 . S
O42 C37 1.235 . S
C43 O26 1.295 . S
C43 O27 1.235 1_455 S
Fe44 O46 1.918 . S
Fe44 O49 1.997 . S
Fe44 O50 2.002 . S
Fe44 O55 1.976 . S
Fe44 O58 1.996 . S
Fe45 O46 1.918 1_545 S
Fe45 O53 1.997 . S
Fe45 O56 1.996 . S
Fe45 O60 1.976 . S
Fe45 O63 2.002 . S
O46 Fe44 1.918 . S
O46 Fe45 1.918 1_565 S
O46 Fe47 1.918 . S
Fe47 O46 1.918 . S
Fe47 O48 2.002 . S
Fe47 O57 1.976 . S
Fe47 O61 1.996 . S
Fe47 O64 1.997 . S
O48 Fe47 2.002 . S
O48 C65 1.295 . S
O49 Fe44 1.997 . S
O49 C65 1.235 . S
O50 Fe44 2.002 . S
O50 C51 1.295 1_565 S
C51 O50 1.295 1_545 S
C51 O53 1.235 . S
C52 O57 1.287 . S
C52 O58 1.255 . S
O53 Fe45 1.997 . S
O53 C51 1.235 . S
C54 O60 1.286 . S
C54 O61 1.256 1_545 S
O55 Fe44 1.976 . S
O55 C62 1.287 . S
O56 Fe45 1.996 . S
O56 C62 1.255 1_545 S
O57 Fe47 1.976 . S
O57 C52 1.287 . S
O58 Fe44 1.996 . S
O58 C52 1.255 . S
C59 O63 1.295 . S
C59 O64 1.235 1_545 S
O60 Fe45 1.976 . S
O60 C54 1.286 . S
O61 Fe47 1.996 . S
O61 C54 1.256 1_565 S
C62 O55 1.287 . S
C62 O56 1.255 1_565 S
O63 Fe45 2.002 . S
O63 C59 1.295 . S
O64 Fe47 1.997 . S
O64 C59 1.235 1_565 S
C65 O48 1.295 . S
C65 O49 1.235 . S
Fe66 O68 1.918 . S
Fe66 O71 1.997 . S
Fe66 O72 2.002 . S
Fe66 O77 1.976 . S
Fe66 O80 1.996 . S
Fe67 O68 1.918 . S
Fe67 O75 1.997 . S
Fe67 O78 1.996 . S
Fe67 O82 1.976 . S
Fe67 O85 2.002 . S
O68 Fe66 1.918 . S
O68 Fe67 1.918 . S
O68 Fe69 1.918 . S
Fe69 O68 1.918 . S
Fe69 O70 2.002 . S
Fe69 O79 1.976 . S
Fe69 O83 1.996 . S
Fe69 O86 1.997 . S
O70 Fe69 2.002 . S
O70 C87 1.295 . S
O71 Fe66 1.997 . S
O71 C87 1.235 . S
O72 Fe66 2.002 . S
O72 C73 1.295 . S
C73 O72 1.295 . S
C73 O75 1.235 . S
C74 O79 1.287 . S
C74 O80 1.255 . S
O75 Fe67 1.997 . S
O75 C73 1.235 . S
C76 O82 1.287 . S
C76 O83 1.255 . S
O77 Fe66 1.976 . S
O77 C84 1.287 . S
O78 Fe67 1.996 . S
O78 C84 1.255 . S
O79 Fe69 1.976 . S
O79 C74 1.287 . S
O80 Fe66 1.996 . S
O80 C74 1.255 . S
C81 O85 1.295 . S
C81 O86 1.235 . S
O82 Fe67 1.976 . S
O82 C76 1.287 . S
O83 Fe69 1.996 . S
O83 C76 1.255 . S
C84 O77 1.287 . S
C84 O78 1.255 . S
O85 Fe67 2.002 . S
O85 C81 1.295 . S
O86 Fe69 1.997 . S
O86 C81 1.235 . S
C87 O70 1.295 . S
C87 O71 1.235 . S
Fe88 O90 1.918 . S
Fe88 O93 1.997 . S
Fe88 O94 2.002 . S
Fe88 O99 1.976 . S
Fe88 O102 1.996 . S
Fe89 O90 1.918 . S
Fe89 O97 1.997 . S
Fe89 O100 1.996 . S
Fe89 O104 1.976 . S
Fe89 O107 2.002 . S
O90 Fe88 1.918 . S
O90 Fe89 1.918 . S
O90 Fe91 1.918 1_455 S
Fe91 O90 1.918 1_655 S
Fe91 O92 2.002 . S
Fe91 O101 1.976 . S
Fe91 O105 1.996 . S
Fe91 O108 1.997 . S
O92 Fe91 2.002 . S
O92 C109 1.295 . S
O93 Fe88 1.997 . S
O93 C109 1.235 1_455 S
O94 Fe88 2.002 . S
O94 C95 1.295 . S
C95 O94 1.295 . S
C95 O97 1.235 . S
C96 O101 1.301 . S
C96 O102 1.245 1_655 S
O97 Fe89 1.997 . S
O97 C95 1.235 . S
C98 O104 1.287 . S
C98 O105 1.255 1_455 S
O99 Fe88 1.976 . S
O99 C106 1.287 . S
O100 Fe89 1.996 . S
O100 C106 1.255 . S
O101 Fe91 1.976 . S
O101 C96 1.301 . S
O102 Fe88 1.996 . S
O102 C96 1.245 1_455 S
C103 O107 1.295 1_655 S
C103 O108 1.235 . S
O104 Fe89 1.976 . S
O104 C98 1.287 . S
O105 Fe91 1.996 . S
O105 C98 1.255 1_655 S
C106 O99 1.287 . S
C106 O100 1.255 . S
O107 Fe89 2.002 . S
O107 C103 1.295 1_455 S
O108 Fe91 1.997 . S
O108 C103 1.235 . S
C109 O92 1.295 . S
C109 O93 1.235 1_655 S
Fe110 O112 1.918 . S
Fe110 O115 1.997 . S
Fe110 O116 2.002 . S
Fe110 O121 1.976 . S
Fe110 O124 1.996 . S
Fe111 O112 1.918 1_565 S
Fe111 O119 1.997 . S
Fe111 O122 1.996 . S
Fe111 O126 1.976 . S
Fe111 O129 2.002 . S
O112 Fe110 1.918 . S
O112 Fe111 1.918 1_545 S
O112 Fe113 1.918 . S
Fe113 O112 1.918 . S
Fe113 O114 2.002 . S
Fe113 O123 1.976 . S
Fe113 O127 1.996 . S
Fe113 O130 1.997 . S
O114 Fe113 2.002 . S
O114 C131 1.295 . S
O115 Fe110 1.997 . S
O115 C131 1.235 . S
O116 Fe110 2.002 . S
O116 C117 1.295 1_545 S
C117 O116 1.295 1_565 S
C117 O119 1.235 . S
C118 O123 1.287 . S
C118 O124 1.255 . S
O119 Fe111 1.997 . S
O119 C117 1.235 . S
C120 O126 1.286 . S
C120 O127 1.256 1_565 S
O121 Fe110 1.976 . S
O121 C128 1.287 . S
O122 Fe111 1.996 . S
O122 C128 1.255 1_565 S
O123 Fe113 1.976 . S
O123 C118 1.287 . S
O124 Fe110 1.996 . S
O124 C118 1.255 . S
C125 O129 1.295 . S
C125 O130 1.235 1_565 S
O126 Fe111 1.976 . S
O126 C120 1.286 . S
O127 Fe113 1.996 . S
O127 C120 1.256 1_545 S
C128 O121 1.287 . S
C128 O122 1.255 1_545 S
O129 Fe111 2.002 . S
O129 C125 1.295 . S
O130 Fe113 1.997 . S
O130 C125 1.235 1_545 S
C131 O114 1.295 . S
C131 O115 1.235 . S
Fe132 O134 1.918 . S
Fe132 O137 1.997 . S
Fe132 O138 2.002 . S
Fe132 O143 1.976 . S
Fe132 O146 1.996 . S
Fe133 O134 1.918 . S
Fe133 O141 1.997 . S
Fe133 O144 1.996 . S
Fe133 O148 1.976 . S
Fe133 O151 2.002 . S
O134 Fe132 1.918 . S
O134 Fe133 1.918 . S
O134 Fe135 1.918 . S
Fe135 O134 1.918 . S
Fe135 O136 2.002 . S
Fe135 O145 1.976 . S
Fe135 O149 1.996 . S
Fe135 O152 1.997 . S
O136 Fe135 2.002 . S
O136 C153 1.295 . S
O137 Fe132 1.997 . S
O137 C153 1.235 . S
O138 Fe132 2.002 . S
O138 C139 1.295 . S
C139 O138 1.295 . S
C139 O141 1.235 . S
C140 O145 1.287 . S
C140 O146 1.255 . S
O141 Fe133 1.997 . S
O141 C139 1.235 . S
C142 O148 1.287 . S
C142 O149 1.255 . S
O143 Fe132 1.976 . S
O143 C150 1.287 . S
O144 Fe133 1.996 . S
O144 C150 1.255 . S
O145 Fe135 1.976 . S
O145 C140 1.287 . S
O146 Fe132 1.996 . S
O146 C140 1.255 . S
C147 O151 1.295 . S
C147 O152 1.235 . S
O148 Fe133 1.976 . S
O148 C142 1.287 . S
O149 Fe135 1.996 . S
O149 C142 1.255 . S
C150 O143 1.287 . S
C150 O144 1.255 . S
O151 Fe133 2.002 . S
O151 C147 1.295 . S
O152 Fe135 1.997 . S
O152 C147 1.235 . S
C153 O136 1.295 . S
C153 O137 1.235 . S
Fe154 O156 1.918 1_455 S
Fe154 O159 1.997 . S
Fe154 O160 2.002 . S
Fe154 O165 1.976 . S
Fe154 O168 1.996 1_556 S
Fe155 O156 1.918 . S
Fe155 O163 1.997 . S
Fe155 O166 1.996 . S
Fe155 O170 1.976 . S
Fe155 O173 2.002 . S
O156 Fe154 1.918 1_655 S
O156 Fe155 1.918 . S
O156 Fe157 1.918 . S
Fe157 O156 1.918 . S
Fe157 O158 2.002 . S
Fe157 O167 1.976 1_556 S
Fe157 O171 1.996 . S
Fe157 O174 1.997 . S
O158 Fe157 2.002 . S
O158 C175 1.295 1_655 S
O159 Fe154 1.997 . S
O159 C175 1.235 . S
O160 Fe154 2.002 . S
O160 C161 1.295 . S
C161 O160 1.295 . S
C161 O163 1.235 1_455 S
C162 O167 1.287 . S
C162 O168 1.255 1_655 S
O163 Fe155 1.997 . S
O163 C161 1.235 1_655 S
C164 O170 1.287 . S
C164 O171 1.255 . S
O165 Fe154 1.976 . S
O165 C172 1.285 1_455 S
O166 Fe155 1.996 . S
O166 C172 1.265 . S
O167 Fe157 1.976 1_554 S
O167 C162 1.287 . S
O168 Fe154 1.996 1_554 S
O168 C162 1.255 1_455 S
C169 O173 1.295 . S
C169 O174 1.235 . S
O170 Fe155 1.976 . S
O170 C164 1.287 . S
O171 Fe157 1.996 . S
O171 C164 1.255 . S
C172 O165 1.285 1_655 S
C172 O166 1.265 . S
O173 Fe155 2.002 . S
O173 C169 1.295 . S
O174 Fe157 1.997 . S
O174 C169 1.235 . S
C175 O158 1.295 1_455 S
C175 O159 1.235 . S
Fe176 O178 1.918 1_545 S
Fe176 O181 1.997 . S
Fe176 O182 2.002 . S
Fe176 O187 1.976 . S
Fe176 O190 1.996 . S
Fe177 O178 1.918 . S
Fe177 O185 1.997 . S
Fe177 O188 1.996 . S
Fe177 O192 1.976 . S
Fe177 O195 2.002 . S
O178 Fe176 1.918 1_565 S
O178 Fe177 1.918 . S
O178 Fe179 1.918 . S
Fe179 O178 1.918 . S
Fe179 O180 2.002 . S
Fe179 O189 1.976 . S
Fe179 O193 1.996 . S
Fe179 O196 1.997 . S
O180 Fe179 2.002 . S
O180 C197 1.295 1_565 S
O181 Fe176 1.997 . S
O181 C197 1.235 . S
O182 Fe176 2.002 . S
O182 C183 1.295 . S
C183 O182 1.295 . S
C183 O185 1.235 1_545 S
C184 O189 1.287 . S
C184 O190 1.255 1_565 S
O185 Fe177 1.997 . S
O185 C183 1.235 1_565 S
C186 O192 1.287 . S
C186 O193 1.255 . S
O187 Fe176 1.976 . S
O187 C194 1.285 . S
O188 Fe177 1.996 . S
O188 C194 1.256 1_565 S
O189 Fe179 1.976 . S
O189 C184 1.287 . S
O190 Fe176 1.996 . S
O190 C184 1.255 1_545 S
C191 O195 1.295 . S
C191 O196 1.235 . S
O192 Fe177 1.976 . S
O192 C186 1.287 . S
O193 Fe179 1.996 . S
O193 C186 1.255 . S
C194 O187 1.285 . S
C194 O188 1.256 1_545 S
O195 Fe177 2.002 . S
O195 C191 1.295 . S
O196 Fe179 1.997 . S
O196 C191 1.235 . S
C197 O180 1.295 1_545 S
C197 O181 1.235 . S
Fe198 O200 1.918 . S
Fe198 O203 1.997 . S
Fe198 O204 2.002 . S
Fe198 O209 1.976 . S
Fe198 O212 1.996 . S
Fe199 O200 1.918 . S
Fe199 O207 1.997 . S
Fe199 O210 1.996 . S
Fe199 O214 1.976 . S
Fe199 O217 2.002 . S
O200 Fe198 1.918 . S
O200 Fe199 1.918 . S
O200 Fe201 1.918 . S
Fe201 O200 1.918 . S
Fe201 O202 2.002 . S
Fe201 O211 1.976 . S
Fe201 O215 1.996 . S
Fe201 O218 1.997 . S
O202 Fe201 2.002 . S
O202 C219 1.295 . S
O203 Fe198 1.997 . S
O203 C219 1.235 . S
O204 Fe198 2.002 . S
O204 C205 1.295 . S
C205 O204 1.295 . S
C205 O207 1.235 . S
C206 O211 1.287 . S
C206 O212 1.255 . S
O207 Fe199 1.997 . S
O207 C205 1.235 . S
C208 O214 1.287 . S
C208 O215 1.255 . S
O209 Fe198 1.976 . S
O209 C216 1.287 . S
O210 Fe199 1.996 . S
O210 C216 1.255 . S
O211 Fe201 1.976 . S
O211 C206 1.287 . S
O212 Fe198 1.996 . S
O212 C206 1.255 . S
C213 O217 1.295 . S
C213 O218 1.235 . S
O214 Fe199 1.976 . S
O214 C208 1.287 . S
O215 Fe201 1.996 . S
O215 C208 1.255 . S
C216 O209 1.287 . S
C216 O210 1.255 . S
O217 Fe199 2.002 . S
O217 C213 1.295 . S
O218 Fe201 1.997 . S
O218 C213 1.235 . S
C219 O202 1.295 . S
C219 O203 1.235 . S
Fe220 O222 1.918 . S
Fe220 O225 1.997 . S
Fe220 O226 2.002 . S
Fe220 O231 1.976 . S
Fe220 O234 1.996 . S
Fe221 O222 1.918 . S
Fe221 O229 1.997 . S
Fe221 O232 1.996 . S
Fe221 O236 1.976 . S
Fe221 O239 2.002 . S
O222 Fe220 1.918 . S
O222 Fe221 1.918 . S
O222 Fe223 1.918 1_455 S
Fe223 O222 1.918 1_655 S
Fe223 O224 2.002 . S
Fe223 O233 1.976 . S
Fe223 O237 1.996 . S
Fe223 O240 1.997 . S
O224 Fe223 2.002 . S
O224 C241 1.295 . S
O225 Fe220 1.997 . S
O225 C241 1.235 1_455 S
O226 Fe220 2.002 . S
O226 C227 1.295 . S
C227 O226 1.295 . S
C227 O229 1.235 . S
C228 O233 1.288 . S
C228 O234 1.243 1_655 S
O229 Fe221 1.997 . S
O229 C227 1.235 . S
C230 O236 1.287 . S
C230 O237 1.255 1_455 S
O231 Fe220 1.976 . S
O231 C238 1.287 . S
O232 Fe221 1.996 . S
O232 C238 1.255 . S
O233 Fe223 1.976 . S
O233 C228 1.288 . S
O234 Fe220 1.996 . S
O234 C228 1.243 1_455 S
C235 O239 1.295 1_655 S
C235 O240 1.235 . S
O236 Fe221 1.976 . S
O236 C230 1.287 . S
O237 Fe223 1.996 . S
O237 C230 1.255 1_655 S
C238 O231 1.287 . S
C238 O232 1.255 . S
O239 Fe221 2.002 . S
O239 C235 1.295 1_455 S
O240 Fe223 1.997 . S
O240 C235 1.235 . S
C241 O224 1.295 . S
C241 O225 1.235 1_655 S
Fe242 O244 1.918 1_565 S
Fe242 O247 1.997 . S
Fe242 O248 2.002 . S
Fe242 O253 1.976 . S
Fe242 O256 1.996 . S
Fe243 O244 1.918 . S
Fe243 O251 1.997 . S
Fe243 O254 1.996 . S
Fe243 O258 1.976 . S
Fe243 O261 2.002 . S
O244 Fe242 1.918 1_545 S
O244 Fe243 1.918 . S
O244 Fe245 1.918 . S
Fe245 O244 1.918 . S
Fe245 O246 2.002 . S
Fe245 O255 1.976 . S
Fe245 O259 1.996 . S
Fe245 O262 1.997 . S
O246 Fe245 2.002 . S
O246 C263 1.295 1_545 S
O247 Fe242 1.997 . S
O247 C263 1.235 . S
O248 Fe242 2.002 . S
O248 C249 1.295 . S
C249 O248 1.295 . S
C249 O251 1.235 1_565 S
C250 O255 1.287 . S
C250 O256 1.255 1_545 S
O251 Fe243 1.997 . S
O251 C249 1.235 1_545 S
C252 O258 1.287 . S
C252 O259 1.255 . S
O253 Fe242 1.976 . S
O253 C260 1.285 . S
O254 Fe243 1.996 . S
O254 C260 1.256 1_545 S
O255 Fe245 1.976 . S
O255 C250 1.287 . S
O256 Fe242 1.996 . S
O256 C250 1.255 1_565 S
C257 O261 1.295 . S
C257 O262 1.235 . S
O258 Fe243 1.976 . S
O258 C252 1.287 . S
O259 Fe245 1.996 . S
O259 C252 1.255 . S
C260 O253 1.285 . S
C260 O254 1.256 1_565 S
O261 Fe243 2.002 . S
O261 C257 1.295 . S
O262 Fe245 1.997 . S
O262 C257 1.235 . S
C263 O246 1.295 1_565 S
C263 O247 1.235 . S
H264 C272 0.929 . S
H265 C274 0.930 . S
H266 C276 0.930 . S
H267 C279 0.929 . S
H268 C282 0.930 . S
H269 C284 0.960 . S
H270 C284 0.960 . S
H271 C284 0.960 . S
C272 H264 0.929 . S
C272 C273 1.377 1_554 S
C272 C274 1.384 . S
C273 C272 1.377 1_556 S
C273 C279 1.390 . S
C274 H265 0.930 . S
C274 C272 1.384 . S
C274 C275 1.372 1_554 S
C275 C274 1.372 1_556 S
C275 C276 1.400 . S
C275 C280 1.487 1_556 S
C276 H266 0.930 . S
C276 C275 1.400 . S
C276 C279 1.386 . S
H277 C293 0.930 . S
H278 C294 0.931 . S
C279 H267 0.929 . S
C279 C273 1.390 . S
C279 C276 1.386 . S
C280 C275 1.487 1_554 S
C280 C282 1.411 . S
C280 C283 1.391 1_554 S
H281 C287 0.930 . S
C282 H268 0.930 . S
C282 C280 1.411 . S
C282 C285 1.403 . S
C283 C280 1.391 1_556 S
C283 C284 1.524 . S
C283 C287 1.400 . S
C284 H269 0.960 . S
C284 H270 0.960 . S
C284 H271 0.960 . S
C284 C283 1.524 . S
C285 C282 1.403 . S
C285 C286 1.392 . S
C285 C289 1.495 . S
C286 C285 1.392 . S
C286 C287 1.385 1_554 S
C286 C288 1.478 . S
C287 H281 0.930 . S
C287 C283 1.400 . S
C287 C286 1.385 1_556 S
C288 C286 1.478 . S
C288 C290 1.381 . S
C288 C294 1.383 1_554 S
C289 C285 1.495 . S
C289 H295 0.959 . S
C289 H296 0.961 . S
C289 H297 0.960 . S
C290 C288 1.381 . S
C290 C291 1.394 . S
C290 H298 0.930 . S
C291 C290 1.394 . S
C291 C292 1.383 . S
C291 H299 0.929 . S
C292 C291 1.383 . S
C292 C293 1.377 1_554 S
C293 H277 0.930 . S
C293 C292 1.377 1_556 S
C293 C294 1.379 . S
C294 H278 0.931 . S
C294 C288 1.383 1_556 S
C294 C293 1.379 . S
H295 C289 0.959 . S
H296 C289 0.961 . S
H297 C289 0.960 . S
H298 C290 0.930 . S
H299 C291 0.929 . S
H300 C308 0.929 . S
H301 C310 0.930 . S
H302 C312 0.930 . S
H303 C315 0.929 . S
H304 C318 0.930 . S
H305 C320 0.960 . S
H306 C320 0.960 . S
H307 C320 0.960 . S
C308 H300 0.929 . S
C308 C309 1.377 . S
C308 C310 1.384 . S
C309 C308 1.377 . S
C309 C315 1.390 . S
C310 H301 0.930 . S
C310 C308 1.384 . S
C310 C311 1.372 . S
C311 C310 1.372 . S
C311 C312 1.400 . S
C311 C316 1.490 . S
C312 H302 0.930 . S
C312 C311 1.400 . S
C312 C315 1.386 . S
H313 C329 0.930 1_655 S
H314 C330 0.931 . S
C315 H303 0.929 . S
C315 C309 1.390 . S
C315 C312 1.386 . S
C316 C311 1.490 . S
C316 C318 1.395 . S
C316 C319 1.403 . S
H317 C323 0.930 . S
C318 H304 0.930 . S
C318 C316 1.395 . S
C318 C321 1.403 . S
C319 C316 1.403 . S
C319 C320 1.524 . S
C319 C323 1.400 . S
C320 H305 0.960 . S
C320 H306 0.960 . S
C320 H307 0.960 . S
C320 C319 1.524 . S
C321 C318 1.403 . S
C321 C322 1.392 . S
C321 C325 1.495 . S
C322 C321 1.392 . S
C322 C323 1.385 . S
C322 C324 1.478 . S
C323 H317 0.930 . S
C323 C319 1.400 . S
C323 C322 1.385 . S
C324 C322 1.478 . S
C324 C326 1.381 . S
C324 C330 1.383 . S
C325 C321 1.495 . S
C325 H331 0.959 . S
C325 H332 0.961 . S
C325 H333 0.960 . S
C326 C324 1.381 . S
C326 C327 1.394 . S
C326 H334 0.930 . S
C327 C326 1.394 . S
C327 C328 1.383 . S
C327 H335 0.929 . S
C328 C327 1.383 . S
C328 C329 1.377 . S
C329 H313 0.930 1_455 S
C329 C328 1.377 . S
C329 C330 1.379 . S
C330 H314 0.931 . S
C330 C324 1.383 . S
C330 C329 1.379 . S
H331 C325 0.959 . S
H332 C325 0.961 . S
H333 C325 0.960 . S
H334 C326 0.930 . S
H335 C327 0.929 . S
H336 C344 0.929 . S
H337 C346 0.930 . S
H338 C348 0.930 . S
H339 C351 0.929 . S
H340 C354 0.930 . S
H341 C356 0.960 . S
H342 C356 0.960 . S
H343 C356 0.960 . S
C344 H336 0.929 . S
C344 C345 1.377 . S
C344 C346 1.384 . S
C345 C344 1.377 . S
C345 C351 1.390 . S
C346 H337 0.930 . S
C346 C344 1.384 . S
C346 C347 1.372 . S
C347 C346 1.372 . S
C347 C348 1.400 . S
C347 C352 1.490 . S
C348 H338 0.930 . S
C348 C347 1.400 . S
C348 C351 1.386 . S
H349 C365 0.946 . S
H350 C366 0.931 . S
C351 H339 0.929 . S
C351 C345 1.390 . S
C351 C348 1.386 . S
C352 C347 1.490 . S
C352 C354 1.395 . S
C352 C355 1.403 . S
H353 C359 0.930 . S
C354 H340 0.930 . S
C354 C352 1.395 . S
C354 C357 1.403 . S
C355 C352 1.403 . S
C355 C356 1.524 . S
C355 C359 1.400 . S
C356 H341 0.960 . S
C356 H342 0.960 . S
C356 H343 0.960 . S
C356 C355 1.524 . S
C357 C354 1.403 . S
C357 C358 1.392 . S
C357 C361 1.495 . S
C358 C357 1.392 . S
C358 C359 1.385 . S
C358 C360 1.478 . S
C359 H353 0.930 . S
C359 C355 1.400 . S
C359 C358 1.385 . S
C360 C358 1.478 . S
C360 C362 1.381 . S
C360 C366 1.383 . S
C361 C357 1.495 . S
C361 H367 0.959 . S
C361 H368 0.961 . S
C361 H369 0.960 . S
C362 C360 1.381 . S
C362 C363 1.394 . S
C362 H370 0.930 . S
C363 C362 1.394 . S
C363 C364 1.383 . S
C363 H371 0.929 . S
C364 C363 1.383 . S
C364 C365 1.377 . S
C365 H349 0.946 . S
C365 C364 1.377 . S
C365 C366 1.379 . S
C366 H350 0.931 . S
C366 C360 1.383 . S
C366 C365 1.379 . S
H367 C361 0.959 . S
H368 C361 0.961 . S
H369 C361 0.960 . S
H370 C362 0.930 . S
H371 C363 0.929 . S
H372 C380 0.929 . S
H373 C382 0.930 . S
H374 C384 0.930 . S
H375 C387 0.929 . S
H376 C390 0.930 . S
H377 C392 0.960 . S
H378 C392 0.960 . S
H379 C392 0.960 . S
C380 H372 0.929 . S
C380 C381 1.377 . S
C380 C382 1.384 . S
C381 C380 1.377 . S
C381 C387 1.390 . S
C382 H373 0.930 . S
C382 C380 1.384 . S
C382 C383 1.372 . S
C383 C382 1.372 . S
C383 C384 1.400 . S
C383 C388 1.490 . S
C384 H374 0.930 . S
C384 C383 1.400 . S
C384 C387 1.386 . S
H385 C401 0.930 . S
H386 C402 0.931 . S
C387 H375 0.929 . S
C387 C381 1.390 . S
C387 C384 1.386 . S
C388 C383 1.490 . S
C388 C390 1.395 . S
C388 C391 1.403 . S
H389 C395 0.930 . S
C390 H376 0.930 . S
C390 C388 1.395 . S
C390 C393 1.403 . S
C391 C388 1.403 . S
C391 C392 1.524 . S
C391 C395 1.400 . S
C392 H377 0.960 . S
C392 H378 0.960 . S
C392 H379 0.960 . S
C392 C391 1.524 . S
C393 C390 1.403 . S
C393 C394 1.392 . S
C393 C397 1.495 . S
C394 C393 1.392 . S
C394 C395 1.385 . S
C394 C396 1.478 . S
C395 H389 0.930 . S
C395 C391 1.400 . S
C395 C394 1.385 . S
C396 C394 1.478 . S
C396 C398 1.381 . S
C396 C402 1.383 . S
C397 C393 1.495 . S
C397 H403 0.959 . S
C397 H404 0.961 . S
C397 H405 0.960 . S
C398 C396 1.381 . S
C398 C399 1.394 . S
C398 H406 0.930 . S
C399 C398 1.394 . S
C399 C400 1.383 . S
C399 H407 0.929 . S
C400 C399 1.383 . S
C400 C401 1.377 . S
C401 H385 0.930 . S
C401 C400 1.377 . S
C401 C402 1.379 . S
C402 H386 0.931 . S
C402 C396 1.383 . S
C402 C401 1.379 . S
H403 C397 0.959 . S
H404 C397 0.961 . S
H405 C397 0.960 . S
H406 C398 0.930 . S
H407 C399 0.929 . S
H408 C416 0.929 . S
H409 C418 0.930 . S
H410 C420 0.930 . S
H411 C423 0.929 . S
H412 C426 0.930 . S
H413 C428 0.960 . S
H414 C428 0.960 . S
H415 C428 0.960 . S
C416 H408 0.929 . S
C416 C417 1.377 . S
C416 C418 1.384 . S
C417 C416 1.377 . S
C417 C423 1.390 . S
C418 H409 0.930 . S
C418 C416 1.384 . S
C418 C419 1.372 . S
C419 C418 1.372 . S
C419 C420 1.400 . S
C419 C424 1.490 . S
C420 H410 0.930 . S
C420 C419 1.400 . S
C420 C423 1.386 . S
H421 C437 0.930 1_455 S
H422 C438 0.931 . S
C423 H411 0.929 . S
C423 C417 1.390 . S
C423 C420 1.386 . S
C424 C419 1.490 . S
C424 C426 1.395 . S
C424 C427 1.403 . S
H425 C431 0.930 . S
C426 H412 0.930 . S
C426 C424 1.395 . S
C426 C429 1.403 . S
C427 C424 1.403 . S
C427 C428 1.524 . S
C427 C431 1.400 . S
C428 H413 0.960 . S
C428 H414 0.960 . S
C428 H415 0.960 . S
C428 C427 1.524 . S
C429 C426 1.403 . S
C429 C430 1.392 . S
C429 C433 1.495 . S
C430 C429 1.392 . S
C430 C431 1.385 . S
C430 C432 1.478 . S
C431 H425 0.930 . S
C431 C427 1.400 . S
C431 C430 1.385 . S
C432 C430 1.478 . S
C432 C434 1.381 . S
C432 C438 1.383 . S
C433 C429 1.495 . S
C433 H439 0.959 . S
C433 H440 0.961 . S
C433 H441 0.960 . S
C434 C432 1.381 . S
C434 C435 1.394 . S
C434 H442 0.930 . S
C435 C434 1.394 . S
C435 C436 1.383 . S
C435 H443 0.929 . S
C436 C435 1.383 . S
C436 C437 1.377 . S
C437 H421 0.930 1_655 S
C437 C436 1.377 . S
C437 C438 1.379 . S
C438 H422 0.931 . S
C438 C432 1.383 . S
C438 C437 1.379 . S
H439 C433 0.959 . S
H440 C433 0.961 . S
H441 C433 0.960 . S
H442 C434 0.930 . S
H443 C435 0.929 . S
H444 C452 0.929 . S
H445 C454 0.930 . S
H446 C456 0.930 . S
H447 C459 0.929 . S
H448 C462 0.930 . S
H449 C464 0.960 . S
H450 C464 0.960 . S
H451 C464 0.960 . S
C452 H444 0.929 . S
C452 C453 1.377 . S
C452 C454 1.384 . S
C453 C452 1.377 . S
C453 C459 1.390 . S
C454 H445 0.930 . S
C454 C452 1.384 . S
C454 C455 1.372 . S
C455 C454 1.372 . S
C455 C456 1.400 . S
C455 C460 1.490 . S
C456 H446 0.930 . S
C456 C455 1.400 . S
C456 C459 1.386 . S
H457 C473 0.930 . S
H458 C474 0.931 . S
C459 H447 0.929 . S
C459 C453 1.390 . S
C459 C456 1.386 . S
C460 C455 1.490 . S
C460 C462 1.395 . S
C460 C463 1.403 . S
H461 C467 0.930 . S
C462 H448 0.930 . S
C462 C460 1.395 . S
C462 C465 1.403 . S
C463 C460 1.403 . S
C463 C464 1.524 . S
C463 C467 1.400 . S
C464 H449 0.960 . S
C464 H450 0.960 . S
C464 H451 0.960 . S
C464 C463 1.524 . S
C465 C462 1.403 . S
C465 C466 1.392 . S
C465 C469 1.495 . S
C466 C465 1.392 . S
C466 C467 1.385 . S
C466 C468 1.478 . S
C467 H461 0.930 . S
C467 C463 1.400 . S
C467 C466 1.385 . S
C468 C466 1.478 . S
C468 C470 1.381 . S
C468 C474 1.383 . S
C469 C465 1.495 . S
C469 H475 0.959 . S
C469 H476 0.961 . S
C469 H477 0.960 . S
C470 C468 1.381 . S
C470 C471 1.394 . S
C470 H478 0.930 . S
C471 C470 1.394 . S
C471 C472 1.383 . S
C471 H479 0.929 . S
C472 C471 1.383 . S
C472 C473 1.377 . S
C473 H457 0.930 . S
C473 C472 1.377 . S
C473 C474 1.379 . S
C474 H458 0.931 . S
C474 C468 1.383 . S
C474 C473 1.379 . S
H475 C469 0.959 . S
H476 C469 0.961 . S
H477 C469 0.960 . S
H478 C470 0.930 . S
H479 C471 0.929 . S
H480 C488 0.929 . S
H481 C490 0.930 . S
H482 C492 0.930 . S
H483 C495 0.929 . S
H484 C498 0.930 . S
H485 C500 0.960 . S
H486 C500 0.960 . S
H487 C500 0.960 . S
C488 H480 0.929 . S
C488 C489 1.377 . S
C488 C490 1.384 . S
C489 C488 1.377 . S
C489 C495 1.390 . S
C490 H481 0.930 . S
C490 C488 1.384 . S
C490 C491 1.372 . S
C491 C490 1.372 . S
C491 C492 1.400 . S
C491 C496 1.490 . S
C492 H482 0.930 . S
C492 C491 1.400 . S
C492 C495 1.386 . S
H493 C509 0.930 . S
H494 C510 0.931 . S
C495 H483 0.929 . S
C495 C489 1.390 . S
C495 C492 1.386 . S
C496 C491 1.490 . S
C496 C498 1.395 . S
C496 C499 1.403 . S
H497 C503 0.930 . S
C498 H484 0.930 . S
C498 C496 1.395 . S
C498 C501 1.403 . S
C499 C496 1.403 . S
C499 C500 1.524 . S
C499 C503 1.400 . S
C500 H485 0.960 . S
C500 H486 0.960 . S
C500 H487 0.960 . S
C500 C499 1.524 . S
C501 C498 1.403 . S
C501 C502 1.392 . S
C501 C505 1.495 . S
C502 C501 1.392 . S
C502 C503 1.385 . S
C502 C504 1.478 . S
C503 H497 0.930 . S
C503 C499 1.400 . S
C503 C502 1.385 . S
C504 C502 1.478 . S
C504 C506 1.381 . S
C504 C510 1.383 . S
C505 C501 1.495 . S
C505 H511 0.959 . S
C505 H512 0.961 . S
C505 H513 0.960 . S
C506 C504 1.381 . S
C506 C507 1.394 . S
C506 H514 0.930 . S
C507 C506 1.394 . S
C507 C508 1.383 . S
C507 H515 0.929 . S
C508 C507 1.383 . S
C508 C509 1.377 . S
C509 H493 0.930 . S
C509 C508 1.377 . S
C509 C510 1.379 . S
C510 H494 0.931 . S
C510 C504 1.383 . S
C510 C509 1.379 . S
H511 C505 0.959 . S
H512 C505 0.961 . S
H513 C505 0.960 . S
H514 C506 0.930 . S
H515 C507 0.929 . S
H516 C524 0.929 . S
H517 C526 0.930 . S
H518 C528 0.930 . S
H519 C531 0.929 . S
H520 C534 0.930 . S
H521 C536 0.960 . S
H522 C536 0.960 . S
H523 C536 0.960 . S
C524 H516 0.929 . S
C524 C525 1.377 1_554 S
C524 C526 1.384 . S
C525 C524 1.377 1_556 S
C525 C531 1.390 . S
C526 H517 0.930 . S
C526 C524 1.384 . S
C526 C527 1.372 1_554 S
C527 C526 1.372 1_556 S
C527 C528 1.400 . S
C527 C532 1.490 . S
C528 H518 0.930 . S
C528 C527 1.400 . S
C528 C531 1.386 . S
H529 C545 0.930 . S
H530 C546 0.931 . S
C531 H519 0.929 . S
C531 C525 1.390 . S
C531 C528 1.386 . S
C532 C527 1.490 . S
C532 C534 1.395 1_556 S
C532 C535 1.403 . S
H533 C539 0.930 . S
C534 H520 0.930 . S
C534 C532 1.395 1_554 S
C534 C537 1.403 . S
C535 C532 1.403 . S
C535 C536 1.524 . S
C535 C539 1.400 . S
C536 H521 0.960 . S
C536 H522 0.960 . S
C536 H523 0.960 . S
C536 C535 1.524 . S
C537 C534 1.403 . S
C537 C538 1.360 1_554 S
C537 C541 1.495 . S
C538 C537 1.360 1_556 S
C538 C539 1.429 . S
C538 C540 1.471 1_556 S
C539 H533 0.930 . S
C539 C535 1.400 . S
C539 C538 1.429 . S
C540 C538 1.471 1_554 S
C540 C542 1.417 . S
C540 C546 1.350 1_554 S
C541 C537 1.495 . S
C541 H547 0.959 . S
C541 H548 0.961 . S
C541 H549 0.960 . S
C542 C540 1.417 . S
C542 C543 1.394 . S
C542 H550 0.930 . S
C543 C542 1.394 . S
C543 C544 1.383 . S
C543 H551 0.929 . S
C544 C543 1.383 . S
C544 C545 1.377 1_554 S
C545 H529 0.930 . S
C545 C544 1.377 1_556 S
C545 C546 1.379 . S
C546 H530 0.931 . S
C546 C540 1.350 1_556 S
C546 C545 1.379 . S
H547 C541 0.959 . S
H548 C541 0.961 . S
H549 C541 0.960 . S
H550 C542 0.930 . S
H551 C543 0.929 . S
H552 C560 0.929 . S
H553 C562 0.930 . S
H554 C564 0.930 . S
H555 C567 0.929 . S
H556 C570 0.930 . S
H557 C572 0.960 . S
H558 C572 0.960 . S
H559 C572 0.960 . S
C560 H552 0.929 . S
C560 C561 1.377 . S
C560 C562 1.384 . S
C561 C560 1.377 . S
C561 C567 1.390 . S
C562 H553 0.930 . S
C562 C560 1.384 . S
C562 C563 1.372 . S
C563 C562 1.372 . S
C563 C564 1.400 . S
C563 C568 1.490 . S
C564 H554 0.930 . S
C564 C563 1.400 . S
C564 C567 1.386 . S
H565 C581 0.930 . S
H566 C582 0.931 . S
C567 H555 0.929 . S
C567 C561 1.390 . S
C567 C564 1.386 . S
C568 C563 1.490 . S
C568 C570 1.395 . S
C568 C571 1.403 . S
H569 C575 0.930 . S
C570 H556 0.930 . S
C570 C568 1.395 . S
C570 C573 1.403 . S
C571 C568 1.403 . S
C571 C572 1.524 . S
C571 C575 1.400 . S
C572 H557 0.960 . S
C572 H558 0.960 . S
C572 H559 0.960 . S
C572 C571 1.524 . S
C573 C570 1.403 . S
C573 C574 1.392 . S
C573 C577 1.495 . S
C574 C573 1.392 . S
C574 C575 1.385 . S
C574 C576 1.478 . S
C575 H569 0.930 . S
C575 C571 1.400 . S
C575 C574 1.385 . S
C576 C574 1.478 . S
C576 C578 1.381 . S
C576 C582 1.383 . S
C577 C573 1.495 . S
C577 H583 0.959 . S
C577 H584 0.961 . S
C577 H585 0.960 . S
C578 C576 1.381 . S
C578 C579 1.394 . S
C578 H586 0.930 . S
C579 C578 1.394 . S
C579 C580 1.383 . S
C579 H587 0.929 . S
C580 C579 1.383 . S
C580 C581 1.377 . S
C581 H565 0.930 . S
C581 C580 1.377 . S
C581 C582 1.379 . S
C582 H566 0.931 . S
C582 C576 1.383 . S
C582 C581 1.379 . S
H583 C577 0.959 . S
H584 C577 0.961 . S
H585 C577 0.960 . S
H586 C578 0.930 . S
H587 C579 0.929 . S
H588 C596 0.929 . S
H589 C598 0.930 . S
H590 C600 0.930 . S
H591 C603 0.929 . S
H592 C606 0.930 . S
H593 C608 0.960 . S
H594 C608 0.960 . S
H595 C608 0.960 . S
C596 H588 0.929 . S
C596 C597 1.377 . S
C596 C598 1.384 . S
C597 C596 1.377 . S
C597 C603 1.390 . S
C598 H589 0.930 . S
C598 C596 1.384 . S
C598 C599 1.372 . S
C599 C598 1.372 . S
C599 C600 1.400 . S
C599 C604 1.490 . S
C600 H590 0.930 . S
C600 C599 1.400 . S
C600 C603 1.386 . S
H601 C617 0.930 . S
H602 C618 0.931 . S
C603 H591 0.929 . S
C603 C597 1.390 . S
C603 C600 1.386 . S
C604 C599 1.490 . S
C604 C606 1.395 . S
C604 C607 1.403 . S
H605 C611 0.930 . S
C606 H592 0.930 . S
C606 C604 1.395 . S
C606 C609 1.403 . S
C607 C604 1.403 . S
C607 C608 1.524 . S
C607 C611 1.400 . S
C608 H593 0.960 . S
C608 H594 0.960 . S
C608 H595 0.960 . S
C608 C607 1.524 . S
C609 C606 1.403 . S
C609 C610 1.392 . S
C609 C613 1.495 . S
C610 C609 1.392 . S
C610 C611 1.385 . S
C610 C612 1.478 . S
C611 H605 0.930 . S
C611 C607 1.400 . S
C611 C610 1.385 . S
C612 C610 1.478 . S
C612 C614 1.381 . S
C612 C618 1.383 . S
C613 C609 1.495 . S
C613 H619 0.959 . S
C613 H620 0.961 . S
C613 H621 0.960 . S
C614 C612 1.381 . S
C614 C615 1.394 . S
C614 H622 0.930 . S
C615 C614 1.394 . S
C615 C616 1.383 . S
C615 H623 0.929 . S
C616 C615 1.383 . S
C616 C617 1.377 . S
C617 H601 0.930 . S
C617 C616 1.377 . S
C617 C618 1.379 . S
C618 H602 0.931 . S
C618 C612 1.383 . S
C618 C617 1.379 . S
H619 C613 0.959 . S
H620 C613 0.961 . S
H621 C613 0.960 . S
H622 C614 0.930 . S
H623 C615 0.929 . S
H624 C632 0.929 1_455 S
H625 C634 0.930 . S
H626 C636 0.930 . S
H627 C639 0.929 . S
H628 C642 0.930 . S
H629 C644 0.960 . S
H630 C644 0.960 . S
H631 C644 0.960 . S
C632 H624 0.929 1_655 S
C632 C633 1.377 . S
C632 C634 1.384 . S
C633 C632 1.377 . S
C633 C639 1.390 . S
C634 H625 0.930 . S
C634 C632 1.384 . S
C634 C635 1.372 . S
C635 C634 1.372 . S
C635 C636 1.400 . S
C635 C640 1.490 . S
C636 H626 0.930 . S
C636 C635 1.400 . S
C636 C639 1.386 . S
H637 C653 0.930 . S
H638 C654 0.931 . S
C639 H627 0.929 . S
C639 C633 1.390 . S
C639 C636 1.386 . S
C640 C635 1.490 . S
C640 C642 1.395 . S
C640 C643 1.403 . S
H641 C647 0.930 . S
C642 H628 0.930 . S
C642 C640 1.395 . S
C642 C645 1.403 . S
C643 C640 1.403 . S
C643 C644 1.524 . S
C643 C647 1.400 . S
C644 H629 0.960 . S
C644 H630 0.960 . S
C644 H631 0.960 . S
C644 C643 1.524 . S
C645 C642 1.403 . S
C645 C646 1.392 . S
C645 C649 1.495 . S
C646 C645 1.392 . S
C646 C647 1.385 . S
C646 C648 1.478 . S
C647 H641 0.930 . S
C647 C643 1.400 . S
C647 C646 1.385 . S
C648 C646 1.478 . S
C648 C650 1.381 . S
C648 C654 1.383 . S
C649 C645 1.495 . S
C649 H655 0.959 . S
C649 H656 0.961 . S
C649 H657 0.960 . S
C650 C648 1.381 . S
C650 C651 1.394 . S
C650 H658 0.930 . S
C651 C650 1.394 . S
C651 C652 1.383 . S
C651 H659 0.929 . S
C652 C651 1.383 . S
C652 C653 1.377 . S
C653 H637 0.930 . S
C653 C652 1.377 . S
C653 C654 1.379 . S
C654 H638 0.931 . S
C654 C648 1.383 . S
C654 C653 1.379 . S
H655 C649 0.959 . S
H656 C649 0.961 . S
H657 C649 0.960 . S
H658 C650 0.930 . S
H659 C651 0.929 . S
H660 C668 0.929 . S
H661 C670 0.930 . S
H662 C672 0.930 . S
H663 C675 0.929 . S
H664 C678 0.930 . S
H665 C680 0.960 . S
H666 C680 0.960 . S
H667 C680 0.960 . S
C668 H660 0.929 . S
C668 C669 1.377 . S
C668 C670 1.384 . S
C669 C668 1.377 . S
C669 C675 1.390 . S
C670 H661 0.930 . S
C670 C668 1.384 . S
C670 C671 1.372 . S
C671 C670 1.372 . S
C671 C672 1.400 . S
C671 C676 1.490 . S
C672 H662 0.930 . S
C672 C671 1.400 . S
C672 C675 1.386 . S
H673 C689 0.930 . S
H674 C690 0.931 . S
C675 H663 0.929 . S
C675 C669 1.390 . S
C675 C672 1.386 . S
C676 C671 1.490 . S
C676 C678 1.395 . S
C676 C679 1.403 . S
H677 C683 0.930 . S
C678 H664 0.930 . S
C678 C676 1.395 . S
C678 C681 1.403 . S
C679 C676 1.403 . S
C679 C680 1.524 . S
C679 C683 1.400 . S
C680 H665 0.960 . S
C680 H666 0.960 . S
C680 H667 0.960 . S
C680 C679 1.524 . S
C681 C678 1.403 . S
C681 C682 1.392 . S
C681 C685 1.495 . S
C682 C681 1.392 . S
C682 C683 1.385 . S
C682 C684 1.478 . S
C683 H677 0.930 . S
C683 C679 1.400 . S
C683 C682 1.385 . S
C684 C682 1.478 . S
C684 C686 1.381 . S
C684 C690 1.383 . S
C685 C681 1.495 . S
C685 H691 0.959 . S
C685 H692 0.961 . S
C685 H693 0.960 . S
C686 C684 1.381 . S
C686 C687 1.394 . S
C686 H694 0.930 . S
C687 C686 1.394 . S
C687 C688 1.383 . S
C687 H695 0.929 . S
C688 C687 1.383 . S
C688 C689 1.377 . S
C689 H673 0.930 . S
C689 C688 1.377 . S
C689 C690 1.379 . S
C690 H674 0.931 . S
C690 C684 1.383 . S
C690 C689 1.379 . S
H691 C685 0.959 . S
H692 C685 0.961 . S
H693 C685 0.960 . S
H694 C686 0.930 . S
H695 C687 0.929 . S
H696 C704 0.929 . S
H697 C706 0.930 . S
H698 C708 0.930 . S
H699 C711 0.929 . S
H700 C714 0.930 . S
H701 C716 0.960 . S
H702 C716 0.960 . S
H703 C716 0.960 . S
C704 H696 0.929 . S
C704 C705 1.377 . S
C704 C706 1.384 . S
C705 C704 1.377 . S
C705 C711 1.390 . S
C706 H697 0.930 . S
C706 C704 1.384 . S
C706 C707 1.372 . S
C707 C706 1.372 . S
C707 C708 1.400 . S
C707 C712 1.490 . S
C708 H698 0.930 . S
C708 C707 1.400 . S
C708 C711 1.386 . S
H709 C725 0.930 . S
H710 C726 0.931 . S
C711 H699 0.929 . S
C711 C705 1.390 . S
C711 C708 1.386 . S
C712 C707 1.490 . S
C712 C714 1.395 . S
C712 C715 1.403 . S
H713 C719 0.930 . S
C714 H700 0.930 . S
C714 C712 1.395 . S
C714 C717 1.403 . S
C715 C712 1.403 . S
C715 C716 1.524 . S
C715 C719 1.400 . S
C716 H701 0.960 . S
C716 H702 0.960 . S
C716 H703 0.960 . S
C716 C715 1.524 . S
C717 C714 1.403 . S
C717 C718 1.392 . S
C717 C721 1.495 . S
C718 C717 1.392 . S
C718 C719 1.385 . S
C718 C720 1.478 . S
C719 H713 0.930 . S
C719 C715 1.400 . S
C719 C718 1.385 . S
C720 C718 1.478 . S
C720 C722 1.381 . S
C720 C726 1.383 . S
C721 C717 1.495 . S
C721 H727 0.959 . S
C721 H728 0.961 . S
C721 H729 0.960 . S
C722 C720 1.381 . S
C722 C723 1.394 . S
C722 H730 0.930 . S
C723 C722 1.394 . S
C723 C724 1.383 . S
C723 H731 0.929 . S
C724 C723 1.383 . S
C724 C725 1.377 . S
C725 H709 0.930 . S
C725 C724 1.377 . S
C725 C726 1.379 . S
C726 H710 0.931 . S
C726 C720 1.383 . S
C726 C725 1.379 . S
H727 C721 0.959 . S
H728 C721 0.961 . S
H729 C721 0.960 . S
H730 C722 0.930 . S
H731 C723 0.929 . S
H732 C740 0.929 . S
H733 C742 0.930 . S
H734 C744 0.930 . S
H735 C747 0.929 . S
H736 C750 0.930 . S
H737 C752 0.960 . S
H738 C752 0.960 . S
H739 C752 0.960 . S
C740 H732 0.929 . S
C740 C741 1.377 . S
C740 C742 1.384 . S
C741 C740 1.377 . S
C741 C747 1.390 1_655 S
C742 H733 0.930 . S
C742 C740 1.384 . S
C742 C743 1.372 1_655 S
C743 C742 1.372 1_455 S
C743 C744 1.400 . S
C743 C748 1.490 . S
C744 H734 0.930 . S
C744 C743 1.400 . S
C744 C747 1.386 . S
H745 C761 0.930 . S
H746 C762 0.931 . S
C747 H735 0.929 . S
C747 C741 1.390 1_455 S
C747 C744 1.386 . S
C748 C743 1.490 . S
C748 C750 1.395 . S
C748 C751 1.403 . S
H749 C755 0.930 . S
C750 H736 0.930 . S
C750 C748 1.395 . S
C750 C753 1.403 . S
C751 C748 1.403 . S
C751 C752 1.524 . S
C751 C755 1.400 . S
C752 H737 0.960 . S
C752 H738 0.960 . S
C752 H739 0.960 . S
C752 C751 1.524 . S
C753 C750 1.403 . S
C753 C754 1.392 . S
C753 C757 1.495 . S
C754 C753 1.392 . S
C754 C755 1.385 . S
C754 C756 1.478 . S
C755 H749 0.930 . S
C755 C751 1.400 . S
C755 C754 1.385 . S
C756 C754 1.478 . S
C756 C758 1.381 . S
C756 C762 1.383 . S
C757 C753 1.495 . S
C757 H763 0.959 . S
C757 H764 0.961 . S
C757 H765 0.960 . S
C758 C756 1.381 . S
C758 C759 1.394 . S
C758 H766 0.930 . S
C759 C758 1.394 . S
C759 C760 1.383 . S
C759 H767 0.929 . S
C760 C759 1.383 . S
C760 C761 1.377 . S
C761 H745 0.930 . S
C761 C760 1.377 . S
C761 C762 1.379 . S
C762 H746 0.931 . S
C762 C756 1.383 . S
C762 C761 1.379 . S
H763 C757 0.959 . S
H764 C757 0.961 . S
H765 C757 0.960 . S
H766 C758 0.930 . S
H767 C759 0.929 . S
H768 C776 0.929 . S
H769 C778 0.930 . S
H770 C780 0.930 . S
H771 C783 0.929 . S
H772 C786 0.930 . S
H773 C788 0.960 . S
H774 C788 0.960 . S
H775 C788 0.960 . S
C776 H768 0.929 . S
C776 C777 1.377 . S
C776 C778 1.384 . S
C777 C776 1.377 . S
C777 C783 1.390 . S
C778 H769 0.930 . S
C778 C776 1.384 . S
C778 C779 1.372 . S
C779 C778 1.372 . S
C779 C780 1.400 . S
C779 C784 1.490 . S
C780 H770 0.930 . S
C780 C779 1.400 . S
C780 C783 1.386 . S
H781 C797 0.930 . S
H782 C798 0.931 . S
C783 H771 0.929 . S
C783 C777 1.390 . S
C783 C780 1.386 . S
C784 C779 1.490 . S
C784 C786 1.395 . S
C784 C787 1.403 . S
H785 C791 0.930 . S
C786 H772 0.930 . S
C786 C784 1.395 . S
C786 C789 1.403 . S
C787 C784 1.403 . S
C787 C788 1.524 . S
C787 C791 1.400 . S
C788 H773 0.960 . S
C788 H774 0.960 . S
C788 H775 0.960 . S
C788 C787 1.524 . S
C789 C786 1.403 . S
C789 C790 1.392 . S
C789 C793 1.495 . S
C790 C789 1.392 . S
C790 C791 1.385 . S
C790 C792 1.478 . S
C791 H785 0.930 . S
C791 C787 1.400 . S
C791 C790 1.385 . S
C792 C790 1.478 . S
C792 C794 1.381 . S
C792 C798 1.383 1_545 S
C793 C789 1.495 . S
C793 H799 0.959 . S
C793 H800 0.961 1_545 S
C793 H801 0.960 . S
C794 C792 1.381 . S
C794 C795 1.394 . S
C794 H802 0.930 . S
C795 C794 1.394 . S
C795 C796 1.383 1_545 S
C795 H803 0.929 . S
C796 C795 1.383 1_565 S
C796 C797 1.377 . S
C797 H781 0.930 . S
C797 C796 1.377 . S
C797 C798 1.379 . S
C798 H782 0.931 . S
C798 C792 1.383 1_565 S
C798 C797 1.379 . S
H799 C793 0.959 . S
H800 C793 0.961 1_565 S
H801 C793 0.960 . S
H802 C794 0.930 . S
H803 C795 0.929 . S
H804 C812 0.929 . S
H805 C814 0.930 . S
H806 C816 0.930 . S
H807 C819 0.929 . S
H808 C822 0.930 . S
H809 C824 0.960 . S
H810 C824 0.960 . S
H811 C824 0.960 . S
C812 H804 0.929 . S
C812 C813 1.377 . S
C812 C814 1.384 . S
C813 C812 1.377 . S
C813 C819 1.390 . S
C814 H805 0.930 . S
C814 C812 1.384 . S
C814 C815 1.372 . S
C815 C814 1.372 . S
C815 C816 1.400 . S
C815 C820 1.490 . S
C816 H806 0.930 . S
C816 C815 1.400 . S
C816 C819 1.386 . S
H817 C833 0.930 . S
H818 C834 0.931 . S
C819 H807 0.929 . S
C819 C813 1.390 . S
C819 C816 1.386 . S
C820 C815 1.490 . S
C820 C822 1.395 . S
C820 C823 1.403 . S
H821 C827 0.930 . S
C822 H808 0.930 . S
C822 C820 1.395 . S
C822 C825 1.403 . S
C823 C820 1.403 . S
C823 C824 1.524 . S
C823 C827 1.400 . S
C824 H809 0.960 . S
C824 H810 0.960 . S
C824 H811 0.960 . S
C824 C823 1.524 . S
C825 C822 1.403 . S
C825 C826 1.392 . S
C825 C829 1.495 . S
C826 C825 1.392 . S
C826 C827 1.385 . S
C826 C828 1.478 . S
C827 H821 0.930 . S
C827 C823 1.400 . S
C827 C826 1.385 . S
C828 C826 1.478 . S
C828 C830 1.381 . S
C828 C834 1.383 . S
C829 C825 1.495 . S
C829 H835 0.959 . S
C829 H836 0.961 . S
C829 H837 0.960 . S
C830 C828 1.381 . S
C830 C831 1.394 . S
C830 H838 0.930 . S
C831 C830 1.394 . S
C831 C832 1.383 . S
C831 H839 0.929 . S
C832 C831 1.383 . S
C832 C833 1.377 . S
C833 H817 0.930 . S
C833 C832 1.377 . S
C833 C834 1.379 . S
C834 H818 0.931 . S
C834 C828 1.383 . S
C834 C833 1.379 . S
H835 C829 0.959 . S
H836 C829 0.961 . S
H837 C829 0.960 . S
H838 C830 0.930 . S
H839 C831 0.929 . S
H840 C848 0.929 . S
H841 C850 0.930 . S
H842 C852 0.930 . S
H843 C855 0.929 . S
H844 C858 0.930 . S
H845 C860 0.960 . S
H846 C860 0.960 . S
H847 C860 0.960 . S
C848 H840 0.929 . S
C848 C849 1.377 . S
C848 C850 1.384 . S
C849 C848 1.377 . S
C849 C855 1.390 . S
C850 H841 0.930 . S
C850 C848 1.384 . S
C850 C851 1.372 . S
C851 C850 1.372 . S
C851 C852 1.400 . S
C851 C856 1.490 . S
C852 H842 0.930 . S
C852 C851 1.400 . S
C852 C855 1.386 . S
H853 C869 0.930 . S
H854 C870 0.931 . S
C855 H843 0.929 . S
C855 C849 1.390 . S
C855 C852 1.386 . S
C856 C851 1.490 . S
C856 C858 1.395 . S
C856 C859 1.403 . S
H857 C863 0.930 . S
C858 H844 0.930 . S
C858 C856 1.395 . S
C858 C861 1.403 . S
C859 C856 1.403 . S
C859 C860 1.524 . S
C859 C863 1.400 . S
C860 H845 0.960 . S
C860 H846 0.960 . S
C860 H847 0.960 . S
C860 C859 1.524 . S
C861 C858 1.403 . S
C861 C862 1.392 . S
C861 C865 1.495 1_655 S
C862 C861 1.392 . S
C862 C863 1.385 . S
C862 C864 1.478 . S
C863 H857 0.930 . S
C863 C859 1.400 . S
C863 C862 1.385 . S
C864 C862 1.478 . S
C864 C866 1.381 1_655 S
C864 C870 1.383 . S
C865 C861 1.495 1_455 S
C865 H871 0.959 . S
C865 H872 0.961 . S
C865 H873 0.960 . S
C866 C864 1.381 1_455 S
C866 C867 1.394 . S
C866 H874 0.930 . S
C867 C866 1.394 . S
C867 C868 1.383 . S
C867 H875 0.929 . S
C868 C867 1.383 . S
C868 C869 1.377 1_455 S
C869 H853 0.930 . S
C869 C868 1.377 1_655 S
C869 C870 1.379 . S
C870 H854 0.931 . S
C870 C864 1.383 . S
C870 C869 1.379 . S
H871 C865 0.959 . S
H872 C865 0.961 . S
H873 C865 0.960 . S
H874 C866 0.930 . S
H875 C867 0.929 . S
H876 C884 0.929 . S
H877 C886 0.930 . S
H878 C888 0.930 . S
H879 C891 0.929 . S
H880 C894 0.930 . S
H881 C896 0.960 . S
H882 C896 0.960 . S
H883 C896 0.960 . S
C884 H876 0.929 . S
C884 C885 1.377 1_565 S
C884 C886 1.384 . S
C885 C884 1.377 1_545 S
C885 C891 1.390 . S
C886 H877 0.930 . S
C886 C884 1.384 . S
C886 C887 1.372 . S
C887 C886 1.372 . S
C887 C888 1.400 . S
C887 C892 1.490 . S
C888 H878 0.930 . S
C888 C887 1.400 . S
C888 C891 1.386 1_565 S
H889 C905 0.930 . S
H890 C906 0.931 . S
C891 H879 0.929 . S
C891 C885 1.390 . S
C891 C888 1.386 1_545 S
C892 C887 1.490 . S
C892 C894 1.395 . S
C892 C895 1.403 . S
H893 C899 0.930 . S
C894 H880 0.930 . S
C894 C892 1.395 . S
C894 C897 1.403 . S
C895 C892 1.403 . S
C895 C896 1.524 . S
C895 C899 1.400 . S
C896 H881 0.960 . S
C896 H882 0.960 . S
C896 H883 0.960 . S
C896 C895 1.524 . S
C897 C894 1.403 . S
C897 C898 1.392 . S
C897 C901 1.495 . S
C898 C897 1.392 . S
C898 C899 1.385 . S
C898 C900 1.478 . S
C899 H893 0.930 . S
C899 C895 1.400 . S
C899 C898 1.385 . S
C900 C898 1.478 . S
C900 C902 1.381 . S
C900 C906 1.383 . S
C901 C897 1.495 . S
C901 H907 0.980 . S
C901 H908 0.961 . S
C901 H909 0.960 . S
C902 C900 1.381 . S
C902 C903 1.394 . S
C902 H910 0.930 . S
C903 C902 1.394 . S
C903 C904 1.383 . S
C903 H911 0.929 . S
C904 C903 1.383 . S
C904 C905 1.377 . S
C905 H889 0.930 . S
C905 C904 1.377 . S
C905 C906 1.379 . S
C906 H890 0.931 . S
C906 C900 1.383 . S
C906 C905 1.379 . S
H907 C901 0.980 . S
H908 C901 0.961 . S
H909 C901 0.960 . S
H910 C902 0.930 . S
H911 C903 0.929 . S
H912 C920 0.929 . S
H913 C922 0.930 . S
H914 C924 0.930 . S
H915 C927 0.929 . S
H916 C930 0.930 . S
H917 C932 0.960 . S
H918 C932 0.960 . S
H919 C932 0.960 . S
C920 H912 0.929 . S
C920 C921 1.377 . S
C920 C922 1.384 . S
C921 C920 1.377 . S
C921 C927 1.390 . S
C922 H913 0.930 . S
C922 C920 1.384 . S
C922 C923 1.372 . S
C923 C922 1.372 . S
C923 C924 1.400 . S
C923 C928 1.490 . S
C924 H914 0.930 . S
C924 C923 1.400 . S
C924 C927 1.386 . S
H925 C941 0.930 . S
H926 C942 0.931 . S
C927 H915 0.929 . S
C927 C921 1.390 . S
C927 C924 1.386 . S
C928 C923 1.490 . S
C928 C930 1.395 . S
C928 C931 1.403 . S
H929 C935 0.930 . S
C930 H916 0.930 . S
C930 C928 1.395 . S
C930 C933 1.403 . S
C931 C928 1.403 . S
C931 C932 1.524 . S
C931 C935 1.400 . S
C932 H917 0.960 . S
C932 H918 0.960 . S
C932 H919 0.960 . S
C932 C931 1.524 . S
C933 C930 1.403 . S
C933 C934 1.392 . S
C933 C937 1.495 . S
C934 C933 1.392 . S
C934 C935 1.385 . S
C934 C936 1.478 . S
C935 H929 0.930 . S
C935 C931 1.400 . S
C935 C934 1.385 . S
C936 C934 1.478 . S
C936 C938 1.381 . S
C936 C942 1.383 . S
C937 C933 1.495 . S
C937 H943 0.959 . S
C937 H944 0.961 . S
C937 H945 0.960 . S
C938 C936 1.381 . S
C938 C939 1.394 . S
C938 H946 0.930 . S
C939 C938 1.394 . S
C939 C940 1.383 . S
C939 H947 0.929 . S
C940 C939 1.383 . S
C940 C941 1.377 . S
C941 H925 0.930 . S
C941 C940 1.377 . S
C941 C942 1.379 . S
C942 H926 0.931 . S
C942 C936 1.383 . S
C942 C941 1.379 . S
H943 C937 0.959 . S
H944 C937 0.961 . S
H945 C937 0.960 . S
H946 C938 0.930 . S
H947 C939 0.929 . S
H948 C956 0.929 . S
H949 C958 0.930 . S
H950 C960 0.930 . S
H951 C963 0.929 . S
H952 C966 0.930 . S
H953 C968 0.960 . S
H954 C968 0.960 . S
H955 C968 0.960 . S
C956 H948 0.929 . S
C956 C957 1.377 . S
C956 C958 1.384 . S
C957 C956 1.377 . S
C957 C963 1.390 1_655 S
C958 H949 0.930 . S
C958 C956 1.384 . S
C958 C959 1.372 1_655 S
C959 C958 1.372 1_455 S
C959 C960 1.400 . S
C959 C964 1.490 . S
C960 H950 0.930 . S
C960 C959 1.400 . S
C960 C963 1.386 . S
H961 C977 0.930 . S
H962 C978 0.931 . S
C963 H951 0.929 . S
C963 C957 1.390 1_455 S
C963 C960 1.386 . S
C964 C959 1.490 . S
C964 C966 1.395 . S
C964 C967 1.403 . S
H965 C971 0.930 . S
C966 H952 0.930 . S
C966 C964 1.395 . S
C966 C969 1.403 . S
C967 C964 1.403 . S
C967 C968 1.524 . S
C967 C971 1.400 . S
C968 H953 0.960 . S
C968 H954 0.960 . S
C968 H955 0.960 . S
C968 C967 1.524 . S
C969 C966 1.403 . S
C969 C970 1.392 . S
C969 C973 1.495 . S
C970 C969 1.392 . S
C970 C971 1.385 . S
C970 C972 1.478 . S
C971 H965 0.930 . S
C971 C967 1.400 . S
C971 C970 1.385 . S
C972 C970 1.478 . S
C972 C974 1.381 . S
C972 C978 1.383 . S
C973 C969 1.495 . S
C973 H979 0.959 . S
C973 H980 0.961 . S
C973 H981 0.960 . S
C974 C972 1.381 . S
C974 C975 1.394 . S
C974 H982 0.930 . S
C975 C974 1.394 . S
C975 C976 1.383 . S
C975 H983 0.929 . S
C976 C975 1.383 . S
C976 C977 1.377 . S
C977 H961 0.930 . S
C977 C976 1.377 . S
C977 C978 1.379 . S
C978 H962 0.931 . S
C978 C972 1.383 . S
C978 C977 1.379 . S
H979 C973 0.959 . S
H980 C973 0.961 . S
H981 C973 0.960 . S
H982 C974 0.930 . S
H983 C975 0.929 . S
H984 C992 0.929 . S
H985 C994 0.930 . S
H986 C996 0.930 . S
H987 C999 0.929 . S
H988 C1002 0.930 1_565 S
H989 C1004 0.960 . S
H990 C1004 0.960 . S
H991 C1004 0.960 . S
C992 H984 0.929 . S
C992 C993 1.377 . S
C992 C994 1.384 . S
C993 C992 1.377 . S
C993 C999 1.390 1_565 S
C994 H985 0.930 . S
C994 C992 1.384 . S
C994 C995 1.372 1_565 S
C995 C994 1.372 1_545 S
C995 C996 1.400 . S
C995 C1000 1.490 . S
C996 H986 0.930 . S
C996 C995 1.400 . S
C996 C999 1.386 . S
H997 C1013 0.930 . S
H998 C1014 0.931 . S
C999 H987 0.929 . S
C999 C993 1.390 1_545 S
C999 C996 1.386 . S
C1000 C995 1.490 . S
C1000 C1002 1.395 . S
C1000 C1003 1.403 . S
H1001 C1007 0.930 . S
C1002 H988 0.930 1_545 S
C1002 C1000 1.395 . S
C1002 C1005 1.403 . S
C1003 C1000 1.403 . S
C1003 C1004 1.524 . S
C1003 C1007 1.400 . S
C1004 H989 0.960 . S
C1004 H990 0.960 . S
C1004 H991 0.960 . S
C1004 C1003 1.524 . S
C1005 C1002 1.403 . S
C1005 C1006 1.392 . S
C1005 C1009 1.495 . S
C1006 C1005 1.392 . S
C1006 C1007 1.385 . S
C1006 C1008 1.478 . S
C1007 H1001 0.930 . S
C1007 C1003 1.400 . S
C1007 C1006 1.385 . S
C1008 C1006 1.478 . S
C1008 C1010 1.381 . S
C1008 C1014 1.383 . S
C1009 C1005 1.495 . S
C1009 H1015 0.959 1_545 S
C1009 H1016 0.961 . S
C1009 H1017 0.960 . S
C1010 C1008 1.381 . S
C1010 C1011 1.394 . S
C1010 H1018 0.930 . S
C1011 C1010 1.394 . S
C1011 C1012 1.383 . S
C1011 H1019 0.929 . S
C1012 C1011 1.383 . S
C1012 C1013 1.377 . S
C1013 H997 0.930 . S
C1013 C1012 1.377 . S
C1013 C1014 1.379 . S
C1014 H998 0.931 . S
C1014 C1008 1.383 . S
C1014 C1013 1.379 . S
H1015 C1009 0.959 1_565 S
H1016 C1009 0.961 . S
H1017 C1009 0.960 . S
H1018 C1010 0.930 . S
H1019 C1011 0.929 . S
H1020 C1028 0.929 . S
H1021 C1030 0.930 . S
H1022 C1032 0.930 . S
H1023 C1035 0.929 . S
H1024 C1038 0.930 . S
H1025 C1040 0.960 . S
H1026 C1040 0.960 . S
H1027 C1040 0.960 . S
C1028 H1020 0.929 . S
C1028 C1029 1.377 . S
C1028 C1030 1.384 . S
C1029 C1028 1.377 . S
C1029 C1035 1.390 . S
C1030 H1021 0.930 . S
C1030 C1028 1.384 . S
C1030 C1031 1.372 . S
C1031 C1030 1.372 . S
C1031 C1032 1.400 . S
C1031 C1036 1.490 . S
C1032 H1022 0.930 . S
C1032 C1031 1.400 . S
C1032 C1035 1.386 . S
H1033 C1049 0.930 . S
H1034 C1050 0.931 . S
C1035 H1023 0.929 . S
C1035 C1029 1.390 . S
C1035 C1032 1.386 . S
C1036 C1031 1.490 . S
C1036 C1038 1.395 . S
C1036 C1039 1.403 . S
H1037 C1043 0.930 . S
C1038 H1024 0.930 . S
C1038 C1036 1.395 . S
C1038 C1041 1.403 . S
C1039 C1036 1.403 . S
C1039 C1040 1.524 . S
C1039 C1043 1.400 . S
C1040 H1025 0.960 . S
C1040 H1026 0.960 . S
C1040 H1027 0.960 . S
C1040 C1039 1.524 . S
C1041 C1038 1.403 . S
C1041 C1042 1.392 . S
C1041 C1045 1.495 . S
C1042 C1041 1.392 . S
C1042 C1043 1.385 . S
C1042 C1044 1.478 . S
C1043 H1037 0.930 . S
C1043 C1039 1.400 . S
C1043 C1042 1.385 . S
C1044 C1042 1.478 . S
C1044 C1046 1.381 . S
C1044 C1050 1.383 . S
C1045 C1041 1.495 . S
C1045 H1051 0.959 . S
C1045 H1052 0.961 . S
C1045 H1053 0.960 . S
C1046 C1044 1.381 . S
C1046 C1047 1.394 . S
C1046 H1054 0.930 . S
C1047 C1046 1.394 . S
C1047 C1048 1.383 . S
C1047 H1055 0.929 . S
C1048 C1047 1.383 . S
C1048 C1049 1.377 . S
C1049 H1033 0.930 . S
C1049 C1048 1.377 . S
C1049 C1050 1.379 . S
C1050 H1034 0.931 . S
C1050 C1044 1.383 . S
C1050 C1049 1.379 . S
H1051 C1045 0.959 . S
H1052 C1045 0.961 . S
H1053 C1045 0.960 . S
H1054 C1046 0.930 . S
H1055 C1047 0.929 . S
H1056 C1064 0.929 . S
H1057 C1066 0.930 . S
H1058 C1068 0.930 . S
H1059 C1071 0.929 . S
H1060 C1074 0.930 . S
H1061 C1076 0.960 . S
H1062 C1076 0.960 . S
H1063 C1076 0.960 . S
C1064 H1056 0.929 . S
C1064 C1065 1.377 . S
C1064 C1066 1.384 . S
C1065 C1064 1.377 . S
C1065 C1071 1.390 1_455 S
C1066 H1057 0.930 . S
C1066 C1064 1.384 . S
C1066 C1067 1.372 1_455 S
C1067 C1066 1.372 1_655 S
C1067 C1068 1.400 . S
C1067 C1072 1.490 . S
C1068 H1058 0.930 . S
C1068 C1067 1.400 . S
C1068 C1071 1.386 . S
H1069 C1085 0.930 . S
H1070 C1086 0.931 . S
C1071 H1059 0.929 . S
C1071 C1065 1.390 1_655 S
C1071 C1068 1.386 . S
C1072 C1067 1.490 . S
C1072 C1074 1.395 . S
C1072 C1075 1.403 . S
H1073 C1079 0.930 . S
C1074 H1060 0.930 . S
C1074 C1072 1.395 . S
C1074 C1077 1.403 . S
C1075 C1072 1.403 . S
C1075 C1076 1.524 . S
C1075 C1079 1.400 . S
C1076 H1061 0.960 . S
C1076 H1062 0.960 . S
C1076 H1063 0.960 . S
C1076 C1075 1.524 . S
C1077 C1074 1.403 . S
C1077 C1078 1.392 . S
C1077 C1081 1.495 . S
C1078 C1077 1.392 . S
C1078 C1079 1.385 . S
C1078 C1080 1.478 . S
C1079 H1073 0.930 . S
C1079 C1075 1.400 . S
C1079 C1078 1.385 . S
C1080 C1078 1.478 . S
C1080 C1082 1.381 . S
C1080 C1086 1.383 . S
C1081 C1077 1.495 . S
C1081 H1087 0.959 . S
C1081 H1088 0.961 . S
C1081 H1089 0.960 . S
C1082 C1080 1.381 . S
C1082 C1083 1.394 . S
C1082 H1090 0.930 . S
C1083 C1082 1.394 . S
C1083 C1084 1.383 . S
C1083 H1091 0.929 . S
C1084 C1083 1.383 . S
C1084 C1085 1.377 . S
C1085 H1069 0.930 . S
C1085 C1084 1.377 . S
C1085 C1086 1.379 . S
C1086 H1070 0.931 . S
C1086 C1080 1.383 . S
C1086 C1085 1.379 . S
H1087 C1081 0.959 . S
H1088 C1081 0.961 . S
H1089 C1081 0.960 . S
H1090 C1082 0.930 . S
H1091 C1083 0.929 . S
H1092 C1100 0.929 . S
H1093 C1102 0.930 . S
H1094 C1104 0.930 . S
H1095 C1107 0.929 . S
H1096 C1110 0.930 . S
H1097 C1112 0.960 . S
H1098 C1112 0.960 . S
H1099 C1112 0.960 . S
C1100 H1092 0.929 . S
C1100 C1101 1.377 . S
C1100 C1102 1.384 . S
C1101 C1100 1.377 . S
C1101 C1107 1.390 . S
C1102 H1093 0.930 . S
C1102 C1100 1.384 . S
C1102 C1103 1.372 . S
C1103 C1102 1.372 . S
C1103 C1104 1.400 . S
C1103 C1108 1.490 . S
C1104 H1094 0.930 . S
C1104 C1103 1.400 . S
C1104 C1107 1.386 . S
H1105 C1121 0.930 . S
H1106 C1122 0.931 1_545 S
C1107 H1095 0.929 . S
C1107 C1101 1.390 . S
C1107 C1104 1.386 . S
C1108 C1103 1.490 . S
C1108 C1110 1.395 . S
C1108 C1111 1.403 . S
H1109 C1115 0.930 . S
C1110 H1096 0.930 . S
C1110 C1108 1.395 . S
C1110 C1113 1.403 . S
C1111 C1108 1.403 . S
C1111 C1112 1.524 . S
C1111 C1115 1.400 . S
C1112 H1097 0.960 . S
C1112 H1098 0.960 . S
C1112 H1099 0.960 . S
C1112 C1111 1.524 . S
C1113 C1110 1.403 . S
C1113 C1114 1.392 . S
C1113 C1117 1.495 1_565 S
C1114 C1113 1.392 . S
C1114 C1115 1.385 . S
C1114 C1116 1.478 . S
C1115 H1109 0.930 . S
C1115 C1111 1.400 . S
C1115 C1114 1.385 . S
C1116 C1114 1.478 . S
C1116 C1118 1.381 . S
C1116 C1122 1.383 . S
C1117 C1113 1.495 1_545 S
C1117 H1123 0.959 . S
C1117 H1124 0.961 . S
C1117 H1125 0.960 1_545 S
C1118 C1116 1.381 . S
C1118 C1119 1.394 . S
C1118 H1126 0.930 . S
C1119 C1118 1.394 . S
C1119 C1120 1.383 1_565 S
C1119 H1127 0.929 . S
C1120 C1119 1.383 1_545 S
C1120 C1121 1.377 . S
C1121 H1105 0.930 . S
C1121 C1120 1.377 . S
C1121 C1122 1.379 1_545 S
C1122 H1106 0.931 1_565 S
C1122 C1116 1.383 . S
C1122 C1121 1.379 1_565 S
H1123 C1117 0.959 . S
H1124 C1117 0.961 . S
H1125 C1117 0.960 1_565 S
H1126 C1118 0.930 . S
H1127 C1119 0.929 . S
H1128 C1136 0.929 . S
H1129 C1138 0.930 . S
H1130 C1140 0.930 . S
H1131 C1143 0.929 . S
H1132 C1146 0.930 . S
H1133 C1148 0.960 . S
H1134 C1148 0.960 . S
H1135 C1148 0.960 . S
C1136 H1128 0.929 . S
C1136 C1137 1.377 . S
C1136 C1138 1.384 . S
C1137 C1136 1.377 . S
C1137 C1143 1.390 . S
C1138 H1129 0.930 . S
C1138 C1136 1.384 . S
C1138 C1139 1.372 . S
C1139 C1138 1.372 . S
C1139 C1140 1.400 . S
C1139 C1144 1.490 . S
C1140 H1130 0.930 . S
C1140 C1139 1.400 . S
C1140 C1143 1.386 . S
H1141 C1157 0.930 . S
H1142 C1158 0.931 . S
C1143 H1131 0.929 . S
C1143 C1137 1.390 . S
C1143 C1140 1.386 . S
C1144 C1139 1.490 . S
C1144 C1146 1.395 . S
C1144 C1147 1.403 . S
H1145 C1151 0.930 . S
C1146 H1132 0.930 . S
C1146 C1144 1.395 . S
C1146 C1149 1.403 . S
C1147 C1144 1.403 . S
C1147 C1148 1.524 . S
C1147 C1151 1.400 . S
C1148 H1133 0.960 . S
C1148 H1134 0.960 . S
C1148 H1135 0.960 . S
C1148 C1147 1.524 . S
C1149 C1146 1.403 . S
C1149 C1150 1.392 . S
C1149 C1153 1.495 . S
C1150 C1149 1.392 . S
C1150 C1151 1.385 . S
C1150 C1152 1.478 . S
C1151 H1145 0.930 . S
C1151 C1147 1.400 . S
C1151 C1150 1.385 . S
C1152 C1150 1.478 . S
C1152 C1154 1.381 . S
C1152 C1158 1.383 . S
C1153 C1149 1.495 . S
C1153 H1159 0.959 . S
C1153 H1160 0.961 . S
C1153 H1161 0.960 . S
C1154 C1152 1.381 . S
C1154 C1155 1.394 . S
C1154 H1162 0.930 . S
C1155 C1154 1.394 . S
C1155 C1156 1.383 . S
C1155 H1163 0.929 . S
C1156 C1155 1.383 . S
C1156 C1157 1.377 . S
C1157 H1141 0.930 . S
C1157 C1156 1.377 . S
C1157 C1158 1.379 . S
C1158 H1142 0.931 . S
C1158 C1152 1.383 . S
C1158 C1157 1.379 . S
H1159 C1153 0.959 . S
H1160 C1153 0.961 . S
H1161 C1153 0.960 . S
H1162 C1154 0.930 . S
H1163 C1155 0.929 . S
H1164 C1172 0.929 . S
H1165 C1174 0.930 . S
H1166 C1176 0.930 . S
H1167 C1179 0.929 . S
H1168 C1182 0.930 . S
H1169 C1184 0.960 . S
H1170 C1184 0.960 . S
H1171 C1184 0.960 . S
C1172 H1164 0.929 . S
C1172 C1173 1.377 . S
C1172 C1174 1.384 . S
C1173 C1172 1.377 . S
C1173 C1179 1.390 . S
C1174 H1165 0.930 . S
C1174 C1172 1.384 . S
C1174 C1175 1.372 . S
C1175 C1174 1.372 . S
C1175 C1176 1.400 . S
C1175 C1180 1.490 . S
C1176 H1166 0.930 . S
C1176 C1175 1.400 . S
C1176 C1179 1.386 . S
H1177 C1193 0.930 . S
H1178 C1194 0.931 . S
C1179 H1167 0.929 . S
C1179 C1173 1.390 . S
C1179 C1176 1.386 . S
C1180 C1175 1.490 . S
C1180 C1182 1.395 . S
C1180 C1183 1.403 . S
H1181 C1187 0.930 . S
C1182 H1168 0.930 . S
C1182 C1180 1.395 . S
C1182 C1185 1.403 . S
C1183 C1180 1.403 . S
C1183 C1184 1.524 . S
C1183 C1187 1.400 . S
C1184 H1169 0.960 . S
C1184 H1170 0.960 . S
C1184 H1171 0.960 . S
C1184 C1183 1.524 . S
C1185 C1182 1.403 . S
C1185 C1186 1.392 . S
C1185 C1189 1.495 . S
C1186 C1185 1.392 . S
C1186 C1187 1.385 . S
C1186 C1188 1.478 . S
C1187 H1181 0.930 . S
C1187 C1183 1.400 . S
C1187 C1186 1.385 . S
C1188 C1186 1.478 . S
C1188 C1190 1.381 . S
C1188 C1194 1.383 . S
C1189 C1185 1.495 . S
C1189 H1195 0.959 . S
C1189 H1196 0.961 . S
C1189 H1197 0.960 . S
C1190 C1188 1.381 . S
C1190 C1191 1.394 . S
C1190 H1198 0.930 . S
C1191 C1190 1.394 . S
C1191 C1192 1.383 . S
C1191 H1199 0.929 . S
C1192 C1191 1.383 . S
C1192 C1193 1.377 . S
C1193 H1177 0.930 . S
C1193 C1192 1.377 . S
C1193 C1194 1.379 . S
C1194 H1178 0.931 . S
C1194 C1188 1.383 . S
C1194 C1193 1.379 . S
H1195 C1189 0.959 . S
H1196 C1189 0.961 . S
H1197 C1189 0.960 . S
H1198 C1190 0.930 . S
H1199 C1191 0.929 . S
H1200 C1208 0.929 . S
H1201 C1210 0.930 . S
H1202 C1212 0.930 . S
H1203 C1215 0.929 . S
H1204 C1218 0.930 . S
H1205 C1220 0.960 . S
H1206 C1220 0.960 . S
H1207 C1220 0.960 . S
C1208 H1200 0.929 . S
C1208 C1209 1.377 . S
C1208 C1210 1.384 . S
C1209 C1208 1.377 . S
C1209 C1215 1.390 . S
C1210 H1201 0.930 . S
C1210 C1208 1.384 . S
C1210 C1211 1.372 . S
C1211 C1210 1.372 . S
C1211 C1212 1.400 . S
C1211 C1216 1.490 . S
C1212 H1202 0.930 . S
C1212 C1211 1.400 . S
C1212 C1215 1.386 . S
H1213 C1229 0.930 . S
H1214 C1230 0.931 . S
C1215 H1203 0.929 . S
C1215 C1209 1.390 . S
C1215 C1212 1.386 . S
C1216 C1211 1.490 . S
C1216 C1218 1.395 . S
C1216 C1219 1.403 . S
H1217 C1223 0.930 . S
C1218 H1204 0.930 . S
C1218 C1216 1.395 . S
C1218 C1221 1.403 . S
C1219 C1216 1.403 . S
C1219 C1220 1.524 . S
C1219 C1223 1.400 . S
C1220 H1205 0.960 . S
C1220 H1206 0.960 . S
C1220 H1207 0.960 . S
C1220 C1219 1.524 . S
C1221 C1218 1.403 . S
C1221 C1222 1.392 . S
C1221 C1225 1.495 . S
C1222 C1221 1.392 . S
C1222 C1223 1.385 . S
C1222 C1224 1.478 . S
C1223 H1217 0.930 . S
C1223 C1219 1.400 . S
C1223 C1222 1.385 . S
C1224 C1222 1.478 . S
C1224 C1226 1.381 . S
C1224 C1230 1.383 . S
C1225 C1221 1.495 . S
C1225 H1231 0.959 . S
C1225 H1232 0.961 . S
C1225 H1233 0.960 . S
C1226 C1224 1.381 . S
C1226 C1227 1.394 . S
C1226 H1234 0.930 . S
C1227 C1226 1.394 . S
C1227 C1228 1.383 . S
C1227 H1235 0.929 . S
C1228 C1227 1.383 . S
C1228 C1229 1.377 . S
C1229 H1213 0.930 . S
C1229 C1228 1.377 . S
C1229 C1230 1.379 . S
C1230 H1214 0.931 . S
C1230 C1224 1.383 . S
C1230 C1229 1.379 . S
H1231 C1225 0.959 . S
H1232 C1225 0.961 . S
H1233 C1225 0.960 . S
H1234 C1226 0.930 . S
H1235 C1227 0.929 . S
H1236 C1244 0.929 . S
H1237 C1246 0.930 . S
H1238 C1248 0.930 . S
H1239 C1251 0.929 . S
H1240 C1254 0.930 . S
H1241 C1256 0.960 . S
H1242 C1256 0.960 . S
H1243 C1256 0.960 . S
C1244 H1236 0.929 . S
C1244 C1245 1.377 . S
C1244 C1246 1.384 . S
C1245 C1244 1.377 . S
C1245 C1251 1.390 . S
C1246 H1237 0.930 . S
C1246 C1244 1.384 . S
C1246 C1247 1.372 . S
C1247 C1246 1.372 . S
C1247 C1248 1.400 . S
C1247 C1252 1.490 . S
C1248 H1238 0.930 . S
C1248 C1247 1.400 . S
C1248 C1251 1.386 . S
H1249 C1265 0.930 . S
H1250 C1266 0.931 . S
C1251 H1239 0.929 . S
C1251 C1245 1.390 . S
C1251 C1248 1.386 . S
C1252 C1247 1.490 . S
C1252 C1254 1.395 . S
C1252 C1255 1.403 . S
H1253 C1259 0.930 . S
C1254 H1240 0.930 . S
C1254 C1252 1.395 . S
C1254 C1257 1.403 . S
C1255 C1252 1.403 . S
C1255 C1256 1.524 . S
C1255 C1259 1.400 . S
C1256 H1241 0.960 . S
C1256 H1242 0.960 . S
C1256 H1243 0.960 . S
C1256 C1255 1.524 . S
C1257 C1254 1.403 . S
C1257 C1258 1.392 . S
C1257 C1261 1.495 . S
C1258 C1257 1.392 . S
C1258 C1259 1.385 . S
C1258 C1260 1.478 . S
C1259 H1253 0.930 . S
C1259 C1255 1.400 . S
C1259 C1258 1.385 . S
C1260 C1258 1.478 . S
C1260 C1262 1.381 . S
C1260 C1266 1.383 . S
C1261 C1257 1.495 . S
C1261 H1267 0.959 . S
C1261 H1268 0.961 . S
C1261 H1269 0.960 . S
C1262 C1260 1.381 . S
C1262 C1263 1.394 . S
C1262 H1270 0.930 . S
C1263 C1262 1.394 . S
C1263 C1264 1.383 . S
C1263 H1271 0.929 . S
C1264 C1263 1.383 . S
C1264 C1265 1.377 . S
C1265 H1249 0.930 . S
C1265 C1264 1.377 . S
C1265 C1266 1.379 . S
C1266 H1250 0.931 . S
C1266 C1260 1.383 . S
C1266 C1265 1.379 . S
H1267 C1261 0.959 . S
H1268 C1261 0.961 . S
H1269 C1261 0.960 . S
H1270 C1262 0.930 . S
H1271 C1263 0.929 . S
H1272 C1280 0.929 . S
H1273 C1282 0.930 . S
H1274 C1284 0.930 . S
H1275 C1287 0.929 . S
H1276 C1290 0.930 . S
H1277 C1292 0.960 . S
H1278 C1292 0.960 . S
H1279 C1292 0.960 . S
C1280 H1272 0.929 . S
C1280 C1281 1.377 . S
C1280 C1282 1.384 . S
C1281 C1280 1.377 . S
C1281 C1287 1.390 . S
C1282 H1273 0.930 . S
C1282 C1280 1.384 . S
C1282 C1283 1.372 . S
C1283 C1282 1.372 . S
C1283 C1284 1.400 . S
C1283 C1288 1.490 . S
C1284 H1274 0.930 . S
C1284 C1283 1.400 . S
C1284 C1287 1.386 . S
H1285 C1301 0.930 . S
H1286 C1302 0.931 . S
C1287 H1275 0.929 . S
C1287 C1281 1.390 . S
C1287 C1284 1.386 . S
C1288 C1283 1.490 . S
C1288 C1290 1.395 . S
C1288 C1291 1.403 . S
H1289 C1295 0.930 . S
C1290 H1276 0.930 . S
C1290 C1288 1.395 . S
C1290 C1293 1.403 . S
C1291 C1288 1.403 . S
C1291 C1292 1.524 . S
C1291 C1295 1.400 . S
C1292 H1277 0.960 . S
C1292 H1278 0.960 . S
C1292 H1279 0.960 . S
C1292 C1291 1.524 . S
C1293 C1290 1.403 . S
C1293 C1294 1.392 . S
C1293 C1297 1.495 . S
C1294 C1293 1.392 . S
C1294 C1295 1.385 . S
C1294 C1296 1.478 . S
C1295 H1289 0.930 . S
C1295 C1291 1.400 . S
C1295 C1294 1.385 . S
C1296 C1294 1.478 . S
C1296 C1298 1.381 . S
C1296 C1302 1.383 . S
C1297 C1293 1.495 . S
C1297 H1303 0.959 . S
C1297 H1304 0.961 . S
C1297 H1305 0.960 . S
C1298 C1296 1.381 . S
C1298 C1299 1.394 . S
C1298 H1306 0.930 . S
C1299 C1298 1.394 . S
C1299 C1300 1.383 . S
C1299 H1307 0.929 . S
C1300 C1299 1.383 . S
C1300 C1301 1.377 . S
C1301 H1285 0.930 . S
C1301 C1300 1.377 . S
C1301 C1302 1.379 . S
C1302 H1286 0.931 . S
C1302 C1296 1.383 . S
C1302 C1301 1.379 . S
H1303 C1297 0.959 . S
H1304 C1297 0.961 . S
H1305 C1297 0.960 . S
H1306 C1298 0.930 . S
H1307 C1299 0.929 . S
H1308 C1316 0.929 . S
H1309 C1318 0.930 . S
H1310 C1320 0.930 . S
H1311 C1323 0.957 . S
H1312 C1326 0.930 . S
H1313 C1328 0.960 . S
H1314 C1328 0.960 . S
H1315 C1328 0.960 . S
C1316 H1308 0.929 . S
C1316 C1317 1.377 . S
C1316 C1318 1.384 . S
C1317 C1316 1.377 . S
C1317 C1323 1.390 . S
C1318 H1309 0.930 . S
C1318 C1316 1.384 . S
C1318 C1319 1.372 . S
C1319 C1318 1.372 . S
C1319 C1320 1.400 . S
C1319 C1324 1.490 . S
C1320 H1310 0.930 . S
C1320 C1319 1.400 . S
C1320 C1323 1.386 . S
H1321 C1337 0.930 . S
H1322 C1338 0.931 . S
C1323 H1311 0.957 . S
C1323 C1317 1.390 . S
C1323 C1320 1.386 . S
C1324 C1319 1.490 . S
C1324 C1326 1.395 . S
C1324 C1327 1.403 . S
H1325 C1331 0.930 . S
C1326 H1312 0.930 . S
C1326 C1324 1.395 . S
C1326 C1329 1.403 . S
C1327 C1324 1.403 . S
C1327 C1328 1.524 . S
C1327 C1331 1.400 . S
C1328 H1313 0.960 . S
C1328 H1314 0.960 . S
C1328 H1315 0.960 . S
C1328 C1327 1.524 . S
C1329 C1326 1.403 . S
C1329 C1330 1.392 . S
C1329 C1333 1.495 . S
C1330 C1329 1.392 . S
C1330 C1331 1.385 . S
C1330 C1332 1.478 . S
C1331 H1325 0.930 . S
C1331 C1327 1.400 . S
C1331 C1330 1.385 . S
C1332 C1330 1.478 . S
C1332 C1334 1.381 . S
C1332 C1338 1.383 . S
C1333 C1329 1.495 . S
C1333 H1339 0.959 . S
C1333 H1340 0.961 . S
C1333 H1341 0.960 . S
C1334 C1332 1.381 . S
C1334 C1335 1.394 . S
C1334 H1342 0.930 . S
C1335 C1334 1.394 . S
C1335 C1336 1.383 . S
C1335 H1343 0.929 . S
C1336 C1335 1.383 . S
C1336 C1337 1.377 . S
C1337 H1321 0.930 . S
C1337 C1336 1.377 . S
C1337 C1338 1.379 . S
C1338 H1322 0.931 . S
C1338 C1332 1.383 . S
C1338 C1337 1.379 . S
H1339 C1333 0.959 . S
H1340 C1333 0.961 . S
H1341 C1333 0.960 . S
H1342 C1334 0.930 . S
H1343 C1335 0.929 . S
H1344 C1352 0.929 . S
H1345 C1354 0.930 . S
H1346 C1356 0.930 . S
H1347 C1359 0.929 . S
H1348 C1362 0.930 . S
H1349 C1364 0.960 . S
H1350 C1364 0.960 1_554 S
H1351 C1364 0.960 . S
C1352 H1344 0.929 . S
C1352 C1353 1.377 . S
C1352 C1354 1.384 . S
C1353 C1352 1.377 . S
C1353 C1359 1.390 1_554 S
C1354 H1345 0.930 . S
C1354 C1352 1.384 . S
C1354 C1355 1.372 . S
C1355 C1354 1.372 . S
C1355 C1356 1.400 1_554 S
C1355 C1360 1.490 . S
C1356 H1346 0.930 . S
C1356 C1355 1.400 1_556 S
C1356 C1359 1.386 . S
H1357 C1373 0.930 . S
H1358 C1374 0.931 . S
C1359 H1347 0.929 . S
C1359 C1353 1.390 1_556 S
C1359 C1356 1.386 . S
C1360 C1355 1.490 . S
C1360 C1362 1.395 . S
C1360 C1363 1.403 1_554 S
H1361 C1367 0.930 . S
C1362 H1348 0.930 . S
C1362 C1360 1.395 . S
C1362 C1365 1.421 1_545 S
C1363 C1360 1.403 1_556 S
C1363 C1364 1.524 . S
C1363 C1367 1.400 1_545 S
C1364 H1349 0.960 . S
C1364 H1350 0.960 1_556 S
C1364 H1351 0.960 . S
C1364 C1363 1.524 . S
C1365 C1362 1.421 1_565 S
C1365 C1366 1.368 1_554 S
C1365 C1369 1.509 1_455 S
C1366 C1365 1.368 1_556 S
C1366 C1367 1.385 . S
C1366 C1368 1.478 . S
C1367 H1361 0.930 . S
C1367 C1363 1.400 1_565 S
C1367 C1366 1.385 . S
C1368 C1366 1.478 . S
C1368 C1370 1.381 1_556 S
C1368 C1374 1.383 . S
C1369 C1365 1.509 1_655 S
C1369 H1375 0.959 . S
C1369 H1376 0.961 1_554 S
C1369 H1377 0.960 . S
C1370 C1368 1.381 1_554 S
C1370 C1371 1.394 . S
C1370 H1378 0.930 . S
C1371 C1370 1.394 . S
C1371 C1372 1.381 1_554 S
C1371 H1379 0.929 1_455 S
C1372 C1371 1.381 1_556 S
C1372 C1373 1.378 . S
C1373 H1357 0.930 . S
C1373 C1372 1.378 . S
C1373 C1374 1.379 . S
C1374 H1358 0.931 . S
C1374 C1368 1.383 . S
C1374 C1373 1.379 . S
H1375 C1369 0.959 . S
H1376 C1369 0.961 1_556 S
H1377 C1369 0.960 . S
H1378 C1370 0.930 . S
H1379 C1371 0.929 1_655 S
H1380 C1388 0.929 . S
H1381 C1390 0.930 . S
H1382 C1392 0.930 . S
H1383 C1395 0.929 . S
H1384 C1398 0.930 . S
H1385 C1400 0.960 . S
H1386 C1400 0.960 1_565 S
H1387 C1400 0.960 . S
C1388 H1380 0.929 . S
C1388 C1389 1.377 . S
C1388 C1390 1.384 . S
C1389 C1388 1.377 . S
C1389 C1395 1.390 . S
C1390 H1381 0.930 . S
C1390 C1388 1.384 . S
C1390 C1391 1.372 . S
C1391 C1390 1.372 . S
C1391 C1392 1.400 . S
C1391 C1396 1.490 . S
C1392 H1382 0.930 . S
C1392 C1391 1.400 . S
C1392 C1395 1.386 . S
H1393 C1409 0.930 . S
H1394 C1410 0.931 . S
C1395 H1383 0.929 . S
C1395 C1389 1.390 . S
C1395 C1392 1.386 . S
C1396 C1391 1.490 . S
C1396 C1398 1.395 . S
C1396 C1399 1.403 . S
H1397 C1403 0.930 . S
C1398 H1384 0.930 . S
C1398 C1396 1.395 . S
C1398 C1401 1.403 . S
C1399 C1396 1.403 . S
C1399 C1400 1.524 . S
C1399 C1403 1.400 . S
C1400 H1385 0.960 . S
C1400 H1386 0.960 1_545 S
C1400 H1387 0.960 . S
C1400 C1399 1.524 . S
C1401 C1398 1.403 . S
C1401 C1402 1.392 . S
C1401 C1405 1.495 . S
C1402 C1401 1.392 . S
C1402 C1403 1.385 . S
C1402 C1404 1.478 . S
C1403 H1397 0.930 . S
C1403 C1399 1.400 . S
C1403 C1402 1.385 . S
C1404 C1402 1.478 . S
C1404 C1406 1.381 . S
C1404 C1410 1.383 . S
C1405 C1401 1.495 . S
C1405 H1411 0.959 . S
C1405 H1412 0.961 . S
C1405 H1413 0.960 . S
C1406 C1404 1.381 . S
C1406 C1407 1.394 . S
C1406 H1414 0.930 . S
C1407 C1406 1.394 . S
C1407 C1408 1.383 . S
C1407 H1415 0.929 . S
C1408 C1407 1.383 . S
C1408 C1409 1.377 . S
C1409 H1393 0.930 . S
C1409 C1408 1.377 . S
C1409 C1410 1.379 . S
C1410 H1394 0.931 . S
C1410 C1404 1.383 . S
C1410 C1409 1.379 . S
H1411 C1405 0.959 . S
H1412 C1405 0.961 . S
H1413 C1405 0.960 . S
H1414 C1406 0.930 . S
H1415 C1407 0.929 . S
H1416 C1424 0.929 . S
H1417 C1426 0.930 . S
H1418 C1428 0.930 . S
H1419 C1431 0.929 . S
H1420 C1434 0.930 . S
H1421 C1436 0.960 . S
H1422 C1436 0.960 . S
H1423 C1436 0.960 . S
C1424 H1416 0.929 . S
C1424 C1425 1.377 . S
C1424 C1426 1.384 . S
C1425 C1424 1.377 . S
C1425 C1431 1.390 . S
C1426 H1417 0.930 . S
C1426 C1424 1.384 . S
C1426 C1427 1.372 . S
C1427 C1426 1.372 . S
C1427 C1428 1.400 . S
C1427 C1432 1.490 . S
C1428 H1418 0.930 . S
C1428 C1427 1.400 . S
C1428 C1431 1.386 . S
H1429 C1445 0.930 . S
H1430 C1446 0.931 . S
C1431 H1419 0.929 . S
C1431 C1425 1.390 . S
C1431 C1428 1.386 . S
C1432 C1427 1.490 . S
C1432 C1434 1.395 . S
C1432 C1435 1.403 . S
H1433 C1439 0.930 . S
C1434 H1420 0.930 . S
C1434 C1432 1.395 . S
C1434 C1437 1.403 1_455 S
C1435 C1432 1.403 . S
C1435 C1436 1.524 . S
C1435 C1439 1.400 1_455 S
C1436 H1421 0.960 . S
C1436 H1422 0.960 . S
C1436 H1423 0.960 . S
C1436 C1435 1.524 . S
C1437 C1434 1.403 1_655 S
C1437 C1438 1.392 . S
C1437 C1441 1.495 1_545 S
C1438 C1437 1.392 . S
C1438 C1439 1.385 . S
C1438 C1440 1.478 . S
C1439 H1433 0.930 . S
C1439 C1435 1.400 1_655 S
C1439 C1438 1.385 . S
C1440 C1438 1.478 . S
C1440 C1442 1.381 . S
C1440 C1446 1.383 . S
C1441 C1437 1.495 1_565 S
C1441 H1447 0.959 . S
C1441 H1448 0.961 . S
C1441 H1449 0.960 . S
C1442 C1440 1.381 . S
C1442 C1443 1.394 . S
C1442 H1450 0.930 . S
C1443 C1442 1.394 . S
C1443 C1444 1.380 . S
C1443 H1451 0.929 1_545 S
C1444 C1443 1.380 . S
C1444 C1445 1.379 . S
C1445 H1429 0.930 . S
C1445 C1444 1.379 . S
C1445 C1446 1.379 . S
C1446 H1430 0.931 . S
C1446 C1440 1.383 . S
C1446 C1445 1.379 . S
H1447 C1441 0.959 . S
H1448 C1441 0.961 . S
H1449 C1441 0.960 . S
H1450 C1442 0.930 . S
H1451 C1443 0.929 1_565 S
H1452 C1460 0.929 . S
H1453 C1462 0.930 . S
H1454 C1464 0.930 . S
H1455 C1467 0.929 1_455 S
H1456 C1470 0.930 . S
H1457 C1472 0.960 . S
H1458 C1472 0.960 . S
H1459 C1472 0.960 . S
C1460 H1452 0.929 . S
C1460 C1461 1.377 . S
C1460 C1462 1.384 . S
C1461 C1460 1.377 . S
C1461 C1467 1.390 . S
C1462 H1453 0.930 . S
C1462 C1460 1.384 . S
C1462 C1463 1.372 . S
C1463 C1462 1.372 . S
C1463 C1464 1.400 . S
C1463 C1468 1.490 . S
C1464 H1454 0.930 . S
C1464 C1463 1.400 . S
C1464 C1467 1.386 . S
H1465 C1481 0.930 . S
H1466 C1482 0.931 . S
C1467 H1455 0.929 1_655 S
C1467 C1461 1.390 . S
C1467 C1464 1.386 . S
C1468 C1463 1.490 . S
C1468 C1470 1.395 . S
C1468 C1471 1.403 . S
H1469 C1475 0.930 . S
C1470 H1456 0.930 . S
C1470 C1468 1.395 . S
C1470 C1473 1.403 1_545 S
C1471 C1468 1.403 . S
C1471 C1472 1.524 . S
C1471 C1475 1.400 1_545 S
C1472 H1457 0.960 . S
C1472 H1458 0.960 . S
C1472 H1459 0.960 . S
C1472 C1471 1.524 . S
C1473 C1470 1.403 1_565 S
C1473 C1474 1.392 . S
C1473 C1477 1.495 . S
C1474 C1473 1.392 . S
C1474 C1475 1.385 . S
C1474 C1476 1.478 . S
C1475 H1469 0.930 . S
C1475 C1471 1.400 1_565 S
C1475 C1474 1.385 . S
C1476 C1474 1.478 . S
C1476 C1478 1.381 . S
C1476 C1482 1.383 . S
C1477 C1473 1.495 . S
C1477 H1483 0.959 . S
C1477 H1484 0.961 . S
C1477 H1485 0.960 . S
C1478 C1476 1.381 . S
C1478 C1479 1.394 . S
C1478 H1486 0.930 . S
C1479 C1478 1.394 . S
C1479 C1480 1.383 . S
C1479 H1487 0.929 . S
C1480 C1479 1.383 . S
C1480 C1481 1.377 . S
C1481 H1465 0.930 . S
C1481 C1480 1.377 . S
C1481 C1482 1.379 . S
C1482 H1466 0.931 . S
C1482 C1476 1.383 . S
C1482 C1481 1.379 . S
H1483 C1477 0.959 . S
H1484 C1477 0.961 . S
H1485 C1477 0.960 . S
H1486 C1478 0.930 . S
H1487 C1479 0.929 . S
H1488 C1496 0.929 . S
H1489 C1498 0.930 1_455 S
H1490 C1500 0.930 . S
H1491 C1503 0.929 . S
H1492 C1506 0.930 . S
H1493 C1508 0.960 . S
H1494 C1508 0.960 . S
H1495 C1508 0.960 . S
C1496 H1488 0.929 . S
C1496 C1497 1.377 1_455 S
C1496 C1498 1.384 1_455 S
C1497 C1496 1.377 1_655 S
C1497 C1503 1.390 . S
C1498 H1489 0.930 1_655 S
C1498 C1496 1.384 1_655 S
C1498 C1499 1.372 . S
C1499 C1498 1.372 . S
C1499 C1500 1.400 . S
C1499 C1504 1.490 . S
C1500 H1490 0.930 . S
C1500 C1499 1.400 . S
C1500 C1503 1.386 . S
H1501 C1517 0.930 . S
H1502 C1518 0.931 . S
C1503 H1491 0.929 . S
C1503 C1497 1.390 . S
C1503 C1500 1.386 . S
C1504 C1499 1.490 . S
C1504 C1506 1.395 . S
C1504 C1507 1.403 . S
H1505 C1511 0.930 . S
C1506 H1492 0.930 . S
C1506 C1504 1.395 . S
C1506 C1509 1.403 . S
C1507 C1504 1.403 . S
C1507 C1508 1.524 . S
C1507 C1511 1.400 . S
C1508 H1493 0.960 . S
C1508 H1494 0.960 . S
C1508 H1495 0.960 . S
C1508 C1507 1.524 . S
C1509 C1506 1.403 . S
C1509 C1510 1.392 . S
C1509 C1513 1.495 . S
C1510 C1509 1.392 . S
C1510 C1511 1.385 . S
C1510 C1512 1.478 . S
C1511 H1505 0.930 . S
C1511 C1507 1.400 . S
C1511 C1510 1.385 . S
C1512 C1510 1.478 . S
C1512 C1514 1.381 . S
C1512 C1518 1.383 . S
C1513 C1509 1.495 . S
C1513 H1519 0.959 . S
C1513 H1520 0.961 . S
C1513 H1521 0.960 1_565 S
C1514 C1512 1.381 . S
C1514 C1515 1.394 1_565 S
C1514 H1522 0.930 1_565 S
C1515 C1514 1.394 1_545 S
C1515 C1516 1.383 1_545 S
C1515 H1523 0.929 . S
C1516 C1515 1.383 1_565 S
C1516 C1517 1.377 . S
C1517 H1501 0.930 . S
C1517 C1516 1.377 . S
C1517 C1518 1.379 . S
C1518 H1502 0.931 . S
C1518 C1512 1.383 . S
C1518 C1517 1.379 . S
H1519 C1513 0.959 . S
H1520 C1513 0.961 . S
H1521 C1513 0.960 1_545 S
H1522 C1514 0.930 1_545 S
H1523 C1515 0.929 . S
H1524 C1532 0.929 . S
H1525 C1534 0.930 . S
H1526 C1536 0.930 1_545 S
H1527 C1539 0.929 . S
H1528 C1542 0.930 . S
H1529 C1544 0.960 . S
H1530 C1544 0.960 . S
H1531 C1544 0.941 1_545 S
C1532 H1524 0.929 . S
C1532 C1533 1.377 . S
C1532 C1534 1.384 . S
C1533 C1532 1.377 . S
C1533 C1539 1.390 1_565 S
C1534 H1525 0.930 . S
C1534 C1532 1.384 . S
C1534 C1535 1.372 . S
C1535 C1534 1.372 . S
C1535 C1536 1.400 . S
C1535 C1540 1.490 . S
C1536 H1526 0.930 1_565 S
C1536 C1535 1.400 . S
C1536 C1539 1.386 1_565 S
H1537 C1553 0.930 . S
H1538 C1554 0.931 . S
C1539 H1527 0.929 . S
C1539 C1533 1.390 1_545 S
C1539 C1536 1.386 1_545 S
C1540 C1535 1.490 . S
C1540 C1542 1.395 . S
C1540 C1543 1.403 . S
H1541 C1547 0.930 . S
C1542 H1528 0.930 . S
C1542 C1540 1.395 . S
C1542 C1545 1.403 1_455 S
C1543 C1540 1.403 . S
C1543 C1544 1.524 . S
C1543 C1547 1.400 1_455 S
C1544 H1529 0.960 . S
C1544 H1530 0.960 . S
C1544 H1531 0.941 1_565 S
C1544 C1543 1.524 . S
C1545 C1542 1.403 1_655 S
C1545 C1546 1.392 . S
C1545 C1549 1.495 . S
C1546 C1545 1.392 . S
C1546 C1547 1.385 . S
C1546 C1548 1.478 . S
C1547 H1541 0.930 . S
C1547 C1543 1.400 1_655 S
C1547 C1546 1.385 . S
C1548 C1546 1.478 . S
C1548 C1550 1.381 . S
C1548 C1554 1.383 . S
C1549 C1545 1.495 . S
C1549 H1555 0.959 . S
C1549 H1556 0.961 . S
C1549 H1557 0.960 . S
C1550 C1548 1.381 . S
C1550 C1551 1.394 . S
C1550 H1558 0.930 . S
C1551 C1550 1.394 . S
C1551 C1552 1.383 . S
C1551 H1559 0.929 . S
C1552 C1551 1.383 . S
C1552 C1553 1.377 . S
C1553 H1537 0.930 . S
C1553 C1552 1.377 . S
C1553 C1554 1.379 . S
C1554 H1538 0.931 . S
C1554 C1548 1.383 . S
C1554 C1553 1.379 . S
H1555 C1549 0.959 . S
H1556 C1549 0.961 . S
H1557 C1549 0.960 . S
H1558 C1550 0.930 . S
H1559 C1551 0.929 . S
C273 C164 1.839 . S
C292 C10 1.879 . S
C309 C186 1.838 . S
C328 C30 1.873 1_455 S
C345 C216 1.839 . S
C364 C54 1.876 . S
C381 C238 1.831 . S
C400 C74 1.870 . S
C417 C252 1.836 . S
C436 C96 1.867 . S
C453 C142 1.839 . S
C472 C120 1.879 . S
C489 C150 1.878 . S
C508 C118 1.847 . S
C525 C172 1.866 1_455 S
C544 C8 1.812 . S
C561 C194 1.878 . S
C580 C40 1.812 . S
C597 C206 1.877 . S
C616 C52 1.815 . S
C633 C228 1.893 . S
C652 C84 1.827 . S
C669 C260 1.879 . S
C688 C106 1.849 . S
C705 C18 1.361 . S
C724 C131 1.380 . S
C741 C32 1.364 . S
C760 C21 1.368 . S
C777 C29 1.367 . S
C796 C62 1.379 . S
C813 C65 1.374 . S
C832 C76 1.344 . S
C849 C73 1.370 . S
C868 C98 1.372 . S
C885 C128 1.358 . S
C904 C95 1.385 . S
C921 C140 1.364 . S
C940 C169 1.365 . S
C957 C162 1.363 . S
C976 C191 1.370 . S
C993 C184 1.359 . S
C1012 C205 1.385 . S
C1029 C208 1.365 . S
C1048 C227 1.363 . S
C1065 C230 1.363 . S
C1084 C257 1.370 . S
C1101 C147 1.367 . S
C1120 C250 1.382 . S
C1137 C183 0.953 . S
C1156 C15 0.967 . S
C1173 C43 0.955 . S
C1192 C219 0.946 . S
C1209 C59 0.956 . S
C1228 C241 0.951 . S
C1245 C87 0.956 . S
C1264 C249 0.946 . S
C1281 C109 0.955 . S
C1300 C139 0.946 . S
C1317 C161 0.953 . S
C1336 C125 0.959 . S
C1353 C7 0.254 . S
C1372 C175 0.279 . S
C1389 C197 0.232 . S
C1408 C37 0.270 . S
C1425 C213 0.253 . S
C1444 C51 0.287 . S
C1461 C235 0.244 . S
C1480 C81 0.220 . S
C1497 C103 0.261 . S
C1516 C263 0.322 . S
C1533 C117 0.222 . S
C1552 C153 0.165 . S
