# Generated by pormake.
# Topology umm, (4)-cn, num edge types: 1
# Building blocks:
#     Node 0, Type 0, BuildingBlock: GALJAG_clean_sbu_0, # of connection points: 4
#     Node 1, Type 0, BuildingBlock: GALJAG_clean_sbu_0, # of connection points: 4
#     Node 2, Type 0, BuildingBlock: GALJAG_clean_sbu_0, # of connection points: 4
#     Node 3, Type 0, BuildingBlock: GALJAG_clean_sbu_0, # of connection points: 4
#     Node 4, Type 0, BuildingBlock: GALJAG_clean_sbu_0, # of connection points: 4
#     Node 5, Type 0, BuildingBlock: GALJAG_clean_sbu_0, # of connection points: 4
#     Node 6, Type 0, BuildingBlock: GALJAG_clean_sbu_0, # of connection points: 4
#     Node 7, Type 0, BuildingBlock: GALJAG_clean_sbu_0, # of connection points: 4
#     Node 8, Type 0, BuildingBlock: GALJAG_clean_sbu_0, # of connection points: 4
#     Node 9, Type 0, BuildingBlock: GALJAG_clean_sbu_0, # of connection points: 4
#     Node 10, Type 0, BuildingBlock: GALJAG_clean_sbu_0, # of connection points: 4
#     Node 11, Type 0, BuildingBlock: GALJAG_clean_sbu_0, # of connection points: 4
#     Edge 12, Type (0, 0), BuildingBlock: ZUJKAS_clean_linker_0, # of connection points: 2
#     Edge 13, Type (0, 0), BuildingBlock: ZUJKAS_clean_linker_0, # of connection points: 2
#     Edge 14, Type (0, 0), BuildingBlock: ZUJKAS_clean_linker_0, # of connection points: 2
#     Edge 15, Type (0, 0), BuildingBlock: ZUJKAS_clean_linker_0, # of connection points: 2
#     Edge 16, Type (0, 0), BuildingBlock: ZUJKAS_clean_linker_0, # of connection points: 2
#     Edge 17, Type (0, 0), BuildingBlock: ZUJKAS_clean_linker_0, # of connection points: 2
#     Edge 18, Type (0, 0), BuildingBlock: ZUJKAS_clean_linker_0, # of connection points: 2
#     Edge 19, Type (0, 0), BuildingBlock: ZUJKAS_clean_linker_0, # of connection points: 2
#     Edge 20, Type (0, 0), BuildingBlock: ZUJKAS_clean_linker_0, # of connection points: 2
#     Edge 21, Type (0, 0), BuildingBlock: ZUJKAS_clean_linker_0, # of connection points: 2
#     Edge 22, Type (0, 0), BuildingBlock: ZUJKAS_clean_linker_0, # of connection points: 2
#     Edge 23, Type (0, 0), BuildingBlock: ZUJKAS_clean_linker_0, # of connection points: 2
#     Edge 24, Type (0, 0), BuildingBlock: ZUJKAS_clean_linker_0, # of connection points: 2
#     Edge 25, Type (0, 0), BuildingBlock: ZUJKAS_clean_linker_0, # of connection points: 2
#     Edge 26, Type (0, 0), BuildingBlock: ZUJKAS_clean_linker_0, # of connection points: 2
#     Edge 27, Type (0, 0), BuildingBlock: ZUJKAS_clean_linker_0, # of connection points: 2
#     Edge 28, Type (0, 0), BuildingBlock: ZUJKAS_clean_linker_0, # of connection points: 2
#     Edge 29, Type (0, 0), BuildingBlock: ZUJKAS_clean_linker_0, # of connection points: 2
#     Edge 30, Type (0, 0), BuildingBlock: ZUJKAS_clean_linker_0, # of connection points: 2
#     Edge 31, Type (0, 0), BuildingBlock: ZUJKAS_clean_linker_0, # of connection points: 2
#     Edge 32, Type (0, 0), BuildingBlock: ZUJKAS_clean_linker_0, # of connection points: 2
#     Edge 33, Type (0, 0), BuildingBlock: ZUJKAS_clean_linker_0, # of connection points: 2
#     Edge 34, Type (0, 0), BuildingBlock: ZUJKAS_clean_linker_0, # of connection points: 2
#     Edge 35, Type (0, 0), BuildingBlock: ZUJKAS_clean_linker_0, # of connection points: 2
# Relax obj value: 0.093
# Max RMSD: 0.220
# Mean RMSD: 0.220
data_MOF--net-umm--node1-GALJAG_clean_sbu_0--edge1-ZUJKAS_clean_linker_0
_symmetry_space_group_name_H-M    P1
_symmetry_Int_Tables_number       1
_symmetry_cell_setting            triclinic
loop_
_symmetry_equiv_pos_as_xyz
'x, y, z'
_cell_length_a     72.37365
_cell_length_b     72.345802
_cell_length_c     36.884759
_cell_angle_alpha  89.997096
_cell_angle_beta   90.00143
_cell_angle_gamma 120.02407
loop_
_atom_site_label
_atom_site_type_symbol
_atom_site_fract_x
_atom_site_fract_y
_atom_site_fract_z
_atom_type_partial_charge
In0 In 0.38285 0.53256 0.08198 0.0
O1 O 0.39352 0.56 0.12245 0.0
O2 O 0.3784 0.52812 0.1427 0.0
C3 C 0.39061 0.55066 0.0158 0.0
C4 C 0.41419 0.5229 0.08582 0.0
C5 C 0.34021 0.50926 0.07417 0.0
O6 O 0.39117 0.56091 0.044 0.0
O7 O 0.38647 0.53178 0.02141 0.0
O8 O 0.35191 0.50091 0.07151 0.0
O9 O 0.35002 0.52889 0.0818 0.0
C10 C 0.38716 0.5478 0.14983 0.0
O11 O 0.39467 0.50855 0.08582 0.0
O12 O 0.41762 0.54178 0.08395 0.0
In13 In 0.84882 0.38713 0.41268 0.0
O14 O 0.83877 0.40507 0.45259 0.0
O15 O 0.8425 0.37967 0.47272 0.0
C16 C 0.83091 0.39791 0.35809 0.0
C17 C 0.89201 0.41036 0.40903 0.0
C18 C 0.83334 0.34523 0.39897 0.0
O19 O 0.84668 0.41166 0.37602 0.0
O20 O 0.82337 0.37907 0.36938 0.0
O21 O 0.85176 0.35929 0.38865 0.0
O22 O 0.82345 0.35236 0.41695 0.0
C23 C 0.83809 0.39406 0.47968 0.0
O24 O 0.88224 0.4007 0.4374 0.0
O25 O 0.88009 0.40735 0.38217 0.0
In26 In 0.46646 0.84739 0.75223 0.0
O27 O 0.43884 0.83057 0.79225 0.0
O28 O 0.47067 0.84612 0.81276 0.0
C29 C 0.44871 0.83854 0.68585 0.0
C30 C 0.47634 0.88841 0.75802 0.0
C31 C 0.48898 0.82736 0.74298 0.0
O32 O 0.43828 0.82828 0.71355 0.0
O33 O 0.46762 0.85305 0.69206 0.0
O34 O 0.4978 0.84751 0.74157 0.0
O35 O 0.46928 0.81778 0.75003 0.0
C36 C 0.45094 0.83557 0.81967 0.0
O37 O 0.49064 0.88318 0.75763 0.0
O38 O 0.45746 0.87302 0.75564 0.0
In39 In 0.62024 0.47177 0.08836 0.0
O40 O 0.61023 0.44405 0.12807 0.0
O41 O 0.62126 0.4753 0.14932 0.0
C42 C 0.61487 0.45431 0.02189 0.0
C43 C 0.58925 0.48207 0.0886 0.0
C44 C 0.66308 0.49482 0.08535 0.0
O45 O 0.60915 0.44286 0.05019 0.0
O46 O 0.62304 0.47405 0.02752 0.0
O47 O 0.65154 0.5027 0.07672 0.0
O48 O 0.65302 0.47579 0.09655 0.0
C49 C 0.61412 0.45573 0.15586 0.0
O50 O 0.60871 0.49607 0.09246 0.0
O51 O 0.58573 0.46328 0.0845 0.0
In52 In 0.1496 0.61568 0.41333 0.0
O53 O 0.16629 0.60514 0.45405 0.0
O54 O 0.14899 0.61972 0.47413 0.0
C55 C 0.15953 0.60756 0.34715 0.0
C56 C 0.10845 0.58452 0.41614 0.0
C57 C 0.17052 0.65844 0.40598 0.0
O58 O 0.16868 0.60618 0.37544 0.0
O59 O 0.14549 0.61269 0.35265 0.0
O60 O 0.15034 0.64755 0.4045 0.0
O61 O 0.17962 0.64778 0.41225 0.0
C62 C 0.16012 0.61121 0.48137 0.0
O63 O 0.11371 0.60406 0.41497 0.0
O64 O 0.12388 0.58103 0.41606 0.0
In65 In 0.53115 0.14648 0.74829 0.0
O66 O 0.55906 0.16253 0.78783 0.0
O67 O 0.52746 0.14991 0.80847 0.0
C68 C 0.54952 0.155 0.68237 0.0
C69 C 0.52004 0.10522 0.75642 0.0
C70 C 0.50897 0.16677 0.73768 0.0
O71 O 0.55946 0.16575 0.71 0.0
O72 O 0.53076 0.14013 0.68838 0.0
O73 O 0.50009 0.14663 0.73577 0.0
O74 O 0.52853 0.17619 0.74575 0.0
C75 C 0.54723 0.15931 0.81513 0.0
O76 O 0.50617 0.111 0.75517 0.0
O77 O 0.5391 0.12018 0.75372 0.0
In78 In 0.4665 0.61588 0.58462 0.0
O79 O 0.43904 0.60493 0.54409 0.0
O80 O 0.4709 0.61986 0.52385 0.0
C81 C 0.44841 0.60829 0.65077 0.0
C82 C 0.47679 0.58494 0.58184 0.0
C83 C 0.48922 0.65863 0.59178 0.0
O84 O 0.43798 0.60705 0.62242 0.0
O85 O 0.46748 0.61301 0.64534 0.0
O86 O 0.49787 0.64721 0.59461 0.0
O87 O 0.46957 0.64849 0.58431 0.0
C88 C 0.45123 0.61111 0.5167 0.0
O89 O 0.49089 0.60454 0.5811 0.0
O90 O 0.45783 0.58122 0.58387 0.0
In91 In 0.85271 0.46668 0.91967 0.0
O92 O 0.83611 0.43929 0.87892 0.0
O93 O 0.85232 0.4713 0.85907 0.0
C94 C 0.84234 0.44939 0.98655 0.0
C95 C 0.8937 0.4764 0.91523 0.0
C96 C 0.8333 0.48984 0.92776 0.0
O97 O 0.83295 0.43857 0.95857 0.0
O98 O 0.85685 0.46828 0.98027 0.0
O99 O 0.85318 0.49792 0.93267 0.0
O100 O 0.82371 0.47062 0.91753 0.0
C101 C 0.84161 0.45163 0.8517 0.0
O102 O 0.88844 0.49066 0.91394 0.0
O103 O 0.87833 0.45757 0.9187 0.0
In104 In 0.3846 0.85183 0.25257 0.0
O105 O 0.39504 0.83463 0.21273 0.0
O106 O 0.38051 0.85179 0.19176 0.0
C107 C 0.39298 0.84221 0.31874 0.0
C108 C 0.4156 0.89302 0.24806 0.0
C109 C 0.34191 0.83121 0.26079 0.0
O110 O 0.39394 0.83271 0.29058 0.0
O111 O 0.38814 0.85646 0.31312 0.0
O112 O 0.353 0.85135 0.26314 0.0
O113 O 0.35232 0.82202 0.25322 0.0
C114 C 0.38895 0.84052 0.1851 0.0
O115 O 0.39601 0.88758 0.24751 0.0
O116 O 0.41924 0.87775 0.25086 0.0
In117 In 0.53383 0.38283 0.58875 0.0
O118 O 0.56159 0.39411 0.54865 0.0
O119 O 0.52981 0.37866 0.52797 0.0
C120 C 0.5508 0.39082 0.65582 0.0
C121 C 0.52252 0.41304 0.58521 0.0
C122 C 0.51262 0.34006 0.59487 0.0
O123 O 0.56225 0.39433 0.62785 0.0
O124 O 0.53123 0.38352 0.64958 0.0
O125 O 0.50306 0.35069 0.59629 0.0
O126 O 0.53249 0.35101 0.5895 0.0
C127 C 0.54953 0.38769 0.52109 0.0
O128 O 0.50874 0.39333 0.58487 0.0
O129 O 0.54161 0.41719 0.58733 0.0
In130 In 0.15215 0.53226 0.91506 0.0
O131 O 0.11657 0.50744 0.91056 0.0
O132 O 0.12587 0.54042 0.91253 0.0
C133 C 0.17235 0.50978 0.92289 0.0
C134 C 0.16323 0.54808 0.84753 0.0
C135 C 0.16149 0.54999 0.98157 0.0
O136 O 0.15223 0.50094 0.9247 0.0
O137 O 0.18186 0.52952 0.91615 0.0
O138 O 0.17138 0.56049 0.95369 0.0
O139 O 0.14706 0.53103 0.9755 0.0
C140 C 0.11082 0.52135 0.9104 0.0
O141 O 0.16847 0.56008 0.87512 0.0
O142 O 0.15285 0.52833 0.85432 0.0
In143 In 0.61806 0.15197 0.24663 0.0
O144 O 0.60805 0.11646 0.24171 0.0
O145 O 0.58397 0.1252 0.24307 0.0
C146 C 0.66076 0.17483 0.25346 0.0
C147 C 0.61258 0.16406 0.18052 0.0
C148 C 0.60945 0.15951 0.31412 0.0
O149 O 0.65101 0.15461 0.25194 0.0
O150 O 0.64899 0.18301 0.25064 0.0
O151 O 0.60766 0.16915 0.28689 0.0
O152 O 0.61531 0.14616 0.30698 0.0
C153 C 0.5883 0.11038 0.2411 0.0
O154 O 0.60495 0.16762 0.20879 0.0
O155 O 0.62314 0.15471 0.18584 0.0
H156 H 0.40908 0.58931 0.1732 0.0
H157 H 0.41813 0.60188 0.23602 0.0
H158 H 0.38259 0.5369 0.27416 0.0
H159 H 0.37365 0.52423 0.21172 0.0
H160 H 0.39176 0.59508 0.3003 0.0
H161 H 0.44441 0.55989 0.31189 0.0
H162 H 0.43502 0.56381 0.26882 0.0
H163 H 0.41765 0.54165 0.29719 0.0
C164 C 0.40301 0.57775 0.19503 0.0
C165 C 0.39084 0.55578 0.18755 0.0
C166 C 0.40816 0.58494 0.23084 0.0
C167 C 0.40127 0.57027 0.25959 0.0
C168 C 0.38832 0.54844 0.25227 0.0
H169 H 0.4097 0.59015 0.49326 0.0
H170 H 0.39706 0.58167 0.43044 0.0
C171 C 0.38319 0.54124 0.21658 0.0
C172 C 0.40856 0.57758 0.29709 0.0
H173 H 0.43832 0.57397 0.36551 0.0
C174 C 0.40197 0.59054 0.31462 0.0
C175 C 0.42208 0.5718 0.31544 0.0
C176 C 0.43039 0.55868 0.29736 0.0
C177 C 0.40831 0.59757 0.35041 0.0
C178 C 0.42139 0.59132 0.36902 0.0
C179 C 0.42818 0.57862 0.35123 0.0
C180 C 0.42867 0.59801 0.40678 0.0
C181 C 0.40125 0.61188 0.36782 0.0
C182 C 0.45058 0.60993 0.41426 0.0
C183 C 0.45782 0.61467 0.44997 0.0
C184 C 0.44326 0.60748 0.47897 0.0
C185 C 0.42128 0.59596 0.47145 0.0
C186 C 0.41403 0.59121 0.4356 0.0
H187 H 0.39553 0.61917 0.34742 0.0
H188 H 0.38795 0.60234 0.38686 0.0
H189 H 0.4145 0.62483 0.38353 0.0
H190 H 0.46213 0.61525 0.39241 0.0
H191 H 0.47485 0.62359 0.45486 0.0
H192 H 0.82953 0.36839 0.53847 0.0
H193 H 0.82541 0.37616 0.6014 0.0
H194 H 0.83381 0.4372 0.56896 0.0
H195 H 0.83729 0.42918 0.50558 0.0
H196 H 0.85487 0.40739 0.64166 0.0
H197 H 0.78349 0.41677 0.63605 0.0
H198 H 0.79078 0.4052 0.59931 0.0
H199 H 0.80385 0.43373 0.60456 0.0
C200 C 0.83016 0.38333 0.54464 0.0
C201 C 0.83372 0.39818 0.5171 0.0
C202 C 0.82781 0.38776 0.58065 0.0
C203 C 0.82906 0.40716 0.58998 0.0
C204 C 0.83225 0.42189 0.5624 0.0
H205 H 0.84816 0.4753 0.79066 0.0
H206 H 0.84328 0.46321 0.72764 0.0
C207 C 0.83437 0.41736 0.5262 0.0
C208 C 0.82874 0.41253 0.62881 0.0
H209 H 0.80438 0.42874 0.69028 0.0
C210 C 0.84366 0.41182 0.65232 0.0
C211 C 0.81414 0.41836 0.64277 0.0
C212 C 0.79702 0.41837 0.61944 0.0
C213 C 0.84468 0.4172 0.6891 0.0
C214 C 0.83033 0.42334 0.70286 0.0
C215 C 0.81532 0.42397 0.67956 0.0
C216 C 0.83141 0.43006 0.7411 0.0
C217 C 0.86148 0.41684 0.71284 0.0
C218 C 0.82591 0.41531 0.76953 0.0
C219 C 0.82859 0.42215 0.80566 0.0
C220 C 0.83692 0.44387 0.81383 0.0
C221 C 0.8418 0.45847 0.78524 0.0
C222 C 0.83897 0.4516 0.74922 0.0
H223 H 0.87352 0.4151 0.6968 0.0
H224 H 0.86981 0.4317 0.72917 0.0
H225 H 0.85372 0.40318 0.73193 0.0
H226 H 0.8199 0.39857 0.76374 0.0
H227 H 0.82468 0.41054 0.82711 0.0
H228 H 0.40969 0.81889 0.84293 0.0
H229 H 0.39737 0.81569 0.90582 0.0
H230 H 0.46155 0.83858 0.94392 0.0
H231 H 0.47402 0.8421 0.88137 0.0
H232 H 0.40086 0.79378 0.96921 0.0
H233 H 0.44526 0.88215 0.98309 0.0
H234 H 0.44023 0.86896 0.93969 0.0
H235 H 0.4611 0.87078 0.96849 0.0
C236 C 0.42111 0.82297 0.86475 0.0
C237 C 0.44285 0.83099 0.85727 0.0
C238 C 0.41405 0.8211 0.9006 0.0
C239 C 0.42863 0.82723 0.92939 0.0
C240 C 0.45012 0.83411 0.92202 0.0
H241 H 0.40741 0.81734 0.16287 0.0
H242 H 0.41556 0.81208 0.10042 0.0
C243 C 0.4572 0.83607 0.88628 0.0
C244 C 0.42174 0.82784 0.96693 0.0
H245 H 0.42891 0.86219 0.03599 0.0
C246 C 0.40695 0.8087 0.98389 0.0
C247 C 0.42956 0.84739 0.98574 0.0
C248 C 0.44477 0.86853 0.96831 0.0
C249 C 0.4 0.8086 0.01953 0.0
C250 C 0.40818 0.82812 0.03851 0.0
C251 C 0.42278 0.84724 0.02137 0.0
C252 C 0.40151 0.82935 0.07593 0.0
C253 C 0.38373 0.78775 0.03643 0.0
C254 C 0.39095 0.84079 0.08274 0.0
C255 C 0.38634 0.84385 0.11821 0.0
C256 C 0.39237 0.83566 0.14761 0.0
C257 C 0.40253 0.82379 0.14074 0.0
C258 C 0.4071 0.82067 0.10512 0.0
H259 H 0.37594 0.77484 0.01595 0.0
H260 H 0.39174 0.78279 0.0567 0.0
H261 H 0.37125 0.7896 0.05075 0.0
H262 H 0.38661 0.84769 0.06055 0.0
H263 H 0.37849 0.85307 0.12261 0.0
H264 H 0.59625 0.41404 0.17787 0.0
H265 H 0.58667 0.40026 0.24001 0.0
H266 H 0.6128 0.46452 0.2802 0.0
H267 H 0.62224 0.47836 0.21849 0.0
H268 H 0.61225 0.41001 0.30604 0.0
H269 H 0.5496 0.43281 0.31401 0.0
H270 H 0.56128 0.43136 0.27161 0.0
H271 H 0.57547 0.45409 0.30083 0.0
C272 C 0.60009 0.42521 0.20001 0.0
C273 C 0.60981 0.44726 0.19329 0.0
C274 C 0.59465 0.41733 0.23544 0.0
C275 C 0.59878 0.43137 0.26455 0.0
C276 C 0.60921 0.45341 0.25801 0.0
H277 H 0.59092 0.41166 0.49782 0.0
H278 H 0.60338 0.42063 0.435 0.0
C279 C 0.61462 0.46128 0.22273 0.0
C280 C 0.59137 0.42309 0.30161 0.0
H281 H 0.55803 0.42136 0.36855 0.0
C282 C 0.60032 0.41237 0.31974 0.0
C283 C 0.57564 0.42599 0.31915 0.0
C284 C 0.56476 0.43651 0.30037 0.0
C285 C 0.59424 0.40487 0.3554 0.0
C286 C 0.57901 0.40841 0.37334 0.0
C287 C 0.56981 0.41878 0.35486 0.0
C288 C 0.57207 0.40141 0.41118 0.0
C289 C 0.60396 0.393 0.37338 0.0
C290 C 0.55036 0.38772 0.41865 0.0
C291 C 0.54321 0.38277 0.45439 0.0
C292 C 0.55763 0.39144 0.48344 0.0
C293 C 0.57947 0.40465 0.47597 0.0
C294 C 0.58662 0.40969 0.44009 0.0
H295 H 0.6109 0.38679 0.3532 0.0
H296 H 0.61695 0.40404 0.39177 0.0
H297 H 0.5919 0.37944 0.38979 0.0
H298 H 0.53885 0.3812 0.39678 0.0
H299 H 0.52629 0.37251 0.45924 0.0
H300 H 0.18188 0.59147 0.50466 0.0
H301 H 0.18603 0.58279 0.56738 0.0
H302 H 0.15233 0.61405 0.60576 0.0
H303 H 0.148 0.62267 0.54339 0.0
H304 H 0.20409 0.60995 0.63203 0.0
H305 H 0.11738 0.55123 0.64282 0.0
H306 H 0.13055 0.56139 0.59985 0.0
H307 H 0.12383 0.57745 0.62796 0.0
C308 C 0.17554 0.59666 0.52651 0.0
C309 C 0.16444 0.60757 0.51911 0.0
C310 C 0.17797 0.59173 0.56226 0.0
C311 C 0.16926 0.59756 0.59106 0.0
C312 C 0.15893 0.60919 0.58383 0.0
H313 H 0.18132 0.58962 0.8247 0.0
H314 H 0.18484 0.60235 0.76204 0.0
C315 C 0.15651 0.61412 0.54818 0.0
C316 C 0.1699 0.59054 0.62849 0.0
H317 H 0.13779 0.55862 0.69641 0.0
C318 C 0.18964 0.59871 0.64618 0.0
C319 C 0.15102 0.57569 0.64661 0.0
C320 C 0.12948 0.56575 0.62834 0.0
C321 C 0.19093 0.59262 0.68189 0.0
C322 C 0.17196 0.57815 0.70026 0.0
C323 C 0.1523 0.56981 0.68232 0.0
C324 C 0.17197 0.57101 0.73793 0.0
C325 C 0.21253 0.60144 0.69947 0.0
C326 C 0.16356 0.54921 0.74512 0.0
C327 C 0.16141 0.54192 0.78075 0.0
C328 C 0.16755 0.55628 0.80995 0.0
C329 C 0.17654 0.5782 0.80273 0.0
C330 C 0.17867 0.5855 0.76696 0.0
H331 H 0.22562 0.60822 0.67916 0.0
H332 H 0.21507 0.61436 0.71855 0.0
H333 H 0.21352 0.58886 0.71515 0.0
H334 H 0.15824 0.53776 0.72311 0.0
H335 H 0.15444 0.52493 0.78541 0.0
H336 H 0.63199 0.16341 0.11769 0.0
H337 H 0.6226 0.1681 0.05595 0.0
H338 H 0.57399 0.18002 0.09817 0.0
H339 H 0.58346 0.17562 0.1602 0.0
H340 H 0.56249 0.14374 0.0426 0.0
H341 H 0.62857 0.22396 0.00218 0.0
H342 H 0.63537 0.20664 0.0267 0.0
H343 H 0.62043 0.217 0.04889 0.0
C344 C 0.61954 0.16738 0.11387 0.0
C345 C 0.60841 0.1691 0.14371 0.0
C346 C 0.61427 0.17013 0.07864 0.0
C347 C 0.59774 0.17454 0.07269 0.0
C348 C 0.58693 0.1768 0.10239 0.0
H349 H 0.52633 0.16137 0.87493 0.0
H350 H 0.53885 0.16721 0.93769 0.0
C351 C 0.59235 0.17429 0.13772 0.0
C352 C 0.5904 0.1746 0.03538 0.0
H353 H 0.60438 0.20278 0.95621 0.0
C354 C 0.57148 0.15671 0.02372 0.0
C355 C 0.60242 0.19143 0.01095 0.0
C356 C 0.6228 0.21097 0.02263 0.0
C357 C 0.56445 0.15493 0.9878 0.0
C358 C 0.57634 0.17187 0.96324 0.0
C359 C 0.59522 0.18988 0.9751 0.0
C360 C 0.56968 0.17081 0.92492 0.0
C361 C 0.54481 0.13452 0.97625 0.0
C362 C 0.58331 0.17212 0.8967 0.0
C363 C 0.57634 0.16922 0.86069 0.0
C364 C 0.55558 0.16482 0.85244 0.0
C365 C 0.54232 0.16446 0.88057 0.0
C366 C 0.5494 0.16766 0.91645 0.0
H367 H 0.54129 0.12113 0.99499 0.0
H368 H 0.53084 0.13695 0.97647 0.0
H369 H 0.54667 0.12981 0.94843 0.0
H370 H 0.59909 0.17469 0.90262 0.0
H371 H 0.5869 0.16963 0.8395 0.0
H372 H 0.31217 0.52304 0.08613 0.0
H373 H 0.27636 0.50825 0.06173 0.0
H374 H 0.28027 0.45531 0.0165 0.0
H375 H 0.31665 0.4704 0.04063 0.0
H376 H 0.26932 0.47449 0.96614 0.0
H377 H 0.21763 0.46035 0.0842 0.0
H378 H 0.24048 0.48653 0.0878 0.0
H379 H 0.24393 0.46349 0.08854 0.0
C380 C 0.30526 0.50796 0.07179 0.0
C381 C 0.31724 0.49792 0.06517 0.0
C382 C 0.28463 0.49938 0.05812 0.0
C383 C 0.27541 0.48046 0.03775 0.0
C384 C 0.28698 0.46981 0.03247 0.0
H385 H 0.15727 0.47009 0.95316 0.0
H386 H 0.17873 0.45497 0.97636 0.0
C387 C 0.30772 0.47841 0.04631 0.0
C388 C 0.25522 0.47398 0.01794 0.0
H389 H 0.20786 0.47277 0.02883 0.0
C390 C 0.25556 0.47341 0.9799 0.0
C391 C 0.23696 0.47196 0.03565 0.0
C392 C 0.23466 0.47037 0.07633 0.0
C393 C 0.23927 0.47338 0.95923 0.0
C394 C 0.22252 0.47444 0.9771 0.0
C395 C 0.22092 0.47245 0.01501 0.0
C396 C 0.20889 0.48126 0.95796 0.0
C397 C 0.24075 0.47333 0.91846 0.0
C398 C 0.21865 0.50088 0.93957 0.0
C399 C 0.20651 0.50947 0.92642 0.0
C400 C 0.18432 0.49875 0.93162 0.0
C401 C 0.17434 0.47865 0.9486 0.0
C402 C 0.18658 0.47002 0.9619 0.0
H403 H 0.24822 0.4639 0.90954 0.0
H404 H 0.22482 0.46664 0.90553 0.0
H405 H 0.25105 0.48994 0.90873 0.0
H406 H 0.23585 0.51018 0.93706 0.0
H407 H 0.21467 0.52502 0.91355 0.0
H408 H 0.84837 0.3261 0.35219 0.0
H409 H 0.82742 0.29074 0.32404 0.0
H410 H 0.77291 0.27908 0.38864 0.0
H411 H 0.7938 0.31366 0.41757 0.0
H412 H 0.77435 0.24303 0.3796 0.0
H413 H 0.78535 0.2838 0.24648 0.0
H414 H 0.80893 0.28706 0.2685 0.0
H415 H 0.79428 0.29855 0.28828 0.0
C416 C 0.83208 0.31572 0.36094 0.0
C417 C 0.82262 0.32276 0.38669 0.0
C418 C 0.82007 0.29561 0.34462 0.0
C419 C 0.79841 0.28246 0.35352 0.0
C420 C 0.78955 0.28893 0.38115 0.0
H421 H 0.68339 0.21794 0.25691 0.0
H422 H 0.72005 0.24046 0.27639 0.0
C423 C 0.80151 0.3088 0.39761 0.0
C424 C 0.78398 0.26306 0.33224 0.0
H425 H 0.75835 0.24837 0.25064 0.0
C426 C 0.77113 0.24396 0.35114 0.0
C427 C 0.77986 0.26434 0.29505 0.0
C428 C 0.79269 0.28452 0.27329 0.0
C429 C 0.75305 0.22691 0.33497 0.0
C430 C 0.74809 0.22881 0.29852 0.0
C431 C 0.76218 0.24702 0.2786 0.0
C432 C 0.72657 0.21453 0.2831 0.0
C433 C 0.73841 0.20789 0.358 0.0
C434 C 0.71805 0.19237 0.27949 0.0
C435 C 0.69676 0.17927 0.26859 0.0
C436 C 0.68385 0.18823 0.26089 0.0
C437 C 0.69284 0.21049 0.26281 0.0
C438 C 0.71389 0.22344 0.27383 0.0
H439 H 0.74318 0.21026 0.38701 0.0
H440 H 0.72173 0.20462 0.35602 0.0
H441 H 0.73875 0.19358 0.3481 0.0
H442 H 0.72767 0.18519 0.28582 0.0
H443 H 0.69027 0.16217 0.26715 0.0
H444 H 0.47407 0.78514 0.7529 0.0
H445 H 0.48859 0.76386 0.72857 0.0
H446 H 0.54294 0.82078 0.68658 0.0
H447 H 0.52814 0.84235 0.71067 0.0
H448 H 0.5242 0.79097 0.63498 0.0
H449 H 0.53564 0.75219 0.75413 0.0
H450 H 0.50958 0.74925 0.75617 0.0
H451 H 0.53284 0.77557 0.75805 0.0
C452 C 0.48937 0.79325 0.73924 0.0
C453 C 0.49994 0.81541 0.73361 0.0
C454 C 0.49779 0.78105 0.72561 0.0
C455 C 0.51707 0.79072 0.70626 0.0
C456 C 0.52816 0.81301 0.70179 0.0
H457 H 0.52836 0.68305 0.62395 0.0
H458 H 0.54314 0.71957 0.64729 0.0
C459 C 0.51972 0.82531 0.71561 0.0
C460 C 0.52366 0.77697 0.68687 0.0
H461 H 0.52435 0.73056 0.69822 0.0
C462 C 0.52492 0.77814 0.64887 0.0
C463 C 0.52521 0.76052 0.70482 0.0
C464 C 0.52599 0.75949 0.74559 0.0
C465 C 0.52524 0.76196 0.62835 0.0
C466 C 0.52378 0.74399 0.6463 0.0
C467 C 0.52501 0.74409 0.6843 0.0
C468 C 0.51735 0.72366 0.62694 0.0
C469 C 0.52609 0.76381 0.58759 0.0
C470 C 0.49815 0.71395 0.60733 0.0
C471 C 0.48975 0.69325 0.59408 0.0
C472 C 0.50025 0.68166 0.60039 0.0
C473 C 0.51999 0.69166 0.61852 0.0
C474 C 0.52841 0.71249 0.63191 0.0
H475 H 0.53575 0.78078 0.57911 0.0
H476 H 0.53295 0.7546 0.57514 0.0
H477 H 0.50969 0.75764 0.57693 0.0
H478 H 0.48896 0.72192 0.60399 0.0
H479 H 0.47448 0.68597 0.58031 0.0
H480 H 0.69306 0.49022 0.12179 0.0
H481 H 0.72868 0.49995 0.10002 0.0
H482 H 0.71953 0.53056 0.00679 0.0
H483 H 0.68441 0.5219 0.02972 0.0
H484 H 0.732 0.4825 0.04215 0.0
H485 H 0.78177 0.56955 0.02187 0.0
H486 H 0.75782 0.55792 0.04909 0.0
H487 H 0.75626 0.55938 0.0005 0.0
C488 C 0.69907 0.49981 0.09745 0.0
C489 C 0.68607 0.50531 0.07737 0.0
C490 C 0.71939 0.50532 0.08495 0.0
C491 C 0.72689 0.516 0.05169 0.0
C492 C 0.71444 0.52279 0.0329 0.0
H493 H 0.79456 0.48136 0.90307 0.0
H494 H 0.7707 0.49181 0.93163 0.0
C495 C 0.69428 0.51773 0.04593 0.0
C496 C 0.74549 0.51635 0.03382 0.0
H497 H 0.79142 0.54744 0.98619 0.0
C498 C 0.74514 0.49684 0.03052 0.0
C499 C 0.76273 0.535 0.01856 0.0
C500 C 0.76479 0.55667 0.02302 0.0
C501 C 0.76108 0.49529 0.01173 0.0
C502 C 0.77756 0.51361 0.99456 0.0
C503 C 0.77849 0.53334 0.99879 0.0
C504 C 0.79363 0.51204 0.97198 0.0
C505 C 0.76005 0.47392 0.01034 0.0
C506 C 0.81488 0.52119 0.98364 0.0
C507 C 0.82871 0.5155 0.96689 0.0
C508 C 0.82129 0.50045 0.93862 0.0
C509 C 0.80061 0.49286 0.92501 0.0
C510 C 0.78697 0.49877 0.94133 0.0
H511 H 0.75004 0.4632 0.03254 0.0
H512 H 0.75288 0.46598 0.98419 0.0
H513 H 0.77624 0.47585 0.01231 0.0
H514 H 0.82031 0.5315 0.00721 0.0
H515 H 0.84457 0.52152 0.97796 0.0
H516 H 0.15625 0.68457 0.37896 0.0
H517 H 0.17844 0.7212 0.3561 0.0
H518 H 0.23507 0.7202 0.38942 0.0
H519 H 0.21322 0.68422 0.41286 0.0
H520 H 0.23829 0.7591 0.40164 0.0
H521 H 0.21047 0.73074 0.26086 0.0
H522 H 0.19073 0.72728 0.29387 0.0
H523 H 0.20436 0.71238 0.29801 0.0
C524 C 0.17341 0.6924 0.38202 0.0
C525 C 0.18302 0.68145 0.39731 0.0
C526 C 0.18607 0.71324 0.36873 0.0
C527 C 0.20844 0.72329 0.37043 0.0
C528 C 0.21786 0.71278 0.38771 0.0
H529 H 0.31561 0.78873 0.25175 0.0
H530 H 0.27992 0.76674 0.2762 0.0
C531 C 0.20532 0.69213 0.401 0.0
C532 C 0.22256 0.74386 0.35189 0.0
H533 H 0.24103 0.76409 0.26751 0.0
C534 C 0.23863 0.76052 0.37234 0.0
C535 C 0.22291 0.7456 0.31364 0.0
C536 C 0.20631 0.72807 0.29012 0.0
C537 C 0.25609 0.77792 0.35554 0.0
C538 C 0.25718 0.77891 0.31721 0.0
C539 C 0.24011 0.76327 0.29687 0.0
C540 C 0.27748 0.79321 0.29808 0.0
C541 C 0.27409 0.79401 0.37893 0.0
C542 C 0.28777 0.81556 0.30105 0.0
C543 C 0.30844 0.82829 0.28716 0.0
C544 C 0.31897 0.81878 0.27001 0.0
C545 C 0.30801 0.79655 0.26505 0.0
C546 C 0.28753 0.78393 0.27892 0.0
H547 H 0.27188 0.78935 0.408 0.0
H548 H 0.28957 0.79596 0.36971 0.0
H549 H 0.27499 0.80973 0.37664 0.0
H550 H 0.28015 0.82309 0.31514 0.0
H551 H 0.3165 0.8454 0.29125 0.0
H552 H 0.52305 0.20846 0.75154 0.0
H553 H 0.50938 0.23046 0.72707 0.0
H554 H 0.45739 0.17509 0.6764 0.0
H555 H 0.47129 0.15279 0.7008 0.0
H556 H 0.47897 0.20718 0.62854 0.0
H557 H 0.46051 0.24049 0.74804 0.0
H558 H 0.48639 0.24329 0.75342 0.0
H559 H 0.46317 0.21698 0.75075 0.0
C560 C 0.50842 0.20082 0.73592 0.0
C561 C 0.49827 0.17892 0.72799 0.0
C562 C 0.50048 0.21341 0.7222 0.0
C563 C 0.48214 0.2044 0.70036 0.0
C564 C 0.47142 0.18232 0.69354 0.0
H565 H 0.47224 0.31366 0.62121 0.0
H566 H 0.45741 0.27655 0.64159 0.0
C567 C 0.47934 0.16961 0.70753 0.0
C568 C 0.47636 0.21879 0.68104 0.0
H569 H 0.47423 0.26427 0.69495 0.0
C570 C 0.47724 0.21928 0.64301 0.0
C571 C 0.47357 0.23431 0.69968 0.0
C572 C 0.47061 0.23356 0.74023 0.0
C573 C 0.4778 0.23621 0.6235 0.0
C574 C 0.47791 0.25322 0.6426 0.0
C575 C 0.47459 0.25147 0.68025 0.0
C576 C 0.48491 0.27423 0.62529 0.0
C577 C 0.47933 0.23621 0.58272 0.0
C578 C 0.50516 0.28515 0.6091 0.0
C579 C 0.51361 0.3062 0.59758 0.0
C580 C 0.50208 0.3169 0.60223 0.0
C581 C 0.48144 0.30576 0.61712 0.0
C582 C 0.47297 0.28459 0.6288 0.0
H583 H 0.47067 0.21965 0.57195 0.0
H584 H 0.47274 0.24558 0.56995 0.0
H585 H 0.49633 0.2433 0.57474 0.0
H586 H 0.51496 0.27777 0.60699 0.0
H587 H 0.52958 0.31436 0.58632 0.0
H588 H 0.45668 0.55161 0.08912 0.0
H589 H 0.48624 0.5444 0.09024 0.0
H590 H 0.44153 0.47673 0.08755 0.0
H591 H 0.41173 0.48382 0.08619 0.0
H592 H 0.49468 0.52009 0.14142 0.0
H593 H 0.4826 0.48684 0.00195 0.0
H594 H 0.47056 0.50206 0.01747 0.0
H595 H 0.45949 0.47466 0.03081 0.0
C596 C 0.4531 0.53517 0.08874 0.0
C597 C 0.43188 0.51826 0.08738 0.0
C598 C 0.47002 0.5311 0.08945 0.0
C599 C 0.46607 0.51006 0.08853 0.0
C600 C 0.4449 0.49309 0.08769 0.0
H601 H 0.54675 0.45378 0.08372 0.0
H602 H 0.51739 0.46122 0.0848 0.0
C603 C 0.42791 0.49716 0.08709 0.0
C604 C 0.48421 0.50602 0.0886 0.0
H605 H 0.50911 0.48559 0.03755 0.0
C606 C 0.49789 0.51258 0.11872 0.0
C607 C 0.48834 0.4963 0.05887 0.0
C608 C 0.47462 0.48969 0.02526 0.0
C609 C 0.51542 0.50928 0.12022 0.0
C610 C 0.51958 0.49957 0.09046 0.0
C611 C 0.5059 0.49307 0.06031 0.0
C612 C 0.53767 0.4954 0.09037 0.0
C613 C 0.529 0.51574 0.154 0.0
C614 C 0.55888 0.5122 0.09285 0.0
C615 C 0.57577 0.50798 0.09238 0.0
C616 C 0.57169 0.48691 0.08911 0.0
C617 C 0.55044 0.47019 0.0863 0.0
C618 C 0.53362 0.4744 0.08688 0.0
H619 H 0.52066 0.51792 0.17747 0.0
H620 H 0.53353 0.50363 0.16125 0.0
H621 H 0.54386 0.53113 0.14905 0.0
H622 H 0.56237 0.52858 0.09482 0.0
H623 H 0.59199 0.52119 0.0944 0.0
H624 H 0.92092 0.42052 0.46398 0.0
H625 H 0.95805 0.44971 0.46504 0.0
H626 H 0.95208 0.46553 0.35453 0.0
H627 H 0.91518 0.43613 0.353 0.0
H628 H 0.99004 0.46752 0.36644 0.0
H629 H 0.9749 0.51219 0.47344 0.0
H630 H 0.96793 0.4856 0.48664 0.0
H631 H 0.95364 0.48953 0.45036 0.0
C632 C 0.92762 0.43006 0.43977 0.0
C633 C 0.91511 0.4261 0.40847 0.0
C634 C 0.94876 0.44686 0.44054 0.0
C635 C 0.95766 0.46013 0.41016 0.0
C636 C 0.94548 0.45561 0.37838 0.0
H637 H 0.07185 0.58666 0.40823 0.0
H638 H 0.03502 0.55664 0.40604 0.0
C639 C 0.9244 0.43876 0.37753 0.0
C640 C 0.97956 0.47889 0.41147 0.0
H641 H 0.01109 0.52564 0.45649 0.0
C642 C 0.99463 0.48025 0.38608 0.0
C643 C 0.98541 0.49571 0.43665 0.0
C644 C 0.96958 0.49586 0.46309 0.0
C645 C 0.01551 0.49774 0.38562 0.0
C646 C 0.02162 0.5141 0.41179 0.0
C647 C 0.00644 0.51297 0.43671 0.0
C648 C 0.04377 0.53235 0.41399 0.0
C649 C 0.03071 0.49867 0.3567 0.0
C650 C 0.0608 0.52868 0.42001 0.0
C651 C 0.08174 0.54571 0.42106 0.0
C652 C 0.08608 0.56681 0.41658 0.0
C653 C 0.06898 0.57057 0.41167 0.0
C654 C 0.04797 0.55345 0.41041 0.0
H655 H 0.02203 0.4886 0.33295 0.0
H656 H 0.04127 0.5153 0.34725 0.0
H657 H 0.04086 0.49258 0.36802 0.0
H658 H 0.05791 0.5126 0.4238 0.0
H659 H 0.09454 0.54229 0.42527 0.0
H660 H 0.48042 0.06922 0.75859 0.0
H661 H 0.47234 0.03199 0.76238 0.0
H662 H 0.53967 0.05343 0.7651 0.0
H663 H 0.54783 0.09043 0.76171 0.0
H664 H 0.4853 0.01086 0.71311 0.0
H665 H 0.5165 0.01218 0.85103 0.0
H666 H 0.51095 0.03251 0.83513 0.0
H667 H 0.53518 0.03314 0.82199 0.0
C668 C 0.49346 0.06596 0.76035 0.0
C669 C 0.51474 0.08273 0.75997 0.0
C670 C 0.48884 0.04473 0.76247 0.0
C671 C 0.50542 0.03999 0.76459 0.0
C672 C 0.52664 0.05674 0.76429 0.0
H673 H 0.51541 0.92507 0.76102 0.0
H674 H 0.52244 0.962 0.76266 0.0
C675 C 0.53126 0.07788 0.76211 0.0
C676 C 0.50071 0.01756 0.76523 0.0
H677 H 0.50865 0.98205 0.81421 0.0
C678 C 0.49022 0.00448 0.73534 0.0
C679 C 0.50732 0.00937 0.79416 0.0
C680 C 0.51794 0.02245 0.82756 0.0
C681 C 0.48655 0.98354 0.73324 0.0
C682 C 0.49324 0.97537 0.7621 0.0
C683 C 0.50364 0.98841 0.79207 0.0
C684 C 0.4891 0.95314 0.76197 0.0
C685 C 0.47601 0.9705 0.69974 0.0
C686 C 0.46808 0.93601 0.76175 0.0
C687 C 0.46405 0.91503 0.76078 0.0
C688 C 0.48098 0.91074 0.76026 0.0
C689 C 0.50206 0.9279 0.76129 0.0
C690 C 0.50609 0.94896 0.76225 0.0
H691 H 0.47698 0.98074 0.67652 0.0
H692 H 0.48345 0.96092 0.69166 0.0
H693 H 0.45889 0.95935 0.70552 0.0
H694 H 0.45475 0.93887 0.76228 0.0
H695 H 0.44762 0.90216 0.76027 0.0
H696 H 0.44865 0.54222 0.58216 0.0
H697 H 0.45654 0.51311 0.58203 0.0
H698 H 0.52394 0.55879 0.57878 0.0
H699 H 0.51616 0.58814 0.57928 0.0
H700 H 0.47916 0.50348 0.53052 0.0
H701 H 0.51783 0.52061 0.66602 0.0
H702 H 0.50196 0.53204 0.65105 0.0
H703 H 0.52888 0.54279 0.63513 0.0
C704 C 0.46517 0.54611 0.58146 0.0
C705 C 0.48181 0.56748 0.58093 0.0
C706 C 0.46963 0.52944 0.58133 0.0
C707 C 0.4908 0.53379 0.58087 0.0
C708 C 0.50748 0.55511 0.57978 0.0
H709 H 0.55009 0.45581 0.58358 0.0
H710 H 0.54166 0.48449 0.58139 0.0
C711 C 0.50303 0.57184 0.57989 0.0
C712 C 0.49529 0.51593 0.58133 0.0
H713 H 0.51876 0.49356 0.63132 0.0
C714 C 0.48777 0.50124 0.55258 0.0
C715 C 0.50645 0.51306 0.61023 0.0
C716 C 0.51411 0.52782 0.64255 0.0
C717 C 0.49149 0.48397 0.55157 0.0
C718 C 0.5027 0.48113 0.58043 0.0
C719 C 0.51015 0.49578 0.60924 0.0
C720 C 0.50744 0.46342 0.5809 0.0
C721 C 0.48387 0.46923 0.51921 0.0
C722 C 0.49097 0.442 0.58155 0.0
C723 C 0.49575 0.42548 0.5827 0.0
C724 C 0.51708 0.43018 0.58348 0.0
C725 C 0.53349 0.45165 0.58297 0.0
C726 C 0.52871 0.46809 0.58175 0.0
H727 H 0.48026 0.47651 0.49571 0.0
H728 H 0.49599 0.46495 0.51082 0.0
H729 H 0.46904 0.45431 0.52654 0.0
H730 H 0.47443 0.43806 0.58161 0.0
H731 H 0.48278 0.4091 0.58326 0.0
H732 H 0.07493 0.4817 0.90956 0.0
H733 H 0.03764 0.47346 0.90771 0.0
H734 H 0.05875 0.54075 0.90563 0.0
H735 H 0.09585 0.54908 0.90719 0.0
H736 H 0.01709 0.48676 0.95862 0.0
H737 H 0.01656 0.51682 0.8204 0.0
H738 H 0.03699 0.51121 0.83553 0.0
H739 H 0.03791 0.53557 0.84878 0.0
C740 C 0.07159 0.4947 0.90843 0.0
C741 C 0.08829 0.51602 0.9084 0.0
C742 C 0.05032 0.48999 0.90741 0.0
C743 C 0.04548 0.50651 0.90599 0.0
C744 C 0.06215 0.52777 0.90597 0.0
H745 H 0.93015 0.51547 0.91035 0.0
H746 H 0.9671 0.52269 0.90844 0.0
C747 C 0.08334 0.53249 0.90708 0.0
C748 C 0.02304 0.50166 0.90613 0.0
H749 H 0.98669 0.50865 0.85793 0.0
C750 C 0.01036 0.49137 0.9365 0.0
C751 C 0.0144 0.50787 0.87733 0.0
C752 C 0.02708 0.51832 0.84349 0.0
C753 C 0.98938 0.4875 0.93921 0.0
C754 C 0.98074 0.49374 0.91043 0.0
C755 C 0.9934 0.50396 0.87999 0.0
C756 C 0.95847 0.48943 0.91118 0.0
C757 C 0.97682 0.47724 0.97325 0.0
C758 C 0.94144 0.46837 0.91271 0.0
C759 C 0.92043 0.46423 0.91389 0.0
C760 C 0.91603 0.48108 0.91325 0.0
C761 C 0.93308 0.50218 0.91101 0.0
C762 C 0.95415 0.50631 0.90989 0.0
H763 H 0.9874 0.47874 0.99624 0.0
H764 H 0.96705 0.48448 0.98129 0.0
H765 H 0.96588 0.45998 0.96819 0.0
H766 H 0.94439 0.4551 0.91291 0.0
H767 H 0.90764 0.44778 0.91532 0.0
H768 H 0.45823 0.90734 0.24869 0.0
H769 H 0.48753 0.94422 0.2463 0.0
H770 H 0.44226 0.96634 0.23957 0.0
H771 H 0.41271 0.92932 0.2424 0.0
H772 H 0.49751 0.97516 0.19268 0.0
H773 H 0.48068 0.00054 0.32485 0.0
H774 H 0.46886 0.97284 0.31198 0.0
H775 H 0.45851 0.98893 0.29398 0.0
C776 C 0.45447 0.92003 0.24677 0.0
C777 C 0.43315 0.91544 0.24595 0.0
C778 C 0.47125 0.9411 0.24534 0.0
C779 C 0.46708 0.95802 0.24323 0.0
C780 C 0.44582 0.95352 0.24186 0.0
H781 H 0.54564 0.09513 0.23661 0.0
H782 H 0.51696 0.05801 0.23566 0.0
C783 C 0.42897 0.93238 0.2433 0.0
C784 C 0.48509 0.98033 0.24232 0.0
H785 H 0.50778 0.02749 0.28867 0.0
C786 C 0.49982 0.98662 0.21369 0.0
C787 C 0.48809 0.99517 0.26987 0.0
C788 C 0.47333 0.98906 0.30211 0.0
C789 C 0.51724 0.00752 0.21146 0.0
C790 C 0.52017 0.02238 0.23894 0.0
C791 C 0.50549 0.01605 0.26764 0.0
C792 C 0.53795 0.04481 0.23799 0.0
C793 C 0.53204 0.01366 0.17929 0.0
C794 C 0.55935 0.04975 0.23961 0.0
C795 C 0.57589 0.07108 0.24005 0.0
C796 C 0.57123 0.08774 0.23914 0.0
C797 C 0.54979 0.08267 0.23734 0.0
C798 C 0.53334 0.06145 0.23684 0.0
H799 H 0.5248 0.00209 0.15663 0.0
H800 H 0.53637 0.02981 0.16929 0.0
H801 H 0.54693 0.01397 0.18757 0.0
H802 H 0.56324 0.03714 0.24118 0.0
H803 H 0.59225 0.07451 0.24165 0.0
H804 H 0.40963 0.60286 0.67237 0.0
H805 H 0.39591 0.59808 0.73472 0.0
H806 H 0.45325 0.60066 0.77431 0.0
H807 H 0.46713 0.60593 0.71284 0.0
H808 H 0.38682 0.56683 0.7824 0.0
H809 H 0.44951 0.64223 0.84157 0.0
H810 H 0.4464 0.63791 0.79321 0.0
H811 H 0.46141 0.62877 0.8192 0.0
C812 C 0.4193 0.60253 0.69449 0.0
C813 C 0.4395 0.6049 0.68779 0.0
C814 C 0.4115 0.59987 0.73004 0.0
C815 C 0.42381 0.59961 0.7593 0.0
C816 C 0.44377 0.60157 0.75239 0.0
H817 H 0.39461 0.53253 0.95426 0.0
H818 H 0.39979 0.54624 0.89268 0.0
C819 C 0.4516 0.60435 0.71712 0.0
C820 C 0.41551 0.59584 0.79697 0.0
H821 H 0.43109 0.61259 0.8839 0.0
C822 C 0.39627 0.57709 0.80454 0.0
C823 C 0.42747 0.60947 0.8259 0.0
C824 C 0.44721 0.63084 0.81947 0.0
C825 C 0.38962 0.57072 0.84037 0.0
C826 C 0.40287 0.58314 0.86933 0.0
C827 C 0.42115 0.6028 0.86174 0.0
C828 C 0.39927 0.57499 0.90708 0.0
C829 C 0.3687 0.55045 0.84678 0.0
C830 C 0.39817 0.58702 0.93607 0.0
C831 C 0.39555 0.57933 0.97169 0.0
C832 C 0.39406 0.55953 0.97874 0.0
C833 C 0.39548 0.54774 0.9497 0.0
C834 C 0.39823 0.55546 0.91436 0.0
H835 H 0.35725 0.54755 0.82446 0.0
H836 H 0.37152 0.53671 0.84745 0.0
H837 H 0.36132 0.55099 0.87285 0.0
H838 H 0.39924 0.60229 0.9311 0.0
H839 H 0.39453 0.58876 0.99358 0.0
H840 H 0.8486 0.43625 0.32288 0.0
H841 H 0.84296 0.44227 0.25966 0.0
H842 H 0.79347 0.37637 0.24992 0.0
H843 H 0.79922 0.37016 0.31306 0.0
H844 H 0.82447 0.38815 0.1984 0.0
H845 H 0.79759 0.44746 0.20324 0.0
H846 H 0.82119 0.4555 0.22975 0.0
H847 H 0.79665 0.43198 0.24235 0.0
C848 C 0.83609 0.4232 0.30762 0.0
C849 C 0.82439 0.40273 0.32295 0.0
C850 C 0.83282 0.42667 0.27147 0.0
C851 C 0.81768 0.4098 0.25008 0.0
C852 C 0.80519 0.38963 0.26593 0.0
H853 H 0.81036 0.41009 0.00992 0.0
H854 H 0.80099 0.39804 0.0731 0.0
C855 C 0.80844 0.38614 0.30207 0.0
C856 C 0.81676 0.41266 0.21038 0.0
H857 H 0.81298 0.44491 0.14684 0.0
C858 C 0.82154 0.40027 0.18701 0.0
C859 C 0.81291 0.42845 0.19558 0.0
C860 C 0.80658 0.44146 0.21903 0.0
C861 C 0.82382 0.40411 0.14949 0.0
C862 C 0.82096 0.42059 0.13494 0.0
C863 C 0.81523 0.43232 0.15809 0.0
C864 C 0.826 0.4274 0.09655 0.0
C865 C 0.83046 0.39135 0.12602 0.0
C866 C 0.84295 0.44789 0.08888 0.0
C867 C 0.84826 0.45475 0.05313 0.0
C868 C 0.83669 0.4413 0.02412 0.0
C869 C 0.81964 0.42074 0.03172 0.0
C870 C 0.81431 0.41384 0.06774 0.0
H871 H 0.83542 0.38166 0.14234 0.0
H872 H 0.81684 0.38034 0.10864 0.0
H873 H 0.84386 0.40207 0.10796 0.0
H874 H 0.8522 0.45859 0.11067 0.0
H875 H 0.86145 0.47071 0.04828 0.0
H876 H 0.46667 0.86274 0.62616 0.0
H877 H 0.45318 0.85589 0.56432 0.0
H878 H 0.39796 0.79725 0.5988 0.0
H879 H 0.41122 0.80439 0.66154 0.0
H880 H 0.44495 0.82283 0.51954 0.0
H881 H 0.37112 0.82676 0.54452 0.0
H882 H 0.39206 0.8353 0.57785 0.0
H883 H 0.374 0.80735 0.57052 0.0
C884 C 0.4516 0.84841 0.62072 0.0
C885 C 0.43994 0.83414 0.64871 0.0
C886 C 0.44394 0.84447 0.58529 0.0
C887 C 0.42451 0.82614 0.57693 0.0
C888 C 0.41283 0.81169 0.60475 0.0
H889 H 0.39673 0.80802 0.34118 0.0
H890 H 0.40202 0.79962 0.40355 0.0
C891 C 0.42043 0.81574 0.6405 0.0
C892 C 0.41682 0.82268 0.53892 0.0
H893 H 0.37878 0.82268 0.48429 0.0
C894 C 0.43033 0.8225 0.51175 0.0
C895 C 0.39776 0.82229 0.52896 0.0
C896 C 0.38292 0.82308 0.55687 0.0
C897 C 0.42597 0.82321 0.47487 0.0
C898 C 0.40725 0.82351 0.46492 0.0
C899 C 0.39311 0.82243 0.49205 0.0
C900 C 0.40335 0.82768 0.42713 0.0
C901 C 0.44211 0.82501 0.44709 0.0
C902 C 0.40189 0.84594 0.41984 0.0
C903 C 0.39863 0.85058 0.38458 0.0
C904 C 0.39685 0.83712 0.35572 0.0
C905 C 0.39826 0.81878 0.3629 0.0
C906 C 0.40133 0.814 0.39845 0.0
H907 H 0.45755 0.8288 0.45972 0.0
H908 H 0.43579 0.8096 0.43252 0.0
H909 H 0.44514 0.83758 0.42684 0.0
H910 H 0.40348 0.85676 0.4415 0.0
H911 H 0.3976 0.86482 0.37993 0.0
H912 H 0.52812 0.38245 0.71822 0.0
H913 H 0.54169 0.39145 0.78003 0.0
H914 H 0.60612 0.41816 0.74047 0.0
H915 H 0.59258 0.40904 0.67801 0.0
H916 H 0.59478 0.39097 0.8073 0.0
H917 H 0.57419 0.4553 0.81364 0.0
H918 H 0.5529 0.42978 0.79897 0.0
H919 H 0.57635 0.44394 0.77137 0.0
C920 C 0.54519 0.39013 0.72256 0.0
C921 C 0.55932 0.39524 0.6932 0.0
C922 C 0.55289 0.39524 0.75793 0.0
C923 C 0.57488 0.40565 0.7647 0.0
C924 C 0.58907 0.41014 0.73568 0.0
H925 H 0.63203 0.47675 0.96022 0.0
H926 H 0.62427 0.46395 0.89791 0.0
C927 C 0.58134 0.405 0.70009 0.0
C928 C 0.58286 0.41278 0.80194 0.0
H929 H 0.58432 0.44607 0.86872 0.0
C930 C 0.59266 0.4031 0.82077 0.0
C931 C 0.58018 0.42871 0.8192 0.0
C932 C 0.5705 0.44021 0.79975 0.0
C933 C 0.59947 0.40871 0.85687 0.0
C934 C 0.59617 0.42421 0.87445 0.0
C935 C 0.58671 0.43409 0.85528 0.0
C936 C 0.60278 0.43099 0.91245 0.0
C937 C 0.61034 0.39824 0.87574 0.0
C938 C 0.59355 0.41662 0.94145 0.0
C939 C 0.59806 0.42392 0.97736 0.0
C940 C 0.61166 0.44572 0.98463 0.0
C941 C 0.62137 0.45988 0.95551 0.0
C942 C 0.61699 0.45259 0.91985 0.0
H943 H 0.61624 0.39072 0.85613 0.0
H944 H 0.62397 0.41001 0.89236 0.0
H945 H 0.59876 0.38559 0.89412 0.0
H946 H 0.58224 0.39995 0.93635 0.0
H947 H 0.5903 0.41269 0.99929 0.0
H948 H 0.19516 0.58811 0.00491 0.0
H949 H 0.2031 0.60136 0.06763 0.0
H950 H 0.14624 0.5449 0.10415 0.0
H951 H 0.13859 0.53146 0.04232 0.0
H952 H 0.18092 0.61125 0.11395 0.0
H953 H 0.18935 0.5461 0.17391 0.0
H954 H 0.1892 0.54973 0.1255 0.0
H955 H 0.16447 0.53534 0.15022 0.0
C956 C 0.18446 0.57854 0.02643 0.0
C957 C 0.16635 0.55869 0.01878 0.0
C958 C 0.18904 0.58607 0.0622 0.0
C959 C 0.17558 0.57384 0.09073 0.0
C960 C 0.15727 0.55428 0.08284 0.0
H961 H 0.13821 0.605 0.28526 0.0
H962 H 0.14653 0.59941 0.22376 0.0
C963 C 0.1528 0.5467 0.04736 0.0
C964 C 0.17966 0.58181 0.12861 0.0
H965 H 0.17892 0.56535 0.2156 0.0
C966 C 0.18094 0.60142 0.13615 0.0
C967 C 0.18029 0.56932 0.15763 0.0
C968 C 0.18101 0.54908 0.15133 0.0
C969 C 0.18109 0.60804 0.17197 0.0
C970 C 0.17932 0.59438 0.20093 0.0
C971 C 0.17981 0.57562 0.19343 0.0
C972 C 0.17487 0.59823 0.2386 0.0
C973 C 0.1827 0.62939 0.17834 0.0
C974 C 0.1875 0.59851 0.26779 0.0
C975 C 0.18252 0.60135 0.30334 0.0
C976 C 0.16481 0.60389 0.31013 0.0
C977 C 0.15209 0.60331 0.28089 0.0
C978 C 0.15696 0.60033 0.24561 0.0
H979 H 0.19179 0.64078 0.15622 0.0
H980 H 0.16643 0.62731 0.17859 0.0
H981 H 0.19057 0.63648 0.20459 0.0
H982 H 0.20124 0.59663 0.26304 0.0
H983 H 0.19258 0.60171 0.32539 0.0
H984 H 0.5333 0.12975 0.62322 0.0
H985 H 0.54705 0.13701 0.56148 0.0
H986 H 0.59936 0.19789 0.5955 0.0
H987 H 0.5859 0.19037 0.65807 0.0
H988 H 0.55259 0.16899 0.5165 0.0
H989 H 0.63002 0.17226 0.54141 0.0
H990 H 0.60901 0.16232 0.57482 0.0
H991 H 0.62539 0.19055 0.56742 0.0
C992 C 0.54782 0.14463 0.61768 0.0
C993 C 0.5586 0.15946 0.64547 0.0
C994 C 0.55562 0.1488 0.58234 0.0
C995 C 0.5743 0.16792 0.57389 0.0
C996 C 0.58513 0.18286 0.60154 0.0
H997 H 0.60229 0.1911 0.33919 0.0
H998 H 0.59576 0.19726 0.4022 0.0
C999 C 0.57741 0.17858 0.63719 0.0
C1000 C 0.58198 0.17187 0.53588 0.0
H1001 H 0.62207 0.17637 0.48124 0.0
C1002 C 0.56789 0.17085 0.50873 0.0
C1003 C 0.60192 0.17424 0.52593 0.0
C1004 C 0.61744 0.17476 0.55381 0.0
C1005 C 0.5727 0.17104 0.47184 0.0
C1006 C 0.59244 0.17291 0.46187 0.0
C1007 C 0.60698 0.175 0.48902 0.0
C1008 C 0.59728 0.17022 0.42384 0.0
C1009 C 0.55609 0.16796 0.44403 0.0
C1010 C 0.60082 0.15336 0.41528 0.0
C1011 C 0.60479 0.15 0.37963 0.0
C1012 C 0.6052 0.16339 0.35168 0.0
C1013 C 0.60184 0.18042 0.36018 0.0
C1014 C 0.59806 0.1839 0.3961 0.0
H1015 H 0.54018 0.16235 0.45652 0.0
H1016 H 0.56101 0.18339 0.43033 0.0
H1017 H 0.55451 0.15623 0.42309 0.0
H1018 H 0.60026 0.14257 0.43622 0.0
H1019 H 0.60735 0.13676 0.37394 0.0
loop_
_geom_bond_atom_site_label_1
_geom_bond_atom_site_label_2
_geom_bond_distance
_geom_bond_site_symmetry_2
_ccdc_geom_bond_type
In0 O1 2.294 . S
In0 O2 2.326 . S
In0 O6 2.266 . S
In0 O7 2.326 . S
In0 O8 2.266 . S
In0 O9 2.326 . S
In0 O11 2.294 . S
In0 O12 2.326 . S
O1 In0 2.294 . S
O1 C10 1.240 . S
O2 In0 2.326 . S
O2 C10 1.252 . S
C3 O6 1.252 . S
C3 O7 1.260 . S
C4 O11 1.240 . S
C4 O12 1.252 . S
C5 O8 1.252 . S
C5 O9 1.260 . S
O6 In0 2.266 . S
O6 C3 1.252 . S
O7 In0 2.326 . S
O7 C3 1.260 . S
O8 In0 2.266 . S
O8 C5 1.252 . S
O9 In0 2.326 . S
O9 C5 1.260 . S
C10 O1 1.240 . S
C10 O2 1.252 . S
O11 In0 2.294 . S
O11 C4 1.240 . S
O12 In0 2.326 . S
O12 C4 1.252 . S
In13 O14 2.294 . S
In13 O15 2.326 . S
In13 O19 2.266 . S
In13 O20 2.326 . S
In13 O21 2.266 . S
In13 O22 2.326 . S
In13 O24 2.294 . S
In13 O25 2.326 . S
O14 In13 2.294 . S
O14 C23 1.240 . S
O15 In13 2.326 . S
O15 C23 1.252 . S
C16 O19 1.252 . S
C16 O20 1.260 . S
C17 O24 1.240 . S
C17 O25 1.252 . S
C18 O21 1.252 . S
C18 O22 1.260 . S
O19 In13 2.266 . S
O19 C16 1.252 . S
O20 In13 2.326 . S
O20 C16 1.260 . S
O21 In13 2.266 . S
O21 C18 1.252 . S
O22 In13 2.326 . S
O22 C18 1.260 . S
C23 O14 1.240 . S
C23 O15 1.252 . S
O24 In13 2.294 . S
O24 C17 1.240 . S
O25 In13 2.326 . S
O25 C17 1.252 . S
In26 O27 2.294 . S
In26 O28 2.326 . S
In26 O32 2.266 . S
In26 O33 2.326 . S
In26 O34 2.266 . S
In26 O35 2.326 . S
In26 O37 2.294 . S
In26 O38 2.326 . S
O27 In26 2.294 . S
O27 C36 1.240 . S
O28 In26 2.326 . S
O28 C36 1.252 . S
C29 O32 1.252 . S
C29 O33 1.260 . S
C30 O37 1.240 . S
C30 O38 1.252 . S
C31 O34 1.252 . S
C31 O35 1.260 . S
O32 In26 2.266 . S
O32 C29 1.252 . S
O33 In26 2.326 . S
O33 C29 1.260 . S
O34 In26 2.266 . S
O34 C31 1.252 . S
O35 In26 2.326 . S
O35 C31 1.260 . S
C36 O27 1.240 . S
C36 O28 1.252 . S
O37 In26 2.294 . S
O37 C30 1.240 . S
O38 In26 2.326 . S
O38 C30 1.252 . S
In39 O40 2.294 . S
In39 O41 2.326 . S
In39 O45 2.266 . S
In39 O46 2.326 . S
In39 O47 2.266 . S
In39 O48 2.326 . S
In39 O50 2.294 . S
In39 O51 2.326 . S
O40 In39 2.294 . S
O40 C49 1.240 . S
O41 In39 2.326 . S
O41 C49 1.252 . S
C42 O45 1.252 . S
C42 O46 1.260 . S
C43 O50 1.240 . S
C43 O51 1.252 . S
C44 O47 1.252 . S
C44 O48 1.260 . S
O45 In39 2.266 . S
O45 C42 1.252 . S
O46 In39 2.326 . S
O46 C42 1.260 . S
O47 In39 2.266 . S
O47 C44 1.252 . S
O48 In39 2.326 . S
O48 C44 1.260 . S
C49 O40 1.240 . S
C49 O41 1.252 . S
O50 In39 2.294 . S
O50 C43 1.240 . S
O51 In39 2.326 . S
O51 C43 1.252 . S
In52 O53 2.294 . S
In52 O54 2.326 . S
In52 O58 2.266 . S
In52 O59 2.326 . S
In52 O60 2.266 . S
In52 O61 2.326 . S
In52 O63 2.294 . S
In52 O64 2.326 . S
O53 In52 2.294 . S
O53 C62 1.240 . S
O54 In52 2.326 . S
O54 C62 1.252 . S
C55 O58 1.252 . S
C55 O59 1.260 . S
C56 O63 1.240 . S
C56 O64 1.252 . S
C57 O60 1.252 . S
C57 O61 1.260 . S
O58 In52 2.266 . S
O58 C55 1.252 . S
O59 In52 2.326 . S
O59 C55 1.260 . S
O60 In52 2.266 . S
O60 C57 1.252 . S
O61 In52 2.326 . S
O61 C57 1.260 . S
C62 O53 1.240 . S
C62 O54 1.252 . S
O63 In52 2.294 . S
O63 C56 1.240 . S
O64 In52 2.326 . S
O64 C56 1.252 . S
In65 O66 2.294 . S
In65 O67 2.326 . S
In65 O71 2.266 . S
In65 O72 2.326 . S
In65 O73 2.266 . S
In65 O74 2.326 . S
In65 O76 2.294 . S
In65 O77 2.326 . S
O66 In65 2.294 . S
O66 C75 1.240 . S
O67 In65 2.326 . S
O67 C75 1.252 . S
C68 O71 1.252 . S
C68 O72 1.260 . S
C69 O76 1.240 . S
C69 O77 1.252 . S
C70 O73 1.252 . S
C70 O74 1.260 . S
O71 In65 2.266 . S
O71 C68 1.252 . S
O72 In65 2.326 . S
O72 C68 1.260 . S
O73 In65 2.266 . S
O73 C70 1.252 . S
O74 In65 2.326 . S
O74 C70 1.260 . S
C75 O66 1.240 . S
C75 O67 1.252 . S
O76 In65 2.294 . S
O76 C69 1.240 . S
O77 In65 2.326 . S
O77 C69 1.252 . S
In78 O79 2.294 . S
In78 O80 2.326 . S
In78 O84 2.266 . S
In78 O85 2.326 . S
In78 O86 2.266 . S
In78 O87 2.326 . S
In78 O89 2.294 . S
In78 O90 2.326 . S
O79 In78 2.294 . S
O79 C88 1.240 . S
O80 In78 2.326 . S
O80 C88 1.252 . S
C81 O84 1.252 . S
C81 O85 1.260 . S
C82 O89 1.240 . S
C82 O90 1.252 . S
C83 O86 1.252 . S
C83 O87 1.260 . S
O84 In78 2.266 . S
O84 C81 1.252 . S
O85 In78 2.326 . S
O85 C81 1.260 . S
O86 In78 2.266 . S
O86 C83 1.252 . S
O87 In78 2.326 . S
O87 C83 1.260 . S
C88 O79 1.240 . S
C88 O80 1.252 . S
O89 In78 2.294 . S
O89 C82 1.240 . S
O90 In78 2.326 . S
O90 C82 1.252 . S
In91 O92 2.294 . S
In91 O93 2.326 . S
In91 O97 2.266 . S
In91 O98 2.326 . S
In91 O99 2.266 . S
In91 O100 2.326 . S
In91 O102 2.294 . S
In91 O103 2.326 . S
O92 In91 2.294 . S
O92 C101 1.240 . S
O93 In91 2.326 . S
O93 C101 1.252 . S
C94 O97 1.252 . S
C94 O98 1.260 . S
C95 O102 1.240 . S
C95 O103 1.252 . S
C96 O99 1.252 . S
C96 O100 1.260 . S
O97 In91 2.266 . S
O97 C94 1.252 . S
O98 In91 2.326 . S
O98 C94 1.260 . S
O99 In91 2.266 . S
O99 C96 1.252 . S
O100 In91 2.326 . S
O100 C96 1.260 . S
C101 O92 1.240 . S
C101 O93 1.252 . S
O102 In91 2.294 . S
O102 C95 1.240 . S
O103 In91 2.326 . S
O103 C95 1.252 . S
In104 O105 2.294 . S
In104 O106 2.326 . S
In104 O110 2.266 . S
In104 O111 2.326 . S
In104 O112 2.266 . S
In104 O113 2.326 . S
In104 O115 2.294 . S
In104 O116 2.326 . S
O105 In104 2.294 . S
O105 C114 1.240 . S
O106 In104 2.326 . S
O106 C114 1.252 . S
C107 O110 1.252 . S
C107 O111 1.260 . S
C108 O115 1.240 . S
C108 O116 1.252 . S
C109 O112 1.252 . S
C109 O113 1.260 . S
O110 In104 2.266 . S
O110 C107 1.252 . S
O111 In104 2.326 . S
O111 C107 1.260 . S
O112 In104 2.266 . S
O112 C109 1.252 . S
O113 In104 2.326 . S
O113 C109 1.260 . S
C114 O105 1.240 . S
C114 O106 1.252 . S
O115 In104 2.294 . S
O115 C108 1.240 . S
O116 In104 2.326 . S
O116 C108 1.252 . S
In117 O118 2.294 . S
In117 O119 2.326 . S
In117 O123 2.266 . S
In117 O124 2.326 . S
In117 O125 2.266 . S
In117 O126 2.326 . S
In117 O128 2.294 . S
In117 O129 2.326 . S
O118 In117 2.294 . S
O118 C127 1.240 . S
O119 In117 2.326 . S
O119 C127 1.252 . S
C120 O123 1.252 . S
C120 O124 1.260 . S
C121 O128 1.240 . S
C121 O129 1.252 . S
C122 O125 1.252 . S
C122 O126 1.260 . S
O123 In117 2.266 . S
O123 C120 1.252 . S
O124 In117 2.326 . S
O124 C120 1.260 . S
O125 In117 2.266 . S
O125 C122 1.252 . S
O126 In117 2.326 . S
O126 C122 1.260 . S
C127 O118 1.240 . S
C127 O119 1.252 . S
O128 In117 2.294 . S
O128 C121 1.240 . S
O129 In117 2.326 . S
O129 C121 1.252 . S
In130 O131 2.294 . S
In130 O132 2.326 . S
In130 O136 2.266 . S
In130 O137 2.326 . S
In130 O138 2.266 . S
In130 O139 2.326 . S
In130 O141 2.294 . S
In130 O142 2.326 . S
O131 In130 2.294 . S
O131 C140 1.240 . S
O132 In130 2.326 . S
O132 C140 1.252 . S
C133 O136 1.252 . S
C133 O137 1.260 . S
C134 O141 1.240 . S
C134 O142 1.252 . S
C135 O138 1.252 . S
C135 O139 1.260 . S
O136 In130 2.266 . S
O136 C133 1.252 . S
O137 In130 2.326 . S
O137 C133 1.260 . S
O138 In130 2.266 . S
O138 C135 1.252 . S
O139 In130 2.326 . S
O139 C135 1.260 . S
C140 O131 1.240 . S
C140 O132 1.252 . S
O141 In130 2.294 . S
O141 C134 1.240 . S
O142 In130 2.326 . S
O142 C134 1.252 . S
In143 O144 2.294 . S
In143 O145 2.326 . S
In143 O149 2.266 . S
In143 O150 2.326 . S
In143 O151 2.266 . S
In143 O152 2.326 . S
In143 O154 2.294 . S
In143 O155 2.326 . S
O144 In143 2.294 . S
O144 C153 1.240 . S
O145 In143 2.326 . S
O145 C153 1.252 . S
C146 O149 1.252 . S
C146 O150 1.260 . S
C147 O154 1.240 . S
C147 O155 1.252 . S
C148 O151 1.252 . S
C148 O152 1.260 . S
O149 In143 2.266 . S
O149 C146 1.252 . S
O150 In143 2.326 . S
O150 C146 1.260 . S
O151 In143 2.266 . S
O151 C148 1.252 . S
O152 In143 2.326 . S
O152 C148 1.260 . S
C153 O144 1.240 . S
C153 O145 1.252 . S
O154 In143 2.294 . S
O154 C147 1.240 . S
O155 In143 2.326 . S
O155 C147 1.252 . S
H156 C164 0.929 . S
H157 C166 0.930 . S
H158 C168 0.930 . S
H159 C171 0.929 . S
H160 C174 0.930 . S
H161 C176 0.960 . S
H162 C176 0.960 . S
H163 C176 0.960 . S
C164 H156 0.929 . S
C164 C165 1.377 . S
C164 C166 1.384 . S
C165 C164 1.377 . S
C165 C171 1.390 . S
C166 H157 0.930 . S
C166 C164 1.384 . S
C166 C167 1.372 . S
C167 C166 1.372 . S
C167 C168 1.400 . S
C167 C172 1.490 . S
C168 H158 0.930 . S
C168 C167 1.400 . S
C168 C171 1.386 . S
H169 C185 0.930 . S
H170 C186 0.931 . S
C171 H159 0.929 . S
C171 C165 1.390 . S
C171 C168 1.386 . S
C172 C167 1.490 . S
C172 C174 1.395 . S
C172 C175 1.403 . S
H173 C179 0.930 . S
C174 H160 0.930 . S
C174 C172 1.395 . S
C174 C177 1.403 . S
C175 C172 1.403 . S
C175 C176 1.524 . S
C175 C179 1.400 . S
C176 H161 0.960 . S
C176 H162 0.960 . S
C176 H163 0.960 . S
C176 C175 1.524 . S
C177 C174 1.403 . S
C177 C178 1.392 . S
C177 C181 1.495 . S
C178 C177 1.392 . S
C178 C179 1.385 . S
C178 C180 1.478 . S
C179 H173 0.930 . S
C179 C175 1.400 . S
C179 C178 1.385 . S
C180 C178 1.478 . S
C180 C182 1.381 . S
C180 C186 1.383 . S
C181 C177 1.495 . S
C181 H187 0.959 . S
C181 H188 0.961 . S
C181 H189 0.960 . S
C182 C180 1.381 . S
C182 C183 1.394 . S
C182 H190 0.930 . S
C183 C182 1.394 . S
C183 C184 1.383 . S
C183 H191 0.929 . S
C184 C183 1.383 . S
C184 C185 1.377 . S
C185 H169 0.930 . S
C185 C184 1.377 . S
C185 C186 1.379 . S
C186 H170 0.931 . S
C186 C180 1.383 . S
C186 C185 1.379 . S
H187 C181 0.959 . S
H188 C181 0.961 . S
H189 C181 0.960 . S
H190 C182 0.930 . S
H191 C183 0.929 . S
H192 C200 0.929 . S
H193 C202 0.930 . S
H194 C204 0.930 . S
H195 C207 0.929 . S
H196 C210 0.930 . S
H197 C212 0.960 . S
H198 C212 0.960 . S
H199 C212 0.960 . S
C200 H192 0.929 . S
C200 C201 1.377 . S
C200 C202 1.384 . S
C201 C200 1.377 . S
C201 C207 1.390 . S
C202 H193 0.930 . S
C202 C200 1.384 . S
C202 C203 1.372 . S
C203 C202 1.372 . S
C203 C204 1.400 . S
C203 C208 1.490 . S
C204 H194 0.930 . S
C204 C203 1.400 . S
C204 C207 1.386 . S
H205 C221 0.930 . S
H206 C222 0.931 . S
C207 H195 0.929 . S
C207 C201 1.390 . S
C207 C204 1.386 . S
C208 C203 1.490 . S
C208 C210 1.395 . S
C208 C211 1.403 . S
H209 C215 0.930 . S
C210 H196 0.930 . S
C210 C208 1.395 . S
C210 C213 1.403 . S
C211 C208 1.403 . S
C211 C212 1.524 . S
C211 C215 1.400 . S
C212 H197 0.960 . S
C212 H198 0.960 . S
C212 H199 0.960 . S
C212 C211 1.524 . S
C213 C210 1.403 . S
C213 C214 1.392 . S
C213 C217 1.495 . S
C214 C213 1.392 . S
C214 C215 1.385 . S
C214 C216 1.478 . S
C215 H209 0.930 . S
C215 C211 1.400 . S
C215 C214 1.385 . S
C216 C214 1.478 . S
C216 C218 1.381 . S
C216 C222 1.383 . S
C217 C213 1.495 . S
C217 H223 0.959 . S
C217 H224 0.961 . S
C217 H225 0.960 . S
C218 C216 1.381 . S
C218 C219 1.394 . S
C218 H226 0.930 . S
C219 C218 1.394 . S
C219 C220 1.383 . S
C219 H227 0.929 . S
C220 C219 1.383 . S
C220 C221 1.377 . S
C221 H205 0.930 . S
C221 C220 1.377 . S
C221 C222 1.379 . S
C222 H206 0.931 . S
C222 C216 1.383 . S
C222 C221 1.379 . S
H223 C217 0.959 . S
H224 C217 0.961 . S
H225 C217 0.960 . S
H226 C218 0.930 . S
H227 C219 0.929 . S
H228 C236 0.929 . S
H229 C238 0.930 . S
H230 C240 0.930 . S
H231 C243 0.929 . S
H232 C246 0.930 . S
H233 C248 0.960 . S
H234 C248 0.960 . S
H235 C248 0.960 . S
C236 H228 0.929 . S
C236 C237 1.377 . S
C236 C238 1.384 . S
C237 C236 1.377 . S
C237 C243 1.390 . S
C238 H229 0.930 . S
C238 C236 1.384 . S
C238 C239 1.372 . S
C239 C238 1.372 . S
C239 C240 1.400 . S
C239 C244 1.490 . S
C240 H230 0.930 . S
C240 C239 1.400 . S
C240 C243 1.386 . S
H241 C257 0.930 . S
H242 C258 0.931 . S
C243 H231 0.929 . S
C243 C237 1.390 . S
C243 C240 1.386 . S
C244 C239 1.490 . S
C244 C246 1.395 . S
C244 C247 1.403 . S
H245 C251 0.930 . S
C246 H232 0.930 . S
C246 C244 1.395 . S
C246 C249 1.403 1_556 S
C247 C244 1.403 . S
C247 C248 1.524 . S
C247 C251 1.400 1_556 S
C248 H233 0.960 . S
C248 H234 0.960 . S
C248 H235 0.960 . S
C248 C247 1.524 . S
C249 C246 1.403 1_554 S
C249 C250 1.392 . S
C249 C253 1.495 . S
C250 C249 1.392 . S
C250 C251 1.385 . S
C250 C252 1.478 . S
C251 H245 0.930 . S
C251 C247 1.400 1_554 S
C251 C250 1.385 . S
C252 C250 1.478 . S
C252 C254 1.381 . S
C252 C258 1.383 . S
C253 C249 1.495 . S
C253 H259 0.959 . S
C253 H260 0.961 . S
C253 H261 0.960 . S
C254 C252 1.381 . S
C254 C255 1.394 . S
C254 H262 0.930 . S
C255 C254 1.394 . S
C255 C256 1.383 . S
C255 H263 0.929 . S
C256 C255 1.383 . S
C256 C257 1.377 . S
C257 H241 0.930 . S
C257 C256 1.377 . S
C257 C258 1.379 . S
C258 H242 0.931 . S
C258 C252 1.383 . S
C258 C257 1.379 . S
H259 C253 0.959 . S
H260 C253 0.961 . S
H261 C253 0.960 . S
H262 C254 0.930 . S
H263 C255 0.929 . S
H264 C272 0.929 . S
H265 C274 0.930 . S
H266 C276 0.930 . S
H267 C279 0.929 . S
H268 C282 0.930 . S
H269 C284 0.960 . S
H270 C284 0.960 . S
H271 C284 0.960 . S
C272 H264 0.929 . S
C272 C273 1.377 . S
C272 C274 1.384 . S
C273 C272 1.377 . S
C273 C279 1.390 . S
C274 H265 0.930 . S
C274 C272 1.384 . S
C274 C275 1.372 . S
C275 C274 1.372 . S
C275 C276 1.400 . S
C275 C280 1.490 . S
C276 H266 0.930 . S
C276 C275 1.400 . S
C276 C279 1.386 . S
H277 C293 0.930 . S
H278 C294 0.931 . S
C279 H267 0.929 . S
C279 C273 1.390 . S
C279 C276 1.386 . S
C280 C275 1.490 . S
C280 C282 1.395 . S
C280 C283 1.403 . S
H281 C287 0.930 . S
C282 H268 0.930 . S
C282 C280 1.395 . S
C282 C285 1.403 . S
C283 C280 1.403 . S
C283 C284 1.524 . S
C283 C287 1.400 . S
C284 H269 0.960 . S
C284 H270 0.960 . S
C284 H271 0.960 . S
C284 C283 1.524 . S
C285 C282 1.403 . S
C285 C286 1.392 . S
C285 C289 1.495 . S
C286 C285 1.392 . S
C286 C287 1.385 . S
C286 C288 1.478 . S
C287 H281 0.930 . S
C287 C283 1.400 . S
C287 C286 1.385 . S
C288 C286 1.478 . S
C288 C290 1.381 . S
C288 C294 1.383 . S
C289 C285 1.495 . S
C289 H295 0.959 . S
C289 H296 0.961 . S
C289 H297 0.960 . S
C290 C288 1.381 . S
C290 C291 1.394 . S
C290 H298 0.930 . S
C291 C290 1.394 . S
C291 C292 1.383 . S
C291 H299 0.929 . S
C292 C291 1.383 . S
C292 C293 1.377 . S
C293 H277 0.930 . S
C293 C292 1.377 . S
C293 C294 1.379 . S
C294 H278 0.931 . S
C294 C288 1.383 . S
C294 C293 1.379 . S
H295 C289 0.959 . S
H296 C289 0.961 . S
H297 C289 0.960 . S
H298 C290 0.930 . S
H299 C291 0.929 . S
H300 C308 0.929 . S
H301 C310 0.930 . S
H302 C312 0.930 . S
H303 C315 0.929 . S
H304 C318 0.930 . S
H305 C320 0.960 . S
H306 C320 0.960 . S
H307 C320 0.960 . S
C308 H300 0.929 . S
C308 C309 1.377 . S
C308 C310 1.384 . S
C309 C308 1.377 . S
C309 C315 1.390 . S
C310 H301 0.930 . S
C310 C308 1.384 . S
C310 C311 1.372 . S
C311 C310 1.372 . S
C311 C312 1.400 . S
C311 C316 1.490 . S
C312 H302 0.930 . S
C312 C311 1.400 . S
C312 C315 1.386 . S
H313 C329 0.930 . S
H314 C330 0.931 . S
C315 H303 0.929 . S
C315 C309 1.390 . S
C315 C312 1.386 . S
C316 C311 1.490 . S
C316 C318 1.395 . S
C316 C319 1.403 . S
H317 C323 0.930 . S
C318 H304 0.930 . S
C318 C316 1.395 . S
C318 C321 1.403 . S
C319 C316 1.403 . S
C319 C320 1.524 . S
C319 C323 1.400 . S
C320 H305 0.960 . S
C320 H306 0.960 . S
C320 H307 0.960 . S
C320 C319 1.524 . S
C321 C318 1.403 . S
C321 C322 1.392 . S
C321 C325 1.495 . S
C322 C321 1.392 . S
C322 C323 1.385 . S
C322 C324 1.478 . S
C323 H317 0.930 . S
C323 C319 1.400 . S
C323 C322 1.385 . S
C324 C322 1.478 . S
C324 C326 1.381 . S
C324 C330 1.383 . S
C325 C321 1.495 . S
C325 H331 0.959 . S
C325 H332 0.961 . S
C325 H333 0.960 . S
C326 C324 1.381 . S
C326 C327 1.394 . S
C326 H334 0.930 . S
C327 C326 1.394 . S
C327 C328 1.383 . S
C327 H335 0.929 . S
C328 C327 1.383 . S
C328 C329 1.377 . S
C329 H313 0.930 . S
C329 C328 1.377 . S
C329 C330 1.379 . S
C330 H314 0.931 . S
C330 C324 1.383 . S
C330 C329 1.379 . S
H331 C325 0.959 . S
H332 C325 0.961 . S
H333 C325 0.960 . S
H334 C326 0.930 . S
H335 C327 0.929 . S
H336 C344 0.929 . S
H337 C346 0.930 . S
H338 C348 0.930 . S
H339 C351 0.929 . S
H340 C354 0.930 . S
H341 C356 0.960 . S
H342 C356 0.960 . S
H343 C356 0.960 . S
C344 H336 0.929 . S
C344 C345 1.377 . S
C344 C346 1.384 . S
C345 C344 1.377 . S
C345 C351 1.390 . S
C346 H337 0.930 . S
C346 C344 1.384 . S
C346 C347 1.372 . S
C347 C346 1.372 . S
C347 C348 1.400 . S
C347 C352 1.490 . S
C348 H338 0.930 . S
C348 C347 1.400 . S
C348 C351 1.386 . S
H349 C365 0.930 . S
H350 C366 0.931 . S
C351 H339 0.929 . S
C351 C345 1.390 . S
C351 C348 1.386 . S
C352 C347 1.490 . S
C352 C354 1.395 . S
C352 C355 1.403 . S
H353 C359 0.930 . S
C354 H340 0.930 . S
C354 C352 1.395 . S
C354 C357 1.403 1_554 S
C355 C352 1.403 . S
C355 C356 1.524 . S
C355 C359 1.400 1_554 S
C356 H341 0.960 . S
C356 H342 0.960 . S
C356 H343 0.960 . S
C356 C355 1.524 . S
C357 C354 1.403 1_556 S
C357 C358 1.392 . S
C357 C361 1.495 . S
C358 C357 1.392 . S
C358 C359 1.385 . S
C358 C360 1.478 . S
C359 H353 0.930 . S
C359 C355 1.400 1_556 S
C359 C358 1.385 . S
C360 C358 1.478 . S
C360 C362 1.381 . S
C360 C366 1.383 . S
C361 C357 1.495 . S
C361 H367 0.959 . S
C361 H368 0.961 . S
C361 H369 0.960 . S
C362 C360 1.381 . S
C362 C363 1.394 . S
C362 H370 0.930 . S
C363 C362 1.394 . S
C363 C364 1.383 . S
C363 H371 0.929 . S
C364 C363 1.383 . S
C364 C365 1.377 . S
C365 H349 0.930 . S
C365 C364 1.377 . S
C365 C366 1.379 . S
C366 H350 0.931 . S
C366 C360 1.383 . S
C366 C365 1.379 . S
H367 C361 0.959 . S
H368 C361 0.961 . S
H369 C361 0.960 . S
H370 C362 0.930 . S
H371 C363 0.929 . S
H372 C380 0.929 . S
H373 C382 0.930 . S
H374 C384 0.930 . S
H375 C387 0.929 . S
H376 C390 0.930 . S
H377 C392 0.960 . S
H378 C392 0.960 . S
H379 C392 0.960 . S
C380 H372 0.929 . S
C380 C381 1.377 . S
C380 C382 1.384 . S
C381 C380 1.377 . S
C381 C387 1.390 . S
C382 H373 0.930 . S
C382 C380 1.384 . S
C382 C383 1.372 . S
C383 C382 1.372 . S
C383 C384 1.400 . S
C383 C388 1.490 . S
C384 H374 0.930 . S
C384 C383 1.400 . S
C384 C387 1.386 . S
H385 C401 0.930 . S
H386 C402 0.931 . S
C387 H375 0.929 . S
C387 C381 1.390 . S
C387 C384 1.386 . S
C388 C383 1.490 . S
C388 C390 1.395 1_554 S
C388 C391 1.403 . S
H389 C395 0.930 . S
C390 H376 0.930 . S
C390 C388 1.395 1_556 S
C390 C393 1.403 . S
C391 C388 1.403 . S
C391 C392 1.524 . S
C391 C395 1.400 . S
C392 H377 0.960 . S
C392 H378 0.960 . S
C392 H379 0.960 . S
C392 C391 1.524 . S
C393 C390 1.403 . S
C393 C394 1.392 . S
C393 C397 1.495 . S
C394 C393 1.392 . S
C394 C395 1.385 1_556 S
C394 C396 1.478 . S
C395 H389 0.930 . S
C395 C391 1.400 . S
C395 C394 1.385 1_554 S
C396 C394 1.478 . S
C396 C398 1.381 . S
C396 C402 1.383 . S
C397 C393 1.495 . S
C397 H403 0.959 . S
C397 H404 0.961 . S
C397 H405 0.960 . S
C398 C396 1.381 . S
C398 C399 1.394 . S
C398 H406 0.930 . S
C399 C398 1.394 . S
C399 C400 1.383 . S
C399 H407 0.929 . S
C400 C399 1.383 . S
C400 C401 1.377 . S
C401 H385 0.930 . S
C401 C400 1.377 . S
C401 C402 1.379 . S
C402 H386 0.931 . S
C402 C396 1.383 . S
C402 C401 1.379 . S
H403 C397 0.959 . S
H404 C397 0.961 . S
H405 C397 0.960 . S
H406 C398 0.930 . S
H407 C399 0.929 . S
H408 C416 0.929 . S
H409 C418 0.930 . S
H410 C420 0.930 . S
H411 C423 0.929 . S
H412 C426 0.930 . S
H413 C428 0.960 . S
H414 C428 0.960 . S
H415 C428 0.960 . S
C416 H408 0.929 . S
C416 C417 1.377 . S
C416 C418 1.384 . S
C417 C416 1.377 . S
C417 C423 1.390 . S
C418 H409 0.930 . S
C418 C416 1.384 . S
C418 C419 1.372 . S
C419 C418 1.372 . S
C419 C420 1.400 . S
C419 C424 1.490 . S
C420 H410 0.930 . S
C420 C419 1.400 . S
C420 C423 1.386 . S
H421 C437 0.930 . S
H422 C438 0.931 . S
C423 H411 0.929 . S
C423 C417 1.390 . S
C423 C420 1.386 . S
C424 C419 1.490 . S
C424 C426 1.395 . S
C424 C427 1.403 . S
H425 C431 0.930 . S
C426 H412 0.930 . S
C426 C424 1.395 . S
C426 C429 1.403 . S
C427 C424 1.403 . S
C427 C428 1.524 . S
C427 C431 1.400 . S
C428 H413 0.960 . S
C428 H414 0.960 . S
C428 H415 0.960 . S
C428 C427 1.524 . S
C429 C426 1.403 . S
C429 C430 1.392 . S
C429 C433 1.495 . S
C430 C429 1.392 . S
C430 C431 1.385 . S
C430 C432 1.478 . S
C431 H425 0.930 . S
C431 C427 1.400 . S
C431 C430 1.385 . S
C432 C430 1.478 . S
C432 C434 1.381 . S
C432 C438 1.383 . S
C433 C429 1.495 . S
C433 H439 0.959 . S
C433 H440 0.961 . S
C433 H441 0.960 . S
C434 C432 1.381 . S
C434 C435 1.394 . S
C434 H442 0.930 . S
C435 C434 1.394 . S
C435 C436 1.383 . S
C435 H443 0.929 . S
C436 C435 1.383 . S
C436 C437 1.377 . S
C437 H421 0.930 . S
C437 C436 1.377 . S
C437 C438 1.379 . S
C438 H422 0.931 . S
C438 C432 1.383 . S
C438 C437 1.379 . S
H439 C433 0.959 . S
H440 C433 0.961 . S
H441 C433 0.960 . S
H442 C434 0.930 . S
H443 C435 0.929 . S
H444 C452 0.929 . S
H445 C454 0.930 . S
H446 C456 0.930 . S
H447 C459 0.929 . S
H448 C462 0.930 . S
H449 C464 0.960 . S
H450 C464 0.960 . S
H451 C464 0.960 . S
C452 H444 0.929 . S
C452 C453 1.377 . S
C452 C454 1.384 . S
C453 C452 1.377 . S
C453 C459 1.390 . S
C454 H445 0.930 . S
C454 C452 1.384 . S
C454 C455 1.372 . S
C455 C454 1.372 . S
C455 C456 1.400 . S
C455 C460 1.490 . S
C456 H446 0.930 . S
C456 C455 1.400 . S
C456 C459 1.386 . S
H457 C473 0.930 . S
H458 C474 0.931 . S
C459 H447 0.929 . S
C459 C453 1.390 . S
C459 C456 1.386 . S
C460 C455 1.490 . S
C460 C462 1.395 . S
C460 C463 1.403 . S
H461 C467 0.930 . S
C462 H448 0.930 . S
C462 C460 1.395 . S
C462 C465 1.403 . S
C463 C460 1.403 . S
C463 C464 1.524 . S
C463 C467 1.400 . S
C464 H449 0.960 . S
C464 H450 0.960 . S
C464 H451 0.960 . S
C464 C463 1.524 . S
C465 C462 1.403 . S
C465 C466 1.392 . S
C465 C469 1.495 . S
C466 C465 1.392 . S
C466 C467 1.385 . S
C466 C468 1.478 . S
C467 H461 0.930 . S
C467 C463 1.400 . S
C467 C466 1.385 . S
C468 C466 1.478 . S
C468 C470 1.381 . S
C468 C474 1.383 . S
C469 C465 1.495 . S
C469 H475 0.959 . S
C469 H476 0.961 . S
C469 H477 0.960 . S
C470 C468 1.381 . S
C470 C471 1.394 . S
C470 H478 0.930 . S
C471 C470 1.394 . S
C471 C472 1.383 . S
C471 H479 0.929 . S
C472 C471 1.383 . S
C472 C473 1.377 . S
C473 H457 0.930 . S
C473 C472 1.377 . S
C473 C474 1.379 . S
C474 H458 0.931 . S
C474 C468 1.383 . S
C474 C473 1.379 . S
H475 C469 0.959 . S
H476 C469 0.961 . S
H477 C469 0.960 . S
H478 C470 0.930 . S
H479 C471 0.929 . S
H480 C488 0.929 . S
H481 C490 0.930 . S
H482 C492 0.930 1_556 S
H483 C495 0.929 . S
H484 C498 0.930 . S
H485 C500 0.960 . S
H486 C500 0.960 . S
H487 C500 0.960 . S
C488 H480 0.929 . S
C488 C489 1.377 . S
C488 C490 1.384 . S
C489 C488 1.377 . S
C489 C495 1.390 . S
C490 H481 0.930 . S
C490 C488 1.384 . S
C490 C491 1.372 . S
C491 C490 1.372 . S
C491 C492 1.400 . S
C491 C496 1.490 . S
C492 H482 0.930 1_554 S
C492 C491 1.400 . S
C492 C495 1.386 . S
H493 C509 0.930 . S
H494 C510 0.931 . S
C495 H483 0.929 . S
C495 C489 1.390 . S
C495 C492 1.386 . S
C496 C491 1.490 . S
C496 C498 1.395 . S
C496 C499 1.403 1_554 S
H497 C503 0.930 . S
C498 H484 0.930 . S
C498 C496 1.395 . S
C498 C501 1.403 . S
C499 C496 1.403 1_556 S
C499 C500 1.524 . S
C499 C503 1.400 . S
C500 H485 0.960 . S
C500 H486 0.960 . S
C500 H487 0.960 . S
C500 C499 1.524 . S
C501 C498 1.403 . S
C501 C502 1.392 1_554 S
C501 C505 1.495 . S
C502 C501 1.392 1_556 S
C502 C503 1.385 . S
C502 C504 1.478 . S
C503 H497 0.930 . S
C503 C499 1.400 . S
C503 C502 1.385 . S
C504 C502 1.478 . S
C504 C506 1.381 . S
C504 C510 1.383 . S
C505 C501 1.495 . S
C505 H511 0.959 . S
C505 H512 0.961 . S
C505 H513 0.960 . S
C506 C504 1.381 . S
C506 C507 1.394 . S
C506 H514 0.930 1_556 S
C507 C506 1.394 . S
C507 C508 1.383 . S
C507 H515 0.929 . S
C508 C507 1.383 . S
C508 C509 1.377 . S
C509 H493 0.930 . S
C509 C508 1.377 . S
C509 C510 1.379 . S
C510 H494 0.931 . S
C510 C504 1.383 . S
C510 C509 1.379 . S
H511 C505 0.959 . S
H512 C505 0.961 . S
H513 C505 0.960 . S
H514 C506 0.930 1_554 S
H515 C507 0.929 . S
H516 C524 0.929 . S
H517 C526 0.930 . S
H518 C528 0.930 . S
H519 C531 0.929 . S
H520 C534 0.930 . S
H521 C536 0.960 . S
H522 C536 0.960 . S
H523 C536 0.960 . S
C524 H516 0.929 . S
C524 C525 1.377 . S
C524 C526 1.384 . S
C525 C524 1.377 . S
C525 C531 1.390 . S
C526 H517 0.930 . S
C526 C524 1.384 . S
C526 C527 1.372 . S
C527 C526 1.372 . S
C527 C528 1.400 . S
C527 C532 1.490 . S
C528 H518 0.930 . S
C528 C527 1.400 . S
C528 C531 1.386 . S
H529 C545 0.930 . S
H530 C546 0.931 . S
C531 H519 0.929 . S
C531 C525 1.390 . S
C531 C528 1.386 . S
C532 C527 1.490 . S
C532 C534 1.395 . S
C532 C535 1.403 . S
H533 C539 0.930 . S
C534 H520 0.930 . S
C534 C532 1.395 . S
C534 C537 1.403 . S
C535 C532 1.403 . S
C535 C536 1.524 . S
C535 C539 1.400 . S
C536 H521 0.960 . S
C536 H522 0.960 . S
C536 H523 0.960 . S
C536 C535 1.524 . S
C537 C534 1.403 . S
C537 C538 1.392 . S
C537 C541 1.495 . S
C538 C537 1.392 . S
C538 C539 1.385 . S
C538 C540 1.478 . S
C539 H533 0.930 . S
C539 C535 1.400 . S
C539 C538 1.385 . S
C540 C538 1.478 . S
C540 C542 1.381 . S
C540 C546 1.383 . S
C541 C537 1.495 . S
C541 H547 0.959 . S
C541 H548 0.961 . S
C541 H549 0.960 . S
C542 C540 1.381 . S
C542 C543 1.394 . S
C542 H550 0.930 . S
C543 C542 1.394 . S
C543 C544 1.383 . S
C543 H551 0.929 . S
C544 C543 1.383 . S
C544 C545 1.377 . S
C545 H529 0.930 . S
C545 C544 1.377 . S
C545 C546 1.379 . S
C546 H530 0.931 . S
C546 C540 1.383 . S
C546 C545 1.379 . S
H547 C541 0.959 . S
H548 C541 0.961 . S
H549 C541 0.960 . S
H550 C542 0.930 . S
H551 C543 0.929 . S
H552 C560 0.929 . S
H553 C562 0.930 . S
H554 C564 0.930 . S
H555 C567 0.929 . S
H556 C570 0.930 . S
H557 C572 0.960 . S
H558 C572 0.960 . S
H559 C572 0.960 . S
C560 H552 0.929 . S
C560 C561 1.377 . S
C560 C562 1.384 . S
C561 C560 1.377 . S
C561 C567 1.390 . S
C562 H553 0.930 . S
C562 C560 1.384 . S
C562 C563 1.372 . S
C563 C562 1.372 . S
C563 C564 1.400 . S
C563 C568 1.490 . S
C564 H554 0.930 . S
C564 C563 1.400 . S
C564 C567 1.386 . S
H565 C581 0.930 . S
H566 C582 0.931 . S
C567 H555 0.929 . S
C567 C561 1.390 . S
C567 C564 1.386 . S
C568 C563 1.490 . S
C568 C570 1.395 . S
C568 C571 1.403 . S
H569 C575 0.930 . S
C570 H556 0.930 . S
C570 C568 1.395 . S
C570 C573 1.403 . S
C571 C568 1.403 . S
C571 C572 1.524 . S
C571 C575 1.400 . S
C572 H557 0.960 . S
C572 H558 0.960 . S
C572 H559 0.960 . S
C572 C571 1.524 . S
C573 C570 1.403 . S
C573 C574 1.392 . S
C573 C577 1.495 . S
C574 C573 1.392 . S
C574 C575 1.385 . S
C574 C576 1.478 . S
C575 H569 0.930 . S
C575 C571 1.400 . S
C575 C574 1.385 . S
C576 C574 1.478 . S
C576 C578 1.381 . S
C576 C582 1.383 . S
C577 C573 1.495 . S
C577 H583 0.959 . S
C577 H584 0.961 . S
C577 H585 0.960 . S
C578 C576 1.381 . S
C578 C579 1.394 . S
C578 H586 0.930 . S
C579 C578 1.394 . S
C579 C580 1.383 . S
C579 H587 0.929 . S
C580 C579 1.383 . S
C580 C581 1.377 . S
C581 H565 0.930 . S
C581 C580 1.377 . S
C581 C582 1.379 . S
C582 H566 0.931 . S
C582 C576 1.383 . S
C582 C581 1.379 . S
H583 C577 0.959 . S
H584 C577 0.961 . S
H585 C577 0.960 . S
H586 C578 0.930 . S
H587 C579 0.929 . S
H588 C596 0.929 . S
H589 C598 0.930 . S
H590 C600 0.930 . S
H591 C603 0.929 . S
H592 C606 0.930 . S
H593 C608 0.960 . S
H594 C608 0.960 . S
H595 C608 0.960 . S
C596 H588 0.929 . S
C596 C597 1.377 . S
C596 C598 1.384 . S
C597 C596 1.377 . S
C597 C603 1.390 . S
C598 H589 0.930 . S
C598 C596 1.384 . S
C598 C599 1.372 . S
C599 C598 1.372 . S
C599 C600 1.400 . S
C599 C604 1.490 . S
C600 H590 0.930 . S
C600 C599 1.400 . S
C600 C603 1.386 . S
H601 C617 0.930 . S
H602 C618 0.931 . S
C603 H591 0.929 . S
C603 C597 1.390 . S
C603 C600 1.386 . S
C604 C599 1.490 . S
C604 C606 1.395 . S
C604 C607 1.403 . S
H605 C611 0.930 . S
C606 H592 0.930 . S
C606 C604 1.395 . S
C606 C609 1.403 . S
C607 C604 1.403 . S
C607 C608 1.524 . S
C607 C611 1.400 . S
C608 H593 0.960 . S
C608 H594 0.960 . S
C608 H595 0.960 . S
C608 C607 1.524 . S
C609 C606 1.403 . S
C609 C610 1.392 . S
C609 C613 1.495 . S
C610 C609 1.392 . S
C610 C611 1.385 . S
C610 C612 1.478 . S
C611 H605 0.930 . S
C611 C607 1.400 . S
C611 C610 1.385 . S
C612 C610 1.478 . S
C612 C614 1.381 . S
C612 C618 1.383 . S
C613 C609 1.495 . S
C613 H619 0.959 . S
C613 H620 0.961 . S
C613 H621 0.960 . S
C614 C612 1.381 . S
C614 C615 1.394 . S
C614 H622 0.930 . S
C615 C614 1.394 . S
C615 C616 1.383 . S
C615 H623 0.929 . S
C616 C615 1.383 . S
C616 C617 1.377 . S
C617 H601 0.930 . S
C617 C616 1.377 . S
C617 C618 1.379 . S
C618 H602 0.931 . S
C618 C612 1.383 . S
C618 C617 1.379 . S
H619 C613 0.959 . S
H620 C613 0.961 . S
H621 C613 0.960 . S
H622 C614 0.930 . S
H623 C615 0.929 . S
H624 C632 0.929 . S
H625 C634 0.930 . S
H626 C636 0.930 . S
H627 C639 0.929 . S
H628 C642 0.930 . S
H629 C644 0.960 . S
H630 C644 0.960 . S
H631 C644 0.960 . S
C632 H624 0.929 . S
C632 C633 1.377 . S
C632 C634 1.384 . S
C633 C632 1.377 . S
C633 C639 1.390 . S
C634 H625 0.930 . S
C634 C632 1.384 . S
C634 C635 1.372 . S
C635 C634 1.372 . S
C635 C636 1.400 . S
C635 C640 1.490 . S
C636 H626 0.930 . S
C636 C635 1.400 . S
C636 C639 1.386 . S
H637 C653 0.930 . S
H638 C654 0.931 . S
C639 H627 0.929 . S
C639 C633 1.390 . S
C639 C636 1.386 . S
C640 C635 1.490 . S
C640 C642 1.395 . S
C640 C643 1.403 . S
H641 C647 0.930 . S
C642 H628 0.930 . S
C642 C640 1.395 . S
C642 C645 1.403 1_655 S
C643 C640 1.403 . S
C643 C644 1.524 . S
C643 C647 1.400 1_655 S
C644 H629 0.960 . S
C644 H630 0.960 . S
C644 H631 0.960 . S
C644 C643 1.524 . S
C645 C642 1.403 1_455 S
C645 C646 1.392 . S
C645 C649 1.495 . S
C646 C645 1.392 . S
C646 C647 1.385 . S
C646 C648 1.478 . S
C647 H641 0.930 . S
C647 C643 1.400 1_455 S
C647 C646 1.385 . S
C648 C646 1.478 . S
C648 C650 1.381 . S
C648 C654 1.383 . S
C649 C645 1.495 . S
C649 H655 0.959 . S
C649 H656 0.961 . S
C649 H657 0.960 . S
C650 C648 1.381 . S
C650 C651 1.394 . S
C650 H658 0.930 . S
C651 C650 1.394 . S
C651 C652 1.383 . S
C651 H659 0.929 . S
C652 C651 1.383 . S
C652 C653 1.377 . S
C653 H637 0.930 . S
C653 C652 1.377 . S
C653 C654 1.379 . S
C654 H638 0.931 . S
C654 C648 1.383 . S
C654 C653 1.379 . S
H655 C649 0.959 . S
H656 C649 0.961 . S
H657 C649 0.960 . S
H658 C650 0.930 . S
H659 C651 0.929 . S
H660 C668 0.929 . S
H661 C670 0.930 . S
H662 C672 0.930 . S
H663 C675 0.929 . S
H664 C678 0.930 . S
H665 C680 0.960 . S
H666 C680 0.960 . S
H667 C680 0.960 . S
C668 H660 0.929 . S
C668 C669 1.377 . S
C668 C670 1.384 . S
C669 C668 1.377 . S
C669 C675 1.390 . S
C670 H661 0.930 . S
C670 C668 1.384 . S
C670 C671 1.372 . S
C671 C670 1.372 . S
C671 C672 1.400 . S
C671 C676 1.490 . S
C672 H662 0.930 . S
C672 C671 1.400 . S
C672 C675 1.386 . S
H673 C689 0.930 . S
H674 C690 0.931 . S
C675 H663 0.929 . S
C675 C669 1.390 . S
C675 C672 1.386 . S
C676 C671 1.490 . S
C676 C678 1.395 . S
C676 C679 1.403 . S
H677 C683 0.930 . S
C678 H664 0.930 . S
C678 C676 1.395 . S
C678 C681 1.403 1_545 S
C679 C676 1.403 . S
C679 C680 1.524 . S
C679 C683 1.400 1_545 S
C680 H665 0.960 . S
C680 H666 0.960 . S
C680 H667 0.960 . S
C680 C679 1.524 . S
C681 C678 1.403 1_565 S
C681 C682 1.392 . S
C681 C685 1.495 . S
C682 C681 1.392 . S
C682 C683 1.385 . S
C682 C684 1.478 . S
C683 H677 0.930 . S
C683 C679 1.400 1_565 S
C683 C682 1.385 . S
C684 C682 1.478 . S
C684 C686 1.381 . S
C684 C690 1.383 . S
C685 C681 1.495 . S
C685 H691 0.959 . S
C685 H692 0.961 . S
C685 H693 0.960 . S
C686 C684 1.381 . S
C686 C687 1.394 . S
C686 H694 0.930 . S
C687 C686 1.394 . S
C687 C688 1.383 . S
C687 H695 0.929 . S
C688 C687 1.383 . S
C688 C689 1.377 . S
C689 H673 0.930 . S
C689 C688 1.377 . S
C689 C690 1.379 . S
C690 H674 0.931 . S
C690 C684 1.383 . S
C690 C689 1.379 . S
H691 C685 0.959 . S
H692 C685 0.961 . S
H693 C685 0.960 . S
H694 C686 0.930 . S
H695 C687 0.929 . S
H696 C704 0.929 . S
H697 C706 0.930 . S
H698 C708 0.930 . S
H699 C711 0.929 . S
H700 C714 0.930 . S
H701 C716 0.960 . S
H702 C716 0.960 . S
H703 C716 0.960 . S
C704 H696 0.929 . S
C704 C705 1.377 . S
C704 C706 1.384 . S
C705 C704 1.377 . S
C705 C711 1.390 . S
C706 H697 0.930 . S
C706 C704 1.384 . S
C706 C707 1.372 . S
C707 C706 1.372 . S
C707 C708 1.400 . S
C707 C712 1.490 . S
C708 H698 0.930 . S
C708 C707 1.400 . S
C708 C711 1.386 . S
H709 C725 0.930 . S
H710 C726 0.931 . S
C711 H699 0.929 . S
C711 C705 1.390 . S
C711 C708 1.386 . S
C712 C707 1.490 . S
C712 C714 1.395 . S
C712 C715 1.403 . S
H713 C719 0.930 . S
C714 H700 0.930 . S
C714 C712 1.395 . S
C714 C717 1.403 . S
C715 C712 1.403 . S
C715 C716 1.524 . S
C715 C719 1.400 . S
C716 H701 0.960 . S
C716 H702 0.960 . S
C716 H703 0.960 . S
C716 C715 1.524 . S
C717 C714 1.403 . S
C717 C718 1.392 . S
C717 C721 1.495 . S
C718 C717 1.392 . S
C718 C719 1.385 . S
C718 C720 1.478 . S
C719 H713 0.930 . S
C719 C715 1.400 . S
C719 C718 1.385 . S
C720 C718 1.478 . S
C720 C722 1.381 . S
C720 C726 1.383 . S
C721 C717 1.495 . S
C721 H727 0.959 . S
C721 H728 0.961 . S
C721 H729 0.960 . S
C722 C720 1.381 . S
C722 C723 1.394 . S
C722 H730 0.930 . S
C723 C722 1.394 . S
C723 C724 1.383 . S
C723 H731 0.929 . S
C724 C723 1.383 . S
C724 C725 1.377 . S
C725 H709 0.930 . S
C725 C724 1.377 . S
C725 C726 1.379 . S
C726 H710 0.931 . S
C726 C720 1.383 . S
C726 C725 1.379 . S
H727 C721 0.959 . S
H728 C721 0.961 . S
H729 C721 0.960 . S
H730 C722 0.930 . S
H731 C723 0.929 . S
H732 C740 0.929 . S
H733 C742 0.930 . S
H734 C744 0.930 . S
H735 C747 0.929 . S
H736 C750 0.930 . S
H737 C752 0.960 . S
H738 C752 0.960 . S
H739 C752 0.960 . S
C740 H732 0.929 . S
C740 C741 1.377 . S
C740 C742 1.384 . S
C741 C740 1.377 . S
C741 C747 1.390 . S
C742 H733 0.930 . S
C742 C740 1.384 . S
C742 C743 1.372 . S
C743 C742 1.372 . S
C743 C744 1.400 . S
C743 C748 1.490 . S
C744 H734 0.930 . S
C744 C743 1.400 . S
C744 C747 1.386 . S
H745 C761 0.930 . S
H746 C762 0.931 . S
C747 H735 0.929 . S
C747 C741 1.390 . S
C747 C744 1.386 . S
C748 C743 1.490 . S
C748 C750 1.395 . S
C748 C751 1.403 . S
H749 C755 0.930 . S
C750 H736 0.930 . S
C750 C748 1.395 . S
C750 C753 1.403 1_455 S
C751 C748 1.403 . S
C751 C752 1.524 . S
C751 C755 1.400 1_455 S
C752 H737 0.960 . S
C752 H738 0.960 . S
C752 H739 0.960 . S
C752 C751 1.524 . S
C753 C750 1.403 1_655 S
C753 C754 1.392 . S
C753 C757 1.495 . S
C754 C753 1.392 . S
C754 C755 1.385 . S
C754 C756 1.478 . S
C755 H749 0.930 . S
C755 C751 1.400 1_655 S
C755 C754 1.385 . S
C756 C754 1.478 . S
C756 C758 1.381 . S
C756 C762 1.383 . S
C757 C753 1.495 . S
C757 H763 0.959 . S
C757 H764 0.961 . S
C757 H765 0.960 . S
C758 C756 1.381 . S
C758 C759 1.394 . S
C758 H766 0.930 . S
C759 C758 1.394 . S
C759 C760 1.383 . S
C759 H767 0.929 . S
C760 C759 1.383 . S
C760 C761 1.377 . S
C761 H745 0.930 . S
C761 C760 1.377 . S
C761 C762 1.379 . S
C762 H746 0.931 . S
C762 C756 1.383 . S
C762 C761 1.379 . S
H763 C757 0.959 . S
H764 C757 0.961 . S
H765 C757 0.960 . S
H766 C758 0.930 . S
H767 C759 0.929 . S
H768 C776 0.929 . S
H769 C778 0.930 . S
H770 C780 0.930 . S
H771 C783 0.929 . S
H772 C786 0.930 . S
H773 C788 0.960 1_545 S
H774 C788 0.960 . S
H775 C788 0.960 . S
C776 H768 0.929 . S
C776 C777 1.377 . S
C776 C778 1.384 . S
C777 C776 1.377 . S
C777 C783 1.390 . S
C778 H769 0.930 . S
C778 C776 1.384 . S
C778 C779 1.372 . S
C779 C778 1.372 . S
C779 C780 1.400 . S
C779 C784 1.490 . S
C780 H770 0.930 . S
C780 C779 1.400 . S
C780 C783 1.386 . S
H781 C797 0.930 . S
H782 C798 0.931 . S
C783 H771 0.929 . S
C783 C777 1.390 . S
C783 C780 1.386 . S
C784 C779 1.490 . S
C784 C786 1.395 . S
C784 C787 1.403 . S
H785 C791 0.930 . S
C786 H772 0.930 . S
C786 C784 1.395 . S
C786 C789 1.403 1_565 S
C787 C784 1.403 . S
C787 C788 1.524 . S
C787 C791 1.400 1_565 S
C788 H773 0.960 1_565 S
C788 H774 0.960 . S
C788 H775 0.960 . S
C788 C787 1.524 . S
C789 C786 1.403 1_545 S
C789 C790 1.392 . S
C789 C793 1.495 . S
C790 C789 1.392 . S
C790 C791 1.385 . S
C790 C792 1.478 . S
C791 H785 0.930 . S
C791 C787 1.400 1_545 S
C791 C790 1.385 . S
C792 C790 1.478 . S
C792 C794 1.381 . S
C792 C798 1.383 . S
C793 C789 1.495 . S
C793 H799 0.959 1_545 S
C793 H800 0.961 . S
C793 H801 0.960 . S
C794 C792 1.381 . S
C794 C795 1.394 . S
C794 H802 0.930 . S
C795 C794 1.394 . S
C795 C796 1.383 . S
C795 H803 0.929 . S
C796 C795 1.383 . S
C796 C797 1.377 . S
C797 H781 0.930 . S
C797 C796 1.377 . S
C797 C798 1.379 . S
C798 H782 0.931 . S
C798 C792 1.383 . S
C798 C797 1.379 . S
H799 C793 0.959 1_565 S
H800 C793 0.961 . S
H801 C793 0.960 . S
H802 C794 0.930 . S
H803 C795 0.929 . S
H804 C812 0.929 . S
H805 C814 0.930 . S
H806 C816 0.930 . S
H807 C819 0.929 . S
H808 C822 0.930 . S
H809 C824 0.960 . S
H810 C824 0.960 . S
H811 C824 0.960 . S
C812 H804 0.929 . S
C812 C813 1.377 . S
C812 C814 1.384 . S
C813 C812 1.377 . S
C813 C819 1.390 . S
C814 H805 0.930 . S
C814 C812 1.384 . S
C814 C815 1.372 . S
C815 C814 1.372 . S
C815 C816 1.400 . S
C815 C820 1.490 . S
C816 H806 0.930 . S
C816 C815 1.400 . S
C816 C819 1.386 . S
H817 C833 0.930 . S
H818 C834 0.931 . S
C819 H807 0.929 . S
C819 C813 1.390 . S
C819 C816 1.386 . S
C820 C815 1.490 . S
C820 C822 1.395 . S
C820 C823 1.403 . S
H821 C827 0.930 . S
C822 H808 0.930 . S
C822 C820 1.395 . S
C822 C825 1.403 . S
C823 C820 1.403 . S
C823 C824 1.524 . S
C823 C827 1.400 . S
C824 H809 0.960 . S
C824 H810 0.960 . S
C824 H811 0.960 . S
C824 C823 1.524 . S
C825 C822 1.403 . S
C825 C826 1.392 . S
C825 C829 1.495 . S
C826 C825 1.392 . S
C826 C827 1.385 . S
C826 C828 1.478 . S
C827 H821 0.930 . S
C827 C823 1.400 . S
C827 C826 1.385 . S
C828 C826 1.478 . S
C828 C830 1.381 . S
C828 C834 1.383 . S
C829 C825 1.495 . S
C829 H835 0.959 . S
C829 H836 0.961 . S
C829 H837 0.960 . S
C830 C828 1.381 . S
C830 C831 1.394 . S
C830 H838 0.930 . S
C831 C830 1.394 . S
C831 C832 1.383 . S
C831 H839 0.929 . S
C832 C831 1.383 . S
C832 C833 1.377 . S
C833 H817 0.930 . S
C833 C832 1.377 . S
C833 C834 1.379 . S
C834 H818 0.931 . S
C834 C828 1.383 . S
C834 C833 1.379 . S
H835 C829 0.959 . S
H836 C829 0.961 . S
H837 C829 0.960 . S
H838 C830 0.930 . S
H839 C831 0.929 . S
H840 C848 0.929 . S
H841 C850 0.930 . S
H842 C852 0.930 . S
H843 C855 0.929 . S
H844 C858 0.930 . S
H845 C860 0.960 . S
H846 C860 0.960 . S
H847 C860 0.960 . S
C848 H840 0.929 . S
C848 C849 1.377 . S
C848 C850 1.384 . S
C849 C848 1.377 . S
C849 C855 1.390 . S
C850 H841 0.930 . S
C850 C848 1.384 . S
C850 C851 1.372 . S
C851 C850 1.372 . S
C851 C852 1.400 . S
C851 C856 1.490 . S
C852 H842 0.930 . S
C852 C851 1.400 . S
C852 C855 1.386 . S
H853 C869 0.930 . S
H854 C870 0.931 . S
C855 H843 0.929 . S
C855 C849 1.390 . S
C855 C852 1.386 . S
C856 C851 1.490 . S
C856 C858 1.395 . S
C856 C859 1.403 . S
H857 C863 0.930 . S
C858 H844 0.930 . S
C858 C856 1.395 . S
C858 C861 1.403 . S
C859 C856 1.403 . S
C859 C860 1.524 . S
C859 C863 1.400 . S
C860 H845 0.960 . S
C860 H846 0.960 . S
C860 H847 0.960 . S
C860 C859 1.524 . S
C861 C858 1.403 . S
C861 C862 1.392 . S
C861 C865 1.495 . S
C862 C861 1.392 . S
C862 C863 1.385 . S
C862 C864 1.478 . S
C863 H857 0.930 . S
C863 C859 1.400 . S
C863 C862 1.385 . S
C864 C862 1.478 . S
C864 C866 1.381 . S
C864 C870 1.383 . S
C865 C861 1.495 . S
C865 H871 0.959 . S
C865 H872 0.961 . S
C865 H873 0.960 . S
C866 C864 1.381 . S
C866 C867 1.394 . S
C866 H874 0.930 . S
C867 C866 1.394 . S
C867 C868 1.383 . S
C867 H875 0.929 . S
C868 C867 1.383 . S
C868 C869 1.377 . S
C869 H853 0.930 . S
C869 C868 1.377 . S
C869 C870 1.379 . S
C870 H854 0.931 . S
C870 C864 1.383 . S
C870 C869 1.379 . S
H871 C865 0.959 . S
H872 C865 0.961 . S
H873 C865 0.960 . S
H874 C866 0.930 . S
H875 C867 0.929 . S
H876 C884 0.929 . S
H877 C886 0.930 . S
H878 C888 0.930 . S
H879 C891 0.929 . S
H880 C894 0.930 . S
H881 C896 0.960 . S
H882 C896 0.960 . S
H883 C896 0.960 . S
C884 H876 0.929 . S
C884 C885 1.377 . S
C884 C886 1.384 . S
C885 C884 1.377 . S
C885 C891 1.390 . S
C886 H877 0.930 . S
C886 C884 1.384 . S
C886 C887 1.372 . S
C887 C886 1.372 . S
C887 C888 1.400 . S
C887 C892 1.490 . S
C888 H878 0.930 . S
C888 C887 1.400 . S
C888 C891 1.386 . S
H889 C905 0.930 . S
H890 C906 0.931 . S
C891 H879 0.929 . S
C891 C885 1.390 . S
C891 C888 1.386 . S
C892 C887 1.490 . S
C892 C894 1.395 . S
C892 C895 1.403 . S
H893 C899 0.930 . S
C894 H880 0.930 . S
C894 C892 1.395 . S
C894 C897 1.403 . S
C895 C892 1.403 . S
C895 C896 1.524 . S
C895 C899 1.400 . S
C896 H881 0.960 . S
C896 H882 0.960 . S
C896 H883 0.960 . S
C896 C895 1.524 . S
C897 C894 1.403 . S
C897 C898 1.392 . S
C897 C901 1.495 . S
C898 C897 1.392 . S
C898 C899 1.385 . S
C898 C900 1.478 . S
C899 H893 0.930 . S
C899 C895 1.400 . S
C899 C898 1.385 . S
C900 C898 1.478 . S
C900 C902 1.381 . S
C900 C906 1.383 . S
C901 C897 1.495 . S
C901 H907 0.959 . S
C901 H908 0.961 . S
C901 H909 0.960 . S
C902 C900 1.381 . S
C902 C903 1.394 . S
C902 H910 0.930 . S
C903 C902 1.394 . S
C903 C904 1.383 . S
C903 H911 0.929 . S
C904 C903 1.383 . S
C904 C905 1.377 . S
C905 H889 0.930 . S
C905 C904 1.377 . S
C905 C906 1.379 . S
C906 H890 0.931 . S
C906 C900 1.383 . S
C906 C905 1.379 . S
H907 C901 0.959 . S
H908 C901 0.961 . S
H909 C901 0.960 . S
H910 C902 0.930 . S
H911 C903 0.929 . S
H912 C920 0.929 . S
H913 C922 0.930 . S
H914 C924 0.930 . S
H915 C927 0.929 . S
H916 C930 0.930 . S
H917 C932 0.960 . S
H918 C932 0.960 . S
H919 C932 0.960 . S
C920 H912 0.929 . S
C920 C921 1.377 . S
C920 C922 1.384 . S
C921 C920 1.377 . S
C921 C927 1.390 . S
C922 H913 0.930 . S
C922 C920 1.384 . S
C922 C923 1.372 . S
C923 C922 1.372 . S
C923 C924 1.400 . S
C923 C928 1.490 . S
C924 H914 0.930 . S
C924 C923 1.400 . S
C924 C927 1.386 . S
H925 C941 0.930 . S
H926 C942 0.931 . S
C927 H915 0.929 . S
C927 C921 1.390 . S
C927 C924 1.386 . S
C928 C923 1.490 . S
C928 C930 1.395 . S
C928 C931 1.403 . S
H929 C935 0.930 . S
C930 H916 0.930 . S
C930 C928 1.395 . S
C930 C933 1.403 . S
C931 C928 1.403 . S
C931 C932 1.524 . S
C931 C935 1.400 . S
C932 H917 0.960 . S
C932 H918 0.960 . S
C932 H919 0.960 . S
C932 C931 1.524 . S
C933 C930 1.403 . S
C933 C934 1.392 . S
C933 C937 1.495 . S
C934 C933 1.392 . S
C934 C935 1.385 . S
C934 C936 1.478 . S
C935 H929 0.930 . S
C935 C931 1.400 . S
C935 C934 1.385 . S
C936 C934 1.478 . S
C936 C938 1.381 . S
C936 C942 1.383 . S
C937 C933 1.495 . S
C937 H943 0.959 . S
C937 H944 0.961 . S
C937 H945 0.960 . S
C938 C936 1.381 . S
C938 C939 1.394 . S
C938 H946 0.930 . S
C939 C938 1.394 . S
C939 C940 1.383 . S
C939 H947 0.929 . S
C940 C939 1.383 . S
C940 C941 1.377 . S
C941 H925 0.930 . S
C941 C940 1.377 . S
C941 C942 1.379 . S
C942 H926 0.931 . S
C942 C936 1.383 . S
C942 C941 1.379 . S
H943 C937 0.959 . S
H944 C937 0.961 . S
H945 C937 0.960 . S
H946 C938 0.930 . S
H947 C939 0.929 . S
H948 C956 0.929 . S
H949 C958 0.930 . S
H950 C960 0.930 . S
H951 C963 0.929 . S
H952 C966 0.930 . S
H953 C968 0.960 . S
H954 C968 0.960 . S
H955 C968 0.960 . S
C956 H948 0.929 . S
C956 C957 1.377 . S
C956 C958 1.384 . S
C957 C956 1.377 . S
C957 C963 1.390 . S
C958 H949 0.930 . S
C958 C956 1.384 . S
C958 C959 1.372 . S
C959 C958 1.372 . S
C959 C960 1.400 . S
C959 C964 1.490 . S
C960 H950 0.930 . S
C960 C959 1.400 . S
C960 C963 1.386 . S
H961 C977 0.930 . S
H962 C978 0.931 . S
C963 H951 0.929 . S
C963 C957 1.390 . S
C963 C960 1.386 . S
C964 C959 1.490 . S
C964 C966 1.395 . S
C964 C967 1.403 . S
H965 C971 0.930 . S
C966 H952 0.930 . S
C966 C964 1.395 . S
C966 C969 1.403 . S
C967 C964 1.403 . S
C967 C968 1.524 . S
C967 C971 1.400 . S
C968 H953 0.960 . S
C968 H954 0.960 . S
C968 H955 0.960 . S
C968 C967 1.524 . S
C969 C966 1.403 . S
C969 C970 1.392 . S
C969 C973 1.495 . S
C970 C969 1.392 . S
C970 C971 1.385 . S
C970 C972 1.478 . S
C971 H965 0.930 . S
C971 C967 1.400 . S
C971 C970 1.385 . S
C972 C970 1.478 . S
C972 C974 1.381 . S
C972 C978 1.383 . S
C973 C969 1.495 . S
C973 H979 0.959 . S
C973 H980 0.961 . S
C973 H981 0.960 . S
C974 C972 1.381 . S
C974 C975 1.394 . S
C974 H982 0.930 . S
C975 C974 1.394 . S
C975 C976 1.383 . S
C975 H983 0.929 . S
C976 C975 1.383 . S
C976 C977 1.377 . S
C977 H961 0.930 . S
C977 C976 1.377 . S
C977 C978 1.379 . S
C978 H962 0.931 . S
C978 C972 1.383 . S
C978 C977 1.379 . S
H979 C973 0.959 . S
H980 C973 0.961 . S
H981 C973 0.960 . S
H982 C974 0.930 . S
H983 C975 0.929 . S
H984 C992 0.929 . S
H985 C994 0.930 . S
H986 C996 0.930 . S
H987 C999 0.929 . S
H988 C1002 0.930 . S
H989 C1004 0.960 . S
H990 C1004 0.960 . S
H991 C1004 0.960 . S
C992 H984 0.929 . S
C992 C993 1.377 . S
C992 C994 1.384 . S
C993 C992 1.377 . S
C993 C999 1.390 . S
C994 H985 0.930 . S
C994 C992 1.384 . S
C994 C995 1.372 . S
C995 C994 1.372 . S
C995 C996 1.400 . S
C995 C1000 1.490 . S
C996 H986 0.930 . S
C996 C995 1.400 . S
C996 C999 1.386 . S
H997 C1013 0.930 . S
H998 C1014 0.931 . S
C999 H987 0.929 . S
C999 C993 1.390 . S
C999 C996 1.386 . S
C1000 C995 1.490 . S
C1000 C1002 1.395 . S
C1000 C1003 1.403 . S
H1001 C1007 0.930 . S
C1002 H988 0.930 . S
C1002 C1000 1.395 . S
C1002 C1005 1.403 . S
C1003 C1000 1.403 . S
C1003 C1004 1.524 . S
C1003 C1007 1.400 . S
C1004 H989 0.960 . S
C1004 H990 0.960 . S
C1004 H991 0.960 . S
C1004 C1003 1.524 . S
C1005 C1002 1.403 . S
C1005 C1006 1.392 . S
C1005 C1009 1.495 . S
C1006 C1005 1.392 . S
C1006 C1007 1.385 . S
C1006 C1008 1.478 . S
C1007 H1001 0.930 . S
C1007 C1003 1.400 . S
C1007 C1006 1.385 . S
C1008 C1006 1.478 . S
C1008 C1010 1.381 . S
C1008 C1014 1.383 . S
C1009 C1005 1.495 . S
C1009 H1015 0.959 . S
C1009 H1016 0.961 . S
C1009 H1017 0.960 . S
C1010 C1008 1.381 . S
C1010 C1011 1.394 . S
C1010 H1018 0.930 . S
C1011 C1010 1.394 . S
C1011 C1012 1.383 . S
C1011 H1019 0.929 . S
C1012 C1011 1.383 . S
C1012 C1013 1.377 . S
C1013 H997 0.930 . S
C1013 C1012 1.377 . S
C1013 C1014 1.379 . S
C1014 H998 0.931 . S
C1014 C1008 1.383 . S
C1014 C1013 1.379 . S
H1015 C1009 0.959 . S
H1016 C1009 0.961 . S
H1017 C1009 0.960 . S
H1018 C1010 0.930 . S
H1019 C1011 0.929 . S
C165 C10 1.343 . S
C184 C88 1.336 . S
C201 C23 1.347 . S
C220 C101 1.351 . S
C237 C36 1.343 . S
C256 C114 1.335 . S
C273 C49 1.348 . S
C292 C127 1.357 . S
C309 C62 1.347 . S
C328 C134 1.352 . S
C345 C147 1.342 . S
C364 C75 1.327 . S
C381 C5 1.295 . S
C400 C133 1.295 . S
C417 C18 1.292 . S
C436 C146 1.303 . S
C453 C31 1.296 . S
C472 C83 1.289 . S
C489 C44 1.298 . S
C508 C96 1.275 . S
C525 C57 1.298 . S
C544 C109 1.275 . S
C561 C70 1.297 . S
C580 C122 1.284 . S
C597 C4 1.378 . S
C616 C43 1.395 . S
C633 C17 1.378 . S
C652 C56 1.355 . S
C669 C69 1.381 . S
C688 C30 1.369 . S
C705 C82 1.377 . S
C724 C121 1.395 . S
C741 C140 1.380 . S
C760 C95 1.359 . S
C777 C108 1.378 . S
C796 C153 1.394 . S
C813 C81 0.935 . S
C832 C3 0.932 1_556 S
C849 C16 0.947 . S
C868 C94 0.944 1_554 S
C885 C29 0.946 . S
C904 C107 0.952 . S
C921 C120 0.935 . S
C940 C42 0.961 1_556 S
C957 C135 0.935 1_554 S
C976 C55 0.934 . S
C993 C68 0.946 . S
C1012 C148 0.954 . S
