# Generated by pormake.
# Topology smu, (6)-cn, num edge types: 1
# Building blocks:
#     Node 0, Type 0, BuildingBlock: OJICUG_clean_sbu_0, # of connection points: 6
#     Node 1, Type 0, BuildingBlock: OJICUG_clean_sbu_0, # of connection points: 6
#     Node 2, Type 0, BuildingBlock: OJICUG_clean_sbu_0, # of connection points: 6
#     Node 3, Type 0, BuildingBlock: OJICUG_clean_sbu_0, # of connection points: 6
#     Node 4, Type 0, BuildingBlock: OJICUG_clean_sbu_0, # of connection points: 6
#     Node 5, Type 0, BuildingBlock: OJICUG_clean_sbu_0, # of connection points: 6
#     Edge 6, Type (0, 0), BuildingBlock: UVAHIK_clean_linker_0, # of connection points: 2
#     Edge 7, Type (0, 0), BuildingBlock: UVAHIK_clean_linker_0, # of connection points: 2
#     Edge 8, Type (0, 0), BuildingBlock: UVAHIK_clean_linker_0, # of connection points: 2
#     Edge 9, Type (0, 0), BuildingBlock: UVAHIK_clean_linker_0, # of connection points: 2
#     Edge 10, Type (0, 0), BuildingBlock: UVAHIK_clean_linker_0, # of connection points: 2
#     Edge 11, Type (0, 0), BuildingBlock: UVAHIK_clean_linker_0, # of connection points: 2
#     Edge 12, Type (0, 0), BuildingBlock: UVAHIK_clean_linker_0, # of connection points: 2
#     Edge 13, Type (0, 0), BuildingBlock: UVAHIK_clean_linker_0, # of connection points: 2
#     Edge 14, Type (0, 0), BuildingBlock: UVAHIK_clean_linker_0, # of connection points: 2
#     Edge 15, Type (0, 0), BuildingBlock: UVAHIK_clean_linker_0, # of connection points: 2
#     Edge 16, Type (0, 0), BuildingBlock: UVAHIK_clean_linker_0, # of connection points: 2
#     Edge 17, Type (0, 0), BuildingBlock: UVAHIK_clean_linker_0, # of connection points: 2
#     Edge 18, Type (0, 0), BuildingBlock: UVAHIK_clean_linker_0, # of connection points: 2
#     Edge 19, Type (0, 0), BuildingBlock: UVAHIK_clean_linker_0, # of connection points: 2
#     Edge 20, Type (0, 0), BuildingBlock: UVAHIK_clean_linker_0, # of connection points: 2
#     Edge 21, Type (0, 0), BuildingBlock: UVAHIK_clean_linker_0, # of connection points: 2
#     Edge 22, Type (0, 0), BuildingBlock: UVAHIK_clean_linker_0, # of connection points: 2
#     Edge 23, Type (0, 0), BuildingBlock: UVAHIK_clean_linker_0, # of connection points: 2
# Relax obj value: 0.250
# Max RMSD: 0.294
# Mean RMSD: 0.265
data_MOF--net-smu--node1-OJICUG_clean_sbu_0--edge1-UVAHIK_clean_linker_0
_symmetry_space_group_name_H-M    P1
_symmetry_Int_Tables_number       1
_symmetry_cell_setting            triclinic
loop_
_symmetry_equiv_pos_as_xyz
'x, y, z'
_cell_length_a     38.046551
_cell_length_b     38.108585
_cell_length_c     39.177866
_cell_angle_alpha  95.755033
_cell_angle_beta   95.575691
_cell_angle_gamma 120.0564
loop_
_atom_site_label
_atom_site_type_symbol
_atom_site_fract_x
_atom_site_fract_y
_atom_site_fract_z
_atom_type_partial_charge
Sc0 Sc 0.30503 0.05333 0.19824 0.0
Sc1 Sc 0.32808 0.99088 0.24485 0.0
Sc2 Sc 0.35035 0.08843 0.28611 0.0
O3 O 0.32758 0.0441 0.24322 0.0
C4 C 0.37835 0.14483 0.22799 0.0
C5 C 0.35414 0.01298 0.17116 0.0
C6 C 0.41763 0.06145 0.28389 0.0
C7 C 0.24106 0.95791 0.19914 0.0
C8 C 0.26779 0.08489 0.25474 0.0
C9 C 0.31005 0.00781 0.32092 0.0
O10 O 0.35295 0.11709 0.20279 0.0
O11 O 0.3479 0.99056 0.19451 0.0
O12 O 0.40692 0.08727 0.29334 0.0
O13 O 0.25338 0.9911 0.18698 0.0
O14 O 0.29587 0.0938 0.28046 0.0
O15 O 0.30963 0.98368 0.29575 0.0
O16 O 0.26722 0.07 0.22402 0.0
O17 O 0.26381 0.95322 0.22199 0.0
O18 O 0.32339 0.04548 0.32011 0.0
O19 O 0.34191 0.03828 0.17 0.0
O20 O 0.38068 0.13823 0.25889 0.0
O21 O 0.39228 0.02523 0.26736 0.0
Sc22 Sc 0.73284 0.63716 0.20794 0.0
Sc23 Sc 0.67532 0.66232 0.25968 0.0
Sc24 Sc 0.78077 0.70068 0.28914 0.0
O25 O 0.72958 0.66681 0.2523 0.0
C26 C 0.78498 0.6205 0.26413 0.0
C27 C 0.64323 0.57199 0.22169 0.0
C28 C 0.71155 0.65728 0.33525 0.0
C29 C 0.67951 0.6735 0.17972 0.0
C30 C 0.8213 0.7202 0.22195 0.0
C31 C 0.73988 0.75629 0.29146 0.0
O32 O 0.75869 0.60795 0.23639 0.0
O33 O 0.641 0.59664 0.24443 0.0
O34 O 0.74828 0.67307 0.32953 0.0
O35 O 0.70747 0.66487 0.17719 0.0
O36 O 0.81912 0.73213 0.25267 0.0
O37 O 0.70415 0.72781 0.2762 0.0
O38 O 0.79358 0.6859 0.20383 0.0
O39 O 0.66259 0.67103 0.20667 0.0
O40 O 0.76969 0.75045 0.29835 0.0
O41 O 0.67304 0.58321 0.20501 0.0
O42 O 0.79768 0.65444 0.28417 0.0
O43 O 0.68196 0.65247 0.3131 0.0
Sc44 Sc 0.90627 0.21377 0.20301 0.0
Sc45 Sc 0.98589 0.31581 0.23268 0.0
Sc46 Sc 0.91553 0.26387 0.28545 0.0
O47 O 0.93534 0.26435 0.23996 0.0
C48 C 0.83249 0.21874 0.23233 0.0
C49 C 0.93269 0.28101 0.15555 0.0
C50 C 0.94124 0.35348 0.26832 0.0
C51 C 0.00258 0.24546 0.2077 0.0
C52 C 0.89692 0.17191 0.26932 0.0
C53 C 0.00781 0.31546 0.3133 0.0
O54 O 0.84554 0.20243 0.2107 0.0
O55 O 0.96546 0.30636 0.177 0.0
O56 O 0.93073 0.32714 0.28871 0.0
O57 O 0.96478 0.2204 0.19407 0.0
O58 O 0.89688 0.20076 0.28854 0.0
O59 O 0.01397 0.33448 0.28756 0.0
O60 O 0.90416 0.17408 0.23849 0.0
O61 O 0.01546 0.28119 0.22468 0.0
O62 O 0.97473 0.28191 0.3131 0.0
O63 O 0.905 0.24763 0.16303 0.0
O64 O 0.85535 0.24487 0.25944 0.0
O65 O 0.95695 0.35087 0.24164 0.0
Sc66 Sc 0.05731 0.29366 0.70782 0.0
Sc67 Sc 0.9894 0.32555 0.73136 0.0
Sc68 Sc 0.08314 0.35842 0.7874 0.0
O69 O 0.04304 0.32563 0.74246 0.0
C70 C 0.08222 0.27334 0.77936 0.0
C71 C 0.95964 0.23344 0.70033 0.0
C72 C -0.00341 0.32496 0.81326 0.0
C73 C 0.02475 0.33645 0.65971 0.0
C74 C 0.14681 0.37207 0.73649 0.0
C75 C 0.05465 0.41949 0.76362 0.0
O76 O 0.06788 0.26323 0.74692 0.0
O77 O 0.95266 0.25964 0.71588 0.0
O78 O 0.03504 0.33868 0.8177 0.0
O79 O 0.04875 0.32345 0.66767 0.0
O80 O 0.13657 0.38376 0.76315 0.0
O81 O 0.02059 0.39125 0.74545 0.0
O82 O 0.1219 0.33938 0.7151 0.0
O83 O -0.00148 0.33544 0.67816 0.0
O84 O 0.08006 0.41232 0.78046 0.0
O85 O -0.00486 0.24251 0.69432 0.0
O86 O 0.09092 0.30731 0.79752 0.0
O87 O 0.97504 0.3175 0.78353 0.0
Sc88 Sc 0.20548 0.91895 0.72443 0.0
Sc89 Sc 0.30983 0.99269 0.75155 0.0
Sc90 Sc 0.26159 0.9107 0.79489 0.0
O91 O 0.25882 0.94048 0.75663 0.0
C92 C 0.17189 0.89792 0.79378 0.0
C93 C 0.24168 0.01584 0.74444 0.0
C94 C 0.31842 -0.00152 0.83412 0.0
C95 C 0.26657 0.9523 0.67221 0.0
C96 C 0.20803 0.83753 0.73356 0.0
C97 C 0.34698 0.93943 0.76705 0.0
O98 O 0.17216 0.91335 0.76652 0.0
O99 O 0.27768 0.02512 0.75816 0.0
O100 O 0.28477 0.96498 0.83271 0.0
O101 O 0.23437 0.92266 0.67959 0.0
O102 O 0.2384 0.85554 0.75852 0.0
O103 O 0.34278 0.96088 0.74588 0.0
O104 O 0.19003 0.8551 0.72069 0.0
O105 O 0.29367 0.98263 0.69513 0.0
O106 O 0.32327 0.92514 0.78931 0.0
O107 O 0.21531 0.98052 0.72646 0.0
O108 O 0.20005 0.89122 0.80516 0.0
O109 O 0.33431 0.0099 0.80718 0.0
Sc110 Sc 0.63625 0.72404 0.70258 0.0
Sc111 Sc 0.66405 0.67355 0.761 0.0
Sc112 Sc 0.69476 0.77763 0.78478 0.0
O113 O 0.66507 0.725 0.74936 0.0
C114 C 0.71872 0.81279 0.7155 0.0
C115 C 0.67383 0.66927 0.68069 0.0
C116 C 0.75566 0.74268 0.79393 0.0
C117 C 0.57279 0.63664 0.72179 0.0
C118 C 0.61564 0.77969 0.75171 0.0
C119 C 0.65236 0.71159 0.833 0.0
O120 O 0.68604 0.78355 0.69617 0.0
O121 O 0.67345 0.65659 0.70957 0.0
O122 O 0.74623 0.77014 0.79938 0.0
O123 O 0.58256 0.66509 0.70367 0.0
O124 O 0.64762 0.79267 0.77441 0.0
O125 O 0.65327 0.68319 0.81367 0.0
O126 O 0.60559 0.75243 0.72523 0.0
O127 O 0.59855 0.63642 0.74486 0.0
O128 O 0.66423 0.74682 0.82497 0.0
O129 O 0.66383 0.69557 0.67506 0.0
O130 O 0.72761 0.81333 0.74772 0.0
O131 O 0.72983 0.70616 0.77837 0.0
C132 C 0.38328 0.02617 0.87604 0.0
C133 C 0.34325 0.01939 0.86878 0.0
C134 C 0.40279 0.03485 0.91053 0.0
C135 C 0.40291 0.0688 0.00091 0.0
H136 H 0.40903 0.97477 0.02317 0.0
C137 C 0.41249 0.04777 0.14033 0.0
C138 C 0.37716 0.01118 0.14386 0.0
C139 C 0.42639 0.05235 0.10853 0.0
C140 C 0.40832 0.00162 0.01732 0.0
H141 H 0.29335 0.0192 0.89112 0.0
H142 H 0.32828 0.0365 0.95139 0.0
H143 H 0.40001 0.98296 0.96222 0.0
H144 H 0.33096 0.94929 0.11865 0.0
H145 H 0.35506 0.95713 0.06267 0.0
H146 H 0.4087 0.08637 0.05551 0.0
C147 C 0.34434 0.03459 0.93056 0.0
C148 C 0.40342 0.00644 0.98258 0.0
C149 C 0.3244 0.02478 0.8962 0.0
C150 C 0.35863 0.97754 0.11651 0.0
C151 C 0.37245 0.98215 0.08451 0.0
C152 C 0.40848 0.06438 0.03556 0.0
C153 C 0.38291 0.03801 0.93799 0.0
C154 C 0.39894 0.03913 0.97414 0.0
C155 C 0.40479 0.02051 0.07969 0.0
C156 C 0.4095 0.02983 0.04405 0.0
H157 H 0.39803 0.02138 0.85523 0.0
H158 H 0.43246 0.03721 0.9158 0.0
H159 H 0.39932 0.09409 0.9949 0.0
H160 H 0.42705 0.07414 0.16121 0.0
H161 H 0.45168 0.08201 0.10563 0.0
C162 C 0.71631 0.67236 0.63575 0.0
C163 C 0.68117 0.64954 0.65047 0.0
C164 C 0.718 0.65867 0.60186 0.0
C165 C 0.64971 0.61174 0.52119 0.0
H166 H 0.74246 0.61485 0.48539 0.0
C167 C 0.66418 0.61784 0.37587 0.0
C168 C 0.70398 0.64518 0.36978 0.0
C169 C 0.65811 0.60696 0.40887 0.0
C170 C 0.71634 0.61407 0.49492 0.0
H171 H 0.62092 0.59428 0.64247 0.0
H172 H 0.62341 0.57071 0.58261 0.0
H173 H 0.73987 0.6157 0.54747 0.0
H174 H 0.76851 0.68275 0.39368 0.0
H175 H 0.75788 0.66533 0.45079 0.0
H176 H 0.62769 0.61362 0.46954 0.0
C177 C 0.64995 0.59853 0.59752 0.0
C178 C 0.71477 0.61414 0.5304 0.0
C179 C 0.64867 0.61179 0.63172 0.0
C180 C 0.73743 0.66127 0.39727 0.0
C181 C 0.73136 0.65087 0.43012 0.0
C182 C 0.65165 0.61249 0.48582 0.0
C183 C 0.68407 0.62259 0.58197 0.0
C184 C 0.68202 0.61414 0.54396 0.0
C185 C 0.69169 0.62357 0.43649 0.0
C186 C 0.68575 0.61515 0.47246 0.0
H187 H 0.74125 0.70199 0.64962 0.0
H188 H 0.74442 0.67801 0.59026 0.0
H189 H 0.62431 0.61216 0.53114 0.0
H190 H 0.63782 0.60468 0.35513 0.0
H191 H 0.62715 0.58558 0.41272 0.0
C192 C 0.89207 0.26091 0.09521 0.0
C193 C 0.92764 0.289 0.11962 0.0
C194 C 0.88905 0.26591 0.0604 0.0
C195 C 0.93674 0.34047 0.00078 0.0
H196 H 0.9045 0.24305 0.93364 0.0
C197 C 0.00283 0.34714 0.87637 0.0
C198 C 0.97785 0.32113 0.84507 0.0
C199 C 0.9871 0.34388 0.90722 0.0
C200 C 0.91262 0.27034 0.95188 0.0
H201 H 0.9871 0.34547 0.12666 0.0
H202 H 0.98201 0.35393 0.06599 0.0
H203 H 0.89498 0.23674 0.9939 0.0
H204 H 0.91633 0.27179 0.82142 0.0
H205 H 0.8887 0.26521 0.87634 0.0
H206 H 0.95636 0.37428 0.95908 0.0
C207 C 0.95624 0.3282 0.07383 0.0
C208 C 0.90725 0.26679 0.98645 0.0
C209 C 0.95929 0.32321 0.10864 0.0
C210 C 0.93626 0.29215 0.8452 0.0
C211 C 0.92054 0.28838 0.87651 0.0
C212 C 0.94218 0.344 0.96629 0.0
C213 C 0.92144 0.29916 0.04915 0.0
C214 C 0.92064 0.30203 0.01155 0.0
C215 C 0.94598 0.31426 0.90781 0.0
C216 C 0.9316 0.30918 0.94181 0.0
H217 H 0.86687 0.23435 0.10273 0.0
H218 H 0.86161 0.24332 0.04215 0.0
H219 H 0.9465 0.36806 0.01929 0.0
H220 H 0.0349 0.37015 0.87714 0.0
H221 H 0.00765 0.36382 0.93093 0.0
C222 C 0.28793 0.95399 0.35998 0.0
C223 C 0.29675 0.99306 0.35367 0.0
C224 C 0.27928 0.94273 0.39257 0.0
C225 C 0.25276 0.97519 0.47482 0.0
H226 H 0.30471 0.92137 0.5177 0.0
C227 C 0.29229 0.98972 0.62282 0.0
C228 C 0.27116 0.95239 0.63519 0.0
C229 C 0.29298 0.9898 0.58724 0.0
C230 C 0.28986 0.93616 0.50582 0.0
H231 H 0.30201 0.05027 0.37651 0.0
H232 H 0.28832 0.03134 0.43257 0.0
H233 H 0.30723 0.92879 0.45639 0.0
H234 H 0.23598 0.88588 0.6203 0.0
H235 H 0.23849 0.88622 0.55801 0.0
H236 H 0.23753 0.98457 0.52483 0.0
C237 C 0.28713 0.00884 0.41253 0.0
C238 C 0.29095 0.94013 0.4707 0.0
C239 C 0.29547 0.01991 0.38023 0.0
C240 C 0.2523 0.91512 0.61145 0.0
C241 C 0.25382 0.91522 0.57593 0.0
C242 C 0.25243 0.97194 0.50993 0.0
C243 C 0.27925 0.9703 0.41937 0.0
C244 C 0.27323 0.96059 0.455 0.0
C245 C 0.27342 0.95258 0.56355 0.0
C246 C 0.27159 0.95311 0.52583 0.0
H247 H 0.28863 0.93255 0.34011 0.0
H248 H 0.27296 0.91262 0.39685 0.0
H249 H 0.23776 0.99007 0.46343 0.0
H250 H 0.30693 0.01888 0.64045 0.0
H251 H 0.30835 0.01895 0.5781 0.0
C252 C 0.63149 0.73285 0.88621 0.0
C253 C 0.63891 0.70457 0.86719 0.0
C254 C 0.6235 0.72934 0.9201 0.0
C255 C 0.64531 0.73507 0.99736 0.0
H256 H 0.58809 0.63204 0.03171 0.0
C257 C 0.69536 0.71102 0.13004 0.0
C258 C 0.66585 0.6856 0.14899 0.0
C259 C 0.68322 0.71694 0.0975 0.0
C260 C 0.60345 0.66113 0.0225 0.0
H261 H 0.64123 0.64896 0.86821 0.0
H262 H 0.62805 0.64329 0.9277 0.0
H263 H 0.58041 0.63201 0.969 0.0
H264 H 0.60055 0.64775 0.14975 0.0
H265 H 0.57902 0.65747 0.09192 0.0
H266 H 0.66959 0.76398 0.05071 0.0
C267 C 0.62797 0.66794 0.91621 0.0
C268 C 0.59947 0.66106 0.98661 0.0
C269 C 0.6358 0.67134 0.88216 0.0
C270 C 0.62381 0.66778 0.13566 0.0
C271 C 0.61156 0.67308 0.10259 0.0
C272 C 0.64938 0.7351 0.03313 0.0
C273 C 0.62287 0.69758 0.93587 0.0
C274 C 0.6214 0.69789 0.97364 0.0
C275 C 0.64126 0.69701 0.08294 0.0
C276 C 0.62963 0.69801 0.04601 0.0
H277 H 0.63292 0.75845 0.87529 0.0
H278 H 0.61894 0.75222 0.93432 0.0
H279 H 0.6629 0.76398 0.98832 0.0
H280 H 0.72798 0.72505 0.13983 0.0
H281 H 0.70683 0.73515 0.08285 0.0
C282 C 0.04492 0.37735 0.35962 0.0
C283 C 0.03428 0.33675 0.34735 0.0
C284 C 0.057 0.39306 0.3953 0.0
C285 C 0.08749 0.37448 0.48086 0.0
H286 H 0.00676 0.39874 0.51159 0.0
C287 C -0.00291 0.34423 0.60203 0.0
C288 C 0.03034 0.35563 0.62841 0.0
C289 C 0.00448 0.35609 0.5695 0.0
C290 C 0.02974 0.39244 0.50342 0.0
H291 H 0.03189 0.28232 0.36169 0.0
H292 H 0.05447 0.31018 0.42374 0.0
H293 H 0.01365 0.39465 0.45009 0.0
H294 H 0.09682 0.39168 0.64333 0.0
H295 H 0.10963 0.41314 0.58714 0.0
H296 H 0.10203 0.36982 0.53354 0.0
C297 C 0.05308 0.32976 0.40609 0.0
C298 C 0.03405 0.39058 0.46836 0.0
C299 C 0.04021 0.31379 0.37061 0.0
C300 C 0.0707 0.382 0.62305 0.0
C301 C 0.07804 0.39418 0.59091 0.0
C302 C 0.08344 0.37666 0.51587 0.0
C303 C 0.05945 0.36865 0.41891 0.0
C304 C 0.06198 0.38018 0.45662 0.0
C305 C 0.04518 0.37974 0.56328 0.0
C306 C 0.05362 0.38436 0.52734 0.0
H307 H 0.04004 0.39542 0.34217 0.0
H308 H 0.06197 0.4232 0.40461 0.0
H309 H 0.10919 0.36638 0.47243 0.0
H310 H 0.96575 0.32383 0.60568 0.0
H311 H 0.97851 0.34435 0.54861 0.0
C312 C 0.47484 0.04915 0.27383 0.0
C313 C 0.46218 0.07603 0.28692 0.0
C314 C 0.51544 0.06434 0.26879 0.0
C315 C 0.60328 0.15972 0.25236 0.0
H316 H 0.66179 0.10134 0.26261 0.0
C317 C 0.77525 0.22962 0.2441 0.0
C318 C 0.78807 0.20396 0.22869 0.0
C319 C 0.73418 0.21376 0.24773 0.0
C320 C 0.64551 0.11762 0.25909 0.0
H321 H 0.48344 0.13965 0.30788 0.0
H322 H 0.55457 0.16595 0.29992 0.0
H323 H 0.59493 0.07472 0.28117 0.0
H324 H 0.76757 0.14214 0.20311 0.0
H325 H 0.69534 0.11426 0.20942 0.0
H326 H 0.65419 0.20292 0.23074 0.0
C327 C 0.53265 0.13322 0.29257 0.0
C328 C 0.60732 0.10251 0.2699 0.0
C329 C 0.49195 0.11805 0.29753 0.0
C330 C 0.75849 0.16266 0.21492 0.0
C331 C 0.71732 0.14662 0.2189 0.0
C332 C 0.64153 0.17491 0.24171 0.0
C333 C 0.54445 0.10674 0.27692 0.0
C334 C 0.58581 0.12347 0.26677 0.0
C335 C 0.70506 0.1718 0.23627 0.0
C336 C 0.66309 0.15409 0.24504 0.0
H337 H 0.45288 0.01656 0.26549 0.0
H338 H 0.5234 0.04306 0.25662 0.0
H339 H 0.58712 0.17611 0.24879 0.0
H340 H 0.7974 0.26164 0.25486 0.0
H341 H 0.72575 0.23389 0.26134 0.0
C342 C 0.58706 0.51153 0.24157 0.0
C343 C 0.61139 0.52781 0.21603 0.0
C344 C 0.56057 0.46916 0.23836 0.0
C345 C 0.50152 0.37127 0.1805 0.0
H346 H 0.52566 0.32763 0.25886 0.0
C347 C 0.4141 0.1964 0.18913 0.0
C348 C 0.40504 0.18737 0.22223 0.0
C349 C 0.43996 0.23721 0.18485 0.0
C350 C 0.51818 0.33928 0.23692 0.0
H351 H 0.62513 0.51272 0.16602 0.0
H352 H 0.57794 0.43837 0.16024 0.0
H353 H 0.56686 0.40088 0.25764 0.0
H354 H 0.41445 0.21409 0.27638 0.0
H355 H 0.45793 0.28437 0.26877 0.0
H356 H 0.45162 0.30975 0.16043 0.0
C357 C 0.57992 0.45861 0.18281 0.0
C358 C 0.54188 0.38117 0.23623 0.0
C359 C 0.60698 0.50102 0.18626 0.0
C360 C 0.42146 0.21981 0.25064 0.0
C361 C 0.44666 0.26025 0.24631 0.0
C362 C 0.4772 0.32919 0.18144 0.0
C363 C 0.55742 0.44239 0.20931 0.0
C364 C 0.5333 0.39759 0.20837 0.0
C365 C 0.45679 0.2695 0.21355 0.0
C366 C 0.48478 0.31295 0.21009 0.0
H367 H 0.58972 0.53129 0.2648 0.0
H368 H 0.54322 0.45716 0.259 0.0
H369 H 0.49463 0.38347 0.15869 0.0
H370 H 0.40177 0.17198 0.16677 0.0
H371 H 0.44728 0.24338 0.15927 0.0
C372 C 0.94162 0.41601 0.25311 0.0
C373 C 0.93355 0.38756 0.27583 0.0
C374 C 0.93073 0.44579 0.25884 0.0
C375 C 0.85419 0.45933 0.29656 0.0
H376 H 0.91849 0.57166 0.28059 0.0
C377 C 0.84015 0.6126 0.29596 0.0
C378 C 0.80269 0.5952 0.27276 0.0
C379 C 0.85835 0.58936 0.30211 0.0
C380 C 0.90046 0.54053 0.28559 0.0
H381 H 0.90996 0.36968 0.32353 0.0
H382 H 0.89095 0.42151 0.33324 0.0
H383 H 0.94955 0.52886 0.28132 0.0
H384 H 0.75413 0.53945 0.23891 0.0
H385 H 0.7858 0.49887 0.24993 0.0
H386 H 0.80476 0.47054 0.29984 0.0
C387 C 0.90522 0.42039 0.31086 0.0
C388 C 0.91807 0.51603 0.28571 0.0
C389 C 0.91617 0.39075 0.30523 0.0
C390 C 0.78311 0.55378 0.25676 0.0
C391 C 0.80106 0.53047 0.26324 0.0
C392 C 0.83652 0.48367 0.29614 0.0
C393 C 0.91154 0.44754 0.2873 0.0
C394 C 0.89483 0.47504 0.29066 0.0
C395 C 0.83907 0.54823 0.28558 0.0
C396 C 0.85926 0.52419 0.29003 0.0
H397 H 0.95515 0.41451 0.23033 0.0
H398 H 0.93564 0.46623 0.24013 0.0
H399 H 0.83546 0.42768 0.3001 0.0
H400 H 0.856 0.64449 0.30864 0.0
H401 H 0.88759 0.60357 0.31958 0.0
C402 C 0.0382 0.47213 0.74702 0.0
C403 C 0.06678 0.46269 0.76235 0.0
C404 C 0.0508 0.51224 0.74201 0.0
C405 C 0.13672 0.62025 0.76906 0.0
H406 H 0.09493 0.63593 0.68104 0.0
C407 C 0.21579 0.77647 0.72872 0.0
C408 C 0.19041 0.79296 0.72291 0.0
C409 C 0.19854 0.73447 0.72833 0.0
C410 C 0.10661 0.63185 0.70574 0.0
H411 H 0.13084 0.48831 0.78518 0.0
H412 H 0.15287 0.55789 0.77595 0.0
H413 H 0.06822 0.5662 0.69377 0.0
H414 H 0.12736 0.77809 0.70863 0.0
H415 H 0.09704 0.70399 0.70774 0.0
H416 H 0.17572 0.68568 0.78069 0.0
C417 C 0.12056 0.53451 0.76831 0.0
C418 C 0.09123 0.59207 0.71318 0.0
C419 C 0.10793 0.49451 0.77356 0.0
C420 C 0.14761 0.76613 0.71314 0.0
C421 C 0.13027 0.72384 0.71276 0.0
C422 C 0.15233 0.65976 0.76147 0.0
C423 C 0.09227 0.54374 0.75206 0.0
C424 C 0.10648 0.58586 0.74481 0.0
C425 C 0.15561 0.70814 0.72209 0.0
C426 C 0.13783 0.6659 0.72961 0.0
H427 H 0.00618 0.44837 0.73825 0.0
H428 H 0.0281 0.51849 0.73 0.0
H429 H 0.14843 0.61669 0.79399 0.0
H430 H 0.24894 0.7964 0.73581 0.0
H431 H 0.21871 0.72287 0.73487 0.0
C432 C 0.40592 0.94203 0.74088 0.0
C433 C 0.38035 0.93023 0.76626 0.0
C434 C 0.4361 0.93138 0.73976 0.0
C435 C 0.49409 0.89532 0.79265 0.0
H436 H 0.50187 0.84871 0.70312 0.0
C437 C 0.55222 0.78223 0.73316 0.0
C438 C 0.59047 0.799 0.755 0.0
C439 C 0.52978 0.802 0.73459 0.0
C440 C 0.49989 0.86147 0.72833 0.0
H441 H 0.36712 0.89867 0.8108 0.0
H442 H 0.41884 0.87977 0.80842 0.0
H443 H 0.45774 0.87785 0.70581 0.0
H444 H 0.63504 0.84967 0.79561 0.0
H445 H 0.5961 0.88439 0.79775 0.0
H446 H 0.53459 0.87722 0.81535 0.0
C447 C 0.41617 0.89774 0.7897 0.0
C448 C 0.4751 0.87872 0.72982 0.0
C449 C 0.38616 0.90831 0.79083 0.0
C450 C 0.60552 0.83571 0.77862 0.0
C451 C 0.58318 0.85563 0.77987 0.0
C452 C 0.51869 0.87791 0.79118 0.0
C453 C 0.44131 0.90888 0.76407 0.0
C454 C 0.47131 0.89509 0.76206 0.0
C455 C 0.54518 0.83913 0.75773 0.0
C456 C 0.52129 0.86013 0.75906 0.0
H457 H 0.40231 0.95901 0.72162 0.0
H458 H 0.45528 0.94065 0.71985 0.0
H459 H 0.49226 0.90825 0.81786 0.0
H460 H 0.53962 0.75387 0.7148 0.0
H461 H 0.50018 0.788 0.71771 0.0
C462 C 0.2179 0.43348 0.75424 0.0
C463 C 0.18984 0.39709 0.73083 0.0
C464 C 0.25897 0.45622 0.75014 0.0
C465 C 0.3475 0.48144 0.74922 0.0
H466 H 0.37934 0.50679 0.65967 0.0
C467 C 0.51746 0.57007 0.73507 0.0
C468 C 0.52911 0.6033 0.71704 0.0
C469 C 0.47596 0.54059 0.73318 0.0
C470 C 0.37084 0.49991 0.68482 0.0
H471 H 0.18283 0.35668 0.68414 0.0
H472 H 0.25494 0.39658 0.67715 0.0
H473 H 0.30632 0.46478 0.66372 0.0
H474 H 0.50622 0.63049 0.6816 0.0
H475 H 0.43377 0.57933 0.6788 0.0
H476 H 0.4116 0.51747 0.77064 0.0
C477 C 0.24488 0.4074 0.69858 0.0
C478 C 0.32915 0.47563 0.68708 0.0
C479 C 0.20366 0.38451 0.7027 0.0
C480 C 0.49836 0.60536 0.69589 0.0
C481 C 0.45681 0.57589 0.69409 0.0
C482 C 0.38904 0.50557 0.74697 0.0
C483 C 0.27301 0.44318 0.72256 0.0
C484 C 0.3171 0.46672 0.71942 0.0
C485 C 0.44518 0.54372 0.71333 0.0
C486 C 0.40117 0.51546 0.71484 0.0
H487 H 0.20833 0.44433 0.77604 0.0
H488 H 0.27981 0.48413 0.76863 0.0
H489 H 0.33914 0.47457 0.77442 0.0
H490 H 0.54032 0.56722 0.75129 0.0
H491 H 0.46793 0.51571 0.74781 0.0
C492 C 0.19683 0.07106 0.23822 0.0
C493 C 0.23598 0.09543 0.259 0.0
C494 C 0.16956 0.08533 0.23527 0.0
C495 C 0.15051 0.16742 0.27043 0.0
H496 H 0.0986 0.14877 0.17477 0.0
C497 C 0.07185 0.25488 0.22733 0.0
C498 C 0.03181 0.23049 0.2078 0.0
C499 C 0.09701 0.23841 0.23294 0.0
C500 C 0.11262 0.15396 0.20162 0.0
H501 H 0.27642 0.15254 0.29481 0.0
H502 H 0.22899 0.17807 0.28924 0.0
H503 H 0.13982 0.11817 0.18901 0.0
H504 H 0.98796 0.1703 0.17708 0.0
H505 H 0.03222 0.14182 0.1866 0.0
H506 H 0.12373 0.20392 0.28275 0.0
C507 C 0.21908 0.14765 0.27554 0.0
C508 C 0.13605 0.13624 0.20989 0.0
C509 C 0.24625 0.13304 0.27885 0.0
C510 C 0.01856 0.18999 0.19226 0.0
C511 C 0.04391 0.17362 0.19771 0.0
C512 C 0.12725 0.18537 0.26209 0.0
C513 C 0.18111 0.12461 0.25261 0.0
C514 C 0.15519 0.14263 0.24441 0.0
C515 C 0.0829 0.19733 0.21893 0.0
C516 C 0.10809 0.17881 0.22759 0.0
H517 H 0.18806 0.04171 0.2229 0.0
H518 H 0.14006 0.06625 0.21824 0.0
H519 H 0.16449 0.17265 0.29728 0.0
H520 H 0.08325 0.28624 0.23961 0.0
H521 H 0.12725 0.25762 0.24884 0.0
C522 C 0.86938 0.72757 0.1801 0.0
C523 C 0.85971 0.74517 0.20827 0.0
C524 C 0.90835 0.74872 0.17069 0.0
C525 C 0.0024 0.85086 0.18051 0.0
H526 H 0.0591 0.79001 0.1759 0.0
C527 C 0.17894 0.89222 0.20687 0.0
C528 C 0.19695 0.92552 0.1889 0.0
C529 C 0.13613 0.86607 0.20144 0.0
C530 C 0.04357 0.80729 0.17692 0.0
H531 H 0.88251 0.79983 0.24716 0.0
H532 H 0.95027 0.8368 0.23048 0.0
H533 H 0.98604 0.75433 0.18074 0.0
H534 H 0.18419 0.95519 0.14891 0.0
H535 H 0.10978 0.90952 0.13951 0.0
H536 H 0.06013 0.9041 0.17805 0.0
C537 C 0.92777 0.80659 0.2158 0.0
C538 C 0.00172 0.78685 0.17938 0.0
C539 C 0.889 0.78532 0.22545 0.0
C540 C 0.17141 0.93022 0.16359 0.0
C541 C 0.12872 0.90416 0.15825 0.0
C542 C 0.0441 0.87121 0.17779 0.0
C543 C 0.93818 0.78806 0.18895 0.0
C544 C 0.98099 0.80864 0.18194 0.0
C545 C 0.11056 0.87272 0.17795 0.0
C546 C 0.06532 0.84981 0.17666 0.0
H547 H 0.84757 0.69669 0.16629 0.0
H548 H 0.91547 0.73394 0.14965 0.0
H549 H 0.9871 0.86833 0.18224 0.0
H550 H 0.19764 0.88761 0.22647 0.0
H551 H 0.12299 0.84216 0.21712 0.0
C552 C 0.86489 0.12363 0.31123 0.0
C553 C 0.88375 0.13237 0.28151 0.0
C554 C 0.84627 0.08378 0.31901 0.0
C555 C 0.79609 0.97834 0.27348 0.0
H556 H 0.81339 0.94801 0.3624 0.0
C557 C 0.7861 0.82978 0.32004 0.0
C558 C 0.74816 0.7987 0.30013 0.0
C559 C 0.7964 0.87076 0.32466 0.0
C560 C 0.80801 0.95615 0.33753 0.0
H561 H 0.90081 0.107 0.2384 0.0
H562 H 0.86844 0.03794 0.25203 0.0
H563 H 0.84713 0.02095 0.35689 0.0
H564 H 0.69 0.78598 0.27167 0.0
H565 H 0.70816 0.85779 0.27973 0.0
H566 H 0.75853 0.91406 0.25352 0.0
C567 C 0.8673 0.06162 0.26882 0.0
C568 C 0.82714 -0.00225 0.33446 0.0
C569 C 0.88598 0.10125 0.26115 0.0
C570 C 0.71964 0.8092 0.28686 0.0
C571 C 0.73003 0.8503 0.29141 0.0
C572 C 0.77683 0.93697 0.27657 0.0
C573 C 0.84615 0.05222 0.2971 0.0
C574 C 0.82233 0.009 0.30209 0.0
C575 C 0.76902 0.88157 0.30943 0.0
C576 C 0.78348 0.92538 0.30835 0.0
H577 H 0.86276 0.14698 0.3275 0.0
H578 H 0.8303 0.07719 0.34109 0.0
H579 H 0.79142 0.98636 0.24836 0.0
H580 H 0.80864 0.82275 0.33102 0.0
H581 H 0.82681 0.89416 0.33841 0.0
C582 C 0.0712 0.20375 0.78133 0.0
C583 C 0.09385 0.24609 0.79469 0.0
C584 C 0.08777 0.17915 0.78741 0.0
C585 C 0.18886 0.19083 0.79769 0.0
H586 H 0.12627 0.07361 0.79879 0.0
C587 C 0.25496 0.08375 0.77467 0.0
C588 C 0.22827 0.04571 0.75262 0.0
C589 C 0.24059 0.10948 0.78605 0.0
C590 C 0.14412 0.10632 0.79837 0.0
H591 H 0.14987 0.2953 0.8275 0.0
H592 H 0.17905 0.25209 0.83826 0.0
H593 H 0.09624 0.11562 0.81303 0.0
H594 H 0.16582 0.00576 0.72431 0.0
H595 H 0.14114 0.05086 0.74372 0.0
H596 H 0.23614 0.18127 0.78182 0.0
C597 C 0.14857 0.23806 0.82284 0.0
C598 C 0.12703 0.13038 0.80674 0.0
C599 C 0.13171 0.26268 0.81702 0.0
C600 C 0.18729 0.03473 0.74132 0.0
C601 C 0.17295 0.06036 0.75278 0.0
C602 C 0.20599 0.16676 0.78938 0.0
C603 C 0.12752 0.19647 0.80676 0.0
C604 C 0.14868 0.17268 0.8054 0.0
C605 C 0.19922 0.09766 0.77574 0.0
C606 C 0.18325 0.12404 0.78855 0.0
H607 H 0.04186 0.1902 0.7641 0.0
H608 H 0.07077 0.14733 0.77447 0.0
H609 H 0.20614 0.22322 0.79593 0.0
H610 H 0.28668 0.09319 0.78401 0.0
H611 H 0.26156 0.13805 0.80374 0.0
C612 C 0.11325 0.9041 0.80982 0.0
C613 C 0.13503 0.88333 0.81038 0.0
C614 C 0.07465 0.88675 0.81997 0.0
C615 C 0.98489 0.78835 0.81315 0.0
H616 H 0.94545 0.84634 0.86966 0.0
C617 C 0.81072 0.72516 0.80636 0.0
C618 C 0.79909 0.75476 0.80521 0.0
C619 C 0.85219 0.73734 0.81582 0.0
C620 C 0.95589 0.82973 0.85364 0.0
H621 H 0.13455 0.82909 0.82323 0.0
H622 H 0.06606 0.79799 0.83994 0.0
H623 H 0.01943 0.87602 0.87158 0.0
H624 H 0.82198 0.82038 0.81338 0.0
H625 H 0.89368 0.84141 0.82845 0.0
H626 H 0.92173 0.74372 0.79296 0.0
C627 C 0.07934 0.82799 0.83223 0.0
C628 C -0.00177 0.8466 0.85505 0.0
C629 C 0.11847 0.84585 0.82286 0.0
C630 C 0.8297 0.79667 0.81422 0.0
C631 C 0.87099 0.80878 0.82324 0.0
C632 C 0.94252 0.7718 0.81124 0.0
C633 C 0.0568 0.84793 0.83012 0.0
C634 C 0.013 0.82661 0.83408 0.0
C635 C 0.88292 0.77937 0.82396 0.0
C636 C 0.92747 0.79301 0.83059 0.0
H637 H 0.12542 0.93305 0.80031 0.0
H638 H 0.05767 0.90252 0.81781 0.0
H639 H -0.00439 0.77258 0.79645 0.0
H640 H 0.78784 0.69261 0.79983 0.0
H641 H 0.86017 0.71382 0.81647 0.0
C642 C 0.8905 0.17479 0.70612 0.0
C643 C 0.92617 0.1898 0.69088 0.0
C644 C 0.8622 0.13249 0.7013 0.0
C645 C 0.83134 0.03067 0.65069 0.0
H646 H 0.81092 0.99453 0.73954 0.0
C647 C 0.78398 0.88011 0.72086 0.0
C648 C 0.74487 0.85069 0.70179 0.0
C649 C 0.80472 0.91994 0.7136 0.0
C650 C 0.81643 0.00417 0.71452 0.0
H651 H 0.95829 0.17251 0.65624 0.0
H652 H 0.90913 0.09898 0.6481 0.0
H653 H 0.84504 0.06759 0.737 0.0
H654 H 0.69866 0.83887 0.65791 0.0
H655 H 0.73538 0.90888 0.6451 0.0
H656 H 0.80326 0.96674 0.62853 0.0
C657 C 0.90299 0.11976 0.66375 0.0
C658 C 0.8354 0.04596 0.71299 0.0
C659 C 0.93137 0.16193 0.66872 0.0
C660 C 0.72873 0.86087 0.67312 0.0
C661 C 0.74964 0.90093 0.66581 0.0
C662 C 0.81189 0.9886 0.6522 0.0
C663 C 0.8689 0.10451 0.68095 0.0
C664 C 0.84373 0.05977 0.68119 0.0
C665 C 0.78687 0.9312 0.68708 0.0
C666 C 0.80518 0.97516 0.68431 0.0
H667 H 0.88545 0.19544 0.72317 0.0
H668 H 0.83586 0.12154 0.71455 0.0
H669 H 0.83729 0.04052 0.62581 0.0
H670 H 0.79759 0.87307 0.74275 0.0
H671 H 0.83391 0.94253 0.72983 0.0
loop_
_geom_bond_atom_site_label_1
_geom_bond_atom_site_label_2
_geom_bond_distance
_geom_bond_site_symmetry_2
_ccdc_geom_bond_type
Sc0 O3 2.025 . S
Sc0 O10 2.105 . S
Sc0 O13 2.105 . S
Sc0 O16 2.105 . S
Sc0 O19 2.105 . S
Sc1 O3 2.025 . S
Sc1 O11 2.105 . S
Sc1 O15 2.105 . S
Sc1 O17 2.105 1_545 S
Sc1 O21 2.105 . S
Sc2 O3 2.025 . S
Sc2 O12 2.105 . S
Sc2 O14 2.105 . S
Sc2 O18 2.105 . S
Sc2 O20 2.105 . S
O3 Sc0 2.025 . S
O3 Sc1 2.025 . S
O3 Sc2 2.025 . S
C4 O10 1.268 . S
C4 O20 1.268 . S
C5 O11 1.268 . S
C5 O19 1.268 . S
C6 O12 1.268 . S
C6 O21 1.268 . S
C7 O13 1.268 1_565 S
C7 O17 1.268 . S
C8 O14 1.268 . S
C8 O16 1.268 . S
C9 O15 1.268 . S
C9 O18 1.268 . S
O10 Sc0 2.105 . S
O10 C4 1.268 . S
O11 Sc1 2.105 . S
O11 C5 1.268 . S
O12 Sc2 2.105 . S
O12 C6 1.268 . S
O13 Sc0 2.105 . S
O13 C7 1.268 1_545 S
O14 Sc2 2.105 . S
O14 C8 1.268 . S
O15 Sc1 2.105 . S
O15 C9 1.268 . S
O16 Sc0 2.105 . S
O16 C8 1.268 . S
O17 Sc1 2.105 1_565 S
O17 C7 1.268 . S
O18 Sc2 2.105 . S
O18 C9 1.268 . S
O19 Sc0 2.105 . S
O19 C5 1.268 . S
O20 Sc2 2.105 . S
O20 C4 1.268 . S
O21 Sc1 2.105 . S
O21 C6 1.268 . S
Sc22 O25 2.025 . S
Sc22 O32 2.105 . S
Sc22 O35 2.105 . S
Sc22 O38 2.105 . S
Sc22 O41 2.105 . S
Sc23 O25 2.025 . S
Sc23 O33 2.105 . S
Sc23 O37 2.105 . S
Sc23 O39 2.105 . S
Sc23 O43 2.105 . S
Sc24 O25 2.025 . S
Sc24 O34 2.105 . S
Sc24 O36 2.105 . S
Sc24 O40 2.105 . S
Sc24 O42 2.105 . S
O25 Sc22 2.025 . S
O25 Sc23 2.025 . S
O25 Sc24 2.025 . S
C26 O32 1.268 . S
C26 O42 1.268 . S
C27 O33 1.268 . S
C27 O41 1.268 . S
C28 O34 1.268 . S
C28 O43 1.268 . S
C29 O35 1.268 . S
C29 O39 1.268 . S
C30 O36 1.268 . S
C30 O38 1.268 . S
C31 O37 1.268 . S
C31 O40 1.268 . S
O32 Sc22 2.105 . S
O32 C26 1.268 . S
O33 Sc23 2.105 . S
O33 C27 1.268 . S
O34 Sc24 2.105 . S
O34 C28 1.268 . S
O35 Sc22 2.105 . S
O35 C29 1.268 . S
O36 Sc24 2.105 . S
O36 C30 1.268 . S
O37 Sc23 2.105 . S
O37 C31 1.268 . S
O38 Sc22 2.105 . S
O38 C30 1.268 . S
O39 Sc23 2.105 . S
O39 C29 1.268 . S
O40 Sc24 2.105 . S
O40 C31 1.268 . S
O41 Sc22 2.105 . S
O41 C27 1.268 . S
O42 Sc24 2.105 . S
O42 C26 1.268 . S
O43 Sc23 2.105 . S
O43 C28 1.268 . S
Sc44 O47 2.025 . S
Sc44 O54 2.105 . S
Sc44 O57 2.105 . S
Sc44 O60 2.105 . S
Sc44 O63 2.105 . S
Sc45 O47 2.025 . S
Sc45 O55 2.105 . S
Sc45 O59 2.105 . S
Sc45 O61 2.105 1_655 S
Sc45 O65 2.105 . S
Sc46 O47 2.025 . S
Sc46 O56 2.105 . S
Sc46 O58 2.105 . S
Sc46 O62 2.105 . S
Sc46 O64 2.105 . S
O47 Sc44 2.025 . S
O47 Sc45 2.025 . S
O47 Sc46 2.025 . S
C48 O54 1.268 . S
C48 O64 1.268 . S
C49 O55 1.268 . S
C49 O63 1.268 . S
C50 O56 1.268 . S
C50 O65 1.268 . S
C51 O57 1.277 . S
C51 O61 1.272 1_655 S
C52 O58 1.268 . S
C52 O60 1.268 . S
C53 O59 1.268 . S
C53 O62 1.268 . S
O54 Sc44 2.105 . S
O54 C48 1.268 . S
O55 Sc45 2.105 . S
O55 C49 1.268 . S
O56 Sc46 2.105 . S
O56 C50 1.268 . S
O57 Sc44 2.105 . S
O57 C51 1.277 . S
O58 Sc46 2.105 . S
O58 C52 1.268 . S
O59 Sc45 2.105 . S
O59 C53 1.268 . S
O60 Sc44 2.105 . S
O60 C52 1.268 . S
O61 Sc45 2.105 1_455 S
O61 C51 1.272 1_455 S
O62 Sc46 2.105 . S
O62 C53 1.268 . S
O63 Sc44 2.105 . S
O63 C49 1.268 . S
O64 Sc46 2.105 . S
O64 C48 1.268 . S
O65 Sc45 2.105 . S
O65 C50 1.268 . S
Sc66 O69 2.025 . S
Sc66 O76 2.105 . S
Sc66 O79 2.105 . S
Sc66 O82 2.105 . S
Sc66 O85 2.105 . S
Sc67 O69 2.025 . S
Sc67 O77 2.105 1_455 S
Sc67 O81 2.105 . S
Sc67 O83 2.105 . S
Sc67 O87 2.105 . S
Sc68 O69 2.025 . S
Sc68 O78 2.105 . S
Sc68 O80 2.105 . S
Sc68 O84 2.105 . S
Sc68 O86 2.105 . S
O69 Sc66 2.025 . S
O69 Sc67 2.025 . S
O69 Sc68 2.025 . S
C70 O76 1.268 . S
C70 O86 1.268 . S
C71 O77 1.268 . S
C71 O85 1.268 1_655 S
C72 O78 1.268 . S
C72 O87 1.268 . S
C73 O79 1.268 . S
C73 O83 1.268 . S
C74 O80 1.268 . S
C74 O82 1.268 . S
C75 O81 1.268 . S
C75 O84 1.268 . S
O76 Sc66 2.105 . S
O76 C70 1.268 . S
O77 Sc67 2.105 1_655 S
O77 C71 1.268 . S
O78 Sc68 2.105 . S
O78 C72 1.268 . S
O79 Sc66 2.105 . S
O79 C73 1.268 . S
O80 Sc68 2.105 . S
O80 C74 1.268 . S
O81 Sc67 2.105 . S
O81 C75 1.268 . S
O82 Sc66 2.105 . S
O82 C74 1.268 . S
O83 Sc67 2.105 . S
O83 C73 1.268 . S
O84 Sc68 2.105 . S
O84 C75 1.268 . S
O85 Sc66 2.105 . S
O85 C71 1.268 1_455 S
O86 Sc68 2.105 . S
O86 C70 1.268 . S
O87 Sc67 2.105 . S
O87 C72 1.268 . S
Sc88 O91 2.025 . S
Sc88 O98 2.105 . S
Sc88 O101 2.105 . S
Sc88 O104 2.105 . S
Sc88 O107 2.105 . S
Sc89 O91 2.025 . S
Sc89 O99 2.105 1_565 S
Sc89 O103 2.105 . S
Sc89 O105 2.105 . S
Sc89 O109 2.105 . S
Sc90 O91 2.025 . S
Sc90 O100 2.105 . S
Sc90 O102 2.105 . S
Sc90 O106 2.105 . S
Sc90 O108 2.105 . S
O91 Sc88 2.025 . S
O91 Sc89 2.025 . S
O91 Sc90 2.025 . S
C92 O98 1.268 . S
C92 O108 1.268 . S
C93 O99 1.272 1_565 S
C93 O107 1.277 . S
C94 O100 1.268 . S
C94 O109 1.268 . S
C95 O101 1.268 . S
C95 O105 1.268 . S
C96 O102 1.268 . S
C96 O104 1.268 . S
C97 O103 1.268 . S
C97 O106 1.268 . S
O98 Sc88 2.105 . S
O98 C92 1.268 . S
O99 Sc89 2.105 1_545 S
O99 C93 1.272 1_545 S
O100 Sc90 2.105 . S
O100 C94 1.268 . S
O101 Sc88 2.105 . S
O101 C95 1.268 . S
O102 Sc90 2.105 . S
O102 C96 1.268 . S
O103 Sc89 2.105 . S
O103 C97 1.268 . S
O104 Sc88 2.105 . S
O104 C96 1.268 . S
O105 Sc89 2.105 . S
O105 C95 1.268 . S
O106 Sc90 2.105 . S
O106 C97 1.268 . S
O107 Sc88 2.105 . S
O107 C93 1.277 . S
O108 Sc90 2.105 . S
O108 C92 1.268 . S
O109 Sc89 2.105 . S
O109 C94 1.268 . S
Sc110 O113 2.025 . S
Sc110 O120 2.105 . S
Sc110 O123 2.105 . S
Sc110 O126 2.105 . S
Sc110 O129 2.105 . S
Sc111 O113 2.025 . S
Sc111 O121 2.105 . S
Sc111 O125 2.105 . S
Sc111 O127 2.105 . S
Sc111 O131 2.105 . S
Sc112 O113 2.025 . S
Sc112 O122 2.105 . S
Sc112 O124 2.105 . S
Sc112 O128 2.105 . S
Sc112 O130 2.105 . S
O113 Sc110 2.025 . S
O113 Sc111 2.025 . S
O113 Sc112 2.025 . S
C114 O120 1.268 . S
C114 O130 1.268 . S
C115 O121 1.268 . S
C115 O129 1.268 . S
C116 O122 1.268 . S
C116 O131 1.268 . S
C117 O123 1.268 . S
C117 O127 1.268 . S
C118 O124 1.268 . S
C118 O126 1.268 . S
C119 O125 1.268 . S
C119 O128 1.268 . S
O120 Sc110 2.105 . S
O120 C114 1.268 . S
O121 Sc111 2.105 . S
O121 C115 1.268 . S
O122 Sc112 2.105 . S
O122 C116 1.268 . S
O123 Sc110 2.105 . S
O123 C117 1.268 . S
O124 Sc112 2.105 . S
O124 C118 1.268 . S
O125 Sc111 2.105 . S
O125 C119 1.268 . S
O126 Sc110 2.105 . S
O126 C118 1.268 . S
O127 Sc111 2.105 . S
O127 C117 1.268 . S
O128 Sc112 2.105 . S
O128 C119 1.268 . S
O129 Sc110 2.105 . S
O129 C115 1.268 . S
O130 Sc112 2.105 . S
O130 C114 1.268 . S
O131 Sc111 2.105 . S
O131 C116 1.268 . S
C132 C133 1.349 . S
C132 C134 1.327 . S
C132 H157 0.950 . S
C133 C132 1.349 . S
C133 C149 1.349 1_565 S
C134 C132 1.327 . S
C134 C153 1.429 . S
C134 H158 0.950 . S
C135 C152 1.574 1_556 S
C135 C154 1.368 . S
C135 H159 0.949 . S
H136 C140 0.949 . S
C137 C138 1.349 . S
C137 C139 1.327 . S
C137 H160 0.950 . S
C138 C137 1.349 . S
C138 C150 1.370 . S
C139 C137 1.327 . S
C139 C155 1.429 . S
C139 H161 0.950 . S
C140 H136 0.949 . S
C140 C148 1.574 1_554 S
C140 C156 1.368 1_565 S
H141 C149 0.950 . S
H142 C147 0.950 . S
H143 C148 0.949 . S
H144 C150 0.929 1_565 S
H145 C151 0.950 . S
H146 C152 0.949 . S
C147 H142 0.950 . S
C147 C149 1.327 . S
C147 C153 1.429 1_545 S
C148 C140 1.574 1_556 S
C148 H143 0.949 . S
C148 C154 1.368 1_565 S
C149 C133 1.349 1_545 S
C149 H141 0.950 . S
C149 C147 1.327 . S
C150 C138 1.370 . S
C150 H144 0.929 1_545 S
C150 C151 1.326 1_545 S
C151 H145 0.950 . S
C151 C150 1.326 1_565 S
C151 C155 1.429 1_565 S
C152 C135 1.574 1_554 S
C152 H146 0.949 . S
C152 C156 1.368 . S
C153 C134 1.429 . S
C153 C147 1.429 1_565 S
C153 C154 1.523 1_565 S
C154 C135 1.368 . S
C154 C148 1.368 1_545 S
C154 C153 1.523 1_545 S
C155 C139 1.429 . S
C155 C151 1.429 1_545 S
C155 C156 1.523 . S
C156 C140 1.368 1_545 S
C156 C152 1.368 . S
C156 C155 1.523 . S
H157 C132 0.950 . S
H158 C134 0.950 . S
H159 C135 0.949 . S
H160 C137 0.950 . S
H161 C139 0.950 . S
C162 C163 1.349 . S
C162 C164 1.327 . S
C162 H187 0.950 . S
C163 C162 1.349 . S
C163 C179 1.349 . S
C164 C162 1.327 . S
C164 C183 1.429 . S
C164 H188 0.950 . S
C165 C182 1.574 . S
C165 C184 1.368 . S
C165 H189 0.949 . S
H166 C170 0.949 . S
C167 C168 1.349 . S
C167 C169 1.327 . S
C167 H190 0.950 . S
C168 C167 1.349 . S
C168 C180 1.349 . S
C169 C167 1.327 . S
C169 C185 1.429 . S
C169 H191 0.950 . S
C170 H166 0.949 . S
C170 C178 1.574 . S
C170 C186 1.368 . S
H171 C179 0.950 . S
H172 C177 0.950 . S
H173 C178 0.949 . S
H174 C180 0.950 . S
H175 C181 0.950 . S
H176 C182 0.949 . S
C177 H172 0.950 . S
C177 C179 1.327 . S
C177 C183 1.429 . S
C178 C170 1.574 . S
C178 H173 0.949 . S
C178 C184 1.368 . S
C179 C163 1.349 . S
C179 H171 0.950 . S
C179 C177 1.327 . S
C180 C168 1.349 . S
C180 H174 0.950 . S
C180 C181 1.327 . S
C181 H175 0.950 . S
C181 C180 1.327 . S
C181 C185 1.429 . S
C182 C165 1.574 . S
C182 H176 0.949 . S
C182 C186 1.368 . S
C183 C164 1.429 . S
C183 C177 1.429 . S
C183 C184 1.523 . S
C184 C165 1.368 . S
C184 C178 1.368 . S
C184 C183 1.523 . S
C185 C169 1.429 . S
C185 C181 1.429 . S
C185 C186 1.523 . S
C186 C170 1.368 . S
C186 C182 1.368 . S
C186 C185 1.523 . S
H187 C162 0.950 . S
H188 C164 0.950 . S
H189 C165 0.949 . S
H190 C167 0.950 . S
H191 C169 0.950 . S
C192 C193 1.349 . S
C192 C194 1.327 . S
C192 H217 0.950 . S
C193 C192 1.349 . S
C193 C209 1.349 . S
C194 C192 1.327 . S
C194 C213 1.429 . S
C194 H218 0.950 . S
C195 C212 1.574 1_554 S
C195 C214 1.368 1_455 S
C195 H219 0.949 . S
H196 C200 0.949 . S
C197 C198 1.349 . S
C197 C199 1.327 . S
C197 H220 0.950 . S
C198 C197 1.349 . S
C198 C210 1.349 1_455 S
C199 C197 1.327 . S
C199 C215 1.429 . S
C199 H221 0.950 . S
C200 H196 0.949 . S
C200 C208 1.574 1_556 S
C200 C216 1.368 1_655 S
H201 C209 0.950 1_455 S
H202 C207 0.950 . S
H203 C208 0.949 . S
H204 C210 0.950 . S
H205 C211 0.950 . S
H206 C212 0.949 . S
C207 H202 0.950 . S
C207 C209 1.327 1_455 S
C207 C213 1.429 1_455 S
C208 C200 1.574 1_554 S
C208 H203 0.949 . S
C208 C214 1.368 . S
C209 C193 1.349 . S
C209 H201 0.950 1_655 S
C209 C207 1.327 1_655 S
C210 C198 1.349 1_655 S
C210 H204 0.950 . S
C210 C211 1.327 . S
C211 H205 0.950 . S
C211 C210 1.327 . S
C211 C215 1.429 1_655 S
C212 C195 1.574 1_556 S
C212 H206 0.949 . S
C212 C216 1.368 . S
C213 C194 1.429 . S
C213 C207 1.429 1_655 S
C213 C214 1.523 . S
C214 C195 1.368 1_655 S
C214 C208 1.368 . S
C214 C213 1.523 . S
C215 C199 1.429 . S
C215 C211 1.429 1_455 S
C215 C216 1.523 . S
C216 C200 1.368 1_455 S
C216 C212 1.368 . S
C216 C215 1.523 . S
H217 C192 0.950 . S
H218 C194 0.950 . S
H219 C195 0.949 . S
H220 C197 0.950 . S
H221 C199 0.950 . S
C222 C223 1.346 . S
C222 C224 1.328 1_545 S
C222 H247 0.952 1_545 S
C223 C222 1.346 . S
C223 C239 1.349 . S
C224 C222 1.328 1_565 S
C224 C243 1.429 1_565 S
C224 H248 0.950 . S
C225 C242 1.574 . S
C225 C244 1.368 . S
C225 H249 0.949 . S
H226 C230 0.949 . S
C227 C228 1.349 . S
C227 C229 1.327 . S
C227 H250 0.950 . S
C228 C227 1.349 . S
C228 C240 1.349 . S
C229 C227 1.327 . S
C229 C245 1.429 . S
C229 H251 0.950 1_565 S
C230 H226 0.949 . S
C230 C238 1.574 . S
C230 C246 1.368 . S
H231 C239 0.950 . S
H232 C237 0.950 . S
H233 C238 0.949 . S
H234 C240 0.950 . S
H235 C241 0.950 . S
H236 C242 0.949 . S
C237 H232 0.950 . S
C237 C239 1.327 . S
C237 C243 1.429 . S
C238 C230 1.574 . S
C238 H233 0.949 . S
C238 C244 1.368 1_565 S
C239 C223 1.349 . S
C239 H231 0.950 . S
C239 C237 1.327 . S
C240 C228 1.349 . S
C240 H234 0.950 . S
C240 C241 1.327 . S
C241 H235 0.950 . S
C241 C240 1.327 . S
C241 C245 1.429 . S
C242 C225 1.574 . S
C242 H236 0.949 . S
C242 C246 1.368 1_545 S
C243 C224 1.429 1_545 S
C243 C237 1.429 . S
C243 C244 1.523 . S
C244 C225 1.368 . S
C244 C238 1.368 1_545 S
C244 C243 1.523 . S
C245 C229 1.429 . S
C245 C241 1.429 . S
C245 C246 1.523 . S
C246 C230 1.368 . S
C246 C242 1.368 1_565 S
C246 C245 1.523 . S
H247 C222 0.952 1_565 S
H248 C224 0.950 . S
H249 C225 0.949 . S
H250 C227 0.950 . S
H251 C229 0.950 1_545 S
C252 C253 1.349 . S
C252 C254 1.327 . S
C252 H277 0.950 . S
C253 C252 1.349 . S
C253 C269 1.349 . S
C254 C252 1.327 . S
C254 C273 1.429 . S
C254 H278 0.950 . S
C255 C272 1.572 . S
C255 C274 1.368 . S
C255 H279 0.949 . S
H256 C260 0.949 . S
C257 C258 1.349 . S
C257 C259 1.327 . S
C257 H280 0.950 . S
C258 C257 1.349 . S
C258 C270 1.349 . S
C259 C257 1.327 . S
C259 C275 1.429 . S
C259 H281 0.950 . S
C260 H256 0.949 . S
C260 C268 1.574 1_554 S
C260 C276 1.368 . S
H261 C269 0.950 . S
H262 C267 0.950 . S
H263 C268 0.949 . S
H264 C270 0.950 . S
H265 C271 0.950 . S
H266 C272 0.950 1_554 S
C267 H262 0.950 . S
C267 C269 1.327 . S
C267 C273 1.429 . S
C268 C260 1.574 1_556 S
C268 H263 0.949 . S
C268 C274 1.368 . S
C269 C253 1.349 . S
C269 H261 0.950 . S
C269 C267 1.327 . S
C270 C258 1.349 . S
C270 H264 0.950 . S
C270 C271 1.327 . S
C271 H265 0.950 . S
C271 C270 1.327 . S
C271 C275 1.429 . S
C272 C255 1.572 . S
C272 H266 0.950 1_556 S
C272 C276 1.369 1_556 S
C273 C254 1.429 . S
C273 C267 1.429 . S
C273 C274 1.523 . S
C274 C255 1.368 . S
C274 C268 1.368 . S
C274 C273 1.523 . S
C275 C259 1.429 . S
C275 C271 1.429 . S
C275 C276 1.523 . S
C276 C260 1.368 . S
C276 C272 1.369 1_554 S
C276 C275 1.523 . S
H277 C252 0.950 . S
H278 C254 0.950 . S
H279 C255 0.949 . S
H280 C257 0.950 . S
H281 C259 0.950 . S
C282 C283 1.349 . S
C282 C284 1.327 . S
C282 H307 0.950 . S
C283 C282 1.349 . S
C283 C299 1.349 . S
C284 C282 1.327 . S
C284 C303 1.429 . S
C284 H308 0.950 . S
C285 C302 1.574 . S
C285 C304 1.368 . S
C285 H309 0.949 . S
H286 C290 0.949 . S
C287 C288 1.349 . S
C287 C289 1.327 . S
C287 H310 0.950 . S
C288 C287 1.349 . S
C288 C300 1.349 . S
C289 C287 1.327 . S
C289 C305 1.429 . S
C289 H311 0.950 . S
C290 H286 0.949 . S
C290 C298 1.574 . S
C290 C306 1.368 . S
H291 C299 0.950 . S
H292 C297 0.950 . S
H293 C298 0.949 . S
H294 C300 0.950 . S
H295 C301 0.950 . S
H296 C302 0.949 . S
C297 H292 0.950 . S
C297 C299 1.327 . S
C297 C303 1.429 . S
C298 C290 1.574 . S
C298 H293 0.949 . S
C298 C304 1.368 . S
C299 C283 1.349 . S
C299 H291 0.950 . S
C299 C297 1.327 . S
C300 C288 1.349 . S
C300 H294 0.950 . S
C300 C301 1.327 . S
C301 H295 0.950 . S
C301 C300 1.327 . S
C301 C305 1.429 . S
C302 C285 1.574 . S
C302 H296 0.949 . S
C302 C306 1.368 . S
C303 C284 1.429 . S
C303 C297 1.429 . S
C303 C304 1.523 1_655 S
C304 C285 1.368 . S
C304 C298 1.368 . S
C304 C303 1.523 1_455 S
C305 C289 1.429 . S
C305 C301 1.429 . S
C305 C306 1.523 . S
C306 C290 1.368 . S
C306 C302 1.368 . S
C306 C305 1.523 . S
H307 C282 0.950 . S
H308 C284 0.950 . S
H309 C285 0.949 . S
H310 C287 0.950 . S
H311 C289 0.950 . S
C312 C313 1.349 . S
C312 C314 1.327 . S
C312 H337 0.950 . S
C313 C312 1.349 . S
C313 C329 1.349 . S
C314 C312 1.327 . S
C314 C333 1.429 . S
C314 H338 0.950 . S
C315 C332 1.574 . S
C315 C334 1.368 . S
C315 H339 0.949 . S
H316 C320 0.949 . S
C317 C318 1.349 . S
C317 C319 1.327 . S
C317 H340 0.950 . S
C318 C317 1.349 . S
C318 C330 1.349 . S
C319 C317 1.327 . S
C319 C335 1.429 . S
C319 H341 0.950 . S
C320 H316 0.949 . S
C320 C328 1.574 . S
C320 C336 1.368 . S
H321 C329 0.950 . S
H322 C327 0.950 . S
H323 C328 0.949 . S
H324 C330 0.950 . S
H325 C331 0.950 . S
H326 C332 0.949 . S
C327 H322 0.950 . S
C327 C329 1.327 . S
C327 C333 1.429 . S
C328 C320 1.574 . S
C328 H323 0.949 . S
C328 C334 1.368 . S
C329 C313 1.349 . S
C329 H321 0.950 . S
C329 C327 1.327 . S
C330 C318 1.349 . S
C330 H324 0.950 . S
C330 C331 1.327 . S
C331 H325 0.950 . S
C331 C330 1.327 . S
C331 C335 1.429 . S
C332 C315 1.574 . S
C332 H326 0.949 . S
C332 C336 1.368 . S
C333 C314 1.429 . S
C333 C327 1.429 . S
C333 C334 1.523 . S
C334 C315 1.368 . S
C334 C328 1.368 . S
C334 C333 1.523 . S
C335 C319 1.429 . S
C335 C331 1.429 . S
C335 C336 1.523 . S
C336 C320 1.368 . S
C336 C332 1.368 . S
C336 C335 1.523 . S
H337 C312 0.950 . S
H338 C314 0.950 . S
H339 C315 0.949 . S
H340 C317 0.950 . S
H341 C319 0.950 . S
C342 C343 1.349 . S
C342 C344 1.327 . S
C342 H367 0.950 . S
C343 C342 1.349 . S
C343 C359 1.349 . S
C344 C342 1.327 . S
C344 C363 1.429 . S
C344 H368 0.950 . S
C345 C362 1.574 . S
C345 C364 1.368 . S
C345 H369 0.949 . S
H346 C350 0.949 . S
C347 C348 1.349 . S
C347 C349 1.327 . S
C347 H370 0.950 . S
C348 C347 1.349 . S
C348 C360 1.349 . S
C349 C347 1.327 . S
C349 C365 1.429 . S
C349 H371 0.950 . S
C350 H346 0.949 . S
C350 C358 1.574 . S
C350 C366 1.368 . S
H351 C359 0.950 . S
H352 C357 0.950 . S
H353 C358 0.949 . S
H354 C360 0.950 . S
H355 C361 0.950 . S
H356 C362 0.949 . S
C357 H352 0.950 . S
C357 C359 1.327 . S
C357 C363 1.429 . S
C358 C350 1.574 . S
C358 H353 0.949 . S
C358 C364 1.368 . S
C359 C343 1.349 . S
C359 H351 0.950 . S
C359 C357 1.327 . S
C360 C348 1.349 . S
C360 H354 0.950 . S
C360 C361 1.327 . S
C361 H355 0.950 . S
C361 C360 1.327 . S
C361 C365 1.429 . S
C362 C345 1.574 . S
C362 H356 0.949 . S
C362 C366 1.368 . S
C363 C344 1.429 . S
C363 C357 1.429 . S
C363 C364 1.523 . S
C364 C345 1.368 . S
C364 C358 1.368 . S
C364 C363 1.523 . S
C365 C349 1.429 . S
C365 C361 1.429 . S
C365 C366 1.523 . S
C366 C350 1.368 . S
C366 C362 1.368 . S
C366 C365 1.523 . S
H367 C342 0.950 . S
H368 C344 0.950 . S
H369 C345 0.949 . S
H370 C347 0.950 . S
H371 C349 0.950 . S
C372 C373 1.349 . S
C372 C374 1.327 . S
C372 H397 0.950 . S
C373 C372 1.349 . S
C373 C389 1.349 . S
C374 C372 1.327 . S
C374 C393 1.429 . S
C374 H398 0.950 . S
C375 C392 1.574 . S
C375 C394 1.368 . S
C375 H399 0.949 . S
H376 C380 0.949 . S
C377 C378 1.349 . S
C377 C379 1.327 . S
C377 H400 0.950 . S
C378 C377 1.349 . S
C378 C390 1.349 . S
C379 C377 1.327 . S
C379 C395 1.429 . S
C379 H401 0.950 . S
C380 H376 0.949 . S
C380 C388 1.574 . S
C380 C396 1.368 . S
H381 C389 0.950 . S
H382 C387 0.950 . S
H383 C388 0.949 . S
H384 C390 0.950 . S
H385 C391 0.950 . S
H386 C392 0.949 . S
C387 H382 0.950 . S
C387 C389 1.327 . S
C387 C393 1.429 . S
C388 C380 1.574 . S
C388 H383 0.949 . S
C388 C394 1.368 . S
C389 C373 1.349 . S
C389 H381 0.950 . S
C389 C387 1.327 . S
C390 C378 1.349 . S
C390 H384 0.950 . S
C390 C391 1.327 . S
C391 H385 0.950 . S
C391 C390 1.327 . S
C391 C395 1.429 . S
C392 C375 1.574 . S
C392 H386 0.949 . S
C392 C396 1.368 . S
C393 C374 1.429 . S
C393 C387 1.429 . S
C393 C394 1.523 . S
C394 C375 1.368 . S
C394 C388 1.368 . S
C394 C393 1.523 . S
C395 C379 1.429 . S
C395 C391 1.429 . S
C395 C396 1.523 . S
C396 C380 1.368 . S
C396 C392 1.368 . S
C396 C395 1.523 . S
H397 C372 0.950 . S
H398 C374 0.950 . S
H399 C375 0.949 . S
H400 C377 0.950 . S
H401 C379 0.950 . S
C402 C403 1.349 . S
C402 C404 1.327 . S
C402 H427 0.950 . S
C403 C402 1.349 . S
C403 C419 1.349 . S
C404 C402 1.327 . S
C404 C423 1.429 . S
C404 H428 0.950 . S
C405 C422 1.574 . S
C405 C424 1.368 . S
C405 H429 0.949 . S
H406 C410 0.949 . S
C407 C408 1.349 . S
C407 C409 1.327 . S
C407 H430 0.950 . S
C408 C407 1.349 . S
C408 C420 1.349 . S
C409 C407 1.327 . S
C409 C425 1.429 . S
C409 H431 0.950 . S
C410 H406 0.949 . S
C410 C418 1.574 . S
C410 C426 1.368 . S
H411 C419 0.950 . S
H412 C417 0.950 . S
H413 C418 0.949 . S
H414 C420 0.950 . S
H415 C421 0.950 . S
H416 C422 0.949 . S
C417 H412 0.950 . S
C417 C419 1.327 . S
C417 C423 1.429 . S
C418 C410 1.574 . S
C418 H413 0.949 . S
C418 C424 1.368 . S
C419 C403 1.349 . S
C419 H411 0.950 . S
C419 C417 1.327 . S
C420 C408 1.349 . S
C420 H414 0.950 . S
C420 C421 1.327 . S
C421 H415 0.950 . S
C421 C420 1.327 . S
C421 C425 1.429 . S
C422 C405 1.574 . S
C422 H416 0.949 . S
C422 C426 1.368 . S
C423 C404 1.429 . S
C423 C417 1.429 . S
C423 C424 1.523 . S
C424 C405 1.368 . S
C424 C418 1.368 . S
C424 C423 1.523 . S
C425 C409 1.429 . S
C425 C421 1.429 . S
C425 C426 1.523 . S
C426 C410 1.368 . S
C426 C422 1.368 . S
C426 C425 1.523 . S
H427 C402 0.950 . S
H428 C404 0.950 . S
H429 C405 0.949 . S
H430 C407 0.950 . S
H431 C409 0.950 . S
C432 C433 1.349 . S
C432 C434 1.327 . S
C432 H457 0.950 . S
C433 C432 1.349 . S
C433 C449 1.349 . S
C434 C432 1.327 . S
C434 C453 1.429 . S
C434 H458 0.950 . S
C435 C452 1.574 . S
C435 C454 1.368 . S
C435 H459 0.949 . S
H436 C440 0.949 . S
C437 C438 1.349 . S
C437 C439 1.327 . S
C437 H460 0.950 . S
C438 C437 1.349 . S
C438 C450 1.349 . S
C439 C437 1.327 . S
C439 C455 1.429 . S
C439 H461 0.950 . S
C440 H436 0.949 . S
C440 C448 1.574 . S
C440 C456 1.368 . S
H441 C449 0.950 . S
H442 C447 0.950 . S
H443 C448 0.949 . S
H444 C450 0.950 . S
H445 C451 0.950 . S
H446 C452 0.949 . S
C447 H442 0.950 . S
C447 C449 1.327 . S
C447 C453 1.429 . S
C448 C440 1.574 . S
C448 H443 0.949 . S
C448 C454 1.368 . S
C449 C433 1.349 . S
C449 H441 0.950 . S
C449 C447 1.327 . S
C450 C438 1.349 . S
C450 H444 0.950 . S
C450 C451 1.327 . S
C451 H445 0.950 . S
C451 C450 1.327 . S
C451 C455 1.429 . S
C452 C435 1.574 . S
C452 H446 0.949 . S
C452 C456 1.368 . S
C453 C434 1.429 . S
C453 C447 1.429 . S
C453 C454 1.523 . S
C454 C435 1.368 . S
C454 C448 1.368 . S
C454 C453 1.523 . S
C455 C439 1.429 . S
C455 C451 1.429 . S
C455 C456 1.523 . S
C456 C440 1.368 . S
C456 C452 1.368 . S
C456 C455 1.523 . S
H457 C432 0.950 . S
H458 C434 0.950 . S
H459 C435 0.949 . S
H460 C437 0.950 . S
H461 C439 0.950 . S
C462 C463 1.349 . S
C462 C464 1.327 . S
C462 H487 0.950 . S
C463 C462 1.349 . S
C463 C479 1.349 . S
C464 C462 1.327 . S
C464 C483 1.429 . S
C464 H488 0.950 . S
C465 C482 1.574 . S
C465 C484 1.368 . S
C465 H489 0.949 . S
H466 C470 0.949 . S
C467 C468 1.349 . S
C467 C469 1.327 . S
C467 H490 0.950 . S
C468 C467 1.349 . S
C468 C480 1.349 . S
C469 C467 1.327 . S
C469 C485 1.429 . S
C469 H491 0.950 . S
C470 H466 0.949 . S
C470 C478 1.574 . S
C470 C486 1.368 . S
H471 C479 0.950 . S
H472 C477 0.950 . S
H473 C478 0.949 . S
H474 C480 0.950 . S
H475 C481 0.950 . S
H476 C482 0.949 . S
C477 H472 0.950 . S
C477 C479 1.327 . S
C477 C483 1.429 . S
C478 C470 1.574 . S
C478 H473 0.949 . S
C478 C484 1.368 . S
C479 C463 1.349 . S
C479 H471 0.950 . S
C479 C477 1.327 . S
C480 C468 1.349 . S
C480 H474 0.950 . S
C480 C481 1.327 . S
C481 H475 0.950 . S
C481 C480 1.327 . S
C481 C485 1.429 . S
C482 C465 1.574 . S
C482 H476 0.949 . S
C482 C486 1.368 . S
C483 C464 1.429 . S
C483 C477 1.429 . S
C483 C484 1.523 . S
C484 C465 1.368 . S
C484 C478 1.368 . S
C484 C483 1.523 . S
C485 C469 1.429 . S
C485 C481 1.429 . S
C485 C486 1.523 . S
C486 C470 1.368 . S
C486 C482 1.368 . S
C486 C485 1.523 . S
H487 C462 0.950 . S
H488 C464 0.950 . S
H489 C465 0.949 . S
H490 C467 0.950 . S
H491 C469 0.950 . S
C492 C493 1.349 . S
C492 C494 1.327 . S
C492 H517 0.950 . S
C493 C492 1.349 . S
C493 C509 1.349 . S
C494 C492 1.327 . S
C494 C513 1.429 . S
C494 H518 0.950 . S
C495 C512 1.574 . S
C495 C514 1.368 . S
C495 H519 0.949 . S
H496 C500 0.949 . S
C497 C498 1.349 . S
C497 C499 1.327 . S
C497 H520 0.950 . S
C498 C497 1.349 . S
C498 C510 1.349 . S
C499 C497 1.327 . S
C499 C515 1.429 . S
C499 H521 0.950 . S
C500 H496 0.949 . S
C500 C508 1.574 . S
C500 C516 1.368 . S
H501 C509 0.950 . S
H502 C507 0.950 . S
H503 C508 0.949 . S
H504 C510 0.950 1_655 S
H505 C511 0.950 . S
H506 C512 0.949 . S
C507 H502 0.950 . S
C507 C509 1.327 . S
C507 C513 1.429 . S
C508 C500 1.574 . S
C508 H503 0.949 . S
C508 C514 1.368 . S
C509 C493 1.349 . S
C509 H501 0.950 . S
C509 C507 1.327 . S
C510 C498 1.349 . S
C510 H504 0.950 1_455 S
C510 C511 1.327 . S
C511 H505 0.950 . S
C511 C510 1.327 . S
C511 C515 1.429 . S
C512 C495 1.574 . S
C512 H506 0.949 . S
C512 C516 1.368 . S
C513 C494 1.429 . S
C513 C507 1.429 . S
C513 C514 1.523 . S
C514 C495 1.368 . S
C514 C508 1.368 . S
C514 C513 1.523 . S
C515 C499 1.429 . S
C515 C511 1.429 . S
C515 C516 1.523 . S
C516 C500 1.368 . S
C516 C512 1.368 . S
C516 C515 1.523 . S
H517 C492 0.950 . S
H518 C494 0.950 . S
H519 C495 0.949 . S
H520 C497 0.950 . S
H521 C499 0.950 . S
C522 C523 1.349 . S
C522 C524 1.327 . S
C522 H547 0.950 . S
C523 C522 1.349 . S
C523 C539 1.349 . S
C524 C522 1.327 . S
C524 C543 1.429 . S
C524 H548 0.950 . S
C525 C542 1.574 . S
C525 C544 1.368 1_455 S
C525 H549 0.949 . S
H526 C530 0.949 . S
C527 C528 1.349 . S
C527 C529 1.327 . S
C527 H550 0.950 . S
C528 C527 1.349 . S
C528 C540 1.349 . S
C529 C527 1.327 . S
C529 C545 1.429 . S
C529 H551 0.950 . S
C530 H526 0.949 . S
C530 C538 1.574 . S
C530 C546 1.368 . S
H531 C539 0.950 . S
H532 C537 0.950 . S
H533 C538 0.949 1_655 S
H534 C540 0.950 . S
H535 C541 0.950 . S
H536 C542 0.949 . S
C537 H532 0.950 . S
C537 C539 1.327 . S
C537 C543 1.429 . S
C538 C530 1.574 . S
C538 H533 0.949 1_455 S
C538 C544 1.368 1_455 S
C539 C523 1.349 . S
C539 H531 0.950 . S
C539 C537 1.327 . S
C540 C528 1.349 . S
C540 H534 0.950 . S
C540 C541 1.327 . S
C541 H535 0.950 . S
C541 C540 1.327 . S
C541 C545 1.429 . S
C542 C525 1.574 . S
C542 H536 0.949 . S
C542 C546 1.368 . S
C543 C524 1.429 . S
C543 C537 1.429 . S
C543 C544 1.523 . S
C544 C525 1.368 1_655 S
C544 C538 1.368 1_655 S
C544 C543 1.523 . S
C545 C529 1.429 . S
C545 C541 1.429 . S
C545 C546 1.523 . S
C546 C530 1.368 . S
C546 C542 1.368 . S
C546 C545 1.523 . S
H547 C522 0.950 . S
H548 C524 0.950 . S
H549 C525 0.949 . S
H550 C527 0.950 . S
H551 C529 0.950 . S
C552 C553 1.349 . S
C552 C554 1.327 . S
C552 H577 0.950 . S
C553 C552 1.349 . S
C553 C569 1.349 . S
C554 C552 1.327 . S
C554 C573 1.429 . S
C554 H578 0.950 . S
C555 C572 1.574 . S
C555 C574 1.368 1_565 S
C555 H579 0.949 1_565 S
H556 C560 0.949 . S
C557 C558 1.349 . S
C557 C559 1.327 . S
C557 H580 0.950 . S
C558 C557 1.349 . S
C558 C570 1.349 . S
C559 C557 1.327 . S
C559 C575 1.429 . S
C559 H581 0.950 . S
C560 H556 0.949 . S
C560 C568 1.574 . S
C560 C576 1.368 . S
H561 C569 0.950 . S
H562 C567 0.950 . S
H563 C568 0.949 . S
H564 C570 0.950 . S
H565 C571 0.950 . S
H566 C572 0.949 . S
C567 H562 0.950 . S
C567 C569 1.327 . S
C567 C573 1.429 . S
C568 C560 1.574 . S
C568 H563 0.949 . S
C568 C574 1.368 1_565 S
C569 C553 1.349 . S
C569 H561 0.950 . S
C569 C567 1.327 . S
C570 C558 1.349 . S
C570 H564 0.950 . S
C570 C571 1.327 . S
C571 H565 0.950 . S
C571 C570 1.327 . S
C571 C575 1.429 . S
C572 C555 1.574 . S
C572 H566 0.949 . S
C572 C576 1.368 . S
C573 C554 1.429 . S
C573 C567 1.429 . S
C573 C574 1.523 . S
C574 C555 1.368 1_545 S
C574 C568 1.368 1_545 S
C574 C573 1.523 . S
C575 C559 1.429 . S
C575 C571 1.429 . S
C575 C576 1.523 . S
C576 C560 1.368 . S
C576 C572 1.368 . S
C576 C575 1.523 . S
H577 C552 0.950 . S
H578 C554 0.950 . S
H579 C555 0.949 1_545 S
H580 C557 0.950 . S
H581 C559 0.950 . S
C582 C583 1.349 . S
C582 C584 1.327 . S
C582 H607 0.950 . S
C583 C582 1.349 . S
C583 C599 1.349 . S
C584 C582 1.327 . S
C584 C603 1.429 . S
C584 H608 0.950 . S
C585 C602 1.574 . S
C585 C604 1.368 . S
C585 H609 0.949 . S
H586 C590 0.949 . S
C587 C588 1.349 . S
C587 C589 1.327 . S
C587 H610 0.950 . S
C588 C587 1.349 . S
C588 C600 1.349 . S
C589 C587 1.327 . S
C589 C605 1.429 . S
C589 H611 0.950 . S
C590 H586 0.949 . S
C590 C598 1.574 . S
C590 C606 1.368 . S
H591 C599 0.950 . S
H592 C597 0.950 . S
H593 C598 0.949 . S
H594 C600 0.950 . S
H595 C601 0.950 . S
H596 C602 0.949 . S
C597 H592 0.950 . S
C597 C599 1.327 . S
C597 C603 1.429 . S
C598 C590 1.574 . S
C598 H593 0.949 . S
C598 C604 1.368 . S
C599 C583 1.349 . S
C599 H591 0.950 . S
C599 C597 1.327 . S
C600 C588 1.349 . S
C600 H594 0.950 . S
C600 C601 1.327 . S
C601 H595 0.950 . S
C601 C600 1.327 . S
C601 C605 1.429 . S
C602 C585 1.574 . S
C602 H596 0.949 . S
C602 C606 1.368 . S
C603 C584 1.429 . S
C603 C597 1.429 . S
C603 C604 1.523 . S
C604 C585 1.368 . S
C604 C598 1.368 . S
C604 C603 1.523 . S
C605 C589 1.429 . S
C605 C601 1.429 . S
C605 C606 1.523 . S
C606 C590 1.368 . S
C606 C602 1.368 . S
C606 C605 1.523 . S
H607 C582 0.950 . S
H608 C584 0.950 . S
H609 C585 0.949 . S
H610 C587 0.950 . S
H611 C589 0.950 . S
C612 C613 1.349 . S
C612 C614 1.327 . S
C612 H637 0.950 . S
C613 C612 1.349 . S
C613 C629 1.349 . S
C614 C612 1.327 . S
C614 C633 1.429 . S
C614 H638 0.950 . S
C615 C632 1.574 . S
C615 C634 1.368 1_655 S
C615 H639 0.949 . S
H616 C620 0.949 . S
C617 C618 1.349 . S
C617 C619 1.327 . S
C617 H640 0.950 . S
C618 C617 1.349 . S
C618 C630 1.349 . S
C619 C617 1.327 . S
C619 C635 1.429 . S
C619 H641 0.950 . S
C620 H616 0.949 . S
C620 C628 1.574 . S
C620 C636 1.368 . S
H621 C629 0.950 . S
H622 C627 0.950 . S
H623 C628 0.949 1_455 S
H624 C630 0.950 . S
H625 C631 0.950 . S
H626 C632 0.949 . S
C627 H622 0.950 . S
C627 C629 1.327 . S
C627 C633 1.429 . S
C628 C620 1.574 . S
C628 H623 0.949 1_655 S
C628 C634 1.368 1_655 S
C629 C613 1.349 . S
C629 H621 0.950 . S
C629 C627 1.327 . S
C630 C618 1.349 . S
C630 H624 0.950 . S
C630 C631 1.327 . S
C631 H625 0.950 . S
C631 C630 1.327 . S
C631 C635 1.429 . S
C632 C615 1.574 . S
C632 H626 0.949 . S
C632 C636 1.368 . S
C633 C614 1.429 . S
C633 C627 1.429 . S
C633 C634 1.523 . S
C634 C615 1.368 1_455 S
C634 C628 1.368 1_455 S
C634 C633 1.523 . S
C635 C619 1.429 . S
C635 C631 1.429 . S
C635 C636 1.523 . S
C636 C620 1.368 . S
C636 C632 1.368 . S
C636 C635 1.523 . S
H637 C612 0.950 . S
H638 C614 0.950 . S
H639 C615 0.949 . S
H640 C617 0.950 . S
H641 C619 0.950 . S
C642 C643 1.349 . S
C642 C644 1.327 . S
C642 H667 0.950 . S
C643 C642 1.349 . S
C643 C659 1.349 . S
C644 C642 1.327 . S
C644 C663 1.429 . S
C644 H668 0.950 . S
C645 C662 1.574 . S
C645 C664 1.368 . S
C645 H669 0.949 . S
H646 C650 0.949 . S
C647 C648 1.349 . S
C647 C649 1.327 . S
C647 H670 0.950 . S
C648 C647 1.349 . S
C648 C660 1.349 . S
C649 C647 1.327 . S
C649 C665 1.429 . S
C649 H671 0.950 . S
C650 H646 0.949 . S
C650 C658 1.574 . S
C650 C666 1.368 1_545 S
H651 C659 0.950 . S
H652 C657 0.950 . S
H653 C658 0.949 . S
H654 C660 0.950 . S
H655 C661 0.950 . S
H656 C662 0.949 1_565 S
C657 H652 0.950 . S
C657 C659 1.327 . S
C657 C663 1.429 . S
C658 C650 1.574 . S
C658 H653 0.949 . S
C658 C664 1.368 . S
C659 C643 1.349 . S
C659 H651 0.950 . S
C659 C657 1.327 . S
C660 C648 1.349 . S
C660 H654 0.950 . S
C660 C661 1.327 . S
C661 H655 0.950 . S
C661 C660 1.327 . S
C661 C665 1.429 . S
C662 C645 1.574 . S
C662 H656 0.949 1_545 S
C662 C666 1.368 1_545 S
C663 C644 1.429 . S
C663 C657 1.429 . S
C663 C664 1.523 . S
C664 C645 1.368 . S
C664 C658 1.368 . S
C664 C663 1.523 . S
C665 C649 1.429 . S
C665 C661 1.429 . S
C665 C666 1.523 . S
C666 C650 1.368 1_565 S
C666 C662 1.368 1_565 S
C666 C665 1.523 . S
H667 C642 0.950 . S
H668 C644 0.950 . S
H669 C645 0.949 . S
H670 C647 0.950 . S
H671 C649 0.950 . S
C133 C94 0.419 . S
C138 C5 0.447 . S
C163 C115 1.317 . S
C168 C28 1.290 . S
C193 C49 2.261 . S
C198 C72 2.333 . S
C223 C9 2.333 . S
C228 C95 2.261 . S
C253 C119 1.290 . S
C258 C29 1.317 . S
C283 C53 0.419 . S
C288 C73 0.447 . S
C313 C6 1.276 . S
C318 C48 1.188 . S
C343 C27 1.135 . S
C348 C4 1.100 . S
C373 C50 1.162 . S
C378 C26 1.123 . S
C403 C75 1.276 . S
C408 C96 1.188 . S
C433 C97 1.162 . S
C438 C118 1.123 . S
C463 C74 1.100 . S
C468 C117 1.135 . S
C493 C8 1.155 . S
C498 C51 1.188 1_455 S
C523 C30 1.154 . S
C528 C7 1.184 . S
C553 C52 1.183 . S
C558 C31 1.228 . S
C583 C70 1.155 . S
C588 C93 1.188 1_545 S
C613 C92 1.183 . S
C618 C116 1.228 . S
C643 C71 1.184 . S
C648 C114 1.154 . S
