# Generated by pormake.
# Topology unx, (4)-cn, num edge types: 1
# Building blocks:
#     Node 0, Type 0, BuildingBlock: KUFVIS_clean_sbu_0, # of connection points: 4
#     Node 1, Type 0, BuildingBlock: KUFVIS_clean_sbu_0, # of connection points: 4
#     Node 2, Type 0, BuildingBlock: KUFVIS_clean_sbu_0, # of connection points: 4
#     Node 3, Type 0, BuildingBlock: KUFVIS_clean_sbu_0, # of connection points: 4
#     Node 4, Type 0, BuildingBlock: KUFVIS_clean_sbu_0, # of connection points: 4
#     Node 5, Type 0, BuildingBlock: KUFVIS_clean_sbu_0, # of connection points: 4
#     Node 6, Type 0, BuildingBlock: KUFVIS_clean_sbu_0, # of connection points: 4
#     Node 7, Type 0, BuildingBlock: KUFVIS_clean_sbu_0, # of connection points: 4
#     Node 8, Type 0, BuildingBlock: KUFVIS_clean_sbu_0, # of connection points: 4
#     Node 9, Type 0, BuildingBlock: KUFVIS_clean_sbu_0, # of connection points: 4
#     Node 10, Type 0, BuildingBlock: KUFVIS_clean_sbu_0, # of connection points: 4
#     Node 11, Type 0, BuildingBlock: KUFVIS_clean_sbu_0, # of connection points: 4
#     Node 12, Type 0, BuildingBlock: KUFVIS_clean_sbu_0, # of connection points: 4
#     Node 13, Type 0, BuildingBlock: KUFVIS_clean_sbu_0, # of connection points: 4
#     Node 14, Type 0, BuildingBlock: KUFVIS_clean_sbu_0, # of connection points: 4
#     Node 15, Type 0, BuildingBlock: KUFVIS_clean_sbu_0, # of connection points: 4
#     Node 16, Type 0, BuildingBlock: KUFVIS_clean_sbu_0, # of connection points: 4
#     Node 17, Type 0, BuildingBlock: KUFVIS_clean_sbu_0, # of connection points: 4
#     Node 18, Type 0, BuildingBlock: KUFVIS_clean_sbu_0, # of connection points: 4
#     Node 19, Type 0, BuildingBlock: KUFVIS_clean_sbu_0, # of connection points: 4
#     Node 20, Type 0, BuildingBlock: KUFVIS_clean_sbu_0, # of connection points: 4
#     Node 21, Type 0, BuildingBlock: KUFVIS_clean_sbu_0, # of connection points: 4
#     Node 22, Type 0, BuildingBlock: KUFVIS_clean_sbu_0, # of connection points: 4
#     Node 23, Type 0, BuildingBlock: KUFVIS_clean_sbu_0, # of connection points: 4
#     Node 24, Type 0, BuildingBlock: KUFVIS_clean_sbu_0, # of connection points: 4
#     Node 25, Type 0, BuildingBlock: KUFVIS_clean_sbu_0, # of connection points: 4
#     Node 26, Type 0, BuildingBlock: KUFVIS_clean_sbu_0, # of connection points: 4
#     Node 27, Type 0, BuildingBlock: KUFVIS_clean_sbu_0, # of connection points: 4
#     Node 28, Type 0, BuildingBlock: KUFVIS_clean_sbu_0, # of connection points: 4
#     Node 29, Type 0, BuildingBlock: KUFVIS_clean_sbu_0, # of connection points: 4
#     Node 30, Type 0, BuildingBlock: KUFVIS_clean_sbu_0, # of connection points: 4
#     Node 31, Type 0, BuildingBlock: KUFVIS_clean_sbu_0, # of connection points: 4
#     Node 32, Type 0, BuildingBlock: KUFVIS_clean_sbu_0, # of connection points: 4
#     Node 33, Type 0, BuildingBlock: KUFVIS_clean_sbu_0, # of connection points: 4
#     Node 34, Type 0, BuildingBlock: KUFVIS_clean_sbu_0, # of connection points: 4
#     Node 35, Type 0, BuildingBlock: KUFVIS_clean_sbu_0, # of connection points: 4
#     Node 36, Type 0, BuildingBlock: KUFVIS_clean_sbu_0, # of connection points: 4
#     Node 37, Type 0, BuildingBlock: KUFVIS_clean_sbu_0, # of connection points: 4
#     Node 38, Type 0, BuildingBlock: KUFVIS_clean_sbu_0, # of connection points: 4
#     Node 39, Type 0, BuildingBlock: KUFVIS_clean_sbu_0, # of connection points: 4
#     Node 40, Type 0, BuildingBlock: KUFVIS_clean_sbu_0, # of connection points: 4
#     Node 41, Type 0, BuildingBlock: KUFVIS_clean_sbu_0, # of connection points: 4
#     Node 42, Type 0, BuildingBlock: KUFVIS_clean_sbu_0, # of connection points: 4
#     Node 43, Type 0, BuildingBlock: KUFVIS_clean_sbu_0, # of connection points: 4
#     Node 44, Type 0, BuildingBlock: KUFVIS_clean_sbu_0, # of connection points: 4
#     Node 45, Type 0, BuildingBlock: KUFVIS_clean_sbu_0, # of connection points: 4
#     Node 46, Type 0, BuildingBlock: KUFVIS_clean_sbu_0, # of connection points: 4
#     Node 47, Type 0, BuildingBlock: KUFVIS_clean_sbu_0, # of connection points: 4
#     Edge 48, Type (0, 0), BuildingBlock: MIFKUJ_clean_linker_0, # of connection points: 2
#     Edge 49, Type (0, 0), BuildingBlock: MIFKUJ_clean_linker_0, # of connection points: 2
#     Edge 50, Type (0, 0), BuildingBlock: MIFKUJ_clean_linker_0, # of connection points: 2
#     Edge 51, Type (0, 0), BuildingBlock: MIFKUJ_clean_linker_0, # of connection points: 2
#     Edge 52, Type (0, 0), BuildingBlock: MIFKUJ_clean_linker_0, # of connection points: 2
#     Edge 53, Type (0, 0), BuildingBlock: MIFKUJ_clean_linker_0, # of connection points: 2
#     Edge 54, Type (0, 0), BuildingBlock: MIFKUJ_clean_linker_0, # of connection points: 2
#     Edge 55, Type (0, 0), BuildingBlock: MIFKUJ_clean_linker_0, # of connection points: 2
#     Edge 56, Type (0, 0), BuildingBlock: MIFKUJ_clean_linker_0, # of connection points: 2
#     Edge 57, Type (0, 0), BuildingBlock: MIFKUJ_clean_linker_0, # of connection points: 2
#     Edge 58, Type (0, 0), BuildingBlock: MIFKUJ_clean_linker_0, # of connection points: 2
#     Edge 59, Type (0, 0), BuildingBlock: MIFKUJ_clean_linker_0, # of connection points: 2
#     Edge 60, Type (0, 0), BuildingBlock: MIFKUJ_clean_linker_0, # of connection points: 2
#     Edge 61, Type (0, 0), BuildingBlock: MIFKUJ_clean_linker_0, # of connection points: 2
#     Edge 62, Type (0, 0), BuildingBlock: MIFKUJ_clean_linker_0, # of connection points: 2
#     Edge 63, Type (0, 0), BuildingBlock: MIFKUJ_clean_linker_0, # of connection points: 2
#     Edge 64, Type (0, 0), BuildingBlock: MIFKUJ_clean_linker_0, # of connection points: 2
#     Edge 65, Type (0, 0), BuildingBlock: MIFKUJ_clean_linker_0, # of connection points: 2
#     Edge 66, Type (0, 0), BuildingBlock: MIFKUJ_clean_linker_0, # of connection points: 2
#     Edge 67, Type (0, 0), BuildingBlock: MIFKUJ_clean_linker_0, # of connection points: 2
#     Edge 68, Type (0, 0), BuildingBlock: MIFKUJ_clean_linker_0, # of connection points: 2
#     Edge 69, Type (0, 0), BuildingBlock: MIFKUJ_clean_linker_0, # of connection points: 2
#     Edge 70, Type (0, 0), BuildingBlock: MIFKUJ_clean_linker_0, # of connection points: 2
#     Edge 71, Type (0, 0), BuildingBlock: MIFKUJ_clean_linker_0, # of connection points: 2
#     Edge 72, Type (0, 0), BuildingBlock: MIFKUJ_clean_linker_0, # of connection points: 2
#     Edge 73, Type (0, 0), BuildingBlock: MIFKUJ_clean_linker_0, # of connection points: 2
#     Edge 74, Type (0, 0), BuildingBlock: MIFKUJ_clean_linker_0, # of connection points: 2
#     Edge 75, Type (0, 0), BuildingBlock: MIFKUJ_clean_linker_0, # of connection points: 2
#     Edge 76, Type (0, 0), BuildingBlock: MIFKUJ_clean_linker_0, # of connection points: 2
#     Edge 77, Type (0, 0), BuildingBlock: MIFKUJ_clean_linker_0, # of connection points: 2
#     Edge 78, Type (0, 0), BuildingBlock: MIFKUJ_clean_linker_0, # of connection points: 2
#     Edge 79, Type (0, 0), BuildingBlock: MIFKUJ_clean_linker_0, # of connection points: 2
#     Edge 80, Type (0, 0), BuildingBlock: MIFKUJ_clean_linker_0, # of connection points: 2
#     Edge 81, Type (0, 0), BuildingBlock: MIFKUJ_clean_linker_0, # of connection points: 2
#     Edge 82, Type (0, 0), BuildingBlock: MIFKUJ_clean_linker_0, # of connection points: 2
#     Edge 83, Type (0, 0), BuildingBlock: MIFKUJ_clean_linker_0, # of connection points: 2
#     Edge 84, Type (0, 0), BuildingBlock: MIFKUJ_clean_linker_0, # of connection points: 2
#     Edge 85, Type (0, 0), BuildingBlock: MIFKUJ_clean_linker_0, # of connection points: 2
#     Edge 86, Type (0, 0), BuildingBlock: MIFKUJ_clean_linker_0, # of connection points: 2
#     Edge 87, Type (0, 0), BuildingBlock: MIFKUJ_clean_linker_0, # of connection points: 2
#     Edge 88, Type (0, 0), BuildingBlock: MIFKUJ_clean_linker_0, # of connection points: 2
#     Edge 89, Type (0, 0), BuildingBlock: MIFKUJ_clean_linker_0, # of connection points: 2
#     Edge 90, Type (0, 0), BuildingBlock: MIFKUJ_clean_linker_0, # of connection points: 2
#     Edge 91, Type (0, 0), BuildingBlock: MIFKUJ_clean_linker_0, # of connection points: 2
#     Edge 92, Type (0, 0), BuildingBlock: MIFKUJ_clean_linker_0, # of connection points: 2
#     Edge 93, Type (0, 0), BuildingBlock: MIFKUJ_clean_linker_0, # of connection points: 2
#     Edge 94, Type (0, 0), BuildingBlock: MIFKUJ_clean_linker_0, # of connection points: 2
#     Edge 95, Type (0, 0), BuildingBlock: MIFKUJ_clean_linker_0, # of connection points: 2
#     Edge 96, Type (0, 0), BuildingBlock: MIFKUJ_clean_linker_0, # of connection points: 2
#     Edge 97, Type (0, 0), BuildingBlock: MIFKUJ_clean_linker_0, # of connection points: 2
#     Edge 98, Type (0, 0), BuildingBlock: MIFKUJ_clean_linker_0, # of connection points: 2
#     Edge 99, Type (0, 0), BuildingBlock: MIFKUJ_clean_linker_0, # of connection points: 2
#     Edge 100, Type (0, 0), BuildingBlock: MIFKUJ_clean_linker_0, # of connection points: 2
#     Edge 101, Type (0, 0), BuildingBlock: MIFKUJ_clean_linker_0, # of connection points: 2
#     Edge 102, Type (0, 0), BuildingBlock: MIFKUJ_clean_linker_0, # of connection points: 2
#     Edge 103, Type (0, 0), BuildingBlock: MIFKUJ_clean_linker_0, # of connection points: 2
#     Edge 104, Type (0, 0), BuildingBlock: MIFKUJ_clean_linker_0, # of connection points: 2
#     Edge 105, Type (0, 0), BuildingBlock: MIFKUJ_clean_linker_0, # of connection points: 2
#     Edge 106, Type (0, 0), BuildingBlock: MIFKUJ_clean_linker_0, # of connection points: 2
#     Edge 107, Type (0, 0), BuildingBlock: MIFKUJ_clean_linker_0, # of connection points: 2
#     Edge 108, Type (0, 0), BuildingBlock: MIFKUJ_clean_linker_0, # of connection points: 2
#     Edge 109, Type (0, 0), BuildingBlock: MIFKUJ_clean_linker_0, # of connection points: 2
#     Edge 110, Type (0, 0), BuildingBlock: MIFKUJ_clean_linker_0, # of connection points: 2
#     Edge 111, Type (0, 0), BuildingBlock: MIFKUJ_clean_linker_0, # of connection points: 2
#     Edge 112, Type (0, 0), BuildingBlock: MIFKUJ_clean_linker_0, # of connection points: 2
#     Edge 113, Type (0, 0), BuildingBlock: MIFKUJ_clean_linker_0, # of connection points: 2
#     Edge 114, Type (0, 0), BuildingBlock: MIFKUJ_clean_linker_0, # of connection points: 2
#     Edge 115, Type (0, 0), BuildingBlock: MIFKUJ_clean_linker_0, # of connection points: 2
#     Edge 116, Type (0, 0), BuildingBlock: MIFKUJ_clean_linker_0, # of connection points: 2
#     Edge 117, Type (0, 0), BuildingBlock: MIFKUJ_clean_linker_0, # of connection points: 2
#     Edge 118, Type (0, 0), BuildingBlock: MIFKUJ_clean_linker_0, # of connection points: 2
#     Edge 119, Type (0, 0), BuildingBlock: MIFKUJ_clean_linker_0, # of connection points: 2
#     Edge 120, Type (0, 0), BuildingBlock: MIFKUJ_clean_linker_0, # of connection points: 2
#     Edge 121, Type (0, 0), BuildingBlock: MIFKUJ_clean_linker_0, # of connection points: 2
#     Edge 122, Type (0, 0), BuildingBlock: MIFKUJ_clean_linker_0, # of connection points: 2
#     Edge 123, Type (0, 0), BuildingBlock: MIFKUJ_clean_linker_0, # of connection points: 2
#     Edge 124, Type (0, 0), BuildingBlock: MIFKUJ_clean_linker_0, # of connection points: 2
#     Edge 125, Type (0, 0), BuildingBlock: MIFKUJ_clean_linker_0, # of connection points: 2
#     Edge 126, Type (0, 0), BuildingBlock: MIFKUJ_clean_linker_0, # of connection points: 2
#     Edge 127, Type (0, 0), BuildingBlock: MIFKUJ_clean_linker_0, # of connection points: 2
#     Edge 128, Type (0, 0), BuildingBlock: MIFKUJ_clean_linker_0, # of connection points: 2
#     Edge 129, Type (0, 0), BuildingBlock: MIFKUJ_clean_linker_0, # of connection points: 2
#     Edge 130, Type (0, 0), BuildingBlock: MIFKUJ_clean_linker_0, # of connection points: 2
#     Edge 131, Type (0, 0), BuildingBlock: MIFKUJ_clean_linker_0, # of connection points: 2
#     Edge 132, Type (0, 0), BuildingBlock: MIFKUJ_clean_linker_0, # of connection points: 2
#     Edge 133, Type (0, 0), BuildingBlock: MIFKUJ_clean_linker_0, # of connection points: 2
#     Edge 134, Type (0, 0), BuildingBlock: MIFKUJ_clean_linker_0, # of connection points: 2
#     Edge 135, Type (0, 0), BuildingBlock: MIFKUJ_clean_linker_0, # of connection points: 2
#     Edge 136, Type (0, 0), BuildingBlock: MIFKUJ_clean_linker_0, # of connection points: 2
#     Edge 137, Type (0, 0), BuildingBlock: MIFKUJ_clean_linker_0, # of connection points: 2
#     Edge 138, Type (0, 0), BuildingBlock: MIFKUJ_clean_linker_0, # of connection points: 2
#     Edge 139, Type (0, 0), BuildingBlock: MIFKUJ_clean_linker_0, # of connection points: 2
#     Edge 140, Type (0, 0), BuildingBlock: MIFKUJ_clean_linker_0, # of connection points: 2
#     Edge 141, Type (0, 0), BuildingBlock: MIFKUJ_clean_linker_0, # of connection points: 2
#     Edge 142, Type (0, 0), BuildingBlock: MIFKUJ_clean_linker_0, # of connection points: 2
#     Edge 143, Type (0, 0), BuildingBlock: MIFKUJ_clean_linker_0, # of connection points: 2
# Relax obj value: 0.537
# Max RMSD: 0.460
# Mean RMSD: 0.291
data_MOF--net-unx--node1-KUFVIS_clean_sbu_0--edge1-MIFKUJ_clean_linker_0
_symmetry_space_group_name_H-M    P1
_symmetry_Int_Tables_number       1
_symmetry_cell_setting            triclinic
loop_
_symmetry_equiv_pos_as_xyz
'x, y, z'
_cell_length_a     66.341855
_cell_length_b     64.79757
_cell_length_c     66.004702
_cell_angle_alpha  90.934679
_cell_angle_beta   93.351514
_cell_angle_gamma 94.648694
loop_
_atom_site_label
_atom_site_type_symbol
_atom_site_fract_x
_atom_site_fract_y
_atom_site_fract_z
_atom_type_partial_charge
Mn0 Mn 0.04799 0.61987 0.11055 0.0
Mn1 Mn 0.02605 0.63648 0.06726 0.0
C2 C 0.06775 0.63724 0.08818 0.0
C3 C 0.06377 0.59439 0.12704 0.0
C4 C 0.02369 0.65692 0.1089 0.0
O5 O 0.02024 0.60481 0.10905 0.0
O6 O 0.00878 0.61282 0.07748 0.0
C7 C 0.02789 0.60061 0.03925 0.0
N8 N 0.03258 0.62105 0.04393 0.0
C9 C 0.04695 0.6269 0.01164 0.0
C10 C 0.04227 0.6059 0.00647 0.0
C11 C 0.03274 0.5927 0.02035 0.0
C12 C 0.04171 0.6339 0.03067 0.0
H13 H 0.02038 0.59049 0.04981 0.0
C14 C 0.00704 0.60319 0.09419 0.0
O15 O 0.05543 0.60828 0.13743 0.0
O16 O 0.06085 0.59411 0.10747 0.0
N17 N 0.04114 0.65944 0.05577 0.0
C18 C 0.04523 0.67913 0.06336 0.0
C19 C 0.05508 0.6942 0.05154 0.0
C20 C 0.06028 0.68901 0.03189 0.0
C21 C 0.05598 0.66865 0.0244 0.0
C22 C 0.04618 0.65426 0.03691 0.0
H23 H 0.04095 0.68332 0.07827 0.0
O24 O 0.07415 0.63547 0.10693 0.0
O25 O 0.04998 0.62813 0.08272 0.0
O26 O 0.0361 0.64652 0.11899 0.0
O27 O 0.0186 0.65366 0.09007 0.0
C28 C 0.06116 0.66201 0.00508 0.0
C29 C 0.05667 0.64115 0.99872 0.0
H30 H 0.04596 0.59974 0.99191 0.0
H31 H 0.02905 0.57649 0.01645 0.0
H32 H 0.0584 0.70986 0.05746 0.0
H33 H 0.06755 0.70079 0.02269 0.0
H34 H 0.06876 0.67278 0.99507 0.0
H35 H 0.06085 0.6362 0.98389 0.0
Mn36 Mn 0.69318 0.5115 0.38467 0.0
Mn37 Mn 0.65204 0.53731 0.37189 0.0
C38 C 0.66538 0.49468 0.36736 0.0
C39 C 0.70931 0.49119 0.40879 0.0
C40 C 0.68954 0.53858 0.34729 0.0
O41 O 0.69867 0.53812 0.40163 0.0
O42 O 0.66975 0.5528 0.39302 0.0
C43 C 0.63253 0.53379 0.4111 0.0
N44 N 0.6317 0.53037 0.39064 0.0
C45 C 0.59784 0.51392 0.39098 0.0
C46 C 0.59835 0.51733 0.41204 0.0
C47 C 0.61577 0.52732 0.42213 0.0
C48 C 0.61499 0.5208 0.38078 0.0
H49 H 0.64588 0.54135 0.41894 0.0
C50 C 0.68675 0.55246 0.40311 0.0
O51 O 0.71951 0.50048 0.39482 0.0
O52 O 0.69055 0.49499 0.4094 0.0
N53 N 0.63314 0.524 0.35174 0.0
C54 C 0.63463 0.5228 0.33128 0.0
C55 C 0.61849 0.51329 0.31889 0.0
C56 C 0.60068 0.50565 0.32763 0.0
C57 C 0.5991 0.50782 0.34863 0.0
C58 C 0.6157 0.51756 0.36016 0.0
H59 H 0.64779 0.52957 0.32447 0.0
O60 O 0.68277 0.48692 0.36788 0.0
O61 O 0.66439 0.51163 0.37793 0.0
O62 O 0.6999 0.52662 0.35828 0.0
O63 O 0.6722 0.54421 0.35167 0.0
C64 C 0.58169 0.50079 0.35856 0.0
C65 C 0.58108 0.50378 0.37973 0.0
H66 H 0.58548 0.51228 0.42062 0.0
H67 H 0.61629 0.52998 0.4384 0.0
H68 H 0.61966 0.51217 0.30262 0.0
H69 H 0.58813 0.49866 0.31805 0.0
H70 H 0.56868 0.49307 0.35006 0.0
H71 H 0.56765 0.49822 0.38721 0.0
Mn72 Mn 0.75731 0.97194 0.7249 0.0
Mn73 Mn 0.78669 0.003 0.6958 0.0
C74 C 0.74119 0.99045 0.70039 0.0
C75 C 0.73754 0.96378 0.75184 0.0
C76 C 0.78233 0.95628 0.69196 0.0
O77 O 0.78429 0.97563 0.74109 0.0
O78 O 0.80119 -0.00025 0.72277 0.0
C79 C 0.79 0.04388 0.71713 0.0
N80 N 0.78559 0.03214 0.69991 0.0
C81 C 0.7828 0.0625 0.67963 0.0
C82 C 0.78724 0.07493 0.69718 0.0
C83 C 0.7908 0.06558 0.716 0.0
C84 C 0.78242 0.041 0.68166 0.0
H85 H 0.79306 0.03668 0.73152 0.0
C86 C 0.79978 0.98802 0.73822 0.0
O87 O 0.74693 0.94994 0.74267 0.0
O88 O 0.74195 0.98302 0.74724 0.0
N89 N 0.77509 0.00732 0.66913 0.0
C90 C 0.76835 0.99308 0.65433 0.0
C91 C 0.76298 -0.00019 0.63476 0.0
C92 C 0.7646 0.02105 0.63063 0.0
C93 C 0.77152 0.03541 0.64613 0.0
C94 C 0.77684 0.02778 0.66529 0.0
H95 H 0.76719 0.97673 0.65739 0.0
O96 O 0.73295 0.9733 0.70718 0.0
O97 O 0.75968 0.99643 0.70766 0.0
O98 O 0.76855 0.95301 0.70424 0.0
O99 O 0.7906 0.97414 0.68876 0.0
C100 C 0.77258 0.05702 0.64358 0.0
C101 C 0.77818 0.07055 0.66032 0.0
H102 H 0.78775 0.09165 0.69641 0.0
H103 H 0.79425 0.07509 0.72958 0.0
H104 H 0.75767 0.98864 0.62287 0.0
H105 H 0.76019 0.02617 0.61558 0.0
H106 H 0.76857 0.06339 0.62895 0.0
H107 H 0.77846 0.08712 0.65827 0.0
Mn108 Mn 0.37748 0.2561 0.00271 0.0
Mn109 Mn 0.40034 0.21228 0.00449 0.0
C110 C 0.40423 0.25295 0.98211 0.0
C111 C 0.37282 0.28805 0.01707 0.0
C112 C 0.35837 0.21668 0.98501 0.0
O113 O 0.36647 0.23992 0.02672 0.0
O114 O 0.39193 0.21954 0.03185 0.0
C115 C 0.43677 0.22113 0.03211 0.0
N116 N 0.42832 0.2152 0.0134 0.0
C117 C 0.45945 0.20248 0.00361 0.0
C118 C 0.46852 0.20851 0.02274 0.0
C119 C 0.45719 0.21811 0.03697 0.0
C120 C 0.43928 0.20662 -0.00066 0.0
H121 H 0.42785 0.22768 0.04341 0.0
C122 C 0.37558 0.22666 0.03713 0.0
O123 O 0.35853 0.27768 0.00604 0.0
O124 O 0.38965 0.27942 0.02065 0.0
N125 N 0.40941 0.20385 0.97878 0.0
C126 C 0.3982 0.19763 0.96144 0.0
C127 C 0.40755 0.18862 0.94534 0.0
C128 C 0.42815 0.18514 0.94755 0.0
C129 C 0.43923 0.19091 0.96578 0.0
C130 C 0.42932 0.20077 0.98095 0.0
H131 H 0.38223 0.1994 0.9598 0.0
O132 O 0.39229 0.26768 0.97938 0.0
O133 O 0.40116 0.24158 0.99784 0.0
O134 O 0.36015 0.23623 0.98348 0.0
O135 O 0.37143 0.20664 0.99482 0.0
C136 C 0.45944 0.18638 0.96987 0.0
C137 C 0.46939 0.19182 0.9889 0.0
H138 H 0.4841 0.20564 0.02674 0.0
H139 H 0.46404 0.22265 0.05183 0.0
H140 H 0.39876 0.18387 0.93147 0.0
H141 H 0.43518 0.1776 0.93534 0.0
H142 H 0.46735 0.17835 0.95863 0.0
H143 H 0.48474 0.1877 0.9921 0.0
Mn144 Mn 0.17605 0.50394 0.74998 0.0
Mn145 Mn 0.20557 0.47444 0.77918 0.0
C146 C 0.16505 0.49244 0.78038 0.0
C147 C 0.15079 0.50198 0.72294 0.0
C148 C 0.21171 0.52141 0.77904 0.0
O149 O 0.19779 0.49734 0.73108 0.0
O150 O 0.2147 0.47611 0.75127 0.0
C151 C 0.19428 0.43426 0.75787 0.0
N152 N 0.19548 0.44609 0.77522 0.0
C153 C 0.18545 0.41655 0.79502 0.0
C154 C 0.18406 0.40406 0.77735 0.0
C155 C 0.18841 0.41299 0.75868 0.0
C156 C 0.19098 0.43774 0.79321 0.0
H157 H 0.19802 0.44096 0.74356 0.0
C158 C 0.21162 0.48518 0.7345 0.0
O159 O 0.16108 0.51951 0.72789 0.0
O160 O 0.15559 0.48619 0.73314 0.0
N161 N 0.1991 0.47094 0.80687 0.0
C162 C 0.20345 0.4845 0.82283 0.0
C163 C 0.19971 0.47808 0.84257 0.0
C164 C 0.19311 0.45736 0.84594 0.0
C165 C 0.19002 0.44332 0.82945 0.0
C166 C 0.193 0.45087 0.80998 0.0
H167 H 0.20947 0.50017 0.8205 0.0
O168 O 0.15627 0.50689 0.77097 0.0
O169 O 0.1791 0.48386 0.77104 0.0
O170 O 0.19684 0.52509 0.76639 0.0
O171 O 0.21617 0.50329 0.78412 0.0
C172 C 0.18462 0.42203 0.83165 0.0
C173 C 0.18214 0.40868 0.81444 0.0
H174 H 0.17988 0.38758 0.77798 0.0
H175 H 0.18752 0.40343 0.745 0.0
H176 H 0.20233 0.489 0.85522 0.0
H177 H 0.19077 0.45235 0.86126 0.0
H178 H 0.18243 0.41572 0.84654 0.0
H179 H 0.17802 0.39234 0.81635 0.0
Mn180 Mn 0.79927 0.25225 0.9984 0.0
Mn181 Mn 0.78181 0.2304 0.04036 0.0
C182 C 0.78376 0.27212 0.02107 0.0
C183 C 0.79177 0.26105 0.96504 0.0
C184 C 0.82629 0.24362 0.03529 0.0
O185 O 0.80161 0.22161 0.99345 0.0
O186 O 0.78422 0.2084 0.01936 0.0
C187 C 0.74029 0.21726 0.02352 0.0
N188 N 0.75283 0.22767 0.03799 0.0
C189 C 0.72455 0.24037 0.05422 0.0
C190 C 0.71131 0.22949 0.0397 0.0
C191 C 0.71923 0.21813 0.02413 0.0
C192 C 0.74539 0.23918 0.05266 0.0
H193 H 0.74636 0.20858 0.0115 0.0
C194 C 0.79433 0.20643 0.00355 0.0
O195 O 0.8105 0.26046 0.97192 0.0
O196 O 0.77795 0.25366 0.97654 0.0
N197 N 0.77906 0.24965 0.06209 0.0
C198 C 0.79392 0.26014 0.07426 0.0
C199 C 0.78858 0.27263 0.09032 0.0
C200 C 0.76807 0.27399 0.0938 0.0
C201 C 0.75306 0.263 0.08119 0.0
C202 C 0.75929 0.25056 0.0656 0.0
H203 H 0.80972 0.25907 0.07173 0.0
O204 O 0.79451 0.28075 0.00735 0.0
O205 O 0.7815 0.25199 0.02041 0.0
O206 O 0.82426 0.25268 0.01828 0.0
O207 O 0.81162 0.23384 0.04383 0.0
C208 C 0.73217 0.26401 0.0834 0.0
C209 C 0.71792 0.2528 0.06984 0.0
H210 H 0.69506 0.23005 0.04014 0.0
H211 H 0.7091 0.21015 0.01259 0.0
H212 H 0.80023 0.28114 0.10002 0.0
H213 H 0.764 0.28334 0.10629 0.0
H214 H 0.7269 0.27357 0.09529 0.0
H215 H 0.70189 0.25398 0.07145 0.0
Mn216 Mn 0.98148 0.13407 0.39546 0.0
Mn217 Mn 0.95363 0.17273 0.37914 0.0
C218 C 0.99554 0.16723 0.39881 0.0
C219 C 0.00493 0.11051 0.38908 0.0
C220 C 0.94584 0.14805 0.41697 0.0
O221 O 0.95813 0.11971 0.3781 0.0
O222 O 0.94543 0.14721 0.36266 0.0
C223 C 0.96674 0.17994 0.33763 0.0
N224 N 0.96452 0.18725 0.35675 0.0
C225 C 0.97072 0.22256 0.34637 0.0
C226 C 0.9733 0.21538 0.32661 0.0
C227 C 0.97151 0.19398 0.32227 0.0
C228 C 0.96695 0.2078 0.36127 0.0
H229 H 0.96448 0.16355 0.33409 0.0
C230 C 0.94587 0.12769 0.36541 0.0
O231 O 0.99286 0.10777 0.4038 0.0
O232 O 0.00171 0.12547 0.37681 0.0
N233 N 0.95923 0.19851 0.39401 0.0
C234 C 0.95415 0.20318 0.41321 0.0
C235 C 0.95572 0.2239 0.42013 0.0
C236 C 0.9611 0.2398 0.40683 0.0
C237 C 0.96476 0.2348 0.3867 0.0
C238 C 0.96415 0.21377 0.381 0.0
H239 H 0.9491 0.1912 0.42331 0.0
O240 O 0.003 0.15268 0.40936 0.0
O241 O 0.97996 0.16205 0.38636 0.0
O242 O 0.96209 0.1387 0.41822 0.0
O243 O 0.94098 0.15946 0.40224 0.0
C244 C 0.96802 0.24988 0.37184 0.0
C245 C 0.97101 0.24376 0.35169 0.0
H246 H 0.97636 0.22617 0.31459 0.0
H247 H 0.97325 0.18834 0.307 0.0
H248 H 0.95229 0.22762 0.43554 0.0
H249 H 0.96176 0.25581 0.41205 0.0
H250 H 0.96833 0.26621 0.37575 0.0
H251 H 0.9736 0.25549 0.34042 0.0
Mn252 Mn 0.10678 0.99562 0.61199 0.0
Mn253 Mn 0.13258 0.03282 0.6408 0.0
C254 C 0.11039 0.99087 0.64605 0.0
C255 C 0.10912 0.96674 0.59157 0.0
C256 C 0.09064 0.03596 0.62082 0.0
O257 O 0.12048 0.01553 0.59277 0.0
O258 O 0.14503 0.03079 0.61441 0.0
C259 C 0.17222 0.01542 0.64816 0.0
N260 N 0.15537 0.02277 0.6555 0.0
C261 C 0.16731 0.01711 0.68999 0.0
C262 C 0.18482 0.00954 0.68278 0.0
C263 C 0.18727 0.00868 0.66178 0.0
C264 C 0.15279 0.0235 0.67569 0.0
H265 H 0.17412 0.0147 0.63203 0.0
C266 C 0.13672 0.02721 0.59658 0.0
O267 O 0.09337 0.97744 0.58959 0.0
O268 O 0.12372 0.97353 0.60441 0.0
N269 N 0.12176 0.03624 0.66687 0.0
C270 C 0.10517 0.04612 0.67151 0.0
C271 C 0.10108 0.04937 0.69188 0.0
C272 C 0.11436 0.04292 0.70736 0.0
C273 C 0.13174 0.03352 0.70232 0.0
C274 C 0.13518 0.03098 0.68171 0.0
H275 H 0.09543 0.0521 0.65986 0.0
O276 O 0.09727 0.97889 0.63511 0.0
O277 O 0.12133 0.00449 0.63658 0.0
O278 O 0.08625 0.0167 0.61689 0.0
O279 O 0.10847 0.04378 0.62667 0.0
C280 C 0.14599 0.02695 0.71693 0.0
C281 C 0.16372 0.01862 0.71079 0.0
H282 H 0.19649 0.00439 0.69323 0.0
H283 H 0.20074 0.00284 0.65611 0.0
H284 H 0.08793 0.0572 0.69562 0.0
H285 H 0.11136 0.04591 0.72303 0.0
H286 H 0.14338 0.0283 0.7329 0.0
H287 H 0.17461 0.01363 0.72217 0.0
Mn288 Mn 0.14147 0.74345 0.49873 0.0
Mn289 Mn 0.12222 0.78981 0.49087 0.0
C290 C 0.12525 0.74955 0.46753 0.0
C291 C 0.13591 0.70847 0.50776 0.0
C292 C 0.16722 0.78368 0.49243 0.0
O293 O 0.14104 0.75558 0.52756 0.0
O294 O 0.12423 0.78378 0.52004 0.0
C295 C 0.08078 0.78318 0.50503 0.0
N296 N 0.09339 0.78885 0.49018 0.0
C297 C 0.06608 0.80152 0.46959 0.0
C298 C 0.05275 0.79571 0.48462 0.0
C299 C 0.06014 0.78647 0.5024 0.0
C300 C 0.0865 0.79799 0.47313 0.0
H301 H 0.08652 0.77643 0.51885 0.0
C302 C 0.13239 0.77167 0.53264 0.0
O303 O 0.15414 0.71755 0.50775 0.0
O304 O 0.12123 0.72012 0.50436 0.0
N305 N 0.11956 0.79782 0.46315 0.0
C306 C 0.13426 0.80152 0.44978 0.0
C307 C 0.12932 0.81025 0.43097 0.0
C308 C 0.10937 0.81517 0.42616 0.0
C309 C 0.09452 0.81125 0.4402 0.0
C310 C 0.10037 0.80267 0.45875 0.0
H311 H 0.14966 0.79807 0.45355 0.0
O312 O 0.1381 0.73562 0.46951 0.0
O313 O 0.12226 0.76006 0.48399 0.0
O314 O 0.16644 0.76394 0.49371 0.0
O315 O 0.15165 0.79388 0.49146 0.0
C316 C 0.07411 0.81535 0.43648 0.0
C317 C 0.05989 0.81046 0.45115 0.0
H318 H 0.03681 0.79819 0.48265 0.0
H319 H 0.04996 0.78205 0.51411 0.0
H320 H 0.14088 0.81329 0.42025 0.0
H321 H 0.10563 0.82185 0.41162 0.0
H322 H 0.06914 0.82207 0.42231 0.0
H323 H 0.0442 0.81346 0.448 0.0
Mn324 Mn 0.40352 0.38979 0.64961 0.0
Mn325 Mn 0.41863 0.37584 0.60363 0.0
C326 C 0.38142 0.37022 0.62786 0.0
C327 C 0.38847 0.41187 0.67048 0.0
C328 C 0.42852 0.35343 0.64212 0.0
O329 O 0.42889 0.4085 0.64726 0.0
O330 O 0.43822 0.39744 0.617 0.0
C331 C 0.4144 0.41505 0.58192 0.0
N332 N 0.40959 0.39431 0.58336 0.0
C333 C 0.39167 0.39279 0.55049 0.0
C334 C 0.3964 0.41415 0.54867 0.0
C335 C 0.40778 0.42533 0.56447 0.0
C336 C 0.39871 0.38341 0.5682 0.0
H337 H 0.4234 0.42361 0.5939 0.0
C338 C 0.44123 0.40864 0.63322 0.0
O339 O 0.4007 0.39896 0.67806 0.0
O340 O 0.38673 0.41333 0.6509 0.0
N341 N 0.40172 0.35491 0.58875 0.0
C342 C 0.39804 0.33456 0.59317 0.0
C343 C 0.38608 0.32142 0.57942 0.0
C344 C 0.37867 0.32906 0.56086 0.0
C345 C 0.383 0.35 0.55646 0.0
C346 C 0.39464 0.3625 0.57101 0.0
H347 H 0.40412 0.32843 0.60713 0.0
O348 O 0.37888 0.37101 0.64713 0.0
O349 O 0.39666 0.38186 0.62124 0.0
O350 O 0.42028 0.36494 0.65449 0.0
O351 O 0.42832 0.35591 0.62301 0.0
C352 C 0.37589 0.35905 0.53843 0.0
C353 C 0.38027 0.38043 0.53542 0.0
H354 H 0.39138 0.42212 0.53523 0.0
H355 H 0.41157 0.44179 0.56314 0.0
H356 H 0.38332 0.3053 0.58294 0.0
H357 H 0.36973 0.31877 0.55011 0.0
H358 H 0.3669 0.34976 0.52687 0.0
H359 H 0.37468 0.38724 0.52152 0.0
Mn360 Mn 0.76507 0.49126 0.84959 0.0
Mn361 Mn 0.81076 0.47525 0.84002 0.0
C362 C 0.78814 0.51278 0.83314 0.0
C363 C 0.7454 0.50865 0.87097 0.0
C364 C 0.77177 0.4608 0.81573 0.0
O365 O 0.76664 0.46601 0.86748 0.0
O366 O 0.79812 0.45793 0.86091 0.0
C367 C 0.83334 0.48558 0.87931 0.0
N368 N 0.83123 0.48788 0.85885 0.0
C369 C 0.86408 0.5065 0.85845 0.0
C370 C 0.86661 0.50439 0.87954 0.0
C371 C 0.8511 0.49404 0.89004 0.0
C372 C 0.84583 0.49826 0.84868 0.0
H373 H 0.8217 0.47708 0.8873 0.0
C374 C 0.78141 0.45461 0.8695 0.0
O375 O 0.73694 0.49582 0.85706 0.0
O376 O 0.76496 0.51017 0.87325 0.0
N377 N 0.82481 0.49021 0.81974 0.0
C378 C 0.82053 0.48979 0.7993 0.0
C379 C 0.83385 0.50071 0.78677 0.0
C380 C 0.85216 0.51053 0.79513 0.0
C381 C 0.85683 0.5096 0.81606 0.0
C382 C 0.84238 0.4996 0.82798 0.0
H383 H 0.80665 0.48191 0.79276 0.0
O384 O 0.76905 0.51568 0.83189 0.0
O385 O 0.7934 0.49761 0.84447 0.0
O386 O 0.75962 0.47173 0.82461 0.0
O387 O 0.79083 0.46161 0.82009 0.0
C388 C 0.87541 0.51775 0.82551 0.0
C389 C 0.87914 0.51595 0.84664 0.0
H390 H 0.88045 0.51054 0.88781 0.0
H391 H 0.85298 0.49224 0.9063 0.0
H392 H 0.82982 0.50178 0.7708 0.0
H393 H 0.86254 0.5187 0.78538 0.0
H394 H 0.88703 0.52525 0.81665 0.0
H395 H 0.89367 0.52187 0.85366 0.0
Mn396 Mn 0.74453 -0.00032 0.26645 0.0
Mn397 Mn 0.71021 0.9665 0.24032 0.0
C398 C 0.75355 0.9844 0.23682 0.0
C399 C 0.7688 0.0079 0.29262 0.0
C400 C 0.7107 0.01295 0.23753 0.0
O401 O 0.72237 0.99443 0.28603 0.0
O402 O 0.70153 0.97058 0.26854 0.0
C403 C 0.71752 0.92849 0.26302 0.0
N404 N 0.71666 0.93873 0.24518 0.0
C405 C 0.72307 0.9081 0.22628 0.0
C406 C 0.72398 0.89718 0.24444 0.0
C407 C 0.72132 0.90746 0.2629 0.0
C408 C 0.71963 0.92911 0.2274 0.0
H409 H 0.71521 0.93631 0.27717 0.0
C410 C 0.70627 0.98228 0.28423 0.0
O411 O 0.7577 0.02163 0.28482 0.0
O412 O 0.76543 0.98895 0.28566 0.0
N413 N 0.71563 0.96104 0.21273 0.0
C414 C 0.71359 0.97364 0.19651 0.0
C415 C 0.71549 0.96572 0.17689 0.0
C416 C 0.71884 0.9448 0.17412 0.0
C417 C 0.72066 0.93204 0.19097 0.0
C418 C 0.7188 0.94086 0.21019 0.0
H419 H 0.71053 0.98963 0.19848 0.0
O420 O 0.76398 0.00061 0.24482 0.0
O421 O 0.73879 0.9764 0.24732 0.0
O422 O 0.72636 0.01724 0.24934 0.0
O423 O 0.70284 0.99455 0.23384 0.0
C424 C 0.72377 0.91084 0.18944 0.0
C425 C 0.72516 0.89891 0.20709 0.0
H426 H 0.72665 0.88091 0.24439 0.0
H427 H 0.72201 0.89914 0.27698 0.0
H428 H 0.71402 0.97561 0.16392 0.0
H429 H 0.71957 0.93864 0.15897 0.0
H430 H 0.72497 0.90348 0.17478 0.0
H431 H 0.72761 0.88263 0.2057 0.0
Mn432 Mn 0.65697 0.17536 0.05591 0.0
Mn433 Mn 0.66444 0.12665 0.04148 0.0
C434 C 0.66756 0.15254 0.07946 0.0
C435 C 0.6362 0.19864 0.06857 0.0
C436 C 0.69459 0.16297 0.03591 0.0
O437 O 0.64168 0.17284 0.02875 0.0
O438 O 0.6502 0.14128 0.01911 0.0
C439 C 0.6217 0.10923 0.03762 0.0
N440 N 0.64089 0.10871 0.04602 0.0
C441 C 0.63158 0.07753 0.06378 0.0
C442 C 0.61172 0.0777 0.05526 0.0
C443 C 0.60677 0.09363 0.04213 0.0
C444 C 0.64587 0.09334 0.05851 0.0
H445 H 0.61783 0.1214 0.02747 0.0
C446 C 0.64174 0.15811 0.01583 0.0
O447 O 0.65219 0.20521 0.05928 0.0
O448 O 0.6319 0.17885 0.06931 0.0
N449 N 0.67807 0.11063 0.06127 0.0
C450 C 0.69753 0.11353 0.06923 0.0
C451 C 0.70441 0.09996 0.08396 0.0
C452 C 0.69149 0.0831 0.08977 0.0
C453 C 0.67178 0.07998 0.0808 0.0
C454 C 0.66558 0.09434 0.06658 0.0
H455 H 0.7075 0.12649 0.06483 0.0
O456 O 0.67124 0.17231 0.08258 0.0
O457 O 0.65784 0.14644 0.06235 0.0
O458 O 0.68395 0.17727 0.0417 0.0
O459 O 0.68918 0.14366 0.03662 0.0
C460 C 0.65773 0.06377 0.08611 0.0
C461 C 0.63767 0.06248 0.07752 0.0
H462 H 0.60014 0.06577 0.0588 0.0
H463 H 0.59148 0.09388 0.03551 0.0
H464 H 0.71959 0.10258 0.09093 0.0
H465 H 0.69679 0.07279 0.10131 0.0
H466 H 0.6621 0.05242 0.09706 0.0
H467 H 0.62696 0.05007 0.08187 0.0
Mn468 Mn 0.99068 0.82331 0.2727 0.0
Mn469 Mn 0.03211 0.8062 0.25253 0.0
C470 C 0.01515 0.80986 0.29324 0.0
C471 C 0.95852 0.81782 0.28463 0.0
C472 C 0.02693 0.85162 0.26067 0.0
O473 O 0.98245 0.82153 0.24245 0.0
O474 O 0.01028 0.80848 0.23079 0.0
C475 C 0.01543 0.76363 0.24063 0.0
N476 N 0.02963 0.77657 0.25121 0.0
C477 C 0.04641 0.74775 0.26479 0.0
C478 C 0.03202 0.73412 0.25394 0.0
C479 C 0.01647 0.7421 0.24181 0.0
C480 C 0.04472 0.76905 0.26287 0.0
H481 H 0.00339 0.76971 0.2314 0.0
C482 C 0.99265 0.81518 0.22804 0.0
O483 O 0.96595 0.83623 0.28012 0.0
O484 O 0.96864 0.80239 0.27969 0.0
N485 N 0.05445 0.80346 0.27178 0.0
C486 C 0.06664 0.81867 0.28196 0.0
C487 C 0.08264 0.81326 0.29517 0.0
C488 C 0.08609 0.79233 0.29763 0.0
C489 C 0.07361 0.77698 0.2867 0.0
C490 C 0.05798 0.78331 0.27361 0.0
H491 H 0.06401 0.83479 0.28024 0.0
O492 O 0.00264 0.82182 0.30071 0.0
O493 O 0.01274 0.80552 0.27386 0.0
O494 O 0.00966 0.84912 0.26822 0.0
O495 O 0.03629 0.83668 0.25398 0.0
C496 C 0.07572 0.75564 0.28868 0.0
C497 C 0.06213 0.74103 0.27774 0.0
H498 H 0.03267 0.71751 0.25494 0.0
H499 H 0.00527 0.73166 0.23347 0.0
H500 H 0.0922 0.8252 0.30355 0.0
H501 H 0.09828 0.7882 0.30805 0.0
H502 H 0.08756 0.75027 0.29879 0.0
H503 H 0.06376 0.72466 0.27958 0.0
Mn504 Mn 0.50299 0.16102 0.52761 0.0
Mn505 Mn 0.48658 0.20154 0.50248 0.0
C506 C 0.48626 0.18539 0.5442 0.0
C507 C 0.53023 0.15296 0.54995 0.0
C508 C 0.46512 0.15796 0.49968 0.0
O509 O 0.5169 0.15925 0.50099 0.0
O510 O 0.50861 0.18988 0.48826 0.0
C511 C 0.52321 0.23084 0.50839 0.0
N512 N 0.50303 0.2263 0.51041 0.0
C513 C 0.49979 0.25986 0.5255 0.0
C514 C 0.52051 0.26495 0.52345 0.0
C515 C 0.53228 0.25034 0.51494 0.0
C516 C 0.4916 0.24017 0.51876 0.0
H517 H 0.53229 0.21964 0.50185 0.0
C518 C 0.51793 0.17335 0.4877 0.0
O519 O 0.51727 0.13823 0.54248 0.0
O520 O 0.5288 0.17068 0.54199 0.0
N521 N 0.46517 0.21425 0.51486 0.0
C522 C 0.44557 0.20664 0.51646 0.0
C523 C 0.43188 0.21915 0.52508 0.0
C524 C 0.4384 0.23943 0.53176 0.0
C525 C 0.45857 0.24702 0.52973 0.0
C526 C 0.47152 0.23383 0.521 0.0
H527 H 0.44041 0.19115 0.51119 0.0
O528 O 0.48821 0.16756 0.55204 0.0
O529 O 0.49478 0.18868 0.52732 0.0
O530 O 0.47589 0.14901 0.51323 0.0
O531 O 0.46877 0.17672 0.49427 0.0
C532 C 0.46636 0.26711 0.53611 0.0
C533 C 0.48698 0.27348 0.53413 0.0
H534 H 0.52757 0.27997 0.52849 0.0
H535 H 0.5483 0.25412 0.51341 0.0
H536 H 0.41632 0.2132 0.52652 0.0
H537 H 0.4278 0.24902 0.53845 0.0
H538 H 0.45667 0.27775 0.54272 0.0
H539 H 0.49284 0.28885 0.53937 0.0
Mn540 Mn 0.93727 0.70937 0.73211 0.0
Mn541 Mn 0.96712 0.67696 0.75764 0.0
C542 C 0.94814 0.68177 0.71528 0.0
C543 C 0.9324 0.73623 0.71018 0.0
C544 C 0.92167 0.67602 0.76071 0.0
O545 O 0.94689 0.72648 0.75706 0.0
O546 O 0.96676 0.70415 0.77273 0.0
C547 C 0.00536 0.70226 0.75279 0.0
N548 N 0.99471 0.68337 0.75062 0.0
C549 C 0.02404 0.66782 0.73927 0.0
C550 C 0.03514 0.68718 0.74158 0.0
C551 C 0.02575 0.70446 0.7482 0.0
C552 C 0.00349 0.66675 0.74346 0.0
H553 H 0.99836 0.71566 0.75803 0.0
C554 C 0.95857 0.72146 0.77187 0.0
O555 O 0.9184 0.72983 0.72212 0.0
O556 O 0.95011 0.72938 0.71345 0.0
N557 N 0.96883 0.64906 0.74627 0.0
C558 C 0.95134 0.63107 0.749 0.0
C559 C 0.95276 0.60488 0.74647 0.0
C560 C 0.97494 0.59505 0.74037 0.0
C561 C 0.00253 0.62616 0.73625 0.0
C562 C 0.99153 0.64869 0.74092 0.0
H563 H 0.93703 0.63517 0.75379 0.0
O564 O 0.93191 0.69012 0.70901 0.0
O565 O 0.95768 0.68938 0.73193 0.0
O566 O 0.91849 0.69086 0.74885 0.0
O567 O 0.93911 0.66973 0.76513 0.0
C568 C 0.02351 0.62994 0.732 0.0
C569 C 0.03336 0.65005 0.73325 0.0
H570 H 0.05103 0.68897 0.73841 0.0
H571 H 0.03429 0.7194 0.74997 0.0
H572 H 0.93963 0.59443 0.74898 0.0
H573 H 0.97516 0.57821 0.73905 0.0
H574 H 0.033 0.61789 0.728 0.0
H575 H 0.04924 0.65167 0.72999 0.0
Mn576 Mn 0.99292 0.86618 0.98478 0.0
Mn577 Mn 0.02414 0.8733 0.02736 0.0
C578 C 0.02962 0.86996 0.98189 0.0
C579 C 0.98247 0.85147 0.95128 0.0
C580 C 0.0006 0.83281 0.01329 0.0
O581 O 0.9758 0.87 0.00973 0.0
O582 O -0.00016 0.88885 0.0276 0.0
C583 C 0.03631 0.91832 0.0278 0.0
N584 N 0.04149 0.89839 0.02794 0.0
C585 C 0.0768 0.90974 0.03389 0.0
C586 C 0.07186 0.93036 0.0337 0.0
C587 C 0.05153 0.93467 0.03047 0.0
C588 C 0.06108 0.89409 0.03037 0.0
H589 H 0.02066 0.92174 0.02589 0.0
C590 C 0.98192 0.88035 0.02587 0.0
O591 O 0.96973 0.85433 0.96479 0.0
O592 O 0.001 0.85788 0.95662 0.0
N593 N 0.04863 0.85941 0.02855 0.0
C594 C 0.05078 0.839 0.03219 0.0
C595 C 0.07017 0.83207 0.03541 0.0
C596 C 0.0872 0.84642 0.03646 0.0
C597 C 0.08457 0.86758 0.03476 0.0
C598 C 0.06488 0.87347 0.03064 0.0
H599 H 0.03783 0.82806 0.03299 0.0
O600 O 0.01714 0.86473 0.96655 0.0
O601 O 0.02054 0.87412 0.9979 0.0
O602 O 0.99685 0.83721 0.99477 0.0
O603 O 0.00721 0.8462 0.02722 0.0
C604 C 0.10057 0.88307 0.03831 0.0
C605 C 0.09664 0.90412 0.03812 0.0
H606 H 0.08351 0.943 0.03623 0.0
H607 H 0.04757 0.95055 0.03042 0.0
H608 H 0.07192 0.8158 0.03773 0.0
H609 H 0.10212 0.84111 0.03953 0.0
H610 H 0.11589 0.87898 0.04174 0.0
H611 H 0.10899 0.91588 0.04146 0.0
Mn612 Mn 0.4655 0.76472 0.22241 0.0
Mn613 Mn 0.44221 0.79391 0.25546 0.0
C614 C 0.4571 0.79742 0.2137 0.0
C615 C 0.46151 0.73964 0.19655 0.0
C616 C 0.48771 0.7885 0.25817 0.0
O617 O 0.45675 0.74385 0.24365 0.0
O618 O 0.4384 0.76428 0.26199 0.0
C619 C 0.40016 0.777 0.24361 0.0
N620 N 0.41368 0.79393 0.2465 0.0
C621 C 0.38238 0.81623 0.24264 0.0
C622 C 0.37044 0.79762 0.24012 0.0
C623 C 0.37919 0.77863 0.24024 0.0
C624 C 0.40761 0.81315 0.24501 0.0
H625 H 0.40539 0.7617 0.24401 0.0
C626 C 0.44474 0.74677 0.25758 0.0
O627 O 0.47884 0.74338 0.20676 0.0
O628 O 0.44666 0.74988 0.20183 0.0
N629 N 0.44495 0.82374 0.25178 0.0
C630 C 0.46137 0.83702 0.25726 0.0
C631 C 0.4607 0.85868 0.25766 0.0
C632 C 0.44283 0.86868 0.25446 0.0
C633 C 0.42367 0.85691 0.25075 0.0
C634 C 0.42681 0.83107 0.2485 0.0
H635 H 0.47543 0.83108 0.26179 0.0
O636 O 0.46997 0.78819 0.20351 0.0
O637 O 0.44878 0.7869 0.22796 0.0
O638 O 0.4885 0.77783 0.24181 0.0
O639 O 0.47123 0.79417 0.26499 0.0
C640 C 0.38446 0.86234 0.24744 0.0
C641 C 0.37078 0.83879 0.24369 0.0
H642 H 0.35413 0.7977 0.23817 0.0
H643 H 0.36931 0.76453 0.23815 0.0
H644 H 0.47468 0.86814 0.26143 0.0
H645 H 0.44469 0.88539 0.25581 0.0
H646 H 0.37598 0.87611 0.24813 0.0
H647 H 0.35442 0.83828 0.24211 0.0
Mn648 Mn 0.53355 0.1981 0.78962 0.0
Mn649 Mn 0.51785 0.17757 0.83361 0.0
C650 C 0.50379 0.1767 0.78913 0.0
C651 C 0.55138 0.19548 0.76041 0.0
C652 C 0.51353 0.22215 0.82192 0.0
O653 O 0.55882 0.20309 0.80859 0.0
O654 O 0.54709 0.18667 0.83601 0.0
C655 C 0.5404 0.13993 0.83464 0.0
N656 N 0.52267 0.14898 0.83562 0.0
C657 C 0.50478 0.11664 0.84384 0.0
C658 C 0.52288 0.10696 0.84296 0.0
C659 C 0.54074 0.11863 0.83826 0.0
C660 C 0.5054 0.13789 0.84013 0.0
H661 H 0.55417 0.14894 0.83121 0.0
C662 C 0.56098 0.19677 0.8267 0.0
O663 O 0.54654 0.21331 0.76704 0.0
O664 O 0.54721 0.1796 0.77154 0.0
N665 N 0.48979 0.16826 0.83415 0.0
C666 C 0.47332 0.17949 0.83234 0.0
C667 C 0.45406 0.16996 0.83569 0.0
C668 C 0.45198 0.14906 0.84116 0.0
C669 C 0.46918 0.13784 0.84309 0.0
C670 C 0.48799 0.1482 0.8396 0.0
H671 H 0.4749 0.19557 0.82836 0.0
O672 O 0.5074 0.18949 0.77467 0.0
O673 O 0.51792 0.17639 0.80373 0.0
O674 O 0.52076 0.2217 0.80442 0.0
O675 O 0.51194 0.20666 0.83351 0.0
C676 C 0.46831 0.1166 0.84755 0.0
C677 C 0.48609 0.10598 0.84784 0.0
H678 H 0.52319 0.09054 0.84568 0.0
H679 H 0.55474 0.11125 0.83751 0.0
H680 H 0.44087 0.17871 0.83411 0.0
H681 H 0.43707 0.14172 0.84355 0.0
H682 H 0.45398 0.10815 0.85025 0.0
H683 H 0.48515 0.08955 0.85082 0.0
Mn684 Mn 0.53933 0.28908 0.28161 0.0
Mn685 Mn 0.57024 0.32711 0.26254 0.0
C686 C 0.55188 0.31716 0.30183 0.0
C687 C 0.53421 0.259 0.29951 0.0
C688 C 0.5249 0.32298 0.25424 0.0
O689 O 0.54846 0.2747 0.25642 0.0
O690 O 0.56802 0.30177 0.24559 0.0
C691 C 0.60868 0.30695 0.26738 0.0
N692 N 0.59788 0.32361 0.27044 0.0
C693 C 0.6278 0.34434 0.28319 0.0
C694 C 0.63929 0.32744 0.28006 0.0
C695 C 0.62965 0.30863 0.27223 0.0
C696 C 0.60694 0.34168 0.27818 0.0
H697 H 0.60138 0.29255 0.26115 0.0
C698 C 0.5604 0.28306 0.24387 0.0
O699 O 0.51974 0.26543 0.28772 0.0
O700 O 0.55189 0.26907 0.29951 0.0
N701 N 0.57446 0.35294 0.2772 0.0
C702 C 0.561 0.36724 0.28052 0.0
C703 C 0.56817 0.38691 0.2884 0.0
C704 C 0.58908 0.39175 0.29237 0.0
C705 C 0.60257 0.37664 0.28934 0.0
C706 C 0.59457 0.35734 0.28145 0.0
H707 H 0.54501 0.36379 0.27672 0.0
O708 O 0.53531 0.3065 0.30592 0.0
O709 O 0.56071 0.31141 0.28581 0.0
O710 O 0.52105 0.30635 0.26378 0.0
O711 O 0.54249 0.33231 0.25348 0.0
C712 C 0.6236 0.37989 0.29408 0.0
C713 C 0.6362 0.36369 0.29112 0.0
H714 H 0.65548 0.32871 0.28367 0.0
H715 H 0.6384 0.29551 0.26978 0.0
H716 H 0.55768 0.39852 0.2909 0.0
H717 H 0.59465 0.40703 0.29792 0.0
H718 H 0.63018 0.39466 0.3003 0.0
H719 H 0.6523 0.36626 0.29506 0.0
Mn720 Mn 0.02698 0.9937 0.85096 0.0
Mn721 Mn 0.99355 0.98958 0.80728 0.0
C722 C 0.0369 0.99262 0.81715 0.0
C723 C 0.05197 0.98023 0.87162 0.0
C724 C 0.0046 0.02912 0.83368 0.0
O725 O 0.00013 0.98467 0.86503 0.0
O726 O 0.99786 0.9775 0.83368 0.0
C727 C 0.99538 0.94427 0.80205 0.0
N728 N 0.99326 0.96315 0.7938 0.0
C729 C 0.99059 0.9483 0.75992 0.0
C730 C 0.9926 0.92871 0.76812 0.0
C731 C 0.9952 0.92673 0.78925 0.0
C732 C 0.99137 0.96532 0.77341 0.0
H733 H 0.99735 0.94262 0.81828 0.0
C734 C 0.98858 0.97901 0.8496 0.0
O735 O 0.04505 0.99781 0.87629 0.0
O736 O 0.04076 0.96859 0.85851 0.0
N737 N 0.99233 0.00072 0.78034 0.0
C738 C 0.9907 0.02073 0.77466 0.0
C739 C 0.98779 0.02527 0.75397 0.0
C740 C 0.98639 0.00923 0.73928 0.0
C741 C 0.98781 0.98876 0.74543 0.0
C742 C 0.99056 0.98514 0.76629 0.0
H743 H 0.99141 0.03317 0.78581 0.0
O744 O 0.04917 2e-05 0.83188 0.0
O745 O 0.01935 0.98586 0.8219 0.0
O746 O 0.01714 0.0225 0.84697 0.0
O747 O 0.99521 0.01784 0.81938 0.0
C748 C 0.98648 0.97179 0.73166 0.0
C749 C 0.98805 0.95159 0.73889 0.0
H750 H 0.99229 0.91509 0.75833 0.0
H751 H 0.99695 0.91168 0.79567 0.0
H752 H 0.98652 0.04111 0.74937 0.0
H753 H 0.98414 0.01279 0.72336 0.0
H754 H 0.98439 0.9741 0.71547 0.0
H755 H 0.98728 0.93868 0.72815 0.0
Mn756 Mn 0.68759 0.71909 0.98427 0.0
Mn757 Mn 0.66867 0.74899 0.01997 0.0
C758 C 0.65714 0.70851 0.99733 0.0
C759 C 0.70754 0.6931 0.97478 0.0
C760 C 0.66478 0.7573 0.97487 0.0
O761 O 0.71123 0.74008 0.99231 0.0
O762 O 0.69797 0.75719 0.01765 0.0
C763 C 0.6908 0.73349 0.05623 0.0
N764 N 0.67303 0.73716 0.0461 0.0
C765 C 0.65392 0.72606 0.07447 0.0
C766 C 0.67202 0.72219 0.08523 0.0
C767 C 0.69053 0.72581 0.07602 0.0
C768 C 0.65512 0.73334 0.05468 0.0
H769 H 0.70505 0.73651 0.04926 0.0
C770 C 0.71231 0.75431 0.00601 0.0
O771 O 0.70259 0.70732 0.96225 0.0
O772 O 0.70238 0.69501 0.99336 0.0
N773 N 0.64048 0.74385 0.02412 0.0
C774 C 0.62447 0.74927 0.01206 0.0
C775 C 0.60502 0.74757 0.01931 0.0
C776 C 0.60216 0.74039 0.03895 0.0
C777 C 0.6188 0.73494 0.05114 0.0
C778 C 0.63793 0.73726 0.04317 0.0
H779 H 0.62647 0.75467 0.99694 0.0
O780 O 0.66256 0.70042 0.98063 0.0
O781 O 0.67038 0.72176 0.00692 0.0
O782 O 0.67362 0.74173 0.96883 0.0
O783 O 0.66289 0.7617 0.99358 0.0
C784 C 0.61721 0.72779 0.07106 0.0
C785 C 0.63475 0.7232 0.08268 0.0
H786 H 0.6719 0.71651 0.10057 0.0
H787 H 0.70456 0.72286 0.08424 0.0
H788 H 0.5924 0.75213 0.00984 0.0
H789 H 0.58727 0.7395 0.04475 0.0
H790 H 0.60259 0.72583 0.0776 0.0
H791 H 0.63336 0.71771 0.09798 0.0
Mn792 Mn 0.78121 0.49217 0.1242 0.0
Mn793 Mn 0.81847 0.47719 0.09621 0.0
C794 C 0.77689 0.46045 0.10732 0.0
C795 C 0.75272 0.51072 0.12549 0.0
C796 C 0.82001 0.47709 0.14242 0.0
O797 O 0.79995 0.51849 0.12175 0.0
O798 O 0.8188 0.5076 0.09702 0.0
C799 C 0.80564 0.4914 0.05545 0.0
N800 N 0.81067 0.4758 0.06787 0.0
C801 C 0.8117 0.45229 0.03944 0.0
C802 C 0.80655 0.4681 0.02632 0.0
C803 C 0.80328 0.48767 0.03439 0.0
C804 C 0.81308 0.45669 0.06034 0.0
H805 H 0.80374 0.50663 0.06156 0.0
C806 C 0.8128 0.52183 0.1083 0.0
O807 O 0.76335 0.50691 0.142 0.0
O808 O 0.75911 0.50441 0.10848 0.0
N809 N 0.8202 0.44787 0.09393 0.0
C810 C 0.82718 0.43488 0.10832 0.0
C811 C 0.83086 0.41458 0.10277 0.0
C812 C 0.8284 0.40812 0.08231 0.0
C813 C 0.82236 0.42209 0.0676 0.0
C814 C 0.81816 0.44191 0.07412 0.0
H815 H 0.82986 0.43987 0.12397 0.0
O816 O 0.76537 0.46459 0.1218 0.0
O817 O 0.79011 0.47517 0.10271 0.0
O818 O 0.80166 0.48081 0.14478 0.0
O819 O 0.82794 0.47762 0.1252 0.0
C820 C 0.82132 0.41742 0.04663 0.0
C821 C 0.81614 0.43255 0.03257 0.0
H822 H 0.80521 0.46544 0.01003 0.0
H823 H 0.79937 0.49998 0.02436 0.0
H824 H 0.83602 0.40407 0.11418 0.0
H825 H 0.83173 0.39261 0.07802 0.0
H826 H 0.82475 0.40233 0.04113 0.0
H827 H 0.81577 0.42887 0.01648 0.0
Mn828 Mn 0.10916 0.46686 0.44759 0.0
Mn829 Mn 0.1521 0.44378 0.4434 0.0
C830 C 0.13918 0.48628 0.44244 0.0
C831 C 0.09306 0.48887 0.46952 0.0
C832 C 0.12151 0.44788 0.40783 0.0
O833 O 0.10025 0.43801 0.4579 0.0
O834 O 0.12997 0.42464 0.45301 0.0
C835 C 0.16017 0.43708 0.48735 0.0
N836 N 0.16638 0.44483 0.46948 0.0
C837 C 0.19883 0.45725 0.48522 0.0
C838 C 0.19288 0.44908 0.5037 0.0
C839 C 0.17341 0.43905 0.50479 0.0
C840 C 0.18494 0.45482 0.46836 0.0
H841 H 0.14521 0.42954 0.4883 0.0
C842 C 0.11167 0.42302 0.4583 0.0
O843 O 0.08389 0.48197 0.45251 0.0
O844 O 0.10848 0.47928 0.47523 0.0
N845 N 0.17496 0.46045 0.43463 0.0
C846 C 0.17817 0.46792 0.41582 0.0
C847 C 0.19675 0.4788 0.41233 0.0
C848 C 0.21199 0.4815 0.42807 0.0
C849 C 0.20836 0.47364 0.44727 0.0
C850 C 0.18952 0.46298 0.44988 0.0
H851 H 0.16666 0.46556 0.40357 0.0
O852 O 0.12187 0.49306 0.43807 0.0
O853 O 0.13879 0.46815 0.45057 0.0
O854 O 0.10782 0.45618 0.41751 0.0
O855 O 0.13833 0.44295 0.4161 0.0
C856 C 0.22271 0.47598 0.46392 0.0
C857 C 0.21792 0.46784 0.4829 0.0
H858 H 0.20306 0.45057 0.51718 0.0
H859 H 0.16861 0.43287 0.51903 0.0
H860 H 0.1994 0.48485 0.39745 0.0
H861 H 0.22647 0.48954 0.42532 0.0
H862 H 0.23743 0.48413 0.46232 0.0
H863 H 0.22901 0.46988 0.49564 0.0
Mn864 Mn 0.20865 0.00215 0.37408 0.0
Mn865 Mn 0.22592 0.96668 0.34272 0.0
C866 C 0.18569 0.98174 0.353 0.0
C867 C 0.19832 0.03522 0.38005 0.0
C868 C 0.21855 0.95856 0.38708 0.0
O869 O 0.23909 0.01071 0.37546 0.0
O870 O 0.24841 0.98664 0.35384 0.0
C871 C 0.23758 0.99564 0.31021 0.0
N872 N 0.2273 0.97791 0.31612 0.0
C873 C 0.21585 0.96883 0.28159 0.0
C874 C 0.22638 0.98693 0.27512 0.0
C875 C 0.23722 0.00045 0.2895 0.0
C876 C 0.21661 0.96497 0.30243 0.0
H877 H 0.24599 0.00602 0.3212 0.0
C878 C 0.25254 0.00227 0.36588 0.0
O879 O 0.20328 0.02344 0.39499 0.0
O880 O 0.20187 0.02878 0.36201 0.0
N881 N 0.20673 0.94603 0.33034 0.0
C882 C 0.19724 0.92933 0.33909 0.0
C883 C 0.18621 0.91407 0.32678 0.0
C884 C 0.18491 0.91609 0.3056 0.0
C885 C 0.19484 0.93336 0.29691 0.0
C886 C 0.20606 0.94786 0.30993 0.0
H887 H 0.19827 0.92751 0.35532 0.0
O888 O 0.18014 0.99147 0.3687 0.0
O889 O 0.20481 0.98503 0.34909 0.0
O890 O 0.21323 0.97656 0.39161 0.0
O891 O 0.22414 0.95369 0.36951 0.0
C892 C 0.19414 0.93671 0.27585 0.0
C893 C 0.20452 0.95451 0.2682 0.0
H894 H 0.22614 0.99065 0.25918 0.0
H895 H 0.24534 0.01449 0.28462 0.0
H896 H 0.17912 0.90065 0.33368 0.0
H897 H 0.17648 0.90421 0.29612 0.0
H898 H 0.18554 0.92577 0.26543 0.0
H899 H 0.20372 0.95703 0.252 0.0
Mn900 Mn 0.65134 0.01734 0.47353 0.0
Mn901 Mn 0.63631 0.97883 0.50329 0.0
C902 C 0.66598 0.01637 0.50643 0.0
C903 C 0.64642 0.05131 0.46521 0.0
C904 C 0.66411 0.97467 0.46846 0.0
O905 O 0.62673 0.00187 0.45761 0.0
O906 O 0.61397 0.98788 0.48501 0.0
C907 C 0.6055 0.99553 0.52838 0.0
N908 N 0.62317 0.98642 0.527 0.0
C909 C 0.62476 0.97935 0.56278 0.0
C910 C 0.60663 0.98875 0.56458 0.0
C911 C 0.59704 0.99699 0.54734 0.0
C912 C 0.63257 0.97852 0.54356 0.0
H913 H 0.59783 0.00143 0.51508 0.0
C914 C 0.61397 0.98907 0.46572 0.0
O915 O 0.65619 0.03992 0.45331 0.0
O916 O 0.63669 0.04175 0.47909 0.0
N917 N 0.65737 0.97062 0.52193 0.0
C918 C 0.6765 0.96576 0.51847 0.0
C919 C 0.68881 0.95853 0.53439 0.0
C920 C 0.68141 0.95656 0.55381 0.0
C921 C 0.66212 0.96274 0.55727 0.0
C922 C 0.65071 0.97019 0.54086 0.0
H923 H 0.6826 0.96787 0.50386 0.0
O924 O 0.67409 0.02844 0.49327 0.0
O925 O 0.64909 0.00627 0.50037 0.0
O926 O 0.66841 0.99385 0.46498 0.0
O927 O 0.65007 0.96833 0.4799 0.0
C928 C 0.65396 0.96231 0.57648 0.0
C929 C 0.63538 0.97077 0.5793 0.0
H930 H 0.59997 0.98977 0.57913 0.0
H931 H 0.58301 0.00421 0.54861 0.0
H932 H 0.70398 0.95457 0.53172 0.0
H933 H 0.69092 0.95094 0.56608 0.0
H934 H 0.66213 0.95593 0.58926 0.0
H935 H 0.62952 0.97082 0.59428 0.0
Mn936 Mn 0.92228 0.45525 0.64582 0.0
Mn937 Mn 0.8909 0.4984 0.64805 0.0
C938 C 0.93323 0.49028 0.6511 0.0
C939 C 0.94985 0.43722 0.63716 0.0
C940 C 0.89535 0.46615 0.68009 0.0
O941 O 0.89715 0.4407 0.6298 0.0
O942 O 0.89871 0.47367 0.63381 0.0
C943 C 0.89536 0.50827 0.60458 0.0
N944 N 0.88828 0.51275 0.62298 0.0
C945 C 0.87136 0.54144 0.60927 0.0
C946 C 0.87809 0.5368 0.59011 0.0
C947 C 0.89017 0.52019 0.58777 0.0
C948 C 0.87658 0.52873 0.62538 0.0
H949 H 0.90459 0.49546 0.60271 0.0
C950 C 0.88742 0.45689 0.62945 0.0
O951 O 0.93732 0.43012 0.65023 0.0
O952 O 0.94304 0.45135 0.62536 0.0
N953 N 0.87555 0.51911 0.65915 0.0
C954 C 0.87173 0.52255 0.67895 0.0
C955 C 0.86137 0.53973 0.68419 0.0
C956 C 0.85489 0.55304 0.66902 0.0
C957 C 0.85934 0.54938 0.64882 0.0
C958 C 0.87015 0.53227 0.64457 0.0
H959 H 0.87687 0.51251 0.69074 0.0
O960 O 0.94279 0.4756 0.65906 0.0
O961 O 0.91598 0.48493 0.6409 0.0
O962 O 0.90544 0.45355 0.67073 0.0
O963 O 0.89236 0.4844 0.67425 0.0
C964 C 0.85397 0.56235 0.63283 0.0
C965 C 0.85979 0.55826 0.61303 0.0
H966 H 0.87424 0.54604 0.57712 0.0
H967 H 0.89547 0.5166 0.57303 0.0
H968 H 0.85859 0.54289 0.69987 0.0
H969 H 0.84687 0.56627 0.67313 0.0
H970 H 0.84549 0.57562 0.63562 0.0
H971 H 0.85556 0.56837 0.60086 0.0
Mn972 Mn 0.24638 0.77888 0.997 0.0
Mn973 Mn 0.22094 0.81092 0.02485 0.0
C974 C 0.2152 0.76769 0.00796 0.0
C975 C 0.26896 0.75381 0.99534 0.0
C976 C 0.2196 0.81098 0.97899 0.0
O977 O 0.26839 0.80152 0.00494 0.0
O978 O 0.24904 0.82233 0.02145 0.0
C979 C 0.24521 0.80641 0.0635 0.0
N980 N 0.22692 0.80498 0.05281 0.0
C981 C 0.20981 0.79327 0.08221 0.0
C982 C 0.22845 0.79467 0.09352 0.0
C983 C 0.24623 0.80126 0.0841 0.0
C984 C 0.20974 0.79858 0.06171 0.0
H985 H 0.25894 0.81141 0.05638 0.0
C986 C 0.26577 0.81825 0.01429 0.0
O987 O 0.26476 0.7648 0.97956 0.0
O988 O 0.26112 0.75844 0.01216 0.0
N989 N 0.19347 0.80207 0.02986 0.0
C990 C 0.17659 0.80224 0.01707 0.0
C991 C 0.1575 0.79633 0.02425 0.0
C992 C 0.15594 0.79076 0.04461 0.0
C993 C 0.17342 0.79117 0.05761 0.0
C994 C 0.19201 0.7973 0.04963 0.0
H995 H 0.1777 0.80692 0.00156 0.0
O996 O 0.22274 0.75844 0.99298 0.0
O997 O 0.22662 0.78283 0.01705 0.0
O998 O 0.23258 0.79772 0.9767 0.0
O999 O 0.21397 0.81684 0.99625 0.0
C1000 C 0.1731 0.78579 0.0782 0.0
C1001 C 0.19129 0.78676 0.09047 0.0
H1002 H 0.22929 0.7907 0.10941 0.0
H1003 H 0.26069 0.80237 0.09271 0.0
H1004 H 0.14402 0.79625 0.01417 0.0
H1005 H 0.14125 0.78649 0.05025 0.0
H1006 H 0.15894 0.78087 0.08474 0.0
H1007 H 0.19087 0.78253 0.10627 0.0
Mn1008 Mn 0.34693 0.51808 0.99147 0.0
Mn1009 Mn 0.30549 0.53998 0.0038 0.0
C1010 C 0.3169 0.49764 0.99503 0.0
C1011 C 0.37526 0.50258 0.00366 0.0
C1012 C 0.32328 0.54211 0.96193 0.0
O1013 O 0.35654 0.54855 0.99834 0.0
O1014 O 0.33098 0.55169 0.01786 0.0
C1015 C 0.30471 0.53247 0.04804 0.0
N1016 N 0.29555 0.53039 0.029 0.0
C1017 C 0.26576 0.51261 0.04181 0.0
C1018 C 0.27492 0.51455 0.0615 0.0
C1019 C 0.29447 0.52453 0.06462 0.0
C1020 C 0.27665 0.52094 0.02586 0.0
H1021 H 0.31974 0.54012 0.05061 0.0
C1022 C 0.34623 0.55972 0.00928 0.0
O1023 O 0.3742 0.50974 0.98533 0.0
O1024 O 0.36142 0.50739 0.01552 0.0
N1025 N 0.28052 0.52702 0.99156 0.0
C1026 C 0.27387 0.52571 0.97159 0.0
C1027 C 0.25469 0.51587 0.96595 0.0
C1028 C 0.24242 0.5075 0.98088 0.0
C1029 C 0.24944 0.50909 0.00133 0.0
C1030 C 0.26869 0.51919 0.00607 0.0
H1031 H 0.283 0.53207 0.95994 0.0
O1032 O 0.33183 0.48981 0.98674 0.0
O1033 O 0.32047 0.51631 0.00151 0.0
O1034 O 0.33533 0.52784 0.96456 0.0
O1035 O 0.31405 0.54994 0.97654 0.0
C1036 C 0.23821 0.50073 0.01715 0.0
C1037 C 0.24635 0.50248 0.03737 0.0
H1038 H 0.26711 0.50836 0.07432 0.0
H1039 H 0.30164 0.52608 0.07979 0.0
H1040 H 0.2494 0.51472 0.95012 0.0
H1041 H 0.22768 0.4998 0.97645 0.0
H1042 H 0.22334 0.49276 0.01392 0.0
H1043 H 0.23763 0.49583 0.04938 0.0
Mn1044 Mn 0.4871 0.00721 0.37818 0.0
Mn1045 Mn 0.50926 0.00926 0.33366 0.0
C1046 C 0.46753 0.00685 0.34811 0.0
C1047 C 0.46853 0.025 0.4008 0.0
C1048 C 0.50379 0.97017 0.35846 0.0
O1049 O 0.51664 0.01543 0.38748 0.0
O1050 O 0.52889 0.01909 0.35627 0.0
C1051 C 0.51796 0.05455 0.32982 0.0
N1052 N 0.50909 0.03615 0.32218 0.0
C1053 C 0.49801 0.05197 0.29117 0.0
C1054 C 0.50712 0.0711 0.29866 0.0
C1055 C 0.51709 0.0724 0.31809 0.0
C1056 C 0.49947 0.03472 0.3035 0.0
H1057 H 0.52577 0.05555 0.34468 0.0
C1058 C 0.5311 0.01947 0.37572 0.0
O1059 O 0.47455 0.00692 0.40541 0.0
O1060 O 0.47795 0.03425 0.38656 0.0
N1061 N 0.49186 0.0 0.31062 0.0
C1062 C 0.48298 0.98063 0.30614 0.0
C1063 C 0.47179 0.97683 0.28756 0.0
C1064 C 0.47003 0.99291 0.27371 0.0
C1065 C 0.47933 0.01271 0.27866 0.0
C1066 C 0.49031 0.01557 0.2974 0.0
H1067 H 0.48445 0.96816 0.31664 0.0
O1068 O 0.46045 -0.00023 0.36456 0.0
O1069 O 0.48633 0.01446 0.34951 0.0
O1070 O 0.4942 0.9773 0.37293 0.0
O1071 O 0.51009 0.98096 0.34375 0.0
C1072 C 0.47798 0.02978 0.26583 0.0
C1073 C 0.48731 0.04939 0.27208 0.0
H1074 H 0.50644 0.0849 0.28969 0.0
H1075 H 0.52413 0.0871 0.32397 0.0
H1076 H 0.46463 0.96152 0.2839 0.0
H1077 H 0.46144 0.98992 0.25935 0.0
H1078 H 0.46964 0.02804 0.25121 0.0
H1079 H 0.48599 0.06244 0.26217 0.0
Mn1080 Mn 0.77088 0.27879 0.5251 0.0
Mn1081 Mn 0.78836 0.25374 0.5655 0.0
C1082 C 0.79618 0.29566 0.54589 0.0
C1083 C 0.75185 0.30313 0.50884 0.0
C1084 C 0.80079 0.24559 0.52323 0.0
O1085 O 0.74754 0.25757 0.52834 0.0
O1086 O 0.762 0.23975 0.55344 0.0
C1087 C 0.75688 0.2601 0.5946 0.0
N1088 N 0.77668 0.2615 0.59005 0.0
C1089 C 0.7877 0.27055 0.62475 0.0
C1090 C 0.76741 0.2693 0.62979 0.0
C1091 C 0.75194 0.26412 0.61464 0.0
C1092 C 0.79169 0.26643 0.60455 0.0
H1093 H 0.74501 0.2557 0.58308 0.0
C1094 C 0.74767 0.24202 0.53986 0.0
O1095 O 0.75942 0.28857 0.49871 0.0
O1096 O 0.75359 0.30232 0.52844 0.0
N1097 N 0.81359 0.26435 0.57856 0.0
C1098 C 0.83221 0.2667 0.57076 0.0
C1099 C 0.84932 0.2726 0.58371 0.0
C1100 C 0.84714 0.2758 0.60455 0.0
C1101 C 0.8278 0.27342 0.61218 0.0
C1102 C 0.81128 0.26754 0.59852 0.0
H1103 H 0.83396 0.26418 0.55477 0.0
O1104 O 0.79475 0.29785 0.52644 0.0
O1105 O 0.78369 0.28113 0.55318 0.0
O1106 O 0.78822 0.25661 0.51419 0.0
O1107 O 0.80229 0.2442 0.54237 0.0
C1108 C 0.82416 0.27726 0.63266 0.0
C1109 C 0.80413 0.27578 0.63896 0.0
H1110 H 0.76353 0.27229 0.64522 0.0
H1111 H 0.73625 0.26302 0.61847 0.0
H1112 H 0.86415 0.27462 0.57765 0.0
H1113 H 0.86038 0.28042 0.61447 0.0
H1114 H 0.83663 0.28167 0.64362 0.0
H1115 H 0.80152 0.27893 0.65471 0.0
Mn1116 Mn 0.66383 0.53132 0.68596 0.0
Mn1117 Mn 0.62114 0.5367 0.65748 0.0
C1118 C 0.66202 0.56052 0.66633 0.0
C1119 C 0.69452 0.51514 0.68633 0.0
C1120 C 0.62523 0.54461 0.70323 0.0
O1121 O 0.64731 0.5036 0.68771 0.0
O1122 O 0.62414 0.50699 0.66195 0.0
C1123 C 0.62853 0.51658 0.61834 0.0
N1124 N 0.62452 0.53376 0.62906 0.0
C1125 C 0.61756 0.55216 0.59839 0.0
C1126 C 0.62175 0.53471 0.587 0.0
C1127 C 0.6273 0.51687 0.59703 0.0
C1128 C 0.61908 0.55096 0.61957 0.0
H1129 H 0.6323 0.50267 0.626 0.0
C1130 C 0.63276 0.49636 0.67556 0.0
O1131 O 0.68712 0.52086 0.70319 0.0
O1132 O 0.68419 0.51859 0.66979 0.0
N1133 N 0.61659 0.56472 0.65198 0.0
C1134 C 0.61415 0.58045 0.66527 0.0
C1135 C 0.60976 0.59973 0.65782 0.0
C1136 C 0.60655 0.60224 0.63685 0.0
C1137 C 0.60956 0.58598 0.62339 0.0
C1138 C 0.61491 0.56737 0.63172 0.0
H1139 H 0.61601 0.57848 0.6814 0.0
O1140 O 0.67638 0.55954 0.68037 0.0
O1141 O 0.65001 0.54374 0.66324 0.0
O1142 O 0.64456 0.54399 0.70603 0.0
O1143 O 0.61554 0.54028 0.68622 0.0
C1144 C 0.60773 0.58755 0.6021 0.0
C1145 C 0.61168 0.57062 0.5896 0.0
H1146 H 0.62064 0.53481 0.57056 0.0
H1147 H 0.63036 0.50327 0.58834 0.0
H1148 H 0.60882 0.61254 0.66827 0.0
H1149 H 0.60182 0.61669 0.63133 0.0
H1150 H 0.60346 0.60173 0.5952 0.0
H1151 H 0.61024 0.57198 0.57325 0.0
Mn1152 Mn 0.43039 0.68056 0.69782 0.0
Mn1153 Mn 0.46538 0.71584 0.71929 0.0
C1154 C 0.45181 0.69865 0.67715 0.0
C1155 C 0.39891 0.67189 0.6821 0.0
C1156 C 0.46919 0.66939 0.72087 0.0
O1157 O 0.42056 0.68474 0.72566 0.0
O1158 O 0.44336 0.70987 0.73882 0.0
C1159 C 0.44206 0.75284 0.7215 0.0
N1160 N 0.45782 0.74327 0.71432 0.0
C1161 C 0.47 0.77423 0.69762 0.0
C1162 C 0.45389 0.78439 0.70483 0.0
C1163 C 0.43989 0.77366 0.71684 0.0
C1164 C 0.47153 0.75356 0.70297 0.0
H1165 H 0.43132 0.74465 0.7308 0.0
C1166 C 0.42764 0.69702 0.74006 0.0
O1167 O 0.40917 0.65793 0.69092 0.0
O1168 O 0.40587 0.69108 0.6847 0.0
N1169 N 0.48725 0.72276 0.70228 0.0
C1170 C 0.50201 0.71078 0.69663 0.0
C1171 C 0.51724 0.71923 0.68457 0.0
C1172 C 0.51719 0.73991 0.67853 0.0
C1173 C 0.50175 0.75187 0.68434 0.0
C1174 C 0.48709 0.74268 0.69656 0.0
H1175 H 0.50215 0.69489 0.70126 0.0
O1176 O 0.44263 0.68097 0.67139 0.0
O1177 O 0.44814 0.70548 0.6953 0.0
O1178 O 0.45303 0.66389 0.71003 0.0
O1179 O 0.475 0.68832 0.72516 0.0
C1180 C 0.50044 0.77262 0.67867 0.0
C1181 C 0.48458 0.7838 0.68533 0.0
H1182 H 0.45213 0.80043 0.70124 0.0
H1183 H 0.42746 0.78142 0.72252 0.0
H1184 H 0.52904 0.70985 0.67999 0.0
H1185 H 0.52909 0.74647 0.66947 0.0
H1186 H 0.51156 0.78013 0.66925 0.0
H1187 H 0.48378 0.79976 0.68096 0.0
Mn1188 Mn 0.12887 0.34843 0.98428 0.0
Mn1189 Mn 0.16375 0.34125 0.95036 0.0
C1190 C 0.16188 0.35885 0.99283 0.0
C1191 C 0.11002 0.336 0.01005 0.0
C1192 C 0.13526 0.37555 0.94827 0.0
O1193 O 0.11396 0.32965 0.96272 0.0
O1194 O 0.13974 0.32125 0.94432 0.0
C1195 C 0.17481 0.29986 0.96323 0.0
N1196 N 0.18032 0.32014 0.95976 0.0
C1197 C 0.21516 0.31593 0.96997 0.0
C1198 C 0.20988 0.29497 0.9736 0.0
C1199 C 0.18961 0.28693 0.97028 0.0
C1200 C 0.1997 0.32813 0.9633 0.0
H1201 H 0.15924 0.29366 0.96069 0.0
C1202 C 0.12101 0.3197 0.9483 0.0
O1203 O 0.10397 0.35082 0.99877 0.0
O1204 O 0.12602 0.32726 0.00512 0.0
N1205 N 0.18785 0.35956 0.95369 0.0
C1206 C 0.19075 0.37945 0.94731 0.0
C1207 C 0.21036 0.38942 0.94818 0.0
C1208 C 0.22685 0.37869 0.95515 0.0
C1209 C 0.22362 0.35812 0.9612 0.0
C1210 C 0.20376 0.34889 0.95967 0.0
H1211 H 0.17826 0.38756 0.94122 0.0
O1212 O 0.14766 0.3654 0.00328 0.0
O1213 O 0.15643 0.34543 0.97828 0.0
O1214 O 0.12752 0.37264 0.96527 0.0
O1215 O 0.14763 0.36391 0.94056 0.0
C1216 C 0.23943 0.34618 0.96792 0.0
C1217 C 0.23517 0.32514 0.97252 0.0
H1218 H 0.22127 0.2849 0.97886 0.0
H1219 H 0.18542 0.27078 0.97308 0.0
H1220 H 0.2128 0.40516 0.94307 0.0
H1221 H 0.24199 0.38607 0.955 0.0
H1222 H 0.25493 0.35298 0.96944 0.0
H1223 H 0.24745 0.3161 0.97765 0.0
Mn1224 Mn 0.00953 0.39166 0.49854 0.0
Mn1225 Mn 0.00012 0.34397 0.51995 0.0
C1226 C 0.99487 0.35838 0.48002 0.0
C1227 C 0.02224 0.39664 0.46472 0.0
C1228 C 0.97056 0.37697 0.51892 0.0
O1229 O 0.02514 0.39815 0.52757 0.0
O1230 O 0.01381 0.36735 0.53153 0.0
C1231 C 0.04397 0.33773 0.52747 0.0
N1232 N 0.02504 0.33001 0.5204 0.0
C1233 C 0.04073 0.29432 0.5165 0.0
C1234 C 0.05904 0.30433 0.52381 0.0
C1235 C 0.06053 0.32544 0.5291 0.0
C1236 C 0.02142 0.31009 0.51475 0.0
H1237 H 0.04683 0.35372 0.53216 0.0
C1238 C 0.02297 0.383 0.53932 0.0
O1239 O 0.0032 0.39596 0.46846 0.0
O1240 O 0.03409 0.39355 0.48045 0.0
N1241 N 0.98554 0.31985 0.50725 0.0
C1242 C 0.96528 0.31653 0.50262 0.0
C1243 C 0.95638 0.29742 0.49465 0.0
C1244 C 0.96719 0.27994 0.49168 0.0
C1245 C 0.98845 0.28045 0.49739 0.0
C1246 C 0.99751 0.30443 0.50625 0.0
H1247 H 0.95553 0.32889 0.50456 0.0
O1248 O 0.99113 0.37651 0.47445 0.0
O1249 O 0.00672 0.35918 0.49575 0.0
O1250 O 0.98229 0.39165 0.51218 0.0
O1251 O 0.97504 0.35822 0.52092 0.0
C1252 C 0.01819 0.25543 0.49977 0.0
C1253 C 0.04001 0.26873 0.50974 0.0
H1254 H 0.0724 0.29582 0.52542 0.0
H1255 H 0.0751 0.33262 0.53482 0.0
H1256 H 0.94027 0.29614 0.49063 0.0
H1257 H 0.95823 0.26642 0.48537 0.0
H1258 H 0.01888 0.23903 0.49584 0.0
H1259 H 0.05363 0.26067 0.51164 0.0
Mn1260 Mn 0.00292 0.23752 0.73885 0.0
Mn1261 Mn 0.96623 0.20999 0.71035 0.0
C1262 C 0.98653 0.20977 0.75388 0.0
C1263 C 0.01565 0.26316 0.762 0.0
C1264 C 0.01076 0.20601 0.70634 0.0
O1265 O 0.9962 0.25755 0.71731 0.0
O1266 O 0.9722 0.23822 0.69853 0.0
C1267 C 0.93129 0.23454 0.71687 0.0
N1268 N 0.93959 0.21602 0.71678 0.0
C1269 C 0.90759 0.19762 0.723 0.0
C1270 C 0.89866 0.21651 0.7231 0.0
C1271 C 0.91058 0.23504 0.7201 0.0
C1272 C 0.92824 0.19808 0.71961 0.0
H1273 H 0.94039 0.24875 0.71434 0.0
C1274 C 0.98357 0.25505 0.70214 0.0
O1275 O 0.02693 0.25556 0.74882 0.0
O1276 O 0.99646 0.25711 0.7606 0.0
N1277 N 0.95845 0.18245 0.71851 0.0
C1278 C 0.96992 0.16601 0.72068 0.0
C1279 C 0.9606 0.14643 0.72485 0.0
C1280 C 0.93954 0.1439 0.72655 0.0
C1281 C 0.92803 0.16105 0.72431 0.0
C1282 C 0.93815 0.18017 0.71997 0.0
H1283 H 0.98605 0.16784 0.71929 0.0
O1284 O 0.00526 0.21615 0.7585 0.0
O1285 O 0.97745 0.21904 0.73857 0.0
O1286 O 0.01727 0.2198 0.71941 0.0
O1287 O 0.99211 0.20127 0.70192 0.0
C1288 C 0.90711 0.16015 0.72717 0.0
C1289 C 0.89689 0.17841 0.72648 0.0
H1290 H 0.88272 0.21699 0.72564 0.0
H1291 H 0.90378 0.24967 0.72018 0.0
H1292 H 0.96962 0.13334 0.72676 0.0
H1293 H 0.93244 0.12882 0.73001 0.0
H1294 H 0.89886 0.14558 0.73043 0.0
H1295 H 0.88087 0.17758 0.72907 0.0
Mn1296 Mn 0.32782 0.63754 0.43834 0.0
Mn1297 Mn 0.31375 0.58949 0.45354 0.0
C1298 C 0.31547 0.61306 0.41466 0.0
C1299 C 0.35129 0.6606 0.42495 0.0
C1300 C 0.2882 0.62574 0.4576 0.0
O1301 O 0.34125 0.63758 0.46619 0.0
O1302 O 0.33029 0.60543 0.47557 0.0
C1303 C 0.35349 0.5718 0.45802 0.0
N1304 N 0.33428 0.57104 0.44942 0.0
C1305 C 0.33771 0.53779 0.43369 0.0
C1306 C 0.35756 0.53825 0.44235 0.0
C1307 C 0.36548 0.55533 0.45454 0.0
C1308 C 0.32647 0.5546 0.43778 0.0
H1309 H 0.35951 0.58477 0.46763 0.0
C1310 C 0.33986 0.62323 0.47901 0.0
O1311 O 0.33608 0.66724 0.43401 0.0
O1312 O 0.354 0.6411 0.42601 0.0
N1313 N 0.29748 0.57239 0.43399 0.0
C1314 C 0.27826 0.57463 0.4265 0.0
C1315 C 0.26817 0.559 0.41388 0.0
C1316 C 0.27786 0.5412 0.40912 0.0
C1317 C 0.2977 0.53929 0.41695 0.0
C1318 C 0.30696 0.55533 0.42958 0.0
H1319 H 0.27061 0.58814 0.43031 0.0
O1320 O 0.31435 0.63261 0.41162 0.0
O1321 O 0.32367 0.60795 0.43223 0.0
O1322 O 0.30022 0.63962 0.4503 0.0
O1323 O 0.29157 0.60668 0.45854 0.0
C1324 C 0.30865 0.52212 0.41276 0.0
C1325 C 0.32865 0.52137 0.42113 0.0
H1326 H 0.36685 0.52558 0.43973 0.0
H1327 H 0.38075 0.55575 0.46135 0.0
H1328 H 0.25288 0.56064 0.40811 0.0
H1329 H 0.26991 0.52908 0.39952 0.0
H1330 H 0.30188 0.50946 0.40307 0.0
H1331 H 0.33695 0.50814 0.41775 0.0
Mn1332 Mn 0.42847 0.66124 0.96153 0.0
Mn1333 Mn 0.44252 0.63393 0.92219 0.0
C1334 C 0.46248 0.65615 0.95903 0.0
C1335 C 0.4184 0.66255 0.99431 0.0
C1336 C 0.42922 0.67762 0.92021 0.0
O1337 O 0.40159 0.64847 0.94653 0.0
O1338 O 0.41662 0.62302 0.93283 0.0
C1339 C 0.44776 0.59254 0.93925 0.0
N1340 N 0.45566 0.60987 0.9302 0.0
C1341 C 0.48833 0.59627 0.92939 0.0
C1342 C 0.48054 0.5783 0.93873 0.0
C1343 C 0.46017 0.57643 0.94366 0.0
C1344 C 0.47524 0.61178 0.92529 0.0
H1345 H 0.4321 0.591 0.94304 0.0
C1346 C 0.40125 0.63352 0.93341 0.0
O1347 O 0.41458 0.67715 0.98175 0.0
O1348 O 0.42528 0.64597 0.98694 0.0
N1349 N 0.4683 0.64398 0.91279 0.0
C1350 C 0.47339 0.66188 0.903 0.0
C1351 C 0.49325 0.66612 0.89709 0.0
C1352 C 0.50765 0.65176 0.90096 0.0
C1353 C 0.50196 0.63316 0.91046 0.0
C1354 C 0.48191 0.62979 0.91604 0.0
H1355 H 0.46245 0.67285 0.8995 0.0
O1356 O 0.45709 0.66997 0.97156 0.0
O1357 O 0.44792 0.64516 0.94936 0.0
O1358 O 0.43084 0.68172 0.9391 0.0
O1359 O 0.43008 0.65942 0.9125 0.0
C1360 C 0.5154 0.61781 0.91457 0.0
C1361 C 0.50856 0.59934 0.92395 0.0
H1362 H 0.49007 0.56585 0.94217 0.0
H1363 H 0.45405 0.56258 0.95083 0.0
H1364 H 0.4974 0.68039 0.8895 0.0
H1365 H 0.52298 0.65509 0.8964 0.0
H1366 H 0.531 0.61999 0.91048 0.0
H1367 H 0.51895 0.58754 0.92684 0.0
Mn1368 Mn 0.52109 0.53742 0.16071 0.0
Mn1369 Mn 0.56087 0.50827 0.16453 0.0
C1370 C 0.51834 0.5052 0.17537 0.0
C1371 C 0.48909 0.54149 0.14494 0.0
C1372 C 0.55718 0.54657 0.19091 0.0
O1373 O 0.53999 0.55124 0.14027 0.0
O1374 O 0.56427 0.52847 0.1428 0.0
C1375 C 0.55694 0.48531 0.12517 0.0
N1376 N 0.55781 0.48525 0.14583 0.0
C1377 C 0.55915 0.44824 0.1461 0.0
C1378 C 0.5581 0.44787 0.12481 0.0
C1379 C 0.55692 0.46648 0.11431 0.0
C1380 C 0.55888 0.46743 0.15609 0.0
H1381 H 0.55644 0.49963 0.11708 0.0
C1382 C 0.55668 0.54439 0.13519 0.0
O1383 O 0.49802 0.55593 0.15706 0.0
O1384 O 0.50033 0.5274 0.13927 0.0
N1385 N 0.55899 0.48806 0.18527 0.0
C1386 C 0.55935 0.4911 0.20577 0.0
C1387 C 0.56044 0.47406 0.21854 0.0
C1388 C 0.5614 0.45415 0.21009 0.0
C1389 C 0.56088 0.4514 0.18893 0.0
C1390 C 0.55958 0.46894 0.17699 0.0
H1391 H 0.55909 0.50644 0.21232 0.0
O1392 O 0.50649 0.51913 0.18011 0.0
O1393 O 0.53199 0.51077 0.16291 0.0
O1394 O 0.53964 0.5512 0.18429 0.0
O1395 O 0.56583 0.53112 0.18446 0.0
C1396 C 0.56164 0.43197 0.17922 0.0
C1397 C 0.56061 0.43037 0.15782 0.0
H1398 H 0.55827 0.43341 0.11638 0.0
H1399 H 0.55624 0.46633 0.09788 0.0
H1400 H 0.56084 0.4763 0.23485 0.0
H1401 H 0.56254 0.44111 0.22 0.0
H1402 H 0.56279 0.41812 0.18806 0.0
H1403 H 0.561 0.41531 0.15054 0.0
Mn1404 Mn 0.23501 0.2261 0.46725 0.0
Mn1405 Mn 0.25523 0.20166 0.50722 0.0
C1406 C 0.2583 0.24361 0.48986 0.0
C1407 C 0.2087 0.2474 0.45838 0.0
C1408 C 0.26882 0.19676 0.46432 0.0
O1409 O 0.21581 0.2002 0.4681 0.0
O1410 O 0.23043 0.18602 0.49569 0.0
C1411 C 0.22238 0.20725 0.53478 0.0
N1412 N 0.24241 0.20931 0.53107 0.0
C1413 C 0.25133 0.22335 0.56467 0.0
C1414 C 0.23081 0.22112 0.56896 0.0
C1415 C 0.21625 0.21325 0.55387 0.0
C1416 C 0.25647 0.21739 0.54528 0.0
H1417 H 0.21119 0.20098 0.52328 0.0
C1418 C 0.21692 0.18599 0.48109 0.0
O1419 O 0.21796 0.23841 0.44422 0.0
O1420 O 0.21387 0.24293 0.47666 0.0
N1421 N 0.27946 0.21516 0.52015 0.0
C1422 C 0.29842 0.21738 0.51318 0.0
C1423 C 0.31472 0.22552 0.52625 0.0
C1424 C 0.31139 0.23111 0.54636 0.0
C1425 C 0.29175 0.22857 0.55322 0.0
C1426 C 0.27613 0.22032 0.53955 0.0
H1427 H 0.30109 0.21272 0.49784 0.0
O1428 O 0.25512 0.25057 0.47179 0.0
O1429 O 0.24799 0.22655 0.49392 0.0
O1430 O 0.25709 0.20893 0.45497 0.0
O1431 O 0.26902 0.19364 0.48341 0.0
C1432 C 0.28706 0.23391 0.5731 0.0
C1433 C 0.26683 0.2315 0.57875 0.0
H1434 H 0.22605 0.22558 0.58371 0.0
H1435 H 0.20039 0.21158 0.55702 0.0
H1436 H 0.32989 0.22724 0.52098 0.0
H1437 H 0.32401 0.23734 0.55639 0.0
H1438 H 0.29885 0.2402 0.58407 0.0
H1439 H 0.26336 0.23608 0.59394 0.0
Mn1440 Mn 0.29887 0.02447 0.81629 0.0
Mn1441 Mn 0.27906 0.06846 0.80093 0.0
C1442 C 0.31983 0.05103 0.80419 0.0
C1443 C 0.30914 0.99151 0.81045 0.0
C1444 C 0.29315 0.06175 0.84415 0.0
O1445 O 0.26864 0.01575 0.81533 0.0
O1446 O 0.25772 0.04694 0.80867 0.0
C1447 C 0.25906 0.0497 0.76285 0.0
N1448 N 0.27226 0.0644 0.77244 0.0
C1449 C 0.2804 0.07972 0.7406 0.0
C1450 C 0.26688 0.06475 0.73041 0.0
C1451 C 0.25619 0.04966 0.74158 0.0
C1452 C 0.28282 0.07883 0.76178 0.0
H1453 H 0.25076 0.03812 0.77137 0.0
C1454 C 0.25455 0.02795 0.81355 0.0
O1455 O 0.30577 0.99792 0.8286 0.0
O1456 O 0.30413 0.00327 0.79556 0.0
N1457 N 0.29689 0.09127 0.79314 0.0
C1458 C 0.30646 0.10664 0.80534 0.0
C1459 C 0.31721 0.12346 0.7967 0.0
C1460 C 0.31732 0.12484 0.77551 0.0
C1461 C 0.30604 0.1097 0.76321 0.0
C1462 C 0.29567 0.09321 0.77276 0.0
H1463 H 0.30535 0.10641 0.82152 0.0
O1464 O 0.32694 0.03634 0.81473 0.0
O1465 O 0.30029 0.04908 0.79931 0.0
O1466 O 0.29643 0.04265 0.84195 0.0
O1467 O 0.28706 0.07315 0.82977 0.0
C1468 C 0.30408 0.11073 0.7419 0.0
C1469 C 0.29134 0.09569 0.73059 0.0
H1470 H 0.26449 0.06477 0.71403 0.0
H1471 H 0.2457 0.03808 0.73382 0.0
H1472 H 0.32484 0.13558 0.80638 0.0
H1473 H 0.3254 0.13798 0.76886 0.0
H1474 H 0.31201 0.12322 0.7341 0.0
H1475 H 0.28977 0.09677 0.71422 0.0
Mn1476 Mn 0.8578 0.97316 0.01859 0.0
Mn1477 Mn 0.8592 0.02109 0.03897 0.0
C1478 C 0.85513 0.97643 0.05481 0.0
C1479 C 0.83335 0.94626 0.00217 0.0
C1480 C 0.8226 0.00023 0.01549 0.0
O1481 O 0.85966 0.99384 0.99428 0.0
O1482 O 0.87607 0.01416 0.01665 0.0
C1483 C 0.90228 0.02437 0.05404 0.0
N1484 N 0.88239 0.02579 0.05752 0.0
C1485 C 0.89102 0.03991 0.09114 0.0
C1486 C 0.91158 0.03849 0.08796 0.0
C1487 C 0.91721 0.03056 0.06938 0.0
C1488 C 0.87676 0.03293 0.07553 0.0
H1489 H 0.90673 0.01879 0.0396 0.0
C1490 C 0.8679 0.01198 0.99889 0.0
O1491 O 0.82831 0.96148 0.01286 0.0
O1492 O 0.85217 0.94747 -0.00092 0.0
N1493 N 0.84372 0.02807 0.06134 0.0
C1494 C 0.82358 0.03117 0.06111 0.0
C1495 C 0.81551 0.03912 0.0785 0.0
C1496 C 0.82836 0.04491 0.09563 0.0
C1497 C 0.8492 0.04289 0.09508 0.0
C1498 C 0.85631 0.03418 0.07755 0.0
H1499 H 0.81368 0.02769 0.04776 0.0
O1500 O 0.85506 0.95858 0.04581 0.0
O1501 O 0.85794 0.99159 0.04278 0.0
O1502 O 0.82788 0.98157 0.01681 0.0
O1503 O 0.83411 0.0164 0.02107 0.0
C1504 C 0.8633 0.05011 0.11088 0.0
C1505 C 0.88419 0.04858 0.10893 0.0
H1506 H 0.92317 0.04366 0.09959 0.0
H1507 H 0.93306 0.02955 0.06676 0.0
H1508 H 0.79949 0.04125 0.07852 0.0
H1509 H 0.82216 0.05149 0.10887 0.0
H1510 H 0.85826 0.05713 0.12451 0.0
H1511 H 0.89489 0.05439 0.12113 0.0
Mn1512 Mn 0.98669 0.32675 0.22407 0.0
Mn1513 Mn 0.98157 0.3494 0.1792 0.0
C1514 C 0.95797 0.34535 0.21755 0.0
C1515 C 0.00288 0.33172 0.2565 0.0
C1516 C 0.97375 0.30276 0.18633 0.0
O1517 O 0.01307 0.32239 0.20968 0.0
O1518 O 0.00911 0.35003 0.19174 0.0
C1519 C 0.99844 0.39273 0.18725 0.0
N1520 N 0.983 0.379 0.17985 0.0
C1521 C 0.96551 0.40634 0.16425 0.0
C1522 C 0.98117 0.42075 0.17179 0.0
C1523 C 0.99766 0.41392 0.1834 0.0
C1524 C 0.96706 0.38543 0.16863 0.0
H1525 H 0.01139 0.38757 0.19582 0.0
C1526 C 0.01841 0.33412 0.19533 0.0
O1527 O 0.9971 0.31314 0.24953 0.0
O1528 O 0.00032 0.3468 0.24432 0.0
N1529 N 0.95475 0.35067 0.16703 0.0
C1530 C 0.9406 0.33494 0.16117 0.0
C1531 C 0.92313 0.33926 0.14949 0.0
C1532 C 0.92046 0.35967 0.14379 0.0
C1533 C 0.93497 0.37568 0.15031 0.0
C1534 C 0.95207 0.37045 0.16194 0.0
H1535 H 0.94271 0.31918 0.16499 0.0
O1536 O 0.95944 0.33374 0.23327 0.0
O1537 O 0.97376 0.34682 0.20696 0.0
O1538 O 0.97298 0.30317 0.20568 0.0
O1539 O 0.97945 0.31862 0.17611 0.0
C1540 C 0.93322 0.39658 0.14548 0.0
C1541 C 0.94847 0.41191 0.15247 0.0
H1542 H 0.98071 0.43709 0.16873 0.0
H1543 H 0.00987 0.42493 0.18917 0.0
H1544 H 0.91193 0.32683 0.14458 0.0
H1545 H 0.90729 0.36292 0.1343 0.0
H1546 H 0.92019 0.40105 0.13643 0.0
H1547 H 0.94692 0.42794 0.14872 0.0
Mn1548 Mn 0.82722 0.8163 0.49912 0.0
Mn1549 Mn 0.83064 0.86268 0.47661 0.0
C1550 C 0.81869 0.84537 0.51624 0.0
C1551 C 0.84344 0.79351 0.5203 0.0
C1552 C 0.79566 0.82976 0.4679 0.0
O1553 O 0.84318 0.81073 0.47449 0.0
O1554 O 0.84672 0.84314 0.46236 0.0
C1555 C 0.87415 0.87496 0.48615 0.0
N1556 N 0.85438 0.8789 0.48718 0.0
C1557 C 0.86381 0.91211 0.50335 0.0
C1558 C 0.88428 0.90847 0.50236 0.0
C1559 C 0.88946 0.88976 0.49381 0.0
C1560 C 0.84922 0.89673 0.49558 0.0
H1561 H 0.87819 0.86067 0.47945 0.0
C1562 C 0.84987 0.82393 0.46188 0.0
O1563 O 0.82757 0.78684 0.50878 0.0
O1564 O 0.85058 0.81238 0.51794 0.0
N1565 N 0.81586 0.88327 0.48884 0.0
C1566 C 0.79544 0.884 0.48945 0.0
C1567 C 0.78778 0.90122 0.49859 0.0
C1568 C 0.80108 0.91783 0.50627 0.0
C1569 C 0.82202 0.91688 0.50511 0.0
C1570 C 0.82882 0.89907 0.49642 0.0
H1571 H 0.78512 0.87137 0.48336 0.0
O1572 O 0.81277 0.82701 0.52204 0.0
O1573 O 0.83031 0.84628 0.50102 0.0
O1574 O 0.80103 0.81623 0.48063 0.0
O1575 O 0.8058 0.84707 0.46534 0.0
C1576 C 0.83641 0.93286 0.51231 0.0
C1577 C 0.85729 0.93044 0.51162 0.0
H1578 H 0.89612 0.9199 0.50814 0.0
H1579 H 0.90523 0.88682 0.49301 0.0
H1580 H 0.7717 0.90169 0.49977 0.0
H1581 H 0.79507 0.93114 0.51314 0.0
H1582 H 0.83158 0.94714 0.51825 0.0
H1583 H 0.86819 0.94278 0.51744 0.0
Mn1584 Mn 0.51117 0.86753 0.79606 0.0
Mn1585 Mn 0.52892 0.81999 0.79058 0.0
C1586 C 0.49277 0.83926 0.80642 0.0
C1587 C 0.49149 0.89396 0.78615 0.0
C1588 C 0.54301 0.84971 0.8248 0.0
O1589 O 0.53252 0.87316 0.77612 0.0
O1590 O 0.54455 0.84165 0.77505 0.0
C1591 C 0.51854 0.81375 0.74715 0.0
N1592 N 0.51782 0.80596 0.76615 0.0
C1593 C 0.51125 0.77101 0.75261 0.0
C1594 C 0.51307 0.77891 0.73312 0.0
C1595 C 0.51612 0.80027 0.73028 0.0
C1596 C 0.51368 0.78535 0.76899 0.0
H1597 H 0.5219 0.83011 0.74496 0.0
C1598 C 0.54509 0.86083 0.77029 0.0
O1599 O 0.50671 0.89724 0.79942 0.0
O1600 O 0.48938 0.87609 0.77678 0.0
N1601 N 0.51674 0.79697 0.80528 0.0
C1602 C 0.51782 0.79713 0.82932 0.0
C1603 C 0.51518 0.77455 0.84246 0.0
C1604 C 0.50951 0.74341 0.81647 0.0
C1605 C 0.50965 0.75302 0.79223 0.0
C1606 C 0.5132 0.77902 0.78863 0.0
H1607 H 0.52122 0.81142 0.83789 0.0
O1608 O 0.49052 0.85746 0.81384 0.0
O1609 O 0.50574 0.83746 0.79239 0.0
O1610 O 0.5331 0.86492 0.81925 0.0
O1611 O 0.5419 0.83235 0.81548 0.0
C1612 C 0.50714 0.74051 0.77484 0.0
C1613 C 0.50796 0.74937 0.75556 0.0
H1614 H 0.51274 0.76857 0.72023 0.0
H1615 H 0.51744 0.80624 0.71515 0.0
H1616 H 0.5163 0.77552 0.85906 0.0
H1617 H 0.50734 0.72665 0.81833 0.0
H1618 H 0.50476 0.72387 0.77613 0.0
H1619 H 0.50619 0.73894 0.74245 0.0
Mn1620 Mn 0.33356 0.01029 0.1555 0.0
Mn1621 Mn 0.31265 0.97976 0.19081 0.0
C1622 C 0.34107 0.01958 0.18892 0.0
C1623 C 0.33191 0.03738 0.13348 0.0
C1624 C 0.3475 0.96857 0.1661 0.0
O1625 O 0.31203 0.99155 0.1399 0.0
O1626 O 0.29496 0.97741 0.16545 0.0
C1627 C 0.27541 0.00025 0.19824 0.0
N1628 N 0.29283 0.9925 0.20543 0.0
C1629 C 0.28384 0.9963 0.24002 0.0
C1630 C 0.26585 0.0045 0.23302 0.0
C1631 C 0.26167 0.00658 0.21205 0.0
C1632 C 0.29713 0.9907 0.22556 0.0
H1633 H 0.27201 0.0014 0.18211 0.0
C1634 C 0.29777 0.9797 0.14657 0.0
O1635 O 0.34328 0.02245 0.13012 0.0
O1636 O 0.32019 0.03557 0.14854 0.0
N1637 N 0.32784 0.97952 0.21633 0.0
C1638 C 0.34604 0.9717 0.22056 0.0
C1639 C 0.35206 0.96757 0.24074 0.0
C1640 C 0.33925 0.97143 0.25634 0.0
C1641 C 0.32091 0.98009 0.25174 0.0
C1642 C 0.31555 0.98349 0.23132 0.0
H1643 H 0.3556 0.96796 0.20858 0.0
O1644 O 0.35206 0.02689 0.17467 0.0
O1645 O 0.32511 0.00718 0.18313 0.0
O1646 O 0.35136 0.9861 0.15819 0.0
O1647 O 0.3327 0.9644 0.17721 0.0
C1648 C 0.30754 0.98508 0.26657 0.0
C1649 C 0.28912 0.99342 0.26073 0.0
H1650 H 0.25518 0.0093 0.2436 0.0
H1651 H 0.24777 0.01282 0.20655 0.0
H1652 H 0.36636 0.96108 0.24422 0.0
H1653 H 0.34369 0.96789 0.27183 0.0
H1654 H 0.31132 0.98265 0.2825 0.0
H1655 H 0.27907 0.99741 0.27227 0.0
Mn1656 Mn 0.25903 0.46792 0.21375 0.0
Mn1657 Mn 0.22595 0.49605 0.23667 0.0
C1658 C 0.26682 0.48174 0.24589 0.0
C1659 C 0.28686 0.47157 0.19272 0.0
C1660 C 0.22193 0.44886 0.23451 0.0
O1661 O 0.23884 0.47327 0.19037 0.0
O1662 O 0.21997 0.4945 0.20722 0.0
C1663 C 0.24005 0.53626 0.21946 0.0
N1664 N 0.23558 0.52463 0.23586 0.0
C1665 C 0.24334 0.55399 0.25857 0.0
C1666 C 0.24787 0.56634 0.24192 0.0
C1667 C 0.24647 0.55736 0.2223 0.0
C1668 C 0.23769 0.53291 0.25485 0.0
H1669 H 0.23872 0.52947 0.20436 0.0
C1670 C 0.22473 0.4854 0.19112 0.0
O1671 O 0.27744 0.45342 0.1952 0.0
O1672 O 0.2797 0.48684 0.20169 0.0
N1673 N 0.22983 0.49933 0.26558 0.0
C1674 C 0.22538 0.48525 0.28009 0.0
C1675 C 0.22621 0.49162 0.30057 0.0
C1676 C 0.23096 0.51258 0.3059 0.0
C1677 C 0.235 0.52692 0.29067 0.0
C1678 C 0.23429 0.51958 0.27056 0.0
H1679 H 0.22078 0.46942 0.27602 0.0
O1680 O 0.2769 0.4671 0.23912 0.0
O1681 O 0.25302 0.48814 0.23348 0.0
O1682 O 0.23833 0.44594 0.22561 0.0
O1683 O 0.21592 0.46673 0.23839 0.0
C1684 C 0.23939 0.54828 0.29463 0.0
C1685 C 0.24403 0.56175 0.27868 0.0
H1686 H 0.25243 0.5827 0.24401 0.0
H1687 H 0.24999 0.56676 0.20937 0.0
H1688 H 0.22276 0.48047 0.31217 0.0
H1689 H 0.23133 0.51752 0.32169 0.0
H1690 H 0.23937 0.55441 0.30995 0.0
H1691 H 0.24791 0.57806 0.28204 0.0
Mn1692 Mn 0.63582 0.75083 0.52327 0.0
Mn1693 Mn 0.65132 0.77508 0.56763 0.0
C1694 C 0.64919 0.73178 0.54878 0.0
C1695 C 0.64216 0.73882 0.49126 0.0
C1696 C 0.60699 0.76419 0.55437 0.0
O1697 O 0.63794 0.78086 0.51625 0.0
O1698 O 0.65155 0.79615 0.54544 0.0
C1699 C 0.69412 0.7892 0.5616 0.0
N1700 N 0.68016 0.77802 0.57218 0.0
C1701 C 0.70584 0.7691 0.59712 0.0
C1702 C 0.72049 0.78055 0.58649 0.0
C1703 C 0.7146 0.79061 0.56865 0.0
C1704 C 0.68564 0.76848 0.58952 0.0
H1705 H 0.68961 0.79707 0.54797 0.0
C1706 C 0.6453 0.79674 0.52661 0.0
O1707 O 0.62386 0.74186 0.49596 0.0
O1708 O 0.65682 0.74488 0.5044 0.0
N1709 N 0.65169 0.75648 0.58988 0.0
C1710 C 0.63622 0.7438 0.59667 0.0
C1711 C 0.63995 0.73117 0.61331 0.0
C1712 C 0.65929 0.73217 0.62325 0.0
C1713 C 0.67502 0.74511 0.61584 0.0
C1714 C 0.67055 0.75701 0.59886 0.0
H1715 H 0.62129 0.74292 0.58911 0.0
O1716 O 0.63736 0.72315 0.53419 0.0
O1717 O 0.65308 0.7519 0.54813 0.0
O1718 O 0.60985 0.7543 0.53809 0.0
O1719 O 0.62148 0.77302 0.5657 0.0
C1720 C 0.69516 0.74589 0.62401 0.0
C1721 C 0.71055 0.75795 0.61471 0.0
H1722 H 0.73631 0.78156 0.59179 0.0
H1723 H 0.72584 0.79947 0.56038 0.0
H1724 H 0.62811 0.72041 0.61826 0.0
H1725 H 0.66205 0.72246 0.63616 0.0
H1726 H 0.69905 0.73689 0.63716 0.0
H1727 H 0.72604 0.75817 0.62095 0.0
H1728 H 0.18088 0.75599 0.98548 0.0
H1729 H 0.15338 0.73197 0.99487 0.0
H1730 H 0.18021 0.73158 0.05605 0.0
H1731 H 0.2082 0.75572 0.04636 0.0
H1732 H 0.17596 0.69447 0.04126 0.0
H1733 H 0.12975 0.74667 0.04637 0.0
H1734 H 0.10774 0.77503 0.03927 0.0
H1735 H 0.08287 0.74337 0.98479 0.0
H1736 H 0.10446 0.7147 0.99163 0.0
H1737 H 0.09162 0.6718 0.09595 0.0
H1738 H 0.11832 0.68672 0.0756 0.0
H1739 H 0.10279 0.63944 0.02923 0.0
H1740 H 0.07709 0.62307 0.05084 0.0
H1741 H 0.10195 0.69166 0.02546 0.0
H1742 H 0.1416 0.63479 0.03357 0.0
H1743 H 0.1572 0.60624 0.05112 0.0
H1744 H 0.19051 0.64978 0.09278 0.0
H1745 H 0.17485 0.67858 0.07577 0.0
C1746 C 0.18039 0.75176 0.00119 0.0
C1747 C 0.19626 0.75837 0.01539 0.0
C1748 C 0.16463 0.73786 0.00655 0.0
C1749 C 0.1647 0.72997 0.02615 0.0
C1750 C 0.17988 0.73753 0.0408 0.0
C1751 C 0.19571 0.7515 0.03538 0.0
C1752 C 0.15105 0.71153 0.03019 0.0
C1753 C 0.15969 0.69404 0.03818 0.0
C1754 C 0.13001 0.71044 0.02493 0.0
C1755 C 0.11915 0.72881 0.01922 0.0
C1756 C 0.11999 0.74602 0.03259 0.0
C1757 C 0.10747 0.76206 0.02871 0.0
C1758 C 0.09421 0.76116 0.01144 0.0
C1759 C 0.09333 0.74416 0.99804 0.0
C1760 C 0.10568 0.72801 0.00191 0.0
C1761 C 0.09395 0.66455 0.08145 0.0
C1762 C 0.08176 0.64699 0.07435 0.0
C1763 C 0.10932 0.67286 0.07002 0.0
C1764 C 0.11255 0.66396 0.05115 0.0
C1765 C 0.10057 0.64626 0.04394 0.0
C1766 C 0.08557 0.63738 0.05589 0.0
C1767 C 0.12647 0.67574 0.03844 0.0
C1768 C 0.11823 0.69207 0.02818 0.0
C1769 C 0.14755 0.67624 0.04286 0.0
C1770 C 0.15691 0.65891 0.05339 0.0
C1771 C 0.15207 0.6383 0.04661 0.0
C1772 C 0.16098 0.62205 0.05644 0.0
C1773 C 0.17482 0.62619 0.07306 0.0
C1774 C 0.17979 0.64659 0.07989 0.0
C1775 C 0.17092 0.66289 0.07013 0.0
H1776 H 0.18172 0.6136 0.08064 0.0
H1777 H 0.08448 0.77354 0.00855 0.0
H1778 H 0.68314 0.50767 0.32058 0.0
H1779 H 0.66431 0.51252 0.28996 0.0
H1780 H 0.68791 0.57703 0.29047 0.0
H1781 H 0.70157 0.57276 0.325 0.0
H1782 H 0.65776 0.58299 0.28012 0.0
H1783 H 0.68205 0.52451 0.24516 0.0
H1784 H 0.69257 0.48926 0.2395 0.0
H1785 H 0.63476 0.46301 0.25688 0.0
H1786 H 0.62391 0.498 0.26269 0.0
H1787 H 0.58831 0.57562 0.18746 0.0
H1788 H 0.61725 0.58036 0.21235 0.0
H1789 H 0.58281 0.5458 0.25572 0.0
H1790 H 0.55371 0.54157 0.23104 0.0
H1791 H 0.61909 0.52786 0.2381 0.0
H1792 H 0.59817 0.59195 0.26924 0.0
H1793 H 0.59005 0.62834 0.26649 0.0
H1794 H 0.64842 0.64479 0.24378 0.0
H1795 H 0.6568 0.60847 0.24621 0.0
C1796 C 0.68497 0.52278 0.31376 0.0
C1797 C 0.6931 0.53992 0.32555 0.0
C1798 C 0.67407 0.52569 0.29544 0.0
C1799 C 0.67332 0.54558 0.28702 0.0
C1800 C 0.68621 0.56175 0.29679 0.0
C1801 C 0.69503 0.55924 0.31636 0.0
C1802 C 0.65684 0.55033 0.27109 0.0
C1803 C 0.65022 0.57065 0.2706 0.0
C1804 C 0.64573 0.53497 0.25809 0.0
C1805 C 0.65223 0.51391 0.2544 0.0
C1806 C 0.67161 0.51121 0.24778 0.0
C1807 C 0.67761 0.49127 0.24454 0.0
C1808 C 0.66435 0.47392 0.24785 0.0
C1809 C 0.64501 0.47645 0.2543 0.0
C1810 C 0.6389 0.49633 0.25748 0.0
C1811 C 0.58644 0.5704 0.2028 0.0
C1812 C 0.5687 0.55849 0.20747 0.0
C1813 C 0.60309 0.57287 0.21693 0.0
C1814 C 0.60222 0.56322 0.23576 0.0
C1815 C 0.58375 0.55338 0.24125 0.0
C1816 C 0.56702 0.55121 0.22725 0.0
C1817 C 0.62114 0.5597 0.24785 0.0
C1818 C 0.62779 0.53976 0.24744 0.0
C1819 C 0.63305 0.57558 0.2587 0.0
C1820 C 0.62804 0.59746 0.25777 0.0
C1821 C 0.60922 0.6033 0.26356 0.0
C1822 C 0.60459 0.62393 0.26209 0.0
C1823 C 0.61869 0.63886 0.25493 0.0
C1824 C 0.6375 0.63322 0.24932 0.0
C1825 C 0.64221 0.61263 0.25078 0.0
H1826 H 0.61505 0.6548 0.25376 0.0
H1827 H 0.66907 0.45851 0.2454 0.0
H1828 H 0.70129 0.9811 0.68833 0.0
H1829 H 0.68223 0.99755 0.6615 0.0
H1830 H 0.73194 0.04372 0.65674 0.0
H1831 H 0.74651 0.0316 0.68913 0.0
H1832 H 0.71327 0.05214 0.6295 0.0
H1833 H 0.72437 0.9774 0.63615 0.0
H1834 H 0.71891 0.94262 0.65058 0.0
H1835 H 0.65478 0.94321 0.63741 0.0
H1836 H 0.65995 0.9781 0.62316 0.0
H1837 H 0.70489 0.01441 0.52082 0.0
H1838 H 0.71774 0.01743 0.55666 0.0
H1839 H 0.65727 0.02532 0.57453 0.0
H1840 H 0.64464 0.02299 0.53893 0.0
H1841 H 0.68561 0.98905 0.59065 0.0
H1842 H 0.68048 0.06679 0.58145 0.0
H1843 H 0.6923 0.0964 0.56082 0.0
H1844 H 0.75397 0.08242 0.57297 0.0
H1845 H 0.74247 0.05281 0.59366 0.0
C1846 C 0.70813 0.99498 0.68174 0.0
C1847 C 0.72799 0.00296 0.68764 0.0
C1848 C 0.69736 0.0041 0.66604 0.0
C1849 C 0.70763 0.01888 0.65423 0.0
C1850 C 0.72482 0.03019 0.66356 0.0
C1851 C 0.73414 0.02271 0.68121 0.0
C1852 C 0.70279 0.01961 0.63183 0.0
C1853 C 0.70721 0.03816 0.62134 0.0
C1854 C 0.69555 0.0014 0.62021 0.0
C1855 C 0.69257 0.98035 0.62867 0.0
C1856 C 0.70917 0.97006 0.63629 0.0
C1857 C 0.7061 0.95037 0.64451 0.0
C1858 C 0.68651 0.94071 0.64494 0.0
C1859 C 0.66995 0.95071 0.63711 0.0
C1860 C 0.67294 0.97043 0.62898 0.0
C1861 C 0.69448 0.01681 0.53252 0.0
C1862 C 0.67371 0.01755 0.52754 0.0
C1863 C 0.7018 0.01868 0.55279 0.0
C1864 C 0.68836 0.02167 0.56796 0.0
C1865 C 0.66776 0.02307 0.56286 0.0
C1866 C 0.66052 0.02132 0.54269 0.0
C1867 C 0.69507 0.02128 0.58944 0.0
C1868 C 0.6914 0.00276 0.59939 0.0
C1869 C 0.70382 0.03898 0.60018 0.0
C1870 C 0.71064 0.0578 0.58925 0.0
C1871 C 0.69655 0.07021 0.57987 0.0
C1872 C 0.70319 0.08693 0.56813 0.0
C1873 C 0.72388 0.09133 0.56565 0.0
C1874 C 0.73797 0.07908 0.57499 0.0
C1875 C 0.73141 0.0624 0.5868 0.0
H1876 H 0.72899 0.10422 0.55651 0.0
H1877 H 0.68416 0.92548 0.65132 0.0
H1878 H 0.32261 0.09202 0.84652 0.0
H1879 H 0.33123 0.11666 0.87376 0.0
H1880 H 0.29157 0.08099 0.91223 0.0
H1881 H 0.28138 0.0568 0.88342 0.0
H1882 H 0.28365 0.1188 0.9138 0.0
H1883 H 0.34777 0.08889 0.92063 0.0
H1884 H 0.37875 0.07526 0.90866 0.0
H1885 H 0.39627 0.13419 0.88335 0.0
H1886 H 0.36538 0.14813 0.89502 0.0
H1887 H 0.33473 0.18298 0.99625 0.0
H1888 H 0.31744 0.15662 0.97338 0.0
H1889 H 0.3312 0.19471 0.92225 0.0
H1890 H 0.34767 0.22186 0.94531 0.0
H1891 H 0.35183 0.15429 0.93027 0.0
H1892 H 0.28806 0.18322 0.92009 0.0
H1893 H 0.25693 0.19791 0.93019 0.0
H1894 H 0.23945 0.1418 0.96068 0.0
H1895 H 0.27064 0.12686 0.95096 0.0
C1896 C 0.31585 0.08925 0.86078 0.0
C1897 C 0.30105 0.07288 0.86277 0.0
C1898 C 0.32115 0.10317 0.87664 0.0
C1899 C 0.31243 0.10058 0.89532 0.0
C1900 C 0.29859 0.08324 0.89793 0.0
C1901 C 0.29286 0.0694 0.88163 0.0
C1902 C 0.31577 0.11764 0.91066 0.0
C1903 C 0.29864 0.12618 0.91785 0.0
C1904 C 0.33529 0.12783 0.91534 0.0
C1905 C 0.35418 0.11954 0.90871 0.0
C1906 C 0.3582 0.09893 0.91249 0.0
C1907 C 0.37577 0.09115 0.90575 0.0
C1908 C 0.38946 0.10385 0.89525 0.0
C1909 C 0.38568 0.12438 0.89153 0.0
C1910 C 0.36818 0.13225 0.89827 0.0
C1911 C 0.33312 0.1863 0.98029 0.0
C1912 C 0.34256 0.20441 0.97252 0.0
C1913 C 0.32322 0.17119 0.96723 0.0
C1914 C 0.3232 0.17378 0.94624 0.0
C1915 C 0.33095 0.19264 0.93849 0.0
C1916 C 0.34028 0.2081 0.95165 0.0
C1917 C 0.31977 0.15529 0.93294 0.0
C1918 C 0.33694 0.14656 0.92637 0.0
C1919 C 0.30041 0.145 0.92885 0.0
C1920 C 0.28182 0.15403 0.93503 0.0
C1921 C 0.27772 0.17411 0.92917 0.0
C1922 C 0.26001 0.18245 0.93476 0.0
C1923 C 0.24625 0.17082 0.94613 0.0
C1924 C 0.25014 0.15081 0.9519 0.0
C1925 C 0.26782 0.14239 0.94634 0.0
H1926 H 0.23254 0.1773 0.95042 0.0
H1927 H 0.40301 0.09777 0.89 0.0
H1928 H 0.33573 0.52562 0.92673 0.0
H1929 H 0.32077 0.52918 0.89246 0.0
H1930 H 0.28311 0.57484 0.91438 0.0
H1931 H 0.29816 0.57162 0.9488 0.0
H1932 H 0.27897 0.51935 0.88473 0.0
H1933 H 0.28051 0.60453 0.88539 0.0
H1934 H 0.30566 0.632 0.89962 0.0
H1935 H 0.35378 0.59968 0.87656 0.0
H1936 H 0.32896 0.57209 0.86236 0.0
H1937 H 0.19998 0.53941 0.81294 0.0
H1938 H 0.22346 0.54784 0.84244 0.0
H1939 H 0.2739 0.54732 0.80427 0.0
H1940 H 0.25043 0.53744 0.77494 0.0
H1941 H 0.27605 0.57996 0.83997 0.0
H1942 H 0.26894 0.50934 0.82073 0.0
H1943 H 0.25899 0.47252 0.81335 0.0
H1944 H 0.23648 0.46578 0.87271 0.0
H1945 H 0.24451 0.50301 0.87981 0.0
C1946 C 0.32466 0.53686 0.92428 0.0
C1947 C 0.31787 0.54803 0.94071 0.0
C1948 C 0.31608 0.53881 0.90462 0.0
C1949 C 0.30071 0.55212 0.90088 0.0
C1950 C 0.29504 0.56455 0.91688 0.0
C1951 C 0.30363 0.56263 0.9366 0.0
C1952 C 0.28898 0.55114 0.88092 0.0
C1953 C 0.27787 0.53259 0.875 0.0
C1954 C 0.28884 0.5681 0.86785 0.0
C1955 C 0.30293 0.58652 0.8726 0.0
C1956 C 0.29641 0.60364 0.88292 0.0
C1957 C 0.31061 0.61905 0.8912 0.0
C1958 C 0.33126 0.61749 0.88909 0.0
C1959 C 0.33779 0.60086 0.87822 0.0
C1960 C 0.32368 0.58538 0.87 0.0
C1961 C 0.21598 0.54225 0.81059 0.0
C1962 C 0.22329 0.53793 0.79152 0.0
C1963 C 0.22944 0.54662 0.82758 0.0
C1964 C 0.25046 0.54765 0.82565 0.0
C1965 C 0.25774 0.54637 0.80615 0.0
C1966 C 0.24427 0.54119 0.78927 0.0
C1967 C 0.26456 0.54819 0.84413 0.0
C1968 C 0.2764 0.56669 0.84975 0.0
C1969 C 0.26597 0.53059 0.85663 0.0
C1970 C 0.25697 0.50936 0.85063 0.0
C1971 C 0.26093 0.50039 0.83186 0.0
C1972 C 0.25579 0.47929 0.82779 0.0
C1973 C 0.24719 0.46679 0.84257 0.0
C1974 C 0.24322 0.47546 0.86127 0.0
C1975 C 0.24766 0.49666 0.86515 0.0
H1976 H 0.2435 0.45041 0.8395 0.0
H1977 H 0.3421 0.62914 0.89599 0.0
H1978 H 0.80323 0.29983 0.04718 0.0
H1979 H 0.78895 0.32904 0.06317 0.0
H1980 H 0.72904 0.30569 0.04037 0.0
H1981 H 0.74351 0.27612 0.02419 0.0
H1982 H 0.74911 0.34925 0.02797 0.0
H1983 H 0.72288 0.32169 0.10006 0.0
H1984 H 0.72952 0.30499 0.13294 0.0
H1985 H 0.79302 0.3237 0.13119 0.0
H1986 H 0.78661 0.34074 0.0986 0.0
H1987 H 0.75275 0.45415 0.0729 0.0
H1988 H 0.74004 0.42045 0.05756 0.0
H1989 H 0.78048 0.39065 0.09958 0.0
H1990 H 0.78921 0.42345 0.11723 0.0
H1991 H 0.74892 0.37096 0.10015 0.0
H1992 H 0.78038 0.4036 0.03865 0.0
H1993 H 0.77954 0.42813 0.01014 0.0
H1994 H 0.71897 0.40429 0.99207 0.0
H1995 H 0.71926 0.37998 0.02047 0.0
C1996 C 0.78692 0.30043 0.0464 0.0
C1997 C 0.77434 0.28551 0.03512 0.0
C1998 C 0.77877 0.31705 0.05558 0.0
C1999 C 0.75792 0.31922 0.05333 0.0
C2000 C 0.74512 0.30395 0.04263 0.0
C2001 C 0.75332 0.28709 0.03354 0.0
C2002 C 0.75075 0.33931 0.05901 0.0
C2003 C 0.74894 0.35411 0.04378 0.0
C2004 C 0.75019 0.34553 0.07947 0.0
C2005 C 0.75435 0.33184 0.09662 0.0
C2006 C 0.73828 0.32175 0.10648 0.0
C2007 C 0.74197 0.31255 0.12524 0.0
C2008 C 0.76166 0.31337 0.13421 0.0
C2009 C 0.77777 0.32307 0.12428 0.0
C2010 C 0.77413 0.33239 0.10562 0.0
C2011 C 0.75891 0.44021 0.07854 0.0
C2012 C 0.77273 0.44122 0.09555 0.0
C2013 C 0.75178 0.42099 0.06968 0.0
C2014 C 0.7593 0.40273 0.07715 0.0
C2015 C 0.774 0.40426 0.09356 0.0
C2016 C 0.77966 0.4231 0.10334 0.0
C2017 C 0.75151 0.38163 0.06952 0.0
C2018 C 0.74902 0.36638 0.08426 0.0
C2019 C 0.74981 0.37539 0.04874 0.0
C2020 C 0.74978 0.39024 0.03187 0.0
C2021 C 0.76689 0.40375 0.02865 0.0
C2022 C 0.76652 0.41756 0.01256 0.0
C2023 C 0.74927 0.41778 -0.00057 0.0
C2024 C 0.73232 0.40417 0.00231 0.0
C2025 C 0.73256 0.39041 0.01842 0.0
H2026 H 0.74907 0.42847 0.98699 0.0
H2027 H 0.76447 0.30635 0.14876 0.0
H2028 H 0.83385 0.22767 0.53862 0.0
H2029 H 0.8587 0.21049 0.52047 0.0
H2030 H 0.82649 0.22128 0.46354 0.0
H2031 H 0.80137 0.23932 0.48168 0.0
H2032 H 0.83951 0.17487 0.48144 0.0
H2033 H 0.86206 0.24489 0.45985 0.0
H2034 H 0.87167 0.28192 0.46746 0.0
H2035 H 0.91866 0.26583 0.51041 0.0
H2036 H 0.90923 0.22869 0.50315 0.0
H2037 H 0.90616 0.13592 0.41432 0.0
H2038 H 0.88127 0.15048 0.43463 0.0
H2039 H 0.92913 0.17645 0.47696 0.0
H2040 H 0.95426 0.16248 0.45581 0.0
H2041 H 0.90791 0.20556 0.46674 0.0
H2042 H 0.88881 0.1389 0.49122 0.0
H2043 H 0.87946 0.10127 0.4909 0.0
H2044 H 0.82737 0.10937 0.45098 0.0
H2045 H 0.83646 0.14707 0.45098 0.0
C2046 C 0.83191 0.22657 0.52223 0.0
C2047 C 0.81545 0.23482 0.51162 0.0
C2048 C 0.84628 0.21681 0.5119 0.0
C2049 C 0.84446 0.21482 0.49076 0.0
C2050 C 0.82813 0.22289 0.47993 0.0
C2051 C 0.81379 0.23307 0.49029 0.0
C2052 C 0.8591 0.20289 0.48057 0.0
C2053 C 0.85432 0.18155 0.47768 0.0
C2054 C 0.87877 0.2116 0.47709 0.0
C2055 C 0.8848 0.23397 0.48108 0.0
C2056 C 0.87435 0.24923 0.47101 0.0
C2057 C 0.8798 0.27026 0.47523 0.0
C2058 C 0.89571 0.27623 0.48946 0.0
C2059 C 0.90632 0.26119 0.4994 0.0
C2060 C 0.90096 0.24015 0.49519 0.0
C2061 C 0.91129 0.14381 0.42854 0.0
C2062 C 0.93207 0.1479 0.43363 0.0
C2063 C 0.89701 0.15227 0.44017 0.0
C2064 C 0.9032 0.16472 0.45741 0.0
C2065 C 0.92393 0.16703 0.46368 0.0
C2066 C 0.9383 0.15865 0.45186 0.0
C2067 C 0.88831 0.17721 0.46709 0.0
C2068 C 0.89308 0.19869 0.47016 0.0
C2069 C 0.86877 0.16852 0.47144 0.0
C2070 C 0.86342 0.1458 0.47098 0.0
C2071 C 0.87545 0.13264 0.48224 0.0
C2072 C 0.87016 0.11131 0.48217 0.0
C2073 C 0.85283 0.10293 0.47092 0.0
C2074 C 0.84076 0.11589 0.45972 0.0
C2075 C 0.84596 0.13724 0.45978 0.0
H2076 H 0.84877 0.08641 0.47088 0.0
H2077 H 0.89985 0.2925 0.49277 0.0
H2078 H 0.13829 0.9681 0.66398 0.0
H2079 H 0.13781 0.95531 0.69902 0.0
H2080 H 0.08857 0.99299 0.70996 0.0
H2081 H 0.08785 0.00402 0.67487 0.0
H2082 H 0.12723 0.98866 0.74241 0.0
H2083 H 0.06786 0.95658 0.69384 0.0
H2084 H 0.05751 0.9336 0.66426 0.0
H2085 H 0.09239 0.8864 0.68997 0.0
H2086 H 0.10349 0.90948 0.71942 0.0
H2087 H 0.04146 0.01186 0.78175 0.0
H2088 H 0.05991 -0.00107 0.75361 0.0
H2089 H 0.06694 0.94178 0.78516 0.0
H2090 H 0.04779 0.95439 0.81277 0.0
H2091 H 0.06607 0.93903 0.7413 0.0
H2092 H 0.0972 0.98305 0.7987 0.0
H2093 H 0.09566 0.01536 0.81871 0.0
H2094 H 0.10593 0.05119 0.76565 0.0
H2095 H 0.10629 0.01909 0.74517 0.0
C2096 C 0.1278 0.97389 0.67424 0.0
C2097 C 0.1134 0.98731 0.66739 0.0
C2098 C 0.12758 0.96666 0.69401 0.0
C2099 C 0.11325 0.97336 0.70675 0.0
C2100 C 0.09982 0.98787 0.70015 0.0
C2101 C 0.09943 0.99424 0.6803 0.0
C2102 C 0.10955 0.96386 0.72611 0.0
C2103 C 0.11445 0.97714 0.7429 0.0
C2104 C 0.09309 0.94859 0.7264 0.0
C2105 C 0.08687 0.93488 0.70856 0.0
C2106 C 0.07359 0.94143 0.69301 0.0
C2107 C 0.06757 0.9284 0.67628 0.0
C2108 C 0.07439 0.90859 0.67517 0.0
C2109 C 0.08726 0.90181 0.69078 0.0
C2110 C 0.09354 0.91492 0.70742 0.0
C2111 C 0.04655 0.99639 0.78219 0.0
C2112 C 0.04443 0.98431 0.79925 0.0
C2113 C 0.05675 0.98893 0.76623 0.0
C2114 C 0.06532 0.96985 0.76804 0.0
C2115 C 0.06071 0.95669 0.78394 0.0
C2116 C 0.05016 0.96398 0.79967 0.0
C2117 C 0.08231 0.9658 0.75606 0.0
C2118 C 0.07978 0.94945 0.74187 0.0
C2119 C 0.10016 0.97947 0.75727 0.0
C2120 C 0.10214 0.99861 0.77038 0.0
C2121 C 0.09928 0.99781 0.79131 0.0
C2122 C 0.09838 0.0161 0.80272 0.0
C2123 C 0.10095 0.03532 0.79353 0.0
C2124 C 0.10417 0.03631 0.77284 0.0
C2125 C 0.10466 0.01809 0.76133 0.0
H2126 H 0.1003 0.04942 0.8024 0.0
H2127 H 0.06962 0.89846 0.66228 0.0
H2128 H 0.02234 0.17328 0.72665 0.0
H2129 H 0.03447 0.14244 0.71169 0.0
H2130 H 0.04372 0.17519 0.65597 0.0
H2131 H 0.02901 0.20526 0.67039 0.0
H2132 H 0.02338 0.14314 0.64649 0.0
H2133 H 0.08353 0.1537 0.69203 0.0
H2134 H 0.10337 0.15896 0.72476 0.0
H2135 H 0.07503 0.10229 0.74646 0.0
H2136 H 0.05489 0.09677 0.71394 0.0
H2137 H 0.08891 0.07389 0.60461 0.0
H2138 H 0.07036 0.1015 0.61832 0.0
H2139 H 0.03922 0.05765 0.65654 0.0
H2140 H 0.05716 0.02973 0.64213 0.0
H2141 H 0.06707 0.09162 0.67635 0.0
H2142 H 0.00933 0.08064 0.62917 0.0
H2143 H 0.99155 0.07511 0.5954 0.0
H2144 H 0.01872 0.13333 0.57606 0.0
H2145 H 0.0368 0.13914 0.60965 0.0
C2146 C 0.02749 0.17397 0.71137 0.0
C2147 C 0.02469 0.19138 0.69952 0.0
C2148 C 0.03465 0.15636 0.70284 0.0
C2149 C 0.04009 0.15629 0.68259 0.0
C2150 C 0.03935 0.17468 0.67152 0.0
C2151 C 0.03124 0.19197 0.67978 0.0
C2152 C 0.0436 0.13652 0.67204 0.0
C2153 C 0.03332 0.13217 0.65297 0.0
C2154 C 0.05562 0.12145 0.68084 0.0
C2155 C 0.06755 0.12493 0.70056 0.0
C2156 C 0.0814 0.14245 0.70383 0.0
C2157 C 0.09274 0.14545 0.72234 0.0
C2158 C 0.09043 0.13099 0.7377 0.0
C2159 C 0.0768 0.11348 0.73457 0.0
C2160 C 0.06544 0.1104 0.71608 0.0
C2161 C 0.07724 0.06996 0.61504 0.0
C2162 C 0.07434 0.04978 0.62229 0.0
C2163 C 0.06678 0.08573 0.62298 0.0
C2164 C 0.05365 0.08156 0.63856 0.0
C2165 C 0.04928 0.06107 0.64446 0.0
C2166 C 0.05932 0.04513 0.63605 0.0
C2167 C 0.04759 0.09905 0.65074 0.0
C2168 C 0.0572 0.1028 0.67011 0.0
C2169 C 0.03531 0.11375 0.64216 0.0
C2170 C 0.02452 0.11026 0.6219 0.0
C2171 C 0.01164 0.09219 0.61766 0.0
C2172 C 0.00146 0.08903 0.59857 0.0
C2173 C 0.00403 0.10384 0.58358 0.0
C2174 C 0.01674 0.12187 0.58768 0.0
C2175 C 0.02692 0.12513 0.60676 0.0
H2176 H 0.99615 0.10136 0.56881 0.0
H2177 H 0.09923 0.13334 0.752 0.0
H2178 H 0.10722 0.37828 0.91741 0.0
H2179 H 0.10623 0.40662 0.89338 0.0
H2180 H 0.15364 0.44189 0.92971 0.0
H2181 H 0.154 0.41381 0.9542 0.0
H2182 H 0.12911 0.4675 0.9061 0.0
H2183 H 0.16913 0.41091 0.89908 0.0
H2184 H 0.17721 0.37446 0.89854 0.0
H2185 H 0.13427 0.36139 0.84782 0.0
H2186 H 0.12557 0.39769 0.84838 0.0
H2187 H 0.17045 0.51301 0.81638 0.0
H2188 H 0.16121 0.49996 0.84912 0.0
H2189 H 0.12801 0.44675 0.81868 0.0
H2190 H 0.14119 0.45801 0.78666 0.0
H2191 H 0.14812 0.43253 0.8436 0.0
H2192 H 0.11048 0.49646 0.85468 0.0
H2193 H 0.11115 0.53463 0.85703 0.0
H2194 H 0.16145 0.5364 0.90121 0.0
H2195 H 0.16104 0.49832 0.89913 0.0
C2196 C 0.11671 0.3925 0.92065 0.0
C2197 C 0.13082 0.39405 0.93727 0.0
C2198 C 0.11611 0.40866 0.90706 0.0
C2199 C 0.13014 0.42609 0.90968 0.0
C2200 C 0.14271 0.42857 0.92751 0.0
C2201 C 0.14304 0.41252 0.94132 0.0
C2202 C 0.13491 0.4386 0.89191 0.0
C2203 C 0.13318 0.46002 0.89226 0.0
C2204 C 0.14128 0.42891 0.87438 0.0
C2205 C 0.14643 0.40697 0.874 0.0
C2206 C 0.16121 0.40022 0.88798 0.0
C2207 C 0.16594 0.37958 0.88765 0.0
C2208 C 0.1562 0.36559 0.87321 0.0
C2209 C 0.14175 0.37223 0.85904 0.0
C2210 C 0.13689 0.39283 0.85938 0.0
C2211 C 0.16141 0.49836 0.817 0.0
C2212 C 0.15769 0.48564 0.79964 0.0
C2213 C 0.15541 0.49118 0.8357 0.0
C2214 C 0.14384 0.47208 0.83685 0.0
C2215 C 0.13767 0.46105 0.81862 0.0
C2216 C 0.14515 0.46738 0.80029 0.0
C2217 C 0.14074 0.46165 0.85654 0.0
C2218 C 0.1435 0.44037 0.85694 0.0
C2219 C 0.13637 0.47183 0.87486 0.0
C2220 C 0.13569 0.49457 0.87675 0.0
C2221 C 0.12157 0.505 0.86497 0.0
C2222 C 0.12195 0.52662 0.86624 0.0
C2223 C 0.13633 0.53792 0.87926 0.0
C2224 C 0.15028 0.52764 0.89117 0.0
C2225 C 0.14993 0.50605 0.89002 0.0
H2226 H 0.13666 0.55465 0.88011 0.0
H2227 H 0.1599 0.34963 0.87295 0.0
H2228 H 0.837 0.22287 0.06919 0.0
H2229 H 0.86667 0.2304 0.09219 0.0
H2230 H 0.89048 0.27648 0.05162 0.0
H2231 H 0.86021 0.26952 0.02841 0.0
H2232 H 0.91446 0.23542 0.0794 0.0
H2233 H 0.88786 0.30484 0.07742 0.0
H2234 H 0.85891 0.3265 0.07496 0.0
H2235 H 0.83439 0.29689 0.12689 0.0
H2236 H 0.86313 0.2749 0.1295 0.0
H2237 H 0.98723 0.28715 0.15175 0.0
H2238 H 0.96514 0.27148 0.12396 0.0
H2239 H 0.91611 0.26383 0.16406 0.0
H2240 H 0.93824 0.2799 0.19192 0.0
H2241 H 0.90626 0.28756 0.13353 0.0
H2242 H 0.93421 0.2214 0.13821 0.0
H2243 H 0.96025 0.19627 0.13962 0.0
H2244 H 0.9809 0.21728 0.08245 0.0
H2245 H 0.95506 0.24262 0.08075 0.0
C2246 C 0.84856 0.2345 0.06491 0.0
C2247 C 0.84606 0.24582 0.04704 0.0
C2248 C 0.86553 0.23873 0.07812 0.0
C2249 C 0.88047 0.25418 0.07371 0.0
C2250 C 0.87886 0.26466 0.05532 0.0
C2251 C 0.86166 0.26056 0.04205 0.0
C2252 C 0.89693 0.25974 0.08927 0.0
C2253 C 0.91313 0.2472 0.09101 0.0
C2254 C 0.89451 0.27454 0.10467 0.0
C2255 C 0.87748 0.28805 0.10347 0.0
C2256 C 0.8762 0.30284 0.0882 0.0
C2257 C 0.85986 0.31521 0.08682 0.0
C2258 C 0.84477 0.31302 0.10072 0.0
C2259 C 0.84607 0.29854 0.1161 0.0
C2260 C 0.86239 0.28614 0.11756 0.0
C2261 C 0.97205 0.2811 0.15492 0.0
C2262 C 0.96438 0.28493 0.17394 0.0
C2263 C 0.95936 0.27221 0.13895 0.0
C2264 C 0.93883 0.26678 0.14179 0.0
C2265 C 0.93187 0.2681 0.16147 0.0
C2266 C 0.94462 0.27696 0.17752 0.0
C2267 C 0.9242 0.2632 0.12387 0.0
C2268 C 0.9081 0.27605 0.12181 0.0
C2269 C 0.92683 0.24871 0.10811 0.0
C2270 C 0.94288 0.23408 0.1095 0.0
C2271 C 0.94448 0.22084 0.12607 0.0
C2272 C 0.95914 0.20649 0.12687 0.0
C2273 C 0.97226 0.20523 0.11117 0.0
C2274 C 0.97075 0.2183 0.09462 0.0
C2275 C 0.95609 0.23263 0.09372 0.0
H2276 H 0.98358 0.19408 0.1118 0.0
H2277 H 0.83211 0.32256 0.0996 0.0
H2278 H 0.96485 0.32996 0.46369 0.0
H2279 H 0.97106 0.29745 0.44575 0.0
H2280 H 0.03389 0.31946 0.44239 0.0
H2281 H 0.02842 0.34969 0.46301 0.0
H2282 H 0.01183 0.2973 0.40458 0.0
H2283 H 0.0295 0.2978 0.48126 0.0
H2284 H 0.01369 0.2823 0.53824 0.0
H2285 H 0.97234 0.22975 0.50063 0.0
H2286 H 0.98233 0.24019 0.46371 0.0
H2287 H 0.0231 0.19138 0.37862 0.0
H2288 H 0.03857 0.22578 0.39034 0.0
H2289 H 0.99925 0.22253 0.44066 0.0
H2290 H 0.98835 0.18766 0.43163 0.0
H2291 H 0.02738 0.24296 0.4529 0.0
H2292 H 0.00643 0.24209 0.37421 0.0
H2293 H 0.01659 0.24532 0.33903 0.0
H2294 H 0.06097 0.29487 0.35784 0.0
H2295 H 0.05093 0.29181 0.39311 0.0
C2296 C 0.97991 0.32763 0.45911 0.0
C2297 C 0.99631 0.3419 0.46495 0.0
C2298 C 0.98338 0.30934 0.44872 0.0
C2299 C 0.0029 0.30632 0.44269 0.0
C2300 C 0.0187 0.3217 0.44672 0.0
C2301 C 0.01554 0.33904 0.45829 0.0
C2302 C 0.00815 0.2863 0.43484 0.0
C2303 C 0.01348 0.28452 0.41468 0.0
C2304 C 0.01247 0.27053 0.44834 0.0
C2305 C 0.00598 0.26975 0.46915 0.0
C2306 C 0.01868 0.28581 0.48672 0.0
C2307 C 0.00894 0.27556 0.52331 0.0
C2308 C 0.99165 0.2546 0.52223 0.0
C2309 C 0.98319 0.24305 0.49978 0.0
C2310 C 0.98958 0.24989 0.47593 0.0
C2311 C 0.01801 0.19856 0.39213 0.0
C2312 C 0.00325 0.18819 0.40348 0.0
C2313 C 0.02666 0.21815 0.3987 0.0
C2314 C 0.01924 0.22785 0.41558 0.0
C2315 C 0.00541 0.21625 0.42734 0.0
C2316 C 0.99844 0.19634 0.42189 0.0
C2317 C 0.02399 0.25007 0.42119 0.0
C2318 C 0.02326 0.25448 0.44194 0.0
C2319 C 0.02095 0.26629 0.40737 0.0
C2320 C 0.02794 0.26651 0.38639 0.0
C2321 C 0.01825 0.25367 0.37084 0.0
C2322 C 0.02407 0.25542 0.35087 0.0
C2323 C 0.03945 0.27028 0.34618 0.0
C2324 C 0.04912 0.28328 0.36148 0.0
C2325 C 0.04342 0.28143 0.38148 0.0
H2326 H 0.04385 0.27173 0.3307 0.0
H2327 H 0.98605 0.24847 0.53616 0.0
H2328 H 0.13194 0.7326 0.43072 0.0
H2329 H 0.10978 0.73139 0.40009 0.0
H2330 H 0.06788 0.76656 0.43139 0.0
H2331 H 0.08631 0.75979 0.46294 0.0
H2332 H 0.04854 0.75872 0.40458 0.0
H2333 H 0.11715 0.78566 0.39462 0.0
H2334 H 0.15436 0.78521 0.39471 0.0
H2335 H 0.14749 0.73369 0.35239 0.0
H2336 H 0.11026 0.73382 0.35226 0.0
H2337 H 0.04025 0.82826 0.32278 0.0
H2338 H 0.05908 0.81113 0.34984 0.0
H2339 H 0.03818 0.75149 0.32303 0.0
H2340 H 0.01866 0.76862 0.29632 0.0
H2341 H 0.08667 0.76714 0.34247 0.0
H2342 H 0.0116 0.76208 0.35159 0.0
H2343 H 0.98388 0.78523 0.35009 0.0
H2344 H 0.01293 0.82146 0.40018 0.0
H2345 H 0.04174 0.79972 0.40071 0.0
C2346 C 0.11787 0.73999 0.43092 0.0
C2347 C 0.1121 0.7494 0.44874 0.0
C2348 C 0.1054 0.73984 0.41314 0.0
C2349 C 0.08824 0.75134 0.41212 0.0
C2350 C 0.08148 0.75857 0.43064 0.0
C2351 C 0.09269 0.75614 0.44884 0.0
C2352 C 0.07799 0.75656 0.39214 0.0
C2353 C 0.05737 0.76072 0.39138 0.0
C2354 C 0.08873 0.75944 0.37411 0.0
C2355 C 0.11103 0.75955 0.37374 0.0
C2356 C 0.12366 0.77423 0.38543 0.0
C2357 C 0.14471 0.77402 0.38548 0.0
C2358 C 0.15328 0.75935 0.37364 0.0
C2359 C 0.14082 0.74499 0.3616 0.0
C2360 C 0.11975 0.74514 0.36152 0.0
C2361 C 0.0401 0.81152 0.32248 0.0
C2362 C 0.02874 0.79965 0.30724 0.0
C2363 C 0.05087 0.80182 0.33778 0.0
C2364 C 0.05007 0.78017 0.33813 0.0
C2365 C 0.03913 0.76825 0.32266 0.0
C2366 C 0.02812 0.77798 0.30748 0.0
C2367 C 0.05853 0.77019 0.35611 0.0
C2368 C 0.07846 0.76491 0.35613 0.0
C2369 C 0.04802 0.7689 0.37407 0.0
C2370 C 0.02905 0.7794 0.37595 0.0
C2371 C 0.01221 0.77509 0.36214 0.0
C2372 C 0.99641 0.78814 0.36129 0.0
C2373 C 0.99669 0.80487 0.37496 0.0
C2374 C 0.01276 0.80855 0.38954 0.0
C2375 C 0.02893 0.79598 0.38998 0.0
H2376 H 0.98436 0.81485 0.37435 0.0
H2377 H 0.16959 0.75916 0.37373 0.0
H2378 H 0.50889 0.22021 0.55578 0.0
H2379 H 0.50053 0.2462 0.58069 0.0
H2380 H 0.44283 0.21205 0.58768 0.0
H2381 H 0.45116 0.18603 0.56262 0.0
H2382 H 0.44973 0.26031 0.57504 0.0
H2383 H 0.46529 0.21014 0.63414 0.0
H2384 H 0.49019 0.18529 0.64452 0.0
H2385 H 0.5389 0.23022 0.63207 0.0
H2386 H 0.51434 0.25543 0.62253 0.0
H2387 H 0.40631 0.31768 0.64564 0.0
H2388 H 0.4187 0.28527 0.63427 0.0
H2389 H 0.48012 0.31295 0.64099 0.0
H2390 H 0.46753 0.34595 0.65083 0.0
H2391 H 0.47381 0.26712 0.64761 0.0
H2392 H 0.46532 0.3202 0.603 0.0
H2393 H 0.45649 0.34709 0.57914 0.0
H2394 H 0.41272 0.30398 0.54743 0.0
H2395 H 0.4193 0.27755 0.57268 0.0
C2396 C 0.49431 0.21856 0.56243 0.0
C2397 C 0.48023 0.20184 0.55698 0.0
C2398 C 0.48978 0.23303 0.57686 0.0
C2399 C 0.47133 0.23057 0.58612 0.0
C2400 C 0.45727 0.2138 0.58077 0.0
C2401 C 0.46187 0.19925 0.5664 0.0
C2402 C 0.46581 0.24687 0.59966 0.0
C2403 C 0.45432 0.2618 0.59105 0.0
C2404 C 0.47355 0.249 0.61991 0.0
C2405 C 0.48808 0.23473 0.6281 0.0
C2406 C 0.48134 0.2148 0.63416 0.0
C2407 C 0.49539 0.20066 0.63988 0.0
C2408 C 0.51615 0.20625 0.63928 0.0
C2409 C 0.52289 0.22601 0.63306 0.0
C2410 C 0.50893 0.24029 0.62767 0.0
C2411 C 0.42253 0.31644 0.64594 0.0
C2412 C 0.43605 0.33414 0.64893 0.0
C2413 C 0.42954 0.29805 0.63913 0.0
C2414 C 0.45019 0.29714 0.63623 0.0
C2415 C 0.46409 0.31362 0.64297 0.0
C2416 C 0.45697 0.33232 0.64896 0.0
C2417 C 0.45655 0.28065 0.62316 0.0
C2418 C 0.46841 0.26567 0.63177 0.0
C2419 C 0.45036 0.27937 0.60215 0.0
C2420 C 0.44253 0.29683 0.59035 0.0
C2421 C 0.45289 0.3167 0.59185 0.0
C2422 C 0.44838 0.3319 0.57787 0.0
C2423 C 0.43408 0.32727 0.56175 0.0
C2424 C 0.42379 0.30761 0.55995 0.0
C2425 C 0.4275 0.29269 0.57445 0.0
H2426 H 0.43093 0.33891 0.55068 0.0
H2427 H 0.527 0.19523 0.64346 0.0
H2428 H 0.90457 0.64185 0.74125 0.0
H2429 H 0.8801 0.61603 0.75409 0.0
H2430 H 0.87334 0.65595 0.80596 0.0
H2431 H 0.89983 0.68083 0.79403 0.0
H2432 H 0.8775 0.62007 0.81835 0.0
H2433 H 0.8355 0.64362 0.76102 0.0
H2434 H 0.82884 0.6505 0.72465 0.0
H2435 H 0.83555 0.58678 0.70961 0.0
H2436 H 0.84243 0.57957 0.74579 0.0
H2437 H 0.8077 0.54312 0.85683 0.0
H2438 H 0.82568 0.57462 0.84577 0.0
H2439 H 0.82078 0.54985 0.78408 0.0
H2440 H 0.79752 0.52195 0.79478 0.0
H2441 H 0.82017 0.58312 0.77793 0.0
H2442 H 0.87131 0.56041 0.83146 0.0
H2443 H 0.88338 0.55335 0.86683 0.0
H2444 H 0.86474 0.61158 0.88701 0.0
H2445 H 0.85278 0.61911 0.85201 0.0
C2446 C 0.89779 0.64505 0.75539 0.0
C2447 C 0.90414 0.66301 0.76689 0.0
C2448 C 0.88349 0.63046 0.76255 0.0
C2449 C 0.87443 0.63411 0.78084 0.0
C2450 C 0.88006 0.65275 0.79179 0.0
C2451 C 0.89502 0.66702 0.78497 0.0
C2452 C 0.86063 0.61771 0.78946 0.0
C2453 C 0.86488 0.61194 0.80954 0.0
C2454 C 0.84449 0.60672 0.77786 0.0
C2455 C 0.83954 0.61109 0.75616 0.0
C2456 C 0.83555 0.63109 0.74996 0.0
C2457 C 0.83176 0.63504 0.72937 0.0
C2458 C 0.8318 0.6191 0.71484 0.0
C2459 C 0.83551 0.59913 0.72087 0.0
C2460 C 0.8393 0.59509 0.74142 0.0
C2461 C 0.81076 0.54455 0.84094 0.0
C2462 C 0.80255 0.52942 0.82675 0.0
C2463 C 0.82157 0.56248 0.83456 0.0
C2464 C 0.82605 0.56483 0.81403 0.0
C2465 C 0.81784 0.54919 0.80002 0.0
C2466 C 0.80512 0.53256 0.80616 0.0
C2467 C 0.83799 0.58373 0.8066 0.0
C2468 C 0.8331 0.5905 0.7868 0.0
C2469 C 0.85414 0.59508 0.8182 0.0
C2470 C 0.86087 0.5901 0.83922 0.0
C2471 C 0.86965 0.57154 0.84351 0.0
C2472 C 0.87648 0.56749 0.86342 0.0
C2473 C 0.87463 0.58185 0.87907 0.0
C2474 C 0.86607 0.60041 0.87489 0.0
C2475 C 0.85932 0.6046 0.85504 0.0
H2476 H 0.87993 0.57863 0.89443 0.0
H2477 H 0.82893 0.62222 0.69891 0.0
H2478 H 0.64175 0.12088 0.09105 0.0
H2479 H 0.64738 0.0974 0.11897 0.0
H2480 H 0.70351 0.13339 0.13702 0.0
H2481 H 0.69896 0.15514 0.10751 0.0
H2482 H 0.71022 0.09636 0.13875 0.0
H2483 H 0.65297 0.13247 0.16247 0.0
H2484 H 0.61801 0.14303 0.15899 0.0
H2485 H 0.59484 0.07929 0.15228 0.0
H2486 H 0.62963 0.06839 0.15557 0.0
H2487 H 0.72767 0.05264 0.23457 0.0
H2488 H 0.71871 0.07768 0.20904 0.0
H2489 H 0.66813 0.03595 0.18638 0.0
H2490 H 0.67668 0.01096 0.212 0.0
H2491 H 0.65828 0.07472 0.18691 0.0
H2492 H 0.71256 0.03788 0.16378 0.0
H2493 H 0.74631 0.02458 0.16432 0.0
H2494 H 0.77433 0.08676 0.16732 0.0
H2495 H 0.74068 0.10046 0.16706 0.0
C2496 C 0.65553 0.12329 0.10071 0.0
C2497 C 0.6705 0.13888 0.0966 0.0
C2498 C 0.65847 0.1103 0.11706 0.0
C2499 C 0.6758 0.11369 0.13035 0.0
C2500 C 0.69015 0.13023 0.12686 0.0
C2501 C 0.68755 0.14268 0.11008 0.0
C2502 C 0.6797 0.09954 0.14729 0.0
C2503 C 0.69898 0.09206 0.14956 0.0
C2504 C 0.66473 0.09296 0.16078 0.0
C2505 C 0.64388 0.09965 0.15917 0.0
C2506 C 0.64041 0.12074 0.16022 0.0
C2507 C 0.62063 0.12677 0.15827 0.0
C2508 C 0.60423 0.11185 0.15539 0.0
C2509 C 0.60755 0.09084 0.15452 0.0
C2510 C 0.62728 0.08473 0.15646 0.0
C2511 C 0.71436 0.04895 0.22447 0.0
C2512 C 0.703 0.02969 0.22517 0.0
C2513 C 0.70941 0.0632 0.20977 0.0
C2514 C 0.69308 0.05838 0.19559 0.0
C2515 C 0.68091 0.03983 0.19712 0.0
C2516 C 0.68581 0.02559 0.2118 0.0
C2517 C 0.68895 0.07235 0.17873 0.0
C2518 C 0.66961 0.07949 0.17633 0.0
C2519 C 0.70379 0.07843 0.16499 0.0
C2520 C 0.72408 0.07019 0.16571 0.0
C2521 C 0.72591 0.04873 0.16483 0.0
C2522 C 0.74504 0.04111 0.16502 0.0
C2523 C 0.76248 0.0548 0.16596 0.0
C2524 C 0.76082 0.07616 0.16667 0.0
C2525 C 0.74171 0.08386 0.1665 0.0
H2526 H 0.77728 0.04886 0.16606 0.0
H2527 H 0.58894 0.11656 0.15386 0.0
H2528 H 0.0205 0.88397 0.28616 0.0
H2529 H 0.04569 0.91224 0.29708 0.0
H2530 H 0.0847 0.89368 0.25131 0.0
H2531 H 0.05972 0.86551 0.24023 0.0
H2532 H 0.09686 0.88793 0.29431 0.0
H2533 H 0.07282 0.93907 0.24816 0.0
H2534 H 0.04604 0.95961 0.23359 0.0
H2535 H 0.03958 0.98727 0.29218 0.0
H2536 H 0.06613 0.96666 0.30717 0.0
H2537 H 0.17889 0.97836 0.31138 0.0
H2538 H 0.15073 0.95778 0.29256 0.0
H2539 H 0.12511 0.94178 0.3492 0.0
H2540 H 0.15477 0.95872 0.36778 0.0
H2541 H 0.10594 0.96453 0.30038 0.0
H2542 H 0.1222 0.90789 0.34763 0.0
H2543 H 0.14318 0.88297 0.36396 0.0
H2544 H 0.15641 0.85882 0.30581 0.0
H2545 H 0.13754 0.88572 0.289 0.0
C2546 C 0.03403 0.88645 0.27781 0.0
C2547 C 0.03835 0.8722 0.26264 0.0
C2548 C 0.04838 0.90266 0.28406 0.0
C2549 C 0.06705 0.90486 0.27508 0.0
C2550 C 0.07034 0.89218 0.25839 0.0
C2551 C 0.05607 0.87602 0.25215 0.0
C2552 C 0.08464 0.91648 0.28588 0.0
C2553 C 0.09906 0.90472 0.29541 0.0
C2554 C 0.08682 0.93826 0.28794 0.0
C2555 C 0.07138 0.9512 0.27881 0.0
C2556 C 0.06562 0.94945 0.25797 0.0
C2557 C 0.05049 0.96112 0.24963 0.0
C2558 C 0.04108 0.9747 0.26196 0.0
C2559 C 0.04687 0.97673 0.28264 0.0
C2560 C 0.06199 0.96509 0.29106 0.0
C2561 C 0.16806 0.96901 0.31968 0.0
C2562 C 0.16997 0.96861 0.34096 0.0
C2563 C 0.15174 0.95769 0.309 0.0
C2564 C 0.13651 0.94687 0.31953 0.0
C2565 C 0.13754 0.94814 0.34075 0.0
C2566 C 0.15435 0.95829 0.35134 0.0
C2567 C 0.1186 0.93591 0.30844 0.0
C2568 C 0.10397 0.94777 0.29903 0.0
C2569 C 0.11582 0.914 0.3069 0.0
C2570 C 0.12955 0.89989 0.31708 0.0
C2571 C 0.13065 0.89832 0.33829 0.0
C2572 C 0.14181 0.88342 0.34767 0.0
C2573 C 0.15093 0.86903 0.33604 0.0
C2574 C 0.14938 0.86997 0.31488 0.0
C2575 C 0.13881 0.88535 0.30542 0.0
H2576 H 0.15931 0.85731 0.34341 0.0
H2577 H 0.02933 0.98368 0.25548 0.0
H2578 H 0.4335 0.14217 0.52071 0.0
H2579 H 0.39783 0.14277 0.50841 0.0
H2580 H 0.4166 0.15603 0.44823 0.0
H2581 H 0.45202 0.155 0.46031 0.0
H2582 H 0.39262 0.18714 0.47086 0.0
H2583 H 0.39721 0.11345 0.45723 0.0
H2584 H 0.40105 0.07786 0.46806 0.0
H2585 H 0.3475 0.07874 0.50142 0.0
H2586 H 0.34353 0.11464 0.49123 0.0
H2587 H 0.29656 0.21107 0.43669 0.0
H2588 H 0.32947 0.19685 0.43347 0.0
H2589 H 0.30975 0.14523 0.47025 0.0
H2590 H 0.27652 0.15731 0.47 0.0
H2591 H 0.33674 0.13243 0.45711 0.0
H2592 H 0.33581 0.20161 0.48589 0.0
H2593 H 0.3311 0.23909 0.48623 0.0
H2594 H 0.37559 0.249 0.44205 0.0
H2595 H 0.38004 0.21156 0.44081 0.0
C2596 C 0.42991 0.14392 0.50463 0.0
C2597 C 0.44546 0.14833 0.4914 0.0
C2598 C 0.40959 0.14473 0.49772 0.0
C2599 C 0.40471 0.14987 0.47752 0.0
C2600 C 0.42012 0.15226 0.46391 0.0
C2601 C 0.44029 0.15125 0.47073 0.0
C2602 C 0.38391 0.15449 0.47075 0.0
C2603 C 0.38027 0.17526 0.46775 0.0
C2604 C 0.3678 0.13896 0.46779 0.0
C2605 C 0.37016 0.11705 0.47355 0.0
C2606 C 0.38644 0.10634 0.46722 0.0
C2607 C 0.38858 0.08598 0.47314 0.0
C2608 C 0.37457 0.07605 0.48547 0.0
C2609 C 0.35834 0.08644 0.49184 0.0
C2610 C 0.3561 0.1068 0.48592 0.0
C2611 C 0.29897 0.19602 0.44285 0.0
C2612 C 0.28412 0.18557 0.45406 0.0
C2613 C 0.3181 0.18817 0.4417 0.0
C2614 C 0.32304 0.17068 0.453 0.0
C2615 C 0.3071 0.15894 0.46167 0.0
C2616 C 0.28782 0.16596 0.46157 0.0
C2617 C 0.34459 0.1656 0.4579 0.0
C2618 C 0.34869 0.14463 0.46043 0.0
C2619 C 0.36078 0.18116 0.46232 0.0
C2620 C 0.35798 0.2037 0.46299 0.0
C2621 C 0.34446 0.21176 0.47613 0.0
C2622 C 0.34183 0.23297 0.47648 0.0
C2623 C 0.35303 0.24637 0.4642 0.0
C2624 C 0.36686 0.23859 0.45149 0.0
C2625 C 0.36936 0.21736 0.45087 0.0
H2626 H 0.35102 0.26278 0.46457 0.0
H2627 H 0.37626 0.06029 0.49006 0.0
H2628 H 0.91329 0.52547 0.65325 0.0
H2629 H 0.92809 0.56088 0.65787 0.0
H2630 H 0.98793 0.53911 0.66065 0.0
H2631 H 0.97292 0.50337 0.6563 0.0
H2632 H 0.97942 0.56853 0.69191 0.0
H2633 H 0.97005 0.56133 0.61617 0.0
H2634 H 0.94617 0.55044 0.5871 0.0
H2635 H 0.90431 0.59259 0.60694 0.0
H2636 H 0.92785 0.60371 0.63604 0.0
H2637 H 0.98797 0.67837 0.70747 0.0
H2638 H 0.00068 0.64952 0.68825 0.0
H2639 H 0.9389 0.62886 0.66857 0.0
H2640 H 0.92658 0.65578 0.68906 0.0
H2641 H 0.96569 0.62135 0.64059 0.0
H2642 H 0.95976 0.62938 0.71472 0.0
H2643 H 0.97827 0.62824 0.77481 0.0
H2644 H 0.02222 0.58105 0.74917 0.0
H2645 H 0.01114 0.58225 0.71039 0.0
C2646 C 0.92946 0.52818 0.65447 0.0
C2647 C 0.94183 0.51176 0.65402 0.0
C2648 C 0.93799 0.54842 0.65718 0.0
C2649 C 0.95911 0.55255 0.65903 0.0
C2650 C 0.9716 0.53616 0.65898 0.0
C2651 C 0.963 0.51585 0.65653 0.0
C2652 C 0.9679 0.57406 0.66163 0.0
C2653 C 0.9772 0.58027 0.68064 0.0
C2654 C 0.96401 0.58896 0.64686 0.0
C2655 C 0.95091 0.58358 0.62814 0.0
C2656 C 0.95588 0.56847 0.61417 0.0
C2657 C 0.94235 0.5622 0.59773 0.0
C2658 C 0.92381 0.57093 0.59511 0.0
C2659 C 0.91875 0.58599 0.60887 0.0
C2660 C 0.93224 0.59237 0.62525 0.0
C2661 C 0.97735 0.66715 0.69942 0.0
C2662 C 0.95643 0.66752 0.7014 0.0
C2663 C 0.98457 0.65133 0.68789 0.0
C2664 C 0.97063 0.63677 0.67765 0.0
C2665 C 0.94988 0.63975 0.6767 0.0
C2666 C 0.94281 0.65493 0.68867 0.0
C2667 C 0.97597 0.61623 0.67154 0.0
C2668 C 0.96952 0.6098 0.65161 0.0
C2669 C 0.98034 0.60131 0.68639 0.0
C2670 C 0.98583 0.60626 0.70845 0.0
C2671 C 0.97218 0.62218 0.72227 0.0
C2672 C 0.98344 0.62057 0.7614 0.0
C2673 C 0.00191 0.60421 0.76487 0.0
C2674 C 0.0106 0.59131 0.74526 0.0
C2675 C 0.00347 0.59224 0.72012 0.0
H2676 H 0.00812 0.60181 0.78008 0.0
H2677 H 0.91337 0.56602 0.58241 0.0
H2678 H 0.19063 0.78288 0.96776 0.0
H2679 H 0.15704 0.79208 0.96152 0.0
H2680 H 0.1805 0.85183 0.94026 0.0
H2681 H 0.21407 0.84439 0.95413 0.0
H2682 H 0.1575 0.86175 0.9604 0.0
H2683 H 0.13978 0.80229 0.91388 0.0
H2684 H 0.14006 0.76536 0.90406 0.0
H2685 H 0.11035 0.74768 0.95789 0.0
H2686 H 0.10987 0.78441 0.9681 0.0
H2687 H 0.05777 0.89385 0.96351 0.0
H2688 H 0.08939 0.88279 0.95162 0.0
H2689 H 0.08023 0.82572 0.98411 0.0
H2690 H 0.04681 0.83534 0.99221 0.0
H2691 H 0.0938 0.81647 0.95203 0.0
H2692 H 0.11717 0.87723 0.99872 0.0
H2693 H 0.11883 0.91481 0.00728 0.0
H2694 H 0.13828 0.92921 0.94827 0.0
H2695 H 0.1367 0.8922 0.93908 0.0
C2696 C 0.18852 0.79781 0.96134 0.0
C2697 C 0.20461 0.8131 0.96223 0.0
C2698 C 0.1689 0.80307 0.95706 0.0
C2699 C 0.16522 0.82299 0.95027 0.0
C2700 C 0.1823 0.83671 0.94653 0.0
C2701 C 0.20175 0.83231 0.95371 0.0
C2702 C 0.14457 0.83091 0.95127 0.0
C2703 C 0.14374 0.85167 0.95771 0.0
C2704 C 0.12598 0.81817 0.94875 0.0
C2705 C 0.12473 0.79617 0.94167 0.0
C2706 C 0.13312 0.79054 0.92351 0.0
C2707 C 0.13337 0.76963 0.91793 0.0
C2708 C 0.12521 0.75421 0.93035 0.0
C2709 C 0.11657 0.75965 0.94827 0.0
C2710 C 0.11619 0.78051 0.95389 0.0
C2711 C 0.063 0.87931 0.96868 0.0
C2712 C 0.05091 0.86626 0.98059 0.0
C2713 C 0.08111 0.87294 0.9619 0.0
C2714 C 0.08797 0.85379 0.96776 0.0
C2715 C 0.07571 0.84077 0.97968 0.0
C2716 C 0.057 0.84661 0.98521 0.0
C2717 C 0.10743 0.84679 0.96107 0.0
C2718 C 0.10785 0.8263 0.95381 0.0
C2719 C 0.12562 0.85978 0.9623 0.0
C2720 C 0.1266 0.882 0.96818 0.0
C2721 C 0.12166 0.88849 0.98755 0.0
C2722 C 0.12247 0.90965 0.99246 0.0
C2723 C 0.12824 0.92435 0.97823 0.0
C2724 C 0.13348 0.91792 0.95913 0.0
C2725 C 0.13271 0.89688 0.95407 0.0
H2726 H 0.12884 0.9407 0.98209 0.0
H2727 H 0.12559 0.73805 0.9261 0.0
H2728 H 0.51079 0.78283 0.29376 0.0
H2729 H 0.52798 0.81213 0.31354 0.0
H2730 H 0.51676 0.85156 0.26246 0.0
H2731 H 0.50594 0.8217 0.24179 0.0
H2732 H 0.53103 0.87554 0.28249 0.0
H2733 H 0.47989 0.82656 0.30941 0.0
H2734 H 0.46813 0.79253 0.32243 0.0
H2735 H 0.51259 0.8006 0.37253 0.0
H2736 H 0.52535 0.83422 0.35913 0.0
H2737 H 0.47502 0.93765 0.35594 0.0
H2738 H 0.47961 0.90317 0.34153 0.0
H2739 H 0.544 0.91911 0.34167 0.0
H2740 H 0.5394 0.95353 0.35552 0.0
H2741 H 0.50482 0.86936 0.35108 0.0
H2742 H 0.54961 0.92408 0.30427 0.0
H2743 H 0.54532 0.95613 0.28517 0.0
H2744 H 0.48431 0.93373 0.26625 0.0
H2745 H 0.48812 0.90189 0.28562 0.0
C2746 C 0.5136 0.79759 0.28653 0.0
C2747 C 0.50626 0.80035 0.26651 0.0
C2748 C 0.52251 0.81467 0.29811 0.0
C2749 C 0.52113 0.83491 0.29078 0.0
C2750 C 0.51739 0.83673 0.2696 0.0
C2751 C 0.51107 0.81933 0.25743 0.0
C2752 C 0.52029 0.85355 0.30481 0.0
C2753 C 0.52509 0.87356 0.2973 0.0
C2754 C 0.51214 0.85228 0.32445 0.0
C2755 C 0.50378 0.83267 0.33309 0.0
C2756 C 0.48711 0.82107 0.32322 0.0
C2757 C 0.48038 0.80179 0.3306 0.0
C2758 C 0.4896 0.79439 0.34833 0.0
C2759 C 0.50555 0.80629 0.35874 0.0
C2760 C 0.51265 0.82537 0.35117 0.0
C2761 C 0.4902 0.93338 0.35371 0.0
C2762 C 0.50691 0.94804 0.357 0.0
C2763 C 0.49279 0.91382 0.34529 0.0
C2764 C 0.5121 0.90882 0.34018 0.0
C2765 C 0.52895 0.92283 0.3452 0.0
C2766 C 0.52636 0.94234 0.35337 0.0
C2767 C 0.51469 0.88998 0.32791 0.0
C2768 C 0.51048 0.87043 0.336 0.0
C2769 C 0.52094 0.89148 0.30794 0.0
C2770 C 0.51912 0.91075 0.29647 0.0
C2771 C 0.53528 0.9261 0.29613 0.0
C2772 C 0.5329 0.94424 0.2853 0.0
C2773 C 0.51454 0.947 0.27456 0.0
C2774 C 0.49849 0.93165 0.27464 0.0
C2775 C 0.50073 0.91362 0.2856 0.0
H2776 H 0.51275 0.96102 0.26617 0.0
H2777 H 0.48443 0.77943 0.35399 0.0
H2778 H 0.47482 0.23129 0.81969 0.0
H2779 H 0.45988 0.24728 0.84784 0.0
H2780 H 0.51934 0.27161 0.8716 0.0
H2781 H 0.53436 0.25322 0.84433 0.0
H2782 H 0.50514 0.25395 0.89953 0.0
H2783 H 0.4753 0.30312 0.85974 0.0
H2784 H 0.45816 0.31823 0.83004 0.0
H2785 H 0.40451 0.27823 0.83801 0.0
H2786 H 0.42137 0.26267 0.8676 0.0
H2787 H 0.44418 0.26603 0.98728 0.0
H2788 H 0.46757 0.27166 0.96008 0.0
H2789 H 0.42278 0.24047 0.91749 0.0
H2790 H 0.39891 0.2372 0.94414 0.0
H2791 H 0.4351 0.27444 0.90241 0.0
H2792 H 0.47566 0.22282 0.94188 0.0
H2793 H 0.49832 0.21374 0.97094 0.0
H2794 H 0.53552 0.27015 0.96508 0.0
H2795 H 0.51377 0.27935 0.93557 0.0
C2796 C 0.48461 0.24092 0.83035 0.0
C2797 C 0.50568 0.24092 0.82994 0.0
C2798 C 0.47603 0.25025 0.84659 0.0
C2799 C 0.48836 0.26072 0.86224 0.0
C2800 C 0.5094 0.26339 0.86003 0.0
C2801 C 0.51802 0.25329 0.84414 0.0
C2802 C 0.47971 0.26504 0.88218 0.0
C2803 C 0.48995 0.25889 0.90008 0.0
C2804 C 0.46016 0.27206 0.88346 0.0
C2805 C 0.44965 0.28172 0.86595 0.0
C2806 C 0.45986 0.29751 0.85515 0.0
C2807 C 0.45019 0.30615 0.83832 0.0
C2808 C 0.43026 0.29919 0.83215 0.0
C2809 C 0.41993 0.28363 0.84284 0.0
C2810 C 0.42952 0.27495 0.8597 0.0
C2811 C 0.43972 0.25983 0.97219 0.0
C2812 C 0.42008 0.25046 0.96786 0.0
C2813 C 0.45309 0.26304 0.95661 0.0
C2814 C 0.44716 0.25635 0.93657 0.0
C2815 C 0.42783 0.24591 0.9327 0.0
C2816 C 0.41428 0.24358 0.94801 0.0
C2817 C 0.45983 0.26142 0.91904 0.0
C2818 C 0.45038 0.26976 0.9017 0.0
C2819 C 0.48048 0.25746 0.91856 0.0
C2820 C 0.49289 0.25193 0.93675 0.0
C2821 C 0.48854 0.23338 0.94693 0.0
C2822 C 0.50119 0.22822 0.96348 0.0
C2823 C 0.51796 0.24151 0.97014 0.0
C2824 C 0.5224 0.25993 0.96006 0.0
C2825 C 0.51002 0.26508 0.94336 0.0
H2826 H 0.52765 0.23742 0.98297 0.0
H2827 H 0.42282 0.30586 0.81908 0.0
H2828 H 0.59177 0.32361 0.31261 0.0
H2829 H 0.60837 0.35391 0.33005 0.0
H2830 H 0.55014 0.37216 0.34684 0.0
H2831 H 0.53352 0.34334 0.32612 0.0
H2832 H 0.56496 0.40135 0.33035 0.0
H2833 H 0.5984 0.36149 0.38214 0.0
H2834 H 0.61786 0.33289 0.39465 0.0
H2835 H 0.66697 0.35326 0.3583 0.0
H2836 H 0.64781 0.38185 0.34547 0.0
H2837 H 0.63213 0.48318 0.38717 0.0
H2838 H 0.60703 0.45446 0.37758 0.0
H2839 H 0.63659 0.44515 0.32206 0.0
H2840 H 0.66068 0.47508 0.33085 0.0
H2841 H 0.63421 0.41395 0.36256 0.0
H2842 H 0.60315 0.44421 0.30468 0.0
H2843 H 0.5849 0.46793 0.28302 0.0
H2844 H 0.53499 0.46268 0.32171 0.0
H2845 H 0.553 0.43875 0.34364 0.0
C2846 C 0.58261 0.33434 0.31984 0.0
C2847 C 0.56155 0.33246 0.31661 0.0
C2848 C 0.59214 0.35134 0.33066 0.0
C2849 C 0.58063 0.36587 0.33975 0.0
C2850 C 0.55944 0.3617 0.33941 0.0
C2851 C 0.54991 0.34526 0.32761 0.0
C2852 C 0.58997 0.387 0.34542 0.0
C2853 C 0.57987 0.40395 0.33801 0.0
C2854 C 0.60987 0.39069 0.35455 0.0
C2855 C 0.62166 0.37389 0.36293 0.0
C2856 C 0.61336 0.3599 0.37686 0.0
C2857 C 0.62434 0.34366 0.38398 0.0
C2858 C 0.64364 0.34128 0.37729 0.0
C2859 C 0.65206 0.35516 0.36353 0.0
C2860 C 0.64119 0.37144 0.35641 0.0
C2861 C 0.6323 0.47596 0.37227 0.0
C2862 C 0.64766 0.48174 0.35932 0.0
C2863 C 0.61814 0.45947 0.36691 0.0
C2864 C 0.61982 0.44808 0.34897 0.0
C2865 C 0.63472 0.45427 0.33563 0.0
C2866 C 0.64848 0.4712 0.3407 0.0
C2867 C 0.60931 0.42735 0.34681 0.0
C2868 C 0.6191 0.41092 0.35535 0.0
C2869 C 0.5896 0.42391 0.33784 0.0
C2870 C 0.57965 0.44004 0.32612 0.0
C2871 C 0.58851 0.44847 0.3089 0.0
C2872 C 0.57807 0.46171 0.29637 0.0
C2873 C 0.5588 0.46685 0.301 0.0
C2874 C 0.54995 0.45873 0.31818 0.0
C2875 C 0.56025 0.44528 0.33064 0.0
H2876 H 0.55073 0.47711 0.29129 0.0
H2877 H 0.65206 0.32865 0.38276 0.0
H2878 H 0.53152 0.846 0.86325 0.0
H2879 H 0.55241 0.832 0.89092 0.0
H2880 H 0.60437 0.83863 0.85454 0.0
H2881 H 0.58359 0.85269 0.82703 0.0
H2882 H 0.59054 0.79574 0.8695 0.0
H2883 H 0.6041 0.86982 0.89346 0.0
H2884 H 0.59078 0.90182 0.90607 0.0
H2885 H 0.56254 0.86796 0.95368 0.0
H2886 H 0.57553 0.83578 0.94124 0.0
H2887 H 0.66816 0.75811 0.93339 0.0
H2888 H 0.64765 0.77647 0.9087 0.0
H2889 H 0.61461 0.79993 0.95752 0.0
H2890 H 0.63691 0.78473 0.98191 0.0
H2891 H 0.61625 0.82718 0.93588 0.0
H2892 H 0.59767 0.75664 0.92022 0.0
H2893 H 0.60019 0.71996 0.91099 0.0
H2894 H 0.62273 0.73765 0.8536 0.0
H2895 H 0.62072 0.77449 0.86261 0.0
C2896 C 0.54766 0.84561 0.86173 0.0
C2897 C 0.55618 0.8509 0.84335 0.0
C2898 C 0.55945 0.83724 0.87731 0.0
C2899 C 0.5798 0.8341 0.87454 0.0
C2900 C 0.58865 0.84088 0.85682 0.0
C2901 C 0.57692 0.84929 0.84134 0.0
C2902 C 0.59163 0.82249 0.88939 0.0
C2903 C 0.59641 0.80247 0.88403 0.0
C2904 C 0.5979 0.83085 0.90874 0.0
C2905 C 0.59072 0.85042 0.91637 0.0
C2906 C 0.595 0.86922 0.90657 0.0
C2907 C 0.58752 0.88738 0.9137 0.0
C2908 C 0.5758 0.88692 0.93065 0.0
C2909 C 0.57161 0.86831 0.94056 0.0
C2910 C 0.57907 0.85013 0.93351 0.0
C2911 C 0.65676 0.76756 0.93878 0.0
C2912 C 0.65397 0.76959 0.95966 0.0
C2913 C 0.64473 0.77775 0.92462 0.0
C2914 C 0.62903 0.78925 0.93102 0.0
C2915 C 0.62655 0.79136 0.95191 0.0
C2916 C 0.63924 0.78228 0.96599 0.0
C2917 C 0.61561 0.79987 0.91635 0.0
C2918 C 0.61047 0.81988 0.92158 0.0
C2919 C 0.6076 0.79063 0.89759 0.0
C2920 C 0.60932 0.76844 0.89225 0.0
C2921 C 0.6034 0.75276 0.90573 0.0
C2922 C 0.6047 0.73192 0.90051 0.0
C2923 C 0.61168 0.72648 0.88175 0.0
C2924 C 0.61737 0.74189 0.86815 0.0
C2925 C 0.61618 0.76276 0.87332 0.0
H2926 H 0.61263 0.71034 0.87773 0.0
H2927 H 0.56999 0.90098 0.9361 0.0
H2928 H 0.18403 0.42888 0.22621 0.0
H2929 H 0.16154 0.41965 0.25327 0.0
H2930 H 0.21292 0.42915 0.29687 0.0
H2931 H 0.23517 0.43344 0.26964 0.0
H2932 H 0.19136 0.41506 0.31726 0.0
H2933 H 0.17228 0.46945 0.27316 0.0
H2934 H 0.16039 0.4865 0.242 0.0
H2935 H 0.10511 0.4469 0.23933 0.0
H2936 H 0.11677 0.42948 0.27035 0.0
H2937 H 0.13346 0.47799 0.38252 0.0
H2938 H 0.14646 0.47209 0.34907 0.0
H2939 H 0.12289 0.40818 0.34994 0.0
H2940 H 0.10954 0.41421 0.38333 0.0
H2941 H 0.12642 0.4474 0.30799 0.0
H2942 H 0.16352 0.39784 0.36117 0.0
H2943 H 0.18346 0.39807 0.39416 0.0
H2944 H 0.21542 0.45568 0.37969 0.0
H2945 H 0.19548 0.45595 0.34697 0.0
C2946 C 0.19054 0.4273 0.24149 0.0
C2947 C 0.21139 0.43219 0.24585 0.0
C2948 C 0.17751 0.42305 0.25724 0.0
C2949 C 0.18482 0.42554 0.27775 0.0
C2950 C 0.20609 0.42736 0.28161 0.0
C2951 C 0.21917 0.42967 0.26576 0.0
C2952 C 0.17088 0.42802 0.29495 0.0
C2953 C 0.17733 0.42232 0.3147 0.0
C2954 C 0.15234 0.43787 0.2928 0.0
C2955 C 0.14553 0.44794 0.27387 0.0
C2956 C 0.15766 0.46428 0.26582 0.0
C2957 C 0.15096 0.47402 0.24821 0.0
C2958 C 0.13205 0.46772 0.23865 0.0
C2959 C 0.11979 0.4517 0.2467 0.0
C2960 C 0.12644 0.44187 0.26428 0.0
C2961 C 0.13002 0.463 0.37504 0.0
C2962 C 0.12031 0.44659 0.38542 0.0
C2963 C 0.13774 0.45956 0.35606 0.0
C2964 C 0.1359 0.43964 0.34713 0.0
C2965 C 0.12454 0.42367 0.35658 0.0
C2966 C 0.11671 0.42717 0.37554 0.0
C2967 C 0.14768 0.43504 0.32929 0.0
C2968 C 0.14059 0.44017 0.30976 0.0
C2969 C 0.16679 0.42707 0.33178 0.0
C2970 C 0.17781 0.42705 0.3519 0.0
C2971 C 0.17456 0.41069 0.36526 0.0
C2972 C 0.18583 0.41076 0.38389 0.0
C2973 C 0.20041 0.42706 0.38918 0.0
C2974 C 0.2039 0.44324 0.37577 0.0
C2975 C 0.19259 0.44331 0.35725 0.0
H2976 H 0.20912 0.42706 0.40357 0.0
H2977 H 0.12687 0.4753 0.22504 0.0
H2978 H 0.22524 0.91785 0.38138 0.0
H2979 H 0.21822 0.88908 0.4037 0.0
H2980 H 0.19953 0.9309 0.44908 0.0
H2981 H 0.2058 0.96014 0.42631 0.0
H2982 H 0.22726 0.90329 0.4644 0.0
H2983 H 0.16319 0.8992 0.43458 0.0
H2984 H 0.13014 0.89476 0.4153 0.0
H2985 H 0.14816 0.84057 0.38524 0.0
H2986 H 0.18146 0.84483 0.40412 0.0
H2987 H 0.18189 0.81561 0.51697 0.0
H2988 H 0.19788 0.84727 0.50389 0.0
H2989 H 0.21102 0.81392 0.44975 0.0
H2990 H 0.19374 0.78239 0.46244 0.0
H2991 H 0.18375 0.8403 0.44239 0.0
H2992 H 0.24859 0.84784 0.48435 0.0
H2993 H 0.26819 0.85059 0.51741 0.0
H2994 H 0.23459 0.901 0.53558 0.0
H2995 H 0.21478 0.8985 0.50272 0.0
C2996 C 0.21957 0.92114 0.39605 0.0
C2997 C 0.21614 0.94152 0.40195 0.0
C2998 C 0.21538 0.90452 0.40876 0.0
C2999 C 0.20804 0.90773 0.42793 0.0
C3000 C 0.20501 0.92804 0.43424 0.0
C3001 C 0.20879 0.94476 0.42127 0.0
C3002 C 0.2053 0.88983 0.44163 0.0
C3003 C 0.21765 0.88951 0.45964 0.0
C3004 C 0.1924 0.87202 0.4358 0.0
C3005 C 0.17498 0.87248 0.42067 0.0
C3006 C 0.16041 0.88674 0.42337 0.0
C3007 C 0.14148 0.88406 0.41274 0.0
C3008 C 0.13692 0.86716 0.39939 0.0
C3009 C 0.15162 0.85349 0.39583 0.0
C3010 C 0.17058 0.85612 0.40637 0.0
C3011 C 0.18938 0.81472 0.50285 0.0
C3012 C 0.18638 0.79658 0.4906 0.0
C3013 C 0.19855 0.83299 0.49531 0.0
C3014 C 0.20546 0.83324 0.47562 0.0
C3015 C 0.20567 0.8142 0.46494 0.0
C3016 C 0.19604 0.79601 0.47231 0.0
C3017 C 0.2069 0.85302 0.46426 0.0
C3018 C 0.19394 0.8538 0.44675 0.0
C3019 C 0.21815 0.87154 0.4714 0.0
C3020 C 0.23016 0.8729 0.4911 0.0
C3021 C 0.24533 0.85943 0.49544 0.0
C3022 C 0.2565 0.86099 0.51413 0.0
C3023 C 0.25262 0.87594 0.52859 0.0
C3024 C 0.2376 0.88943 0.52437 0.0
C3025 C 0.22645 0.88799 0.5057 0.0
H3026 H 0.26127 0.87709 0.54304 0.0
H3027 H 0.12212 0.86487 0.3915 0.0
H3028 H 0.85634 0.47194 0.67952 0.0
H3029 H 0.83075 0.45502 0.69947 0.0
H3030 H 0.87657 0.42471 0.7341 0.0
H3031 H 0.90245 0.43954 0.71161 0.0
H3032 H 0.83187 0.4024 0.72767 0.0
H3033 H 0.86842 0.46301 0.76065 0.0
H3034 H 0.88933 0.496 0.75754 0.0
H3035 H 0.84105 0.52045 0.72188 0.0
H3036 H 0.8201 0.48739 0.72447 0.0
H3037 H 0.77426 0.41965 0.8138 0.0
H3038 H 0.79071 0.40687 0.78515 0.0
H3039 H 0.76925 0.45649 0.74898 0.0
H3040 H 0.75501 0.47077 0.77882 0.0
H3041 H 0.80687 0.46461 0.75942 0.0
H3042 H 0.76969 0.39792 0.73443 0.0
H3043 H 0.75435 0.36271 0.74058 0.0
H3044 H 0.81055 0.34661 0.76925 0.0
H3045 H 0.82616 0.38164 0.76332 0.0
C3046 C 0.86101 0.46135 0.69109 0.0
C3047 C 0.88133 0.45733 0.69441 0.0
C3048 C 0.84634 0.4514 0.70219 0.0
C3049 C 0.85186 0.43876 0.7182 0.0
C3050 C 0.87211 0.43426 0.72156 0.0
C3051 C 0.88684 0.44314 0.70921 0.0
C3052 C 0.83702 0.43518 0.73359 0.0
C3053 C 0.82647 0.41575 0.73514 0.0
C3054 C 0.83048 0.45261 0.74346 0.0
C3055 C 0.84246 0.47301 0.74316 0.0
C3056 C 0.86221 0.47552 0.7523 0.0
C3057 C 0.87414 0.49415 0.75049 0.0
C3058 C 0.86646 0.51037 0.73958 0.0
C3059 C 0.84689 0.50795 0.73042 0.0
C3060 C 0.83495 0.48934 0.73211 0.0
C3061 C 0.77185 0.42705 0.79935 0.0
C3062 C 0.76462 0.44682 0.79871 0.0
C3063 C 0.78134 0.41962 0.78276 0.0
C3064 C 0.78211 0.43127 0.76506 0.0
C3065 C 0.76944 0.44764 0.76278 0.0
C3066 C 0.76095 0.4557 0.77979 0.0
C3067 C 0.80054 0.43162 0.75329 0.0
C3068 C 0.81202 0.45086 0.75248 0.0
C3069 C 0.80853 0.41359 0.74554 0.0
C3070 C 0.79906 0.39242 0.74845 0.0
C3071 C 0.77874 0.38687 0.74205 0.0
C3072 C 0.77002 0.36693 0.74549 0.0
C3073 C 0.78146 0.35244 0.75531 0.0
C3074 C 0.80169 0.35781 0.76162 0.0
C3075 C 0.8105 0.37766 0.75814 0.0
H3076 H 0.77465 0.33706 0.75803 0.0
H3077 H 0.87569 0.52478 0.73816 0.0
H3078 H 0.66604 0.93658 0.48417 0.0
H3079 H 0.6894 0.91121 0.47783 0.0
H3080 H 0.71488 0.94868 0.43076 0.0
H3081 H 0.69197 0.97583 0.43826 0.0
H3082 H 0.70361 0.90322 0.42114 0.0
H3083 H 0.74903 0.94416 0.4676 0.0
H3084 H 0.75929 0.96666 0.4976 0.0
H3085 H 0.73458 0.91994 0.53662 0.0
H3086 H 0.72419 0.89715 0.50685 0.0
H3087 H 0.78441 0.8368 0.42868 0.0
H3088 H 0.75641 0.85786 0.42096 0.0
H3089 H 0.73207 0.84223 0.47847 0.0
H3090 H 0.76058 0.82171 0.48647 0.0
H3091 H 0.74708 0.88087 0.47883 0.0
H3092 H 0.70177 0.83956 0.43249 0.0
H3093 H 0.69095 0.8171 0.40266 0.0
H3094 H 0.71401 0.86421 0.36312 0.0
H3095 H 0.72511 0.88691 0.39274 0.0
C3096 C 0.67662 0.93986 0.47253 0.0
C3097 C 0.67721 0.95857 0.46189 0.0
C3098 C 0.69015 0.92523 0.46906 0.0
C3099 C 0.70403 0.92817 0.45405 0.0
C3100 C 0.7043 0.94628 0.44255 0.0
C3101 C 0.69118 0.96166 0.44674 0.0
C3102 C 0.7174 0.91142 0.45073 0.0
C3103 C 0.71349 0.89846 0.43347 0.0
C3104 C 0.73009 0.90519 0.467 0.0
C3105 C 0.73579 0.91898 0.48499 0.0
C3106 C 0.74567 0.93875 0.48257 0.0
C3107 C 0.75157 0.95152 0.49954 0.0
C3108 C 0.74757 0.94473 0.51899 0.0
C3109 C 0.73769 0.92515 0.52154 0.0
C3110 C 0.73182 0.91229 0.50463 0.0
C3111 C 0.77231 0.83666 0.43904 0.0
C3112 C 0.77497 0.82833 0.45846 0.0
C3113 C 0.75628 0.84886 0.43465 0.0
C3114 C 0.74254 0.85227 0.44947 0.0
C3115 C 0.74278 0.84014 0.46698 0.0
C3116 C 0.75896 0.8281 0.47144 0.0
C3117 C 0.73253 0.87196 0.44954 0.0
C3118 C 0.73732 0.88553 0.46628 0.0
C3119 C 0.72072 0.87864 0.43271 0.0
C3120 C 0.7145 0.86485 0.41487 0.0
C3121 C 0.70475 0.84505 0.41745 0.0
C3122 C 0.69849 0.8323 0.40057 0.0
C3123 C 0.70185 0.83919 0.38101 0.0
C3124 C 0.71144 0.85888 0.37829 0.0
C3125 C 0.71769 0.87171 0.39511 0.0
H3126 H 0.69699 0.82931 0.36797 0.0
H3127 H 0.75209 0.95465 0.5321 0.0
H3128 H 0.19326 0.34074 0.01168 0.0
H3129 H 0.22468 0.35952 0.02675 0.0
H3130 H 0.20647 0.41589 -0.00021 0.0
H3131 H 0.17518 0.39757 0.98571 0.0
H3132 H 0.25503 0.3864 0.00485 0.0
H3133 H 0.204 0.44587 0.0275 0.0
H3134 H 0.17239 0.4495 0.04469 0.0
H3135 H 0.18709 0.40128 0.08555 0.0
H3136 H 0.21859 0.39704 0.06821 0.0
H3137 H 0.28416 0.47898 0.97385 0.0
H3138 H 0.25912 0.45365 0.98728 0.0
H3139 H 0.28967 0.46108 0.04687 0.0
H3140 H 0.314 0.48727 0.03367 0.0
H3141 H 0.24401 0.45031 0.04395 0.0
H3142 H 0.30776 0.42923 0.02048 0.0
H3143 H 0.33273 0.43558 0.99446 0.0
H3144 H 0.2886 0.41196 0.94803 0.0
H3145 H 0.26293 0.40764 0.97345 0.0
C3146 C 0.19639 0.35706 0.00878 0.0
C3147 C 0.18235 0.36786 0.99732 0.0
C3148 C 0.21402 0.36772 0.01756 0.0
C3149 C 0.21728 0.38914 0.01501 0.0
C3150 C 0.2037 0.3995 0.00257 0.0
C3151 C 0.18613 0.38903 0.9942 0.0
C3152 C 0.23519 0.40134 0.02406 0.0
C3153 C 0.25323 0.39991 0.01432 0.0
C3154 C 0.23257 0.41895 0.03631 0.0
C3155 C 0.21358 0.42114 0.04661 0.0
C3156 C 0.20045 0.43604 0.04015 0.0
C3157 C 0.18253 0.43813 0.04984 0.0
C3158 C 0.17773 0.42563 0.06621 0.0
C3159 C 0.19079 0.41089 0.07281 0.0
C3160 C 0.2086 0.40852 0.06296 0.0
C3161 C 0.28506 0.4755 0.98986 0.0
C3162 C 0.30077 0.48451 0.00283 0.0
C3163 C 0.27078 0.46138 0.99757 0.0
C3164 C 0.27303 0.45542 0.01791 0.0
C3165 C 0.28788 0.4656 0.03118 0.0
C3166 C 0.30181 0.48016 0.02359 0.0
C3167 C 0.26297 0.43573 0.02364 0.0
C3168 C 0.24678 0.43603 0.03615 0.0
C3169 C 0.26712 0.41726 0.01355 0.0
C3170 C 0.28346 0.41739 0.99895 0.0
C3171 C 0.30341 0.42523 0.00475 0.0
C3172 C 0.31765 0.42879 0.9901 0.0
C3173 C 0.3124 0.42376 0.96972 0.0
C3174 C 0.29279 0.41554 0.96387 0.0
C3175 C 0.27835 0.41261 0.97836 0.0
H3176 H 0.32347 0.42643 0.95843 0.0
H3177 H 0.16391 0.42736 0.07379 0.0
H3178 H 0.96128 0.39119 0.55597 0.0
H3179 H 0.92805 0.38603 0.56994 0.0
H3180 H 0.90133 0.3684 0.51042 0.0
H3181 H 0.93506 0.37172 0.49667 0.0
H3182 H 0.8808 0.3989 0.54277 0.0
H3183 H 0.90622 0.33121 0.52769 0.0
H3184 H 0.93101 0.30488 0.52986 0.0
H3185 H 0.93257 0.30862 0.59494 0.0
H3186 H 0.90789 0.33518 0.59314 0.0
H3187 H 0.79486 0.3347 0.53224 0.0
H3188 H 0.82152 0.36111 0.53866 0.0
H3189 H 0.84053 0.33091 0.59363 0.0
H3190 H 0.81412 0.30327 0.58582 0.0
H3191 H 0.86853 0.32942 0.57216 0.0
H3192 H 0.83742 0.3925 0.58681 0.0
H3193 H 0.81242 0.4185 0.5842 0.0
H3194 H 0.8199 0.42298 0.52015 0.0
H3195 H 0.84551 0.39745 0.52256 0.0
C3196 C 0.94838 0.38637 0.54582 0.0
C3197 C 0.95066 0.38143 0.52535 0.0
C3198 C 0.9294 0.38359 0.55381 0.0
C3199 C 0.91249 0.37654 0.54121 0.0
C3200 C 0.91439 0.37373 0.52031 0.0
C3201 C 0.93351 0.37581 0.51245 0.0
C3202 C 0.89326 0.37023 0.55012 0.0
C3203 C 0.87791 0.38376 0.54929 0.0
C3204 C 0.89006 0.35081 0.55925 0.0
C3205 C 0.90567 0.33564 0.56029 0.0
C3206 C 0.91221 0.32681 0.54246 0.0
C3207 C 0.92615 0.31173 0.54362 0.0
C3208 C 0.93356 0.30526 0.56252 0.0
C3209 C 0.92695 0.31377 0.58031 0.0
C3210 C 0.91301 0.32885 0.57923 0.0
C3211 C 0.80452 0.3336 0.54594 0.0
C3212 C 0.80426 0.31514 0.55703 0.0
C3213 C 0.81969 0.3494 0.55001 0.0
C3214 C 0.83412 0.34779 0.56617 0.0
C3215 C 0.8304 0.33202 0.58029 0.0
C3216 C 0.81551 0.31574 0.57564 0.0
C3217 C 0.855 0.35785 0.5645 0.0
C3218 C 0.87111 0.34498 0.56653 0.0
C3219 C 0.85882 0.37791 0.55643 0.0
C3220 C 0.84327 0.39303 0.55489 0.0
C3221 C 0.83366 0.39898 0.57217 0.0
C3222 C 0.81942 0.41371 0.57071 0.0
C3223 C 0.8144 0.4223 0.55196 0.0
C3224 C 0.8238 0.41634 0.53466 0.0
C3225 C 0.83832 0.40191 0.53611 0.0
H3226 H 0.80333 0.43364 0.55079 0.0
H3227 H 0.94429 0.29353 0.56337 0.0
H3228 H 0.46692 0.62783 0.71033 0.0
H3229 H 0.49188 0.60304 0.71929 0.0
H3230 H 0.52623 0.64959 0.75728 0.0
H3231 H 0.50152 0.67437 0.74862 0.0
H3232 H 0.54211 0.63286 0.71843 0.0
H3233 H 0.5136 0.61249 0.78112 0.0
H3234 H 0.48482 0.59918 0.80045 0.0
H3235 H 0.48076 0.5419 0.76625 0.0
H3236 H 0.50934 0.55501 0.74645 0.0
H3237 H 0.63059 0.58292 0.72175 0.0
H3238 H 0.60302 0.60225 0.73342 0.0
H3239 H 0.56255 0.54661 0.72822 0.0
H3240 H 0.5901 0.52738 0.71677 0.0
H3241 H 0.54861 0.56757 0.75536 0.0
H3242 H 0.55458 0.58748 0.68709 0.0
H3243 H 0.55889 0.60455 0.65437 0.0
H3244 H 0.59083 0.65736 0.68528 0.0
H3245 H 0.58645 0.64066 0.71811 0.0
C3246 C 0.47948 0.63265 0.72103 0.0
C3247 C 0.48239 0.65327 0.72841 0.0
C3248 C 0.49361 0.61835 0.72633 0.0
C3249 C 0.51076 0.62438 0.7392 0.0
C3250 C 0.51294 0.64451 0.74761 0.0
C3251 C 0.4989 0.65875 0.74237 0.0
C3252 C 0.52869 0.61205 0.73951 0.0
C3253 C 0.54394 0.61892 0.72706 0.0
C3254 C 0.53009 0.59312 0.74963 0.0
C3255 C 0.5136 0.58479 0.76222 0.0
C3256 C 0.50654 0.59709 0.77765 0.0
C3257 C 0.49025 0.58957 0.7887 0.0
C3258 C 0.48095 0.56971 0.78456 0.0
C3259 C 0.488 0.55728 0.76944 0.0
C3260 C 0.50428 0.56473 0.75833 0.0
C3261 C 0.61612 0.5746 0.72416 0.0
C3262 C 0.61265 0.55354 0.71854 0.0
C3263 C 0.60013 0.58578 0.73033 0.0
C3264 C 0.58034 0.57614 0.73112 0.0
C3265 C 0.57747 0.55462 0.72762 0.0
C3266 C 0.59338 0.54351 0.72133 0.0
C3267 C 0.56258 0.58864 0.73417 0.0
C3268 C 0.54729 0.58183 0.74721 0.0
C3269 C 0.56015 0.60712 0.72346 0.0
C3270 C 0.57059 0.61265 0.70498 0.0
C3271 C 0.56339 0.60229 0.68679 0.0
C3272 C 0.56532 0.61214 0.66827 0.0
C3273 C 0.57482 0.63213 0.66777 0.0
C3274 C 0.58341 0.6419 0.68564 0.0
C3275 C 0.58133 0.63219 0.70422 0.0
H3276 H 0.57556 0.63989 0.6535 0.0
H3277 H 0.46829 0.56395 0.79308 0.0
H3278 H 0.47209 0.83773 0.21665 0.0
H3279 H 0.45432 0.86767 0.20481 0.0
H3280 H 0.40646 0.8261 0.17629 0.0
H3281 H 0.42296 0.79642 0.19017 0.0
H3282 H 0.42479 0.86498 0.15375 0.0
H3283 H 0.39832 0.83337 0.21503 0.0
H3284 H 0.39624 0.8277 0.2763 0.0
H3285 H 0.41149 0.90031 0.27465 0.0
H3286 H 0.41331 0.90459 0.23508 0.0
H3287 H 0.33917 0.92987 0.15015 0.0
H3288 H 0.36074 0.90088 0.15378 0.0
H3289 H 0.40816 0.9419 0.1837 0.0
H3290 H 0.38692 0.97107 0.17934 0.0
H3291 H 0.38933 0.90254 0.20526 0.0
H3292 H 0.42338 0.92797 0.1465 0.0
H3293 H 0.42556 0.93944 0.11119 0.0
H3294 H 0.39616 0.88116 0.08935 0.0
H3295 H 0.39367 0.86941 0.12459 0.0
C3296 C 0.45759 0.8352 0.20819 0.0
C3297 C 0.44811 0.81522 0.20517 0.0
C3298 C 0.44767 0.85211 0.20125 0.0
C3299 C 0.42894 0.84885 0.19022 0.0
C3300 C 0.42076 0.82873 0.18512 0.0
C3301 C 0.43002 0.81194 0.19313 0.0
C3302 C 0.41727 0.86638 0.18503 0.0
C3303 C 0.4169 0.87314 0.16496 0.0
C3304 C 0.40725 0.87685 0.19993 0.0
C3305 C 0.40687 0.87018 0.22149 0.0
C3306 C 0.40144 0.8447 0.2274 0.0
C3307 C 0.39957 0.84105 0.26675 0.0
C3308 C 0.40413 0.86447 0.27865 0.0
C3309 C 0.40877 0.88629 0.26557 0.0
C3310 C 0.41002 0.8889 0.24 0.0
C3311 C 0.35447 0.93273 0.15684 0.0
C3312 C 0.36164 0.95256 0.16424 0.0
C3313 C 0.36668 0.91625 0.15898 0.0
C3314 C 0.38592 0.91938 0.16903 0.0
C3315 C 0.39336 0.93933 0.1758 0.0
C3316 C 0.38136 0.95593 0.17317 0.0
C3317 C 0.39739 0.90148 0.17418 0.0
C3318 C 0.39744 0.89444 0.1942 0.0
C3319 C 0.40717 0.89074 0.15935 0.0
C3320 C 0.40808 0.89794 0.13818 0.0
C3321 C 0.41713 0.91771 0.13418 0.0
C3322 C 0.41851 0.92422 0.11418 0.0
C3323 C 0.41093 0.91106 0.09804 0.0
C3324 C 0.40198 0.89135 0.10187 0.0
C3325 C 0.4006 0.88475 0.12185 0.0
H3326 H 0.41205 0.91612 0.08256 0.0
H3327 H 0.4039 0.86545 0.295 0.0
H3328 H 0.26004 0.64469 0.43469 0.0
H3329 H 0.22412 0.63307 0.43498 0.0
H3330 H 0.23567 0.60361 0.49228 0.0
H3331 H 0.27088 0.6162 0.49242 0.0
H3332 H 0.22262 0.59452 0.42866 0.0
H3333 H 0.19729 0.57773 0.51118 0.0
H3334 H 0.19382 0.5974 0.54285 0.0
H3335 H 0.18861 0.65301 0.50918 0.0
H3336 H 0.19128 0.63359 0.47717 0.0
H3337 H 0.16906 0.49487 0.4726 0.0
H3338 H 0.18982 0.52809 0.47682 0.0
H3339 H 0.16335 0.54776 0.41979 0.0
H3340 H 0.14588 0.51386 0.41398 0.0
H3341 H 0.17649 0.56665 0.47993 0.0
H3342 H 0.18544 0.5752 0.39824 0.0
H3343 H 0.18673 0.55217 0.3682 0.0
H3344 H 0.22751 0.51538 0.40158 0.0
H3345 H 0.22475 0.53687 0.43249 0.0
C3346 C 0.2545 0.63721 0.44808 0.0
C3347 C 0.2681 0.63064 0.46321 0.0
C3348 C 0.23397 0.63037 0.44819 0.0
C3349 C 0.22725 0.61669 0.46321 0.0
C3350 C 0.24022 0.61399 0.48039 0.0
C3351 C 0.26056 0.62114 0.48046 0.0
C3352 C 0.21075 0.60026 0.45798 0.0
C3353 C 0.21208 0.589 0.43971 0.0
C3354 C 0.19728 0.59245 0.47249 0.0
C3355 C 0.19456 0.60413 0.49166 0.0
C3356 C 0.19508 0.59409 0.51043 0.0
C3357 C 0.19328 0.60521 0.52848 0.0
C3358 C 0.19097 0.62644 0.52802 0.0
C3359 C 0.19039 0.63656 0.50951 0.0
C3360 C 0.19201 0.62548 0.49138 0.0
C3361 C 0.16912 0.50573 0.4603 0.0
C3362 C 0.1566 0.50157 0.44259 0.0
C3363 C 0.18036 0.52493 0.46301 0.0
C3364 C 0.17847 0.54033 0.44838 0.0
C3365 C 0.16601 0.53591 0.43075 0.0
C3366 C 0.15595 0.51648 0.42748 0.0
C3367 C 0.18932 0.56112 0.45132 0.0
C3368 C 0.18676 0.57286 0.46893 0.0
C3369 C 0.20171 0.56954 0.43634 0.0
C3370 C 0.20491 0.55763 0.41759 0.0
C3371 C 0.19466 0.56215 0.39916 0.0
C3372 C 0.19517 0.54902 0.38219 0.0
C3373 C 0.20672 0.53192 0.38321 0.0
C3374 C 0.21791 0.52807 0.40114 0.0
C3375 C 0.21663 0.54053 0.41846 0.0
H3376 H 0.2074 0.52196 0.36998 0.0
H3377 H 0.18965 0.63504 0.54201 0.0
H3378 H 0.62422 0.71406 0.97376 0.0
H3379 H 0.58958 0.7006 0.9785 0.0
H3380 H 0.60822 0.67694 0.03675 0.0
H3381 H 0.64345 0.69067 0.03195 0.0
H3382 H 0.58926 0.6475 0.00263 0.0
H3383 H 0.55139 0.70244 0.04436 0.0
H3384 H 0.54244 0.73788 0.05216 0.0
H3385 H 0.55137 0.75509 0.99058 0.0
H3386 H 0.56 0.71972 0.98244 0.0
H3387 H 0.47684 0.6245 0.97966 0.0
H3388 H 0.51186 0.62461 0.99393 0.0
H3389 H 0.52939 0.67536 0.95541 0.0
H3390 H 0.49429 0.67645 0.94269 0.0
H3391 H 0.52694 0.68475 0.99731 0.0
H3392 H 0.5546 0.63246 0.95283 0.0
H3393 H 0.55453 0.59656 0.93973 0.0
H3394 H 0.5606 0.57464 0.00065 0.0
H3395 H 0.56109 0.6105 0.01409 0.0
C3396 C 0.62079 0.70664 0.9879 0.0
C3397 C 0.63622 0.70384 0.00274 0.0
C3398 C 0.60098 0.69919 0.99072 0.0
C3399 C 0.59623 0.6884 0.00827 0.0
C3400 C 0.61155 0.68577 0.02339 0.0
C3401 C 0.63156 0.69354 0.02065 0.0
C3402 C 0.57633 0.67654 0.008 0.0
C3403 C 0.57547 0.65545 0.00207 0.0
C3404 C 0.55831 0.68677 0.0073 0.0
C3405 C 0.55735 0.70876 0.01308 0.0
C3406 C 0.55204 0.71399 0.03269 0.0
C3407 C 0.54666 0.73396 0.03707 0.0
C3408 C 0.5466 0.74882 0.02195 0.0
C3409 C 0.5517 0.74368 0.00236 0.0
C3410 C 0.55696 0.72372 0.99789 0.0
C3411 C 0.48848 0.63497 0.97362 0.0
C3412 C 0.48322 0.65053 0.96022 0.0
C3413 C 0.50841 0.63492 0.98168 0.0
C3414 C 0.52299 0.6502 0.97591 0.0
C3415 C 0.5182 0.66352 0.96006 0.0
C3416 C 0.49823 0.66417 0.95275 0.0
C3417 C 0.54055 0.65681 0.98974 0.0
C3418 C 0.54056 0.67651 0.99872 0.0
C3419 C 0.55769 0.6455 0.99256 0.0
C3420 C 0.55778 0.62409 0.98445 0.0
C3421 C 0.55589 0.61997 0.96342 0.0
C3422 C 0.55579 0.59964 0.95594 0.0
C3423 C 0.55739 0.58331 0.96935 0.0
C3424 C 0.55933 0.5873 0.99028 0.0
C3425 C 0.55964 0.60763 0.99783 0.0
H3426 H 0.55721 0.56757 0.96353 0.0
H3427 H 0.54242 0.76425 0.02535 0.0
H3428 H 0.6887 0.73446 0.56579 0.0
H3429 H 0.70308 0.70983 0.58998 0.0
H3430 H 0.64754 0.67028 0.58174 0.0
H3431 H 0.63248 0.69579 0.5609 0.0
H3432 H 0.65923 0.68694 0.62208 0.0
H3433 H 0.688 0.65038 0.56052 0.0
H3434 H 0.71467 0.65205 0.53581 0.0
H3435 H 0.75985 0.66853 0.5839 0.0
H3436 H 0.7334 0.66685 0.60883 0.0
H3437 H 0.66297 0.56514 0.62531 0.0
H3438 H 0.66757 0.59802 0.60736 0.0
H3439 H 0.66487 0.63168 0.66401 0.0
H3440 H 0.6604 0.59897 0.68175 0.0
H3441 H 0.69767 0.62619 0.6097 0.0
H3442 H 0.64255 0.66896 0.66029 0.0
H3443 H 0.60679 0.67702 0.65956 0.0
H3444 H 0.59607 0.64833 0.60043 0.0
H3445 H 0.63154 0.63959 0.6011 0.0
C3446 C 0.67941 0.72097 0.57015 0.0
C3447 C 0.65895 0.71786 0.56299 0.0
C3448 C 0.68786 0.70659 0.58324 0.0
C3449 C 0.67621 0.68842 0.5879 0.0
C3450 C 0.65666 0.68441 0.5787 0.0
C3451 C 0.64798 0.69912 0.56691 0.0
C3452 C 0.68177 0.67471 0.60462 0.0
C3453 C 0.6683 0.67391 0.62014 0.0
C3454 C 0.6931 0.65763 0.60135 0.0
C3455 C 0.70883 0.65849 0.58643 0.0
C3456 C 0.70364 0.65433 0.56576 0.0
C3457 C 0.71869 0.65528 0.55174 0.0
C3458 C 0.73894 0.66042 0.55828 0.0
C3459 C 0.74417 0.66456 0.57885 0.0
C3460 C 0.72917 0.66358 0.59292 0.0
C3461 C 0.6628 0.57962 0.63371 0.0
C3462 C 0.66093 0.57966 0.65477 0.0
C3463 C 0.66565 0.59837 0.62354 0.0
C3464 C 0.66667 0.61739 0.63434 0.0
C3465 C 0.66399 0.6173 0.65528 0.0
C3466 C 0.66147 0.59863 0.66543 0.0
C3467 C 0.67213 0.63731 0.62437 0.0
C3468 C 0.68882 0.63929 0.61202 0.0
C3469 C 0.66132 0.65483 0.62769 0.0
C3470 C 0.6395 0.65298 0.63111 0.0
C3471 C 0.63229 0.66343 0.64765 0.0
C3472 C 0.61214 0.66836 0.6471 0.0
C3473 C 0.59917 0.66313 0.63 0.0
C3474 C 0.60611 0.65237 0.61367 0.0
C3475 C 0.62611 0.64704 0.61432 0.0
H3476 H 0.58373 0.66744 0.62941 0.0
H3477 H 0.75056 0.66119 0.5474 0.0
H3478 H 0.43265 0.98448 0.33984 0.0
H3479 H 0.40285 0.99595 0.32252 0.0
H3480 H 0.43819 0.04912 0.30074 0.0
H3481 H 0.46674 0.04058 0.32343 0.0
H3482 H 0.40462 0.06056 0.30314 0.0
H3483 H 0.42071 -0.00024 0.26628 0.0
H3484 H 0.43105 0.96416 0.26262 0.0
H3485 H 0.38043 0.94082 0.29553 0.0
H3486 H 0.36963 0.97626 0.29914 0.0
H3487 H 0.3782 0.03395 0.20334 0.0
H3488 H 0.38909 0.04576 0.23743 0.0
H3489 H 0.3279 0.03474 0.25589 0.0
H3490 H 0.31631 0.02666 0.22015 0.0
H3491 H 0.36326 0.00503 0.26391 0.0
H3492 H 0.34459 0.07241 0.27851 0.0
H3493 H 0.33994 0.10896 0.27115 0.0
H3494 H 0.40404 0.1212 0.26629 0.0
H3495 H 0.40909 0.08471 0.27347 0.0
C3496 C 0.43421 0.99852 0.33116 0.0
C3497 C 0.45252 0.011 0.33191 0.0
C3498 C 0.41711 0.00494 0.32098 0.0
C3499 C 0.41835 0.02269 0.30913 0.0
C3500 C 0.43681 0.03508 0.3094 0.0
C3501 C 0.45353 0.0297 0.32148 0.0
C3502 C 0.40044 0.0277 0.29624 0.0
C3503 C 0.39563 0.0484 0.29444 0.0
C3504 C 0.38823 0.01189 0.28526 0.0
C3505 C 0.3944 0.99055 0.28299 0.0
C3506 C 0.41179 0.987 0.2727 0.0
C3507 C 0.41774 0.96692 0.27066 0.0
C3508 C 0.40651 0.95034 0.27899 0.0
C3509 C 0.38911 0.95371 0.28911 0.0
C3510 C 0.38298 0.97375 0.29102 0.0
C3511 C 0.36685 0.0346 0.21445 0.0
C3512 C 0.34658 0.02732 0.20971 0.0
C3513 C 0.37306 0.04187 0.23385 0.0
C3514 C 0.35935 0.04092 0.24919 0.0
C3515 C 0.33871 0.03555 0.2442 0.0
C3516 C 0.33226 0.02971 0.22418 0.0
C3517 C 0.36821 0.03766 0.26964 0.0
C3518 C 0.37151 0.01701 0.27334 0.0
C3519 C 0.38003 0.05366 0.28061 0.0
C3520 C 0.3772 0.07577 0.27661 0.0
C3521 C 0.3577 0.08287 0.27583 0.0
C3522 C 0.355 0.1036 0.2717 0.0
C3523 C 0.37169 0.1174 0.26827 0.0
C3524 C 0.39113 0.11051 0.26902 0.0
C3525 C 0.39392 0.08981 0.27321 0.0
H3526 H 0.36955 0.13343 0.26503 0.0
H3527 H 0.41133 0.93493 0.27758 0.0
H3528 H 0.36345 0.33345 0.63757 0.0
H3529 H 0.33561 0.3135 0.61911 0.0
H3530 H 0.33808 0.35755 0.57072 0.0
H3531 H 0.36339 0.37956 0.59126 0.0
H3532 H 0.30316 0.34695 0.57266 0.0
H3533 H 0.35104 0.28649 0.558 0.0
H3534 H 0.37537 0.26146 0.56895 0.0
H3535 H 0.34648 0.25391 0.62518 0.0
H3536 H 0.32177 0.27862 0.61425 0.0
H3537 H 0.29261 0.26918 0.48976 0.0
H3538 H 0.30556 0.29435 0.51659 0.0
H3539 H 0.25482 0.27579 0.55208 0.0
H3540 H 0.24112 0.2518 0.52469 0.0
H3541 H 0.30591 0.27157 0.56177 0.0
H3542 H 0.24871 0.3138 0.55294 0.0
H3543 H 0.22521 0.33241 0.53098 0.0
H3544 H 0.27529 0.3708 0.51007 0.0
H3545 H 0.29912 0.35216 0.53167 0.0
C3546 C 0.35809 0.33875 0.62288 0.0
C3547 C 0.36635 0.3574 0.61513 0.0
C3548 C 0.34248 0.32696 0.61205 0.0
C3549 C 0.33548 0.33303 0.5928 0.0
C3550 C 0.34335 0.35214 0.58538 0.0
C3551 C 0.35819 0.36454 0.5968 0.0
C3552 C 0.31934 0.32021 0.58075 0.0
C3553 C 0.30392 0.33043 0.57038 0.0
C3554 C 0.3195 0.29839 0.57808 0.0
C3555 C 0.33573 0.28582 0.58608 0.0
C3556 C 0.35039 0.28008 0.57301 0.0
C3557 C 0.364 0.26564 0.57904 0.0
C3558 C 0.36282 0.2565 0.59799 0.0
C3559 C 0.34774 0.26143 0.61074 0.0
C3560 C 0.33397 0.2757 0.60464 0.0
C3561 C 0.28422 0.27072 0.50323 0.0
C3562 C 0.26657 0.25799 0.50589 0.0
C3563 C 0.29136 0.2852 0.51828 0.0
C3564 C 0.28083 0.28702 0.53595 0.0
C3565 C 0.26281 0.27481 0.53829 0.0
C3566 C 0.25543 0.26072 0.52302 0.0
C3567 C 0.29102 0.29843 0.55335 0.0
C3568 C 0.30502 0.28793 0.56477 0.0
C3569 C 0.29003 0.31982 0.5563 0.0
C3570 C 0.27569 0.33147 0.54381 0.0
C3571 C 0.25472 0.32609 0.54354 0.0
C3572 C 0.24134 0.33667 0.53119 0.0
C3573 C 0.24875 0.35275 0.51911 0.0
C3574 C 0.26957 0.35834 0.51944 0.0
C3575 C 0.28301 0.3478 0.53176 0.0
H3576 H 0.23838 0.3609 0.50953 0.0
H3577 H 0.37336 0.24533 0.60264 0.0
H3578 H 0.75553 0.00725 0.2034 0.0
H3579 H 0.77182 -0.00063 0.17225 0.0
H3580 H 0.78177 0.93844 0.19387 0.0
H3581 H 0.76516 0.94628 0.22531 0.0
H3582 H 0.81696 0.98084 0.18198 0.0
H3583 H 0.77342 0.92006 0.15686 0.0
H3584 H 0.7438 0.89726 0.14365 0.0
H3585 H 0.72247 0.94697 0.10822 0.0
H3586 H 0.75229 0.96987 0.12084 0.0
H3587 H 0.872 0.96441 0.09108 0.0
H3588 H 0.85541 0.96178 0.12342 0.0
H3589 H 0.80355 0.98908 0.09576 0.0
H3590 H 0.81935 0.98963 0.06333 0.0
H3591 H 0.79151 0.95616 0.11308 0.0
H3592 H 0.84169 0.01431 0.13659 0.0
H3593 H 0.87629 0.03022 0.1458 0.0
H3594 H 0.88819 0.97914 0.18379 0.0
H3595 H 0.85362 0.96315 0.17544 0.0
C3596 C 0.76051 0.99189 0.2012 0.0
C3597 C 0.7587 0.97721 0.21654 0.0
C3598 C 0.76975 0.98739 0.18337 0.0
C3599 C 0.77774 0.96825 0.18059 0.0
C3600 C 0.77534 0.95316 0.19554 0.0
C3601 C 0.76583 0.95762 0.21344 0.0
C3602 C 0.79155 0.96613 0.16393 0.0
C3603 C 0.81154 0.97513 0.16692 0.0
C3604 C 0.78455 0.95875 0.14436 0.0
C3605 C 0.76479 0.94678 0.14015 0.0
C3606 C 0.76213 0.92626 0.14666 0.0
C3607 C 0.74551 0.91321 0.13899 0.0
C3608 C 0.73127 0.92064 0.12508 0.0
C3609 C 0.73352 0.94121 0.11897 0.0
C3610 C 0.75027 0.95422 0.12637 0.0
C3611 C 0.85728 0.9703 0.09222 0.0
C3612 C 0.84732 0.97831 0.0751 0.0
C3613 C 0.84784 0.96892 0.1107 0.0
C3614 C 0.82831 0.97561 0.11229 0.0
C3615 C 0.81868 0.98401 0.09514 0.0
C3616 C 0.82788 0.98485 0.07668 0.0
C3617 C 0.81668 0.97188 0.13077 0.0
C3618 C 0.79709 0.96186 0.1281 0.0
C3619 C 0.82429 0.97788 0.15069 0.0
C3620 C 0.84517 0.98742 0.15519 0.0
C3621 C 0.85175 0.00639 0.14677 0.0
C3622 C 0.87131 0.01543 0.15183 0.0
C3623 C 0.88447 0.00557 0.16503 0.0
C3624 C 0.87803 0.98672 0.17346 0.0
C3625 C 0.85843 0.97773 0.16868 0.0
H3626 H 0.8996 0.01262 0.16885 0.0
H3627 H 0.71842 0.9105 0.11916 0.0
H3628 H 0.73467 0.16596 0.04969 0.0
H3629 H 0.75071 0.13731 0.03485 0.0
H3630 H 0.70978 0.13885 0.98158 0.0
H3631 H 0.69638 0.16931 0.9955 0.0
H3632 H 0.71996 0.10417 0.03215 0.0
H3633 H 0.71459 0.1094 0.9647 0.0
H3634 H 0.71429 0.12025 0.92918 0.0
H3635 H 0.77923 0.12391 0.93164 0.0
H3636 H 0.77991 0.11353 0.96717 0.0
H3637 H 0.78652 0.99197 0.03175 0.0
H3638 H 0.76104 0.01439 0.02877 0.0
H3639 H 0.78178 0.03784 0.99656 0.0
H3640 H 0.81161 0.01212 0.97733 0.0
H3641 H 0.77084 0.10749 0.01145 0.0
H3642 H 0.76816 0.09754 0.05769 0.0
H3643 H 0.76771 0.08608 0.09322 0.0
H3644 H 0.71452 0.0453 0.07786 0.0
H3645 H 0.71406 0.05735 0.04255 0.0
C3646 C 0.73041 0.16133 0.03407 0.0
C3647 C 0.71261 0.1677 0.02458 0.0
C3648 C 0.73911 0.14443 0.0258 0.0
C3649 C 0.73033 0.13463 0.00776 0.0
C3650 C 0.7165 0.14521 0.99581 0.0
C3651 C 0.70894 0.16299 0.00378 0.0
C3652 C 0.73316 0.11234 0.00437 0.0
C3653 C 0.73026 0.09951 0.02101 0.0
C3654 C 0.74739 0.10662 0.99123 0.0
C3655 C 0.74733 0.11241 0.96946 0.0
C3656 C 0.72886 0.11345 0.95804 0.0
C3657 C 0.7286 0.11921 0.9377 0.0
C3658 C 0.74675 0.12336 0.9283 0.0
C3659 C 0.76517 0.12125 0.93909 0.0
C3660 C 0.76547 0.11553 0.95942 0.0
C3661 C 0.78666 0.00255 0.01918 0.0
C3662 C 0.80263 0.00378 0.00671 0.0
C3663 C 0.77246 0.01701 0.01777 0.0
C3664 C 0.77623 0.03783 0.00423 0.0
C3665 C 0.79013 0.03201 0.98728 0.0
C3666 C 0.80162 0.0151 0.98911 0.0
C3667 C 0.75915 0.07706 0.01125 0.0
C3668 C 0.76304 0.09655 0.00058 0.0
C3669 C 0.74305 0.08333 0.02552 0.0
C3670 C 0.74156 0.07771 0.04734 0.0
C3671 C 0.75626 0.0863 0.062 0.0
C3672 C 0.75614 0.07972 0.08208 0.0
C3673 C 0.74129 0.06472 0.08771 0.0
C3674 C 0.72619 0.0567 0.0734 0.0
C3675 C 0.72595 0.06357 0.05341 0.0
H3676 H 0.74132 0.05951 0.10321 0.0
H3677 H 0.74653 0.1278 0.91256 0.0
H3678 H 0.51239 0.31541 0.21507 0.0
H3679 H 0.49901 0.34171 0.19294 0.0
H3680 H 0.48995 0.37941 0.24553 0.0
H3681 H 0.50321 0.35315 0.26761 0.0
H3682 H 0.46412 0.37717 0.19309 0.0
H3683 H 0.53368 0.41603 0.23829 0.0
H3684 H 0.56803 0.41134 0.25265 0.0
H3685 H 0.57012 0.35694 0.21507 0.0
H3686 H 0.53636 0.36228 0.19932 0.0
H3687 H 0.50221 0.48814 0.20853 0.0
H3688 H 0.49045 0.45167 0.21271 0.0
H3689 H 0.50706 0.43743 0.15213 0.0
H3690 H 0.5172 0.47412 0.14735 0.0
H3691 H 0.52701 0.42418 0.19986 0.0
H3692 H 0.47526 0.41543 0.14474 0.0
H3693 H 0.44589 0.42822 0.12562 0.0
H3694 H 0.41216 0.42522 0.17924 0.0
H3695 H 0.44152 0.4127 0.19874 0.0
C3696 C 0.50617 0.32865 0.22188 0.0
C3697 C 0.50864 0.33239 0.24291 0.0
C3698 C 0.49857 0.34365 0.20924 0.0
C3699 C 0.49373 0.36247 0.21769 0.0
C3700 C 0.49352 0.36487 0.23883 0.0
C3701 C 0.50104 0.34987 0.25143 0.0
C3702 C 0.4951 0.38124 0.2055 0.0
C3703 C 0.47798 0.38731 0.19421 0.0
C3704 C 0.51325 0.39437 0.20684 0.0
C3705 C 0.5322 0.3892 0.21803 0.0
C3706 C 0.54134 0.40289 0.23328 0.0
C3707 C 0.56085 0.40032 0.24143 0.0
C3708 C 0.57119 0.38373 0.23491 0.0
C3709 C 0.56203 0.36972 0.22018 0.0
C3710 C 0.54271 0.37256 0.21155 0.0
C3711 C 0.503 0.47721 0.19606 0.0
C3712 C 0.51164 0.48346 0.17808 0.0
C3713 C 0.49595 0.45659 0.19827 0.0
C3714 C 0.49748 0.44209 0.18252 0.0
C3715 C 0.50522 0.44853 0.16419 0.0
C3716 C 0.51174 0.46927 0.1618 0.0
C3717 C 0.49641 0.42014 0.18755 0.0
C3718 C 0.51352 0.41362 0.19791 0.0
C3719 C 0.47859 0.40677 0.18494 0.0
C3720 C 0.46059 0.41327 0.1732 0.0
C3721 C 0.46161 0.41761 0.15246 0.0
C3722 C 0.44498 0.4248 0.14156 0.0
C3723 C 0.42719 0.42762 0.15123 0.0
C3724 C 0.42597 0.42308 0.17178 0.0
C3725 C 0.44258 0.41588 0.18276 0.0
H3726 H 0.41435 0.43327 0.1428 0.0
H3727 H 0.58632 0.38177 0.24125 0.0
H3728 H 0.49912 0.13627 0.80024 0.0
H3729 H 0.46733 0.11549 0.80257 0.0
H3730 H 0.43717 0.16074 0.76686 0.0
H3731 H 0.46796 0.18368 0.77 0.0
H3732 H 0.41465 0.15358 0.79106 0.0
H3733 H 0.45011 0.09703 0.75642 0.0
H3734 H 0.47872 0.0748 0.75703 0.0
H3735 H 0.46524 0.05502 0.81689 0.0
H3736 H 0.43662 0.07706 0.81661 0.0
H3737 H 0.32927 0.06817 0.76771 0.0
H3738 H 0.35917 0.09213 0.76209 0.0
H3739 H 0.37423 0.09541 0.82651 0.0
H3740 H 0.34488 0.07155 0.83204 0.0
H3741 H 0.40226 0.07725 0.78898 0.0
H3742 H 0.37608 0.13724 0.82687 0.0
H3743 H 0.35351 0.16497 0.83277 0.0
H3744 H 0.35194 0.17906 0.76936 0.0
H3745 H 0.37466 0.15154 0.76321 0.0
C3746 C 0.48529 0.14212 0.79413 0.0
C3747 C 0.4854 0.16236 0.78715 0.0
C3748 C 0.46709 0.12967 0.79432 0.0
C3749 C 0.44906 0.13626 0.7851 0.0
C3750 C 0.45025 0.1554 0.77517 0.0
C3751 C 0.46799 0.16853 0.77672 0.0
C3752 C 0.42865 0.12483 0.78707 0.0
C3753 C 0.41218 0.13686 0.78969 0.0
C3754 C 0.42494 0.10287 0.78709 0.0
C3755 C 0.44125 0.08864 0.78645 0.0
C3756 C 0.45317 0.08778 0.7696 0.0
C3757 C 0.46941 0.07526 0.76993 0.0
C3758 C 0.47379 0.06351 0.78698 0.0
C3759 C 0.46181 0.06407 0.80367 0.0
C3760 C 0.44553 0.07648 0.8034 0.0
C3761 C 0.3384 0.0749 0.78066 0.0
C3762 C 0.33409 0.069 0.80042 0.0
C3763 C 0.35553 0.0884 0.77746 0.0
C3764 C 0.36862 0.09584 0.79397 0.0
C3765 C 0.36401 0.09034 0.81366 0.0
C3766 C 0.34708 0.07689 0.81681 0.0
C3767 C 0.38878 0.10626 0.79077 0.0
C3768 C 0.40506 0.09398 0.78883 0.0
C3769 C 0.39249 0.12793 0.79142 0.0
C3770 C 0.37651 0.14201 0.79451 0.0
C3771 C 0.37052 0.14596 0.81415 0.0
C3772 C 0.35796 0.16183 0.81758 0.0
C3773 C 0.35121 0.17371 0.80143 0.0
C3774 C 0.35706 0.16978 0.78183 0.0
C3775 C 0.36974 0.15404 0.77836 0.0
H3776 H 0.34149 0.18598 0.80411 0.0
H3777 H 0.48645 0.05397 0.78726 0.0
H3778 H 0.80676 0.4588 0.1771 0.0
H3779 H 0.82619 0.43689 0.19967 0.0
H3780 H 0.8798 0.45345 0.16772 0.0
H3781 H 0.86089 0.47551 0.14561 0.0
H3782 H 0.84725 0.40299 0.17898 0.0
H3783 H 0.91189 0.45709 0.19183 0.0
H3784 H 0.92416 0.49299 0.20198 0.0
H3785 H 0.88237 0.49185 0.24934 0.0
H3786 H 0.86954 0.45607 0.23906 0.0
H3787 H 0.9591 0.38553 0.20783 0.0
H3788 H 0.93078 0.40623 0.20051 0.0
H3789 H 0.89015 0.35626 0.22067 0.0
H3790 H 0.91832 0.3341 0.22344 0.0
H3791 H 0.90856 0.42105 0.22433 0.0
H3792 H 0.85398 0.35658 0.20948 0.0
H3793 H 0.84735 0.3222 0.19255 0.0
H3794 H 0.8741 0.34579 0.13911 0.0
H3795 H 0.88187 0.38011 0.15618 0.0
C3796 C 0.82287 0.45842 0.17543 0.0
C3797 C 0.83224 0.46878 0.15944 0.0
C3798 C 0.8339 0.4458 0.18825 0.0
C3799 C 0.85443 0.4437 0.18542 0.0
C3800 C 0.86408 0.4552 0.17046 0.0
C3801 C 0.85317 0.46774 0.15772 0.0
C3802 C 0.8653 0.42745 0.19573 0.0
C3803 C 0.86036 0.40675 0.18938 0.0
C3804 C 0.88268 0.43248 0.20871 0.0
C3805 C 0.88961 0.45413 0.21455 0.0
C3806 C 0.90522 0.46462 0.20429 0.0
C3807 C 0.91225 0.48491 0.21003 0.0
C3808 C 0.90401 0.49472 0.22626 0.0
C3809 C 0.88864 0.48427 0.23669 0.0
C3810 C 0.88137 0.46404 0.23082 0.0
C3811 C 0.94391 0.37843 0.20879 0.0
C3812 C 0.94062 0.35773 0.21408 0.0
C3813 C 0.92771 0.39049 0.20548 0.0
C3814 C 0.90792 0.38263 0.2092 0.0
C3815 C 0.90482 0.36231 0.21621 0.0
C3816 C 0.92102 0.34979 0.21823 0.0
C3817 C 0.89126 0.39656 0.20676 0.0
C3818 C 0.895 0.41689 0.21465 0.0
C3819 C 0.87334 0.39127 0.19438 0.0
C3820 C 0.86902 0.37065 0.18429 0.0
C3821 C 0.85872 0.35433 0.19423 0.0
C3822 C 0.85487 0.33486 0.18466 0.0
C3823 C 0.86061 0.33176 0.16488 0.0
C3824 C 0.87008 0.34816 0.15458 0.0
C3825 C 0.8744 0.36754 0.16427 0.0
H3826 H 0.85756 0.31672 0.15748 0.0
H3827 H 0.90956 0.51038 0.23079 0.0
H3828 H 0.97122 0.04495 0.81701 0.0
H3829 H 0.96472 0.08103 0.81423 0.0
H3830 H 0.01981 0.09914 0.85026 0.0
H3831 H 0.02685 0.06247 0.85297 0.0
H3832 H 0.97044 0.11939 0.85097 0.0
H3833 H 0.03431 0.11163 0.81693 0.0
H3834 H 0.05603 0.09158 0.79631 0.0
H3835 H 0.00881 0.08401 0.74882 0.0
H3836 H 0.98668 0.10369 0.76933 0.0
H3837 H 0.99813 0.21401 0.79406 0.0
H3838 H 0.99252 0.18767 0.81911 0.0
H3839 H 0.94595 0.1561 0.77914 0.0
H3840 H 0.95016 0.18405 0.75521 0.0
H3841 H 0.99309 0.14408 0.78461 0.0
H3842 H 0.93025 0.1507 0.81479 0.0
H3843 H 0.90451 0.16702 0.83361 0.0
H3844 H 0.94599 0.17487 0.88611 0.0
H3845 H 0.97206 0.15871 0.86751 0.0
C3846 C 0.98194 0.05646 0.8246 0.0
C3847 C -0.00023 0.05088 0.83485 0.0
C3848 C 0.97804 0.07707 0.82316 0.0
C3849 C 0.99182 0.09255 0.83195 0.0
C3850 C 0.00903 0.08721 0.84343 0.0
C3851 C 0.01303 0.06635 0.84489 0.0
C3852 C 0.98914 0.11393 0.82613 0.0
C3853 C 0.97592 0.12529 0.83684 0.0
C3854 C 0.99546 0.12079 0.80714 0.0
C3855 C 0.00874 0.10887 0.79481 0.0
C3856 C 0.02847 0.10545 0.80221 0.0
C3857 C 0.04088 0.09421 0.79051 0.0
C3858 C 0.03378 0.08646 0.7713 0.0
C3859 C 0.01427 0.08997 0.76372 0.0
C3860 C 0.00179 0.10116 0.77539 0.0
C3861 C 0.98614 0.20186 0.79067 0.0
C3862 C 0.97627 0.19948 0.77107 0.0
C3863 C 0.98274 0.18699 0.80533 0.0
C3864 C 0.96947 0.16953 0.80061 0.0
C3865 C 0.95675 0.16926 0.78286 0.0
C3866 C 0.95974 0.18472 0.76854 0.0
C3867 C 0.97457 0.14986 0.80956 0.0
C3868 C 0.98812 0.13869 0.79914 0.0
C3869 C 0.96843 0.14326 0.82867 0.0
C3870 C 0.95322 0.15385 0.83963 0.0
C3871 C 0.93401 0.15623 0.83023 0.0
C3872 C 0.91931 0.16533 0.8409 0.0
C3873 C 0.92364 0.17207 0.86102 0.0
C3874 C 0.94268 0.1697 0.87051 0.0
C3875 C 0.95742 0.16055 0.85991 0.0
H3876 H 0.91222 0.17906 0.86927 0.0
H3877 H 0.04342 0.0778 0.76225 0.0
H3878 H 0.48928 0.82872 0.84474 0.0
H3879 H 0.46884 0.79906 0.85705 0.0
H3880 H 0.44212 0.78628 0.79642 0.0
H3881 H 0.46424 0.81521 0.78367 0.0
H3882 H 0.41825 0.78179 0.8378 0.0
H3883 H 0.48345 0.77816 0.80624 0.0
H3884 H 0.54481 0.77554 0.80784 0.0
H3885 H 0.53033 0.73026 0.86196 0.0
H3886 H 0.49189 0.73314 0.86281 0.0
H3887 H 0.40327 0.68171 0.88801 0.0
H3888 H 0.40479 0.70825 0.86219 0.0
H3889 H 0.45715 0.73868 0.89542 0.0
H3890 H 0.45471 0.7123 0.92157 0.0
H3891 H 0.4613 0.72477 0.85363 0.0
H3892 H 0.42137 0.76476 0.89535 0.0
H3893 H 0.39188 0.77223 0.91447 0.0
H3894 H 0.35278 0.76088 0.86059 0.0
H3895 H 0.38213 0.75318 0.84116 0.0
C3896 C 0.47926 0.81932 0.83406 0.0
C3897 C 0.47953 0.82245 0.81317 0.0
C3898 C 0.46741 0.8028 0.84111 0.0
C3899 C 0.45511 0.79013 0.82731 0.0
C3900 C 0.45227 0.79571 0.80695 0.0
C3901 C 0.4651 0.81171 0.79968 0.0
C3902 C 0.44739 0.7701 0.83419 0.0
C3903 C 0.42772 0.7692 0.84106 0.0
C3904 C 0.46069 0.75442 0.83913 0.0
C3905 C 0.48317 0.75565 0.83537 0.0
C3906 C 0.49334 0.77095 0.81691 0.0
C3907 C 0.53321 0.76837 0.8172 0.0
C3908 C 0.54064 0.75213 0.83552 0.0
C3909 C 0.52396 0.74011 0.85061 0.0
C3910 C 0.49853 0.74169 0.85065 0.0
C3911 C 0.41451 0.69431 0.88994 0.0
C3912 C 0.4286 0.69501 0.90651 0.0
C3913 C 0.41548 0.70944 0.8753 0.0
C3914 C 0.43115 0.72516 0.87699 0.0
C3915 C 0.44492 0.7265 0.89403 0.0
C3916 C 0.44349 0.71159 0.90891 0.0
C3917 C 0.43466 0.73908 0.86017 0.0
C3918 C 0.45279 0.73801 0.85058 0.0
C3919 C 0.42174 0.75459 0.85524 0.0
C3920 C 0.40385 0.75799 0.86692 0.0
C3921 C 0.40643 0.76351 0.88766 0.0
C3922 C 0.38978 0.76791 0.89852 0.0
C3923 C 0.37045 0.76693 0.88877 0.0
C3924 C 0.36776 0.76154 0.86813 0.0
C3925 C 0.3844 0.75715 0.85718 0.0
H3926 H 0.35758 0.77043 0.89718 0.0
H3927 H 0.5565 0.74944 0.83761 0.0
H3928 H 0.28091 0.5214 0.24442 0.0
H3929 H 0.29708 0.54315 0.27242 0.0
H3930 H 0.28906 0.49207 0.31313 0.0
H3931 H 0.27318 0.47002 0.28484 0.0
H3932 H 0.26966 0.53401 0.31857 0.0
H3933 H 0.33335 0.50324 0.30844 0.0
H3934 H 0.35894 0.49379 0.28503 0.0
H3935 H 0.37058 0.55767 0.26988 0.0
H3936 H 0.34492 0.56747 0.29306 0.0
H3937 H 0.33504 0.57818 0.40702 0.0
H3938 H 0.33185 0.55711 0.37557 0.0
H3939 H 0.29741 0.6034 0.34697 0.0
H3940 H 0.29582 0.62097 0.3793 0.0
H3941 H 0.34031 0.56307 0.33467 0.0
H3942 H 0.27178 0.58966 0.319 0.0
H3943 H 0.24197 0.60635 0.33001 0.0
H3944 H 0.23554 0.56275 0.37769 0.0
H3945 H 0.26519 0.54556 0.36681 0.0
C3946 C 0.28269 0.51489 0.25938 0.0
C3947 C 0.27547 0.49445 0.26294 0.0
C3948 C 0.29223 0.52711 0.27513 0.0
C3949 C 0.29458 0.51891 0.29451 0.0
C3950 C 0.28768 0.49833 0.29804 0.0
C3951 C 0.27843 0.48595 0.28212 0.0
C3952 C 0.30071 0.53306 0.31156 0.0
C3953 C 0.28505 0.54039 0.32203 0.0
C3954 C 0.32078 0.54183 0.31528 0.0
C3955 C 0.33723 0.53609 0.30252 0.0
C3956 C 0.3414 0.51527 0.30015 0.0
C3957 C 0.3559 0.50985 0.2869 0.0
C3958 C 0.36638 0.52511 0.27597 0.0
C3959 C 0.36249 0.54586 0.27839 0.0
C3960 C 0.34803 0.55137 0.29165 0.0
C3961 C 0.32518 0.58259 0.39456 0.0
C3962 C 0.31378 0.59974 0.39634 0.0
C3963 C 0.32428 0.57128 0.37628 0.0
C3964 C 0.31335 0.57813 0.35917 0.0
C3965 C 0.30444 0.59688 0.36029 0.0
C3966 C 0.30375 0.607 0.37884 0.0
C3967 C 0.30892 0.56434 0.34128 0.0
C3968 C 0.32484 0.5569 0.33086 0.0
C3969 C 0.28871 0.55686 0.33576 0.0
C3970 C 0.27099 0.56682 0.34262 0.0
C3971 C 0.26402 0.58373 0.33196 0.0
C3972 C 0.24713 0.59319 0.3381 0.0
C3973 C 0.23688 0.58558 0.35464 0.0
C3974 C 0.24349 0.56849 0.36495 0.0
C3975 C 0.26039 0.55897 0.3589 0.0
H3976 H 0.22378 0.59285 0.35945 0.0
H3977 H 0.3775 0.52087 0.26562 0.0
H3978 H 0.59489 0.78691 0.58599 0.0
H3979 H 0.56305 0.7822 0.60255 0.0
H3980 H 0.53998 0.73676 0.55682 0.0
H3981 H 0.57209 0.74114 0.54007 0.0
H3982 H 0.5095 0.76591 0.57427 0.0
H3983 H 0.55824 0.71555 0.59278 0.0
H3984 H 0.58932 0.70103 0.60654 0.0
H3985 H 0.58881 0.73869 0.66063 0.0
H3986 H 0.55807 0.75386 0.64691 0.0
H3987 H 0.47549 0.68266 0.6506 0.0
H3988 H 0.49339 0.69989 0.62375 0.0
H3989 H 0.47145 0.75803 0.64147 0.0
H3990 H 0.45114 0.7399 0.66686 0.0
H3991 H 0.52288 0.72788 0.6375 0.0
H3992 H 0.47583 0.78313 0.61483 0.0
H3993 H 0.44222 0.79316 0.60247 0.0
H3994 H 0.43766 0.7439 0.55766 0.0
H3995 H 0.47112 0.73341 0.57007 0.0
C3996 C 0.58297 0.77618 0.57911 0.0
C3997 C 0.58625 0.76411 0.56184 0.0
C3998 C 0.56469 0.77364 0.58858 0.0
C3999 C 0.54921 0.75911 0.58095 0.0
C4000 C 0.55172 0.74818 0.56284 0.0
C4001 C 0.57013 0.75063 0.55335 0.0
C4002 C 0.53222 0.75295 0.59378 0.0
C4003 C 0.51235 0.75765 0.58817 0.0
C4004 C 0.53592 0.74257 0.61207 0.0
C4005 C 0.55605 0.736 0.61873 0.0
C4006 C 0.56508 0.72114 0.60735 0.0
C4007 C 0.58252 0.71265 0.61524 0.0
C4008 C 0.59086 0.71878 0.63456 0.0
C4009 C 0.58225 0.73391 0.64573 0.0
C4010 C 0.5649 0.74251 0.63787 0.0
C4011 C 0.47427 0.6991 0.64865 0.0
C4012 C 0.4632 0.71032 0.66184 0.0
C4013 C 0.48427 0.7089 0.63308 0.0
C4014 C 0.48401 0.73036 0.63054 0.0
C4015 C 0.47179 0.74146 0.64279 0.0
C4016 C 0.46089 0.73129 0.65792 0.0
C4017 C 0.49993 0.74073 0.61836 0.0
C4018 C 0.51988 0.73676 0.62403 0.0
C4019 C 0.49613 0.7518 0.6004 0.0
C4020 C 0.47562 0.75715 0.59374 0.0
C4021 C 0.46744 0.7742 0.60262 0.0
C4022 C 0.44849 0.78003 0.59554 0.0
C4023 C 0.43774 0.76908 0.57938 0.0
C4024 C 0.44592 0.75227 0.57028 0.0
C4025 C 0.46484 0.74633 0.57739 0.0
H4026 H 0.42313 0.77369 0.57384 0.0
H4027 H 0.60398 0.7118 0.64097 0.0
H4028 H 0.78263 0.85477 0.5286 0.0
H4029 H 0.77711 0.87649 0.55809 0.0
H4030 H 0.84097 0.89575 0.56412 0.0
H4031 H 0.84651 0.87401 0.53445 0.0
H4032 H 0.80086 0.86442 0.59508 0.0
H4033 H 0.84437 0.93355 0.57997 0.0
H4034 H 0.85185 0.96405 0.55886 0.0
H4035 H 0.78822 0.96771 0.54489 0.0
H4036 H 0.78043 0.93719 0.56593 0.0
H4037 H 0.81942 0.94672 0.68162 0.0
H4038 H 0.82656 0.92598 0.65187 0.0
H4039 H 0.76258 0.90964 0.64016 0.0
H4040 H 0.75546 0.92964 0.67032 0.0
H4041 H 0.80445 0.93936 0.61273 0.0
H4042 H 0.76166 0.87283 0.63249 0.0
H4043 H 0.75553 0.84662 0.65867 0.0
H4044 H 0.81923 0.83873 0.66496 0.0
H4045 H 0.82571 0.86522 0.63909 0.0
C4046 C 0.79531 0.86438 0.5357 0.0
C4047 C 0.81491 0.86308 0.52917 0.0
C4048 C 0.79216 0.87674 0.55251 0.0
C4049 C 0.80862 0.88772 0.5632 0.0
C4050 C 0.82804 0.88767 0.55582 0.0
C4051 C 0.83119 0.87532 0.53888 0.0
C4052 C 0.80596 0.89547 0.58393 0.0
C4053 C 0.80158 0.88083 0.59891 0.0
C4054 C 0.80726 0.91675 0.58904 0.0
C4055 C 0.81188 0.933 0.57421 0.0
C4056 C 0.83203 0.94068 0.5721 0.0
C4057 C 0.8363 0.95808 0.56036 0.0
C4058 C 0.82049 0.96793 0.55072 0.0
C4059 C 0.80042 0.96011 0.55245 0.0
C4060 C 0.79608 0.94273 0.56421 0.0
C4061 C 0.80702 0.93788 0.6732 0.0
C4062 C 0.78695 0.93951 0.67825 0.0
C4063 C 0.81108 0.92613 0.65624 0.0
C4064 C 0.79511 0.91612 0.64404 0.0
C4065 C 0.77513 0.91672 0.64977 0.0
C4066 C 0.77108 0.92815 0.66697 0.0
C4067 C 0.799 0.90836 0.62366 0.0
C4068 C 0.80371 0.92296 0.60884 0.0
C4069 C 0.79807 0.88707 0.61873 0.0
C4070 C 0.79417 0.87116 0.63414 0.0
C4071 C 0.77435 0.86565 0.63964 0.0
C4072 C 0.77082 0.85074 0.65438 0.0
C4073 C 0.78699 0.84107 0.66353 0.0
C4074 C 0.80673 0.84628 0.65792 0.0
C4075 C 0.81034 0.86127 0.64326 0.0
H4076 H 0.78423 0.8295 0.67491 0.0
H4077 H 0.82382 0.98146 0.54172 0.0
H4078 H 0.02395 0.80178 0.00474 0.0
H4079 H 0.02638 0.77036 0.02474 0.0
H4080 H 0.97321 0.78427 0.05538 0.0
H4081 H 0.97135 0.8158 0.03607 0.0
H4082 H 0.00832 0.78321 0.08114 0.0
H4083 H 0.96987 0.73503 0.02707 0.0
H4084 H 0.96645 0.72129 0.99174 0.0
H4085 H 0.02962 0.71064 0.99472 0.0
H4086 H 0.03333 0.72454 0.02993 0.0
H4087 H 0.98581 0.66892 0.11103 0.0
H4088 H 0.97922 0.70343 0.09965 0.0
H4089 H 0.04235 0.72377 0.11156 0.0
H4090 H 0.04889 0.6893 0.12323 0.0
H4091 H 0.00592 0.70815 0.06444 0.0
H4092 H 0.04514 0.77259 0.10921 0.0
H4093 H 0.05307 0.78407 0.14488 0.0
H4094 H 0.99308 0.76206 0.15992 0.0
H4095 H 0.98491 0.75033 0.12434 0.0
C4096 C 0.01238 0.79759 0.0152 0.0
C4097 C 0.99769 0.81125 0.01931 0.0
C4098 C 0.01378 0.77972 0.02661 0.0
C4099 C 0.00012 0.77527 0.04171 0.0
C4100 C 0.98404 0.78768 0.04397 0.0
C4101 C 0.98293 0.80565 0.03293 0.0
C4102 C 0.00406 0.75981 0.0572 0.0
C4103 C 0.00761 0.76677 0.0775 0.0
C4104 C 0.00408 0.73857 0.05233 0.0
C4105 C 0.00184 0.73061 0.0311 0.0
C4106 C 0.98299 0.72976 0.02013 0.0
C4107 C 0.98101 0.72197 0.00014 0.0
C4108 C 0.99779 0.71505 0.991 0.0
C4109 C 0.0166 0.71593 0.00182 0.0
C4110 C 0.01864 0.72368 0.0218 0.0
C4111 C 0.99792 0.6812 0.1128 0.0
C4112 C 0.01794 0.67646 0.11724 0.0
C4113 C 0.99421 0.70085 0.10602 0.0
C4114 C 0.01046 0.71576 0.10414 0.0
C4115 C 0.02967 0.71232 0.1128 0.0
C4116 C 0.03334 0.69265 0.11973 0.0
C4117 C 0.00862 0.73146 0.08846 0.0
C4118 C 0.0062 0.72457 0.06807 0.0
C4119 C 0.0101 0.75278 0.09318 0.0
C4120 C 0.01445 0.76062 0.11424 0.0
C4121 C 0.03363 0.77035 0.12014 0.0
C4122 C 0.0382 0.77679 0.14033 0.0
C4123 C 0.02362 0.7737 0.15467 0.0
C4124 C 0.0044 0.7643 0.14882 0.0
C4125 C -0.0002 0.75774 0.12867 0.0
H4126 H 0.02721 0.77865 0.17029 0.0
H4127 H 0.99622 0.70904 0.97554 0.0
H4128 H 0.10003 0.59549 0.11213 0.0
H4129 H 0.12851 0.57631 0.12316 0.0
H4130 H 0.09488 0.55097 0.17234 0.0
H4131 H 0.06603 0.57096 0.16149 0.0
H4132 H 0.13955 0.56244 0.18039 0.0
H4133 H 0.09197 0.52246 0.13322 0.0
H4134 H 0.06989 0.5199 0.10175 0.0
H4135 H 0.12156 0.53341 0.06652 0.0
H4136 H 0.14391 0.53639 0.09782 0.0
H4137 H 0.1898 0.4649 0.17718 0.0
H4138 H 0.16153 0.48384 0.16419 0.0
H4139 H 0.20297 0.537 0.1543 0.0
H4140 H 0.23129 0.51795 0.16705 0.0
H4141 H 0.15262 0.50987 0.12809 0.0
H4142 H 0.19043 0.5693 0.17712 0.0
H4143 H 0.20941 0.58 0.2094 0.0
H4144 H 0.17647 0.53138 0.24019 0.0
H4145 H 0.1572 0.52053 0.20805 0.0
C4146 C 0.09873 0.58593 0.1254 0.0
C4147 C 0.08078 0.58398 0.13567 0.0
C4148 C 0.11503 0.57517 0.13174 0.0
C4149 C 0.11345 0.56195 0.14817 0.0
C4150 C 0.0961 0.56105 0.15947 0.0
C4151 C 0.07971 0.57224 0.15326 0.0
C4152 C 0.12923 0.54768 0.1518 0.0
C4153 C 0.14228 0.55074 0.16914 0.0
C4154 C 0.13286 0.53281 0.13679 0.0
C4155 C 0.11961 0.52965 0.11788 0.0
C4156 C 0.09862 0.52486 0.11876 0.0
C4157 C 0.08605 0.52338 0.10095 0.0
C4158 C 0.09432 0.52649 0.08214 0.0
C4159 C 0.11519 0.53097 0.08109 0.0
C4160 C 0.12782 0.53251 0.09887 0.0
C4161 C 0.193 0.48007 0.17084 0.0
C4162 C 0.21258 0.49005 0.17301 0.0
C4163 C 0.17683 0.49103 0.1639 0.0
C4164 C 0.18028 0.51193 0.15904 0.0
C4165 C 0.20013 0.52095 0.15842 0.0
C4166 C 0.2163 0.50992 0.16521 0.0
C4167 C 0.16307 0.52469 0.15666 0.0
C4168 C 0.14974 0.52135 0.13949 0.0
C4169 C 0.15931 0.5395 0.17169 0.0
C4170 C 0.17272 0.54388 0.19019 0.0
C4171 C 0.18754 0.56068 0.19072 0.0
C4172 C 0.1982 0.56687 0.209 0.0
C4173 C 0.19412 0.55637 0.22683 0.0
C4174 C 0.17962 0.53945 0.22635 0.0
C4175 C 0.16888 0.53324 0.2081 0.0
H4176 H 0.20213 0.56139 0.24103 0.0
H4177 H 0.08455 0.52542 0.06838 0.0
H4178 H 0.67349 0.55658 0.44062 0.0
H4179 H 0.66866 0.58996 0.4568 0.0
H4180 H 0.70532 0.62121 0.41299 0.0
H4181 H 0.70954 0.58784 0.39633 0.0
H4182 H 0.70663 0.63756 0.45906 0.0
H4183 H 0.66149 0.61427 0.39819 0.0
H4184 H 0.63702 0.58783 0.38128 0.0
H4185 H 0.59856 0.59075 0.43117 0.0
H4186 H 0.62303 0.61684 0.44859 0.0
H4187 H 0.67549 0.73682 0.46914 0.0
H4188 H 0.68572 0.70542 0.45283 0.0
H4189 H 0.62829 0.67331 0.46544 0.0
H4190 H 0.6175 0.705 0.47983 0.0
H4191 H 0.63804 0.65605 0.43575 0.0
H4192 H 0.67517 0.67304 0.49805 0.0
H4193 H 0.69731 0.69247 0.52434 0.0
H4194 H 0.74648 0.69505 0.48469 0.0
H4195 H 0.72455 0.67582 0.45807 0.0
C4196 C 0.68126 0.57051 0.43505 0.0
C4197 C 0.6919 0.56982 0.41734 0.0
C4198 C 0.67842 0.58951 0.44422 0.0
C4199 C 0.68642 0.60791 0.43584 0.0
C4200 C 0.69909 0.60707 0.41962 0.0
C4201 C 0.70167 0.58806 0.41025 0.0
C4202 C 0.67901 0.62782 0.44174 0.0
C4203 C 0.69177 0.64187 0.45384 0.0
C4204 C 0.65916 0.63266 0.43575 0.0
C4205 C 0.64424 0.61738 0.42481 0.0
C4206 C 0.64792 0.60915 0.40564 0.0
C4207 C 0.63403 0.59423 0.39595 0.0
C4208 C 0.61627 0.58758 0.40516 0.0
C4209 C 0.61233 0.59589 0.42405 0.0
C4210 C 0.62621 0.61073 0.43384 0.0
C4211 C 0.66478 0.72327 0.4675 0.0
C4212 C 0.64574 0.72329 0.4757 0.0
C4213 C 0.67076 0.70519 0.45861 0.0
C4214 C 0.65816 0.68664 0.45867 0.0
C4215 C 0.63844 0.68726 0.46526 0.0
C4216 C 0.63219 0.70551 0.4734 0.0
C4217 C 0.66577 0.66642 0.45312 0.0
C4218 C 0.65301 0.65211 0.44105 0.0
C4219 C 0.68514 0.66078 0.46033 0.0
C4220 C 0.69812 0.67322 0.47595 0.0
C4221 C 0.69062 0.67798 0.49483 0.0
C4222 C 0.70315 0.68891 0.50982 0.0
C4223 C 0.72327 0.69504 0.50616 0.0
C4224 C 0.73088 0.69032 0.48749 0.0
C4225 C 0.71841 0.67942 0.47244 0.0
H4226 H 0.73298 0.70339 0.51782 0.0
H4227 H 0.60556 0.57601 0.39766 0.0
H4228 H 0.70347 0.98456 0.75207 0.0
H4229 H 0.66907 0.96813 0.75293 0.0
H4230 H 0.69304 0.91062 0.77025 0.0
H4231 H 0.72749 0.9269 0.76913 0.0
H4232 H 0.66722 0.90587 0.73615 0.0
H4233 H 0.66794 0.93866 0.80284 0.0
H4234 H 0.67237 0.96858 0.82672 0.0
H4235 H 0.6249 0.99738 0.7937 0.0
H4236 H 0.62042 0.96779 0.7694 0.0
H4237 H 0.58167 0.84476 0.76733 0.0
H4238 H 0.61355 0.86414 0.76075 0.0
H4239 H 0.58155 0.91763 0.74533 0.0
H4240 H 0.54954 0.89842 0.75212 0.0
H4241 H 0.61015 0.92679 0.77496 0.0
H4242 H 0.6066 0.89409 0.71017 0.0
H4243 H 0.60087 0.86477 0.68571 0.0
H4244 H 0.65213 0.83699 0.71299 0.0
H4245 H 0.65797 0.86598 0.73791 0.0
C4246 C 0.70143 0.9687 0.75701 0.0
C4247 C 0.71819 0.957 0.76055 0.0
C4248 C 0.68173 0.95923 0.75721 0.0
C4249 C 0.67852 0.93804 0.76131 0.0
C4250 C 0.69521 0.9269 0.76675 0.0
C4251 C 0.71487 0.93632 0.76645 0.0
C4252 C 0.65798 0.92711 0.75869 0.0
C4253 C 0.65476 0.91027 0.74478 0.0
C4254 C 0.64156 0.93348 0.76928 0.0
C4255 C 0.64399 0.95109 0.78416 0.0
C4256 C 0.65854 0.95144 0.80058 0.0
C4257 C 0.66105 0.96834 0.8142 0.0
C4258 C 0.64897 0.9849 0.81169 0.0
C4259 C 0.63428 0.98456 0.7956 0.0
C4260 C 0.63174 0.96772 0.7819 0.0
C4261 C 0.58128 0.8604 0.76186 0.0
C4262 C 0.56309 0.87015 0.76057 0.0
C4263 C 0.59957 0.8715 0.75813 0.0
C4264 C 0.59993 0.89241 0.75277 0.0
C4265 C 0.58161 0.90158 0.74968 0.0
C4266 C 0.56332 0.89053 0.75348 0.0
C4267 C 0.61947 0.90523 0.7528 0.0
C4268 C 0.62252 0.92247 0.76616 0.0
C4269 C 0.63562 0.89938 0.74149 0.0
C4270 C 0.63266 0.88221 0.72605 0.0
C4271 C 0.61662 0.8817 0.71105 0.0
C4272 C 0.61333 0.86512 0.69709 0.0
C4273 C 0.6261 0.84901 0.69783 0.0
C4274 C 0.64224 0.84949 0.71246 0.0
C4275 C 0.64557 0.86602 0.72649 0.0
H4276 H 0.62351 0.83616 0.68704 0.0
H4277 H 0.65095 0.99798 0.82224 0.0
H4278 H 0.34611 0.19864 0.02541 0.0
H4279 H 0.33777 0.16681 0.04253 0.0
H4280 H 0.36911 0.19292 0.09758 0.0
H4281 H 0.38075 0.22346 0.07857 0.0
H4282 H 0.38041 0.1592 0.09461 0.0
H4283 H 0.31042 0.17649 0.08607 0.0
H4284 H 0.27947 0.18642 0.06737 0.0
H4285 H 0.27985 0.13347 0.02745 0.0
H4286 H 0.31083 0.12332 0.04578 0.0
H4287 H 0.32905 0.07527 0.14999 0.0
H4288 H 0.33751 0.10881 0.13487 0.0
H4289 H 0.35082 0.0781 0.07936 0.0
H4290 H 0.34321 0.0442 0.09479 0.0
H4291 H 0.31744 0.11281 0.08365 0.0
H4292 H 0.38708 0.09594 0.09284 0.0
H4293 H 0.41757 0.08572 0.112 0.0
H4294 H 0.41652 0.13823 0.15232 0.0
H4295 H 0.38575 0.14854 0.13365 0.0
C4296 C 0.35067 0.19773 0.0413 0.0
C4297 C 0.36392 0.21335 0.05066 0.0
C4298 C 0.34564 0.17953 0.05134 0.0
C4299 C 0.3523 0.17724 0.07172 0.0
C4300 C 0.36381 0.19404 0.08183 0.0
C4301 C 0.37013 0.21172 0.07118 0.0
C4302 C 0.34964 0.15659 0.08141 0.0
C4303 C 0.36637 0.14941 0.09256 0.0
C4304 C 0.3317 0.14309 0.07818 0.0
C4305 C 0.313 0.14923 0.06726 0.0
C4306 C 0.30393 0.16703 0.07326 0.0
C4307 C 0.28638 0.17268 0.06273 0.0
C4308 C 0.27772 0.1606 0.04623 0.0
C4309 C 0.28656 0.14281 0.04024 0.0
C4310 C 0.30408 0.13708 0.05072 0.0
C4311 C 0.33367 0.07565 0.13451 0.0
C4312 C 0.33514 0.05725 0.12335 0.0
C4313 C 0.3388 0.09477 0.12607 0.0
C4314 C 0.34509 0.09577 0.10623 0.0
C4315 C 0.34632 0.07747 0.09487 0.0
C4316 C 0.34174 0.05824 0.10355 0.0
C4317 C 0.3479 0.11609 0.09677 0.0
C4318 C 0.33123 0.12302 0.08577 0.0
C4319 C 0.3657 0.12938 0.10039 0.0
C4320 C 0.38384 0.12279 0.11205 0.0
C4321 C 0.39309 0.10509 0.10602 0.0
C4322 C 0.41051 0.09934 0.11673 0.0
C4323 C 0.41892 0.11126 0.13343 0.0
C4324 C 0.40994 0.12897 0.13944 0.0
C4325 C 0.3925 0.13476 0.1288 0.0
H4326 H 0.43244 0.10683 0.14165 0.0
H4327 H 0.26415 0.16502 0.03809 0.0
H4328 H 0.24562 0.50943 0.72983 0.0
H4329 H 0.27619 0.49751 0.7163 0.0
H4330 H 0.24199 0.44161 0.6933 0.0
H4331 H 0.2115 0.45339 0.70752 0.0
H4332 H 0.271 0.43241 0.71843 0.0
H4333 H 0.26745 0.4759 0.66161 0.0
H4334 H 0.26435 0.50729 0.64144 0.0
H4335 H 0.31774 0.53656 0.67312 0.0
H4336 H 0.321 0.50548 0.69374 0.0
H4337 H 0.35161 0.39275 0.66855 0.0
H4338 H 0.32115 0.4052 0.68155 0.0
H4339 H 0.35699 0.45714 0.71079 0.0
H4340 H 0.38782 0.44461 0.69733 0.0
H4341 H 0.32759 0.46812 0.68347 0.0
H4342 H 0.33102 0.42016 0.73835 0.0
H4343 H 0.33364 0.38617 0.75413 0.0
H4344 H 0.27905 0.36218 0.72075 0.0
H4345 H 0.27627 0.39588 0.70448 0.0
C4346 C 0.24448 0.49515 0.7209 0.0
C4347 C 0.22637 0.48236 0.71941 0.0
C4348 C 0.26195 0.48828 0.71324 0.0
C4349 C 0.26139 0.4686 0.70389 0.0
C4350 C 0.24273 0.45681 0.70054 0.0
C4351 C 0.22531 0.4636 0.70841 0.0
C4352 C 0.28053 0.45902 0.70105 0.0
C4353 C 0.28326 0.44003 0.71044 0.0
C4354 C 0.2967 0.46931 0.69121 0.0
C4355 C 0.29431 0.48841 0.67943 0.0
C4356 C 0.27837 0.48913 0.6645 0.0
C4357 C 0.27662 0.50685 0.65293 0.0
C4358 C 0.2908 0.52393 0.65604 0.0
C4359 C 0.30674 0.52333 0.67076 0.0
C4360 C 0.30854 0.50567 0.6824 0.0
C4361 C 0.35302 0.4065 0.67827 0.0
C4362 C 0.37179 0.41789 0.682 0.0
C4363 C 0.33567 0.41349 0.68581 0.0
C4364 C 0.33687 0.43197 0.69725 0.0
C4365 C 0.35589 0.44274 0.70207 0.0
C4366 C 0.37339 0.43568 0.69445 0.0
C4367 C 0.31804 0.44163 0.70087 0.0
C4368 C 0.31534 0.46061 0.69157 0.0
C4369 C 0.30175 0.43102 0.7103 0.0
C4370 C 0.30352 0.41061 0.72005 0.0
C4371 C 0.31967 0.40761 0.7342 0.0
C4372 C 0.32116 0.38838 0.74327 0.0
C4373 C 0.30654 0.37202 0.73842 0.0
C4374 C 0.29038 0.37486 0.7245 0.0
C4375 C 0.28883 0.39403 0.71536 0.0
H4376 H 0.30772 0.35717 0.74548 0.0
H4377 H 0.28946 0.5376 0.64701 0.0
H4378 H 0.76989 0.29204 0.97405 0.0
H4379 H 0.76456 0.32271 0.95504 0.0
H4380 H 0.79448 0.29768 0.90478 0.0
H4381 H 0.80204 0.26747 0.9253 0.0
H4382 H 0.80749 0.33384 0.90892 0.0
H4383 H 0.73763 0.30648 0.906 0.0
H4384 H 0.70553 0.29158 0.91891 0.0
H4385 H 0.70416 0.3443 0.95893 0.0
H4386 H 0.73623 0.35946 0.94635 0.0
H4387 H 0.78566 0.41894 0.8503 0.0
H4388 H 0.78308 0.38413 0.8637 0.0
H4389 H 0.76764 0.40866 0.92148 0.0
H4390 H 0.76943 0.4439 0.90758 0.0
H4391 H 0.74559 0.37183 0.91036 0.0
H4392 H 0.81625 0.39804 0.91319 0.0
H4393 H 0.84716 0.41342 0.8984 0.0
H4394 H 0.84568 0.36191 0.85643 0.0
H4395 H 0.81459 0.34637 0.87076 0.0
C4396 C 0.77505 0.29284 0.95878 0.0
C4397 C 0.78621 0.27733 0.95102 0.0
C4398 C 0.77168 0.31038 0.94771 0.0
C4399 C 0.77839 0.31245 0.92804 0.0
C4400 C 0.78897 0.29647 0.91987 0.0
C4401 C 0.79321 0.27917 0.93146 0.0
C4402 C 0.77644 0.33234 0.91733 0.0
C4403 C 0.79372 0.34179 0.90882 0.0
C4404 C 0.7587 0.34327 0.91763 0.0
C4405 C 0.73939 0.33407 0.92525 0.0
C4406 C 0.73053 0.31484 0.91761 0.0
C4407 C 0.71232 0.30637 0.92485 0.0
C4408 C 0.70283 0.31698 0.93974 0.0
C4409 C 0.7115 0.33611 0.94738 0.0
C4410 C 0.72965 0.34468 0.94015 0.0
C4411 C 0.78152 0.41688 0.86582 0.0
C4412 C 0.778 0.43398 0.87808 0.0
C4413 C 0.78013 0.39701 0.87346 0.0
C4414 C 0.77571 0.39389 0.89371 0.0
C4415 C 0.77126 0.41084 0.90582 0.0
C4416 C 0.77229 0.43088 0.89797 0.0
C4417 C 0.77653 0.37296 0.90222 0.0
C4418 C 0.75913 0.36351 0.91029 0.0
C4419 C 0.79402 0.36191 0.90129 0.0
C4420 C 0.81299 0.3711 0.89296 0.0
C4421 C 0.82246 0.39004 0.90074 0.0
C4422 C 0.84002 0.39879 0.89244 0.0
C4423 C 0.84836 0.38867 0.87646 0.0
C4424 C 0.8392 0.36974 0.8688 0.0
C4425 C 0.82162 0.36095 0.87702 0.0
H4426 H 0.86194 0.39547 0.87005 0.0
H4427 H 0.68875 0.31038 0.94533 0.0
H4428 H 0.90762 0.13755 0.35605 0.0
H4429 H 0.87808 0.11364 0.3466 0.0
H4430 H 0.91634 0.06303 0.34438 0.0
H4431 H 0.9461 0.08684 0.35442 0.0
H4432 H 0.88441 0.06842 0.30975 0.0
H4433 H 0.89469 0.06556 0.38343 0.0
H4434 H 0.89941 0.08241 0.41734 0.0
H4435 H 0.84149 0.10712 0.4089 0.0
H4436 H 0.8366 0.09083 0.37471 0.0
H4437 H 0.80504 0.9909 0.29705 0.0
H4438 H 0.83654 0.00809 0.31274 0.0
H4439 H 0.80341 0.05776 0.33453 0.0
H4440 H 0.77203 0.04072 0.31887 0.0
H4441 H 0.83408 0.05141 0.36099 0.0
H4442 H 0.8232 0.0621 0.29079 0.0
H4443 H 0.81723 0.05555 0.25397 0.0
H4444 H 0.873 0.02639 0.2527 0.0
H4445 H 0.8791 0.03236 0.28965 0.0
C4446 C 0.90985 0.12142 0.3531 0.0
C4447 C 0.92914 0.114 0.35585 0.0
C4448 C 0.89294 0.10779 0.34795 0.0
C4449 C 0.89515 0.08666 0.34516 0.0
C4450 C 0.91448 0.07934 0.3467 0.0
C4451 C 0.93139 0.09291 0.3523 0.0
C4452 C 0.87714 0.07219 0.3408 0.0
C4453 C 0.87361 0.06417 0.32101 0.0
C4454 C 0.86271 0.06787 0.35543 0.0
C4455 C 0.86537 0.0771 0.37635 0.0
C4456 C 0.88302 0.07472 0.3887 0.0
C4457 C 0.88572 0.08416 0.40799 0.0
C4458 C 0.87079 0.09588 0.41524 0.0
C4459 C 0.85306 0.09807 0.40325 0.0
C4460 C 0.85031 0.08872 0.38391 0.0
C4461 C 0.80441 0.00509 0.30583 0.0
C4462 C 0.78622 0.01464 0.30662 0.0
C4463 C 0.82241 0.01497 0.31463 0.0
C4464 C 0.82232 0.03439 0.32442 0.0
C4465 C 0.80382 0.04285 0.32695 0.0
C4466 C 0.78592 0.03311 0.31799 0.0
C4467 C 0.84149 0.04704 0.32989 0.0
C4468 C 0.84512 0.05504 0.34982 0.0
C4469 C 0.85566 0.05219 0.31513 0.0
C4470 C 0.85138 0.04726 0.29313 0.0
C4471 C 0.83398 0.05388 0.28277 0.0
C4472 C 0.83063 0.05038 0.26184 0.0
C4473 C 0.84467 0.04046 0.25102 0.0
C4474 C 0.86207 0.03397 0.26112 0.0
C4475 C 0.86546 0.03736 0.28207 0.0
H4476 H 0.84212 0.03788 0.23479 0.0
H4477 H 0.87297 0.10325 0.43013 0.0
H4478 H 0.14074 0.95013 0.57538 0.0
H4479 H 0.14432 0.91314 0.56989 0.0
H4480 H 0.08255 0.89892 0.58539 0.0
H4481 H 0.07868 0.93608 0.59021 0.0
H4482 H 0.11797 0.87798 0.60881 0.0
H4483 H 0.08477 0.88761 0.5433 0.0
H4484 H 0.07937 0.90697 0.51186 0.0
H4485 H 0.14024 0.89879 0.4964 0.0
H4486 H 0.14608 0.87958 0.52795 0.0
H4487 H 0.10368 0.77385 0.55998 0.0
H4488 H 0.10133 0.80679 0.57785 0.0
H4489 H 0.16368 0.82466 0.56702 0.0
H4490 H 0.16627 0.79141 0.54989 0.0
H4491 H 0.12696 0.84354 0.54261 0.0
H4492 H 0.16013 0.8341 0.60832 0.0
H4493 H 0.16587 0.81592 0.64042 0.0
H4494 H 0.10481 0.82369 0.6555 0.0
H4495 H 0.09868 0.84183 0.62338 0.0
C4496 C 0.12773 0.93913 0.57687 0.0
C4497 C 0.10936 0.94583 0.58287 0.0
C4498 C 0.12985 0.91808 0.57399 0.0
C4499 C 0.11378 0.90343 0.57754 0.0
C4500 C 0.09512 0.91009 0.58272 0.0
C4501 C 0.09283 0.93125 0.58511 0.0
C4502 C 0.11694 0.88119 0.5763 0.0
C4503 C 0.1196 0.87027 0.59435 0.0
C4504 C 0.11952 0.87149 0.55746 0.0
C4505 C 0.11591 0.8823 0.53806 0.0
C4506 C 0.09704 0.89002 0.53324 0.0
C4507 C 0.09389 0.90096 0.5154 0.0
C4508 C 0.10947 0.90415 0.50216 0.0
C4509 C 0.12819 0.8963 0.50669 0.0
C4510 C 0.13142 0.88535 0.52453 0.0
C4511 C 0.11735 0.78402 0.56299 0.0
C4512 C 0.13506 0.78027 0.55335 0.0
C4513 C 0.11591 0.80303 0.5729 0.0
C4514 C 0.1322 0.81825 0.57329 0.0
C4515 C 0.15094 0.81306 0.56682 0.0
C4516 C 0.15249 0.79386 0.55734 0.0
C4517 C 0.12814 0.84025 0.57515 0.0
C4518 C 0.12525 0.85116 0.5571 0.0
C4519 C 0.12529 0.84985 0.59398 0.0
C4520 C 0.12888 0.8391 0.61335 0.0
C4521 C 0.14787 0.83177 0.6184 0.0
C4522 C 0.15122 0.82154 0.63663 0.0
C4523 C 0.13569 0.81858 0.64996 0.0
C4524 C 0.11682 0.82597 0.64514 0.0
C4525 C 0.11341 0.83627 0.62695 0.0
H4526 H 0.1383 0.81062 0.66405 0.0
H4527 H 0.10703 0.91268 0.48839 0.0
H4528 H 0.11674 0.05931 0.58531 0.0
H4529 H 0.12767 0.08691 0.56274 0.0
H4530 H 0.18098 0.05548 0.55107 0.0
H4531 H 0.17055 0.02843 0.57501 0.0
H4532 H 0.1899 0.09575 0.55745 0.0
H4533 H 0.13808 0.05402 0.51611 0.0
H4534 H 0.10375 0.03628 0.51126 0.0
H4535 H 0.07771 0.0943 0.5185 0.0
H4536 H 0.11189 0.11236 0.5236 0.0
H4537 H 0.22196 0.14619 0.47311 0.0
H4538 H 0.2039 0.11785 0.49031 0.0
H4539 H 0.16024 0.15924 0.50865 0.0
H4540 H 0.17839 0.18771 0.49137 0.0
H4541 H 0.14491 0.11564 0.49942 0.0
H4542 H 0.19371 0.15551 0.54755 0.0
H4543 H 0.22648 0.1727 0.56108 0.0
H4544 H 0.25685 0.11978 0.54381 0.0
H4545 H 0.22417 0.10186 0.53105 0.0
C4546 C 0.13064 0.05826 0.57765 0.0
C4547 C 0.14268 0.04178 0.58123 0.0
C4548 C 0.13684 0.07393 0.56481 0.0
C4549 C 0.15481 0.07287 0.55483 0.0
C4550 C 0.16693 0.05636 0.55851 0.0
C4551 C 0.16097 0.04091 0.5719 0.0
C4552 C 0.16108 0.08927 0.54084 0.0
C4553 C 0.18022 0.09983 0.54455 0.0
C4554 C 0.148 0.09517 0.52461 0.0
C4555 C 0.12752 0.08452 0.52023 0.0
C4556 C 0.12502 0.06299 0.51659 0.0
C4557 C 0.1056 0.05288 0.51385 0.0
C4558 C 0.08856 0.06416 0.51457 0.0
C4559 C 0.09092 0.0856 0.51791 0.0
C4560 C 0.11031 0.09579 0.52066 0.0
C4561 C 0.2078 0.14886 0.47974 0.0
C4562 C 0.20137 0.1689 0.48096 0.0
C4563 C 0.19775 0.13284 0.48984 0.0
C4564 C 0.1812 0.1368 0.50112 0.0
C4565 C 0.17315 0.15611 0.50009 0.0
C4566 C 0.18325 0.17221 0.48995 0.0
C4567 C 0.17399 0.12149 0.51566 0.0
C4568 C 0.15462 0.11134 0.51221 0.0
C4569 C 0.18676 0.11606 0.53229 0.0
C4570 C 0.20659 0.12754 0.53797 0.0
C4571 C 0.20743 0.14769 0.54633 0.0
C4572 C 0.22594 0.15751 0.55399 0.0
C4573 C 0.24375 0.14753 0.55295 0.0
C4574 C 0.24307 0.12758 0.54445 0.0
C4575 C 0.22455 0.11752 0.53714 0.0
H4576 H 0.25804 0.15519 0.5589 0.0
H4577 H 0.07354 0.05629 0.51254 0.0
H4578 H 0.13963 0.4684 0.69881 0.0
H4579 H 0.10682 0.45951 0.6808 0.0
H4580 H 0.08806 0.51963 0.69633 0.0
H4581 H 0.12126 0.52872 0.71439 0.0
H4582 H 0.06231 0.48546 0.7084 0.0
H4583 H 0.09383 0.50742 0.64692 0.0
H4584 H 0.12171 0.50646 0.62386 0.0
H4585 H 0.10826 0.44092 0.61461 0.0
H4586 H 0.08041 0.44146 0.63776 0.0
H4587 H 0.96375 0.4515 0.674 0.0
H4588 H 0.99514 0.46992 0.6822 0.0
H4589 H 0.02029 0.44041 0.63109 0.0
H4590 H 0.98563 0.43028 0.61788 0.0
H4591 H 0.04607 0.46231 0.6371 0.0
H4592 H 0.02281 0.43602 0.70423 0.0
H4593 H 0.99909 0.43349 0.7318 0.0
H4594 H 0.00075 0.49984 0.73596 0.0
H4595 H 0.02445 0.50273 0.70851 0.0
C4596 C 0.12878 0.48003 0.69783 0.0
C4597 C 0.13312 0.49935 0.70791 0.0
C4598 C 0.10997 0.47489 0.6875 0.0
C4599 C 0.09489 0.48887 0.68708 0.0
C4600 C 0.09948 0.5086 0.69632 0.0
C4601 C 0.11853 0.51389 0.70648 0.0
C4602 C 0.0738 0.48188 0.67908 0.0
C4603 C 0.05852 0.48046 0.69276 0.0
C4604 C 0.06911 0.47454 0.65895 0.0
C4605 C 0.08504 0.47449 0.64408 0.0
C4606 C 0.09679 0.49282 0.63993 0.0
C4607 C 0.11261 0.49234 0.62687 0.0
C4608 C 0.11676 0.47364 0.61779 0.0
C4609 C 0.10501 0.4554 0.62163 0.0
C4610 C 0.08916 0.4558 0.63466 0.0
C4611 C 0.97576 0.44973 0.66387 0.0
C4612 C 0.97163 0.44027 0.64469 0.0
C4613 C 0.99482 0.45921 0.66965 0.0
C4614 C 0.01203 0.45577 0.65893 0.0
C4615 C 0.00814 0.44417 0.64032 0.0
C4616 C 0.98813 0.43759 0.63279 0.0
C4617 C 0.03341 0.46461 0.66666 0.0
C4618 C 0.04912 0.46663 0.65292 0.0
C4619 C 0.03886 0.4715 0.68727 0.0
C4620 C 0.02522 0.46955 0.70423 0.0
C4621 C 0.01816 0.45002 0.71111 0.0
C4622 C 0.0047 0.44855 0.72668 0.0
C4623 C 0.99837 0.46649 0.73557 0.0
C4624 C 0.00563 0.48596 0.72906 0.0
C4625 C 0.01913 0.48753 0.71357 0.0
H4626 H 0.98787 0.4653 0.74752 0.0
H4627 H 0.12908 0.47328 0.60777 0.0
H4628 H 0.83182 0.19512 0.99632 0.0
H4629 H 0.8421 0.15994 0.99195 0.0
H4630 H 0.77983 0.13616 0.99536 0.0
H4631 H 0.76993 0.17072 0.00115 0.0
H4632 H 0.80209 0.11092 0.01364 0.0
H4633 H 0.81015 0.14593 0.94651 0.0
H4634 H 0.82742 0.17462 0.92829 0.0
H4635 H 0.88527 0.15585 0.95002 0.0
H4636 H 0.86833 0.12709 0.96836 0.0
H4637 H 0.84604 0.01715 0.96183 0.0
H4638 H 0.8251 0.04631 0.95368 0.0
H4639 H 0.84807 0.07747 0.00942 0.0
H4640 H 0.86986 0.05029 0.0166 0.0
H4641 H 0.8414 0.09352 0.95585 0.0
H4642 H 0.80128 0.0703 0.03621 0.0
H4643 H 0.76625 0.04723 0.04966 0.0
H4644 H 0.7347 0.04566 0.97847 0.0
H4645 H 0.77045 0.06825 0.96531 0.0
C4646 C 0.82034 0.18221 0.99576 0.0
C4647 C 0.79996 0.18556 0.99844 0.0
C4648 C 0.82623 0.16206 0.99328 0.0
C4649 C 0.81169 0.14496 0.99256 0.0
C4650 C 0.79144 0.14863 0.99558 0.0
C4651 C 0.78565 0.16857 0.99868 0.0
C4652 C 0.81694 0.12331 0.98802 0.0
C4653 C 0.80876 0.10709 -0.00029 0.0
C4654 C 0.8279 0.11816 0.9711 0.0
C4655 C 0.83798 0.13432 0.95868 0.0
C4656 C 0.82655 0.14779 0.94716 0.0
C4657 C 0.83628 0.16412 0.93691 0.0
C4658 C 0.85743 0.16704 0.93798 0.0
C4659 C 0.8689 0.15353 0.94916 0.0
C4660 C 0.85925 0.13717 0.95941 0.0
C4661 C 0.84688 0.03046 0.97206 0.0
C4662 C 0.85896 0.03074 0.99036 0.0
C4663 C 0.83463 0.04689 0.9676 0.0
C4664 C 0.83384 0.06325 0.98177 0.0
C4665 C 0.84737 0.06437 0.9989 0.0
C4666 C 0.86015 0.04878 0.00279 0.0
C4667 C 0.8216 0.08117 0.97828 0.0
C4668 C 0.83083 0.09724 0.96704 0.0
C4669 C 0.80806 0.08631 0.99306 0.0
C4670 C 0.79085 0.07163 -0.00068 0.0
C4671 C 0.78888 0.06548 0.02536 0.0
C4672 C 0.76659 0.05185 0.03397 0.0
C4673 C 0.74512 0.04403 0.01564 0.0
C4674 C 0.74717 0.05017 0.98934 0.0
C4675 C 0.76963 0.06402 0.98105 0.0
H4676 H 0.73169 0.03532 0.02044 0.0
H4677 H 0.86492 0.17978 0.93017 0.0
H4678 H 0.02771 0.10437 0.35688 0.0
H4679 H 0.06288 0.09515 0.3581 0.0
H4680 H 0.06213 0.08835 0.42292 0.0
H4681 H 0.02672 0.09695 0.42174 0.0
H4682 H 0.09867 0.11518 0.40408 0.0
H4683 H 0.06312 0.04739 0.40702 0.0
H4684 H 0.03435 0.02232 0.39632 0.0
H4685 H 0.05245 0.02415 0.33492 0.0
H4686 H 0.08124 0.04948 0.34527 0.0
H4687 H 0.18555 0.05137 0.41546 0.0
H4688 H 0.1544 0.06887 0.41871 0.0
H4689 H 0.14635 0.07145 0.35358 0.0
H4690 H 0.17758 0.05465 0.35015 0.0
H4691 H 0.11435 0.04751 0.37516 0.0
H4692 H 0.15216 0.11447 0.37425 0.0
H4693 H 0.1794 0.1409 0.3859 0.0
H4694 H 0.15681 0.1408 0.44555 0.0
H4695 H 0.12946 0.11423 0.43426 0.0
C4696 C 0.0349 0.10043 0.37131 0.0
C4697 C 0.02439 0.10099 0.38914 0.0
C4698 C 0.05503 0.09549 0.37203 0.0
C4699 C 0.06512 0.09146 0.39065 0.0
C4700 C 0.05462 0.09168 0.40846 0.0
C4701 C 0.03431 0.09618 0.40769 0.0
C4702 C 0.0863 0.08579 0.39109 0.0
C4703 C 0.10219 0.10029 0.39809 0.0
C4704 C 0.09073 0.06649 0.38308 0.0
C4705 C 0.07427 0.05035 0.3769 0.0
C4706 C 0.06095 0.04244 0.39124 0.0
C4707 C 0.04464 0.02821 0.38524 0.0
C4708 C 0.04156 0.02166 0.36494 0.0
C4709 C 0.05488 0.02923 0.35064 0.0
C4710 C 0.07123 0.04349 0.35657 0.0
C4711 C 0.1776 0.05641 0.40187 0.0
C4712 C 0.18396 0.05137 0.38255 0.0
C4713 C 0.15975 0.06632 0.40375 0.0
C4714 C 0.14796 0.07113 0.38636 0.0
C4715 C 0.1552 0.06774 0.36717 0.0
C4716 C 0.17316 0.05822 0.36527 0.0
C4717 C 0.12696 0.07696 0.388 0.0
C4718 C 0.11098 0.06238 0.38134 0.0
C4719 C 0.12256 0.0961 0.39663 0.0
C4720 C 0.1389 0.11217 0.40346 0.0
C4721 C 0.15309 0.11995 0.38989 0.0
C4722 C 0.16851 0.13501 0.39641 0.0
C4723 C 0.16987 0.14248 0.41647 0.0
C4724 C 0.15574 0.13498 0.43002 0.0
C4725 C 0.14025 0.11995 0.42355 0.0
H4726 H 0.18183 0.15411 0.4215 0.0
H4727 H 0.02887 0.01071 0.3603 0.0
H4728 H 0.16085 0.67836 0.49807 0.0
H4729 H 0.15111 0.64128 0.49212 0.0
H4730 H 0.09114 0.6498 0.5108 0.0
H4731 H 0.1007 0.68676 0.51661 0.0
H4732 H 0.10289 0.6151 0.52569 0.0
H4733 H 0.10239 0.64518 0.45932 0.0
H4734 H 0.11678 0.66511 0.43129 0.0
H4735 H 0.1636 0.62336 0.4278 0.0
H4736 H 0.14963 0.60332 0.45597 0.0
H4737 H 0.06299 0.51687 0.46521 0.0
H4738 H 0.06723 0.55453 0.47335 0.0
H4739 H 0.12886 0.54872 0.49528 0.0
H4740 H 0.1246 0.51185 0.48866 0.0
H4741 H 0.11314 0.58223 0.45908 0.0
H4742 H 0.11763 0.55719 0.52949 0.0
H4743 H 0.10454 0.53811 0.5586 0.0
H4744 H 0.05126 0.57165 0.55508 0.0
H4745 H 0.06384 0.59052 0.52551 0.0
C4746 C 0.14575 0.67224 0.50139 0.0
C4747 C 0.13161 0.68554 0.50796 0.0
C4748 C 0.14012 0.65105 0.49775 0.0
C4749 C 0.12029 0.64264 0.50073 0.0
C4750 C 0.10649 0.65578 0.50826 0.0
C4751 C 0.11202 0.67695 0.51167 0.0
C4752 C 0.11379 0.62027 0.49592 0.0
C4753 C 0.10488 0.60809 0.51099 0.0
C4754 C 0.11656 0.61079 0.47683 0.0
C4755 C 0.12501 0.6228 0.45985 0.0
C4756 C 0.11582 0.64031 0.45265 0.0
C4757 C 0.12389 0.65162 0.43672 0.0
C4758 C 0.14109 0.64551 0.42777 0.0
C4759 C 0.15026 0.62807 0.43473 0.0
C4760 C 0.14225 0.61671 0.45066 0.0
C4761 C 0.07718 0.52357 0.47235 0.0
C4762 C 0.09319 0.511 0.47664 0.0
C4763 C 0.07967 0.5451 0.47686 0.0
C4764 C 0.09835 0.55443 0.48519 0.0
C4765 C 0.11421 0.54192 0.4893 0.0
C4766 C 0.11159 0.52061 0.48552 0.0
C4767 C 0.10221 0.57729 0.48883 0.0
C4768 C 0.11081 0.58947 0.4736 0.0
C4769 C 0.09937 0.58677 0.5078 0.0
C4770 C 0.09137 0.57477 0.5249 0.0
C4771 C 0.10288 0.56009 0.53456 0.0
C4772 C 0.09562 0.54942 0.55124 0.0
C4773 C 0.077 0.55354 0.55859 0.0
C4774 C 0.06561 0.56835 0.54927 0.0
C4775 C 0.07276 0.57898 0.53251 0.0
H4776 H 0.07146 0.54535 0.57158 0.0
H4777 H 0.14731 0.65428 0.41544 0.0
H4778 H 0.47544 0.40418 0.61299 0.0
H4779 H 0.51012 0.41516 0.62515 0.0
H4780 H 0.48793 0.44745 0.67589 0.0
H4781 H 0.45313 0.43676 0.66379 0.0
H4782 H 0.51916 0.46911 0.65996 0.0
H4783 H 0.50398 0.3999 0.68212 0.0
H4784 H 0.49275 0.36274 0.67864 0.0
H4785 H 0.54066 0.35363 0.63926 0.0
H4786 H 0.55209 0.3908 0.64234 0.0
H4787 H 0.61288 0.48786 0.70897 0.0
H4788 H 0.58049 0.46695 0.70748 0.0
H4789 H 0.59381 0.44094 0.6497 0.0
H4790 H 0.62588 0.46243 0.65083 0.0
H4791 H 0.56636 0.41459 0.67362 0.0
H4792 H 0.57694 0.48427 0.64663 0.0
H4793 H 0.5863 0.5219 0.64743 0.0
H4794 H 0.54575 0.53009 0.69471 0.0
H4795 H 0.5362 0.49244 0.69427 0.0
C4796 C 0.47786 0.41404 0.62647 0.0
C4797 C 0.46151 0.41938 0.63758 0.0
C4798 C 0.49771 0.42005 0.63353 0.0
C4799 C 0.50149 0.43152 0.65173 0.0
C4800 C 0.48524 0.43829 0.66197 0.0
C4801 C 0.46538 0.43225 0.65497 0.0
C4802 C 0.52242 0.43633 0.66022 0.0
C4803 C 0.52936 0.45718 0.66337 0.0
C4804 C 0.53571 0.42065 0.6643 0.0
C4805 C 0.5288 0.39824 0.66233 0.0
C4806 C 0.51203 0.39003 0.67257 0.0
C4807 C 0.50564 0.36894 0.6707 0.0
C4808 C 0.51593 0.35584 0.65867 0.0
C4809 C 0.53268 0.3638 0.64854 0.0
C4810 C 0.53914 0.38488 0.65038 0.0
C4811 C 0.60953 0.4766 0.69666 0.0
C4812 C 0.62167 0.47673 0.67993 0.0
C4813 C 0.59092 0.46485 0.69573 0.0
C4814 C 0.58469 0.45286 0.67826 0.0
C4815 C 0.59841 0.45022 0.66324 0.0
C4816 C 0.6168 0.46234 0.66396 0.0
C4817 C 0.56299 0.44734 0.67329 0.0
C4818 C 0.55596 0.42643 0.67067 0.0
C4819 C 0.54953 0.46296 0.66962 0.0
C4820 C 0.55621 0.48544 0.67075 0.0
C4821 C 0.57032 0.49402 0.65749 0.0
C4822 C 0.57559 0.51538 0.65781 0.0
C4823 C 0.56683 0.52836 0.67129 0.0
C4824 C 0.55268 0.52 0.68441 0.0
C4825 C 0.54733 0.49866 0.68413 0.0
H4826 H 0.57092 0.54489 0.67149 0.0
H4827 H 0.51096 0.33952 0.65723 0.0
H4828 H 0.72425 0.50785 0.90547 0.0
H4829 H 0.71492 0.5387 0.92404 0.0
H4830 H 0.73524 0.57734 0.8754 0.0
H4831 H 0.7441 0.54672 0.85684 0.0
H4832 H 0.75533 0.58675 0.91434 0.0
H4833 H 0.6895 0.57711 0.88111 0.0
H4834 H 0.65726 0.55771 0.86958 0.0
H4835 H 0.6429 0.54811 0.93149 0.0
H4836 H 0.67523 0.56727 0.94341 0.0
H4837 H 0.72608 0.68705 0.93962 0.0
H4838 H 0.7315 0.65376 0.92363 0.0
H4839 H 0.70972 0.62185 0.9759 0.0
H4840 H 0.70455 0.65514 0.99216 0.0
H4841 H 0.68987 0.60763 0.93717 0.0
H4842 H 0.75719 0.62043 0.96923 0.0
H4843 H 0.78928 0.64144 0.97806 0.0
H4844 H 0.80038 0.64685 0.91485 0.0
H4845 H 0.76824 0.62603 0.90563 0.0
C4846 C 0.72586 0.52287 0.8985 0.0
C4847 C 0.73457 0.52509 0.87973 0.0
C4848 C 0.7207 0.54043 0.90909 0.0
C4849 C 0.72458 0.56025 0.9011 0.0
C4850 C 0.73218 0.56219 0.8818 0.0
C4851 C 0.73706 0.54473 0.87117 0.0
C4852 C 0.72306 0.57912 0.91365 0.0
C4853 C 0.741 0.5914 0.91924 0.0
C4854 C 0.7044 0.58493 0.92018 0.0
C4855 C 0.68492 0.5734 0.91316 0.0
C4856 C 0.67958 0.57068 0.89228 0.0
C4857 C 0.66126 0.55978 0.88567 0.0
C4858 C 0.64807 0.55162 0.8998 0.0
C4859 C 0.65315 0.55441 0.92057 0.0
C4860 C 0.67147 0.56532 0.92727 0.0
C4861 C 0.72293 0.67298 0.94793 0.0
C4862 C 0.71494 0.6737 0.96715 0.0
C4863 C 0.72594 0.65398 0.93874 0.0
C4864 C 0.72082 0.63537 0.94853 0.0
C4865 C 0.71364 0.63605 0.96808 0.0
C4866 C 0.71093 0.65509 0.97742 0.0
C4867 C 0.72217 0.61528 0.93785 0.0
C4868 C 0.70422 0.6028 0.93253 0.0
C4869 C 0.7408 0.60942 0.93124 0.0
C4870 C 0.76024 0.62179 0.93674 0.0
C4871 C 0.76641 0.62621 0.95721 0.0
C4872 C 0.78463 0.63805 0.96228 0.0
C4873 C 0.79684 0.64551 0.94702 0.0
C4874 C 0.7909 0.64107 0.92665 0.0
C4875 C 0.77271 0.62921 0.9215 0.0
H4876 H 0.81093 0.65469 0.95098 0.0
H4877 H 0.63389 0.54318 0.89466 0.0
H4878 H 0.5628 0.04942 0.38282 0.0
H4879 H 0.59785 0.04287 0.37684 0.0
H4880 H 0.57999 0.97716 0.37281 0.0
H4881 H 0.54659 0.9837 0.38254 0.0
H4882 H 0.61431 0.97666 0.37624 0.0
H4883 H 0.57807 0.0175 0.32953 0.0
H4884 H 0.55949 0.04673 0.31714 0.0
H4885 H 0.61186 0.08878 0.33208 0.0
H4886 H 0.63073 0.05978 0.34466 0.0
H4887 H 0.66996 0.95905 0.28698 0.0
H4888 H 0.64301 0.96541 0.30955 0.0
H4889 H 0.68081 0.01567 0.33901 0.0
H4890 H 0.70783 0.00951 0.31664 0.0
H4891 H 0.63942 0.02466 0.32385 0.0
H4892 H 0.67335 0.97103 0.36457 0.0
H4893 H 0.68556 0.93609 0.36243 0.0
H4894 H 0.6258 0.91069 0.34241 0.0
H4895 H 0.61325 0.94545 0.3444 0.0
C4896 C 0.56692 0.03359 0.38221 0.0
C4897 C 0.55203 0.01704 0.38314 0.0
C4898 C 0.5868 0.02978 0.37799 0.0
C4899 C 0.5915 0.00957 0.37275 0.0
C4900 C 0.57716 0.993 0.37633 0.0
C4901 C 0.55787 0.99674 0.3821 0.0
C4902 C 0.60992 0.00572 0.36143 0.0
C4903 C 0.61952 0.9873 0.36479 0.0
C4904 C 0.61695 0.01901 0.34587 0.0
C4905 C 0.6057 0.03652 0.33832 0.0
C4906 C 0.58558 0.033 0.33027 0.0
C4907 C 0.575 0.04953 0.32321 0.0
C4908 C 0.58444 0.06962 0.32394 0.0
C4909 C 0.60454 0.07322 0.33161 0.0
C4910 C 0.61519 0.05674 0.33868 0.0
C4911 C 0.67272 0.97123 0.29848 0.0
C4912 C 0.69115 0.98375 0.29991 0.0
C4913 C 0.65726 0.97487 0.31134 0.0
C4914 C 0.65991 0.99104 0.32593 0.0
C4915 C 0.67844 0.00314 0.32783 0.0
C4916 C 0.69394 -0.00053 0.31508 0.0
C4917 C 0.64316 0.99588 0.33876 0.0
C4918 C 0.63404 0.01441 0.33558 0.0
C4919 C 0.63538 0.98187 0.35307 0.0
C4920 C 0.6424 0.9608 0.35463 0.0
C4921 C 0.66279 0.95794 0.35996 0.0
C4922 C 0.66978 0.9382 0.35867 0.0
C4923 C 0.65651 0.92126 0.35206 0.0
C4924 C 0.63607 0.92386 0.34741 0.0
C4925 C 0.62899 0.94355 0.34873 0.0
H4926 H 0.66211 0.90613 0.35046 0.0
H4927 H 0.57621 0.0824 0.3185 0.0
H4928 H 0.59731 0.19262 0.07802 0.0
H4929 H 0.58321 0.20641 0.10811 0.0
H4930 H 0.63722 0.24769 0.11972 0.0
H4931 H 0.65166 0.23349 0.08956 0.0
H4932 H 0.62821 0.22508 0.15288 0.0
H4933 H 0.59394 0.26817 0.10779 0.0
H4934 H 0.57463 0.27629 0.07629 0.0
H4935 H 0.52446 0.23512 0.0927 0.0
H4936 H 0.54359 0.22658 0.12425 0.0
H4937 H 0.59275 0.29321 0.22198 0.0
H4938 H 0.60349 0.27563 0.19254 0.0
H4939 H 0.55464 0.22802 0.19663 0.0
H4940 H 0.54343 0.2458 0.22687 0.0
H4941 H 0.55985 0.25042 0.15674 0.0
H4942 H 0.5974 0.21254 0.20669 0.0
H4943 H 0.61889 0.21093 0.23831 0.0
H4944 H 0.66575 0.25016 0.21281 0.0
H4945 H 0.64445 0.25223 0.18111 0.0
C4946 C 0.60586 0.20519 0.08655 0.0
C4947 C 0.6255 0.21206 0.08153 0.0
C4948 C 0.59786 0.21296 0.10381 0.0
C4949 C 0.60927 0.22791 0.1162 0.0
C4950 C 0.62829 0.23602 0.11036 0.0
C4951 C 0.63634 0.22821 0.09297 0.0
C4952 C 0.60164 0.23391 0.13581 0.0
C4953 C 0.61334 0.23076 0.15375 0.0
C4954 C 0.58215 0.24104 0.13686 0.0
C4955 C 0.57024 0.24663 0.11831 0.0
C4956 C 0.5788 0.2608 0.10465 0.0
C4957 C 0.5679 0.26548 0.08679 0.0
C4958 C 0.54834 0.25619 0.08247 0.0
C4959 C 0.53961 0.2423 0.09607 0.0
C4960 C 0.55046 0.23756 0.11398 0.0
C4961 C 0.58418 0.27895 0.21688 0.0
C4962 C 0.56704 0.27099 0.22672 0.0
C4963 C 0.59051 0.26886 0.20006 0.0
C4964 C 0.57992 0.25056 0.19261 0.0
C4965 C 0.56297 0.24218 0.20238 0.0
C4966 C 0.55664 0.25228 0.21957 0.0
C4967 C 0.58633 0.24146 0.17376 0.0
C4968 C 0.57449 0.24421 0.15587 0.0
C4969 C 0.60599 0.23467 0.17279 0.0
C4970 C 0.61929 0.23253 0.19148 0.0
C4971 C 0.61228 0.22083 0.20781 0.0
C4972 C 0.62443 0.21985 0.22577 0.0
C4973 C 0.64367 0.23044 0.22757 0.0
C4974 C 0.65085 0.24193 0.21137 0.0
C4975 C 0.63877 0.24295 0.19338 0.0
H4976 H 0.65301 0.22974 0.24151 0.0
H4977 H 0.53994 0.25978 0.0686 0.0
H4978 H 0.96508 0.84165 0.21416 0.0
H4979 H 0.95822 0.85171 0.17914 0.0
H4980 H 0.99684 0.80631 0.1585 0.0
H4981 H 0.00429 0.79653 0.19361 0.0
H4982 H 0.0061 0.83928 0.14044 0.0
H4983 H 0.94343 0.80107 0.14966 0.0
H4984 H 0.91277 0.79038 0.16749 0.0
H4985 H 0.89273 0.85149 0.1617 0.0
H4986 H 0.92342 0.86263 0.14402 0.0
H4987 H 0.95755 0.84629 0.03561 0.0
H4988 H 0.95473 0.83352 0.0703 0.0
H4989 H 0.97938 0.89308 0.09434 0.0
H4990 H 0.98428 0.90505 0.05987 0.0
H4991 H 0.93803 0.8502 0.1091 0.0
H4992 H 0.01204 0.88584 0.10736 0.0
H4993 H 0.04302 0.89021 0.08837 0.0
H4994 H 0.04083 0.82443 0.07812 0.0
H4995 H 0.00934 0.81982 0.09635 0.0
C4996 C 0.97173 0.8334 0.20215 0.0
C4997 C 0.98522 0.81824 0.20673 0.0
C4998 C 0.9678 0.83921 0.18206 0.0
C4999 C 0.9769 0.82965 0.16605 0.0
C5000 C 0.98968 0.8139 0.17055 0.0
C5001 C 0.99382 0.80826 0.19064 0.0
C5002 C 0.97398 0.83681 0.14477 0.0
C5003 C 0.99116 0.84159 0.1337 0.0
C5004 C 0.95454 0.83948 0.13556 0.0
C5005 C 0.93577 0.83272 0.14562 0.0
C5006 C 0.93251 0.81225 0.15223 0.0
C5007 C 0.91513 0.80611 0.16232 0.0
C5008 C 0.90083 0.82026 0.16575 0.0
C5009 C 0.90383 0.84055 0.15902 0.0
C5010 C 0.92119 0.84678 0.14893 0.0
C5011 C 0.96218 0.85665 0.04833 0.0
C5012 C 0.97201 0.87624 0.0451 0.0
C5013 C 0.96051 0.8494 0.06811 0.0
C5014 C 0.96779 0.86208 0.08483 0.0
C5015 C 0.97458 0.88275 0.0816 0.0
C5016 C 0.97701 0.8897 0.0619 0.0
C5017 C 0.97014 0.85333 0.10538 0.0
C5018 C 0.95288 0.84801 0.1161 0.0
C5019 C 0.98947 0.84957 0.11411 0.0
C5020 C 0.00804 0.85256 0.1027 0.0
C5021 C 0.01789 0.87238 0.10064 0.0
C5022 C 0.03558 0.87489 0.09008 0.0
C5023 C 0.04384 0.85762 0.08199 0.0
C5024 C 0.03434 0.83781 0.08429 0.0
C5025 C 0.0165 0.83526 0.0946 0.0
H5026 H 0.05769 0.85959 0.0741 0.0
H5027 H 0.88741 0.81549 0.17361 0.0
H5028 H 0.49902 0.25046 0.3182 0.0
H5029 H 0.49511 0.23115 0.34968 0.0
H5030 H 0.55683 0.215 0.34831 0.0
H5031 H 0.56095 0.23452 0.31726 0.0
H5032 H 0.52625 0.18143 0.35641 0.0
H5033 H 0.54943 0.25339 0.37604 0.0
H5034 H 0.5467 0.29103 0.37933 0.0
H5035 H 0.49139 0.28 0.40953 0.0
H5036 H 0.49362 0.24228 0.40617 0.0
H5037 H 0.55279 0.19069 0.47362 0.0
H5038 H 0.5557 0.19904 0.43782 0.0
H5039 H 0.50168 0.159 0.4222 0.0
H5040 H 0.49965 0.14966 0.45759 0.0
H5041 H 0.52408 0.21967 0.42184 0.0
H5042 H 0.49612 0.14838 0.3844 0.0
H5043 H 0.49933 0.11071 0.3817 0.0
H5044 H 0.56418 0.12156 0.38688 0.0
H5045 H 0.56124 0.15926 0.39007 0.0
C5046 C 0.51153 0.24227 0.32435 0.0
C5047 C 0.53023 0.24372 0.31526 0.0
C5048 C 0.50936 0.23154 0.34241 0.0
C5049 C 0.52576 0.22188 0.35128 0.0
C5050 C 0.54405 0.22242 0.34163 0.0
C5051 C 0.54634 0.23342 0.32386 0.0
C5052 C 0.52431 0.21127 0.37075 0.0
C5053 C 0.52561 0.18978 0.37072 0.0
C5054 C 0.52326 0.22221 0.38934 0.0
C5055 C 0.5215 0.24495 0.39049 0.0
C5056 C 0.53649 0.25896 0.38306 0.0
C5057 C 0.5351 0.28033 0.38504 0.0
C5058 C 0.51884 0.2879 0.39455 0.0
C5059 C 0.50394 0.27412 0.4021 0.0
C5060 C 0.50526 0.25275 0.40014 0.0
C5061 C 0.54256 0.18246 0.46228 0.0
C5062 C 0.52623 0.1693 0.46818 0.0
C5063 C 0.54396 0.18752 0.4419 0.0
C5064 C 0.52886 0.1797 0.42731 0.0
C5065 C 0.51382 0.16479 0.43296 0.0
C5066 C 0.51275 0.15933 0.45325 0.0
C5067 C 0.52676 0.18992 0.40751 0.0
C5068 C 0.52451 0.21132 0.4075 0.0
C5069 C 0.52664 0.17897 0.38886 0.0
C5070 C 0.52847 0.15645 0.38779 0.0
C5071 C 0.51103 0.14264 0.38514 0.0
C5072 C 0.5128 0.12133 0.38355 0.0
C5073 C 0.53195 0.11374 0.38419 0.0
C5074 C 0.54936 0.12745 0.38653 0.0
C5075 C 0.54766 0.14877 0.38837 0.0
H5076 H 0.5333 0.09724 0.38281 0.0
H5077 H 0.51783 0.30444 0.39614 0.0
H5078 H 0.85252 0.75253 0.52495 0.0
H5079 H 0.86853 0.73809 0.55588 0.0
H5080 H 0.8653 0.79646 0.58751 0.0
H5081 H 0.8501 0.81074 0.55713 0.0
H5082 H 0.90286 0.78495 0.59021 0.0
H5083 H 0.83439 0.75277 0.59717 0.0
H5084 H 0.80412 0.72951 0.58682 0.0
H5085 H 0.8404 0.67757 0.58643 0.0
H5086 H 0.87094 0.70058 0.59658 0.0
H5087 H 0.90465 0.76398 0.69946 0.0
H5088 H 0.89062 0.76982 0.66478 0.0
H5089 H 0.93067 0.72766 0.64073 0.0
H5090 H 0.94548 0.72274 0.67487 0.0
H5091 H 0.87839 0.72588 0.63159 0.0
H5092 H 0.947 0.75854 0.62334 0.0
H5093 H 0.97669 0.78176 0.63551 0.0
H5094 H 0.93926 0.83265 0.63841 0.0
H5095 H 0.90924 0.80956 0.62668 0.0
C5096 C 0.85507 0.76203 0.53865 0.0
C5097 C 0.85048 0.78282 0.53863 0.0
C5098 C 0.86417 0.75383 0.55626 0.0
C5099 C 0.86837 0.76633 0.57394 0.0
C5100 C 0.86256 0.78663 0.57402 0.0
C5101 C 0.85386 0.79477 0.55661 0.0
C5102 C 0.88 0.75946 0.59219 0.0
C5103 C 0.89747 0.77194 0.59915 0.0
C5104 C 0.87334 0.74222 0.6037 0.0
C5105 C 0.85501 0.72846 0.59734 0.0
C5106 C 0.83596 0.73643 0.59466 0.0
C5107 C 0.81874 0.72328 0.58889 0.0
C5108 C 0.82035 0.70209 0.58589 0.0
C5109 C 0.83918 0.694 0.58871 0.0
C5110 C 0.85645 0.70709 0.59448 0.0
C5111 C 0.91085 0.75654 0.68667 0.0
C5112 C 0.92649 0.74339 0.68978 0.0
C5113 C 0.90268 0.75962 0.66698 0.0
C5114 C 0.9096 0.74905 0.65031 0.0
C5115 C 0.92525 0.73602 0.6534 0.0
C5116 C 0.93386 0.7335 0.6729 0.0
C5117 C 0.9006 0.75181 0.62962 0.0
C5118 C 0.88382 0.73859 0.62231 0.0
C5119 C 0.90785 0.76829 0.61765 0.0
C5120 C 0.92585 0.78226 0.62447 0.0
C5121 C 0.94506 0.77461 0.62684 0.0
C5122 C 0.96195 0.78776 0.63361 0.0
C5123 C 0.95985 0.80865 0.63783 0.0
C5124 C 0.94085 0.81645 0.63521 0.0
C5125 C 0.9239 0.80333 0.62852 0.0
H5126 H 0.97294 0.81881 0.64304 0.0
H5127 H 0.807 0.69194 0.58144 0.0
H5128 H 0.93168 0.74742 0.78469 0.0
H5129 H 0.93425 0.76904 0.81534 0.0
H5130 H 0.99393 0.74961 0.83037 0.0
H5131 H 0.9909 0.72688 0.8 0.0
H5132 H 0.97489 0.75053 0.86311 0.0
H5133 H 0.98556 0.79929 0.81076 0.0
H5134 H 0.97873 0.81647 0.77829 0.0
H5135 H 0.92202 0.83387 0.79854 0.0
H5136 H 0.9284 0.81657 0.83106 0.0
H5137 H 0.00938 0.83713 0.92651 0.0
H5138 H 0.00275 0.81455 0.89669 0.0
H5139 H 0.93846 0.81549 0.90252 0.0
H5140 H 0.94498 0.83794 0.93317 0.0
H5141 H 0.95819 0.82377 0.86034 0.0
H5142 H 0.95144 0.77522 0.91522 0.0
H5143 H 0.96273 0.76018 0.94763 0.0
H5144 H 0.0178 0.74497 0.92203 0.0
H5145 H 0.00699 0.7602 0.88954 0.0
C5146 C 0.94547 0.7479 0.79438 0.0
C5147 C 0.96121 0.73564 0.7898 0.0
C5148 C 0.94694 0.76033 0.81193 0.0
C5149 C 0.96446 0.76137 0.82503 0.0
C5150 C 0.98027 0.74914 0.8205 0.0
C5151 C 0.97859 0.73626 0.8031 0.0
C5152 C 0.96598 0.77499 0.84355 0.0
C5153 C 0.9714 0.76658 0.86242 0.0
C5154 C 0.96124 0.79595 0.8428 0.0
C5155 C 0.95738 0.80646 0.82328 0.0
C5156 C 0.97157 0.80666 0.80824 0.0
C5157 C 0.96779 0.81644 0.78983 0.0
C5158 C 0.94993 0.82621 0.78633 0.0
C5159 C 0.93584 0.82627 0.80126 0.0
C5160 C 0.93954 0.81651 0.8197 0.0
C5161 C 0.99376 0.83272 0.92147 0.0
C5162 C 0.97766 0.83934 0.93221 0.0
C5163 C 0.99006 0.81971 0.90446 0.0
C5164 C 0.97018 0.81326 0.89759 0.0
C5165 C 0.95393 0.8203 0.90776 0.0
C5166 C 0.95765 0.83311 0.92517 0.0
C5167 C 0.96684 0.79919 0.87966 0.0
C5168 C 0.96133 0.80761 0.86092 0.0
C5169 C 0.97204 0.77846 0.88048 0.0
C5170 C 0.97846 0.76903 0.89996 0.0
C5171 C 0.96604 0.76884 0.91654 0.0
C5172 C 0.97234 0.76024 0.93492 0.0
C5173 C 0.99099 0.75167 0.9369 0.0
C5174 C 0.00336 0.75162 0.92048 0.0
C5175 C 0.99714 0.76021 0.90207 0.0
H5176 H 0.99584 0.74503 0.95115 0.0
H5177 H 0.94702 0.83376 0.77207 0.0
H5178 H 0.33462 0.68869 0.40036 0.0
H5179 H 0.34687 0.6997 0.36748 0.0
H5180 H 0.40091 0.66811 0.37948 0.0
H5181 H 0.38876 0.6569 0.41214 0.0
H5182 H 0.39926 0.71684 0.36808 0.0
H5183 H 0.37503 0.64302 0.35042 0.0
H5184 H 0.34784 0.61491 0.34406 0.0
H5185 H 0.31675 0.65287 0.30188 0.0
H5186 H 0.34363 0.68125 0.30813 0.0
H5187 H 0.46282 0.72997 0.29046 0.0
H5188 H 0.44452 0.71221 0.31718 0.0
H5189 H 0.38921 0.70985 0.27898 0.0
H5190 H 0.40783 0.72632 0.25195 0.0
H5191 H 0.38544 0.67975 0.30178 0.0
H5192 H 0.40308 0.75071 0.31442 0.0
H5193 H 0.42 0.7855 0.32205 0.0
H5194 H 0.45348 0.76183 0.37296 0.0
H5195 H 0.43714 0.72682 0.3654 0.0
C5196 C 0.34939 0.68465 0.39622 0.0
C5197 C 0.36099 0.6723 0.40888 0.0
C5198 C 0.35604 0.69043 0.37726 0.0
C5199 C 0.37436 0.684 0.37095 0.0
C5200 C 0.38644 0.67266 0.38401 0.0
C5201 C 0.37974 0.66671 0.40278 0.0
C5202 C 0.38258 0.69134 0.35199 0.0
C5203 C 0.39654 0.70865 0.35356 0.0
C5204 C 0.3777 0.6813 0.33298 0.0
C5205 C 0.36125 0.66437 0.32994 0.0
C5206 C 0.36226 0.6455 0.34002 0.0
C5207 C 0.34694 0.62946 0.33635 0.0
C5208 C 0.33057 0.63212 0.3226 0.0
C5209 C 0.32942 0.65083 0.31254 0.0
C5210 C 0.3447 0.66687 0.31613 0.0
C5211 C 0.44702 0.72459 0.28747 0.0
C5212 C 0.43664 0.72942 0.26931 0.0
C5213 C 0.43645 0.71488 0.30285 0.0
C5214 C 0.41531 0.71049 0.30039 0.0
C5215 C 0.40543 0.71332 0.28138 0.0
C5216 C 0.41608 0.72266 0.2659 0.0
C5217 C 0.4034 0.70472 0.31806 0.0
C5218 C 0.38847 0.68795 0.31624 0.0
C5219 C 0.40662 0.7159 0.33678 0.0
C5220 C 0.41894 0.73607 0.33925 0.0
C5221 C 0.41442 0.75279 0.32693 0.0
C5222 C 0.42379 0.7726 0.33134 0.0
C5223 C 0.4376 0.77589 0.34811 0.0
C5224 C 0.44267 0.75927 0.36006 0.0
C5225 C 0.43343 0.73944 0.35566 0.0
H5226 H 0.44432 0.79134 0.3519 0.0
H5227 H 0.31882 0.61966 0.31966 0.0
H5228 H 0.60383 0.16723 0.00302 0.0
H5229 H 0.59318 0.17871 0.96889 0.0
H5230 H 0.65317 0.17173 0.94919 0.0
H5231 H 0.66336 0.15906 0.98272 0.0
H5232 H 0.63242 0.21362 0.94194 0.0
H5233 H 0.62621 0.13738 0.93317 0.0
H5234 H 0.61255 0.10271 0.94308 0.0
H5235 H 0.55189 0.12064 0.93328 0.0
H5236 H 0.56525 0.15557 0.92365 0.0
H5237 H 0.59609 0.17804 0.83018 0.0
H5238 H 0.61694 0.17823 0.86203 0.0
H5239 H 0.58494 0.22812 0.88514 0.0
H5240 H 0.56513 0.2287 0.85305 0.0
H5241 H 0.59145 0.16707 0.89209 0.0
H5242 H 0.60039 0.24576 0.91784 0.0
H5243 H 0.61316 0.28163 0.91067 0.0
H5244 H 0.66715 0.25948 0.88833 0.0
H5245 H 0.65439 0.22344 0.89493 0.0
C5246 C 0.6145 0.16781 0.99119 0.0
C5247 C 0.63429 0.16217 0.99517 0.0
C5248 C 0.60854 0.17452 0.97192 0.0
C5249 C 0.62256 0.17629 0.95682 0.0
C5250 C 0.64228 0.17059 0.96082 0.0
C5251 C 0.64801 0.16321 0.9798 0.0
C5252 C 0.61664 0.18344 0.93651 0.0
C5253 C 0.6235 0.2035 0.93095 0.0
C5254 C 0.60478 0.17026 0.92249 0.0
C5255 C 0.59674 0.14916 0.92793 0.0
C5256 C 0.60997 0.134 0.93332 0.0
C5257 C 0.60228 0.11429 0.93885 0.0
C5258 C 0.58136 0.10949 0.93887 0.0
C5259 C 0.56809 0.12438 0.93329 0.0
C5260 C 0.57571 0.14414 0.92779 0.0
C5261 C 0.59472 0.19008 0.84149 0.0
C5262 C 0.57922 0.20343 0.83929 0.0
C5263 C 0.60646 0.19009 0.85976 0.0
C5264 C 0.60245 0.20315 0.87603 0.0
C5265 C 0.58875 0.21828 0.87277 0.0
C5266 C 0.57735 0.21857 0.85437 0.0
C5267 C 0.60793 0.19709 0.897 0.0
C5268 C 0.60057 0.17724 0.9029 0.0
C5269 C 0.61901 0.2106 0.91139 0.0
C5270 C 0.6263 0.23199 0.90649 0.0
C5271 C 0.61487 0.24858 0.91116 0.0
C5272 C 0.62209 0.26891 0.9072 0.0
C5273 C 0.64092 0.27283 0.89895 0.0
C5274 C 0.6525 0.25641 0.89456 0.0
C5275 C 0.64522 0.23602 0.89827 0.0
H5276 H 0.64656 0.28858 0.89604 0.0
H5277 H 0.57544 0.09423 0.94316 0.0
H5278 H 0.23526 0.98852 0.81102 0.0
H5279 H 0.20167 0.97726 0.82296 0.0
H5280 H 0.19439 0.03972 0.84285 0.0
H5281 H 0.22742 0.05118 0.83051 0.0
H5282 H 0.18677 0.99421 0.87102 0.0
H5283 H 0.16054 0.04217 0.81793 0.0
H5284 H 0.16837 0.05672 0.78469 0.0
H5285 H 0.16685 0.99533 0.75882 0.0
H5286 H 0.1592 0.98044 0.79207 0.0
H5287 H 0.0822 0.00454 0.89334 0.0
H5288 H 0.11788 0.00929 0.88516 0.0
H5289 H 0.10794 0.95924 0.84103 0.0
H5290 H 0.0727 0.95389 0.84952 0.0
H5291 H 0.1254 0.99587 0.82483 0.0
H5292 H 0.13697 0.95229 0.88109 0.0
H5293 H 0.13388 0.94129 0.9162 0.0
H5294 H 0.16591 0.9984 0.93811 0.0
H5295 H 0.16866 0.00998 0.90286 0.0
C5296 C 0.22643 -0.00016 0.81784 0.0
C5297 C 0.23394 0.02078 0.81964 0.0
C5298 C 0.20733 0.99338 0.82475 0.0
C5299 C 0.19567 0.00765 0.83396 0.0
C5300 C 0.20318 0.02847 0.83585 0.0
C5301 C 0.22199 0.035 0.82861 0.0
C5302 C 0.17527 0.00109 0.84095 0.0
C5303 C 0.17328 0.99473 0.861 0.0
C5304 C 0.15775 0.00173 0.8279 0.0
C5305 C 0.15928 0.01026 0.80736 0.0
C5306 C 0.16157 0.03181 0.80505 0.0
C5307 C 0.16612 0.0401 0.78629 0.0
C5308 C 0.1683 0.02695 0.76974 0.0
C5309 C 0.16529 0.00548 0.77172 0.0
C5310 C 0.1608 0.9971 0.79051 0.0
C5311 C 0.08778 0.99399 0.88249 0.0
C5312 C 0.07439 0.9788 0.87217 0.0
C5313 C 0.10818 0.99688 0.87765 0.0
C5314 C 0.11559 0.98481 0.86224 0.0
C5315 C 0.10261 0.96886 0.85284 0.0
C5316 C 0.08242 0.96566 0.85797 0.0
C5317 C 0.13647 0.98951 0.85512 0.0
C5318 C 0.13868 0.99549 0.83493 0.0
C5319 C 0.15409 0.98903 0.86825 0.0
C5320 C 0.15285 0.98206 0.88939 0.0
C5321 C 0.14323 0.96256 0.8934 0.0
C5322 C 0.14157 0.95622 0.91337 0.0
C5323 C 0.14973 0.96915 0.92949 0.0
C5324 C 0.1596 0.98842 0.92562 0.0
C5325 C 0.16119 0.99489 0.90564 0.0
H5326 H 0.14841 0.96434 0.945 0.0
H5327 H 0.1725 0.03344 0.75546 0.0
H5328 H 0.83549 0.91463 0.97395 0.0
H5329 H 0.81405 0.88162 0.9715 0.0
H5330 H 0.77945 0.90227 0.0201 0.0
H5331 H 0.79979 0.93534 0.02187 0.0
H5332 H 0.80503 0.86009 0.02059 0.0
H5333 H 0.75096 0.89878 0.99375 0.0
H5334 H 0.73436 0.92244 0.97055 0.0
H5335 H 0.74211 0.88178 0.92008 0.0
H5336 H 0.75939 0.85816 0.94298 0.0
H5337 H 0.72487 0.78241 0.03646 0.0
H5338 H 0.74619 0.81462 0.03332 0.0
H5339 H 0.75806 0.79695 0.97217 0.0
H5340 H 0.73673 0.76464 0.97513 0.0
H5341 H 0.74407 0.83749 0.97615 0.0
H5342 H 0.79519 0.79652 0.00781 0.0
H5343 H 0.80696 0.77341 0.03456 0.0
H5344 H 0.79935 0.81982 0.08005 0.0
H5345 H 0.78732 0.84312 0.05357 0.0
C5346 C 0.82293 0.91229 0.98365 0.0
C5347 C 0.81925 0.92759 0.998 0.0
C5348 C 0.81072 0.8935 0.98225 0.0
C5349 C 0.79504 0.88967 0.99548 0.0
C5350 C 0.79118 0.90509 0.00949 0.0
C5351 C 0.80288 0.92399 0.01046 0.0
C5352 C 0.78429 0.86882 0.99652 0.0
C5353 C 0.79172 0.85512 0.01085 0.0
C5354 C 0.76678 0.86253 0.98399 0.0
C5355 C 0.75706 0.87701 0.97002 0.0
C5356 C 0.74966 0.89515 0.97765 0.0
C5357 C 0.73998 0.90849 0.96456 0.0
C5358 C 0.73733 0.90371 0.94382 0.0
C5359 C 0.74432 0.88554 0.93613 0.0
C5360 C 0.75411 0.8722 0.94916 0.0
C5361 C 0.73242 0.7851 0.02251 0.0
C5362 C 0.7291 0.77088 0.00607 0.0
C5363 C 0.74453 0.80358 0.02071 0.0
C5364 C 0.75357 0.80824 0.00244 0.0
C5365 C 0.75111 0.79368 0.98634 0.0
C5366 C 0.73914 0.77508 0.98819 0.0
C5367 C 0.76503 0.82862 1e-05 0.0
C5368 C 0.75764 0.8423 0.98556 0.0
C5369 C 0.78222 0.83517 0.01288 0.0
C5370 C 0.79032 0.82154 0.02871 0.0
C5371 C 0.79602 0.80179 0.02352 0.0
C5372 C 0.80272 0.78865 0.03863 0.0
C5373 C 0.80388 0.79514 0.05899 0.0
C5374 C 0.79846 0.81482 0.06427 0.0
C5375 C 0.79175 0.82802 0.04921 0.0
H5376 H 0.80901 0.78492 0.07068 0.0
H5377 H 0.72975 0.914 0.93372 0.0
H5378 H 0.72424 0.51161 0.09452 0.0
H5379 H 0.6916 0.52606 0.09461 0.0
H5380 H 0.70456 0.54672 0.15685 0.0
H5381 H 0.73729 0.5314 0.1571 0.0
H5382 H 0.66704 0.52864 0.15111 0.0
H5383 H 0.70556 0.58203 0.11692 0.0
H5384 H 0.7298 0.5935 0.09164 0.0
H5385 H 0.68852 0.56768 0.04357 0.0
H5386 H 0.6641 0.55588 0.06858 0.0
H5387 H 0.57787 0.57955 0.14841 0.0
H5388 H 0.61444 0.58255 0.14504 0.0
H5389 H 0.60691 0.53899 0.09463 0.0
H5390 H 0.57038 0.53552 0.09837 0.0
H5391 H 0.64341 0.57438 0.09652 0.0
H5392 H 0.61964 0.50714 0.13148 0.0
H5393 H 0.60125 0.48649 0.15671 0.0
H5394 H 0.6157 0.53504 0.20141 0.0
H5395 H 0.6343 0.55595 0.17647 0.0
C5396 C 0.72031 0.51942 0.1082 0.0
C5397 C 0.73344 0.52058 0.12575 0.0
C5398 C 0.70164 0.52779 0.10818 0.0
C5399 C 0.69584 0.53801 0.12554 0.0
C5400 C 0.70885 0.53913 0.14319 0.0
C5401 C 0.72753 0.53042 0.14332 0.0
C5402 C 0.67568 0.54648 0.12532 0.0
C5403 C 0.66213 0.53917 0.13954 0.0
C5404 C 0.66901 0.55969 0.10982 0.0
C5405 C 0.68298 0.56812 0.09464 0.0
C5406 C 0.70161 0.57889 0.10095 0.0
C5407 C 0.71541 0.5854 0.08667 0.0
C5408 C 0.7107 0.58132 0.06601 0.0
C5409 C 0.69212 0.57087 0.05957 0.0
C5410 C 0.67825 0.56434 0.07379 0.0
C5411 C 0.58379 0.57184 0.13561 0.0
C5412 C 0.57131 0.55706 0.12385 0.0
C5413 C 0.6048 0.57323 0.13399 0.0
C5414 C 0.61335 0.56061 0.11991 0.0
C5415 C 0.60058 0.54878 0.10567 0.0
C5416 C 0.5796 0.54715 0.10753 0.0
C5417 C 0.63501 0.55666 0.12248 0.0
C5418 C 0.64868 0.56457 0.10854 0.0
C5419 C 0.64187 0.54385 0.13814 0.0
C5420 C 0.62803 0.53318 0.15208 0.0
C5421 C 0.61846 0.51359 0.14657 0.0
C5422 C 0.60813 0.5018 0.16085 0.0
C5423 C 0.60724 0.50953 0.18064 0.0
C5424 C 0.61632 0.52919 0.18606 0.0
C5425 C 0.62674 0.54102 0.17187 0.0
H5426 H 0.59973 0.50021 0.19184 0.0
H5427 H 0.72146 0.58626 0.05499 0.0
H5428 H 0.20895 0.2816 0.48153 0.0
H5429 H 0.18381 0.30677 0.48214 0.0
H5430 H 0.15118 0.27622 0.43014 0.0
H5431 H 0.17687 0.2506 0.42936 0.0
H5432 H 0.15561 0.32046 0.42892 0.0
H5433 H 0.1342 0.26876 0.47894 0.0
H5434 H 0.14122 0.24783 0.50908 0.0
H5435 H 0.15932 0.30318 0.54439 0.0
H5436 H 0.15255 0.32441 0.51447 0.0
H5437 H 0.08941 0.39386 0.43474 0.0
H5438 H 0.09575 0.35727 0.43613 0.0
H5439 H 0.12749 0.36825 0.49472 0.0
H5440 H 0.11949 0.40425 0.49406 0.0
H5441 H 0.11883 0.32938 0.49147 0.0
H5442 H 0.15306 0.37815 0.45085 0.0
H5443 H 0.156 0.40611 0.42604 0.0
H5444 H 0.12625 0.36542 0.37957 0.0
H5445 H 0.12324 0.33707 0.40416 0.0
C5446 C 0.19652 0.28026 0.47005 0.0
C5447 C 0.19481 0.26403 0.45544 0.0
C5448 C 0.18203 0.29459 0.47058 0.0
C5449 C 0.16519 0.293 0.45667 0.0
C5450 C 0.16389 0.27749 0.44128 0.0
C5451 C 0.17863 0.26301 0.44067 0.0
C5452 C 0.1495 0.30809 0.45818 0.0
C5453 C 0.147 0.32191 0.44229 0.0
C5454 C 0.1394 0.31102 0.47629 0.0
C5455 C 0.14284 0.29817 0.49442 0.0
C5456 C 0.13968 0.27646 0.49312 0.0
C5457 C 0.14362 0.26454 0.51018 0.0
C5458 C 0.15071 0.27417 0.52863 0.0
C5459 C 0.15379 0.29573 0.5301 0.0
C5460 C 0.14984 0.30771 0.51312 0.0
C5461 C 0.09637 0.38811 0.44856 0.0
C5462 C 0.10432 0.40199 0.46411 0.0
C5463 C 0.10042 0.36722 0.44918 0.0
C5464 C 0.11314 0.36019 0.46501 0.0
C5465 C 0.11806 0.37326 0.48208 0.0
C5466 C 0.11344 0.39396 0.48171 0.0
C5467 C 0.1246 0.3415 0.46199 0.0
C5468 C 0.12666 0.32731 0.4777 0.0
C5469 C 0.13554 0.33903 0.44437 0.0
C5470 C 0.13772 0.35562 0.42933 0.0
C5471 C 0.14711 0.37519 0.43534 0.0
C5472 C 0.14875 0.39108 0.42138 0.0
C5473 C 0.14112 0.38754 0.40136 0.0
C5474 C 0.13205 0.36808 0.39515 0.0
C5475 C 0.13043 0.35207 0.40907 0.0
H5476 H 0.14247 0.39985 0.39064 0.0
H5477 H 0.15381 0.26491 0.54179 0.0
H5478 H 0.28282 -0.00067 0.33997 0.0
H5479 H 0.31918 0.00715 0.34712 0.0
H5480 H 0.30824 0.02896 0.40728 0.0
H5481 H 0.27164 0.02186 0.39989 0.0
H5482 H 0.33779 0.05257 0.39185 0.0
H5483 H 0.32259 0.97769 0.39599 0.0
H5484 H 0.30811 0.94425 0.38088 0.0
H5485 H 0.34832 0.95105 0.33229 0.0
H5486 H 0.36288 0.98462 0.347 0.0
H5487 H 0.44124 0.01398 0.43032 0.0
H5488 H 0.40403 0.0154 0.42695 0.0
H5489 H 0.40921 0.04192 0.36795 0.0
H5490 H 0.44553 0.04305 0.37207 0.0
H5491 H 0.38241 0.99554 0.38413 0.0
H5492 H 0.39642 0.0711 0.37807 0.0
H5493 H 0.40559 0.10746 0.38762 0.0
H5494 H 0.36157 0.1038 0.4327 0.0
H5495 H 0.35478 0.06645 0.42595 0.0
C5496 C 0.28811 0.00601 0.35467 0.0
C5497 C 0.27429 0.00975 0.36945 0.0
C5498 C 0.30898 0.01033 0.3588 0.0
C5499 C 0.31662 0.01801 0.378 0.0
C5500 C 0.30279 0.0228 0.39242 0.0
C5501 C 0.28184 0.0188 0.38817 0.0
C5502 C 0.33895 0.02067 0.38323 0.0
C5503 C 0.34756 0.04004 0.39054 0.0
C5504 C 0.35178 0.00445 0.38078 0.0
C5505 C 0.34379 0.9837 0.37259 0.0
C5506 C 0.32837 0.97202 0.38211 0.0
C5507 C 0.32012 0.95307 0.37359 0.0
C5508 C 0.32728 0.94554 0.35563 0.0
C5509 C 0.3428 0.95688 0.34622 0.0
C5510 C 0.35109 0.97586 0.35466 0.0
C5511 C 0.43447 0.02121 0.41721 0.0
C5512 C 0.44669 0.02902 0.40188 0.0
C5513 C 0.41319 0.02195 0.41522 0.0
C5514 C 0.40377 0.02994 0.39764 0.0
C5515 C 0.41598 0.03724 0.38231 0.0
C5516 C 0.43701 0.03756 0.3847 0.0
C5517 C 0.38132 0.02744 0.39345 0.0
C5518 C 0.37268 0.00803 0.38602 0.0
C5519 C 0.36854 0.04387 0.39541 0.0
C5520 C 0.37595 0.06533 0.40218 0.0
C5521 C 0.38997 0.07738 0.39119 0.0
C5522 C 0.39473 0.09836 0.39614 0.0
C5523 C 0.38474 0.10784 0.41134 0.0
C5524 C 0.37012 0.09628 0.42171 0.0
C5525 C 0.36618 0.07508 0.41765 0.0
H5526 H 0.38795 0.12422 0.41475 0.0
H5527 H 0.32081 0.9309 0.34902 0.0
H5528 H 0.71582 0.24041 0.51139 0.0
H5529 H 0.69617 0.20964 0.49741 0.0
H5530 H 0.72476 0.17237 0.54252 0.0
H5531 H 0.74509 0.20315 0.5563 0.0
H5532 H 0.72701 0.15518 0.50709 0.0
H5533 H 0.67342 0.18077 0.54194 0.0
H5534 H 0.65038 0.20609 0.5532 0.0
H5535 H 0.62752 0.21264 0.49162 0.0
H5536 H 0.65063 0.18754 0.47995 0.0
H5537 H 0.64997 0.07054 0.50171 0.0
H5538 H 0.66565 0.10463 0.51086 0.0
H5539 H 0.67358 0.11734 0.4478 0.0
H5540 H 0.65866 0.08197 0.43829 0.0
H5541 H 0.65321 0.14749 0.48864 0.0
H5542 H 0.71012 0.11744 0.45641 0.0
H5543 H 0.73178 0.08892 0.45105 0.0
H5544 H 0.74729 0.08798 0.51509 0.0
H5545 H 0.72514 0.11604 0.52086 0.0
C5546 C 0.7177 0.22578 0.51869 0.0
C5547 C 0.73232 0.22432 0.53487 0.0
C5548 C 0.70634 0.20812 0.51065 0.0
C5549 C 0.70901 0.18857 0.51877 0.0
C5550 C 0.72256 0.18724 0.53582 0.0
C5551 C 0.73407 0.20492 0.54382 0.0
C5552 C 0.69887 0.16949 0.50848 0.0
C5553 C 0.71086 0.15357 0.5031 0.0
C5554 C 0.6778 0.16728 0.5031 0.0
C5555 C 0.66394 0.18245 0.51004 0.0
C5556 C 0.66362 0.18775 0.53077 0.0
C5557 C 0.65052 0.20203 0.53724 0.0
C5558 C 0.63755 0.21102 0.52313 0.0
C5559 C 0.63761 0.20569 0.50253 0.0
C5560 C 0.65069 0.19142 0.49598 0.0
C5561 C 0.65465 0.08055 0.48955 0.0
C5562 C 0.65282 0.07354 0.46913 0.0
C5563 C 0.6638 0.10006 0.49494 0.0
C5564 C 0.671 0.11337 0.4801 0.0
C5565 C 0.66838 0.10705 0.45952 0.0
C5566 C 0.65971 0.08701 0.45407 0.0
C5567 C 0.68143 0.13359 0.4869 0.0
C5568 C 0.66945 0.14954 0.49208 0.0
C5569 C 0.70239 0.13555 0.49266 0.0
C5570 C 0.71558 0.11854 0.48911 0.0
C5571 C 0.71777 0.11085 0.46939 0.0
C5572 C 0.73023 0.09482 0.46626 0.0
C5573 C 0.74083 0.08656 0.48272 0.0
C5574 C 0.739 0.09432 0.50235 0.0
C5575 C 0.72645 0.11024 0.50556 0.0
H5576 H 0.75053 0.07422 0.48026 0.0
H5577 H 0.62741 0.22207 0.52816 0.0
H5578 H 0.86243 0.43017 0.65099 0.0
H5579 H 0.82759 0.43532 0.65997 0.0
H5580 H 0.82723 0.48859 0.62185 0.0
H5581 H 0.86131 0.4828 0.61204 0.0
H5582 H 0.82109 0.48488 0.67592 0.0
H5583 H 0.79249 0.47764 0.60288 0.0
H5584 H 0.78361 0.4595 0.57 0.0
H5585 H 0.76428 0.40426 0.60099 0.0
H5586 H 0.77292 0.42222 0.63407 0.0
H5587 H 0.73109 0.53619 0.68341 0.0
H5588 H 0.76236 0.52232 0.67338 0.0
H5589 H 0.73349 0.46027 0.67433 0.0
H5590 H 0.70189 0.47438 0.68374 0.0
H5591 H 0.75397 0.46534 0.64072 0.0
H5592 H 0.77194 0.47779 0.71228 0.0
H5593 H 0.77358 0.4997 0.74336 0.0
H5594 H 0.81052 0.54678 0.71456 0.0
H5595 H 0.80947 0.52493 0.68344 0.0
C5596 C 0.85464 0.4425 0.64392 0.0
C5597 C 0.86496 0.45644 0.63116 0.0
C5598 C 0.83474 0.44554 0.64919 0.0
C5599 C 0.82478 0.46254 0.64181 0.0
C5600 C 0.83453 0.47547 0.62792 0.0
C5601 C 0.85423 0.47232 0.62254 0.0
C5602 C 0.80544 0.4683 0.65024 0.0
C5603 C 0.80644 0.48044 0.66826 0.0
C5604 C 0.78619 0.46276 0.6404 0.0
C5605 C 0.78373 0.45111 0.62086 0.0
C5606 C 0.78675 0.4615 0.60264 0.0
C5607 C 0.78152 0.45134 0.58399 0.0
C5608 C 0.77328 0.43076 0.58341 0.0
C5609 C 0.77059 0.42021 0.60147 0.0
C5610 C 0.77567 0.43036 0.62017 0.0
C5611 C 0.73166 0.51955 0.68214 0.0
C5612 C 0.71433 0.50631 0.68511 0.0
C5613 C 0.74953 0.51159 0.67628 0.0
C5614 C 0.75059 0.49012 0.67339 0.0
C5615 C 0.73324 0.47684 0.67657 0.0
C5616 C 0.71527 0.48487 0.68226 0.0
C5617 C 0.76958 0.48176 0.66643 0.0
C5618 C 0.76858 0.4693 0.64869 0.0
C5619 C 0.78881 0.48713 0.67646 0.0
C5620 C 0.79066 0.49971 0.69556 0.0
C5621 C 0.78048 0.49278 0.71262 0.0
C5622 C 0.78133 0.50517 0.73025 0.0
C5623 C 0.79213 0.52464 0.73093 0.0
C5624 C 0.80218 0.53169 0.71401 0.0
C5625 C 0.80166 0.51921 0.69645 0.0
H5626 H 0.79273 0.53423 0.74457 0.0
H5627 H 0.76914 0.42296 0.56896 0.0
H5628 H 0.34951 0.57866 0.97295 0.0
H5629 H 0.33234 0.60963 0.96389 0.0
H5630 H 0.32169 0.62037 0.02688 0.0
H5631 H 0.33831 0.58923 0.03598 0.0
H5632 H 0.28634 0.62395 0.98776 0.0
H5633 H 0.3492 0.65913 0.0285 0.0
H5634 H 0.37825 0.64012 0.04025 0.0
H5635 H 0.38797 0.62326 0.97863 0.0
H5636 H 0.35968 0.6431 0.96651 0.0
H5637 H 0.27206 0.72443 0.0238 0.0
H5638 H 0.28534 0.69075 0.02002 0.0
H5639 H 0.30282 0.70614 0.95985 0.0
H5640 H 0.28909 0.74007 0.96328 0.0
H5641 H 0.33341 0.68786 0.99082 0.0
H5642 H 0.26407 0.67584 0.95905 0.0
H5643 H 0.22691 0.67658 0.95864 0.0
H5644 H 0.22558 0.6411 0.01299 0.0
H5645 H 0.26272 0.64029 0.01383 0.0
C5646 C 0.34398 0.58795 0.9849 0.0
C5647 C 0.34518 0.58166 0.00516 0.0
C5648 C 0.33357 0.60512 0.97962 0.0
C5649 C 0.32515 0.6166 0.99469 0.0
C5650 C 0.32756 0.61116 0.01505 0.0
C5651 C 0.33772 0.59395 0.02029 0.0
C5652 C 0.31735 0.63659 0.98998 0.0
C5653 C 0.29647 0.63797 0.98781 0.0
C5654 C 0.3308 0.65461 0.99088 0.0
C5655 C 0.35241 0.65266 0.9966 0.0
C5656 C 0.35831 0.65243 0.0174 0.0
C5657 C 0.37434 0.64109 0.02416 0.0
C5658 C 0.38467 0.63014 0.01021 0.0
C5659 C 0.37989 0.63167 0.98942 0.0
C5660 C 0.36419 0.64339 0.98256 0.0
C5661 C 0.27894 0.72084 0.00982 0.0
C5662 C 0.2796 0.73489 0.99381 0.0
C5663 C 0.28635 0.70154 0.00767 0.0
C5664 C 0.29471 0.69605 0.98959 0.0
C5665 C 0.2962 0.71024 0.97384 0.0
C5666 C 0.28849 0.72955 0.97586 0.0
C5667 C 0.30209 0.67546 0.98752 0.0
C5668 C 0.32312 0.67396 0.9893 0.0
C5669 C 0.28856 0.65733 0.98689 0.0
C5670 C 0.26622 0.65814 0.98655 0.0
C5671 C 0.25588 0.66836 0.97101 0.0
C5672 C 0.2348 0.66873 0.97067 0.0
C5673 C 0.2239 0.65892 0.98579 0.0
C5674 C 0.23404 0.64869 0.00128 0.0
C5675 C 0.25509 0.64824 0.00167 0.0
H5676 H 0.20759 0.65922 0.98549 0.0
H5677 H 0.39666 0.62082 0.01549 0.0
H5678 H 0.27173 0.85611 0.99869 0.0
H5679 H 0.28422 0.88576 0.02017 0.0
H5680 H 0.30875 0.84475 0.06439 0.0
H5681 H 0.29612 0.81499 0.04273 0.0
H5682 H 0.27608 0.86322 0.07683 0.0
H5683 H 0.33885 0.88663 0.04799 0.0
H5684 H 0.35978 0.89528 0.01915 0.0
H5685 H 0.32104 0.94267 0.0015 0.0
H5686 H 0.2998 0.93421 0.03017 0.0
H5687 H 0.29348 0.93921 0.15412 0.0
H5688 H 0.2915 0.91156 0.12897 0.0
H5689 H 0.27935 0.95502 0.08169 0.0
H5690 H 0.28358 0.98339 0.10705 0.0
H5691 H 0.30718 0.93484 0.07073 0.0
H5692 H 0.24382 0.91204 0.09789 0.0
H5693 H 0.22062 0.90275 0.12477 0.0
H5694 H 0.25674 0.85346 0.14309 0.0
H5695 H 0.28033 0.86262 0.11652 0.0
C5696 C 0.28113 0.85356 0.01226 0.0
C5697 C 0.28281 0.83345 0.01929 0.0
C5698 C 0.28817 0.87053 0.02465 0.0
C5699 C 0.29702 0.8674 0.04408 0.0
C5700 C 0.30182 0.84743 0.0495 0.0
C5701 C 0.29484 0.83044 0.037 0.0
C5702 C 0.296 0.88352 0.05999 0.0
C5703 C 0.28328 0.8788 0.07585 0.0
C5704 C 0.30444 0.904 0.05793 0.0
C5705 C 0.31771 0.90975 0.04121 0.0
C5706 C 0.3348 0.89889 0.03796 0.0
C5707 C 0.34671 0.90376 0.02164 0.0
C5708 C 0.34173 0.9195 0.00849 0.0
C5709 C 0.3249 0.9305 0.01172 0.0
C5710 C 0.31296 0.92573 0.02805 0.0
C5711 C 0.28951 0.94281 0.13848 0.0
C5712 C 0.2885 0.96341 0.13251 0.0
C5713 C 0.28836 0.92688 0.12401 0.0
C5714 C 0.28505 0.93103 0.10332 0.0
C5715 C 0.28204 0.95142 0.09753 0.0
C5716 C 0.28411 0.96758 0.112 0.0
C5717 C 0.28725 0.91462 0.08782 0.0
C5718 C 0.30006 0.91928 0.07193 0.0
C5719 C 0.27852 0.89407 0.08962 0.0
C5720 C 0.26396 0.88815 0.10527 0.0
C5721 C 0.24687 0.89927 0.10769 0.0
C5722 C 0.23365 0.89403 0.12289 0.0
C5723 C 0.23723 0.87756 0.13566 0.0
C5724 C 0.25399 0.86622 0.13319 0.0
C5725 C 0.26727 0.87142 0.11804 0.0
H5726 H 0.22701 0.87357 0.14745 0.0
H5727 H 0.35092 0.92318 0.9958 0.0
H5728 H 0.65346 0.83653 0.54266 0.0
H5729 H 0.64816 0.86897 0.52516 0.0
H5730 H 0.63064 0.83433 0.4696 0.0
H5731 H 0.6371 0.80251 0.48636 0.0
H5732 H 0.64744 0.86736 0.45933 0.0
H5733 H 0.59558 0.85006 0.50463 0.0
H5734 H 0.58225 0.84112 0.53775 0.0
H5735 H 0.60634 0.90032 0.56254 0.0
H5736 H 0.62014 0.90949 0.52961 0.0
H5737 H 0.63206 0.97039 0.43518 0.0
H5738 H 0.63609 0.93457 0.43746 0.0
H5739 H 0.58105 0.92571 0.46933 0.0
H5740 H 0.57984 0.96309 0.47094 0.0
H5741 H 0.60218 0.91276 0.49242 0.0
H5742 H 0.66336 0.91267 0.43976 0.0
H5743 H 0.67409 0.91035 0.40474 0.0
H5744 H 0.62136 0.86953 0.38834 0.0
H5745 H 0.60933 0.87352 0.42283 0.0
C5746 C 0.64892 0.83593 0.52662 0.0
C5747 C 0.64526 0.81683 0.51609 0.0
C5748 C 0.64572 0.85446 0.51664 0.0
C5749 C 0.63839 0.85411 0.49614 0.0
C5750 C 0.63615 0.83516 0.4854 0.0
C5751 C 0.63969 0.81683 0.49516 0.0
C5752 C 0.63147 0.87292 0.48605 0.0
C5753 C 0.63728 0.87726 0.46637 0.0
C5754 C 0.61786 0.8855 0.49497 0.0
C5755 C 0.60909 0.88038 0.51469 0.0
C5756 C 0.5981 0.86115 0.51716 0.0
C5757 C 0.59048 0.85603 0.53591 0.0
C5758 C 0.5935 0.87012 0.55226 0.0
C5759 C 0.60406 0.88941 0.54986 0.0
C5760 C 0.61179 0.89458 0.53115 0.0
C5761 C 0.62039 0.96077 0.44218 0.0
C5762 C 0.60674 0.96972 0.45438 0.0
C5763 C 0.62264 0.93957 0.44338 0.0
C5764 C 0.60988 0.92668 0.45503 0.0
C5765 C 0.59241 0.93519 0.46178 0.0
C5766 C 0.59122 0.95667 0.46214 0.0
C5767 C 0.61682 0.90707 0.46439 0.0
C5768 C 0.61154 0.90275 0.48451 0.0
C5769 C 0.62976 0.89355 0.45518 0.0
C5770 C 0.63504 0.89426 0.43368 0.0
C5771 C 0.65383 0.90373 0.42857 0.0
C5772 C 0.66012 0.90214 0.40883 0.0
C5773 C 0.64854 0.88958 0.39444 0.0
C5774 C 0.63018 0.87946 0.39949 0.0
C5775 C 0.62334 0.88189 0.41898 0.0
H5776 H 0.65388 0.88746 0.37947 0.0
H5777 H 0.58762 0.86612 0.56677 0.0
H5778 H 0.38718 0.48852 0.04084 0.0
H5779 H 0.38928 0.45185 0.04873 0.0
H5780 H 0.38503 0.43635 0.98481 0.0
H5781 H 0.3837 0.47286 0.9768 0.0
H5782 H 0.35126 0.42016 0.02004 0.0
H5783 H 0.41978 0.42259 0.99346 0.0
H5784 H 0.4553 0.43722 0.99371 0.0
H5785 H 0.46366 0.424 0.05706 0.0
H5786 H 0.42802 0.40964 0.05722 0.0
H5787 H 0.35041 0.31445 0.99641 0.0
H5788 H 0.35269 0.35177 -7e-05 0.0
H5789 H 0.39291 0.34893 0.05351 0.0
H5790 H 0.39215 0.31118 0.04873 0.0
H5791 H 0.40832 0.37589 0.03057 0.0
H5792 H 0.33941 0.37015 0.05549 0.0
H5793 H 0.30384 0.35522 0.05402 0.0
H5794 H 0.2961 0.37279 0.9918 0.0
H5795 H 0.33155 0.38793 0.993 0.0
C5796 C 0.38784 0.47742 0.02849 0.0
C5797 C 0.38537 0.4836 0.0082 0.0
C5798 C 0.38874 0.45647 0.03302 0.0
C5799 C 0.38707 0.44148 0.01733 0.0
C5800 C 0.38641 0.44777 0.9971 0.0
C5801 C 0.38595 0.46871 0.99255 0.0
C5802 C 0.38367 0.41925 0.02187 0.0
C5803 C 0.36367 0.41039 0.02214 0.0
C5804 C 0.39987 0.40677 0.02549 0.0
C5805 C 0.4212 0.41541 0.02543 0.0
C5806 C 0.42912 0.4231 0.0075 0.0
C5807 C 0.44928 0.43126 0.00754 0.0
C5808 C 0.46171 0.43163 0.02541 0.0
C5809 C 0.454 0.42377 0.04325 0.0
C5810 C 0.43382 0.41563 0.04328 0.0
C5811 C 0.35934 0.32169 0.00927 0.0
C5812 C 0.37111 0.30997 0.02231 0.0
C5813 C 0.36043 0.34315 0.01145 0.0
C5814 C 0.37252 0.35335 0.02734 0.0
C5815 C 0.38339 0.34147 0.04116 0.0
C5816 C 0.38291 0.31994 0.03851 0.0
C5817 C 0.37573 0.37635 0.0278 0.0
C5818 C 0.39575 0.38553 0.02865 0.0
C5819 C 0.35945 0.38908 0.02495 0.0
C5820 C 0.33799 0.38048 0.02444 0.0
C5821 C 0.33005 0.37097 0.04156 0.0
C5822 C 0.30992 0.36247 0.04078 0.0
C5823 C 0.29767 0.36323 0.02288 0.0
C5824 C 0.30553 0.37242 0.00572 0.0
C5825 C 0.32557 0.38112 0.0065 0.0
H5826 H 0.28212 0.35662 0.02228 0.0
H5827 H 0.47732 0.43793 0.02542 0.0
H5828 H 0.74836 0.47881 0.4134 0.0
H5829 H 0.75937 0.4492 0.43287 0.0
H5830 H 0.69844 0.43621 0.45155 0.0
H5831 H 0.6878 0.4659 0.43331 0.0
H5832 H 0.72233 0.4305 0.48183 0.0
H5833 H 0.72185 0.40973 0.4095 0.0
H5834 H 0.73359 0.41115 0.37469 0.0
H5835 H 0.79455 0.40464 0.39782 0.0
H5836 H 0.78319 0.40334 0.43274 0.0
H5837 H 0.71724 0.32391 0.50842 0.0
H5838 H 0.71268 0.35807 0.49385 0.0
H5839 H 0.77447 0.36176 0.47592 0.0
H5840 H 0.77827 0.32722 0.48891 0.0
H5841 H 0.7543 0.37434 0.44717 0.0
H5842 H 0.75562 0.3916 0.51856 0.0
H5843 H 0.7453 0.39001 0.55387 0.0
H5844 H 0.68511 0.40358 0.53399 0.0
H5845 H 0.69501 0.4051 0.49857 0.0
C5846 C 0.73747 0.46978 0.42195 0.0
C5847 C 0.71722 0.4748 0.4218 0.0
C5848 C 0.7437 0.45272 0.43292 0.0
C5849 C 0.72967 0.44015 0.44351 0.0
C5850 C 0.70964 0.44557 0.44366 0.0
C5851 C 0.70355 0.46267 0.43311 0.0
C5852 C 0.73519 0.42107 0.45424 0.0
C5853 C 0.72924 0.41815 0.4742 0.0
C5854 C 0.74489 0.40517 0.4447 0.0
C5855 C 0.75171 0.40674 0.42374 0.0
C5856 C 0.73778 0.40883 0.40717 0.0
C5857 C 0.74436 0.40955 0.38741 0.0
C5858 C 0.76481 0.40806 0.38405 0.0
C5859 C 0.77873 0.40585 0.40043 0.0
C5860 C 0.77223 0.40513 0.4202 0.0
C5861 C 0.72961 0.33199 0.501 0.0
C5862 C 0.74787 0.32281 0.49917 0.0
C5863 C 0.72719 0.35167 0.49301 0.0
C5864 C 0.74332 0.3628 0.4839 0.0
C5865 C 0.76167 0.35358 0.48259 0.0
C5866 C 0.76382 0.33376 0.48991 0.0
C5867 C 0.74101 0.38347 0.47466 0.0
C5868 C 0.74761 0.38671 0.45499 0.0
C5869 C 0.73211 0.39972 0.48459 0.0
C5870 C 0.72603 0.39828 0.50586 0.0
C5871 C 0.74014 0.39406 0.52169 0.0
C5872 C 0.73437 0.39323 0.54174 0.0
C5873 C 0.71455 0.39665 0.54617 0.0
C5874 C 0.70045 0.40092 0.53055 0.0
C5875 C 0.70614 0.40179 0.5105 0.0
H5876 H 0.71013 0.39603 0.56169 0.0
H5877 H 0.76986 0.40856 0.36875 0.0
H5878 H 0.37353 0.66165 0.92166 0.0
H5879 H 0.36616 0.67135 0.88647 0.0
H5880 H 0.39575 0.61893 0.86544 0.0
H5881 H 0.40132 0.60803 0.90012 0.0
H5882 H 0.4185 0.6544 0.86024 0.0
H5883 H 0.34917 0.62902 0.83976 0.0
H5884 H 0.31227 0.62332 0.84301 0.0
H5885 H 0.30875 0.68865 0.85223 0.0
H5886 H 0.34558 0.69477 0.84842 0.0
H5887 H 0.41495 0.66018 0.75485 0.0
H5888 H 0.40246 0.65244 0.788 0.0
H5889 H 0.40722 0.71756 0.80373 0.0
H5890 H 0.42073 0.72554 0.7703 0.0
H5891 H 0.3668 0.68185 0.81299 0.0
H5892 H 0.43729 0.70546 0.82451 0.0
H5893 H 0.47291 0.70786 0.81568 0.0
H5894 H 0.47464 0.64229 0.82305 0.0
H5895 H 0.43873 0.63946 0.83126 0.0
C5896 C 0.37743 0.65153 0.90954 0.0
C5897 C 0.38899 0.63467 0.91382 0.0
C5898 C 0.37313 0.65704 0.8893 0.0
C5899 C 0.38147 0.64653 0.87334 0.0
C5900 C 0.38983 0.62776 0.87751 0.0
C5901 C 0.39312 0.62163 0.89751 0.0
C5902 C 0.38652 0.6574 0.85425 0.0
C5903 C 0.40709 0.66021 0.84987 0.0
C5904 C 0.37194 0.66588 0.84109 0.0
C5905 C 0.35006 0.66231 0.84405 0.0
C5906 C 0.34051 0.64214 0.84259 0.0
C5907 C 0.31961 0.63885 0.84439 0.0
C5908 C 0.3082 0.65559 0.84801 0.0
C5909 C 0.31762 0.67569 0.84953 0.0
C5910 C 0.33847 0.6791 0.84739 0.0
C5911 C 0.41312 0.67297 0.76519 0.0
C5912 C 0.41881 0.6935 0.75995 0.0
C5913 C 0.40592 0.66848 0.78413 0.0
C5914 C 0.40384 0.68437 0.79825 0.0
C5915 C 0.40867 0.70507 0.79293 0.0
C5916 C 0.41649 0.7096 0.77397 0.0
C5917 C 0.39859 0.67847 0.81904 0.0
C5918 C 0.37813 0.67641 0.82368 0.0
C5919 C 0.41331 0.67059 0.83251 0.0
C5920 C 0.43517 0.67226 0.82824 0.0
C5921 C 0.44517 0.69153 0.82401 0.0
C5922 C 0.46545 0.69297 0.81914 0.0
C5923 C 0.47606 0.67523 0.81876 0.0
C5924 C 0.4664 0.65603 0.82332 0.0
C5925 C 0.44605 0.65451 0.82806 0.0
H5926 H 0.49176 0.67636 0.81498 0.0
H5927 H 0.29205 0.65297 0.84957 0.0
H5928 H 0.99684 0.28276 0.79183 0.0
H5929 H 0.01185 0.29288 0.82582 0.0
H5930 H 0.07005 0.27638 0.80807 0.0
H5931 H 0.05555 0.26703 0.77409 0.0
H5932 H 0.0512 0.25557 0.84506 0.0
H5933 H 0.0725 0.31972 0.81378 0.0
H5934 H 0.0668 0.35044 0.79334 0.0
H5935 H 0.02588 0.37046 0.83628 0.0
H5936 H 0.03106 0.33958 0.8568 0.0
H5937 H 0.12903 0.29303 0.9178 0.0
H5938 H 0.10664 0.28272 0.88809 0.0
H5939 H 0.05796 0.31213 0.91429 0.0
H5940 H 0.08014 0.32249 0.94413 0.0
H5941 H 0.06758 0.32615 0.87495 0.0
H5942 H 0.0526 0.26238 0.90932 0.0
H5943 H 0.06245 0.23234 0.92893 0.0
H5944 H 0.09527 0.21187 0.8792 0.0
H5945 H 0.08587 0.24197 0.85939 0.0
C5946 C 0.01295 0.28193 0.79501 0.0
C5947 C 0.02501 0.27405 0.78036 0.0
C5948 C 0.02143 0.28753 0.81441 0.0
C5949 C 0.04191 0.28499 0.81934 0.0
C5950 C 0.05416 0.27823 0.80445 0.0
C5951 C 0.04586 0.2731 0.78501 0.0
C5952 C 0.05049 0.28834 0.84028 0.0
C5953 C 0.05477 0.27096 0.85168 0.0
C5954 C 0.05489 0.30843 0.84874 0.0
C5955 C 0.0519 0.32716 0.83664 0.0
C5956 C 0.06209 0.33054 0.81874 0.0
C5957 C 0.059 0.348 0.80716 0.0
C5958 C 0.0459 0.36234 0.81345 0.0
C5959 C 0.03596 0.35929 0.83139 0.0
C5960 C 0.03897 0.3418 0.84301 0.0
C5961 C 0.11341 0.29681 0.91754 0.0
C5962 C 0.10644 0.30874 0.93326 0.0
C5963 C 0.10066 0.29094 0.90053 0.0
C5964 C 0.08076 0.29687 0.89902 0.0
C5965 C 0.07333 0.30755 0.91522 0.0
C5966 C 0.086 0.31327 0.93233 0.0
C5967 C 0.06843 0.29336 0.8798 0.0
C5968 C 0.06351 0.31071 0.86861 0.0
C5969 C 0.06376 0.27322 0.87142 0.0
C5970 C 0.06858 0.25451 0.88288 0.0
C5971 C 0.06194 0.2515 0.90257 0.0
C5972 C 0.06746 0.23447 0.91373 0.0
C5973 C 0.0795 0.22023 0.90532 0.0
C5974 C 0.08593 0.22292 0.88568 0.0
C5975 C 0.08047 0.23994 0.87446 0.0
H5976 H 0.08383 0.2071 0.91402 0.0
H5977 H 0.04352 0.37586 0.80447 0.0
H5978 H 0.4277 0.71584 0.18357 0.0
H5979 H 0.42045 0.69924 0.15007 0.0
H5980 H 0.48118 0.71808 0.13398 0.0
H5981 H 0.48872 0.73427 0.16785 0.0
H5982 H 0.44737 0.73028 0.10632 0.0
H5983 H 0.47353 0.67126 0.138 0.0
H5984 H 0.47646 0.64571 0.16507 0.0
H5985 H 0.41383 0.62427 0.15349 0.0
H5986 H 0.41045 0.64994 0.12652 0.0
H5987 H 0.44188 0.64491 0.023 0.0
H5988 H 0.44806 0.65553 0.05853 0.0
H5989 H 0.40177 0.69845 0.05168 0.0
H5990 H 0.39675 0.68904 0.0155 0.0
H5991 H 0.42907 0.65557 0.09129 0.0
H5992 H 0.40845 0.73455 0.07517 0.0
H5993 H 0.40808 0.76057 0.04821 0.0
H5994 H 0.4649 0.74232 0.02901 0.0
H5995 H 0.46529 0.71586 0.05558 0.0
C5996 C 0.43967 0.71593 0.17308 0.0
C5997 C 0.4588 0.72617 0.17826 0.0
C5998 C 0.43548 0.70655 0.15396 0.0
C5999 C 0.45024 0.70758 0.13958 0.0
C6000 C 0.46961 0.71717 0.14493 0.0
C6001 C 0.47396 0.72619 0.16429 0.0
C6002 C 0.44486 0.69966 0.11865 0.0
C6003 C 0.44345 0.71394 0.103 0.0
C6004 C 0.43968 0.67838 0.1144 0.0
C6005 C 0.44169 0.66266 0.13036 0.0
C6006 C 0.46034 0.66121 0.14133 0.0
C6007 C 0.46209 0.64669 0.15663 0.0
C6008 C 0.44533 0.63341 0.16103 0.0
C6009 C 0.4268 0.63458 0.15007 0.0
C6010 C 0.42496 0.6491 0.13475 0.0
C6011 C 0.43287 0.65649 0.0291 0.0
C6012 C 0.419 0.66635 0.01645 0.0
C6013 C 0.43643 0.66257 0.04945 0.0
C6014 C 0.4259 0.67833 0.05772 0.0
C6015 C 0.41081 0.68699 0.04548 0.0
C6016 C 0.40773 0.68142 0.02488 0.0
C6017 C 0.43157 0.68618 0.07878 0.0
C6018 C 0.43295 0.67192 0.09456 0.0
C6019 C 0.43698 0.70747 0.08314 0.0
C6020 C 0.43683 0.72323 0.06719 0.0
C6021 C 0.42084 0.73614 0.06517 0.0
C6022 C 0.42057 0.75086 0.04991 0.0
C6023 C 0.43644 0.75308 0.03689 0.0
C6024 C 0.45257 0.74051 0.03904 0.0
C6025 C 0.45276 0.72556 0.0541 0.0
H6026 H 0.43626 0.76455 0.02515 0.0
H6027 H 0.44671 0.62218 0.1729 0.0
H6028 H 0.003 0.41164 0.43167 0.0
H6029 H 0.00413 0.39979 0.39656 0.0
H6030 H 0.05317 0.3627 0.41379 0.0
H6031 H 0.05258 0.37528 0.44916 0.0
H6032 H 0.05658 0.38115 0.37495 0.0
H6033 H 0.99948 0.32742 0.39802 0.0
H6034 H 0.96649 0.31696 0.41203 0.0
H6035 H 0.94274 0.37241 0.38974 0.0
H6036 H 0.97498 0.38205 0.37401 0.0
H6037 H 0.0313 0.31496 0.28265 0.0
H6038 H 0.04015 0.32577 0.31849 0.0
H6039 H 0.99486 0.36992 0.31446 0.0
H6040 H 0.98653 0.35971 0.27911 0.0
H6041 H 0.99216 0.34394 0.3477 0.0
H6042 H 0.03871 0.38829 0.31382 0.0
H6043 H 0.06658 0.39877 0.29215 0.0
H6044 H 0.10824 0.36908 0.33199 0.0
H6045 H 0.08046 0.35795 0.35369 0.0
C6046 C 0.01444 0.40142 0.42793 0.0
C6047 C 0.02758 0.39427 0.44328 0.0
C6048 C 0.0148 0.39431 0.40787 0.0
C6049 C 0.02806 0.37958 0.40261 0.0
C6050 C 0.04249 0.37376 0.41751 0.0
C6051 C 0.04232 0.38115 0.4377 0.0
C6052 C 0.02627 0.37006 0.38173 0.0
C6053 C 0.04265 0.37265 0.3691 0.0
C6054 C 0.00788 0.35958 0.37369 0.0
C6055 C 0.98982 0.35573 0.38558 0.0
C6056 C 0.98732 0.33747 0.39654 0.0
C6057 C 0.96873 0.33161 0.40459 0.0
C6058 C 0.95276 0.34432 0.40239 0.0
C6059 C 0.95522 0.36272 0.39173 0.0
C6060 C 0.97358 0.36827 0.38305 0.0
C6061 C 0.02332 0.32693 0.28956 0.0
C6062 C 0.00827 0.33656 0.27819 0.0
C6063 C 0.02847 0.33321 0.30989 0.0
C6064 C 0.01827 0.34881 0.31908 0.0
C6065 C 0.00303 0.358 0.3077 0.0
C6066 C 0.99827 0.35213 0.28749 0.0
C6067 C 0.02231 0.3552 0.3408 0.0
C6068 C 0.00632 0.35202 0.35362 0.0
C6069 C 0.04071 0.36588 0.34854 0.0
C6070 C 0.05737 0.37185 0.33516 0.0
C6071 C 0.05371 0.38359 0.31776 0.0
C6072 C 0.06952 0.38975 0.30551 0.0
C6073 C 0.08915 0.38449 0.31062 0.0
C6074 C 0.093 0.37304 0.32799 0.0
C6075 C 0.07721 0.36677 0.34026 0.0
H6076 H 0.1014 0.38939 0.3012 0.0
H6077 H 0.93839 0.33975 0.40866 0.0
H6078 H 0.99686 0.29549 0.70927 0.0
H6079 H 0.00433 0.32177 0.6843 0.0
H6080 H 0.97855 0.27985 0.63644 0.0
H6081 H 0.97136 0.25309 0.66152 0.0
H6082 H 0.01553 0.29491 0.62845 0.0
H6083 H 0.95641 0.32423 0.64963 0.0
H6084 H 0.93315 0.33821 0.67317 0.0
H6085 H 0.97881 0.38635 0.69264 0.0
H6086 H 0.00249 0.37244 0.66949 0.0
H6087 H 0.99004 0.37773 0.55898 0.0
H6088 H 0.98698 0.35739 0.58889 0.0
H6089 H 0.05168 0.36619 0.60116 0.0
H6090 H 0.05486 0.38429 0.56872 0.0
H6091 H 0.0002 0.36845 0.62954 0.0
H6092 H 0.06011 0.3342 0.6073 0.0
H6093 H 0.08122 0.31637 0.5843 0.0
H6094 H 0.03099 0.27246 0.56735 0.0
H6095 H 0.00886 0.29162 0.58826 0.0
C6096 C 0.9924 0.29192 0.69347 0.0
C6097 C 0.98374 0.27206 0.68736 0.0
C6098 C 0.99661 0.30707 0.67919 0.0
C6099 C 0.9921 0.30282 0.65846 0.0
C6100 C 0.98227 0.28344 0.65238 0.0
C6101 C 0.97801 0.26821 0.66672 0.0
C6102 C 0.99946 0.31783 0.64317 0.0
C6103 C 0.01201 0.31098 0.62851 0.0
C6104 C 0.99545 0.33894 0.64376 0.0
C6105 C 0.98135 0.34709 0.65801 0.0
C6106 C 0.9616 0.33763 0.65912 0.0
C6107 C 0.94831 0.34558 0.67236 0.0
C6108 C 0.95453 0.3631 0.68446 0.0
C6109 C 0.97404 0.37274 0.68332 0.0
C6110 C 0.9874 0.36482 0.67014 0.0
C6111 C 0.00355 0.37651 0.56857 0.0
C6112 C 0.02258 0.3834 0.56162 0.0
C6113 C 0.00186 0.36406 0.58538 0.0
C6114 C 0.01914 0.35934 0.59691 0.0
C6115 C 0.03817 0.36842 0.5918 0.0
C6116 C 0.03995 0.37979 0.57383 0.0
C6117 C 0.01609 0.34553 0.61445 0.0
C6118 C 0.00406 0.35249 0.62962 0.0
C6119 C 0.02022 0.32436 0.61399 0.0
C6120 C 0.03252 0.31517 0.5986 0.0
C6121 C 0.05315 0.3217 0.59759 0.0
C6122 C 0.06535 0.31122 0.58499 0.0
C6123 C 0.05731 0.29356 0.57399 0.0
C6124 C 0.03699 0.28656 0.5753 0.0
C6125 C 0.02454 0.29746 0.58725 0.0
H6126 H 0.06692 0.28509 0.56474 0.0
H6127 H 0.94421 0.36926 0.69467 0.0
H6128 H 0.53533 0.1203 0.57675 0.0
H6129 H 0.54685 0.12414 0.61289 0.0
H6130 H 0.55679 0.19034 0.6056 0.0
H6131 H 0.54915 0.18612 0.57011 0.0
H6132 H 0.57978 0.18581 0.63154 0.0
H6133 H 0.50973 0.1569 0.62504 0.0
H6134 H 0.48081 0.13122 0.61654 0.0
H6135 H 0.50886 0.0865 0.65369 0.0
H6136 H 0.53802 0.11189 0.66226 0.0
H6137 H 0.5447 0.21984 0.72782 0.0
H6138 H 0.54706 0.21019 0.69212 0.0
H6139 H 0.57367 0.15418 0.7098 0.0
H6140 H 0.57068 0.16339 0.7456 0.0
H6141 H 0.53692 0.15009 0.68134 0.0
H6142 H 0.61069 0.18855 0.67868 0.0
H6143 H 0.63152 0.221 0.68845 0.0
H6144 H 0.58233 0.25656 0.66891 0.0
H6145 H 0.56142 0.22433 0.65906 0.0
C6146 C 0.54087 0.13545 0.58285 0.0
C6147 C 0.5411 0.15283 0.57037 0.0
C6148 C 0.54699 0.1378 0.60369 0.0
C6149 C 0.55217 0.15771 0.61261 0.0
C6150 C 0.55324 0.1747 0.59969 0.0
C6151 C 0.54853 0.1722 0.579 0.0
C6152 C 0.55559 0.16173 0.63516 0.0
C6153 C 0.5701 0.1779 0.64213 0.0
C6154 C 0.54339 0.15165 0.64969 0.0
C6155 C 0.5262 0.13618 0.64401 0.0
C6156 C 0.5098 0.14153 0.63124 0.0
C6157 C 0.49335 0.12704 0.62644 0.0
C6158 C 0.49304 0.10721 0.6345 0.0
C6159 C 0.50916 0.10183 0.64739 0.0
C6160 C 0.52565 0.11626 0.65221 0.0
C6161 C 0.55169 0.20582 0.72413 0.0
C6162 C 0.55759 0.19241 0.7395 0.0
C6163 C 0.55302 0.20031 0.7037 0.0
C6164 C 0.56075 0.18156 0.6983 0.0
C6165 C 0.5677 0.16872 0.71365 0.0
C6166 C 0.5661 0.17407 0.73408 0.0
C6167 C 0.55998 0.17453 0.67674 0.0
C6168 C 0.54636 0.15768 0.67032 0.0
C6169 C 0.57171 0.18494 0.66241 0.0
C6170 C 0.5846 0.20414 0.66797 0.0
C6171 C 0.60442 0.20332 0.67639 0.0
C6172 C 0.61623 0.22165 0.68196 0.0
C6173 C 0.60828 0.24083 0.67926 0.0
C6174 C 0.58854 0.24173 0.67091 0.0
C6175 C 0.57677 0.22346 0.66521 0.0
H6176 H 0.6174 0.25499 0.68366 0.0
H6177 H 0.48028 0.09602 0.6308 0.0
H6178 H 0.36857 0.69371 0.6657 0.0
H6179 H 0.35431 0.68991 0.6304 0.0
H6180 H 0.3869 0.63577 0.6222 0.0
H6181 H 0.4002 0.63871 0.65736 0.0
H6182 H 0.39064 0.6785 0.59339 0.0
H6183 H 0.34996 0.61832 0.62185 0.0
H6184 H 0.32569 0.60452 0.64615 0.0
H6185 H 0.28316 0.64713 0.6251 0.0
H6186 H 0.30748 0.66155 0.60102 0.0
H6187 H 0.37383 0.61822 0.50334 0.0
H6188 H 0.38031 0.63131 0.53859 0.0
H6189 H 0.32179 0.6563 0.53603 0.0
H6190 H 0.31528 0.64292 0.50123 0.0
H6191 H 0.32763 0.63622 0.56982 0.0
H6192 H 0.36364 0.68815 0.53371 0.0
H6193 H 0.38689 0.70137 0.50824 0.0
H6194 H 0.43677 0.6771 0.54178 0.0
H6195 H 0.41376 0.66336 0.56728 0.0
C6196 C 0.3719 0.6805 0.65657 0.0
C6197 C 0.3852 0.66631 0.6643 0.0
C6198 C 0.36408 0.67859 0.63642 0.0
C6199 C 0.36991 0.66276 0.62387 0.0
C6200 C 0.38237 0.64809 0.63182 0.0
C6201 C 0.38963 0.64959 0.652 0.0
C6202 C 0.36346 0.6613 0.60224 0.0
C6203 C 0.37683 0.66942 0.58808 0.0
C6204 C 0.34524 0.64993 0.59558 0.0
C6205 C 0.33067 0.64129 0.60999 0.0
C6206 C 0.33558 0.62498 0.62266 0.0
C6207 C 0.32179 0.617 0.63634 0.0
C6208 C 0.30293 0.62503 0.63725 0.0
C6209 C 0.29781 0.64101 0.62445 0.0
C6210 C 0.31161 0.64912 0.61082 0.0
C6211 C 0.36247 0.62642 0.51053 0.0
C6212 C 0.34413 0.62967 0.50003 0.0
C6213 C 0.36617 0.63402 0.53042 0.0
C6214 C 0.35159 0.64501 0.53969 0.0
C6215 C 0.3332 0.64795 0.52909 0.0
C6216 C 0.32951 0.64033 0.50935 0.0
C6217 C 0.35514 0.65272 0.56077 0.0
C6218 C 0.3412 0.64584 0.57487 0.0
C6219 C 0.37273 0.6655 0.56721 0.0
C6220 C 0.3869 0.67459 0.55242 0.0
C6221 C 0.37955 0.68556 0.53565 0.0
C6222 C 0.39269 0.69313 0.52118 0.0
C6223 C 0.41329 0.69005 0.52337 0.0
C6224 C 0.42081 0.67948 0.5401 0.0
C6225 C 0.40772 0.67182 0.5546 0.0
H6226 H 0.42343 0.69586 0.51212 0.0
H6227 H 0.29226 0.6188 0.64782 0.0
H6228 H 0.31759 0.44588 0.18645 0.0
H6229 H 0.3515 0.45679 0.17501 0.0
H6230 H 0.33293 0.51825 0.16482 0.0
H6231 H 0.2994 0.50738 0.1755 0.0
H6232 H 0.35577 0.50983 0.13651 0.0
H6233 H 0.36036 0.50421 0.20919 0.0
H6234 H 0.35758 0.4868 0.24198 0.0
H6235 H 0.39992 0.44398 0.22461 0.0
H6236 H 0.40276 0.46099 0.19159 0.0
H6237 H 0.45838 0.56587 0.15518 0.0
H6238 H 0.42275 0.5536 0.1599 0.0
H6239 H 0.43429 0.49242 0.13955 0.0
H6240 H 0.46903 0.5045 0.13379 0.0
H6241 H 0.41572 0.50037 0.18287 0.0
H6242 H 0.40907 0.50644 0.10911 0.0
H6243 H 0.41175 0.52545 0.07719 0.0
H6244 H 0.37306 0.56998 0.09879 0.0
H6245 H 0.37042 0.55136 0.131 0.0
C6246 C 0.32064 0.4615 0.18118 0.0
C6247 C 0.30578 0.47573 0.18189 0.0
C6248 C 0.34012 0.46786 0.17493 0.0
C6249 C 0.34504 0.48855 0.16938 0.0
C6250 C 0.32974 0.50227 0.16902 0.0
C6251 C 0.31046 0.49598 0.17517 0.0
C6252 C 0.36608 0.49649 0.16462 0.0
C6253 C 0.36879 0.50781 0.1468 0.0
C6254 C 0.38329 0.49397 0.17791 0.0
C6255 C 0.38155 0.48369 0.19777 0.0
C6256 C 0.36894 0.49096 0.21228 0.0
C6257 C 0.36738 0.4812 0.23093 0.0
C6258 C 0.37851 0.46425 0.23536 0.0
C6259 C 0.39126 0.45707 0.22115 0.0
C6260 C 0.39285 0.46677 0.20246 0.0
C6261 C 0.45313 0.55 0.1511 0.0
C6262 C 0.46667 0.53634 0.14389 0.0
C6263 C 0.43283 0.54294 0.15399 0.0
C6264 C 0.42593 0.52201 0.15023 0.0
C6265 C 0.43924 0.50859 0.14256 0.0
C6266 C 0.45916 0.51569 0.1391 0.0
C6267 C 0.40515 0.51365 0.15493 0.0
C6268 C 0.40258 0.5023 0.17271 0.0
C6269 C 0.38802 0.51634 0.1418 0.0
C6270 C 0.38982 0.5277 0.12259 0.0
C6271 C 0.40138 0.52045 0.10718 0.0
C6272 C 0.40283 0.53111 0.089 0.0
C6273 C 0.39266 0.54897 0.086 0.0
C6274 C 0.38098 0.55618 0.10116 0.0
C6275 C 0.37951 0.54558 0.11938 0.0
H6276 H 0.39376 0.55718 0.0719 0.0
H6277 H 0.37729 0.45673 0.24981 0.0
H6278 H 0.32831 0.96916 0.83947 0.0
H6279 H 0.35824 0.9502 0.83518 0.0
H6280 H 0.35227 0.95868 0.77052 0.0
H6281 H 0.32232 0.9776 0.77462 0.0
H6282 H 0.36487 0.91932 0.78182 0.0
H6283 H 0.38334 0.99345 0.79973 0.0
H6284 H 0.38425 0.02436 0.82228 0.0
H6285 H 0.40951 0.99034 0.87155 0.0
H6286 H 0.40868 0.95925 0.84932 0.0
H6287 H 0.46342 0.90073 0.7553 0.0
H6288 H 0.43105 0.91586 0.75875 0.0
H6289 H 0.44674 0.92743 0.82264 0.0
H6290 H 0.47952 0.91429 0.81869 0.0
H6291 H 0.42813 0.95592 0.81255 0.0
H6292 H 0.41182 0.88355 0.80066 0.0
H6293 H 0.41043 0.84931 0.78349 0.0
H6294 H 0.38017 0.87347 0.73082 0.0
H6295 H 0.38149 0.9079 0.74764 0.0
C6296 C 0.33296 0.96644 0.82426 0.0
C6297 C 0.323 0.97506 0.8074 0.0
C6298 C 0.3502 0.95577 0.82187 0.0
C6299 C 0.35772 0.95348 0.80259 0.0
C6300 C 0.34678 0.96043 0.78555 0.0
C6301 C 0.32959 0.97116 0.78792 0.0
C6302 C 0.37772 0.94533 0.80024 0.0
C6303 C 0.37878 0.92732 0.78839 0.0
C6304 C 0.39574 0.95535 0.80953 0.0
C6305 C 0.39577 0.97399 0.82291 0.0
C6306 C 0.38893 0.99253 0.81541 0.0
C6307 C 0.3895 0.0101 0.82812 0.0
C6308 C 0.3969 0.0093 0.84834 0.0
C6309 C 0.40377 0.99094 0.8559 0.0
C6310 C 0.40329 0.97337 0.84324 0.0
C6311 C 0.46011 0.90718 0.76986 0.0
C6312 C 0.47409 0.90669 0.78662 0.0
C6313 C 0.44143 0.91541 0.77198 0.0
C6314 C 0.43602 0.92232 0.79112 0.0
C6315 C 0.45037 0.92235 0.80766 0.0
C6316 C 0.46926 0.91493 0.80537 0.0
C6317 C 0.41558 0.92958 0.79414 0.0
C6318 C 0.41437 0.94759 0.80604 0.0
C6319 C 0.39737 0.91892 0.78573 0.0
C6320 C 0.39697 0.89837 0.77534 0.0
C6321 C 0.40503 0.88161 0.78535 0.0
C6322 C 0.4042 0.86215 0.7757 0.0
C6323 C 0.39527 0.85923 0.75605 0.0
C6324 C 0.38711 0.87576 0.74602 0.0
C6325 C 0.38788 0.89524 0.75562 0.0
H6326 H 0.39462 0.84416 0.74862 0.0
H6327 H 0.39734 0.02291 0.85814 0.0
H6328 H 0.98894 0.60157 0.12973 0.0
H6329 H 0.95328 0.59262 0.13431 0.0
H6330 H 0.94448 0.57223 0.07154 0.0
H6331 H 0.98019 0.5825 0.06656 0.0
H6332 H 0.91843 0.59843 0.07988 0.0
H6333 H 0.94178 0.53808 0.11393 0.0
H6334 H 0.96361 0.52126 0.13915 0.0
H6335 H 0.93922 0.55493 0.18732 0.0
H6336 H 0.91738 0.5721 0.16237 0.0
H6337 H 0.82688 0.53939 0.07473 0.0
H6338 H 0.85826 0.56064 0.07472 0.0
H6339 H 0.85609 0.5727 0.13915 0.0
H6340 H 0.82529 0.54922 0.13943 0.0
H6341 H 0.88788 0.55618 0.13386 0.0
H6342 H 0.86073 0.61315 0.09858 0.0
H6343 H 0.8394 0.62924 0.0724 0.0
H6344 H 0.87106 0.60137 0.02553 0.0
H6345 H 0.89245 0.58499 0.05137 0.0
C6346 C 0.97956 0.59459 0.11705 0.0
C6347 C 0.98722 0.59271 0.09777 0.0
C6348 C 0.95915 0.58946 0.1197 0.0
C6349 C 0.94625 0.58168 0.1033 0.0
C6350 C 0.95422 0.57835 0.08436 0.0
C6351 C 0.97456 0.58404 0.08155 0.0
C6352 C 0.92417 0.57894 0.10535 0.0
C6353 C 0.91165 0.58901 0.09153 0.0
C6354 C 0.91554 0.56752 0.1212 0.0
C6355 C 0.92804 0.55648 0.13626 0.0
C6356 C 0.94109 0.54191 0.12989 0.0
C6357 C 0.95348 0.53232 0.14414 0.0
C6358 C 0.95284 0.53706 0.16481 0.0
C6359 C 0.9397 0.55128 0.1713 0.0
C6360 C 0.92728 0.5609 0.15711 0.0
C6361 C 0.83258 0.5473 0.08876 0.0
C6362 C 0.8241 0.54217 0.10717 0.0
C6363 C 0.85058 0.55978 0.08872 0.0
C6364 C 0.85982 0.56832 0.10698 0.0
C6365 C 0.84939 0.56606 0.1249 0.0
C6366 C 0.83161 0.55289 0.12503 0.0
C6367 C 0.88177 0.57516 0.10788 0.0
C6368 C 0.89447 0.56594 0.12236 0.0
C6369 C 0.89058 0.5873 0.09253 0.0
C6370 C 0.87821 0.59785 0.07697 0.0
C6371 C 0.86315 0.61046 0.0827 0.0
C6372 C 0.85104 0.61963 0.0679 0.0
C6373 C 0.85387 0.61633 0.04732 0.0
C6374 C 0.86891 0.60396 0.04148 0.0
C6375 C 0.88109 0.59481 0.0562 0.0
H6376 H 0.84442 0.62336 0.0359 0.0
H6377 H 0.96249 0.52968 0.17581 0.0
H6378 H 0.95856 0.94832 0.85328 0.0
H6379 H 0.92351 0.9487 0.83936 0.0
H6380 H 0.93682 0.0122 0.82168 0.0
H6381 H 0.96849 0.0132 0.84133 0.0
H6382 H 0.90362 0.01198 0.82559 0.0
H6383 H 0.9349 0.95829 0.78926 0.0
H6384 H 0.95043 0.92556 0.78333 0.0
H6385 H 0.89909 0.89125 0.80675 0.0
H6386 H 0.88324 0.92378 0.81284 0.0
H6387 H 0.83671 0.0101 0.73678 0.0
H6388 H 0.86681 0.00759 0.75943 0.0
H6389 H 0.83366 0.96298 0.79527 0.0
H6390 H 0.80346 0.96516 0.77264 0.0
H6391 H 0.87272 0.95172 0.78449 0.0
H6392 H 0.84244 0.01292 0.81211 0.0
H6393 H 0.82992 0.04743 0.80698 0.0
H6394 H 0.88763 0.07025 0.78642 0.0
H6395 H 0.90042 0.03587 0.79127 0.0
C6396 C 0.95334 0.96263 0.84748 0.0
C6397 C 0.96657 0.98068 0.84784 0.0
C6398 C 0.93354 0.96265 0.83868 0.0
C6399 C 0.92732 0.98016 0.82832 0.0
C6400 C 0.94061 0.99828 0.82937 0.0
C6401 C 0.95936 0.99876 0.84001 0.0
C6402 C 0.90724 0.98021 0.81655 0.0
C6403 C 0.89742 0.99874 0.81633 0.0
C6404 C 0.89814 0.96299 0.80468 0.0
C6405 C 0.90805 0.94351 0.80183 0.0
C6406 C 0.92703 0.94379 0.79336 0.0
C6407 C 0.93586 0.92526 0.78992 0.0
C6408 C 0.92583 0.90635 0.7948 0.0
C6409 C 0.9069 0.90591 0.80307 0.0
C6410 C 0.89797 0.92438 0.80651 0.0
C6411 C 0.8357 -0.00013 0.74956 0.0
C6412 C 0.81758 0.98788 0.75288 0.0
C6413 C 0.85295 0.99845 0.76248 0.0
C6414 C 0.85239 0.98517 0.77906 0.0
C6415 C 0.83437 0.9733 0.78253 0.0
C6416 C 0.81709 0.97468 0.76963 0.0
C6417 C 0.87066 0.98365 0.79276 0.0
C6418 C 0.8796 0.96478 0.79364 0.0
C6419 C 0.8799 0.00095 0.80395 0.0
C6420 C 0.87236 0.02182 0.80205 0.0
C6421 C 0.85245 0.02531 0.80653 0.0
C6422 C 0.8453 0.04484 0.80364 0.0
C6423 C 0.85796 0.06102 0.79637 0.0
C6424 C 0.87784 0.05773 0.79208 0.0
C6425 C 0.88506 0.03825 0.79495 0.0
H6426 H 0.85237 0.07609 0.79408 0.0
H6427 H 0.93269 0.89204 0.79208 0.0
H6428 H 0.07511 0.34908 0.02384 0.0
H6429 H 0.06419 0.34681 0.05858 0.0
H6430 H 0.1162 0.31368 0.07584 0.0
H6431 H 0.12681 0.31526 0.04117 0.0
H6432 H 0.08243 0.29532 0.08874 0.0
H6433 H 0.11351 0.36619 0.08972 0.0
H6434 H 0.11823 0.40221 0.07815 0.0
H6435 H 0.05592 0.41065 0.08757 0.0
H6436 H 0.05076 0.37468 0.09901 0.0
H6437 H 0.05519 0.31674 0.19673 0.0
H6438 H 0.07576 0.31174 0.16716 0.0
H6439 H 0.02663 0.32936 0.12716 0.0
H6440 H 0.00682 0.33509 0.15583 0.0
H6441 H 0.06633 0.35572 0.13002 0.0
H6442 H 0.03144 0.28766 0.1177 0.0
H6443 H 0.02075 0.25097 0.12338 0.0
H6444 H 0.08302 0.23728 0.13025 0.0
H6445 H 0.09405 0.27399 0.1248 0.0
C6446 C 0.08401 0.34107 0.035 0.0
C6447 C 0.10166 0.33216 0.02982 0.0
C6448 C 0.07798 0.34009 0.05487 0.0
C6449 C 0.08971 0.33051 0.0698 0.0
C6450 C 0.10708 0.32128 0.06452 0.0
C6451 C 0.11297 0.322 0.04467 0.0
C6452 C 0.08307 0.32863 0.09061 0.0
C6453 C 0.07943 0.30858 0.09803 0.0
C6454 C 0.0786 0.34598 0.10232 0.0
C6455 C 0.08174 0.36763 0.09517 0.0
C6456 C 0.10078 0.37566 0.08919 0.0
C6457 C 0.10354 0.3961 0.08269 0.0
C6458 C 0.08739 0.4087 0.08211 0.0
C6459 C 0.06844 0.40089 0.08804 0.0
C6460 C 0.0656 0.38049 0.09457 0.0
C6461 C 0.04872 0.31889 0.18154 0.0
C6462 C 0.02951 0.32636 0.17856 0.0
C6463 C 0.06038 0.31604 0.16476 0.0
C6464 C 0.05258 0.32032 0.14516 0.0
C6465 C 0.03281 0.32599 0.14221 0.0
C6466 C 0.02148 0.32917 0.1587 0.0
C6467 C 0.06543 0.32243 0.12785 0.0
C6468 C 0.07017 0.34258 0.12104 0.0
C6469 C 0.07011 0.30522 0.11627 0.0
C6470 C 0.06356 0.28365 0.12143 0.0
C6471 C 0.04285 0.27693 0.12093 0.0
C6472 C 0.03672 0.2561 0.12393 0.0
C6473 C 0.0512 0.24182 0.12732 0.0
C6474 C 0.07182 0.24837 0.12776 0.0
C6475 C 0.07802 0.26919 0.12475 0.0
H6476 H 0.04644 0.22568 0.1295 0.0
H6477 H 0.08957 0.4245 0.07709 0.0
H6478 H 0.96146 0.83822 0.3204 0.0
H6479 H 0.94145 0.83134 0.34985 0.0
H6480 H 0.90363 0.78445 0.31534 0.0
H6481 H 0.92458 0.7905 0.28589 0.0
H6482 H 0.8862 0.82315 0.33874 0.0
H6483 H 0.92368 0.76337 0.34491 0.0
H6484 H 0.95062 0.73962 0.35 0.0
H6485 H 0.9727 0.7728 0.40471 0.0
H6486 H 0.94656 0.79736 0.39946 0.0
H6487 H 0.8338 0.79991 0.43015 0.0
H6488 H 0.84948 0.7942 0.39784 0.0
H6489 H 0.90476 0.82764 0.42209 0.0
H6490 H 0.88894 0.83379 0.45407 0.0
H6491 H 0.90946 0.78925 0.40171 0.0
H6492 H 0.87613 0.85198 0.39335 0.0
H6493 H 0.84739 0.87386 0.39186 0.0
H6494 H 0.81789 0.83539 0.34353 0.0
H6495 H 0.84631 0.81302 0.345 0.0
C6496 C 0.94872 0.8266 0.31899 0.0
C6497 C 0.94417 0.81524 0.30076 0.0
C6498 C 0.93755 0.82246 0.33592 0.0
C6499 C 0.92131 0.80719 0.33483 0.0
C6500 C 0.91634 0.79608 0.3165 0.0
C6501 C 0.92806 0.79973 0.29967 0.0
C6502 C 0.90862 0.80463 0.35244 0.0
C6503 C 0.89102 0.8153 0.35237 0.0
C6504 C 0.91537 0.79495 0.3704 0.0
C6505 C 0.93317 0.7824 0.37163 0.0
C6506 C 0.93464 0.76605 0.35766 0.0
C6507 C 0.94969 0.7523 0.3607 0.0
C6508 C 0.96323 0.75457 0.37777 0.0
C6509 C 0.96208 0.77091 0.39159 0.0
C6510 C 0.94729 0.78489 0.38846 0.0
C6511 C 0.84946 0.80554 0.42864 0.0
C6512 C 0.86042 0.8169 0.44454 0.0
C6513 C 0.85826 0.80253 0.41019 0.0
C6514 C 0.87817 0.81066 0.40762 0.0
C6515 C 0.88936 0.82129 0.42383 0.0
C6516 C 0.88043 0.82465 0.44208 0.0
C6517 C 0.88759 0.80818 0.38809 0.0
C6518 C 0.90457 0.79676 0.3879 0.0
C6519 C 0.88053 0.81745 0.37007 0.0
C6520 C 0.86319 0.83058 0.36955 0.0
C6521 C 0.86337 0.84797 0.38264 0.0
C6522 C 0.84717 0.86052 0.38173 0.0
C6523 C 0.83078 0.85596 0.36767 0.0
C6524 C 0.83057 0.83886 0.35447 0.0
C6525 C 0.8467 0.82622 0.35534 0.0
H6526 H 0.81828 0.86573 0.36696 0.0
H6527 H 0.97474 0.7438 0.38018 0.0
loop_
_geom_bond_atom_site_label_1
_geom_bond_atom_site_label_2
_geom_bond_distance
_geom_bond_site_symmetry_2
_ccdc_geom_bond_type
Mn0 O5 2.095 . S
Mn0 O15 2.162 . S
Mn0 O16 2.297 . S
Mn0 O24 2.385 . S
Mn0 O25 2.209 . S
Mn0 O26 2.094 . S
Mn1 O6 2.121 . S
Mn1 N8 2.257 . S
Mn1 N17 2.282 . S
Mn1 O25 2.215 . S
Mn1 O27 2.117 . S
C2 O24 1.234 . S
C2 O25 1.283 . S
C3 O15 1.281 . S
C3 O16 1.236 . S
C4 O26 1.240 . S
C4 O27 1.264 . S
O5 Mn0 2.095 . S
O5 C14 1.250 . S
O6 Mn1 2.121 . S
O6 C14 1.258 . S
C7 N8 1.326 . S
C7 C11 1.460 . S
C7 H13 0.929 . S
N8 Mn1 2.257 . S
N8 C7 1.326 . S
N8 C12 1.362 . S
C9 C10 1.258 . S
C9 C12 1.431 1_556 S
C9 C29 1.449 . S
C10 C9 1.258 . S
C10 C11 1.477 1_556 S
C10 H30 0.931 . S
C11 C7 1.460 . S
C11 C10 1.477 1_554 S
C11 H31 0.930 . S
C12 N8 1.362 . S
C12 C9 1.431 1_554 S
C12 C22 1.476 . S
H13 C7 0.929 . S
C14 O5 1.250 . S
C14 O6 1.258 . S
O15 Mn0 2.162 . S
O15 C3 1.281 . S
O16 Mn0 2.297 . S
O16 C3 1.236 . S
N17 Mn1 2.282 . S
N17 C18 1.328 . S
N17 C22 1.318 . S
C18 N17 1.328 . S
C18 C19 1.457 . S
C18 H23 0.929 . S
C19 C18 1.457 . S
C19 C20 1.291 . S
C19 H32 0.931 . S
C20 C19 1.291 . S
C20 C21 1.373 . S
C20 H33 0.929 . S
C21 C20 1.373 . S
C21 C22 1.396 . S
C21 C28 1.403 1_554 S
C22 C12 1.476 . S
C22 N17 1.318 . S
C22 C21 1.396 . S
H23 C18 0.929 . S
O24 Mn0 2.385 . S
O24 C2 1.234 . S
O25 Mn0 2.209 . S
O25 Mn1 2.215 . S
O25 C2 1.283 . S
O26 Mn0 2.094 . S
O26 C4 1.240 . S
O27 Mn1 2.117 . S
O27 C4 1.264 . S
C28 C21 1.403 1_556 S
C28 C29 1.399 . S
C28 H34 0.929 . S
C29 C9 1.449 . S
C29 C28 1.399 . S
C29 H35 0.930 . S
H30 C10 0.931 . S
H31 C11 0.930 . S
H32 C19 0.931 . S
H33 C20 0.929 . S
H34 C28 0.929 . S
H35 C29 0.930 . S
Mn36 O41 2.095 . S
Mn36 O51 2.162 . S
Mn36 O52 2.297 . S
Mn36 O60 2.385 . S
Mn36 O61 2.209 . S
Mn36 O62 2.094 . S
Mn37 O42 2.121 . S
Mn37 N44 2.257 . S
Mn37 N53 2.282 . S
Mn37 O61 2.215 . S
Mn37 O63 2.117 . S
C38 O60 1.234 . S
C38 O61 1.283 . S
C39 O51 1.281 . S
C39 O52 1.236 . S
C40 O62 1.240 . S
C40 O63 1.264 . S
O41 Mn36 2.095 . S
O41 C50 1.250 . S
O42 Mn37 2.121 . S
O42 C50 1.258 . S
C43 N44 1.326 . S
C43 C47 1.460 . S
C43 H49 0.929 . S
N44 Mn37 2.257 . S
N44 C43 1.326 . S
N44 C48 1.362 . S
C45 C46 1.258 . S
C45 C48 1.431 . S
C45 C65 1.449 . S
C46 C45 1.258 . S
C46 C47 1.477 . S
C46 H66 0.931 . S
C47 C43 1.460 . S
C47 C46 1.477 . S
C47 H67 0.930 . S
C48 N44 1.362 . S
C48 C45 1.431 . S
C48 C58 1.476 . S
H49 C43 0.929 . S
C50 O41 1.250 . S
C50 O42 1.258 . S
O51 Mn36 2.162 . S
O51 C39 1.281 . S
O52 Mn36 2.297 . S
O52 C39 1.236 . S
N53 Mn37 2.282 . S
N53 C54 1.328 . S
N53 C58 1.318 . S
C54 N53 1.328 . S
C54 C55 1.457 . S
C54 H59 0.929 . S
C55 C54 1.457 . S
C55 C56 1.291 . S
C55 H68 0.931 . S
C56 C55 1.291 . S
C56 C57 1.373 . S
C56 H69 0.929 . S
C57 C56 1.373 . S
C57 C58 1.396 . S
C57 C64 1.403 . S
C58 C48 1.476 . S
C58 N53 1.318 . S
C58 C57 1.396 . S
H59 C54 0.929 . S
O60 Mn36 2.385 . S
O60 C38 1.234 . S
O61 Mn36 2.209 . S
O61 Mn37 2.215 . S
O61 C38 1.283 . S
O62 Mn36 2.094 . S
O62 C40 1.240 . S
O63 Mn37 2.117 . S
O63 C40 1.264 . S
C64 C57 1.403 . S
C64 C65 1.399 . S
C64 H70 0.929 . S
C65 C45 1.449 . S
C65 C64 1.399 . S
C65 H71 0.930 . S
H66 C46 0.931 . S
H67 C47 0.930 . S
H68 C55 0.931 . S
H69 C56 0.929 . S
H70 C64 0.929 . S
H71 C65 0.930 . S
Mn72 O77 2.095 . S
Mn72 O87 2.162 . S
Mn72 O88 2.297 . S
Mn72 O96 2.385 . S
Mn72 O97 2.209 1_565 S
Mn72 O98 2.094 . S
Mn73 O78 2.121 . S
Mn73 N80 2.257 . S
Mn73 N89 2.282 . S
Mn73 O97 2.215 . S
Mn73 O99 2.117 1_545 S
C74 O96 1.234 . S
C74 O97 1.283 1_565 S
C75 O87 1.281 . S
C75 O88 1.236 . S
C76 O98 1.240 . S
C76 O99 1.264 . S
O77 Mn72 2.095 . S
O77 C86 1.250 . S
O78 Mn73 2.121 . S
O78 C86 1.258 1_545 S
C79 N80 1.326 . S
C79 C83 1.460 . S
C79 H85 0.929 . S
N80 Mn73 2.257 . S
N80 C79 1.326 . S
N80 C84 1.362 . S
C81 C82 1.258 . S
C81 C84 1.431 . S
C81 C101 1.449 . S
C82 C81 1.258 . S
C82 C83 1.477 . S
C82 H102 0.931 . S
C83 C79 1.460 . S
C83 C82 1.477 . S
C83 H103 0.930 . S
C84 N80 1.362 . S
C84 C81 1.431 . S
C84 C94 1.476 . S
H85 C79 0.929 . S
C86 O77 1.250 . S
C86 O78 1.258 1_565 S
O87 Mn72 2.162 . S
O87 C75 1.281 . S
O88 Mn72 2.297 . S
O88 C75 1.236 . S
N89 Mn73 2.282 . S
N89 C90 1.328 1_545 S
N89 C94 1.318 . S
C90 N89 1.328 1_565 S
C90 C91 1.457 1_565 S
C90 H95 0.929 . S
C91 C90 1.457 1_545 S
C91 C92 1.291 . S
C91 H104 0.931 1_545 S
C92 C91 1.291 . S
C92 C93 1.373 . S
C92 H105 0.929 . S
C93 C92 1.373 . S
C93 C94 1.396 . S
C93 C100 1.403 . S
C94 C84 1.476 . S
C94 N89 1.318 . S
C94 C93 1.396 . S
H95 C90 0.929 . S
O96 Mn72 2.385 . S
O96 C74 1.234 . S
O97 Mn72 2.209 1_545 S
O97 Mn73 2.215 . S
O97 C74 1.283 1_545 S
O98 Mn72 2.094 . S
O98 C76 1.240 . S
O99 Mn73 2.117 1_565 S
O99 C76 1.264 . S
C100 C93 1.403 . S
C100 C101 1.399 . S
C100 H106 0.929 . S
C101 C81 1.449 . S
C101 C100 1.399 . S
C101 H107 0.930 . S
H102 C82 0.931 . S
H103 C83 0.930 . S
H104 C91 0.931 1_565 S
H105 C92 0.929 . S
H106 C100 0.929 . S
H107 C101 0.930 . S
Mn108 O113 2.095 1_556 S
Mn108 O123 2.165 . S
Mn108 O124 2.297 1_556 S
Mn108 O132 2.385 . S
Mn108 O133 2.209 . S
Mn108 O134 2.094 . S
Mn109 O114 2.121 1_556 S
Mn109 N116 2.257 1_556 S
Mn109 N125 2.282 . S
Mn109 O133 2.215 . S
Mn109 O135 2.117 . S
C110 O132 1.234 . S
C110 O133 1.283 . S
C111 O123 1.261 1_554 S
C111 O124 1.236 . S
C112 O134 1.240 . S
C112 O135 1.264 . S
O113 Mn108 2.095 1_554 S
O113 C122 1.250 . S
O114 Mn109 2.121 1_554 S
O114 C122 1.258 . S
C115 N116 1.326 . S
C115 C119 1.460 . S
C115 H121 0.929 . S
N116 Mn109 2.257 1_554 S
N116 C115 1.326 . S
N116 C120 1.362 1_554 S
C117 C118 1.258 1_556 S
C117 C120 1.431 . S
C117 C137 1.449 . S
C118 C117 1.258 1_554 S
C118 C119 1.477 . S
C118 H138 0.931 . S
C119 C115 1.460 . S
C119 C118 1.477 . S
C119 H139 0.930 . S
C120 N116 1.362 1_556 S
C120 C117 1.431 . S
C120 C130 1.476 . S
H121 C115 0.929 . S
C122 O113 1.250 . S
C122 O114 1.258 . S
O123 Mn108 2.165 . S
O123 C111 1.261 1_556 S
O124 Mn108 2.297 1_554 S
O124 C111 1.236 . S
N125 Mn109 2.282 . S
N125 C126 1.328 . S
N125 C130 1.318 . S
C126 N125 1.328 . S
C126 C127 1.457 . S
C126 H131 0.929 . S
C127 C126 1.457 . S
C127 C128 1.291 . S
C127 H140 0.931 . S
C128 C127 1.291 . S
C128 C129 1.373 . S
C128 H141 0.929 . S
C129 C128 1.373 . S
C129 C130 1.396 . S
C129 C136 1.403 . S
C130 C120 1.476 . S
C130 N125 1.318 . S
C130 C129 1.396 . S
H131 C126 0.929 . S
O132 Mn108 2.385 . S
O132 C110 1.234 . S
O133 Mn108 2.209 . S
O133 Mn109 2.215 . S
O133 C110 1.283 . S
O134 Mn108 2.094 . S
O134 C112 1.240 . S
O135 Mn109 2.117 . S
O135 C112 1.264 . S
C136 C129 1.403 . S
C136 C137 1.399 . S
C136 H142 0.929 . S
C137 C117 1.449 . S
C137 C136 1.399 . S
C137 H143 0.930 . S
H138 C118 0.931 . S
H139 C119 0.930 . S
H140 C127 0.931 . S
H141 C128 0.929 . S
H142 C136 0.929 . S
H143 C137 0.930 . S
Mn144 O149 2.095 . S
Mn144 O159 2.162 . S
Mn144 O160 2.297 . S
Mn144 O168 2.385 . S
Mn144 O169 2.209 . S
Mn144 O170 2.094 . S
Mn145 O150 2.121 . S
Mn145 N152 2.257 . S
Mn145 N161 2.282 . S
Mn145 O169 2.215 . S
Mn145 O171 2.117 . S
C146 O168 1.234 . S
C146 O169 1.283 . S
C147 O159 1.281 . S
C147 O160 1.236 . S
C148 O170 1.240 . S
C148 O171 1.264 . S
O149 Mn144 2.095 . S
O149 C158 1.250 . S
O150 Mn145 2.121 . S
O150 C158 1.258 . S
C151 N152 1.326 . S
C151 C155 1.460 . S
C151 H157 0.929 . S
N152 Mn145 2.257 . S
N152 C151 1.326 . S
N152 C156 1.362 . S
C153 C154 1.258 . S
C153 C156 1.431 . S
C153 C173 1.449 . S
C154 C153 1.258 . S
C154 C155 1.477 . S
C154 H174 0.931 . S
C155 C151 1.460 . S
C155 C154 1.477 . S
C155 H175 0.930 . S
C156 N152 1.362 . S
C156 C153 1.431 . S
C156 C166 1.476 . S
H157 C151 0.929 . S
C158 O149 1.250 . S
C158 O150 1.258 . S
O159 Mn144 2.162 . S
O159 C147 1.281 . S
O160 Mn144 2.297 . S
O160 C147 1.236 . S
N161 Mn145 2.282 . S
N161 C162 1.328 . S
N161 C166 1.318 . S
C162 N161 1.328 . S
C162 C163 1.457 . S
C162 H167 0.929 . S
C163 C162 1.457 . S
C163 C164 1.291 . S
C163 H176 0.931 . S
C164 C163 1.291 . S
C164 C165 1.373 . S
C164 H177 0.929 . S
C165 C164 1.373 . S
C165 C166 1.396 . S
C165 C172 1.403 . S
C166 C156 1.476 . S
C166 N161 1.318 . S
C166 C165 1.396 . S
H167 C162 0.929 . S
O168 Mn144 2.385 . S
O168 C146 1.234 . S
O169 Mn144 2.209 . S
O169 Mn145 2.215 . S
O169 C146 1.283 . S
O170 Mn144 2.094 . S
O170 C148 1.240 . S
O171 Mn145 2.117 . S
O171 C148 1.264 . S
C172 C165 1.403 . S
C172 C173 1.399 . S
C172 H178 0.929 . S
C173 C153 1.449 . S
C173 C172 1.399 . S
C173 H179 0.930 . S
H174 C154 0.931 . S
H175 C155 0.930 . S
H176 C163 0.931 . S
H177 C164 0.929 . S
H178 C172 0.929 . S
H179 C173 0.930 . S
Mn180 O185 2.095 . S
Mn180 O195 2.162 . S
Mn180 O196 2.297 . S
Mn180 O204 2.385 1_556 S
Mn180 O205 2.209 1_556 S
Mn180 O206 2.094 1_556 S
Mn181 O186 2.121 . S
Mn181 N188 2.257 . S
Mn181 N197 2.282 . S
Mn181 O205 2.215 . S
Mn181 O207 2.117 . S
C182 O204 1.234 . S
C182 O205 1.283 . S
C183 O195 1.281 . S
C183 O196 1.236 . S
C184 O206 1.240 . S
C184 O207 1.264 . S
O185 Mn180 2.095 . S
O185 C194 1.250 . S
O186 Mn181 2.121 . S
O186 C194 1.257 1_554 S
C187 N188 1.326 . S
C187 C191 1.460 . S
C187 H193 0.929 . S
N188 Mn181 2.257 . S
N188 C187 1.326 . S
N188 C192 1.362 . S
C189 C190 1.258 . S
C189 C192 1.431 . S
C189 C209 1.449 . S
C190 C189 1.258 . S
C190 C191 1.477 . S
C190 H210 0.931 . S
C191 C187 1.460 . S
C191 C190 1.477 . S
C191 H211 0.930 . S
C192 N188 1.362 . S
C192 C189 1.431 . S
C192 C202 1.476 . S
H193 C187 0.929 . S
C194 O185 1.250 . S
C194 O186 1.257 1_556 S
O195 Mn180 2.162 . S
O195 C183 1.281 . S
O196 Mn180 2.297 . S
O196 C183 1.236 . S
N197 Mn181 2.282 . S
N197 C198 1.328 . S
N197 C202 1.318 . S
C198 N197 1.328 . S
C198 C199 1.457 . S
C198 H203 0.929 . S
C199 C198 1.457 . S
C199 C200 1.291 . S
C199 H212 0.931 . S
C200 C199 1.291 . S
C200 C201 1.373 . S
C200 H213 0.929 . S
C201 C200 1.373 . S
C201 C202 1.396 . S
C201 C208 1.403 . S
C202 C192 1.476 . S
C202 N197 1.318 . S
C202 C201 1.396 . S
H203 C198 0.929 . S
O204 Mn180 2.385 1_554 S
O204 C182 1.234 . S
O205 Mn180 2.209 1_554 S
O205 Mn181 2.215 . S
O205 C182 1.283 . S
O206 Mn180 2.094 1_554 S
O206 C184 1.240 . S
O207 Mn181 2.117 . S
O207 C184 1.264 . S
C208 C201 1.403 . S
C208 C209 1.399 . S
C208 H214 0.929 . S
C209 C189 1.449 . S
C209 C208 1.399 . S
C209 H215 0.930 . S
H210 C190 0.931 . S
H211 C191 0.930 . S
H212 C199 0.931 . S
H213 C200 0.929 . S
H214 C208 0.929 . S
H215 C209 0.930 . S
Mn216 O221 2.095 . S
Mn216 O231 2.162 . S
Mn216 O232 2.297 1_655 S
Mn216 O240 2.392 . S
Mn216 O241 2.209 . S
Mn216 O242 2.094 . S
Mn217 O222 2.121 . S
Mn217 N224 2.257 . S
Mn217 N233 2.282 . S
Mn217 O241 2.215 . S
Mn217 O243 2.117 . S
C218 O240 1.238 . S
C218 O241 1.283 . S
C219 O231 1.281 1_455 S
C219 O232 1.236 . S
C220 O242 1.240 . S
C220 O243 1.264 . S
O221 Mn216 2.095 . S
O221 C230 1.250 . S
O222 Mn217 2.121 . S
O222 C230 1.258 . S
C223 N224 1.326 . S
C223 C227 1.460 . S
C223 H229 0.929 . S
N224 Mn217 2.257 . S
N224 C223 1.326 . S
N224 C228 1.362 . S
C225 C226 1.258 . S
C225 C228 1.431 . S
C225 C245 1.449 . S
C226 C225 1.258 . S
C226 C227 1.477 . S
C226 H246 0.931 . S
C227 C223 1.460 . S
C227 C226 1.477 . S
C227 H247 0.930 . S
C228 N224 1.362 . S
C228 C225 1.431 . S
C228 C238 1.476 . S
H229 C223 0.929 . S
C230 O221 1.250 . S
C230 O222 1.258 . S
O231 Mn216 2.162 . S
O231 C219 1.281 1_655 S
O232 Mn216 2.297 1_455 S
O232 C219 1.236 . S
N233 Mn217 2.282 . S
N233 C234 1.328 . S
N233 C238 1.318 . S
C234 N233 1.328 . S
C234 C235 1.457 . S
C234 H239 0.929 . S
C235 C234 1.457 . S
C235 C236 1.291 . S
C235 H248 0.931 . S
C236 C235 1.291 . S
C236 C237 1.373 . S
C236 H249 0.929 . S
C237 C236 1.373 . S
C237 C238 1.396 . S
C237 C244 1.403 . S
C238 C228 1.476 . S
C238 N233 1.318 . S
C238 C237 1.396 . S
H239 C234 0.929 . S
O240 Mn216 2.392 . S
O240 C218 1.238 . S
O241 Mn216 2.209 . S
O241 Mn217 2.215 . S
O241 C218 1.283 . S
O242 Mn216 2.094 . S
O242 C220 1.240 . S
O243 Mn217 2.117 . S
O243 C220 1.264 . S
C244 C237 1.403 . S
C244 C245 1.399 . S
C244 H250 0.929 . S
C245 C225 1.449 . S
C245 C244 1.399 . S
C245 H251 0.930 . S
H246 C226 0.931 . S
H247 C227 0.930 . S
H248 C235 0.931 . S
H249 C236 0.929 . S
H250 C244 0.929 . S
H251 C245 0.930 . S
Mn252 O257 2.112 . S
Mn252 O267 2.145 1_545 S
Mn252 O268 2.276 1_545 S
Mn252 O276 2.373 1_545 S
Mn252 O277 2.210 . S
Mn252 O278 2.110 . S
Mn253 O258 2.121 . S
Mn253 N260 2.257 . S
Mn253 N269 2.282 . S
Mn253 O277 2.215 . S
Mn253 O279 2.117 . S
C254 O276 1.234 . S
C254 O277 1.283 1_565 S
C255 O267 1.281 . S
C255 O268 1.236 . S
C256 O278 1.240 . S
C256 O279 1.264 . S
O257 Mn252 2.112 . S
O257 C266 1.250 . S
O258 Mn253 2.121 . S
O258 C266 1.258 . S
C259 N260 1.326 . S
C259 C263 1.460 . S
C259 H265 0.929 . S
N260 Mn253 2.257 . S
N260 C259 1.326 . S
N260 C264 1.362 . S
C261 C262 1.258 . S
C261 C264 1.431 . S
C261 C281 1.449 . S
C262 C261 1.258 . S
C262 C263 1.477 . S
C262 H282 0.931 . S
C263 C259 1.460 . S
C263 C262 1.477 . S
C263 H283 0.930 . S
C264 N260 1.362 . S
C264 C261 1.431 . S
C264 C274 1.476 . S
H265 C259 0.929 . S
C266 O257 1.250 . S
C266 O258 1.258 . S
O267 Mn252 2.145 1_565 S
O267 C255 1.281 . S
O268 Mn252 2.276 1_565 S
O268 C255 1.236 . S
N269 Mn253 2.282 . S
N269 C270 1.328 . S
N269 C274 1.318 . S
C270 N269 1.328 . S
C270 C271 1.457 . S
C270 H275 0.929 . S
C271 C270 1.457 . S
C271 C272 1.291 . S
C271 H284 0.931 . S
C272 C271 1.291 . S
C272 C273 1.373 . S
C272 H285 0.929 . S
C273 C272 1.373 . S
C273 C274 1.396 . S
C273 C280 1.403 . S
C274 C264 1.476 . S
C274 N269 1.318 . S
C274 C273 1.396 . S
H275 C270 0.929 . S
O276 Mn252 2.373 1_565 S
O276 C254 1.234 . S
O277 Mn252 2.210 . S
O277 Mn253 2.215 . S
O277 C254 1.283 1_545 S
O278 Mn252 2.110 . S
O278 C256 1.240 . S
O279 Mn253 2.117 . S
O279 C256 1.264 . S
C280 C273 1.403 . S
C280 C281 1.399 . S
C280 H286 0.929 . S
C281 C261 1.449 . S
C281 C280 1.399 . S
C281 H287 0.930 . S
H282 C262 0.931 . S
H283 C263 0.930 . S
H284 C271 0.931 . S
H285 C272 0.929 . S
H286 C280 0.929 . S
H287 C281 0.930 . S
Mn288 O293 2.095 . S
Mn288 O303 2.162 . S
Mn288 O304 2.297 . S
Mn288 O312 2.385 . S
Mn288 O313 2.209 . S
Mn288 O314 2.094 . S
Mn289 O294 2.121 . S
Mn289 N296 2.257 . S
Mn289 N305 2.282 . S
Mn289 O313 2.215 . S
Mn289 O315 2.117 . S
C290 O312 1.234 . S
C290 O313 1.283 . S
C291 O303 1.281 . S
C291 O304 1.236 . S
C292 O314 1.240 . S
C292 O315 1.264 . S
O293 Mn288 2.095 . S
O293 C302 1.250 . S
O294 Mn289 2.121 . S
O294 C302 1.258 . S
C295 N296 1.326 . S
C295 C299 1.460 . S
C295 H301 0.929 . S
N296 Mn289 2.257 . S
N296 C295 1.326 . S
N296 C300 1.362 . S
C297 C298 1.258 . S
C297 C300 1.431 . S
C297 C317 1.449 . S
C298 C297 1.258 . S
C298 C299 1.477 . S
C298 H318 0.931 . S
C299 C295 1.460 . S
C299 C298 1.477 . S
C299 H319 0.930 . S
C300 N296 1.362 . S
C300 C297 1.431 . S
C300 C310 1.476 . S
H301 C295 0.929 . S
C302 O293 1.250 . S
C302 O294 1.258 . S
O303 Mn288 2.162 . S
O303 C291 1.281 . S
O304 Mn288 2.297 . S
O304 C291 1.236 . S
N305 Mn289 2.282 . S
N305 C306 1.328 . S
N305 C310 1.318 . S
C306 N305 1.328 . S
C306 C307 1.457 . S
C306 H311 0.929 . S
C307 C306 1.457 . S
C307 C308 1.291 . S
C307 H320 0.931 . S
C308 C307 1.291 . S
C308 C309 1.373 . S
C308 H321 0.929 . S
C309 C308 1.373 . S
C309 C310 1.396 . S
C309 C316 1.403 . S
C310 C300 1.476 . S
C310 N305 1.318 . S
C310 C309 1.396 . S
H311 C306 0.929 . S
O312 Mn288 2.385 . S
O312 C290 1.234 . S
O313 Mn288 2.209 . S
O313 Mn289 2.215 . S
O313 C290 1.283 . S
O314 Mn288 2.094 . S
O314 C292 1.240 . S
O315 Mn289 2.117 . S
O315 C292 1.264 . S
C316 C309 1.403 . S
C316 C317 1.399 . S
C316 H322 0.929 . S
C317 C297 1.449 . S
C317 C316 1.399 . S
C317 H323 0.930 . S
H318 C298 0.931 . S
H319 C299 0.930 . S
H320 C307 0.931 . S
H321 C308 0.929 . S
H322 C316 0.929 . S
H323 C317 0.930 . S
Mn324 O329 2.095 . S
Mn324 O339 2.162 . S
Mn324 O340 2.297 . S
Mn324 O348 2.385 . S
Mn324 O349 2.209 . S
Mn324 O350 2.094 . S
Mn325 O330 2.121 . S
Mn325 N332 2.257 . S
Mn325 N341 2.282 . S
Mn325 O349 2.215 . S
Mn325 O351 2.117 . S
C326 O348 1.234 . S
C326 O349 1.283 . S
C327 O339 1.281 . S
C327 O340 1.236 . S
C328 O350 1.240 . S
C328 O351 1.264 . S
O329 Mn324 2.095 . S
O329 C338 1.250 . S
O330 Mn325 2.121 . S
O330 C338 1.258 . S
C331 N332 1.326 . S
C331 C335 1.460 . S
C331 H337 0.929 . S
N332 Mn325 2.257 . S
N332 C331 1.326 . S
N332 C336 1.362 . S
C333 C334 1.258 . S
C333 C336 1.431 . S
C333 C353 1.449 . S
C334 C333 1.258 . S
C334 C335 1.477 . S
C334 H354 0.931 . S
C335 C331 1.460 . S
C335 C334 1.477 . S
C335 H355 0.930 . S
C336 N332 1.362 . S
C336 C333 1.431 . S
C336 C346 1.476 . S
H337 C331 0.929 . S
C338 O329 1.250 . S
C338 O330 1.258 . S
O339 Mn324 2.162 . S
O339 C327 1.281 . S
O340 Mn324 2.297 . S
O340 C327 1.236 . S
N341 Mn325 2.282 . S
N341 C342 1.328 . S
N341 C346 1.318 . S
C342 N341 1.328 . S
C342 C343 1.457 . S
C342 H347 0.929 . S
C343 C342 1.457 . S
C343 C344 1.291 . S
C343 H356 0.931 . S
C344 C343 1.291 . S
C344 C345 1.373 . S
C344 H357 0.929 . S
C345 C344 1.373 . S
C345 C346 1.396 . S
C345 C352 1.403 . S
C346 C336 1.476 . S
C346 N341 1.318 . S
C346 C345 1.396 . S
H347 C342 0.929 . S
O348 Mn324 2.385 . S
O348 C326 1.234 . S
O349 Mn324 2.209 . S
O349 Mn325 2.215 . S
O349 C326 1.283 . S
O350 Mn324 2.094 . S
O350 C328 1.240 . S
O351 Mn325 2.117 . S
O351 C328 1.264 . S
C352 C345 1.403 . S
C352 C353 1.399 . S
C352 H358 0.929 . S
C353 C333 1.449 . S
C353 C352 1.399 . S
C353 H359 0.930 . S
H354 C334 0.931 . S
H355 C335 0.930 . S
H356 C343 0.931 . S
H357 C344 0.929 . S
H358 C352 0.929 . S
H359 C353 0.930 . S
Mn360 O365 2.095 . S
Mn360 O375 2.162 . S
Mn360 O376 2.297 . S
Mn360 O384 2.385 . S
Mn360 O385 2.209 . S
Mn360 O386 2.094 . S
Mn361 O366 2.121 . S
Mn361 N368 2.257 . S
Mn361 N377 2.282 . S
Mn361 O385 2.215 . S
Mn361 O387 2.117 . S
C362 O384 1.234 . S
C362 O385 1.283 . S
C363 O375 1.281 . S
C363 O376 1.236 . S
C364 O386 1.240 . S
C364 O387 1.264 . S
O365 Mn360 2.095 . S
O365 C374 1.250 . S
O366 Mn361 2.121 . S
O366 C374 1.258 . S
C367 N368 1.326 . S
C367 C371 1.460 . S
C367 H373 0.929 . S
N368 Mn361 2.257 . S
N368 C367 1.326 . S
N368 C372 1.362 . S
C369 C370 1.258 . S
C369 C372 1.431 . S
C369 C389 1.449 . S
C370 C369 1.258 . S
C370 C371 1.477 . S
C370 H390 0.931 . S
C371 C367 1.460 . S
C371 C370 1.477 . S
C371 H391 0.930 . S
C372 N368 1.362 . S
C372 C369 1.431 . S
C372 C382 1.476 . S
H373 C367 0.929 . S
C374 O365 1.250 . S
C374 O366 1.258 . S
O375 Mn360 2.162 . S
O375 C363 1.281 . S
O376 Mn360 2.297 . S
O376 C363 1.236 . S
N377 Mn361 2.282 . S
N377 C378 1.328 . S
N377 C382 1.318 . S
C378 N377 1.328 . S
C378 C379 1.457 . S
C378 H383 0.929 . S
C379 C378 1.457 . S
C379 C380 1.291 . S
C379 H392 0.931 . S
C380 C379 1.291 . S
C380 C381 1.373 . S
C380 H393 0.929 . S
C381 C380 1.373 . S
C381 C382 1.396 . S
C381 C388 1.403 . S
C382 C372 1.476 . S
C382 N377 1.318 . S
C382 C381 1.396 . S
H383 C378 0.929 . S
O384 Mn360 2.385 . S
O384 C362 1.234 . S
O385 Mn360 2.209 . S
O385 Mn361 2.215 . S
O385 C362 1.283 . S
O386 Mn360 2.094 . S
O386 C364 1.240 . S
O387 Mn361 2.117 . S
O387 C364 1.264 . S
C388 C381 1.403 . S
C388 C389 1.399 . S
C388 H394 0.929 . S
C389 C369 1.449 . S
C389 C388 1.399 . S
C389 H395 0.930 . S
H390 C370 0.931 . S
H391 C371 0.930 . S
H392 C379 0.931 . S
H393 C380 0.929 . S
H394 C388 0.929 . S
H395 C389 0.930 . S
Mn396 O401 2.095 . S
Mn396 O411 2.162 . S
Mn396 O412 2.292 1_545 S
Mn396 O420 2.385 . S
Mn396 O421 2.209 1_545 S
Mn396 O422 2.094 . S
Mn397 O402 2.121 . S
Mn397 N404 2.257 . S
Mn397 N413 2.282 . S
Mn397 O421 2.215 . S
Mn397 O423 2.117 1_565 S
C398 O420 1.234 1_565 S
C398 O421 1.283 . S
C399 O411 1.281 . S
C399 O412 1.226 1_545 S
C400 O422 1.240 . S
C400 O423 1.264 . S
O401 Mn396 2.095 . S
O401 C410 1.250 1_545 S
O402 Mn397 2.121 . S
O402 C410 1.258 . S
C403 N404 1.326 . S
C403 C407 1.460 . S
C403 H409 0.929 . S
N404 Mn397 2.257 . S
N404 C403 1.326 . S
N404 C408 1.362 . S
C405 C406 1.258 . S
C405 C408 1.431 . S
C405 C425 1.449 . S
C406 C405 1.258 . S
C406 C407 1.477 . S
C406 H426 0.931 . S
C407 C403 1.460 . S
C407 C406 1.477 . S
C407 H427 0.930 . S
C408 N404 1.362 . S
C408 C405 1.431 . S
C408 C418 1.476 . S
H409 C403 0.929 . S
C410 O401 1.250 1_565 S
C410 O402 1.258 . S
O411 Mn396 2.162 . S
O411 C399 1.281 . S
O412 Mn396 2.292 1_565 S
O412 C399 1.226 1_565 S
N413 Mn397 2.282 . S
N413 C414 1.328 . S
N413 C418 1.318 . S
C414 N413 1.328 . S
C414 C415 1.457 . S
C414 H419 0.929 1_565 S
C415 C414 1.457 . S
C415 C416 1.291 . S
C415 H428 0.931 . S
C416 C415 1.291 . S
C416 C417 1.373 . S
C416 H429 0.929 . S
C417 C416 1.373 . S
C417 C418 1.396 . S
C417 C424 1.403 . S
C418 C408 1.476 . S
C418 N413 1.318 . S
C418 C417 1.396 . S
H419 C414 0.929 1_545 S
O420 Mn396 2.385 . S
O420 C398 1.234 1_545 S
O421 Mn396 2.209 1_565 S
O421 Mn397 2.215 . S
O421 C398 1.283 . S
O422 Mn396 2.094 . S
O422 C400 1.240 . S
O423 Mn397 2.117 1_545 S
O423 C400 1.264 . S
C424 C417 1.403 . S
C424 C425 1.399 . S
C424 H430 0.929 . S
C425 C405 1.449 . S
C425 C424 1.399 . S
C425 H431 0.930 . S
H426 C406 0.931 . S
H427 C407 0.930 . S
H428 C415 0.931 . S
H429 C416 0.929 . S
H430 C424 0.929 . S
H431 C425 0.930 . S
Mn432 O437 2.095 . S
Mn432 O447 2.162 . S
Mn432 O448 2.297 . S
Mn432 O456 2.385 . S
Mn432 O457 2.209 . S
Mn432 O458 2.094 . S
Mn433 O438 2.121 . S
Mn433 N440 2.257 . S
Mn433 N449 2.282 . S
Mn433 O457 2.215 . S
Mn433 O459 2.117 . S
C434 O456 1.234 . S
C434 O457 1.283 . S
C435 O447 1.281 . S
C435 O448 1.236 . S
C436 O458 1.240 . S
C436 O459 1.264 . S
O437 Mn432 2.095 . S
O437 C446 1.250 . S
O438 Mn433 2.121 . S
O438 C446 1.258 . S
C439 N440 1.326 . S
C439 C443 1.460 . S
C439 H445 0.929 . S
N440 Mn433 2.257 . S
N440 C439 1.326 . S
N440 C444 1.362 . S
C441 C442 1.258 . S
C441 C444 1.431 . S
C441 C461 1.449 . S
C442 C441 1.258 . S
C442 C443 1.477 . S
C442 H462 0.931 . S
C443 C439 1.460 . S
C443 C442 1.477 . S
C443 H463 0.930 . S
C444 N440 1.362 . S
C444 C441 1.431 . S
C444 C454 1.476 . S
H445 C439 0.929 . S
C446 O437 1.250 . S
C446 O438 1.258 . S
O447 Mn432 2.162 . S
O447 C435 1.281 . S
O448 Mn432 2.297 . S
O448 C435 1.236 . S
N449 Mn433 2.282 . S
N449 C450 1.328 . S
N449 C454 1.318 . S
C450 N449 1.328 . S
C450 C451 1.457 . S
C450 H455 0.929 . S
C451 C450 1.457 . S
C451 C452 1.291 . S
C451 H464 0.931 . S
C452 C451 1.291 . S
C452 C453 1.373 . S
C452 H465 0.929 . S
C453 C452 1.373 . S
C453 C454 1.396 . S
C453 C460 1.403 . S
C454 C444 1.476 . S
C454 N449 1.318 . S
C454 C453 1.396 . S
H455 C450 0.929 . S
O456 Mn432 2.385 . S
O456 C434 1.234 . S
O457 Mn432 2.209 . S
O457 Mn433 2.215 . S
O457 C434 1.283 . S
O458 Mn432 2.094 . S
O458 C436 1.240 . S
O459 Mn433 2.117 . S
O459 C436 1.264 . S
C460 C453 1.403 . S
C460 C461 1.399 . S
C460 H466 0.929 . S
C461 C441 1.449 . S
C461 C460 1.399 . S
C461 H467 0.930 . S
H462 C442 0.931 . S
H463 C443 0.930 . S
H464 C451 0.931 . S
H465 C452 0.929 . S
H466 C460 0.929 . S
H467 C461 0.930 . S
Mn468 O473 2.095 . S
Mn468 O483 2.162 . S
Mn468 O484 2.297 . S
Mn468 O492 2.385 1_655 S
Mn468 O493 2.209 1_655 S
Mn468 O494 2.094 1_655 S
Mn469 O474 2.121 . S
Mn469 N476 2.257 . S
Mn469 N485 2.282 . S
Mn469 O493 2.215 . S
Mn469 O495 2.117 . S
C470 O492 1.234 . S
C470 O493 1.283 . S
C471 O483 1.281 . S
C471 O484 1.236 . S
C472 O494 1.240 . S
C472 O495 1.264 . S
O473 Mn468 2.095 . S
O473 C482 1.250 . S
O474 Mn469 2.121 . S
O474 C482 1.258 1_455 S
C475 N476 1.326 . S
C475 C479 1.460 . S
C475 H481 0.929 . S
N476 Mn469 2.257 . S
N476 C475 1.326 . S
N476 C480 1.362 . S
C477 C478 1.258 . S
C477 C480 1.431 . S
C477 C497 1.449 . S
C478 C477 1.258 . S
C478 C479 1.477 . S
C478 H498 0.931 . S
C479 C475 1.460 . S
C479 C478 1.477 . S
C479 H499 0.930 . S
C480 N476 1.362 . S
C480 C477 1.431 . S
C480 C490 1.476 . S
H481 C475 0.929 . S
C482 O473 1.250 . S
C482 O474 1.258 1_655 S
O483 Mn468 2.162 . S
O483 C471 1.281 . S
O484 Mn468 2.297 . S
O484 C471 1.236 . S
N485 Mn469 2.282 . S
N485 C486 1.328 . S
N485 C490 1.318 . S
C486 N485 1.328 . S
C486 C487 1.457 . S
C486 H491 0.929 . S
C487 C486 1.457 . S
C487 C488 1.291 . S
C487 H500 0.931 . S
C488 C487 1.291 . S
C488 C489 1.373 . S
C488 H501 0.929 . S
C489 C488 1.373 . S
C489 C490 1.396 . S
C489 C496 1.403 . S
C490 C480 1.476 . S
C490 N485 1.318 . S
C490 C489 1.396 . S
H491 C486 0.929 . S
O492 Mn468 2.385 1_455 S
O492 C470 1.234 . S
O493 Mn468 2.209 1_455 S
O493 Mn469 2.215 . S
O493 C470 1.283 . S
O494 Mn468 2.094 1_455 S
O494 C472 1.240 . S
O495 Mn469 2.117 . S
O495 C472 1.264 . S
C496 C489 1.403 . S
C496 C497 1.399 . S
C496 H502 0.929 . S
C497 C477 1.449 . S
C497 C496 1.399 . S
C497 H503 0.930 . S
H498 C478 0.931 . S
H499 C479 0.930 . S
H500 C487 0.931 . S
H501 C488 0.929 . S
H502 C496 0.929 . S
H503 C497 0.930 . S
Mn504 O509 2.095 . S
Mn504 O519 2.162 . S
Mn504 O520 2.297 . S
Mn504 O528 2.385 . S
Mn504 O529 2.209 . S
Mn504 O530 2.094 . S
Mn505 O510 2.121 . S
Mn505 N512 2.257 . S
Mn505 N521 2.282 . S
Mn505 O529 2.215 . S
Mn505 O531 2.117 . S
C506 O528 1.234 . S
C506 O529 1.283 . S
C507 O519 1.281 . S
C507 O520 1.236 . S
C508 O530 1.240 . S
C508 O531 1.264 . S
O509 Mn504 2.095 . S
O509 C518 1.250 . S
O510 Mn505 2.121 . S
O510 C518 1.258 . S
C511 N512 1.326 . S
C511 C515 1.460 . S
C511 H517 0.929 . S
N512 Mn505 2.257 . S
N512 C511 1.326 . S
N512 C516 1.362 . S
C513 C514 1.258 . S
C513 C516 1.431 . S
C513 C533 1.449 . S
C514 C513 1.258 . S
C514 C515 1.477 . S
C514 H534 0.931 . S
C515 C511 1.460 . S
C515 C514 1.477 . S
C515 H535 0.930 . S
C516 N512 1.362 . S
C516 C513 1.431 . S
C516 C526 1.476 . S
H517 C511 0.929 . S
C518 O509 1.250 . S
C518 O510 1.258 . S
O519 Mn504 2.162 . S
O519 C507 1.281 . S
O520 Mn504 2.297 . S
O520 C507 1.236 . S
N521 Mn505 2.282 . S
N521 C522 1.328 . S
N521 C526 1.318 . S
C522 N521 1.328 . S
C522 C523 1.457 . S
C522 H527 0.929 . S
C523 C522 1.457 . S
C523 C524 1.291 . S
C523 H536 0.931 . S
C524 C523 1.291 . S
C524 C525 1.373 . S
C524 H537 0.929 . S
C525 C524 1.373 . S
C525 C526 1.396 . S
C525 C532 1.403 . S
C526 C516 1.476 . S
C526 N521 1.318 . S
C526 C525 1.396 . S
H527 C522 0.929 . S
O528 Mn504 2.385 . S
O528 C506 1.234 . S
O529 Mn504 2.209 . S
O529 Mn505 2.215 . S
O529 C506 1.283 . S
O530 Mn504 2.094 . S
O530 C508 1.240 . S
O531 Mn505 2.117 . S
O531 C508 1.264 . S
C532 C525 1.403 . S
C532 C533 1.399 . S
C532 H538 0.929 . S
C533 C513 1.449 . S
C533 C532 1.399 . S
C533 H539 0.930 . S
H534 C514 0.931 . S
H535 C515 0.930 . S
H536 C523 0.931 . S
H537 C524 0.929 . S
H538 C532 0.929 . S
H539 C533 0.930 . S
Mn540 O545 2.095 . S
Mn540 O555 2.162 . S
Mn540 O556 2.297 . S
Mn540 O564 2.385 . S
Mn540 O565 2.209 . S
Mn540 O566 2.094 . S
Mn541 O546 2.121 . S
Mn541 N548 2.257 . S
Mn541 N557 2.282 . S
Mn541 O565 2.215 . S
Mn541 O567 2.117 . S
C542 O564 1.234 . S
C542 O565 1.283 . S
C543 O555 1.281 . S
C543 O556 1.236 . S
C544 O566 1.240 . S
C544 O567 1.264 . S
O545 Mn540 2.095 . S
O545 C554 1.250 . S
O546 Mn541 2.121 . S
O546 C554 1.258 . S
C547 N548 1.326 1_455 S
C547 C551 1.460 . S
C547 H553 0.929 . S
N548 Mn541 2.257 . S
N548 C547 1.326 1_655 S
N548 C552 1.362 1_655 S
C549 C550 1.258 . S
C549 C552 1.431 . S
C549 C569 1.449 . S
C550 C549 1.258 . S
C550 C551 1.477 . S
C550 H570 0.931 . S
C551 C547 1.460 . S
C551 C550 1.477 . S
C551 H571 0.930 . S
C552 N548 1.362 1_455 S
C552 C549 1.431 . S
C552 C562 1.476 1_455 S
H553 C547 0.929 . S
C554 O545 1.250 . S
C554 O546 1.258 . S
O555 Mn540 2.162 . S
O555 C543 1.281 . S
O556 Mn540 2.297 . S
O556 C543 1.236 . S
N557 Mn541 2.282 . S
N557 C558 1.328 . S
N557 C562 1.318 . S
C558 N557 1.328 . S
C558 C559 1.457 . S
C558 H563 0.929 . S
C559 C558 1.457 . S
C559 C560 1.291 . S
C559 H572 0.931 . S
C560 C559 1.291 . S
C560 C561 1.373 . S
C560 H573 0.929 . S
C561 C560 1.373 . S
C561 C562 1.396 . S
C561 C568 1.403 1_655 S
C562 C552 1.476 1_655 S
C562 N557 1.318 . S
C562 C561 1.396 . S
H563 C558 0.929 . S
O564 Mn540 2.385 . S
O564 C542 1.234 . S
O565 Mn540 2.209 . S
O565 Mn541 2.215 . S
O565 C542 1.283 . S
O566 Mn540 2.094 . S
O566 C544 1.240 . S
O567 Mn541 2.117 . S
O567 C544 1.264 . S
C568 C561 1.403 1_455 S
C568 C569 1.399 . S
C568 H574 0.929 . S
C569 C549 1.449 . S
C569 C568 1.399 . S
C569 H575 0.930 . S
H570 C550 0.931 . S
H571 C551 0.930 . S
H572 C559 0.931 . S
H573 C560 0.929 . S
H574 C568 0.929 . S
H575 C569 0.930 . S
Mn576 O581 2.095 1_556 S
Mn576 O591 2.162 . S
Mn576 O592 2.297 . S
Mn576 O600 2.385 1_655 S
Mn576 O601 2.209 1_656 S
Mn576 O602 2.094 1_556 S
Mn577 O582 2.121 . S
Mn577 N584 2.257 . S
Mn577 N593 2.282 . S
Mn577 O601 2.215 . S
Mn577 O603 2.117 . S
C578 O600 1.234 . S
C578 O601 1.283 1_556 S
C579 O591 1.281 . S
C579 O592 1.236 . S
C580 O602 1.240 1_455 S
C580 O603 1.264 . S
O581 Mn576 2.095 1_554 S
O581 C590 1.250 . S
O582 Mn577 2.121 . S
O582 C590 1.258 1_455 S
C583 N584 1.326 . S
C583 C587 1.460 . S
C583 H589 0.929 . S
N584 Mn577 2.257 . S
N584 C583 1.326 . S
N584 C588 1.362 . S
C585 C586 1.258 . S
C585 C588 1.431 . S
C585 C605 1.449 . S
C586 C585 1.258 . S
C586 C587 1.477 . S
C586 H606 0.931 . S
C587 C583 1.460 . S
C587 C586 1.477 . S
C587 H607 0.930 . S
C588 N584 1.362 . S
C588 C585 1.431 . S
C588 C598 1.476 . S
H589 C583 0.929 . S
C590 O581 1.250 . S
C590 O582 1.258 1_655 S
O591 Mn576 2.162 . S
O591 C579 1.281 . S
O592 Mn576 2.297 . S
O592 C579 1.236 . S
N593 Mn577 2.282 . S
N593 C594 1.328 . S
N593 C598 1.318 . S
C594 N593 1.328 . S
C594 C595 1.457 . S
C594 H599 0.929 . S
C595 C594 1.457 . S
C595 C596 1.291 . S
C595 H608 0.931 . S
C596 C595 1.291 . S
C596 C597 1.373 . S
C596 H609 0.929 . S
C597 C596 1.373 . S
C597 C598 1.396 . S
C597 C604 1.403 . S
C598 C588 1.476 . S
C598 N593 1.318 . S
C598 C597 1.396 . S
H599 C594 0.929 . S
O600 Mn576 2.385 1_455 S
O600 C578 1.234 . S
O601 Mn576 2.209 1_454 S
O601 Mn577 2.215 . S
O601 C578 1.283 1_554 S
O602 Mn576 2.094 1_554 S
O602 C580 1.240 1_655 S
O603 Mn577 2.117 . S
O603 C580 1.264 . S
C604 C597 1.403 . S
C604 C605 1.399 . S
C604 H610 0.929 . S
C605 C585 1.449 . S
C605 C604 1.399 . S
C605 H611 0.930 . S
H606 C586 0.931 . S
H607 C587 0.930 . S
H608 C595 0.931 . S
H609 C596 0.929 . S
H610 C604 0.929 . S
H611 C605 0.930 . S
Mn612 O617 2.095 . S
Mn612 O627 2.162 . S
Mn612 O628 2.297 . S
Mn612 O636 2.385 . S
Mn612 O637 2.209 . S
Mn612 O638 2.094 . S
Mn613 O618 2.121 . S
Mn613 N620 2.257 . S
Mn613 N629 2.282 . S
Mn613 O637 2.215 . S
Mn613 O639 2.117 . S
C614 O636 1.234 . S
C614 O637 1.283 . S
C615 O627 1.281 . S
C615 O628 1.236 . S
C616 O638 1.240 . S
C616 O639 1.264 . S
O617 Mn612 2.095 . S
O617 C626 1.250 . S
O618 Mn613 2.121 . S
O618 C626 1.258 . S
C619 N620 1.326 . S
C619 C623 1.460 . S
C619 H625 0.929 . S
N620 Mn613 2.257 . S
N620 C619 1.326 . S
N620 C624 1.362 . S
C621 C622 1.258 . S
C621 C624 1.431 . S
C621 C641 1.449 . S
C622 C621 1.258 . S
C622 C623 1.477 . S
C622 H642 0.931 . S
C623 C619 1.460 . S
C623 C622 1.477 . S
C623 H643 0.930 . S
C624 N620 1.362 . S
C624 C621 1.431 . S
C624 C634 1.476 . S
H625 C619 0.929 . S
C626 O617 1.250 . S
C626 O618 1.258 . S
O627 Mn612 2.162 . S
O627 C615 1.281 . S
O628 Mn612 2.297 . S
O628 C615 1.236 . S
N629 Mn613 2.282 . S
N629 C630 1.328 . S
N629 C634 1.318 . S
C630 N629 1.328 . S
C630 C631 1.457 . S
C630 H635 0.929 . S
C631 C630 1.457 . S
C631 C632 1.291 . S
C631 H644 0.931 . S
C632 C631 1.291 . S
C632 C633 1.373 . S
C632 H645 0.929 . S
C633 C632 1.373 . S
C633 C634 1.396 . S
C633 C640 1.403 . S
C634 C624 1.476 . S
C634 N629 1.318 . S
C634 C633 1.396 . S
H635 C630 0.929 . S
O636 Mn612 2.385 . S
O636 C614 1.234 . S
O637 Mn612 2.209 . S
O637 Mn613 2.215 . S
O637 C614 1.283 . S
O638 Mn612 2.094 . S
O638 C616 1.240 . S
O639 Mn613 2.117 . S
O639 C616 1.264 . S
C640 C633 1.403 . S
C640 C641 1.399 . S
C640 H646 0.929 . S
C641 C621 1.449 . S
C641 C640 1.399 . S
C641 H647 0.930 . S
H642 C622 0.931 . S
H643 C623 0.930 . S
H644 C631 0.931 . S
H645 C632 0.929 . S
H646 C640 0.929 . S
H647 C641 0.930 . S
Mn648 O653 2.095 . S
Mn648 O663 2.162 . S
Mn648 O664 2.297 . S
Mn648 O672 2.385 . S
Mn648 O673 2.209 . S
Mn648 O674 2.094 . S
Mn649 O654 2.121 . S
Mn649 N656 2.257 . S
Mn649 N665 2.282 . S
Mn649 O673 2.215 . S
Mn649 O675 2.117 . S
C650 O672 1.234 . S
C650 O673 1.283 . S
C651 O663 1.281 . S
C651 O664 1.236 . S
C652 O674 1.240 . S
C652 O675 1.264 . S
O653 Mn648 2.095 . S
O653 C662 1.250 . S
O654 Mn649 2.121 . S
O654 C662 1.258 . S
C655 N656 1.326 . S
C655 C659 1.460 . S
C655 H661 0.929 . S
N656 Mn649 2.257 . S
N656 C655 1.326 . S
N656 C660 1.362 . S
C657 C658 1.258 . S
C657 C660 1.431 . S
C657 C677 1.449 . S
C658 C657 1.258 . S
C658 C659 1.477 . S
C658 H678 0.931 . S
C659 C655 1.460 . S
C659 C658 1.477 . S
C659 H679 0.930 . S
C660 N656 1.362 . S
C660 C657 1.431 . S
C660 C670 1.476 . S
H661 C655 0.929 . S
C662 O653 1.250 . S
C662 O654 1.258 . S
O663 Mn648 2.162 . S
O663 C651 1.281 . S
O664 Mn648 2.297 . S
O664 C651 1.236 . S
N665 Mn649 2.282 . S
N665 C666 1.328 . S
N665 C670 1.318 . S
C666 N665 1.328 . S
C666 C667 1.457 . S
C666 H671 0.929 . S
C667 C666 1.457 . S
C667 C668 1.291 . S
C667 H680 0.931 . S
C668 C667 1.291 . S
C668 C669 1.373 . S
C668 H681 0.929 . S
C669 C668 1.373 . S
C669 C670 1.396 . S
C669 C676 1.403 . S
C670 C660 1.476 . S
C670 N665 1.318 . S
C670 C669 1.396 . S
H671 C666 0.929 . S
O672 Mn648 2.385 . S
O672 C650 1.234 . S
O673 Mn648 2.209 . S
O673 Mn649 2.215 . S
O673 C650 1.283 . S
O674 Mn648 2.094 . S
O674 C652 1.240 . S
O675 Mn649 2.117 . S
O675 C652 1.264 . S
C676 C669 1.403 . S
C676 C677 1.399 . S
C676 H682 0.929 . S
C677 C657 1.449 . S
C677 C676 1.399 . S
C677 H683 0.930 . S
H678 C658 0.931 . S
H679 C659 0.930 . S
H680 C667 0.931 . S
H681 C668 0.929 . S
H682 C676 0.929 . S
H683 C677 0.930 . S
Mn684 O689 2.095 . S
Mn684 O699 2.162 . S
Mn684 O700 2.297 . S
Mn684 O708 2.385 . S
Mn684 O709 2.209 . S
Mn684 O710 2.094 . S
Mn685 O690 2.121 . S
Mn685 N692 2.257 . S
Mn685 N701 2.282 . S
Mn685 O709 2.215 . S
Mn685 O711 2.117 . S
C686 O708 1.234 . S
C686 O709 1.283 . S
C687 O699 1.281 . S
C687 O700 1.236 . S
C688 O710 1.240 . S
C688 O711 1.264 . S
O689 Mn684 2.095 . S
O689 C698 1.250 . S
O690 Mn685 2.121 . S
O690 C698 1.258 . S
C691 N692 1.326 . S
C691 C695 1.460 . S
C691 H697 0.929 . S
N692 Mn685 2.257 . S
N692 C691 1.326 . S
N692 C696 1.362 . S
C693 C694 1.258 . S
C693 C696 1.431 . S
C693 C713 1.449 . S
C694 C693 1.258 . S
C694 C695 1.477 . S
C694 H714 0.931 . S
C695 C691 1.460 . S
C695 C694 1.477 . S
C695 H715 0.930 . S
C696 N692 1.362 . S
C696 C693 1.431 . S
C696 C706 1.476 . S
H697 C691 0.929 . S
C698 O689 1.250 . S
C698 O690 1.258 . S
O699 Mn684 2.162 . S
O699 C687 1.281 . S
O700 Mn684 2.297 . S
O700 C687 1.236 . S
N701 Mn685 2.282 . S
N701 C702 1.328 . S
N701 C706 1.318 . S
C702 N701 1.328 . S
C702 C703 1.457 . S
C702 H707 0.929 . S
C703 C702 1.457 . S
C703 C704 1.291 . S
C703 H716 0.931 . S
C704 C703 1.291 . S
C704 C705 1.373 . S
C704 H717 0.929 . S
C705 C704 1.373 . S
C705 C706 1.396 . S
C705 C712 1.403 . S
C706 C696 1.476 . S
C706 N701 1.318 . S
C706 C705 1.396 . S
H707 C702 0.929 . S
O708 Mn684 2.385 . S
O708 C686 1.234 . S
O709 Mn684 2.209 . S
O709 Mn685 2.215 . S
O709 C686 1.283 . S
O710 Mn684 2.094 . S
O710 C688 1.240 . S
O711 Mn685 2.117 . S
O711 C688 1.264 . S
C712 C705 1.403 . S
C712 C713 1.399 . S
C712 H718 0.929 . S
C713 C693 1.449 . S
C713 C712 1.399 . S
C713 H719 0.930 . S
H714 C694 0.931 . S
H715 C695 0.930 . S
H716 C703 0.931 . S
H717 C704 0.929 . S
H718 C712 0.929 . S
H719 C713 0.930 . S
Mn720 O725 2.100 1_545 S
Mn720 O735 2.162 . S
Mn720 O736 2.297 1_545 S
Mn720 O744 2.385 . S
Mn720 O745 2.209 1_545 S
Mn720 O746 2.094 . S
Mn721 O726 2.121 1_545 S
Mn721 N728 2.257 1_545 S
Mn721 N737 2.282 1_655 S
Mn721 O745 2.215 1_645 S
Mn721 O747 2.117 1_655 S
C722 O744 1.234 1_565 S
C722 O745 1.283 . S
C723 O735 1.281 1_565 S
C723 O736 1.236 . S
C724 O746 1.240 . S
C724 O747 1.264 . S
O725 Mn720 2.100 1_565 S
O725 C734 1.246 1_455 S
O726 Mn721 2.121 1_565 S
O726 C734 1.258 . S
C727 N728 1.326 . S
C727 C731 1.460 . S
C727 H733 0.929 . S
N728 Mn721 2.257 1_565 S
N728 C727 1.326 . S
N728 C732 1.362 . S
C729 C730 1.258 . S
C729 C732 1.431 . S
C729 C749 1.449 . S
C730 C729 1.258 . S
C730 C731 1.477 . S
C730 H750 0.931 . S
C731 C727 1.460 . S
C731 C730 1.477 . S
C731 H751 0.930 . S
C732 N728 1.362 . S
C732 C729 1.431 . S
C732 C742 1.476 1_665 S
H733 C727 0.929 . S
C734 O725 1.246 1_655 S
C734 O726 1.258 . S
O735 Mn720 2.162 . S
O735 C723 1.281 1_545 S
O736 Mn720 2.297 1_565 S
O736 C723 1.236 . S
N737 Mn721 2.282 1_455 S
N737 C738 1.328 . S
N737 C742 1.318 . S
C738 N737 1.328 . S
C738 C739 1.457 . S
C738 H743 0.929 . S
C739 C738 1.457 . S
C739 C740 1.291 . S
C739 H752 0.931 . S
C740 C739 1.291 . S
C740 C741 1.373 . S
C740 H753 0.929 . S
C741 C740 1.373 . S
C741 C742 1.396 . S
C741 C748 1.403 1_545 S
C742 C732 1.476 1_445 S
C742 N737 1.318 . S
C742 C741 1.396 . S
H743 C738 0.929 . S
O744 Mn720 2.385 . S
O744 C722 1.234 1_545 S
O745 Mn720 2.209 1_565 S
O745 Mn721 2.215 1_465 S
O745 C722 1.283 . S
O746 Mn720 2.094 . S
O746 C724 1.240 . S
O747 Mn721 2.117 1_455 S
O747 C724 1.264 . S
C748 C741 1.403 1_565 S
C748 C749 1.399 1_455 S
C748 H754 0.929 . S
C749 C729 1.449 . S
C749 C748 1.399 1_655 S
C749 H755 0.930 . S
H750 C730 0.931 . S
H751 C731 0.930 . S
H752 C739 0.931 . S
H753 C740 0.929 . S
H754 C748 0.929 . S
H755 C749 0.930 . S
Mn756 O761 2.095 . S
Mn756 O771 2.162 . S
Mn756 O772 2.297 . S
Mn756 O780 2.385 . S
Mn756 O781 2.209 1_556 S
Mn756 O782 2.094 . S
Mn757 O762 2.121 . S
Mn757 N764 2.257 . S
Mn757 N773 2.282 . S
Mn757 O781 2.215 . S
Mn757 O783 2.117 1_554 S
C758 O780 1.274 . S
C758 O781 1.273 1_556 S
C759 O771 1.281 . S
C759 O772 1.236 . S
C760 O782 1.240 . S
C760 O783 1.264 . S
O761 Mn756 2.095 . S
O761 C770 1.250 1_556 S
O762 Mn757 2.121 . S
O762 C770 1.258 . S
C763 N764 1.326 . S
C763 C767 1.460 . S
C763 H769 0.929 . S
N764 Mn757 2.257 . S
N764 C763 1.326 . S
N764 C768 1.362 . S
C765 C766 1.258 . S
C765 C768 1.431 . S
C765 C785 1.449 . S
C766 C765 1.258 . S
C766 C767 1.477 . S
C766 H786 0.931 . S
C767 C763 1.460 . S
C767 C766 1.477 . S
C767 H787 0.930 . S
C768 N764 1.362 . S
C768 C765 1.431 . S
C768 C778 1.476 . S
H769 C763 0.929 . S
C770 O761 1.250 1_554 S
C770 O762 1.258 . S
O771 Mn756 2.162 . S
O771 C759 1.281 . S
O772 Mn756 2.297 . S
O772 C759 1.236 . S
N773 Mn757 2.282 . S
N773 C774 1.328 1_554 S
N773 C778 1.318 . S
C774 N773 1.328 1_556 S
C774 C775 1.457 . S
C774 H779 0.929 . S
C775 C774 1.457 . S
C775 C776 1.291 1_556 S
C775 H788 0.931 . S
C776 C775 1.291 1_554 S
C776 C777 1.373 . S
C776 H789 0.929 . S
C777 C776 1.373 . S
C777 C778 1.396 . S
C777 C784 1.403 . S
C778 C768 1.476 . S
C778 N773 1.318 . S
C778 C777 1.396 . S
H779 C774 0.929 . S
O780 Mn756 2.385 . S
O780 C758 1.274 . S
O781 Mn756 2.209 1_554 S
O781 Mn757 2.215 . S
O781 C758 1.273 1_554 S
O782 Mn756 2.094 . S
O782 C760 1.240 . S
O783 Mn757 2.117 1_556 S
O783 C760 1.264 . S
C784 C777 1.403 . S
C784 C785 1.399 . S
C784 H790 0.929 . S
C785 C765 1.449 . S
C785 C784 1.399 . S
C785 H791 0.930 . S
H786 C766 0.931 . S
H787 C767 0.930 . S
H788 C775 0.931 . S
H789 C776 0.929 . S
H790 C784 0.929 . S
H791 C785 0.930 . S
Mn792 O797 2.095 . S
Mn792 O807 2.162 . S
Mn792 O808 2.297 . S
Mn792 O816 2.385 . S
Mn792 O817 2.209 . S
Mn792 O818 2.094 . S
Mn793 O798 2.121 . S
Mn793 N800 2.257 . S
Mn793 N809 2.282 . S
Mn793 O817 2.215 . S
Mn793 O819 2.117 . S
C794 O816 1.234 . S
C794 O817 1.283 . S
C795 O807 1.281 . S
C795 O808 1.236 . S
C796 O818 1.240 . S
C796 O819 1.264 . S
O797 Mn792 2.095 . S
O797 C806 1.250 . S
O798 Mn793 2.121 . S
O798 C806 1.258 . S
C799 N800 1.326 . S
C799 C803 1.460 . S
C799 H805 0.929 . S
N800 Mn793 2.257 . S
N800 C799 1.326 . S
N800 C804 1.362 . S
C801 C802 1.258 . S
C801 C804 1.431 . S
C801 C821 1.449 . S
C802 C801 1.258 . S
C802 C803 1.477 . S
C802 H822 0.931 . S
C803 C799 1.460 . S
C803 C802 1.477 . S
C803 H823 0.930 . S
C804 N800 1.362 . S
C804 C801 1.431 . S
C804 C814 1.476 . S
H805 C799 0.929 . S
C806 O797 1.250 . S
C806 O798 1.258 . S
O807 Mn792 2.162 . S
O807 C795 1.281 . S
O808 Mn792 2.297 . S
O808 C795 1.236 . S
N809 Mn793 2.282 . S
N809 C810 1.328 . S
N809 C814 1.318 . S
C810 N809 1.328 . S
C810 C811 1.457 . S
C810 H815 0.929 . S
C811 C810 1.457 . S
C811 C812 1.291 . S
C811 H824 0.931 . S
C812 C811 1.291 . S
C812 C813 1.373 . S
C812 H825 0.929 . S
C813 C812 1.373 . S
C813 C814 1.396 . S
C813 C820 1.403 . S
C814 C804 1.476 . S
C814 N809 1.318 . S
C814 C813 1.396 . S
H815 C810 0.929 . S
O816 Mn792 2.385 . S
O816 C794 1.234 . S
O817 Mn792 2.209 . S
O817 Mn793 2.215 . S
O817 C794 1.283 . S
O818 Mn792 2.094 . S
O818 C796 1.240 . S
O819 Mn793 2.117 . S
O819 C796 1.264 . S
C820 C813 1.403 . S
C820 C821 1.399 . S
C820 H826 0.929 . S
C821 C801 1.449 . S
C821 C820 1.399 . S
C821 H827 0.930 . S
H822 C802 0.931 . S
H823 C803 0.930 . S
H824 C811 0.931 . S
H825 C812 0.929 . S
H826 C820 0.929 . S
H827 C821 0.930 . S
Mn828 O833 2.095 . S
Mn828 O843 2.162 . S
Mn828 O844 2.297 . S
Mn828 O852 2.385 . S
Mn828 O853 2.209 . S
Mn828 O854 2.094 . S
Mn829 O834 2.121 . S
Mn829 N836 2.257 . S
Mn829 N845 2.282 . S
Mn829 O853 2.215 . S
Mn829 O855 2.117 . S
C830 O852 1.234 . S
C830 O853 1.283 . S
C831 O843 1.281 . S
C831 O844 1.236 . S
C832 O854 1.240 . S
C832 O855 1.264 . S
O833 Mn828 2.095 . S
O833 C842 1.250 . S
O834 Mn829 2.121 . S
O834 C842 1.258 . S
C835 N836 1.326 . S
C835 C839 1.460 . S
C835 H841 0.929 . S
N836 Mn829 2.257 . S
N836 C835 1.326 . S
N836 C840 1.362 . S
C837 C838 1.258 . S
C837 C840 1.431 . S
C837 C857 1.449 . S
C838 C837 1.258 . S
C838 C839 1.477 . S
C838 H858 0.931 . S
C839 C835 1.460 . S
C839 C838 1.477 . S
C839 H859 0.930 . S
C840 N836 1.362 . S
C840 C837 1.431 . S
C840 C850 1.476 . S
H841 C835 0.929 . S
C842 O833 1.250 . S
C842 O834 1.258 . S
O843 Mn828 2.162 . S
O843 C831 1.281 . S
O844 Mn828 2.297 . S
O844 C831 1.236 . S
N845 Mn829 2.282 . S
N845 C846 1.328 . S
N845 C850 1.318 . S
C846 N845 1.328 . S
C846 C847 1.457 . S
C846 H851 0.929 . S
C847 C846 1.457 . S
C847 C848 1.291 . S
C847 H860 0.931 . S
C848 C847 1.291 . S
C848 C849 1.373 . S
C848 H861 0.929 . S
C849 C848 1.373 . S
C849 C850 1.396 . S
C849 C856 1.403 . S
C850 C840 1.476 . S
C850 N845 1.318 . S
C850 C849 1.396 . S
H851 C846 0.929 . S
O852 Mn828 2.385 . S
O852 C830 1.234 . S
O853 Mn828 2.209 . S
O853 Mn829 2.215 . S
O853 C830 1.283 . S
O854 Mn828 2.094 . S
O854 C832 1.240 . S
O855 Mn829 2.117 . S
O855 C832 1.264 . S
C856 C849 1.403 . S
C856 C857 1.399 . S
C856 H862 0.929 . S
C857 C837 1.449 . S
C857 C856 1.399 . S
C857 H863 0.930 . S
H858 C838 0.931 . S
H859 C839 0.930 . S
H860 C847 0.931 . S
H861 C848 0.929 . S
H862 C856 0.929 . S
H863 C857 0.930 . S
Mn864 O869 2.095 . S
Mn864 O879 2.162 . S
Mn864 O880 2.297 . S
Mn864 O888 2.385 1_545 S
Mn864 O889 2.209 1_545 S
Mn864 O890 2.094 1_545 S
Mn865 O870 2.121 . S
Mn865 N872 2.257 . S
Mn865 N881 2.282 . S
Mn865 O889 2.215 . S
Mn865 O891 2.117 . S
C866 O888 1.234 . S
C866 O889 1.283 . S
C867 O879 1.281 . S
C867 O880 1.236 . S
C868 O890 1.240 . S
C868 O891 1.264 . S
O869 Mn864 2.095 . S
O869 C878 1.250 . S
O870 Mn865 2.121 . S
O870 C878 1.258 1_565 S
C871 N872 1.326 . S
C871 C875 1.460 . S
C871 H877 0.929 . S
N872 Mn865 2.257 . S
N872 C871 1.326 . S
N872 C876 1.362 . S
C873 C874 1.258 . S
C873 C876 1.431 . S
C873 C893 1.449 . S
C874 C873 1.258 . S
C874 C875 1.477 . S
C874 H894 0.931 . S
C875 C871 1.460 . S
C875 C874 1.477 . S
C875 H895 0.930 . S
C876 N872 1.362 . S
C876 C873 1.431 . S
C876 C886 1.476 . S
H877 C871 0.929 . S
C878 O869 1.250 . S
C878 O870 1.258 1_545 S
O879 Mn864 2.162 . S
O879 C867 1.281 . S
O880 Mn864 2.297 . S
O880 C867 1.236 . S
N881 Mn865 2.282 . S
N881 C882 1.328 . S
N881 C886 1.318 . S
C882 N881 1.328 . S
C882 C883 1.457 . S
C882 H887 0.929 . S
C883 C882 1.457 . S
C883 C884 1.291 . S
C883 H896 0.931 . S
C884 C883 1.291 . S
C884 C885 1.373 . S
C884 H897 0.929 . S
C885 C884 1.373 . S
C885 C886 1.396 . S
C885 C892 1.403 . S
C886 C876 1.476 . S
C886 N881 1.318 . S
C886 C885 1.396 . S
H887 C882 0.929 . S
O888 Mn864 2.385 1_565 S
O888 C866 1.234 . S
O889 Mn864 2.209 1_565 S
O889 Mn865 2.215 . S
O889 C866 1.283 . S
O890 Mn864 2.094 1_565 S
O890 C868 1.240 . S
O891 Mn865 2.117 . S
O891 C868 1.264 . S
C892 C885 1.403 . S
C892 C893 1.399 . S
C892 H898 0.929 . S
C893 C873 1.449 . S
C893 C892 1.399 . S
C893 H899 0.930 . S
H894 C874 0.931 . S
H895 C875 0.930 . S
H896 C883 0.931 . S
H897 C884 0.929 . S
H898 C892 0.929 . S
H899 C893 0.930 . S
Mn900 O905 2.095 1_545 S
Mn900 O915 2.162 . S
Mn900 O916 2.297 . S
Mn900 O924 2.385 . S
Mn900 O925 2.209 1_545 S
Mn900 O926 2.094 1_545 S
Mn901 O906 2.121 . S
Mn901 N908 2.257 . S
Mn901 N917 2.282 . S
Mn901 O925 2.215 . S
Mn901 O927 2.117 . S
C902 O924 1.234 . S
C902 O925 1.283 1_545 S
C903 O915 1.281 . S
C903 O916 1.236 . S
C904 O926 1.240 . S
C904 O927 1.264 . S
O905 Mn900 2.095 1_565 S
O905 C914 1.250 . S
O906 Mn901 2.121 . S
O906 C914 1.258 . S
C907 N908 1.326 . S
C907 C911 1.460 . S
C907 H913 0.929 . S
N908 Mn901 2.257 . S
N908 C907 1.326 . S
N908 C912 1.362 . S
C909 C910 1.258 . S
C909 C912 1.431 . S
C909 C929 1.449 . S
C910 C909 1.258 . S
C910 C911 1.477 . S
C910 H930 0.931 . S
C911 C907 1.460 . S
C911 C910 1.477 . S
C911 H931 0.930 . S
C912 N908 1.362 . S
C912 C909 1.431 . S
C912 C922 1.476 . S
H913 C907 0.929 . S
C914 O905 1.250 . S
C914 O906 1.258 . S
O915 Mn900 2.162 . S
O915 C903 1.281 . S
O916 Mn900 2.297 . S
O916 C903 1.236 . S
N917 Mn901 2.282 . S
N917 C918 1.328 . S
N917 C922 1.318 . S
C918 N917 1.328 . S
C918 C919 1.457 . S
C918 H923 0.929 . S
C919 C918 1.457 . S
C919 C920 1.291 . S
C919 H932 0.931 . S
C920 C919 1.291 . S
C920 C921 1.373 . S
C920 H933 0.929 . S
C921 C920 1.373 . S
C921 C922 1.396 . S
C921 C928 1.403 . S
C922 C912 1.476 . S
C922 N917 1.318 . S
C922 C921 1.396 . S
H923 C918 0.929 . S
O924 Mn900 2.385 . S
O924 C902 1.234 . S
O925 Mn900 2.209 1_565 S
O925 Mn901 2.215 . S
O925 C902 1.283 1_565 S
O926 Mn900 2.094 1_565 S
O926 C904 1.240 . S
O927 Mn901 2.117 . S
O927 C904 1.264 . S
C928 C921 1.403 . S
C928 C929 1.399 . S
C928 H934 0.929 . S
C929 C909 1.449 . S
C929 C928 1.399 . S
C929 H935 0.930 . S
H930 C910 0.931 . S
H931 C911 0.930 . S
H932 C919 0.931 . S
H933 C920 0.929 . S
H934 C928 0.929 . S
H935 C929 0.930 . S
Mn936 O941 2.095 . S
Mn936 O951 2.162 . S
Mn936 O952 2.297 . S
Mn936 O960 2.385 . S
Mn936 O961 2.209 . S
Mn936 O962 2.094 . S
Mn937 O942 2.121 . S
Mn937 N944 2.257 . S
Mn937 N953 2.282 . S
Mn937 O961 2.215 . S
Mn937 O963 2.117 . S
C938 O960 1.234 . S
C938 O961 1.283 . S
C939 O951 1.281 . S
C939 O952 1.236 . S
C940 O962 1.240 . S
C940 O963 1.264 . S
O941 Mn936 2.095 . S
O941 C950 1.250 . S
O942 Mn937 2.121 . S
O942 C950 1.258 . S
C943 N944 1.326 . S
C943 C947 1.460 . S
C943 H949 0.929 . S
N944 Mn937 2.257 . S
N944 C943 1.326 . S
N944 C948 1.362 . S
C945 C946 1.258 . S
C945 C948 1.431 . S
C945 C965 1.449 . S
C946 C945 1.258 . S
C946 C947 1.477 . S
C946 H966 0.931 . S
C947 C943 1.460 . S
C947 C946 1.477 . S
C947 H967 0.930 . S
C948 N944 1.362 . S
C948 C945 1.431 . S
C948 C958 1.476 . S
H949 C943 0.929 . S
C950 O941 1.250 . S
C950 O942 1.258 . S
O951 Mn936 2.162 . S
O951 C939 1.281 . S
O952 Mn936 2.297 . S
O952 C939 1.236 . S
N953 Mn937 2.282 . S
N953 C954 1.328 . S
N953 C958 1.318 . S
C954 N953 1.328 . S
C954 C955 1.457 . S
C954 H959 0.929 . S
C955 C954 1.457 . S
C955 C956 1.291 . S
C955 H968 0.931 . S
C956 C955 1.291 . S
C956 C957 1.373 . S
C956 H969 0.929 . S
C957 C956 1.373 . S
C957 C958 1.396 . S
C957 C964 1.403 . S
C958 C948 1.476 . S
C958 N953 1.318 . S
C958 C957 1.396 . S
H959 C954 0.929 . S
O960 Mn936 2.385 . S
O960 C938 1.234 . S
O961 Mn936 2.209 . S
O961 Mn937 2.215 . S
O961 C938 1.283 . S
O962 Mn936 2.094 . S
O962 C940 1.240 . S
O963 Mn937 2.117 . S
O963 C940 1.264 . S
C964 C957 1.403 . S
C964 C965 1.399 . S
C964 H970 0.929 . S
C965 C945 1.449 . S
C965 C964 1.399 . S
C965 H971 0.930 . S
H966 C946 0.931 . S
H967 C947 0.930 . S
H968 C955 0.931 . S
H969 C956 0.929 . S
H970 C964 0.929 . S
H971 C965 0.930 . S
Mn972 O977 2.095 1_556 S
Mn972 O987 2.162 . S
Mn972 O988 2.297 1_556 S
Mn972 O996 2.385 . S
Mn972 O997 2.209 1_556 S
Mn972 O998 2.094 . S
Mn973 O978 2.121 . S
Mn973 N980 2.257 . S
Mn973 N989 2.282 . S
Mn973 O997 2.215 . S
Mn973 O999 2.117 1_554 S
C974 O996 1.234 1_554 S
C974 O997 1.283 . S
C975 O987 1.281 . S
C975 O988 1.236 1_556 S
C976 O998 1.240 . S
C976 O999 1.264 . S
O977 Mn972 2.095 1_554 S
O977 C986 1.250 . S
O978 Mn973 2.121 . S
O978 C986 1.258 . S
C979 N980 1.326 . S
C979 C983 1.460 . S
C979 H985 0.929 . S
N980 Mn973 2.257 . S
N980 C979 1.326 . S
N980 C984 1.362 . S
C981 C982 1.258 . S
C981 C984 1.431 . S
C981 C1001 1.449 . S
C982 C981 1.258 . S
C982 C983 1.477 . S
C982 H1002 0.931 . S
C983 C979 1.460 . S
C983 C982 1.477 . S
C983 H1003 0.930 . S
C984 N980 1.362 . S
C984 C981 1.431 . S
C984 C994 1.476 . S
H985 C979 0.929 . S
C986 O977 1.250 . S
C986 O978 1.258 . S
O987 Mn972 2.162 . S
O987 C975 1.281 . S
O988 Mn972 2.297 1_554 S
O988 C975 1.236 1_554 S
N989 Mn973 2.282 . S
N989 C990 1.328 . S
N989 C994 1.318 . S
C990 N989 1.328 . S
C990 C991 1.457 . S
C990 H995 0.929 . S
C991 C990 1.457 . S
C991 C992 1.291 . S
C991 H1004 0.931 . S
C992 C991 1.291 . S
C992 C993 1.373 . S
C992 H1005 0.929 . S
C993 C992 1.373 . S
C993 C994 1.396 . S
C993 C1000 1.403 . S
C994 C984 1.476 . S
C994 N989 1.318 . S
C994 C993 1.396 . S
H995 C990 0.929 . S
O996 Mn972 2.385 . S
O996 C974 1.234 1_556 S
O997 Mn972 2.209 1_554 S
O997 Mn973 2.215 . S
O997 C974 1.283 . S
O998 Mn972 2.094 . S
O998 C976 1.240 . S
O999 Mn973 2.117 1_556 S
O999 C976 1.264 . S
C1000 C993 1.403 . S
C1000 C1001 1.399 . S
C1000 H1006 0.929 . S
C1001 C981 1.449 . S
C1001 C1000 1.399 . S
C1001 H1007 0.930 . S
H1002 C982 0.931 . S
H1003 C983 0.930 . S
H1004 C991 0.931 . S
H1005 C992 0.929 . S
H1006 C1000 0.929 . S
H1007 C1001 0.930 . S
Mn1008 O1013 2.095 1_556 S
Mn1008 O1023 2.162 . S
Mn1008 O1024 2.297 1_556 S
Mn1008 O1032 2.385 . S
Mn1008 O1033 2.209 1_556 S
Mn1008 O1034 2.094 . S
Mn1009 O1014 2.121 1_556 S
Mn1009 N1016 2.257 1_556 S
Mn1009 N1025 2.282 . S
Mn1009 O1033 2.215 1_556 S
Mn1009 O1035 2.117 . S
C1010 O1032 1.234 1_554 S
C1010 O1033 1.283 . S
C1011 O1023 1.281 1_554 S
C1011 O1024 1.236 . S
C1012 O1034 1.240 . S
C1012 O1035 1.264 . S
O1013 Mn1008 2.095 1_554 S
O1013 C1022 1.250 . S
O1014 Mn1009 2.121 1_554 S
O1014 C1022 1.258 . S
C1015 N1016 1.326 . S
C1015 C1019 1.460 . S
C1015 H1021 0.929 . S
N1016 Mn1009 2.257 1_554 S
N1016 C1015 1.326 . S
N1016 C1020 1.362 . S
C1017 C1018 1.258 . S
C1017 C1020 1.431 . S
C1017 C1037 1.449 . S
C1018 C1017 1.258 . S
C1018 C1019 1.477 . S
C1018 H1038 0.931 . S
C1019 C1015 1.460 . S
C1019 C1018 1.477 . S
C1019 H1039 0.930 . S
C1020 N1016 1.362 . S
C1020 C1017 1.431 . S
C1020 C1030 1.476 1_554 S
H1021 C1015 0.929 . S
C1022 O1013 1.250 . S
C1022 O1014 1.258 . S
O1023 Mn1008 2.162 . S
O1023 C1011 1.281 1_556 S
O1024 Mn1008 2.297 1_554 S
O1024 C1011 1.236 . S
N1025 Mn1009 2.282 . S
N1025 C1026 1.328 . S
N1025 C1030 1.318 . S
C1026 N1025 1.328 . S
C1026 C1027 1.457 . S
C1026 H1031 0.929 . S
C1027 C1026 1.457 . S
C1027 C1028 1.291 . S
C1027 H1040 0.931 . S
C1028 C1027 1.291 . S
C1028 C1029 1.373 . S
C1028 H1041 0.929 . S
C1029 C1028 1.373 . S
C1029 C1030 1.396 . S
C1029 C1036 1.403 1_556 S
C1030 C1020 1.476 1_556 S
C1030 N1025 1.318 . S
C1030 C1029 1.396 . S
H1031 C1026 0.929 . S
O1032 Mn1008 2.385 . S
O1032 C1010 1.234 1_556 S
O1033 Mn1008 2.209 1_554 S
O1033 Mn1009 2.215 1_554 S
O1033 C1010 1.283 . S
O1034 Mn1008 2.094 . S
O1034 C1012 1.240 . S
O1035 Mn1009 2.117 . S
O1035 C1012 1.264 . S
C1036 C1029 1.403 1_554 S
C1036 C1037 1.399 . S
C1036 H1042 0.929 . S
C1037 C1017 1.449 . S
C1037 C1036 1.399 . S
C1037 H1043 0.930 . S
H1038 C1018 0.931 . S
H1039 C1019 0.930 . S
H1040 C1027 0.931 . S
H1041 C1028 0.929 . S
H1042 C1036 0.929 . S
H1043 C1037 0.930 . S
Mn1044 O1049 2.095 1_565 S
Mn1044 O1059 2.162 . S
Mn1044 O1060 2.297 1_565 S
Mn1044 O1068 2.385 . S
Mn1044 O1069 2.209 1_565 S
Mn1044 O1070 2.094 . S
Mn1045 O1050 2.121 1_565 S
Mn1045 N1052 2.257 1_565 S
Mn1045 N1061 2.282 . S
Mn1045 O1069 2.215 1_565 S
Mn1045 O1071 2.117 . S
C1046 O1068 1.234 1_545 S
C1046 O1069 1.283 . S
C1047 O1059 1.281 1_545 S
C1047 O1060 1.236 . S
C1048 O1070 1.240 . S
C1048 O1071 1.264 . S
O1049 Mn1044 2.095 1_545 S
O1049 C1058 1.250 . S
O1050 Mn1045 2.121 1_545 S
O1050 C1058 1.258 . S
C1051 N1052 1.326 . S
C1051 C1055 1.460 . S
C1051 H1057 0.929 . S
N1052 Mn1045 2.257 1_545 S
N1052 C1051 1.326 . S
N1052 C1056 1.362 . S
C1053 C1054 1.258 . S
C1053 C1056 1.431 . S
C1053 C1073 1.449 . S
C1054 C1053 1.258 . S
C1054 C1055 1.477 . S
C1054 H1074 0.931 . S
C1055 C1051 1.460 . S
C1055 C1054 1.477 . S
C1055 H1075 0.930 . S
C1056 N1052 1.362 . S
C1056 C1053 1.431 . S
C1056 C1066 1.518 . S
H1057 C1051 0.929 . S
C1058 O1049 1.250 . S
C1058 O1050 1.258 . S
O1059 Mn1044 2.162 . S
O1059 C1047 1.281 1_565 S
O1060 Mn1044 2.297 1_545 S
O1060 C1047 1.236 . S
N1061 Mn1045 2.282 . S
N1061 C1062 1.328 . S
N1061 C1066 1.284 1_565 S
C1062 N1061 1.328 . S
C1062 C1063 1.457 . S
C1062 H1067 0.929 . S
C1063 C1062 1.457 . S
C1063 C1064 1.291 . S
C1063 H1076 0.931 . S
C1064 C1063 1.291 . S
C1064 C1065 1.373 . S
C1064 H1077 0.929 . S
C1065 C1064 1.373 . S
C1065 C1066 1.391 1_565 S
C1065 C1072 1.403 1_565 S
C1066 C1056 1.518 . S
C1066 N1061 1.284 1_545 S
C1066 C1065 1.391 1_545 S
H1067 C1062 0.929 . S
O1068 Mn1044 2.385 . S
O1068 C1046 1.234 1_565 S
O1069 Mn1044 2.209 1_545 S
O1069 Mn1045 2.215 1_545 S
O1069 C1046 1.283 . S
O1070 Mn1044 2.094 . S
O1070 C1048 1.240 . S
O1071 Mn1045 2.117 . S
O1071 C1048 1.264 . S
C1072 C1065 1.403 1_545 S
C1072 C1073 1.399 . S
C1072 H1078 0.929 . S
C1073 C1053 1.449 . S
C1073 C1072 1.399 . S
C1073 H1079 0.930 . S
H1074 C1054 0.931 . S
H1075 C1055 0.930 . S
H1076 C1063 0.931 . S
H1077 C1064 0.929 . S
H1078 C1072 0.929 . S
H1079 C1073 0.930 . S
Mn1080 O1085 2.095 . S
Mn1080 O1095 2.162 . S
Mn1080 O1096 2.297 . S
Mn1080 O1104 2.385 . S
Mn1080 O1105 2.209 . S
Mn1080 O1106 2.094 . S
Mn1081 O1086 2.121 . S
Mn1081 N1088 2.257 . S
Mn1081 N1097 2.282 . S
Mn1081 O1105 2.215 . S
Mn1081 O1107 2.117 . S
C1082 O1104 1.234 . S
C1082 O1105 1.283 . S
C1083 O1095 1.281 . S
C1083 O1096 1.236 . S
C1084 O1106 1.240 . S
C1084 O1107 1.264 . S
O1085 Mn1080 2.095 . S
O1085 C1094 1.250 . S
O1086 Mn1081 2.121 . S
O1086 C1094 1.258 . S
C1087 N1088 1.326 . S
C1087 C1091 1.460 . S
C1087 H1093 0.929 . S
N1088 Mn1081 2.257 . S
N1088 C1087 1.326 . S
N1088 C1092 1.362 . S
C1089 C1090 1.258 . S
C1089 C1092 1.431 . S
C1089 C1109 1.449 . S
C1090 C1089 1.258 . S
C1090 C1091 1.477 . S
C1090 H1110 0.931 . S
C1091 C1087 1.460 . S
C1091 C1090 1.477 . S
C1091 H1111 0.930 . S
C1092 N1088 1.362 . S
C1092 C1089 1.431 . S
C1092 C1102 1.476 . S
H1093 C1087 0.929 . S
C1094 O1085 1.250 . S
C1094 O1086 1.258 . S
O1095 Mn1080 2.162 . S
O1095 C1083 1.281 . S
O1096 Mn1080 2.297 . S
O1096 C1083 1.236 . S
N1097 Mn1081 2.282 . S
N1097 C1098 1.328 . S
N1097 C1102 1.318 . S
C1098 N1097 1.328 . S
C1098 C1099 1.457 . S
C1098 H1103 0.929 . S
C1099 C1098 1.457 . S
C1099 C1100 1.291 . S
C1099 H1112 0.931 . S
C1100 C1099 1.291 . S
C1100 C1101 1.373 . S
C1100 H1113 0.929 . S
C1101 C1100 1.373 . S
C1101 C1102 1.396 . S
C1101 C1108 1.403 . S
C1102 C1092 1.476 . S
C1102 N1097 1.318 . S
C1102 C1101 1.396 . S
H1103 C1098 0.929 . S
O1104 Mn1080 2.385 . S
O1104 C1082 1.234 . S
O1105 Mn1080 2.209 . S
O1105 Mn1081 2.215 . S
O1105 C1082 1.283 . S
O1106 Mn1080 2.094 . S
O1106 C1084 1.240 . S
O1107 Mn1081 2.117 . S
O1107 C1084 1.264 . S
C1108 C1101 1.403 . S
C1108 C1109 1.399 . S
C1108 H1114 0.929 . S
C1109 C1089 1.449 . S
C1109 C1108 1.399 . S
C1109 H1115 0.930 . S
H1110 C1090 0.931 . S
H1111 C1091 0.930 . S
H1112 C1099 0.931 . S
H1113 C1100 0.929 . S
H1114 C1108 0.929 . S
H1115 C1109 0.930 . S
Mn1116 O1121 2.095 . S
Mn1116 O1131 2.162 . S
Mn1116 O1132 2.297 . S
Mn1116 O1140 2.385 . S
Mn1116 O1141 2.209 . S
Mn1116 O1142 2.094 . S
Mn1117 O1122 2.121 . S
Mn1117 N1124 2.257 . S
Mn1117 N1133 2.282 . S
Mn1117 O1141 2.215 . S
Mn1117 O1143 2.117 . S
C1118 O1140 1.234 . S
C1118 O1141 1.283 . S
C1119 O1131 1.281 . S
C1119 O1132 1.236 . S
C1120 O1142 1.240 . S
C1120 O1143 1.264 . S
O1121 Mn1116 2.095 . S
O1121 C1130 1.250 . S
O1122 Mn1117 2.121 . S
O1122 C1130 1.258 . S
C1123 N1124 1.326 . S
C1123 C1127 1.460 . S
C1123 H1129 0.929 . S
N1124 Mn1117 2.257 . S
N1124 C1123 1.326 . S
N1124 C1128 1.362 . S
C1125 C1126 1.258 . S
C1125 C1128 1.431 . S
C1125 C1145 1.449 . S
C1126 C1125 1.258 . S
C1126 C1127 1.477 . S
C1126 H1146 0.931 . S
C1127 C1123 1.460 . S
C1127 C1126 1.477 . S
C1127 H1147 0.930 . S
C1128 N1124 1.362 . S
C1128 C1125 1.431 . S
C1128 C1138 1.476 . S
H1129 C1123 0.929 . S
C1130 O1121 1.250 . S
C1130 O1122 1.258 . S
O1131 Mn1116 2.162 . S
O1131 C1119 1.281 . S
O1132 Mn1116 2.297 . S
O1132 C1119 1.236 . S
N1133 Mn1117 2.282 . S
N1133 C1134 1.328 . S
N1133 C1138 1.318 . S
C1134 N1133 1.328 . S
C1134 C1135 1.457 . S
C1134 H1139 0.929 . S
C1135 C1134 1.457 . S
C1135 C1136 1.291 . S
C1135 H1148 0.931 . S
C1136 C1135 1.291 . S
C1136 C1137 1.373 . S
C1136 H1149 0.929 . S
C1137 C1136 1.373 . S
C1137 C1138 1.396 . S
C1137 C1144 1.403 . S
C1138 C1128 1.476 . S
C1138 N1133 1.318 . S
C1138 C1137 1.396 . S
H1139 C1134 0.929 . S
O1140 Mn1116 2.385 . S
O1140 C1118 1.234 . S
O1141 Mn1116 2.209 . S
O1141 Mn1117 2.215 . S
O1141 C1118 1.283 . S
O1142 Mn1116 2.094 . S
O1142 C1120 1.240 . S
O1143 Mn1117 2.117 . S
O1143 C1120 1.264 . S
C1144 C1137 1.403 . S
C1144 C1145 1.399 . S
C1144 H1150 0.929 . S
C1145 C1125 1.449 . S
C1145 C1144 1.399 . S
C1145 H1151 0.930 . S
H1146 C1126 0.931 . S
H1147 C1127 0.930 . S
H1148 C1135 0.931 . S
H1149 C1136 0.929 . S
H1150 C1144 0.929 . S
H1151 C1145 0.930 . S
Mn1152 O1157 2.095 . S
Mn1152 O1167 2.162 . S
Mn1152 O1168 2.297 . S
Mn1152 O1176 2.385 . S
Mn1152 O1177 2.209 . S
Mn1152 O1178 2.094 . S
Mn1153 O1158 2.121 . S
Mn1153 N1160 2.257 . S
Mn1153 N1169 2.282 . S
Mn1153 O1177 2.215 . S
Mn1153 O1179 2.117 . S
C1154 O1176 1.234 . S
C1154 O1177 1.283 . S
C1155 O1167 1.281 . S
C1155 O1168 1.236 . S
C1156 O1178 1.240 . S
C1156 O1179 1.264 . S
O1157 Mn1152 2.095 . S
O1157 C1166 1.250 . S
O1158 Mn1153 2.121 . S
O1158 C1166 1.258 . S
C1159 N1160 1.326 . S
C1159 C1163 1.460 . S
C1159 H1165 0.929 . S
N1160 Mn1153 2.257 . S
N1160 C1159 1.326 . S
N1160 C1164 1.362 . S
C1161 C1162 1.258 . S
C1161 C1164 1.431 . S
C1161 C1181 1.449 . S
C1162 C1161 1.258 . S
C1162 C1163 1.477 . S
C1162 H1182 0.931 . S
C1163 C1159 1.460 . S
C1163 C1162 1.477 . S
C1163 H1183 0.930 . S
C1164 N1160 1.362 . S
C1164 C1161 1.431 . S
C1164 C1174 1.476 . S
H1165 C1159 0.929 . S
C1166 O1157 1.250 . S
C1166 O1158 1.258 . S
O1167 Mn1152 2.162 . S
O1167 C1155 1.281 . S
O1168 Mn1152 2.297 . S
O1168 C1155 1.236 . S
N1169 Mn1153 2.282 . S
N1169 C1170 1.328 . S
N1169 C1174 1.318 . S
C1170 N1169 1.328 . S
C1170 C1171 1.457 . S
C1170 H1175 0.929 . S
C1171 C1170 1.457 . S
C1171 C1172 1.291 . S
C1171 H1184 0.931 . S
C1172 C1171 1.291 . S
C1172 C1173 1.373 . S
C1172 H1185 0.929 . S
C1173 C1172 1.373 . S
C1173 C1174 1.396 . S
C1173 C1180 1.403 . S
C1174 C1164 1.476 . S
C1174 N1169 1.318 . S
C1174 C1173 1.396 . S
H1175 C1170 0.929 . S
O1176 Mn1152 2.385 . S
O1176 C1154 1.234 . S
O1177 Mn1152 2.209 . S
O1177 Mn1153 2.215 . S
O1177 C1154 1.283 . S
O1178 Mn1152 2.094 . S
O1178 C1156 1.240 . S
O1179 Mn1153 2.117 . S
O1179 C1156 1.264 . S
C1180 C1173 1.403 . S
C1180 C1181 1.399 . S
C1180 H1186 0.929 . S
C1181 C1161 1.449 . S
C1181 C1180 1.399 . S
C1181 H1187 0.930 . S
H1182 C1162 0.931 . S
H1183 C1163 0.930 . S
H1184 C1171 0.931 . S
H1185 C1172 0.929 . S
H1186 C1180 0.929 . S
H1187 C1181 0.930 . S
Mn1188 O1193 2.095 . S
Mn1188 O1203 2.144 1_556 S
Mn1188 O1204 2.297 1_556 S
Mn1188 O1212 2.387 1_556 S
Mn1188 O1213 2.209 . S
Mn1188 O1214 2.094 . S
Mn1189 O1194 2.121 . S
Mn1189 N1196 2.257 . S
Mn1189 N1205 2.282 . S
Mn1189 O1213 2.215 . S
Mn1189 O1215 2.117 . S
C1190 O1212 1.235 1_556 S
C1190 O1213 1.283 . S
C1191 O1203 1.297 . S
C1191 O1204 1.236 . S
C1192 O1214 1.240 . S
C1192 O1215 1.264 . S
O1193 Mn1188 2.095 . S
O1193 C1202 1.250 . S
O1194 Mn1189 2.121 . S
O1194 C1202 1.258 . S
C1195 N1196 1.326 . S
C1195 C1199 1.460 . S
C1195 H1201 0.929 . S
N1196 Mn1189 2.257 . S
N1196 C1195 1.326 . S
N1196 C1200 1.362 . S
C1197 C1198 1.258 . S
C1197 C1200 1.431 . S
C1197 C1217 1.449 . S
C1198 C1197 1.258 . S
C1198 C1199 1.477 . S
C1198 H1218 0.931 . S
C1199 C1195 1.460 . S
C1199 C1198 1.477 . S
C1199 H1219 0.930 . S
C1200 N1196 1.362 . S
C1200 C1197 1.431 . S
C1200 C1210 1.476 . S
H1201 C1195 0.929 . S
C1202 O1193 1.250 . S
C1202 O1194 1.258 . S
O1203 Mn1188 2.144 1_554 S
O1203 C1191 1.297 . S
O1204 Mn1188 2.297 1_554 S
O1204 C1191 1.236 . S
N1205 Mn1189 2.282 . S
N1205 C1206 1.328 . S
N1205 C1210 1.318 . S
C1206 N1205 1.328 . S
C1206 C1207 1.457 . S
C1206 H1211 0.929 . S
C1207 C1206 1.457 . S
C1207 C1208 1.291 . S
C1207 H1220 0.931 . S
C1208 C1207 1.291 . S
C1208 C1209 1.373 . S
C1208 H1221 0.929 . S
C1209 C1208 1.373 . S
C1209 C1210 1.396 . S
C1209 C1216 1.403 . S
C1210 C1200 1.476 . S
C1210 N1205 1.318 . S
C1210 C1209 1.396 . S
H1211 C1206 0.929 . S
O1212 Mn1188 2.387 1_554 S
O1212 C1190 1.235 1_554 S
O1213 Mn1188 2.209 . S
O1213 Mn1189 2.215 . S
O1213 C1190 1.283 . S
O1214 Mn1188 2.094 . S
O1214 C1192 1.240 . S
O1215 Mn1189 2.117 . S
O1215 C1192 1.264 . S
C1216 C1209 1.403 . S
C1216 C1217 1.399 . S
C1216 H1222 0.929 . S
C1217 C1197 1.449 . S
C1217 C1216 1.399 . S
C1217 H1223 0.930 . S
H1218 C1198 0.931 . S
H1219 C1199 0.930 . S
H1220 C1207 0.931 . S
H1221 C1208 0.929 . S
H1222 C1216 0.929 . S
H1223 C1217 0.930 . S
Mn1224 O1229 2.095 1_655 S
Mn1224 O1239 2.162 1_655 S
Mn1224 O1240 2.297 1_655 S
Mn1224 O1248 2.385 . S
Mn1224 O1249 2.209 1_655 S
Mn1224 O1250 2.094 . S
Mn1225 O1230 2.121 1_655 S
Mn1225 N1232 2.257 1_655 S
Mn1225 N1241 2.282 . S
Mn1225 O1249 2.215 1_655 S
Mn1225 O1251 2.117 . S
C1226 O1248 1.259 . S
C1226 O1249 1.272 1_655 S
C1227 O1239 1.281 . S
C1227 O1240 1.236 . S
C1228 O1250 1.240 . S
C1228 O1251 1.264 . S
O1229 Mn1224 2.095 1_455 S
O1229 C1238 1.250 . S
O1230 Mn1225 2.121 1_455 S
O1230 C1238 1.258 . S
C1231 N1232 1.326 . S
C1231 C1235 1.460 . S
C1231 H1237 0.929 . S
N1232 Mn1225 2.257 1_455 S
N1232 C1231 1.326 . S
N1232 C1236 1.362 . S
C1233 C1234 1.258 . S
C1233 C1236 1.431 . S
C1233 C1253 1.449 . S
C1234 C1233 1.258 . S
C1234 C1235 1.477 . S
C1234 H1254 0.931 . S
C1235 C1231 1.460 . S
C1235 C1234 1.477 . S
C1235 H1255 0.930 . S
C1236 N1232 1.362 . S
C1236 C1233 1.431 . S
C1236 C1246 1.476 1_455 S
H1237 C1231 0.929 . S
C1238 O1229 1.250 . S
C1238 O1230 1.258 . S
O1239 Mn1224 2.162 1_455 S
O1239 C1227 1.281 . S
O1240 Mn1224 2.297 1_455 S
O1240 C1227 1.236 . S
N1241 Mn1225 2.282 . S
N1241 C1242 1.328 . S
N1241 C1246 1.318 . S
C1242 N1241 1.328 . S
C1242 C1243 1.457 . S
C1242 H1247 0.929 . S
C1243 C1242 1.457 . S
C1243 C1244 1.291 . S
C1243 H1256 0.931 . S
C1244 C1243 1.291 . S
C1244 C1245 1.373 . S
C1244 H1257 0.929 . S
C1245 C1244 1.373 . S
C1245 C1246 1.396 . S
C1245 C1252 1.403 . S
C1246 C1236 1.476 1_655 S
C1246 N1241 1.318 . S
C1246 C1245 1.396 . S
H1247 C1242 0.929 . S
O1248 Mn1224 2.385 . S
O1248 C1226 1.259 . S
O1249 Mn1224 2.209 1_455 S
O1249 Mn1225 2.215 1_455 S
O1249 C1226 1.272 1_455 S
O1250 Mn1224 2.094 . S
O1250 C1228 1.240 . S
O1251 Mn1225 2.117 . S
O1251 C1228 1.264 . S
C1252 C1245 1.403 . S
C1252 C1253 1.399 1_655 S
C1252 H1258 0.929 . S
C1253 C1233 1.449 . S
C1253 C1252 1.399 1_455 S
C1253 H1259 0.930 . S
H1254 C1234 0.931 . S
H1255 C1235 0.930 . S
H1256 C1243 0.931 . S
H1257 C1244 0.929 . S
H1258 C1252 0.929 . S
H1259 C1253 0.930 . S
Mn1260 O1265 2.082 1_455 S
Mn1260 O1275 2.162 . S
Mn1260 O1276 2.297 1_455 S
Mn1260 O1284 2.382 1_455 S
Mn1260 O1285 2.209 1_455 S
Mn1260 O1286 2.094 . S
Mn1261 O1266 2.121 . S
Mn1261 N1268 2.257 . S
Mn1261 N1277 2.282 . S
Mn1261 O1285 2.215 . S
Mn1261 O1287 2.080 1_655 S
C1262 O1284 1.247 . S
C1262 O1285 1.283 . S
C1263 O1275 1.281 . S
C1263 O1276 1.236 1_455 S
C1264 O1286 1.240 . S
C1264 O1287 1.300 . S
O1265 Mn1260 2.082 1_655 S
O1265 C1274 1.300 . S
O1266 Mn1261 2.121 . S
O1266 C1274 1.258 . S
C1267 N1268 1.326 . S
C1267 C1271 1.460 . S
C1267 H1273 0.929 . S
N1268 Mn1261 2.257 . S
N1268 C1267 1.326 . S
N1268 C1272 1.362 . S
C1269 C1270 1.258 . S
C1269 C1272 1.431 . S
C1269 C1289 1.449 . S
C1270 C1269 1.258 . S
C1270 C1271 1.477 . S
C1270 H1290 0.931 . S
C1271 C1267 1.460 . S
C1271 C1270 1.477 . S
C1271 H1291 0.930 . S
C1272 N1268 1.362 . S
C1272 C1269 1.431 . S
C1272 C1282 1.476 . S
H1273 C1267 0.929 . S
C1274 O1265 1.300 . S
C1274 O1266 1.258 . S
O1275 Mn1260 2.162 . S
O1275 C1263 1.281 . S
O1276 Mn1260 2.297 1_655 S
O1276 C1263 1.236 1_655 S
N1277 Mn1261 2.282 . S
N1277 C1278 1.328 . S
N1277 C1282 1.318 . S
C1278 N1277 1.328 . S
C1278 C1279 1.457 . S
C1278 H1283 0.929 . S
C1279 C1278 1.457 . S
C1279 C1280 1.291 . S
C1279 H1292 0.931 . S
C1280 C1279 1.291 . S
C1280 C1281 1.373 . S
C1280 H1293 0.929 . S
C1281 C1280 1.373 . S
C1281 C1282 1.396 . S
C1281 C1288 1.403 . S
C1282 C1272 1.476 . S
C1282 N1277 1.318 . S
C1282 C1281 1.396 . S
H1283 C1278 0.929 . S
O1284 Mn1260 2.382 1_655 S
O1284 C1262 1.247 . S
O1285 Mn1260 2.209 1_655 S
O1285 Mn1261 2.215 . S
O1285 C1262 1.283 . S
O1286 Mn1260 2.094 . S
O1286 C1264 1.240 . S
O1287 Mn1261 2.080 1_455 S
O1287 C1264 1.300 . S
C1288 C1281 1.403 . S
C1288 C1289 1.399 . S
C1288 H1294 0.929 . S
C1289 C1269 1.449 . S
C1289 C1288 1.399 . S
C1289 H1295 0.930 . S
H1290 C1270 0.931 . S
H1291 C1271 0.930 . S
H1292 C1279 0.931 . S
H1293 C1280 0.929 . S
H1294 C1288 0.929 . S
H1295 C1289 0.930 . S
Mn1296 O1301 2.095 . S
Mn1296 O1311 2.162 . S
Mn1296 O1312 2.297 . S
Mn1296 O1320 2.385 . S
Mn1296 O1321 2.209 . S
Mn1296 O1322 2.094 . S
Mn1297 O1302 2.121 . S
Mn1297 N1304 2.257 . S
Mn1297 N1313 2.282 . S
Mn1297 O1321 2.215 . S
Mn1297 O1323 2.117 . S
C1298 O1320 1.234 . S
C1298 O1321 1.283 . S
C1299 O1311 1.281 . S
C1299 O1312 1.236 . S
C1300 O1322 1.240 . S
C1300 O1323 1.264 . S
O1301 Mn1296 2.095 . S
O1301 C1310 1.250 . S
O1302 Mn1297 2.121 . S
O1302 C1310 1.258 . S
C1303 N1304 1.326 . S
C1303 C1307 1.460 . S
C1303 H1309 0.929 . S
N1304 Mn1297 2.257 . S
N1304 C1303 1.326 . S
N1304 C1308 1.362 . S
C1305 C1306 1.258 . S
C1305 C1308 1.431 . S
C1305 C1325 1.449 . S
C1306 C1305 1.258 . S
C1306 C1307 1.477 . S
C1306 H1326 0.931 . S
C1307 C1303 1.460 . S
C1307 C1306 1.477 . S
C1307 H1327 0.930 . S
C1308 N1304 1.362 . S
C1308 C1305 1.431 . S
C1308 C1318 1.476 . S
H1309 C1303 0.929 . S
C1310 O1301 1.250 . S
C1310 O1302 1.258 . S
O1311 Mn1296 2.162 . S
O1311 C1299 1.281 . S
O1312 Mn1296 2.297 . S
O1312 C1299 1.236 . S
N1313 Mn1297 2.282 . S
N1313 C1314 1.328 . S
N1313 C1318 1.318 . S
C1314 N1313 1.328 . S
C1314 C1315 1.457 . S
C1314 H1319 0.929 . S
C1315 C1314 1.457 . S
C1315 C1316 1.291 . S
C1315 H1328 0.931 . S
C1316 C1315 1.291 . S
C1316 C1317 1.373 . S
C1316 H1329 0.929 . S
C1317 C1316 1.373 . S
C1317 C1318 1.396 . S
C1317 C1324 1.403 . S
C1318 C1308 1.476 . S
C1318 N1313 1.318 . S
C1318 C1317 1.396 . S
H1319 C1314 0.929 . S
O1320 Mn1296 2.385 . S
O1320 C1298 1.234 . S
O1321 Mn1296 2.209 . S
O1321 Mn1297 2.215 . S
O1321 C1298 1.283 . S
O1322 Mn1296 2.094 . S
O1322 C1300 1.240 . S
O1323 Mn1297 2.117 . S
O1323 C1300 1.264 . S
C1324 C1317 1.403 . S
C1324 C1325 1.399 . S
C1324 H1330 0.929 . S
C1325 C1305 1.449 . S
C1325 C1324 1.399 . S
C1325 H1331 0.930 . S
H1326 C1306 0.931 . S
H1327 C1307 0.930 . S
H1328 C1315 0.931 . S
H1329 C1316 0.929 . S
H1330 C1324 0.929 . S
H1331 C1325 0.930 . S
Mn1332 O1337 2.095 . S
Mn1332 O1347 2.162 . S
Mn1332 O1348 2.297 . S
Mn1332 O1356 2.385 . S
Mn1332 O1357 2.209 . S
Mn1332 O1358 2.094 . S
Mn1333 O1338 2.121 . S
Mn1333 N1340 2.257 . S
Mn1333 N1349 2.282 . S
Mn1333 O1357 2.215 . S
Mn1333 O1359 2.117 . S
C1334 O1356 1.234 . S
C1334 O1357 1.283 . S
C1335 O1347 1.281 . S
C1335 O1348 1.236 . S
C1336 O1358 1.240 . S
C1336 O1359 1.264 . S
O1337 Mn1332 2.095 . S
O1337 C1346 1.250 . S
O1338 Mn1333 2.121 . S
O1338 C1346 1.258 . S
C1339 N1340 1.326 . S
C1339 C1343 1.460 . S
C1339 H1345 0.929 . S
N1340 Mn1333 2.257 . S
N1340 C1339 1.326 . S
N1340 C1344 1.362 . S
C1341 C1342 1.258 . S
C1341 C1344 1.431 . S
C1341 C1361 1.449 . S
C1342 C1341 1.258 . S
C1342 C1343 1.477 . S
C1342 H1362 0.931 . S
C1343 C1339 1.460 . S
C1343 C1342 1.477 . S
C1343 H1363 0.930 . S
C1344 N1340 1.362 . S
C1344 C1341 1.431 . S
C1344 C1354 1.476 . S
H1345 C1339 0.929 . S
C1346 O1337 1.250 . S
C1346 O1338 1.258 . S
O1347 Mn1332 2.162 . S
O1347 C1335 1.281 . S
O1348 Mn1332 2.297 . S
O1348 C1335 1.236 . S
N1349 Mn1333 2.282 . S
N1349 C1350 1.328 . S
N1349 C1354 1.318 . S
C1350 N1349 1.328 . S
C1350 C1351 1.457 . S
C1350 H1355 0.929 . S
C1351 C1350 1.457 . S
C1351 C1352 1.291 . S
C1351 H1364 0.931 . S
C1352 C1351 1.291 . S
C1352 C1353 1.373 . S
C1352 H1365 0.929 . S
C1353 C1352 1.373 . S
C1353 C1354 1.396 . S
C1353 C1360 1.403 . S
C1354 C1344 1.476 . S
C1354 N1349 1.318 . S
C1354 C1353 1.396 . S
H1355 C1350 0.929 . S
O1356 Mn1332 2.385 . S
O1356 C1334 1.234 . S
O1357 Mn1332 2.209 . S
O1357 Mn1333 2.215 . S
O1357 C1334 1.283 . S
O1358 Mn1332 2.094 . S
O1358 C1336 1.240 . S
O1359 Mn1333 2.117 . S
O1359 C1336 1.264 . S
C1360 C1353 1.403 . S
C1360 C1361 1.399 . S
C1360 H1366 0.929 . S
C1361 C1341 1.449 . S
C1361 C1360 1.399 . S
C1361 H1367 0.930 . S
H1362 C1342 0.931 . S
H1363 C1343 0.930 . S
H1364 C1351 0.931 . S
H1365 C1352 0.929 . S
H1366 C1360 0.929 . S
H1367 C1361 0.930 . S
Mn1368 O1373 2.095 . S
Mn1368 O1383 2.162 . S
Mn1368 O1384 2.297 . S
Mn1368 O1392 2.385 . S
Mn1368 O1393 2.209 . S
Mn1368 O1394 2.094 . S
Mn1369 O1374 2.121 . S
Mn1369 N1376 2.257 . S
Mn1369 N1385 2.282 . S
Mn1369 O1393 2.215 . S
Mn1369 O1395 2.117 . S
C1370 O1392 1.234 . S
C1370 O1393 1.283 . S
C1371 O1383 1.281 . S
C1371 O1384 1.236 . S
C1372 O1394 1.240 . S
C1372 O1395 1.264 . S
O1373 Mn1368 2.095 . S
O1373 C1382 1.250 . S
O1374 Mn1369 2.121 . S
O1374 C1382 1.258 . S
C1375 N1376 1.326 . S
C1375 C1379 1.460 . S
C1375 H1381 0.929 . S
N1376 Mn1369 2.257 . S
N1376 C1375 1.326 . S
N1376 C1380 1.362 . S
C1377 C1378 1.258 . S
C1377 C1380 1.431 . S
C1377 C1397 1.449 . S
C1378 C1377 1.258 . S
C1378 C1379 1.477 . S
C1378 H1398 0.931 . S
C1379 C1375 1.460 . S
C1379 C1378 1.477 . S
C1379 H1399 0.930 . S
C1380 N1376 1.362 . S
C1380 C1377 1.431 . S
C1380 C1390 1.476 . S
H1381 C1375 0.929 . S
C1382 O1373 1.250 . S
C1382 O1374 1.258 . S
O1383 Mn1368 2.162 . S
O1383 C1371 1.281 . S
O1384 Mn1368 2.297 . S
O1384 C1371 1.236 . S
N1385 Mn1369 2.282 . S
N1385 C1386 1.328 . S
N1385 C1390 1.318 . S
C1386 N1385 1.328 . S
C1386 C1387 1.457 . S
C1386 H1391 0.929 . S
C1387 C1386 1.457 . S
C1387 C1388 1.291 . S
C1387 H1400 0.931 . S
C1388 C1387 1.291 . S
C1388 C1389 1.373 . S
C1388 H1401 0.929 . S
C1389 C1388 1.373 . S
C1389 C1390 1.396 . S
C1389 C1396 1.403 . S
C1390 C1380 1.476 . S
C1390 N1385 1.318 . S
C1390 C1389 1.396 . S
H1391 C1386 0.929 . S
O1392 Mn1368 2.385 . S
O1392 C1370 1.234 . S
O1393 Mn1368 2.209 . S
O1393 Mn1369 2.215 . S
O1393 C1370 1.283 . S
O1394 Mn1368 2.094 . S
O1394 C1372 1.240 . S
O1395 Mn1369 2.117 . S
O1395 C1372 1.264 . S
C1396 C1389 1.403 . S
C1396 C1397 1.399 . S
C1396 H1402 0.929 . S
C1397 C1377 1.449 . S
C1397 C1396 1.399 . S
C1397 H1403 0.930 . S
H1398 C1378 0.931 . S
H1399 C1379 0.930 . S
H1400 C1387 0.931 . S
H1401 C1388 0.929 . S
H1402 C1396 0.929 . S
H1403 C1397 0.930 . S
Mn1404 O1409 2.095 . S
Mn1404 O1419 2.162 . S
Mn1404 O1420 2.297 . S
Mn1404 O1428 2.385 . S
Mn1404 O1429 2.209 . S
Mn1404 O1430 2.094 . S
Mn1405 O1410 2.121 . S
Mn1405 N1412 2.257 . S
Mn1405 N1421 2.282 . S
Mn1405 O1429 2.215 . S
Mn1405 O1431 2.117 . S
C1406 O1428 1.234 . S
C1406 O1429 1.283 . S
C1407 O1419 1.281 . S
C1407 O1420 1.236 . S
C1408 O1430 1.240 . S
C1408 O1431 1.264 . S
O1409 Mn1404 2.095 . S
O1409 C1418 1.250 . S
O1410 Mn1405 2.121 . S
O1410 C1418 1.258 . S
C1411 N1412 1.326 . S
C1411 C1415 1.460 . S
C1411 H1417 0.929 . S
N1412 Mn1405 2.257 . S
N1412 C1411 1.326 . S
N1412 C1416 1.362 . S
C1413 C1414 1.258 . S
C1413 C1416 1.431 . S
C1413 C1433 1.449 . S
C1414 C1413 1.258 . S
C1414 C1415 1.477 . S
C1414 H1434 0.931 . S
C1415 C1411 1.460 . S
C1415 C1414 1.477 . S
C1415 H1435 0.930 . S
C1416 N1412 1.362 . S
C1416 C1413 1.431 . S
C1416 C1426 1.476 . S
H1417 C1411 0.929 . S
C1418 O1409 1.250 . S
C1418 O1410 1.258 . S
O1419 Mn1404 2.162 . S
O1419 C1407 1.281 . S
O1420 Mn1404 2.297 . S
O1420 C1407 1.236 . S
N1421 Mn1405 2.282 . S
N1421 C1422 1.328 . S
N1421 C1426 1.318 . S
C1422 N1421 1.328 . S
C1422 C1423 1.457 . S
C1422 H1427 0.929 . S
C1423 C1422 1.457 . S
C1423 C1424 1.291 . S
C1423 H1436 0.931 . S
C1424 C1423 1.291 . S
C1424 C1425 1.373 . S
C1424 H1437 0.929 . S
C1425 C1424 1.373 . S
C1425 C1426 1.396 . S
C1425 C1432 1.403 . S
C1426 C1416 1.476 . S
C1426 N1421 1.318 . S
C1426 C1425 1.396 . S
H1427 C1422 0.929 . S
O1428 Mn1404 2.385 . S
O1428 C1406 1.234 . S
O1429 Mn1404 2.209 . S
O1429 Mn1405 2.215 . S
O1429 C1406 1.283 . S
O1430 Mn1404 2.094 . S
O1430 C1408 1.240 . S
O1431 Mn1405 2.117 . S
O1431 C1408 1.264 . S
C1432 C1425 1.403 . S
C1432 C1433 1.399 . S
C1432 H1438 0.929 . S
C1433 C1413 1.449 . S
C1433 C1432 1.399 . S
C1433 H1439 0.930 . S
H1434 C1414 0.931 . S
H1435 C1415 0.930 . S
H1436 C1423 0.931 . S
H1437 C1424 0.929 . S
H1438 C1432 0.929 . S
H1439 C1433 0.930 . S
Mn1440 O1445 2.095 . S
Mn1440 O1455 2.162 . S
Mn1440 O1456 2.297 . S
Mn1440 O1464 2.385 . S
Mn1440 O1465 2.209 . S
Mn1440 O1466 2.094 . S
Mn1441 O1446 2.121 . S
Mn1441 N1448 2.257 . S
Mn1441 N1457 2.282 . S
Mn1441 O1465 2.215 . S
Mn1441 O1467 2.117 . S
C1442 O1464 1.234 . S
C1442 O1465 1.283 . S
C1443 O1455 1.281 . S
C1443 O1456 1.236 . S
C1444 O1466 1.240 . S
C1444 O1467 1.264 . S
O1445 Mn1440 2.095 . S
O1445 C1454 1.250 . S
O1446 Mn1441 2.121 . S
O1446 C1454 1.258 . S
C1447 N1448 1.326 . S
C1447 C1451 1.460 . S
C1447 H1453 0.929 . S
N1448 Mn1441 2.257 . S
N1448 C1447 1.326 . S
N1448 C1452 1.362 . S
C1449 C1450 1.258 . S
C1449 C1452 1.431 . S
C1449 C1469 1.449 . S
C1450 C1449 1.258 . S
C1450 C1451 1.477 . S
C1450 H1470 0.931 . S
C1451 C1447 1.460 . S
C1451 C1450 1.477 . S
C1451 H1471 0.930 . S
C1452 N1448 1.362 . S
C1452 C1449 1.431 . S
C1452 C1462 1.476 . S
H1453 C1447 0.929 . S
C1454 O1445 1.250 . S
C1454 O1446 1.258 . S
O1455 Mn1440 2.162 . S
O1455 C1443 1.281 . S
O1456 Mn1440 2.297 . S
O1456 C1443 1.236 . S
N1457 Mn1441 2.282 . S
N1457 C1458 1.328 . S
N1457 C1462 1.318 . S
C1458 N1457 1.328 . S
C1458 C1459 1.457 . S
C1458 H1463 0.929 . S
C1459 C1458 1.457 . S
C1459 C1460 1.291 . S
C1459 H1472 0.931 . S
C1460 C1459 1.291 . S
C1460 C1461 1.373 . S
C1460 H1473 0.929 . S
C1461 C1460 1.373 . S
C1461 C1462 1.396 . S
C1461 C1468 1.403 . S
C1462 C1452 1.476 . S
C1462 N1457 1.318 . S
C1462 C1461 1.396 . S
H1463 C1458 0.929 . S
O1464 Mn1440 2.385 . S
O1464 C1442 1.234 . S
O1465 Mn1440 2.209 . S
O1465 Mn1441 2.215 . S
O1465 C1442 1.283 . S
O1466 Mn1440 2.094 . S
O1466 C1444 1.240 . S
O1467 Mn1441 2.117 . S
O1467 C1444 1.264 . S
C1468 C1461 1.403 . S
C1468 C1469 1.399 . S
C1468 H1474 0.929 . S
C1469 C1449 1.449 . S
C1469 C1468 1.399 . S
C1469 H1475 0.930 . S
H1470 C1450 0.931 . S
H1471 C1451 0.930 . S
H1472 C1459 0.931 . S
H1473 C1460 0.929 . S
H1474 C1468 0.929 . S
H1475 C1469 0.930 . S
Mn1476 O1481 2.095 1_564 S
Mn1476 O1491 2.162 1_554 S
Mn1476 O1492 2.297 . S
Mn1476 O1500 2.385 . S
Mn1476 O1501 2.209 1_565 S
Mn1476 O1502 2.094 1_565 S
Mn1477 O1482 2.121 . S
Mn1477 N1484 2.257 . S
Mn1477 N1493 2.282 . S
Mn1477 O1501 2.215 . S
Mn1477 O1503 2.117 . S
C1478 O1500 1.234 . S
C1478 O1501 1.283 1_565 S
C1479 O1491 1.283 . S
C1479 O1492 1.226 1_556 S
C1480 O1502 1.240 . S
C1480 O1503 1.264 . S
O1481 Mn1476 2.095 1_546 S
O1481 C1490 1.245 1_556 S
O1482 Mn1477 2.121 . S
O1482 C1490 1.295 . S
C1483 N1484 1.326 . S
C1483 C1487 1.460 . S
C1483 H1489 0.929 . S
N1484 Mn1477 2.257 . S
N1484 C1483 1.326 . S
N1484 C1488 1.362 . S
C1485 C1486 1.258 . S
C1485 C1488 1.431 . S
C1485 C1505 1.449 . S
C1486 C1485 1.258 . S
C1486 C1487 1.477 . S
C1486 H1506 0.931 . S
C1487 C1483 1.460 . S
C1487 C1486 1.477 . S
C1487 H1507 0.930 . S
C1488 N1484 1.362 . S
C1488 C1485 1.431 . S
C1488 C1498 1.476 . S
H1489 C1483 0.929 . S
C1490 O1481 1.245 1_554 S
C1490 O1482 1.295 . S
O1491 Mn1476 2.162 1_556 S
O1491 C1479 1.283 . S
O1492 Mn1476 2.297 . S
O1492 C1479 1.226 1_554 S
N1493 Mn1477 2.282 . S
N1493 C1494 1.328 . S
N1493 C1498 1.318 . S
C1494 N1493 1.328 . S
C1494 C1495 1.457 . S
C1494 H1499 0.929 . S
C1495 C1494 1.457 . S
C1495 C1496 1.291 . S
C1495 H1508 0.931 . S
C1496 C1495 1.291 . S
C1496 C1497 1.373 . S
C1496 H1509 0.929 . S
C1497 C1496 1.373 . S
C1497 C1498 1.396 . S
C1497 C1504 1.403 . S
C1498 C1488 1.476 . S
C1498 N1493 1.318 . S
C1498 C1497 1.396 . S
H1499 C1494 0.929 . S
O1500 Mn1476 2.385 . S
O1500 C1478 1.234 . S
O1501 Mn1476 2.209 1_545 S
O1501 Mn1477 2.215 . S
O1501 C1478 1.283 1_545 S
O1502 Mn1476 2.094 1_545 S
O1502 C1480 1.240 . S
O1503 Mn1477 2.117 . S
O1503 C1480 1.264 . S
C1504 C1497 1.403 . S
C1504 C1505 1.399 . S
C1504 H1510 0.929 . S
C1505 C1485 1.449 . S
C1505 C1504 1.399 . S
C1505 H1511 0.930 . S
H1506 C1486 0.931 . S
H1507 C1487 0.930 . S
H1508 C1495 0.931 . S
H1509 C1496 0.929 . S
H1510 C1504 0.929 . S
H1511 C1505 0.930 . S
Mn1512 O1517 2.095 1_655 S
Mn1512 O1527 2.162 . S
Mn1512 O1528 2.297 . S
Mn1512 O1536 2.385 . S
Mn1512 O1537 2.209 . S
Mn1512 O1538 2.094 . S
Mn1513 O1518 2.121 1_655 S
Mn1513 N1520 2.257 . S
Mn1513 N1529 2.282 . S
Mn1513 O1537 2.215 . S
Mn1513 O1539 2.117 . S
C1514 O1536 1.234 . S
C1514 O1537 1.283 . S
C1515 O1527 1.281 . S
C1515 O1528 1.236 . S
C1516 O1538 1.240 . S
C1516 O1539 1.264 . S
O1517 Mn1512 2.095 1_455 S
O1517 C1526 1.250 . S
O1518 Mn1513 2.121 1_455 S
O1518 C1526 1.258 . S
C1519 N1520 1.326 . S
C1519 C1523 1.460 . S
C1519 H1525 0.929 1_655 S
N1520 Mn1513 2.257 . S
N1520 C1519 1.326 . S
N1520 C1524 1.362 . S
C1521 C1522 1.258 . S
C1521 C1524 1.431 . S
C1521 C1541 1.449 . S
C1522 C1521 1.258 . S
C1522 C1523 1.477 . S
C1522 H1542 0.931 . S
C1523 C1519 1.460 . S
C1523 C1522 1.477 . S
C1523 H1543 0.930 1_655 S
C1524 N1520 1.362 . S
C1524 C1521 1.431 . S
C1524 C1534 1.476 . S
H1525 C1519 0.929 1_455 S
C1526 O1517 1.250 . S
C1526 O1518 1.258 . S
O1527 Mn1512 2.162 . S
O1527 C1515 1.281 . S
O1528 Mn1512 2.297 . S
O1528 C1515 1.236 . S
N1529 Mn1513 2.282 . S
N1529 C1530 1.328 . S
N1529 C1534 1.318 . S
C1530 N1529 1.328 . S
C1530 C1531 1.457 . S
C1530 H1535 0.929 . S
C1531 C1530 1.457 . S
C1531 C1532 1.291 . S
C1531 H1544 0.931 . S
C1532 C1531 1.291 . S
C1532 C1533 1.373 . S
C1532 H1545 0.929 . S
C1533 C1532 1.373 . S
C1533 C1534 1.396 . S
C1533 C1540 1.403 . S
C1534 C1524 1.476 . S
C1534 N1529 1.318 . S
C1534 C1533 1.396 . S
H1535 C1530 0.929 . S
O1536 Mn1512 2.385 . S
O1536 C1514 1.234 . S
O1537 Mn1512 2.209 . S
O1537 Mn1513 2.215 . S
O1537 C1514 1.283 . S
O1538 Mn1512 2.094 . S
O1538 C1516 1.240 . S
O1539 Mn1513 2.117 . S
O1539 C1516 1.264 . S
C1540 C1533 1.403 . S
C1540 C1541 1.399 . S
C1540 H1546 0.929 . S
C1541 C1521 1.449 . S
C1541 C1540 1.399 . S
C1541 H1547 0.930 . S
H1542 C1522 0.931 . S
H1543 C1523 0.930 1_455 S
H1544 C1531 0.931 . S
H1545 C1532 0.929 . S
H1546 C1540 0.929 . S
H1547 C1541 0.930 . S
Mn1548 O1553 2.095 . S
Mn1548 O1563 2.162 . S
Mn1548 O1564 2.297 . S
Mn1548 O1572 2.385 . S
Mn1548 O1573 2.209 . S
Mn1548 O1574 2.094 . S
Mn1549 O1554 2.121 . S
Mn1549 N1556 2.257 . S
Mn1549 N1565 2.282 . S
Mn1549 O1573 2.215 . S
Mn1549 O1575 2.117 . S
C1550 O1572 1.234 . S
C1550 O1573 1.283 . S
C1551 O1563 1.281 . S
C1551 O1564 1.236 . S
C1552 O1574 1.240 . S
C1552 O1575 1.264 . S
O1553 Mn1548 2.095 . S
O1553 C1562 1.250 . S
O1554 Mn1549 2.121 . S
O1554 C1562 1.258 . S
C1555 N1556 1.326 . S
C1555 C1559 1.460 . S
C1555 H1561 0.929 . S
N1556 Mn1549 2.257 . S
N1556 C1555 1.326 . S
N1556 C1560 1.362 . S
C1557 C1558 1.258 . S
C1557 C1560 1.431 . S
C1557 C1577 1.449 . S
C1558 C1557 1.258 . S
C1558 C1559 1.477 . S
C1558 H1578 0.931 . S
C1559 C1555 1.460 . S
C1559 C1558 1.477 . S
C1559 H1579 0.930 . S
C1560 N1556 1.362 . S
C1560 C1557 1.431 . S
C1560 C1570 1.476 . S
H1561 C1555 0.929 . S
C1562 O1553 1.250 . S
C1562 O1554 1.258 . S
O1563 Mn1548 2.162 . S
O1563 C1551 1.281 . S
O1564 Mn1548 2.297 . S
O1564 C1551 1.236 . S
N1565 Mn1549 2.282 . S
N1565 C1566 1.328 . S
N1565 C1570 1.318 . S
C1566 N1565 1.328 . S
C1566 C1567 1.457 . S
C1566 H1571 0.929 . S
C1567 C1566 1.457 . S
C1567 C1568 1.291 . S
C1567 H1580 0.931 . S
C1568 C1567 1.291 . S
C1568 C1569 1.373 . S
C1568 H1581 0.929 . S
C1569 C1568 1.373 . S
C1569 C1570 1.396 . S
C1569 C1576 1.403 . S
C1570 C1560 1.476 . S
C1570 N1565 1.318 . S
C1570 C1569 1.396 . S
H1571 C1566 0.929 . S
O1572 Mn1548 2.385 . S
O1572 C1550 1.234 . S
O1573 Mn1548 2.209 . S
O1573 Mn1549 2.215 . S
O1573 C1550 1.283 . S
O1574 Mn1548 2.094 . S
O1574 C1552 1.240 . S
O1575 Mn1549 2.117 . S
O1575 C1552 1.264 . S
C1576 C1569 1.403 . S
C1576 C1577 1.399 . S
C1576 H1582 0.929 . S
C1577 C1557 1.449 . S
C1577 C1576 1.399 . S
C1577 H1583 0.930 . S
H1578 C1558 0.931 . S
H1579 C1559 0.930 . S
H1580 C1567 0.931 . S
H1581 C1568 0.929 . S
H1582 C1576 0.929 . S
H1583 C1577 0.930 . S
Mn1584 O1589 2.095 . S
Mn1584 O1599 2.162 . S
Mn1584 O1600 2.297 . S
Mn1584 O1608 2.385 . S
Mn1584 O1609 2.209 . S
Mn1584 O1610 2.094 . S
Mn1585 O1590 2.121 . S
Mn1585 N1592 2.257 . S
Mn1585 N1601 2.282 . S
Mn1585 O1609 2.215 . S
Mn1585 O1611 2.117 . S
C1586 O1608 1.234 . S
C1586 O1609 1.283 . S
C1587 O1599 1.281 . S
C1587 O1600 1.236 . S
C1588 O1610 1.240 . S
C1588 O1611 1.264 . S
O1589 Mn1584 2.095 . S
O1589 C1598 1.250 . S
O1590 Mn1585 2.121 . S
O1590 C1598 1.258 . S
C1591 N1592 1.326 . S
C1591 C1595 1.460 . S
C1591 H1597 0.929 . S
N1592 Mn1585 2.257 . S
N1592 C1591 1.326 . S
N1592 C1596 1.362 . S
C1593 C1594 1.258 . S
C1593 C1596 1.431 . S
C1593 C1613 1.449 . S
C1594 C1593 1.258 . S
C1594 C1595 1.477 . S
C1594 H1614 0.931 . S
C1595 C1591 1.460 . S
C1595 C1594 1.477 . S
C1595 H1615 0.930 . S
C1596 N1592 1.362 . S
C1596 C1593 1.431 . S
C1596 C1606 1.476 . S
H1597 C1591 0.929 . S
C1598 O1589 1.250 . S
C1598 O1590 1.258 . S
O1599 Mn1584 2.162 . S
O1599 C1587 1.281 . S
O1600 Mn1584 2.297 . S
O1600 C1587 1.236 . S
N1601 Mn1585 2.282 . S
N1601 C1602 1.328 . S
N1601 C1606 1.318 . S
C1602 N1601 1.328 . S
C1602 C1603 1.457 . S
C1602 H1607 0.929 . S
C1603 C1602 1.457 . S
C1603 C1604 1.291 . S
C1603 H1616 0.931 . S
C1604 C1603 1.291 . S
C1604 C1605 1.373 . S
C1604 H1617 0.929 . S
C1605 C1604 1.373 . S
C1605 C1606 1.396 . S
C1605 C1612 1.403 . S
C1606 C1596 1.476 . S
C1606 N1601 1.318 . S
C1606 C1605 1.396 . S
H1607 C1602 0.929 . S
O1608 Mn1584 2.385 . S
O1608 C1586 1.234 . S
O1609 Mn1584 2.209 . S
O1609 Mn1585 2.215 . S
O1609 C1586 1.283 . S
O1610 Mn1584 2.094 . S
O1610 C1588 1.240 . S
O1611 Mn1585 2.117 . S
O1611 C1588 1.264 . S
C1612 C1605 1.403 . S
C1612 C1613 1.399 . S
C1612 H1618 0.929 . S
C1613 C1593 1.449 . S
C1613 C1612 1.399 . S
C1613 H1619 0.930 . S
H1614 C1594 0.931 . S
H1615 C1595 0.930 . S
H1616 C1603 0.931 . S
H1617 C1604 0.929 . S
H1618 C1612 0.929 . S
H1619 C1613 0.930 . S
Mn1620 O1625 2.095 1_545 S
Mn1620 O1635 2.162 . S
Mn1620 O1636 2.297 . S
Mn1620 O1644 2.385 . S
Mn1620 O1645 2.209 . S
Mn1620 O1646 2.094 1_545 S
Mn1621 O1626 2.121 . S
Mn1621 N1628 2.257 . S
Mn1621 N1637 2.282 . S
Mn1621 O1645 2.215 1_565 S
Mn1621 O1647 2.117 . S
C1622 O1644 1.234 . S
C1622 O1645 1.283 . S
C1623 O1635 1.281 . S
C1623 O1636 1.236 . S
C1624 O1646 1.240 . S
C1624 O1647 1.264 . S
O1625 Mn1620 2.095 1_565 S
O1625 C1634 1.250 . S
O1626 Mn1621 2.121 . S
O1626 C1634 1.258 . S
C1627 N1628 1.326 . S
C1627 C1631 1.460 . S
C1627 H1633 0.929 . S
N1628 Mn1621 2.257 . S
N1628 C1627 1.326 . S
N1628 C1632 1.362 . S
C1629 C1630 1.258 . S
C1629 C1632 1.431 . S
C1629 C1649 1.449 . S
C1630 C1629 1.258 . S
C1630 C1631 1.477 . S
C1630 H1650 0.931 . S
C1631 C1627 1.460 . S
C1631 C1630 1.477 . S
C1631 H1651 0.930 . S
C1632 N1628 1.362 . S
C1632 C1629 1.431 . S
C1632 C1642 1.476 . S
H1633 C1627 0.929 . S
C1634 O1625 1.250 . S
C1634 O1626 1.258 . S
O1635 Mn1620 2.162 . S
O1635 C1623 1.281 . S
O1636 Mn1620 2.297 . S
O1636 C1623 1.236 . S
N1637 Mn1621 2.282 . S
N1637 C1638 1.328 . S
N1637 C1642 1.318 . S
C1638 N1637 1.328 . S
C1638 C1639 1.457 . S
C1638 H1643 0.929 . S
C1639 C1638 1.457 . S
C1639 C1640 1.291 . S
C1639 H1652 0.931 . S
C1640 C1639 1.291 . S
C1640 C1641 1.373 . S
C1640 H1653 0.929 . S
C1641 C1640 1.373 . S
C1641 C1642 1.396 . S
C1641 C1648 1.403 . S
C1642 C1632 1.476 . S
C1642 N1637 1.318 . S
C1642 C1641 1.396 . S
H1643 C1638 0.929 . S
O1644 Mn1620 2.385 . S
O1644 C1622 1.234 . S
O1645 Mn1620 2.209 . S
O1645 Mn1621 2.215 1_545 S
O1645 C1622 1.283 . S
O1646 Mn1620 2.094 1_565 S
O1646 C1624 1.240 . S
O1647 Mn1621 2.117 . S
O1647 C1624 1.264 . S
C1648 C1641 1.403 . S
C1648 C1649 1.399 . S
C1648 H1654 0.929 . S
C1649 C1629 1.449 . S
C1649 C1648 1.399 . S
C1649 H1655 0.930 . S
H1650 C1630 0.931 . S
H1651 C1631 0.930 . S
H1652 C1639 0.931 . S
H1653 C1640 0.929 . S
H1654 C1648 0.929 . S
H1655 C1649 0.930 . S
Mn1656 O1661 2.095 . S
Mn1656 O1671 2.162 . S
Mn1656 O1672 2.297 . S
Mn1656 O1680 2.385 . S
Mn1656 O1681 2.209 . S
Mn1656 O1682 2.094 . S
Mn1657 O1662 2.121 . S
Mn1657 N1664 2.257 . S
Mn1657 N1673 2.282 . S
Mn1657 O1681 2.215 . S
Mn1657 O1683 2.117 . S
C1658 O1680 1.234 . S
C1658 O1681 1.283 . S
C1659 O1671 1.281 . S
C1659 O1672 1.236 . S
C1660 O1682 1.240 . S
C1660 O1683 1.264 . S
O1661 Mn1656 2.095 . S
O1661 C1670 1.250 . S
O1662 Mn1657 2.121 . S
O1662 C1670 1.258 . S
C1663 N1664 1.326 . S
C1663 C1667 1.460 . S
C1663 H1669 0.929 . S
N1664 Mn1657 2.257 . S
N1664 C1663 1.326 . S
N1664 C1668 1.362 . S
C1665 C1666 1.258 . S
C1665 C1668 1.431 . S
C1665 C1685 1.449 . S
C1666 C1665 1.258 . S
C1666 C1667 1.477 . S
C1666 H1686 0.931 . S
C1667 C1663 1.460 . S
C1667 C1666 1.477 . S
C1667 H1687 0.930 . S
C1668 N1664 1.362 . S
C1668 C1665 1.431 . S
C1668 C1678 1.476 . S
H1669 C1663 0.929 . S
C1670 O1661 1.250 . S
C1670 O1662 1.258 . S
O1671 Mn1656 2.162 . S
O1671 C1659 1.281 . S
O1672 Mn1656 2.297 . S
O1672 C1659 1.236 . S
N1673 Mn1657 2.282 . S
N1673 C1674 1.328 . S
N1673 C1678 1.318 . S
C1674 N1673 1.328 . S
C1674 C1675 1.457 . S
C1674 H1679 0.929 . S
C1675 C1674 1.457 . S
C1675 C1676 1.291 . S
C1675 H1688 0.931 . S
C1676 C1675 1.291 . S
C1676 C1677 1.373 . S
C1676 H1689 0.929 . S
C1677 C1676 1.373 . S
C1677 C1678 1.396 . S
C1677 C1684 1.403 . S
C1678 C1668 1.476 . S
C1678 N1673 1.318 . S
C1678 C1677 1.396 . S
H1679 C1674 0.929 . S
O1680 Mn1656 2.385 . S
O1680 C1658 1.234 . S
O1681 Mn1656 2.209 . S
O1681 Mn1657 2.215 . S
O1681 C1658 1.283 . S
O1682 Mn1656 2.094 . S
O1682 C1660 1.240 . S
O1683 Mn1657 2.117 . S
O1683 C1660 1.264 . S
C1684 C1677 1.403 . S
C1684 C1685 1.399 . S
C1684 H1690 0.929 . S
C1685 C1665 1.449 . S
C1685 C1684 1.399 . S
C1685 H1691 0.930 . S
H1686 C1666 0.931 . S
H1687 C1667 0.930 . S
H1688 C1675 0.931 . S
H1689 C1676 0.929 . S
H1690 C1684 0.929 . S
H1691 C1685 0.930 . S
Mn1692 O1697 2.095 . S
Mn1692 O1707 2.162 . S
Mn1692 O1708 2.297 . S
Mn1692 O1716 2.385 . S
Mn1692 O1717 2.209 . S
Mn1692 O1718 2.094 . S
Mn1693 O1698 2.121 . S
Mn1693 N1700 2.257 . S
Mn1693 N1709 2.282 . S
Mn1693 O1717 2.215 . S
Mn1693 O1719 2.117 . S
C1694 O1716 1.234 . S
C1694 O1717 1.283 . S
C1695 O1707 1.281 . S
C1695 O1708 1.236 . S
C1696 O1718 1.240 . S
C1696 O1719 1.264 . S
O1697 Mn1692 2.095 . S
O1697 C1706 1.250 . S
O1698 Mn1693 2.121 . S
O1698 C1706 1.258 . S
C1699 N1700 1.326 . S
C1699 C1703 1.460 . S
C1699 H1705 0.929 . S
N1700 Mn1693 2.257 . S
N1700 C1699 1.326 . S
N1700 C1704 1.362 . S
C1701 C1702 1.258 . S
C1701 C1704 1.431 . S
C1701 C1721 1.449 . S
C1702 C1701 1.258 . S
C1702 C1703 1.477 . S
C1702 H1722 0.931 . S
C1703 C1699 1.460 . S
C1703 C1702 1.477 . S
C1703 H1723 0.930 . S
C1704 N1700 1.362 . S
C1704 C1701 1.431 . S
C1704 C1714 1.476 . S
H1705 C1699 0.929 . S
C1706 O1697 1.250 . S
C1706 O1698 1.258 . S
O1707 Mn1692 2.162 . S
O1707 C1695 1.281 . S
O1708 Mn1692 2.297 . S
O1708 C1695 1.236 . S
N1709 Mn1693 2.282 . S
N1709 C1710 1.328 . S
N1709 C1714 1.318 . S
C1710 N1709 1.328 . S
C1710 C1711 1.457 . S
C1710 H1715 0.929 . S
C1711 C1710 1.457 . S
C1711 C1712 1.291 . S
C1711 H1724 0.931 . S
C1712 C1711 1.291 . S
C1712 C1713 1.373 . S
C1712 H1725 0.929 . S
C1713 C1712 1.373 . S
C1713 C1714 1.396 . S
C1713 C1720 1.403 . S
C1714 C1704 1.476 . S
C1714 N1709 1.318 . S
C1714 C1713 1.396 . S
H1715 C1710 0.929 . S
O1716 Mn1692 2.385 . S
O1716 C1694 1.234 . S
O1717 Mn1692 2.209 . S
O1717 Mn1693 2.215 . S
O1717 C1694 1.283 . S
O1718 Mn1692 2.094 . S
O1718 C1696 1.240 . S
O1719 Mn1693 2.117 . S
O1719 C1696 1.264 . S
C1720 C1713 1.403 . S
C1720 C1721 1.399 . S
C1720 H1726 0.929 . S
C1721 C1701 1.449 . S
C1721 C1720 1.399 . S
C1721 H1727 0.930 . S
H1722 C1702 0.931 . S
H1723 C1703 0.930 . S
H1724 C1711 0.931 . S
H1725 C1712 0.929 . S
H1726 C1720 0.929 . S
H1727 C1721 0.930 . S
H1728 C1746 0.951 1_556 S
H1729 C1748 0.951 . S
H1730 C1750 0.950 . S
H1731 C1751 0.950 . S
H1732 C1753 0.950 . S
H1733 C1756 0.950 . S
H1734 C1757 0.950 . S
H1735 C1759 0.950 1_556 S
H1736 C1760 0.950 . S
H1737 C1761 0.951 . S
H1738 C1763 0.951 . S
H1739 C1765 0.950 . S
H1740 C1766 0.950 . S
H1741 C1768 0.950 . S
H1742 C1771 0.950 . S
H1743 C1772 0.950 . S
H1744 C1774 0.950 . S
H1745 C1775 0.950 . S
C1746 H1728 0.951 1_554 S
C1746 C1747 1.366 . S
C1746 C1748 1.388 . S
C1747 C1746 1.366 . S
C1747 C1751 1.385 . S
C1748 H1729 0.951 . S
C1748 C1746 1.388 . S
C1748 C1749 1.366 . S
C1749 C1748 1.366 . S
C1749 C1750 1.414 . S
C1749 C1752 1.499 . S
C1750 H1730 0.950 . S
C1750 C1749 1.414 . S
C1750 C1751 1.374 . S
C1751 H1731 0.950 . S
C1751 C1747 1.385 . S
C1751 C1750 1.374 . S
C1752 C1749 1.499 . S
C1752 C1753 1.373 . S
C1752 C1754 1.389 . S
C1753 H1732 0.950 . S
C1753 C1752 1.373 . S
C1753 C1769 1.377 . S
C1754 C1752 1.389 . S
C1754 C1755 1.524 . S
C1754 C1768 1.377 . S
C1755 C1754 1.524 . S
C1755 C1756 1.397 . S
C1755 C1760 1.363 . S
C1756 H1733 0.950 . S
C1756 C1755 1.397 . S
C1756 C1757 1.334 . S
C1757 H1734 0.950 . S
C1757 C1756 1.334 . S
C1757 C1758 1.287 . S
C1758 C1757 1.287 . S
C1758 C1759 1.524 . S
C1758 H1777 0.913 . S
C1759 H1735 0.950 1_554 S
C1759 C1758 1.524 . S
C1759 C1760 1.415 . S
C1760 H1736 0.950 . S
C1760 C1755 1.363 . S
C1760 C1759 1.415 . S
C1761 H1737 0.951 . S
C1761 C1762 1.366 . S
C1761 C1763 1.388 . S
C1762 C1761 1.366 . S
C1762 C1766 1.385 . S
C1763 H1738 0.951 . S
C1763 C1761 1.388 . S
C1763 C1764 1.366 . S
C1764 C1763 1.366 . S
C1764 C1765 1.414 . S
C1764 C1767 1.499 . S
C1765 H1739 0.950 . S
C1765 C1764 1.414 . S
C1765 C1766 1.374 . S
C1766 H1740 0.950 . S
C1766 C1762 1.385 . S
C1766 C1765 1.374 . S
C1767 C1764 1.499 . S
C1767 C1768 1.373 . S
C1767 C1769 1.389 . S
C1768 H1741 0.950 . S
C1768 C1754 1.377 . S
C1768 C1767 1.373 . S
C1769 C1753 1.377 . S
C1769 C1767 1.389 . S
C1769 C1770 1.524 . S
C1770 C1769 1.524 . S
C1770 C1771 1.397 . S
C1770 C1775 1.363 . S
C1771 H1742 0.950 . S
C1771 C1770 1.397 . S
C1771 C1772 1.334 . S
C1772 H1743 0.950 . S
C1772 C1771 1.334 . S
C1772 C1773 1.287 . S
C1773 C1772 1.287 . S
C1773 C1774 1.524 . S
C1773 H1776 0.999 . S
C1774 H1744 0.950 . S
C1774 C1773 1.524 . S
C1774 C1775 1.415 . S
C1775 H1745 0.950 . S
C1775 C1770 1.363 . S
C1775 C1774 1.415 . S
H1776 C1773 0.999 . S
H1777 C1758 0.913 . S
H1778 C1796 0.951 . S
H1779 C1798 0.951 . S
H1780 C1800 0.950 . S
H1781 C1801 0.950 . S
H1782 C1803 0.950 . S
H1783 C1806 0.950 . S
H1784 C1807 0.950 . S
H1785 C1809 0.950 . S
H1786 C1810 0.950 . S
H1787 C1811 0.951 . S
H1788 C1813 0.951 . S
H1789 C1815 0.950 . S
H1790 C1816 0.950 . S
H1791 C1818 0.950 . S
H1792 C1821 0.950 . S
H1793 C1822 0.950 . S
H1794 C1824 0.950 . S
H1795 C1825 0.950 . S
C1796 H1778 0.951 . S
C1796 C1797 1.366 . S
C1796 C1798 1.388 . S
C1797 C1796 1.366 . S
C1797 C1801 1.385 . S
C1798 H1779 0.951 . S
C1798 C1796 1.388 . S
C1798 C1799 1.366 . S
C1799 C1798 1.366 . S
C1799 C1800 1.414 . S
C1799 C1802 1.499 . S
C1800 H1780 0.950 . S
C1800 C1799 1.414 . S
C1800 C1801 1.374 . S
C1801 H1781 0.950 . S
C1801 C1797 1.385 . S
C1801 C1800 1.374 . S
C1802 C1799 1.499 . S
C1802 C1803 1.373 . S
C1802 C1804 1.389 . S
C1803 H1782 0.950 . S
C1803 C1802 1.373 . S
C1803 C1819 1.377 . S
C1804 C1802 1.389 . S
C1804 C1805 1.524 . S
C1804 C1818 1.377 . S
C1805 C1804 1.524 . S
C1805 C1806 1.397 . S
C1805 C1810 1.363 . S
C1806 H1783 0.950 . S
C1806 C1805 1.397 . S
C1806 C1807 1.334 . S
C1807 H1784 0.950 . S
C1807 C1806 1.334 . S
C1807 C1808 1.287 . S
C1808 C1807 1.287 . S
C1808 C1809 1.524 . S
C1808 H1827 0.913 . S
C1809 H1785 0.950 . S
C1809 C1808 1.524 . S
C1809 C1810 1.415 . S
C1810 H1786 0.950 . S
C1810 C1805 1.363 . S
C1810 C1809 1.415 . S
C1811 H1787 0.951 . S
C1811 C1812 1.366 . S
C1811 C1813 1.388 . S
C1812 C1811 1.366 . S
C1812 C1816 1.385 . S
C1813 H1788 0.951 . S
C1813 C1811 1.388 . S
C1813 C1814 1.366 . S
C1814 C1813 1.366 . S
C1814 C1815 1.414 . S
C1814 C1817 1.499 . S
C1815 H1789 0.950 . S
C1815 C1814 1.414 . S
C1815 C1816 1.374 . S
C1816 H1790 0.950 . S
C1816 C1812 1.385 . S
C1816 C1815 1.374 . S
C1817 C1814 1.499 . S
C1817 C1818 1.373 . S
C1817 C1819 1.389 . S
C1818 H1791 0.950 . S
C1818 C1804 1.377 . S
C1818 C1817 1.373 . S
C1819 C1803 1.377 . S
C1819 C1817 1.389 . S
C1819 C1820 1.524 . S
C1820 C1819 1.524 . S
C1820 C1821 1.397 . S
C1820 C1825 1.363 . S
C1821 H1792 0.950 . S
C1821 C1820 1.397 . S
C1821 C1822 1.334 . S
C1822 H1793 0.950 . S
C1822 C1821 1.334 . S
C1822 C1823 1.287 . S
C1823 C1822 1.287 . S
C1823 C1824 1.524 . S
C1823 H1826 0.999 . S
C1824 H1794 0.950 . S
C1824 C1823 1.524 . S
C1824 C1825 1.415 . S
C1825 H1795 0.950 . S
C1825 C1820 1.363 . S
C1825 C1824 1.415 . S
H1826 C1823 0.999 . S
H1827 C1808 0.913 . S
H1828 C1846 0.951 . S
H1829 C1848 0.951 . S
H1830 C1850 0.950 . S
H1831 C1851 0.950 . S
H1832 C1853 0.950 . S
H1833 C1856 0.950 . S
H1834 C1857 0.950 . S
H1835 C1859 0.950 . S
H1836 C1860 0.950 . S
H1837 C1861 0.951 . S
H1838 C1863 0.951 . S
H1839 C1865 0.950 . S
H1840 C1866 0.950 . S
H1841 C1868 0.950 . S
H1842 C1871 0.950 . S
H1843 C1872 0.950 . S
H1844 C1874 0.950 . S
H1845 C1875 0.950 . S
C1846 H1828 0.951 . S
C1846 C1847 1.366 . S
C1846 C1848 1.388 . S
C1847 C1846 1.366 . S
C1847 C1851 1.385 . S
C1848 H1829 0.951 . S
C1848 C1846 1.388 . S
C1848 C1849 1.366 . S
C1849 C1848 1.366 . S
C1849 C1850 1.414 . S
C1849 C1852 1.499 . S
C1850 H1830 0.950 . S
C1850 C1849 1.414 . S
C1850 C1851 1.374 . S
C1851 H1831 0.950 . S
C1851 C1847 1.385 . S
C1851 C1850 1.374 . S
C1852 C1849 1.499 . S
C1852 C1853 1.373 . S
C1852 C1854 1.389 1_545 S
C1853 H1832 0.950 . S
C1853 C1852 1.373 . S
C1853 C1869 1.377 . S
C1854 C1852 1.389 1_565 S
C1854 C1855 1.524 . S
C1854 C1868 1.377 . S
C1855 C1854 1.524 . S
C1855 C1856 1.397 . S
C1855 C1860 1.363 . S
C1856 H1833 0.950 . S
C1856 C1855 1.397 . S
C1856 C1857 1.334 . S
C1857 H1834 0.950 . S
C1857 C1856 1.334 . S
C1857 C1858 1.287 . S
C1858 C1857 1.287 . S
C1858 C1859 1.524 . S
C1858 H1877 0.913 . S
C1859 H1835 0.950 . S
C1859 C1858 1.524 . S
C1859 C1860 1.415 . S
C1860 H1836 0.950 . S
C1860 C1855 1.363 . S
C1860 C1859 1.415 . S
C1861 H1837 0.951 . S
C1861 C1862 1.366 . S
C1861 C1863 1.388 . S
C1862 C1861 1.366 . S
C1862 C1866 1.385 . S
C1863 H1838 0.951 . S
C1863 C1861 1.388 . S
C1863 C1864 1.366 . S
C1864 C1863 1.366 . S
C1864 C1865 1.414 . S
C1864 C1867 1.499 . S
C1865 H1839 0.950 . S
C1865 C1864 1.414 . S
C1865 C1866 1.374 . S
C1866 H1840 0.950 . S
C1866 C1862 1.385 . S
C1866 C1865 1.374 . S
C1867 C1864 1.499 . S
C1867 C1868 1.373 1_545 S
C1867 C1869 1.389 . S
C1868 H1841 0.950 . S
C1868 C1854 1.377 . S
C1868 C1867 1.373 1_565 S
C1869 C1853 1.377 . S
C1869 C1867 1.389 . S
C1869 C1870 1.524 . S
C1870 C1869 1.524 . S
C1870 C1871 1.397 . S
C1870 C1875 1.363 . S
C1871 H1842 0.950 . S
C1871 C1870 1.397 . S
C1871 C1872 1.334 . S
C1872 H1843 0.950 . S
C1872 C1871 1.334 . S
C1872 C1873 1.287 . S
C1873 C1872 1.287 . S
C1873 C1874 1.524 . S
C1873 H1876 0.999 . S
C1874 H1844 0.950 . S
C1874 C1873 1.524 . S
C1874 C1875 1.415 . S
C1875 H1845 0.950 . S
C1875 C1870 1.363 . S
C1875 C1874 1.415 . S
H1876 C1873 0.999 . S
H1877 C1858 0.913 . S
H1878 C1896 0.951 . S
H1879 C1898 0.951 . S
H1880 C1900 0.950 . S
H1881 C1901 0.950 . S
H1882 C1903 0.950 . S
H1883 C1906 0.950 . S
H1884 C1907 0.950 . S
H1885 C1909 0.950 . S
H1886 C1910 0.950 . S
H1887 C1911 0.951 . S
H1888 C1913 0.951 . S
H1889 C1915 0.950 . S
H1890 C1916 0.950 . S
H1891 C1918 0.950 . S
H1892 C1921 0.950 . S
H1893 C1922 0.950 . S
H1894 C1924 0.950 . S
H1895 C1925 0.950 . S
C1896 H1878 0.951 . S
C1896 C1897 1.366 . S
C1896 C1898 1.388 . S
C1897 C1896 1.366 . S
C1897 C1901 1.385 . S
C1898 H1879 0.951 . S
C1898 C1896 1.388 . S
C1898 C1899 1.366 . S
C1899 C1898 1.366 . S
C1899 C1900 1.414 . S
C1899 C1902 1.499 . S
C1900 H1880 0.950 . S
C1900 C1899 1.414 . S
C1900 C1901 1.374 . S
C1901 H1881 0.950 . S
C1901 C1897 1.385 . S
C1901 C1900 1.374 . S
C1902 C1899 1.499 . S
C1902 C1903 1.373 . S
C1902 C1904 1.389 . S
C1903 H1882 0.950 . S
C1903 C1902 1.373 . S
C1903 C1919 1.377 . S
C1904 C1902 1.389 . S
C1904 C1905 1.524 . S
C1904 C1918 1.377 . S
C1905 C1904 1.524 . S
C1905 C1906 1.397 . S
C1905 C1910 1.363 . S
C1906 H1883 0.950 . S
C1906 C1905 1.397 . S
C1906 C1907 1.334 . S
C1907 H1884 0.950 . S
C1907 C1906 1.334 . S
C1907 C1908 1.287 . S
C1908 C1907 1.287 . S
C1908 C1909 1.524 . S
C1908 H1927 0.913 . S
C1909 H1885 0.950 . S
C1909 C1908 1.524 . S
C1909 C1910 1.415 . S
C1910 H1886 0.950 . S
C1910 C1905 1.363 . S
C1910 C1909 1.415 . S
C1911 H1887 0.951 . S
C1911 C1912 1.366 . S
C1911 C1913 1.388 . S
C1912 C1911 1.366 . S
C1912 C1916 1.385 . S
C1913 H1888 0.951 . S
C1913 C1911 1.388 . S
C1913 C1914 1.366 . S
C1914 C1913 1.366 . S
C1914 C1915 1.414 . S
C1914 C1917 1.499 . S
C1915 H1889 0.950 . S
C1915 C1914 1.414 . S
C1915 C1916 1.374 . S
C1916 H1890 0.950 . S
C1916 C1912 1.385 . S
C1916 C1915 1.374 . S
C1917 C1914 1.499 . S
C1917 C1918 1.373 . S
C1917 C1919 1.389 . S
C1918 H1891 0.950 . S
C1918 C1904 1.377 . S
C1918 C1917 1.373 . S
C1919 C1903 1.377 . S
C1919 C1917 1.389 . S
C1919 C1920 1.524 . S
C1920 C1919 1.524 . S
C1920 C1921 1.397 . S
C1920 C1925 1.363 . S
C1921 H1892 0.950 . S
C1921 C1920 1.397 . S
C1921 C1922 1.334 . S
C1922 H1893 0.950 . S
C1922 C1921 1.334 . S
C1922 C1923 1.287 . S
C1923 C1922 1.287 . S
C1923 C1924 1.524 . S
C1923 H1926 0.999 . S
C1924 H1894 0.950 . S
C1924 C1923 1.524 . S
C1924 C1925 1.415 . S
C1925 H1895 0.950 . S
C1925 C1920 1.363 . S
C1925 C1924 1.415 . S
H1926 C1923 0.999 . S
H1927 C1908 0.913 . S
H1928 C1946 0.951 . S
H1929 C1948 0.951 . S
H1930 C1950 0.950 . S
H1931 C1951 0.950 . S
H1932 C1953 0.950 . S
H1933 C1956 0.950 . S
H1934 C1957 0.950 . S
H1935 C1959 0.950 . S
H1936 C1960 0.950 . S
H1937 C1961 0.951 . S
H1938 C1963 0.951 . S
H1939 C1965 0.950 . S
H1940 C1966 0.950 . S
H1941 C1968 0.950 . S
H1942 C1971 0.950 . S
H1943 C1972 0.950 . S
H1944 C1974 0.950 . S
H1945 C1975 0.950 . S
C1946 H1928 0.951 . S
C1946 C1947 1.366 . S
C1946 C1948 1.388 . S
C1947 C1946 1.366 . S
C1947 C1951 1.385 . S
C1948 H1929 0.951 . S
C1948 C1946 1.388 . S
C1948 C1949 1.366 . S
C1949 C1948 1.366 . S
C1949 C1950 1.414 . S
C1949 C1952 1.499 . S
C1950 H1930 0.950 . S
C1950 C1949 1.414 . S
C1950 C1951 1.374 . S
C1951 H1931 0.950 . S
C1951 C1947 1.385 . S
C1951 C1950 1.374 . S
C1952 C1949 1.499 . S
C1952 C1953 1.373 . S
C1952 C1954 1.389 . S
C1953 H1932 0.950 . S
C1953 C1952 1.373 . S
C1953 C1969 1.377 . S
C1954 C1952 1.389 . S
C1954 C1955 1.524 . S
C1954 C1968 1.377 . S
C1955 C1954 1.524 . S
C1955 C1956 1.397 . S
C1955 C1960 1.363 . S
C1956 H1933 0.950 . S
C1956 C1955 1.397 . S
C1956 C1957 1.334 . S
C1957 H1934 0.950 . S
C1957 C1956 1.334 . S
C1957 C1958 1.287 . S
C1958 C1957 1.287 . S
C1958 C1959 1.524 . S
C1958 H1977 0.913 . S
C1959 H1935 0.950 . S
C1959 C1958 1.524 . S
C1959 C1960 1.415 . S
C1960 H1936 0.950 . S
C1960 C1955 1.363 . S
C1960 C1959 1.415 . S
C1961 H1937 0.951 . S
C1961 C1962 1.366 . S
C1961 C1963 1.388 . S
C1962 C1961 1.366 . S
C1962 C1966 1.385 . S
C1963 H1938 0.951 . S
C1963 C1961 1.388 . S
C1963 C1964 1.366 . S
C1964 C1963 1.366 . S
C1964 C1965 1.414 . S
C1964 C1967 1.499 . S
C1965 H1939 0.950 . S
C1965 C1964 1.414 . S
C1965 C1966 1.374 . S
C1966 H1940 0.950 . S
C1966 C1962 1.385 . S
C1966 C1965 1.374 . S
C1967 C1964 1.499 . S
C1967 C1968 1.373 . S
C1967 C1969 1.389 . S
C1968 H1941 0.950 . S
C1968 C1954 1.377 . S
C1968 C1967 1.373 . S
C1969 C1953 1.377 . S
C1969 C1967 1.389 . S
C1969 C1970 1.524 . S
C1970 C1969 1.524 . S
C1970 C1971 1.397 . S
C1970 C1975 1.363 . S
C1971 H1942 0.950 . S
C1971 C1970 1.397 . S
C1971 C1972 1.334 . S
C1972 H1943 0.950 . S
C1972 C1971 1.334 . S
C1972 C1973 1.287 . S
C1973 C1972 1.287 . S
C1973 C1974 1.524 . S
C1973 H1976 0.999 . S
C1974 H1944 0.950 . S
C1974 C1973 1.524 . S
C1974 C1975 1.415 . S
C1975 H1945 0.950 . S
C1975 C1970 1.363 . S
C1975 C1974 1.415 . S
H1976 C1973 0.999 . S
H1977 C1958 0.913 . S
H1978 C1996 0.951 . S
H1979 C1998 0.951 . S
H1980 C2000 0.950 . S
H1981 C2001 0.950 . S
H1982 C2003 0.950 . S
H1983 C2006 0.950 . S
H1984 C2007 0.950 . S
H1985 C2009 0.950 . S
H1986 C2010 0.950 . S
H1987 C2011 0.951 . S
H1988 C2013 0.951 . S
H1989 C2015 0.950 . S
H1990 C2016 0.950 . S
H1991 C2018 0.950 . S
H1992 C2021 0.950 . S
H1993 C2022 0.950 . S
H1994 C2024 0.953 . S
H1995 C2025 0.950 . S
C1996 H1978 0.951 . S
C1996 C1997 1.366 . S
C1996 C1998 1.388 . S
C1997 C1996 1.366 . S
C1997 C2001 1.385 . S
C1998 H1979 0.951 . S
C1998 C1996 1.388 . S
C1998 C1999 1.366 . S
C1999 C1998 1.366 . S
C1999 C2000 1.414 . S
C1999 C2002 1.499 . S
C2000 H1980 0.950 . S
C2000 C1999 1.414 . S
C2000 C2001 1.374 . S
C2001 H1981 0.950 . S
C2001 C1997 1.385 . S
C2001 C2000 1.374 . S
C2002 C1999 1.499 . S
C2002 C2003 1.373 . S
C2002 C2004 1.389 . S
C2003 H1982 0.950 . S
C2003 C2002 1.373 . S
C2003 C2019 1.377 . S
C2004 C2002 1.389 . S
C2004 C2005 1.524 . S
C2004 C2018 1.377 . S
C2005 C2004 1.524 . S
C2005 C2006 1.397 . S
C2005 C2010 1.363 . S
C2006 H1983 0.950 . S
C2006 C2005 1.397 . S
C2006 C2007 1.334 . S
C2007 H1984 0.950 . S
C2007 C2006 1.334 . S
C2007 C2008 1.287 . S
C2008 C2007 1.287 . S
C2008 C2009 1.524 . S
C2008 H2027 0.913 . S
C2009 H1985 0.950 . S
C2009 C2008 1.524 . S
C2009 C2010 1.415 . S
C2010 H1986 0.950 . S
C2010 C2005 1.363 . S
C2010 C2009 1.415 . S
C2011 H1987 0.951 . S
C2011 C2012 1.366 . S
C2011 C2013 1.388 . S
C2012 C2011 1.366 . S
C2012 C2016 1.385 . S
C2013 H1988 0.951 . S
C2013 C2011 1.388 . S
C2013 C2014 1.366 . S
C2014 C2013 1.366 . S
C2014 C2015 1.414 . S
C2014 C2017 1.499 . S
C2015 H1989 0.950 . S
C2015 C2014 1.414 . S
C2015 C2016 1.374 . S
C2016 H1990 0.950 . S
C2016 C2012 1.385 . S
C2016 C2015 1.374 . S
C2017 C2014 1.499 . S
C2017 C2018 1.373 . S
C2017 C2019 1.389 . S
C2018 H1991 0.950 . S
C2018 C2004 1.377 . S
C2018 C2017 1.373 . S
C2019 C2003 1.377 . S
C2019 C2017 1.389 . S
C2019 C2020 1.524 . S
C2020 C2019 1.524 . S
C2020 C2021 1.397 . S
C2020 C2025 1.363 . S
C2021 H1992 0.950 . S
C2021 C2020 1.397 . S
C2021 C2022 1.334 . S
C2022 H1993 0.950 . S
C2022 C2021 1.334 . S
C2022 C2023 1.287 . S
C2023 C2022 1.287 . S
C2023 C2024 1.524 . S
C2023 H2026 0.999 1_554 S
C2024 H1994 0.953 . S
C2024 C2023 1.524 . S
C2024 C2025 1.415 . S
C2025 H1995 0.950 . S
C2025 C2020 1.363 . S
C2025 C2024 1.415 . S
H2026 C2023 0.999 1_556 S
H2027 C2008 0.913 . S
H2028 C2046 0.951 . S
H2029 C2048 0.951 . S
H2030 C2050 0.950 . S
H2031 C2051 0.950 . S
H2032 C2053 0.950 . S
H2033 C2056 0.950 . S
H2034 C2057 0.950 . S
H2035 C2059 0.950 . S
H2036 C2060 0.950 . S
H2037 C2061 0.951 . S
H2038 C2063 0.951 . S
H2039 C2065 0.950 . S
H2040 C2066 0.950 . S
H2041 C2068 0.950 . S
H2042 C2071 0.950 . S
H2043 C2072 0.950 . S
H2044 C2074 0.950 . S
H2045 C2075 0.950 . S
C2046 H2028 0.951 . S
C2046 C2047 1.366 . S
C2046 C2048 1.388 . S
C2047 C2046 1.366 . S
C2047 C2051 1.385 . S
C2048 H2029 0.951 . S
C2048 C2046 1.388 . S
C2048 C2049 1.366 . S
C2049 C2048 1.366 . S
C2049 C2050 1.414 . S
C2049 C2052 1.499 . S
C2050 H2030 0.950 . S
C2050 C2049 1.414 . S
C2050 C2051 1.374 . S
C2051 H2031 0.950 . S
C2051 C2047 1.385 . S
C2051 C2050 1.374 . S
C2052 C2049 1.499 . S
C2052 C2053 1.373 . S
C2052 C2054 1.389 . S
C2053 H2032 0.950 . S
C2053 C2052 1.373 . S
C2053 C2069 1.377 . S
C2054 C2052 1.389 . S
C2054 C2055 1.524 . S
C2054 C2068 1.377 . S
C2055 C2054 1.524 . S
C2055 C2056 1.397 . S
C2055 C2060 1.363 . S
C2056 H2033 0.950 . S
C2056 C2055 1.397 . S
C2056 C2057 1.334 . S
C2057 H2034 0.950 . S
C2057 C2056 1.334 . S
C2057 C2058 1.287 . S
C2058 C2057 1.287 . S
C2058 C2059 1.524 . S
C2058 H2077 0.913 . S
C2059 H2035 0.950 . S
C2059 C2058 1.524 . S
C2059 C2060 1.415 . S
C2060 H2036 0.950 . S
C2060 C2055 1.363 . S
C2060 C2059 1.415 . S
C2061 H2037 0.951 . S
C2061 C2062 1.366 . S
C2061 C2063 1.388 . S
C2062 C2061 1.366 . S
C2062 C2066 1.385 . S
C2063 H2038 0.951 . S
C2063 C2061 1.388 . S
C2063 C2064 1.366 . S
C2064 C2063 1.366 . S
C2064 C2065 1.414 . S
C2064 C2067 1.499 . S
C2065 H2039 0.950 . S
C2065 C2064 1.414 . S
C2065 C2066 1.374 . S
C2066 H2040 0.950 . S
C2066 C2062 1.385 . S
C2066 C2065 1.374 . S
C2067 C2064 1.499 . S
C2067 C2068 1.373 . S
C2067 C2069 1.389 . S
C2068 H2041 0.950 . S
C2068 C2054 1.377 . S
C2068 C2067 1.373 . S
C2069 C2053 1.377 . S
C2069 C2067 1.389 . S
C2069 C2070 1.524 . S
C2070 C2069 1.524 . S
C2070 C2071 1.397 . S
C2070 C2075 1.363 . S
C2071 H2042 0.950 . S
C2071 C2070 1.397 . S
C2071 C2072 1.334 . S
C2072 H2043 0.950 . S
C2072 C2071 1.334 . S
C2072 C2073 1.287 . S
C2073 C2072 1.287 . S
C2073 C2074 1.524 . S
C2073 H2076 0.999 . S
C2074 H2044 0.950 . S
C2074 C2073 1.524 . S
C2074 C2075 1.415 . S
C2075 H2045 0.950 . S
C2075 C2070 1.363 . S
C2075 C2074 1.415 . S
H2076 C2073 0.999 . S
H2077 C2058 0.913 . S
H2078 C2096 0.951 . S
H2079 C2098 0.951 . S
H2080 C2100 0.950 . S
H2081 C2101 0.950 . S
H2082 C2103 0.950 . S
H2083 C2106 0.950 . S
H2084 C2107 0.950 . S
H2085 C2109 0.950 . S
H2086 C2110 0.950 . S
H2087 C2111 0.951 . S
H2088 C2113 0.951 . S
H2089 C2115 0.950 . S
H2090 C2116 0.950 . S
H2091 C2118 0.950 . S
H2092 C2121 0.950 . S
H2093 C2122 0.950 . S
H2094 C2124 0.950 . S
H2095 C2125 0.950 . S
C2096 H2078 0.951 . S
C2096 C2097 1.366 . S
C2096 C2098 1.388 . S
C2097 C2096 1.366 . S
C2097 C2101 1.385 1_565 S
C2098 H2079 0.951 . S
C2098 C2096 1.388 . S
C2098 C2099 1.366 . S
C2099 C2098 1.366 . S
C2099 C2100 1.414 1_565 S
C2099 C2102 1.499 . S
C2100 H2080 0.950 . S
C2100 C2099 1.414 1_545 S
C2100 C2101 1.374 . S
C2101 H2081 0.950 . S
C2101 C2097 1.385 1_545 S
C2101 C2100 1.374 . S
C2102 C2099 1.499 . S
C2102 C2103 1.373 1_565 S
C2102 C2104 1.389 . S
C2103 H2082 0.950 . S
C2103 C2102 1.373 1_545 S
C2103 C2119 1.377 . S
C2104 C2102 1.389 . S
C2104 C2105 1.524 . S
C2104 C2118 1.377 . S
C2105 C2104 1.524 . S
C2105 C2106 1.397 . S
C2105 C2110 1.363 . S
C2106 H2083 0.950 . S
C2106 C2105 1.397 . S
C2106 C2107 1.334 . S
C2107 H2084 0.950 . S
C2107 C2106 1.334 . S
C2107 C2108 1.287 . S
C2108 C2107 1.287 . S
C2108 C2109 1.524 . S
C2108 H2127 0.913 . S
C2109 H2085 0.950 . S
C2109 C2108 1.524 . S
C2109 C2110 1.415 . S
C2110 H2086 0.950 . S
C2110 C2105 1.363 . S
C2110 C2109 1.415 . S
C2111 H2087 0.951 . S
C2111 C2112 1.366 1_545 S
C2111 C2113 1.388 . S
C2112 C2111 1.366 1_565 S
C2112 C2116 1.385 . S
C2113 H2088 0.951 . S
C2113 C2111 1.388 . S
C2113 C2114 1.366 1_545 S
C2114 C2113 1.366 1_565 S
C2114 C2115 1.414 . S
C2114 C2117 1.499 . S
C2115 H2089 0.950 . S
C2115 C2114 1.414 . S
C2115 C2116 1.374 . S
C2116 H2090 0.950 . S
C2116 C2112 1.385 . S
C2116 C2115 1.374 . S
C2117 C2114 1.499 . S
C2117 C2118 1.373 . S
C2117 C2119 1.389 1_565 S
C2118 H2091 0.950 . S
C2118 C2104 1.377 . S
C2118 C2117 1.373 . S
C2119 C2103 1.377 . S
C2119 C2117 1.389 1_545 S
C2119 C2120 1.524 . S
C2120 C2119 1.524 . S
C2120 C2121 1.397 . S
C2120 C2125 1.363 . S
C2121 H2092 0.950 . S
C2121 C2120 1.397 . S
C2121 C2122 1.334 . S
C2122 H2093 0.950 . S
C2122 C2121 1.334 . S
C2122 C2123 1.287 . S
C2123 C2122 1.287 . S
C2123 C2124 1.524 . S
C2123 H2126 0.999 . S
C2124 H2094 0.950 . S
C2124 C2123 1.524 . S
C2124 C2125 1.415 . S
C2125 H2095 0.950 . S
C2125 C2120 1.363 . S
C2125 C2124 1.415 . S
H2126 C2123 0.999 . S
H2127 C2108 0.913 . S
H2128 C2146 0.951 . S
H2129 C2148 0.951 . S
H2130 C2150 0.950 . S
H2131 C2151 0.950 . S
H2132 C2153 0.950 . S
H2133 C2156 0.950 . S
H2134 C2157 0.950 . S
H2135 C2159 0.950 . S
H2136 C2160 0.950 . S
H2137 C2161 0.951 . S
H2138 C2163 0.951 . S
H2139 C2165 0.950 . S
H2140 C2166 0.950 . S
H2141 C2168 0.950 . S
H2142 C2171 0.950 . S
H2143 C2172 0.950 . S
H2144 C2174 0.950 . S
H2145 C2175 0.950 . S
C2146 H2128 0.951 . S
C2146 C2147 1.366 . S
C2146 C2148 1.388 . S
C2147 C2146 1.366 . S
C2147 C2151 1.385 . S
C2148 H2129 0.951 . S
C2148 C2146 1.388 . S
C2148 C2149 1.366 . S
C2149 C2148 1.366 . S
C2149 C2150 1.414 . S
C2149 C2152 1.499 . S
C2150 H2130 0.950 . S
C2150 C2149 1.414 . S
C2150 C2151 1.374 . S
C2151 H2131 0.950 . S
C2151 C2147 1.385 . S
C2151 C2150 1.374 . S
C2152 C2149 1.499 . S
C2152 C2153 1.373 . S
C2152 C2154 1.389 . S
C2153 H2132 0.950 . S
C2153 C2152 1.373 . S
C2153 C2169 1.377 . S
C2154 C2152 1.389 . S
C2154 C2155 1.524 . S
C2154 C2168 1.377 . S
C2155 C2154 1.524 . S
C2155 C2156 1.397 . S
C2155 C2160 1.363 . S
C2156 H2133 0.950 . S
C2156 C2155 1.397 . S
C2156 C2157 1.334 . S
C2157 H2134 0.950 . S
C2157 C2156 1.334 . S
C2157 C2158 1.287 . S
C2158 C2157 1.287 . S
C2158 C2159 1.524 . S
C2158 H2177 0.913 . S
C2159 H2135 0.950 . S
C2159 C2158 1.524 . S
C2159 C2160 1.415 . S
C2160 H2136 0.950 . S
C2160 C2155 1.363 . S
C2160 C2159 1.415 . S
C2161 H2137 0.951 . S
C2161 C2162 1.366 . S
C2161 C2163 1.388 . S
C2162 C2161 1.366 . S
C2162 C2166 1.385 . S
C2163 H2138 0.951 . S
C2163 C2161 1.388 . S
C2163 C2164 1.366 . S
C2164 C2163 1.366 . S
C2164 C2165 1.414 . S
C2164 C2167 1.499 . S
C2165 H2139 0.950 . S
C2165 C2164 1.414 . S
C2165 C2166 1.374 . S
C2166 H2140 0.950 . S
C2166 C2162 1.385 . S
C2166 C2165 1.374 . S
C2167 C2164 1.499 . S
C2167 C2168 1.373 . S
C2167 C2169 1.389 . S
C2168 H2141 0.950 . S
C2168 C2154 1.377 . S
C2168 C2167 1.373 . S
C2169 C2153 1.377 . S
C2169 C2167 1.389 . S
C2169 C2170 1.524 . S
C2170 C2169 1.524 . S
C2170 C2171 1.397 . S
C2170 C2175 1.363 . S
C2171 H2142 0.950 . S
C2171 C2170 1.397 . S
C2171 C2172 1.334 . S
C2172 H2143 0.950 . S
C2172 C2171 1.334 . S
C2172 C2173 1.287 . S
C2173 C2172 1.287 . S
C2173 C2174 1.524 . S
C2173 H2176 0.999 . S
C2174 H2144 0.950 . S
C2174 C2173 1.524 . S
C2174 C2175 1.415 . S
C2175 H2145 0.950 . S
C2175 C2170 1.363 . S
C2175 C2174 1.415 . S
H2176 C2173 0.999 . S
H2177 C2158 0.913 . S
H2178 C2196 0.951 . S
H2179 C2198 0.951 . S
H2180 C2200 0.950 . S
H2181 C2201 0.950 . S
H2182 C2203 0.950 . S
H2183 C2206 0.950 . S
H2184 C2207 0.950 . S
H2185 C2209 0.950 . S
H2186 C2210 0.950 . S
H2187 C2211 0.951 . S
H2188 C2213 0.951 . S
H2189 C2215 0.950 . S
H2190 C2216 0.950 . S
H2191 C2218 0.950 . S
H2192 C2221 0.950 . S
H2193 C2222 0.950 . S
H2194 C2224 0.950 . S
H2195 C2225 0.950 . S
C2196 H2178 0.951 . S
C2196 C2197 1.366 . S
C2196 C2198 1.388 . S
C2197 C2196 1.366 . S
C2197 C2201 1.385 . S
C2198 H2179 0.951 . S
C2198 C2196 1.388 . S
C2198 C2199 1.366 . S
C2199 C2198 1.366 . S
C2199 C2200 1.414 . S
C2199 C2202 1.499 . S
C2200 H2180 0.950 . S
C2200 C2199 1.414 . S
C2200 C2201 1.374 . S
C2201 H2181 0.950 . S
C2201 C2197 1.385 . S
C2201 C2200 1.374 . S
C2202 C2199 1.499 . S
C2202 C2203 1.373 . S
C2202 C2204 1.389 . S
C2203 H2182 0.950 . S
C2203 C2202 1.373 . S
C2203 C2219 1.377 . S
C2204 C2202 1.389 . S
C2204 C2205 1.524 . S
C2204 C2218 1.377 . S
C2205 C2204 1.524 . S
C2205 C2206 1.397 . S
C2205 C2210 1.363 . S
C2206 H2183 0.950 . S
C2206 C2205 1.397 . S
C2206 C2207 1.334 . S
C2207 H2184 0.950 . S
C2207 C2206 1.334 . S
C2207 C2208 1.287 . S
C2208 C2207 1.287 . S
C2208 C2209 1.524 . S
C2208 H2227 0.913 . S
C2209 H2185 0.950 . S
C2209 C2208 1.524 . S
C2209 C2210 1.415 . S
C2210 H2186 0.950 . S
C2210 C2205 1.363 . S
C2210 C2209 1.415 . S
C2211 H2187 0.951 . S
C2211 C2212 1.366 . S
C2211 C2213 1.388 . S
C2212 C2211 1.366 . S
C2212 C2216 1.385 . S
C2213 H2188 0.951 . S
C2213 C2211 1.388 . S
C2213 C2214 1.366 . S
C2214 C2213 1.366 . S
C2214 C2215 1.414 . S
C2214 C2217 1.499 . S
C2215 H2189 0.950 . S
C2215 C2214 1.414 . S
C2215 C2216 1.374 . S
C2216 H2190 0.950 . S
C2216 C2212 1.385 . S
C2216 C2215 1.374 . S
C2217 C2214 1.499 . S
C2217 C2218 1.373 . S
C2217 C2219 1.389 . S
C2218 H2191 0.950 . S
C2218 C2204 1.377 . S
C2218 C2217 1.373 . S
C2219 C2203 1.377 . S
C2219 C2217 1.389 . S
C2219 C2220 1.524 . S
C2220 C2219 1.524 . S
C2220 C2221 1.397 . S
C2220 C2225 1.363 . S
C2221 H2192 0.950 . S
C2221 C2220 1.397 . S
C2221 C2222 1.334 . S
C2222 H2193 0.950 . S
C2222 C2221 1.334 . S
C2222 C2223 1.287 . S
C2223 C2222 1.287 . S
C2223 C2224 1.524 . S
C2223 H2226 0.999 . S
C2224 H2194 0.950 . S
C2224 C2223 1.524 . S
C2224 C2225 1.415 . S
C2225 H2195 0.950 . S
C2225 C2220 1.363 . S
C2225 C2224 1.415 . S
H2226 C2223 0.999 . S
H2227 C2208 0.913 . S
H2228 C2246 0.951 . S
H2229 C2248 0.951 . S
H2230 C2250 0.950 . S
H2231 C2251 0.950 . S
H2232 C2253 0.950 . S
H2233 C2256 0.950 . S
H2234 C2257 0.950 . S
H2235 C2259 0.950 . S
H2236 C2260 0.950 . S
H2237 C2261 0.951 . S
H2238 C2263 0.951 . S
H2239 C2265 0.950 . S
H2240 C2266 0.950 . S
H2241 C2268 0.950 . S
H2242 C2271 0.950 . S
H2243 C2272 0.950 . S
H2244 C2274 0.950 . S
H2245 C2275 0.950 . S
C2246 H2228 0.951 . S
C2246 C2247 1.366 . S
C2246 C2248 1.388 . S
C2247 C2246 1.366 . S
C2247 C2251 1.385 . S
C2248 H2229 0.951 . S
C2248 C2246 1.388 . S
C2248 C2249 1.366 . S
C2249 C2248 1.366 . S
C2249 C2250 1.414 . S
C2249 C2252 1.499 . S
C2250 H2230 0.950 . S
C2250 C2249 1.414 . S
C2250 C2251 1.374 . S
C2251 H2231 0.950 . S
C2251 C2247 1.385 . S
C2251 C2250 1.374 . S
C2252 C2249 1.499 . S
C2252 C2253 1.373 . S
C2252 C2254 1.389 . S
C2253 H2232 0.950 . S
C2253 C2252 1.373 . S
C2253 C2269 1.377 . S
C2254 C2252 1.389 . S
C2254 C2255 1.524 . S
C2254 C2268 1.377 . S
C2255 C2254 1.524 . S
C2255 C2256 1.397 . S
C2255 C2260 1.363 . S
C2256 H2233 0.950 . S
C2256 C2255 1.397 . S
C2256 C2257 1.334 . S
C2257 H2234 0.950 . S
C2257 C2256 1.334 . S
C2257 C2258 1.287 . S
C2258 C2257 1.287 . S
C2258 C2259 1.524 . S
C2258 H2277 0.913 . S
C2259 H2235 0.950 . S
C2259 C2258 1.524 . S
C2259 C2260 1.415 . S
C2260 H2236 0.950 . S
C2260 C2255 1.363 . S
C2260 C2259 1.415 . S
C2261 H2237 0.951 . S
C2261 C2262 1.366 . S
C2261 C2263 1.388 . S
C2262 C2261 1.366 . S
C2262 C2266 1.385 . S
C2263 H2238 0.951 . S
C2263 C2261 1.388 . S
C2263 C2264 1.366 . S
C2264 C2263 1.366 . S
C2264 C2265 1.414 . S
C2264 C2267 1.499 . S
C2265 H2239 0.950 . S
C2265 C2264 1.414 . S
C2265 C2266 1.374 . S
C2266 H2240 0.950 . S
C2266 C2262 1.385 . S
C2266 C2265 1.374 . S
C2267 C2264 1.499 . S
C2267 C2268 1.373 . S
C2267 C2269 1.389 . S
C2268 H2241 0.950 . S
C2268 C2254 1.377 . S
C2268 C2267 1.373 . S
C2269 C2253 1.377 . S
C2269 C2267 1.389 . S
C2269 C2270 1.524 . S
C2270 C2269 1.524 . S
C2270 C2271 1.397 . S
C2270 C2275 1.363 . S
C2271 H2242 0.950 . S
C2271 C2270 1.397 . S
C2271 C2272 1.334 . S
C2272 H2243 0.950 . S
C2272 C2271 1.334 . S
C2272 C2273 1.287 . S
C2273 C2272 1.287 . S
C2273 C2274 1.524 . S
C2273 H2276 0.999 . S
C2274 H2244 0.950 . S
C2274 C2273 1.524 . S
C2274 C2275 1.415 . S
C2275 H2245 0.950 . S
C2275 C2270 1.363 . S
C2275 C2274 1.415 . S
H2276 C2273 0.999 . S
H2277 C2258 0.913 . S
H2278 C2296 0.951 . S
H2279 C2298 0.951 . S
H2280 C2300 0.950 . S
H2281 C2301 0.950 . S
H2282 C2303 0.950 . S
H2283 C2306 0.932 1_455 S
H2284 C2307 0.950 1_455 S
H2285 C2309 0.950 . S
H2286 C2310 0.950 . S
H2287 C2311 0.951 . S
H2288 C2313 0.951 . S
H2289 C2315 0.950 . S
H2290 C2316 0.950 . S
H2291 C2318 0.950 . S
H2292 C2321 0.950 . S
H2293 C2322 0.950 1_655 S
H2294 C2324 0.950 . S
H2295 C2325 0.950 . S
C2296 H2278 0.951 . S
C2296 C2297 1.366 1_655 S
C2296 C2298 1.388 . S
C2297 C2296 1.366 1_455 S
C2297 C2301 1.385 . S
C2298 H2279 0.951 . S
C2298 C2296 1.388 . S
C2298 C2299 1.325 1_655 S
C2299 C2298 1.325 1_455 S
C2299 C2300 1.451 . S
C2299 C2302 1.499 . S
C2300 H2280 0.950 . S
C2300 C2299 1.451 . S
C2300 C2301 1.374 . S
C2301 H2281 0.950 . S
C2301 C2297 1.385 . S
C2301 C2300 1.374 . S
C2302 C2299 1.499 . S
C2302 C2303 1.390 . S
C2302 C2304 1.375 1_455 S
C2303 H2282 0.950 . S
C2303 C2302 1.390 . S
C2303 C2319 1.377 . S
C2304 C2302 1.375 1_655 S
C2304 C2305 1.524 . S
C2304 C2318 1.377 . S
C2305 C2304 1.524 . S
C2305 C2306 1.409 . S
C2305 C2310 1.363 . S
C2306 H2283 0.932 1_655 S
C2306 C2305 1.409 . S
C2306 C2307 1.339 . S
C2307 H2284 0.950 1_655 S
C2307 C2306 1.339 . S
C2307 C2308 1.287 . S
C2308 C2307 1.287 . S
C2308 C2309 1.524 . S
C2308 H2327 0.913 . S
C2309 H2285 0.950 . S
C2309 C2308 1.524 . S
C2309 C2310 1.415 . S
C2310 H2286 0.950 . S
C2310 C2305 1.363 . S
C2310 C2309 1.415 . S
C2311 H2287 0.951 . S
C2311 C2312 1.366 1_455 S
C2311 C2313 1.388 . S
C2312 C2311 1.366 1_655 S
C2312 C2316 1.385 . S
C2313 H2288 0.951 . S
C2313 C2311 1.388 . S
C2313 C2314 1.366 1_455 S
C2314 C2313 1.366 1_655 S
C2314 C2315 1.414 . S
C2314 C2317 1.499 . S
C2315 H2289 0.950 . S
C2315 C2314 1.414 . S
C2315 C2316 1.374 . S
C2316 H2290 0.950 . S
C2316 C2312 1.385 . S
C2316 C2315 1.374 . S
C2317 C2314 1.499 . S
C2317 C2318 1.373 . S
C2317 C2319 1.389 1_655 S
C2318 H2291 0.950 . S
C2318 C2304 1.377 . S
C2318 C2317 1.373 . S
C2319 C2303 1.377 . S
C2319 C2317 1.389 1_455 S
C2319 C2320 1.524 . S
C2320 C2319 1.524 . S
C2320 C2321 1.397 1_455 S
C2320 C2325 1.363 . S
C2321 H2292 0.950 . S
C2321 C2320 1.397 1_655 S
C2321 C2322 1.334 1_655 S
C2322 H2293 0.950 1_455 S
C2322 C2321 1.334 1_455 S
C2322 C2323 1.287 . S
C2323 C2322 1.287 . S
C2323 C2324 1.524 . S
C2323 H2326 0.999 . S
C2324 H2294 0.950 . S
C2324 C2323 1.524 . S
C2324 C2325 1.415 . S
C2325 H2295 0.950 . S
C2325 C2320 1.363 . S
C2325 C2324 1.415 . S
H2326 C2323 0.999 . S
H2327 C2308 0.913 . S
H2328 C2346 0.951 . S
H2329 C2348 0.951 . S
H2330 C2350 0.950 . S
H2331 C2351 0.950 . S
H2332 C2353 0.950 . S
H2333 C2356 0.950 . S
H2334 C2357 0.950 . S
H2335 C2359 0.950 . S
H2336 C2360 0.950 . S
H2337 C2361 0.951 . S
H2338 C2363 0.951 . S
H2339 C2365 0.950 . S
H2340 C2366 0.950 . S
H2341 C2368 0.950 . S
H2342 C2371 0.950 . S
H2343 C2372 0.950 . S
H2344 C2374 0.950 1_655 S
H2345 C2375 0.950 . S
C2346 H2328 0.951 . S
C2346 C2347 1.366 . S
C2346 C2348 1.388 . S
C2347 C2346 1.366 . S
C2347 C2351 1.385 . S
C2348 H2329 0.951 . S
C2348 C2346 1.388 . S
C2348 C2349 1.366 . S
C2349 C2348 1.366 . S
C2349 C2350 1.414 . S
C2349 C2352 1.499 . S
C2350 H2330 0.950 . S
C2350 C2349 1.414 . S
C2350 C2351 1.374 . S
C2351 H2331 0.950 . S
C2351 C2347 1.385 . S
C2351 C2350 1.374 . S
C2352 C2349 1.499 . S
C2352 C2353 1.373 . S
C2352 C2354 1.389 . S
C2353 H2332 0.950 . S
C2353 C2352 1.373 . S
C2353 C2369 1.377 . S
C2354 C2352 1.389 . S
C2354 C2355 1.524 . S
C2354 C2368 1.377 . S
C2355 C2354 1.524 . S
C2355 C2356 1.397 . S
C2355 C2360 1.363 . S
C2356 H2333 0.950 . S
C2356 C2355 1.397 . S
C2356 C2357 1.334 . S
C2357 H2334 0.950 . S
C2357 C2356 1.334 . S
C2357 C2358 1.287 . S
C2358 C2357 1.287 . S
C2358 C2359 1.524 . S
C2358 H2377 0.913 . S
C2359 H2335 0.950 . S
C2359 C2358 1.524 . S
C2359 C2360 1.415 . S
C2360 H2336 0.950 . S
C2360 C2355 1.363 . S
C2360 C2359 1.415 . S
C2361 H2337 0.951 . S
C2361 C2362 1.366 . S
C2361 C2363 1.388 . S
C2362 C2361 1.366 . S
C2362 C2366 1.385 . S
C2363 H2338 0.951 . S
C2363 C2361 1.388 . S
C2363 C2364 1.366 . S
C2364 C2363 1.366 . S
C2364 C2365 1.414 . S
C2364 C2367 1.499 . S
C2365 H2339 0.950 . S
C2365 C2364 1.414 . S
C2365 C2366 1.374 . S
C2366 H2340 0.950 . S
C2366 C2362 1.385 . S
C2366 C2365 1.374 . S
C2367 C2364 1.499 . S
C2367 C2368 1.373 . S
C2367 C2369 1.389 . S
C2368 H2341 0.950 . S
C2368 C2354 1.377 . S
C2368 C2367 1.373 . S
C2369 C2353 1.377 . S
C2369 C2367 1.389 . S
C2369 C2370 1.524 . S
C2370 C2369 1.524 . S
C2370 C2371 1.397 . S
C2370 C2375 1.363 . S
C2371 H2342 0.950 . S
C2371 C2370 1.397 . S
C2371 C2372 1.334 1_455 S
C2372 H2343 0.950 . S
C2372 C2371 1.334 1_655 S
C2372 C2373 1.287 . S
C2373 C2372 1.287 . S
C2373 C2374 1.524 1_655 S
C2373 H2376 0.999 . S
C2374 H2344 0.950 1_455 S
C2374 C2373 1.524 1_455 S
C2374 C2375 1.415 . S
C2375 H2345 0.950 . S
C2375 C2370 1.363 . S
C2375 C2374 1.415 . S
H2376 C2373 0.999 . S
H2377 C2358 0.913 . S
H2378 C2396 0.951 . S
H2379 C2398 0.951 . S
H2380 C2400 0.950 . S
H2381 C2401 0.950 . S
H2382 C2403 0.950 . S
H2383 C2406 0.950 . S
H2384 C2407 0.950 . S
H2385 C2409 0.950 . S
H2386 C2410 0.950 . S
H2387 C2411 0.951 . S
H2388 C2413 0.951 . S
H2389 C2415 0.950 . S
H2390 C2416 0.950 . S
H2391 C2418 0.950 . S
H2392 C2421 0.950 . S
H2393 C2422 0.950 . S
H2394 C2424 0.950 . S
H2395 C2425 0.950 . S
C2396 H2378 0.951 . S
C2396 C2397 1.366 . S
C2396 C2398 1.388 . S
C2397 C2396 1.366 . S
C2397 C2401 1.385 . S
C2398 H2379 0.951 . S
C2398 C2396 1.388 . S
C2398 C2399 1.366 . S
C2399 C2398 1.366 . S
C2399 C2400 1.414 . S
C2399 C2402 1.499 . S
C2400 H2380 0.950 . S
C2400 C2399 1.414 . S
C2400 C2401 1.374 . S
C2401 H2381 0.950 . S
C2401 C2397 1.385 . S
C2401 C2400 1.374 . S
C2402 C2399 1.499 . S
C2402 C2403 1.373 . S
C2402 C2404 1.389 . S
C2403 H2382 0.950 . S
C2403 C2402 1.373 . S
C2403 C2419 1.377 . S
C2404 C2402 1.389 . S
C2404 C2405 1.524 . S
C2404 C2418 1.377 . S
C2405 C2404 1.524 . S
C2405 C2406 1.397 . S
C2405 C2410 1.363 . S
C2406 H2383 0.950 . S
C2406 C2405 1.397 . S
C2406 C2407 1.334 . S
C2407 H2384 0.950 . S
C2407 C2406 1.334 . S
C2407 C2408 1.287 . S
C2408 C2407 1.287 . S
C2408 C2409 1.524 . S
C2408 H2427 0.913 . S
C2409 H2385 0.950 . S
C2409 C2408 1.524 . S
C2409 C2410 1.415 . S
C2410 H2386 0.950 . S
C2410 C2405 1.363 . S
C2410 C2409 1.415 . S
C2411 H2387 0.951 . S
C2411 C2412 1.366 . S
C2411 C2413 1.388 . S
C2412 C2411 1.366 . S
C2412 C2416 1.385 . S
C2413 H2388 0.951 . S
C2413 C2411 1.388 . S
C2413 C2414 1.366 . S
C2414 C2413 1.366 . S
C2414 C2415 1.414 . S
C2414 C2417 1.499 . S
C2415 H2389 0.950 . S
C2415 C2414 1.414 . S
C2415 C2416 1.374 . S
C2416 H2390 0.950 . S
C2416 C2412 1.385 . S
C2416 C2415 1.374 . S
C2417 C2414 1.499 . S
C2417 C2418 1.373 . S
C2417 C2419 1.389 . S
C2418 H2391 0.950 . S
C2418 C2404 1.377 . S
C2418 C2417 1.373 . S
C2419 C2403 1.377 . S
C2419 C2417 1.389 . S
C2419 C2420 1.524 . S
C2420 C2419 1.524 . S
C2420 C2421 1.397 . S
C2420 C2425 1.363 . S
C2421 H2392 0.950 . S
C2421 C2420 1.397 . S
C2421 C2422 1.334 . S
C2422 H2393 0.950 . S
C2422 C2421 1.334 . S
C2422 C2423 1.287 . S
C2423 C2422 1.287 . S
C2423 C2424 1.524 . S
C2423 H2426 0.999 . S
C2424 H2394 0.950 . S
C2424 C2423 1.524 . S
C2424 C2425 1.415 . S
C2425 H2395 0.950 . S
C2425 C2420 1.363 . S
C2425 C2424 1.415 . S
H2426 C2423 0.999 . S
H2427 C2408 0.913 . S
H2428 C2446 0.951 . S
H2429 C2448 0.951 . S
H2430 C2450 0.950 . S
H2431 C2451 0.950 . S
H2432 C2453 0.950 . S
H2433 C2456 0.950 . S
H2434 C2457 0.950 . S
H2435 C2459 0.950 . S
H2436 C2460 0.950 . S
H2437 C2461 0.951 . S
H2438 C2463 0.951 . S
H2439 C2465 0.950 . S
H2440 C2466 0.950 . S
H2441 C2468 0.950 . S
H2442 C2471 0.950 . S
H2443 C2472 0.950 . S
H2444 C2474 0.950 . S
H2445 C2475 0.950 . S
C2446 H2428 0.951 . S
C2446 C2447 1.366 . S
C2446 C2448 1.388 . S
C2447 C2446 1.366 . S
C2447 C2451 1.385 . S
C2448 H2429 0.951 . S
C2448 C2446 1.388 . S
C2448 C2449 1.366 . S
C2449 C2448 1.366 . S
C2449 C2450 1.414 . S
C2449 C2452 1.499 . S
C2450 H2430 0.950 . S
C2450 C2449 1.414 . S
C2450 C2451 1.374 . S
C2451 H2431 0.950 . S
C2451 C2447 1.385 . S
C2451 C2450 1.374 . S
C2452 C2449 1.499 . S
C2452 C2453 1.373 . S
C2452 C2454 1.389 . S
C2453 H2432 0.950 . S
C2453 C2452 1.373 . S
C2453 C2469 1.377 . S
C2454 C2452 1.389 . S
C2454 C2455 1.524 . S
C2454 C2468 1.377 . S
C2455 C2454 1.524 . S
C2455 C2456 1.397 . S
C2455 C2460 1.363 . S
C2456 H2433 0.950 . S
C2456 C2455 1.397 . S
C2456 C2457 1.334 . S
C2457 H2434 0.950 . S
C2457 C2456 1.334 . S
C2457 C2458 1.287 . S
C2458 C2457 1.287 . S
C2458 C2459 1.524 . S
C2458 H2477 0.913 . S
C2459 H2435 0.950 . S
C2459 C2458 1.524 . S
C2459 C2460 1.415 . S
C2460 H2436 0.950 . S
C2460 C2455 1.363 . S
C2460 C2459 1.415 . S
C2461 H2437 0.951 . S
C2461 C2462 1.366 . S
C2461 C2463 1.388 . S
C2462 C2461 1.366 . S
C2462 C2466 1.385 . S
C2463 H2438 0.951 . S
C2463 C2461 1.388 . S
C2463 C2464 1.366 . S
C2464 C2463 1.366 . S
C2464 C2465 1.414 . S
C2464 C2467 1.499 . S
C2465 H2439 0.950 . S
C2465 C2464 1.414 . S
C2465 C2466 1.374 . S
C2466 H2440 0.950 . S
C2466 C2462 1.385 . S
C2466 C2465 1.374 . S
C2467 C2464 1.499 . S
C2467 C2468 1.373 . S
C2467 C2469 1.389 . S
C2468 H2441 0.950 . S
C2468 C2454 1.377 . S
C2468 C2467 1.373 . S
C2469 C2453 1.377 . S
C2469 C2467 1.389 . S
C2469 C2470 1.524 . S
C2470 C2469 1.524 . S
C2470 C2471 1.397 . S
C2470 C2475 1.363 . S
C2471 H2442 0.950 . S
C2471 C2470 1.397 . S
C2471 C2472 1.334 . S
C2472 H2443 0.950 . S
C2472 C2471 1.334 . S
C2472 C2473 1.287 . S
C2473 C2472 1.287 . S
C2473 C2474 1.524 . S
C2473 H2476 0.999 . S
C2474 H2444 0.950 . S
C2474 C2473 1.524 . S
C2474 C2475 1.415 . S
C2475 H2445 0.950 . S
C2475 C2470 1.363 . S
C2475 C2474 1.415 . S
H2476 C2473 0.999 . S
H2477 C2458 0.913 . S
H2478 C2496 0.951 . S
H2479 C2498 0.951 . S
H2480 C2500 0.950 . S
H2481 C2501 0.950 . S
H2482 C2503 0.950 . S
H2483 C2506 0.950 . S
H2484 C2507 0.950 . S
H2485 C2509 0.950 . S
H2486 C2510 0.950 . S
H2487 C2511 0.951 . S
H2488 C2513 0.951 . S
H2489 C2515 0.950 . S
H2490 C2516 0.950 . S
H2491 C2518 0.950 . S
H2492 C2521 0.950 . S
H2493 C2522 0.950 . S
H2494 C2524 0.950 . S
H2495 C2525 0.950 . S
C2496 H2478 0.951 . S
C2496 C2497 1.366 . S
C2496 C2498 1.388 . S
C2497 C2496 1.366 . S
C2497 C2501 1.385 . S
C2498 H2479 0.951 . S
C2498 C2496 1.388 . S
C2498 C2499 1.366 . S
C2499 C2498 1.366 . S
C2499 C2500 1.414 . S
C2499 C2502 1.499 . S
C2500 H2480 0.950 . S
C2500 C2499 1.414 . S
C2500 C2501 1.374 . S
C2501 H2481 0.950 . S
C2501 C2497 1.385 . S
C2501 C2500 1.374 . S
C2502 C2499 1.499 . S
C2502 C2503 1.373 . S
C2502 C2504 1.389 . S
C2503 H2482 0.950 . S
C2503 C2502 1.373 . S
C2503 C2519 1.377 . S
C2504 C2502 1.389 . S
C2504 C2505 1.524 . S
C2504 C2518 1.377 . S
C2505 C2504 1.524 . S
C2505 C2506 1.397 . S
C2505 C2510 1.363 . S
C2506 H2483 0.950 . S
C2506 C2505 1.397 . S
C2506 C2507 1.334 . S
C2507 H2484 0.950 . S
C2507 C2506 1.334 . S
C2507 C2508 1.287 . S
C2508 C2507 1.287 . S
C2508 C2509 1.524 . S
C2508 H2527 0.913 . S
C2509 H2485 0.950 . S
C2509 C2508 1.524 . S
C2509 C2510 1.415 . S
C2510 H2486 0.950 . S
C2510 C2505 1.363 . S
C2510 C2509 1.415 . S
C2511 H2487 0.951 . S
C2511 C2512 1.366 . S
C2511 C2513 1.388 . S
C2512 C2511 1.366 . S
C2512 C2516 1.385 . S
C2513 H2488 0.951 . S
C2513 C2511 1.388 . S
C2513 C2514 1.366 . S
C2514 C2513 1.366 . S
C2514 C2515 1.414 . S
C2514 C2517 1.499 . S
C2515 H2489 0.950 . S
C2515 C2514 1.414 . S
C2515 C2516 1.374 . S
C2516 H2490 0.950 . S
C2516 C2512 1.385 . S
C2516 C2515 1.374 . S
C2517 C2514 1.499 . S
C2517 C2518 1.373 . S
C2517 C2519 1.389 . S
C2518 H2491 0.950 . S
C2518 C2504 1.377 . S
C2518 C2517 1.373 . S
C2519 C2503 1.377 . S
C2519 C2517 1.389 . S
C2519 C2520 1.524 . S
C2520 C2519 1.524 . S
C2520 C2521 1.397 . S
C2520 C2525 1.363 . S
C2521 H2492 0.950 . S
C2521 C2520 1.397 . S
C2521 C2522 1.334 . S
C2522 H2493 0.950 . S
C2522 C2521 1.334 . S
C2522 C2523 1.287 . S
C2523 C2522 1.287 . S
C2523 C2524 1.524 . S
C2523 H2526 0.999 . S
C2524 H2494 0.950 . S
C2524 C2523 1.524 . S
C2524 C2525 1.415 . S
C2525 H2495 0.950 . S
C2525 C2520 1.363 . S
C2525 C2524 1.415 . S
H2526 C2523 0.999 . S
H2527 C2508 0.913 . S
H2528 C2546 0.951 . S
H2529 C2548 0.951 . S
H2530 C2550 0.950 . S
H2531 C2551 0.950 . S
H2532 C2553 0.950 . S
H2533 C2556 0.950 . S
H2534 C2557 0.950 . S
H2535 C2559 0.950 . S
H2536 C2560 0.950 . S
H2537 C2561 0.951 . S
H2538 C2563 0.951 . S
H2539 C2565 0.950 . S
H2540 C2566 0.950 . S
H2541 C2568 0.950 . S
H2542 C2571 0.950 . S
H2543 C2572 0.950 . S
H2544 C2574 0.950 . S
H2545 C2575 0.950 . S
C2546 H2528 0.951 . S
C2546 C2547 1.366 . S
C2546 C2548 1.388 . S
C2547 C2546 1.366 . S
C2547 C2551 1.385 . S
C2548 H2529 0.951 . S
C2548 C2546 1.388 . S
C2548 C2549 1.366 . S
C2549 C2548 1.366 . S
C2549 C2550 1.414 . S
C2549 C2552 1.499 . S
C2550 H2530 0.950 . S
C2550 C2549 1.414 . S
C2550 C2551 1.374 . S
C2551 H2531 0.950 . S
C2551 C2547 1.385 . S
C2551 C2550 1.374 . S
C2552 C2549 1.499 . S
C2552 C2553 1.373 . S
C2552 C2554 1.389 . S
C2553 H2532 0.950 . S
C2553 C2552 1.373 . S
C2553 C2569 1.377 . S
C2554 C2552 1.389 . S
C2554 C2555 1.524 . S
C2554 C2568 1.377 . S
C2555 C2554 1.524 . S
C2555 C2556 1.397 . S
C2555 C2560 1.363 . S
C2556 H2533 0.950 . S
C2556 C2555 1.397 . S
C2556 C2557 1.334 . S
C2557 H2534 0.950 . S
C2557 C2556 1.334 . S
C2557 C2558 1.287 . S
C2558 C2557 1.287 . S
C2558 C2559 1.524 . S
C2558 H2577 0.913 . S
C2559 H2535 0.950 . S
C2559 C2558 1.524 . S
C2559 C2560 1.415 . S
C2560 H2536 0.950 . S
C2560 C2555 1.363 . S
C2560 C2559 1.415 . S
C2561 H2537 0.951 . S
C2561 C2562 1.366 . S
C2561 C2563 1.388 . S
C2562 C2561 1.366 . S
C2562 C2566 1.385 . S
C2563 H2538 0.951 . S
C2563 C2561 1.388 . S
C2563 C2564 1.366 . S
C2564 C2563 1.366 . S
C2564 C2565 1.414 . S
C2564 C2567 1.499 . S
C2565 H2539 0.950 . S
C2565 C2564 1.414 . S
C2565 C2566 1.374 . S
C2566 H2540 0.950 . S
C2566 C2562 1.385 . S
C2566 C2565 1.374 . S
C2567 C2564 1.499 . S
C2567 C2568 1.373 . S
C2567 C2569 1.389 . S
C2568 H2541 0.950 . S
C2568 C2554 1.377 . S
C2568 C2567 1.373 . S
C2569 C2553 1.377 . S
C2569 C2567 1.389 . S
C2569 C2570 1.524 . S
C2570 C2569 1.524 . S
C2570 C2571 1.397 . S
C2570 C2575 1.363 . S
C2571 H2542 0.950 . S
C2571 C2570 1.397 . S
C2571 C2572 1.334 . S
C2572 H2543 0.950 . S
C2572 C2571 1.334 . S
C2572 C2573 1.287 . S
C2573 C2572 1.287 . S
C2573 C2574 1.524 . S
C2573 H2576 0.999 . S
C2574 H2544 0.950 . S
C2574 C2573 1.524 . S
C2574 C2575 1.415 . S
C2575 H2545 0.950 . S
C2575 C2570 1.363 . S
C2575 C2574 1.415 . S
H2576 C2573 0.999 . S
H2577 C2558 0.913 . S
H2578 C2596 0.951 . S
H2579 C2598 0.951 . S
H2580 C2600 0.950 . S
H2581 C2601 0.950 . S
H2582 C2603 0.950 . S
H2583 C2606 0.950 . S
H2584 C2607 0.950 . S
H2585 C2609 0.950 . S
H2586 C2610 0.950 . S
H2587 C2611 0.951 . S
H2588 C2613 0.951 . S
H2589 C2615 0.950 . S
H2590 C2616 0.950 . S
H2591 C2618 0.950 . S
H2592 C2621 0.950 . S
H2593 C2622 0.950 . S
H2594 C2624 0.950 . S
H2595 C2625 0.950 . S
C2596 H2578 0.951 . S
C2596 C2597 1.366 . S
C2596 C2598 1.388 . S
C2597 C2596 1.366 . S
C2597 C2601 1.385 . S
C2598 H2579 0.951 . S
C2598 C2596 1.388 . S
C2598 C2599 1.366 . S
C2599 C2598 1.366 . S
C2599 C2600 1.414 . S
C2599 C2602 1.499 . S
C2600 H2580 0.950 . S
C2600 C2599 1.414 . S
C2600 C2601 1.374 . S
C2601 H2581 0.950 . S
C2601 C2597 1.385 . S
C2601 C2600 1.374 . S
C2602 C2599 1.499 . S
C2602 C2603 1.373 . S
C2602 C2604 1.389 . S
C2603 H2582 0.950 . S
C2603 C2602 1.373 . S
C2603 C2619 1.377 . S
C2604 C2602 1.389 . S
C2604 C2605 1.524 . S
C2604 C2618 1.377 . S
C2605 C2604 1.524 . S
C2605 C2606 1.397 . S
C2605 C2610 1.363 . S
C2606 H2583 0.950 . S
C2606 C2605 1.397 . S
C2606 C2607 1.334 . S
C2607 H2584 0.950 . S
C2607 C2606 1.334 . S
C2607 C2608 1.287 . S
C2608 C2607 1.287 . S
C2608 C2609 1.524 . S
C2608 H2627 0.913 . S
C2609 H2585 0.950 . S
C2609 C2608 1.524 . S
C2609 C2610 1.415 . S
C2610 H2586 0.950 . S
C2610 C2605 1.363 . S
C2610 C2609 1.415 . S
C2611 H2587 0.951 . S
C2611 C2612 1.366 . S
C2611 C2613 1.388 . S
C2612 C2611 1.366 . S
C2612 C2616 1.385 . S
C2613 H2588 0.951 . S
C2613 C2611 1.388 . S
C2613 C2614 1.366 . S
C2614 C2613 1.366 . S
C2614 C2615 1.414 . S
C2614 C2617 1.499 . S
C2615 H2589 0.950 . S
C2615 C2614 1.414 . S
C2615 C2616 1.374 . S
C2616 H2590 0.950 . S
C2616 C2612 1.385 . S
C2616 C2615 1.374 . S
C2617 C2614 1.499 . S
C2617 C2618 1.373 . S
C2617 C2619 1.389 . S
C2618 H2591 0.950 . S
C2618 C2604 1.377 . S
C2618 C2617 1.373 . S
C2619 C2603 1.377 . S
C2619 C2617 1.389 . S
C2619 C2620 1.524 . S
C2620 C2619 1.524 . S
C2620 C2621 1.397 . S
C2620 C2625 1.363 . S
C2621 H2592 0.950 . S
C2621 C2620 1.397 . S
C2621 C2622 1.334 . S
C2622 H2593 0.950 . S
C2622 C2621 1.334 . S
C2622 C2623 1.287 . S
C2623 C2622 1.287 . S
C2623 C2624 1.524 . S
C2623 H2626 0.999 . S
C2624 H2594 0.950 . S
C2624 C2623 1.524 . S
C2624 C2625 1.415 . S
C2625 H2595 0.950 . S
C2625 C2620 1.363 . S
C2625 C2624 1.415 . S
H2626 C2623 0.999 . S
H2627 C2608 0.913 . S
H2628 C2646 0.951 . S
H2629 C2648 0.951 . S
H2630 C2650 0.950 . S
H2631 C2651 0.950 . S
H2632 C2653 0.950 . S
H2633 C2656 0.950 . S
H2634 C2657 0.950 . S
H2635 C2659 0.950 . S
H2636 C2660 0.950 . S
H2637 C2661 0.951 . S
H2638 C2663 0.951 . S
H2639 C2665 0.950 . S
H2640 C2666 0.950 . S
H2641 C2668 0.950 . S
H2642 C2671 0.950 . S
H2643 C2672 0.950 . S
H2644 C2674 0.950 . S
H2645 C2675 0.950 . S
C2646 H2628 0.951 . S
C2646 C2647 1.366 . S
C2646 C2648 1.388 . S
C2647 C2646 1.366 . S
C2647 C2651 1.385 . S
C2648 H2629 0.951 . S
C2648 C2646 1.388 . S
C2648 C2649 1.366 . S
C2649 C2648 1.366 . S
C2649 C2650 1.414 . S
C2649 C2652 1.499 . S
C2650 H2630 0.950 . S
C2650 C2649 1.414 . S
C2650 C2651 1.374 . S
C2651 H2631 0.950 . S
C2651 C2647 1.385 . S
C2651 C2650 1.374 . S
C2652 C2649 1.499 . S
C2652 C2653 1.373 . S
C2652 C2654 1.389 . S
C2653 H2632 0.950 . S
C2653 C2652 1.373 . S
C2653 C2669 1.377 . S
C2654 C2652 1.389 . S
C2654 C2655 1.524 . S
C2654 C2668 1.377 . S
C2655 C2654 1.524 . S
C2655 C2656 1.397 . S
C2655 C2660 1.363 . S
C2656 H2633 0.950 . S
C2656 C2655 1.397 . S
C2656 C2657 1.334 . S
C2657 H2634 0.950 . S
C2657 C2656 1.334 . S
C2657 C2658 1.287 . S
C2658 C2657 1.287 . S
C2658 C2659 1.524 . S
C2658 H2677 0.913 . S
C2659 H2635 0.950 . S
C2659 C2658 1.524 . S
C2659 C2660 1.415 . S
C2660 H2636 0.950 . S
C2660 C2655 1.363 . S
C2660 C2659 1.415 . S
C2661 H2637 0.951 . S
C2661 C2662 1.366 . S
C2661 C2663 1.388 . S
C2662 C2661 1.366 . S
C2662 C2666 1.385 . S
C2663 H2638 0.951 . S
C2663 C2661 1.388 . S
C2663 C2664 1.366 . S
C2664 C2663 1.366 . S
C2664 C2665 1.414 . S
C2664 C2667 1.499 . S
C2665 H2639 0.950 . S
C2665 C2664 1.414 . S
C2665 C2666 1.374 . S
C2666 H2640 0.950 . S
C2666 C2662 1.385 . S
C2666 C2665 1.374 . S
C2667 C2664 1.499 . S
C2667 C2668 1.373 . S
C2667 C2669 1.389 . S
C2668 H2641 0.950 . S
C2668 C2654 1.377 . S
C2668 C2667 1.373 . S
C2669 C2653 1.377 . S
C2669 C2667 1.389 . S
C2669 C2670 1.524 . S
C2670 C2669 1.524 . S
C2670 C2671 1.397 . S
C2670 C2675 1.363 . S
C2671 H2642 0.950 . S
C2671 C2670 1.397 . S
C2671 C2672 1.334 . S
C2672 H2643 0.950 . S
C2672 C2671 1.334 . S
C2672 C2673 1.287 . S
C2673 C2672 1.287 . S
C2673 C2674 1.524 1_655 S
C2673 H2676 0.999 1_655 S
C2674 H2644 0.950 . S
C2674 C2673 1.524 1_455 S
C2674 C2675 1.415 1_455 S
C2675 H2645 0.950 . S
C2675 C2670 1.363 . S
C2675 C2674 1.415 1_655 S
H2676 C2673 0.999 1_455 S
H2677 C2658 0.913 . S
H2678 C2696 0.972 . S
H2679 C2698 0.951 1_554 S
H2680 C2700 0.950 . S
H2681 C2701 0.950 . S
H2682 C2703 0.950 . S
H2683 C2706 0.950 . S
H2684 C2707 0.950 . S
H2685 C2709 0.950 . S
H2686 C2710 0.950 . S
H2687 C2711 0.951 . S
H2688 C2713 0.951 . S
H2689 C2715 0.950 . S
H2690 C2716 0.950 . S
H2691 C2718 0.950 . S
H2692 C2721 0.952 1_554 S
H2693 C2722 0.950 . S
H2694 C2724 0.950 . S
H2695 C2725 0.950 . S
C2696 H2678 0.972 . S
C2696 C2697 1.366 . S
C2696 C2698 1.388 . S
C2697 C2696 1.366 . S
C2697 C2701 1.385 . S
C2698 H2679 0.951 1_556 S
C2698 C2696 1.388 . S
C2698 C2699 1.366 . S
C2699 C2698 1.366 . S
C2699 C2700 1.414 . S
C2699 C2702 1.499 . S
C2700 H2680 0.950 . S
C2700 C2699 1.414 . S
C2700 C2701 1.374 . S
C2701 H2681 0.950 . S
C2701 C2697 1.385 . S
C2701 C2700 1.374 . S
C2702 C2699 1.499 . S
C2702 C2703 1.373 . S
C2702 C2704 1.389 . S
C2703 H2682 0.950 . S
C2703 C2702 1.373 . S
C2703 C2719 1.377 . S
C2704 C2702 1.389 . S
C2704 C2705 1.524 . S
C2704 C2718 1.377 . S
C2705 C2704 1.524 . S
C2705 C2706 1.397 . S
C2705 C2710 1.363 1_556 S
C2706 H2683 0.950 . S
C2706 C2705 1.397 . S
C2706 C2707 1.334 . S
C2707 H2684 0.950 . S
C2707 C2706 1.334 . S
C2707 C2708 1.287 . S
C2708 C2707 1.287 . S
C2708 C2709 1.524 1_556 S
C2708 H2727 0.913 . S
C2709 H2685 0.950 . S
C2709 C2708 1.524 1_554 S
C2709 C2710 1.415 . S
C2710 H2686 0.950 . S
C2710 C2705 1.363 1_554 S
C2710 C2709 1.415 . S
C2711 H2687 0.951 . S
C2711 C2712 1.366 . S
C2711 C2713 1.388 . S
C2712 C2711 1.366 . S
C2712 C2716 1.385 1_556 S
C2713 H2688 0.951 . S
C2713 C2711 1.388 . S
C2713 C2714 1.366 . S
C2714 C2713 1.366 . S
C2714 C2715 1.414 1_556 S
C2714 C2717 1.499 . S
C2715 H2689 0.950 . S
C2715 C2714 1.414 1_554 S
C2715 C2716 1.374 . S
C2716 H2690 0.950 . S
C2716 C2712 1.385 1_554 S
C2716 C2715 1.374 . S
C2717 C2714 1.499 . S
C2717 C2718 1.373 . S
C2717 C2719 1.389 . S
C2718 H2691 0.950 . S
C2718 C2704 1.377 . S
C2718 C2717 1.373 . S
C2719 C2703 1.377 . S
C2719 C2717 1.389 . S
C2719 C2720 1.524 . S
C2720 C2719 1.524 . S
C2720 C2721 1.397 . S
C2720 C2725 1.363 . S
C2721 H2692 0.952 1_556 S
C2721 C2720 1.397 . S
C2721 C2722 1.334 . S
C2722 H2693 0.950 . S
C2722 C2721 1.334 . S
C2722 C2723 1.287 . S
C2723 C2722 1.287 . S
C2723 C2724 1.524 . S
C2723 H2726 0.999 . S
C2724 H2694 0.950 . S
C2724 C2723 1.524 . S
C2724 C2725 1.415 . S
C2725 H2695 0.950 . S
C2725 C2720 1.363 . S
C2725 C2724 1.415 . S
H2726 C2723 0.999 . S
H2727 C2708 0.913 . S
H2728 C2746 0.951 . S
H2729 C2748 0.951 . S
H2730 C2750 0.950 . S
H2731 C2751 0.950 . S
H2732 C2753 0.950 . S
H2733 C2756 0.950 . S
H2734 C2757 0.950 . S
H2735 C2759 0.950 . S
H2736 C2760 0.950 . S
H2737 C2761 0.951 . S
H2738 C2763 0.951 . S
H2739 C2765 0.950 . S
H2740 C2766 0.950 . S
H2741 C2768 0.950 . S
H2742 C2771 0.950 . S
H2743 C2772 0.950 . S
H2744 C2774 0.950 . S
H2745 C2775 0.950 . S
C2746 H2728 0.951 . S
C2746 C2747 1.366 . S
C2746 C2748 1.388 . S
C2747 C2746 1.366 . S
C2747 C2751 1.385 . S
C2748 H2729 0.951 . S
C2748 C2746 1.388 . S
C2748 C2749 1.366 . S
C2749 C2748 1.366 . S
C2749 C2750 1.414 . S
C2749 C2752 1.499 . S
C2750 H2730 0.950 . S
C2750 C2749 1.414 . S
C2750 C2751 1.374 . S
C2751 H2731 0.950 . S
C2751 C2747 1.385 . S
C2751 C2750 1.374 . S
C2752 C2749 1.499 . S
C2752 C2753 1.373 . S
C2752 C2754 1.389 . S
C2753 H2732 0.950 . S
C2753 C2752 1.373 . S
C2753 C2769 1.377 . S
C2754 C2752 1.389 . S
C2754 C2755 1.524 . S
C2754 C2768 1.377 . S
C2755 C2754 1.524 . S
C2755 C2756 1.397 . S
C2755 C2760 1.363 . S
C2756 H2733 0.950 . S
C2756 C2755 1.397 . S
C2756 C2757 1.334 . S
C2757 H2734 0.950 . S
C2757 C2756 1.334 . S
C2757 C2758 1.287 . S
C2758 C2757 1.287 . S
C2758 C2759 1.524 . S
C2758 H2777 0.913 . S
C2759 H2735 0.950 . S
C2759 C2758 1.524 . S
C2759 C2760 1.415 . S
C2760 H2736 0.950 . S
C2760 C2755 1.363 . S
C2760 C2759 1.415 . S
C2761 H2737 0.951 . S
C2761 C2762 1.366 . S
C2761 C2763 1.388 . S
C2762 C2761 1.366 . S
C2762 C2766 1.385 . S
C2763 H2738 0.951 . S
C2763 C2761 1.388 . S
C2763 C2764 1.366 . S
C2764 C2763 1.366 . S
C2764 C2765 1.414 . S
C2764 C2767 1.499 . S
C2765 H2739 0.950 . S
C2765 C2764 1.414 . S
C2765 C2766 1.374 . S
C2766 H2740 0.950 . S
C2766 C2762 1.385 . S
C2766 C2765 1.374 . S
C2767 C2764 1.499 . S
C2767 C2768 1.373 . S
C2767 C2769 1.389 . S
C2768 H2741 0.950 . S
C2768 C2754 1.377 . S
C2768 C2767 1.373 . S
C2769 C2753 1.377 . S
C2769 C2767 1.389 . S
C2769 C2770 1.524 . S
C2770 C2769 1.524 . S
C2770 C2771 1.397 . S
C2770 C2775 1.363 . S
C2771 H2742 0.950 . S
C2771 C2770 1.397 . S
C2771 C2772 1.334 . S
C2772 H2743 0.950 . S
C2772 C2771 1.334 . S
C2772 C2773 1.287 . S
C2773 C2772 1.287 . S
C2773 C2774 1.524 . S
C2773 H2776 0.999 . S
C2774 H2744 0.950 . S
C2774 C2773 1.524 . S
C2774 C2775 1.415 . S
C2775 H2745 0.950 . S
C2775 C2770 1.363 . S
C2775 C2774 1.415 . S
H2776 C2773 0.999 . S
H2777 C2758 0.913 . S
H2778 C2796 0.951 . S
H2779 C2798 0.951 . S
H2780 C2800 0.950 . S
H2781 C2801 0.950 . S
H2782 C2803 0.950 . S
H2783 C2806 0.950 . S
H2784 C2807 0.950 . S
H2785 C2809 0.950 . S
H2786 C2810 0.950 . S
H2787 C2811 0.951 . S
H2788 C2813 0.951 . S
H2789 C2815 0.950 . S
H2790 C2816 0.950 . S
H2791 C2818 0.950 . S
H2792 C2821 0.950 . S
H2793 C2822 0.950 . S
H2794 C2824 0.950 . S
H2795 C2825 0.950 . S
C2796 H2778 0.951 . S
C2796 C2797 1.366 . S
C2796 C2798 1.388 . S
C2797 C2796 1.366 . S
C2797 C2801 1.385 . S
C2798 H2779 0.951 . S
C2798 C2796 1.388 . S
C2798 C2799 1.366 . S
C2799 C2798 1.366 . S
C2799 C2800 1.414 . S
C2799 C2802 1.499 . S
C2800 H2780 0.950 . S
C2800 C2799 1.414 . S
C2800 C2801 1.374 . S
C2801 H2781 0.950 . S
C2801 C2797 1.385 . S
C2801 C2800 1.374 . S
C2802 C2799 1.499 . S
C2802 C2803 1.373 . S
C2802 C2804 1.389 . S
C2803 H2782 0.950 . S
C2803 C2802 1.373 . S
C2803 C2819 1.377 . S
C2804 C2802 1.389 . S
C2804 C2805 1.524 . S
C2804 C2818 1.377 . S
C2805 C2804 1.524 . S
C2805 C2806 1.397 . S
C2805 C2810 1.363 . S
C2806 H2783 0.950 . S
C2806 C2805 1.397 . S
C2806 C2807 1.334 . S
C2807 H2784 0.950 . S
C2807 C2806 1.334 . S
C2807 C2808 1.287 . S
C2808 C2807 1.287 . S
C2808 C2809 1.524 . S
C2808 H2827 0.913 . S
C2809 H2785 0.950 . S
C2809 C2808 1.524 . S
C2809 C2810 1.415 . S
C2810 H2786 0.950 . S
C2810 C2805 1.363 . S
C2810 C2809 1.415 . S
C2811 H2787 0.951 . S
C2811 C2812 1.366 . S
C2811 C2813 1.388 . S
C2812 C2811 1.366 . S
C2812 C2816 1.385 . S
C2813 H2788 0.951 . S
C2813 C2811 1.388 . S
C2813 C2814 1.366 . S
C2814 C2813 1.366 . S
C2814 C2815 1.414 . S
C2814 C2817 1.499 . S
C2815 H2789 0.950 . S
C2815 C2814 1.414 . S
C2815 C2816 1.374 . S
C2816 H2790 0.950 . S
C2816 C2812 1.385 . S
C2816 C2815 1.374 . S
C2817 C2814 1.499 . S
C2817 C2818 1.373 . S
C2817 C2819 1.389 . S
C2818 H2791 0.950 . S
C2818 C2804 1.377 . S
C2818 C2817 1.373 . S
C2819 C2803 1.377 . S
C2819 C2817 1.389 . S
C2819 C2820 1.524 . S
C2820 C2819 1.524 . S
C2820 C2821 1.397 . S
C2820 C2825 1.363 . S
C2821 H2792 0.950 . S
C2821 C2820 1.397 . S
C2821 C2822 1.334 . S
C2822 H2793 0.950 . S
C2822 C2821 1.334 . S
C2822 C2823 1.287 . S
C2823 C2822 1.287 . S
C2823 C2824 1.524 . S
C2823 H2826 0.999 . S
C2824 H2794 0.950 . S
C2824 C2823 1.524 . S
C2824 C2825 1.415 . S
C2825 H2795 0.950 . S
C2825 C2820 1.363 . S
C2825 C2824 1.415 . S
H2826 C2823 0.999 . S
H2827 C2808 0.913 . S
H2828 C2846 0.951 . S
H2829 C2848 0.951 . S
H2830 C2850 0.950 . S
H2831 C2851 0.950 . S
H2832 C2853 0.950 . S
H2833 C2856 0.950 . S
H2834 C2857 0.950 . S
H2835 C2859 0.950 . S
H2836 C2860 0.950 . S
H2837 C2861 0.951 . S
H2838 C2863 0.951 . S
H2839 C2865 0.950 . S
H2840 C2866 0.950 . S
H2841 C2868 0.950 . S
H2842 C2871 0.950 . S
H2843 C2872 0.950 . S
H2844 C2874 0.950 . S
H2845 C2875 0.950 . S
C2846 H2828 0.951 . S
C2846 C2847 1.366 . S
C2846 C2848 1.388 . S
C2847 C2846 1.366 . S
C2847 C2851 1.385 . S
C2848 H2829 0.951 . S
C2848 C2846 1.388 . S
C2848 C2849 1.366 . S
C2849 C2848 1.366 . S
C2849 C2850 1.414 . S
C2849 C2852 1.499 . S
C2850 H2830 0.950 . S
C2850 C2849 1.414 . S
C2850 C2851 1.374 . S
C2851 H2831 0.950 . S
C2851 C2847 1.385 . S
C2851 C2850 1.374 . S
C2852 C2849 1.499 . S
C2852 C2853 1.373 . S
C2852 C2854 1.389 . S
C2853 H2832 0.950 . S
C2853 C2852 1.373 . S
C2853 C2869 1.377 . S
C2854 C2852 1.389 . S
C2854 C2855 1.524 . S
C2854 C2868 1.377 . S
C2855 C2854 1.524 . S
C2855 C2856 1.397 . S
C2855 C2860 1.363 . S
C2856 H2833 0.950 . S
C2856 C2855 1.397 . S
C2856 C2857 1.334 . S
C2857 H2834 0.950 . S
C2857 C2856 1.334 . S
C2857 C2858 1.287 . S
C2858 C2857 1.287 . S
C2858 C2859 1.524 . S
C2858 H2877 0.913 . S
C2859 H2835 0.950 . S
C2859 C2858 1.524 . S
C2859 C2860 1.415 . S
C2860 H2836 0.950 . S
C2860 C2855 1.363 . S
C2860 C2859 1.415 . S
C2861 H2837 0.951 . S
C2861 C2862 1.366 . S
C2861 C2863 1.388 . S
C2862 C2861 1.366 . S
C2862 C2866 1.385 . S
C2863 H2838 0.951 . S
C2863 C2861 1.388 . S
C2863 C2864 1.366 . S
C2864 C2863 1.366 . S
C2864 C2865 1.414 . S
C2864 C2867 1.499 . S
C2865 H2839 0.950 . S
C2865 C2864 1.414 . S
C2865 C2866 1.374 . S
C2866 H2840 0.950 . S
C2866 C2862 1.385 . S
C2866 C2865 1.374 . S
C2867 C2864 1.499 . S
C2867 C2868 1.373 . S
C2867 C2869 1.389 . S
C2868 H2841 0.950 . S
C2868 C2854 1.377 . S
C2868 C2867 1.373 . S
C2869 C2853 1.377 . S
C2869 C2867 1.389 . S
C2869 C2870 1.524 . S
C2870 C2869 1.524 . S
C2870 C2871 1.397 . S
C2870 C2875 1.363 . S
C2871 H2842 0.950 . S
C2871 C2870 1.397 . S
C2871 C2872 1.334 . S
C2872 H2843 0.950 . S
C2872 C2871 1.334 . S
C2872 C2873 1.287 . S
C2873 C2872 1.287 . S
C2873 C2874 1.524 . S
C2873 H2876 0.999 . S
C2874 H2844 0.950 . S
C2874 C2873 1.524 . S
C2874 C2875 1.415 . S
C2875 H2845 0.950 . S
C2875 C2870 1.363 . S
C2875 C2874 1.415 . S
H2876 C2873 0.999 . S
H2877 C2858 0.913 . S
H2878 C2896 0.951 . S
H2879 C2898 0.951 . S
H2880 C2900 0.950 . S
H2881 C2901 0.950 . S
H2882 C2903 0.950 . S
H2883 C2906 0.950 . S
H2884 C2907 0.950 . S
H2885 C2909 0.950 . S
H2886 C2910 0.950 . S
H2887 C2911 0.951 . S
H2888 C2913 0.951 . S
H2889 C2915 0.950 . S
H2890 C2916 0.950 . S
H2891 C2918 0.950 . S
H2892 C2921 0.950 . S
H2893 C2922 0.950 . S
H2894 C2924 0.950 . S
H2895 C2925 0.950 . S
C2896 H2878 0.951 . S
C2896 C2897 1.366 . S
C2896 C2898 1.388 . S
C2897 C2896 1.366 . S
C2897 C2901 1.385 . S
C2898 H2879 0.951 . S
C2898 C2896 1.388 . S
C2898 C2899 1.366 . S
C2899 C2898 1.366 . S
C2899 C2900 1.414 . S
C2899 C2902 1.499 . S
C2900 H2880 0.950 . S
C2900 C2899 1.414 . S
C2900 C2901 1.374 . S
C2901 H2881 0.950 . S
C2901 C2897 1.385 . S
C2901 C2900 1.374 . S
C2902 C2899 1.499 . S
C2902 C2903 1.373 . S
C2902 C2904 1.389 . S
C2903 H2882 0.950 . S
C2903 C2902 1.373 . S
C2903 C2919 1.377 . S
C2904 C2902 1.389 . S
C2904 C2905 1.524 . S
C2904 C2918 1.377 . S
C2905 C2904 1.524 . S
C2905 C2906 1.397 . S
C2905 C2910 1.363 . S
C2906 H2883 0.950 . S
C2906 C2905 1.397 . S
C2906 C2907 1.334 . S
C2907 H2884 0.950 . S
C2907 C2906 1.334 . S
C2907 C2908 1.287 . S
C2908 C2907 1.287 . S
C2908 C2909 1.524 . S
C2908 H2927 0.913 . S
C2909 H2885 0.950 . S
C2909 C2908 1.524 . S
C2909 C2910 1.415 . S
C2910 H2886 0.950 . S
C2910 C2905 1.363 . S
C2910 C2909 1.415 . S
C2911 H2887 0.951 . S
C2911 C2912 1.366 . S
C2911 C2913 1.388 . S
C2912 C2911 1.366 . S
C2912 C2916 1.385 . S
C2913 H2888 0.951 . S
C2913 C2911 1.388 . S
C2913 C2914 1.366 . S
C2914 C2913 1.366 . S
C2914 C2915 1.414 . S
C2914 C2917 1.499 . S
C2915 H2889 0.950 . S
C2915 C2914 1.414 . S
C2915 C2916 1.374 . S
C2916 H2890 0.950 . S
C2916 C2912 1.385 . S
C2916 C2915 1.374 . S
C2917 C2914 1.499 . S
C2917 C2918 1.373 . S
C2917 C2919 1.389 . S
C2918 H2891 0.950 . S
C2918 C2904 1.377 . S
C2918 C2917 1.373 . S
C2919 C2903 1.377 . S
C2919 C2917 1.389 . S
C2919 C2920 1.524 . S
C2920 C2919 1.524 . S
C2920 C2921 1.397 . S
C2920 C2925 1.363 . S
C2921 H2892 0.950 . S
C2921 C2920 1.397 . S
C2921 C2922 1.334 . S
C2922 H2893 0.950 . S
C2922 C2921 1.334 . S
C2922 C2923 1.287 . S
C2923 C2922 1.287 . S
C2923 C2924 1.524 . S
C2923 H2926 0.999 . S
C2924 H2894 0.950 . S
C2924 C2923 1.524 . S
C2924 C2925 1.415 . S
C2925 H2895 0.950 . S
C2925 C2920 1.363 . S
C2925 C2924 1.415 . S
H2926 C2923 0.999 . S
H2927 C2908 0.913 . S
H2928 C2946 0.951 . S
H2929 C2948 0.951 . S
H2930 C2950 0.950 . S
H2931 C2951 0.950 . S
H2932 C2953 0.950 . S
H2933 C2956 0.950 . S
H2934 C2957 0.950 . S
H2935 C2959 0.950 . S
H2936 C2960 0.950 . S
H2937 C2961 0.951 . S
H2938 C2963 0.951 . S
H2939 C2965 0.950 . S
H2940 C2966 0.950 . S
H2941 C2968 0.950 . S
H2942 C2971 0.950 . S
H2943 C2972 0.950 . S
H2944 C2974 0.950 . S
H2945 C2975 0.950 . S
C2946 H2928 0.951 . S
C2946 C2947 1.366 . S
C2946 C2948 1.388 . S
C2947 C2946 1.366 . S
C2947 C2951 1.385 . S
C2948 H2929 0.951 . S
C2948 C2946 1.388 . S
C2948 C2949 1.366 . S
C2949 C2948 1.366 . S
C2949 C2950 1.414 . S
C2949 C2952 1.499 . S
C2950 H2930 0.950 . S
C2950 C2949 1.414 . S
C2950 C2951 1.374 . S
C2951 H2931 0.950 . S
C2951 C2947 1.385 . S
C2951 C2950 1.374 . S
C2952 C2949 1.499 . S
C2952 C2953 1.373 . S
C2952 C2954 1.389 . S
C2953 H2932 0.950 . S
C2953 C2952 1.373 . S
C2953 C2969 1.377 . S
C2954 C2952 1.389 . S
C2954 C2955 1.524 . S
C2954 C2968 1.377 . S
C2955 C2954 1.524 . S
C2955 C2956 1.397 . S
C2955 C2960 1.363 . S
C2956 H2933 0.950 . S
C2956 C2955 1.397 . S
C2956 C2957 1.334 . S
C2957 H2934 0.950 . S
C2957 C2956 1.334 . S
C2957 C2958 1.287 . S
C2958 C2957 1.287 . S
C2958 C2959 1.524 . S
C2958 H2977 0.913 . S
C2959 H2935 0.950 . S
C2959 C2958 1.524 . S
C2959 C2960 1.415 . S
C2960 H2936 0.950 . S
C2960 C2955 1.363 . S
C2960 C2959 1.415 . S
C2961 H2937 0.951 . S
C2961 C2962 1.366 . S
C2961 C2963 1.388 . S
C2962 C2961 1.366 . S
C2962 C2966 1.385 . S
C2963 H2938 0.951 . S
C2963 C2961 1.388 . S
C2963 C2964 1.366 . S
C2964 C2963 1.366 . S
C2964 C2965 1.414 . S
C2964 C2967 1.499 . S
C2965 H2939 0.950 . S
C2965 C2964 1.414 . S
C2965 C2966 1.374 . S
C2966 H2940 0.950 . S
C2966 C2962 1.385 . S
C2966 C2965 1.374 . S
C2967 C2964 1.499 . S
C2967 C2968 1.373 . S
C2967 C2969 1.389 . S
C2968 H2941 0.950 . S
C2968 C2954 1.377 . S
C2968 C2967 1.373 . S
C2969 C2953 1.377 . S
C2969 C2967 1.389 . S
C2969 C2970 1.524 . S
C2970 C2969 1.524 . S
C2970 C2971 1.397 . S
C2970 C2975 1.363 . S
C2971 H2942 0.950 . S
C2971 C2970 1.397 . S
C2971 C2972 1.334 . S
C2972 H2943 0.950 . S
C2972 C2971 1.334 . S
C2972 C2973 1.287 . S
C2973 C2972 1.287 . S
C2973 C2974 1.524 . S
C2973 H2976 0.999 . S
C2974 H2944 0.950 . S
C2974 C2973 1.524 . S
C2974 C2975 1.415 . S
C2975 H2945 0.950 . S
C2975 C2970 1.363 . S
C2975 C2974 1.415 . S
H2976 C2973 0.999 . S
H2977 C2958 0.913 . S
H2978 C2996 0.951 . S
H2979 C2998 0.951 . S
H2980 C3000 0.950 . S
H2981 C3001 0.950 . S
H2982 C3003 0.950 . S
H2983 C3006 0.950 . S
H2984 C3007 0.950 . S
H2985 C3009 0.950 . S
H2986 C3010 0.950 . S
H2987 C3011 0.951 . S
H2988 C3013 0.951 . S
H2989 C3015 0.950 . S
H2990 C3016 0.950 . S
H2991 C3018 0.950 . S
H2992 C3021 0.950 . S
H2993 C3022 0.950 . S
H2994 C3024 0.950 . S
H2995 C3025 0.950 . S
C2996 H2978 0.951 . S
C2996 C2997 1.366 . S
C2996 C2998 1.388 . S
C2997 C2996 1.366 . S
C2997 C3001 1.385 . S
C2998 H2979 0.951 . S
C2998 C2996 1.388 . S
C2998 C2999 1.366 . S
C2999 C2998 1.366 . S
C2999 C3000 1.414 . S
C2999 C3002 1.499 . S
C3000 H2980 0.950 . S
C3000 C2999 1.414 . S
C3000 C3001 1.374 . S
C3001 H2981 0.950 . S
C3001 C2997 1.385 . S
C3001 C3000 1.374 . S
C3002 C2999 1.499 . S
C3002 C3003 1.373 . S
C3002 C3004 1.389 . S
C3003 H2982 0.950 . S
C3003 C3002 1.373 . S
C3003 C3019 1.377 . S
C3004 C3002 1.389 . S
C3004 C3005 1.524 . S
C3004 C3018 1.377 . S
C3005 C3004 1.524 . S
C3005 C3006 1.397 . S
C3005 C3010 1.363 . S
C3006 H2983 0.950 . S
C3006 C3005 1.397 . S
C3006 C3007 1.334 . S
C3007 H2984 0.950 . S
C3007 C3006 1.334 . S
C3007 C3008 1.287 . S
C3008 C3007 1.287 . S
C3008 C3009 1.524 . S
C3008 H3027 0.913 . S
C3009 H2985 0.950 . S
C3009 C3008 1.524 . S
C3009 C3010 1.415 . S
C3010 H2986 0.950 . S
C3010 C3005 1.363 . S
C3010 C3009 1.415 . S
C3011 H2987 0.951 . S
C3011 C3012 1.366 . S
C3011 C3013 1.388 . S
C3012 C3011 1.366 . S
C3012 C3016 1.385 . S
C3013 H2988 0.951 . S
C3013 C3011 1.388 . S
C3013 C3014 1.366 . S
C3014 C3013 1.366 . S
C3014 C3015 1.414 . S
C3014 C3017 1.499 . S
C3015 H2989 0.950 . S
C3015 C3014 1.414 . S
C3015 C3016 1.374 . S
C3016 H2990 0.950 . S
C3016 C3012 1.385 . S
C3016 C3015 1.374 . S
C3017 C3014 1.499 . S
C3017 C3018 1.373 . S
C3017 C3019 1.389 . S
C3018 H2991 0.950 . S
C3018 C3004 1.377 . S
C3018 C3017 1.373 . S
C3019 C3003 1.377 . S
C3019 C3017 1.389 . S
C3019 C3020 1.524 . S
C3020 C3019 1.524 . S
C3020 C3021 1.397 . S
C3020 C3025 1.363 . S
C3021 H2992 0.950 . S
C3021 C3020 1.397 . S
C3021 C3022 1.334 . S
C3022 H2993 0.950 . S
C3022 C3021 1.334 . S
C3022 C3023 1.287 . S
C3023 C3022 1.287 . S
C3023 C3024 1.524 . S
C3023 H3026 0.999 . S
C3024 H2994 0.950 . S
C3024 C3023 1.524 . S
C3024 C3025 1.415 . S
C3025 H2995 0.950 . S
C3025 C3020 1.363 . S
C3025 C3024 1.415 . S
H3026 C3023 0.999 . S
H3027 C3008 0.913 . S
H3028 C3046 0.951 . S
H3029 C3048 0.951 . S
H3030 C3050 0.950 . S
H3031 C3051 0.950 . S
H3032 C3053 0.950 . S
H3033 C3056 0.950 . S
H3034 C3057 0.950 . S
H3035 C3059 0.950 . S
H3036 C3060 0.950 . S
H3037 C3061 0.951 . S
H3038 C3063 0.951 . S
H3039 C3065 0.950 . S
H3040 C3066 0.950 . S
H3041 C3068 0.950 . S
H3042 C3071 0.950 . S
H3043 C3072 0.950 . S
H3044 C3074 0.950 . S
H3045 C3075 0.950 . S
C3046 H3028 0.951 . S
C3046 C3047 1.366 . S
C3046 C3048 1.388 . S
C3047 C3046 1.366 . S
C3047 C3051 1.385 . S
C3048 H3029 0.951 . S
C3048 C3046 1.388 . S
C3048 C3049 1.366 . S
C3049 C3048 1.366 . S
C3049 C3050 1.414 . S
C3049 C3052 1.499 . S
C3050 H3030 0.950 . S
C3050 C3049 1.414 . S
C3050 C3051 1.374 . S
C3051 H3031 0.950 . S
C3051 C3047 1.385 . S
C3051 C3050 1.374 . S
C3052 C3049 1.499 . S
C3052 C3053 1.373 . S
C3052 C3054 1.389 . S
C3053 H3032 0.950 . S
C3053 C3052 1.373 . S
C3053 C3069 1.377 . S
C3054 C3052 1.389 . S
C3054 C3055 1.524 . S
C3054 C3068 1.377 . S
C3055 C3054 1.524 . S
C3055 C3056 1.397 . S
C3055 C3060 1.363 . S
C3056 H3033 0.950 . S
C3056 C3055 1.397 . S
C3056 C3057 1.334 . S
C3057 H3034 0.950 . S
C3057 C3056 1.334 . S
C3057 C3058 1.287 . S
C3058 C3057 1.287 . S
C3058 C3059 1.524 . S
C3058 H3077 0.913 . S
C3059 H3035 0.950 . S
C3059 C3058 1.524 . S
C3059 C3060 1.415 . S
C3060 H3036 0.950 . S
C3060 C3055 1.363 . S
C3060 C3059 1.415 . S
C3061 H3037 0.951 . S
C3061 C3062 1.366 . S
C3061 C3063 1.388 . S
C3062 C3061 1.366 . S
C3062 C3066 1.385 . S
C3063 H3038 0.951 . S
C3063 C3061 1.388 . S
C3063 C3064 1.366 . S
C3064 C3063 1.366 . S
C3064 C3065 1.414 . S
C3064 C3067 1.499 . S
C3065 H3039 0.950 . S
C3065 C3064 1.414 . S
C3065 C3066 1.374 . S
C3066 H3040 0.950 . S
C3066 C3062 1.385 . S
C3066 C3065 1.374 . S
C3067 C3064 1.499 . S
C3067 C3068 1.373 . S
C3067 C3069 1.389 . S
C3068 H3041 0.950 . S
C3068 C3054 1.377 . S
C3068 C3067 1.373 . S
C3069 C3053 1.377 . S
C3069 C3067 1.389 . S
C3069 C3070 1.524 . S
C3070 C3069 1.524 . S
C3070 C3071 1.397 . S
C3070 C3075 1.363 . S
C3071 H3042 0.950 . S
C3071 C3070 1.397 . S
C3071 C3072 1.334 . S
C3072 H3043 0.950 . S
C3072 C3071 1.334 . S
C3072 C3073 1.287 . S
C3073 C3072 1.287 . S
C3073 C3074 1.524 . S
C3073 H3076 0.999 . S
C3074 H3044 0.950 . S
C3074 C3073 1.524 . S
C3074 C3075 1.415 . S
C3075 H3045 0.950 . S
C3075 C3070 1.363 . S
C3075 C3074 1.415 . S
H3076 C3073 0.999 . S
H3077 C3058 0.913 . S
H3078 C3096 0.951 . S
H3079 C3098 0.951 . S
H3080 C3100 0.950 . S
H3081 C3101 0.950 . S
H3082 C3103 0.950 . S
H3083 C3106 0.950 . S
H3084 C3107 0.950 . S
H3085 C3109 0.950 . S
H3086 C3110 0.950 . S
H3087 C3111 0.951 . S
H3088 C3113 0.951 . S
H3089 C3115 0.950 . S
H3090 C3116 0.950 . S
H3091 C3118 0.950 . S
H3092 C3121 0.950 . S
H3093 C3122 0.950 . S
H3094 C3124 0.950 . S
H3095 C3125 0.950 . S
C3096 H3078 0.951 . S
C3096 C3097 1.366 . S
C3096 C3098 1.388 . S
C3097 C3096 1.366 . S
C3097 C3101 1.385 . S
C3098 H3079 0.951 . S
C3098 C3096 1.388 . S
C3098 C3099 1.366 . S
C3099 C3098 1.366 . S
C3099 C3100 1.414 . S
C3099 C3102 1.499 . S
C3100 H3080 0.950 . S
C3100 C3099 1.414 . S
C3100 C3101 1.374 . S
C3101 H3081 0.950 . S
C3101 C3097 1.385 . S
C3101 C3100 1.374 . S
C3102 C3099 1.499 . S
C3102 C3103 1.373 . S
C3102 C3104 1.389 . S
C3103 H3082 0.950 . S
C3103 C3102 1.373 . S
C3103 C3119 1.377 . S
C3104 C3102 1.389 . S
C3104 C3105 1.524 . S
C3104 C3118 1.377 . S
C3105 C3104 1.524 . S
C3105 C3106 1.397 . S
C3105 C3110 1.363 . S
C3106 H3083 0.950 . S
C3106 C3105 1.397 . S
C3106 C3107 1.334 . S
C3107 H3084 0.950 . S
C3107 C3106 1.334 . S
C3107 C3108 1.287 . S
C3108 C3107 1.287 . S
C3108 C3109 1.524 . S
C3108 H3127 0.913 . S
C3109 H3085 0.950 . S
C3109 C3108 1.524 . S
C3109 C3110 1.415 . S
C3110 H3086 0.950 . S
C3110 C3105 1.363 . S
C3110 C3109 1.415 . S
C3111 H3087 0.951 . S
C3111 C3112 1.366 . S
C3111 C3113 1.388 . S
C3112 C3111 1.366 . S
C3112 C3116 1.385 . S
C3113 H3088 0.951 . S
C3113 C3111 1.388 . S
C3113 C3114 1.366 . S
C3114 C3113 1.366 . S
C3114 C3115 1.414 . S
C3114 C3117 1.499 . S
C3115 H3089 0.950 . S
C3115 C3114 1.414 . S
C3115 C3116 1.374 . S
C3116 H3090 0.950 . S
C3116 C3112 1.385 . S
C3116 C3115 1.374 . S
C3117 C3114 1.499 . S
C3117 C3118 1.373 . S
C3117 C3119 1.389 . S
C3118 H3091 0.950 . S
C3118 C3104 1.377 . S
C3118 C3117 1.373 . S
C3119 C3103 1.377 . S
C3119 C3117 1.389 . S
C3119 C3120 1.524 . S
C3120 C3119 1.524 . S
C3120 C3121 1.397 . S
C3120 C3125 1.363 . S
C3121 H3092 0.950 . S
C3121 C3120 1.397 . S
C3121 C3122 1.334 . S
C3122 H3093 0.950 . S
C3122 C3121 1.334 . S
C3122 C3123 1.287 . S
C3123 C3122 1.287 . S
C3123 C3124 1.524 . S
C3123 H3126 0.999 . S
C3124 H3094 0.950 . S
C3124 C3123 1.524 . S
C3124 C3125 1.415 . S
C3125 H3095 0.950 . S
C3125 C3120 1.363 . S
C3125 C3124 1.415 . S
H3126 C3123 0.999 . S
H3127 C3108 0.913 . S
H3128 C3146 0.951 . S
H3129 C3148 0.951 . S
H3130 C3150 0.950 . S
H3131 C3151 0.950 . S
H3132 C3153 0.950 . S
H3133 C3156 0.950 . S
H3134 C3157 0.950 . S
H3135 C3159 0.950 . S
H3136 C3160 0.950 . S
H3137 C3161 0.951 . S
H3138 C3163 0.951 . S
H3139 C3165 0.950 . S
H3140 C3166 0.950 . S
H3141 C3168 0.950 . S
H3142 C3171 0.950 . S
H3143 C3172 0.950 . S
H3144 C3174 0.950 . S
H3145 C3175 0.950 . S
C3146 H3128 0.951 . S
C3146 C3147 1.366 1_554 S
C3146 C3148 1.388 . S
C3147 C3146 1.366 1_556 S
C3147 C3151 1.385 . S
C3148 H3129 0.951 . S
C3148 C3146 1.388 . S
C3148 C3149 1.413 . S
C3149 C3148 1.413 . S
C3149 C3150 1.365 1_554 S
C3149 C3152 1.500 . S
C3150 H3130 0.950 . S
C3150 C3149 1.365 1_556 S
C3150 C3151 1.374 . S
C3151 H3131 0.950 . S
C3151 C3147 1.385 . S
C3151 C3150 1.374 . S
C3152 C3149 1.500 . S
C3152 C3153 1.373 1_554 S
C3152 C3154 1.389 . S
C3153 H3132 0.950 . S
C3153 C3152 1.373 1_556 S
C3153 C3169 1.377 . S
C3154 C3152 1.389 . S
C3154 C3155 1.524 . S
C3154 C3168 1.377 . S
C3155 C3154 1.524 . S
C3155 C3156 1.397 . S
C3155 C3160 1.363 . S
C3156 H3133 0.950 . S
C3156 C3155 1.397 . S
C3156 C3157 1.334 . S
C3157 H3134 0.950 . S
C3157 C3156 1.334 . S
C3157 C3158 1.287 . S
C3158 C3157 1.287 . S
C3158 C3159 1.524 . S
C3158 H3177 0.913 . S
C3159 H3135 0.950 . S
C3159 C3158 1.524 . S
C3159 C3160 1.415 . S
C3160 H3136 0.950 . S
C3160 C3155 1.363 . S
C3160 C3159 1.415 . S
C3161 H3137 0.951 . S
C3161 C3162 1.366 1_556 S
C3161 C3163 1.388 . S
C3162 C3161 1.366 1_554 S
C3162 C3166 1.385 . S
C3163 H3138 0.951 . S
C3163 C3161 1.388 . S
C3163 C3164 1.366 1_556 S
C3164 C3163 1.366 1_554 S
C3164 C3165 1.414 . S
C3164 C3167 1.499 . S
C3165 H3139 0.950 . S
C3165 C3164 1.414 . S
C3165 C3166 1.374 . S
C3166 H3140 0.950 . S
C3166 C3162 1.385 . S
C3166 C3165 1.374 . S
C3167 C3164 1.499 . S
C3167 C3168 1.373 . S
C3167 C3169 1.389 1_554 S
C3168 H3141 0.950 . S
C3168 C3154 1.377 . S
C3168 C3167 1.373 . S
C3169 C3153 1.377 . S
C3169 C3167 1.389 1_556 S
C3169 C3170 1.524 . S
C3170 C3169 1.524 . S
C3170 C3171 1.397 . S
C3170 C3175 1.363 . S
C3171 H3142 0.950 . S
C3171 C3170 1.397 . S
C3171 C3172 1.334 . S
C3172 H3143 0.950 . S
C3172 C3171 1.334 . S
C3172 C3173 1.287 . S
C3173 C3172 1.287 . S
C3173 C3174 1.524 . S
C3173 H3176 0.999 . S
C3174 H3144 0.950 . S
C3174 C3173 1.524 . S
C3174 C3175 1.415 . S
C3175 H3145 0.950 . S
C3175 C3170 1.363 . S
C3175 C3174 1.415 . S
H3176 C3173 0.999 . S
H3177 C3158 0.913 . S
H3178 C3196 0.951 . S
H3179 C3198 0.951 . S
H3180 C3200 0.950 . S
H3181 C3201 0.950 . S
H3182 C3203 0.950 . S
H3183 C3206 0.950 . S
H3184 C3207 0.950 . S
H3185 C3209 0.950 . S
H3186 C3210 0.950 . S
H3187 C3211 0.951 . S
H3188 C3213 0.951 . S
H3189 C3215 0.950 . S
H3190 C3216 0.950 . S
H3191 C3218 0.950 . S
H3192 C3221 0.950 . S
H3193 C3222 0.950 . S
H3194 C3224 0.950 . S
H3195 C3225 0.950 . S
C3196 H3178 0.951 . S
C3196 C3197 1.366 . S
C3196 C3198 1.388 . S
C3197 C3196 1.366 . S
C3197 C3201 1.385 . S
C3198 H3179 0.951 . S
C3198 C3196 1.388 . S
C3198 C3199 1.366 . S
C3199 C3198 1.366 . S
C3199 C3200 1.414 . S
C3199 C3202 1.499 . S
C3200 H3180 0.950 . S
C3200 C3199 1.414 . S
C3200 C3201 1.374 . S
C3201 H3181 0.950 . S
C3201 C3197 1.385 . S
C3201 C3200 1.374 . S
C3202 C3199 1.499 . S
C3202 C3203 1.373 . S
C3202 C3204 1.389 . S
C3203 H3182 0.950 . S
C3203 C3202 1.373 . S
C3203 C3219 1.377 . S
C3204 C3202 1.389 . S
C3204 C3205 1.524 . S
C3204 C3218 1.377 . S
C3205 C3204 1.524 . S
C3205 C3206 1.397 . S
C3205 C3210 1.363 . S
C3206 H3183 0.950 . S
C3206 C3205 1.397 . S
C3206 C3207 1.334 . S
C3207 H3184 0.950 . S
C3207 C3206 1.334 . S
C3207 C3208 1.287 . S
C3208 C3207 1.287 . S
C3208 C3209 1.524 . S
C3208 H3227 0.913 . S
C3209 H3185 0.950 . S
C3209 C3208 1.524 . S
C3209 C3210 1.415 . S
C3210 H3186 0.950 . S
C3210 C3205 1.363 . S
C3210 C3209 1.415 . S
C3211 H3187 0.951 . S
C3211 C3212 1.366 . S
C3211 C3213 1.388 . S
C3212 C3211 1.366 . S
C3212 C3216 1.385 . S
C3213 H3188 0.951 . S
C3213 C3211 1.388 . S
C3213 C3214 1.366 . S
C3214 C3213 1.366 . S
C3214 C3215 1.414 . S
C3214 C3217 1.499 . S
C3215 H3189 0.950 . S
C3215 C3214 1.414 . S
C3215 C3216 1.374 . S
C3216 H3190 0.950 . S
C3216 C3212 1.385 . S
C3216 C3215 1.374 . S
C3217 C3214 1.499 . S
C3217 C3218 1.373 . S
C3217 C3219 1.389 . S
C3218 H3191 0.950 . S
C3218 C3204 1.377 . S
C3218 C3217 1.373 . S
C3219 C3203 1.377 . S
C3219 C3217 1.389 . S
C3219 C3220 1.524 . S
C3220 C3219 1.524 . S
C3220 C3221 1.397 . S
C3220 C3225 1.363 . S
C3221 H3192 0.950 . S
C3221 C3220 1.397 . S
C3221 C3222 1.334 . S
C3222 H3193 0.950 . S
C3222 C3221 1.334 . S
C3222 C3223 1.287 . S
C3223 C3222 1.287 . S
C3223 C3224 1.524 . S
C3223 H3226 0.999 . S
C3224 H3194 0.950 . S
C3224 C3223 1.524 . S
C3224 C3225 1.415 . S
C3225 H3195 0.950 . S
C3225 C3220 1.363 . S
C3225 C3224 1.415 . S
H3226 C3223 0.999 . S
H3227 C3208 0.913 . S
H3228 C3246 0.951 . S
H3229 C3248 0.951 . S
H3230 C3250 0.950 . S
H3231 C3251 0.950 . S
H3232 C3253 0.950 . S
H3233 C3256 0.950 . S
H3234 C3257 0.950 . S
H3235 C3259 0.950 . S
H3236 C3260 0.950 . S
H3237 C3261 0.951 . S
H3238 C3263 0.951 . S
H3239 C3265 0.950 . S
H3240 C3266 0.950 . S
H3241 C3268 0.950 . S
H3242 C3271 0.950 . S
H3243 C3272 0.950 . S
H3244 C3274 0.950 . S
H3245 C3275 0.950 . S
C3246 H3228 0.951 . S
C3246 C3247 1.366 . S
C3246 C3248 1.388 . S
C3247 C3246 1.366 . S
C3247 C3251 1.385 . S
C3248 H3229 0.951 . S
C3248 C3246 1.388 . S
C3248 C3249 1.366 . S
C3249 C3248 1.366 . S
C3249 C3250 1.414 . S
C3249 C3252 1.499 . S
C3250 H3230 0.950 . S
C3250 C3249 1.414 . S
C3250 C3251 1.374 . S
C3251 H3231 0.950 . S
C3251 C3247 1.385 . S
C3251 C3250 1.374 . S
C3252 C3249 1.499 . S
C3252 C3253 1.373 . S
C3252 C3254 1.389 . S
C3253 H3232 0.950 . S
C3253 C3252 1.373 . S
C3253 C3269 1.377 . S
C3254 C3252 1.389 . S
C3254 C3255 1.524 . S
C3254 C3268 1.377 . S
C3255 C3254 1.524 . S
C3255 C3256 1.397 . S
C3255 C3260 1.363 . S
C3256 H3233 0.950 . S
C3256 C3255 1.397 . S
C3256 C3257 1.334 . S
C3257 H3234 0.950 . S
C3257 C3256 1.334 . S
C3257 C3258 1.287 . S
C3258 C3257 1.287 . S
C3258 C3259 1.524 . S
C3258 H3277 0.913 . S
C3259 H3235 0.950 . S
C3259 C3258 1.524 . S
C3259 C3260 1.415 . S
C3260 H3236 0.950 . S
C3260 C3255 1.363 . S
C3260 C3259 1.415 . S
C3261 H3237 0.951 . S
C3261 C3262 1.366 . S
C3261 C3263 1.388 . S
C3262 C3261 1.366 . S
C3262 C3266 1.385 . S
C3263 H3238 0.951 . S
C3263 C3261 1.388 . S
C3263 C3264 1.366 . S
C3264 C3263 1.366 . S
C3264 C3265 1.414 . S
C3264 C3267 1.499 . S
C3265 H3239 0.950 . S
C3265 C3264 1.414 . S
C3265 C3266 1.374 . S
C3266 H3240 0.950 . S
C3266 C3262 1.385 . S
C3266 C3265 1.374 . S
C3267 C3264 1.499 . S
C3267 C3268 1.373 . S
C3267 C3269 1.389 . S
C3268 H3241 0.950 . S
C3268 C3254 1.377 . S
C3268 C3267 1.373 . S
C3269 C3253 1.377 . S
C3269 C3267 1.389 . S
C3269 C3270 1.524 . S
C3270 C3269 1.524 . S
C3270 C3271 1.397 . S
C3270 C3275 1.363 . S
C3271 H3242 0.950 . S
C3271 C3270 1.397 . S
C3271 C3272 1.334 . S
C3272 H3243 0.950 . S
C3272 C3271 1.334 . S
C3272 C3273 1.287 . S
C3273 C3272 1.287 . S
C3273 C3274 1.524 . S
C3273 H3276 0.999 . S
C3274 H3244 0.950 . S
C3274 C3273 1.524 . S
C3274 C3275 1.415 . S
C3275 H3245 0.950 . S
C3275 C3270 1.363 . S
C3275 C3274 1.415 . S
H3276 C3273 0.999 . S
H3277 C3258 0.913 . S
H3278 C3296 0.951 . S
H3279 C3298 0.951 . S
H3280 C3300 0.950 . S
H3281 C3301 0.950 . S
H3282 C3303 0.950 . S
H3283 C3306 0.950 . S
H3284 C3307 0.950 . S
H3285 C3309 0.950 . S
H3286 C3310 0.950 . S
H3287 C3311 0.951 . S
H3288 C3313 0.951 . S
H3289 C3315 0.950 . S
H3290 C3316 0.950 . S
H3291 C3318 0.950 . S
H3292 C3321 0.950 . S
H3293 C3322 0.950 . S
H3294 C3324 0.950 . S
H3295 C3325 0.950 . S
C3296 H3278 0.951 . S
C3296 C3297 1.366 . S
C3296 C3298 1.388 . S
C3297 C3296 1.366 . S
C3297 C3301 1.385 . S
C3298 H3279 0.951 . S
C3298 C3296 1.388 . S
C3298 C3299 1.366 . S
C3299 C3298 1.366 . S
C3299 C3300 1.414 . S
C3299 C3302 1.499 . S
C3300 H3280 0.950 . S
C3300 C3299 1.414 . S
C3300 C3301 1.374 . S
C3301 H3281 0.950 . S
C3301 C3297 1.385 . S
C3301 C3300 1.374 . S
C3302 C3299 1.499 . S
C3302 C3303 1.373 . S
C3302 C3304 1.389 . S
C3303 H3282 0.950 . S
C3303 C3302 1.373 . S
C3303 C3319 1.377 . S
C3304 C3302 1.389 . S
C3304 C3305 1.524 . S
C3304 C3318 1.377 . S
C3305 C3304 1.524 . S
C3305 C3306 1.397 . S
C3305 C3310 1.363 . S
C3306 H3283 0.950 . S
C3306 C3305 1.397 . S
C3306 C3307 1.334 . S
C3307 H3284 0.950 . S
C3307 C3306 1.334 . S
C3307 C3308 1.287 . S
C3308 C3307 1.287 . S
C3308 C3309 1.524 . S
C3308 H3327 0.913 . S
C3309 H3285 0.950 . S
C3309 C3308 1.524 . S
C3309 C3310 1.415 . S
C3310 H3286 0.950 . S
C3310 C3305 1.363 . S
C3310 C3309 1.415 . S
C3311 H3287 0.951 . S
C3311 C3312 1.366 . S
C3311 C3313 1.388 . S
C3312 C3311 1.366 . S
C3312 C3316 1.385 . S
C3313 H3288 0.951 . S
C3313 C3311 1.388 . S
C3313 C3314 1.366 . S
C3314 C3313 1.366 . S
C3314 C3315 1.414 . S
C3314 C3317 1.499 . S
C3315 H3289 0.950 . S
C3315 C3314 1.414 . S
C3315 C3316 1.374 . S
C3316 H3290 0.950 . S
C3316 C3312 1.385 . S
C3316 C3315 1.374 . S
C3317 C3314 1.499 . S
C3317 C3318 1.373 . S
C3317 C3319 1.389 . S
C3318 H3291 0.950 . S
C3318 C3304 1.377 . S
C3318 C3317 1.373 . S
C3319 C3303 1.377 . S
C3319 C3317 1.389 . S
C3319 C3320 1.524 . S
C3320 C3319 1.524 . S
C3320 C3321 1.397 . S
C3320 C3325 1.363 . S
C3321 H3292 0.950 . S
C3321 C3320 1.397 . S
C3321 C3322 1.334 . S
C3322 H3293 0.950 . S
C3322 C3321 1.334 . S
C3322 C3323 1.287 . S
C3323 C3322 1.287 . S
C3323 C3324 1.524 . S
C3323 H3326 0.999 . S
C3324 H3294 0.950 . S
C3324 C3323 1.524 . S
C3324 C3325 1.415 . S
C3325 H3295 0.950 . S
C3325 C3320 1.363 . S
C3325 C3324 1.415 . S
H3326 C3323 0.999 . S
H3327 C3308 0.913 . S
H3328 C3346 0.951 . S
H3329 C3348 0.951 . S
H3330 C3350 0.950 . S
H3331 C3351 0.950 . S
H3332 C3353 0.950 . S
H3333 C3356 0.950 . S
H3334 C3357 0.950 . S
H3335 C3359 0.950 . S
H3336 C3360 0.950 . S
H3337 C3361 0.951 . S
H3338 C3363 0.951 . S
H3339 C3365 0.950 . S
H3340 C3366 0.950 . S
H3341 C3368 0.950 . S
H3342 C3371 0.950 . S
H3343 C3372 0.950 . S
H3344 C3374 0.950 . S
H3345 C3375 0.950 . S
C3346 H3328 0.951 . S
C3346 C3347 1.366 . S
C3346 C3348 1.388 . S
C3347 C3346 1.366 . S
C3347 C3351 1.385 . S
C3348 H3329 0.951 . S
C3348 C3346 1.388 . S
C3348 C3349 1.366 . S
C3349 C3348 1.366 . S
C3349 C3350 1.414 . S
C3349 C3352 1.499 . S
C3350 H3330 0.950 . S
C3350 C3349 1.414 . S
C3350 C3351 1.374 . S
C3351 H3331 0.950 . S
C3351 C3347 1.385 . S
C3351 C3350 1.374 . S
C3352 C3349 1.499 . S
C3352 C3353 1.373 . S
C3352 C3354 1.389 . S
C3353 H3332 0.950 . S
C3353 C3352 1.373 . S
C3353 C3369 1.377 . S
C3354 C3352 1.389 . S
C3354 C3355 1.524 . S
C3354 C3368 1.377 . S
C3355 C3354 1.524 . S
C3355 C3356 1.397 . S
C3355 C3360 1.363 . S
C3356 H3333 0.950 . S
C3356 C3355 1.397 . S
C3356 C3357 1.334 . S
C3357 H3334 0.950 . S
C3357 C3356 1.334 . S
C3357 C3358 1.287 . S
C3358 C3357 1.287 . S
C3358 C3359 1.524 . S
C3358 H3377 0.913 . S
C3359 H3335 0.950 . S
C3359 C3358 1.524 . S
C3359 C3360 1.415 . S
C3360 H3336 0.950 . S
C3360 C3355 1.363 . S
C3360 C3359 1.415 . S
C3361 H3337 0.951 . S
C3361 C3362 1.366 . S
C3361 C3363 1.388 . S
C3362 C3361 1.366 . S
C3362 C3366 1.385 . S
C3363 H3338 0.951 . S
C3363 C3361 1.388 . S
C3363 C3364 1.366 . S
C3364 C3363 1.366 . S
C3364 C3365 1.414 . S
C3364 C3367 1.499 . S
C3365 H3339 0.950 . S
C3365 C3364 1.414 . S
C3365 C3366 1.374 . S
C3366 H3340 0.950 . S
C3366 C3362 1.385 . S
C3366 C3365 1.374 . S
C3367 C3364 1.499 . S
C3367 C3368 1.373 . S
C3367 C3369 1.389 . S
C3368 H3341 0.950 . S
C3368 C3354 1.377 . S
C3368 C3367 1.373 . S
C3369 C3353 1.377 . S
C3369 C3367 1.389 . S
C3369 C3370 1.524 . S
C3370 C3369 1.524 . S
C3370 C3371 1.397 . S
C3370 C3375 1.363 . S
C3371 H3342 0.950 . S
C3371 C3370 1.397 . S
C3371 C3372 1.334 . S
C3372 H3343 0.950 . S
C3372 C3371 1.334 . S
C3372 C3373 1.287 . S
C3373 C3372 1.287 . S
C3373 C3374 1.524 . S
C3373 H3376 0.999 . S
C3374 H3344 0.950 . S
C3374 C3373 1.524 . S
C3374 C3375 1.415 . S
C3375 H3345 0.950 . S
C3375 C3370 1.363 . S
C3375 C3374 1.415 . S
H3376 C3373 0.999 . S
H3377 C3358 0.913 . S
H3378 C3396 0.951 . S
H3379 C3398 0.951 . S
H3380 C3400 0.950 . S
H3381 C3401 0.950 . S
H3382 C3403 0.950 . S
H3383 C3406 0.950 . S
H3384 C3407 0.950 . S
H3385 C3409 0.950 . S
H3386 C3410 0.950 . S
H3387 C3411 0.951 . S
H3388 C3413 0.951 . S
H3389 C3415 0.950 . S
H3390 C3416 0.950 . S
H3391 C3418 0.950 . S
H3392 C3421 0.950 . S
H3393 C3422 0.950 . S
H3394 C3424 0.950 . S
H3395 C3425 0.950 1_554 S
C3396 H3378 0.951 . S
C3396 C3397 1.366 1_556 S
C3396 C3398 1.388 . S
C3397 C3396 1.366 1_554 S
C3397 C3401 1.385 . S
C3398 H3379 0.951 . S
C3398 C3396 1.388 . S
C3398 C3399 1.366 . S
C3399 C3398 1.366 . S
C3399 C3400 1.414 1_556 S
C3399 C3402 1.499 . S
C3400 H3380 0.950 . S
C3400 C3399 1.414 1_554 S
C3400 C3401 1.374 . S
C3401 H3381 0.950 . S
C3401 C3397 1.385 . S
C3401 C3400 1.374 . S
C3402 C3399 1.499 . S
C3402 C3403 1.373 . S
C3402 C3404 1.389 . S
C3403 H3382 0.950 . S
C3403 C3402 1.373 . S
C3403 C3419 1.377 . S
C3404 C3402 1.389 . S
C3404 C3405 1.524 . S
C3404 C3418 1.377 . S
C3405 C3404 1.524 . S
C3405 C3406 1.397 1_556 S
C3405 C3410 1.363 . S
C3406 H3383 0.950 . S
C3406 C3405 1.397 1_554 S
C3406 C3407 1.334 . S
C3407 H3384 0.950 . S
C3407 C3406 1.334 . S
C3407 C3408 1.287 . S
C3408 C3407 1.287 . S
C3408 C3409 1.524 1_554 S
C3408 H3427 0.913 . S
C3409 H3385 0.950 . S
C3409 C3408 1.524 1_556 S
C3409 C3410 1.415 . S
C3410 H3386 0.950 . S
C3410 C3405 1.363 . S
C3410 C3409 1.415 . S
C3411 H3387 0.951 . S
C3411 C3412 1.366 . S
C3411 C3413 1.388 . S
C3412 C3411 1.366 . S
C3412 C3416 1.385 . S
C3413 H3388 0.951 . S
C3413 C3411 1.388 . S
C3413 C3414 1.366 . S
C3414 C3413 1.366 . S
C3414 C3415 1.414 . S
C3414 C3417 1.499 . S
C3415 H3389 0.950 . S
C3415 C3414 1.414 . S
C3415 C3416 1.374 . S
C3416 H3390 0.950 . S
C3416 C3412 1.385 . S
C3416 C3415 1.374 . S
C3417 C3414 1.499 . S
C3417 C3418 1.373 . S
C3417 C3419 1.389 . S
C3418 H3391 0.950 . S
C3418 C3404 1.377 . S
C3418 C3417 1.373 . S
C3419 C3403 1.377 . S
C3419 C3417 1.389 . S
C3419 C3420 1.524 . S
C3420 C3419 1.524 . S
C3420 C3421 1.397 . S
C3420 C3425 1.363 . S
C3421 H3392 0.950 . S
C3421 C3420 1.397 . S
C3421 C3422 1.334 . S
C3422 H3393 0.950 . S
C3422 C3421 1.334 . S
C3422 C3423 1.287 . S
C3423 C3422 1.287 . S
C3423 C3424 1.524 . S
C3423 H3426 0.999 . S
C3424 H3394 0.950 . S
C3424 C3423 1.524 . S
C3424 C3425 1.415 . S
C3425 H3395 0.950 1_556 S
C3425 C3420 1.363 . S
C3425 C3424 1.415 . S
H3426 C3423 0.999 . S
H3427 C3408 0.913 . S
H3428 C3446 0.951 . S
H3429 C3448 0.951 . S
H3430 C3450 0.950 . S
H3431 C3451 0.950 . S
H3432 C3453 0.950 . S
H3433 C3456 0.950 . S
H3434 C3457 0.950 . S
H3435 C3459 0.950 . S
H3436 C3460 0.950 . S
H3437 C3461 0.951 . S
H3438 C3463 0.951 . S
H3439 C3465 0.950 . S
H3440 C3466 0.950 . S
H3441 C3468 0.950 . S
H3442 C3471 0.950 . S
H3443 C3472 0.950 . S
H3444 C3474 0.950 . S
H3445 C3475 0.950 . S
C3446 H3428 0.951 . S
C3446 C3447 1.366 . S
C3446 C3448 1.388 . S
C3447 C3446 1.366 . S
C3447 C3451 1.385 . S
C3448 H3429 0.951 . S
C3448 C3446 1.388 . S
C3448 C3449 1.366 . S
C3449 C3448 1.366 . S
C3449 C3450 1.414 . S
C3449 C3452 1.499 . S
C3450 H3430 0.950 . S
C3450 C3449 1.414 . S
C3450 C3451 1.374 . S
C3451 H3431 0.950 . S
C3451 C3447 1.385 . S
C3451 C3450 1.374 . S
C3452 C3449 1.499 . S
C3452 C3453 1.373 . S
C3452 C3454 1.389 . S
C3453 H3432 0.950 . S
C3453 C3452 1.373 . S
C3453 C3469 1.377 . S
C3454 C3452 1.389 . S
C3454 C3455 1.524 . S
C3454 C3468 1.377 . S
C3455 C3454 1.524 . S
C3455 C3456 1.397 . S
C3455 C3460 1.363 . S
C3456 H3433 0.950 . S
C3456 C3455 1.397 . S
C3456 C3457 1.334 . S
C3457 H3434 0.950 . S
C3457 C3456 1.334 . S
C3457 C3458 1.287 . S
C3458 C3457 1.287 . S
C3458 C3459 1.524 . S
C3458 H3477 0.913 . S
C3459 H3435 0.950 . S
C3459 C3458 1.524 . S
C3459 C3460 1.415 . S
C3460 H3436 0.950 . S
C3460 C3455 1.363 . S
C3460 C3459 1.415 . S
C3461 H3437 0.951 . S
C3461 C3462 1.366 . S
C3461 C3463 1.388 . S
C3462 C3461 1.366 . S
C3462 C3466 1.385 . S
C3463 H3438 0.951 . S
C3463 C3461 1.388 . S
C3463 C3464 1.366 . S
C3464 C3463 1.366 . S
C3464 C3465 1.414 . S
C3464 C3467 1.499 . S
C3465 H3439 0.950 . S
C3465 C3464 1.414 . S
C3465 C3466 1.374 . S
C3466 H3440 0.950 . S
C3466 C3462 1.385 . S
C3466 C3465 1.374 . S
C3467 C3464 1.499 . S
C3467 C3468 1.373 . S
C3467 C3469 1.389 . S
C3468 H3441 0.950 . S
C3468 C3454 1.377 . S
C3468 C3467 1.373 . S
C3469 C3453 1.377 . S
C3469 C3467 1.389 . S
C3469 C3470 1.524 . S
C3470 C3469 1.524 . S
C3470 C3471 1.397 . S
C3470 C3475 1.363 . S
C3471 H3442 0.950 . S
C3471 C3470 1.397 . S
C3471 C3472 1.334 . S
C3472 H3443 0.950 . S
C3472 C3471 1.334 . S
C3472 C3473 1.287 . S
C3473 C3472 1.287 . S
C3473 C3474 1.524 . S
C3473 H3476 0.999 . S
C3474 H3444 0.950 . S
C3474 C3473 1.524 . S
C3474 C3475 1.415 . S
C3475 H3445 0.950 . S
C3475 C3470 1.363 . S
C3475 C3474 1.415 . S
H3476 C3473 0.999 . S
H3477 C3458 0.913 . S
H3478 C3496 0.953 1_565 S
H3479 C3498 0.936 1_565 S
H3480 C3500 0.950 . S
H3481 C3501 0.950 . S
H3482 C3503 0.950 . S
H3483 C3506 0.950 . S
H3484 C3507 0.950 . S
H3485 C3509 0.950 . S
H3486 C3510 0.950 . S
H3487 C3511 0.951 . S
H3488 C3513 0.951 . S
H3489 C3515 0.950 1_565 S
H3490 C3516 0.950 1_565 S
H3491 C3518 0.950 . S
H3492 C3521 0.950 . S
H3493 C3522 0.950 . S
H3494 C3524 0.950 . S
H3495 C3525 0.950 . S
C3496 H3478 0.953 1_545 S
C3496 C3497 1.364 . S
C3496 C3498 1.385 . S
C3497 C3496 1.364 . S
C3497 C3501 1.385 . S
C3498 H3479 0.936 1_545 S
C3498 C3496 1.385 . S
C3498 C3499 1.383 . S
C3499 C3498 1.383 . S
C3499 C3500 1.414 . S
C3499 C3502 1.499 . S
C3500 H3480 0.950 . S
C3500 C3499 1.414 . S
C3500 C3501 1.374 . S
C3501 H3481 0.950 . S
C3501 C3497 1.385 . S
C3501 C3500 1.374 . S
C3502 C3499 1.499 . S
C3502 C3503 1.373 . S
C3502 C3504 1.389 1_545 S
C3503 H3482 0.950 . S
C3503 C3502 1.373 . S
C3503 C3519 1.377 . S
C3504 C3502 1.389 1_565 S
C3504 C3505 1.524 . S
C3504 C3518 1.377 . S
C3505 C3504 1.524 . S
C3505 C3506 1.397 . S
C3505 C3510 1.363 . S
C3506 H3483 0.950 . S
C3506 C3505 1.397 . S
C3506 C3507 1.334 . S
C3507 H3484 0.950 . S
C3507 C3506 1.334 . S
C3507 C3508 1.287 . S
C3508 C3507 1.287 . S
C3508 C3509 1.524 . S
C3508 H3527 0.913 . S
C3509 H3485 0.950 . S
C3509 C3508 1.524 . S
C3509 C3510 1.415 . S
C3510 H3486 0.950 . S
C3510 C3505 1.363 . S
C3510 C3509 1.415 . S
C3511 H3487 0.951 . S
C3511 C3512 1.366 . S
C3511 C3513 1.388 . S
C3512 C3511 1.366 . S
C3512 C3516 1.385 . S
C3513 H3488 0.951 . S
C3513 C3511 1.388 . S
C3513 C3514 1.366 . S
C3514 C3513 1.366 . S
C3514 C3515 1.414 . S
C3514 C3517 1.499 . S
C3515 H3489 0.950 1_545 S
C3515 C3514 1.414 . S
C3515 C3516 1.374 . S
C3516 H3490 0.950 1_545 S
C3516 C3512 1.385 . S
C3516 C3515 1.374 . S
C3517 C3514 1.499 . S
C3517 C3518 1.373 1_545 S
C3517 C3519 1.389 . S
C3518 H3491 0.950 . S
C3518 C3504 1.377 . S
C3518 C3517 1.373 1_565 S
C3519 C3503 1.377 . S
C3519 C3517 1.389 . S
C3519 C3520 1.524 . S
C3520 C3519 1.524 . S
C3520 C3521 1.397 . S
C3520 C3525 1.363 . S
C3521 H3492 0.950 . S
C3521 C3520 1.397 . S
C3521 C3522 1.334 . S
C3522 H3493 0.950 . S
C3522 C3521 1.334 . S
C3522 C3523 1.287 . S
C3523 C3522 1.287 . S
C3523 C3524 1.524 . S
C3523 H3526 0.999 . S
C3524 H3494 0.950 . S
C3524 C3523 1.524 . S
C3524 C3525 1.415 . S
C3525 H3495 0.950 . S
C3525 C3520 1.363 . S
C3525 C3524 1.415 . S
H3526 C3523 0.999 . S
H3527 C3508 0.913 . S
H3528 C3546 0.951 . S
H3529 C3548 0.951 . S
H3530 C3550 0.950 . S
H3531 C3551 0.950 . S
H3532 C3553 0.950 . S
H3533 C3556 0.950 . S
H3534 C3557 0.950 . S
H3535 C3559 0.950 . S
H3536 C3560 0.950 . S
H3537 C3561 0.951 . S
H3538 C3563 0.951 . S
H3539 C3565 0.950 . S
H3540 C3566 0.950 . S
H3541 C3568 0.950 . S
H3542 C3571 0.950 . S
H3543 C3572 0.950 . S
H3544 C3574 0.950 . S
H3545 C3575 0.950 . S
C3546 H3528 0.951 . S
C3546 C3547 1.366 . S
C3546 C3548 1.388 . S
C3547 C3546 1.366 . S
C3547 C3551 1.385 . S
C3548 H3529 0.951 . S
C3548 C3546 1.388 . S
C3548 C3549 1.366 . S
C3549 C3548 1.366 . S
C3549 C3550 1.414 . S
C3549 C3552 1.499 . S
C3550 H3530 0.950 . S
C3550 C3549 1.414 . S
C3550 C3551 1.374 . S
C3551 H3531 0.950 . S
C3551 C3547 1.385 . S
C3551 C3550 1.374 . S
C3552 C3549 1.499 . S
C3552 C3553 1.373 . S
C3552 C3554 1.389 . S
C3553 H3532 0.950 . S
C3553 C3552 1.373 . S
C3553 C3569 1.377 . S
C3554 C3552 1.389 . S
C3554 C3555 1.524 . S
C3554 C3568 1.377 . S
C3555 C3554 1.524 . S
C3555 C3556 1.397 . S
C3555 C3560 1.363 . S
C3556 H3533 0.950 . S
C3556 C3555 1.397 . S
C3556 C3557 1.334 . S
C3557 H3534 0.950 . S
C3557 C3556 1.334 . S
C3557 C3558 1.287 . S
C3558 C3557 1.287 . S
C3558 C3559 1.524 . S
C3558 H3577 0.913 . S
C3559 H3535 0.950 . S
C3559 C3558 1.524 . S
C3559 C3560 1.415 . S
C3560 H3536 0.950 . S
C3560 C3555 1.363 . S
C3560 C3559 1.415 . S
C3561 H3537 0.951 . S
C3561 C3562 1.366 . S
C3561 C3563 1.388 . S
C3562 C3561 1.366 . S
C3562 C3566 1.385 . S
C3563 H3538 0.951 . S
C3563 C3561 1.388 . S
C3563 C3564 1.366 . S
C3564 C3563 1.366 . S
C3564 C3565 1.414 . S
C3564 C3567 1.499 . S
C3565 H3539 0.950 . S
C3565 C3564 1.414 . S
C3565 C3566 1.374 . S
C3566 H3540 0.950 . S
C3566 C3562 1.385 . S
C3566 C3565 1.374 . S
C3567 C3564 1.499 . S
C3567 C3568 1.373 . S
C3567 C3569 1.389 . S
C3568 H3541 0.950 . S
C3568 C3554 1.377 . S
C3568 C3567 1.373 . S
C3569 C3553 1.377 . S
C3569 C3567 1.389 . S
C3569 C3570 1.524 . S
C3570 C3569 1.524 . S
C3570 C3571 1.397 . S
C3570 C3575 1.363 . S
C3571 H3542 0.950 . S
C3571 C3570 1.397 . S
C3571 C3572 1.334 . S
C3572 H3543 0.950 . S
C3572 C3571 1.334 . S
C3572 C3573 1.287 . S
C3573 C3572 1.287 . S
C3573 C3574 1.524 . S
C3573 H3576 0.999 . S
C3574 H3544 0.950 . S
C3574 C3573 1.524 . S
C3574 C3575 1.415 . S
C3575 H3545 0.950 . S
C3575 C3570 1.363 . S
C3575 C3574 1.415 . S
H3576 C3573 0.999 . S
H3577 C3558 0.913 . S
H3578 C3596 0.951 . S
H3579 C3598 0.951 . S
H3580 C3600 0.950 . S
H3581 C3601 0.950 . S
H3582 C3603 0.950 . S
H3583 C3606 0.950 . S
H3584 C3607 0.950 . S
H3585 C3609 0.950 . S
H3586 C3610 0.950 . S
H3587 C3611 0.951 . S
H3588 C3613 0.951 . S
H3589 C3615 0.950 . S
H3590 C3616 0.934 1_545 S
H3591 C3618 0.950 . S
H3592 C3621 0.950 . S
H3593 C3622 0.950 . S
H3594 C3624 0.950 . S
H3595 C3625 0.928 1_565 S
C3596 H3578 0.951 . S
C3596 C3597 1.366 . S
C3596 C3598 1.388 . S
C3597 C3596 1.366 . S
C3597 C3601 1.385 . S
C3598 H3579 0.951 . S
C3598 C3596 1.388 . S
C3598 C3599 1.366 . S
C3599 C3598 1.366 . S
C3599 C3600 1.414 . S
C3599 C3602 1.499 . S
C3600 H3580 0.950 . S
C3600 C3599 1.414 . S
C3600 C3601 1.374 . S
C3601 H3581 0.950 . S
C3601 C3597 1.385 . S
C3601 C3600 1.374 . S
C3602 C3599 1.499 . S
C3602 C3603 1.373 . S
C3602 C3604 1.389 . S
C3603 H3582 0.950 . S
C3603 C3602 1.373 . S
C3603 C3619 1.377 . S
C3604 C3602 1.389 . S
C3604 C3605 1.524 . S
C3604 C3618 1.377 . S
C3605 C3604 1.524 . S
C3605 C3606 1.397 . S
C3605 C3610 1.363 . S
C3606 H3583 0.950 . S
C3606 C3605 1.397 . S
C3606 C3607 1.334 . S
C3607 H3584 0.950 . S
C3607 C3606 1.334 . S
C3607 C3608 1.287 . S
C3608 C3607 1.287 . S
C3608 C3609 1.524 . S
C3608 H3627 0.913 . S
C3609 H3585 0.950 . S
C3609 C3608 1.524 . S
C3609 C3610 1.415 . S
C3610 H3586 0.950 . S
C3610 C3605 1.363 . S
C3610 C3609 1.415 . S
C3611 H3587 0.951 . S
C3611 C3612 1.366 . S
C3611 C3613 1.388 . S
C3612 C3611 1.366 . S
C3612 C3616 1.385 . S
C3613 H3588 0.951 . S
C3613 C3611 1.388 . S
C3613 C3614 1.366 . S
C3614 C3613 1.366 . S
C3614 C3615 1.414 . S
C3614 C3617 1.499 . S
C3615 H3589 0.950 . S
C3615 C3614 1.414 . S
C3615 C3616 1.374 . S
C3616 H3590 0.934 1_565 S
C3616 C3612 1.385 . S
C3616 C3615 1.374 . S
C3617 C3614 1.499 . S
C3617 C3618 1.373 . S
C3617 C3619 1.389 . S
C3618 H3591 0.950 . S
C3618 C3604 1.377 . S
C3618 C3617 1.373 . S
C3619 C3603 1.377 . S
C3619 C3617 1.389 . S
C3619 C3620 1.524 1_565 S
C3620 C3619 1.524 1_545 S
C3620 C3621 1.397 . S
C3620 C3625 1.372 . S
C3621 H3592 0.950 . S
C3621 C3620 1.397 . S
C3621 C3622 1.334 . S
C3622 H3593 0.950 . S
C3622 C3621 1.334 . S
C3622 C3623 1.287 . S
C3623 C3622 1.287 . S
C3623 C3624 1.524 . S
C3623 H3626 0.999 . S
C3624 H3594 0.950 . S
C3624 C3623 1.524 . S
C3624 C3625 1.429 . S
C3625 H3595 0.928 1_545 S
C3625 C3620 1.372 . S
C3625 C3624 1.429 . S
H3626 C3623 0.999 . S
H3627 C3608 0.913 . S
H3628 C3646 0.951 . S
H3629 C3648 0.951 . S
H3630 C3650 0.950 . S
H3631 C3651 0.950 . S
H3632 C3653 0.950 . S
H3633 C3656 0.950 . S
H3634 C3657 0.950 . S
H3635 C3659 0.950 . S
H3636 C3660 0.950 1_554 S
H3637 C3661 0.951 . S
H3638 C3663 0.951 . S
H3639 C3665 0.950 . S
H3640 C3666 0.950 . S
H3641 C3668 0.950 . S
H3642 C3671 0.950 . S
H3643 C3672 0.950 . S
H3644 C3674 0.950 . S
H3645 C3675 0.950 . S
C3646 H3628 0.951 . S
C3646 C3647 1.366 . S
C3646 C3648 1.388 . S
C3647 C3646 1.366 . S
C3647 C3651 1.385 . S
C3648 H3629 0.951 . S
C3648 C3646 1.388 . S
C3648 C3649 1.366 . S
C3649 C3648 1.366 . S
C3649 C3650 1.414 . S
C3649 C3652 1.499 . S
C3650 H3630 0.950 . S
C3650 C3649 1.414 . S
C3650 C3651 1.374 . S
C3651 H3631 0.950 . S
C3651 C3647 1.385 . S
C3651 C3650 1.374 . S
C3652 C3649 1.499 . S
C3652 C3653 1.373 . S
C3652 C3654 1.389 . S
C3653 H3632 0.950 . S
C3653 C3652 1.373 . S
C3653 C3669 1.377 . S
C3654 C3652 1.389 . S
C3654 C3655 1.524 1_554 S
C3654 C3668 1.377 . S
C3655 C3654 1.524 1_556 S
C3655 C3656 1.397 . S
C3655 C3660 1.363 . S
C3656 H3633 0.950 . S
C3656 C3655 1.397 . S
C3656 C3657 1.334 . S
C3657 H3634 0.950 . S
C3657 C3656 1.334 . S
C3657 C3658 1.287 . S
C3658 C3657 1.287 . S
C3658 C3659 1.524 . S
C3658 H3677 0.913 . S
C3659 H3635 0.950 . S
C3659 C3658 1.524 . S
C3659 C3660 1.415 . S
C3660 H3636 0.950 1_556 S
C3660 C3655 1.363 . S
C3660 C3659 1.415 . S
C3661 H3637 0.951 . S
C3661 C3662 1.366 . S
C3661 C3663 1.388 . S
C3662 C3661 1.366 . S
C3662 C3666 1.385 . S
C3663 H3638 0.951 . S
C3663 C3661 1.388 . S
C3663 C3664 1.366 . S
C3664 C3663 1.366 . S
C3664 C3665 1.414 . S
C3664 C3667 1.499 . S
C3665 H3639 0.950 . S
C3665 C3664 1.414 . S
C3665 C3666 1.374 . S
C3666 H3640 0.950 . S
C3666 C3662 1.385 . S
C3666 C3665 1.374 . S
C3667 C3664 1.499 . S
C3667 C3668 1.373 . S
C3667 C3669 1.389 . S
C3668 H3641 0.950 . S
C3668 C3654 1.377 . S
C3668 C3667 1.373 . S
C3669 C3653 1.377 . S
C3669 C3667 1.389 . S
C3669 C3670 1.524 . S
C3670 C3669 1.524 . S
C3670 C3671 1.397 . S
C3670 C3675 1.363 . S
C3671 H3642 0.950 . S
C3671 C3670 1.397 . S
C3671 C3672 1.334 . S
C3672 H3643 0.950 . S
C3672 C3671 1.334 . S
C3672 C3673 1.287 . S
C3673 C3672 1.287 . S
C3673 C3674 1.524 . S
C3673 H3676 0.999 . S
C3674 H3644 0.950 . S
C3674 C3673 1.524 . S
C3674 C3675 1.415 . S
C3675 H3645 0.950 . S
C3675 C3670 1.363 . S
C3675 C3674 1.415 . S
H3676 C3673 0.999 . S
H3677 C3658 0.913 . S
H3678 C3696 0.951 . S
H3679 C3698 0.951 . S
H3680 C3700 0.950 . S
H3681 C3701 0.950 . S
H3682 C3703 0.950 . S
H3683 C3706 0.950 . S
H3684 C3707 0.950 . S
H3685 C3709 0.950 . S
H3686 C3710 0.950 . S
H3687 C3711 0.951 . S
H3688 C3713 0.951 . S
H3689 C3715 0.950 . S
H3690 C3716 0.950 . S
H3691 C3718 0.950 . S
H3692 C3721 0.950 . S
H3693 C3722 0.950 . S
H3694 C3724 0.950 . S
H3695 C3725 0.950 . S
C3696 H3678 0.951 . S
C3696 C3697 1.366 . S
C3696 C3698 1.388 . S
C3697 C3696 1.366 . S
C3697 C3701 1.385 . S
C3698 H3679 0.951 . S
C3698 C3696 1.388 . S
C3698 C3699 1.366 . S
C3699 C3698 1.366 . S
C3699 C3700 1.414 . S
C3699 C3702 1.499 . S
C3700 H3680 0.950 . S
C3700 C3699 1.414 . S
C3700 C3701 1.374 . S
C3701 H3681 0.950 . S
C3701 C3697 1.385 . S
C3701 C3700 1.374 . S
C3702 C3699 1.499 . S
C3702 C3703 1.373 . S
C3702 C3704 1.389 . S
C3703 H3682 0.950 . S
C3703 C3702 1.373 . S
C3703 C3719 1.377 . S
C3704 C3702 1.389 . S
C3704 C3705 1.524 . S
C3704 C3718 1.377 . S
C3705 C3704 1.524 . S
C3705 C3706 1.397 . S
C3705 C3710 1.363 . S
C3706 H3683 0.950 . S
C3706 C3705 1.397 . S
C3706 C3707 1.334 . S
C3707 H3684 0.950 . S
C3707 C3706 1.334 . S
C3707 C3708 1.287 . S
C3708 C3707 1.287 . S
C3708 C3709 1.524 . S
C3708 H3727 0.913 . S
C3709 H3685 0.950 . S
C3709 C3708 1.524 . S
C3709 C3710 1.415 . S
C3710 H3686 0.950 . S
C3710 C3705 1.363 . S
C3710 C3709 1.415 . S
C3711 H3687 0.951 . S
C3711 C3712 1.366 . S
C3711 C3713 1.388 . S
C3712 C3711 1.366 . S
C3712 C3716 1.385 . S
C3713 H3688 0.951 . S
C3713 C3711 1.388 . S
C3713 C3714 1.366 . S
C3714 C3713 1.366 . S
C3714 C3715 1.414 . S
C3714 C3717 1.499 . S
C3715 H3689 0.950 . S
C3715 C3714 1.414 . S
C3715 C3716 1.374 . S
C3716 H3690 0.950 . S
C3716 C3712 1.385 . S
C3716 C3715 1.374 . S
C3717 C3714 1.499 . S
C3717 C3718 1.373 . S
C3717 C3719 1.389 . S
C3718 H3691 0.950 . S
C3718 C3704 1.377 . S
C3718 C3717 1.373 . S
C3719 C3703 1.377 . S
C3719 C3717 1.389 . S
C3719 C3720 1.524 . S
C3720 C3719 1.524 . S
C3720 C3721 1.397 . S
C3720 C3725 1.363 . S
C3721 H3692 0.950 . S
C3721 C3720 1.397 . S
C3721 C3722 1.334 . S
C3722 H3693 0.950 . S
C3722 C3721 1.334 . S
C3722 C3723 1.287 . S
C3723 C3722 1.287 . S
C3723 C3724 1.524 . S
C3723 H3726 0.999 . S
C3724 H3694 0.950 . S
C3724 C3723 1.524 . S
C3724 C3725 1.415 . S
C3725 H3695 0.950 . S
C3725 C3720 1.363 . S
C3725 C3724 1.415 . S
H3726 C3723 0.999 . S
H3727 C3708 0.913 . S
H3728 C3746 0.951 . S
H3729 C3748 0.951 . S
H3730 C3750 0.950 . S
H3731 C3751 0.950 . S
H3732 C3753 0.950 . S
H3733 C3756 0.950 . S
H3734 C3757 0.950 . S
H3735 C3759 0.950 . S
H3736 C3760 0.950 . S
H3737 C3761 0.951 . S
H3738 C3763 0.951 . S
H3739 C3765 0.950 . S
H3740 C3766 0.950 . S
H3741 C3768 0.950 . S
H3742 C3771 0.950 . S
H3743 C3772 0.950 . S
H3744 C3774 0.950 . S
H3745 C3775 0.950 . S
C3746 H3728 0.951 . S
C3746 C3747 1.366 . S
C3746 C3748 1.388 . S
C3747 C3746 1.366 . S
C3747 C3751 1.385 . S
C3748 H3729 0.951 . S
C3748 C3746 1.388 . S
C3748 C3749 1.366 . S
C3749 C3748 1.366 . S
C3749 C3750 1.414 . S
C3749 C3752 1.499 . S
C3750 H3730 0.950 . S
C3750 C3749 1.414 . S
C3750 C3751 1.374 . S
C3751 H3731 0.950 . S
C3751 C3747 1.385 . S
C3751 C3750 1.374 . S
C3752 C3749 1.499 . S
C3752 C3753 1.373 . S
C3752 C3754 1.389 . S
C3753 H3732 0.950 . S
C3753 C3752 1.373 . S
C3753 C3769 1.377 . S
C3754 C3752 1.389 . S
C3754 C3755 1.524 . S
C3754 C3768 1.377 . S
C3755 C3754 1.524 . S
C3755 C3756 1.397 . S
C3755 C3760 1.363 . S
C3756 H3733 0.950 . S
C3756 C3755 1.397 . S
C3756 C3757 1.334 . S
C3757 H3734 0.950 . S
C3757 C3756 1.334 . S
C3757 C3758 1.287 . S
C3758 C3757 1.287 . S
C3758 C3759 1.524 . S
C3758 H3777 0.913 . S
C3759 H3735 0.950 . S
C3759 C3758 1.524 . S
C3759 C3760 1.415 . S
C3760 H3736 0.950 . S
C3760 C3755 1.363 . S
C3760 C3759 1.415 . S
C3761 H3737 0.951 . S
C3761 C3762 1.366 . S
C3761 C3763 1.388 . S
C3762 C3761 1.366 . S
C3762 C3766 1.385 . S
C3763 H3738 0.951 . S
C3763 C3761 1.388 . S
C3763 C3764 1.366 . S
C3764 C3763 1.366 . S
C3764 C3765 1.414 . S
C3764 C3767 1.499 . S
C3765 H3739 0.950 . S
C3765 C3764 1.414 . S
C3765 C3766 1.374 . S
C3766 H3740 0.950 . S
C3766 C3762 1.385 . S
C3766 C3765 1.374 . S
C3767 C3764 1.499 . S
C3767 C3768 1.373 . S
C3767 C3769 1.389 . S
C3768 H3741 0.950 . S
C3768 C3754 1.377 . S
C3768 C3767 1.373 . S
C3769 C3753 1.377 . S
C3769 C3767 1.389 . S
C3769 C3770 1.524 . S
C3770 C3769 1.524 . S
C3770 C3771 1.397 . S
C3770 C3775 1.363 . S
C3771 H3742 0.950 . S
C3771 C3770 1.397 . S
C3771 C3772 1.334 . S
C3772 H3743 0.950 . S
C3772 C3771 1.334 . S
C3772 C3773 1.287 . S
C3773 C3772 1.287 . S
C3773 C3774 1.524 . S
C3773 H3776 0.999 . S
C3774 H3744 0.950 . S
C3774 C3773 1.524 . S
C3774 C3775 1.415 . S
C3775 H3745 0.950 . S
C3775 C3770 1.363 . S
C3775 C3774 1.415 . S
H3776 C3773 0.999 . S
H3777 C3758 0.913 . S
H3778 C3796 0.951 . S
H3779 C3798 0.951 . S
H3780 C3800 0.950 . S
H3781 C3801 0.950 . S
H3782 C3803 0.950 . S
H3783 C3806 0.950 . S
H3784 C3807 0.950 . S
H3785 C3809 0.950 . S
H3786 C3810 0.950 . S
H3787 C3811 0.951 . S
H3788 C3813 0.951 . S
H3789 C3815 0.950 . S
H3790 C3816 0.950 . S
H3791 C3818 0.950 . S
H3792 C3821 0.950 . S
H3793 C3822 0.950 . S
H3794 C3824 0.950 . S
H3795 C3825 0.950 . S
C3796 H3778 0.951 . S
C3796 C3797 1.366 . S
C3796 C3798 1.388 . S
C3797 C3796 1.366 . S
C3797 C3801 1.385 . S
C3798 H3779 0.951 . S
C3798 C3796 1.388 . S
C3798 C3799 1.366 . S
C3799 C3798 1.366 . S
C3799 C3800 1.414 . S
C3799 C3802 1.499 . S
C3800 H3780 0.950 . S
C3800 C3799 1.414 . S
C3800 C3801 1.374 . S
C3801 H3781 0.950 . S
C3801 C3797 1.385 . S
C3801 C3800 1.374 . S
C3802 C3799 1.499 . S
C3802 C3803 1.373 . S
C3802 C3804 1.389 . S
C3803 H3782 0.950 . S
C3803 C3802 1.373 . S
C3803 C3819 1.377 . S
C3804 C3802 1.389 . S
C3804 C3805 1.524 . S
C3804 C3818 1.377 . S
C3805 C3804 1.524 . S
C3805 C3806 1.397 . S
C3805 C3810 1.363 . S
C3806 H3783 0.950 . S
C3806 C3805 1.397 . S
C3806 C3807 1.334 . S
C3807 H3784 0.950 . S
C3807 C3806 1.334 . S
C3807 C3808 1.287 . S
C3808 C3807 1.287 . S
C3808 C3809 1.524 . S
C3808 H3827 0.913 . S
C3809 H3785 0.950 . S
C3809 C3808 1.524 . S
C3809 C3810 1.415 . S
C3810 H3786 0.950 . S
C3810 C3805 1.363 . S
C3810 C3809 1.415 . S
C3811 H3787 0.951 . S
C3811 C3812 1.366 . S
C3811 C3813 1.388 . S
C3812 C3811 1.366 . S
C3812 C3816 1.385 . S
C3813 H3788 0.951 . S
C3813 C3811 1.388 . S
C3813 C3814 1.366 . S
C3814 C3813 1.366 . S
C3814 C3815 1.414 . S
C3814 C3817 1.499 . S
C3815 H3789 0.950 . S
C3815 C3814 1.414 . S
C3815 C3816 1.374 . S
C3816 H3790 0.950 . S
C3816 C3812 1.385 . S
C3816 C3815 1.374 . S
C3817 C3814 1.499 . S
C3817 C3818 1.373 . S
C3817 C3819 1.389 . S
C3818 H3791 0.950 . S
C3818 C3804 1.377 . S
C3818 C3817 1.373 . S
C3819 C3803 1.377 . S
C3819 C3817 1.389 . S
C3819 C3820 1.524 . S
C3820 C3819 1.524 . S
C3820 C3821 1.397 . S
C3820 C3825 1.363 . S
C3821 H3792 0.950 . S
C3821 C3820 1.397 . S
C3821 C3822 1.334 . S
C3822 H3793 0.950 . S
C3822 C3821 1.334 . S
C3822 C3823 1.287 . S
C3823 C3822 1.287 . S
C3823 C3824 1.524 . S
C3823 H3826 0.999 . S
C3824 H3794 0.950 . S
C3824 C3823 1.524 . S
C3824 C3825 1.415 . S
C3825 H3795 0.950 . S
C3825 C3820 1.363 . S
C3825 C3824 1.415 . S
H3826 C3823 0.999 . S
H3827 C3808 0.913 . S
H3828 C3846 0.951 . S
H3829 C3848 0.938 1_655 S
H3830 C3850 0.950 . S
H3831 C3851 0.950 . S
H3832 C3853 0.950 . S
H3833 C3856 0.950 . S
H3834 C3857 0.950 . S
H3835 C3859 0.950 . S
H3836 C3860 0.950 . S
H3837 C3861 0.951 . S
H3838 C3863 0.951 . S
H3839 C3865 0.950 . S
H3840 C3866 0.950 . S
H3841 C3868 0.950 1_455 S
H3842 C3871 0.950 . S
H3843 C3872 0.950 . S
H3844 C3874 0.950 . S
H3845 C3875 0.950 . S
C3846 H3828 0.951 . S
C3846 C3847 1.366 . S
C3846 C3848 1.401 . S
C3847 C3846 1.366 . S
C3847 C3851 1.385 . S
C3848 H3829 0.938 1_455 S
C3848 C3846 1.401 . S
C3848 C3849 1.367 . S
C3849 C3848 1.367 . S
C3849 C3850 1.414 . S
C3849 C3852 1.499 1_455 S
C3850 H3830 0.950 . S
C3850 C3849 1.414 . S
C3850 C3851 1.374 . S
C3851 H3831 0.950 . S
C3851 C3847 1.385 . S
C3851 C3850 1.374 . S
C3852 C3849 1.499 1_655 S
C3852 C3853 1.373 . S
C3852 C3854 1.389 1_655 S
C3853 H3832 0.950 . S
C3853 C3852 1.373 . S
C3853 C3869 1.377 . S
C3854 C3852 1.389 1_455 S
C3854 C3855 1.524 . S
C3854 C3868 1.377 1_455 S
C3855 C3854 1.524 . S
C3855 C3856 1.397 . S
C3855 C3860 1.363 . S
C3856 H3833 0.950 . S
C3856 C3855 1.397 . S
C3856 C3857 1.334 . S
C3857 H3834 0.950 . S
C3857 C3856 1.334 . S
C3857 C3858 1.287 . S
C3858 C3857 1.287 . S
C3858 C3859 1.524 . S
C3858 H3877 0.913 . S
C3859 H3835 0.950 . S
C3859 C3858 1.524 . S
C3859 C3860 1.415 . S
C3860 H3836 0.950 . S
C3860 C3855 1.363 . S
C3860 C3859 1.415 . S
C3861 H3837 0.951 . S
C3861 C3862 1.366 . S
C3861 C3863 1.388 . S
C3862 C3861 1.366 . S
C3862 C3866 1.385 . S
C3863 H3838 0.951 . S
C3863 C3861 1.388 . S
C3863 C3864 1.366 . S
C3864 C3863 1.366 . S
C3864 C3865 1.414 . S
C3864 C3867 1.499 . S
C3865 H3839 0.950 . S
C3865 C3864 1.414 . S
C3865 C3866 1.374 . S
C3866 H3840 0.950 . S
C3866 C3862 1.385 . S
C3866 C3865 1.374 . S
C3867 C3864 1.499 . S
C3867 C3868 1.373 . S
C3867 C3869 1.389 . S
C3868 H3841 0.950 1_655 S
C3868 C3854 1.377 1_655 S
C3868 C3867 1.373 . S
C3869 C3853 1.377 . S
C3869 C3867 1.389 . S
C3869 C3870 1.524 . S
C3870 C3869 1.524 . S
C3870 C3871 1.397 . S
C3870 C3875 1.363 . S
C3871 H3842 0.950 . S
C3871 C3870 1.397 . S
C3871 C3872 1.334 . S
C3872 H3843 0.950 . S
C3872 C3871 1.334 . S
C3872 C3873 1.287 . S
C3873 C3872 1.287 . S
C3873 C3874 1.524 . S
C3873 H3876 0.999 . S
C3874 H3844 0.950 . S
C3874 C3873 1.524 . S
C3874 C3875 1.415 . S
C3875 H3845 0.950 . S
C3875 C3870 1.363 . S
C3875 C3874 1.415 . S
H3876 C3873 0.999 . S
H3877 C3858 0.913 . S
H3878 C3896 0.951 . S
H3879 C3898 0.951 . S
H3880 C3900 0.950 . S
H3881 C3901 0.950 . S
H3882 C3903 0.950 . S
H3883 C3906 0.950 . S
H3884 C3907 0.950 . S
H3885 C3909 0.950 . S
H3886 C3910 0.950 . S
H3887 C3911 0.951 . S
H3888 C3913 0.951 . S
H3889 C3915 0.950 . S
H3890 C3916 0.950 . S
H3891 C3918 0.950 . S
H3892 C3921 0.950 . S
H3893 C3922 0.950 . S
H3894 C3924 0.950 . S
H3895 C3925 0.950 . S
C3896 H3878 0.951 . S
C3896 C3897 1.366 . S
C3896 C3898 1.388 . S
C3897 C3896 1.366 . S
C3897 C3901 1.385 . S
C3898 H3879 0.951 . S
C3898 C3896 1.388 . S
C3898 C3899 1.366 . S
C3899 C3898 1.366 . S
C3899 C3900 1.414 . S
C3899 C3902 1.499 . S
C3900 H3880 0.950 . S
C3900 C3899 1.414 . S
C3900 C3901 1.374 . S
C3901 H3881 0.950 . S
C3901 C3897 1.385 . S
C3901 C3900 1.374 . S
C3902 C3899 1.499 . S
C3902 C3903 1.373 . S
C3902 C3904 1.389 . S
C3903 H3882 0.950 . S
C3903 C3902 1.373 . S
C3903 C3919 1.377 . S
C3904 C3902 1.389 . S
C3904 C3905 1.524 . S
C3904 C3918 1.377 . S
C3905 C3904 1.524 . S
C3905 C3906 1.397 . S
C3905 C3910 1.363 . S
C3906 H3883 0.950 . S
C3906 C3905 1.397 . S
C3906 C3907 1.334 . S
C3907 H3884 0.950 . S
C3907 C3906 1.334 . S
C3907 C3908 1.287 . S
C3908 C3907 1.287 . S
C3908 C3909 1.524 . S
C3908 H3927 0.913 . S
C3909 H3885 0.950 . S
C3909 C3908 1.524 . S
C3909 C3910 1.415 . S
C3910 H3886 0.950 . S
C3910 C3905 1.363 . S
C3910 C3909 1.415 . S
C3911 H3887 0.951 . S
C3911 C3912 1.366 . S
C3911 C3913 1.388 . S
C3912 C3911 1.366 . S
C3912 C3916 1.385 . S
C3913 H3888 0.951 . S
C3913 C3911 1.388 . S
C3913 C3914 1.366 . S
C3914 C3913 1.366 . S
C3914 C3915 1.414 . S
C3914 C3917 1.499 . S
C3915 H3889 0.950 . S
C3915 C3914 1.414 . S
C3915 C3916 1.374 . S
C3916 H3890 0.950 . S
C3916 C3912 1.385 . S
C3916 C3915 1.374 . S
C3917 C3914 1.499 . S
C3917 C3918 1.373 . S
C3917 C3919 1.389 . S
C3918 H3891 0.950 . S
C3918 C3904 1.377 . S
C3918 C3917 1.373 . S
C3919 C3903 1.377 . S
C3919 C3917 1.389 . S
C3919 C3920 1.524 . S
C3920 C3919 1.524 . S
C3920 C3921 1.397 . S
C3920 C3925 1.363 . S
C3921 H3892 0.950 . S
C3921 C3920 1.397 . S
C3921 C3922 1.334 . S
C3922 H3893 0.950 . S
C3922 C3921 1.334 . S
C3922 C3923 1.287 . S
C3923 C3922 1.287 . S
C3923 C3924 1.524 . S
C3923 H3926 0.999 . S
C3924 H3894 0.950 . S
C3924 C3923 1.524 . S
C3924 C3925 1.415 . S
C3925 H3895 0.950 . S
C3925 C3920 1.363 . S
C3925 C3924 1.415 . S
H3926 C3923 0.999 . S
H3927 C3908 0.913 . S
H3928 C3946 0.951 . S
H3929 C3948 0.951 . S
H3930 C3950 0.950 . S
H3931 C3951 0.950 . S
H3932 C3953 0.950 . S
H3933 C3956 0.950 . S
H3934 C3957 0.950 . S
H3935 C3959 0.950 . S
H3936 C3960 0.950 . S
H3937 C3961 0.951 . S
H3938 C3963 0.951 . S
H3939 C3965 0.950 . S
H3940 C3966 0.950 . S
H3941 C3968 0.950 . S
H3942 C3971 0.950 . S
H3943 C3972 0.950 . S
H3944 C3974 0.950 . S
H3945 C3975 0.950 . S
C3946 H3928 0.951 . S
C3946 C3947 1.366 . S
C3946 C3948 1.388 . S
C3947 C3946 1.366 . S
C3947 C3951 1.385 . S
C3948 H3929 0.951 . S
C3948 C3946 1.388 . S
C3948 C3949 1.366 . S
C3949 C3948 1.366 . S
C3949 C3950 1.414 . S
C3949 C3952 1.499 . S
C3950 H3930 0.950 . S
C3950 C3949 1.414 . S
C3950 C3951 1.374 . S
C3951 H3931 0.950 . S
C3951 C3947 1.385 . S
C3951 C3950 1.374 . S
C3952 C3949 1.499 . S
C3952 C3953 1.373 . S
C3952 C3954 1.389 . S
C3953 H3932 0.950 . S
C3953 C3952 1.373 . S
C3953 C3969 1.377 . S
C3954 C3952 1.389 . S
C3954 C3955 1.524 . S
C3954 C3968 1.377 . S
C3955 C3954 1.524 . S
C3955 C3956 1.397 . S
C3955 C3960 1.363 . S
C3956 H3933 0.950 . S
C3956 C3955 1.397 . S
C3956 C3957 1.334 . S
C3957 H3934 0.950 . S
C3957 C3956 1.334 . S
C3957 C3958 1.287 . S
C3958 C3957 1.287 . S
C3958 C3959 1.524 . S
C3958 H3977 0.913 . S
C3959 H3935 0.950 . S
C3959 C3958 1.524 . S
C3959 C3960 1.415 . S
C3960 H3936 0.950 . S
C3960 C3955 1.363 . S
C3960 C3959 1.415 . S
C3961 H3937 0.951 . S
C3961 C3962 1.366 . S
C3961 C3963 1.388 . S
C3962 C3961 1.366 . S
C3962 C3966 1.385 . S
C3963 H3938 0.951 . S
C3963 C3961 1.388 . S
C3963 C3964 1.366 . S
C3964 C3963 1.366 . S
C3964 C3965 1.414 . S
C3964 C3967 1.499 . S
C3965 H3939 0.950 . S
C3965 C3964 1.414 . S
C3965 C3966 1.374 . S
C3966 H3940 0.950 . S
C3966 C3962 1.385 . S
C3966 C3965 1.374 . S
C3967 C3964 1.499 . S
C3967 C3968 1.373 . S
C3967 C3969 1.389 . S
C3968 H3941 0.950 . S
C3968 C3954 1.377 . S
C3968 C3967 1.373 . S
C3969 C3953 1.377 . S
C3969 C3967 1.389 . S
C3969 C3970 1.524 . S
C3970 C3969 1.524 . S
C3970 C3971 1.397 . S
C3970 C3975 1.363 . S
C3971 H3942 0.950 . S
C3971 C3970 1.397 . S
C3971 C3972 1.334 . S
C3972 H3943 0.950 . S
C3972 C3971 1.334 . S
C3972 C3973 1.287 . S
C3973 C3972 1.287 . S
C3973 C3974 1.524 . S
C3973 H3976 0.999 . S
C3974 H3944 0.950 . S
C3974 C3973 1.524 . S
C3974 C3975 1.415 . S
C3975 H3945 0.950 . S
C3975 C3970 1.363 . S
C3975 C3974 1.415 . S
H3976 C3973 0.999 . S
H3977 C3958 0.913 . S
H3978 C3996 0.951 . S
H3979 C3998 0.951 . S
H3980 C4000 0.950 . S
H3981 C4001 0.950 . S
H3982 C4003 0.950 . S
H3983 C4006 0.950 . S
H3984 C4007 0.950 . S
H3985 C4009 0.950 . S
H3986 C4010 0.950 . S
H3987 C4011 0.951 . S
H3988 C4013 0.951 . S
H3989 C4015 0.950 . S
H3990 C4016 0.950 . S
H3991 C4018 0.950 . S
H3992 C4021 0.950 . S
H3993 C4022 0.950 . S
H3994 C4024 0.950 . S
H3995 C4025 0.950 . S
C3996 H3978 0.951 . S
C3996 C3997 1.366 . S
C3996 C3998 1.388 . S
C3997 C3996 1.366 . S
C3997 C4001 1.385 . S
C3998 H3979 0.951 . S
C3998 C3996 1.388 . S
C3998 C3999 1.366 . S
C3999 C3998 1.366 . S
C3999 C4000 1.414 . S
C3999 C4002 1.499 . S
C4000 H3980 0.950 . S
C4000 C3999 1.414 . S
C4000 C4001 1.374 . S
C4001 H3981 0.950 . S
C4001 C3997 1.385 . S
C4001 C4000 1.374 . S
C4002 C3999 1.499 . S
C4002 C4003 1.373 . S
C4002 C4004 1.389 . S
C4003 H3982 0.950 . S
C4003 C4002 1.373 . S
C4003 C4019 1.377 . S
C4004 C4002 1.389 . S
C4004 C4005 1.524 . S
C4004 C4018 1.377 . S
C4005 C4004 1.524 . S
C4005 C4006 1.397 . S
C4005 C4010 1.363 . S
C4006 H3983 0.950 . S
C4006 C4005 1.397 . S
C4006 C4007 1.334 . S
C4007 H3984 0.950 . S
C4007 C4006 1.334 . S
C4007 C4008 1.287 . S
C4008 C4007 1.287 . S
C4008 C4009 1.524 . S
C4008 H4027 0.913 . S
C4009 H3985 0.950 . S
C4009 C4008 1.524 . S
C4009 C4010 1.415 . S
C4010 H3986 0.950 . S
C4010 C4005 1.363 . S
C4010 C4009 1.415 . S
C4011 H3987 0.951 . S
C4011 C4012 1.366 . S
C4011 C4013 1.388 . S
C4012 C4011 1.366 . S
C4012 C4016 1.385 . S
C4013 H3988 0.951 . S
C4013 C4011 1.388 . S
C4013 C4014 1.366 . S
C4014 C4013 1.366 . S
C4014 C4015 1.414 . S
C4014 C4017 1.499 . S
C4015 H3989 0.950 . S
C4015 C4014 1.414 . S
C4015 C4016 1.374 . S
C4016 H3990 0.950 . S
C4016 C4012 1.385 . S
C4016 C4015 1.374 . S
C4017 C4014 1.499 . S
C4017 C4018 1.373 . S
C4017 C4019 1.389 . S
C4018 H3991 0.950 . S
C4018 C4004 1.377 . S
C4018 C4017 1.373 . S
C4019 C4003 1.377 . S
C4019 C4017 1.389 . S
C4019 C4020 1.524 . S
C4020 C4019 1.524 . S
C4020 C4021 1.397 . S
C4020 C4025 1.363 . S
C4021 H3992 0.950 . S
C4021 C4020 1.397 . S
C4021 C4022 1.334 . S
C4022 H3993 0.950 . S
C4022 C4021 1.334 . S
C4022 C4023 1.287 . S
C4023 C4022 1.287 . S
C4023 C4024 1.524 . S
C4023 H4026 0.999 . S
C4024 H3994 0.950 . S
C4024 C4023 1.524 . S
C4024 C4025 1.415 . S
C4025 H3995 0.950 . S
C4025 C4020 1.363 . S
C4025 C4024 1.415 . S
H4026 C4023 0.999 . S
H4027 C4008 0.913 . S
H4028 C4046 0.951 . S
H4029 C4048 0.951 . S
H4030 C4050 0.950 . S
H4031 C4051 0.950 . S
H4032 C4053 0.950 . S
H4033 C4056 0.950 . S
H4034 C4057 0.950 . S
H4035 C4059 0.950 . S
H4036 C4060 0.950 . S
H4037 C4061 0.951 . S
H4038 C4063 0.951 . S
H4039 C4065 0.950 . S
H4040 C4066 0.950 . S
H4041 C4068 0.950 . S
H4042 C4071 0.950 . S
H4043 C4072 0.950 . S
H4044 C4074 0.950 . S
H4045 C4075 0.950 . S
C4046 H4028 0.951 . S
C4046 C4047 1.366 . S
C4046 C4048 1.388 . S
C4047 C4046 1.366 . S
C4047 C4051 1.385 . S
C4048 H4029 0.951 . S
C4048 C4046 1.388 . S
C4048 C4049 1.366 . S
C4049 C4048 1.366 . S
C4049 C4050 1.414 . S
C4049 C4052 1.499 . S
C4050 H4030 0.950 . S
C4050 C4049 1.414 . S
C4050 C4051 1.374 . S
C4051 H4031 0.950 . S
C4051 C4047 1.385 . S
C4051 C4050 1.374 . S
C4052 C4049 1.499 . S
C4052 C4053 1.373 . S
C4052 C4054 1.389 . S
C4053 H4032 0.950 . S
C4053 C4052 1.373 . S
C4053 C4069 1.377 . S
C4054 C4052 1.389 . S
C4054 C4055 1.524 . S
C4054 C4068 1.377 . S
C4055 C4054 1.524 . S
C4055 C4056 1.397 . S
C4055 C4060 1.363 . S
C4056 H4033 0.950 . S
C4056 C4055 1.397 . S
C4056 C4057 1.334 . S
C4057 H4034 0.950 . S
C4057 C4056 1.334 . S
C4057 C4058 1.287 . S
C4058 C4057 1.287 . S
C4058 C4059 1.524 . S
C4058 H4077 0.913 . S
C4059 H4035 0.950 . S
C4059 C4058 1.524 . S
C4059 C4060 1.415 . S
C4060 H4036 0.950 . S
C4060 C4055 1.363 . S
C4060 C4059 1.415 . S
C4061 H4037 0.951 . S
C4061 C4062 1.366 . S
C4061 C4063 1.388 . S
C4062 C4061 1.366 . S
C4062 C4066 1.385 . S
C4063 H4038 0.951 . S
C4063 C4061 1.388 . S
C4063 C4064 1.366 . S
C4064 C4063 1.366 . S
C4064 C4065 1.414 . S
C4064 C4067 1.499 . S
C4065 H4039 0.950 . S
C4065 C4064 1.414 . S
C4065 C4066 1.374 . S
C4066 H4040 0.950 . S
C4066 C4062 1.385 . S
C4066 C4065 1.374 . S
C4067 C4064 1.499 . S
C4067 C4068 1.373 . S
C4067 C4069 1.389 . S
C4068 H4041 0.950 . S
C4068 C4054 1.377 . S
C4068 C4067 1.373 . S
C4069 C4053 1.377 . S
C4069 C4067 1.389 . S
C4069 C4070 1.524 . S
C4070 C4069 1.524 . S
C4070 C4071 1.397 . S
C4070 C4075 1.363 . S
C4071 H4042 0.950 . S
C4071 C4070 1.397 . S
C4071 C4072 1.334 . S
C4072 H4043 0.950 . S
C4072 C4071 1.334 . S
C4072 C4073 1.287 . S
C4073 C4072 1.287 . S
C4073 C4074 1.524 . S
C4073 H4076 0.999 . S
C4074 H4044 0.950 . S
C4074 C4073 1.524 . S
C4074 C4075 1.415 . S
C4075 H4045 0.950 . S
C4075 C4070 1.363 . S
C4075 C4074 1.415 . S
H4076 C4073 0.999 . S
H4077 C4058 0.913 . S
H4078 C4096 0.951 . S
H4079 C4098 0.951 . S
H4080 C4100 0.950 . S
H4081 C4101 0.950 . S
H4082 C4103 0.950 . S
H4083 C4106 0.950 . S
H4084 C4107 0.950 . S
H4085 C4109 0.950 . S
H4086 C4110 0.950 . S
H4087 C4111 0.951 . S
H4088 C4113 0.951 1_655 S
H4089 C4115 0.950 . S
H4090 C4116 0.950 . S
H4091 C4118 0.950 . S
H4092 C4121 0.950 . S
H4093 C4122 0.950 . S
H4094 C4124 0.971 . S
H4095 C4125 0.950 1_655 S
C4096 H4078 0.951 . S
C4096 C4097 1.398 . S
C4096 C4098 1.388 . S
C4097 C4096 1.398 . S
C4097 C4101 1.360 1_455 S
C4098 H4079 0.951 . S
C4098 C4096 1.388 . S
C4098 C4099 1.366 . S
C4099 C4098 1.366 . S
C4099 C4100 1.414 1_455 S
C4099 C4102 1.499 . S
C4100 H4080 0.950 . S
C4100 C4099 1.414 1_655 S
C4100 C4101 1.374 . S
C4101 H4081 0.950 . S
C4101 C4097 1.360 1_655 S
C4101 C4100 1.374 . S
C4102 C4099 1.499 . S
C4102 C4103 1.373 . S
C4102 C4104 1.389 . S
C4103 H4082 0.950 . S
C4103 C4102 1.373 . S
C4103 C4119 1.377 . S
C4104 C4102 1.389 . S
C4104 C4105 1.524 . S
C4104 C4118 1.377 . S
C4105 C4104 1.524 . S
C4105 C4106 1.397 1_455 S
C4105 C4110 1.363 . S
C4106 H4083 0.950 . S
C4106 C4105 1.397 1_655 S
C4106 C4107 1.334 1_554 S
C4107 H4084 0.950 . S
C4107 C4106 1.334 1_556 S
C4107 C4108 1.287 . S
C4108 C4107 1.287 . S
C4108 C4109 1.524 1_655 S
C4108 H4127 0.913 . S
C4109 H4085 0.950 . S
C4109 C4108 1.524 1_455 S
C4109 C4110 1.415 1_556 S
C4110 H4086 0.950 . S
C4110 C4105 1.363 . S
C4110 C4109 1.415 1_554 S
C4111 H4087 0.951 . S
C4111 C4112 1.366 . S
C4111 C4113 1.388 . S
C4112 C4111 1.366 . S
C4112 C4116 1.385 . S
C4113 H4088 0.951 1_455 S
C4113 C4111 1.388 . S
C4113 C4114 1.366 . S
C4114 C4113 1.366 . S
C4114 C4115 1.414 . S
C4114 C4117 1.499 . S
C4115 H4089 0.950 . S
C4115 C4114 1.414 . S
C4115 C4116 1.374 . S
C4116 H4090 0.950 . S
C4116 C4112 1.385 . S
C4116 C4115 1.374 . S
C4117 C4114 1.499 . S
C4117 C4118 1.373 . S
C4117 C4119 1.389 . S
C4118 H4091 0.950 . S
C4118 C4104 1.377 . S
C4118 C4117 1.373 . S
C4119 C4103 1.377 . S
C4119 C4117 1.389 . S
C4119 C4120 1.524 . S
C4120 C4119 1.524 . S
C4120 C4121 1.397 . S
C4120 C4125 1.363 . S
C4121 H4092 0.950 . S
C4121 C4120 1.397 . S
C4121 C4122 1.334 . S
C4122 H4093 0.950 . S
C4122 C4121 1.334 . S
C4122 C4123 1.287 . S
C4123 C4122 1.287 . S
C4123 C4124 1.524 . S
C4123 H4126 0.999 . S
C4124 H4094 0.971 . S
C4124 C4123 1.524 . S
C4124 C4125 1.415 . S
C4125 H4095 0.950 1_455 S
C4125 C4120 1.363 . S
C4125 C4124 1.415 . S
H4126 C4123 0.999 . S
H4127 C4108 0.913 . S
H4128 C4146 0.951 . S
H4129 C4148 0.951 . S
H4130 C4150 0.950 . S
H4131 C4151 0.950 . S
H4132 C4153 0.950 . S
H4133 C4156 0.950 . S
H4134 C4157 0.950 . S
H4135 C4159 0.950 . S
H4136 C4160 0.950 . S
H4137 C4161 0.951 . S
H4138 C4163 0.951 . S
H4139 C4165 0.950 . S
H4140 C4166 0.950 . S
H4141 C4168 0.950 . S
H4142 C4171 0.950 . S
H4143 C4172 0.950 . S
H4144 C4174 0.950 . S
H4145 C4175 0.950 . S
C4146 H4128 0.951 . S
C4146 C4147 1.366 . S
C4146 C4148 1.388 . S
C4147 C4146 1.366 . S
C4147 C4151 1.385 . S
C4148 H4129 0.951 . S
C4148 C4146 1.388 . S
C4148 C4149 1.366 . S
C4149 C4148 1.366 . S
C4149 C4150 1.414 . S
C4149 C4152 1.499 . S
C4150 H4130 0.950 . S
C4150 C4149 1.414 . S
C4150 C4151 1.374 . S
C4151 H4131 0.950 . S
C4151 C4147 1.385 . S
C4151 C4150 1.374 . S
C4152 C4149 1.499 . S
C4152 C4153 1.373 . S
C4152 C4154 1.389 . S
C4153 H4132 0.950 . S
C4153 C4152 1.373 . S
C4153 C4169 1.377 . S
C4154 C4152 1.389 . S
C4154 C4155 1.524 . S
C4154 C4168 1.377 . S
C4155 C4154 1.524 . S
C4155 C4156 1.397 . S
C4155 C4160 1.363 . S
C4156 H4133 0.950 . S
C4156 C4155 1.397 . S
C4156 C4157 1.334 . S
C4157 H4134 0.950 . S
C4157 C4156 1.334 . S
C4157 C4158 1.287 . S
C4158 C4157 1.287 . S
C4158 C4159 1.524 . S
C4158 H4177 0.913 . S
C4159 H4135 0.950 . S
C4159 C4158 1.524 . S
C4159 C4160 1.415 . S
C4160 H4136 0.950 . S
C4160 C4155 1.363 . S
C4160 C4159 1.415 . S
C4161 H4137 0.951 . S
C4161 C4162 1.366 . S
C4161 C4163 1.388 . S
C4162 C4161 1.366 . S
C4162 C4166 1.385 . S
C4163 H4138 0.951 . S
C4163 C4161 1.388 . S
C4163 C4164 1.366 . S
C4164 C4163 1.366 . S
C4164 C4165 1.414 . S
C4164 C4167 1.499 . S
C4165 H4139 0.950 . S
C4165 C4164 1.414 . S
C4165 C4166 1.374 . S
C4166 H4140 0.950 . S
C4166 C4162 1.385 . S
C4166 C4165 1.374 . S
C4167 C4164 1.499 . S
C4167 C4168 1.373 . S
C4167 C4169 1.389 . S
C4168 H4141 0.950 . S
C4168 C4154 1.377 . S
C4168 C4167 1.373 . S
C4169 C4153 1.377 . S
C4169 C4167 1.389 . S
C4169 C4170 1.524 . S
C4170 C4169 1.524 . S
C4170 C4171 1.397 . S
C4170 C4175 1.363 . S
C4171 H4142 0.950 . S
C4171 C4170 1.397 . S
C4171 C4172 1.334 . S
C4172 H4143 0.950 . S
C4172 C4171 1.334 . S
C4172 C4173 1.287 . S
C4173 C4172 1.287 . S
C4173 C4174 1.524 . S
C4173 H4176 0.999 . S
C4174 H4144 0.950 . S
C4174 C4173 1.524 . S
C4174 C4175 1.415 . S
C4175 H4145 0.950 . S
C4175 C4170 1.363 . S
C4175 C4174 1.415 . S
H4176 C4173 0.999 . S
H4177 C4158 0.913 . S
H4178 C4196 0.951 . S
H4179 C4198 0.951 . S
H4180 C4200 0.950 . S
H4181 C4201 0.950 . S
H4182 C4203 0.950 . S
H4183 C4206 0.950 . S
H4184 C4207 0.950 . S
H4185 C4209 0.950 . S
H4186 C4210 0.950 . S
H4187 C4211 0.951 . S
H4188 C4213 0.951 . S
H4189 C4215 0.950 . S
H4190 C4216 0.950 . S
H4191 C4218 0.950 . S
H4192 C4221 0.950 . S
H4193 C4222 0.950 . S
H4194 C4224 0.950 . S
H4195 C4225 0.950 . S
C4196 H4178 0.951 . S
C4196 C4197 1.366 . S
C4196 C4198 1.388 . S
C4197 C4196 1.366 . S
C4197 C4201 1.385 . S
C4198 H4179 0.951 . S
C4198 C4196 1.388 . S
C4198 C4199 1.366 . S
C4199 C4198 1.366 . S
C4199 C4200 1.414 . S
C4199 C4202 1.499 . S
C4200 H4180 0.950 . S
C4200 C4199 1.414 . S
C4200 C4201 1.374 . S
C4201 H4181 0.950 . S
C4201 C4197 1.385 . S
C4201 C4200 1.374 . S
C4202 C4199 1.499 . S
C4202 C4203 1.373 . S
C4202 C4204 1.389 . S
C4203 H4182 0.950 . S
C4203 C4202 1.373 . S
C4203 C4219 1.377 . S
C4204 C4202 1.389 . S
C4204 C4205 1.524 . S
C4204 C4218 1.377 . S
C4205 C4204 1.524 . S
C4205 C4206 1.397 . S
C4205 C4210 1.363 . S
C4206 H4183 0.950 . S
C4206 C4205 1.397 . S
C4206 C4207 1.334 . S
C4207 H4184 0.950 . S
C4207 C4206 1.334 . S
C4207 C4208 1.287 . S
C4208 C4207 1.287 . S
C4208 C4209 1.524 . S
C4208 H4227 0.913 . S
C4209 H4185 0.950 . S
C4209 C4208 1.524 . S
C4209 C4210 1.415 . S
C4210 H4186 0.950 . S
C4210 C4205 1.363 . S
C4210 C4209 1.415 . S
C4211 H4187 0.951 . S
C4211 C4212 1.366 . S
C4211 C4213 1.388 . S
C4212 C4211 1.366 . S
C4212 C4216 1.385 . S
C4213 H4188 0.951 . S
C4213 C4211 1.388 . S
C4213 C4214 1.366 . S
C4214 C4213 1.366 . S
C4214 C4215 1.414 . S
C4214 C4217 1.499 . S
C4215 H4189 0.950 . S
C4215 C4214 1.414 . S
C4215 C4216 1.374 . S
C4216 H4190 0.950 . S
C4216 C4212 1.385 . S
C4216 C4215 1.374 . S
C4217 C4214 1.499 . S
C4217 C4218 1.373 . S
C4217 C4219 1.389 . S
C4218 H4191 0.950 . S
C4218 C4204 1.377 . S
C4218 C4217 1.373 . S
C4219 C4203 1.377 . S
C4219 C4217 1.389 . S
C4219 C4220 1.524 . S
C4220 C4219 1.524 . S
C4220 C4221 1.397 . S
C4220 C4225 1.363 . S
C4221 H4192 0.950 . S
C4221 C4220 1.397 . S
C4221 C4222 1.334 . S
C4222 H4193 0.950 . S
C4222 C4221 1.334 . S
C4222 C4223 1.287 . S
C4223 C4222 1.287 . S
C4223 C4224 1.524 . S
C4223 H4226 0.999 . S
C4224 H4194 0.950 . S
C4224 C4223 1.524 . S
C4224 C4225 1.415 . S
C4225 H4195 0.950 . S
C4225 C4220 1.363 . S
C4225 C4224 1.415 . S
H4226 C4223 0.999 . S
H4227 C4208 0.913 . S
H4228 C4246 0.951 . S
H4229 C4248 0.951 . S
H4230 C4250 0.950 . S
H4231 C4251 0.950 . S
H4232 C4253 0.950 . S
H4233 C4256 0.950 . S
H4234 C4257 0.950 . S
H4235 C4259 0.950 . S
H4236 C4260 0.950 . S
H4237 C4261 0.951 . S
H4238 C4263 0.951 . S
H4239 C4265 0.950 . S
H4240 C4266 0.950 . S
H4241 C4268 0.950 . S
H4242 C4271 0.950 . S
H4243 C4272 0.950 . S
H4244 C4274 0.950 . S
H4245 C4275 0.950 . S
C4246 H4228 0.951 . S
C4246 C4247 1.366 . S
C4246 C4248 1.388 . S
C4247 C4246 1.366 . S
C4247 C4251 1.385 . S
C4248 H4229 0.951 . S
C4248 C4246 1.388 . S
C4248 C4249 1.366 . S
C4249 C4248 1.366 . S
C4249 C4250 1.414 . S
C4249 C4252 1.499 . S
C4250 H4230 0.950 . S
C4250 C4249 1.414 . S
C4250 C4251 1.374 . S
C4251 H4231 0.950 . S
C4251 C4247 1.385 . S
C4251 C4250 1.374 . S
C4252 C4249 1.499 . S
C4252 C4253 1.373 . S
C4252 C4254 1.389 . S
C4253 H4232 0.950 . S
C4253 C4252 1.373 . S
C4253 C4269 1.377 . S
C4254 C4252 1.389 . S
C4254 C4255 1.524 . S
C4254 C4268 1.377 . S
C4255 C4254 1.524 . S
C4255 C4256 1.397 . S
C4255 C4260 1.363 . S
C4256 H4233 0.950 . S
C4256 C4255 1.397 . S
C4256 C4257 1.334 . S
C4257 H4234 0.950 . S
C4257 C4256 1.334 . S
C4257 C4258 1.287 . S
C4258 C4257 1.287 . S
C4258 C4259 1.524 . S
C4258 H4277 0.913 . S
C4259 H4235 0.950 . S
C4259 C4258 1.524 . S
C4259 C4260 1.415 . S
C4260 H4236 0.950 . S
C4260 C4255 1.363 . S
C4260 C4259 1.415 . S
C4261 H4237 0.951 . S
C4261 C4262 1.366 . S
C4261 C4263 1.388 . S
C4262 C4261 1.366 . S
C4262 C4266 1.385 . S
C4263 H4238 0.951 . S
C4263 C4261 1.388 . S
C4263 C4264 1.366 . S
C4264 C4263 1.366 . S
C4264 C4265 1.414 . S
C4264 C4267 1.499 . S
C4265 H4239 0.950 . S
C4265 C4264 1.414 . S
C4265 C4266 1.374 . S
C4266 H4240 0.950 . S
C4266 C4262 1.385 . S
C4266 C4265 1.374 . S
C4267 C4264 1.499 . S
C4267 C4268 1.373 . S
C4267 C4269 1.389 . S
C4268 H4241 0.950 . S
C4268 C4254 1.377 . S
C4268 C4267 1.373 . S
C4269 C4253 1.377 . S
C4269 C4267 1.389 . S
C4269 C4270 1.524 . S
C4270 C4269 1.524 . S
C4270 C4271 1.397 . S
C4270 C4275 1.363 . S
C4271 H4242 0.950 . S
C4271 C4270 1.397 . S
C4271 C4272 1.334 . S
C4272 H4243 0.950 . S
C4272 C4271 1.334 . S
C4272 C4273 1.287 . S
C4273 C4272 1.287 . S
C4273 C4274 1.524 . S
C4273 H4276 0.999 . S
C4274 H4244 0.950 . S
C4274 C4273 1.524 . S
C4274 C4275 1.415 . S
C4275 H4245 0.950 . S
C4275 C4270 1.363 . S
C4275 C4274 1.415 . S
H4276 C4273 0.999 . S
H4277 C4258 0.913 . S
H4278 C4296 0.951 . S
H4279 C4298 0.951 . S
H4280 C4300 0.950 . S
H4281 C4301 0.950 . S
H4282 C4303 0.950 . S
H4283 C4306 0.950 . S
H4284 C4307 0.950 . S
H4285 C4309 0.950 . S
H4286 C4310 0.950 . S
H4287 C4311 0.951 . S
H4288 C4313 0.951 . S
H4289 C4315 0.950 . S
H4290 C4316 0.950 . S
H4291 C4318 0.950 . S
H4292 C4321 0.950 . S
H4293 C4322 0.950 . S
H4294 C4324 0.950 . S
H4295 C4325 0.950 . S
C4296 H4278 0.951 . S
C4296 C4297 1.366 . S
C4296 C4298 1.388 . S
C4297 C4296 1.366 . S
C4297 C4301 1.385 . S
C4298 H4279 0.951 . S
C4298 C4296 1.388 . S
C4298 C4299 1.366 . S
C4299 C4298 1.366 . S
C4299 C4300 1.414 . S
C4299 C4302 1.499 . S
C4300 H4280 0.950 . S
C4300 C4299 1.414 . S
C4300 C4301 1.374 . S
C4301 H4281 0.950 . S
C4301 C4297 1.385 . S
C4301 C4300 1.374 . S
C4302 C4299 1.499 . S
C4302 C4303 1.373 . S
C4302 C4304 1.389 . S
C4303 H4282 0.950 . S
C4303 C4302 1.373 . S
C4303 C4319 1.377 . S
C4304 C4302 1.389 . S
C4304 C4305 1.524 . S
C4304 C4318 1.377 . S
C4305 C4304 1.524 . S
C4305 C4306 1.397 . S
C4305 C4310 1.363 . S
C4306 H4283 0.950 . S
C4306 C4305 1.397 . S
C4306 C4307 1.334 . S
C4307 H4284 0.950 . S
C4307 C4306 1.334 . S
C4307 C4308 1.287 . S
C4308 C4307 1.287 . S
C4308 C4309 1.524 . S
C4308 H4327 0.913 . S
C4309 H4285 0.950 . S
C4309 C4308 1.524 . S
C4309 C4310 1.415 . S
C4310 H4286 0.950 . S
C4310 C4305 1.363 . S
C4310 C4309 1.415 . S
C4311 H4287 0.951 . S
C4311 C4312 1.366 . S
C4311 C4313 1.388 . S
C4312 C4311 1.366 . S
C4312 C4316 1.385 . S
C4313 H4288 0.951 . S
C4313 C4311 1.388 . S
C4313 C4314 1.366 . S
C4314 C4313 1.366 . S
C4314 C4315 1.414 . S
C4314 C4317 1.499 . S
C4315 H4289 0.950 . S
C4315 C4314 1.414 . S
C4315 C4316 1.374 . S
C4316 H4290 0.950 . S
C4316 C4312 1.385 . S
C4316 C4315 1.374 . S
C4317 C4314 1.499 . S
C4317 C4318 1.373 . S
C4317 C4319 1.389 . S
C4318 H4291 0.950 . S
C4318 C4304 1.377 . S
C4318 C4317 1.373 . S
C4319 C4303 1.377 . S
C4319 C4317 1.389 . S
C4319 C4320 1.524 . S
C4320 C4319 1.524 . S
C4320 C4321 1.397 . S
C4320 C4325 1.363 . S
C4321 H4292 0.950 . S
C4321 C4320 1.397 . S
C4321 C4322 1.334 . S
C4322 H4293 0.950 . S
C4322 C4321 1.334 . S
C4322 C4323 1.287 . S
C4323 C4322 1.287 . S
C4323 C4324 1.524 . S
C4323 H4326 0.999 . S
C4324 H4294 0.950 . S
C4324 C4323 1.524 . S
C4324 C4325 1.415 . S
C4325 H4295 0.950 . S
C4325 C4320 1.363 . S
C4325 C4324 1.415 . S
H4326 C4323 0.999 . S
H4327 C4308 0.913 . S
H4328 C4346 0.951 . S
H4329 C4348 0.951 . S
H4330 C4350 0.950 . S
H4331 C4351 0.950 . S
H4332 C4353 0.950 . S
H4333 C4356 0.950 . S
H4334 C4357 0.950 . S
H4335 C4359 0.950 . S
H4336 C4360 0.950 . S
H4337 C4361 0.951 . S
H4338 C4363 0.951 . S
H4339 C4365 0.950 . S
H4340 C4366 0.950 . S
H4341 C4368 0.950 . S
H4342 C4371 0.950 . S
H4343 C4372 0.950 . S
H4344 C4374 0.950 . S
H4345 C4375 0.950 . S
C4346 H4328 0.951 . S
C4346 C4347 1.366 . S
C4346 C4348 1.388 . S
C4347 C4346 1.366 . S
C4347 C4351 1.385 . S
C4348 H4329 0.951 . S
C4348 C4346 1.388 . S
C4348 C4349 1.366 . S
C4349 C4348 1.366 . S
C4349 C4350 1.414 . S
C4349 C4352 1.499 . S
C4350 H4330 0.950 . S
C4350 C4349 1.414 . S
C4350 C4351 1.374 . S
C4351 H4331 0.950 . S
C4351 C4347 1.385 . S
C4351 C4350 1.374 . S
C4352 C4349 1.499 . S
C4352 C4353 1.373 . S
C4352 C4354 1.389 . S
C4353 H4332 0.950 . S
C4353 C4352 1.373 . S
C4353 C4369 1.377 . S
C4354 C4352 1.389 . S
C4354 C4355 1.524 . S
C4354 C4368 1.377 . S
C4355 C4354 1.524 . S
C4355 C4356 1.397 . S
C4355 C4360 1.363 . S
C4356 H4333 0.950 . S
C4356 C4355 1.397 . S
C4356 C4357 1.334 . S
C4357 H4334 0.950 . S
C4357 C4356 1.334 . S
C4357 C4358 1.287 . S
C4358 C4357 1.287 . S
C4358 C4359 1.524 . S
C4358 H4377 0.913 . S
C4359 H4335 0.950 . S
C4359 C4358 1.524 . S
C4359 C4360 1.415 . S
C4360 H4336 0.950 . S
C4360 C4355 1.363 . S
C4360 C4359 1.415 . S
C4361 H4337 0.951 . S
C4361 C4362 1.366 . S
C4361 C4363 1.388 . S
C4362 C4361 1.366 . S
C4362 C4366 1.385 . S
C4363 H4338 0.951 . S
C4363 C4361 1.388 . S
C4363 C4364 1.366 . S
C4364 C4363 1.366 . S
C4364 C4365 1.414 . S
C4364 C4367 1.499 . S
C4365 H4339 0.950 . S
C4365 C4364 1.414 . S
C4365 C4366 1.374 . S
C4366 H4340 0.950 . S
C4366 C4362 1.385 . S
C4366 C4365 1.374 . S
C4367 C4364 1.499 . S
C4367 C4368 1.373 . S
C4367 C4369 1.389 . S
C4368 H4341 0.950 . S
C4368 C4354 1.377 . S
C4368 C4367 1.373 . S
C4369 C4353 1.377 . S
C4369 C4367 1.389 . S
C4369 C4370 1.524 . S
C4370 C4369 1.524 . S
C4370 C4371 1.397 . S
C4370 C4375 1.363 . S
C4371 H4342 0.950 . S
C4371 C4370 1.397 . S
C4371 C4372 1.334 . S
C4372 H4343 0.950 . S
C4372 C4371 1.334 . S
C4372 C4373 1.287 . S
C4373 C4372 1.287 . S
C4373 C4374 1.524 . S
C4373 H4376 0.999 . S
C4374 H4344 0.950 . S
C4374 C4373 1.524 . S
C4374 C4375 1.415 . S
C4375 H4345 0.950 . S
C4375 C4370 1.363 . S
C4375 C4374 1.415 . S
H4376 C4373 0.999 . S
H4377 C4358 0.913 . S
H4378 C4396 0.951 . S
H4379 C4398 0.951 . S
H4380 C4400 0.950 . S
H4381 C4401 0.950 . S
H4382 C4403 0.950 . S
H4383 C4406 0.950 . S
H4384 C4407 0.950 . S
H4385 C4409 0.950 . S
H4386 C4410 0.950 . S
H4387 C4411 0.951 . S
H4388 C4413 0.951 . S
H4389 C4415 0.950 . S
H4390 C4416 0.950 . S
H4391 C4418 0.950 . S
H4392 C4421 0.950 . S
H4393 C4422 0.950 . S
H4394 C4424 0.950 . S
H4395 C4425 0.950 . S
C4396 H4378 0.951 . S
C4396 C4397 1.366 . S
C4396 C4398 1.388 . S
C4397 C4396 1.366 . S
C4397 C4401 1.385 . S
C4398 H4379 0.951 . S
C4398 C4396 1.388 . S
C4398 C4399 1.366 . S
C4399 C4398 1.366 . S
C4399 C4400 1.414 . S
C4399 C4402 1.499 . S
C4400 H4380 0.950 . S
C4400 C4399 1.414 . S
C4400 C4401 1.374 . S
C4401 H4381 0.950 . S
C4401 C4397 1.385 . S
C4401 C4400 1.374 . S
C4402 C4399 1.499 . S
C4402 C4403 1.373 . S
C4402 C4404 1.389 . S
C4403 H4382 0.950 . S
C4403 C4402 1.373 . S
C4403 C4419 1.377 . S
C4404 C4402 1.389 . S
C4404 C4405 1.524 . S
C4404 C4418 1.377 . S
C4405 C4404 1.524 . S
C4405 C4406 1.397 . S
C4405 C4410 1.363 . S
C4406 H4383 0.950 . S
C4406 C4405 1.397 . S
C4406 C4407 1.334 . S
C4407 H4384 0.950 . S
C4407 C4406 1.334 . S
C4407 C4408 1.287 . S
C4408 C4407 1.287 . S
C4408 C4409 1.524 . S
C4408 H4427 0.913 . S
C4409 H4385 0.950 . S
C4409 C4408 1.524 . S
C4409 C4410 1.415 . S
C4410 H4386 0.950 . S
C4410 C4405 1.363 . S
C4410 C4409 1.415 . S
C4411 H4387 0.951 . S
C4411 C4412 1.366 . S
C4411 C4413 1.388 . S
C4412 C4411 1.366 . S
C4412 C4416 1.385 . S
C4413 H4388 0.951 . S
C4413 C4411 1.388 . S
C4413 C4414 1.366 . S
C4414 C4413 1.366 . S
C4414 C4415 1.414 . S
C4414 C4417 1.499 . S
C4415 H4389 0.950 . S
C4415 C4414 1.414 . S
C4415 C4416 1.374 . S
C4416 H4390 0.950 . S
C4416 C4412 1.385 . S
C4416 C4415 1.374 . S
C4417 C4414 1.499 . S
C4417 C4418 1.373 . S
C4417 C4419 1.389 . S
C4418 H4391 0.950 . S
C4418 C4404 1.377 . S
C4418 C4417 1.373 . S
C4419 C4403 1.377 . S
C4419 C4417 1.389 . S
C4419 C4420 1.524 . S
C4420 C4419 1.524 . S
C4420 C4421 1.397 . S
C4420 C4425 1.363 . S
C4421 H4392 0.950 . S
C4421 C4420 1.397 . S
C4421 C4422 1.334 . S
C4422 H4393 0.950 . S
C4422 C4421 1.334 . S
C4422 C4423 1.287 . S
C4423 C4422 1.287 . S
C4423 C4424 1.524 . S
C4423 H4426 0.999 . S
C4424 H4394 0.950 . S
C4424 C4423 1.524 . S
C4424 C4425 1.415 . S
C4425 H4395 0.950 . S
C4425 C4420 1.363 . S
C4425 C4424 1.415 . S
H4426 C4423 0.999 . S
H4427 C4408 0.913 . S
H4428 C4446 0.951 . S
H4429 C4448 0.951 . S
H4430 C4450 0.950 . S
H4431 C4451 0.950 . S
H4432 C4453 0.950 . S
H4433 C4456 0.950 . S
H4434 C4457 0.950 . S
H4435 C4459 0.950 . S
H4436 C4460 0.950 . S
H4437 C4461 0.951 . S
H4438 C4463 0.951 . S
H4439 C4465 0.950 . S
H4440 C4466 0.950 . S
H4441 C4468 0.950 . S
H4442 C4471 0.950 . S
H4443 C4472 0.950 . S
H4444 C4474 0.950 . S
H4445 C4475 0.950 . S
C4446 H4428 0.951 . S
C4446 C4447 1.366 . S
C4446 C4448 1.388 . S
C4447 C4446 1.366 . S
C4447 C4451 1.385 . S
C4448 H4429 0.951 . S
C4448 C4446 1.388 . S
C4448 C4449 1.366 . S
C4449 C4448 1.366 . S
C4449 C4450 1.414 . S
C4449 C4452 1.499 . S
C4450 H4430 0.950 . S
C4450 C4449 1.414 . S
C4450 C4451 1.374 . S
C4451 H4431 0.950 . S
C4451 C4447 1.385 . S
C4451 C4450 1.374 . S
C4452 C4449 1.499 . S
C4452 C4453 1.373 . S
C4452 C4454 1.389 . S
C4453 H4432 0.950 . S
C4453 C4452 1.373 . S
C4453 C4469 1.377 . S
C4454 C4452 1.389 . S
C4454 C4455 1.524 . S
C4454 C4468 1.377 . S
C4455 C4454 1.524 . S
C4455 C4456 1.397 . S
C4455 C4460 1.363 . S
C4456 H4433 0.950 . S
C4456 C4455 1.397 . S
C4456 C4457 1.334 . S
C4457 H4434 0.950 . S
C4457 C4456 1.334 . S
C4457 C4458 1.287 . S
C4458 C4457 1.287 . S
C4458 C4459 1.524 . S
C4458 H4477 0.913 . S
C4459 H4435 0.950 . S
C4459 C4458 1.524 . S
C4459 C4460 1.415 . S
C4460 H4436 0.950 . S
C4460 C4455 1.363 . S
C4460 C4459 1.415 . S
C4461 H4437 0.951 . S
C4461 C4462 1.366 . S
C4461 C4463 1.388 . S
C4462 C4461 1.366 . S
C4462 C4466 1.385 . S
C4463 H4438 0.951 . S
C4463 C4461 1.388 . S
C4463 C4464 1.366 . S
C4464 C4463 1.366 . S
C4464 C4465 1.414 . S
C4464 C4467 1.499 . S
C4465 H4439 0.950 . S
C4465 C4464 1.414 . S
C4465 C4466 1.374 . S
C4466 H4440 0.950 . S
C4466 C4462 1.385 . S
C4466 C4465 1.374 . S
C4467 C4464 1.499 . S
C4467 C4468 1.373 . S
C4467 C4469 1.389 . S
C4468 H4441 0.950 . S
C4468 C4454 1.377 . S
C4468 C4467 1.373 . S
C4469 C4453 1.377 . S
C4469 C4467 1.389 . S
C4469 C4470 1.524 . S
C4470 C4469 1.524 . S
C4470 C4471 1.397 . S
C4470 C4475 1.363 . S
C4471 H4442 0.950 . S
C4471 C4470 1.397 . S
C4471 C4472 1.334 . S
C4472 H4443 0.950 . S
C4472 C4471 1.334 . S
C4472 C4473 1.287 . S
C4473 C4472 1.287 . S
C4473 C4474 1.524 . S
C4473 H4476 0.999 . S
C4474 H4444 0.950 . S
C4474 C4473 1.524 . S
C4474 C4475 1.415 . S
C4475 H4445 0.950 . S
C4475 C4470 1.363 . S
C4475 C4474 1.415 . S
H4476 C4473 0.999 . S
H4477 C4458 0.913 . S
H4478 C4496 0.951 . S
H4479 C4498 0.951 . S
H4480 C4500 0.950 . S
H4481 C4501 0.950 . S
H4482 C4503 0.950 . S
H4483 C4506 0.950 . S
H4484 C4507 0.950 . S
H4485 C4509 0.950 . S
H4486 C4510 0.950 . S
H4487 C4511 0.951 . S
H4488 C4513 0.951 . S
H4489 C4515 0.950 . S
H4490 C4516 0.950 . S
H4491 C4518 0.950 . S
H4492 C4521 0.950 . S
H4493 C4522 0.950 . S
H4494 C4524 0.950 . S
H4495 C4525 0.950 . S
C4496 H4478 0.951 . S
C4496 C4497 1.366 . S
C4496 C4498 1.388 . S
C4497 C4496 1.366 . S
C4497 C4501 1.385 . S
C4498 H4479 0.951 . S
C4498 C4496 1.388 . S
C4498 C4499 1.366 . S
C4499 C4498 1.366 . S
C4499 C4500 1.414 . S
C4499 C4502 1.499 . S
C4500 H4480 0.950 . S
C4500 C4499 1.414 . S
C4500 C4501 1.374 . S
C4501 H4481 0.950 . S
C4501 C4497 1.385 . S
C4501 C4500 1.374 . S
C4502 C4499 1.499 . S
C4502 C4503 1.373 . S
C4502 C4504 1.389 . S
C4503 H4482 0.950 . S
C4503 C4502 1.373 . S
C4503 C4519 1.377 . S
C4504 C4502 1.389 . S
C4504 C4505 1.524 . S
C4504 C4518 1.377 . S
C4505 C4504 1.524 . S
C4505 C4506 1.397 . S
C4505 C4510 1.363 . S
C4506 H4483 0.950 . S
C4506 C4505 1.397 . S
C4506 C4507 1.334 . S
C4507 H4484 0.950 . S
C4507 C4506 1.334 . S
C4507 C4508 1.287 . S
C4508 C4507 1.287 . S
C4508 C4509 1.524 . S
C4508 H4527 0.913 . S
C4509 H4485 0.950 . S
C4509 C4508 1.524 . S
C4509 C4510 1.415 . S
C4510 H4486 0.950 . S
C4510 C4505 1.363 . S
C4510 C4509 1.415 . S
C4511 H4487 0.951 . S
C4511 C4512 1.366 . S
C4511 C4513 1.388 . S
C4512 C4511 1.366 . S
C4512 C4516 1.385 . S
C4513 H4488 0.951 . S
C4513 C4511 1.388 . S
C4513 C4514 1.366 . S
C4514 C4513 1.366 . S
C4514 C4515 1.414 . S
C4514 C4517 1.499 . S
C4515 H4489 0.950 . S
C4515 C4514 1.414 . S
C4515 C4516 1.374 . S
C4516 H4490 0.950 . S
C4516 C4512 1.385 . S
C4516 C4515 1.374 . S
C4517 C4514 1.499 . S
C4517 C4518 1.373 . S
C4517 C4519 1.389 . S
C4518 H4491 0.950 . S
C4518 C4504 1.377 . S
C4518 C4517 1.373 . S
C4519 C4503 1.377 . S
C4519 C4517 1.389 . S
C4519 C4520 1.524 . S
C4520 C4519 1.524 . S
C4520 C4521 1.397 . S
C4520 C4525 1.363 . S
C4521 H4492 0.950 . S
C4521 C4520 1.397 . S
C4521 C4522 1.334 . S
C4522 H4493 0.950 . S
C4522 C4521 1.334 . S
C4522 C4523 1.287 . S
C4523 C4522 1.287 . S
C4523 C4524 1.524 . S
C4523 H4526 0.999 . S
C4524 H4494 0.950 . S
C4524 C4523 1.524 . S
C4524 C4525 1.415 . S
C4525 H4495 0.950 . S
C4525 C4520 1.363 . S
C4525 C4524 1.415 . S
H4526 C4523 0.999 . S
H4527 C4508 0.913 . S
H4528 C4546 0.951 . S
H4529 C4548 0.951 . S
H4530 C4550 0.950 . S
H4531 C4551 0.950 . S
H4532 C4553 0.950 . S
H4533 C4556 0.950 . S
H4534 C4557 0.950 . S
H4535 C4559 0.950 . S
H4536 C4560 0.950 . S
H4537 C4561 0.951 . S
H4538 C4563 0.951 . S
H4539 C4565 0.950 . S
H4540 C4566 0.950 . S
H4541 C4568 0.950 . S
H4542 C4571 0.950 . S
H4543 C4572 0.950 . S
H4544 C4574 0.950 . S
H4545 C4575 0.950 . S
C4546 H4528 0.951 . S
C4546 C4547 1.366 . S
C4546 C4548 1.388 . S
C4547 C4546 1.366 . S
C4547 C4551 1.385 . S
C4548 H4529 0.951 . S
C4548 C4546 1.388 . S
C4548 C4549 1.366 . S
C4549 C4548 1.366 . S
C4549 C4550 1.414 . S
C4549 C4552 1.499 . S
C4550 H4530 0.950 . S
C4550 C4549 1.414 . S
C4550 C4551 1.374 . S
C4551 H4531 0.950 . S
C4551 C4547 1.385 . S
C4551 C4550 1.374 . S
C4552 C4549 1.499 . S
C4552 C4553 1.373 . S
C4552 C4554 1.389 . S
C4553 H4532 0.950 . S
C4553 C4552 1.373 . S
C4553 C4569 1.377 . S
C4554 C4552 1.389 . S
C4554 C4555 1.524 . S
C4554 C4568 1.377 . S
C4555 C4554 1.524 . S
C4555 C4556 1.397 . S
C4555 C4560 1.363 . S
C4556 H4533 0.950 . S
C4556 C4555 1.397 . S
C4556 C4557 1.334 . S
C4557 H4534 0.950 . S
C4557 C4556 1.334 . S
C4557 C4558 1.287 . S
C4558 C4557 1.287 . S
C4558 C4559 1.524 . S
C4558 H4577 0.913 . S
C4559 H4535 0.950 . S
C4559 C4558 1.524 . S
C4559 C4560 1.415 . S
C4560 H4536 0.950 . S
C4560 C4555 1.363 . S
C4560 C4559 1.415 . S
C4561 H4537 0.951 . S
C4561 C4562 1.366 . S
C4561 C4563 1.388 . S
C4562 C4561 1.366 . S
C4562 C4566 1.385 . S
C4563 H4538 0.951 . S
C4563 C4561 1.388 . S
C4563 C4564 1.366 . S
C4564 C4563 1.366 . S
C4564 C4565 1.414 . S
C4564 C4567 1.499 . S
C4565 H4539 0.950 . S
C4565 C4564 1.414 . S
C4565 C4566 1.374 . S
C4566 H4540 0.950 . S
C4566 C4562 1.385 . S
C4566 C4565 1.374 . S
C4567 C4564 1.499 . S
C4567 C4568 1.373 . S
C4567 C4569 1.389 . S
C4568 H4541 0.950 . S
C4568 C4554 1.377 . S
C4568 C4567 1.373 . S
C4569 C4553 1.377 . S
C4569 C4567 1.389 . S
C4569 C4570 1.524 . S
C4570 C4569 1.524 . S
C4570 C4571 1.397 . S
C4570 C4575 1.363 . S
C4571 H4542 0.950 . S
C4571 C4570 1.397 . S
C4571 C4572 1.334 . S
C4572 H4543 0.950 . S
C4572 C4571 1.334 . S
C4572 C4573 1.287 . S
C4573 C4572 1.287 . S
C4573 C4574 1.524 . S
C4573 H4576 0.999 . S
C4574 H4544 0.950 . S
C4574 C4573 1.524 . S
C4574 C4575 1.415 . S
C4575 H4545 0.950 . S
C4575 C4570 1.363 . S
C4575 C4574 1.415 . S
H4576 C4573 0.999 . S
H4577 C4558 0.913 . S
H4578 C4596 0.951 . S
H4579 C4598 0.951 . S
H4580 C4600 0.950 . S
H4581 C4601 0.950 . S
H4582 C4603 0.950 . S
H4583 C4606 0.950 . S
H4584 C4607 0.950 . S
H4585 C4609 0.950 . S
H4586 C4610 0.950 . S
H4587 C4611 0.951 . S
H4588 C4613 0.954 1_455 S
H4589 C4615 0.950 . S
H4590 C4616 0.950 . S
H4591 C4618 0.950 . S
H4592 C4621 0.950 . S
H4593 C4622 0.950 . S
H4594 C4624 0.951 1_655 S
H4595 C4625 0.950 . S
C4596 H4578 0.951 . S
C4596 C4597 1.366 . S
C4596 C4598 1.388 . S
C4597 C4596 1.366 . S
C4597 C4601 1.385 . S
C4598 H4579 0.951 . S
C4598 C4596 1.388 . S
C4598 C4599 1.366 . S
C4599 C4598 1.366 . S
C4599 C4600 1.414 . S
C4599 C4602 1.499 . S
C4600 H4580 0.950 . S
C4600 C4599 1.414 . S
C4600 C4601 1.374 . S
C4601 H4581 0.950 . S
C4601 C4597 1.385 . S
C4601 C4600 1.374 . S
C4602 C4599 1.499 . S
C4602 C4603 1.373 . S
C4602 C4604 1.389 . S
C4603 H4582 0.950 . S
C4603 C4602 1.373 . S
C4603 C4619 1.377 . S
C4604 C4602 1.389 . S
C4604 C4605 1.524 . S
C4604 C4618 1.377 . S
C4605 C4604 1.524 . S
C4605 C4606 1.397 . S
C4605 C4610 1.363 . S
C4606 H4583 0.950 . S
C4606 C4605 1.397 . S
C4606 C4607 1.334 . S
C4607 H4584 0.950 . S
C4607 C4606 1.334 . S
C4607 C4608 1.287 . S
C4608 C4607 1.287 . S
C4608 C4609 1.524 . S
C4608 H4627 0.913 . S
C4609 H4585 0.950 . S
C4609 C4608 1.524 . S
C4609 C4610 1.415 . S
C4610 H4586 0.950 . S
C4610 C4605 1.363 . S
C4610 C4609 1.415 . S
C4611 H4587 0.951 . S
C4611 C4612 1.366 . S
C4611 C4613 1.436 . S
C4612 C4611 1.366 . S
C4612 C4616 1.385 . S
C4613 H4588 0.954 1_655 S
C4613 C4611 1.436 . S
C4613 C4614 1.320 1_655 S
C4614 C4613 1.320 1_455 S
C4614 C4615 1.414 . S
C4614 C4617 1.499 . S
C4615 H4589 0.950 . S
C4615 C4614 1.414 . S
C4615 C4616 1.374 1_455 S
C4616 H4590 0.950 . S
C4616 C4612 1.385 . S
C4616 C4615 1.374 1_655 S
C4617 C4614 1.499 . S
C4617 C4618 1.373 . S
C4617 C4619 1.389 . S
C4618 H4591 0.950 . S
C4618 C4604 1.377 . S
C4618 C4617 1.373 . S
C4619 C4603 1.377 . S
C4619 C4617 1.389 . S
C4619 C4620 1.524 . S
C4620 C4619 1.524 . S
C4620 C4621 1.397 . S
C4620 C4625 1.363 . S
C4621 H4592 0.950 . S
C4621 C4620 1.397 . S
C4621 C4622 1.334 1_455 S
C4622 H4593 0.950 . S
C4622 C4621 1.334 1_655 S
C4622 C4623 1.287 . S
C4623 C4622 1.287 . S
C4623 C4624 1.526 1_655 S
C4623 H4626 0.999 . S
C4624 H4594 0.951 1_455 S
C4624 C4623 1.526 1_455 S
C4624 C4625 1.412 . S
C4625 H4595 0.950 . S
C4625 C4620 1.363 . S
C4625 C4624 1.412 . S
H4626 C4623 0.999 . S
H4627 C4608 0.913 . S
H4628 C4646 0.960 . S
H4629 C4648 0.952 1_554 S
H4630 C4650 0.950 . S
H4631 C4651 0.950 . S
H4632 C4653 0.935 1_554 S
H4633 C4656 0.950 . S
H4634 C4657 0.950 . S
H4635 C4659 0.950 . S
H4636 C4660 0.950 . S
H4637 C4661 0.951 . S
H4638 C4663 0.951 . S
H4639 C4665 0.950 . S
H4640 C4666 0.961 . S
H4641 C4668 0.950 . S
H4642 C4671 0.950 . S
H4643 C4672 0.950 . S
H4644 C4674 0.950 . S
H4645 C4675 0.950 1_556 S
C4646 H4628 0.960 . S
C4646 C4647 1.358 1_554 S
C4646 C4648 1.387 1_554 S
C4647 C4646 1.358 1_556 S
C4647 C4651 1.385 . S
C4648 H4629 0.952 1_556 S
C4648 C4646 1.387 1_556 S
C4648 C4649 1.364 . S
C4649 C4648 1.364 . S
C4649 C4650 1.414 . S
C4649 C4652 1.499 . S
C4650 H4630 0.950 . S
C4650 C4649 1.414 . S
C4650 C4651 1.374 . S
C4651 H4631 0.950 . S
C4651 C4647 1.385 . S
C4651 C4650 1.374 . S
C4652 C4649 1.499 . S
C4652 C4653 1.393 . S
C4652 C4654 1.389 . S
C4653 H4632 0.935 1_556 S
C4653 C4652 1.393 . S
C4653 C4669 1.374 1_556 S
C4654 C4652 1.389 . S
C4654 C4655 1.524 . S
C4654 C4668 1.377 . S
C4655 C4654 1.524 . S
C4655 C4656 1.397 . S
C4655 C4660 1.363 . S
C4656 H4633 0.950 . S
C4656 C4655 1.397 . S
C4656 C4657 1.334 . S
C4657 H4634 0.950 . S
C4657 C4656 1.334 . S
C4657 C4658 1.287 . S
C4658 C4657 1.287 . S
C4658 C4659 1.524 . S
C4658 H4677 0.913 . S
C4659 H4635 0.950 . S
C4659 C4658 1.524 . S
C4659 C4660 1.415 . S
C4660 H4636 0.950 . S
C4660 C4655 1.363 . S
C4660 C4659 1.415 . S
C4661 H4637 0.951 . S
C4661 C4662 1.366 . S
C4661 C4663 1.388 . S
C4662 C4661 1.366 . S
C4662 C4666 1.373 1_556 S
C4663 H4638 0.951 . S
C4663 C4661 1.388 . S
C4663 C4664 1.366 . S
C4664 C4663 1.366 . S
C4664 C4665 1.414 1_556 S
C4664 C4667 1.499 . S
C4665 H4639 0.950 . S
C4665 C4664 1.414 1_554 S
C4665 C4666 1.375 . S
C4666 H4640 0.961 . S
C4666 C4662 1.373 1_554 S
C4666 C4665 1.375 . S
C4667 C4664 1.499 . S
C4667 C4668 1.373 . S
C4667 C4669 1.377 1_556 S
C4668 H4641 0.950 . S
C4668 C4654 1.377 . S
C4668 C4667 1.373 . S
C4669 C4653 1.374 1_554 S
C4669 C4667 1.377 1_554 S
C4669 C4670 1.542 . S
C4670 C4669 1.542 . S
C4670 C4671 1.397 . S
C4670 C4675 1.363 . S
C4671 H4642 0.950 . S
C4671 C4670 1.397 . S
C4671 C4672 1.334 . S
C4672 H4643 0.950 . S
C4672 C4671 1.334 . S
C4672 C4673 1.287 . S
C4673 C4672 1.287 . S
C4673 C4674 1.524 . S
C4673 H4676 0.999 . S
C4674 H4644 0.950 . S
C4674 C4673 1.524 . S
C4674 C4675 1.415 . S
C4675 H4645 0.950 1_554 S
C4675 C4670 1.363 . S
C4675 C4674 1.415 . S
H4676 C4673 0.999 . S
H4677 C4658 0.913 . S
H4678 C4696 0.951 . S
H4679 C4698 0.951 . S
H4680 C4700 0.950 . S
H4681 C4701 0.950 . S
H4682 C4703 0.950 . S
H4683 C4706 0.950 . S
H4684 C4707 0.950 . S
H4685 C4709 0.950 . S
H4686 C4710 0.950 . S
H4687 C4711 0.951 . S
H4688 C4713 0.951 . S
H4689 C4715 0.950 . S
H4690 C4716 0.950 . S
H4691 C4718 0.950 . S
H4692 C4721 0.950 . S
H4693 C4722 0.950 . S
H4694 C4724 0.950 . S
H4695 C4725 0.950 . S
C4696 H4678 0.951 . S
C4696 C4697 1.366 . S
C4696 C4698 1.388 . S
C4697 C4696 1.366 . S
C4697 C4701 1.385 . S
C4698 H4679 0.951 . S
C4698 C4696 1.388 . S
C4698 C4699 1.366 . S
C4699 C4698 1.366 . S
C4699 C4700 1.414 . S
C4699 C4702 1.499 . S
C4700 H4680 0.950 . S
C4700 C4699 1.414 . S
C4700 C4701 1.374 . S
C4701 H4681 0.950 . S
C4701 C4697 1.385 . S
C4701 C4700 1.374 . S
C4702 C4699 1.499 . S
C4702 C4703 1.373 . S
C4702 C4704 1.389 . S
C4703 H4682 0.950 . S
C4703 C4702 1.373 . S
C4703 C4719 1.377 . S
C4704 C4702 1.389 . S
C4704 C4705 1.524 . S
C4704 C4718 1.377 . S
C4705 C4704 1.524 . S
C4705 C4706 1.397 . S
C4705 C4710 1.363 . S
C4706 H4683 0.950 . S
C4706 C4705 1.397 . S
C4706 C4707 1.334 . S
C4707 H4684 0.950 . S
C4707 C4706 1.334 . S
C4707 C4708 1.287 . S
C4708 C4707 1.287 . S
C4708 C4709 1.524 . S
C4708 H4727 0.913 . S
C4709 H4685 0.950 . S
C4709 C4708 1.524 . S
C4709 C4710 1.415 . S
C4710 H4686 0.950 . S
C4710 C4705 1.363 . S
C4710 C4709 1.415 . S
C4711 H4687 0.951 . S
C4711 C4712 1.366 . S
C4711 C4713 1.388 . S
C4712 C4711 1.366 . S
C4712 C4716 1.385 . S
C4713 H4688 0.951 . S
C4713 C4711 1.388 . S
C4713 C4714 1.366 . S
C4714 C4713 1.366 . S
C4714 C4715 1.414 . S
C4714 C4717 1.499 . S
C4715 H4689 0.950 . S
C4715 C4714 1.414 . S
C4715 C4716 1.374 . S
C4716 H4690 0.950 . S
C4716 C4712 1.385 . S
C4716 C4715 1.374 . S
C4717 C4714 1.499 . S
C4717 C4718 1.373 . S
C4717 C4719 1.389 . S
C4718 H4691 0.950 . S
C4718 C4704 1.377 . S
C4718 C4717 1.373 . S
C4719 C4703 1.377 . S
C4719 C4717 1.389 . S
C4719 C4720 1.524 . S
C4720 C4719 1.524 . S
C4720 C4721 1.397 . S
C4720 C4725 1.363 . S
C4721 H4692 0.950 . S
C4721 C4720 1.397 . S
C4721 C4722 1.334 . S
C4722 H4693 0.950 . S
C4722 C4721 1.334 . S
C4722 C4723 1.287 . S
C4723 C4722 1.287 . S
C4723 C4724 1.524 . S
C4723 H4726 0.999 . S
C4724 H4694 0.950 . S
C4724 C4723 1.524 . S
C4724 C4725 1.415 . S
C4725 H4695 0.950 . S
C4725 C4720 1.363 . S
C4725 C4724 1.415 . S
H4726 C4723 0.999 . S
H4727 C4708 0.913 . S
H4728 C4746 0.951 . S
H4729 C4748 0.951 . S
H4730 C4750 0.950 . S
H4731 C4751 0.950 . S
H4732 C4753 0.950 . S
H4733 C4756 0.950 . S
H4734 C4757 0.950 . S
H4735 C4759 0.950 . S
H4736 C4760 0.950 . S
H4737 C4761 0.951 . S
H4738 C4763 0.951 . S
H4739 C4765 0.950 . S
H4740 C4766 0.950 . S
H4741 C4768 0.950 . S
H4742 C4771 0.950 . S
H4743 C4772 0.950 . S
H4744 C4774 0.950 . S
H4745 C4775 0.950 . S
C4746 H4728 0.951 . S
C4746 C4747 1.366 . S
C4746 C4748 1.388 . S
C4747 C4746 1.366 . S
C4747 C4751 1.385 . S
C4748 H4729 0.951 . S
C4748 C4746 1.388 . S
C4748 C4749 1.366 . S
C4749 C4748 1.366 . S
C4749 C4750 1.414 . S
C4749 C4752 1.499 . S
C4750 H4730 0.950 . S
C4750 C4749 1.414 . S
C4750 C4751 1.374 . S
C4751 H4731 0.950 . S
C4751 C4747 1.385 . S
C4751 C4750 1.374 . S
C4752 C4749 1.499 . S
C4752 C4753 1.373 . S
C4752 C4754 1.389 . S
C4753 H4732 0.950 . S
C4753 C4752 1.373 . S
C4753 C4769 1.377 . S
C4754 C4752 1.389 . S
C4754 C4755 1.524 . S
C4754 C4768 1.377 . S
C4755 C4754 1.524 . S
C4755 C4756 1.397 . S
C4755 C4760 1.363 . S
C4756 H4733 0.950 . S
C4756 C4755 1.397 . S
C4756 C4757 1.334 . S
C4757 H4734 0.950 . S
C4757 C4756 1.334 . S
C4757 C4758 1.287 . S
C4758 C4757 1.287 . S
C4758 C4759 1.524 . S
C4758 H4777 0.913 . S
C4759 H4735 0.950 . S
C4759 C4758 1.524 . S
C4759 C4760 1.415 . S
C4760 H4736 0.950 . S
C4760 C4755 1.363 . S
C4760 C4759 1.415 . S
C4761 H4737 0.951 . S
C4761 C4762 1.366 . S
C4761 C4763 1.388 . S
C4762 C4761 1.366 . S
C4762 C4766 1.385 . S
C4763 H4738 0.951 . S
C4763 C4761 1.388 . S
C4763 C4764 1.366 . S
C4764 C4763 1.366 . S
C4764 C4765 1.414 . S
C4764 C4767 1.499 . S
C4765 H4739 0.950 . S
C4765 C4764 1.414 . S
C4765 C4766 1.374 . S
C4766 H4740 0.950 . S
C4766 C4762 1.385 . S
C4766 C4765 1.374 . S
C4767 C4764 1.499 . S
C4767 C4768 1.373 . S
C4767 C4769 1.389 . S
C4768 H4741 0.950 . S
C4768 C4754 1.377 . S
C4768 C4767 1.373 . S
C4769 C4753 1.377 . S
C4769 C4767 1.389 . S
C4769 C4770 1.524 . S
C4770 C4769 1.524 . S
C4770 C4771 1.397 . S
C4770 C4775 1.363 . S
C4771 H4742 0.950 . S
C4771 C4770 1.397 . S
C4771 C4772 1.334 . S
C4772 H4743 0.950 . S
C4772 C4771 1.334 . S
C4772 C4773 1.287 . S
C4773 C4772 1.287 . S
C4773 C4774 1.524 . S
C4773 H4776 0.999 . S
C4774 H4744 0.950 . S
C4774 C4773 1.524 . S
C4774 C4775 1.415 . S
C4775 H4745 0.950 . S
C4775 C4770 1.363 . S
C4775 C4774 1.415 . S
H4776 C4773 0.999 . S
H4777 C4758 0.913 . S
H4778 C4796 0.951 . S
H4779 C4798 0.951 . S
H4780 C4800 0.950 . S
H4781 C4801 0.950 . S
H4782 C4803 0.950 . S
H4783 C4806 0.950 . S
H4784 C4807 0.950 . S
H4785 C4809 0.950 . S
H4786 C4810 0.950 . S
H4787 C4811 0.951 . S
H4788 C4813 0.951 . S
H4789 C4815 0.950 . S
H4790 C4816 0.950 . S
H4791 C4818 0.950 . S
H4792 C4821 0.950 . S
H4793 C4822 0.950 . S
H4794 C4824 0.950 . S
H4795 C4825 0.950 . S
C4796 H4778 0.951 . S
C4796 C4797 1.366 . S
C4796 C4798 1.388 . S
C4797 C4796 1.366 . S
C4797 C4801 1.385 . S
C4798 H4779 0.951 . S
C4798 C4796 1.388 . S
C4798 C4799 1.366 . S
C4799 C4798 1.366 . S
C4799 C4800 1.414 . S
C4799 C4802 1.499 . S
C4800 H4780 0.950 . S
C4800 C4799 1.414 . S
C4800 C4801 1.374 . S
C4801 H4781 0.950 . S
C4801 C4797 1.385 . S
C4801 C4800 1.374 . S
C4802 C4799 1.499 . S
C4802 C4803 1.373 . S
C4802 C4804 1.389 . S
C4803 H4782 0.950 . S
C4803 C4802 1.373 . S
C4803 C4819 1.377 . S
C4804 C4802 1.389 . S
C4804 C4805 1.524 . S
C4804 C4818 1.377 . S
C4805 C4804 1.524 . S
C4805 C4806 1.397 . S
C4805 C4810 1.363 . S
C4806 H4783 0.950 . S
C4806 C4805 1.397 . S
C4806 C4807 1.334 . S
C4807 H4784 0.950 . S
C4807 C4806 1.334 . S
C4807 C4808 1.287 . S
C4808 C4807 1.287 . S
C4808 C4809 1.524 . S
C4808 H4827 0.913 . S
C4809 H4785 0.950 . S
C4809 C4808 1.524 . S
C4809 C4810 1.415 . S
C4810 H4786 0.950 . S
C4810 C4805 1.363 . S
C4810 C4809 1.415 . S
C4811 H4787 0.951 . S
C4811 C4812 1.366 . S
C4811 C4813 1.388 . S
C4812 C4811 1.366 . S
C4812 C4816 1.385 . S
C4813 H4788 0.951 . S
C4813 C4811 1.388 . S
C4813 C4814 1.366 . S
C4814 C4813 1.366 . S
C4814 C4815 1.414 . S
C4814 C4817 1.499 . S
C4815 H4789 0.950 . S
C4815 C4814 1.414 . S
C4815 C4816 1.374 . S
C4816 H4790 0.950 . S
C4816 C4812 1.385 . S
C4816 C4815 1.374 . S
C4817 C4814 1.499 . S
C4817 C4818 1.373 . S
C4817 C4819 1.389 . S
C4818 H4791 0.950 . S
C4818 C4804 1.377 . S
C4818 C4817 1.373 . S
C4819 C4803 1.377 . S
C4819 C4817 1.389 . S
C4819 C4820 1.524 . S
C4820 C4819 1.524 . S
C4820 C4821 1.397 . S
C4820 C4825 1.363 . S
C4821 H4792 0.950 . S
C4821 C4820 1.397 . S
C4821 C4822 1.334 . S
C4822 H4793 0.950 . S
C4822 C4821 1.334 . S
C4822 C4823 1.287 . S
C4823 C4822 1.287 . S
C4823 C4824 1.524 . S
C4823 H4826 0.999 . S
C4824 H4794 0.950 . S
C4824 C4823 1.524 . S
C4824 C4825 1.415 . S
C4825 H4795 0.950 . S
C4825 C4820 1.363 . S
C4825 C4824 1.415 . S
H4826 C4823 0.999 . S
H4827 C4808 0.913 . S
H4828 C4846 0.951 . S
H4829 C4848 0.951 . S
H4830 C4850 0.950 . S
H4831 C4851 0.950 . S
H4832 C4853 0.950 . S
H4833 C4856 0.950 . S
H4834 C4857 0.950 . S
H4835 C4859 0.950 . S
H4836 C4860 0.950 . S
H4837 C4861 0.951 . S
H4838 C4863 0.951 . S
H4839 C4865 0.950 . S
H4840 C4866 0.950 . S
H4841 C4868 0.950 . S
H4842 C4871 0.950 . S
H4843 C4872 0.950 . S
H4844 C4874 0.950 . S
H4845 C4875 0.950 . S
C4846 H4828 0.951 . S
C4846 C4847 1.366 . S
C4846 C4848 1.388 . S
C4847 C4846 1.366 . S
C4847 C4851 1.385 . S
C4848 H4829 0.951 . S
C4848 C4846 1.388 . S
C4848 C4849 1.366 . S
C4849 C4848 1.366 . S
C4849 C4850 1.414 . S
C4849 C4852 1.499 . S
C4850 H4830 0.950 . S
C4850 C4849 1.414 . S
C4850 C4851 1.374 . S
C4851 H4831 0.950 . S
C4851 C4847 1.385 . S
C4851 C4850 1.374 . S
C4852 C4849 1.499 . S
C4852 C4853 1.373 . S
C4852 C4854 1.389 . S
C4853 H4832 0.950 . S
C4853 C4852 1.373 . S
C4853 C4869 1.377 . S
C4854 C4852 1.389 . S
C4854 C4855 1.524 . S
C4854 C4868 1.377 . S
C4855 C4854 1.524 . S
C4855 C4856 1.397 . S
C4855 C4860 1.363 . S
C4856 H4833 0.950 . S
C4856 C4855 1.397 . S
C4856 C4857 1.334 . S
C4857 H4834 0.950 . S
C4857 C4856 1.334 . S
C4857 C4858 1.287 . S
C4858 C4857 1.287 . S
C4858 C4859 1.524 . S
C4858 H4877 0.913 . S
C4859 H4835 0.950 . S
C4859 C4858 1.524 . S
C4859 C4860 1.415 . S
C4860 H4836 0.950 . S
C4860 C4855 1.363 . S
C4860 C4859 1.415 . S
C4861 H4837 0.951 . S
C4861 C4862 1.366 . S
C4861 C4863 1.388 . S
C4862 C4861 1.366 . S
C4862 C4866 1.385 . S
C4863 H4838 0.951 . S
C4863 C4861 1.388 . S
C4863 C4864 1.366 . S
C4864 C4863 1.366 . S
C4864 C4865 1.414 . S
C4864 C4867 1.499 . S
C4865 H4839 0.950 . S
C4865 C4864 1.414 . S
C4865 C4866 1.374 . S
C4866 H4840 0.950 . S
C4866 C4862 1.385 . S
C4866 C4865 1.374 . S
C4867 C4864 1.499 . S
C4867 C4868 1.373 . S
C4867 C4869 1.389 . S
C4868 H4841 0.950 . S
C4868 C4854 1.377 . S
C4868 C4867 1.373 . S
C4869 C4853 1.377 . S
C4869 C4867 1.389 . S
C4869 C4870 1.524 . S
C4870 C4869 1.524 . S
C4870 C4871 1.397 . S
C4870 C4875 1.363 . S
C4871 H4842 0.950 . S
C4871 C4870 1.397 . S
C4871 C4872 1.334 . S
C4872 H4843 0.950 . S
C4872 C4871 1.334 . S
C4872 C4873 1.287 . S
C4873 C4872 1.287 . S
C4873 C4874 1.524 . S
C4873 H4876 0.999 . S
C4874 H4844 0.950 . S
C4874 C4873 1.524 . S
C4874 C4875 1.415 . S
C4875 H4845 0.950 . S
C4875 C4870 1.363 . S
C4875 C4874 1.415 . S
H4876 C4873 0.999 . S
H4877 C4858 0.913 . S
H4878 C4896 0.951 . S
H4879 C4898 0.951 . S
H4880 C4900 0.950 . S
H4881 C4901 0.950 1_565 S
H4882 C4903 0.950 . S
H4883 C4906 0.950 . S
H4884 C4907 0.950 . S
H4885 C4909 0.950 . S
H4886 C4910 0.950 . S
H4887 C4911 0.951 . S
H4888 C4913 0.951 . S
H4889 C4915 0.950 . S
H4890 C4916 0.950 . S
H4891 C4918 0.950 . S
H4892 C4921 0.950 . S
H4893 C4922 0.950 . S
H4894 C4924 0.950 . S
H4895 C4925 0.950 . S
C4896 H4878 0.951 . S
C4896 C4897 1.366 . S
C4896 C4898 1.388 . S
C4897 C4896 1.366 . S
C4897 C4901 1.384 . S
C4898 H4879 0.951 . S
C4898 C4896 1.388 . S
C4898 C4899 1.366 . S
C4899 C4898 1.366 . S
C4899 C4900 1.414 1_545 S
C4899 C4902 1.499 . S
C4900 H4880 0.950 . S
C4900 C4899 1.414 1_565 S
C4900 C4901 1.374 1_565 S
C4901 H4881 0.950 1_545 S
C4901 C4897 1.384 . S
C4901 C4900 1.374 1_545 S
C4902 C4899 1.499 . S
C4902 C4903 1.373 1_545 S
C4902 C4904 1.389 . S
C4903 H4882 0.950 . S
C4903 C4902 1.373 1_565 S
C4903 C4919 1.377 . S
C4904 C4902 1.389 . S
C4904 C4905 1.524 . S
C4904 C4918 1.377 . S
C4905 C4904 1.524 . S
C4905 C4906 1.397 . S
C4905 C4910 1.363 . S
C4906 H4883 0.950 . S
C4906 C4905 1.397 . S
C4906 C4907 1.334 . S
C4907 H4884 0.950 . S
C4907 C4906 1.334 . S
C4907 C4908 1.287 . S
C4908 C4907 1.287 . S
C4908 C4909 1.524 . S
C4908 H4927 0.913 . S
C4909 H4885 0.950 . S
C4909 C4908 1.524 . S
C4909 C4910 1.415 . S
C4910 H4886 0.950 . S
C4910 C4905 1.363 . S
C4910 C4909 1.415 . S
C4911 H4887 0.951 . S
C4911 C4912 1.366 . S
C4911 C4913 1.388 . S
C4912 C4911 1.366 . S
C4912 C4916 1.385 1_565 S
C4913 H4888 0.951 . S
C4913 C4911 1.388 . S
C4913 C4914 1.366 . S
C4914 C4913 1.366 . S
C4914 C4915 1.414 1_565 S
C4914 C4917 1.499 1_565 S
C4915 H4889 0.950 . S
C4915 C4914 1.414 1_545 S
C4915 C4916 1.374 . S
C4916 H4890 0.950 . S
C4916 C4912 1.385 1_545 S
C4916 C4915 1.374 . S
C4917 C4914 1.499 1_545 S
C4917 C4918 1.373 . S
C4917 C4919 1.389 1_545 S
C4918 H4891 0.950 . S
C4918 C4904 1.377 . S
C4918 C4917 1.373 . S
C4919 C4903 1.377 . S
C4919 C4917 1.389 1_565 S
C4919 C4920 1.524 . S
C4920 C4919 1.524 . S
C4920 C4921 1.397 . S
C4920 C4925 1.363 . S
C4921 H4892 0.950 . S
C4921 C4920 1.397 . S
C4921 C4922 1.334 . S
C4922 H4893 0.950 . S
C4922 C4921 1.334 . S
C4922 C4923 1.287 . S
C4923 C4922 1.287 . S
C4923 C4924 1.524 . S
C4923 H4926 0.999 . S
C4924 H4894 0.950 . S
C4924 C4923 1.524 . S
C4924 C4925 1.415 . S
C4925 H4895 0.950 . S
C4925 C4920 1.363 . S
C4925 C4924 1.415 . S
H4926 C4923 0.999 . S
H4927 C4908 0.913 . S
H4928 C4946 0.951 . S
H4929 C4948 0.951 . S
H4930 C4950 0.950 . S
H4931 C4951 0.950 . S
H4932 C4953 0.950 . S
H4933 C4956 0.950 . S
H4934 C4957 0.950 . S
H4935 C4959 0.950 . S
H4936 C4960 0.950 . S
H4937 C4961 0.951 . S
H4938 C4963 0.951 . S
H4939 C4965 0.950 . S
H4940 C4966 0.950 . S
H4941 C4968 0.950 . S
H4942 C4971 0.950 . S
H4943 C4972 0.950 . S
H4944 C4974 0.950 . S
H4945 C4975 0.950 . S
C4946 H4928 0.951 . S
C4946 C4947 1.366 . S
C4946 C4948 1.388 . S
C4947 C4946 1.366 . S
C4947 C4951 1.385 . S
C4948 H4929 0.951 . S
C4948 C4946 1.388 . S
C4948 C4949 1.366 . S
C4949 C4948 1.366 . S
C4949 C4950 1.414 . S
C4949 C4952 1.499 . S
C4950 H4930 0.950 . S
C4950 C4949 1.414 . S
C4950 C4951 1.374 . S
C4951 H4931 0.950 . S
C4951 C4947 1.385 . S
C4951 C4950 1.374 . S
C4952 C4949 1.499 . S
C4952 C4953 1.373 . S
C4952 C4954 1.389 . S
C4953 H4932 0.950 . S
C4953 C4952 1.373 . S
C4953 C4969 1.377 . S
C4954 C4952 1.389 . S
C4954 C4955 1.524 . S
C4954 C4968 1.377 . S
C4955 C4954 1.524 . S
C4955 C4956 1.397 . S
C4955 C4960 1.363 . S
C4956 H4933 0.950 . S
C4956 C4955 1.397 . S
C4956 C4957 1.334 . S
C4957 H4934 0.950 . S
C4957 C4956 1.334 . S
C4957 C4958 1.287 . S
C4958 C4957 1.287 . S
C4958 C4959 1.524 . S
C4958 H4977 0.913 . S
C4959 H4935 0.950 . S
C4959 C4958 1.524 . S
C4959 C4960 1.415 . S
C4960 H4936 0.950 . S
C4960 C4955 1.363 . S
C4960 C4959 1.415 . S
C4961 H4937 0.951 . S
C4961 C4962 1.366 . S
C4961 C4963 1.388 . S
C4962 C4961 1.366 . S
C4962 C4966 1.385 . S
C4963 H4938 0.951 . S
C4963 C4961 1.388 . S
C4963 C4964 1.366 . S
C4964 C4963 1.366 . S
C4964 C4965 1.414 . S
C4964 C4967 1.499 . S
C4965 H4939 0.950 . S
C4965 C4964 1.414 . S
C4965 C4966 1.374 . S
C4966 H4940 0.950 . S
C4966 C4962 1.385 . S
C4966 C4965 1.374 . S
C4967 C4964 1.499 . S
C4967 C4968 1.373 . S
C4967 C4969 1.389 . S
C4968 H4941 0.950 . S
C4968 C4954 1.377 . S
C4968 C4967 1.373 . S
C4969 C4953 1.377 . S
C4969 C4967 1.389 . S
C4969 C4970 1.524 . S
C4970 C4969 1.524 . S
C4970 C4971 1.397 . S
C4970 C4975 1.363 . S
C4971 H4942 0.950 . S
C4971 C4970 1.397 . S
C4971 C4972 1.334 . S
C4972 H4943 0.950 . S
C4972 C4971 1.334 . S
C4972 C4973 1.287 . S
C4973 C4972 1.287 . S
C4973 C4974 1.524 . S
C4973 H4976 0.999 . S
C4974 H4944 0.950 . S
C4974 C4973 1.524 . S
C4974 C4975 1.415 . S
C4975 H4945 0.950 . S
C4975 C4970 1.363 . S
C4975 C4974 1.415 . S
H4976 C4973 0.999 . S
H4977 C4958 0.913 . S
H4978 C4996 0.951 . S
H4979 C4998 0.951 . S
H4980 C5000 0.950 1_455 S
H4981 C5001 0.950 1_455 S
H4982 C5003 0.950 . S
H4983 C5006 0.950 . S
H4984 C5007 0.950 . S
H4985 C5009 0.950 . S
H4986 C5010 0.950 . S
H4987 C5011 0.951 . S
H4988 C5013 0.951 . S
H4989 C5015 0.950 . S
H4990 C5016 0.950 . S
H4991 C5018 0.950 . S
H4992 C5021 0.950 . S
H4993 C5022 0.950 . S
H4994 C5024 0.950 . S
H4995 C5025 0.950 . S
C4996 H4978 0.951 . S
C4996 C4997 1.366 . S
C4996 C4998 1.388 . S
C4997 C4996 1.366 . S
C4997 C5001 1.385 . S
C4998 H4979 0.951 . S
C4998 C4996 1.388 . S
C4998 C4999 1.366 . S
C4999 C4998 1.366 . S
C4999 C5000 1.414 . S
C4999 C5002 1.499 . S
C5000 H4980 0.950 1_655 S
C5000 C4999 1.414 . S
C5000 C5001 1.374 . S
C5001 H4981 0.950 1_655 S
C5001 C4997 1.385 . S
C5001 C5000 1.374 . S
C5002 C4999 1.499 . S
C5002 C5003 1.373 1_655 S
C5002 C5004 1.389 . S
C5003 H4982 0.950 . S
C5003 C5002 1.373 1_455 S
C5003 C5019 1.377 . S
C5004 C5002 1.389 . S
C5004 C5005 1.524 . S
C5004 C5018 1.377 . S
C5005 C5004 1.524 . S
C5005 C5006 1.397 . S
C5005 C5010 1.363 . S
C5006 H4983 0.950 . S
C5006 C5005 1.397 . S
C5006 C5007 1.334 . S
C5007 H4984 0.950 . S
C5007 C5006 1.334 . S
C5007 C5008 1.287 . S
C5008 C5007 1.287 . S
C5008 C5009 1.524 . S
C5008 H5027 0.913 . S
C5009 H4985 0.950 . S
C5009 C5008 1.524 . S
C5009 C5010 1.415 . S
C5010 H4986 0.950 . S
C5010 C5005 1.363 . S
C5010 C5009 1.415 . S
C5011 H4987 0.951 . S
C5011 C5012 1.366 . S
C5011 C5013 1.388 . S
C5012 C5011 1.366 . S
C5012 C5016 1.385 . S
C5013 H4988 0.951 . S
C5013 C5011 1.388 . S
C5013 C5014 1.366 . S
C5014 C5013 1.366 . S
C5014 C5015 1.414 . S
C5014 C5017 1.499 . S
C5015 H4989 0.950 . S
C5015 C5014 1.414 . S
C5015 C5016 1.374 . S
C5016 H4990 0.950 . S
C5016 C5012 1.385 . S
C5016 C5015 1.374 . S
C5017 C5014 1.499 . S
C5017 C5018 1.373 . S
C5017 C5019 1.389 1_655 S
C5018 H4991 0.950 . S
C5018 C5004 1.377 . S
C5018 C5017 1.373 . S
C5019 C5003 1.377 . S
C5019 C5017 1.389 1_455 S
C5019 C5020 1.524 . S
C5020 C5019 1.524 . S
C5020 C5021 1.397 . S
C5020 C5025 1.363 . S
C5021 H4992 0.950 . S
C5021 C5020 1.397 . S
C5021 C5022 1.334 . S
C5022 H4993 0.950 . S
C5022 C5021 1.334 . S
C5022 C5023 1.287 . S
C5023 C5022 1.287 . S
C5023 C5024 1.524 . S
C5023 H5026 0.999 . S
C5024 H4994 0.950 . S
C5024 C5023 1.524 . S
C5024 C5025 1.415 . S
C5025 H4995 0.950 . S
C5025 C5020 1.363 . S
C5025 C5024 1.415 . S
H5026 C5023 0.999 . S
H5027 C5008 0.913 . S
H5028 C5046 0.951 . S
H5029 C5048 0.951 . S
H5030 C5050 0.950 . S
H5031 C5051 0.950 . S
H5032 C5053 0.950 . S
H5033 C5056 0.950 . S
H5034 C5057 0.950 . S
H5035 C5059 0.950 . S
H5036 C5060 0.950 . S
H5037 C5061 0.951 . S
H5038 C5063 0.951 . S
H5039 C5065 0.950 . S
H5040 C5066 0.950 . S
H5041 C5068 0.950 . S
H5042 C5071 0.950 . S
H5043 C5072 0.950 . S
H5044 C5074 0.950 . S
H5045 C5075 0.950 . S
C5046 H5028 0.951 . S
C5046 C5047 1.366 . S
C5046 C5048 1.388 . S
C5047 C5046 1.366 . S
C5047 C5051 1.385 . S
C5048 H5029 0.951 . S
C5048 C5046 1.388 . S
C5048 C5049 1.366 . S
C5049 C5048 1.366 . S
C5049 C5050 1.414 . S
C5049 C5052 1.499 . S
C5050 H5030 0.950 . S
C5050 C5049 1.414 . S
C5050 C5051 1.374 . S
C5051 H5031 0.950 . S
C5051 C5047 1.385 . S
C5051 C5050 1.374 . S
C5052 C5049 1.499 . S
C5052 C5053 1.373 . S
C5052 C5054 1.389 . S
C5053 H5032 0.950 . S
C5053 C5052 1.373 . S
C5053 C5069 1.377 . S
C5054 C5052 1.389 . S
C5054 C5055 1.524 . S
C5054 C5068 1.377 . S
C5055 C5054 1.524 . S
C5055 C5056 1.397 . S
C5055 C5060 1.363 . S
C5056 H5033 0.950 . S
C5056 C5055 1.397 . S
C5056 C5057 1.334 . S
C5057 H5034 0.950 . S
C5057 C5056 1.334 . S
C5057 C5058 1.287 . S
C5058 C5057 1.287 . S
C5058 C5059 1.524 . S
C5058 H5077 0.913 . S
C5059 H5035 0.950 . S
C5059 C5058 1.524 . S
C5059 C5060 1.415 . S
C5060 H5036 0.950 . S
C5060 C5055 1.363 . S
C5060 C5059 1.415 . S
C5061 H5037 0.951 . S
C5061 C5062 1.366 . S
C5061 C5063 1.388 . S
C5062 C5061 1.366 . S
C5062 C5066 1.385 . S
C5063 H5038 0.951 . S
C5063 C5061 1.388 . S
C5063 C5064 1.366 . S
C5064 C5063 1.366 . S
C5064 C5065 1.414 . S
C5064 C5067 1.499 . S
C5065 H5039 0.950 . S
C5065 C5064 1.414 . S
C5065 C5066 1.374 . S
C5066 H5040 0.950 . S
C5066 C5062 1.385 . S
C5066 C5065 1.374 . S
C5067 C5064 1.499 . S
C5067 C5068 1.373 . S
C5067 C5069 1.389 . S
C5068 H5041 0.950 . S
C5068 C5054 1.377 . S
C5068 C5067 1.373 . S
C5069 C5053 1.377 . S
C5069 C5067 1.389 . S
C5069 C5070 1.524 . S
C5070 C5069 1.524 . S
C5070 C5071 1.397 . S
C5070 C5075 1.363 . S
C5071 H5042 0.950 . S
C5071 C5070 1.397 . S
C5071 C5072 1.334 . S
C5072 H5043 0.950 . S
C5072 C5071 1.334 . S
C5072 C5073 1.287 . S
C5073 C5072 1.287 . S
C5073 C5074 1.524 . S
C5073 H5076 0.999 . S
C5074 H5044 0.950 . S
C5074 C5073 1.524 . S
C5074 C5075 1.415 . S
C5075 H5045 0.950 . S
C5075 C5070 1.363 . S
C5075 C5074 1.415 . S
H5076 C5073 0.999 . S
H5077 C5058 0.913 . S
H5078 C5096 0.951 . S
H5079 C5098 0.951 . S
H5080 C5100 0.950 . S
H5081 C5101 0.950 . S
H5082 C5103 0.950 . S
H5083 C5106 0.950 . S
H5084 C5107 0.950 . S
H5085 C5109 0.950 . S
H5086 C5110 0.950 . S
H5087 C5111 0.951 . S
H5088 C5113 0.951 . S
H5089 C5115 0.950 . S
H5090 C5116 0.950 . S
H5091 C5118 0.950 . S
H5092 C5121 0.950 . S
H5093 C5122 0.950 . S
H5094 C5124 0.950 . S
H5095 C5125 0.950 . S
C5096 H5078 0.951 . S
C5096 C5097 1.366 . S
C5096 C5098 1.388 . S
C5097 C5096 1.366 . S
C5097 C5101 1.385 . S
C5098 H5079 0.951 . S
C5098 C5096 1.388 . S
C5098 C5099 1.366 . S
C5099 C5098 1.366 . S
C5099 C5100 1.414 . S
C5099 C5102 1.499 . S
C5100 H5080 0.950 . S
C5100 C5099 1.414 . S
C5100 C5101 1.374 . S
C5101 H5081 0.950 . S
C5101 C5097 1.385 . S
C5101 C5100 1.374 . S
C5102 C5099 1.499 . S
C5102 C5103 1.373 . S
C5102 C5104 1.389 . S
C5103 H5082 0.950 . S
C5103 C5102 1.373 . S
C5103 C5119 1.377 . S
C5104 C5102 1.389 . S
C5104 C5105 1.524 . S
C5104 C5118 1.377 . S
C5105 C5104 1.524 . S
C5105 C5106 1.397 . S
C5105 C5110 1.363 . S
C5106 H5083 0.950 . S
C5106 C5105 1.397 . S
C5106 C5107 1.334 . S
C5107 H5084 0.950 . S
C5107 C5106 1.334 . S
C5107 C5108 1.287 . S
C5108 C5107 1.287 . S
C5108 C5109 1.524 . S
C5108 H5127 0.913 . S
C5109 H5085 0.950 . S
C5109 C5108 1.524 . S
C5109 C5110 1.415 . S
C5110 H5086 0.950 . S
C5110 C5105 1.363 . S
C5110 C5109 1.415 . S
C5111 H5087 0.951 . S
C5111 C5112 1.366 . S
C5111 C5113 1.388 . S
C5112 C5111 1.366 . S
C5112 C5116 1.385 . S
C5113 H5088 0.951 . S
C5113 C5111 1.388 . S
C5113 C5114 1.366 . S
C5114 C5113 1.366 . S
C5114 C5115 1.414 . S
C5114 C5117 1.499 . S
C5115 H5089 0.950 . S
C5115 C5114 1.414 . S
C5115 C5116 1.374 . S
C5116 H5090 0.950 . S
C5116 C5112 1.385 . S
C5116 C5115 1.374 . S
C5117 C5114 1.499 . S
C5117 C5118 1.373 . S
C5117 C5119 1.389 . S
C5118 H5091 0.950 . S
C5118 C5104 1.377 . S
C5118 C5117 1.373 . S
C5119 C5103 1.377 . S
C5119 C5117 1.389 . S
C5119 C5120 1.524 . S
C5120 C5119 1.524 . S
C5120 C5121 1.397 . S
C5120 C5125 1.363 . S
C5121 H5092 0.950 . S
C5121 C5120 1.397 . S
C5121 C5122 1.334 . S
C5122 H5093 0.950 . S
C5122 C5121 1.334 . S
C5122 C5123 1.287 . S
C5123 C5122 1.287 . S
C5123 C5124 1.524 . S
C5123 H5126 0.999 . S
C5124 H5094 0.950 . S
C5124 C5123 1.524 . S
C5124 C5125 1.415 . S
C5125 H5095 0.950 . S
C5125 C5120 1.363 . S
C5125 C5124 1.415 . S
H5126 C5123 0.999 . S
H5127 C5108 0.913 . S
H5128 C5146 0.951 . S
H5129 C5148 0.951 . S
H5130 C5150 0.950 . S
H5131 C5151 0.950 . S
H5132 C5153 0.950 . S
H5133 C5156 0.950 . S
H5134 C5157 0.950 . S
H5135 C5159 0.950 . S
H5136 C5160 0.950 . S
H5137 C5161 0.951 1_455 S
H5138 C5163 0.939 1_455 S
H5139 C5165 0.950 . S
H5140 C5166 0.950 . S
H5141 C5168 0.950 . S
H5142 C5171 0.950 . S
H5143 C5172 0.950 . S
H5144 C5174 0.950 . S
H5145 C5175 0.969 . S
C5146 H5128 0.951 . S
C5146 C5147 1.366 . S
C5146 C5148 1.388 . S
C5147 C5146 1.366 . S
C5147 C5151 1.385 . S
C5148 H5129 0.951 . S
C5148 C5146 1.388 . S
C5148 C5149 1.366 . S
C5149 C5148 1.366 . S
C5149 C5150 1.414 . S
C5149 C5152 1.499 . S
C5150 H5130 0.950 . S
C5150 C5149 1.414 . S
C5150 C5151 1.374 . S
C5151 H5131 0.950 . S
C5151 C5147 1.385 . S
C5151 C5150 1.374 . S
C5152 C5149 1.499 . S
C5152 C5153 1.373 . S
C5152 C5154 1.389 . S
C5153 H5132 0.950 . S
C5153 C5152 1.373 . S
C5153 C5169 1.377 . S
C5154 C5152 1.389 . S
C5154 C5155 1.524 . S
C5154 C5168 1.377 . S
C5155 C5154 1.524 . S
C5155 C5156 1.397 . S
C5155 C5160 1.363 . S
C5156 H5133 0.950 . S
C5156 C5155 1.397 . S
C5156 C5157 1.334 . S
C5157 H5134 0.950 . S
C5157 C5156 1.334 . S
C5157 C5158 1.287 . S
C5158 C5157 1.287 . S
C5158 C5159 1.524 . S
C5158 H5177 0.913 . S
C5159 H5135 0.950 . S
C5159 C5158 1.524 . S
C5159 C5160 1.415 . S
C5160 H5136 0.950 . S
C5160 C5155 1.363 . S
C5160 C5159 1.415 . S
C5161 H5137 0.951 1_655 S
C5161 C5162 1.366 . S
C5161 C5163 1.388 . S
C5162 C5161 1.366 . S
C5162 C5166 1.385 . S
C5163 H5138 0.939 1_655 S
C5163 C5161 1.388 . S
C5163 C5164 1.366 . S
C5164 C5163 1.366 . S
C5164 C5165 1.414 . S
C5164 C5167 1.499 . S
C5165 H5139 0.950 . S
C5165 C5164 1.414 . S
C5165 C5166 1.374 . S
C5166 H5140 0.950 . S
C5166 C5162 1.385 . S
C5166 C5165 1.374 . S
C5167 C5164 1.499 . S
C5167 C5168 1.373 . S
C5167 C5169 1.389 . S
C5168 H5141 0.950 . S
C5168 C5154 1.377 . S
C5168 C5167 1.373 . S
C5169 C5153 1.377 . S
C5169 C5167 1.389 . S
C5169 C5170 1.524 . S
C5170 C5169 1.524 . S
C5170 C5171 1.397 . S
C5170 C5175 1.338 1_655 S
C5171 H5142 0.950 . S
C5171 C5170 1.397 . S
C5171 C5172 1.334 . S
C5172 H5143 0.950 . S
C5172 C5171 1.334 . S
C5172 C5173 1.287 . S
C5173 C5172 1.287 . S
C5173 C5174 1.524 1_655 S
C5173 H5176 0.999 . S
C5174 H5144 0.950 . S
C5174 C5173 1.524 1_455 S
C5174 C5175 1.422 . S
C5175 H5145 0.969 . S
C5175 C5170 1.338 1_455 S
C5175 C5174 1.422 . S
H5176 C5173 0.999 . S
H5177 C5158 0.913 . S
H5178 C5196 0.951 . S
H5179 C5198 0.951 . S
H5180 C5200 0.950 . S
H5181 C5201 0.950 . S
H5182 C5203 0.950 . S
H5183 C5206 0.950 . S
H5184 C5207 0.950 . S
H5185 C5209 0.950 . S
H5186 C5210 0.950 . S
H5187 C5211 0.951 . S
H5188 C5213 0.951 . S
H5189 C5215 0.950 . S
H5190 C5216 0.950 . S
H5191 C5218 0.950 . S
H5192 C5221 0.950 . S
H5193 C5222 0.950 . S
H5194 C5224 0.950 . S
H5195 C5225 0.950 . S
C5196 H5178 0.951 . S
C5196 C5197 1.366 . S
C5196 C5198 1.388 . S
C5197 C5196 1.366 . S
C5197 C5201 1.385 . S
C5198 H5179 0.951 . S
C5198 C5196 1.388 . S
C5198 C5199 1.366 . S
C5199 C5198 1.366 . S
C5199 C5200 1.414 . S
C5199 C5202 1.499 . S
C5200 H5180 0.950 . S
C5200 C5199 1.414 . S
C5200 C5201 1.374 . S
C5201 H5181 0.950 . S
C5201 C5197 1.385 . S
C5201 C5200 1.374 . S
C5202 C5199 1.499 . S
C5202 C5203 1.373 . S
C5202 C5204 1.389 . S
C5203 H5182 0.950 . S
C5203 C5202 1.373 . S
C5203 C5219 1.377 . S
C5204 C5202 1.389 . S
C5204 C5205 1.524 . S
C5204 C5218 1.377 . S
C5205 C5204 1.524 . S
C5205 C5206 1.397 . S
C5205 C5210 1.363 . S
C5206 H5183 0.950 . S
C5206 C5205 1.397 . S
C5206 C5207 1.334 . S
C5207 H5184 0.950 . S
C5207 C5206 1.334 . S
C5207 C5208 1.287 . S
C5208 C5207 1.287 . S
C5208 C5209 1.524 . S
C5208 H5227 0.913 . S
C5209 H5185 0.950 . S
C5209 C5208 1.524 . S
C5209 C5210 1.415 . S
C5210 H5186 0.950 . S
C5210 C5205 1.363 . S
C5210 C5209 1.415 . S
C5211 H5187 0.951 . S
C5211 C5212 1.366 . S
C5211 C5213 1.388 . S
C5212 C5211 1.366 . S
C5212 C5216 1.385 . S
C5213 H5188 0.951 . S
C5213 C5211 1.388 . S
C5213 C5214 1.366 . S
C5214 C5213 1.366 . S
C5214 C5215 1.414 . S
C5214 C5217 1.499 . S
C5215 H5189 0.950 . S
C5215 C5214 1.414 . S
C5215 C5216 1.374 . S
C5216 H5190 0.950 . S
C5216 C5212 1.385 . S
C5216 C5215 1.374 . S
C5217 C5214 1.499 . S
C5217 C5218 1.373 . S
C5217 C5219 1.389 . S
C5218 H5191 0.950 . S
C5218 C5204 1.377 . S
C5218 C5217 1.373 . S
C5219 C5203 1.377 . S
C5219 C5217 1.389 . S
C5219 C5220 1.524 . S
C5220 C5219 1.524 . S
C5220 C5221 1.397 . S
C5220 C5225 1.363 . S
C5221 H5192 0.950 . S
C5221 C5220 1.397 . S
C5221 C5222 1.334 . S
C5222 H5193 0.950 . S
C5222 C5221 1.334 . S
C5222 C5223 1.287 . S
C5223 C5222 1.287 . S
C5223 C5224 1.524 . S
C5223 H5226 0.999 . S
C5224 H5194 0.950 . S
C5224 C5223 1.524 . S
C5224 C5225 1.415 . S
C5225 H5195 0.950 . S
C5225 C5220 1.363 . S
C5225 C5224 1.415 . S
H5226 C5223 0.999 . S
H5227 C5208 0.913 . S
H5228 C5246 0.951 . S
H5229 C5248 0.951 . S
H5230 C5250 0.950 . S
H5231 C5251 0.950 . S
H5232 C5253 0.950 . S
H5233 C5256 0.950 . S
H5234 C5257 0.950 . S
H5235 C5259 0.950 . S
H5236 C5260 0.950 . S
H5237 C5261 0.951 . S
H5238 C5263 0.951 . S
H5239 C5265 0.950 . S
H5240 C5266 0.950 . S
H5241 C5268 0.950 . S
H5242 C5271 0.950 . S
H5243 C5272 0.950 . S
H5244 C5274 0.950 . S
H5245 C5275 0.950 . S
C5246 H5228 0.951 . S
C5246 C5247 1.366 . S
C5246 C5248 1.388 1_554 S
C5247 C5246 1.366 . S
C5247 C5251 1.385 1_554 S
C5248 H5229 0.951 . S
C5248 C5246 1.388 1_556 S
C5248 C5249 1.366 . S
C5249 C5248 1.366 . S
C5249 C5250 1.414 . S
C5249 C5252 1.499 . S
C5250 H5230 0.950 . S
C5250 C5249 1.414 . S
C5250 C5251 1.374 . S
C5251 H5231 0.950 . S
C5251 C5247 1.385 1_556 S
C5251 C5250 1.374 . S
C5252 C5249 1.499 . S
C5252 C5253 1.373 . S
C5252 C5254 1.389 . S
C5253 H5232 0.950 . S
C5253 C5252 1.373 . S
C5253 C5269 1.377 . S
C5254 C5252 1.389 . S
C5254 C5255 1.524 . S
C5254 C5268 1.377 . S
C5255 C5254 1.524 . S
C5255 C5256 1.397 . S
C5255 C5260 1.363 . S
C5256 H5233 0.950 . S
C5256 C5255 1.397 . S
C5256 C5257 1.334 . S
C5257 H5234 0.950 . S
C5257 C5256 1.334 . S
C5257 C5258 1.287 . S
C5258 C5257 1.287 . S
C5258 C5259 1.524 . S
C5258 H5277 0.913 . S
C5259 H5235 0.950 . S
C5259 C5258 1.524 . S
C5259 C5260 1.415 . S
C5260 H5236 0.950 . S
C5260 C5255 1.363 . S
C5260 C5259 1.415 . S
C5261 H5237 0.951 . S
C5261 C5262 1.366 . S
C5261 C5263 1.388 . S
C5262 C5261 1.366 . S
C5262 C5266 1.385 . S
C5263 H5238 0.951 . S
C5263 C5261 1.388 . S
C5263 C5264 1.366 . S
C5264 C5263 1.366 . S
C5264 C5265 1.414 . S
C5264 C5267 1.499 . S
C5265 H5239 0.950 . S
C5265 C5264 1.414 . S
C5265 C5266 1.374 . S
C5266 H5240 0.950 . S
C5266 C5262 1.385 . S
C5266 C5265 1.374 . S
C5267 C5264 1.499 . S
C5267 C5268 1.373 . S
C5267 C5269 1.389 . S
C5268 H5241 0.950 . S
C5268 C5254 1.377 . S
C5268 C5267 1.373 . S
C5269 C5253 1.377 . S
C5269 C5267 1.389 . S
C5269 C5270 1.524 . S
C5270 C5269 1.524 . S
C5270 C5271 1.397 . S
C5270 C5275 1.363 . S
C5271 H5242 0.950 . S
C5271 C5270 1.397 . S
C5271 C5272 1.334 . S
C5272 H5243 0.950 . S
C5272 C5271 1.334 . S
C5272 C5273 1.287 . S
C5273 C5272 1.287 . S
C5273 C5274 1.524 . S
C5273 H5276 0.999 . S
C5274 H5244 0.950 . S
C5274 C5273 1.524 . S
C5274 C5275 1.415 . S
C5275 H5245 0.950 . S
C5275 C5270 1.363 . S
C5275 C5274 1.415 . S
H5276 C5273 0.999 . S
H5277 C5258 0.913 . S
H5278 C5296 0.951 . S
H5279 C5298 0.951 1_565 S
H5280 C5300 0.950 . S
H5281 C5301 0.950 . S
H5282 C5303 0.950 . S
H5283 C5306 0.950 . S
H5284 C5307 0.950 . S
H5285 C5309 0.950 . S
H5286 C5310 0.950 1_565 S
H5287 C5311 0.951 1_545 S
H5288 C5313 0.951 . S
H5289 C5315 0.950 . S
H5290 C5316 0.950 . S
H5291 C5318 0.950 . S
H5292 C5321 0.950 . S
H5293 C5322 0.950 . S
H5294 C5324 0.969 . S
H5295 C5325 0.978 . S
C5296 H5278 0.951 . S
C5296 C5297 1.366 . S
C5296 C5298 1.388 . S
C5297 C5296 1.366 . S
C5297 C5301 1.385 . S
C5298 H5279 0.951 1_545 S
C5298 C5296 1.388 . S
C5298 C5299 1.366 . S
C5299 C5298 1.366 . S
C5299 C5300 1.414 . S
C5299 C5302 1.499 . S
C5300 H5280 0.950 . S
C5300 C5299 1.414 . S
C5300 C5301 1.374 . S
C5301 H5281 0.950 . S
C5301 C5297 1.385 . S
C5301 C5300 1.374 . S
C5302 C5299 1.499 . S
C5302 C5303 1.373 . S
C5302 C5304 1.389 . S
C5303 H5282 0.950 . S
C5303 C5302 1.373 . S
C5303 C5319 1.377 1_545 S
C5304 C5302 1.389 . S
C5304 C5305 1.524 . S
C5304 C5318 1.377 . S
C5305 C5304 1.524 . S
C5305 C5306 1.397 . S
C5305 C5310 1.363 . S
C5306 H5283 0.950 . S
C5306 C5305 1.397 . S
C5306 C5307 1.334 . S
C5307 H5284 0.950 . S
C5307 C5306 1.334 . S
C5307 C5308 1.287 . S
C5308 C5307 1.287 . S
C5308 C5309 1.524 . S
C5308 H5327 0.913 . S
C5309 H5285 0.950 . S
C5309 C5308 1.524 . S
C5309 C5310 1.415 . S
C5310 H5286 0.950 1_545 S
C5310 C5305 1.363 . S
C5310 C5309 1.415 . S
C5311 H5287 0.951 1_565 S
C5311 C5312 1.366 . S
C5311 C5313 1.388 1_565 S
C5312 C5311 1.366 . S
C5312 C5316 1.385 . S
C5313 H5288 0.951 . S
C5313 C5311 1.388 1_545 S
C5313 C5314 1.366 1_545 S
C5314 C5313 1.366 1_565 S
C5314 C5315 1.414 . S
C5314 C5317 1.499 . S
C5315 H5289 0.950 . S
C5315 C5314 1.414 . S
C5315 C5316 1.374 . S
C5316 H5290 0.950 . S
C5316 C5312 1.385 . S
C5316 C5315 1.374 . S
C5317 C5314 1.499 . S
C5317 C5318 1.373 1_565 S
C5317 C5319 1.389 . S
C5318 H5291 0.950 . S
C5318 C5304 1.377 . S
C5318 C5317 1.373 1_545 S
C5319 C5303 1.377 1_565 S
C5319 C5317 1.389 . S
C5319 C5320 1.524 . S
C5320 C5319 1.524 . S
C5320 C5321 1.397 . S
C5320 C5325 1.349 1_565 S
C5321 H5292 0.950 . S
C5321 C5320 1.397 . S
C5321 C5322 1.334 . S
C5322 H5293 0.950 . S
C5322 C5321 1.334 . S
C5322 C5323 1.287 . S
C5323 C5322 1.287 . S
C5323 C5324 1.524 . S
C5323 H5326 0.999 . S
C5324 H5294 0.969 . S
C5324 C5323 1.524 . S
C5324 C5325 1.403 1_565 S
C5325 H5295 0.978 . S
C5325 C5320 1.349 1_545 S
C5325 C5324 1.403 1_545 S
H5326 C5323 0.999 . S
H5327 C5308 0.913 . S
H5328 C5346 0.951 . S
H5329 C5348 0.951 . S
H5330 C5350 0.950 . S
H5331 C5351 0.950 . S
H5332 C5353 0.950 . S
H5333 C5356 0.950 . S
H5334 C5357 0.950 . S
H5335 C5359 0.950 . S
H5336 C5360 0.950 . S
H5337 C5361 0.951 . S
H5338 C5363 0.951 . S
H5339 C5365 0.950 . S
H5340 C5366 0.950 . S
H5341 C5368 0.950 . S
H5342 C5371 0.950 . S
H5343 C5372 0.950 . S
H5344 C5374 0.950 . S
H5345 C5375 0.950 . S
C5346 H5328 0.951 . S
C5346 C5347 1.366 . S
C5346 C5348 1.388 . S
C5347 C5346 1.366 . S
C5347 C5351 1.385 1_556 S
C5348 H5329 0.951 . S
C5348 C5346 1.388 . S
C5348 C5349 1.405 . S
C5349 C5348 1.405 . S
C5349 C5350 1.380 1_556 S
C5349 C5352 1.494 1_556 S
C5350 H5330 0.950 . S
C5350 C5349 1.380 1_554 S
C5350 C5351 1.374 . S
C5351 H5331 0.950 . S
C5351 C5347 1.385 1_554 S
C5351 C5350 1.374 . S
C5352 C5349 1.494 1_554 S
C5352 C5353 1.373 . S
C5352 C5354 1.389 1_554 S
C5353 H5332 0.950 . S
C5353 C5352 1.373 . S
C5353 C5369 1.377 . S
C5354 C5352 1.389 1_556 S
C5354 C5355 1.524 . S
C5354 C5368 1.377 . S
C5355 C5354 1.524 . S
C5355 C5356 1.397 . S
C5355 C5360 1.363 . S
C5356 H5333 0.950 . S
C5356 C5355 1.397 . S
C5356 C5357 1.334 . S
C5357 H5334 0.950 . S
C5357 C5356 1.334 . S
C5357 C5358 1.287 . S
C5358 C5357 1.287 . S
C5358 C5359 1.524 . S
C5358 H5377 0.913 . S
C5359 H5335 0.950 . S
C5359 C5358 1.524 . S
C5359 C5360 1.415 . S
C5360 H5336 0.950 . S
C5360 C5355 1.363 . S
C5360 C5359 1.415 . S
C5361 H5337 0.951 . S
C5361 C5362 1.366 . S
C5361 C5363 1.388 . S
C5362 C5361 1.366 . S
C5362 C5366 1.385 1_554 S
C5363 H5338 0.951 . S
C5363 C5361 1.388 . S
C5363 C5364 1.366 . S
C5364 C5363 1.366 . S
C5364 C5365 1.414 1_554 S
C5364 C5367 1.499 . S
C5365 H5339 0.950 . S
C5365 C5364 1.414 1_556 S
C5365 C5366 1.374 . S
C5366 H5340 0.950 . S
C5366 C5362 1.385 1_556 S
C5366 C5365 1.374 . S
C5367 C5364 1.499 . S
C5367 C5368 1.373 1_554 S
C5367 C5369 1.389 . S
C5368 H5341 0.950 . S
C5368 C5354 1.377 . S
C5368 C5367 1.373 1_556 S
C5369 C5353 1.377 . S
C5369 C5367 1.389 . S
C5369 C5370 1.524 . S
C5370 C5369 1.524 . S
C5370 C5371 1.397 . S
C5370 C5375 1.363 . S
C5371 H5342 0.950 . S
C5371 C5370 1.397 . S
C5371 C5372 1.334 . S
C5372 H5343 0.950 . S
C5372 C5371 1.334 . S
C5372 C5373 1.287 . S
C5373 C5372 1.287 . S
C5373 C5374 1.524 . S
C5373 H5376 0.999 . S
C5374 H5344 0.950 . S
C5374 C5373 1.524 . S
C5374 C5375 1.415 . S
C5375 H5345 0.950 . S
C5375 C5370 1.363 . S
C5375 C5374 1.415 . S
H5376 C5373 0.999 . S
H5377 C5358 0.913 . S
H5378 C5396 0.951 . S
H5379 C5398 0.951 . S
H5380 C5400 0.950 . S
H5381 C5401 0.950 . S
H5382 C5403 0.950 . S
H5383 C5406 0.950 . S
H5384 C5407 0.950 . S
H5385 C5409 0.950 . S
H5386 C5410 0.950 . S
H5387 C5411 0.951 . S
H5388 C5413 0.951 . S
H5389 C5415 0.950 . S
H5390 C5416 0.950 . S
H5391 C5418 0.950 . S
H5392 C5421 0.950 . S
H5393 C5422 0.950 . S
H5394 C5424 0.950 . S
H5395 C5425 0.950 . S
C5396 H5378 0.951 . S
C5396 C5397 1.366 . S
C5396 C5398 1.388 . S
C5397 C5396 1.366 . S
C5397 C5401 1.385 . S
C5398 H5379 0.951 . S
C5398 C5396 1.388 . S
C5398 C5399 1.366 . S
C5399 C5398 1.366 . S
C5399 C5400 1.414 . S
C5399 C5402 1.499 . S
C5400 H5380 0.950 . S
C5400 C5399 1.414 . S
C5400 C5401 1.374 . S
C5401 H5381 0.950 . S
C5401 C5397 1.385 . S
C5401 C5400 1.374 . S
C5402 C5399 1.499 . S
C5402 C5403 1.373 . S
C5402 C5404 1.389 . S
C5403 H5382 0.950 . S
C5403 C5402 1.373 . S
C5403 C5419 1.377 . S
C5404 C5402 1.389 . S
C5404 C5405 1.524 . S
C5404 C5418 1.377 . S
C5405 C5404 1.524 . S
C5405 C5406 1.397 . S
C5405 C5410 1.363 . S
C5406 H5383 0.950 . S
C5406 C5405 1.397 . S
C5406 C5407 1.334 . S
C5407 H5384 0.950 . S
C5407 C5406 1.334 . S
C5407 C5408 1.287 . S
C5408 C5407 1.287 . S
C5408 C5409 1.524 . S
C5408 H5427 0.913 . S
C5409 H5385 0.950 . S
C5409 C5408 1.524 . S
C5409 C5410 1.415 . S
C5410 H5386 0.950 . S
C5410 C5405 1.363 . S
C5410 C5409 1.415 . S
C5411 H5387 0.951 . S
C5411 C5412 1.366 . S
C5411 C5413 1.388 . S
C5412 C5411 1.366 . S
C5412 C5416 1.385 . S
C5413 H5388 0.951 . S
C5413 C5411 1.388 . S
C5413 C5414 1.366 . S
C5414 C5413 1.366 . S
C5414 C5415 1.414 . S
C5414 C5417 1.499 . S
C5415 H5389 0.950 . S
C5415 C5414 1.414 . S
C5415 C5416 1.374 . S
C5416 H5390 0.950 . S
C5416 C5412 1.385 . S
C5416 C5415 1.374 . S
C5417 C5414 1.499 . S
C5417 C5418 1.373 . S
C5417 C5419 1.389 . S
C5418 H5391 0.950 . S
C5418 C5404 1.377 . S
C5418 C5417 1.373 . S
C5419 C5403 1.377 . S
C5419 C5417 1.389 . S
C5419 C5420 1.524 . S
C5420 C5419 1.524 . S
C5420 C5421 1.397 . S
C5420 C5425 1.363 . S
C5421 H5392 0.950 . S
C5421 C5420 1.397 . S
C5421 C5422 1.334 . S
C5422 H5393 0.950 . S
C5422 C5421 1.334 . S
C5422 C5423 1.287 . S
C5423 C5422 1.287 . S
C5423 C5424 1.524 . S
C5423 H5426 0.999 . S
C5424 H5394 0.950 . S
C5424 C5423 1.524 . S
C5424 C5425 1.415 . S
C5425 H5395 0.950 . S
C5425 C5420 1.363 . S
C5425 C5424 1.415 . S
H5426 C5423 0.999 . S
H5427 C5408 0.913 . S
H5428 C5446 0.951 . S
H5429 C5448 0.951 . S
H5430 C5450 0.950 . S
H5431 C5451 0.950 . S
H5432 C5453 0.950 . S
H5433 C5456 0.950 . S
H5434 C5457 0.950 . S
H5435 C5459 0.950 . S
H5436 C5460 0.950 . S
H5437 C5461 0.951 . S
H5438 C5463 0.951 . S
H5439 C5465 0.950 . S
H5440 C5466 0.950 . S
H5441 C5468 0.950 . S
H5442 C5471 0.950 . S
H5443 C5472 0.950 . S
H5444 C5474 0.950 . S
H5445 C5475 0.950 . S
C5446 H5428 0.951 . S
C5446 C5447 1.366 . S
C5446 C5448 1.388 . S
C5447 C5446 1.366 . S
C5447 C5451 1.385 . S
C5448 H5429 0.951 . S
C5448 C5446 1.388 . S
C5448 C5449 1.366 . S
C5449 C5448 1.366 . S
C5449 C5450 1.414 . S
C5449 C5452 1.499 . S
C5450 H5430 0.950 . S
C5450 C5449 1.414 . S
C5450 C5451 1.374 . S
C5451 H5431 0.950 . S
C5451 C5447 1.385 . S
C5451 C5450 1.374 . S
C5452 C5449 1.499 . S
C5452 C5453 1.373 . S
C5452 C5454 1.389 . S
C5453 H5432 0.950 . S
C5453 C5452 1.373 . S
C5453 C5469 1.377 . S
C5454 C5452 1.389 . S
C5454 C5455 1.524 . S
C5454 C5468 1.377 . S
C5455 C5454 1.524 . S
C5455 C5456 1.397 . S
C5455 C5460 1.363 . S
C5456 H5433 0.950 . S
C5456 C5455 1.397 . S
C5456 C5457 1.334 . S
C5457 H5434 0.950 . S
C5457 C5456 1.334 . S
C5457 C5458 1.287 . S
C5458 C5457 1.287 . S
C5458 C5459 1.524 . S
C5458 H5477 0.913 . S
C5459 H5435 0.950 . S
C5459 C5458 1.524 . S
C5459 C5460 1.415 . S
C5460 H5436 0.950 . S
C5460 C5455 1.363 . S
C5460 C5459 1.415 . S
C5461 H5437 0.951 . S
C5461 C5462 1.366 . S
C5461 C5463 1.388 . S
C5462 C5461 1.366 . S
C5462 C5466 1.385 . S
C5463 H5438 0.951 . S
C5463 C5461 1.388 . S
C5463 C5464 1.366 . S
C5464 C5463 1.366 . S
C5464 C5465 1.414 . S
C5464 C5467 1.499 . S
C5465 H5439 0.950 . S
C5465 C5464 1.414 . S
C5465 C5466 1.374 . S
C5466 H5440 0.950 . S
C5466 C5462 1.385 . S
C5466 C5465 1.374 . S
C5467 C5464 1.499 . S
C5467 C5468 1.373 . S
C5467 C5469 1.389 . S
C5468 H5441 0.950 . S
C5468 C5454 1.377 . S
C5468 C5467 1.373 . S
C5469 C5453 1.377 . S
C5469 C5467 1.389 . S
C5469 C5470 1.524 . S
C5470 C5469 1.524 . S
C5470 C5471 1.397 . S
C5470 C5475 1.363 . S
C5471 H5442 0.950 . S
C5471 C5470 1.397 . S
C5471 C5472 1.334 . S
C5472 H5443 0.950 . S
C5472 C5471 1.334 . S
C5472 C5473 1.287 . S
C5473 C5472 1.287 . S
C5473 C5474 1.524 . S
C5473 H5476 0.999 . S
C5474 H5444 0.950 . S
C5474 C5473 1.524 . S
C5474 C5475 1.415 . S
C5475 H5445 0.950 . S
C5475 C5470 1.363 . S
C5475 C5474 1.415 . S
H5476 C5473 0.999 . S
H5477 C5458 0.913 . S
H5478 C5496 0.951 . S
H5479 C5498 0.951 . S
H5480 C5500 0.950 . S
H5481 C5501 0.950 . S
H5482 C5503 0.950 . S
H5483 C5506 0.950 . S
H5484 C5507 0.950 . S
H5485 C5509 0.950 . S
H5486 C5510 0.950 . S
H5487 C5511 0.951 . S
H5488 C5513 0.951 . S
H5489 C5515 0.950 . S
H5490 C5516 0.950 . S
H5491 C5518 0.950 1_565 S
H5492 C5521 0.950 . S
H5493 C5522 0.950 . S
H5494 C5524 0.950 . S
H5495 C5525 0.950 . S
C5496 H5478 0.951 . S
C5496 C5497 1.366 . S
C5496 C5498 1.388 . S
C5497 C5496 1.366 . S
C5497 C5501 1.385 . S
C5498 H5479 0.951 . S
C5498 C5496 1.388 . S
C5498 C5499 1.366 . S
C5499 C5498 1.366 . S
C5499 C5500 1.414 . S
C5499 C5502 1.499 . S
C5500 H5480 0.950 . S
C5500 C5499 1.414 . S
C5500 C5501 1.374 . S
C5501 H5481 0.950 . S
C5501 C5497 1.385 . S
C5501 C5500 1.374 . S
C5502 C5499 1.499 . S
C5502 C5503 1.373 . S
C5502 C5504 1.406 . S
C5503 H5482 0.950 . S
C5503 C5502 1.373 . S
C5503 C5519 1.377 . S
C5504 C5502 1.406 . S
C5504 C5505 1.507 1_545 S
C5504 C5518 1.377 . S
C5505 C5504 1.507 1_565 S
C5505 C5506 1.397 . S
C5505 C5510 1.363 . S
C5506 H5483 0.950 . S
C5506 C5505 1.397 . S
C5506 C5507 1.334 . S
C5507 H5484 0.950 . S
C5507 C5506 1.334 . S
C5507 C5508 1.287 . S
C5508 C5507 1.287 . S
C5508 C5509 1.524 . S
C5508 H5527 0.913 . S
C5509 H5485 0.950 . S
C5509 C5508 1.524 . S
C5509 C5510 1.415 . S
C5510 H5486 0.950 . S
C5510 C5505 1.363 . S
C5510 C5509 1.415 . S
C5511 H5487 0.951 . S
C5511 C5512 1.366 . S
C5511 C5513 1.388 . S
C5512 C5511 1.366 . S
C5512 C5516 1.385 . S
C5513 H5488 0.951 . S
C5513 C5511 1.388 . S
C5513 C5514 1.366 . S
C5514 C5513 1.366 . S
C5514 C5515 1.414 . S
C5514 C5517 1.499 . S
C5515 H5489 0.950 . S
C5515 C5514 1.414 . S
C5515 C5516 1.374 . S
C5516 H5490 0.950 . S
C5516 C5512 1.385 . S
C5516 C5515 1.374 . S
C5517 C5514 1.499 . S
C5517 C5518 1.373 . S
C5517 C5519 1.389 . S
C5518 H5491 0.950 1_545 S
C5518 C5504 1.377 . S
C5518 C5517 1.373 . S
C5519 C5503 1.377 . S
C5519 C5517 1.389 . S
C5519 C5520 1.524 . S
C5520 C5519 1.524 . S
C5520 C5521 1.397 . S
C5520 C5525 1.363 . S
C5521 H5492 0.950 . S
C5521 C5520 1.397 . S
C5521 C5522 1.334 . S
C5522 H5493 0.950 . S
C5522 C5521 1.334 . S
C5522 C5523 1.287 . S
C5523 C5522 1.287 . S
C5523 C5524 1.524 . S
C5523 H5526 0.999 . S
C5524 H5494 0.950 . S
C5524 C5523 1.524 . S
C5524 C5525 1.415 . S
C5525 H5495 0.950 . S
C5525 C5520 1.363 . S
C5525 C5524 1.415 . S
H5526 C5523 0.999 . S
H5527 C5508 0.913 . S
H5528 C5546 0.951 . S
H5529 C5548 0.951 . S
H5530 C5550 0.950 . S
H5531 C5551 0.950 . S
H5532 C5553 0.950 . S
H5533 C5556 0.950 . S
H5534 C5557 0.950 . S
H5535 C5559 0.950 . S
H5536 C5560 0.950 . S
H5537 C5561 0.951 . S
H5538 C5563 0.951 . S
H5539 C5565 0.950 . S
H5540 C5566 0.950 . S
H5541 C5568 0.950 . S
H5542 C5571 0.950 . S
H5543 C5572 0.950 . S
H5544 C5574 0.950 . S
H5545 C5575 0.950 . S
C5546 H5528 0.951 . S
C5546 C5547 1.366 . S
C5546 C5548 1.388 . S
C5547 C5546 1.366 . S
C5547 C5551 1.385 . S
C5548 H5529 0.951 . S
C5548 C5546 1.388 . S
C5548 C5549 1.366 . S
C5549 C5548 1.366 . S
C5549 C5550 1.414 . S
C5549 C5552 1.499 . S
C5550 H5530 0.950 . S
C5550 C5549 1.414 . S
C5550 C5551 1.374 . S
C5551 H5531 0.950 . S
C5551 C5547 1.385 . S
C5551 C5550 1.374 . S
C5552 C5549 1.499 . S
C5552 C5553 1.373 . S
C5552 C5554 1.389 . S
C5553 H5532 0.950 . S
C5553 C5552 1.373 . S
C5553 C5569 1.377 . S
C5554 C5552 1.389 . S
C5554 C5555 1.524 . S
C5554 C5568 1.377 . S
C5555 C5554 1.524 . S
C5555 C5556 1.397 . S
C5555 C5560 1.363 . S
C5556 H5533 0.950 . S
C5556 C5555 1.397 . S
C5556 C5557 1.334 . S
C5557 H5534 0.950 . S
C5557 C5556 1.334 . S
C5557 C5558 1.287 . S
C5558 C5557 1.287 . S
C5558 C5559 1.524 . S
C5558 H5577 0.913 . S
C5559 H5535 0.950 . S
C5559 C5558 1.524 . S
C5559 C5560 1.415 . S
C5560 H5536 0.950 . S
C5560 C5555 1.363 . S
C5560 C5559 1.415 . S
C5561 H5537 0.951 . S
C5561 C5562 1.366 . S
C5561 C5563 1.388 . S
C5562 C5561 1.366 . S
C5562 C5566 1.385 . S
C5563 H5538 0.951 . S
C5563 C5561 1.388 . S
C5563 C5564 1.366 . S
C5564 C5563 1.366 . S
C5564 C5565 1.414 . S
C5564 C5567 1.499 . S
C5565 H5539 0.950 . S
C5565 C5564 1.414 . S
C5565 C5566 1.374 . S
C5566 H5540 0.950 . S
C5566 C5562 1.385 . S
C5566 C5565 1.374 . S
C5567 C5564 1.499 . S
C5567 C5568 1.373 . S
C5567 C5569 1.389 . S
C5568 H5541 0.950 . S
C5568 C5554 1.377 . S
C5568 C5567 1.373 . S
C5569 C5553 1.377 . S
C5569 C5567 1.389 . S
C5569 C5570 1.524 . S
C5570 C5569 1.524 . S
C5570 C5571 1.397 . S
C5570 C5575 1.363 . S
C5571 H5542 0.950 . S
C5571 C5570 1.397 . S
C5571 C5572 1.334 . S
C5572 H5543 0.950 . S
C5572 C5571 1.334 . S
C5572 C5573 1.287 . S
C5573 C5572 1.287 . S
C5573 C5574 1.524 . S
C5573 H5576 0.999 . S
C5574 H5544 0.950 . S
C5574 C5573 1.524 . S
C5574 C5575 1.415 . S
C5575 H5545 0.950 . S
C5575 C5570 1.363 . S
C5575 C5574 1.415 . S
H5576 C5573 0.999 . S
H5577 C5558 0.913 . S
H5578 C5596 0.951 . S
H5579 C5598 0.951 . S
H5580 C5600 0.950 . S
H5581 C5601 0.950 . S
H5582 C5603 0.950 . S
H5583 C5606 0.950 . S
H5584 C5607 0.950 . S
H5585 C5609 0.950 . S
H5586 C5610 0.950 . S
H5587 C5611 0.951 . S
H5588 C5613 0.951 . S
H5589 C5615 0.950 . S
H5590 C5616 0.950 . S
H5591 C5618 0.950 . S
H5592 C5621 0.950 . S
H5593 C5622 0.950 . S
H5594 C5624 0.950 . S
H5595 C5625 0.950 . S
C5596 H5578 0.951 . S
C5596 C5597 1.366 . S
C5596 C5598 1.388 . S
C5597 C5596 1.366 . S
C5597 C5601 1.385 . S
C5598 H5579 0.951 . S
C5598 C5596 1.388 . S
C5598 C5599 1.366 . S
C5599 C5598 1.366 . S
C5599 C5600 1.414 . S
C5599 C5602 1.499 . S
C5600 H5580 0.950 . S
C5600 C5599 1.414 . S
C5600 C5601 1.374 . S
C5601 H5581 0.950 . S
C5601 C5597 1.385 . S
C5601 C5600 1.374 . S
C5602 C5599 1.499 . S
C5602 C5603 1.373 . S
C5602 C5604 1.389 . S
C5603 H5582 0.950 . S
C5603 C5602 1.373 . S
C5603 C5619 1.377 . S
C5604 C5602 1.389 . S
C5604 C5605 1.524 . S
C5604 C5618 1.377 . S
C5605 C5604 1.524 . S
C5605 C5606 1.397 . S
C5605 C5610 1.363 . S
C5606 H5583 0.950 . S
C5606 C5605 1.397 . S
C5606 C5607 1.334 . S
C5607 H5584 0.950 . S
C5607 C5606 1.334 . S
C5607 C5608 1.287 . S
C5608 C5607 1.287 . S
C5608 C5609 1.524 . S
C5608 H5627 0.913 . S
C5609 H5585 0.950 . S
C5609 C5608 1.524 . S
C5609 C5610 1.415 . S
C5610 H5586 0.950 . S
C5610 C5605 1.363 . S
C5610 C5609 1.415 . S
C5611 H5587 0.951 . S
C5611 C5612 1.366 . S
C5611 C5613 1.388 . S
C5612 C5611 1.366 . S
C5612 C5616 1.385 . S
C5613 H5588 0.951 . S
C5613 C5611 1.388 . S
C5613 C5614 1.366 . S
C5614 C5613 1.366 . S
C5614 C5615 1.414 . S
C5614 C5617 1.499 . S
C5615 H5589 0.950 . S
C5615 C5614 1.414 . S
C5615 C5616 1.374 . S
C5616 H5590 0.950 . S
C5616 C5612 1.385 . S
C5616 C5615 1.374 . S
C5617 C5614 1.499 . S
C5617 C5618 1.373 . S
C5617 C5619 1.389 . S
C5618 H5591 0.950 . S
C5618 C5604 1.377 . S
C5618 C5617 1.373 . S
C5619 C5603 1.377 . S
C5619 C5617 1.389 . S
C5619 C5620 1.524 . S
C5620 C5619 1.524 . S
C5620 C5621 1.397 . S
C5620 C5625 1.363 . S
C5621 H5592 0.950 . S
C5621 C5620 1.397 . S
C5621 C5622 1.334 . S
C5622 H5593 0.950 . S
C5622 C5621 1.334 . S
C5622 C5623 1.287 . S
C5623 C5622 1.287 . S
C5623 C5624 1.524 . S
C5623 H5626 0.999 . S
C5624 H5594 0.950 . S
C5624 C5623 1.524 . S
C5624 C5625 1.415 . S
C5625 H5595 0.950 . S
C5625 C5620 1.363 . S
C5625 C5624 1.415 . S
H5626 C5623 0.999 . S
H5627 C5608 0.913 . S
H5628 C5646 0.951 1_556 S
H5629 C5648 0.951 . S
H5630 C5650 0.950 . S
H5631 C5651 0.950 . S
H5632 C5653 0.950 . S
H5633 C5656 0.950 . S
H5634 C5657 0.950 . S
H5635 C5659 0.950 . S
H5636 C5660 0.950 . S
H5637 C5661 0.981 . S
H5638 C5663 0.951 . S
H5639 C5665 0.950 . S
H5640 C5666 0.950 . S
H5641 C5668 0.950 . S
H5642 C5671 0.950 . S
H5643 C5672 0.950 . S
H5644 C5674 0.950 . S
H5645 C5675 0.950 . S
C5646 H5628 0.951 1_554 S
C5646 C5647 1.366 . S
C5646 C5648 1.388 1_554 S
C5647 C5646 1.366 . S
C5647 C5651 1.385 . S
C5648 H5629 0.951 . S
C5648 C5646 1.388 1_556 S
C5648 C5649 1.366 1_556 S
C5649 C5648 1.366 1_554 S
C5649 C5650 1.414 . S
C5649 C5652 1.499 . S
C5650 H5630 0.950 . S
C5650 C5649 1.414 . S
C5650 C5651 1.374 . S
C5651 H5631 0.950 . S
C5651 C5647 1.385 . S
C5651 C5650 1.374 . S
C5652 C5649 1.499 . S
C5652 C5653 1.373 . S
C5652 C5654 1.389 . S
C5653 H5632 0.950 . S
C5653 C5652 1.373 . S
C5653 C5669 1.375 . S
C5654 C5652 1.389 . S
C5654 C5655 1.524 . S
C5654 C5668 1.377 1_554 S
C5655 C5654 1.524 . S
C5655 C5656 1.397 . S
C5655 C5660 1.363 1_554 S
C5656 H5633 0.950 . S
C5656 C5655 1.397 . S
C5656 C5657 1.334 . S
C5657 H5634 0.950 . S
C5657 C5656 1.334 . S
C5657 C5658 1.287 . S
C5658 C5657 1.287 . S
C5658 C5659 1.524 1_554 S
C5658 H5677 0.913 . S
C5659 H5635 0.950 . S
C5659 C5658 1.524 1_556 S
C5659 C5660 1.415 . S
C5660 H5636 0.950 . S
C5660 C5655 1.363 1_556 S
C5660 C5659 1.415 . S
C5661 H5637 0.981 . S
C5661 C5662 1.329 1_554 S
C5661 C5663 1.396 . S
C5662 C5661 1.329 1_556 S
C5662 C5666 1.385 . S
C5663 H5638 0.951 . S
C5663 C5661 1.396 . S
C5663 C5664 1.366 1_554 S
C5664 C5663 1.366 1_556 S
C5664 C5665 1.414 . S
C5664 C5667 1.499 . S
C5665 H5639 0.950 . S
C5665 C5664 1.414 . S
C5665 C5666 1.374 . S
C5666 H5640 0.950 . S
C5666 C5662 1.385 . S
C5666 C5665 1.374 . S
C5667 C5664 1.499 . S
C5667 C5668 1.373 . S
C5667 C5669 1.391 1_556 S
C5668 H5641 0.950 . S
C5668 C5654 1.377 1_556 S
C5668 C5667 1.373 . S
C5669 C5653 1.375 . S
C5669 C5667 1.391 1_554 S
C5669 C5670 1.525 1_554 S
C5670 C5669 1.525 1_556 S
C5670 C5671 1.397 . S
C5670 C5675 1.363 1_556 S
C5671 H5642 0.950 . S
C5671 C5670 1.397 . S
C5671 C5672 1.334 . S
C5672 H5643 0.950 . S
C5672 C5671 1.334 . S
C5672 C5673 1.287 . S
C5673 C5672 1.287 . S
C5673 C5674 1.524 1_556 S
C5673 H5676 0.999 . S
C5674 H5644 0.950 . S
C5674 C5673 1.524 1_554 S
C5674 C5675 1.415 . S
C5675 H5645 0.950 . S
C5675 C5670 1.363 1_554 S
C5675 C5674 1.415 . S
H5676 C5673 0.999 . S
H5677 C5658 0.913 . S
H5678 C5696 0.951 . S
H5679 C5698 0.951 . S
H5680 C5700 0.950 . S
H5681 C5701 0.950 . S
H5682 C5703 0.950 . S
H5683 C5706 0.950 . S
H5684 C5707 0.950 . S
H5685 C5709 0.950 . S
H5686 C5710 0.950 . S
H5687 C5711 0.951 . S
H5688 C5713 0.951 . S
H5689 C5715 0.950 . S
H5690 C5716 0.950 . S
H5691 C5718 0.950 . S
H5692 C5721 0.950 . S
H5693 C5722 0.950 . S
H5694 C5724 0.950 . S
H5695 C5725 0.950 . S
C5696 H5678 0.951 . S
C5696 C5697 1.366 . S
C5696 C5698 1.388 . S
C5697 C5696 1.366 . S
C5697 C5701 1.385 . S
C5698 H5679 0.951 . S
C5698 C5696 1.388 . S
C5698 C5699 1.366 . S
C5699 C5698 1.366 . S
C5699 C5700 1.414 . S
C5699 C5702 1.499 . S
C5700 H5680 0.950 . S
C5700 C5699 1.414 . S
C5700 C5701 1.374 . S
C5701 H5681 0.950 . S
C5701 C5697 1.385 . S
C5701 C5700 1.374 . S
C5702 C5699 1.499 . S
C5702 C5703 1.373 . S
C5702 C5704 1.389 . S
C5703 H5682 0.950 . S
C5703 C5702 1.373 . S
C5703 C5719 1.377 . S
C5704 C5702 1.389 . S
C5704 C5705 1.524 . S
C5704 C5718 1.377 . S
C5705 C5704 1.524 . S
C5705 C5706 1.397 . S
C5705 C5710 1.363 . S
C5706 H5683 0.950 . S
C5706 C5705 1.397 . S
C5706 C5707 1.334 . S
C5707 H5684 0.950 . S
C5707 C5706 1.334 . S
C5707 C5708 1.287 . S
C5708 C5707 1.287 . S
C5708 C5709 1.524 . S
C5708 H5727 0.898 1_554 S
C5709 H5685 0.950 . S
C5709 C5708 1.524 . S
C5709 C5710 1.415 . S
C5710 H5686 0.950 . S
C5710 C5705 1.363 . S
C5710 C5709 1.415 . S
C5711 H5687 0.951 . S
C5711 C5712 1.366 . S
C5711 C5713 1.388 . S
C5712 C5711 1.366 . S
C5712 C5716 1.385 . S
C5713 H5688 0.951 . S
C5713 C5711 1.388 . S
C5713 C5714 1.366 . S
C5714 C5713 1.366 . S
C5714 C5715 1.414 . S
C5714 C5717 1.499 . S
C5715 H5689 0.950 . S
C5715 C5714 1.414 . S
C5715 C5716 1.374 . S
C5716 H5690 0.950 . S
C5716 C5712 1.385 . S
C5716 C5715 1.374 . S
C5717 C5714 1.499 . S
C5717 C5718 1.373 . S
C5717 C5719 1.389 . S
C5718 H5691 0.950 . S
C5718 C5704 1.377 . S
C5718 C5717 1.373 . S
C5719 C5703 1.377 . S
C5719 C5717 1.389 . S
C5719 C5720 1.524 . S
C5720 C5719 1.524 . S
C5720 C5721 1.397 . S
C5720 C5725 1.363 . S
C5721 H5692 0.950 . S
C5721 C5720 1.397 . S
C5721 C5722 1.334 . S
C5722 H5693 0.950 . S
C5722 C5721 1.334 . S
C5722 C5723 1.287 . S
C5723 C5722 1.287 . S
C5723 C5724 1.524 . S
C5723 H5726 0.999 . S
C5724 H5694 0.950 . S
C5724 C5723 1.524 . S
C5724 C5725 1.415 . S
C5725 H5695 0.950 . S
C5725 C5720 1.363 . S
C5725 C5724 1.415 . S
H5726 C5723 0.999 . S
H5727 C5708 0.898 1_556 S
H5728 C5746 0.951 . S
H5729 C5748 0.951 . S
H5730 C5750 0.950 . S
H5731 C5751 0.950 . S
H5732 C5753 0.950 . S
H5733 C5756 0.950 . S
H5734 C5757 0.950 . S
H5735 C5759 0.950 . S
H5736 C5760 0.950 . S
H5737 C5761 0.951 . S
H5738 C5763 0.951 . S
H5739 C5765 0.950 . S
H5740 C5766 0.950 . S
H5741 C5768 0.950 . S
H5742 C5771 0.950 . S
H5743 C5772 0.950 . S
H5744 C5774 0.950 . S
H5745 C5775 0.950 . S
C5746 H5728 0.951 . S
C5746 C5747 1.366 . S
C5746 C5748 1.388 . S
C5747 C5746 1.366 . S
C5747 C5751 1.385 . S
C5748 H5729 0.951 . S
C5748 C5746 1.388 . S
C5748 C5749 1.366 . S
C5749 C5748 1.366 . S
C5749 C5750 1.414 . S
C5749 C5752 1.499 . S
C5750 H5730 0.950 . S
C5750 C5749 1.414 . S
C5750 C5751 1.374 . S
C5751 H5731 0.950 . S
C5751 C5747 1.385 . S
C5751 C5750 1.374 . S
C5752 C5749 1.499 . S
C5752 C5753 1.373 . S
C5752 C5754 1.389 . S
C5753 H5732 0.950 . S
C5753 C5752 1.373 . S
C5753 C5769 1.377 . S
C5754 C5752 1.389 . S
C5754 C5755 1.524 . S
C5754 C5768 1.377 . S
C5755 C5754 1.524 . S
C5755 C5756 1.397 . S
C5755 C5760 1.363 . S
C5756 H5733 0.950 . S
C5756 C5755 1.397 . S
C5756 C5757 1.334 . S
C5757 H5734 0.950 . S
C5757 C5756 1.334 . S
C5757 C5758 1.287 . S
C5758 C5757 1.287 . S
C5758 C5759 1.524 . S
C5758 H5777 0.913 . S
C5759 H5735 0.950 . S
C5759 C5758 1.524 . S
C5759 C5760 1.415 . S
C5760 H5736 0.950 . S
C5760 C5755 1.363 . S
C5760 C5759 1.415 . S
C5761 H5737 0.951 . S
C5761 C5762 1.366 . S
C5761 C5763 1.388 . S
C5762 C5761 1.366 . S
C5762 C5766 1.385 . S
C5763 H5738 0.951 . S
C5763 C5761 1.388 . S
C5763 C5764 1.366 . S
C5764 C5763 1.366 . S
C5764 C5765 1.414 . S
C5764 C5767 1.499 . S
C5765 H5739 0.950 . S
C5765 C5764 1.414 . S
C5765 C5766 1.374 . S
C5766 H5740 0.950 . S
C5766 C5762 1.385 . S
C5766 C5765 1.374 . S
C5767 C5764 1.499 . S
C5767 C5768 1.373 . S
C5767 C5769 1.389 . S
C5768 H5741 0.950 . S
C5768 C5754 1.377 . S
C5768 C5767 1.373 . S
C5769 C5753 1.377 . S
C5769 C5767 1.389 . S
C5769 C5770 1.524 . S
C5770 C5769 1.524 . S
C5770 C5771 1.397 . S
C5770 C5775 1.363 . S
C5771 H5742 0.950 . S
C5771 C5770 1.397 . S
C5771 C5772 1.334 . S
C5772 H5743 0.950 . S
C5772 C5771 1.334 . S
C5772 C5773 1.287 . S
C5773 C5772 1.287 . S
C5773 C5774 1.524 . S
C5773 H5776 0.999 . S
C5774 H5744 0.950 . S
C5774 C5773 1.524 . S
C5774 C5775 1.415 . S
C5775 H5745 0.950 . S
C5775 C5770 1.363 . S
C5775 C5774 1.415 . S
H5776 C5773 0.999 . S
H5777 C5758 0.913 . S
H5778 C5796 0.951 . S
H5779 C5798 0.951 . S
H5780 C5800 0.950 1_556 S
H5781 C5801 0.950 1_556 S
H5782 C5803 0.950 . S
H5783 C5806 0.950 1_556 S
H5784 C5807 0.950 1_556 S
H5785 C5809 0.950 . S
H5786 C5810 0.950 . S
H5787 C5811 0.974 . S
H5788 C5813 0.930 1_556 S
H5789 C5815 0.950 . S
H5790 C5816 0.950 . S
H5791 C5818 0.950 . S
H5792 C5821 0.950 . S
H5793 C5822 0.950 . S
H5794 C5824 0.950 . S
H5795 C5825 0.986 . S
C5796 H5778 0.951 . S
C5796 C5797 1.366 . S
C5796 C5798 1.388 . S
C5797 C5796 1.366 . S
C5797 C5801 1.385 . S
C5798 H5779 0.951 . S
C5798 C5796 1.388 . S
C5798 C5799 1.366 . S
C5799 C5798 1.366 . S
C5799 C5800 1.414 . S
C5799 C5802 1.499 . S
C5800 H5780 0.950 1_554 S
C5800 C5799 1.414 . S
C5800 C5801 1.374 . S
C5801 H5781 0.950 1_554 S
C5801 C5797 1.385 . S
C5801 C5800 1.374 . S
C5802 C5799 1.499 . S
C5802 C5803 1.373 . S
C5802 C5804 1.389 . S
C5803 H5782 0.950 . S
C5803 C5802 1.373 . S
C5803 C5819 1.377 . S
C5804 C5802 1.389 . S
C5804 C5805 1.524 . S
C5804 C5818 1.377 . S
C5805 C5804 1.524 . S
C5805 C5806 1.397 . S
C5805 C5810 1.363 . S
C5806 H5783 0.950 1_554 S
C5806 C5805 1.397 . S
C5806 C5807 1.334 . S
C5807 H5784 0.950 1_554 S
C5807 C5806 1.334 . S
C5807 C5808 1.287 . S
C5808 C5807 1.287 . S
C5808 C5809 1.524 . S
C5808 H5827 0.913 . S
C5809 H5785 0.950 . S
C5809 C5808 1.524 . S
C5809 C5810 1.415 . S
C5810 H5786 0.950 . S
C5810 C5805 1.363 . S
C5810 C5809 1.415 . S
C5811 H5787 0.974 . S
C5811 C5812 1.345 1_556 S
C5811 C5813 1.387 1_556 S
C5812 C5811 1.345 1_554 S
C5812 C5816 1.385 . S
C5813 H5788 0.930 1_554 S
C5813 C5811 1.387 1_554 S
C5813 C5814 1.388 . S
C5814 C5813 1.388 . S
C5814 C5815 1.414 . S
C5814 C5817 1.499 . S
C5815 H5789 0.950 . S
C5815 C5814 1.414 . S
C5815 C5816 1.374 . S
C5816 H5790 0.950 . S
C5816 C5812 1.385 . S
C5816 C5815 1.374 . S
C5817 C5814 1.499 . S
C5817 C5818 1.373 . S
C5817 C5819 1.389 . S
C5818 H5791 0.950 . S
C5818 C5804 1.377 . S
C5818 C5817 1.373 . S
C5819 C5803 1.377 . S
C5819 C5817 1.389 . S
C5819 C5820 1.524 . S
C5820 C5819 1.524 . S
C5820 C5821 1.397 . S
C5820 C5825 1.331 1_554 S
C5821 H5792 0.950 . S
C5821 C5820 1.397 . S
C5821 C5822 1.334 . S
C5822 H5793 0.950 . S
C5822 C5821 1.334 . S
C5822 C5823 1.287 . S
C5823 C5822 1.287 . S
C5823 C5824 1.524 1_554 S
C5823 H5826 0.999 . S
C5824 H5794 0.950 . S
C5824 C5823 1.524 1_556 S
C5824 C5825 1.414 . S
C5825 H5795 0.986 . S
C5825 C5820 1.331 1_556 S
C5825 C5824 1.414 . S
H5826 C5823 0.999 . S
H5827 C5808 0.913 . S
H5828 C5846 0.951 . S
H5829 C5848 0.951 . S
H5830 C5850 0.950 . S
H5831 C5851 0.950 . S
H5832 C5853 0.950 . S
H5833 C5856 0.950 . S
H5834 C5857 0.950 . S
H5835 C5859 0.950 . S
H5836 C5860 0.950 . S
H5837 C5861 0.951 . S
H5838 C5863 0.951 . S
H5839 C5865 0.950 . S
H5840 C5866 0.950 . S
H5841 C5868 0.950 . S
H5842 C5871 0.950 . S
H5843 C5872 0.950 . S
H5844 C5874 0.950 . S
H5845 C5875 0.950 . S
C5846 H5828 0.951 . S
C5846 C5847 1.366 . S
C5846 C5848 1.388 . S
C5847 C5846 1.366 . S
C5847 C5851 1.385 . S
C5848 H5829 0.951 . S
C5848 C5846 1.388 . S
C5848 C5849 1.366 . S
C5849 C5848 1.366 . S
C5849 C5850 1.414 . S
C5849 C5852 1.499 . S
C5850 H5830 0.950 . S
C5850 C5849 1.414 . S
C5850 C5851 1.374 . S
C5851 H5831 0.950 . S
C5851 C5847 1.385 . S
C5851 C5850 1.374 . S
C5852 C5849 1.499 . S
C5852 C5853 1.373 . S
C5852 C5854 1.389 . S
C5853 H5832 0.950 . S
C5853 C5852 1.373 . S
C5853 C5869 1.377 . S
C5854 C5852 1.389 . S
C5854 C5855 1.524 . S
C5854 C5868 1.377 . S
C5855 C5854 1.524 . S
C5855 C5856 1.397 . S
C5855 C5860 1.363 . S
C5856 H5833 0.950 . S
C5856 C5855 1.397 . S
C5856 C5857 1.334 . S
C5857 H5834 0.950 . S
C5857 C5856 1.334 . S
C5857 C5858 1.287 . S
C5858 C5857 1.287 . S
C5858 C5859 1.524 . S
C5858 H5877 0.913 . S
C5859 H5835 0.950 . S
C5859 C5858 1.524 . S
C5859 C5860 1.415 . S
C5860 H5836 0.950 . S
C5860 C5855 1.363 . S
C5860 C5859 1.415 . S
C5861 H5837 0.951 . S
C5861 C5862 1.366 . S
C5861 C5863 1.388 . S
C5862 C5861 1.366 . S
C5862 C5866 1.385 . S
C5863 H5838 0.951 . S
C5863 C5861 1.388 . S
C5863 C5864 1.366 . S
C5864 C5863 1.366 . S
C5864 C5865 1.414 . S
C5864 C5867 1.499 . S
C5865 H5839 0.950 . S
C5865 C5864 1.414 . S
C5865 C5866 1.374 . S
C5866 H5840 0.950 . S
C5866 C5862 1.385 . S
C5866 C5865 1.374 . S
C5867 C5864 1.499 . S
C5867 C5868 1.373 . S
C5867 C5869 1.389 . S
C5868 H5841 0.950 . S
C5868 C5854 1.377 . S
C5868 C5867 1.373 . S
C5869 C5853 1.377 . S
C5869 C5867 1.389 . S
C5869 C5870 1.524 . S
C5870 C5869 1.524 . S
C5870 C5871 1.397 . S
C5870 C5875 1.363 . S
C5871 H5842 0.950 . S
C5871 C5870 1.397 . S
C5871 C5872 1.334 . S
C5872 H5843 0.950 . S
C5872 C5871 1.334 . S
C5872 C5873 1.287 . S
C5873 C5872 1.287 . S
C5873 C5874 1.524 . S
C5873 H5876 0.999 . S
C5874 H5844 0.950 . S
C5874 C5873 1.524 . S
C5874 C5875 1.415 . S
C5875 H5845 0.950 . S
C5875 C5870 1.363 . S
C5875 C5874 1.415 . S
H5876 C5873 0.999 . S
H5877 C5858 0.913 . S
H5878 C5896 0.951 . S
H5879 C5898 0.951 . S
H5880 C5900 0.950 . S
H5881 C5901 0.950 . S
H5882 C5903 0.950 . S
H5883 C5906 0.950 . S
H5884 C5907 0.950 . S
H5885 C5909 0.950 . S
H5886 C5910 0.950 . S
H5887 C5911 0.951 . S
H5888 C5913 0.951 . S
H5889 C5915 0.950 . S
H5890 C5916 0.950 . S
H5891 C5918 0.950 . S
H5892 C5921 0.950 . S
H5893 C5922 0.950 . S
H5894 C5924 0.950 . S
H5895 C5925 0.950 . S
C5896 H5878 0.951 . S
C5896 C5897 1.366 . S
C5896 C5898 1.388 . S
C5897 C5896 1.366 . S
C5897 C5901 1.385 . S
C5898 H5879 0.951 . S
C5898 C5896 1.388 . S
C5898 C5899 1.366 . S
C5899 C5898 1.366 . S
C5899 C5900 1.414 . S
C5899 C5902 1.499 . S
C5900 H5880 0.950 . S
C5900 C5899 1.414 . S
C5900 C5901 1.374 . S
C5901 H5881 0.950 . S
C5901 C5897 1.385 . S
C5901 C5900 1.374 . S
C5902 C5899 1.499 . S
C5902 C5903 1.373 . S
C5902 C5904 1.389 . S
C5903 H5882 0.950 . S
C5903 C5902 1.373 . S
C5903 C5919 1.377 . S
C5904 C5902 1.389 . S
C5904 C5905 1.524 . S
C5904 C5918 1.377 . S
C5905 C5904 1.524 . S
C5905 C5906 1.397 . S
C5905 C5910 1.363 . S
C5906 H5883 0.950 . S
C5906 C5905 1.397 . S
C5906 C5907 1.334 . S
C5907 H5884 0.950 . S
C5907 C5906 1.334 . S
C5907 C5908 1.287 . S
C5908 C5907 1.287 . S
C5908 C5909 1.524 . S
C5908 H5927 0.913 . S
C5909 H5885 0.950 . S
C5909 C5908 1.524 . S
C5909 C5910 1.415 . S
C5910 H5886 0.950 . S
C5910 C5905 1.363 . S
C5910 C5909 1.415 . S
C5911 H5887 0.951 . S
C5911 C5912 1.366 . S
C5911 C5913 1.388 . S
C5912 C5911 1.366 . S
C5912 C5916 1.385 . S
C5913 H5888 0.951 . S
C5913 C5911 1.388 . S
C5913 C5914 1.366 . S
C5914 C5913 1.366 . S
C5914 C5915 1.414 . S
C5914 C5917 1.499 . S
C5915 H5889 0.950 . S
C5915 C5914 1.414 . S
C5915 C5916 1.374 . S
C5916 H5890 0.950 . S
C5916 C5912 1.385 . S
C5916 C5915 1.374 . S
C5917 C5914 1.499 . S
C5917 C5918 1.373 . S
C5917 C5919 1.389 . S
C5918 H5891 0.950 . S
C5918 C5904 1.377 . S
C5918 C5917 1.373 . S
C5919 C5903 1.377 . S
C5919 C5917 1.389 . S
C5919 C5920 1.524 . S
C5920 C5919 1.524 . S
C5920 C5921 1.397 . S
C5920 C5925 1.363 . S
C5921 H5892 0.950 . S
C5921 C5920 1.397 . S
C5921 C5922 1.334 . S
C5922 H5893 0.950 . S
C5922 C5921 1.334 . S
C5922 C5923 1.287 . S
C5923 C5922 1.287 . S
C5923 C5924 1.524 . S
C5923 H5926 0.999 . S
C5924 H5894 0.950 . S
C5924 C5923 1.524 . S
C5924 C5925 1.415 . S
C5925 H5895 0.950 . S
C5925 C5920 1.363 . S
C5925 C5924 1.415 . S
H5926 C5923 0.999 . S
H5927 C5908 0.913 . S
H5928 C5946 0.951 . S
H5929 C5948 0.951 . S
H5930 C5950 0.950 . S
H5931 C5951 0.950 . S
H5932 C5953 0.950 . S
H5933 C5956 0.950 . S
H5934 C5957 0.950 . S
H5935 C5959 0.950 . S
H5936 C5960 0.950 . S
H5937 C5961 0.951 . S
H5938 C5963 0.951 . S
H5939 C5965 0.950 . S
H5940 C5966 0.950 . S
H5941 C5968 0.950 . S
H5942 C5971 0.950 . S
H5943 C5972 0.950 . S
H5944 C5974 0.950 . S
H5945 C5975 0.950 . S
C5946 H5928 0.951 . S
C5946 C5947 1.366 . S
C5946 C5948 1.388 . S
C5947 C5946 1.366 . S
C5947 C5951 1.385 . S
C5948 H5929 0.951 . S
C5948 C5946 1.388 . S
C5948 C5949 1.366 . S
C5949 C5948 1.366 . S
C5949 C5950 1.414 . S
C5949 C5952 1.499 . S
C5950 H5930 0.950 . S
C5950 C5949 1.414 . S
C5950 C5951 1.374 . S
C5951 H5931 0.950 . S
C5951 C5947 1.385 . S
C5951 C5950 1.374 . S
C5952 C5949 1.499 . S
C5952 C5953 1.373 . S
C5952 C5954 1.389 . S
C5953 H5932 0.950 . S
C5953 C5952 1.373 . S
C5953 C5969 1.377 . S
C5954 C5952 1.389 . S
C5954 C5955 1.524 . S
C5954 C5968 1.377 . S
C5955 C5954 1.524 . S
C5955 C5956 1.397 . S
C5955 C5960 1.363 . S
C5956 H5933 0.950 . S
C5956 C5955 1.397 . S
C5956 C5957 1.334 . S
C5957 H5934 0.950 . S
C5957 C5956 1.334 . S
C5957 C5958 1.287 . S
C5958 C5957 1.287 . S
C5958 C5959 1.524 . S
C5958 H5977 0.913 . S
C5959 H5935 0.950 . S
C5959 C5958 1.524 . S
C5959 C5960 1.415 . S
C5960 H5936 0.950 . S
C5960 C5955 1.363 . S
C5960 C5959 1.415 . S
C5961 H5937 0.951 . S
C5961 C5962 1.366 . S
C5961 C5963 1.388 . S
C5962 C5961 1.366 . S
C5962 C5966 1.385 . S
C5963 H5938 0.951 . S
C5963 C5961 1.388 . S
C5963 C5964 1.366 . S
C5964 C5963 1.366 . S
C5964 C5965 1.414 . S
C5964 C5967 1.499 . S
C5965 H5939 0.950 . S
C5965 C5964 1.414 . S
C5965 C5966 1.374 . S
C5966 H5940 0.950 . S
C5966 C5962 1.385 . S
C5966 C5965 1.374 . S
C5967 C5964 1.499 . S
C5967 C5968 1.373 . S
C5967 C5969 1.389 . S
C5968 H5941 0.950 . S
C5968 C5954 1.377 . S
C5968 C5967 1.373 . S
C5969 C5953 1.377 . S
C5969 C5967 1.389 . S
C5969 C5970 1.524 . S
C5970 C5969 1.524 . S
C5970 C5971 1.397 . S
C5970 C5975 1.363 . S
C5971 H5942 0.950 . S
C5971 C5970 1.397 . S
C5971 C5972 1.334 . S
C5972 H5943 0.950 . S
C5972 C5971 1.334 . S
C5972 C5973 1.287 . S
C5973 C5972 1.287 . S
C5973 C5974 1.524 . S
C5973 H5976 0.999 . S
C5974 H5944 0.950 . S
C5974 C5973 1.524 . S
C5974 C5975 1.415 . S
C5975 H5945 0.950 . S
C5975 C5970 1.363 . S
C5975 C5974 1.415 . S
H5976 C5973 0.999 . S
H5977 C5958 0.913 . S
H5978 C5996 0.951 . S
H5979 C5998 0.951 . S
H5980 C6000 0.950 . S
H5981 C6001 0.950 . S
H5982 C6003 0.950 . S
H5983 C6006 0.950 . S
H5984 C6007 0.950 . S
H5985 C6009 0.950 . S
H5986 C6010 0.950 . S
H5987 C6011 0.951 . S
H5988 C6013 0.951 . S
H5989 C6015 0.950 . S
H5990 C6016 0.950 . S
H5991 C6018 0.950 . S
H5992 C6021 0.950 . S
H5993 C6022 0.950 . S
H5994 C6024 0.950 . S
H5995 C6025 0.950 . S
C5996 H5978 0.951 . S
C5996 C5997 1.366 . S
C5996 C5998 1.388 . S
C5997 C5996 1.366 . S
C5997 C6001 1.385 . S
C5998 H5979 0.951 . S
C5998 C5996 1.388 . S
C5998 C5999 1.366 . S
C5999 C5998 1.366 . S
C5999 C6000 1.414 . S
C5999 C6002 1.499 . S
C6000 H5980 0.950 . S
C6000 C5999 1.414 . S
C6000 C6001 1.374 . S
C6001 H5981 0.950 . S
C6001 C5997 1.385 . S
C6001 C6000 1.374 . S
C6002 C5999 1.499 . S
C6002 C6003 1.373 . S
C6002 C6004 1.389 . S
C6003 H5982 0.950 . S
C6003 C6002 1.373 . S
C6003 C6019 1.377 . S
C6004 C6002 1.389 . S
C6004 C6005 1.524 . S
C6004 C6018 1.377 . S
C6005 C6004 1.524 . S
C6005 C6006 1.397 . S
C6005 C6010 1.363 . S
C6006 H5983 0.950 . S
C6006 C6005 1.397 . S
C6006 C6007 1.334 . S
C6007 H5984 0.950 . S
C6007 C6006 1.334 . S
C6007 C6008 1.287 . S
C6008 C6007 1.287 . S
C6008 C6009 1.524 . S
C6008 H6027 0.913 . S
C6009 H5985 0.950 . S
C6009 C6008 1.524 . S
C6009 C6010 1.415 . S
C6010 H5986 0.950 . S
C6010 C6005 1.363 . S
C6010 C6009 1.415 . S
C6011 H5987 0.951 . S
C6011 C6012 1.366 . S
C6011 C6013 1.388 . S
C6012 C6011 1.366 . S
C6012 C6016 1.385 . S
C6013 H5988 0.951 . S
C6013 C6011 1.388 . S
C6013 C6014 1.366 . S
C6014 C6013 1.366 . S
C6014 C6015 1.414 . S
C6014 C6017 1.499 . S
C6015 H5989 0.950 . S
C6015 C6014 1.414 . S
C6015 C6016 1.374 . S
C6016 H5990 0.950 . S
C6016 C6012 1.385 . S
C6016 C6015 1.374 . S
C6017 C6014 1.499 . S
C6017 C6018 1.373 . S
C6017 C6019 1.389 . S
C6018 H5991 0.950 . S
C6018 C6004 1.377 . S
C6018 C6017 1.373 . S
C6019 C6003 1.377 . S
C6019 C6017 1.389 . S
C6019 C6020 1.524 . S
C6020 C6019 1.524 . S
C6020 C6021 1.397 . S
C6020 C6025 1.363 . S
C6021 H5992 0.950 . S
C6021 C6020 1.397 . S
C6021 C6022 1.334 . S
C6022 H5993 0.950 . S
C6022 C6021 1.334 . S
C6022 C6023 1.287 . S
C6023 C6022 1.287 . S
C6023 C6024 1.524 . S
C6023 H6026 0.999 . S
C6024 H5994 0.950 . S
C6024 C6023 1.524 . S
C6024 C6025 1.415 . S
C6025 H5995 0.950 . S
C6025 C6020 1.363 . S
C6025 C6024 1.415 . S
H6026 C6023 0.999 . S
H6027 C6008 0.913 . S
H6028 C6046 0.951 1_655 S
H6029 C6048 0.951 1_655 S
H6030 C6050 0.950 . S
H6031 C6051 0.950 . S
H6032 C6053 0.950 . S
H6033 C6056 0.950 . S
H6034 C6057 0.950 . S
H6035 C6059 0.950 . S
H6036 C6060 0.950 . S
H6037 C6061 0.951 . S
H6038 C6063 0.951 . S
H6039 C6065 0.950 . S
H6040 C6066 0.950 . S
H6041 C6068 0.950 . S
H6042 C6071 0.950 . S
H6043 C6072 0.950 . S
H6044 C6074 0.950 . S
H6045 C6075 0.950 . S
C6046 H6028 0.951 1_455 S
C6046 C6047 1.366 . S
C6046 C6048 1.388 . S
C6047 C6046 1.366 . S
C6047 C6051 1.385 . S
C6048 H6029 0.951 1_455 S
C6048 C6046 1.388 . S
C6048 C6049 1.366 . S
C6049 C6048 1.366 . S
C6049 C6050 1.414 . S
C6049 C6052 1.499 . S
C6050 H6030 0.950 . S
C6050 C6049 1.414 . S
C6050 C6051 1.374 . S
C6051 H6031 0.950 . S
C6051 C6047 1.385 . S
C6051 C6050 1.374 . S
C6052 C6049 1.499 . S
C6052 C6053 1.373 . S
C6052 C6054 1.389 1_455 S
C6053 H6032 0.950 . S
C6053 C6052 1.373 . S
C6053 C6069 1.377 . S
C6054 C6052 1.389 1_655 S
C6054 C6055 1.524 . S
C6054 C6068 1.377 . S
C6055 C6054 1.524 . S
C6055 C6056 1.397 . S
C6055 C6060 1.363 . S
C6056 H6033 0.950 . S
C6056 C6055 1.397 . S
C6056 C6057 1.334 . S
C6057 H6034 0.950 . S
C6057 C6056 1.334 . S
C6057 C6058 1.287 . S
C6058 C6057 1.287 . S
C6058 C6059 1.524 . S
C6058 H6077 0.913 . S
C6059 H6035 0.950 . S
C6059 C6058 1.524 . S
C6059 C6060 1.415 . S
C6060 H6036 0.950 . S
C6060 C6055 1.363 . S
C6060 C6059 1.415 . S
C6061 H6037 0.951 . S
C6061 C6062 1.386 . S
C6061 C6063 1.388 . S
C6062 C6061 1.386 . S
C6062 C6066 1.366 1_455 S
C6063 H6038 0.951 . S
C6063 C6061 1.388 . S
C6063 C6064 1.366 . S
C6064 C6063 1.366 . S
C6064 C6065 1.414 1_455 S
C6064 C6067 1.499 . S
C6065 H6039 0.950 . S
C6065 C6064 1.414 1_655 S
C6065 C6066 1.374 . S
C6066 H6040 0.950 . S
C6066 C6062 1.366 1_655 S
C6066 C6065 1.374 . S
C6067 C6064 1.499 . S
C6067 C6068 1.373 1_455 S
C6067 C6069 1.389 . S
C6068 H6041 0.950 . S
C6068 C6054 1.377 . S
C6068 C6067 1.373 1_655 S
C6069 C6053 1.377 . S
C6069 C6067 1.389 . S
C6069 C6070 1.524 . S
C6070 C6069 1.524 . S
C6070 C6071 1.397 . S
C6070 C6075 1.363 . S
C6071 H6042 0.950 . S
C6071 C6070 1.397 . S
C6071 C6072 1.334 . S
C6072 H6043 0.950 . S
C6072 C6071 1.334 . S
C6072 C6073 1.287 . S
C6073 C6072 1.287 . S
C6073 C6074 1.524 . S
C6073 H6076 0.999 . S
C6074 H6044 0.950 . S
C6074 C6073 1.524 . S
C6074 C6075 1.415 . S
C6075 H6045 0.950 . S
C6075 C6070 1.363 . S
C6075 C6074 1.415 . S
H6076 C6073 0.999 . S
H6077 C6058 0.913 . S
H6078 C6096 0.965 . S
H6079 C6098 0.951 1_455 S
H6080 C6100 0.950 . S
H6081 C6101 0.950 . S
H6082 C6103 0.950 . S
H6083 C6106 0.950 . S
H6084 C6107 0.950 . S
H6085 C6109 0.950 . S
H6086 C6110 0.950 1_455 S
H6087 C6111 0.951 . S
H6088 C6113 0.946 1_655 S
H6089 C6115 0.950 . S
H6090 C6116 0.950 . S
H6091 C6118 0.961 . S
H6092 C6121 0.950 . S
H6093 C6122 0.950 . S
H6094 C6124 0.950 . S
H6095 C6125 0.950 . S
C6096 H6078 0.965 . S
C6096 C6097 1.366 . S
C6096 C6098 1.388 . S
C6097 C6096 1.366 . S
C6097 C6101 1.385 . S
C6098 H6079 0.951 1_655 S
C6098 C6096 1.388 . S
C6098 C6099 1.366 . S
C6099 C6098 1.366 . S
C6099 C6100 1.414 . S
C6099 C6102 1.499 . S
C6100 H6080 0.950 . S
C6100 C6099 1.414 . S
C6100 C6101 1.374 . S
C6101 H6081 0.950 . S
C6101 C6097 1.385 . S
C6101 C6100 1.374 . S
C6102 C6099 1.499 . S
C6102 C6103 1.373 1_655 S
C6102 C6104 1.389 . S
C6103 H6082 0.950 . S
C6103 C6102 1.373 1_455 S
C6103 C6119 1.377 . S
C6104 C6102 1.389 . S
C6104 C6105 1.524 . S
C6104 C6118 1.389 . S
C6105 C6104 1.524 . S
C6105 C6106 1.397 . S
C6105 C6110 1.363 . S
C6106 H6083 0.950 . S
C6106 C6105 1.397 . S
C6106 C6107 1.334 . S
C6107 H6084 0.950 . S
C6107 C6106 1.334 . S
C6107 C6108 1.287 . S
C6108 C6107 1.287 . S
C6108 C6109 1.524 . S
C6108 H6127 0.913 . S
C6109 H6085 0.950 . S
C6109 C6108 1.524 . S
C6109 C6110 1.415 . S
C6110 H6086 0.950 1_655 S
C6110 C6105 1.363 . S
C6110 C6109 1.415 . S
C6111 H6087 0.951 . S
C6111 C6112 1.366 . S
C6111 C6113 1.388 . S
C6112 C6111 1.366 . S
C6112 C6116 1.385 . S
C6113 H6088 0.946 1_455 S
C6113 C6111 1.388 . S
C6113 C6114 1.366 . S
C6114 C6113 1.366 . S
C6114 C6115 1.414 . S
C6114 C6117 1.499 . S
C6115 H6089 0.950 . S
C6115 C6114 1.414 . S
C6115 C6116 1.374 . S
C6116 H6090 0.950 . S
C6116 C6112 1.385 . S
C6116 C6115 1.374 . S
C6117 C6114 1.499 . S
C6117 C6118 1.352 1_455 S
C6117 C6119 1.389 . S
C6118 H6091 0.961 . S
C6118 C6104 1.389 . S
C6118 C6117 1.352 1_655 S
C6119 C6103 1.377 . S
C6119 C6117 1.389 . S
C6119 C6120 1.524 . S
C6120 C6119 1.524 . S
C6120 C6121 1.397 . S
C6120 C6125 1.363 . S
C6121 H6092 0.950 . S
C6121 C6120 1.397 . S
C6121 C6122 1.334 . S
C6122 H6093 0.950 . S
C6122 C6121 1.334 . S
C6122 C6123 1.287 . S
C6123 C6122 1.287 . S
C6123 C6124 1.524 . S
C6123 H6126 0.999 . S
C6124 H6094 0.950 . S
C6124 C6123 1.524 . S
C6124 C6125 1.415 . S
C6125 H6095 0.950 . S
C6125 C6120 1.363 . S
C6125 C6124 1.415 . S
H6126 C6123 0.999 . S
H6127 C6108 0.913 . S
H6128 C6146 0.951 . S
H6129 C6148 0.951 . S
H6130 C6150 0.950 . S
H6131 C6151 0.950 . S
H6132 C6153 0.950 . S
H6133 C6156 0.950 . S
H6134 C6157 0.950 . S
H6135 C6159 0.950 . S
H6136 C6160 0.950 . S
H6137 C6161 0.951 . S
H6138 C6163 0.951 . S
H6139 C6165 0.950 . S
H6140 C6166 0.950 . S
H6141 C6168 0.950 . S
H6142 C6171 0.950 . S
H6143 C6172 0.950 . S
H6144 C6174 0.950 . S
H6145 C6175 0.950 . S
C6146 H6128 0.951 . S
C6146 C6147 1.366 . S
C6146 C6148 1.388 . S
C6147 C6146 1.366 . S
C6147 C6151 1.385 . S
C6148 H6129 0.951 . S
C6148 C6146 1.388 . S
C6148 C6149 1.366 . S
C6149 C6148 1.366 . S
C6149 C6150 1.414 . S
C6149 C6152 1.499 . S
C6150 H6130 0.950 . S
C6150 C6149 1.414 . S
C6150 C6151 1.374 . S
C6151 H6131 0.950 . S
C6151 C6147 1.385 . S
C6151 C6150 1.374 . S
C6152 C6149 1.499 . S
C6152 C6153 1.373 . S
C6152 C6154 1.389 . S
C6153 H6132 0.950 . S
C6153 C6152 1.373 . S
C6153 C6169 1.377 . S
C6154 C6152 1.389 . S
C6154 C6155 1.524 . S
C6154 C6168 1.377 . S
C6155 C6154 1.524 . S
C6155 C6156 1.397 . S
C6155 C6160 1.363 . S
C6156 H6133 0.950 . S
C6156 C6155 1.397 . S
C6156 C6157 1.334 . S
C6157 H6134 0.950 . S
C6157 C6156 1.334 . S
C6157 C6158 1.287 . S
C6158 C6157 1.287 . S
C6158 C6159 1.524 . S
C6158 H6177 0.913 . S
C6159 H6135 0.950 . S
C6159 C6158 1.524 . S
C6159 C6160 1.415 . S
C6160 H6136 0.950 . S
C6160 C6155 1.363 . S
C6160 C6159 1.415 . S
C6161 H6137 0.951 . S
C6161 C6162 1.366 . S
C6161 C6163 1.388 . S
C6162 C6161 1.366 . S
C6162 C6166 1.385 . S
C6163 H6138 0.951 . S
C6163 C6161 1.388 . S
C6163 C6164 1.366 . S
C6164 C6163 1.366 . S
C6164 C6165 1.414 . S
C6164 C6167 1.499 . S
C6165 H6139 0.950 . S
C6165 C6164 1.414 . S
C6165 C6166 1.374 . S
C6166 H6140 0.950 . S
C6166 C6162 1.385 . S
C6166 C6165 1.374 . S
C6167 C6164 1.499 . S
C6167 C6168 1.373 . S
C6167 C6169 1.389 . S
C6168 H6141 0.950 . S
C6168 C6154 1.377 . S
C6168 C6167 1.373 . S
C6169 C6153 1.377 . S
C6169 C6167 1.389 . S
C6169 C6170 1.524 . S
C6170 C6169 1.524 . S
C6170 C6171 1.397 . S
C6170 C6175 1.363 . S
C6171 H6142 0.950 . S
C6171 C6170 1.397 . S
C6171 C6172 1.334 . S
C6172 H6143 0.950 . S
C6172 C6171 1.334 . S
C6172 C6173 1.287 . S
C6173 C6172 1.287 . S
C6173 C6174 1.524 . S
C6173 H6176 0.999 . S
C6174 H6144 0.950 . S
C6174 C6173 1.524 . S
C6174 C6175 1.415 . S
C6175 H6145 0.950 . S
C6175 C6170 1.363 . S
C6175 C6174 1.415 . S
H6176 C6173 0.999 . S
H6177 C6158 0.913 . S
H6178 C6196 0.951 . S
H6179 C6198 0.951 . S
H6180 C6200 0.950 . S
H6181 C6201 0.950 . S
H6182 C6203 0.950 . S
H6183 C6206 0.950 . S
H6184 C6207 0.950 . S
H6185 C6209 0.950 . S
H6186 C6210 0.950 . S
H6187 C6211 0.951 . S
H6188 C6213 0.951 . S
H6189 C6215 0.950 . S
H6190 C6216 0.950 . S
H6191 C6218 0.950 . S
H6192 C6221 0.950 . S
H6193 C6222 0.950 . S
H6194 C6224 0.950 . S
H6195 C6225 0.950 . S
C6196 H6178 0.951 . S
C6196 C6197 1.366 . S
C6196 C6198 1.388 . S
C6197 C6196 1.366 . S
C6197 C6201 1.385 . S
C6198 H6179 0.951 . S
C6198 C6196 1.388 . S
C6198 C6199 1.366 . S
C6199 C6198 1.366 . S
C6199 C6200 1.414 . S
C6199 C6202 1.499 . S
C6200 H6180 0.950 . S
C6200 C6199 1.414 . S
C6200 C6201 1.374 . S
C6201 H6181 0.950 . S
C6201 C6197 1.385 . S
C6201 C6200 1.374 . S
C6202 C6199 1.499 . S
C6202 C6203 1.373 . S
C6202 C6204 1.389 . S
C6203 H6182 0.950 . S
C6203 C6202 1.373 . S
C6203 C6219 1.377 . S
C6204 C6202 1.389 . S
C6204 C6205 1.524 . S
C6204 C6218 1.377 . S
C6205 C6204 1.524 . S
C6205 C6206 1.397 . S
C6205 C6210 1.363 . S
C6206 H6183 0.950 . S
C6206 C6205 1.397 . S
C6206 C6207 1.334 . S
C6207 H6184 0.950 . S
C6207 C6206 1.334 . S
C6207 C6208 1.287 . S
C6208 C6207 1.287 . S
C6208 C6209 1.524 . S
C6208 H6227 0.913 . S
C6209 H6185 0.950 . S
C6209 C6208 1.524 . S
C6209 C6210 1.415 . S
C6210 H6186 0.950 . S
C6210 C6205 1.363 . S
C6210 C6209 1.415 . S
C6211 H6187 0.951 . S
C6211 C6212 1.366 . S
C6211 C6213 1.388 . S
C6212 C6211 1.366 . S
C6212 C6216 1.385 . S
C6213 H6188 0.951 . S
C6213 C6211 1.388 . S
C6213 C6214 1.366 . S
C6214 C6213 1.366 . S
C6214 C6215 1.414 . S
C6214 C6217 1.499 . S
C6215 H6189 0.950 . S
C6215 C6214 1.414 . S
C6215 C6216 1.374 . S
C6216 H6190 0.950 . S
C6216 C6212 1.385 . S
C6216 C6215 1.374 . S
C6217 C6214 1.499 . S
C6217 C6218 1.373 . S
C6217 C6219 1.389 . S
C6218 H6191 0.950 . S
C6218 C6204 1.377 . S
C6218 C6217 1.373 . S
C6219 C6203 1.377 . S
C6219 C6217 1.389 . S
C6219 C6220 1.524 . S
C6220 C6219 1.524 . S
C6220 C6221 1.397 . S
C6220 C6225 1.363 . S
C6221 H6192 0.950 . S
C6221 C6220 1.397 . S
C6221 C6222 1.334 . S
C6222 H6193 0.950 . S
C6222 C6221 1.334 . S
C6222 C6223 1.287 . S
C6223 C6222 1.287 . S
C6223 C6224 1.524 . S
C6223 H6226 0.999 . S
C6224 H6194 0.950 . S
C6224 C6223 1.524 . S
C6224 C6225 1.415 . S
C6225 H6195 0.950 . S
C6225 C6220 1.363 . S
C6225 C6224 1.415 . S
H6226 C6223 0.999 . S
H6227 C6208 0.913 . S
H6228 C6246 0.951 . S
H6229 C6248 0.951 . S
H6230 C6250 0.950 . S
H6231 C6251 0.950 . S
H6232 C6253 0.950 . S
H6233 C6256 0.950 . S
H6234 C6257 0.950 . S
H6235 C6259 0.950 . S
H6236 C6260 0.950 . S
H6237 C6261 0.951 . S
H6238 C6263 0.951 . S
H6239 C6265 0.950 . S
H6240 C6266 0.950 . S
H6241 C6268 0.950 . S
H6242 C6271 0.950 . S
H6243 C6272 0.950 . S
H6244 C6274 0.950 . S
H6245 C6275 0.950 . S
C6246 H6228 0.951 . S
C6246 C6247 1.366 . S
C6246 C6248 1.388 . S
C6247 C6246 1.366 . S
C6247 C6251 1.385 . S
C6248 H6229 0.951 . S
C6248 C6246 1.388 . S
C6248 C6249 1.366 . S
C6249 C6248 1.366 . S
C6249 C6250 1.414 . S
C6249 C6252 1.499 . S
C6250 H6230 0.950 . S
C6250 C6249 1.414 . S
C6250 C6251 1.374 . S
C6251 H6231 0.950 . S
C6251 C6247 1.385 . S
C6251 C6250 1.374 . S
C6252 C6249 1.499 . S
C6252 C6253 1.373 . S
C6252 C6254 1.389 . S
C6253 H6232 0.950 . S
C6253 C6252 1.373 . S
C6253 C6269 1.377 . S
C6254 C6252 1.389 . S
C6254 C6255 1.524 . S
C6254 C6268 1.377 . S
C6255 C6254 1.524 . S
C6255 C6256 1.397 . S
C6255 C6260 1.363 . S
C6256 H6233 0.950 . S
C6256 C6255 1.397 . S
C6256 C6257 1.334 . S
C6257 H6234 0.950 . S
C6257 C6256 1.334 . S
C6257 C6258 1.287 . S
C6258 C6257 1.287 . S
C6258 C6259 1.524 . S
C6258 H6277 0.913 . S
C6259 H6235 0.950 . S
C6259 C6258 1.524 . S
C6259 C6260 1.415 . S
C6260 H6236 0.950 . S
C6260 C6255 1.363 . S
C6260 C6259 1.415 . S
C6261 H6237 0.951 . S
C6261 C6262 1.366 . S
C6261 C6263 1.388 . S
C6262 C6261 1.366 . S
C6262 C6266 1.385 . S
C6263 H6238 0.951 . S
C6263 C6261 1.388 . S
C6263 C6264 1.366 . S
C6264 C6263 1.366 . S
C6264 C6265 1.414 . S
C6264 C6267 1.499 . S
C6265 H6239 0.950 . S
C6265 C6264 1.414 . S
C6265 C6266 1.374 . S
C6266 H6240 0.950 . S
C6266 C6262 1.385 . S
C6266 C6265 1.374 . S
C6267 C6264 1.499 . S
C6267 C6268 1.373 . S
C6267 C6269 1.389 . S
C6268 H6241 0.950 . S
C6268 C6254 1.377 . S
C6268 C6267 1.373 . S
C6269 C6253 1.377 . S
C6269 C6267 1.389 . S
C6269 C6270 1.524 . S
C6270 C6269 1.524 . S
C6270 C6271 1.397 . S
C6270 C6275 1.363 . S
C6271 H6242 0.950 . S
C6271 C6270 1.397 . S
C6271 C6272 1.334 . S
C6272 H6243 0.950 . S
C6272 C6271 1.334 . S
C6272 C6273 1.287 . S
C6273 C6272 1.287 . S
C6273 C6274 1.524 . S
C6273 H6276 0.999 . S
C6274 H6244 0.950 . S
C6274 C6273 1.524 . S
C6274 C6275 1.415 . S
C6275 H6245 0.950 . S
C6275 C6270 1.363 . S
C6275 C6274 1.415 . S
H6276 C6273 0.999 . S
H6277 C6258 0.913 . S
H6278 C6296 0.951 . S
H6279 C6298 0.951 . S
H6280 C6300 0.950 . S
H6281 C6301 0.950 . S
H6282 C6303 0.950 . S
H6283 C6306 0.950 . S
H6284 C6307 0.950 . S
H6285 C6309 0.950 . S
H6286 C6310 0.950 . S
H6287 C6311 0.951 . S
H6288 C6313 0.951 . S
H6289 C6315 0.950 . S
H6290 C6316 0.950 . S
H6291 C6318 0.950 . S
H6292 C6321 0.950 . S
H6293 C6322 0.950 . S
H6294 C6324 0.950 . S
H6295 C6325 0.950 . S
C6296 H6278 0.951 . S
C6296 C6297 1.366 . S
C6296 C6298 1.388 . S
C6297 C6296 1.366 . S
C6297 C6301 1.385 . S
C6298 H6279 0.951 . S
C6298 C6296 1.388 . S
C6298 C6299 1.366 . S
C6299 C6298 1.366 . S
C6299 C6300 1.414 . S
C6299 C6302 1.499 . S
C6300 H6280 0.950 . S
C6300 C6299 1.414 . S
C6300 C6301 1.374 . S
C6301 H6281 0.950 . S
C6301 C6297 1.385 . S
C6301 C6300 1.374 . S
C6302 C6299 1.499 . S
C6302 C6303 1.373 . S
C6302 C6304 1.389 . S
C6303 H6282 0.950 . S
C6303 C6302 1.373 . S
C6303 C6319 1.377 . S
C6304 C6302 1.389 . S
C6304 C6305 1.524 . S
C6304 C6318 1.377 . S
C6305 C6304 1.524 . S
C6305 C6306 1.397 . S
C6305 C6310 1.363 . S
C6306 H6283 0.950 . S
C6306 C6305 1.397 . S
C6306 C6307 1.334 1_565 S
C6307 H6284 0.950 . S
C6307 C6306 1.334 1_545 S
C6307 C6308 1.287 . S
C6308 C6307 1.287 . S
C6308 C6309 1.524 1_545 S
C6308 H6327 0.913 . S
C6309 H6285 0.950 . S
C6309 C6308 1.524 1_565 S
C6309 C6310 1.415 . S
C6310 H6286 0.950 . S
C6310 C6305 1.363 . S
C6310 C6309 1.415 . S
C6311 H6287 0.951 . S
C6311 C6312 1.366 . S
C6311 C6313 1.388 . S
C6312 C6311 1.366 . S
C6312 C6316 1.385 . S
C6313 H6288 0.951 . S
C6313 C6311 1.388 . S
C6313 C6314 1.366 . S
C6314 C6313 1.366 . S
C6314 C6315 1.414 . S
C6314 C6317 1.499 . S
C6315 H6289 0.950 . S
C6315 C6314 1.414 . S
C6315 C6316 1.374 . S
C6316 H6290 0.950 . S
C6316 C6312 1.385 . S
C6316 C6315 1.374 . S
C6317 C6314 1.499 . S
C6317 C6318 1.373 . S
C6317 C6319 1.389 . S
C6318 H6291 0.950 . S
C6318 C6304 1.377 . S
C6318 C6317 1.373 . S
C6319 C6303 1.377 . S
C6319 C6317 1.389 . S
C6319 C6320 1.524 . S
C6320 C6319 1.524 . S
C6320 C6321 1.397 . S
C6320 C6325 1.363 . S
C6321 H6292 0.950 . S
C6321 C6320 1.397 . S
C6321 C6322 1.334 . S
C6322 H6293 0.950 . S
C6322 C6321 1.334 . S
C6322 C6323 1.287 . S
C6323 C6322 1.287 . S
C6323 C6324 1.524 . S
C6323 H6326 0.999 . S
C6324 H6294 0.950 . S
C6324 C6323 1.524 . S
C6324 C6325 1.415 . S
C6325 H6295 0.950 . S
C6325 C6320 1.363 . S
C6325 C6324 1.415 . S
H6326 C6323 0.999 . S
H6327 C6308 0.913 . S
H6328 C6346 0.951 . S
H6329 C6348 0.951 . S
H6330 C6350 0.950 . S
H6331 C6351 0.950 . S
H6332 C6353 0.950 . S
H6333 C6356 0.950 . S
H6334 C6357 0.950 . S
H6335 C6359 0.950 . S
H6336 C6360 0.950 . S
H6337 C6361 0.951 . S
H6338 C6363 0.951 . S
H6339 C6365 0.950 . S
H6340 C6366 0.950 . S
H6341 C6368 0.950 . S
H6342 C6371 0.950 . S
H6343 C6372 0.950 . S
H6344 C6374 0.950 . S
H6345 C6375 0.950 . S
C6346 H6328 0.951 . S
C6346 C6347 1.366 . S
C6346 C6348 1.388 . S
C6347 C6346 1.366 . S
C6347 C6351 1.385 . S
C6348 H6329 0.951 . S
C6348 C6346 1.388 . S
C6348 C6349 1.366 . S
C6349 C6348 1.366 . S
C6349 C6350 1.414 . S
C6349 C6352 1.499 . S
C6350 H6330 0.950 . S
C6350 C6349 1.414 . S
C6350 C6351 1.374 . S
C6351 H6331 0.950 . S
C6351 C6347 1.385 . S
C6351 C6350 1.374 . S
C6352 C6349 1.499 . S
C6352 C6353 1.373 . S
C6352 C6354 1.389 . S
C6353 H6332 0.950 . S
C6353 C6352 1.373 . S
C6353 C6369 1.377 . S
C6354 C6352 1.389 . S
C6354 C6355 1.524 . S
C6354 C6368 1.377 . S
C6355 C6354 1.524 . S
C6355 C6356 1.397 . S
C6355 C6360 1.363 . S
C6356 H6333 0.950 . S
C6356 C6355 1.397 . S
C6356 C6357 1.334 . S
C6357 H6334 0.950 . S
C6357 C6356 1.334 . S
C6357 C6358 1.287 . S
C6358 C6357 1.287 . S
C6358 C6359 1.524 . S
C6358 H6377 0.913 . S
C6359 H6335 0.950 . S
C6359 C6358 1.524 . S
C6359 C6360 1.415 . S
C6360 H6336 0.950 . S
C6360 C6355 1.363 . S
C6360 C6359 1.415 . S
C6361 H6337 0.951 . S
C6361 C6362 1.366 . S
C6361 C6363 1.388 . S
C6362 C6361 1.366 . S
C6362 C6366 1.385 . S
C6363 H6338 0.951 . S
C6363 C6361 1.388 . S
C6363 C6364 1.366 . S
C6364 C6363 1.366 . S
C6364 C6365 1.414 . S
C6364 C6367 1.499 . S
C6365 H6339 0.950 . S
C6365 C6364 1.414 . S
C6365 C6366 1.374 . S
C6366 H6340 0.950 . S
C6366 C6362 1.385 . S
C6366 C6365 1.374 . S
C6367 C6364 1.499 . S
C6367 C6368 1.373 . S
C6367 C6369 1.389 . S
C6368 H6341 0.950 . S
C6368 C6354 1.377 . S
C6368 C6367 1.373 . S
C6369 C6353 1.377 . S
C6369 C6367 1.389 . S
C6369 C6370 1.524 . S
C6370 C6369 1.524 . S
C6370 C6371 1.397 . S
C6370 C6375 1.363 . S
C6371 H6342 0.950 . S
C6371 C6370 1.397 . S
C6371 C6372 1.334 . S
C6372 H6343 0.950 . S
C6372 C6371 1.334 . S
C6372 C6373 1.287 . S
C6373 C6372 1.287 . S
C6373 C6374 1.524 . S
C6373 H6376 0.999 . S
C6374 H6344 0.950 . S
C6374 C6373 1.524 . S
C6374 C6375 1.415 . S
C6375 H6345 0.950 . S
C6375 C6370 1.363 . S
C6375 C6374 1.415 . S
H6376 C6373 0.999 . S
H6377 C6358 0.913 . S
H6378 C6396 0.951 . S
H6379 C6398 0.951 . S
H6380 C6400 0.950 1_545 S
H6381 C6401 0.950 1_545 S
H6382 C6403 0.950 . S
H6383 C6406 0.950 . S
H6384 C6407 0.950 . S
H6385 C6409 0.950 . S
H6386 C6410 0.950 . S
H6387 C6411 0.951 . S
H6388 C6413 0.951 . S
H6389 C6415 0.950 . S
H6390 C6416 0.950 . S
H6391 C6418 0.950 . S
H6392 C6421 0.950 . S
H6393 C6422 0.950 . S
H6394 C6424 0.950 . S
H6395 C6425 0.950 . S
C6396 H6378 0.951 . S
C6396 C6397 1.366 . S
C6396 C6398 1.388 . S
C6397 C6396 1.366 . S
C6397 C6401 1.385 . S
C6398 H6379 0.951 . S
C6398 C6396 1.388 . S
C6398 C6399 1.366 . S
C6399 C6398 1.366 . S
C6399 C6400 1.414 . S
C6399 C6402 1.499 . S
C6400 H6380 0.950 1_565 S
C6400 C6399 1.414 . S
C6400 C6401 1.374 . S
C6401 H6381 0.950 1_565 S
C6401 C6397 1.385 . S
C6401 C6400 1.374 . S
C6402 C6399 1.499 . S
C6402 C6403 1.373 1_565 S
C6402 C6404 1.389 . S
C6403 H6382 0.950 . S
C6403 C6402 1.373 1_545 S
C6403 C6419 1.377 . S
C6404 C6402 1.389 . S
C6404 C6405 1.524 . S
C6404 C6418 1.377 . S
C6405 C6404 1.524 . S
C6405 C6406 1.397 . S
C6405 C6410 1.363 . S
C6406 H6383 0.950 . S
C6406 C6405 1.397 . S
C6406 C6407 1.334 . S
C6407 H6384 0.950 . S
C6407 C6406 1.334 . S
C6407 C6408 1.287 . S
C6408 C6407 1.287 . S
C6408 C6409 1.524 . S
C6408 H6427 0.913 . S
C6409 H6385 0.950 . S
C6409 C6408 1.524 . S
C6409 C6410 1.415 . S
C6410 H6386 0.950 . S
C6410 C6405 1.363 . S
C6410 C6409 1.415 . S
C6411 H6387 0.951 . S
C6411 C6412 1.366 1_545 S
C6411 C6413 1.388 . S
C6412 C6411 1.366 1_565 S
C6412 C6416 1.385 . S
C6413 H6388 0.951 . S
C6413 C6411 1.388 . S
C6413 C6414 1.366 1_545 S
C6414 C6413 1.366 1_565 S
C6414 C6415 1.414 . S
C6414 C6417 1.499 . S
C6415 H6389 0.950 . S
C6415 C6414 1.414 . S
C6415 C6416 1.374 . S
C6416 H6390 0.950 . S
C6416 C6412 1.385 . S
C6416 C6415 1.374 . S
C6417 C6414 1.499 . S
C6417 C6418 1.373 . S
C6417 C6419 1.389 1_565 S
C6418 H6391 0.950 . S
C6418 C6404 1.377 . S
C6418 C6417 1.373 . S
C6419 C6403 1.377 . S
C6419 C6417 1.389 1_545 S
C6419 C6420 1.524 . S
C6420 C6419 1.524 . S
C6420 C6421 1.397 . S
C6420 C6425 1.363 . S
C6421 H6392 0.950 . S
C6421 C6420 1.397 . S
C6421 C6422 1.334 . S
C6422 H6393 0.950 . S
C6422 C6421 1.334 . S
C6422 C6423 1.287 . S
C6423 C6422 1.287 . S
C6423 C6424 1.524 . S
C6423 H6426 0.999 . S
C6424 H6394 0.950 . S
C6424 C6423 1.524 . S
C6424 C6425 1.415 . S
C6425 H6395 0.950 . S
C6425 C6420 1.363 . S
C6425 C6424 1.415 . S
H6426 C6423 0.999 . S
H6427 C6408 0.913 . S
H6428 C6446 0.951 . S
H6429 C6448 0.951 . S
H6430 C6450 0.950 . S
H6431 C6451 0.950 . S
H6432 C6453 0.950 . S
H6433 C6456 0.950 . S
H6434 C6457 0.950 . S
H6435 C6459 0.950 . S
H6436 C6460 0.950 . S
H6437 C6461 0.951 . S
H6438 C6463 0.951 . S
H6439 C6465 0.950 . S
H6440 C6466 0.950 . S
H6441 C6468 0.950 . S
H6442 C6471 0.950 . S
H6443 C6472 0.950 . S
H6444 C6474 0.950 . S
H6445 C6475 0.950 . S
C6446 H6428 0.951 . S
C6446 C6447 1.366 . S
C6446 C6448 1.388 . S
C6447 C6446 1.366 . S
C6447 C6451 1.385 . S
C6448 H6429 0.951 . S
C6448 C6446 1.388 . S
C6448 C6449 1.366 . S
C6449 C6448 1.366 . S
C6449 C6450 1.414 . S
C6449 C6452 1.499 . S
C6450 H6430 0.950 . S
C6450 C6449 1.414 . S
C6450 C6451 1.374 . S
C6451 H6431 0.950 . S
C6451 C6447 1.385 . S
C6451 C6450 1.374 . S
C6452 C6449 1.499 . S
C6452 C6453 1.373 . S
C6452 C6454 1.389 . S
C6453 H6432 0.950 . S
C6453 C6452 1.373 . S
C6453 C6469 1.377 . S
C6454 C6452 1.389 . S
C6454 C6455 1.524 . S
C6454 C6468 1.377 . S
C6455 C6454 1.524 . S
C6455 C6456 1.397 . S
C6455 C6460 1.363 . S
C6456 H6433 0.950 . S
C6456 C6455 1.397 . S
C6456 C6457 1.334 . S
C6457 H6434 0.950 . S
C6457 C6456 1.334 . S
C6457 C6458 1.287 . S
C6458 C6457 1.287 . S
C6458 C6459 1.524 . S
C6458 H6477 0.913 . S
C6459 H6435 0.950 . S
C6459 C6458 1.524 . S
C6459 C6460 1.415 . S
C6460 H6436 0.950 . S
C6460 C6455 1.363 . S
C6460 C6459 1.415 . S
C6461 H6437 0.951 . S
C6461 C6462 1.366 . S
C6461 C6463 1.388 . S
C6462 C6461 1.366 . S
C6462 C6466 1.385 . S
C6463 H6438 0.951 . S
C6463 C6461 1.388 . S
C6463 C6464 1.366 . S
C6464 C6463 1.366 . S
C6464 C6465 1.414 . S
C6464 C6467 1.499 . S
C6465 H6439 0.950 . S
C6465 C6464 1.414 . S
C6465 C6466 1.374 . S
C6466 H6440 0.950 . S
C6466 C6462 1.385 . S
C6466 C6465 1.374 . S
C6467 C6464 1.499 . S
C6467 C6468 1.373 . S
C6467 C6469 1.389 . S
C6468 H6441 0.950 . S
C6468 C6454 1.377 . S
C6468 C6467 1.373 . S
C6469 C6453 1.377 . S
C6469 C6467 1.389 . S
C6469 C6470 1.524 . S
C6470 C6469 1.524 . S
C6470 C6471 1.397 . S
C6470 C6475 1.363 . S
C6471 H6442 0.950 . S
C6471 C6470 1.397 . S
C6471 C6472 1.334 . S
C6472 H6443 0.950 . S
C6472 C6471 1.334 . S
C6472 C6473 1.287 . S
C6473 C6472 1.287 . S
C6473 C6474 1.524 . S
C6473 H6476 0.999 . S
C6474 H6444 0.950 . S
C6474 C6473 1.524 . S
C6474 C6475 1.415 . S
C6475 H6445 0.950 . S
C6475 C6470 1.363 . S
C6475 C6474 1.415 . S
H6476 C6473 0.999 . S
H6477 C6458 0.913 . S
H6478 C6496 0.951 . S
H6479 C6498 0.951 . S
H6480 C6500 0.950 . S
H6481 C6501 0.950 . S
H6482 C6503 0.950 . S
H6483 C6506 0.950 . S
H6484 C6507 0.950 . S
H6485 C6509 0.950 . S
H6486 C6510 0.950 . S
H6487 C6511 0.951 . S
H6488 C6513 0.951 . S
H6489 C6515 0.950 . S
H6490 C6516 0.950 . S
H6491 C6518 0.950 . S
H6492 C6521 0.950 . S
H6493 C6522 0.950 . S
H6494 C6524 0.950 . S
H6495 C6525 0.950 . S
C6496 H6478 0.951 . S
C6496 C6497 1.366 . S
C6496 C6498 1.388 . S
C6497 C6496 1.366 . S
C6497 C6501 1.385 . S
C6498 H6479 0.951 . S
C6498 C6496 1.388 . S
C6498 C6499 1.366 . S
C6499 C6498 1.366 . S
C6499 C6500 1.414 . S
C6499 C6502 1.499 . S
C6500 H6480 0.950 . S
C6500 C6499 1.414 . S
C6500 C6501 1.374 . S
C6501 H6481 0.950 . S
C6501 C6497 1.385 . S
C6501 C6500 1.374 . S
C6502 C6499 1.499 . S
C6502 C6503 1.373 . S
C6502 C6504 1.389 . S
C6503 H6482 0.950 . S
C6503 C6502 1.373 . S
C6503 C6519 1.377 . S
C6504 C6502 1.389 . S
C6504 C6505 1.524 . S
C6504 C6518 1.377 . S
C6505 C6504 1.524 . S
C6505 C6506 1.397 . S
C6505 C6510 1.363 . S
C6506 H6483 0.950 . S
C6506 C6505 1.397 . S
C6506 C6507 1.334 . S
C6507 H6484 0.950 . S
C6507 C6506 1.334 . S
C6507 C6508 1.287 . S
C6508 C6507 1.287 . S
C6508 C6509 1.524 . S
C6508 H6527 0.913 . S
C6509 H6485 0.950 . S
C6509 C6508 1.524 . S
C6509 C6510 1.415 . S
C6510 H6486 0.950 . S
C6510 C6505 1.363 . S
C6510 C6509 1.415 . S
C6511 H6487 0.951 . S
C6511 C6512 1.366 . S
C6511 C6513 1.388 . S
C6512 C6511 1.366 . S
C6512 C6516 1.385 . S
C6513 H6488 0.951 . S
C6513 C6511 1.388 . S
C6513 C6514 1.366 . S
C6514 C6513 1.366 . S
C6514 C6515 1.414 . S
C6514 C6517 1.499 . S
C6515 H6489 0.950 . S
C6515 C6514 1.414 . S
C6515 C6516 1.374 . S
C6516 H6490 0.950 . S
C6516 C6512 1.385 . S
C6516 C6515 1.374 . S
C6517 C6514 1.499 . S
C6517 C6518 1.373 . S
C6517 C6519 1.389 . S
C6518 H6491 0.950 . S
C6518 C6504 1.377 . S
C6518 C6517 1.373 . S
C6519 C6503 1.377 . S
C6519 C6517 1.389 . S
C6519 C6520 1.524 . S
C6520 C6519 1.524 . S
C6520 C6521 1.397 . S
C6520 C6525 1.363 . S
C6521 H6492 0.950 . S
C6521 C6520 1.397 . S
C6521 C6522 1.334 . S
C6522 H6493 0.950 . S
C6522 C6521 1.334 . S
C6522 C6523 1.287 . S
C6523 C6522 1.287 . S
C6523 C6524 1.524 . S
C6523 H6526 0.999 . S
C6524 H6494 0.950 . S
C6524 C6523 1.524 . S
C6524 C6525 1.415 . S
C6525 H6495 0.950 . S
C6525 C6520 1.363 . S
C6525 C6524 1.415 . S
H6526 C6523 0.999 . S
H6527 C6508 0.913 . S
C1747 C974 0.499 . S
C1762 C2 0.579 . S
C1797 C40 0.653 . S
C1812 C1372 0.564 . S
C1847 C74 0.588 1_545 S
C1862 C902 0.302 . S
C1897 C1444 0.506 . S
C1912 C112 0.508 . S
C1947 C1012 0.726 . S
C1962 C148 0.736 . S
C1997 C182 0.697 . S
C2012 C794 0.670 . S
C2047 C1084 0.602 . S
C2062 C220 0.636 . S
C2097 C254 0.980 . S
C2112 C722 0.632 . S
C2147 C1264 0.740 . S
C2162 C256 0.735 . S
C2197 C1192 0.512 . S
C2212 C146 0.474 . S
C2247 C184 0.690 . S
C2262 C1516 0.699 . S
C2297 C1226 0.706 1_455 S
C2312 C218 1.061 . S
C2347 C290 0.751 . S
C2362 C470 0.747 . S
C2397 C506 0.388 . S
C2412 C328 0.695 . S
C2447 C544 0.791 . S
C2462 C362 0.787 . S
C2497 C434 0.624 . S
C2512 C400 0.594 . S
C2547 C472 0.723 . S
C2562 C866 0.724 . S
C2597 C508 0.954 . S
C2612 C1408 0.933 . S
C2647 C938 0.319 . S
C2662 C542 0.717 . S
C2697 C976 0.653 . S
C2712 C578 0.596 . S
C2747 C616 0.632 . S
C2762 C1048 0.411 . S
C2797 C652 0.596 . S
C2812 C110 0.565 . S
C2847 C686 0.474 . S
C2862 C38 0.492 . S
C2897 C1588 0.395 . S
C2912 C760 0.331 . S
C2947 C1660 0.929 . S
C2962 C832 0.985 . S
C2997 C868 0.580 . S
C3012 C292 0.612 . S
C3047 C940 0.551 . S
C3062 C364 0.952 . S
C3097 C904 0.454 . S
C3112 C1552 0.662 . S
C3147 C1190 0.619 . S
C3162 C1010 0.412 . S
C3197 C1228 0.406 . S
C3212 C1082 0.789 . S
C3247 C1156 0.680 . S
C3262 C1120 0.709 . S
C3297 C614 0.535 . S
C3312 C1624 0.543 . S
C3347 C1300 0.859 . S
C3362 C830 0.601 . S
C3397 C758 0.662 1_554 S
C3412 C1334 0.664 . S
C3447 C1694 0.655 . S
C3462 C1118 0.627 . S
C3497 C1046 0.361 . S
C3512 C1622 0.695 . S
C3547 C326 0.542 . S
C3562 C1406 0.467 . S
C3597 C398 0.869 . S
C3612 C1478 0.892 . S
C3647 C436 0.924 . S
C3662 C1480 0.524 . S
C3697 C688 0.549 . S
C3712 C1370 0.299 . S
C3747 C650 0.905 . S
C3762 C1442 0.866 . S
C3797 C796 0.564 . S
C3812 C1514 0.537 . S
C3847 C724 0.339 . S
C3862 C1262 0.713 . S
C3897 C1586 0.770 . S
C3912 C1336 0.367 . S
C3947 C1658 0.401 . S
C3962 C1298 0.512 . S
C3997 C1696 0.587 . S
C4012 C1154 0.628 . S
C4047 C1550 0.604 . S
C4062 C76 0.585 . S
C4097 C580 0.682 . S
C4112 C4 1.050 . S
C4147 C3 1.472 . S
C4162 C1670 1.316 . S
C4197 C50 1.051 . S
C4212 C1695 1.079 . S
C4247 C75 1.854 . S
C4262 C1598 1.773 . S
C4297 C122 1.191 . S
C4312 C1623 1.374 . S
C4347 C158 1.516 . S
C4362 C327 1.661 . S
C4397 C183 1.013 . S
C4412 C374 1.018 . S
C4447 C230 1.607 . S
C4462 C399 1.661 . S
C4497 C255 1.007 . S
C4512 C302 0.860 . S
C4547 C266 1.415 . S
C4562 C1418 1.376 . S
C4597 C147 2.456 . S
C4612 C939 2.271 . S
C4647 C194 1.598 . S
C4662 C1490 1.090 1_556 S
C4697 C219 1.379 . S
C4712 C867 1.331 . S
C4747 C291 1.972 . S
C4762 C831 1.738 . S
C4797 C338 1.294 . S
C4812 C1130 1.196 . S
C4847 C363 1.700 . S
C4862 C759 1.694 . S
C4897 C1058 1.626 . S
C4912 C410 1.925 . S
C4947 C435 1.601 . S
C4962 C698 1.499 . S
C4997 C482 1.932 . S
C5012 C590 1.487 . S
C5047 C687 1.800 . S
C5062 C518 1.493 . S
C5097 C1551 1.765 . S
C5112 C543 1.794 . S
C5147 C554 2.229 . S
C5162 C579 2.143 . S
C5197 C1299 1.455 . S
C5212 C626 1.352 . S
C5247 C446 1.252 . S
C5262 C662 1.084 . S
C5297 C1454 2.153 . S
C5312 C723 1.962 . S
C5347 C1479 2.063 . S
C5362 C770 2.005 . S
C5397 C795 1.428 . S
C5412 C1382 1.002 . S
C5447 C1407 1.792 . S
C5462 C842 1.490 . S
C5497 C878 1.603 . S
C5512 C1047 1.499 . S
C5547 C1094 2.199 . S
C5562 C903 2.233 . S
C5597 C950 1.554 . S
C5612 C1119 2.319 . S
C5647 C1022 1.290 . S
C5662 C975 1.575 . S
C5697 C986 1.282 . S
C5712 C1634 1.273 . S
C5747 C1706 1.416 . S
C5762 C914 0.875 . S
C5797 C1011 1.242 . S
C5812 C111 1.398 . S
C5847 C39 1.785 . S
C5862 C1083 1.816 . S
C5897 C1346 1.113 . S
C5912 C1166 1.533 . S
C5947 C1263 1.514 . S
C5962 C1202 1.388 . S
C5997 C615 2.053 . S
C6012 C1335 1.941 1_554 S
C6047 C1227 1.973 . S
C6062 C1515 2.232 1_455 S
C6097 C1274 2.088 . S
C6112 C1238 1.627 . S
C6147 C507 1.623 . S
C6162 C651 1.768 . S
C6197 C1155 1.363 . S
C6212 C1310 1.386 . S
C6247 C1659 2.273 . S
C6262 C1371 2.186 . S
C6297 C1443 1.078 1_565 S
C6312 C1587 1.099 . S
C6347 C14 1.313 1_655 S
C6362 C806 1.191 . S
C6397 C734 1.632 . S
C6412 C86 2.046 . S
C6447 C1191 1.159 . S
C6462 C1526 1.012 . S
C6497 C471 1.132 . S
C6512 C1562 1.143 . S
