# Generated by pormake.
# Topology uof, (4)-cn, num edge types: 1
# Building blocks:
#     Node 0, Type 0, BuildingBlock: CEKHIL_clean_sbu_0, # of connection points: 4
#     Node 1, Type 0, BuildingBlock: CEKHIL_clean_sbu_0, # of connection points: 4
#     Node 2, Type 0, BuildingBlock: CEKHIL_clean_sbu_0, # of connection points: 4
#     Node 3, Type 0, BuildingBlock: CEKHIL_clean_sbu_0, # of connection points: 4
#     Node 4, Type 0, BuildingBlock: CEKHIL_clean_sbu_0, # of connection points: 4
#     Node 5, Type 0, BuildingBlock: CEKHIL_clean_sbu_0, # of connection points: 4
#     Node 6, Type 0, BuildingBlock: CEKHIL_clean_sbu_0, # of connection points: 4
#     Node 7, Type 0, BuildingBlock: CEKHIL_clean_sbu_0, # of connection points: 4
#     Node 8, Type 0, BuildingBlock: CEKHIL_clean_sbu_0, # of connection points: 4
#     Node 9, Type 0, BuildingBlock: CEKHIL_clean_sbu_0, # of connection points: 4
#     Node 10, Type 0, BuildingBlock: CEKHIL_clean_sbu_0, # of connection points: 4
#     Node 11, Type 0, BuildingBlock: CEKHIL_clean_sbu_0, # of connection points: 4
#     Edge 12, Type (0, 0), BuildingBlock: CIFDUS_clean_linker_0, # of connection points: 2
#     Edge 13, Type (0, 0), BuildingBlock: CIFDUS_clean_linker_0, # of connection points: 2
#     Edge 14, Type (0, 0), BuildingBlock: CIFDUS_clean_linker_0, # of connection points: 2
#     Edge 15, Type (0, 0), BuildingBlock: CIFDUS_clean_linker_0, # of connection points: 2
#     Edge 16, Type (0, 0), BuildingBlock: CIFDUS_clean_linker_0, # of connection points: 2
#     Edge 17, Type (0, 0), BuildingBlock: CIFDUS_clean_linker_0, # of connection points: 2
#     Edge 18, Type (0, 0), BuildingBlock: CIFDUS_clean_linker_0, # of connection points: 2
#     Edge 19, Type (0, 0), BuildingBlock: CIFDUS_clean_linker_0, # of connection points: 2
#     Edge 20, Type (0, 0), BuildingBlock: CIFDUS_clean_linker_0, # of connection points: 2
#     Edge 21, Type (0, 0), BuildingBlock: CIFDUS_clean_linker_0, # of connection points: 2
#     Edge 22, Type (0, 0), BuildingBlock: CIFDUS_clean_linker_0, # of connection points: 2
#     Edge 23, Type (0, 0), BuildingBlock: CIFDUS_clean_linker_0, # of connection points: 2
#     Edge 24, Type (0, 0), BuildingBlock: CIFDUS_clean_linker_0, # of connection points: 2
#     Edge 25, Type (0, 0), BuildingBlock: CIFDUS_clean_linker_0, # of connection points: 2
#     Edge 26, Type (0, 0), BuildingBlock: CIFDUS_clean_linker_0, # of connection points: 2
#     Edge 27, Type (0, 0), BuildingBlock: CIFDUS_clean_linker_0, # of connection points: 2
#     Edge 28, Type (0, 0), BuildingBlock: CIFDUS_clean_linker_0, # of connection points: 2
#     Edge 29, Type (0, 0), BuildingBlock: CIFDUS_clean_linker_0, # of connection points: 2
#     Edge 30, Type (0, 0), BuildingBlock: CIFDUS_clean_linker_0, # of connection points: 2
#     Edge 31, Type (0, 0), BuildingBlock: CIFDUS_clean_linker_0, # of connection points: 2
#     Edge 32, Type (0, 0), BuildingBlock: CIFDUS_clean_linker_0, # of connection points: 2
#     Edge 33, Type (0, 0), BuildingBlock: CIFDUS_clean_linker_0, # of connection points: 2
#     Edge 34, Type (0, 0), BuildingBlock: CIFDUS_clean_linker_0, # of connection points: 2
#     Edge 35, Type (0, 0), BuildingBlock: CIFDUS_clean_linker_0, # of connection points: 2
# Relax obj value: 0.195
# Max RMSD: 0.142
# Mean RMSD: 0.142
data_MOF--net-uof--node1-CEKHIL_clean_sbu_0--edge1-CIFDUS_clean_linker_0
_symmetry_space_group_name_H-M    P1
_symmetry_Int_Tables_number       1
_symmetry_cell_setting            triclinic
loop_
_symmetry_equiv_pos_as_xyz
'x, y, z'
_cell_length_a     27.898254
_cell_length_b     27.93854
_cell_length_c     54.648079
_cell_angle_alpha  89.998991
_cell_angle_beta   89.978725
_cell_angle_gamma 120.06013
loop_
_atom_site_label
_atom_site_type_symbol
_atom_site_fract_x
_atom_site_fract_y
_atom_site_fract_z
_atom_type_partial_charge
Co0 Co 0.21934 0.31628 0.23009 0.0
O1 O 0.13865 0.27158 0.23223 0.0
O2 O 0.18284 0.34361 0.208 0.0
C3 C 0.24049 0.31934 0.27059 0.0
O4 O 0.30219 0.37366 0.2233 0.0
Co5 Co 0.2943 0.26743 0.24563 0.0
O6 O 0.35685 0.34086 0.23669 0.0
C7 C 0.20826 0.21706 0.20858 0.0
C8 C 0.13572 0.30151 0.21473 0.0
C9 C 0.35067 0.37906 0.22715 0.0
O10 O 0.21601 0.26533 0.20369 0.0
O11 O 0.23123 0.20815 0.22686 0.0
O12 O 0.22459 0.35298 0.26216 0.0
O13 O 0.23692 0.28321 0.25525 0.0
Co14 Co 0.94102 0.21247 0.56271 0.0
O15 O 0.8965 0.1313 0.56196 0.0
O16 O 0.88352 0.18686 0.53785 0.0
C17 C 0.95078 0.22823 0.60379 0.0
O18 O 0.97568 0.29682 0.55746 0.0
Co19 Co 0.06064 0.27705 0.58381 0.0
O20 O 0.05897 0.34521 0.57563 0.0
C21 C 0.02975 0.19622 0.54479 0.0
C22 C 0.87101 0.13647 0.54304 0.0
C23 C 0.01891 0.34323 0.56361 0.0
O24 O 0.99158 0.20669 0.53856 0.0
O25 O 0.05755 0.21507 0.56449 0.0
O26 O 0.90485 0.21864 0.59308 0.0
O27 O 0.98414 0.22157 0.59008 0.0
Co28 Co 0.70628 0.92576 0.89576 0.0
O29 O 0.74777 0.88605 0.8939 0.0
O30 O 0.67702 0.86903 0.87039 0.0
C31 C 0.70078 0.93343 0.937 0.0
O32 O 0.65233 0.95614 0.89197 0.0
Co33 Co 0.75922 0.04486 0.91764 0.0
O34 O 0.68835 0.04082 0.90897 0.0
C35 C 0.80826 0.01757 0.87719 0.0
C36 C 0.71757 0.85994 0.87498 0.0
C37 C 0.64924 0.99951 0.89795 0.0
O38 O 0.75949 0.97901 0.87138 0.0
O39 O 0.8181 0.04412 0.89729 0.0
O40 O 0.66646 0.88677 0.92624 0.0
O41 O 0.73948 0.96873 0.92327 0.0
Co42 Co 0.78972 0.70072 0.22776 0.0
O43 O 0.87033 0.74387 0.23034 0.0
O44 O 0.82571 0.67253 0.20579 0.0
C45 C 0.76795 0.69764 0.26811 0.0
O46 O 0.70662 0.64488 0.22075 0.0
Co47 Co 0.71674 0.7518 0.2435 0.0
O48 O 0.65333 0.67831 0.2353 0.0
C49 C 0.80307 0.80096 0.20627 0.0
C50 C 0.87305 0.71388 0.21282 0.0
C51 C 0.65856 0.63994 0.2253 0.0
O52 O 0.79489 0.75252 0.20143 0.0
O53 O 0.78019 0.81029 0.22449 0.0
O54 O 0.78234 0.66283 0.25964 0.0
O55 O 0.77316 0.73451 0.25285 0.0
Co56 Co 0.10892 0.7761 0.55622 0.0
O57 O 0.1272 0.85288 0.55433 0.0
O58 O 0.17699 0.8217 0.53685 0.0
C59 C 0.08323 0.76047 0.59638 0.0
O60 O 0.10016 0.69766 0.55441 0.0
Co61 Co 0.98401 0.68769 0.56824 0.0
O62 O 1.01073 0.63507 0.56331 0.0
C63 C 0.01872 0.76305 0.52652 0.0
C64 C 0.16763 0.8627 0.53962 0.0
C65 C 0.05976 0.64711 0.5574 0.0
O66 O 0.06437 0.76273 0.52594 0.0
O67 O 0.98319 0.74017 0.54368 0.0
O68 O 0.13575 0.7848 0.59071 0.0
O69 O 0.0511 0.75292 0.57837 0.0
Co70 Co 0.32814 0.11964 0.90121 0.0
O71 O 0.2811 0.15319 0.9014 0.0
O72 O 0.35704 0.18414 0.87946 0.0
C73 C 0.32863 0.10221 0.94191 0.0
O74 O 0.38739 0.09603 0.89598 0.0
Co75 Co 0.28038 0.99624 0.91738 0.0
O76 O 0.35435 1.00824 0.90903 0.0
C77 C 0.23106 0.03043 0.87929 0.0
C78 C 0.31308 0.1872 0.88461 0.0
C79 C 0.39288 0.05309 0.89991 0.0
O80 O 0.27955 0.07097 0.87444 0.0
O81 O 0.22175 0.99921 0.89785 0.0
O82 O 0.36199 0.15195 0.93355 0.0
O83 O 0.29378 0.06892 0.9263 0.0
Co84 Co 0.71131 0.78465 0.43642 0.0
O85 O 0.74964 0.86575 0.43859 0.0
O86 O 0.68724 0.80906 0.46488 0.0
C87 C 0.69435 0.7724 0.39567 0.0
O88 O 0.66155 0.69993 0.44077 0.0
Co89 Co 0.75989 0.72198 0.40751 0.0
O90 O 0.69558 0.65339 0.42034 0.0
C91 C 0.81962 0.79758 0.44707 0.0
C92 C 0.72407 0.85967 0.4593 0.0
C93 C 0.65883 0.65419 0.4339 0.0
O94 O 0.77289 0.78736 0.4561 0.0
O95 O 0.82383 0.78178 0.42566 0.0
O96 O 0.66182 0.78201 0.4095 0.0
O97 O 0.73732 0.77722 0.4063 0.0
Co98 Co 0.93715 0.72806 0.77133 0.0
O99 O 0.89635 0.76839 0.77305 0.0
O100 O 0.87271 0.69109 0.79278 0.0
C101 C 0.95841 0.73896 0.73051 0.0
O102 O 0.96721 0.67368 0.77447 0.0
Co103 Co 0.06181 0.78452 0.75552 0.0
O104 O 0.05521 0.71146 0.76102 0.0
C105 C 0.02176 0.82351 0.79615 0.0
C106 C 0.86482 0.73282 0.78952 0.0
C107 C 1.01137 0.6708 0.7698 0.0
O108 O 0.98199 0.77389 0.79951 0.0
O109 O 0.05422 0.83709 0.77771 0.0
O110 O 0.90963 0.69929 0.73746 0.0
O111 O 0.98822 0.77045 0.74773 0.0
Co112 Co 0.22148 0.91715 0.10755 0.0
O113 O 0.14089 0.88066 0.10497 0.0
O114 O 0.18473 0.85263 0.1293 0.0
C115 C 0.24363 0.93625 0.06722 0.0
O116 O 0.30437 0.94315 0.11456 0.0
Co117 Co 0.29577 0.04139 0.09259 0.0
O118 O 0.35856 0.03054 0.10093 0.0
C119 C 0.20899 1.00424 0.1294 0.0
C120 C 0.13766 0.84737 0.12233 0.0
C121 C 0.35271 0.9863 0.11047 0.0
O122 O 0.21696 0.96379 0.13411 0.0
O123 O 0.2322 0.03669 0.11129 0.0
O124 O 0.22805 0.88665 0.07551 0.0
O125 O 0.23912 0.96822 0.08258 0.0
Co126 Co 0.33472 0.21367 0.43399 0.0
O127 O 0.28435 0.13377 0.43433 0.0
O128 O 0.36455 0.17523 0.45336 0.0
C129 C 0.32756 0.23135 0.39379 0.0
O130 O 0.39743 0.29554 0.438 0.0
Co131 Co 0.28803 0.29265 0.42189 0.0
O132 O 0.36444 0.3524 0.42828 0.0
C133 C 0.24572 0.21093 0.46115 0.0
C134 C 0.31796 0.12962 0.44949 0.0
C135 C 0.4036 0.34454 0.4352 0.0
O136 O 0.29416 0.21699 0.46334 0.0
O137 O 0.2332 0.23332 0.44378 0.0
O138 O 0.36091 0.21327 0.40008 0.0
O139 O 0.29707 0.23176 0.41114 0.0
Co140 Co 0.11162 0.33399 0.7739 0.0
O141 O 0.13522 0.27925 0.77565 0.0
O142 O 0.17335 0.35567 0.79727 0.0
C143 C 0.09961 0.33293 0.73264 0.0
O144 O 0.09628 0.39968 0.77668 0.0
Co145 Co 0.99113 0.29529 0.75417 0.0
O146 O 1.01088 0.37212 0.76134 0.0
C147 C 1.01443 0.2451 0.79592 0.0
C148 C 0.16955 0.30798 0.79293 0.0
C149 C 0.05601 0.40864 0.77114 0.0
O150 O 0.05775 0.29183 0.80034 0.0
O151 O 0.98511 0.23641 0.7767 0.0
O152 O 0.14931 0.36257 0.74179 0.0
O153 O 0.06257 0.30249 0.74812 0.0
Co154 Co 0.79188 0.10262 0.10617 0.0
O155 O 0.87263 0.13932 0.10422 0.0
O156 O 0.82765 0.16587 0.12863 0.0
C157 C 0.77172 0.08567 0.06553 0.0
O158 O 0.70881 0.07625 0.11283 0.0
Co159 Co 0.71772 0.97932 0.08974 0.0
O160 O 0.65469 0.9895 0.09851 0.0
C161 C 0.80313 0.0142 0.12718 0.0
C162 C 0.87504 0.17156 0.12191 0.0
C163 C 0.66049 0.03329 0.10854 0.0
O164 O 0.79526 0.05454 0.13227 0.0
O165 O 0.78043 0.98274 0.10873 0.0
O166 O 0.78665 0.13473 0.07433 0.0
O167 O 0.77532 0.05286 0.0807 0.0
H168 H 0.8901 0.18808 0.17161 0.0
H169 H 0.9802 0.2306 0.1036 0.0
H170 H 0.06802 0.2793 0.12596 0.0
H171 H 0.12039 0.30508 0.16516 0.0
H172 H 0.03042 0.25282 0.23312 0.0
H173 H 0.9425 0.21347 0.21083 0.0
C174 C 0.92893 0.20898 0.16167 0.0
C175 C 0.9281 0.20649 0.13578 0.0
C176 C 0.9798 0.23509 0.17481 0.0
C177 C 0.9792 0.2323 0.12339 0.0
C178 C 0.02964 0.26007 0.13624 0.0
C179 C 0.08156 0.28607 0.17513 0.0
C180 C 0.08245 0.28314 0.20098 0.0
C181 C 0.03068 0.26123 0.16199 0.0
C182 C 0.03136 0.25648 0.21337 0.0
C183 C 0.98087 0.23369 0.20055 0.0
H184 H 0.81412 0.02292 0.55104 0.0
H185 H 0.85713 0.14492 0.49427 0.0
H186 H 0.81632 0.07208 0.46346 0.0
H187 H 0.77192 0.97275 0.45182 0.0
H188 H 0.72086 0.85033 0.50889 0.0
H189 H 0.7604 0.92314 0.53984 0.0
C190 C 0.81385 0.03355 0.53198 0.0
C191 C 0.83893 0.08989 0.52523 0.0
C192 C 0.78882 0.9909 0.51412 0.0
C193 C 0.8379 0.10231 0.50028 0.0
C194 C 0.81475 0.06045 0.48248 0.0
C195 C 0.76879 0.96199 0.47105 0.0
C196 C 0.74313 0.90564 0.47782 0.0
C197 C 0.79057 1.00447 0.48906 0.0
C198 C 0.73966 0.89297 0.50295 0.0
C199 C 0.76269 0.93481 0.52078 0.0
H200 H 0.76713 0.79577 0.88193 0.0
H201 H 0.71173 0.86461 0.82555 0.0
H202 H 0.75105 0.83213 0.79414 0.0
H203 H 0.80611 0.78783 0.78229 0.0
H204 H 0.85224 0.70981 0.83821 0.0
H205 H 0.81188 0.74127 0.86961 0.0
C206 C 0.76292 0.80292 0.86276 0.0
C207 C 0.73611 0.83274 0.85632 0.0
C208 C 0.78439 0.78239 0.84445 0.0
C209 C 0.73134 0.84137 0.83123 0.0
C210 C 0.75428 0.82304 0.81314 0.0
C211 C 0.8065 0.77691 0.80129 0.0
C212 C 0.83231 0.74609 0.80765 0.0
C213 C 0.7815 0.79393 0.81945 0.0
C214 C 0.83224 0.73269 0.83253 0.0
C215 C 0.80941 0.75112 0.85065 0.0
H216 H 0.89027 0.71323 0.16327 0.0
H217 H 0.9772 0.75883 0.23205 0.0
H218 H 0.06604 0.79853 0.21046 0.0
H219 H 0.12022 0.82659 0.17173 0.0
H220 H 0.03336 0.79075 0.10303 0.0
H221 H 0.94445 0.74123 0.12453 0.0
C222 C 0.92862 0.73078 0.17355 0.0
C223 C 0.92661 0.73176 0.19942 0.0
C224 C 0.98009 0.7559 0.16085 0.0
C225 C 0.97712 0.75663 0.21226 0.0
C226 C 0.02814 0.77965 0.19985 0.0
C227 C 0.08186 0.80693 0.16143 0.0
C228 C 0.08391 0.81161 0.1356 0.0
C229 C 0.03038 0.78032 0.17411 0.0
C230 C 0.0334 0.78737 0.12277 0.0
C231 C 0.98234 0.75913 0.13514 0.0
H232 H 0.21525 0.06189 0.46811 0.0
H233 H 0.37938 0.08398 0.46699 0.0
H234 H 0.34859 1.00302 0.49386 0.0
H235 H 0.27368 0.92513 0.51859 0.0
H236 H 0.11323 0.91251 0.52233 0.0
H237 H 0.14358 0.98941 0.494 0.0
C238 C 0.24424 0.04865 0.47347 0.0
C239 C 0.29941 0.07857 0.46494 0.0
C240 C 0.22675 1.00345 0.4898 0.0
C241 C 0.33658 0.06156 0.4729 0.0
C242 C 0.31889 0.01519 0.48839 0.0
C243 C 0.24553 0.9394 0.51327 0.0
C244 C 0.19096 0.9125 0.52292 0.0
C245 C 0.26395 0.98566 0.49714 0.0
C246 C 0.15548 0.93224 0.51568 0.0
C247 C 0.17273 0.97632 0.49923 0.0
H248 H 0.21146 0.15278 0.86476 0.0
H249 H 0.37525 0.29494 0.86837 0.0
H250 H 0.34623 0.34656 0.84152 0.0
H251 H 0.27326 0.35079 0.81594 0.0
H252 H 0.11365 0.20296 0.80912 0.0
H253 H 0.14165 0.15485 0.83783 0.0
C254 C 0.24069 0.19533 0.85992 0.0
C255 C 0.29526 0.22023 0.86916 0.0
C256 C 0.22431 0.2239 0.84352 0.0
C257 C 0.33288 0.27484 0.8619 0.0
C258 C 0.31622 0.30437 0.84642 0.0
C259 C 0.24474 0.30807 0.82073 0.0
C260 C 0.19109 0.28082 0.81017 0.0
C261 C 0.26195 0.27935 0.83693 0.0
C262 C 0.15516 0.22516 0.81662 0.0
C263 C 0.17109 0.19745 0.83322 0.0
H264 H 0.55377 0.62365 0.221 0.0
H265 H 0.64432 0.53579 0.21917 0.0
H266 H 0.55687 0.44772 0.21761 0.0
H267 H 0.45495 0.39557 0.22055 0.0
H268 H 0.3643 0.48332 0.22229 0.0
H269 H 0.45159 0.57148 0.21984 0.0
C270 C 0.5546 0.58531 0.21998 0.0
C271 C 0.60607 0.58669 0.22045 0.0
C272 C 0.50401 0.53472 0.21922 0.0
C273 C 0.6058 0.53635 0.21881 0.0
C274 C 0.55562 0.48586 0.21807 0.0
C275 C 0.45404 0.43391 0.22014 0.0
C276 C 0.40266 0.43248 0.22186 0.0
C277 C 0.50451 0.48451 0.21884 0.0
C278 C 0.40278 0.48281 0.22096 0.0
C279 C 0.45286 0.53335 0.21971 0.0
H280 H 0.98506 0.54612 0.54057 0.0
H281 H 0.15137 0.63781 0.5689 0.0
H282 H 0.15451 0.55157 0.572 0.0
H283 H 0.10596 0.44899 0.57044 0.0
H284 H 0.93852 0.35889 0.54272 0.0
H285 H 0.93992 0.44579 0.53573 0.0
C286 C 0.02245 0.54752 0.54713 0.0
C287 C 0.06788 0.59851 0.55466 0.0
C288 C 0.02336 0.49785 0.54929 0.0
C289 C 0.11605 0.59943 0.56282 0.0
C290 C 0.11751 0.54994 0.56483 0.0
C291 C 0.06981 0.4482 0.56268 0.0
C292 C 0.02184 0.39683 0.55738 0.0
C293 C 0.07079 0.49869 0.55875 0.0
C294 C 0.97585 0.39725 0.54712 0.0
C295 C 0.9766 0.4471 0.54312 0.0
H296 H 0.40793 0.96598 0.8903 0.0
H297 H 0.49856 0.1433 0.89898 0.0
H298 H 0.58607 0.14251 0.89747 0.0
H299 H 0.63617 0.09035 0.8974 0.0
H300 H 0.54482 0.91299 0.88841 0.0
H301 H 0.4583 0.91506 0.88619 0.0
C302 C 0.44682 1.00469 0.8916 0.0
C303 C 0.44642 0.05471 0.895 0.0
C304 C 0.49687 1.0038 0.89085 0.0
C305 C 0.49739 0.10432 0.8963 0.0
C306 C 0.54748 0.10376 0.89561 0.0
C307 C 0.59743 0.05207 0.89472 0.0
C308 C 0.59729 1.00136 0.89334 0.0
C309 C 0.54765 0.05359 0.89348 0.0
C310 C 0.54653 0.95252 0.88954 0.0
C311 C 0.4969 0.95369 0.88839 0.0
H312 H 0.64617 0.55059 0.42957 0.0
H313 H 0.55864 0.63443 0.45179 0.0
H314 H 0.47356 0.54541 0.45635 0.0
H315 H 0.42202 0.44478 0.45029 0.0
H316 H 0.50832 0.35988 0.42824 0.0
H317 H 0.59604 0.44827 0.4277 0.0
C318 C 0.60868 0.54954 0.43569 0.0
C319 C 0.60905 0.59971 0.44007 0.0
C320 C 0.55958 0.49793 0.43821 0.0
C321 C 0.55996 0.59697 0.44825 0.0
C322 C 0.51108 0.54592 0.45076 0.0
C323 C 0.46013 0.44538 0.44566 0.0
C324 C 0.45837 0.39559 0.43907 0.0
C325 C 0.51014 0.49631 0.44523 0.0
C326 C 0.50833 0.39728 0.43346 0.0
C327 C 0.55844 0.44798 0.43297 0.0
H328 H 0.10081 0.65464 0.77036 0.0
H329 H 0.92292 0.56733 0.77874 0.0
H330 H 0.9226 0.47997 0.78216 0.0
H331 H 0.97141 0.42763 0.77984 0.0
H332 H 0.14898 0.51321 0.7714 0.0
H333 H 0.1509 0.60217 0.77144 0.0
C334 C 0.06186 0.6166 0.77307 0.0
C335 C 1.01171 0.61793 0.774 0.0
C336 C 0.06198 0.5662 0.77506 0.0
C337 C 0.96203 0.56799 0.77786 0.0
C338 C 0.96183 0.51786 0.77978 0.0
C339 C 1.01081 0.46573 0.77824 0.0
C340 C 0.06007 0.46348 0.77538 0.0
C341 C 1.01137 0.5164 0.77798 0.0
C342 C 0.11056 0.51348 0.77371 0.0
C343 C 0.1115 0.56434 0.77351 0.0
H344 H 0.45729 0.07423 0.11612 0.0
H345 H 0.36654 0.89577 0.11514 0.0
H346 H 0.45394 0.89497 0.11642 0.0
H347 H 0.55597 0.94496 0.11393 0.0
H348 H 0.64668 0.12344 0.11495 0.0
H349 H 0.55936 0.12409 0.11776 0.0
C350 C 0.45639 0.03498 0.11647 0.0
C351 C 0.40492 0.98498 0.11529 0.0
C352 C 0.50692 0.0349 0.11704 0.0
C353 C 0.40508 0.93479 0.11607 0.0
C354 C 0.45522 0.93438 0.11664 0.0
C355 C 0.55689 0.98417 0.11502 0.0
C356 C 0.6083 0.03424 0.11395 0.0
C357 C 0.50638 0.98418 0.11652 0.0
C358 C 0.60817 0.08436 0.11574 0.0
C359 C 0.55808 0.0847 0.1172 0.0
H360 H 0.16771 0.07088 0.11991 0.0
H361 H 0.17886 0.96961 0.17678 0.0
H362 H 0.15828 0.02017 0.20757 0.0
H363 H 0.16838 0.10933 0.21816 0.0
H364 H 0.17749 0.22083 0.16124 0.0
H365 H 0.15703 0.14959 0.13053 0.0
C366 C 0.16455 0.05916 0.13903 0.0
C367 C 0.17807 0.01918 0.14642 0.0
C368 C 0.15721 0.09102 0.15655 0.0
C369 C 0.17066 1.00185 0.17089 0.0
C370 C 0.15919 0.0309 0.18845 0.0
C371 C 0.16483 0.11769 0.19905 0.0
C372 C 0.17773 0.17099 0.19161 0.0
C373 C 0.15749 0.07843 0.18155 0.0
C374 C 0.16981 0.18058 0.16716 0.0
C375 C 0.15837 0.13999 0.14965 0.0
H376 H 0.10738 0.16754 0.5531 0.0
H377 H 0.99291 0.16099 0.49812 0.0
H378 H 0.04524 0.14498 0.46659 0.0
H379 H 0.13637 0.16266 0.45423 0.0
H380 H 0.25895 0.18827 0.5087 0.0
H381 H 0.19011 0.16521 0.54103 0.0
C382 C 0.0932 0.1616 0.53427 0.0
C383 C 0.04854 0.1688 0.52757 0.0
C384 C 0.12557 0.15662 0.5162 0.0
C385 C 0.02866 0.1579 0.50346 0.0
C386 C 0.0586 0.14887 0.48547 0.0
C387 C 0.14769 0.16216 0.47319 0.0
C388 C 0.20295 0.18015 0.47944 0.0
C389 C 0.10943 0.15307 0.49148 0.0
C390 C 0.21685 0.17637 0.50371 0.0
C391 C 0.17764 0.1635 0.52212 0.0
H392 H 0.94276 0.13807 0.78687 0.0
H393 H 0.04784 0.24909 0.84342 0.0
H394 H 1.00068 0.17619 0.87395 0.0
H395 H 0.91557 0.09247 0.88507 0.0
H396 H 0.80202 0.98883 0.82886 0.0
H397 H 0.86793 0.04631 0.7974 0.0
C398 C 0.95576 0.14623 0.80586 0.0
C399 C 0.99629 0.19948 0.8133 0.0
C400 C 0.92679 0.10549 0.82324 0.0
C401 C 1.0151 0.20881 0.83756 0.0
C402 C 0.98826 0.16723 0.85494 0.0
C403 C 0.90557 0.08185 0.86593 0.0
C404 C 0.85294 0.03874 0.85909 0.0
C405 C 0.94161 0.11707 0.84814 0.0
C406 C 0.84159 0.02329 0.83443 0.0
C407 C 0.87908 0.05625 0.81649 0.0
H408 H 0.84255 0.946 0.11747 0.0
H409 H 0.83461 0.04898 0.17442 0.0
H410 H 0.8555 0.99842 0.20506 0.0
H411 H 0.84469 0.90899 0.21572 0.0
H412 H 0.83281 0.79622 0.15886 0.0
H413 H 0.85301 0.86715 0.12802 0.0
C414 C 0.84643 0.95807 0.13657 0.0
C415 C 0.83369 0.99854 0.14405 0.0
C416 C 0.85413 0.92636 0.15404 0.0
C417 C 0.84209 0.0163 0.16847 0.0
C418 C 0.85381 0.9873 0.18595 0.0
C419 C 0.84763 0.90032 0.19659 0.0
C420 C 0.83394 0.84677 0.18922 0.0
C421 C 0.85481 0.93942 0.17904 0.0
C422 C 0.8411 0.8367 0.16473 0.0
C423 C 0.85236 0.87711 0.14715 0.0
H424 H 0.91838 0.80683 0.43606 0.0
H425 H 0.83177 0.84005 0.49321 0.0
H426 H 0.90115 0.84902 0.52284 0.0
H427 H 0.96769 0.82057 0.53377 0.0
H428 H 0.0441 0.77249 0.47774 0.0
H429 H 0.99837 0.79752 0.44606 0.0
C430 C 0.9152 0.81721 0.45489 0.0
C431 C 0.86859 0.81979 0.46285 0.0
C432 C 0.95295 0.81874 0.47197 0.0
C433 C 0.86626 0.83567 0.48697 0.0
C434 C 0.9058 0.84075 0.50387 0.0
C435 C 0.97507 0.81668 0.51455 0.0
C436 C 1.00652 0.79241 0.50777 0.0
C437 C 0.94638 0.82792 0.49685 0.0
C438 C 0.01854 0.7898 0.48311 0.0
C439 C 0.99224 0.80379 0.46512 0.0
H440 H 0.12382 0.95757 0.8881 0.0
H441 H 0.23358 0.06994 0.83299 0.0
H442 H 0.16241 0.02176 0.80187 0.0
H443 H 0.08494 0.93301 0.78951 0.0
H444 H 0.98705 0.81055 0.84395 0.0
H445 H 0.03616 0.8779 0.87636 0.0
C446 C 0.13198 0.97212 0.86931 0.0
C447 C 0.18484 0.01477 0.86237 0.0
C448 C 0.09299 0.94174 0.85147 0.0
C449 C 0.19384 0.03557 0.83844 0.0
C450 C 0.15325 1.00798 0.82071 0.0
C451 C 0.07366 0.92134 0.80849 0.0
C452 C 0.03517 0.86629 0.81463 0.0
C453 C 0.10505 0.95839 0.82679 0.0
C454 C 0.01821 0.85229 0.83899 0.0
C455 C 0.04647 0.89066 0.85744 0.0
H456 H 0.2731 0.28586 0.38174 0.0
H457 H 0.37527 0.22586 0.35048 0.0
H458 H 0.36241 0.25492 0.30978 0.0
H459 H 0.31593 0.2899 0.28321 0.0
H460 H 0.21272 0.34862 0.31424 0.0
H461 H 0.234 0.32925 0.35547 0.0
C462 C 0.2933 0.2796 0.36616 0.0
C463 C 0.32487 0.25308 0.36923 0.0
C464 C 0.28568 0.29646 0.34293 0.0
C465 C 0.35069 0.2458 0.34869 0.0
C466 C 0.34325 0.26242 0.32544 0.0
C467 C 0.29834 0.29903 0.29891 0.0
C468 C 0.26204 0.32006 0.29556 0.0
C469 C 0.30991 0.2867 0.32234 0.0
C470 C 0.24084 0.33274 0.31626 0.0
C471 C 0.25259 0.32104 0.33979 0.0
H472 H 0.05474 0.273 0.62195 0.0
H473 H 0.89089 0.23911 0.64179 0.0
H474 H 0.92496 0.27502 0.68314 0.0
H475 H 1.00014 0.3095 0.71392 0.0
H476 H 0.16391 0.34588 0.69258 0.0
H477 H 0.13129 0.31785 0.65053 0.0
C478 C 0.0262 0.27434 0.63488 0.0
C479 C 0.96993 0.25308 0.62854 0.0
C480 C 0.04638 0.296 0.65818 0.0
C481 C 0.93415 0.25492 0.64608 0.0
C482 C 0.95375 0.27553 0.66969 0.0
C483 C 0.02898 0.31213 0.7 0.0
C484 C 0.08444 0.32924 0.70643 0.0
C485 C 1.00963 0.29533 0.67599 0.0
C486 C 0.12137 0.33324 0.68811 0.0
C487 C 0.10245 0.31657 0.66417 0.0
H488 H 0.71687 0.97915 0.04997 0.0
H489 H 0.77929 0.14619 0.02433 0.0
H490 H 0.75542 0.11146 0.98222 0.0
H491 H 0.72597 0.03522 0.95303 0.0
H492 H 0.66592 0.86866 0.97846 0.0
H493 H 0.67818 0.90163 0.02096 0.0
C494 C 0.72472 1.00823 0.03533 0.0
C495 C 0.75057 0.0656 0.04039 0.0
C496 C 0.71125 0.98791 0.0113 0.0
C497 C 0.75968 0.10212 0.02103 0.0
C498 C 0.74619 0.08217 0.99697 0.0
C499 C 0.71512 1.00579 0.96772 0.0
C500 C 0.69594 0.94947 0.96245 0.0
C501 C 0.72338 0.02537 0.9919 0.0
C502 C 0.68062 0.912 0.98194 0.0
C503 C 0.6882 0.93107 0.0062 0.0
H504 H 0.72811 0.76265 0.28419 0.0
H505 H 0.75229 0.62832 0.30716 0.0
H506 H 0.71884 0.63269 0.34824 0.0
H507 H 0.69374 0.68208 0.37813 0.0
H508 H 0.67555 0.81979 0.35566 0.0
H509 H 0.69285 0.80479 0.31305 0.0
C510 C 0.7254 0.73351 0.29795 0.0
C511 C 0.7434 0.6954 0.29257 0.0
C512 C 0.70653 0.73661 0.32139 0.0
C513 C 0.73928 0.65822 0.3108 0.0
C514 C 0.72004 0.66073 0.33424 0.0
C515 C 0.69225 0.70803 0.3639 0.0
C516 C 0.6835 0.75214 0.37011 0.0
C517 C 0.70497 0.7007 0.33983 0.0
C518 C 0.68119 0.78508 0.35135 0.0
C519 C 0.69216 0.77705 0.32708 0.0
H520 H 0.11544 0.82148 0.63794 0.0
H521 H 0.99431 0.66251 0.6097 0.0
H522 H 0.94251 0.64011 0.64816 0.0
H523 H 0.92922 0.66804 0.69 0.0
H524 H 0.04853 0.83161 0.71552 0.0
H525 H 0.10203 0.84945 0.67854 0.0
C526 C 0.07856 0.78142 0.64051 0.0
C527 C 0.05952 0.74333 0.62125 0.0
C528 C 0.04752 0.76982 0.66228 0.0
C529 C 1.01039 0.69228 0.62447 0.0
C530 C 0.98035 0.67961 0.64641 0.0
C531 C 0.9665 0.70764 0.68729 0.0
C532 C 0.98446 0.74802 0.70581 0.0
C533 C 0.99782 0.71853 0.66541 0.0
C534 C 0.03335 0.79919 0.70185 0.0
C535 C 0.06453 0.80973 0.68061 0.0
H536 H 0.3063 0.04372 0.05383 0.0
H537 H 0.23248 0.87817 0.02476 0.0
H538 H 0.2585 0.91655 0.98326 0.0
H539 H 0.29284 0.99629 0.95566 0.0
H540 H 0.36512 0.16165 0.98475 0.0
H541 H 0.34975 0.12387 0.02645 0.0
C542 C 0.29629 0.01569 0.03857 0.0
C543 C 0.26663 0.95781 0.04247 0.0
C544 C 0.31092 0.03812 0.01493 0.0
C545 C 0.25506 0.92262 0.02234 0.0
C546 C 0.2697 0.94467 0.99863 0.0
C547 C 0.30584 0.02443 0.97099 0.0
C548 C 0.3294 0.08194 0.967 0.0
C549 C 0.29619 1.00225 0.99474 0.0
C550 C 0.34694 0.11746 0.98725 0.0
C551 C 0.33775 0.09572 0.01106 0.0
loop_
_geom_bond_atom_site_label_1
_geom_bond_atom_site_label_2
_geom_bond_distance
_geom_bond_site_symmetry_2
_ccdc_geom_bond_type
Co0 O1 2.216 . S
Co0 O2 2.091 . S
Co0 O4 2.004 . S
Co0 O10 2.021 . S
Co0 O12 2.137 . S
Co0 O13 2.244 . S
O1 Co0 2.216 . S
O1 C8 1.247 . S
O2 Co0 2.091 . S
O2 C8 1.261 . S
C3 O12 1.247 . S
C3 O13 1.272 . S
O4 Co0 2.004 . S
O4 C9 1.259 . S
Co5 O6 2.061 . S
Co5 O11 2.052 . S
Co5 O13 2.135 . S
O6 Co5 2.061 . S
O6 C9 1.235 . S
C7 O10 1.238 . S
C7 O11 1.241 . S
C8 O1 1.247 . S
C8 O2 1.261 . S
C9 O4 1.259 . S
C9 O6 1.235 . S
O10 Co0 2.021 . S
O10 C7 1.238 . S
O11 Co5 2.052 . S
O11 C7 1.241 . S
O12 Co0 2.137 . S
O12 C3 1.247 . S
O13 Co0 2.244 . S
O13 C3 1.272 . S
O13 Co5 2.135 . S
Co14 O15 2.216 . S
Co14 O16 2.091 . S
Co14 O18 2.004 . S
Co14 O24 2.021 . S
Co14 O26 2.137 . S
Co14 O27 2.244 . S
O15 Co14 2.216 . S
O15 C22 1.247 . S
O16 Co14 2.091 . S
O16 C22 1.261 . S
C17 O26 1.247 . S
C17 O27 1.272 . S
O18 Co14 2.004 . S
O18 C23 1.259 . S
Co19 O20 2.061 . S
Co19 O25 2.052 . S
Co19 O27 2.135 1_455 S
O20 Co19 2.061 . S
O20 C23 1.235 1_455 S
C21 O24 1.238 1_455 S
C21 O25 1.241 . S
C22 O15 1.247 . S
C22 O16 1.261 . S
C23 O18 1.259 . S
C23 O20 1.235 1_655 S
O24 Co14 2.021 . S
O24 C21 1.238 1_655 S
O25 Co19 2.052 . S
O25 C21 1.241 . S
O26 Co14 2.137 . S
O26 C17 1.247 . S
O27 Co14 2.244 . S
O27 C17 1.272 . S
O27 Co19 2.135 1_655 S
Co28 O29 2.216 . S
Co28 O30 2.091 . S
Co28 O32 2.004 . S
Co28 O38 2.021 . S
Co28 O40 2.137 . S
Co28 O41 2.244 . S
O29 Co28 2.216 . S
O29 C36 1.247 . S
O30 Co28 2.091 . S
O30 C36 1.261 . S
C31 O40 1.247 . S
C31 O41 1.272 . S
O32 Co28 2.004 . S
O32 C37 1.259 . S
Co33 O34 2.061 . S
Co33 O39 2.052 . S
Co33 O41 2.135 1_545 S
O34 Co33 2.061 . S
O34 C37 1.235 1_545 S
C35 O38 1.238 1_545 S
C35 O39 1.241 . S
C36 O29 1.247 . S
C36 O30 1.261 . S
C37 O32 1.259 . S
C37 O34 1.235 1_565 S
O38 Co28 2.021 . S
O38 C35 1.238 1_565 S
O39 Co33 2.052 . S
O39 C35 1.241 . S
O40 Co28 2.137 . S
O40 C31 1.247 . S
O41 Co28 2.244 . S
O41 C31 1.272 . S
O41 Co33 2.135 1_565 S
Co42 O43 2.216 . S
Co42 O44 2.091 . S
Co42 O46 2.004 . S
Co42 O52 2.021 . S
Co42 O54 2.137 . S
Co42 O55 2.244 . S
O43 Co42 2.216 . S
O43 C50 1.247 . S
O44 Co42 2.091 . S
O44 C50 1.261 . S
C45 O54 1.247 . S
C45 O55 1.272 . S
O46 Co42 2.004 . S
O46 C51 1.259 . S
Co47 O48 2.061 . S
Co47 O53 2.052 . S
Co47 O55 2.135 . S
O48 Co47 2.061 . S
O48 C51 1.235 . S
C49 O52 1.238 . S
C49 O53 1.241 . S
C50 O43 1.247 . S
C50 O44 1.261 . S
C51 O46 1.259 . S
C51 O48 1.235 . S
O52 Co42 2.021 . S
O52 C49 1.238 . S
O53 Co47 2.052 . S
O53 C49 1.241 . S
O54 Co42 2.137 . S
O54 C45 1.247 . S
O55 Co42 2.244 . S
O55 C45 1.272 . S
O55 Co47 2.135 . S
Co56 O57 2.216 . S
Co56 O58 2.091 . S
Co56 O60 2.004 . S
Co56 O66 2.021 . S
Co56 O68 2.137 . S
Co56 O69 2.244 . S
O57 Co56 2.216 . S
O57 C64 1.247 . S
O58 Co56 2.091 . S
O58 C64 1.261 . S
C59 O68 1.247 . S
C59 O69 1.272 . S
O60 Co56 2.004 . S
O60 C65 1.259 . S
Co61 O62 2.061 . S
Co61 O67 2.052 . S
Co61 O69 2.135 1_655 S
O62 Co61 2.061 . S
O62 C65 1.235 1_655 S
C63 O66 1.238 1_655 S
C63 O67 1.241 . S
C64 O57 1.247 . S
C64 O58 1.261 . S
C65 O60 1.259 . S
C65 O62 1.235 1_455 S
O66 Co56 2.021 . S
O66 C63 1.238 1_455 S
O67 Co61 2.052 . S
O67 C63 1.241 . S
O68 Co56 2.137 . S
O68 C59 1.247 . S
O69 Co56 2.244 . S
O69 C59 1.272 . S
O69 Co61 2.135 1_455 S
Co70 O71 2.216 . S
Co70 O72 2.091 . S
Co70 O74 2.004 . S
Co70 O80 2.021 . S
Co70 O82 2.137 . S
Co70 O83 2.244 . S
O71 Co70 2.216 . S
O71 C78 1.247 . S
O72 Co70 2.091 . S
O72 C78 1.261 . S
C73 O82 1.247 . S
C73 O83 1.272 . S
O74 Co70 2.004 . S
O74 C79 1.259 . S
Co75 O76 2.061 . S
Co75 O81 2.052 . S
Co75 O83 2.135 1_565 S
O76 Co75 2.061 . S
O76 C79 1.235 1_565 S
C77 O80 1.238 1_565 S
C77 O81 1.241 . S
C78 O71 1.247 . S
C78 O72 1.261 . S
C79 O74 1.259 . S
C79 O76 1.235 1_545 S
O80 Co70 2.021 . S
O80 C77 1.238 1_545 S
O81 Co75 2.052 . S
O81 C77 1.241 . S
O82 Co70 2.137 . S
O82 C73 1.247 . S
O83 Co70 2.244 . S
O83 C73 1.272 . S
O83 Co75 2.135 1_545 S
Co84 O85 2.216 . S
Co84 O86 2.091 . S
Co84 O88 2.004 . S
Co84 O94 2.021 . S
Co84 O96 2.137 . S
Co84 O97 2.244 . S
O85 Co84 2.216 . S
O85 C92 1.247 . S
O86 Co84 2.091 . S
O86 C92 1.261 . S
C87 O96 1.247 . S
C87 O97 1.272 . S
O88 Co84 2.004 . S
O88 C93 1.259 . S
Co89 O90 2.061 . S
Co89 O95 2.052 . S
Co89 O97 2.135 . S
O90 Co89 2.061 . S
O90 C93 1.235 . S
C91 O94 1.238 . S
C91 O95 1.241 . S
C92 O85 1.247 . S
C92 O86 1.261 . S
C93 O88 1.259 . S
C93 O90 1.235 . S
O94 Co84 2.021 . S
O94 C91 1.238 . S
O95 Co89 2.052 . S
O95 C91 1.241 . S
O96 Co84 2.137 . S
O96 C87 1.247 . S
O97 Co84 2.244 . S
O97 C87 1.272 . S
O97 Co89 2.135 . S
Co98 O99 2.216 . S
Co98 O100 2.091 . S
Co98 O102 2.004 . S
Co98 O108 2.021 . S
Co98 O110 2.137 . S
Co98 O111 2.244 . S
O99 Co98 2.216 . S
O99 C106 1.247 . S
O100 Co98 2.091 . S
O100 C106 1.261 . S
C101 O110 1.247 . S
C101 O111 1.272 . S
O102 Co98 2.004 . S
O102 C107 1.259 . S
Co103 O104 2.061 . S
Co103 O109 2.052 . S
Co103 O111 2.135 1_455 S
O104 Co103 2.061 . S
O104 C107 1.235 1_455 S
C105 O108 1.238 1_455 S
C105 O109 1.241 . S
C106 O99 1.247 . S
C106 O100 1.261 . S
C107 O102 1.259 . S
C107 O104 1.235 1_655 S
O108 Co98 2.021 . S
O108 C105 1.238 1_655 S
O109 Co103 2.052 . S
O109 C105 1.241 . S
O110 Co98 2.137 . S
O110 C101 1.247 . S
O111 Co98 2.244 . S
O111 C101 1.272 . S
O111 Co103 2.135 1_655 S
Co112 O113 2.216 . S
Co112 O114 2.091 . S
Co112 O116 2.004 . S
Co112 O122 2.021 . S
Co112 O124 2.137 . S
Co112 O125 2.244 . S
O113 Co112 2.216 . S
O113 C120 1.247 . S
O114 Co112 2.091 . S
O114 C120 1.261 . S
C115 O124 1.247 . S
C115 O125 1.272 . S
O116 Co112 2.004 . S
O116 C121 1.259 . S
Co117 O118 2.061 . S
Co117 O123 2.052 . S
Co117 O125 2.135 1_545 S
O118 Co117 2.061 . S
O118 C121 1.235 1_545 S
C119 O122 1.238 1_545 S
C119 O123 1.241 . S
C120 O113 1.247 . S
C120 O114 1.261 . S
C121 O116 1.259 . S
C121 O118 1.235 1_565 S
O122 Co112 2.021 . S
O122 C119 1.238 1_565 S
O123 Co117 2.052 . S
O123 C119 1.241 . S
O124 Co112 2.137 . S
O124 C115 1.247 . S
O125 Co112 2.244 . S
O125 C115 1.272 . S
O125 Co117 2.135 1_565 S
Co126 O127 2.216 . S
Co126 O128 2.091 . S
Co126 O130 2.004 . S
Co126 O136 2.021 . S
Co126 O138 2.137 . S
Co126 O139 2.244 . S
O127 Co126 2.216 . S
O127 C134 1.247 . S
O128 Co126 2.091 . S
O128 C134 1.261 . S
C129 O138 1.247 . S
C129 O139 1.272 . S
O130 Co126 2.004 . S
O130 C135 1.259 . S
Co131 O132 2.061 . S
Co131 O137 2.052 . S
Co131 O139 2.135 . S
O132 Co131 2.061 . S
O132 C135 1.235 . S
C133 O136 1.238 . S
C133 O137 1.241 . S
C134 O127 1.247 . S
C134 O128 1.261 . S
C135 O130 1.259 . S
C135 O132 1.235 . S
O136 Co126 2.021 . S
O136 C133 1.238 . S
O137 Co131 2.052 . S
O137 C133 1.241 . S
O138 Co126 2.137 . S
O138 C129 1.247 . S
O139 Co126 2.244 . S
O139 C129 1.272 . S
O139 Co131 2.135 . S
Co140 O141 2.216 . S
Co140 O142 2.091 . S
Co140 O144 2.004 . S
Co140 O150 2.021 . S
Co140 O152 2.137 . S
Co140 O153 2.244 . S
O141 Co140 2.216 . S
O141 C148 1.247 . S
O142 Co140 2.091 . S
O142 C148 1.261 . S
C143 O152 1.247 . S
C143 O153 1.272 . S
O144 Co140 2.004 . S
O144 C149 1.259 . S
Co145 O146 2.061 . S
Co145 O151 2.052 . S
Co145 O153 2.135 1_655 S
O146 Co145 2.061 . S
O146 C149 1.235 1_655 S
C147 O150 1.238 1_655 S
C147 O151 1.241 . S
C148 O141 1.247 . S
C148 O142 1.261 . S
C149 O144 1.259 . S
C149 O146 1.235 1_455 S
O150 Co140 2.021 . S
O150 C147 1.238 1_455 S
O151 Co145 2.052 . S
O151 C147 1.241 . S
O152 Co140 2.137 . S
O152 C143 1.247 . S
O153 Co140 2.244 . S
O153 C143 1.272 . S
O153 Co145 2.135 1_455 S
Co154 O155 2.216 . S
Co154 O156 2.091 . S
Co154 O158 2.004 . S
Co154 O164 2.021 . S
Co154 O166 2.137 . S
Co154 O167 2.244 . S
O155 Co154 2.216 . S
O155 C162 1.247 . S
O156 Co154 2.091 . S
O156 C162 1.261 . S
C157 O166 1.247 . S
C157 O167 1.272 . S
O158 Co154 2.004 . S
O158 C163 1.259 . S
Co159 O160 2.061 . S
Co159 O165 2.052 . S
Co159 O167 2.135 1_565 S
O160 Co159 2.061 . S
O160 C163 1.235 1_565 S
C161 O164 1.238 1_565 S
C161 O165 1.241 . S
C162 O155 1.247 . S
C162 O156 1.261 . S
C163 O158 1.259 . S
C163 O160 1.235 1_545 S
O164 Co154 2.021 . S
O164 C161 1.238 1_545 S
O165 Co159 2.052 . S
O165 C161 1.241 . S
O166 Co154 2.137 . S
O166 C157 1.247 . S
O167 Co154 2.244 . S
O167 C157 1.272 . S
O167 Co159 2.135 1_545 S
H168 C174 0.930 . S
H169 C177 0.930 . S
H170 C178 0.930 . S
H171 C179 0.930 . S
H172 C182 0.930 . S
H173 C183 0.930 . S
C174 H168 0.930 . S
C174 C175 1.355 . S
C174 C176 1.415 . S
C175 C174 1.355 . S
C175 C177 1.419 . S
C176 C174 1.415 . S
C176 C181 1.425 1_655 S
C176 C183 1.409 . S
C177 H169 0.930 . S
C177 C175 1.419 . S
C177 C178 1.362 1_655 S
C178 H170 0.930 . S
C178 C177 1.362 1_455 S
C178 C181 1.409 . S
C179 H171 0.930 . S
C179 C180 1.355 . S
C179 C181 1.415 . S
C180 C179 1.355 . S
C180 C182 1.419 . S
C181 C176 1.425 1_455 S
C181 C178 1.409 . S
C181 C179 1.415 . S
C182 H172 0.930 . S
C182 C180 1.419 . S
C182 C183 1.362 1_455 S
C183 H173 0.930 . S
C183 C176 1.409 . S
C183 C182 1.362 1_655 S
H184 C190 0.930 . S
H185 C193 0.930 . S
H186 C194 0.930 . S
H187 C195 0.930 . S
H188 C198 0.930 . S
H189 C199 0.930 . S
C190 H184 0.930 . S
C190 C191 1.355 . S
C190 C192 1.415 1_545 S
C191 C190 1.355 . S
C191 C193 1.419 . S
C192 C190 1.415 1_565 S
C192 C197 1.425 1_565 S
C192 C199 1.409 . S
C193 H185 0.930 . S
C193 C191 1.419 . S
C193 C194 1.362 . S
C194 H186 0.930 . S
C194 C193 1.362 . S
C194 C197 1.409 . S
C195 H187 0.930 . S
C195 C196 1.355 . S
C195 C197 1.415 1_565 S
C196 C195 1.355 . S
C196 C198 1.419 . S
C197 C192 1.425 1_545 S
C197 C194 1.409 . S
C197 C195 1.415 1_545 S
C198 H188 0.930 . S
C198 C196 1.419 . S
C198 C199 1.362 . S
C199 H189 0.930 . S
C199 C192 1.409 . S
C199 C198 1.362 . S
H200 C206 0.930 . S
H201 C209 0.930 . S
H202 C210 0.930 . S
H203 C211 0.930 . S
H204 C214 0.930 . S
H205 C215 0.930 . S
C206 H200 0.930 . S
C206 C207 1.355 . S
C206 C208 1.415 . S
C207 C206 1.355 . S
C207 C209 1.419 . S
C208 C206 1.415 . S
C208 C213 1.425 . S
C208 C215 1.409 . S
C209 H201 0.930 . S
C209 C207 1.419 . S
C209 C210 1.362 . S
C210 H202 0.930 . S
C210 C209 1.362 . S
C210 C213 1.409 . S
C211 H203 0.930 . S
C211 C212 1.355 . S
C211 C213 1.415 . S
C212 C211 1.355 . S
C212 C214 1.419 . S
C213 C208 1.425 . S
C213 C210 1.409 . S
C213 C211 1.415 . S
C214 H204 0.930 . S
C214 C212 1.419 . S
C214 C215 1.362 . S
C215 H205 0.930 . S
C215 C208 1.409 . S
C215 C214 1.362 . S
H216 C222 0.930 . S
H217 C225 0.930 . S
H218 C226 0.930 . S
H219 C227 0.930 . S
H220 C230 0.930 . S
H221 C231 0.930 . S
C222 H216 0.930 . S
C222 C223 1.355 . S
C222 C224 1.415 . S
C223 C222 1.355 . S
C223 C225 1.419 . S
C224 C222 1.415 . S
C224 C229 1.425 1_655 S
C224 C231 1.409 . S
C225 H217 0.930 . S
C225 C223 1.419 . S
C225 C226 1.362 1_655 S
C226 H218 0.930 . S
C226 C225 1.362 1_455 S
C226 C229 1.409 . S
C227 H219 0.930 . S
C227 C228 1.355 . S
C227 C229 1.415 . S
C228 C227 1.355 . S
C228 C230 1.419 . S
C229 C224 1.425 1_455 S
C229 C226 1.409 . S
C229 C227 1.415 . S
C230 H220 0.930 . S
C230 C228 1.419 . S
C230 C231 1.362 1_455 S
C231 H221 0.930 . S
C231 C224 1.409 . S
C231 C230 1.362 1_655 S
H232 C238 0.930 . S
H233 C241 0.930 . S
H234 C242 0.930 1_565 S
H235 C243 0.930 . S
H236 C246 0.930 . S
H237 C247 0.930 1_545 S
C238 H232 0.930 . S
C238 C239 1.355 . S
C238 C240 1.415 . S
C239 C238 1.355 . S
C239 C241 1.419 . S
C240 C238 1.415 . S
C240 C245 1.425 1_545 S
C240 C247 1.409 1_545 S
C241 H233 0.930 . S
C241 C239 1.419 . S
C241 C242 1.362 . S
C242 H234 0.930 1_545 S
C242 C241 1.362 . S
C242 C245 1.409 1_545 S
C243 H235 0.930 . S
C243 C244 1.355 . S
C243 C245 1.415 . S
C244 C243 1.355 . S
C244 C246 1.419 . S
C245 C240 1.425 1_565 S
C245 C242 1.409 1_565 S
C245 C243 1.415 . S
C246 H236 0.930 . S
C246 C244 1.419 . S
C246 C247 1.362 . S
C247 H237 0.930 1_565 S
C247 C240 1.409 1_565 S
C247 C246 1.362 . S
H248 C254 0.930 . S
H249 C257 0.930 . S
H250 C258 0.930 . S
H251 C259 0.930 . S
H252 C262 0.930 . S
H253 C263 0.930 . S
C254 H248 0.930 . S
C254 C255 1.355 . S
C254 C256 1.415 . S
C255 C254 1.355 . S
C255 C257 1.419 . S
C256 C254 1.415 . S
C256 C261 1.425 . S
C256 C263 1.409 . S
C257 H249 0.930 . S
C257 C255 1.419 . S
C257 C258 1.362 . S
C258 H250 0.930 . S
C258 C257 1.362 . S
C258 C261 1.409 . S
C259 H251 0.930 . S
C259 C260 1.355 . S
C259 C261 1.415 . S
C260 C259 1.355 . S
C260 C262 1.419 . S
C261 C256 1.425 . S
C261 C258 1.409 . S
C261 C259 1.415 . S
C262 H252 0.930 . S
C262 C260 1.419 . S
C262 C263 1.362 . S
C263 H253 0.930 . S
C263 C256 1.409 . S
C263 C262 1.362 . S
H264 C270 0.930 . S
H265 C273 0.930 . S
H266 C274 0.930 . S
H267 C275 0.930 . S
H268 C278 0.930 . S
H269 C279 0.930 . S
C270 H264 0.930 . S
C270 C271 1.355 . S
C270 C272 1.415 . S
C271 C270 1.355 . S
C271 C273 1.419 . S
C272 C270 1.415 . S
C272 C277 1.425 . S
C272 C279 1.409 . S
C273 H265 0.930 . S
C273 C271 1.419 . S
C273 C274 1.362 . S
C274 H266 0.930 . S
C274 C273 1.362 . S
C274 C277 1.409 . S
C275 H267 0.930 . S
C275 C276 1.355 . S
C275 C277 1.415 . S
C276 C275 1.355 . S
C276 C278 1.419 . S
C277 C272 1.425 . S
C277 C274 1.409 . S
C277 C275 1.415 . S
C278 H268 0.930 . S
C278 C276 1.419 . S
C278 C279 1.362 . S
C279 H269 0.930 . S
C279 C272 1.409 . S
C279 C278 1.362 . S
H280 C286 0.930 . S
H281 C289 0.930 . S
H282 C290 0.930 . S
H283 C291 0.930 . S
H284 C294 0.930 . S
H285 C295 0.930 . S
C286 H280 0.930 . S
C286 C287 1.355 . S
C286 C288 1.415 . S
C287 C286 1.355 . S
C287 C289 1.419 1_455 S
C288 C286 1.415 . S
C288 C293 1.425 1_455 S
C288 C295 1.409 . S
C289 H281 0.930 . S
C289 C287 1.419 1_655 S
C289 C290 1.362 . S
C290 H282 0.930 . S
C290 C289 1.362 . S
C290 C293 1.409 . S
C291 H283 0.930 . S
C291 C292 1.355 . S
C291 C293 1.415 . S
C292 C291 1.355 . S
C292 C294 1.419 1_655 S
C293 C288 1.425 1_655 S
C293 C290 1.409 . S
C293 C291 1.415 . S
C294 H284 0.930 . S
C294 C292 1.419 1_455 S
C294 C295 1.362 . S
C295 H285 0.930 . S
C295 C288 1.409 . S
C295 C294 1.362 . S
H296 C302 0.930 . S
H297 C305 0.930 . S
H298 C306 0.930 . S
H299 C307 0.930 . S
H300 C310 0.930 . S
H301 C311 0.930 . S
C302 H296 0.930 . S
C302 C303 1.355 . S
C302 C304 1.415 . S
C303 C302 1.355 . S
C303 C305 1.419 1_545 S
C304 C302 1.415 . S
C304 C309 1.425 1_545 S
C304 C311 1.409 . S
C305 H297 0.930 . S
C305 C303 1.419 1_565 S
C305 C306 1.362 . S
C306 H298 0.930 . S
C306 C305 1.362 . S
C306 C309 1.409 . S
C307 H299 0.930 . S
C307 C308 1.355 . S
C307 C309 1.415 . S
C308 C307 1.355 . S
C308 C310 1.419 1_565 S
C309 C304 1.425 1_565 S
C309 C306 1.409 . S
C309 C307 1.415 . S
C310 H300 0.930 . S
C310 C308 1.419 1_545 S
C310 C311 1.362 . S
C311 H301 0.930 . S
C311 C304 1.409 . S
C311 C310 1.362 . S
H312 C318 0.930 . S
H313 C321 0.930 . S
H314 C322 0.930 . S
H315 C323 0.930 . S
H316 C326 0.930 . S
H317 C327 0.930 . S
C318 H312 0.930 . S
C318 C319 1.355 . S
C318 C320 1.415 . S
C319 C318 1.355 . S
C319 C321 1.419 . S
C320 C318 1.415 . S
C320 C325 1.425 . S
C320 C327 1.409 . S
C321 H313 0.930 . S
C321 C319 1.419 . S
C321 C322 1.362 . S
C322 H314 0.930 . S
C322 C321 1.362 . S
C322 C325 1.409 . S
C323 H315 0.930 . S
C323 C324 1.355 . S
C323 C325 1.415 . S
C324 C323 1.355 . S
C324 C326 1.419 . S
C325 C320 1.425 . S
C325 C322 1.409 . S
C325 C323 1.415 . S
C326 H316 0.930 . S
C326 C324 1.419 . S
C326 C327 1.362 . S
C327 H317 0.930 . S
C327 C320 1.409 . S
C327 C326 1.362 . S
H328 C334 0.930 . S
H329 C337 0.930 . S
H330 C338 0.930 . S
H331 C339 0.930 . S
H332 C342 0.930 . S
H333 C343 0.930 . S
C334 H328 0.930 . S
C334 C335 1.355 1_455 S
C334 C336 1.415 . S
C335 C334 1.355 1_655 S
C335 C337 1.419 . S
C336 C334 1.415 . S
C336 C341 1.425 1_455 S
C336 C343 1.409 . S
C337 H329 0.930 . S
C337 C335 1.419 . S
C337 C338 1.362 . S
C338 H330 0.930 . S
C338 C337 1.362 . S
C338 C341 1.409 . S
C339 H331 0.930 . S
C339 C340 1.355 1_655 S
C339 C341 1.415 . S
C340 C339 1.355 1_455 S
C340 C342 1.419 . S
C341 C336 1.425 1_655 S
C341 C338 1.409 . S
C341 C339 1.415 . S
C342 H332 0.930 . S
C342 C340 1.419 . S
C342 C343 1.362 . S
C343 H333 0.930 . S
C343 C336 1.409 . S
C343 C342 1.362 . S
H344 C350 0.930 . S
H345 C353 0.930 . S
H346 C354 0.930 . S
H347 C355 0.930 . S
H348 C358 0.930 . S
H349 C359 0.930 . S
C350 H344 0.930 . S
C350 C351 1.355 1_545 S
C350 C352 1.415 . S
C351 C350 1.355 1_565 S
C351 C353 1.419 . S
C352 C350 1.415 . S
C352 C357 1.425 1_545 S
C352 C359 1.409 . S
C353 H345 0.930 . S
C353 C351 1.419 . S
C353 C354 1.362 . S
C354 H346 0.930 . S
C354 C353 1.362 . S
C354 C357 1.409 . S
C355 H347 0.930 . S
C355 C356 1.355 1_565 S
C355 C357 1.415 . S
C356 C355 1.355 1_545 S
C356 C358 1.419 . S
C357 C352 1.425 1_565 S
C357 C354 1.409 . S
C357 C355 1.415 . S
C358 H348 0.930 . S
C358 C356 1.419 . S
C358 C359 1.362 . S
C359 H349 0.930 . S
C359 C352 1.409 . S
C359 C358 1.362 . S
H360 C366 0.930 . S
H361 C369 0.930 . S
H362 C370 0.930 . S
H363 C371 0.930 . S
H364 C374 0.930 . S
H365 C375 0.930 . S
C366 H360 0.930 . S
C366 C367 1.355 . S
C366 C368 1.415 . S
C367 C366 1.355 . S
C367 C369 1.419 . S
C368 C366 1.415 . S
C368 C373 1.425 . S
C368 C375 1.409 . S
C369 H361 0.930 . S
C369 C367 1.419 . S
C369 C370 1.362 . S
C370 H362 0.930 . S
C370 C369 1.362 . S
C370 C373 1.409 . S
C371 H363 0.930 . S
C371 C372 1.355 . S
C371 C373 1.415 . S
C372 C371 1.355 . S
C372 C374 1.419 . S
C373 C368 1.425 . S
C373 C370 1.409 . S
C373 C371 1.415 . S
C374 H364 0.930 . S
C374 C372 1.419 . S
C374 C375 1.362 . S
C375 H365 0.930 . S
C375 C368 1.409 . S
C375 C374 1.362 . S
H376 C382 0.930 . S
H377 C385 0.930 . S
H378 C386 0.930 . S
H379 C387 0.930 . S
H380 C390 0.930 . S
H381 C391 0.930 . S
C382 H376 0.930 . S
C382 C383 1.355 . S
C382 C384 1.415 . S
C383 C382 1.355 . S
C383 C385 1.419 . S
C384 C382 1.415 . S
C384 C389 1.425 . S
C384 C391 1.409 . S
C385 H377 0.930 . S
C385 C383 1.419 . S
C385 C386 1.362 . S
C386 H378 0.930 . S
C386 C385 1.362 . S
C386 C389 1.409 . S
C387 H379 0.930 . S
C387 C388 1.355 . S
C387 C389 1.415 . S
C388 C387 1.355 . S
C388 C390 1.419 . S
C389 C384 1.425 . S
C389 C386 1.409 . S
C389 C387 1.415 . S
C390 H380 0.930 . S
C390 C388 1.419 . S
C390 C391 1.362 . S
C391 H381 0.930 . S
C391 C384 1.409 . S
C391 C390 1.362 . S
H392 C398 0.930 . S
H393 C401 0.930 . S
H394 C402 0.930 . S
H395 C403 0.930 . S
H396 C406 0.930 . S
H397 C407 0.930 . S
C398 H392 0.930 . S
C398 C399 1.355 . S
C398 C400 1.415 . S
C399 C398 1.355 . S
C399 C401 1.419 . S
C400 C398 1.415 . S
C400 C405 1.425 . S
C400 C407 1.409 . S
C401 H393 0.930 . S
C401 C399 1.419 . S
C401 C402 1.362 . S
C402 H394 0.930 . S
C402 C401 1.362 . S
C402 C405 1.409 . S
C403 H395 0.930 . S
C403 C404 1.355 . S
C403 C405 1.415 . S
C404 C403 1.355 . S
C404 C406 1.419 . S
C405 C400 1.425 . S
C405 C402 1.409 . S
C405 C403 1.415 . S
C406 H396 0.930 . S
C406 C404 1.419 . S
C406 C407 1.362 . S
C407 H397 0.930 . S
C407 C400 1.409 . S
C407 C406 1.362 . S
H408 C414 0.930 . S
H409 C417 0.930 . S
H410 C418 0.930 . S
H411 C419 0.930 . S
H412 C422 0.930 . S
H413 C423 0.930 . S
C414 H408 0.930 . S
C414 C415 1.355 . S
C414 C416 1.415 . S
C415 C414 1.355 . S
C415 C417 1.419 . S
C416 C414 1.415 . S
C416 C421 1.425 . S
C416 C423 1.409 . S
C417 H409 0.930 . S
C417 C415 1.419 . S
C417 C418 1.362 . S
C418 H410 0.930 . S
C418 C417 1.362 . S
C418 C421 1.409 . S
C419 H411 0.930 . S
C419 C420 1.355 . S
C419 C421 1.415 . S
C420 C419 1.355 . S
C420 C422 1.419 . S
C421 C416 1.425 . S
C421 C418 1.409 . S
C421 C419 1.415 . S
C422 H412 0.930 . S
C422 C420 1.419 . S
C422 C423 1.362 . S
C423 H413 0.930 . S
C423 C416 1.409 . S
C423 C422 1.362 . S
H424 C430 0.930 . S
H425 C433 0.930 . S
H426 C434 0.930 . S
H427 C435 0.930 . S
H428 C438 0.930 . S
H429 C439 0.930 . S
C430 H424 0.930 . S
C430 C431 1.355 . S
C430 C432 1.415 . S
C431 C430 1.355 . S
C431 C433 1.419 . S
C432 C430 1.415 . S
C432 C437 1.425 . S
C432 C439 1.409 . S
C433 H425 0.930 . S
C433 C431 1.419 . S
C433 C434 1.362 . S
C434 H426 0.930 . S
C434 C433 1.362 . S
C434 C437 1.409 . S
C435 H427 0.930 . S
C435 C436 1.355 . S
C435 C437 1.415 . S
C436 C435 1.355 . S
C436 C438 1.419 . S
C437 C432 1.425 . S
C437 C434 1.409 . S
C437 C435 1.415 . S
C438 H428 0.930 . S
C438 C436 1.419 . S
C438 C439 1.362 . S
C439 H429 0.930 . S
C439 C432 1.409 . S
C439 C438 1.362 . S
H440 C446 0.930 . S
H441 C449 0.910 1_545 S
H442 C450 0.930 . S
H443 C451 0.930 . S
H444 C454 0.930 . S
H445 C455 0.930 . S
C446 H440 0.930 . S
C446 C447 1.355 . S
C446 C448 1.415 . S
C447 C446 1.355 . S
C447 C449 1.419 . S
C448 C446 1.415 . S
C448 C453 1.425 . S
C448 C455 1.409 . S
C449 H441 0.910 1_565 S
C449 C447 1.419 . S
C449 C450 1.362 . S
C450 H442 0.930 . S
C450 C449 1.362 . S
C450 C453 1.409 . S
C451 H443 0.930 . S
C451 C452 1.355 . S
C451 C453 1.415 . S
C452 C451 1.355 . S
C452 C454 1.419 . S
C453 C448 1.425 . S
C453 C450 1.409 . S
C453 C451 1.415 . S
C454 H444 0.930 . S
C454 C452 1.419 . S
C454 C455 1.362 . S
C455 H445 0.930 . S
C455 C448 1.409 . S
C455 C454 1.362 . S
H456 C462 0.930 . S
H457 C465 0.930 . S
H458 C466 0.930 . S
H459 C467 0.930 . S
H460 C470 0.930 . S
H461 C471 0.930 . S
C462 H456 0.930 . S
C462 C463 1.355 . S
C462 C464 1.415 . S
C463 C462 1.355 . S
C463 C465 1.419 . S
C464 C462 1.415 . S
C464 C469 1.425 . S
C464 C471 1.409 . S
C465 H457 0.930 . S
C465 C463 1.419 . S
C465 C466 1.362 . S
C466 H458 0.930 . S
C466 C465 1.362 . S
C466 C469 1.409 . S
C467 H459 0.930 . S
C467 C468 1.355 . S
C467 C469 1.415 . S
C468 C467 1.355 . S
C468 C470 1.419 . S
C469 C464 1.425 . S
C469 C466 1.409 . S
C469 C467 1.415 . S
C470 H460 0.930 . S
C470 C468 1.419 . S
C470 C471 1.362 . S
C471 H461 0.930 . S
C471 C464 1.409 . S
C471 C470 1.362 . S
H472 C478 0.930 . S
H473 C481 0.930 . S
H474 C482 0.930 . S
H475 C483 0.930 . S
H476 C486 0.930 . S
H477 C487 0.930 . S
C478 H472 0.930 . S
C478 C479 1.355 1_455 S
C478 C480 1.415 . S
C479 C478 1.355 1_655 S
C479 C481 1.419 . S
C480 C478 1.415 . S
C480 C485 1.425 1_455 S
C480 C487 1.409 . S
C481 H473 0.930 . S
C481 C479 1.419 . S
C481 C482 1.362 . S
C482 H474 0.930 . S
C482 C481 1.362 . S
C482 C485 1.409 . S
C483 H475 0.930 . S
C483 C484 1.355 1_655 S
C483 C485 1.415 . S
C484 C483 1.355 1_455 S
C484 C486 1.419 . S
C485 C480 1.425 1_655 S
C485 C482 1.409 . S
C485 C483 1.415 . S
C486 H476 0.930 . S
C486 C484 1.419 . S
C486 C487 1.362 . S
C487 H477 0.930 . S
C487 C480 1.409 . S
C487 C486 1.362 . S
H488 C494 0.930 . S
H489 C497 0.930 . S
H490 C498 0.930 . S
H491 C499 0.930 . S
H492 C502 0.930 . S
H493 C503 0.930 . S
C494 H488 0.930 . S
C494 C495 1.355 . S
C494 C496 1.414 1_554 S
C495 C494 1.355 . S
C495 C497 1.419 1_545 S
C496 C494 1.414 1_556 S
C496 C501 1.425 1_546 S
C496 C503 1.409 . S
C497 H489 0.930 . S
C497 C495 1.419 1_565 S
C497 C498 1.362 . S
C498 H490 0.930 . S
C498 C497 1.362 . S
C498 C501 1.409 . S
C499 H491 0.930 . S
C499 C500 1.355 . S
C499 C501 1.414 1_556 S
C500 C499 1.355 . S
C500 C502 1.419 1_565 S
C501 C496 1.425 1_564 S
C501 C498 1.409 . S
C501 C499 1.414 1_554 S
C502 H492 0.930 . S
C502 C500 1.419 1_545 S
C502 C503 1.362 . S
C503 H493 0.930 . S
C503 C496 1.409 . S
C503 C502 1.362 . S
H504 C510 0.930 . S
H505 C513 0.930 . S
H506 C514 0.930 . S
H507 C515 0.930 . S
H508 C518 0.930 . S
H509 C519 0.930 . S
C510 H504 0.930 . S
C510 C511 1.355 . S
C510 C512 1.415 . S
C511 C510 1.355 . S
C511 C513 1.419 . S
C512 C510 1.415 . S
C512 C517 1.425 . S
C512 C519 1.409 . S
C513 H505 0.930 . S
C513 C511 1.419 . S
C513 C514 1.362 . S
C514 H506 0.930 . S
C514 C513 1.362 . S
C514 C517 1.409 . S
C515 H507 0.930 . S
C515 C516 1.355 . S
C515 C517 1.415 . S
C516 C515 1.355 . S
C516 C518 1.419 . S
C517 C512 1.425 . S
C517 C514 1.409 . S
C517 C515 1.415 . S
C518 H508 0.930 . S
C518 C516 1.419 . S
C518 C519 1.362 . S
C519 H509 0.930 . S
C519 C512 1.409 . S
C519 C518 1.362 . S
H520 C526 0.930 . S
H521 C529 0.930 . S
H522 C530 0.930 . S
H523 C531 0.930 . S
H524 C534 0.930 . S
H525 C535 0.930 . S
C526 H520 0.930 . S
C526 C527 1.355 . S
C526 C528 1.415 . S
C527 C526 1.355 . S
C527 C529 1.419 1_455 S
C528 C526 1.415 . S
C528 C533 1.425 1_455 S
C528 C535 1.409 . S
C529 H521 0.930 . S
C529 C527 1.419 1_655 S
C529 C530 1.362 . S
C530 H522 0.930 . S
C530 C529 1.362 . S
C530 C533 1.409 . S
C531 H523 0.930 . S
C531 C532 1.355 . S
C531 C533 1.415 . S
C532 C531 1.355 . S
C532 C534 1.419 1_655 S
C533 C528 1.425 1_655 S
C533 C530 1.409 . S
C533 C531 1.415 . S
C534 H524 0.930 . S
C534 C532 1.419 1_455 S
C534 C535 1.362 . S
C535 H525 0.930 . S
C535 C528 1.409 . S
C535 C534 1.362 . S
H536 C542 0.930 . S
H537 C545 0.929 . S
H538 C546 0.930 . S
H539 C547 0.930 . S
H540 C550 0.929 . S
H541 C551 0.930 . S
C542 H536 0.930 . S
C542 C543 1.355 . S
C542 C544 1.415 . S
C543 C542 1.355 . S
C543 C545 1.419 1_565 S
C544 C542 1.415 . S
C544 C549 1.425 1_564 S
C544 C551 1.409 1_554 S
C545 H537 0.929 . S
C545 C543 1.419 1_545 S
C545 C546 1.363 . S
C546 H538 0.930 . S
C546 C545 1.363 . S
C546 C549 1.409 1_554 S
C547 H539 0.930 . S
C547 C548 1.355 . S
C547 C549 1.415 . S
C548 C547 1.355 . S
C548 C550 1.419 1_545 S
C549 C544 1.425 1_546 S
C549 C546 1.409 1_556 S
C549 C547 1.415 . S
C550 H540 0.929 . S
C550 C548 1.419 1_565 S
C550 C551 1.363 . S
C551 H541 0.930 . S
C551 C544 1.409 1_556 S
C551 C550 1.363 . S
C175 C162 1.690 . S
C180 C8 1.685 . S
C191 C22 1.661 . S
C196 C92 1.679 . S
C207 C36 1.673 . S
C212 C106 1.659 . S
C223 C50 1.692 . S
C228 C120 1.679 . S
C239 C134 1.689 . S
C244 C64 1.670 . S
C255 C78 1.686 . S
C260 C148 1.666 . S
C271 C51 1.285 . S
C276 C9 1.251 . S
C287 C65 1.228 . S
C292 C23 1.203 . S
C303 C79 1.207 . S
C308 C37 1.214 . S
C319 C93 1.204 . S
C324 C135 1.229 . S
C335 C107 1.285 . S
C340 C149 1.276 . S
C351 C121 1.236 . S
C356 C163 1.278 . S
C367 C119 0.617 . S
C372 C7 0.671 . S
C383 C21 0.672 . S
C388 C133 0.618 . S
C399 C147 0.596 . S
C404 C35 0.646 . S
C415 C161 0.628 . S
C420 C49 0.681 . S
C431 C91 0.739 . S
C436 C63 0.730 . S
C447 C77 0.728 . S
C452 C105 0.690 . S
C463 C129 1.647 . S
C468 C3 1.651 . S
C479 C17 1.670 . S
C484 C143 1.666 . S
C495 C157 1.638 . S
C500 C31 1.639 . S
C511 C45 1.650 . S
C516 C87 1.646 . S
C527 C59 1.640 . S
C532 C101 1.642 . S
C543 C115 1.650 . S
C548 C73 1.655 . S
