# Generated by pormake.
# Topology vby, (6)-cn, num edge types: 1
# Building blocks:
#     Node 0, Type 0, BuildingBlock: VOLQOD_clean_sbu_1, # of connection points: 6
#     Node 1, Type 0, BuildingBlock: VOLQOD_clean_sbu_1, # of connection points: 6
#     Node 2, Type 0, BuildingBlock: VOLQOD_clean_sbu_1, # of connection points: 6
#     Node 3, Type 0, BuildingBlock: VOLQOD_clean_sbu_1, # of connection points: 6
#     Node 4, Type 0, BuildingBlock: VOLQOD_clean_sbu_1, # of connection points: 6
#     Node 5, Type 0, BuildingBlock: VOLQOD_clean_sbu_1, # of connection points: 6
#     Node 6, Type 0, BuildingBlock: VOLQOD_clean_sbu_1, # of connection points: 6
#     Node 7, Type 0, BuildingBlock: VOLQOD_clean_sbu_1, # of connection points: 6
#     Edge 8, Type (0, 0), BuildingBlock: CIFDUS_clean_linker_0, # of connection points: 2
#     Edge 9, Type (0, 0), BuildingBlock: CIFDUS_clean_linker_0, # of connection points: 2
#     Edge 10, Type (0, 0), BuildingBlock: CIFDUS_clean_linker_0, # of connection points: 2
#     Edge 11, Type (0, 0), BuildingBlock: CIFDUS_clean_linker_0, # of connection points: 2
#     Edge 12, Type (0, 0), BuildingBlock: CIFDUS_clean_linker_0, # of connection points: 2
#     Edge 13, Type (0, 0), BuildingBlock: CIFDUS_clean_linker_0, # of connection points: 2
#     Edge 14, Type (0, 0), BuildingBlock: CIFDUS_clean_linker_0, # of connection points: 2
#     Edge 15, Type (0, 0), BuildingBlock: CIFDUS_clean_linker_0, # of connection points: 2
#     Edge 16, Type (0, 0), BuildingBlock: CIFDUS_clean_linker_0, # of connection points: 2
#     Edge 17, Type (0, 0), BuildingBlock: CIFDUS_clean_linker_0, # of connection points: 2
#     Edge 18, Type (0, 0), BuildingBlock: CIFDUS_clean_linker_0, # of connection points: 2
#     Edge 19, Type (0, 0), BuildingBlock: CIFDUS_clean_linker_0, # of connection points: 2
#     Edge 20, Type (0, 0), BuildingBlock: CIFDUS_clean_linker_0, # of connection points: 2
#     Edge 21, Type (0, 0), BuildingBlock: CIFDUS_clean_linker_0, # of connection points: 2
#     Edge 22, Type (0, 0), BuildingBlock: CIFDUS_clean_linker_0, # of connection points: 2
#     Edge 23, Type (0, 0), BuildingBlock: CIFDUS_clean_linker_0, # of connection points: 2
#     Edge 24, Type (0, 0), BuildingBlock: CIFDUS_clean_linker_0, # of connection points: 2
#     Edge 25, Type (0, 0), BuildingBlock: CIFDUS_clean_linker_0, # of connection points: 2
#     Edge 26, Type (0, 0), BuildingBlock: CIFDUS_clean_linker_0, # of connection points: 2
#     Edge 27, Type (0, 0), BuildingBlock: CIFDUS_clean_linker_0, # of connection points: 2
#     Edge 28, Type (0, 0), BuildingBlock: CIFDUS_clean_linker_0, # of connection points: 2
#     Edge 29, Type (0, 0), BuildingBlock: CIFDUS_clean_linker_0, # of connection points: 2
#     Edge 30, Type (0, 0), BuildingBlock: CIFDUS_clean_linker_0, # of connection points: 2
#     Edge 31, Type (0, 0), BuildingBlock: CIFDUS_clean_linker_0, # of connection points: 2
# Relax obj value: 0.083
# Max RMSD: 0.107
# Mean RMSD: 0.107
data_MOF--net-vby--node1-VOLQOD_clean_sbu_1--edge1-CIFDUS_clean_linker_0
_symmetry_space_group_name_H-M    P1
_symmetry_Int_Tables_number       1
_symmetry_cell_setting            triclinic
loop_
_symmetry_equiv_pos_as_xyz
'x, y, z'
_cell_length_a     15.165244
_cell_length_b     58.21547
_cell_length_c     30.124485
_cell_angle_alpha  89.951261
_cell_angle_beta   90.34503
_cell_angle_gamma 89.649989
loop_
_atom_site_label
_atom_site_type_symbol
_atom_site_fract_x
_atom_site_fract_y
_atom_site_fract_z
_atom_type_partial_charge
O0 O 0.21791 0.36373 -0.00469 0.0
Zn1 Zn 0.08557 0.36797 0.98809 0.0
O2 O 0.02057 0.34793 0.02818 0.0
Zn3 Zn 0.96178 0.32321 -0.005 0.0
Zn4 Zn 0.10336 0.33543 0.07102 0.0
Zn5 Zn 0.9337 0.3656 0.06023 0.0
O6 O 0.82841 0.32376 0.00414 0.0
O7 O 0.81379 0.35512 0.0453 0.0
O8 O 0.05126 0.36121 0.92502 0.0
O9 O 0.97664 0.32849 0.92934 0.0
O10 O 0.01677 0.29221 0.01015 0.0
O11 O 0.1175 0.30185 0.06081 0.0
O12 O 0.06889 0.34153 0.13421 0.0
O13 O 0.05408 0.40133 -0.00118 0.0
O14 O 0.94844 0.36299 0.1263 0.0
O15 O 0.93848 0.39869 0.04358 0.0
C16 C 0.26127 0.35675 0.02911 0.0
C17 C 0.78014 0.33853 0.02391 0.0
C18 C 0.08042 0.28697 0.03624 0.0
C19 C 0.01006 0.34471 0.90671 0.0
C20 C 0.00534 0.35294 0.15081 0.0
C21 C -0.0093 0.41053 0.0201 0.0
O22 O 0.2238 0.34777 0.06238 0.0
O23 O 0.75484 0.59201 0.00092 0.0
Zn24 Zn 0.88604 0.58947 -0.00829 0.0
O25 O 0.95015 0.61013 0.03138 0.0
Zn26 Zn 0.01111 0.63468 -0.00097 0.0
Zn27 Zn 0.8682 0.62429 0.07237 0.0
Zn28 Zn 0.03568 0.59182 0.06399 0.0
O29 O 0.14291 0.63435 0.01174 0.0
O30 O 0.15694 0.60204 0.05061 0.0
O31 O 0.91424 0.59753 0.9287 0.0
O32 O -0.00344 0.62901 0.93364 0.0
O33 O 0.95919 0.66625 0.01153 0.0
O34 O 0.85714 0.6578 0.06135 0.0
O35 O 0.90563 0.61925 0.13576 0.0
O36 O 0.92113 0.55623 0.00022 0.0
O37 O 0.01758 0.59453 0.12949 0.0
O38 O 0.03284 0.5587 0.04778 0.0
C39 C 0.70963 0.60176 0.03108 0.0
C40 C 0.1905 0.61917 0.03101 0.0
C41 C 0.8959 0.67221 0.03672 0.0
C42 C 0.95791 0.61364 0.91074 0.0
C43 C 0.96507 0.60645 0.15293 0.0
C44 C 0.98318 0.54695 0.02263 0.0
O45 O 0.74541 0.61344 0.06185 0.0
O46 O 0.24921 0.61299 0.56998 0.0
Zn47 Zn 0.11678 0.60952 0.57551 0.0
O48 O 0.05472 0.62897 0.53254 0.0
Zn49 Zn -0.01293 0.65329 0.56261 0.0
Zn50 Zn 0.13961 0.64278 0.49327 0.0
Zn51 Zn 0.97783 0.61014 0.49657 0.0
O52 O 0.85711 0.65112 0.54707 0.0
O53 O 0.85302 0.61985 0.50448 0.0
O54 O 0.08113 0.61819 0.63698 0.0
O55 O -0.00468 0.64906 0.62876 0.0
O56 O 0.03608 0.685 0.54957 0.0
O57 O 0.14853 0.67599 0.50584 0.0
O58 O 0.10929 0.63889 0.42864 0.0
O59 O 0.08383 0.57612 0.5686 0.0
O60 O 0.00284 0.61299 0.43193 0.0
O61 O -0.013 0.57709 0.51304 0.0
C62 C 0.29602 0.62122 0.53882 0.0
C63 C 0.8148 0.63633 0.52435 0.0
C64 C 0.10434 0.69064 0.52771 0.0
C65 C 0.03374 0.63418 0.65319 0.0
C66 C 0.05434 0.62564 0.40971 0.0
C67 C 0.03073 0.56604 0.54226 0.0
O68 O 0.26084 0.63114 0.50544 0.0
O69 O 0.69822 0.39106 0.56474 0.0
Zn70 Zn 0.83226 0.39265 0.5703 0.0
O71 O 0.88859 0.37075 0.52975 0.0
Zn72 Zn 0.95196 0.34665 0.56236 0.0
Zn73 Zn 0.80118 0.35702 0.49122 0.0
Zn74 Zn 0.97107 0.38671 0.49238 0.0
O75 O 0.0833 0.34726 0.54936 0.0
O76 O 0.0948 0.3799 0.51145 0.0
O77 O 0.86764 0.38552 0.63367 0.0
O78 O 0.94223 0.35266 0.62758 0.0
O79 O 0.89951 0.31522 0.55137 0.0
O80 O 0.79746 0.3233 0.50056 0.0
O81 O 0.82427 0.36235 0.42641 0.0
O82 O 0.87049 0.42512 0.55665 0.0
O83 O 0.95769 0.37782 0.42828 0.0
O84 O 0.95406 0.42062 0.49676 0.0
C85 C 0.64896 0.38024 0.53748 0.0
C86 C 0.12982 0.363 0.53183 0.0
C87 C 0.83745 0.30897 0.52544 0.0
C88 C 0.90969 0.36873 0.65109 0.0
C89 C 0.893 0.36943 0.40677 0.0
C90 C 0.91603 0.43338 0.5251 0.0
O91 O 0.68082 0.36749 0.50727 0.0
O92 O 0.76019 0.8706 0.99026 0.0
Zn93 Zn 0.62653 0.87269 0.98484 0.0
O94 O 0.5704 0.85137 0.02616 0.0
Zn95 Zn 0.50884 0.82661 -0.00526 0.0
Zn96 Zn 0.65793 0.83845 0.06636 0.0
Zn97 Zn 0.48574 0.86819 0.06103 0.0
O98 O 0.37702 0.82737 0.0071 0.0
O99 O 0.36307 0.86079 0.04216 0.0
O100 O 0.5901 0.86497 0.92235 0.0
O101 O 0.51958 0.83168 0.92873 0.0
O102 O 0.56204 0.79533 0.00912 0.0
O103 O 0.66749 0.8047 0.05727 0.0
O104 O 0.63028 0.8446 0.131 0.0
O105 O 0.58972 0.90562 -0.00348 0.0
O106 O 0.49828 0.86112 0.12564 0.0
O107 O 0.50078 0.90197 0.05441 0.0
C108 C 0.8096 0.86087 0.01916 0.0
C109 C 0.32932 0.84342 0.02318 0.0
C110 C 0.62705 0.78986 0.03408 0.0
C111 C 0.55015 0.84794 0.90512 0.0
C112 C 0.56095 0.85277 0.14893 0.0
C113 C 0.5413 0.91437 0.02656 0.0
O114 O 0.77806 0.84924 0.05101 0.0
O115 O 0.23309 0.09448 0.97861 0.0
Zn116 Zn 0.36712 0.09308 0.97315 0.0
O117 O 0.4247 0.11099 0.02009 0.0
Zn118 Zn 0.49186 0.13675 -0.00359 0.0
Zn119 Zn 0.33646 0.12252 0.06011 0.0
Zn120 Zn 0.50555 0.09186 0.05346 0.0
O121 O 0.62004 0.1356 0.01532 0.0
O122 O 0.63016 0.09934 0.03805 0.0
O123 O 0.40438 0.10505 0.91308 0.0
O124 O 0.49594 0.13359 0.93027 0.0
O125 O 0.43445 0.16753 0.01077 0.0
O126 O 0.32375 0.15622 0.05333 0.0
O127 O 0.36415 0.11537 0.1237 0.0
O128 O 0.40464 0.05964 0.97737 0.0
O129 O 0.49121 0.09631 0.11942 0.0
O130 O 0.48803 0.05886 0.03837 0.0
C131 C 0.18494 0.10179 0.01024 0.0
C132 C 0.66593 0.11807 0.02637 0.0
C133 C 0.36538 0.17191 0.03324 0.0
C134 C 0.45785 0.12082 0.90188 0.0
C135 C 0.42982 0.10547 0.14214 0.0
C136 C 0.45011 0.04866 0.00623 0.0
O137 O 0.21779 0.11134 0.04435 0.0
O138 O 0.73886 0.11326 0.55848 0.0
Zn139 Zn 0.6072 0.11045 0.56608 0.0
O140 O 0.54392 0.12843 0.52099 0.0
Zn141 Zn 0.47825 0.15331 0.54895 0.0
Zn142 Zn 0.6256 0.14121 0.47847 0.0
Zn143 Zn 0.46214 0.10901 0.48945 0.0
O144 O 0.35046 0.1536 0.52951 0.0
O145 O 0.33835 0.11811 0.50292 0.0
O146 O 0.57229 0.12048 0.62751 0.0
O147 O 0.47428 0.14831 0.61483 0.0
O148 O 0.53584 0.18388 0.53693 0.0
O149 O 0.62239 0.17546 0.47969 0.0
O150 O 0.60232 0.13055 0.41599 0.0
O151 O 0.57596 0.07691 0.56188 0.0
O152 O 0.47864 0.11077 0.42354 0.0
O153 O 0.47771 0.07624 0.5069 0.0
C154 C 0.78457 0.12277 0.52832 0.0
C155 C 0.3038 0.13689 0.51583 0.0
C156 C 0.58873 0.18988 0.50641 0.0
C157 C 0.51599 0.13508 0.64137 0.0
C158 C 0.53894 0.11914 0.39932 0.0
C159 C 0.52379 0.06601 0.53633 0.0
O160 O 0.74902 0.13329 0.49576 0.0
O161 O 0.23567 0.88885 0.56152 0.0
Zn162 Zn 0.36944 0.89062 0.5669 0.0
O163 O 0.4263 0.86878 0.52679 0.0
Zn164 Zn 0.49079 0.84488 0.55949 0.0
Zn165 Zn 0.33841 0.85497 0.48882 0.0
Zn166 Zn 0.50827 0.88481 0.48932 0.0
O167 O 0.62176 0.84566 0.54583 0.0
O168 O 0.63206 0.87872 0.50917 0.0
O169 O 0.406 0.88401 0.63009 0.0
O170 O 0.48198 0.8513 0.62494 0.0
O171 O 0.43881 0.81329 0.54891 0.0
O172 O 0.32806 0.82194 0.50312 0.0
O173 O 0.36722 0.85769 0.42383 0.0
O174 O 0.40536 0.92302 0.55228 0.0
O175 O 0.49757 0.87483 0.42574 0.0
O176 O 0.48817 0.9187 0.49208 0.0
C177 C 0.18664 0.87911 0.5327 0.0
C178 C 0.66769 0.8617 0.52892 0.0
C179 C 0.37078 0.80753 0.5266 0.0
C180 C 0.44906 0.86753 0.64798 0.0
C181 C 0.43584 0.865 0.40434 0.0
C182 C 0.44943 0.93139 0.52033 0.0
O183 O 0.21858 0.86696 0.50161 0.0
H184 H 0.37395 0.33384 0.9757 0.0
H185 H 0.3619 0.38042 0.08659 0.0
H186 H 0.52211 0.3781 0.09568 0.0
H187 H 0.66343 0.36212 0.07356 0.0
H188 H 0.67846 0.31415 0.96463 0.0
H189 H 0.51836 0.31714 0.95393 0.0
C190 C 0.40719 0.34378 0.00116 0.0
C191 C 0.35761 0.35774 0.02982 0.0
C192 C 0.49889 0.34167 0.00711 0.0
C193 C 0.39982 0.36998 0.06376 0.0
C194 C 0.49093 0.36847 0.06916 0.0
C195 C 0.63198 0.35223 0.04745 0.0
C196 C 0.68292 0.33797 0.01984 0.0
C197 C 0.54081 0.35419 0.04135 0.0
C198 C 0.64069 0.32513 0.98653 0.0
C199 C 0.54934 0.32701 0.98015 0.0
H200 H 0.30202 0.58391 0.01864 0.0
H201 H 0.29426 0.65717 0.03916 0.0
H202 H 0.45605 0.65805 0.04215 0.0
H203 H 0.59875 0.63753 0.04119 0.0
H204 H 0.60583 0.56484 0.01407 0.0
H205 H 0.44424 0.56401 0.01146 0.0
C206 C 0.33599 0.60006 0.02365 0.0
C207 C 0.28712 0.62042 0.02925 0.0
C208 C 0.4282 0.60043 0.02437 0.0
C209 C 0.33111 0.64134 0.03483 0.0
C210 C 0.42324 0.6418 0.03673 0.0
C211 C 0.56452 0.62154 0.03484 0.0
C212 C 0.61307 0.60117 0.02857 0.0
C213 C 0.47228 0.6214 0.03202 0.0
C214 C 0.56908 0.58062 0.01926 0.0
C215 C 0.47708 0.58017 0.01778 0.0
H216 H 0.70147 0.62416 0.58832 0.0
H217 H 0.71551 0.64908 0.45393 0.0
H218 H 0.55512 0.6459 0.44606 0.0
H219 H 0.41287 0.63508 0.47679 0.0
H220 H 0.3978 0.60866 0.61055 0.0
H221 H 0.55732 0.61288 0.61912 0.0
C222 C 0.66863 0.62925 0.55773 0.0
C223 C 0.71863 0.63733 0.52203 0.0
C224 C 0.57708 0.62666 0.55312 0.0
C225 C 0.67709 0.64327 0.48195 0.0
C226 C 0.58591 0.64125 0.47739 0.0
C227 C 0.44424 0.63012 0.50783 0.0
C228 C 0.39328 0.62154 0.54296 0.0
C229 C 0.53549 0.63273 0.5126 0.0
C230 C 0.43542 0.61516 0.58285 0.0
C231 C 0.52654 0.61774 0.58791 0.0
H232 H 0.53898 0.34447 0.53122 0.0
H233 H 0.54373 0.41753 0.55409 0.0
H234 H 0.38179 0.41858 0.55458 0.0
H235 H 0.23963 0.39873 0.54483 0.0
H236 H 0.23606 0.32519 0.52777 0.0
H237 H 0.3976 0.32416 0.52883 0.0
C238 C 0.50433 0.36059 0.53651 0.0
C239 C 0.55243 0.38097 0.542 0.0
C240 C 0.41202 0.36091 0.53763 0.0
C241 C 0.50756 0.4017 0.54972 0.0
C242 C 0.41528 0.40227 0.54981 0.0
C243 C 0.27448 0.3825 0.54148 0.0
C244 C 0.22664 0.36208 0.53559 0.0
C245 C 0.36695 0.38202 0.54318 0.0
C246 C 0.27188 0.34108 0.5322 0.0
C247 C 0.36399 0.34052 0.5327 0.0
H248 H 0.92097 0.82516 0.02869 0.0
H249 H 0.91304 0.89756 -0.00137 0.0
H250 H 0.07482 0.8984 -0.00336 0.0
H251 H 0.21777 0.8787 0.00699 0.0
H252 H 0.22497 0.80569 0.03116 0.0
H253 H 0.06337 0.80476 0.03162 0.0
C254 C 0.95494 0.84109 0.02158 0.0
C255 C 0.90603 0.86137 0.01449 0.0
C256 C 0.0472 0.84126 0.01948 0.0
C257 C 0.9499 0.88182 0.00433 0.0
C258 C 0.04208 0.88228 0.00333 0.0
C259 C 0.18371 0.86259 0.01215 0.0
C260 C 0.23257 0.84233 0.01963 0.0
C261 C 0.09128 0.86216 0.01142 0.0
C262 C 0.18833 0.82146 0.02543 0.0
C263 C 0.09621 0.82096 0.02585 0.0
H264 H 0.07436 0.13588 0.03189 0.0
H265 H 0.08011 0.06683 0.98038 0.0
H266 H 0.91813 0.06573 0.98147 0.0
H267 H 0.77598 0.08415 4e-05 0.0
H268 H 0.77166 0.15426 0.04622 0.0
H269 H 0.933 0.15532 0.04435 0.0
C270 C 0.03993 0.12062 0.02077 0.0
C271 C 0.08828 0.10132 0.00664 0.0
C272 C 0.94771 0.12033 0.02081 0.0
C273 C 0.04367 0.08181 -0.00857 0.0
C274 C 0.95143 0.08118 -0.00773 0.0
C275 C 0.81064 0.09962 0.00974 0.0
C276 C 0.7627 0.11901 0.02392 0.0
C277 C 0.90294 0.10026 0.00744 0.0
C278 C 0.80761 0.13915 0.03543 0.0
C279 C 0.89957 0.13973 0.03439 0.0
H280 H 0.1924 0.10369 0.54064 0.0
H281 H 0.20027 0.17389 0.49521 0.0
H282 H 0.0386 0.17565 0.49504 0.0
H283 H 0.89585 0.15667 0.506 0.0
H284 H 0.88872 0.08753 0.55735 0.0
H285 H 0.0502 0.08582 0.55738 0.0
C286 C 0.15845 0.11934 0.53067 0.0
C287 C 0.20726 0.13854 0.51729 0.0
C288 C 0.06628 0.12036 0.53182 0.0
C289 C 0.1634 0.15892 0.50542 0.0
C290 C 0.07133 0.15989 0.50526 0.0
C291 C 0.92993 0.14126 0.51723 0.0
C292 C 0.88124 0.12213 0.53113 0.0
C293 C 0.02224 0.14064 0.51808 0.0
C294 C 0.92539 0.10241 0.54648 0.0
C295 C 0.01738 0.10142 0.54635 0.0
H296 H 0.77744 0.89747 0.54181 0.0
H297 H 0.77413 0.82399 0.52378 0.0
H298 H 0.93564 0.82305 0.52381 0.0
H299 H 0.07687 0.84342 0.52575 0.0
H300 H 0.08162 0.91638 0.54976 0.0
H301 H 0.91964 0.91737 0.55093 0.0
C302 C 0.81234 0.88127 0.53804 0.0
C303 C 0.76456 0.86084 0.53221 0.0
C304 C 0.90483 0.88084 0.53911 0.0
C305 C 0.8099 0.83988 0.52822 0.0
C306 C 0.90198 0.83937 0.5281 0.0
C307 C 0.04217 0.85951 0.53137 0.0
C308 C 0.09018 0.87988 0.537 0.0
C309 C 0.94992 0.85978 0.53299 0.0
C310 C 0.0454 0.90056 0.54521 0.0
C311 C 0.95314 0.9011 0.54573 0.0
H312 H 0.86135 0.51345 0.01431 0.0
H313 H 0.14132 0.525 0.02416 0.0
H314 H 0.16935 0.48362 0.02087 0.0
H315 H 0.1136 0.44404 0.01805 0.0
H316 H 0.83306 0.43251 0.01602 0.0
H317 H 0.80553 0.47391 0.01325 0.0
C318 C 0.92837 0.50683 0.01539 0.0
C319 C -0.00081 0.52208 0.01928 0.0
C320 C 0.94375 0.48305 0.01504 0.0
C321 C 0.08582 0.51344 0.02133 0.0
C322 C 0.10188 0.48984 0.01939 0.0
C323 C 0.04664 0.45068 0.01667 0.0
C324 C 0.97546 0.43543 0.01706 0.0
C325 C 0.03131 0.47447 0.01665 0.0
C326 C 0.88879 0.44407 0.01592 0.0
C327 C 0.87302 0.46768 0.01427 0.0
H328 H 0.96192 0.4623 0.59124 0.0
H329 H 0.90223 0.4596 0.45128 0.0
H330 H 0.93228 0.50069 0.44427 0.0
H331 H 0.97774 0.53705 0.47773 0.0
H332 H 0.04977 0.53938 0.61641 0.0
H333 H 0.01417 0.49862 0.6242 0.0
C334 C 0.9547 0.47088 0.55942 0.0
C335 C 0.92877 0.45827 0.52192 0.0
C336 C 0.97542 0.49424 0.55537 0.0
C337 C 0.92157 0.46919 0.48054 0.0
C338 C 0.93899 0.49258 0.47653 0.0
C339 C -0.01422 0.52861 0.50964 0.0
C340 C 0.01593 0.54114 0.54648 0.0
C341 C 0.9665 0.50522 0.51365 0.0
C342 C 0.02713 0.53 0.58752 0.0
C343 C 0.00624 0.50676 0.59204 0.0
H344 H 0.51382 0.94422 0.95868 0.0
H345 H 0.54098 0.94014 0.10102 0.0
H346 H 0.51538 0.9815 0.10722 0.0
H347 H 0.48356 0.01856 0.07239 0.0
H348 H 0.44447 0.02268 0.93064 0.0
H349 H 0.47509 0.98146 0.92386 0.0
C350 C 0.51485 0.95253 0.99089 0.0
C351 C 0.53022 0.9394 0.02932 0.0
C352 C 0.49695 0.97617 -0.0057 0.0
C353 C 0.52959 0.95007 0.07107 0.0
C354 C 0.5148 0.97364 0.07461 0.0
C355 C 0.48165 0.01043 0.04 0.0
C356 C 0.46226 0.02359 0.00206 0.0
C357 C 0.49796 0.98681 0.0365 0.0
C358 C 0.45883 0.01282 0.96037 0.0
C359 C 0.47685 0.98932 0.95645 0.0
H360 H 0.48734 0.03574 0.47133 0.0
H361 H 0.54032 0.04043 0.61184 0.0
H362 H 0.51681 -0.00096 0.61983 0.0
H363 H 0.48035 0.96158 0.5865 0.0
H364 H 0.4406 0.95669 0.445 0.0
H365 H 0.45896 -0.00176 0.43757 0.0
C366 C 0.49373 0.02766 0.50368 0.0
C367 C 0.51488 0.04099 0.541 0.0
C368 C 0.48197 0.00393 0.50777 0.0
C369 C 0.52437 0.03039 0.58265 0.0
C370 C 0.51051 0.00681 0.58724 0.0
C371 C 0.47517 0.96974 0.55418 0.0
C372 C 0.45817 0.95637 0.51638 0.0
C373 C 0.48891 -0.00656 0.55004 0.0
C374 C 0.45338 0.96683 0.47446 0.0
C375 C 0.46393 -0.0095 0.47023 0.0
H376 H 0.25284 0.27619 0.03982 0.0
H377 H -0.00533 0.24599 0.02883 0.0
H378 H 0.06136 0.20748 0.02798 0.0
H379 H 0.19298 0.18273 0.03085 0.0
H380 H 0.45172 0.21303 0.03508 0.0
H381 H 0.38492 0.25151 0.03788 0.0
C382 C 0.21127 0.26113 0.03747 0.0
C383 C 0.11905 0.26373 0.0351 0.0
C384 C 0.25018 0.23927 0.03567 0.0
C385 C 0.06574 0.24426 0.03092 0.0
C386 C 0.10384 0.22233 0.03048 0.0
C387 C 0.23468 0.19779 0.03254 0.0
C388 C 0.327 0.1952 0.03341 0.0
C389 C 0.1959 0.21968 0.03295 0.0
C390 C 0.38054 0.21473 0.03453 0.0
C391 C 0.34237 0.23664 0.03623 0.0
H392 H 0.79802 0.77751 0.03364 0.0
H393 H 0.53523 0.74963 0.03246 0.0
H394 H 0.59649 0.71052 0.03422 0.0
H395 H 0.72496 0.68456 0.03719 0.0
H396 H -0.01248 0.71237 0.03131 0.0
H397 H 0.92632 0.7515 0.03106 0.0
C398 C 0.75429 0.76282 0.03388 0.0
C399 C 0.6624 0.76627 0.03362 0.0
C400 C 0.78998 0.74056 0.0336 0.0
C401 C 0.60614 0.74725 0.03286 0.0
C402 C 0.64115 0.72498 0.03394 0.0
C403 C 0.76866 0.69924 0.03596 0.0
C404 C 0.86051 0.69578 0.03495 0.0
C405 C 0.73291 0.72148 0.03455 0.0
C406 C 0.91666 0.71476 0.03229 0.0
C407 C 0.88169 0.73704 0.03224 0.0
H408 H 0.27461 0.70267 0.53136 0.0
H409 H 0.01117 0.73102 0.53025 0.0
H410 H 0.0718 0.77002 0.52994 0.0
H411 H 0.19988 0.79565 0.52741 0.0
H412 H 0.46305 0.76724 0.53377 0.0
H413 H 0.40228 0.72829 0.53482 0.0
C414 C 0.23053 0.71743 0.53102 0.0
C415 C 0.13872 0.71416 0.5301 0.0
C416 C 0.2658 0.73957 0.53177 0.0
C417 C 0.08203 0.73326 0.53076 0.0
C418 C 0.11668 0.75546 0.53047 0.0
C419 C 0.24384 0.78089 0.529 0.0
C420 C 0.33572 0.78411 0.52981 0.0
C421 C 0.20841 0.75876 0.53051 0.0
C422 C 0.39218 0.76503 0.53294 0.0
C423 C 0.35746 0.74285 0.53343 0.0
H424 H 0.73077 0.28842 0.46532 0.0
H425 H 0.86698 0.27638 0.58954 0.0
H426 H 0.79583 0.23895 0.59614 0.0
H427 H 0.69248 0.20996 0.56708 0.0
H428 H 0.56349 0.22123 0.44111 0.0
H429 H 0.63261 0.25909 0.43506 0.0
C430 C 0.7454 0.27757 0.49376 0.0
C431 C 0.80389 0.28521 0.52697 0.0
C432 C 0.70419 0.25621 0.49737 0.0
C433 C 0.82267 0.27085 0.56338 0.0
C434 C 0.7814 0.24955 0.56738 0.0
C435 C 0.67874 0.22098 0.53876 0.0
C436 C 0.62169 0.2134 0.50508 0.0
C437 C 0.72127 0.2422 0.53485 0.0
C438 C 0.60603 0.22718 0.4677 0.0
C439 C 0.64602 0.24862 0.46413 0.0
H440 H 0.85773 0.36094 0.19885 0.0
H441 H 0.13826 0.34969 0.21173 0.0
H442 H 0.12854 0.35471 0.29208 0.0
H443 H 0.04041 0.36243 0.35856 0.0
H444 H 0.75857 0.37096 0.34643 0.0
H445 H 0.76858 0.36695 0.26576 0.0
C446 C 0.91668 0.35961 0.2193 0.0
C447 C -0.00138 0.35508 0.19946 0.0
C448 C 0.91036 0.36208 0.26548 0.0
C449 C 0.07436 0.35309 0.22631 0.0
C450 C 0.06893 0.35604 0.27219 0.0
C451 C 0.98133 0.36353 0.33816 0.0
C452 C 0.89902 0.3672 0.35817 0.0
C453 C -0.01265 0.36061 0.29209 0.0
C454 C 0.82266 0.36816 0.33162 0.0
C455 C 0.82836 0.36589 0.28557 0.0
H456 H 0.00976 0.64223 0.20419 0.0
H457 H 0.94977 0.57004 0.20807 0.0
H458 H 0.97263 0.56953 0.28875 0.0
H459 H 0.00891 0.58986 0.35778 0.0
H460 H 0.08179 0.66132 0.35306 0.0
H461 H 0.05607 0.66196 0.27277 0.0
C462 C 0.00135 0.6265 0.22301 0.0
C463 C 0.9768 0.60629 0.20108 0.0
C464 C 0.01771 0.62622 0.26883 0.0
C465 C 0.96787 0.58577 0.22492 0.0
C466 C 0.98113 0.5855 0.27079 0.0
C467 C 0.01944 0.60552 0.33905 0.0
C468 C 0.04658 0.62554 0.36105 0.0
C469 C 0.00604 0.60563 0.29303 0.0
C470 C 0.06128 0.64568 0.33659 0.0
C471 C 0.04606 0.64609 0.29084 0.0
H472 H 0.97655 0.65083 0.85757 0.0
H473 H 0.96098 0.57685 0.85553 0.0
H474 H -0.01412 0.57676 0.77551 0.0
H475 H 0.01455 0.59763 0.70658 0.0
H476 H 0.01834 0.67167 0.70683 0.0
H477 H -0.00436 0.67193 0.78735 0.0
C478 C 0.97849 0.63473 0.83947 0.0
C479 C 0.9676 0.61388 0.86221 0.0
C480 C -0.00898 0.63485 0.7934 0.0
C481 C 0.96891 0.59311 0.83855 0.0
C482 C 0.98352 0.59304 0.79292 0.0
C483 C 0.01076 0.61379 0.7244 0.0
C484 C 0.01925 0.63459 0.70131 0.0
C485 C -0.00478 0.61378 0.77012 0.0
C486 C 0.01226 0.65548 0.72426 0.0
C487 C -0.00062 0.65561 0.77014 0.0
H488 H 0.93953 0.33116 0.70218 0.0
H489 H 0.91297 0.40493 0.70853 0.0
H490 H 0.94633 0.40402 0.78804 0.0
H491 H 0.98407 0.38224 0.85551 0.0
H492 H -7e-05 0.30831 0.85024 0.0
H493 H 0.97043 0.30925 0.77025 0.0
C494 C 0.94097 0.34703 0.72101 0.0
C495 C 0.92429 0.36809 0.69956 0.0
C496 C 0.95884 0.34634 0.7667 0.0
C497 C 0.92521 0.3885 0.72439 0.0
C498 C 0.94474 0.388 0.76975 0.0
C499 C 0.98178 0.36637 0.83669 0.0
C500 C -0.00475 0.34525 0.85837 0.0
C501 C 0.96211 0.36703 0.79116 0.0
C502 C -0.00987 0.32475 0.83403 0.0
C503 C 0.97317 0.3253 0.78842 0.0
H504 H 0.4105 0.85442 0.1966 0.0
H505 H 0.69378 0.85238 0.21069 0.0
H506 H 0.67995 0.8562 0.29125 0.0
H507 H 0.58711 0.86133 0.35729 0.0
H508 H 0.30378 0.86136 0.34312 0.0
H509 H 0.31785 0.85715 0.26275 0.0
C510 C 0.46924 0.85476 0.21731 0.0
C511 C 0.55306 0.85333 0.19775 0.0
C512 C 0.46074 0.8567 0.26346 0.0
C513 C 0.62853 0.85343 0.22501 0.0
C514 C 0.62066 0.85572 0.27101 0.0
C515 C 0.52851 0.86045 0.33654 0.0
C516 C 0.44454 0.86189 0.35595 0.0
C517 C 0.5371 0.8576 0.29052 0.0
C518 C 0.36911 0.86032 0.32888 0.0
C519 C 0.37711 0.85794 0.28297 0.0
H520 H 0.57838 0.10847 0.19196 0.0
H521 H 0.29545 0.1035 0.20118 0.0
H522 H 0.30487 0.1061 0.28208 0.0
H523 H 0.39294 0.11132 0.34972 0.0
H524 H 0.67478 0.11956 0.3403 0.0
H525 H 0.66658 0.11424 0.25985 0.0
C526 C 0.51903 0.10771 0.21183 0.0
C527 C 0.43644 0.10564 0.19091 0.0
C528 C 0.52475 0.10999 0.25812 0.0
C529 C 0.35972 0.10509 0.21674 0.0
C530 C 0.36507 0.10659 0.2629 0.0
C531 C 0.45262 0.11181 0.33007 0.0
C532 C 0.53434 0.11574 0.35084 0.0
C533 C 0.44713 0.10929 0.28387 0.0
C534 C 0.61103 0.11665 0.32497 0.0
C535 C 0.60642 0.11355 0.27904 0.0
H536 H 0.35105 0.13209 0.83294 0.0
H537 H 0.61987 0.11529 0.86737 0.0
H538 H 0.66297 0.11839 0.78937 0.0
H539 H 0.62296 0.1251 0.71122 0.0
H540 H 0.35666 0.14521 0.6775 0.0
H541 H 0.31367 0.14196 0.75531 0.0
C542 C 0.41887 0.12915 0.82307 0.0
C543 C 0.48227 0.12323 0.85517 0.0
C544 C 0.44352 0.13169 0.77849 0.0
C545 C 0.57032 0.11978 0.84273 0.0
C546 C 0.59485 0.12155 0.79831 0.0
C547 C 0.55574 0.1289 0.72106 0.0
C548 C 0.49298 0.13526 0.68883 0.0
C549 C 0.53192 0.1274 0.76588 0.0
C550 C 0.40625 0.1404 0.70188 0.0
C551 C 0.38147 0.13841 0.74627 0.0
H552 H 0.48131 0.83079 0.70126 0.0
H553 H 0.45136 0.90456 0.70322 0.0
H554 H 0.48416 0.90504 0.78272 0.0
H555 H 0.52206 0.88452 0.85155 0.0
H556 H 0.54133 0.81058 0.85089 0.0
H557 H 0.51251 0.8101 0.77084 0.0
C558 C 0.48193 0.84696 0.71914 0.0
C559 C 0.46436 0.86761 0.69642 0.0
C560 C 0.49935 0.84707 0.76494 0.0
C561 C 0.46429 0.88842 0.72004 0.0
C562 C 0.48345 0.88872 0.76542 0.0
C563 C 0.52055 0.86833 0.83374 0.0
C564 C 0.53475 0.84763 0.85678 0.0
C565 C 0.50141 0.86817 0.78814 0.0
C566 C 0.5308 0.82672 0.83368 0.0
C567 C 0.51431 0.82645 0.788 0.0
loop_
_geom_bond_atom_site_label_1
_geom_bond_atom_site_label_2
_geom_bond_distance
_geom_bond_site_symmetry_2
_ccdc_geom_bond_type
O0 Zn1 1.953 . S
O0 C16 1.225 1_556 S
Zn1 O0 1.953 . S
Zn1 O2 1.949 1_556 S
Zn1 O8 1.919 . S
Zn1 O13 1.924 . S
O2 Zn1 1.949 1_554 S
O2 Zn3 1.923 1_455 S
O2 Zn4 1.950 . S
O2 Zn5 1.945 1_455 S
Zn3 O2 1.923 1_655 S
Zn3 O6 1.933 . S
Zn3 O9 1.941 1_654 S
Zn3 O10 1.965 1_655 S
Zn4 O2 1.950 . S
Zn4 O11 1.938 . S
Zn4 O12 1.906 . S
Zn4 O22 1.953 . S
Zn5 O2 1.945 1_655 S
Zn5 O7 1.932 . S
Zn5 O14 1.977 . S
Zn5 O15 1.910 . S
O6 Zn3 1.933 . S
O6 C17 1.226 . S
O7 Zn5 1.932 . S
O7 C17 1.307 . S
O8 Zn1 1.919 . S
O8 C19 1.253 . S
O9 Zn3 1.941 1_456 S
O9 C19 1.283 . S
O10 Zn3 1.965 1_455 S
O10 C18 1.303 . S
O11 Zn4 1.938 . S
O11 C18 1.247 . S
O12 Zn4 1.906 . S
O12 C20 1.304 . S
O13 Zn1 1.924 . S
O13 C21 1.311 1_556 S
O14 Zn5 1.977 . S
O14 C20 1.272 1_655 S
O15 Zn5 1.910 . S
O15 C21 1.231 1_655 S
C16 O0 1.225 1_554 S
C16 O22 1.298 . S
C17 O6 1.226 . S
C17 O7 1.307 . S
C18 O10 1.303 . S
C18 O11 1.247 . S
C19 O8 1.253 . S
C19 O9 1.283 . S
C20 O12 1.304 . S
C20 O14 1.272 1_455 S
C21 O13 1.311 1_554 S
C21 O15 1.231 1_455 S
O22 Zn4 1.953 . S
O22 C16 1.298 . S
O23 Zn24 1.953 . S
O23 C39 1.225 1_556 S
Zn24 O23 1.953 . S
Zn24 O25 1.949 1_556 S
Zn24 O31 1.919 . S
Zn24 O36 1.924 . S
O25 Zn24 1.949 1_554 S
O25 Zn26 1.923 1_655 S
O25 Zn27 1.950 . S
O25 Zn28 1.945 1_655 S
Zn26 O25 1.923 1_455 S
Zn26 O29 1.933 . S
Zn26 O32 1.941 1_454 S
Zn26 O33 1.965 1_455 S
Zn27 O25 1.950 . S
Zn27 O34 1.938 . S
Zn27 O35 1.906 . S
Zn27 O45 1.953 . S
Zn28 O25 1.945 1_455 S
Zn28 O30 1.932 . S
Zn28 O37 1.977 . S
Zn28 O38 1.910 . S
O29 Zn26 1.933 . S
O29 C40 1.226 . S
O30 Zn28 1.932 . S
O30 C40 1.307 . S
O31 Zn24 1.919 . S
O31 C42 1.253 . S
O32 Zn26 1.941 1_656 S
O32 C42 1.283 . S
O33 Zn26 1.965 1_655 S
O33 C41 1.303 . S
O34 Zn27 1.938 . S
O34 C41 1.247 . S
O35 Zn27 1.906 . S
O35 C43 1.304 . S
O36 Zn24 1.924 . S
O36 C44 1.311 1_556 S
O37 Zn28 1.977 . S
O37 C43 1.272 1_455 S
O38 Zn28 1.910 . S
O38 C44 1.231 1_455 S
C39 O23 1.225 1_554 S
C39 O45 1.298 . S
C40 O29 1.226 . S
C40 O30 1.307 . S
C41 O33 1.303 . S
C41 O34 1.247 . S
C42 O31 1.253 . S
C42 O32 1.283 . S
C43 O35 1.304 . S
C43 O37 1.272 1_655 S
C44 O36 1.311 1_554 S
C44 O38 1.231 1_655 S
O45 Zn27 1.953 . S
O45 C39 1.298 . S
O46 Zn47 1.953 . S
O46 C62 1.225 . S
Zn47 O46 1.953 . S
Zn47 O48 1.949 . S
Zn47 O54 1.919 . S
Zn47 O59 1.924 . S
O48 Zn47 1.949 . S
O48 Zn49 1.923 1_455 S
O48 Zn50 1.950 . S
O48 Zn51 1.945 1_455 S
Zn49 O48 1.923 1_655 S
Zn49 O52 1.933 . S
Zn49 O55 1.941 1_655 S
Zn49 O56 1.965 1_655 S
Zn50 O48 1.950 . S
Zn50 O57 1.938 . S
Zn50 O58 1.906 . S
Zn50 O68 1.953 . S
Zn51 O48 1.945 1_655 S
Zn51 O53 1.932 . S
Zn51 O60 1.977 . S
Zn51 O61 1.910 . S
O52 Zn49 1.933 . S
O52 C63 1.226 . S
O53 Zn51 1.932 . S
O53 C63 1.307 . S
O54 Zn47 1.919 . S
O54 C65 1.253 . S
O55 Zn49 1.941 1_455 S
O55 C65 1.283 . S
O56 Zn49 1.965 1_455 S
O56 C64 1.303 . S
O57 Zn50 1.938 . S
O57 C64 1.247 . S
O58 Zn50 1.906 . S
O58 C66 1.304 . S
O59 Zn47 1.924 . S
O59 C67 1.311 . S
O60 Zn51 1.977 . S
O60 C66 1.272 1_655 S
O61 Zn51 1.910 . S
O61 C67 1.231 1_655 S
C62 O46 1.225 . S
C62 O68 1.298 . S
C63 O52 1.226 . S
C63 O53 1.307 . S
C64 O56 1.303 . S
C64 O57 1.247 . S
C65 O54 1.253 . S
C65 O55 1.283 . S
C66 O58 1.304 . S
C66 O60 1.272 1_455 S
C67 O59 1.311 . S
C67 O61 1.231 1_455 S
O68 Zn50 1.953 . S
O68 C62 1.298 . S
O69 Zn70 1.953 . S
O69 C85 1.225 . S
Zn70 O69 1.953 . S
Zn70 O71 1.949 . S
Zn70 O77 1.919 . S
Zn70 O82 1.924 . S
O71 Zn70 1.949 . S
O71 Zn72 1.923 1_655 S
O71 Zn73 1.950 . S
O71 Zn74 1.945 1_655 S
Zn72 O71 1.923 1_455 S
Zn72 O75 1.933 . S
Zn72 O78 1.941 1_455 S
Zn72 O79 1.965 1_455 S
Zn73 O71 1.950 . S
Zn73 O80 1.938 . S
Zn73 O81 1.906 . S
Zn73 O91 1.953 . S
Zn74 O71 1.945 1_455 S
Zn74 O76 1.932 . S
Zn74 O83 1.977 . S
Zn74 O84 1.910 . S
O75 Zn72 1.933 . S
O75 C86 1.226 . S
O76 Zn74 1.932 . S
O76 C86 1.307 . S
O77 Zn70 1.919 . S
O77 C88 1.253 . S
O78 Zn72 1.941 1_655 S
O78 C88 1.283 . S
O79 Zn72 1.965 1_655 S
O79 C87 1.303 . S
O80 Zn73 1.938 . S
O80 C87 1.247 . S
O81 Zn73 1.906 . S
O81 C89 1.304 . S
O82 Zn70 1.924 . S
O82 C90 1.311 . S
O83 Zn74 1.977 . S
O83 C89 1.272 1_455 S
O84 Zn74 1.910 . S
O84 C90 1.231 1_455 S
C85 O69 1.225 . S
C85 O91 1.298 . S
C86 O75 1.226 . S
C86 O76 1.307 . S
C87 O79 1.303 . S
C87 O80 1.247 . S
C88 O77 1.253 . S
C88 O78 1.283 . S
C89 O81 1.304 . S
C89 O83 1.272 1_655 S
C90 O82 1.311 . S
C90 O84 1.231 1_655 S
O91 Zn73 1.953 . S
O91 C85 1.298 . S
O92 Zn93 1.953 . S
O92 C108 1.225 1_556 S
Zn93 O92 1.953 . S
Zn93 O94 1.949 1_556 S
Zn93 O100 1.919 . S
Zn93 O105 1.924 . S
O94 Zn93 1.949 1_554 S
O94 Zn95 1.923 . S
O94 Zn96 1.950 . S
O94 Zn97 1.945 . S
Zn95 O94 1.923 . S
Zn95 O98 1.933 . S
Zn95 O101 1.941 1_554 S
Zn95 O102 1.965 . S
Zn96 O94 1.950 . S
Zn96 O103 1.938 . S
Zn96 O104 1.906 . S
Zn96 O114 1.953 . S
Zn97 O94 1.945 . S
Zn97 O99 1.932 . S
Zn97 O106 1.977 . S
Zn97 O107 1.910 . S
O98 Zn95 1.933 . S
O98 C109 1.226 . S
O99 Zn97 1.932 . S
O99 C109 1.307 . S
O100 Zn93 1.919 . S
O100 C111 1.253 . S
O101 Zn95 1.941 1_556 S
O101 C111 1.283 . S
O102 Zn95 1.965 . S
O102 C110 1.303 . S
O103 Zn96 1.938 . S
O103 C110 1.247 . S
O104 Zn96 1.906 . S
O104 C112 1.304 . S
O105 Zn93 1.924 . S
O105 C113 1.311 1_556 S
O106 Zn97 1.977 . S
O106 C112 1.272 . S
O107 Zn97 1.910 . S
O107 C113 1.231 . S
C108 O92 1.225 1_554 S
C108 O114 1.298 . S
C109 O98 1.226 . S
C109 O99 1.307 . S
C110 O102 1.303 . S
C110 O103 1.247 . S
C111 O100 1.253 . S
C111 O101 1.283 . S
C112 O104 1.304 . S
C112 O106 1.272 . S
C113 O105 1.311 1_554 S
C113 O107 1.231 . S
O114 Zn96 1.953 . S
O114 C108 1.298 . S
O115 Zn116 1.953 . S
O115 C131 1.225 1_556 S
Zn116 O115 1.953 . S
Zn116 O117 1.949 1_556 S
Zn116 O123 1.919 . S
Zn116 O128 1.924 . S
O117 Zn116 1.949 1_554 S
O117 Zn118 1.923 . S
O117 Zn119 1.950 . S
O117 Zn120 1.945 . S
Zn118 O117 1.923 . S
Zn118 O121 1.933 . S
Zn118 O124 1.941 1_554 S
Zn118 O125 1.965 . S
Zn119 O117 1.950 . S
Zn119 O126 1.938 . S
Zn119 O127 1.906 . S
Zn119 O137 1.953 . S
Zn120 O117 1.945 . S
Zn120 O122 1.932 . S
Zn120 O129 1.977 . S
Zn120 O130 1.910 . S
O121 Zn118 1.933 . S
O121 C132 1.226 . S
O122 Zn120 1.932 . S
O122 C132 1.307 . S
O123 Zn116 1.919 . S
O123 C134 1.253 . S
O124 Zn118 1.941 1_556 S
O124 C134 1.283 . S
O125 Zn118 1.965 . S
O125 C133 1.303 . S
O126 Zn119 1.938 . S
O126 C133 1.247 . S
O127 Zn119 1.906 . S
O127 C135 1.304 . S
O128 Zn116 1.924 . S
O128 C136 1.311 1_556 S
O129 Zn120 1.977 . S
O129 C135 1.272 . S
O130 Zn120 1.910 . S
O130 C136 1.231 . S
C131 O115 1.225 1_554 S
C131 O137 1.298 . S
C132 O121 1.226 . S
C132 O122 1.307 . S
C133 O125 1.303 . S
C133 O126 1.247 . S
C134 O123 1.253 . S
C134 O124 1.283 . S
C135 O127 1.304 . S
C135 O129 1.272 . S
C136 O128 1.311 1_554 S
C136 O130 1.231 . S
O137 Zn119 1.953 . S
O137 C131 1.298 . S
O138 Zn139 1.953 . S
O138 C154 1.225 . S
Zn139 O138 1.953 . S
Zn139 O140 1.949 . S
Zn139 O146 1.919 . S
Zn139 O151 1.924 . S
O140 Zn139 1.949 . S
O140 Zn141 1.923 . S
O140 Zn142 1.950 . S
O140 Zn143 1.945 . S
Zn141 O140 1.923 . S
Zn141 O144 1.933 . S
Zn141 O147 1.941 . S
Zn141 O148 1.965 . S
Zn142 O140 1.950 . S
Zn142 O149 1.938 . S
Zn142 O150 1.906 . S
Zn142 O160 1.953 . S
Zn143 O140 1.945 . S
Zn143 O145 1.932 . S
Zn143 O152 1.977 . S
Zn143 O153 1.910 . S
O144 Zn141 1.933 . S
O144 C155 1.226 . S
O145 Zn143 1.932 . S
O145 C155 1.307 . S
O146 Zn139 1.919 . S
O146 C157 1.253 . S
O147 Zn141 1.941 . S
O147 C157 1.283 . S
O148 Zn141 1.965 . S
O148 C156 1.303 . S
O149 Zn142 1.938 . S
O149 C156 1.247 . S
O150 Zn142 1.906 . S
O150 C158 1.304 . S
O151 Zn139 1.924 . S
O151 C159 1.311 . S
O152 Zn143 1.977 . S
O152 C158 1.272 . S
O153 Zn143 1.910 . S
O153 C159 1.231 . S
C154 O138 1.225 . S
C154 O160 1.298 . S
C155 O144 1.226 . S
C155 O145 1.307 . S
C156 O148 1.303 . S
C156 O149 1.247 . S
C157 O146 1.253 . S
C157 O147 1.283 . S
C158 O150 1.304 . S
C158 O152 1.272 . S
C159 O151 1.311 . S
C159 O153 1.231 . S
O160 Zn142 1.953 . S
O160 C154 1.298 . S
O161 Zn162 1.953 . S
O161 C177 1.225 . S
Zn162 O161 1.953 . S
Zn162 O163 1.949 . S
Zn162 O169 1.919 . S
Zn162 O174 1.924 . S
O163 Zn162 1.949 . S
O163 Zn164 1.923 . S
O163 Zn165 1.950 . S
O163 Zn166 1.945 . S
Zn164 O163 1.923 . S
Zn164 O167 1.933 . S
Zn164 O170 1.941 . S
Zn164 O171 1.965 . S
Zn165 O163 1.950 . S
Zn165 O172 1.938 . S
Zn165 O173 1.906 . S
Zn165 O183 1.953 . S
Zn166 O163 1.945 . S
Zn166 O168 1.932 . S
Zn166 O175 1.977 . S
Zn166 O176 1.910 . S
O167 Zn164 1.933 . S
O167 C178 1.226 . S
O168 Zn166 1.932 . S
O168 C178 1.307 . S
O169 Zn162 1.919 . S
O169 C180 1.253 . S
O170 Zn164 1.941 . S
O170 C180 1.283 . S
O171 Zn164 1.965 . S
O171 C179 1.303 . S
O172 Zn165 1.938 . S
O172 C179 1.247 . S
O173 Zn165 1.906 . S
O173 C181 1.304 . S
O174 Zn162 1.924 . S
O174 C182 1.311 . S
O175 Zn166 1.977 . S
O175 C181 1.272 . S
O176 Zn166 1.910 . S
O176 C182 1.231 . S
C177 O161 1.225 . S
C177 O183 1.298 . S
C178 O167 1.226 . S
C178 O168 1.307 . S
C179 O171 1.303 . S
C179 O172 1.247 . S
C180 O169 1.253 . S
C180 O170 1.283 . S
C181 O173 1.304 . S
C181 O175 1.272 . S
C182 O174 1.311 . S
C182 O176 1.231 . S
O183 Zn165 1.953 . S
O183 C177 1.298 . S
H184 C190 0.930 . S
H185 C193 0.930 . S
H186 C194 0.930 . S
H187 C195 0.930 . S
H188 C198 0.930 . S
H189 C199 0.930 . S
C190 H184 0.930 . S
C190 C191 1.355 . S
C190 C192 1.415 . S
C191 C190 1.355 . S
C191 C193 1.419 . S
C192 C190 1.415 . S
C192 C197 1.425 . S
C192 C199 1.409 . S
C193 H185 0.930 . S
C193 C191 1.419 . S
C193 C194 1.362 . S
C194 H186 0.930 . S
C194 C193 1.362 . S
C194 C197 1.409 . S
C195 H187 0.930 . S
C195 C196 1.355 . S
C195 C197 1.415 . S
C196 C195 1.355 . S
C196 C198 1.419 . S
C197 C192 1.425 . S
C197 C194 1.409 . S
C197 C195 1.415 . S
C198 H188 0.930 . S
C198 C196 1.419 . S
C198 C199 1.362 . S
C199 H189 0.930 . S
C199 C192 1.409 . S
C199 C198 1.362 . S
H200 C206 0.930 . S
H201 C209 0.930 . S
H202 C210 0.930 . S
H203 C211 0.930 . S
H204 C214 0.930 . S
H205 C215 0.930 . S
C206 H200 0.930 . S
C206 C207 1.355 . S
C206 C208 1.415 . S
C207 C206 1.355 . S
C207 C209 1.419 . S
C208 C206 1.415 . S
C208 C213 1.425 . S
C208 C215 1.409 . S
C209 H201 0.930 . S
C209 C207 1.419 . S
C209 C210 1.362 . S
C210 H202 0.930 . S
C210 C209 1.362 . S
C210 C213 1.409 . S
C211 H203 0.930 . S
C211 C212 1.355 . S
C211 C213 1.415 . S
C212 C211 1.355 . S
C212 C214 1.419 . S
C213 C208 1.425 . S
C213 C210 1.409 . S
C213 C211 1.415 . S
C214 H204 0.930 . S
C214 C212 1.419 . S
C214 C215 1.362 . S
C215 H205 0.930 . S
C215 C208 1.409 . S
C215 C214 1.362 . S
H216 C222 0.930 . S
H217 C225 0.930 . S
H218 C226 0.930 . S
H219 C227 0.930 . S
H220 C230 0.930 . S
H221 C231 0.930 . S
C222 H216 0.930 . S
C222 C223 1.355 . S
C222 C224 1.415 . S
C223 C222 1.355 . S
C223 C225 1.419 . S
C224 C222 1.415 . S
C224 C229 1.425 . S
C224 C231 1.409 . S
C225 H217 0.930 . S
C225 C223 1.419 . S
C225 C226 1.362 . S
C226 H218 0.930 . S
C226 C225 1.362 . S
C226 C229 1.409 . S
C227 H219 0.930 . S
C227 C228 1.355 . S
C227 C229 1.415 . S
C228 C227 1.355 . S
C228 C230 1.419 . S
C229 C224 1.425 . S
C229 C226 1.409 . S
C229 C227 1.415 . S
C230 H220 0.930 . S
C230 C228 1.419 . S
C230 C231 1.362 . S
C231 H221 0.930 . S
C231 C224 1.409 . S
C231 C230 1.362 . S
H232 C238 0.930 . S
H233 C241 0.930 . S
H234 C242 0.930 . S
H235 C243 0.930 . S
H236 C246 0.930 . S
H237 C247 0.930 . S
C238 H232 0.930 . S
C238 C239 1.355 . S
C238 C240 1.415 . S
C239 C238 1.355 . S
C239 C241 1.419 . S
C240 C238 1.415 . S
C240 C245 1.425 . S
C240 C247 1.409 . S
C241 H233 0.930 . S
C241 C239 1.419 . S
C241 C242 1.362 . S
C242 H234 0.930 . S
C242 C241 1.362 . S
C242 C245 1.409 . S
C243 H235 0.930 . S
C243 C244 1.355 . S
C243 C245 1.415 . S
C244 C243 1.355 . S
C244 C246 1.419 . S
C245 C240 1.425 . S
C245 C242 1.409 . S
C245 C243 1.415 . S
C246 H236 0.930 . S
C246 C244 1.419 . S
C246 C247 1.362 . S
C247 H237 0.930 . S
C247 C240 1.409 . S
C247 C246 1.362 . S
H248 C254 0.930 . S
H249 C257 0.930 . S
H250 C258 0.930 . S
H251 C259 0.930 . S
H252 C262 0.930 . S
H253 C263 0.930 . S
C254 H248 0.930 . S
C254 C255 1.355 . S
C254 C256 1.415 1_655 S
C255 C254 1.355 . S
C255 C257 1.419 . S
C256 C254 1.415 1_455 S
C256 C261 1.425 . S
C256 C263 1.409 . S
C257 H249 0.930 . S
C257 C255 1.419 . S
C257 C258 1.362 1_655 S
C258 H250 0.930 . S
C258 C257 1.362 1_455 S
C258 C261 1.409 . S
C259 H251 0.930 . S
C259 C260 1.355 . S
C259 C261 1.415 . S
C260 C259 1.355 . S
C260 C262 1.419 . S
C261 C256 1.425 . S
C261 C258 1.409 . S
C261 C259 1.415 . S
C262 H252 0.930 . S
C262 C260 1.419 . S
C262 C263 1.362 . S
C263 H253 0.930 . S
C263 C256 1.409 . S
C263 C262 1.362 . S
H264 C270 0.930 . S
H265 C273 0.930 . S
H266 C274 0.930 . S
H267 C275 0.930 . S
H268 C278 0.930 1_556 S
H269 C279 0.930 1_556 S
C270 H264 0.930 . S
C270 C271 1.355 . S
C270 C272 1.415 1_455 S
C271 C270 1.355 . S
C271 C273 1.419 . S
C272 C270 1.415 1_655 S
C272 C277 1.425 . S
C272 C279 1.409 . S
C273 H265 0.930 . S
C273 C271 1.419 . S
C273 C274 1.362 1_455 S
C274 H266 0.930 . S
C274 C273 1.362 1_655 S
C274 C277 1.409 . S
C275 H267 0.930 . S
C275 C276 1.355 . S
C275 C277 1.415 . S
C276 C275 1.355 . S
C276 C278 1.419 . S
C277 C272 1.425 . S
C277 C274 1.409 . S
C277 C275 1.415 . S
C278 H268 0.930 1_554 S
C278 C276 1.419 . S
C278 C279 1.362 . S
C279 H269 0.930 1_554 S
C279 C272 1.409 . S
C279 C278 1.362 . S
H280 C286 0.930 . S
H281 C289 0.930 . S
H282 C290 0.930 . S
H283 C291 0.930 . S
H284 C294 0.930 . S
H285 C295 0.930 . S
C286 H280 0.930 . S
C286 C287 1.355 . S
C286 C288 1.415 . S
C287 C286 1.355 . S
C287 C289 1.419 . S
C288 C286 1.415 . S
C288 C293 1.425 . S
C288 C295 1.409 . S
C289 H281 0.930 . S
C289 C287 1.419 . S
C289 C290 1.362 . S
C290 H282 0.930 . S
C290 C289 1.362 . S
C290 C293 1.409 . S
C291 H283 0.930 . S
C291 C292 1.355 . S
C291 C293 1.415 1_655 S
C292 C291 1.355 . S
C292 C294 1.419 . S
C293 C288 1.425 . S
C293 C290 1.409 . S
C293 C291 1.415 1_455 S
C294 H284 0.930 . S
C294 C292 1.419 . S
C294 C295 1.362 1_655 S
C295 H285 0.930 . S
C295 C288 1.409 . S
C295 C294 1.362 1_455 S
H296 C302 0.930 . S
H297 C305 0.930 . S
H298 C306 0.930 . S
H299 C307 0.930 . S
H300 C310 0.930 . S
H301 C311 0.930 . S
C302 H296 0.930 . S
C302 C303 1.355 . S
C302 C304 1.415 . S
C303 C302 1.355 . S
C303 C305 1.419 . S
C304 C302 1.415 . S
C304 C309 1.425 . S
C304 C311 1.409 . S
C305 H297 0.930 . S
C305 C303 1.419 . S
C305 C306 1.362 . S
C306 H298 0.930 . S
C306 C305 1.362 . S
C306 C309 1.409 . S
C307 H299 0.930 . S
C307 C308 1.355 . S
C307 C309 1.415 1_455 S
C308 C307 1.355 . S
C308 C310 1.419 . S
C309 C304 1.425 . S
C309 C306 1.409 . S
C309 C307 1.415 1_655 S
C310 H300 0.930 . S
C310 C308 1.419 . S
C310 C311 1.362 1_455 S
C311 H301 0.930 . S
C311 C304 1.409 . S
C311 C310 1.362 1_655 S
H312 C318 0.930 . S
H313 C321 0.930 . S
H314 C322 0.930 . S
H315 C323 0.930 . S
H316 C326 0.930 . S
H317 C327 0.930 . S
C318 H312 0.930 . S
C318 C319 1.355 . S
C318 C320 1.415 . S
C319 C318 1.355 . S
C319 C321 1.419 1_655 S
C320 C318 1.415 . S
C320 C325 1.425 1_655 S
C320 C327 1.409 . S
C321 H313 0.930 . S
C321 C319 1.419 1_455 S
C321 C322 1.362 . S
C322 H314 0.930 . S
C322 C321 1.362 . S
C322 C325 1.409 . S
C323 H315 0.930 . S
C323 C324 1.355 . S
C323 C325 1.415 . S
C324 C323 1.355 . S
C324 C326 1.419 1_455 S
C325 C320 1.425 1_455 S
C325 C322 1.409 . S
C325 C323 1.415 . S
C326 H316 0.930 . S
C326 C324 1.419 1_655 S
C326 C327 1.362 . S
C327 H317 0.930 . S
C327 C320 1.409 . S
C327 C326 1.362 . S
H328 C334 0.930 1_455 S
H329 C337 0.930 . S
H330 C338 0.930 . S
H331 C339 0.930 1_655 S
H332 C342 0.930 . S
H333 C343 0.930 . S
C334 H328 0.930 1_655 S
C334 C335 1.355 . S
C334 C336 1.415 1_655 S
C335 C334 1.355 . S
C335 C337 1.419 . S
C336 C334 1.415 1_455 S
C336 C341 1.425 1_455 S
C336 C343 1.409 . S
C337 H329 0.930 . S
C337 C335 1.419 . S
C337 C338 1.362 . S
C338 H330 0.930 . S
C338 C337 1.362 . S
C338 C341 1.409 . S
C339 H331 0.930 1_455 S
C339 C340 1.355 . S
C339 C341 1.415 1_455 S
C340 C339 1.355 . S
C340 C342 1.419 . S
C341 C336 1.425 1_655 S
C341 C338 1.409 . S
C341 C339 1.415 1_655 S
C342 H332 0.930 . S
C342 C340 1.419 . S
C342 C343 1.362 . S
C343 H333 0.930 . S
C343 C336 1.409 . S
C343 C342 1.362 . S
H344 C350 0.930 1_556 S
H345 C353 0.930 . S
H346 C354 0.930 . S
H347 C355 0.930 . S
H348 C358 0.930 . S
H349 C359 0.930 . S
C350 H344 0.930 1_554 S
C350 C351 1.355 . S
C350 C352 1.415 . S
C351 C350 1.355 . S
C351 C353 1.419 . S
C352 C350 1.415 . S
C352 C357 1.425 1_565 S
C352 C359 1.409 1_564 S
C353 H345 0.930 . S
C353 C351 1.419 . S
C353 C354 1.362 . S
C354 H346 0.930 . S
C354 C353 1.362 . S
C354 C357 1.409 1_565 S
C355 H347 0.930 . S
C355 C356 1.355 . S
C355 C357 1.415 . S
C356 C355 1.355 . S
C356 C358 1.419 1_554 S
C357 C352 1.425 1_545 S
C357 C354 1.409 1_545 S
C357 C355 1.415 . S
C358 H348 0.930 . S
C358 C356 1.419 1_556 S
C358 C359 1.362 . S
C359 H349 0.930 . S
C359 C352 1.409 1_546 S
C359 C358 1.362 . S
H360 C366 0.930 . S
H361 C369 0.930 . S
H362 C370 0.930 . S
H363 C371 0.930 . S
H364 C374 0.930 . S
H365 C375 0.930 . S
C366 H360 0.930 . S
C366 C367 1.355 . S
C366 C368 1.415 . S
C367 C366 1.355 . S
C367 C369 1.419 . S
C368 C366 1.415 . S
C368 C373 1.425 1_545 S
C368 C375 1.409 1_545 S
C369 H361 0.930 . S
C369 C367 1.419 . S
C369 C370 1.362 . S
C370 H362 0.930 . S
C370 C369 1.362 . S
C370 C373 1.409 1_545 S
C371 H363 0.930 . S
C371 C372 1.355 . S
C371 C373 1.415 . S
C372 C371 1.355 . S
C372 C374 1.419 . S
C373 C368 1.425 1_565 S
C373 C370 1.409 1_565 S
C373 C371 1.415 . S
C374 H364 0.930 . S
C374 C372 1.419 . S
C374 C375 1.362 . S
C375 H365 0.930 . S
C375 C368 1.409 1_565 S
C375 C374 1.362 . S
H376 C382 0.930 . S
H377 C385 0.930 1_556 S
H378 C386 0.930 1_556 S
H379 C387 0.930 1_556 S
H380 C390 0.930 . S
H381 C391 0.930 . S
C382 H376 0.930 . S
C382 C383 1.355 . S
C382 C384 1.415 . S
C383 C382 1.355 . S
C383 C385 1.419 . S
C384 C382 1.415 . S
C384 C389 1.425 . S
C384 C391 1.409 . S
C385 H377 0.930 1_554 S
C385 C383 1.419 . S
C385 C386 1.362 . S
C386 H378 0.930 1_554 S
C386 C385 1.362 . S
C386 C389 1.409 . S
C387 H379 0.930 1_554 S
C387 C388 1.355 . S
C387 C389 1.415 . S
C388 C387 1.355 . S
C388 C390 1.419 . S
C389 C384 1.425 . S
C389 C386 1.409 . S
C389 C387 1.415 . S
C390 H380 0.930 . S
C390 C388 1.419 . S
C390 C391 1.362 . S
C391 H381 0.930 . S
C391 C384 1.409 . S
C391 C390 1.362 . S
H392 C398 0.930 . S
H393 C401 0.930 . S
H394 C402 0.930 . S
H395 C403 0.930 . S
H396 C406 0.930 . S
H397 C407 0.930 . S
C398 H392 0.930 . S
C398 C399 1.355 . S
C398 C400 1.415 . S
C399 C398 1.355 . S
C399 C401 1.419 . S
C400 C398 1.415 . S
C400 C405 1.425 . S
C400 C407 1.409 . S
C401 H393 0.930 . S
C401 C399 1.419 . S
C401 C402 1.362 . S
C402 H394 0.930 . S
C402 C401 1.362 . S
C402 C405 1.409 . S
C403 H395 0.930 . S
C403 C404 1.355 . S
C403 C405 1.415 . S
C404 C403 1.355 . S
C404 C406 1.419 . S
C405 C400 1.425 . S
C405 C402 1.409 . S
C405 C403 1.415 . S
C406 H396 0.930 . S
C406 C404 1.419 . S
C406 C407 1.362 . S
C407 H397 0.930 . S
C407 C400 1.409 . S
C407 C406 1.362 . S
H408 C414 0.930 . S
H409 C417 0.930 . S
H410 C418 0.930 . S
H411 C419 0.930 . S
H412 C422 0.930 . S
H413 C423 0.930 . S
C414 H408 0.930 . S
C414 C415 1.355 . S
C414 C416 1.415 . S
C415 C414 1.355 . S
C415 C417 1.419 . S
C416 C414 1.415 . S
C416 C421 1.425 . S
C416 C423 1.409 . S
C417 H409 0.930 . S
C417 C415 1.419 . S
C417 C418 1.362 . S
C418 H410 0.930 . S
C418 C417 1.362 . S
C418 C421 1.409 . S
C419 H411 0.930 . S
C419 C420 1.355 . S
C419 C421 1.415 . S
C420 C419 1.355 . S
C420 C422 1.419 . S
C421 C416 1.425 . S
C421 C418 1.409 . S
C421 C419 1.415 . S
C422 H412 0.930 . S
C422 C420 1.419 . S
C422 C423 1.362 . S
C423 H413 0.930 . S
C423 C416 1.409 . S
C423 C422 1.362 . S
H424 C430 0.930 . S
H425 C433 0.930 . S
H426 C434 0.930 . S
H427 C435 0.930 . S
H428 C438 0.930 . S
H429 C439 0.930 . S
C430 H424 0.930 . S
C430 C431 1.355 . S
C430 C432 1.415 . S
C431 C430 1.355 . S
C431 C433 1.419 . S
C432 C430 1.415 . S
C432 C437 1.425 . S
C432 C439 1.409 . S
C433 H425 0.930 . S
C433 C431 1.419 . S
C433 C434 1.362 . S
C434 H426 0.930 . S
C434 C433 1.362 . S
C434 C437 1.409 . S
C435 H427 0.930 . S
C435 C436 1.355 . S
C435 C437 1.415 . S
C436 C435 1.355 . S
C436 C438 1.419 . S
C437 C432 1.425 . S
C437 C434 1.409 . S
C437 C435 1.415 . S
C438 H428 0.930 . S
C438 C436 1.419 . S
C438 C439 1.362 . S
C439 H429 0.930 . S
C439 C432 1.409 . S
C439 C438 1.362 . S
H440 C446 0.930 . S
H441 C449 0.930 . S
H442 C450 0.930 . S
H443 C451 0.930 . S
H444 C454 0.930 . S
H445 C455 0.930 . S
C446 H440 0.930 . S
C446 C447 1.355 1_655 S
C446 C448 1.415 . S
C447 C446 1.355 1_455 S
C447 C449 1.419 . S
C448 C446 1.415 . S
C448 C453 1.425 1_655 S
C448 C455 1.409 . S
C449 H441 0.930 . S
C449 C447 1.419 . S
C449 C450 1.362 . S
C450 H442 0.930 . S
C450 C449 1.362 . S
C450 C453 1.409 . S
C451 H443 0.930 . S
C451 C452 1.355 1_455 S
C451 C453 1.415 . S
C452 C451 1.355 1_655 S
C452 C454 1.419 . S
C453 C448 1.425 1_455 S
C453 C450 1.409 . S
C453 C451 1.415 . S
C454 H444 0.930 . S
C454 C452 1.419 . S
C454 C455 1.362 . S
C455 H445 0.930 . S
C455 C448 1.409 . S
C455 C454 1.362 . S
H456 C462 0.930 . S
H457 C465 0.930 . S
H458 C466 0.930 . S
H459 C467 0.930 . S
H460 C470 0.930 . S
H461 C471 0.930 . S
C462 H456 0.930 . S
C462 C463 1.355 . S
C462 C464 1.415 . S
C463 C462 1.355 . S
C463 C465 1.419 1_655 S
C464 C462 1.415 . S
C464 C469 1.425 1_655 S
C464 C471 1.409 . S
C465 H457 0.930 . S
C465 C463 1.419 1_455 S
C465 C466 1.362 . S
C466 H458 0.930 . S
C466 C465 1.362 . S
C466 C469 1.409 . S
C467 H459 0.930 . S
C467 C468 1.355 . S
C467 C469 1.415 . S
C468 C467 1.355 . S
C468 C470 1.419 1_455 S
C469 C464 1.425 1_455 S
C469 C466 1.409 . S
C469 C467 1.415 . S
C470 H460 0.930 . S
C470 C468 1.419 1_655 S
C470 C471 1.362 . S
C471 H461 0.930 . S
C471 C464 1.409 . S
C471 C470 1.362 . S
H472 C478 0.930 . S
H473 C481 0.930 . S
H474 C482 0.930 . S
H475 C483 0.930 . S
H476 C486 0.930 . S
H477 C487 0.930 . S
C478 H472 0.930 . S
C478 C479 1.355 1_455 S
C478 C480 1.415 . S
C479 C478 1.355 1_655 S
C479 C481 1.419 . S
C480 C478 1.415 . S
C480 C485 1.425 1_455 S
C480 C487 1.409 . S
C481 H473 0.930 . S
C481 C479 1.419 . S
C481 C482 1.362 . S
C482 H474 0.930 . S
C482 C481 1.362 . S
C482 C485 1.409 . S
C483 H475 0.930 . S
C483 C484 1.355 1_655 S
C483 C485 1.415 . S
C484 C483 1.355 1_455 S
C484 C486 1.419 . S
C485 C480 1.425 1_655 S
C485 C482 1.409 . S
C485 C483 1.415 . S
C486 H476 0.930 . S
C486 C484 1.419 . S
C486 C487 1.362 . S
C487 H477 0.930 . S
C487 C480 1.409 . S
C487 C486 1.362 . S
H488 C494 0.930 . S
H489 C497 0.930 . S
H490 C498 0.930 . S
H491 C499 0.930 . S
H492 C502 0.930 . S
H493 C503 0.930 . S
C494 H488 0.930 . S
C494 C495 1.355 . S
C494 C496 1.415 . S
C495 C494 1.355 . S
C495 C497 1.419 1_655 S
C496 C494 1.415 . S
C496 C501 1.425 1_655 S
C496 C503 1.409 . S
C497 H489 0.930 . S
C497 C495 1.419 1_455 S
C497 C498 1.362 . S
C498 H490 0.930 . S
C498 C497 1.362 . S
C498 C501 1.409 . S
C499 H491 0.930 . S
C499 C500 1.355 . S
C499 C501 1.415 . S
C500 C499 1.355 . S
C500 C502 1.419 1_455 S
C501 C496 1.425 1_455 S
C501 C498 1.409 . S
C501 C499 1.415 . S
C502 H492 0.930 . S
C502 C500 1.419 1_655 S
C502 C503 1.362 . S
C503 H493 0.930 . S
C503 C496 1.409 . S
C503 C502 1.362 . S
H504 C510 0.930 . S
H505 C513 0.930 . S
H506 C514 0.930 . S
H507 C515 0.930 . S
H508 C518 0.930 . S
H509 C519 0.930 . S
C510 H504 0.930 . S
C510 C511 1.355 . S
C510 C512 1.415 . S
C511 C510 1.355 . S
C511 C513 1.419 . S
C512 C510 1.415 . S
C512 C517 1.425 . S
C512 C519 1.409 . S
C513 H505 0.930 . S
C513 C511 1.419 . S
C513 C514 1.362 . S
C514 H506 0.930 . S
C514 C513 1.362 . S
C514 C517 1.409 . S
C515 H507 0.930 . S
C515 C516 1.355 . S
C515 C517 1.415 . S
C516 C515 1.355 . S
C516 C518 1.419 . S
C517 C512 1.425 . S
C517 C514 1.409 . S
C517 C515 1.415 . S
C518 H508 0.930 . S
C518 C516 1.419 . S
C518 C519 1.362 . S
C519 H509 0.930 . S
C519 C512 1.409 . S
C519 C518 1.362 . S
H520 C526 0.930 . S
H521 C529 0.930 . S
H522 C530 0.930 . S
H523 C531 0.930 . S
H524 C534 0.930 . S
H525 C535 0.930 . S
C526 H520 0.930 . S
C526 C527 1.355 . S
C526 C528 1.415 . S
C527 C526 1.355 . S
C527 C529 1.419 . S
C528 C526 1.415 . S
C528 C533 1.425 . S
C528 C535 1.409 . S
C529 H521 0.930 . S
C529 C527 1.419 . S
C529 C530 1.362 . S
C530 H522 0.930 . S
C530 C529 1.362 . S
C530 C533 1.409 . S
C531 H523 0.930 . S
C531 C532 1.355 . S
C531 C533 1.415 . S
C532 C531 1.355 . S
C532 C534 1.419 . S
C533 C528 1.425 . S
C533 C530 1.409 . S
C533 C531 1.415 . S
C534 H524 0.930 . S
C534 C532 1.419 . S
C534 C535 1.362 . S
C535 H525 0.930 . S
C535 C528 1.409 . S
C535 C534 1.362 . S
H536 C542 0.930 . S
H537 C545 0.930 . S
H538 C546 0.930 . S
H539 C547 0.930 . S
H540 C550 0.930 . S
H541 C551 0.930 . S
C542 H536 0.930 . S
C542 C543 1.355 . S
C542 C544 1.415 . S
C543 C542 1.355 . S
C543 C545 1.419 . S
C544 C542 1.415 . S
C544 C549 1.425 . S
C544 C551 1.409 . S
C545 H537 0.930 . S
C545 C543 1.419 . S
C545 C546 1.362 . S
C546 H538 0.930 . S
C546 C545 1.362 . S
C546 C549 1.409 . S
C547 H539 0.930 . S
C547 C548 1.355 . S
C547 C549 1.415 . S
C548 C547 1.355 . S
C548 C550 1.419 . S
C549 C544 1.425 . S
C549 C546 1.409 . S
C549 C547 1.415 . S
C550 H540 0.930 . S
C550 C548 1.419 . S
C550 C551 1.362 . S
C551 H541 0.930 . S
C551 C544 1.409 . S
C551 C550 1.362 . S
H552 C558 0.930 . S
H553 C561 0.930 . S
H554 C562 0.930 . S
H555 C563 0.930 . S
H556 C566 0.930 . S
H557 C567 0.930 . S
C558 H552 0.930 . S
C558 C559 1.355 . S
C558 C560 1.415 . S
C559 C558 1.355 . S
C559 C561 1.419 . S
C560 C558 1.415 . S
C560 C565 1.425 . S
C560 C567 1.409 . S
C561 H553 0.930 . S
C561 C559 1.419 . S
C561 C562 1.362 . S
C562 H554 0.930 . S
C562 C561 1.362 . S
C562 C565 1.409 . S
C563 H555 0.930 . S
C563 C564 1.355 . S
C563 C565 1.415 . S
C564 C563 1.355 . S
C564 C566 1.419 . S
C565 C560 1.425 . S
C565 C562 1.409 . S
C565 C563 1.415 . S
C566 H556 0.930 . S
C566 C564 1.419 . S
C566 C567 1.362 . S
C567 H557 0.930 . S
C567 C560 1.409 . S
C567 C566 1.362 . S
C191 C16 1.313 . S
C196 C17 1.319 . S
C207 C40 1.352 . S
C212 C39 1.352 . S
C223 C63 1.319 . S
C228 C62 1.312 . S
C239 C85 1.352 . S
C244 C86 1.353 . S
C255 C108 1.352 . S
C260 C109 1.353 . S
C271 C131 1.348 . S
C276 C132 1.350 . S
C287 C155 1.353 . S
C292 C154 1.353 . S
C303 C178 1.351 . S
C308 C177 1.350 . S
C319 C44 1.474 . S
C324 C21 1.471 . S
C335 C90 1.545 . S
C340 C67 1.531 . S
C351 C113 1.538 . S
C356 C136 1.521 . S
C367 C159 1.474 . S
C372 C182 1.486 . S
C383 C18 1.479 . S
C388 C133 1.472 . S
C399 C110 1.481 . S
C404 C41 1.465 . S
C415 C64 1.469 . S
C420 C179 1.476 . S
C431 C87 1.493 . S
C436 C156 1.456 . S
C447 C20 1.449 . S
C452 C89 1.421 . S
C463 C43 1.449 . S
C468 C66 1.471 . S
C479 C42 1.421 . S
C484 C65 1.413 . S
C495 C88 1.445 . S
C500 C19 1.434 . S
C511 C112 1.420 . S
C516 C181 1.445 . S
C527 C135 1.422 . S
C532 C158 1.451 . S
C543 C134 1.464 . S
C548 C157 1.466 . S
C559 C180 1.465 . S
C564 C111 1.461 . S
