# Generated by pormake.
# Topology umc, (4)-cn, num edge types: 1
# Building blocks:
#     Node 0, Type 0, BuildingBlock: GALJAG_clean_sbu_0, # of connection points: 4
#     Node 1, Type 0, BuildingBlock: GALJAG_clean_sbu_0, # of connection points: 4
#     Node 2, Type 0, BuildingBlock: GALJAG_clean_sbu_0, # of connection points: 4
#     Node 3, Type 0, BuildingBlock: GALJAG_clean_sbu_0, # of connection points: 4
#     Node 4, Type 0, BuildingBlock: GALJAG_clean_sbu_0, # of connection points: 4
#     Node 5, Type 0, BuildingBlock: GALJAG_clean_sbu_0, # of connection points: 4
#     Node 6, Type 0, BuildingBlock: GALJAG_clean_sbu_0, # of connection points: 4
#     Node 7, Type 0, BuildingBlock: GALJAG_clean_sbu_0, # of connection points: 4
#     Node 8, Type 0, BuildingBlock: GALJAG_clean_sbu_0, # of connection points: 4
#     Node 9, Type 0, BuildingBlock: GALJAG_clean_sbu_0, # of connection points: 4
#     Node 10, Type 0, BuildingBlock: GALJAG_clean_sbu_0, # of connection points: 4
#     Node 11, Type 0, BuildingBlock: GALJAG_clean_sbu_0, # of connection points: 4
#     Node 12, Type 0, BuildingBlock: GALJAG_clean_sbu_0, # of connection points: 4
#     Node 13, Type 0, BuildingBlock: GALJAG_clean_sbu_0, # of connection points: 4
#     Node 14, Type 0, BuildingBlock: GALJAG_clean_sbu_0, # of connection points: 4
#     Node 15, Type 0, BuildingBlock: GALJAG_clean_sbu_0, # of connection points: 4
#     Edge 16, Type (0, 0), BuildingBlock: XIVTED_clean_linker_0, # of connection points: 2
#     Edge 17, Type (0, 0), BuildingBlock: XIVTED_clean_linker_0, # of connection points: 2
#     Edge 18, Type (0, 0), BuildingBlock: XIVTED_clean_linker_0, # of connection points: 2
#     Edge 19, Type (0, 0), BuildingBlock: XIVTED_clean_linker_0, # of connection points: 2
#     Edge 20, Type (0, 0), BuildingBlock: XIVTED_clean_linker_0, # of connection points: 2
#     Edge 21, Type (0, 0), BuildingBlock: XIVTED_clean_linker_0, # of connection points: 2
#     Edge 22, Type (0, 0), BuildingBlock: XIVTED_clean_linker_0, # of connection points: 2
#     Edge 23, Type (0, 0), BuildingBlock: XIVTED_clean_linker_0, # of connection points: 2
#     Edge 24, Type (0, 0), BuildingBlock: XIVTED_clean_linker_0, # of connection points: 2
#     Edge 25, Type (0, 0), BuildingBlock: XIVTED_clean_linker_0, # of connection points: 2
#     Edge 26, Type (0, 0), BuildingBlock: XIVTED_clean_linker_0, # of connection points: 2
#     Edge 27, Type (0, 0), BuildingBlock: XIVTED_clean_linker_0, # of connection points: 2
#     Edge 28, Type (0, 0), BuildingBlock: XIVTED_clean_linker_0, # of connection points: 2
#     Edge 29, Type (0, 0), BuildingBlock: XIVTED_clean_linker_0, # of connection points: 2
#     Edge 30, Type (0, 0), BuildingBlock: XIVTED_clean_linker_0, # of connection points: 2
#     Edge 31, Type (0, 0), BuildingBlock: XIVTED_clean_linker_0, # of connection points: 2
#     Edge 32, Type (0, 0), BuildingBlock: XIVTED_clean_linker_0, # of connection points: 2
#     Edge 33, Type (0, 0), BuildingBlock: XIVTED_clean_linker_0, # of connection points: 2
#     Edge 34, Type (0, 0), BuildingBlock: XIVTED_clean_linker_0, # of connection points: 2
#     Edge 35, Type (0, 0), BuildingBlock: XIVTED_clean_linker_0, # of connection points: 2
#     Edge 36, Type (0, 0), BuildingBlock: XIVTED_clean_linker_0, # of connection points: 2
#     Edge 37, Type (0, 0), BuildingBlock: XIVTED_clean_linker_0, # of connection points: 2
#     Edge 38, Type (0, 0), BuildingBlock: XIVTED_clean_linker_0, # of connection points: 2
#     Edge 39, Type (0, 0), BuildingBlock: XIVTED_clean_linker_0, # of connection points: 2
#     Edge 40, Type (0, 0), BuildingBlock: XIVTED_clean_linker_0, # of connection points: 2
#     Edge 41, Type (0, 0), BuildingBlock: XIVTED_clean_linker_0, # of connection points: 2
#     Edge 42, Type (0, 0), BuildingBlock: XIVTED_clean_linker_0, # of connection points: 2
#     Edge 43, Type (0, 0), BuildingBlock: XIVTED_clean_linker_0, # of connection points: 2
#     Edge 44, Type (0, 0), BuildingBlock: XIVTED_clean_linker_0, # of connection points: 2
#     Edge 45, Type (0, 0), BuildingBlock: XIVTED_clean_linker_0, # of connection points: 2
#     Edge 46, Type (0, 0), BuildingBlock: XIVTED_clean_linker_0, # of connection points: 2
#     Edge 47, Type (0, 0), BuildingBlock: XIVTED_clean_linker_0, # of connection points: 2
# Relax obj value: 0.064
# Max RMSD: 0.131
# Mean RMSD: 0.131
data_MOF--net-umc--node1-GALJAG_clean_sbu_0--edge1-XIVTED_clean_linker_0
_symmetry_space_group_name_H-M    P1
_symmetry_Int_Tables_number       1
_symmetry_cell_setting            triclinic
loop_
_symmetry_equiv_pos_as_xyz
'x, y, z'
_cell_length_a     41.437785
_cell_length_b     38.169574
_cell_length_c     57.321666
_cell_angle_alpha  89.957185
_cell_angle_beta   90.002604
_cell_angle_gamma 89.915036
loop_
_atom_site_label
_atom_site_type_symbol
_atom_site_fract_x
_atom_site_fract_y
_atom_site_fract_z
_atom_type_partial_charge
In0 In 0.33152 0.06666 0.36139 0.0
O1 O 0.33582 0.12633 0.35929 0.0
O2 O 0.29069 0.10429 0.36935 0.0
C3 C 0.39161 0.04378 0.35156 0.0
C4 C 0.32768 0.04606 0.40617 0.0
C5 C 0.30206 0.04622 0.32198 0.0
O6 O 0.38533 0.07595 0.3545 0.0
O7 O 0.36758 0.02365 0.3532 0.0
O8 O 0.30045 0.02819 0.34049 0.0
O9 O 0.31816 0.07411 0.32363 0.0
C10 C 0.30674 0.13163 0.36507 0.0
O11 O 0.30644 0.03729 0.39143 0.0
O12 O 0.35006 0.06494 0.39823 0.0
In13 In 0.67635 0.92578 0.36489 0.0
O14 O 0.70076 0.95399 0.39573 0.0
O15 O 0.6565 0.92691 0.40134 0.0
C16 C 0.70617 0.94681 0.32572 0.0
C17 C 0.70027 0.86056 0.36936 0.0
C18 C 0.61693 0.94983 0.35425 0.0
O19 O 0.70803 0.96419 0.34448 0.0
O20 O 0.68989 0.91899 0.32705 0.0
O21 O 0.62301 0.91739 0.35589 0.0
O22 O 0.64081 0.96966 0.35766 0.0
C23 C 0.67887 0.9451 0.40996 0.0
O24 O 0.67103 0.86619 0.36415 0.0
O25 O 0.71709 0.88774 0.37235 0.0
In26 In 0.3235 0.94741 0.11952 0.0
O27 O 0.33141 0.88787 0.12017 0.0
O28 O 0.28463 0.90725 0.112 0.0
C29 C 0.38511 0.96738 0.12673 0.0
C30 C 0.31046 0.97306 0.07663 0.0
C31 C 0.29742 0.96695 0.16055 0.0
O32 O 0.37771 0.93625 0.12136 0.0
O33 O 0.36147 0.98811 0.12854 0.0
O34 O 0.29615 0.98633 0.14269 0.0
O35 O 0.31156 0.93807 0.15754 0.0
C36 C 0.30239 0.88085 0.11524 0.0
O37 O 0.28953 0.9725 0.09262 0.0
O38 O 0.3377 0.96118 0.08236 0.0
In39 In 0.67637 0.07146 0.12981 0.0
O40 O 0.67441 0.13067 0.13506 0.0
O41 O 0.71997 0.10692 0.12762 0.0
C42 C 0.61489 0.04909 0.13417 0.0
C43 C 0.6844 0.06314 0.08367 0.0
C44 C 0.70243 0.0453 0.16897 0.0
O45 O 0.6225 0.08099 0.13646 0.0
O46 O 0.63826 0.0288 0.13004 0.0
O47 O 0.70639 0.03033 0.14945 0.0
O48 O 0.6854 0.0727 0.16845 0.0
C49 C 0.70441 0.13473 0.13177 0.0
O50 O 0.69922 0.0437 0.09806 0.0
O51 O 0.66587 0.08556 0.09272 0.0
In52 In 0.67436 0.92444 0.62775 0.0
O53 O 0.69866 0.9531 0.59701 0.0
O54 O 0.65425 0.92635 0.59137 0.0
C55 C 0.70389 0.94584 0.66695 0.0
C56 C 0.6992 0.85972 0.62324 0.0
C57 C 0.61416 0.94604 0.63825 0.0
O58 O 0.70486 0.96374 0.64836 0.0
O59 O 0.68861 0.91741 0.66543 0.0
O60 O 0.62123 0.91392 0.63612 0.0
O61 O 0.63751 0.96684 0.63546 0.0
C62 C 0.67663 0.94459 0.5828 0.0
O63 O 0.67016 0.86485 0.62917 0.0
O64 O 0.71533 0.88715 0.61943 0.0
In65 In 0.32819 0.05812 0.62381 0.0
O66 O 0.33313 0.11756 0.62674 0.0
O67 O 0.28822 0.09663 0.61522 0.0
C68 C 0.38814 0.03696 0.63554 0.0
C69 C 0.32649 0.03871 0.57869 0.0
C70 C 0.29681 0.03511 0.66188 0.0
O71 O 0.38109 0.06897 0.6328 0.0
O72 O 0.36491 0.01605 0.63272 0.0
O73 O 0.2984 0.01697 0.64345 0.0
O74 O 0.31048 0.06452 0.66076 0.0
C75 C 0.30447 0.12355 0.62023 0.0
O76 O 0.30362 0.03135 0.59246 0.0
O77 O 0.34944 0.05549 0.58775 0.0
In78 In 0.67173 0.06766 0.86343 0.0
O79 O 0.6676 0.12648 0.85732 0.0
O80 O 0.71429 0.10466 0.86376 0.0
C81 C 0.61044 0.04417 0.86055 0.0
C82 C 0.68231 0.06191 0.90949 0.0
C83 C 0.69755 0.0416 0.82419 0.0
O84 O 0.61768 0.076 0.85747 0.0
O85 O 0.63411 0.02433 0.86479 0.0
O86 O 0.70248 0.02711 0.84377 0.0
O87 O 0.67957 0.06824 0.8247 0.0
C88 C 0.69762 0.13173 0.85963 0.0
O89 O 0.6958 0.04114 0.89526 0.0
O90 O 0.66373 0.08421 0.90036 0.0
In91 In 0.31975 0.93581 0.86542 0.0
O92 O 0.30065 0.97829 0.89038 0.0
O93 O 0.31013 0.92743 0.90391 0.0
C94 C 0.29755 0.95272 0.82277 0.0
C95 C 0.29571 0.87067 0.86522 0.0
C96 C 0.38241 0.95578 0.86437 0.0
O97 O 0.28753 0.96811 0.84092 0.0
O98 O 0.31869 0.92955 0.82628 0.0
O99 O 0.37423 0.92428 0.86759 0.0
O100 O 0.35917 0.97672 0.86184 0.0
C101 C 0.30069 0.95819 0.90788 0.0
O102 O 0.3258 0.8765 0.86572 0.0
O103 O 0.27803 0.89771 0.86502 0.0
In104 In 0.82176 0.55492 0.36892 0.0
O105 O 0.83311 0.53607 0.40551 0.0
O106 O 0.78526 0.52827 0.39329 0.0
C107 C 0.80087 0.53674 0.32622 0.0
C108 C 0.79876 0.62062 0.3744 0.0
C109 C 0.88446 0.53707 0.36478 0.0
O110 O 0.79764 0.51686 0.34368 0.0
O111 O 0.81436 0.56563 0.33041 0.0
O112 O 0.86164 0.51617 0.36046 0.0
O113 O 0.8757 0.56748 0.37094 0.0
C114 C 0.80525 0.52463 0.40971 0.0
O115 O 0.82851 0.61448 0.37167 0.0
O116 O 0.78114 0.59376 0.37479 0.0
In117 In 0.17718 0.43378 0.36476 0.0
O118 O 0.17388 0.37412 0.36385 0.0
O119 O 0.22044 0.3977 0.36155 0.0
C120 C 0.11443 0.45368 0.36496 0.0
C121 C 0.19687 0.44611 0.40858 0.0
C122 C 0.19763 0.4596 0.32378 0.0
O123 O 0.12302 0.42259 0.36065 0.0
O124 O 0.13734 0.47433 0.36929 0.0
O125 O 0.20414 0.47451 0.34289 0.0
O126 O 0.18086 0.4322 0.32549 0.0
C127 C 0.20411 0.36979 0.36223 0.0
O128 O 0.2038 0.46697 0.3922 0.0
O129 O 0.17973 0.42029 0.40284 0.0
In130 In 0.83505 0.43526 0.1218 0.0
O131 O 0.83905 0.37577 0.12534 0.0
O132 O 0.79221 0.39919 0.12579 0.0
C133 C 0.89695 0.45759 0.12018 0.0
C134 C 0.81424 0.44552 0.07803 0.0
C135 C 0.81517 0.45941 0.16324 0.0
O136 O 0.88978 0.42556 0.12225 0.0
O137 O 0.87304 0.47794 0.11883 0.0
O138 O 0.80647 0.47385 0.14438 0.0
O139 O 0.83413 0.43376 0.16099 0.0
C140 C 0.80879 0.37142 0.12679 0.0
O141 O 0.80811 0.4675 0.09392 0.0
O142 O 0.83116 0.41969 0.0842 0.0
In143 In 0.18549 0.57323 0.12104 0.0
O144 O 0.21245 0.53762 0.09501 0.0
O145 O 0.19101 0.58505 0.08289 0.0
C146 C 0.20433 0.55129 0.16341 0.0
C147 C 0.21012 0.63828 0.12257 0.0
C148 C 0.12351 0.55091 0.11947 0.0
O149 O 0.21386 0.5364 0.14495 0.0
O150 O 0.18555 0.5769 0.16035 0.0
O151 O 0.13071 0.5829 0.12158 0.0
O152 O 0.1474 0.5306 0.11802 0.0
C153 C 0.20728 0.55813 0.0781 0.0
O154 O 0.1801 0.63268 0.1208 0.0
O155 O 0.22745 0.61107 0.12397 0.0
In156 In 0.18181 0.4289 0.62029 0.0
O157 O 0.17695 0.36938 0.62043 0.0
O158 O 0.22397 0.39155 0.6242 0.0
C159 C 0.11982 0.45108 0.61758 0.0
C160 C 0.20462 0.44306 0.57751 0.0
C161 C 0.19983 0.45061 0.66285 0.0
O162 O 0.12711 0.41916 0.62018 0.0
O163 O 0.14366 0.47144 0.6163 0.0
O164 O 0.20975 0.46559 0.64452 0.0
O165 O 0.18082 0.42534 0.65956 0.0
C166 C 0.20698 0.36415 0.62281 0.0
O167 O 0.2089 0.46422 0.59418 0.0
O168 O 0.18872 0.41598 0.58246 0.0
In169 In 0.82804 0.55763 0.61682 0.0
O170 O 0.80432 0.51592 0.59364 0.0
O171 O 0.81598 0.56539 0.57871 0.0
C172 C 0.81013 0.5403 0.66032 0.0
C173 C 0.80277 0.62237 0.61741 0.0
C174 C 0.89044 0.53652 0.61466 0.0
O175 O 0.79868 0.52505 0.64261 0.0
O176 O 0.83073 0.5637 0.65601 0.0
O177 O 0.88261 0.56851 0.61389 0.0
O178 O 0.86699 0.51574 0.61633 0.0
C179 C 0.80403 0.53539 0.57585 0.0
O180 O 0.83273 0.61714 0.61457 0.0
O181 O 0.78596 0.59501 0.61986 0.0
In182 In 0.17914 0.56311 0.8654 0.0
O183 O 0.17364 0.62235 0.86291 0.0
O184 O 0.22124 0.60081 0.86366 0.0
C185 C 0.117 0.54156 0.86584 0.0
C186 C 0.19916 0.55082 0.90918 0.0
C187 C 0.19983 0.53984 0.82383 0.0
O188 O 0.12467 0.57344 0.86399 0.0
O189 O 0.14057 0.52082 0.86755 0.0
O190 O 0.20669 0.52396 0.84256 0.0
O191 O 0.18266 0.56687 0.82624 0.0
C192 C 0.20376 0.62795 0.86275 0.0
O193 O 0.20692 0.53048 0.8927 0.0
O194 O 0.18109 0.57598 0.90354 0.0
In195 In 0.82648 0.43301 0.86372 0.0
O196 O 0.79991 0.46512 0.89186 0.0
O197 O 0.82503 0.41858 0.9016 0.0
C198 C 0.80592 0.45764 0.82253 0.0
C199 C 0.80061 0.36895 0.85972 0.0
C200 C 0.88874 0.45403 0.86418 0.0
O201 O 0.79938 0.4733 0.8414 0.0
O202 O 0.82276 0.43032 0.82464 0.0
O203 O 0.88093 0.42218 0.86236 0.0
O204 O 0.86529 0.47493 0.86576 0.0
C205 C 0.80774 0.44402 0.90792 0.0
O206 O 0.83084 0.37383 0.86 0.0
O207 O 0.78366 0.39641 0.86136 0.0
H208 H 0.27605 0.02253 0.4322 0.0
H209 H 0.37834 0.03591 0.55018 0.0
H210 H 0.37737 0.04748 0.43668 0.0
H211 H 0.275 0.02246 0.55022 0.0
H212 H 0.37868 0.02962 0.50804 0.0
H213 H 0.27534 0.01279 0.4747 0.0
C214 C 0.29817 0.02548 0.44207 0.0
C215 C 0.32673 0.03622 0.43104 0.0
C216 C 0.35585 0.02778 0.51715 0.0
C217 C 0.32615 0.02507 0.47925 0.0
C218 C 0.35567 0.03135 0.54126 0.0
C219 C 0.32654 0.03018 0.55362 0.0
C220 C 0.32661 0.02349 0.50511 0.0
C221 C 0.29795 0.0237 0.54123 0.0
C222 C 0.29774 0.02002 0.46626 0.0
C223 C 0.35472 0.03968 0.44453 0.0
N224 N 0.2986 0.02108 0.51752 0.0
N225 N 0.35367 0.0343 0.46786 0.0
H226 H 0.62557 0.94442 0.55352 0.0
H227 H 0.72974 0.96771 0.43715 0.0
H228 H 0.72788 0.96498 0.55522 0.0
H229 H 0.62849 0.94187 0.43979 0.0
H230 H 0.72942 0.97504 0.47986 0.0
H231 H 0.62589 0.9522 0.51152 0.0
C232 C 0.64815 0.95085 0.545 0.0
C233 C 0.67682 0.95365 0.55779 0.0
C234 C 0.70726 0.96815 0.47098 0.0
C235 C 0.67754 0.96215 0.50938 0.0
C236 C 0.70742 0.96407 0.44667 0.0
C237 C 0.67919 0.95378 0.43503 0.0
C238 C 0.67861 0.96209 0.4835 0.0
C239 C 0.65091 0.94938 0.44809 0.0
C240 C 0.64834 0.9553 0.52095 0.0
C241 C 0.70529 0.96247 0.5459 0.0
N242 N 0.65142 0.95336 0.47155 0.0
N243 N 0.70505 0.96596 0.52222 0.0
H244 H 0.35125 0.00174 0.04478 0.0
H245 H 0.26518 0.92323 0.93993 0.0
H246 H 0.2535 0.96539 0.05336 0.0
H247 H 0.31969 0.0181 0.92984 0.0
H248 H 0.26075 0.9368 0.98159 0.0
H249 H 0.3417 0.00778 0.00275 0.0
C250 C 0.32759 0.99572 0.03782 0.0
C251 C 0.30314 0.98292 0.05239 0.0
C252 C 0.27299 0.95508 0.97016 0.0
C253 C 0.29241 0.98883 0.00455 0.0
C254 C 0.27559 0.94732 0.94649 0.0
C255 C 0.29277 0.96967 0.93164 0.0
C256 C 0.28877 0.98466 0.97909 0.0
C257 C 0.30606 0.00043 0.94085 0.0
C258 C 0.32212 -0.00069 0.01393 0.0
C259 C 0.27291 0.97542 0.04262 0.0
N260 N 0.30454 0.00663 0.9642 0.0
N261 N 0.2686 0.97761 0.01915 0.0
H262 H 0.66957 0.11457 0.93928 0.0
H263 H 0.71369 0.01168 0.05684 0.0
H264 H 0.7073 0.00917 0.93752 0.0
H265 H 0.6641 0.11097 0.05232 0.0
H266 H 0.71734 0.01063 0.01381 0.0
H267 H 0.67415 0.11461 0.98129 0.0
C268 C 0.67886 0.09129 0.94781 0.0
C269 C 0.68766 0.06164 0.93492 0.0
C270 C 0.7058 0.0326 0.02238 0.0
C271 C 0.69274 0.0613 0.98351 0.0
C272 C 0.70375 0.03323 0.04684 0.0
C273 C 0.68838 0.06134 0.05811 0.0
C274 C 0.69265 0.06046 0.00939 0.0
C275 C 0.67592 0.0886 0.04444 0.0
C276 C 0.68149 0.09131 0.9719 0.0
C277 C 0.7001 0.03249 0.94692 0.0
N278 N 0.67833 0.08742 0.02094 0.0
N279 N 0.70201 0.03287 0.9707 0.0
H280 H 0.76832 0.57277 0.54517 0.0
H281 H 0.84247 0.48744 0.43979 0.0
H282 H 0.81516 0.47282 0.55432 0.0
H283 H 0.74854 0.53499 0.43278 0.0
H284 H 0.8324 0.47908 0.4815 0.0
H285 H 0.7589 0.55859 0.50411 0.0
C286 C 0.77593 0.54748 0.53856 0.0
C287 C 0.79264 0.52393 0.55289 0.0
C288 C 0.8136 0.49038 0.47071 0.0
C289 C 0.78289 0.50804 0.50607 0.0
C290 C 0.81939 0.49527 0.447 0.0
C291 C 0.79636 0.51216 0.43306 0.0
C292 C 0.78514 0.50368 0.48057 0.0
C293 C 0.76684 0.52187 0.44307 0.0
C294 C 0.77043 0.53933 0.51523 0.0
C295 C 0.80213 0.49154 0.54368 0.0
N296 N 0.7624 0.51845 0.46646 0.0
N297 N 0.79795 0.48488 0.52057 0.0
H298 H 0.23134 0.39443 0.54976 0.0
H299 H 0.20791 0.5067 0.4335 0.0
H300 H 0.20449 0.50351 0.55137 0.0
H301 H 0.21212 0.39404 0.43815 0.0
H302 H 0.22058 0.51023 0.47554 0.0
H303 H 0.24051 0.39884 0.50795 0.0
C304 C 0.22793 0.41952 0.54124 0.0
C305 C 0.21674 0.44852 0.55376 0.0
C306 C 0.21923 0.48485 0.46717 0.0
C307 C 0.226 0.45357 0.50579 0.0
C308 C 0.21209 0.48285 0.44329 0.0
C309 C 0.20852 0.45002 0.43264 0.0
C310 C 0.22332 0.45377 0.48004 0.0
C311 C 0.21413 0.41983 0.44587 0.0
C312 C 0.23303 0.42205 0.51738 0.0
C313 C 0.21301 0.48058 0.54211 0.0
N314 N 0.2211 0.42245 0.46885 0.0
N315 N 0.21693 0.48213 0.51852 0.0
H316 H 0.79735 0.50435 0.93331 0.0
H317 H 0.79514 0.39234 0.05075 0.0
H318 H 0.79585 0.39161 0.93798 0.0
H319 H 0.80623 0.50461 0.05095 0.0
H320 H 0.78295 0.39427 0.00935 0.0
H321 H 0.78935 0.50755 0.97593 0.0
C322 C 0.79465 0.48039 0.94326 0.0
C323 C 0.79774 0.44766 0.93237 0.0
C324 C 0.78776 0.41866 0.01833 0.0
C325 C 0.78853 0.45102 0.98053 0.0
C326 C 0.79471 0.41752 0.04198 0.0
C327 C 0.80218 0.44829 0.05402 0.0
C328 C 0.78911 0.45077 0.00638 0.0
C329 C 0.80076 0.48032 0.04206 0.0
C330 C 0.79022 0.4822 0.96748 0.0
C331 C 0.79415 0.41735 0.94583 0.0
N332 N 0.79501 0.48072 0.01864 0.0
N333 N 0.78996 0.41978 0.96917 0.0
H334 H 0.23285 0.60642 0.04957 0.0
H335 H 0.21027 0.49079 0.93483 0.0
H336 H 0.20766 0.49702 0.05267 0.0
H337 H 0.21498 0.60352 0.93789 0.0
H338 H 0.22291 0.48841 0.97694 0.0
H339 H 0.24204 0.60097 0.00783 0.0
C340 C 0.22976 0.58105 0.04139 0.0
C341 C 0.21908 0.55225 0.05431 0.0
C342 C 0.2217 0.51355 0.9682 0.0
C343 C 0.22837 0.54597 0.0064 0.0
C344 C 0.2146 0.51488 0.94429 0.0
C345 C 0.21115 0.54742 0.93318 0.0
C346 C 0.22585 0.54498 0.98064 0.0
C347 C 0.21691 0.57794 0.94598 0.0
C348 C 0.23489 0.57792 0.01756 0.0
C349 C 0.21578 0.51982 0.04309 0.0
N350 N 0.22381 0.57596 0.969 0.0
N351 N 0.2197 0.51765 0.01952 0.0
H352 H 0.59894 0.01841 0.35049 0.0
H353 H 0.41003 0.97587 0.34481 0.0
H354 H 0.5603 0.91353 0.34877 0.0
H355 H 0.44848 0.0805 0.35056 0.0
H356 H 0.46496 0.9529 0.34233 0.0
H357 H 0.5443 0.04177 0.34667 0.0
C358 C 0.57895 0.00026 0.34914 0.0
C359 C 0.58415 0.96394 0.3501 0.0
C360 C 0.46143 0.9809 0.34399 0.0
C361 C 0.52143 0.99057 0.34581 0.0
C362 C 0.43005 0.99407 0.34537 0.0
C363 C 0.42469 0.03016 0.34805 0.0
C364 C 0.48773 0.00397 0.34534 0.0
C365 C 0.45153 0.05249 0.34859 0.0
C366 C 0.54773 0.01365 0.34698 0.0
C367 C 0.55737 0.9417 0.34819 0.0
N368 N 0.48191 0.03901 0.3474 0.0
N369 N 0.52714 0.95538 0.34627 0.0
H370 H 0.40635 0.03304 0.13775 0.0
H371 H 0.59355 0.9819 0.12921 0.0
H372 H 0.44061 0.92867 0.12274 0.0
H373 H 0.55957 0.08723 0.14135 0.0
H374 H 0.53776 0.9614 0.12903 0.0
H375 H 0.46222 0.05279 0.14133 0.0
C376 C 0.42565 0.01423 0.13529 0.0
C377 C 0.41883 0.97916 0.12986 0.0
C378 C 0.54245 0.98898 0.13182 0.0
C379 C 0.4829 0.00163 0.13389 0.0
C380 C 0.57433 0.00072 0.13195 0.0
C381 C 0.58121 0.03637 0.13523 0.0
C382 C 0.51716 0.01305 0.13497 0.0
C383 C 0.55534 0.05953 0.13872 0.0
C384 C 0.45756 0.02554 0.13732 0.0
C385 C 0.44478 0.95595 0.1269 0.0
N386 N 0.52445 0.04749 0.13842 0.0
N387 N 0.47566 0.96761 0.12889 0.0
H388 H 0.55881 0.90734 0.64273 0.0
H389 H 0.44338 0.07587 0.63991 0.0
H390 H 0.59371 0.01379 0.64213 0.0
H391 H 0.40846 0.96944 0.64124 0.0
H392 H 0.49858 0.05378 0.64404 0.0
H393 H 0.5035 0.92959 0.64553 0.0
C394 C 0.55485 0.93537 0.64339 0.0
C395 C 0.58085 0.95875 0.64204 0.0
C396 C 0.47883 0.03526 0.64361 0.0
C397 C 0.51769 0.98445 0.64508 0.0
C398 C 0.44731 0.04788 0.64128 0.0
C399 C 0.42134 0.02445 0.64008 0.0
C400 C 0.48439 -0.00107 0.64466 0.0
C401 C 0.4278 0.98844 0.64197 0.0
C402 C 0.52328 0.94809 0.64496 0.0
C403 C 0.57435 0.99482 0.64301 0.0
N404 N 0.45867 0.97678 0.64401 0.0
N405 N 0.54343 0.00656 0.64431 0.0
H406 H 0.55514 0.08168 0.85276 0.0
H407 H 0.43762 0.91664 0.86972 0.0
H408 H 0.58933 0.97705 0.86717 0.0
H409 H 0.40437 0.02207 0.8568 0.0
H410 H 0.49346 0.93769 0.86804 0.0
H411 H 0.49971 0.05979 0.85316 0.0
C412 C 0.55097 0.05407 0.85593 0.0
C413 C 0.57686 0.03116 0.85996 0.0
C414 C 0.47393 0.9562 0.86556 0.0
C415 C 0.51347 0.00588 0.86054 0.0
C416 C 0.44208 0.94418 0.86653 0.0
C417 C 0.41634 0.96764 0.86343 0.0
C418 C 0.48003 0.99191 0.86144 0.0
C419 C 0.42347 0.00306 0.85932 0.0
C420 C 0.51932 0.04157 0.8562 0.0
C421 C 0.57006 0.99563 0.864 0.0
N422 N 0.45459 0.01409 0.85846 0.0
N423 N 0.53904 0.98409 0.86422 0.0
H424 H 0.93839 0.57576 0.37487 0.0
H425 H 0.06048 0.41521 0.35458 0.0
H426 H 0.90827 0.47289 0.35265 0.0
H427 H 0.09097 0.51895 0.37463 0.0
H428 H 0.00449 0.43581 0.35382 0.0
H429 H 0.99452 0.55561 0.37467 0.0
C430 C 0.94361 0.549 0.36984 0.0
C431 C 0.91864 0.52597 0.36378 0.0
C432 C 0.02343 0.45408 0.35838 0.0
C433 C 0.98275 0.50263 0.36362 0.0
C434 C 0.05538 0.4423 0.35885 0.0
C435 C 0.08039 0.46539 0.36469 0.0
C436 C 0.01644 0.4892 0.36382 0.0
C437 C 0.07242 0.50024 0.37003 0.0
C438 C 0.97564 0.53746 0.36977 0.0
C439 C 0.92677 0.49154 0.35746 0.0
N440 N 0.04117 0.51107 0.36948 0.0
N441 N 0.95808 0.4809 0.35759 0.0
H442 H 0.06737 0.58903 0.12089 0.0
H443 H 0.9531 0.41944 0.12113 0.0
H444 H 0.10322 0.48298 0.11726 0.0
H445 H 0.91722 0.52553 0.11807 0.0
H446 H 0.00836 0.44216 0.1206 0.0
H447 H 0.01211 0.5663 0.12073 0.0
C448 C 0.0636 0.56098 0.12003 0.0
C449 C 0.08991 0.53787 0.11908 0.0
C450 C 0.98839 0.46047 0.12001 0.0
C451 C 0.02681 0.51163 0.11897 0.0
C452 C 0.95686 0.4475 0.12033 0.0
C453 C 0.93055 0.47062 0.11964 0.0
C454 C 0.99364 0.49684 0.11909 0.0
C455 C 0.9368 0.50674 0.11861 0.0
C456 C 0.03207 0.548 0.11993 0.0
C457 C 0.08364 0.50176 0.118 0.0
N458 N 0.96767 0.51872 0.11841 0.0
N459 N 0.05278 0.48976 0.11802 0.0
H460 H 0.91154 0.46893 0.61657 0.0
H461 H 0.09919 0.51867 0.6126 0.0
H462 H 0.9462 0.57523 0.61171 0.0
H463 H 0.06389 0.41293 0.61982 0.0
H464 H 0.04352 0.53984 0.61117 0.0
H465 H 0.96719 0.448 0.61665 0.0
C466 C 0.9309 0.4879 0.61546 0.0
C467 C 0.92422 0.52391 0.61416 0.0
C468 C 0.04791 0.51201 0.61304 0.0
C469 C 0.98817 0.50005 0.61428 0.0
C470 C 0.0797 0.49988 0.61385 0.0
C471 C 0.08617 0.46396 0.61637 0.0
C472 C 0.02233 0.48806 0.61474 0.0
C473 C 0.05999 0.44083 0.61789 0.0
C474 C 0.96271 0.4759 0.61553 0.0
C475 C 0.95027 0.54725 0.61276 0.0
N476 N 0.02923 0.45328 0.61707 0.0
N477 N 0.98112 0.53491 0.61288 0.0
H478 H 0.06178 0.58097 0.864 0.0
H479 H 0.94396 0.41443 0.86297 0.0
H480 H 0.09541 0.47404 0.86746 0.0
H481 H 0.91045 0.52143 0.86598 0.0
H482 H 0.9997 0.43567 0.86347 0.0
H483 H 0.00611 0.55964 0.86362 0.0
C484 C 0.05743 0.55301 0.86469 0.0
C485 C 0.08322 0.52924 0.86577 0.0
C486 C 0.98015 0.4545 0.86404 0.0
C487 C 0.01964 0.5046 0.86529 0.0
C488 C 0.94835 0.44238 0.86373 0.0
C489 C 0.92258 0.4662 0.86444 0.0
C490 C 0.98619 0.49071 0.86499 0.0
C491 C 0.92961 0.50214 0.86542 0.0
C492 C 0.02566 0.54083 0.86449 0.0
C493 C 0.07622 0.49329 0.86664 0.0
N494 N 0.96073 0.51329 0.86564 0.0
N495 N 0.04512 0.48206 0.86634 0.0
H496 H 0.26799 0.35443 0.35654 0.0
H497 H 0.24425 0.14821 0.37516 0.0
H498 H 0.17537 0.30576 0.36783 0.0
H499 H 0.33525 0.19505 0.35612 0.0
H500 H 0.21917 0.2061 0.37437 0.0
H501 H 0.29347 0.29667 0.35771 0.0
C502 C 0.253 0.33155 0.3592 0.0
C503 C 0.2195 0.33486 0.36207 0.0
C504 C 0.24463 0.20378 0.37039 0.0
C505 C 0.24854 0.26868 0.36358 0.0
C506 C 0.25901 0.17073 0.37091 0.0
C507 C 0.2919 0.16683 0.36568 0.0
C508 C 0.26326 0.23324 0.36465 0.0
C509 C 0.30981 0.19691 0.36027 0.0
C510 C 0.26757 0.29858 0.35987 0.0
C511 C 0.20126 0.30437 0.36548 0.0
N512 N 0.29525 0.22887 0.35987 0.0
N513 N 0.21603 0.27256 0.3662 0.0
H514 H 0.66894 0.79755 0.36662 0.0
H515 H 0.83091 0.68343 0.37469 0.0
H516 H 0.76331 0.84278 0.37659 0.0
H517 H 0.73526 0.63896 0.37667 0.0
H518 H 0.80689 0.74216 0.37458 0.0
H519 H 0.693 0.73907 0.36925 0.0
C520 C 0.6947 0.79516 0.3694 0.0
C521 C 0.71416 0.82502 0.37136 0.0
C522 C 0.79118 0.71953 0.37517 0.0
C523 C 0.7419 0.75829 0.37431 0.0
C524 C 0.80489 0.68604 0.37524 0.0
C525 C 0.78505 0.65632 0.37566 0.0
C526 C 0.75741 0.72325 0.37535 0.0
C527 C 0.75147 0.66117 0.37633 0.0
C528 C 0.70843 0.7618 0.37095 0.0
C529 C 0.74742 0.82043 0.37498 0.0
N530 N 0.73872 0.69396 0.37603 0.0
N531 N 0.76025 0.7877 0.37624 0.0
H532 H 0.27349 0.65661 0.1275 0.0
H533 H 0.24065 0.86083 0.10586 0.0
H534 H 0.1789 0.70071 0.11588 0.0
H535 H 0.33422 0.81905 0.12387 0.0
H536 H 0.21828 0.80182 0.10755 0.0
H537 H 0.29667 0.71537 0.12489 0.0
C538 C 0.25758 0.67869 0.12448 0.0
C539 C 0.2242 0.6738 0.12194 0.0
C540 C 0.24372 0.80547 0.11109 0.0
C541 C 0.25059 0.74108 0.11876 0.0
C542 C 0.25656 0.83917 0.11005 0.0
C543 C 0.28936 0.84485 0.11477 0.0
C544 C 0.2638 0.77711 0.11688 0.0
C545 C 0.3088 0.81581 0.1201 0.0
C546 C 0.27084 0.71222 0.12296 0.0
C547 C 0.20474 0.70331 0.118 0.0
N548 N 0.29571 0.78316 0.12107 0.0
N549 N 0.21824 0.73567 0.11648 0.0
H550 H 0.76857 0.14898 0.12681 0.0
H551 H 0.74486 0.35688 0.13226 0.0
H552 H 0.67646 0.19917 0.13793 0.0
H553 H 0.83793 0.30684 0.12618 0.0
H554 H 0.7195 0.29933 0.13462 0.0
H555 H 0.79448 0.20642 0.12676 0.0
C556 C 0.75379 0.17212 0.1293 0.0
C557 C 0.72029 0.16934 0.13233 0.0
C558 C 0.74547 0.30087 0.13285 0.0
C559 C 0.7498 0.2352 0.13223 0.0
C560 C 0.75999 0.33374 0.13148 0.0
C561 C 0.79356 0.33662 0.12897 0.0
C562 C 0.76463 0.27056 0.13159 0.0
C563 C 0.81196 0.30578 0.1281 0.0
C564 C 0.76862 0.20491 0.12928 0.0
C565 C 0.70236 0.20014 0.13551 0.0
N566 N 0.79723 0.274 0.12933 0.0
N567 N 0.71733 0.23182 0.1353 0.0
H568 H 0.67003 0.79632 0.63047 0.0
H569 H 0.83251 0.68578 0.611 0.0
H570 H 0.76145 0.84301 0.61232 0.0
H571 H 0.7396 0.63908 0.62463 0.0
H572 H 0.80715 0.74378 0.61178 0.0
H573 H 0.69525 0.73839 0.62865 0.0
C574 C 0.69538 0.79435 0.62603 0.0
C575 C 0.71369 0.82446 0.62155 0.0
C576 C 0.79232 0.72082 0.61457 0.0
C577 C 0.74275 0.75838 0.61952 0.0
C578 C 0.80679 0.68775 0.61416 0.0
C579 C 0.78813 0.65763 0.61777 0.0
C580 C 0.75897 0.72373 0.6187 0.0
C581 C 0.75491 0.66164 0.62176 0.0
C582 C 0.70978 0.7613 0.625 0.0
C583 C 0.74644 0.82044 0.6159 0.0
N584 N 0.74141 0.69406 0.62214 0.0
N585 N 0.75995 0.78802 0.6151 0.0
H586 H 0.27016 0.3469 0.62991 0.0
H587 H 0.24274 0.14179 0.60889 0.0
H588 H 0.17702 0.30108 0.61591 0.0
H589 H 0.33379 0.186 0.63039 0.0
H590 H 0.21883 0.20029 0.60961 0.0
H591 H 0.29433 0.28851 0.62882 0.0
C592 C 0.25477 0.32451 0.62667 0.0
C593 C 0.22152 0.32881 0.62301 0.0
C594 C 0.24404 0.19725 0.61415 0.0
C595 C 0.24907 0.2619 0.6216 0.0
C596 C 0.25775 0.16386 0.61367 0.0
C597 C 0.29031 0.15906 0.61961 0.0
C598 C 0.26303 0.22611 0.62056 0.0
C599 C 0.30859 0.18856 0.62569 0.0
C600 C 0.2686 0.29118 0.62604 0.0
C601 C 0.20274 0.29891 0.61887 0.0
N602 N 0.29469 0.22085 0.62603 0.0
N603 N 0.2168 0.26672 0.61822 0.0
H604 H 0.66718 0.19486 0.8537 0.0
H605 H 0.83136 0.30549 0.8585 0.0
H606 H 0.76151 0.14842 0.86197 0.0
H607 H 0.7366 0.35253 0.85729 0.0
H608 H 0.80634 0.24753 0.85708 0.0
H609 H 0.69231 0.25284 0.8523 0.0
C610 C 0.69318 0.19688 0.85514 0.0
C611 C 0.7123 0.16685 0.85804 0.0
C612 C 0.79101 0.27053 0.85708 0.0
C613 C 0.74119 0.23295 0.85645 0.0
C614 C 0.80529 0.3036 0.85786 0.0
C615 C 0.78601 0.3338 0.8581 0.0
C616 C 0.7572 0.26767 0.85648 0.0
C617 C 0.75236 0.32988 0.85721 0.0
C618 C 0.70751 0.22995 0.85438 0.0
C619 C 0.74586 0.17092 0.8598 0.0
N620 N 0.73902 0.29742 0.85648 0.0
N621 N 0.75923 0.20335 0.85901 0.0
H622 H 0.26746 0.64607 0.86269 0.0
H623 H 0.23214 0.85233 0.86415 0.0
H624 H 0.17171 0.69068 0.86189 0.0
H625 H 0.32799 0.80799 0.86506 0.0
H626 H 0.20961 0.7933 0.86301 0.0
H627 H 0.29014 0.70511 0.86305 0.0
C628 C 0.25121 0.66832 0.86252 0.0
C629 C 0.21765 0.66351 0.86226 0.0
C630 C 0.23557 0.79643 0.86345 0.0
C631 C 0.24344 0.73115 0.86276 0.0
C632 C 0.24846 0.83014 0.86413 0.0
C633 C 0.28199 0.83503 0.86472 0.0
C634 C 0.25637 0.76735 0.86337 0.0
C635 C 0.30199 0.80536 0.86463 0.0
C636 C 0.26417 0.70202 0.86275 0.0
C637 C 0.19773 0.69324 0.86208 0.0
N638 N 0.28886 0.77276 0.86397 0.0
N639 N 0.21093 0.7258 0.86236 0.0
H640 H 0.28296 0.98019 0.3093 0.0
H641 H 0.27798 0.03235 0.17429 0.0
H642 H 0.29221 0.08574 0.28319 0.0
H643 H 0.29174 0.92693 0.19969 0.0
H644 H 0.26818 0.05179 0.21439 0.0
H645 H 0.27115 0.96015 0.26956 0.0
C646 C 0.28183 -0.00079 0.29529 0.0
C647 C 0.2891 0.03452 0.29937 0.0
C648 C 0.27287 0.02431 0.21112 0.0
C649 C 0.27578 0.01194 0.2541 0.0
C650 C 0.27837 0.01322 0.18825 0.0
C651 C 0.28624 0.97814 0.18379 0.0
C652 C 0.2752 9e-05 0.22953 0.0
C653 C 0.28625 0.95435 0.20246 0.0
C654 C 0.27524 0.98778 0.27263 0.0
C655 C 0.28725 0.05816 0.28067 0.0
N656 N 0.28121 0.96583 0.22457 0.0
N657 N 0.28112 0.04639 0.2588 0.0
H658 H 0.71172 0.08113 0.20923 0.0
H659 H 0.71365 0.90972 0.28552 0.0
H660 H 0.72077 0.97793 0.17933 0.0
H661 H 0.72577 0.01317 0.31444 0.0
H662 H 0.72342 0.93345 0.24661 0.0
H663 H 0.72379 0.05683 0.24758 0.0
C664 C 0.71669 0.05334 0.21074 0.0
C665 C 0.71478 0.03135 0.19121 0.0
C666 C 0.72457 0.9509 0.26147 0.0
C667 C 0.72817 0.00323 0.23512 0.0
C668 C 0.71896 0.93737 0.2837 0.0
C669 C 0.7184 0.95967 0.30314 0.0
C670 C 0.7291 0.98708 0.25865 0.0
C671 C 0.72573 0.99515 0.29987 0.0
C672 C 0.72369 0.03949 0.23263 0.0
C673 C 0.72182 0.99569 0.19403 0.0
N674 N 0.73018 0.00791 0.27796 0.0
N675 N 0.72762 0.98256 0.21571 0.0
H676 H 0.70625 0.0782 0.7842 0.0
H677 H 0.71264 0.90821 0.70682 0.0
H678 H 0.71739 0.9748 0.81351 0.0
H679 H 0.72179 0.01257 0.67868 0.0
H680 H 0.72187 0.93149 0.7459 0.0
H681 H 0.71913 0.05488 0.74577 0.0
C682 C 0.71183 0.05057 0.78254 0.0
C683 C 0.71028 0.02822 0.80193 0.0
C684 C 0.72249 0.94925 0.73117 0.0
C685 C 0.72461 0.00119 0.7579 0.0
C686 C 0.71719 0.93598 0.70885 0.0
C687 C 0.71592 0.95864 0.68958 0.0
C688 C 0.72601 0.98551 0.73426 0.0
C689 C 0.7223 0.99427 0.69311 0.0
C690 C 0.7193 0.03727 0.7606 0.0
C691 C 0.71813 0.9928 0.79892 0.0
N692 N 0.72647 0.00673 0.71511 0.0
N693 N 0.72437 0.98019 0.77718 0.0
H694 H 0.30353 0.91311 0.78368 0.0
H695 H 0.27848 0.07313 0.69971 0.0
H696 H 0.26748 0.01274 0.80788 0.0
H697 H 0.28687 0.96693 0.67477 0.0
H698 H 0.26849 0.05088 0.73898 0.0
H699 H 0.2924 0.9309 0.7436 0.0
C700 C 0.29291 0.93864 0.78053 0.0
C701 C 0.28685 0.96175 0.79902 0.0
C702 C 0.27184 0.03237 0.72487 0.0
C703 C 0.27435 0.98244 0.75319 0.0
C704 C 0.27757 0.04506 0.70246 0.0
C705 C 0.28395 0.02178 0.68411 0.0
C706 C 0.27318 0.99616 0.72902 0.0
C707 C 0.28224 0.98572 0.68851 0.0
C708 C 0.28641 0.94872 0.75765 0.0
C709 C 0.27272 0.99429 0.79405 0.0
N710 N 0.27767 0.97398 0.71066 0.0
N711 N 0.26748 0.00396 0.77152 0.0
H712 H 0.79186 0.52393 0.17599 0.0
H713 H 0.78438 0.4714 0.31102 0.0
H714 H 0.81395 0.42112 0.20299 0.0
H715 H 0.799 0.57743 0.2871 0.0
H716 H 0.77933 0.4524 0.27042 0.0
H717 H 0.77938 0.54344 0.21589 0.0
C718 C 0.79363 0.50542 0.19027 0.0
C719 C 0.80438 0.47109 0.18638 0.0
C720 C 0.7832 0.4799 0.27411 0.0
C721 C 0.78985 0.49285 0.23159 0.0
C722 C 0.78596 0.49075 0.29724 0.0
C723 C 0.79264 0.5259 0.30232 0.0
C724 C 0.78694 0.50444 0.25605 0.0
C725 C 0.79431 0.54997 0.28385 0.0
C726 C 0.78659 0.51652 0.21294 0.0
C727 C 0.80623 0.44799 0.20536 0.0
N728 N 0.79179 0.53874 0.26145 0.0
N729 N 0.79916 0.45933 0.22716 0.0
H730 H 0.21562 0.52659 0.31283 0.0
H731 H 0.22734 0.48682 0.17606 0.0
H732 H 0.20174 0.42406 0.28286 0.0
H733 H 0.1998 0.58733 0.20418 0.0
H734 H 0.23378 0.46455 0.21597 0.0
H735 H 0.22545 0.55004 0.27355 0.0
C736 C 0.21516 0.50898 0.29803 0.0
C737 C 0.20746 0.47351 0.30093 0.0
C738 C 0.22676 0.4916 0.21332 0.0
C739 C 0.21892 0.49986 0.25633 0.0
C740 C 0.22321 0.50432 0.19063 0.0
C741 C 0.21262 0.53876 0.18694 0.0
C742 C 0.2201 0.5137 0.23231 0.0
C743 C 0.20759 0.56044 0.20635 0.0
C744 C 0.22066 0.52233 0.27569 0.0
C745 C 0.20718 0.45169 0.28126 0.0
N746 N 0.21121 0.5475 0.22825 0.0
N747 N 0.21267 0.46525 0.25974 0.0
H748 H 0.2038 0.57779 0.78388 0.0
H749 H 0.19577 0.41294 0.70295 0.0
H750 H 0.21679 0.47326 0.81099 0.0
H751 H 0.22337 0.51438 0.67645 0.0
H752 H 0.20436 0.43408 0.74267 0.0
H753 H 0.21216 0.55542 0.74443 0.0
C754 C 0.20882 0.55015 0.7815 0.0
C755 C 0.20928 0.52719 0.80059 0.0
C756 C 0.20903 0.45157 0.72817 0.0
C757 C 0.21839 0.50142 0.75559 0.0
C758 C 0.20396 0.4396 0.70553 0.0
C759 C 0.20853 0.46214 0.6865 0.0
C760 C 0.21806 0.48655 0.7318 0.0
C761 C 0.21944 0.49628 0.69072 0.0
C762 C 0.21373 0.53745 0.75901 0.0
C763 C 0.21614 0.49173 0.79666 0.0
N764 N 0.22331 0.50769 0.713 0.0
N765 N 0.21985 0.47976 0.77449 0.0
H766 H 0.8199 0.57869 0.69966 0.0
H767 H 0.79651 0.41927 0.78344 0.0
H768 H 0.78004 0.48084 0.67552 0.0
H769 H 0.79449 0.5254 0.80915 0.0
H770 H 0.78908 0.44128 0.74381 0.0
H771 H 0.80989 0.56045 0.7399 0.0
C772 C 0.80876 0.55347 0.70287 0.0
C773 C 0.80115 0.53098 0.68435 0.0
C774 C 0.78967 0.45977 0.75813 0.0
C775 C 0.78989 0.50993 0.73019 0.0
C776 C 0.79403 0.44724 0.7807 0.0
C777 C 0.79642 0.47067 0.79942 0.0
C778 C 0.78852 0.49602 0.75422 0.0
C779 C 0.79283 0.50658 0.79509 0.0
C780 C 0.80286 0.54321 0.7258 0.0
C781 C 0.78645 0.49881 0.68936 0.0
N782 N 0.7897 0.5183 0.77279 0.0
N783 N 0.78179 0.48894 0.71189 0.0
loop_
_geom_bond_atom_site_label_1
_geom_bond_atom_site_label_2
_geom_bond_distance
_geom_bond_site_symmetry_2
_ccdc_geom_bond_type
In0 O1 2.294 . S
In0 O2 2.326 . S
In0 O6 2.266 . S
In0 O7 2.326 . S
In0 O8 2.266 . S
In0 O9 2.326 . S
In0 O11 2.294 . S
In0 O12 2.326 . S
O1 In0 2.294 . S
O1 C10 1.240 . S
O2 In0 2.326 . S
O2 C10 1.252 . S
C3 O6 1.252 . S
C3 O7 1.260 . S
C4 O11 1.240 . S
C4 O12 1.252 . S
C5 O8 1.252 . S
C5 O9 1.260 . S
O6 In0 2.266 . S
O6 C3 1.252 . S
O7 In0 2.326 . S
O7 C3 1.260 . S
O8 In0 2.266 . S
O8 C5 1.252 . S
O9 In0 2.326 . S
O9 C5 1.260 . S
C10 O1 1.240 . S
C10 O2 1.252 . S
O11 In0 2.294 . S
O11 C4 1.240 . S
O12 In0 2.326 . S
O12 C4 1.252 . S
In13 O14 2.294 . S
In13 O15 2.326 . S
In13 O19 2.266 . S
In13 O20 2.326 . S
In13 O21 2.266 . S
In13 O22 2.326 . S
In13 O24 2.294 . S
In13 O25 2.326 . S
O14 In13 2.294 . S
O14 C23 1.240 . S
O15 In13 2.326 . S
O15 C23 1.252 . S
C16 O19 1.252 . S
C16 O20 1.260 . S
C17 O24 1.240 . S
C17 O25 1.252 . S
C18 O21 1.252 . S
C18 O22 1.260 . S
O19 In13 2.266 . S
O19 C16 1.252 . S
O20 In13 2.326 . S
O20 C16 1.260 . S
O21 In13 2.266 . S
O21 C18 1.252 . S
O22 In13 2.326 . S
O22 C18 1.260 . S
C23 O14 1.240 . S
C23 O15 1.252 . S
O24 In13 2.294 . S
O24 C17 1.240 . S
O25 In13 2.326 . S
O25 C17 1.252 . S
In26 O27 2.294 . S
In26 O28 2.326 . S
In26 O32 2.266 . S
In26 O33 2.326 . S
In26 O34 2.266 . S
In26 O35 2.326 . S
In26 O37 2.294 . S
In26 O38 2.326 . S
O27 In26 2.294 . S
O27 C36 1.240 . S
O28 In26 2.326 . S
O28 C36 1.252 . S
C29 O32 1.252 . S
C29 O33 1.260 . S
C30 O37 1.240 . S
C30 O38 1.252 . S
C31 O34 1.252 . S
C31 O35 1.260 . S
O32 In26 2.266 . S
O32 C29 1.252 . S
O33 In26 2.326 . S
O33 C29 1.260 . S
O34 In26 2.266 . S
O34 C31 1.252 . S
O35 In26 2.326 . S
O35 C31 1.260 . S
C36 O27 1.240 . S
C36 O28 1.252 . S
O37 In26 2.294 . S
O37 C30 1.240 . S
O38 In26 2.326 . S
O38 C30 1.252 . S
In39 O40 2.294 . S
In39 O41 2.326 . S
In39 O45 2.266 . S
In39 O46 2.326 . S
In39 O47 2.266 . S
In39 O48 2.326 . S
In39 O50 2.294 . S
In39 O51 2.326 . S
O40 In39 2.294 . S
O40 C49 1.240 . S
O41 In39 2.326 . S
O41 C49 1.252 . S
C42 O45 1.252 . S
C42 O46 1.260 . S
C43 O50 1.240 . S
C43 O51 1.252 . S
C44 O47 1.252 . S
C44 O48 1.260 . S
O45 In39 2.266 . S
O45 C42 1.252 . S
O46 In39 2.326 . S
O46 C42 1.260 . S
O47 In39 2.266 . S
O47 C44 1.252 . S
O48 In39 2.326 . S
O48 C44 1.260 . S
C49 O40 1.240 . S
C49 O41 1.252 . S
O50 In39 2.294 . S
O50 C43 1.240 . S
O51 In39 2.326 . S
O51 C43 1.252 . S
In52 O53 2.294 . S
In52 O54 2.326 . S
In52 O58 2.266 . S
In52 O59 2.326 . S
In52 O60 2.266 . S
In52 O61 2.326 . S
In52 O63 2.294 . S
In52 O64 2.326 . S
O53 In52 2.294 . S
O53 C62 1.240 . S
O54 In52 2.326 . S
O54 C62 1.252 . S
C55 O58 1.252 . S
C55 O59 1.260 . S
C56 O63 1.240 . S
C56 O64 1.252 . S
C57 O60 1.252 . S
C57 O61 1.260 . S
O58 In52 2.266 . S
O58 C55 1.252 . S
O59 In52 2.326 . S
O59 C55 1.260 . S
O60 In52 2.266 . S
O60 C57 1.252 . S
O61 In52 2.326 . S
O61 C57 1.260 . S
C62 O53 1.240 . S
C62 O54 1.252 . S
O63 In52 2.294 . S
O63 C56 1.240 . S
O64 In52 2.326 . S
O64 C56 1.252 . S
In65 O66 2.294 . S
In65 O67 2.326 . S
In65 O71 2.266 . S
In65 O72 2.326 . S
In65 O73 2.266 . S
In65 O74 2.326 . S
In65 O76 2.294 . S
In65 O77 2.326 . S
O66 In65 2.294 . S
O66 C75 1.240 . S
O67 In65 2.326 . S
O67 C75 1.252 . S
C68 O71 1.252 . S
C68 O72 1.260 . S
C69 O76 1.240 . S
C69 O77 1.252 . S
C70 O73 1.252 . S
C70 O74 1.260 . S
O71 In65 2.266 . S
O71 C68 1.252 . S
O72 In65 2.326 . S
O72 C68 1.260 . S
O73 In65 2.266 . S
O73 C70 1.252 . S
O74 In65 2.326 . S
O74 C70 1.260 . S
C75 O66 1.240 . S
C75 O67 1.252 . S
O76 In65 2.294 . S
O76 C69 1.240 . S
O77 In65 2.326 . S
O77 C69 1.252 . S
In78 O79 2.294 . S
In78 O80 2.326 . S
In78 O84 2.266 . S
In78 O85 2.326 . S
In78 O86 2.266 . S
In78 O87 2.326 . S
In78 O89 2.294 . S
In78 O90 2.326 . S
O79 In78 2.294 . S
O79 C88 1.240 . S
O80 In78 2.326 . S
O80 C88 1.252 . S
C81 O84 1.252 . S
C81 O85 1.260 . S
C82 O89 1.240 . S
C82 O90 1.252 . S
C83 O86 1.252 . S
C83 O87 1.260 . S
O84 In78 2.266 . S
O84 C81 1.252 . S
O85 In78 2.326 . S
O85 C81 1.260 . S
O86 In78 2.266 . S
O86 C83 1.252 . S
O87 In78 2.326 . S
O87 C83 1.260 . S
C88 O79 1.240 . S
C88 O80 1.252 . S
O89 In78 2.294 . S
O89 C82 1.240 . S
O90 In78 2.326 . S
O90 C82 1.252 . S
In91 O92 2.294 . S
In91 O93 2.326 . S
In91 O97 2.266 . S
In91 O98 2.326 . S
In91 O99 2.266 . S
In91 O100 2.326 . S
In91 O102 2.294 . S
In91 O103 2.326 . S
O92 In91 2.294 . S
O92 C101 1.240 . S
O93 In91 2.326 . S
O93 C101 1.252 . S
C94 O97 1.252 . S
C94 O98 1.260 . S
C95 O102 1.240 . S
C95 O103 1.252 . S
C96 O99 1.252 . S
C96 O100 1.260 . S
O97 In91 2.266 . S
O97 C94 1.252 . S
O98 In91 2.326 . S
O98 C94 1.260 . S
O99 In91 2.266 . S
O99 C96 1.252 . S
O100 In91 2.326 . S
O100 C96 1.260 . S
C101 O92 1.240 . S
C101 O93 1.252 . S
O102 In91 2.294 . S
O102 C95 1.240 . S
O103 In91 2.326 . S
O103 C95 1.252 . S
In104 O105 2.294 . S
In104 O106 2.326 . S
In104 O110 2.266 . S
In104 O111 2.326 . S
In104 O112 2.266 . S
In104 O113 2.326 . S
In104 O115 2.294 . S
In104 O116 2.326 . S
O105 In104 2.294 . S
O105 C114 1.240 . S
O106 In104 2.326 . S
O106 C114 1.252 . S
C107 O110 1.252 . S
C107 O111 1.260 . S
C108 O115 1.240 . S
C108 O116 1.252 . S
C109 O112 1.252 . S
C109 O113 1.260 . S
O110 In104 2.266 . S
O110 C107 1.252 . S
O111 In104 2.326 . S
O111 C107 1.260 . S
O112 In104 2.266 . S
O112 C109 1.252 . S
O113 In104 2.326 . S
O113 C109 1.260 . S
C114 O105 1.240 . S
C114 O106 1.252 . S
O115 In104 2.294 . S
O115 C108 1.240 . S
O116 In104 2.326 . S
O116 C108 1.252 . S
In117 O118 2.294 . S
In117 O119 2.326 . S
In117 O123 2.266 . S
In117 O124 2.326 . S
In117 O125 2.266 . S
In117 O126 2.326 . S
In117 O128 2.294 . S
In117 O129 2.326 . S
O118 In117 2.294 . S
O118 C127 1.240 . S
O119 In117 2.326 . S
O119 C127 1.252 . S
C120 O123 1.252 . S
C120 O124 1.260 . S
C121 O128 1.240 . S
C121 O129 1.252 . S
C122 O125 1.252 . S
C122 O126 1.260 . S
O123 In117 2.266 . S
O123 C120 1.252 . S
O124 In117 2.326 . S
O124 C120 1.260 . S
O125 In117 2.266 . S
O125 C122 1.252 . S
O126 In117 2.326 . S
O126 C122 1.260 . S
C127 O118 1.240 . S
C127 O119 1.252 . S
O128 In117 2.294 . S
O128 C121 1.240 . S
O129 In117 2.326 . S
O129 C121 1.252 . S
In130 O131 2.294 . S
In130 O132 2.326 . S
In130 O136 2.266 . S
In130 O137 2.326 . S
In130 O138 2.266 . S
In130 O139 2.326 . S
In130 O141 2.294 . S
In130 O142 2.326 . S
O131 In130 2.294 . S
O131 C140 1.240 . S
O132 In130 2.326 . S
O132 C140 1.252 . S
C133 O136 1.252 . S
C133 O137 1.260 . S
C134 O141 1.240 . S
C134 O142 1.252 . S
C135 O138 1.252 . S
C135 O139 1.260 . S
O136 In130 2.266 . S
O136 C133 1.252 . S
O137 In130 2.326 . S
O137 C133 1.260 . S
O138 In130 2.266 . S
O138 C135 1.252 . S
O139 In130 2.326 . S
O139 C135 1.260 . S
C140 O131 1.240 . S
C140 O132 1.252 . S
O141 In130 2.294 . S
O141 C134 1.240 . S
O142 In130 2.326 . S
O142 C134 1.252 . S
In143 O144 2.294 . S
In143 O145 2.326 . S
In143 O149 2.266 . S
In143 O150 2.326 . S
In143 O151 2.266 . S
In143 O152 2.326 . S
In143 O154 2.294 . S
In143 O155 2.326 . S
O144 In143 2.294 . S
O144 C153 1.240 . S
O145 In143 2.326 . S
O145 C153 1.252 . S
C146 O149 1.252 . S
C146 O150 1.260 . S
C147 O154 1.240 . S
C147 O155 1.252 . S
C148 O151 1.252 . S
C148 O152 1.260 . S
O149 In143 2.266 . S
O149 C146 1.252 . S
O150 In143 2.326 . S
O150 C146 1.260 . S
O151 In143 2.266 . S
O151 C148 1.252 . S
O152 In143 2.326 . S
O152 C148 1.260 . S
C153 O144 1.240 . S
C153 O145 1.252 . S
O154 In143 2.294 . S
O154 C147 1.240 . S
O155 In143 2.326 . S
O155 C147 1.252 . S
In156 O157 2.294 . S
In156 O158 2.326 . S
In156 O162 2.266 . S
In156 O163 2.326 . S
In156 O164 2.266 . S
In156 O165 2.326 . S
In156 O167 2.294 . S
In156 O168 2.326 . S
O157 In156 2.294 . S
O157 C166 1.240 . S
O158 In156 2.326 . S
O158 C166 1.252 . S
C159 O162 1.252 . S
C159 O163 1.260 . S
C160 O167 1.240 . S
C160 O168 1.252 . S
C161 O164 1.252 . S
C161 O165 1.260 . S
O162 In156 2.266 . S
O162 C159 1.252 . S
O163 In156 2.326 . S
O163 C159 1.260 . S
O164 In156 2.266 . S
O164 C161 1.252 . S
O165 In156 2.326 . S
O165 C161 1.260 . S
C166 O157 1.240 . S
C166 O158 1.252 . S
O167 In156 2.294 . S
O167 C160 1.240 . S
O168 In156 2.326 . S
O168 C160 1.252 . S
In169 O170 2.294 . S
In169 O171 2.326 . S
In169 O175 2.266 . S
In169 O176 2.326 . S
In169 O177 2.266 . S
In169 O178 2.326 . S
In169 O180 2.294 . S
In169 O181 2.326 . S
O170 In169 2.294 . S
O170 C179 1.240 . S
O171 In169 2.326 . S
O171 C179 1.252 . S
C172 O175 1.252 . S
C172 O176 1.260 . S
C173 O180 1.240 . S
C173 O181 1.252 . S
C174 O177 1.252 . S
C174 O178 1.260 . S
O175 In169 2.266 . S
O175 C172 1.252 . S
O176 In169 2.326 . S
O176 C172 1.260 . S
O177 In169 2.266 . S
O177 C174 1.252 . S
O178 In169 2.326 . S
O178 C174 1.260 . S
C179 O170 1.240 . S
C179 O171 1.252 . S
O180 In169 2.294 . S
O180 C173 1.240 . S
O181 In169 2.326 . S
O181 C173 1.252 . S
In182 O183 2.294 . S
In182 O184 2.326 . S
In182 O188 2.266 . S
In182 O189 2.326 . S
In182 O190 2.266 . S
In182 O191 2.326 . S
In182 O193 2.294 . S
In182 O194 2.326 . S
O183 In182 2.294 . S
O183 C192 1.240 . S
O184 In182 2.326 . S
O184 C192 1.252 . S
C185 O188 1.252 . S
C185 O189 1.260 . S
C186 O193 1.240 . S
C186 O194 1.252 . S
C187 O190 1.252 . S
C187 O191 1.260 . S
O188 In182 2.266 . S
O188 C185 1.252 . S
O189 In182 2.326 . S
O189 C185 1.260 . S
O190 In182 2.266 . S
O190 C187 1.252 . S
O191 In182 2.326 . S
O191 C187 1.260 . S
C192 O183 1.240 . S
C192 O184 1.252 . S
O193 In182 2.294 . S
O193 C186 1.240 . S
O194 In182 2.326 . S
O194 C186 1.252 . S
In195 O196 2.294 . S
In195 O197 2.326 . S
In195 O201 2.266 . S
In195 O202 2.326 . S
In195 O203 2.266 . S
In195 O204 2.326 . S
In195 O206 2.294 . S
In195 O207 2.326 . S
O196 In195 2.294 . S
O196 C205 1.240 . S
O197 In195 2.326 . S
O197 C205 1.252 . S
C198 O201 1.252 . S
C198 O202 1.260 . S
C199 O206 1.240 . S
C199 O207 1.252 . S
C200 O203 1.252 . S
C200 O204 1.260 . S
O201 In195 2.266 . S
O201 C198 1.252 . S
O202 In195 2.326 . S
O202 C198 1.260 . S
O203 In195 2.266 . S
O203 C200 1.252 . S
O204 In195 2.326 . S
O204 C200 1.260 . S
C205 O196 1.240 . S
C205 O197 1.252 . S
O206 In195 2.294 . S
O206 C199 1.240 . S
O207 In195 2.326 . S
O207 C199 1.252 . S
H208 C214 0.930 . S
H209 C218 0.930 . S
H210 C223 0.929 . S
H211 C221 0.929 . S
H212 C216 0.929 . S
H213 C222 0.929 . S
C214 H208 0.930 . S
C214 C215 1.367 . S
C214 C222 1.378 . S
C215 C214 1.367 . S
C215 C223 1.433 . S
C216 H212 0.929 . S
C216 C218 1.378 . S
C216 C220 1.350 . S
C217 C220 1.463 . S
C217 C222 1.350 . S
C217 N225 1.427 . S
C218 H209 0.930 . S
C218 C216 1.378 . S
C218 C219 1.367 . S
C219 C218 1.367 . S
C219 C221 1.433 . S
C220 C216 1.350 . S
C220 C217 1.463 . S
C220 N224 1.427 . S
C221 H211 0.929 . S
C221 C219 1.433 . S
C221 N224 1.384 . S
C222 H213 0.929 . S
C222 C214 1.378 . S
C222 C217 1.350 . S
C223 H210 0.929 . S
C223 C215 1.433 . S
C223 N225 1.384 . S
N224 C220 1.427 . S
N224 C221 1.384 . S
N225 C217 1.427 . S
N225 C223 1.384 . S
H226 C232 0.930 . S
H227 C236 0.930 . S
H228 C241 0.929 . S
H229 C239 0.929 . S
H230 C234 0.929 . S
H231 C240 0.929 . S
C232 H226 0.930 . S
C232 C233 1.367 . S
C232 C240 1.378 . S
C233 C232 1.367 . S
C233 C241 1.433 . S
C234 H230 0.929 . S
C234 C236 1.378 . S
C234 C238 1.350 . S
C235 C238 1.463 . S
C235 C240 1.350 . S
C235 N243 1.427 . S
C236 H227 0.930 . S
C236 C234 1.378 . S
C236 C237 1.367 . S
C237 C236 1.367 . S
C237 C239 1.433 . S
C238 C234 1.350 . S
C238 C235 1.463 . S
C238 N242 1.427 . S
C239 H229 0.929 . S
C239 C237 1.433 . S
C239 N242 1.384 . S
C240 H231 0.929 . S
C240 C232 1.378 . S
C240 C235 1.350 . S
C241 H228 0.929 . S
C241 C233 1.433 . S
C241 N243 1.384 . S
N242 C238 1.427 . S
N242 C239 1.384 . S
N243 C235 1.427 . S
N243 C241 1.384 . S
H244 C250 0.930 . S
H245 C254 0.930 . S
H246 C259 0.929 . S
H247 C257 0.929 . S
H248 C252 0.929 . S
H249 C258 0.929 . S
C250 H244 0.930 . S
C250 C251 1.367 . S
C250 C258 1.378 . S
C251 C250 1.367 . S
C251 C259 1.433 . S
C252 H248 0.929 . S
C252 C254 1.378 . S
C252 C256 1.350 . S
C253 C256 1.463 1_554 S
C253 C258 1.350 . S
C253 N261 1.427 . S
C254 H245 0.930 . S
C254 C252 1.378 . S
C254 C255 1.367 . S
C255 C254 1.367 . S
C255 C257 1.433 . S
C256 C252 1.350 . S
C256 C253 1.463 1_556 S
C256 N260 1.427 . S
C257 H247 0.929 . S
C257 C255 1.433 . S
C257 N260 1.384 . S
C258 H249 0.929 . S
C258 C250 1.378 . S
C258 C253 1.350 . S
C259 H246 0.929 . S
C259 C251 1.433 . S
C259 N261 1.384 . S
N260 C256 1.427 . S
N260 C257 1.384 . S
N261 C253 1.427 . S
N261 C259 1.384 . S
H262 C268 0.930 . S
H263 C272 0.930 . S
H264 C277 0.929 . S
H265 C275 0.929 . S
H266 C270 0.929 . S
H267 C276 0.929 . S
C268 H262 0.930 . S
C268 C269 1.367 . S
C268 C276 1.378 . S
C269 C268 1.367 . S
C269 C277 1.433 . S
C270 H266 0.929 . S
C270 C272 1.378 . S
C270 C274 1.350 . S
C271 C274 1.463 1_556 S
C271 C276 1.350 . S
C271 N279 1.427 . S
C272 H263 0.930 . S
C272 C270 1.378 . S
C272 C273 1.367 . S
C273 C272 1.367 . S
C273 C275 1.433 . S
C274 C270 1.350 . S
C274 C271 1.463 1_554 S
C274 N278 1.427 . S
C275 H265 0.929 . S
C275 C273 1.433 . S
C275 N278 1.384 . S
C276 H267 0.929 . S
C276 C268 1.378 . S
C276 C271 1.350 . S
C277 H264 0.929 . S
C277 C269 1.433 . S
C277 N279 1.384 . S
N278 C274 1.427 . S
N278 C275 1.384 . S
N279 C271 1.427 . S
N279 C277 1.384 . S
H280 C286 0.930 . S
H281 C290 0.930 . S
H282 C295 0.929 . S
H283 C293 0.929 . S
H284 C288 0.929 . S
H285 C294 0.929 . S
C286 H280 0.930 . S
C286 C287 1.367 . S
C286 C294 1.378 . S
C287 C286 1.367 . S
C287 C295 1.433 . S
C288 H284 0.929 . S
C288 C290 1.378 . S
C288 C292 1.350 . S
C289 C292 1.463 . S
C289 C294 1.350 . S
C289 N297 1.427 . S
C290 H281 0.930 . S
C290 C288 1.378 . S
C290 C291 1.367 . S
C291 C290 1.367 . S
C291 C293 1.433 . S
C292 C288 1.350 . S
C292 C289 1.463 . S
C292 N296 1.427 . S
C293 H283 0.929 . S
C293 C291 1.433 . S
C293 N296 1.384 . S
C294 H285 0.929 . S
C294 C286 1.378 . S
C294 C289 1.350 . S
C295 H282 0.929 . S
C295 C287 1.433 . S
C295 N297 1.384 . S
N296 C292 1.427 . S
N296 C293 1.384 . S
N297 C289 1.427 . S
N297 C295 1.384 . S
H298 C304 0.930 . S
H299 C308 0.930 . S
H300 C313 0.929 . S
H301 C311 0.929 . S
H302 C306 0.929 . S
H303 C312 0.929 . S
C304 H298 0.930 . S
C304 C305 1.367 . S
C304 C312 1.378 . S
C305 C304 1.367 . S
C305 C313 1.433 . S
C306 H302 0.929 . S
C306 C308 1.378 . S
C306 C310 1.350 . S
C307 C310 1.463 . S
C307 C312 1.350 . S
C307 N315 1.427 . S
C308 H299 0.930 . S
C308 C306 1.378 . S
C308 C309 1.367 . S
C309 C308 1.367 . S
C309 C311 1.433 . S
C310 C306 1.350 . S
C310 C307 1.463 . S
C310 N314 1.427 . S
C311 H301 0.929 . S
C311 C309 1.433 . S
C311 N314 1.384 . S
C312 H303 0.929 . S
C312 C304 1.378 . S
C312 C307 1.350 . S
C313 H300 0.929 . S
C313 C305 1.433 . S
C313 N315 1.384 . S
N314 C310 1.427 . S
N314 C311 1.384 . S
N315 C307 1.427 . S
N315 C313 1.384 . S
H316 C322 0.930 . S
H317 C326 0.930 . S
H318 C331 0.929 . S
H319 C329 0.929 . S
H320 C324 0.929 . S
H321 C330 0.929 . S
C322 H316 0.930 . S
C322 C323 1.367 . S
C322 C330 1.378 . S
C323 C322 1.367 . S
C323 C331 1.433 . S
C324 H320 0.929 . S
C324 C326 1.378 . S
C324 C328 1.350 . S
C325 C328 1.463 1_556 S
C325 C330 1.350 . S
C325 N333 1.427 . S
C326 H317 0.930 . S
C326 C324 1.378 . S
C326 C327 1.367 . S
C327 C326 1.367 . S
C327 C329 1.433 . S
C328 C324 1.350 . S
C328 C325 1.463 1_554 S
C328 N332 1.427 . S
C329 H319 0.929 . S
C329 C327 1.433 . S
C329 N332 1.384 . S
C330 H321 0.929 . S
C330 C322 1.378 . S
C330 C325 1.350 . S
C331 H318 0.929 . S
C331 C323 1.433 . S
C331 N333 1.384 . S
N332 C328 1.427 . S
N332 C329 1.384 . S
N333 C325 1.427 . S
N333 C331 1.384 . S
H334 C340 0.930 . S
H335 C344 0.930 . S
H336 C349 0.929 . S
H337 C347 0.929 . S
H338 C342 0.929 . S
H339 C348 0.929 . S
C340 H334 0.930 . S
C340 C341 1.367 . S
C340 C348 1.378 . S
C341 C340 1.367 . S
C341 C349 1.433 . S
C342 H338 0.929 . S
C342 C344 1.378 . S
C342 C346 1.350 . S
C343 C346 1.463 1_554 S
C343 C348 1.350 . S
C343 N351 1.427 . S
C344 H335 0.930 . S
C344 C342 1.378 . S
C344 C345 1.367 . S
C345 C344 1.367 . S
C345 C347 1.433 . S
C346 C342 1.350 . S
C346 C343 1.463 1_556 S
C346 N350 1.427 . S
C347 H337 0.929 . S
C347 C345 1.433 . S
C347 N350 1.384 . S
C348 H339 0.929 . S
C348 C340 1.378 . S
C348 C343 1.350 . S
C349 H336 0.929 . S
C349 C341 1.433 . S
C349 N351 1.384 . S
N350 C346 1.427 . S
N350 C347 1.384 . S
N351 C343 1.427 . S
N351 C349 1.384 . S
H352 C358 0.930 1_545 S
H353 C362 0.930 1_565 S
H354 C367 0.929 . S
H355 C365 0.929 . S
H356 C360 0.929 . S
H357 C366 0.929 . S
C358 H352 0.930 1_565 S
C358 C359 1.367 . S
C358 C366 1.378 1_565 S
C359 C358 1.367 . S
C359 C367 1.433 . S
C360 H356 0.929 . S
C360 C362 1.378 1_565 S
C360 C364 1.350 1_565 S
C361 C364 1.463 1_565 S
C361 C366 1.350 1_565 S
C361 N369 1.427 . S
C362 H353 0.930 1_545 S
C362 C360 1.378 1_545 S
C362 C363 1.367 . S
C363 C362 1.367 . S
C363 C365 1.433 . S
C364 C360 1.350 1_545 S
C364 C361 1.463 1_545 S
C364 N368 1.427 . S
C365 H355 0.929 . S
C365 C363 1.433 . S
C365 N368 1.384 . S
C366 H357 0.929 . S
C366 C358 1.378 1_545 S
C366 C361 1.350 1_545 S
C367 H354 0.929 . S
C367 C359 1.433 . S
C367 N369 1.384 . S
N368 C364 1.427 . S
N368 C365 1.384 . S
N369 C361 1.427 . S
N369 C367 1.384 . S
H370 C376 0.930 . S
H371 C380 0.930 . S
H372 C385 0.929 . S
H373 C383 0.929 . S
H374 C378 0.929 . S
H375 C384 0.929 . S
C376 H370 0.930 . S
C376 C377 1.367 1_545 S
C376 C384 1.378 . S
C377 C376 1.367 1_565 S
C377 C385 1.433 . S
C378 H374 0.929 . S
C378 C380 1.378 . S
C378 C382 1.350 1_565 S
C379 C382 1.463 1_565 S
C379 C384 1.350 1_565 S
C379 N387 1.427 . S
C380 H371 0.930 . S
C380 C378 1.378 . S
C380 C381 1.367 1_565 S
C381 C380 1.367 1_545 S
C381 C383 1.433 . S
C382 C378 1.350 1_545 S
C382 C379 1.463 1_545 S
C382 N386 1.427 . S
C383 H373 0.929 . S
C383 C381 1.433 . S
C383 N386 1.384 . S
C384 H375 0.929 . S
C384 C376 1.378 . S
C384 C379 1.350 1_545 S
C385 H372 0.929 . S
C385 C377 1.433 . S
C385 N387 1.384 . S
N386 C382 1.427 . S
N386 C383 1.384 . S
N387 C379 1.427 . S
N387 C385 1.384 . S
H388 C394 0.930 . S
H389 C398 0.930 . S
H390 C403 0.929 . S
H391 C401 0.929 . S
H392 C396 0.929 . S
H393 C402 0.929 . S
C394 H388 0.930 . S
C394 C395 1.367 . S
C394 C402 1.378 . S
C395 C394 1.367 . S
C395 C403 1.433 . S
C396 H392 0.929 . S
C396 C398 1.378 . S
C396 C400 1.350 . S
C397 C400 1.463 1_565 S
C397 C402 1.350 . S
C397 N405 1.427 . S
C398 H389 0.930 . S
C398 C396 1.378 . S
C398 C399 1.367 . S
C399 C398 1.367 . S
C399 C401 1.433 . S
C400 C396 1.350 . S
C400 C397 1.463 1_545 S
C400 N404 1.427 . S
C401 H391 0.929 . S
C401 C399 1.433 . S
C401 N404 1.384 . S
C402 H393 0.929 . S
C402 C394 1.378 . S
C402 C397 1.350 . S
C403 H390 0.929 . S
C403 C395 1.433 . S
C403 N405 1.384 . S
N404 C400 1.427 . S
N404 C401 1.384 . S
N405 C397 1.427 . S
N405 C403 1.384 . S
H406 C412 0.930 . S
H407 C416 0.930 . S
H408 C421 0.929 1_565 S
H409 C419 0.929 1_545 S
H410 C414 0.929 . S
H411 C420 0.929 . S
C412 H406 0.930 . S
C412 C413 1.367 . S
C412 C420 1.378 . S
C413 C412 1.367 . S
C413 C421 1.433 . S
C414 H410 0.929 . S
C414 C416 1.378 . S
C414 C418 1.350 . S
C415 C418 1.463 1_545 S
C415 C420 1.350 . S
C415 N423 1.427 1_545 S
C416 H407 0.930 . S
C416 C414 1.378 . S
C416 C417 1.367 . S
C417 C416 1.367 . S
C417 C419 1.433 . S
C418 C414 1.350 . S
C418 C415 1.463 1_565 S
C418 N422 1.427 1_565 S
C419 H409 0.929 1_565 S
C419 C417 1.433 . S
C419 N422 1.384 1_565 S
C420 H411 0.929 . S
C420 C412 1.378 . S
C420 C415 1.350 . S
C421 H408 0.929 1_545 S
C421 C413 1.433 . S
C421 N423 1.384 1_545 S
N422 C418 1.427 1_545 S
N422 C419 1.384 1_545 S
N423 C415 1.427 1_565 S
N423 C421 1.384 1_565 S
H424 C430 0.930 . S
H425 C434 0.930 . S
H426 C439 0.929 . S
H427 C437 0.929 . S
H428 C432 0.929 . S
H429 C438 0.929 . S
C430 H424 0.930 . S
C430 C431 1.367 . S
C430 C438 1.378 . S
C431 C430 1.367 . S
C431 C439 1.433 . S
C432 H428 0.929 . S
C432 C434 1.378 . S
C432 C436 1.350 . S
C433 C436 1.463 1_655 S
C433 C438 1.350 . S
C433 N441 1.427 . S
C434 H425 0.930 . S
C434 C432 1.378 . S
C434 C435 1.367 . S
C435 C434 1.367 . S
C435 C437 1.433 . S
C436 C432 1.350 . S
C436 C433 1.463 1_455 S
C436 N440 1.427 . S
C437 H427 0.929 . S
C437 C435 1.433 . S
C437 N440 1.384 . S
C438 H429 0.929 . S
C438 C430 1.378 . S
C438 C433 1.350 . S
C439 H426 0.929 . S
C439 C431 1.433 . S
C439 N441 1.384 . S
N440 C436 1.427 . S
N440 C437 1.384 . S
N441 C433 1.427 . S
N441 C439 1.384 . S
H442 C448 0.930 . S
H443 C452 0.930 . S
H444 C457 0.929 . S
H445 C455 0.929 . S
H446 C450 0.929 . S
H447 C456 0.929 . S
C448 H442 0.930 . S
C448 C449 1.367 . S
C448 C456 1.378 . S
C449 C448 1.367 . S
C449 C457 1.433 . S
C450 H446 0.929 . S
C450 C452 1.378 . S
C450 C454 1.350 . S
C451 C454 1.463 1_455 S
C451 C456 1.350 . S
C451 N459 1.427 . S
C452 H443 0.930 . S
C452 C450 1.378 . S
C452 C453 1.367 . S
C453 C452 1.367 . S
C453 C455 1.433 . S
C454 C450 1.350 . S
C454 C451 1.463 1_655 S
C454 N458 1.427 . S
C455 H445 0.929 . S
C455 C453 1.433 . S
C455 N458 1.384 . S
C456 H447 0.929 . S
C456 C448 1.378 . S
C456 C451 1.350 . S
C457 H444 0.929 . S
C457 C449 1.433 . S
C457 N459 1.384 . S
N458 C454 1.427 . S
N458 C455 1.384 . S
N459 C451 1.427 . S
N459 C457 1.384 . S
H460 C466 0.930 . S
H461 C470 0.930 . S
H462 C475 0.929 . S
H463 C473 0.929 . S
H464 C468 0.929 . S
H465 C474 0.929 . S
C466 H460 0.930 . S
C466 C467 1.367 . S
C466 C474 1.378 . S
C467 C466 1.367 . S
C467 C475 1.433 . S
C468 H464 0.929 . S
C468 C470 1.378 . S
C468 C472 1.350 . S
C469 C472 1.463 1_655 S
C469 C474 1.350 . S
C469 N477 1.427 . S
C470 H461 0.930 . S
C470 C468 1.378 . S
C470 C471 1.367 . S
C471 C470 1.367 . S
C471 C473 1.433 . S
C472 C468 1.350 . S
C472 C469 1.463 1_455 S
C472 N476 1.427 . S
C473 H463 0.929 . S
C473 C471 1.433 . S
C473 N476 1.384 . S
C474 H465 0.929 . S
C474 C466 1.378 . S
C474 C469 1.350 . S
C475 H462 0.929 . S
C475 C467 1.433 . S
C475 N477 1.384 . S
N476 C472 1.427 . S
N476 C473 1.384 . S
N477 C469 1.427 . S
N477 C475 1.384 . S
H478 C484 0.930 . S
H479 C488 0.930 . S
H480 C493 0.929 . S
H481 C491 0.929 . S
H482 C486 0.929 . S
H483 C492 0.929 . S
C484 H478 0.930 . S
C484 C485 1.367 . S
C484 C492 1.378 . S
C485 C484 1.367 . S
C485 C493 1.433 . S
C486 H482 0.929 . S
C486 C488 1.378 . S
C486 C490 1.350 . S
C487 C490 1.463 1_455 S
C487 C492 1.350 . S
C487 N495 1.427 . S
C488 H479 0.930 . S
C488 C486 1.378 . S
C488 C489 1.367 . S
C489 C488 1.367 . S
C489 C491 1.433 . S
C490 C486 1.350 . S
C490 C487 1.463 1_655 S
C490 N494 1.427 . S
C491 H481 0.929 . S
C491 C489 1.433 . S
C491 N494 1.384 . S
C492 H483 0.929 . S
C492 C484 1.378 . S
C492 C487 1.350 . S
C493 H480 0.929 . S
C493 C485 1.433 . S
C493 N495 1.384 . S
N494 C490 1.427 . S
N494 C491 1.384 . S
N495 C487 1.427 . S
N495 C493 1.384 . S
H496 C502 0.930 . S
H497 C506 0.930 . S
H498 C511 0.929 . S
H499 C509 0.929 . S
H500 C504 0.929 . S
H501 C510 0.929 . S
C502 H496 0.930 . S
C502 C503 1.367 . S
C502 C510 1.378 . S
C503 C502 1.367 . S
C503 C511 1.433 . S
C504 H500 0.929 . S
C504 C506 1.378 . S
C504 C508 1.350 . S
C505 C508 1.463 . S
C505 C510 1.350 . S
C505 N513 1.427 . S
C506 H497 0.930 . S
C506 C504 1.378 . S
C506 C507 1.367 . S
C507 C506 1.367 . S
C507 C509 1.433 . S
C508 C504 1.350 . S
C508 C505 1.463 . S
C508 N512 1.427 . S
C509 H499 0.929 . S
C509 C507 1.433 . S
C509 N512 1.384 . S
C510 H501 0.929 . S
C510 C502 1.378 . S
C510 C505 1.350 . S
C511 H498 0.929 . S
C511 C503 1.433 . S
C511 N513 1.384 . S
N512 C508 1.427 . S
N512 C509 1.384 . S
N513 C505 1.427 . S
N513 C511 1.384 . S
H514 C520 0.930 . S
H515 C524 0.930 . S
H516 C529 0.929 . S
H517 C527 0.929 . S
H518 C522 0.929 . S
H519 C528 0.929 . S
C520 H514 0.930 . S
C520 C521 1.367 . S
C520 C528 1.378 . S
C521 C520 1.367 . S
C521 C529 1.433 . S
C522 H518 0.929 . S
C522 C524 1.378 . S
C522 C526 1.350 . S
C523 C526 1.463 . S
C523 C528 1.350 . S
C523 N531 1.427 . S
C524 H515 0.930 . S
C524 C522 1.378 . S
C524 C525 1.367 . S
C525 C524 1.367 . S
C525 C527 1.433 . S
C526 C522 1.350 . S
C526 C523 1.463 . S
C526 N530 1.427 . S
C527 H517 0.929 . S
C527 C525 1.433 . S
C527 N530 1.384 . S
C528 H519 0.929 . S
C528 C520 1.378 . S
C528 C523 1.350 . S
C529 H516 0.929 . S
C529 C521 1.433 . S
C529 N531 1.384 . S
N530 C526 1.427 . S
N530 C527 1.384 . S
N531 C523 1.427 . S
N531 C529 1.384 . S
H532 C538 0.930 . S
H533 C542 0.930 . S
H534 C547 0.929 . S
H535 C545 0.929 . S
H536 C540 0.929 . S
H537 C546 0.929 . S
C538 H532 0.930 . S
C538 C539 1.367 . S
C538 C546 1.378 . S
C539 C538 1.367 . S
C539 C547 1.433 . S
C540 H536 0.929 . S
C540 C542 1.378 . S
C540 C544 1.350 . S
C541 C544 1.463 . S
C541 C546 1.350 . S
C541 N549 1.427 . S
C542 H533 0.930 . S
C542 C540 1.378 . S
C542 C543 1.367 . S
C543 C542 1.367 . S
C543 C545 1.433 . S
C544 C540 1.350 . S
C544 C541 1.463 . S
C544 N548 1.427 . S
C545 H535 0.929 . S
C545 C543 1.433 . S
C545 N548 1.384 . S
C546 H537 0.929 . S
C546 C538 1.378 . S
C546 C541 1.350 . S
C547 H534 0.929 . S
C547 C539 1.433 . S
C547 N549 1.384 . S
N548 C544 1.427 . S
N548 C545 1.384 . S
N549 C541 1.427 . S
N549 C547 1.384 . S
H550 C556 0.930 . S
H551 C560 0.930 . S
H552 C565 0.929 . S
H553 C563 0.929 . S
H554 C558 0.929 . S
H555 C564 0.929 . S
C556 H550 0.930 . S
C556 C557 1.367 . S
C556 C564 1.378 . S
C557 C556 1.367 . S
C557 C565 1.433 . S
C558 H554 0.929 . S
C558 C560 1.378 . S
C558 C562 1.350 . S
C559 C562 1.463 . S
C559 C564 1.350 . S
C559 N567 1.427 . S
C560 H551 0.930 . S
C560 C558 1.378 . S
C560 C561 1.367 . S
C561 C560 1.367 . S
C561 C563 1.433 . S
C562 C558 1.350 . S
C562 C559 1.463 . S
C562 N566 1.427 . S
C563 H553 0.929 . S
C563 C561 1.433 . S
C563 N566 1.384 . S
C564 H555 0.929 . S
C564 C556 1.378 . S
C564 C559 1.350 . S
C565 H552 0.929 . S
C565 C557 1.433 . S
C565 N567 1.384 . S
N566 C562 1.427 . S
N566 C563 1.384 . S
N567 C559 1.427 . S
N567 C565 1.384 . S
H568 C574 0.930 . S
H569 C578 0.930 . S
H570 C583 0.929 . S
H571 C581 0.929 . S
H572 C576 0.929 . S
H573 C582 0.929 . S
C574 H568 0.930 . S
C574 C575 1.367 . S
C574 C582 1.378 . S
C575 C574 1.367 . S
C575 C583 1.433 . S
C576 H572 0.929 . S
C576 C578 1.378 . S
C576 C580 1.350 . S
C577 C580 1.463 . S
C577 C582 1.350 . S
C577 N585 1.427 . S
C578 H569 0.930 . S
C578 C576 1.378 . S
C578 C579 1.367 . S
C579 C578 1.367 . S
C579 C581 1.433 . S
C580 C576 1.350 . S
C580 C577 1.463 . S
C580 N584 1.427 . S
C581 H571 0.929 . S
C581 C579 1.433 . S
C581 N584 1.384 . S
C582 H573 0.929 . S
C582 C574 1.378 . S
C582 C577 1.350 . S
C583 H570 0.929 . S
C583 C575 1.433 . S
C583 N585 1.384 . S
N584 C580 1.427 . S
N584 C581 1.384 . S
N585 C577 1.427 . S
N585 C583 1.384 . S
H586 C592 0.930 . S
H587 C596 0.930 . S
H588 C601 0.929 . S
H589 C599 0.929 . S
H590 C594 0.929 . S
H591 C600 0.929 . S
C592 H586 0.930 . S
C592 C593 1.367 . S
C592 C600 1.378 . S
C593 C592 1.367 . S
C593 C601 1.433 . S
C594 H590 0.929 . S
C594 C596 1.378 . S
C594 C598 1.350 . S
C595 C598 1.463 . S
C595 C600 1.350 . S
C595 N603 1.427 . S
C596 H587 0.930 . S
C596 C594 1.378 . S
C596 C597 1.367 . S
C597 C596 1.367 . S
C597 C599 1.433 . S
C598 C594 1.350 . S
C598 C595 1.463 . S
C598 N602 1.427 . S
C599 H589 0.929 . S
C599 C597 1.433 . S
C599 N602 1.384 . S
C600 H591 0.929 . S
C600 C592 1.378 . S
C600 C595 1.350 . S
C601 H588 0.929 . S
C601 C593 1.433 . S
C601 N603 1.384 . S
N602 C598 1.427 . S
N602 C599 1.384 . S
N603 C595 1.427 . S
N603 C601 1.384 . S
H604 C610 0.930 . S
H605 C614 0.930 . S
H606 C619 0.929 . S
H607 C617 0.929 . S
H608 C612 0.929 . S
H609 C618 0.929 . S
C610 H604 0.930 . S
C610 C611 1.367 . S
C610 C618 1.378 . S
C611 C610 1.367 . S
C611 C619 1.433 . S
C612 H608 0.929 . S
C612 C614 1.378 . S
C612 C616 1.350 . S
C613 C616 1.463 . S
C613 C618 1.350 . S
C613 N621 1.427 . S
C614 H605 0.930 . S
C614 C612 1.378 . S
C614 C615 1.367 . S
C615 C614 1.367 . S
C615 C617 1.433 . S
C616 C612 1.350 . S
C616 C613 1.463 . S
C616 N620 1.427 . S
C617 H607 0.929 . S
C617 C615 1.433 . S
C617 N620 1.384 . S
C618 H609 0.929 . S
C618 C610 1.378 . S
C618 C613 1.350 . S
C619 H606 0.929 . S
C619 C611 1.433 . S
C619 N621 1.384 . S
N620 C616 1.427 . S
N620 C617 1.384 . S
N621 C613 1.427 . S
N621 C619 1.384 . S
H622 C628 0.930 . S
H623 C632 0.930 . S
H624 C637 0.929 . S
H625 C635 0.929 . S
H626 C630 0.929 . S
H627 C636 0.929 . S
C628 H622 0.930 . S
C628 C629 1.367 . S
C628 C636 1.378 . S
C629 C628 1.367 . S
C629 C637 1.433 . S
C630 H626 0.929 . S
C630 C632 1.378 . S
C630 C634 1.350 . S
C631 C634 1.463 . S
C631 C636 1.350 . S
C631 N639 1.427 . S
C632 H623 0.930 . S
C632 C630 1.378 . S
C632 C633 1.367 . S
C633 C632 1.367 . S
C633 C635 1.433 . S
C634 C630 1.350 . S
C634 C631 1.463 . S
C634 N638 1.427 . S
C635 H625 0.929 . S
C635 C633 1.433 . S
C635 N638 1.384 . S
C636 H627 0.929 . S
C636 C628 1.378 . S
C636 C631 1.350 . S
C637 H624 0.929 . S
C637 C629 1.433 . S
C637 N639 1.384 . S
N638 C634 1.427 . S
N638 C635 1.384 . S
N639 C631 1.427 . S
N639 C637 1.384 . S
H640 C646 0.930 . S
H641 C650 0.930 . S
H642 C655 0.929 . S
H643 C653 0.929 . S
H644 C648 0.929 . S
H645 C654 0.929 . S
C646 H640 0.930 . S
C646 C647 1.367 1_565 S
C646 C654 1.378 . S
C647 C646 1.367 1_545 S
C647 C655 1.433 . S
C648 H644 0.929 . S
C648 C650 1.378 . S
C648 C652 1.350 1_545 S
C649 C652 1.463 1_545 S
C649 C654 1.350 1_545 S
C649 N657 1.427 . S
C650 H641 0.930 . S
C650 C648 1.378 . S
C650 C651 1.367 1_545 S
C651 C650 1.367 1_565 S
C651 C653 1.433 . S
C652 C648 1.350 1_565 S
C652 C649 1.463 1_565 S
C652 N656 1.427 . S
C653 H643 0.929 . S
C653 C651 1.433 . S
C653 N656 1.384 . S
C654 H645 0.929 . S
C654 C646 1.378 . S
C654 C649 1.350 1_565 S
C655 H642 0.929 . S
C655 C647 1.433 . S
C655 N657 1.384 . S
N656 C652 1.427 . S
N656 C653 1.384 . S
N657 C649 1.427 . S
N657 C655 1.384 . S
H658 C664 0.930 . S
H659 C668 0.930 . S
H660 C673 0.929 . S
H661 C671 0.929 . S
H662 C666 0.929 . S
H663 C672 0.929 . S
C664 H658 0.930 . S
C664 C665 1.367 . S
C664 C672 1.378 . S
C665 C664 1.367 . S
C665 C673 1.433 . S
C666 H662 0.929 . S
C666 C668 1.378 . S
C666 C670 1.350 . S
C667 C670 1.463 1_545 S
C667 C672 1.350 . S
C667 N675 1.427 1_545 S
C668 H659 0.930 . S
C668 C666 1.378 . S
C668 C669 1.367 . S
C669 C668 1.367 . S
C669 C671 1.433 . S
C670 C666 1.350 . S
C670 C667 1.463 1_565 S
C670 N674 1.427 1_565 S
C671 H661 0.929 . S
C671 C669 1.433 . S
C671 N674 1.384 1_565 S
C672 H663 0.929 . S
C672 C664 1.378 . S
C672 C667 1.350 . S
C673 H660 0.929 . S
C673 C665 1.433 . S
C673 N675 1.384 1_545 S
N674 C670 1.427 1_545 S
N674 C671 1.384 1_545 S
N675 C667 1.427 1_565 S
N675 C673 1.384 1_565 S
H676 C682 0.930 . S
H677 C686 0.930 . S
H678 C691 0.929 . S
H679 C689 0.929 . S
H680 C684 0.929 . S
H681 C690 0.929 . S
C682 H676 0.930 . S
C682 C683 1.367 . S
C682 C690 1.378 . S
C683 C682 1.367 . S
C683 C691 1.433 1_545 S
C684 H680 0.929 . S
C684 C686 1.378 . S
C684 C688 1.350 . S
C685 C688 1.463 1_545 S
C685 C690 1.350 . S
C685 N693 1.427 1_545 S
C686 H677 0.930 . S
C686 C684 1.378 . S
C686 C687 1.367 . S
C687 C686 1.367 . S
C687 C689 1.433 1_565 S
C688 C684 1.350 . S
C688 C685 1.463 1_565 S
C688 N692 1.427 1_565 S
C689 H679 0.929 . S
C689 C687 1.433 1_545 S
C689 N692 1.384 . S
C690 H681 0.929 . S
C690 C682 1.378 . S
C690 C685 1.350 . S
C691 H678 0.929 . S
C691 C683 1.433 1_565 S
C691 N693 1.384 . S
N692 C688 1.427 1_545 S
N692 C689 1.384 . S
N693 C685 1.427 1_565 S
N693 C691 1.384 . S
H694 C700 0.930 . S
H695 C704 0.930 . S
H696 C709 0.929 . S
H697 C707 0.929 . S
H698 C702 0.929 . S
H699 C708 0.929 . S
C700 H694 0.930 . S
C700 C701 1.367 . S
C700 C708 1.378 . S
C701 C700 1.367 . S
C701 C709 1.433 1_565 S
C702 H698 0.929 . S
C702 C704 1.378 . S
C702 C706 1.350 . S
C703 C706 1.463 1_565 S
C703 C708 1.350 . S
C703 N711 1.427 1_565 S
C704 H695 0.930 . S
C704 C702 1.378 . S
C704 C705 1.367 . S
C705 C704 1.367 . S
C705 C707 1.433 1_545 S
C706 C702 1.350 . S
C706 C703 1.463 1_545 S
C706 N710 1.427 1_545 S
C707 H697 0.929 . S
C707 C705 1.433 1_565 S
C707 N710 1.384 . S
C708 H699 0.929 . S
C708 C700 1.378 . S
C708 C703 1.350 . S
C709 H696 0.929 . S
C709 C701 1.433 1_545 S
C709 N711 1.384 . S
N710 C706 1.427 1_565 S
N710 C707 1.384 . S
N711 C703 1.427 1_545 S
N711 C709 1.384 . S
H712 C718 0.930 . S
H713 C722 0.930 . S
H714 C727 0.929 . S
H715 C725 0.929 . S
H716 C720 0.929 . S
H717 C726 0.929 . S
C718 H712 0.930 . S
C718 C719 1.367 . S
C718 C726 1.378 . S
C719 C718 1.367 . S
C719 C727 1.433 . S
C720 H716 0.929 . S
C720 C722 1.378 . S
C720 C724 1.350 . S
C721 C724 1.463 . S
C721 C726 1.350 . S
C721 N729 1.427 . S
C722 H713 0.930 . S
C722 C720 1.378 . S
C722 C723 1.367 . S
C723 C722 1.367 . S
C723 C725 1.433 . S
C724 C720 1.350 . S
C724 C721 1.463 . S
C724 N728 1.427 . S
C725 H715 0.929 . S
C725 C723 1.433 . S
C725 N728 1.384 . S
C726 H717 0.929 . S
C726 C718 1.378 . S
C726 C721 1.350 . S
C727 H714 0.929 . S
C727 C719 1.433 . S
C727 N729 1.384 . S
N728 C724 1.427 . S
N728 C725 1.384 . S
N729 C721 1.427 . S
N729 C727 1.384 . S
H730 C736 0.930 . S
H731 C740 0.930 . S
H732 C745 0.929 . S
H733 C743 0.929 . S
H734 C738 0.929 . S
H735 C744 0.929 . S
C736 H730 0.930 . S
C736 C737 1.367 . S
C736 C744 1.378 . S
C737 C736 1.367 . S
C737 C745 1.433 . S
C738 H734 0.929 . S
C738 C740 1.378 . S
C738 C742 1.350 . S
C739 C742 1.463 . S
C739 C744 1.350 . S
C739 N747 1.427 . S
C740 H731 0.930 . S
C740 C738 1.378 . S
C740 C741 1.367 . S
C741 C740 1.367 . S
C741 C743 1.433 . S
C742 C738 1.350 . S
C742 C739 1.463 . S
C742 N746 1.427 . S
C743 H733 0.929 . S
C743 C741 1.433 . S
C743 N746 1.384 . S
C744 H735 0.929 . S
C744 C736 1.378 . S
C744 C739 1.350 . S
C745 H732 0.929 . S
C745 C737 1.433 . S
C745 N747 1.384 . S
N746 C742 1.427 . S
N746 C743 1.384 . S
N747 C739 1.427 . S
N747 C745 1.384 . S
H748 C754 0.930 . S
H749 C758 0.930 . S
H750 C763 0.929 . S
H751 C761 0.929 . S
H752 C756 0.929 . S
H753 C762 0.929 . S
C754 H748 0.930 . S
C754 C755 1.367 . S
C754 C762 1.378 . S
C755 C754 1.367 . S
C755 C763 1.433 . S
C756 H752 0.929 . S
C756 C758 1.378 . S
C756 C760 1.350 . S
C757 C760 1.463 . S
C757 C762 1.350 . S
C757 N765 1.427 . S
C758 H749 0.930 . S
C758 C756 1.378 . S
C758 C759 1.367 . S
C759 C758 1.367 . S
C759 C761 1.433 . S
C760 C756 1.350 . S
C760 C757 1.463 . S
C760 N764 1.427 . S
C761 H751 0.929 . S
C761 C759 1.433 . S
C761 N764 1.384 . S
C762 H753 0.929 . S
C762 C754 1.378 . S
C762 C757 1.350 . S
C763 H750 0.929 . S
C763 C755 1.433 . S
C763 N765 1.384 . S
N764 C760 1.427 . S
N764 C761 1.384 . S
N765 C757 1.427 . S
N765 C763 1.384 . S
H766 C772 0.930 . S
H767 C776 0.930 . S
H768 C781 0.929 . S
H769 C779 0.929 . S
H770 C774 0.929 . S
H771 C780 0.929 . S
C772 H766 0.930 . S
C772 C773 1.367 . S
C772 C780 1.378 . S
C773 C772 1.367 . S
C773 C781 1.433 . S
C774 H770 0.929 . S
C774 C776 1.378 . S
C774 C778 1.350 . S
C775 C778 1.463 . S
C775 C780 1.350 . S
C775 N783 1.427 . S
C776 H767 0.930 . S
C776 C774 1.378 . S
C776 C777 1.367 . S
C777 C776 1.367 . S
C777 C779 1.433 . S
C778 C774 1.350 . S
C778 C775 1.463 . S
C778 N782 1.427 . S
C779 H769 0.929 . S
C779 C777 1.433 . S
C779 N782 1.384 . S
C780 H771 0.929 . S
C780 C772 1.378 . S
C780 C775 1.350 . S
C781 H768 0.929 . S
C781 C773 1.433 . S
C781 N783 1.384 . S
N782 C778 1.427 . S
N782 C779 1.384 . S
N783 C775 1.427 . S
N783 C781 1.384 . S
C215 C4 1.379 . S
C219 C69 1.373 . S
C233 C62 1.372 . S
C237 C23 1.380 . S
C251 C30 1.375 . S
C255 C101 1.376 . S
C269 C82 1.372 . S
C273 C43 1.380 . S
C287 C179 1.373 . S
C291 C114 1.379 . S
C305 C160 1.373 . S
C309 C121 1.378 . S
C323 C205 1.380 . S
C327 C134 1.372 . S
C341 C153 1.375 . S
C345 C186 1.376 . S
C359 C18 1.514 . S
C363 C3 1.512 . S
C377 C29 1.513 . S
C381 C42 1.513 . S
C395 C57 1.513 . S
C399 C68 1.515 . S
C413 C81 1.514 . S
C417 C96 1.516 . S
C431 C109 1.513 . S
C435 C120 1.515 . S
C449 C148 1.513 . S
C453 C133 1.515 . S
C467 C174 1.515 . S
C471 C159 1.513 . S
C485 C185 1.514 . S
C489 C200 1.516 . S
C503 C127 1.503 . S
C507 C10 1.503 . S
C521 C17 1.503 . S
C525 C108 1.501 . S
C539 C147 1.504 . S
C543 C36 1.502 . S
C557 C49 1.501 . S
C561 C140 1.503 . S
C575 C56 1.502 . S
C579 C173 1.502 . S
C593 C166 1.503 . S
C597 C75 1.502 . S
C611 C88 1.503 . S
C615 C199 1.501 . S
C629 C192 1.502 . S
C633 C95 1.503 . S
C647 C5 1.304 . S
C651 C31 1.303 . S
C665 C44 1.295 . S
C669 C16 1.302 . S
C683 C83 1.299 . S
C687 C55 1.294 . S
C701 C94 1.298 . S
C705 C70 1.294 . S
C719 C135 1.305 . S
C723 C107 1.300 . S
C737 C122 1.305 . S
C741 C146 1.303 . S
C755 C187 1.299 . S
C759 C161 1.294 . S
C773 C172 1.294 . S
C777 C198 1.300 . S
