# Generated by pormake.
# Topology umb, (4)-cn, num edge types: 1
# Building blocks:
#     Node 0, Type 0, BuildingBlock: MUDLON_clean_sbu_0, # of connection points: 4
#     Node 1, Type 0, BuildingBlock: MUDLON_clean_sbu_0, # of connection points: 4
#     Node 2, Type 0, BuildingBlock: MUDLON_clean_sbu_0, # of connection points: 4
#     Node 3, Type 0, BuildingBlock: MUDLON_clean_sbu_0, # of connection points: 4
#     Node 4, Type 0, BuildingBlock: MUDLON_clean_sbu_0, # of connection points: 4
#     Node 5, Type 0, BuildingBlock: MUDLON_clean_sbu_0, # of connection points: 4
#     Node 6, Type 0, BuildingBlock: MUDLON_clean_sbu_0, # of connection points: 4
#     Node 7, Type 0, BuildingBlock: MUDLON_clean_sbu_0, # of connection points: 4
#     Node 8, Type 0, BuildingBlock: MUDLON_clean_sbu_0, # of connection points: 4
#     Node 9, Type 0, BuildingBlock: MUDLON_clean_sbu_0, # of connection points: 4
#     Node 10, Type 0, BuildingBlock: MUDLON_clean_sbu_0, # of connection points: 4
#     Node 11, Type 0, BuildingBlock: MUDLON_clean_sbu_0, # of connection points: 4
#     Edge 12, Type (0, 0), BuildingBlock: UVAHIK_clean_linker_0, # of connection points: 2
#     Edge 13, Type (0, 0), BuildingBlock: UVAHIK_clean_linker_0, # of connection points: 2
#     Edge 14, Type (0, 0), BuildingBlock: UVAHIK_clean_linker_0, # of connection points: 2
#     Edge 15, Type (0, 0), BuildingBlock: UVAHIK_clean_linker_0, # of connection points: 2
#     Edge 16, Type (0, 0), BuildingBlock: UVAHIK_clean_linker_0, # of connection points: 2
#     Edge 17, Type (0, 0), BuildingBlock: UVAHIK_clean_linker_0, # of connection points: 2
#     Edge 18, Type (0, 0), BuildingBlock: UVAHIK_clean_linker_0, # of connection points: 2
#     Edge 19, Type (0, 0), BuildingBlock: UVAHIK_clean_linker_0, # of connection points: 2
#     Edge 20, Type (0, 0), BuildingBlock: UVAHIK_clean_linker_0, # of connection points: 2
#     Edge 21, Type (0, 0), BuildingBlock: UVAHIK_clean_linker_0, # of connection points: 2
#     Edge 22, Type (0, 0), BuildingBlock: UVAHIK_clean_linker_0, # of connection points: 2
#     Edge 23, Type (0, 0), BuildingBlock: UVAHIK_clean_linker_0, # of connection points: 2
#     Edge 24, Type (0, 0), BuildingBlock: UVAHIK_clean_linker_0, # of connection points: 2
#     Edge 25, Type (0, 0), BuildingBlock: UVAHIK_clean_linker_0, # of connection points: 2
#     Edge 26, Type (0, 0), BuildingBlock: UVAHIK_clean_linker_0, # of connection points: 2
#     Edge 27, Type (0, 0), BuildingBlock: UVAHIK_clean_linker_0, # of connection points: 2
#     Edge 28, Type (0, 0), BuildingBlock: UVAHIK_clean_linker_0, # of connection points: 2
#     Edge 29, Type (0, 0), BuildingBlock: UVAHIK_clean_linker_0, # of connection points: 2
#     Edge 30, Type (0, 0), BuildingBlock: UVAHIK_clean_linker_0, # of connection points: 2
#     Edge 31, Type (0, 0), BuildingBlock: UVAHIK_clean_linker_0, # of connection points: 2
#     Edge 32, Type (0, 0), BuildingBlock: UVAHIK_clean_linker_0, # of connection points: 2
#     Edge 33, Type (0, 0), BuildingBlock: UVAHIK_clean_linker_0, # of connection points: 2
#     Edge 34, Type (0, 0), BuildingBlock: UVAHIK_clean_linker_0, # of connection points: 2
#     Edge 35, Type (0, 0), BuildingBlock: UVAHIK_clean_linker_0, # of connection points: 2
# Relax obj value: 0.250
# Max RMSD: 0.216
# Mean RMSD: 0.216
data_MOF--net-umb--node1-MUDLON_clean_sbu_0--edge1-UVAHIK_clean_linker_0
_symmetry_space_group_name_H-M    P1
_symmetry_Int_Tables_number       1
_symmetry_cell_setting            triclinic
loop_
_symmetry_equiv_pos_as_xyz
'x, y, z'
_cell_length_a     61.540924
_cell_length_b     61.570264
_cell_length_c     52.893422
_cell_angle_alpha  89.939497
_cell_angle_beta   90.124439
_cell_angle_gamma 120.13164
loop_
_atom_site_label
_atom_site_type_symbol
_atom_site_fract_x
_atom_site_fract_y
_atom_site_fract_z
_atom_type_partial_charge
Mg0 Mg 0.54999 0.16834 0.32624 0.0
C1 C 0.59986 0.18241 0.29742 0.0
O2 O 0.58855 0.18224 0.27627 0.0
C3 C 0.53021 0.11615 0.30611 0.0
O4 O 0.54721 0.12886 0.28882 0.0
C5 C 0.55604 0.21156 0.29478 0.0
O6 O 0.57741 0.22213 0.30726 0.0
O7 O 0.53983 0.18882 0.29962 0.0
O8 O 0.58798 0.1773 0.31818 0.0
O9 O 0.55239 0.17885 0.36606 0.0
C10 C 0.56682 0.17361 0.37869 0.0
O11 O 0.57711 0.16213 0.36714 0.0
O12 O 0.52634 0.12804 0.32348 0.0
Mg13 Mg 0.35936 0.54862 0.67027 0.0
C14 C 0.35105 0.56632 0.72119 0.0
O15 O 0.35363 0.58513 0.70725 0.0
C16 C 0.3393 0.53493 0.61947 0.0
O17 O 0.36378 0.54913 0.61709 0.0
C18 C 0.38895 0.52215 0.65462 0.0
O19 O 0.37074 0.50944 0.63836 0.0
O20 O 0.38804 0.53818 0.669 0.0
O21 O 0.35002 0.54734 0.71036 0.0
O22 O 0.37788 0.58744 0.65876 0.0
C23 C 0.36481 0.59646 0.65007 0.0
O24 O 0.34029 0.58199 0.64856 0.0
O25 O 0.33016 0.52937 0.64168 0.0
Mg26 Mg 0.80445 0.37758 1.00319 0.0
C27 C 0.80775 0.42744 1.0088 0.0
O28 O 0.82142 0.42816 0.02822 0.0
C29 C 0.855 0.40755 0.97994 0.0
O30 O 0.8416 0.41339 0.96503 0.0
C31 C 0.76353 0.34554 0.96612 0.0
O32 O 0.75639 0.36159 0.97265 0.0
O33 O 0.78268 0.34688 0.97689 0.0
O34 O 0.79839 0.40843 0.99427 0.0
O35 O 0.79477 0.37005 0.04323 0.0
C36 C 0.81254 0.381 0.0592 0.0
O37 O 0.83576 0.39333 0.05086 0.0
O38 O 0.84407 0.39179 0.99762 0.0
Mg39 Mg 0.4488 0.80846 0.35452 0.0
C40 C 0.39613 0.79897 0.34103 0.0
O41 O 0.40787 0.81683 0.32423 0.0
C42 C 0.45632 0.85982 0.35868 0.0
O43 O 0.44099 0.84843 0.37765 0.0
C44 C 0.4559 0.7958 0.30232 0.0
O45 O 0.44949 0.813 0.29902 0.0
O46 O 0.45818 0.78984 0.32484 0.0
O47 O 0.40851 0.79208 0.35483 0.0
O48 O 0.45818 0.80512 0.39367 0.0
C49 C 0.44161 0.78697 0.40671 0.0
O50 O 0.42148 0.76945 0.39518 0.0
O51 O 0.4638 0.84764 0.34544 0.0
Mg52 Mg 0.62481 0.45496 0.67685 0.0
C53 C 0.64269 0.44619 0.72635 0.0
O54 O 0.64312 0.42879 0.71238 0.0
C55 C 0.65678 0.44167 0.64309 0.0
O56 O 0.64808 0.42216 0.65823 0.0
C57 C 0.5995 0.48544 0.6841 0.0
O58 O 0.60543 0.4843 0.70775 0.0
O59 O 0.60661 0.47596 0.66697 0.0
O60 O 0.63844 0.46224 0.7157 0.0
O61 O 0.5942 0.41703 0.68021 0.0
C62 C 0.58149 0.40159 0.66287 0.0
O63 O 0.58735 0.40774 0.63904 0.0
O64 O 0.65083 0.45839 0.64707 0.0
Mg65 Mg 0.17545 0.5976 0.99743 0.0
C66 C 0.17737 0.55128 0.97739 0.0
O67 O 0.16178 0.54975 0.95955 0.0
C68 C 0.12269 0.55775 0.99985 0.0
O69 O 0.13401 0.54956 1.01496 0.0
C70 C 0.19513 0.62431 0.94793 0.0
O71 O 0.17764 0.60208 0.94004 0.0
O72 O 0.19821 0.6284 0.97161 0.0
O73 O 0.1857 0.56908 0.9934 0.0
O74 O 0.18257 0.60691 0.0375 0.0
C75 C 0.16494 0.60335 0.05247 0.0
O76 O 0.14291 0.59747 0.04298 0.0
O77 O 0.13569 0.57898 0.98923 0.0
Mg78 Mg 0.80705 0.44015 0.36712 0.0
C79 C 0.7808 0.43036 0.31754 0.0
O80 O 0.76447 0.41082 0.33068 0.0
C81 C 0.7913 0.44048 0.42025 0.0
O82 O 0.80981 0.43588 0.42324 0.0
C83 C 0.86018 0.45886 0.35762 0.0
O84 O 0.84887 0.4445 0.33797 0.0
O85 O 0.84693 0.46182 0.37413 0.0
O86 O 0.79957 0.448 0.32901 0.0
O87 O 0.79945 0.40214 0.36232 0.0
C88 C 0.78975 0.38354 0.37729 0.0
O89 O 0.78282 0.38612 0.40003 0.0
O90 O 0.7855 0.44361 0.39797 0.0
Mg91 Mg 0.40041 0.82674 0.72225 0.0
C92 C 0.45157 0.83272 0.73932 0.0
O93 O 0.47313 0.84411 0.75143 0.0
C94 C 0.39699 0.86993 0.6988 0.0
O95 O 0.39402 0.85726 0.67787 0.0
C96 C 0.37061 0.80331 0.76871 0.0
O97 O 0.38915 0.82469 0.7772 0.0
O98 O 0.36983 0.7985 0.74523 0.0
O99 O 0.43576 0.83997 0.74275 0.0
O100 O 0.40272 0.81452 0.6839 0.0
C101 C 0.42244 0.82815 0.67101 0.0
O102 O 0.44037 0.84899 0.68112 0.0
O103 O 0.39779 0.86036 0.71982 0.0
Mg104 Mg 0.55826 0.38174 0.03578 0.0
C105 C 0.60391 0.4311 0.02703 0.0
O106 O 0.58836 0.43156 1.01029 0.0
C107 C 0.5277 0.40593 0.02384 0.0
O108 O 0.53367 0.40276 1.00085 0.0
C109 C 0.54303 0.35343 0.08431 0.0
O110 O 0.53899 0.3721 0.0888 0.0
O111 O 0.55075 0.35175 0.06249 0.0
O112 O 0.59608 0.41232 0.04177 0.0
O113 O 0.55806 0.37369 0.99566 0.0
C114 C 0.57719 0.37409 0.98604 0.0
O115 O 0.5947 0.37522 1.00116 0.0
O116 O 0.53431 0.39749 0.04245 0.0
Mg117 Mg 0.16721 0.53775 0.36623 0.0
C118 C 0.15555 0.52924 0.31116 0.0
O119 O 0.13313 0.5205 0.32105 0.0
C120 C 0.20775 0.53385 0.39484 0.0
O121 O 0.22187 0.55106 0.37822 0.0
C122 C 0.11865 0.52913 0.38909 0.0
O123 O 0.13431 0.54724 0.40413 0.0
O124 O 0.12731 0.52062 0.37248 0.0
O125 O 0.17418 0.53591 0.32597 0.0
O126 O 0.18282 0.57737 0.37289 0.0
C127 C 0.17537 0.58938 0.35925 0.0
O128 O 0.1577 0.57711 0.34233 0.0
O129 O 0.18402 0.5239 0.39336 0.0
Mg130 Mg 0.60613 0.18279 0.70108 0.0
C131 C 0.57142 0.19923 0.72761 0.0
O132 O 0.58074 0.1972 0.74927 0.0
C133 C 0.56811 0.13137 0.72019 0.0
O134 O 0.56392 0.1449 0.73652 0.0
C135 C 0.63536 0.19247 0.74976 0.0
O136 O 0.6169 0.16955 0.75402 0.0
O137 O 0.63655 0.20248 0.72836 0.0
O138 O 0.57902 0.19468 0.70708 0.0
O139 O 0.6153 0.19133 0.66112 0.0
C140 C 0.59572 0.18525 0.64791 0.0
O141 O 0.57382 0.17461 0.65932 0.0
O142 O 0.58585 0.14232 0.70433 0.0
Mg143 Mg 0.44097 0.62709 0.03425 0.0
C144 C 0.38699 0.60353 0.02843 0.0
O145 O 0.39549 0.627 0.02173 0.0
C146 C 0.45829 0.59386 0.05713 0.0
O147 O 0.44179 0.59138 0.07427 0.0
C148 C 0.43617 0.64864 0.08284 0.0
O149 O 0.41795 0.62515 0.0841 0.0
O150 O 0.44977 0.65595 0.06304 0.0
O151 O 0.40225 0.59773 0.03815 0.0
O152 O 0.44059 0.63552 0.994 0.0
C153 C 0.43001 0.61495 0.98165 0.0
O154 O 0.42445 0.59408 0.99362 0.0
O155 O 0.46287 0.60893 0.03883 0.0
C156 C 0.55646 0.1841 0.42143 0.0
C157 C 0.57254 0.18015 0.40575 0.0
C158 C 0.5614 0.18822 0.44743 0.0
C159 C 0.59722 0.17794 0.4983 0.0
H160 H 0.57987 0.22008 0.53771 0.0
C161 C 0.61759 0.19372 0.60577 0.0
C162 C 0.59678 0.18961 0.62029 0.0
C163 C 0.61716 0.19584 0.57938 0.0
C164 C 0.58482 0.20825 0.52691 0.0
H165 H 0.60715 0.17894 0.40468 0.0
H166 H 0.61618 0.18695 0.44944 0.0
H167 H 0.57405 0.21768 0.49189 0.0
H168 H 0.55969 0.18563 0.61866 0.0
H169 H 0.55909 0.18953 0.57299 0.0
H170 H 0.60794 0.16851 0.53334 0.0
C171 C 0.59925 0.18593 0.4421 0.0
C172 C 0.58135 0.20675 0.50067 0.0
C173 C 0.59414 0.18148 0.41633 0.0
C174 C 0.57599 0.18862 0.60803 0.0
C175 C 0.5757 0.19106 0.58183 0.0
C176 C 0.6009 0.17964 0.52446 0.0
C177 C 0.58269 0.1888 0.45816 0.0
C178 C 0.58725 0.19136 0.48602 0.0
C179 C 0.59608 0.19431 0.56714 0.0
C180 C 0.59446 0.19455 0.53911 0.0
H181 H 0.53966 0.18315 0.41378 0.0
H182 H 0.5481 0.19015 0.4592 0.0
H183 H 0.60153 0.16548 0.48782 0.0
H184 H 0.63386 0.19458 0.61469 0.0
H185 H 0.63321 0.19849 0.56852 0.0
C186 C 0.35362 0.58948 0.76113 0.0
C187 C 0.35422 0.56945 0.74904 0.0
C188 C 0.35999 0.59463 0.78673 0.0
C189 C 0.37081 0.56754 0.84549 0.0
H190 H 0.40825 0.63728 0.86643 0.0
C191 C 0.39656 0.59249 0.94971 0.0
C192 C 0.4202 0.61306 0.95573 0.0
C193 C 0.38747 0.58853 0.92499 0.0
C194 C 0.39802 0.61771 0.8609 0.0
H195 H 0.36151 0.5388 0.75464 0.0
H196 H 0.37315 0.54803 0.79892 0.0
H197 H 0.39429 0.62695 0.82272 0.0
H198 H 0.45258 0.64619 0.94083 0.0
H199 H 0.43719 0.63879 0.89703 0.0
H200 H 0.37559 0.55824 0.88315 0.0
C201 C 0.36725 0.55953 0.78889 0.0
C202 C 0.38963 0.61173 0.83584 0.0
C203 C 0.36059 0.55422 0.76338 0.0
C204 C 0.43428 0.6302 0.93663 0.0
C205 C 0.42536 0.62594 0.91159 0.0
C206 C 0.37942 0.57351 0.87039 0.0
C207 C 0.36742 0.58006 0.80088 0.0
C208 C 0.37588 0.58653 0.82775 0.0
C209 C 0.40201 0.6047 0.90535 0.0
C210 C 0.39306 0.59867 0.87856 0.0
H211 H 0.3487 0.60154 0.75067 0.0
H212 H 0.3593 0.61021 0.79534 0.0
H213 H 0.36005 0.54792 0.84022 0.0
H214 H 0.38506 0.57924 0.9642 0.0
H215 H 0.36905 0.57251 0.92128 0.0
C216 C 0.75942 0.40973 0.27691 0.0
C217 C 0.7805 0.42879 0.28954 0.0
C218 C 0.76054 0.40527 0.25114 0.0
C219 C 0.79993 0.43184 0.19311 0.0
H220 H 0.76806 0.36185 0.17307 0.0
C221 C 0.82695 0.40041 0.10193 0.0
C222 C 0.80726 0.3837 0.08604 0.0
C223 C 0.82204 0.40548 0.12632 0.0
C224 C 0.77684 0.38148 0.17832 0.0
H225 H 0.81901 0.45881 0.28469 0.0
H226 H 0.82119 0.45078 0.24006 0.0
H227 H 0.76219 0.37265 0.2159 0.0
H228 H 0.76698 0.3585 0.08378 0.0
H229 H 0.75847 0.36703 0.1268 0.0
H230 H 0.81529 0.44051 0.15571 0.0
C231 C 0.80356 0.43947 0.24982 0.0
C232 C 0.7734 0.38773 0.20286 0.0
C233 C 0.80234 0.44409 0.27553 0.0
C234 C 0.78258 0.37144 0.09553 0.0
C235 C 0.7777 0.37631 0.12014 0.0
C236 C 0.8036 0.42555 0.16871 0.0
C237 C 0.78286 0.4196 0.23738 0.0
C238 C 0.7851 0.41302 0.21069 0.0
C239 C 0.79735 0.39379 0.13559 0.0
C240 C 0.79232 0.40031 0.16113 0.0
H241 H 0.74225 0.39768 0.28712 0.0
H242 H 0.74402 0.39021 0.24214 0.0
H243 H 0.80883 0.45151 0.19818 0.0
H244 H 0.8462 0.41019 0.09533 0.0
H245 H 0.83761 0.41871 0.13793 0.0
C246 C 0.46182 0.80825 0.44781 0.0
C247 C 0.44263 0.78758 0.4348 0.0
C248 C 0.46072 0.81022 0.47413 0.0
C249 C 0.41431 0.78897 0.52569 0.0
H250 H 0.47274 0.81578 0.56944 0.0
C251 C 0.4063 0.799 0.63358 0.0
C252 C 0.42526 0.82107 0.64491 0.0
C253 C 0.40893 0.79285 0.6087 0.0
C254 C 0.45625 0.80846 0.55747 0.0
H255 H 0.40787 0.75215 0.43951 0.0
H256 H 0.4061 0.75553 0.48522 0.0
H257 H 0.47694 0.8089 0.5247 0.0
H258 H 0.46202 0.85385 0.639 0.0
H259 H 0.46631 0.84354 0.59565 0.0
H260 H 0.39371 0.78905 0.55817 0.0
C261 C 0.42179 0.77043 0.47508 0.0
C262 C 0.45868 0.80449 0.53181 0.0
C263 C 0.42293 0.76842 0.44884 0.0
C264 C 0.44702 0.83668 0.6309 0.0
C265 C 0.44959 0.83064 0.60603 0.0
C266 C 0.41191 0.79305 0.55129 0.0
C267 C 0.44037 0.7916 0.488 0.0
C268 C 0.43776 0.79484 0.51556 0.0
C269 C 0.43053 0.80873 0.5945 0.0
C270 C 0.43287 0.80305 0.56752 0.0
H271 H 0.47724 0.82338 0.4376 0.0
H272 H 0.47528 0.82685 0.48346 0.0
H273 H 0.39788 0.7819 0.51366 0.0
H274 H 0.38935 0.78649 0.64388 0.0
H275 H 0.39402 0.77562 0.60062 0.0
C276 C 0.60109 0.37523 0.94726 0.0
C277 C 0.58218 0.37835 0.95855 0.0
C278 C 0.60811 0.38236 0.92211 0.0
C279 C 0.61128 0.42698 0.87495 0.0
H280 H 0.61778 0.38385 0.82596 0.0
C281 C 0.6286 0.45261 0.76872 0.0
C282 C 0.64128 0.44333 0.75422 0.0
C283 C 0.62308 0.44587 0.79418 0.0
C284 C 0.61661 0.39642 0.83946 0.0
H285 H 0.55547 0.39101 0.9521 0.0
H286 H 0.56802 0.4038 0.90831 0.0
H287 H 0.60393 0.3686 0.86878 0.0
H288 H 0.65956 0.42109 0.75547 0.0
H289 H 0.65116 0.41042 0.8001 0.0
H290 H 0.62459 0.4551 0.84611 0.0
C291 C 0.57731 0.39572 0.91894 0.0
C292 C 0.60844 0.38752 0.86398 0.0
C293 C 0.56998 0.38817 0.94393 0.0
C294 C 0.64963 0.42842 0.76611 0.0
C295 C 0.64449 0.42204 0.79167 0.0
C296 C 0.61985 0.43606 0.85057 0.0
C297 C 0.59667 0.3932 0.90788 0.0
C298 C 0.60549 0.40263 0.88189 0.0
C299 C 0.63045 0.43001 0.8059 0.0
C300 C 0.62248 0.42085 0.83236 0.0
H301 H 0.61089 0.36779 0.95804 0.0
H302 H 0.62313 0.38027 0.91407 0.0
H303 H 0.60953 0.43918 0.88852 0.0
H304 H 0.62166 0.46391 0.76006 0.0
H305 H 0.612 0.45222 0.80426 0.0
C306 C 0.13845 0.53071 0.26875 0.0
C307 C 0.15924 0.5355 0.28382 0.0
C308 C 0.14175 0.53975 0.24404 0.0
C309 C 0.18388 0.56212 0.18962 0.0
H310 H 0.14784 0.597 0.17328 0.0
C311 C 0.19055 0.60527 0.09046 0.0
C312 C 0.16778 0.60137 0.08012 0.0
C313 C 0.1921 0.60013 0.11601 0.0
C314 C 0.15786 0.58713 0.17738 0.0
H315 H 0.19982 0.55249 0.28416 0.0
H316 H 0.20551 0.56795 0.2405 0.0
H317 H 0.14534 0.58077 0.21581 0.0
H318 H 0.12903 0.5898 0.08882 0.0
H319 H 0.13157 0.58052 0.13294 0.0
H320 H 0.19571 0.56768 0.15094 0.0
C321 C 0.18667 0.55734 0.24811 0.0
C322 C 0.15647 0.57789 0.2018 0.0
C323 C 0.1834 0.54846 0.27306 0.0
C324 C 0.1469 0.59314 0.09612 0.0
C325 C 0.14842 0.5879 0.12156 0.0
C326 C 0.18506 0.57115 0.16502 0.0
C327 C 0.1659 0.55364 0.23362 0.0
C328 C 0.16909 0.56491 0.20809 0.0
C329 C 0.17091 0.59093 0.13179 0.0
C330 C 0.1717 0.5834 0.15847 0.0
H331 H 0.11955 0.52067 0.27628 0.0
H332 H 0.12535 0.53621 0.23315 0.0
H333 H 0.19375 0.55213 0.19394 0.0
H334 H 0.20703 0.61165 0.07868 0.0
H335 H 0.20985 0.6031 0.1233 0.0
C336 C 0.76735 0.3366 0.38101 0.0
C337 C 0.78302 0.35851 0.36729 0.0
C338 C 0.75714 0.31308 0.36941 0.0
C339 C 0.73988 0.26416 0.34011 0.0
H340 H 0.70344 0.26887 0.2825 0.0
C341 C 0.64263 0.20474 0.2774 0.0
C342 C 0.62732 0.19267 0.29837 0.0
C343 C 0.66872 0.21932 0.28033 0.0
C344 C 0.7139 0.26686 0.29791 0.0
H345 H 0.80249 0.37278 0.33158 0.0
H346 H 0.78438 0.33182 0.3114 0.0
H347 H 0.73853 0.30651 0.29952 0.0
H348 H 0.62751 0.18371 0.33806 0.0
H349 H 0.6722 0.20966 0.34344 0.0
H350 H 0.71466 0.22449 0.33898 0.0
C351 C 0.77983 0.33284 0.33098 0.0
C352 C 0.73408 0.28864 0.30779 0.0
C353 C 0.7901 0.35629 0.34257 0.0
C354 C 0.63872 0.19321 0.32159 0.0
C355 C 0.66461 0.20795 0.32459 0.0
C356 C 0.71994 0.24223 0.3299 0.0
C357 C 0.76241 0.31114 0.34391 0.0
C358 C 0.74632 0.28765 0.32982 0.0
C359 C 0.67986 0.22232 0.30436 0.0
C360 C 0.70565 0.24352 0.30969 0.0
H361 H 0.76171 0.33767 0.40014 0.0
H362 H 0.74359 0.29664 0.37978 0.0
H363 H 0.74932 0.26289 0.35688 0.0
H364 H 0.63442 0.20428 0.25913 0.0
H365 H 0.67995 0.22951 0.26413 0.0
C366 C 0.42194 0.79161 0.71964 0.0
C367 C 0.44628 0.81234 0.72152 0.0
C368 C 0.4167 0.77243 0.70247 0.0
C369 C 0.44369 0.73888 0.67554 0.0
H370 H 0.38491 0.70997 0.63211 0.0
C371 C 0.40274 0.63822 0.64174 0.0
C372 C 0.37667 0.62361 0.6453 0.0
C373 C 0.41447 0.66438 0.64115 0.0
C374 C 0.40141 0.71777 0.64411 0.0
H375 H 0.48453 0.82904 0.70787 0.0
H376 H 0.47549 0.79473 0.67834 0.0
H377 H 0.39947 0.75096 0.65141 0.0
H378 H 0.34217 0.62465 0.64923 0.0
H379 H 0.36252 0.67002 0.64953 0.0
H380 H 0.44436 0.70491 0.67064 0.0
C381 C 0.46038 0.79385 0.6896 0.0
C382 C 0.40983 0.74133 0.65493 0.0
C383 C 0.46555 0.81326 0.70655 0.0
C384 C 0.36232 0.63546 0.64653 0.0
C385 C 0.37406 0.66159 0.64645 0.0
C386 C 0.43497 0.71509 0.6652 0.0
C387 C 0.43587 0.77337 0.68738 0.0
C388 C 0.43046 0.7516 0.67146 0.0
C389 C 0.4004 0.67642 0.64468 0.0
C390 C 0.41304 0.70376 0.65025 0.0
H391 H 0.407 0.7901 0.73159 0.0
H392 H 0.39779 0.75646 0.70157 0.0
H393 H 0.45957 0.7464 0.68838 0.0
H394 H 0.41419 0.62947 0.64027 0.0
H395 H 0.43469 0.67515 0.63906 0.0
C396 C 0.64751 0.45044 0.04433 0.0
C397 C 0.63106 0.44933 0.02529 0.0
C398 C 0.67341 0.46348 0.04026 0.0
C399 C 0.71206 0.46993 0.98853 0.0
H400 H 0.76647 0.50391 0.03665 0.0
C401 C 0.79273 0.45138 0.98317 0.0
C402 C 0.7993 0.44587 1.00671 0.0
C403 C 0.78028 0.46508 0.98179 0.0
C404 C 0.75152 0.49436 0.02296 0.0
H405 H 0.62884 0.46304 0.98808 0.0
H406 H 0.6741 0.48518 0.98076 0.0
H407 H 0.72727 0.50414 0.04288 0.0
H408 H 0.7999 0.45182 0.0471 0.0
H409 H 0.77672 0.4739 0.04506 0.0
H410 H 0.73442 0.45748 0.97014 0.0
C411 C 0.66694 0.47614 0.99885 0.0
C412 C 0.72921 0.49479 0.02643 0.0
C413 C 0.64105 0.4634 1.00306 0.0
C414 C 0.79497 0.45582 0.02869 0.0
C415 C 0.7818 0.46876 0.02741 0.0
C416 C 0.734 0.46894 0.98541 0.0
C417 C 0.68322 0.47534 1.01697 0.0
C418 C 0.70891 0.48158 1.00985 0.0
C419 C 0.77323 0.47258 1.00401 0.0
C420 C 0.75355 0.47998 1.00334 0.0
H421 H 0.64032 0.43998 0.06175 0.0
H422 H 0.68554 0.46238 0.05447 0.0
H423 H 0.69661 0.45939 0.97556 0.0
H424 H 0.79635 0.44428 0.96591 0.0
H425 H 0.77494 0.46847 0.96334 0.0
C426 C 0.35338 0.78782 0.32484 0.0
C427 C 0.36859 0.78635 0.34384 0.0
C428 C 0.32717 0.77366 0.32675 0.0
C429 C 0.27506 0.73424 0.37112 0.0
H430 H 0.24625 0.69011 0.31336 0.0
C431 C 0.20643 0.62999 0.37925 0.0
C432 C 0.1889 0.61709 0.35999 0.0
C433 C 0.22222 0.65594 0.37786 0.0
C434 C 0.2536 0.70263 0.32945 0.0
H435 H 0.36841 0.77036 0.38048 0.0
H436 H 0.32305 0.74575 0.38371 0.0
H437 H 0.2869 0.72808 0.30936 0.0
H438 H 0.17277 0.62144 0.32515 0.0
H439 H 0.20065 0.66689 0.32261 0.0
H440 H 0.24247 0.70775 0.39167 0.0
C441 C 0.33115 0.75781 0.36739 0.0
C442 C 0.27697 0.72445 0.32714 0.0
C443 C 0.3572 0.77168 0.36538 0.0
C444 C 0.18623 0.63086 0.34021 0.0
C445 C 0.2022 0.65686 0.33871 0.0
C446 C 0.2517 0.7124 0.37344 0.0
C447 C 0.31582 0.75814 0.34785 0.0
C448 C 0.28852 0.73971 0.34834 0.0
C449 C 0.2209 0.66952 0.3571 0.0
C450 C 0.24141 0.6957 0.35299 0.0
H451 H 0.36168 0.79909 0.30808 0.0
H452 H 0.31579 0.7743 0.31143 0.0
H453 H 0.28333 0.74596 0.38763 0.0
H454 H 0.20877 0.61992 0.39484 0.0
H455 H 0.2366 0.66506 0.3922 0.0
C456 C 0.55566 0.35542 0.65444 0.0
C457 C 0.56203 0.37603 0.67028 0.0
C458 C 0.54158 0.33098 0.66392 0.0
C459 C 0.51046 0.2797 0.68877 0.0
H460 H 0.54831 0.28111 0.74803 0.0
C461 C 0.54823 0.2185 0.74796 0.0
C462 C 0.55426 0.20944 0.72631 0.0
C463 C 0.53577 0.23218 0.74563 0.0
C464 C 0.53673 0.27994 0.73206 0.0
H465 H 0.556 0.38742 0.70719 0.0
H466 H 0.53129 0.34487 0.72355 0.0
H467 H 0.55008 0.31918 0.73408 0.0
H468 H 0.54943 0.20507 0.68559 0.0
H469 H 0.52903 0.22955 0.68142 0.0
H470 H 0.49808 0.24051 0.68619 0.0
C471 C 0.53762 0.34749 0.70411 0.0
C472 C 0.53784 0.30199 0.72395 0.0
C473 C 0.55183 0.37183 0.69475 0.0
C474 C 0.54552 0.21222 0.70265 0.0
C475 C 0.53338 0.22604 0.7003 0.0
C476 C 0.50906 0.25747 0.69712 0.0
C477 C 0.53356 0.3269 0.68928 0.0
C478 C 0.52594 0.30241 0.7014 0.0
C479 C 0.52943 0.23726 0.72159 0.0
C480 C 0.52356 0.25773 0.71789 0.0
H481 H 0.56316 0.35815 0.63546 0.0
H482 H 0.53888 0.3155 0.65205 0.0
H483 H 0.50072 0.27942 0.67159 0.0
H484 H 0.55427 0.21621 0.76652 0.0
H485 H 0.53245 0.24 0.76252 0.0
C486 C 0.18992 0.52269 0.95646 0.0
C487 C 0.18684 0.53359 0.97845 0.0
C488 C 0.20465 0.51123 0.9571 0.0
C489 C 0.25752 0.52127 0.96046 0.0
H490 H 0.278 0.50778 0.02517 0.0
C491 C 0.3477 0.59042 1.00425 0.0
C492 C 0.36199 0.5838 1.01972 0.0
C493 C 0.3251 0.57203 0.99395 0.0
C494 C 0.27258 0.51091 1.00663 0.0
H495 H 0.19314 0.53769 1.0189 0.0
H496 H 0.21891 0.51854 0.02011 0.0
H497 H 0.23353 0.49021 1.01591 0.0
H498 H 0.36377 0.55256 0.03656 0.0
H499 H 0.32342 0.52016 1.01899 0.0
H500 H 0.29662 0.54293 0.95169 0.0
C501 C 0.21034 0.51855 1.00223 0.0
C502 C 0.24706 0.50099 1.00136 0.0
C503 C 0.19581 0.53001 1.00153 0.0
C504 C 0.35303 0.55824 0.02483 0.0
C505 C 0.33011 0.5397 1.01464 0.0
C506 C 0.28294 0.53073 0.96552 0.0
C507 C 0.21646 0.51061 0.97975 0.0
C508 C 0.23953 0.50851 0.97943 0.0
C509 C 0.31605 0.54647 0.9989 0.0
C510 C 0.2907 0.52777 0.98963 0.0
H511 H 0.18277 0.52485 0.93847 0.0
H512 H 0.20849 0.50478 0.93954 0.0
H513 H 0.25261 0.52705 0.94305 0.0
H514 H 0.35404 0.60989 0.99981 0.0
H515 H 0.31436 0.57797 0.98255 0.0
C516 C 0.52497 0.07555 0.29009 0.0
C517 C 0.5184 0.08851 0.30749 0.0
C518 C 0.51632 0.04996 0.29324 0.0
C519 C 0.46953 0.99274 0.32701 0.0
H520 H 0.52013 0.97313 0.32072 0.0
C521 C 0.45504 0.8992 0.36664 0.0
C522 C 0.46344 0.88587 0.35194 0.0
C523 C 0.46093 0.92346 0.35981 0.0
C524 C 0.50568 0.97819 0.32222 0.0
H525 H 0.4966 0.0845 0.34117 0.0
H526 H 0.48165 0.03993 0.34672 0.0
H527 H 0.53076 0.01588 0.31028 0.0
H528 H 0.48468 0.88759 0.31855 0.0
H529 H 0.49481 0.9299 0.30655 0.0
H530 H 0.44452 0.95509 0.33922 0.0
C531 C 0.49338 0.04949 0.33056 0.0
C532 C 0.51176 0.00269 0.3162 0.0
C533 C 0.50204 0.07508 0.32743 0.0
C534 C 0.47802 0.8974 0.33036 0.0
C535 C 0.48389 0.92168 0.32352 0.0
C536 C 0.46344 0.96822 0.33301 0.0
C537 C 0.50088 0.03678 0.31382 0.0
C538 C 0.49381 0.0103 0.31871 0.0
C539 C 0.47532 0.93494 0.33812 0.0
C540 C 0.48151 0.96073 0.33089 0.0
H541 H 0.53742 0.0853 0.27443 0.0
H542 H 0.52208 0.04057 0.27979 0.0
H543 H 0.45521 -0.00204 0.32884 0.0
H544 H 0.44382 0.89088 0.38342 0.0
H545 H 0.45439 0.93333 0.3717 0.0
C546 C 0.42786 0.52879 0.67629 0.0
C547 C 0.41103 0.51874 0.65588 0.0
C548 C 0.4493 0.52659 0.67728 0.0
C549 C 0.47726 0.49051 0.65113 0.0
H550 H 0.53861 0.54575 0.67882 0.0
C551 C 0.57014 0.48915 0.65398 0.0
C552 C 0.58165 0.49409 0.67792 0.0
C553 C 0.55085 0.49428 0.64915 0.0
C554 C 0.52159 0.53018 0.67108 0.0
H555 H 0.40343 0.49838 0.62052 0.0
H556 H 0.44128 0.49497 0.62196 0.0
H557 H 0.50149 0.55001 0.67416 0.0
H558 H 0.58286 0.50948 0.71511 0.0
H559 H 0.54934 0.51873 0.70652 0.0
H560 H 0.49755 0.47078 0.64799 0.0
C561 C 0.43764 0.5042 0.63744 0.0
C562 C 0.50028 0.53253 0.66851 0.0
C563 C 0.41599 0.50621 0.63656 0.0
C564 C 0.57432 0.50541 0.69651 0.0
C565 C 0.55521 0.51079 0.69157 0.0
C566 C 0.49867 0.48827 0.65347 0.0
C567 C 0.45463 0.51451 0.65776 0.0
C568 C 0.47773 0.51257 0.65889 0.0
C569 C 0.54291 0.50473 0.66804 0.0
C570 C 0.52092 0.50795 0.66379 0.0
H571 H 0.42446 0.53836 0.69161 0.0
H572 H 0.4616 0.53421 0.69353 0.0
H573 H 0.46016 0.47464 0.64396 0.0
H574 H 0.57536 0.48045 0.63923 0.0
H575 H 0.54185 0.4897 0.63076 0.0
C576 C 0.895 0.44093 0.9606 0.0
C577 C 0.88266 0.42095 0.97775 0.0
C578 C 0.92121 0.45504 0.96005 0.0
C579 C 0.97859 0.45449 0.97912 0.0
H580 H 0.00868 0.52696 0.98054 0.0
C581 C 0.08126 0.51955 1.00843 0.0
C582 C 0.09539 0.54225 0.9953 0.0
C583 C 0.05553 0.50457 1.0041 0.0
C584 C 0.00062 0.50678 0.97974 0.0
H585 H 0.88813 0.39954 1.00716 0.0
H586 H 0.93386 0.42416 1.00616 0.0
H587 H 0.96326 0.50053 0.9762 0.0
H588 H 0.09365 0.56706 0.96726 0.0
H589 H 0.0486 0.54069 0.95948 0.0
H590 H 0.01588 0.46068 0.98286 0.0
C591 C 0.92327 0.42885 0.99308 0.0
C592 C 0.97461 0.49164 0.97726 0.0
C593 C 0.89707 0.41483 0.99373 0.0
C594 C 0.08323 0.5497 0.97774 0.0
C595 C 0.05743 0.53465 0.97335 0.0
C596 C 0.0046 0.46961 0.98149 0.0
C597 C 0.93559 0.44934 0.97651 0.0
C598 C 0.96331 0.46534 0.97726 0.0
C599 C 0.04332 0.51188 0.98647 0.0
C600 C 0.01587 0.49592 0.9822 0.0
H601 H 0.88445 0.44609 0.94799 0.0
H602 H 0.93023 0.47055 0.94688 0.0
H603 H 0.97042 0.43428 0.9788 0.0
H604 H 0.09003 0.51332 0.02219 0.0
H605 H 0.04513 0.48739 1.01488 0.0
C606 C 0.07592 0.50523 0.36973 0.0
C607 C 0.09164 0.52113 0.38896 0.0
C608 C 0.05113 0.49987 0.36772 0.0
C609 C -0.00109 0.49848 0.402 0.0
H610 H 0.9772 0.50507 0.33494 0.0
C611 C 0.89976 0.48386 0.38281 0.0
C612 C 0.88749 0.46955 0.36126 0.0
C613 C 0.92529 0.49245 0.38682 0.0
C614 C 0.98288 0.50294 0.35374 0.0
H615 H 0.09332 0.54299 0.42182 0.0
H616 H 0.04969 0.53331 0.4184 0.0
H617 H 0.02019 0.51431 0.34151 0.0
H618 H 0.89246 0.45342 0.32682 0.0
H619 H 0.93662 0.46798 0.33396 0.0
H620 H 0.96137 0.48648 0.41412 0.0
C621 C 0.05674 0.52516 0.40486 0.0
C622 C 0.0075 0.50825 0.35749 0.0
C623 C 0.08169 0.53071 0.40677 0.0
C624 C 0.90134 0.46445 0.34358 0.0
C625 C 0.92675 0.47295 0.34761 0.0
C626 C 0.97415 0.49297 0.39821 0.0
C627 C 0.04143 0.51013 0.38497 0.0
C628 C 0.01565 0.50571 0.38156 0.0
C629 C 0.939 0.48689 0.36935 0.0
C630 C 0.96577 0.49478 0.37394 0.0
H631 H 0.08295 0.49746 0.35573 0.0
H632 H 0.03958 0.48788 0.35245 0.0
H633 H 0.00472 0.49631 0.42072 0.0
H634 H 0.88959 0.48814 0.39676 0.0
H635 H 0.93426 0.50339 0.4036 0.0
C636 C 0.54929 0.09131 0.6957 0.0
C637 C 0.55017 0.10421 0.71791 0.0
C638 C 0.53055 0.06633 0.69228 0.0
C639 C 0.46765 0.01875 0.71634 0.0
H640 H 0.48243 0.97248 0.68116 0.0
C641 C 0.40805 0.91039 0.72005 0.0
C642 C 0.40604 0.89711 0.69774 0.0
C643 C 0.42212 0.93658 0.72042 0.0
C644 C 0.47793 0.9853 0.69065 0.0
H645 H 0.53275 0.10081 0.75439 0.0
H646 H 0.50063 0.05688 0.74891 0.0
H647 H 0.51557 0.01576 0.68729 0.0
H648 H 0.4153 0.9009 0.65781 0.0
H649 H 0.44006 0.94668 0.65858 0.0
H650 H 0.43017 0.98768 0.7206 0.0
C651 C 0.51388 0.06628 0.73373 0.0
C652 C 0.49692 0.01013 0.6942 0.0
C653 C 0.53245 0.09138 0.73701 0.0
C654 C 0.41656 0.91058 0.67532 0.0
C655 C 0.43087 0.93676 0.67577 0.0
C656 C 0.44871 0.99378 0.71307 0.0
C657 C 0.51245 0.05356 0.71115 0.0
C658 C 0.49208 0.02717 0.70718 0.0
C659 C 0.43458 0.9499 0.69854 0.0
C660 C 0.45372 0.97684 0.70025 0.0
H661 H 0.56254 0.10075 0.68052 0.0
H662 H 0.52986 0.0573 0.67451 0.0
H663 H 0.4631 0.03146 0.72599 0.0
H664 H 0.4 0.90051 0.73759 0.0
H665 H 0.4247 0.94627 0.73823 0.0
C666 C 0.46416 0.56031 0.07729 0.0
C667 C 0.46859 0.57674 0.05698 0.0
C668 C 0.47152 0.54225 0.07585 0.0
C669 C 0.51111 0.52398 0.03855 0.0
H670 H 0.46423 0.45716 0.06332 0.0
C671 C 0.51679 0.43761 1.00848 0.0
C672 C 0.51729 0.4226 0.02824 0.0
C673 C 0.51025 0.45587 1.01322 0.0
C674 C 0.47754 0.47579 0.0565 0.0
H675 H 0.48482 0.58757 1.0195 0.0
H676 H 0.49705 0.55585 1.01671 0.0
H677 H 0.45552 0.49129 0.07013 0.0
H678 H 0.50998 0.41399 0.06818 0.0
H679 H 0.49805 0.44573 0.07632 0.0
H680 H 0.53266 0.50819 0.02422 0.0
C681 C 0.48837 0.55712 0.03401 0.0
C682 C 0.47268 0.49539 0.06052 0.0
C683 C 0.48124 0.57529 0.03555 0.0
C684 C 0.50985 0.42534 0.05259 0.0
C685 C 0.50299 0.44344 0.05726 0.0
C686 C 0.51577 0.50435 0.03428 0.0
C687 C 0.48329 0.54013 0.05397 0.0
C688 C 0.4893 0.51968 0.05136 0.0
C689 C 0.50376 0.45927 0.03773 0.0
C690 C 0.49892 0.48004 0.04298 0.0
H691 H 0.45456 0.56107 0.09413 0.0
H692 H 0.46773 0.52977 0.09176 0.0
H693 H 0.52459 0.54253 0.03172 0.0
H694 H 0.52238 0.43596 0.9895 0.0
H695 H 0.51063 0.46764 0.99778 0.0
C696 C 0.57013 0.25049 0.26896 0.0
C697 C 0.55196 0.2254 0.27405 0.0
C698 C 0.56718 0.26329 0.24862 0.0
C699 C 0.5348 0.25298 0.1872 0.0
H700 H 0.55423 0.32309 0.19446 0.0
C701 C 0.54802 0.31813 0.10189 0.0
C702 C 0.54049 0.33607 0.10507 0.0
C703 C 0.54739 0.30325 0.12228 0.0
C704 C 0.54848 0.30345 0.19212 0.0
H705 H 0.51621 0.19416 0.26182 0.0
H706 H 0.51097 0.21663 0.22634 0.0
H707 H 0.55644 0.30004 0.23084 0.0
H708 H 0.52543 0.35168 0.13196 0.0
H709 H 0.52406 0.32566 0.16723 0.0
H710 H 0.52667 0.25643 0.14844 0.0
C711 C 0.52765 0.2263 0.238 0.0
C712 C 0.55002 0.2903 0.21295 0.0
C713 C 0.53057 0.21349 0.25845 0.0
C714 C 0.53158 0.33822 0.12885 0.0
C715 C 0.53093 0.32338 0.14916 0.0
C716 C 0.53331 0.26618 0.1663 0.0
C717 C 0.54599 0.25133 0.23277 0.0
C718 C 0.54334 0.26495 0.21074 0.0
C719 C 0.53921 0.306 0.14628 0.0
C720 C 0.5402 0.29161 0.16849 0.0
H721 H 0.58689 0.26024 0.28051 0.0
H722 H 0.58184 0.28243 0.24497 0.0
H723 H 0.52972 0.23353 0.18478 0.0
H724 H 0.55501 0.316 0.08383 0.0
H725 H 0.55407 0.29018 0.11942 0.0
C726 C 0.24549 0.53797 0.41735 0.0
C727 C 0.21945 0.52855 0.41676 0.0
C728 C 0.25703 0.5354 0.43903 0.0
C729 C 0.24487 0.50225 0.50103 0.0
H730 H 0.30907 0.56039 0.51808 0.0
C731 C 0.2971 0.51853 0.59821 0.0
C732 C 0.32323 0.5285 0.5966 0.0
C733 C 0.28293 0.51572 0.57634 0.0
C734 C 0.29126 0.5439 0.51349 0.0
H735 H 0.18496 0.50822 0.43827 0.0
H736 H 0.20516 0.5042 0.4763 0.0
H737 H 0.28748 0.56077 0.47977 0.0
H738 H 0.35463 0.54185 0.5706 0.0
H739 H 0.33008 0.53695 0.53288 0.0
H740 H 0.24871 0.48574 0.53536 0.0
C741 C 0.21667 0.51327 0.45988 0.0
C742 C 0.27889 0.54405 0.49142 0.0
C743 C 0.20508 0.51566 0.43807 0.0
C744 C 0.33461 0.53441 0.57264 0.0
C745 C 0.32056 0.5317 0.55096 0.0
C746 C 0.25723 0.50219 0.52333 0.0
C747 C 0.24288 0.52357 0.46082 0.0
C748 C 0.25567 0.52315 0.48468 0.0
C749 C 0.2947 0.52296 0.55258 0.0
C750 C 0.28072 0.52293 0.52961 0.0
H751 H 0.25709 0.54778 0.4012 0.0
H752 H 0.27717 0.543 0.43879 0.0
H753 H 0.22709 0.48576 0.4964 0.0
H754 H 0.28778 0.51381 0.6164 0.0
H755 H 0.263 0.50892 0.57815 0.0
C756 C 0.72968 0.32659 0.93323 0.0
C757 C 0.75086 0.32788 0.94485 0.0
C758 C 0.71874 0.31148 0.91197 0.0
C759 C 0.71476 0.25806 0.8758 0.0
H760 H 0.69159 0.28465 0.82229 0.0
C761 C 0.64968 0.19661 0.7948 0.0
C762 C 0.65254 0.20735 0.77068 0.0
C763 C 0.66393 0.21117 0.81529 0.0
C764 C 0.69823 0.27702 0.83687 0.0
H765 H 0.77685 0.31381 0.94344 0.0
H766 H 0.75786 0.28755 0.90617 0.0
H767 H 0.7117 0.31006 0.85955 0.0
H768 H 0.67346 0.24164 0.749 0.0
H769 H 0.6986 0.26698 0.78469 0.0
H770 H 0.70153 0.22511 0.8529 0.0
C771 C 0.74956 0.29809 0.91367 0.0
C772 C 0.70945 0.29148 0.85845 0.0
C773 C 0.7605 0.3132 0.93502 0.0
C774 C 0.67069 0.23279 0.76734 0.0
C775 C 0.68498 0.24736 0.78785 0.0
C776 C 0.70353 0.24358 0.85417 0.0
C777 C 0.72873 0.2973 0.90168 0.0
C778 C 0.71761 0.2821 0.87834 0.0
C779 C 0.68145 0.23685 0.81219 0.0
C780 C 0.69491 0.25278 0.83452 0.0
H781 H 0.72165 0.33751 0.94037 0.0
H782 H 0.70241 0.31094 0.90358 0.0
H783 H 0.72071 0.25018 0.89077 0.0
H784 H 0.63588 0.17708 0.79809 0.0
H785 H 0.66049 0.20246 0.83376 0.0
C786 C 0.46276 0.68933 0.10633 0.0
C787 C 0.44094 0.66557 0.10472 0.0
C788 C 0.46737 0.70445 0.12779 0.0
C789 C 0.4478 0.70074 0.19516 0.0
H790 H 0.47612 0.77263 0.1885 0.0
C791 C 0.46508 0.76391 0.28272 0.0
C792 C 0.45865 0.78271 0.28003 0.0
C793 C 0.46617 0.75082 0.26151 0.0
C794 C 0.46808 0.75255 0.19073 0.0
H795 H 0.40658 0.63943 0.12416 0.0
H796 H 0.41423 0.66581 0.16094 0.0
H797 H 0.47097 0.74743 0.15108 0.0
H798 H 0.44875 0.80274 0.25279 0.0
H799 H 0.45012 0.77974 0.21622 0.0
H800 H 0.44382 0.70563 0.23457 0.0
C801 C 0.42821 0.67261 0.14608 0.0
C802 C 0.46542 0.73812 0.16925 0.0
C803 C 0.4237 0.65751 0.12481 0.0
C804 C 0.45384 0.78843 0.25563 0.0
C805 C 0.45482 0.77532 0.23453 0.0
C806 C 0.45033 0.71513 0.21659 0.0
C807 C 0.4502 0.69618 0.14805 0.0
C808 C 0.45484 0.71194 0.1711 0.0
C809 C 0.46078 0.75617 0.23714 0.0
C810 C 0.46015 0.7412 0.21464 0.0
H811 H 0.47647 0.69606 0.09123 0.0
H812 H 0.48459 0.72241 0.12868 0.0
H813 H 0.44004 0.68071 0.19746 0.0
H814 H 0.469 0.75911 0.30121 0.0
H815 H 0.47118 0.73645 0.26425 0.0
C816 C 0.67469 0.4592 0.60034 0.0
C817 C 0.67187 0.44322 0.62062 0.0
C818 C 0.68756 0.45944 0.57845 0.0
C819 C 0.7099 0.42118 0.54441 0.0
H820 H 0.74873 0.48235 0.50576 0.0
C821 C 0.77908 0.43103 0.46571 0.0
C822 C 0.77718 0.44125 0.44259 0.0
C823 C 0.76579 0.43144 0.48691 0.0
C824 C 0.73777 0.4651 0.51628 0.0
H825 H 0.68108 0.41559 0.63416 0.0
H826 H 0.70436 0.4167 0.59658 0.0
H827 H 0.72741 0.48327 0.54428 0.0
H828 H 0.76004 0.46018 0.42367 0.0
H829 H 0.73714 0.46137 0.46108 0.0
H830 H 0.72104 0.4033 0.51673 0.0
C831 C 0.69592 0.42846 0.59707 0.0
C832 C 0.72545 0.46555 0.53834 0.0
C833 C 0.68274 0.42796 0.61878 0.0
C834 C 0.76183 0.4521 0.4412 0.0
C835 C 0.74884 0.45289 0.46261 0.0
C836 C 0.72251 0.42084 0.5226 0.0
C837 C 0.69824 0.44394 0.57641 0.0
C838 C 0.71137 0.4436 0.55278 0.0
C839 C 0.75058 0.44242 0.48563 0.0
C840 C 0.73662 0.44278 0.50834 0.0
H841 H 0.66637 0.47107 0.60107 0.0
H842 H 0.68855 0.47135 0.5629 0.0
H843 H 0.69879 0.40374 0.55454 0.0
H844 H 0.79068 0.42248 0.46742 0.0
H845 H 0.76765 0.42341 0.50446 0.0
C846 C 0.23142 0.66712 0.93754 0.0
C847 C 0.21182 0.64365 0.92943 0.0
C848 C 0.24785 0.68476 0.92 0.0
C849 C 0.25482 0.70137 0.85173 0.0
H850 H 0.32583 0.73839 0.86806 0.0
C851 C 0.33161 0.76199 0.77808 0.0
C852 C 0.3515 0.78515 0.78653 0.0
C853 C 0.31402 0.74484 0.79525 0.0
C854 C 0.30604 0.72842 0.86329 0.0
H855 H 0.19394 0.62052 0.89642 0.0
H856 H 0.22265 0.65111 0.86599 0.0
H857 H 0.29614 0.70879 0.89858 0.0
H858 H 0.36825 0.80851 0.81966 0.0
H859 H 0.33764 0.77883 0.84937 0.0
H860 H 0.26483 0.72096 0.81633 0.0
C861 C 0.2252 0.65604 0.88586 0.0
C862 C 0.28898 0.71146 0.88084 0.0
C863 C 0.20879 0.63842 0.90336 0.0
C864 C 0.35326 0.79082 0.81246 0.0
C865 C 0.33576 0.77371 0.82957 0.0
C866 C 0.27191 0.71834 0.83414 0.0
C867 C 0.24507 0.67937 0.89394 0.0
C868 C 0.26314 0.69772 0.87532 0.0
C869 C 0.31599 0.75045 0.82124 0.0
C870 C 0.29773 0.73212 0.83973 0.0
H871 H 0.23426 0.6718 0.95745 0.0
H872 H 0.26271 0.70268 0.92689 0.0
H873 H 0.23503 0.69136 0.84695 0.0
H874 H 0.32972 0.75701 0.75824 0.0
H875 H 0.29915 0.727 0.78822 0.0
loop_
_geom_bond_atom_site_label_1
_geom_bond_atom_site_label_2
_geom_bond_distance
_geom_bond_site_symmetry_2
_ccdc_geom_bond_type
Mg0 O7 2.141 . S
Mg0 O8 2.048 . S
Mg0 O9 2.048 . S
Mg0 O12 2.141 . S
C1 O2 1.313 . S
C1 O8 1.195 . S
O2 C1 1.313 . S
C3 O4 1.245 . S
C3 O12 1.289 . S
O4 C3 1.245 . S
C5 O6 1.245 . S
C5 O7 1.289 . S
O6 C5 1.245 . S
O7 Mg0 2.141 . S
O7 C5 1.289 . S
O8 Mg0 2.048 . S
O8 C1 1.195 . S
O9 Mg0 2.048 . S
O9 C10 1.195 . S
C10 O9 1.195 . S
C10 O11 1.313 . S
O11 C10 1.313 . S
O12 Mg0 2.141 . S
O12 C3 1.289 . S
Mg13 O20 2.141 . S
Mg13 O21 2.048 . S
Mg13 O22 2.048 . S
Mg13 O25 2.141 . S
C14 O15 1.313 . S
C14 O21 1.195 . S
O15 C14 1.313 . S
C16 O17 1.245 . S
C16 O25 1.289 . S
O17 C16 1.245 . S
C18 O19 1.245 . S
C18 O20 1.289 . S
O19 C18 1.245 . S
O20 Mg13 2.141 . S
O20 C18 1.289 . S
O21 Mg13 2.048 . S
O21 C14 1.195 . S
O22 Mg13 2.048 . S
O22 C23 1.195 . S
C23 O22 1.195 . S
C23 O24 1.313 . S
O24 C23 1.313 . S
O25 Mg13 2.141 . S
O25 C16 1.289 . S
Mg26 O33 2.154 . S
Mg26 O34 2.047 1_556 S
Mg26 O35 2.035 1_556 S
Mg26 O38 2.143 . S
C27 O28 1.313 1_554 S
C27 O34 1.195 . S
O28 C27 1.313 1_556 S
C29 O30 1.245 . S
C29 O38 1.289 . S
O30 C29 1.245 . S
C31 O32 1.245 . S
C31 O33 1.289 . S
O32 C31 1.245 . S
O33 Mg26 2.154 . S
O33 C31 1.289 . S
O34 Mg26 2.047 1_554 S
O34 C27 1.195 . S
O35 Mg26 2.035 1_554 S
O35 C36 1.195 . S
C36 O35 1.195 . S
C36 O37 1.313 . S
O37 C36 1.313 . S
O38 Mg26 2.143 . S
O38 C29 1.289 . S
Mg39 O46 2.141 . S
Mg39 O47 2.048 . S
Mg39 O48 2.048 . S
Mg39 O51 2.141 . S
C40 O41 1.313 . S
C40 O47 1.195 . S
O41 C40 1.313 . S
C42 O43 1.245 . S
C42 O51 1.289 . S
O43 C42 1.245 . S
C44 O45 1.245 . S
C44 O46 1.289 . S
O45 C44 1.245 . S
O46 Mg39 2.141 . S
O46 C44 1.289 . S
O47 Mg39 2.048 . S
O47 C40 1.195 . S
O48 Mg39 2.048 . S
O48 C49 1.195 . S
C49 O48 1.195 . S
C49 O50 1.313 . S
O50 C49 1.313 . S
O51 Mg39 2.141 . S
O51 C42 1.289 . S
Mg52 O59 2.141 . S
Mg52 O60 2.048 . S
Mg52 O61 2.048 . S
Mg52 O64 2.141 . S
C53 O54 1.313 . S
C53 O60 1.195 . S
O54 C53 1.313 . S
C55 O56 1.245 . S
C55 O64 1.289 . S
O56 C55 1.245 . S
C57 O58 1.245 . S
C57 O59 1.289 . S
O58 C57 1.245 . S
O59 Mg52 2.141 . S
O59 C57 1.289 . S
O60 Mg52 2.048 . S
O60 C53 1.195 . S
O61 Mg52 2.048 . S
O61 C62 1.195 . S
C62 O61 1.195 . S
C62 O63 1.313 . S
O63 C62 1.313 . S
O64 Mg52 2.141 . S
O64 C55 1.289 . S
Mg65 O72 2.154 . S
Mg65 O73 2.047 1_556 S
Mg65 O74 2.035 1_556 S
Mg65 O77 2.143 . S
C66 O67 1.313 1_554 S
C66 O73 1.195 . S
O67 C66 1.313 1_556 S
C68 O69 1.245 . S
C68 O77 1.289 . S
O69 C68 1.245 . S
C70 O71 1.245 . S
C70 O72 1.289 . S
O71 C70 1.245 . S
O72 Mg65 2.154 . S
O72 C70 1.289 . S
O73 Mg65 2.047 1_554 S
O73 C66 1.195 . S
O74 Mg65 2.035 1_554 S
O74 C75 1.195 . S
C75 O74 1.195 . S
C75 O76 1.313 . S
O76 C75 1.313 . S
O77 Mg65 2.143 . S
O77 C68 1.289 . S
Mg78 O85 2.141 . S
Mg78 O86 2.048 . S
Mg78 O87 2.048 . S
Mg78 O90 2.141 . S
C79 O80 1.313 . S
C79 O86 1.195 . S
O80 C79 1.313 . S
C81 O82 1.245 . S
C81 O90 1.289 . S
O82 C81 1.245 . S
C83 O84 1.245 . S
C83 O85 1.289 . S
O84 C83 1.245 . S
O85 Mg78 2.141 . S
O85 C83 1.289 . S
O86 Mg78 2.048 . S
O86 C79 1.195 . S
O87 Mg78 2.048 . S
O87 C88 1.195 . S
C88 O87 1.195 . S
C88 O89 1.313 . S
O89 C88 1.313 . S
O90 Mg78 2.141 . S
O90 C81 1.289 . S
Mg91 O98 2.141 . S
Mg91 O99 2.048 . S
Mg91 O100 2.048 . S
Mg91 O103 2.141 . S
C92 O93 1.313 . S
C92 O99 1.195 . S
O93 C92 1.313 . S
C94 O95 1.245 . S
C94 O103 1.289 . S
O95 C94 1.245 . S
C96 O97 1.245 . S
C96 O98 1.289 . S
O97 C96 1.245 . S
O98 Mg91 2.141 . S
O98 C96 1.289 . S
O99 Mg91 2.048 . S
O99 C92 1.195 . S
O100 Mg91 2.048 . S
O100 C101 1.195 . S
C101 O100 1.195 . S
C101 O102 1.313 . S
O102 C101 1.313 . S
O103 Mg91 2.141 . S
O103 C94 1.289 . S
Mg104 O111 2.141 1_556 S
Mg104 O112 2.048 . S
Mg104 O113 2.048 . S
Mg104 O116 2.140 1_556 S
C105 O106 1.313 . S
C105 O112 1.195 . S
O106 C105 1.313 . S
C107 O108 1.245 . S
C107 O116 1.294 . S
O108 C107 1.245 . S
C109 O110 1.245 . S
C109 O111 1.289 . S
O110 C109 1.245 . S
O111 Mg104 2.141 1_554 S
O111 C109 1.289 . S
O112 Mg104 2.048 . S
O112 C105 1.195 . S
O113 Mg104 2.048 . S
O113 C114 1.195 . S
C114 O113 1.195 . S
C114 O115 1.313 . S
O115 C114 1.313 . S
O116 Mg104 2.140 1_554 S
O116 C107 1.294 . S
Mg117 O124 2.141 . S
Mg117 O125 2.048 . S
Mg117 O126 2.048 . S
Mg117 O129 2.141 . S
C118 O119 1.313 . S
C118 O125 1.195 . S
O119 C118 1.313 . S
C120 O121 1.245 . S
C120 O129 1.289 . S
O121 C120 1.245 . S
C122 O123 1.245 . S
C122 O124 1.289 . S
O123 C122 1.245 . S
O124 Mg117 2.141 . S
O124 C122 1.289 . S
O125 Mg117 2.048 . S
O125 C118 1.195 . S
O126 Mg117 2.048 . S
O126 C127 1.195 . S
C127 O126 1.195 . S
C127 O128 1.313 . S
O128 C127 1.313 . S
O129 Mg117 2.141 . S
O129 C120 1.289 . S
Mg130 O137 2.141 . S
Mg130 O138 2.048 . S
Mg130 O139 2.048 . S
Mg130 O142 2.141 . S
C131 O132 1.313 . S
C131 O138 1.195 . S
O132 C131 1.313 . S
C133 O134 1.245 . S
C133 O142 1.289 . S
O134 C133 1.245 . S
C135 O136 1.245 . S
C135 O137 1.289 . S
O136 C135 1.245 . S
O137 Mg130 2.141 . S
O137 C135 1.289 . S
O138 Mg130 2.048 . S
O138 C131 1.195 . S
O139 Mg130 2.048 . S
O139 C140 1.195 . S
C140 O139 1.195 . S
C140 O141 1.313 . S
O141 C140 1.313 . S
O142 Mg130 2.141 . S
O142 C133 1.289 . S
Mg143 O150 2.141 1_556 S
Mg143 O151 2.048 . S
Mg143 O152 2.048 . S
Mg143 O155 2.140 1_556 S
C144 O145 1.313 . S
C144 O151 1.195 . S
O145 C144 1.313 . S
C146 O147 1.245 . S
C146 O155 1.294 . S
O147 C146 1.245 . S
C148 O149 1.245 . S
C148 O150 1.289 . S
O149 C148 1.245 . S
O150 Mg143 2.141 1_554 S
O150 C148 1.289 . S
O151 Mg143 2.048 . S
O151 C144 1.195 . S
O152 Mg143 2.048 . S
O152 C153 1.195 . S
C153 O152 1.195 . S
C153 O154 1.313 . S
O154 C153 1.313 . S
O155 Mg143 2.140 1_554 S
O155 C146 1.294 . S
C156 C157 1.349 . S
C156 C158 1.327 . S
C156 H181 0.950 . S
C157 C156 1.349 . S
C157 C173 1.349 . S
C158 C156 1.327 . S
C158 C177 1.429 . S
C158 H182 0.950 . S
C159 C176 1.574 . S
C159 C178 1.368 . S
C159 H183 0.949 . S
H160 C164 0.949 . S
C161 C162 1.349 . S
C161 C163 1.327 . S
C161 H184 0.950 . S
C162 C161 1.349 . S
C162 C174 1.349 . S
C163 C161 1.327 . S
C163 C179 1.429 . S
C163 H185 0.950 . S
C164 H160 0.949 . S
C164 C172 1.574 . S
C164 C180 1.368 . S
H165 C173 0.950 . S
H166 C171 0.950 . S
H167 C172 0.949 . S
H168 C174 0.950 . S
H169 C175 0.950 . S
H170 C176 0.949 . S
C171 H166 0.950 . S
C171 C173 1.327 . S
C171 C177 1.429 . S
C172 C164 1.574 . S
C172 H167 0.949 . S
C172 C178 1.368 . S
C173 C157 1.349 . S
C173 H165 0.950 . S
C173 C171 1.327 . S
C174 C162 1.349 . S
C174 H168 0.950 . S
C174 C175 1.327 . S
C175 H169 0.950 . S
C175 C174 1.327 . S
C175 C179 1.429 . S
C176 C159 1.574 . S
C176 H170 0.949 . S
C176 C180 1.368 . S
C177 C158 1.429 . S
C177 C171 1.429 . S
C177 C178 1.523 . S
C178 C159 1.368 . S
C178 C172 1.368 . S
C178 C177 1.523 . S
C179 C163 1.429 . S
C179 C175 1.429 . S
C179 C180 1.523 . S
C180 C164 1.368 . S
C180 C176 1.368 . S
C180 C179 1.523 . S
H181 C156 0.950 . S
H182 C158 0.950 . S
H183 C159 0.949 . S
H184 C161 0.950 . S
H185 C163 0.950 . S
C186 C187 1.349 . S
C186 C188 1.327 . S
C186 H211 0.950 . S
C187 C186 1.349 . S
C187 C203 1.349 . S
C188 C186 1.327 . S
C188 C207 1.429 . S
C188 H212 0.950 . S
C189 C206 1.574 . S
C189 C208 1.368 . S
C189 H213 0.949 . S
H190 C194 0.949 . S
C191 C192 1.349 . S
C191 C193 1.327 . S
C191 H214 0.950 . S
C192 C191 1.349 . S
C192 C204 1.349 . S
C193 C191 1.327 . S
C193 C209 1.429 . S
C193 H215 0.950 . S
C194 H190 0.949 . S
C194 C202 1.574 . S
C194 C210 1.368 . S
H195 C203 0.950 . S
H196 C201 0.950 . S
H197 C202 0.949 . S
H198 C204 0.950 . S
H199 C205 0.950 . S
H200 C206 0.949 . S
C201 H196 0.950 . S
C201 C203 1.327 . S
C201 C207 1.429 . S
C202 C194 1.574 . S
C202 H197 0.949 . S
C202 C208 1.368 . S
C203 C187 1.349 . S
C203 H195 0.950 . S
C203 C201 1.327 . S
C204 C192 1.349 . S
C204 H198 0.950 . S
C204 C205 1.327 . S
C205 H199 0.950 . S
C205 C204 1.327 . S
C205 C209 1.429 . S
C206 C189 1.574 . S
C206 H200 0.949 . S
C206 C210 1.368 . S
C207 C188 1.429 . S
C207 C201 1.429 . S
C207 C208 1.523 . S
C208 C189 1.368 . S
C208 C202 1.368 . S
C208 C207 1.523 . S
C209 C193 1.429 . S
C209 C205 1.429 . S
C209 C210 1.523 . S
C210 C194 1.368 . S
C210 C206 1.368 . S
C210 C209 1.523 . S
H211 C186 0.950 . S
H212 C188 0.950 . S
H213 C189 0.949 . S
H214 C191 0.950 . S
H215 C193 0.950 . S
C216 C217 1.349 . S
C216 C218 1.327 . S
C216 H241 0.950 . S
C217 C216 1.349 . S
C217 C233 1.349 . S
C218 C216 1.327 . S
C218 C237 1.429 . S
C218 H242 0.950 . S
C219 C236 1.574 . S
C219 C238 1.368 . S
C219 H243 0.949 . S
H220 C224 0.949 . S
C221 C222 1.349 . S
C221 C223 1.327 . S
C221 H244 0.950 . S
C222 C221 1.349 . S
C222 C234 1.349 . S
C223 C221 1.327 . S
C223 C239 1.429 . S
C223 H245 0.950 . S
C224 H220 0.949 . S
C224 C232 1.574 . S
C224 C240 1.368 . S
H225 C233 0.950 . S
H226 C231 0.950 . S
H227 C232 0.949 . S
H228 C234 0.950 . S
H229 C235 0.950 . S
H230 C236 0.949 . S
C231 H226 0.950 . S
C231 C233 1.327 . S
C231 C237 1.429 . S
C232 C224 1.574 . S
C232 H227 0.949 . S
C232 C238 1.368 . S
C233 C217 1.349 . S
C233 H225 0.950 . S
C233 C231 1.327 . S
C234 C222 1.349 . S
C234 H228 0.950 . S
C234 C235 1.327 . S
C235 H229 0.950 . S
C235 C234 1.327 . S
C235 C239 1.429 . S
C236 C219 1.574 . S
C236 H230 0.949 . S
C236 C240 1.368 . S
C237 C218 1.429 . S
C237 C231 1.429 . S
C237 C238 1.523 . S
C238 C219 1.368 . S
C238 C232 1.368 . S
C238 C237 1.523 . S
C239 C223 1.429 . S
C239 C235 1.429 . S
C239 C240 1.523 . S
C240 C224 1.368 . S
C240 C236 1.368 . S
C240 C239 1.523 . S
H241 C216 0.950 . S
H242 C218 0.950 . S
H243 C219 0.949 . S
H244 C221 0.950 . S
H245 C223 0.950 . S
C246 C247 1.349 . S
C246 C248 1.327 . S
C246 H271 0.950 . S
C247 C246 1.349 . S
C247 C263 1.349 . S
C248 C246 1.327 . S
C248 C267 1.429 . S
C248 H272 0.950 . S
C249 C266 1.574 . S
C249 C268 1.368 . S
C249 H273 0.949 . S
H250 C254 0.949 . S
C251 C252 1.349 . S
C251 C253 1.327 . S
C251 H274 0.950 . S
C252 C251 1.349 . S
C252 C264 1.349 . S
C253 C251 1.327 . S
C253 C269 1.429 . S
C253 H275 0.950 . S
C254 H250 0.949 . S
C254 C262 1.574 . S
C254 C270 1.368 . S
H255 C263 0.950 . S
H256 C261 0.950 . S
H257 C262 0.949 . S
H258 C264 0.950 . S
H259 C265 0.950 . S
H260 C266 0.949 . S
C261 H256 0.950 . S
C261 C263 1.327 . S
C261 C267 1.429 . S
C262 C254 1.574 . S
C262 H257 0.949 . S
C262 C268 1.368 . S
C263 C247 1.349 . S
C263 H255 0.950 . S
C263 C261 1.327 . S
C264 C252 1.349 . S
C264 H258 0.950 . S
C264 C265 1.327 . S
C265 H259 0.950 . S
C265 C264 1.327 . S
C265 C269 1.429 . S
C266 C249 1.574 . S
C266 H260 0.949 . S
C266 C270 1.368 . S
C267 C248 1.429 . S
C267 C261 1.429 . S
C267 C268 1.523 . S
C268 C249 1.368 . S
C268 C262 1.368 . S
C268 C267 1.523 . S
C269 C253 1.429 . S
C269 C265 1.429 . S
C269 C270 1.523 . S
C270 C254 1.368 . S
C270 C266 1.368 . S
C270 C269 1.523 . S
H271 C246 0.950 . S
H272 C248 0.950 . S
H273 C249 0.949 . S
H274 C251 0.950 . S
H275 C253 0.950 . S
C276 C277 1.349 . S
C276 C278 1.327 . S
C276 H301 0.950 . S
C277 C276 1.349 . S
C277 C293 1.349 . S
C278 C276 1.327 . S
C278 C297 1.429 . S
C278 H302 0.950 . S
C279 C296 1.574 . S
C279 C298 1.368 . S
C279 H303 0.949 . S
H280 C284 0.949 . S
C281 C282 1.349 . S
C281 C283 1.327 . S
C281 H304 0.950 . S
C282 C281 1.349 . S
C282 C294 1.349 . S
C283 C281 1.327 . S
C283 C299 1.429 . S
C283 H305 0.950 . S
C284 H280 0.949 . S
C284 C292 1.574 . S
C284 C300 1.368 . S
H285 C293 0.950 . S
H286 C291 0.950 . S
H287 C292 0.949 . S
H288 C294 0.950 . S
H289 C295 0.950 . S
H290 C296 0.949 . S
C291 H286 0.950 . S
C291 C293 1.327 . S
C291 C297 1.429 . S
C292 C284 1.574 . S
C292 H287 0.949 . S
C292 C298 1.368 . S
C293 C277 1.349 . S
C293 H285 0.950 . S
C293 C291 1.327 . S
C294 C282 1.349 . S
C294 H288 0.950 . S
C294 C295 1.327 . S
C295 H289 0.950 . S
C295 C294 1.327 . S
C295 C299 1.429 . S
C296 C279 1.574 . S
C296 H290 0.949 . S
C296 C300 1.368 . S
C297 C278 1.429 . S
C297 C291 1.429 . S
C297 C298 1.523 . S
C298 C279 1.368 . S
C298 C292 1.368 . S
C298 C297 1.523 . S
C299 C283 1.429 . S
C299 C295 1.429 . S
C299 C300 1.523 . S
C300 C284 1.368 . S
C300 C296 1.368 . S
C300 C299 1.523 . S
H301 C276 0.950 . S
H302 C278 0.950 . S
H303 C279 0.949 . S
H304 C281 0.950 . S
H305 C283 0.950 . S
C306 C307 1.349 . S
C306 C308 1.327 . S
C306 H331 0.950 . S
C307 C306 1.349 . S
C307 C323 1.349 . S
C308 C306 1.327 . S
C308 C327 1.429 . S
C308 H332 0.950 . S
C309 C326 1.574 . S
C309 C328 1.368 . S
C309 H333 0.949 . S
H310 C314 0.949 . S
C311 C312 1.349 . S
C311 C313 1.327 . S
C311 H334 0.950 . S
C312 C311 1.349 . S
C312 C324 1.349 . S
C313 C311 1.327 . S
C313 C329 1.429 . S
C313 H335 0.950 . S
C314 H310 0.949 . S
C314 C322 1.574 . S
C314 C330 1.368 . S
H315 C323 0.950 . S
H316 C321 0.950 . S
H317 C322 0.949 . S
H318 C324 0.950 . S
H319 C325 0.950 . S
H320 C326 0.949 . S
C321 H316 0.950 . S
C321 C323 1.327 . S
C321 C327 1.429 . S
C322 C314 1.574 . S
C322 H317 0.949 . S
C322 C328 1.368 . S
C323 C307 1.349 . S
C323 H315 0.950 . S
C323 C321 1.327 . S
C324 C312 1.349 . S
C324 H318 0.950 . S
C324 C325 1.327 . S
C325 H319 0.950 . S
C325 C324 1.327 . S
C325 C329 1.429 . S
C326 C309 1.574 . S
C326 H320 0.949 . S
C326 C330 1.368 . S
C327 C308 1.429 . S
C327 C321 1.429 . S
C327 C328 1.523 . S
C328 C309 1.368 . S
C328 C322 1.368 . S
C328 C327 1.523 . S
C329 C313 1.429 . S
C329 C325 1.429 . S
C329 C330 1.523 . S
C330 C314 1.368 . S
C330 C326 1.368 . S
C330 C329 1.523 . S
H331 C306 0.950 . S
H332 C308 0.950 . S
H333 C309 0.949 . S
H334 C311 0.950 . S
H335 C313 0.950 . S
C336 C337 1.349 . S
C336 C338 1.327 . S
C336 H361 0.950 . S
C337 C336 1.349 . S
C337 C353 1.349 . S
C338 C336 1.327 . S
C338 C357 1.429 . S
C338 H362 0.950 . S
C339 C356 1.574 . S
C339 C358 1.368 . S
C339 H363 0.949 . S
H340 C344 0.949 . S
C341 C342 1.349 . S
C341 C343 1.327 . S
C341 H364 0.950 . S
C342 C341 1.349 . S
C342 C354 1.349 . S
C343 C341 1.327 . S
C343 C359 1.429 . S
C343 H365 0.950 . S
C344 H340 0.949 . S
C344 C352 1.574 . S
C344 C360 1.368 . S
H345 C353 0.950 . S
H346 C351 0.950 . S
H347 C352 0.949 . S
H348 C354 0.950 . S
H349 C355 0.950 . S
H350 C356 0.949 . S
C351 H346 0.950 . S
C351 C353 1.327 . S
C351 C357 1.429 . S
C352 C344 1.574 . S
C352 H347 0.949 . S
C352 C358 1.368 . S
C353 C337 1.349 . S
C353 H345 0.950 . S
C353 C351 1.327 . S
C354 C342 1.349 . S
C354 H348 0.950 . S
C354 C355 1.327 . S
C355 H349 0.950 . S
C355 C354 1.327 . S
C355 C359 1.429 . S
C356 C339 1.574 . S
C356 H350 0.949 . S
C356 C360 1.368 . S
C357 C338 1.429 . S
C357 C351 1.429 . S
C357 C358 1.523 . S
C358 C339 1.368 . S
C358 C352 1.368 . S
C358 C357 1.523 . S
C359 C343 1.429 . S
C359 C355 1.429 . S
C359 C360 1.523 . S
C360 C344 1.368 . S
C360 C356 1.368 . S
C360 C359 1.523 . S
H361 C336 0.950 . S
H362 C338 0.950 . S
H363 C339 0.949 . S
H364 C341 0.950 . S
H365 C343 0.950 . S
C366 C367 1.349 . S
C366 C368 1.327 . S
C366 H391 0.950 . S
C367 C366 1.349 . S
C367 C383 1.349 . S
C368 C366 1.327 . S
C368 C387 1.429 . S
C368 H392 0.950 . S
C369 C386 1.574 . S
C369 C388 1.368 . S
C369 H393 0.949 . S
H370 C374 0.949 . S
C371 C372 1.349 . S
C371 C373 1.327 . S
C371 H394 0.950 . S
C372 C371 1.349 . S
C372 C384 1.349 . S
C373 C371 1.327 . S
C373 C389 1.429 . S
C373 H395 0.950 . S
C374 H370 0.949 . S
C374 C382 1.574 . S
C374 C390 1.368 . S
H375 C383 0.950 . S
H376 C381 0.950 . S
H377 C382 0.949 . S
H378 C384 0.950 . S
H379 C385 0.950 . S
H380 C386 0.949 . S
C381 H376 0.950 . S
C381 C383 1.327 . S
C381 C387 1.429 . S
C382 C374 1.574 . S
C382 H377 0.949 . S
C382 C388 1.368 . S
C383 C367 1.349 . S
C383 H375 0.950 . S
C383 C381 1.327 . S
C384 C372 1.349 . S
C384 H378 0.950 . S
C384 C385 1.327 . S
C385 H379 0.950 . S
C385 C384 1.327 . S
C385 C389 1.429 . S
C386 C369 1.574 . S
C386 H380 0.949 . S
C386 C390 1.368 . S
C387 C368 1.429 . S
C387 C381 1.429 . S
C387 C388 1.523 . S
C388 C369 1.368 . S
C388 C382 1.368 . S
C388 C387 1.523 . S
C389 C373 1.429 . S
C389 C385 1.429 . S
C389 C390 1.523 . S
C390 C374 1.368 . S
C390 C386 1.368 . S
C390 C389 1.523 . S
H391 C366 0.950 . S
H392 C368 0.950 . S
H393 C369 0.949 . S
H394 C371 0.950 . S
H395 C373 0.950 . S
C396 C397 1.349 . S
C396 C398 1.327 . S
C396 H421 0.950 . S
C397 C396 1.349 . S
C397 C413 1.349 1_556 S
C398 C396 1.327 . S
C398 C417 1.429 . S
C398 H422 0.950 . S
C399 C416 1.574 . S
C399 C418 1.368 1_554 S
C399 H423 0.949 . S
H400 C404 0.949 . S
C401 C402 1.349 . S
C401 C403 1.327 . S
C401 H424 0.950 . S
C402 C401 1.349 . S
C402 C414 1.349 1_554 S
C403 C401 1.327 . S
C403 C419 1.433 . S
C403 H425 0.950 . S
C404 H400 0.949 . S
C404 C412 1.574 . S
C404 C420 1.390 . S
H405 C413 0.950 . S
H406 C411 0.950 . S
H407 C412 0.949 . S
H408 C414 0.950 . S
H409 C415 0.950 . S
H410 C416 0.949 . S
C411 H406 0.950 . S
C411 C413 1.327 . S
C411 C417 1.429 1_554 S
C412 C404 1.574 . S
C412 H407 0.949 . S
C412 C418 1.368 . S
C413 C397 1.349 1_554 S
C413 H405 0.950 . S
C413 C411 1.327 . S
C414 C402 1.349 1_556 S
C414 H408 0.950 . S
C414 C415 1.327 . S
C415 H409 0.950 . S
C415 C414 1.327 . S
C415 C419 1.424 1_556 S
C416 C399 1.574 . S
C416 H410 0.949 . S
C416 C420 1.349 1_554 S
C417 C398 1.429 . S
C417 C411 1.429 1_556 S
C417 C418 1.523 . S
C418 C399 1.368 1_556 S
C418 C412 1.368 . S
C418 C417 1.523 . S
C419 C403 1.433 . S
C419 C415 1.424 1_554 S
C419 C420 1.522 1_554 S
C420 C404 1.390 . S
C420 C416 1.349 1_556 S
C420 C419 1.522 1_556 S
H421 C396 0.950 . S
H422 C398 0.950 . S
H423 C399 0.949 . S
H424 C401 0.950 . S
H425 C403 0.950 . S
C426 C427 1.349 . S
C426 C428 1.327 . S
C426 H451 0.950 . S
C427 C426 1.349 . S
C427 C443 1.349 . S
C428 C426 1.327 . S
C428 C447 1.429 . S
C428 H452 0.950 . S
C429 C446 1.574 . S
C429 C448 1.368 . S
C429 H453 0.949 . S
H430 C434 0.949 . S
C431 C432 1.349 . S
C431 C433 1.327 . S
C431 H454 0.950 . S
C432 C431 1.349 . S
C432 C444 1.349 . S
C433 C431 1.327 . S
C433 C449 1.429 . S
C433 H455 0.950 . S
C434 H430 0.949 . S
C434 C442 1.574 . S
C434 C450 1.368 . S
H435 C443 0.950 . S
H436 C441 0.950 . S
H437 C442 0.949 . S
H438 C444 0.950 . S
H439 C445 0.950 . S
H440 C446 0.949 . S
C441 H436 0.950 . S
C441 C443 1.327 . S
C441 C447 1.429 . S
C442 C434 1.574 . S
C442 H437 0.949 . S
C442 C448 1.368 . S
C443 C427 1.349 . S
C443 H435 0.950 . S
C443 C441 1.327 . S
C444 C432 1.349 . S
C444 H438 0.950 . S
C444 C445 1.327 . S
C445 H439 0.950 . S
C445 C444 1.327 . S
C445 C449 1.429 . S
C446 C429 1.574 . S
C446 H440 0.949 . S
C446 C450 1.368 . S
C447 C428 1.429 . S
C447 C441 1.429 . S
C447 C448 1.523 . S
C448 C429 1.368 . S
C448 C442 1.368 . S
C448 C447 1.523 . S
C449 C433 1.429 . S
C449 C445 1.429 . S
C449 C450 1.523 . S
C450 C434 1.368 . S
C450 C446 1.368 . S
C450 C449 1.523 . S
H451 C426 0.950 . S
H452 C428 0.950 . S
H453 C429 0.949 . S
H454 C431 0.950 . S
H455 C433 0.950 . S
C456 C457 1.349 . S
C456 C458 1.327 . S
C456 H481 0.950 . S
C457 C456 1.349 . S
C457 C473 1.349 . S
C458 C456 1.327 . S
C458 C477 1.429 . S
C458 H482 0.950 . S
C459 C476 1.574 . S
C459 C478 1.368 . S
C459 H483 0.949 . S
H460 C464 0.949 . S
C461 C462 1.349 . S
C461 C463 1.327 . S
C461 H484 0.950 . S
C462 C461 1.349 . S
C462 C474 1.349 . S
C463 C461 1.327 . S
C463 C479 1.429 . S
C463 H485 0.950 . S
C464 H460 0.949 . S
C464 C472 1.574 . S
C464 C480 1.368 . S
H465 C473 0.950 . S
H466 C471 0.950 . S
H467 C472 0.949 . S
H468 C474 0.950 . S
H469 C475 0.950 . S
H470 C476 0.949 . S
C471 H466 0.950 . S
C471 C473 1.327 . S
C471 C477 1.429 . S
C472 C464 1.574 . S
C472 H467 0.949 . S
C472 C478 1.368 . S
C473 C457 1.349 . S
C473 H465 0.950 . S
C473 C471 1.327 . S
C474 C462 1.349 . S
C474 H468 0.950 . S
C474 C475 1.327 . S
C475 H469 0.950 . S
C475 C474 1.327 . S
C475 C479 1.429 . S
C476 C459 1.574 . S
C476 H470 0.949 . S
C476 C480 1.368 . S
C477 C458 1.429 . S
C477 C471 1.429 . S
C477 C478 1.523 . S
C478 C459 1.368 . S
C478 C472 1.368 . S
C478 C477 1.523 . S
C479 C463 1.429 . S
C479 C475 1.429 . S
C479 C480 1.523 . S
C480 C464 1.368 . S
C480 C476 1.368 . S
C480 C479 1.523 . S
H481 C456 0.950 . S
H482 C458 0.950 . S
H483 C459 0.949 . S
H484 C461 0.950 . S
H485 C463 0.950 . S
C486 C487 1.349 1_556 S
C486 C488 1.327 . S
C486 H511 0.950 . S
C487 C486 1.349 1_554 S
C487 C503 1.349 . S
C488 C486 1.327 . S
C488 C507 1.424 1_556 S
C488 H512 0.950 . S
C489 C506 1.574 . S
C489 C508 1.349 1_554 S
C489 H513 0.949 . S
H490 C494 0.949 . S
C491 C492 1.349 1_554 S
C491 C493 1.327 . S
C491 H514 0.950 . S
C492 C491 1.349 1_556 S
C492 C504 1.349 . S
C493 C491 1.327 . S
C493 C509 1.429 1_554 S
C493 H515 0.950 . S
C494 H490 0.949 . S
C494 C502 1.574 . S
C494 C510 1.368 . S
H495 C503 0.950 . S
H496 C501 0.950 . S
H497 C502 0.949 . S
H498 C504 0.950 . S
H499 C505 0.950 . S
H500 C506 0.949 . S
C501 H496 0.950 . S
C501 C503 1.327 . S
C501 C507 1.433 . S
C502 C494 1.574 . S
C502 H497 0.949 . S
C502 C508 1.390 . S
C503 C487 1.349 . S
C503 H495 0.950 . S
C503 C501 1.327 . S
C504 C492 1.349 . S
C504 H498 0.950 . S
C504 C505 1.327 . S
C505 H499 0.950 . S
C505 C504 1.327 . S
C505 C509 1.429 . S
C506 C489 1.574 . S
C506 H500 0.949 . S
C506 C510 1.368 1_554 S
C507 C488 1.424 1_554 S
C507 C501 1.433 . S
C507 C508 1.522 1_554 S
C508 C489 1.349 1_556 S
C508 C502 1.390 . S
C508 C507 1.522 1_556 S
C509 C493 1.429 1_556 S
C509 C505 1.429 . S
C509 C510 1.523 . S
C510 C494 1.368 . S
C510 C506 1.368 1_556 S
C510 C509 1.523 . S
H511 C486 0.950 . S
H512 C488 0.950 . S
H513 C489 0.949 . S
H514 C491 0.950 . S
H515 C493 0.950 . S
C516 C517 1.349 . S
C516 C518 1.327 . S
C516 H541 0.950 . S
C517 C516 1.349 . S
C517 C533 1.349 . S
C518 C516 1.327 . S
C518 C537 1.429 . S
C518 H542 0.950 . S
C519 C536 1.574 1_545 S
C519 C538 1.368 . S
C519 H543 0.949 . S
H520 C524 0.949 . S
C521 C522 1.349 . S
C521 C523 1.327 . S
C521 H544 0.950 . S
C522 C521 1.349 . S
C522 C534 1.349 . S
C523 C521 1.327 . S
C523 C539 1.429 . S
C523 H545 0.950 . S
C524 H520 0.949 . S
C524 C532 1.574 1_565 S
C524 C540 1.368 . S
H525 C533 0.950 . S
H526 C531 0.950 . S
H527 C532 0.949 . S
H528 C534 0.950 . S
H529 C535 0.950 . S
H530 C536 0.949 . S
C531 H526 0.950 . S
C531 C533 1.327 . S
C531 C537 1.429 . S
C532 C524 1.574 1_545 S
C532 H527 0.949 . S
C532 C538 1.368 . S
C533 C517 1.349 . S
C533 H525 0.950 . S
C533 C531 1.327 . S
C534 C522 1.349 . S
C534 H528 0.950 . S
C534 C535 1.327 . S
C535 H529 0.950 . S
C535 C534 1.327 . S
C535 C539 1.429 . S
C536 C519 1.574 1_565 S
C536 H530 0.949 . S
C536 C540 1.368 . S
C537 C518 1.429 . S
C537 C531 1.429 . S
C537 C538 1.523 . S
C538 C519 1.368 . S
C538 C532 1.368 . S
C538 C537 1.523 . S
C539 C523 1.429 . S
C539 C535 1.429 . S
C539 C540 1.523 . S
C540 C524 1.368 . S
C540 C536 1.368 . S
C540 C539 1.523 . S
H541 C516 0.950 . S
H542 C518 0.950 . S
H543 C519 0.949 . S
H544 C521 0.950 . S
H545 C523 0.950 . S
C546 C547 1.349 . S
C546 C548 1.327 . S
C546 H571 0.950 . S
C547 C546 1.349 . S
C547 C563 1.349 . S
C548 C546 1.327 . S
C548 C567 1.429 . S
C548 H572 0.950 . S
C549 C566 1.574 . S
C549 C568 1.368 . S
C549 H573 0.949 . S
H550 C554 0.949 . S
C551 C552 1.349 . S
C551 C553 1.327 . S
C551 H574 0.950 . S
C552 C551 1.349 . S
C552 C564 1.349 . S
C553 C551 1.327 . S
C553 C569 1.429 . S
C553 H575 0.950 . S
C554 H550 0.949 . S
C554 C562 1.574 . S
C554 C570 1.368 . S
H555 C563 0.950 . S
H556 C561 0.950 . S
H557 C562 0.949 . S
H558 C564 0.950 . S
H559 C565 0.950 . S
H560 C566 0.949 . S
C561 H556 0.950 . S
C561 C563 1.327 . S
C561 C567 1.429 . S
C562 C554 1.574 . S
C562 H557 0.949 . S
C562 C568 1.368 . S
C563 C547 1.349 . S
C563 H555 0.950 . S
C563 C561 1.327 . S
C564 C552 1.349 . S
C564 H558 0.950 . S
C564 C565 1.327 . S
C565 H559 0.950 . S
C565 C564 1.327 . S
C565 C569 1.429 . S
C566 C549 1.574 . S
C566 H560 0.949 . S
C566 C570 1.368 . S
C567 C548 1.429 . S
C567 C561 1.429 . S
C567 C568 1.523 . S
C568 C549 1.368 . S
C568 C562 1.368 . S
C568 C567 1.523 . S
C569 C553 1.429 . S
C569 C565 1.429 . S
C569 C570 1.523 . S
C570 C554 1.368 . S
C570 C566 1.368 . S
C570 C569 1.523 . S
H571 C546 0.950 . S
H572 C548 0.950 . S
H573 C549 0.949 . S
H574 C551 0.950 . S
H575 C553 0.950 . S
C576 C577 1.349 . S
C576 C578 1.327 . S
C576 H601 0.950 . S
C577 C576 1.349 . S
C577 C593 1.349 1_556 S
C578 C576 1.327 . S
C578 C597 1.429 . S
C578 H602 0.950 . S
C579 C596 1.574 1_655 S
C579 C598 1.368 1_554 S
C579 H603 0.949 . S
H580 C584 0.949 . S
C581 C582 1.349 1_554 S
C581 C583 1.327 . S
C581 H604 0.950 . S
C582 C581 1.349 1_556 S
C582 C594 1.349 . S
C583 C581 1.327 . S
C583 C599 1.429 1_554 S
C583 H605 0.950 . S
C584 H580 0.949 . S
C584 C592 1.574 1_455 S
C584 C600 1.368 . S
H585 C593 0.950 . S
H586 C591 0.950 . S
H587 C592 0.949 . S
H588 C594 0.950 . S
H589 C595 0.950 . S
H590 C596 0.949 . S
C591 H586 0.950 . S
C591 C593 1.327 . S
C591 C597 1.429 1_554 S
C592 C584 1.574 1_655 S
C592 H587 0.949 . S
C592 C598 1.368 . S
C593 C577 1.349 1_554 S
C593 H585 0.950 . S
C593 C591 1.327 . S
C594 C582 1.349 . S
C594 H588 0.950 . S
C594 C595 1.327 . S
C595 H589 0.950 . S
C595 C594 1.327 . S
C595 C599 1.429 . S
C596 C579 1.574 1_455 S
C596 H590 0.949 . S
C596 C600 1.368 1_554 S
C597 C578 1.429 . S
C597 C591 1.429 1_556 S
C597 C598 1.523 . S
C598 C579 1.368 1_556 S
C598 C592 1.368 . S
C598 C597 1.523 . S
C599 C583 1.429 1_556 S
C599 C595 1.429 . S
C599 C600 1.523 . S
C600 C584 1.368 . S
C600 C596 1.368 1_556 S
C600 C599 1.523 . S
H601 C576 0.950 . S
H602 C578 0.950 . S
H603 C579 0.949 . S
H604 C581 0.950 . S
H605 C583 0.950 . S
C606 C607 1.349 . S
C606 C608 1.327 . S
C606 H631 0.950 . S
C607 C606 1.349 . S
C607 C623 1.349 . S
C608 C606 1.327 . S
C608 C627 1.429 . S
C608 H632 0.950 . S
C609 C626 1.574 1_455 S
C609 C628 1.368 . S
C609 H633 0.949 . S
H610 C614 0.949 . S
C611 C612 1.349 . S
C611 C613 1.327 . S
C611 H634 0.950 . S
C612 C611 1.349 . S
C612 C624 1.349 . S
C613 C611 1.327 . S
C613 C629 1.429 . S
C613 H635 0.950 . S
C614 H610 0.949 . S
C614 C622 1.574 1_655 S
C614 C630 1.368 . S
H615 C623 0.950 . S
H616 C621 0.950 . S
H617 C622 0.949 . S
H618 C624 0.950 . S
H619 C625 0.950 . S
H620 C626 0.949 . S
C621 H616 0.950 . S
C621 C623 1.327 . S
C621 C627 1.429 . S
C622 C614 1.574 1_455 S
C622 H617 0.949 . S
C622 C628 1.368 . S
C623 C607 1.349 . S
C623 H615 0.950 . S
C623 C621 1.327 . S
C624 C612 1.349 . S
C624 H618 0.950 . S
C624 C625 1.327 . S
C625 H619 0.950 . S
C625 C624 1.327 . S
C625 C629 1.429 . S
C626 C609 1.574 1_655 S
C626 H620 0.949 . S
C626 C630 1.368 . S
C627 C608 1.429 . S
C627 C621 1.429 . S
C627 C628 1.523 . S
C628 C609 1.368 . S
C628 C622 1.368 . S
C628 C627 1.523 . S
C629 C613 1.429 . S
C629 C625 1.429 . S
C629 C630 1.523 . S
C630 C614 1.368 . S
C630 C626 1.368 . S
C630 C629 1.523 . S
H631 C606 0.950 . S
H632 C608 0.950 . S
H633 C609 0.949 . S
H634 C611 0.950 . S
H635 C613 0.950 . S
C636 C637 1.349 . S
C636 C638 1.327 . S
C636 H661 0.950 . S
C637 C636 1.349 . S
C637 C653 1.349 . S
C638 C636 1.327 . S
C638 C657 1.429 . S
C638 H662 0.950 . S
C639 C656 1.574 1_545 S
C639 C658 1.368 . S
C639 H663 0.949 . S
H640 C644 0.949 . S
C641 C642 1.349 . S
C641 C643 1.327 . S
C641 H664 0.950 . S
C642 C641 1.349 . S
C642 C654 1.349 . S
C643 C641 1.327 . S
C643 C659 1.429 . S
C643 H665 0.950 . S
C644 H640 0.949 . S
C644 C652 1.574 1_565 S
C644 C660 1.368 . S
H645 C653 0.950 . S
H646 C651 0.950 . S
H647 C652 0.949 . S
H648 C654 0.950 . S
H649 C655 0.950 . S
H650 C656 0.949 . S
C651 H646 0.950 . S
C651 C653 1.327 . S
C651 C657 1.429 . S
C652 C644 1.574 1_545 S
C652 H647 0.949 . S
C652 C658 1.368 . S
C653 C637 1.349 . S
C653 H645 0.950 . S
C653 C651 1.327 . S
C654 C642 1.349 . S
C654 H648 0.950 . S
C654 C655 1.327 . S
C655 H649 0.950 . S
C655 C654 1.327 . S
C655 C659 1.429 . S
C656 C639 1.574 1_565 S
C656 H650 0.949 . S
C656 C660 1.368 . S
C657 C638 1.429 . S
C657 C651 1.429 . S
C657 C658 1.523 . S
C658 C639 1.368 . S
C658 C652 1.368 . S
C658 C657 1.523 . S
C659 C643 1.429 . S
C659 C655 1.429 . S
C659 C660 1.523 . S
C660 C644 1.368 . S
C660 C656 1.368 . S
C660 C659 1.523 . S
H661 C636 0.950 . S
H662 C638 0.950 . S
H663 C639 0.949 . S
H664 C641 0.950 . S
H665 C643 0.950 . S
C666 C667 1.349 . S
C666 C668 1.327 . S
C666 H691 0.950 . S
C667 C666 1.349 . S
C667 C683 1.349 1_554 S
C668 C666 1.327 . S
C668 C687 1.429 . S
C668 H692 0.950 . S
C669 C686 1.574 . S
C669 C688 1.368 1_556 S
C669 H693 0.949 . S
H670 C674 0.949 . S
C671 C672 1.349 1_556 S
C671 C673 1.327 . S
C671 H694 0.950 . S
C672 C671 1.349 1_554 S
C672 C684 1.349 . S
C673 C671 1.327 . S
C673 C689 1.429 1_556 S
C673 H695 0.950 . S
C674 H670 0.949 . S
C674 C682 1.574 . S
C674 C690 1.368 . S
H675 C683 0.950 . S
H676 C681 0.950 . S
H677 C682 0.949 . S
H678 C684 0.950 . S
H679 C685 0.950 . S
H680 C686 0.949 . S
C681 H676 0.950 . S
C681 C683 1.327 . S
C681 C687 1.429 1_556 S
C682 C674 1.574 . S
C682 H677 0.949 . S
C682 C688 1.368 . S
C683 C667 1.349 1_556 S
C683 H675 0.950 . S
C683 C681 1.327 . S
C684 C672 1.349 . S
C684 H678 0.950 . S
C684 C685 1.327 . S
C685 H679 0.950 . S
C685 C684 1.327 . S
C685 C689 1.429 . S
C686 C669 1.574 . S
C686 H680 0.949 . S
C686 C690 1.368 1_556 S
C687 C668 1.429 . S
C687 C681 1.429 1_554 S
C687 C688 1.523 . S
C688 C669 1.368 1_554 S
C688 C682 1.368 . S
C688 C687 1.523 . S
C689 C673 1.429 1_554 S
C689 C685 1.429 . S
C689 C690 1.523 . S
C690 C674 1.368 . S
C690 C686 1.368 1_554 S
C690 C689 1.523 . S
H691 C666 0.950 . S
H692 C668 0.950 . S
H693 C669 0.949 . S
H694 C671 0.950 . S
H695 C673 0.950 . S
C696 C697 1.349 . S
C696 C698 1.327 . S
C696 H721 0.950 . S
C697 C696 1.349 . S
C697 C713 1.349 . S
C698 C696 1.327 . S
C698 C717 1.429 . S
C698 H722 0.950 . S
C699 C716 1.574 . S
C699 C718 1.368 . S
C699 H723 0.949 . S
H700 C704 0.949 . S
C701 C702 1.349 . S
C701 C703 1.327 . S
C701 H724 0.950 . S
C702 C701 1.349 . S
C702 C714 1.349 . S
C703 C701 1.327 . S
C703 C719 1.429 . S
C703 H725 0.950 . S
C704 H700 0.949 . S
C704 C712 1.574 . S
C704 C720 1.368 . S
H705 C713 0.950 . S
H706 C711 0.950 . S
H707 C712 0.949 . S
H708 C714 0.950 . S
H709 C715 0.950 . S
H710 C716 0.949 . S
C711 H706 0.950 . S
C711 C713 1.327 . S
C711 C717 1.429 . S
C712 C704 1.574 . S
C712 H707 0.949 . S
C712 C718 1.368 . S
C713 C697 1.349 . S
C713 H705 0.950 . S
C713 C711 1.327 . S
C714 C702 1.349 . S
C714 H708 0.950 . S
C714 C715 1.327 . S
C715 H709 0.950 . S
C715 C714 1.327 . S
C715 C719 1.429 . S
C716 C699 1.574 . S
C716 H710 0.949 . S
C716 C720 1.368 . S
C717 C698 1.429 . S
C717 C711 1.429 . S
C717 C718 1.523 . S
C718 C699 1.368 . S
C718 C712 1.368 . S
C718 C717 1.523 . S
C719 C703 1.429 . S
C719 C715 1.429 . S
C719 C720 1.523 . S
C720 C704 1.368 . S
C720 C716 1.368 . S
C720 C719 1.523 . S
H721 C696 0.950 . S
H722 C698 0.950 . S
H723 C699 0.949 . S
H724 C701 0.950 . S
H725 C703 0.950 . S
C726 C727 1.349 . S
C726 C728 1.327 . S
C726 H751 0.950 . S
C727 C726 1.349 . S
C727 C743 1.349 . S
C728 C726 1.327 . S
C728 C747 1.429 . S
C728 H752 0.950 . S
C729 C746 1.574 . S
C729 C748 1.368 . S
C729 H753 0.949 . S
H730 C734 0.949 . S
C731 C732 1.349 . S
C731 C733 1.327 . S
C731 H754 0.950 . S
C732 C731 1.349 . S
C732 C744 1.349 . S
C733 C731 1.327 . S
C733 C749 1.429 . S
C733 H755 0.950 . S
C734 H730 0.949 . S
C734 C742 1.574 . S
C734 C750 1.368 . S
H735 C743 0.950 . S
H736 C741 0.950 . S
H737 C742 0.949 . S
H738 C744 0.950 . S
H739 C745 0.950 . S
H740 C746 0.949 . S
C741 H736 0.950 . S
C741 C743 1.327 . S
C741 C747 1.429 . S
C742 C734 1.574 . S
C742 H737 0.949 . S
C742 C748 1.368 . S
C743 C727 1.349 . S
C743 H735 0.950 . S
C743 C741 1.327 . S
C744 C732 1.349 . S
C744 H738 0.950 . S
C744 C745 1.327 . S
C745 H739 0.950 . S
C745 C744 1.327 . S
C745 C749 1.429 . S
C746 C729 1.574 . S
C746 H740 0.949 . S
C746 C750 1.368 . S
C747 C728 1.429 . S
C747 C741 1.429 . S
C747 C748 1.523 . S
C748 C729 1.368 . S
C748 C742 1.368 . S
C748 C747 1.523 . S
C749 C733 1.429 . S
C749 C745 1.429 . S
C749 C750 1.523 . S
C750 C734 1.368 . S
C750 C746 1.368 . S
C750 C749 1.523 . S
H751 C726 0.950 . S
H752 C728 0.950 . S
H753 C729 0.949 . S
H754 C731 0.950 . S
H755 C733 0.950 . S
C756 C757 1.349 . S
C756 C758 1.327 . S
C756 H781 0.950 . S
C757 C756 1.349 . S
C757 C773 1.349 . S
C758 C756 1.327 . S
C758 C777 1.429 . S
C758 H782 0.950 . S
C759 C776 1.574 . S
C759 C778 1.368 . S
C759 H783 0.949 . S
H760 C764 0.949 . S
C761 C762 1.349 . S
C761 C763 1.327 . S
C761 H784 0.950 . S
C762 C761 1.349 . S
C762 C774 1.349 . S
C763 C761 1.327 . S
C763 C779 1.429 . S
C763 H785 0.950 . S
C764 H760 0.949 . S
C764 C772 1.574 . S
C764 C780 1.368 . S
H765 C773 0.950 . S
H766 C771 0.950 . S
H767 C772 0.949 . S
H768 C774 0.950 . S
H769 C775 0.950 . S
H770 C776 0.949 . S
C771 H766 0.950 . S
C771 C773 1.327 . S
C771 C777 1.429 . S
C772 C764 1.574 . S
C772 H767 0.949 . S
C772 C778 1.368 . S
C773 C757 1.349 . S
C773 H765 0.950 . S
C773 C771 1.327 . S
C774 C762 1.349 . S
C774 H768 0.950 . S
C774 C775 1.327 . S
C775 H769 0.950 . S
C775 C774 1.327 . S
C775 C779 1.429 . S
C776 C759 1.574 . S
C776 H770 0.949 . S
C776 C780 1.368 . S
C777 C758 1.429 . S
C777 C771 1.429 . S
C777 C778 1.523 . S
C778 C759 1.368 . S
C778 C772 1.368 . S
C778 C777 1.523 . S
C779 C763 1.429 . S
C779 C775 1.429 . S
C779 C780 1.523 . S
C780 C764 1.368 . S
C780 C776 1.368 . S
C780 C779 1.523 . S
H781 C756 0.950 . S
H782 C758 0.950 . S
H783 C759 0.949 . S
H784 C761 0.950 . S
H785 C763 0.950 . S
C786 C787 1.349 . S
C786 C788 1.327 . S
C786 H811 0.950 . S
C787 C786 1.349 . S
C787 C803 1.349 . S
C788 C786 1.327 . S
C788 C807 1.429 . S
C788 H812 0.950 . S
C789 C806 1.574 . S
C789 C808 1.368 . S
C789 H813 0.949 . S
H790 C794 0.949 . S
C791 C792 1.349 . S
C791 C793 1.327 . S
C791 H814 0.950 . S
C792 C791 1.349 . S
C792 C804 1.349 . S
C793 C791 1.327 . S
C793 C809 1.429 . S
C793 H815 0.950 . S
C794 H790 0.949 . S
C794 C802 1.574 . S
C794 C810 1.368 . S
H795 C803 0.950 . S
H796 C801 0.950 . S
H797 C802 0.949 . S
H798 C804 0.950 . S
H799 C805 0.950 . S
H800 C806 0.949 . S
C801 H796 0.950 . S
C801 C803 1.327 . S
C801 C807 1.429 . S
C802 C794 1.574 . S
C802 H797 0.949 . S
C802 C808 1.368 . S
C803 C787 1.349 . S
C803 H795 0.950 . S
C803 C801 1.327 . S
C804 C792 1.349 . S
C804 H798 0.950 . S
C804 C805 1.327 . S
C805 H799 0.950 . S
C805 C804 1.327 . S
C805 C809 1.429 . S
C806 C789 1.574 . S
C806 H800 0.949 . S
C806 C810 1.368 . S
C807 C788 1.429 . S
C807 C801 1.429 . S
C807 C808 1.523 . S
C808 C789 1.368 . S
C808 C802 1.368 . S
C808 C807 1.523 . S
C809 C793 1.429 . S
C809 C805 1.429 . S
C809 C810 1.523 . S
C810 C794 1.368 . S
C810 C806 1.368 . S
C810 C809 1.523 . S
H811 C786 0.950 . S
H812 C788 0.950 . S
H813 C789 0.949 . S
H814 C791 0.950 . S
H815 C793 0.950 . S
C816 C817 1.349 . S
C816 C818 1.327 . S
C816 H841 0.950 . S
C817 C816 1.349 . S
C817 C833 1.349 . S
C818 C816 1.327 . S
C818 C837 1.429 . S
C818 H842 0.950 . S
C819 C836 1.574 . S
C819 C838 1.368 . S
C819 H843 0.949 . S
H820 C824 0.949 . S
C821 C822 1.349 . S
C821 C823 1.327 . S
C821 H844 0.950 . S
C822 C821 1.349 . S
C822 C834 1.349 . S
C823 C821 1.327 . S
C823 C839 1.429 . S
C823 H845 0.950 . S
C824 H820 0.949 . S
C824 C832 1.574 . S
C824 C840 1.368 . S
H825 C833 0.950 . S
H826 C831 0.950 . S
H827 C832 0.949 . S
H828 C834 0.950 . S
H829 C835 0.950 . S
H830 C836 0.949 . S
C831 H826 0.950 . S
C831 C833 1.327 . S
C831 C837 1.429 . S
C832 C824 1.574 . S
C832 H827 0.949 . S
C832 C838 1.368 . S
C833 C817 1.349 . S
C833 H825 0.950 . S
C833 C831 1.327 . S
C834 C822 1.349 . S
C834 H828 0.950 . S
C834 C835 1.327 . S
C835 H829 0.950 . S
C835 C834 1.327 . S
C835 C839 1.429 . S
C836 C819 1.574 . S
C836 H830 0.949 . S
C836 C840 1.368 . S
C837 C818 1.429 . S
C837 C831 1.429 . S
C837 C838 1.523 . S
C838 C819 1.368 . S
C838 C832 1.368 . S
C838 C837 1.523 . S
C839 C823 1.429 . S
C839 C835 1.429 . S
C839 C840 1.523 . S
C840 C824 1.368 . S
C840 C836 1.368 . S
C840 C839 1.523 . S
H841 C816 0.950 . S
H842 C818 0.950 . S
H843 C819 0.949 . S
H844 C821 0.950 . S
H845 C823 0.950 . S
C846 C847 1.349 . S
C846 C848 1.327 . S
C846 H871 0.950 . S
C847 C846 1.349 . S
C847 C863 1.349 . S
C848 C846 1.327 . S
C848 C867 1.429 . S
C848 H872 0.950 . S
C849 C866 1.574 . S
C849 C868 1.368 . S
C849 H873 0.949 . S
H850 C854 0.949 . S
C851 C852 1.349 . S
C851 C853 1.327 . S
C851 H874 0.950 . S
C852 C851 1.349 . S
C852 C864 1.349 . S
C853 C851 1.327 . S
C853 C869 1.429 . S
C853 H875 0.950 . S
C854 H850 0.949 . S
C854 C862 1.574 . S
C854 C870 1.368 . S
H855 C863 0.950 . S
H856 C861 0.950 . S
H857 C862 0.949 . S
H858 C864 0.950 . S
H859 C865 0.950 . S
H860 C866 0.949 . S
C861 H856 0.950 . S
C861 C863 1.327 . S
C861 C867 1.429 . S
C862 C854 1.574 . S
C862 H857 0.949 . S
C862 C868 1.368 . S
C863 C847 1.349 . S
C863 H855 0.950 . S
C863 C861 1.327 . S
C864 C852 1.349 . S
C864 H858 0.950 . S
C864 C865 1.327 . S
C865 H859 0.950 . S
C865 C864 1.327 . S
C865 C869 1.429 . S
C866 C849 1.574 . S
C866 H860 0.949 . S
C866 C870 1.368 . S
C867 C848 1.429 . S
C867 C861 1.429 . S
C867 C868 1.523 . S
C868 C849 1.368 . S
C868 C862 1.368 . S
C868 C867 1.523 . S
C869 C853 1.429 . S
C869 C865 1.429 . S
C869 C870 1.523 . S
C870 C854 1.368 . S
C870 C866 1.368 . S
C870 C869 1.523 . S
H871 C846 0.950 . S
H872 C848 0.950 . S
H873 C849 0.949 . S
H874 C851 0.950 . S
H875 C853 0.950 . S
C157 C10 1.676 . S
C162 C140 1.676 . S
C187 C14 1.693 . S
C192 C153 1.676 . S
C217 C79 1.692 . S
C222 C36 1.676 . S
C247 C49 1.676 . S
C252 C101 1.676 . S
C277 C114 1.676 . S
C282 C53 1.693 . S
C307 C118 1.692 . S
C312 C75 1.676 . S
C337 C88 0.761 . S
C342 C1 0.759 . S
C367 C92 0.759 . S
C372 C23 0.760 . S
C397 C105 0.759 . S
C402 C27 0.759 . S
C427 C40 0.759 . S
C432 C127 0.761 . S
C457 C62 0.760 . S
C462 C131 0.759 . S
C487 C66 0.759 . S
C492 C144 0.759 . S
C517 C3 2.267 . S
C522 C42 2.267 . S
C547 C18 2.422 . S
C552 C57 2.422 . S
C577 C29 2.266 . S
C582 C68 2.266 . S
C607 C122 2.420 . S
C612 C83 2.420 . S
C637 C133 2.266 . S
C642 C94 2.266 . S
C667 C146 2.266 . S
C672 C107 2.266 . S
C697 C5 1.825 . S
C702 C109 1.825 . S
C727 C120 1.821 . S
C732 C16 1.821 . S
C757 C31 1.825 . S
C762 C135 1.825 . S
C787 C148 1.825 . S
C792 C44 1.825 . S
C817 C55 1.821 . S
C822 C81 1.821 . S
C847 C70 1.825 . S
C852 C96 1.825 . S
