# Generated by pormake.
# Topology vby, (6)-cn, num edge types: 1
# Building blocks:
#     Node 0, Type 0, BuildingBlock: PAMTUU_clean_sbu_0, # of connection points: 6
#     Node 1, Type 0, BuildingBlock: PAMTUU_clean_sbu_0, # of connection points: 6
#     Node 2, Type 0, BuildingBlock: PAMTUU_clean_sbu_0, # of connection points: 6
#     Node 3, Type 0, BuildingBlock: PAMTUU_clean_sbu_0, # of connection points: 6
#     Node 4, Type 0, BuildingBlock: PAMTUU_clean_sbu_0, # of connection points: 6
#     Node 5, Type 0, BuildingBlock: PAMTUU_clean_sbu_0, # of connection points: 6
#     Node 6, Type 0, BuildingBlock: PAMTUU_clean_sbu_0, # of connection points: 6
#     Node 7, Type 0, BuildingBlock: PAMTUU_clean_sbu_0, # of connection points: 6
#     Edge 8, Type (0, 0), BuildingBlock: EYOCIG_clean_linker_4, # of connection points: 2
#     Edge 9, Type (0, 0), BuildingBlock: EYOCIG_clean_linker_4, # of connection points: 2
#     Edge 10, Type (0, 0), BuildingBlock: EYOCIG_clean_linker_4, # of connection points: 2
#     Edge 11, Type (0, 0), BuildingBlock: EYOCIG_clean_linker_4, # of connection points: 2
#     Edge 12, Type (0, 0), BuildingBlock: EYOCIG_clean_linker_4, # of connection points: 2
#     Edge 13, Type (0, 0), BuildingBlock: EYOCIG_clean_linker_4, # of connection points: 2
#     Edge 14, Type (0, 0), BuildingBlock: EYOCIG_clean_linker_4, # of connection points: 2
#     Edge 15, Type (0, 0), BuildingBlock: EYOCIG_clean_linker_4, # of connection points: 2
#     Edge 16, Type (0, 0), BuildingBlock: EYOCIG_clean_linker_4, # of connection points: 2
#     Edge 17, Type (0, 0), BuildingBlock: EYOCIG_clean_linker_4, # of connection points: 2
#     Edge 18, Type (0, 0), BuildingBlock: EYOCIG_clean_linker_4, # of connection points: 2
#     Edge 19, Type (0, 0), BuildingBlock: EYOCIG_clean_linker_4, # of connection points: 2
#     Edge 20, Type (0, 0), BuildingBlock: EYOCIG_clean_linker_4, # of connection points: 2
#     Edge 21, Type (0, 0), BuildingBlock: EYOCIG_clean_linker_4, # of connection points: 2
#     Edge 22, Type (0, 0), BuildingBlock: EYOCIG_clean_linker_4, # of connection points: 2
#     Edge 23, Type (0, 0), BuildingBlock: EYOCIG_clean_linker_4, # of connection points: 2
#     Edge 24, Type (0, 0), BuildingBlock: EYOCIG_clean_linker_4, # of connection points: 2
#     Edge 25, Type (0, 0), BuildingBlock: EYOCIG_clean_linker_4, # of connection points: 2
#     Edge 26, Type (0, 0), BuildingBlock: EYOCIG_clean_linker_4, # of connection points: 2
#     Edge 27, Type (0, 0), BuildingBlock: EYOCIG_clean_linker_4, # of connection points: 2
#     Edge 28, Type (0, 0), BuildingBlock: EYOCIG_clean_linker_4, # of connection points: 2
#     Edge 29, Type (0, 0), BuildingBlock: EYOCIG_clean_linker_4, # of connection points: 2
#     Edge 30, Type (0, 0), BuildingBlock: EYOCIG_clean_linker_4, # of connection points: 2
#     Edge 31, Type (0, 0), BuildingBlock: EYOCIG_clean_linker_4, # of connection points: 2
# Relax obj value: 0.145
# Max RMSD: 0.186
# Mean RMSD: 0.186
data_MOF--net-vby--node1-PAMTUU_clean_sbu_0--edge1-EYOCIG_clean_linker_4
_symmetry_space_group_name_H-M    P1
_symmetry_Int_Tables_number       1
_symmetry_cell_setting            triclinic
loop_
_symmetry_equiv_pos_as_xyz
'x, y, z'
_cell_length_a     11.942289
_cell_length_b     90.019254
_cell_length_c     23.685898
_cell_angle_alpha  90.067515
_cell_angle_beta   82.444983
_cell_angle_gamma 90.01955
loop_
_atom_site_label
_atom_site_type_symbol
_atom_site_fract_x
_atom_site_fract_y
_atom_site_fract_z
_atom_type_partial_charge
Tb0 Tb 0.12327 0.38521 0.01304 0.0
Tb1 Tb 0.10119 0.42403 0.0287 0.0
C2 C 0.11153 0.40234 0.90876 0.0
C3 C 0.22817 0.34581 0.03104 0.0
C4 C 0.31456 0.31718 0.03652 0.0
C5 C 0.28462 0.32256 0.98554 0.0
C6 C 0.23891 0.33651 0.98331 0.0
C7 C 0.27554 0.34135 0.08007 0.0
C8 C 0.3178 0.32685 0.08307 0.0
C9 C 0.14582 0.35798 0.03119 0.0
O10 O 0.29341 0.39302 -3e-05 0.0
O11 O 0.27884 0.41783 0.02897 0.0
O12 O 0.09749 0.41923 0.11687 0.0
O13 O 0.10395 0.39409 0.09984 0.0
O14 O 0.08014 0.44205 0.97307 0.0
O15 O 0.08591 0.44534 0.06309 0.0
O16 O 0.93154 0.41596 0.04594 0.0
O17 O 0.94468 0.39125 0.0159 0.0
O18 O 0.1234 0.38867 0.92317 0.0
O19 O 0.10432 0.41284 0.94727 0.0
C20 C 0.33582 0.40545 0.01584 0.0
O21 O 0.13861 0.36789 0.0713 0.0
O22 O 0.13302 0.36366 0.98185 0.0
C23 C 0.09749 0.40559 0.13418 0.0
C24 C 0.99268 0.46458 0.01713 0.0
C25 C 0.95355 0.49541 0.01131 0.0
C26 C 0.96355 0.48862 0.06332 0.0
C27 C 0.98511 0.47352 0.06609 0.0
C28 C 0.95425 0.47065 0.96795 0.0
C29 C 0.93532 0.48615 0.96474 0.0
C30 C 0.07118 0.45155 0.01494 0.0
C31 C 0.88771 0.40345 0.03173 0.0
H32 H 0.28395 0.31535 0.9489 0.0
H33 H 0.20368 0.3395 0.94498 0.0
H34 H 0.26936 0.34837 0.11752 0.0
H35 H 0.34273 0.32287 0.12276 0.0
H36 H 0.97145 0.49528 0.10072 0.0
H37 H 1.00974 0.4693 0.10547 0.0
H38 H 0.95412 0.46397 0.9299 0.0
H39 H 0.92107 0.49095 0.92435 0.0
Tb40 Tb 0.99929 0.63693 0.02238 0.0
Tb41 Tb 0.97735 0.67574 0.03527 0.0
C42 C 1.00082 0.65521 0.9156 0.0
C43 C 0.10764 0.59614 0.03322 0.0
C44 C 0.14616 0.56529 0.04088 0.0
C45 C 0.13586 0.5719 0.98853 0.0
C46 C 0.1147 0.587 0.98488 0.0
C47 C 0.14611 0.59023 0.08274 0.0
C48 C 0.16488 0.57473 0.08683 0.0
C49 C 1.02988 0.60928 0.0346 0.0
O50 O 0.16843 0.64494 0.0039 0.0
O51 O 0.15606 0.66964 0.03378 0.0
O52 O 0.97783 0.67152 0.12382 0.0
O53 O 1.00017 0.64643 0.10774 0.0
O54 O 0.9604 0.69353 0.97949 0.0
O55 O 0.96448 0.6972 0.06936 0.0
O56 O 0.80772 0.6678 0.05001 0.0
O57 O 0.8215 0.64298 0.02177 0.0
O58 O 1.00298 0.64166 0.93385 0.0
O59 O 0.99412 0.66691 0.94881 0.0
C60 C 0.2127 0.65736 0.01847 0.0
O61 O 1.02001 0.6187 0.07664 0.0
O62 O 1.01617 0.61564 0.98658 0.0
C63 C 0.99216 0.65811 0.1414 0.0
C64 C 0.87005 0.71554 0.02069 0.0
C65 C 0.79022 0.74442 0.01075 0.0
C66 C 0.82474 0.73966 0.0617 0.0
C67 C 0.86372 0.72539 0.06676 0.0
C68 C 0.82182 0.71972 0.97156 0.0
C69 C 0.78147 0.73423 0.96663 0.0
C70 C 0.95167 0.70319 0.02057 0.0
C71 C 0.76474 0.65536 0.0348 0.0
H72 H 0.12761 0.56509 0.95155 0.0
H73 H 0.09 0.59109 0.94532 0.0
H74 H 0.14669 0.59705 0.12039 0.0
H75 H 0.17942 0.57009 0.12744 0.0
H76 H 0.83062 0.74736 0.09638 0.0
H77 H 0.89953 0.72258 0.10511 0.0
H78 H 0.82489 0.71232 0.93532 0.0
H79 H 0.75353 0.73777 0.92703 0.0
Tb80 Tb 0.10152 0.63699 0.52788 0.0
Tb81 Tb 0.12366 0.6758 0.51478 0.0
C82 C 0.09747 0.6551 0.63444 0.0
C83 C 0.99313 0.5962 0.51738 0.0
C84 C 0.95366 0.56532 0.51133 0.0
C85 C 0.96389 0.57213 0.56333 0.0
C86 C 0.98569 0.58724 0.56617 0.0
C87 C 0.95465 0.5901 0.46812 0.0
C88 C 0.93547 0.57458 0.46482 0.0
C89 C 0.07106 0.60933 0.51556 0.0
O90 O 0.93199 0.64509 0.5459 0.0
O91 O 0.94527 0.6698 0.51644 0.0
O92 O 0.12326 0.67155 0.42628 0.0
O93 O 0.10234 0.64644 0.44227 0.0
O94 O 0.14096 0.69355 0.57097 0.0
O95 O 0.13511 0.69725 0.48125 0.0
O96 O 0.29325 0.66796 0.50026 0.0
O97 O 0.27936 0.64316 0.52874 0.0
O98 O 0.09757 0.6415 0.61654 0.0
O99 O 0.10411 0.66666 0.60069 0.0
C100 C 0.88819 0.65758 0.53171 0.0
O101 O 0.08052 0.61873 0.47352 0.0
O102 O 0.08519 0.61572 0.56348 0.0
C103 C 0.11025 0.65811 0.40859 0.0
C104 C 0.23045 0.71555 0.52942 0.0
C105 C 0.31143 0.74442 0.5378 0.0
C106 C 0.27615 0.7395 0.48725 0.0
C107 C 0.2367 0.72524 0.48294 0.0
C108 C 0.27897 0.71989 0.57832 0.0
C109 C 0.31986 0.73441 0.58248 0.0
C110 C 0.14872 0.70322 0.53003 0.0
C111 C 0.33614 0.65555 0.51573 0.0
H112 H 0.97175 0.56548 0.60069 0.0
H113 H 1.0104 0.59146 0.60556 0.0
H114 H 0.95437 0.59678 0.43012 0.0
H115 H 0.92099 0.56979 0.42443 0.0
H116 H 0.27038 0.74707 0.45218 0.0
H117 H 0.20059 0.72232 0.44477 0.0
H118 H 0.27581 0.71262 0.61488 0.0
H119 H 0.34825 0.73808 0.62182 0.0
Tb120 Tb 0.9772 0.38503 0.53589 0.0
Tb121 Tb 0.99927 0.42383 0.52174 0.0
C122 C 0.9928 0.40299 0.64167 0.0
C123 C 0.87019 0.34523 0.52108 0.0
C124 C 0.79165 0.31625 0.51221 0.0
C125 C 0.8252 0.32124 0.56307 0.0
C126 C 0.86365 0.33555 0.56758 0.0
C127 C 0.82232 0.34086 0.47203 0.0
C128 C 0.78264 0.32628 0.46761 0.0
C129 C 0.95186 0.35759 0.52069 0.0
O130 O 0.80752 0.39285 0.55036 0.0
O131 O 0.82139 0.41761 0.52137 0.0
O132 O 1.00248 0.41921 0.43316 0.0
O133 O 0.99413 0.39409 0.44977 0.0
O134 O 1.01965 0.44205 0.57627 0.0
O135 O 1.01601 0.44513 0.48623 0.0
O136 O 0.16876 0.41573 0.5038 0.0
O137 O 0.15567 0.39106 0.53388 0.0
O138 O 0.97848 0.3895 0.62453 0.0
O139 O 1.00026 0.41453 0.60738 0.0
C140 C 0.76461 0.40524 0.53468 0.0
O141 O 0.96023 0.36725 0.47971 0.0
O142 O 0.96508 0.36357 0.56951 0.0
C143 C 1.00065 0.40559 0.41563 0.0
C144 C 0.1076 0.46458 0.53308 0.0
C145 C 0.14632 0.49543 0.54087 0.0
C146 C 0.13599 0.48881 0.4885 0.0
C147 C 0.11475 0.47371 0.48478 0.0
C148 C 0.14614 0.4705 0.58262 0.0
C149 C 0.16503 0.486 0.58678 0.0
C150 C 1.02962 0.45147 0.53433 0.0
C151 C 0.21263 0.40328 0.51841 0.0
H152 H 0.83111 0.31368 0.59814 0.0
H153 H 0.89904 0.33851 0.60592 0.0
H154 H 0.82545 0.34813 0.43548 0.0
H155 H 0.75527 0.32257 0.42808 0.0
H156 H 0.12775 0.49561 0.45155 0.0
H157 H 0.09001 0.46962 0.4452 0.0
H158 H 0.14665 0.46368 0.62025 0.0
H159 H 0.17962 0.49064 0.62741 0.0
Tb160 Tb 0.62342 0.88505 0.01502 0.0
Tb161 Tb 0.60166 0.9237 0.02773 0.0
C162 C 0.60697 0.90291 0.90848 0.0
C163 C 0.73047 0.84523 0.02924 0.0
C164 C 0.80974 0.81628 0.03777 0.0
C165 C 0.77564 0.82125 0.98704 0.0
C166 C 0.73688 0.83554 0.98269 0.0
C167 C 0.77849 0.84087 0.07823 0.0
C168 C 0.81855 0.82631 0.08247 0.0
C169 C 0.64888 0.85759 0.02973 0.0
O170 O 0.79312 0.89288 -0.00071 0.0
O171 O 0.77963 0.91768 0.02759 0.0
O172 O 0.59779 0.91905 0.11648 0.0
O173 O 0.60469 0.89382 0.10151 0.0
O174 O 0.58089 0.94199 0.97385 0.0
O175 O 0.58505 0.94496 0.0639 0.0
O176 O 0.43236 0.91569 0.04557 0.0
O177 O 0.4451 0.89106 0.01524 0.0
O178 O 0.62072 0.88952 0.92666 0.0
O179 O 0.60041 0.91473 0.94144 0.0
C180 C 0.83645 0.90534 0.01395 0.0
O181 O 0.64058 0.86724 0.07084 0.0
O182 O 0.63565 0.8636 0.98102 0.0
C183 C 0.59825 0.90548 0.13482 0.0
C184 C 0.49321 0.96448 0.01763 0.0
C185 C 0.45409 0.99534 0.0113 0.0
C186 C 0.46391 0.98857 0.06338 0.0
C187 C 0.48552 0.97347 0.06637 0.0
C188 C 0.45509 0.97053 0.96824 0.0
C189 C 0.43606 0.98604 0.9648 0.0
C190 C 0.57118 0.95136 0.016 0.0
C191 C 0.38839 0.90335 0.0301 0.0
H192 H 0.76977 0.81368 0.95192 0.0
H193 H 0.70128 0.83848 0.94442 0.0
H194 H 0.77536 0.84814 0.11483 0.0
H195 H 0.8462 0.82261 0.12192 0.0
H196 H 0.4716 0.99526 0.10073 0.0
H197 H 0.50996 0.96928 0.10583 0.0
H198 H 0.45501 0.96382 0.93026 0.0
H199 H 0.42188 0.9908 0.92434 0.0
Tb200 Tb 0.49893 0.13692 0.02251 0.0
Tb201 Tb 0.47664 0.17586 0.03592 0.0
C202 C 0.49913 0.15483 0.91675 0.0
C203 C 0.60749 0.09614 0.03332 0.0
C204 C 0.64632 0.06529 0.04088 0.0
C205 C 0.63581 0.0719 0.98857 0.0
C206 C 0.61455 0.087 0.98496 0.0
C207 C 0.64605 0.09023 0.0828 0.0
C208 C 0.665 0.07473 0.08684 0.0
C209 C 0.52969 0.10928 0.03464 0.0
O210 O 0.66828 0.14516 0.00493 0.0
O211 O 0.65504 0.16993 0.03419 0.0
O212 O 0.47851 0.17146 0.12428 0.0
O213 O 0.50057 0.14641 0.10736 0.0
O214 O 0.46016 0.19357 0.97956 0.0
O215 O 0.46442 0.19734 0.06941 0.0
O216 O 0.30696 0.16807 0.05095 0.0
O217 O 0.32097 0.14325 0.02239 0.0
O218 O 0.50155 0.14129 0.93447 0.0
O219 O 0.49276 0.16647 0.9503 0.0
C220 C 0.71198 0.15767 0.0193 0.0
O221 O 0.51908 0.11867 0.07678 0.0
O222 O 0.51658 0.11565 0.9866 0.0
C223 C 0.49307 0.158 0.14129 0.0
C224 C 0.36965 0.21561 0.02069 0.0
C225 C 0.29209 0.24464 0.01078 0.0
C226 C 0.32512 0.23974 0.06187 0.0
C227 C 0.36311 0.22541 0.06689 0.0
C228 C 0.32178 0.21986 0.97155 0.0
C229 C 0.28262 0.23445 0.9666 0.0
C230 C 0.45143 0.20327 0.02051 0.0
C231 C 0.26409 0.15565 0.03558 0.0
H232 H 0.62756 0.0651 0.95158 0.0
H233 H 0.58976 0.09109 0.94542 0.0
H234 H 0.64664 0.09705 0.12046 0.0
H235 H 0.6797 0.07009 0.12743 0.0
H236 H 0.33115 0.24739 0.09671 0.0
H237 H 0.39833 0.22254 0.10535 0.0
H238 H 0.32466 0.21248 0.93526 0.0
H239 H 0.25537 0.23805 0.92692 0.0
Tb240 Tb 0.60325 0.1372 0.52573 0.0
Tb241 Tb 0.624 0.17546 0.51567 0.0
C242 C 0.59517 0.15622 0.63417 0.0
C243 C 0.4934 0.09629 0.51724 0.0
C244 C 0.45545 0.06539 0.5105 0.0
C245 C 0.46466 0.07216 0.56273 0.0
C246 C 0.48593 0.08728 0.56589 0.0
C247 C 0.45526 0.09022 0.46784 0.0
C248 C 0.43688 0.07469 0.46418 0.0
C249 C 0.57099 0.10948 0.51576 0.0
O250 O 0.43363 0.14501 0.54526 0.0
O251 O 0.44708 0.16938 0.51278 0.0
O252 O 0.62132 0.17144 0.42663 0.0
O253 O 0.60524 0.14619 0.43988 0.0
O254 O 0.64548 0.19327 0.57019 0.0
O255 O 0.63477 0.19689 0.48086 0.0
O256 O 0.79362 0.16764 0.50118 0.0
O257 O 0.7822 0.14261 0.52493 0.0
O258 O 0.61644 0.14308 0.61247 0.0
O259 O 0.58051 0.16809 0.60399 0.0
C260 C 0.38978 0.15723 0.52869 0.0
O261 O 0.58387 0.11859 0.47276 0.0
O262 O 0.58229 0.11617 0.56349 0.0
C263 C 0.61131 0.15804 0.40753 0.0
C264 C 0.73098 0.2154 0.5288 0.0
C265 C 0.81037 0.24433 0.53893 0.0
C266 C 0.77527 0.23956 0.48807 0.0
C267 C 0.73628 0.22526 0.48294 0.0
C268 C 0.77906 0.21964 0.57797 0.0
C269 C 0.81909 0.23416 0.58302 0.0
C270 C 0.65044 0.20292 0.5293 0.0
C271 C 0.83806 0.15509 0.51344 0.0
H272 H 0.47254 0.06546 0.59999 0.0
H273 H 0.51033 0.09149 0.60537 0.0
H274 H 0.45479 0.09694 0.42996 0.0
H275 H 0.42294 0.06993 0.42365 0.0
H276 H 0.76923 0.24725 0.45345 0.0
H277 H 0.7002 0.22242 0.44469 0.0
H278 H 0.7764 0.21225 0.61416 0.0
H279 H 0.8472 0.2377 0.6226 0.0
Tb280 Tb 0.47666 0.88479 0.53711 0.0
Tb281 Tb 0.49906 0.92394 0.52195 0.0
C282 C 0.48848 0.90207 0.64138 0.0
C283 C 0.36983 0.84515 0.52076 0.0
C284 C 0.29209 0.81622 0.51065 0.0
C285 C 0.32515 0.82106 0.56183 0.0
C286 C 0.36318 0.83537 0.56697 0.0
C287 C 0.32211 0.84092 0.47155 0.0
C288 C 0.28283 0.82636 0.46651 0.0
C289 C 0.45171 0.85744 0.52059 0.0
O290 O 0.30722 0.89279 0.55169 0.0
O291 O 0.32079 0.91765 0.52306 0.0
O292 O 0.5023 0.91919 0.4337 0.0
O293 O 0.49423 0.89405 0.45085 0.0
O294 O 0.52024 0.94206 0.57729 0.0
O295 O 0.5158 0.94522 0.48716 0.0
O296 O 0.66869 0.91572 0.50599 0.0
O297 O 0.6549 0.89092 0.53523 0.0
O298 O 0.47691 0.88841 0.62656 0.0
O299 O 0.49581 0.91276 0.60358 0.0
C300 C 0.26414 0.90525 0.53674 0.0
O301 O 0.45981 0.86722 0.47999 0.0
O302 O 0.46507 0.86327 0.56961 0.0
C303 C 0.50088 0.90554 0.41645 0.0
C304 C 0.60788 0.96463 0.53338 0.0
C305 C 0.64805 0.99548 0.53989 0.0
C306 C 0.63651 0.98876 0.48786 0.0
C307 C 0.61465 0.97367 0.48475 0.0
C308 C 0.64705 0.97064 0.58255 0.0
C309 C 0.6666 0.98614 0.58609 0.0
C310 C 0.52994 0.95151 0.5353 0.0
C311 C 0.71194 0.90319 0.52054 0.0
H312 H 0.33114 0.8134 0.59657 0.0
H313 H 0.39839 0.83823 0.60546 0.0
H314 H 0.32526 0.84828 0.43527 0.0
H315 H 0.25574 0.82275 0.42678 0.0
H316 H 0.62813 0.99549 0.45073 0.0
H317 H 0.58931 0.96951 0.44541 0.0
H318 H 0.64772 0.96391 0.62037 0.0
H319 H 0.68185 0.99086 0.62647 0.0
C320 C 0.55277 0.40439 0.02404 0.0
C321 C 0.45356 0.40515 0.02062 0.0
C322 C 0.6689 0.40386 0.02802 0.0
C323 C 0.7689 0.40367 0.02972 0.0
C324 C 0.43139 0.65657 0.02277 0.0
C325 C 0.33147 0.65693 0.0208 0.0
C326 C 0.54753 0.65606 0.02686 0.0
C327 C 0.6468 0.65575 0.0305 0.0
C328 C 0.66925 0.65679 0.52836 0.0
C329 C 0.76934 0.65739 0.52961 0.0
C330 C 0.55311 0.65629 0.52428 0.0
C331 C 0.45395 0.65595 0.52037 0.0
C332 C 0.54758 0.4046 0.52626 0.0
C333 C 0.64677 0.40489 0.53011 0.0
C334 C 0.43148 0.40417 0.52205 0.0
C335 C 0.33144 0.40353 0.52066 0.0
C336 C 0.05443 0.90479 0.0197 0.0
C337 C 0.9548 0.90504 0.01707 0.0
C338 C 0.17055 0.90428 0.0237 0.0
C339 C 0.27008 0.90386 0.02663 0.0
C340 C 1.04674 0.1568 0.02813 0.0
C341 C 0.1461 0.15601 0.03124 0.0
C342 C 0.93056 0.1573 0.02405 0.0
C343 C 0.83069 0.15747 0.02188 0.0
C344 C 0.17201 0.15655 0.52262 0.0
C345 C 0.27154 0.15686 0.5254 0.0
C346 C 0.05595 0.156 0.51879 0.0
C347 C 0.95634 0.15559 0.51634 0.0
C348 C 0.92993 0.9036 0.5269 0.0
C349 C 0.83032 0.90342 0.52399 0.0
C350 C 1.04609 0.90413 0.53103 0.0
C351 C 0.14577 0.9049 0.53334 0.0
C352 C 0.07464 0.53723 0.03544 0.0
C353 C 0.11103 0.54957 0.04605 0.0
C354 C 1.02495 0.52343 0.01834 0.0
C355 C 0.9887 0.51113 0.00712 0.0
C356 C 0.07468 0.52348 0.53543 0.0
C357 C 0.11115 0.51115 0.54608 0.0
C358 C 1.02489 0.53728 0.51834 0.0
C359 C 0.98866 0.54958 0.50711 0.0
C360 C 0.52561 1.02338 0.01824 0.0
C361 C 0.48933 1.01107 0.00703 0.0
C362 C 0.57527 0.0372 0.03534 0.0
C363 C 0.61149 0.04955 0.046 0.0
C364 C 0.52917 0.03743 0.51663 0.0
C365 C 0.49203 0.04971 0.50582 0.0
C366 C 0.57895 1.02363 0.53363 0.0
C367 C 0.61447 1.01127 0.54457 0.0
C368 C 0.31164 0.2883 0.03038 0.0
C369 C 0.3181 0.30132 0.04104 0.0
C370 C 0.29506 0.27351 0.01351 0.0
C371 C 0.28765 0.26045 0.00391 0.0
C372 C 0.80827 0.78762 0.0326 0.0
C373 C 0.81573 0.80054 0.04381 0.0
C374 C 0.79018 0.7731 0.01405 0.0
C375 C 0.78338 0.76013 0.00372 0.0
C376 C 0.31402 0.77306 0.53224 0.0
C377 C 0.31987 0.76014 0.54363 0.0
C378 C 0.29614 0.78755 0.51362 0.0
C379 C 0.28779 0.8005 0.5034 0.0
C380 C 0.79455 0.28757 0.51695 0.0
C381 C 0.78658 0.3005 0.50595 0.0
C382 C 0.8124 0.27303 0.53541 0.0
C383 C 0.81838 0.26005 0.54581 0.0
C384 C 0.05901 0.40035 0.24484 0.0
C385 C 0.07668 0.4025 0.19411 0.0
C386 C 1.0345 0.4003 0.30493 0.0
C387 C 1.01892 0.40245 0.3557 0.0
C388 C 1.03835 0.65407 0.24663 0.0
C389 C 1.01734 0.65581 0.1985 0.0
C390 C 0.06767 0.65405 0.30272 0.0
C391 C 0.08701 0.65576 0.35116 0.0
C392 C 1.03382 0.66023 0.8049 0.0
C393 C 1.01868 0.65807 0.85558 0.0
C394 C 0.0582 0.66029 0.74494 0.0
C395 C 0.07623 0.65814 0.69429 0.0
C396 C 1.03833 0.40766 0.74725 0.0
C397 C 1.01759 0.40558 0.69903 0.0
C398 C 0.06692 0.40807 0.80384 0.0
C399 C 0.08694 0.40616 0.85228 0.0
C400 C 0.5605 0.90037 0.24557 0.0
C401 C 0.57779 0.90257 0.19488 0.0
C402 C 0.53585 0.9003 0.30565 0.0
C403 C 0.51975 0.90241 0.35646 0.0
C404 C 0.54131 0.15352 0.24566 0.0
C405 C 0.51935 0.15547 0.19791 0.0
C406 C 0.5709 0.15367 0.30156 0.0
C407 C 0.58935 0.15566 0.34995 0.0
C408 C 0.53204 0.15899 0.80602 0.0
C409 C 0.51672 0.1576 0.85697 0.0
C410 C 0.55576 0.15871 0.74614 0.0
C411 C 0.57371 0.15761 0.69499 0.0
C412 C 0.53102 0.90741 0.7467 0.0
C413 C 0.51192 0.90568 0.6981 0.0
C414 C 0.55985 0.9069 0.80307 0.0
C415 C 0.58136 0.90508 0.85119 0.0
loop_
_geom_bond_atom_site_label_1
_geom_bond_atom_site_label_2
_geom_bond_distance
_geom_bond_site_symmetry_2
_ccdc_geom_bond_type
Tb0 C9 2.764 . S
Tb0 O10 2.325 . S
Tb0 O13 2.303 . S
Tb0 O17 2.322 1_455 S
Tb0 O18 2.349 1_554 S
Tb0 O21 2.415 . S
Tb0 O22 2.399 1_554 S
Tb1 O11 2.322 . S
Tb1 O12 2.349 . S
Tb1 O14 2.415 1_554 S
Tb1 O15 2.399 . S
Tb1 O16 2.325 1_455 S
Tb1 O19 2.303 1_554 S
Tb1 C30 2.764 1_455 S
C2 O18 1.261 . S
C2 O19 1.257 . S
C3 C6 1.343 1_554 S
C3 C7 1.332 . S
C3 C9 1.504 . S
C4 C5 1.373 . S
C4 C8 1.308 . S
C5 C4 1.373 . S
C5 C6 1.425 1_554 S
C5 H32 0.932 1_554 S
C6 C3 1.343 1_556 S
C6 C5 1.425 1_556 S
C6 H33 0.949 . S
C7 C3 1.332 . S
C7 C8 1.394 . S
C7 H34 0.932 . S
C8 C4 1.308 . S
C8 C7 1.394 . S
C8 H35 0.929 . S
C9 Tb0 2.764 . S
C9 C3 1.504 . S
C9 O21 1.239 . S
C9 O22 1.263 1_554 S
O10 Tb0 2.325 . S
O10 C20 1.236 . S
O11 Tb1 2.322 . S
O11 C20 1.257 . S
O12 Tb1 2.349 . S
O12 C23 1.261 . S
O13 Tb0 2.303 . S
O13 C23 1.257 . S
O14 Tb1 2.415 1_556 S
O14 C30 1.239 1_456 S
O15 Tb1 2.399 . S
O15 C30 1.263 1_455 S
O16 Tb1 2.325 1_655 S
O16 C31 1.236 . S
O17 Tb0 2.322 1_655 S
O17 C31 1.257 . S
O18 Tb0 2.349 1_556 S
O18 C2 1.261 . S
O19 Tb1 2.303 1_556 S
O19 C2 1.257 . S
C20 O10 1.236 . S
C20 O11 1.257 . S
O21 Tb0 2.415 . S
O21 C9 1.239 . S
O22 Tb0 2.399 1_556 S
O22 C9 1.263 1_556 S
C23 O12 1.261 . S
C23 O13 1.257 . S
C24 C27 1.358 . S
C24 C28 1.332 1_554 S
C24 C30 1.504 . S
C25 C26 1.373 . S
C25 C29 1.308 1_554 S
C26 C25 1.373 . S
C26 C27 1.429 . S
C26 H36 0.932 . S
C27 C24 1.358 . S
C27 C26 1.429 . S
C27 H37 0.930 . S
C28 C24 1.332 1_556 S
C28 C29 1.394 . S
C28 H38 0.932 . S
C29 C25 1.308 1_556 S
C29 C28 1.394 . S
C29 H39 0.929 . S
C30 Tb1 2.764 1_655 S
C30 O14 1.239 1_654 S
C30 O15 1.263 1_655 S
C30 C24 1.504 . S
C31 O16 1.236 . S
C31 O17 1.257 . S
H32 C5 0.932 1_556 S
H33 C6 0.949 . S
H34 C7 0.932 . S
H35 C8 0.929 . S
H36 C26 0.932 . S
H37 C27 0.930 . S
H38 C28 0.932 . S
H39 C29 0.929 . S
Tb40 C49 2.764 1_655 S
Tb40 O50 2.325 1_655 S
Tb40 O53 2.303 . S
Tb40 O57 2.322 . S
Tb40 O58 2.349 1_554 S
Tb40 O61 2.415 . S
Tb40 O62 2.399 1_554 S
Tb41 O51 2.322 1_655 S
Tb41 O52 2.349 . S
Tb41 O54 2.415 1_554 S
Tb41 O55 2.399 . S
Tb41 O56 2.325 . S
Tb41 O59 2.303 1_554 S
Tb41 C70 2.764 . S
C42 O58 1.261 . S
C42 O59 1.257 . S
C43 C46 1.358 . S
C43 C47 1.332 . S
C43 C49 1.504 . S
C44 C45 1.373 . S
C44 C48 1.308 . S
C45 C44 1.373 . S
C45 C46 1.429 . S
C45 H72 0.932 1_554 S
C46 C43 1.358 . S
C46 C45 1.429 . S
C46 H73 0.930 1_554 S
C47 C43 1.332 . S
C47 C48 1.394 . S
C47 H74 0.932 . S
C48 C44 1.308 . S
C48 C47 1.394 . S
C48 H75 0.929 . S
C49 Tb40 2.764 1_455 S
C49 C43 1.504 . S
C49 O61 1.239 1_455 S
C49 O62 1.263 1_454 S
O50 Tb40 2.325 1_455 S
O50 C60 1.236 . S
O51 Tb41 2.322 1_455 S
O51 C60 1.257 . S
O52 Tb41 2.349 . S
O52 C63 1.261 . S
O53 Tb40 2.303 . S
O53 C63 1.257 . S
O54 Tb41 2.415 1_556 S
O54 C70 1.239 1_556 S
O55 Tb41 2.399 . S
O55 C70 1.263 . S
O56 Tb41 2.325 . S
O56 C71 1.236 . S
O57 Tb40 2.322 . S
O57 C71 1.257 . S
O58 Tb40 2.349 1_556 S
O58 C42 1.261 . S
O59 Tb41 2.303 1_556 S
O59 C42 1.257 . S
C60 O50 1.236 . S
C60 O51 1.257 . S
O61 Tb40 2.415 . S
O61 C49 1.239 1_655 S
O62 Tb40 2.399 1_556 S
O62 C49 1.263 1_656 S
C63 O52 1.261 . S
C63 O53 1.257 . S
C64 C67 1.358 . S
C64 C68 1.332 1_554 S
C64 C70 1.504 . S
C65 C66 1.373 . S
C65 C69 1.308 1_554 S
C66 C65 1.373 . S
C66 C67 1.429 . S
C66 H76 0.932 . S
C67 C64 1.358 . S
C67 C66 1.429 . S
C67 H77 0.930 . S
C68 C64 1.332 1_556 S
C68 C69 1.394 . S
C68 H78 0.932 . S
C69 C65 1.308 1_556 S
C69 C68 1.394 . S
C69 H79 0.929 . S
C70 Tb41 2.764 . S
C70 O54 1.239 1_554 S
C70 O55 1.263 . S
C70 C64 1.504 . S
C71 O56 1.236 . S
C71 O57 1.257 . S
H72 C45 0.932 1_556 S
H73 C46 0.930 1_556 S
H74 C47 0.932 . S
H75 C48 0.929 . S
H76 C66 0.932 . S
H77 C67 0.930 . S
H78 C68 0.932 . S
H79 C69 0.929 . S
Tb80 C89 2.764 1_455 S
Tb80 O90 2.325 1_455 S
Tb80 O93 2.303 . S
Tb80 O97 2.322 . S
Tb80 O98 2.349 . S
Tb80 O101 2.415 . S
Tb80 O102 2.399 . S
Tb81 O91 2.322 1_455 S
Tb81 O92 2.349 . S
Tb81 O94 2.415 . S
Tb81 O95 2.399 . S
Tb81 O96 2.325 . S
Tb81 O99 2.303 . S
Tb81 C110 2.764 . S
C82 O98 1.261 . S
C82 O99 1.257 . S
C83 C86 1.358 . S
C83 C87 1.332 . S
C83 C89 1.504 . S
C84 C85 1.373 . S
C84 C88 1.308 . S
C85 C84 1.373 . S
C85 C86 1.429 . S
C85 H112 0.932 . S
C86 C83 1.358 . S
C86 C85 1.429 . S
C86 H113 0.930 . S
C87 C83 1.332 . S
C87 C88 1.394 . S
C87 H114 0.932 . S
C88 C84 1.308 . S
C88 C87 1.394 . S
C88 H115 0.929 . S
C89 Tb80 2.764 1_655 S
C89 C83 1.504 . S
C89 O101 1.239 1_655 S
C89 O102 1.263 1_655 S
O90 Tb80 2.325 1_655 S
O90 C100 1.236 . S
O91 Tb81 2.322 1_655 S
O91 C100 1.257 . S
O92 Tb81 2.349 . S
O92 C103 1.261 . S
O93 Tb80 2.303 . S
O93 C103 1.257 . S
O94 Tb81 2.415 . S
O94 C110 1.239 . S
O95 Tb81 2.399 . S
O95 C110 1.263 . S
O96 Tb81 2.325 . S
O96 C111 1.236 . S
O97 Tb80 2.322 . S
O97 C111 1.257 . S
O98 Tb80 2.349 . S
O98 C82 1.261 . S
O99 Tb81 2.303 . S
O99 C82 1.257 . S
C100 O90 1.236 . S
C100 O91 1.257 . S
O101 Tb80 2.415 . S
O101 C89 1.239 1_455 S
O102 Tb80 2.399 . S
O102 C89 1.263 1_455 S
C103 O92 1.261 . S
C103 O93 1.257 . S
C104 C107 1.358 . S
C104 C108 1.332 . S
C104 C110 1.504 . S
C105 C106 1.373 . S
C105 C109 1.308 . S
C106 C105 1.373 . S
C106 C107 1.429 . S
C106 H116 0.932 . S
C107 C104 1.358 . S
C107 C106 1.429 . S
C107 H117 0.930 . S
C108 C104 1.332 . S
C108 C109 1.394 . S
C108 H118 0.932 . S
C109 C105 1.308 . S
C109 C108 1.394 . S
C109 H119 0.929 . S
C110 Tb81 2.764 . S
C110 O94 1.239 . S
C110 O95 1.263 . S
C110 C104 1.504 . S
C111 O96 1.236 . S
C111 O97 1.257 . S
H112 C85 0.932 . S
H113 C86 0.930 . S
H114 C87 0.932 . S
H115 C88 0.929 . S
H116 C106 0.932 . S
H117 C107 0.930 . S
H118 C108 0.932 . S
H119 C109 0.929 . S
Tb120 C129 2.764 . S
Tb120 O130 2.325 . S
Tb120 O133 2.303 . S
Tb120 O137 2.322 1_655 S
Tb120 O138 2.349 . S
Tb120 O141 2.415 . S
Tb120 O142 2.399 . S
Tb121 O131 2.322 . S
Tb121 O132 2.349 . S
Tb121 O134 2.415 . S
Tb121 O135 2.399 . S
Tb121 O136 2.325 1_655 S
Tb121 O139 2.303 . S
Tb121 C150 2.764 1_655 S
C122 O138 1.261 . S
C122 O139 1.257 . S
C123 C126 1.358 . S
C123 C127 1.332 . S
C123 C129 1.504 . S
C124 C125 1.373 . S
C124 C128 1.308 . S
C125 C124 1.373 . S
C125 C126 1.429 . S
C125 H152 0.932 . S
C126 C123 1.358 . S
C126 C125 1.429 . S
C126 H153 0.930 . S
C127 C123 1.332 . S
C127 C128 1.394 . S
C127 H154 0.932 . S
C128 C124 1.308 . S
C128 C127 1.394 . S
C128 H155 0.929 . S
C129 Tb120 2.764 . S
C129 C123 1.504 . S
C129 O141 1.239 . S
C129 O142 1.263 . S
O130 Tb120 2.325 . S
O130 C140 1.236 . S
O131 Tb121 2.322 . S
O131 C140 1.257 . S
O132 Tb121 2.349 . S
O132 C143 1.261 . S
O133 Tb120 2.303 . S
O133 C143 1.257 . S
O134 Tb121 2.415 . S
O134 C150 1.239 1_655 S
O135 Tb121 2.399 . S
O135 C150 1.263 1_655 S
O136 Tb121 2.325 1_455 S
O136 C151 1.236 . S
O137 Tb120 2.322 1_455 S
O137 C151 1.257 . S
O138 Tb120 2.349 . S
O138 C122 1.261 . S
O139 Tb121 2.303 . S
O139 C122 1.257 . S
C140 O130 1.236 . S
C140 O131 1.257 . S
O141 Tb120 2.415 . S
O141 C129 1.239 . S
O142 Tb120 2.399 . S
O142 C129 1.263 . S
C143 O132 1.261 . S
C143 O133 1.257 . S
C144 C147 1.358 . S
C144 C148 1.332 . S
C144 C150 1.504 . S
C145 C146 1.373 . S
C145 C149 1.308 . S
C146 C145 1.373 . S
C146 C147 1.429 . S
C146 H156 0.932 . S
C147 C144 1.358 . S
C147 C146 1.429 . S
C147 H157 0.930 . S
C148 C144 1.332 . S
C148 C149 1.394 . S
C148 H158 0.932 . S
C149 C145 1.308 . S
C149 C148 1.394 . S
C149 H159 0.929 . S
C150 Tb121 2.764 1_455 S
C150 O134 1.239 1_455 S
C150 O135 1.263 1_455 S
C150 C144 1.504 . S
C151 O136 1.236 . S
C151 O137 1.257 . S
H152 C125 0.932 . S
H153 C126 0.930 . S
H154 C127 0.932 . S
H155 C128 0.929 . S
H156 C146 0.932 . S
H157 C147 0.930 . S
H158 C148 0.932 . S
H159 C149 0.929 . S
Tb160 C169 2.764 . S
Tb160 O170 2.325 . S
Tb160 O173 2.303 . S
Tb160 O177 2.322 . S
Tb160 O178 2.349 1_554 S
Tb160 O181 2.415 . S
Tb160 O182 2.399 1_554 S
Tb161 O171 2.322 . S
Tb161 O172 2.349 . S
Tb161 O174 2.415 1_554 S
Tb161 O175 2.399 . S
Tb161 O176 2.325 . S
Tb161 O179 2.303 1_554 S
Tb161 C190 2.764 . S
C162 O178 1.261 . S
C162 O179 1.257 . S
C163 C166 1.358 1_554 S
C163 C167 1.332 . S
C163 C169 1.504 . S
C164 C165 1.373 . S
C164 C168 1.308 . S
C165 C164 1.373 . S
C165 C166 1.429 1_554 S
C165 H192 0.932 1_554 S
C166 C163 1.358 1_556 S
C166 C165 1.429 1_556 S
C166 H193 0.930 . S
C167 C163 1.332 . S
C167 C168 1.394 . S
C167 H194 0.932 . S
C168 C164 1.308 . S
C168 C167 1.394 . S
C168 H195 0.929 . S
C169 Tb160 2.764 . S
C169 C163 1.504 . S
C169 O181 1.239 . S
C169 O182 1.263 1_554 S
O170 Tb160 2.325 . S
O170 C180 1.236 . S
O171 Tb161 2.322 . S
O171 C180 1.257 . S
O172 Tb161 2.349 . S
O172 C183 1.261 . S
O173 Tb160 2.303 . S
O173 C183 1.257 . S
O174 Tb161 2.415 1_556 S
O174 C190 1.239 1_556 S
O175 Tb161 2.399 . S
O175 C190 1.263 . S
O176 Tb161 2.325 . S
O176 C191 1.236 . S
O177 Tb160 2.322 . S
O177 C191 1.257 . S
O178 Tb160 2.349 1_556 S
O178 C162 1.261 . S
O179 Tb161 2.303 1_556 S
O179 C162 1.257 . S
C180 O170 1.236 . S
C180 O171 1.257 . S
O181 Tb160 2.415 . S
O181 C169 1.239 . S
O182 Tb160 2.399 1_556 S
O182 C169 1.263 1_556 S
C183 O172 1.261 . S
C183 O173 1.257 . S
C184 C187 1.358 . S
C184 C188 1.332 1_554 S
C184 C190 1.504 . S
C185 C186 1.373 . S
C185 C189 1.308 1_554 S
C186 C185 1.373 . S
C186 C187 1.429 . S
C186 H196 0.932 . S
C187 C184 1.358 . S
C187 C186 1.429 . S
C187 H197 0.930 . S
C188 C184 1.332 1_556 S
C188 C189 1.394 . S
C188 H198 0.932 . S
C189 C185 1.308 1_556 S
C189 C188 1.394 . S
C189 H199 0.929 . S
C190 Tb161 2.764 . S
C190 O174 1.239 1_554 S
C190 O175 1.263 . S
C190 C184 1.504 . S
C191 O176 1.236 . S
C191 O177 1.257 . S
H192 C165 0.932 1_556 S
H193 C166 0.930 . S
H194 C167 0.932 . S
H195 C168 0.929 . S
H196 C186 0.932 . S
H197 C187 0.930 . S
H198 C188 0.932 . S
H199 C189 0.929 . S
Tb200 C209 2.764 . S
Tb200 O210 2.325 . S
Tb200 O213 2.303 . S
Tb200 O217 2.322 . S
Tb200 O218 2.349 1_554 S
Tb200 O221 2.415 . S
Tb200 O222 2.399 1_554 S
Tb201 O211 2.322 . S
Tb201 O212 2.349 . S
Tb201 O214 2.415 1_554 S
Tb201 O215 2.399 . S
Tb201 O216 2.325 . S
Tb201 O219 2.303 1_554 S
Tb201 C230 2.764 . S
C202 O218 1.261 . S
C202 O219 1.257 . S
C203 C206 1.358 . S
C203 C207 1.332 . S
C203 C209 1.504 . S
C204 C205 1.373 . S
C204 C208 1.308 . S
C205 C204 1.373 . S
C205 C206 1.429 . S
C205 H232 0.932 1_554 S
C206 C203 1.358 . S
C206 C205 1.429 . S
C206 H233 0.930 1_554 S
C207 C203 1.332 . S
C207 C208 1.394 . S
C207 H234 0.932 . S
C208 C204 1.308 . S
C208 C207 1.394 . S
C208 H235 0.929 . S
C209 Tb200 2.764 . S
C209 C203 1.504 . S
C209 O221 1.239 . S
C209 O222 1.263 1_554 S
O210 Tb200 2.325 . S
O210 C220 1.236 . S
O211 Tb201 2.322 . S
O211 C220 1.257 . S
O212 Tb201 2.349 . S
O212 C223 1.261 . S
O213 Tb200 2.303 . S
O213 C223 1.257 . S
O214 Tb201 2.415 1_556 S
O214 C230 1.239 1_556 S
O215 Tb201 2.399 . S
O215 C230 1.263 . S
O216 Tb201 2.325 . S
O216 C231 1.236 . S
O217 Tb200 2.322 . S
O217 C231 1.257 . S
O218 Tb200 2.349 1_556 S
O218 C202 1.261 . S
O219 Tb201 2.303 1_556 S
O219 C202 1.257 . S
C220 O210 1.236 . S
C220 O211 1.257 . S
O221 Tb200 2.415 . S
O221 C209 1.239 . S
O222 Tb200 2.399 1_556 S
O222 C209 1.263 1_556 S
C223 O212 1.261 . S
C223 O213 1.257 . S
C224 C227 1.358 . S
C224 C228 1.332 1_554 S
C224 C230 1.504 . S
C225 C226 1.373 . S
C225 C229 1.308 1_554 S
C226 C225 1.373 . S
C226 C227 1.429 . S
C226 H236 0.932 . S
C227 C224 1.358 . S
C227 C226 1.429 . S
C227 H237 0.930 . S
C228 C224 1.332 1_556 S
C228 C229 1.394 . S
C228 H238 0.932 . S
C229 C225 1.308 1_556 S
C229 C228 1.394 . S
C229 H239 0.929 . S
C230 Tb201 2.764 . S
C230 O214 1.239 1_554 S
C230 O215 1.263 . S
C230 C224 1.504 . S
C231 O216 1.236 . S
C231 O217 1.257 . S
H232 C205 0.932 1_556 S
H233 C206 0.930 1_556 S
H234 C207 0.932 . S
H235 C208 0.929 . S
H236 C226 0.932 . S
H237 C227 0.930 . S
H238 C228 0.932 . S
H239 C229 0.929 . S
Tb240 C249 2.764 . S
Tb240 O250 2.325 . S
Tb240 O253 2.303 . S
Tb240 O257 2.322 . S
Tb240 O258 2.349 . S
Tb240 O261 2.415 . S
Tb240 O262 2.399 . S
Tb241 O251 2.322 . S
Tb241 O252 2.349 . S
Tb241 O254 2.415 . S
Tb241 O255 2.399 . S
Tb241 O256 2.325 . S
Tb241 O259 2.303 . S
Tb241 C270 2.764 . S
C242 O258 1.261 . S
C242 O259 1.257 . S
C243 C246 1.358 . S
C243 C247 1.332 . S
C243 C249 1.504 . S
C244 C245 1.373 . S
C244 C248 1.308 . S
C245 C244 1.373 . S
C245 C246 1.429 . S
C245 H272 0.932 . S
C246 C243 1.358 . S
C246 C245 1.429 . S
C246 H273 0.930 . S
C247 C243 1.332 . S
C247 C248 1.394 . S
C247 H274 0.932 . S
C248 C244 1.308 . S
C248 C247 1.394 . S
C248 H275 0.929 . S
C249 Tb240 2.764 . S
C249 C243 1.504 . S
C249 O261 1.239 . S
C249 O262 1.263 . S
O250 Tb240 2.325 . S
O250 C260 1.236 . S
O251 Tb241 2.322 . S
O251 C260 1.257 . S
O252 Tb241 2.349 . S
O252 C263 1.261 . S
O253 Tb240 2.303 . S
O253 C263 1.257 . S
O254 Tb241 2.415 . S
O254 C270 1.239 . S
O255 Tb241 2.399 . S
O255 C270 1.263 . S
O256 Tb241 2.325 . S
O256 C271 1.236 . S
O257 Tb240 2.322 . S
O257 C271 1.257 . S
O258 Tb240 2.349 . S
O258 C242 1.261 . S
O259 Tb241 2.303 . S
O259 C242 1.257 . S
C260 O250 1.236 . S
C260 O251 1.257 . S
O261 Tb240 2.415 . S
O261 C249 1.239 . S
O262 Tb240 2.399 . S
O262 C249 1.263 . S
C263 O252 1.261 . S
C263 O253 1.257 . S
C264 C267 1.358 . S
C264 C268 1.332 . S
C264 C270 1.504 . S
C265 C266 1.373 . S
C265 C269 1.308 . S
C266 C265 1.373 . S
C266 C267 1.429 . S
C266 H276 0.932 . S
C267 C264 1.358 . S
C267 C266 1.429 . S
C267 H277 0.930 . S
C268 C264 1.332 . S
C268 C269 1.394 . S
C268 H278 0.932 . S
C269 C265 1.308 . S
C269 C268 1.394 . S
C269 H279 0.929 . S
C270 Tb241 2.764 . S
C270 O254 1.239 . S
C270 O255 1.263 . S
C270 C264 1.504 . S
C271 O256 1.236 . S
C271 O257 1.257 . S
H272 C245 0.932 . S
H273 C246 0.930 . S
H274 C247 0.932 . S
H275 C248 0.929 . S
H276 C266 0.932 . S
H277 C267 0.930 . S
H278 C268 0.932 . S
H279 C269 0.929 . S
Tb280 C289 2.764 . S
Tb280 O290 2.325 . S
Tb280 O293 2.303 . S
Tb280 O297 2.322 . S
Tb280 O298 2.349 . S
Tb280 O301 2.415 . S
Tb280 O302 2.399 . S
Tb281 O291 2.322 . S
Tb281 O292 2.349 . S
Tb281 O294 2.415 . S
Tb281 O295 2.399 . S
Tb281 O296 2.325 . S
Tb281 O299 2.303 . S
Tb281 C310 2.764 . S
C282 O298 1.261 . S
C282 O299 1.257 . S
C283 C286 1.358 . S
C283 C287 1.332 . S
C283 C289 1.504 . S
C284 C285 1.373 . S
C284 C288 1.308 . S
C285 C284 1.373 . S
C285 C286 1.429 . S
C285 H312 0.932 . S
C286 C283 1.358 . S
C286 C285 1.429 . S
C286 H313 0.930 . S
C287 C283 1.332 . S
C287 C288 1.394 . S
C287 H314 0.932 . S
C288 C284 1.308 . S
C288 C287 1.394 . S
C288 H315 0.929 . S
C289 Tb280 2.764 . S
C289 C283 1.504 . S
C289 O301 1.239 . S
C289 O302 1.263 . S
O290 Tb280 2.325 . S
O290 C300 1.236 . S
O291 Tb281 2.322 . S
O291 C300 1.257 . S
O292 Tb281 2.349 . S
O292 C303 1.261 . S
O293 Tb280 2.303 . S
O293 C303 1.257 . S
O294 Tb281 2.415 . S
O294 C310 1.239 . S
O295 Tb281 2.399 . S
O295 C310 1.263 . S
O296 Tb281 2.325 . S
O296 C311 1.236 . S
O297 Tb280 2.322 . S
O297 C311 1.257 . S
O298 Tb280 2.349 . S
O298 C282 1.261 . S
O299 Tb281 2.303 . S
O299 C282 1.257 . S
C300 O290 1.236 . S
C300 O291 1.257 . S
O301 Tb280 2.415 . S
O301 C289 1.239 . S
O302 Tb280 2.399 . S
O302 C289 1.263 . S
C303 O292 1.261 . S
C303 O293 1.257 . S
C304 C307 1.358 . S
C304 C308 1.332 . S
C304 C310 1.504 . S
C305 C306 1.373 . S
C305 C309 1.308 . S
C306 C305 1.373 . S
C306 C307 1.429 . S
C306 H316 0.932 . S
C307 C304 1.358 . S
C307 C306 1.429 . S
C307 H317 0.930 . S
C308 C304 1.332 . S
C308 C309 1.394 . S
C308 H318 0.932 . S
C309 C305 1.308 . S
C309 C308 1.394 . S
C309 H319 0.929 . S
C310 Tb281 2.764 . S
C310 O294 1.239 . S
C310 O295 1.263 . S
C310 C304 1.504 . S
C311 O296 1.236 . S
C311 O297 1.257 . S
H312 C285 0.932 . S
H313 C286 0.930 . S
H314 C287 0.932 . S
H315 C288 0.929 . S
H316 C306 0.932 . S
H317 C307 0.930 . S
H318 C308 0.932 . S
H319 C309 0.929 . S
C320 C321 1.170 . S
C320 C322 1.380 . S
C321 C320 1.170 . S
C322 C320 1.380 . S
C322 C323 1.170 . S
C323 C322 1.170 . S
C324 C325 1.170 . S
C324 C326 1.380 . S
C325 C324 1.170 . S
C326 C324 1.380 . S
C326 C327 1.170 . S
C327 C326 1.170 . S
C328 C329 1.170 . S
C328 C330 1.380 . S
C329 C328 1.170 . S
C330 C328 1.380 . S
C330 C331 1.170 . S
C331 C330 1.170 . S
C332 C333 1.170 . S
C332 C334 1.380 . S
C333 C332 1.170 . S
C334 C332 1.380 . S
C334 C335 1.170 . S
C335 C334 1.170 . S
C336 C337 1.170 1_455 S
C336 C338 1.380 . S
C337 C336 1.170 1_655 S
C338 C336 1.380 . S
C338 C339 1.170 . S
C339 C338 1.170 . S
C340 C341 1.170 1_655 S
C340 C342 1.380 . S
C341 C340 1.170 1_455 S
C342 C340 1.380 . S
C342 C343 1.170 . S
C343 C342 1.170 . S
C344 C345 1.170 . S
C344 C346 1.380 . S
C345 C344 1.170 . S
C346 C344 1.380 . S
C346 C347 1.170 1_455 S
C347 C346 1.170 1_655 S
C348 C349 1.170 . S
C348 C350 1.380 . S
C349 C348 1.170 . S
C350 C348 1.380 . S
C350 C351 1.170 1_655 S
C351 C350 1.170 1_455 S
C352 C353 1.170 . S
C352 C354 1.380 1_455 S
C353 C352 1.170 . S
C354 C352 1.380 1_655 S
C354 C355 1.170 . S
C355 C354 1.170 . S
C356 C357 1.170 . S
C356 C358 1.380 1_455 S
C357 C356 1.170 . S
C358 C356 1.380 1_655 S
C358 C359 1.170 . S
C359 C358 1.170 . S
C360 C361 1.170 . S
C360 C362 1.380 1_565 S
C361 C360 1.170 . S
C362 C360 1.380 1_545 S
C362 C363 1.170 . S
C363 C362 1.170 . S
C364 C365 1.170 . S
C364 C366 1.380 1_545 S
C365 C364 1.170 . S
C366 C364 1.380 1_565 S
C366 C367 1.170 . S
C367 C366 1.170 . S
C368 C369 1.170 . S
C368 C370 1.380 . S
C369 C368 1.170 . S
C370 C368 1.380 . S
C370 C371 1.170 . S
C371 C370 1.170 . S
C372 C373 1.170 . S
C372 C374 1.380 . S
C373 C372 1.170 . S
C374 C372 1.380 . S
C374 C375 1.170 . S
C375 C374 1.170 . S
C376 C377 1.170 . S
C376 C378 1.380 . S
C377 C376 1.170 . S
C378 C376 1.380 . S
C378 C379 1.170 . S
C379 C378 1.170 . S
C380 C381 1.170 . S
C380 C382 1.380 . S
C381 C380 1.170 . S
C382 C380 1.380 . S
C382 C383 1.170 . S
C383 C382 1.170 . S
C384 C385 1.170 . S
C384 C386 1.380 1_455 S
C385 C384 1.170 . S
C386 C384 1.380 1_655 S
C386 C387 1.170 . S
C387 C386 1.170 . S
C388 C389 1.170 . S
C388 C390 1.380 1_655 S
C389 C388 1.170 . S
C390 C388 1.380 1_455 S
C390 C391 1.170 . S
C391 C390 1.170 . S
C392 C393 1.170 . S
C392 C394 1.380 1_655 S
C393 C392 1.170 . S
C394 C392 1.380 1_455 S
C394 C395 1.170 . S
C395 C394 1.170 . S
C396 C397 1.170 . S
C396 C398 1.380 1_655 S
C397 C396 1.170 . S
C398 C396 1.380 1_455 S
C398 C399 1.170 . S
C399 C398 1.170 . S
C400 C401 1.170 . S
C400 C402 1.380 . S
C401 C400 1.170 . S
C402 C400 1.380 . S
C402 C403 1.170 . S
C403 C402 1.170 . S
C404 C405 1.170 . S
C404 C406 1.380 . S
C405 C404 1.170 . S
C406 C404 1.380 . S
C406 C407 1.170 . S
C407 C406 1.170 . S
C408 C409 1.170 . S
C408 C410 1.380 . S
C409 C408 1.170 . S
C410 C408 1.380 . S
C410 C411 1.170 . S
C411 C410 1.170 . S
C412 C413 1.170 . S
C412 C414 1.380 . S
C413 C412 1.170 . S
C414 C412 1.380 . S
C414 C415 1.170 . S
C415 C414 1.170 . S
C321 C20 2.099 . S
C323 C31 2.102 . S
C325 C60 2.100 . S
C327 C71 2.090 . S
C329 C100 2.092 . S
C331 C111 2.097 . S
C333 C140 2.098 . S
C335 C151 2.103 . S
C337 C180 2.087 . S
C339 C191 2.105 . S
C341 C231 2.107 . S
C343 C220 2.087 . S
C345 C260 2.102 . S
C347 C271 2.099 . S
C349 C311 2.090 . S
C351 C300 2.099 . S
C353 C44 2.578 . S
C355 C25 2.567 . S
C357 C145 2.587 . S
C359 C84 2.576 . S
C361 C185 2.564 . S
C363 C204 2.580 . S
C365 C244 2.560 . S
C367 C305 2.594 . S
C369 C4 1.837 . S
C371 C225 1.836 . S
C373 C164 1.824 . S
C375 C65 1.847 . S
C377 C105 1.832 . S
C379 C284 1.824 . S
C381 C124 1.820 . S
C383 C265 1.848 . S
C385 C23 1.448 . S
C387 C143 1.452 . S
C389 C63 1.636 . S
C391 C103 1.647 . S
C393 C42 1.454 . S
C395 C82 1.436 . S
C397 C122 1.666 . S
C399 C2 1.670 . S
C401 C183 1.451 . S
C403 C303 1.454 . S
C405 C223 1.641 . S
C407 C263 1.668 . S
C409 C202 1.441 . S
C411 C242 1.414 . S
C413 C282 1.651 . S
C415 C162 1.644 . S
