# Generated by pormake.
# Topology unc, (4)-cn, num edge types: 1
# Building blocks:
#     Node 0, Type 0, BuildingBlock: UXUYUI_clean_sbu_0, # of connection points: 4
#     Node 1, Type 0, BuildingBlock: UXUYUI_clean_sbu_0, # of connection points: 4
#     Node 2, Type 0, BuildingBlock: UXUYUI_clean_sbu_0, # of connection points: 4
#     Node 3, Type 0, BuildingBlock: UXUYUI_clean_sbu_0, # of connection points: 4
#     Edge 4, Type (0, 0), BuildingBlock: KIFKEQ_clean_linker_1, # of connection points: 2
#     Edge 5, Type (0, 0), BuildingBlock: KIFKEQ_clean_linker_1, # of connection points: 2
#     Edge 6, Type (0, 0), BuildingBlock: KIFKEQ_clean_linker_1, # of connection points: 2
#     Edge 7, Type (0, 0), BuildingBlock: KIFKEQ_clean_linker_1, # of connection points: 2
#     Edge 8, Type (0, 0), BuildingBlock: KIFKEQ_clean_linker_1, # of connection points: 2
#     Edge 9, Type (0, 0), BuildingBlock: KIFKEQ_clean_linker_1, # of connection points: 2
#     Edge 10, Type (0, 0), BuildingBlock: KIFKEQ_clean_linker_1, # of connection points: 2
#     Edge 11, Type (0, 0), BuildingBlock: KIFKEQ_clean_linker_1, # of connection points: 2
# Relax obj value: 0.184
# Max RMSD: 0.213
# Mean RMSD: 0.213
data_MOF--net-unc--node1-UXUYUI_clean_sbu_0--edge1-KIFKEQ_clean_linker_1
_symmetry_space_group_name_H-M    P1
_symmetry_Int_Tables_number       1
_symmetry_cell_setting            triclinic
loop_
_symmetry_equiv_pos_as_xyz
'x, y, z'
_cell_length_a     43.745384
_cell_length_b     43.744568
_cell_length_c     33.067804
_cell_angle_alpha  90.040568
_cell_angle_beta   89.975723
_cell_angle_gamma 90.038765
loop_
_atom_site_label
_atom_site_type_symbol
_atom_site_fract_x
_atom_site_fract_y
_atom_site_fract_z
_atom_type_partial_charge
Li0 Li 0.0255 0.68187 0.00802 0.0
Li1 Li 0.9871 0.64138 0.02629 0.0
Li2 Li 0.01015 0.64282 0.96119 0.0
Li3 Li 0.97362 0.68134 0.9772 0.0
C4 C 0.05174 0.61559 0.00433 0.0
N5 N 0.09281 0.57101 0.98115 0.0
C6 C 0.04474 0.58475 0.01024 0.0
C7 C 0.07968 0.62383 0.98697 0.0
C8 C 0.06581 0.56253 -0.00177 0.0
C9 C 0.10013 0.60092 0.97537 0.0
C10 C 0.97675 0.69897 0.07057 0.0
C11 C 0.93972 0.72378 0.11356 0.0
N12 N 0.96068 0.72471 0.14391 0.0
C13 C 0.998 0.70049 0.10204 0.0
C14 C 0.94744 0.71098 0.07622 0.0
C15 C 0.98941 0.71345 0.13894 0.0
C16 C 0.05792 0.73681 0.01476 0.0
N17 N 0.05675 0.70744 0.02792 0.0
C18 C 0.09903 0.71587 0.07218 0.0
C19 C 0.07686 0.69658 0.0557 0.0
C20 C 0.10063 0.74656 0.05964 0.0
C21 C 0.07987 0.75684 0.03016 0.0
H22 H 0.04158 0.7447 0.99254 0.0
H23 H 0.07521 0.67308 0.06567 0.0
C24 C 0.95649 0.59035 0.06142 0.0
N25 N 0.97453 0.61501 0.06917 0.0
C26 C 0.94957 0.56953 0.09202 0.0
C27 C 0.98069 0.59921 0.13787 0.0
C28 C 0.98675 0.61962 0.10645 0.0
C29 C 0.96204 0.57357 0.13081 0.0
H30 H 0.94816 0.58617 0.03122 0.0
H31 H 0.00222 0.63846 0.11141 0.0
C32 C 0.00936 0.69441 0.91059 0.0
N33 N -0.00068 0.70928 0.8305 0.0
C34 C 0.98842 0.67765 0.88756 0.0
C35 C 0.02517 0.71872 0.8929 0.0
C36 C 0.98367 0.68553 0.84712 0.0
C37 C 0.01979 0.72589 0.85235 0.0
C38 C 0.93589 0.63015 0.97718 0.0
C39 C 0.92135 0.61071 0.94969 0.0
C40 C 0.91908 0.64333 0.0086 0.0
C41 C 0.89014 0.6048 0.95411 0.0
C42 C 0.88793 0.63684 0.01202 0.0
N43 N 0.87421 0.61788 0.98492 0.0
C44 C 0.01158 0.58826 0.91807 0.0
C45 C 0.04532 0.62579 0.89171 0.0
C46 C 0.01945 0.568 0.88727 0.0
N47 N 0.02433 0.61656 0.91949 0.0
C48 C 0.05344 0.60642 0.85987 0.0
C49 C 0.04023 0.57722 0.85733 0.0
H50 H 0.99496 0.58164 0.94066 0.0
H51 H 0.05528 0.64836 0.89384 0.0
C52 C 0.94442 0.7378 0.96994 0.0
N53 N 0.94279 0.70813 0.95793 0.0
C54 C 0.92334 0.7591 0.95553 0.0
C55 C 0.89923 0.71885 0.9168 0.0
C56 C 0.92092 0.6984 0.9317 0.0
C57 C 0.90039 0.74968 0.92857 0.0
H58 H 0.96231 0.74491 0.99048 0.0
H59 H 0.92059 0.6749 0.92169 0.0
O60 O 0.03111 0.63762 0.01487 0.0
O61 O 0.98488 0.68684 0.03394 0.0
O62 O 0.01436 0.68734 0.95035 0.0
O63 O 0.96636 0.63638 0.97276 0.0
H64 H 0.02314 0.57807 0.02356 0.0
H65 H 0.08532 0.64765 0.98211 0.0
H66 H 0.06065 0.53855 0.00236 0.0
H67 H 0.12176 0.60692 0.96165 0.0
H68 H 0.91709 0.73306 0.11837 0.0
H69 H 0.02083 0.69153 0.09815 0.0
H70 H 0.93083 0.71057 0.05198 0.0
H71 H 0.00559 0.71458 0.16363 0.0
H72 H 0.11422 0.70702 0.0952 0.0
H73 H 0.08055 0.7801 0.01903 0.0
H74 H 0.93503 0.55019 0.08509 0.0
H75 H 0.99157 0.60285 0.16688 0.0
H76 H 0.97598 0.65873 0.90063 0.0
H77 H 0.04143 0.73193 0.91035 0.0
H78 H 0.96755 0.67275 0.82896 0.0
H79 H 0.03187 0.74465 0.83826 0.0
H80 H 0.93406 0.60041 0.92511 0.0
H81 H 0.93002 0.65814 0.03029 0.0
H82 H 0.87857 0.58983 0.93302 0.0
H83 H 0.87466 0.64685 0.03626 0.0
H84 H 0.00854 0.54578 0.88601 0.0
H85 H 0.06962 0.61422 0.83731 0.0
H86 H 0.9249 0.78264 0.96548 0.0
H87 H 0.88221 0.71081 0.89552 0.0
Li88 Li 0.35435 0.98522 0.28297 0.0
Li89 Li 0.31548 0.02355 0.26583 0.0
Li90 Li 0.3162 0.97125 0.23376 0.0
Li91 Li 0.35393 0.00934 0.21417 0.0
C92 C 0.30636 0.97323 0.33054 0.0
N93 N 0.30139 0.95437 0.41006 0.0
C94 C 0.30138 0.99461 0.36128 0.0
C95 C 0.30833 0.9422 0.34023 0.0
C96 C 0.29905 0.98464 0.40129 0.0
C97 C 0.3059 0.93313 0.38061 0.0
C98 C 0.36985 0.05836 0.27458 0.0
C99 C 0.3715 0.11133 0.25439 0.0
N100 N 0.38791 0.11807 0.28817 0.0
C101 C 0.38699 0.06578 0.30889 0.0
C102 C 0.36225 0.08128 0.24696 0.0
C103 C 0.39581 0.0961 0.3153 0.0
C104 C 0.3991 0.94792 0.32139 0.0
N105 N 0.37981 0.97202 0.32601 0.0
C106 C 0.3987 0.98132 0.3926 0.0
C107 C 0.37917 0.98856 0.36076 0.0
C108 C 0.41926 0.95683 0.38862 0.0
C109 C 0.41906 0.93981 0.35255 0.0
H110 H 0.39952 0.93541 0.29323 0.0
H111 H 0.36399 0.00795 0.36334 0.0
C112 C 0.26003 0.05477 0.2746 0.0
N113 N 0.28967 0.05477 0.28687 0.0
C114 C 0.23943 0.07605 0.29034 0.0
C115 C 0.28028 0.09698 0.33105 0.0
C116 C 0.30001 0.07521 0.31468 0.0
C117 C 0.24945 0.09749 0.31913 0.0
H118 H 0.25233 0.03791 0.25291 0.0
H119 H 0.32337 0.07423 0.325 0.0
C120 C 0.36436 0.93691 0.21447 0.0
N121 N 0.36919 0.87833 0.18369 0.0
C122 C 0.37591 0.93218 0.17555 0.0
C123 C 0.35579 0.91178 0.23795 0.0
C124 C 0.37806 0.90241 0.16047 0.0
C125 C 0.35824 0.88237 0.22181 0.0
C126 C 0.30032 0.02847 0.17511 0.0
C127 C 0.29512 0.01393 0.13809 0.0
C128 C 0.29581 0.06002 0.17825 0.0
C129 C 0.28651 0.0313 0.10454 0.0
C130 C 0.28714 0.07661 0.14405 0.0
N131 N 0.28277 0.06204 0.10818 0.0
C132 C 0.26913 0.92723 0.23817 0.0
C133 C 0.29421 0.92983 0.17474 0.0
C134 C 0.24947 0.90457 0.22372 0.0
N135 N 0.29087 0.93937 0.21361 0.0
C136 C 0.27493 0.9074 0.15894 0.0
C137 C 0.25199 0.89457 0.18343 0.0
H138 H 0.26684 0.93538 0.26888 0.0
H139 H 0.31168 0.93988 0.15585 0.0
C140 C 0.4032 0.04177 0.1775 0.0
N141 N 0.37904 0.02296 0.1705 0.0
C142 C 0.4231 0.04958 0.14615 0.0
C143 C 0.39356 0.01767 0.10115 0.0
C144 C 0.37381 0.01112 0.13315 0.0
C145 C 0.41888 0.03696 0.1074 0.0
H146 H 0.40771 0.05006 0.20764 0.0
H147 H 0.35512 0.99534 0.12862 0.0
O148 O 0.30908 0.98263 0.2912 0.0
O149 O 0.36062 0.02882 0.2682 0.0
O150 O 0.36157 0.96595 0.22954 0.0
O151 O 0.30855 0.01172 0.20838 0.0
H152 H 0.29967 0.01867 0.35446 0.0
H153 H 0.31159 0.92523 0.3169 0.0
H154 H 0.29544 0.00099 0.42538 0.0
H155 H 0.30754 0.9092 0.38852 0.0
H156 H 0.36576 0.12926 0.23321 0.0
H157 H 0.39345 0.04835 0.33039 0.0
H158 H 0.34987 0.07583 0.2197 0.0
H159 H 0.40896 0.10216 0.34182 0.0
H160 H 0.39846 0.99551 0.41945 0.0
H161 H 0.43439 0.92065 0.34826 0.0
H162 H 0.21579 0.07522 0.28075 0.0
H163 H 0.28912 0.11318 0.35288 0.0
H164 H 0.38321 0.95121 0.15716 0.0
H165 H 0.34721 0.91499 0.26826 0.0
H166 H 0.3868 0.89845 0.13031 0.0
H167 H 0.35144 0.86276 0.23959 0.0
H168 H 0.29787 0.98951 0.13513 0.0
H169 H 0.29866 0.07164 0.20682 0.0
H170 H 0.28273 0.02033 0.07564 0.0
H171 H 0.28375 0.10106 0.14608 0.0
H172 H 0.23246 0.89507 0.24392 0.0
H173 H 0.27751 0.90079 0.12757 0.0
H174 H 0.44192 0.06488 0.15262 0.0
H175 H 0.38961 0.00659 0.07235 0.0
Li176 Li 0.00863 0.355 0.52975 0.0
Li177 Li 0.9734 0.31545 0.51294 0.0
Li178 Li 0.02483 0.31468 0.48782 0.0
Li179 Li 0.98969 0.35382 0.46176 0.0
C180 C 0.00422 0.30689 0.58424 0.0
N181 N 0.98882 0.29764 0.66437 0.0
C182 C 0.98105 0.32426 0.60218 0.0
C183 C 0.01948 0.28478 0.60704 0.0
C184 C 0.97362 0.31925 0.64272 0.0
C185 C 0.01139 0.28046 0.64751 0.0
C186 C 0.93646 0.36765 0.50272 0.0
C187 C 0.89104 0.35912 0.46295 0.0
N188 N 0.87676 0.38205 0.48333 0.0
C189 C 0.92138 0.39119 0.52317 0.0
C190 C 0.92123 0.35151 0.47226 0.0
C191 C 0.89118 0.39809 0.51297 0.0
C192 C 0.01004 0.41289 0.56382 0.0
N193 N 0.0201 0.38392 0.56998 0.0
C194 C 0.04378 0.39861 0.6321 0.0
C195 C 0.03716 0.37651 0.60288 0.0
C196 C 0.03322 0.42875 0.62698 0.0
C197 C 0.01663 0.43582 0.59177 0.0
H198 H 0.99688 0.41815 0.53702 0.0
H199 H 0.04534 0.35338 0.60672 0.0
C200 C 0.94784 0.25917 0.53213 0.0
N201 N 0.94174 0.28961 0.53296 0.0
C202 C 0.9271 0.23831 0.54845 0.0
C203 C 0.89428 0.28054 0.56675 0.0
C204 C 0.91574 0.3006 0.55023 0.0
C205 C 0.8999 0.24894 0.56611 0.0
H206 H 0.96918 0.25117 0.51948 0.0
H207 H 0.9119 0.32491 0.55225 0.0
C208 C 0.05552 0.37711 0.49118 0.0
N209 N 0.10079 0.41566 0.51935 0.0
C210 C 0.05559 0.40793 0.48014 0.0
C211 C 0.0786 0.36581 0.51627 0.0
C212 C 0.07865 0.42708 0.49477 0.0
C213 C 0.10125 0.38569 0.53027 0.0
C214 C 0.99578 0.28948 0.42627 0.0
C215 C 0.0166 0.30004 0.39737 0.0
C216 C 0.98595 0.25909 0.425 0.0
C217 C 0.02756 0.27987 0.36799 0.0
C218 C 0.99741 0.23965 0.39509 0.0
N219 N 0.01784 0.25034 0.36748 0.0
C220 C 0.05407 0.25774 0.48072 0.0
C221 C 0.08115 0.29911 0.45131 0.0
C222 C 0.07563 0.23699 0.46605 0.0
N223 N 0.05703 0.28804 0.47267 0.0
C224 C 0.10335 0.27923 0.43633 0.0
C225 C 0.10053 0.24762 0.4431 0.0
H226 H 0.03438 0.24963 0.49737 0.0
H227 H 0.08268 0.3233 0.44493 0.0
C228 C 0.97592 0.40921 0.42506 0.0
N229 N 0.9775 0.37868 0.41784 0.0
C230 C 0.96883 0.42939 0.39381 0.0
C231 C 0.96419 0.38617 0.34855 0.0
C232 C 0.9711 0.36681 0.38081 0.0
C233 C 0.96343 0.41793 0.35479 0.0
H234 H 0.9807 0.41789 0.45504 0.0
H235 H 0.97168 0.34238 0.37615 0.0
O236 O 0.01187 0.31101 0.54446 0.0
O237 O 0.96614 0.361 0.51229 0.0
O238 O 0.03271 0.35816 0.47809 0.0
O239 O 0.98555 0.30866 0.45604 0.0
H240 H 0.96891 0.34147 0.58516 0.0
H241 H 0.03739 0.27108 0.59354 0.0
H242 H 0.95577 0.33254 0.65698 0.0
H243 H 0.02304 0.26344 0.66552 0.0
H244 H 0.87896 0.3468 0.4395 0.0
H245 H 0.93292 0.40397 0.5467 0.0
H246 H 0.93247 0.33328 0.45599 0.0
H247 H 0.87921 0.41623 0.5286 0.0
H248 H 0.05636 0.39188 0.65882 0.0
H249 H 0.00868 0.4588 0.58579 0.0
H250 H 0.93232 0.21413 0.54729 0.0
H251 H 0.87393 0.28973 0.5809 0.0
H252 H 0.03793 0.41702 0.46069 0.0
H253 H 0.07872 0.34203 0.52533 0.0
H254 H 0.07891 0.45102 0.48665 0.0
H255 H 0.11913 0.37732 0.54995 0.0
H256 H 0.02465 0.32344 0.39814 0.0
H257 H 0.96965 0.25058 0.44685 0.0
H258 H 0.04392 0.28767 0.34571 0.0
H259 H 0.99008 0.21604 0.39384 0.0
H260 H 0.07225 0.21282 0.47153 0.0
H261 H 0.12235 0.28851 0.41931 0.0
H262 H 0.96863 0.45373 0.39981 0.0
H263 H 0.95969 0.37646 0.319 0.0
Li264 Li 0.64356 0.00965 0.78071 0.0
Li265 Li 0.68212 0.97395 0.76153 0.0
Li266 Li 0.68261 0.0253 0.73632 0.0
Li267 Li 0.64237 0.99056 0.71273 0.0
C268 C 0.69363 0.00472 0.83211 0.0
N269 N 0.70584 0.98927 0.91149 0.0
C270 C 0.67673 0.98173 0.85122 0.0
C271 C 0.71679 0.01976 0.85336 0.0
C272 C 0.68324 0.97428 0.89136 0.0
C273 C 0.72259 0.01166 0.89348 0.0
C274 C 0.62903 0.93763 0.7545 0.0
C275 C 0.63569 0.89195 0.71454 0.0
N276 N 0.6129 0.8782 0.73582 0.0
C277 C 0.60563 0.92307 0.77587 0.0
C278 C 0.64417 0.922 0.72349 0.0
C279 C 0.59784 0.893 0.76602 0.0
C280 C 0.5869 0.01229 0.81873 0.0
N281 N 0.61637 0.02166 0.82276 0.0
C282 C 0.60509 0.04523 0.8862 0.0
C283 C 0.62566 0.03839 0.8552 0.0
C284 C 0.57464 0.03544 0.88302 0.0
C285 C 0.56543 0.01923 0.84853 0.0
H286 H 0.58019 -0.00081 0.79242 0.0
H287 H 0.64906 0.04615 0.85727 0.0
C288 C 0.73871 0.94838 0.77818 0.0
N289 N 0.70831 0.94214 0.78002 0.0
C290 C 0.75997 0.92761 0.79342 0.0
C291 C 0.71823 0.89437 0.81251 0.0
C292 C 0.69776 0.91592 0.7972 0.0
C293 C 0.74977 0.90019 0.81087 0.0
H294 H 0.74638 0.96987 0.76562 0.0
H295 H 0.67352 0.91196 0.80009 0.0
C296 C 0.62233 0.05776 0.74403 0.0
N297 N 0.58862 0.10545 0.77578 0.0
C298 C 0.59105 0.0599 0.73601 0.0
C299 C 0.63653 0.07996 0.76797 0.0
C300 C 0.57438 0.08417 0.7524 0.0
C301 C 0.61907 0.10388 0.78379 0.0
C302 C 0.70487 0.99652 0.67315 0.0
C303 C 0.69223 0.01584 0.64396 0.0
C304 C 0.73577 0.98863 0.67083 0.0
C305 C 0.71083 0.0272 0.61307 0.0
C306 C 0.75362 0.00047 0.63948 0.0
N307 N 0.74089 0.01937 0.61152 0.0
C308 C 0.73941 0.05452 0.7294 0.0
C309 C 0.6987 0.08048 0.69682 0.0
C310 C 0.76042 0.07584 0.71479 0.0
N311 N 0.70932 0.05707 0.71985 0.0
C312 C 0.71888 0.10241 0.68174 0.0
C313 C 0.75025 0.10003 0.69031 0.0
H314 H 0.74712 0.03548 0.74759 0.0
H315 H 0.67468 0.08161 0.68923 0.0
C316 C 0.58577 0.97968 0.67725 0.0
N317 N 0.61631 0.97805 0.67021 0.0
C318 C 0.56505 0.97143 0.64711 0.0
C319 C 0.60768 0.95906 0.60347 0.0
C320 C 0.62758 0.96742 0.63457 0.0
C321 C 0.57596 0.96134 0.60944 0.0
H322 H 0.57756 0.9876 0.70627 0.0
H323 H 0.65199 0.9655 0.63024 0.0
O324 O 0.68809 0.01232 0.79264 0.0
O325 O 0.6365 0.9672 0.76364 0.0
O326 O 0.63891 0.03372 0.72929 0.0
O327 O 0.6872 0.98601 0.70435 0.0
H328 H 0.65875 0.96975 0.83538 0.0
H329 H 0.73016 0.03751 0.83892 0.0
H330 H 0.67033 0.95657 0.90651 0.0
H331 H 0.74044 0.02313 0.91029 0.0
H332 H 0.64723 0.87957 0.69068 0.0
H333 H 0.59362 0.93493 0.79983 0.0
H334 H 0.66231 0.93281 0.70654 0.0
H335 H 0.57979 0.88144 0.78235 0.0
H336 H 0.61283 0.05794 0.9124 0.0
H337 H 0.54212 0.0112 0.84531 0.0
H338 H 0.78411 0.93296 0.7916 0.0
H339 H 0.70943 0.8738 0.82654 0.0
H340 H 0.57972 0.04293 0.71752 0.0
H341 H 0.66068 0.07845 0.77479 0.0
H342 H 0.55012 0.08605 0.74661 0.0
H343 H 0.6297 0.1211 0.80259 0.0
H344 H 0.66842 0.02245 0.64558 0.0
H345 H 0.7459 0.97361 0.69303 0.0
H346 H 0.70141 0.04237 0.59048 0.0
H347 H 0.7776 0.99466 0.6374 0.0
H348 H 0.78436 0.07335 0.72241 0.0
H349 H 0.71017 0.12046 0.66256 0.0
H350 H 0.54079 0.97372 0.65289 0.0
H351 H 0.61699 0.95091 0.57509 0.0
H352 H 0.95939 0.51132 0.12215 0.0
H353 H 0.95438 0.58277 0.2123 0.0
H354 H 0.95483 0.47297 0.17484 0.0
H355 H 0.9519 0.54429 0.26529 0.0
H356 H 0.92659 0.46841 0.35169 0.0
H357 H 0.92204 0.50524 0.29651 0.0
H358 H 0.98659 0.45255 0.22611 0.0
H359 H 0.99039 0.41556 0.28072 0.0
C360 C 0.95701 0.51892 0.15316 0.0
C361 C 0.95735 0.55022 0.16291 0.0
C362 C 0.95486 0.49685 0.18349 0.0
C363 C 0.95332 0.50547 0.2244 0.0
C364 C 0.95278 0.53677 0.23411 0.0
C365 C 0.95466 0.55888 0.20372 0.0
C366 C 0.9396 0.4647 0.32424 0.0
C367 C 0.95883 0.43915 0.32044 0.0
C368 C 0.93711 0.48582 0.2927 0.0
C369 C 0.95401 0.48196 0.25686 0.0
C370 C 0.97278 0.45601 0.25291 0.0
C371 C 0.97504 0.4348 0.28425 0.0
H372 H 0.41052 0.95841 0.4706 0.0
H373 H 0.47954 0.94141 0.3798 0.0
H374 H 0.44923 0.95502 0.52321 0.0
H375 H 0.51799 0.93643 0.4326 0.0
H376 H 0.58091 0.97833 0.53041 0.0
H377 H 0.54337 0.97184 0.47686 0.0
H378 H 0.48443 0.9228 0.55935 0.0
H379 H 0.522 0.9297 0.61319 0.0
C380 C 0.43389 0.95356 0.4619 0.0
C381 C 0.44197 0.95056 0.42094 0.0
C382 C 0.45604 0.95121 0.49213 0.0
C383 C 0.48678 0.94567 0.48211 0.0
C384 C 0.49459 0.94119 0.44129 0.0
C385 C 0.47245 0.94366 0.41104 0.0
C386 C 0.5602 0.96567 0.53692 0.0
C387 C 0.55433 0.95468 0.57606 0.0
C388 C 0.53867 0.96188 0.50618 0.0
C389 C 0.51081 0.94687 0.51382 0.0
C390 C 0.50543 0.93491 0.55264 0.0
C391 C 0.52693 0.93883 0.58345 0.0
H392 H 0.03693 0.59232 0.77772 0.0
H393 H 0.05594 0.51687 0.85793 0.0
H394 H 0.03938 0.55766 0.71967 0.0
H395 H 0.05863 0.48222 0.79978 0.0
H396 H 0.08311 0.436 0.67707 0.0
H397 H 0.08944 0.47306 0.73182 0.0
H398 H 0.00193 0.51272 0.70272 0.0
H399 H 0.99463 0.47503 0.64967 0.0
C400 C 0.04234 0.56846 0.78278 0.0
C401 C 0.04613 0.55716 0.82219 0.0
C402 C 0.04355 0.54866 0.74968 0.0
C403 C 0.04906 0.51734 0.75541 0.0
C404 C 0.05452 0.50633 0.79462 0.0
C405 C 0.05282 0.52605 0.8278 0.0
C406 C 0.06506 0.45241 0.68249 0.0
C407 C 0.03832 0.45237 0.65876 0.0
C408 C 0.06886 0.47374 0.71363 0.0
C409 C 0.04628 0.49579 0.72115 0.0
C410 C 0.01992 0.49625 0.69703 0.0
C411 C 0.01586 0.47467 0.66646 0.0
H412 H 0.48096 0.04559 0.11474 0.0
H413 H 0.40912 0.03987 0.02517 0.0
H414 H 0.51845 0.05098 0.06158 0.0
H415 H 0.44707 0.04187 0.9719 0.0
H416 H 0.51928 0.06385 0.87994 0.0
H417 H 0.48217 0.06941 0.93467 0.0
H418 H 0.5436 0.02124 0.01507 0.0
H419 H 0.58108 0.01772 0.96096 0.0
C420 C 0.47297 0.04567 0.08378 0.0
C421 C 0.44175 0.04211 0.07458 0.0
C422 C 0.49472 0.04815 0.05306 0.0
C423 C 0.48607 0.04635 0.01217 0.0
C424 C 0.45478 0.04364 0.00291 0.0
C425 C 0.43293 0.04188 0.03366 0.0
C426 C 0.52478 0.0549 0.9096 0.0
C427 C 0.55292 0.04048 0.9165 0.0
C428 C 0.50349 0.0578 0.94091 0.0
C429 C 0.50963 0.04566 0.97952 0.0
C430 C 0.53813 0.03153 0.98622 0.0
C431 C 0.55963 0.02928 0.95517 0.0
H432 H 0.26388 0.8482 0.12969 0.0
H433 H 0.19071 0.88914 0.1989 0.0
H434 H 0.22762 0.81273 0.09939 0.0
H435 H 0.15489 0.85247 0.17059 0.0
H436 H 0.09261 0.80683 0.07937 0.0
H437 H 0.12955 0.84186 0.1087 0.0
H438 H 0.19641 0.76923 0.11322 0.0
H439 H 0.15999 0.73462 0.08147 0.0
C440 C 0.2401 0.84959 0.13859 0.0
C441 C 0.23025 0.87167 0.16664 0.0
C442 C 0.21935 0.82895 0.12159 0.0
C443 C 0.18827 0.82975 0.13243 0.0
C444 C 0.17855 0.85148 0.16103 0.0
C445 C 0.19923 0.87224 0.17778 0.0
C446 C 0.11532 0.7984 0.08599 0.0
C447 C 0.1233 0.76788 0.07785 0.0
C448 C 0.13641 0.81841 0.10345 0.0
C449 C 0.16596 0.80838 0.11358 0.0
C450 C 0.17396 0.77785 0.10546 0.0
C451 C 0.15292 0.75787 0.08771 0.0
H452 H 0.24674 0.11689 0.39783 0.0
H453 H 0.20296 0.1285 0.28171 0.0
H454 H 0.21172 0.15377 0.42751 0.0
H455 H 0.16679 0.16409 0.31195 0.0
H456 H 0.12737 0.25018 0.36838 0.0
H457 H 0.16396 0.21468 0.33905 0.0
H458 H 0.15935 0.15912 0.44691 0.0
H459 H 0.12408 0.19559 0.47719 0.0
C460 C 0.22969 0.12735 0.37857 0.0
C461 C 0.22779 0.11979 0.3373 0.0
C462 C 0.2093 0.14819 0.39576 0.0
C463 C 0.18636 0.16188 0.37217 0.0
C464 C 0.1844 0.15428 0.33092 0.0
C465 C 0.20491 0.13355 0.31367 0.0
C466 C 0.13452 0.23066 0.38614 0.0
C467 C 0.12287 0.22585 0.42527 0.0
C468 C 0.15518 0.21004 0.36905 0.0
C469 C 0.16456 0.18397 0.39054 0.0
C470 C 0.15291 0.17914 0.42967 0.0
C471 C 0.13236 0.19986 0.44686 0.0
H472 H 0.80565 0.08773 0.65596 0.0
H473 H 0.74459 0.16217 0.68487 0.0
H474 H 0.84163 0.12378 0.6261 0.0
H475 H 0.78073 0.19835 0.65534 0.0
H476 H 0.83755 0.24925 0.56016 0.0
H477 H 0.80141 0.21347 0.59049 0.0
H478 H 0.87647 0.16416 0.64477 0.0
H479 H 0.91253 0.19975 0.61413 0.0
C480 C 0.8001 0.11186 0.65636 0.0
C481 C 0.77233 0.12213 0.67286 0.0
C482 C 0.82071 0.13253 0.63926 0.0
C483 C 0.81409 0.16398 0.63836 0.0
C484 C 0.78634 0.17425 0.65498 0.0
C485 C 0.76566 0.15354 0.67197 0.0
C486 C 0.84628 0.23086 0.57878 0.0
C487 C 0.87788 0.22725 0.58463 0.0
C488 C 0.82559 0.21039 0.59622 0.0
C489 C 0.83604 0.18591 0.62003 0.0
C490 C 0.86767 0.18243 0.62603 0.0
C491 C 0.88834 0.20283 0.60849 0.0
H492 H 0.7988 0.91251 0.85921 0.0
H493 H 0.75045 0.83813 0.80186 0.0
H494 H 0.83485 0.8763 0.88846 0.0
H495 H 0.78685 0.80185 0.83035 0.0
H496 H 0.83862 0.74284 0.92087 0.0
H497 H 0.80209 0.77928 0.89303 0.0
H498 H 0.87576 0.84291 0.87019 0.0
H499 H 0.91207 0.80668 0.89886 0.0
C500 C 0.79611 0.88842 0.85251 0.0
C501 C 0.77186 0.87813 0.82821 0.0
C502 C 0.81679 0.86765 0.8692 0.0
C503 C 0.81381 0.83613 0.86174 0.0
C504 C 0.78955 0.8259 0.8373 0.0
C505 C 0.76874 0.84666 0.82085 0.0
C506 C 0.84694 0.7646 0.90978 0.0
C507 C 0.87815 0.77196 0.91209 0.0
C508 C 0.82606 0.78546 0.89371 0.0
C509 C 0.83597 0.81405 0.87928 0.0
C510 C 0.86724 0.82134 0.88164 0.0
C511 C 0.88807 0.80058 0.898 0.0
loop_
_geom_bond_atom_site_label_1
_geom_bond_atom_site_label_2
_geom_bond_distance
_geom_bond_site_symmetry_2
_ccdc_geom_bond_type
Li0 N17 1.990 . S
Li0 O60 1.956 . S
Li0 O61 1.970 1_455 S
Li0 O62 1.961 1_554 S
Li1 N25 1.990 . S
Li1 O60 1.970 1_655 S
Li1 O61 1.956 . S
Li1 O63 1.961 1_554 S
Li2 N47 1.990 . S
Li2 O60 1.961 1_556 S
Li2 O62 1.956 . S
Li2 O63 1.970 1_455 S
Li3 N53 1.990 . S
Li3 O61 1.961 1_556 S
Li3 O62 1.970 1_655 S
Li3 O63 1.956 . S
C4 C6 1.348 . S
C4 C7 1.356 1_554 S
C4 O60 1.325 . S
N5 C8 1.314 . S
N5 C9 1.279 . S
C6 C4 1.348 . S
C6 C8 1.353 . S
C6 H64 0.929 . S
C7 C4 1.356 1_556 S
C7 C9 1.358 1_556 S
C7 H65 0.930 . S
C8 N5 1.314 . S
C8 C6 1.353 . S
C8 H66 0.930 . S
C9 N5 1.279 . S
C9 C7 1.358 1_554 S
C9 H67 0.930 1_554 S
C10 C13 1.348 1_655 S
C10 C14 1.356 . S
C10 O61 1.325 . S
C11 N12 1.279 . S
C11 C14 1.358 . S
C11 H68 0.930 . S
N12 C11 1.279 . S
N12 C15 1.314 . S
C13 C10 1.348 1_455 S
C13 C15 1.353 1_455 S
C13 H69 0.929 . S
C14 C10 1.356 . S
C14 C11 1.358 . S
C14 H70 0.930 . S
C15 N12 1.314 . S
C15 C13 1.353 1_655 S
C15 H71 0.930 1_655 S
C16 N17 1.314 . S
C16 C21 1.353 . S
C16 H22 0.930 1_554 S
N17 Li0 1.990 . S
N17 C16 1.314 . S
N17 C19 1.279 . S
C18 C19 1.358 . S
C18 C20 1.356 . S
C18 H72 0.930 . S
C19 N17 1.279 . S
C19 C18 1.358 . S
C19 H23 0.930 . S
C20 C18 1.356 . S
C20 C21 1.348 . S
C21 C16 1.353 . S
C21 C20 1.348 . S
C21 H73 0.929 . S
H22 C16 0.930 1_556 S
H23 C19 0.930 . S
C24 N25 1.314 . S
C24 C26 1.353 . S
C24 H30 0.930 . S
N25 Li1 1.990 . S
N25 C24 1.314 . S
N25 C28 1.279 . S
C26 C24 1.353 . S
C26 C29 1.348 . S
C26 H74 0.929 . S
C27 C28 1.358 . S
C27 C29 1.356 . S
C27 H75 0.930 . S
C28 N25 1.279 . S
C28 C27 1.358 . S
C28 H31 0.930 . S
C29 C26 1.348 . S
C29 C27 1.356 . S
H30 C24 0.930 . S
H31 C28 0.930 . S
C32 C34 1.348 1_455 S
C32 C35 1.356 . S
C32 O62 1.325 . S
N33 C36 1.314 . S
N33 C37 1.279 . S
C34 C32 1.348 1_655 S
C34 C36 1.353 1_655 S
C34 H76 0.929 . S
C35 C32 1.356 . S
C35 C37 1.358 . S
C35 H77 0.930 . S
C36 N33 1.314 . S
C36 C34 1.353 1_455 S
C36 H78 0.930 1_455 S
C37 N33 1.279 . S
C37 C35 1.358 . S
C37 H79 0.930 . S
C38 C39 1.348 . S
C38 C40 1.356 1_556 S
C38 O63 1.325 . S
C39 C38 1.348 . S
C39 C41 1.353 . S
C39 H80 0.929 . S
C40 C38 1.356 1_554 S
C40 C42 1.358 1_554 S
C40 H81 0.930 . S
C41 C39 1.353 . S
C41 N43 1.314 . S
C41 H82 0.930 . S
C42 C40 1.358 1_556 S
C42 N43 1.279 . S
C42 H83 0.930 1_556 S
N43 C41 1.314 . S
N43 C42 1.279 . S
C44 C46 1.353 . S
C44 N47 1.314 . S
C44 H50 0.930 . S
C45 N47 1.279 . S
C45 C48 1.358 . S
C45 H51 0.930 . S
C46 C44 1.353 . S
C46 C49 1.348 . S
C46 H84 0.929 . S
N47 Li2 1.990 . S
N47 C44 1.314 . S
N47 C45 1.279 . S
C48 C45 1.358 . S
C48 C49 1.356 . S
C48 H85 0.930 . S
C49 C46 1.348 . S
C49 C48 1.356 . S
H50 C44 0.930 . S
H51 C45 0.930 . S
C52 N53 1.314 . S
C52 C54 1.353 . S
C52 H58 0.930 1_556 S
N53 Li3 1.990 . S
N53 C52 1.314 . S
N53 C56 1.279 . S
C54 C52 1.353 . S
C54 C57 1.348 . S
C54 H86 0.929 . S
C55 C56 1.358 . S
C55 C57 1.356 . S
C55 H87 0.930 . S
C56 N53 1.279 . S
C56 C55 1.358 . S
C56 H59 0.930 . S
C57 C54 1.348 . S
C57 C55 1.356 . S
H58 C52 0.930 1_554 S
H59 C56 0.930 . S
O60 Li0 1.956 . S
O60 Li1 1.970 1_455 S
O60 Li2 1.961 1_554 S
O60 C4 1.325 . S
O61 Li0 1.970 1_655 S
O61 Li1 1.956 . S
O61 Li3 1.961 1_554 S
O61 C10 1.325 . S
O62 Li0 1.961 1_556 S
O62 Li2 1.956 . S
O62 Li3 1.970 1_455 S
O62 C32 1.325 . S
O63 Li1 1.961 1_556 S
O63 Li2 1.970 1_655 S
O63 Li3 1.956 . S
O63 C38 1.325 . S
H64 C6 0.929 . S
H65 C7 0.930 . S
H66 C8 0.930 . S
H67 C9 0.930 1_556 S
H68 C11 0.930 . S
H69 C13 0.929 . S
H70 C14 0.930 . S
H71 C15 0.930 1_455 S
H72 C18 0.930 . S
H73 C21 0.929 . S
H74 C26 0.929 . S
H75 C27 0.930 . S
H76 C34 0.929 . S
H77 C35 0.930 . S
H78 C36 0.930 1_655 S
H79 C37 0.930 . S
H80 C39 0.929 . S
H81 C40 0.930 . S
H82 C41 0.930 . S
H83 C42 0.930 1_554 S
H84 C46 0.929 . S
H85 C48 0.930 . S
H86 C54 0.929 . S
H87 C55 0.930 . S
Li88 N105 1.990 . S
Li88 O148 1.956 . S
Li88 O149 1.970 1_565 S
Li88 O150 1.961 . S
Li89 N113 1.990 . S
Li89 O148 1.970 1_545 S
Li89 O149 1.956 . S
Li89 O151 1.961 . S
Li90 N135 1.990 . S
Li90 O148 1.961 . S
Li90 O150 1.956 . S
Li90 O151 1.970 1_565 S
Li91 N141 1.990 . S
Li91 O149 1.961 . S
Li91 O150 1.970 1_545 S
Li91 O151 1.956 . S
C92 C94 1.348 1_565 S
C92 C95 1.356 . S
C92 O148 1.325 . S
N93 C96 1.314 . S
N93 C97 1.279 . S
C94 C92 1.348 1_545 S
C94 C96 1.353 1_545 S
C94 H152 0.929 . S
C95 C92 1.356 . S
C95 C97 1.358 . S
C95 H153 0.930 . S
C96 N93 1.314 . S
C96 C94 1.353 1_565 S
C96 H154 0.930 1_565 S
C97 N93 1.279 . S
C97 C95 1.358 . S
C97 H155 0.930 . S
C98 C101 1.348 . S
C98 C102 1.356 . S
C98 O149 1.325 . S
C99 N100 1.279 . S
C99 C102 1.358 . S
C99 H156 0.930 . S
N100 C99 1.279 . S
N100 C103 1.314 . S
C101 C98 1.348 . S
C101 C103 1.353 . S
C101 H157 0.929 . S
C102 C98 1.356 . S
C102 C99 1.358 . S
C102 H158 0.930 . S
C103 N100 1.314 . S
C103 C101 1.353 . S
C103 H159 0.930 . S
C104 N105 1.314 . S
C104 C109 1.353 . S
C104 H110 0.930 . S
N105 Li88 1.990 . S
N105 C104 1.314 . S
N105 C107 1.279 . S
C106 C107 1.358 . S
C106 C108 1.356 . S
C106 H160 0.930 . S
C107 N105 1.279 . S
C107 C106 1.358 . S
C107 H111 0.930 . S
C108 C106 1.356 . S
C108 C109 1.348 . S
C109 C104 1.353 . S
C109 C108 1.348 . S
C109 H161 0.929 . S
H110 C104 0.930 . S
H111 C107 0.930 . S
C112 N113 1.314 . S
C112 C114 1.353 . S
C112 H118 0.930 . S
N113 Li89 1.990 . S
N113 C112 1.314 . S
N113 C116 1.279 . S
C114 C112 1.353 . S
C114 C117 1.348 . S
C114 H162 0.929 . S
C115 C116 1.358 . S
C115 C117 1.356 . S
C115 H163 0.930 . S
C116 N113 1.279 . S
C116 C115 1.358 . S
C116 H119 0.930 . S
C117 C114 1.348 . S
C117 C115 1.356 . S
H118 C112 0.930 . S
H119 C116 0.930 . S
C120 C122 1.348 . S
C120 C123 1.356 . S
C120 O150 1.325 . S
N121 C124 1.314 . S
N121 C125 1.279 . S
C122 C120 1.348 . S
C122 C124 1.353 . S
C122 H164 0.929 . S
C123 C120 1.356 . S
C123 C125 1.358 . S
C123 H165 0.930 . S
C124 N121 1.314 . S
C124 C122 1.353 . S
C124 H166 0.930 . S
C125 N121 1.279 . S
C125 C123 1.358 . S
C125 H167 0.930 . S
C126 C127 1.348 1_545 S
C126 C128 1.356 . S
C126 O151 1.325 . S
C127 C126 1.348 1_565 S
C127 C129 1.353 1_565 S
C127 H168 0.929 . S
C128 C126 1.356 . S
C128 C130 1.358 . S
C128 H169 0.930 . S
C129 C127 1.353 1_545 S
C129 N131 1.314 . S
C129 H170 0.930 1_545 S
C130 C128 1.358 . S
C130 N131 1.279 . S
C130 H171 0.930 . S
N131 C129 1.314 . S
N131 C130 1.279 . S
C132 C134 1.353 . S
C132 N135 1.314 . S
C132 H138 0.930 . S
C133 N135 1.279 . S
C133 C136 1.358 . S
C133 H139 0.930 . S
C134 C132 1.353 . S
C134 C137 1.348 . S
C134 H172 0.929 . S
N135 Li90 1.990 . S
N135 C132 1.314 . S
N135 C133 1.279 . S
C136 C133 1.358 . S
C136 C137 1.356 . S
C136 H173 0.930 . S
C137 C134 1.348 . S
C137 C136 1.356 . S
H138 C132 0.930 . S
H139 C133 0.930 . S
C140 N141 1.314 . S
C140 C142 1.353 . S
C140 H146 0.930 . S
N141 Li91 1.990 . S
N141 C140 1.314 . S
N141 C144 1.279 . S
C142 C140 1.353 . S
C142 C145 1.348 . S
C142 H174 0.929 . S
C143 C144 1.358 . S
C143 C145 1.356 . S
C143 H175 0.930 . S
C144 N141 1.279 . S
C144 C143 1.358 . S
C144 H147 0.930 . S
C145 C142 1.348 . S
C145 C143 1.356 . S
H146 C140 0.930 . S
H147 C144 0.930 . S
O148 Li88 1.956 . S
O148 Li89 1.970 1_565 S
O148 Li90 1.961 . S
O148 C92 1.325 . S
O149 Li88 1.970 1_545 S
O149 Li89 1.956 . S
O149 Li91 1.961 . S
O149 C98 1.325 . S
O150 Li88 1.961 . S
O150 Li90 1.956 . S
O150 Li91 1.970 1_565 S
O150 C120 1.325 . S
O151 Li89 1.961 . S
O151 Li90 1.970 1_545 S
O151 Li91 1.956 . S
O151 C126 1.325 . S
H152 C94 0.929 . S
H153 C95 0.930 . S
H154 C96 0.930 1_545 S
H155 C97 0.930 . S
H156 C99 0.930 . S
H157 C101 0.929 . S
H158 C102 0.930 . S
H159 C103 0.930 . S
H160 C106 0.930 . S
H161 C109 0.929 . S
H162 C114 0.929 . S
H163 C115 0.930 . S
H164 C122 0.929 . S
H165 C123 0.930 . S
H166 C124 0.930 . S
H167 C125 0.930 . S
H168 C127 0.929 . S
H169 C128 0.930 . S
H170 C129 0.930 1_565 S
H171 C130 0.930 . S
H172 C134 0.929 . S
H173 C136 0.930 . S
H174 C142 0.929 . S
H175 C143 0.930 . S
Li176 N193 1.990 . S
Li176 O236 1.956 . S
Li176 O237 1.970 1_455 S
Li176 O238 1.961 . S
Li177 N201 1.990 . S
Li177 O236 1.970 1_655 S
Li177 O237 1.956 . S
Li177 O239 1.961 . S
Li178 N223 1.990 . S
Li178 O236 1.961 . S
Li178 O238 1.956 . S
Li178 O239 1.970 1_455 S
Li179 N229 1.990 . S
Li179 O237 1.961 . S
Li179 O238 1.970 1_655 S
Li179 O239 1.956 . S
C180 C182 1.348 1_455 S
C180 C183 1.356 . S
C180 O236 1.325 . S
N181 C184 1.314 . S
N181 C185 1.279 . S
C182 C180 1.348 1_655 S
C182 C184 1.353 1_655 S
C182 H240 0.929 . S
C183 C180 1.356 . S
C183 C185 1.358 . S
C183 H241 0.930 . S
C184 N181 1.314 . S
C184 C182 1.353 1_455 S
C184 H242 0.930 1_455 S
C185 N181 1.279 . S
C185 C183 1.358 . S
C185 H243 0.930 . S
C186 C189 1.348 . S
C186 C190 1.356 . S
C186 O237 1.325 . S
C187 N188 1.279 . S
C187 C190 1.358 . S
C187 H244 0.930 . S
N188 C187 1.279 . S
N188 C191 1.314 . S
C189 C186 1.348 . S
C189 C191 1.353 . S
C189 H245 0.929 . S
C190 C186 1.356 . S
C190 C187 1.358 . S
C190 H246 0.930 . S
C191 N188 1.314 . S
C191 C189 1.353 . S
C191 H247 0.930 . S
C192 N193 1.314 . S
C192 C197 1.353 . S
C192 H198 0.930 . S
N193 Li176 1.990 . S
N193 C192 1.314 . S
N193 C195 1.279 . S
C194 C195 1.358 . S
C194 C196 1.356 . S
C194 H248 0.930 . S
C195 N193 1.279 . S
C195 C194 1.358 . S
C195 H199 0.930 . S
C196 C194 1.356 . S
C196 C197 1.348 . S
C197 C192 1.353 . S
C197 C196 1.348 . S
C197 H249 0.929 . S
H198 C192 0.930 . S
H199 C195 0.930 . S
C200 N201 1.314 . S
C200 C202 1.353 . S
C200 H206 0.930 . S
N201 Li177 1.990 . S
N201 C200 1.314 . S
N201 C204 1.279 . S
C202 C200 1.353 . S
C202 C205 1.348 . S
C202 H250 0.929 . S
C203 C204 1.358 . S
C203 C205 1.356 . S
C203 H251 0.930 . S
C204 N201 1.279 . S
C204 C203 1.358 . S
C204 H207 0.930 . S
C205 C202 1.348 . S
C205 C203 1.356 . S
H206 C200 0.930 . S
H207 C204 0.930 . S
C208 C210 1.348 . S
C208 C211 1.356 . S
C208 O238 1.325 . S
N209 C212 1.314 . S
N209 C213 1.279 . S
C210 C208 1.348 . S
C210 C212 1.353 . S
C210 H252 0.929 . S
C211 C208 1.356 . S
C211 C213 1.358 . S
C211 H253 0.930 . S
C212 N209 1.314 . S
C212 C210 1.353 . S
C212 H254 0.930 . S
C213 N209 1.279 . S
C213 C211 1.358 . S
C213 H255 0.930 . S
C214 C215 1.348 1_655 S
C214 C216 1.356 . S
C214 O239 1.325 . S
C215 C214 1.348 1_455 S
C215 C217 1.353 1_455 S
C215 H256 0.929 . S
C216 C214 1.356 . S
C216 C218 1.358 . S
C216 H257 0.930 . S
C217 C215 1.353 1_655 S
C217 N219 1.314 . S
C217 H258 0.930 1_655 S
C218 C216 1.358 . S
C218 N219 1.279 . S
C218 H259 0.930 . S
N219 C217 1.314 . S
N219 C218 1.279 . S
C220 C222 1.353 . S
C220 N223 1.314 . S
C220 H226 0.930 . S
C221 N223 1.279 . S
C221 C224 1.358 . S
C221 H227 0.930 . S
C222 C220 1.353 . S
C222 C225 1.348 . S
C222 H260 0.929 . S
N223 Li178 1.990 . S
N223 C220 1.314 . S
N223 C221 1.279 . S
C224 C221 1.358 . S
C224 C225 1.356 . S
C224 H261 0.930 . S
C225 C222 1.348 . S
C225 C224 1.356 . S
H226 C220 0.930 . S
H227 C221 0.930 . S
C228 N229 1.314 . S
C228 C230 1.353 . S
C228 H234 0.930 . S
N229 Li179 1.990 . S
N229 C228 1.314 . S
N229 C232 1.279 . S
C230 C228 1.353 . S
C230 C233 1.348 . S
C230 H262 0.929 . S
C231 C232 1.358 . S
C231 C233 1.356 . S
C231 H263 0.930 . S
C232 N229 1.279 . S
C232 C231 1.358 . S
C232 H235 0.930 . S
C233 C230 1.348 . S
C233 C231 1.356 . S
H234 C228 0.930 . S
H235 C232 0.930 . S
O236 Li176 1.956 . S
O236 Li177 1.970 1_455 S
O236 Li178 1.961 . S
O236 C180 1.325 . S
O237 Li176 1.970 1_655 S
O237 Li177 1.956 . S
O237 Li179 1.961 . S
O237 C186 1.325 . S
O238 Li176 1.961 . S
O238 Li178 1.956 . S
O238 Li179 1.970 1_455 S
O238 C208 1.325 . S
O239 Li177 1.961 . S
O239 Li178 1.970 1_655 S
O239 Li179 1.956 . S
O239 C214 1.325 . S
H240 C182 0.929 . S
H241 C183 0.930 . S
H242 C184 0.930 1_655 S
H243 C185 0.930 . S
H244 C187 0.930 . S
H245 C189 0.929 . S
H246 C190 0.930 . S
H247 C191 0.930 . S
H248 C194 0.930 . S
H249 C197 0.929 . S
H250 C202 0.929 . S
H251 C203 0.930 . S
H252 C210 0.929 . S
H253 C211 0.930 . S
H254 C212 0.930 . S
H255 C213 0.930 . S
H256 C215 0.929 . S
H257 C216 0.930 . S
H258 C217 0.930 1_455 S
H259 C218 0.930 . S
H260 C222 0.929 . S
H261 C224 0.930 . S
H262 C230 0.929 . S
H263 C231 0.930 . S
Li264 N281 1.990 . S
Li264 O324 1.956 . S
Li264 O325 1.970 1_545 S
Li264 O326 1.961 . S
Li265 N289 1.990 . S
Li265 O324 1.970 1_565 S
Li265 O325 1.956 . S
Li265 O327 1.961 . S
Li266 N311 1.990 . S
Li266 O324 1.961 . S
Li266 O326 1.956 . S
Li266 O327 1.970 1_545 S
Li267 N317 1.990 . S
Li267 O325 1.961 . S
Li267 O326 1.970 1_565 S
Li267 O327 1.956 . S
C268 C270 1.348 1_545 S
C268 C271 1.356 . S
C268 O324 1.325 . S
N269 C272 1.314 . S
N269 C273 1.279 . S
C270 C268 1.348 1_565 S
C270 C272 1.353 1_565 S
C270 H328 0.929 . S
C271 C268 1.356 . S
C271 C273 1.358 . S
C271 H329 0.930 . S
C272 N269 1.314 . S
C272 C270 1.353 1_545 S
C272 H330 0.930 1_545 S
C273 N269 1.279 . S
C273 C271 1.358 . S
C273 H331 0.930 . S
C274 C277 1.348 . S
C274 C278 1.356 . S
C274 O325 1.325 . S
C275 N276 1.279 . S
C275 C278 1.358 . S
C275 H332 0.930 . S
N276 C275 1.279 . S
N276 C279 1.314 . S
C277 C274 1.348 . S
C277 C279 1.353 . S
C277 H333 0.929 . S
C278 C274 1.356 . S
C278 C275 1.358 . S
C278 H334 0.930 . S
C279 N276 1.314 . S
C279 C277 1.353 . S
C279 H335 0.930 . S
C280 N281 1.314 . S
C280 C285 1.353 . S
C280 H286 0.930 . S
N281 Li264 1.990 . S
N281 C280 1.314 . S
N281 C283 1.279 . S
C282 C283 1.358 . S
C282 C284 1.356 . S
C282 H336 0.930 . S
C283 N281 1.279 . S
C283 C282 1.358 . S
C283 H287 0.930 . S
C284 C282 1.356 . S
C284 C285 1.348 . S
C285 C280 1.353 . S
C285 C284 1.348 . S
C285 H337 0.929 . S
H286 C280 0.930 . S
H287 C283 0.930 . S
C288 N289 1.314 . S
C288 C290 1.353 . S
C288 H294 0.930 . S
N289 Li265 1.990 . S
N289 C288 1.314 . S
N289 C292 1.279 . S
C290 C288 1.353 . S
C290 C293 1.348 . S
C290 H338 0.929 . S
C291 C292 1.358 . S
C291 C293 1.356 . S
C291 H339 0.930 . S
C292 N289 1.279 . S
C292 C291 1.358 . S
C292 H295 0.930 . S
C293 C290 1.348 . S
C293 C291 1.356 . S
H294 C288 0.930 . S
H295 C292 0.930 . S
C296 C298 1.348 . S
C296 C299 1.356 . S
C296 O326 1.325 . S
N297 C300 1.314 . S
N297 C301 1.279 . S
C298 C296 1.348 . S
C298 C300 1.353 . S
C298 H340 0.929 . S
C299 C296 1.356 . S
C299 C301 1.358 . S
C299 H341 0.930 . S
C300 N297 1.314 . S
C300 C298 1.353 . S
C300 H342 0.930 . S
C301 N297 1.279 . S
C301 C299 1.358 . S
C301 H343 0.930 . S
C302 C303 1.348 1_565 S
C302 C304 1.356 . S
C302 O327 1.325 . S
C303 C302 1.348 1_545 S
C303 C305 1.353 1_545 S
C303 H344 0.929 . S
C304 C302 1.356 . S
C304 C306 1.358 . S
C304 H345 0.930 . S
C305 C303 1.353 1_565 S
C305 N307 1.314 . S
C305 H346 0.930 1_565 S
C306 C304 1.358 . S
C306 N307 1.279 . S
C306 H347 0.930 . S
N307 C305 1.314 . S
N307 C306 1.279 . S
C308 C310 1.353 . S
C308 N311 1.314 . S
C308 H314 0.930 . S
C309 N311 1.279 . S
C309 C312 1.358 . S
C309 H315 0.930 . S
C310 C308 1.353 . S
C310 C313 1.348 . S
C310 H348 0.929 . S
N311 Li266 1.990 . S
N311 C308 1.314 . S
N311 C309 1.279 . S
C312 C309 1.358 . S
C312 C313 1.356 . S
C312 H349 0.930 . S
C313 C310 1.348 . S
C313 C312 1.356 . S
H314 C308 0.930 . S
H315 C309 0.930 . S
C316 N317 1.314 . S
C316 C318 1.353 . S
C316 H322 0.930 . S
N317 Li267 1.990 . S
N317 C316 1.314 . S
N317 C320 1.279 . S
C318 C316 1.353 . S
C318 C321 1.348 . S
C318 H350 0.929 . S
C319 C320 1.358 . S
C319 C321 1.356 . S
C319 H351 0.930 . S
C320 N317 1.279 . S
C320 C319 1.358 . S
C320 H323 0.930 . S
C321 C318 1.348 . S
C321 C319 1.356 . S
H322 C316 0.930 . S
H323 C320 0.930 . S
O324 Li264 1.956 . S
O324 Li265 1.970 1_545 S
O324 Li266 1.961 . S
O324 C268 1.325 . S
O325 Li264 1.970 1_565 S
O325 Li265 1.956 . S
O325 Li267 1.961 . S
O325 C274 1.325 . S
O326 Li264 1.961 . S
O326 Li266 1.956 . S
O326 Li267 1.970 1_545 S
O326 C296 1.325 . S
O327 Li265 1.961 . S
O327 Li266 1.970 1_565 S
O327 Li267 1.956 . S
O327 C302 1.325 . S
H328 C270 0.929 . S
H329 C271 0.930 . S
H330 C272 0.930 1_565 S
H331 C273 0.930 . S
H332 C275 0.930 . S
H333 C277 0.929 . S
H334 C278 0.930 . S
H335 C279 0.930 . S
H336 C282 0.930 . S
H337 C285 0.929 . S
H338 C290 0.929 . S
H339 C291 0.930 . S
H340 C298 0.929 . S
H341 C299 0.930 . S
H342 C300 0.930 . S
H343 C301 0.930 . S
H344 C303 0.929 . S
H345 C304 0.930 . S
H346 C305 0.930 1_545 S
H347 C306 0.930 . S
H348 C310 0.929 . S
H349 C312 0.930 . S
H350 C318 0.929 . S
H351 C319 0.930 . S
H352 C360 0.950 . S
H353 C365 0.950 . S
H354 C362 0.950 . S
H355 C364 0.950 . S
H356 C366 0.950 . S
H357 C368 0.950 . S
H358 C370 0.950 . S
H359 C371 0.950 . S
C360 H352 0.950 . S
C360 C361 1.386 . S
C360 C362 1.391 . S
C361 C360 1.386 . S
C361 C365 1.393 . S
C362 H354 0.950 . S
C362 C360 1.391 . S
C362 C363 1.400 . S
C363 C362 1.400 . S
C363 C364 1.398 . S
C363 C369 1.491 . S
C364 H355 0.950 . S
C364 C363 1.398 . S
C364 C365 1.391 . S
C365 H353 0.950 . S
C365 C361 1.393 . S
C365 C364 1.391 . S
C366 H356 0.950 . S
C366 C367 1.386 . S
C366 C368 1.391 . S
C367 C366 1.386 . S
C367 C371 1.393 . S
C368 H357 0.950 . S
C368 C366 1.391 . S
C368 C369 1.400 . S
C369 C363 1.491 . S
C369 C368 1.400 . S
C369 C370 1.398 . S
C370 H358 0.950 . S
C370 C369 1.398 . S
C370 C371 1.391 . S
C371 H359 0.950 . S
C371 C367 1.393 . S
C371 C370 1.391 . S
H372 C380 0.950 . S
H373 C385 0.950 . S
H374 C382 0.950 . S
H375 C384 0.950 . S
H376 C386 0.950 . S
H377 C388 0.950 . S
H378 C390 0.950 . S
H379 C391 0.950 . S
C380 H372 0.950 . S
C380 C381 1.386 . S
C380 C382 1.391 . S
C381 C380 1.386 . S
C381 C385 1.393 . S
C382 H374 0.950 . S
C382 C380 1.391 . S
C382 C383 1.400 . S
C383 C382 1.400 . S
C383 C384 1.398 . S
C383 C389 1.491 . S
C384 H375 0.950 . S
C384 C383 1.398 . S
C384 C385 1.391 . S
C385 H373 0.950 . S
C385 C381 1.393 . S
C385 C384 1.391 . S
C386 H376 0.950 . S
C386 C387 1.386 . S
C386 C388 1.391 . S
C387 C386 1.386 . S
C387 C391 1.393 . S
C388 H377 0.950 . S
C388 C386 1.391 . S
C388 C389 1.400 . S
C389 C383 1.491 . S
C389 C388 1.400 . S
C389 C390 1.398 . S
C390 H378 0.950 . S
C390 C389 1.398 . S
C390 C391 1.391 . S
C391 H379 0.950 . S
C391 C387 1.393 . S
C391 C390 1.391 . S
H392 C400 0.950 . S
H393 C405 0.950 . S
H394 C402 0.950 . S
H395 C404 0.950 . S
H396 C406 0.950 . S
H397 C408 0.950 . S
H398 C410 0.950 . S
H399 C411 0.950 . S
C400 H392 0.950 . S
C400 C401 1.386 . S
C400 C402 1.391 . S
C401 C400 1.386 . S
C401 C405 1.393 . S
C402 H394 0.950 . S
C402 C400 1.391 . S
C402 C403 1.400 . S
C403 C402 1.400 . S
C403 C404 1.398 . S
C403 C409 1.491 . S
C404 H395 0.950 . S
C404 C403 1.398 . S
C404 C405 1.391 . S
C405 H393 0.950 . S
C405 C401 1.393 . S
C405 C404 1.391 . S
C406 H396 0.950 . S
C406 C407 1.386 . S
C406 C408 1.391 . S
C407 C406 1.386 . S
C407 C411 1.393 . S
C408 H397 0.950 . S
C408 C406 1.391 . S
C408 C409 1.400 . S
C409 C403 1.491 . S
C409 C408 1.400 . S
C409 C410 1.398 . S
C410 H398 0.950 . S
C410 C409 1.398 . S
C410 C411 1.391 . S
C411 H399 0.950 . S
C411 C407 1.393 . S
C411 C410 1.391 . S
H412 C420 0.950 . S
H413 C425 0.950 . S
H414 C422 0.950 . S
H415 C424 0.950 1_556 S
H416 C426 0.950 . S
H417 C428 0.950 . S
H418 C430 0.950 1_554 S
H419 C431 0.950 . S
C420 H412 0.950 . S
C420 C421 1.386 . S
C420 C422 1.391 . S
C421 C420 1.386 . S
C421 C425 1.393 . S
C422 H414 0.950 . S
C422 C420 1.391 . S
C422 C423 1.400 . S
C423 C422 1.400 . S
C423 C424 1.398 . S
C423 C429 1.491 1_554 S
C424 H415 0.950 1_554 S
C424 C423 1.398 . S
C424 C425 1.391 . S
C425 H413 0.950 . S
C425 C421 1.393 . S
C425 C424 1.391 . S
C426 H416 0.950 . S
C426 C427 1.386 . S
C426 C428 1.391 . S
C427 C426 1.386 . S
C427 C431 1.393 . S
C428 H417 0.950 . S
C428 C426 1.391 . S
C428 C429 1.400 . S
C429 C423 1.491 1_556 S
C429 C428 1.400 . S
C429 C430 1.398 . S
C430 H418 0.950 1_556 S
C430 C429 1.398 . S
C430 C431 1.391 . S
C431 H419 0.950 . S
C431 C427 1.393 . S
C431 C430 1.391 . S
H432 C440 0.950 . S
H433 C445 0.950 . S
H434 C442 0.950 . S
H435 C444 0.950 . S
H436 C446 0.950 . S
H437 C448 0.950 . S
H438 C450 0.950 . S
H439 C451 0.950 . S
C440 H432 0.950 . S
C440 C441 1.386 . S
C440 C442 1.391 . S
C441 C440 1.386 . S
C441 C445 1.393 . S
C442 H434 0.950 . S
C442 C440 1.391 . S
C442 C443 1.400 . S
C443 C442 1.400 . S
C443 C444 1.398 . S
C443 C449 1.491 . S
C444 H435 0.950 . S
C444 C443 1.398 . S
C444 C445 1.391 . S
C445 H433 0.950 . S
C445 C441 1.393 . S
C445 C444 1.391 . S
C446 H436 0.950 . S
C446 C447 1.386 . S
C446 C448 1.391 . S
C447 C446 1.386 . S
C447 C451 1.393 . S
C448 H437 0.950 . S
C448 C446 1.391 . S
C448 C449 1.400 . S
C449 C443 1.491 . S
C449 C448 1.400 . S
C449 C450 1.398 . S
C450 H438 0.950 . S
C450 C449 1.398 . S
C450 C451 1.391 . S
C451 H439 0.950 . S
C451 C447 1.393 . S
C451 C450 1.391 . S
H452 C460 0.950 . S
H453 C465 0.950 . S
H454 C462 0.950 . S
H455 C464 0.950 . S
H456 C466 0.950 . S
H457 C468 0.950 . S
H458 C470 0.950 . S
H459 C471 0.950 . S
C460 H452 0.950 . S
C460 C461 1.386 . S
C460 C462 1.391 . S
C461 C460 1.386 . S
C461 C465 1.393 . S
C462 H454 0.950 . S
C462 C460 1.391 . S
C462 C463 1.400 . S
C463 C462 1.400 . S
C463 C464 1.398 . S
C463 C469 1.491 . S
C464 H455 0.950 . S
C464 C463 1.398 . S
C464 C465 1.391 . S
C465 H453 0.950 . S
C465 C461 1.393 . S
C465 C464 1.391 . S
C466 H456 0.950 . S
C466 C467 1.386 . S
C466 C468 1.391 . S
C467 C466 1.386 . S
C467 C471 1.393 . S
C468 H457 0.950 . S
C468 C466 1.391 . S
C468 C469 1.400 . S
C469 C463 1.491 . S
C469 C468 1.400 . S
C469 C470 1.398 . S
C470 H458 0.950 . S
C470 C469 1.398 . S
C470 C471 1.391 . S
C471 H459 0.950 . S
C471 C467 1.393 . S
C471 C470 1.391 . S
H472 C480 0.950 . S
H473 C485 0.950 . S
H474 C482 0.950 . S
H475 C484 0.950 . S
H476 C486 0.950 . S
H477 C488 0.950 . S
H478 C490 0.950 . S
H479 C491 0.950 . S
C480 H472 0.950 . S
C480 C481 1.386 . S
C480 C482 1.391 . S
C481 C480 1.386 . S
C481 C485 1.393 . S
C482 H474 0.950 . S
C482 C480 1.391 . S
C482 C483 1.400 . S
C483 C482 1.400 . S
C483 C484 1.398 . S
C483 C489 1.491 . S
C484 H475 0.950 . S
C484 C483 1.398 . S
C484 C485 1.391 . S
C485 H473 0.950 . S
C485 C481 1.393 . S
C485 C484 1.391 . S
C486 H476 0.950 . S
C486 C487 1.386 . S
C486 C488 1.391 . S
C487 C486 1.386 . S
C487 C491 1.393 . S
C488 H477 0.950 . S
C488 C486 1.391 . S
C488 C489 1.400 . S
C489 C483 1.491 . S
C489 C488 1.400 . S
C489 C490 1.398 . S
C490 H478 0.950 . S
C490 C489 1.398 . S
C490 C491 1.391 . S
C491 H479 0.950 . S
C491 C487 1.393 . S
C491 C490 1.391 . S
H492 C500 0.950 . S
H493 C505 0.950 . S
H494 C502 0.950 . S
H495 C504 0.950 . S
H496 C506 0.950 . S
H497 C508 0.950 . S
H498 C510 0.950 . S
H499 C511 0.950 . S
C500 H492 0.950 . S
C500 C501 1.386 . S
C500 C502 1.391 . S
C501 C500 1.386 . S
C501 C505 1.393 . S
C502 H494 0.950 . S
C502 C500 1.391 . S
C502 C503 1.400 . S
C503 C502 1.400 . S
C503 C504 1.398 . S
C503 C509 1.491 . S
C504 H495 0.950 . S
C504 C503 1.398 . S
C504 C505 1.391 . S
C505 H493 0.950 . S
C505 C501 1.393 . S
C505 C504 1.391 . S
C506 H496 0.950 . S
C506 C507 1.386 . S
C506 C508 1.391 . S
C507 C506 1.386 . S
C507 C511 1.393 . S
C508 H497 0.950 . S
C508 C506 1.391 . S
C508 C509 1.400 . S
C509 C503 1.491 . S
C509 C508 1.400 . S
C509 C510 1.398 . S
C510 H498 0.950 . S
C510 C509 1.398 . S
C510 C511 1.391 . S
C511 H499 0.950 . S
C511 C507 1.393 . S
C511 C510 1.391 . S
C361 C29 0.857 . S
C367 C233 0.866 . S
C381 C108 0.861 . S
C387 C321 0.849 . S
C401 C49 0.866 . S
C407 C196 0.854 . S
C421 C145 0.858 . S
C427 C284 0.868 . S
C441 C137 1.652 . S
C447 C20 1.653 . S
C461 C117 1.650 . S
C467 C225 1.639 . S
C481 C313 1.639 . S
C487 C205 1.637 . S
C501 C293 1.637 . S
C507 C57 1.645 . S
