# Generated by pormake.
# Topology svx, (7)-cn, num edge types: 1
# Building blocks:
#     Node 0, Type 0, BuildingBlock: NUHQUE_clean_sbu_2, # of connection points: 7
#     Node 1, Type 0, BuildingBlock: NUHQUE_clean_sbu_2, # of connection points: 7
#     Node 2, Type 0, BuildingBlock: NUHQUE_clean_sbu_2, # of connection points: 7
#     Node 3, Type 0, BuildingBlock: NUHQUE_clean_sbu_2, # of connection points: 7
#     Node 4, Type 0, BuildingBlock: NUHQUE_clean_sbu_2, # of connection points: 7
#     Node 5, Type 0, BuildingBlock: NUHQUE_clean_sbu_2, # of connection points: 7
#     Node 6, Type 0, BuildingBlock: NUHQUE_clean_sbu_2, # of connection points: 7
#     Node 7, Type 0, BuildingBlock: NUHQUE_clean_sbu_2, # of connection points: 7
#     Node 8, Type 0, BuildingBlock: NUHQUE_clean_sbu_2, # of connection points: 7
#     Node 9, Type 0, BuildingBlock: NUHQUE_clean_sbu_2, # of connection points: 7
#     Node 10, Type 0, BuildingBlock: NUHQUE_clean_sbu_2, # of connection points: 7
#     Node 11, Type 0, BuildingBlock: NUHQUE_clean_sbu_2, # of connection points: 7
#     Node 12, Type 0, BuildingBlock: NUHQUE_clean_sbu_2, # of connection points: 7
#     Node 13, Type 0, BuildingBlock: NUHQUE_clean_sbu_2, # of connection points: 7
#     Node 14, Type 0, BuildingBlock: NUHQUE_clean_sbu_2, # of connection points: 7
#     Node 15, Type 0, BuildingBlock: NUHQUE_clean_sbu_2, # of connection points: 7
#     Node 16, Type 0, BuildingBlock: NUHQUE_clean_sbu_2, # of connection points: 7
#     Node 17, Type 0, BuildingBlock: NUHQUE_clean_sbu_2, # of connection points: 7
#     Node 18, Type 0, BuildingBlock: NUHQUE_clean_sbu_2, # of connection points: 7
#     Node 19, Type 0, BuildingBlock: NUHQUE_clean_sbu_2, # of connection points: 7
#     Node 20, Type 0, BuildingBlock: NUHQUE_clean_sbu_2, # of connection points: 7
#     Node 21, Type 0, BuildingBlock: NUHQUE_clean_sbu_2, # of connection points: 7
#     Node 22, Type 0, BuildingBlock: NUHQUE_clean_sbu_2, # of connection points: 7
#     Node 23, Type 0, BuildingBlock: NUHQUE_clean_sbu_2, # of connection points: 7
#     Node 24, Type 0, BuildingBlock: NUHQUE_clean_sbu_2, # of connection points: 7
#     Node 25, Type 0, BuildingBlock: NUHQUE_clean_sbu_2, # of connection points: 7
#     Node 26, Type 0, BuildingBlock: NUHQUE_clean_sbu_2, # of connection points: 7
#     Node 27, Type 0, BuildingBlock: NUHQUE_clean_sbu_2, # of connection points: 7
#     Node 28, Type 0, BuildingBlock: NUHQUE_clean_sbu_2, # of connection points: 7
#     Node 29, Type 0, BuildingBlock: NUHQUE_clean_sbu_2, # of connection points: 7
#     Node 30, Type 0, BuildingBlock: NUHQUE_clean_sbu_2, # of connection points: 7
#     Node 31, Type 0, BuildingBlock: NUHQUE_clean_sbu_2, # of connection points: 7
#     Node 32, Type 0, BuildingBlock: NUHQUE_clean_sbu_2, # of connection points: 7
#     Node 33, Type 0, BuildingBlock: NUHQUE_clean_sbu_2, # of connection points: 7
#     Node 34, Type 0, BuildingBlock: NUHQUE_clean_sbu_2, # of connection points: 7
#     Node 35, Type 0, BuildingBlock: NUHQUE_clean_sbu_2, # of connection points: 7
#     Node 36, Type 0, BuildingBlock: NUHQUE_clean_sbu_2, # of connection points: 7
#     Node 37, Type 0, BuildingBlock: NUHQUE_clean_sbu_2, # of connection points: 7
#     Node 38, Type 0, BuildingBlock: NUHQUE_clean_sbu_2, # of connection points: 7
#     Node 39, Type 0, BuildingBlock: NUHQUE_clean_sbu_2, # of connection points: 7
#     Node 40, Type 0, BuildingBlock: NUHQUE_clean_sbu_2, # of connection points: 7
#     Node 41, Type 0, BuildingBlock: NUHQUE_clean_sbu_2, # of connection points: 7
#     Node 42, Type 0, BuildingBlock: NUHQUE_clean_sbu_2, # of connection points: 7
#     Node 43, Type 0, BuildingBlock: NUHQUE_clean_sbu_2, # of connection points: 7
#     Node 44, Type 0, BuildingBlock: NUHQUE_clean_sbu_2, # of connection points: 7
#     Node 45, Type 0, BuildingBlock: NUHQUE_clean_sbu_2, # of connection points: 7
#     Node 46, Type 0, BuildingBlock: NUHQUE_clean_sbu_2, # of connection points: 7
#     Node 47, Type 0, BuildingBlock: NUHQUE_clean_sbu_2, # of connection points: 7
#     Edge 48, Type (0, 0), BuildingBlock: KIFKEQ_clean_linker_1, # of connection points: 2
#     Edge 49, Type (0, 0), BuildingBlock: KIFKEQ_clean_linker_1, # of connection points: 2
#     Edge 50, Type (0, 0), BuildingBlock: KIFKEQ_clean_linker_1, # of connection points: 2
#     Edge 51, Type (0, 0), BuildingBlock: KIFKEQ_clean_linker_1, # of connection points: 2
#     Edge 52, Type (0, 0), BuildingBlock: KIFKEQ_clean_linker_1, # of connection points: 2
#     Edge 53, Type (0, 0), BuildingBlock: KIFKEQ_clean_linker_1, # of connection points: 2
#     Edge 54, Type (0, 0), BuildingBlock: KIFKEQ_clean_linker_1, # of connection points: 2
#     Edge 55, Type (0, 0), BuildingBlock: KIFKEQ_clean_linker_1, # of connection points: 2
#     Edge 56, Type (0, 0), BuildingBlock: KIFKEQ_clean_linker_1, # of connection points: 2
#     Edge 57, Type (0, 0), BuildingBlock: KIFKEQ_clean_linker_1, # of connection points: 2
#     Edge 58, Type (0, 0), BuildingBlock: KIFKEQ_clean_linker_1, # of connection points: 2
#     Edge 59, Type (0, 0), BuildingBlock: KIFKEQ_clean_linker_1, # of connection points: 2
#     Edge 60, Type (0, 0), BuildingBlock: KIFKEQ_clean_linker_1, # of connection points: 2
#     Edge 61, Type (0, 0), BuildingBlock: KIFKEQ_clean_linker_1, # of connection points: 2
#     Edge 62, Type (0, 0), BuildingBlock: KIFKEQ_clean_linker_1, # of connection points: 2
#     Edge 63, Type (0, 0), BuildingBlock: KIFKEQ_clean_linker_1, # of connection points: 2
#     Edge 64, Type (0, 0), BuildingBlock: KIFKEQ_clean_linker_1, # of connection points: 2
#     Edge 65, Type (0, 0), BuildingBlock: KIFKEQ_clean_linker_1, # of connection points: 2
#     Edge 66, Type (0, 0), BuildingBlock: KIFKEQ_clean_linker_1, # of connection points: 2
#     Edge 67, Type (0, 0), BuildingBlock: KIFKEQ_clean_linker_1, # of connection points: 2
#     Edge 68, Type (0, 0), BuildingBlock: KIFKEQ_clean_linker_1, # of connection points: 2
#     Edge 69, Type (0, 0), BuildingBlock: KIFKEQ_clean_linker_1, # of connection points: 2
#     Edge 70, Type (0, 0), BuildingBlock: KIFKEQ_clean_linker_1, # of connection points: 2
#     Edge 71, Type (0, 0), BuildingBlock: KIFKEQ_clean_linker_1, # of connection points: 2
#     Edge 72, Type (0, 0), BuildingBlock: KIFKEQ_clean_linker_1, # of connection points: 2
#     Edge 73, Type (0, 0), BuildingBlock: KIFKEQ_clean_linker_1, # of connection points: 2
#     Edge 74, Type (0, 0), BuildingBlock: KIFKEQ_clean_linker_1, # of connection points: 2
#     Edge 75, Type (0, 0), BuildingBlock: KIFKEQ_clean_linker_1, # of connection points: 2
#     Edge 76, Type (0, 0), BuildingBlock: KIFKEQ_clean_linker_1, # of connection points: 2
#     Edge 77, Type (0, 0), BuildingBlock: KIFKEQ_clean_linker_1, # of connection points: 2
#     Edge 78, Type (0, 0), BuildingBlock: KIFKEQ_clean_linker_1, # of connection points: 2
#     Edge 79, Type (0, 0), BuildingBlock: KIFKEQ_clean_linker_1, # of connection points: 2
#     Edge 80, Type (0, 0), BuildingBlock: KIFKEQ_clean_linker_1, # of connection points: 2
#     Edge 81, Type (0, 0), BuildingBlock: KIFKEQ_clean_linker_1, # of connection points: 2
#     Edge 82, Type (0, 0), BuildingBlock: KIFKEQ_clean_linker_1, # of connection points: 2
#     Edge 83, Type (0, 0), BuildingBlock: KIFKEQ_clean_linker_1, # of connection points: 2
#     Edge 84, Type (0, 0), BuildingBlock: KIFKEQ_clean_linker_1, # of connection points: 2
#     Edge 85, Type (0, 0), BuildingBlock: KIFKEQ_clean_linker_1, # of connection points: 2
#     Edge 86, Type (0, 0), BuildingBlock: KIFKEQ_clean_linker_1, # of connection points: 2
#     Edge 87, Type (0, 0), BuildingBlock: KIFKEQ_clean_linker_1, # of connection points: 2
#     Edge 88, Type (0, 0), BuildingBlock: KIFKEQ_clean_linker_1, # of connection points: 2
#     Edge 89, Type (0, 0), BuildingBlock: KIFKEQ_clean_linker_1, # of connection points: 2
#     Edge 90, Type (0, 0), BuildingBlock: KIFKEQ_clean_linker_1, # of connection points: 2
#     Edge 91, Type (0, 0), BuildingBlock: KIFKEQ_clean_linker_1, # of connection points: 2
#     Edge 92, Type (0, 0), BuildingBlock: KIFKEQ_clean_linker_1, # of connection points: 2
#     Edge 93, Type (0, 0), BuildingBlock: KIFKEQ_clean_linker_1, # of connection points: 2
#     Edge 94, Type (0, 0), BuildingBlock: KIFKEQ_clean_linker_1, # of connection points: 2
#     Edge 95, Type (0, 0), BuildingBlock: KIFKEQ_clean_linker_1, # of connection points: 2
#     Edge 96, Type (0, 0), BuildingBlock: KIFKEQ_clean_linker_1, # of connection points: 2
#     Edge 97, Type (0, 0), BuildingBlock: KIFKEQ_clean_linker_1, # of connection points: 2
#     Edge 98, Type (0, 0), BuildingBlock: KIFKEQ_clean_linker_1, # of connection points: 2
#     Edge 99, Type (0, 0), BuildingBlock: KIFKEQ_clean_linker_1, # of connection points: 2
#     Edge 100, Type (0, 0), BuildingBlock: KIFKEQ_clean_linker_1, # of connection points: 2
#     Edge 101, Type (0, 0), BuildingBlock: KIFKEQ_clean_linker_1, # of connection points: 2
#     Edge 102, Type (0, 0), BuildingBlock: KIFKEQ_clean_linker_1, # of connection points: 2
#     Edge 103, Type (0, 0), BuildingBlock: KIFKEQ_clean_linker_1, # of connection points: 2
#     Edge 104, Type (0, 0), BuildingBlock: KIFKEQ_clean_linker_1, # of connection points: 2
#     Edge 105, Type (0, 0), BuildingBlock: KIFKEQ_clean_linker_1, # of connection points: 2
#     Edge 106, Type (0, 0), BuildingBlock: KIFKEQ_clean_linker_1, # of connection points: 2
#     Edge 107, Type (0, 0), BuildingBlock: KIFKEQ_clean_linker_1, # of connection points: 2
#     Edge 108, Type (0, 0), BuildingBlock: KIFKEQ_clean_linker_1, # of connection points: 2
#     Edge 109, Type (0, 0), BuildingBlock: KIFKEQ_clean_linker_1, # of connection points: 2
#     Edge 110, Type (0, 0), BuildingBlock: KIFKEQ_clean_linker_1, # of connection points: 2
#     Edge 111, Type (0, 0), BuildingBlock: KIFKEQ_clean_linker_1, # of connection points: 2
#     Edge 112, Type (0, 0), BuildingBlock: KIFKEQ_clean_linker_1, # of connection points: 2
#     Edge 113, Type (0, 0), BuildingBlock: KIFKEQ_clean_linker_1, # of connection points: 2
#     Edge 114, Type (0, 0), BuildingBlock: KIFKEQ_clean_linker_1, # of connection points: 2
#     Edge 115, Type (0, 0), BuildingBlock: KIFKEQ_clean_linker_1, # of connection points: 2
#     Edge 116, Type (0, 0), BuildingBlock: KIFKEQ_clean_linker_1, # of connection points: 2
#     Edge 117, Type (0, 0), BuildingBlock: KIFKEQ_clean_linker_1, # of connection points: 2
#     Edge 118, Type (0, 0), BuildingBlock: KIFKEQ_clean_linker_1, # of connection points: 2
#     Edge 119, Type (0, 0), BuildingBlock: KIFKEQ_clean_linker_1, # of connection points: 2
#     Edge 120, Type (0, 0), BuildingBlock: KIFKEQ_clean_linker_1, # of connection points: 2
#     Edge 121, Type (0, 0), BuildingBlock: KIFKEQ_clean_linker_1, # of connection points: 2
#     Edge 122, Type (0, 0), BuildingBlock: KIFKEQ_clean_linker_1, # of connection points: 2
#     Edge 123, Type (0, 0), BuildingBlock: KIFKEQ_clean_linker_1, # of connection points: 2
#     Edge 124, Type (0, 0), BuildingBlock: KIFKEQ_clean_linker_1, # of connection points: 2
#     Edge 125, Type (0, 0), BuildingBlock: KIFKEQ_clean_linker_1, # of connection points: 2
#     Edge 126, Type (0, 0), BuildingBlock: KIFKEQ_clean_linker_1, # of connection points: 2
#     Edge 127, Type (0, 0), BuildingBlock: KIFKEQ_clean_linker_1, # of connection points: 2
#     Edge 128, Type (0, 0), BuildingBlock: KIFKEQ_clean_linker_1, # of connection points: 2
#     Edge 129, Type (0, 0), BuildingBlock: KIFKEQ_clean_linker_1, # of connection points: 2
#     Edge 130, Type (0, 0), BuildingBlock: KIFKEQ_clean_linker_1, # of connection points: 2
#     Edge 131, Type (0, 0), BuildingBlock: KIFKEQ_clean_linker_1, # of connection points: 2
#     Edge 132, Type (0, 0), BuildingBlock: KIFKEQ_clean_linker_1, # of connection points: 2
#     Edge 133, Type (0, 0), BuildingBlock: KIFKEQ_clean_linker_1, # of connection points: 2
#     Edge 134, Type (0, 0), BuildingBlock: KIFKEQ_clean_linker_1, # of connection points: 2
#     Edge 135, Type (0, 0), BuildingBlock: KIFKEQ_clean_linker_1, # of connection points: 2
#     Edge 136, Type (0, 0), BuildingBlock: KIFKEQ_clean_linker_1, # of connection points: 2
#     Edge 137, Type (0, 0), BuildingBlock: KIFKEQ_clean_linker_1, # of connection points: 2
#     Edge 138, Type (0, 0), BuildingBlock: KIFKEQ_clean_linker_1, # of connection points: 2
#     Edge 139, Type (0, 0), BuildingBlock: KIFKEQ_clean_linker_1, # of connection points: 2
#     Edge 140, Type (0, 0), BuildingBlock: KIFKEQ_clean_linker_1, # of connection points: 2
#     Edge 141, Type (0, 0), BuildingBlock: KIFKEQ_clean_linker_1, # of connection points: 2
#     Edge 142, Type (0, 0), BuildingBlock: KIFKEQ_clean_linker_1, # of connection points: 2
#     Edge 143, Type (0, 0), BuildingBlock: KIFKEQ_clean_linker_1, # of connection points: 2
#     Edge 144, Type (0, 0), BuildingBlock: KIFKEQ_clean_linker_1, # of connection points: 2
#     Edge 145, Type (0, 0), BuildingBlock: KIFKEQ_clean_linker_1, # of connection points: 2
#     Edge 146, Type (0, 0), BuildingBlock: KIFKEQ_clean_linker_1, # of connection points: 2
#     Edge 147, Type (0, 0), BuildingBlock: KIFKEQ_clean_linker_1, # of connection points: 2
#     Edge 148, Type (0, 0), BuildingBlock: KIFKEQ_clean_linker_1, # of connection points: 2
#     Edge 149, Type (0, 0), BuildingBlock: KIFKEQ_clean_linker_1, # of connection points: 2
#     Edge 150, Type (0, 0), BuildingBlock: KIFKEQ_clean_linker_1, # of connection points: 2
#     Edge 151, Type (0, 0), BuildingBlock: KIFKEQ_clean_linker_1, # of connection points: 2
#     Edge 152, Type (0, 0), BuildingBlock: KIFKEQ_clean_linker_1, # of connection points: 2
#     Edge 153, Type (0, 0), BuildingBlock: KIFKEQ_clean_linker_1, # of connection points: 2
#     Edge 154, Type (0, 0), BuildingBlock: KIFKEQ_clean_linker_1, # of connection points: 2
#     Edge 155, Type (0, 0), BuildingBlock: KIFKEQ_clean_linker_1, # of connection points: 2
#     Edge 156, Type (0, 0), BuildingBlock: KIFKEQ_clean_linker_1, # of connection points: 2
#     Edge 157, Type (0, 0), BuildingBlock: KIFKEQ_clean_linker_1, # of connection points: 2
#     Edge 158, Type (0, 0), BuildingBlock: KIFKEQ_clean_linker_1, # of connection points: 2
#     Edge 159, Type (0, 0), BuildingBlock: KIFKEQ_clean_linker_1, # of connection points: 2
#     Edge 160, Type (0, 0), BuildingBlock: KIFKEQ_clean_linker_1, # of connection points: 2
#     Edge 161, Type (0, 0), BuildingBlock: KIFKEQ_clean_linker_1, # of connection points: 2
#     Edge 162, Type (0, 0), BuildingBlock: KIFKEQ_clean_linker_1, # of connection points: 2
#     Edge 163, Type (0, 0), BuildingBlock: KIFKEQ_clean_linker_1, # of connection points: 2
#     Edge 164, Type (0, 0), BuildingBlock: KIFKEQ_clean_linker_1, # of connection points: 2
#     Edge 165, Type (0, 0), BuildingBlock: KIFKEQ_clean_linker_1, # of connection points: 2
#     Edge 166, Type (0, 0), BuildingBlock: KIFKEQ_clean_linker_1, # of connection points: 2
#     Edge 167, Type (0, 0), BuildingBlock: KIFKEQ_clean_linker_1, # of connection points: 2
#     Edge 168, Type (0, 0), BuildingBlock: KIFKEQ_clean_linker_1, # of connection points: 2
#     Edge 169, Type (0, 0), BuildingBlock: KIFKEQ_clean_linker_1, # of connection points: 2
#     Edge 170, Type (0, 0), BuildingBlock: KIFKEQ_clean_linker_1, # of connection points: 2
#     Edge 171, Type (0, 0), BuildingBlock: KIFKEQ_clean_linker_1, # of connection points: 2
#     Edge 172, Type (0, 0), BuildingBlock: KIFKEQ_clean_linker_1, # of connection points: 2
#     Edge 173, Type (0, 0), BuildingBlock: KIFKEQ_clean_linker_1, # of connection points: 2
#     Edge 174, Type (0, 0), BuildingBlock: KIFKEQ_clean_linker_1, # of connection points: 2
#     Edge 175, Type (0, 0), BuildingBlock: KIFKEQ_clean_linker_1, # of connection points: 2
#     Edge 176, Type (0, 0), BuildingBlock: KIFKEQ_clean_linker_1, # of connection points: 2
#     Edge 177, Type (0, 0), BuildingBlock: KIFKEQ_clean_linker_1, # of connection points: 2
#     Edge 178, Type (0, 0), BuildingBlock: KIFKEQ_clean_linker_1, # of connection points: 2
#     Edge 179, Type (0, 0), BuildingBlock: KIFKEQ_clean_linker_1, # of connection points: 2
#     Edge 180, Type (0, 0), BuildingBlock: KIFKEQ_clean_linker_1, # of connection points: 2
#     Edge 181, Type (0, 0), BuildingBlock: KIFKEQ_clean_linker_1, # of connection points: 2
#     Edge 182, Type (0, 0), BuildingBlock: KIFKEQ_clean_linker_1, # of connection points: 2
#     Edge 183, Type (0, 0), BuildingBlock: KIFKEQ_clean_linker_1, # of connection points: 2
#     Edge 184, Type (0, 0), BuildingBlock: KIFKEQ_clean_linker_1, # of connection points: 2
#     Edge 185, Type (0, 0), BuildingBlock: KIFKEQ_clean_linker_1, # of connection points: 2
#     Edge 186, Type (0, 0), BuildingBlock: KIFKEQ_clean_linker_1, # of connection points: 2
#     Edge 187, Type (0, 0), BuildingBlock: KIFKEQ_clean_linker_1, # of connection points: 2
#     Edge 188, Type (0, 0), BuildingBlock: KIFKEQ_clean_linker_1, # of connection points: 2
#     Edge 189, Type (0, 0), BuildingBlock: KIFKEQ_clean_linker_1, # of connection points: 2
#     Edge 190, Type (0, 0), BuildingBlock: KIFKEQ_clean_linker_1, # of connection points: 2
#     Edge 191, Type (0, 0), BuildingBlock: KIFKEQ_clean_linker_1, # of connection points: 2
#     Edge 192, Type (0, 0), BuildingBlock: KIFKEQ_clean_linker_1, # of connection points: 2
#     Edge 193, Type (0, 0), BuildingBlock: KIFKEQ_clean_linker_1, # of connection points: 2
#     Edge 194, Type (0, 0), BuildingBlock: KIFKEQ_clean_linker_1, # of connection points: 2
#     Edge 195, Type (0, 0), BuildingBlock: KIFKEQ_clean_linker_1, # of connection points: 2
#     Edge 196, Type (0, 0), BuildingBlock: KIFKEQ_clean_linker_1, # of connection points: 2
#     Edge 197, Type (0, 0), BuildingBlock: KIFKEQ_clean_linker_1, # of connection points: 2
#     Edge 198, Type (0, 0), BuildingBlock: KIFKEQ_clean_linker_1, # of connection points: 2
#     Edge 199, Type (0, 0), BuildingBlock: KIFKEQ_clean_linker_1, # of connection points: 2
#     Edge 200, Type (0, 0), BuildingBlock: KIFKEQ_clean_linker_1, # of connection points: 2
#     Edge 201, Type (0, 0), BuildingBlock: KIFKEQ_clean_linker_1, # of connection points: 2
#     Edge 202, Type (0, 0), BuildingBlock: KIFKEQ_clean_linker_1, # of connection points: 2
#     Edge 203, Type (0, 0), BuildingBlock: KIFKEQ_clean_linker_1, # of connection points: 2
#     Edge 204, Type (0, 0), BuildingBlock: KIFKEQ_clean_linker_1, # of connection points: 2
#     Edge 205, Type (0, 0), BuildingBlock: KIFKEQ_clean_linker_1, # of connection points: 2
#     Edge 206, Type (0, 0), BuildingBlock: KIFKEQ_clean_linker_1, # of connection points: 2
#     Edge 207, Type (0, 0), BuildingBlock: KIFKEQ_clean_linker_1, # of connection points: 2
#     Edge 208, Type (0, 0), BuildingBlock: KIFKEQ_clean_linker_1, # of connection points: 2
#     Edge 209, Type (0, 0), BuildingBlock: KIFKEQ_clean_linker_1, # of connection points: 2
#     Edge 210, Type (0, 0), BuildingBlock: KIFKEQ_clean_linker_1, # of connection points: 2
#     Edge 211, Type (0, 0), BuildingBlock: KIFKEQ_clean_linker_1, # of connection points: 2
#     Edge 212, Type (0, 0), BuildingBlock: KIFKEQ_clean_linker_1, # of connection points: 2
#     Edge 213, Type (0, 0), BuildingBlock: KIFKEQ_clean_linker_1, # of connection points: 2
#     Edge 214, Type (0, 0), BuildingBlock: KIFKEQ_clean_linker_1, # of connection points: 2
#     Edge 215, Type (0, 0), BuildingBlock: KIFKEQ_clean_linker_1, # of connection points: 2
# Relax obj value: 0.281
# Max RMSD: 0.249
# Mean RMSD: 0.249
data_MOF--net-svx--node1-NUHQUE_clean_sbu_2--edge1-KIFKEQ_clean_linker_1
_symmetry_space_group_name_H-M    P1
_symmetry_Int_Tables_number       1
_symmetry_cell_setting            triclinic
loop_
_symmetry_equiv_pos_as_xyz
'x, y, z'
_cell_length_a     67.186645
_cell_length_b     67.143315
_cell_length_c     67.087771
_cell_angle_alpha  90.033176
_cell_angle_beta   89.957557
_cell_angle_gamma 90.038694
loop_
_atom_site_label
_atom_site_type_symbol
_atom_site_fract_x
_atom_site_fract_y
_atom_site_fract_z
_atom_type_partial_charge
O0 O 0.12272 0.32911 0.34572 0.0
Tb1 Tb 0.10734 0.34738 0.32424 0.0
Eu2 Eu 0.11021 0.36143 0.27844 0.0
C3 C 0.12679 0.31015 0.34339 0.0
O4 O 0.12233 0.30119 0.32657 0.0
C5 C 0.08014 0.32752 0.29171 0.0
O6 O 0.11422 0.38258 0.25211 0.0
C7 C 0.13803 0.33453 0.27725 0.0
C8 C 0.13136 0.39223 0.25081 0.0
O9 O 0.14484 0.38879 0.26456 0.0
C10 C 0.12897 0.38564 0.31443 0.0
C11 C 0.15908 0.32836 0.278 0.0
C12 C 0.16441 0.3139 0.2922 0.0
C13 C 0.18348 0.30565 0.29221 0.0
C14 C 0.19748 0.31215 0.27826 0.0
C15 C 0.19247 0.32638 0.26378 0.0
C16 C 0.17313 0.33445 0.26361 0.0
O17 O 0.09391 0.32437 0.3054 0.0
O18 O 0.08088 0.34395 0.28064 0.0
O19 O 0.0923 0.35329 0.35216 0.0
O20 O 0.082 0.36803 0.32595 0.0
C21 C 0.07952 0.36591 0.34512 0.0
O22 O 0.11649 0.38761 0.29944 0.0
O23 O 0.13228 0.36776 0.3213 0.0
O24 O 0.13096 0.34323 0.2612 0.0
O25 O 0.12981 0.34073 0.29382 0.0
H26 H 0.15342 0.30833 0.30263 0.0
H27 H 0.21201 0.3051 0.2779 0.0
H28 H 0.16896 0.34496 0.2521 0.0
O29 O 0.57401 0.67586 0.96069 0.0
Tb30 Tb 0.59519 0.69264 0.97835 0.0
Eu31 Eu 0.61259 0.69065 1.02403 0.0
C32 C 0.55489 0.67517 0.96465 0.0
O33 O 0.54811 0.68332 0.98109 0.0
C34 C 0.57888 0.72136 1.01207 0.0
O35 O 0.63404 0.68677 0.05025 0.0
C36 C 0.58499 0.66348 0.02593 0.0
C37 C 0.6442 0.66992 0.05149 0.0
O38 O 0.64135 0.65646 0.03755 0.0
C39 C 0.63499 0.67215 0.98653 0.0
C40 C 0.57833 0.64255 1.02518 0.0
C41 C 0.56343 0.63756 1.01129 0.0
C42 C 0.55512 0.61848 1.01107 0.0
C43 C 0.56189 0.60421 1.02459 0.0
C44 C 0.57651 0.6089 0.03879 0.0
C45 C 0.5847 0.62821 0.03912 0.0
O46 O 0.57441 0.70751 0.99881 0.0
O47 O 0.59607 0.72051 1.02186 0.0
O48 O 0.59803 0.70524 0.9488 0.0
O49 O 0.6151 0.71793 0.97246 0.0
C50 C 0.61109 0.71868 0.95346 0.0
O51 O 0.63766 0.68401 1.00196 0.0
O52 O 0.61681 0.66858 0.98048 0.0
O53 O 0.59436 0.67025 0.04173 0.0
O54 O 0.59096 0.6716 1.00925 0.0
H55 H 0.55774 0.64874 1.00115 0.0
H56 H 0.55485 0.58966 1.02477 0.0
H57 H 0.59564 0.63208 0.05034 0.0
O58 O 0.93783 0.22132 0.34805 0.0
Tb59 Tb 0.94526 0.19981 0.32537 0.0
Eu60 Eu 0.94012 0.18674 0.27781 0.0
C61 C 0.92042 0.23003 0.34937 0.0
O62 O 0.90681 0.22691 0.33568 0.0
C63 C 0.97136 0.21974 0.29193 0.0
O64 O 0.93703 0.16578 0.25107 0.0
C65 C 0.91259 0.21382 0.27517 0.0
C66 C 0.92241 0.15252 0.25106 0.0
O67 O 0.91049 0.15179 0.26656 0.0
C68 C 0.92049 0.16431 0.31466 0.0
C69 C 0.89136 0.2195 0.27548 0.0
C70 C 0.8854 0.23401 0.28938 0.0
C71 C 0.86602 0.24168 0.28923 0.0
C72 C 0.85244 0.23449 0.27512 0.0
C73 C 0.85822 0.22051 0.26073 0.0
C74 C 0.87773 0.21296 0.26087 0.0
O75 O 0.95824 0.22278 0.3063 0.0
O76 O 0.96978 0.20378 0.28023 0.0
O77 O 0.95649 0.18576 0.35207 0.0
O78 O 0.97214 0.18107 0.32484 0.0
C79 C 0.97146 0.17686 0.34381 0.0
O80 O 0.93258 0.16144 0.29946 0.0
O81 O 0.91837 0.18249 0.32131 0.0
O82 O 0.91979 0.20434 0.25963 0.0
O83 O 0.92081 0.20856 0.29209 0.0
H84 H 0.89615 0.23997 0.29985 0.0
H85 H 0.83765 0.24093 0.27428 0.0
H86 H 0.88236 0.20261 0.24937 0.0
O87 O 0.47667 0.87625 0.96061 0.0
Tb88 Tb 0.45566 0.85919 0.9782 0.0
Eu89 Eu 0.43838 0.8609 1.02378 0.0
C90 C 0.49575 0.87724 0.96464 0.0
O91 O 0.50259 0.86919 0.98109 0.0
C92 C 0.47214 0.83038 1.01165 0.0
O93 O 0.41699 0.86451 0.05009 0.0
C94 C 0.4659 0.88814 1.02587 0.0
C95 C 0.40672 0.88128 0.05148 0.0
O96 O 0.40946 0.89483 0.03762 0.0
C97 C 0.41574 0.87952 0.98653 0.0
C98 C 0.4726 0.90907 1.0258 0.0
C99 C 0.4873 0.9146 1.01189 0.0
C100 C 0.49623 0.93339 1.01282 0.0
C101 C 0.49005 0.94696 0.02737 0.0
C102 C 0.47542 0.94181 0.04141 0.0
C103 C 0.46676 0.92273 0.04066 0.0
O104 O 0.47657 0.84435 0.99852 0.0
O105 O 0.4549 0.83109 1.02137 0.0
O106 O 0.45299 0.84659 0.94862 0.0
O107 O 0.4358 0.83389 0.97219 0.0
C108 C 0.43991 0.83315 0.95321 0.0
O109 O 0.41317 0.86762 1.00193 0.0
O110 O 0.43388 0.88312 0.98035 0.0
O111 O 0.45689 0.88082 0.04165 0.0
O112 O 0.45963 0.88052 1.00906 0.0
H113 H 0.49258 0.9039 1.001 0.0
H114 H 0.49753 0.96125 0.02841 0.0
H115 H 0.45595 0.91841 0.05186 0.0
O116 O 0.12387 0.72467 0.20835 0.0
Tb117 Tb 0.10831 0.70302 0.22652 0.0
Eu118 Eu 0.11041 0.68807 0.27367 0.0
C119 C 0.1258 0.74349 0.21329 0.0
O120 O 0.11942 0.7497 0.23071 0.0
C121 C 0.07911 0.72086 0.25948 0.0
O122 O 0.11408 0.66722 0.30049 0.0
C123 C 0.13761 0.71561 0.27547 0.0
C124 C 0.12848 0.65374 0.30026 0.0
O125 O 0.14007 0.65277 0.28452 0.0
C126 C 0.12948 0.66467 0.23711 0.0
C127 C 0.15846 0.72255 0.27556 0.0
C128 C 0.16387 0.73754 0.26189 0.0
C129 C 0.18239 0.74697 0.26328 0.0
C130 C 0.19581 0.74103 0.27803 0.0
C131 C 0.19078 0.72608 0.29167 0.0
C132 C 0.17204 0.71683 0.29053 0.0
O133 O 0.0925 0.72441 0.24548 0.0
O134 O 0.08067 0.70482 0.27105 0.0
O135 O 0.09756 0.69701 0.19669 0.0
O136 O 0.08292 0.68302 0.22117 0.0
C137 C 0.08351 0.68482 0.20183 0.0
O138 O 0.11706 0.66242 0.25214 0.0
O139 O 0.13305 0.6827 0.23071 0.0
O140 O 0.13031 0.70669 0.29131 0.0
O141 O 0.12997 0.70929 0.25866 0.0
H142 H 0.15327 0.74266 0.25087 0.0
H143 H 0.21 0.74865 0.27938 0.0
H144 H 0.16789 0.70582 0.30159 0.0
O145 O 0.97682 0.67277 0.08997 0.0
Tb146 Tb 0.95635 0.69196 0.07406 0.0
Eu147 Eu 0.93752 0.69098 0.02829 0.0
C148 C 0.99609 0.67344 0.08679 0.0
O149 O 1.00294 0.68383 0.0717 0.0
C150 C 0.97157 0.72136 0.04044 0.0
O151 O 0.91616 0.68759 1.00189 0.0
C152 C 0.96437 0.66313 0.02614 0.0
C153 C 0.90199 0.67387 1.00263 0.0
O154 O 0.90036 0.663 1.01881 0.0
C155 C 0.91544 0.67307 0.06654 0.0
C156 C 0.97033 0.64204 0.02727 0.0
C157 C 0.98474 0.63688 0.04156 0.0
C158 C 0.99223 0.61753 0.0425 0.0
C159 C 0.98526 0.60317 0.02914 0.0
C160 C 0.97144 0.60811 1.01425 0.0
C161 C 0.96393 0.62767 1.01335 0.0
O162 O 0.97619 0.70675 0.05274 0.0
O163 O 0.95467 0.72057 0.03016 0.0
O164 O 0.95914 0.70591 0.10299 0.0
O165 O 0.93588 0.71554 0.08367 0.0
C166 C 0.944 0.71776 0.10119 0.0
O167 O 0.91294 0.6851 0.0512 0.0
O168 O 0.93355 0.66894 0.0725 0.0
O169 O 0.95478 0.66982 1.01045 0.0
O170 O 0.95902 0.67173 0.04279 0.0
H171 H 0.99065 0.6481 0.05155 0.0
H172 H 0.99184 0.58841 0.02939 0.0
H173 H 0.95358 0.63172 1.00165 0.0
O174 O 0.92602 0.82699 0.20915 0.0
Tb175 Tb 0.94177 0.84814 0.22766 0.0
Eu176 Eu 0.94063 0.86293 0.27429 0.0
C177 C 0.92307 0.80831 0.21405 0.0
O178 O 0.92859 0.80193 0.23169 0.0
C179 C 0.97109 0.8296 0.25993 0.0
O180 O 0.93715 0.88408 0.30082 0.0
C181 C 0.91313 0.83575 0.27653 0.0
C182 C 0.92018 0.89396 0.30244 0.0
O183 O 0.90654 0.89093 0.28872 0.0
C184 C 0.92112 0.8867 0.23835 0.0
C185 C 0.89225 0.82889 0.27694 0.0
C186 C 0.8867 0.81381 0.26344 0.0
C187 C 0.86825 0.80433 0.26513 0.0
C188 C 0.85497 0.8104 0.27996 0.0
C189 C 0.86007 0.82554 0.29338 0.0
C190 C 0.8788 0.83479 0.29198 0.0
O191 O 0.95735 0.82625 0.24623 0.0
O192 O 0.97009 0.8458 0.27134 0.0
O193 O 0.95248 0.85416 0.19782 0.0
O194 O 0.9675 0.86771 0.22232 0.0
C195 C 0.96679 0.86604 0.20297 0.0
O196 O 0.93397 0.88879 0.25302 0.0
O197 O 0.9172 0.86871 0.23204 0.0
O198 O 0.92078 0.84453 0.29227 0.0
O199 O 0.92054 0.84202 0.25961 0.0
H200 H 0.89717 0.80861 0.25235 0.0
H201 H 0.84079 0.80279 0.28151 0.0
H202 H 0.88304 0.84594 0.30287 0.0
O203 O 0.07548 0.8762 0.09273 0.0
Tb204 Tb 0.09685 0.85982 0.0749 0.0
Eu205 Eu 0.11302 0.86063 0.02832 0.0
C206 C 0.05641 0.87712 0.08857 0.0
O207 O 0.04975 0.86947 0.07185 0.0
C208 C 0.07941 0.83019 0.04206 0.0
O209 O 0.134 0.86419 1.00156 0.0
C210 C 0.08581 0.88806 0.02624 0.0
C211 C 0.14784 0.87827 1.00199 0.0
O212 O 0.14928 0.88943 1.018 0.0
C213 C 0.13621 0.87952 0.06502 0.0
C214 C 0.0788 0.90886 0.02619 0.0
C215 C 0.06376 0.91409 0.03984 0.0
C216 C 0.05422 0.93254 0.03849 0.0
C217 C 0.06014 0.94608 1.02382 0.0
C218 C 0.07518 0.94122 1.01022 0.0
C219 C 0.08452 0.92254 1.0113 0.0
O220 O 0.07567 0.844 0.05562 0.0
O221 O 0.09579 0.83122 0.03092 0.0
O222 O 0.10173 0.84893 0.10487 0.0
O223 O 0.11618 0.83409 0.08076 0.0
C224 C 0.1138 0.83467 0.10003 0.0
O225 O 0.13832 0.86658 0.05041 0.0
O226 O 0.11819 0.88387 0.07098 0.0
O227 O 0.09489 0.8808 1.01048 0.0
O228 O 0.09189 0.88038 0.04308 0.0
H229 H 0.05865 0.90339 0.0508 0.0
H230 H 0.05244 0.96023 1.0225 0.0
H231 H 0.0956 0.9185 1.00027 0.0
O232 O 0.34256 0.12531 0.32678 0.0
Tb233 Tb 0.32414 0.10953 0.34804 0.0
Eu234 Eu 0.27766 0.11128 0.3632 0.0
C235 C 0.33799 0.12736 0.30788 0.0
O236 O 0.32078 0.12088 0.30127 0.0
C237 C 0.29147 0.08029 0.33001 0.0
O238 O 0.25101 0.11478 0.38415 0.0
C239 C 0.27616 0.13898 0.33609 0.0
C240 C 0.24963 0.1315 0.39456 0.0
O241 O 0.26365 0.14494 0.39213 0.0
C242 C 0.31392 0.13049 0.38667 0.0
C243 C 0.27731 0.16026 0.33068 0.0
C244 C 0.29175 0.16606 0.3166 0.0
C245 C 0.29229 0.18556 0.30918 0.0
C246 C 0.27838 0.19939 0.3163 0.0
C247 C 0.26366 0.19391 0.33012 0.0
C248 C 0.26313 0.17424 0.33728 0.0
O249 O 0.30527 0.09387 0.32645 0.0
O250 O 0.28007 0.08164 0.3462 0.0
O251 O 0.35375 0.09832 0.35399 0.0
O252 O 0.32903 0.08401 0.36793 0.0
C253 C 0.34835 0.08431 0.36612 0.0
O254 O 0.29894 0.11804 0.389 0.0
O255 O 0.32005 0.1342 0.36856 0.0
O256 O 0.26029 0.13217 0.34532 0.0
O257 O 0.29266 0.13025 0.3416 0.0
H258 H 0.3022 0.15518 0.31091 0.0
H259 H 0.27804 0.21422 0.3099 0.0
H260 H 0.25147 0.16978 0.34753 0.0
O261 O 0.37459 0.45932 0.9765 0.0
Tb262 Tb 0.35873 0.47688 0.95458 0.0
Eu263 Eu 0.36032 0.52347 0.93911 0.0
C264 C 0.37584 0.4642 0.9954 0.0
O265 O 0.36864 0.48131 1.00155 0.0
C266 C 0.32899 0.50965 0.97195 0.0
O267 O 0.36396 0.54976 0.91776 0.0
C268 C 0.38766 0.5254 0.96651 0.0
C269 C 0.3809 0.55119 0.90777 0.0
O270 O 0.39452 0.5375 0.91091 0.0
C271 C 0.37968 0.48709 0.91587 0.0
C272 C 0.40869 0.5245 0.97281 0.0
C273 C 0.41384 0.51041 0.98746 0.0
C274 C 0.43297 0.51008 0.99556 0.0
C275 C 0.44718 0.5237 0.98884 0.0
C276 C 0.44236 0.53815 0.97451 0.0
C277 C 0.42298 0.53857 0.96651 0.0
O278 O 0.34248 0.49583 0.97569 0.0
O279 O 0.33055 0.52107 0.9558 0.0
O280 O 0.34826 0.44685 0.94907 0.0
O281 O 0.33334 0.47097 0.9348 0.0
C282 C 0.3341 0.45168 0.93689 0.0
O283 O 0.36723 0.50204 0.91348 0.0
O284 O 0.38336 0.48101 0.934 0.0
O285 O 0.38098 0.54116 0.95702 0.0
O286 O 0.37919 0.50875 0.96092 0.0
H287 H 0.40273 0.5002 0.99317 0.0
H288 H 0.46177 0.5238 0.99578 0.0
H289 H 0.419 0.54999 0.95583 0.0
O290 O 0.71051 0.42292 0.32652 0.0
Tb291 Tb 0.7271 0.44222 0.34637 0.0
Eu292 Eu 0.77263 0.44105 0.36494 0.0
C293 C 0.71395 0.42232 0.30727 0.0
O294 O 0.72978 0.43125 0.30008 0.0
C295 C 0.76095 0.47049 0.32966 0.0
O296 O 0.79822 0.43868 0.38729 0.0
C297 C 0.77581 0.41089 0.34119 0.0
C298 C 0.79948 0.42205 0.39784 0.0
O299 O 0.78564 0.40848 0.39515 0.0
C300 C 0.73478 0.42351 0.38742 0.0
C301 C 0.77781 0.39362 0.32777 0.0
C302 C 0.76431 0.39074 0.31196 0.0
C303 C 0.76715 0.37508 0.2984 0.0
C304 C 0.78314 0.362 0.30109 0.0
C305 C 0.7962 0.36424 0.31718 0.0
C306 C 0.79357 0.38009 0.33049 0.0
O307 O 0.7481 0.45619 0.32563 0.0
O308 O 0.77138 0.46985 0.34646 0.0
O309 O 0.69825 0.45624 0.34361 0.0
O310 O 0.71769 0.46619 0.36662 0.0
C311 C 0.70013 0.46832 0.3586 0.0
O312 O 0.75004 0.43564 0.38983 0.0
O313 O 0.72862 0.4194 0.36934 0.0
O314 O 0.79125 0.41897 0.35007 0.0
O315 O 0.75866 0.41941 0.34488 0.0
H316 H 0.75201 0.4009 0.30987 0.0
H317 H 0.78516 0.34965 0.29085 0.0
H318 H 0.80381 0.38192 0.34284 0.0
O319 O 0.68823 0.0983 0.97217 0.0
Tb320 Tb 0.69566 0.07596 0.95025 0.0
Eu321 Eu 0.69027 0.028 0.93751 0.0
C322 C 0.67078 0.09971 0.98081 0.0
O323 O 0.657 0.08625 0.97748 0.0
C324 C 0.72194 0.04226 0.97013 0.0
O325 O 0.68681 1.00173 0.91607 0.0
C326 C 0.66282 0.02561 0.96474 0.0
C327 C 0.66972 1.00009 0.90636 0.0
O328 O 0.65598 1.01358 0.9098 0.0
C329 C 0.67055 0.06468 0.9151 0.0
C330 C 0.64156 0.02637 0.9703 0.0
C331 C 0.63587 0.04036 0.98482 0.0
C332 C 0.61643 0.04072 0.99231 0.0
C333 C 0.6025 0.02706 0.98493 0.0
C334 C 0.60796 1.01249 0.97094 0.0
C335 C 0.6276 1.01216 0.96359 0.0
O336 O 0.7093 0.05707 0.97302 0.0
O337 O 0.72002 0.03033 0.95437 0.0
O338 O 0.70544 0.1033 0.93637 0.0
O339 O 0.72225 0.07694 0.93101 0.0
C340 C 0.72062 0.09592 0.92707 0.0
O341 O 0.6824 0.04935 0.91212 0.0
O342 O 0.66861 0.07134 0.93332 0.0
O343 O 0.66975 1.00999 0.95517 0.0
O344 O 0.67139 0.04239 0.95957 0.0
H345 H 0.64687 0.05047 0.99095 0.0
H346 H 0.58773 0.02661 0.99145 0.0
H347 H 0.63205 1.00062 0.95322 0.0
O348 O 0.34744 0.93656 0.22419 0.0
Tb349 Tb 0.32574 0.94505 0.20212 0.0
Eu350 Eu 0.27817 0.93999 0.18917 0.0
C351 C 0.34944 0.91836 0.23098 0.0
O352 O 0.33695 0.90433 0.2256 0.0
C353 C 0.29224 0.97148 0.22196 0.0
O354 O 0.25123 0.93653 0.16847 0.0
C355 C 0.27655 0.91251 0.21649 0.0
C356 C 0.25131 0.92214 0.15494 0.0
O357 O 0.26695 0.91047 0.15385 0.0
C358 C 0.31488 0.92088 0.16614 0.0
C359 C 0.27738 0.89122 0.22202 0.0
C360 C 0.29181 0.88523 0.23599 0.0
C361 C 0.29229 0.86562 0.24317 0.0
C362 C 0.27806 0.85201 0.23623 0.0
C363 C 0.26314 0.85778 0.2228 0.0
C364 C 0.26285 0.87747 0.21564 0.0
O365 O 0.30675 0.95853 0.22492 0.0
O366 O 0.28044 0.96974 0.2061 0.0
O367 O 0.3534 0.95557 0.18946 0.0
O368 O 0.32689 0.97182 0.18319 0.0
C369 C 0.34602 0.97066 0.18001 0.0
O370 O 0.29962 0.93291 0.16354 0.0
O371 O 0.32157 0.91848 0.18427 0.0
O372 O 0.26074 0.91939 0.20726 0.0
O373 O 0.29316 0.92107 0.21086 0.0
H374 H 0.30231 0.89604 0.24176 0.0
H375 H 0.27764 0.83713 0.24251 0.0
H376 H 0.25109 0.88211 0.20563 0.0
O377 O 0.17396 0.45908 0.07602 0.0
Tb378 Tb 0.19091 0.47597 0.09775 0.0
Eu379 Eu 0.19005 0.5221 0.11469 0.0
C380 C 0.17346 0.4635 0.05696 0.0
O381 O 0.18188 0.47996 0.0506 0.0
C382 C 0.21993 0.50937 0.07973 0.0
O383 O 0.18781 0.548 0.13675 0.0
C384 C 0.15941 0.52438 0.09148 0.0
C385 C 0.17144 0.54898 0.14773 0.0
O386 O 0.15812 0.53482 0.14547 0.0
C387 C 0.17222 0.48525 0.1378 0.0
C388 C 0.14189 0.52578 0.07833 0.0
C389 C 0.13944 0.51233 0.06238 0.0
C390 C 0.12251 0.5134 0.05026 0.0
C391 C 0.10776 0.52745 0.05451 0.0
C392 C 0.10971 0.54061 0.07061 0.0
C393 C 0.12704 0.54004 0.08225 0.0
O394 O 0.20678 0.49509 0.07649 0.0
O395 O 0.21855 0.52095 0.09577 0.0
O396 O 0.20108 0.4457 0.10218 0.0
O397 O 0.21678 0.46926 0.1166 0.0
C398 C 0.21563 0.45004 0.1141 0.0
O399 O 0.18513 0.49985 0.14 0.0
O400 O 0.16745 0.47983 0.1197 0.0
O401 O 0.16652 0.5399 0.10103 0.0
O402 O 0.16936 0.5078 0.09391 0.0
H403 H 0.15069 0.50125 0.05926 0.0
H404 H 0.0946 0.52811 0.04516 0.0
H405 H 0.12858 0.55015 0.09476 0.0
O406 O 0.71021 0.6281 0.22671 0.0
Tb407 Tb 0.72715 0.60913 0.20691 0.0
Eu408 Eu 0.77297 0.61148 0.18933 0.0
C409 C 0.71412 0.62962 0.24581 0.0
O410 O 0.73057 0.6218 0.25286 0.0
C411 C 0.76088 0.5806 0.22298 0.0
O412 O 0.79921 0.61552 0.16792 0.0
C413 C 0.77425 0.63931 0.21637 0.0
C414 C 0.80051 0.63242 0.15782 0.0
O415 O 0.78658 0.64586 0.16068 0.0
C416 C 0.73512 0.62907 0.16645 0.0
C417 C 0.77349 0.66064 0.22168 0.0
C418 C 0.75858 0.66694 0.23504 0.0
C419 C 0.75828 0.68649 0.24236 0.0
C420 C 0.77292 0.69988 0.23585 0.0
C421 C 0.78812 0.69387 0.2228 0.0
C422 C 0.7884 0.67415 0.21574 0.0
O423 O 0.74813 0.59486 0.22742 0.0
O424 O 0.77129 0.58168 0.20615 0.0
O425 O 0.69864 0.59445 0.20965 0.0
O426 O 0.71792 0.5857 0.18599 0.0
C427 C 0.70054 0.58293 0.19424 0.0
O428 O 0.75092 0.61764 0.16406 0.0
O429 O 0.72852 0.63253 0.18451 0.0
O430 O 0.79024 0.63204 0.20773 0.0
O431 O 0.75772 0.63101 0.21024 0.0
H432 H 0.74754 0.65641 0.24024 0.0
H433 H 0.77341 0.71474 0.24217 0.0
H434 H 0.80043 0.66929 0.20614 0.0
O435 O 0.87867 0.0892 0.07488 0.0
Tb436 Tb 0.85947 0.07273 0.09485 0.0
Eu437 Eu 0.86033 0.0268 0.1125 0.0
C438 C 0.87985 0.08524 0.05577 0.0
O439 O 0.87162 0.0689 0.04883 0.0
C440 C 0.83026 0.03948 0.07839 0.0
O441 O 0.86389 1.00038 0.13385 0.0
C442 C 0.88859 1.02521 0.08594 0.0
C443 C 0.87775 1.00112 0.14788 0.0
O444 O 0.88872 1.01726 0.14927 0.0
C445 C 0.87833 0.06427 0.13537 0.0
C446 C 0.90994 0.02628 0.08082 0.0
C447 C 0.91612 0.04127 0.06751 0.0
C448 C 0.93567 0.04182 0.06024 0.0
C449 C 0.94919 0.02734 0.06679 0.0
C450 C 0.94331 1.01209 0.07984 0.0
C451 C 0.92358 1.01155 0.08681 0.0
O452 O 0.84476 0.0521 0.07424 0.0
O453 O 0.83094 0.02886 0.09511 0.0
O454 O 0.84587 0.10185 0.09274 0.0
O455 O 0.83581 0.08207 0.11544 0.0
C456 C 0.83385 0.09981 0.10774 0.0
O457 O 0.86573 0.04936 0.13751 0.0
O458 O 0.88264 0.0705 0.11739 0.0
O459 O 0.88148 1.00934 0.09492 0.0
O460 O 0.87996 0.04174 0.09152 0.0
H461 H 0.9055 0.05217 0.06228 0.0
H462 H 0.96407 0.02703 0.06051 0.0
H463 H 0.91881 0.99946 0.09639 0.0
O464 O 0.32451 0.34139 0.12627 0.0
Tb465 Tb 0.34645 0.32444 0.10975 0.0
Eu466 Eu 0.36204 0.2782 0.10998 0.0
C467 C 0.30568 0.33632 0.12746 0.0
O468 O 0.29973 0.31925 0.11999 0.0
C469 C 0.32913 0.29229 0.07917 0.0
O470 O 0.38362 0.25224 0.11399 0.0
C471 C 0.33465 0.27568 0.13727 0.0
C472 C 0.39305 0.25088 0.13125 0.0
O473 O 0.38927 0.26445 0.14486 0.0
C474 C 0.38567 0.3142 0.12954 0.0
C475 C 0.3278 0.27491 0.15816 0.0
C476 C 0.31287 0.28842 0.16402 0.0
C477 C 0.30345 0.28646 0.18251 0.0
C478 C 0.3093 0.27125 0.19543 0.0
C479 C 0.32426 0.25778 0.18999 0.0
C480 C 0.33357 0.25956 0.1713 0.0
O481 O 0.32537 0.30575 0.09308 0.0
O482 O 0.3454 0.28107 0.08029 0.0
O483 O 0.35148 0.3547 0.0998 0.0
O484 O 0.36585 0.33102 0.08423 0.0
C485 C 0.36357 0.35026 0.08541 0.0
O486 O 0.38767 0.29968 0.11651 0.0
O487 O 0.3677 0.32031 0.13385 0.0
O488 O 0.34329 0.26002 0.1293 0.0
O489 O 0.34116 0.29267 0.13025 0.0
H490 H 0.3078 0.29979 0.15379 0.0
H491 H 0.30169 0.26947 0.2096 0.0
H492 H 0.3446 0.24868 0.1668 0.0
O493 O 0.32467 0.70884 0.42591 0.0
Tb494 Tb 0.34637 0.7265 0.44199 0.0
Eu495 Eu 0.3616 0.77316 0.44139 0.0
C496 C 0.30585 0.71379 0.42418 0.0
O497 O 0.29972 0.73113 0.43082 0.0
C498 C 0.32863 0.75872 0.47221 0.0
O499 O 0.38299 0.79944 0.43772 0.0
C500 C 0.33456 0.77531 0.4137 0.0
C501 C 0.39281 0.80095 0.42067 0.0
O502 O 0.38955 0.7873 0.407 0.0
C503 C 0.38529 0.73726 0.42181 0.0
C504 C 0.32931 0.77536 0.39232 0.0
C505 C 0.31573 0.7609 0.38547 0.0
C506 C 0.30837 0.76149 0.36591 0.0
C507 C 0.31506 0.77657 0.3531 0.0
C508 C 0.32834 0.79123 0.35972 0.0
C509 C 0.33548 0.79069 0.37936 0.0
O510 O 0.32503 0.74511 0.4584 0.0
O511 O 0.34477 0.77017 0.47101 0.0
O512 O 0.35205 0.69639 0.45205 0.0
O513 O 0.36576 0.72043 0.46765 0.0
C514 C 0.36392 0.70113 0.46652 0.0
O515 O 0.38731 0.75183 0.43479 0.0
O516 O 0.36733 0.731 0.41767 0.0
O517 O 0.34318 0.79107 0.42152 0.0
O518 O 0.3406 0.75849 0.42147 0.0
H519 H 0.3104 0.7495 0.39559 0.0
H520 H 0.30893 0.77774 0.33819 0.0
H521 H 0.34525 0.80242 0.38461 0.0
O522 O 0.957 0.47517 0.87609 0.0
Tb523 Tb 0.97543 0.45369 0.86059 0.0
Eu524 Eu 1.02171 0.43868 0.86128 0.0
C525 C 0.96162 0.49409 0.8778 0.0
O526 O 0.97891 0.5005 0.87131 0.0
C527 C 1.00744 0.47152 0.83046 0.0
O528 O 0.04789 0.41732 0.86507 0.0
C529 C 1.02393 0.46605 0.88865 0.0
C530 C 0.04943 0.40783 0.88228 0.0
O531 O 0.03592 0.41144 0.89599 0.0
C532 C 0.98589 0.41494 0.88101 0.0
C533 C 1.02406 0.47235 0.90973 0.0
C534 C 1.01022 0.48694 0.91563 0.0
C535 C 1.01118 0.49542 0.93463 0.0
C536 C 0.02572 0.48896 0.94803 0.0
C537 C 0.03977 0.47449 0.94249 0.0
C538 C 0.03897 0.46625 0.92319 0.0
O539 O 0.99404 0.47521 0.84444 0.0
O540 O 1.01875 0.45531 0.83158 0.0
O541 O 0.94584 0.44709 0.84965 0.0
O542 O 0.97074 0.434 0.83485 0.0
C543 C 0.95139 0.43528 0.8354 0.0
O544 O 1.00044 0.41291 0.86802 0.0
O545 O 0.97965 0.43293 0.88509 0.0
O546 O 0.03967 0.45726 0.88103 0.0
O547 O 1.00708 0.45979 0.88112 0.0
H548 H 0.99931 0.49244 0.90511 0.0
H549 H 0.02678 0.49613 0.96249 0.0
H550 H 0.05014 0.45555 0.9186 0.0
O551 O 0.72159 0.84497 0.42622 0.0
Tb552 Tb 0.70218 0.82517 0.44266 0.0
Eu553 Eu 0.68721 0.77845 0.44054 0.0
C554 C 0.74065 0.84168 0.42358 0.0
O555 O 0.74853 0.82491 0.4298 0.0
C556 C 0.72084 0.79238 0.47087 0.0
O557 O 0.66663 0.7514 0.43703 0.0
C558 C 0.71412 0.77682 0.41266 0.0
C559 C 0.6528 0.75159 0.42295 0.0
O560 O 0.65116 0.76753 0.41173 0.0
C561 C 0.66343 0.81498 0.42199 0.0
C562 C 0.71975 0.7768 0.39138 0.0
C563 C 0.73353 0.79121 0.38484 0.0
C564 C 0.74133 0.79058 0.36544 0.0
C565 C 0.73489 0.77551 0.35248 0.0
C566 C 0.72139 0.76091 0.35879 0.0
C567 C 0.71381 0.76149 0.37828 0.0
O568 O 0.7243 0.80589 0.45696 0.0
O569 O 0.70451 0.78118 0.46996 0.0
O570 O 0.69775 0.85391 0.45667 0.0
O571 O 0.68132 0.82904 0.4676 0.0
C572 C 0.68447 0.84812 0.46946 0.0
O573 O 0.66147 0.80005 0.43458 0.0
O574 O 0.68132 0.82163 0.41819 0.0
O575 O 0.7057 0.76094 0.42039 0.0
O576 O 0.70779 0.79355 0.42044 0.0
H577 H 0.73869 0.80258 0.3951 0.0
H578 H 0.74133 0.77432 0.33769 0.0
H579 H 0.70387 0.74981 0.38332 0.0
O580 O 0.58869 0.57485 0.37813 0.0
Tb581 Tb 0.57188 0.59441 0.35883 0.0
Eu582 Eu 0.52675 0.61379 0.35998 0.0
C583 C 0.58505 0.5557 0.37941 0.0
O584 O 0.56895 0.54842 0.37103 0.0
C585 C 0.53791 0.57907 0.33032 0.0
O586 O 0.5005 0.63526 0.36353 0.0
C587 C 0.52403 0.5867 0.38757 0.0
C588 C 0.50122 0.64937 0.37733 0.0
O589 O 0.51741 0.65102 0.38815 0.0
C590 C 0.56509 0.63559 0.37782 0.0
C591 C 0.52366 0.58005 0.40849 0.0
C592 C 0.53755 0.56546 0.41419 0.0
C593 C 0.5368 0.55697 0.43317 0.0
C594 C 0.52222 0.56318 0.44665 0.0
C595 C 0.50798 0.57737 0.44114 0.0
C596 C 0.50865 0.58588 0.422 0.0
O597 O 0.55003 0.57432 0.34504 0.0
O598 O 0.529 0.59673 0.33042 0.0
O599 O 0.60001 0.59072 0.34354 0.0
O600 O 0.58134 0.61495 0.33518 0.0
C601 C 0.59839 0.60617 0.33205 0.0
O602 O 0.5498 0.63818 0.36578 0.0
O603 O 0.57117 0.61746 0.38177 0.0
O604 O 0.50844 0.59561 0.37984 0.0
O605 O 0.54099 0.59297 0.3803 0.0
H606 H 0.54851 0.56014 0.40362 0.0
H607 H 0.52128 0.55613 0.46118 0.0
H608 H 0.4973 0.59644 0.41754 0.0
O609 O 0.22433 0.70763 0.62714 0.0
Tb610 Tb 0.20274 0.72498 0.61052 0.0
Eu611 Eu 0.18642 0.77121 0.61162 0.0
C612 C 0.24338 0.71198 0.62779 0.0
O613 O 0.24983 0.72859 0.61977 0.0
C614 C 0.22106 0.75821 0.58156 0.0
O615 O 0.16455 0.79714 0.6141 0.0
C616 C 0.20968 0.7735 0.64222 0.0
C617 C 0.15389 0.79816 0.63068 0.0
O618 O 0.15636 0.78402 0.64399 0.0
C619 C 0.16292 0.73464 0.62963 0.0
C620 C 0.22285 0.77494 0.65971 0.0
C621 C 0.23868 0.76142 0.66215 0.0
C622 C 0.25084 0.7625 0.67905 0.0
C623 C 0.24676 0.77664 0.6938 0.0
C624 C 0.23076 0.78988 0.69188 0.0
C625 C 0.21907 0.78929 0.67456 0.0
O626 O 0.2242 0.74392 0.59473 0.0
O627 O 0.20513 0.76987 0.58299 0.0
O628 O 0.19783 0.69485 0.60008 0.0
O629 O 0.18387 0.71875 0.58452 0.0
C630 C 0.18605 0.69948 0.58552 0.0
O631 O 0.16088 0.74931 0.61676 0.0
O632 O 0.18092 0.72877 0.63415 0.0
O633 O 0.20053 0.78912 0.63483 0.0
O634 O 0.20684 0.75679 0.63254 0.0
H635 H 0.24168 0.75027 0.65091 0.0
H636 H 0.25616 0.7773 0.70694 0.0
H637 H 0.20664 0.79946 0.67302 0.0
O638 O 0.95106 0.57859 0.68569 0.0
Tb639 Tb 0.97317 0.59996 0.69495 0.0
Eu640 Eu 1.01997 0.61352 0.69125 0.0
C641 C 0.95025 0.57062 0.66787 0.0
O642 O 0.96422 0.5743 0.65468 0.0
C643 C 1.0063 0.57899 0.72117 0.0
O644 O 0.04595 0.63539 0.68886 0.0
C645 C 1.02258 0.58986 0.66097 0.0
C646 C 0.04725 0.64575 0.67211 0.0
O647 O 0.03341 0.64293 0.65857 0.0
C648 C 0.98385 0.63689 0.67244 0.0
C649 C 1.02423 0.57648 0.64363 0.0
C650 C 1.01106 0.56029 0.64146 0.0
C651 C 1.01227 0.54801 0.62461 0.0
C652 C 0.02629 0.55221 0.60978 0.0
C653 C 0.03929 0.56843 0.61154 0.0
C654 C 0.0385 0.58035 0.62871 0.0
O655 O 0.99159 0.57659 0.70829 0.0
O656 O 1.01826 0.59474 0.71984 0.0
O657 O 0.9455 0.61224 0.70578 0.0
O658 O 0.97207 0.61861 0.72196 0.0
C659 C 0.95291 0.62166 0.72089 0.0
O660 O 0.99835 0.63915 0.68545 0.0
O661 O 0.97739 0.61883 0.66906 0.0
O662 O 0.03813 0.599 0.66852 0.0
O663 O 1.00569 0.59304 0.67024 0.0
H664 H 1.00015 0.55706 0.65292 0.0
H665 H 0.02704 0.54272 0.5967 0.0
H666 H 0.04845 0.59298 0.63011 0.0
O667 O 0.09026 0.9754 0.67329 0.0
Tb668 Tb 0.07412 0.95536 0.69283 0.0
Eu669 Eu 0.02839 0.93691 0.6914 0.0
C670 C 0.08742 0.99474 0.67374 0.0
O671 O 0.0726 1.00198 0.68423 0.0
C672 C 0.04003 0.97204 0.7212 0.0
O673 O 1.00272 0.91466 0.68888 0.0
C674 C 0.02619 0.96013 0.66077 0.0
C675 C 1.00174 0.90384 0.6724 0.0
O676 O 1.01586 0.90624 0.65904 0.0
C677 C 0.06623 0.91421 0.67438 0.0
C678 C 1.02486 0.97331 0.64328 0.0
C679 C 0.03848 0.98909 0.64082 0.0
C680 C 0.03752 1.00118 0.62385 0.0
C681 C 1.02339 0.99712 0.60911 0.0
C682 C 1.01001 0.98123 0.6111 0.0
C683 C 1.0105 0.96958 0.62845 0.0
O684 O 0.05333 0.97601 0.70727 0.0
O685 O 0.02923 0.9555 0.72016 0.0
O686 O 0.10319 0.9578 0.70651 0.0
O687 O 0.08349 0.93512 0.71675 0.0
C688 C 0.1012 0.94289 0.71865 0.0
O689 O 0.05095 0.91195 0.68653 0.0
O690 O 0.07244 0.93223 0.67013 0.0
O691 O 1.01051 0.95118 0.6683 0.0
O692 O 0.04293 0.957 0.67024 0.0
H693 H 0.04958 0.99209 0.65211 0.0
H694 H 1.02282 1.00648 0.59593 0.0
H695 H 1.00024 0.95721 0.63005 0.0
O696 O 0.62353 0.82643 0.84305 0.0
Tb697 Tb 0.60806 0.84799 0.82475 0.0
Eu698 Eu 0.60977 0.86269 0.77789 0.0
C699 C 0.62486 0.80745 0.83859 0.0
O700 O 0.61803 0.80095 0.82145 0.0
C701 C 0.57854 0.82994 0.7921 0.0
O702 O 0.61315 0.88349 0.75113 0.0
C703 C 0.63709 0.83525 0.77632 0.0
C704 C 0.62994 0.89371 0.74956 0.0
O705 O 0.64352 0.89111 0.7634 0.0
C706 C 0.62935 0.88619 0.81395 0.0
C707 C 0.65814 0.82912 0.77751 0.0
C708 C 0.66319 0.81433 0.79148 0.0
C709 C 0.68243 0.80648 0.79207 0.0
C710 C 0.69679 0.81355 0.77877 0.0
C711 C 0.69205 0.82802 0.76443 0.0
C712 C 0.6726 0.8358 0.76381 0.0
O713 O 0.59187 0.82654 0.80617 0.0
O714 O 0.58008 0.84591 0.78043 0.0
O715 O 0.59771 0.85435 0.85465 0.0
O716 O 0.58279 0.86807 0.8302 0.0
C717 C 0.58362 0.86649 0.84955 0.0
O718 O 0.61683 0.88852 0.79904 0.0
O719 O 0.63294 0.8681 0.82012 0.0
O720 O 0.63061 0.84475 0.76047 0.0
O721 O 0.6284 0.84084 0.79287 0.0
H722 H 0.65196 0.80835 0.80142 0.0
H723 H 0.71145 0.80678 0.77883 0.0
H724 H 0.66869 0.84663 0.75249 0.0
O725 O 0.07705 0.17767 0.45572 0.0
Tb726 Tb 0.09392 0.19417 0.47759 0.0
Eu727 Eu 0.11138 0.18933 0.52298 0.0
C728 C 0.05805 0.17385 0.458 0.0
O729 O 0.04906 0.17933 0.47451 0.0
C730 C 0.07698 0.21898 0.51247 0.0
O731 O 0.13305 0.18489 0.5488 0.0
C732 C 0.08426 0.16174 0.5241 0.0
C733 C 0.1428 0.16782 0.54985 0.0
O734 O 0.13938 0.15441 0.53599 0.0
C735 C 0.13386 0.17263 0.48418 0.0
C736 C 0.07766 0.14081 0.52439 0.0
C737 C 0.06286 0.13509 0.51071 0.0
C738 C 0.05417 0.11621 0.51183 0.0
C739 C 0.06064 0.10278 0.52637 0.0
C740 C 0.07538 0.10818 0.54021 0.0
C741 C 0.08383 0.12734 0.53924 0.0
O742 O 0.07293 0.20404 0.50041 0.0
O743 O 0.09434 0.21897 0.52187 0.0
O744 O 0.09112 0.21739 0.45539 0.0
O745 O 0.11765 0.21604 0.47287 0.0
C746 C 0.10837 0.22547 0.45868 0.0
O747 O 0.1364 0.18317 0.50062 0.0
O748 O 0.11589 0.17037 0.47684 0.0
O749 O 0.09214 0.16963 0.54021 0.0
O750 O 0.09156 0.16883 0.50745 0.0
H751 H 0.05738 0.14568 0.49981 0.0
H752 H 0.05334 0.08841 0.52756 0.0
H753 H 0.09477 0.13183 0.55023 0.0
O754 O 0.42595 0.72509 0.84329 0.0
Tb755 Tb 0.44143 0.70339 0.82512 0.0
Eu756 Eu 0.43985 0.68811 0.7784 0.0
C757 C 0.42442 0.744 0.83859 0.0
O758 O 0.43094 0.75027 0.82124 0.0
C759 C 0.47083 0.72108 0.79232 0.0
O760 O 0.43619 0.66682 0.75202 0.0
C761 C 0.41265 0.71562 0.77646 0.0
C762 C 0.41921 0.65691 0.75049 0.0
O763 O 0.40554 0.66007 0.76415 0.0
C764 C 0.42044 0.66482 0.81479 0.0
C765 C 0.39165 0.72203 0.77668 0.0
C766 C 0.38607 0.73681 0.79049 0.0
C767 C 0.36713 0.74537 0.78974 0.0
C768 C 0.3535 0.73883 0.77543 0.0
C769 C 0.35874 0.72418 0.76143 0.0
C770 C 0.37794 0.71583 0.76204 0.0
O771 O 0.4572 0.72472 0.80605 0.0
O772 O 0.46955 0.70485 0.781 0.0
O773 O 0.45207 0.69751 0.85499 0.0
O774 O 0.467 0.68369 0.83057 0.0
C775 C 0.46629 0.6855 0.84991 0.0
O776 O 0.43286 0.66246 0.79978 0.0
O777 O 0.41677 0.68292 0.82095 0.0
O778 O 0.41986 0.70656 0.76065 0.0
O779 O 0.42048 0.70952 0.79324 0.0
H780 H 0.39679 0.74238 0.80119 0.0
H781 H 0.33909 0.74606 0.7745 0.0
H782 H 0.38229 0.70497 0.7509 0.0
O783 O 0.9779 0.37097 0.46088 0.0
Tb784 Tb 0.9538 0.35741 0.47736 0.0
Eu785 Eu 0.93807 0.36055 0.52366 0.0
C786 C 0.97449 0.38268 0.44557 0.0
O787 O 0.95608 0.38768 0.44125 0.0
C788 C 0.97085 0.32912 0.51078 0.0
O789 O 0.91672 0.36445 0.54993 0.0
C790 C 0.9655 0.38786 0.52548 0.0
C791 C 0.90685 0.38144 0.55142 0.0
O792 O 0.91001 0.39509 0.53774 0.0
C793 C 0.91528 0.37956 0.48655 0.0
C794 C 0.97079 0.40921 0.52545 0.0
C795 C 0.98447 0.41599 0.51106 0.0
C796 C 0.99177 0.43557 0.51163 0.0
C797 C 0.98496 0.44843 0.52664 0.0
C798 C 0.97154 0.4419 0.5413 0.0
C799 C 0.96446 0.42221 0.54067 0.0
O800 O 0.97502 0.3429 0.49739 0.0
O801 O 0.95435 0.33057 0.52163 0.0
O802 O 0.94844 0.34484 0.44808 0.0
O803 O 0.93451 0.33134 0.47324 0.0
C804 C 0.93653 0.33078 0.45391 0.0
O805 O 0.91274 0.3678 0.50207 0.0
O806 O 0.93332 0.38236 0.4797 0.0
O807 O 0.95693 0.38019 0.54134 0.0
O808 O 0.95924 0.38009 0.5087 0.0
H809 H 0.9899 0.40581 0.49974 0.0
H810 H 0.99128 0.46325 0.5278 0.0
H811 H 0.9545 0.41696 0.55225 0.0
O812 O 0.62556 0.22598 0.70979 0.0
Tb813 Tb 0.60903 0.20401 0.72668 0.0
Eu814 Eu 0.61045 0.18867 0.77343 0.0
C815 C 0.62671 0.24483 0.71486 0.0
O816 O 0.61906 0.25083 0.73184 0.0
C817 C 0.57914 0.22147 0.7595 0.0
O818 O 0.61396 0.16761 0.79999 0.0
C819 C 0.63793 0.21599 0.77508 0.0
C820 C 0.6307 0.15731 0.80135 0.0
O821 O 0.6442 0.15996 0.78742 0.0
C822 C 0.62943 0.16505 0.73703 0.0
C823 C 0.65898 0.22224 0.77422 0.0
C824 C 0.66422 0.23706 0.76032 0.0
C825 C 0.68339 0.24511 0.76011 0.0
C826 C 0.69754 0.23819 0.77367 0.0
C827 C 0.69262 0.22369 0.78794 0.0
C828 C 0.67322 0.21573 0.78821 0.0
O829 O 0.59248 0.22505 0.74545 0.0
O830 O 0.58076 0.20547 0.77109 0.0
O831 O 0.59919 0.19917 0.69632 0.0
O832 O 0.58368 0.18447 0.71985 0.0
C833 C 0.58487 0.18695 0.70061 0.0
O834 O 0.61705 0.16285 0.75209 0.0
O835 O 0.63334 0.18312 0.7309 0.0
O836 O 0.63116 0.20666 0.79093 0.0
O837 O 0.62948 0.21025 0.75845 0.0
H838 H 0.65316 0.24293 0.75019 0.0
H839 H 0.71215 0.24509 0.77389 0.0
H840 H 0.66917 0.20491 0.79949 0.0
O841 O 0.47599 0.17512 0.59163 0.0
Tb842 Tb 0.45405 0.19129 0.57439 0.0
Eu843 Eu 0.43853 0.19078 0.52775 0.0
C844 C 0.49478 0.17355 0.58647 0.0
O845 O 0.50073 0.1804 0.56913 0.0
C846 C 0.4715 0.2216 0.5421 0.0
O847 O 0.41696 0.18725 0.50162 0.0
C848 C 0.46557 0.16312 0.52533 0.0
C849 C 0.40715 0.1702 0.50009 0.0
O850 O 0.41056 0.15646 0.5136 0.0
C851 C 0.41514 0.17094 0.56371 0.0
C852 C 0.47091 0.14178 0.52539 0.0
C853 C 0.48461 0.13514 0.53982 0.0
C854 C 0.49206 0.11563 0.53935 0.0
C855 C 0.48532 0.10264 0.52443 0.0
C856 C 0.47189 0.10903 0.50982 0.0
C857 C 0.46467 0.12865 0.51023 0.0
O858 O 0.47521 0.20776 0.55562 0.0
O859 O 0.45532 0.22039 0.53073 0.0
O860 O 0.44874 0.20118 0.60467 0.0
O861 O 0.43483 0.21696 0.58091 0.0
C862 C 0.4369 0.21573 0.60019 0.0
O863 O 0.41298 0.18397 0.54922 0.0
O864 O 0.43313 0.16694 0.56995 0.0
O865 O 0.45671 0.17079 0.50965 0.0
O866 O 0.45975 0.17101 0.54221 0.0
H867 H 0.48996 0.14538 0.55109 0.0
H868 H 0.49149 0.08775 0.52336 0.0
H869 H 0.45477 0.13373 0.49855 0.0
O870 O 0.42585 0.32566 0.70929 0.0
Tb871 Tb 0.44132 0.3475 0.72735 0.0
Eu872 Eu 0.44038 0.36352 0.77393 0.0
C873 C 0.42408 0.30682 0.71421 0.0
O874 O 0.43032 0.30071 0.73171 0.0
C875 C 0.47091 0.32994 0.76004 0.0
O876 O 0.43709 0.38514 0.8001 0.0
C877 C 0.41251 0.33673 0.77658 0.0
C878 C 0.42007 0.39495 0.80168 0.0
O879 O 0.40634 0.3916 0.78814 0.0
C880 C 0.42083 0.38639 0.7374 0.0
C881 C 0.39121 0.33134 0.77606 0.0
C882 C 0.3851 0.31736 0.76171 0.0
C883 C 0.36577 0.30957 0.76188 0.0
C884 C 0.35227 0.31639 0.77628 0.0
C885 C 0.35808 0.33011 0.79099 0.0
C886 C 0.37767 0.33755 0.79088 0.0
O887 O 0.45714 0.32626 0.74645 0.0
O888 O 0.46982 0.34627 0.77127 0.0
O889 O 0.4519 0.3535 0.69745 0.0
O890 O 0.46703 0.36703 0.7219 0.0
C891 C 0.46623 0.36538 0.70255 0.0
O892 O 0.43348 0.38887 0.75219 0.0
O893 O 0.41687 0.36822 0.73159 0.0
O894 O 0.41979 0.3461 0.79216 0.0
O895 O 0.42087 0.34192 0.75973 0.0
H896 H 0.39571 0.31185 0.75085 0.0
H897 H 0.33759 0.3097 0.77709 0.0
H898 H 0.38245 0.34763 0.80256 0.0
O899 O 0.57558 0.37675 0.59335 0.0
Tb900 Tb 0.59711 0.35994 0.57608 0.0
Eu901 Eu 0.6137 0.36086 0.52993 0.0
C902 C 0.55649 0.37723 0.58914 0.0
O903 O 0.54998 0.36887 0.57271 0.0
C904 C 0.57894 0.3309 0.54279 0.0
O905 O 0.63565 0.36335 0.50402 0.0
C906 C 0.59045 0.39146 0.52777 0.0
C907 C 0.64641 0.37986 0.50311 0.0
O908 O 0.64398 0.3931 0.51734 0.0
C909 C 0.63706 0.37866 0.56664 0.0
C910 C 0.57725 0.40893 0.52647 0.0
C911 C 0.56151 0.41136 0.54015 0.0
C912 C 0.54922 0.42816 0.53908 0.0
C913 C 0.55313 0.44285 0.52485 0.0
C914 C 0.56901 0.44092 0.51144 0.0
C915 C 0.58081 0.42369 0.51199 0.0
O916 O 0.57575 0.34406 0.5571 0.0
O917 O 0.59491 0.3323 0.53114 0.0
O918 O 0.60191 0.34952 0.60623 0.0
O919 O 0.61612 0.33408 0.58235 0.0
C920 C 0.61384 0.33507 0.60162 0.0
O921 O 0.63913 0.36573 0.55202 0.0
O922 O 0.61903 0.38343 0.57223 0.0
O923 O 0.59978 0.38426 0.51214 0.0
O924 O 0.59314 0.38162 0.54439 0.0
H925 H 0.55864 0.40015 0.55135 0.0
H926 H 0.54365 0.45591 0.52418 0.0
H927 H 0.59312 0.42214 0.50164 0.0
O928 O 0.84238 0.6273 0.8282 0.0
Tb929 Tb 0.8237 0.61014 0.84811 0.0
Eu930 Eu 0.77712 0.61164 0.86294 0.0
C931 C 0.83946 0.62857 0.80892 0.0
O932 O 0.82354 0.62047 0.80097 0.0
C933 C 0.79121 0.58101 0.82969 0.0
O934 O 0.75051 0.61534 0.88394 0.0
C935 C 0.77592 0.63914 0.83565 0.0
C936 C 0.74911 0.63219 0.89412 0.0
O937 O 0.76301 0.64569 0.89137 0.0
C938 C 0.8131 0.63052 0.88704 0.0
C939 C 0.77674 0.66011 0.82913 0.0
C940 C 0.79066 0.66516 0.81427 0.0
C941 C 0.79091 0.68428 0.80605 0.0
C942 C 0.77736 0.69851 0.81285 0.0
C943 C 0.76311 0.69376 0.82742 0.0
C944 C 0.76277 0.67443 0.83554 0.0
O945 O 0.80488 0.59478 0.82622 0.0
O946 O 0.77982 0.58211 0.84589 0.0
O947 O 0.85328 0.59821 0.85262 0.0
O948 O 0.82903 0.58495 0.86833 0.0
C949 C 0.84822 0.58464 0.86538 0.0
O950 O 0.79825 0.61787 0.88896 0.0
O951 O 0.81962 0.63445 0.86912 0.0
O952 O 0.75991 0.63227 0.8446 0.0
O953 O 0.79245 0.63095 0.84187 0.0
H954 H 0.80082 0.65401 0.80854 0.0
H955 H 0.77719 0.71308 0.80585 0.0
H956 H 0.75152 0.6705 0.84643 0.0
O957 O 0.8637 0.95529 0.47581 0.0
Tb958 Tb 0.85488 0.97645 0.4533 0.0
Eu959 Eu 0.85894 1.02284 0.4383 0.0
C960 C 0.8822 0.95233 0.48132 0.0
O961 O 0.8965 0.96391 0.47472 0.0
C962 C 0.82799 1.01016 0.47173 0.0
O963 O 0.86247 0.04912 0.41689 0.0
C964 C 0.88597 1.02529 0.46596 0.0
C965 C 0.87941 0.0506 0.40689 0.0
O966 O 0.89303 0.0369 0.40997 0.0
C967 C 0.87884 0.98591 0.41641 0.0
C968 C 0.90706 1.0243 0.47196 0.0
C969 C 0.91228 1.0103 0.48665 0.0
C970 C 0.93172 1.00941 0.49395 0.0
C971 C 0.94603 1.02262 0.48663 0.0
C972 C 0.94101 0.0373 0.47263 0.0
C973 C 0.92141 0.03809 0.46521 0.0
O974 O 0.84127 0.99617 0.47553 0.0
O975 O 0.82905 1.02049 0.45483 0.0
O976 O 0.84374 0.94837 0.44218 0.0
O977 O 0.8283 0.97493 0.43417 0.0
C978 C 0.82899 0.95561 0.43212 0.0
O979 O 0.86684 1.0011 0.4133 0.0
O980 O 0.88118 0.97961 0.43472 0.0
O981 O 0.87939 0.04087 0.45611 0.0
O982 O 0.87744 1.00856 0.46066 0.0
H983 H 0.90106 1.00049 0.49288 0.0
H984 H 0.96084 1.02243 0.49309 0.0
H985 H 0.91732 0.0496 0.45467 0.0
O986 O 0.21125 0.92335 0.82618 0.0
Tb987 Tb 0.22781 0.94261 0.84603 0.0
Eu988 Eu 0.2739 0.94131 0.86367 0.0
C989 C 0.21514 0.92206 0.80706 0.0
O990 O 0.2313 0.9305 0.79996 0.0
C991 C 0.26125 0.97169 0.82977 0.0
O992 O 0.29994 0.93764 0.88532 0.0
C993 C 0.2759 0.91337 0.83684 0.0
C994 C 0.30126 0.92069 0.89533 0.0
O995 O 0.28745 0.90717 0.89227 0.0
C996 C 0.23634 0.92306 0.88641 0.0
C997 C 0.27503 0.8922 0.83099 0.0
C998 C 0.26076 0.88676 0.81666 0.0
C999 C 0.26 0.86736 0.80924 0.0
C1000 C 0.27351 0.8532 0.81623 0.0
C1001 C 0.28838 0.85839 0.82999 0.0
C1002 C 0.28913 0.87802 0.83741 0.0
O1003 O 0.2486 0.95726 0.82551 0.0
O1004 O 0.27183 0.97087 0.84651 0.0
O1005 O 0.19893 0.9566 0.84341 0.0
O1006 O 0.21814 0.96596 0.86687 0.0
C1007 C 0.20066 0.9683 0.85871 0.0
O1008 O 0.25158 0.93523 0.88873 0.0
O1009 O 0.22995 0.91919 0.86837 0.0
O1010 O 0.29167 0.92042 0.84602 0.0
O1011 O 0.25924 0.92174 0.84248 0.0
H1012 H 0.25064 0.89779 0.81073 0.0
H1013 H 0.27336 0.8384 0.80972 0.0
H1014 H 0.30082 0.88228 0.84769 0.0
O1015 O 0.17478 0.59082 0.47608 0.0
Tb1016 Tb 0.1912 0.57368 0.45421 0.0
Eu1017 Eu 0.19077 0.52709 0.43817 0.0
C1018 C 0.17359 0.58592 0.49498 0.0
O1019 O 0.18102 0.56892 0.50109 0.0
C1020 C 0.22135 0.54122 0.47157 0.0
O1021 O 0.18752 0.50048 0.41701 0.0
C1022 C 0.16317 0.52455 0.46531 0.0
C1023 C 0.17333 0.50083 0.4033 0.0
O1024 O 0.16191 0.51665 0.40217 0.0
C1025 C 0.1715 0.56349 0.41502 0.0
C1026 C 0.14211 0.52477 0.47158 0.0
C1027 C 0.13639 0.53884 0.48607 0.0
C1028 C 0.11722 0.53854 0.49417 0.0
C1029 C 0.10359 0.52422 0.48767 0.0
C1030 C 0.10914 0.50973 0.47371 0.0
C1031 C 0.12844 0.50996 0.4656 0.0
O1032 O 0.20758 0.5548 0.47527 0.0
O1033 O 0.2202 0.52986 0.45533 0.0
O1034 O 0.20116 0.60396 0.44914 0.0
O1035 O 0.21683 0.58029 0.43491 0.0
C1036 C 0.21564 0.59954 0.43716 0.0
O1037 O 0.18466 0.54913 0.41286 0.0
O1038 O 0.16707 0.56926 0.43309 0.0
O1039 O 0.17035 0.50898 0.45587 0.0
O1040 O 0.17121 0.54142 0.45974 0.0
H1041 H 0.14708 0.54958 0.49162 0.0
H1042 H 0.08894 0.52357 0.49447 0.0
H1043 H 0.13289 0.4984 0.45525 0.0
O1044 O 0.84373 0.42725 0.72527 0.0
Tb1045 Tb 0.82488 0.44306 0.70448 0.0
Eu1046 Eu 0.77859 0.44023 0.6895 0.0
C1047 C 0.83914 0.42494 0.74414 0.0
O1048 O 0.8219 0.43132 0.7508 0.0
C1049 C 0.79182 0.47166 0.7223 0.0
O1050 O 0.75233 0.43619 0.6683 0.0
C1051 C 0.777 0.41299 0.71703 0.0
C1052 C 0.75092 0.41904 0.65867 0.0
O1053 O 0.7646 0.40548 0.66207 0.0
C1054 C 0.81519 0.42129 0.66607 0.0
C1055 C 0.77766 0.392 0.72348 0.0
C1056 C 0.79145 0.38689 0.73841 0.0
C1057 C 0.79155 0.36779 0.74662 0.0
C1058 C 0.77802 0.35358 0.73974 0.0
C1059 C 0.76389 0.35835 0.72509 0.0
C1060 C 0.76367 0.37771 0.71699 0.0
O1061 O 0.80553 0.45808 0.72606 0.0
O1062 O 0.78062 0.47014 0.70602 0.0
O1063 O 0.8537 0.45677 0.69974 0.0
O1064 O 0.82885 0.46758 0.68322 0.0
C1065 C 0.84793 0.46938 0.68628 0.0
O1066 O 0.79988 0.43332 0.66374 0.0
O1067 O 0.82178 0.41812 0.68412 0.0
O1068 O 0.76112 0.41988 0.70792 0.0
O1069 O 0.79365 0.42115 0.71094 0.0
H1070 H 0.8016 0.39799 0.74422 0.0
H1071 H 0.77776 0.33901 0.74674 0.0
H1072 H 0.7525 0.38167 0.70605 0.0
O1073 O 0.68531 0.95456 0.57622 0.0
Tb1074 Tb 0.69373 0.97629 0.59836 0.0
Eu1075 Eu 0.68954 1.02278 0.61323 0.0
C1076 C 0.66722 0.9526 0.56912 0.0
O1077 O 0.65326 0.96539 0.57394 0.0
C1078 C 0.72027 1.00995 0.57978 0.0
O1079 O 0.68587 0.04894 0.63484 0.0
C1080 C 0.66296 0.02551 0.58524 0.0
C1081 C 0.66881 0.05061 0.6446 0.0
O1082 O 0.655 0.03716 0.6412 0.0
C1083 C 0.66972 0.98572 0.63524 0.0
C1084 C 0.6423 0.02617 0.57786 0.0
C1085 C 0.63703 1.01294 0.56243 0.0
C1086 C 0.61866 1.01471 0.5528 0.0
C1087 C 0.60533 0.02949 0.55886 0.0
C1088 C 0.61026 0.04274 0.57421 0.0
C1089 C 0.6288 0.04115 0.58376 0.0
O1090 O 0.70676 0.99616 0.57597 0.0
O1091 O 0.71945 1.02006 0.59683 0.0
O1092 O 0.70552 0.94868 0.6099 0.0
O1093 O 0.72045 0.97571 0.61734 0.0
C1094 C 0.72017 0.95642 0.61974 0.0
O1095 O 0.68153 1.0011 0.63826 0.0
O1096 O 0.66745 0.9792 0.61698 0.0
O1097 O 0.6705 0.04109 0.5944 0.0
O1098 O 0.66995 1.00846 0.59163 0.0
H1099 H 0.64765 1.00198 0.55716 0.0
H1100 H 0.59124 0.03112 0.55113 0.0
H1101 H 0.63287 0.05184 0.59516 0.0
O1102 O 0.20724 0.12312 0.72297 0.0
Tb1103 Tb 0.22629 0.10771 0.70199 0.0
Eu1104 Eu 0.27271 0.10921 0.68562 0.0
C1105 C 0.21188 0.12625 0.74171 0.0
O1106 O 0.22962 0.1213 0.74824 0.0
C1107 C 0.25965 0.07996 0.72123 0.0
O1108 O 0.29906 0.11052 0.66402 0.0
C1109 C 0.27623 0.13995 0.70856 0.0
C1110 C 0.29902 0.12458 0.65016 0.0
O1111 O 0.28346 0.13636 0.64899 0.0
C1112 C 0.23592 0.12729 0.66275 0.0
C1113 C 0.27836 0.15753 0.72157 0.0
C1114 C 0.26493 0.16068 0.73739 0.0
C1115 C 0.26779 0.17658 0.75058 0.0
C1116 C 0.28378 0.18961 0.74769 0.0
C1117 C 0.29685 0.18708 0.73166 0.0
C1118 C 0.29417 0.17101 0.71859 0.0
O1119 O 0.24521 0.09302 0.72414 0.0
O1120 O 0.27122 0.08106 0.70514 0.0
O1121 O 0.19672 0.09662 0.69556 0.0
O1122 O 0.22156 0.08152 0.68282 0.0
C1123 C 0.2022 0.08214 0.68403 0.0
O1124 O 0.25036 0.11424 0.66043 0.0
O1125 O 0.23052 0.13182 0.68092 0.0
O1126 O 0.2913 0.13248 0.69861 0.0
O1127 O 0.2593 0.13047 0.70641 0.0
H1128 H 0.2526 0.1506 0.73973 0.0
H1129 H 0.28583 0.20207 0.75781 0.0
H1130 H 0.30443 0.16896 0.70628 0.0
O1131 O 0.37498 0.59242 0.57584 0.0
Tb1132 Tb 0.35924 0.57438 0.59749 0.0
Eu1133 Eu 0.36059 0.5278 0.61305 0.0
C1134 C 0.37708 0.58744 0.55704 0.0
O1135 O 0.37085 0.56996 0.55084 0.0
C1136 C 0.3298 0.54167 0.5798 0.0
O1137 O 0.36417 0.50153 0.63447 0.0
C1138 C 0.38825 0.5257 0.58594 0.0
C1139 C 0.38118 0.49999 0.64431 0.0
O1140 O 0.39487 0.51359 0.64104 0.0
C1141 C 0.37986 0.56426 0.63635 0.0
C1142 C 0.40957 0.52601 0.58062 0.0
C1143 C 0.4161 0.54046 0.56689 0.0
C1144 C 0.43558 0.54013 0.55939 0.0
C1145 C 0.44868 0.52533 0.56613 0.0
C1146 C 0.44245 0.51062 0.57965 0.0
C1147 C 0.4228 0.511 0.58687 0.0
O1148 O 0.3435 0.55532 0.57611 0.0
O1149 O 0.33101 0.53041 0.59608 0.0
O1150 O 0.34839 0.60419 0.60324 0.0
O1151 O 0.3336 0.57974 0.61713 0.0
C1152 C 0.33418 0.59906 0.61527 0.0
O1153 O 0.3674 0.54928 0.63868 0.0
O1154 O 0.38369 0.57035 0.61824 0.0
O1155 O 0.38075 0.50995 0.59483 0.0
O1156 O 0.38018 0.54247 0.59175 0.0
H1157 H 0.40578 0.55162 0.56153 0.0
H1158 H 0.46345 0.52436 0.55968 0.0
H1159 H 0.41774 0.49937 0.59687 0.0
O1160 O 0.82823 0.84672 0.62339 0.0
Tb1161 Tb 0.84748 0.82624 0.60766 0.0
Eu1162 Eu 0.86153 0.77943 0.61105 0.0
C1163 C 0.80922 0.8435 0.62643 0.0
O1164 O 0.8012 0.8266 0.62069 0.0
C1165 C 0.82837 0.79317 0.58003 0.0
O1166 O 0.88181 0.75224 0.61448 0.0
C1167 C 0.83439 0.77837 0.63871 0.0
C1168 C 0.89548 0.75233 0.62869 0.0
O1169 O 0.89693 0.7681 0.64018 0.0
C1170 C 0.88546 0.81586 0.62962 0.0
C1171 C 0.82811 0.77933 0.65977 0.0
C1172 C 0.81344 0.79337 0.66492 0.0
C1173 C 0.8053 0.79365 0.68409 0.0
C1174 C 0.812 0.78003 0.6983 0.0
C1175 C 0.82636 0.76562 0.69346 0.0
C1176 C 0.8344 0.76526 0.67406 0.0
O1177 O 0.82509 0.80725 0.59341 0.0
O1178 O 0.84445 0.78167 0.58144 0.0
O1179 O 0.85304 0.85466 0.59345 0.0
O1180 O 0.86875 0.82916 0.58292 0.0
C1181 C 0.86626 0.84831 0.58087 0.0
O1182 O 0.88754 0.80056 0.61749 0.0
O1183 O 0.86755 0.82278 0.63273 0.0
O1184 O 0.84343 0.76236 0.63198 0.0
O1185 O 0.84037 0.79487 0.6302 0.0
H1186 H 0.80774 0.80357 0.65379 0.0
H1187 H 0.80503 0.77989 0.7129 0.0
H1188 H 0.8451 0.75387 0.67005 0.0
O1189 O 0.82426 0.21065 0.92376 0.0
Tb1190 Tb 0.84308 0.22741 0.94388 0.0
Eu1191 Eu 0.86219 0.27267 0.94148 0.0
C1192 C 0.8048 0.21133 0.92496 0.0
O1193 O 0.79642 0.22434 0.93695 0.0
C1194 C 0.82786 0.26185 0.97171 0.0
O1195 O 0.88314 0.29936 0.93754 0.0
C1196 C 0.83477 0.27389 0.91409 0.0
C1197 C 0.89763 0.2986 0.92415 0.0
O1198 O 0.89987 0.28218 0.91374 0.0
C1199 C 0.88441 0.23404 0.92468 0.0
C1200 C 0.82797 0.2733 0.89322 0.0
C1201 C 0.8131 0.25938 0.88824 0.0
C1202 C 0.80472 0.25925 0.86919 0.0
C1203 C 0.81138 0.27289 0.85495 0.0
C1204 C 0.82598 0.28711 0.85965 0.0
C1205 C 0.83424 0.28735 0.87893 0.0
O1206 O 0.82299 0.24953 0.95718 0.0
O1207 O 0.84548 0.27084 0.97129 0.0
O1208 O 0.83889 0.19972 0.95983 0.0
O1209 O 0.86369 0.21806 0.9674 0.0
C1210 C 0.85457 0.20129 0.97102 0.0
O1211 O 0.88695 0.24999 0.93588 0.0
O1212 O 0.86633 0.22754 0.92117 0.0
O1213 O 0.84354 0.28992 0.92113 0.0
O1214 O 0.84143 0.25735 0.92187 0.0
H1215 H 0.80751 0.24913 0.89941 0.0
H1216 H 0.80429 0.27312 0.84042 0.0
H1217 H 0.84518 0.29857 0.88281 0.0
O1218 O 0.45636 0.97483 0.37465 0.0
Tb1219 Tb 0.47512 0.95404 0.35867 0.0
Eu1220 Eu 0.5214 0.93842 0.36121 0.0
C1221 C 0.46113 0.99359 0.37738 0.0
O1222 O 0.47855 1.00015 0.37141 0.0
C1223 C 0.50826 0.97171 0.33006 0.0
O1224 O 0.54821 0.9176 0.36477 0.0
C1225 C 0.52292 0.96547 0.38901 0.0
C1226 C 0.54787 0.90378 0.37887 0.0
O1227 O 0.53196 0.90236 0.39017 0.0
C1228 C 0.48444 0.91527 0.37983 0.0
C1229 C 0.52211 0.9708 0.41037 0.0
C1230 C 0.50725 0.98418 0.41669 0.0
C1231 C 0.50713 0.99167 0.43622 0.0
C1232 C 0.52186 0.98528 0.44954 0.0
C1233 C 0.53701 0.97222 0.44349 0.0
C1234 C 0.53712 0.96501 0.42382 0.0
O1235 O 0.4946 0.97555 0.34371 0.0
O1236 O 0.51939 0.95538 0.33149 0.0
O1237 O 0.44625 0.94944 0.34503 0.0
O1238 O 0.47108 0.93309 0.33389 0.0
C1239 C 0.45199 0.93614 0.33222 0.0
O1240 O 0.49958 0.91293 0.36756 0.0
O1241 O 0.47809 0.93335 0.38334 0.0
O1242 O 0.53878 0.95646 0.38192 0.0
O1243 O 0.50635 0.95977 0.38048 0.0
H1244 H 0.49614 0.98932 0.4062 0.0
H1245 H 0.52249 0.99173 0.46436 0.0
H1246 H 0.54915 0.95542 0.41892 0.0
O1247 O 0.22445 0.34274 0.92504 0.0
Tb1248 Tb 0.20283 0.32513 0.9414 0.0
Eu1249 Eu 0.18629 0.27882 0.94053 0.0
C1250 C 0.24344 0.33822 0.92401 0.0
O1251 O 0.2498 0.32131 0.93145 0.0
C1252 C 0.22119 0.29198 0.97031 0.0
O1253 O 0.16433 0.25281 0.93838 0.0
C1254 C 0.2095 0.27631 0.90986 0.0
C1255 C 0.15343 0.25162 0.92196 0.0
O1256 O 0.15568 0.26569 0.90852 0.0
C1257 C 0.16303 0.31551 0.92253 0.0
C1258 C 0.2226 0.27465 0.89229 0.0
C1259 C 0.23802 0.28853 0.88908 0.0
C1260 C 0.25032 0.28685 0.87227 0.0
C1261 C 0.24663 0.27181 0.85829 0.0
C1262 C 0.23109 0.25817 0.86105 0.0
C1263 C 0.21934 0.25938 0.87828 0.0
O1264 O 0.22434 0.30616 0.95702 0.0
O1265 O 0.2052 0.28034 0.96905 0.0
O1266 O 0.19743 0.35515 0.95189 0.0
O1267 O 0.18399 0.33098 0.96754 0.0
C1268 C 0.1858 0.35029 0.96653 0.0
O1269 O 0.1609 0.30091 0.93546 0.0
O1270 O 0.18108 0.3211 0.91781 0.0
O1271 O 0.20023 0.2608 0.91735 0.0
O1272 O 0.2068 0.29307 0.91947 0.0
H1273 H 0.24071 0.30031 0.89975 0.0
H1274 H 0.25611 0.27061 0.84524 0.0
H1275 H 0.20735 0.24879 0.88048 0.0
O1276 O 0.08958 0.0747 0.8795 0.0
Tb1277 Tb 0.07279 0.09444 0.86035 0.0
Eu1278 Eu 0.027 0.11241 0.86199 0.0
C1279 C 0.08558 0.05564 0.88116 0.0
O1280 O 0.06906 0.0486 0.87342 0.0
C1281 C 0.0393 0.07852 0.8316 0.0
O1282 O 1.0009 0.13393 0.86596 0.0
C1283 C 1.0251 0.08545 0.88977 0.0
C1284 C 0.99963 0.14398 0.8829 0.0
O1285 O 1.01353 0.14105 0.89635 0.0
C1286 C 0.06486 0.13524 0.87991 0.0
C1287 C 1.02493 0.0801 0.91109 0.0
C1288 C 0.03942 0.06657 0.91787 0.0
C1289 C 0.03884 0.05909 0.93738 0.0
C1290 C 1.02374 0.06566 0.95023 0.0
C1291 C 1.00908 0.07897 0.94369 0.0
C1292 C 1.0096 0.08618 0.92407 0.0
O1293 O 0.05153 0.07404 0.84631 0.0
O1294 O 0.02921 0.09553 0.83225 0.0
O1295 O 0.10136 0.09133 0.84581 0.0
O1296 O 0.08209 0.11469 0.83638 0.0
C1297 C 0.09946 0.10637 0.83384 0.0
O1298 O 0.04911 0.13757 0.8684 0.0
O1299 O 0.07158 0.11725 0.8834 0.0
O1300 O 1.00925 0.09367 0.88177 0.0
O1301 O 0.04187 0.09199 0.88227 0.0
H1302 H 0.05084 0.06138 0.90773 0.0
H1303 H 1.02259 0.05947 0.96512 0.0
H1304 H 0.99789 0.09598 0.91887 0.0
O1305 O 0.7249 0.20802 0.12521 0.0
Tb1306 Tb 0.70451 0.22719 0.10932 0.0
Eu1307 Eu 0.68814 0.27293 0.11247 0.0
C1308 C 0.74344 0.21275 0.12913 0.0
O1309 O 0.75003 0.23063 0.12471 0.0
C1310 C 0.72192 0.26091 0.08185 0.0
O1311 O 0.66694 0.29933 0.1163 0.0
C1312 C 0.71531 0.27463 0.14007 0.0
C1313 C 0.65678 0.30072 0.13317 0.0
O1314 O 0.65951 0.28682 0.14667 0.0
C1315 C 0.66512 0.23564 0.13075 0.0
C1316 C 0.72078 0.27466 0.1614 0.0
C1317 C 0.734 0.2599 0.16821 0.0
C1318 C 0.74168 0.26049 0.18764 0.0
C1319 C 0.73562 0.27589 0.2004 0.0
C1320 C 0.72259 0.29089 0.19391 0.0
C1321 C 0.71521 0.29026 0.17431 0.0
O1322 O 0.72611 0.24763 0.09574 0.0
O1323 O 0.70474 0.27069 0.08261 0.0
O1324 O 0.70162 0.19856 0.09472 0.0
O1325 O 0.68429 0.22286 0.08395 0.0
C1326 C 0.68833 0.20398 0.0818 0.0
O1327 O 0.66269 0.25137 0.11926 0.0
O1328 O 0.68313 0.22878 0.13365 0.0
O1329 O 0.70698 0.29052 0.13227 0.0
O1330 O 0.70885 0.2579 0.1324 0.0
H1331 H 0.73881 0.24823 0.15816 0.0
H1332 H 0.74222 0.27704 0.21511 0.0
H1333 H 0.70561 0.3021 0.16904 0.0
O1334 O 0.457 0.07814 0.17483 0.0
Tb1335 Tb 0.47589 0.09772 0.19219 0.0
Eu1336 Eu 0.52164 0.11446 0.19151 0.0
C1337 C 0.45967 0.05882 0.17355 0.0
O1338 O 0.47549 0.0507 0.18164 0.0
C1339 C 0.50869 0.07896 0.22046 0.0
O1340 O 0.54754 0.13652 0.18951 0.0
C1341 C 0.52503 0.09083 0.16129 0.0
C1342 C 0.54895 0.14716 0.17294 0.0
O1343 O 0.53515 0.14459 0.1593 0.0
C1344 C 0.48504 0.13763 0.17306 0.0
C1345 C 0.52712 0.07745 0.144 0.0
C1346 C 0.51357 0.06169 0.14099 0.0
C1347 C 0.51645 0.04826 0.12522 0.0
C1348 C 0.53257 0.05094 0.11227 0.0
C1349 C 0.54571 0.06693 0.11468 0.0
C1350 C 0.54299 0.08018 0.13058 0.0
O1351 O 0.49519 0.07564 0.20652 0.0
O1352 O 0.51965 0.09547 0.21995 0.0
O1353 O 0.44655 0.10173 0.2049 0.0
O1354 O 0.47093 0.11753 0.21781 0.0
C1355 C 0.45179 0.1144 0.21851 0.0
O1356 O 0.49967 0.13986 0.18593 0.0
O1357 O 0.47932 0.11955 0.16858 0.0
O1358 O 0.54039 0.09989 0.16932 0.0
O1359 O 0.50788 0.09424 0.16991 0.0
H1360 H 0.50118 0.05956 0.1511 0.0
H1361 H 0.53463 0.04074 0.09987 0.0
H1362 H 0.55328 0.09247 0.13253 0.0
O1363 O 0.58959 0.47671 0.17409 0.0
Tb1364 Tb 0.57268 0.45716 0.19335 0.0
Eu1365 Eu 0.52746 0.43806 0.1905 0.0
C1366 C 0.5859 0.49584 0.1728 0.0
O1367 O 0.56989 0.5031 0.18137 0.0
C1368 C 0.53796 0.47244 0.22084 0.0
O1369 O 0.50092 0.41695 0.18653 0.0
C1370 C 0.5261 0.46534 0.16298 0.0
C1371 C 0.50174 0.40258 0.17302 0.0
O1372 O 0.51814 0.40052 0.16256 0.0
C1373 C 0.56625 0.41598 0.17387 0.0
C1374 C 0.52675 0.47216 0.1421 0.0
C1375 C 0.54057 0.48714 0.13723 0.0
C1376 C 0.54077 0.49563 0.11824 0.0
C1377 C 0.52725 0.48898 0.10391 0.0
C1378 C 0.5131 0.47426 0.10847 0.0
C1379 C 0.5128 0.46588 0.12771 0.0
O1380 O 0.55049 0.47723 0.20648 0.0
O1381 O 0.52891 0.45484 0.22031 0.0
O1382 O 0.60042 0.46119 0.20922 0.0
O1383 O 0.58177 0.43678 0.21725 0.0
C1384 C 0.59865 0.44575 0.22072 0.0
O1385 O 0.55025 0.41338 0.18497 0.0
O1386 O 0.57274 0.4341 0.17047 0.0
O1387 O 0.51015 0.45639 0.16992 0.0
O1388 O 0.54267 0.45897 0.17094 0.0
H1389 H 0.55068 0.49277 0.14844 0.0
H1390 H 0.52705 0.49616 0.08942 0.0
H1391 H 0.50162 0.45488 0.1315 0.0
H1392 H 0.13329 0.26987 0.34645 0.0
H1393 H 0.13342 0.32448 0.38074 0.0
H1394 H 0.13503 0.25074 0.3775 0.0
H1395 H 0.13467 0.30529 0.41142 0.0
H1396 H 0.1461 0.22744 0.44397 0.0
H1397 H 0.15739 0.24897 0.41643 0.0
H1398 H 0.10061 0.27897 0.41691 0.0
H1399 H 0.08912 0.25708 0.44363 0.0
C1400 C 0.13428 0.27779 0.36049 0.0
C1401 C 0.13274 0.29865 0.36115 0.0
C1402 C 0.13541 0.26686 0.37819 0.0
C1403 C 0.13491 0.27668 0.39666 0.0
C1404 C 0.13515 0.2975 0.39728 0.0
C1405 C 0.1343 0.30841 0.37967 0.0
C1406 C 0.13634 0.23905 0.43849 0.0
C1407 C 0.11684 0.24085 0.44582 0.0
C1408 C 0.14272 0.25117 0.42275 0.0
C1409 C 0.12982 0.26551 0.41478 0.0
C1410 C 0.11081 0.26807 0.42303 0.0
C1411 C 0.10427 0.25564 0.43826 0.0
H1412 H 0.45479 0.66802 0.88396 0.0
H1413 H 0.50672 0.68192 0.84885 0.0
H1414 H 0.47584 0.65814 0.91175 0.0
H1415 H 0.52804 0.6734 0.87711 0.0
H1416 H 0.56377 0.65592 0.92983 0.0
H1417 H 0.54204 0.65167 0.90105 0.0
H1418 H 0.49337 0.67731 0.9346 0.0
H1419 H 0.51476 0.68071 0.96338 0.0
C1420 C 0.47081 0.66864 0.88218 0.0
C1421 C 0.47925 0.6758 0.86448 0.0
C1422 C 0.48288 0.66318 0.89813 0.0
C1423 C 0.50365 0.66545 0.89694 0.0
C1424 C 0.51213 0.6713 0.87859 0.0
C1425 C 0.49998 0.67626 0.86239 0.0
C1426 C 0.54827 0.66018 0.93116 0.0
C1427 C 0.54102 0.6689 0.94879 0.0
C1428 C 0.53587 0.65788 0.9146 0.0
C1429 C 0.51599 0.66438 0.91532 0.0
C1430 C 0.50848 0.67186 0.93345 0.0
C1431 C 0.52081 0.67395 0.95002 0.0
H1432 H 0.93147 0.3351 0.41432 0.0
H1433 H 0.92171 0.29384 0.46269 0.0
H1434 H 0.92131 0.30978 0.39041 0.0
H1435 H 0.91169 0.26819 0.43856 0.0
H1436 H 0.93704 0.22761 0.38591 0.0
H1437 H 0.93469 0.25158 0.41299 0.0
H1438 H 0.89329 0.2866 0.37848 0.0
H1439 H 0.89548 0.26228 0.35119 0.0
C1440 C 0.92677 0.32068 0.41983 0.0
C1441 C 0.92755 0.31626 0.44025 0.0
C1442 C 0.92076 0.30626 0.40616 0.0
C1443 C 0.91572 0.28706 0.41266 0.0
C1444 C 0.91552 0.28292 0.43322 0.0
C1445 C 0.92123 0.29753 0.44698 0.0
C1446 C 0.92716 0.24025 0.38422 0.0
C1447 C 0.91664 0.24329 0.36641 0.0
C1448 C 0.92564 0.25383 0.39983 0.0
C1449 C 0.91379 0.2709 0.39782 0.0
C1450 C 0.90251 0.27351 0.38035 0.0
C1451 C 0.90375 0.25965 0.3648 0.0
H1452 H 0.53591 0.8719 0.96321 0.0
H1453 H 0.48673 0.89665 0.93 0.0
H1454 H 0.55718 0.87538 0.93433 0.0
H1455 H 0.50833 0.90098 0.9011 0.0
H1456 H 0.54322 0.87032 0.84876 0.0
H1457 H 0.52212 0.87913 0.87713 0.0
H1458 H 0.5746 0.89441 0.91127 0.0
H1459 H 0.59544 0.88424 0.88337 0.0
C1460 C 0.5298 0.87869 0.94992 0.0
C1461 C 0.50958 0.88368 0.94879 0.0
C1462 C 0.54206 0.88082 0.93328 0.0
C1463 C 0.53446 0.88828 0.91519 0.0
C1464 C 0.51458 0.89477 0.91461 0.0
C1465 C 0.50224 0.89243 0.93123 0.0
C1466 C 0.55007 0.87606 0.8622 0.0
C1467 C 0.57081 0.87644 0.86413 0.0
C1468 C 0.53805 0.88118 0.87847 0.0
C1469 C 0.54667 0.88711 0.89671 0.0
C1470 C 0.56745 0.88932 0.89773 0.0
C1471 C 0.5794 0.8837 0.88171 0.0
H1472 H 0.11824 0.79434 0.09833 0.0
H1473 H 0.12969 0.84583 0.13498 0.0
H1474 H 0.12674 0.77259 0.12626 0.0
H1475 H 0.13967 0.82441 0.16244 0.0
H1476 H 0.11903 0.78344 0.21309 0.0
H1477 H 0.12154 0.80566 0.18484 0.0
H1478 H 0.14832 0.75857 0.14987 0.0
H1479 H 0.1448 0.73598 0.1781 0.0
C1480 C 0.12332 0.80091 0.11217 0.0
C1481 C 0.12312 0.8216 0.11476 0.0
C1482 C 0.12829 0.78852 0.12819 0.0
C1483 C 0.13355 0.79672 0.14683 0.0
C1484 C 0.13508 0.81754 0.14859 0.0
C1485 C 0.12956 0.82983 0.13282 0.0
C1486 C 0.12586 0.77794 0.19953 0.0
C1487 C 0.13145 0.75792 0.19772 0.0
C1488 C 0.12742 0.79074 0.18325 0.0
C1489 C 0.13498 0.78391 0.16488 0.0
C1490 C 0.142 0.76423 0.1636 0.0
C1491 C 0.14014 0.75133 0.17983 0.0
H1492 H 0.98684 0.65382 0.1214 0.0
H1493 H 0.03628 0.67829 0.08824 0.0
H1494 H 1.00831 0.64958 0.15038 0.0
H1495 H 0.05739 0.6749 0.11716 0.0
H1496 H 0.09541 0.66678 0.16819 0.0
H1497 H 0.07468 0.65615 0.14041 0.0
H1498 H 1.02206 0.67166 0.17428 0.0
H1499 H 0.04307 0.68091 0.20257 0.0
C1500 C 1.00237 0.65795 0.12016 0.0
C1501 C 1.0098 0.66668 0.10261 0.0
C1502 C 1.01464 0.65568 0.13685 0.0
C1503 C 0.03454 0.66216 0.13631 0.0
C1504 C 0.04224 0.66949 0.11821 0.0
C1505 C 0.03006 0.67158 0.10154 0.0
C1506 C 0.07937 0.66729 0.16982 0.0
C1507 C 0.07072 0.67474 0.1873 0.0
C1508 C 0.06748 0.66139 0.15387 0.0
C1509 C 0.04668 0.66353 0.15483 0.0
C1510 C 0.038 0.66966 0.17298 0.0
C1511 C 0.04997 0.67505 0.1892 0.0
H1512 H 0.91945 0.76782 0.21698 0.0
H1513 H 0.91463 0.81656 0.17516 0.0
H1514 H 0.91909 0.74425 0.18929 0.0
H1515 H 0.91479 0.79308 0.14762 0.0
H1516 H 0.91268 0.74401 0.10077 0.0
H1517 H 0.90086 0.76444 0.12881 0.0
H1518 H 0.94701 0.73959 0.16611 0.0
H1519 H 0.95854 0.71939 0.13851 0.0
C1520 C 0.91786 0.77348 0.20195 0.0
C1521 C 0.91767 0.79404 0.19822 0.0
C1522 C 0.91772 0.76001 0.1861 0.0
C1523 C 0.91742 0.76689 0.1663 0.0
C1524 C 0.91505 0.78732 0.1627 0.0
C1525 C 0.91512 0.80079 0.17853 0.0
C1526 C 0.92014 0.74295 0.11504 0.0
C1527 C 0.93656 0.73029 0.11751 0.0
C1528 C 0.91338 0.75454 0.13104 0.0
C1529 C 0.92284 0.75338 0.14972 0.0
C1530 C 0.93908 0.74046 0.15209 0.0
C1531 C 0.94587 0.72908 0.13617 0.0
H1532 H 0.95562 0.8834 0.16876 0.0
H1533 H 1.00723 0.86958 0.20426 0.0
H1534 H 0.97692 0.89324 0.14111 0.0
H1535 H 0.0288 0.87805 0.17613 0.0
H1536 H 0.06498 0.89594 0.12369 0.0
H1537 H 0.04303 0.89982 0.15238 0.0
H1538 H 0.99468 0.87431 0.11829 0.0
H1539 H 1.0163 0.87129 0.0896 0.0
C1540 C 0.97163 0.88278 0.17065 0.0
C1541 C 0.97991 0.87567 0.18843 0.0
C1542 C 0.98384 0.88821 0.15478 0.0
C1543 C 1.00459 0.88597 0.15612 0.0
C1544 C 1.01291 0.88013 0.17453 0.0
C1545 C 1.00061 0.87521 0.19066 0.0
C1546 C 0.04951 0.89162 0.12223 0.0
C1547 C 0.04241 0.88308 0.10446 0.0
C1548 C 0.03697 0.8937 0.13874 0.0
C1549 C 1.01711 0.88715 0.13784 0.0
C1550 C 1.00977 0.8798 0.11959 0.0
C1551 C 1.02223 0.87794 0.10306 0.0
H1552 H 0.37323 0.14568 0.31652 0.0
H1553 H 0.33864 0.12213 0.26762 0.0
H1554 H 0.40186 0.14935 0.29451 0.0
H1555 H 0.3673 0.12486 0.24592 0.0
H1556 H 0.41814 0.13246 0.20706 0.0
H1557 H 0.39066 0.14307 0.22822 0.0
H1558 H 0.425 0.12712 0.2804 0.0
H1559 H 0.45297 0.11792 0.25896 0.0
C1560 C 0.37166 0.14156 0.30098 0.0
C1561 C 0.35378 0.13335 0.29383 0.0
C1562 C 0.38813 0.14352 0.28841 0.0
C1563 C 0.38709 0.13712 0.26849 0.0
C1564 C 0.36871 0.13021 0.26108 0.0
C1565 C 0.3522 0.12851 0.27357 0.0
C1566 C 0.41991 0.13185 0.2231 0.0
C1567 C 0.43743 0.12434 0.23153 0.0
C1568 C 0.40415 0.13772 0.23523 0.0
C1569 C 0.40535 0.1355 0.25603 0.0
C1570 C 0.42353 0.12922 0.26447 0.0
C1571 C 0.43956 0.12386 0.25226 0.0
H1572 H 0.37852 0.38539 0.09732 0.0
H1573 H 0.36916 0.34906 0.04516 0.0
H1574 H 0.38873 0.41318 0.07642 0.0
H1575 H 0.3779 0.37729 1.0239 0.0
H1576 H 0.396 0.42964 0.98818 0.0
H1577 H 0.39955 0.40139 1.01071 0.0
H1578 H 0.37076 0.43538 0.05735 0.0
H1579 H 0.36821 0.46368 0.03522 0.0
C1580 C 0.37888 0.38338 0.08129 0.0
C1581 C 0.37294 0.36531 0.07271 0.0
C1582 C 0.38455 0.39932 0.0693 0.0
C1583 C 0.38368 0.39773 0.04842 0.0
C1584 C 0.37893 0.3791 0.0399 0.0
C1585 C 0.37381 0.36292 0.05201 0.0
C1586 C 0.39092 0.43117 1.00343 0.0
C1587 C 0.38162 0.44877 1.0099 0.0
C1588 C 0.3928 0.41492 1.0163 0.0
C1589 C 0.38519 0.41589 0.0358 0.0
C1590 C 0.37708 0.43404 0.04257 0.0
C1591 C 0.37549 0.45034 0.02981 0.0
H1592 H 0.67569 0.41254 0.31722 0.0
H1593 H 0.71496 0.41987 0.26666 0.0
H1594 H 0.64701 0.41377 0.2951 0.0
H1595 H 0.6862 0.42079 0.24455 0.0
H1596 H 0.63508 0.46198 0.22448 0.0
H1597 H 0.66295 0.4499 0.24392 0.0
H1598 H 0.62713 0.40092 0.26536 0.0
H1599 H 0.59883 0.41316 0.24554 0.0
C1600 C 0.67826 0.4137 0.30132 0.0
C1601 C 0.69756 0.41672 0.29372 0.0
C1602 C 0.66179 0.41434 0.28865 0.0
C1603 C 0.6644 0.4179 0.26822 0.0
C1604 C 0.68379 0.4185 0.26036 0.0
C1605 C 0.70025 0.41791 0.273 0.0
C1606 C 0.63308 0.44861 0.23331 0.0
C1607 C 0.61482 0.4385 0.23356 0.0
C1608 C 0.64915 0.44155 0.24425 0.0
C1609 C 0.64733 0.42423 0.25582 0.0
C1610 C 0.62894 0.41421 0.2564 0.0
C1611 C 0.61279 0.42123 0.24519 0.0
H1612 H 0.64673 0.10117 1.0138 0.0
H1613 H 0.68686 0.13645 0.97792 0.0
H1614 H 0.64507 0.12831 0.03834 0.0
H1615 H 0.68492 0.16345 1.00207 0.0
H1616 H 0.67163 0.21275 0.04561 0.0
H1617 H 0.66136 0.18862 1.01998 0.0
H1618 H 0.67477 0.14032 0.06025 0.0
H1619 H 0.68533 0.1642 0.08545 0.0
C1620 C 0.65476 0.11488 1.01095 0.0
C1621 C 0.66713 0.11669 0.99419 0.0
C1622 C 0.65381 0.13035 1.02493 0.0
C1623 C 0.66483 0.14795 1.02201 0.0
C1624 C 0.67609 0.15017 1.00455 0.0
C1625 C 0.67736 0.13463 0.99086 0.0
C1626 C 0.67196 0.19698 0.04901 0.0
C1627 C 0.67943 0.19023 0.0673 0.0
C1628 C 0.6661 0.18324 0.03443 0.0
C1629 C 0.66721 0.16265 0.03823 0.0
C1630 C 0.6735 0.15608 0.05703 0.0
C1631 C 0.67973 0.16973 0.07135 0.0
H1632 H 0.35043 0.89333 0.26318 0.0
H1633 H 0.38618 0.93418 0.22866 0.0
H1634 H 0.37723 0.89112 0.28805 0.0
H1635 H 0.41287 0.93166 0.25302 0.0
H1636 H 0.46136 0.91879 0.29654 0.0
H1637 H 0.43771 0.90775 0.27087 0.0
H1638 H 0.3888 0.92093 0.31053 0.0
H1639 H 0.41224 0.93224 0.33581 0.0
C1640 C 0.36421 0.90135 0.26067 0.0
C1641 C 0.36627 0.91411 0.24425 0.0
C1642 C 0.37947 0.90009 0.27482 0.0
C1643 C 0.39709 0.91117 0.27235 0.0
C1644 C 0.39958 0.92277 0.25515 0.0
C1645 C 0.38423 0.92437 0.24133 0.0
C1646 C 0.44557 0.91887 0.29983 0.0
C1647 C 0.43851 0.92656 0.31793 0.0
C1648 C 0.4321 0.91255 0.28523 0.0
C1649 C 0.41148 0.91345 0.28881 0.0
C1650 C 0.4046 0.91982 0.30749 0.0
C1651 C 0.418 0.92649 0.32186 0.0
H1652 H 0.18097 0.34886 1.00688 0.0
H1653 H 0.16951 0.3849 0.95499 0.0
H1654 H 0.1718 0.3768 0.02837 0.0
H1655 H 0.15889 0.41235 0.97615 0.0
H1656 H 0.17974 0.46319 1.0169 0.0
H1657 H 0.17692 0.43493 0.9948 0.0
H1658 H 0.14986 0.40045 0.04209 0.0
H1659 H 0.15365 0.42872 0.06461 0.0
C1660 C 0.17577 0.36256 1.00016 0.0
C1661 C 0.1762 0.365 0.97945 0.0
C1662 C 0.17039 0.37857 1.0124 0.0
C1663 C 0.16496 0.39706 1.00401 0.0
C1664 C 0.16361 0.39862 0.98316 0.0
C1665 C 0.16953 0.38287 0.97102 0.0
C1666 C 0.17279 0.44975 1.0225 0.0
C1667 C 0.16727 0.44807 0.04259 0.0
C1668 C 0.17102 0.43346 1.00974 0.0
C1669 C 0.16336 0.4152 1.01667 0.0
C1670 C 0.15627 0.4141 0.03637 0.0
C1671 C 0.15829 0.43036 0.04923 0.0
H1672 H 0.59883 0.63872 0.30718 0.0
H1673 H 0.63501 0.59027 0.32901 0.0
H1674 H 0.62734 0.65101 0.28765 0.0
H1675 H 0.66308 0.60237 0.30983 0.0
H1676 H 0.71523 0.63183 0.28649 0.0
H1677 H 0.68649 0.63105 0.30871 0.0
H1678 H 0.64726 0.63835 0.25829 0.0
H1679 H 0.67588 0.63952 0.23611 0.0
C1680 C 0.61283 0.63075 0.30777 0.0
C1681 C 0.61476 0.61355 0.3195 0.0
C1682 C 0.6291 0.6378 0.29672 0.0
C1683 C 0.64752 0.62787 0.29755 0.0
C1684 C 0.64927 0.61067 0.3093 0.0
C1685 C 0.63308 0.60358 0.32009 0.0
C1686 C 0.70052 0.63388 0.2802 0.0
C1687 C 0.6978 0.63513 0.2595 0.0
C1688 C 0.68407 0.63336 0.29291 0.0
C1689 C 0.66465 0.63409 0.28512 0.0
C1690 C 0.66204 0.63768 0.2647 0.0
C1691 C 0.67849 0.63826 0.25199 0.0
H1692 H 0.89091 0.12322 0.06535 0.0
H1693 H 0.88071 0.08424 1.01505 0.0
H1694 H 0.88917 0.152 0.04343 0.0
H1695 H 0.87933 0.11314 0.99309 0.0
H1696 H 0.83799 0.16503 0.97521 0.0
H1697 H 0.85059 0.1368 0.99382 0.0
H1698 H 0.90083 0.17189 1.01344 0.0
H1699 H 0.88805 0.20054 0.9945 0.0
C1700 C 0.88899 0.12072 0.04952 0.0
C1701 C 0.88528 0.1015 0.04199 0.0
C1702 C 0.88808 0.13726 0.03695 0.0
C1703 C 0.88358 0.13479 1.01669 0.0
C1704 C 0.88235 0.11543 1.00879 0.0
C1705 C 0.88321 0.09889 1.02134 0.0
C1706 C 0.85173 0.16678 0.98348 0.0
C1707 C 0.86204 0.18494 0.9835 0.0
C1708 C 0.8591 0.15051 0.99391 0.0
C1709 C 0.87692 0.15203 1.00472 0.0
C1710 C 0.88714 0.17032 1.00506 0.0
C1711 C 0.87981 0.18667 0.99437 0.0
H1712 H 0.31242 0.37087 0.14787 0.0
H1713 H 0.26599 0.33658 0.11947 0.0
H1714 H 0.28977 0.39905 0.15107 0.0
H1715 H 0.24377 0.36479 0.12167 0.0
H1716 H 0.20361 0.41479 0.12865 0.0
H1717 H 0.22436 0.38705 0.13918 0.0
H1718 H 0.27691 0.42303 0.12915 0.0
H1719 H 0.25578 0.45122 0.1201 0.0
C1720 C 0.29727 0.36926 0.14259 0.0
C1721 C 0.29103 0.35162 0.1332 0.0
C1722 C 0.28434 0.38547 0.14426 0.0
C1723 C 0.26499 0.38441 0.13635 0.0
C1724 C 0.25842 0.36621 0.1282 0.0
C1725 C 0.27124 0.34995 0.12682 0.0
C1726 C 0.21961 0.41682 0.12921 0.0
C1727 C 0.22824 0.43491 0.12342 0.0
C1728 C 0.23152 0.4009 0.13508 0.0
C1729 C 0.25238 0.40254 0.13456 0.0
C1730 C 0.26093 0.42118 0.12992 0.0
C1731 C 0.24889 0.43734 0.12461 0.0
H1732 H 0.26602 0.71339 0.4316 0.0
H1733 H 0.31316 0.67874 0.40488 0.0
H1734 H 0.24394 0.68499 0.42956 0.0
H1735 H 0.29069 0.65039 0.4018 0.0
H1736 H 0.25591 0.59841 0.43207 0.0
H1737 H 0.27726 0.62661 0.42348 0.0
H1738 H 0.22495 0.66244 0.41201 0.0
H1739 H 0.20396 0.63468 0.42209 0.0
C1740 C 0.27147 0.69987 0.42466 0.0
C1741 C 0.29138 0.69821 0.41867 0.0
C1742 C 0.25874 0.68351 0.42337 0.0
C1743 C 0.26553 0.66518 0.41569 0.0
C1744 C 0.28507 0.66406 0.40824 0.0
C1745 C 0.2979 0.68038 0.40983 0.0
C1746 C 0.24913 0.61225 0.42732 0.0
C1747 C 0.22844 0.61461 0.42794 0.0
C1748 C 0.2613 0.62842 0.42229 0.0
C1749 C 0.25286 0.64704 0.41738 0.0
C1750 C 0.23202 0.64862 0.41633 0.0
C1751 C 0.21997 0.63268 0.42192 0.0
H1752 H 0.96111 0.5341 0.87134 0.0
H1753 H 0.92633 0.4861 0.89638 0.0
H1754 H 0.9327 0.55607 0.87386 0.0
H1755 H 0.89793 0.50843 0.89986 0.0
H1756 H 0.84654 0.54428 0.86948 0.0
H1757 H 0.87444 0.52257 0.8781 0.0
H1758 H 0.91008 0.57442 0.89224 0.0
H1759 H 0.88265 0.59581 0.88217 0.0
C1760 C 0.94755 0.52842 0.87799 0.0
C1761 C 0.94587 0.50833 0.88339 0.0
C1762 C 0.93118 0.54108 0.87957 0.0
C1763 C 0.91283 0.53403 0.88692 0.0
C1764 C 0.91165 0.51426 0.89372 0.0
C1765 C 0.92798 0.50151 0.89187 0.0
C1766 C 0.86024 0.55086 0.8749 0.0
C1767 C 0.8627 0.57156 0.87503 0.0
C1768 C 0.87624 0.53849 0.87992 0.0
C1769 C 0.89474 0.54674 0.88552 0.0
C1770 C 0.89634 0.56753 0.88739 0.0
C1771 C 0.88059 0.5798 0.88184 0.0
H1772 H 0.8378 0.92484 0.4082 0.0
H1773 H 0.78849 0.95702 0.43376 0.0
H1774 H 0.81559 0.89773 0.39881 0.0
H1775 H 0.76624 0.92942 0.42547 0.0
H1776 H 0.72884 0.8776 0.40861 0.0
H1777 H 0.74937 0.90708 0.4035 0.0
H1778 H 0.80162 0.87305 0.41944 0.0
H1779 H 0.78123 0.84358 0.42387 0.0
C1780 C 0.82203 0.92627 0.41129 0.0
C1781 C 0.81473 0.94284 0.42168 0.0
C1782 C 0.80935 0.91067 0.40615 0.0
C1783 C 0.78923 0.91111 0.41186 0.0
C1784 C 0.78162 0.92858 0.42073 0.0
C1785 C 0.79431 0.94443 0.42549 0.0
C1786 C 0.74479 0.87633 0.41059 0.0
C1787 C 0.75341 0.85832 0.41692 0.0
C1788 C 0.75653 0.89327 0.40776 0.0
C1789 C 0.77712 0.89257 0.41125 0.0
C1790 C 0.78585 0.87418 0.41633 0.0
C1791 C 0.77413 0.85722 0.41902 0.0
H1792 H 0.70045 0.49524 0.38957 0.0
H1793 H 0.66266 0.46906 0.34457 0.0
H1794 H 0.67215 0.51521 0.40155 0.0
H1795 H 0.63483 0.48872 0.35626 0.0
H1796 H 0.5836 0.51528 0.38403 0.0
H1797 H 0.61208 0.49278 0.38452 0.0
H1798 H 0.65192 0.54317 0.38795 0.0
H1799 H 0.62355 0.56562 0.38803 0.0
C1800 C 0.68613 0.49375 0.38232 0.0
C1801 C 0.68372 0.48075 0.36611 0.0
C1802 C 0.66997 0.50507 0.38918 0.0
C1803 C 0.65118 0.50329 0.38006 0.0
C1804 C 0.64892 0.49009 0.36398 0.0
C1805 C 0.66498 0.47901 0.35708 0.0
C1806 C 0.5984 0.52152 0.3855 0.0
C1807 C 0.60134 0.54221 0.38542 0.0
C1808 C 0.61471 0.50865 0.3857 0.0
C1809 C 0.63423 0.51626 0.38569 0.0
C1810 C 0.63708 0.53685 0.38789 0.0
C1811 C 0.62076 0.54973 0.38783 0.0
H1812 H 0.34532 0.63355 0.63214 0.0
H1813 H 0.29385 0.59729 0.6196 0.0
H1814 H 0.3239 0.66084 0.6426 0.0
H1815 H 0.27213 0.62507 0.6286 0.0
H1816 H 0.23552 0.67682 0.64683 0.0
H1817 H 0.25797 0.64854 0.65049 0.0
H1818 H 0.30548 0.68343 0.62441 0.0
H1819 H 0.28343 0.71169 0.62174 0.0
C1820 C 0.32932 0.63143 0.63189 0.0
C1821 C 0.3211 0.61354 0.62499 0.0
C1822 C 0.31704 0.64709 0.63769 0.0
C1823 C 0.29625 0.64543 0.63597 0.0
C1824 C 0.28804 0.62692 0.63029 0.0
C1825 C 0.30043 0.61099 0.62504 0.0
C1826 C 0.25092 0.67854 0.64237 0.0
C1827 C 0.25765 0.69639 0.63375 0.0
C1828 C 0.26375 0.66227 0.64431 0.0
C1829 C 0.28351 0.6635 0.63749 0.0
C1830 C 0.29049 0.68186 0.63011 0.0
C1831 C 0.27776 0.69815 0.62843 0.0
H1832 H 0.95014 0.53734 0.64433 0.0
H1833 H 0.9127 0.57391 0.68166 0.0
H1834 H 0.92338 0.51253 0.64193 0.0
H1835 H 0.88613 0.54941 0.67926 0.0
H1836 H 0.83847 0.5046 0.66811 0.0
H1837 H 0.86205 0.53017 0.65668 0.0
H1838 H 0.91109 0.49124 0.67123 0.0
H1839 H 0.88772 0.46607 0.68282 0.0
C1840 C 0.93601 0.54032 0.65146 0.0
C1841 C 0.93347 0.55734 0.6633 0.0
C1842 C 0.92076 0.52616 0.65016 0.0
C1843 C 0.90271 0.5291 0.66042 0.0
C1844 C 0.89976 0.54687 0.671 0.0
C1845 C 0.91505 0.56078 0.67255 0.0
C1846 C 0.85428 0.50145 0.66841 0.0
C1847 C 0.86139 0.48359 0.67654 0.0
C1848 C 0.86772 0.516 0.66188 0.0
C1849 C 0.88836 0.51262 0.66305 0.0
C1850 C 0.89528 0.49415 0.6699 0.0
C1851 C 0.88192 0.47984 0.67674 0.0
H1852 H 0.16921 0.09355 0.66469 0.0
H1853 H 0.20289 0.04157 0.68139 0.0
H1854 H 0.1416 0.07256 0.65415 0.0
H1855 H 0.17474 1.02035 0.67218 0.0
H1856 H 0.12214 0.98469 0.65475 0.0
H1857 H 0.15122 1.00594 0.65007 0.0
H1858 H 0.11792 0.05603 0.67315 0.0
H1859 H 0.08891 0.03512 0.67697 0.0
C1860 C 0.17074 0.07752 0.66577 0.0
C1861 C 0.18795 0.06906 0.67393 0.0
C1862 C 0.15489 0.06549 0.65991 0.0
C1863 C 0.15566 0.04477 0.66279 0.0
C1864 C 0.1736 0.03622 0.6696 0.0
C1865 C 0.18973 0.04832 0.67496 0.0
C1866 C 0.12091 1.00039 0.65828 0.0
C1867 C 0.10332 1.00817 0.66657 0.0
C1868 C 0.13765 1.01253 0.65576 0.0
C1869 C 0.13712 0.03266 0.66153 0.0
C1870 C 0.11897 0.04069 0.66832 0.0
C1871 C 0.10226 0.02862 0.67067 0.0
H1872 H 0.64373 0.81552 0.87372 0.0
H1873 H 0.61771 0.76755 0.83958 0.0
H1874 H 0.64673 0.79353 0.90245 0.0
H1875 H 0.61979 0.74593 0.86833 0.0
H1876 H 0.62744 0.70677 0.91905 0.0
H1877 H 0.63784 0.72759 0.89124 0.0
H1878 H 0.6245 0.78019 0.92612 0.0
H1879 H 0.61553 0.75904 0.95441 0.0
C1880 C 0.63892 0.80018 0.87227 0.0
C1881 C 0.63028 0.79329 0.85447 0.0
C1882 C 0.64049 0.78763 0.88879 0.0
C1883 C 0.63327 0.768 0.88789 0.0
C1884 C 0.6258 0.76083 0.86962 0.0
C1885 C 0.62449 0.77329 0.85306 0.0
C1886 C 0.62732 0.72282 0.92085 0.0
C1887 C 0.62066 0.73145 0.93864 0.0
C1888 C 0.63308 0.73475 0.90489 0.0
C1889 C 0.63156 0.75559 0.90618 0.0
C1890 C 0.62604 0.76421 0.92457 0.0
C1891 C 0.62081 0.75217 0.94078 0.0
H1892 H 0.96488 0.15003 0.37274 0.0
H1893 H 1.01161 0.18184 0.3423 0.0
H1894 H 0.98773 0.14171 0.39966 0.0
H1895 H 0.03437 0.17457 0.36971 0.0
H1896 H 0.07232 0.16105 0.42205 0.0
H1897 H 0.05317 0.15403 0.392 0.0
H1898 H 0.99869 0.16355 0.42501 0.0
H1899 H 1.01775 0.16993 0.455 0.0
C1900 C 0.9803 0.15464 0.37156 0.0
C1901 C 0.9866 0.16656 0.35562 0.0
C1902 C 0.99331 0.15012 0.38707 0.0
C1903 C 1.01271 0.15797 0.38717 0.0
C1904 C 1.01956 0.16821 0.37014 0.0
C1905 C 1.00658 0.17237 0.35437 0.0
C1906 C 0.05622 0.16122 0.42296 0.0
C1907 C 0.04652 0.16633 0.44084 0.0
C1908 C 0.04527 0.15727 0.4057 0.0
C1909 C 1.0244 0.15838 0.40598 0.0
C1910 C 1.01473 0.16226 0.42422 0.0
C1911 C 0.02567 0.1661 0.44146 0.0
H1912 H 0.42411 0.84517 0.91861 0.0
H1913 H 0.43478 0.79286 0.95423 0.0
H1914 H 0.41336 0.82442 0.89088 0.0
H1915 H 0.42549 0.77175 0.92601 0.0
H1916 H 0.40555 0.73648 0.87384 0.0
H1917 H 0.40309 0.7587 0.90248 0.0
H1918 H 0.43077 0.80558 0.86795 0.0
H1919 H 0.43226 0.78376 0.8393 0.0
C1920 C 0.42392 0.82913 0.92047 0.0
C1921 C 0.43032 0.82046 0.93832 0.0
C1922 C 0.41795 0.81723 0.90456 0.0
C1923 C 0.419 0.79637 0.90595 0.0
C1924 C 0.4243 0.78774 0.92438 0.0
C1925 C 0.42972 0.79976 0.94055 0.0
C1926 C 0.41063 0.75172 0.87229 0.0
C1927 C 0.41928 0.75835 0.8544 0.0
C1928 C 0.40938 0.7644 0.88876 0.0
C1929 C 0.41697 0.78389 0.88772 0.0
C1930 C 0.42447 0.79081 0.86936 0.0
C1931 C 0.42544 0.77823 0.85285 0.0
H1932 H 1.0133 0.37203 0.44919 0.0
H1933 H 0.97249 0.40224 0.40969 0.0
H1934 H 0.0388 0.37325 0.42388 0.0
H1935 H 0.99856 0.40423 0.38432 0.0
H1936 H 0.04009 0.37215 0.33741 0.0
H1937 H 1.01479 0.38154 0.362 0.0
H1938 H 0.06119 0.39231 0.40539 0.0
H1939 H 0.08602 0.38164 0.38124 0.0
C1940 C 1.00991 0.3794 0.43524 0.0
C1941 C 0.99079 0.38685 0.43139 0.0
C1942 C 1.02466 0.38027 0.42069 0.0
C1943 C 1.02079 0.38885 0.40196 0.0
C1944 C 1.00196 0.39729 0.39847 0.0
C1945 C 0.98708 0.39629 0.41307 0.0
C1946 C 0.04475 0.377 0.35209 0.0
C1947 C 0.0648 0.37599 0.35766 0.0
C1948 C 0.03033 0.38244 0.36617 0.0
C1949 C 0.03593 0.38727 0.38585 0.0
C1950 C 0.05628 0.38808 0.39061 0.0
C1951 C 0.07053 0.38215 0.37676 0.0
H1952 H 0.64721 0.23789 0.68038 0.0
H1953 H 0.61936 0.28466 0.71471 0.0
H1954 H 0.65081 0.26058 0.65224 0.0
H1955 H 0.62199 0.30694 0.68655 0.0
H1956 H 0.62913 0.347 0.63659 0.0
H1957 H 0.63981 0.32613 0.66422 0.0
H1958 H 0.62883 0.27365 0.62835 0.0
H1959 H 0.6196 0.29488 0.60026 0.0
C1960 C 0.64214 0.25312 0.68201 0.0
C1961 C 0.63275 0.25945 0.69964 0.0
C1962 C 0.64405 0.26607 0.66583 0.0
C1963 C 0.63641 0.28553 0.66691 0.0
C1964 C 0.62832 0.29219 0.68511 0.0
C1965 C 0.62668 0.27935 0.70134 0.0
C1966 C 0.62953 0.33099 0.63455 0.0
C1967 C 0.62339 0.3224 0.61655 0.0
C1968 C 0.63549 0.31901 0.6504 0.0
C1969 C 0.63471 0.29815 0.64877 0.0
C1970 C 0.62979 0.28964 0.63017 0.0
C1971 C 0.62438 0.30173 0.61408 0.0
H1972 H 0.54472 0.18101 0.70175 0.0
H1973 H 0.59685 0.17258 0.66522 0.0
H1974 H 0.52354 0.17225 0.67347 0.0
H1975 H 0.57606 0.16232 0.63737 0.0
H1976 H 0.53448 0.18159 0.58674 0.0
H1977 H 0.55668 0.17962 0.61503 0.0
H1978 H 0.51055 0.15057 0.64947 0.0
H1979 H 0.48795 0.15358 0.62124 0.0
C1980 C 0.55159 0.17656 0.68782 0.0
C1981 C 0.57225 0.17767 0.68542 0.0
C1982 C 0.53953 0.17143 0.6716 0.0
C1983 C 0.54805 0.1669 0.6529 0.0
C1984 C 0.56891 0.16635 0.65126 0.0
C1985 C 0.58085 0.17203 0.66725 0.0
C1986 C 0.52921 0.17437 0.60018 0.0
C1987 C 0.5094 0.16801 0.60186 0.0
C1988 C 0.542 0.17312 0.61649 0.0
C1989 C 0.5354 0.16512 0.63476 0.0
C1990 C 0.51602 0.15727 0.63585 0.0
C1991 C 0.50311 0.15883 0.6196 0.0
H1992 H 0.42197 0.20437 0.63556 0.0
H1993 H 0.43198 0.25604 0.59877 0.0
H1994 H 0.41215 0.22563 0.66323 0.0
H1995 H 0.42365 0.27765 0.62689 0.0
H1996 H 0.40518 0.31399 0.67893 0.0
H1997 H 0.40219 0.29137 0.65067 0.0
H1998 H 0.42973 0.24476 0.6856 0.0
H1999 H 0.43166 0.267 0.71392 0.0
C2000 C 0.42186 0.22037 0.63343 0.0
C2001 C 0.42781 0.22869 0.61523 0.0
C2002 C 0.41643 0.23258 0.64932 0.0
C2003 C 0.41756 0.25342 0.64757 0.0
C2004 C 0.4224 0.26169 0.62884 0.0
C2005 C 0.42728 0.24937 0.61271 0.0
C2006 C 0.41012 0.29874 0.68065 0.0
C2007 C 0.41882 0.2923 0.69857 0.0
C2008 C 0.40858 0.28581 0.66439 0.0
C2009 C 0.41596 0.26625 0.66563 0.0
C2010 C 0.42358 0.25957 0.68402 0.0
C2011 C 0.42481 0.27238 0.70034 0.0
H2012 H 0.50657 0.36969 0.70408 0.0
H2013 H 0.45494 0.38233 0.66817 0.0
H2014 H 0.52816 0.37867 0.67614 0.0
H2015 H 0.47622 0.39275 0.64072 0.0
H2016 H 0.51641 0.37142 0.58964 0.0
H2017 H 0.49448 0.37439 0.61802 0.0
H2018 H 0.54222 0.40052 0.65253 0.0
H2019 H 0.56455 0.39659 0.62412 0.0
C2020 C 0.49994 0.37515 0.69042 0.0
C2021 C 0.47925 0.37512 0.68801 0.0
C2022 C 0.51224 0.38039 0.67441 0.0
C2023 C 0.50394 0.38608 0.65595 0.0
C2024 C 0.48315 0.38784 0.65443 0.0
C2025 C 0.47094 0.38206 0.67018 0.0
C2026 C 0.52215 0.37819 0.60312 0.0
C2027 C 0.54229 0.38342 0.60474 0.0
C2028 C 0.5095 0.38005 0.61947 0.0
C2029 C 0.51659 0.38751 0.63777 0.0
C2030 C 0.53636 0.39428 0.63885 0.0
C2031 C 0.54912 0.39218 0.62251 0.0
H2032 H 0.87465 0.6452 0.82081 0.0
H2033 H 0.84158 0.62804 0.76829 0.0
H2034 H 0.90407 0.65106 0.80038 0.0
H2035 H 0.87098 0.6334 0.74801 0.0
H2036 H 0.92242 0.64583 0.71206 0.0
H2037 H 0.89527 0.65517 0.73424 0.0
H2038 H 0.92682 0.6287 0.78374 0.0
H2039 H 0.95442 0.62029 0.76149 0.0
C2040 C 0.87354 0.64301 0.80486 0.0
C2041 C 0.85586 0.63585 0.79618 0.0
C2042 C 0.89045 0.64629 0.79318 0.0
C2043 C 0.89 0.64251 0.7726 0.0
C2044 C 0.87187 0.6367 0.76378 0.0
C2045 C 0.85497 0.63348 0.77544 0.0
C2046 C 0.92383 0.64277 0.72786 0.0
C2047 C 0.94032 0.6323 0.73518 0.0
C2048 C 0.90822 0.64792 0.74051 0.0
C2049 C 0.90861 0.64221 0.76064 0.0
C2050 C 0.92605 0.63341 0.76832 0.0
C2051 C 0.9419 0.62858 0.75564 0.0
H2052 H 0.86402 0.91663 0.47989 0.0
H2053 H 0.90988 0.94912 0.51117 0.0
H2054 H 0.86734 0.8891 0.5032 0.0
H2055 H 0.91292 0.92145 0.53504 0.0
H2056 H 0.87377 0.88739 0.58539 0.0
H2057 H 0.88472 0.91082 0.55994 0.0
H2058 H 0.89134 0.86239 0.51808 0.0
H2059 H 0.88072 0.8387 0.54395 0.0
C2060 C 0.87505 0.9177 0.49163 0.0
C2061 C 0.88652 0.93502 0.49398 0.0
C2062 C 0.87711 0.90185 0.50481 0.0
C2063 C 0.89042 0.90315 0.52084 0.0
C2064 C 0.90262 0.92011 0.52269 0.0
C2065 C 0.90087 0.93588 0.50914 0.0
C2066 C 0.8781 0.88169 0.57091 0.0
C2067 C 0.87625 0.86136 0.56645 0.0
C2068 C 0.88455 0.89507 0.55642 0.0
C2069 C 0.88887 0.88839 0.53709 0.0
C2070 C 0.88815 0.86784 0.53294 0.0
C2071 C 0.88209 0.85434 0.54766 0.0
H2072 H 0.13888 0.95644 0.71925 0.0
H2073 H 0.10051 0.912 0.74555 0.0
H2074 H 0.16653 0.94457 0.73906 0.0
H2075 H 0.12861 0.89982 0.76561 0.0
H2076 H 0.17655 0.91339 0.81646 0.0
H2077 H 0.14853 0.91332 0.7936 0.0
H2078 H 0.18911 0.91646 0.74372 0.0
H2079 H 0.21725 0.91711 0.76667 0.0
C2080 C 0.13641 0.94401 0.72924 0.0
C2081 C 0.11755 0.93522 0.73102 0.0
C2082 C 0.15235 0.937 0.7404 0.0
C2083 C 0.14986 0.92104 0.75369 0.0
C2084 C 0.13097 0.9121 0.75543 0.0
C2085 C 0.11492 0.91909 0.74405 0.0
C2086 C 0.17957 0.91348 0.8006 0.0
C2087 C 0.19909 0.91589 0.79336 0.0
C2088 C 0.16346 0.91334 0.78748 0.0
C2089 C 0.16661 0.91543 0.76691 0.0
C2090 C 0.18624 0.91537 0.75958 0.0
C2091 C 0.20236 0.91567 0.7727 0.0
H2092 H 0.18082 0.58628 0.53488 0.0
H2093 H 0.15369 0.62064 0.48776 0.0
H2094 H 0.1783 0.61456 0.55708 0.0
H2095 H 0.15021 0.64888 0.51034 0.0
H2096 H 0.18093 0.70084 0.5452 0.0
H2097 H 0.17207 0.67274 0.52376 0.0
H2098 H 0.16025 0.63689 0.57607 0.0
H2099 H 0.17055 0.66452 0.59715 0.0
C2100 C 0.17369 0.59969 0.52946 0.0
C2101 C 0.16774 0.60134 0.50951 0.0
C2102 C 0.17212 0.61598 0.54225 0.0
C2103 C 0.16423 0.6342 0.53549 0.0
C2104 C 0.15679 0.63527 0.51593 0.0
C2105 C 0.15863 0.61903 0.50304 0.0
C2106 C 0.17604 0.68702 0.55196 0.0
C2107 C 0.17666 0.68457 0.57266 0.0
C2108 C 0.17085 0.67092 0.53975 0.0
C2109 C 0.1658 0.65233 0.54817 0.0
C2110 C 0.16468 0.65071 0.56903 0.0
C2111 C 0.1704 0.66656 0.58113 0.0
H2112 H 0.83935 0.42928 0.78447 0.0
H2113 H 0.87447 0.40683 0.7354 0.0
H2114 H 0.86761 0.42574 0.80646 0.0
H2115 H 0.90273 0.40231 0.75771 0.0
H2116 H 0.95341 0.43244 0.79496 0.0
H2117 H 0.92586 0.42383 0.77284 0.0
H2118 H 0.89042 0.40682 0.82401 0.0
H2119 H 0.9175 0.4169 0.8459 0.0
C2120 C 0.85295 0.42298 0.77852 0.0
C2121 C 0.85479 0.41865 0.75817 0.0
C2122 C 0.86923 0.42079 0.79119 0.0
C2123 C 0.88764 0.4139 0.78386 0.0
C2124 C 0.88895 0.40808 0.76377 0.0
C2125 C 0.87271 0.41054 0.75102 0.0
C2126 C 0.93986 0.42638 0.8013 0.0
C2127 C 0.93731 0.4255 0.82198 0.0
C2128 C 0.92406 0.42136 0.78868 0.0
C2129 C 0.90568 0.415 0.79665 0.0
C2130 C 0.90407 0.41227 0.81736 0.0
C2131 C 0.91961 0.41784 0.82991 0.0
H2132 H 0.66809 0.83909 0.50574 0.0
H2133 H 0.67965 0.88767 0.46523 0.0
H2134 H 0.65726 0.86309 0.53124 0.0
H2135 H 0.66853 0.91142 0.49031 0.0
H2136 H 0.64172 0.95053 0.5373 0.0
H2137 H 0.63931 0.92307 0.51313 0.0
H2138 H 0.68084 0.88874 0.54819 0.0
H2139 H 0.68349 0.91605 0.57189 0.0
C2140 C 0.66778 0.85481 0.50215 0.0
C2141 C 0.67489 0.86165 0.48373 0.0
C2142 C 0.66158 0.86849 0.51665 0.0
C2143 C 0.66201 0.88907 0.51266 0.0
C2144 C 0.66779 0.89566 0.49369 0.0
C2145 C 0.67434 0.88209 0.47943 0.0
C2146 C 0.64992 0.93691 0.53998 0.0
C2147 C 0.66299 0.93542 0.55621 0.0
C2148 C 0.64855 0.92126 0.52623 0.0
C2149 C 0.65986 0.90381 0.52888 0.0
C2150 C 0.67177 0.90189 0.54591 0.0
C2151 C 0.67346 0.91761 0.55934 0.0
H2152 H 0.13671 0.09182 0.83216 0.0
H2153 H 0.09871 0.13691 0.80656 0.0
H2154 H 0.16402 0.1027 0.81125 0.0
H2155 H 0.12646 0.14803 0.78534 0.0
H2156 H 0.17276 0.13322 0.73332 0.0
H2157 H 0.14525 0.13308 0.75686 0.0
H2158 H 0.18696 0.13084 0.80577 0.0
H2159 H 0.21461 0.13055 0.78218 0.0
C2160 C 0.13425 0.10418 0.82209 0.0
C2161 C 0.1156 0.11347 0.82086 0.0
C2162 C 0.15 0.11059 0.81028 0.0
C2163 C 0.14748 0.12642 0.79686 0.0
C2164 C 0.1288 0.13584 0.79563 0.0
C2165 C 0.11297 0.12947 0.80767 0.0
C2166 C 0.17613 0.13318 0.7491 0.0
C2167 C 0.19585 0.13132 0.75589 0.0
C2168 C 0.16032 0.13324 0.7626 0.0
C2169 C 0.16396 0.13153 0.78311 0.0
C2170 C 0.18374 0.13174 0.78997 0.0
C2171 C 0.19957 0.13164 0.77648 0.0
H2172 H 0.36861 0.70249 0.50687 0.0
H2173 H 0.37983 0.66631 0.45498 0.0
H2174 H 0.37738 0.67447 0.52836 0.0
H2175 H 0.39008 0.63875 0.47613 0.0
H2176 H 0.37031 0.58766 0.51704 0.0
H2177 H 0.37248 0.61602 0.49491 0.0
H2178 H 0.39913 0.65097 0.54209 0.0
H2179 H 0.39592 0.62266 0.56458 0.0
C2180 C 0.37369 0.68873 0.50014 0.0
C2181 C 0.37335 0.68631 0.47943 0.0
C2182 C 0.37882 0.67266 0.51239 0.0
C2183 C 0.3841 0.6541 0.50401 0.0
C2184 C 0.38546 0.65251 0.48315 0.0
C2185 C 0.37979 0.66834 0.47101 0.0
C2186 C 0.37703 0.60125 0.52257 0.0
C2187 C 0.38266 0.60303 0.5426 0.0
C2188 C 0.3784 0.61759 0.50982 0.0
C2189 C 0.38579 0.636 0.51671 0.0
C2190 C 0.39291 0.63723 0.53638 0.0
C2191 C 0.39123 0.62094 0.54923 0.0
H2192 H 0.76056 0.95835 0.61698 0.0
H2193 H 0.71236 0.92617 0.64462 0.0
H2194 H 0.78328 0.93108 0.62491 0.0
H2195 H 0.73507 0.89938 0.65362 0.0
H2196 H 0.76865 0.8453 0.62727 0.0
H2197 H 0.74834 0.8747 0.63238 0.0
H2198 H 0.80099 0.90897 0.64654 0.0
H2199 H 0.82143 0.87956 0.64078 0.0
C2200 C 0.75512 0.94587 0.62566 0.0
C2201 C 0.73484 0.94415 0.63014 0.0
C2202 C 0.76807 0.9302 0.6302 0.0
C2203 C 0.76087 0.91279 0.63952 0.0
C2204 C 0.74097 0.91229 0.64595 0.0
C2205 C 0.72802 0.9277 0.64103 0.0
C2206 C 0.77587 0.85898 0.63186 0.0
C2207 C 0.79665 0.86017 0.63329 0.0
C2208 C 0.7642 0.87589 0.63495 0.0
C2209 C 0.77304 0.89431 0.63975 0.0
C2210 C 0.79374 0.89512 0.64253 0.0
C2211 C 0.80543 0.87823 0.63932 0.0
H2212 H 0.8184 0.1775 0.9067 0.0
H2213 H 0.7644 0.20768 0.92441 0.0
H2214 H 0.79925 0.14751 0.89926 0.0
H2215 H 0.74541 0.17778 0.91729 0.0
H2216 H 0.71163 0.12592 0.90228 0.0
H2217 H 0.73325 0.15378 0.8937 0.0
H2218 H 0.78284 0.12346 0.92127 0.0
H2219 H 0.76118 0.0952 0.92905 0.0
C2220 C 0.80239 0.1779 0.90857 0.0
C2221 C 0.79292 0.19488 0.91643 0.0
C2222 C 0.79146 0.16066 0.9044 0.0
C2223 C 0.77085 0.16015 0.90783 0.0
C2224 C 0.76124 0.17766 0.91425 0.0
C2225 C 0.77215 0.19482 0.91848 0.0
C2226 C 0.72736 0.1249 0.90569 0.0
C2227 C 0.73482 0.10859 0.91638 0.0
C2228 C 0.73969 0.14091 0.90097 0.0
C2229 C 0.75961 0.14109 0.90728 0.0
C2230 C 0.76756 0.12379 0.91613 0.0
C2231 C 0.75522 0.10756 0.92057 0.0
H2232 H 0.34663 0.04389 0.3692 0.0
H2233 H 0.38227 0.09513 0.38425 0.0
H2234 H 0.37433 1.02202 0.37792 0.0
H2235 H 0.40948 0.07351 0.39445 0.0
H2236 H 0.46098 0.03389 0.37301 0.0
H2237 H 0.43261 0.05584 0.37615 0.0
H2238 H 0.39736 1.00719 0.39952 0.0
H2239 H 0.4257 0.98494 0.39534 0.0
C2240 C 0.36016 0.05035 0.37516 0.0
C2241 C 0.36257 0.07104 0.3759 0.0
C2242 C 0.37605 0.03788 0.38025 0.0
C2243 C 0.39439 0.046 0.38654 0.0
C2244 C 0.39588 0.06673 0.38906 0.0
C2245 C 0.38025 0.07913 0.38343 0.0
C2246 C 0.44731 0.02797 0.37921 0.0
C2247 C 0.44546 1.00765 0.38359 0.0
C2248 C 0.43097 0.04061 0.38116 0.0
C2249 C 0.41248 0.03329 0.38789 0.0
C2250 C 0.41117 1.01325 0.39383 0.0
C2251 C 0.42747 1.00053 0.39158 0.0
H2252 H 0.29383 0.45324 0.93208 0.0
H2253 H 0.34548 0.41687 0.92084 0.0
H2254 H 0.27225 0.4253 0.92321 0.0
H2255 H 0.32423 0.3894 0.91047 0.0
H2256 H 0.28337 0.33859 0.9307 0.0
H2257 H 0.30547 0.36688 0.92831 0.0
H2258 H 0.25838 0.40167 0.9015 0.0
H2259 H 0.23586 0.37338 0.90491 0.0
C2260 C 0.30049 0.43946 0.92696 0.0
C2261 C 0.32116 0.43696 0.92733 0.0
C2262 C 0.28818 0.42344 0.92178 0.0
C2263 C 0.29647 0.40486 0.91647 0.0
C2264 C 0.31729 0.4032 0.9151 0.0
C2265 C 0.32949 0.41897 0.92084 0.0
C2266 C 0.27782 0.35212 0.9239 0.0
C2267 C 0.2578 0.35384 0.91829 0.0
C2268 C 0.29057 0.36843 0.92239 0.0
C2269 C 0.28372 0.38678 0.91488 0.0
C2270 C 0.26406 0.38797 0.90779 0.0
C2271 C 0.2512 0.37169 0.90958 0.0
H2272 H 0.20068 0.9943 0.89045 0.0
H2273 H 0.16348 0.96992 0.84395 0.0
H2274 H 0.17234 1.01415 0.90254 0.0
H2275 H 0.1356 0.98948 0.85578 0.0
H2276 H 0.08406 1.01507 0.88444 0.0
H2277 H 0.11251 0.99253 0.88413 0.0
H2278 H 0.15242 0.04271 0.88939 0.0
H2279 H 0.12408 0.06519 0.89017 0.0
C2280 C 0.18648 0.99318 0.88289 0.0
C2281 C 0.18424 0.98068 0.86626 0.0
C2282 C 0.1703 1.00443 0.88981 0.0
C2283 C 0.15166 1.0031 0.88032 0.0
C2284 C 0.14958 0.99046 0.86377 0.0
C2285 C 0.16566 0.97944 0.85682 0.0
C2286 C 0.09886 1.02125 0.88613 0.0
C2287 C 0.10184 0.04193 0.88675 0.0
C2288 C 0.11516 1.00836 0.88587 0.0
C2289 C 0.13469 1.01593 0.88619 0.0
C2290 C 0.13756 0.03643 0.88907 0.0
C2291 C 0.12127 0.04932 0.88942 0.0
H2292 H 0.83336 0.13764 0.09455 0.0
H2293 H 0.80645 0.09873 0.13817 0.0
H2294 H 0.813 0.16505 0.10615 0.0
H2295 H 0.78581 0.12656 0.15005 0.0
H2296 H 0.73471 0.17364 0.13576 0.0
H2297 H 0.75799 0.146 0.13554 0.0
H2298 H 0.80717 0.18746 0.1345 0.0
H2299 H 0.78381 0.21528 0.13425 0.0
C2300 C 0.82313 0.135 0.10676 0.0
C2301 C 0.82134 0.11606 0.11539 0.0
C2302 C 0.81164 0.1508 0.11361 0.0
C2303 C 0.79799 0.14805 0.12921 0.0
C2304 C 0.79628 0.1291 0.13803 0.0
C2305 C 0.80798 0.11321 0.13123 0.0
C2306 C 0.75049 0.17693 0.13597 0.0
C2307 C 0.75743 0.19665 0.1344 0.0
C2308 C 0.76384 0.16103 0.13599 0.0
C2309 C 0.78437 0.16457 0.13455 0.0
C2310 C 0.79137 0.18432 0.13516 0.0
C2311 C 0.778 0.20025 0.13508 0.0
H2312 H 0.37662 0.96213 0.15573 0.0
H2313 H 0.34449 1.01119 0.18189 0.0
H2314 H 0.40371 0.98446 0.1466 0.0
H2315 H 0.37206 0.03355 0.17377 0.0
H2316 H 0.42417 0.07098 0.15779 0.0
H2317 H 0.39472 0.05062 0.15191 0.0
H2318 H 0.42813 0.99803 0.16803 0.0
H2319 H 0.45757 1.01824 0.17332 0.0
C2320 C 0.37518 0.97788 0.15899 0.0
C2321 C 0.35865 0.98505 0.16954 0.0
C2322 C 0.39076 0.99063 0.15397 0.0
C2323 C 0.39034 1.01068 0.15993 0.0
C2324 C 0.37288 1.01821 0.16886 0.0
C2325 C 0.35704 1.00546 0.17352 0.0
C2326 C 0.42534 0.055 0.15963 0.0
C2327 C 0.44314 0.04623 0.16632 0.0
C2328 C 0.4084 0.04336 0.15635 0.0
C2329 C 0.40893 1.02272 0.15969 0.0
C2330 C 0.42716 1.01384 0.16506 0.0
C2331 C 0.44408 1.02546 0.16825 0.0
H2332 H 0.58433 0.53625 0.16841 0.0
H2333 H 0.62421 0.48601 0.16328 0.0
H2334 H 0.61281 0.55878 0.16794 0.0
H2335 H 0.65259 0.5085 0.1633 0.0
H2336 H 0.70086 0.5572 0.16228 0.0
H2337 H 0.67261 0.53733 0.1499 0.0
H2338 H 0.63561 0.56143 0.19677 0.0
H2339 H 0.66337 0.58093 0.20891 0.0
C2340 C 0.5991 0.53004 0.16665 0.0
C2341 C 0.60206 0.50936 0.16651 0.0
C2342 C 0.61541 0.54293 0.16644 0.0
C2343 C 0.63491 0.53532 0.16617 0.0
C2344 C 0.63775 0.51478 0.1636 0.0
C2345 C 0.62143 0.50189 0.16369 0.0
C2346 C 0.68662 0.55817 0.1698 0.0
C2347 C 0.68426 0.57048 0.18656 0.0
C2348 C 0.6705 0.54693 0.1627 0.0
C2349 C 0.65182 0.54815 0.17214 0.0
C2350 C 0.64963 0.56058 0.18882 0.0
C2351 C 0.66564 0.57155 0.19596 0.0
H2352 H 0.9959 0.22883 0.25914 0.0
H2353 H 0.98395 0.24613 0.31993 0.0
H2354 H 1.0217 0.25508 0.25709 0.0
H2355 H 1.00928 0.27172 0.31791 0.0
H2356 H 0.07138 0.2976 0.31764 0.0
H2357 H 0.04616 0.27193 0.3157 0.0
H2358 H 0.02672 0.29483 0.25895 0.0
H2359 H 0.05241 0.32118 0.26092 0.0
C2360 C 0.99874 0.23808 0.27205 0.0
C2361 C 0.98769 0.23512 0.28972 0.0
C2362 C 1.01343 0.25328 0.27083 0.0
C2363 C 1.01776 0.26563 0.28737 0.0
C2364 C 1.00665 0.26253 0.30489 0.0
C2365 C 0.99194 0.24774 0.306 0.0
C2366 C 0.06189 0.29736 0.3046 0.0
C2367 C 0.06413 0.31178 0.28947 0.0
C2368 C 0.04723 0.2825 0.30355 0.0
C2369 C 0.03417 0.28115 0.28722 0.0
C2370 C 0.03653 0.29526 0.27174 0.0
C2371 C 0.05119 0.31049 0.27293 0.0
H2372 H 0.51216 0.83259 1.00445 0.0
H2373 H 0.46782 0.79207 0.0272 0.0
H2374 H 0.53747 0.80684 1.00727 0.0
H2375 H 0.49338 0.766 0.02997 0.0
H2376 H 0.53881 0.71899 1.00542 0.0
H2377 H 0.51354 0.74479 1.00796 0.0
H2378 H 0.55779 0.78606 0.02955 0.0
H2379 H 0.58333 0.75992 0.02704 0.0
C2380 C 0.50776 0.81821 1.01027 0.0
C2381 C 0.48772 0.81459 1.01556 0.0
C2382 C 0.52246 0.80337 1.01201 0.0
C2383 C 0.51773 0.78411 1.01884 0.0
C2384 C 0.49773 0.78053 1.0245 0.0
C2385 C 0.48301 0.79557 1.02305 0.0
C2386 C 0.54326 0.73348 1.01094 0.0
C2387 C 0.56334 0.73719 1.016 0.0
C2388 C 0.52858 0.74836 1.01252 0.0
C2389 C 0.53336 0.76774 1.01894 0.0
C2390 C 0.5534 0.77143 1.02439 0.0
C2391 C 0.56811 0.75635 1.02311 0.0
H2392 H 0.98085 0.80078 0.23315 0.0
H2393 H 0.99794 0.82216 0.29136 0.0
H2394 H 1.00569 0.7748 0.23507 0.0
H2395 H 1.02332 0.79553 0.29327 0.0
H2396 H 0.05381 0.72942 0.29197 0.0
H2397 H 0.02828 0.75592 0.29408 0.0
H2398 H 0.04227 0.77375 0.23396 0.0
H2399 H 0.06723 0.7479 0.23185 0.0
C2400 C 0.98989 0.80001 0.2465 0.0
C2401 C 0.98719 0.81392 0.26206 0.0
C2402 C 1.00433 0.78496 0.24754 0.0
C2403 C 1.01678 0.78288 0.26427 0.0
C2404 C 1.01401 0.79651 0.28014 0.0
C2405 C 0.99954 0.81193 0.27898 0.0
C2406 C 0.05134 0.73895 0.27921 0.0
C2407 C 0.06273 0.73623 0.26171 0.0
C2408 C 0.03681 0.75432 0.28047 0.0
C2409 C 0.03299 0.76711 0.26415 0.0
C2410 C 0.04444 0.76424 0.24681 0.0
C2411 C 0.05896 0.74927 0.24565 0.0
H2412 H 0.99953 0.73179 0.06761 0.0
H2413 H 0.97857 0.74868 1.00924 0.0
H2414 H 0.02515 0.75708 0.06602 0.0
H2415 H 1.00489 0.77449 1.00763 0.0
H2416 H 0.07149 0.8045 1.00979 0.0
H2417 H 0.04492 0.77905 1.00742 0.0
H2418 H 0.02559 0.79405 0.06684 0.0
H2419 H 0.0515 0.81903 0.06918 0.0
C2420 C 1.00033 0.7409 0.0543 0.0
C2421 C 0.98669 0.73799 0.03857 0.0
C2422 C 1.01516 0.75558 0.05345 0.0
C2423 C 1.01729 0.76804 0.03674 0.0
C2424 C 1.00386 0.76515 1.02074 0.0
C2425 C 0.98861 0.75045 1.02172 0.0
C2426 C 0.06159 0.8023 1.02234 0.0
C2427 C 0.06391 0.81396 0.03972 0.0
C2428 C 0.0462 0.78781 1.02092 0.0
C2429 C 0.03297 0.78432 0.03697 0.0
C2430 C 0.03543 0.79604 0.05419 0.0
C2431 C 0.05043 0.81053 0.0555 0.0
H2432 H 0.31953 0.98318 0.24948 0.0
H2433 H 0.25969 0.9966 0.23043 0.0
H2434 H 0.31725 1.00824 0.27527 0.0
H2435 H 0.25742 1.02224 0.25686 0.0
H2436 H 0.26 0.05334 0.32293 0.0
H2437 H 0.25808 0.02756 0.2966 0.0
H2438 H 0.31623 0.04491 0.27566 0.0
H2439 H 0.31818 0.07009 0.30133 0.0
C2440 C 0.30575 0.99144 0.25073 0.0
C2441 C 0.28982 0.98766 0.23754 0.0
C2442 C 0.30449 1.00602 0.26566 0.0
C2443 C 0.28719 1.01752 0.26832 0.0
C2444 C 0.27098 1.01366 0.25542 0.0
C2445 C 0.27234 0.99905 0.24011 0.0
C2446 C 0.27236 0.0516 0.31272 0.0
C2447 C 0.28928 0.06397 0.31455 0.0
C2448 C 0.27119 0.0369 0.29747 0.0
C2449 C 0.28705 0.03394 0.28389 0.0
C2450 C 0.30377 0.04641 0.28581 0.0
C2451 C 0.30483 0.06106 0.30068 0.0
H2452 H 0.24584 0.54153 0.07189 0.0
H2453 H 0.23076 0.48246 0.05142 0.0
H2454 H 0.27151 0.54371 0.04549 0.0
H2455 H 0.25589 0.48465 1.0257 0.0
H2456 H 0.31795 0.48267 1.00004 0.0
H2457 H 0.29268 0.48477 1.02561 0.0
H2458 H 0.27678 0.54362 1.00556 0.0
H2459 H 0.30264 0.54154 0.97931 0.0
C2460 C 0.24791 0.52904 0.06189 0.0
C2461 C 0.23604 0.5118 0.06407 0.0
C2462 C 0.26255 0.53035 0.04661 0.0
C2463 C 0.26598 0.51431 0.03334 0.0
C2464 C 0.25399 0.49727 0.03559 0.0
C2465 C 0.23938 0.49607 0.05049 0.0
C2466 C 0.30921 0.4962 1.00086 0.0
C2467 C 0.31254 0.5119 0.98726 0.0
C2468 C 0.29452 0.49735 1.01568 0.0
C2469 C 0.28244 0.51432 1.01782 0.0
C2470 C 0.28581 0.53031 1.0045 0.0
C2471 C 0.30054 0.52906 0.9893 0.0
H2472 H 0.79263 0.49704 0.3223 0.0
H2473 H 0.73396 0.48119 0.30153 0.0
H2474 H 0.7946 0.52289 0.29607 0.0
H2475 H 0.73585 0.50667 0.27602 0.0
H2476 H 0.734 0.56963 0.25112 0.0
H2477 H 0.73596 0.544 0.27645 0.0
H2478 H 0.79444 0.52764 0.25571 0.0
H2479 H 0.79242 0.5537 0.22968 0.0
C2480 C 0.78016 0.49902 0.31228 0.0
C2481 C 0.76312 0.48685 0.31426 0.0
C2482 C 0.78135 0.51376 0.2971 0.0
C2483 C 0.76536 0.51703 0.28378 0.0
C2484 C 0.74845 0.50484 0.28591 0.0
C2485 C 0.74741 0.49005 0.30067 0.0
C2486 C 0.7474 0.56069 0.25177 0.0
C2487 C 0.76302 0.56394 0.23806 0.0
C2488 C 0.74847 0.54582 0.26642 0.0
C2489 C 0.76533 0.53355 0.26833 0.0
C2490 C 0.78123 0.53683 0.25486 0.0
C2491 C 0.78001 0.55168 0.23978 0.0
H2492 H 0.73488 0.06987 0.9968 0.0
H2493 H 0.74557 1.00889 0.97949 0.0
H2494 H 0.75972 0.06718 1.02275 0.0
H2495 H 0.77094 1.0062 1.00608 0.0
H2496 H 0.80171 1.00922 0.07226 0.0
H2497 H 0.77595 1.00781 0.04591 0.0
H2498 H 0.79635 0.06433 1.02328 0.0
H2499 H 0.82154 0.06575 0.04894 0.0
C2500 C 0.7425 0.05575 0.99847 0.0
C2501 C 0.73803 0.03963 0.98572 0.0
C2502 C 0.75693 0.05425 1.01349 0.0
C2503 C 0.76758 0.0365 1.0167 0.0
C2504 C 0.76303 1.02011 1.00422 0.0
C2505 C 0.74859 1.02171 0.98881 0.0
C2506 C 0.80064 1.02132 0.06166 0.0
C2507 C 0.81389 0.03761 0.06299 0.0
C2508 C 0.78595 1.02045 0.04642 0.0
C2509 C 0.78387 0.03601 0.03234 0.0
C2510 C 0.79719 0.05212 0.0338 0.0
C2511 C 0.81183 0.05287 0.04865 0.0
H2512 H 0.3006 0.31904 0.06878 0.0
H2513 H 0.32207 0.26074 0.05236 0.0
H2514 H 0.27496 0.31694 0.04353 0.0
H2515 H 0.29578 0.25861 0.02662 0.0
H2516 H 0.22961 0.25978 0.99595 0.0
H2517 H 0.25601 0.25788 1.0216 0.0
H2518 H 0.27455 0.3175 1.00663 0.0
H2519 H 0.24884 0.31939 0.98148 0.0
C2520 C 0.29992 0.30565 0.0598 0.0
C2521 C 0.31375 0.29011 0.06279 0.0
C2522 C 0.28508 0.30448 0.04514 0.0
C2523 C 0.28312 0.28764 0.03279 0.0
C2524 C 0.29667 0.27181 0.03585 0.0
C2525 C 0.3119 0.2731 0.05052 0.0
C2526 C 0.23932 0.27246 0.99817 0.0
C2527 C 0.23681 0.28976 0.98646 0.0
C2528 C 0.25461 0.27132 1.0128 0.0
C2529 C 0.26754 0.28758 1.0164 0.0
C2530 C 0.26493 0.30471 1.0046 0.0
C2531 C 0.25005 0.30573 0.98998 0.0
H2532 H 0.2293 0.79051 0.556 0.0
H2533 H 0.24877 0.73095 0.57018 0.0
H2534 H 0.25559 0.79261 0.53022 0.0
H2535 H 0.27438 0.73304 0.5449 0.0
H2536 H 0.30019 0.73181 0.48263 0.0
H2537 H 0.27465 0.73371 0.50801 0.0
H2538 H 0.29529 0.79211 0.52496 0.0
H2539 H 0.32148 0.79019 0.49908 0.0
C2540 C 0.23905 0.77789 0.55369 0.0
C2541 C 0.23664 0.76054 0.56536 0.0
C2542 C 0.25426 0.77914 0.53899 0.0
C2543 C 0.26723 0.76295 0.53527 0.0
C2544 C 0.26473 0.74578 0.54702 0.0
C2545 C 0.24991 0.74464 0.56173 0.0
C2546 C 0.29949 0.74518 0.49163 0.0
C2547 C 0.31324 0.76081 0.4886 0.0
C2548 C 0.2847 0.74622 0.50638 0.0
C2549 C 0.28273 0.76302 0.51878 0.0
C2550 C 0.2962 0.77894 0.51568 0.0
C2551 C 0.31137 0.77777 0.50092 0.0
H2552 H 0.97903 0.55112 0.7324 0.0
H2553 H 0.03871 0.57043 0.74627 0.0
H2554 H 0.98119 0.52544 0.75765 0.0
H2555 H 0.0409 0.5441 0.77194 0.0
H2556 H 0.03862 0.47845 0.80325 0.0
H2557 H 0.04032 0.50448 0.77721 0.0
H2558 H 0.98217 0.52528 0.7946 0.0
H2559 H 0.98048 0.49991 0.82018 0.0
C2560 C 0.99276 0.54991 0.74075 0.0
C2561 C 1.00867 0.56316 0.73708 0.0
C2562 C 0.99395 0.53507 0.75543 0.0
C2563 C 1.01118 0.53254 0.76708 0.0
C2564 C 0.02739 0.54545 0.76326 0.0
C2565 C 0.02609 0.56068 0.74861 0.0
C2566 C 0.02621 0.48857 0.80147 0.0
C2567 C 1.00938 0.48681 0.81397 0.0
C2568 C 0.02725 0.50363 0.78661 0.0
C2569 C 1.01133 0.51709 0.78359 0.0
C2570 C 0.99466 0.51522 0.79617 0.0
C2571 C 0.99375 0.50054 0.81103 0.0
H2572 H 0.80078 0.82046 0.56858 0.0
H2573 H 0.82033 0.7609 0.55439 0.0
H2574 H 0.77521 0.81832 0.54325 0.0
H2575 H 0.79409 0.75874 0.5286 0.0
H2576 H 0.72804 0.76104 0.49781 0.0
H2577 H 0.7543 0.75923 0.52359 0.0
H2578 H 0.77502 0.81748 0.50626 0.0
H2579 H 0.74943 0.81926 0.48093 0.0
C2580 C 0.79967 0.80677 0.56009 0.0
C2581 C 0.81294 0.79088 0.56373 0.0
C2582 C 0.78488 0.8056 0.54538 0.0
C2583 C 0.78241 0.7884 0.53365 0.0
C2584 C 0.79539 0.77223 0.53736 0.0
C2585 C 0.81058 0.77352 0.55206 0.0
C2586 C 0.7382 0.77344 0.49953 0.0
C2587 C 0.73635 0.79032 0.48712 0.0
C2588 C 0.7534 0.77234 0.51424 0.0
C2589 C 0.7669 0.78826 0.51721 0.0
C2590 C 0.76494 0.80497 0.50472 0.0
C2591 C 0.75014 0.80594 0.49 0.0
H2592 H 0.5229 0.58344 0.2918 0.0
H2593 H 0.54504 0.539 0.33251 0.0
H2594 H 0.52028 0.55789 0.26566 0.0
H2595 H 0.54246 0.51372 0.30667 0.0
H2596 H 0.52331 0.4678 0.25952 0.0
H2597 H 0.52078 0.4933 0.28575 0.0
H2598 H 0.54183 0.53779 0.24443 0.0
H2599 H 0.54432 0.51258 0.21853 0.0
C2600 C 0.52696 0.56824 0.29532 0.0
C2601 C 0.5342 0.5635 0.31444 0.0
C2602 C 0.52561 0.55352 0.28023 0.0
C2603 C 0.53116 0.53349 0.28384 0.0
C2604 C 0.53779 0.52875 0.30316 0.0
C2605 C 0.53939 0.54344 0.31807 0.0
C2606 C 0.52711 0.48306 0.25596 0.0
C2607 C 0.53402 0.48793 0.23674 0.0
C2608 C 0.52583 0.49775 0.27109 0.0
C2609 C 0.53111 0.51786 0.26743 0.0
C2610 C 0.53738 0.52271 0.248 0.0
C2611 C 0.53892 0.50806 0.23305 0.0
H2612 H 0.06771 0.9988 0.73355 0.0
H2613 H 1.00747 0.9805 0.74632 0.0
H2614 H 0.06567 1.02423 0.75915 0.0
H2615 H 1.00536 1.00666 0.77227 0.0
H2616 H 1.00887 0.07294 0.80322 0.0
H2617 H 1.00704 0.04694 0.7771 0.0
H2618 H 0.06361 1.02377 0.79649 0.0
H2619 H 0.06537 0.04907 0.82221 0.0
C2620 C 0.05389 1.00019 0.74176 0.0
C2621 C 0.03777 0.98732 0.73767 0.0
C2622 C 0.05276 1.01489 0.75661 0.0
C2623 C 0.03537 1.0177 0.76796 0.0
C2624 C 1.01899 1.00509 0.7638 0.0
C2625 C 1.02025 0.98995 0.74901 0.0
C2626 C 1.02089 0.06229 0.80188 0.0
C2627 C 0.03729 0.06334 0.815 0.0
C2628 C 1.01977 0.04724 0.78698 0.0
C2629 C 0.03521 0.03312 0.78452 0.0
C2630 C 0.05147 0.03432 0.79767 0.0
C2631 C 0.05243 0.04896 0.81259 0.0
H2632 H 0.56738 0.8023 0.81944 0.0
H2633 H 0.55287 0.82168 0.75986 0.0
H2634 H 0.5426 0.7763 0.81733 0.0
H2635 H 0.52745 0.79503 0.7578 0.0
H2636 H 0.49725 0.72854 0.76047 0.0
H2637 H 0.52266 0.75518 0.75828 0.0
H2638 H 0.50597 0.77557 0.8169 0.0
H2639 H 0.48118 0.74958 0.81911 0.0
C2640 C 0.55891 0.80109 0.80576 0.0
C2641 C 0.56231 0.81443 0.78986 0.0
C2642 C 0.5445 0.78603 0.8046 0.0
C2643 C 0.53277 0.78339 0.78745 0.0
C2644 C 0.53622 0.79646 0.77126 0.0
C2645 C 0.55068 0.8119 0.77251 0.0
C2646 C 0.49909 0.73868 0.77288 0.0
C2647 C 0.48702 0.73662 0.79001 0.0
C2648 C 0.51355 0.75411 0.77156 0.0
C2649 C 0.51657 0.76764 0.78746 0.0
C2650 C 0.5044 0.76547 0.80439 0.0
C2651 C 0.48999 0.75042 0.80561 0.0
H2652 H 0.0466 0.22685 0.48698 0.0
H2653 H 0.07198 0.24833 0.54201 0.0
H2654 H 1.02123 0.25245 0.48845 0.0
H2655 H 0.0459 0.27431 0.54357 0.0
H2656 H 0.97977 0.30503 0.54389 0.0
H2657 H 1.00576 0.27902 0.54621 0.0
H2658 H 1.02164 0.28967 0.48486 0.0
H2659 H 0.99632 0.31533 0.48262 0.0
C2660 C 0.04678 0.23698 0.49955 0.0
C2661 C 0.0616 0.23532 0.51437 0.0
C2662 C 0.03211 0.25182 0.50033 0.0
C2663 C 0.03134 0.26562 0.5161 0.0
C2664 C 0.04588 0.2639 0.53124 0.0
C2665 C 0.06096 0.24908 0.53028 0.0
C2666 C 0.98877 0.30173 0.53091 0.0
C2667 C 0.98574 0.31239 0.51304 0.0
C2668 C 1.00383 0.28693 0.53229 0.0
C2669 C 1.01593 0.28211 0.5157 0.0
C2670 C 1.01267 0.29274 0.49794 0.0
C2671 C 0.99805 0.3076 0.49669 0.0
H2672 H 0.55379 0.22987 0.792 0.0
H2673 H 0.56738 0.24872 0.73203 0.0
H2674 H 0.52827 0.25639 0.79419 0.0
H2675 H 0.54246 0.27458 0.73423 0.0
H2676 H 0.48096 0.30127 0.73326 0.0
H2677 H 0.50587 0.27539 0.73523 0.0
H2678 H 0.52326 0.29612 0.79349 0.0
H2679 H 0.49777 0.32267 0.79155 0.0
C2680 C 0.55137 0.2395 0.77929 0.0
C2681 C 0.56279 0.23686 0.7618 0.0
C2682 C 0.53684 0.25486 0.78061 0.0
C2683 C 0.53309 0.26776 0.76435 0.0
C2684 C 0.54459 0.26499 0.74703 0.0
C2685 C 0.55908 0.25001 0.74582 0.0
C2686 C 0.48995 0.30053 0.74664 0.0
C2687 C 0.48714 0.31441 0.76221 0.0
C2688 C 0.50444 0.28554 0.74771 0.0
C2689 C 0.51684 0.28348 0.76447 0.0
C2690 C 0.51398 0.29709 0.78035 0.0
C2691 C 0.49945 0.31246 0.77916 0.0
H2692 H 0.57077 0.30541 0.51039 0.0
H2693 H 0.55119 0.31952 0.57003 0.0
H2694 H 0.54448 0.27965 0.50822 0.0
H2695 H 0.52558 0.29427 0.56788 0.0
H2696 H 0.49994 0.232 0.56899 0.0
H2697 H 0.52545 0.25738 0.5671 0.0
H2698 H 0.5047 0.27444 0.50877 0.0
H2699 H 0.47853 0.24854 0.51067 0.0
C2700 C 0.561 0.30309 0.52302 0.0
C2701 C 0.56337 0.31472 0.54041 0.0
C2702 C 0.54578 0.2884 0.52172 0.0
C2703 C 0.53279 0.28468 0.53792 0.0
C2704 C 0.53526 0.2964 0.55513 0.0
C2705 C 0.55008 0.31108 0.55631 0.0
C2706 C 0.50061 0.24102 0.55563 0.0
C2707 C 0.48684 0.23802 0.54002 0.0
C2708 C 0.51538 0.25577 0.5546 0.0
C2709 C 0.51731 0.2682 0.53783 0.0
C2710 C 0.50382 0.26514 0.52192 0.0
C2711 C 0.48867 0.25037 0.52308 0.0
H2712 H 0.81907 0.48331 0.7498 0.0
H2713 H 0.75963 0.49744 0.73003 0.0
H2714 H 0.81692 0.50867 0.77534 0.0
H2715 H 0.75746 0.52333 0.75624 0.0
H2716 H 0.75977 0.5542 0.82244 0.0
H2717 H 0.75788 0.52844 0.79611 0.0
H2718 H 0.81619 0.54555 0.77546 0.0
H2719 H 0.81808 0.57082 0.80113 0.0
C2720 C 0.80541 0.49181 0.75084 0.0
C2721 C 0.78955 0.48814 0.73754 0.0
C2722 C 0.80422 0.50654 0.76562 0.0
C2723 C 0.78706 0.51828 0.76803 0.0
C2724 C 0.77092 0.51456 0.75498 0.0
C2725 C 0.77222 0.49982 0.7398 0.0
C2726 C 0.77216 0.55242 0.81228 0.0
C2727 C 0.78911 0.56475 0.81418 0.0
C2728 C 0.77102 0.53774 0.79704 0.0
C2729 C 0.78693 0.53472 0.78354 0.0
C2730 C 0.80369 0.54714 0.78553 0.0
C2731 C 0.80472 0.56181 0.80039 0.0
H2732 H 0.71769 1.00241 0.53981 0.0
H2733 H 0.75844 0.02581 0.5836 0.0
H2734 H 0.74321 1.00526 0.51415 0.0
H2735 H 0.78429 0.0285 0.55772 0.0
H2736 H 0.83069 1.00303 0.51173 0.0
H2737 H 0.80515 1.00572 0.53738 0.0
H2738 H 0.76383 0.02822 0.4937 0.0
H2739 H 0.78972 0.02569 0.46784 0.0
C2740 C 0.73207 1.00837 0.544 0.0
C2741 C 0.73584 1.01386 0.56398 0.0
C2742 C 0.74677 1.01011 0.52913 0.0
C2743 C 0.76601 1.0171 0.53363 0.0
C2744 C 0.76974 1.02293 0.55357 0.0
C2745 C 0.75484 1.02153 0.56846 0.0
C2746 C 0.81625 1.00881 0.50752 0.0
C2747 C 0.81243 1.01413 0.48751 0.0
C2748 C 0.80154 1.01045 0.52238 0.0
C2749 C 0.78222 1.01717 0.51785 0.0
C2750 C 0.77843 1.02286 0.49789 0.0
C2751 C 0.79335 1.02156 0.483 0.0
H2752 H 0.29221 0.99934 0.82308 0.0
H2753 H 0.23454 0.98151 0.8011 0.0
H2754 H 0.29389 1.02513 0.79674 0.0
H2755 H 0.2362 1.00679 0.77546 0.0
H2756 H 0.23248 0.06868 0.74915 0.0
H2757 H 0.23485 0.0438 0.77514 0.0
H2758 H 0.29466 0.02975 0.75664 0.0
H2759 H 0.29227 0.05507 0.72994 0.0
C2760 C 0.2799 1.00088 0.81279 0.0
C2761 C 0.26322 0.98817 0.81447 0.0
C2762 C 0.28093 1.01557 0.79754 0.0
C2763 C 0.26514 1.01823 0.78384 0.0
C2764 C 0.24861 1.00549 0.78568 0.0
C2765 C 0.24772 0.9908 0.80052 0.0
C2766 C 0.24628 0.06045 0.75043 0.0
C2767 C 0.26215 0.06409 0.73711 0.0
C2768 C 0.24759 0.04599 0.76548 0.0
C2769 C 0.26491 0.03454 0.76817 0.0
C2770 C 0.28108 0.0383 0.75517 0.0
C2771 C 0.27965 0.05273 0.73972 0.0
H2772 H 0.23211 0.56844 0.49954 0.0
H2773 H 0.24764 0.50943 0.47933 0.0
H2774 H 0.25713 0.56653 0.52537 0.0
H2775 H 0.27321 0.50753 0.50581 0.0
H2776 H 0.30364 0.50971 0.5721 0.0
H2777 H 0.27807 0.50759 0.54563 0.0
H2778 H 0.29387 0.56664 0.52599 0.0
H2779 H 0.31891 0.56876 0.5518 0.0
C2780 C 0.24084 0.55493 0.50054 0.0
C2781 C 0.23766 0.53913 0.48701 0.0
C2782 C 0.25538 0.55388 0.51549 0.0
C2783 C 0.26743 0.53692 0.51786 0.0
C2784 C 0.2642 0.52083 0.5046 0.0
C2785 C 0.24964 0.52199 0.48926 0.0
C2786 C 0.30158 0.52223 0.56216 0.0
C2787 C 0.31349 0.53944 0.56437 0.0
C2788 C 0.28702 0.52095 0.54682 0.0
C2789 C 0.28371 0.53699 0.53354 0.0
C2790 C 0.29568 0.55403 0.53588 0.0
C2791 C 0.31023 0.55519 0.55083 0.0
H2792 H 0.83292 0.27541 1.01069 0.0
H2793 H 0.7876 0.25616 0.96946 0.0
H2794 H 0.80764 0.27764 0.03717 0.0
H2795 H 0.76258 0.25844 0.99561 0.0
H2796 H 0.71775 0.27747 0.04396 0.0
H2797 H 0.74316 0.28026 1.01769 0.0
H2798 H 0.78691 0.25527 0.05748 0.0
H2799 H 0.76174 0.25243 0.08344 0.0
C2800 C 0.81758 0.27195 1.00714 0.0
C2801 C 0.8125 0.26561 0.98778 0.0
C2802 C 0.80302 0.27306 1.0224 0.0
C2803 C 0.78283 0.26821 1.01873 0.0
C2804 C 0.77776 0.26254 0.99918 0.0
C2805 C 0.79228 0.26112 0.9841 0.0
C2806 C 0.73284 0.27281 0.04719 0.0
C2807 C 0.73749 0.2647 0.06598 0.0
C2808 C 0.74747 0.27426 0.03203 0.0
C2809 C 0.76733 0.26799 0.03526 0.0
C2810 C 0.77201 0.26049 0.05428 0.0
C2811 C 0.75739 0.25875 0.06924 0.0
H2812 H 0.54055 0.97963 0.30439 0.0
H2813 H 0.48079 0.99881 0.31802 0.0
H2814 H 0.54265 1.00567 0.27835 0.0
H2815 H 0.48285 1.02416 0.29243 0.0
H2816 H 0.48225 0.0497 0.22994 0.0
H2817 H 0.4841 1.02407 0.25528 0.0
H2818 H 0.54175 0.04566 0.27335 0.0
H2819 H 0.53986 0.07197 0.24762 0.0
C2820 C 0.52787 0.98923 0.30186 0.0
C2821 C 0.51048 0.98686 0.31347 0.0
C2822 C 0.52912 1.00432 0.28702 0.0
C2823 C 0.51288 1.01715 0.28309 0.0
C2824 C 0.49563 1.01461 0.29473 0.0
C2825 C 0.4945 0.99995 0.30959 0.0
C2826 C 0.49547 0.04916 0.23915 0.0
C2827 C 0.51088 0.06322 0.23652 0.0
C2828 C 0.49647 0.03433 0.25387 0.0
C2829 C 0.51303 0.03261 0.26659 0.0
C2830 C 0.52877 0.04636 0.26382 0.0
C2831 C 0.52763 0.06158 0.24913 0.0
H2832 H 0.17951 0.26708 0.28206 0.0
H2833 H 0.19916 0.30535 0.3297 0.0
H2834 H 0.19467 0.23853 0.29844 0.0
H2835 H 0.21396 0.27663 0.34672 0.0
H2836 H 0.26799 0.23238 0.34198 0.0
H2837 H 0.24343 0.25867 0.33872 0.0
H2838 H 0.19843 0.2148 0.32472 0.0
H2839 H 0.22344 0.18849 0.32732 0.0
C2840 C 0.18648 0.26914 0.29648 0.0
C2841 C 0.18829 0.28825 0.30468 0.0
C2842 C 0.19508 0.25278 0.30598 0.0
C2843 C 0.20574 0.25524 0.32388 0.0
C2844 C 0.20613 0.27425 0.33282 0.0
C2845 C 0.19757 0.29065 0.32321 0.0
C2846 C 0.2527 0.22832 0.33884 0.0
C2847 C 0.24768 0.20846 0.3346 0.0
C2848 C 0.23852 0.2434 0.33707 0.0
C2849 C 0.21896 0.23894 0.33108 0.0
C2850 C 0.21345 0.2188 0.32896 0.0
C2851 C 0.22771 0.20368 0.3307 0.0
H2852 H 0.43758 0.57857 0.9762 0.0
H2853 H 0.48106 0.53294 0.96401 0.0
H2854 H 0.46421 0.60334 0.97854 0.0
H2855 H 0.50763 0.55724 0.96702 0.0
H2856 H 0.55483 0.60103 0.97442 0.0
H2857 H 0.52605 0.58588 0.95788 0.0
H2858 H 0.48783 0.60854 1.00459 0.0
H2859 H 0.5165 0.62414 1.02042 0.0
C2860 C 0.45277 0.57399 0.97334 0.0
C2861 C 0.45731 0.55382 0.97012 0.0
C2862 C 0.46807 0.58811 0.97493 0.0
C2863 C 0.48816 0.58229 0.97334 0.0
C2864 C 0.49242 0.56242 0.9682 0.0
C2865 C 0.47718 0.54839 0.96658 0.0
C2866 C 0.54011 0.60331 0.98062 0.0
C2867 C 0.53772 0.6137 0.99857 0.0
C2868 C 0.52365 0.59452 0.97131 0.0
C2869 C 0.50459 0.59569 0.98002 0.0
C2870 C 0.50215 0.60745 0.99724 0.0
C2871 C 0.51857 0.61635 1.00641 0.0
H2872 H 0.83197 0.24729 0.3108 0.0
H2873 H 0.88735 0.27583 0.29488 0.0
H2874 H 0.81939 0.27885 0.32363 0.0
H2875 H 0.8749 0.30737 0.30806 0.0
H2876 H 0.82707 0.35709 0.29236 0.0
H2877 H 0.84837 0.32771 0.29208 0.0
H2878 H 0.82155 0.30777 0.34713 0.0
H2879 H 0.80022 0.33745 0.34732 0.0
C2880 C 0.84167 0.26019 0.31062 0.0
C2881 C 0.86051 0.25917 0.30159 0.0
C2882 C 0.83454 0.27824 0.31812 0.0
C2883 C 0.84609 0.29564 0.31663 0.0
C2884 C 0.86561 0.29422 0.30922 0.0
C2885 C 0.87278 0.27613 0.30182 0.0
C2886 C 0.82629 0.34675 0.30473 0.0
C2887 C 0.81213 0.34941 0.31986 0.0
C2888 C 0.8385 0.32997 0.30465 0.0
C2889 C 0.83658 0.31537 0.31956 0.0
C2890 C 0.82329 0.31874 0.33543 0.0
C2891 C 0.81121 0.33572 0.33562 0.0
H2892 H 0.53461 0.93243 1.02431 0.0
H2893 H 0.49708 0.94612 0.97413 0.0
H2894 H 0.56312 0.94695 1.00718 0.0
H2895 H 0.52575 0.9606 0.95656 0.0
H2896 H 0.56964 1.01608 0.95837 0.0
H2897 H 0.54331 0.99163 0.96305 0.0
H2898 H 0.5871 0.94773 0.98008 0.0
H2899 H 0.61345 0.97253 0.97576 0.0
C2900 C 0.5327 0.93804 1.00929 0.0
C2901 C 0.51378 0.9383 1.0005 0.0
C2902 C 0.54903 0.94625 0.99937 0.0
C2903 C 0.54675 0.95507 0.98048 0.0
C2904 C 0.52797 0.9541 0.97116 0.0
C2905 C 0.5116 0.94576 0.98111 0.0
C2906 C 0.57368 1.00098 0.96236 0.0
C2907 C 0.59354 0.99624 0.96688 0.0
C2908 C 0.55859 0.9869 0.96501 0.0
C2909 C 0.56303 0.96778 0.9723 0.0
C2910 C 0.58315 0.96243 0.97477 0.0
C2911 C 0.59828 0.97655 0.97205 0.0
H2912 H 0.18189 0.78522 0.27531 0.0
H2913 H 0.19461 0.74814 0.22444 0.0
H2914 H 0.19678 0.81371 0.25852 0.0
H2915 H 0.20951 0.77681 0.20724 0.0
H2916 H 0.26606 0.81939 0.21013 0.0
H2917 H 0.24104 0.79351 0.21432 0.0
H2918 H 0.19795 0.83804 0.23161 0.0
H2919 H 0.22331 0.86393 0.22779 0.0
C2920 C 0.18734 0.78342 0.26021 0.0
C2921 C 0.18723 0.76462 0.25112 0.0
C2922 C 0.19577 0.79975 0.25049 0.0
C2923 C 0.20446 0.79756 0.23153 0.0
C2924 C 0.20309 0.77895 0.2219 0.0
C2925 C 0.1945 0.76259 0.23163 0.0
C2926 C 0.25104 0.82369 0.21412 0.0
C2927 C 0.24667 0.8436 0.21886 0.0
C2928 C 0.23663 0.80887 0.21645 0.0
C2929 C 0.21755 0.81365 0.22364 0.0
C2930 C 0.21261 0.83385 0.22635 0.0
C2931 C 0.22705 0.84871 0.22395 0.0
H2932 H 0.11137 0.5811 0.07593 0.0
H2933 H 0.07078 0.53131 0.07488 0.0
H2934 H 0.08305 0.60413 0.07677 0.0
H2935 H 0.04273 0.5539 0.07498 0.0
H2936 H 0.99271 0.59319 0.07484 0.0
H2937 H 1.02217 0.57794 0.08979 0.0
H2938 H 0.05972 0.61403 0.05183 0.0
H2939 H 0.03023 0.62991 0.03792 0.0
C2940 C 0.0964 0.57512 0.07635 0.0
C2941 C 0.09318 0.5545 0.07504 0.0
C2942 C 0.08019 0.58826 0.07667 0.0
C2943 C 0.06054 0.58094 0.07575 0.0
C2944 C 0.05753 0.56021 0.07597 0.0
C2945 C 0.07364 0.54718 0.07566 0.0
C2946 C 1.00734 0.59835 0.07039 0.0
C2947 C 1.00936 0.61257 0.05527 0.0
C2948 C 1.0242 0.58953 0.07876 0.0
C2949 C 0.04335 0.59435 0.07166 0.0
C2950 C 0.0453 0.60997 0.0578 0.0
C2951 C 0.02842 0.61906 0.04974 0.0
H2952 H 0.85798 0.80269 0.22574 0.0
H2953 H 0.86696 0.76634 0.27788 0.0
H2954 H 0.84348 0.77397 0.20821 0.0
H2955 H 0.85258 0.7378 0.2607 0.0
H2956 H 0.82766 0.6874 0.22916 0.0
H2957 H 0.85306 0.71314 0.23367 0.0
H2958 H 0.81105 0.75782 0.21437 0.0
H2959 H 0.78595 0.73209 0.20959 0.0
C2960 C 0.85733 0.78839 0.23318 0.0
C2961 C 0.86338 0.78659 0.2531 0.0
C2962 C 0.84901 0.77201 0.22324 0.0
C2963 C 0.84679 0.75361 0.23308 0.0
C2964 C 0.85428 0.75162 0.25255 0.0
C2965 C 0.86238 0.76797 0.26247 0.0
C2966 C 0.82419 0.70261 0.22504 0.0
C2967 C 0.80482 0.70784 0.21922 0.0
C2968 C 0.83865 0.71737 0.2278 0.0
C2969 C 0.83397 0.73758 0.22472 0.0
C2970 C 0.81523 0.74244 0.2168 0.0
C2971 C 0.80079 0.72771 0.21412 0.0
H2972 H 0.93715 0.97234 0.07413 0.0
H2973 H 0.98156 1.01486 0.09278 0.0
H2974 H 0.96303 0.94705 0.07011 0.0
H2975 H 1.00743 0.98989 0.0884 0.0
H2976 H 0.05274 0.94362 0.07765 0.0
H2977 H 1.02393 0.958 0.09508 0.0
H2978 H 0.98751 0.94682 0.04315 0.0
H2979 H 1.01613 0.93249 0.02611 0.0
C2980 C 0.95233 0.97603 0.07814 0.0
C2981 C 0.95744 0.99558 0.08355 0.0
C2982 C 0.96718 0.96162 0.07565 0.0
C2983 C 0.98734 0.96654 0.07859 0.0
C2984 C 0.99209 0.98551 0.0861 0.0
C2985 C 0.97728 0.99989 0.08852 0.0
C2986 C 0.03837 0.94375 0.07034 0.0
C2987 C 0.0365 0.93713 0.05061 0.0
C2988 C 1.02194 0.95202 0.08021 0.0
C2989 C 1.00344 0.95367 0.07048 0.0
C2990 C 1.0014 0.94557 0.05124 0.0
C2991 C 1.0178 0.93748 0.04139 0.0
H2992 H 0.35257 0.25565 0.21883 0.0
H2993 H 0.30361 0.22347 0.19274 0.0
H2994 H 0.35192 0.23335 0.24772 0.0
H2995 H 0.30239 0.20154 0.22161 0.0
H2996 H 0.30013 0.1644 0.27508 0.0
H2997 H 0.31515 0.1771 0.24446 0.0
H2998 H 0.32812 0.23273 0.2742 0.0
H2999 H 0.31387 0.21975 0.30482 0.0
C3000 C 0.34223 0.24327 0.21897 0.0
C3001 C 0.32828 0.24105 0.20361 0.0
C3002 C 0.34164 0.23065 0.23558 0.0
C3003 C 0.3269 0.2158 0.23718 0.0
C3004 C 0.3141 0.2126 0.22088 0.0
C3005 C 0.31476 0.22515 0.20429 0.0
C3006 C 0.30685 0.17907 0.27525 0.0
C3007 C 0.30549 0.19123 0.29228 0.0
C3008 C 0.31529 0.18643 0.25763 0.0
C3009 C 0.32255 0.20608 0.2567 0.0
C3010 C 0.3228 0.21751 0.27429 0.0
C3011 C 0.31442 0.21015 0.29185 0.0
H3012 H 0.42653 0.51866 0.03428 0.0
H3013 H 0.45134 0.47395 0.9955 0.0
H3014 H 0.4422 0.50288 0.06293 0.0
H3015 H 0.4665 0.4574 1.02425 0.0
H3016 H 0.51881 0.46439 0.06965 0.0
H3017 H 0.49464 0.46703 0.04297 0.0
H3018 H 0.448 0.47685 0.08632 0.0
H3019 H 0.47265 0.47491 0.11309 0.0
C3020 C 0.43471 0.50492 0.0321 0.0
C3021 C 0.43783 0.49746 1.01284 0.0
C3022 C 0.44364 0.49578 0.04851 0.0
C3023 C 0.45588 0.47894 0.04594 0.0
C3024 C 0.4575 0.47054 0.02675 0.0
C3025 C 0.44871 0.47985 1.0103 0.0
C3026 C 0.50329 0.46652 0.07349 0.0
C3027 C 0.49764 0.4697 0.09338 0.0
C3028 C 0.48933 0.46792 0.05818 0.0
C3029 C 0.46932 0.47247 0.0624 0.0
C3030 C 0.46334 0.4737 0.0825 0.0
C3031 C 0.47739 0.47233 0.09787 0.0
H3032 H 0.72707 0.33036 0.18501 0.0
H3033 H 0.71134 0.2905 0.23292 0.0
H3034 H 0.73105 0.35752 0.20898 0.0
H3035 H 0.71577 0.31732 0.25689 0.0
H3036 H 0.72768 0.36525 0.2992 0.0
H3037 H 0.70898 0.34982 0.27181 0.0
H3038 H 0.75856 0.36069 0.23217 0.0
H3039 H 0.77685 0.37608 0.25935 0.0
C3040 C 0.72373 0.32759 0.20057 0.0
C3041 C 0.71917 0.30827 0.20717 0.0
C3042 C 0.72618 0.3431 0.21433 0.0
C3043 C 0.72408 0.33954 0.23491 0.0
C3044 C 0.71742 0.3207 0.24119 0.0
C3045 C 0.71501 0.30524 0.22747 0.0
C3046 C 0.73413 0.36501 0.28439 0.0
C3047 C 0.7537 0.37165 0.28131 0.0
C3048 C 0.72354 0.35606 0.26876 0.0
C3049 C 0.73236 0.35375 0.24984 0.0
C3050 C 0.75117 0.36232 0.24643 0.0
C3051 C 0.76174 0.37109 0.26202 0.0
H3052 H 0.58311 0.06334 0.99792 0.0
H3053 H 0.63753 0.04508 0.02678 0.0
H3054 H 0.57044 0.0757 0.02967 0.0
H3055 H 0.62501 0.05776 0.05851 0.0
H3056 H 0.57592 0.0415 0.1069 0.0
H3057 H 0.59767 0.04172 0.07782 0.0
H3058 H 0.57274 0.09812 0.05951 0.0
H3059 H 0.55093 0.09781 0.0889 0.0
C3060 C 0.59261 0.06258 1.01094 0.0
C3061 C 0.61116 0.053 1.00994 0.0
C3062 C 0.58543 0.06979 0.02911 0.0
C3063 C 0.59665 0.06746 0.04664 0.0
C3064 C 0.61597 0.05956 0.04527 0.0
C3065 C 0.62319 0.05245 0.02706 0.0
C3066 C 0.57562 0.05424 0.09699 0.0
C3067 C 0.56184 0.06962 0.10001 0.0
C3068 C 0.58811 0.05445 0.08039 0.0
C3069 C 0.58687 0.06992 0.06632 0.0
C3070 C 0.57396 0.08599 0.07007 0.0
C3071 C 0.5616 0.08589 0.08689 0.0
H3072 H 0.31346 0.83113 0.2462 0.0
H3073 H 0.30163 0.88614 0.27733 0.0
H3074 H 0.32877 0.81753 0.27592 0.0
H3075 H 0.31793 0.87289 0.30702 0.0
H3076 H 0.30929 0.82658 0.35916 0.0
H3077 H 0.30695 0.84894 0.3307 0.0
H3078 H 0.35333 0.81569 0.30082 0.0
H3079 H 0.35482 0.79281 0.32915 0.0
C3080 C 0.31465 0.84053 0.25928 0.0
C3081 C 0.30596 0.85954 0.25952 0.0
C3082 C 0.32368 0.83282 0.27634 0.0
C3083 C 0.3244 0.84399 0.29408 0.0
C3084 C 0.31731 0.86372 0.29376 0.0
C3085 C 0.30816 0.87142 0.27665 0.0
C3086 C 0.31955 0.82464 0.34683 0.0
C3087 C 0.3323 0.80814 0.34628 0.0
C3088 C 0.31824 0.83744 0.33045 0.0
C3089 C 0.32972 0.83397 0.31322 0.0
C3090 C 0.34395 0.81857 0.31364 0.0
C3091 C 0.34505 0.80563 0.32993 0.0
H3092 H 0.03712 0.46411 0.98156 0.0
H3093 H 0.07971 0.47637 0.93502 0.0
H3094 H 0.06324 0.46696 1.00647 0.0
H3095 H 0.10617 0.47884 0.95997 0.0
H3096 H 0.12664 0.52295 1.01145 0.0
H3097 H 0.11098 0.50598 0.98349 0.0
H3098 H 0.09429 0.45747 1.02241 0.0
H3099 H 0.1099 0.47486 0.0505 0.0
C3100 C 0.05227 0.46667 0.97663 0.0
C3101 C 0.05636 0.47024 0.95642 0.0
C3102 C 0.06732 0.46819 0.9909 0.0
C3103 C 0.08682 0.47338 0.98527 0.0
C3104 C 0.09126 0.47507 0.96482 0.0
C3105 C 0.07616 0.47347 0.95051 0.0
C3106 C 0.1204 0.50825 1.01377 0.0
C3107 C 0.11946 0.50014 0.03299 0.0
C3108 C 0.11141 0.49846 0.99776 0.0
C3109 C 0.10111 0.48044 1.00072 0.0
C3110 C 0.10188 0.47144 1.01967 0.0
C3111 C 0.11097 0.48125 0.03571 0.0
H3112 H 0.69533 0.75965 0.32791 0.0
H3113 H 0.7402 0.72539 0.35823 0.0
H3114 H 0.69695 0.73686 0.2995 0.0
H3115 H 0.74263 0.70305 0.3297 0.0
H3116 H 0.74779 0.66581 0.27609 0.0
H3117 H 0.73134 0.67918 0.3057 0.0
H3118 H 0.72212 0.735 0.27497 0.0
H3119 H 0.73769 0.72136 0.24536 0.0
C3120 C 0.70497 0.74676 0.32874 0.0
C3121 C 0.71752 0.74408 0.3452 0.0
C3122 C 0.70614 0.73384 0.3124 0.0
C3123 C 0.72022 0.7183 0.31207 0.0
C3124 C 0.73148 0.71467 0.3294 0.0
C3125 C 0.73012 0.72746 0.34581 0.0
C3126 C 0.7416 0.68069 0.27547 0.0
C3127 C 0.74437 0.69268 0.2585 0.0
C3128 C 0.73235 0.68844 0.29253 0.0
C3129 C 0.72567 0.70831 0.29294 0.0
C3130 C 0.72691 0.71961 0.27531 0.0
C3131 C 0.73607 0.71187 0.25832 0.0
H3132 H 1.00795 0.10523 0.97444 0.0
H3133 H 0.9735 0.0603 0.94427 0.0
H3134 H 0.98529 0.10366 1.00295 0.0
H3135 H 0.9513 0.05792 0.97289 0.0
H3136 H 0.91468 0.05235 0.02673 0.0
H3137 H 0.92767 0.06908 0.99714 0.0
H3138 H 0.98372 0.07841 0.02738 0.0
H3139 H 0.97043 0.06262 0.05702 0.0
C3140 C 0.99503 0.0956 0.97366 0.0
C3141 C 0.99228 0.083 0.95723 0.0
C3142 C 0.9822 0.09446 0.99005 0.0
C3143 C 0.96667 0.08035 0.99046 0.0
C3144 C 0.96292 0.06909 0.97314 0.0
C3145 C 0.97563 0.07043 0.95667 0.0
C3146 C 0.92953 0.05861 0.02727 0.0
C3147 C 0.94169 0.05581 0.0441 0.0
C3148 C 0.93706 0.06803 1.01021 0.0
C3149 C 0.95689 0.07482 1.00966 0.0
C3150 C 0.96835 0.07354 0.02716 0.0
C3151 C 0.96082 0.06423 0.04416 0.0
H3152 H 0.30287 0.32467 0.19641 0.0
H3153 H 0.26502 0.27511 0.18124 0.0
H3154 H 0.27439 0.34176 0.21176 0.0
H3155 H 0.23669 0.29182 0.19656 0.0
H3156 H 0.18678 0.32292 0.22367 0.0
H3157 H 0.21291 0.31927 0.19849 0.0
H3158 H 0.25726 0.33356 0.24288 0.0
H3159 H 0.23117 0.33752 0.26773 0.0
C3160 C 0.2883 0.31776 0.19588 0.0
C3161 C 0.28598 0.29865 0.18779 0.0
C3162 C 0.27205 0.32744 0.20471 0.0
C3163 C 0.25326 0.31812 0.2055 0.0
C3164 C 0.25081 0.29958 0.19601 0.0
C3165 C 0.26703 0.28992 0.18734 0.0
C3166 C 0.20204 0.32612 0.22776 0.0
C3167 C 0.20702 0.33033 0.24765 0.0
C3168 C 0.21703 0.32383 0.21342 0.0
C3169 C 0.23721 0.3258 0.21874 0.0
C3170 C 0.24192 0.33205 0.23818 0.0
C3171 C 0.22697 0.33425 0.25248 0.0
H3172 H 0.22192 0.70033 0.29175 0.0
H3173 H 0.19207 0.74456 0.32736 0.0
H3174 H 0.25078 0.70188 0.31396 0.0
H3175 H 0.22095 0.74681 0.34919 0.0
H3176 H 0.2747 0.7505 0.38634 0.0
H3177 H 0.24501 0.7346 0.37259 0.0
H3178 H 0.27524 0.72737 0.31615 0.0
H3179 H 0.30496 0.74242 0.33012 0.0
C3180 C 0.2213 0.70979 0.30482 0.0
C3181 C 0.20482 0.72216 0.30807 0.0
C3182 C 0.23788 0.71092 0.31739 0.0
C3183 C 0.23838 0.72472 0.33321 0.0
C3184 C 0.2211 0.73585 0.33735 0.0
C3185 C 0.2045 0.73459 0.32487 0.0
C3186 C 0.2752 0.74488 0.37121 0.0
C3187 C 0.29209 0.74802 0.3592 0.0
C3188 C 0.2581 0.73594 0.36326 0.0
C3189 C 0.25755 0.72995 0.34315 0.0
C3190 C 0.27504 0.73162 0.33172 0.0
C3191 C 0.29209 0.74049 0.33966 0.0
H3192 H 0.97483 0.61284 0.97396 0.0
H3193 H 0.9602 0.56949 1.01908 0.0
H3194 H 0.9784 0.58613 0.94942 0.0
H3195 H 0.96431 0.54281 0.99494 0.0
H3196 H 0.97367 0.4958 0.95028 0.0
H3197 H 0.95661 0.5245 0.96518 0.0
H3198 H 1.00523 0.56254 0.94675 0.0
H3199 H 1.02174 0.53398 0.93163 0.0
C3200 C 0.97164 0.59767 0.97844 0.0
C3201 C 0.96743 0.59318 0.99844 0.0
C3202 C 0.97393 0.58233 0.96446 0.0
C3203 C 0.97204 0.56226 0.97026 0.0
C3204 C 0.9658 0.55803 0.98983 0.0
C3205 C 0.96352 0.57333 1.00374 0.0
C3206 C 0.98027 0.51047 0.94896 0.0
C3207 C 0.99893 0.51285 0.93992 0.0
C3208 C 0.97063 0.52686 0.95755 0.0
C3209 C 0.9796 0.54585 0.95733 0.0
C3210 C 0.99769 0.54828 0.94701 0.0
C3211 C 1.00726 0.53193 0.93844 0.0
H3212 H 0.74557 0.80969 0.3298 0.0
H3213 H 0.77459 0.80137 0.38657 0.0
H3214 H 0.7756 0.82479 0.31651 0.0
H3215 H 0.80459 0.81729 0.37352 0.0
H3216 H 0.85827 0.80709 0.32903 0.0
H3217 H 0.82905 0.80499 0.35043 0.0
H3218 H 0.80016 0.85037 0.31508 0.0
H3219 H 0.82939 0.85181 0.29331 0.0
C3220 C 0.75823 0.81158 0.3396 0.0
C3221 C 0.7578 0.80399 0.3591 0.0
C3222 C 0.77545 0.82048 0.33206 0.0
C3223 C 0.79268 0.8221 0.34387 0.0
C3224 C 0.7917 0.81601 0.36392 0.0
C3225 C 0.77442 0.80706 0.37147 0.0
C3226 C 0.846 0.81723 0.32645 0.0
C3227 C 0.84604 0.82973 0.30973 0.0
C3228 C 0.82919 0.81604 0.33868 0.0
C3229 C 0.81206 0.82732 0.33434 0.0
C3230 C 0.81294 0.84123 0.31866 0.0
C3231 C 0.82974 0.8423 0.30635 0.0
H3232 H 0.53092 0.51853 0.42302 0.0
H3233 H 0.57018 0.55709 0.45603 0.0
H3234 H 0.54571 0.48948 0.43898 0.0
H3235 H 0.58582 0.52803 0.47148 0.0
H3236 H 0.5736 0.48 0.52003 0.0
H3237 H 0.57235 0.50776 0.497 0.0
H3238 H 0.57193 0.46666 0.44733 0.0
H3239 H 0.5726 0.43866 0.47081 0.0
C3240 C 0.54334 0.52064 0.4331 0.0
C3241 C 0.54943 0.53987 0.43847 0.0
C3242 C 0.55191 0.50402 0.44221 0.0
C3243 C 0.56677 0.5064 0.4568 0.0
C3244 C 0.57412 0.52569 0.46064 0.0
C3245 C 0.56533 0.54231 0.45172 0.0
C3246 C 0.57367 0.47693 0.50417 0.0
C3247 C 0.57288 0.45725 0.49716 0.0
C3248 C 0.57317 0.49286 0.49089 0.0
C3249 C 0.57188 0.48951 0.47023 0.0
C3250 C 0.57266 0.46975 0.46316 0.0
C3251 C 0.5732 0.45373 0.47654 0.0
H3252 H 0.25038 0.72417 0.69212 0.0
H3253 H 0.28962 0.77172 0.67435 0.0
H3254 H 0.27842 0.70678 0.7077 0.0
H3255 H 0.31755 0.75476 0.68998 0.0
H3256 H 0.36589 0.7253 0.72136 0.0
H3257 H 0.34081 0.72746 0.695 0.0
H3258 H 0.29459 0.7168 0.73855 0.0
H3259 H 0.31962 0.71426 0.76458 0.0
C3260 C 0.26519 0.73042 0.69082 0.0
C3261 C 0.268 0.74917 0.68206 0.0
C3262 C 0.2812 0.72062 0.69988 0.0
C3263 C 0.3002 0.7295 0.70036 0.0
C3264 C 0.30323 0.74734 0.68978 0.0
C3265 C 0.28724 0.75712 0.68081 0.0
C3266 C 0.35043 0.7226 0.72508 0.0
C3267 C 0.34463 0.71982 0.74501 0.0
C3268 C 0.33605 0.72401 0.71004 0.0
C3269 C 0.31565 0.72258 0.71468 0.0
C3270 C 0.31012 0.71783 0.73434 0.0
C3271 C 0.32445 0.7165 0.74933 0.0
H3272 H 1.02224 0.50923 0.62745 0.0
H3273 H 0.97338 0.54827 0.61345 0.0
H3274 H 1.00476 0.48148 0.61205 0.0
H3275 H 0.95536 0.52034 0.59832 0.0
H3276 H 0.95961 0.48061 0.54012 0.0
H3277 H 0.96301 0.50496 0.56672 0.0
H3278 H 0.97797 0.45787 0.60796 0.0
H3279 H 0.97508 0.43353 0.58099 0.0
C3280 C 1.00728 0.51157 0.62189 0.0
C3281 C 0.99906 0.53074 0.62165 0.0
C3282 C 0.99719 0.49567 0.61308 0.0
C3283 C 0.9787 0.49869 0.60369 0.0
C3284 C 0.96968 0.51757 0.60517 0.0
C3285 C 0.97985 0.53351 0.61399 0.0
C3286 C 0.96299 0.47542 0.55503 0.0
C3287 C 0.96739 0.45526 0.55843 0.0
C3288 C 0.96481 0.48936 0.57037 0.0
C3289 C 0.9711 0.48343 0.58947 0.0
C3290 C 0.97342 0.46296 0.59335 0.0
C3291 C 0.97157 0.44898 0.57795 0.0
H3292 H 0.08515 0.06899 0.53745 0.0
H3293 H 0.07461 0.11582 0.58021 0.0
H3294 H 0.08287 0.04427 0.56382 0.0
H3295 H 0.07271 0.09105 0.60691 0.0
H3296 H 0.02855 0.04002 0.62853 0.0
H3297 H 0.04547 0.06782 0.61255 0.0
H3298 H 0.09317 0.02846 0.59472 0.0
H3299 H 0.07581 1.00054 0.61064 0.0
C3300 C 0.08307 0.07402 0.55267 0.0
C3301 C 0.07981 0.09426 0.55677 0.0
C3302 C 0.0819 0.05986 0.56785 0.0
C3303 C 0.07736 0.06563 0.5875 0.0
C3304 C 0.07599 0.0861 0.59189 0.0
C3305 C 0.07724 0.1003 0.57665 0.0
C3306 C 0.04309 0.03757 0.62198 0.0
C3307 C 0.05095 1.01828 0.62078 0.0
C3308 C 0.05285 0.05349 0.61281 0.0
C3309 C 0.07058 0.05034 0.60208 0.0
C3310 C 0.07941 0.03132 0.60265 0.0
C3311 C 0.06963 1.01538 0.61191 0.0
H3312 H 0.72267 0.68898 0.82656 0.0
H3313 H 0.76858 0.73253 0.83759 0.0
H3314 H 0.69791 0.71562 0.82469 0.0
H3315 H 0.7443 0.7591 0.83499 0.0
H3316 H 0.6761 0.7678 0.78327 0.0
H3317 H 0.69194 0.73915 0.79887 0.0
H3318 H 0.71611 0.77764 0.84459 0.0
H3319 H 0.70081 0.80639 0.8282 0.0
C3320 C 0.72733 0.70419 0.82926 0.0
C3321 C 0.74755 0.70875 0.83201 0.0
C3322 C 0.71321 0.7195 0.82792 0.0
C3323 C 0.71909 0.73961 0.82931 0.0
C3324 C 0.73906 0.74388 0.83398 0.0
C3325 C 0.75309 0.72863 0.83535 0.0
C3326 C 0.68428 0.76993 0.79703 0.0
C3327 C 0.68733 0.78914 0.8046 0.0
C3328 C 0.69332 0.75352 0.80607 0.0
C3329 C 0.70558 0.75604 0.82291 0.0
C3330 C 0.70712 0.77518 0.83143 0.0
C3331 C 0.69823 0.79162 0.82222 0.0
H3332 H 1.01574 0.11897 0.52292 0.0
H3333 H 0.05336 0.1011 0.47407 0.0
H3334 H 0.98702 0.10411 0.50647 0.0
H3335 H 1.02448 0.08641 0.45711 0.0
H3336 H 0.97944 0.03243 0.46084 0.0
H3337 H 1.00621 0.05648 0.46482 0.0
H3338 H 0.96318 0.10197 0.47962 0.0
H3339 H 0.93638 0.07755 0.47612 0.0
C3340 C 1.01763 0.11238 0.50829 0.0
C3341 C 0.0366 0.11105 0.49971 0.0
C3342 C 1.00118 0.10396 0.49876 0.0
C3343 C 1.00341 0.09392 0.48046 0.0
C3344 C 1.02229 0.09383 0.47128 0.0
C3345 C 0.03877 0.1023 0.48087 0.0
C3346 C 0.97568 0.04775 0.46425 0.0
C3347 C 0.95589 0.05308 0.46838 0.0
C3348 C 0.99103 0.06161 0.46647 0.0
C3349 C 0.98692 0.08113 0.47289 0.0
C3350 C 0.96689 0.08697 0.47499 0.0
C3351 C 0.9515 0.07306 0.47274 0.0
H3352 H 0.28385 0.81997 0.84194 0.0
H3353 H 0.32852 0.8632 0.82578 0.0
H3354 H 0.30786 0.79327 0.83757 0.0
H3355 H 0.35296 0.83647 0.82192 0.0
H3356 H 0.36981 0.78384 0.77869 0.0
H3357 H 0.35502 0.81255 0.79525 0.0
H3358 H 0.33775 0.77505 0.84473 0.0
H3359 H 0.35232 0.74619 0.82764 0.0
C3360 C 0.29909 0.82379 0.83826 0.0
C3361 C 0.30428 0.8436 0.83399 0.0
C3362 C 0.31293 0.80848 0.8358 0.0
C3363 C 0.33232 0.81264 0.82904 0.0
C3364 C 0.33805 0.83271 0.8268 0.0
C3365 C 0.32415 0.84806 0.82926 0.0
C3366 C 0.36333 0.78194 0.79337 0.0
C3367 C 0.36209 0.76295 0.80195 0.0
C3368 C 0.35495 0.79838 0.80296 0.0
C3369 C 0.34505 0.79615 0.82133 0.0
C3370 C 0.34505 0.77727 0.83051 0.0
C3371 C 0.35347 0.76078 0.82085 0.0
H3372 H 0.10851 0.47405 0.49216 0.0
H3373 H 0.07729 0.50949 0.4488 0.0
H3374 H 0.07964 0.45233 0.49548 0.0
H3375 H 0.04851 0.48729 0.45128 0.0
H3376 H 0.99507 0.47119 0.49234 0.0
H3377 H 1.02463 0.48514 0.47696 0.0
H3378 H 0.05518 0.42902 0.48471 0.0
H3379 H 0.02567 0.41536 0.50103 0.0
C3380 C 0.09577 0.4765 0.48256 0.0
C3381 C 0.09508 0.49325 0.47012 0.0
C3382 C 0.07916 0.46408 0.48446 0.0
C3383 C 0.06152 0.4682 0.47388 0.0
C3384 C 0.06165 0.48391 0.45996 0.0
C3385 C 0.0782 0.49646 0.45828 0.0
C3386 C 1.00799 0.46173 0.49048 0.0
C3387 C 1.0081 0.44229 0.49821 0.0
C3388 C 1.02495 0.46965 0.48141 0.0
C3389 C 0.04248 0.45829 0.4797 0.0
C3390 C 0.04207 0.4383 0.48604 0.0
C3391 C 1.02506 0.43039 0.4952 0.0
H3392 H 0.70188 0.24543 0.72397 0.0
H3393 H 0.67712 0.28375 0.76911 0.0
H3394 H 0.71716 0.2743 0.70771 0.0
H3395 H 0.69292 0.31252 0.75362 0.0
H3396 H 0.72343 0.36296 0.72601 0.0
H3397 H 0.69877 0.33618 0.72788 0.0
H3398 H 0.7453 0.29298 0.71724 0.0
H3399 H 0.76948 0.31969 0.71467 0.0
C3400 C 0.6993 0.26016 0.73004 0.0
C3401 C 0.68838 0.26253 0.74768 0.0
C3402 C 0.70817 0.27668 0.72089 0.0
C3403 C 0.70659 0.29578 0.72948 0.0
C3404 C 0.69434 0.29818 0.74636 0.0
C3405 C 0.68532 0.2817 0.75534 0.0
C3406 C 0.72814 0.34778 0.72323 0.0
C3407 C 0.74837 0.34334 0.72039 0.0
C3408 C 0.71408 0.33239 0.72456 0.0
C3409 C 0.72003 0.31231 0.7231 0.0
C3410 C 0.74001 0.30817 0.71832 0.0
C3411 C 0.75397 0.32349 0.71695 0.0
H3412 H 0.57951 0.04284 0.60051 0.0
H3413 H 0.60863 0.07832 0.55567 0.0
H3414 H 0.55046 0.0648 0.59913 0.0
H3415 H 0.57959 0.09991 0.55364 0.0
H3416 H 0.52556 0.13646 0.55009 0.0
H3417 H 0.5554 0.12318 0.56601 0.0
H3418 H 0.52582 0.0665 0.57367 0.0
H3419 H 0.49592 0.08002 0.55861 0.0
C3420 C 0.57995 0.05585 0.59097 0.0
C3421 C 0.59626 0.05912 0.57835 0.0
C3422 C 0.56326 0.06827 0.58995 0.0
C3423 C 0.56249 0.08397 0.57603 0.0
C3424 C 0.57964 0.08817 0.56469 0.0
C3425 C 0.59634 0.07582 0.56583 0.0
C3426 C 0.52522 0.12138 0.55581 0.0
C3427 C 0.50847 0.10917 0.55277 0.0
C3428 C 0.54241 0.1137 0.56476 0.0
C3429 C 0.5432 0.09366 0.57087 0.0
C3430 C 0.52583 0.08203 0.56932 0.0
C3431 C 0.50869 0.0897 0.56044 0.0
H3432 H 0.38748 0.27585 0.75505 0.0
H3433 H 0.33147 0.30388 0.74073 0.0
H3434 H 0.37534 0.24448 0.74121 0.0
H3435 H 0.31921 0.27247 0.72722 0.0
H3436 H 0.30034 0.21458 0.70212 0.0
H3437 H 0.32144 0.24443 0.70285 0.0
H3438 H 0.34941 0.22301 0.7567 0.0
H3439 H 0.32836 0.19343 0.75586 0.0
C3440 C 0.37282 0.2755 0.74836 0.0
C3441 C 0.3603 0.29226 0.74922 0.0
C3442 C 0.36583 0.25748 0.74056 0.0
C3443 C 0.34624 0.25593 0.73336 0.0
C3444 C 0.33441 0.27318 0.73255 0.0
C3445 C 0.34135 0.29114 0.74045 0.0
C3446 C 0.31158 0.216 0.71361 0.0
C3447 C 0.31289 0.20182 0.7289 0.0
C3448 C 0.32351 0.2331 0.71414 0.0
C3449 C 0.33701 0.23613 0.72988 0.0
C3450 C 0.33937 0.22104 0.74423 0.0
C3451 C 0.32731 0.20412 0.74381 0.0
H3452 H 0.54949 0.43938 0.57813 0.0
H3453 H 0.51049 0.42485 0.5293 0.0
H3454 H 0.52152 0.45457 0.59606 0.0
H3455 H 0.48267 0.44009 0.54678 0.0
H3456 H 0.43456 0.47081 0.57656 0.0
H3457 H 0.45915 0.44412 0.57381 0.0
H3458 H 0.50588 0.48609 0.58787 0.0
H3459 H 0.48128 0.51244 0.59111 0.0
C3460 C 0.53474 0.43871 0.57166 0.0
C3461 C 0.532 0.43101 0.55242 0.0
C3462 C 0.51877 0.44755 0.58179 0.0
C3463 C 0.49988 0.44883 0.57276 0.0
C3464 C 0.49689 0.43925 0.55434 0.0
C3465 C 0.51282 0.43052 0.54424 0.0
C3466 C 0.44999 0.47409 0.5799 0.0
C3467 C 0.45607 0.49373 0.58378 0.0
C3468 C 0.46411 0.45885 0.57814 0.0
C3469 C 0.48455 0.463 0.58027 0.0
C3470 C 0.49031 0.48225 0.58623 0.0
C3471 C 0.47622 0.49744 0.58795 0.0
H3472 H 0.78186 0.67829 0.76736 0.0
H3473 H 0.8272 0.70235 0.80582 0.0
H3474 H 0.79737 0.69428 0.7387 0.0
H3475 H 0.84345 0.71787 0.77705 0.0
H3476 H 0.83648 0.7708 0.73232 0.0
H3477 H 0.83379 0.74634 0.75877 0.0
H3478 H 0.82317 0.70024 0.71501 0.0
H3479 H 0.82516 0.72517 0.68849 0.0
C3480 C 0.79568 0.68635 0.76945 0.0
C3481 C 0.80341 0.68916 0.78864 0.0
C3482 C 0.80467 0.69549 0.75303 0.0
C3483 C 0.82159 0.70764 0.75552 0.0
C3484 C 0.83024 0.70895 0.77462 0.0
C3485 C 0.8211 0.69994 0.79107 0.0
C3486 C 0.83415 0.75533 0.72833 0.0
C3487 C 0.83078 0.74994 0.70839 0.0
C3488 C 0.83272 0.74121 0.74351 0.0
C3489 C 0.82796 0.72127 0.73913 0.0
C3490 C 0.8265 0.71552 0.71897 0.0
C3491 C 0.82789 0.72974 0.70373 0.0
H3492 H 1.01885 0.97702 0.57198 0.0
H3493 H 0.9695 0.97647 0.61313 0.0
H3494 H 0.99597 0.97716 0.5441 0.0
H3495 H 0.94619 0.97595 0.585 0.0
H3496 H 0.92021 1.01476 0.53218 0.0
H3497 H 0.93648 1.0011 0.56161 0.0
H3498 H 0.97142 0.96224 0.52391 0.0
H3499 H 0.95571 0.97685 0.49447 0.0
C3500 C 1.00302 0.97642 0.575 0.0
C3501 C 0.99591 0.97707 0.59466 0.0
C3502 C 0.98983 0.97626 0.55899 0.0
C3503 C 0.96914 0.97668 0.56222 0.0
C3504 C 0.96202 0.97587 0.58198 0.0
C3505 C 0.97532 0.97601 0.59808 0.0
C3506 C 0.93087 1.00279 0.53033 0.0
C3507 C 0.93687 0.99686 0.51121 0.0
C3508 C 0.94019 0.99489 0.54718 0.0
C3509 C 0.95559 0.98081 0.54515 0.0
C3510 C 0.95999 0.97341 0.52599 0.0
C3511 C 0.9509 0.98158 0.50915 0.0
H3512 H 0.2278 0.84284 0.80902 0.0
H3513 H 0.26437 0.87947 0.77107 0.0
H3514 H 0.21263 0.82747 0.77969 0.0
H3515 H 0.25026 0.86345 0.74169 0.0
H3516 H 0.22574 0.83041 0.69018 0.0
H3517 H 0.22529 0.85352 0.71852 0.0
H3518 H 0.22692 0.80337 0.75895 0.0
H3519 H 0.22661 0.78072 0.73089 0.0
C3520 C 0.23214 0.84793 0.79433 0.0
C3521 C 0.24722 0.86218 0.79216 0.0
C3522 C 0.22366 0.83904 0.77752 0.0
C3523 C 0.23058 0.84381 0.75827 0.0
C3524 C 0.24442 0.85943 0.75619 0.0
C3525 C 0.2526 0.86859 0.77301 0.0
C3526 C 0.22536 0.82447 0.70519 0.0
C3527 C 0.22651 0.80385 0.70842 0.0
C3528 C 0.22528 0.83766 0.72141 0.0
C3529 C 0.22627 0.83038 0.7411 0.0
C3530 C 0.22588 0.80965 0.74413 0.0
C3531 C 0.22595 0.79659 0.72802 0.0
H3532 H 0.12851 0.53351 0.53246 0.0
H3533 H 0.09294 0.57089 0.4944 0.0
H3534 H 0.1123 0.54758 0.56179 0.0
H3535 H 0.07729 0.58592 0.52371 0.0
H3536 H 0.03016 0.57251 0.57251 0.0
H3537 H 0.05282 0.57177 0.54442 0.0
H3538 H 0.10292 0.5731 0.58487 0.0
H3539 H 0.07981 0.57318 0.61321 0.0
C3540 C 0.11782 0.54543 0.53051 0.0
C3541 C 0.11183 0.55114 0.51133 0.0
C3542 C 0.10854 0.55357 0.54729 0.0
C3543 C 0.09318 0.56767 0.54515 0.0
C3544 C 0.08871 0.57475 0.5259 0.0
C3545 C 0.09776 0.56635 0.50912 0.0
C3546 C 0.04602 0.57306 0.57537 0.0
C3547 C 0.05326 0.5726 0.59497 0.0
C3548 C 0.05909 0.57285 0.55925 0.0
C3549 C 0.0798 0.57223 0.56229 0.0
C3550 C 0.08707 0.5733 0.58198 0.0
C3551 C 0.07388 0.57353 0.5982 0.0
H3552 H 0.82783 0.34979 0.7471 0.0
H3553 H 0.78219 0.37386 0.78522 0.0
H3554 H 0.84393 0.33447 0.77604 0.0
H3555 H 0.79756 0.35808 0.81404 0.0
H3556 H 0.82508 0.32755 0.86448 0.0
H3557 H 0.82341 0.35238 0.83783 0.0
H3558 H 0.83388 0.30601 0.79431 0.0
H3559 H 0.83619 0.28164 0.82088 0.0
C3560 C 0.82163 0.35224 0.76181 0.0
C3561 C 0.80389 0.36294 0.76411 0.0
C3562 C 0.83069 0.34337 0.77835 0.0
C3563 C 0.82191 0.34475 0.79739 0.0
C3564 C 0.80494 0.35683 0.79974 0.0
C3565 C 0.79603 0.36583 0.78324 0.0
C3566 C 0.82784 0.3229 0.84926 0.0
C3567 C 0.83057 0.30268 0.84468 0.0
C3568 C 0.82665 0.33706 0.83396 0.0
C3569 C 0.82816 0.3312 0.81384 0.0
C3570 C 0.83278 0.31121 0.80955 0.0
C3571 C 0.83399 0.29715 0.82479 0.0
H3572 H 0.53531 0.9594 0.48192 0.0
H3573 H 0.57647 0.97857 0.43644 0.0
H3574 H 0.56083 0.96418 0.50725 0.0
H3575 H 0.60226 0.98313 0.46177 0.0
H3576 H 0.61693 0.02746 0.51479 0.0
H3577 H 0.6021 1.01029 0.48647 0.0
H3578 H 0.5937 0.95777 0.52275 0.0
H3579 H 0.60866 0.97527 0.55125 0.0
C3580 C 0.55011 0.96386 0.47728 0.0
C3581 C 0.55388 0.96882 0.45729 0.0
C3582 C 0.56479 0.96653 0.49177 0.0
C3583 C 0.5835 0.97433 0.48656 0.0
C3584 C 0.58789 0.97733 0.46626 0.0
C3585 C 0.5732 0.97455 0.45173 0.0
C3586 C 0.61245 1.01204 0.51647 0.0
C3587 C 0.61377 1.00265 0.53508 0.0
C3588 C 0.60407 1.00213 0.50025 0.0
C3589 C 0.59662 0.98266 0.50236 0.0
C3590 C 0.59919 0.9728 0.52071 0.0
C3591 C 0.60778 0.98273 0.53696 0.0
H3592 H 0.22946 0.21786 0.86642 0.0
H3593 H 0.22575 0.26351 0.82138 0.0
H3594 H 0.23106 0.19231 0.84031 0.0
H3595 H 0.22749 0.23828 0.79539 0.0
H3596 H 0.23073 0.19272 0.74985 0.0
H3597 H 0.21403 0.20878 0.77811 0.0
H3598 H 0.25941 0.18601 0.81761 0.0
H3599 H 0.2758 0.17003 0.78943 0.0
C3600 C 0.22838 0.22233 0.85095 0.0
C3601 C 0.22774 0.24259 0.84582 0.0
C3602 C 0.22937 0.20777 0.83603 0.0
C3603 C 0.22952 0.21327 0.81578 0.0
C3604 C 0.22718 0.23347 0.8108 0.0
C3605 C 0.22639 0.24797 0.82566 0.0
C3606 C 0.23651 0.19047 0.76475 0.0
C3607 C 0.25445 0.18022 0.76762 0.0
C3608 C 0.2271 0.19976 0.78088 0.0
C3609 C 0.23555 0.19889 0.80006 0.0
C3610 C 0.25239 0.18685 0.80311 0.0
C3611 C 0.26182 0.1777 0.78699 0.0
H3612 H 0.50746 0.60313 0.47233 0.0
H3613 H 0.4726 0.5584 0.44233 0.0
H3614 H 0.4855 0.60094 0.50137 0.0
H3615 H 0.45106 0.55548 0.47142 0.0
H3616 H 0.41468 0.55054 0.52583 0.0
H3617 H 0.42771 0.56683 0.496 0.0
H3618 H 0.48424 0.57519 0.52558 0.0
H3619 H 0.47096 0.55976 0.55546 0.0
C3620 C 0.49458 0.59343 0.47171 0.0
C3621 C 0.49149 0.58109 0.45514 0.0
C3622 C 0.48216 0.59193 0.4884 0.0
C3623 C 0.4667 0.57776 0.48894 0.0
C3624 C 0.46264 0.5667 0.47156 0.0
C3625 C 0.47495 0.56836 0.45483 0.0
C3626 C 0.42967 0.55648 0.52616 0.0
C3627 C 0.44191 0.55358 0.54292 0.0
C3628 C 0.43721 0.56564 0.50898 0.0
C3629 C 0.45713 0.57211 0.50821 0.0
C3630 C 0.46879 0.57059 0.52556 0.0
C3631 C 0.46126 0.5615 0.54269 0.0
H3632 H 0.73074 0.83823 0.7703 0.0
H3633 H 0.68762 0.82762 0.72389 0.0
H3634 H 0.75748 0.83597 0.74613 0.0
H3635 H 0.71443 0.82615 0.69925 0.0
H3636 H 0.76672 0.78501 0.67731 0.0
H3637 H 0.73797 0.80046 0.69312 0.0
H3638 H 0.77625 0.84585 0.71817 0.0
H3639 H 0.80511 0.8296 0.70288 0.0
C3640 C 0.72697 0.83615 0.75474 0.0
C3641 C 0.70715 0.83281 0.74902 0.0
C3642 C 0.74232 0.83499 0.74077 0.0
C3643 C 0.73822 0.83055 0.72069 0.0
C3644 C 0.71818 0.8292 0.71465 0.0
C3645 C 0.70277 0.8303 0.72871 0.0
C3646 C 0.76879 0.79867 0.68568 0.0
C3647 C 0.78797 0.80618 0.68897 0.0
C3648 C 0.75232 0.80762 0.6947 0.0
C3649 C 0.75475 0.82432 0.70719 0.0
C3650 C 0.77387 0.8328 0.70898 0.0
C3651 C 0.79037 0.82367 0.70011 0.0
H3652 H 0.8046 0.22276 0.85147 0.0
H3653 H 0.76607 0.26832 0.87501 0.0
H3654 H 0.77592 0.20632 0.83602 0.0
H3655 H 0.73751 0.25258 0.85912 0.0
H3656 H 0.68753 0.22464 0.82838 0.0
H3657 H 0.71395 0.22654 0.8534 0.0
H3658 H 0.75775 0.21597 0.80734 0.0
H3659 H 0.73139 0.2134 0.78278 0.0
C3660 C 0.78985 0.22886 0.85379 0.0
C3661 C 0.78738 0.24668 0.86437 0.0
C3662 C 0.77345 0.21961 0.84483 0.0
C3663 C 0.75438 0.22825 0.84603 0.0
C3664 C 0.75184 0.2453 0.85801 0.0
C3665 C 0.7682 0.25441 0.86708 0.0
C3666 C 0.70276 0.22189 0.82384 0.0
C3667 C 0.70746 0.21908 0.80363 0.0
C3668 C 0.71793 0.22323 0.83811 0.0
C3669 C 0.73807 0.22178 0.83239 0.0
C3670 C 0.7425 0.21703 0.81244 0.0
C3671 C 0.72737 0.21568 0.79826 0.0
H3672 H 0.4868 0.99514 0.47126 0.0
H3673 H 0.49683 1.02526 0.41531 0.0
H3674 H 0.47163 1.02499 0.48477 0.0
H3675 H 0.48076 0.0551 0.42855 0.0
H3676 H 0.49035 0.108 0.47408 0.0
H3677 H 0.49238 0.07922 0.45204 0.0
H3678 H 0.44674 0.04972 0.48665 0.0
H3679 H 0.44553 0.07837 0.50915 0.0
C3680 C 0.48523 1.00801 0.46165 0.0
C3681 C 0.49339 1.00794 0.44237 0.0
C3682 C 0.4763 1.02514 0.46932 0.0
C3683 C 0.47515 0.04266 0.45786 0.0
C3684 C 0.4817 0.04201 0.43793 0.0
C3685 C 0.49073 1.02482 0.43025 0.0
C3686 C 0.48017 0.09568 0.47639 0.0
C3687 C 0.46771 0.09534 0.49315 0.0
C3688 C 0.48131 0.07912 0.46378 0.0
C3689 C 0.46996 0.06192 0.46772 0.0
C3690 C 0.45601 0.06252 0.4834 0.0
C3691 C 0.45507 0.079 0.49614 0.0
H3692 H 0.31923 0.34142 0.78878 0.0
H3693 H 0.3653 0.32629 0.83087 0.0
H3694 H 0.29415 0.33716 0.81459 0.0
H3695 H 0.3402 0.32245 0.85701 0.0
H3696 H 0.28914 0.27705 0.87455 0.0
H3697 H 0.31689 0.29497 0.85966 0.0
H3698 H 0.27783 0.3443 0.84624 0.0
H3699 H 0.24991 0.32596 0.86114 0.0
C3700 C 0.32403 0.33796 0.8038 0.0
C3701 C 0.34416 0.33393 0.80776 0.0
C3702 C 0.30966 0.33561 0.81868 0.0
C3703 C 0.3151 0.32914 0.83785 0.0
C3704 C 0.33549 0.32716 0.84232 0.0
C3705 C 0.3499 0.32956 0.82741 0.0
C3706 C 0.28672 0.29205 0.86911 0.0
C3707 C 0.2675 0.30016 0.8689 0.0
C3708 C 0.30262 0.3024 0.86061 0.0
C3709 C 0.29959 0.32104 0.85153 0.0
C3710 C 0.28061 0.32989 0.85291 0.0
C3711 C 0.26468 0.31951 0.86156 0.0
H3712 H 0.05765 0.05537 0.97325 0.0
H3713 H 0.05043 0.02588 0.91649 0.0
H3714 H 0.07311 0.02567 0.98678 0.0
H3715 H 0.06676 0.99626 0.9298 0.0
H3716 H 0.05695 0.9426 0.97445 0.0
H3717 H 0.05458 0.97168 0.95289 0.0
H3718 H 0.09907 1.00161 0.98856 0.0
H3719 H 0.10076 0.97253 1.01049 0.0
C3720 C 0.05983 0.04268 0.96351 0.0
C3721 C 0.05241 0.04286 0.94394 0.0
C3722 C 0.06895 0.02567 0.9712 0.0
C3723 C 0.071 1.0084 0.95947 0.0
C3724 C 0.06513 1.00917 0.93935 0.0
C3725 C 0.05593 0.02624 0.93165 0.0
C3726 C 0.06682 0.95509 0.97709 0.0
C3727 C 0.07914 0.95539 0.99393 0.0
C3728 C 0.06549 0.97181 0.96476 0.0
C3729 C 0.07644 0.98917 0.96913 0.0
C3730 C 0.09018 0.98864 0.98497 0.0
C3731 C 0.09138 0.97194 0.99738 0.0
H3732 H 0.8258 0.19634 0.26144 0.0
H3733 H 0.85814 0.23735 0.22418 0.0
H3734 H 0.79694 0.19896 0.23942 0.0
H3735 H 0.82919 0.24086 0.20262 0.0
H3736 H 0.77456 0.24781 0.16675 0.0
H3737 H 0.80365 0.23054 0.18007 0.0
H3738 H 0.7742 0.22555 0.23718 0.0
H3739 H 0.74504 0.24188 0.22363 0.0
C3740 C 0.82694 0.20529 0.24805 0.0
C3741 C 0.84415 0.21649 0.24433 0.0
C3742 C 0.81034 0.20707 0.23559 0.0
C3743 C 0.8105 0.22049 0.21945 0.0
C3744 C 0.82846 0.23026 0.21475 0.0
C3745 C 0.84513 0.22824 0.22708 0.0
C3746 C 0.77408 0.24242 0.18196 0.0
C3747 C 0.75759 0.24652 0.19425 0.0
C3748 C 0.79086 0.23269 0.18967 0.0
C3749 C 0.79149 0.22685 0.20982 0.0
C3750 C 0.77434 0.22961 0.22157 0.0
C3751 C 0.75762 0.23924 0.21387 0.0
H3752 H 0.52529 1.00919 0.12834 0.0
H3753 H 0.47792 0.04941 0.11253 0.0
H3754 H 0.50766 0.98182 0.11243 0.0
H3755 H 0.45993 1.02189 0.09654 0.0
H3756 H 0.4661 0.98114 0.03877 0.0
H3757 H 0.46933 1.00591 0.06505 0.0
H3758 H 0.47962 0.95908 0.10797 0.0
H3759 H 0.47674 0.93427 0.08139 0.0
C3760 C 0.51064 1.01191 0.12217 0.0
C3761 C 0.50294 0.0313 0.12155 0.0
C3762 C 0.50047 0.99623 0.11307 0.0
C3763 C 0.48246 0.99969 0.10297 0.0
C3764 C 0.47387 1.0188 0.10401 0.0
C3765 C 0.48404 0.03451 0.11329 0.0
C3766 C 0.4684 0.97613 0.05394 0.0
C3767 C 0.47141 0.95584 0.05802 0.0
C3768 C 0.47012 0.99031 0.06907 0.0
C3769 C 0.47499 0.98451 0.08861 0.0
C3770 C 0.47609 0.96404 0.09302 0.0
C3771 C 0.47427 0.94981 0.07785 0.0
H3772 H 0.57731 0.49606 0.1007 0.0
H3773 H 0.53158 0.53422 0.12448 0.0
H3774 H 0.59386 0.52501 0.08584 0.0
H3775 H 0.54742 0.56306 0.10917 0.0
H3776 H 0.57545 0.61351 0.07928 0.0
H3777 H 0.57349 0.58673 0.10395 0.0
H3778 H 0.58431 0.54354 0.05736 0.0
H3779 H 0.58689 0.57024 0.03315 0.0
C3780 C 0.57118 0.51077 0.10319 0.0
C3781 C 0.55327 0.51308 0.11364 0.0
C3782 C 0.5805 0.52732 0.09458 0.0
C3783 C 0.57184 0.54639 0.096 0.0
C3784 C 0.5547 0.54874 0.10788 0.0
C3785 C 0.54552 0.53222 0.11661 0.0
C3786 C 0.57824 0.59834 0.07456 0.0
C3787 C 0.58112 0.59388 0.0543 0.0
C3788 C 0.57688 0.58296 0.08862 0.0
C3789 C 0.57838 0.5629 0.08264 0.0
C3790 C 0.58321 0.55873 0.06265 0.0
C3791 C 0.58458 0.57405 0.04868 0.0
H3792 H 0.10826 0.40319 0.21843 0.0
H3793 H 0.16512 0.41437 0.24618 0.0
H3794 H 0.1167 0.42692 0.19199 0.0
H3795 H 0.17371 0.43749 0.21978 0.0
H3796 H 0.17904 0.4905 0.17812 0.0
H3797 H 0.16784 0.46929 0.2056 0.0
H3798 H 0.13751 0.43106 0.16364 0.0
H3799 H 0.14815 0.45244 0.13648 0.0
C3800 C 0.12254 0.41066 0.21891 0.0
C3801 C 0.13595 0.40676 0.23451 0.0
C3802 C 0.12748 0.42424 0.20367 0.0
C3803 C 0.14596 0.43432 0.20361 0.0
C3804 C 0.15923 0.43043 0.21934 0.0
C3805 C 0.15432 0.41692 0.23449 0.0
C3806 C 0.16982 0.47769 0.17481 0.0
C3807 C 0.16455 0.47329 0.15501 0.0
C3808 C 0.16348 0.46537 0.19057 0.0
C3809 C 0.15174 0.44826 0.18699 0.0
C3810 C 0.14622 0.44416 0.16719 0.0
C3811 C 0.15248 0.45646 0.1515 0.0
H3812 H 0.70128 0.65177 0.16739 0.0
H3813 H 0.74214 0.62425 0.12605 0.0
H3814 H 0.68047 0.66252 0.13984 0.0
H3815 H 0.72146 0.63552 0.09824 0.0
H3816 H 0.66798 0.63721 0.05564 0.0
H3817 H 0.69056 0.62878 0.08255 0.0
H3818 H 0.6762 0.68412 0.11205 0.0
H3819 H 0.65306 0.6924 0.08506 0.0
C3820 C 0.70604 0.64821 0.15238 0.0
C3821 C 0.72351 0.63703 0.14908 0.0
C3822 C 0.69405 0.65454 0.13646 0.0
C3823 C 0.69907 0.64996 0.1166 0.0
C3824 C 0.71681 0.63914 0.11326 0.0
C3825 C 0.72883 0.63277 0.12925 0.0
C3826 C 0.66959 0.64769 0.06781 0.0
C3827 C 0.65853 0.66553 0.06807 0.0
C3828 C 0.68279 0.64288 0.08327 0.0
C3829 C 0.68546 0.65571 0.09965 0.0
C3830 C 0.67449 0.67368 0.09987 0.0
C3831 C 0.66125 0.67853 0.0843 0.0
H3832 H 0.91049 0.08925 0.13631 0.0
H3833 H 0.86426 0.06525 0.17391 0.0
H3834 H 0.92264 0.1094 0.16384 0.0
H3835 H 0.87554 0.08627 0.20126 0.0
H3836 H 0.90678 0.11527 0.25285 0.0
H3837 H 0.89779 0.09313 0.22571 0.0
H3838 H 0.91864 0.13699 0.18332 0.0
H3839 H 0.92885 0.15853 0.21087 0.0
C3840 C 0.90287 0.08829 0.15051 0.0
C3841 C 0.88642 0.07548 0.15286 0.0
C3842 C 0.90973 0.1001 0.16637 0.0
C3843 C 0.90017 0.09983 0.18508 0.0
C3844 C 0.88374 0.08683 0.18739 0.0
C3845 C 0.87712 0.07472 0.1716 0.0
C3846 C 0.90967 0.12008 0.23771 0.0
C3847 C 0.91862 0.13867 0.23406 0.0
C3848 C 0.90425 0.10742 0.222 0.0
C3849 C 0.90711 0.11309 0.20196 0.0
C3850 C 0.91638 0.1317 0.19837 0.0
C3851 C 0.92224 0.1442 0.2142 0.0
H3852 H 0.3493 0.89904 0.16749 0.0
H3853 H 0.30778 0.92483 0.1258 0.0
H3854 H 0.37049 0.88851 0.14002 0.0
H3855 H 0.32881 0.91382 0.09813 0.0
H3856 H 0.38232 0.91351 0.05564 0.0
H3857 H 0.35963 0.92155 0.08261 0.0
H3858 H 0.37524 0.86666 0.11224 0.0
H3859 H 0.39847 0.85876 0.08515 0.0
C3860 C 0.3445 0.90225 0.15242 0.0
C3861 C 0.32674 0.91289 0.14897 0.0
C3862 C 0.35669 0.89607 0.13657 0.0
C3863 C 0.35157 0.90029 0.11667 0.0
C3864 C 0.33353 0.91052 0.1132 0.0
C3865 C 0.32132 0.91673 0.1291 0.0
C3866 C 0.38096 0.90304 0.06785 0.0
C3867 C 0.39237 0.88543 0.06811 0.0
C3868 C 0.36771 0.90763 0.08334 0.0
C3869 C 0.36535 0.8948 0.09976 0.0
C3870 C 0.3767 0.87708 0.10001 0.0
C3871 C 0.38999 0.87244 0.08439 0.0
H3872 H 0.18582 0.56508 0.37657 0.0
H3873 H 0.13959 0.58882 0.4143 0.0
H3874 H 0.17492 0.58664 0.34953 0.0
H3875 H 0.12782 0.60956 0.38706 0.0
H3876 H 0.12204 0.65932 0.3406 0.0
H3877 H 0.13202 0.6374 0.36792 0.0
H3878 H 0.15291 0.59403 0.32504 0.0
H3879 H 0.14412 0.61649 0.29816 0.0
C3880 C 0.17304 0.57461 0.37898 0.0
C3881 C 0.16361 0.5751 0.39767 0.0
C3882 C 0.16663 0.58704 0.36335 0.0
C3883 C 0.15031 0.60014 0.36576 0.0
C3884 C 0.14065 0.60019 0.38444 0.0
C3885 C 0.14729 0.58802 0.40013 0.0
C3886 C 0.12863 0.64503 0.3371 0.0
C3887 C 0.1323 0.63974 0.31716 0.0
C3888 C 0.13436 0.6323 0.3528 0.0
C3889 C 0.14356 0.6137 0.34902 0.0
C3890 C 0.1465 0.60829 0.32892 0.0
C3891 C 0.1412 0.62116 0.31334 0.0
H3892 H 0.90827 0.6794 0.96232 0.0
H3893 H 0.86449 0.65871 1.00449 0.0
H3894 H 0.8866 0.6693 0.93486 0.0
H3895 H 0.84229 0.64977 0.9774 0.0
H3896 H 0.81372 0.61654 0.92564 0.0
H3897 H 0.83497 0.62746 0.95297 0.0
H3898 H 0.85903 0.67401 0.91547 0.0
H3899 H 0.83861 0.66224 0.888 0.0
C3900 C 0.89383 0.67308 0.96572 0.0
C3901 C 0.88818 0.66986 0.98563 0.0
C3902 C 0.88125 0.66729 0.94994 0.0
C3903 C 0.86244 0.65848 0.95359 0.0
C3904 C 0.8567 0.65592 0.97365 0.0
C3905 C 0.86942 0.66129 0.98933 0.0
C3906 C 0.82342 0.62922 0.92332 0.0
C3907 C 0.82434 0.63849 0.90458 0.0
C3908 C 0.83567 0.63562 0.93909 0.0
C3909 C 0.84902 0.65177 0.93675 0.0
C3910 C 0.84946 0.6613 0.91803 0.0
C3911 C 0.83748 0.65467 0.90221 0.0
H3912 H 0.90097 0.9516 0.41834 0.0
H3913 H 0.87552 0.99271 0.37602 0.0
H3914 H 0.91203 0.93029 0.39109 0.0
H3915 H 0.887 0.9716 0.34866 0.0
H3916 H 0.88769 0.91795 0.30657 0.0
H3917 H 0.87932 0.94055 0.33349 0.0
H3918 H 0.93425 0.92558 0.3633 0.0
H3919 H 0.94252 0.90243 0.3362 0.0
C3920 C 0.89796 0.95629 0.4032 0.0
C3921 C 0.88725 0.97396 0.39949 0.0
C3922 C 0.90443 0.94403 0.38749 0.0
C3923 C 0.90041 0.94901 0.3675 0.0
C3924 C 0.89014 0.96698 0.36379 0.0
C3925 C 0.88366 0.97924 0.37953 0.0
C3926 C 0.8981 0.91943 0.3188 0.0
C3927 C 0.91584 0.90824 0.31909 0.0
C3928 C 0.89333 0.93263 0.33427 0.0
C3929 C 0.90608 0.93517 0.35071 0.0
C3930 C 0.92391 0.924 0.35103 0.0
C3931 C 0.92875 0.91077 0.33541 0.0
H3932 H 0.21048 0.89153 0.88687 0.0
H3933 H 0.23589 0.93632 0.92528 0.0
H3934 H 0.19018 0.87932 0.91426 0.0
H3935 H 0.21475 0.925 0.95252 0.0
H3936 H 0.18537 0.8933 1.00372 0.0
H3937 H 0.20742 0.9025 0.97659 0.0
H3938 H 0.16289 0.88337 0.93413 0.0
H3939 H 0.14139 0.87296 0.96164 0.0
C3940 C 0.21174 0.89882 0.90122 0.0
C3941 C 0.225 0.91488 0.90382 0.0
C3942 C 0.19983 0.89193 0.91701 0.0
C3943 C 0.20046 0.90106 0.93594 0.0
C3944 C 0.2139 0.91711 0.93849 0.0
C3945 C 0.22608 0.92376 0.92276 0.0
C3946 C 0.18037 0.89084 0.98856 0.0
C3947 C 0.16159 0.8823 0.98491 0.0
C3948 C 0.193 0.89639 0.97285 0.0
C3949 C 0.18715 0.89406 0.9528 0.0
C3950 C 0.16834 0.88523 0.94919 0.0
C3951 C 0.15585 0.87925 0.96501 0.0
H3952 H 0.17407 0.17557 0.49248 0.0
H3953 H 0.13303 0.15128 0.44936 0.0
H3954 H 0.202 0.16409 0.47208 0.0
H3955 H 0.16076 0.14028 0.42884 0.0
H3956 H 0.21541 0.10953 0.40188 0.0
H3957 H 0.18804 0.11775 0.42466 0.0
H3958 H 0.21851 0.1718 0.44167 0.0
H3959 H 0.24572 0.16344 0.41941 0.0
C3960 C 0.17096 0.1677 0.47873 0.0
C3961 C 0.15118 0.16444 0.47268 0.0
C3962 C 0.18702 0.16121 0.46689 0.0
C3963 C 0.18381 0.15125 0.4486 0.0
C3964 C 0.164 0.14761 0.44285 0.0
C3965 C 0.14799 0.15407 0.45466 0.0
C3966 C 0.21629 0.12309 0.41058 0.0
C3967 C 0.23286 0.13577 0.40869 0.0
C3968 C 0.20052 0.1279 0.42361 0.0
C3969 C 0.20092 0.14549 0.4352 0.0
C3970 C 0.21764 0.15798 0.43338 0.0
C3971 C 0.23328 0.15322 0.42038 0.0
H3972 H 0.42628 0.62449 0.80879 0.0
H3973 H 0.39711 0.66607 0.84823 0.0
H3974 H 0.41536 0.59694 0.83003 0.0
H3975 H 0.38673 0.6388 0.86964 0.0
H3976 H 0.35779 0.58392 0.89789 0.0
H3977 H 0.36576 0.61058 0.87424 0.0
H3978 H 0.4221 0.58235 0.86148 0.0
H3979 H 0.41397 0.55576 0.88455 0.0
C3980 C 0.41746 0.62778 0.8219 0.0
C3981 C 0.41262 0.6476 0.82667 0.0
C3982 C 0.4113 0.61197 0.83424 0.0
C3983 C 0.40015 0.61548 0.85176 0.0
C3984 C 0.39499 0.6353 0.85623 0.0
C3985 C 0.40109 0.65105 0.8439 0.0
C3986 C 0.37181 0.58338 0.88995 0.0
C3987 C 0.38517 0.5676 0.89324 0.0
C3988 C 0.37649 0.59875 0.87642 0.0
C3989 C 0.39463 0.59876 0.86573 0.0
C3990 C 0.40785 0.58285 0.86901 0.0
C3991 C 0.40321 0.56758 0.88249 0.0
H3992 H 0.8751 0.37624 0.49465 0.0
H3993 H 0.91617 0.40196 0.45239 0.0
H3994 H 0.84719 0.38814 0.47457 0.0
H3995 H 0.88845 0.41333 0.43208 0.0
H3996 H 0.83363 0.44408 0.40548 0.0
H3997 H 0.86106 0.43557 0.42805 0.0
H3998 H 0.8307 0.38122 0.44427 0.0
H3999 H 0.80341 0.3899 0.42233 0.0
C4000 C 0.87822 0.3845 0.48115 0.0
C4001 C 0.89799 0.38805 0.47524 0.0
C4002 C 0.86217 0.39123 0.46947 0.0
C4003 C 0.86538 0.40169 0.45147 0.0
C4004 C 0.8852 0.40562 0.44588 0.0
C4005 C 0.9012 0.39894 0.45755 0.0
C4006 C 0.83277 0.43042 0.41401 0.0
C4007 C 0.8162 0.41776 0.41201 0.0
C4008 C 0.84859 0.42542 0.4269 0.0
C4009 C 0.84825 0.40765 0.4382 0.0
C4010 C 0.83153 0.39518 0.43624 0.0
C4011 C 0.81583 0.40014 0.42342 0.0
H4012 H 0.62356 0.92652 0.80792 0.0
H4013 H 0.65295 0.885 0.84717 0.0
H4014 H 0.63472 0.95411 0.82899 0.0
H4015 H 0.6636 0.91233 0.86841 0.0
H4016 H 0.69283 0.96736 0.89628 0.0
H4017 H 0.68466 0.94061 0.87276 0.0
H4018 H 0.62821 0.96877 0.86049 0.0
H4019 H 0.63651 0.99543 0.88343 0.0
C4020 C 0.63248 0.92325 0.82095 0.0
C4021 C 0.63731 0.90344 0.82572 0.0
C4022 C 0.63878 0.93909 0.8332 0.0
C4023 C 0.65007 0.93562 0.85062 0.0
C4024 C 0.65522 0.9158 0.85508 0.0
C4025 C 0.64897 0.90002 0.84285 0.0
C4026 C 0.67874 0.96787 0.88847 0.0
C4027 C 0.66539 0.98365 0.89186 0.0
C4028 C 0.67396 0.95244 0.87501 0.0
C4029 C 0.65572 0.95238 0.86451 0.0
C4030 C 0.64252 0.9683 0.86788 0.0
C4031 C 0.64727 0.98361 0.88129 0.0
H4032 H 0.13705 0.91127 0.09062 0.0
H4033 H 0.17462 0.86527 0.06623 0.0
H4034 H 0.16437 0.92297 0.11129 0.0
H4035 H 0.20174 0.87609 0.08772 0.0
H4036 H 0.25319 0.9068 0.11752 0.0
H4037 H 0.22621 0.89812 0.09513 0.0
H4038 H 0.18366 0.91862 0.13899 0.0
H4039 H 0.21107 0.92851 0.16084 0.0
C4040 C 0.1512 0.90361 0.08967 0.0
C4041 C 0.15359 0.88737 0.07658 0.0
C4042 C 0.16694 0.91021 0.10179 0.0
C4043 C 0.18559 0.90059 0.10154 0.0
C4044 C 0.18793 0.88435 0.08828 0.0
C4045 C 0.17226 0.87799 0.07589 0.0
C4046 C 0.23805 0.90967 0.1223 0.0
C4047 C 0.23435 0.91843 0.141 0.0
C4048 C 0.22242 0.90443 0.10948 0.0
C4049 C 0.20239 0.90729 0.11505 0.0
C4050 C 0.19872 0.91635 0.13376 0.0
C4051 C 0.21448 0.92203 0.14645 0.0
H4052 H 0.12544 0.62443 0.24483 0.0
H4053 H 0.15187 0.6655 0.203 0.0
H4054 H 0.13718 0.59649 0.22457 0.0
H4055 H 0.16302 0.6378 0.18254 0.0
H4056 H 0.19347 0.58312 0.15553 0.0
H4057 H 0.18499 0.61043 0.1783 0.0
H4058 H 0.13055 0.58008 0.19424 0.0
H4059 H 0.13923 0.55289 0.17215 0.0
C4060 C 0.1338 0.62753 0.23138 0.0
C4061 C 0.13765 0.64731 0.22566 0.0
C4062 C 0.14044 0.61148 0.2196 0.0
C4063 C 0.15107 0.6147 0.20169 0.0
C4064 C 0.15521 0.63453 0.19627 0.0
C4065 C 0.14865 0.65052 0.20804 0.0
C4066 C 0.17979 0.58224 0.16403 0.0
C4067 C 0.16712 0.56569 0.16192 0.0
C4068 C 0.17481 0.59799 0.17704 0.0
C4069 C 0.15702 0.59762 0.18833 0.0
C4070 C 0.14453 0.58093 0.18624 0.0
C4071 C 0.14949 0.56529 0.17333 0.0
H4072 H 0.87515 0.67836 0.05997 0.0
H4073 H 0.91641 0.65021 0.10037 0.0
H4074 H 0.8474 0.66719 0.0808 0.0
H4075 H 0.8889 0.63954 0.12136 0.0
H4076 H 0.83389 0.60985 0.14878 0.0
H4077 H 0.86094 0.61815 0.12568 0.0
H4078 H 0.83192 0.67382 0.11182 0.0
H4079 H 0.80497 0.66536 0.13436 0.0
C4080 C 0.87834 0.66974 0.07323 0.0
C4081 C 0.89814 0.66526 0.07837 0.0
C4082 C 0.86239 0.66342 0.08533 0.0
C4083 C 0.86572 0.65245 0.10299 0.0
C4084 C 0.88553 0.64766 0.10784 0.0
C4085 C 0.90143 0.65393 0.09576 0.0
C4086 C 0.83326 0.62379 0.14071 0.0
C4087 C 0.81714 0.63687 0.14355 0.0
C4088 C 0.84886 0.62866 0.1275 0.0
C4089 C 0.84879 0.64672 0.11667 0.0
C4090 C 0.83253 0.65964 0.11947 0.0
C4091 C 0.81704 0.65481 0.13264 0.0
H4092 H 0.89299 1.00339 0.18535 0.0
H4093 H 0.87212 0.96073 0.14213 0.0
H4094 H 0.90192 0.97661 0.2079 0.0
H4095 H 0.88221 0.93356 0.16416 0.0
H4096 H 0.88941 0.8873 0.21281 0.0
H4097 H 0.87766 0.91446 0.192 0.0
H4098 H 0.92414 0.95232 0.21557 0.0
H4099 H 0.93506 0.92531 0.2372 0.0
C4100 C 0.89036 0.98819 0.18062 0.0
C4101 C 0.88174 0.98427 0.1619 0.0
C4102 C 0.89574 0.97268 0.19354 0.0
C4103 C 0.89314 0.95257 0.18807 0.0
C4104 C 0.88426 0.94869 0.16932 0.0
C4105 C 0.87847 0.96431 0.15653 0.0
C4106 C 0.89697 0.90153 0.21376 0.0
C4107 C 0.91313 0.90408 0.22688 0.0
C4108 C 0.89035 0.91717 0.20154 0.0
C4109 C 0.89985 0.9359 0.20172 0.0
C4110 C 0.91599 0.93843 0.21505 0.0
C4111 C 0.92239 0.92284 0.22753 0.0
H4112 H 0.45244 0.13644 0.14872 0.0
H4113 H 0.49069 0.17793 0.17956 0.0
H4114 H 0.4314 0.1637 0.13779 0.0
H4115 H 0.46981 0.2055 0.16808 0.0
H4116 H 0.41513 0.24639 0.16508 0.0
H4117 H 0.43809 0.21994 0.17382 0.0
H4118 H 0.42761 0.19196 0.11679 0.0
H4119 H 0.40407 0.21846 0.10819 0.0
C4120 C 0.45658 0.15144 0.15297 0.0
C4121 C 0.47335 0.15488 0.16512 0.0
C4122 C 0.44448 0.16719 0.14655 0.0
C4123 C 0.44872 0.18698 0.15198 0.0
C4124 C 0.46579 0.19049 0.16378 0.0
C4125 C 0.47791 0.17466 0.17028 0.0
C4126 C 0.41768 0.23465 0.1543 0.0
C4127 C 0.40759 0.23463 0.13589 0.0
C4128 C 0.43109 0.21947 0.1593 0.0
C4129 C 0.43494 0.20367 0.14607 0.0
C4130 C 0.42496 0.20371 0.12753 0.0
C4131 C 0.41149 0.21898 0.1225 0.0
H4132 H 0.45111 0.91632 0.40332 0.0
H4133 H 0.4909 0.87495 0.37438 0.0
H4134 H 0.43012 0.88888 0.4141 0.0
H4135 H 0.47006 0.84724 0.38567 0.0
H4136 H 0.41598 0.80544 0.38752 0.0
H4137 H 0.43878 0.83218 0.37914 0.0
H4138 H 0.4259 0.86077 0.43537 0.0
H4139 H 0.40253 0.83393 0.44361 0.0
C4140 C 0.45559 0.90132 0.39946 0.0
C4141 C 0.47279 0.89798 0.38786 0.0
C4142 C 0.44352 0.88546 0.4058 0.0
C4143 C 0.44819 0.86564 0.40081 0.0
C4144 C 0.46569 0.86225 0.3896 0.0
C4145 C 0.47779 0.87817 0.38322 0.0
C4146 C 0.41797 0.81737 0.39821 0.0
C4147 C 0.40725 0.81743 0.41629 0.0
C4148 C 0.43129 0.83272 0.39343 0.0
C4149 C 0.43444 0.8488 0.40653 0.0
C4150 C 0.42382 0.84882 0.42473 0.0
C4151 C 0.41045 0.83335 0.42956 0.0
H4152 H 0.12283 0.30999 0.92948 0.0
H4153 H 0.16408 0.34834 0.89844 0.0
H4154 H 0.09522 0.33103 0.91843 0.0
H4155 H 0.13677 0.36954 0.88793 0.0
H4156 H 0.08171 0.39702 0.85893 0.0
H4157 H 0.10832 0.37349 0.86722 0.0
H4158 H 0.08088 0.36274 0.92446 0.0
H4159 H 0.05432 0.38568 0.91603 0.0
C4160 C 0.12603 0.32283 0.92025 0.0
C4161 C 0.14576 0.32736 0.9149 0.0
C4162 C 0.11019 0.33505 0.914 0.0
C4163 C 0.11361 0.35219 0.90226 0.0
C4164 C 0.13334 0.35641 0.89665 0.0
C4165 C 0.14911 0.34422 0.90283 0.0
C4166 C 0.08133 0.38954 0.87322 0.0
C4167 C 0.06579 0.39335 0.88675 0.0
C4168 C 0.09667 0.37609 0.87807 0.0
C4169 C 0.09689 0.36602 0.89657 0.0
C4170 C 0.08121 0.3698 0.90995 0.0
C4171 C 0.06596 0.3832 0.90514 0.0
H4172 H 0.61505 0.75291 0.40853 0.0
H4173 H 0.6599 0.71132 0.42777 0.0
H4174 H 0.59329 0.72559 0.39931 0.0
H4175 H 0.63869 0.68362 0.41729 0.0
H4176 H 0.59162 0.63577 0.40886 0.0
H4177 H 0.61178 0.6632 0.42123 0.0
H4178 H 0.58612 0.70181 0.37653 0.0
H4179 H 0.56515 0.67455 0.36509 0.0
C4180 C 0.62031 0.73782 0.41074 0.0
C4181 C 0.63924 0.73436 0.41898 0.0
C4182 C 0.60785 0.72199 0.40518 0.0
C4183 C 0.61404 0.70202 0.40714 0.0
C4184 C 0.63299 0.6986 0.4157 0.0
C4185 C 0.64531 0.71453 0.42172 0.0
C4186 C 0.59011 0.6502 0.40181 0.0
C4187 C 0.57658 0.65289 0.38601 0.0
C4188 C 0.60193 0.66602 0.4088 0.0
C4189 C 0.60092 0.68508 0.40001 0.0
C4190 C 0.58726 0.68769 0.38418 0.0
C4191 C 0.57518 0.67193 0.37745 0.0
H4192 H 0.38624 0.71185 0.3899 0.0
H4193 H 0.42384 0.7366 0.43571 0.0
H4194 H 0.41376 0.69165 0.37788 0.0
H4195 H 0.4512 0.71558 0.42454 0.0
H4196 H 0.50279 0.68676 0.39291 0.0
H4197 H 0.47558 0.70867 0.40211 0.0
H4198 H 0.43343 0.6642 0.38218 0.0
H4199 H 0.461 0.64284 0.37181 0.0
C4200 C 0.40044 0.71299 0.39745 0.0
C4201 C 0.40278 0.72603 0.41373 0.0
C4202 C 0.4163 0.70114 0.39066 0.0
C4203 C 0.43503 0.70163 0.40013 0.0
C4204 C 0.43732 0.71485 0.4164 0.0
C4205 C 0.42153 0.72696 0.42296 0.0
C4206 C 0.48769 0.68174 0.39028 0.0
C4207 C 0.48414 0.66302 0.38152 0.0
C4208 C 0.47194 0.69428 0.39582 0.0
C4209 C 0.45195 0.6884 0.39323 0.0
C4210 C 0.44844 0.66966 0.38422 0.0
C4211 C 0.4643 0.65726 0.37827 0.0
H4212 H 0.14582 0.83225 0.60875 0.0
H4213 H 0.13014 0.80214 0.66339 0.0
H4214 H 0.12341 0.85965 0.6177 0.0
H4215 H 0.10842 0.82943 0.67252 0.0
H4216 H 0.05832 0.87403 0.67861 0.0
H4217 H 0.07809 0.84597 0.66641 0.0
H4218 H 0.11997 0.88702 0.63991 0.0
H4219 H 0.1 0.91484 0.65155 0.0
C4220 C 0.1376 0.83142 0.62261 0.0
C4221 C 0.13987 0.81489 0.63527 0.0
C4222 C 0.1248 0.84722 0.62786 0.0
C4223 C 0.1139 0.84691 0.6459 0.0
C4224 C 0.11613 0.83022 0.65837 0.0
C4225 C 0.12883 0.81453 0.65315 0.0
C4226 C 0.07165 0.87705 0.67004 0.0
C4227 C 0.07748 0.89679 0.66615 0.0
C4228 C 0.08313 0.86093 0.66311 0.0
C4229 C 0.10084 0.86405 0.65216 0.0
C4230 C 0.10638 0.88383 0.64799 0.0
C4231 C 0.0949 0.89989 0.65483 0.0
H4232 H 0.08075 0.65468 0.69464 0.0
H4233 H 0.05171 0.66894 0.63909 0.0
H4234 H 0.10802 0.67739 0.68595 0.0
H4235 H 0.07887 0.69095 0.63022 0.0
H4236 H 0.12275 0.74176 0.62433 0.0
H4237 H 0.09476 0.72167 0.63619 0.0
H4238 H 0.13583 0.68102 0.66436 0.0
H4239 H 0.16356 0.70133 0.65309 0.0
C4240 C 0.08013 0.66264 0.68063 0.0
C4241 C 0.06393 0.6599 0.66765 0.0
C4242 C 0.09585 0.67562 0.67553 0.0
C4243 C 0.09579 0.68622 0.65732 0.0
C4244 C 0.07945 0.68349 0.64451 0.0
C4245 C 0.06384 0.67062 0.64958 0.0
C4246 C 0.12578 0.72864 0.63321 0.0
C4247 C 0.1455 0.72326 0.63768 0.0
C4248 C 0.10971 0.71697 0.63994 0.0
C4249 C 0.11286 0.69951 0.65126 0.0
C4250 C 0.13261 0.69442 0.656 0.0
C4251 C 0.14862 0.7061 0.64937 0.0
H4252 H 0.92559 0.80751 0.62589 0.0
H4253 H 0.88498 0.84985 0.65215 0.0
H4254 H 0.95372 0.82735 0.63784 0.0
H4255 H 0.91287 0.86988 0.66352 0.0
H4256 H 0.96754 0.89619 0.69432 0.0
H4257 H 0.94012 0.87367 0.6857 0.0
H4258 H 0.97057 0.85751 0.63132 0.0
H4259 H 0.99789 0.87939 0.64014 0.0
C4260 C 0.92263 0.82098 0.63426 0.0
C4261 C 0.90292 0.82698 0.63798 0.0
C4262 C 0.9388 0.83251 0.64103 0.0
C4263 C 0.93576 0.85044 0.65167 0.0
C4264 C 0.916 0.85613 0.6557 0.0
C4265 C 0.8999 0.8446 0.64901 0.0
C4266 C 0.96842 0.88769 0.68062 0.0
C4267 C 0.98503 0.8897 0.668 0.0
C4268 C 0.95261 0.87482 0.67556 0.0
C4269 C 0.95296 0.86357 0.65774 0.0
C4270 C 0.96973 0.86551 0.64531 0.0
C4271 C 0.98544 0.8783 0.65035 0.0
H4272 H 0.64797 0.95114 0.63349 0.0
H4273 H 0.67312 0.99276 0.67558 0.0
H4274 H 0.63731 0.92979 0.66083 0.0
H4275 H 0.66202 0.97159 0.70305 0.0
H4276 H 0.66216 0.91807 0.74525 0.0
H4277 H 0.67015 0.94071 0.71825 0.0
H4278 H 0.61529 0.9249 0.68869 0.0
H4279 H 0.60741 0.90172 0.71585 0.0
C4280 C 0.65099 0.95594 0.64861 0.0
C4281 C 0.6615 0.97377 0.65222 0.0
C4282 C 0.64476 0.94365 0.66437 0.0
C4283 C 0.64881 0.94876 0.68432 0.0
C4284 C 0.65887 0.96688 0.68795 0.0
C4285 C 0.66512 0.97917 0.67215 0.0
C4286 C 0.65168 0.91937 0.73305 0.0
C4287 C 0.63408 0.90794 0.73284 0.0
C4288 C 0.65624 0.93259 0.71754 0.0
C4289 C 0.64338 0.9349 0.70116 0.0
C4290 C 0.6257 0.92349 0.70092 0.0
C4291 C 0.62108 0.91024 0.71657 0.0
H4292 H 0.20282 0.15092 0.66425 0.0
H4293 H 0.24131 0.12084 0.62243 0.0
H4294 H 0.18137 0.16146 0.63712 0.0
H4295 H 0.22003 0.13192 0.59499 0.0
H4296 H 0.16529 0.13424 0.55421 0.0
H4297 H 0.18838 0.12571 0.58066 0.0
H4298 H 0.1771 0.18242 0.6089 0.0
H4299 H 0.15344 0.19079 0.58244 0.0
C4300 C 0.20691 0.14675 0.6492 0.0
C4301 C 0.22387 0.13493 0.64562 0.0
C4302 C 0.19457 0.15294 0.63353 0.0
C4303 C 0.19878 0.1476 0.61368 0.0
C4304 C 0.21603 0.13612 0.61005 0.0
C4305 C 0.22837 0.12985 0.62579 0.0
C4306 C 0.16769 0.14498 0.56602 0.0
C4307 C 0.15735 0.16324 0.56612 0.0
C4308 C 0.18117 0.14011 0.58119 0.0
C4309 C 0.18484 0.15333 0.59706 0.0
C4310 C 0.17459 0.1717 0.59711 0.0
C4311 C 0.16105 0.17659 0.58185 0.0
H4312 H 0.37388 0.55824 0.6767 0.0
H4313 H 0.40325 0.59765 0.63523 0.0
H4314 H 0.38475 0.5794 0.70434 0.0
H4315 H 0.4136 0.61897 0.6626 0.0
H4316 H 0.44241 0.64709 0.71771 0.0
H4317 H 0.43447 0.62354 0.69092 0.0
H4318 H 0.37805 0.61078 0.71906 0.0
H4319 H 0.38613 0.63375 0.74577 0.0
C4320 C 0.38273 0.57133 0.67345 0.0
C4321 C 0.38764 0.57611 0.65363 0.0
C4322 C 0.38887 0.58362 0.68932 0.0
C4323 C 0.40007 0.60112 0.68588 0.0
C4324 C 0.4053 0.60559 0.66606 0.0
C4325 C 0.39922 0.59331 0.65025 0.0
C4326 C 0.42837 0.63917 0.71821 0.0
C4327 C 0.41497 0.64243 0.734 0.0
C4328 C 0.42372 0.62569 0.70275 0.0
C4329 C 0.40556 0.61504 0.70267 0.0
C4330 C 0.3923 0.61829 0.7186 0.0
C4331 C 0.39692 0.63171 0.73394 0.0
H4332 H 0.80856 0.42665 0.62575 0.0
H4333 H 0.84864 0.39805 0.66702 0.0
H4334 H 0.82944 0.41562 0.59795 0.0
H4335 H 0.86967 0.38753 0.63948 0.0
H4336 H 0.89733 0.35839 0.58435 0.0
H4337 H 0.87395 0.36636 0.61126 0.0
H4338 H 0.8607 0.42254 0.58291 0.0
H4339 H 0.88353 0.41442 0.55607 0.0
C4340 C 0.82173 0.41792 0.62892 0.0
C4341 C 0.8268 0.4133 0.64873 0.0
C4342 C 0.83386 0.4117 0.61296 0.0
C4343 C 0.85146 0.40068 0.6163 0.0
C4344 C 0.8562 0.3957 0.63612 0.0
C4345 C 0.8441 0.40188 0.65202 0.0
C4346 C 0.88934 0.37238 0.58383 0.0
C4347 C 0.89243 0.38571 0.56795 0.0
C4348 C 0.87596 0.37705 0.59935 0.0
C4349 C 0.86523 0.39515 0.59941 0.0
C4350 C 0.86828 0.40833 0.58339 0.0
C4351 C 0.88162 0.4037 0.56798 0.0
H4352 H 0.67387 0.05776 0.87469 0.0
H4353 H 0.64906 0.09935 0.91701 0.0
H4354 H 0.66278 0.07906 0.84733 0.0
H4355 H 0.63843 0.12082 0.8898 0.0
H4356 H 0.60837 0.14922 0.83521 0.0
H4357 H 0.61631 0.12588 0.86218 0.0
H4358 H 0.67085 0.10995 0.83207 0.0
H4359 H 0.66279 0.13275 0.80524 0.0
C4360 C 0.66596 0.07137 0.87819 0.0
C4361 C 0.66242 0.07673 0.89815 0.0
C4362 C 0.65971 0.08374 0.86246 0.0
C4363 C 0.64974 0.10189 0.86619 0.0
C4364 C 0.64579 0.10695 0.88618 0.0
C4365 C 0.65202 0.09459 0.90187 0.0
C4366 C 0.62198 0.14065 0.83433 0.0
C4367 C 0.63488 0.14297 0.81795 0.0
C4368 C 0.62664 0.1273 0.84987 0.0
C4369 C 0.64426 0.11581 0.84943 0.0
C4370 C 0.657 0.11813 0.83294 0.0
C4371 C 0.6524 0.13144 0.81752 0.0
H4372 H 0.30817 0.12438 0.42705 0.0
H4373 H 0.34708 0.15416 0.3854 0.0
H4374 H 0.32942 0.13535 0.45458 0.0
H4375 H 0.36848 0.16461 0.41264 0.0
H4376 H 0.39683 0.19347 0.46755 0.0
H4377 H 0.37308 0.18546 0.44099 0.0
H4378 H 0.36097 0.12883 0.469 0.0
H4379 H 0.38414 0.13699 0.49549 0.0
C4380 C 0.32116 0.13334 0.42374 0.0
C4381 C 0.32578 0.13833 0.40391 0.0
C4382 C 0.33351 0.13954 0.43955 0.0
C4383 C 0.35089 0.15088 0.43601 0.0
C4384 C 0.35519 0.15619 0.41617 0.0
C4385 C 0.34287 0.15005 0.40044 0.0
C4386 C 0.38901 0.17938 0.46807 0.0
C4387 C 0.39252 0.16594 0.48375 0.0
C4388 C 0.37542 0.17468 0.45275 0.0
C4389 C 0.36489 0.15644 0.4527 0.0
C4390 C 0.36837 0.14315 0.46853 0.0
C4391 C 0.38191 0.14781 0.48374 0.0
H4392 H 0.37394 0.49316 0.87553 0.0
H4393 H 0.40326 0.45385 0.91704 0.0
H4394 H 0.38511 0.47215 0.84789 0.0
H4395 H 0.41393 0.43267 0.88965 0.0
H4396 H 0.44317 0.40492 0.83449 0.0
H4397 H 0.435 0.42834 0.86134 0.0
H4398 H 0.37859 0.44074 0.83314 0.0
H4399 H 0.38689 0.4179 0.80639 0.0
C4400 C 0.38284 0.48012 0.87879 0.0
C4401 C 0.38764 0.47532 0.89861 0.0
C4402 C 0.38915 0.46792 0.86291 0.0
C4403 C 0.40043 0.45049 0.86636 0.0
C4404 C 0.40556 0.446 0.8862 0.0
C4405 C 0.3993 0.45819 0.90202 0.0
C4406 C 0.42909 0.41274 0.83399 0.0
C4407 C 0.41576 0.40942 0.81817 0.0
C4408 C 0.4243 0.42614 0.84948 0.0
C4409 C 0.40607 0.43665 0.84955 0.0
C4410 C 0.39289 0.43335 0.8336 0.0
C4411 C 0.39764 0.42 0.81823 0.0
H4412 H 0.74253 0.42752 0.42769 0.0
H4413 H 0.70094 0.4008 0.38656 0.0
H4414 H 0.72257 0.41532 0.45563 0.0
H4415 H 0.68077 0.38918 0.41428 0.0
H4416 H 0.65448 0.35802 0.4689 0.0
H4417 H 0.67705 0.36694 0.44157 0.0
H4418 H 0.6922 0.42153 0.4721 0.0
H4419 H 0.67032 0.41243 0.49932 0.0
C4420 C 0.72918 0.41902 0.42457 0.0
C4421 C 0.72344 0.41523 0.40478 0.0
C4422 C 0.71759 0.4121 0.44063 0.0
C4423 C 0.69984 0.40125 0.43739 0.0
C4424 C 0.69439 0.39717 0.41756 0.0
C4425 C 0.70598 0.404 0.40156 0.0
C4426 C 0.66277 0.37183 0.46981 0.0
C4427 C 0.6605 0.38443 0.48641 0.0
C4428 C 0.67566 0.37706 0.45406 0.0
C4429 C 0.68665 0.39502 0.45448 0.0
C4430 C 0.68442 0.40744 0.47122 0.0
C4431 C 0.67163 0.40223 0.48687 0.0
H4432 H 0.67534 0.67699 0.99298 0.0
H4433 H 0.63359 0.6496 0.95248 0.0
H4434 H 0.70286 0.66593 0.97182 0.0
H4435 H 0.6609 0.63903 0.93115 0.0
H4436 H 0.71573 0.60949 0.90303 0.0
H4437 H 0.68882 0.61755 0.9264 0.0
H4438 H 0.71797 0.67309 0.9407 0.0
H4439 H 0.74476 0.66489 0.9179 0.0
C4440 C 0.67199 0.66853 0.97964 0.0
C4441 C 0.65214 0.66424 0.97457 0.0
C4442 C 0.68781 0.66229 0.96735 0.0
C4443 C 0.68428 0.65159 0.94955 0.0
C4444 C 0.66441 0.64695 0.94477 0.0
C4445 C 0.64864 0.65316 0.95705 0.0
C4446 C 0.71642 0.62336 0.91125 0.0
C4447 C 0.73252 0.63648 0.90847 0.0
C4448 C 0.7009 0.62808 0.92462 0.0
C4449 C 0.70107 0.64602 0.93567 0.0
C4450 C 0.7173 0.65899 0.93289 0.0
C4451 C 0.73269 0.65432 0.91956 0.0
H4452 H 0.85706 0.08425 0.39826 0.0
H4453 H 0.91187 0.05453 0.38275 0.0
H4454 H 0.86531 0.11117 0.37496 0.0
H4455 H 0.92024 0.08131 0.35998 0.0
H4456 H 0.92411 0.12394 0.30779 0.0
H4457 H 0.91273 0.09654 0.32892 0.0
H4458 H 0.88743 0.13885 0.37028 0.0
H4459 H 0.89837 0.16609 0.34899 0.0
C4460 C 0.87082 0.0834 0.3899 0.0
C4461 C 0.88373 0.06712 0.39249 0.0
C4462 C 0.87565 0.09892 0.37657 0.0
C4463 C 0.89348 0.09855 0.36537 0.0
C4464 C 0.90623 0.08213 0.36794 0.0
C4465 C 0.90146 0.06674 0.38123 0.0
C4466 C 0.91594 0.1274 0.32128 0.0
C4467 C 0.91223 0.14732 0.32658 0.0
C4468 C 0.90951 0.11165 0.33355 0.0
C4469 C 0.89918 0.11531 0.35153 0.0
C4470 C 0.89507 0.13526 0.35652 0.0
C4471 C 0.90148 0.15098 0.34427 0.0
H4472 H 0.37543 0.87461 0.99322 0.0
H4473 H 0.41694 0.90245 0.95276 0.0
H4474 H 0.34778 0.88593 0.97241 0.0
H4475 H 0.38951 0.91328 0.93179 0.0
H4476 H 0.33464 0.94326 0.90447 0.0
H4477 H 0.36162 0.93488 0.92759 0.0
H4478 H 0.33244 0.87921 0.9413 0.0
H4479 H 0.30556 0.88774 0.91875 0.0
C4480 C 0.37869 0.88322 0.97997 0.0
C4481 C 0.39852 0.88756 0.9748 0.0
C4482 C 0.3628 0.88961 0.96788 0.0
C4483 C 0.36623 0.90053 0.9502 0.0
C4484 C 0.38608 0.9052 0.94532 0.0
C4485 C 0.40192 0.89884 0.9574 0.0
C4486 C 0.33395 0.92931 0.91252 0.0
C4487 C 0.31782 0.91625 0.90964 0.0
C4488 C 0.34951 0.92439 0.92574 0.0
C4489 C 0.34936 0.90631 0.93653 0.0
C4490 C 0.33309 0.8934 0.93368 0.0
C4491 C 0.31765 0.89827 0.9205 0.0
H4492 H 0.15826 0.50281 0.36579 0.0
H4493 H 0.179 0.46055 0.40938 0.0
H4494 H 0.14924 0.47583 0.34348 0.0
H4495 H 0.16876 0.43317 0.38763 0.0
H4496 H 0.1608 0.3863 0.33975 0.0
H4497 H 0.17299 0.41368 0.36008 0.0
H4498 H 0.12686 0.45163 0.3361 0.0
H4499 H 0.11556 0.4244 0.31492 0.0
C4500 C 0.16085 0.48764 0.37064 0.0
C4501 C 0.16945 0.48389 0.38938 0.0
C4502 C 0.15541 0.47202 0.35787 0.0
C4503 C 0.1579 0.45196 0.36355 0.0
C4504 C 0.16679 0.44825 0.38232 0.0
C4505 C 0.17267 0.46398 0.39494 0.0
C4506 C 0.15343 0.4006 0.33862 0.0
C4507 C 0.13725 0.40312 0.32553 0.0
C4508 C 0.1603 0.41636 0.35055 0.0
C4509 C 0.151 0.43518 0.35012 0.0
C4510 C 0.13486 0.43768 0.3368 0.0
C4511 C 0.12823 0.42196 0.32458 0.0
H4512 H 0.74603 0.38532 0.63646 0.0
H4513 H 0.71855 0.44225 0.64808 0.0
H4514 H 0.71939 0.37684 0.61358 0.0
H4515 H 0.69188 0.43392 0.62461 0.0
H4516 H 0.6361 0.40264 0.59958 0.0
H4517 H 0.66347 0.41316 0.62072 0.0
H4518 H 0.70492 0.38287 0.58192 0.0
H4519 H 0.67724 0.3718 0.56095 0.0
C4520 C 0.73435 0.39616 0.63405 0.0
C4521 C 0.73451 0.41451 0.64426 0.0
C4522 C 0.71906 0.39132 0.62069 0.0
C4523 C 0.70334 0.40464 0.617 0.0
C4524 C 0.70355 0.42311 0.62713 0.0
C4525 C 0.71893 0.42798 0.64056 0.0
C4526 C 0.65105 0.3983 0.59538 0.0
C4527 C 0.65436 0.38628 0.57846 0.0
C4528 C 0.66686 0.40449 0.60755 0.0
C4529 C 0.68659 0.39893 0.60322 0.0
C4530 C 0.68996 0.38724 0.58602 0.0
C4531 C 0.67408 0.38098 0.57384 0.0
H4532 H 0.62324 0.12475 0.74309 0.0
H4533 H 0.65295 0.16596 0.70368 0.0
H4534 H 0.6341 0.09703 0.72203 0.0
H4535 H 0.6633 0.13852 0.68246 0.0
H4536 H 0.69207 0.08331 0.65454 0.0
H4537 H 0.6841 0.11014 0.67802 0.0
H4538 H 0.62757 0.08218 0.69064 0.0
H4539 H 0.63568 0.05543 0.66772 0.0
C4540 C 0.63216 0.12793 0.73002 0.0
C4541 C 0.63716 0.1477 0.72522 0.0
C4542 C 0.63829 0.11201 0.71778 0.0
C4543 C 0.6496 0.11535 0.70031 0.0
C4544 C 0.65492 0.13513 0.69582 0.0
C4545 C 0.64883 0.15099 0.70804 0.0
C4546 C 0.678 0.08286 0.66242 0.0
C4547 C 0.66458 0.0671 0.65911 0.0
C4548 C 0.67333 0.09834 0.67585 0.0
C4549 C 0.65512 0.0985 0.68645 0.0
C4550 C 0.64186 0.08259 0.68318 0.0
C4551 C 0.64649 0.06723 0.66979 0.0
H4552 H 0.41454 0.13874 0.58873 0.0
H4553 H 0.37639 0.1842 0.56432 0.0
H4554 H 0.38702 0.12597 0.60852 0.0
H4555 H 0.34903 0.17228 0.58493 0.0
H4556 H 0.29769 0.13966 0.61266 0.0
H4557 H 0.32504 0.14922 0.59106 0.0
H4558 H 0.3669 0.12958 0.63589 0.0
H4559 H 0.33916 0.11885 0.65695 0.0
C4560 C 0.40022 0.14605 0.58758 0.0
C4561 C 0.39772 0.16245 0.57474 0.0
C4562 C 0.38437 0.13882 0.59918 0.0
C4563 C 0.36548 0.14795 0.59864 0.0
C4564 C 0.36304 0.16437 0.58566 0.0
C4565 C 0.37883 0.17137 0.57379 0.0
C4566 C 0.31276 0.13712 0.61779 0.0
C4567 C 0.31619 0.12836 0.63652 0.0
C4568 C 0.32859 0.14288 0.60545 0.0
C4569 C 0.34852 0.14057 0.61156 0.0
C4570 C 0.35193 0.13144 0.63028 0.0
C4571 C 0.33598 0.12526 0.64249 0.0
H4572 H 0.42681 0.42674 0.74312 0.0
H4573 H 0.39742 0.38501 0.70401 0.0
H4574 H 0.41588 0.4542 0.72183 0.0
H4575 H 0.38701 0.41221 0.68253 0.0
H4576 H 0.35806 0.46719 0.65426 0.0
H4577 H 0.36611 0.44049 0.67784 0.0
H4578 H 0.42249 0.46874 0.69037 0.0
H4579 H 0.41431 0.49536 0.66738 0.0
C4580 C 0.41795 0.42339 0.73006 0.0
C4581 C 0.41304 0.40356 0.72541 0.0
C4582 C 0.41177 0.43917 0.71768 0.0
C4583 C 0.40055 0.4356 0.70023 0.0
C4584 C 0.39533 0.41576 0.69588 0.0
C4585 C 0.40145 0.40004 0.70824 0.0
C4586 C 0.37211 0.46773 0.66214 0.0
C4587 C 0.38547 0.48353 0.65881 0.0
C4588 C 0.37683 0.45233 0.67563 0.0
C4589 C 0.39501 0.45231 0.68624 0.0
C4590 C 0.40822 0.46824 0.68291 0.0
C4591 C 0.40355 0.48353 0.66947 0.0
H4592 H 0.88864 0.71209 0.62345 0.0
H4593 H 0.93325 0.75393 0.64291 0.0
H4594 H 0.91014 0.68449 0.63354 0.0
H4595 H 0.95527 0.72672 0.65174 0.0
H4596 H 0.98344 0.67563 0.68574 0.0
H4597 H 0.96229 0.70281 0.67455 0.0
H4598 H 0.93743 0.66457 0.62899 0.0
H4599 H 0.9578 0.63719 0.6411 0.0
C4600 C 0.90323 0.71537 0.62947 0.0
C4601 C 0.90917 0.73522 0.63241 0.0
C4602 C 0.9157 0.69952 0.63525 0.0
C4603 C 0.93466 0.70307 0.64376 0.0
C4604 C 0.94072 0.72306 0.6459 0.0
C4605 C 0.92811 0.73881 0.64057 0.0
C4606 C 0.97357 0.67309 0.67323 0.0
C4607 C 0.97243 0.65419 0.66433 0.0
C4608 C 0.96139 0.68879 0.66665 0.0
C4609 C 0.9479 0.68622 0.65067 0.0
C4610 C 0.94717 0.66731 0.64154 0.0
C4611 C 0.95909 0.65154 0.64836 0.0
H4612 H 0.93532 0.29725 0.90934 0.0
H4613 H 0.8907 0.33886 0.92923 0.0
H4614 H 0.95724 0.32459 0.90048 0.0
H4615 H 0.91212 0.36656 0.91921 0.0
H4616 H 0.9598 0.41404 0.9124 0.0
H4617 H 0.93942 0.38645 0.92407 0.0
H4618 H 0.96444 0.3489 0.87804 0.0
H4619 H 0.98558 0.37631 0.86723 0.0
C4620 C 0.93013 0.31234 0.91175 0.0
C4621 C 0.91121 0.31579 0.92007 0.0
C4622 C 0.9427 0.32816 0.90642 0.0
C4623 C 0.93665 0.34814 0.90878 0.0
C4624 C 0.9177 0.35156 0.91735 0.0
C4625 C 0.90526 0.33563 0.92308 0.0
C4626 C 0.96114 0.3998 0.90492 0.0
C4627 C 0.97452 0.39744 0.88893 0.0
C4628 C 0.94919 0.3839 0.9115 0.0
C4629 C 0.94994 0.36512 0.9021 0.0
C4630 C 0.9635 0.36282 0.88611 0.0
C4631 C 0.97569 0.37865 0.87976 0.0
H4632 H 0.58811 0.91007 0.37307 0.0
H4633 H 0.54609 0.86625 0.39391 0.0
H4634 H 0.61558 0.88839 0.38306 0.0
H4635 H 0.57316 0.84403 0.40269 0.0
H4636 H 0.62481 0.81541 0.43582 0.0
H4637 H 0.59751 0.8366 0.42488 0.0
H4638 H 0.63508 0.86093 0.3785 0.0
H4639 H 0.66253 0.84057 0.39031 0.0
C4640 C 0.58474 0.89561 0.37939 0.0
C4641 C 0.56488 0.88996 0.3827 0.0
C4642 C 0.60053 0.88302 0.38511 0.0
C4643 C 0.59692 0.86421 0.39394 0.0
C4644 C 0.5769 0.85845 0.39655 0.0
C4645 C 0.56122 0.87118 0.39126 0.0
C4646 C 0.62716 0.82516 0.42318 0.0
C4647 C 0.64592 0.82619 0.41398 0.0
C4648 C 0.6114 0.83738 0.41676 0.0
C4649 C 0.61376 0.85079 0.40065 0.0
C4650 C 0.6325 0.85132 0.39118 0.0
C4651 C 0.64831 0.83937 0.39784 0.0
H4652 H 0.14601 0.21734 0.94394 0.0
H4653 H 0.12881 0.24763 0.88991 0.0
H4654 H 0.12345 0.18985 0.93547 0.0
H4655 H 0.10692 0.22029 0.88126 0.0
H4656 H 0.05678 0.17548 0.8762 0.0
H4657 H 0.07681 0.20354 0.888 0.0
H4658 H 0.1193 0.1625 0.91334 0.0
H4659 H 0.09908 0.13467 0.9021 0.0
C4660 C 0.13742 0.2182 0.93031 0.0
C4661 C 0.13932 0.23482 0.91769 0.0
C4662 C 0.12453 0.20235 0.92534 0.0
C4663 C 0.11313 0.20268 0.90761 0.0
C4664 C 0.115 0.21945 0.89518 0.0
C4665 C 0.12781 0.23518 0.90013 0.0
C4666 C 0.07028 0.17245 0.88446 0.0
C4667 C 0.07619 0.15269 0.88812 0.0
C4668 C 0.08193 0.18858 0.89114 0.0
C4669 C 0.0999 0.18549 0.90164 0.0
C4670 C 0.10552 0.16569 0.90562 0.0
C4671 C 0.09388 0.14962 0.899 0.0
H4672 H 0.9247 0.24147 0.92889 0.0
H4673 H 0.88349 0.1998 0.90244 0.0
H4674 H 0.95254 0.22098 0.91739 0.0
H4675 H 0.91111 0.17919 0.89141 0.0
H4676 H 0.96585 0.15243 0.86073 0.0
H4677 H 0.9387 0.17528 0.86927 0.0
H4678 H 0.96854 0.1902 0.92429 0.0
H4679 H 0.99559 0.16788 0.9156 0.0
C4680 C 0.92153 0.22801 0.92057 0.0
C4681 C 0.90173 0.2224 0.91667 0.0
C4682 C 0.93754 0.21612 0.91406 0.0
C4683 C 0.93425 0.19822 0.90345 0.0
C4684 C 0.91443 0.1929 0.89924 0.0
C4685 C 0.89848 0.20476 0.90572 0.0
C4686 C 0.96665 0.16068 0.87457 0.0
C4687 C 0.98301 0.15819 0.88742 0.0
C4688 C 0.95099 0.17375 0.87958 0.0
C4689 C 0.95127 0.18478 0.89754 0.0
C4690 C 0.96778 0.18236 0.9102 0.0
C4691 C 0.98332 0.16932 0.90524 0.0
H4692 H 0.60072 0.41698 0.15199 0.0
H4693 H 0.55882 0.37566 0.17791 0.0
H4694 H 0.62149 0.38937 0.14118 0.0
H4695 H 0.57946 0.34785 0.16662 0.0
H4696 H 0.63255 0.30485 0.16559 0.0
H4697 H 0.61015 0.33192 0.17396 0.0
H4698 H 0.62574 0.36173 0.1191 0.0
H4699 H 0.64867 0.33453 0.11086 0.0
C4700 C 0.59574 0.40197 0.1552 0.0
C4701 C 0.57799 0.39868 0.16594 0.0
C4702 C 0.6077 0.38604 0.14884 0.0
C4703 C 0.60236 0.36619 0.15298 0.0
C4704 C 0.58435 0.36287 0.16336 0.0
C4705 C 0.57236 0.37886 0.16975 0.0
C4706 C 0.63124 0.31712 0.1552 0.0
C4707 C 0.64258 0.3174 0.1375 0.0
C4708 C 0.61816 0.33267 0.15997 0.0
C4709 C 0.61589 0.34918 0.14726 0.0
C4710 C 0.62714 0.34944 0.12944 0.0
C4711 C 0.64025 0.33376 0.12461 0.0
H4712 H 0.58315 0.15454 0.19501 0.0
H4713 H 0.55297 0.17185 0.14096 0.0
H4714 H 0.61067 0.17708 0.18658 0.0
H4715 H 0.58033 0.19375 0.13237 0.0
H4716 H 0.62497 0.24395 0.12759 0.0
H4717 H 0.59697 0.22393 0.13948 0.0
H4718 H 0.63803 0.18111 0.16421 0.0
H4719 H 0.66584 0.20132 0.15284 0.0
C4720 C 0.58231 0.16316 0.1814 0.0
C4721 C 0.56573 0.16129 0.16874 0.0
C4722 C 0.59818 0.17603 0.17645 0.0
C4723 C 0.59787 0.18745 0.15874 0.0
C4724 C 0.58113 0.18563 0.14629 0.0
C4725 C 0.56539 0.17283 0.15119 0.0
C4726 C 0.62802 0.23038 0.13574 0.0
C4727 C 0.64777 0.22436 0.13917 0.0
C4728 C 0.61192 0.21875 0.14247 0.0
C4729 C 0.61505 0.20068 0.1528 0.0
C4730 C 0.63484 0.19496 0.1566 0.0
C4731 C 0.65089 0.20659 0.14993 0.0
H4732 H 0.4615 0.40927 0.17832 0.0
H4733 H 0.50322 0.36504 0.15777 0.0
H4734 H 0.43389 0.38782 0.16819 0.0
H4735 H 0.47596 0.34308 0.14879 0.0
H4736 H 0.4242 0.3148 0.11553 0.0
H4737 H 0.45157 0.33597 0.12641 0.0
H4738 H 0.41419 0.36036 0.17289 0.0
H4739 H 0.38665 0.33998 0.16117 0.0
C4740 C 0.46478 0.39478 0.172 0.0
C4741 C 0.48461 0.38895 0.16884 0.0
C4742 C 0.44889 0.38233 0.1662 0.0
C4743 C 0.45237 0.36347 0.15742 0.0
C4744 C 0.47235 0.35754 0.1549 0.0
C4745 C 0.48813 0.37013 0.1603 0.0
C4746 C 0.4219 0.32457 0.12818 0.0
C4747 C 0.40316 0.32557 0.13746 0.0
C4748 C 0.43771 0.33677 0.13457 0.0
C4749 C 0.43543 0.35016 0.1507 0.0
C4750 C 0.41671 0.35073 0.16021 0.0
C4751 C 0.40084 0.33878 0.1536 0.0
loop_
_geom_bond_atom_site_label_1
_geom_bond_atom_site_label_2
_geom_bond_distance
_geom_bond_site_symmetry_2
_ccdc_geom_bond_type
O0 Tb1 2.292 . S
O0 C3 1.255 . S
Tb1 O0 2.292 . S
Tb1 O17 2.326 . S
Tb1 O19 2.500 . S
Tb1 O20 2.473 . S
Tb1 O23 2.324 . S
Eu2 O6 2.292 . S
Eu2 C7 2.852 . S
Eu2 O18 2.324 . S
Eu2 O22 2.326 . S
Eu2 O24 2.500 . S
Eu2 O25 2.473 . S
C3 O0 1.255 . S
C3 O4 1.247 . S
O4 C3 1.247 . S
C5 O17 1.242 . S
C5 O18 1.258 . S
O6 Eu2 2.292 . S
O6 C8 1.255 . S
C7 Eu2 2.852 . S
C7 C11 1.503 . S
C7 O24 1.273 . S
C7 O25 1.257 . S
C8 O6 1.255 . S
C8 O9 1.247 . S
O9 C8 1.247 . S
C10 O22 1.242 . S
C10 O23 1.258 . S
C11 C7 1.503 . S
C11 C12 1.379 . S
C11 C16 1.392 . S
C12 C11 1.379 . S
C12 C13 1.404 . S
C12 H26 0.929 . S
C13 C12 1.404 . S
C13 C14 1.389 . S
C14 C13 1.389 . S
C14 C15 1.399 . S
C14 H27 0.931 . S
C15 C14 1.399 . S
C15 C16 1.390 . S
C16 C11 1.392 . S
C16 C15 1.390 . S
C16 H28 0.929 . S
O17 Tb1 2.326 . S
O17 C5 1.242 . S
O18 Eu2 2.324 . S
O18 C5 1.258 . S
O19 Tb1 2.500 . S
O19 C21 1.273 . S
O20 Tb1 2.473 . S
O20 C21 1.257 . S
C21 O19 1.273 . S
C21 O20 1.257 . S
O22 Eu2 2.326 . S
O22 C10 1.242 . S
O23 Tb1 2.324 . S
O23 C10 1.258 . S
O24 Eu2 2.500 . S
O24 C7 1.273 . S
O25 Eu2 2.473 . S
O25 C7 1.257 . S
H26 C12 0.929 . S
H27 C14 0.931 . S
H28 C16 0.929 . S
O29 Tb30 2.292 . S
O29 C32 1.255 . S
Tb30 O29 2.292 . S
Tb30 O46 2.326 . S
Tb30 O48 2.500 . S
Tb30 O49 2.473 . S
Tb30 O52 2.324 . S
Eu31 O35 2.292 . S
Eu31 C36 2.852 . S
Eu31 O47 2.324 . S
Eu31 O51 2.326 . S
Eu31 O53 2.500 . S
Eu31 O54 2.473 . S
C32 O29 1.255 . S
C32 O33 1.247 . S
O33 C32 1.247 . S
C34 O46 1.242 . S
C34 O47 1.258 . S
O35 Eu31 2.292 . S
O35 C37 1.255 . S
C36 Eu31 2.852 . S
C36 C40 1.503 . S
C36 O53 1.273 . S
C36 O54 1.257 . S
C37 O35 1.255 . S
C37 O38 1.247 . S
O38 C37 1.247 . S
C39 O51 1.242 . S
C39 O52 1.258 . S
C40 C36 1.503 . S
C40 C41 1.379 . S
C40 C45 1.392 . S
C41 C40 1.379 . S
C41 C42 1.404 . S
C41 H55 0.929 . S
C42 C41 1.404 . S
C42 C43 1.389 . S
C43 C42 1.389 . S
C43 C44 1.399 . S
C43 H56 0.931 . S
C44 C43 1.399 . S
C44 C45 1.390 . S
C45 C40 1.392 . S
C45 C44 1.390 . S
C45 H57 0.929 . S
O46 Tb30 2.326 . S
O46 C34 1.242 . S
O47 Eu31 2.324 . S
O47 C34 1.258 . S
O48 Tb30 2.500 . S
O48 C50 1.273 . S
O49 Tb30 2.473 . S
O49 C50 1.257 . S
C50 O48 1.273 . S
C50 O49 1.257 . S
O51 Eu31 2.326 . S
O51 C39 1.242 . S
O52 Tb30 2.324 . S
O52 C39 1.258 . S
O53 Eu31 2.500 . S
O53 C36 1.273 . S
O54 Eu31 2.473 . S
O54 C36 1.257 . S
H55 C41 0.929 . S
H56 C43 0.931 . S
H57 C45 0.929 . S
O58 Tb59 2.292 . S
O58 C61 1.255 . S
Tb59 O58 2.292 . S
Tb59 O75 2.326 . S
Tb59 O77 2.500 . S
Tb59 O78 2.473 . S
Tb59 O81 2.324 . S
Eu60 O64 2.292 . S
Eu60 C65 2.852 . S
Eu60 O76 2.324 . S
Eu60 O80 2.326 . S
Eu60 O82 2.500 . S
Eu60 O83 2.473 . S
C61 O58 1.255 . S
C61 O62 1.247 . S
O62 C61 1.247 . S
C63 O75 1.242 . S
C63 O76 1.258 . S
O64 Eu60 2.292 . S
O64 C66 1.255 . S
C65 Eu60 2.852 . S
C65 C69 1.503 . S
C65 O82 1.273 . S
C65 O83 1.257 . S
C66 O64 1.255 . S
C66 O67 1.247 . S
O67 C66 1.247 . S
C68 O80 1.242 . S
C68 O81 1.258 . S
C69 C65 1.503 . S
C69 C70 1.379 . S
C69 C74 1.392 . S
C70 C69 1.379 . S
C70 C71 1.404 . S
C70 H84 0.929 . S
C71 C70 1.404 . S
C71 C72 1.389 . S
C72 C71 1.389 . S
C72 C73 1.399 . S
C72 H85 0.931 . S
C73 C72 1.399 . S
C73 C74 1.390 . S
C74 C69 1.392 . S
C74 C73 1.390 . S
C74 H86 0.929 . S
O75 Tb59 2.326 . S
O75 C63 1.242 . S
O76 Eu60 2.324 . S
O76 C63 1.258 . S
O77 Tb59 2.500 . S
O77 C79 1.273 . S
O78 Tb59 2.473 . S
O78 C79 1.257 . S
C79 O77 1.273 . S
C79 O78 1.257 . S
O80 Eu60 2.326 . S
O80 C68 1.242 . S
O81 Tb59 2.324 . S
O81 C68 1.258 . S
O82 Eu60 2.500 . S
O82 C65 1.273 . S
O83 Eu60 2.473 . S
O83 C65 1.257 . S
H84 C70 0.929 . S
H85 C72 0.931 . S
H86 C74 0.929 . S
O87 Tb88 2.292 . S
O87 C90 1.255 . S
Tb88 O87 2.292 . S
Tb88 O104 2.326 . S
Tb88 O106 2.500 . S
Tb88 O107 2.473 . S
Tb88 O110 2.324 . S
Eu89 O93 2.292 . S
Eu89 C94 2.852 . S
Eu89 O105 2.324 . S
Eu89 O109 2.326 . S
Eu89 O111 2.500 . S
Eu89 O112 2.473 . S
C90 O87 1.255 . S
C90 O91 1.247 . S
O91 C90 1.247 . S
C92 O104 1.242 . S
C92 O105 1.258 . S
O93 Eu89 2.292 . S
O93 C95 1.255 . S
C94 Eu89 2.852 . S
C94 C98 1.503 . S
C94 O111 1.273 . S
C94 O112 1.257 . S
C95 O93 1.255 . S
C95 O96 1.247 . S
O96 C95 1.247 . S
C97 O109 1.242 . S
C97 O110 1.258 . S
C98 C94 1.503 . S
C98 C99 1.379 . S
C98 C103 1.392 . S
C99 C98 1.379 . S
C99 C100 1.404 . S
C99 H113 0.929 . S
C100 C99 1.404 . S
C100 C101 1.389 . S
C101 C100 1.389 . S
C101 C102 1.399 . S
C101 H114 0.931 . S
C102 C101 1.399 . S
C102 C103 1.390 . S
C103 C98 1.392 . S
C103 C102 1.390 . S
C103 H115 0.929 . S
O104 Tb88 2.326 . S
O104 C92 1.242 . S
O105 Eu89 2.324 . S
O105 C92 1.258 . S
O106 Tb88 2.500 . S
O106 C108 1.273 . S
O107 Tb88 2.473 . S
O107 C108 1.257 . S
C108 O106 1.273 . S
C108 O107 1.257 . S
O109 Eu89 2.326 . S
O109 C97 1.242 . S
O110 Tb88 2.324 . S
O110 C97 1.258 . S
O111 Eu89 2.500 . S
O111 C94 1.273 . S
O112 Eu89 2.473 . S
O112 C94 1.257 . S
H113 C99 0.929 . S
H114 C101 0.931 . S
H115 C103 0.929 . S
O116 Tb117 2.292 . S
O116 C119 1.255 . S
Tb117 O116 2.292 . S
Tb117 O133 2.326 . S
Tb117 O135 2.500 . S
Tb117 O136 2.473 . S
Tb117 O139 2.324 . S
Eu118 O122 2.292 . S
Eu118 C123 2.852 . S
Eu118 O134 2.324 . S
Eu118 O138 2.326 . S
Eu118 O140 2.500 . S
Eu118 O141 2.473 . S
C119 O116 1.255 . S
C119 O120 1.247 . S
O120 C119 1.247 . S
C121 O133 1.242 . S
C121 O134 1.258 . S
O122 Eu118 2.292 . S
O122 C124 1.255 . S
C123 Eu118 2.852 . S
C123 C127 1.503 . S
C123 O140 1.273 . S
C123 O141 1.257 . S
C124 O122 1.255 . S
C124 O125 1.247 . S
O125 C124 1.247 . S
C126 O138 1.242 . S
C126 O139 1.258 . S
C127 C123 1.503 . S
C127 C128 1.379 . S
C127 C132 1.392 . S
C128 C127 1.379 . S
C128 C129 1.404 . S
C128 H142 0.929 . S
C129 C128 1.404 . S
C129 C130 1.389 . S
C130 C129 1.389 . S
C130 C131 1.399 . S
C130 H143 0.931 . S
C131 C130 1.399 . S
C131 C132 1.390 . S
C132 C127 1.392 . S
C132 C131 1.390 . S
C132 H144 0.929 . S
O133 Tb117 2.326 . S
O133 C121 1.242 . S
O134 Eu118 2.324 . S
O134 C121 1.258 . S
O135 Tb117 2.500 . S
O135 C137 1.273 . S
O136 Tb117 2.473 . S
O136 C137 1.257 . S
C137 O135 1.273 . S
C137 O136 1.257 . S
O138 Eu118 2.326 . S
O138 C126 1.242 . S
O139 Tb117 2.324 . S
O139 C126 1.258 . S
O140 Eu118 2.500 . S
O140 C123 1.273 . S
O141 Eu118 2.473 . S
O141 C123 1.257 . S
H142 C128 0.929 . S
H143 C130 0.931 . S
H144 C132 0.929 . S
O145 Tb146 2.292 . S
O145 C148 1.255 . S
Tb146 O145 2.292 . S
Tb146 O162 2.326 . S
Tb146 O164 2.500 . S
Tb146 O165 2.473 . S
Tb146 O168 2.324 . S
Eu147 O151 2.292 . S
Eu147 C152 2.852 . S
Eu147 O163 2.324 . S
Eu147 O167 2.326 . S
Eu147 O169 2.500 . S
Eu147 O170 2.473 . S
C148 O145 1.255 . S
C148 O149 1.247 . S
O149 C148 1.247 . S
C150 O162 1.242 . S
C150 O163 1.258 . S
O151 Eu147 2.292 . S
O151 C153 1.255 . S
C152 Eu147 2.852 . S
C152 C156 1.503 . S
C152 O169 1.273 . S
C152 O170 1.257 . S
C153 O151 1.255 . S
C153 O154 1.247 . S
O154 C153 1.247 . S
C155 O167 1.242 . S
C155 O168 1.258 . S
C156 C152 1.503 . S
C156 C157 1.379 . S
C156 C161 1.392 . S
C157 C156 1.379 . S
C157 C158 1.404 . S
C157 H171 0.929 . S
C158 C157 1.404 . S
C158 C159 1.389 . S
C159 C158 1.389 . S
C159 C160 1.399 . S
C159 H172 0.931 . S
C160 C159 1.399 . S
C160 C161 1.390 . S
C161 C156 1.392 . S
C161 C160 1.390 . S
C161 H173 0.929 . S
O162 Tb146 2.326 . S
O162 C150 1.242 . S
O163 Eu147 2.324 . S
O163 C150 1.258 . S
O164 Tb146 2.500 . S
O164 C166 1.273 . S
O165 Tb146 2.473 . S
O165 C166 1.257 . S
C166 O164 1.273 . S
C166 O165 1.257 . S
O167 Eu147 2.326 . S
O167 C155 1.242 . S
O168 Tb146 2.324 . S
O168 C155 1.258 . S
O169 Eu147 2.500 . S
O169 C152 1.273 . S
O170 Eu147 2.473 . S
O170 C152 1.257 . S
H171 C157 0.929 . S
H172 C159 0.931 . S
H173 C161 0.929 . S
O174 Tb175 2.292 . S
O174 C177 1.255 . S
Tb175 O174 2.292 . S
Tb175 O191 2.326 . S
Tb175 O193 2.500 . S
Tb175 O194 2.473 . S
Tb175 O197 2.324 . S
Eu176 O180 2.292 . S
Eu176 C181 2.852 . S
Eu176 O192 2.324 . S
Eu176 O196 2.326 . S
Eu176 O198 2.500 . S
Eu176 O199 2.473 . S
C177 O174 1.255 . S
C177 O178 1.247 . S
O178 C177 1.247 . S
C179 O191 1.242 . S
C179 O192 1.258 . S
O180 Eu176 2.292 . S
O180 C182 1.255 . S
C181 Eu176 2.852 . S
C181 C185 1.503 . S
C181 O198 1.273 . S
C181 O199 1.257 . S
C182 O180 1.255 . S
C182 O183 1.247 . S
O183 C182 1.247 . S
C184 O196 1.242 . S
C184 O197 1.258 . S
C185 C181 1.503 . S
C185 C186 1.379 . S
C185 C190 1.392 . S
C186 C185 1.379 . S
C186 C187 1.404 . S
C186 H200 0.929 . S
C187 C186 1.404 . S
C187 C188 1.389 . S
C188 C187 1.389 . S
C188 C189 1.399 . S
C188 H201 0.931 . S
C189 C188 1.399 . S
C189 C190 1.390 . S
C190 C185 1.392 . S
C190 C189 1.390 . S
C190 H202 0.929 . S
O191 Tb175 2.326 . S
O191 C179 1.242 . S
O192 Eu176 2.324 . S
O192 C179 1.258 . S
O193 Tb175 2.500 . S
O193 C195 1.273 . S
O194 Tb175 2.473 . S
O194 C195 1.257 . S
C195 O193 1.273 . S
C195 O194 1.257 . S
O196 Eu176 2.326 . S
O196 C184 1.242 . S
O197 Tb175 2.324 . S
O197 C184 1.258 . S
O198 Eu176 2.500 . S
O198 C181 1.273 . S
O199 Eu176 2.473 . S
O199 C181 1.257 . S
H200 C186 0.929 . S
H201 C188 0.931 . S
H202 C190 0.929 . S
O203 Tb204 2.292 . S
O203 C206 1.255 . S
Tb204 O203 2.292 . S
Tb204 O220 2.326 . S
Tb204 O222 2.500 . S
Tb204 O223 2.473 . S
Tb204 O226 2.324 . S
Eu205 O209 2.292 . S
Eu205 C210 2.852 . S
Eu205 O221 2.324 . S
Eu205 O225 2.326 . S
Eu205 O227 2.500 . S
Eu205 O228 2.473 . S
C206 O203 1.255 . S
C206 O207 1.247 . S
O207 C206 1.247 . S
C208 O220 1.242 . S
C208 O221 1.258 . S
O209 Eu205 2.292 . S
O209 C211 1.255 . S
C210 Eu205 2.852 . S
C210 C214 1.503 . S
C210 O227 1.273 . S
C210 O228 1.257 . S
C211 O209 1.255 . S
C211 O212 1.247 . S
O212 C211 1.247 . S
C213 O225 1.242 . S
C213 O226 1.258 . S
C214 C210 1.503 . S
C214 C215 1.379 . S
C214 C219 1.392 . S
C215 C214 1.379 . S
C215 C216 1.404 . S
C215 H229 0.929 . S
C216 C215 1.404 . S
C216 C217 1.389 . S
C217 C216 1.389 . S
C217 C218 1.399 . S
C217 H230 0.931 . S
C218 C217 1.399 . S
C218 C219 1.390 . S
C219 C214 1.392 . S
C219 C218 1.390 . S
C219 H231 0.929 . S
O220 Tb204 2.326 . S
O220 C208 1.242 . S
O221 Eu205 2.324 . S
O221 C208 1.258 . S
O222 Tb204 2.500 . S
O222 C224 1.273 . S
O223 Tb204 2.473 . S
O223 C224 1.257 . S
C224 O222 1.273 . S
C224 O223 1.257 . S
O225 Eu205 2.326 . S
O225 C213 1.242 . S
O226 Tb204 2.324 . S
O226 C213 1.258 . S
O227 Eu205 2.500 . S
O227 C210 1.273 . S
O228 Eu205 2.473 . S
O228 C210 1.257 . S
H229 C215 0.929 . S
H230 C217 0.931 . S
H231 C219 0.929 . S
O232 Tb233 2.292 . S
O232 C235 1.255 . S
Tb233 O232 2.292 . S
Tb233 O249 2.326 . S
Tb233 O251 2.500 . S
Tb233 O252 2.473 . S
Tb233 O255 2.324 . S
Eu234 O238 2.292 . S
Eu234 C239 2.852 . S
Eu234 O250 2.324 . S
Eu234 O254 2.326 . S
Eu234 O256 2.500 . S
Eu234 O257 2.473 . S
C235 O232 1.255 . S
C235 O236 1.247 . S
O236 C235 1.247 . S
C237 O249 1.242 . S
C237 O250 1.258 . S
O238 Eu234 2.292 . S
O238 C240 1.255 . S
C239 Eu234 2.852 . S
C239 C243 1.503 . S
C239 O256 1.273 . S
C239 O257 1.257 . S
C240 O238 1.255 . S
C240 O241 1.247 . S
O241 C240 1.247 . S
C242 O254 1.242 . S
C242 O255 1.258 . S
C243 C239 1.503 . S
C243 C244 1.379 . S
C243 C248 1.392 . S
C244 C243 1.379 . S
C244 C245 1.404 . S
C244 H258 0.929 . S
C245 C244 1.404 . S
C245 C246 1.389 . S
C246 C245 1.389 . S
C246 C247 1.399 . S
C246 H259 0.931 . S
C247 C246 1.399 . S
C247 C248 1.390 . S
C248 C243 1.392 . S
C248 C247 1.390 . S
C248 H260 0.929 . S
O249 Tb233 2.326 . S
O249 C237 1.242 . S
O250 Eu234 2.324 . S
O250 C237 1.258 . S
O251 Tb233 2.500 . S
O251 C253 1.273 . S
O252 Tb233 2.473 . S
O252 C253 1.257 . S
C253 O251 1.273 . S
C253 O252 1.257 . S
O254 Eu234 2.326 . S
O254 C242 1.242 . S
O255 Tb233 2.324 . S
O255 C242 1.258 . S
O256 Eu234 2.500 . S
O256 C239 1.273 . S
O257 Eu234 2.473 . S
O257 C239 1.257 . S
H258 C244 0.929 . S
H259 C246 0.931 . S
H260 C248 0.929 . S
O261 Tb262 2.292 . S
O261 C264 1.255 . S
Tb262 O261 2.292 . S
Tb262 O278 2.326 . S
Tb262 O280 2.500 . S
Tb262 O281 2.473 . S
Tb262 O284 2.324 . S
Eu263 O267 2.292 . S
Eu263 C268 2.852 . S
Eu263 O279 2.324 . S
Eu263 O283 2.326 . S
Eu263 O285 2.500 . S
Eu263 O286 2.473 . S
C264 O261 1.255 . S
C264 O265 1.247 . S
O265 C264 1.247 . S
C266 O278 1.242 . S
C266 O279 1.258 . S
O267 Eu263 2.292 . S
O267 C269 1.255 . S
C268 Eu263 2.852 . S
C268 C272 1.503 . S
C268 O285 1.273 . S
C268 O286 1.257 . S
C269 O267 1.255 . S
C269 O270 1.247 . S
O270 C269 1.247 . S
C271 O283 1.242 . S
C271 O284 1.258 . S
C272 C268 1.503 . S
C272 C273 1.379 . S
C272 C277 1.392 . S
C273 C272 1.379 . S
C273 C274 1.404 . S
C273 H287 0.929 . S
C274 C273 1.404 . S
C274 C275 1.389 . S
C275 C274 1.389 . S
C275 C276 1.399 . S
C275 H288 0.931 . S
C276 C275 1.399 . S
C276 C277 1.390 . S
C277 C272 1.392 . S
C277 C276 1.390 . S
C277 H289 0.929 . S
O278 Tb262 2.326 . S
O278 C266 1.242 . S
O279 Eu263 2.324 . S
O279 C266 1.258 . S
O280 Tb262 2.500 . S
O280 C282 1.273 . S
O281 Tb262 2.473 . S
O281 C282 1.257 . S
C282 O280 1.273 . S
C282 O281 1.257 . S
O283 Eu263 2.326 . S
O283 C271 1.242 . S
O284 Tb262 2.324 . S
O284 C271 1.258 . S
O285 Eu263 2.500 . S
O285 C268 1.273 . S
O286 Eu263 2.473 . S
O286 C268 1.257 . S
H287 C273 0.929 . S
H288 C275 0.931 . S
H289 C277 0.929 . S
O290 Tb291 2.292 . S
O290 C293 1.255 . S
Tb291 O290 2.292 . S
Tb291 O307 2.326 . S
Tb291 O309 2.500 . S
Tb291 O310 2.473 . S
Tb291 O313 2.324 . S
Eu292 O296 2.292 . S
Eu292 C297 2.852 . S
Eu292 O308 2.324 . S
Eu292 O312 2.326 . S
Eu292 O314 2.500 . S
Eu292 O315 2.473 . S
C293 O290 1.255 . S
C293 O294 1.247 . S
O294 C293 1.247 . S
C295 O307 1.242 . S
C295 O308 1.258 . S
O296 Eu292 2.292 . S
O296 C298 1.255 . S
C297 Eu292 2.852 . S
C297 C301 1.503 . S
C297 O314 1.273 . S
C297 O315 1.257 . S
C298 O296 1.255 . S
C298 O299 1.247 . S
O299 C298 1.247 . S
C300 O312 1.242 . S
C300 O313 1.258 . S
C301 C297 1.503 . S
C301 C302 1.379 . S
C301 C306 1.392 . S
C302 C301 1.379 . S
C302 C303 1.404 . S
C302 H316 0.929 . S
C303 C302 1.404 . S
C303 C304 1.389 . S
C304 C303 1.389 . S
C304 C305 1.399 . S
C304 H317 0.931 . S
C305 C304 1.399 . S
C305 C306 1.390 . S
C306 C301 1.392 . S
C306 C305 1.390 . S
C306 H318 0.929 . S
O307 Tb291 2.326 . S
O307 C295 1.242 . S
O308 Eu292 2.324 . S
O308 C295 1.258 . S
O309 Tb291 2.500 . S
O309 C311 1.273 . S
O310 Tb291 2.473 . S
O310 C311 1.257 . S
C311 O309 1.273 . S
C311 O310 1.257 . S
O312 Eu292 2.326 . S
O312 C300 1.242 . S
O313 Tb291 2.324 . S
O313 C300 1.258 . S
O314 Eu292 2.500 . S
O314 C297 1.273 . S
O315 Eu292 2.473 . S
O315 C297 1.257 . S
H316 C302 0.929 . S
H317 C304 0.931 . S
H318 C306 0.929 . S
O319 Tb320 2.292 . S
O319 C322 1.255 . S
Tb320 O319 2.292 . S
Tb320 O336 2.326 . S
Tb320 O338 2.500 . S
Tb320 O339 2.473 . S
Tb320 O342 2.324 . S
Eu321 O325 2.292 . S
Eu321 C326 2.852 . S
Eu321 O337 2.324 . S
Eu321 O341 2.326 . S
Eu321 O343 2.500 . S
Eu321 O344 2.473 . S
C322 O319 1.255 . S
C322 O323 1.247 . S
O323 C322 1.247 . S
C324 O336 1.242 . S
C324 O337 1.258 . S
O325 Eu321 2.292 . S
O325 C327 1.255 . S
C326 Eu321 2.852 . S
C326 C330 1.503 . S
C326 O343 1.273 . S
C326 O344 1.257 . S
C327 O325 1.255 . S
C327 O328 1.247 . S
O328 C327 1.247 . S
C329 O341 1.242 . S
C329 O342 1.258 . S
C330 C326 1.503 . S
C330 C331 1.379 . S
C330 C335 1.392 . S
C331 C330 1.379 . S
C331 C332 1.404 . S
C331 H345 0.929 . S
C332 C331 1.404 . S
C332 C333 1.389 . S
C333 C332 1.389 . S
C333 C334 1.399 . S
C333 H346 0.931 . S
C334 C333 1.399 . S
C334 C335 1.390 . S
C335 C330 1.392 . S
C335 C334 1.390 . S
C335 H347 0.929 . S
O336 Tb320 2.326 . S
O336 C324 1.242 . S
O337 Eu321 2.324 . S
O337 C324 1.258 . S
O338 Tb320 2.500 . S
O338 C340 1.273 . S
O339 Tb320 2.473 . S
O339 C340 1.257 . S
C340 O338 1.273 . S
C340 O339 1.257 . S
O341 Eu321 2.326 . S
O341 C329 1.242 . S
O342 Tb320 2.324 . S
O342 C329 1.258 . S
O343 Eu321 2.500 . S
O343 C326 1.273 . S
O344 Eu321 2.473 . S
O344 C326 1.257 . S
H345 C331 0.929 . S
H346 C333 0.931 . S
H347 C335 0.929 . S
O348 Tb349 2.292 . S
O348 C351 1.255 . S
Tb349 O348 2.292 . S
Tb349 O365 2.326 . S
Tb349 O367 2.500 . S
Tb349 O368 2.473 . S
Tb349 O371 2.324 . S
Eu350 O354 2.292 . S
Eu350 C355 2.852 . S
Eu350 O366 2.324 . S
Eu350 O370 2.326 . S
Eu350 O372 2.500 . S
Eu350 O373 2.473 . S
C351 O348 1.255 . S
C351 O352 1.247 . S
O352 C351 1.247 . S
C353 O365 1.242 . S
C353 O366 1.258 . S
O354 Eu350 2.292 . S
O354 C356 1.255 . S
C355 Eu350 2.852 . S
C355 C359 1.503 . S
C355 O372 1.273 . S
C355 O373 1.257 . S
C356 O354 1.255 . S
C356 O357 1.247 . S
O357 C356 1.247 . S
C358 O370 1.242 . S
C358 O371 1.258 . S
C359 C355 1.503 . S
C359 C360 1.379 . S
C359 C364 1.392 . S
C360 C359 1.379 . S
C360 C361 1.404 . S
C360 H374 0.929 . S
C361 C360 1.404 . S
C361 C362 1.389 . S
C362 C361 1.389 . S
C362 C363 1.399 . S
C362 H375 0.931 . S
C363 C362 1.399 . S
C363 C364 1.390 . S
C364 C359 1.392 . S
C364 C363 1.390 . S
C364 H376 0.929 . S
O365 Tb349 2.326 . S
O365 C353 1.242 . S
O366 Eu350 2.324 . S
O366 C353 1.258 . S
O367 Tb349 2.500 . S
O367 C369 1.273 . S
O368 Tb349 2.473 . S
O368 C369 1.257 . S
C369 O367 1.273 . S
C369 O368 1.257 . S
O370 Eu350 2.326 . S
O370 C358 1.242 . S
O371 Tb349 2.324 . S
O371 C358 1.258 . S
O372 Eu350 2.500 . S
O372 C355 1.273 . S
O373 Eu350 2.473 . S
O373 C355 1.257 . S
H374 C360 0.929 . S
H375 C362 0.931 . S
H376 C364 0.929 . S
O377 Tb378 2.292 . S
O377 C380 1.255 . S
Tb378 O377 2.292 . S
Tb378 O394 2.326 . S
Tb378 O396 2.500 . S
Tb378 O397 2.473 . S
Tb378 O400 2.324 . S
Eu379 O383 2.292 . S
Eu379 C384 2.852 . S
Eu379 O395 2.324 . S
Eu379 O399 2.326 . S
Eu379 O401 2.500 . S
Eu379 O402 2.473 . S
C380 O377 1.255 . S
C380 O381 1.247 . S
O381 C380 1.247 . S
C382 O394 1.242 . S
C382 O395 1.258 . S
O383 Eu379 2.292 . S
O383 C385 1.255 . S
C384 Eu379 2.852 . S
C384 C388 1.503 . S
C384 O401 1.273 . S
C384 O402 1.257 . S
C385 O383 1.255 . S
C385 O386 1.247 . S
O386 C385 1.247 . S
C387 O399 1.242 . S
C387 O400 1.258 . S
C388 C384 1.503 . S
C388 C389 1.379 . S
C388 C393 1.392 . S
C389 C388 1.379 . S
C389 C390 1.404 . S
C389 H403 0.929 . S
C390 C389 1.404 . S
C390 C391 1.389 . S
C391 C390 1.389 . S
C391 C392 1.399 . S
C391 H404 0.931 . S
C392 C391 1.399 . S
C392 C393 1.390 . S
C393 C388 1.392 . S
C393 C392 1.390 . S
C393 H405 0.929 . S
O394 Tb378 2.326 . S
O394 C382 1.242 . S
O395 Eu379 2.324 . S
O395 C382 1.258 . S
O396 Tb378 2.500 . S
O396 C398 1.273 . S
O397 Tb378 2.473 . S
O397 C398 1.257 . S
C398 O396 1.273 . S
C398 O397 1.257 . S
O399 Eu379 2.326 . S
O399 C387 1.242 . S
O400 Tb378 2.324 . S
O400 C387 1.258 . S
O401 Eu379 2.500 . S
O401 C384 1.273 . S
O402 Eu379 2.473 . S
O402 C384 1.257 . S
H403 C389 0.929 . S
H404 C391 0.931 . S
H405 C393 0.929 . S
O406 Tb407 2.292 . S
O406 C409 1.255 . S
Tb407 O406 2.292 . S
Tb407 O423 2.326 . S
Tb407 O425 2.500 . S
Tb407 O426 2.473 . S
Tb407 O429 2.324 . S
Eu408 O412 2.292 . S
Eu408 C413 2.852 . S
Eu408 O424 2.324 . S
Eu408 O428 2.326 . S
Eu408 O430 2.500 . S
Eu408 O431 2.473 . S
C409 O406 1.255 . S
C409 O410 1.247 . S
O410 C409 1.247 . S
C411 O423 1.242 . S
C411 O424 1.258 . S
O412 Eu408 2.292 . S
O412 C414 1.255 . S
C413 Eu408 2.852 . S
C413 C417 1.503 . S
C413 O430 1.273 . S
C413 O431 1.257 . S
C414 O412 1.255 . S
C414 O415 1.247 . S
O415 C414 1.247 . S
C416 O428 1.242 . S
C416 O429 1.258 . S
C417 C413 1.503 . S
C417 C418 1.379 . S
C417 C422 1.392 . S
C418 C417 1.379 . S
C418 C419 1.404 . S
C418 H432 0.929 . S
C419 C418 1.404 . S
C419 C420 1.389 . S
C420 C419 1.389 . S
C420 C421 1.399 . S
C420 H433 0.931 . S
C421 C420 1.399 . S
C421 C422 1.390 . S
C422 C417 1.392 . S
C422 C421 1.390 . S
C422 H434 0.929 . S
O423 Tb407 2.326 . S
O423 C411 1.242 . S
O424 Eu408 2.324 . S
O424 C411 1.258 . S
O425 Tb407 2.500 . S
O425 C427 1.273 . S
O426 Tb407 2.473 . S
O426 C427 1.257 . S
C427 O425 1.273 . S
C427 O426 1.257 . S
O428 Eu408 2.326 . S
O428 C416 1.242 . S
O429 Tb407 2.324 . S
O429 C416 1.258 . S
O430 Eu408 2.500 . S
O430 C413 1.273 . S
O431 Eu408 2.473 . S
O431 C413 1.257 . S
H432 C418 0.929 . S
H433 C420 0.931 . S
H434 C422 0.929 . S
O435 Tb436 2.292 . S
O435 C438 1.255 . S
Tb436 O435 2.292 . S
Tb436 O452 2.326 . S
Tb436 O454 2.500 . S
Tb436 O455 2.473 . S
Tb436 O458 2.324 . S
Eu437 O441 2.292 . S
Eu437 C442 2.852 . S
Eu437 O453 2.324 . S
Eu437 O457 2.326 . S
Eu437 O459 2.500 . S
Eu437 O460 2.473 . S
C438 O435 1.255 . S
C438 O439 1.247 . S
O439 C438 1.247 . S
C440 O452 1.242 . S
C440 O453 1.258 . S
O441 Eu437 2.292 . S
O441 C443 1.255 . S
C442 Eu437 2.852 . S
C442 C446 1.503 . S
C442 O459 1.273 . S
C442 O460 1.257 . S
C443 O441 1.255 . S
C443 O444 1.247 . S
O444 C443 1.247 . S
C445 O457 1.242 . S
C445 O458 1.258 . S
C446 C442 1.503 . S
C446 C447 1.379 . S
C446 C451 1.392 . S
C447 C446 1.379 . S
C447 C448 1.404 . S
C447 H461 0.929 . S
C448 C447 1.404 . S
C448 C449 1.389 . S
C449 C448 1.389 . S
C449 C450 1.399 . S
C449 H462 0.931 . S
C450 C449 1.399 . S
C450 C451 1.390 . S
C451 C446 1.392 . S
C451 C450 1.390 . S
C451 H463 0.929 . S
O452 Tb436 2.326 . S
O452 C440 1.242 . S
O453 Eu437 2.324 . S
O453 C440 1.258 . S
O454 Tb436 2.500 . S
O454 C456 1.273 . S
O455 Tb436 2.473 . S
O455 C456 1.257 . S
C456 O454 1.273 . S
C456 O455 1.257 . S
O457 Eu437 2.326 . S
O457 C445 1.242 . S
O458 Tb436 2.324 . S
O458 C445 1.258 . S
O459 Eu437 2.500 . S
O459 C442 1.273 . S
O460 Eu437 2.473 . S
O460 C442 1.257 . S
H461 C447 0.929 . S
H462 C449 0.931 . S
H463 C451 0.929 . S
O464 Tb465 2.292 . S
O464 C467 1.255 . S
Tb465 O464 2.292 . S
Tb465 O481 2.326 . S
Tb465 O483 2.500 . S
Tb465 O484 2.473 . S
Tb465 O487 2.324 . S
Eu466 O470 2.292 . S
Eu466 C471 2.852 . S
Eu466 O482 2.324 . S
Eu466 O486 2.326 . S
Eu466 O488 2.500 . S
Eu466 O489 2.473 . S
C467 O464 1.255 . S
C467 O468 1.247 . S
O468 C467 1.247 . S
C469 O481 1.242 . S
C469 O482 1.258 . S
O470 Eu466 2.292 . S
O470 C472 1.255 . S
C471 Eu466 2.852 . S
C471 C475 1.503 . S
C471 O488 1.273 . S
C471 O489 1.257 . S
C472 O470 1.255 . S
C472 O473 1.247 . S
O473 C472 1.247 . S
C474 O486 1.242 . S
C474 O487 1.258 . S
C475 C471 1.503 . S
C475 C476 1.379 . S
C475 C480 1.392 . S
C476 C475 1.379 . S
C476 C477 1.404 . S
C476 H490 0.929 . S
C477 C476 1.404 . S
C477 C478 1.389 . S
C478 C477 1.389 . S
C478 C479 1.399 . S
C478 H491 0.931 . S
C479 C478 1.399 . S
C479 C480 1.390 . S
C480 C475 1.392 . S
C480 C479 1.390 . S
C480 H492 0.929 . S
O481 Tb465 2.326 . S
O481 C469 1.242 . S
O482 Eu466 2.324 . S
O482 C469 1.258 . S
O483 Tb465 2.500 . S
O483 C485 1.273 . S
O484 Tb465 2.473 . S
O484 C485 1.257 . S
C485 O483 1.273 . S
C485 O484 1.257 . S
O486 Eu466 2.326 . S
O486 C474 1.242 . S
O487 Tb465 2.324 . S
O487 C474 1.258 . S
O488 Eu466 2.500 . S
O488 C471 1.273 . S
O489 Eu466 2.473 . S
O489 C471 1.257 . S
H490 C476 0.929 . S
H491 C478 0.931 . S
H492 C480 0.929 . S
O493 Tb494 2.292 . S
O493 C496 1.255 . S
Tb494 O493 2.292 . S
Tb494 O510 2.326 . S
Tb494 O512 2.500 . S
Tb494 O513 2.473 . S
Tb494 O516 2.324 . S
Eu495 O499 2.292 . S
Eu495 C500 2.852 . S
Eu495 O511 2.324 . S
Eu495 O515 2.326 . S
Eu495 O517 2.500 . S
Eu495 O518 2.473 . S
C496 O493 1.255 . S
C496 O497 1.247 . S
O497 C496 1.247 . S
C498 O510 1.242 . S
C498 O511 1.258 . S
O499 Eu495 2.292 . S
O499 C501 1.255 . S
C500 Eu495 2.852 . S
C500 C504 1.503 . S
C500 O517 1.273 . S
C500 O518 1.257 . S
C501 O499 1.255 . S
C501 O502 1.247 . S
O502 C501 1.247 . S
C503 O515 1.242 . S
C503 O516 1.258 . S
C504 C500 1.503 . S
C504 C505 1.379 . S
C504 C509 1.392 . S
C505 C504 1.379 . S
C505 C506 1.404 . S
C505 H519 0.929 . S
C506 C505 1.404 . S
C506 C507 1.389 . S
C507 C506 1.389 . S
C507 C508 1.399 . S
C507 H520 0.931 . S
C508 C507 1.399 . S
C508 C509 1.390 . S
C509 C504 1.392 . S
C509 C508 1.390 . S
C509 H521 0.929 . S
O510 Tb494 2.326 . S
O510 C498 1.242 . S
O511 Eu495 2.324 . S
O511 C498 1.258 . S
O512 Tb494 2.500 . S
O512 C514 1.273 . S
O513 Tb494 2.473 . S
O513 C514 1.257 . S
C514 O512 1.273 . S
C514 O513 1.257 . S
O515 Eu495 2.326 . S
O515 C503 1.242 . S
O516 Tb494 2.324 . S
O516 C503 1.258 . S
O517 Eu495 2.500 . S
O517 C500 1.273 . S
O518 Eu495 2.473 . S
O518 C500 1.257 . S
H519 C505 0.929 . S
H520 C507 0.931 . S
H521 C509 0.929 . S
O522 Tb523 2.292 . S
O522 C525 1.255 . S
Tb523 O522 2.292 . S
Tb523 O539 2.326 . S
Tb523 O541 2.500 . S
Tb523 O542 2.473 . S
Tb523 O545 2.324 . S
Eu524 O528 2.292 . S
Eu524 C529 2.852 . S
Eu524 O540 2.324 . S
Eu524 O544 2.326 . S
Eu524 O546 2.500 . S
Eu524 O547 2.473 . S
C525 O522 1.255 . S
C525 O526 1.247 . S
O526 C525 1.247 . S
C527 O539 1.242 . S
C527 O540 1.258 . S
O528 Eu524 2.292 . S
O528 C530 1.255 . S
C529 Eu524 2.852 . S
C529 C533 1.503 . S
C529 O546 1.273 . S
C529 O547 1.257 . S
C530 O528 1.255 . S
C530 O531 1.247 . S
O531 C530 1.247 . S
C532 O544 1.242 . S
C532 O545 1.258 . S
C533 C529 1.503 . S
C533 C534 1.379 . S
C533 C538 1.392 . S
C534 C533 1.379 . S
C534 C535 1.404 . S
C534 H548 0.929 . S
C535 C534 1.404 . S
C535 C536 1.389 . S
C536 C535 1.389 . S
C536 C537 1.399 . S
C536 H549 0.931 . S
C537 C536 1.399 . S
C537 C538 1.390 . S
C538 C533 1.392 . S
C538 C537 1.390 . S
C538 H550 0.929 . S
O539 Tb523 2.326 . S
O539 C527 1.242 . S
O540 Eu524 2.324 . S
O540 C527 1.258 . S
O541 Tb523 2.500 . S
O541 C543 1.273 . S
O542 Tb523 2.473 . S
O542 C543 1.257 . S
C543 O541 1.273 . S
C543 O542 1.257 . S
O544 Eu524 2.326 . S
O544 C532 1.242 . S
O545 Tb523 2.324 . S
O545 C532 1.258 . S
O546 Eu524 2.500 . S
O546 C529 1.273 . S
O547 Eu524 2.473 . S
O547 C529 1.257 . S
H548 C534 0.929 . S
H549 C536 0.931 . S
H550 C538 0.929 . S
O551 Tb552 2.292 . S
O551 C554 1.255 . S
Tb552 O551 2.292 . S
Tb552 O568 2.326 . S
Tb552 O570 2.500 . S
Tb552 O571 2.473 . S
Tb552 O574 2.324 . S
Eu553 O557 2.292 . S
Eu553 C558 2.852 . S
Eu553 O569 2.324 . S
Eu553 O573 2.326 . S
Eu553 O575 2.500 . S
Eu553 O576 2.473 . S
C554 O551 1.255 . S
C554 O555 1.247 . S
O555 C554 1.247 . S
C556 O568 1.242 . S
C556 O569 1.258 . S
O557 Eu553 2.292 . S
O557 C559 1.255 . S
C558 Eu553 2.852 . S
C558 C562 1.503 . S
C558 O575 1.273 . S
C558 O576 1.257 . S
C559 O557 1.255 . S
C559 O560 1.247 . S
O560 C559 1.247 . S
C561 O573 1.242 . S
C561 O574 1.258 . S
C562 C558 1.503 . S
C562 C563 1.379 . S
C562 C567 1.392 . S
C563 C562 1.379 . S
C563 C564 1.404 . S
C563 H577 0.929 . S
C564 C563 1.404 . S
C564 C565 1.389 . S
C565 C564 1.389 . S
C565 C566 1.399 . S
C565 H578 0.931 . S
C566 C565 1.399 . S
C566 C567 1.390 . S
C567 C562 1.392 . S
C567 C566 1.390 . S
C567 H579 0.929 . S
O568 Tb552 2.326 . S
O568 C556 1.242 . S
O569 Eu553 2.324 . S
O569 C556 1.258 . S
O570 Tb552 2.500 . S
O570 C572 1.273 . S
O571 Tb552 2.473 . S
O571 C572 1.257 . S
C572 O570 1.273 . S
C572 O571 1.257 . S
O573 Eu553 2.326 . S
O573 C561 1.242 . S
O574 Tb552 2.324 . S
O574 C561 1.258 . S
O575 Eu553 2.500 . S
O575 C558 1.273 . S
O576 Eu553 2.473 . S
O576 C558 1.257 . S
H577 C563 0.929 . S
H578 C565 0.931 . S
H579 C567 0.929 . S
O580 Tb581 2.292 . S
O580 C583 1.255 . S
Tb581 O580 2.292 . S
Tb581 O597 2.326 . S
Tb581 O599 2.500 . S
Tb581 O600 2.473 . S
Tb581 O603 2.324 . S
Eu582 O586 2.292 . S
Eu582 C587 2.852 . S
Eu582 O598 2.324 . S
Eu582 O602 2.326 . S
Eu582 O604 2.500 . S
Eu582 O605 2.473 . S
C583 O580 1.255 . S
C583 O584 1.247 . S
O584 C583 1.247 . S
C585 O597 1.242 . S
C585 O598 1.258 . S
O586 Eu582 2.292 . S
O586 C588 1.255 . S
C587 Eu582 2.852 . S
C587 C591 1.503 . S
C587 O604 1.273 . S
C587 O605 1.257 . S
C588 O586 1.255 . S
C588 O589 1.247 . S
O589 C588 1.247 . S
C590 O602 1.242 . S
C590 O603 1.258 . S
C591 C587 1.503 . S
C591 C592 1.379 . S
C591 C596 1.392 . S
C592 C591 1.379 . S
C592 C593 1.404 . S
C592 H606 0.929 . S
C593 C592 1.404 . S
C593 C594 1.389 . S
C594 C593 1.389 . S
C594 C595 1.399 . S
C594 H607 0.931 . S
C595 C594 1.399 . S
C595 C596 1.390 . S
C596 C591 1.392 . S
C596 C595 1.390 . S
C596 H608 0.929 . S
O597 Tb581 2.326 . S
O597 C585 1.242 . S
O598 Eu582 2.324 . S
O598 C585 1.258 . S
O599 Tb581 2.500 . S
O599 C601 1.273 . S
O600 Tb581 2.473 . S
O600 C601 1.257 . S
C601 O599 1.273 . S
C601 O600 1.257 . S
O602 Eu582 2.326 . S
O602 C590 1.242 . S
O603 Tb581 2.324 . S
O603 C590 1.258 . S
O604 Eu582 2.500 . S
O604 C587 1.273 . S
O605 Eu582 2.473 . S
O605 C587 1.257 . S
H606 C592 0.929 . S
H607 C594 0.931 . S
H608 C596 0.929 . S
O609 Tb610 2.292 . S
O609 C612 1.255 . S
Tb610 O609 2.292 . S
Tb610 O626 2.326 . S
Tb610 O628 2.500 . S
Tb610 O629 2.473 . S
Tb610 O632 2.324 . S
Eu611 O615 2.292 . S
Eu611 C616 2.852 . S
Eu611 O627 2.324 . S
Eu611 O631 2.326 . S
Eu611 O633 2.500 . S
Eu611 O634 2.473 . S
C612 O609 1.255 . S
C612 O613 1.247 . S
O613 C612 1.247 . S
C614 O626 1.242 . S
C614 O627 1.258 . S
O615 Eu611 2.292 . S
O615 C617 1.255 . S
C616 Eu611 2.852 . S
C616 C620 1.503 . S
C616 O633 1.273 . S
C616 O634 1.257 . S
C617 O615 1.255 . S
C617 O618 1.247 . S
O618 C617 1.247 . S
C619 O631 1.242 . S
C619 O632 1.258 . S
C620 C616 1.503 . S
C620 C621 1.379 . S
C620 C625 1.392 . S
C621 C620 1.379 . S
C621 C622 1.404 . S
C621 H635 0.929 . S
C622 C621 1.404 . S
C622 C623 1.389 . S
C623 C622 1.389 . S
C623 C624 1.399 . S
C623 H636 0.931 . S
C624 C623 1.399 . S
C624 C625 1.390 . S
C625 C620 1.392 . S
C625 C624 1.390 . S
C625 H637 0.929 . S
O626 Tb610 2.326 . S
O626 C614 1.242 . S
O627 Eu611 2.324 . S
O627 C614 1.258 . S
O628 Tb610 2.500 . S
O628 C630 1.273 . S
O629 Tb610 2.473 . S
O629 C630 1.257 . S
C630 O628 1.273 . S
C630 O629 1.257 . S
O631 Eu611 2.326 . S
O631 C619 1.242 . S
O632 Tb610 2.324 . S
O632 C619 1.258 . S
O633 Eu611 2.500 . S
O633 C616 1.273 . S
O634 Eu611 2.473 . S
O634 C616 1.257 . S
H635 C621 0.929 . S
H636 C623 0.931 . S
H637 C625 0.929 . S
O638 Tb639 2.292 . S
O638 C641 1.255 . S
Tb639 O638 2.292 . S
Tb639 O655 2.326 . S
Tb639 O657 2.500 . S
Tb639 O658 2.473 . S
Tb639 O661 2.324 . S
Eu640 O644 2.292 . S
Eu640 C645 2.852 . S
Eu640 O656 2.324 . S
Eu640 O660 2.326 . S
Eu640 O662 2.500 . S
Eu640 O663 2.473 . S
C641 O638 1.255 . S
C641 O642 1.247 . S
O642 C641 1.247 . S
C643 O655 1.242 . S
C643 O656 1.258 . S
O644 Eu640 2.292 . S
O644 C646 1.255 . S
C645 Eu640 2.852 . S
C645 C649 1.503 . S
C645 O662 1.273 . S
C645 O663 1.257 . S
C646 O644 1.255 . S
C646 O647 1.247 . S
O647 C646 1.247 . S
C648 O660 1.242 . S
C648 O661 1.258 . S
C649 C645 1.503 . S
C649 C650 1.379 . S
C649 C654 1.392 . S
C650 C649 1.379 . S
C650 C651 1.404 . S
C650 H664 0.929 . S
C651 C650 1.404 . S
C651 C652 1.389 . S
C652 C651 1.389 . S
C652 C653 1.399 . S
C652 H665 0.931 . S
C653 C652 1.399 . S
C653 C654 1.390 . S
C654 C649 1.392 . S
C654 C653 1.390 . S
C654 H666 0.929 . S
O655 Tb639 2.326 . S
O655 C643 1.242 . S
O656 Eu640 2.324 . S
O656 C643 1.258 . S
O657 Tb639 2.500 . S
O657 C659 1.273 . S
O658 Tb639 2.473 . S
O658 C659 1.257 . S
C659 O657 1.273 . S
C659 O658 1.257 . S
O660 Eu640 2.326 . S
O660 C648 1.242 . S
O661 Tb639 2.324 . S
O661 C648 1.258 . S
O662 Eu640 2.500 . S
O662 C645 1.273 . S
O663 Eu640 2.473 . S
O663 C645 1.257 . S
H664 C650 0.929 . S
H665 C652 0.931 . S
H666 C654 0.929 . S
O667 Tb668 2.292 . S
O667 C670 1.255 . S
Tb668 O667 2.292 . S
Tb668 O684 2.326 . S
Tb668 O686 2.500 . S
Tb668 O687 2.473 . S
Tb668 O690 2.324 . S
Eu669 O673 2.292 . S
Eu669 C674 2.852 . S
Eu669 O685 2.324 . S
Eu669 O689 2.326 . S
Eu669 O691 2.500 . S
Eu669 O692 2.473 . S
C670 O667 1.255 . S
C670 O671 1.247 . S
O671 C670 1.247 . S
C672 O684 1.242 . S
C672 O685 1.258 . S
O673 Eu669 2.292 . S
O673 C675 1.255 . S
C674 Eu669 2.852 . S
C674 C678 1.503 . S
C674 O691 1.273 . S
C674 O692 1.257 . S
C675 O673 1.255 . S
C675 O676 1.247 . S
O676 C675 1.247 . S
C677 O689 1.242 . S
C677 O690 1.258 . S
C678 C674 1.503 . S
C678 C679 1.379 . S
C678 C683 1.392 . S
C679 C678 1.379 . S
C679 C680 1.404 . S
C679 H693 0.929 . S
C680 C679 1.404 . S
C680 C681 1.389 . S
C681 C680 1.389 . S
C681 C682 1.399 . S
C681 H694 0.931 . S
C682 C681 1.399 . S
C682 C683 1.390 . S
C683 C678 1.392 . S
C683 C682 1.390 . S
C683 H695 0.929 . S
O684 Tb668 2.326 . S
O684 C672 1.242 . S
O685 Eu669 2.324 . S
O685 C672 1.258 . S
O686 Tb668 2.500 . S
O686 C688 1.273 . S
O687 Tb668 2.473 . S
O687 C688 1.257 . S
C688 O686 1.273 . S
C688 O687 1.257 . S
O689 Eu669 2.326 . S
O689 C677 1.242 . S
O690 Tb668 2.324 . S
O690 C677 1.258 . S
O691 Eu669 2.500 . S
O691 C674 1.273 . S
O692 Eu669 2.473 . S
O692 C674 1.257 . S
H693 C679 0.929 . S
H694 C681 0.931 . S
H695 C683 0.929 . S
O696 Tb697 2.292 . S
O696 C699 1.255 . S
Tb697 O696 2.292 . S
Tb697 O713 2.326 . S
Tb697 O715 2.500 . S
Tb697 O716 2.473 . S
Tb697 O719 2.324 . S
Eu698 O702 2.292 . S
Eu698 C703 2.852 . S
Eu698 O714 2.324 . S
Eu698 O718 2.326 . S
Eu698 O720 2.500 . S
Eu698 O721 2.473 . S
C699 O696 1.255 . S
C699 O700 1.247 . S
O700 C699 1.247 . S
C701 O713 1.242 . S
C701 O714 1.258 . S
O702 Eu698 2.292 . S
O702 C704 1.255 . S
C703 Eu698 2.852 . S
C703 C707 1.503 . S
C703 O720 1.273 . S
C703 O721 1.257 . S
C704 O702 1.255 . S
C704 O705 1.247 . S
O705 C704 1.247 . S
C706 O718 1.242 . S
C706 O719 1.258 . S
C707 C703 1.503 . S
C707 C708 1.379 . S
C707 C712 1.392 . S
C708 C707 1.379 . S
C708 C709 1.404 . S
C708 H722 0.929 . S
C709 C708 1.404 . S
C709 C710 1.389 . S
C710 C709 1.389 . S
C710 C711 1.399 . S
C710 H723 0.931 . S
C711 C710 1.399 . S
C711 C712 1.390 . S
C712 C707 1.392 . S
C712 C711 1.390 . S
C712 H724 0.929 . S
O713 Tb697 2.326 . S
O713 C701 1.242 . S
O714 Eu698 2.324 . S
O714 C701 1.258 . S
O715 Tb697 2.500 . S
O715 C717 1.273 . S
O716 Tb697 2.473 . S
O716 C717 1.257 . S
C717 O715 1.273 . S
C717 O716 1.257 . S
O718 Eu698 2.326 . S
O718 C706 1.242 . S
O719 Tb697 2.324 . S
O719 C706 1.258 . S
O720 Eu698 2.500 . S
O720 C703 1.273 . S
O721 Eu698 2.473 . S
O721 C703 1.257 . S
H722 C708 0.929 . S
H723 C710 0.931 . S
H724 C712 0.929 . S
O725 Tb726 2.292 . S
O725 C728 1.255 . S
Tb726 O725 2.292 . S
Tb726 O742 2.326 . S
Tb726 O744 2.500 . S
Tb726 O745 2.473 . S
Tb726 O748 2.324 . S
Eu727 O731 2.292 . S
Eu727 C732 2.852 . S
Eu727 O743 2.324 . S
Eu727 O747 2.326 . S
Eu727 O749 2.500 . S
Eu727 O750 2.473 . S
C728 O725 1.255 . S
C728 O729 1.247 . S
O729 C728 1.247 . S
C730 O742 1.242 . S
C730 O743 1.258 . S
O731 Eu727 2.292 . S
O731 C733 1.255 . S
C732 Eu727 2.852 . S
C732 C736 1.503 . S
C732 O749 1.273 . S
C732 O750 1.257 . S
C733 O731 1.255 . S
C733 O734 1.247 . S
O734 C733 1.247 . S
C735 O747 1.242 . S
C735 O748 1.258 . S
C736 C732 1.503 . S
C736 C737 1.379 . S
C736 C741 1.392 . S
C737 C736 1.379 . S
C737 C738 1.404 . S
C737 H751 0.929 . S
C738 C737 1.404 . S
C738 C739 1.389 . S
C739 C738 1.389 . S
C739 C740 1.399 . S
C739 H752 0.931 . S
C740 C739 1.399 . S
C740 C741 1.390 . S
C741 C736 1.392 . S
C741 C740 1.390 . S
C741 H753 0.929 . S
O742 Tb726 2.326 . S
O742 C730 1.242 . S
O743 Eu727 2.324 . S
O743 C730 1.258 . S
O744 Tb726 2.500 . S
O744 C746 1.273 . S
O745 Tb726 2.473 . S
O745 C746 1.257 . S
C746 O744 1.273 . S
C746 O745 1.257 . S
O747 Eu727 2.326 . S
O747 C735 1.242 . S
O748 Tb726 2.324 . S
O748 C735 1.258 . S
O749 Eu727 2.500 . S
O749 C732 1.273 . S
O750 Eu727 2.473 . S
O750 C732 1.257 . S
H751 C737 0.929 . S
H752 C739 0.931 . S
H753 C741 0.929 . S
O754 Tb755 2.292 . S
O754 C757 1.255 . S
Tb755 O754 2.292 . S
Tb755 O771 2.326 . S
Tb755 O773 2.500 . S
Tb755 O774 2.473 . S
Tb755 O777 2.324 . S
Eu756 O760 2.292 . S
Eu756 C761 2.852 . S
Eu756 O772 2.324 . S
Eu756 O776 2.326 . S
Eu756 O778 2.500 . S
Eu756 O779 2.473 . S
C757 O754 1.255 . S
C757 O758 1.247 . S
O758 C757 1.247 . S
C759 O771 1.242 . S
C759 O772 1.258 . S
O760 Eu756 2.292 . S
O760 C762 1.255 . S
C761 Eu756 2.852 . S
C761 C765 1.503 . S
C761 O778 1.273 . S
C761 O779 1.257 . S
C762 O760 1.255 . S
C762 O763 1.247 . S
O763 C762 1.247 . S
C764 O776 1.242 . S
C764 O777 1.258 . S
C765 C761 1.503 . S
C765 C766 1.379 . S
C765 C770 1.392 . S
C766 C765 1.379 . S
C766 C767 1.404 . S
C766 H780 0.929 . S
C767 C766 1.404 . S
C767 C768 1.389 . S
C768 C767 1.389 . S
C768 C769 1.399 . S
C768 H781 0.931 . S
C769 C768 1.399 . S
C769 C770 1.390 . S
C770 C765 1.392 . S
C770 C769 1.390 . S
C770 H782 0.929 . S
O771 Tb755 2.326 . S
O771 C759 1.242 . S
O772 Eu756 2.324 . S
O772 C759 1.258 . S
O773 Tb755 2.500 . S
O773 C775 1.273 . S
O774 Tb755 2.473 . S
O774 C775 1.257 . S
C775 O773 1.273 . S
C775 O774 1.257 . S
O776 Eu756 2.326 . S
O776 C764 1.242 . S
O777 Tb755 2.324 . S
O777 C764 1.258 . S
O778 Eu756 2.500 . S
O778 C761 1.273 . S
O779 Eu756 2.473 . S
O779 C761 1.257 . S
H780 C766 0.929 . S
H781 C768 0.931 . S
H782 C770 0.929 . S
O783 Tb784 2.292 . S
O783 C786 1.255 . S
Tb784 O783 2.292 . S
Tb784 O800 2.326 . S
Tb784 O802 2.500 . S
Tb784 O803 2.473 . S
Tb784 O806 2.324 . S
Eu785 O789 2.292 . S
Eu785 C790 2.852 . S
Eu785 O801 2.324 . S
Eu785 O805 2.326 . S
Eu785 O807 2.500 . S
Eu785 O808 2.473 . S
C786 O783 1.255 . S
C786 O787 1.247 . S
O787 C786 1.247 . S
C788 O800 1.242 . S
C788 O801 1.258 . S
O789 Eu785 2.292 . S
O789 C791 1.255 . S
C790 Eu785 2.852 . S
C790 C794 1.503 . S
C790 O807 1.273 . S
C790 O808 1.257 . S
C791 O789 1.255 . S
C791 O792 1.247 . S
O792 C791 1.247 . S
C793 O805 1.242 . S
C793 O806 1.258 . S
C794 C790 1.503 . S
C794 C795 1.379 . S
C794 C799 1.392 . S
C795 C794 1.379 . S
C795 C796 1.404 . S
C795 H809 0.929 . S
C796 C795 1.404 . S
C796 C797 1.389 . S
C797 C796 1.389 . S
C797 C798 1.399 . S
C797 H810 0.931 . S
C798 C797 1.399 . S
C798 C799 1.390 . S
C799 C794 1.392 . S
C799 C798 1.390 . S
C799 H811 0.929 . S
O800 Tb784 2.326 . S
O800 C788 1.242 . S
O801 Eu785 2.324 . S
O801 C788 1.258 . S
O802 Tb784 2.500 . S
O802 C804 1.273 . S
O803 Tb784 2.473 . S
O803 C804 1.257 . S
C804 O802 1.273 . S
C804 O803 1.257 . S
O805 Eu785 2.326 . S
O805 C793 1.242 . S
O806 Tb784 2.324 . S
O806 C793 1.258 . S
O807 Eu785 2.500 . S
O807 C790 1.273 . S
O808 Eu785 2.473 . S
O808 C790 1.257 . S
H809 C795 0.929 . S
H810 C797 0.931 . S
H811 C799 0.929 . S
O812 Tb813 2.292 . S
O812 C815 1.255 . S
Tb813 O812 2.292 . S
Tb813 O829 2.326 . S
Tb813 O831 2.500 . S
Tb813 O832 2.473 . S
Tb813 O835 2.324 . S
Eu814 O818 2.292 . S
Eu814 C819 2.852 . S
Eu814 O830 2.324 . S
Eu814 O834 2.326 . S
Eu814 O836 2.500 . S
Eu814 O837 2.473 . S
C815 O812 1.255 . S
C815 O816 1.247 . S
O816 C815 1.247 . S
C817 O829 1.242 . S
C817 O830 1.258 . S
O818 Eu814 2.292 . S
O818 C820 1.255 . S
C819 Eu814 2.852 . S
C819 C823 1.503 . S
C819 O836 1.273 . S
C819 O837 1.257 . S
C820 O818 1.255 . S
C820 O821 1.247 . S
O821 C820 1.247 . S
C822 O834 1.242 . S
C822 O835 1.258 . S
C823 C819 1.503 . S
C823 C824 1.379 . S
C823 C828 1.392 . S
C824 C823 1.379 . S
C824 C825 1.404 . S
C824 H838 0.929 . S
C825 C824 1.404 . S
C825 C826 1.389 . S
C826 C825 1.389 . S
C826 C827 1.399 . S
C826 H839 0.931 . S
C827 C826 1.399 . S
C827 C828 1.390 . S
C828 C823 1.392 . S
C828 C827 1.390 . S
C828 H840 0.929 . S
O829 Tb813 2.326 . S
O829 C817 1.242 . S
O830 Eu814 2.324 . S
O830 C817 1.258 . S
O831 Tb813 2.500 . S
O831 C833 1.273 . S
O832 Tb813 2.473 . S
O832 C833 1.257 . S
C833 O831 1.273 . S
C833 O832 1.257 . S
O834 Eu814 2.326 . S
O834 C822 1.242 . S
O835 Tb813 2.324 . S
O835 C822 1.258 . S
O836 Eu814 2.500 . S
O836 C819 1.273 . S
O837 Eu814 2.473 . S
O837 C819 1.257 . S
H838 C824 0.929 . S
H839 C826 0.931 . S
H840 C828 0.929 . S
O841 Tb842 2.292 . S
O841 C844 1.255 . S
Tb842 O841 2.292 . S
Tb842 O858 2.326 . S
Tb842 O860 2.500 . S
Tb842 O861 2.473 . S
Tb842 O864 2.324 . S
Eu843 O847 2.292 . S
Eu843 C848 2.852 . S
Eu843 O859 2.324 . S
Eu843 O863 2.326 . S
Eu843 O865 2.500 . S
Eu843 O866 2.473 . S
C844 O841 1.255 . S
C844 O845 1.247 . S
O845 C844 1.247 . S
C846 O858 1.242 . S
C846 O859 1.258 . S
O847 Eu843 2.292 . S
O847 C849 1.255 . S
C848 Eu843 2.852 . S
C848 C852 1.503 . S
C848 O865 1.273 . S
C848 O866 1.257 . S
C849 O847 1.255 . S
C849 O850 1.247 . S
O850 C849 1.247 . S
C851 O863 1.242 . S
C851 O864 1.258 . S
C852 C848 1.503 . S
C852 C853 1.379 . S
C852 C857 1.392 . S
C853 C852 1.379 . S
C853 C854 1.404 . S
C853 H867 0.929 . S
C854 C853 1.404 . S
C854 C855 1.389 . S
C855 C854 1.389 . S
C855 C856 1.399 . S
C855 H868 0.931 . S
C856 C855 1.399 . S
C856 C857 1.390 . S
C857 C852 1.392 . S
C857 C856 1.390 . S
C857 H869 0.929 . S
O858 Tb842 2.326 . S
O858 C846 1.242 . S
O859 Eu843 2.324 . S
O859 C846 1.258 . S
O860 Tb842 2.500 . S
O860 C862 1.273 . S
O861 Tb842 2.473 . S
O861 C862 1.257 . S
C862 O860 1.273 . S
C862 O861 1.257 . S
O863 Eu843 2.326 . S
O863 C851 1.242 . S
O864 Tb842 2.324 . S
O864 C851 1.258 . S
O865 Eu843 2.500 . S
O865 C848 1.273 . S
O866 Eu843 2.473 . S
O866 C848 1.257 . S
H867 C853 0.929 . S
H868 C855 0.931 . S
H869 C857 0.929 . S
O870 Tb871 2.292 . S
O870 C873 1.255 . S
Tb871 O870 2.292 . S
Tb871 O887 2.326 . S
Tb871 O889 2.500 . S
Tb871 O890 2.473 . S
Tb871 O893 2.324 . S
Eu872 O876 2.292 . S
Eu872 C877 2.852 . S
Eu872 O888 2.324 . S
Eu872 O892 2.326 . S
Eu872 O894 2.500 . S
Eu872 O895 2.473 . S
C873 O870 1.255 . S
C873 O874 1.247 . S
O874 C873 1.247 . S
C875 O887 1.242 . S
C875 O888 1.258 . S
O876 Eu872 2.292 . S
O876 C878 1.255 . S
C877 Eu872 2.852 . S
C877 C881 1.503 . S
C877 O894 1.273 . S
C877 O895 1.257 . S
C878 O876 1.255 . S
C878 O879 1.247 . S
O879 C878 1.247 . S
C880 O892 1.242 . S
C880 O893 1.258 . S
C881 C877 1.503 . S
C881 C882 1.379 . S
C881 C886 1.392 . S
C882 C881 1.379 . S
C882 C883 1.404 . S
C882 H896 0.929 . S
C883 C882 1.404 . S
C883 C884 1.389 . S
C884 C883 1.389 . S
C884 C885 1.399 . S
C884 H897 0.931 . S
C885 C884 1.399 . S
C885 C886 1.390 . S
C886 C881 1.392 . S
C886 C885 1.390 . S
C886 H898 0.929 . S
O887 Tb871 2.326 . S
O887 C875 1.242 . S
O888 Eu872 2.324 . S
O888 C875 1.258 . S
O889 Tb871 2.500 . S
O889 C891 1.273 . S
O890 Tb871 2.473 . S
O890 C891 1.257 . S
C891 O889 1.273 . S
C891 O890 1.257 . S
O892 Eu872 2.326 . S
O892 C880 1.242 . S
O893 Tb871 2.324 . S
O893 C880 1.258 . S
O894 Eu872 2.500 . S
O894 C877 1.273 . S
O895 Eu872 2.473 . S
O895 C877 1.257 . S
H896 C882 0.929 . S
H897 C884 0.931 . S
H898 C886 0.929 . S
O899 Tb900 2.292 . S
O899 C902 1.255 . S
Tb900 O899 2.292 . S
Tb900 O916 2.326 . S
Tb900 O918 2.500 . S
Tb900 O919 2.473 . S
Tb900 O922 2.324 . S
Eu901 O905 2.292 . S
Eu901 C906 2.852 . S
Eu901 O917 2.324 . S
Eu901 O921 2.326 . S
Eu901 O923 2.500 . S
Eu901 O924 2.473 . S
C902 O899 1.255 . S
C902 O903 1.247 . S
O903 C902 1.247 . S
C904 O916 1.242 . S
C904 O917 1.258 . S
O905 Eu901 2.292 . S
O905 C907 1.255 . S
C906 Eu901 2.852 . S
C906 C910 1.503 . S
C906 O923 1.273 . S
C906 O924 1.257 . S
C907 O905 1.255 . S
C907 O908 1.247 . S
O908 C907 1.247 . S
C909 O921 1.242 . S
C909 O922 1.258 . S
C910 C906 1.503 . S
C910 C911 1.379 . S
C910 C915 1.392 . S
C911 C910 1.379 . S
C911 C912 1.404 . S
C911 H925 0.929 . S
C912 C911 1.404 . S
C912 C913 1.389 . S
C913 C912 1.389 . S
C913 C914 1.399 . S
C913 H926 0.931 . S
C914 C913 1.399 . S
C914 C915 1.390 . S
C915 C910 1.392 . S
C915 C914 1.390 . S
C915 H927 0.929 . S
O916 Tb900 2.326 . S
O916 C904 1.242 . S
O917 Eu901 2.324 . S
O917 C904 1.258 . S
O918 Tb900 2.500 . S
O918 C920 1.273 . S
O919 Tb900 2.473 . S
O919 C920 1.257 . S
C920 O918 1.273 . S
C920 O919 1.257 . S
O921 Eu901 2.326 . S
O921 C909 1.242 . S
O922 Tb900 2.324 . S
O922 C909 1.258 . S
O923 Eu901 2.500 . S
O923 C906 1.273 . S
O924 Eu901 2.473 . S
O924 C906 1.257 . S
H925 C911 0.929 . S
H926 C913 0.931 . S
H927 C915 0.929 . S
O928 Tb929 2.292 . S
O928 C931 1.255 . S
Tb929 O928 2.292 . S
Tb929 O945 2.326 . S
Tb929 O947 2.500 . S
Tb929 O948 2.473 . S
Tb929 O951 2.324 . S
Eu930 O934 2.292 . S
Eu930 C935 2.852 . S
Eu930 O946 2.324 . S
Eu930 O950 2.326 . S
Eu930 O952 2.500 . S
Eu930 O953 2.473 . S
C931 O928 1.255 . S
C931 O932 1.247 . S
O932 C931 1.247 . S
C933 O945 1.242 . S
C933 O946 1.258 . S
O934 Eu930 2.292 . S
O934 C936 1.255 . S
C935 Eu930 2.852 . S
C935 C939 1.503 . S
C935 O952 1.273 . S
C935 O953 1.257 . S
C936 O934 1.255 . S
C936 O937 1.247 . S
O937 C936 1.247 . S
C938 O950 1.242 . S
C938 O951 1.258 . S
C939 C935 1.503 . S
C939 C940 1.379 . S
C939 C944 1.392 . S
C940 C939 1.379 . S
C940 C941 1.404 . S
C940 H954 0.929 . S
C941 C940 1.404 . S
C941 C942 1.389 . S
C942 C941 1.389 . S
C942 C943 1.399 . S
C942 H955 0.931 . S
C943 C942 1.399 . S
C943 C944 1.390 . S
C944 C939 1.392 . S
C944 C943 1.390 . S
C944 H956 0.929 . S
O945 Tb929 2.326 . S
O945 C933 1.242 . S
O946 Eu930 2.324 . S
O946 C933 1.258 . S
O947 Tb929 2.500 . S
O947 C949 1.273 . S
O948 Tb929 2.473 . S
O948 C949 1.257 . S
C949 O947 1.273 . S
C949 O948 1.257 . S
O950 Eu930 2.326 . S
O950 C938 1.242 . S
O951 Tb929 2.324 . S
O951 C938 1.258 . S
O952 Eu930 2.500 . S
O952 C935 1.273 . S
O953 Eu930 2.473 . S
O953 C935 1.257 . S
H954 C940 0.929 . S
H955 C942 0.931 . S
H956 C944 0.929 . S
O957 Tb958 2.292 . S
O957 C960 1.255 . S
Tb958 O957 2.292 . S
Tb958 O974 2.326 . S
Tb958 O976 2.500 . S
Tb958 O977 2.473 . S
Tb958 O980 2.324 . S
Eu959 O963 2.292 . S
Eu959 C964 2.852 . S
Eu959 O975 2.324 . S
Eu959 O979 2.326 . S
Eu959 O981 2.500 . S
Eu959 O982 2.473 . S
C960 O957 1.255 . S
C960 O961 1.247 . S
O961 C960 1.247 . S
C962 O974 1.242 . S
C962 O975 1.258 . S
O963 Eu959 2.292 . S
O963 C965 1.255 . S
C964 Eu959 2.852 . S
C964 C968 1.503 . S
C964 O981 1.273 . S
C964 O982 1.257 . S
C965 O963 1.255 . S
C965 O966 1.247 . S
O966 C965 1.247 . S
C967 O979 1.242 . S
C967 O980 1.258 . S
C968 C964 1.503 . S
C968 C969 1.379 . S
C968 C973 1.392 . S
C969 C968 1.379 . S
C969 C970 1.404 . S
C969 H983 0.929 . S
C970 C969 1.404 . S
C970 C971 1.389 . S
C971 C970 1.389 . S
C971 C972 1.399 . S
C971 H984 0.931 . S
C972 C971 1.399 . S
C972 C973 1.390 . S
C973 C968 1.392 . S
C973 C972 1.390 . S
C973 H985 0.929 . S
O974 Tb958 2.326 . S
O974 C962 1.242 . S
O975 Eu959 2.324 . S
O975 C962 1.258 . S
O976 Tb958 2.500 . S
O976 C978 1.273 . S
O977 Tb958 2.473 . S
O977 C978 1.257 . S
C978 O976 1.273 . S
C978 O977 1.257 . S
O979 Eu959 2.326 . S
O979 C967 1.242 . S
O980 Tb958 2.324 . S
O980 C967 1.258 . S
O981 Eu959 2.500 . S
O981 C964 1.273 . S
O982 Eu959 2.473 . S
O982 C964 1.257 . S
H983 C969 0.929 . S
H984 C971 0.931 . S
H985 C973 0.929 . S
O986 Tb987 2.292 . S
O986 C989 1.255 . S
Tb987 O986 2.292 . S
Tb987 O1003 2.326 . S
Tb987 O1005 2.500 . S
Tb987 O1006 2.473 . S
Tb987 O1009 2.324 . S
Eu988 O992 2.292 . S
Eu988 C993 2.852 . S
Eu988 O1004 2.324 . S
Eu988 O1008 2.326 . S
Eu988 O1010 2.500 . S
Eu988 O1011 2.473 . S
C989 O986 1.255 . S
C989 O990 1.247 . S
O990 C989 1.247 . S
C991 O1003 1.242 . S
C991 O1004 1.258 . S
O992 Eu988 2.292 . S
O992 C994 1.255 . S
C993 Eu988 2.852 . S
C993 C997 1.503 . S
C993 O1010 1.273 . S
C993 O1011 1.257 . S
C994 O992 1.255 . S
C994 O995 1.247 . S
O995 C994 1.247 . S
C996 O1008 1.242 . S
C996 O1009 1.258 . S
C997 C993 1.503 . S
C997 C998 1.379 . S
C997 C1002 1.392 . S
C998 C997 1.379 . S
C998 C999 1.404 . S
C998 H1012 0.929 . S
C999 C998 1.404 . S
C999 C1000 1.389 . S
C1000 C999 1.389 . S
C1000 C1001 1.399 . S
C1000 H1013 0.931 . S
C1001 C1000 1.399 . S
C1001 C1002 1.390 . S
C1002 C997 1.392 . S
C1002 C1001 1.390 . S
C1002 H1014 0.929 . S
O1003 Tb987 2.326 . S
O1003 C991 1.242 . S
O1004 Eu988 2.324 . S
O1004 C991 1.258 . S
O1005 Tb987 2.500 . S
O1005 C1007 1.273 . S
O1006 Tb987 2.473 . S
O1006 C1007 1.257 . S
C1007 O1005 1.273 . S
C1007 O1006 1.257 . S
O1008 Eu988 2.326 . S
O1008 C996 1.242 . S
O1009 Tb987 2.324 . S
O1009 C996 1.258 . S
O1010 Eu988 2.500 . S
O1010 C993 1.273 . S
O1011 Eu988 2.473 . S
O1011 C993 1.257 . S
H1012 C998 0.929 . S
H1013 C1000 0.931 . S
H1014 C1002 0.929 . S
O1015 Tb1016 2.292 . S
O1015 C1018 1.255 . S
Tb1016 O1015 2.292 . S
Tb1016 O1032 2.326 . S
Tb1016 O1034 2.500 . S
Tb1016 O1035 2.473 . S
Tb1016 O1038 2.324 . S
Eu1017 O1021 2.292 . S
Eu1017 C1022 2.852 . S
Eu1017 O1033 2.324 . S
Eu1017 O1037 2.326 . S
Eu1017 O1039 2.500 . S
Eu1017 O1040 2.473 . S
C1018 O1015 1.255 . S
C1018 O1019 1.247 . S
O1019 C1018 1.247 . S
C1020 O1032 1.242 . S
C1020 O1033 1.258 . S
O1021 Eu1017 2.292 . S
O1021 C1023 1.255 . S
C1022 Eu1017 2.852 . S
C1022 C1026 1.503 . S
C1022 O1039 1.273 . S
C1022 O1040 1.257 . S
C1023 O1021 1.255 . S
C1023 O1024 1.247 . S
O1024 C1023 1.247 . S
C1025 O1037 1.242 . S
C1025 O1038 1.258 . S
C1026 C1022 1.503 . S
C1026 C1027 1.379 . S
C1026 C1031 1.392 . S
C1027 C1026 1.379 . S
C1027 C1028 1.404 . S
C1027 H1041 0.929 . S
C1028 C1027 1.404 . S
C1028 C1029 1.389 . S
C1029 C1028 1.389 . S
C1029 C1030 1.399 . S
C1029 H1042 0.931 . S
C1030 C1029 1.399 . S
C1030 C1031 1.390 . S
C1031 C1026 1.392 . S
C1031 C1030 1.390 . S
C1031 H1043 0.929 . S
O1032 Tb1016 2.326 . S
O1032 C1020 1.242 . S
O1033 Eu1017 2.324 . S
O1033 C1020 1.258 . S
O1034 Tb1016 2.500 . S
O1034 C1036 1.273 . S
O1035 Tb1016 2.473 . S
O1035 C1036 1.257 . S
C1036 O1034 1.273 . S
C1036 O1035 1.257 . S
O1037 Eu1017 2.326 . S
O1037 C1025 1.242 . S
O1038 Tb1016 2.324 . S
O1038 C1025 1.258 . S
O1039 Eu1017 2.500 . S
O1039 C1022 1.273 . S
O1040 Eu1017 2.473 . S
O1040 C1022 1.257 . S
H1041 C1027 0.929 . S
H1042 C1029 0.931 . S
H1043 C1031 0.929 . S
O1044 Tb1045 2.292 . S
O1044 C1047 1.255 . S
Tb1045 O1044 2.292 . S
Tb1045 O1061 2.326 . S
Tb1045 O1063 2.500 . S
Tb1045 O1064 2.473 . S
Tb1045 O1067 2.324 . S
Eu1046 O1050 2.292 . S
Eu1046 C1051 2.852 . S
Eu1046 O1062 2.324 . S
Eu1046 O1066 2.326 . S
Eu1046 O1068 2.500 . S
Eu1046 O1069 2.473 . S
C1047 O1044 1.255 . S
C1047 O1048 1.247 . S
O1048 C1047 1.247 . S
C1049 O1061 1.242 . S
C1049 O1062 1.258 . S
O1050 Eu1046 2.292 . S
O1050 C1052 1.255 . S
C1051 Eu1046 2.852 . S
C1051 C1055 1.503 . S
C1051 O1068 1.273 . S
C1051 O1069 1.257 . S
C1052 O1050 1.255 . S
C1052 O1053 1.247 . S
O1053 C1052 1.247 . S
C1054 O1066 1.242 . S
C1054 O1067 1.258 . S
C1055 C1051 1.503 . S
C1055 C1056 1.379 . S
C1055 C1060 1.392 . S
C1056 C1055 1.379 . S
C1056 C1057 1.404 . S
C1056 H1070 0.929 . S
C1057 C1056 1.404 . S
C1057 C1058 1.389 . S
C1058 C1057 1.389 . S
C1058 C1059 1.399 . S
C1058 H1071 0.931 . S
C1059 C1058 1.399 . S
C1059 C1060 1.390 . S
C1060 C1055 1.392 . S
C1060 C1059 1.390 . S
C1060 H1072 0.929 . S
O1061 Tb1045 2.326 . S
O1061 C1049 1.242 . S
O1062 Eu1046 2.324 . S
O1062 C1049 1.258 . S
O1063 Tb1045 2.500 . S
O1063 C1065 1.273 . S
O1064 Tb1045 2.473 . S
O1064 C1065 1.257 . S
C1065 O1063 1.273 . S
C1065 O1064 1.257 . S
O1066 Eu1046 2.326 . S
O1066 C1054 1.242 . S
O1067 Tb1045 2.324 . S
O1067 C1054 1.258 . S
O1068 Eu1046 2.500 . S
O1068 C1051 1.273 . S
O1069 Eu1046 2.473 . S
O1069 C1051 1.257 . S
H1070 C1056 0.929 . S
H1071 C1058 0.931 . S
H1072 C1060 0.929 . S
O1073 Tb1074 2.292 . S
O1073 C1076 1.255 . S
Tb1074 O1073 2.292 . S
Tb1074 O1090 2.326 . S
Tb1074 O1092 2.500 . S
Tb1074 O1093 2.473 . S
Tb1074 O1096 2.324 . S
Eu1075 O1079 2.292 . S
Eu1075 C1080 2.852 . S
Eu1075 O1091 2.324 . S
Eu1075 O1095 2.326 . S
Eu1075 O1097 2.500 . S
Eu1075 O1098 2.473 . S
C1076 O1073 1.255 . S
C1076 O1077 1.247 . S
O1077 C1076 1.247 . S
C1078 O1090 1.242 . S
C1078 O1091 1.258 . S
O1079 Eu1075 2.292 . S
O1079 C1081 1.255 . S
C1080 Eu1075 2.852 . S
C1080 C1084 1.503 . S
C1080 O1097 1.273 . S
C1080 O1098 1.257 . S
C1081 O1079 1.255 . S
C1081 O1082 1.247 . S
O1082 C1081 1.247 . S
C1083 O1095 1.242 . S
C1083 O1096 1.258 . S
C1084 C1080 1.503 . S
C1084 C1085 1.379 . S
C1084 C1089 1.392 . S
C1085 C1084 1.379 . S
C1085 C1086 1.404 . S
C1085 H1099 0.929 . S
C1086 C1085 1.404 . S
C1086 C1087 1.389 . S
C1087 C1086 1.389 . S
C1087 C1088 1.399 . S
C1087 H1100 0.931 . S
C1088 C1087 1.399 . S
C1088 C1089 1.390 . S
C1089 C1084 1.392 . S
C1089 C1088 1.390 . S
C1089 H1101 0.929 . S
O1090 Tb1074 2.326 . S
O1090 C1078 1.242 . S
O1091 Eu1075 2.324 . S
O1091 C1078 1.258 . S
O1092 Tb1074 2.500 . S
O1092 C1094 1.273 . S
O1093 Tb1074 2.473 . S
O1093 C1094 1.257 . S
C1094 O1092 1.273 . S
C1094 O1093 1.257 . S
O1095 Eu1075 2.326 . S
O1095 C1083 1.242 . S
O1096 Tb1074 2.324 . S
O1096 C1083 1.258 . S
O1097 Eu1075 2.500 . S
O1097 C1080 1.273 . S
O1098 Eu1075 2.473 . S
O1098 C1080 1.257 . S
H1099 C1085 0.929 . S
H1100 C1087 0.931 . S
H1101 C1089 0.929 . S
O1102 Tb1103 2.292 . S
O1102 C1105 1.255 . S
Tb1103 O1102 2.292 . S
Tb1103 O1119 2.326 . S
Tb1103 O1121 2.500 . S
Tb1103 O1122 2.473 . S
Tb1103 O1125 2.324 . S
Eu1104 O1108 2.292 . S
Eu1104 C1109 2.852 . S
Eu1104 O1120 2.324 . S
Eu1104 O1124 2.326 . S
Eu1104 O1126 2.500 . S
Eu1104 O1127 2.473 . S
C1105 O1102 1.255 . S
C1105 O1106 1.247 . S
O1106 C1105 1.247 . S
C1107 O1119 1.242 . S
C1107 O1120 1.258 . S
O1108 Eu1104 2.292 . S
O1108 C1110 1.255 . S
C1109 Eu1104 2.852 . S
C1109 C1113 1.503 . S
C1109 O1126 1.273 . S
C1109 O1127 1.257 . S
C1110 O1108 1.255 . S
C1110 O1111 1.247 . S
O1111 C1110 1.247 . S
C1112 O1124 1.242 . S
C1112 O1125 1.258 . S
C1113 C1109 1.503 . S
C1113 C1114 1.379 . S
C1113 C1118 1.392 . S
C1114 C1113 1.379 . S
C1114 C1115 1.404 . S
C1114 H1128 0.929 . S
C1115 C1114 1.404 . S
C1115 C1116 1.389 . S
C1116 C1115 1.389 . S
C1116 C1117 1.399 . S
C1116 H1129 0.931 . S
C1117 C1116 1.399 . S
C1117 C1118 1.390 . S
C1118 C1113 1.392 . S
C1118 C1117 1.390 . S
C1118 H1130 0.929 . S
O1119 Tb1103 2.326 . S
O1119 C1107 1.242 . S
O1120 Eu1104 2.324 . S
O1120 C1107 1.258 . S
O1121 Tb1103 2.500 . S
O1121 C1123 1.273 . S
O1122 Tb1103 2.473 . S
O1122 C1123 1.257 . S
C1123 O1121 1.273 . S
C1123 O1122 1.257 . S
O1124 Eu1104 2.326 . S
O1124 C1112 1.242 . S
O1125 Tb1103 2.324 . S
O1125 C1112 1.258 . S
O1126 Eu1104 2.500 . S
O1126 C1109 1.273 . S
O1127 Eu1104 2.473 . S
O1127 C1109 1.257 . S
H1128 C1114 0.929 . S
H1129 C1116 0.931 . S
H1130 C1118 0.929 . S
O1131 Tb1132 2.292 . S
O1131 C1134 1.255 . S
Tb1132 O1131 2.292 . S
Tb1132 O1148 2.326 . S
Tb1132 O1150 2.500 . S
Tb1132 O1151 2.473 . S
Tb1132 O1154 2.324 . S
Eu1133 O1137 2.292 . S
Eu1133 C1138 2.852 . S
Eu1133 O1149 2.324 . S
Eu1133 O1153 2.326 . S
Eu1133 O1155 2.500 . S
Eu1133 O1156 2.473 . S
C1134 O1131 1.255 . S
C1134 O1135 1.247 . S
O1135 C1134 1.247 . S
C1136 O1148 1.242 . S
C1136 O1149 1.258 . S
O1137 Eu1133 2.292 . S
O1137 C1139 1.255 . S
C1138 Eu1133 2.852 . S
C1138 C1142 1.503 . S
C1138 O1155 1.273 . S
C1138 O1156 1.257 . S
C1139 O1137 1.255 . S
C1139 O1140 1.247 . S
O1140 C1139 1.247 . S
C1141 O1153 1.242 . S
C1141 O1154 1.258 . S
C1142 C1138 1.503 . S
C1142 C1143 1.379 . S
C1142 C1147 1.392 . S
C1143 C1142 1.379 . S
C1143 C1144 1.404 . S
C1143 H1157 0.929 . S
C1144 C1143 1.404 . S
C1144 C1145 1.389 . S
C1145 C1144 1.389 . S
C1145 C1146 1.399 . S
C1145 H1158 0.931 . S
C1146 C1145 1.399 . S
C1146 C1147 1.390 . S
C1147 C1142 1.392 . S
C1147 C1146 1.390 . S
C1147 H1159 0.929 . S
O1148 Tb1132 2.326 . S
O1148 C1136 1.242 . S
O1149 Eu1133 2.324 . S
O1149 C1136 1.258 . S
O1150 Tb1132 2.500 . S
O1150 C1152 1.273 . S
O1151 Tb1132 2.473 . S
O1151 C1152 1.257 . S
C1152 O1150 1.273 . S
C1152 O1151 1.257 . S
O1153 Eu1133 2.326 . S
O1153 C1141 1.242 . S
O1154 Tb1132 2.324 . S
O1154 C1141 1.258 . S
O1155 Eu1133 2.500 . S
O1155 C1138 1.273 . S
O1156 Eu1133 2.473 . S
O1156 C1138 1.257 . S
H1157 C1143 0.929 . S
H1158 C1145 0.931 . S
H1159 C1147 0.929 . S
O1160 Tb1161 2.292 . S
O1160 C1163 1.255 . S
Tb1161 O1160 2.292 . S
Tb1161 O1177 2.326 . S
Tb1161 O1179 2.500 . S
Tb1161 O1180 2.473 . S
Tb1161 O1183 2.324 . S
Eu1162 O1166 2.292 . S
Eu1162 C1167 2.852 . S
Eu1162 O1178 2.324 . S
Eu1162 O1182 2.326 . S
Eu1162 O1184 2.500 . S
Eu1162 O1185 2.473 . S
C1163 O1160 1.255 . S
C1163 O1164 1.247 . S
O1164 C1163 1.247 . S
C1165 O1177 1.242 . S
C1165 O1178 1.258 . S
O1166 Eu1162 2.292 . S
O1166 C1168 1.255 . S
C1167 Eu1162 2.852 . S
C1167 C1171 1.503 . S
C1167 O1184 1.273 . S
C1167 O1185 1.257 . S
C1168 O1166 1.255 . S
C1168 O1169 1.247 . S
O1169 C1168 1.247 . S
C1170 O1182 1.242 . S
C1170 O1183 1.258 . S
C1171 C1167 1.503 . S
C1171 C1172 1.379 . S
C1171 C1176 1.392 . S
C1172 C1171 1.379 . S
C1172 C1173 1.404 . S
C1172 H1186 0.929 . S
C1173 C1172 1.404 . S
C1173 C1174 1.389 . S
C1174 C1173 1.389 . S
C1174 C1175 1.399 . S
C1174 H1187 0.931 . S
C1175 C1174 1.399 . S
C1175 C1176 1.390 . S
C1176 C1171 1.392 . S
C1176 C1175 1.390 . S
C1176 H1188 0.929 . S
O1177 Tb1161 2.326 . S
O1177 C1165 1.242 . S
O1178 Eu1162 2.324 . S
O1178 C1165 1.258 . S
O1179 Tb1161 2.500 . S
O1179 C1181 1.273 . S
O1180 Tb1161 2.473 . S
O1180 C1181 1.257 . S
C1181 O1179 1.273 . S
C1181 O1180 1.257 . S
O1182 Eu1162 2.326 . S
O1182 C1170 1.242 . S
O1183 Tb1161 2.324 . S
O1183 C1170 1.258 . S
O1184 Eu1162 2.500 . S
O1184 C1167 1.273 . S
O1185 Eu1162 2.473 . S
O1185 C1167 1.257 . S
H1186 C1172 0.929 . S
H1187 C1174 0.931 . S
H1188 C1176 0.929 . S
O1189 Tb1190 2.292 . S
O1189 C1192 1.255 . S
Tb1190 O1189 2.292 . S
Tb1190 O1206 2.326 . S
Tb1190 O1208 2.500 . S
Tb1190 O1209 2.473 . S
Tb1190 O1212 2.324 . S
Eu1191 O1195 2.292 . S
Eu1191 C1196 2.852 . S
Eu1191 O1207 2.324 . S
Eu1191 O1211 2.326 . S
Eu1191 O1213 2.500 . S
Eu1191 O1214 2.473 . S
C1192 O1189 1.255 . S
C1192 O1193 1.247 . S
O1193 C1192 1.247 . S
C1194 O1206 1.242 . S
C1194 O1207 1.258 . S
O1195 Eu1191 2.292 . S
O1195 C1197 1.255 . S
C1196 Eu1191 2.852 . S
C1196 C1200 1.503 . S
C1196 O1213 1.273 . S
C1196 O1214 1.257 . S
C1197 O1195 1.255 . S
C1197 O1198 1.247 . S
O1198 C1197 1.247 . S
C1199 O1211 1.242 . S
C1199 O1212 1.258 . S
C1200 C1196 1.503 . S
C1200 C1201 1.379 . S
C1200 C1205 1.392 . S
C1201 C1200 1.379 . S
C1201 C1202 1.404 . S
C1201 H1215 0.929 . S
C1202 C1201 1.404 . S
C1202 C1203 1.389 . S
C1203 C1202 1.389 . S
C1203 C1204 1.399 . S
C1203 H1216 0.931 . S
C1204 C1203 1.399 . S
C1204 C1205 1.390 . S
C1205 C1200 1.392 . S
C1205 C1204 1.390 . S
C1205 H1217 0.929 . S
O1206 Tb1190 2.326 . S
O1206 C1194 1.242 . S
O1207 Eu1191 2.324 . S
O1207 C1194 1.258 . S
O1208 Tb1190 2.500 . S
O1208 C1210 1.273 . S
O1209 Tb1190 2.473 . S
O1209 C1210 1.257 . S
C1210 O1208 1.273 . S
C1210 O1209 1.257 . S
O1211 Eu1191 2.326 . S
O1211 C1199 1.242 . S
O1212 Tb1190 2.324 . S
O1212 C1199 1.258 . S
O1213 Eu1191 2.500 . S
O1213 C1196 1.273 . S
O1214 Eu1191 2.473 . S
O1214 C1196 1.257 . S
H1215 C1201 0.929 . S
H1216 C1203 0.931 . S
H1217 C1205 0.929 . S
O1218 Tb1219 2.292 . S
O1218 C1221 1.255 . S
Tb1219 O1218 2.292 . S
Tb1219 O1235 2.326 . S
Tb1219 O1237 2.500 . S
Tb1219 O1238 2.473 . S
Tb1219 O1241 2.324 . S
Eu1220 O1224 2.292 . S
Eu1220 C1225 2.852 . S
Eu1220 O1236 2.324 . S
Eu1220 O1240 2.326 . S
Eu1220 O1242 2.500 . S
Eu1220 O1243 2.473 . S
C1221 O1218 1.255 . S
C1221 O1222 1.247 . S
O1222 C1221 1.247 . S
C1223 O1235 1.242 . S
C1223 O1236 1.258 . S
O1224 Eu1220 2.292 . S
O1224 C1226 1.255 . S
C1225 Eu1220 2.852 . S
C1225 C1229 1.503 . S
C1225 O1242 1.273 . S
C1225 O1243 1.257 . S
C1226 O1224 1.255 . S
C1226 O1227 1.247 . S
O1227 C1226 1.247 . S
C1228 O1240 1.242 . S
C1228 O1241 1.258 . S
C1229 C1225 1.503 . S
C1229 C1230 1.379 . S
C1229 C1234 1.392 . S
C1230 C1229 1.379 . S
C1230 C1231 1.404 . S
C1230 H1244 0.929 . S
C1231 C1230 1.404 . S
C1231 C1232 1.389 . S
C1232 C1231 1.389 . S
C1232 C1233 1.399 . S
C1232 H1245 0.931 . S
C1233 C1232 1.399 . S
C1233 C1234 1.390 . S
C1234 C1229 1.392 . S
C1234 C1233 1.390 . S
C1234 H1246 0.929 . S
O1235 Tb1219 2.326 . S
O1235 C1223 1.242 . S
O1236 Eu1220 2.324 . S
O1236 C1223 1.258 . S
O1237 Tb1219 2.500 . S
O1237 C1239 1.273 . S
O1238 Tb1219 2.473 . S
O1238 C1239 1.257 . S
C1239 O1237 1.273 . S
C1239 O1238 1.257 . S
O1240 Eu1220 2.326 . S
O1240 C1228 1.242 . S
O1241 Tb1219 2.324 . S
O1241 C1228 1.258 . S
O1242 Eu1220 2.500 . S
O1242 C1225 1.273 . S
O1243 Eu1220 2.473 . S
O1243 C1225 1.257 . S
H1244 C1230 0.929 . S
H1245 C1232 0.931 . S
H1246 C1234 0.929 . S
O1247 Tb1248 2.292 . S
O1247 C1250 1.255 . S
Tb1248 O1247 2.292 . S
Tb1248 O1264 2.326 . S
Tb1248 O1266 2.500 . S
Tb1248 O1267 2.473 . S
Tb1248 O1270 2.324 . S
Eu1249 O1253 2.292 . S
Eu1249 C1254 2.852 . S
Eu1249 O1265 2.324 . S
Eu1249 O1269 2.326 . S
Eu1249 O1271 2.500 . S
Eu1249 O1272 2.473 . S
C1250 O1247 1.255 . S
C1250 O1251 1.247 . S
O1251 C1250 1.247 . S
C1252 O1264 1.242 . S
C1252 O1265 1.258 . S
O1253 Eu1249 2.292 . S
O1253 C1255 1.255 . S
C1254 Eu1249 2.852 . S
C1254 C1258 1.503 . S
C1254 O1271 1.273 . S
C1254 O1272 1.257 . S
C1255 O1253 1.255 . S
C1255 O1256 1.247 . S
O1256 C1255 1.247 . S
C1257 O1269 1.242 . S
C1257 O1270 1.258 . S
C1258 C1254 1.503 . S
C1258 C1259 1.379 . S
C1258 C1263 1.392 . S
C1259 C1258 1.379 . S
C1259 C1260 1.404 . S
C1259 H1273 0.929 . S
C1260 C1259 1.404 . S
C1260 C1261 1.389 . S
C1261 C1260 1.389 . S
C1261 C1262 1.399 . S
C1261 H1274 0.931 . S
C1262 C1261 1.399 . S
C1262 C1263 1.390 . S
C1263 C1258 1.392 . S
C1263 C1262 1.390 . S
C1263 H1275 0.929 . S
O1264 Tb1248 2.326 . S
O1264 C1252 1.242 . S
O1265 Eu1249 2.324 . S
O1265 C1252 1.258 . S
O1266 Tb1248 2.500 . S
O1266 C1268 1.273 . S
O1267 Tb1248 2.473 . S
O1267 C1268 1.257 . S
C1268 O1266 1.273 . S
C1268 O1267 1.257 . S
O1269 Eu1249 2.326 . S
O1269 C1257 1.242 . S
O1270 Tb1248 2.324 . S
O1270 C1257 1.258 . S
O1271 Eu1249 2.500 . S
O1271 C1254 1.273 . S
O1272 Eu1249 2.473 . S
O1272 C1254 1.257 . S
H1273 C1259 0.929 . S
H1274 C1261 0.931 . S
H1275 C1263 0.929 . S
O1276 Tb1277 2.292 . S
O1276 C1279 1.255 . S
Tb1277 O1276 2.292 . S
Tb1277 O1293 2.326 . S
Tb1277 O1295 2.500 . S
Tb1277 O1296 2.473 . S
Tb1277 O1299 2.324 . S
Eu1278 O1282 2.292 . S
Eu1278 C1283 2.852 . S
Eu1278 O1294 2.324 . S
Eu1278 O1298 2.326 . S
Eu1278 O1300 2.500 . S
Eu1278 O1301 2.473 . S
C1279 O1276 1.255 . S
C1279 O1280 1.247 . S
O1280 C1279 1.247 . S
C1281 O1293 1.242 . S
C1281 O1294 1.258 . S
O1282 Eu1278 2.292 . S
O1282 C1284 1.255 . S
C1283 Eu1278 2.852 . S
C1283 C1287 1.503 . S
C1283 O1300 1.273 . S
C1283 O1301 1.257 . S
C1284 O1282 1.255 . S
C1284 O1285 1.247 . S
O1285 C1284 1.247 . S
C1286 O1298 1.242 . S
C1286 O1299 1.258 . S
C1287 C1283 1.503 . S
C1287 C1288 1.379 . S
C1287 C1292 1.392 . S
C1288 C1287 1.379 . S
C1288 C1289 1.404 . S
C1288 H1302 0.929 . S
C1289 C1288 1.404 . S
C1289 C1290 1.389 . S
C1290 C1289 1.389 . S
C1290 C1291 1.399 . S
C1290 H1303 0.931 . S
C1291 C1290 1.399 . S
C1291 C1292 1.390 . S
C1292 C1287 1.392 . S
C1292 C1291 1.390 . S
C1292 H1304 0.929 . S
O1293 Tb1277 2.326 . S
O1293 C1281 1.242 . S
O1294 Eu1278 2.324 . S
O1294 C1281 1.258 . S
O1295 Tb1277 2.500 . S
O1295 C1297 1.273 . S
O1296 Tb1277 2.473 . S
O1296 C1297 1.257 . S
C1297 O1295 1.273 . S
C1297 O1296 1.257 . S
O1298 Eu1278 2.326 . S
O1298 C1286 1.242 . S
O1299 Tb1277 2.324 . S
O1299 C1286 1.258 . S
O1300 Eu1278 2.500 . S
O1300 C1283 1.273 . S
O1301 Eu1278 2.473 . S
O1301 C1283 1.257 . S
H1302 C1288 0.929 . S
H1303 C1290 0.931 . S
H1304 C1292 0.929 . S
O1305 Tb1306 2.292 . S
O1305 C1308 1.255 . S
Tb1306 O1305 2.292 . S
Tb1306 O1322 2.326 . S
Tb1306 O1324 2.500 . S
Tb1306 O1325 2.473 . S
Tb1306 O1328 2.324 . S
Eu1307 O1311 2.292 . S
Eu1307 C1312 2.852 . S
Eu1307 O1323 2.324 . S
Eu1307 O1327 2.326 . S
Eu1307 O1329 2.500 . S
Eu1307 O1330 2.473 . S
C1308 O1305 1.255 . S
C1308 O1309 1.247 . S
O1309 C1308 1.247 . S
C1310 O1322 1.242 . S
C1310 O1323 1.258 . S
O1311 Eu1307 2.292 . S
O1311 C1313 1.255 . S
C1312 Eu1307 2.852 . S
C1312 C1316 1.503 . S
C1312 O1329 1.273 . S
C1312 O1330 1.257 . S
C1313 O1311 1.255 . S
C1313 O1314 1.247 . S
O1314 C1313 1.247 . S
C1315 O1327 1.242 . S
C1315 O1328 1.258 . S
C1316 C1312 1.503 . S
C1316 C1317 1.379 . S
C1316 C1321 1.392 . S
C1317 C1316 1.379 . S
C1317 C1318 1.404 . S
C1317 H1331 0.929 . S
C1318 C1317 1.404 . S
C1318 C1319 1.389 . S
C1319 C1318 1.389 . S
C1319 C1320 1.399 . S
C1319 H1332 0.931 . S
C1320 C1319 1.399 . S
C1320 C1321 1.390 . S
C1321 C1316 1.392 . S
C1321 C1320 1.390 . S
C1321 H1333 0.929 . S
O1322 Tb1306 2.326 . S
O1322 C1310 1.242 . S
O1323 Eu1307 2.324 . S
O1323 C1310 1.258 . S
O1324 Tb1306 2.500 . S
O1324 C1326 1.273 . S
O1325 Tb1306 2.473 . S
O1325 C1326 1.257 . S
C1326 O1324 1.273 . S
C1326 O1325 1.257 . S
O1327 Eu1307 2.326 . S
O1327 C1315 1.242 . S
O1328 Tb1306 2.324 . S
O1328 C1315 1.258 . S
O1329 Eu1307 2.500 . S
O1329 C1312 1.273 . S
O1330 Eu1307 2.473 . S
O1330 C1312 1.257 . S
H1331 C1317 0.929 . S
H1332 C1319 0.931 . S
H1333 C1321 0.929 . S
O1334 Tb1335 2.292 . S
O1334 C1337 1.255 . S
Tb1335 O1334 2.292 . S
Tb1335 O1351 2.326 . S
Tb1335 O1353 2.500 . S
Tb1335 O1354 2.473 . S
Tb1335 O1357 2.324 . S
Eu1336 O1340 2.292 . S
Eu1336 C1341 2.852 . S
Eu1336 O1352 2.324 . S
Eu1336 O1356 2.326 . S
Eu1336 O1358 2.500 . S
Eu1336 O1359 2.473 . S
C1337 O1334 1.255 . S
C1337 O1338 1.247 . S
O1338 C1337 1.247 . S
C1339 O1351 1.242 . S
C1339 O1352 1.258 . S
O1340 Eu1336 2.292 . S
O1340 C1342 1.255 . S
C1341 Eu1336 2.852 . S
C1341 C1345 1.503 . S
C1341 O1358 1.273 . S
C1341 O1359 1.257 . S
C1342 O1340 1.255 . S
C1342 O1343 1.247 . S
O1343 C1342 1.247 . S
C1344 O1356 1.242 . S
C1344 O1357 1.258 . S
C1345 C1341 1.503 . S
C1345 C1346 1.379 . S
C1345 C1350 1.392 . S
C1346 C1345 1.379 . S
C1346 C1347 1.404 . S
C1346 H1360 0.929 . S
C1347 C1346 1.404 . S
C1347 C1348 1.389 . S
C1348 C1347 1.389 . S
C1348 C1349 1.399 . S
C1348 H1361 0.931 . S
C1349 C1348 1.399 . S
C1349 C1350 1.390 . S
C1350 C1345 1.392 . S
C1350 C1349 1.390 . S
C1350 H1362 0.929 . S
O1351 Tb1335 2.326 . S
O1351 C1339 1.242 . S
O1352 Eu1336 2.324 . S
O1352 C1339 1.258 . S
O1353 Tb1335 2.500 . S
O1353 C1355 1.273 . S
O1354 Tb1335 2.473 . S
O1354 C1355 1.257 . S
C1355 O1353 1.273 . S
C1355 O1354 1.257 . S
O1356 Eu1336 2.326 . S
O1356 C1344 1.242 . S
O1357 Tb1335 2.324 . S
O1357 C1344 1.258 . S
O1358 Eu1336 2.500 . S
O1358 C1341 1.273 . S
O1359 Eu1336 2.473 . S
O1359 C1341 1.257 . S
H1360 C1346 0.929 . S
H1361 C1348 0.931 . S
H1362 C1350 0.929 . S
O1363 Tb1364 2.292 . S
O1363 C1366 1.255 . S
Tb1364 O1363 2.292 . S
Tb1364 O1380 2.326 . S
Tb1364 O1382 2.500 . S
Tb1364 O1383 2.473 . S
Tb1364 O1386 2.324 . S
Eu1365 O1369 2.292 . S
Eu1365 C1370 2.852 . S
Eu1365 O1381 2.324 . S
Eu1365 O1385 2.326 . S
Eu1365 O1387 2.500 . S
Eu1365 O1388 2.473 . S
C1366 O1363 1.255 . S
C1366 O1367 1.247 . S
O1367 C1366 1.247 . S
C1368 O1380 1.242 . S
C1368 O1381 1.258 . S
O1369 Eu1365 2.292 . S
O1369 C1371 1.255 . S
C1370 Eu1365 2.852 . S
C1370 C1374 1.503 . S
C1370 O1387 1.273 . S
C1370 O1388 1.257 . S
C1371 O1369 1.255 . S
C1371 O1372 1.247 . S
O1372 C1371 1.247 . S
C1373 O1385 1.242 . S
C1373 O1386 1.258 . S
C1374 C1370 1.503 . S
C1374 C1375 1.379 . S
C1374 C1379 1.392 . S
C1375 C1374 1.379 . S
C1375 C1376 1.404 . S
C1375 H1389 0.929 . S
C1376 C1375 1.404 . S
C1376 C1377 1.389 . S
C1377 C1376 1.389 . S
C1377 C1378 1.399 . S
C1377 H1390 0.931 . S
C1378 C1377 1.399 . S
C1378 C1379 1.390 . S
C1379 C1374 1.392 . S
C1379 C1378 1.390 . S
C1379 H1391 0.929 . S
O1380 Tb1364 2.326 . S
O1380 C1368 1.242 . S
O1381 Eu1365 2.324 . S
O1381 C1368 1.258 . S
O1382 Tb1364 2.500 . S
O1382 C1384 1.273 . S
O1383 Tb1364 2.473 . S
O1383 C1384 1.257 . S
C1384 O1382 1.273 . S
C1384 O1383 1.257 . S
O1385 Eu1365 2.326 . S
O1385 C1373 1.242 . S
O1386 Tb1364 2.324 . S
O1386 C1373 1.258 . S
O1387 Eu1365 2.500 . S
O1387 C1370 1.273 . S
O1388 Eu1365 2.473 . S
O1388 C1370 1.257 . S
H1389 C1375 0.929 . S
H1390 C1377 0.931 . S
H1391 C1379 0.929 . S
H1392 C1400 0.950 . S
H1393 C1405 0.950 . S
H1394 C1402 0.950 . S
H1395 C1404 0.950 . S
H1396 C1406 0.950 . S
H1397 C1408 0.950 . S
H1398 C1410 0.950 . S
H1399 C1411 0.950 . S
C1400 H1392 0.950 . S
C1400 C1401 1.386 . S
C1400 C1402 1.391 . S
C1401 C1400 1.386 . S
C1401 C1405 1.393 . S
C1402 H1394 0.950 . S
C1402 C1400 1.391 . S
C1402 C1403 1.400 . S
C1403 C1402 1.400 . S
C1403 C1404 1.398 . S
C1403 C1409 1.491 . S
C1404 H1395 0.950 . S
C1404 C1403 1.398 . S
C1404 C1405 1.391 . S
C1405 H1393 0.950 . S
C1405 C1401 1.393 . S
C1405 C1404 1.391 . S
C1406 H1396 0.950 . S
C1406 C1407 1.386 . S
C1406 C1408 1.391 . S
C1407 C1406 1.386 . S
C1407 C1411 1.393 . S
C1408 H1397 0.950 . S
C1408 C1406 1.391 . S
C1408 C1409 1.400 . S
C1409 C1403 1.491 . S
C1409 C1408 1.400 . S
C1409 C1410 1.398 . S
C1410 H1398 0.950 . S
C1410 C1409 1.398 . S
C1410 C1411 1.391 . S
C1411 H1399 0.950 . S
C1411 C1407 1.393 . S
C1411 C1410 1.391 . S
H1412 C1420 0.950 . S
H1413 C1425 0.950 . S
H1414 C1422 0.950 . S
H1415 C1424 0.950 . S
H1416 C1426 0.950 . S
H1417 C1428 0.950 . S
H1418 C1430 0.950 . S
H1419 C1431 0.950 . S
C1420 H1412 0.950 . S
C1420 C1421 1.386 . S
C1420 C1422 1.391 . S
C1421 C1420 1.386 . S
C1421 C1425 1.393 . S
C1422 H1414 0.950 . S
C1422 C1420 1.391 . S
C1422 C1423 1.400 . S
C1423 C1422 1.400 . S
C1423 C1424 1.398 . S
C1423 C1429 1.491 . S
C1424 H1415 0.950 . S
C1424 C1423 1.398 . S
C1424 C1425 1.391 . S
C1425 H1413 0.950 . S
C1425 C1421 1.393 . S
C1425 C1424 1.391 . S
C1426 H1416 0.950 . S
C1426 C1427 1.386 . S
C1426 C1428 1.391 . S
C1427 C1426 1.386 . S
C1427 C1431 1.393 . S
C1428 H1417 0.950 . S
C1428 C1426 1.391 . S
C1428 C1429 1.400 . S
C1429 C1423 1.491 . S
C1429 C1428 1.400 . S
C1429 C1430 1.398 . S
C1430 H1418 0.950 . S
C1430 C1429 1.398 . S
C1430 C1431 1.391 . S
C1431 H1419 0.950 . S
C1431 C1427 1.393 . S
C1431 C1430 1.391 . S
H1432 C1440 0.950 . S
H1433 C1445 0.950 . S
H1434 C1442 0.950 . S
H1435 C1444 0.950 . S
H1436 C1446 0.950 . S
H1437 C1448 0.950 . S
H1438 C1450 0.950 . S
H1439 C1451 0.950 . S
C1440 H1432 0.950 . S
C1440 C1441 1.386 . S
C1440 C1442 1.391 . S
C1441 C1440 1.386 . S
C1441 C1445 1.393 . S
C1442 H1434 0.950 . S
C1442 C1440 1.391 . S
C1442 C1443 1.400 . S
C1443 C1442 1.400 . S
C1443 C1444 1.398 . S
C1443 C1449 1.491 . S
C1444 H1435 0.950 . S
C1444 C1443 1.398 . S
C1444 C1445 1.391 . S
C1445 H1433 0.950 . S
C1445 C1441 1.393 . S
C1445 C1444 1.391 . S
C1446 H1436 0.950 . S
C1446 C1447 1.386 . S
C1446 C1448 1.391 . S
C1447 C1446 1.386 . S
C1447 C1451 1.393 . S
C1448 H1437 0.950 . S
C1448 C1446 1.391 . S
C1448 C1449 1.400 . S
C1449 C1443 1.491 . S
C1449 C1448 1.400 . S
C1449 C1450 1.398 . S
C1450 H1438 0.950 . S
C1450 C1449 1.398 . S
C1450 C1451 1.391 . S
C1451 H1439 0.950 . S
C1451 C1447 1.393 . S
C1451 C1450 1.391 . S
H1452 C1460 0.950 . S
H1453 C1465 0.950 . S
H1454 C1462 0.950 . S
H1455 C1464 0.950 . S
H1456 C1466 0.950 . S
H1457 C1468 0.950 . S
H1458 C1470 0.950 . S
H1459 C1471 0.950 . S
C1460 H1452 0.950 . S
C1460 C1461 1.386 . S
C1460 C1462 1.391 . S
C1461 C1460 1.386 . S
C1461 C1465 1.393 . S
C1462 H1454 0.950 . S
C1462 C1460 1.391 . S
C1462 C1463 1.400 . S
C1463 C1462 1.400 . S
C1463 C1464 1.398 . S
C1463 C1469 1.491 . S
C1464 H1455 0.950 . S
C1464 C1463 1.398 . S
C1464 C1465 1.391 . S
C1465 H1453 0.950 . S
C1465 C1461 1.393 . S
C1465 C1464 1.391 . S
C1466 H1456 0.950 . S
C1466 C1467 1.386 . S
C1466 C1468 1.391 . S
C1467 C1466 1.386 . S
C1467 C1471 1.393 . S
C1468 H1457 0.950 . S
C1468 C1466 1.391 . S
C1468 C1469 1.400 . S
C1469 C1463 1.491 . S
C1469 C1468 1.400 . S
C1469 C1470 1.398 . S
C1470 H1458 0.950 . S
C1470 C1469 1.398 . S
C1470 C1471 1.391 . S
C1471 H1459 0.950 . S
C1471 C1467 1.393 . S
C1471 C1470 1.391 . S
H1472 C1480 0.950 . S
H1473 C1485 0.950 . S
H1474 C1482 0.950 . S
H1475 C1484 0.950 . S
H1476 C1486 0.950 . S
H1477 C1488 0.950 . S
H1478 C1490 0.950 . S
H1479 C1491 0.950 . S
C1480 H1472 0.950 . S
C1480 C1481 1.386 . S
C1480 C1482 1.391 . S
C1481 C1480 1.386 . S
C1481 C1485 1.393 . S
C1482 H1474 0.950 . S
C1482 C1480 1.391 . S
C1482 C1483 1.400 . S
C1483 C1482 1.400 . S
C1483 C1484 1.398 . S
C1483 C1489 1.491 . S
C1484 H1475 0.950 . S
C1484 C1483 1.398 . S
C1484 C1485 1.391 . S
C1485 H1473 0.950 . S
C1485 C1481 1.393 . S
C1485 C1484 1.391 . S
C1486 H1476 0.950 . S
C1486 C1487 1.386 . S
C1486 C1488 1.391 . S
C1487 C1486 1.386 . S
C1487 C1491 1.393 . S
C1488 H1477 0.950 . S
C1488 C1486 1.391 . S
C1488 C1489 1.400 . S
C1489 C1483 1.491 . S
C1489 C1488 1.400 . S
C1489 C1490 1.398 . S
C1490 H1478 0.950 . S
C1490 C1489 1.398 . S
C1490 C1491 1.391 . S
C1491 H1479 0.950 . S
C1491 C1487 1.393 . S
C1491 C1490 1.391 . S
H1492 C1500 0.950 . S
H1493 C1505 0.950 . S
H1494 C1502 0.950 . S
H1495 C1504 0.950 . S
H1496 C1506 0.950 . S
H1497 C1508 0.950 . S
H1498 C1510 0.950 . S
H1499 C1511 0.950 . S
C1500 H1492 0.950 . S
C1500 C1501 1.386 . S
C1500 C1502 1.391 . S
C1501 C1500 1.386 . S
C1501 C1505 1.393 . S
C1502 H1494 0.950 . S
C1502 C1500 1.391 . S
C1502 C1503 1.400 1_655 S
C1503 C1502 1.400 1_455 S
C1503 C1504 1.398 . S
C1503 C1509 1.491 . S
C1504 H1495 0.950 . S
C1504 C1503 1.398 . S
C1504 C1505 1.391 1_455 S
C1505 H1493 0.950 . S
C1505 C1501 1.393 . S
C1505 C1504 1.391 1_655 S
C1506 H1496 0.950 . S
C1506 C1507 1.386 . S
C1506 C1508 1.391 . S
C1507 C1506 1.386 . S
C1507 C1511 1.393 . S
C1508 H1497 0.950 . S
C1508 C1506 1.391 . S
C1508 C1509 1.400 . S
C1509 C1503 1.491 . S
C1509 C1508 1.400 . S
C1509 C1510 1.398 . S
C1510 H1498 0.950 . S
C1510 C1509 1.398 . S
C1510 C1511 1.391 . S
C1511 H1499 0.950 . S
C1511 C1507 1.393 . S
C1511 C1510 1.391 . S
H1512 C1520 0.950 . S
H1513 C1525 0.950 . S
H1514 C1522 0.950 . S
H1515 C1524 0.950 . S
H1516 C1526 0.950 . S
H1517 C1528 0.950 . S
H1518 C1530 0.950 . S
H1519 C1531 0.950 . S
C1520 H1512 0.950 . S
C1520 C1521 1.386 . S
C1520 C1522 1.391 . S
C1521 C1520 1.386 . S
C1521 C1525 1.393 . S
C1522 H1514 0.950 . S
C1522 C1520 1.391 . S
C1522 C1523 1.400 . S
C1523 C1522 1.400 . S
C1523 C1524 1.398 . S
C1523 C1529 1.491 . S
C1524 H1515 0.950 . S
C1524 C1523 1.398 . S
C1524 C1525 1.391 . S
C1525 H1513 0.950 . S
C1525 C1521 1.393 . S
C1525 C1524 1.391 . S
C1526 H1516 0.950 . S
C1526 C1527 1.386 . S
C1526 C1528 1.391 . S
C1527 C1526 1.386 . S
C1527 C1531 1.393 . S
C1528 H1517 0.950 . S
C1528 C1526 1.391 . S
C1528 C1529 1.400 . S
C1529 C1523 1.491 . S
C1529 C1528 1.400 . S
C1529 C1530 1.398 . S
C1530 H1518 0.950 . S
C1530 C1529 1.398 . S
C1530 C1531 1.391 . S
C1531 H1519 0.950 . S
C1531 C1527 1.393 . S
C1531 C1530 1.391 . S
H1532 C1540 0.950 . S
H1533 C1545 0.950 . S
H1534 C1542 0.950 . S
H1535 C1544 0.950 . S
H1536 C1546 0.950 . S
H1537 C1548 0.950 . S
H1538 C1550 0.950 . S
H1539 C1551 0.950 . S
C1540 H1532 0.950 . S
C1540 C1541 1.386 . S
C1540 C1542 1.391 . S
C1541 C1540 1.386 . S
C1541 C1545 1.393 . S
C1542 H1534 0.950 . S
C1542 C1540 1.391 . S
C1542 C1543 1.400 . S
C1543 C1542 1.400 . S
C1543 C1544 1.398 . S
C1543 C1549 1.491 . S
C1544 H1535 0.950 . S
C1544 C1543 1.398 . S
C1544 C1545 1.391 . S
C1545 H1533 0.950 . S
C1545 C1541 1.393 . S
C1545 C1544 1.391 . S
C1546 H1536 0.950 . S
C1546 C1547 1.386 . S
C1546 C1548 1.391 . S
C1547 C1546 1.386 . S
C1547 C1551 1.393 . S
C1548 H1537 0.950 . S
C1548 C1546 1.391 . S
C1548 C1549 1.400 1_455 S
C1549 C1543 1.491 . S
C1549 C1548 1.400 1_655 S
C1549 C1550 1.398 . S
C1550 H1538 0.950 . S
C1550 C1549 1.398 . S
C1550 C1551 1.391 1_655 S
C1551 H1539 0.950 . S
C1551 C1547 1.393 . S
C1551 C1550 1.391 1_455 S
H1552 C1560 0.950 . S
H1553 C1565 0.950 . S
H1554 C1562 0.950 . S
H1555 C1564 0.950 . S
H1556 C1566 0.950 . S
H1557 C1568 0.950 . S
H1558 C1570 0.950 . S
H1559 C1571 0.950 . S
C1560 H1552 0.950 . S
C1560 C1561 1.386 . S
C1560 C1562 1.391 . S
C1561 C1560 1.386 . S
C1561 C1565 1.393 . S
C1562 H1554 0.950 . S
C1562 C1560 1.391 . S
C1562 C1563 1.400 . S
C1563 C1562 1.400 . S
C1563 C1564 1.398 . S
C1563 C1569 1.491 . S
C1564 H1555 0.950 . S
C1564 C1563 1.398 . S
C1564 C1565 1.391 . S
C1565 H1553 0.950 . S
C1565 C1561 1.393 . S
C1565 C1564 1.391 . S
C1566 H1556 0.950 . S
C1566 C1567 1.386 . S
C1566 C1568 1.391 . S
C1567 C1566 1.386 . S
C1567 C1571 1.393 . S
C1568 H1557 0.950 . S
C1568 C1566 1.391 . S
C1568 C1569 1.400 . S
C1569 C1563 1.491 . S
C1569 C1568 1.400 . S
C1569 C1570 1.398 . S
C1570 H1558 0.950 . S
C1570 C1569 1.398 . S
C1570 C1571 1.391 . S
C1571 H1559 0.950 . S
C1571 C1567 1.393 . S
C1571 C1570 1.391 . S
H1572 C1580 0.950 . S
H1573 C1585 0.950 . S
H1574 C1582 0.950 . S
H1575 C1584 0.950 . S
H1576 C1586 0.950 . S
H1577 C1588 0.950 . S
H1578 C1590 0.950 . S
H1579 C1591 0.950 . S
C1580 H1572 0.950 . S
C1580 C1581 1.386 . S
C1580 C1582 1.391 . S
C1581 C1580 1.386 . S
C1581 C1585 1.393 . S
C1582 H1574 0.950 . S
C1582 C1580 1.391 . S
C1582 C1583 1.400 . S
C1583 C1582 1.400 . S
C1583 C1584 1.398 . S
C1583 C1589 1.491 . S
C1584 H1575 0.950 . S
C1584 C1583 1.398 . S
C1584 C1585 1.391 . S
C1585 H1573 0.950 . S
C1585 C1581 1.393 . S
C1585 C1584 1.391 . S
C1586 H1576 0.950 . S
C1586 C1587 1.386 . S
C1586 C1588 1.391 . S
C1587 C1586 1.386 . S
C1587 C1591 1.393 . S
C1588 H1577 0.950 . S
C1588 C1586 1.391 . S
C1588 C1589 1.400 1_556 S
C1589 C1583 1.491 . S
C1589 C1588 1.400 1_554 S
C1589 C1590 1.398 . S
C1590 H1578 0.950 . S
C1590 C1589 1.398 . S
C1590 C1591 1.391 1_554 S
C1591 H1579 0.950 . S
C1591 C1587 1.393 . S
C1591 C1590 1.391 1_556 S
H1592 C1600 0.950 . S
H1593 C1605 0.950 . S
H1594 C1602 0.950 . S
H1595 C1604 0.950 . S
H1596 C1606 0.950 . S
H1597 C1608 0.950 . S
H1598 C1610 0.950 . S
H1599 C1611 0.950 . S
C1600 H1592 0.950 . S
C1600 C1601 1.386 . S
C1600 C1602 1.391 . S
C1601 C1600 1.386 . S
C1601 C1605 1.393 . S
C1602 H1594 0.950 . S
C1602 C1600 1.391 . S
C1602 C1603 1.400 . S
C1603 C1602 1.400 . S
C1603 C1604 1.398 . S
C1603 C1609 1.491 . S
C1604 H1595 0.950 . S
C1604 C1603 1.398 . S
C1604 C1605 1.391 . S
C1605 H1593 0.950 . S
C1605 C1601 1.393 . S
C1605 C1604 1.391 . S
C1606 H1596 0.950 . S
C1606 C1607 1.386 . S
C1606 C1608 1.391 . S
C1607 C1606 1.386 . S
C1607 C1611 1.393 . S
C1608 H1597 0.950 . S
C1608 C1606 1.391 . S
C1608 C1609 1.400 . S
C1609 C1603 1.491 . S
C1609 C1608 1.400 . S
C1609 C1610 1.398 . S
C1610 H1598 0.950 . S
C1610 C1609 1.398 . S
C1610 C1611 1.391 . S
C1611 H1599 0.950 . S
C1611 C1607 1.393 . S
C1611 C1610 1.391 . S
H1612 C1620 0.950 . S
H1613 C1625 0.950 . S
H1614 C1622 0.952 . S
H1615 C1624 0.950 . S
H1616 C1626 0.950 . S
H1617 C1628 0.950 . S
H1618 C1630 0.950 . S
H1619 C1631 0.950 . S
C1620 H1612 0.950 . S
C1620 C1621 1.386 . S
C1620 C1622 1.389 1_556 S
C1621 C1620 1.386 . S
C1621 C1625 1.393 . S
C1622 H1614 0.952 . S
C1622 C1620 1.389 1_554 S
C1622 C1623 1.401 . S
C1623 C1622 1.401 . S
C1623 C1624 1.398 1_554 S
C1623 C1629 1.491 . S
C1624 H1615 0.950 . S
C1624 C1623 1.398 1_556 S
C1624 C1625 1.391 . S
C1625 H1613 0.950 . S
C1625 C1621 1.393 . S
C1625 C1624 1.391 . S
C1626 H1616 0.950 . S
C1626 C1627 1.386 . S
C1626 C1628 1.391 . S
C1627 C1626 1.386 . S
C1627 C1631 1.393 . S
C1628 H1617 0.950 . S
C1628 C1626 1.391 . S
C1628 C1629 1.400 . S
C1629 C1623 1.491 . S
C1629 C1628 1.400 . S
C1629 C1630 1.398 . S
C1630 H1618 0.950 . S
C1630 C1629 1.398 . S
C1630 C1631 1.391 . S
C1631 H1619 0.950 . S
C1631 C1627 1.393 . S
C1631 C1630 1.391 . S
H1632 C1640 0.950 . S
H1633 C1645 0.950 . S
H1634 C1642 0.950 . S
H1635 C1644 0.950 . S
H1636 C1646 0.950 . S
H1637 C1648 0.950 . S
H1638 C1650 0.950 . S
H1639 C1651 0.950 . S
C1640 H1632 0.950 . S
C1640 C1641 1.386 . S
C1640 C1642 1.391 . S
C1641 C1640 1.386 . S
C1641 C1645 1.393 . S
C1642 H1634 0.950 . S
C1642 C1640 1.391 . S
C1642 C1643 1.400 . S
C1643 C1642 1.400 . S
C1643 C1644 1.398 . S
C1643 C1649 1.491 . S
C1644 H1635 0.950 . S
C1644 C1643 1.398 . S
C1644 C1645 1.391 . S
C1645 H1633 0.950 . S
C1645 C1641 1.393 . S
C1645 C1644 1.391 . S
C1646 H1636 0.950 . S
C1646 C1647 1.386 . S
C1646 C1648 1.391 . S
C1647 C1646 1.386 . S
C1647 C1651 1.393 . S
C1648 H1637 0.950 . S
C1648 C1646 1.391 . S
C1648 C1649 1.400 . S
C1649 C1643 1.491 . S
C1649 C1648 1.400 . S
C1649 C1650 1.398 . S
C1650 H1638 0.950 . S
C1650 C1649 1.398 . S
C1650 C1651 1.391 . S
C1651 H1639 0.950 . S
C1651 C1647 1.393 . S
C1651 C1650 1.391 . S
H1652 C1660 0.950 . S
H1653 C1665 0.950 . S
H1654 C1662 0.950 . S
H1655 C1664 0.950 . S
H1656 C1666 0.950 . S
H1657 C1668 0.950 . S
H1658 C1670 0.950 . S
H1659 C1671 0.950 . S
C1660 H1652 0.950 . S
C1660 C1661 1.386 . S
C1660 C1662 1.391 . S
C1661 C1660 1.386 . S
C1661 C1665 1.393 . S
C1662 H1654 0.950 . S
C1662 C1660 1.391 . S
C1662 C1663 1.400 . S
C1663 C1662 1.400 . S
C1663 C1664 1.398 . S
C1663 C1669 1.491 . S
C1664 H1655 0.950 . S
C1664 C1663 1.398 . S
C1664 C1665 1.391 . S
C1665 H1653 0.950 . S
C1665 C1661 1.393 . S
C1665 C1664 1.391 . S
C1666 H1656 0.950 . S
C1666 C1667 1.386 . S
C1666 C1668 1.391 1_554 S
C1667 C1666 1.386 . S
C1667 C1671 1.393 . S
C1668 H1657 0.950 . S
C1668 C1666 1.391 1_556 S
C1668 C1669 1.400 . S
C1669 C1663 1.491 . S
C1669 C1668 1.400 . S
C1669 C1670 1.398 1_556 S
C1670 H1658 0.950 . S
C1670 C1669 1.398 1_554 S
C1670 C1671 1.391 . S
C1671 H1659 0.950 . S
C1671 C1667 1.393 . S
C1671 C1670 1.391 . S
H1672 C1680 0.950 . S
H1673 C1685 0.950 . S
H1674 C1682 0.950 . S
H1675 C1684 0.950 . S
H1676 C1686 0.950 . S
H1677 C1688 0.950 . S
H1678 C1690 0.950 . S
H1679 C1691 0.950 . S
C1680 H1672 0.950 . S
C1680 C1681 1.386 . S
C1680 C1682 1.391 . S
C1681 C1680 1.386 . S
C1681 C1685 1.393 . S
C1682 H1674 0.950 . S
C1682 C1680 1.391 . S
C1682 C1683 1.400 . S
C1683 C1682 1.400 . S
C1683 C1684 1.398 . S
C1683 C1689 1.491 . S
C1684 H1675 0.950 . S
C1684 C1683 1.398 . S
C1684 C1685 1.391 . S
C1685 H1673 0.950 . S
C1685 C1681 1.393 . S
C1685 C1684 1.391 . S
C1686 H1676 0.950 . S
C1686 C1687 1.386 . S
C1686 C1688 1.391 . S
C1687 C1686 1.386 . S
C1687 C1691 1.393 . S
C1688 H1677 0.950 . S
C1688 C1686 1.391 . S
C1688 C1689 1.400 . S
C1689 C1683 1.491 . S
C1689 C1688 1.400 . S
C1689 C1690 1.398 . S
C1690 H1678 0.950 . S
C1690 C1689 1.398 . S
C1690 C1691 1.391 . S
C1691 H1679 0.950 . S
C1691 C1687 1.393 . S
C1691 C1690 1.391 . S
H1692 C1700 0.950 . S
H1693 C1705 0.950 . S
H1694 C1702 0.950 . S
H1695 C1704 0.950 . S
H1696 C1706 0.950 . S
H1697 C1708 0.950 . S
H1698 C1710 0.950 . S
H1699 C1711 0.950 . S
C1700 H1692 0.950 . S
C1700 C1701 1.386 . S
C1700 C1702 1.391 . S
C1701 C1700 1.386 . S
C1701 C1705 1.393 . S
C1702 H1694 0.950 . S
C1702 C1700 1.391 . S
C1702 C1703 1.400 1_554 S
C1703 C1702 1.400 1_556 S
C1703 C1704 1.398 . S
C1703 C1709 1.491 . S
C1704 H1695 0.950 . S
C1704 C1703 1.398 . S
C1704 C1705 1.391 1_556 S
C1705 H1693 0.950 . S
C1705 C1701 1.393 . S
C1705 C1704 1.391 1_554 S
C1706 H1696 0.950 . S
C1706 C1707 1.386 . S
C1706 C1708 1.391 . S
C1707 C1706 1.386 . S
C1707 C1711 1.393 . S
C1708 H1697 0.950 . S
C1708 C1706 1.391 . S
C1708 C1709 1.400 . S
C1709 C1703 1.491 . S
C1709 C1708 1.400 . S
C1709 C1710 1.398 . S
C1710 H1698 0.950 . S
C1710 C1709 1.398 . S
C1710 C1711 1.391 . S
C1711 H1699 0.950 . S
C1711 C1707 1.393 . S
C1711 C1710 1.391 . S
H1712 C1720 0.950 . S
H1713 C1725 0.950 . S
H1714 C1722 0.950 . S
H1715 C1724 0.950 . S
H1716 C1726 0.950 . S
H1717 C1728 0.950 . S
H1718 C1730 0.950 . S
H1719 C1731 0.950 . S
C1720 H1712 0.950 . S
C1720 C1721 1.386 . S
C1720 C1722 1.391 . S
C1721 C1720 1.386 . S
C1721 C1725 1.393 . S
C1722 H1714 0.950 . S
C1722 C1720 1.391 . S
C1722 C1723 1.400 . S
C1723 C1722 1.400 . S
C1723 C1724 1.398 . S
C1723 C1729 1.491 . S
C1724 H1715 0.950 . S
C1724 C1723 1.398 . S
C1724 C1725 1.391 . S
C1725 H1713 0.950 . S
C1725 C1721 1.393 . S
C1725 C1724 1.391 . S
C1726 H1716 0.950 . S
C1726 C1727 1.386 . S
C1726 C1728 1.391 . S
C1727 C1726 1.386 . S
C1727 C1731 1.393 . S
C1728 H1717 0.950 . S
C1728 C1726 1.391 . S
C1728 C1729 1.400 . S
C1729 C1723 1.491 . S
C1729 C1728 1.400 . S
C1729 C1730 1.398 . S
C1730 H1718 0.950 . S
C1730 C1729 1.398 . S
C1730 C1731 1.391 . S
C1731 H1719 0.950 . S
C1731 C1727 1.393 . S
C1731 C1730 1.391 . S
H1732 C1740 0.950 . S
H1733 C1745 0.950 . S
H1734 C1742 0.950 . S
H1735 C1744 0.950 . S
H1736 C1746 0.950 . S
H1737 C1748 0.950 . S
H1738 C1750 0.950 . S
H1739 C1751 0.950 . S
C1740 H1732 0.950 . S
C1740 C1741 1.386 . S
C1740 C1742 1.391 . S
C1741 C1740 1.386 . S
C1741 C1745 1.393 . S
C1742 H1734 0.950 . S
C1742 C1740 1.391 . S
C1742 C1743 1.400 . S
C1743 C1742 1.400 . S
C1743 C1744 1.398 . S
C1743 C1749 1.491 . S
C1744 H1735 0.950 . S
C1744 C1743 1.398 . S
C1744 C1745 1.391 . S
C1745 H1733 0.950 . S
C1745 C1741 1.393 . S
C1745 C1744 1.391 . S
C1746 H1736 0.950 . S
C1746 C1747 1.386 . S
C1746 C1748 1.391 . S
C1747 C1746 1.386 . S
C1747 C1751 1.393 . S
C1748 H1737 0.950 . S
C1748 C1746 1.391 . S
C1748 C1749 1.400 . S
C1749 C1743 1.491 . S
C1749 C1748 1.400 . S
C1749 C1750 1.398 . S
C1750 H1738 0.950 . S
C1750 C1749 1.398 . S
C1750 C1751 1.391 . S
C1751 H1739 0.950 . S
C1751 C1747 1.393 . S
C1751 C1750 1.391 . S
H1752 C1760 0.950 . S
H1753 C1765 0.950 . S
H1754 C1762 0.950 . S
H1755 C1764 0.950 . S
H1756 C1766 0.950 . S
H1757 C1768 0.950 . S
H1758 C1770 0.950 . S
H1759 C1771 0.950 . S
C1760 H1752 0.950 . S
C1760 C1761 1.386 . S
C1760 C1762 1.391 . S
C1761 C1760 1.386 . S
C1761 C1765 1.393 . S
C1762 H1754 0.950 . S
C1762 C1760 1.391 . S
C1762 C1763 1.400 . S
C1763 C1762 1.400 . S
C1763 C1764 1.398 . S
C1763 C1769 1.491 . S
C1764 H1755 0.950 . S
C1764 C1763 1.398 . S
C1764 C1765 1.391 . S
C1765 H1753 0.950 . S
C1765 C1761 1.393 . S
C1765 C1764 1.391 . S
C1766 H1756 0.950 . S
C1766 C1767 1.386 . S
C1766 C1768 1.391 . S
C1767 C1766 1.386 . S
C1767 C1771 1.393 . S
C1768 H1757 0.950 . S
C1768 C1766 1.391 . S
C1768 C1769 1.400 . S
C1769 C1763 1.491 . S
C1769 C1768 1.400 . S
C1769 C1770 1.398 . S
C1770 H1758 0.950 . S
C1770 C1769 1.398 . S
C1770 C1771 1.391 . S
C1771 H1759 0.950 . S
C1771 C1767 1.393 . S
C1771 C1770 1.391 . S
H1772 C1780 0.950 . S
H1773 C1785 0.950 . S
H1774 C1782 0.950 . S
H1775 C1784 0.950 . S
H1776 C1786 0.950 . S
H1777 C1788 0.950 . S
H1778 C1790 0.950 . S
H1779 C1791 0.950 . S
C1780 H1772 0.950 . S
C1780 C1781 1.386 . S
C1780 C1782 1.391 . S
C1781 C1780 1.386 . S
C1781 C1785 1.393 . S
C1782 H1774 0.950 . S
C1782 C1780 1.391 . S
C1782 C1783 1.400 . S
C1783 C1782 1.400 . S
C1783 C1784 1.398 . S
C1783 C1789 1.491 . S
C1784 H1775 0.950 . S
C1784 C1783 1.398 . S
C1784 C1785 1.391 . S
C1785 H1773 0.950 . S
C1785 C1781 1.393 . S
C1785 C1784 1.391 . S
C1786 H1776 0.950 . S
C1786 C1787 1.386 . S
C1786 C1788 1.391 . S
C1787 C1786 1.386 . S
C1787 C1791 1.393 . S
C1788 H1777 0.950 . S
C1788 C1786 1.391 . S
C1788 C1789 1.400 . S
C1789 C1783 1.491 . S
C1789 C1788 1.400 . S
C1789 C1790 1.398 . S
C1790 H1778 0.950 . S
C1790 C1789 1.398 . S
C1790 C1791 1.391 . S
C1791 H1779 0.950 . S
C1791 C1787 1.393 . S
C1791 C1790 1.391 . S
H1792 C1800 0.950 . S
H1793 C1805 0.950 . S
H1794 C1802 0.950 . S
H1795 C1804 0.950 . S
H1796 C1806 0.950 . S
H1797 C1808 0.950 . S
H1798 C1810 0.950 . S
H1799 C1811 0.950 . S
C1800 H1792 0.950 . S
C1800 C1801 1.386 . S
C1800 C1802 1.391 . S
C1801 C1800 1.386 . S
C1801 C1805 1.393 . S
C1802 H1794 0.950 . S
C1802 C1800 1.391 . S
C1802 C1803 1.400 . S
C1803 C1802 1.400 . S
C1803 C1804 1.398 . S
C1803 C1809 1.491 . S
C1804 H1795 0.950 . S
C1804 C1803 1.398 . S
C1804 C1805 1.391 . S
C1805 H1793 0.950 . S
C1805 C1801 1.393 . S
C1805 C1804 1.391 . S
C1806 H1796 0.950 . S
C1806 C1807 1.386 . S
C1806 C1808 1.391 . S
C1807 C1806 1.386 . S
C1807 C1811 1.393 . S
C1808 H1797 0.950 . S
C1808 C1806 1.391 . S
C1808 C1809 1.400 . S
C1809 C1803 1.491 . S
C1809 C1808 1.400 . S
C1809 C1810 1.398 . S
C1810 H1798 0.950 . S
C1810 C1809 1.398 . S
C1810 C1811 1.391 . S
C1811 H1799 0.950 . S
C1811 C1807 1.393 . S
C1811 C1810 1.391 . S
H1812 C1820 0.950 . S
H1813 C1825 0.950 . S
H1814 C1822 0.950 . S
H1815 C1824 0.950 . S
H1816 C1826 0.950 . S
H1817 C1828 0.950 . S
H1818 C1830 0.950 . S
H1819 C1831 0.950 . S
C1820 H1812 0.950 . S
C1820 C1821 1.386 . S
C1820 C1822 1.391 . S
C1821 C1820 1.386 . S
C1821 C1825 1.393 . S
C1822 H1814 0.950 . S
C1822 C1820 1.391 . S
C1822 C1823 1.400 . S
C1823 C1822 1.400 . S
C1823 C1824 1.398 . S
C1823 C1829 1.491 . S
C1824 H1815 0.950 . S
C1824 C1823 1.398 . S
C1824 C1825 1.391 . S
C1825 H1813 0.950 . S
C1825 C1821 1.393 . S
C1825 C1824 1.391 . S
C1826 H1816 0.950 . S
C1826 C1827 1.386 . S
C1826 C1828 1.391 . S
C1827 C1826 1.386 . S
C1827 C1831 1.393 . S
C1828 H1817 0.950 . S
C1828 C1826 1.391 . S
C1828 C1829 1.400 . S
C1829 C1823 1.491 . S
C1829 C1828 1.400 . S
C1829 C1830 1.398 . S
C1830 H1818 0.950 . S
C1830 C1829 1.398 . S
C1830 C1831 1.391 . S
C1831 H1819 0.950 . S
C1831 C1827 1.393 . S
C1831 C1830 1.391 . S
H1832 C1840 0.950 . S
H1833 C1845 0.950 . S
H1834 C1842 0.950 . S
H1835 C1844 0.950 . S
H1836 C1846 0.950 . S
H1837 C1848 0.950 . S
H1838 C1850 0.950 . S
H1839 C1851 0.950 . S
C1840 H1832 0.950 . S
C1840 C1841 1.386 . S
C1840 C1842 1.391 . S
C1841 C1840 1.386 . S
C1841 C1845 1.393 . S
C1842 H1834 0.950 . S
C1842 C1840 1.391 . S
C1842 C1843 1.400 . S
C1843 C1842 1.400 . S
C1843 C1844 1.398 . S
C1843 C1849 1.491 . S
C1844 H1835 0.950 . S
C1844 C1843 1.398 . S
C1844 C1845 1.391 . S
C1845 H1833 0.950 . S
C1845 C1841 1.393 . S
C1845 C1844 1.391 . S
C1846 H1836 0.950 . S
C1846 C1847 1.386 . S
C1846 C1848 1.391 . S
C1847 C1846 1.386 . S
C1847 C1851 1.393 . S
C1848 H1837 0.950 . S
C1848 C1846 1.391 . S
C1848 C1849 1.400 . S
C1849 C1843 1.491 . S
C1849 C1848 1.400 . S
C1849 C1850 1.398 . S
C1850 H1838 0.950 . S
C1850 C1849 1.398 . S
C1850 C1851 1.391 . S
C1851 H1839 0.950 . S
C1851 C1847 1.393 . S
C1851 C1850 1.391 . S
H1852 C1860 0.950 . S
H1853 C1865 0.950 . S
H1854 C1862 0.950 . S
H1855 C1864 0.950 . S
H1856 C1866 0.950 . S
H1857 C1868 0.950 . S
H1858 C1870 0.950 . S
H1859 C1871 0.950 . S
C1860 H1852 0.950 . S
C1860 C1861 1.386 . S
C1860 C1862 1.391 . S
C1861 C1860 1.386 . S
C1861 C1865 1.393 . S
C1862 H1854 0.950 . S
C1862 C1860 1.391 . S
C1862 C1863 1.400 . S
C1863 C1862 1.400 . S
C1863 C1864 1.398 . S
C1863 C1869 1.491 . S
C1864 H1855 0.950 . S
C1864 C1863 1.398 . S
C1864 C1865 1.391 . S
C1865 H1853 0.950 . S
C1865 C1861 1.393 . S
C1865 C1864 1.391 . S
C1866 H1856 0.950 . S
C1866 C1867 1.386 . S
C1866 C1868 1.391 . S
C1867 C1866 1.386 . S
C1867 C1871 1.393 . S
C1868 H1857 0.950 . S
C1868 C1866 1.391 . S
C1868 C1869 1.400 1_565 S
C1869 C1863 1.491 . S
C1869 C1868 1.400 1_545 S
C1869 C1870 1.398 . S
C1870 H1858 0.950 . S
C1870 C1869 1.398 . S
C1870 C1871 1.391 1_545 S
C1871 H1859 0.950 . S
C1871 C1867 1.393 . S
C1871 C1870 1.391 1_565 S
H1872 C1880 0.950 . S
H1873 C1885 0.950 . S
H1874 C1882 0.950 . S
H1875 C1884 0.950 . S
H1876 C1886 0.950 . S
H1877 C1888 0.950 . S
H1878 C1890 0.950 . S
H1879 C1891 0.950 . S
C1880 H1872 0.950 . S
C1880 C1881 1.386 . S
C1880 C1882 1.391 . S
C1881 C1880 1.386 . S
C1881 C1885 1.393 . S
C1882 H1874 0.950 . S
C1882 C1880 1.391 . S
C1882 C1883 1.400 . S
C1883 C1882 1.400 . S
C1883 C1884 1.398 . S
C1883 C1889 1.491 . S
C1884 H1875 0.950 . S
C1884 C1883 1.398 . S
C1884 C1885 1.391 . S
C1885 H1873 0.950 . S
C1885 C1881 1.393 . S
C1885 C1884 1.391 . S
C1886 H1876 0.950 . S
C1886 C1887 1.386 . S
C1886 C1888 1.391 . S
C1887 C1886 1.386 . S
C1887 C1891 1.393 . S
C1888 H1877 0.950 . S
C1888 C1886 1.391 . S
C1888 C1889 1.400 . S
C1889 C1883 1.491 . S
C1889 C1888 1.400 . S
C1889 C1890 1.398 . S
C1890 H1878 0.950 . S
C1890 C1889 1.398 . S
C1890 C1891 1.391 . S
C1891 H1879 0.950 . S
C1891 C1887 1.393 . S
C1891 C1890 1.391 . S
H1892 C1900 0.950 . S
H1893 C1905 0.950 . S
H1894 C1902 0.950 . S
H1895 C1904 0.950 . S
H1896 C1906 0.950 . S
H1897 C1908 0.950 . S
H1898 C1910 0.950 . S
H1899 C1911 0.950 . S
C1900 H1892 0.950 . S
C1900 C1901 1.386 . S
C1900 C1902 1.391 . S
C1901 C1900 1.386 . S
C1901 C1905 1.393 . S
C1902 H1894 0.950 . S
C1902 C1900 1.391 . S
C1902 C1903 1.400 . S
C1903 C1902 1.400 . S
C1903 C1904 1.398 . S
C1903 C1909 1.491 . S
C1904 H1895 0.950 . S
C1904 C1903 1.398 . S
C1904 C1905 1.391 . S
C1905 H1893 0.950 . S
C1905 C1901 1.393 . S
C1905 C1904 1.391 . S
C1906 H1896 0.950 . S
C1906 C1907 1.386 . S
C1906 C1908 1.391 . S
C1907 C1906 1.386 . S
C1907 C1911 1.393 . S
C1908 H1897 0.950 . S
C1908 C1906 1.391 . S
C1908 C1909 1.400 1_455 S
C1909 C1903 1.491 . S
C1909 C1908 1.400 1_655 S
C1909 C1910 1.398 . S
C1910 H1898 0.950 . S
C1910 C1909 1.398 . S
C1910 C1911 1.391 1_655 S
C1911 H1899 0.950 . S
C1911 C1907 1.393 . S
C1911 C1910 1.391 1_455 S
H1912 C1920 0.950 . S
H1913 C1925 0.950 . S
H1914 C1922 0.950 . S
H1915 C1924 0.950 . S
H1916 C1926 0.950 . S
H1917 C1928 0.950 . S
H1918 C1930 0.950 . S
H1919 C1931 0.950 . S
C1920 H1912 0.950 . S
C1920 C1921 1.386 . S
C1920 C1922 1.391 . S
C1921 C1920 1.386 . S
C1921 C1925 1.393 . S
C1922 H1914 0.950 . S
C1922 C1920 1.391 . S
C1922 C1923 1.400 . S
C1923 C1922 1.400 . S
C1923 C1924 1.398 . S
C1923 C1929 1.491 . S
C1924 H1915 0.950 . S
C1924 C1923 1.398 . S
C1924 C1925 1.391 . S
C1925 H1913 0.950 . S
C1925 C1921 1.393 . S
C1925 C1924 1.391 . S
C1926 H1916 0.950 . S
C1926 C1927 1.386 . S
C1926 C1928 1.391 . S
C1927 C1926 1.386 . S
C1927 C1931 1.393 . S
C1928 H1917 0.950 . S
C1928 C1926 1.391 . S
C1928 C1929 1.400 . S
C1929 C1923 1.491 . S
C1929 C1928 1.400 . S
C1929 C1930 1.398 . S
C1930 H1918 0.950 . S
C1930 C1929 1.398 . S
C1930 C1931 1.391 . S
C1931 H1919 0.950 . S
C1931 C1927 1.393 . S
C1931 C1930 1.391 . S
H1932 C1940 0.950 . S
H1933 C1945 0.950 . S
H1934 C1942 0.950 . S
H1935 C1944 0.950 . S
H1936 C1946 0.950 . S
H1937 C1948 0.950 . S
H1938 C1950 0.950 . S
H1939 C1951 0.950 . S
C1940 H1932 0.950 . S
C1940 C1941 1.386 . S
C1940 C1942 1.391 1_655 S
C1941 C1940 1.386 . S
C1941 C1945 1.393 . S
C1942 H1934 0.950 . S
C1942 C1940 1.391 1_455 S
C1942 C1943 1.400 . S
C1943 C1942 1.400 . S
C1943 C1944 1.398 1_455 S
C1943 C1949 1.491 . S
C1944 H1935 0.950 . S
C1944 C1943 1.398 1_655 S
C1944 C1945 1.391 . S
C1945 H1933 0.950 . S
C1945 C1941 1.393 . S
C1945 C1944 1.391 . S
C1946 H1936 0.950 . S
C1946 C1947 1.386 . S
C1946 C1948 1.391 . S
C1947 C1946 1.386 . S
C1947 C1951 1.393 . S
C1948 H1937 0.950 . S
C1948 C1946 1.391 . S
C1948 C1949 1.400 . S
C1949 C1943 1.491 . S
C1949 C1948 1.400 . S
C1949 C1950 1.398 . S
C1950 H1938 0.950 . S
C1950 C1949 1.398 . S
C1950 C1951 1.391 . S
C1951 H1939 0.950 . S
C1951 C1947 1.393 . S
C1951 C1950 1.391 . S
H1952 C1960 0.950 . S
H1953 C1965 0.950 . S
H1954 C1962 0.950 . S
H1955 C1964 0.950 . S
H1956 C1966 0.950 . S
H1957 C1968 0.950 . S
H1958 C1970 0.950 . S
H1959 C1971 0.950 . S
C1960 H1952 0.950 . S
C1960 C1961 1.386 . S
C1960 C1962 1.391 . S
C1961 C1960 1.386 . S
C1961 C1965 1.393 . S
C1962 H1954 0.950 . S
C1962 C1960 1.391 . S
C1962 C1963 1.400 . S
C1963 C1962 1.400 . S
C1963 C1964 1.398 . S
C1963 C1969 1.491 . S
C1964 H1955 0.950 . S
C1964 C1963 1.398 . S
C1964 C1965 1.391 . S
C1965 H1953 0.950 . S
C1965 C1961 1.393 . S
C1965 C1964 1.391 . S
C1966 H1956 0.950 . S
C1966 C1967 1.386 . S
C1966 C1968 1.391 . S
C1967 C1966 1.386 . S
C1967 C1971 1.393 . S
C1968 H1957 0.950 . S
C1968 C1966 1.391 . S
C1968 C1969 1.400 . S
C1969 C1963 1.491 . S
C1969 C1968 1.400 . S
C1969 C1970 1.398 . S
C1970 H1958 0.950 . S
C1970 C1969 1.398 . S
C1970 C1971 1.391 . S
C1971 H1959 0.950 . S
C1971 C1967 1.393 . S
C1971 C1970 1.391 . S
H1972 C1980 0.950 . S
H1973 C1985 0.950 . S
H1974 C1982 0.950 . S
H1975 C1984 0.950 . S
H1976 C1986 0.950 . S
H1977 C1988 0.950 . S
H1978 C1990 0.950 . S
H1979 C1991 0.950 . S
C1980 H1972 0.950 . S
C1980 C1981 1.386 . S
C1980 C1982 1.391 . S
C1981 C1980 1.386 . S
C1981 C1985 1.393 . S
C1982 H1974 0.950 . S
C1982 C1980 1.391 . S
C1982 C1983 1.400 . S
C1983 C1982 1.400 . S
C1983 C1984 1.398 . S
C1983 C1989 1.491 . S
C1984 H1975 0.950 . S
C1984 C1983 1.398 . S
C1984 C1985 1.391 . S
C1985 H1973 0.950 . S
C1985 C1981 1.393 . S
C1985 C1984 1.391 . S
C1986 H1976 0.950 . S
C1986 C1987 1.386 . S
C1986 C1988 1.391 . S
C1987 C1986 1.386 . S
C1987 C1991 1.393 . S
C1988 H1977 0.950 . S
C1988 C1986 1.391 . S
C1988 C1989 1.400 . S
C1989 C1983 1.491 . S
C1989 C1988 1.400 . S
C1989 C1990 1.398 . S
C1990 H1978 0.950 . S
C1990 C1989 1.398 . S
C1990 C1991 1.391 . S
C1991 H1979 0.950 . S
C1991 C1987 1.393 . S
C1991 C1990 1.391 . S
H1992 C2000 0.950 . S
H1993 C2005 0.950 . S
H1994 C2002 0.950 . S
H1995 C2004 0.950 . S
H1996 C2006 0.950 . S
H1997 C2008 0.950 . S
H1998 C2010 0.950 . S
H1999 C2011 0.950 . S
C2000 H1992 0.950 . S
C2000 C2001 1.386 . S
C2000 C2002 1.391 . S
C2001 C2000 1.386 . S
C2001 C2005 1.393 . S
C2002 H1994 0.950 . S
C2002 C2000 1.391 . S
C2002 C2003 1.400 . S
C2003 C2002 1.400 . S
C2003 C2004 1.398 . S
C2003 C2009 1.491 . S
C2004 H1995 0.950 . S
C2004 C2003 1.398 . S
C2004 C2005 1.391 . S
C2005 H1993 0.950 . S
C2005 C2001 1.393 . S
C2005 C2004 1.391 . S
C2006 H1996 0.950 . S
C2006 C2007 1.386 . S
C2006 C2008 1.391 . S
C2007 C2006 1.386 . S
C2007 C2011 1.393 . S
C2008 H1997 0.950 . S
C2008 C2006 1.391 . S
C2008 C2009 1.400 . S
C2009 C2003 1.491 . S
C2009 C2008 1.400 . S
C2009 C2010 1.398 . S
C2010 H1998 0.950 . S
C2010 C2009 1.398 . S
C2010 C2011 1.391 . S
C2011 H1999 0.950 . S
C2011 C2007 1.393 . S
C2011 C2010 1.391 . S
H2012 C2020 0.950 . S
H2013 C2025 0.950 . S
H2014 C2022 0.950 . S
H2015 C2024 0.950 . S
H2016 C2026 0.950 . S
H2017 C2028 0.950 . S
H2018 C2030 0.950 . S
H2019 C2031 0.950 . S
C2020 H2012 0.950 . S
C2020 C2021 1.386 . S
C2020 C2022 1.391 . S
C2021 C2020 1.386 . S
C2021 C2025 1.393 . S
C2022 H2014 0.950 . S
C2022 C2020 1.391 . S
C2022 C2023 1.400 . S
C2023 C2022 1.400 . S
C2023 C2024 1.398 . S
C2023 C2029 1.491 . S
C2024 H2015 0.950 . S
C2024 C2023 1.398 . S
C2024 C2025 1.391 . S
C2025 H2013 0.950 . S
C2025 C2021 1.393 . S
C2025 C2024 1.391 . S
C2026 H2016 0.950 . S
C2026 C2027 1.386 . S
C2026 C2028 1.391 . S
C2027 C2026 1.386 . S
C2027 C2031 1.393 . S
C2028 H2017 0.950 . S
C2028 C2026 1.391 . S
C2028 C2029 1.400 . S
C2029 C2023 1.491 . S
C2029 C2028 1.400 . S
C2029 C2030 1.398 . S
C2030 H2018 0.950 . S
C2030 C2029 1.398 . S
C2030 C2031 1.391 . S
C2031 H2019 0.950 . S
C2031 C2027 1.393 . S
C2031 C2030 1.391 . S
H2032 C2040 0.950 . S
H2033 C2045 0.950 . S
H2034 C2042 0.950 . S
H2035 C2044 0.950 . S
H2036 C2046 0.950 . S
H2037 C2048 0.950 . S
H2038 C2050 0.950 . S
H2039 C2051 0.950 . S
C2040 H2032 0.950 . S
C2040 C2041 1.386 . S
C2040 C2042 1.391 . S
C2041 C2040 1.386 . S
C2041 C2045 1.393 . S
C2042 H2034 0.950 . S
C2042 C2040 1.391 . S
C2042 C2043 1.400 . S
C2043 C2042 1.400 . S
C2043 C2044 1.398 . S
C2043 C2049 1.491 . S
C2044 H2035 0.950 . S
C2044 C2043 1.398 . S
C2044 C2045 1.391 . S
C2045 H2033 0.950 . S
C2045 C2041 1.393 . S
C2045 C2044 1.391 . S
C2046 H2036 0.950 . S
C2046 C2047 1.386 . S
C2046 C2048 1.391 . S
C2047 C2046 1.386 . S
C2047 C2051 1.393 . S
C2048 H2037 0.950 . S
C2048 C2046 1.391 . S
C2048 C2049 1.400 . S
C2049 C2043 1.491 . S
C2049 C2048 1.400 . S
C2049 C2050 1.398 . S
C2050 H2038 0.950 . S
C2050 C2049 1.398 . S
C2050 C2051 1.391 . S
C2051 H2039 0.950 . S
C2051 C2047 1.393 . S
C2051 C2050 1.391 . S
H2052 C2060 0.950 . S
H2053 C2065 0.950 . S
H2054 C2062 0.950 . S
H2055 C2064 0.950 . S
H2056 C2066 0.950 . S
H2057 C2068 0.950 . S
H2058 C2070 0.950 . S
H2059 C2071 0.950 . S
C2060 H2052 0.950 . S
C2060 C2061 1.386 . S
C2060 C2062 1.391 . S
C2061 C2060 1.386 . S
C2061 C2065 1.393 . S
C2062 H2054 0.950 . S
C2062 C2060 1.391 . S
C2062 C2063 1.400 . S
C2063 C2062 1.400 . S
C2063 C2064 1.398 . S
C2063 C2069 1.491 . S
C2064 H2055 0.950 . S
C2064 C2063 1.398 . S
C2064 C2065 1.391 . S
C2065 H2053 0.950 . S
C2065 C2061 1.393 . S
C2065 C2064 1.391 . S
C2066 H2056 0.950 . S
C2066 C2067 1.386 . S
C2066 C2068 1.391 . S
C2067 C2066 1.386 . S
C2067 C2071 1.393 . S
C2068 H2057 0.950 . S
C2068 C2066 1.391 . S
C2068 C2069 1.400 . S
C2069 C2063 1.491 . S
C2069 C2068 1.400 . S
C2069 C2070 1.398 . S
C2070 H2058 0.950 . S
C2070 C2069 1.398 . S
C2070 C2071 1.391 . S
C2071 H2059 0.950 . S
C2071 C2067 1.393 . S
C2071 C2070 1.391 . S
H2072 C2080 0.950 . S
H2073 C2085 0.950 . S
H2074 C2082 0.950 . S
H2075 C2084 0.950 . S
H2076 C2086 0.950 . S
H2077 C2088 0.950 . S
H2078 C2090 0.950 . S
H2079 C2091 0.950 . S
C2080 H2072 0.950 . S
C2080 C2081 1.386 . S
C2080 C2082 1.391 . S
C2081 C2080 1.386 . S
C2081 C2085 1.393 . S
C2082 H2074 0.950 . S
C2082 C2080 1.391 . S
C2082 C2083 1.400 . S
C2083 C2082 1.400 . S
C2083 C2084 1.398 . S
C2083 C2089 1.491 . S
C2084 H2075 0.950 . S
C2084 C2083 1.398 . S
C2084 C2085 1.391 . S
C2085 H2073 0.950 . S
C2085 C2081 1.393 . S
C2085 C2084 1.391 . S
C2086 H2076 0.950 . S
C2086 C2087 1.386 . S
C2086 C2088 1.391 . S
C2087 C2086 1.386 . S
C2087 C2091 1.393 . S
C2088 H2077 0.950 . S
C2088 C2086 1.391 . S
C2088 C2089 1.400 . S
C2089 C2083 1.491 . S
C2089 C2088 1.400 . S
C2089 C2090 1.398 . S
C2090 H2078 0.950 . S
C2090 C2089 1.398 . S
C2090 C2091 1.391 . S
C2091 H2079 0.950 . S
C2091 C2087 1.393 . S
C2091 C2090 1.391 . S
H2092 C2100 0.950 . S
H2093 C2105 0.950 . S
H2094 C2102 0.950 . S
H2095 C2104 0.950 . S
H2096 C2106 0.950 . S
H2097 C2108 0.950 . S
H2098 C2110 0.950 . S
H2099 C2111 0.950 . S
C2100 H2092 0.950 . S
C2100 C2101 1.386 . S
C2100 C2102 1.391 . S
C2101 C2100 1.386 . S
C2101 C2105 1.393 . S
C2102 H2094 0.950 . S
C2102 C2100 1.391 . S
C2102 C2103 1.400 . S
C2103 C2102 1.400 . S
C2103 C2104 1.398 . S
C2103 C2109 1.491 . S
C2104 H2095 0.950 . S
C2104 C2103 1.398 . S
C2104 C2105 1.391 . S
C2105 H2093 0.950 . S
C2105 C2101 1.393 . S
C2105 C2104 1.391 . S
C2106 H2096 0.950 . S
C2106 C2107 1.386 . S
C2106 C2108 1.391 . S
C2107 C2106 1.386 . S
C2107 C2111 1.393 . S
C2108 H2097 0.950 . S
C2108 C2106 1.391 . S
C2108 C2109 1.400 . S
C2109 C2103 1.491 . S
C2109 C2108 1.400 . S
C2109 C2110 1.398 . S
C2110 H2098 0.950 . S
C2110 C2109 1.398 . S
C2110 C2111 1.391 . S
C2111 H2099 0.950 . S
C2111 C2107 1.393 . S
C2111 C2110 1.391 . S
H2112 C2120 0.950 . S
H2113 C2125 0.950 . S
H2114 C2122 0.950 . S
H2115 C2124 0.950 . S
H2116 C2126 0.950 . S
H2117 C2128 0.950 . S
H2118 C2130 0.950 . S
H2119 C2131 0.950 . S
C2120 H2112 0.950 . S
C2120 C2121 1.386 . S
C2120 C2122 1.391 . S
C2121 C2120 1.386 . S
C2121 C2125 1.393 . S
C2122 H2114 0.950 . S
C2122 C2120 1.391 . S
C2122 C2123 1.400 . S
C2123 C2122 1.400 . S
C2123 C2124 1.398 . S
C2123 C2129 1.491 . S
C2124 H2115 0.950 . S
C2124 C2123 1.398 . S
C2124 C2125 1.391 . S
C2125 H2113 0.950 . S
C2125 C2121 1.393 . S
C2125 C2124 1.391 . S
C2126 H2116 0.950 . S
C2126 C2127 1.386 . S
C2126 C2128 1.391 . S
C2127 C2126 1.386 . S
C2127 C2131 1.393 . S
C2128 H2117 0.950 . S
C2128 C2126 1.391 . S
C2128 C2129 1.400 . S
C2129 C2123 1.491 . S
C2129 C2128 1.400 . S
C2129 C2130 1.398 . S
C2130 H2118 0.950 . S
C2130 C2129 1.398 . S
C2130 C2131 1.391 . S
C2131 H2119 0.950 . S
C2131 C2127 1.393 . S
C2131 C2130 1.391 . S
H2132 C2140 0.950 . S
H2133 C2145 0.950 . S
H2134 C2142 0.950 . S
H2135 C2144 0.950 . S
H2136 C2146 0.950 . S
H2137 C2148 0.950 . S
H2138 C2150 0.950 . S
H2139 C2151 0.950 . S
C2140 H2132 0.950 . S
C2140 C2141 1.386 . S
C2140 C2142 1.391 . S
C2141 C2140 1.386 . S
C2141 C2145 1.393 . S
C2142 H2134 0.950 . S
C2142 C2140 1.391 . S
C2142 C2143 1.400 . S
C2143 C2142 1.400 . S
C2143 C2144 1.398 . S
C2143 C2149 1.491 . S
C2144 H2135 0.950 . S
C2144 C2143 1.398 . S
C2144 C2145 1.391 . S
C2145 H2133 0.950 . S
C2145 C2141 1.393 . S
C2145 C2144 1.391 . S
C2146 H2136 0.950 . S
C2146 C2147 1.386 . S
C2146 C2148 1.391 . S
C2147 C2146 1.386 . S
C2147 C2151 1.393 . S
C2148 H2137 0.950 . S
C2148 C2146 1.391 . S
C2148 C2149 1.400 . S
C2149 C2143 1.491 . S
C2149 C2148 1.400 . S
C2149 C2150 1.398 . S
C2150 H2138 0.950 . S
C2150 C2149 1.398 . S
C2150 C2151 1.391 . S
C2151 H2139 0.950 . S
C2151 C2147 1.393 . S
C2151 C2150 1.391 . S
H2152 C2160 0.950 . S
H2153 C2165 0.950 . S
H2154 C2162 0.950 . S
H2155 C2164 0.950 . S
H2156 C2166 0.950 . S
H2157 C2168 0.950 . S
H2158 C2170 0.950 . S
H2159 C2171 0.950 . S
C2160 H2152 0.950 . S
C2160 C2161 1.386 . S
C2160 C2162 1.391 . S
C2161 C2160 1.386 . S
C2161 C2165 1.393 . S
C2162 H2154 0.950 . S
C2162 C2160 1.391 . S
C2162 C2163 1.400 . S
C2163 C2162 1.400 . S
C2163 C2164 1.398 . S
C2163 C2169 1.491 . S
C2164 H2155 0.950 . S
C2164 C2163 1.398 . S
C2164 C2165 1.391 . S
C2165 H2153 0.950 . S
C2165 C2161 1.393 . S
C2165 C2164 1.391 . S
C2166 H2156 0.950 . S
C2166 C2167 1.386 . S
C2166 C2168 1.391 . S
C2167 C2166 1.386 . S
C2167 C2171 1.393 . S
C2168 H2157 0.950 . S
C2168 C2166 1.391 . S
C2168 C2169 1.400 . S
C2169 C2163 1.491 . S
C2169 C2168 1.400 . S
C2169 C2170 1.398 . S
C2170 H2158 0.950 . S
C2170 C2169 1.398 . S
C2170 C2171 1.391 . S
C2171 H2159 0.950 . S
C2171 C2167 1.393 . S
C2171 C2170 1.391 . S
H2172 C2180 0.950 . S
H2173 C2185 0.950 . S
H2174 C2182 0.950 . S
H2175 C2184 0.950 . S
H2176 C2186 0.950 . S
H2177 C2188 0.950 . S
H2178 C2190 0.950 . S
H2179 C2191 0.950 . S
C2180 H2172 0.950 . S
C2180 C2181 1.386 . S
C2180 C2182 1.391 . S
C2181 C2180 1.386 . S
C2181 C2185 1.393 . S
C2182 H2174 0.950 . S
C2182 C2180 1.391 . S
C2182 C2183 1.400 . S
C2183 C2182 1.400 . S
C2183 C2184 1.398 . S
C2183 C2189 1.491 . S
C2184 H2175 0.950 . S
C2184 C2183 1.398 . S
C2184 C2185 1.391 . S
C2185 H2173 0.950 . S
C2185 C2181 1.393 . S
C2185 C2184 1.391 . S
C2186 H2176 0.950 . S
C2186 C2187 1.386 . S
C2186 C2188 1.391 . S
C2187 C2186 1.386 . S
C2187 C2191 1.393 . S
C2188 H2177 0.950 . S
C2188 C2186 1.391 . S
C2188 C2189 1.400 . S
C2189 C2183 1.491 . S
C2189 C2188 1.400 . S
C2189 C2190 1.398 . S
C2190 H2178 0.950 . S
C2190 C2189 1.398 . S
C2190 C2191 1.391 . S
C2191 H2179 0.950 . S
C2191 C2187 1.393 . S
C2191 C2190 1.391 . S
H2192 C2200 0.950 . S
H2193 C2205 0.950 . S
H2194 C2202 0.950 . S
H2195 C2204 0.950 . S
H2196 C2206 0.950 . S
H2197 C2208 0.950 . S
H2198 C2210 0.950 . S
H2199 C2211 0.950 . S
C2200 H2192 0.950 . S
C2200 C2201 1.386 . S
C2200 C2202 1.391 . S
C2201 C2200 1.386 . S
C2201 C2205 1.393 . S
C2202 H2194 0.950 . S
C2202 C2200 1.391 . S
C2202 C2203 1.400 . S
C2203 C2202 1.400 . S
C2203 C2204 1.398 . S
C2203 C2209 1.491 . S
C2204 H2195 0.950 . S
C2204 C2203 1.398 . S
C2204 C2205 1.391 . S
C2205 H2193 0.950 . S
C2205 C2201 1.393 . S
C2205 C2204 1.391 . S
C2206 H2196 0.950 . S
C2206 C2207 1.386 . S
C2206 C2208 1.391 . S
C2207 C2206 1.386 . S
C2207 C2211 1.393 . S
C2208 H2197 0.950 . S
C2208 C2206 1.391 . S
C2208 C2209 1.400 . S
C2209 C2203 1.491 . S
C2209 C2208 1.400 . S
C2209 C2210 1.398 . S
C2210 H2198 0.950 . S
C2210 C2209 1.398 . S
C2210 C2211 1.391 . S
C2211 H2199 0.950 . S
C2211 C2207 1.393 . S
C2211 C2210 1.391 . S
H2212 C2220 0.950 . S
H2213 C2225 0.950 . S
H2214 C2222 0.950 . S
H2215 C2224 0.950 . S
H2216 C2226 0.950 . S
H2217 C2228 0.950 . S
H2218 C2230 0.950 . S
H2219 C2231 0.950 . S
C2220 H2212 0.950 . S
C2220 C2221 1.386 . S
C2220 C2222 1.391 . S
C2221 C2220 1.386 . S
C2221 C2225 1.393 . S
C2222 H2214 0.950 . S
C2222 C2220 1.391 . S
C2222 C2223 1.400 . S
C2223 C2222 1.400 . S
C2223 C2224 1.398 . S
C2223 C2229 1.491 . S
C2224 H2215 0.950 . S
C2224 C2223 1.398 . S
C2224 C2225 1.391 . S
C2225 H2213 0.950 . S
C2225 C2221 1.393 . S
C2225 C2224 1.391 . S
C2226 H2216 0.950 . S
C2226 C2227 1.386 . S
C2226 C2228 1.391 . S
C2227 C2226 1.386 . S
C2227 C2231 1.393 . S
C2228 H2217 0.950 . S
C2228 C2226 1.391 . S
C2228 C2229 1.400 . S
C2229 C2223 1.491 . S
C2229 C2228 1.400 . S
C2229 C2230 1.398 . S
C2230 H2218 0.950 . S
C2230 C2229 1.398 . S
C2230 C2231 1.391 . S
C2231 H2219 0.950 . S
C2231 C2227 1.393 . S
C2231 C2230 1.391 . S
H2232 C2240 0.950 . S
H2233 C2245 0.950 . S
H2234 C2242 0.950 . S
H2235 C2244 0.950 . S
H2236 C2246 0.950 . S
H2237 C2248 0.950 . S
H2238 C2250 0.950 . S
H2239 C2251 0.950 . S
C2240 H2232 0.950 . S
C2240 C2241 1.386 . S
C2240 C2242 1.391 . S
C2241 C2240 1.386 . S
C2241 C2245 1.393 . S
C2242 H2234 0.950 . S
C2242 C2240 1.391 . S
C2242 C2243 1.400 . S
C2243 C2242 1.400 . S
C2243 C2244 1.398 . S
C2243 C2249 1.491 . S
C2244 H2235 0.950 . S
C2244 C2243 1.398 . S
C2244 C2245 1.391 . S
C2245 H2233 0.950 . S
C2245 C2241 1.393 . S
C2245 C2244 1.391 . S
C2246 H2236 0.950 . S
C2246 C2247 1.386 . S
C2246 C2248 1.391 1_565 S
C2247 C2246 1.386 . S
C2247 C2251 1.393 . S
C2248 H2237 0.950 . S
C2248 C2246 1.391 1_545 S
C2248 C2249 1.400 . S
C2249 C2243 1.491 . S
C2249 C2248 1.400 . S
C2249 C2250 1.398 1_545 S
C2250 H2238 0.950 . S
C2250 C2249 1.398 1_565 S
C2250 C2251 1.391 . S
C2251 H2239 0.950 . S
C2251 C2247 1.393 . S
C2251 C2250 1.391 . S
H2252 C2260 0.950 . S
H2253 C2265 0.950 . S
H2254 C2262 0.950 . S
H2255 C2264 0.950 . S
H2256 C2266 0.950 . S
H2257 C2268 0.950 . S
H2258 C2270 0.950 . S
H2259 C2271 0.950 . S
C2260 H2252 0.950 . S
C2260 C2261 1.386 . S
C2260 C2262 1.391 . S
C2261 C2260 1.386 . S
C2261 C2265 1.393 . S
C2262 H2254 0.950 . S
C2262 C2260 1.391 . S
C2262 C2263 1.400 . S
C2263 C2262 1.400 . S
C2263 C2264 1.398 . S
C2263 C2269 1.491 . S
C2264 H2255 0.950 . S
C2264 C2263 1.398 . S
C2264 C2265 1.391 . S
C2265 H2253 0.950 . S
C2265 C2261 1.393 . S
C2265 C2264 1.391 . S
C2266 H2256 0.950 . S
C2266 C2267 1.386 . S
C2266 C2268 1.391 . S
C2267 C2266 1.386 . S
C2267 C2271 1.393 . S
C2268 H2257 0.950 . S
C2268 C2266 1.391 . S
C2268 C2269 1.400 . S
C2269 C2263 1.491 . S
C2269 C2268 1.400 . S
C2269 C2270 1.398 . S
C2270 H2258 0.950 . S
C2270 C2269 1.398 . S
C2270 C2271 1.391 . S
C2271 H2259 0.950 . S
C2271 C2267 1.393 . S
C2271 C2270 1.391 . S
H2272 C2280 0.950 . S
H2273 C2285 0.950 . S
H2274 C2282 0.950 . S
H2275 C2284 0.950 . S
H2276 C2286 0.950 . S
H2277 C2288 0.950 . S
H2278 C2290 0.950 . S
H2279 C2291 0.950 . S
C2280 H2272 0.950 . S
C2280 C2281 1.386 . S
C2280 C2282 1.391 . S
C2281 C2280 1.386 . S
C2281 C2285 1.393 . S
C2282 H2274 0.950 . S
C2282 C2280 1.391 . S
C2282 C2283 1.400 . S
C2283 C2282 1.400 . S
C2283 C2284 1.398 . S
C2283 C2289 1.491 . S
C2284 H2275 0.950 . S
C2284 C2283 1.398 . S
C2284 C2285 1.391 . S
C2285 H2273 0.950 . S
C2285 C2281 1.393 . S
C2285 C2284 1.391 . S
C2286 H2276 0.950 . S
C2286 C2287 1.386 . S
C2286 C2288 1.391 1_545 S
C2287 C2286 1.386 . S
C2287 C2291 1.393 . S
C2288 H2277 0.950 . S
C2288 C2286 1.391 1_565 S
C2288 C2289 1.400 . S
C2289 C2283 1.491 . S
C2289 C2288 1.400 . S
C2289 C2290 1.398 1_565 S
C2290 H2278 0.950 . S
C2290 C2289 1.398 1_545 S
C2290 C2291 1.391 . S
C2291 H2279 0.950 . S
C2291 C2287 1.393 . S
C2291 C2290 1.391 . S
H2292 C2300 0.950 . S
H2293 C2305 0.950 . S
H2294 C2302 0.950 . S
H2295 C2304 0.950 . S
H2296 C2306 0.950 . S
H2297 C2308 0.950 . S
H2298 C2310 0.950 . S
H2299 C2311 0.950 . S
C2300 H2292 0.950 . S
C2300 C2301 1.386 . S
C2300 C2302 1.391 . S
C2301 C2300 1.386 . S
C2301 C2305 1.393 . S
C2302 H2294 0.950 . S
C2302 C2300 1.391 . S
C2302 C2303 1.400 . S
C2303 C2302 1.400 . S
C2303 C2304 1.398 . S
C2303 C2309 1.491 . S
C2304 H2295 0.950 . S
C2304 C2303 1.398 . S
C2304 C2305 1.391 . S
C2305 H2293 0.950 . S
C2305 C2301 1.393 . S
C2305 C2304 1.391 . S
C2306 H2296 0.950 . S
C2306 C2307 1.386 . S
C2306 C2308 1.391 . S
C2307 C2306 1.386 . S
C2307 C2311 1.393 . S
C2308 H2297 0.950 . S
C2308 C2306 1.391 . S
C2308 C2309 1.400 . S
C2309 C2303 1.491 . S
C2309 C2308 1.400 . S
C2309 C2310 1.398 . S
C2310 H2298 0.950 . S
C2310 C2309 1.398 . S
C2310 C2311 1.391 . S
C2311 H2299 0.950 . S
C2311 C2307 1.393 . S
C2311 C2310 1.391 . S
H2312 C2320 0.950 . S
H2313 C2325 0.950 . S
H2314 C2322 0.950 . S
H2315 C2324 0.950 . S
H2316 C2326 0.950 . S
H2317 C2328 0.950 . S
H2318 C2330 0.950 . S
H2319 C2331 0.950 . S
C2320 H2312 0.950 . S
C2320 C2321 1.386 . S
C2320 C2322 1.391 . S
C2321 C2320 1.386 . S
C2321 C2325 1.393 . S
C2322 H2314 0.950 . S
C2322 C2320 1.391 . S
C2322 C2323 1.400 . S
C2323 C2322 1.400 . S
C2323 C2324 1.398 . S
C2323 C2329 1.491 . S
C2324 H2315 0.950 . S
C2324 C2323 1.398 . S
C2324 C2325 1.391 . S
C2325 H2313 0.950 . S
C2325 C2321 1.393 . S
C2325 C2324 1.391 . S
C2326 H2316 0.950 . S
C2326 C2327 1.386 . S
C2326 C2328 1.391 . S
C2327 C2326 1.386 . S
C2327 C2331 1.393 . S
C2328 H2317 0.950 . S
C2328 C2326 1.391 . S
C2328 C2329 1.400 1_545 S
C2329 C2323 1.491 . S
C2329 C2328 1.400 1_565 S
C2329 C2330 1.398 . S
C2330 H2318 0.950 . S
C2330 C2329 1.398 . S
C2330 C2331 1.391 1_565 S
C2331 H2319 0.950 . S
C2331 C2327 1.393 . S
C2331 C2330 1.391 1_545 S
H2332 C2340 0.950 . S
H2333 C2345 0.950 . S
H2334 C2342 0.950 . S
H2335 C2344 0.950 . S
H2336 C2346 0.950 . S
H2337 C2348 0.950 . S
H2338 C2350 0.950 . S
H2339 C2351 0.950 . S
C2340 H2332 0.950 . S
C2340 C2341 1.386 . S
C2340 C2342 1.391 . S
C2341 C2340 1.386 . S
C2341 C2345 1.393 . S
C2342 H2334 0.950 . S
C2342 C2340 1.391 . S
C2342 C2343 1.400 . S
C2343 C2342 1.400 . S
C2343 C2344 1.398 . S
C2343 C2349 1.491 . S
C2344 H2335 0.950 . S
C2344 C2343 1.398 . S
C2344 C2345 1.391 . S
C2345 H2333 0.950 . S
C2345 C2341 1.393 . S
C2345 C2344 1.391 . S
C2346 H2336 0.950 . S
C2346 C2347 1.386 . S
C2346 C2348 1.391 . S
C2347 C2346 1.386 . S
C2347 C2351 1.393 . S
C2348 H2337 0.950 . S
C2348 C2346 1.391 . S
C2348 C2349 1.400 . S
C2349 C2343 1.491 . S
C2349 C2348 1.400 . S
C2349 C2350 1.398 . S
C2350 H2338 0.950 . S
C2350 C2349 1.398 . S
C2350 C2351 1.391 . S
C2351 H2339 0.950 . S
C2351 C2347 1.393 . S
C2351 C2350 1.391 . S
H2352 C2360 0.950 . S
H2353 C2365 0.950 . S
H2354 C2362 0.950 . S
H2355 C2364 0.950 . S
H2356 C2366 0.950 . S
H2357 C2368 0.950 . S
H2358 C2370 0.950 . S
H2359 C2371 0.950 . S
C2360 H2352 0.950 . S
C2360 C2361 1.386 . S
C2360 C2362 1.391 . S
C2361 C2360 1.386 . S
C2361 C2365 1.393 . S
C2362 H2354 0.950 . S
C2362 C2360 1.391 . S
C2362 C2363 1.400 . S
C2363 C2362 1.400 . S
C2363 C2364 1.398 . S
C2363 C2369 1.491 1_655 S
C2364 H2355 0.950 . S
C2364 C2363 1.398 . S
C2364 C2365 1.391 . S
C2365 H2353 0.950 . S
C2365 C2361 1.393 . S
C2365 C2364 1.391 . S
C2366 H2356 0.950 . S
C2366 C2367 1.386 . S
C2366 C2368 1.391 . S
C2367 C2366 1.386 . S
C2367 C2371 1.393 . S
C2368 H2357 0.950 . S
C2368 C2366 1.391 . S
C2368 C2369 1.400 . S
C2369 C2363 1.491 1_455 S
C2369 C2368 1.400 . S
C2369 C2370 1.398 . S
C2370 H2358 0.950 . S
C2370 C2369 1.398 . S
C2370 C2371 1.391 . S
C2371 H2359 0.950 . S
C2371 C2367 1.393 . S
C2371 C2370 1.391 . S
H2372 C2380 0.950 . S
H2373 C2385 0.950 . S
H2374 C2382 0.950 . S
H2375 C2384 0.950 . S
H2376 C2386 0.950 . S
H2377 C2388 0.950 . S
H2378 C2390 0.950 . S
H2379 C2391 0.950 . S
C2380 H2372 0.950 . S
C2380 C2381 1.386 . S
C2380 C2382 1.391 . S
C2381 C2380 1.386 . S
C2381 C2385 1.393 . S
C2382 H2374 0.950 . S
C2382 C2380 1.391 . S
C2382 C2383 1.400 . S
C2383 C2382 1.400 . S
C2383 C2384 1.398 . S
C2383 C2389 1.491 . S
C2384 H2375 0.950 . S
C2384 C2383 1.398 . S
C2384 C2385 1.391 . S
C2385 H2373 0.950 . S
C2385 C2381 1.393 . S
C2385 C2384 1.391 . S
C2386 H2376 0.950 . S
C2386 C2387 1.386 . S
C2386 C2388 1.391 . S
C2387 C2386 1.386 . S
C2387 C2391 1.393 . S
C2388 H2377 0.950 . S
C2388 C2386 1.391 . S
C2388 C2389 1.400 . S
C2389 C2383 1.491 . S
C2389 C2388 1.400 . S
C2389 C2390 1.398 . S
C2390 H2378 0.950 . S
C2390 C2389 1.398 . S
C2390 C2391 1.391 . S
C2391 H2379 0.950 . S
C2391 C2387 1.393 . S
C2391 C2390 1.391 . S
H2392 C2400 0.950 . S
H2393 C2405 0.950 . S
H2394 C2402 0.920 1_455 S
H2395 C2404 0.950 . S
H2396 C2406 0.950 . S
H2397 C2408 0.920 1_655 S
H2398 C2410 0.950 . S
H2399 C2411 0.950 . S
C2400 H2392 0.950 . S
C2400 C2401 1.386 . S
C2400 C2402 1.391 . S
C2401 C2400 1.386 . S
C2401 C2405 1.393 . S
C2402 H2394 0.920 1_655 S
C2402 C2400 1.391 . S
C2402 C2403 1.400 . S
C2403 C2402 1.400 . S
C2403 C2404 1.398 . S
C2403 C2409 1.491 1_655 S
C2404 H2395 0.950 . S
C2404 C2403 1.398 . S
C2404 C2405 1.391 . S
C2405 H2393 0.950 . S
C2405 C2401 1.393 . S
C2405 C2404 1.391 . S
C2406 H2396 0.950 . S
C2406 C2407 1.386 . S
C2406 C2408 1.391 . S
C2407 C2406 1.386 . S
C2407 C2411 1.393 . S
C2408 H2397 0.920 1_455 S
C2408 C2406 1.391 . S
C2408 C2409 1.400 . S
C2409 C2403 1.491 1_455 S
C2409 C2408 1.400 . S
C2409 C2410 1.398 . S
C2410 H2398 0.950 . S
C2410 C2409 1.398 . S
C2410 C2411 1.391 . S
C2411 H2399 0.950 . S
C2411 C2407 1.393 . S
C2411 C2410 1.391 . S
H2412 C2420 0.950 . S
H2413 C2425 0.950 . S
H2414 C2422 0.950 . S
H2415 C2424 0.918 1_455 S
H2416 C2426 0.950 . S
H2417 C2428 0.950 . S
H2418 C2430 0.918 1_655 S
H2419 C2431 0.950 . S
C2420 H2412 0.950 . S
C2420 C2421 1.386 . S
C2420 C2422 1.391 . S
C2421 C2420 1.386 . S
C2421 C2425 1.393 . S
C2422 H2414 0.950 . S
C2422 C2420 1.391 . S
C2422 C2423 1.400 . S
C2423 C2422 1.400 . S
C2423 C2424 1.409 . S
C2423 C2429 1.491 1_655 S
C2424 H2415 0.918 1_655 S
C2424 C2423 1.409 . S
C2424 C2425 1.413 . S
C2425 H2413 0.950 . S
C2425 C2421 1.393 . S
C2425 C2424 1.413 . S
C2426 H2416 0.950 . S
C2426 C2427 1.386 . S
C2426 C2428 1.391 . S
C2427 C2426 1.386 . S
C2427 C2431 1.393 . S
C2428 H2417 0.950 . S
C2428 C2426 1.391 . S
C2428 C2429 1.400 . S
C2429 C2423 1.491 1_455 S
C2429 C2428 1.400 . S
C2429 C2430 1.409 . S
C2430 H2418 0.918 1_455 S
C2430 C2429 1.409 . S
C2430 C2431 1.413 . S
C2431 H2419 0.950 . S
C2431 C2427 1.393 . S
C2431 C2430 1.413 . S
H2432 C2440 0.950 . S
H2433 C2445 0.950 . S
H2434 C2442 0.950 . S
H2435 C2444 0.950 1_545 S
H2436 C2446 0.950 . S
H2437 C2448 0.950 . S
H2438 C2450 0.950 1_565 S
H2439 C2451 0.950 . S
C2440 H2432 0.950 . S
C2440 C2441 1.386 . S
C2440 C2442 1.391 . S
C2441 C2440 1.386 . S
C2441 C2445 1.393 . S
C2442 H2434 0.950 . S
C2442 C2440 1.391 . S
C2442 C2443 1.400 . S
C2443 C2442 1.400 . S
C2443 C2444 1.398 . S
C2443 C2449 1.491 1_565 S
C2444 H2435 0.950 1_565 S
C2444 C2443 1.398 . S
C2444 C2445 1.391 . S
C2445 H2433 0.950 . S
C2445 C2441 1.393 . S
C2445 C2444 1.391 . S
C2446 H2436 0.950 . S
C2446 C2447 1.386 . S
C2446 C2448 1.391 . S
C2447 C2446 1.386 . S
C2447 C2451 1.393 . S
C2448 H2437 0.950 . S
C2448 C2446 1.391 . S
C2448 C2449 1.400 . S
C2449 C2443 1.491 1_545 S
C2449 C2448 1.400 . S
C2449 C2450 1.398 . S
C2450 H2438 0.950 1_545 S
C2450 C2449 1.398 . S
C2450 C2451 1.391 . S
C2451 H2439 0.950 . S
C2451 C2447 1.393 . S
C2451 C2450 1.391 . S
H2452 C2460 0.950 . S
H2453 C2465 0.950 . S
H2454 C2462 0.995 . S
H2455 C2464 0.950 . S
H2456 C2466 0.950 . S
H2457 C2468 0.995 . S
H2458 C2470 0.950 . S
H2459 C2471 0.950 . S
C2460 H2452 0.950 . S
C2460 C2461 1.386 . S
C2460 C2462 1.365 1_554 S
C2461 C2460 1.386 . S
C2461 C2465 1.393 . S
C2462 H2454 0.995 . S
C2462 C2460 1.365 1_556 S
C2462 C2463 1.384 1_556 S
C2463 C2462 1.384 1_554 S
C2463 C2464 1.398 . S
C2463 C2469 1.491 1_554 S
C2464 H2455 0.950 . S
C2464 C2463 1.398 . S
C2464 C2465 1.391 . S
C2465 H2453 0.950 . S
C2465 C2461 1.393 . S
C2465 C2464 1.391 . S
C2466 H2456 0.950 . S
C2466 C2467 1.386 . S
C2466 C2468 1.365 1_556 S
C2467 C2466 1.386 . S
C2467 C2471 1.393 . S
C2468 H2457 0.995 . S
C2468 C2466 1.365 1_554 S
C2468 C2469 1.384 1_554 S
C2469 C2463 1.491 1_556 S
C2469 C2468 1.384 1_556 S
C2469 C2470 1.398 . S
C2470 H2458 0.950 . S
C2470 C2469 1.398 . S
C2470 C2471 1.391 . S
C2471 H2459 0.950 . S
C2471 C2467 1.393 . S
C2471 C2470 1.391 . S
H2472 C2480 0.950 . S
H2473 C2485 0.950 . S
H2474 C2482 0.950 . S
H2475 C2484 0.950 . S
H2476 C2486 0.950 . S
H2477 C2488 0.950 . S
H2478 C2490 0.950 . S
H2479 C2491 0.950 . S
C2480 H2472 0.950 . S
C2480 C2481 1.386 . S
C2480 C2482 1.391 . S
C2481 C2480 1.386 . S
C2481 C2485 1.393 . S
C2482 H2474 0.950 . S
C2482 C2480 1.391 . S
C2482 C2483 1.400 . S
C2483 C2482 1.400 . S
C2483 C2484 1.398 . S
C2483 C2489 1.491 . S
C2484 H2475 0.950 . S
C2484 C2483 1.398 . S
C2484 C2485 1.391 . S
C2485 H2473 0.950 . S
C2485 C2481 1.393 . S
C2485 C2484 1.391 . S
C2486 H2476 0.950 . S
C2486 C2487 1.386 . S
C2486 C2488 1.391 . S
C2487 C2486 1.386 . S
C2487 C2491 1.393 . S
C2488 H2477 0.950 . S
C2488 C2486 1.391 . S
C2488 C2489 1.400 . S
C2489 C2483 1.491 . S
C2489 C2488 1.400 . S
C2489 C2490 1.398 . S
C2490 H2478 0.950 . S
C2490 C2489 1.398 . S
C2490 C2491 1.391 . S
C2491 H2479 0.950 . S
C2491 C2487 1.393 . S
C2491 C2490 1.391 . S
H2492 C2500 0.950 . S
H2493 C2505 0.950 . S
H2494 C2502 0.950 1_554 S
H2495 C2504 0.950 . S
H2496 C2506 0.950 . S
H2497 C2508 0.950 1_556 S
H2498 C2510 0.950 . S
H2499 C2511 0.950 . S
C2500 H2492 0.950 . S
C2500 C2501 1.386 . S
C2500 C2502 1.391 . S
C2501 C2500 1.386 . S
C2501 C2505 1.393 . S
C2502 H2494 0.950 1_556 S
C2502 C2500 1.391 . S
C2502 C2503 1.400 . S
C2503 C2502 1.400 . S
C2503 C2504 1.398 . S
C2503 C2509 1.491 1_556 S
C2504 H2495 0.950 . S
C2504 C2503 1.398 . S
C2504 C2505 1.391 . S
C2505 H2493 0.950 . S
C2505 C2501 1.393 . S
C2505 C2504 1.391 . S
C2506 H2496 0.950 . S
C2506 C2507 1.386 . S
C2506 C2508 1.391 . S
C2507 C2506 1.386 . S
C2507 C2511 1.393 . S
C2508 H2497 0.950 1_554 S
C2508 C2506 1.391 . S
C2508 C2509 1.400 . S
C2509 C2503 1.491 1_554 S
C2509 C2508 1.400 . S
C2509 C2510 1.398 . S
C2510 H2498 0.950 . S
C2510 C2509 1.398 . S
C2510 C2511 1.391 . S
C2511 H2499 0.950 . S
C2511 C2507 1.393 . S
C2511 C2510 1.391 . S
H2512 C2520 0.950 . S
H2513 C2525 0.950 . S
H2514 C2522 0.950 . S
H2515 C2524 0.950 . S
H2516 C2526 0.950 . S
H2517 C2528 0.950 . S
H2518 C2530 0.950 . S
H2519 C2531 0.950 . S
C2520 H2512 0.950 . S
C2520 C2521 1.386 . S
C2520 C2522 1.391 . S
C2521 C2520 1.386 . S
C2521 C2525 1.393 . S
C2522 H2514 0.950 . S
C2522 C2520 1.391 . S
C2522 C2523 1.400 . S
C2523 C2522 1.400 . S
C2523 C2524 1.398 . S
C2523 C2529 1.491 1_554 S
C2524 H2515 0.950 . S
C2524 C2523 1.398 . S
C2524 C2525 1.391 . S
C2525 H2513 0.950 . S
C2525 C2521 1.393 . S
C2525 C2524 1.391 . S
C2526 H2516 0.950 . S
C2526 C2527 1.386 . S
C2526 C2528 1.391 . S
C2527 C2526 1.386 . S
C2527 C2531 1.393 . S
C2528 H2517 0.950 . S
C2528 C2526 1.391 . S
C2528 C2529 1.400 . S
C2529 C2523 1.491 1_556 S
C2529 C2528 1.400 . S
C2529 C2530 1.398 . S
C2530 H2518 0.950 . S
C2530 C2529 1.398 . S
C2530 C2531 1.391 . S
C2531 H2519 0.950 . S
C2531 C2527 1.393 . S
C2531 C2530 1.391 . S
H2532 C2540 0.950 . S
H2533 C2545 0.950 . S
H2534 C2542 0.950 . S
H2535 C2544 0.950 . S
H2536 C2546 0.950 . S
H2537 C2548 0.950 . S
H2538 C2550 0.950 . S
H2539 C2551 0.950 . S
C2540 H2532 0.950 . S
C2540 C2541 1.386 . S
C2540 C2542 1.391 . S
C2541 C2540 1.386 . S
C2541 C2545 1.393 . S
C2542 H2534 0.950 . S
C2542 C2540 1.391 . S
C2542 C2543 1.400 . S
C2543 C2542 1.400 . S
C2543 C2544 1.398 . S
C2543 C2549 1.491 . S
C2544 H2535 0.950 . S
C2544 C2543 1.398 . S
C2544 C2545 1.391 . S
C2545 H2533 0.950 . S
C2545 C2541 1.393 . S
C2545 C2544 1.391 . S
C2546 H2536 0.950 . S
C2546 C2547 1.386 . S
C2546 C2548 1.391 . S
C2547 C2546 1.386 . S
C2547 C2551 1.393 . S
C2548 H2537 0.950 . S
C2548 C2546 1.391 . S
C2548 C2549 1.400 . S
C2549 C2543 1.491 . S
C2549 C2548 1.400 . S
C2549 C2550 1.398 . S
C2550 H2538 0.950 . S
C2550 C2549 1.398 . S
C2550 C2551 1.391 . S
C2551 H2539 0.950 . S
C2551 C2547 1.393 . S
C2551 C2550 1.391 . S
H2552 C2560 0.950 . S
H2553 C2565 0.950 . S
H2554 C2562 0.950 . S
H2555 C2564 0.950 . S
H2556 C2566 0.950 . S
H2557 C2568 0.950 . S
H2558 C2570 0.950 . S
H2559 C2571 0.950 . S
C2560 H2552 0.950 . S
C2560 C2561 1.386 . S
C2560 C2562 1.391 . S
C2561 C2560 1.386 . S
C2561 C2565 1.393 . S
C2562 H2554 0.950 . S
C2562 C2560 1.391 . S
C2562 C2563 1.400 . S
C2563 C2562 1.400 . S
C2563 C2564 1.398 . S
C2563 C2569 1.491 . S
C2564 H2555 0.950 . S
C2564 C2563 1.398 . S
C2564 C2565 1.391 . S
C2565 H2553 0.950 . S
C2565 C2561 1.393 . S
C2565 C2564 1.391 . S
C2566 H2556 0.950 . S
C2566 C2567 1.386 . S
C2566 C2568 1.391 . S
C2567 C2566 1.386 . S
C2567 C2571 1.393 . S
C2568 H2557 0.950 . S
C2568 C2566 1.391 . S
C2568 C2569 1.400 . S
C2569 C2563 1.491 . S
C2569 C2568 1.400 . S
C2569 C2570 1.398 . S
C2570 H2558 0.950 . S
C2570 C2569 1.398 . S
C2570 C2571 1.391 . S
C2571 H2559 0.950 . S
C2571 C2567 1.393 . S
C2571 C2570 1.391 . S
H2572 C2580 0.950 . S
H2573 C2585 0.950 . S
H2574 C2582 0.950 . S
H2575 C2584 0.950 . S
H2576 C2586 0.950 . S
H2577 C2588 0.950 . S
H2578 C2590 0.950 . S
H2579 C2591 0.950 . S
C2580 H2572 0.950 . S
C2580 C2581 1.386 . S
C2580 C2582 1.391 . S
C2581 C2580 1.386 . S
C2581 C2585 1.393 . S
C2582 H2574 0.950 . S
C2582 C2580 1.391 . S
C2582 C2583 1.400 . S
C2583 C2582 1.400 . S
C2583 C2584 1.398 . S
C2583 C2589 1.491 . S
C2584 H2575 0.950 . S
C2584 C2583 1.398 . S
C2584 C2585 1.391 . S
C2585 H2573 0.950 . S
C2585 C2581 1.393 . S
C2585 C2584 1.391 . S
C2586 H2576 0.950 . S
C2586 C2587 1.386 . S
C2586 C2588 1.391 . S
C2587 C2586 1.386 . S
C2587 C2591 1.393 . S
C2588 H2577 0.950 . S
C2588 C2586 1.391 . S
C2588 C2589 1.400 . S
C2589 C2583 1.491 . S
C2589 C2588 1.400 . S
C2589 C2590 1.398 . S
C2590 H2578 0.950 . S
C2590 C2589 1.398 . S
C2590 C2591 1.391 . S
C2591 H2579 0.950 . S
C2591 C2587 1.393 . S
C2591 C2590 1.391 . S
H2592 C2600 0.950 . S
H2593 C2605 0.950 . S
H2594 C2602 0.950 . S
H2595 C2604 0.950 . S
H2596 C2606 0.950 . S
H2597 C2608 0.950 . S
H2598 C2610 0.950 . S
H2599 C2611 0.950 . S
C2600 H2592 0.950 . S
C2600 C2601 1.386 . S
C2600 C2602 1.391 . S
C2601 C2600 1.386 . S
C2601 C2605 1.393 . S
C2602 H2594 0.950 . S
C2602 C2600 1.391 . S
C2602 C2603 1.400 . S
C2603 C2602 1.400 . S
C2603 C2604 1.398 . S
C2603 C2609 1.491 . S
C2604 H2595 0.950 . S
C2604 C2603 1.398 . S
C2604 C2605 1.391 . S
C2605 H2593 0.950 . S
C2605 C2601 1.393 . S
C2605 C2604 1.391 . S
C2606 H2596 0.950 . S
C2606 C2607 1.386 . S
C2606 C2608 1.391 . S
C2607 C2606 1.386 . S
C2607 C2611 1.393 . S
C2608 H2597 0.950 . S
C2608 C2606 1.391 . S
C2608 C2609 1.400 . S
C2609 C2603 1.491 . S
C2609 C2608 1.400 . S
C2609 C2610 1.398 . S
C2610 H2598 0.950 . S
C2610 C2609 1.398 . S
C2610 C2611 1.391 . S
C2611 H2599 0.950 . S
C2611 C2607 1.393 . S
C2611 C2610 1.391 . S
H2612 C2620 0.950 . S
H2613 C2625 0.950 . S
H2614 C2622 0.955 . S
H2615 C2624 0.950 . S
H2616 C2626 0.950 . S
H2617 C2628 0.955 . S
H2618 C2630 0.950 . S
H2619 C2631 0.950 . S
C2620 H2612 0.950 . S
C2620 C2621 1.386 . S
C2620 C2622 1.391 . S
C2621 C2620 1.386 . S
C2621 C2625 1.393 . S
C2622 H2614 0.955 . S
C2622 C2620 1.391 . S
C2622 C2623 1.400 . S
C2623 C2622 1.400 . S
C2623 C2624 1.398 . S
C2623 C2629 1.491 1_565 S
C2624 H2615 0.950 . S
C2624 C2623 1.398 . S
C2624 C2625 1.391 . S
C2625 H2613 0.950 . S
C2625 C2621 1.393 . S
C2625 C2624 1.391 . S
C2626 H2616 0.950 . S
C2626 C2627 1.386 . S
C2626 C2628 1.391 . S
C2627 C2626 1.386 . S
C2627 C2631 1.393 . S
C2628 H2617 0.955 . S
C2628 C2626 1.391 . S
C2628 C2629 1.400 . S
C2629 C2623 1.491 1_545 S
C2629 C2628 1.400 . S
C2629 C2630 1.398 . S
C2630 H2618 0.950 . S
C2630 C2629 1.398 . S
C2630 C2631 1.391 . S
C2631 H2619 0.950 . S
C2631 C2627 1.393 . S
C2631 C2630 1.391 . S
H2632 C2640 0.950 . S
H2633 C2645 0.950 . S
H2634 C2642 0.950 . S
H2635 C2644 0.950 . S
H2636 C2646 0.950 . S
H2637 C2648 0.950 . S
H2638 C2650 0.950 . S
H2639 C2651 0.950 . S
C2640 H2632 0.950 . S
C2640 C2641 1.386 . S
C2640 C2642 1.391 . S
C2641 C2640 1.386 . S
C2641 C2645 1.393 . S
C2642 H2634 0.950 . S
C2642 C2640 1.391 . S
C2642 C2643 1.400 . S
C2643 C2642 1.400 . S
C2643 C2644 1.398 . S
C2643 C2649 1.491 . S
C2644 H2635 0.950 . S
C2644 C2643 1.398 . S
C2644 C2645 1.391 . S
C2645 H2633 0.950 . S
C2645 C2641 1.393 . S
C2645 C2644 1.391 . S
C2646 H2636 0.950 . S
C2646 C2647 1.386 . S
C2646 C2648 1.391 . S
C2647 C2646 1.386 . S
C2647 C2651 1.393 . S
C2648 H2637 0.950 . S
C2648 C2646 1.391 . S
C2648 C2649 1.400 . S
C2649 C2643 1.491 . S
C2649 C2648 1.400 . S
C2649 C2650 1.398 . S
C2650 H2638 0.950 . S
C2650 C2649 1.398 . S
C2650 C2651 1.391 . S
C2651 H2639 0.950 . S
C2651 C2647 1.393 . S
C2651 C2650 1.391 . S
H2652 C2660 0.950 . S
H2653 C2665 0.950 . S
H2654 C2662 0.950 . S
H2655 C2664 0.935 1_655 S
H2656 C2666 0.950 . S
H2657 C2668 0.950 . S
H2658 C2670 0.935 1_455 S
H2659 C2671 0.950 . S
C2660 H2652 0.950 . S
C2660 C2661 1.386 . S
C2660 C2662 1.391 . S
C2661 C2660 1.386 . S
C2661 C2665 1.393 . S
C2662 H2654 0.950 . S
C2662 C2660 1.391 . S
C2662 C2663 1.400 . S
C2663 C2662 1.400 . S
C2663 C2664 1.398 . S
C2663 C2669 1.491 1_455 S
C2664 H2655 0.935 1_455 S
C2664 C2663 1.398 . S
C2664 C2665 1.391 . S
C2665 H2653 0.950 . S
C2665 C2661 1.393 . S
C2665 C2664 1.391 . S
C2666 H2656 0.950 . S
C2666 C2667 1.386 . S
C2666 C2668 1.391 . S
C2667 C2666 1.386 . S
C2667 C2671 1.393 . S
C2668 H2657 0.950 . S
C2668 C2666 1.391 . S
C2668 C2669 1.400 . S
C2669 C2663 1.491 1_655 S
C2669 C2668 1.400 . S
C2669 C2670 1.398 . S
C2670 H2658 0.935 1_655 S
C2670 C2669 1.398 . S
C2670 C2671 1.391 . S
C2671 H2659 0.950 . S
C2671 C2667 1.393 . S
C2671 C2670 1.391 . S
H2672 C2680 0.950 . S
H2673 C2685 0.950 . S
H2674 C2682 0.950 . S
H2675 C2684 0.950 . S
H2676 C2686 0.950 . S
H2677 C2688 0.950 . S
H2678 C2690 0.950 . S
H2679 C2691 0.950 . S
C2680 H2672 0.950 . S
C2680 C2681 1.386 . S
C2680 C2682 1.391 . S
C2681 C2680 1.386 . S
C2681 C2685 1.393 . S
C2682 H2674 0.950 . S
C2682 C2680 1.391 . S
C2682 C2683 1.400 . S
C2683 C2682 1.400 . S
C2683 C2684 1.398 . S
C2683 C2689 1.491 . S
C2684 H2675 0.950 . S
C2684 C2683 1.398 . S
C2684 C2685 1.391 . S
C2685 H2673 0.950 . S
C2685 C2681 1.393 . S
C2685 C2684 1.391 . S
C2686 H2676 0.950 . S
C2686 C2687 1.386 . S
C2686 C2688 1.391 . S
C2687 C2686 1.386 . S
C2687 C2691 1.393 . S
C2688 H2677 0.950 . S
C2688 C2686 1.391 . S
C2688 C2689 1.400 . S
C2689 C2683 1.491 . S
C2689 C2688 1.400 . S
C2689 C2690 1.398 . S
C2690 H2678 0.950 . S
C2690 C2689 1.398 . S
C2690 C2691 1.391 . S
C2691 H2679 0.950 . S
C2691 C2687 1.393 . S
C2691 C2690 1.391 . S
H2692 C2700 0.950 . S
H2693 C2705 0.950 . S
H2694 C2702 0.950 . S
H2695 C2704 0.950 . S
H2696 C2706 0.950 . S
H2697 C2708 0.950 . S
H2698 C2710 0.950 . S
H2699 C2711 0.950 . S
C2700 H2692 0.950 . S
C2700 C2701 1.386 . S
C2700 C2702 1.391 . S
C2701 C2700 1.386 . S
C2701 C2705 1.393 . S
C2702 H2694 0.950 . S
C2702 C2700 1.391 . S
C2702 C2703 1.400 . S
C2703 C2702 1.400 . S
C2703 C2704 1.398 . S
C2703 C2709 1.491 . S
C2704 H2695 0.950 . S
C2704 C2703 1.398 . S
C2704 C2705 1.391 . S
C2705 H2693 0.950 . S
C2705 C2701 1.393 . S
C2705 C2704 1.391 . S
C2706 H2696 0.950 . S
C2706 C2707 1.386 . S
C2706 C2708 1.391 . S
C2707 C2706 1.386 . S
C2707 C2711 1.393 . S
C2708 H2697 0.950 . S
C2708 C2706 1.391 . S
C2708 C2709 1.400 . S
C2709 C2703 1.491 . S
C2709 C2708 1.400 . S
C2709 C2710 1.398 . S
C2710 H2698 0.950 . S
C2710 C2709 1.398 . S
C2710 C2711 1.391 . S
C2711 H2699 0.950 . S
C2711 C2707 1.393 . S
C2711 C2710 1.391 . S
H2712 C2720 0.950 . S
H2713 C2725 0.950 . S
H2714 C2722 0.950 . S
H2715 C2724 0.950 . S
H2716 C2726 0.950 . S
H2717 C2728 0.950 . S
H2718 C2730 0.950 . S
H2719 C2731 0.950 . S
C2720 H2712 0.950 . S
C2720 C2721 1.386 . S
C2720 C2722 1.391 . S
C2721 C2720 1.386 . S
C2721 C2725 1.393 . S
C2722 H2714 0.950 . S
C2722 C2720 1.391 . S
C2722 C2723 1.400 . S
C2723 C2722 1.400 . S
C2723 C2724 1.398 . S
C2723 C2729 1.491 . S
C2724 H2715 0.950 . S
C2724 C2723 1.398 . S
C2724 C2725 1.391 . S
C2725 H2713 0.950 . S
C2725 C2721 1.393 . S
C2725 C2724 1.391 . S
C2726 H2716 0.950 . S
C2726 C2727 1.386 . S
C2726 C2728 1.391 . S
C2727 C2726 1.386 . S
C2727 C2731 1.393 . S
C2728 H2717 0.950 . S
C2728 C2726 1.391 . S
C2728 C2729 1.400 . S
C2729 C2723 1.491 . S
C2729 C2728 1.400 . S
C2729 C2730 1.398 . S
C2730 H2718 0.950 . S
C2730 C2729 1.398 . S
C2730 C2731 1.391 . S
C2731 H2719 0.950 . S
C2731 C2727 1.393 . S
C2731 C2730 1.391 . S
H2732 C2740 0.950 . S
H2733 C2745 0.950 . S
H2734 C2742 0.950 . S
H2735 C2744 0.950 . S
H2736 C2746 0.950 . S
H2737 C2748 0.950 . S
H2738 C2750 0.950 . S
H2739 C2751 0.950 . S
C2740 H2732 0.950 . S
C2740 C2741 1.386 . S
C2740 C2742 1.391 . S
C2741 C2740 1.386 . S
C2741 C2745 1.393 . S
C2742 H2734 0.950 . S
C2742 C2740 1.391 . S
C2742 C2743 1.400 . S
C2743 C2742 1.400 . S
C2743 C2744 1.398 . S
C2743 C2749 1.491 . S
C2744 H2735 0.950 . S
C2744 C2743 1.398 . S
C2744 C2745 1.391 . S
C2745 H2733 0.950 . S
C2745 C2741 1.393 . S
C2745 C2744 1.391 . S
C2746 H2736 0.950 . S
C2746 C2747 1.386 . S
C2746 C2748 1.391 . S
C2747 C2746 1.386 . S
C2747 C2751 1.393 . S
C2748 H2737 0.950 . S
C2748 C2746 1.391 . S
C2748 C2749 1.400 . S
C2749 C2743 1.491 . S
C2749 C2748 1.400 . S
C2749 C2750 1.398 . S
C2750 H2738 0.950 . S
C2750 C2749 1.398 . S
C2750 C2751 1.391 . S
C2751 H2739 0.950 . S
C2751 C2747 1.393 . S
C2751 C2750 1.391 . S
H2752 C2760 0.950 . S
H2753 C2765 0.950 . S
H2754 C2762 0.950 . S
H2755 C2764 0.950 . S
H2756 C2766 0.950 . S
H2757 C2768 0.950 . S
H2758 C2770 0.950 . S
H2759 C2771 0.950 . S
C2760 H2752 0.950 . S
C2760 C2761 1.386 . S
C2760 C2762 1.391 . S
C2761 C2760 1.386 . S
C2761 C2765 1.393 . S
C2762 H2754 0.950 . S
C2762 C2760 1.391 . S
C2762 C2763 1.400 . S
C2763 C2762 1.400 . S
C2763 C2764 1.398 . S
C2763 C2769 1.491 1_565 S
C2764 H2755 0.950 . S
C2764 C2763 1.398 . S
C2764 C2765 1.391 . S
C2765 H2753 0.950 . S
C2765 C2761 1.393 . S
C2765 C2764 1.391 . S
C2766 H2756 0.950 . S
C2766 C2767 1.386 . S
C2766 C2768 1.391 . S
C2767 C2766 1.386 . S
C2767 C2771 1.393 . S
C2768 H2757 0.950 . S
C2768 C2766 1.391 . S
C2768 C2769 1.400 . S
C2769 C2763 1.491 1_545 S
C2769 C2768 1.400 . S
C2769 C2770 1.398 . S
C2770 H2758 0.950 . S
C2770 C2769 1.398 . S
C2770 C2771 1.391 . S
C2771 H2759 0.950 . S
C2771 C2767 1.393 . S
C2771 C2770 1.391 . S
H2772 C2780 0.950 . S
H2773 C2785 0.950 . S
H2774 C2782 0.950 . S
H2775 C2784 0.950 . S
H2776 C2786 0.950 . S
H2777 C2788 0.950 . S
H2778 C2790 0.950 . S
H2779 C2791 0.950 . S
C2780 H2772 0.950 . S
C2780 C2781 1.386 . S
C2780 C2782 1.391 . S
C2781 C2780 1.386 . S
C2781 C2785 1.393 . S
C2782 H2774 0.950 . S
C2782 C2780 1.391 . S
C2782 C2783 1.400 . S
C2783 C2782 1.400 . S
C2783 C2784 1.398 . S
C2783 C2789 1.491 . S
C2784 H2775 0.950 . S
C2784 C2783 1.398 . S
C2784 C2785 1.391 . S
C2785 H2773 0.950 . S
C2785 C2781 1.393 . S
C2785 C2784 1.391 . S
C2786 H2776 0.950 . S
C2786 C2787 1.386 . S
C2786 C2788 1.391 . S
C2787 C2786 1.386 . S
C2787 C2791 1.393 . S
C2788 H2777 0.950 . S
C2788 C2786 1.391 . S
C2788 C2789 1.400 . S
C2789 C2783 1.491 . S
C2789 C2788 1.400 . S
C2789 C2790 1.398 . S
C2790 H2778 0.950 . S
C2790 C2789 1.398 . S
C2790 C2791 1.391 . S
C2791 H2779 0.950 . S
C2791 C2787 1.393 . S
C2791 C2790 1.391 . S
H2792 C2800 0.950 . S
H2793 C2805 0.950 . S
H2794 C2802 0.950 1_554 S
H2795 C2804 0.950 . S
H2796 C2806 0.950 . S
H2797 C2808 0.950 1_556 S
H2798 C2810 0.950 . S
H2799 C2811 0.950 . S
C2800 H2792 0.950 . S
C2800 C2801 1.386 . S
C2800 C2802 1.391 . S
C2801 C2800 1.386 . S
C2801 C2805 1.393 . S
C2802 H2794 0.950 1_556 S
C2802 C2800 1.391 . S
C2802 C2803 1.400 . S
C2803 C2802 1.400 . S
C2803 C2804 1.398 . S
C2803 C2809 1.491 1_556 S
C2804 H2795 0.950 . S
C2804 C2803 1.398 . S
C2804 C2805 1.391 . S
C2805 H2793 0.950 . S
C2805 C2801 1.393 . S
C2805 C2804 1.391 . S
C2806 H2796 0.950 . S
C2806 C2807 1.386 . S
C2806 C2808 1.391 . S
C2807 C2806 1.386 . S
C2807 C2811 1.393 . S
C2808 H2797 0.950 1_554 S
C2808 C2806 1.391 . S
C2808 C2809 1.400 . S
C2809 C2803 1.491 1_554 S
C2809 C2808 1.400 . S
C2809 C2810 1.398 . S
C2810 H2798 0.950 . S
C2810 C2809 1.398 . S
C2810 C2811 1.391 . S
C2811 H2799 0.950 . S
C2811 C2807 1.393 . S
C2811 C2810 1.391 . S
H2812 C2820 0.950 . S
H2813 C2825 0.950 . S
H2814 C2822 0.984 . S
H2815 C2824 0.950 . S
H2816 C2826 0.950 . S
H2817 C2828 0.984 . S
H2818 C2830 0.950 . S
H2819 C2831 0.950 . S
C2820 H2812 0.950 . S
C2820 C2821 1.386 . S
C2820 C2822 1.370 1_565 S
C2821 C2820 1.386 . S
C2821 C2825 1.393 . S
C2822 H2814 0.984 . S
C2822 C2820 1.370 1_545 S
C2822 C2823 1.388 1_545 S
C2823 C2822 1.388 1_565 S
C2823 C2824 1.398 . S
C2823 C2829 1.491 1_565 S
C2824 H2815 0.950 . S
C2824 C2823 1.398 . S
C2824 C2825 1.391 . S
C2825 H2813 0.950 . S
C2825 C2821 1.393 . S
C2825 C2824 1.391 . S
C2826 H2816 0.950 . S
C2826 C2827 1.386 . S
C2826 C2828 1.371 1_545 S
C2827 C2826 1.386 . S
C2827 C2831 1.393 . S
C2828 H2817 0.984 . S
C2828 C2826 1.371 1_565 S
C2828 C2829 1.388 1_565 S
C2829 C2823 1.491 1_545 S
C2829 C2828 1.388 1_545 S
C2829 C2830 1.398 . S
C2830 H2818 0.950 . S
C2830 C2829 1.398 . S
C2830 C2831 1.391 . S
C2831 H2819 0.950 . S
C2831 C2827 1.393 . S
C2831 C2830 1.391 . S
H2832 C2840 0.950 . S
H2833 C2845 0.950 . S
H2834 C2842 0.950 . S
H2835 C2844 0.950 . S
H2836 C2846 0.950 . S
H2837 C2848 0.950 . S
H2838 C2850 0.950 . S
H2839 C2851 0.950 . S
C2840 H2832 0.950 . S
C2840 C2841 1.386 . S
C2840 C2842 1.391 . S
C2841 C2840 1.386 . S
C2841 C2845 1.393 . S
C2842 H2834 0.950 . S
C2842 C2840 1.391 . S
C2842 C2843 1.400 . S
C2843 C2842 1.400 . S
C2843 C2844 1.398 . S
C2843 C2849 1.491 . S
C2844 H2835 0.950 . S
C2844 C2843 1.398 . S
C2844 C2845 1.391 . S
C2845 H2833 0.950 . S
C2845 C2841 1.393 . S
C2845 C2844 1.391 . S
C2846 H2836 0.950 . S
C2846 C2847 1.386 . S
C2846 C2848 1.391 . S
C2847 C2846 1.386 . S
C2847 C2851 1.393 . S
C2848 H2837 0.950 . S
C2848 C2846 1.391 . S
C2848 C2849 1.400 . S
C2849 C2843 1.491 . S
C2849 C2848 1.400 . S
C2849 C2850 1.398 . S
C2850 H2838 0.950 . S
C2850 C2849 1.398 . S
C2850 C2851 1.391 . S
C2851 H2839 0.950 . S
C2851 C2847 1.393 . S
C2851 C2850 1.391 . S
H2852 C2860 0.950 . S
H2853 C2865 0.950 . S
H2854 C2862 0.950 . S
H2855 C2864 0.950 . S
H2856 C2866 0.950 . S
H2857 C2868 0.950 . S
H2858 C2870 0.950 . S
H2859 C2871 0.950 . S
C2860 H2852 0.950 . S
C2860 C2861 1.386 . S
C2860 C2862 1.391 . S
C2861 C2860 1.386 . S
C2861 C2865 1.393 . S
C2862 H2854 0.950 . S
C2862 C2860 1.391 . S
C2862 C2863 1.400 . S
C2863 C2862 1.400 . S
C2863 C2864 1.398 . S
C2863 C2869 1.491 . S
C2864 H2855 0.950 . S
C2864 C2863 1.398 . S
C2864 C2865 1.391 . S
C2865 H2853 0.950 . S
C2865 C2861 1.393 . S
C2865 C2864 1.391 . S
C2866 H2856 0.950 . S
C2866 C2867 1.386 . S
C2866 C2868 1.391 . S
C2867 C2866 1.386 . S
C2867 C2871 1.393 . S
C2868 H2857 0.950 . S
C2868 C2866 1.391 . S
C2868 C2869 1.400 . S
C2869 C2863 1.491 . S
C2869 C2868 1.400 . S
C2869 C2870 1.398 . S
C2870 H2858 0.950 . S
C2870 C2869 1.398 . S
C2870 C2871 1.391 . S
C2871 H2859 0.950 . S
C2871 C2867 1.393 . S
C2871 C2870 1.391 . S
H2872 C2880 0.950 . S
H2873 C2885 0.950 . S
H2874 C2882 0.950 . S
H2875 C2884 0.950 . S
H2876 C2886 0.950 . S
H2877 C2888 0.950 . S
H2878 C2890 0.950 . S
H2879 C2891 0.950 . S
C2880 H2872 0.950 . S
C2880 C2881 1.386 . S
C2880 C2882 1.391 . S
C2881 C2880 1.386 . S
C2881 C2885 1.393 . S
C2882 H2874 0.950 . S
C2882 C2880 1.391 . S
C2882 C2883 1.400 . S
C2883 C2882 1.400 . S
C2883 C2884 1.398 . S
C2883 C2889 1.491 . S
C2884 H2875 0.950 . S
C2884 C2883 1.398 . S
C2884 C2885 1.391 . S
C2885 H2873 0.950 . S
C2885 C2881 1.393 . S
C2885 C2884 1.391 . S
C2886 H2876 0.950 . S
C2886 C2887 1.386 . S
C2886 C2888 1.391 . S
C2887 C2886 1.386 . S
C2887 C2891 1.393 . S
C2888 H2877 0.950 . S
C2888 C2886 1.391 . S
C2888 C2889 1.400 . S
C2889 C2883 1.491 . S
C2889 C2888 1.400 . S
C2889 C2890 1.398 . S
C2890 H2878 0.950 . S
C2890 C2889 1.398 . S
C2890 C2891 1.391 . S
C2891 H2879 0.950 . S
C2891 C2887 1.393 . S
C2891 C2890 1.391 . S
H2892 C2900 0.950 . S
H2893 C2905 0.950 . S
H2894 C2902 0.950 . S
H2895 C2904 0.950 . S
H2896 C2906 0.950 . S
H2897 C2908 0.950 . S
H2898 C2910 0.950 . S
H2899 C2911 0.950 . S
C2900 H2892 0.950 . S
C2900 C2901 1.386 . S
C2900 C2902 1.391 . S
C2901 C2900 1.386 . S
C2901 C2905 1.393 . S
C2902 H2894 0.950 . S
C2902 C2900 1.391 . S
C2902 C2903 1.400 . S
C2903 C2902 1.400 . S
C2903 C2904 1.398 . S
C2903 C2909 1.491 . S
C2904 H2895 0.950 . S
C2904 C2903 1.398 . S
C2904 C2905 1.391 . S
C2905 H2893 0.950 . S
C2905 C2901 1.393 . S
C2905 C2904 1.391 . S
C2906 H2896 0.950 . S
C2906 C2907 1.386 . S
C2906 C2908 1.391 1_545 S
C2907 C2906 1.386 . S
C2907 C2911 1.393 1_545 S
C2908 H2897 0.950 . S
C2908 C2906 1.391 1_565 S
C2908 C2909 1.400 . S
C2909 C2903 1.491 . S
C2909 C2908 1.400 . S
C2909 C2910 1.398 . S
C2910 H2898 0.950 . S
C2910 C2909 1.398 . S
C2910 C2911 1.391 . S
C2911 H2899 0.950 . S
C2911 C2907 1.393 1_565 S
C2911 C2910 1.391 . S
H2912 C2920 0.950 . S
H2913 C2925 0.950 . S
H2914 C2922 0.950 . S
H2915 C2924 0.950 . S
H2916 C2926 0.950 . S
H2917 C2928 0.950 . S
H2918 C2930 0.950 . S
H2919 C2931 0.950 . S
C2920 H2912 0.950 . S
C2920 C2921 1.386 . S
C2920 C2922 1.391 . S
C2921 C2920 1.386 . S
C2921 C2925 1.393 . S
C2922 H2914 0.950 . S
C2922 C2920 1.391 . S
C2922 C2923 1.400 . S
C2923 C2922 1.400 . S
C2923 C2924 1.398 . S
C2923 C2929 1.491 . S
C2924 H2915 0.950 . S
C2924 C2923 1.398 . S
C2924 C2925 1.391 . S
C2925 H2913 0.950 . S
C2925 C2921 1.393 . S
C2925 C2924 1.391 . S
C2926 H2916 0.950 . S
C2926 C2927 1.386 . S
C2926 C2928 1.391 . S
C2927 C2926 1.386 . S
C2927 C2931 1.393 . S
C2928 H2917 0.950 . S
C2928 C2926 1.391 . S
C2928 C2929 1.400 . S
C2929 C2923 1.491 . S
C2929 C2928 1.400 . S
C2929 C2930 1.398 . S
C2930 H2918 0.950 . S
C2930 C2929 1.398 . S
C2930 C2931 1.391 . S
C2931 H2919 0.950 . S
C2931 C2927 1.393 . S
C2931 C2930 1.391 . S
H2932 C2940 0.950 . S
H2933 C2945 0.950 . S
H2934 C2942 0.950 . S
H2935 C2944 0.905 1_655 S
H2936 C2946 0.950 . S
H2937 C2948 0.950 . S
H2938 C2950 0.950 . S
H2939 C2951 0.950 . S
C2940 H2932 0.950 . S
C2940 C2941 1.386 . S
C2940 C2942 1.391 . S
C2941 C2940 1.386 . S
C2941 C2945 1.393 . S
C2942 H2934 0.950 . S
C2942 C2940 1.391 . S
C2942 C2943 1.400 . S
C2943 C2942 1.400 . S
C2943 C2944 1.398 . S
C2943 C2949 1.524 . S
C2944 H2935 0.905 1_455 S
C2944 C2943 1.398 . S
C2944 C2945 1.391 . S
C2945 H2933 0.950 . S
C2945 C2941 1.393 . S
C2945 C2944 1.391 . S
C2946 H2936 0.950 . S
C2946 C2947 1.386 . S
C2946 C2948 1.391 . S
C2947 C2946 1.386 . S
C2947 C2951 1.393 . S
C2948 H2937 0.950 . S
C2948 C2946 1.391 . S
C2948 C2949 1.356 1_655 S
C2949 C2943 1.524 . S
C2949 C2948 1.356 1_455 S
C2949 C2950 1.408 . S
C2950 H2938 0.950 . S
C2950 C2949 1.408 . S
C2950 C2951 1.391 1_455 S
C2951 H2939 0.950 . S
C2951 C2947 1.393 . S
C2951 C2950 1.391 1_655 S
H2952 C2960 0.950 . S
H2953 C2965 0.950 . S
H2954 C2962 0.950 . S
H2955 C2964 0.950 . S
H2956 C2966 0.950 . S
H2957 C2968 0.950 . S
H2958 C2970 0.950 . S
H2959 C2971 0.950 . S
C2960 H2952 0.950 . S
C2960 C2961 1.386 . S
C2960 C2962 1.391 . S
C2961 C2960 1.386 . S
C2961 C2965 1.393 . S
C2962 H2954 0.950 . S
C2962 C2960 1.391 . S
C2962 C2963 1.400 . S
C2963 C2962 1.400 . S
C2963 C2964 1.398 . S
C2963 C2969 1.491 . S
C2964 H2955 0.950 . S
C2964 C2963 1.398 . S
C2964 C2965 1.391 . S
C2965 H2953 0.950 . S
C2965 C2961 1.393 . S
C2965 C2964 1.391 . S
C2966 H2956 0.950 . S
C2966 C2967 1.386 . S
C2966 C2968 1.391 . S
C2967 C2966 1.386 . S
C2967 C2971 1.393 . S
C2968 H2957 0.950 . S
C2968 C2966 1.391 . S
C2968 C2969 1.400 . S
C2969 C2963 1.491 . S
C2969 C2968 1.400 . S
C2969 C2970 1.398 . S
C2970 H2958 0.950 . S
C2970 C2969 1.398 . S
C2970 C2971 1.391 . S
C2971 H2959 0.950 . S
C2971 C2967 1.393 . S
C2971 C2970 1.391 . S
H2972 C2980 0.950 . S
H2973 C2985 0.950 . S
H2974 C2982 0.950 . S
H2975 C2984 0.950 . S
H2976 C2986 0.950 . S
H2977 C2988 0.950 . S
H2978 C2990 0.950 . S
H2979 C2991 0.950 . S
C2980 H2972 0.950 . S
C2980 C2981 1.386 1_565 S
C2980 C2982 1.391 . S
C2981 C2980 1.386 1_545 S
C2981 C2985 1.393 . S
C2982 H2974 0.950 . S
C2982 C2980 1.391 . S
C2982 C2983 1.400 . S
C2983 C2982 1.400 . S
C2983 C2984 1.398 . S
C2983 C2989 1.529 . S
C2984 H2975 0.950 . S
C2984 C2983 1.398 . S
C2984 C2985 1.391 1_565 S
C2985 H2973 0.950 . S
C2985 C2981 1.393 . S
C2985 C2984 1.391 1_545 S
C2986 H2976 0.950 . S
C2986 C2987 1.386 . S
C2986 C2988 1.391 . S
C2987 C2986 1.386 . S
C2987 C2991 1.393 . S
C2988 H2977 0.950 . S
C2988 C2986 1.391 . S
C2988 C2989 1.355 1_455 S
C2989 C2983 1.529 . S
C2989 C2988 1.355 1_655 S
C2989 C2990 1.405 . S
C2990 H2978 0.950 . S
C2990 C2989 1.405 . S
C2990 C2991 1.391 1_655 S
C2991 H2979 0.950 . S
C2991 C2987 1.393 . S
C2991 C2990 1.391 1_455 S
H2992 C3000 0.950 . S
H2993 C3005 0.950 . S
H2994 C3002 0.950 . S
H2995 C3004 0.950 . S
H2996 C3006 0.950 . S
H2997 C3008 0.950 . S
H2998 C3010 0.950 . S
H2999 C3011 0.950 . S
C3000 H2992 0.950 . S
C3000 C3001 1.386 . S
C3000 C3002 1.391 . S
C3001 C3000 1.386 . S
C3001 C3005 1.393 . S
C3002 H2994 0.950 . S
C3002 C3000 1.391 . S
C3002 C3003 1.400 . S
C3003 C3002 1.400 . S
C3003 C3004 1.398 . S
C3003 C3009 1.491 . S
C3004 H2995 0.950 . S
C3004 C3003 1.398 . S
C3004 C3005 1.391 . S
C3005 H2993 0.950 . S
C3005 C3001 1.393 . S
C3005 C3004 1.391 . S
C3006 H2996 0.950 . S
C3006 C3007 1.386 . S
C3006 C3008 1.391 . S
C3007 C3006 1.386 . S
C3007 C3011 1.393 . S
C3008 H2997 0.950 . S
C3008 C3006 1.391 . S
C3008 C3009 1.400 . S
C3009 C3003 1.491 . S
C3009 C3008 1.400 . S
C3009 C3010 1.398 . S
C3010 H2998 0.950 . S
C3010 C3009 1.398 . S
C3010 C3011 1.391 . S
C3011 H2999 0.950 . S
C3011 C3007 1.393 . S
C3011 C3010 1.391 . S
H3012 C3020 0.950 . S
H3013 C3025 0.950 . S
H3014 C3022 0.968 . S
H3015 C3024 0.950 . S
H3016 C3026 0.950 . S
H3017 C3028 0.950 . S
H3018 C3030 0.950 . S
H3019 C3031 0.950 . S
C3020 H3012 0.950 . S
C3020 C3021 1.386 . S
C3020 C3022 1.374 1_556 S
C3021 C3020 1.386 . S
C3021 C3025 1.393 . S
C3022 H3014 0.968 . S
C3022 C3020 1.374 1_554 S
C3022 C3023 1.400 . S
C3023 C3022 1.400 . S
C3023 C3024 1.377 1_554 S
C3023 C3029 1.511 . S
C3024 H3015 0.950 . S
C3024 C3023 1.377 1_556 S
C3024 C3025 1.391 . S
C3025 H3013 0.950 . S
C3025 C3021 1.393 . S
C3025 C3024 1.391 . S
C3026 H3016 0.950 . S
C3026 C3027 1.386 . S
C3026 C3028 1.391 . S
C3027 C3026 1.386 . S
C3027 C3031 1.393 . S
C3028 H3017 0.950 . S
C3028 C3026 1.391 . S
C3028 C3029 1.400 . S
C3029 C3023 1.511 . S
C3029 C3028 1.400 . S
C3029 C3030 1.398 . S
C3030 H3018 0.950 . S
C3030 C3029 1.398 . S
C3030 C3031 1.391 . S
C3031 H3019 0.950 . S
C3031 C3027 1.393 . S
C3031 C3030 1.391 . S
H3032 C3040 0.950 . S
H3033 C3045 0.950 . S
H3034 C3042 0.950 . S
H3035 C3044 0.950 . S
H3036 C3046 0.950 . S
H3037 C3048 0.950 . S
H3038 C3050 0.950 . S
H3039 C3051 0.950 . S
C3040 H3032 0.950 . S
C3040 C3041 1.386 . S
C3040 C3042 1.391 . S
C3041 C3040 1.386 . S
C3041 C3045 1.393 . S
C3042 H3034 0.950 . S
C3042 C3040 1.391 . S
C3042 C3043 1.400 . S
C3043 C3042 1.400 . S
C3043 C3044 1.398 . S
C3043 C3049 1.491 . S
C3044 H3035 0.950 . S
C3044 C3043 1.398 . S
C3044 C3045 1.391 . S
C3045 H3033 0.950 . S
C3045 C3041 1.393 . S
C3045 C3044 1.391 . S
C3046 H3036 0.950 . S
C3046 C3047 1.386 . S
C3046 C3048 1.391 . S
C3047 C3046 1.386 . S
C3047 C3051 1.393 . S
C3048 H3037 0.950 . S
C3048 C3046 1.391 . S
C3048 C3049 1.400 . S
C3049 C3043 1.491 . S
C3049 C3048 1.400 . S
C3049 C3050 1.398 . S
C3050 H3038 0.950 . S
C3050 C3049 1.398 . S
C3050 C3051 1.391 . S
C3051 H3039 0.950 . S
C3051 C3047 1.393 . S
C3051 C3050 1.391 . S
H3052 C3060 0.950 . S
H3053 C3065 0.950 . S
H3054 C3062 0.950 1_554 S
H3055 C3064 0.950 . S
H3056 C3066 0.950 . S
H3057 C3068 0.950 . S
H3058 C3070 0.950 . S
H3059 C3071 0.950 . S
C3060 H3052 0.950 . S
C3060 C3061 1.386 . S
C3060 C3062 1.391 . S
C3061 C3060 1.386 . S
C3061 C3065 1.393 . S
C3062 H3054 0.950 1_556 S
C3062 C3060 1.391 . S
C3062 C3063 1.396 1_556 S
C3063 C3062 1.396 1_554 S
C3063 C3064 1.384 1_554 S
C3063 C3069 1.509 . S
C3064 H3055 0.950 . S
C3064 C3063 1.384 1_556 S
C3064 C3065 1.391 . S
C3065 H3053 0.950 . S
C3065 C3061 1.393 . S
C3065 C3064 1.391 . S
C3066 H3056 0.950 . S
C3066 C3067 1.386 . S
C3066 C3068 1.391 . S
C3067 C3066 1.386 . S
C3067 C3071 1.393 . S
C3068 H3057 0.950 . S
C3068 C3066 1.391 . S
C3068 C3069 1.400 . S
C3069 C3063 1.509 . S
C3069 C3068 1.400 . S
C3069 C3070 1.398 . S
C3070 H3058 0.950 . S
C3070 C3069 1.398 . S
C3070 C3071 1.391 . S
C3071 H3059 0.950 . S
C3071 C3067 1.393 . S
C3071 C3070 1.391 . S
H3072 C3080 0.950 . S
H3073 C3085 0.950 . S
H3074 C3082 0.950 . S
H3075 C3084 0.950 . S
H3076 C3086 0.950 . S
H3077 C3088 0.950 . S
H3078 C3090 0.950 . S
H3079 C3091 0.950 . S
C3080 H3072 0.950 . S
C3080 C3081 1.386 . S
C3080 C3082 1.391 . S
C3081 C3080 1.386 . S
C3081 C3085 1.393 . S
C3082 H3074 0.950 . S
C3082 C3080 1.391 . S
C3082 C3083 1.400 . S
C3083 C3082 1.400 . S
C3083 C3084 1.398 . S
C3083 C3089 1.491 . S
C3084 H3075 0.950 . S
C3084 C3083 1.398 . S
C3084 C3085 1.391 . S
C3085 H3073 0.950 . S
C3085 C3081 1.393 . S
C3085 C3084 1.391 . S
C3086 H3076 0.950 . S
C3086 C3087 1.386 . S
C3086 C3088 1.391 . S
C3087 C3086 1.386 . S
C3087 C3091 1.393 . S
C3088 H3077 0.950 . S
C3088 C3086 1.391 . S
C3088 C3089 1.400 . S
C3089 C3083 1.491 . S
C3089 C3088 1.400 . S
C3089 C3090 1.398 . S
C3090 H3078 0.950 . S
C3090 C3089 1.398 . S
C3090 C3091 1.391 . S
C3091 H3079 0.950 . S
C3091 C3087 1.393 . S
C3091 C3090 1.391 . S
H3092 C3100 0.950 . S
H3093 C3105 0.950 . S
H3094 C3102 0.904 1_654 S
H3095 C3104 0.950 . S
H3096 C3106 0.950 . S
H3097 C3108 0.950 . S
H3098 C3110 0.950 . S
H3099 C3111 0.950 . S
C3100 H3092 0.950 . S
C3100 C3101 1.386 . S
C3100 C3102 1.391 1_655 S
C3101 C3100 1.386 . S
C3101 C3105 1.393 1_655 S
C3102 H3094 0.904 1_456 S
C3102 C3100 1.391 1_455 S
C3102 C3103 1.400 . S
C3103 C3102 1.400 . S
C3103 C3104 1.398 . S
C3103 C3109 1.520 . S
C3104 H3095 0.950 . S
C3104 C3103 1.398 . S
C3104 C3105 1.391 . S
C3105 H3093 0.950 . S
C3105 C3101 1.393 1_455 S
C3105 C3104 1.391 . S
C3106 H3096 0.950 . S
C3106 C3107 1.386 . S
C3106 C3108 1.391 1_554 S
C3107 C3106 1.386 . S
C3107 C3111 1.393 . S
C3108 H3097 0.950 . S
C3108 C3106 1.391 1_556 S
C3108 C3109 1.409 . S
C3109 C3103 1.520 . S
C3109 C3108 1.409 . S
C3109 C3110 1.361 1_556 S
C3110 H3098 0.950 . S
C3110 C3109 1.361 1_554 S
C3110 C3111 1.391 . S
C3111 H3099 0.950 . S
C3111 C3107 1.393 . S
C3111 C3110 1.391 . S
H3112 C3120 0.950 . S
H3113 C3125 0.950 . S
H3114 C3122 0.950 . S
H3115 C3124 0.950 . S
H3116 C3126 0.950 . S
H3117 C3128 0.950 . S
H3118 C3130 0.950 . S
H3119 C3131 0.950 . S
C3120 H3112 0.950 . S
C3120 C3121 1.386 . S
C3120 C3122 1.391 . S
C3121 C3120 1.386 . S
C3121 C3125 1.393 . S
C3122 H3114 0.950 . S
C3122 C3120 1.391 . S
C3122 C3123 1.400 . S
C3123 C3122 1.400 . S
C3123 C3124 1.398 . S
C3123 C3129 1.491 . S
C3124 H3115 0.950 . S
C3124 C3123 1.398 . S
C3124 C3125 1.391 . S
C3125 H3113 0.950 . S
C3125 C3121 1.393 . S
C3125 C3124 1.391 . S
C3126 H3116 0.950 . S
C3126 C3127 1.386 . S
C3126 C3128 1.391 . S
C3127 C3126 1.386 . S
C3127 C3131 1.393 . S
C3128 H3117 0.950 . S
C3128 C3126 1.391 . S
C3128 C3129 1.400 . S
C3129 C3123 1.491 . S
C3129 C3128 1.400 . S
C3129 C3130 1.398 . S
C3130 H3118 0.950 . S
C3130 C3129 1.398 . S
C3130 C3131 1.391 . S
C3131 H3119 0.950 . S
C3131 C3127 1.393 . S
C3131 C3130 1.391 . S
H3132 C3140 0.950 . S
H3133 C3145 0.950 . S
H3134 C3142 0.950 . S
H3135 C3144 0.950 . S
H3136 C3146 0.950 . S
H3137 C3148 0.950 . S
H3138 C3150 0.950 1_556 S
H3139 C3151 0.950 . S
C3140 H3132 0.950 . S
C3140 C3141 1.386 1_655 S
C3140 C3142 1.391 . S
C3141 C3140 1.386 1_455 S
C3141 C3145 1.393 . S
C3142 H3134 0.950 . S
C3142 C3140 1.391 . S
C3142 C3143 1.400 . S
C3143 C3142 1.400 . S
C3143 C3144 1.398 . S
C3143 C3149 1.510 . S
C3144 H3135 0.950 . S
C3144 C3143 1.398 . S
C3144 C3145 1.391 1_655 S
C3145 H3133 0.950 . S
C3145 C3141 1.393 . S
C3145 C3144 1.391 1_455 S
C3146 H3136 0.950 . S
C3146 C3147 1.386 . S
C3146 C3148 1.391 . S
C3147 C3146 1.386 . S
C3147 C3151 1.393 . S
C3148 H3137 0.950 . S
C3148 C3146 1.391 . S
C3148 C3149 1.386 1_554 S
C3149 C3143 1.510 . S
C3149 C3148 1.386 1_556 S
C3149 C3150 1.393 1_556 S
C3150 H3138 0.950 1_554 S
C3150 C3149 1.393 1_554 S
C3150 C3151 1.391 . S
C3151 H3139 0.950 . S
C3151 C3147 1.393 . S
C3151 C3150 1.391 . S
H3152 C3160 0.950 . S
H3153 C3165 0.950 . S
H3154 C3162 0.950 . S
H3155 C3164 0.950 . S
H3156 C3166 0.950 . S
H3157 C3168 0.950 . S
H3158 C3170 0.950 . S
H3159 C3171 0.950 . S
C3160 H3152 0.950 . S
C3160 C3161 1.386 . S
C3160 C3162 1.391 . S
C3161 C3160 1.386 . S
C3161 C3165 1.393 . S
C3162 H3154 0.950 . S
C3162 C3160 1.391 . S
C3162 C3163 1.400 . S
C3163 C3162 1.400 . S
C3163 C3164 1.398 . S
C3163 C3169 1.491 . S
C3164 H3155 0.950 . S
C3164 C3163 1.398 . S
C3164 C3165 1.391 . S
C3165 H3153 0.950 . S
C3165 C3161 1.393 . S
C3165 C3164 1.391 . S
C3166 H3156 0.950 . S
C3166 C3167 1.386 . S
C3166 C3168 1.391 . S
C3167 C3166 1.386 . S
C3167 C3171 1.393 . S
C3168 H3157 0.950 . S
C3168 C3166 1.391 . S
C3168 C3169 1.400 . S
C3169 C3163 1.491 . S
C3169 C3168 1.400 . S
C3169 C3170 1.398 . S
C3170 H3158 0.950 . S
C3170 C3169 1.398 . S
C3170 C3171 1.391 . S
C3171 H3159 0.950 . S
C3171 C3167 1.393 . S
C3171 C3170 1.391 . S
H3172 C3180 0.950 . S
H3173 C3185 0.950 . S
H3174 C3182 0.950 . S
H3175 C3184 0.950 . S
H3176 C3186 0.950 . S
H3177 C3188 0.950 . S
H3178 C3190 0.950 . S
H3179 C3191 0.950 . S
C3180 H3172 0.950 . S
C3180 C3181 1.386 . S
C3180 C3182 1.391 . S
C3181 C3180 1.386 . S
C3181 C3185 1.393 . S
C3182 H3174 0.950 . S
C3182 C3180 1.391 . S
C3182 C3183 1.400 . S
C3183 C3182 1.400 . S
C3183 C3184 1.398 . S
C3183 C3189 1.491 . S
C3184 H3175 0.950 . S
C3184 C3183 1.398 . S
C3184 C3185 1.391 . S
C3185 H3173 0.950 . S
C3185 C3181 1.393 . S
C3185 C3184 1.391 . S
C3186 H3176 0.950 . S
C3186 C3187 1.386 . S
C3186 C3188 1.391 . S
C3187 C3186 1.386 . S
C3187 C3191 1.393 . S
C3188 H3177 0.950 . S
C3188 C3186 1.391 . S
C3188 C3189 1.400 . S
C3189 C3183 1.491 . S
C3189 C3188 1.400 . S
C3189 C3190 1.398 . S
C3190 H3178 0.950 . S
C3190 C3189 1.398 . S
C3190 C3191 1.391 . S
C3191 H3179 0.950 . S
C3191 C3187 1.393 . S
C3191 C3190 1.391 . S
H3192 C3200 0.950 . S
H3193 C3205 0.950 . S
H3194 C3202 0.950 . S
H3195 C3204 0.946 1_554 S
H3196 C3206 0.950 . S
H3197 C3208 0.950 . S
H3198 C3210 0.950 . S
H3199 C3211 0.950 . S
C3200 H3192 0.950 . S
C3200 C3201 1.386 1_556 S
C3200 C3202 1.391 . S
C3201 C3200 1.386 1_554 S
C3201 C3205 1.393 . S
C3202 H3194 0.950 . S
C3202 C3200 1.391 . S
C3202 C3203 1.400 . S
C3203 C3202 1.400 . S
C3203 C3204 1.398 . S
C3203 C3209 1.491 . S
C3204 H3195 0.946 1_556 S
C3204 C3203 1.398 . S
C3204 C3205 1.391 1_556 S
C3205 H3193 0.950 . S
C3205 C3201 1.393 . S
C3205 C3204 1.391 1_554 S
C3206 H3196 0.950 . S
C3206 C3207 1.386 . S
C3206 C3208 1.391 . S
C3207 C3206 1.386 . S
C3207 C3211 1.393 . S
C3208 H3197 0.950 . S
C3208 C3206 1.391 . S
C3208 C3209 1.400 . S
C3209 C3203 1.491 . S
C3209 C3208 1.400 . S
C3209 C3210 1.398 . S
C3210 H3198 0.950 . S
C3210 C3209 1.398 . S
C3210 C3211 1.391 . S
C3211 H3199 0.950 . S
C3211 C3207 1.393 . S
C3211 C3210 1.391 . S
H3212 C3220 0.950 . S
H3213 C3225 0.950 . S
H3214 C3222 0.950 . S
H3215 C3224 0.950 . S
H3216 C3226 0.950 . S
H3217 C3228 0.950 . S
H3218 C3230 0.950 . S
H3219 C3231 0.950 . S
C3220 H3212 0.950 . S
C3220 C3221 1.386 . S
C3220 C3222 1.391 . S
C3221 C3220 1.386 . S
C3221 C3225 1.393 . S
C3222 H3214 0.950 . S
C3222 C3220 1.391 . S
C3222 C3223 1.400 . S
C3223 C3222 1.400 . S
C3223 C3224 1.398 . S
C3223 C3229 1.491 . S
C3224 H3215 0.950 . S
C3224 C3223 1.398 . S
C3224 C3225 1.391 . S
C3225 H3213 0.950 . S
C3225 C3221 1.393 . S
C3225 C3224 1.391 . S
C3226 H3216 0.950 . S
C3226 C3227 1.386 . S
C3226 C3228 1.391 . S
C3227 C3226 1.386 . S
C3227 C3231 1.393 . S
C3228 H3217 0.950 . S
C3228 C3226 1.391 . S
C3228 C3229 1.400 . S
C3229 C3223 1.491 . S
C3229 C3228 1.400 . S
C3229 C3230 1.398 . S
C3230 H3218 0.950 . S
C3230 C3229 1.398 . S
C3230 C3231 1.391 . S
C3231 H3219 0.950 . S
C3231 C3227 1.393 . S
C3231 C3230 1.391 . S
H3232 C3240 0.950 . S
H3233 C3245 0.950 . S
H3234 C3242 0.950 . S
H3235 C3244 0.950 . S
H3236 C3246 0.950 . S
H3237 C3248 0.950 . S
H3238 C3250 0.950 . S
H3239 C3251 0.950 . S
C3240 H3232 0.950 . S
C3240 C3241 1.386 . S
C3240 C3242 1.391 . S
C3241 C3240 1.386 . S
C3241 C3245 1.393 . S
C3242 H3234 0.950 . S
C3242 C3240 1.391 . S
C3242 C3243 1.400 . S
C3243 C3242 1.400 . S
C3243 C3244 1.398 . S
C3243 C3249 1.491 . S
C3244 H3235 0.950 . S
C3244 C3243 1.398 . S
C3244 C3245 1.391 . S
C3245 H3233 0.950 . S
C3245 C3241 1.393 . S
C3245 C3244 1.391 . S
C3246 H3236 0.950 . S
C3246 C3247 1.386 . S
C3246 C3248 1.391 . S
C3247 C3246 1.386 . S
C3247 C3251 1.393 . S
C3248 H3237 0.950 . S
C3248 C3246 1.391 . S
C3248 C3249 1.400 . S
C3249 C3243 1.491 . S
C3249 C3248 1.400 . S
C3249 C3250 1.398 . S
C3250 H3238 0.950 . S
C3250 C3249 1.398 . S
C3250 C3251 1.391 . S
C3251 H3239 0.950 . S
C3251 C3247 1.393 . S
C3251 C3250 1.391 . S
H3252 C3260 0.950 . S
H3253 C3265 0.950 . S
H3254 C3262 0.950 . S
H3255 C3264 0.950 . S
H3256 C3266 0.950 . S
H3257 C3268 0.950 . S
H3258 C3270 0.950 . S
H3259 C3271 0.950 . S
C3260 H3252 0.950 . S
C3260 C3261 1.386 . S
C3260 C3262 1.391 . S
C3261 C3260 1.386 . S
C3261 C3265 1.393 . S
C3262 H3254 0.950 . S
C3262 C3260 1.391 . S
C3262 C3263 1.400 . S
C3263 C3262 1.400 . S
C3263 C3264 1.398 . S
C3263 C3269 1.491 . S
C3264 H3255 0.950 . S
C3264 C3263 1.398 . S
C3264 C3265 1.391 . S
C3265 H3253 0.950 . S
C3265 C3261 1.393 . S
C3265 C3264 1.391 . S
C3266 H3256 0.950 . S
C3266 C3267 1.386 . S
C3266 C3268 1.391 . S
C3267 C3266 1.386 . S
C3267 C3271 1.393 . S
C3268 H3257 0.950 . S
C3268 C3266 1.391 . S
C3268 C3269 1.400 . S
C3269 C3263 1.491 . S
C3269 C3268 1.400 . S
C3269 C3270 1.398 . S
C3270 H3258 0.950 . S
C3270 C3269 1.398 . S
C3270 C3271 1.391 . S
C3271 H3259 0.950 . S
C3271 C3267 1.393 . S
C3271 C3270 1.391 . S
H3272 C3280 0.950 . S
H3273 C3285 0.950 . S
H3274 C3282 0.950 . S
H3275 C3284 0.950 . S
H3276 C3286 0.950 . S
H3277 C3288 0.950 . S
H3278 C3290 0.950 . S
H3279 C3291 0.950 . S
C3280 H3272 0.950 . S
C3280 C3281 1.386 . S
C3280 C3282 1.391 . S
C3281 C3280 1.386 . S
C3281 C3285 1.393 . S
C3282 H3274 0.950 . S
C3282 C3280 1.391 . S
C3282 C3283 1.400 . S
C3283 C3282 1.400 . S
C3283 C3284 1.398 . S
C3283 C3289 1.491 . S
C3284 H3275 0.950 . S
C3284 C3283 1.398 . S
C3284 C3285 1.391 . S
C3285 H3273 0.950 . S
C3285 C3281 1.393 . S
C3285 C3284 1.391 . S
C3286 H3276 0.950 . S
C3286 C3287 1.386 . S
C3286 C3288 1.391 . S
C3287 C3286 1.386 . S
C3287 C3291 1.393 . S
C3288 H3277 0.950 . S
C3288 C3286 1.391 . S
C3288 C3289 1.400 . S
C3289 C3283 1.491 . S
C3289 C3288 1.400 . S
C3289 C3290 1.398 . S
C3290 H3278 0.950 . S
C3290 C3289 1.398 . S
C3290 C3291 1.391 . S
C3291 H3279 0.950 . S
C3291 C3287 1.393 . S
C3291 C3290 1.391 . S
H3292 C3300 0.950 . S
H3293 C3305 0.950 . S
H3294 C3302 0.969 . S
H3295 C3304 0.950 . S
H3296 C3306 0.950 . S
H3297 C3308 0.950 . S
H3298 C3310 0.950 . S
H3299 C3311 0.950 . S
C3300 H3292 0.950 . S
C3300 C3301 1.386 . S
C3300 C3302 1.391 . S
C3301 C3300 1.386 . S
C3301 C3305 1.393 . S
C3302 H3294 0.969 . S
C3302 C3300 1.391 . S
C3302 C3303 1.400 . S
C3303 C3302 1.400 . S
C3303 C3304 1.398 . S
C3303 C3309 1.516 . S
C3304 H3295 0.950 . S
C3304 C3303 1.398 . S
C3304 C3305 1.391 . S
C3305 H3293 0.950 . S
C3305 C3301 1.393 . S
C3305 C3304 1.391 . S
C3306 H3296 0.950 . S
C3306 C3307 1.386 . S
C3306 C3308 1.391 1_565 S
C3307 C3306 1.386 . S
C3307 C3311 1.393 . S
C3308 H3297 0.950 . S
C3308 C3306 1.391 1_545 S
C3308 C3309 1.407 . S
C3309 C3303 1.516 . S
C3309 C3308 1.407 . S
C3309 C3310 1.366 1_545 S
C3310 H3298 0.950 . S
C3310 C3309 1.366 1_565 S
C3310 C3311 1.391 . S
C3311 H3299 0.950 . S
C3311 C3307 1.393 . S
C3311 C3310 1.391 . S
H3312 C3320 0.950 . S
H3313 C3325 0.950 . S
H3314 C3322 0.950 . S
H3315 C3324 0.950 . S
H3316 C3326 0.950 . S
H3317 C3328 0.950 . S
H3318 C3330 0.950 . S
H3319 C3331 0.950 . S
C3320 H3312 0.950 . S
C3320 C3321 1.386 . S
C3320 C3322 1.391 . S
C3321 C3320 1.386 . S
C3321 C3325 1.393 . S
C3322 H3314 0.950 . S
C3322 C3320 1.391 . S
C3322 C3323 1.400 . S
C3323 C3322 1.400 . S
C3323 C3324 1.398 . S
C3323 C3329 1.491 . S
C3324 H3315 0.950 . S
C3324 C3323 1.398 . S
C3324 C3325 1.391 . S
C3325 H3313 0.950 . S
C3325 C3321 1.393 . S
C3325 C3324 1.391 . S
C3326 H3316 0.950 . S
C3326 C3327 1.386 . S
C3326 C3328 1.391 . S
C3327 C3326 1.386 . S
C3327 C3331 1.393 . S
C3328 H3317 0.950 . S
C3328 C3326 1.391 . S
C3328 C3329 1.400 . S
C3329 C3323 1.491 . S
C3329 C3328 1.400 . S
C3329 C3330 1.398 . S
C3330 H3318 0.950 . S
C3330 C3329 1.398 . S
C3330 C3331 1.391 . S
C3331 H3319 0.950 . S
C3331 C3327 1.393 . S
C3331 C3330 1.391 . S
H3332 C3340 0.950 . S
H3333 C3345 0.950 . S
H3334 C3342 0.950 . S
H3335 C3344 0.950 . S
H3336 C3346 0.950 . S
H3337 C3348 0.950 . S
H3338 C3350 0.950 . S
H3339 C3351 0.950 . S
C3340 H3332 0.950 . S
C3340 C3341 1.386 . S
C3340 C3342 1.391 1_455 S
C3341 C3340 1.386 . S
C3341 C3345 1.393 . S
C3342 H3334 0.950 . S
C3342 C3340 1.391 1_655 S
C3342 C3343 1.403 . S
C3343 C3342 1.403 . S
C3343 C3344 1.358 1_655 S
C3343 C3349 1.529 . S
C3344 H3335 0.950 . S
C3344 C3343 1.358 1_455 S
C3344 C3345 1.391 . S
C3345 H3333 0.950 . S
C3345 C3341 1.393 . S
C3345 C3344 1.391 . S
C3346 H3336 0.950 . S
C3346 C3347 1.386 . S
C3346 C3348 1.391 1_565 S
C3347 C3346 1.386 . S
C3347 C3351 1.393 1_565 S
C3348 H3337 0.950 . S
C3348 C3346 1.391 1_545 S
C3348 C3349 1.400 . S
C3349 C3343 1.529 . S
C3349 C3348 1.400 . S
C3349 C3350 1.398 . S
C3350 H3338 0.950 . S
C3350 C3349 1.398 . S
C3350 C3351 1.391 . S
C3351 H3339 0.950 . S
C3351 C3347 1.393 1_545 S
C3351 C3350 1.391 . S
H3352 C3360 0.950 . S
H3353 C3365 0.950 . S
H3354 C3362 0.950 . S
H3355 C3364 0.950 . S
H3356 C3366 0.950 . S
H3357 C3368 0.950 . S
H3358 C3370 0.950 . S
H3359 C3371 0.950 . S
C3360 H3352 0.950 . S
C3360 C3361 1.386 . S
C3360 C3362 1.391 . S
C3361 C3360 1.386 . S
C3361 C3365 1.393 . S
C3362 H3354 0.950 . S
C3362 C3360 1.391 . S
C3362 C3363 1.400 . S
C3363 C3362 1.400 . S
C3363 C3364 1.398 . S
C3363 C3369 1.491 . S
C3364 H3355 0.950 . S
C3364 C3363 1.398 . S
C3364 C3365 1.391 . S
C3365 H3353 0.950 . S
C3365 C3361 1.393 . S
C3365 C3364 1.391 . S
C3366 H3356 0.950 . S
C3366 C3367 1.386 . S
C3366 C3368 1.391 . S
C3367 C3366 1.386 . S
C3367 C3371 1.393 . S
C3368 H3357 0.950 . S
C3368 C3366 1.391 . S
C3368 C3369 1.400 . S
C3369 C3363 1.491 . S
C3369 C3368 1.400 . S
C3369 C3370 1.398 . S
C3370 H3358 0.950 . S
C3370 C3369 1.398 . S
C3370 C3371 1.391 . S
C3371 H3359 0.950 . S
C3371 C3367 1.393 . S
C3371 C3370 1.391 . S
H3372 C3380 0.950 . S
H3373 C3385 0.950 . S
H3374 C3382 0.950 . S
H3375 C3384 0.950 . S
H3376 C3386 0.950 . S
H3377 C3388 0.950 . S
H3378 C3390 0.950 1_455 S
H3379 C3391 0.950 . S
C3380 H3372 0.950 . S
C3380 C3381 1.386 . S
C3380 C3382 1.391 . S
C3381 C3380 1.386 . S
C3381 C3385 1.393 . S
C3382 H3374 0.950 . S
C3382 C3380 1.391 . S
C3382 C3383 1.400 . S
C3383 C3382 1.400 . S
C3383 C3384 1.398 . S
C3383 C3389 1.532 . S
C3384 H3375 0.950 . S
C3384 C3383 1.398 . S
C3384 C3385 1.391 . S
C3385 H3373 0.950 . S
C3385 C3381 1.393 . S
C3385 C3384 1.391 . S
C3386 H3376 0.950 . S
C3386 C3387 1.386 . S
C3386 C3388 1.391 . S
C3387 C3386 1.386 . S
C3387 C3391 1.393 . S
C3388 H3377 0.950 . S
C3388 C3386 1.391 . S
C3388 C3389 1.365 1_655 S
C3389 C3383 1.532 . S
C3389 C3388 1.365 1_455 S
C3389 C3390 1.393 1_455 S
C3390 H3378 0.950 1_655 S
C3390 C3389 1.393 1_655 S
C3390 C3391 1.391 . S
C3391 H3379 0.950 . S
C3391 C3387 1.393 . S
C3391 C3390 1.391 . S
H3392 C3400 0.950 . S
H3393 C3405 0.950 . S
H3394 C3402 0.950 . S
H3395 C3404 0.950 . S
H3396 C3406 0.950 . S
H3397 C3408 0.950 . S
H3398 C3410 0.950 . S
H3399 C3411 0.950 . S
C3400 H3392 0.950 . S
C3400 C3401 1.386 . S
C3400 C3402 1.391 . S
C3401 C3400 1.386 . S
C3401 C3405 1.393 . S
C3402 H3394 0.950 . S
C3402 C3400 1.391 . S
C3402 C3403 1.400 . S
C3403 C3402 1.400 . S
C3403 C3404 1.398 . S
C3403 C3409 1.491 . S
C3404 H3395 0.950 . S
C3404 C3403 1.398 . S
C3404 C3405 1.391 . S
C3405 H3393 0.950 . S
C3405 C3401 1.393 . S
C3405 C3404 1.391 . S
C3406 H3396 0.950 . S
C3406 C3407 1.386 . S
C3406 C3408 1.391 . S
C3407 C3406 1.386 . S
C3407 C3411 1.393 . S
C3408 H3397 0.950 . S
C3408 C3406 1.391 . S
C3408 C3409 1.400 . S
C3409 C3403 1.491 . S
C3409 C3408 1.400 . S
C3409 C3410 1.398 . S
C3410 H3398 0.950 . S
C3410 C3409 1.398 . S
C3410 C3411 1.391 . S
C3411 H3399 0.950 . S
C3411 C3407 1.393 . S
C3411 C3410 1.391 . S
H3412 C3420 0.950 . S
H3413 C3425 0.950 . S
H3414 C3422 0.950 . S
H3415 C3424 0.950 . S
H3416 C3426 0.950 . S
H3417 C3428 0.950 . S
H3418 C3430 0.950 . S
H3419 C3431 0.950 . S
C3420 H3412 0.950 . S
C3420 C3421 1.386 1_545 S
C3420 C3422 1.391 . S
C3421 C3420 1.386 1_565 S
C3421 C3425 1.393 . S
C3422 H3414 0.950 . S
C3422 C3420 1.391 . S
C3422 C3423 1.400 . S
C3423 C3422 1.400 . S
C3423 C3424 1.398 . S
C3423 C3429 1.491 . S
C3424 H3415 0.950 . S
C3424 C3423 1.398 . S
C3424 C3425 1.391 1_545 S
C3425 H3413 0.950 . S
C3425 C3421 1.393 . S
C3425 C3424 1.391 1_565 S
C3426 H3416 0.950 . S
C3426 C3427 1.386 . S
C3426 C3428 1.391 . S
C3427 C3426 1.386 . S
C3427 C3431 1.393 . S
C3428 H3417 0.950 . S
C3428 C3426 1.391 . S
C3428 C3429 1.400 . S
C3429 C3423 1.491 . S
C3429 C3428 1.400 . S
C3429 C3430 1.398 . S
C3430 H3418 0.950 . S
C3430 C3429 1.398 . S
C3430 C3431 1.391 . S
C3431 H3419 0.950 . S
C3431 C3427 1.393 . S
C3431 C3430 1.391 . S
H3432 C3440 0.950 . S
H3433 C3445 0.950 . S
H3434 C3442 0.950 . S
H3435 C3444 0.950 . S
H3436 C3446 0.950 . S
H3437 C3448 0.950 . S
H3438 C3450 0.950 . S
H3439 C3451 0.950 . S
C3440 H3432 0.950 . S
C3440 C3441 1.386 . S
C3440 C3442 1.391 . S
C3441 C3440 1.386 . S
C3441 C3445 1.393 . S
C3442 H3434 0.950 . S
C3442 C3440 1.391 . S
C3442 C3443 1.400 . S
C3443 C3442 1.400 . S
C3443 C3444 1.398 . S
C3443 C3449 1.491 . S
C3444 H3435 0.950 . S
C3444 C3443 1.398 . S
C3444 C3445 1.391 . S
C3445 H3433 0.950 . S
C3445 C3441 1.393 . S
C3445 C3444 1.391 . S
C3446 H3436 0.950 . S
C3446 C3447 1.386 . S
C3446 C3448 1.391 . S
C3447 C3446 1.386 . S
C3447 C3451 1.393 . S
C3448 H3437 0.950 . S
C3448 C3446 1.391 . S
C3448 C3449 1.400 . S
C3449 C3443 1.491 . S
C3449 C3448 1.400 . S
C3449 C3450 1.398 . S
C3450 H3438 0.950 . S
C3450 C3449 1.398 . S
C3450 C3451 1.391 . S
C3451 H3439 0.950 . S
C3451 C3447 1.393 . S
C3451 C3450 1.391 . S
H3452 C3460 0.950 . S
H3453 C3465 0.950 . S
H3454 C3462 0.950 . S
H3455 C3464 0.950 . S
H3456 C3466 0.950 . S
H3457 C3468 0.950 . S
H3458 C3470 0.950 . S
H3459 C3471 0.950 . S
C3460 H3452 0.950 . S
C3460 C3461 1.386 . S
C3460 C3462 1.391 . S
C3461 C3460 1.386 . S
C3461 C3465 1.393 . S
C3462 H3454 0.950 . S
C3462 C3460 1.391 . S
C3462 C3463 1.400 . S
C3463 C3462 1.400 . S
C3463 C3464 1.398 . S
C3463 C3469 1.491 . S
C3464 H3455 0.950 . S
C3464 C3463 1.398 . S
C3464 C3465 1.391 . S
C3465 H3453 0.950 . S
C3465 C3461 1.393 . S
C3465 C3464 1.391 . S
C3466 H3456 0.950 . S
C3466 C3467 1.386 . S
C3466 C3468 1.391 . S
C3467 C3466 1.386 . S
C3467 C3471 1.393 . S
C3468 H3457 0.950 . S
C3468 C3466 1.391 . S
C3468 C3469 1.400 . S
C3469 C3463 1.491 . S
C3469 C3468 1.400 . S
C3469 C3470 1.398 . S
C3470 H3458 0.950 . S
C3470 C3469 1.398 . S
C3470 C3471 1.391 . S
C3471 H3459 0.950 . S
C3471 C3467 1.393 . S
C3471 C3470 1.391 . S
H3472 C3480 0.950 . S
H3473 C3485 0.950 . S
H3474 C3482 0.950 . S
H3475 C3484 0.950 . S
H3476 C3486 0.950 . S
H3477 C3488 0.950 . S
H3478 C3490 0.950 . S
H3479 C3491 0.950 . S
C3480 H3472 0.950 . S
C3480 C3481 1.386 . S
C3480 C3482 1.391 . S
C3481 C3480 1.386 . S
C3481 C3485 1.393 . S
C3482 H3474 0.950 . S
C3482 C3480 1.391 . S
C3482 C3483 1.400 . S
C3483 C3482 1.400 . S
C3483 C3484 1.398 . S
C3483 C3489 1.491 . S
C3484 H3475 0.950 . S
C3484 C3483 1.398 . S
C3484 C3485 1.391 . S
C3485 H3473 0.950 . S
C3485 C3481 1.393 . S
C3485 C3484 1.391 . S
C3486 H3476 0.950 . S
C3486 C3487 1.386 . S
C3486 C3488 1.391 . S
C3487 C3486 1.386 . S
C3487 C3491 1.393 . S
C3488 H3477 0.950 . S
C3488 C3486 1.391 . S
C3488 C3489 1.400 . S
C3489 C3483 1.491 . S
C3489 C3488 1.400 . S
C3489 C3490 1.398 . S
C3490 H3478 0.950 . S
C3490 C3489 1.398 . S
C3490 C3491 1.391 . S
C3491 H3479 0.950 . S
C3491 C3487 1.393 . S
C3491 C3490 1.391 . S
H3492 C3500 0.950 . S
H3493 C3505 0.950 . S
H3494 C3502 0.951 1_455 S
H3495 C3504 0.950 . S
H3496 C3506 0.950 . S
H3497 C3508 0.950 . S
H3498 C3510 0.950 . S
H3499 C3511 0.950 . S
C3500 H3492 0.950 . S
C3500 C3501 1.386 . S
C3500 C3502 1.391 1_455 S
C3501 C3500 1.386 . S
C3501 C3505 1.393 1_455 S
C3502 H3494 0.951 1_655 S
C3502 C3500 1.391 1_655 S
C3502 C3503 1.400 . S
C3503 C3502 1.400 . S
C3503 C3504 1.398 . S
C3503 C3509 1.491 . S
C3504 H3495 0.950 . S
C3504 C3503 1.398 . S
C3504 C3505 1.391 . S
C3505 H3493 0.950 . S
C3505 C3501 1.393 1_655 S
C3505 C3504 1.391 . S
C3506 H3496 0.950 . S
C3506 C3507 1.386 . S
C3506 C3508 1.391 . S
C3507 C3506 1.386 . S
C3507 C3511 1.393 . S
C3508 H3497 0.950 . S
C3508 C3506 1.391 . S
C3508 C3509 1.400 . S
C3509 C3503 1.491 . S
C3509 C3508 1.400 . S
C3509 C3510 1.398 . S
C3510 H3498 0.950 . S
C3510 C3509 1.398 . S
C3510 C3511 1.391 . S
C3511 H3499 0.950 . S
C3511 C3507 1.393 . S
C3511 C3510 1.391 . S
H3512 C3520 0.950 . S
H3513 C3525 0.950 . S
H3514 C3522 0.950 . S
H3515 C3524 0.950 . S
H3516 C3526 0.950 . S
H3517 C3528 0.950 . S
H3518 C3530 0.950 . S
H3519 C3531 0.950 . S
C3520 H3512 0.950 . S
C3520 C3521 1.386 . S
C3520 C3522 1.391 . S
C3521 C3520 1.386 . S
C3521 C3525 1.393 . S
C3522 H3514 0.950 . S
C3522 C3520 1.391 . S
C3522 C3523 1.400 . S
C3523 C3522 1.400 . S
C3523 C3524 1.398 . S
C3523 C3529 1.491 . S
C3524 H3515 0.950 . S
C3524 C3523 1.398 . S
C3524 C3525 1.391 . S
C3525 H3513 0.950 . S
C3525 C3521 1.393 . S
C3525 C3524 1.391 . S
C3526 H3516 0.950 . S
C3526 C3527 1.386 . S
C3526 C3528 1.391 . S
C3527 C3526 1.386 . S
C3527 C3531 1.393 . S
C3528 H3517 0.950 . S
C3528 C3526 1.391 . S
C3528 C3529 1.400 . S
C3529 C3523 1.491 . S
C3529 C3528 1.400 . S
C3529 C3530 1.398 . S
C3530 H3518 0.950 . S
C3530 C3529 1.398 . S
C3530 C3531 1.391 . S
C3531 H3519 0.950 . S
C3531 C3527 1.393 . S
C3531 C3530 1.391 . S
H3532 C3540 0.950 . S
H3533 C3545 0.950 . S
H3534 C3542 0.950 . S
H3535 C3544 0.950 . S
H3536 C3546 0.950 . S
H3537 C3548 0.950 . S
H3538 C3550 0.950 . S
H3539 C3551 0.950 . S
C3540 H3532 0.950 . S
C3540 C3541 1.386 . S
C3540 C3542 1.391 . S
C3541 C3540 1.386 . S
C3541 C3545 1.393 . S
C3542 H3534 0.950 . S
C3542 C3540 1.391 . S
C3542 C3543 1.400 . S
C3543 C3542 1.400 . S
C3543 C3544 1.398 . S
C3543 C3549 1.491 . S
C3544 H3535 0.950 . S
C3544 C3543 1.398 . S
C3544 C3545 1.391 . S
C3545 H3533 0.950 . S
C3545 C3541 1.393 . S
C3545 C3544 1.391 . S
C3546 H3536 0.950 . S
C3546 C3547 1.386 . S
C3546 C3548 1.391 1_655 S
C3547 C3546 1.386 . S
C3547 C3551 1.393 1_655 S
C3548 H3537 0.950 . S
C3548 C3546 1.391 1_455 S
C3548 C3549 1.400 . S
C3549 C3543 1.491 . S
C3549 C3548 1.400 . S
C3549 C3550 1.398 . S
C3550 H3538 0.950 . S
C3550 C3549 1.398 . S
C3550 C3551 1.391 . S
C3551 H3539 0.950 . S
C3551 C3547 1.393 1_455 S
C3551 C3550 1.391 . S
H3552 C3560 0.950 . S
H3553 C3565 0.950 . S
H3554 C3562 0.950 . S
H3555 C3564 0.950 . S
H3556 C3566 0.950 . S
H3557 C3568 0.950 . S
H3558 C3570 0.950 . S
H3559 C3571 0.950 . S
C3560 H3552 0.950 . S
C3560 C3561 1.386 . S
C3560 C3562 1.391 . S
C3561 C3560 1.386 . S
C3561 C3565 1.393 . S
C3562 H3554 0.950 . S
C3562 C3560 1.391 . S
C3562 C3563 1.400 . S
C3563 C3562 1.400 . S
C3563 C3564 1.398 . S
C3563 C3569 1.491 . S
C3564 H3555 0.950 . S
C3564 C3563 1.398 . S
C3564 C3565 1.391 . S
C3565 H3553 0.950 . S
C3565 C3561 1.393 . S
C3565 C3564 1.391 . S
C3566 H3556 0.950 . S
C3566 C3567 1.386 . S
C3566 C3568 1.391 . S
C3567 C3566 1.386 . S
C3567 C3571 1.393 . S
C3568 H3557 0.950 . S
C3568 C3566 1.391 . S
C3568 C3569 1.400 . S
C3569 C3563 1.491 . S
C3569 C3568 1.400 . S
C3569 C3570 1.398 . S
C3570 H3558 0.950 . S
C3570 C3569 1.398 . S
C3570 C3571 1.391 . S
C3571 H3559 0.950 . S
C3571 C3567 1.393 . S
C3571 C3570 1.391 . S
H3572 C3580 0.950 . S
H3573 C3585 0.950 . S
H3574 C3582 0.950 . S
H3575 C3584 0.950 . S
H3576 C3586 0.950 . S
H3577 C3588 0.950 . S
H3578 C3590 0.950 . S
H3579 C3591 0.950 . S
C3580 H3572 0.950 . S
C3580 C3581 1.386 . S
C3580 C3582 1.391 . S
C3581 C3580 1.386 . S
C3581 C3585 1.393 . S
C3582 H3574 0.950 . S
C3582 C3580 1.391 . S
C3582 C3583 1.400 . S
C3583 C3582 1.400 . S
C3583 C3584 1.398 . S
C3583 C3589 1.491 . S
C3584 H3575 0.950 . S
C3584 C3583 1.398 . S
C3584 C3585 1.391 . S
C3585 H3573 0.950 . S
C3585 C3581 1.393 . S
C3585 C3584 1.391 . S
C3586 H3576 0.950 . S
C3586 C3587 1.386 . S
C3586 C3588 1.391 . S
C3587 C3586 1.386 . S
C3587 C3591 1.393 . S
C3588 H3577 0.950 . S
C3588 C3586 1.391 . S
C3588 C3589 1.400 . S
C3589 C3583 1.491 . S
C3589 C3588 1.400 . S
C3589 C3590 1.398 . S
C3590 H3578 0.950 . S
C3590 C3589 1.398 . S
C3590 C3591 1.391 . S
C3591 H3579 0.950 . S
C3591 C3587 1.393 . S
C3591 C3590 1.391 . S
H3592 C3600 0.950 . S
H3593 C3605 0.950 . S
H3594 C3602 0.950 . S
H3595 C3604 0.950 . S
H3596 C3606 0.950 . S
H3597 C3608 0.950 . S
H3598 C3610 0.950 . S
H3599 C3611 0.950 . S
C3600 H3592 0.950 . S
C3600 C3601 1.386 . S
C3600 C3602 1.391 . S
C3601 C3600 1.386 . S
C3601 C3605 1.393 . S
C3602 H3594 0.950 . S
C3602 C3600 1.391 . S
C3602 C3603 1.400 . S
C3603 C3602 1.400 . S
C3603 C3604 1.398 . S
C3603 C3609 1.491 . S
C3604 H3595 0.950 . S
C3604 C3603 1.398 . S
C3604 C3605 1.391 . S
C3605 H3593 0.950 . S
C3605 C3601 1.393 . S
C3605 C3604 1.391 . S
C3606 H3596 0.950 . S
C3606 C3607 1.386 . S
C3606 C3608 1.391 . S
C3607 C3606 1.386 . S
C3607 C3611 1.393 . S
C3608 H3597 0.950 . S
C3608 C3606 1.391 . S
C3608 C3609 1.400 . S
C3609 C3603 1.491 . S
C3609 C3608 1.400 . S
C3609 C3610 1.398 . S
C3610 H3598 0.950 . S
C3610 C3609 1.398 . S
C3610 C3611 1.391 . S
C3611 H3599 0.950 . S
C3611 C3607 1.393 . S
C3611 C3610 1.391 . S
H3612 C3620 0.950 . S
H3613 C3625 0.950 . S
H3614 C3622 0.950 . S
H3615 C3624 0.950 . S
H3616 C3626 0.950 . S
H3617 C3628 0.950 . S
H3618 C3630 0.950 . S
H3619 C3631 0.950 . S
C3620 H3612 0.950 . S
C3620 C3621 1.386 . S
C3620 C3622 1.391 . S
C3621 C3620 1.386 . S
C3621 C3625 1.393 . S
C3622 H3614 0.950 . S
C3622 C3620 1.391 . S
C3622 C3623 1.400 . S
C3623 C3622 1.400 . S
C3623 C3624 1.398 . S
C3623 C3629 1.491 . S
C3624 H3615 0.950 . S
C3624 C3623 1.398 . S
C3624 C3625 1.391 . S
C3625 H3613 0.950 . S
C3625 C3621 1.393 . S
C3625 C3624 1.391 . S
C3626 H3616 0.950 . S
C3626 C3627 1.386 . S
C3626 C3628 1.391 . S
C3627 C3626 1.386 . S
C3627 C3631 1.393 . S
C3628 H3617 0.950 . S
C3628 C3626 1.391 . S
C3628 C3629 1.400 . S
C3629 C3623 1.491 . S
C3629 C3628 1.400 . S
C3629 C3630 1.398 . S
C3630 H3618 0.950 . S
C3630 C3629 1.398 . S
C3630 C3631 1.391 . S
C3631 H3619 0.950 . S
C3631 C3627 1.393 . S
C3631 C3630 1.391 . S
H3632 C3640 0.950 . S
H3633 C3645 0.950 . S
H3634 C3642 0.950 . S
H3635 C3644 0.950 . S
H3636 C3646 0.950 . S
H3637 C3648 0.950 . S
H3638 C3650 0.950 . S
H3639 C3651 0.950 . S
C3640 H3632 0.950 . S
C3640 C3641 1.386 . S
C3640 C3642 1.391 . S
C3641 C3640 1.386 . S
C3641 C3645 1.393 . S
C3642 H3634 0.950 . S
C3642 C3640 1.391 . S
C3642 C3643 1.400 . S
C3643 C3642 1.400 . S
C3643 C3644 1.398 . S
C3643 C3649 1.491 . S
C3644 H3635 0.950 . S
C3644 C3643 1.398 . S
C3644 C3645 1.391 . S
C3645 H3633 0.950 . S
C3645 C3641 1.393 . S
C3645 C3644 1.391 . S
C3646 H3636 0.950 . S
C3646 C3647 1.386 . S
C3646 C3648 1.391 . S
C3647 C3646 1.386 . S
C3647 C3651 1.393 . S
C3648 H3637 0.950 . S
C3648 C3646 1.391 . S
C3648 C3649 1.400 . S
C3649 C3643 1.491 . S
C3649 C3648 1.400 . S
C3649 C3650 1.398 . S
C3650 H3638 0.950 . S
C3650 C3649 1.398 . S
C3650 C3651 1.391 . S
C3651 H3639 0.950 . S
C3651 C3647 1.393 . S
C3651 C3650 1.391 . S
H3652 C3660 0.950 . S
H3653 C3665 0.950 . S
H3654 C3662 0.950 . S
H3655 C3664 0.950 . S
H3656 C3666 0.950 . S
H3657 C3668 0.950 . S
H3658 C3670 0.950 . S
H3659 C3671 0.950 . S
C3660 H3652 0.950 . S
C3660 C3661 1.386 . S
C3660 C3662 1.391 . S
C3661 C3660 1.386 . S
C3661 C3665 1.393 . S
C3662 H3654 0.950 . S
C3662 C3660 1.391 . S
C3662 C3663 1.400 . S
C3663 C3662 1.400 . S
C3663 C3664 1.398 . S
C3663 C3669 1.491 . S
C3664 H3655 0.950 . S
C3664 C3663 1.398 . S
C3664 C3665 1.391 . S
C3665 H3653 0.950 . S
C3665 C3661 1.393 . S
C3665 C3664 1.391 . S
C3666 H3656 0.950 . S
C3666 C3667 1.386 . S
C3666 C3668 1.391 . S
C3667 C3666 1.386 . S
C3667 C3671 1.393 . S
C3668 H3657 0.950 . S
C3668 C3666 1.391 . S
C3668 C3669 1.400 . S
C3669 C3663 1.491 . S
C3669 C3668 1.400 . S
C3669 C3670 1.398 . S
C3670 H3658 0.950 . S
C3670 C3669 1.398 . S
C3670 C3671 1.391 . S
C3671 H3659 0.950 . S
C3671 C3667 1.393 . S
C3671 C3670 1.391 . S
H3672 C3680 0.950 . S
H3673 C3685 0.950 . S
H3674 C3682 0.950 1_545 S
H3675 C3684 0.950 . S
H3676 C3686 0.950 . S
H3677 C3688 0.950 . S
H3678 C3690 0.950 . S
H3679 C3691 0.950 . S
C3680 H3672 0.950 . S
C3680 C3681 1.386 . S
C3680 C3682 1.391 . S
C3681 C3680 1.386 . S
C3681 C3685 1.393 . S
C3682 H3674 0.950 1_565 S
C3682 C3680 1.391 . S
C3682 C3683 1.395 1_565 S
C3683 C3682 1.395 1_545 S
C3683 C3684 1.385 1_545 S
C3683 C3689 1.509 . S
C3684 H3675 0.950 . S
C3684 C3683 1.385 1_565 S
C3684 C3685 1.391 . S
C3685 H3673 0.950 . S
C3685 C3681 1.393 . S
C3685 C3684 1.391 . S
C3686 H3676 0.950 . S
C3686 C3687 1.386 . S
C3686 C3688 1.391 . S
C3687 C3686 1.386 . S
C3687 C3691 1.393 . S
C3688 H3677 0.950 . S
C3688 C3686 1.391 . S
C3688 C3689 1.400 . S
C3689 C3683 1.509 . S
C3689 C3688 1.400 . S
C3689 C3690 1.398 . S
C3690 H3678 0.950 . S
C3690 C3689 1.398 . S
C3690 C3691 1.391 . S
C3691 H3679 0.950 . S
C3691 C3687 1.393 . S
C3691 C3690 1.391 . S
H3692 C3700 0.950 . S
H3693 C3705 0.950 . S
H3694 C3702 0.950 . S
H3695 C3704 0.950 . S
H3696 C3706 0.950 . S
H3697 C3708 0.950 . S
H3698 C3710 0.950 . S
H3699 C3711 0.950 . S
C3700 H3692 0.950 . S
C3700 C3701 1.386 . S
C3700 C3702 1.391 . S
C3701 C3700 1.386 . S
C3701 C3705 1.393 . S
C3702 H3694 0.950 . S
C3702 C3700 1.391 . S
C3702 C3703 1.400 . S
C3703 C3702 1.400 . S
C3703 C3704 1.398 . S
C3703 C3709 1.491 . S
C3704 H3695 0.950 . S
C3704 C3703 1.398 . S
C3704 C3705 1.391 . S
C3705 H3693 0.950 . S
C3705 C3701 1.393 . S
C3705 C3704 1.391 . S
C3706 H3696 0.950 . S
C3706 C3707 1.386 . S
C3706 C3708 1.391 . S
C3707 C3706 1.386 . S
C3707 C3711 1.393 . S
C3708 H3697 0.950 . S
C3708 C3706 1.391 . S
C3708 C3709 1.400 . S
C3709 C3703 1.491 . S
C3709 C3708 1.400 . S
C3709 C3710 1.398 . S
C3710 H3698 0.950 . S
C3710 C3709 1.398 . S
C3710 C3711 1.391 . S
C3711 H3699 0.950 . S
C3711 C3707 1.393 . S
C3711 C3710 1.391 . S
H3712 C3720 0.950 . S
H3713 C3725 0.950 . S
H3714 C3722 0.950 . S
H3715 C3724 0.950 . S
H3716 C3726 0.950 . S
H3717 C3728 0.950 . S
H3718 C3730 0.950 . S
H3719 C3731 0.950 . S
C3720 H3712 0.950 . S
C3720 C3721 1.386 . S
C3720 C3722 1.391 . S
C3721 C3720 1.386 . S
C3721 C3725 1.393 . S
C3722 H3714 0.950 . S
C3722 C3720 1.391 . S
C3722 C3723 1.390 1_545 S
C3723 C3722 1.390 1_565 S
C3723 C3724 1.390 1_565 S
C3723 C3729 1.509 . S
C3724 H3715 0.950 . S
C3724 C3723 1.390 1_545 S
C3724 C3725 1.391 . S
C3725 H3713 0.950 . S
C3725 C3721 1.393 . S
C3725 C3724 1.391 . S
C3726 H3716 0.950 . S
C3726 C3727 1.386 . S
C3726 C3728 1.391 1_554 S
C3727 C3726 1.386 . S
C3727 C3731 1.393 1_554 S
C3728 H3717 0.950 . S
C3728 C3726 1.391 1_556 S
C3728 C3729 1.400 . S
C3729 C3723 1.509 . S
C3729 C3728 1.400 . S
C3729 C3730 1.398 . S
C3730 H3718 0.950 . S
C3730 C3729 1.398 . S
C3730 C3731 1.391 . S
C3731 H3719 0.950 . S
C3731 C3727 1.393 1_556 S
C3731 C3730 1.391 . S
H3732 C3740 0.950 . S
H3733 C3745 0.950 . S
H3734 C3742 0.950 . S
H3735 C3744 0.950 . S
H3736 C3746 0.950 . S
H3737 C3748 0.950 . S
H3738 C3750 0.950 . S
H3739 C3751 0.950 . S
C3740 H3732 0.950 . S
C3740 C3741 1.386 . S
C3740 C3742 1.391 . S
C3741 C3740 1.386 . S
C3741 C3745 1.393 . S
C3742 H3734 0.950 . S
C3742 C3740 1.391 . S
C3742 C3743 1.400 . S
C3743 C3742 1.400 . S
C3743 C3744 1.398 . S
C3743 C3749 1.491 . S
C3744 H3735 0.950 . S
C3744 C3743 1.398 . S
C3744 C3745 1.391 . S
C3745 H3733 0.950 . S
C3745 C3741 1.393 . S
C3745 C3744 1.391 . S
C3746 H3736 0.950 . S
C3746 C3747 1.386 . S
C3746 C3748 1.391 . S
C3747 C3746 1.386 . S
C3747 C3751 1.393 . S
C3748 H3737 0.950 . S
C3748 C3746 1.391 . S
C3748 C3749 1.400 . S
C3749 C3743 1.491 . S
C3749 C3748 1.400 . S
C3749 C3750 1.398 . S
C3750 H3738 0.950 . S
C3750 C3749 1.398 . S
C3750 C3751 1.391 . S
C3751 H3739 0.950 . S
C3751 C3747 1.393 . S
C3751 C3750 1.391 . S
H3752 C3760 0.950 . S
H3753 C3765 0.950 . S
H3754 C3762 0.950 . S
H3755 C3764 0.950 . S
H3756 C3766 0.950 . S
H3757 C3768 0.950 . S
H3758 C3770 0.950 . S
H3759 C3771 0.950 . S
C3760 H3752 0.950 . S
C3760 C3761 1.386 . S
C3760 C3762 1.391 1_545 S
C3761 C3760 1.386 . S
C3761 C3765 1.393 . S
C3762 H3754 0.950 . S
C3762 C3760 1.391 1_565 S
C3762 C3763 1.407 . S
C3763 C3762 1.407 . S
C3763 C3764 1.356 1_565 S
C3763 C3769 1.526 . S
C3764 H3755 0.950 . S
C3764 C3763 1.356 1_545 S
C3764 C3765 1.391 . S
C3765 H3753 0.950 . S
C3765 C3761 1.393 . S
C3765 C3764 1.391 . S
C3766 H3756 0.950 . S
C3766 C3767 1.386 . S
C3766 C3768 1.391 1_556 S
C3767 C3766 1.386 . S
C3767 C3771 1.393 1_556 S
C3768 H3757 0.950 . S
C3768 C3766 1.391 1_554 S
C3768 C3769 1.400 . S
C3769 C3763 1.526 . S
C3769 C3768 1.400 . S
C3769 C3770 1.398 . S
C3770 H3758 0.950 . S
C3770 C3769 1.398 . S
C3770 C3771 1.391 . S
C3771 H3759 0.950 . S
C3771 C3767 1.393 1_554 S
C3771 C3770 1.391 . S
H3772 C3780 0.950 . S
H3773 C3785 0.950 . S
H3774 C3782 0.950 . S
H3775 C3784 0.950 . S
H3776 C3786 0.950 1_556 S
H3777 C3788 0.950 . S
H3778 C3790 0.950 . S
H3779 C3791 0.950 1_556 S
C3780 H3772 0.950 . S
C3780 C3781 1.386 . S
C3780 C3782 1.391 . S
C3781 C3780 1.386 . S
C3781 C3785 1.393 . S
C3782 H3774 0.950 . S
C3782 C3780 1.391 . S
C3782 C3783 1.400 . S
C3783 C3782 1.400 . S
C3783 C3784 1.398 . S
C3783 C3789 1.491 . S
C3784 H3775 0.950 . S
C3784 C3783 1.398 . S
C3784 C3785 1.391 . S
C3785 H3773 0.950 . S
C3785 C3781 1.393 . S
C3785 C3784 1.391 . S
C3786 H3776 0.950 1_554 S
C3786 C3787 1.386 1_554 S
C3786 C3788 1.391 . S
C3787 C3786 1.386 1_556 S
C3787 C3791 1.393 1_556 S
C3788 H3777 0.950 . S
C3788 C3786 1.391 . S
C3788 C3789 1.400 . S
C3789 C3783 1.491 . S
C3789 C3788 1.400 . S
C3789 C3790 1.398 . S
C3790 H3778 0.950 . S
C3790 C3789 1.398 . S
C3790 C3791 1.391 . S
C3791 H3779 0.950 1_554 S
C3791 C3787 1.393 1_554 S
C3791 C3790 1.391 . S
H3792 C3800 0.950 . S
H3793 C3805 0.950 . S
H3794 C3802 0.950 . S
H3795 C3804 0.950 . S
H3796 C3806 0.950 . S
H3797 C3808 0.950 . S
H3798 C3810 0.950 . S
H3799 C3811 0.950 . S
C3800 H3792 0.950 . S
C3800 C3801 1.386 . S
C3800 C3802 1.391 . S
C3801 C3800 1.386 . S
C3801 C3805 1.393 . S
C3802 H3794 0.950 . S
C3802 C3800 1.391 . S
C3802 C3803 1.400 . S
C3803 C3802 1.400 . S
C3803 C3804 1.398 . S
C3803 C3809 1.491 . S
C3804 H3795 0.950 . S
C3804 C3803 1.398 . S
C3804 C3805 1.391 . S
C3805 H3793 0.950 . S
C3805 C3801 1.393 . S
C3805 C3804 1.391 . S
C3806 H3796 0.950 . S
C3806 C3807 1.386 . S
C3806 C3808 1.391 . S
C3807 C3806 1.386 . S
C3807 C3811 1.393 . S
C3808 H3797 0.950 . S
C3808 C3806 1.391 . S
C3808 C3809 1.400 . S
C3809 C3803 1.491 . S
C3809 C3808 1.400 . S
C3809 C3810 1.398 . S
C3810 H3798 0.950 . S
C3810 C3809 1.398 . S
C3810 C3811 1.391 . S
C3811 H3799 0.950 . S
C3811 C3807 1.393 . S
C3811 C3810 1.391 . S
H3812 C3820 0.950 . S
H3813 C3825 0.950 . S
H3814 C3822 0.950 . S
H3815 C3824 0.950 . S
H3816 C3826 0.950 . S
H3817 C3828 0.950 . S
H3818 C3830 0.950 . S
H3819 C3831 0.950 . S
C3820 H3812 0.950 . S
C3820 C3821 1.386 . S
C3820 C3822 1.391 . S
C3821 C3820 1.386 . S
C3821 C3825 1.393 . S
C3822 H3814 0.950 . S
C3822 C3820 1.391 . S
C3822 C3823 1.400 . S
C3823 C3822 1.400 . S
C3823 C3824 1.398 . S
C3823 C3829 1.491 . S
C3824 H3815 0.950 . S
C3824 C3823 1.398 . S
C3824 C3825 1.391 . S
C3825 H3813 0.950 . S
C3825 C3821 1.393 . S
C3825 C3824 1.391 . S
C3826 H3816 0.950 . S
C3826 C3827 1.386 . S
C3826 C3828 1.391 . S
C3827 C3826 1.386 . S
C3827 C3831 1.393 . S
C3828 H3817 0.950 . S
C3828 C3826 1.391 . S
C3828 C3829 1.400 . S
C3829 C3823 1.491 . S
C3829 C3828 1.400 . S
C3829 C3830 1.398 . S
C3830 H3818 0.950 . S
C3830 C3829 1.398 . S
C3830 C3831 1.391 . S
C3831 H3819 0.950 . S
C3831 C3827 1.393 . S
C3831 C3830 1.391 . S
H3832 C3840 0.950 . S
H3833 C3845 0.950 . S
H3834 C3842 0.950 . S
H3835 C3844 0.950 . S
H3836 C3846 0.950 . S
H3837 C3848 0.950 . S
H3838 C3850 0.950 . S
H3839 C3851 0.950 . S
C3840 H3832 0.950 . S
C3840 C3841 1.386 . S
C3840 C3842 1.391 . S
C3841 C3840 1.386 . S
C3841 C3845 1.393 . S
C3842 H3834 0.950 . S
C3842 C3840 1.391 . S
C3842 C3843 1.400 . S
C3843 C3842 1.400 . S
C3843 C3844 1.398 . S
C3843 C3849 1.491 . S
C3844 H3835 0.950 . S
C3844 C3843 1.398 . S
C3844 C3845 1.391 . S
C3845 H3833 0.950 . S
C3845 C3841 1.393 . S
C3845 C3844 1.391 . S
C3846 H3836 0.950 . S
C3846 C3847 1.386 . S
C3846 C3848 1.391 . S
C3847 C3846 1.386 . S
C3847 C3851 1.393 . S
C3848 H3837 0.950 . S
C3848 C3846 1.391 . S
C3848 C3849 1.400 . S
C3849 C3843 1.491 . S
C3849 C3848 1.400 . S
C3849 C3850 1.398 . S
C3850 H3838 0.950 . S
C3850 C3849 1.398 . S
C3850 C3851 1.391 . S
C3851 H3839 0.950 . S
C3851 C3847 1.393 . S
C3851 C3850 1.391 . S
H3852 C3860 0.950 . S
H3853 C3865 0.950 . S
H3854 C3862 0.950 . S
H3855 C3864 0.950 . S
H3856 C3866 0.950 . S
H3857 C3868 0.950 . S
H3858 C3870 0.950 . S
H3859 C3871 0.950 . S
C3860 H3852 0.950 . S
C3860 C3861 1.386 . S
C3860 C3862 1.391 . S
C3861 C3860 1.386 . S
C3861 C3865 1.393 . S
C3862 H3854 0.950 . S
C3862 C3860 1.391 . S
C3862 C3863 1.400 . S
C3863 C3862 1.400 . S
C3863 C3864 1.398 . S
C3863 C3869 1.491 . S
C3864 H3855 0.950 . S
C3864 C3863 1.398 . S
C3864 C3865 1.391 . S
C3865 H3853 0.950 . S
C3865 C3861 1.393 . S
C3865 C3864 1.391 . S
C3866 H3856 0.950 . S
C3866 C3867 1.386 . S
C3866 C3868 1.391 . S
C3867 C3866 1.386 . S
C3867 C3871 1.393 . S
C3868 H3857 0.950 . S
C3868 C3866 1.391 . S
C3868 C3869 1.400 . S
C3869 C3863 1.491 . S
C3869 C3868 1.400 . S
C3869 C3870 1.398 . S
C3870 H3858 0.950 . S
C3870 C3869 1.398 . S
C3870 C3871 1.391 . S
C3871 H3859 0.950 . S
C3871 C3867 1.393 . S
C3871 C3870 1.391 . S
H3872 C3880 0.950 . S
H3873 C3885 0.950 . S
H3874 C3882 0.950 . S
H3875 C3884 0.950 . S
H3876 C3886 0.950 . S
H3877 C3888 0.950 . S
H3878 C3890 0.950 . S
H3879 C3891 0.950 . S
C3880 H3872 0.950 . S
C3880 C3881 1.386 . S
C3880 C3882 1.391 . S
C3881 C3880 1.386 . S
C3881 C3885 1.393 . S
C3882 H3874 0.950 . S
C3882 C3880 1.391 . S
C3882 C3883 1.400 . S
C3883 C3882 1.400 . S
C3883 C3884 1.398 . S
C3883 C3889 1.491 . S
C3884 H3875 0.950 . S
C3884 C3883 1.398 . S
C3884 C3885 1.391 . S
C3885 H3873 0.950 . S
C3885 C3881 1.393 . S
C3885 C3884 1.391 . S
C3886 H3876 0.950 . S
C3886 C3887 1.386 . S
C3886 C3888 1.391 . S
C3887 C3886 1.386 . S
C3887 C3891 1.393 . S
C3888 H3877 0.950 . S
C3888 C3886 1.391 . S
C3888 C3889 1.400 . S
C3889 C3883 1.491 . S
C3889 C3888 1.400 . S
C3889 C3890 1.398 . S
C3890 H3878 0.950 . S
C3890 C3889 1.398 . S
C3890 C3891 1.391 . S
C3891 H3879 0.950 . S
C3891 C3887 1.393 . S
C3891 C3890 1.391 . S
H3892 C3900 0.950 . S
H3893 C3905 0.950 . S
H3894 C3902 0.950 . S
H3895 C3904 0.950 . S
H3896 C3906 0.950 . S
H3897 C3908 0.950 . S
H3898 C3910 0.950 . S
H3899 C3911 0.950 . S
C3900 H3892 0.950 . S
C3900 C3901 1.386 . S
C3900 C3902 1.391 . S
C3901 C3900 1.386 . S
C3901 C3905 1.393 . S
C3902 H3894 0.950 . S
C3902 C3900 1.391 . S
C3902 C3903 1.400 . S
C3903 C3902 1.400 . S
C3903 C3904 1.398 . S
C3903 C3909 1.491 . S
C3904 H3895 0.950 . S
C3904 C3903 1.398 . S
C3904 C3905 1.391 . S
C3905 H3893 0.950 . S
C3905 C3901 1.393 . S
C3905 C3904 1.391 . S
C3906 H3896 0.950 . S
C3906 C3907 1.386 . S
C3906 C3908 1.391 . S
C3907 C3906 1.386 . S
C3907 C3911 1.393 . S
C3908 H3897 0.950 . S
C3908 C3906 1.391 . S
C3908 C3909 1.400 . S
C3909 C3903 1.491 . S
C3909 C3908 1.400 . S
C3909 C3910 1.398 . S
C3910 H3898 0.950 . S
C3910 C3909 1.398 . S
C3910 C3911 1.391 . S
C3911 H3899 0.950 . S
C3911 C3907 1.393 . S
C3911 C3910 1.391 . S
H3912 C3920 0.950 . S
H3913 C3925 0.950 . S
H3914 C3922 0.950 . S
H3915 C3924 0.950 . S
H3916 C3926 0.950 . S
H3917 C3928 0.950 . S
H3918 C3930 0.950 . S
H3919 C3931 0.950 . S
C3920 H3912 0.950 . S
C3920 C3921 1.386 . S
C3920 C3922 1.391 . S
C3921 C3920 1.386 . S
C3921 C3925 1.393 . S
C3922 H3914 0.950 . S
C3922 C3920 1.391 . S
C3922 C3923 1.400 . S
C3923 C3922 1.400 . S
C3923 C3924 1.398 . S
C3923 C3929 1.491 . S
C3924 H3915 0.950 . S
C3924 C3923 1.398 . S
C3924 C3925 1.391 . S
C3925 H3913 0.950 . S
C3925 C3921 1.393 . S
C3925 C3924 1.391 . S
C3926 H3916 0.950 . S
C3926 C3927 1.386 . S
C3926 C3928 1.391 . S
C3927 C3926 1.386 . S
C3927 C3931 1.393 . S
C3928 H3917 0.950 . S
C3928 C3926 1.391 . S
C3928 C3929 1.400 . S
C3929 C3923 1.491 . S
C3929 C3928 1.400 . S
C3929 C3930 1.398 . S
C3930 H3918 0.950 . S
C3930 C3929 1.398 . S
C3930 C3931 1.391 . S
C3931 H3919 0.950 . S
C3931 C3927 1.393 . S
C3931 C3930 1.391 . S
H3932 C3940 0.950 . S
H3933 C3945 0.950 . S
H3934 C3942 0.950 . S
H3935 C3944 0.950 . S
H3936 C3946 0.950 . S
H3937 C3948 0.950 . S
H3938 C3950 0.950 . S
H3939 C3951 0.950 . S
C3940 H3932 0.950 . S
C3940 C3941 1.386 . S
C3940 C3942 1.391 . S
C3941 C3940 1.386 . S
C3941 C3945 1.393 . S
C3942 H3934 0.950 . S
C3942 C3940 1.391 . S
C3942 C3943 1.400 . S
C3943 C3942 1.400 . S
C3943 C3944 1.398 . S
C3943 C3949 1.491 . S
C3944 H3935 0.950 . S
C3944 C3943 1.398 . S
C3944 C3945 1.391 . S
C3945 H3933 0.950 . S
C3945 C3941 1.393 . S
C3945 C3944 1.391 . S
C3946 H3936 0.950 . S
C3946 C3947 1.386 . S
C3946 C3948 1.391 . S
C3947 C3946 1.386 . S
C3947 C3951 1.393 . S
C3948 H3937 0.950 . S
C3948 C3946 1.391 . S
C3948 C3949 1.400 . S
C3949 C3943 1.491 . S
C3949 C3948 1.400 . S
C3949 C3950 1.398 . S
C3950 H3938 0.950 . S
C3950 C3949 1.398 . S
C3950 C3951 1.391 . S
C3951 H3939 0.950 . S
C3951 C3947 1.393 . S
C3951 C3950 1.391 . S
H3952 C3960 0.950 . S
H3953 C3965 0.950 . S
H3954 C3962 0.950 . S
H3955 C3964 0.950 . S
H3956 C3966 0.950 . S
H3957 C3968 0.950 . S
H3958 C3970 0.950 . S
H3959 C3971 0.950 . S
C3960 H3952 0.950 . S
C3960 C3961 1.386 . S
C3960 C3962 1.391 . S
C3961 C3960 1.386 . S
C3961 C3965 1.393 . S
C3962 H3954 0.950 . S
C3962 C3960 1.391 . S
C3962 C3963 1.400 . S
C3963 C3962 1.400 . S
C3963 C3964 1.398 . S
C3963 C3969 1.491 . S
C3964 H3955 0.950 . S
C3964 C3963 1.398 . S
C3964 C3965 1.391 . S
C3965 H3953 0.950 . S
C3965 C3961 1.393 . S
C3965 C3964 1.391 . S
C3966 H3956 0.950 . S
C3966 C3967 1.386 . S
C3966 C3968 1.391 . S
C3967 C3966 1.386 . S
C3967 C3971 1.393 . S
C3968 H3957 0.950 . S
C3968 C3966 1.391 . S
C3968 C3969 1.400 . S
C3969 C3963 1.491 . S
C3969 C3968 1.400 . S
C3969 C3970 1.398 . S
C3970 H3958 0.950 . S
C3970 C3969 1.398 . S
C3970 C3971 1.391 . S
C3971 H3959 0.950 . S
C3971 C3967 1.393 . S
C3971 C3970 1.391 . S
H3972 C3980 0.950 . S
H3973 C3985 0.950 . S
H3974 C3982 0.950 . S
H3975 C3984 0.950 . S
H3976 C3986 0.950 . S
H3977 C3988 0.950 . S
H3978 C3990 0.950 . S
H3979 C3991 0.950 . S
C3980 H3972 0.950 . S
C3980 C3981 1.386 . S
C3980 C3982 1.391 . S
C3981 C3980 1.386 . S
C3981 C3985 1.393 . S
C3982 H3974 0.950 . S
C3982 C3980 1.391 . S
C3982 C3983 1.400 . S
C3983 C3982 1.400 . S
C3983 C3984 1.398 . S
C3983 C3989 1.491 . S
C3984 H3975 0.950 . S
C3984 C3983 1.398 . S
C3984 C3985 1.391 . S
C3985 H3973 0.950 . S
C3985 C3981 1.393 . S
C3985 C3984 1.391 . S
C3986 H3976 0.950 . S
C3986 C3987 1.386 . S
C3986 C3988 1.391 . S
C3987 C3986 1.386 . S
C3987 C3991 1.393 . S
C3988 H3977 0.950 . S
C3988 C3986 1.391 . S
C3988 C3989 1.400 . S
C3989 C3983 1.491 . S
C3989 C3988 1.400 . S
C3989 C3990 1.398 . S
C3990 H3978 0.950 . S
C3990 C3989 1.398 . S
C3990 C3991 1.391 . S
C3991 H3979 0.950 . S
C3991 C3987 1.393 . S
C3991 C3990 1.391 . S
H3992 C4000 0.950 . S
H3993 C4005 0.950 . S
H3994 C4002 0.950 . S
H3995 C4004 0.950 . S
H3996 C4006 0.950 . S
H3997 C4008 0.950 . S
H3998 C4010 0.950 . S
H3999 C4011 0.950 . S
C4000 H3992 0.950 . S
C4000 C4001 1.386 . S
C4000 C4002 1.391 . S
C4001 C4000 1.386 . S
C4001 C4005 1.393 . S
C4002 H3994 0.950 . S
C4002 C4000 1.391 . S
C4002 C4003 1.400 . S
C4003 C4002 1.400 . S
C4003 C4004 1.398 . S
C4003 C4009 1.491 . S
C4004 H3995 0.950 . S
C4004 C4003 1.398 . S
C4004 C4005 1.391 . S
C4005 H3993 0.950 . S
C4005 C4001 1.393 . S
C4005 C4004 1.391 . S
C4006 H3996 0.950 . S
C4006 C4007 1.386 . S
C4006 C4008 1.391 . S
C4007 C4006 1.386 . S
C4007 C4011 1.393 . S
C4008 H3997 0.950 . S
C4008 C4006 1.391 . S
C4008 C4009 1.400 . S
C4009 C4003 1.491 . S
C4009 C4008 1.400 . S
C4009 C4010 1.398 . S
C4010 H3998 0.950 . S
C4010 C4009 1.398 . S
C4010 C4011 1.391 . S
C4011 H3999 0.950 . S
C4011 C4007 1.393 . S
C4011 C4010 1.391 . S
H4012 C4020 0.950 . S
H4013 C4025 0.950 . S
H4014 C4022 0.950 . S
H4015 C4024 0.950 . S
H4016 C4026 0.950 . S
H4017 C4028 0.950 . S
H4018 C4030 0.950 . S
H4019 C4031 0.950 . S
C4020 H4012 0.950 . S
C4020 C4021 1.386 . S
C4020 C4022 1.391 . S
C4021 C4020 1.386 . S
C4021 C4025 1.393 . S
C4022 H4014 0.950 . S
C4022 C4020 1.391 . S
C4022 C4023 1.400 . S
C4023 C4022 1.400 . S
C4023 C4024 1.398 . S
C4023 C4029 1.491 . S
C4024 H4015 0.950 . S
C4024 C4023 1.398 . S
C4024 C4025 1.391 . S
C4025 H4013 0.950 . S
C4025 C4021 1.393 . S
C4025 C4024 1.391 . S
C4026 H4016 0.950 . S
C4026 C4027 1.386 . S
C4026 C4028 1.391 . S
C4027 C4026 1.386 . S
C4027 C4031 1.393 . S
C4028 H4017 0.950 . S
C4028 C4026 1.391 . S
C4028 C4029 1.400 . S
C4029 C4023 1.491 . S
C4029 C4028 1.400 . S
C4029 C4030 1.398 . S
C4030 H4018 0.950 . S
C4030 C4029 1.398 . S
C4030 C4031 1.391 . S
C4031 H4019 0.950 . S
C4031 C4027 1.393 . S
C4031 C4030 1.391 . S
H4032 C4040 0.950 . S
H4033 C4045 0.950 . S
H4034 C4042 0.950 . S
H4035 C4044 0.950 . S
H4036 C4046 0.950 . S
H4037 C4048 0.950 . S
H4038 C4050 0.950 . S
H4039 C4051 0.950 . S
C4040 H4032 0.950 . S
C4040 C4041 1.386 . S
C4040 C4042 1.391 . S
C4041 C4040 1.386 . S
C4041 C4045 1.393 . S
C4042 H4034 0.950 . S
C4042 C4040 1.391 . S
C4042 C4043 1.400 . S
C4043 C4042 1.400 . S
C4043 C4044 1.398 . S
C4043 C4049 1.491 . S
C4044 H4035 0.950 . S
C4044 C4043 1.398 . S
C4044 C4045 1.391 . S
C4045 H4033 0.950 . S
C4045 C4041 1.393 . S
C4045 C4044 1.391 . S
C4046 H4036 0.950 . S
C4046 C4047 1.386 . S
C4046 C4048 1.391 . S
C4047 C4046 1.386 . S
C4047 C4051 1.393 . S
C4048 H4037 0.950 . S
C4048 C4046 1.391 . S
C4048 C4049 1.400 . S
C4049 C4043 1.491 . S
C4049 C4048 1.400 . S
C4049 C4050 1.398 . S
C4050 H4038 0.950 . S
C4050 C4049 1.398 . S
C4050 C4051 1.391 . S
C4051 H4039 0.950 . S
C4051 C4047 1.393 . S
C4051 C4050 1.391 . S
H4052 C4060 0.950 . S
H4053 C4065 0.950 . S
H4054 C4062 0.950 . S
H4055 C4064 0.950 . S
H4056 C4066 0.950 . S
H4057 C4068 0.950 . S
H4058 C4070 0.950 . S
H4059 C4071 0.950 . S
C4060 H4052 0.950 . S
C4060 C4061 1.386 . S
C4060 C4062 1.391 . S
C4061 C4060 1.386 . S
C4061 C4065 1.393 . S
C4062 H4054 0.950 . S
C4062 C4060 1.391 . S
C4062 C4063 1.400 . S
C4063 C4062 1.400 . S
C4063 C4064 1.398 . S
C4063 C4069 1.491 . S
C4064 H4055 0.950 . S
C4064 C4063 1.398 . S
C4064 C4065 1.391 . S
C4065 H4053 0.950 . S
C4065 C4061 1.393 . S
C4065 C4064 1.391 . S
C4066 H4056 0.950 . S
C4066 C4067 1.386 . S
C4066 C4068 1.391 . S
C4067 C4066 1.386 . S
C4067 C4071 1.393 . S
C4068 H4057 0.950 . S
C4068 C4066 1.391 . S
C4068 C4069 1.400 . S
C4069 C4063 1.491 . S
C4069 C4068 1.400 . S
C4069 C4070 1.398 . S
C4070 H4058 0.950 . S
C4070 C4069 1.398 . S
C4070 C4071 1.391 . S
C4071 H4059 0.950 . S
C4071 C4067 1.393 . S
C4071 C4070 1.391 . S
H4072 C4080 0.950 . S
H4073 C4085 0.950 . S
H4074 C4082 0.950 . S
H4075 C4084 0.950 . S
H4076 C4086 0.950 . S
H4077 C4088 0.950 . S
H4078 C4090 0.950 . S
H4079 C4091 0.950 . S
C4080 H4072 0.950 . S
C4080 C4081 1.386 . S
C4080 C4082 1.391 . S
C4081 C4080 1.386 . S
C4081 C4085 1.393 . S
C4082 H4074 0.950 . S
C4082 C4080 1.391 . S
C4082 C4083 1.400 . S
C4083 C4082 1.400 . S
C4083 C4084 1.398 . S
C4083 C4089 1.491 . S
C4084 H4075 0.950 . S
C4084 C4083 1.398 . S
C4084 C4085 1.391 . S
C4085 H4073 0.950 . S
C4085 C4081 1.393 . S
C4085 C4084 1.391 . S
C4086 H4076 0.950 . S
C4086 C4087 1.386 . S
C4086 C4088 1.391 . S
C4087 C4086 1.386 . S
C4087 C4091 1.393 . S
C4088 H4077 0.950 . S
C4088 C4086 1.391 . S
C4088 C4089 1.400 . S
C4089 C4083 1.491 . S
C4089 C4088 1.400 . S
C4089 C4090 1.398 . S
C4090 H4078 0.950 . S
C4090 C4089 1.398 . S
C4090 C4091 1.391 . S
C4091 H4079 0.950 . S
C4091 C4087 1.393 . S
C4091 C4090 1.391 . S
H4092 C4100 0.950 . S
H4093 C4105 0.950 . S
H4094 C4102 0.950 . S
H4095 C4104 0.950 . S
H4096 C4106 0.950 . S
H4097 C4108 0.950 . S
H4098 C4110 0.950 . S
H4099 C4111 0.950 . S
C4100 H4092 0.950 . S
C4100 C4101 1.386 . S
C4100 C4102 1.391 . S
C4101 C4100 1.386 . S
C4101 C4105 1.393 . S
C4102 H4094 0.950 . S
C4102 C4100 1.391 . S
C4102 C4103 1.400 . S
C4103 C4102 1.400 . S
C4103 C4104 1.398 . S
C4103 C4109 1.491 . S
C4104 H4095 0.950 . S
C4104 C4103 1.398 . S
C4104 C4105 1.391 . S
C4105 H4093 0.950 . S
C4105 C4101 1.393 . S
C4105 C4104 1.391 . S
C4106 H4096 0.950 . S
C4106 C4107 1.386 . S
C4106 C4108 1.391 . S
C4107 C4106 1.386 . S
C4107 C4111 1.393 . S
C4108 H4097 0.950 . S
C4108 C4106 1.391 . S
C4108 C4109 1.400 . S
C4109 C4103 1.491 . S
C4109 C4108 1.400 . S
C4109 C4110 1.398 . S
C4110 H4098 0.950 . S
C4110 C4109 1.398 . S
C4110 C4111 1.391 . S
C4111 H4099 0.950 . S
C4111 C4107 1.393 . S
C4111 C4110 1.391 . S
H4112 C4120 0.950 . S
H4113 C4125 0.950 . S
H4114 C4122 0.950 . S
H4115 C4124 0.950 . S
H4116 C4126 0.950 . S
H4117 C4128 0.950 . S
H4118 C4130 0.950 . S
H4119 C4131 0.950 . S
C4120 H4112 0.950 . S
C4120 C4121 1.386 . S
C4120 C4122 1.391 . S
C4121 C4120 1.386 . S
C4121 C4125 1.393 . S
C4122 H4114 0.950 . S
C4122 C4120 1.391 . S
C4122 C4123 1.400 . S
C4123 C4122 1.400 . S
C4123 C4124 1.398 . S
C4123 C4129 1.491 . S
C4124 H4115 0.950 . S
C4124 C4123 1.398 . S
C4124 C4125 1.391 . S
C4125 H4113 0.950 . S
C4125 C4121 1.393 . S
C4125 C4124 1.391 . S
C4126 H4116 0.950 . S
C4126 C4127 1.386 . S
C4126 C4128 1.391 . S
C4127 C4126 1.386 . S
C4127 C4131 1.393 . S
C4128 H4117 0.950 . S
C4128 C4126 1.391 . S
C4128 C4129 1.400 . S
C4129 C4123 1.491 . S
C4129 C4128 1.400 . S
C4129 C4130 1.398 . S
C4130 H4118 0.950 . S
C4130 C4129 1.398 . S
C4130 C4131 1.391 . S
C4131 H4119 0.950 . S
C4131 C4127 1.393 . S
C4131 C4130 1.391 . S
H4132 C4140 0.950 . S
H4133 C4145 0.950 . S
H4134 C4142 0.950 . S
H4135 C4144 0.950 . S
H4136 C4146 0.950 . S
H4137 C4148 0.950 . S
H4138 C4150 0.950 . S
H4139 C4151 0.950 . S
C4140 H4132 0.950 . S
C4140 C4141 1.386 . S
C4140 C4142 1.391 . S
C4141 C4140 1.386 . S
C4141 C4145 1.393 . S
C4142 H4134 0.950 . S
C4142 C4140 1.391 . S
C4142 C4143 1.400 . S
C4143 C4142 1.400 . S
C4143 C4144 1.398 . S
C4143 C4149 1.491 . S
C4144 H4135 0.950 . S
C4144 C4143 1.398 . S
C4144 C4145 1.391 . S
C4145 H4133 0.950 . S
C4145 C4141 1.393 . S
C4145 C4144 1.391 . S
C4146 H4136 0.950 . S
C4146 C4147 1.386 . S
C4146 C4148 1.391 . S
C4147 C4146 1.386 . S
C4147 C4151 1.393 . S
C4148 H4137 0.950 . S
C4148 C4146 1.391 . S
C4148 C4149 1.400 . S
C4149 C4143 1.491 . S
C4149 C4148 1.400 . S
C4149 C4150 1.398 . S
C4150 H4138 0.950 . S
C4150 C4149 1.398 . S
C4150 C4151 1.391 . S
C4151 H4139 0.950 . S
C4151 C4147 1.393 . S
C4151 C4150 1.391 . S
H4152 C4160 0.950 . S
H4153 C4165 0.950 . S
H4154 C4162 0.950 . S
H4155 C4164 0.950 . S
H4156 C4166 0.950 . S
H4157 C4168 0.950 . S
H4158 C4170 0.950 . S
H4159 C4171 0.950 . S
C4160 H4152 0.950 . S
C4160 C4161 1.386 . S
C4160 C4162 1.391 . S
C4161 C4160 1.386 . S
C4161 C4165 1.393 . S
C4162 H4154 0.950 . S
C4162 C4160 1.391 . S
C4162 C4163 1.400 . S
C4163 C4162 1.400 . S
C4163 C4164 1.398 . S
C4163 C4169 1.491 . S
C4164 H4155 0.950 . S
C4164 C4163 1.398 . S
C4164 C4165 1.391 . S
C4165 H4153 0.950 . S
C4165 C4161 1.393 . S
C4165 C4164 1.391 . S
C4166 H4156 0.950 . S
C4166 C4167 1.386 . S
C4166 C4168 1.391 . S
C4167 C4166 1.386 . S
C4167 C4171 1.393 . S
C4168 H4157 0.950 . S
C4168 C4166 1.391 . S
C4168 C4169 1.400 . S
C4169 C4163 1.491 . S
C4169 C4168 1.400 . S
C4169 C4170 1.398 . S
C4170 H4158 0.950 . S
C4170 C4169 1.398 . S
C4170 C4171 1.391 . S
C4171 H4159 0.950 . S
C4171 C4167 1.393 . S
C4171 C4170 1.391 . S
H4172 C4180 0.950 . S
H4173 C4185 0.950 . S
H4174 C4182 0.950 . S
H4175 C4184 0.950 . S
H4176 C4186 0.950 . S
H4177 C4188 0.950 . S
H4178 C4190 0.950 . S
H4179 C4191 0.950 . S
C4180 H4172 0.950 . S
C4180 C4181 1.386 . S
C4180 C4182 1.391 . S
C4181 C4180 1.386 . S
C4181 C4185 1.393 . S
C4182 H4174 0.950 . S
C4182 C4180 1.391 . S
C4182 C4183 1.400 . S
C4183 C4182 1.400 . S
C4183 C4184 1.398 . S
C4183 C4189 1.491 . S
C4184 H4175 0.950 . S
C4184 C4183 1.398 . S
C4184 C4185 1.391 . S
C4185 H4173 0.950 . S
C4185 C4181 1.393 . S
C4185 C4184 1.391 . S
C4186 H4176 0.950 . S
C4186 C4187 1.386 . S
C4186 C4188 1.391 . S
C4187 C4186 1.386 . S
C4187 C4191 1.393 . S
C4188 H4177 0.950 . S
C4188 C4186 1.391 . S
C4188 C4189 1.400 . S
C4189 C4183 1.491 . S
C4189 C4188 1.400 . S
C4189 C4190 1.398 . S
C4190 H4178 0.950 . S
C4190 C4189 1.398 . S
C4190 C4191 1.391 . S
C4191 H4179 0.950 . S
C4191 C4187 1.393 . S
C4191 C4190 1.391 . S
H4192 C4200 0.950 . S
H4193 C4205 0.950 . S
H4194 C4202 0.950 . S
H4195 C4204 0.950 . S
H4196 C4206 0.950 . S
H4197 C4208 0.950 . S
H4198 C4210 0.950 . S
H4199 C4211 0.950 . S
C4200 H4192 0.950 . S
C4200 C4201 1.386 . S
C4200 C4202 1.391 . S
C4201 C4200 1.386 . S
C4201 C4205 1.393 . S
C4202 H4194 0.950 . S
C4202 C4200 1.391 . S
C4202 C4203 1.400 . S
C4203 C4202 1.400 . S
C4203 C4204 1.398 . S
C4203 C4209 1.491 . S
C4204 H4195 0.950 . S
C4204 C4203 1.398 . S
C4204 C4205 1.391 . S
C4205 H4193 0.950 . S
C4205 C4201 1.393 . S
C4205 C4204 1.391 . S
C4206 H4196 0.950 . S
C4206 C4207 1.386 . S
C4206 C4208 1.391 . S
C4207 C4206 1.386 . S
C4207 C4211 1.393 . S
C4208 H4197 0.950 . S
C4208 C4206 1.391 . S
C4208 C4209 1.400 . S
C4209 C4203 1.491 . S
C4209 C4208 1.400 . S
C4209 C4210 1.398 . S
C4210 H4198 0.950 . S
C4210 C4209 1.398 . S
C4210 C4211 1.391 . S
C4211 H4199 0.950 . S
C4211 C4207 1.393 . S
C4211 C4210 1.391 . S
H4212 C4220 0.950 . S
H4213 C4225 0.950 . S
H4214 C4222 0.950 . S
H4215 C4224 0.950 . S
H4216 C4226 0.950 . S
H4217 C4228 0.950 . S
H4218 C4230 0.950 . S
H4219 C4231 0.950 . S
C4220 H4212 0.950 . S
C4220 C4221 1.386 . S
C4220 C4222 1.391 . S
C4221 C4220 1.386 . S
C4221 C4225 1.393 . S
C4222 H4214 0.950 . S
C4222 C4220 1.391 . S
C4222 C4223 1.400 . S
C4223 C4222 1.400 . S
C4223 C4224 1.398 . S
C4223 C4229 1.491 . S
C4224 H4215 0.950 . S
C4224 C4223 1.398 . S
C4224 C4225 1.391 . S
C4225 H4213 0.950 . S
C4225 C4221 1.393 . S
C4225 C4224 1.391 . S
C4226 H4216 0.950 . S
C4226 C4227 1.386 . S
C4226 C4228 1.391 . S
C4227 C4226 1.386 . S
C4227 C4231 1.393 . S
C4228 H4217 0.950 . S
C4228 C4226 1.391 . S
C4228 C4229 1.400 . S
C4229 C4223 1.491 . S
C4229 C4228 1.400 . S
C4229 C4230 1.398 . S
C4230 H4218 0.950 . S
C4230 C4229 1.398 . S
C4230 C4231 1.391 . S
C4231 H4219 0.950 . S
C4231 C4227 1.393 . S
C4231 C4230 1.391 . S
H4232 C4240 0.950 . S
H4233 C4245 0.950 . S
H4234 C4242 0.950 . S
H4235 C4244 0.950 . S
H4236 C4246 0.950 . S
H4237 C4248 0.950 . S
H4238 C4250 0.950 . S
H4239 C4251 0.950 . S
C4240 H4232 0.950 . S
C4240 C4241 1.386 . S
C4240 C4242 1.391 . S
C4241 C4240 1.386 . S
C4241 C4245 1.393 . S
C4242 H4234 0.950 . S
C4242 C4240 1.391 . S
C4242 C4243 1.400 . S
C4243 C4242 1.400 . S
C4243 C4244 1.398 . S
C4243 C4249 1.491 . S
C4244 H4235 0.950 . S
C4244 C4243 1.398 . S
C4244 C4245 1.391 . S
C4245 H4233 0.950 . S
C4245 C4241 1.393 . S
C4245 C4244 1.391 . S
C4246 H4236 0.950 . S
C4246 C4247 1.386 . S
C4246 C4248 1.391 . S
C4247 C4246 1.386 . S
C4247 C4251 1.393 . S
C4248 H4237 0.950 . S
C4248 C4246 1.391 . S
C4248 C4249 1.400 . S
C4249 C4243 1.491 . S
C4249 C4248 1.400 . S
C4249 C4250 1.398 . S
C4250 H4238 0.950 . S
C4250 C4249 1.398 . S
C4250 C4251 1.391 . S
C4251 H4239 0.950 . S
C4251 C4247 1.393 . S
C4251 C4250 1.391 . S
H4252 C4260 0.950 . S
H4253 C4265 0.950 . S
H4254 C4262 0.950 . S
H4255 C4264 0.950 . S
H4256 C4266 0.950 . S
H4257 C4268 0.950 . S
H4258 C4270 0.950 . S
H4259 C4271 0.950 . S
C4260 H4252 0.950 . S
C4260 C4261 1.386 . S
C4260 C4262 1.391 . S
C4261 C4260 1.386 . S
C4261 C4265 1.393 . S
C4262 H4254 0.950 . S
C4262 C4260 1.391 . S
C4262 C4263 1.400 . S
C4263 C4262 1.400 . S
C4263 C4264 1.398 . S
C4263 C4269 1.491 . S
C4264 H4255 0.950 . S
C4264 C4263 1.398 . S
C4264 C4265 1.391 . S
C4265 H4253 0.950 . S
C4265 C4261 1.393 . S
C4265 C4264 1.391 . S
C4266 H4256 0.950 . S
C4266 C4267 1.386 . S
C4266 C4268 1.391 . S
C4267 C4266 1.386 . S
C4267 C4271 1.393 . S
C4268 H4257 0.950 . S
C4268 C4266 1.391 . S
C4268 C4269 1.400 . S
C4269 C4263 1.491 . S
C4269 C4268 1.400 . S
C4269 C4270 1.398 . S
C4270 H4258 0.950 . S
C4270 C4269 1.398 . S
C4270 C4271 1.391 . S
C4271 H4259 0.950 . S
C4271 C4267 1.393 . S
C4271 C4270 1.391 . S
H4272 C4280 0.950 . S
H4273 C4285 0.950 . S
H4274 C4282 0.950 . S
H4275 C4284 0.950 . S
H4276 C4286 0.950 . S
H4277 C4288 0.950 . S
H4278 C4290 0.950 . S
H4279 C4291 0.950 . S
C4280 H4272 0.950 . S
C4280 C4281 1.386 . S
C4280 C4282 1.391 . S
C4281 C4280 1.386 . S
C4281 C4285 1.393 . S
C4282 H4274 0.950 . S
C4282 C4280 1.391 . S
C4282 C4283 1.400 . S
C4283 C4282 1.400 . S
C4283 C4284 1.398 . S
C4283 C4289 1.491 . S
C4284 H4275 0.950 . S
C4284 C4283 1.398 . S
C4284 C4285 1.391 . S
C4285 H4273 0.950 . S
C4285 C4281 1.393 . S
C4285 C4284 1.391 . S
C4286 H4276 0.950 . S
C4286 C4287 1.386 . S
C4286 C4288 1.391 . S
C4287 C4286 1.386 . S
C4287 C4291 1.393 . S
C4288 H4277 0.950 . S
C4288 C4286 1.391 . S
C4288 C4289 1.400 . S
C4289 C4283 1.491 . S
C4289 C4288 1.400 . S
C4289 C4290 1.398 . S
C4290 H4278 0.950 . S
C4290 C4289 1.398 . S
C4290 C4291 1.391 . S
C4291 H4279 0.950 . S
C4291 C4287 1.393 . S
C4291 C4290 1.391 . S
H4292 C4300 0.950 . S
H4293 C4305 0.950 . S
H4294 C4302 0.950 . S
H4295 C4304 0.950 . S
H4296 C4306 0.950 . S
H4297 C4308 0.950 . S
H4298 C4310 0.950 . S
H4299 C4311 0.950 . S
C4300 H4292 0.950 . S
C4300 C4301 1.386 . S
C4300 C4302 1.391 . S
C4301 C4300 1.386 . S
C4301 C4305 1.393 . S
C4302 H4294 0.950 . S
C4302 C4300 1.391 . S
C4302 C4303 1.400 . S
C4303 C4302 1.400 . S
C4303 C4304 1.398 . S
C4303 C4309 1.491 . S
C4304 H4295 0.950 . S
C4304 C4303 1.398 . S
C4304 C4305 1.391 . S
C4305 H4293 0.950 . S
C4305 C4301 1.393 . S
C4305 C4304 1.391 . S
C4306 H4296 0.950 . S
C4306 C4307 1.386 . S
C4306 C4308 1.391 . S
C4307 C4306 1.386 . S
C4307 C4311 1.393 . S
C4308 H4297 0.950 . S
C4308 C4306 1.391 . S
C4308 C4309 1.400 . S
C4309 C4303 1.491 . S
C4309 C4308 1.400 . S
C4309 C4310 1.398 . S
C4310 H4298 0.950 . S
C4310 C4309 1.398 . S
C4310 C4311 1.391 . S
C4311 H4299 0.950 . S
C4311 C4307 1.393 . S
C4311 C4310 1.391 . S
H4312 C4320 0.950 . S
H4313 C4325 0.950 . S
H4314 C4322 0.950 . S
H4315 C4324 0.950 . S
H4316 C4326 0.950 . S
H4317 C4328 0.950 . S
H4318 C4330 0.950 . S
H4319 C4331 0.950 . S
C4320 H4312 0.950 . S
C4320 C4321 1.386 . S
C4320 C4322 1.391 . S
C4321 C4320 1.386 . S
C4321 C4325 1.393 . S
C4322 H4314 0.950 . S
C4322 C4320 1.391 . S
C4322 C4323 1.400 . S
C4323 C4322 1.400 . S
C4323 C4324 1.398 . S
C4323 C4329 1.491 . S
C4324 H4315 0.950 . S
C4324 C4323 1.398 . S
C4324 C4325 1.391 . S
C4325 H4313 0.950 . S
C4325 C4321 1.393 . S
C4325 C4324 1.391 . S
C4326 H4316 0.950 . S
C4326 C4327 1.386 . S
C4326 C4328 1.391 . S
C4327 C4326 1.386 . S
C4327 C4331 1.393 . S
C4328 H4317 0.950 . S
C4328 C4326 1.391 . S
C4328 C4329 1.400 . S
C4329 C4323 1.491 . S
C4329 C4328 1.400 . S
C4329 C4330 1.398 . S
C4330 H4318 0.950 . S
C4330 C4329 1.398 . S
C4330 C4331 1.391 . S
C4331 H4319 0.950 . S
C4331 C4327 1.393 . S
C4331 C4330 1.391 . S
H4332 C4340 0.950 . S
H4333 C4345 0.950 . S
H4334 C4342 0.950 . S
H4335 C4344 0.950 . S
H4336 C4346 0.950 . S
H4337 C4348 0.950 . S
H4338 C4350 0.950 . S
H4339 C4351 0.950 . S
C4340 H4332 0.950 . S
C4340 C4341 1.386 . S
C4340 C4342 1.391 . S
C4341 C4340 1.386 . S
C4341 C4345 1.393 . S
C4342 H4334 0.950 . S
C4342 C4340 1.391 . S
C4342 C4343 1.400 . S
C4343 C4342 1.400 . S
C4343 C4344 1.398 . S
C4343 C4349 1.491 . S
C4344 H4335 0.950 . S
C4344 C4343 1.398 . S
C4344 C4345 1.391 . S
C4345 H4333 0.950 . S
C4345 C4341 1.393 . S
C4345 C4344 1.391 . S
C4346 H4336 0.950 . S
C4346 C4347 1.386 . S
C4346 C4348 1.391 . S
C4347 C4346 1.386 . S
C4347 C4351 1.393 . S
C4348 H4337 0.950 . S
C4348 C4346 1.391 . S
C4348 C4349 1.400 . S
C4349 C4343 1.491 . S
C4349 C4348 1.400 . S
C4349 C4350 1.398 . S
C4350 H4338 0.950 . S
C4350 C4349 1.398 . S
C4350 C4351 1.391 . S
C4351 H4339 0.950 . S
C4351 C4347 1.393 . S
C4351 C4350 1.391 . S
H4352 C4360 0.950 . S
H4353 C4365 0.950 . S
H4354 C4362 0.950 . S
H4355 C4364 0.950 . S
H4356 C4366 0.950 . S
H4357 C4368 0.950 . S
H4358 C4370 0.950 . S
H4359 C4371 0.950 . S
C4360 H4352 0.950 . S
C4360 C4361 1.386 . S
C4360 C4362 1.391 . S
C4361 C4360 1.386 . S
C4361 C4365 1.393 . S
C4362 H4354 0.950 . S
C4362 C4360 1.391 . S
C4362 C4363 1.400 . S
C4363 C4362 1.400 . S
C4363 C4364 1.398 . S
C4363 C4369 1.491 . S
C4364 H4355 0.950 . S
C4364 C4363 1.398 . S
C4364 C4365 1.391 . S
C4365 H4353 0.950 . S
C4365 C4361 1.393 . S
C4365 C4364 1.391 . S
C4366 H4356 0.950 . S
C4366 C4367 1.386 . S
C4366 C4368 1.391 . S
C4367 C4366 1.386 . S
C4367 C4371 1.393 . S
C4368 H4357 0.950 . S
C4368 C4366 1.391 . S
C4368 C4369 1.400 . S
C4369 C4363 1.491 . S
C4369 C4368 1.400 . S
C4369 C4370 1.398 . S
C4370 H4358 0.950 . S
C4370 C4369 1.398 . S
C4370 C4371 1.391 . S
C4371 H4359 0.950 . S
C4371 C4367 1.393 . S
C4371 C4370 1.391 . S
H4372 C4380 0.950 . S
H4373 C4385 0.950 . S
H4374 C4382 0.950 . S
H4375 C4384 0.950 . S
H4376 C4386 0.950 . S
H4377 C4388 0.950 . S
H4378 C4390 0.950 . S
H4379 C4391 0.950 . S
C4380 H4372 0.950 . S
C4380 C4381 1.386 . S
C4380 C4382 1.391 . S
C4381 C4380 1.386 . S
C4381 C4385 1.393 . S
C4382 H4374 0.950 . S
C4382 C4380 1.391 . S
C4382 C4383 1.400 . S
C4383 C4382 1.400 . S
C4383 C4384 1.398 . S
C4383 C4389 1.491 . S
C4384 H4375 0.950 . S
C4384 C4383 1.398 . S
C4384 C4385 1.391 . S
C4385 H4373 0.950 . S
C4385 C4381 1.393 . S
C4385 C4384 1.391 . S
C4386 H4376 0.950 . S
C4386 C4387 1.386 . S
C4386 C4388 1.391 . S
C4387 C4386 1.386 . S
C4387 C4391 1.393 . S
C4388 H4377 0.950 . S
C4388 C4386 1.391 . S
C4388 C4389 1.400 . S
C4389 C4383 1.491 . S
C4389 C4388 1.400 . S
C4389 C4390 1.398 . S
C4390 H4378 0.950 . S
C4390 C4389 1.398 . S
C4390 C4391 1.391 . S
C4391 H4379 0.950 . S
C4391 C4387 1.393 . S
C4391 C4390 1.391 . S
H4392 C4400 0.950 . S
H4393 C4405 0.950 . S
H4394 C4402 0.950 . S
H4395 C4404 0.950 . S
H4396 C4406 0.950 . S
H4397 C4408 0.950 . S
H4398 C4410 0.950 . S
H4399 C4411 0.950 . S
C4400 H4392 0.950 . S
C4400 C4401 1.386 . S
C4400 C4402 1.391 . S
C4401 C4400 1.386 . S
C4401 C4405 1.393 . S
C4402 H4394 0.950 . S
C4402 C4400 1.391 . S
C4402 C4403 1.400 . S
C4403 C4402 1.400 . S
C4403 C4404 1.398 . S
C4403 C4409 1.491 . S
C4404 H4395 0.950 . S
C4404 C4403 1.398 . S
C4404 C4405 1.391 . S
C4405 H4393 0.950 . S
C4405 C4401 1.393 . S
C4405 C4404 1.391 . S
C4406 H4396 0.950 . S
C4406 C4407 1.386 . S
C4406 C4408 1.391 . S
C4407 C4406 1.386 . S
C4407 C4411 1.393 . S
C4408 H4397 0.950 . S
C4408 C4406 1.391 . S
C4408 C4409 1.400 . S
C4409 C4403 1.491 . S
C4409 C4408 1.400 . S
C4409 C4410 1.398 . S
C4410 H4398 0.950 . S
C4410 C4409 1.398 . S
C4410 C4411 1.391 . S
C4411 H4399 0.950 . S
C4411 C4407 1.393 . S
C4411 C4410 1.391 . S
H4412 C4420 0.950 . S
H4413 C4425 0.950 . S
H4414 C4422 0.950 . S
H4415 C4424 0.950 . S
H4416 C4426 0.950 . S
H4417 C4428 0.950 . S
H4418 C4430 0.950 . S
H4419 C4431 0.950 . S
C4420 H4412 0.950 . S
C4420 C4421 1.386 . S
C4420 C4422 1.391 . S
C4421 C4420 1.386 . S
C4421 C4425 1.393 . S
C4422 H4414 0.950 . S
C4422 C4420 1.391 . S
C4422 C4423 1.400 . S
C4423 C4422 1.400 . S
C4423 C4424 1.398 . S
C4423 C4429 1.491 . S
C4424 H4415 0.950 . S
C4424 C4423 1.398 . S
C4424 C4425 1.391 . S
C4425 H4413 0.950 . S
C4425 C4421 1.393 . S
C4425 C4424 1.391 . S
C4426 H4416 0.950 . S
C4426 C4427 1.386 . S
C4426 C4428 1.391 . S
C4427 C4426 1.386 . S
C4427 C4431 1.393 . S
C4428 H4417 0.950 . S
C4428 C4426 1.391 . S
C4428 C4429 1.400 . S
C4429 C4423 1.491 . S
C4429 C4428 1.400 . S
C4429 C4430 1.398 . S
C4430 H4418 0.950 . S
C4430 C4429 1.398 . S
C4430 C4431 1.391 . S
C4431 H4419 0.950 . S
C4431 C4427 1.393 . S
C4431 C4430 1.391 . S
H4432 C4440 0.950 . S
H4433 C4445 0.950 . S
H4434 C4442 0.950 . S
H4435 C4444 0.950 . S
H4436 C4446 0.950 . S
H4437 C4448 0.950 . S
H4438 C4450 0.950 . S
H4439 C4451 0.950 . S
C4440 H4432 0.950 . S
C4440 C4441 1.386 . S
C4440 C4442 1.391 . S
C4441 C4440 1.386 . S
C4441 C4445 1.393 . S
C4442 H4434 0.950 . S
C4442 C4440 1.391 . S
C4442 C4443 1.400 . S
C4443 C4442 1.400 . S
C4443 C4444 1.398 . S
C4443 C4449 1.491 . S
C4444 H4435 0.950 . S
C4444 C4443 1.398 . S
C4444 C4445 1.391 . S
C4445 H4433 0.950 . S
C4445 C4441 1.393 . S
C4445 C4444 1.391 . S
C4446 H4436 0.950 . S
C4446 C4447 1.386 . S
C4446 C4448 1.391 . S
C4447 C4446 1.386 . S
C4447 C4451 1.393 . S
C4448 H4437 0.950 . S
C4448 C4446 1.391 . S
C4448 C4449 1.400 . S
C4449 C4443 1.491 . S
C4449 C4448 1.400 . S
C4449 C4450 1.398 . S
C4450 H4438 0.950 . S
C4450 C4449 1.398 . S
C4450 C4451 1.391 . S
C4451 H4439 0.950 . S
C4451 C4447 1.393 . S
C4451 C4450 1.391 . S
H4452 C4460 0.950 . S
H4453 C4465 0.950 . S
H4454 C4462 0.950 . S
H4455 C4464 0.950 . S
H4456 C4466 0.950 . S
H4457 C4468 0.950 . S
H4458 C4470 0.950 . S
H4459 C4471 0.950 . S
C4460 H4452 0.950 . S
C4460 C4461 1.386 . S
C4460 C4462 1.391 . S
C4461 C4460 1.386 . S
C4461 C4465 1.393 . S
C4462 H4454 0.950 . S
C4462 C4460 1.391 . S
C4462 C4463 1.400 . S
C4463 C4462 1.400 . S
C4463 C4464 1.398 . S
C4463 C4469 1.491 . S
C4464 H4455 0.950 . S
C4464 C4463 1.398 . S
C4464 C4465 1.391 . S
C4465 H4453 0.950 . S
C4465 C4461 1.393 . S
C4465 C4464 1.391 . S
C4466 H4456 0.950 . S
C4466 C4467 1.386 . S
C4466 C4468 1.391 . S
C4467 C4466 1.386 . S
C4467 C4471 1.393 . S
C4468 H4457 0.950 . S
C4468 C4466 1.391 . S
C4468 C4469 1.400 . S
C4469 C4463 1.491 . S
C4469 C4468 1.400 . S
C4469 C4470 1.398 . S
C4470 H4458 0.950 . S
C4470 C4469 1.398 . S
C4470 C4471 1.391 . S
C4471 H4459 0.950 . S
C4471 C4467 1.393 . S
C4471 C4470 1.391 . S
H4472 C4480 0.950 . S
H4473 C4485 0.950 . S
H4474 C4482 0.950 . S
H4475 C4484 0.950 . S
H4476 C4486 0.950 . S
H4477 C4488 0.950 . S
H4478 C4490 0.950 . S
H4479 C4491 0.950 . S
C4480 H4472 0.950 . S
C4480 C4481 1.386 . S
C4480 C4482 1.391 . S
C4481 C4480 1.386 . S
C4481 C4485 1.393 . S
C4482 H4474 0.950 . S
C4482 C4480 1.391 . S
C4482 C4483 1.400 . S
C4483 C4482 1.400 . S
C4483 C4484 1.398 . S
C4483 C4489 1.491 . S
C4484 H4475 0.950 . S
C4484 C4483 1.398 . S
C4484 C4485 1.391 . S
C4485 H4473 0.950 . S
C4485 C4481 1.393 . S
C4485 C4484 1.391 . S
C4486 H4476 0.950 . S
C4486 C4487 1.386 . S
C4486 C4488 1.391 . S
C4487 C4486 1.386 . S
C4487 C4491 1.393 . S
C4488 H4477 0.950 . S
C4488 C4486 1.391 . S
C4488 C4489 1.400 . S
C4489 C4483 1.491 . S
C4489 C4488 1.400 . S
C4489 C4490 1.398 . S
C4490 H4478 0.950 . S
C4490 C4489 1.398 . S
C4490 C4491 1.391 . S
C4491 H4479 0.950 . S
C4491 C4487 1.393 . S
C4491 C4490 1.391 . S
H4492 C4500 0.950 . S
H4493 C4505 0.950 . S
H4494 C4502 0.950 . S
H4495 C4504 0.950 . S
H4496 C4506 0.950 . S
H4497 C4508 0.950 . S
H4498 C4510 0.950 . S
H4499 C4511 0.950 . S
C4500 H4492 0.950 . S
C4500 C4501 1.386 . S
C4500 C4502 1.391 . S
C4501 C4500 1.386 . S
C4501 C4505 1.393 . S
C4502 H4494 0.950 . S
C4502 C4500 1.391 . S
C4502 C4503 1.400 . S
C4503 C4502 1.400 . S
C4503 C4504 1.398 . S
C4503 C4509 1.491 . S
C4504 H4495 0.950 . S
C4504 C4503 1.398 . S
C4504 C4505 1.391 . S
C4505 H4493 0.950 . S
C4505 C4501 1.393 . S
C4505 C4504 1.391 . S
C4506 H4496 0.950 . S
C4506 C4507 1.386 . S
C4506 C4508 1.391 . S
C4507 C4506 1.386 . S
C4507 C4511 1.393 . S
C4508 H4497 0.950 . S
C4508 C4506 1.391 . S
C4508 C4509 1.400 . S
C4509 C4503 1.491 . S
C4509 C4508 1.400 . S
C4509 C4510 1.398 . S
C4510 H4498 0.950 . S
C4510 C4509 1.398 . S
C4510 C4511 1.391 . S
C4511 H4499 0.950 . S
C4511 C4507 1.393 . S
C4511 C4510 1.391 . S
H4512 C4520 0.950 . S
H4513 C4525 0.950 . S
H4514 C4522 0.950 . S
H4515 C4524 0.950 . S
H4516 C4526 0.950 . S
H4517 C4528 0.950 . S
H4518 C4530 0.950 . S
H4519 C4531 0.950 . S
C4520 H4512 0.950 . S
C4520 C4521 1.386 . S
C4520 C4522 1.391 . S
C4521 C4520 1.386 . S
C4521 C4525 1.393 . S
C4522 H4514 0.950 . S
C4522 C4520 1.391 . S
C4522 C4523 1.400 . S
C4523 C4522 1.400 . S
C4523 C4524 1.398 . S
C4523 C4529 1.491 . S
C4524 H4515 0.950 . S
C4524 C4523 1.398 . S
C4524 C4525 1.391 . S
C4525 H4513 0.950 . S
C4525 C4521 1.393 . S
C4525 C4524 1.391 . S
C4526 H4516 0.950 . S
C4526 C4527 1.386 . S
C4526 C4528 1.391 . S
C4527 C4526 1.386 . S
C4527 C4531 1.393 . S
C4528 H4517 0.950 . S
C4528 C4526 1.391 . S
C4528 C4529 1.400 . S
C4529 C4523 1.491 . S
C4529 C4528 1.400 . S
C4529 C4530 1.398 . S
C4530 H4518 0.950 . S
C4530 C4529 1.398 . S
C4530 C4531 1.391 . S
C4531 H4519 0.950 . S
C4531 C4527 1.393 . S
C4531 C4530 1.391 . S
H4532 C4540 0.950 . S
H4533 C4545 0.950 . S
H4534 C4542 0.950 . S
H4535 C4544 0.950 . S
H4536 C4546 0.950 . S
H4537 C4548 0.950 . S
H4538 C4550 0.950 . S
H4539 C4551 0.950 . S
C4540 H4532 0.950 . S
C4540 C4541 1.386 . S
C4540 C4542 1.391 . S
C4541 C4540 1.386 . S
C4541 C4545 1.393 . S
C4542 H4534 0.950 . S
C4542 C4540 1.391 . S
C4542 C4543 1.400 . S
C4543 C4542 1.400 . S
C4543 C4544 1.398 . S
C4543 C4549 1.491 . S
C4544 H4535 0.950 . S
C4544 C4543 1.398 . S
C4544 C4545 1.391 . S
C4545 H4533 0.950 . S
C4545 C4541 1.393 . S
C4545 C4544 1.391 . S
C4546 H4536 0.950 . S
C4546 C4547 1.386 . S
C4546 C4548 1.391 . S
C4547 C4546 1.386 . S
C4547 C4551 1.393 . S
C4548 H4537 0.950 . S
C4548 C4546 1.391 . S
C4548 C4549 1.400 . S
C4549 C4543 1.491 . S
C4549 C4548 1.400 . S
C4549 C4550 1.398 . S
C4550 H4538 0.950 . S
C4550 C4549 1.398 . S
C4550 C4551 1.391 . S
C4551 H4539 0.950 . S
C4551 C4547 1.393 . S
C4551 C4550 1.391 . S
H4552 C4560 0.950 . S
H4553 C4565 0.950 . S
H4554 C4562 0.950 . S
H4555 C4564 0.950 . S
H4556 C4566 0.950 . S
H4557 C4568 0.950 . S
H4558 C4570 0.950 . S
H4559 C4571 0.950 . S
C4560 H4552 0.950 . S
C4560 C4561 1.386 . S
C4560 C4562 1.391 . S
C4561 C4560 1.386 . S
C4561 C4565 1.393 . S
C4562 H4554 0.950 . S
C4562 C4560 1.391 . S
C4562 C4563 1.400 . S
C4563 C4562 1.400 . S
C4563 C4564 1.398 . S
C4563 C4569 1.491 . S
C4564 H4555 0.950 . S
C4564 C4563 1.398 . S
C4564 C4565 1.391 . S
C4565 H4553 0.950 . S
C4565 C4561 1.393 . S
C4565 C4564 1.391 . S
C4566 H4556 0.950 . S
C4566 C4567 1.386 . S
C4566 C4568 1.391 . S
C4567 C4566 1.386 . S
C4567 C4571 1.393 . S
C4568 H4557 0.950 . S
C4568 C4566 1.391 . S
C4568 C4569 1.400 . S
C4569 C4563 1.491 . S
C4569 C4568 1.400 . S
C4569 C4570 1.398 . S
C4570 H4558 0.950 . S
C4570 C4569 1.398 . S
C4570 C4571 1.391 . S
C4571 H4559 0.950 . S
C4571 C4567 1.393 . S
C4571 C4570 1.391 . S
H4572 C4580 0.950 . S
H4573 C4585 0.950 . S
H4574 C4582 0.950 . S
H4575 C4584 0.950 . S
H4576 C4586 0.950 . S
H4577 C4588 0.950 . S
H4578 C4590 0.950 . S
H4579 C4591 0.950 . S
C4580 H4572 0.950 . S
C4580 C4581 1.386 . S
C4580 C4582 1.391 . S
C4581 C4580 1.386 . S
C4581 C4585 1.393 . S
C4582 H4574 0.950 . S
C4582 C4580 1.391 . S
C4582 C4583 1.400 . S
C4583 C4582 1.400 . S
C4583 C4584 1.398 . S
C4583 C4589 1.491 . S
C4584 H4575 0.950 . S
C4584 C4583 1.398 . S
C4584 C4585 1.391 . S
C4585 H4573 0.950 . S
C4585 C4581 1.393 . S
C4585 C4584 1.391 . S
C4586 H4576 0.950 . S
C4586 C4587 1.386 . S
C4586 C4588 1.391 . S
C4587 C4586 1.386 . S
C4587 C4591 1.393 . S
C4588 H4577 0.950 . S
C4588 C4586 1.391 . S
C4588 C4589 1.400 . S
C4589 C4583 1.491 . S
C4589 C4588 1.400 . S
C4589 C4590 1.398 . S
C4590 H4578 0.950 . S
C4590 C4589 1.398 . S
C4590 C4591 1.391 . S
C4591 H4579 0.950 . S
C4591 C4587 1.393 . S
C4591 C4590 1.391 . S
H4592 C4600 0.950 . S
H4593 C4605 0.950 . S
H4594 C4602 0.950 . S
H4595 C4604 0.950 . S
H4596 C4606 0.950 . S
H4597 C4608 0.950 . S
H4598 C4610 0.950 . S
H4599 C4611 0.950 . S
C4600 H4592 0.950 . S
C4600 C4601 1.386 . S
C4600 C4602 1.391 . S
C4601 C4600 1.386 . S
C4601 C4605 1.393 . S
C4602 H4594 0.950 . S
C4602 C4600 1.391 . S
C4602 C4603 1.400 . S
C4603 C4602 1.400 . S
C4603 C4604 1.398 . S
C4603 C4609 1.491 . S
C4604 H4595 0.950 . S
C4604 C4603 1.398 . S
C4604 C4605 1.391 . S
C4605 H4593 0.950 . S
C4605 C4601 1.393 . S
C4605 C4604 1.391 . S
C4606 H4596 0.950 . S
C4606 C4607 1.386 . S
C4606 C4608 1.391 . S
C4607 C4606 1.386 . S
C4607 C4611 1.393 . S
C4608 H4597 0.950 . S
C4608 C4606 1.391 . S
C4608 C4609 1.400 . S
C4609 C4603 1.491 . S
C4609 C4608 1.400 . S
C4609 C4610 1.398 . S
C4610 H4598 0.950 . S
C4610 C4609 1.398 . S
C4610 C4611 1.391 . S
C4611 H4599 0.950 . S
C4611 C4607 1.393 . S
C4611 C4610 1.391 . S
H4612 C4620 0.950 . S
H4613 C4625 0.950 . S
H4614 C4622 0.950 . S
H4615 C4624 0.950 . S
H4616 C4626 0.950 . S
H4617 C4628 0.950 . S
H4618 C4630 0.950 . S
H4619 C4631 0.950 . S
C4620 H4612 0.950 . S
C4620 C4621 1.386 . S
C4620 C4622 1.391 . S
C4621 C4620 1.386 . S
C4621 C4625 1.393 . S
C4622 H4614 0.950 . S
C4622 C4620 1.391 . S
C4622 C4623 1.400 . S
C4623 C4622 1.400 . S
C4623 C4624 1.398 . S
C4623 C4629 1.491 . S
C4624 H4615 0.950 . S
C4624 C4623 1.398 . S
C4624 C4625 1.391 . S
C4625 H4613 0.950 . S
C4625 C4621 1.393 . S
C4625 C4624 1.391 . S
C4626 H4616 0.950 . S
C4626 C4627 1.386 . S
C4626 C4628 1.391 . S
C4627 C4626 1.386 . S
C4627 C4631 1.393 . S
C4628 H4617 0.950 . S
C4628 C4626 1.391 . S
C4628 C4629 1.400 . S
C4629 C4623 1.491 . S
C4629 C4628 1.400 . S
C4629 C4630 1.398 . S
C4630 H4618 0.950 . S
C4630 C4629 1.398 . S
C4630 C4631 1.391 . S
C4631 H4619 0.950 . S
C4631 C4627 1.393 . S
C4631 C4630 1.391 . S
H4632 C4640 0.950 . S
H4633 C4645 0.950 . S
H4634 C4642 0.950 . S
H4635 C4644 0.950 . S
H4636 C4646 0.950 . S
H4637 C4648 0.950 . S
H4638 C4650 0.950 . S
H4639 C4651 0.950 . S
C4640 H4632 0.950 . S
C4640 C4641 1.386 . S
C4640 C4642 1.391 . S
C4641 C4640 1.386 . S
C4641 C4645 1.393 . S
C4642 H4634 0.950 . S
C4642 C4640 1.391 . S
C4642 C4643 1.400 . S
C4643 C4642 1.400 . S
C4643 C4644 1.398 . S
C4643 C4649 1.491 . S
C4644 H4635 0.950 . S
C4644 C4643 1.398 . S
C4644 C4645 1.391 . S
C4645 H4633 0.950 . S
C4645 C4641 1.393 . S
C4645 C4644 1.391 . S
C4646 H4636 0.950 . S
C4646 C4647 1.386 . S
C4646 C4648 1.391 . S
C4647 C4646 1.386 . S
C4647 C4651 1.393 . S
C4648 H4637 0.950 . S
C4648 C4646 1.391 . S
C4648 C4649 1.400 . S
C4649 C4643 1.491 . S
C4649 C4648 1.400 . S
C4649 C4650 1.398 . S
C4650 H4638 0.950 . S
C4650 C4649 1.398 . S
C4650 C4651 1.391 . S
C4651 H4639 0.950 . S
C4651 C4647 1.393 . S
C4651 C4650 1.391 . S
H4652 C4660 0.950 . S
H4653 C4665 0.950 . S
H4654 C4662 0.950 . S
H4655 C4664 0.950 . S
H4656 C4666 0.950 . S
H4657 C4668 0.950 . S
H4658 C4670 0.950 . S
H4659 C4671 0.950 . S
C4660 H4652 0.950 . S
C4660 C4661 1.386 . S
C4660 C4662 1.391 . S
C4661 C4660 1.386 . S
C4661 C4665 1.393 . S
C4662 H4654 0.950 . S
C4662 C4660 1.391 . S
C4662 C4663 1.400 . S
C4663 C4662 1.400 . S
C4663 C4664 1.398 . S
C4663 C4669 1.491 . S
C4664 H4655 0.950 . S
C4664 C4663 1.398 . S
C4664 C4665 1.391 . S
C4665 H4653 0.950 . S
C4665 C4661 1.393 . S
C4665 C4664 1.391 . S
C4666 H4656 0.950 . S
C4666 C4667 1.386 . S
C4666 C4668 1.391 . S
C4667 C4666 1.386 . S
C4667 C4671 1.393 . S
C4668 H4657 0.950 . S
C4668 C4666 1.391 . S
C4668 C4669 1.400 . S
C4669 C4663 1.491 . S
C4669 C4668 1.400 . S
C4669 C4670 1.398 . S
C4670 H4658 0.950 . S
C4670 C4669 1.398 . S
C4670 C4671 1.391 . S
C4671 H4659 0.950 . S
C4671 C4667 1.393 . S
C4671 C4670 1.391 . S
H4672 C4680 0.950 . S
H4673 C4685 0.950 . S
H4674 C4682 0.950 . S
H4675 C4684 0.950 . S
H4676 C4686 0.950 . S
H4677 C4688 0.950 . S
H4678 C4690 0.950 . S
H4679 C4691 0.950 . S
C4680 H4672 0.950 . S
C4680 C4681 1.386 . S
C4680 C4682 1.391 . S
C4681 C4680 1.386 . S
C4681 C4685 1.393 . S
C4682 H4674 0.950 . S
C4682 C4680 1.391 . S
C4682 C4683 1.400 . S
C4683 C4682 1.400 . S
C4683 C4684 1.398 . S
C4683 C4689 1.491 . S
C4684 H4675 0.950 . S
C4684 C4683 1.398 . S
C4684 C4685 1.391 . S
C4685 H4673 0.950 . S
C4685 C4681 1.393 . S
C4685 C4684 1.391 . S
C4686 H4676 0.950 . S
C4686 C4687 1.386 . S
C4686 C4688 1.391 . S
C4687 C4686 1.386 . S
C4687 C4691 1.393 . S
C4688 H4677 0.950 . S
C4688 C4686 1.391 . S
C4688 C4689 1.400 . S
C4689 C4683 1.491 . S
C4689 C4688 1.400 . S
C4689 C4690 1.398 . S
C4690 H4678 0.950 . S
C4690 C4689 1.398 . S
C4690 C4691 1.391 . S
C4691 H4679 0.950 . S
C4691 C4687 1.393 . S
C4691 C4690 1.391 . S
H4692 C4700 0.950 . S
H4693 C4705 0.950 . S
H4694 C4702 0.950 . S
H4695 C4704 0.950 . S
H4696 C4706 0.950 . S
H4697 C4708 0.950 . S
H4698 C4710 0.950 . S
H4699 C4711 0.950 . S
C4700 H4692 0.950 . S
C4700 C4701 1.386 . S
C4700 C4702 1.391 . S
C4701 C4700 1.386 . S
C4701 C4705 1.393 . S
C4702 H4694 0.950 . S
C4702 C4700 1.391 . S
C4702 C4703 1.400 . S
C4703 C4702 1.400 . S
C4703 C4704 1.398 . S
C4703 C4709 1.491 . S
C4704 H4695 0.950 . S
C4704 C4703 1.398 . S
C4704 C4705 1.391 . S
C4705 H4693 0.950 . S
C4705 C4701 1.393 . S
C4705 C4704 1.391 . S
C4706 H4696 0.950 . S
C4706 C4707 1.386 . S
C4706 C4708 1.391 . S
C4707 C4706 1.386 . S
C4707 C4711 1.393 . S
C4708 H4697 0.950 . S
C4708 C4706 1.391 . S
C4708 C4709 1.400 . S
C4709 C4703 1.491 . S
C4709 C4708 1.400 . S
C4709 C4710 1.398 . S
C4710 H4698 0.950 . S
C4710 C4709 1.398 . S
C4710 C4711 1.391 . S
C4711 H4699 0.950 . S
C4711 C4707 1.393 . S
C4711 C4710 1.391 . S
H4712 C4720 0.950 . S
H4713 C4725 0.950 . S
H4714 C4722 0.950 . S
H4715 C4724 0.950 . S
H4716 C4726 0.950 . S
H4717 C4728 0.950 . S
H4718 C4730 0.950 . S
H4719 C4731 0.950 . S
C4720 H4712 0.950 . S
C4720 C4721 1.386 . S
C4720 C4722 1.391 . S
C4721 C4720 1.386 . S
C4721 C4725 1.393 . S
C4722 H4714 0.950 . S
C4722 C4720 1.391 . S
C4722 C4723 1.400 . S
C4723 C4722 1.400 . S
C4723 C4724 1.398 . S
C4723 C4729 1.491 . S
C4724 H4715 0.950 . S
C4724 C4723 1.398 . S
C4724 C4725 1.391 . S
C4725 H4713 0.950 . S
C4725 C4721 1.393 . S
C4725 C4724 1.391 . S
C4726 H4716 0.950 . S
C4726 C4727 1.386 . S
C4726 C4728 1.391 . S
C4727 C4726 1.386 . S
C4727 C4731 1.393 . S
C4728 H4717 0.950 . S
C4728 C4726 1.391 . S
C4728 C4729 1.400 . S
C4729 C4723 1.491 . S
C4729 C4728 1.400 . S
C4729 C4730 1.398 . S
C4730 H4718 0.950 . S
C4730 C4729 1.398 . S
C4730 C4731 1.391 . S
C4731 H4719 0.950 . S
C4731 C4727 1.393 . S
C4731 C4730 1.391 . S
H4732 C4740 0.950 . S
H4733 C4745 0.950 . S
H4734 C4742 0.950 . S
H4735 C4744 0.950 . S
H4736 C4746 0.950 . S
H4737 C4748 0.950 . S
H4738 C4750 0.950 . S
H4739 C4751 0.950 . S
C4740 H4732 0.950 . S
C4740 C4741 1.386 . S
C4740 C4742 1.391 . S
C4741 C4740 1.386 . S
C4741 C4745 1.393 . S
C4742 H4734 0.950 . S
C4742 C4740 1.391 . S
C4742 C4743 1.400 . S
C4743 C4742 1.400 . S
C4743 C4744 1.398 . S
C4743 C4749 1.491 . S
C4744 H4735 0.950 . S
C4744 C4743 1.398 . S
C4744 C4745 1.391 . S
C4745 H4733 0.950 . S
C4745 C4741 1.393 . S
C4745 C4744 1.391 . S
C4746 H4736 0.950 . S
C4746 C4747 1.386 . S
C4746 C4748 1.391 . S
C4747 C4746 1.386 . S
C4747 C4751 1.393 . S
C4748 H4737 0.950 . S
C4748 C4746 1.391 . S
C4748 C4749 1.400 . S
C4749 C4743 1.491 . S
C4749 C4748 1.400 . S
C4749 C4750 1.398 . S
C4750 H4738 0.950 . S
C4750 C4749 1.398 . S
C4750 C4751 1.391 . S
C4751 H4739 0.950 . S
C4751 C4747 1.393 . S
C4751 C4750 1.391 . S
C1401 C3 0.474 . S
C1407 C746 0.590 . S
C1421 C775 0.600 . S
C1427 C32 0.514 . S
C1441 C804 0.519 . S
C1447 C61 0.504 . S
C1461 C90 0.529 . S
C1467 C717 0.573 . S
C1481 C224 0.569 . S
C1487 C119 0.529 . S
C1501 C148 0.462 . S
C1507 C137 0.549 . S
C1521 C177 0.468 . S
C1527 C166 0.582 . S
C1541 C195 0.600 . S
C1547 C206 0.514 . S
C1561 C235 0.508 . S
C1567 C1355 0.603 . S
C1581 C485 0.568 . S
C1587 C264 0.529 . S
C1601 C293 0.524 . S
C1607 C1384 0.543 . S
C1621 C322 0.498 . S
C1627 C1326 0.603 . S
C1641 C351 0.492 . S
C1647 C1239 0.516 . S
C1661 C1268 0.528 . S
C1667 C380 0.470 . S
C1681 C601 0.540 . S
C1687 C409 0.523 . S
C1701 C438 0.468 . S
C1707 C1210 0.582 . S
C1721 C467 0.529 . S
C1727 C398 0.562 . S
C1741 C496 0.478 . S
C1747 C1036 0.520 . S
C1761 C525 0.528 . S
C1767 C949 0.559 . S
C1781 C978 0.549 . S
C1787 C554 0.462 . S
C1801 C311 0.516 . S
C1807 C583 0.492 . S
C1821 C1152 0.549 . S
C1827 C612 0.462 . S
C1841 C641 0.491 . S
C1847 C1065 0.602 . S
C1861 C1123 0.561 . S
C1867 C670 0.529 . S
C1881 C699 0.508 . S
C1887 C50 0.603 . S
C1901 C79 0.604 . S
C1907 C728 0.501 . S
C1921 C108 0.537 . S
C1927 C757 0.465 . S
C1941 C786 0.524 . S
C1947 C21 0.543 . S
C1961 C815 0.526 . S
C1967 C920 0.585 . S
C1981 C833 0.561 . S
C1987 C844 0.462 . S
C2001 C862 0.529 . S
C2007 C873 0.469 . S
C2021 C891 0.530 . S
C2027 C902 0.468 . S
C2041 C931 0.514 . S
C2047 C659 0.600 . S
C2061 C960 0.490 . S
C2067 C1181 0.516 . S
C2081 C688 0.517 . S
C2087 C989 0.483 . S
C2101 C1018 0.529 . S
C2107 C630 0.569 . S
C2121 C1047 0.479 . S
C2127 C543 0.520 . S
C2141 C572 0.516 . S
C2147 C1076 0.494 . S
C2161 C1297 0.581 . S
C2167 C1105 0.468 . S
C2181 C514 0.517 . S
C2187 C1134 0.485 . S
C2201 C1094 0.603 . S
C2207 C1163 0.503 . S
C2221 C1192 0.529 . S
C2227 C340 0.562 . S
C2241 C253 0.524 . S
C2247 C1221 0.473 . S
C2261 C282 0.602 . S
C2267 C1250 0.510 . S
C2281 C1007 0.570 . S
C2287 C1279 0.464 . S
C2301 C456 0.581 . S
C2307 C1308 0.468 . S
C2321 C369 0.603 . S
C2327 C1337 0.508 . S
C2341 C1366 0.514 . S
C2347 C427 0.527 . S
C2361 C63 3.302 . S
C2367 C5 3.303 . S
C2381 C92 3.297 . S
C2387 C34 3.300 . S
C2401 C179 3.296 . S
C2407 C121 3.299 . S
C2421 C150 3.303 . S
C2427 C208 3.301 . S
C2441 C353 3.299 . S
C2447 C237 3.296 . S
C2461 C382 3.296 . S
C2467 C266 3.299 . S
C2481 C295 3.302 . S
C2487 C411 3.303 . S
C2501 C324 3.301 . S
C2507 C440 3.303 . S
C2521 C469 3.297 . S
C2527 C1252 3.296 . S
C2541 C614 3.303 . S
C2547 C498 3.301 . S
C2561 C643 3.302 . S
C2567 C527 3.303 . S
C2581 C1165 3.296 . S
C2587 C556 3.296 . S
C2601 C585 3.300 . S
C2607 C1368 3.297 . S
C2621 C672 3.302 . S
C2627 C1281 3.303 . S
C2641 C701 3.296 . S
C2647 C759 3.297 . S
C2661 C730 3.303 . S
C2667 C788 3.303 . S
C2681 C817 3.303 . S
C2687 C875 3.301 . S
C2701 C904 3.296 . S
C2707 C846 3.297 . S
C2721 C1049 3.296 . S
C2727 C933 3.297 . S
C2741 C1078 3.297 . S
C2747 C962 3.300 . S
C2761 C991 3.302 . S
C2767 C1107 3.303 . S
C2781 C1020 3.303 . S
C2787 C1136 3.302 . S
C2801 C1194 3.299 . S
C2807 C1310 3.302 . S
C2821 C1223 3.296 . S
C2827 C1339 3.299 . S
C2841 C13 1.068 . S
C2847 C247 1.098 . S
C2861 C276 1.061 . S
C2867 C42 1.107 . S
C2881 C71 1.084 . S
C2887 C305 1.095 . S
C2901 C100 1.106 . S
C2907 C334 1.069 . S
C2921 C129 1.071 . S
C2927 C363 1.084 . S
C2941 C392 1.062 . S
C2947 C158 1.107 . S
C2961 C187 1.107 . S
C2967 C421 1.059 . S
C2981 C450 1.070 . S
C2987 C216 1.105 . S
C3001 C479 1.083 . S
C3007 C245 1.097 . S
C3021 C274 1.094 . S
C3027 C1378 1.060 . S
C3041 C1320 1.098 . S
C3047 C303 1.068 . S
C3061 C332 1.086 . S
C3067 C1349 1.066 . S
C3081 C361 1.084 . S
C3087 C508 1.095 . S
C3101 C537 1.097 . S
C3107 C390 1.067 . S
C3121 C566 1.083 . S
C3127 C419 1.097 . S
C3141 C1291 1.062 . S
C3147 C448 1.091 . S
C3161 C477 1.107 . S
C3167 C15 1.060 . S
C3181 C131 1.059 . S
C3187 C506 1.095 . S
C3201 C160 1.058 . S
C3207 C535 1.098 . S
C3221 C564 1.094 . S
C3227 C189 1.086 . S
C3241 C593 1.107 . S
C3247 C914 1.060 . S
C3261 C622 1.103 . S
C3267 C769 1.074 . S
C3281 C651 1.103 . S
C3287 C798 1.074 . S
C3301 C740 1.093 . S
C3307 C680 1.067 . S
C3321 C943 1.094 . S
C3327 C709 1.085 . S
C3341 C738 1.106 . S
C3347 C972 1.069 . S
C3361 C1001 1.058 . S
C3367 C767 1.106 . S
C3381 C1030 1.081 . S
C3387 C796 1.098 . S
C3401 C825 1.107 . S
C3407 C1059 1.064 . S
C3421 C1088 1.061 . S
C3427 C854 1.092 . S
C3441 C883 1.091 . S
C3447 C1117 1.062 . S
C3461 C912 1.080 . S
C3467 C1146 1.098 . S
C3481 C941 1.072 . S
C3487 C1175 1.100 . S
C3501 C682 1.096 . S
C3507 C970 1.067 . S
C3521 C999 1.106 . S
C3527 C624 1.068 . S
C3541 C1028 1.107 . S
C3547 C653 1.066 . S
C3561 C1057 1.104 . S
C3567 C1204 1.073 . S
C3581 C1233 1.087 . S
C3587 C1086 1.070 . S
C3601 C1262 1.094 . S
C3607 C1115 1.067 . S
C3621 C595 1.062 . S
C3627 C1144 1.091 . S
C3641 C711 1.069 . S
C3647 C1173 1.106 . S
C3661 C1202 1.104 . S
C3667 C827 1.073 . S
C3681 C1231 1.084 . S
C3687 C856 1.067 . S
C3701 C885 1.064 . S
C3707 C1260 1.107 . S
C3721 C1289 1.078 . S
C3727 C218 1.074 . S
C3741 C73 1.086 . S
C3747 C1318 1.095 . S
C3761 C1347 1.107 . S
C3767 C102 1.063 . S
C3781 C1376 1.072 . S
C3787 C44 1.082 . S
C3801 C8 2.417 . S
C3807 C387 2.342 . S
C3821 C416 2.356 . S
C3827 C37 2.411 1_554 S
C3841 C445 2.346 . S
C3847 C66 2.402 . S
C3861 C358 2.355 . S
C3867 C95 2.414 1_554 S
C3881 C1025 2.348 . S
C3887 C124 2.418 . S
C3901 C153 2.418 1_556 S
C3907 C938 2.350 . S
C3921 C967 2.338 . S
C3927 C182 2.404 . S
C3941 C996 2.347 . S
C3947 C211 2.418 1_556 S
C3961 C735 2.352 . S
C3967 C240 2.417 . S
C3981 C764 2.343 . S
C3987 C269 2.418 . S
C4001 C793 2.353 . S
C4007 C298 2.405 . S
C4021 C706 2.345 . S
C4027 C327 2.402 1_565 S
C4041 C213 2.341 . S
C4047 C356 2.403 . S
C4061 C126 2.336 . S
C4067 C385 2.413 . S
C4081 C155 2.353 . S
C4087 C414 2.417 . S
C4101 C443 2.402 1_565 S
C4107 C184 2.346 . S
C4121 C1344 2.336 . S
C4127 C472 2.406 . S
C4141 C1228 2.335 . S
C4147 C501 2.409 . S
C4161 C1257 2.335 . S
C4167 C530 2.411 1_455 S
C4181 C559 2.418 . S
C4187 C590 2.347 . S
C4201 C503 2.348 . S
C4207 C588 2.418 . S
C4221 C617 2.412 . S
C4227 C677 2.335 . S
C4241 C646 2.406 1_455 S
C4247 C619 2.354 . S
C4261 C1170 2.338 . S
C4267 C675 2.415 1_655 S
C4281 C1083 2.340 . S
C4287 C704 2.416 . S
C4301 C1112 2.355 . S
C4307 C733 2.407 . S
C4321 C1141 2.355 . S
C4327 C762 2.407 . S
C4341 C1054 2.335 . S
C4347 C791 2.410 . S
C4361 C329 2.353 . S
C4367 C820 2.416 . S
C4381 C242 2.336 . S
C4387 C849 2.413 . S
C4401 C271 2.351 . S
C4407 C878 2.404 . S
C4421 C300 2.336 . S
C4427 C907 2.413 . S
C4441 C39 2.356 . S
C4447 C936 2.410 . S
C4461 C965 2.407 1_545 S
C4467 C68 2.355 . S
C4481 C97 2.355 . S
C4487 C994 2.407 . S
C4501 C1023 2.403 . S
C4507 C10 2.340 . S
C4521 C1052 2.406 . S
C4527 C909 2.354 . S
C4541 C822 2.336 . S
C4547 C1081 2.407 1_545 S
C4561 C851 2.338 . S
C4567 C1110 2.404 . S
C4581 C880 2.347 . S
C4587 C1139 2.402 . S
C4601 C1168 2.403 . S
C4607 C648 2.341 . S
C4621 C1197 2.418 . S
C4627 C532 2.349 . S
C4641 C1226 2.418 . S
C4647 C561 2.349 . S
C4661 C1255 2.412 . S
C4667 C1286 2.336 . S
C4681 C1199 2.336 . S
C4687 C1284 2.406 1_655 S
C4701 C1373 2.347 . S
C4707 C1313 2.402 . S
C4721 C1342 2.409 . S
C4727 C1315 2.356 . S
C4741 C1371 2.418 . S
C4747 C474 2.347 . S
