# Generated by pormake.
# Topology oof, (8)-cn, num edge types: 1
# Building blocks:
#     Node 0, Type 0, BuildingBlock: AJUNOK_clean_sbu_0, # of connection points: 8
#     Node 1, Type 0, BuildingBlock: AJUNOK_clean_sbu_0, # of connection points: 8
#     Node 2, Type 0, BuildingBlock: AJUNOK_clean_sbu_0, # of connection points: 8
#     Node 3, Type 0, BuildingBlock: AJUNOK_clean_sbu_0, # of connection points: 8
#     Edge 4, Type (0, 0), BuildingBlock: OJICUG_clean_linker_0, # of connection points: 2
#     Edge 5, Type (0, 0), BuildingBlock: OJICUG_clean_linker_0, # of connection points: 2
#     Edge 6, Type (0, 0), BuildingBlock: OJICUG_clean_linker_0, # of connection points: 2
#     Edge 7, Type (0, 0), BuildingBlock: OJICUG_clean_linker_0, # of connection points: 2
#     Edge 8, Type (0, 0), BuildingBlock: OJICUG_clean_linker_0, # of connection points: 2
#     Edge 9, Type (0, 0), BuildingBlock: OJICUG_clean_linker_0, # of connection points: 2
#     Edge 10, Type (0, 0), BuildingBlock: OJICUG_clean_linker_0, # of connection points: 2
#     Edge 11, Type (0, 0), BuildingBlock: OJICUG_clean_linker_0, # of connection points: 2
#     Edge 12, Type (0, 0), BuildingBlock: OJICUG_clean_linker_0, # of connection points: 2
#     Edge 13, Type (0, 0), BuildingBlock: OJICUG_clean_linker_0, # of connection points: 2
#     Edge 14, Type (0, 0), BuildingBlock: OJICUG_clean_linker_0, # of connection points: 2
#     Edge 15, Type (0, 0), BuildingBlock: OJICUG_clean_linker_0, # of connection points: 2
#     Edge 16, Type (0, 0), BuildingBlock: OJICUG_clean_linker_0, # of connection points: 2
#     Edge 17, Type (0, 0), BuildingBlock: OJICUG_clean_linker_0, # of connection points: 2
#     Edge 18, Type (0, 0), BuildingBlock: OJICUG_clean_linker_0, # of connection points: 2
#     Edge 19, Type (0, 0), BuildingBlock: OJICUG_clean_linker_0, # of connection points: 2
# Relax obj value: 0.054
# Max RMSD: 0.149
# Mean RMSD: 0.148
data_MOF--net-oof--node1-AJUNOK_clean_sbu_0--edge1-OJICUG_clean_linker_0
_symmetry_space_group_name_H-M    P1
_symmetry_Int_Tables_number       1
_symmetry_cell_setting            triclinic
loop_
_symmetry_equiv_pos_as_xyz
'x, y, z'
_cell_length_a     10.066792
_cell_length_b     52.158506
_cell_length_c     17.01295
_cell_angle_alpha  103.10059
_cell_angle_beta   91.478358
_cell_angle_gamma 81.647157
loop_
_atom_site_label
_atom_site_type_symbol
_atom_site_fract_x
_atom_site_fract_y
_atom_site_fract_z
_atom_type_partial_charge
Cd0 Cd 0.00683 0.08952 0.20512 0.0
Cd1 Cd 0.03088 0.17481 0.36552 0.0
C2 C 0.09625 0.10751 0.05337 0.0
N3 N -0.0141 0.11285 0.10179 0.0
C4 C 0.86886 0.13918 0.01623 0.0
C5 C 0.98078 0.13339 0.96384 0.0
C6 C 0.09592 0.11752 0.98407 0.0
C7 C 0.87345 0.12858 0.08522 0.0
H8 H 0.18369 0.09469 0.06743 0.0
H9 H 0.78666 0.13254 0.12449 0.0
C10 C 0.78514 0.14574 0.32021 0.0
C11 C 0.90062 0.17891 0.54079 0.0
C12 C 0.88916 0.17504 0.61895 0.0
C13 C -0.0138 0.15711 0.64702 0.0
C14 C 0.09063 0.14287 0.5945 0.0
C15 C 0.09713 0.14707 0.51648 0.0
N16 N 0.00368 0.16504 0.49154 0.0
H17 H 0.82877 0.19342 0.51993 0.0
H18 H 0.17818 0.13636 0.47628 0.0
C19 C 0.86922 0.21529 0.26598 0.0
N20 N 0.96058 0.19286 0.25503 0.0
C21 C 0.0007 0.19512 0.1189 0.0
C22 C 0.90979 0.2188 0.129 0.0
C23 C 0.84195 0.22861 0.20342 0.0
C24 C 0.02521 0.18249 0.18319 0.0
H25 H 0.82095 0.22332 0.32422 0.0
H26 H 0.09948 0.16493 0.17678 0.0
C27 C 0.25826 0.11525 0.27326 0.0
C28 C 0.01328 0.04102 0.09514 0.0
N29 N 0.97592 0.07016 0.31316 0.0
C30 C 0.07456 0.07042 0.36933 0.0
C31 C 0.08655 0.05226 0.41909 0.0
C32 C -0.0033 0.03355 0.41056 0.0
C33 C 0.88971 0.03517 0.3562 0.0
C34 C 0.88147 0.05368 0.3076 0.0
C35 C 0.18747 0.21462 0.42908 0.0
O36 O 0.89045 0.13129 0.28734 0.0
O37 O 0.79643 0.16889 0.36102 0.0
O38 O 0.15427 0.13186 0.29748 0.0
O39 O 0.24112 0.0929 0.23 0.0
O40 O 0.9 0.05521 0.11648 0.0
O41 O 0.11867 0.05001 0.12496 0.0
O42 O 0.23395 0.19389 0.37728 0.0
O43 O 0.06454 0.21732 0.44902 0.0
H44 H 0.14966 0.08341 0.37171 0.0
H45 H 0.80565 0.05349 0.26135 0.0
H46 H 0.77855 0.15162 0.00393 0.0
H47 H 0.18375 0.11196 0.94521 0.0
H48 H 0.80773 0.18652 0.65781 0.0
H49 H 0.1666 0.12864 0.61365 0.0
H50 H 0.05646 0.18703 0.06305 0.0
H51 H 0.77019 0.24666 0.21365 0.0
H52 H 0.169 0.0521 0.46123 0.0
H53 H 0.81852 0.02109 0.34714 0.0
Cd54 Cd 0.04706 0.80251 0.61267 0.0
Cd55 Cd 0.07291 0.8888 0.77273 0.0
C56 C 0.17588 0.79636 0.43478 0.0
N57 N 0.0748 0.81078 0.48468 0.0
C58 C -0.00875 0.83372 0.38282 0.0
C59 C 0.09408 0.8191 0.3298 0.0
C60 C 0.18818 0.8004 0.3568 0.0
C61 C 0.98393 0.82934 0.46051 0.0
H62 H 0.24607 0.7815 0.45524 0.0
H63 H 0.90491 0.84057 0.50138 0.0
C64 C 0.82122 0.86275 0.70205 0.0
C65 C -0.01163 0.87256 0.92884 0.0
C66 C -0.01049 0.86286 -0.00119 0.0
C67 C 0.10477 0.84704 0.01911 0.0
C68 C 0.21678 0.84134 0.96682 0.0
C69 C 0.21136 0.8516 0.89714 0.0
N70 N 0.09813 0.86698 0.87985 0.0
H71 H 0.90025 0.88508 0.91418 0.0
H72 H 0.29761 0.84737 0.85741 0.0
C73 C 0.01213 0.90767 0.60829 0.0
N74 N 0.10989 0.90786 0.66496 0.0
C75 C 0.19765 0.94282 0.62266 0.0
C76 C 0.09123 0.94455 0.56797 0.0
C77 C 0.00121 0.92586 0.55872 0.0
C78 C 0.20484 0.92427 0.67108 0.0
H79 H 0.93657 0.89474 0.60554 0.0
H80 H 0.27996 0.92441 0.71771 0.0
C81 C 0.29344 0.83208 0.65873 0.0
C82 C 0.8711 0.76572 0.55884 0.0
N83 N 0.10939 0.78463 0.72436 0.0
C84 C 0.17399 0.75938 0.71658 0.0
C85 C 0.18691 0.7477 0.78341 0.0
C86 C 0.13286 0.76223 0.85849 0.0
C87 C 0.06845 0.78832 0.86454 0.0
C88 C 0.05719 0.79913 0.79634 0.0
C89 C 0.06194 0.93791 0.88005 0.0
O90 O 0.92513 0.846 0.67852 0.0
O91 O 0.83879 0.88505 0.74563 0.0
O92 O 0.18819 0.84658 0.69165 0.0
O93 O 0.28223 0.80878 0.61879 0.0
O94 O 0.83916 0.78683 0.61242 0.0
O95 O -0.0092 0.76088 0.53141 0.0
O96 O 0.17575 0.92375 0.8601 0.0
O97 O 0.9572 0.92866 0.85001 0.0
H98 H 0.21071 0.74799 0.65796 0.0
H99 H 0.00152 0.81871 0.79988 0.0
H100 H 0.91769 0.84853 0.36449 0.0
H101 H 0.26834 0.78864 0.31744 0.0
H102 H 0.90158 0.86834 0.0376 0.0
H103 H 0.30721 0.82893 0.97914 0.0
H104 H 0.26898 0.95688 0.6322 0.0
H105 H 0.91922 0.92611 0.51629 0.0
H106 H 0.23652 0.72743 0.77626 0.0
H107 H 0.02198 0.79981 0.92065 0.0
Cd108 Cd 0.25538 0.57689 0.1872 0.0
Cd109 Cd 0.27225 0.67001 0.37105 0.0
C110 C 0.30015 0.60644 0.05586 0.0
N111 N 0.18929 0.59987 0.08588 0.0
C112 C 0.05138 0.61809 0.98922 0.0
C113 C 0.16555 0.62456 0.95581 0.0
C114 C 0.29099 0.61849 0.99052 0.0
C115 C 0.06568 0.60548 0.05436 0.0
H116 H 0.39719 0.6017 0.08194 0.0
H117 H 0.97876 0.59987 0.07843 0.0
C118 C 0.04021 0.63328 0.31405 0.0
C119 C 0.10223 0.673 0.53659 0.0
C120 C 0.08036 0.66904 0.61368 0.0
C121 C 0.18858 0.65869 0.65633 0.0
C122 C 0.3167 0.65272 0.62044 0.0
C123 C 0.33348 0.65649 0.54287 0.0
N124 N 0.22695 0.66621 0.50231 0.0
H125 H 0.01932 0.68125 0.50402 0.0
H126 H 0.43152 0.65144 0.51449 0.0
C127 C 0.14601 0.71709 0.28083 0.0
N128 N 0.19356 0.69068 0.26746 0.0
C129 C 0.19582 0.68711 0.12503 0.0
C130 C 0.15051 0.7145 0.13639 0.0
C131 C 0.12312 0.72946 0.21572 0.0
C132 C 0.21682 0.67559 0.19157 0.0
H133 H 0.13073 0.72873 0.34203 0.0
H134 H 0.25784 0.65481 0.18316 0.0
C135 C 0.49768 0.60864 0.28755 0.0
C136 C 0.45153 0.54378 0.08173 0.0
N137 N 0.18132 0.54697 0.2537 0.0
C138 C 0.24117 0.52136 0.22914 0.0
C139 C 0.25577 0.50445 0.28277 0.0
C140 C 0.20847 0.51399 0.36268 0.0
C141 C 0.13472 0.53973 0.38343 0.0
C142 C 0.12411 0.55611 0.32815 0.0
C143 C 0.46004 0.70404 0.42386 0.0
O144 O 0.14363 0.61895 0.277 0.0
O145 O 0.05268 0.65639 0.35486 0.0
O146 O 0.40011 0.627 0.31054 0.0
O147 O 0.47182 0.58679 0.24494 0.0
O148 O 0.32761 0.54508 0.06205 0.0
O149 O 0.48066 0.55701 0.15074 0.0
O150 O 0.48828 0.68281 0.36988 0.0
O151 O 0.33994 0.71009 0.45077 0.0
H152 H 0.29063 0.51489 0.17091 0.0
H153 H 0.08204 0.57682 0.34756 0.0
H154 H 0.95231 0.62252 0.9651 0.0
H155 H 0.38267 0.62234 0.96642 0.0
H156 H 0.98036 0.6741 0.63979 0.0
H157 H 0.4025 0.64454 0.65124 0.0
H158 H 0.22122 0.67489 0.0656 0.0
H159 H 0.08696 0.75058 0.22753 0.0
H160 H 0.31474 0.48501 0.2637 0.0
H161 H 0.09398 0.54786 0.44365 0.0
Cd162 Cd 0.68974 0.32776 0.65407 0.0
Cd163 Cd 0.71176 0.41213 0.80651 0.0
C164 C 0.78609 0.32903 0.47634 0.0
N165 N 0.69358 0.34214 0.53378 0.0
C166 C 0.59247 0.36895 0.44532 0.0
C167 C 0.68622 0.35569 0.38459 0.0
C168 C 0.78433 0.33553 0.40096 0.0
C169 C 0.59777 0.36176 0.51973 0.0
H170 H 0.85999 0.31322 0.4887 0.0
H171 H 0.5246 0.37171 0.56602 0.0
C172 C 0.46635 0.38437 0.76618 0.0
C173 C 0.59445 0.41165 0.98147 0.0
C174 C 0.58646 0.40456 0.05545 0.0
C175 C 0.67512 0.383 0.07183 0.0
C176 C 0.76845 0.36876 0.01184 0.0
C177 C 0.77299 0.37656 0.9387 0.0
N178 N 0.68694 0.39768 0.92507 0.0
H179 H 0.52868 0.42866 0.9696 0.0
H180 H 0.84697 0.36609 0.8933 0.0
C181 C 0.48181 0.45147 0.73704 0.0
N182 N 0.58333 0.43123 0.71099 0.0
C183 C 0.54771 0.43541 0.5745 0.0
C184 C 0.4419 0.45628 0.59961 0.0
C185 C 0.40909 0.4642 0.68219 0.0
C186 C 0.61796 0.42323 0.63158 0.0
H187 H 0.45833 0.45796 0.80081 0.0
H188 H 0.702 0.40772 0.61287 0.0
C189 C 0.94008 0.35583 0.69631 0.0
C190 C 0.5349 0.28795 0.58688 0.0
N191 N 0.76846 0.30668 0.75714 0.0
C192 C 0.85947 0.28414 0.7415 0.0
C193 C 0.89156 0.26968 0.80116 0.0
C194 C 0.82929 0.27857 0.87752 0.0
C195 C 0.73743 0.3022 0.89197 0.0
C196 C 0.70772 0.31587 0.83053 0.0
C197 C 0.79236 0.4615 0.88309 0.0
O198 O 0.57275 0.36953 0.73614 0.0
O199 O 0.47871 0.4067 0.81169 0.0
O200 O 0.83547 0.37119 0.72598 0.0
O201 O 0.92631 0.33293 0.65438 0.0
O202 O 0.49103 0.30731 0.64401 0.0
O203 O 0.65491 0.28652 0.563 0.0
O204 O 0.77934 0.45529 0.80721 0.0
O205 O 0.79638 0.44274 0.9193 0.0
H206 H 0.90421 0.27698 0.68198 0.0
H207 H 0.63288 0.33342 0.84049 0.0
H208 H 0.51396 0.38433 0.43483 0.0
H209 H 0.85904 0.32492 0.35604 0.0
H210 H 0.51213 0.41596 0.09949 0.0
H211 H 0.84001 0.35224 0.02211 0.0
H212 H 0.57881 0.42918 0.5118 0.0
H213 H 0.32851 0.4802 0.70431 0.0
H214 H 0.96337 0.25166 0.78747 0.0
H215 H 0.68517 0.30956 0.94928 0.0
C216 C 0.09382 0.14884 0.85607 0.0
C217 C 0.97702 0.14245 0.88644 0.0
H218 H 0.18815 0.1583 0.75683 0.0
C219 C 0.85986 0.143 0.83938 0.0
H220 H 0.18488 0.14943 0.89132 0.0
C221 C 0.86142 0.14859 0.76264 0.0
C222 C 0.98045 0.15344 0.73091 0.0
H223 H 0.76824 0.13803 0.86024 0.0
H224 H 0.77093 0.14806 0.72679 0.0
C225 C 0.0958 0.15401 0.77906 0.0
C226 C 0.22124 0.829 0.21743 0.0
C227 C 0.10181 0.82355 0.24694 0.0
H228 H 0.31567 0.84124 0.12334 0.0
C229 C -0.01291 0.82368 0.19831 0.0
H230 H 0.31117 0.82904 0.2538 0.0
C231 C -0.01001 0.83016 0.12311 0.0
C232 C 0.10712 0.83718 0.09514 0.0
H233 H 0.89443 0.81901 0.21891 0.0
H234 H 0.89945 0.83001 0.08735 0.0
C235 C 0.22374 0.83591 0.14252 0.0
C236 C 0.24833 0.65355 0.87297 0.0
C237 C 0.15747 0.63636 0.88316 0.0
H238 H 0.32859 0.67416 0.79371 0.0
C239 C 0.06695 0.62895 0.82041 0.0
H240 H 0.31678 0.66048 0.92054 0.0
C241 C 0.07225 0.63736 0.74805 0.0
C242 C 0.16901 0.65309 0.73661 0.0
H243 H -0.00364 0.61559 0.82533 0.0
H244 H 0.00534 0.63042 0.69951 0.0
C245 C 0.25474 0.66161 0.80045 0.0
C246 C 0.69341 0.34924 0.15778 0.0
C247 C 0.67364 0.37598 0.1519 0.0
H248 H 0.71254 0.32185 0.23547 0.0
C249 C 0.65553 0.396 0.22332 0.0
H250 H 0.70408 0.33337 0.10401 0.0
C251 C 0.6586 0.38942 0.29866 0.0
C252 C 0.68085 0.36267 0.30445 0.0
H253 H 0.64183 0.41681 0.2212 0.0
H254 H 0.64638 0.40531 0.35252 0.0
C255 C 0.69773 0.34265 0.23312 0.0
C256 C 0.54898 0.14933 0.36598 0.0
C257 C 0.65352 0.13641 0.31171 0.0
H258 H 0.34366 0.15125 0.39942 0.0
C259 C 0.62981 0.11508 0.24881 0.0
H260 H 0.56581 0.1653 0.41666 0.0
C261 C 0.50118 0.10798 0.23718 0.0
C262 C 0.3951 0.12177 0.28923 0.0
H263 H 0.70936 0.1044 0.20722 0.0
H264 H 0.48421 0.09209 0.1863 0.0
C265 C 0.4214 0.1417 0.35553 0.0
C266 C 0.65547 0.83682 0.61949 0.0
C267 C 0.68379 0.85631 0.68658 0.0
H268 H 0.50946 0.8135 0.5587 0.0
C269 C 0.57883 0.86984 0.73992 0.0
H270 H 0.73189 0.82752 0.57447 0.0
C271 C 0.44999 0.86275 0.72912 0.0
C272 C 0.42485 0.84162 0.66591 0.0
H273 H 0.59692 0.88549 0.79124 0.0
H274 H 0.37148 0.87327 0.77163 0.0
C275 C 0.52773 0.82916 0.60995 0.0
C276 C 0.67747 0.63219 0.36461 0.0
C277 C 0.63989 0.61287 0.29998 0.0
H278 H 0.83318 0.65378 0.41944 0.0
C279 C 0.73968 0.59789 0.24461 0.0
H280 H 0.60535 0.64279 0.41083 0.0
C281 C 0.87206 0.60349 0.25076 0.0
C282 C 0.90646 0.62444 0.31151 0.0
H283 H 0.71467 0.58237 0.19483 0.0
H284 H 0.94609 0.592 0.20676 0.0
C285 C 0.80871 0.63815 0.36985 0.0
C286 C 0.09637 0.38216 0.78419 0.0
C287 C 0.07362 0.36362 0.71319 0.0
H288 H 0.24087 0.40264 0.85773 0.0
C289 C 0.18008 0.35216 0.65919 0.0
H290 H 0.01539 0.3913 0.82662 0.0
C291 C 0.30792 0.35911 0.67617 0.0
C292 C 0.33227 0.37675 0.74855 0.0
H293 H 0.16398 0.33823 0.60321 0.0
H294 H 0.38674 0.35118 0.63186 0.0
C295 C 0.22512 0.38854 0.80202 0.0
C296 C 0.31134 0.27265 0.57024 0.0
C297 C 0.44713 0.26887 0.54735 0.0
H298 H 0.12178 0.25855 0.54974 0.0
C299 C 0.49631 0.24748 0.48426 0.0
H300 H 0.27068 0.28909 0.61852 0.0
C301 C 0.41091 0.23006 0.44476 0.0
C302 C 0.27514 0.23384 0.46771 0.0
H303 H 0.6005 0.2442 0.46526 0.0
H304 H 0.45153 0.21358 0.39657 0.0
C305 C 0.22589 0.25529 0.53059 0.0
C306 C 0.86784 0.27604 0.02228 0.0
C307 C 0.85564 0.26298 0.9411 0.0
H308 H 0.8946 0.27249 0.14472 0.0
C309 C 0.86397 0.23507 0.92183 0.0
H310 H 0.86573 0.29739 0.03887 0.0
C311 C 0.8816 0.2207 0.98257 0.0
C312 C 0.8909 0.2339 0.06396 0.0
H313 H 0.85368 0.22436 0.86001 0.0
H314 H 0.88521 0.19931 0.96599 0.0
C315 C 0.8846 0.26173 0.08293 0.0
C316 C 0.69572 0.71333 0.42474 0.0
C317 C 0.56504 0.71998 0.45736 0.0
H318 H 0.89671 0.7225 0.43218 0.0
C319 C 0.53742 0.74102 0.52502 0.0
H320 H 0.71961 0.6971 0.3726 0.0
C321 C 0.63878 0.75527 0.55945 0.0
C322 C 0.76906 0.7489 0.52633 0.0
H323 H 0.4379 0.74637 0.55184 0.0
H324 H 0.61446 0.77146 0.61166 0.0
C325 C 0.79721 0.72771 0.45904 0.0
C326 C 0.17903 0.7526 0.0727 0.0
C327 C 0.13991 0.72735 0.06605 0.0
H328 H 0.20993 0.78308 0.01188 0.0
C329 C 0.09736 0.71386 0.99039 0.0
H330 H 0.21429 0.76346 0.12949 0.0
C331 C 0.09716 0.72497 0.92285 0.0
C332 C 0.13745 0.75004 0.92956 0.0
H333 H 0.06349 0.6947 0.98333 0.0
H334 H 0.06329 0.71414 0.86559 0.0
C335 C 0.17739 0.76382 0.00526 0.0
C336 C 0.15221 0.00036 0.01686 0.0
C337 C 0.02454 0.01485 0.03919 0.0
H338 H 0.26427 0.96456 0.94898 0.0
C339 C 0.90958 0.00387 0.00886 0.0
H340 H 0.24287 0.00836 0.03936 0.0
C341 C 0.92215 0.97875 0.95718 0.0
C342 C 0.04988 0.96425 0.93509 0.0
H343 H 0.81014 0.01458 0.02529 0.0
H344 H 0.83161 0.97071 0.93469 0.0
C345 C 0.16477 0.97527 0.96526 0.0
C346 C 0.91341 0.00192 0.48353 0.0
C347 C 0.02089 0.01118 0.45273 0.0
H348 H 0.85132 0.97396 0.54449 0.0
C349 C 0.15196 -0.0019 0.45927 0.0
H350 H 0.81144 0.01166 0.48031 0.0
C351 C 0.17492 0.97635 0.4957 0.0
C352 C 0.06738 0.96706 0.52632 0.0
H353 H 0.23698 0.00431 0.43468 0.0
H354 H 0.27687 0.96661 0.49896 0.0
C355 C 0.93636 0.98017 0.51993 0.0
C356 C 0.54297 0.52196 0.94435 0.0
C357 C 0.558 0.52702 0.02827 0.0
H358 H 0.6157 0.49828 0.83035 0.0
C359 C 0.6736 0.51503 0.06125 0.0
H360 H 0.45634 0.53155 0.91757 0.0
C361 C 0.76409 0.49566 0.01159 0.0
C362 C 0.7417 0.48858 0.92819 0.0
H363 H 0.68843 0.51904 0.12596 0.0
H364 H 0.84427 0.48455 0.03912 0.0
C365 C 0.63592 0.50328 0.89444 0.0
C366 C 0.34446 0.49862 0.56017 0.0
C367 C 0.37137 0.47071 0.54083 0.0
H368 H 0.27466 0.53399 0.51979 0.0
C369 C 0.33486 0.45693 0.46421 0.0
H370 H 0.37311 0.50988 0.61816 0.0
C371 C 0.27568 0.47082 0.40765 0.0
C372 C 0.25303 0.49885 0.42596 0.0
H373 H 0.35275 0.4354 0.4478 0.0
H374 H 0.24964 0.45954 0.34912 0.0
C375 C 0.28679 0.51248 0.50355 0.0
loop_
_geom_bond_atom_site_label_1
_geom_bond_atom_site_label_2
_geom_bond_distance
_geom_bond_site_symmetry_2
_ccdc_geom_bond_type
Cd0 N3 2.334 1_455 S
Cd0 N29 2.304 . S
Cd0 O36 2.268 1_455 S
Cd0 O39 2.273 . S
Cd0 O40 2.417 1_455 S
Cd0 O41 2.330 . S
Cd1 N16 2.304 1_655 S
Cd1 N20 2.334 . S
Cd1 O37 2.273 . S
Cd1 O38 2.268 1_655 S
Cd1 O42 2.417 1_655 S
Cd1 O43 2.330 . S
C2 N3 1.332 1_455 S
C2 C6 1.381 1_554 S
C2 H8 0.931 . S
N3 Cd0 2.334 1_655 S
N3 C2 1.332 1_655 S
N3 C7 1.328 . S
C4 C5 1.396 . S
C4 C7 1.378 1_556 S
C4 H46 0.931 . S
C5 C4 1.396 . S
C5 C6 1.382 1_655 S
C6 C2 1.381 1_556 S
C6 C5 1.382 1_455 S
C6 H47 0.930 . S
C7 N3 1.328 . S
C7 C4 1.378 1_554 S
C7 H9 0.930 . S
H8 C2 0.931 . S
H9 C7 0.930 . S
C10 O36 1.238 . S
C10 O37 1.253 . S
C11 C12 1.379 . S
C11 N16 1.337 1_655 S
C11 H17 0.929 . S
C12 C11 1.379 . S
C12 C13 1.380 1_655 S
C12 H48 0.929 . S
C13 C12 1.380 1_455 S
C13 C14 1.399 . S
C14 C13 1.399 . S
C14 C15 1.376 . S
C14 H49 0.931 . S
C15 C14 1.376 . S
C15 N16 1.338 . S
C15 H18 0.930 . S
N16 Cd1 2.304 1_455 S
N16 C11 1.337 1_455 S
N16 C15 1.338 . S
H17 C11 0.929 . S
H18 C15 0.930 . S
C19 N20 1.332 . S
C19 C23 1.381 . S
C19 H25 0.931 . S
N20 Cd1 2.334 . S
N20 C19 1.332 . S
N20 C24 1.328 1_655 S
C21 C22 1.396 1_455 S
C21 C24 1.378 . S
C21 H50 0.931 . S
C22 C21 1.396 1_655 S
C22 C23 1.382 . S
C23 C19 1.381 . S
C23 C22 1.382 . S
C23 H51 0.930 . S
C24 N20 1.328 1_455 S
C24 C21 1.378 . S
C24 H26 0.930 . S
H25 C19 0.931 . S
H26 C24 0.930 . S
C27 O38 1.238 . S
C27 O39 1.253 . S
C28 O40 1.239 . S
C28 O41 1.230 1_655 S
N29 Cd0 2.304 . S
N29 C30 1.337 . S
N29 C34 1.338 1_455 S
C30 N29 1.337 . S
C30 C31 1.379 . S
C30 H44 0.929 . S
C31 C30 1.379 . S
C31 C32 1.380 . S
C31 H52 0.929 . S
C32 C31 1.380 . S
C32 C33 1.399 1_455 S
C33 C32 1.399 1_655 S
C33 C34 1.376 . S
C33 H53 0.931 . S
C34 N29 1.338 1_655 S
C34 C33 1.376 . S
C34 H45 0.930 . S
C35 O42 1.239 . S
C35 O43 1.230 1_455 S
O36 Cd0 2.268 1_655 S
O36 C10 1.238 . S
O37 Cd1 2.273 . S
O37 C10 1.253 . S
O38 Cd1 2.268 1_455 S
O38 C27 1.238 . S
O39 Cd0 2.273 . S
O39 C27 1.253 . S
O40 Cd0 2.417 1_655 S
O40 C28 1.239 . S
O41 Cd0 2.330 . S
O41 C28 1.230 1_455 S
O42 Cd1 2.417 1_455 S
O42 C35 1.239 . S
O43 Cd1 2.330 . S
O43 C35 1.230 1_655 S
H44 C30 0.929 . S
H45 C34 0.930 . S
H46 C4 0.931 . S
H47 C6 0.930 . S
H48 C12 0.929 . S
H49 C14 0.931 . S
H50 C21 0.931 . S
H51 C23 0.930 . S
H52 C31 0.929 . S
H53 C33 0.931 . S
Cd54 N57 2.334 . S
Cd54 N83 2.304 . S
Cd54 O90 2.268 1_455 S
Cd54 O93 2.273 . S
Cd54 O94 2.417 1_455 S
Cd54 O95 2.330 . S
Cd55 N70 2.304 . S
Cd55 N74 2.334 1_455 S
Cd55 O91 2.273 1_455 S
Cd55 O92 2.268 . S
Cd55 O96 2.417 . S
Cd55 O97 2.330 1_455 S
C56 N57 1.332 . S
C56 C60 1.381 . S
C56 H62 0.931 . S
N57 Cd54 2.334 . S
N57 C56 1.332 . S
N57 C61 1.328 1_455 S
C58 C59 1.396 1_655 S
C58 C61 1.378 . S
C58 H100 0.931 . S
C59 C58 1.396 1_455 S
C59 C60 1.382 . S
C60 C56 1.381 . S
C60 C59 1.382 . S
C60 H101 0.930 . S
C61 N57 1.328 1_655 S
C61 C58 1.378 . S
C61 H63 0.930 . S
H62 C56 0.931 . S
H63 C61 0.930 . S
C64 O90 1.238 . S
C64 O91 1.253 . S
C65 C66 1.379 1_556 S
C65 N70 1.337 1_655 S
C65 H71 0.929 . S
C66 C65 1.379 1_554 S
C66 C67 1.380 1_655 S
C66 H102 0.929 . S
C67 C66 1.380 1_455 S
C67 C68 1.399 . S
C68 C67 1.399 . S
C68 C69 1.376 1_554 S
C68 H103 0.931 . S
C69 C68 1.376 1_556 S
C69 N70 1.338 . S
C69 H72 0.930 . S
N70 Cd55 2.304 . S
N70 C65 1.337 1_455 S
N70 C69 1.338 . S
H71 C65 0.929 . S
H72 C69 0.930 . S
C73 N74 1.332 . S
C73 C77 1.381 . S
C73 H79 0.931 . S
N74 Cd55 2.334 1_655 S
N74 C73 1.332 . S
N74 C78 1.328 1_655 S
C75 C76 1.396 1_455 S
C75 C78 1.378 . S
C75 H104 0.931 . S
C76 C75 1.396 1_655 S
C76 C77 1.382 . S
C77 C73 1.381 . S
C77 C76 1.382 . S
C77 H105 0.930 . S
C78 N74 1.328 1_455 S
C78 C75 1.378 . S
C78 H80 0.930 . S
H79 C73 0.931 . S
H80 C78 0.930 . S
C81 O92 1.238 . S
C81 O93 1.253 . S
C82 O94 1.239 . S
C82 O95 1.230 1_655 S
N83 Cd54 2.304 . S
N83 C84 1.337 . S
N83 C88 1.338 1_455 S
C84 N83 1.337 . S
C84 C85 1.379 . S
C84 H98 0.929 . S
C85 C84 1.379 . S
C85 C86 1.380 . S
C85 H106 0.929 . S
C86 C85 1.380 . S
C86 C87 1.399 1_455 S
C87 C86 1.399 1_655 S
C87 C88 1.376 . S
C87 H107 0.931 . S
C88 N83 1.338 1_655 S
C88 C87 1.376 . S
C88 H99 0.930 . S
C89 O96 1.239 . S
C89 O97 1.230 1_455 S
O90 Cd54 2.268 1_655 S
O90 C64 1.238 . S
O91 Cd55 2.273 1_655 S
O91 C64 1.253 . S
O92 Cd55 2.268 . S
O92 C81 1.238 . S
O93 Cd54 2.273 . S
O93 C81 1.253 . S
O94 Cd54 2.417 1_655 S
O94 C82 1.239 . S
O95 Cd54 2.330 . S
O95 C82 1.230 1_455 S
O96 Cd55 2.417 . S
O96 C89 1.239 . S
O97 Cd55 2.330 1_655 S
O97 C89 1.230 1_655 S
H98 C84 0.929 . S
H99 C88 0.930 . S
H100 C58 0.931 . S
H101 C60 0.930 . S
H102 C66 0.929 . S
H103 C68 0.931 . S
H104 C75 0.931 . S
H105 C77 0.930 . S
H106 C85 0.929 . S
H107 C87 0.931 . S
Cd108 N111 2.334 . S
Cd108 N137 2.304 . S
Cd108 O144 2.268 . S
Cd108 O147 2.273 . S
Cd108 O148 2.417 . S
Cd108 O149 2.330 . S
Cd109 N124 2.304 . S
Cd109 N128 2.334 . S
Cd109 O145 2.273 . S
Cd109 O146 2.268 . S
Cd109 O150 2.417 . S
Cd109 O151 2.330 . S
C110 N111 1.332 . S
C110 C114 1.381 1_554 S
C110 H116 0.931 . S
N111 Cd108 2.334 . S
N111 C110 1.332 . S
N111 C115 1.328 . S
C112 C113 1.396 . S
C112 C115 1.378 1_556 S
C112 H154 0.931 . S
C113 C112 1.396 . S
C113 C114 1.382 . S
C114 C110 1.381 1_556 S
C114 C113 1.382 . S
C114 H155 0.930 . S
C115 N111 1.328 . S
C115 C112 1.378 1_554 S
C115 H117 0.930 . S
H116 C110 0.931 . S
H117 C115 0.930 . S
C118 O144 1.238 . S
C118 O145 1.253 . S
C119 C120 1.379 . S
C119 N124 1.337 . S
C119 H125 0.929 . S
C120 C119 1.379 . S
C120 C121 1.380 . S
C120 H156 0.929 . S
C121 C120 1.380 . S
C121 C122 1.399 . S
C122 C121 1.399 . S
C122 C123 1.376 . S
C122 H157 0.931 . S
C123 C122 1.376 . S
C123 N124 1.338 . S
C123 H126 0.930 . S
N124 Cd109 2.304 . S
N124 C119 1.337 . S
N124 C123 1.338 . S
H125 C119 0.929 . S
H126 C123 0.930 . S
C127 N128 1.332 . S
C127 C131 1.381 . S
C127 H133 0.931 . S
N128 Cd109 2.334 . S
N128 C127 1.332 . S
N128 C132 1.328 . S
C129 C130 1.396 . S
C129 C132 1.378 . S
C129 H158 0.931 . S
C130 C129 1.396 . S
C130 C131 1.382 . S
C131 C127 1.381 . S
C131 C130 1.382 . S
C131 H159 0.930 . S
C132 N128 1.328 . S
C132 C129 1.378 . S
C132 H134 0.930 . S
H133 C127 0.931 . S
H134 C132 0.930 . S
C135 O146 1.238 . S
C135 O147 1.253 . S
C136 O148 1.239 . S
C136 O149 1.230 . S
N137 Cd108 2.304 . S
N137 C138 1.337 . S
N137 C142 1.338 . S
C138 N137 1.337 . S
C138 C139 1.379 . S
C138 H152 0.929 . S
C139 C138 1.379 . S
C139 C140 1.380 . S
C139 H160 0.929 . S
C140 C139 1.380 . S
C140 C141 1.399 . S
C141 C140 1.399 . S
C141 C142 1.376 . S
C141 H161 0.931 . S
C142 N137 1.338 . S
C142 C141 1.376 . S
C142 H153 0.930 . S
C143 O150 1.239 . S
C143 O151 1.230 . S
O144 Cd108 2.268 . S
O144 C118 1.238 . S
O145 Cd109 2.273 . S
O145 C118 1.253 . S
O146 Cd109 2.268 . S
O146 C135 1.238 . S
O147 Cd108 2.273 . S
O147 C135 1.253 . S
O148 Cd108 2.417 . S
O148 C136 1.239 . S
O149 Cd108 2.330 . S
O149 C136 1.230 . S
O150 Cd109 2.417 . S
O150 C143 1.239 . S
O151 Cd109 2.330 . S
O151 C143 1.230 . S
H152 C138 0.929 . S
H153 C142 0.930 . S
H154 C112 0.931 . S
H155 C114 0.930 . S
H156 C120 0.929 . S
H157 C122 0.931 . S
H158 C129 0.931 . S
H159 C131 0.930 . S
H160 C139 0.929 . S
H161 C141 0.931 . S
Cd162 N165 2.334 . S
Cd162 N191 2.304 . S
Cd162 O198 2.268 . S
Cd162 O201 2.273 . S
Cd162 O202 2.417 . S
Cd162 O203 2.330 . S
Cd163 N178 2.304 . S
Cd163 N182 2.334 . S
Cd163 O199 2.273 . S
Cd163 O200 2.268 . S
Cd163 O204 2.417 . S
Cd163 O205 2.330 . S
C164 N165 1.332 . S
C164 C168 1.381 . S
C164 H170 0.931 . S
N165 Cd162 2.334 . S
N165 C164 1.332 . S
N165 C169 1.328 . S
C166 C167 1.396 . S
C166 C169 1.378 . S
C166 H208 0.931 . S
C167 C166 1.396 . S
C167 C168 1.382 . S
C168 C164 1.381 . S
C168 C167 1.382 . S
C168 H209 0.930 . S
C169 N165 1.328 . S
C169 C166 1.378 . S
C169 H171 0.930 . S
H170 C164 0.931 . S
H171 C169 0.930 . S
C172 O198 1.238 . S
C172 O199 1.253 . S
C173 C174 1.379 1_556 S
C173 N178 1.337 . S
C173 H179 0.929 . S
C174 C173 1.379 1_554 S
C174 C175 1.380 . S
C174 H210 0.929 . S
C175 C174 1.380 . S
C175 C176 1.399 . S
C176 C175 1.399 . S
C176 C177 1.376 1_554 S
C176 H211 0.931 . S
C177 C176 1.376 1_556 S
C177 N178 1.338 . S
C177 H180 0.930 . S
N178 Cd163 2.304 . S
N178 C173 1.337 . S
N178 C177 1.338 . S
H179 C173 0.929 . S
H180 C177 0.930 . S
C181 N182 1.332 . S
C181 C185 1.381 . S
C181 H187 0.931 . S
N182 Cd163 2.334 . S
N182 C181 1.332 . S
N182 C186 1.328 . S
C183 C184 1.396 . S
C183 C186 1.378 . S
C183 H212 0.931 . S
C184 C183 1.396 . S
C184 C185 1.382 . S
C185 C181 1.381 . S
C185 C184 1.382 . S
C185 H213 0.930 . S
C186 N182 1.328 . S
C186 C183 1.378 . S
C186 H188 0.930 . S
H187 C181 0.931 . S
H188 C186 0.930 . S
C189 O200 1.238 . S
C189 O201 1.253 . S
C190 O202 1.239 . S
C190 O203 1.230 . S
N191 Cd162 2.304 . S
N191 C192 1.337 . S
N191 C196 1.338 . S
C192 N191 1.337 . S
C192 C193 1.379 . S
C192 H206 0.929 . S
C193 C192 1.379 . S
C193 C194 1.380 . S
C193 H214 0.929 . S
C194 C193 1.380 . S
C194 C195 1.399 . S
C195 C194 1.399 . S
C195 C196 1.376 . S
C195 H215 0.931 . S
C196 N191 1.338 . S
C196 C195 1.376 . S
C196 H207 0.930 . S
C197 O204 1.239 . S
C197 O205 1.230 . S
O198 Cd162 2.268 . S
O198 C172 1.238 . S
O199 Cd163 2.273 . S
O199 C172 1.253 . S
O200 Cd163 2.268 . S
O200 C189 1.238 . S
O201 Cd162 2.273 . S
O201 C189 1.253 . S
O202 Cd162 2.417 . S
O202 C190 1.239 . S
O203 Cd162 2.330 . S
O203 C190 1.230 . S
O204 Cd163 2.417 . S
O204 C197 1.239 . S
O205 Cd163 2.330 . S
O205 C197 1.230 . S
H206 C192 0.929 . S
H207 C196 0.930 . S
H208 C166 0.931 . S
H209 C168 0.930 . S
H210 C174 0.929 . S
H211 C176 0.931 . S
H212 C183 0.931 . S
H213 C185 0.930 . S
H214 C193 0.929 . S
H215 C195 0.931 . S
C216 C217 1.387 1_455 S
C216 H220 0.950 . S
C216 C225 1.390 . S
C217 C216 1.387 1_655 S
C217 C219 1.387 . S
H218 C225 0.950 . S
C219 C217 1.387 . S
C219 C221 1.390 . S
C219 H223 0.950 . S
H220 C216 0.950 . S
C221 C219 1.390 . S
C221 C222 1.387 1_655 S
C221 H224 0.950 . S
C222 C221 1.387 1_455 S
C222 C225 1.387 . S
H223 C219 0.950 . S
H224 C221 0.950 . S
C225 C216 1.390 . S
C225 H218 0.950 . S
C225 C222 1.387 . S
C226 C227 1.387 . S
C226 H230 0.950 . S
C226 C235 1.390 . S
C227 C226 1.387 . S
C227 C229 1.387 1_455 S
H228 C235 0.950 . S
C229 C227 1.387 1_655 S
C229 C231 1.390 . S
C229 H233 0.950 . S
H230 C226 0.950 . S
C231 C229 1.390 . S
C231 C232 1.387 1_655 S
C231 H234 0.950 . S
C232 C231 1.387 1_455 S
C232 C235 1.387 . S
H233 C229 0.950 . S
H234 C231 0.950 . S
C235 C226 1.390 . S
C235 H228 0.950 . S
C235 C232 1.387 . S
C236 C237 1.387 . S
C236 H240 0.950 . S
C236 C245 1.390 . S
C237 C236 1.387 . S
C237 C239 1.387 . S
H238 C245 0.950 . S
C239 C237 1.387 . S
C239 C241 1.390 . S
C239 H243 0.950 . S
H240 C236 0.950 . S
C241 C239 1.390 . S
C241 C242 1.387 . S
C241 H244 0.950 . S
C242 C241 1.387 . S
C242 C245 1.387 . S
H243 C239 0.950 . S
H244 C241 0.950 . S
C245 C236 1.390 . S
C245 H238 0.950 . S
C245 C242 1.387 . S
C246 C247 1.387 . S
C246 H250 0.950 . S
C246 C255 1.390 . S
C247 C246 1.387 . S
C247 C249 1.387 . S
H248 C255 0.950 . S
C249 C247 1.387 . S
C249 C251 1.390 . S
C249 H253 0.950 . S
H250 C246 0.950 . S
C251 C249 1.390 . S
C251 C252 1.387 . S
C251 H254 0.950 . S
C252 C251 1.387 . S
C252 C255 1.387 . S
H253 C249 0.950 . S
H254 C251 0.950 . S
C255 C246 1.390 . S
C255 H248 0.950 . S
C255 C252 1.387 . S
C256 C257 1.387 . S
C256 H260 0.950 . S
C256 C265 1.390 . S
C257 C256 1.387 . S
C257 C259 1.387 . S
H258 C265 0.950 . S
C259 C257 1.387 . S
C259 C261 1.390 . S
C259 H263 0.950 . S
H260 C256 0.950 . S
C261 C259 1.390 . S
C261 C262 1.387 . S
C261 H264 0.950 . S
C262 C261 1.387 . S
C262 C265 1.387 . S
H263 C259 0.950 . S
H264 C261 0.950 . S
C265 C256 1.390 . S
C265 H258 0.950 . S
C265 C262 1.387 . S
C266 C267 1.387 . S
C266 H270 0.950 . S
C266 C275 1.390 . S
C267 C266 1.387 . S
C267 C269 1.387 . S
H268 C275 0.950 . S
C269 C267 1.387 . S
C269 C271 1.390 . S
C269 H273 0.950 . S
H270 C266 0.950 . S
C271 C269 1.390 . S
C271 C272 1.387 . S
C271 H274 0.950 . S
C272 C271 1.387 . S
C272 C275 1.387 . S
H273 C269 0.950 . S
H274 C271 0.950 . S
C275 C266 1.390 . S
C275 H268 0.950 . S
C275 C272 1.387 . S
C276 C277 1.387 . S
C276 H280 0.950 . S
C276 C285 1.390 1_655 S
C277 C276 1.387 . S
C277 C279 1.387 . S
H278 C285 0.950 . S
C279 C277 1.387 . S
C279 C281 1.390 1_655 S
C279 H283 0.950 . S
H280 C276 0.950 . S
C281 C279 1.390 1_455 S
C281 C282 1.387 . S
C281 H284 0.950 . S
C282 C281 1.387 . S
C282 C285 1.387 . S
H283 C279 0.950 . S
H284 C281 0.950 . S
C285 C276 1.390 1_455 S
C285 H278 0.950 . S
C285 C282 1.387 . S
C286 C287 1.387 . S
C286 H290 0.950 . S
C286 C295 1.390 1_655 S
C287 C286 1.387 . S
C287 C289 1.387 . S
H288 C295 0.950 . S
C289 C287 1.387 . S
C289 C291 1.390 1_655 S
C289 H293 0.950 . S
H290 C286 0.950 . S
C291 C289 1.390 1_455 S
C291 C292 1.387 . S
C291 H294 0.950 . S
C292 C291 1.387 . S
C292 C295 1.387 . S
H293 C289 0.950 . S
H294 C291 0.950 . S
C295 C286 1.390 1_455 S
C295 H288 0.950 . S
C295 C292 1.387 . S
C296 C297 1.387 . S
C296 H300 0.950 . S
C296 C305 1.390 . S
C297 C296 1.387 . S
C297 C299 1.387 . S
H298 C305 0.950 . S
C299 C297 1.387 . S
C299 C301 1.390 . S
C299 H303 0.950 . S
H300 C296 0.950 . S
C301 C299 1.390 . S
C301 C302 1.387 . S
C301 H304 0.950 . S
C302 C301 1.387 . S
C302 C305 1.387 . S
H303 C299 0.950 . S
H304 C301 0.950 . S
C305 C296 1.390 . S
C305 H298 0.950 . S
C305 C302 1.387 . S
C306 C307 1.387 1_554 S
C306 H310 0.950 . S
C306 C315 1.390 . S
C307 C306 1.387 1_556 S
C307 C309 1.387 . S
H308 C315 0.950 . S
C309 C307 1.387 . S
C309 C311 1.390 . S
C309 H313 0.950 . S
H310 C306 0.950 . S
C311 C309 1.390 . S
C311 C312 1.387 1_556 S
C311 H314 0.950 . S
C312 C311 1.387 1_554 S
C312 C315 1.387 . S
H313 C309 0.950 . S
H314 C311 0.950 . S
C315 C306 1.390 . S
C315 H308 0.950 . S
C315 C312 1.387 . S
C316 C317 1.387 . S
C316 H320 0.950 . S
C316 C325 1.390 . S
C317 C316 1.387 . S
C317 C319 1.387 . S
H318 C325 0.950 . S
C319 C317 1.387 . S
C319 C321 1.390 . S
C319 H323 0.950 . S
H320 C316 0.950 . S
C321 C319 1.390 . S
C321 C322 1.387 . S
C321 H324 0.950 . S
C322 C321 1.387 . S
C322 C325 1.387 . S
H323 C319 0.950 . S
H324 C321 0.950 . S
C325 C316 1.390 . S
C325 H318 0.950 . S
C325 C322 1.387 . S
C326 C327 1.387 . S
C326 H330 0.950 . S
C326 C335 1.390 . S
C327 C326 1.387 . S
C327 C329 1.387 1_554 S
H328 C335 0.950 . S
C329 C327 1.387 1_556 S
C329 C331 1.390 . S
C329 H333 0.950 . S
H330 C326 0.950 . S
C331 C329 1.390 . S
C331 C332 1.387 . S
C331 H334 0.950 . S
C332 C331 1.387 . S
C332 C335 1.387 1_556 S
H333 C329 0.950 . S
H334 C331 0.950 . S
C335 C326 1.390 . S
C335 H328 0.950 . S
C335 C332 1.387 1_554 S
C336 C337 1.387 1_556 S
C336 H340 0.950 . S
C336 C345 1.390 1_545 S
C337 C336 1.387 1_554 S
C337 C339 1.387 1_655 S
H338 C345 0.950 . S
C339 C337 1.387 1_455 S
C339 C341 1.390 1_545 S
C339 H343 0.950 . S
H340 C336 0.950 . S
C341 C339 1.390 1_565 S
C341 C342 1.387 1_554 S
C341 H344 0.950 . S
C342 C341 1.387 1_556 S
C342 C345 1.387 1_455 S
H343 C339 0.950 . S
H344 C341 0.950 . S
C345 C336 1.390 1_565 S
C345 H338 0.950 . S
C345 C342 1.387 1_655 S
C346 C347 1.387 1_655 S
C346 H350 0.950 . S
C346 C355 1.366 1_545 S
C347 C346 1.387 1_455 S
C347 C349 1.397 . S
H348 C355 0.946 . S
C349 C347 1.397 . S
C349 C351 1.377 1_545 S
C349 H353 0.946 . S
H350 C346 0.950 . S
C351 C349 1.377 1_565 S
C351 C352 1.387 1_455 S
C351 H354 0.950 . S
C352 C351 1.387 1_655 S
C352 C355 1.406 . S
H353 C349 0.946 . S
H354 C351 0.950 . S
C355 C346 1.366 1_565 S
C355 H348 0.946 . S
C355 C352 1.406 . S
C356 C357 1.387 1_556 S
C356 H360 0.950 . S
C356 C365 1.390 . S
C357 C356 1.387 1_554 S
C357 C359 1.387 . S
H358 C365 0.950 . S
C359 C357 1.387 . S
C359 C361 1.390 . S
C359 H363 0.950 . S
H360 C356 0.950 . S
C361 C359 1.390 . S
C361 C362 1.387 1_554 S
C361 H364 0.950 . S
C362 C361 1.387 1_556 S
C362 C365 1.387 . S
H363 C359 0.950 . S
H364 C361 0.950 . S
C365 C356 1.390 . S
C365 H358 0.950 . S
C365 C362 1.387 . S
C366 C367 1.387 . S
C366 H370 0.950 . S
C366 C375 1.390 . S
C367 C366 1.387 . S
C367 C369 1.387 . S
H368 C375 0.950 . S
C369 C367 1.387 . S
C369 C371 1.390 . S
C369 H373 0.950 . S
H370 C366 0.950 . S
C371 C369 1.390 . S
C371 C372 1.387 . S
C371 H374 0.950 . S
C372 C371 1.387 . S
C372 C375 1.387 . S
H373 C369 0.950 . S
H374 C371 0.950 . S
C375 C366 1.390 . S
C375 H368 0.950 . S
C375 C372 1.387 . S
C217 C5 1.787 . S
C222 C13 1.789 . S
C227 C59 1.788 . S
C232 C67 1.789 . S
C237 C113 1.787 . S
C242 C121 1.789 . S
C247 C175 1.788 . S
C252 C167 1.786 . S
C257 C10 0.955 . S
C262 C27 0.955 . S
C267 C64 0.955 . S
C272 C81 0.955 . S
C277 C135 0.955 . S
C282 C118 0.955 . S
C287 C189 0.955 . S
C292 C172 0.955 . S
C297 C190 1.691 . S
C302 C35 1.690 . S
C307 C194 2.032 . S
C312 C22 2.026 . S
C317 C143 1.688 . S
C322 C82 1.688 . S
C327 C130 2.025 . S
C332 C86 2.032 . S
C337 C28 0.853 . S
C342 C89 0.853 . S
C347 C32 1.890 . S
C352 C76 1.893 . S
C357 C136 0.852 . S
C362 C197 0.852 . S
C367 C184 1.893 . S
C372 C140 1.890 . S
