# Generated by pormake.
# Topology snp, (6)-cn, num edge types: 1
# Building blocks:
#     Node 0, Type 0, BuildingBlock: MIDCAF_clean_sbu_0, # of connection points: 6
#     Node 1, Type 0, BuildingBlock: MIDCAF_clean_sbu_0, # of connection points: 6
#     Node 2, Type 0, BuildingBlock: MIDCAF_clean_sbu_0, # of connection points: 6
#     Node 3, Type 0, BuildingBlock: MIDCAF_clean_sbu_0, # of connection points: 6
#     Edge 4, Type (0, 0), BuildingBlock: UVAHIK_clean_linker_0, # of connection points: 2
#     Edge 5, Type (0, 0), BuildingBlock: UVAHIK_clean_linker_0, # of connection points: 2
#     Edge 6, Type (0, 0), BuildingBlock: UVAHIK_clean_linker_0, # of connection points: 2
#     Edge 7, Type (0, 0), BuildingBlock: UVAHIK_clean_linker_0, # of connection points: 2
#     Edge 8, Type (0, 0), BuildingBlock: UVAHIK_clean_linker_0, # of connection points: 2
#     Edge 9, Type (0, 0), BuildingBlock: UVAHIK_clean_linker_0, # of connection points: 2
#     Edge 10, Type (0, 0), BuildingBlock: UVAHIK_clean_linker_0, # of connection points: 2
#     Edge 11, Type (0, 0), BuildingBlock: UVAHIK_clean_linker_0, # of connection points: 2
#     Edge 12, Type (0, 0), BuildingBlock: UVAHIK_clean_linker_0, # of connection points: 2
#     Edge 13, Type (0, 0), BuildingBlock: UVAHIK_clean_linker_0, # of connection points: 2
#     Edge 14, Type (0, 0), BuildingBlock: UVAHIK_clean_linker_0, # of connection points: 2
#     Edge 15, Type (0, 0), BuildingBlock: UVAHIK_clean_linker_0, # of connection points: 2
# Relax obj value: 0.760
# Max RMSD: 0.328
# Mean RMSD: 0.324
data_MOF--net-snp--node1-MIDCAF_clean_sbu_0--edge1-UVAHIK_clean_linker_0
_symmetry_space_group_name_H-M    P1
_symmetry_Int_Tables_number       1
_symmetry_cell_setting            triclinic
loop_
_symmetry_equiv_pos_as_xyz
'x, y, z'
_cell_length_a     33.519299
_cell_length_b     33.710302
_cell_length_c     29.214219
_cell_angle_alpha  82.188225
_cell_angle_beta   89.928981
_cell_angle_gamma 99.857922
loop_
_atom_site_label
_atom_site_type_symbol
_atom_site_fract_x
_atom_site_fract_y
_atom_site_fract_z
_atom_type_partial_charge
Zn0 Zn 0.37409 0.24865 0.01114 0.0
Zn1 Zn 0.29362 0.05465 0.05173 0.0
Zn2 Zn 0.29707 0.12256 0.03401 0.0
C3 C 0.2182 0.07556 0.01732 0.0
C4 C 0.29766 0.07516 0.13252 0.0
O5 O 0.35232 0.16651 0.01944 0.0
O6 O 0.41075 0.20582 0.0023 0.0
C7 C 0.30705 0.21117 0.9678 0.0
O8 O 0.24345 0.10612 -0.00192 0.0
O9 O 0.23073 0.0505 0.04813 0.0
O10 O 0.31804 0.05247 0.11489 0.0
O11 O 0.28182 0.10096 0.10572 0.0
O12 O 0.32954 0.24596 0.96104 0.0
O13 O 0.31504 0.18587 0.00252 0.0
O14 O 0.32292 0.18286 0.05105 0.0
O15 O 0.34699 0.23974 0.07726 0.0
C16 C 0.32383 0.20532 0.0838 0.0
O17 O 0.28788 0.09205 0.97242 0.0
O18 O 0.3174 0.0397 0.99433 0.0
C19 C 0.39006 0.17009 0.00821 0.0
C20 C 0.30083 0.06049 0.96281 0.0
Zn21 Zn 0.93293 0.21666 0.51048 0.0
Zn22 Zn 0.05021 0.31852 0.50977 0.0
Zn23 Zn 0.9937 0.26025 0.51433 0.0
C24 C 0.06156 0.27435 0.43592 0.0
C25 C 0.05639 0.2654 0.59398 0.0
O26 O 0.9747 0.23109 0.58615 0.0
O27 O 0.91136 0.23369 0.56841 0.0
C28 C 0.95472 0.22997 0.42678 0.0
O29 O 0.03024 0.2513 0.45608 0.0
O30 O 0.07501 0.30798 0.44985 0.0
O31 O 0.07479 0.29723 0.56959 0.0
O32 O 0.02334 0.24579 0.5798 0.0
O33 O 0.92273 0.2377 0.4442 0.0
O34 O 0.98694 0.2325 0.45074 0.0
O35 O 0.0029 0.20916 0.56349 0.0
O36 O 0.96818 0.17063 0.51777 0.0
C37 C 0.99699 0.17586 0.54557 0.0
O38 O 0.95752 0.30587 0.51196 0.0
O39 O 0.009 0.3561 0.51246 0.0
C40 C 0.93755 0.22947 0.59913 0.0
C41 C 0.97115 0.34333 0.51281 0.0
Zn42 Zn 0.73735 0.88771 0.05252 0.0
Zn43 Zn 0.74409 0.09891 0.06144 0.0
Zn44 Zn 0.76215 0.96973 0.0536 0.0
C45 C 0.8099 0.06524 0.03136 0.0
C46 C 0.75059 0.03366 0.12744 0.0
O47 O 0.7046 0.95433 0.0232 0.0
O48 O 0.68294 0.88902 0.02363 0.0
C49 C 0.81637 0.92493 0.00418 0.0
O50 O 0.78215 0.03506 0.04669 0.0
O51 O 0.80259 0.10083 0.03339 0.0
O52 O 0.74132 0.06858 0.1279 0.0
O53 O 0.7517 0.02106 0.08765 0.0
O54 O 0.79035 0.89302 0.01595 0.0
O55 O 0.81049 0.9593 0.01353 0.0
O56 O 0.77291 0.93629 0.11916 0.0
O57 O 0.74096 0.87331 0.12092 0.0
C58 C 0.76237 0.90037 0.14064 0.0
O59 O 0.73036 0.02172 0.03717 0.0
O60 O 0.70361 0.07547 0.01458 0.0
C61 C 0.67759 0.92533 0.01372 0.0
C62 C 0.71537 0.04389 0.00412 0.0
Zn63 Zn 0.90456 0.87565 0.56353 0.0
Zn64 Zn 0.0749 0.76415 0.59431 0.0
Zn65 Zn 0.01041 0.80693 0.58096 0.0
C66 C 0.07049 0.80903 0.66715 0.0
C67 C 0.08706 0.82601 0.51445 0.0
O68 O 0.94773 0.81397 0.56686 0.0
O69 O 0.88719 0.8194 0.54207 0.0
C70 C 0.95086 0.85442 0.63918 0.0
O71 O 0.04257 0.8204 0.64165 0.0
O72 O 0.08772 0.78059 0.65721 0.0
O73 O 0.1042 0.80042 0.53938 0.0
O74 O 0.05122 0.83029 0.52456 0.0
O75 O 0.92052 0.87225 0.63176 0.0
O76 O 0.96354 0.83778 0.60587 0.0
O77 O 0.97827 0.85505 0.55462 0.0
O78 O 0.95564 0.91001 0.5261 0.0
C79 C 0.98556 0.8914 0.53278 0.0
O80 O 0.98661 0.74524 0.57512 0.0
O81 O 0.0382 0.71257 0.58414 0.0
C82 C 0.9167 0.8001 0.54381 0.0
C83 C 0.00112 0.71265 0.57602 0.0
C84 C 0.86857 0.02905 0.03167 0.0
C85 C 0.84814 0.05938 0.0108 0.0
C86 C 0.90656 0.02561 0.01503 0.0
C87 C 0.99494 0.08942 0.95357 0.0
H88 H 0.03666 0.98824 0.97579 0.0
C89 C 0.16597 0.08642 0.95813 0.0
C90 C 0.17639 0.06735 0.00114 0.0
C91 C 0.12575 0.08097 0.94435 0.0
C92 C 0.02535 0.01665 0.96882 0.0
H93 H 0.85022 0.10893 0.95482 0.0
H94 H 0.91669 0.10252 0.92466 0.0
H95 H 0.96378 0.98681 0.97695 0.0
H96 H 0.15365 0.02513 0.06194 0.0
H97 H 0.08349 0.01518 0.03778 0.0
H98 H 0.05678 0.11926 0.94764 0.0
C99 C 0.90365 0.08175 0.95457 0.0
C100 C 0.98362 0.01591 0.96953 0.0
C101 C 0.8657 0.08546 0.97176 0.0
C102 C 0.14641 0.04055 0.02879 0.0
C103 C 0.10632 0.03463 0.0148 0.0
C104 C 0.03668 0.09012 0.95249 0.0
C105 C 0.92499 0.05236 0.97677 0.0
C106 C 0.96798 0.05239 0.96425 0.0
C107 C 0.09548 0.0555 0.97297 0.0
C108 C 0.0522 0.05387 0.96237 0.0
H109 H 0.85591 0.00871 0.06185 0.0
H110 H 0.92219 0.0031 0.0337 0.0
H111 H 0.98415 0.11816 0.94969 0.0
H112 H 0.18887 0.10566 0.93527 0.0
H113 H 0.1182 0.09706 0.91172 0.0
C114 C 0.05704 0.90665 0.55692 0.0
C115 C 0.02724 0.91366 0.52457 0.0
C116 C 0.09437 0.93253 0.55479 0.0
C117 C 0.14366 0.0355 0.49597 0.0
H118 H 0.11534 0.06021 0.61613 0.0
C119 C 0.05899 0.15367 0.58113 0.0
C120 C 0.02893 0.15072 0.54761 0.0
C121 C 0.09228 0.13394 0.57876 0.0
C122 C 0.12537 0.05447 0.58276 0.0
H123 H 0.01369 0.95177 0.46298 0.0
H124 H 0.07733 -0.00129 0.46054 0.0
H125 H 0.11925 0.99145 0.60667 0.0
H126 H 0.01041 0.12532 0.48508 0.0
H127 H 0.06723 0.09038 0.48146 0.0
H128 H 0.14428 0.09828 0.47126 0.0
C129 C 0.07324 0.97218 0.48662 0.0
C130 C 0.12762 0.01452 0.57709 0.0
C131 C 0.03621 0.94572 0.48834 0.0
C132 C 0.03279 0.1279 0.5117 0.0
C133 C 0.06608 0.10875 0.50896 0.0
C134 C 0.14146 0.07555 0.50165 0.0
C135 C 0.1017 0.96747 0.52174 0.0
C136 C 0.12985 0.00412 0.53213 0.0
C137 C 0.09624 0.11142 0.54242 0.0
C138 C 0.12605 0.08365 0.54358 0.0
H139 H 0.0505 0.88278 0.58577 0.0
H140 H 0.1156 0.92763 0.58204 0.0
H141 H 0.14825 0.0286 0.4614 0.0
H142 H 0.05665 0.17102 0.60923 0.0
H143 H 0.11449 0.13564 0.60564 0.0
C144 C 0.60207 0.91213 0.01856 0.0
C145 C 0.63816 0.93448 -0.00255 0.0
C146 C 0.56555 0.92664 0.01139 0.0
C147 C 0.50834 0.98547 0.02408 0.0
H148 H 0.48242 0.04997 0.9114 0.0
C149 C 0.39353 0.0958 0.02296 0.0
C150 C 0.40887 0.13498 0.00067 0.0
C151 C 0.41303 0.06314 0.01723 0.0
C152 C 0.48913 0.0319 0.9431 0.0
H153 H 0.66382 0.98631 0.94828 0.0
H154 H 0.6007 0.01231 0.93624 0.0
H155 H 0.53182 0.00482 0.90869 0.0
H156 H 0.45595 0.17086 0.95412 0.0
H157 H 0.48995 0.11431 0.94413 0.0
H158 H 0.4671 0.01395 0.05883 0.0
C159 C 0.60021 0.98379 0.95853 0.0
C160 C 0.51738 0.00604 0.94153 0.0
C161 C 0.63659 0.96935 0.9659 0.0
C162 C 0.44346 0.14091 0.97179 0.0
C163 C 0.46267 0.1084 0.96566 0.0
C164 C 0.48004 0.0113 0.02562 0.0
C165 C 0.56457 0.96351 0.98267 0.0
C166 C 0.52848 0.98374 0.9823 0.0
C167 C 0.44798 0.0692 0.98865 0.0
C168 C 0.47136 0.03599 0.98545 0.0
H169 H 0.60255 0.88505 0.04307 0.0
H170 H 0.53848 0.91004 0.02996 0.0
H171 H 0.51645 0.96905 0.05622 0.0
H172 H 0.36715 0.0907 0.0457 0.0
H173 H 0.40101 0.03329 0.03542 0.0
C174 C 0.91773 0.38344 0.48428 0.0
C175 C 0.94381 0.37184 0.51915 0.0
C176 C 0.89872 0.41705 0.48699 0.0
C177 C 0.88373 0.49418 0.56352 0.0
H178 H 0.92817 0.57178 0.45808 0.0
C179 C 0.93349 0.6681 0.56894 0.0
C180 C 0.97597 0.67549 0.56349 0.0
C181 C 0.91066 0.63208 0.55725 0.0
C182 C 0.91434 0.55048 0.48723 0.0
H183 H 0.96809 0.38311 0.58559 0.0
H184 H 0.93484 0.44098 0.59087 0.0
H185 H 0.91731 0.49945 0.45218 0.0
H186 H 0.02755 0.65221 0.53951 0.0
H187 H 0.98796 0.59043 0.51841 0.0
H188 H 0.88495 0.5455 0.59987 0.0
C189 C 0.92858 0.42461 0.56151 0.0
C190 C 0.90793 0.50898 0.48386 0.0
C191 C 0.94801 0.39172 0.55837 0.0
C192 C 0.99496 0.64717 0.54469 0.0
C193 C 0.97226 0.61203 0.53203 0.0
C194 C 0.88999 0.53579 0.5668 0.0
C195 C 0.90518 0.43884 0.52496 0.0
C196 C 0.89551 0.48038 0.52304 0.0
C197 C 0.93003 0.60391 0.53853 0.0
C198 C 0.9081 0.56394 0.52966 0.0
H199 H 0.91433 0.36842 0.45365 0.0
H200 H 0.88091 0.4274 0.45831 0.0
H201 H 0.87354 0.47277 0.59406 0.0
H202 H 0.91812 0.68963 0.58313 0.0
H203 H 0.87813 0.62613 0.56296 0.0
C204 C 0.10742 0.29015 0.36586 0.0
C205 C 0.08313 0.2612 0.3979 0.0
C206 C 0.13111 0.27797 0.33276 0.0
C207 C 0.14909 0.18963 0.27616 0.0
H208 H 0.25492 0.25667 0.25167 0.0
C209 C 0.255 0.18214 0.12057 0.0
C210 C 0.29682 0.19446 0.12508 0.0
C211 C 0.22815 0.18237 0.15737 0.0
C212 C 0.22583 0.23702 0.2585 0.0
H213 H 0.06448 0.19669 0.42025 0.0
H214 H 0.10625 0.17528 0.3627 0.0
H215 H 0.20929 0.27341 0.30727 0.0
H216 H 0.34381 0.21311 0.1722 0.0
H217 H 0.29751 0.21132 0.23712 0.0
H218 H 0.16643 0.15269 0.22774 0.0
C219 C 0.10633 0.20744 0.36244 0.0
C220 C 0.19919 0.24719 0.28991 0.0
C221 C 0.08226 0.21969 0.39537 0.0
C222 C 0.31163 0.20365 0.16792 0.0
C223 C 0.28499 0.20307 0.20489 0.0
C224 C 0.176 0.17924 0.24472 0.0
C225 C 0.13171 0.23649 0.33127 0.0
C226 C 0.16021 0.22409 0.29874 0.0
C227 C 0.24279 0.19456 0.19941 0.0
C228 C 0.21468 0.20304 0.23522 0.0
H229 H 0.10852 0.32234 0.36673 0.0
H230 H 0.14941 0.30124 0.30862 0.0
H231 H 0.11929 0.17114 0.282 0.0
H232 H 0.24289 0.17534 0.0876 0.0
H233 H 0.19593 0.17567 0.15172 0.0
C234 C 0.88776 0.22507 0.66333 0.0
C235 C 0.92285 0.21365 0.64685 0.0
C236 C 0.86776 0.20403 0.70361 0.0
C237 C 0.85166 0.10296 0.77332 0.0
H238 H 0.79597 0.15722 0.85596 0.0
C239 C 0.76058 0.02695 0.94341 0.0
C240 C 0.7279 0.04514 0.955 0.0
C241 C 0.78388 0.04219 0.90296 0.0
C242 C 0.81092 0.14154 0.83284 0.0
H243 H 0.96518 0.17179 0.66011 0.0
H244 H 0.9306 0.13531 0.7315 0.0
H245 H 0.84233 0.19747 0.79651 0.0
H246 H 0.68879 0.08753 0.92847 0.0
H247 H 0.72828 0.11301 0.85749 0.0
H248 H 0.82006 0.04687 0.81035 0.0
C249 C 0.91848 0.16051 0.71302 0.0
C250 C 0.83768 0.16465 0.79888 0.0
C251 C 0.93868 0.18184 0.67264 0.0
C252 C 0.71465 0.07371 0.92144 0.0
C253 C 0.73756 0.08869 0.88095 0.0
C254 C 0.8249 0.07971 0.80768 0.0
C255 C 0.88221 0.17077 0.72834 0.0
C256 C 0.85776 0.14577 0.76801 0.0
C257 C 0.77403 0.07519 0.87297 0.0
C258 C 0.8035 0.09884 0.83706 0.0
H259 H 0.87465 0.24916 0.6438 0.0
H260 H 0.83971 0.21253 0.71395 0.0
H261 H 0.86641 0.08742 0.74989 0.0
H262 H 0.77071 0.004 0.96765 0.0
H263 H 0.8114 0.03054 0.89736 0.0
C264 C 0.88372 0.75305 0.49263 0.0
C265 C 0.91981 0.77551 0.5065 0.0
C266 C 0.87581 0.75346 0.44564 0.0
C267 C 0.89796 0.83605 0.35461 0.0
H268 H 0.82043 0.76981 0.28603 0.0
C269 C 0.82158 0.905 0.19243 0.0
C270 C 0.78153 0.88755 0.18439 0.0
C271 C 0.84315 0.88725 0.22821 0.0
C272 C 0.84178 0.78884 0.30503 0.0
H273 H 0.97981 0.80666 0.48344 0.0
H274 H 0.96634 0.80702 0.4016 0.0
H275 H 0.85459 0.73746 0.35101 0.0
H276 H 0.73201 0.839 0.20869 0.0
H277 H 0.7688 0.80917 0.27265 0.0
H278 H 0.88349 0.8876 0.31125 0.0
C279 C 0.94347 0.79048 0.42662 0.0
C280 C 0.86176 0.77016 0.34179 0.0
C281 C 0.95143 0.78971 0.47367 0.0
C282 C 0.76283 0.85317 0.21422 0.0
C283 C 0.7842 0.8357 0.25039 0.0
C284 C 0.87767 0.85473 0.31838 0.0
C285 C 0.9042 0.77602 0.41242 0.0
C286 C 0.88955 0.79366 0.36752 0.0
C287 C 0.82504 0.8518 0.25707 0.0
C288 C 0.84865 0.83151 0.29368 0.0
H289 H 0.85908 0.74128 0.51748 0.0
H290 H 0.84546 0.74137 0.43587 0.0
H291 H 0.91839 0.85523 0.37445 0.0
H292 H 0.83721 0.93074 0.16918 0.0
H293 H 0.87461 0.90037 0.23183 0.0
C294 C 0.11558 0.81949 0.73439 0.0
C295 C 0.08812 0.83388 0.70266 0.0
C296 C 0.13824 0.84562 0.76175 0.0
C297 C 0.14648 0.94438 0.80551 0.0
H298 H 0.26153 0.94072 0.80532 0.0
C299 C 0.25839 0.05924 0.89225 0.0
C300 C 0.28641 0.04219 0.92116 0.0
C301 C 0.23636 0.03673 0.86088 0.0
C302 C 0.22947 0.94199 0.80609 0.0
H303 H 0.06243 0.88689 0.67562 0.0
H304 H 0.10089 0.93201 0.72442 0.0
H305 H 0.21575 0.89357 0.76516 0.0
H306 H 0.31581 0.98956 0.93669 0.0
H307 H 0.27759 0.95051 0.88242 0.0
H308 H 0.16001 0.99225 0.84724 0.0
C309 C 0.10477 0.90049 0.72828 0.0
C310 C 0.20321 0.91486 0.78316 0.0
C311 C 0.08242 0.87447 0.70059 0.0
C312 C 0.29442 0.00363 0.91509 0.0
C313 C 0.27241 0.98116 0.8838 0.0
C314 C 0.17273 0.97137 0.82879 0.0
C315 C 0.13385 0.88667 0.7581 0.0
C316 C 0.1614 0.91551 0.7829 0.0
C317 C 0.24202 0.99679 0.85755 0.0
C318 C 0.21457 0.97033 0.82966 0.0
H319 H 0.12078 0.78844 0.73675 0.0
H320 H 0.15999 0.83395 0.78497 0.0
H321 H 0.11437 0.9455 0.80605 0.0
H322 H 0.25166 0.08901 0.89574 0.0
H323 H 0.2139 0.05014 0.84039 0.0
C324 C 0.87141 0.88566 0.99627 0.0
C325 C 0.85473 0.92072 0.98243 0.0
C326 C 0.90506 0.87838 0.9729 0.0
C327 C 0.98205 0.92006 0.87889 0.0
H328 H 0.94624 0.81505 0.83885 0.0
C329 C 0.98154 0.89808 0.69491 0.0
C330 C 0.97296 0.85912 0.68185 0.0
C331 C 0.99147 0.90314 0.74016 0.0
C332 C 0.95817 0.84387 0.85029 0.0
H333 H 0.86176 0.97736 0.93598 0.0
H334 H 0.91967 0.96367 0.89304 0.0
H335 H 0.91545 0.83136 0.90647 0.0
H336 H 0.97232 0.79513 0.70363 0.0
H337 H 0.99088 0.80377 0.78329 0.0
H338 H 0.02366 0.93304 0.82099 0.0
C339 C 0.90726 0.94218 0.92267 0.0
C340 C 0.9401 0.8534 0.88933 0.0
C341 C 0.87392 0.94989 0.94684 0.0
C342 C 0.97874 0.82546 0.71324 0.0
C343 C 0.98907 0.83052 0.75881 0.0
C344 C 0.00071 0.91024 0.84005 0.0
C345 C 0.92221 0.90559 0.93451 0.0
C346 C 0.94992 0.8925 0.90222 0.0
C347 C 0.99257 0.86914 0.77358 0.0
C348 C 0.98663 0.8732 0.82318 0.0
H349 H 0.85767 0.8632 0.02448 0.0
H350 H 0.9163 0.85031 0.98331 0.0
H351 H 0.99096 0.95006 0.88886 0.0
H352 H 0.97753 0.9245 0.67087 0.0
H353 H 0.99384 0.93339 0.74958 0.0
C354 C 0.30677 0.04163 0.2123 0.0
C355 C 0.28502 0.06515 0.18168 0.0
C356 C 0.28961 0.02292 0.25502 0.0
C357 C 0.1989 0.01107 0.33397 0.0
H358 H 0.21517 0.89885 0.35282 0.0
C359 C 0.09152 0.88036 0.44594 0.0
C360 C 0.11042 0.85393 0.47661 0.0
C361 C 0.11452 0.90955 0.41331 0.0
C362 C 0.21063 0.93019 0.34838 0.0
H363 H 0.23004 0.09095 0.17346 0.0
H364 H 0.19951 0.05733 0.24721 0.0
H365 H 0.25452 0.94678 0.29335 0.0
H366 H 0.16821 0.83674 0.49627 0.0
H367 H 0.20804 0.88687 0.43873 0.0
H368 H 0.15351 0.99334 0.38823 0.0
C369 C 0.22999 0.05359 0.23879 0.0
C370 C 0.23345 0.95788 0.31449 0.0
C371 C 0.2475 0.07289 0.19636 0.0
C372 C 0.15262 0.85645 0.47302 0.0
C373 C 0.1755 0.88527 0.44018 0.0
C374 C 0.1757 0.98311 0.36774 0.0
C375 C 0.25 0.02667 0.26752 0.0
C376 C 0.22789 -0.00133 0.30668 0.0
C377 C 0.15676 0.91231 0.41025 0.0
C378 C 0.18133 0.94239 0.37509 0.0
H379 H 0.33607 0.03573 0.20214 0.0
H380 H 0.30649 0.00359 0.27707 0.0
H381 H 0.19399 0.04227 0.32912 0.0
H382 H 0.05899 0.8787 0.44739 0.0
H383 H 0.09925 0.92963 0.39014 0.0
C384 C 0.11698 0.25122 0.63768 0.0
C385 C 0.07486 0.2491 0.63652 0.0
C386 C 0.13497 0.23502 0.67725 0.0
C387 C 0.12473 0.21777 0.80075 0.0
H388 H 0.20962 0.1539 0.79189 0.0
C389 C 0.23424 0.19214 0.95021 0.0
C390 C 0.275 0.20018 0.93557 0.0
C391 C 0.20364 0.18768 0.91781 0.0
C392 C 0.18597 0.17169 0.79499 0.0
H393 H 0.01847 0.22918 0.67556 0.0
H394 H 0.05024 0.20159 0.74592 0.0
H395 H 0.16657 0.16622 0.72595 0.0
H396 H 0.31638 0.20889 0.87687 0.0
H397 H 0.26337 0.19996 0.82038 0.0
H398 H 0.14578 0.22573 0.86852 0.0
C399 C 0.06908 0.2151 0.71577 0.0
C400 C 0.16127 0.17853 0.75736 0.0
C401 C 0.05095 0.23068 0.67568 0.0
C402 C 0.28499 0.20219 0.88873 0.0
C403 C 0.25457 0.19683 0.85655 0.0
C404 C 0.14978 0.21132 0.83829 0.0
C405 C 0.11127 0.21703 0.71673 0.0
C406 C 0.13146 0.20289 0.75933 0.0
C407 C 0.2135 0.19015 0.87054 0.0
C408 C 0.18176 0.18962 0.83508 0.0
H409 H 0.136 0.26503 0.60775 0.0
H410 H 0.16762 0.23742 0.67736 0.0
H411 H 0.102 0.23678 0.80301 0.0
H412 H 0.22612 0.19094 0.98635 0.0
H413 H 0.17232 0.18246 0.92971 0.0
C414 C 0.81119 0.00981 0.16038 0.0
C415 C 0.77184 0.01697 0.16771 0.0
C416 C 0.84056 0.01644 0.1936 0.0
C417 C 0.88874 0.08676 0.23478 0.0
H418 H 0.88421 0.07513 0.36859 0.0
C419 C 0.92096 0.21105 0.35493 0.0
C420 C 0.95098 0.20631 0.38768 0.0
C421 C 0.90983 0.18168 0.32573 0.0
C422 C 0.88628 0.07812 0.33122 0.0
H423 H 0.7304 0.02977 0.21835 0.0
H424 H 0.78129 0.04046 0.27697 0.0
H425 H 0.84212 0.02429 0.32833 0.0
H426 H 0.99411 0.16825 0.41418 0.0
H427 H 0.97379 0.11644 0.36377 0.0
H428 H 0.92992 0.14257 0.23761 0.0
C429 C 0.7898 0.03017 0.24538 0.0
C430 C 0.86231 0.04915 0.30832 0.0
C431 C 0.76053 0.02387 0.21186 0.0
C432 C 0.97145 0.17309 0.38868 0.0
C433 C 0.95962 0.14323 0.36026 0.0
C434 C 0.91198 0.11608 0.25763 0.0
C435 C 0.83068 0.02995 0.23482 0.0
C436 C 0.86253 0.05383 0.25984 0.0
C437 C 0.92796 0.14683 0.32961 0.0
C438 C 0.91008 0.11245 0.30589 0.0
H439 H 0.82077 0.00475 0.12679 0.0
H440 H 0.87179 0.01554 0.18489 0.0
H441 H 0.88894 0.09159 0.19734 0.0
H442 H 0.90453 0.23617 0.35377 0.0
H443 H 0.88515 0.18477 0.30232 0.0
loop_
_geom_bond_atom_site_label_1
_geom_bond_atom_site_label_2
_geom_bond_distance
_geom_bond_site_symmetry_2
_ccdc_geom_bond_type
Zn0 O6 1.923 . S
Zn0 O12 1.898 1_554 S
Zn0 O15 1.905 . S
Zn1 O9 1.905 1_565 S
Zn1 O10 1.898 . S
Zn1 O18 1.920 . S
Zn2 O5 2.080 . S
Zn2 O8 2.114 . S
Zn2 O11 2.120 . S
Zn2 O13 2.120 1_554 S
Zn2 O14 2.114 . S
Zn2 O17 2.080 1_554 S
C3 O8 1.166 . S
C3 O9 1.182 . S
C4 O10 1.167 1_545 S
C4 O11 1.299 . S
O5 Zn2 2.080 . S
O5 C19 1.305 . S
O6 Zn0 1.923 . S
O6 C19 1.236 . S
C7 O12 1.167 . S
C7 O13 1.299 . S
O8 Zn2 2.114 . S
O8 C3 1.166 . S
O9 Zn1 1.905 1_545 S
O9 C3 1.182 . S
O10 Zn1 1.898 . S
O10 C4 1.167 1_565 S
O11 Zn2 2.120 . S
O11 C4 1.299 . S
O12 Zn0 1.898 1_556 S
O12 C7 1.167 . S
O13 Zn2 2.120 1_556 S
O13 C7 1.299 . S
O14 Zn2 2.114 . S
O14 C16 1.166 . S
O15 Zn0 1.905 . S
O15 C16 1.182 . S
C16 O14 1.166 . S
C16 O15 1.182 . S
O17 Zn2 2.080 1_556 S
O17 C20 1.305 1_545 S
O18 Zn1 1.920 . S
O18 C20 1.234 1_554 S
C19 O5 1.305 . S
C19 O6 1.236 . S
C20 O17 1.305 1_565 S
C20 O18 1.234 1_556 S
Zn21 O27 1.920 . S
Zn21 O33 1.898 . S
Zn21 O36 1.905 . S
Zn22 O30 1.905 . S
Zn22 O31 1.898 . S
Zn22 O39 1.920 . S
Zn23 O26 2.080 1_455 S
Zn23 O29 2.114 . S
Zn23 O32 2.120 . S
Zn23 O34 2.120 1_455 S
Zn23 O35 2.114 . S
Zn23 O38 2.080 . S
C24 O29 1.166 . S
C24 O30 1.182 . S
C25 O31 1.167 . S
C25 O32 1.299 . S
O26 Zn23 2.080 1_655 S
O26 C40 1.305 . S
O27 Zn21 1.920 . S
O27 C40 1.234 . S
C28 O33 1.167 . S
C28 O34 1.299 . S
O29 Zn23 2.114 . S
O29 C24 1.166 . S
O30 Zn22 1.905 . S
O30 C24 1.182 . S
O31 Zn22 1.898 . S
O31 C25 1.167 . S
O32 Zn23 2.120 . S
O32 C25 1.299 . S
O33 Zn21 1.898 . S
O33 C28 1.167 . S
O34 Zn23 2.120 1_655 S
O34 C28 1.299 . S
O35 Zn23 2.114 . S
O35 C37 1.166 . S
O36 Zn21 1.905 . S
O36 C37 1.182 1_655 S
C37 O35 1.166 . S
C37 O36 1.182 1_455 S
O38 Zn23 2.080 . S
O38 C41 1.305 . S
O39 Zn22 1.920 . S
O39 C41 1.234 . S
C40 O26 1.305 . S
C40 O27 1.234 . S
C41 O38 1.305 . S
C41 O39 1.234 . S
Zn42 O48 1.920 . S
Zn42 O54 1.898 . S
Zn42 O57 1.905 . S
Zn43 O51 1.905 . S
Zn43 O52 1.898 . S
Zn43 O60 1.920 1_554 S
Zn44 O47 2.080 1_545 S
Zn44 O50 2.114 . S
Zn44 O53 2.120 . S
Zn44 O55 2.120 1_544 S
Zn44 O56 2.114 1_545 S
Zn44 O59 2.080 1_554 S
C45 O50 1.166 . S
C45 O51 1.182 . S
C46 O52 1.167 . S
C46 O53 1.299 . S
O47 Zn44 2.080 1_565 S
O47 C61 1.305 . S
O48 Zn42 1.920 . S
O48 C61 1.234 . S
C49 O54 1.167 1_556 S
C49 O55 1.299 . S
O50 Zn44 2.114 . S
O50 C45 1.166 . S
O51 Zn43 1.905 . S
O51 C45 1.182 . S
O52 Zn43 1.898 . S
O52 C46 1.167 . S
O53 Zn44 2.120 . S
O53 C46 1.299 . S
O54 Zn42 1.898 . S
O54 C49 1.167 1_554 S
O55 Zn44 2.120 1_566 S
O55 C49 1.299 . S
O56 Zn44 2.114 1_565 S
O56 C58 1.166 . S
O57 Zn42 1.905 . S
O57 C58 1.182 . S
C58 O56 1.166 . S
C58 O57 1.182 . S
O59 Zn44 2.080 1_556 S
O59 C62 1.305 . S
O60 Zn43 1.920 1_556 S
O60 C62 1.234 . S
C61 O47 1.305 . S
C61 O48 1.234 . S
C62 O59 1.305 . S
C62 O60 1.234 . S
Zn63 O69 1.920 . S
Zn63 O75 1.898 . S
Zn63 O78 1.905 . S
Zn64 O72 1.905 . S
Zn64 O73 1.898 . S
Zn64 O81 1.920 . S
Zn65 O68 2.080 1_455 S
Zn65 O71 2.114 . S
Zn65 O74 2.120 . S
Zn65 O76 2.120 1_455 S
Zn65 O77 2.114 . S
Zn65 O80 2.080 . S
C66 O71 1.166 . S
C66 O72 1.182 . S
C67 O73 1.167 . S
C67 O74 1.299 . S
O68 Zn65 2.080 1_655 S
O68 C82 1.305 . S
O69 Zn63 1.920 . S
O69 C82 1.234 . S
C70 O75 1.167 . S
C70 O76 1.299 . S
O71 Zn65 2.114 . S
O71 C66 1.166 . S
O72 Zn64 1.905 . S
O72 C66 1.182 . S
O73 Zn64 1.898 . S
O73 C67 1.167 . S
O74 Zn65 2.120 . S
O74 C67 1.299 . S
O75 Zn63 1.898 . S
O75 C70 1.167 . S
O76 Zn65 2.120 1_655 S
O76 C70 1.299 . S
O77 Zn65 2.114 . S
O77 C79 1.166 1_455 S
O78 Zn63 1.905 . S
O78 C79 1.182 . S
C79 O77 1.166 1_655 S
C79 O78 1.182 . S
O80 Zn65 2.080 . S
O80 C83 1.305 . S
O81 Zn64 1.920 . S
O81 C83 1.234 . S
C82 O68 1.305 . S
C82 O69 1.234 . S
C83 O80 1.305 . S
C83 O81 1.234 . S
C84 C85 1.349 . S
C84 C86 1.327 . S
C84 H109 0.950 . S
C85 C84 1.349 . S
C85 C101 1.349 1_564 S
C86 C84 1.327 . S
C86 C105 1.429 1_565 S
C86 H110 0.950 . S
C87 C104 1.574 1_655 S
C87 C106 1.368 1_556 S
C87 H111 0.949 . S
H88 C92 0.949 . S
C89 C90 1.349 1_556 S
C89 C91 1.327 . S
C89 H112 0.950 . S
C90 C89 1.349 1_554 S
C90 C102 1.349 . S
C91 C89 1.327 . S
C91 C107 1.429 1_556 S
C91 H113 0.950 . S
C92 H88 0.949 . S
C92 C100 1.574 . S
C92 C108 1.368 . S
H93 C101 0.950 . S
H94 C99 0.950 . S
H95 C100 0.949 1_665 S
H96 C102 0.950 . S
H97 C103 0.950 . S
H98 C104 0.949 . S
C99 H94 0.950 . S
C99 C101 1.327 . S
C99 C105 1.429 1_556 S
C100 C92 1.574 . S
C100 H95 0.949 1_445 S
C100 C106 1.368 1_455 S
C101 C85 1.349 1_546 S
C101 H93 0.950 . S
C101 C99 1.327 . S
C102 C90 1.349 . S
C102 H96 0.950 . S
C102 C103 1.327 . S
C103 H97 0.950 . S
C103 C102 1.327 . S
C103 C107 1.429 . S
C104 C87 1.574 1_455 S
C104 H98 0.949 . S
C104 C108 1.368 1_556 S
C105 C86 1.429 1_545 S
C105 C99 1.429 1_554 S
C105 C106 1.523 . S
C106 C87 1.368 1_554 S
C106 C100 1.368 1_655 S
C106 C105 1.523 . S
C107 C91 1.429 1_554 S
C107 C103 1.429 . S
C107 C108 1.523 . S
C108 C92 1.368 . S
C108 C104 1.368 1_554 S
C108 C107 1.523 . S
H109 C84 0.950 . S
H110 C86 0.950 . S
H111 C87 0.949 . S
H112 C89 0.950 . S
H113 C91 0.950 . S
C114 C115 1.349 . S
C114 C116 1.327 . S
C114 H139 0.950 . S
C115 C114 1.349 . S
C115 C131 1.349 1_455 S
C116 C114 1.327 . S
C116 C135 1.429 . S
C116 H140 0.950 . S
C117 C134 1.574 . S
C117 C136 1.368 1_545 S
C117 H141 0.949 1_455 S
H118 C122 0.949 . S
C119 C120 1.349 . S
C119 C121 1.327 . S
C119 H142 0.950 . S
C120 C119 1.349 . S
C120 C132 1.349 . S
C121 C119 1.327 . S
C121 C137 1.429 . S
C121 H143 0.950 1_455 S
C122 H118 0.949 . S
C122 C130 1.574 . S
C122 C138 1.368 . S
H123 C131 0.950 . S
H124 C129 0.950 . S
H125 C130 0.949 1_565 S
H126 C132 0.950 . S
H127 C133 0.950 . S
H128 C134 0.949 1_655 S
C129 H124 0.950 . S
C129 C131 1.327 . S
C129 C135 1.429 1_655 S
C130 C122 1.574 . S
C130 H125 0.949 1_545 S
C130 C136 1.368 1_545 S
C131 C115 1.349 1_655 S
C131 H123 0.950 . S
C131 C129 1.327 . S
C132 C120 1.349 . S
C132 H126 0.950 . S
C132 C133 1.327 . S
C133 H127 0.950 . S
C133 C132 1.327 . S
C133 C137 1.429 . S
C134 C117 1.574 . S
C134 H128 0.949 1_455 S
C134 C138 1.368 . S
C135 C116 1.429 . S
C135 C129 1.429 1_455 S
C135 C136 1.523 . S
C136 C117 1.368 1_565 S
C136 C130 1.368 1_565 S
C136 C135 1.523 . S
C137 C121 1.429 . S
C137 C133 1.429 . S
C137 C138 1.523 . S
C138 C122 1.368 . S
C138 C134 1.368 . S
C138 C137 1.523 . S
H139 C114 0.950 . S
H140 C116 0.950 . S
H141 C117 0.949 1_655 S
H142 C119 0.950 . S
H143 C121 0.950 1_655 S
C144 C145 1.349 1_556 S
C144 C146 1.327 . S
C144 H169 0.950 . S
C145 C144 1.349 1_554 S
C145 C161 1.349 1_565 S
C146 C144 1.327 . S
C146 C165 1.429 1_566 S
C146 H170 0.950 . S
C147 C164 1.574 . S
C147 C166 1.368 . S
C147 H171 0.949 . S
H148 C152 0.949 . S
C149 C150 1.349 . S
C149 C151 1.327 . S
C149 H172 0.950 . S
C150 C149 1.349 . S
C150 C162 1.349 1_554 S
C151 C149 1.327 . S
C151 C167 1.429 . S
C151 H173 0.950 . S
C152 H148 0.949 . S
C152 C160 1.574 . S
C152 C168 1.368 1_556 S
H153 C161 0.950 . S
H154 C159 0.950 . S
H155 C160 0.949 1_565 S
H156 C162 0.950 . S
H157 C163 0.950 . S
H158 C164 0.949 . S
C159 H154 0.950 . S
C159 C161 1.327 . S
C159 C165 1.429 . S
C160 C152 1.574 . S
C160 H155 0.949 1_545 S
C160 C166 1.368 1_556 S
C161 C145 1.349 1_545 S
C161 H153 0.950 . S
C161 C159 1.327 . S
C162 C150 1.349 1_556 S
C162 H156 0.950 . S
C162 C163 1.327 . S
C163 H157 0.950 . S
C163 C162 1.327 . S
C163 C167 1.429 1_556 S
C164 C147 1.574 . S
C164 H158 0.949 . S
C164 C168 1.368 . S
C165 C146 1.429 1_544 S
C165 C159 1.429 . S
C165 C166 1.523 . S
C166 C147 1.368 . S
C166 C160 1.368 1_554 S
C166 C165 1.523 . S
C167 C151 1.429 . S
C167 C163 1.429 1_554 S
C167 C168 1.523 . S
C168 C152 1.368 1_554 S
C168 C164 1.368 . S
C168 C167 1.523 . S
H169 C144 0.950 . S
H170 C146 0.950 . S
H171 C147 0.949 . S
H172 C149 0.950 . S
H173 C151 0.950 . S
C174 C175 1.349 . S
C174 C176 1.327 . S
C174 H199 0.950 . S
C175 C174 1.349 . S
C175 C191 1.349 . S
C176 C174 1.327 . S
C176 C195 1.429 . S
C176 H200 0.950 . S
C177 C194 1.574 . S
C177 C196 1.368 . S
C177 H201 0.949 . S
H178 C182 0.949 . S
C179 C180 1.349 . S
C179 C181 1.327 . S
C179 H202 0.950 . S
C180 C179 1.349 . S
C180 C192 1.349 . S
C181 C179 1.327 . S
C181 C197 1.429 . S
C181 H203 0.950 . S
C182 H178 0.949 . S
C182 C190 1.574 . S
C182 C198 1.368 . S
H183 C191 0.950 . S
H184 C189 0.950 . S
H185 C190 0.949 . S
H186 C192 0.957 . S
H187 C193 0.950 . S
H188 C194 0.949 . S
C189 H184 0.950 . S
C189 C191 1.327 . S
C189 C195 1.429 . S
C190 C182 1.574 . S
C190 H185 0.949 . S
C190 C196 1.368 . S
C191 C175 1.349 . S
C191 H183 0.950 . S
C191 C189 1.327 . S
C192 C180 1.349 . S
C192 H186 0.957 . S
C192 C193 1.327 . S
C193 H187 0.950 . S
C193 C192 1.327 . S
C193 C197 1.429 . S
C194 C177 1.574 . S
C194 H188 0.949 . S
C194 C198 1.368 . S
C195 C176 1.429 . S
C195 C189 1.429 . S
C195 C196 1.523 . S
C196 C177 1.368 . S
C196 C190 1.368 . S
C196 C195 1.523 . S
C197 C181 1.429 . S
C197 C193 1.429 . S
C197 C198 1.523 . S
C198 C182 1.368 . S
C198 C194 1.368 . S
C198 C197 1.523 . S
H199 C174 0.950 . S
H200 C176 0.950 . S
H201 C177 0.949 . S
H202 C179 0.950 . S
H203 C181 0.950 . S
C204 C205 1.349 . S
C204 C206 1.327 . S
C204 H229 0.950 . S
C205 C204 1.349 . S
C205 C221 1.349 . S
C206 C204 1.327 . S
C206 C225 1.429 . S
C206 H230 0.950 . S
C207 C224 1.574 . S
C207 C226 1.368 . S
C207 H231 0.949 . S
H208 C212 0.949 . S
C209 C210 1.349 . S
C209 C211 1.327 . S
C209 H232 0.950 . S
C210 C209 1.349 . S
C210 C222 1.349 . S
C211 C209 1.327 . S
C211 C227 1.429 . S
C211 H233 0.950 . S
C212 H208 0.949 . S
C212 C220 1.574 . S
C212 C228 1.368 . S
H213 C221 0.950 . S
H214 C219 0.950 . S
H215 C220 0.949 . S
H216 C222 0.950 . S
H217 C223 0.950 . S
H218 C224 0.949 . S
C219 H214 0.950 . S
C219 C221 1.327 . S
C219 C225 1.429 . S
C220 C212 1.574 . S
C220 H215 0.949 . S
C220 C226 1.368 . S
C221 C205 1.349 . S
C221 H213 0.950 . S
C221 C219 1.327 . S
C222 C210 1.349 . S
C222 H216 0.950 . S
C222 C223 1.327 . S
C223 H217 0.950 . S
C223 C222 1.327 . S
C223 C227 1.429 . S
C224 C207 1.574 . S
C224 H218 0.949 . S
C224 C228 1.368 . S
C225 C206 1.429 . S
C225 C219 1.429 . S
C225 C226 1.523 . S
C226 C207 1.368 . S
C226 C220 1.368 . S
C226 C225 1.523 . S
C227 C211 1.429 . S
C227 C223 1.429 . S
C227 C228 1.523 . S
C228 C212 1.368 . S
C228 C224 1.368 . S
C228 C227 1.523 . S
H229 C204 0.950 . S
H230 C206 0.950 . S
H231 C207 0.949 . S
H232 C209 0.950 . S
H233 C211 0.950 . S
C234 C235 1.349 . S
C234 C236 1.327 . S
C234 H259 0.950 . S
C235 C234 1.349 . S
C235 C251 1.349 . S
C236 C234 1.327 . S
C236 C255 1.429 . S
C236 H260 0.950 . S
C237 C254 1.574 . S
C237 C256 1.368 . S
C237 H261 0.949 . S
H238 C242 0.949 . S
C239 C240 1.349 . S
C239 C241 1.327 . S
C239 H262 0.950 . S
C240 C239 1.349 . S
C240 C252 1.349 . S
C241 C239 1.327 . S
C241 C257 1.429 . S
C241 H263 0.950 . S
C242 H238 0.949 . S
C242 C250 1.574 . S
C242 C258 1.368 . S
H243 C251 0.950 . S
H244 C249 0.950 . S
H245 C250 0.949 . S
H246 C252 0.950 . S
H247 C253 0.950 . S
H248 C254 0.949 . S
C249 H244 0.950 . S
C249 C251 1.327 . S
C249 C255 1.429 . S
C250 C242 1.574 . S
C250 H245 0.949 . S
C250 C256 1.368 . S
C251 C235 1.349 . S
C251 H243 0.950 . S
C251 C249 1.327 . S
C252 C240 1.349 . S
C252 H246 0.950 . S
C252 C253 1.327 . S
C253 H247 0.950 . S
C253 C252 1.327 . S
C253 C257 1.429 . S
C254 C237 1.574 . S
C254 H248 0.949 . S
C254 C258 1.368 . S
C255 C236 1.429 . S
C255 C249 1.429 . S
C255 C256 1.523 . S
C256 C237 1.368 . S
C256 C250 1.368 . S
C256 C255 1.523 . S
C257 C241 1.429 . S
C257 C253 1.429 . S
C257 C258 1.523 . S
C258 C242 1.368 . S
C258 C254 1.368 . S
C258 C257 1.523 . S
H259 C234 0.950 . S
H260 C236 0.950 . S
H261 C237 0.949 . S
H262 C239 0.950 . S
H263 C241 0.950 . S
C264 C265 1.349 . S
C264 C266 1.327 . S
C264 H289 0.950 . S
C265 C264 1.349 . S
C265 C281 1.349 . S
C266 C264 1.327 . S
C266 C285 1.429 . S
C266 H290 0.950 . S
C267 C284 1.574 . S
C267 C286 1.368 . S
C267 H291 0.949 . S
H268 C272 0.949 . S
C269 C270 1.349 . S
C269 C271 1.327 . S
C269 H292 0.950 . S
C270 C269 1.349 . S
C270 C282 1.349 . S
C271 C269 1.327 . S
C271 C287 1.429 . S
C271 H293 0.950 . S
C272 H268 0.949 . S
C272 C280 1.574 . S
C272 C288 1.368 . S
H273 C281 0.950 . S
H274 C279 0.950 . S
H275 C280 0.949 . S
H276 C282 0.950 . S
H277 C283 0.950 . S
H278 C284 0.949 . S
C279 H274 0.950 . S
C279 C281 1.327 . S
C279 C285 1.429 . S
C280 C272 1.574 . S
C280 H275 0.949 . S
C280 C286 1.368 . S
C281 C265 1.349 . S
C281 H273 0.950 . S
C281 C279 1.327 . S
C282 C270 1.349 . S
C282 H276 0.950 . S
C282 C283 1.327 . S
C283 H277 0.950 . S
C283 C282 1.327 . S
C283 C287 1.429 . S
C284 C267 1.574 . S
C284 H278 0.949 . S
C284 C288 1.368 . S
C285 C266 1.429 . S
C285 C279 1.429 . S
C285 C286 1.523 . S
C286 C267 1.368 . S
C286 C280 1.368 . S
C286 C285 1.523 . S
C287 C271 1.429 . S
C287 C283 1.429 . S
C287 C288 1.523 . S
C288 C272 1.368 . S
C288 C284 1.368 . S
C288 C287 1.523 . S
H289 C264 0.950 . S
H290 C266 0.950 . S
H291 C267 0.949 . S
H292 C269 0.950 . S
H293 C271 0.950 . S
C294 C295 1.349 . S
C294 C296 1.327 . S
C294 H319 0.950 . S
C295 C294 1.349 . S
C295 C311 1.349 . S
C296 C294 1.327 . S
C296 C315 1.429 . S
C296 H320 0.950 . S
C297 C314 1.574 . S
C297 C316 1.368 . S
C297 H321 0.949 . S
H298 C302 0.949 . S
C299 C300 1.349 . S
C299 C301 1.327 . S
C299 H322 0.950 1_565 S
C300 C299 1.349 . S
C300 C312 1.349 . S
C301 C299 1.327 . S
C301 C317 1.429 . S
C301 H323 0.950 . S
C302 H298 0.949 . S
C302 C310 1.574 . S
C302 C318 1.368 . S
H303 C311 0.950 . S
H304 C309 0.950 . S
H305 C310 0.949 . S
H306 C312 0.950 . S
H307 C313 0.950 . S
H308 C314 0.949 . S
C309 H304 0.950 . S
C309 C311 1.327 . S
C309 C315 1.429 . S
C310 C302 1.574 . S
C310 H305 0.949 . S
C310 C316 1.368 . S
C311 C295 1.349 . S
C311 H303 0.950 . S
C311 C309 1.327 . S
C312 C300 1.349 . S
C312 H306 0.950 . S
C312 C313 1.327 . S
C313 H307 0.950 . S
C313 C312 1.327 . S
C313 C317 1.429 . S
C314 C297 1.574 . S
C314 H308 0.949 . S
C314 C318 1.368 . S
C315 C296 1.429 . S
C315 C309 1.429 . S
C315 C316 1.523 . S
C316 C297 1.368 . S
C316 C310 1.368 . S
C316 C315 1.523 . S
C317 C301 1.429 . S
C317 C313 1.429 . S
C317 C318 1.523 . S
C318 C302 1.368 . S
C318 C314 1.368 . S
C318 C317 1.523 . S
H319 C294 0.950 . S
H320 C296 0.950 . S
H321 C297 0.949 . S
H322 C299 0.950 1_545 S
H323 C301 0.950 . S
C324 C325 1.349 . S
C324 C326 1.327 . S
C324 H349 0.950 . S
C325 C324 1.349 . S
C325 C341 1.349 . S
C326 C324 1.327 . S
C326 C345 1.429 . S
C326 H350 0.950 . S
C327 C344 1.574 . S
C327 C346 1.368 . S
C327 H351 0.949 . S
H328 C332 0.949 . S
C329 C330 1.349 . S
C329 C331 1.327 . S
C329 H352 0.950 . S
C330 C329 1.349 . S
C330 C342 1.349 . S
C331 C329 1.327 . S
C331 C347 1.429 . S
C331 H353 0.950 . S
C332 H328 0.949 . S
C332 C340 1.574 . S
C332 C348 1.368 . S
H333 C341 0.950 . S
H334 C339 0.950 . S
H335 C340 0.949 . S
H336 C342 0.950 . S
H337 C343 0.950 . S
H338 C344 0.949 . S
C339 H334 0.950 . S
C339 C341 1.327 . S
C339 C345 1.429 . S
C340 C332 1.574 . S
C340 H335 0.949 . S
C340 C346 1.368 . S
C341 C325 1.349 . S
C341 H333 0.950 . S
C341 C339 1.327 . S
C342 C330 1.349 . S
C342 H336 0.950 . S
C342 C343 1.327 . S
C343 H337 0.950 . S
C343 C342 1.327 . S
C343 C347 1.429 . S
C344 C327 1.574 . S
C344 H338 0.949 . S
C344 C348 1.368 . S
C345 C326 1.429 . S
C345 C339 1.429 . S
C345 C346 1.523 . S
C346 C327 1.368 . S
C346 C340 1.368 . S
C346 C345 1.523 . S
C347 C331 1.429 . S
C347 C343 1.429 . S
C347 C348 1.523 . S
C348 C332 1.368 . S
C348 C344 1.368 . S
C348 C347 1.523 . S
H349 C324 0.950 . S
H350 C326 0.950 . S
H351 C327 0.949 . S
H352 C329 0.950 . S
H353 C331 0.950 . S
C354 C355 1.349 1_565 S
C354 C356 1.327 . S
C354 H379 0.950 . S
C355 C354 1.349 1_545 S
C355 C371 1.349 . S
C356 C354 1.327 . S
C356 C375 1.429 . S
C356 H380 0.950 . S
C357 C374 1.574 . S
C357 C376 1.368 . S
C357 H381 0.949 . S
H358 C362 0.949 . S
C359 C360 1.349 . S
C359 C361 1.327 . S
C359 H382 0.950 . S
C360 C359 1.349 . S
C360 C372 1.349 . S
C361 C359 1.327 . S
C361 C377 1.429 . S
C361 H383 0.950 . S
C362 H358 0.949 . S
C362 C370 1.574 . S
C362 C378 1.368 . S
H363 C371 0.950 . S
H364 C369 0.950 . S
H365 C370 0.949 . S
H366 C372 0.950 . S
H367 C373 0.950 . S
H368 C374 0.949 . S
C369 H364 0.950 . S
C369 C371 1.327 . S
C369 C375 1.429 1_545 S
C370 C362 1.574 . S
C370 H365 0.949 . S
C370 C376 1.368 . S
C371 C355 1.349 . S
C371 H363 0.950 . S
C371 C369 1.327 . S
C372 C360 1.349 . S
C372 H366 0.950 . S
C372 C373 1.327 . S
C373 H367 0.950 . S
C373 C372 1.327 . S
C373 C377 1.429 . S
C374 C357 1.574 . S
C374 H368 0.949 . S
C374 C378 1.368 . S
C375 C356 1.429 . S
C375 C369 1.429 1_565 S
C375 C376 1.523 . S
C376 C357 1.368 . S
C376 C370 1.368 . S
C376 C375 1.523 . S
C377 C361 1.429 . S
C377 C373 1.429 . S
C377 C378 1.523 . S
C378 C362 1.368 . S
C378 C374 1.368 . S
C378 C377 1.523 . S
H379 C354 0.950 . S
H380 C356 0.950 . S
H381 C357 0.949 . S
H382 C359 0.950 . S
H383 C361 0.950 . S
C384 C385 1.349 . S
C384 C386 1.327 . S
C384 H409 0.950 . S
C385 C384 1.349 . S
C385 C401 1.349 . S
C386 C384 1.327 . S
C386 C405 1.429 . S
C386 H410 0.950 . S
C387 C404 1.574 . S
C387 C406 1.368 . S
C387 H411 0.949 . S
H388 C392 0.949 . S
C389 C390 1.349 . S
C389 C391 1.327 . S
C389 H412 0.950 . S
C390 C389 1.349 . S
C390 C402 1.349 . S
C391 C389 1.327 . S
C391 C407 1.429 . S
C391 H413 0.950 . S
C392 H388 0.949 . S
C392 C400 1.574 . S
C392 C408 1.368 . S
H393 C401 0.950 . S
H394 C399 0.950 . S
H395 C400 0.949 . S
H396 C402 0.950 . S
H397 C403 0.950 . S
H398 C404 0.949 . S
C399 H394 0.950 . S
C399 C401 1.327 . S
C399 C405 1.429 . S
C400 C392 1.574 . S
C400 H395 0.949 . S
C400 C406 1.368 . S
C401 C385 1.349 . S
C401 H393 0.950 . S
C401 C399 1.327 . S
C402 C390 1.349 . S
C402 H396 0.950 . S
C402 C403 1.327 . S
C403 H397 0.950 . S
C403 C402 1.327 . S
C403 C407 1.429 . S
C404 C387 1.574 . S
C404 H398 0.949 . S
C404 C408 1.368 . S
C405 C386 1.429 . S
C405 C399 1.429 . S
C405 C406 1.523 . S
C406 C387 1.368 . S
C406 C400 1.368 . S
C406 C405 1.523 . S
C407 C391 1.429 . S
C407 C403 1.429 . S
C407 C408 1.523 . S
C408 C392 1.368 . S
C408 C404 1.368 . S
C408 C407 1.523 . S
H409 C384 0.950 . S
H410 C386 0.950 . S
H411 C387 0.949 . S
H412 C389 0.950 . S
H413 C391 0.950 . S
C414 C415 1.349 . S
C414 C416 1.327 . S
C414 H439 0.950 . S
C415 C414 1.349 . S
C415 C431 1.349 . S
C416 C414 1.327 . S
C416 C435 1.429 . S
C416 H440 0.950 . S
C417 C434 1.574 . S
C417 C436 1.368 . S
C417 H441 0.949 . S
H418 C422 0.949 . S
C419 C420 1.349 . S
C419 C421 1.327 . S
C419 H442 0.950 . S
C420 C419 1.349 . S
C420 C432 1.349 . S
C421 C419 1.327 . S
C421 C437 1.429 . S
C421 H443 0.950 . S
C422 H418 0.949 . S
C422 C430 1.574 . S
C422 C438 1.368 . S
H423 C431 0.950 . S
H424 C429 0.950 . S
H425 C430 0.949 . S
H426 C432 0.950 1_455 S
H427 C433 0.950 . S
H428 C434 0.949 . S
C429 H424 0.950 . S
C429 C431 1.327 . S
C429 C435 1.429 . S
C430 C422 1.574 . S
C430 H425 0.949 . S
C430 C436 1.368 . S
C431 C415 1.349 . S
C431 H423 0.950 . S
C431 C429 1.327 . S
C432 C420 1.349 . S
C432 H426 0.950 1_655 S
C432 C433 1.327 . S
C433 H427 0.950 . S
C433 C432 1.327 . S
C433 C437 1.429 . S
C434 C417 1.574 . S
C434 H428 0.949 . S
C434 C438 1.368 . S
C435 C416 1.429 . S
C435 C429 1.429 . S
C435 C436 1.523 . S
C436 C417 1.368 . S
C436 C430 1.368 . S
C436 C435 1.523 . S
C437 C421 1.429 . S
C437 C433 1.429 . S
C437 C438 1.523 . S
C438 C422 1.368 . S
C438 C434 1.368 . S
C438 C437 1.523 . S
H439 C414 0.950 . S
H440 C416 0.950 . S
H441 C417 0.949 . S
H442 C419 0.950 . S
H443 C421 0.950 . S
C85 C45 1.076 1_565 S
C90 C3 1.075 . S
C115 C79 0.975 1_455 S
C120 C37 1.076 . S
C145 C61 0.723 . S
C150 C19 0.723 . S
C175 C41 0.646 . S
C180 C83 0.667 . S
C205 C24 1.443 . S
C210 C16 1.454 . S
C235 C40 1.088 . S
C240 C62 1.078 . S
C265 C82 1.324 . S
C270 C58 1.581 . S
C295 C66 1.190 . S
C300 C20 1.000 . S
C325 C49 0.710 . S
C330 C70 0.728 . S
C355 C4 1.126 . S
C360 C67 1.210 . S
C385 C25 0.886 . S
C390 C7 0.892 . S
C415 C46 0.952 . S
C420 C28 0.941 . S
