# Generated by pormake.
# Topology ukk, (4)-cn, num edge types: 1
# Building blocks:
#     Node 0, Type 0, BuildingBlock: GALJAG_clean_sbu_0, # of connection points: 4
#     Node 1, Type 0, BuildingBlock: GALJAG_clean_sbu_0, # of connection points: 4
#     Node 2, Type 0, BuildingBlock: GALJAG_clean_sbu_0, # of connection points: 4
#     Node 3, Type 0, BuildingBlock: GALJAG_clean_sbu_0, # of connection points: 4
#     Node 4, Type 0, BuildingBlock: GALJAG_clean_sbu_0, # of connection points: 4
#     Node 5, Type 0, BuildingBlock: GALJAG_clean_sbu_0, # of connection points: 4
#     Node 6, Type 0, BuildingBlock: GALJAG_clean_sbu_0, # of connection points: 4
#     Node 7, Type 0, BuildingBlock: GALJAG_clean_sbu_0, # of connection points: 4
#     Node 8, Type 0, BuildingBlock: GALJAG_clean_sbu_0, # of connection points: 4
#     Node 9, Type 0, BuildingBlock: GALJAG_clean_sbu_0, # of connection points: 4
#     Node 10, Type 0, BuildingBlock: GALJAG_clean_sbu_0, # of connection points: 4
#     Node 11, Type 0, BuildingBlock: GALJAG_clean_sbu_0, # of connection points: 4
#     Node 12, Type 0, BuildingBlock: GALJAG_clean_sbu_0, # of connection points: 4
#     Node 13, Type 0, BuildingBlock: GALJAG_clean_sbu_0, # of connection points: 4
#     Node 14, Type 0, BuildingBlock: GALJAG_clean_sbu_0, # of connection points: 4
#     Node 15, Type 0, BuildingBlock: GALJAG_clean_sbu_0, # of connection points: 4
#     Edge 16, Type (0, 0), BuildingBlock: AJUNOK_clean_linker_0, # of connection points: 2
#     Edge 17, Type (0, 0), BuildingBlock: AJUNOK_clean_linker_0, # of connection points: 2
#     Edge 18, Type (0, 0), BuildingBlock: AJUNOK_clean_linker_0, # of connection points: 2
#     Edge 19, Type (0, 0), BuildingBlock: AJUNOK_clean_linker_0, # of connection points: 2
#     Edge 20, Type (0, 0), BuildingBlock: AJUNOK_clean_linker_0, # of connection points: 2
#     Edge 21, Type (0, 0), BuildingBlock: AJUNOK_clean_linker_0, # of connection points: 2
#     Edge 22, Type (0, 0), BuildingBlock: AJUNOK_clean_linker_0, # of connection points: 2
#     Edge 23, Type (0, 0), BuildingBlock: AJUNOK_clean_linker_0, # of connection points: 2
#     Edge 24, Type (0, 0), BuildingBlock: AJUNOK_clean_linker_0, # of connection points: 2
#     Edge 25, Type (0, 0), BuildingBlock: AJUNOK_clean_linker_0, # of connection points: 2
#     Edge 26, Type (0, 0), BuildingBlock: AJUNOK_clean_linker_0, # of connection points: 2
#     Edge 27, Type (0, 0), BuildingBlock: AJUNOK_clean_linker_0, # of connection points: 2
#     Edge 28, Type (0, 0), BuildingBlock: AJUNOK_clean_linker_0, # of connection points: 2
#     Edge 29, Type (0, 0), BuildingBlock: AJUNOK_clean_linker_0, # of connection points: 2
#     Edge 30, Type (0, 0), BuildingBlock: AJUNOK_clean_linker_0, # of connection points: 2
#     Edge 31, Type (0, 0), BuildingBlock: AJUNOK_clean_linker_0, # of connection points: 2
#     Edge 32, Type (0, 0), BuildingBlock: AJUNOK_clean_linker_0, # of connection points: 2
#     Edge 33, Type (0, 0), BuildingBlock: AJUNOK_clean_linker_0, # of connection points: 2
#     Edge 34, Type (0, 0), BuildingBlock: AJUNOK_clean_linker_0, # of connection points: 2
#     Edge 35, Type (0, 0), BuildingBlock: AJUNOK_clean_linker_0, # of connection points: 2
#     Edge 36, Type (0, 0), BuildingBlock: AJUNOK_clean_linker_0, # of connection points: 2
#     Edge 37, Type (0, 0), BuildingBlock: AJUNOK_clean_linker_0, # of connection points: 2
#     Edge 38, Type (0, 0), BuildingBlock: AJUNOK_clean_linker_0, # of connection points: 2
#     Edge 39, Type (0, 0), BuildingBlock: AJUNOK_clean_linker_0, # of connection points: 2
#     Edge 40, Type (0, 0), BuildingBlock: AJUNOK_clean_linker_0, # of connection points: 2
#     Edge 41, Type (0, 0), BuildingBlock: AJUNOK_clean_linker_0, # of connection points: 2
#     Edge 42, Type (0, 0), BuildingBlock: AJUNOK_clean_linker_0, # of connection points: 2
#     Edge 43, Type (0, 0), BuildingBlock: AJUNOK_clean_linker_0, # of connection points: 2
#     Edge 44, Type (0, 0), BuildingBlock: AJUNOK_clean_linker_0, # of connection points: 2
#     Edge 45, Type (0, 0), BuildingBlock: AJUNOK_clean_linker_0, # of connection points: 2
#     Edge 46, Type (0, 0), BuildingBlock: AJUNOK_clean_linker_0, # of connection points: 2
#     Edge 47, Type (0, 0), BuildingBlock: AJUNOK_clean_linker_0, # of connection points: 2
# Relax obj value: 0.105
# Max RMSD: 0.246
# Mean RMSD: 0.246
data_MOF--net-ukk--node1-GALJAG_clean_sbu_0--edge1-AJUNOK_clean_linker_0
_symmetry_space_group_name_H-M    P1
_symmetry_Int_Tables_number       1
_symmetry_cell_setting            triclinic
loop_
_symmetry_equiv_pos_as_xyz
'x, y, z'
_cell_length_a     39.635322
_cell_length_b     39.588826
_cell_length_c     13.672196
_cell_angle_alpha  90.049553
_cell_angle_beta   89.953865
_cell_angle_gamma 90.032167
loop_
_atom_site_label
_atom_site_type_symbol
_atom_site_fract_x
_atom_site_fract_y
_atom_site_fract_z
_atom_type_partial_charge
In0 In 0.35747 0.11144 0.10451 0.0
O1 O 0.34023 0.09215 0.95466 0.0
O2 O 0.30507 0.09277 0.07263 0.0
C3 C 0.42356 0.1262 0.09782 0.0
C4 C 0.33528 0.17505 0.09791 0.0
C5 C 0.35913 0.06277 0.24 0.0
O6 O 0.41061 0.10462 0.04039 0.0
O7 O 0.40329 0.13986 0.15697 0.0
O8 O 0.34249 0.08964 0.25379 0.0
O9 O 0.37457 0.06083 0.15954 0.0
C10 C 0.31023 0.0869 0.9832 0.0
O11 O 0.33558 0.15822 0.17689 0.0
O12 O 0.346 0.15947 0.02346 0.0
In13 In 0.11157 0.63532 0.87458 0.0
O14 O 0.0945 0.65083 0.02794 0.0
O15 O 0.09192 0.68687 0.91226 0.0
C16 C 0.12861 0.56983 0.87101 0.0
C17 C 0.17496 0.65861 0.87486 0.0
C18 C 0.05974 0.63188 0.7497 0.0
O19 O 0.11002 0.58168 0.93849 0.0
O20 O 0.13806 0.59101 0.80757 0.0
O21 O 0.08436 0.65161 0.73433 0.0
O22 O 0.06151 0.61448 0.82679 0.0
C23 C 0.08792 0.6809 0.00211 0.0
O24 O 0.15707 0.65874 0.79787 0.0
O25 O 0.16049 0.64708 0.95008 0.0
In26 In 0.64806 0.88545 0.12527 0.0
O27 O 0.67156 0.83979 0.20006 0.0
O28 O 0.65058 0.83421 0.0563 0.0
C29 C 0.64952 0.94511 0.21413 0.0
C30 C 0.69609 0.9025 0.99898 0.0
C31 C 0.58262 0.87581 0.16092 0.0
O32 O 0.65974 0.91875 0.25819 0.0
O33 O 0.639 0.94083 0.12765 0.0
O34 O 0.5927 0.88334 0.07529 0.0
O35 O 0.60559 0.87287 0.22444 0.0
C36 C 0.66523 0.82041 0.12809 0.0
O37 O 0.66537 0.90004 0.97272 0.0
O38 O 0.70189 0.89629 0.0883 0.0
In39 In 0.88252 0.36466 0.86978 0.0
O40 O 0.83662 0.34499 0.7857 0.0
O41 O 0.83328 0.35054 0.94064 0.0
C42 C 0.93306 0.36787 0.73848 0.0
C43 C 0.90526 0.31838 0.99757 0.0
C44 C 0.8685 0.43082 0.88601 0.0
O45 O 0.90887 0.3473 0.72818 0.0
O46 O 0.93142 0.38639 0.81325 0.0
O47 O 0.88956 0.41646 0.94193 0.0
O48 O 0.85469 0.41178 0.82364 0.0
C49 C 0.81873 0.34212 0.86225 0.0
O50 O 0.89862 0.34838 0.02345 0.0
O51 O 0.90204 0.31276 0.9073 0.0
In52 In 0.35218 0.38379 0.11391 0.0
O53 O 0.33071 0.33968 0.02677 0.0
O54 O 0.34295 0.33306 0.17851 0.0
C55 C 0.35562 0.44345 0.02495 0.0
C56 C 0.30084 0.39966 0.23133 0.0
C57 C 0.41758 0.36739 0.11048 0.0
O58 O 0.34564 0.41749 0.97852 0.0
O59 O 0.3641 0.4386 0.11288 0.0
O60 O 0.40454 0.38115 0.18547 0.0
O61 O 0.3979 0.36316 0.03889 0.0
C62 C 0.33208 0.31998 0.1002 0.0
O63 O 0.33071 0.39617 0.26376 0.0
O64 O 0.29753 0.39564 0.13999 0.0
In65 In 0.38416 0.64798 0.88474 0.0
O66 O 0.33771 0.66963 0.95998 0.0
O67 O 0.33453 0.65353 0.80993 0.0
C68 C 0.44389 0.64477 0.97157 0.0
C69 C 0.40143 0.69936 0.77119 0.0
C70 C 0.37044 0.58262 0.90661 0.0
O71 O 0.41828 0.65576 0.01793 0.0
O72 O 0.43873 0.63569 0.88404 0.0
O73 O 0.38075 0.59398 0.82479 0.0
O74 O 0.36746 0.60435 0.97401 0.0
C75 C 0.31968 0.66601 0.88357 0.0
O76 O 0.39884 0.66945 0.73759 0.0
O77 O 0.39564 0.70267 0.8619 0.0
In78 In 0.64665 0.61055 0.12648 0.0
O79 O 0.67005 0.65632 0.05158 0.0
O80 O 0.65223 0.6608 0.19945 0.0
C81 C 0.64569 0.55127 0.03541 0.0
C82 C 0.69536 0.59284 0.24942 0.0
C83 C 0.58166 0.62478 0.09795 0.0
O84 O 0.65701 0.5774 0.99245 0.0
O85 O 0.63499 0.55555 0.12172 0.0
O86 O 0.59195 0.61466 0.18103 0.0
O87 O 0.60415 0.62715 0.03267 0.0
C88 C 0.66585 0.67497 0.12651 0.0
O89 O 0.66482 0.59539 0.27741 0.0
O90 O 0.7006 0.59883 0.15964 0.0
In91 In 0.60934 0.34894 0.88477 0.0
O92 O 0.6569 0.3259 0.95022 0.0
O93 O 0.6579 0.34389 0.80234 0.0
C94 C 0.55425 0.34964 0.99604 0.0
C95 C 0.58799 0.30251 0.75748 0.0
C96 C 0.62607 0.41358 0.91265 0.0
O97 O 0.58043 0.33364 0.02279 0.0
O98 O 0.55615 0.36464 0.91466 0.0
O99 O 0.61214 0.40411 0.8334 0.0
O100 O 0.63035 0.3906 0.97552 0.0
C101 C 0.67394 0.33074 0.87255 0.0
O102 O 0.59012 0.33355 0.7343 0.0
O103 O 0.59592 0.29567 0.84488 0.0
In104 In 0.85785 0.61705 0.62911 0.0
O105 O 0.83877 0.59831 0.4812 0.0
O106 O 0.80468 0.59956 0.60178 0.0
C107 C 0.92437 0.62751 0.61481 0.0
C108 C 0.83884 0.68199 0.62486 0.0
C109 C 0.86085 0.56689 0.76057 0.0
O110 O 0.90891 0.60814 0.55605 0.0
O111 O 0.90616 0.6418 0.67841 0.0
O112 O 0.8428 0.59279 0.77586 0.0
O113 O 0.87698 0.5668 0.68117 0.0
C114 C 0.80899 0.59346 0.51212 0.0
O115 O 0.83896 0.66507 0.70371 0.0
O116 O 0.84817 0.6659 0.54978 0.0
In117 In 0.61144 0.14754 0.35341 0.0
O118 O 0.65837 0.17071 0.28382 0.0
O119 O 0.65964 0.15676 0.4351 0.0
C120 C 0.5582 0.14264 0.23461 0.0
C121 C 0.58717 0.19361 0.47774 0.0
C122 C 0.6301 0.08306 0.33531 0.0
O123 O 0.58237 0.16265 0.21547 0.0
O124 O 0.56103 0.12588 0.31276 0.0
O125 O 0.61489 0.09328 0.41182 0.0
O126 O 0.63541 0.10543 0.27113 0.0
C127 C 0.67535 0.16867 0.36246 0.0
O128 O 0.59147 0.16304 0.50335 0.0
O129 O 0.59408 0.19997 0.38941 0.0
In130 In 0.13631 0.38108 0.61544 0.0
O131 O 0.15773 0.33499 0.69392 0.0
O132 O 0.14388 0.3306 0.54336 0.0
C133 C 0.13828 0.43447 0.73567 0.0
C134 C 0.18576 0.39879 0.49204 0.0
C135 C 0.06908 0.37222 0.60756 0.0
O136 O 0.1457 0.40523 0.76647 0.0
O137 O 0.13003 0.43627 0.64685 0.0
O138 O 0.08446 0.39013 0.54507 0.0
O139 O 0.08757 0.35892 0.67187 0.0
C140 C 0.15578 0.31636 0.61847 0.0
O141 O 0.15538 0.39595 0.46401 0.0
O142 O 0.19053 0.39347 0.58205 0.0
In143 In 0.38532 0.86446 0.3933 0.0
O144 O 0.34086 0.84147 0.31112 0.0
O145 O 0.33557 0.85393 0.46331 0.0
C146 C 0.44444 0.86796 0.30027 0.0
C147 C 0.40303 0.81512 0.51484 0.0
C148 C 0.36905 0.92981 0.38685 0.0
O149 O 0.41866 0.85586 0.25741 0.0
O150 O 0.43951 0.87837 0.38645 0.0
O151 O 0.38403 0.91744 0.46057 0.0
O152 O 0.3629 0.90935 0.31819 0.0
C153 C 0.32216 0.84197 0.38687 0.0
O154 O 0.39872 0.84524 0.54461 0.0
O155 O 0.39914 0.81063 0.42386 0.0
In156 In 0.85914 0.89031 0.61786 0.0
O157 O 0.83914 0.90641 0.76593 0.0
O158 O 0.80553 0.90643 0.6432 0.0
C159 C 0.92205 0.86681 0.61683 0.0
C160 C 0.83579 0.82725 0.61301 0.0
C161 C 0.87115 0.94757 0.5197 0.0
O162 O 0.9107 0.8828 0.69053 0.0
O163 O 0.90206 0.86413 0.54522 0.0
O164 O 0.85313 0.92428 0.4825 0.0
O165 O 0.88207 0.94162 0.60479 0.0
C166 C 0.80933 0.91086 0.73423 0.0
O167 O 0.83656 0.84531 0.53593 0.0
O168 O 0.84603 0.84158 0.69014 0.0
In169 In 0.88661 0.15208 0.37564 0.0
O170 O 0.90196 0.17402 0.22866 0.0
O171 O 0.89471 0.20751 0.35027 0.0
C172 C 0.88244 0.08493 0.38803 0.0
C173 C 0.82073 0.16601 0.37857 0.0
C174 C 0.94475 0.15437 0.47221 0.0
O175 O 0.88781 0.09913 0.30619 0.0
O176 O 0.87867 0.10452 0.46017 0.0
O177 O 0.9171 0.16039 0.51613 0.0
O178 O 0.9425 0.14787 0.38187 0.0
C179 C 0.90221 0.20421 0.26073 0.0
O180 O 0.83927 0.17152 0.45277 0.0
O181 O 0.83565 0.15329 0.30555 0.0
In182 In 0.14373 0.10754 0.61636 0.0
O183 O 0.16523 0.09111 0.76225 0.0
O184 O 0.19771 0.09214 0.63644 0.0
C185 C 0.08015 0.12818 0.59889 0.0
C186 C 0.16459 0.17127 0.61549 0.0
C187 C 0.13255 0.04886 0.52681 0.0
O188 O 0.09066 0.11554 0.67893 0.0
O189 O 0.10168 0.12968 0.53055 0.0
O190 O 0.14946 0.07207 0.48486 0.0
O191 O 0.1222 0.05577 0.61217 0.0
C192 C 0.19471 0.08672 0.72737 0.0
O193 O 0.16636 0.15303 0.53875 0.0
O194 O 0.15319 0.15674 0.69109 0.0
In195 In 0.11106 0.84335 0.39047 0.0
O196 O 0.15908 0.82437 0.46393 0.0
O197 O 0.16179 0.8438 0.31816 0.0
C198 C 0.0556 0.8386 0.4987 0.0
C199 C 0.09378 0.7932 0.27012 0.0
C200 C 0.11494 0.91052 0.40501 0.0
O201 O 0.08433 0.83245 0.53571 0.0
O202 O 0.05536 0.8466 0.40924 0.0
O203 O 0.11023 0.89657 0.32246 0.0
O204 O 0.11769 0.89068 0.47673 0.0
C205 C 0.17731 0.83125 0.39013 0.0
O206 O 0.09244 0.82395 0.24369 0.0
O207 O 0.10389 0.78829 0.35674 0.0
C208 C 0.38736 0.98992 0.39492 0.0
C209 C 0.36203 0.96604 0.37488 0.0
C210 C 0.38501 0.02295 0.35821 0.0
C211 C 0.35679 0.03313 0.30358 0.0
H212 H 0.41039 0.98225 0.43133 0.0
H213 H 0.40628 0.03989 0.36698 0.0
S214 S 0.28188 0.98143 0.24275 0.0
N215 N 0.30666 0.95564 0.30476 0.0
N216 N 0.30186 0.01804 0.23888 0.0
C217 C 0.33009 0.01039 0.29068 0.0
C218 C 0.33279 0.97668 0.32584 0.0
C219 C 0.01093 0.66115 0.67374 0.0
C220 C 0.02909 0.6312 0.68941 0.0
C221 C 0.97728 0.66003 0.64191 0.0
C222 C 0.96136 0.62903 0.62182 0.0
H223 H 0.02174 0.68529 0.69412 0.0
H224 H 0.96308 0.68338 0.63809 0.0
S225 S -0.00043 0.544 0.64162 0.0
N226 N 0.0298 0.57007 0.67651 0.0
N227 N 0.96708 0.56805 0.61232 0.0
C228 C 0.98025 0.5992 0.62933 0.0
C229 C 0.01407 0.60028 0.66442 0.0
C230 C 0.65912 0.00616 0.19606 0.0
C231 C 0.64991 0.97919 0.25682 0.0
C232 C 0.65419 0.03953 0.22524 0.0
C233 C 0.63921 0.04739 0.31584 0.0
H234 H 0.66923 0.00141 0.12365 0.0
H235 H 0.66096 0.05927 0.17401 0.0
S236 S 0.6131 0.98553 0.5052 0.0
N237 N 0.62751 0.96198 0.41444 0.0
N238 N 0.61746 0.02519 0.46954 0.0
C239 C 0.63144 0.02061 0.3798 0.0
C240 C 0.637 0.98635 0.35021 0.0
C241 C 0.01718 0.33921 0.64432 0.0
C242 C 0.03204 0.36978 0.61424 0.0
C243 C 0.98336 0.33794 0.67442 0.0
C244 C 0.96375 0.36743 0.67808 0.0
H245 H 0.03233 0.31651 0.64962 0.0
H246 H 0.97346 0.3144 0.70298 0.0
S247 S 0.98978 0.45299 0.59908 0.0
N248 N 0.02363 0.42944 0.58111 0.0
N249 N 0.96047 0.42735 0.64234 0.0
C250 C 0.97765 0.39766 0.64273 0.0
C251 C 0.01176 0.39877 0.60938 0.0
C252 C 0.34729 0.50445 0.04835 0.0
C253 C 0.35561 0.47791 0.98481 0.0
C254 C 0.35089 0.538 0.01988 0.0
C255 C 0.36343 0.54658 0.92687 0.0
H256 H 0.33854 0.49925 0.12197 0.0
H257 H 0.34466 0.55736 0.07295 0.0
S258 S 0.38689 0.48616 0.73061 0.0
N259 N 0.37499 0.46188 0.82273 0.0
N260 N 0.38242 0.52556 0.7687 0.0
C261 C 0.37053 0.52026 0.86059 0.0
C262 C 0.36643 0.48574 0.88968 0.0
C263 C 0.50538 0.64831 0.94833 0.0
C264 C 0.47821 0.64328 0.01245 0.0
C265 C 0.53852 0.64329 0.97863 0.0
C266 C 0.54605 0.63256 0.07426 0.0
H267 H 0.50098 0.65565 0.87305 0.0
H268 H 0.55835 0.64708 0.92517 0.0
S269 S 0.48379 0.61741 0.2723 0.0
N270 N 0.46059 0.6286 0.17726 0.0
N271 N 0.52344 0.61856 0.23482 0.0
C272 C 0.51916 0.62853 0.14064 0.0
C273 C 0.48509 0.63408 0.10962 0.0
C274 C 0.62315 0.47599 0.8777 0.0
C275 C 0.63563 0.44901 0.93428 0.0
C276 C 0.62846 0.50974 0.90649 0.0
C277 C 0.64627 0.51725 0.99262 0.0
H278 H 0.60791 0.47102 0.81356 0.0
H279 H 0.61696 0.52986 0.8645 0.0
S280 S 0.68855 0.45653 0.15768 0.0
N281 N 0.67027 0.43274 0.07384 0.0
N282 N 0.67932 0.49584 0.12805 0.0
C283 C 0.66061 0.49075 0.04598 0.0
C284 C 0.65557 0.45667 0.01669 0.0
C285 C 0.47874 0.37982 0.13786 0.0
C286 C 0.45348 0.35807 0.10252 0.0
C287 C 0.51261 0.37529 0.11009 0.0
C288 C 0.52205 0.34843 0.0486 0.0
H289 H 0.472 0.40187 0.18056 0.0
H290 H 0.53109 0.39406 0.13153 0.0
S291 S 0.46619 0.28213 0.94774 0.0
N292 N 0.44072 0.30693 0.01096 0.0
N293 N 0.50436 0.2983 0.96059 0.0
C294 C 0.49748 0.32511 0.01951 0.0
C295 C 0.46312 0.32992 0.04628 0.0
C296 C 0.89264 0.4888 0.88523 0.0
C297 C 0.8641 0.46775 0.88157 0.0
C298 C 0.89081 0.52249 0.85394 0.0
C299 C 0.86017 0.53642 0.82166 0.0
H300 H 0.9171 0.47841 0.90382 0.0
H301 H 0.91389 0.53709 0.84899 0.0
S302 S 0.7775 0.49306 0.81039 0.0
N303 N 0.80383 0.46391 0.85092 0.0
N304 N 0.80022 0.52772 0.79615 0.0
C305 C 0.83093 0.51655 0.82614 0.0
C306 C 0.83294 0.48201 0.8552 0.0
C307 C 0.51484 0.10808 0.15012 0.0
C308 C 0.52734 0.14017 0.17549 0.0
C309 C 0.48188 0.10406 0.11464 0.0
C310 C 0.46013 0.13191 0.10684 0.0
H311 H 0.53009 0.08578 0.16247 0.0
H312 H 0.47254 0.07875 0.10118 0.0
S313 S 0.48165 0.22141 0.15711 0.0
N314 N 0.51659 0.20045 0.18258 0.0
N315 N 0.45403 0.19282 0.12024 0.0
C316 C 0.47295 0.1643 0.12689 0.0
C317 C 0.5068 0.16847 0.16019 0.0
C318 C 0.11274 0.50888 0.89009 0.0
C319 C 0.13603 0.53349 0.85876 0.0
C320 C 0.11529 0.47524 0.85753 0.0
C321 C 0.1414 0.4654 0.79408 0.0
H322 H 0.09104 0.51613 0.93347 0.0
H323 H 0.09541 0.45756 0.87606 0.0
S324 S 0.21161 0.51867 0.70426 0.0
N325 N 0.18833 0.54449 0.77103 0.0
N326 N 0.19278 0.4815 0.71001 0.0
C327 C 0.16626 0.48902 0.76927 0.0
C328 C 0.16371 0.52306 0.80186 0.0
C329 C 0.50608 0.87069 0.32369 0.0
C330 C 0.47882 0.8685 0.25841 0.0
C331 C 0.5392 0.87251 0.29034 0.0
C332 C 0.54677 0.8726 0.18989 0.0
H333 H 0.50192 0.87099 0.40204 0.0
H334 H 0.55902 0.87439 0.3446 0.0
S335 S 0.48464 0.86657 0.98777 0.0
N336 N 0.46136 0.86566 0.08813 0.0
N337 N 0.52425 0.86969 0.02455 0.0
C338 C 0.51987 0.87011 0.12305 0.0
C339 C 0.48576 0.86782 0.15751 0.0
C340 C 0.8563 0.99299 0.39811 0.0
C341 C 0.87782 0.98047 0.47169 0.0
C342 C 0.85928 0.02652 0.3646 0.0
C343 C 0.88388 0.04823 0.40372 0.0
H344 H 0.83594 0.97748 0.37029 0.0
H345 H 0.84104 0.03606 0.31252 0.0
S346 S 0.9496 0.02643 0.58524 0.0
N347 N 0.92719 0.99152 0.57291 0.0
N348 N 0.93216 0.05424 0.51099 0.0
C349 C 0.90684 0.03536 0.47192 0.0
C350 C 0.90401 0.00149 0.50557 0.0
C351 C 0.00574 0.16596 0.46778 0.0
C352 C 0.97793 0.15364 0.52021 0.0
C353 C 0.03863 0.15924 0.49812 0.0
C354 C 0.0451 0.1395 0.58156 0.0
H355 H 0.00205 0.17969 0.40005 0.0
H356 H 0.05916 0.1684 0.45296 0.0
S357 S 0.9807 0.10362 0.74887 0.0
N358 N 0.9585 0.12298 0.66338 0.0
N359 N 0.02079 0.10986 0.72067 0.0
C360 C 0.01749 0.12879 0.63846 0.0
C361 C 0.98373 0.13597 0.60762 0.0
C362 C 0.09916 0.96001 0.50369 0.0
C363 C 0.11587 0.94723 0.42118 0.0
C364 C 0.10371 0.99335 0.5337 0.0
C365 C 0.12561 0.01528 0.48331 0.0
H366 H 0.08314 0.94372 0.54739 0.0
H367 H 0.09069 0.00157 0.59924 0.0
S368 S 0.17411 0.99434 0.25902 0.0
N369 N 0.1538 0.95906 0.28592 0.0
N370 N 0.16292 0.0222 0.34315 0.0
C371 C 0.1414 0.00328 0.39774 0.0
C372 C 0.13639 0.9691 0.36644 0.0
C373 C 0.98399 0.87128 0.65082 0.0
C374 C 0.9567 0.85354 0.60967 0.0
C375 C 0.01732 0.86377 0.62288 0.0
C376 C 0.02394 0.83825 0.55394 0.0
H377 H 0.97947 0.89278 0.69811 0.0
H378 H 0.03758 0.87988 0.64853 0.0
S379 S 0.96192 0.78028 0.44099 0.0
N380 N 0.939 0.80599 0.50914 0.0
N381 N 0.00146 0.7924 0.45615 0.0
C382 C 0.9972 0.81834 0.52018 0.0
C383 C 0.96352 0.82584 0.54839 0.0
C384 C 0.32358 0.26485 0.18288 0.0
C385 C 0.32545 0.28335 0.09513 0.0
C386 C 0.32442 0.22957 0.18273 0.0
C387 C 0.32734 0.21147 0.09482 0.0
H388 H 0.32312 0.27772 0.25284 0.0
H389 H 0.32472 0.21656 0.25241 0.0
S390 S 0.32745 0.24776 0.84436 0.0
N391 N 0.3261 0.28094 0.91749 0.0
N392 N 0.32765 0.21441 0.91683 0.0
C393 C 0.32642 0.22953 0.00606 0.0
C394 C 0.32543 0.26556 0.00629 0.0
C395 C 0.22891 0.66623 0.96586 0.0
C396 C 0.2112 0.66751 0.87654 0.0
C397 C 0.26416 0.66843 0.96866 0.0
C398 C 0.28292 0.67172 0.88214 0.0
H399 H 0.21562 0.66188 0.03396 0.0
H400 H 0.27681 0.66534 0.0383 0.0
S401 S 0.24858 0.68252 0.63163 0.0
N402 N 0.21494 0.67699 0.70112 0.0
N403 N 0.28126 0.6809 0.70629 0.0
C404 C 0.26546 0.67581 0.79333 0.0
C405 C 0.22955 0.67379 0.79053 0.0
C406 C 0.66976 0.7654 0.04028 0.0
C407 C 0.67176 0.78363 0.12866 0.0
C408 C 0.67038 0.73002 0.03926 0.0
C409 C 0.67253 0.71165 0.12676 0.0
H410 H 0.6664 0.7785 0.97144 0.0
H411 H 0.6671 0.71705 0.9701 0.0
S412 S 0.68304 0.74718 0.37622 0.0
N413 N 0.67974 0.78062 0.30474 0.0
N414 N 0.68041 0.71407 0.30308 0.0
C415 C 0.67679 0.72952 0.21496 0.0
C416 C 0.67657 0.76556 0.21587 0.0
C417 C 0.72998 0.32657 0.954 0.0
C418 C 0.71092 0.32636 0.86755 0.0
C419 C 0.76514 0.32987 0.95102 0.0
C420 C 0.78254 0.33286 0.86149 0.0
H421 H 0.71759 0.32625 0.02466 0.0
H422 H 0.77859 0.33156 0.01981 0.0
S423 S 0.74459 0.32776 0.61407 0.0
N424 N 0.71217 0.32509 0.6896 0.0
N425 N 0.77834 0.33114 0.68413 0.0
C426 C 0.76401 0.32993 0.77439 0.0
C427 C 0.72815 0.32673 0.77742 0.0
C428 C 0.83629 0.73619 0.53174 0.0
C429 C 0.83164 0.71867 0.62052 0.0
C430 C 0.83487 0.77154 0.52781 0.0
C431 C 0.82883 0.7906 0.61261 0.0
H432 H 0.84272 0.72266 0.4654 0.0
H433 H 0.8407 0.78399 0.45931 0.0
S434 S 0.809 0.75693 0.85943 0.0
N435 N 0.81634 0.72302 0.79235 0.0
N436 N 0.81369 0.78944 0.78507 0.0
C437 C 0.82147 0.77336 0.7001 0.0
C438 C 0.82287 0.73738 0.70408 0.0
C439 C 0.76679 0.17049 0.28609 0.0
C440 C 0.78394 0.17229 0.37621 0.0
C441 C 0.73154 0.17187 0.28143 0.0
C442 C 0.7121 0.17472 0.36686 0.0
H443 H 0.78062 0.16683 0.21854 0.0
H444 H 0.71946 0.16873 0.21094 0.0
S445 S 0.74467 0.18507 0.61967 0.0
N446 N 0.77888 0.18078 0.55174 0.0
N447 N 0.71248 0.18298 0.54326 0.0
C448 C 0.72892 0.17873 0.45684 0.0
C449 C 0.7649 0.17764 0.46147 0.0
C450 C 0.16216 0.26167 0.52961 0.0
C451 C 0.16428 0.27995 0.61792 0.0
C452 C 0.16508 0.22642 0.52802 0.0
C453 C 0.16997 0.20817 0.61481 0.0
H454 H 0.15675 0.2745 0.46145 0.0
H455 H 0.16131 0.21331 0.45928 0.0
S456 S 0.18297 0.24422 0.86265 0.0
N457 N 0.17593 0.27738 0.7924 0.0
N458 N 0.18115 0.21105 0.78955 0.0
C459 C 0.17472 0.22626 0.70243 0.0
C460 C 0.17195 0.26219 0.70398 0.0
C461 C 0.23212 0.83397 0.30103 0.0
C462 C 0.21445 0.82785 0.38879 0.0
C463 C 0.26737 0.83619 0.29942 0.0
C464 C 0.28614 0.83271 0.38573 0.0
H465 H 0.21859 0.83842 0.23345 0.0
H466 H 0.27978 0.84262 0.23129 0.0
S467 S 0.25263 0.81129 0.63161 0.0
N468 N 0.21878 0.81441 0.56187 0.0
N469 N 0.28508 0.81889 0.55909 0.0
C470 C 0.26904 0.82428 0.47265 0.0
C471 C 0.23315 0.82173 0.47413 0.0
C472 C 0.22058 0.07926 0.8922 0.0
C473 C 0.2244 0.07994 0.79009 0.0
C474 C 0.2487 0.07908 0.95401 0.0
C475 C 0.28178 0.07972 0.91618 0.0
H476 H 0.19573 0.08057 0.92501 0.0
H477 H 0.24434 0.08025 0.03217 0.0
S478 S 0.3055 0.07577 0.65397 0.0
N479 N 0.26386 0.07673 0.65361 0.0
N480 N 0.31671 0.07675 0.77022 0.0
C481 C 0.28599 0.07768 0.81433 0.0
C482 C 0.25729 0.07773 0.75117 0.0
C483 C 0.09193 0.73129 0.23626 0.0
C484 C 0.08645 0.76459 0.20369 0.0
C485 C 0.08981 0.70381 0.17197 0.0
C486 C 0.08215 0.70864 0.07269 0.0
H487 H 0.09941 0.72642 0.31112 0.0
H488 H 0.09612 0.67892 0.19923 0.0
S489 S 0.05997 0.79006 0.95425 0.0
N490 N 0.06892 0.80033 0.06838 0.0
N491 N 0.06481 0.74871 0.94742 0.0
C492 C 0.07403 0.74148 0.04085 0.0
C493 C 0.07624 0.76947 0.10636 0.0
C494 C 0.75741 0.91005 0.96567 0.0
C495 C 0.72403 0.9099 0.93044 0.0
C496 C 0.7849 0.91266 0.90199 0.0
C497 C 0.78013 0.91522 0.80049 0.0
H498 H 0.76253 0.90681 0.04291 0.0
H499 H 0.81008 0.91101 0.93242 0.0
S500 S 0.69773 0.92105 0.67213 0.0
N501 N 0.68765 0.91625 0.78849 0.0
N502 N 0.73937 0.92125 0.66835 0.0
C503 C 0.74686 0.91747 0.76473 0.0
C504 C 0.71879 0.91476 0.82981 0.0
C505 C 0.91172 0.2293 0.09545 0.0
C506 C 0.90835 0.23381 0.1969 0.0
C507 C 0.91294 0.25704 0.03206 0.0
C508 C 0.91079 0.29039 0.06758 0.0
H509 H 0.91202 0.20416 0.06413 0.0
H510 H 0.91402 0.25213 0.95416 0.0
S511 S 0.90675 0.31601 0.32837 0.0
N512 N 0.9067 0.27432 0.3311 0.0
N513 N 0.90878 0.3264 0.21159 0.0
C514 C 0.90973 0.29533 0.16931 0.0
C515 C 0.90853 0.26705 0.23404 0.0
C516 C 0.24761 0.40308 0.461 0.0
C517 C 0.21442 0.40424 0.42436 0.0
C518 C 0.27551 0.40326 0.3982 0.0
C519 C 0.27134 0.40465 0.29626 0.0
H520 H 0.25217 0.4007 0.5388 0.0
H521 H 0.30045 0.40095 0.42984 0.0
S522 S 0.18992 0.41262 0.1637 0.0
N523 N 0.17909 0.41013 0.28009 0.0
N524 N 0.23152 0.41065 0.16175 0.0
C525 C 0.23838 0.40793 0.25883 0.0
C526 C 0.20992 0.40769 0.32295 0.0
C527 C 0.40706 0.75317 0.5437 0.0
C528 C 0.40823 0.78624 0.58156 0.0
C529 C 0.40662 0.72506 0.60556 0.0
C530 C 0.40739 0.72894 0.70763 0.0
H531 H 0.40499 0.74887 0.46568 0.0
H532 H 0.4042 0.70021 0.57302 0.0
S533 S 0.41575 0.8099 0.84321 0.0
N534 N 0.41389 0.82114 0.72709 0.0
N535 N 0.41326 0.76827 0.84374 0.0
C536 C 0.41088 0.76176 0.74635 0.0
C537 C 0.41126 0.79043 0.6832 0.0
C538 C 0.75707 0.58829 0.28128 0.0
C539 C 0.72378 0.58675 0.3172 0.0
C540 C 0.78476 0.58813 0.34467 0.0
C541 C 0.78022 0.58639 0.4464 0.0
H542 H 0.76186 0.59122 0.20373 0.0
H543 H 0.80976 0.59118 0.31379 0.0
S544 S 0.69856 0.57616 0.5767 0.0
N545 N 0.68805 0.57926 0.46023 0.0
N546 N 0.74012 0.57873 0.57969 0.0
C547 C 0.74722 0.58216 0.4829 0.0
C548 C 0.71898 0.5824 0.41822 0.0
C549 C 0.58212 0.21473 0.64916 0.0
C550 C 0.57992 0.22106 0.54831 0.0
C551 C 0.58257 0.24132 0.71675 0.0
C552 C 0.58086 0.27526 0.6861 0.0
H553 H 0.58546 0.18921 0.67596 0.0
H554 H 0.58599 0.23518 0.79329 0.0
S555 S 0.56878 0.305 0.43132 0.0
N556 N 0.5714 0.2635 0.42185 0.0
N557 N 0.57248 0.31346 0.54909 0.0
C558 C 0.57587 0.2818 0.58618 0.0
C559 C 0.57534 0.25469 0.51724 0.0
loop_
_geom_bond_atom_site_label_1
_geom_bond_atom_site_label_2
_geom_bond_distance
_geom_bond_site_symmetry_2
_ccdc_geom_bond_type
In0 O1 2.294 1_554 S
In0 O2 2.326 . S
In0 O6 2.266 . S
In0 O7 2.326 . S
In0 O8 2.266 . S
In0 O9 2.326 . S
In0 O11 2.294 . S
In0 O12 2.326 . S
O1 In0 2.294 1_556 S
O1 C10 1.240 1_556 S
O2 In0 2.326 . S
O2 C10 1.252 . S
C3 O6 1.252 . S
C3 O7 1.260 . S
C4 O11 1.240 . S
C4 O12 1.252 . S
C5 O8 1.252 . S
C5 O9 1.260 . S
O6 In0 2.266 . S
O6 C3 1.252 . S
O7 In0 2.326 . S
O7 C3 1.260 . S
O8 In0 2.266 . S
O8 C5 1.252 . S
O9 In0 2.326 . S
O9 C5 1.260 . S
C10 O1 1.240 1_554 S
C10 O2 1.252 . S
O11 In0 2.294 . S
O11 C4 1.240 . S
O12 In0 2.326 . S
O12 C4 1.252 . S
In13 O14 2.294 1_556 S
In13 O15 2.326 . S
In13 O19 2.266 . S
In13 O20 2.326 . S
In13 O21 2.266 . S
In13 O22 2.326 . S
In13 O24 2.294 . S
In13 O25 2.326 . S
O14 In13 2.294 1_554 S
O14 C23 1.240 1_554 S
O15 In13 2.326 . S
O15 C23 1.252 . S
C16 O19 1.252 . S
C16 O20 1.260 . S
C17 O24 1.240 . S
C17 O25 1.252 . S
C18 O21 1.252 . S
C18 O22 1.260 . S
O19 In13 2.266 . S
O19 C16 1.252 . S
O20 In13 2.326 . S
O20 C16 1.260 . S
O21 In13 2.266 . S
O21 C18 1.252 . S
O22 In13 2.326 . S
O22 C18 1.260 . S
C23 O14 1.240 1_556 S
C23 O15 1.252 . S
O24 In13 2.294 . S
O24 C17 1.240 . S
O25 In13 2.326 . S
O25 C17 1.252 . S
In26 O27 2.294 . S
In26 O28 2.326 . S
In26 O32 2.266 . S
In26 O33 2.326 . S
In26 O34 2.266 . S
In26 O35 2.326 . S
In26 O37 2.294 1_554 S
In26 O38 2.326 . S
O27 In26 2.294 . S
O27 C36 1.240 . S
O28 In26 2.326 . S
O28 C36 1.252 . S
C29 O32 1.252 . S
C29 O33 1.260 . S
C30 O37 1.240 1_554 S
C30 O38 1.252 . S
C31 O34 1.252 . S
C31 O35 1.260 . S
O32 In26 2.266 . S
O32 C29 1.252 . S
O33 In26 2.326 . S
O33 C29 1.260 . S
O34 In26 2.266 . S
O34 C31 1.252 . S
O35 In26 2.326 . S
O35 C31 1.260 . S
C36 O27 1.240 . S
C36 O28 1.252 . S
O37 In26 2.294 1_556 S
O37 C30 1.240 1_556 S
O38 In26 2.326 . S
O38 C30 1.252 . S
In39 O40 2.294 . S
In39 O41 2.326 . S
In39 O45 2.266 . S
In39 O46 2.326 . S
In39 O47 2.266 . S
In39 O48 2.326 . S
In39 O50 2.294 1_556 S
In39 O51 2.326 . S
O40 In39 2.294 . S
O40 C49 1.240 . S
O41 In39 2.326 . S
O41 C49 1.252 . S
C42 O45 1.252 . S
C42 O46 1.260 . S
C43 O50 1.240 1_556 S
C43 O51 1.252 . S
C44 O47 1.252 . S
C44 O48 1.260 . S
O45 In39 2.266 . S
O45 C42 1.252 . S
O46 In39 2.326 . S
O46 C42 1.260 . S
O47 In39 2.266 . S
O47 C44 1.252 . S
O48 In39 2.326 . S
O48 C44 1.260 . S
C49 O40 1.240 . S
C49 O41 1.252 . S
O50 In39 2.294 1_554 S
O50 C43 1.240 1_554 S
O51 In39 2.326 . S
O51 C43 1.252 . S
In52 O53 2.294 . S
In52 O54 2.326 . S
In52 O58 2.266 1_554 S
In52 O59 2.326 . S
In52 O60 2.266 . S
In52 O61 2.325 . S
In52 O63 2.294 . S
In52 O64 2.326 . S
O53 In52 2.294 . S
O53 C62 1.240 . S
O54 In52 2.326 . S
O54 C62 1.252 . S
C55 O58 1.252 1_554 S
C55 O59 1.260 . S
C56 O63 1.240 . S
C56 O64 1.252 . S
C57 O60 1.252 . S
C57 O61 1.259 . S
O58 In52 2.266 1_556 S
O58 C55 1.252 1_556 S
O59 In52 2.326 . S
O59 C55 1.260 . S
O60 In52 2.266 . S
O60 C57 1.252 . S
O61 In52 2.325 . S
O61 C57 1.259 . S
C62 O53 1.240 . S
C62 O54 1.252 . S
O63 In52 2.294 . S
O63 C56 1.240 . S
O64 In52 2.326 . S
O64 C56 1.252 . S
In65 O66 2.294 . S
In65 O67 2.326 . S
In65 O71 2.266 1_556 S
In65 O72 2.326 . S
In65 O73 2.266 . S
In65 O74 2.325 . S
In65 O76 2.294 . S
In65 O77 2.326 . S
O66 In65 2.294 . S
O66 C75 1.240 . S
O67 In65 2.326 . S
O67 C75 1.252 . S
C68 O71 1.252 1_556 S
C68 O72 1.260 . S
C69 O76 1.240 . S
C69 O77 1.252 . S
C70 O73 1.252 . S
C70 O74 1.259 . S
O71 In65 2.266 1_554 S
O71 C68 1.252 1_554 S
O72 In65 2.326 . S
O72 C68 1.260 . S
O73 In65 2.266 . S
O73 C70 1.252 . S
O74 In65 2.325 . S
O74 C70 1.259 . S
C75 O66 1.240 . S
C75 O67 1.252 . S
O76 In65 2.294 . S
O76 C69 1.240 . S
O77 In65 2.326 . S
O77 C69 1.252 . S
In78 O79 2.294 . S
In78 O80 2.326 . S
In78 O84 2.266 1_554 S
In78 O85 2.326 . S
In78 O86 2.266 . S
In78 O87 2.325 . S
In78 O89 2.294 . S
In78 O90 2.326 . S
O79 In78 2.294 . S
O79 C88 1.240 . S
O80 In78 2.326 . S
O80 C88 1.252 . S
C81 O84 1.252 1_554 S
C81 O85 1.260 . S
C82 O89 1.240 . S
C82 O90 1.252 . S
C83 O86 1.252 . S
C83 O87 1.259 . S
O84 In78 2.266 1_556 S
O84 C81 1.252 1_556 S
O85 In78 2.326 . S
O85 C81 1.260 . S
O86 In78 2.266 . S
O86 C83 1.252 . S
O87 In78 2.325 . S
O87 C83 1.259 . S
C88 O79 1.240 . S
C88 O80 1.252 . S
O89 In78 2.294 . S
O89 C82 1.240 . S
O90 In78 2.326 . S
O90 C82 1.252 . S
In91 O92 2.294 . S
In91 O93 2.326 . S
In91 O97 2.266 1_556 S
In91 O98 2.326 . S
In91 O99 2.266 . S
In91 O100 2.325 . S
In91 O102 2.294 . S
In91 O103 2.326 . S
O92 In91 2.294 . S
O92 C101 1.240 . S
O93 In91 2.326 . S
O93 C101 1.252 . S
C94 O97 1.252 1_556 S
C94 O98 1.260 . S
C95 O102 1.240 . S
C95 O103 1.252 . S
C96 O99 1.252 . S
C96 O100 1.259 . S
O97 In91 2.266 1_554 S
O97 C94 1.252 1_554 S
O98 In91 2.326 . S
O98 C94 1.260 . S
O99 In91 2.266 . S
O99 C96 1.252 . S
O100 In91 2.325 . S
O100 C96 1.259 . S
C101 O92 1.240 . S
C101 O93 1.252 . S
O102 In91 2.294 . S
O102 C95 1.240 . S
O103 In91 2.326 . S
O103 C95 1.252 . S
In104 O105 2.294 . S
In104 O106 2.326 . S
In104 O110 2.266 . S
In104 O111 2.326 . S
In104 O112 2.266 . S
In104 O113 2.326 . S
In104 O115 2.294 . S
In104 O116 2.326 . S
O105 In104 2.294 . S
O105 C114 1.240 . S
O106 In104 2.326 . S
O106 C114 1.252 . S
C107 O110 1.252 . S
C107 O111 1.260 . S
C108 O115 1.240 . S
C108 O116 1.252 . S
C109 O112 1.252 . S
C109 O113 1.260 . S
O110 In104 2.266 . S
O110 C107 1.252 . S
O111 In104 2.326 . S
O111 C107 1.260 . S
O112 In104 2.266 . S
O112 C109 1.252 . S
O113 In104 2.326 . S
O113 C109 1.260 . S
C114 O105 1.240 . S
C114 O106 1.252 . S
O115 In104 2.294 . S
O115 C108 1.240 . S
O116 In104 2.326 . S
O116 C108 1.252 . S
In117 O118 2.294 . S
In117 O119 2.326 . S
In117 O123 2.266 . S
In117 O124 2.326 . S
In117 O125 2.266 . S
In117 O126 2.326 . S
In117 O128 2.294 . S
In117 O129 2.326 . S
O118 In117 2.294 . S
O118 C127 1.240 . S
O119 In117 2.326 . S
O119 C127 1.252 . S
C120 O123 1.252 . S
C120 O124 1.260 . S
C121 O128 1.240 . S
C121 O129 1.252 . S
C122 O125 1.252 . S
C122 O126 1.260 . S
O123 In117 2.266 . S
O123 C120 1.252 . S
O124 In117 2.326 . S
O124 C120 1.260 . S
O125 In117 2.266 . S
O125 C122 1.252 . S
O126 In117 2.326 . S
O126 C122 1.260 . S
C127 O118 1.240 . S
C127 O119 1.252 . S
O128 In117 2.294 . S
O128 C121 1.240 . S
O129 In117 2.326 . S
O129 C121 1.252 . S
In130 O131 2.294 . S
In130 O132 2.326 . S
In130 O136 2.266 . S
In130 O137 2.326 . S
In130 O138 2.266 . S
In130 O139 2.326 . S
In130 O141 2.294 . S
In130 O142 2.326 . S
O131 In130 2.294 . S
O131 C140 1.240 . S
O132 In130 2.326 . S
O132 C140 1.252 . S
C133 O136 1.252 . S
C133 O137 1.260 . S
C134 O141 1.240 . S
C134 O142 1.252 . S
C135 O138 1.252 . S
C135 O139 1.260 . S
O136 In130 2.266 . S
O136 C133 1.252 . S
O137 In130 2.326 . S
O137 C133 1.260 . S
O138 In130 2.266 . S
O138 C135 1.252 . S
O139 In130 2.326 . S
O139 C135 1.260 . S
C140 O131 1.240 . S
C140 O132 1.252 . S
O141 In130 2.294 . S
O141 C134 1.240 . S
O142 In130 2.326 . S
O142 C134 1.252 . S
In143 O144 2.294 . S
In143 O145 2.326 . S
In143 O149 2.266 . S
In143 O150 2.326 . S
In143 O151 2.266 . S
In143 O152 2.326 . S
In143 O154 2.294 . S
In143 O155 2.326 . S
O144 In143 2.294 . S
O144 C153 1.240 . S
O145 In143 2.326 . S
O145 C153 1.252 . S
C146 O149 1.252 . S
C146 O150 1.260 . S
C147 O154 1.240 . S
C147 O155 1.252 . S
C148 O151 1.252 . S
C148 O152 1.260 . S
O149 In143 2.266 . S
O149 C146 1.252 . S
O150 In143 2.326 . S
O150 C146 1.260 . S
O151 In143 2.266 . S
O151 C148 1.252 . S
O152 In143 2.326 . S
O152 C148 1.260 . S
C153 O144 1.240 . S
C153 O145 1.252 . S
O154 In143 2.294 . S
O154 C147 1.240 . S
O155 In143 2.326 . S
O155 C147 1.252 . S
In156 O157 2.294 . S
In156 O158 2.326 . S
In156 O162 2.266 . S
In156 O163 2.326 . S
In156 O164 2.266 . S
In156 O165 2.326 . S
In156 O167 2.294 . S
In156 O168 2.326 . S
O157 In156 2.294 . S
O157 C166 1.240 . S
O158 In156 2.326 . S
O158 C166 1.252 . S
C159 O162 1.252 . S
C159 O163 1.260 . S
C160 O167 1.240 . S
C160 O168 1.252 . S
C161 O164 1.252 . S
C161 O165 1.260 . S
O162 In156 2.266 . S
O162 C159 1.252 . S
O163 In156 2.326 . S
O163 C159 1.260 . S
O164 In156 2.266 . S
O164 C161 1.252 . S
O165 In156 2.326 . S
O165 C161 1.260 . S
C166 O157 1.240 . S
C166 O158 1.252 . S
O167 In156 2.294 . S
O167 C160 1.240 . S
O168 In156 2.326 . S
O168 C160 1.252 . S
In169 O170 2.294 . S
In169 O171 2.326 . S
In169 O175 2.266 . S
In169 O176 2.326 . S
In169 O177 2.266 . S
In169 O178 2.326 . S
In169 O180 2.294 . S
In169 O181 2.326 . S
O170 In169 2.294 . S
O170 C179 1.240 . S
O171 In169 2.326 . S
O171 C179 1.252 . S
C172 O175 1.252 . S
C172 O176 1.260 . S
C173 O180 1.240 . S
C173 O181 1.252 . S
C174 O177 1.252 . S
C174 O178 1.260 . S
O175 In169 2.266 . S
O175 C172 1.252 . S
O176 In169 2.326 . S
O176 C172 1.260 . S
O177 In169 2.266 . S
O177 C174 1.252 . S
O178 In169 2.326 . S
O178 C174 1.260 . S
C179 O170 1.240 . S
C179 O171 1.252 . S
O180 In169 2.294 . S
O180 C173 1.240 . S
O181 In169 2.326 . S
O181 C173 1.252 . S
In182 O183 2.294 . S
In182 O184 2.326 . S
In182 O188 2.266 . S
In182 O189 2.326 . S
In182 O190 2.266 . S
In182 O191 2.326 . S
In182 O193 2.294 . S
In182 O194 2.326 . S
O183 In182 2.294 . S
O183 C192 1.240 . S
O184 In182 2.326 . S
O184 C192 1.252 . S
C185 O188 1.252 . S
C185 O189 1.260 . S
C186 O193 1.240 . S
C186 O194 1.252 . S
C187 O190 1.252 . S
C187 O191 1.260 . S
O188 In182 2.266 . S
O188 C185 1.252 . S
O189 In182 2.326 . S
O189 C185 1.260 . S
O190 In182 2.266 . S
O190 C187 1.252 . S
O191 In182 2.326 . S
O191 C187 1.260 . S
C192 O183 1.240 . S
C192 O184 1.252 . S
O193 In182 2.294 . S
O193 C186 1.240 . S
O194 In182 2.326 . S
O194 C186 1.252 . S
In195 O196 2.294 . S
In195 O197 2.326 . S
In195 O201 2.266 . S
In195 O202 2.326 . S
In195 O203 2.266 . S
In195 O204 2.326 . S
In195 O206 2.294 . S
In195 O207 2.326 . S
O196 In195 2.294 . S
O196 C205 1.240 . S
O197 In195 2.326 . S
O197 C205 1.252 . S
C198 O201 1.252 . S
C198 O202 1.260 . S
C199 O206 1.240 . S
C199 O207 1.252 . S
C200 O203 1.252 . S
C200 O204 1.260 . S
O201 In195 2.266 . S
O201 C198 1.252 . S
O202 In195 2.326 . S
O202 C198 1.260 . S
O203 In195 2.266 . S
O203 C200 1.252 . S
O204 In195 2.326 . S
O204 C200 1.260 . S
C205 O196 1.240 . S
C205 O197 1.252 . S
O206 In195 2.294 . S
O206 C199 1.240 . S
O207 In195 2.326 . S
O207 C199 1.252 . S
C208 C209 1.369 . S
C208 C210 1.419 1_565 S
C208 H212 0.930 . S
C209 C208 1.369 . S
C209 C218 1.429 . S
C210 C208 1.419 1_545 S
C210 C211 1.363 . S
C210 H213 0.929 . S
C211 C210 1.363 . S
C211 C217 1.428 . S
H212 C208 0.930 . S
H213 C210 0.929 . S
S214 N215 1.613 . S
S214 N216 1.610 1_565 S
N215 S214 1.613 . S
N215 C218 1.350 . S
N216 S214 1.610 1_545 S
N216 C217 1.351 . S
C217 C211 1.428 . S
C217 N216 1.351 . S
C217 C218 1.434 1_545 S
C218 C209 1.429 . S
C218 N215 1.350 . S
C218 C217 1.434 1_565 S
C219 C220 1.369 . S
C219 C221 1.419 1_455 S
C219 H223 0.930 . S
C220 C219 1.369 . S
C220 C229 1.429 . S
C221 C219 1.419 1_655 S
C221 C222 1.363 . S
C221 H224 0.929 . S
C222 C221 1.363 . S
C222 C228 1.428 . S
H223 C219 0.930 . S
H224 C221 0.929 . S
S225 N226 1.613 . S
S225 N227 1.610 1_455 S
N226 S225 1.613 . S
N226 C229 1.350 . S
N227 S225 1.610 1_655 S
N227 C228 1.351 . S
C228 C222 1.428 . S
C228 N227 1.351 . S
C228 C229 1.434 1_655 S
C229 C220 1.429 . S
C229 N226 1.350 . S
C229 C228 1.434 1_455 S
C230 C231 1.371 . S
C230 C232 1.417 1_565 S
C230 H234 0.930 . S
C231 C230 1.371 . S
C231 C240 1.429 . S
C232 C230 1.417 1_545 S
C232 C233 1.363 . S
C232 H235 0.929 . S
C233 C232 1.363 . S
C233 C239 1.428 . S
H234 C230 0.930 . S
H235 C232 0.929 . S
S236 N237 1.613 . S
S236 N238 1.610 1_565 S
N237 S236 1.613 . S
N237 C240 1.350 . S
N238 S236 1.610 1_545 S
N238 C239 1.351 . S
C239 C233 1.428 . S
C239 N238 1.351 . S
C239 C240 1.434 1_545 S
C240 C231 1.429 . S
C240 N237 1.350 . S
C240 C239 1.434 1_565 S
C241 C242 1.369 . S
C241 C243 1.396 1_455 S
C241 H245 0.930 . S
C242 C241 1.369 . S
C242 C251 1.429 . S
C243 C241 1.396 1_655 S
C243 C244 1.382 . S
C243 H246 0.933 . S
C244 C243 1.382 . S
C244 C250 1.428 . S
H245 C241 0.930 . S
H246 C243 0.933 . S
S247 N248 1.613 1_655 S
S247 N249 1.610 . S
N248 S247 1.613 1_455 S
N248 C251 1.350 . S
N249 S247 1.610 . S
N249 C250 1.351 . S
C250 C244 1.428 . S
C250 N249 1.351 . S
C250 C251 1.434 1_655 S
C251 C242 1.429 . S
C251 N248 1.350 . S
C251 C250 1.434 1_455 S
C252 C253 1.369 . S
C252 C254 1.419 . S
C252 H256 0.930 1_556 S
C253 C252 1.369 . S
C253 C262 1.429 . S
C254 C252 1.419 . S
C254 C255 1.363 . S
C254 H257 0.927 1_556 S
C255 C254 1.363 . S
C255 C261 1.428 . S
H256 C252 0.930 1_554 S
H257 C254 0.927 1_554 S
S258 N259 1.613 . S
S258 N260 1.610 . S
N259 S258 1.613 . S
N259 C262 1.350 . S
N260 S258 1.610 . S
N260 C261 1.351 . S
C261 C255 1.428 . S
C261 N260 1.351 . S
C261 C262 1.434 . S
C262 C253 1.429 . S
C262 N259 1.350 . S
C262 C261 1.434 . S
C263 C264 1.369 . S
C263 C265 1.419 . S
C263 H267 0.930 1_554 S
C264 C263 1.369 . S
C264 C273 1.429 . S
C265 C263 1.419 . S
C265 C266 1.363 . S
C265 H268 0.929 1_554 S
C266 C265 1.363 . S
C266 C272 1.428 . S
H267 C263 0.930 1_556 S
H268 C265 0.929 1_556 S
S269 N270 1.613 . S
S269 N271 1.610 . S
N270 S269 1.613 . S
N270 C273 1.350 . S
N271 S269 1.610 . S
N271 C272 1.351 . S
C272 C266 1.428 . S
C272 N271 1.351 . S
C272 C273 1.434 . S
C273 C264 1.429 . S
C273 N270 1.350 . S
C273 C272 1.434 . S
C274 C275 1.369 . S
C274 C276 1.419 . S
C274 H278 0.930 . S
C275 C274 1.369 . S
C275 C284 1.429 1_556 S
C276 C274 1.419 . S
C276 C277 1.363 . S
C276 H279 0.929 . S
C277 C276 1.363 . S
C277 C283 1.428 1_556 S
H278 C274 0.930 . S
H279 C276 0.929 . S
S280 N281 1.613 . S
S280 N282 1.610 . S
N281 S280 1.613 . S
N281 C284 1.350 . S
N282 S280 1.610 . S
N282 C283 1.351 . S
C283 C277 1.428 1_554 S
C283 N282 1.351 . S
C283 C284 1.434 . S
C284 C275 1.429 1_554 S
C284 N281 1.350 . S
C284 C283 1.434 . S
C285 C286 1.369 . S
C285 C287 1.419 . S
C285 H289 0.930 . S
C286 C285 1.369 . S
C286 C295 1.429 1_554 S
C287 C285 1.419 . S
C287 C288 1.363 . S
C287 H290 0.929 . S
C288 C287 1.363 . S
C288 C294 1.428 1_554 S
H289 C285 0.930 . S
H290 C287 0.929 . S
S291 N292 1.613 . S
S291 N293 1.610 . S
N292 S291 1.613 . S
N292 C295 1.350 . S
N293 S291 1.610 . S
N293 C294 1.351 . S
C294 C288 1.428 1_556 S
C294 N293 1.351 . S
C294 C295 1.434 . S
C295 C286 1.429 1_556 S
C295 N292 1.350 . S
C295 C294 1.434 . S
C296 C297 1.369 . S
C296 C298 1.419 . S
C296 H300 0.930 . S
C297 C296 1.369 . S
C297 C306 1.429 . S
C298 C296 1.419 . S
C298 C299 1.363 . S
C298 H301 0.929 . S
C299 C298 1.363 . S
C299 C305 1.428 . S
H300 C296 0.930 . S
H301 C298 0.929 . S
S302 N303 1.613 . S
S302 N304 1.610 . S
N303 S302 1.613 . S
N303 C306 1.350 . S
N304 S302 1.610 . S
N304 C305 1.351 . S
C305 C299 1.428 . S
C305 N304 1.351 . S
C305 C306 1.434 . S
C306 C297 1.429 . S
C306 N303 1.350 . S
C306 C305 1.434 . S
C307 C308 1.369 . S
C307 C309 1.419 . S
C307 H311 0.930 . S
C308 C307 1.369 . S
C308 C317 1.429 . S
C309 C307 1.419 . S
C309 C310 1.363 . S
C309 H312 0.929 . S
C310 C309 1.363 . S
C310 C316 1.428 . S
H311 C307 0.930 . S
H312 C309 0.929 . S
S313 N314 1.613 . S
S313 N315 1.610 . S
N314 S313 1.613 . S
N314 C317 1.350 . S
N315 S313 1.610 . S
N315 C316 1.351 . S
C316 C310 1.428 . S
C316 N315 1.351 . S
C316 C317 1.434 . S
C317 C308 1.429 . S
C317 N314 1.350 . S
C317 C316 1.434 . S
C318 C319 1.369 . S
C318 C320 1.419 . S
C318 H322 0.930 . S
C319 C318 1.369 . S
C319 C328 1.429 . S
C320 C318 1.419 . S
C320 C321 1.363 . S
C320 H323 0.929 . S
C321 C320 1.363 . S
C321 C327 1.428 . S
H322 C318 0.930 . S
H323 C320 0.929 . S
S324 N325 1.613 . S
S324 N326 1.610 . S
N325 S324 1.613 . S
N325 C328 1.350 . S
N326 S324 1.610 . S
N326 C327 1.351 . S
C327 C321 1.428 . S
C327 N326 1.351 . S
C327 C328 1.434 . S
C328 C319 1.429 . S
C328 N325 1.350 . S
C328 C327 1.434 . S
C329 C330 1.369 . S
C329 C331 1.419 . S
C329 H333 0.930 . S
C330 C329 1.369 . S
C330 C339 1.429 . S
C331 C329 1.419 . S
C331 C332 1.363 . S
C331 H334 0.929 . S
C332 C331 1.363 . S
C332 C338 1.428 . S
H333 C329 0.930 . S
H334 C331 0.929 . S
S335 N336 1.613 1_556 S
S335 N337 1.610 1_556 S
N336 S335 1.613 1_554 S
N336 C339 1.350 . S
N337 S335 1.610 1_554 S
N337 C338 1.351 . S
C338 C332 1.428 . S
C338 N337 1.351 . S
C338 C339 1.434 . S
C339 C330 1.429 . S
C339 N336 1.350 . S
C339 C338 1.434 . S
C340 C341 1.369 . S
C340 C342 1.419 1_565 S
C340 H344 0.930 . S
C341 C340 1.369 . S
C341 C350 1.429 . S
C342 C340 1.419 1_545 S
C342 C343 1.363 . S
C342 H345 0.929 . S
C343 C342 1.363 . S
C343 C349 1.428 . S
H344 C340 0.930 . S
H345 C342 0.929 . S
S346 N347 1.598 1_545 S
S346 N348 1.627 . S
N347 S346 1.598 1_565 S
N347 C350 1.350 . S
N348 S346 1.627 . S
N348 C349 1.351 . S
C349 C343 1.428 . S
C349 N348 1.351 . S
C349 C350 1.434 1_545 S
C350 C341 1.429 . S
C350 N347 1.350 . S
C350 C349 1.434 1_565 S
C351 C352 1.369 . S
C351 C353 1.419 1_655 S
C351 H355 0.930 . S
C352 C351 1.369 . S
C352 C361 1.429 . S
C353 C351 1.419 1_455 S
C353 C354 1.363 . S
C353 H356 0.929 . S
C354 C353 1.363 . S
C354 C360 1.428 . S
H355 C351 0.930 . S
H356 C353 0.929 . S
S357 N358 1.613 . S
S357 N359 1.610 1_655 S
N358 S357 1.613 . S
N358 C361 1.350 . S
N359 S357 1.610 1_455 S
N359 C360 1.351 . S
C360 C354 1.428 . S
C360 N359 1.351 . S
C360 C361 1.434 1_455 S
C361 C352 1.429 . S
C361 N358 1.350 . S
C361 C360 1.434 1_655 S
C362 C363 1.369 . S
C362 C364 1.419 1_565 S
C362 H366 0.930 . S
C363 C362 1.369 . S
C363 C372 1.429 . S
C364 C362 1.419 1_545 S
C364 C365 1.363 . S
C364 H367 0.929 . S
C365 C364 1.363 . S
C365 C371 1.428 . S
H366 C362 0.930 . S
H367 C364 0.929 . S
S368 N369 1.613 . S
S368 N370 1.610 1_565 S
N369 S368 1.613 . S
N369 C372 1.350 . S
N370 S368 1.610 1_545 S
N370 C371 1.351 . S
C371 C365 1.428 . S
C371 N370 1.351 . S
C371 C372 1.434 1_545 S
C372 C363 1.429 . S
C372 N369 1.350 . S
C372 C371 1.434 1_565 S
C373 C374 1.369 . S
C373 C375 1.419 1_655 S
C373 H377 0.930 . S
C374 C373 1.369 . S
C374 C383 1.429 . S
C375 C373 1.419 1_455 S
C375 C376 1.363 . S
C375 H378 0.929 . S
C376 C375 1.363 . S
C376 C382 1.416 1_455 S
H377 C373 0.930 . S
H378 C375 0.929 . S
S379 N380 1.613 . S
S379 N381 1.610 1_655 S
N380 S379 1.613 . S
N380 C383 1.350 . S
N381 S379 1.610 1_455 S
N381 C382 1.350 1_455 S
C382 C376 1.416 1_655 S
C382 N381 1.350 1_655 S
C382 C383 1.449 . S
C383 C374 1.429 . S
C383 N380 1.350 . S
C383 C382 1.449 . S
C384 C385 1.369 . S
C384 C386 1.419 . S
C384 H388 0.930 . S
C385 C384 1.369 . S
C385 C394 1.429 . S
C386 C384 1.419 . S
C386 C387 1.363 . S
C386 H389 0.929 . S
C387 C386 1.363 . S
C387 C393 1.428 . S
H388 C384 0.930 . S
H389 C386 0.929 . S
S390 N391 1.613 . S
S390 N392 1.610 . S
N391 S390 1.613 . S
N391 C394 1.350 . S
N392 S390 1.610 . S
N392 C393 1.351 . S
C393 C387 1.428 . S
C393 N392 1.351 . S
C393 C394 1.434 . S
C394 C385 1.429 . S
C394 N391 1.350 . S
C394 C393 1.434 . S
C395 C396 1.369 . S
C395 C397 1.419 . S
C395 H399 0.930 . S
C396 C395 1.369 . S
C396 C405 1.429 . S
C397 C395 1.419 . S
C397 C398 1.363 . S
C397 H400 0.929 1_556 S
C398 C397 1.363 . S
C398 C404 1.428 . S
H399 C395 0.930 . S
H400 C397 0.929 1_554 S
S401 N402 1.613 . S
S401 N403 1.610 . S
N402 S401 1.613 . S
N402 C405 1.350 . S
N403 S401 1.610 . S
N403 C404 1.351 . S
C404 C398 1.428 . S
C404 N403 1.351 . S
C404 C405 1.434 . S
C405 C396 1.429 . S
C405 N402 1.350 . S
C405 C404 1.434 . S
C406 C407 1.369 . S
C406 C408 1.419 . S
C406 H410 0.930 . S
C407 C406 1.369 . S
C407 C416 1.429 . S
C408 C406 1.419 . S
C408 C409 1.363 . S
C408 H411 0.929 . S
C409 C408 1.363 . S
C409 C415 1.428 . S
H410 C406 0.930 . S
H411 C408 0.929 . S
S412 N413 1.613 . S
S412 N414 1.610 . S
N413 S412 1.613 . S
N413 C416 1.350 . S
N414 S412 1.610 . S
N414 C415 1.351 . S
C415 C409 1.428 . S
C415 N414 1.351 . S
C415 C416 1.434 . S
C416 C407 1.429 . S
C416 N413 1.350 . S
C416 C415 1.434 . S
C417 C418 1.369 . S
C417 C419 1.419 . S
C417 H421 0.930 . S
C418 C417 1.369 . S
C418 C427 1.429 . S
C419 C417 1.419 . S
C419 C420 1.363 . S
C419 H422 0.929 . S
C420 C419 1.363 . S
C420 C426 1.428 . S
H421 C417 0.930 . S
H422 C419 0.929 . S
S423 N424 1.613 . S
S423 N425 1.610 . S
N424 S423 1.613 . S
N424 C427 1.350 . S
N425 S423 1.610 . S
N425 C426 1.351 . S
C426 C420 1.428 . S
C426 N425 1.351 . S
C426 C427 1.434 . S
C427 C418 1.429 . S
C427 N424 1.350 . S
C427 C426 1.434 . S
C428 C429 1.369 . S
C428 C430 1.419 . S
C428 H432 0.930 . S
C429 C428 1.369 . S
C429 C438 1.429 . S
C430 C428 1.419 . S
C430 C431 1.363 . S
C430 H433 0.929 . S
C431 C430 1.363 . S
C431 C437 1.428 . S
H432 C428 0.930 . S
H433 C430 0.929 . S
S434 N435 1.613 . S
S434 N436 1.610 . S
N435 S434 1.613 . S
N435 C438 1.350 . S
N436 S434 1.610 . S
N436 C437 1.351 . S
C437 C431 1.428 . S
C437 N436 1.351 . S
C437 C438 1.434 . S
C438 C429 1.429 . S
C438 N435 1.350 . S
C438 C437 1.434 . S
C439 C440 1.369 . S
C439 C441 1.419 . S
C439 H443 0.930 . S
C440 C439 1.369 . S
C440 C449 1.429 . S
C441 C439 1.419 . S
C441 C442 1.363 . S
C441 H444 0.929 . S
C442 C441 1.363 . S
C442 C448 1.428 . S
H443 C439 0.930 . S
H444 C441 0.929 . S
S445 N446 1.613 . S
S445 N447 1.610 . S
N446 S445 1.613 . S
N446 C449 1.350 . S
N447 S445 1.610 . S
N447 C448 1.351 . S
C448 C442 1.428 . S
C448 N447 1.351 . S
C448 C449 1.434 . S
C449 C440 1.429 . S
C449 N446 1.350 . S
C449 C448 1.434 . S
C450 C451 1.369 . S
C450 C452 1.419 . S
C450 H454 0.930 . S
C451 C450 1.369 . S
C451 C460 1.429 . S
C452 C450 1.419 . S
C452 C453 1.363 . S
C452 H455 0.929 . S
C453 C452 1.363 . S
C453 C459 1.428 . S
H454 C450 0.930 . S
H455 C452 0.929 . S
S456 N457 1.613 . S
S456 N458 1.610 . S
N457 S456 1.613 . S
N457 C460 1.350 . S
N458 S456 1.610 . S
N458 C459 1.351 . S
C459 C453 1.428 . S
C459 N458 1.351 . S
C459 C460 1.434 . S
C460 C451 1.429 . S
C460 N457 1.350 . S
C460 C459 1.434 . S
C461 C462 1.369 . S
C461 C463 1.419 . S
C461 H465 0.930 . S
C462 C461 1.369 . S
C462 C471 1.429 . S
C463 C461 1.419 . S
C463 C464 1.363 . S
C463 H466 0.929 . S
C464 C463 1.363 . S
C464 C470 1.428 . S
H465 C461 0.930 . S
H466 C463 0.929 . S
S467 N468 1.613 . S
S467 N469 1.610 . S
N468 S467 1.613 . S
N468 C471 1.350 . S
N469 S467 1.610 . S
N469 C470 1.351 . S
C470 C464 1.428 . S
C470 N469 1.351 . S
C470 C471 1.434 . S
C471 C462 1.429 . S
C471 N468 1.350 . S
C471 C470 1.434 . S
C472 C473 1.369 . S
C472 C474 1.419 . S
C472 H476 0.930 . S
C473 C472 1.369 . S
C473 C482 1.429 . S
C474 C472 1.419 . S
C474 C475 1.363 . S
C474 H477 0.929 1_556 S
C475 C474 1.363 . S
C475 C481 1.428 . S
H476 C472 0.930 . S
H477 C474 0.929 1_554 S
S478 N479 1.613 . S
S478 N480 1.610 . S
N479 S478 1.613 . S
N479 C482 1.350 . S
N480 S478 1.610 . S
N480 C481 1.351 . S
C481 C475 1.428 . S
C481 N480 1.351 . S
C481 C482 1.434 . S
C482 C473 1.429 . S
C482 N479 1.350 . S
C482 C481 1.434 . S
C483 C484 1.369 . S
C483 C485 1.419 . S
C483 H487 0.930 . S
C484 C483 1.369 . S
C484 C493 1.429 . S
C485 C483 1.419 . S
C485 C486 1.363 . S
C485 H488 0.929 . S
C486 C485 1.363 . S
C486 C492 1.428 . S
H487 C483 0.930 . S
H488 C485 0.929 . S
S489 N490 1.613 . S
S489 N491 1.610 . S
N490 S489 1.613 . S
N490 C493 1.350 . S
N491 S489 1.610 . S
N491 C492 1.351 . S
C492 C486 1.428 . S
C492 N491 1.351 . S
C492 C493 1.434 . S
C493 C484 1.429 . S
C493 N490 1.350 . S
C493 C492 1.434 . S
C494 C495 1.369 . S
C494 C496 1.419 . S
C494 H498 0.930 1_556 S
C495 C494 1.369 . S
C495 C504 1.429 . S
C496 C494 1.419 . S
C496 C497 1.363 . S
C496 H499 0.929 . S
C497 C496 1.363 . S
C497 C503 1.428 . S
H498 C494 0.930 1_554 S
H499 C496 0.929 . S
S500 N501 1.613 . S
S500 N502 1.610 . S
N501 S500 1.613 . S
N501 C504 1.350 . S
N502 S500 1.610 . S
N502 C503 1.351 . S
C503 C497 1.428 . S
C503 N502 1.351 . S
C503 C504 1.434 . S
C504 C495 1.429 . S
C504 N501 1.350 . S
C504 C503 1.434 . S
C505 C506 1.369 . S
C505 C507 1.419 . S
C505 H509 0.930 . S
C506 C505 1.369 . S
C506 C515 1.429 . S
C507 C505 1.419 . S
C507 C508 1.363 . S
C507 H510 0.929 1_554 S
C508 C507 1.363 . S
C508 C514 1.428 . S
H509 C505 0.930 . S
H510 C507 0.929 1_556 S
S511 N512 1.613 . S
S511 N513 1.610 . S
N512 S511 1.613 . S
N512 C515 1.350 . S
N513 S511 1.610 . S
N513 C514 1.351 . S
C514 C508 1.428 . S
C514 N513 1.351 . S
C514 C515 1.434 . S
C515 C506 1.429 . S
C515 N512 1.350 . S
C515 C514 1.434 . S
C516 C517 1.369 . S
C516 C518 1.419 . S
C516 H520 0.930 . S
C517 C516 1.369 . S
C517 C526 1.429 . S
C518 C516 1.419 . S
C518 C519 1.363 . S
C518 H521 0.929 . S
C519 C518 1.363 . S
C519 C525 1.428 . S
H520 C516 0.930 . S
H521 C518 0.929 . S
S522 N523 1.613 . S
S522 N524 1.610 . S
N523 S522 1.613 . S
N523 C526 1.350 . S
N524 S522 1.610 . S
N524 C525 1.351 . S
C525 C519 1.428 . S
C525 N524 1.351 . S
C525 C526 1.434 . S
C526 C517 1.429 . S
C526 N523 1.350 . S
C526 C525 1.434 . S
C527 C528 1.369 . S
C527 C529 1.419 . S
C527 H531 0.930 . S
C528 C527 1.369 . S
C528 C537 1.429 . S
C529 C527 1.419 . S
C529 C530 1.363 . S
C529 H532 0.929 . S
C530 C529 1.363 . S
C530 C536 1.428 . S
H531 C527 0.930 . S
H532 C529 0.929 . S
S533 N534 1.613 . S
S533 N535 1.610 . S
N534 S533 1.613 . S
N534 C537 1.350 . S
N535 S533 1.610 . S
N535 C536 1.351 . S
C536 C530 1.428 . S
C536 N535 1.351 . S
C536 C537 1.434 . S
C537 C528 1.429 . S
C537 N534 1.350 . S
C537 C536 1.434 . S
C538 C539 1.369 . S
C538 C540 1.419 . S
C538 H542 0.930 . S
C539 C538 1.369 . S
C539 C548 1.429 . S
C540 C538 1.419 . S
C540 C541 1.363 . S
C540 H543 0.929 . S
C541 C540 1.363 . S
C541 C547 1.428 . S
H542 C538 0.930 . S
H543 C540 0.929 . S
S544 N545 1.613 . S
S544 N546 1.610 . S
N545 S544 1.613 . S
N545 C548 1.350 . S
N546 S544 1.610 . S
N546 C547 1.351 . S
C547 C541 1.428 . S
C547 N546 1.351 . S
C547 C548 1.434 . S
C548 C539 1.429 . S
C548 N545 1.350 . S
C548 C547 1.434 . S
C549 C550 1.369 . S
C549 C551 1.419 . S
C549 H553 0.930 . S
C550 C549 1.369 . S
C550 C559 1.429 . S
C551 C549 1.419 . S
C551 C552 1.363 . S
C551 H554 0.929 . S
C552 C551 1.363 . S
C552 C558 1.428 . S
H553 C549 0.930 . S
H554 C551 0.929 . S
S555 N556 1.613 . S
S555 N557 1.610 . S
N556 S555 1.613 . S
N556 C559 1.350 . S
N557 S555 1.610 . S
N557 C558 1.351 . S
C558 C552 1.428 . S
C558 N557 1.351 . S
C558 C559 1.434 . S
C559 C550 1.429 . S
C559 N556 1.350 . S
C559 C558 1.434 . S
C209 C148 1.479 . S
C211 C5 1.442 . S
C220 C18 1.443 . S
C222 C107 1.481 . S
C231 C29 1.442 . S
C233 C122 1.481 . S
C242 C135 1.482 . S
C244 C42 1.442 . S
C253 C55 1.442 1_556 S
C255 C70 1.481 . S
C264 C68 1.446 1_554 S
C266 C83 1.481 . S
C275 C96 1.479 . S
C277 C81 1.442 1_556 S
C286 C57 1.476 . S
C288 C94 1.446 1_554 S
C297 C44 1.477 . S
C299 C109 1.444 . S
C308 C120 1.447 . S
C310 C3 1.476 . S
C319 C16 1.478 . S
C321 C133 1.443 . S
C330 C146 1.450 . S
C332 C31 1.479 . S
C341 C161 1.441 . S
C343 C172 1.479 . S
C352 C174 1.450 . S
C354 C185 1.478 . S
C363 C200 1.476 . S
C365 C187 1.448 . S
C374 C159 1.476 . S
C376 C198 1.448 . S
C385 C62 1.340 . S
C387 C4 1.334 . S
C396 C17 1.344 . S
C398 C75 1.333 . S
C407 C36 1.341 . S
C409 C88 1.334 . S
C418 C101 1.332 . S
C420 C49 1.341 . S
C429 C108 1.341 . S
C431 C160 1.339 . S
C440 C173 1.343 . S
C442 C127 1.333 . S
C451 C140 1.344 . S
C453 C186 1.333 . S
C462 C205 1.334 . S
C464 C153 1.337 . S
C473 C192 1.567 . S
C475 C10 1.569 1_556 S
C484 C199 1.569 . S
C486 C23 1.566 1_554 S
C495 C30 1.570 1_556 S
C497 C166 1.566 . S
C506 C179 1.565 . S
C508 C43 1.569 1_554 S
C517 C134 1.568 . S
C519 C56 1.566 . S
C528 C147 1.570 . S
C530 C69 1.565 . S
C539 C82 1.568 . S
C541 C114 1.566 . S
C550 C121 1.568 . S
C552 C95 1.566 . S
