# Generated by pormake.
# Topology wme, (6)-cn, num edge types: 1
# Building blocks:
#     Node 0, Type 0, BuildingBlock: PAMTOO_clean_sbu_0, # of connection points: 6
#     Node 1, Type 0, BuildingBlock: PAMTOO_clean_sbu_0, # of connection points: 6
#     Node 2, Type 0, BuildingBlock: PAMTOO_clean_sbu_0, # of connection points: 6
#     Node 3, Type 0, BuildingBlock: PAMTOO_clean_sbu_0, # of connection points: 6
#     Node 4, Type 0, BuildingBlock: PAMTOO_clean_sbu_0, # of connection points: 6
#     Node 5, Type 0, BuildingBlock: PAMTOO_clean_sbu_0, # of connection points: 6
#     Node 6, Type 0, BuildingBlock: PAMTOO_clean_sbu_0, # of connection points: 6
#     Node 7, Type 0, BuildingBlock: PAMTOO_clean_sbu_0, # of connection points: 6
#     Node 8, Type 0, BuildingBlock: PAMTOO_clean_sbu_0, # of connection points: 6
#     Node 9, Type 0, BuildingBlock: PAMTOO_clean_sbu_0, # of connection points: 6
#     Node 10, Type 0, BuildingBlock: PAMTOO_clean_sbu_0, # of connection points: 6
#     Node 11, Type 0, BuildingBlock: PAMTOO_clean_sbu_0, # of connection points: 6
#     Edge 12, Type (0, 0), BuildingBlock: MIFKUJ_clean_linker_0, # of connection points: 2
#     Edge 13, Type (0, 0), BuildingBlock: MIFKUJ_clean_linker_0, # of connection points: 2
#     Edge 14, Type (0, 0), BuildingBlock: MIFKUJ_clean_linker_0, # of connection points: 2
#     Edge 15, Type (0, 0), BuildingBlock: MIFKUJ_clean_linker_0, # of connection points: 2
#     Edge 16, Type (0, 0), BuildingBlock: MIFKUJ_clean_linker_0, # of connection points: 2
#     Edge 17, Type (0, 0), BuildingBlock: MIFKUJ_clean_linker_0, # of connection points: 2
#     Edge 18, Type (0, 0), BuildingBlock: MIFKUJ_clean_linker_0, # of connection points: 2
#     Edge 19, Type (0, 0), BuildingBlock: MIFKUJ_clean_linker_0, # of connection points: 2
#     Edge 20, Type (0, 0), BuildingBlock: MIFKUJ_clean_linker_0, # of connection points: 2
#     Edge 21, Type (0, 0), BuildingBlock: MIFKUJ_clean_linker_0, # of connection points: 2
#     Edge 22, Type (0, 0), BuildingBlock: MIFKUJ_clean_linker_0, # of connection points: 2
#     Edge 23, Type (0, 0), BuildingBlock: MIFKUJ_clean_linker_0, # of connection points: 2
#     Edge 24, Type (0, 0), BuildingBlock: MIFKUJ_clean_linker_0, # of connection points: 2
#     Edge 25, Type (0, 0), BuildingBlock: MIFKUJ_clean_linker_0, # of connection points: 2
#     Edge 26, Type (0, 0), BuildingBlock: MIFKUJ_clean_linker_0, # of connection points: 2
#     Edge 27, Type (0, 0), BuildingBlock: MIFKUJ_clean_linker_0, # of connection points: 2
#     Edge 28, Type (0, 0), BuildingBlock: MIFKUJ_clean_linker_0, # of connection points: 2
#     Edge 29, Type (0, 0), BuildingBlock: MIFKUJ_clean_linker_0, # of connection points: 2
#     Edge 30, Type (0, 0), BuildingBlock: MIFKUJ_clean_linker_0, # of connection points: 2
#     Edge 31, Type (0, 0), BuildingBlock: MIFKUJ_clean_linker_0, # of connection points: 2
#     Edge 32, Type (0, 0), BuildingBlock: MIFKUJ_clean_linker_0, # of connection points: 2
#     Edge 33, Type (0, 0), BuildingBlock: MIFKUJ_clean_linker_0, # of connection points: 2
#     Edge 34, Type (0, 0), BuildingBlock: MIFKUJ_clean_linker_0, # of connection points: 2
#     Edge 35, Type (0, 0), BuildingBlock: MIFKUJ_clean_linker_0, # of connection points: 2
#     Edge 36, Type (0, 0), BuildingBlock: MIFKUJ_clean_linker_0, # of connection points: 2
#     Edge 37, Type (0, 0), BuildingBlock: MIFKUJ_clean_linker_0, # of connection points: 2
#     Edge 38, Type (0, 0), BuildingBlock: MIFKUJ_clean_linker_0, # of connection points: 2
#     Edge 39, Type (0, 0), BuildingBlock: MIFKUJ_clean_linker_0, # of connection points: 2
#     Edge 40, Type (0, 0), BuildingBlock: MIFKUJ_clean_linker_0, # of connection points: 2
#     Edge 41, Type (0, 0), BuildingBlock: MIFKUJ_clean_linker_0, # of connection points: 2
#     Edge 42, Type (0, 0), BuildingBlock: MIFKUJ_clean_linker_0, # of connection points: 2
#     Edge 43, Type (0, 0), BuildingBlock: MIFKUJ_clean_linker_0, # of connection points: 2
#     Edge 44, Type (0, 0), BuildingBlock: MIFKUJ_clean_linker_0, # of connection points: 2
#     Edge 45, Type (0, 0), BuildingBlock: MIFKUJ_clean_linker_0, # of connection points: 2
#     Edge 46, Type (0, 0), BuildingBlock: MIFKUJ_clean_linker_0, # of connection points: 2
#     Edge 47, Type (0, 0), BuildingBlock: MIFKUJ_clean_linker_0, # of connection points: 2
# Relax obj value: 0.083
# Max RMSD: 0.189
# Mean RMSD: 0.189
data_MOF--net-wme--node1-PAMTOO_clean_sbu_0--edge1-MIFKUJ_clean_linker_0
_symmetry_space_group_name_H-M    P1
_symmetry_Int_Tables_number       1
_symmetry_cell_setting            triclinic
loop_
_symmetry_equiv_pos_as_xyz
'x, y, z'
_cell_length_a     49.275743
_cell_length_b     49.2348
_cell_length_c     70.22716
_cell_angle_alpha  89.991891
_cell_angle_beta   89.818949
_cell_angle_gamma 119.99639
loop_
_atom_site_label
_atom_site_type_symbol
_atom_site_fract_x
_atom_site_fract_y
_atom_site_fract_z
_atom_type_partial_charge
Dy0 Dy 0.23496 0.32071 0.12175 0.0
Dy1 Dy 0.20037 0.36041 0.10812 0.0
C2 C 0.23012 0.33389 0.07929 0.0
O3 O 0.2714 0.37103 0.12738 0.0
O4 O 0.25149 0.39542 0.10854 0.0
O5 O 0.25797 0.29566 0.11231 0.0
O6 O 0.2508 0.29888 0.14243 0.0
O7 O 0.21156 0.37089 0.13917 0.0
O8 O 0.21018 0.32505 0.14715 0.0
O9 O 0.16199 0.3131 0.11648 0.0
O10 O 0.1866 0.28446 0.11228 0.0
O11 O 0.16293 0.37075 0.11111 0.0
O12 O 0.19701 0.39262 0.0884 0.0
C13 C 0.27424 0.39619 0.11875 0.0
O14 O 0.25053 0.34081 0.09286 0.0
O15 O 0.20372 0.33329 0.0831 0.0
C16 C 0.24878 0.25242 0.13114 0.0
C17 C 0.23051 0.188 0.13163 0.0
C18 C 0.21012 0.19795 0.12464 0.0
C19 C 0.21915 0.22983 0.12443 0.0
C20 C 0.26892 0.24266 0.13845 0.0
C21 C 0.25989 0.2108 0.13876 0.0
C22 C 0.25975 0.2862 0.12934 0.0
C23 C 0.2094 0.35041 0.15202 0.0
C24 C 0.16091 0.28616 0.11416 0.0
C25 C 0.17238 0.42038 0.10029 0.0
C26 C 0.16561 0.4736 0.10641 0.0
C27 C 0.17692 0.4622 0.12097 0.0
C28 C 0.18031 0.43586 0.11794 0.0
C29 C 0.16171 0.43202 0.08567 0.0
C30 C 0.15836 0.45829 0.08866 0.0
C31 C 0.17276 0.39089 0.09712 0.0
H32 H 0.1875 0.18124 0.11882 0.0
H33 H 0.20336 0.23694 0.11856 0.0
H34 H 0.29191 0.25974 0.14366 0.0
H35 H 0.27601 0.20408 0.14457 0.0
H36 H 0.18311 0.4736 0.13473 0.0
H37 H 0.18861 0.42729 0.12945 0.0
H38 H 0.15522 0.42029 0.072 0.0
H39 H 0.14917 0.46601 0.07719 0.0
Dy40 Dy 0.91659 0.2268 0.62174 0.0
Dy41 Dy 0.84389 0.19327 0.60588 0.0
C42 C 0.90236 0.22502 0.57859 0.0
O43 O 0.90109 0.26145 0.62904 0.0
O44 O 0.86057 0.24443 0.60755 0.0
O45 O 0.96567 0.25339 0.61453 0.0
O46 O 0.95173 0.23835 0.64358 0.0
O47 O 0.84199 0.20071 0.63731 0.0
O48 O 0.88526 0.1975 0.64533 0.0
O49 O 0.85272 0.15415 0.61231 0.0
O50 O 0.90634 0.18017 0.6101 0.0
O51 O 0.79618 0.15517 0.6068 0.0
O52 O 0.80953 0.19287 0.58643 0.0
C53 C 0.88032 0.26552 0.61955 0.0
O54 O 0.91509 0.24428 0.59285 0.0
O55 O 0.87575 0.19881 0.58122 0.0
C56 C 0.99663 0.23824 0.63172 0.0
C57 C 0.03986 0.21645 0.63043 0.0
C58 C 1.01029 0.19923 0.62181 0.0
C59 C 0.98895 0.21008 0.62242 0.0
C60 C 0.02581 0.25526 0.64061 0.0
C61 C 0.04725 0.24447 0.63999 0.0
C62 C 0.97485 0.25053 0.6314 0.0
C63 C 0.8588 0.19609 0.65003 0.0
C64 C 0.87915 0.15402 0.61054 0.0
C65 C 0.75754 0.16827 0.59866 0.0
C66 C 0.69978 0.16504 0.60693 0.0
C67 C 0.7207 0.16882 0.62165 0.0
C68 C 0.74938 0.17056 0.61755 0.0
C69 C 0.73697 0.16502 0.58395 0.0
C70 C 0.70843 0.16351 0.58802 0.0
C71 C 0.78651 0.16766 0.59407 0.0
H72 H 1.00395 0.17783 0.6141 0.0
H73 H 0.9667 0.19685 0.61525 0.0
H74 H 0.03216 0.27706 0.64784 0.0
H75 H 0.06962 0.25809 0.64701 0.0
H76 H 0.71493 0.1705 0.63633 0.0
H77 H 0.76496 0.17328 0.62916 0.0
H78 H 0.74276 0.16311 0.56929 0.0
H79 H 0.69276 0.16034 0.57637 0.0
Dy80 Dy 0.70234 0.92333 0.12432 0.0
Dy81 Dy 0.66286 0.84935 0.11046 0.0
C82 C 0.69345 0.90579 0.08144 0.0
O83 O 0.65256 0.91217 0.1278 0.0
O84 O 0.6284 0.8664 0.1102 0.0
O85 O 0.72401 0.97261 0.11698 0.0
O86 O 0.73101 0.95868 0.14489 0.0
O87 O 0.64833 0.84662 0.14095 0.0
O88 O 0.68681 0.89552 0.15121 0.0
O89 O 0.70691 0.85683 0.12387 0.0
O90 O 0.7371 0.90843 0.11613 0.0
O91 O 0.65505 0.80215 0.11087 0.0
O92 O 0.62932 0.81441 0.09107 0.0
C93 C 0.62771 0.8895 0.11927 0.0
O94 O 0.6875 0.9212 0.09431 0.0
O95 O 0.69278 0.8796 0.08606 0.0
C96 C 0.77418 1.00302 0.13061 0.0
C97 C 0.83934 0.04406 0.12524 0.0
C98 C 0.81738 0.05295 0.11974 0.0
C99 C 0.78525 0.03278 0.12256 0.0
C100 C 0.79588 0.99383 0.13599 0.0
C101 C 0.82807 0.01419 0.13348 0.0
C102 C 0.74003 0.98163 0.13272 0.0
C103 C 0.66338 0.86708 0.15455 0.0
C104 C 0.73448 0.88154 0.12109 0.0
C105 C 0.60378 0.76179 0.1025 0.0
C106 C 0.55037 0.70219 0.10926 0.0
C107 C 0.56997 0.71981 0.12437 0.0
C108 C 0.59634 0.74935 0.12105 0.0
C109 C 0.58407 0.74441 0.08745 0.0
C110 C 0.55762 0.71501 0.09078 0.0
C111 C 0.63267 0.79187 0.09831 0.0
H112 H 0.82485 0.07531 0.11291 0.0
H113 H 0.76896 0.04024 0.11809 0.0
H114 H 0.78803 0.9709 0.14215 0.0
H115 H 0.84405 1.00654 0.13822 0.0
H116 H 0.56485 0.71083 0.1388 0.0
H117 H 0.61104 0.76225 0.13298 0.0
H118 H 0.58941 0.75339 0.07302 0.0
H119 H 0.54326 0.70197 0.07878 0.0
Dy120 Dy 0.79372 0.70049 0.62328 0.0
Dy121 Dy 0.82707 0.65957 0.61 0.0
C122 C 0.79517 0.68375 0.58131 0.0
O123 O 0.75697 0.65125 0.63081 0.0
O124 O 0.7765 0.62431 0.61389 0.0
O125 O 0.77112 0.72562 0.61343 0.0
O126 O 0.77989 0.72468 0.64352 0.0
O127 O 0.81935 0.65219 0.64156 0.0
O128 O 0.81938 0.69776 0.64853 0.0
O129 O 0.86647 0.70686 0.61694 0.0
O130 O 0.84191 0.73554 0.61274 0.0
O131 O 0.86456 0.64912 0.61158 0.0
O132 O 0.82747 0.62515 0.59088 0.0
C133 C 0.75431 0.62505 0.62398 0.0
O134 O 0.77567 0.67765 0.59538 0.0
O135 O 0.8219 0.68488 0.58465 0.0
C136 C 0.78563 0.77164 0.63056 0.0
C137 C 0.81041 0.83712 0.6286 0.0
C138 C 0.827 0.82339 0.62078 0.0
C139 C 0.81469 0.79096 0.62173 0.0
C140 C 0.76938 0.78524 0.63883 0.0
C141 C 0.78166 0.81771 0.63788 0.0
C142 C 0.77149 0.73731 0.63013 0.0
C143 C 0.82149 0.67333 0.65388 0.0
C144 C 0.86753 0.73375 0.61451 0.0
C145 C 0.85093 0.59703 0.60355 0.0
C146 C 0.85259 0.54162 0.61171 0.0
C147 C 0.85156 0.5603 0.62654 0.0
C148 C 0.85059 0.58767 0.62251 0.0
C149 C 0.8515 0.57821 0.58875 0.0
C150 C 0.85223 0.55075 0.59276 0.0
C151 C 0.85219 0.62691 0.59887 0.0
H152 H 0.84894 0.83752 0.6133 0.0
H153 H 0.82742 0.78088 0.61506 0.0
H154 H 0.74693 0.7707 0.64571 0.0
H155 H 0.7685 0.82759 0.64428 0.0
H156 H 0.85143 0.55371 0.64127 0.0
H157 H 0.84996 0.60168 0.63421 0.0
H158 H 0.8519 0.58504 0.57404 0.0
H159 H 0.85333 0.53709 0.58101 0.0
Dy160 Dy 0.10237 0.79053 0.13461 0.0
Dy161 Dy 0.17158 0.81353 0.11312 0.0
C162 C 0.10915 0.79633 0.08904 0.0
O163 O 0.11058 0.74954 0.136 0.0
O164 O 0.13947 0.76233 0.10864 0.0
O165 O 0.052 0.75995 0.13652 0.0
O166 O 0.076 0.79895 0.156 0.0
O167 O 0.1805 0.80775 0.1438 0.0
O168 O 0.13477 0.79932 0.15861 0.0
O169 O 0.17503 0.85662 0.12588 0.0
O170 O 0.1227 0.84068 0.12559 0.0
O171 O 0.21319 0.84667 0.09741 0.0
O172 O 0.20504 0.80019 0.10403 0.0
C173 C 0.12352 0.74203 0.12209 0.0
O174 O 0.09176 0.78171 0.10389 0.0
O175 O 0.13999 0.81333 0.08986 0.0
C176 C 0.02572 0.78719 0.14564 0.0
C177 C 0.981 0.80646 0.13965 0.0
C178 C 1.01297 0.82688 0.13567 0.0
C179 C 0.03504 0.81729 0.13854 0.0
C180 C 0.9939 0.76658 0.14936 0.0
C181 C 0.97176 0.77603 0.14634 0.0
C182 C 0.04899 0.7773 0.14947 0.0
C183 C 0.16329 0.80366 0.15908 0.0
C184 C 0.15218 0.86301 0.12642 0.0
C185 C 0.25774 0.83994 0.10033 0.0
C186 C 0.32073 0.85626 0.10679 0.0
C187 C 0.30108 0.85372 0.12213 0.0
C188 C 0.26974 0.84544 0.11893 0.0
C189 C 0.2776 0.84365 0.08502 0.0
C190 C 0.30872 0.85171 0.08819 0.0
C191 C 0.22414 0.82743 0.09652 0.0
H192 H 0.02114 0.85055 0.1307 0.0
H193 H 0.05947 0.83358 0.13544 0.0
H194 H 0.98618 0.74316 0.15469 0.0
H195 H 0.94734 0.75937 0.14919 0.0
H196 H 0.30958 0.85694 0.13662 0.0
H197 H 0.25467 0.84245 0.13096 0.0
H198 H 0.26876 0.83943 0.07057 0.0
H199 H 0.32332 0.85398 0.07604 0.0
Dy200 Dy 0.32219 0.1055 0.62317 0.0
Dy201 Dy 0.36249 0.1785 0.60773 0.0
C202 C 0.33476 0.12062 0.58023 0.0
O203 O 0.37224 0.11926 0.62959 0.0
O204 O 0.39653 0.16129 0.60893 0.0
O205 O 0.29852 0.05672 0.61521 0.0
O206 O 0.29763 0.06942 0.64455 0.0
O207 O 0.3731 0.17977 0.63894 0.0
O208 O 0.32673 0.1364 0.64753 0.0
O209 O 0.31589 0.17105 0.61636 0.0
O210 O 0.28659 0.11784 0.61271 0.0
O211 O 0.37198 0.22625 0.60859 0.0
O212 O 0.39642 0.21303 0.58826 0.0
C213 C 0.3973 0.14034 0.62022 0.0
O214 O 0.34141 0.10767 0.59429 0.0
O215 O 0.33512 0.14714 0.58319 0.0
C216 C 0.25214 0.02553 0.63223 0.0
C217 C 0.18709 0.98295 0.62971 0.0
C218 C 0.19971 0.01417 0.62357 0.0
C219 C 0.23194 0.0352 0.62475 0.0
C220 C 0.23965 0.99467 0.63875 0.0
C221 C 0.20742 0.97355 0.63752 0.0
C222 C 0.28631 0.04687 0.63202 0.0
C223 C 0.35218 0.16266 0.65195 0.0
C224 C 0.28872 0.14544 0.61442 0.0
C225 C 0.42281 0.26532 0.59976 0.0
C226 C 0.47626 0.32328 0.60886 0.0
C227 C 0.46982 0.29569 0.61865 0.0
C228 C 0.44323 0.26694 0.61418 0.0
C229 C 0.42937 0.2926 0.58981 0.0
C230 C 0.45581 0.32128 0.59429 0.0
C231 C 0.3937 0.23594 0.59554 0.0
H232 H 0.18483 0.02211 0.61728 0.0
H233 H 0.24123 0.0588 0.6194 0.0
H234 H 0.25489 0.98673 0.64449 0.0
H235 H 0.19842 0.94979 0.64261 0.0
H236 H 0.48495 0.29643 0.63003 0.0
H237 H 0.43837 0.24609 0.62211 0.0
H238 H 0.41383 0.29178 0.57866 0.0
H239 H 0.46033 0.3419 0.58623 0.0
Dy240 Dy 0.70642 0.79455 0.38067 0.0
Dy241 Dy 0.66692 0.82814 0.39781 0.0
C242 C 0.70323 0.80449 0.42491 0.0
O243 O 0.65603 0.75664 0.37834 0.0
O244 O 0.63321 0.77676 0.39844 0.0
O245 O 0.72136 0.76004 0.38162 0.0
O246 O 0.73982 0.79631 0.36004 0.0
O247 O 0.65062 0.81705 0.36763 0.0
O248 O 0.68959 0.80901 0.35531 0.0
O249 O 0.71139 0.86558 0.38515 0.0
O250 O 0.7416 0.84323 0.39019 0.0
O251 O 0.65762 0.86657 0.39769 0.0
O252 O 0.63547 0.82985 0.41882 0.0
C253 C 0.63186 0.75381 0.38813 0.0
O254 O 0.70099 0.78484 0.41166 0.0
O255 O 0.69717 0.82723 0.42157 0.0
C256 C 0.77394 0.78005 0.37177 0.0
C257 C 0.83698 0.79578 0.37708 0.0
C258 C 0.82236 0.80656 0.38987 0.0
C259 C 0.79113 0.79881 0.38721 0.0
C260 C 0.78822 0.76895 0.35914 0.0
C261 C 0.8194 0.77671 0.36175 0.0
C262 C 0.74187 0.7735 0.36799 0.0
C263 C 0.66551 0.8133 0.35318 0.0
C264 C 0.73893 0.86812 0.38726 0.0
C265 C 0.60791 0.85545 0.40901 0.0
C266 C 0.55303 0.85936 0.40393 0.0
C267 C 0.56192 0.84419 0.39033 0.0
C268 C 0.58912 0.84221 0.39286 0.0
C269 C 0.59903 0.87032 0.42263 0.0
C270 C 0.57192 0.87228 0.42015 0.0
C271 C 0.63745 0.85519 0.41163 0.0
H272 H 0.83502 0.82098 0.40194 0.0
H273 H 0.7805 0.80774 0.39706 0.0
H274 H 0.7754 0.75472 0.34703 0.0
H275 H 0.82997 0.7684 0.35145 0.0
H276 H 0.54779 0.83371 0.37778 0.0
H277 H 0.59561 0.83061 0.38217 0.0
H278 H 0.61335 0.88085 0.43512 0.0
H279 H 0.56615 0.88455 0.43076 0.0
Dy280 Dy 0.91906 0.69795 0.88154 0.0
Dy281 Dy 0.84783 0.65613 0.9001 0.0
C282 C 0.90937 0.68474 0.92503 0.0
O283 O 0.90667 0.64831 0.875 0.0
O284 O 0.86413 0.62184 0.89531 0.0
O285 O 0.96889 0.72335 0.88634 0.0
O286 O 0.95098 0.72343 0.85831 0.0
O287 O 0.84301 0.64555 0.86881 0.0
O288 O 0.88455 0.69266 0.85933 0.0
O289 O 0.85392 0.70249 0.89188 0.0
O290 O 0.90711 0.73223 0.89458 0.0
O291 O 0.80032 0.64714 0.90225 0.0
O292 O 0.81542 0.62119 0.91995 0.0
C293 C 0.88538 0.62246 0.88362 0.0
O294 O 0.92189 0.67993 0.90993 0.0
O295 O 0.88174 0.6826 0.9238 0.0
C296 C 0.99525 0.77034 0.8689 0.0
C297 C 0.03641 0.83598 0.87001 0.0
C298 C 1.0102 0.82158 0.88222 0.0
C299 C 0.98985 0.78913 0.88165 0.0
C300 C 0.02069 0.78461 0.85628 0.0
C301 C 0.04105 0.81711 0.8568 0.0
C302 C 0.97541 0.73587 0.86941 0.0
C303 C 0.85819 0.66687 0.85564 0.0
C304 C 0.87942 0.72989 0.89347 0.0
C305 C 0.76178 0.5959 0.91093 0.0
C306 C 0.7027 0.54288 0.90315 0.0
C307 C 0.73023 0.5458 0.89503 0.0
C308 C 0.75953 0.57217 0.89882 0.0
C309 C 0.7345 0.5929 0.91919 0.0
C310 C 0.70528 0.56671 0.91536 0.0
C311 C 0.79193 0.62457 0.9146 0.0
H312 H 1.006 0.83517 0.89272 0.0
H313 H 0.97037 0.7786 0.89155 0.0
H314 H 0.02516 0.77055 0.84627 0.0
H315 H 0.06062 0.8274 0.84695 0.0
H316 H 0.72905 0.52802 0.88544 0.0
H317 H 0.78034 0.57421 0.89217 0.0
H318 H 0.73576 0.611 0.92855 0.0
H319 H 0.68468 0.56504 0.92209 0.0
Dy320 Dy 0.23286 0.91689 0.3818 0.0
Dy321 Dy 0.20404 0.84524 0.40031 0.0
C322 C 0.22069 0.90507 0.4263 0.0
O323 O 0.27191 0.90604 0.37964 0.0
O324 O 0.25596 0.87009 0.40402 0.0
O325 O 0.26629 0.96665 0.3817 0.0
O326 O 0.22886 0.9469 0.36095 0.0
O327 O 0.21731 0.84076 0.37038 0.0
O328 O 0.21874 0.88436 0.35715 0.0
O329 O 0.1642 0.84824 0.3876 0.0
O330 O 0.18344 0.90089 0.39074 0.0
O331 O 0.16679 0.79705 0.40205 0.0
O332 O 0.20762 0.81301 0.41985 0.0
C333 C 0.27753 0.88943 0.39205 0.0
O334 O 0.23995 0.92304 0.41299 0.0
O335 O 0.20078 0.87505 0.42358 0.0
C336 C 0.24317 0.99694 0.37258 0.0
C337 C 0.2225 0.04035 0.37897 0.0
C338 C 0.22409 0.02248 0.39412 0.0
C339 C 0.23414 1.0008 0.39093 0.0
C340 C 0.24223 0.01518 0.35756 0.0
C341 C 0.23199 0.03665 0.3607 0.0
C342 C 0.25124 0.97246 0.36851 0.0
C343 C 0.21829 0.85757 0.35554 0.0
C344 C 0.15977 0.87233 0.38862 0.0
C345 C 0.18187 0.75985 0.40998 0.0
C346 C 0.17885 0.70199 0.40222 0.0
C347 C 0.18791 0.72505 0.38793 0.0
C348 C 0.18947 0.75375 0.39178 0.0
C349 C 0.17321 0.73714 0.42429 0.0
C350 C 0.17172 0.70854 0.42048 0.0
C351 C 0.18147 0.78901 0.41417 0.0
H352 H 0.2168 0.02465 0.40834 0.0
H353 H 0.23435 0.98671 0.40272 0.0
H354 H 0.24894 0.01243 0.34329 0.0
H355 H 0.23151 0.0504 0.3488 0.0
H356 H 0.1939 0.72096 0.37378 0.0
H357 H 0.19627 0.77103 0.38052 0.0
H358 H 0.16709 0.74133 0.43839 0.0
H359 H 0.16423 0.69124 0.43176 0.0
Dy360 Dy 0.32419 0.22692 0.88507 0.0
Dy361 Dy 0.36291 0.1914 0.89742 0.0
C362 C 0.33596 0.21923 0.92726 0.0
O363 O 0.37407 0.2636 0.87911 0.0
O364 O 0.39857 0.24244 0.89675 0.0
O365 O 0.30235 0.25318 0.89438 0.0
O366 O 0.29851 0.23892 0.86496 0.0
O367 O 0.37395 0.20299 0.86646 0.0
O368 O 0.32935 0.20429 0.85887 0.0
O369 O 0.31621 0.15401 0.88754 0.0
O370 O 0.28813 0.17826 0.89434 0.0
O371 O 0.37194 0.15304 0.89474 0.0
O372 O 0.39531 0.18793 0.91675 0.0
C373 C 0.39929 0.26568 0.88703 0.0
O374 O 0.34289 0.24073 0.91435 0.0
O375 O 0.33498 0.193 0.92251 0.0
C376 C 0.25407 0.23654 0.87936 0.0
C377 C 0.18865 0.21159 0.88229 0.0
C378 C 0.20367 0.19893 0.89313 0.0
C379 C 0.23602 0.21122 0.89163 0.0
C380 C 0.23924 0.24894 0.8683 0.0
C381 C 0.20683 0.23655 0.86971 0.0
C382 C 0.28827 0.2501 0.8782 0.0
C383 C 0.35389 0.20212 0.85381 0.0
C384 C 0.28936 0.15274 0.8906 0.0
C385 C 0.42299 0.16398 0.90374 0.0
C386 C 0.47765 0.16008 0.89718 0.0
C387 C 0.45612 0.15394 0.88242 0.0
C388 C 0.42912 0.15594 0.88564 0.0
C389 C 0.44469 0.17052 0.9184 0.0
C390 C 0.47178 0.16873 0.91515 0.0
C391 C 0.39334 0.16364 0.90796 0.0
H392 H 0.19059 0.18005 0.90315 0.0
H393 H 0.24702 0.20128 0.90033 0.0
H394 H 0.25275 0.2683 0.85865 0.0
H395 H 0.19601 0.24652 0.86088 0.0
H396 H 0.46014 0.14756 0.86837 0.0
H397 H 0.41289 0.15075 0.874 0.0
H398 H 0.4404 0.17646 0.93252 0.0
H399 H 0.48769 0.17325 0.92689 0.0
Dy400 Dy 0.10772 0.31951 0.37866 0.0
Dy401 Dy 0.17901 0.36124 0.39744 0.0
C402 C 0.11884 0.31969 0.42407 0.0
O403 O 0.12274 0.37059 0.37496 0.0
O404 O 0.15399 0.38793 0.40122 0.0
O405 O 0.05897 0.30711 0.37837 0.0
O406 O 0.07647 0.28725 0.35753 0.0
O407 O 0.18241 0.37402 0.36634 0.0
O408 O 0.14204 0.32739 0.35579 0.0
O409 O 0.17254 0.31359 0.39254 0.0
O410 O 0.11908 0.2831 0.38819 0.0
O411 O 0.22728 0.37256 0.39823 0.0
O412 O 0.21215 0.39881 0.41566 0.0
C413 C 0.13774 0.39212 0.38801 0.0
O414 O 0.1003 0.31696 0.40995 0.0
O415 O 0.14949 0.33288 0.42227 0.0
C416 C 0.02662 0.25389 0.37026 0.0
C417 C 0.98136 0.19091 0.37817 0.0
C418 C 1.00566 0.20835 0.39114 0.0
C419 C 0.02812 0.23953 0.3872 0.0
C420 C 1.00221 0.23685 0.35745 0.0
C421 C 0.97976 0.20565 0.36136 0.0
C422 C 0.05172 0.28572 0.36533 0.0
C423 C 0.168 0.35376 0.35258 0.0
C424 C 0.14684 0.28619 0.39098 0.0
C425 C 0.26517 0.42587 0.40466 0.0
C426 C 0.32442 0.47972 0.39784 0.0
C427 C 0.31115 0.45527 0.38444 0.0
C428 C 0.28187 0.42867 0.38779 0.0
C429 C 0.27799 0.45065 0.4178 0.0
C430 C 0.3072 0.47732 0.41441 0.0
C431 C 0.23591 0.39647 0.40954 0.0
H432 H 1.00737 0.19791 0.40434 0.0
H433 H 0.04693 0.2523 0.39725 0.0
H434 H 1.00091 0.24745 0.34421 0.0
H435 H 0.96164 0.19281 0.35093 0.0
H436 H 0.32354 0.45658 0.3714 0.0
H437 H 0.27267 0.41006 0.37731 0.0
H438 H 0.26576 0.44902 0.43098 0.0
H439 H 0.31678 0.49556 0.42511 0.0
Dy440 Dy 0.79545 0.09952 0.88248 0.0
Dy441 Dy 0.83082 0.17389 0.89537 0.0
C442 C 0.80185 0.11843 0.92494 0.0
O443 O 0.75916 0.1134 0.87696 0.0
O444 O 0.77977 0.15797 0.89558 0.0
O445 O 0.77058 0.05108 0.89127 0.0
O446 O 0.78176 0.06258 0.86151 0.0
O447 O 0.81887 0.17285 0.86446 0.0
O448 O 0.82059 0.12846 0.85707 0.0
O449 O 0.86829 0.16391 0.88648 0.0
O450 O 0.84328 0.11123 0.89256 0.0
O451 O 0.86888 0.22142 0.89202 0.0
O452 O 0.835 0.21006 0.91473 0.0
C453 C 0.75669 0.13585 0.88563 0.0
O454 O 0.78092 0.10379 0.91177 0.0
O455 O 0.8281 0.14405 0.92057 0.0
C456 C 0.78481 0.01939 0.8737 0.0
C457 C 0.80818 0.97734 0.87315 0.0
C458 C 0.8215 1.00371 0.88518 0.0
C459 C 0.81001 0.02455 0.8854 0.0
C460 C 0.77174 0.99348 0.86147 0.0
C461 C 0.78333 0.97267 0.86116 0.0
C462 C 0.77181 0.04063 0.87444 0.0
C463 C 0.8212 0.15436 0.85184 0.0
C464 C 0.86911 0.13811 0.88969 0.0
C465 C 0.86002 0.26196 0.90232 0.0
C466 C 0.86446 0.32049 0.8947 0.0
C467 C 0.84158 0.29299 0.88563 0.0
C468 C 0.83945 0.26396 0.88937 0.0
C469 C 0.88252 0.28917 0.91153 0.0
C470 C 0.88474 0.3181 0.90779 0.0
C471 C 0.85948 0.23222 0.90596 0.0
H472 H 0.84033 1.0079 0.8948 0.0
H473 H 0.82055 0.04447 0.89494 0.0
H474 H 0.75242 0.98922 0.85225 0.0
H475 H 0.77283 0.95295 0.85148 0.0
H476 H 0.82574 0.29398 0.87538 0.0
H477 H 0.82201 0.24319 0.88203 0.0
H478 H 0.89861 0.28808 0.92158 0.0
H479 H 0.90223 0.33861 0.9153 0.0
H480 H 0.11173 0.8854 0.13165 0.0
H481 H 0.12415 0.93999 0.13286 0.0
H482 H 0.22202 0.97069 0.12411 0.0
H483 H 0.20988 0.91611 0.12339 0.0
H484 H 0.21637 1.00542 0.15037 0.0
H485 H 0.17395 0.97161 0.08778 0.0
H486 H 0.13463 0.93712 0.06432 0.0
H487 H 0.06673 0.95695 0.08923 0.0
H488 H 0.10554 0.99125 0.11301 0.0
H489 H 0.26799 0.16286 0.12358 0.0
H490 H 0.25363 0.10769 0.12322 0.0
H491 H 0.1583 0.08088 0.1375 0.0
H492 H 0.17258 0.13615 0.13832 0.0
H493 H 0.16158 0.04415 0.10886 0.0
H494 H 0.20507 0.07891 0.17109 0.0
H495 H 0.24492 0.11343 0.19428 0.0
H496 H 0.31164 0.09193 0.16935 0.0
H497 H 0.2723 0.05761 0.14582 0.0
C498 C 0.13592 0.90372 0.12998 0.0
C499 C 0.15977 0.89626 0.12734 0.0
C500 C 0.14298 0.93501 0.13058 0.0
C501 C 0.17399 0.95959 0.12827 0.0
C502 C 0.1979 0.9522 0.12589 0.0
C503 C 0.19089 0.92092 0.12544 0.0
C504 C 0.18159 0.99298 0.12848 0.0
C505 C 0.20466 0.01392 0.14109 0.0
C506 C 0.16585 1.00409 0.11672 0.0
C507 C 0.14257 0.98377 0.10229 0.0
C508 C 0.15058 0.96846 0.08833 0.0
C509 C 0.12839 0.94897 0.07497 0.0
C510 C 0.09818 0.94478 0.07532 0.0
C511 C 0.09013 0.96018 0.08899 0.0
C512 C 0.11222 0.97968 0.1024 0.0
C513 C 0.24403 0.14534 0.12691 0.0
C514 C 0.22154 0.15416 0.13115 0.0
C515 C 0.23583 0.11373 0.12659 0.0
C516 C 0.20495 0.0901 0.13051 0.0
C517 C 0.18227 0.09868 0.13441 0.0
C518 C 0.19049 0.13035 0.13481 0.0
C519 C 0.19647 0.05651 0.13063 0.0
C520 C 0.17324 0.03557 0.11812 0.0
C521 C 0.21216 0.04541 0.1424 0.0
C522 C 0.23582 0.06592 0.15658 0.0
C523 C 0.22831 0.08173 0.17046 0.0
C524 C 0.2508 0.10123 0.18368 0.0
C525 C 0.28081 0.10493 0.18326 0.0
C526 C 0.28839 0.08907 0.16964 0.0
C527 C 0.266 0.06957 0.15637 0.0
H528 H 0.29819 0.12004 0.19351 0.0
H529 H 0.08103 0.92966 0.06497 0.0
H530 H 0.22674 0.09872 0.61753 0.0
H531 H 0.18082 0.10541 0.62071 0.0
H532 H 0.24045 0.20561 0.61533 0.0
H533 H 0.28608 0.19923 0.61248 0.0
H534 H 0.20199 0.19198 0.64473 0.0
H535 H 0.19234 0.15934 0.57878 0.0
H536 H 0.18725 0.12321 0.55292 0.0
H537 H 0.10191 0.05073 0.57789 0.0
H538 H 0.10671 0.08635 0.60404 0.0
H539 H 0.10298 0.25212 0.62411 0.0
H540 H 0.14141 0.23475 0.62209 0.0
H541 H 0.06825 0.13902 0.63096 0.0
H542 H 0.02954 0.15629 0.63325 0.0
H543 H 0.10899 0.14376 0.60258 0.0
H544 H 0.11607 0.17775 0.66688 0.0
H545 H 0.121 0.21365 0.69284 0.0
H546 H 0.21115 0.28296 0.67143 0.0
H547 H 0.20657 0.24765 0.64517 0.0
C548 C 0.23001 0.12211 0.61688 0.0
C549 C 0.26018 0.14841 0.61487 0.0
C550 C 0.20372 0.12592 0.61867 0.0
C551 C 0.20717 0.15606 0.61828 0.0
C552 C 0.23718 0.18215 0.61583 0.0
C553 C 0.26331 0.17841 0.61415 0.0
C554 C 0.18001 0.16105 0.62096 0.0
C555 C 0.18179 0.18161 0.6354 0.0
C556 C 0.15309 0.14669 0.60926 0.0
C557 C 0.15007 0.12538 0.59347 0.0
C558 C 0.17261 0.13563 0.57883 0.0
C559 C 0.16976 0.11526 0.56411 0.0
C560 C 0.14433 0.08467 0.56379 0.0
C561 C 0.12163 0.07441 0.57817 0.0
C562 C 0.12439 0.09469 0.59293 0.0
C563 C 0.09504 0.22741 0.62587 0.0
C564 C 0.06318 0.20567 0.62905 0.0
C565 C 0.11705 0.21748 0.62462 0.0
C566 C 0.10777 0.18562 0.6266 0.0
C567 C 0.07593 0.16372 0.62939 0.0
C568 C 0.05384 0.17364 0.63067 0.0
C569 C 0.13158 0.1755 0.62593 0.0
C570 C 0.12908 0.15389 0.612 0.0
C571 C 0.1579 0.18885 0.63813 0.0
C572 C 0.16085 0.21012 0.65397 0.0
C573 C 0.13685 0.20073 0.66763 0.0
C574 C 0.1396 0.22096 0.68241 0.0
C575 C 0.16635 0.25059 0.68376 0.0
C576 C 0.19044 0.26001 0.67036 0.0
C577 C 0.18779 0.23988 0.65553 0.0
H578 H 0.16843 0.26622 0.69522 0.0
H579 H 0.14217 0.06893 0.55239 0.0
H580 H 0.88547 0.02956 0.11686 0.0
H581 H 0.94185 0.0656 0.11353 0.0
H582 H 0.92765 0.14414 0.12266 0.0
H583 H 0.87177 0.10851 0.12739 0.0
H584 H 0.96714 0.14666 0.08878 0.0
H585 H 0.95389 0.12876 0.15741 0.0
H586 H 0.93622 0.0943 0.18565 0.0
H587 H 0.99504 0.05672 0.16956 0.0
H588 H 1.01275 0.09073 0.14106 0.0
H589 H 0.10429 0.283 0.11189 0.0
H590 H 0.0525 0.23673 0.11135 0.0
H591 H 0.09352 0.17735 0.11449 0.0
H592 H 0.14615 0.22409 0.11512 0.0
H593 H 0.04269 0.15786 0.13903 0.0
H594 H 0.0631 0.18133 0.0736 0.0
H595 H 0.08041 0.21377 0.04452 0.0
H596 H 1.00842 0.23763 0.05254 0.0
H597 H 0.99098 0.20574 0.08186 0.0
C598 C 0.89427 0.05443 0.11854 0.0
C599 C 0.87374 0.06591 0.12251 0.0
C600 C 0.92653 0.07501 0.1164 0.0
C601 C 0.93883 0.1075 0.11779 0.0
C602 C 0.91853 0.11912 0.1214 0.0
C603 C 0.88645 0.09861 0.12396 0.0
C604 C 0.97293 0.12963 0.11578 0.0
C605 C 0.9837 0.14925 0.09976 0.0
C606 C 0.99459 0.13206 0.12978 0.0
C607 C 0.98434 0.11198 0.14701 0.0
C608 C 0.96284 0.11295 0.15981 0.0
C609 C 0.95287 0.09355 0.17588 0.0
C610 C 0.96442 0.07325 0.17936 0.0
C611 C 0.98607 0.07241 0.16682 0.0
C612 C 0.9961 0.09176 0.15072 0.0
C613 C 0.10254 0.26019 0.11245 0.0
C614 C 0.12954 0.25736 0.11353 0.0
C615 C 0.07277 0.23367 0.11204 0.0
C616 C 0.06906 0.20353 0.11265 0.0
C617 C 0.09585 0.20041 0.11392 0.0
C618 C 0.12589 0.22713 0.11421 0.0
C619 C 0.03692 0.17573 0.11223 0.0
C620 C 0.02639 0.15499 0.12781 0.0
C621 C 0.01549 0.17197 0.09766 0.0
C622 C 0.02586 0.19128 0.08003 0.0
C623 C 0.05111 0.1937 0.06926 0.0
C624 C 0.06092 0.21196 0.05271 0.0
C625 C 0.04555 0.22779 0.0467 0.0
C626 C 0.02031 0.22536 0.05722 0.0
C627 C 1.01042 0.20716 0.0738 0.0
H628 H 0.05317 0.2419 0.03388 0.0
H629 H 0.95666 0.05823 0.19181 0.0
H630 H 0.77671 0.86569 0.61981 0.0
H631 H 0.79604 0.92144 0.61488 0.0
H632 H 0.89034 0.94182 0.62626 0.0
H633 H 0.87099 0.88587 0.63178 0.0
H634 H 0.87734 0.98377 0.64377 0.0
H635 H 0.86976 0.9432 0.58171 0.0
H636 H 0.84505 0.90612 0.5552 0.0
H637 H 0.77258 0.93019 0.55225 0.0
H638 H 0.79648 0.96697 0.57902 0.0
H639 H 0.92754 0.14142 0.61354 0.0
H640 H 0.92362 0.08978 0.61399 0.0
H641 H 0.82373 0.04554 0.60579 0.0
H642 H 0.8274 0.09669 0.60518 0.0
H643 H 0.84968 0.01811 0.58407 0.0
H644 H 0.85421 0.05196 0.64994 0.0
H645 H 0.87949 0.08864 0.67661 0.0
H646 H 0.9603 0.07761 0.67134 0.0
H647 H 0.9356 0.04113 0.64447 0.0
C648 C 0.80151 0.88201 0.62155 0.0
C649 C 0.82228 0.87128 0.62623 0.0
C650 C 0.81258 0.91387 0.61851 0.0
C651 C 0.8447 0.93575 0.61995 0.0
C652 C 0.86549 0.92531 0.62499 0.0
C653 C 0.85441 0.89333 0.62801 0.0
C654 C 0.85618 0.96944 0.61609 0.0
C655 C 0.87189 0.99141 0.63056 0.0
C656 C 0.84906 0.97942 0.59885 0.0
C657 C 0.83485 0.95775 0.58248 0.0
C658 C 0.84844 0.94047 0.5755 0.0
C659 C 0.83458 0.91949 0.56042 0.0
C660 C 0.80725 0.91579 0.55206 0.0
C661 C 0.79376 0.9331 0.55874 0.0
C662 C 0.80747 0.95403 0.57387 0.0
C663 C 0.90482 0.12074 0.61164 0.0
C664 C 0.87777 0.12326 0.60948 0.0
C665 C 0.9026 0.09122 0.61195 0.0
C666 C 0.87333 0.06378 0.61008 0.0
C667 C 0.84656 0.06637 0.60725 0.0
C668 C 0.84871 0.09571 0.60702 0.0
C669 C 0.86985 0.03215 0.61199 0.0
C670 C 0.85567 0.01056 0.59712 0.0
C671 C 0.87863 0.0226 0.62878 0.0
C672 C 0.89322 0.04411 0.64509 0.0
C673 C 0.87744 0.05751 0.65441 0.0
C674 C 0.89165 0.07824 0.66956 0.0
C675 C 0.92152 0.08552 0.67563 0.0
C676 C 0.93719 0.07199 0.6666 0.0
C677 C 0.92309 0.05127 0.65142 0.0
H678 H 0.93249 0.10159 0.68735 0.0
H679 H 0.79654 0.89953 0.54039 0.0
H680 H 0.92956 0.79204 0.16191 0.0
H681 H 0.89049 0.80808 0.15746 0.0
H682 H 0.94028 0.86181 0.10793 0.0
H683 H 0.97907 0.84504 0.11183 0.0
H684 H 0.91965 0.89385 0.13335 0.0
H685 H 0.87811 0.79521 0.10047 0.0
H686 H 0.86242 0.73936 0.09735 0.0
H687 H 0.7966 0.71599 0.14326 0.0
H688 H 0.81223 0.77178 0.14683 0.0
H689 H 0.79191 0.91552 0.10362 0.0
H690 H 0.8364 0.90634 0.10561 0.0
H691 H 0.78518 0.83201 0.14631 0.0
H692 H 0.74041 0.84001 0.14354 0.0
H693 H 0.80901 0.81208 0.12249 0.0
H694 H 0.85066 0.90908 0.15722 0.0
H695 H 0.86663 0.96468 0.16223 0.0
H696 H 0.93177 0.99138 0.11568 0.0
H697 H 0.91585 0.93585 0.1102 0.0
C698 C 0.93212 0.80694 0.1499 0.0
C699 C 0.95748 0.81694 0.13714 0.0
C700 C 0.90984 0.81632 0.14748 0.0
C701 C 0.91239 0.83605 0.13232 0.0
C702 C 0.93795 0.84671 0.11978 0.0
C703 C 0.96016 0.83711 0.12209 0.0
C704 C 0.88769 0.84456 0.12931 0.0
C705 C 0.89548 0.8761 0.13072 0.0
C706 C 0.85612 0.82131 0.12624 0.0
C707 C 0.84654 0.78771 0.12402 0.0
C708 C 0.86047 0.77819 0.10999 0.0
C709 C 0.85155 0.74654 0.10813 0.0
C710 C 0.82858 0.72415 0.12013 0.0
C711 C 0.81441 0.73336 0.13398 0.0
C712 C 0.82326 0.76499 0.13592 0.0
C713 C 0.79035 0.8974 0.11307 0.0
C714 C 0.76263 0.87834 0.12332 0.0
C715 C 0.81585 0.89225 0.11429 0.0
C716 C 0.8144 0.86854 0.12622 0.0
C717 C 0.78696 0.85024 0.13687 0.0
C718 C 0.76134 0.85489 0.13532 0.0
C719 C 0.84054 0.86146 0.12711 0.0
C720 C 0.83309 0.83005 0.12513 0.0
C721 C 0.87229 0.88485 0.12994 0.0
C722 C 0.88182 0.91825 0.13318 0.0
C723 C 0.86821 0.92677 0.14795 0.0
C724 C 0.87728 0.95828 0.15089 0.0
C725 C 0.90018 0.98154 0.13927 0.0
C726 C 0.91402 0.97333 0.12466 0.0
C727 C 0.90499 0.94184 0.12164 0.0
H728 H 0.90727 1.00592 0.14163 0.0
H729 H 0.82171 0.69966 0.11866 0.0
H730 H 0.88241 0.79457 0.622 0.0
H731 H 0.93503 0.84063 0.62459 0.0
H732 H 0.97558 0.78379 0.60884 0.0
H733 H 0.92349 0.7379 0.60674 0.0
H734 H 1.00354 0.81685 0.63912 0.0
H735 H 0.9724 0.83913 0.57803 0.0
H736 H 0.93679 0.84767 0.55751 0.0
H737 H 0.95171 0.92597 0.59197 0.0
H738 H 0.98714 0.91765 0.61283 0.0
H739 H 0.16011 0.92237 0.61734 0.0
H740 H 0.10441 0.88402 0.61457 0.0
H741 H 0.0811 0.95307 0.63382 0.0
H742 H 0.13705 0.99174 0.63664 0.0
H743 H 0.04261 0.91777 0.60478 0.0
H744 H 0.07585 0.89846 0.66442 0.0
H745 H 0.10959 0.88949 0.68634 0.0
H746 H 0.08883 0.80548 0.65614 0.0
H747 H 0.05531 0.81419 0.63386 0.0
C748 C 0.90255 0.79205 0.61884 0.0
C749 C 0.89876 0.76255 0.61424 0.0
C750 C 0.93264 0.8184 0.62032 0.0
C751 C 0.95938 0.81575 0.61688 0.0
C752 C 0.95542 0.78646 0.61171 0.0
C753 C 0.92554 0.7602 0.61047 0.0
C754 C 0.99166 0.84279 0.6194 0.0
C755 C 1.01212 0.83877 0.63142 0.0
C756 C 1.0026 0.87192 0.61002 0.0
C757 C 0.9822 0.8776 0.59708 0.0
C758 C 0.96801 0.85811 0.58126 0.0
C759 C 0.94786 0.86291 0.56957 0.0
C760 C 0.94192 0.88729 0.57346 0.0
C761 C 0.9563 0.90707 0.58898 0.0
C762 C 0.97646 0.90235 0.60073 0.0
C763 C 0.14317 0.92938 0.62113 0.0
C764 C 0.15306 0.96 0.62749 0.0
C765 C 0.1113 0.90746 0.61945 0.0
C766 C 0.08851 0.91549 0.62426 0.0
C767 C 0.09824 0.94631 0.63005 0.0
C768 C 0.13022 0.96837 0.63167 0.0
C769 C 0.05468 0.8912 0.62388 0.0
C770 C 0.03394 0.89585 0.61247 0.0
C771 C 0.04328 0.86258 0.63392 0.0
C772 C 0.06325 0.85712 0.64738 0.0
C773 C 0.07865 0.87818 0.66237 0.0
C774 C 0.09771 0.87313 0.67487 0.0
C775 C 0.1014 0.84696 0.67261 0.0
C776 C 0.08597 0.82575 0.65787 0.0
C777 C 0.0669 0.83071 0.64531 0.0
H778 H 0.11617 0.84309 0.68231 0.0
H779 H 0.92622 0.89089 0.56444 0.0
H780 H 0.10649 0.81753 0.38012 0.0
H781 H 0.053 0.80789 0.37833 0.0
H782 H 0.08541 0.90447 0.39268 0.0
H783 H 0.13935 0.91442 0.39458 0.0
H784 H 0.03192 0.86296 0.41284 0.0
H785 H 0.06602 0.88176 0.348 0.0
H786 H 0.0896 0.87522 0.31859 0.0
H787 H 0.01841 0.77809 0.31614 0.0
H788 H 0.99465 0.78392 0.34572 0.0
H789 H 0.88624 0.85293 0.38772 0.0
H790 H 0.94156 0.8682 0.39025 0.0
H791 H 0.91937 0.77496 0.3738 0.0
H792 H 0.864 0.75936 0.37148 0.0
H793 H 0.96915 0.81881 0.35418 0.0
H794 H 0.93662 0.79926 0.41972 0.0
H795 H 0.91321 0.80533 0.44935 0.0
H796 H 0.98139 0.90356 0.45054 0.0
H797 H 1.00495 0.89815 0.42075 0.0
C798 C 0.10238 0.83682 0.38289 0.0
C799 C 0.12732 0.86681 0.38743 0.0
C800 C 0.07173 0.83126 0.38179 0.0
C801 C 0.06521 0.85552 0.38519 0.0
C802 C 0.08992 0.88542 0.38996 0.0
C803 C 0.12074 0.89109 0.39096 0.0
C804 C 0.0325 0.84933 0.38377 0.0
C805 C 0.01833 0.85383 0.39991 0.0
C806 C 0.01459 0.83682 0.36703 0.0
C807 C 0.02871 0.83323 0.34918 0.0
C808 C 0.05553 0.85894 0.34128 0.0
C809 C 0.0689 0.85537 0.32456 0.0
C810 C 0.05555 0.82624 0.31553 0.0
C811 C 0.02874 0.80063 0.32317 0.0
C812 C 0.01529 0.80407 0.3399 0.0
C813 C 0.89302 0.8355 0.38492 0.0
C814 C 0.87057 0.80488 0.37938 0.0
C815 C 0.92472 0.84433 0.38631 0.0
C816 C 0.93465 0.8227 0.38229 0.0
C817 C 0.9123 0.7921 0.37688 0.0
C818 C 0.88063 0.78325 0.3755 0.0
C819 C 0.96837 0.83201 0.38332 0.0
C820 C 0.98276 0.82814 0.36707 0.0
C821 C 0.98643 0.84506 0.39997 0.0
C822 C 0.97232 0.84837 0.41789 0.0
C823 C 0.94645 0.82221 0.42621 0.0
C824 C 0.93319 0.82552 0.44305 0.0
C825 C 0.94574 0.85483 0.45179 0.0
C826 C 0.97165 0.88088 0.44373 0.0
C827 C 0.98498 0.8777 0.42688 0.0
H828 H 0.93545 0.85734 0.46483 0.0
H829 H 0.06594 0.82352 0.30258 0.0
H830 H 0.02543 0.88478 0.87703 0.0
H831 H 0.06419 0.9401 0.8821 0.0
H832 H 0.13868 0.91998 0.87177 0.0
H833 H 0.10033 0.86468 0.86748 0.0
H834 H 0.15039 0.95485 0.90269 0.0
H835 H 0.11499 0.95711 0.83858 0.0
H836 H 0.07587 0.94923 0.81415 0.0
H837 H 0.05286 0.01088 0.84441 0.0
H838 H 0.09151 0.01873 0.86919 0.0
H839 H 0.28465 0.0964 0.88271 0.0
H840 H 0.23774 0.0452 0.88096 0.0
H841 H 0.18072 0.08638 0.89455 0.0
H842 H 0.22806 0.13847 0.89609 0.0
H843 H 0.15499 0.04307 0.86586 0.0
H844 H 0.19307 0.04513 0.92814 0.0
H845 H 0.23222 0.05412 0.95277 0.0
H846 H 0.2492 0.98496 0.92689 0.0
H847 H 0.21048 0.97588 0.90193 0.0
C848 C 0.05007 0.89211 0.87589 0.0
C849 C 0.05967 0.87014 0.87181 0.0
C850 C 0.07222 0.92385 0.87862 0.0
C851 C 0.10442 0.93434 0.8772 0.0
C852 C 0.114 0.91252 0.87293 0.0
C853 C 0.09195 0.88087 0.87026 0.0
C854 C 0.12845 0.96772 0.88076 0.0
C855 C 0.1515 0.97408 0.8945 0.0
C856 C 0.12918 0.99307 0.87072 0.0
C857 C 0.10585 0.98818 0.85587 0.0
C858 C 0.10136 0.96873 0.84013 0.0
C859 C 0.07931 0.96431 0.8262 0.0
C860 C 0.0618 0.97944 0.82777 0.0
C861 C 0.06637 0.99909 0.84325 0.0
C862 C 0.08834 1.00353 0.85723 0.0
C863 C 0.26224 0.0948 0.88539 0.0
C864 C 0.26025 0.12167 0.88969 0.0
C865 C 0.23535 0.06534 0.88444 0.0
C866 C 0.2057 0.06178 0.88793 0.0
C867 C 0.20339 0.08854 0.89191 0.0
C868 C 0.23046 0.11826 0.89285 0.0
C869 C 0.17749 0.02991 0.88726 0.0
C870 C 0.15362 0.02385 0.87419 0.0
C871 C 0.17579 1.00476 0.89801 0.0
C872 C 0.19897 0.00996 0.91309 0.0
C873 C 0.20529 0.03198 0.92762 0.0
C874 C 0.2274 0.03707 0.94165 0.0
C875 C 0.24322 0.02016 0.94138 0.0
C876 C 0.23693 0.99805 0.92709 0.0
C877 C 0.21486 0.99289 0.91301 0.0
H878 H 0.26033 0.02414 0.95225 0.0
H879 H 0.04477 0.97601 0.81696 0.0
H880 H 0.11457 0.232 0.37067 0.0
H881 H 0.12371 0.1875 0.37009 0.0
H882 H 0.19381 0.23148 0.41387 0.0
H883 H 0.1862 0.27683 0.41341 0.0
H884 H 0.21611 0.21194 0.38925 0.0
H885 H 0.11499 0.16244 0.42008 0.0
H886 H 0.05899 0.14601 0.4234 0.0
H887 H 0.0386 0.09277 0.37175 0.0
H888 H 0.0945 0.10919 0.36798 0.0
H889 H 0.23638 0.08205 0.40823 0.0
H890 H 0.21911 0.1205 0.41224 0.0
H891 H 0.16505 0.08762 0.36065 0.0
H892 H 0.18186 0.04883 0.3567 0.0
H893 H 0.13343 0.09979 0.3896 0.0
H894 H 0.23458 0.1512 0.35867 0.0
H895 H 0.29052 0.16745 0.35543 0.0
H896 H 0.31014 0.21699 0.4085 0.0
H897 H 0.2542 0.20064 0.41218 0.0
C898 C 0.13167 0.23191 0.38029 0.0
C899 C 0.14975 0.25781 0.39205 0.0
C900 C 0.13677 0.20635 0.38007 0.0
C901 C 0.15921 0.20572 0.39214 0.0
C902 C 0.17647 0.23129 0.40434 0.0
C903 C 0.17207 0.2572 0.40414 0.0
C904 C 0.16635 0.17963 0.39126 0.0
C905 C 0.19791 0.18746 0.38973 0.0
C906 C 0.14274 0.1475 0.39126 0.0
C907 C 0.10901 0.13727 0.39367 0.0
C908 C 0.09859 0.14737 0.40938 0.0
C909 C 0.06685 0.13803 0.41134 0.0
C910 C 0.04525 0.1184 0.39778 0.0
C911 C 0.05533 0.10798 0.38225 0.0
C912 C 0.08704 0.11726 0.3802 0.0
C913 C 0.2205 0.08273 0.39788 0.0
C914 C 0.21077 0.06261 0.38205 0.0
C915 C 0.21075 0.10479 0.40014 0.0
C916 C 0.19101 0.10711 0.38664 0.0
C917 C 0.18031 0.08628 0.37121 0.0
C918 C 0.1902 0.06435 0.36888 0.0
C919 C 0.18298 0.13239 0.38801 0.0
C920 C 0.1514 0.12436 0.38942 0.0
C921 C 0.20649 0.16437 0.38806 0.0
C922 C 0.24017 0.17444 0.38578 0.0
C923 C 0.25079 0.16536 0.36971 0.0
C924 C 0.2825 0.17462 0.36779 0.0
C925 C 0.30386 0.19317 0.38178 0.0
C926 C 0.29356 0.20258 0.39769 0.0
C927 C 0.26186 0.19335 0.39969 0.0
H928 H 0.3284 0.20031 0.38026 0.0
H929 H 0.02069 0.1112 0.39931 0.0
H930 H 0.14149 0.15048 0.88733 0.0
H931 H 0.08547 0.13113 0.89155 0.0
H932 H 0.10205 0.22546 0.88565 0.0
H933 H 0.15808 0.24514 0.88248 0.0
H934 H 0.06312 0.19696 0.914 0.0
H935 H 0.07208 0.16877 0.84858 0.0
H936 H 0.08646 0.14206 0.8242 0.0
H937 H 0.02582 0.05316 0.85073 0.0
H938 H 1.01129 0.07941 0.87537 0.0
H939 H 0.92619 0.19027 0.88466 0.0
H940 H 0.9775 0.19487 0.88609 0.0
H941 H 0.9348 0.09574 0.89739 0.0
H942 H 0.8826 0.09071 0.89582 0.0
H943 H 0.98369 0.11717 0.87088 0.0
H944 H 0.96852 0.14441 0.93325 0.0
H945 H 0.95374 0.17076 0.95761 0.0
H946 H 0.02598 0.26057 0.93755 0.0
H947 H 0.0409 0.2348 0.91286 0.0
C948 C 0.13327 0.16716 0.88712 0.0
C949 C 0.15438 0.19941 0.88444 0.0
C950 C 0.10114 0.15599 0.88934 0.0
C951 C 0.08942 0.17676 0.88868 0.0
C952 C 0.11047 0.20893 0.88615 0.0
C953 C 0.14253 0.22013 0.8841 0.0
C954 C 0.05534 0.16546 0.8907 0.0
C955 C 0.04581 0.17964 0.90449 0.0
C956 C 0.03245 0.14183 0.87887 0.0
C957 C 0.04087 0.12607 0.86391 0.0
C958 C 0.06195 0.14355 0.84926 0.0
C959 C 0.0701 0.12849 0.83539 0.0
C960 C 0.05713 0.09595 0.83595 0.0
C961 C 0.03587 0.07837 0.85033 0.0
C962 C 0.02765 0.09332 0.86423 0.0
C963 C 0.92745 0.16931 0.88746 0.0
C964 C 0.90015 0.14011 0.89026 0.0
C965 C 0.95695 0.17205 0.88834 0.0
C966 C 0.96003 0.14578 0.89216 0.0
C967 C 0.93291 0.11636 0.89454 0.0
C968 C 0.90315 0.11355 0.89369 0.0
C969 C 0.99187 0.14974 0.89359 0.0
C970 C 1.00094 0.13411 0.88058 0.0
C971 C 0.01441 0.17198 0.90618 0.0
C972 C 1.00572 0.18764 0.92113 0.0
C973 C 0.98113 0.16979 0.93395 0.0
C974 C 0.97274 0.18462 0.94783 0.0
C975 C 0.98889 0.21731 0.94912 0.0
C976 C 0.0135 0.23524 0.93654 0.0
C977 C 0.02196 0.22053 0.92262 0.0
H978 H 0.98235 0.22875 0.95987 0.0
H979 H 0.0635 0.08434 0.82521 0.0
H980 H 0.99222 0.14557 0.39297 0.0
H981 H 0.95441 0.08987 0.3977 0.0
H982 H 0.88081 0.10416 0.37574 0.0
H983 H 0.91816 0.15997 0.37166 0.0
H984 H 0.86107 0.06685 0.40635 0.0
H985 H 0.91777 0.07311 0.34809 0.0
H986 H 0.96579 0.08753 0.32962 0.0
H987 H 0.98649 0.0305 0.3663 0.0
H988 H 0.93874 0.01602 0.38512 0.0
H989 H 0.74184 0.92232 0.37588 0.0
H990 H 0.78637 0.9753 0.37708 0.0
H991 H 0.84426 0.93997 0.39938 0.0
H992 H 0.79948 0.8862 0.39789 0.0
H993 H 0.87598 0.98617 0.37325 0.0
H994 H 0.81645 0.97454 0.42911 0.0
H995 H 0.76895 0.96004 0.44811 0.0
H996 H 0.75458 0.02725 0.41745 0.0
H997 H 0.80174 0.04183 0.39806 0.0
C998 C 0.96789 0.13695 0.38941 0.0
C999 C 0.95826 0.15726 0.38183 0.0
C1000 C 0.94636 0.10501 0.39194 0.0
C1001 C 0.91482 0.0927 0.38683 0.0
C1002 C 0.90503 0.11306 0.37972 0.0
C1003 C 0.92649 0.14495 0.37723 0.0
C1004 C 0.89184 0.05859 0.38854 0.0
C1005 C 0.86425 0.04925 0.399 0.0
C1006 C 0.89648 0.03542 0.37959 0.0
C1007 C 0.92487 0.04372 0.3681 0.0
C1008 C 0.93266 0.06378 0.35226 0.0
C1009 C 0.95981 0.07194 0.34173 0.0
C1010 C 0.97921 0.05998 0.3468 0.0
C1011 C 0.97144 0.03974 0.36239 0.0
C1012 C 0.94433 0.03153 0.37298 0.0
C1013 C 0.764 0.92563 0.38102 0.0
C1014 C 0.76697 0.89997 0.38699 0.0
C1015 C 0.78947 0.95606 0.38175 0.0
C1016 C 0.8185 0.96175 0.38873 0.0
C1017 C 0.82199 0.93615 0.39409 0.0
C1018 C 0.7964 0.90546 0.39324 0.0
C1019 C 0.84474 0.99461 0.39051 0.0
C1020 C 0.87296 1.00371 0.3808 0.0
C1021 C 0.84081 0.0176 0.40028 0.0
C1022 C 0.81256 1.00915 0.41204 0.0
C1023 C 0.80306 0.9861 0.42633 0.0
C1024 C 0.7762 0.97788 0.43718 0.0
C1025 C 0.75873 0.99268 0.43397 0.0
C1026 C 0.76813 0.0158 0.41992 0.0
C1027 C 0.79496 0.02408 0.40901 0.0
H1028 H 0.73793 0.98628 0.44238 0.0
H1029 H 1.00024 0.06637 0.33865 0.0
H1030 H 0.82592 0.73264 0.88931 0.0
H1031 H 0.82077 0.77883 0.88493 0.0
H1032 H 0.9207 0.83839 0.89073 0.0
H1033 H 0.92626 0.7919 0.89514 0.0
H1034 H 0.88462 0.86033 0.91058 0.0
H1035 H 0.89363 0.8278 0.84833 0.0
H1036 H 0.88218 0.78965 0.82253 0.0
H1037 H 0.78632 0.7681 0.82171 0.0
H1038 H 0.79702 0.80569 0.84778 0.0
H1039 H 0.86873 0.98917 0.87685 0.0
H1040 H 0.88662 0.95105 0.87937 0.0
H1041 H 0.7916 0.87546 0.87262 0.0
H1042 H 0.77338 0.91324 0.87055 0.0
H1043 H 0.83346 0.86652 0.85123 0.0
H1044 H 0.82378 0.89444 0.91599 0.0
H1045 H 0.8349 0.93125 0.94256 0.0
H1046 H 0.93296 0.96159 0.93844 0.0
H1047 H 0.92246 0.92524 0.91164 0.0
C1048 C 0.84691 0.75549 0.88981 0.0
C1049 C 0.87658 0.75847 0.89246 0.0
C1050 C 0.84388 0.78191 0.88723 0.0
C1051 C 0.87037 0.81199 0.88723 0.0
C1052 C 0.89997 0.81533 0.89059 0.0
C1053 C 0.90309 0.78874 0.89309 0.0
C1054 C 0.86665 0.83954 0.8832 0.0
C1055 C 0.87409 0.86213 0.89744 0.0
C1056 C 0.85255 0.84159 0.86614 0.0
C1057 C 0.8461 0.81944 0.85013 0.0
C1058 C 0.87005 0.81479 0.84274 0.0
C1059 C 0.8637 0.79327 0.82806 0.0
C1060 C 0.83353 0.77642 0.82051 0.0
C1061 C 0.80967 0.78116 0.82759 0.0
C1062 C 0.81588 0.8026 0.84231 0.0
C1063 C 0.85157 0.96444 0.87602 0.0
C1064 C 0.81953 0.95435 0.87358 0.0
C1065 C 0.86189 0.94268 0.87737 0.0
C1066 C 0.84042 0.91039 0.87631 0.0
C1067 C 0.8086 0.90027 0.8734 0.0
C1068 C 0.79824 0.92196 0.87213 0.0
C1069 C 0.85075 0.88696 0.8788 0.0
C1070 C 0.84452 0.86509 0.86423 0.0
C1071 C 0.86608 0.88568 0.89552 0.0
C1072 C 0.87239 0.90741 0.91168 0.0
C1073 C 0.84775 0.90916 0.92065 0.0
C1074 C 0.85393 0.9299 0.93576 0.0
C1075 C 0.88463 0.94883 0.94214 0.0
C1076 C 0.9092 0.94697 0.93345 0.0
C1077 C 0.90315 0.92629 0.91831 0.0
H1078 H 0.88937 0.96487 0.95385 0.0
H1079 H 0.82865 0.75973 0.80916 0.0
H1080 H 0.14038 0.71727 0.09276 0.0
H1081 H 0.14278 0.66918 0.09234 0.0
H1082 H 0.10549 0.64775 0.14946 0.0
H1083 H 0.10345 0.69666 0.15014 0.0
H1084 H 0.15556 0.63922 0.14556 0.0
H1085 H 0.06047 0.6058 0.11168 0.0
H1086 H 0.02578 0.60887 0.08761 0.0
H1087 H 0.08439 0.6069 0.04289 0.0
H1088 H 0.1197 0.60427 0.0667 0.0
H1089 H 0.14214 0.48709 0.13839 0.0
H1090 H 0.13139 0.5301 0.14301 0.0
H1091 H 0.16613 0.5643 0.08649 0.0
H1092 H 0.17721 0.52163 0.08183 0.0
H1093 H 0.11162 0.56266 0.09263 0.0
H1094 H 0.20896 0.60099 0.1265 0.0
H1095 H 0.24426 0.5987 0.15044 0.0
H1096 H 0.18129 0.59147 0.19513 0.0
H1097 H 0.14539 0.59331 0.17141 0.0
C1098 C 0.13233 0.70229 0.10523 0.0
C1099 C 0.1216 0.71089 0.12149 0.0
C1100 C 0.13361 0.6746 0.10491 0.0
C1101 C 0.12401 0.65454 0.12078 0.0
C1102 C 0.11293 0.66278 0.13701 0.0
C1103 C 0.11156 0.69063 0.13733 0.0
C1104 C 0.12687 0.62576 0.1204 0.0
C1105 C 0.14538 0.6221 0.13421 0.0
C1106 C 0.11417 0.60368 0.10539 0.0
C1107 C 0.09286 0.60504 0.091 0.0
C1108 C 0.06608 0.60623 0.09671 0.0
C1109 C 0.04629 0.60786 0.08311 0.0
C1110 C 0.05291 0.60813 0.06373 0.0
C1111 C 0.0793 0.6067 0.05791 0.0
C1112 C 0.09919 0.60509 0.07145 0.0
C1113 C 0.14795 0.50402 0.12704 0.0
C1114 C 0.16053 0.50076 0.10971 0.0
C1115 C 0.14167 0.52859 0.12969 0.0
C1116 C 0.14801 0.55059 0.11512 0.0
C1117 C 0.16082 0.54755 0.09791 0.0
C1118 C 0.1671 0.52305 0.09525 0.0
C1119 C 0.14082 0.57647 0.11756 0.0
C1120 C 0.12147 0.57955 0.10412 0.0
C1121 C 0.15275 0.59796 0.1329 0.0
C1122 C 0.17432 0.59691 0.14717 0.0
C1123 C 0.20251 0.59864 0.14142 0.0
C1124 C 0.22265 0.59748 0.15495 0.0
C1125 C 0.21498 0.59484 0.17429 0.0
C1126 C 0.18718 0.59345 0.18014 0.0
C1127 C 0.16693 0.59457 0.16666 0.0
H1128 H 0.2306 0.59395 0.18475 0.0
H1129 H 0.03756 0.60941 0.05322 0.0
H1130 H 0.67142 0.19306 0.58841 0.0
H1131 H 0.61993 0.18714 0.59483 0.0
H1132 H 0.6065 0.12477 0.64157 0.0
H1133 H 0.65796 0.13026 0.63505 0.0
H1134 H 0.55392 0.10246 0.61849 0.0
H1135 H 0.62331 0.19708 0.65111 0.0
H1136 H 0.66993 0.2496 0.65435 0.0
H1137 H 0.63507 0.28499 0.61064 0.0
H1138 H 0.58852 0.23252 0.60685 0.0
H1139 H 0.41314 0.10532 0.64379 0.0
H1140 H 0.46425 0.10808 0.64599 0.0
H1141 H 0.50098 0.17935 0.60231 0.0
H1142 H 0.45091 0.17726 0.60031 0.0
H1143 H 0.54217 0.19557 0.62954 0.0
H1144 H 0.47779 0.10063 0.5936 0.0
H1145 H 0.43229 0.04786 0.58851 0.0
H1146 H 0.45817 0.0134 0.63732 0.0
H1147 H 0.50363 0.0661 0.64282 0.0
C1148 C 0.65749 0.178 0.60002 0.0
C1149 C 0.66883 0.16218 0.61124 0.0
C1150 C 0.62813 0.17479 0.60376 0.0
C1151 C 0.60944 0.1557 0.61879 0.0
C1152 C 0.62055 0.13968 0.62994 0.0
C1153 C 0.65006 0.14306 0.6263 0.0
C1154 C 0.57824 0.15247 0.62264 0.0
C1155 C 0.55133 0.12272 0.62128 0.0
C1156 C 0.57486 0.17895 0.62606 0.0
C1157 C 0.60249 0.21076 0.62861 0.0
C1158 C 0.62566 0.21601 0.6421 0.0
C1159 C 0.65208 0.24578 0.64404 0.0
C1160 C 0.65548 0.2706 0.63269 0.0
C1161 C 0.63241 0.26573 0.61942 0.0
C1162 C 0.60599 0.23598 0.61738 0.0
C1163 C 0.43213 0.12155 0.63468 0.0
C1164 C 0.42774 0.141 0.62187 0.0
C1165 C 0.46134 0.12307 0.63591 0.0
C1166 C 0.48655 0.14386 0.62424 0.0
C1167 C 0.48209 0.16326 0.61156 0.0
C1168 C 0.4532 0.16189 0.61039 0.0
C1169 C 0.51767 0.14564 0.6248 0.0
C1170 C 0.54468 0.17519 0.62705 0.0
C1171 C 0.52112 0.119 0.62207 0.0
C1172 C 0.49385 0.08736 0.61876 0.0
C1173 C 0.47362 0.08184 0.60333 0.0
C1174 C 0.44788 0.05195 0.60036 0.0
C1175 C 0.44228 0.02732 0.61262 0.0
C1176 C 0.46249 0.03252 0.62785 0.0
C1177 C 0.48825 0.06239 0.63091 0.0
H1178 H 0.42234 1.00418 0.61029 0.0
H1179 H 0.67598 0.29362 0.6342 0.0
H1180 H 0.49155 0.67739 0.0941 0.0
H1181 H 0.4466 0.62487 0.09889 0.0
H1182 H 0.5012 0.60243 0.13688 0.0
H1183 H 0.54656 0.6549 0.13188 0.0
H1184 H 0.46757 0.55476 0.11156 0.0
H1185 H 0.44675 0.61684 0.15494 0.0
H1186 H 0.44067 0.66146 0.16508 0.0
H1187 H 0.36557 0.63448 0.12525 0.0
H1188 H 0.3715 0.58995 0.11466 0.0
H1189 H 0.32861 0.41036 0.13806 0.0
H1190 H 0.37706 0.46143 0.13976 0.0
H1191 H 0.3355 0.50198 0.10401 0.0
H1192 H 0.28737 0.45179 0.10249 0.0
H1193 H 0.36482 0.53993 0.13259 0.0
H1194 H 0.38919 0.48167 0.0869 0.0
H1195 H 0.39542 0.43746 0.07603 0.0
H1196 H 0.46365 0.45741 0.1197 0.0
H1197 H 0.45751 0.50152 0.13099 0.0
C1198 C 0.49408 0.66128 0.10342 0.0
C1199 C 0.52269 0.67043 0.11263 0.0
C1200 C 0.46826 0.6313 0.10626 0.0
C1201 C 0.47038 0.60974 0.11839 0.0
C1202 C 0.49895 0.61867 0.12751 0.0
C1203 C 0.52478 0.64877 0.12476 0.0
C1204 C 0.44277 0.57785 0.12132 0.0
C1205 C 0.44523 0.55146 0.11649 0.0
C1206 C 0.41349 0.5735 0.12751 0.0
C1207 C 0.40974 0.60018 0.1339 0.0
C1208 C 0.42909 0.62055 0.14824 0.0
C1209 C 0.42565 0.64581 0.15408 0.0
C1210 C 0.40279 0.65084 0.14579 0.0
C1211 C 0.38328 0.63057 0.13165 0.0
C1212 C 0.38665 0.60529 0.12574 0.0
C1213 C 0.32981 0.43018 0.13058 0.0
C1214 C 0.30398 0.42678 0.12011 0.0
C1215 C 0.35758 0.45936 0.13151 0.0
C1216 C 0.36007 0.48562 0.12191 0.0
C1217 C 0.33423 0.48221 0.1116 0.0
C1218 C 0.30663 0.45328 0.1107 0.0
C1219 C 0.38935 0.51683 0.12236 0.0
C1220 C 0.38723 0.54314 0.12787 0.0
C1221 C 0.41887 0.52108 0.11673 0.0
C1222 C 0.42261 0.49463 0.10993 0.0
C1223 C 0.40533 0.47646 0.09428 0.0
C1224 C 0.40888 0.45146 0.08803 0.0
C1225 C 0.42984 0.44456 0.09721 0.0
C1226 C 0.44737 0.46273 0.11263 0.0
C1227 C 0.44387 0.48774 0.11896 0.0
H1228 H 0.43256 0.4252 0.09234 0.0
H1229 H 0.40016 0.6704 0.15033 0.0
H1230 H 0.88949 0.53462 0.63815 0.0
H1231 H 0.89469 0.48834 0.64387 0.0
H1232 H 0.82632 0.43815 0.60021 0.0
H1233 H 0.82065 0.48411 0.59463 0.0
H1234 H 0.81675 0.40178 0.63182 0.0
H1235 H 0.9034 0.47024 0.5909 0.0
H1236 H 0.95069 0.51988 0.58209 0.0
H1237 H 0.99763 0.51415 0.63204 0.0
H1238 H 0.95042 0.46465 0.64128 0.0
H1239 H 0.84133 0.28113 0.60128 0.0
H1240 H 0.8376 0.32814 0.60475 0.0
H1241 H 0.91089 0.36338 0.64686 0.0
H1242 H 0.91521 0.31599 0.64326 0.0
H1243 H 0.91961 0.40846 0.62156 0.0
H1244 H 0.83481 0.33558 0.66003 0.0
H1245 H 0.78753 0.28569 0.6684 0.0
H1246 H 0.73661 0.29929 0.62347 0.0
H1247 H 0.78376 0.349 0.61456 0.0
C1248 C 0.87528 0.51359 0.62993 0.0
C1249 C 0.85474 0.51309 0.61587 0.0
C1250 C 0.87845 0.48724 0.63313 0.0
C1251 C 0.86111 0.45985 0.62235 0.0
C1252 C 0.83999 0.45903 0.60868 0.0
C1253 C 0.83694 0.48539 0.6054 0.0
C1254 C 0.8654 0.43223 0.62489 0.0
C1255 C 0.83918 0.40316 0.62948 0.0
C1256 C 0.8949 0.43425 0.62245 0.0
C1257 C 0.92327 0.46397 0.6169 0.0
C1258 C 0.92371 0.47971 0.60009 0.0
C1259 C 0.95051 0.50779 0.595 0.0
C1260 C 0.97711 0.52022 0.60653 0.0
C1261 C 0.97699 0.50453 0.62314 0.0
C1262 C 0.95022 0.47646 0.62831 0.0
C1263 C 0.85672 0.2987 0.61136 0.0
C1264 C 0.87858 0.29461 0.62203 0.0
C1265 C 0.85436 0.32559 0.61341 0.0
C1266 C 0.87353 0.34909 0.62632 0.0
C1267 C 0.89568 0.34542 0.6369 0.0
C1268 C 0.89812 0.31834 0.63483 0.0
C1269 C 0.87077 0.37776 0.62805 0.0
C1270 C 0.89725 0.40707 0.62425 0.0
C1271 C 0.84147 0.37594 0.63123 0.0
C1272 C 0.81297 0.34599 0.63654 0.0
C1273 C 0.81363 0.32784 0.65182 0.0
C1274 C 0.78683 0.29959 0.65667 0.0
C1275 C 0.7591 0.28931 0.64645 0.0
C1276 C 0.75812 0.30728 0.63136 0.0
C1277 C 0.78488 0.33552 0.62641 0.0
H1278 H 0.73837 0.26744 0.65024 0.0
H1279 H 0.99784 0.54195 0.60256 0.0
H1280 H 0.61262 0.92899 0.13873 0.0
H1281 H 0.56241 0.9283 0.13844 0.0
H1282 H 0.52455 0.84964 0.09996 0.0
H1283 H 0.57414 0.8502 0.10005 0.0
H1284 H 0.51125 0.89398 0.0883 0.0
H1285 H 0.50604 0.84018 0.1472 0.0
H1286 H 0.5246 0.83582 0.17901 0.0
H1287 H 0.51722 0.91463 0.19833 0.0
H1288 H 0.49901 0.91972 0.16653 0.0
H1289 H 0.34864 0.82632 0.09024 0.0
H1290 H 0.40214 0.83679 0.09421 0.0
H1291 H 0.42014 0.90992 0.13456 0.0
H1292 H 0.36606 0.89914 0.13081 0.0
H1293 H 0.44675 0.87675 0.14627 0.0
H1294 H 0.44755 0.92795 0.08852 0.0
H1295 H 0.42928 0.933 0.05677 0.0
H1296 H 0.44615 0.86115 0.03518 0.0
H1297 H 0.46409 0.85533 0.06688 0.0
C1298 C 0.5936 0.91157 0.1302 0.0
C1299 C 0.59757 0.88967 0.11942 0.0
C1300 C 0.56486 0.91113 0.13011 0.0
C1301 C 0.53961 0.88882 0.11922 0.0
C1302 C 0.54365 0.86713 0.10843 0.0
C1303 C 0.57213 0.86745 0.10857 0.0
C1304 C 0.50888 0.88784 0.11872 0.0
C1305 C 0.49708 0.89002 0.10097 0.0
C1306 C 0.49078 0.88375 0.1353 0.0
C1307 C 0.50152 0.88056 0.15443 0.0
C1308 C 0.50862 0.85674 0.15818 0.0
C1309 C 0.51903 0.8541 0.17622 0.0
C1310 C 0.52218 0.875 0.19066 0.0
C1311 C 0.51483 0.8985 0.18711 0.0
C1312 C 0.50445 0.90127 0.16909 0.0
C1313 C 0.36399 0.84478 0.09989 0.0
C1314 C 0.35318 0.86222 0.10999 0.0
C1315 C 0.39464 0.85076 0.10216 0.0
C1316 C 0.41553 0.87465 0.11437 0.0
C1317 C 0.40458 0.89149 0.12497 0.0
C1318 C 0.37367 0.88531 0.12281 0.0
C1319 C 0.44874 0.88196 0.11574 0.0
C1320 C 0.46106 0.8811 0.13362 0.0
C1321 C 0.4675 0.88746 0.09927 0.0
C1322 C 0.45698 0.89107 0.08012 0.0
C1323 C 0.44718 0.91309 0.07703 0.0
C1324 C 0.43691 0.9161 0.05904 0.0
C1325 C 0.43651 0.89737 0.04397 0.0
C1326 C 0.44646 0.87563 0.04686 0.0
C1327 C 0.45673 0.8725 0.06483 0.0
H1328 H 0.42853 0.89973 0.03006 0.0
H1329 H 0.53025 0.87292 0.20461 0.0
H1330 H 0.6941 0.614 0.6284 0.0
H1331 H 0.64581 0.56272 0.62909 0.0
H1332 H 0.70082 0.51669 0.62752 0.0
H1333 H 0.74868 0.56751 0.62614 0.0
H1334 H 0.65803 0.49184 0.60229 0.0
H1335 H 0.6586 0.51815 0.6681 0.0
H1336 H 0.66031 0.55088 0.69516 0.0
H1337 H 0.57529 0.54592 0.67603 0.0
H1338 H 0.57331 0.51357 0.64867 0.0
H1339 H 0.53595 0.33601 0.61698 0.0
H1340 H 0.58217 0.38719 0.62314 0.0
H1341 H 0.52612 0.43155 0.61749 0.0
H1342 H 0.47965 0.3804 0.6118 0.0
H1343 H 0.56841 0.45705 0.64689 0.0
H1344 H 0.5697 0.43175 0.5806 0.0
H1345 H 0.56846 0.39864 0.55389 0.0
H1346 H 0.65143 0.40134 0.57507 0.0
H1347 H 0.65291 0.43414 0.60206 0.0
C1348 C 0.6958 0.59289 0.6285 0.0
C1349 C 0.72513 0.59475 0.62706 0.0
C1350 C 0.6682 0.56357 0.62894 0.0
C1351 C 0.66956 0.53567 0.62837 0.0
C1352 C 0.69901 0.53774 0.6278 0.0
C1353 C 0.72641 0.56686 0.62705 0.0
C1354 C 0.64062 0.50432 0.62704 0.0
C1355 C 0.63871 0.48415 0.61228 0.0
C1356 C 0.61492 0.49437 0.63971 0.0
C1357 C 0.61598 0.51368 0.65622 0.0
C1358 C 0.64039 0.52423 0.66958 0.0
C1359 C 0.6414 0.54269 0.68498 0.0
C1360 C 0.61797 0.55052 0.68729 0.0
C1361 C 0.59344 0.53986 0.67421 0.0
C1362 C 0.59236 0.52145 0.65876 0.0
C1363 C 0.53334 0.35658 0.61733 0.0
C1364 C 0.50413 0.3541 0.6137 0.0
C1365 C 0.55983 0.38586 0.62073 0.0
C1366 C 0.5577 0.41328 0.62054 0.0
C1367 C 0.52837 0.41076 0.61764 0.0
C1368 C 0.50189 0.38152 0.6142 0.0
C1369 C 0.58627 0.44469 0.62237 0.0
C1370 C 0.58795 0.46484 0.63706 0.0
C1371 C 0.61196 0.45464 0.60975 0.0
C1372 C 0.61124 0.43514 0.59344 0.0
C1373 C 0.58755 0.4251 0.57963 0.0
C1374 C 0.58682 0.40642 0.56443 0.0
C1375 C 0.6098 0.39783 0.56281 0.0
C1376 C 0.63362 0.40798 0.57636 0.0
C1377 C 0.63443 0.42664 0.5916 0.0
H1378 H 0.6092 0.38336 0.55103 0.0
H1379 H 0.61879 0.56481 0.69923 0.0
H1380 H 0.32035 0.90575 0.36297 0.0
H1381 H 0.36902 0.9034 0.36317 0.0
H1382 H 0.35298 0.87466 0.42207 0.0
H1383 H 0.30435 0.8765 0.4219 0.0
H1384 H 0.41546 0.92057 0.41417 0.0
H1385 H 0.33507 0.82085 0.39071 0.0
H1386 H 0.2922 0.78551 0.36938 0.0
H1387 H 0.35444 0.82127 0.3213 0.0
H1388 H 0.39761 0.8572 0.34234 0.0
H1389 H 0.50979 0.8531 0.43079 0.0
H1390 H 0.46512 0.86117 0.42688 0.0
H1391 H 0.48659 0.88008 0.36711 0.0
H1392 H 0.53163 0.87225 0.37093 0.0
H1393 H 0.42377 0.84302 0.37307 0.0
H1394 H 0.50583 0.93996 0.39771 0.0
H1395 H 0.54811 0.97394 0.41979 0.0
H1396 H 0.48234 0.94302 0.46619 0.0
H1397 H 0.43973 0.90848 0.44443 0.0
C1398 C 0.32744 0.89933 0.37601 0.0
C1399 C 0.30849 0.89126 0.39241 0.0
C1400 C 0.35514 0.89783 0.37608 0.0
C1401 C 0.36452 0.88868 0.39262 0.0
C1402 C 0.34621 0.88178 0.40916 0.0
C1403 C 0.31836 0.88276 0.40902 0.0
C1404 C 0.39279 0.88518 0.39267 0.0
C1405 C 0.41723 0.90352 0.40526 0.0
C1406 C 0.39534 0.86334 0.38078 0.0
C1407 C 0.36945 0.84197 0.36806 0.0
C1408 C 0.33953 0.82141 0.37556 0.0
C1409 C 0.3152 0.80123 0.36354 0.0
C1410 C 0.32058 0.80119 0.344 0.0
C1411 C 0.3503 0.82137 0.33644 0.0
C1412 C 0.37472 0.84164 0.34841 0.0
C1413 C 0.50518 0.85915 0.41681 0.0
C1414 C 0.52458 0.86233 0.40122 0.0
C1415 C 0.47956 0.86372 0.4146 0.0
C1416 C 0.47276 0.87177 0.39676 0.0
C1417 C 0.49141 0.87398 0.38102 0.0
C1418 C 0.51711 0.86938 0.38322 0.0
C1419 C 0.44641 0.87823 0.39473 0.0
C1420 C 0.42228 0.86041 0.38179 0.0
C1421 C 0.4441 0.90054 0.40634 0.0
C1422 C 0.46963 0.92144 0.41946 0.0
C1423 C 0.50042 0.94023 0.41265 0.0
C1424 C 0.52444 0.95962 0.4251 0.0
C1425 C 0.51793 0.96059 0.44439 0.0
C1426 C 0.48736 0.94223 0.45125 0.0
C1427 C 0.46325 0.92277 0.43886 0.0
H1428 H 0.53656 0.97561 0.45401 0.0
H1429 H 0.30173 0.78541 0.33475 0.0
H1430 H 0.68639 0.48087 0.90118 0.0
H1431 H 0.63444 0.43557 0.89553 0.0
H1432 H 0.59602 0.497 0.89 0.0
H1433 H 0.64785 0.54234 0.89577 0.0
H1434 H 0.55901 0.44909 0.91158 0.0
H1435 H 0.60726 0.46053 0.85087 0.0
H1436 H 0.64805 0.46623 0.82815 0.0
H1437 H 0.63492 0.37676 0.84543 0.0
H1438 H 0.59434 0.37071 0.86846 0.0
H1439 H 0.41063 0.32513 0.8786 0.0
H1440 H 0.46155 0.37394 0.87842 0.0
H1441 H 0.50778 0.32159 0.89172 0.0
H1442 H 0.45737 0.27306 0.89203 0.0
H1443 H 0.53932 0.36694 0.86391 0.0
H1444 H 0.49369 0.35822 0.92624 0.0
H1445 H 0.45249 0.35275 0.94855 0.0
H1446 H 0.46042 0.43815 0.92715 0.0
H1447 H 0.50137 0.44386 0.9045 0.0
C1448 C 0.66696 0.48477 0.89853 0.0
C1449 C 0.67133 0.51527 0.89896 0.0
C1450 C 0.63722 0.45882 0.89529 0.0
C1451 C 0.61124 0.46279 0.89213 0.0
C1452 C 0.6156 0.49324 0.89244 0.0
C1453 C 0.64528 0.51916 0.89579 0.0
C1454 C 0.57938 0.43516 0.88911 0.0
C1455 C 0.55465 0.43146 0.9009 0.0
C1456 C 0.57359 0.41179 0.87538 0.0
C1457 C 0.59794 0.4153 0.86151 0.0
C1458 C 0.61323 0.44217 0.84993 0.0
C1459 C 0.63629 0.44545 0.83698 0.0
C1460 C 0.64412 0.42191 0.83538 0.0
C1461 C 0.62885 0.395 0.8467 0.0
C1462 C 0.6058 0.39162 0.85969 0.0
C1463 C 0.43169 0.32402 0.88132 0.0
C1464 C 0.42988 0.29522 0.88548 0.0
C1465 C 0.46074 0.35193 0.88127 0.0
C1466 C 0.48846 0.35143 0.88519 0.0
C1467 C 0.48675 0.32257 0.88866 0.0
C1468 C 0.45782 0.29484 0.88894 0.0
C1469 C 0.51924 0.38089 0.88647 0.0
C1470 C 0.54373 0.38485 0.8744 0.0
C1471 C 0.52478 0.40459 0.89986 0.0
C1472 C 0.5003 0.40126 0.91352 0.0
C1473 C 0.48645 0.37568 0.92618 0.0
C1474 C 0.46318 0.37256 0.9389 0.0
C1475 C 0.45377 0.39504 0.93922 0.0
C1476 C 0.46768 0.42072 0.92686 0.0
C1477 C 0.49093 0.42392 0.91408 0.0
H1478 H 0.43576 0.39259 0.94909 0.0
H1479 H 0.66198 0.42449 0.82534 0.0
H1480 H 0.1549 0.66524 0.37035 0.0
H1481 H 0.1482 0.6132 0.36455 0.0
H1482 H 0.18905 0.61602 0.41926 0.0
H1483 H 0.19667 0.66834 0.4249 0.0
H1484 H 0.2106 0.59224 0.39284 0.0
H1485 H 0.10924 0.57544 0.41236 0.0
H1486 H 0.0628 0.58185 0.41031 0.0
H1487 H 0.04414 0.543 0.35395 0.0
H1488 H 0.09075 0.53674 0.35557 0.0
H1489 H 0.15885 0.43641 0.41582 0.0
H1490 H 0.16515 0.48858 0.41465 0.0
H1491 H 0.12521 0.47018 0.35835 0.0
H1492 H 0.11845 0.41718 0.35946 0.0
H1493 H 0.10418 0.50221 0.3809 0.0
H1494 H 0.20287 0.51367 0.36307 0.0
H1495 H 0.24815 0.50554 0.36614 0.0
H1496 H 0.2717 0.55382 0.41973 0.0
H1497 H 0.22625 0.56181 0.41714 0.0
C1498 C 0.16287 0.65499 0.38104 0.0
C1499 C 0.17615 0.67097 0.39816 0.0
C1500 C 0.15875 0.62507 0.37777 0.0
C1501 C 0.16773 0.61043 0.39157 0.0
C1502 C 0.18181 0.62671 0.40842 0.0
C1503 C 0.1859 0.65656 0.41169 0.0
C1504 C 0.16196 0.57794 0.38879 0.0
C1505 C 0.1873 0.57256 0.39034 0.0
C1506 C 0.1317 0.55227 0.38498 0.0
C1507 C 0.10368 0.55598 0.384 0.0
C1508 C 0.09538 0.56851 0.39947 0.0
C1509 C 0.069 0.57207 0.3984 0.0
C1510 C 0.05059 0.56294 0.38198 0.0
C1511 C 0.05847 0.55013 0.36663 0.0
C1512 C 0.08485 0.54656 0.36762 0.0
C1513 C 0.15118 0.44322 0.40317 0.0
C1514 C 0.13839 0.42261 0.38764 0.0
C1515 C 0.15494 0.47321 0.40251 0.0
C1516 C 0.14631 0.4836 0.38626 0.0
C1517 C 0.13227 0.46273 0.37099 0.0
C1518 C 0.12838 0.43246 0.37165 0.0
C1519 C 0.15271 0.5165 0.38536 0.0
C1520 C 0.12755 0.52196 0.38311 0.0
C1521 C 0.18315 0.54228 0.38854 0.0
C1522 C 0.21099 0.53817 0.38996 0.0
C1523 C 0.2176 0.52242 0.37556 0.0
C1524 C 0.24331 0.51783 0.37722 0.0
C1525 C 0.26276 0.5291 0.39314 0.0
C1526 C 0.25661 0.54509 0.4074 0.0
C1527 C 0.23089 0.5497 0.40584 0.0
H1528 H 0.28261 0.52546 0.39441 0.0
H1529 H 0.03017 0.5657 0.38118 0.0
H1530 H 0.70021 0.09222 0.86987 0.0
H1531 H 0.65086 0.09319 0.87017 0.0
H1532 H 0.69658 0.18177 0.89969 0.0
H1533 H 0.74545 0.18094 0.89963 0.0
H1534 H 0.64208 0.14196 0.91638 0.0
H1535 H 0.67906 0.1768 0.85217 0.0
H1536 H 0.6967 0.1718 0.82012 0.0
H1537 H 0.60891 0.08753 0.81068 0.0
H1538 H 0.59092 0.09179 0.8428 0.0
H1539 H 0.53774 0.19929 0.90902 0.0
H1540 H 0.58319 0.19227 0.90537 0.0
H1541 H 0.52657 0.10605 0.8748 0.0
H1542 H 0.481 0.11313 0.87827 0.0
H1543 H 0.58313 0.13872 0.85848 0.0
H1544 H 0.54481 0.10503 0.9217 0.0
H1545 H 0.52686 0.10915 0.95382 0.0
H1546 H 0.61667 0.18964 0.96539 0.0
H1547 H 0.63503 0.18628 0.93322 0.0
C1548 C 0.69976 0.11196 0.87633 0.0
C1549 C 0.72684 0.13641 0.8848 0.0
C1550 C 0.67156 0.11252 0.87645 0.0
C1551 C 0.67002 0.1376 0.88494 0.0
C1552 C 0.69711 0.16209 0.89316 0.0
C1553 C 0.72513 0.16156 0.89307 0.0
C1554 C 0.64027 0.13842 0.88579 0.0
C1555 C 0.62936 0.14153 0.90369 0.0
C1556 C 0.62308 0.13685 0.86931 0.0
C1557 C 0.63378 0.13442 0.84996 0.0
C1558 C 0.66361 0.15707 0.84331 0.0
C1559 C 0.67366 0.15439 0.82513 0.0
C1560 C 0.65398 0.12931 0.8134 0.0
C1561 C 0.62416 0.10691 0.8198 0.0
C1562 C 0.61402 0.10946 0.83799 0.0
C1563 C 0.53494 0.17881 0.90155 0.0
C1564 C 0.50569 0.15666 0.89407 0.0
C1565 C 0.56095 0.1748 0.89946 0.0
C1566 C 0.55821 0.14832 0.89009 0.0
C1567 C 0.52926 0.12663 0.88211 0.0
C1568 C 0.50325 0.13074 0.88408 0.0
C1569 C 0.58543 0.14307 0.88905 0.0
C1570 C 0.59575 0.13896 0.87117 0.0
C1571 C 0.60209 0.14358 0.90556 0.0
C1572 C 0.5912 0.14554 0.92498 0.0
C1573 C 0.56067 0.12373 0.93104 0.0
C1574 C 0.55043 0.12592 0.94927 0.0
C1575 C 0.57059 0.14968 0.96162 0.0
C1576 C 0.60107 0.17126 0.9558 0.0
C1577 C 0.61141 0.16921 0.93757 0.0
H1578 H 0.56262 0.15133 0.97573 0.0
H1579 H 0.6618 0.12727 0.79932 0.0
H1580 H 0.34521 0.54188 0.40496 0.0
H1581 H 0.39836 0.58629 0.40123 0.0
H1582 H 0.42952 0.52411 0.38019 0.0
H1583 H 0.37657 0.47942 0.38439 0.0
H1584 H 0.47079 0.56507 0.40544 0.0
H1585 H 0.419 0.57152 0.34978 0.0
H1586 H 0.37728 0.57315 0.33142 0.0
H1587 H 0.39607 0.65776 0.36014 0.0
H1588 H 0.43763 0.6564 0.37889 0.0
H1589 H 0.61911 0.69577 0.37497 0.0
H1590 H 0.56796 0.64721 0.37434 0.0
H1591 H 0.52452 0.69648 0.39884 0.0
H1592 H 0.57499 0.74462 0.39954 0.0
H1593 H 0.49091 0.65959 0.36884 0.0
H1594 H 0.54026 0.65066 0.42598 0.0
H1595 H 0.58232 0.64914 0.44407 0.0
H1596 H 0.56839 0.569 0.41194 0.0
H1597 H 0.5266 0.57037 0.39343 0.0
C1598 C 0.36338 0.5376 0.39961 0.0
C1599 C 0.35654 0.50705 0.39491 0.0
C1600 C 0.39374 0.56307 0.39734 0.0
C1601 C 0.41796 0.55864 0.39024 0.0
C1602 C 0.41126 0.52816 0.38563 0.0
C1603 C 0.38087 0.50267 0.38787 0.0
C1604 C 0.45025 0.58582 0.38779 0.0
C1605 C 0.47527 0.58551 0.39716 0.0
C1606 C 0.45615 0.61269 0.37717 0.0
C1607 C 0.43127 0.6137 0.36586 0.0
C1608 C 0.41409 0.59035 0.35229 0.0
C1609 C 0.39049 0.59124 0.34179 0.0
C1610 C 0.38398 0.6155 0.34464 0.0
C1611 C 0.40112 0.63897 0.35796 0.0
C1612 C 0.42473 0.63816 0.36851 0.0
C1613 C 0.59864 0.69622 0.38019 0.0
C1614 C 0.60128 0.7241 0.3874 0.0
C1615 C 0.56945 0.66845 0.37987 0.0
C1616 C 0.54241 0.6682 0.38662 0.0
C1617 C 0.545 0.69609 0.39354 0.0
C1618 C 0.57403 0.72362 0.39402 0.0
C1619 C 0.51126 0.63904 0.38676 0.0
C1620 C 0.48646 0.63898 0.37694 0.0
C1621 C 0.50563 0.61186 0.39692 0.0
C1622 C 0.53056 0.61085 0.40816 0.0
C1623 C 0.54635 0.63288 0.42266 0.0
C1624 C 0.57011 0.63202 0.433 0.0
C1625 C 0.57808 0.60904 0.42912 0.0
C1626 C 0.56224 0.58682 0.41491 0.0
C1627 C 0.53852 0.58763 0.40448 0.0
H1628 H 0.59646 0.6084 0.43716 0.0
H1629 H 0.3657 0.61615 0.3365 0.0
H1630 H 0.93467 0.61232 0.87662 0.0
H1631 H 0.93279 0.5615 0.87597 0.0
H1632 H 0.83225 0.51397 0.88267 0.0
H1633 H 0.83424 0.56434 0.88408 0.0
H1634 H 0.85371 0.4905 0.90642 0.0
H1635 H 0.87183 0.51482 0.83958 0.0
H1636 H 0.89973 0.54687 0.8115 0.0
H1637 H 0.98237 0.54397 0.82727 0.0
H1638 H 0.95507 0.51222 0.85559 0.0
H1639 H 0.81722 0.3342 0.89023 0.0
H1640 H 0.82214 0.38572 0.88543 0.0
H1641 H 0.92283 0.42886 0.88582 0.0
H1642 H 0.91811 0.37736 0.89009 0.0
H1643 H 0.90342 0.45497 0.85855 0.0
H1644 H 0.88433 0.43027 0.92531 0.0
H1645 H 0.85571 0.3977 0.95308 0.0
H1646 H 0.77355 0.40109 0.93672 0.0
H1647 H 0.80157 0.43334 0.9087 0.0
C1648 C 0.91219 0.59096 0.87766 0.0
C1649 C 0.88465 0.59232 0.88053 0.0
C1650 C 0.91108 0.56188 0.87725 0.0
C1651 C 0.88232 0.53368 0.87924 0.0
C1652 C 0.85477 0.53522 0.88128 0.0
C1653 C 0.85593 0.56411 0.88203 0.0
C1654 C 0.88067 0.50257 0.8804 0.0
C1655 C 0.86422 0.48266 0.89573 0.0
C1656 C 0.89509 0.49243 0.86685 0.0
C1657 C 0.9115 0.51142 0.84981 0.0
C1658 C 0.89602 0.52122 0.83714 0.0
C1659 C 0.91172 0.53929 0.82116 0.0
C1660 C 0.94283 0.54752 0.81763 0.0
C1661 C 0.95829 0.53762 0.83004 0.0
C1662 C 0.94271 0.51956 0.84604 0.0
C1663 C 0.84042 0.35457 0.88902 0.0
C1664 C 0.86726 0.3516 0.89073 0.0
C1665 C 0.84321 0.38407 0.88642 0.0
C1666 C 0.87288 0.41128 0.88552 0.0
C1667 C 0.8997 0.40828 0.88654 0.0
C1668 C 0.89694 0.37881 0.88918 0.0
C1669 C 0.87594 0.44292 0.8843 0.0
C1670 C 0.89282 0.46292 0.86911 0.0
C1671 C 0.86177 0.45316 0.8979 0.0
C1672 C 0.84496 0.43397 0.91482 0.0
C1673 C 0.86009 0.42388 0.92756 0.0
C1674 C 0.84399 0.40551 0.94336 0.0
C1675 C 0.81281 0.39727 0.94663 0.0
C1676 C 0.79769 0.40746 0.93415 0.0
C1677 C 0.81368 0.4258 0.91832 0.0
H1678 H 0.80038 0.38304 0.95887 0.0
H1679 H 0.95494 0.56152 0.80526 0.0
H1680 H 0.15912 0.31111 0.32544 0.0
H1681 H 0.17413 0.32036 0.29197 0.0
H1682 H 0.21809 0.42017 0.30085 0.0
H1683 H 0.20333 0.41099 0.33483 0.0
H1684 H 0.17496 0.39523 0.2684 0.0
H1685 H 0.26505 0.39536 0.29296 0.0
H1686 H 0.29366 0.37619 0.31236 0.0
H1687 H 0.25028 0.28934 0.28152 0.0
H1688 H 0.22102 0.30778 0.26212 0.0
H1689 H 0.22118 0.40528 0.16952 0.0
H1690 H 0.22117 0.41481 0.20382 0.0
H1691 H 0.19247 0.31795 0.21511 0.0
H1692 H 0.19322 0.30855 0.18116 0.0
H1693 H 0.23776 0.35361 0.23809 0.0
H1694 H 0.1415 0.34891 0.21779 0.0
H1695 H 0.11016 0.36552 0.19893 0.0
H1696 H 0.16275 0.45847 0.22194 0.0
H1697 H 0.19466 0.44248 0.24078 0.0
C1698 C 0.17224 0.33509 0.32037 0.0
C1699 C 0.18005 0.36034 0.33278 0.0
C1700 C 0.18086 0.34033 0.30123 0.0
C1701 C 0.19726 0.37093 0.29393 0.0
C1702 C 0.20545 0.39636 0.30624 0.0
C1703 C 0.19722 0.39112 0.32563 0.0
C1704 C 0.20471 0.37552 0.27326 0.0
C1705 C 0.18933 0.38689 0.26174 0.0
C1706 C 0.22295 0.36406 0.26461 0.0
C1707 C 0.24071 0.35292 0.27613 0.0
C1708 C 0.26144 0.37208 0.29039 0.0
C1709 C 0.2778 0.36136 0.30138 0.0
C1710 C 0.27376 0.33155 0.29819 0.0
C1711 C 0.25339 0.31243 0.28397 0.0
C1712 C 0.23695 0.32303 0.27295 0.0
C1713 C 0.21464 0.38599 0.17933 0.0
C1714 C 0.20726 0.35617 0.17258 0.0
C1715 C 0.21462 0.39146 0.19895 0.0
C1716 C 0.20676 0.36709 0.21213 0.0
C1717 C 0.19887 0.33723 0.2053 0.0
C1718 C 0.19919 0.33185 0.18582 0.0
C1719 C 0.20705 0.37223 0.23307 0.0
C1720 C 0.22393 0.36263 0.24467 0.0
C1721 C 0.18995 0.38505 0.24175 0.0
C1722 C 0.17071 0.39462 0.2305 0.0
C1723 C 0.14653 0.37296 0.21871 0.0
C1724 C 0.12864 0.38224 0.20805 0.0
C1725 C 0.13453 0.41306 0.20918 0.0
C1726 C 0.15826 0.43463 0.22104 0.0
C1727 C 0.17624 0.42547 0.23172 0.0
H1728 H 0.12066 0.42021 0.20091 0.0
H1729 H 0.28645 0.32328 0.30672 0.0
H1730 H 0.82121 0.21343 0.6692 0.0
H1731 H 0.809 0.20754 0.70347 0.0
H1732 H 0.86159 0.15977 0.71051 0.0
H1733 H 0.87431 0.16605 0.67657 0.0
H1734 H 0.80137 0.13077 0.72955 0.0
H1735 H 0.89599 0.23279 0.7213 0.0
H1736 H 0.92534 0.286 0.70761 0.0
H1737 H 0.85906 0.3087 0.7319 0.0
H1738 H 0.82906 0.25541 0.74552 0.0
H1739 H 0.84186 0.13109 0.82378 0.0
H1740 H 0.8428 0.1398 0.78963 0.0
H1741 H 0.80659 0.20249 0.79865 0.0
H1742 H 0.80646 0.19451 0.83322 0.0
H1743 H 0.84946 0.22476 0.77113 0.0
H1744 H 0.75836 0.12706 0.78297 0.0
H1745 H 0.72638 0.07394 0.79636 0.0
H1746 H 0.78043 0.04252 0.76495 0.0
H1747 H 0.81308 0.09559 0.75158 0.0
C1748 C 0.82985 0.20139 0.67805 0.0
C1749 C 0.8488 0.1903 0.67023 0.0
C1750 C 0.82298 0.19816 0.6976 0.0
C1751 C 0.83452 0.18333 0.70951 0.0
C1752 C 0.85246 0.17128 0.70157 0.0
C1753 C 0.85979 0.17499 0.68218 0.0
C1754 C 0.82905 0.18108 0.73039 0.0
C1755 C 0.81192 0.15126 0.73867 0.0
C1756 C 0.84184 0.20793 0.7422 0.0
C1757 C 0.86009 0.24003 0.73423 0.0
C1758 C 0.88754 0.24905 0.72359 0.0
C1759 C 0.90431 0.27923 0.71587 0.0
C1760 C 0.89401 0.30068 0.71883 0.0
C1761 C 0.86697 0.29203 0.72958 0.0
C1762 C 0.85009 0.26185 0.73731 0.0
C1763 C 0.83418 0.14686 0.81857 0.0
C1764 C 0.82379 0.16188 0.83123 0.0
C1765 C 0.83458 0.15169 0.79898 0.0
C1766 C 0.82397 0.17115 0.79147 0.0
C1767 C 0.81463 0.18715 0.80409 0.0
C1768 C 0.81459 0.18259 0.82383 0.0
C1769 C 0.82258 0.17424 0.77043 0.0
C1770 C 0.83836 0.2042 0.76208 0.0
C1771 C 0.80804 0.14748 0.7585 0.0
C1772 C 0.7883 0.11539 0.76636 0.0
C1773 C 0.76356 0.10888 0.779 0.0
C1774 C 0.7453 0.07876 0.78658 0.0
C1775 C 0.7514 0.05488 0.78153 0.0
C1776 C 0.77574 0.06105 0.76885 0.0
C1777 C 0.79411 0.09114 0.76125 0.0
H1778 H 0.73724 0.03158 0.78742 0.0
H1779 H 0.90702 0.32404 0.71283 0.0
H1780 H 0.66135 0.90368 0.18266 0.0
H1781 H 0.65233 0.89164 0.2166 0.0
H1782 H 0.63813 0.79906 0.20595 0.0
H1783 H 0.64529 0.81055 0.17167 0.0
H1784 H 0.60197 0.79493 0.23372 0.0
H1785 H 0.71078 0.86285 0.22093 0.0
H1786 H 0.75759 0.90954 0.20826 0.0
H1787 H 0.73849 0.96892 0.24391 0.0
H1788 H 0.69128 0.92257 0.2566 0.0
H1789 H 0.66748 0.78053 0.32267 0.0
H1790 H 0.65723 0.78666 0.28932 0.0
H1791 H 0.63289 0.85625 0.30557 0.0
H1792 H 0.64217 0.84947 0.33921 0.0
H1793 H 0.68532 0.87235 0.27597 0.0
H1794 H 0.57729 0.79857 0.29081 0.0
H1795 H 0.5344 0.74892 0.30365 0.0
H1796 H 0.55766 0.69696 0.26422 0.0
H1797 H 0.60104 0.74632 0.25135 0.0
C1798 C 0.65586 0.8806 0.18755 0.0
C1799 C 0.65437 0.85815 0.17463 0.0
C1800 C 0.65088 0.87378 0.20697 0.0
C1801 C 0.64553 0.84477 0.214 0.0
C1802 C 0.64244 0.8217 0.20095 0.0
C1803 C 0.64658 0.82826 0.18138 0.0
C1804 C 0.64501 0.83934 0.23493 0.0
C1805 C 0.62033 0.8118 0.2429 0.0
C1806 C 0.66885 0.86135 0.24707 0.0
C1807 C 0.69732 0.88927 0.23956 0.0
C1808 C 0.71645 0.88588 0.22597 0.0
C1809 C 0.74306 0.91228 0.21879 0.0
C1810 C 0.75096 0.94218 0.22523 0.0
C1811 C 0.73231 0.94574 0.23891 0.0
C1812 C 0.70563 0.91942 0.2461 0.0
C1813 C 0.65942 0.79675 0.31918 0.0
C1814 C 0.65571 0.81462 0.33349 0.0
C1815 C 0.65348 0.80014 0.30015 0.0
C1816 C 0.64428 0.82185 0.29504 0.0
C1817 C 0.63982 0.83925 0.30931 0.0
C1818 C 0.64504 0.83531 0.32847 0.0
C1819 C 0.64227 0.82823 0.27463 0.0
C1820 C 0.66674 0.85581 0.26676 0.0
C1821 C 0.6188 0.80587 0.26259 0.0
C1822 C 0.59262 0.77616 0.27024 0.0
C1823 C 0.57347 0.77656 0.285 0.0
C1824 C 0.54902 0.74846 0.29226 0.0
C1825 C 0.54336 0.7198 0.28479 0.0
C1826 C 0.56209 0.71918 0.27001 0.0
C1827 C 0.58659 0.74722 0.26271 0.0
H1828 H 0.52441 0.69807 0.29043 0.0
H1829 H 0.77157 0.9626 0.21966 0.0
H1830 H 0.81939 0.62288 0.67234 0.0
H1831 H 0.82353 0.61672 0.70673 0.0
H1832 H 0.83596 0.70881 0.71624 0.0
H1833 H 0.83224 0.71529 0.68221 0.0
H1834 H 0.87725 0.7002 0.73643 0.0
H1835 H 0.76538 0.64196 0.72394 0.0
H1836 H 0.71795 0.6006 0.70821 0.0
H1837 H 0.73581 0.53021 0.73115 0.0
H1838 H 0.78359 0.57119 0.7468 0.0
H1839 H 0.85553 0.70959 0.83276 0.0
H1840 H 0.84504 0.70524 0.79861 0.0
H1841 H 0.82683 0.60988 0.79952 0.0
H1842 H 0.8356 0.61372 0.83412 0.0
H1843 H 0.79052 0.61537 0.77369 0.0
H1844 H 0.90034 0.67224 0.7875 0.0
H1845 H 0.94782 0.7129 0.80355 0.0
H1846 H 0.93505 0.78484 0.77782 0.0
H1847 H 0.88724 0.74459 0.76183 0.0
C1848 C 0.8232 0.64187 0.68176 0.0
C1849 C 0.82542 0.66955 0.67448 0.0
C1850 C 0.82537 0.63824 0.70142 0.0
C1851 C 0.82977 0.66221 0.71408 0.0
C1852 C 0.83255 0.69 0.70677 0.0
C1853 C 0.83034 0.69361 0.68725 0.0
C1854 C 0.83159 0.65888 0.735 0.0
C1855 C 0.85819 0.68175 0.74458 0.0
C1856 C 0.80715 0.63427 0.7456 0.0
C1857 C 0.77823 0.60966 0.73637 0.0
C1858 C 0.75931 0.61767 0.72552 0.0
C1859 C 0.73234 0.5943 0.71663 0.0
C1860 C 0.72393 0.5628 0.71863 0.0
C1861 C 0.74239 0.55461 0.72958 0.0
C1862 C 0.7694 0.5779 0.73847 0.0
C1863 C 0.84859 0.68748 0.82572 0.0
C1864 C 0.84657 0.66205 0.83594 0.0
C1865 C 0.84282 0.68506 0.80619 0.0
C1866 C 0.8362 0.65758 0.79634 0.0
C1867 C 0.83219 0.63141 0.80676 0.0
C1868 C 0.83715 0.63358 0.82649 0.0
C1869 C 0.83582 0.65724 0.77514 0.0
C1870 C 0.80968 0.63365 0.76553 0.0
C1871 C 0.86082 0.68108 0.76442 0.0
C1872 C 0.89013 0.70538 0.77354 0.0
C1873 C 0.90763 0.69673 0.7853 0.0
C1874 C 0.93458 0.7197 0.79439 0.0
C1875 C 0.94443 0.75143 0.79172 0.0
C1876 C 0.9274 0.76025 0.77987 0.0
C1877 C 0.90041 0.73737 0.77076 0.0
H1878 H 0.96526 0.76917 0.79881 0.0
H1879 H 0.70309 0.54473 0.71173 0.0
H1880 H 0.13534 0.75853 0.18571 0.0
H1881 H 0.15009 0.76101 0.21912 0.0
H1882 H 0.23226 0.8513 0.20907 0.0
H1883 H 0.21827 0.84787 0.17521 0.0
H1884 H 0.24509 0.8217 0.23547 0.0
H1885 H 0.16204 0.84363 0.2257 0.0
H1886 H 0.11085 0.83425 0.21415 0.0
H1887 H 0.06393 0.75111 0.24856 0.0
H1888 H 0.11491 0.75974 0.26009 0.0
H1889 H 0.24942 0.89336 0.32505 0.0
H1890 H 0.24547 0.87692 0.29186 0.0
H1891 H 0.1834 0.7809 0.30851 0.0
H1892 H 0.18799 0.79722 0.34206 0.0
H1893 H 0.16059 0.80868 0.27969 0.0
H1894 H 0.24776 0.79321 0.29183 0.0
H1895 H 0.30045 0.80812 0.30356 0.0
H1896 H 0.34123 0.88686 0.2654 0.0
H1897 H 0.2887 0.8725 0.25346 0.0
C1898 C 0.15696 0.77852 0.19058 0.0
C1899 C 0.17563 0.80311 0.17805 0.0
C1900 C 0.16527 0.78004 0.20968 0.0
C1901 C 0.19177 0.80679 0.2168 0.0
C1902 C 0.21159 0.83052 0.20397 0.0
C1903 C 0.20365 0.82859 0.18466 0.0
C1904 C 0.19711 0.81104 0.23772 0.0
C1905 C 0.22664 0.81901 0.2451 0.0
C1906 C 0.17302 0.80732 0.25042 0.0
C1907 C 0.1423 0.80213 0.24358 0.0
C1908 C 0.14081 0.82322 0.23069 0.0
C1909 C 0.11184 0.81805 0.22416 0.0
C1910 C 0.08416 0.79205 0.23057 0.0
C1911 C 0.0854 0.7712 0.24357 0.0
C1912 C 0.11432 0.77622 0.25011 0.0
C1913 C 0.23538 0.86865 0.32169 0.0
C1914 C 0.21884 0.84655 0.33607 0.0
C1915 C 0.23329 0.8593 0.30275 0.0
C1916 C 0.21422 0.82773 0.29776 0.0
C1917 C 0.19838 0.80537 0.31214 0.0
C1918 C 0.20106 0.81467 0.33124 0.0
C1919 C 0.20836 0.81907 0.27737 0.0
C1920 C 0.17879 0.8107 0.27006 0.0
C1921 C 0.23261 0.82323 0.26478 0.0
C1922 C 0.26425 0.83191 0.27186 0.0
C1923 C 0.26793 0.81385 0.28604 0.0
C1924 C 0.29778 0.82217 0.29272 0.0
C1925 C 0.32418 0.8485 0.28532 0.0
C1926 C 0.32077 0.86648 0.27114 0.0
C1927 C 0.29096 0.85821 0.26437 0.0
H1928 H 0.34726 0.85491 0.29054 0.0
H1929 H 0.06175 0.78809 0.2255 0.0
H1930 H 0.40789 0.21364 0.83518 0.0
H1931 H 0.41456 0.20893 0.80081 0.0
H1932 H 0.31658 0.177 0.79204 0.0
H1933 H 0.30981 0.18194 0.82602 0.0
H1934 H 0.33842 0.14019 0.77356 0.0
H1935 H 0.36761 0.24982 0.78226 0.0
H1936 H 0.39976 0.30246 0.79614 0.0
H1937 H 0.48284 0.30798 0.77246 0.0
H1938 H 0.45118 0.25513 0.75867 0.0
H1939 H 0.30768 0.14925 0.67884 0.0
H1940 H 0.31485 0.15857 0.71298 0.0
H1941 H 0.41516 0.20481 0.70552 0.0
H1942 H 0.40801 0.19653 0.67092 0.0
H1943 H 0.40112 0.23347 0.73267 0.0
H1944 H 0.37339 0.1279 0.72076 0.0
H1945 H 0.34314 0.07498 0.70695 0.0
H1946 H 0.26091 0.06028 0.73708 0.0
H1947 H 0.29053 0.11331 0.75085 0.0
C1948 C 0.38779 0.20549 0.8259 0.0
C1949 C 0.35834 0.19826 0.83331 0.0
C1950 C 0.39166 0.20293 0.8063 0.0
C1951 C 0.36607 0.19272 0.7939 0.0
C1952 C 0.33662 0.18491 0.80136 0.0
C1953 C 0.33284 0.18788 0.8208 0.0
C1954 C 0.36943 0.19014 0.77307 0.0
C1955 C 0.35205 0.16057 0.76459 0.0
C1956 C 0.38817 0.21657 0.76148 0.0
C1957 C 0.40709 0.24839 0.76964 0.0
C1958 C 0.39276 0.26214 0.78016 0.0
C1959 C 0.41089 0.29204 0.78798 0.0
C1960 C 0.44334 0.30851 0.78524 0.0
C1961 C 0.45771 0.29516 0.77461 0.0
C1962 C 0.43969 0.26525 0.76679 0.0
C1963 C 0.3313 0.16169 0.68442 0.0
C1964 C 0.35728 0.17186 0.67225 0.0
C1965 C 0.33539 0.16686 0.70398 0.0
C1966 C 0.36552 0.18153 0.71194 0.0
C1967 C 0.39167 0.19316 0.69973 0.0
C1968 C 0.38758 0.18846 0.67999 0.0
C1969 C 0.36915 0.18358 0.73304 0.0
C1970 C 0.38789 0.21296 0.74159 0.0
C1971 C 0.35203 0.15683 0.74479 0.0
C1972 C 0.33417 0.12469 0.73676 0.0
C1973 C 0.34882 0.11345 0.72437 0.0
C1974 C 0.33178 0.08343 0.71654 0.0
C1975 C 0.30012 0.06429 0.72111 0.0
C1976 C 0.28544 0.07512 0.73355 0.0
C1977 C 0.30235 0.10516 0.74139 0.0
H1978 H 0.28696 0.04106 0.71503 0.0
H1979 H 0.45733 0.33165 0.7913 0.0
H1980 H 0.27736 0.18228 0.94171 0.0
H1981 H 0.25284 0.19592 0.96782 0.0
H1982 H 0.34123 0.27922 0.97916 0.0
H1983 H 0.36534 0.26632 0.95266 0.0
H1984 H 0.30173 0.23922 0.01317 0.0
H1985 H 0.29968 0.29252 0.95467 0.0
H1986 H 0.28545 0.29373 0.92117 0.0
H1987 H 0.18828 0.23318 0.93482 0.0
H1988 H 0.20201 0.23122 0.9684 0.0
H1989 H 0.28656 0.34997 0.06396 0.0
H1990 H 0.29785 0.32435 0.038 0.0
H1991 H 0.19892 0.26528 0.02766 0.0
H1992 H 0.18735 0.29137 0.05385 0.0
H1993 H 0.23453 0.28314 0.99384 0.0
H1994 H 0.23298 0.23449 0.05204 0.0
H1995 H 0.24408 0.23136 0.08589 0.0
H1996 H 0.34264 0.27719 0.07365 0.0
H1997 H 0.33216 0.28093 0.03969 0.0
C1998 C 0.29168 0.20294 0.95021 0.0
C1999 C 0.32335 0.22298 0.94551 0.0
C2000 C 0.27763 0.21086 0.96495 0.0
C2001 C 0.29524 0.2386 0.97538 0.0
C2002 C 0.32729 0.25765 0.97134 0.0
C2003 C 0.34108 0.2502 0.95631 0.0
C2004 C 0.28017 0.24913 0.98965 0.0
C2005 C 0.28709 0.24886 0.00897 0.0
C2006 C 0.2601 0.26063 0.9842 0.0
C2007 C 0.25191 0.26142 0.96399 0.0
C2008 C 0.27533 0.27914 0.95049 0.0
C2009 C 0.26734 0.28006 0.93151 0.0
C2010 C 0.23598 0.26361 0.9259 0.0
C2011 C 0.21255 0.24597 0.93922 0.0
C2012 C 0.22042 0.24494 0.95822 0.0
C2013 C 0.26713 0.33194 0.05596 0.0
C2014 C 0.23604 0.32254 0.06105 0.0
C2015 C 0.27364 0.31718 0.04116 0.0
C2016 C 0.24925 0.29235 0.03116 0.0
C2017 C 0.21811 0.28424 0.03528 0.0
C2018 C 0.21153 0.29925 0.05016 0.0
C2019 C 0.25689 0.27413 0.01736 0.0
C2020 C 0.24864 0.27294 0.99814 0.0
C2021 C 0.27521 0.26064 0.02294 0.0
C2022 C 0.28178 0.25817 0.04331 0.0
C2023 C 0.25705 0.24408 0.05657 0.0
C2024 C 0.26322 0.24218 0.07579 0.0
C2025 C 0.29405 0.25415 0.08194 0.0
C2026 C 0.31876 0.26794 0.06886 0.0
C2027 C 0.31271 0.2699 0.04961 0.0
H2028 H 0.29877 0.25268 0.09684 0.0
H2029 H 0.22983 0.26465 0.91126 0.0
H2030 H 0.07695 0.25896 0.43062 0.0
H2031 H 0.04115 0.23715 0.45777 0.0
H2032 H 0.08715 0.32793 0.48484 0.0
H2033 H 0.12392 0.34946 0.45785 0.0
H2034 H 0.06706 0.28081 0.51109 0.0
H2035 H 0.02147 0.30374 0.45607 0.0
H2036 H 1.00763 0.2983 0.42199 0.0
H2037 H 0.95004 0.19864 0.42891 0.0
H2038 H 0.9638 0.20346 0.463 0.0
H2039 H 0.9517 0.28088 0.56767 0.0
H2040 H 0.98795 0.29123 0.54144 0.0
H2041 H 0.9325 0.19535 0.5228 0.0
H2042 H 0.89563 0.18466 0.54931 0.0
H2043 H 0.95591 0.23811 0.49239 0.0
H2044 H 0.9957 0.21345 0.54685 0.0
H2045 H 1.01009 0.21545 0.58057 0.0
H2046 H 0.07837 0.31317 0.57482 0.0
H2047 H 0.06408 0.31185 0.54104 0.0
C2048 C 0.08003 0.27394 0.44269 0.0
C2049 C 0.10319 0.30578 0.44229 0.0
C2050 C 0.05939 0.26157 0.45811 0.0
C2051 C 0.06086 0.28107 0.47314 0.0
C2052 C 0.08544 0.31245 0.47336 0.0
C2053 C 0.10652 0.32473 0.45802 0.0
C2054 C 0.03524 0.26959 0.48761 0.0
C2055 C 0.04283 0.27175 0.507 0.0
C2056 C 1.00335 0.25664 0.48229 0.0
C2057 C 0.99378 0.25395 0.46205 0.0
C2058 C 1.00582 0.28068 0.45032 0.0
C2059 C 0.99802 0.2777 0.431 0.0
C2060 C 0.97796 0.24814 0.4233 0.0
C2061 C 0.96552 0.22152 0.43491 0.0
C2062 C 0.97327 0.22436 0.45424 0.0
C2063 C 0.94685 0.26197 0.5579 0.0
C2064 C 0.92085 0.23182 0.56071 0.0
C2065 C 0.96774 0.26795 0.54292 0.0
C2066 C 0.96336 0.24393 0.53038 0.0
C2067 C 0.93645 0.2142 0.53239 0.0
C2068 C 0.91535 0.20814 0.54749 0.0
C2069 C 0.98788 0.25006 0.51586 0.0
C2070 C 0.9801 0.24692 0.49648 0.0
C2071 C 0.01953 0.26166 0.52117 0.0
C2072 C 0.02862 0.26261 0.54143 0.0
C2073 C 0.01364 0.23544 0.55279 0.0
C2074 C 0.02179 0.23644 0.57193 0.0
C2075 C 0.04507 0.26445 0.57988 0.0
C2076 C 0.06032 0.29149 0.56866 0.0
C2077 C 0.05224 0.29062 0.54949 0.0
H2078 H 0.05133 0.26517 0.5947 0.0
H2079 H 0.97206 0.24587 0.40833 0.0
H2080 H 0.74181 0.91079 0.05929 0.0
H2081 H 0.76476 0.9449 0.03118 0.0
H2082 H 0.69177 0.96886 0.03334 0.0
H2083 H 0.66942 0.93568 0.06148 0.0
H2084 H 0.70713 0.95765 0.99555 0.0
H2085 H 0.75711 0.01453 0.05389 0.0
H2086 H 0.78724 0.02194 0.08318 0.0
H2087 H 0.86407 0.0288 0.05034 0.0
H2088 H 0.83392 0.02051 0.02077 0.0
H2089 H 0.74972 0.09423 0.94675 0.0
H2090 H 0.7359 0.05705 0.97302 0.0
H2091 H 0.82743 0.06585 0.96975 0.0
H2092 H 0.84184 0.10456 0.94394 0.0
H2093 H 0.80822 0.05594 0.00563 0.0
H2094 H 0.76368 1.00479 0.94743 0.0
H2095 H 0.73507 0.99509 0.91717 0.0
H2096 H 0.65128 0.97437 0.94779 0.0
H2097 H 0.67951 0.98436 0.97824 0.0
C2098 C 0.73028 0.92271 0.0534 0.0
C2099 C 0.70377 0.92052 0.06246 0.0
C2100 C 0.74352 0.94236 0.03747 0.0
C2101 C 0.73006 0.95958 0.03024 0.0
C2102 C 0.70252 0.9558 0.03864 0.0
C2103 C 0.68975 0.93681 0.0547 0.0
C2104 C 0.74541 0.9833 0.01485 0.0
C2105 C 0.72921 0.97915 0.99774 0.0
C2106 C 0.77477 0.01088 0.01743 0.0
C2107 C 0.79311 0.0165 0.03515 0.0
C2108 C 0.78032 0.01733 0.05291 0.0
C2109 C 0.79743 0.02174 0.06958 0.0
C2110 C 0.82759 0.02584 0.06867 0.0
C2111 C 0.84069 0.02557 0.05104 0.0
C2112 C 0.82358 0.02097 0.03432 0.0
C2113 C 0.76721 0.08898 0.95207 0.0
C2114 C 0.79686 0.10236 0.94345 0.0
C2115 C 0.75919 0.0674 0.96692 0.0
C2116 C 0.78022 0.05775 0.973 0.0
C2117 C 0.81068 0.07267 0.96524 0.0
C2118 C 0.81899 0.09494 0.95059 0.0
C2119 C 0.76939 0.03079 0.98651 0.0
C2120 C 0.78642 0.03426 1.00323 0.0
C2121 C 0.74109 1.00217 0.98339 0.0
C2122 C 0.72378 0.99549 0.96513 0.0
C2123 C 0.73918 0.99829 0.94772 0.0
C2124 C 0.72304 0.99275 0.93052 0.0
C2125 C 0.69139 0.98418 0.93056 0.0
C2126 C 0.6758 0.98101 0.94779 0.0
C2127 C 0.69185 0.98656 0.96502 0.0
H2128 H 0.67893 0.97994 0.91723 0.0
H2129 H 0.8408 0.02926 0.08161 0.0
H2130 H 0.83681 0.72475 0.55479 0.0
H2131 H 0.82441 0.74862 0.52785 0.0
H2132 H 0.72585 0.69149 0.54056 0.0
H2133 H 0.73803 0.66775 0.56723 0.0
H2134 H 0.73562 0.69474 0.50294 0.0
H2135 H 0.7659 0.76641 0.55538 0.0
H2136 H 0.80033 0.80055 0.58085 0.0
H2137 H 0.87075 0.85627 0.53945 0.0
H2138 H 0.83676 0.82222 0.51369 0.0
H2139 H 0.66898 0.77226 0.45575 0.0
H2140 H 0.68792 0.75538 0.48308 0.0
H2141 H 0.78271 0.81021 0.46218 0.0
H2142 H 0.76369 0.82706 0.43487 0.0
H2143 H 0.77804 0.80986 0.50291 0.0
H2144 H 0.74436 0.73721 0.45024 0.0
H2145 H 0.70656 0.7041 0.42571 0.0
H2146 H 0.63956 0.65015 0.46917 0.0
H2147 H 0.67685 0.68328 0.49399 0.0
C2148 C 0.81251 0.71683 0.55152 0.0
C2149 C 0.78839 0.69437 0.56311 0.0
C2150 C 0.80545 0.73071 0.53628 0.0
C2151 C 0.77418 0.72216 0.53233 0.0
C2152 C 0.75012 0.69857 0.54332 0.0
C2153 C 0.75714 0.68499 0.55858 0.0
C2154 C 0.76615 0.73822 0.51724 0.0
C2155 C 0.74481 0.71989 0.50304 0.0
C2156 C 0.77831 0.77112 0.51719 0.0
C2157 C 0.79895 0.79151 0.53263 0.0
C2158 C 0.78885 0.78575 0.55172 0.0
C2159 C 0.80826 0.80514 0.56621 0.0
C2160 C 0.83778 0.8305 0.56179 0.0
C2161 C 0.8479 0.83657 0.54285 0.0
C2162 C 0.82856 0.81725 0.5283 0.0
C2163 C 0.69394 0.7816 0.45745 0.0
C2164 C 0.715 0.80136 0.44351 0.0
C2165 C 0.70474 0.77178 0.47293 0.0
C2166 C 0.73673 0.78131 0.47458 0.0
C2167 C 0.758 0.80269 0.46126 0.0
C2168 C 0.74716 0.8124 0.44574 0.0
C2169 C 0.74736 0.76628 0.48883 0.0
C2170 C 0.76915 0.78477 0.50279 0.0
C2171 C 0.7354 0.73346 0.48882 0.0
C2172 C 0.71331 0.71288 0.47396 0.0
C2173 C 0.72152 0.71838 0.45457 0.0
C2174 C 0.70019 0.69961 0.44061 0.0
C2175 C 0.67065 0.67508 0.44588 0.0
C2176 C 0.66245 0.66918 0.46512 0.0
C2177 C 0.68369 0.68792 0.47914 0.0
H2178 H 0.65414 0.66062 0.43505 0.0
H2179 H 0.85277 0.8455 0.57303 0.0
H2180 H 0.96755 0.69266 0.93032 0.0
H2181 H 1.00147 0.71402 0.95775 0.0
H2182 H 0.92957 0.72291 0.98749 0.0
H2183 H 0.89531 0.70209 0.95951 0.0
H2184 H 0.98526 0.7744 0.99242 0.0
H2185 H 0.94683 0.66483 0.99901 0.0
H2186 H 0.93385 0.61164 0.98912 0.0
H2187 H 0.03102 0.64432 0.97766 0.0
H2188 H 0.04455 0.69784 0.98723 0.0
H2189 H 0.05155 0.78939 0.08455 0.0
H2190 H 0.01959 0.77427 0.05585 0.0
H2191 H 0.09571 0.77701 0.02378 0.0
H2192 H 0.12819 0.79251 0.05272 0.0
H2193 H 0.03828 0.72049 0.02012 0.0
H2194 H 0.07579 0.83078 0.01528 0.0
H2195 H 0.08695 0.88251 0.0271 0.0
H2196 H 0.98888 0.84647 0.03745 0.0
H2197 H 0.97716 0.79436 0.02599 0.0
C2198 C 0.95862 0.69885 0.9427 0.0
C2199 C 0.92848 0.69543 0.94269 0.0
C2200 C 0.97816 0.71103 0.95847 0.0
C2201 C 0.96804 0.71971 0.97486 0.0
C2202 C 0.9379 0.71628 0.97502 0.0
C2203 C 0.91825 0.70418 0.95908 0.0
C2204 C 0.98943 0.7329 0.99152 0.0
C2205 C 0.99647 0.76237 0.99865 0.0
C2206 C 1.00469 0.7176 0.99945 0.0
C2207 C 0.99666 0.68543 0.99367 0.0
C2208 C 0.9654 0.66074 0.99423 0.0
C2209 C 0.95795 0.63052 0.98871 0.0
C2210 C 0.98158 0.62462 0.98272 0.0
C2211 C 1.01273 0.64893 0.98228 0.0
C2212 C 0.02031 0.67921 0.98777 0.0
C2213 C 0.06173 0.7873 0.07132 0.0
C2214 C 0.09236 0.79206 0.07086 0.0
C2215 C 0.04343 0.77876 0.05491 0.0
C2216 C 0.05523 0.77455 0.03766 0.0
C2217 C 0.08619 0.78021 0.03697 0.0
C2218 C 0.10478 0.78926 0.05343 0.0
C2219 C 0.03423 0.76199 0.02087 0.0
C2220 C 0.02716 0.73255 0.01379 0.0
C2221 C 0.01868 0.77713 0.01321 0.0
C2222 C 0.02563 0.80856 0.0199 0.0
C2223 C 0.05662 0.83381 0.02021 0.0
C2224 C 0.06305 0.86321 0.02682 0.0
C2225 C 0.03865 0.86775 0.03305 0.0
C2226 C 1.00776 0.84291 0.03263 0.0
C2227 C 1.00121 0.81344 0.02605 0.0
H2228 H 0.04367 0.89053 0.03816 0.0
H2229 H 0.97577 0.6012 0.97846 0.0
H2230 H 0.20191 0.94743 0.43084 0.0
H2231 H 0.21395 0.98356 0.45757 0.0
H2232 H 0.25492 0.93662 0.48784 0.0
H2233 H 0.24187 0.89976 0.46119 0.0
H2234 H 0.22621 0.95702 0.5123 0.0
H2235 H 0.29866 1.00098 0.45922 0.0
H2236 H 0.31178 0.01579 0.42548 0.0
H2237 H 0.27428 0.07773 0.42955 0.0
H2238 H 0.26021 0.0627 0.4632 0.0
H2239 H 0.34123 0.07143 0.56917 0.0
H2240 H 0.31549 0.03547 0.54296 0.0
H2241 H 0.2754 0.09127 0.52441 0.0
H2242 H 0.30127 0.1278 0.55104 0.0
H2243 H 0.29748 0.06813 0.49403 0.0
H2244 H 0.22964 0.02867 0.5477 0.0
H2245 H 0.2155 0.01373 0.5813 0.0
H2246 H 0.24333 0.94415 0.5763 0.0
H2247 H 0.25812 0.95901 0.54271 0.0
C2248 C 0.2125 0.94422 0.44351 0.0
C2249 C 0.22073 0.92076 0.44414 0.0
C2250 C 0.21964 0.96503 0.45869 0.0
C2251 C 0.23602 0.96332 0.47456 0.0
C2252 C 0.24237 0.93848 0.47574 0.0
C2253 C 0.2348 0.91734 0.46059 0.0
C2254 C 0.24904 0.98892 0.48899 0.0
C2255 C 0.24191 0.98125 0.50831 0.0
C2256 C 0.26887 0.0208 0.48377 0.0
C2257 C 0.27811 0.03048 0.46368 0.0
C2258 C 0.29305 0.01763 0.45289 0.0
C2259 C 0.30061 0.02603 0.43377 0.0
C2260 C 0.29377 0.04761 0.42535 0.0
C2261 C 0.27944 0.06092 0.43606 0.0
C2262 C 0.27166 0.05246 0.45515 0.0
C2263 C 0.32725 0.07642 0.55945 0.0
C2264 C 0.32309 0.1024 0.56234 0.0
C2265 C 0.31244 0.0557 0.54447 0.0
C2266 C 0.29301 0.0603 0.53196 0.0
C2267 C 0.29015 0.08718 0.53402 0.0
C2268 C 0.30502 0.10808 0.54917 0.0
C2269 C 0.27508 0.03607 0.51731 0.0
C2270 C 0.28138 0.04396 0.49799 0.0
C2271 C 0.25437 1.00443 0.52251 0.0
C2272 C 0.24521 0.99512 0.54268 0.0
C2273 C 0.23297 0.01034 0.55379 0.0
C2274 C 0.22481 1.00187 0.57284 0.0
C2275 C 0.22857 0.97805 0.58095 0.0
C2276 C 0.24044 0.96261 0.57 0.0
C2277 C 0.24868 0.97102 0.55094 0.0
H2278 H 0.2222 0.97148 0.59568 0.0
H2279 H 0.2996 0.05406 0.41054 0.0
loop_
_geom_bond_atom_site_label_1
_geom_bond_atom_site_label_2
_geom_bond_distance
_geom_bond_site_symmetry_2
_ccdc_geom_bond_type
Dy0 O3 2.307 . S
Dy0 O5 2.395 . S
Dy0 O6 2.379 . S
Dy0 O8 2.339 . S
Dy0 O10 2.298 . S
Dy0 O14 2.275 . S
Dy0 C22 2.738 . S
Dy1 O4 2.298 . S
Dy1 O7 2.275 . S
Dy1 O9 2.307 . S
Dy1 O11 2.395 . S
Dy1 O12 2.379 . S
Dy1 O15 2.339 . S
Dy1 C31 2.738 . S
C2 O14 1.254 . S
C2 O15 1.257 . S
O3 Dy0 2.307 . S
O3 C13 1.266 . S
O4 Dy1 2.298 . S
O4 C13 1.236 . S
O5 Dy0 2.395 . S
O5 C22 1.255 . S
O6 Dy0 2.379 . S
O6 C22 1.249 . S
O7 Dy1 2.275 . S
O7 C23 1.254 . S
O8 Dy0 2.339 . S
O8 C23 1.257 . S
O9 Dy1 2.307 . S
O9 C24 1.266 . S
O10 Dy0 2.298 . S
O10 C24 1.236 . S
O11 Dy1 2.395 . S
O11 C31 1.255 . S
O12 Dy1 2.379 . S
O12 C31 1.249 . S
C13 O3 1.266 . S
C13 O4 1.236 . S
O14 Dy0 2.275 . S
O14 C2 1.254 . S
O15 Dy1 2.339 . S
O15 C2 1.257 . S
C16 C19 1.344 . S
C16 C20 1.328 . S
C16 C22 1.516 . S
C17 C18 1.304 . S
C17 C21 1.323 . S
C18 C17 1.304 . S
C18 C19 1.371 . S
C18 H32 0.930 . S
C19 C16 1.344 . S
C19 C18 1.371 . S
C19 H33 0.931 . S
C20 C16 1.328 . S
C20 C21 1.433 . S
C20 H34 0.931 . S
C21 C17 1.323 . S
C21 C20 1.433 . S
C21 H35 0.933 . S
C22 Dy0 2.738 . S
C22 O5 1.255 . S
C22 O6 1.249 . S
C22 C16 1.516 . S
C23 O7 1.254 . S
C23 O8 1.257 . S
C24 O9 1.266 . S
C24 O10 1.236 . S
C25 C28 1.344 . S
C25 C29 1.328 . S
C25 C31 1.516 . S
C26 C27 1.304 . S
C26 C30 1.323 . S
C27 C26 1.304 . S
C27 C28 1.371 . S
C27 H36 0.930 . S
C28 C25 1.344 . S
C28 C27 1.371 . S
C28 H37 0.931 . S
C29 C25 1.328 . S
C29 C30 1.433 . S
C29 H38 0.931 . S
C30 C26 1.323 . S
C30 C29 1.433 . S
C30 H39 0.933 . S
C31 Dy1 2.738 . S
C31 O11 1.255 . S
C31 O12 1.249 . S
C31 C25 1.516 . S
H32 C18 0.930 . S
H33 C19 0.931 . S
H34 C20 0.931 . S
H35 C21 0.933 . S
H36 C27 0.930 . S
H37 C28 0.931 . S
H38 C29 0.931 . S
H39 C30 0.933 . S
Dy40 O43 2.307 . S
Dy40 O45 2.395 . S
Dy40 O46 2.379 . S
Dy40 O48 2.339 . S
Dy40 O50 2.298 . S
Dy40 O54 2.275 . S
Dy40 C62 2.738 . S
Dy41 O44 2.298 . S
Dy41 O47 2.275 . S
Dy41 O49 2.307 . S
Dy41 O51 2.395 . S
Dy41 O52 2.379 . S
Dy41 O55 2.339 . S
Dy41 C71 2.738 . S
C42 O54 1.254 . S
C42 O55 1.257 . S
O43 Dy40 2.307 . S
O43 C53 1.266 . S
O44 Dy41 2.298 . S
O44 C53 1.236 . S
O45 Dy40 2.395 . S
O45 C62 1.255 . S
O46 Dy40 2.379 . S
O46 C62 1.249 . S
O47 Dy41 2.275 . S
O47 C63 1.254 . S
O48 Dy40 2.339 . S
O48 C63 1.257 . S
O49 Dy41 2.307 . S
O49 C64 1.266 . S
O50 Dy40 2.298 . S
O50 C64 1.236 . S
O51 Dy41 2.395 . S
O51 C71 1.255 . S
O52 Dy41 2.379 . S
O52 C71 1.249 . S
C53 O43 1.266 . S
C53 O44 1.236 . S
O54 Dy40 2.275 . S
O54 C42 1.254 . S
O55 Dy41 2.339 . S
O55 C42 1.257 . S
C56 C59 1.344 . S
C56 C60 1.328 . S
C56 C62 1.516 . S
C57 C58 1.304 . S
C57 C61 1.323 . S
C58 C57 1.304 . S
C58 C59 1.371 1_455 S
C58 H72 0.930 . S
C59 C56 1.344 . S
C59 C58 1.371 1_655 S
C59 H73 0.931 . S
C60 C56 1.328 . S
C60 C61 1.433 1_655 S
C60 H74 0.931 . S
C61 C57 1.323 . S
C61 C60 1.433 1_455 S
C61 H75 0.933 . S
C62 Dy40 2.738 . S
C62 O45 1.255 . S
C62 O46 1.249 . S
C62 C56 1.516 . S
C63 O47 1.254 . S
C63 O48 1.257 . S
C64 O49 1.266 . S
C64 O50 1.236 . S
C65 C68 1.344 . S
C65 C69 1.328 . S
C65 C71 1.516 . S
C66 C67 1.304 . S
C66 C70 1.323 . S
C67 C66 1.304 . S
C67 C68 1.371 . S
C67 H76 0.930 . S
C68 C65 1.344 . S
C68 C67 1.371 . S
C68 H77 0.931 . S
C69 C65 1.328 . S
C69 C70 1.433 . S
C69 H78 0.931 . S
C70 C66 1.323 . S
C70 C69 1.433 . S
C70 H79 0.933 . S
C71 Dy41 2.738 . S
C71 O51 1.255 . S
C71 O52 1.249 . S
C71 C65 1.516 . S
H72 C58 0.930 . S
H73 C59 0.931 . S
H74 C60 0.931 . S
H75 C61 0.933 . S
H76 C67 0.930 . S
H77 C68 0.931 . S
H78 C69 0.931 . S
H79 C70 0.933 . S
Dy80 O83 2.307 . S
Dy80 O85 2.395 . S
Dy80 O86 2.379 . S
Dy80 O88 2.339 . S
Dy80 O90 2.298 . S
Dy80 O94 2.275 . S
Dy80 C102 2.738 . S
Dy81 O84 2.298 . S
Dy81 O87 2.275 . S
Dy81 O89 2.307 . S
Dy81 O91 2.395 . S
Dy81 O92 2.379 . S
Dy81 O95 2.339 . S
Dy81 C111 2.738 . S
C82 O94 1.254 . S
C82 O95 1.257 . S
O83 Dy80 2.307 . S
O83 C93 1.266 . S
O84 Dy81 2.298 . S
O84 C93 1.236 . S
O85 Dy80 2.395 . S
O85 C102 1.255 . S
O86 Dy80 2.379 . S
O86 C102 1.249 . S
O87 Dy81 2.275 . S
O87 C103 1.254 . S
O88 Dy80 2.339 . S
O88 C103 1.257 . S
O89 Dy81 2.307 . S
O89 C104 1.266 . S
O90 Dy80 2.298 . S
O90 C104 1.236 . S
O91 Dy81 2.395 . S
O91 C111 1.255 . S
O92 Dy81 2.379 . S
O92 C111 1.249 . S
C93 O83 1.266 . S
C93 O84 1.236 . S
O94 Dy80 2.275 . S
O94 C82 1.254 . S
O95 Dy81 2.339 . S
O95 C82 1.257 . S
C96 C99 1.344 . S
C96 C100 1.328 . S
C96 C102 1.516 . S
C97 C98 1.304 . S
C97 C101 1.323 . S
C98 C97 1.304 . S
C98 C99 1.371 1_545 S
C98 H112 0.930 . S
C99 C96 1.344 . S
C99 C98 1.371 1_565 S
C99 H113 0.931 . S
C100 C96 1.328 . S
C100 C101 1.433 1_565 S
C100 H114 0.931 . S
C101 C97 1.323 . S
C101 C100 1.433 1_545 S
C101 H115 0.933 . S
C102 Dy80 2.738 . S
C102 O85 1.255 . S
C102 O86 1.249 . S
C102 C96 1.516 . S
C103 O87 1.254 . S
C103 O88 1.257 . S
C104 O89 1.266 . S
C104 O90 1.236 . S
C105 C108 1.344 . S
C105 C109 1.328 . S
C105 C111 1.516 . S
C106 C107 1.304 . S
C106 C110 1.323 . S
C107 C106 1.304 . S
C107 C108 1.371 . S
C107 H116 0.930 . S
C108 C105 1.344 . S
C108 C107 1.371 . S
C108 H117 0.931 . S
C109 C105 1.328 . S
C109 C110 1.433 . S
C109 H118 0.931 . S
C110 C106 1.323 . S
C110 C109 1.433 . S
C110 H119 0.933 . S
C111 Dy81 2.738 . S
C111 O91 1.255 . S
C111 O92 1.249 . S
C111 C105 1.516 . S
H112 C98 0.930 . S
H113 C99 0.931 . S
H114 C100 0.931 . S
H115 C101 0.933 . S
H116 C107 0.930 . S
H117 C108 0.931 . S
H118 C109 0.931 . S
H119 C110 0.933 . S
Dy120 O123 2.307 . S
Dy120 O125 2.395 . S
Dy120 O126 2.379 . S
Dy120 O128 2.339 . S
Dy120 O130 2.298 . S
Dy120 O134 2.275 . S
Dy120 C142 2.738 . S
Dy121 O124 2.298 . S
Dy121 O127 2.275 . S
Dy121 O129 2.307 . S
Dy121 O131 2.395 . S
Dy121 O132 2.379 . S
Dy121 O135 2.339 . S
Dy121 C151 2.738 . S
C122 O134 1.254 . S
C122 O135 1.257 . S
O123 Dy120 2.307 . S
O123 C133 1.266 . S
O124 Dy121 2.298 . S
O124 C133 1.236 . S
O125 Dy120 2.395 . S
O125 C142 1.255 . S
O126 Dy120 2.379 . S
O126 C142 1.249 . S
O127 Dy121 2.275 . S
O127 C143 1.254 . S
O128 Dy120 2.339 . S
O128 C143 1.257 . S
O129 Dy121 2.307 . S
O129 C144 1.266 . S
O130 Dy120 2.298 . S
O130 C144 1.236 . S
O131 Dy121 2.395 . S
O131 C151 1.255 . S
O132 Dy121 2.379 . S
O132 C151 1.249 . S
C133 O123 1.266 . S
C133 O124 1.236 . S
O134 Dy120 2.275 . S
O134 C122 1.254 . S
O135 Dy121 2.339 . S
O135 C122 1.257 . S
C136 C139 1.344 . S
C136 C140 1.328 . S
C136 C142 1.516 . S
C137 C138 1.304 . S
C137 C141 1.323 . S
C138 C137 1.304 . S
C138 C139 1.371 . S
C138 H152 0.930 . S
C139 C136 1.344 . S
C139 C138 1.371 . S
C139 H153 0.931 . S
C140 C136 1.328 . S
C140 C141 1.433 . S
C140 H154 0.931 . S
C141 C137 1.323 . S
C141 C140 1.433 . S
C141 H155 0.933 . S
C142 Dy120 2.738 . S
C142 O125 1.255 . S
C142 O126 1.249 . S
C142 C136 1.516 . S
C143 O127 1.254 . S
C143 O128 1.257 . S
C144 O129 1.266 . S
C144 O130 1.236 . S
C145 C148 1.344 . S
C145 C149 1.328 . S
C145 C151 1.516 . S
C146 C147 1.304 . S
C146 C150 1.323 . S
C147 C146 1.304 . S
C147 C148 1.371 . S
C147 H156 0.930 . S
C148 C145 1.344 . S
C148 C147 1.371 . S
C148 H157 0.931 . S
C149 C145 1.328 . S
C149 C150 1.433 . S
C149 H158 0.931 . S
C150 C146 1.323 . S
C150 C149 1.433 . S
C150 H159 0.933 . S
C151 Dy121 2.738 . S
C151 O131 1.255 . S
C151 O132 1.249 . S
C151 C145 1.516 . S
H152 C138 0.930 . S
H153 C139 0.931 . S
H154 C140 0.931 . S
H155 C141 0.933 . S
H156 C147 0.930 . S
H157 C148 0.931 . S
H158 C149 0.931 . S
H159 C150 0.933 . S
Dy160 O163 2.307 . S
Dy160 O165 2.395 . S
Dy160 O166 2.379 . S
Dy160 O168 2.339 . S
Dy160 O170 2.298 . S
Dy160 O174 2.275 . S
Dy160 C182 2.738 . S
Dy161 O164 2.298 . S
Dy161 O167 2.275 . S
Dy161 O169 2.307 . S
Dy161 O171 2.395 . S
Dy161 O172 2.379 . S
Dy161 O175 2.339 . S
Dy161 C191 2.738 . S
C162 O174 1.254 . S
C162 O175 1.257 . S
O163 Dy160 2.307 . S
O163 C173 1.266 . S
O164 Dy161 2.298 . S
O164 C173 1.236 . S
O165 Dy160 2.395 . S
O165 C182 1.255 . S
O166 Dy160 2.379 . S
O166 C182 1.249 . S
O167 Dy161 2.275 . S
O167 C183 1.254 . S
O168 Dy160 2.339 . S
O168 C183 1.257 . S
O169 Dy161 2.307 . S
O169 C184 1.266 . S
O170 Dy160 2.298 . S
O170 C184 1.236 . S
O171 Dy161 2.395 . S
O171 C191 1.255 . S
O172 Dy161 2.379 . S
O172 C191 1.249 . S
C173 O163 1.266 . S
C173 O164 1.236 . S
O174 Dy160 2.275 . S
O174 C162 1.254 . S
O175 Dy161 2.339 . S
O175 C162 1.257 . S
C176 C179 1.344 . S
C176 C180 1.328 . S
C176 C182 1.516 . S
C177 C178 1.304 . S
C177 C181 1.323 . S
C178 C177 1.304 . S
C178 C179 1.371 1_655 S
C178 H192 0.930 . S
C179 C176 1.344 . S
C179 C178 1.371 1_455 S
C179 H193 0.931 . S
C180 C176 1.328 . S
C180 C181 1.433 1_455 S
C180 H194 0.931 . S
C181 C177 1.323 . S
C181 C180 1.433 1_655 S
C181 H195 0.933 . S
C182 Dy160 2.738 . S
C182 O165 1.255 . S
C182 O166 1.249 . S
C182 C176 1.516 . S
C183 O167 1.254 . S
C183 O168 1.257 . S
C184 O169 1.266 . S
C184 O170 1.236 . S
C185 C188 1.344 . S
C185 C189 1.328 . S
C185 C191 1.516 . S
C186 C187 1.304 . S
C186 C190 1.323 . S
C187 C186 1.304 . S
C187 C188 1.371 . S
C187 H196 0.930 . S
C188 C185 1.344 . S
C188 C187 1.371 . S
C188 H197 0.931 . S
C189 C185 1.328 . S
C189 C190 1.433 . S
C189 H198 0.931 . S
C190 C186 1.323 . S
C190 C189 1.433 . S
C190 H199 0.933 . S
C191 Dy161 2.738 . S
C191 O171 1.255 . S
C191 O172 1.249 . S
C191 C185 1.516 . S
H192 C178 0.930 . S
H193 C179 0.931 . S
H194 C180 0.931 . S
H195 C181 0.933 . S
H196 C187 0.930 . S
H197 C188 0.931 . S
H198 C189 0.931 . S
H199 C190 0.933 . S
Dy200 O203 2.307 . S
Dy200 O205 2.395 . S
Dy200 O206 2.379 . S
Dy200 O208 2.339 . S
Dy200 O210 2.298 . S
Dy200 O214 2.275 . S
Dy200 C222 2.738 . S
Dy201 O204 2.298 . S
Dy201 O207 2.275 . S
Dy201 O209 2.307 . S
Dy201 O211 2.395 . S
Dy201 O212 2.379 . S
Dy201 O215 2.339 . S
Dy201 C231 2.738 . S
C202 O214 1.254 . S
C202 O215 1.257 . S
O203 Dy200 2.307 . S
O203 C213 1.266 . S
O204 Dy201 2.298 . S
O204 C213 1.236 . S
O205 Dy200 2.395 . S
O205 C222 1.255 . S
O206 Dy200 2.379 . S
O206 C222 1.249 . S
O207 Dy201 2.275 . S
O207 C223 1.254 . S
O208 Dy200 2.339 . S
O208 C223 1.257 . S
O209 Dy201 2.307 . S
O209 C224 1.266 . S
O210 Dy200 2.298 . S
O210 C224 1.236 . S
O211 Dy201 2.395 . S
O211 C231 1.255 . S
O212 Dy201 2.379 . S
O212 C231 1.249 . S
C213 O203 1.266 . S
C213 O204 1.236 . S
O214 Dy200 2.275 . S
O214 C202 1.254 . S
O215 Dy201 2.339 . S
O215 C202 1.257 . S
C216 C219 1.344 . S
C216 C220 1.328 . S
C216 C222 1.516 . S
C217 C218 1.304 . S
C217 C221 1.323 . S
C218 C217 1.304 . S
C218 C219 1.371 1_565 S
C218 H232 0.930 . S
C219 C216 1.344 . S
C219 C218 1.371 1_545 S
C219 H233 0.931 . S
C220 C216 1.328 . S
C220 C221 1.433 1_545 S
C220 H234 0.931 . S
C221 C217 1.323 . S
C221 C220 1.433 1_565 S
C221 H235 0.933 . S
C222 Dy200 2.738 . S
C222 O205 1.255 . S
C222 O206 1.249 . S
C222 C216 1.516 . S
C223 O207 1.254 . S
C223 O208 1.257 . S
C224 O209 1.266 . S
C224 O210 1.236 . S
C225 C228 1.344 . S
C225 C229 1.328 . S
C225 C231 1.516 . S
C226 C227 1.304 . S
C226 C230 1.323 . S
C227 C226 1.304 . S
C227 C228 1.371 . S
C227 H236 0.930 . S
C228 C225 1.344 . S
C228 C227 1.371 . S
C228 H237 0.931 . S
C229 C225 1.328 . S
C229 C230 1.433 . S
C229 H238 0.931 . S
C230 C226 1.323 . S
C230 C229 1.433 . S
C230 H239 0.933 . S
C231 Dy201 2.738 . S
C231 O211 1.255 . S
C231 O212 1.249 . S
C231 C225 1.516 . S
H232 C218 0.930 . S
H233 C219 0.931 . S
H234 C220 0.931 . S
H235 C221 0.933 . S
H236 C227 0.930 . S
H237 C228 0.931 . S
H238 C229 0.931 . S
H239 C230 0.933 . S
Dy240 O243 2.307 . S
Dy240 O245 2.395 . S
Dy240 O246 2.379 . S
Dy240 O248 2.339 . S
Dy240 O250 2.298 . S
Dy240 O254 2.275 . S
Dy240 C262 2.738 . S
Dy241 O244 2.298 . S
Dy241 O247 2.275 . S
Dy241 O249 2.307 . S
Dy241 O251 2.395 . S
Dy241 O252 2.379 . S
Dy241 O255 2.339 . S
Dy241 C271 2.738 . S
C242 O254 1.254 . S
C242 O255 1.257 . S
O243 Dy240 2.307 . S
O243 C253 1.266 . S
O244 Dy241 2.298 . S
O244 C253 1.236 . S
O245 Dy240 2.395 . S
O245 C262 1.255 . S
O246 Dy240 2.379 . S
O246 C262 1.249 . S
O247 Dy241 2.275 . S
O247 C263 1.254 . S
O248 Dy240 2.339 . S
O248 C263 1.257 . S
O249 Dy241 2.307 . S
O249 C264 1.266 . S
O250 Dy240 2.298 . S
O250 C264 1.236 . S
O251 Dy241 2.395 . S
O251 C271 1.255 . S
O252 Dy241 2.379 . S
O252 C271 1.249 . S
C253 O243 1.266 . S
C253 O244 1.236 . S
O254 Dy240 2.275 . S
O254 C242 1.254 . S
O255 Dy241 2.339 . S
O255 C242 1.257 . S
C256 C259 1.344 . S
C256 C260 1.328 . S
C256 C262 1.516 . S
C257 C258 1.304 . S
C257 C261 1.323 . S
C258 C257 1.304 . S
C258 C259 1.371 . S
C258 H272 0.930 . S
C259 C256 1.344 . S
C259 C258 1.371 . S
C259 H273 0.931 . S
C260 C256 1.328 . S
C260 C261 1.433 . S
C260 H274 0.931 . S
C261 C257 1.323 . S
C261 C260 1.433 . S
C261 H275 0.933 . S
C262 Dy240 2.738 . S
C262 O245 1.255 . S
C262 O246 1.249 . S
C262 C256 1.516 . S
C263 O247 1.254 . S
C263 O248 1.257 . S
C264 O249 1.266 . S
C264 O250 1.236 . S
C265 C268 1.344 . S
C265 C269 1.328 . S
C265 C271 1.516 . S
C266 C267 1.304 . S
C266 C270 1.323 . S
C267 C266 1.304 . S
C267 C268 1.371 . S
C267 H276 0.930 . S
C268 C265 1.344 . S
C268 C267 1.371 . S
C268 H277 0.931 . S
C269 C265 1.328 . S
C269 C270 1.433 . S
C269 H278 0.931 . S
C270 C266 1.323 . S
C270 C269 1.433 . S
C270 H279 0.933 . S
C271 Dy241 2.738 . S
C271 O251 1.255 . S
C271 O252 1.249 . S
C271 C265 1.516 . S
H272 C258 0.930 . S
H273 C259 0.931 . S
H274 C260 0.931 . S
H275 C261 0.933 . S
H276 C267 0.930 . S
H277 C268 0.931 . S
H278 C269 0.931 . S
H279 C270 0.933 . S
Dy280 O283 2.307 . S
Dy280 O285 2.395 . S
Dy280 O286 2.379 . S
Dy280 O288 2.339 . S
Dy280 O290 2.298 . S
Dy280 O294 2.275 . S
Dy280 C302 2.738 . S
Dy281 O284 2.298 . S
Dy281 O287 2.275 . S
Dy281 O289 2.307 . S
Dy281 O291 2.395 . S
Dy281 O292 2.379 . S
Dy281 O295 2.339 . S
Dy281 C311 2.738 . S
C282 O294 1.254 . S
C282 O295 1.257 . S
O283 Dy280 2.307 . S
O283 C293 1.266 . S
O284 Dy281 2.298 . S
O284 C293 1.236 . S
O285 Dy280 2.395 . S
O285 C302 1.255 . S
O286 Dy280 2.379 . S
O286 C302 1.249 . S
O287 Dy281 2.275 . S
O287 C303 1.254 . S
O288 Dy280 2.339 . S
O288 C303 1.257 . S
O289 Dy281 2.307 . S
O289 C304 1.266 . S
O290 Dy280 2.298 . S
O290 C304 1.236 . S
O291 Dy281 2.395 . S
O291 C311 1.255 . S
O292 Dy281 2.379 . S
O292 C311 1.249 . S
C293 O283 1.266 . S
C293 O284 1.236 . S
O294 Dy280 2.275 . S
O294 C282 1.254 . S
O295 Dy281 2.339 . S
O295 C282 1.257 . S
C296 C299 1.344 . S
C296 C300 1.328 . S
C296 C302 1.516 . S
C297 C298 1.304 . S
C297 C301 1.323 . S
C298 C297 1.304 . S
C298 C299 1.371 1_455 S
C298 H312 0.930 . S
C299 C296 1.344 . S
C299 C298 1.371 1_655 S
C299 H313 0.931 . S
C300 C296 1.328 . S
C300 C301 1.433 1_655 S
C300 H314 0.931 . S
C301 C297 1.323 . S
C301 C300 1.433 1_455 S
C301 H315 0.933 . S
C302 Dy280 2.738 . S
C302 O285 1.255 . S
C302 O286 1.249 . S
C302 C296 1.516 . S
C303 O287 1.254 . S
C303 O288 1.257 . S
C304 O289 1.266 . S
C304 O290 1.236 . S
C305 C308 1.344 . S
C305 C309 1.328 . S
C305 C311 1.516 . S
C306 C307 1.304 . S
C306 C310 1.323 . S
C307 C306 1.304 . S
C307 C308 1.371 . S
C307 H316 0.930 . S
C308 C305 1.344 . S
C308 C307 1.371 . S
C308 H317 0.931 . S
C309 C305 1.328 . S
C309 C310 1.433 . S
C309 H318 0.931 . S
C310 C306 1.323 . S
C310 C309 1.433 . S
C310 H319 0.933 . S
C311 Dy281 2.738 . S
C311 O291 1.255 . S
C311 O292 1.249 . S
C311 C305 1.516 . S
H312 C298 0.930 . S
H313 C299 0.931 . S
H314 C300 0.931 . S
H315 C301 0.933 . S
H316 C307 0.930 . S
H317 C308 0.931 . S
H318 C309 0.931 . S
H319 C310 0.933 . S
Dy320 O323 2.307 . S
Dy320 O325 2.395 . S
Dy320 O326 2.379 . S
Dy320 O328 2.339 . S
Dy320 O330 2.298 . S
Dy320 O334 2.275 . S
Dy320 C342 2.738 . S
Dy321 O324 2.298 . S
Dy321 O327 2.275 . S
Dy321 O329 2.307 . S
Dy321 O331 2.395 . S
Dy321 O332 2.379 . S
Dy321 O335 2.339 . S
Dy321 C351 2.738 . S
C322 O334 1.254 . S
C322 O335 1.257 . S
O323 Dy320 2.307 . S
O323 C333 1.266 . S
O324 Dy321 2.298 . S
O324 C333 1.236 . S
O325 Dy320 2.395 . S
O325 C342 1.255 . S
O326 Dy320 2.379 . S
O326 C342 1.249 . S
O327 Dy321 2.275 . S
O327 C343 1.254 . S
O328 Dy320 2.339 . S
O328 C343 1.257 . S
O329 Dy321 2.307 . S
O329 C344 1.266 . S
O330 Dy320 2.298 . S
O330 C344 1.236 . S
O331 Dy321 2.395 . S
O331 C351 1.255 . S
O332 Dy321 2.379 . S
O332 C351 1.249 . S
C333 O323 1.266 . S
C333 O324 1.236 . S
O334 Dy320 2.275 . S
O334 C322 1.254 . S
O335 Dy321 2.339 . S
O335 C322 1.257 . S
C336 C339 1.344 . S
C336 C340 1.328 . S
C336 C342 1.516 . S
C337 C338 1.304 . S
C337 C341 1.323 . S
C338 C337 1.304 . S
C338 C339 1.371 1_545 S
C338 H352 0.930 . S
C339 C336 1.344 . S
C339 C338 1.371 1_565 S
C339 H353 0.931 . S
C340 C336 1.328 . S
C340 C341 1.433 1_565 S
C340 H354 0.931 . S
C341 C337 1.323 . S
C341 C340 1.433 1_545 S
C341 H355 0.933 . S
C342 Dy320 2.738 . S
C342 O325 1.255 . S
C342 O326 1.249 . S
C342 C336 1.516 . S
C343 O327 1.254 . S
C343 O328 1.257 . S
C344 O329 1.266 . S
C344 O330 1.236 . S
C345 C348 1.344 . S
C345 C349 1.328 . S
C345 C351 1.516 . S
C346 C347 1.304 . S
C346 C350 1.323 . S
C347 C346 1.304 . S
C347 C348 1.371 . S
C347 H356 0.930 . S
C348 C345 1.344 . S
C348 C347 1.371 . S
C348 H357 0.931 . S
C349 C345 1.328 . S
C349 C350 1.433 . S
C349 H358 0.931 . S
C350 C346 1.323 . S
C350 C349 1.433 . S
C350 H359 0.933 . S
C351 Dy321 2.738 . S
C351 O331 1.255 . S
C351 O332 1.249 . S
C351 C345 1.516 . S
H352 C338 0.930 . S
H353 C339 0.931 . S
H354 C340 0.931 . S
H355 C341 0.933 . S
H356 C347 0.930 . S
H357 C348 0.931 . S
H358 C349 0.931 . S
H359 C350 0.933 . S
Dy360 O363 2.307 . S
Dy360 O365 2.395 . S
Dy360 O366 2.379 . S
Dy360 O368 2.339 . S
Dy360 O370 2.298 . S
Dy360 O374 2.275 . S
Dy360 C382 2.738 . S
Dy361 O364 2.298 . S
Dy361 O367 2.275 . S
Dy361 O369 2.307 . S
Dy361 O371 2.395 . S
Dy361 O372 2.379 . S
Dy361 O375 2.339 . S
Dy361 C391 2.738 . S
C362 O374 1.254 . S
C362 O375 1.257 . S
O363 Dy360 2.307 . S
O363 C373 1.266 . S
O364 Dy361 2.298 . S
O364 C373 1.236 . S
O365 Dy360 2.395 . S
O365 C382 1.255 . S
O366 Dy360 2.379 . S
O366 C382 1.249 . S
O367 Dy361 2.275 . S
O367 C383 1.254 . S
O368 Dy360 2.339 . S
O368 C383 1.257 . S
O369 Dy361 2.307 . S
O369 C384 1.266 . S
O370 Dy360 2.298 . S
O370 C384 1.236 . S
O371 Dy361 2.395 . S
O371 C391 1.255 . S
O372 Dy361 2.379 . S
O372 C391 1.249 . S
C373 O363 1.266 . S
C373 O364 1.236 . S
O374 Dy360 2.275 . S
O374 C362 1.254 . S
O375 Dy361 2.339 . S
O375 C362 1.257 . S
C376 C379 1.344 . S
C376 C380 1.328 . S
C376 C382 1.516 . S
C377 C378 1.304 . S
C377 C381 1.323 . S
C378 C377 1.304 . S
C378 C379 1.371 . S
C378 H392 0.930 . S
C379 C376 1.344 . S
C379 C378 1.371 . S
C379 H393 0.931 . S
C380 C376 1.328 . S
C380 C381 1.433 . S
C380 H394 0.931 . S
C381 C377 1.323 . S
C381 C380 1.433 . S
C381 H395 0.933 . S
C382 Dy360 2.738 . S
C382 O365 1.255 . S
C382 O366 1.249 . S
C382 C376 1.516 . S
C383 O367 1.254 . S
C383 O368 1.257 . S
C384 O369 1.266 . S
C384 O370 1.236 . S
C385 C388 1.344 . S
C385 C389 1.328 . S
C385 C391 1.516 . S
C386 C387 1.304 . S
C386 C390 1.323 . S
C387 C386 1.304 . S
C387 C388 1.371 . S
C387 H396 0.930 . S
C388 C385 1.344 . S
C388 C387 1.371 . S
C388 H397 0.931 . S
C389 C385 1.328 . S
C389 C390 1.433 . S
C389 H398 0.931 . S
C390 C386 1.323 . S
C390 C389 1.433 . S
C390 H399 0.933 . S
C391 Dy361 2.738 . S
C391 O371 1.255 . S
C391 O372 1.249 . S
C391 C385 1.516 . S
H392 C378 0.930 . S
H393 C379 0.931 . S
H394 C380 0.931 . S
H395 C381 0.933 . S
H396 C387 0.930 . S
H397 C388 0.931 . S
H398 C389 0.931 . S
H399 C390 0.933 . S
Dy400 O403 2.307 . S
Dy400 O405 2.395 . S
Dy400 O406 2.379 . S
Dy400 O408 2.339 . S
Dy400 O410 2.298 . S
Dy400 O414 2.275 . S
Dy400 C422 2.738 . S
Dy401 O404 2.298 . S
Dy401 O407 2.275 . S
Dy401 O409 2.307 . S
Dy401 O411 2.395 . S
Dy401 O412 2.379 . S
Dy401 O415 2.339 . S
Dy401 C431 2.738 . S
C402 O414 1.254 . S
C402 O415 1.257 . S
O403 Dy400 2.307 . S
O403 C413 1.266 . S
O404 Dy401 2.298 . S
O404 C413 1.236 . S
O405 Dy400 2.395 . S
O405 C422 1.255 . S
O406 Dy400 2.379 . S
O406 C422 1.249 . S
O407 Dy401 2.275 . S
O407 C423 1.254 . S
O408 Dy400 2.339 . S
O408 C423 1.257 . S
O409 Dy401 2.307 . S
O409 C424 1.266 . S
O410 Dy400 2.298 . S
O410 C424 1.236 . S
O411 Dy401 2.395 . S
O411 C431 1.255 . S
O412 Dy401 2.379 . S
O412 C431 1.249 . S
C413 O403 1.266 . S
C413 O404 1.236 . S
O414 Dy400 2.275 . S
O414 C402 1.254 . S
O415 Dy401 2.339 . S
O415 C402 1.257 . S
C416 C419 1.344 . S
C416 C420 1.328 . S
C416 C422 1.516 . S
C417 C418 1.304 . S
C417 C421 1.323 . S
C418 C417 1.304 . S
C418 C419 1.371 1_655 S
C418 H432 0.930 . S
C419 C416 1.344 . S
C419 C418 1.371 1_455 S
C419 H433 0.931 . S
C420 C416 1.328 . S
C420 C421 1.433 1_455 S
C420 H434 0.931 . S
C421 C417 1.323 . S
C421 C420 1.433 1_655 S
C421 H435 0.933 . S
C422 Dy400 2.738 . S
C422 O405 1.255 . S
C422 O406 1.249 . S
C422 C416 1.516 . S
C423 O407 1.254 . S
C423 O408 1.257 . S
C424 O409 1.266 . S
C424 O410 1.236 . S
C425 C428 1.344 . S
C425 C429 1.328 . S
C425 C431 1.516 . S
C426 C427 1.304 . S
C426 C430 1.323 . S
C427 C426 1.304 . S
C427 C428 1.371 . S
C427 H436 0.930 . S
C428 C425 1.344 . S
C428 C427 1.371 . S
C428 H437 0.931 . S
C429 C425 1.328 . S
C429 C430 1.433 . S
C429 H438 0.931 . S
C430 C426 1.323 . S
C430 C429 1.433 . S
C430 H439 0.933 . S
C431 Dy401 2.738 . S
C431 O411 1.255 . S
C431 O412 1.249 . S
C431 C425 1.516 . S
H432 C418 0.930 . S
H433 C419 0.931 . S
H434 C420 0.931 . S
H435 C421 0.933 . S
H436 C427 0.930 . S
H437 C428 0.931 . S
H438 C429 0.931 . S
H439 C430 0.933 . S
Dy440 O443 2.307 . S
Dy440 O445 2.395 . S
Dy440 O446 2.379 . S
Dy440 O448 2.339 . S
Dy440 O450 2.298 . S
Dy440 O454 2.275 . S
Dy440 C462 2.738 . S
Dy441 O444 2.298 . S
Dy441 O447 2.275 . S
Dy441 O449 2.307 . S
Dy441 O451 2.395 . S
Dy441 O452 2.379 . S
Dy441 O455 2.339 . S
Dy441 C471 2.738 . S
C442 O454 1.254 . S
C442 O455 1.257 . S
O443 Dy440 2.307 . S
O443 C453 1.266 . S
O444 Dy441 2.298 . S
O444 C453 1.236 . S
O445 Dy440 2.395 . S
O445 C462 1.255 . S
O446 Dy440 2.379 . S
O446 C462 1.249 . S
O447 Dy441 2.275 . S
O447 C463 1.254 . S
O448 Dy440 2.339 . S
O448 C463 1.257 . S
O449 Dy441 2.307 . S
O449 C464 1.266 . S
O450 Dy440 2.298 . S
O450 C464 1.236 . S
O451 Dy441 2.395 . S
O451 C471 1.255 . S
O452 Dy441 2.379 . S
O452 C471 1.249 . S
C453 O443 1.266 . S
C453 O444 1.236 . S
O454 Dy440 2.275 . S
O454 C442 1.254 . S
O455 Dy441 2.339 . S
O455 C442 1.257 . S
C456 C459 1.344 . S
C456 C460 1.328 . S
C456 C462 1.516 . S
C457 C458 1.304 . S
C457 C461 1.323 . S
C458 C457 1.304 . S
C458 C459 1.371 1_565 S
C458 H472 0.930 . S
C459 C456 1.344 . S
C459 C458 1.371 1_545 S
C459 H473 0.931 . S
C460 C456 1.328 . S
C460 C461 1.433 1_545 S
C460 H474 0.931 . S
C461 C457 1.323 . S
C461 C460 1.433 1_565 S
C461 H475 0.933 . S
C462 Dy440 2.738 . S
C462 O445 1.255 . S
C462 O446 1.249 . S
C462 C456 1.516 . S
C463 O447 1.254 . S
C463 O448 1.257 . S
C464 O449 1.266 . S
C464 O450 1.236 . S
C465 C468 1.344 . S
C465 C469 1.328 . S
C465 C471 1.516 . S
C466 C467 1.304 . S
C466 C470 1.323 . S
C467 C466 1.304 . S
C467 C468 1.371 . S
C467 H476 0.930 . S
C468 C465 1.344 . S
C468 C467 1.371 . S
C468 H477 0.931 . S
C469 C465 1.328 . S
C469 C470 1.433 . S
C469 H478 0.931 . S
C470 C466 1.323 . S
C470 C469 1.433 . S
C470 H479 0.933 . S
C471 Dy441 2.738 . S
C471 O451 1.255 . S
C471 O452 1.249 . S
C471 C465 1.516 . S
H472 C458 0.930 . S
H473 C459 0.931 . S
H474 C460 0.931 . S
H475 C461 0.933 . S
H476 C467 0.930 . S
H477 C468 0.931 . S
H478 C469 0.931 . S
H479 C470 0.933 . S
H480 C498 0.951 . S
H481 C500 0.951 . S
H482 C502 0.950 . S
H483 C503 0.950 . S
H484 C505 0.950 1_565 S
H485 C508 0.950 . S
H486 C509 0.950 . S
H487 C511 0.950 . S
H488 C512 0.950 . S
H489 C513 0.951 . S
H490 C515 0.951 . S
H491 C517 0.950 . S
H492 C518 0.950 . S
H493 C520 0.950 . S
H494 C523 0.950 . S
H495 C524 0.950 . S
H496 C526 0.950 . S
H497 C527 0.950 . S
C498 H480 0.951 . S
C498 C499 1.366 . S
C498 C500 1.388 . S
C499 C498 1.366 . S
C499 C503 1.385 . S
C500 H481 0.951 . S
C500 C498 1.388 . S
C500 C501 1.366 . S
C501 C500 1.366 . S
C501 C502 1.414 . S
C501 C504 1.499 . S
C502 H482 0.950 . S
C502 C501 1.414 . S
C502 C503 1.374 . S
C503 H483 0.950 . S
C503 C499 1.385 . S
C503 C502 1.374 . S
C504 C501 1.499 . S
C504 C505 1.373 1_565 S
C504 C506 1.389 . S
C505 H484 0.950 1_545 S
C505 C504 1.373 1_545 S
C505 C521 1.377 . S
C506 C504 1.389 . S
C506 C507 1.524 . S
C506 C520 1.377 1_565 S
C507 C506 1.524 . S
C507 C508 1.397 . S
C507 C512 1.363 . S
C508 H485 0.950 . S
C508 C507 1.397 . S
C508 C509 1.334 . S
C509 H486 0.950 . S
C509 C508 1.334 . S
C509 C510 1.287 . S
C510 C509 1.287 . S
C510 C511 1.524 . S
C510 H529 0.913 . S
C511 H487 0.950 . S
C511 C510 1.524 . S
C511 C512 1.415 . S
C512 H488 0.950 . S
C512 C507 1.363 . S
C512 C511 1.415 . S
C513 H489 0.951 . S
C513 C514 1.366 . S
C513 C515 1.388 . S
C514 C513 1.366 . S
C514 C518 1.385 . S
C515 H490 0.951 . S
C515 C513 1.388 . S
C515 C516 1.366 . S
C516 C515 1.366 . S
C516 C517 1.414 . S
C516 C519 1.499 . S
C517 H491 0.950 . S
C517 C516 1.414 . S
C517 C518 1.374 . S
C518 H492 0.950 . S
C518 C514 1.385 . S
C518 C517 1.374 . S
C519 C516 1.499 . S
C519 C520 1.373 . S
C519 C521 1.389 . S
C520 H493 0.950 . S
C520 C506 1.377 1_545 S
C520 C519 1.373 . S
C521 C505 1.377 . S
C521 C519 1.389 . S
C521 C522 1.524 . S
C522 C521 1.524 . S
C522 C523 1.397 . S
C522 C527 1.363 . S
C523 H494 0.950 . S
C523 C522 1.397 . S
C523 C524 1.334 . S
C524 H495 0.950 . S
C524 C523 1.334 . S
C524 C525 1.287 . S
C525 C524 1.287 . S
C525 C526 1.524 . S
C525 H528 0.999 . S
C526 H496 0.950 . S
C526 C525 1.524 . S
C526 C527 1.415 . S
C527 H497 0.950 . S
C527 C522 1.363 . S
C527 C526 1.415 . S
H528 C525 0.999 . S
H529 C510 0.913 . S
H530 C548 0.951 . S
H531 C550 0.951 . S
H532 C552 0.950 . S
H533 C553 0.950 . S
H534 C555 0.950 . S
H535 C558 0.950 . S
H536 C559 0.950 . S
H537 C561 0.950 . S
H538 C562 0.950 . S
H539 C563 0.951 . S
H540 C565 0.951 . S
H541 C567 0.950 . S
H542 C568 0.950 . S
H543 C570 0.950 . S
H544 C573 0.950 . S
H545 C574 0.950 . S
H546 C576 0.950 . S
H547 C577 0.950 . S
C548 H530 0.951 . S
C548 C549 1.366 . S
C548 C550 1.388 . S
C549 C548 1.366 . S
C549 C553 1.385 . S
C550 H531 0.951 . S
C550 C548 1.388 . S
C550 C551 1.366 . S
C551 C550 1.366 . S
C551 C552 1.414 . S
C551 C554 1.499 . S
C552 H532 0.950 . S
C552 C551 1.414 . S
C552 C553 1.374 . S
C553 H533 0.950 . S
C553 C549 1.385 . S
C553 C552 1.374 . S
C554 C551 1.499 . S
C554 C555 1.373 . S
C554 C556 1.389 . S
C555 H534 0.950 . S
C555 C554 1.373 . S
C555 C571 1.377 . S
C556 C554 1.389 . S
C556 C557 1.524 . S
C556 C570 1.377 . S
C557 C556 1.524 . S
C557 C558 1.397 . S
C557 C562 1.363 . S
C558 H535 0.950 . S
C558 C557 1.397 . S
C558 C559 1.334 . S
C559 H536 0.950 . S
C559 C558 1.334 . S
C559 C560 1.287 . S
C560 C559 1.287 . S
C560 C561 1.524 . S
C560 H579 0.913 . S
C561 H537 0.950 . S
C561 C560 1.524 . S
C561 C562 1.415 . S
C562 H538 0.950 . S
C562 C557 1.363 . S
C562 C561 1.415 . S
C563 H539 0.951 . S
C563 C564 1.366 . S
C563 C565 1.388 . S
C564 C563 1.366 . S
C564 C568 1.385 . S
C565 H540 0.951 . S
C565 C563 1.388 . S
C565 C566 1.366 . S
C566 C565 1.366 . S
C566 C567 1.414 . S
C566 C569 1.499 . S
C567 H541 0.950 . S
C567 C566 1.414 . S
C567 C568 1.374 . S
C568 H542 0.950 . S
C568 C564 1.385 . S
C568 C567 1.374 . S
C569 C566 1.499 . S
C569 C570 1.373 . S
C569 C571 1.389 . S
C570 H543 0.950 . S
C570 C556 1.377 . S
C570 C569 1.373 . S
C571 C555 1.377 . S
C571 C569 1.389 . S
C571 C572 1.524 . S
C572 C571 1.524 . S
C572 C573 1.397 . S
C572 C577 1.363 . S
C573 H544 0.950 . S
C573 C572 1.397 . S
C573 C574 1.334 . S
C574 H545 0.950 . S
C574 C573 1.334 . S
C574 C575 1.287 . S
C575 C574 1.287 . S
C575 C576 1.524 . S
C575 H578 0.999 . S
C576 H546 0.950 . S
C576 C575 1.524 . S
C576 C577 1.415 . S
C577 H547 0.950 . S
C577 C572 1.363 . S
C577 C576 1.415 . S
H578 C575 0.999 . S
H579 C560 0.913 . S
H580 C598 0.951 . S
H581 C600 0.951 . S
H582 C602 0.950 . S
H583 C603 0.950 . S
H584 C605 0.950 . S
H585 C608 0.950 . S
H586 C609 0.950 . S
H587 C611 0.950 . S
H588 C612 0.950 1_455 S
H589 C613 0.951 . S
H590 C615 0.951 . S
H591 C617 0.950 . S
H592 C618 0.950 . S
H593 C620 0.950 . S
H594 C623 0.950 . S
H595 C624 0.950 . S
H596 C626 0.950 1_655 S
H597 C627 0.950 . S
C598 H580 0.951 . S
C598 C599 1.366 . S
C598 C600 1.388 . S
C599 C598 1.366 . S
C599 C603 1.385 . S
C600 H581 0.951 . S
C600 C598 1.388 . S
C600 C601 1.366 . S
C601 C600 1.366 . S
C601 C602 1.414 . S
C601 C604 1.499 . S
C602 H582 0.950 . S
C602 C601 1.414 . S
C602 C603 1.374 . S
C603 H583 0.950 . S
C603 C599 1.385 . S
C603 C602 1.374 . S
C604 C601 1.499 . S
C604 C605 1.373 . S
C604 C606 1.389 . S
C605 H584 0.950 . S
C605 C604 1.373 . S
C605 C621 1.383 . S
C606 C604 1.389 . S
C606 C607 1.524 . S
C606 C620 1.377 1_655 S
C607 C606 1.524 . S
C607 C608 1.397 . S
C607 C612 1.363 . S
C608 H585 0.950 . S
C608 C607 1.397 . S
C608 C609 1.334 . S
C609 H586 0.950 . S
C609 C608 1.334 . S
C609 C610 1.287 . S
C610 C609 1.287 . S
C610 C611 1.524 . S
C610 H629 0.913 . S
C611 H587 0.950 . S
C611 C610 1.524 . S
C611 C612 1.415 . S
C612 H588 0.950 1_655 S
C612 C607 1.363 . S
C612 C611 1.415 . S
C613 H589 0.951 . S
C613 C614 1.366 . S
C613 C615 1.388 . S
C614 C613 1.366 . S
C614 C618 1.385 . S
C615 H590 0.951 . S
C615 C613 1.388 . S
C615 C616 1.366 . S
C616 C615 1.366 . S
C616 C617 1.414 . S
C616 C619 1.499 . S
C617 H591 0.950 . S
C617 C616 1.414 . S
C617 C618 1.374 . S
C618 H592 0.950 . S
C618 C614 1.385 . S
C618 C617 1.374 . S
C619 C616 1.499 . S
C619 C620 1.373 . S
C619 C621 1.385 1_455 S
C620 H593 0.950 . S
C620 C606 1.377 1_455 S
C620 C619 1.373 . S
C621 C605 1.383 . S
C621 C619 1.385 1_655 S
C621 C622 1.522 1_655 S
C622 C621 1.522 1_455 S
C622 C623 1.397 . S
C622 C627 1.363 1_455 S
C623 H594 0.950 . S
C623 C622 1.397 . S
C623 C624 1.334 . S
C624 H595 0.950 . S
C624 C623 1.334 . S
C624 C625 1.287 . S
C625 C624 1.287 . S
C625 C626 1.524 . S
C625 H628 0.999 . S
C626 H596 0.950 1_455 S
C626 C625 1.524 . S
C626 C627 1.415 1_455 S
C627 H597 0.950 . S
C627 C622 1.363 1_655 S
C627 C626 1.415 1_655 S
H628 C625 0.999 . S
H629 C610 0.913 . S
H630 C648 0.951 . S
H631 C650 0.951 . S
H632 C652 0.950 . S
H633 C653 0.950 . S
H634 C655 0.950 . S
H635 C658 0.950 . S
H636 C659 0.950 . S
H637 C661 0.950 . S
H638 C662 0.950 . S
H639 C663 0.951 . S
H640 C665 0.951 . S
H641 C667 0.950 . S
H642 C668 0.950 . S
H643 C670 0.943 1_545 S
H644 C673 0.950 . S
H645 C674 0.950 . S
H646 C676 0.950 . S
H647 C677 0.950 . S
C648 H630 0.951 . S
C648 C649 1.366 . S
C648 C650 1.388 . S
C649 C648 1.366 . S
C649 C653 1.385 . S
C650 H631 0.951 . S
C650 C648 1.388 . S
C650 C651 1.366 . S
C651 C650 1.366 . S
C651 C652 1.414 . S
C651 C654 1.499 . S
C652 H632 0.950 . S
C652 C651 1.414 . S
C652 C653 1.374 . S
C653 H633 0.950 . S
C653 C649 1.385 . S
C653 C652 1.374 . S
C654 C651 1.499 . S
C654 C655 1.373 . S
C654 C656 1.389 . S
C655 H634 0.950 . S
C655 C654 1.373 . S
C655 C671 1.377 1_565 S
C656 C654 1.389 . S
C656 C657 1.524 . S
C656 C670 1.377 . S
C657 C656 1.524 . S
C657 C658 1.397 . S
C657 C662 1.363 . S
C658 H635 0.950 . S
C658 C657 1.397 . S
C658 C659 1.334 . S
C659 H636 0.950 . S
C659 C658 1.334 . S
C659 C660 1.287 . S
C660 C659 1.287 . S
C660 C661 1.524 . S
C660 H679 0.913 . S
C661 H637 0.950 . S
C661 C660 1.524 . S
C661 C662 1.415 . S
C662 H638 0.950 . S
C662 C657 1.363 . S
C662 C661 1.415 . S
C663 H639 0.951 . S
C663 C664 1.366 . S
C663 C665 1.388 . S
C664 C663 1.366 . S
C664 C668 1.385 . S
C665 H640 0.951 . S
C665 C663 1.388 . S
C665 C666 1.366 . S
C666 C665 1.366 . S
C666 C667 1.414 . S
C666 C669 1.499 . S
C667 H641 0.950 . S
C667 C666 1.414 . S
C667 C668 1.374 . S
C668 H642 0.950 . S
C668 C664 1.385 . S
C668 C667 1.374 . S
C669 C666 1.499 . S
C669 C670 1.373 1_545 S
C669 C671 1.389 . S
C670 H643 0.943 1_565 S
C670 C656 1.377 . S
C670 C669 1.373 1_565 S
C671 C655 1.377 1_545 S
C671 C669 1.389 . S
C671 C672 1.524 . S
C672 C671 1.524 . S
C672 C673 1.397 . S
C672 C677 1.363 . S
C673 H644 0.950 . S
C673 C672 1.397 . S
C673 C674 1.334 . S
C674 H645 0.950 . S
C674 C673 1.334 . S
C674 C675 1.287 . S
C675 C674 1.287 . S
C675 C676 1.524 . S
C675 H678 0.999 . S
C676 H646 0.950 . S
C676 C675 1.524 . S
C676 C677 1.415 . S
C677 H647 0.950 . S
C677 C672 1.363 . S
C677 C676 1.415 . S
H678 C675 0.999 . S
H679 C660 0.913 . S
H680 C698 0.951 . S
H681 C700 0.951 . S
H682 C702 0.950 . S
H683 C703 0.950 . S
H684 C705 0.950 . S
H685 C708 0.950 . S
H686 C709 0.950 . S
H687 C711 0.950 . S
H688 C712 0.950 . S
H689 C713 0.951 . S
H690 C715 0.951 . S
H691 C717 0.950 . S
H692 C718 0.950 . S
H693 C720 0.950 . S
H694 C723 0.950 . S
H695 C724 0.950 . S
H696 C726 0.950 . S
H697 C727 0.950 . S
C698 H680 0.951 . S
C698 C699 1.366 . S
C698 C700 1.388 . S
C699 C698 1.366 . S
C699 C703 1.385 . S
C700 H681 0.951 . S
C700 C698 1.388 . S
C700 C701 1.366 . S
C701 C700 1.366 . S
C701 C702 1.414 . S
C701 C704 1.499 . S
C702 H682 0.950 . S
C702 C701 1.414 . S
C702 C703 1.374 . S
C703 H683 0.950 . S
C703 C699 1.385 . S
C703 C702 1.374 . S
C704 C701 1.499 . S
C704 C705 1.373 . S
C704 C706 1.389 . S
C705 H684 0.950 . S
C705 C704 1.373 . S
C705 C721 1.377 . S
C706 C704 1.389 . S
C706 C707 1.524 . S
C706 C720 1.377 . S
C707 C706 1.524 . S
C707 C708 1.397 . S
C707 C712 1.363 . S
C708 H685 0.950 . S
C708 C707 1.397 . S
C708 C709 1.334 . S
C709 H686 0.950 . S
C709 C708 1.334 . S
C709 C710 1.287 . S
C710 C709 1.287 . S
C710 C711 1.524 . S
C710 H729 0.913 . S
C711 H687 0.950 . S
C711 C710 1.524 . S
C711 C712 1.415 . S
C712 H688 0.950 . S
C712 C707 1.363 . S
C712 C711 1.415 . S
C713 H689 0.951 . S
C713 C714 1.366 . S
C713 C715 1.388 . S
C714 C713 1.366 . S
C714 C718 1.385 . S
C715 H690 0.951 . S
C715 C713 1.388 . S
C715 C716 1.366 . S
C716 C715 1.366 . S
C716 C717 1.414 . S
C716 C719 1.499 . S
C717 H691 0.950 . S
C717 C716 1.414 . S
C717 C718 1.374 . S
C718 H692 0.950 . S
C718 C714 1.385 . S
C718 C717 1.374 . S
C719 C716 1.499 . S
C719 C720 1.373 . S
C719 C721 1.389 . S
C720 H693 0.950 . S
C720 C706 1.377 . S
C720 C719 1.373 . S
C721 C705 1.377 . S
C721 C719 1.389 . S
C721 C722 1.524 . S
C722 C721 1.524 . S
C722 C723 1.397 . S
C722 C727 1.363 . S
C723 H694 0.950 . S
C723 C722 1.397 . S
C723 C724 1.334 . S
C724 H695 0.950 . S
C724 C723 1.334 . S
C724 C725 1.287 . S
C725 C724 1.287 . S
C725 C726 1.524 . S
C725 H728 0.999 . S
C726 H696 0.950 . S
C726 C725 1.524 . S
C726 C727 1.415 . S
C727 H697 0.950 . S
C727 C722 1.363 . S
C727 C726 1.415 . S
H728 C725 0.999 . S
H729 C710 0.913 . S
H730 C748 0.951 . S
H731 C750 0.951 . S
H732 C752 0.950 . S
H733 C753 0.950 . S
H734 C755 0.963 1_655 S
H735 C758 0.950 . S
H736 C759 0.950 . S
H737 C761 0.950 . S
H738 C762 0.950 . S
H739 C763 0.951 . S
H740 C765 0.951 . S
H741 C767 0.950 . S
H742 C768 0.950 . S
H743 C770 0.950 . S
H744 C773 0.950 . S
H745 C774 0.950 . S
H746 C776 0.950 . S
H747 C777 0.950 . S
C748 H730 0.951 . S
C748 C749 1.366 . S
C748 C750 1.388 . S
C749 C748 1.366 . S
C749 C753 1.385 . S
C750 H731 0.951 . S
C750 C748 1.388 . S
C750 C751 1.366 . S
C751 C750 1.366 . S
C751 C752 1.414 . S
C751 C754 1.499 . S
C752 H732 0.950 . S
C752 C751 1.414 . S
C752 C753 1.374 . S
C753 H733 0.950 . S
C753 C749 1.385 . S
C753 C752 1.374 . S
C754 C751 1.499 . S
C754 C755 1.373 1_655 S
C754 C756 1.389 . S
C755 H734 0.963 1_455 S
C755 C754 1.373 1_455 S
C755 C771 1.377 . S
C756 C754 1.389 . S
C756 C757 1.524 . S
C756 C770 1.377 1_655 S
C757 C756 1.524 . S
C757 C758 1.397 . S
C757 C762 1.363 . S
C758 H735 0.950 . S
C758 C757 1.397 . S
C758 C759 1.334 . S
C759 H736 0.950 . S
C759 C758 1.334 . S
C759 C760 1.287 . S
C760 C759 1.287 . S
C760 C761 1.524 . S
C760 H779 0.913 . S
C761 H737 0.950 . S
C761 C760 1.524 . S
C761 C762 1.415 . S
C762 H738 0.950 . S
C762 C757 1.363 . S
C762 C761 1.415 . S
C763 H739 0.951 . S
C763 C764 1.366 . S
C763 C765 1.388 . S
C764 C763 1.366 . S
C764 C768 1.385 . S
C765 H740 0.951 . S
C765 C763 1.388 . S
C765 C766 1.366 . S
C766 C765 1.366 . S
C766 C767 1.414 . S
C766 C769 1.499 . S
C767 H741 0.950 . S
C767 C766 1.414 . S
C767 C768 1.374 . S
C768 H742 0.950 . S
C768 C764 1.385 . S
C768 C767 1.374 . S
C769 C766 1.499 . S
C769 C770 1.373 . S
C769 C771 1.389 . S
C770 H743 0.950 . S
C770 C756 1.377 1_455 S
C770 C769 1.373 . S
C771 C755 1.377 . S
C771 C769 1.389 . S
C771 C772 1.524 . S
C772 C771 1.524 . S
C772 C773 1.397 . S
C772 C777 1.363 . S
C773 H744 0.950 . S
C773 C772 1.397 . S
C773 C774 1.334 . S
C774 H745 0.950 . S
C774 C773 1.334 . S
C774 C775 1.287 . S
C775 C774 1.287 . S
C775 C776 1.524 . S
C775 H778 0.999 . S
C776 H746 0.950 . S
C776 C775 1.524 . S
C776 C777 1.415 . S
C777 H747 0.950 . S
C777 C772 1.363 . S
C777 C776 1.415 . S
H778 C775 0.999 . S
H779 C760 0.913 . S
H780 C798 0.951 . S
H781 C800 0.951 . S
H782 C802 0.950 . S
H783 C803 0.950 . S
H784 C805 0.950 1_455 S
H785 C808 0.950 . S
H786 C809 0.950 . S
H787 C811 0.950 . S
H788 C812 0.950 . S
H789 C813 0.951 . S
H790 C815 0.951 . S
H791 C817 0.950 . S
H792 C818 0.950 . S
H793 C820 0.950 . S
H794 C823 0.950 . S
H795 C824 0.950 . S
H796 C826 0.950 . S
H797 C827 0.950 . S
C798 H780 0.951 . S
C798 C799 1.366 . S
C798 C800 1.388 . S
C799 C798 1.366 . S
C799 C803 1.385 . S
C800 H781 0.951 . S
C800 C798 1.388 . S
C800 C801 1.366 . S
C801 C800 1.366 . S
C801 C802 1.414 . S
C801 C804 1.499 . S
C802 H782 0.950 . S
C802 C801 1.414 . S
C802 C803 1.374 . S
C803 H783 0.950 . S
C803 C799 1.385 . S
C803 C802 1.374 . S
C804 C801 1.499 . S
C804 C805 1.373 1_455 S
C804 C806 1.389 . S
C805 H784 0.950 1_655 S
C805 C804 1.373 1_655 S
C805 C821 1.377 . S
C806 C804 1.389 . S
C806 C807 1.524 . S
C806 C820 1.377 1_455 S
C807 C806 1.524 . S
C807 C808 1.397 . S
C807 C812 1.363 . S
C808 H785 0.950 . S
C808 C807 1.397 . S
C808 C809 1.334 . S
C809 H786 0.950 . S
C809 C808 1.334 . S
C809 C810 1.287 . S
C810 C809 1.287 . S
C810 C811 1.524 . S
C810 H829 0.913 . S
C811 H787 0.950 . S
C811 C810 1.524 . S
C811 C812 1.415 . S
C812 H788 0.950 . S
C812 C807 1.363 . S
C812 C811 1.415 . S
C813 H789 0.951 . S
C813 C814 1.366 . S
C813 C815 1.388 . S
C814 C813 1.366 . S
C814 C818 1.385 . S
C815 H790 0.951 . S
C815 C813 1.388 . S
C815 C816 1.366 . S
C816 C815 1.366 . S
C816 C817 1.414 . S
C816 C819 1.499 . S
C817 H791 0.950 . S
C817 C816 1.414 . S
C817 C818 1.374 . S
C818 H792 0.950 . S
C818 C814 1.385 . S
C818 C817 1.374 . S
C819 C816 1.499 . S
C819 C820 1.373 . S
C819 C821 1.389 . S
C820 H793 0.950 . S
C820 C806 1.377 1_655 S
C820 C819 1.373 . S
C821 C805 1.377 . S
C821 C819 1.389 . S
C821 C822 1.524 . S
C822 C821 1.524 . S
C822 C823 1.397 . S
C822 C827 1.363 . S
C823 H794 0.950 . S
C823 C822 1.397 . S
C823 C824 1.334 . S
C824 H795 0.950 . S
C824 C823 1.334 . S
C824 C825 1.287 . S
C825 C824 1.287 . S
C825 C826 1.524 . S
C825 H828 0.999 . S
C826 H796 0.950 . S
C826 C825 1.524 . S
C826 C827 1.415 . S
C827 H797 0.950 . S
C827 C822 1.363 . S
C827 C826 1.415 . S
H828 C825 0.999 . S
H829 C810 0.913 . S
H830 C848 0.951 . S
H831 C850 0.951 . S
H832 C852 0.950 . S
H833 C853 0.950 . S
H834 C855 0.950 . S
H835 C858 0.950 . S
H836 C859 0.950 . S
H837 C861 0.950 1_545 S
H838 C862 0.936 1_545 S
H839 C863 0.951 . S
H840 C865 0.951 . S
H841 C867 0.950 . S
H842 C868 0.950 . S
H843 C870 0.950 . S
H844 C873 0.950 . S
H845 C874 0.950 . S
H846 C876 0.950 . S
H847 C877 0.950 . S
C848 H830 0.951 . S
C848 C849 1.366 . S
C848 C850 1.388 . S
C849 C848 1.366 . S
C849 C853 1.385 . S
C850 H831 0.951 . S
C850 C848 1.388 . S
C850 C851 1.366 . S
C851 C850 1.366 . S
C851 C852 1.414 . S
C851 C854 1.499 . S
C852 H832 0.950 . S
C852 C851 1.414 . S
C852 C853 1.374 . S
C853 H833 0.950 . S
C853 C849 1.385 . S
C853 C852 1.374 . S
C854 C851 1.499 . S
C854 C855 1.373 . S
C854 C856 1.389 . S
C855 H834 0.950 . S
C855 C854 1.373 . S
C855 C871 1.377 . S
C856 C854 1.389 . S
C856 C857 1.524 . S
C856 C870 1.377 1_565 S
C857 C856 1.524 . S
C857 C858 1.397 . S
C857 C862 1.389 . S
C858 H835 0.950 . S
C858 C857 1.397 . S
C858 C859 1.334 . S
C859 H836 0.950 . S
C859 C858 1.334 . S
C859 C860 1.287 . S
C860 C859 1.287 . S
C860 C861 1.524 . S
C860 H879 0.913 . S
C861 H837 0.950 1_565 S
C861 C860 1.524 . S
C861 C862 1.404 . S
C862 H838 0.936 1_565 S
C862 C857 1.389 . S
C862 C861 1.404 . S
C863 H839 0.951 . S
C863 C864 1.366 . S
C863 C865 1.388 . S
C864 C863 1.366 . S
C864 C868 1.385 . S
C865 H840 0.951 . S
C865 C863 1.388 . S
C865 C866 1.366 . S
C866 C865 1.366 . S
C866 C867 1.414 . S
C866 C869 1.499 . S
C867 H841 0.950 . S
C867 C866 1.414 . S
C867 C868 1.374 . S
C868 H842 0.950 . S
C868 C864 1.385 . S
C868 C867 1.374 . S
C869 C866 1.499 . S
C869 C870 1.373 . S
C869 C871 1.389 1_545 S
C870 H843 0.950 . S
C870 C856 1.377 1_545 S
C870 C869 1.373 . S
C871 C855 1.377 . S
C871 C869 1.389 1_565 S
C871 C872 1.524 . S
C872 C871 1.524 . S
C872 C873 1.397 1_565 S
C872 C877 1.363 . S
C873 H844 0.950 . S
C873 C872 1.397 1_545 S
C873 C874 1.334 . S
C874 H845 0.950 . S
C874 C873 1.334 . S
C874 C875 1.275 1_545 S
C875 C874 1.275 1_565 S
C875 C876 1.532 . S
C875 H878 1.021 1_565 S
C876 H846 0.950 . S
C876 C875 1.532 . S
C876 C877 1.415 . S
C877 H847 0.950 . S
C877 C872 1.363 . S
C877 C876 1.415 . S
H878 C875 1.021 1_545 S
H879 C860 0.913 . S
H880 C898 0.951 . S
H881 C900 0.951 . S
H882 C902 0.950 . S
H883 C903 0.950 . S
H884 C905 0.950 . S
H885 C908 0.950 . S
H886 C909 0.950 . S
H887 C911 0.950 . S
H888 C912 0.950 . S
H889 C913 0.951 . S
H890 C915 0.951 . S
H891 C917 0.950 . S
H892 C918 0.950 . S
H893 C920 0.950 . S
H894 C923 0.950 . S
H895 C924 0.950 . S
H896 C926 0.950 . S
H897 C927 0.950 . S
C898 H880 0.951 . S
C898 C899 1.366 . S
C898 C900 1.388 . S
C899 C898 1.366 . S
C899 C903 1.385 . S
C900 H881 0.951 . S
C900 C898 1.388 . S
C900 C901 1.366 . S
C901 C900 1.366 . S
C901 C902 1.414 . S
C901 C904 1.499 . S
C902 H882 0.950 . S
C902 C901 1.414 . S
C902 C903 1.374 . S
C903 H883 0.950 . S
C903 C899 1.385 . S
C903 C902 1.374 . S
C904 C901 1.499 . S
C904 C905 1.373 . S
C904 C906 1.389 . S
C905 H884 0.950 . S
C905 C904 1.373 . S
C905 C921 1.377 . S
C906 C904 1.389 . S
C906 C907 1.524 . S
C906 C920 1.377 . S
C907 C906 1.524 . S
C907 C908 1.397 . S
C907 C912 1.363 . S
C908 H885 0.950 . S
C908 C907 1.397 . S
C908 C909 1.334 . S
C909 H886 0.950 . S
C909 C908 1.334 . S
C909 C910 1.287 . S
C910 C909 1.287 . S
C910 C911 1.524 . S
C910 H929 0.913 . S
C911 H887 0.950 . S
C911 C910 1.524 . S
C911 C912 1.415 . S
C912 H888 0.950 . S
C912 C907 1.363 . S
C912 C911 1.415 . S
C913 H889 0.951 . S
C913 C914 1.366 . S
C913 C915 1.388 . S
C914 C913 1.366 . S
C914 C918 1.385 . S
C915 H890 0.951 . S
C915 C913 1.388 . S
C915 C916 1.366 . S
C916 C915 1.366 . S
C916 C917 1.414 . S
C916 C919 1.499 . S
C917 H891 0.950 . S
C917 C916 1.414 . S
C917 C918 1.374 . S
C918 H892 0.950 . S
C918 C914 1.385 . S
C918 C917 1.374 . S
C919 C916 1.499 . S
C919 C920 1.373 . S
C919 C921 1.389 . S
C920 H893 0.950 . S
C920 C906 1.377 . S
C920 C919 1.373 . S
C921 C905 1.377 . S
C921 C919 1.389 . S
C921 C922 1.524 . S
C922 C921 1.524 . S
C922 C923 1.397 . S
C922 C927 1.363 . S
C923 H894 0.950 . S
C923 C922 1.397 . S
C923 C924 1.334 . S
C924 H895 0.950 . S
C924 C923 1.334 . S
C924 C925 1.287 . S
C925 C924 1.287 . S
C925 C926 1.524 . S
C925 H928 0.999 . S
C926 H896 0.950 . S
C926 C925 1.524 . S
C926 C927 1.415 . S
C927 H897 0.950 . S
C927 C922 1.363 . S
C927 C926 1.415 . S
H928 C925 0.999 . S
H929 C910 0.913 . S
H930 C948 0.951 . S
H931 C950 0.951 . S
H932 C952 0.950 . S
H933 C953 0.950 . S
H934 C955 0.950 . S
H935 C958 0.950 . S
H936 C959 0.950 . S
H937 C961 0.950 1_655 S
H938 C962 0.935 1_655 S
H939 C963 0.951 . S
H940 C965 0.951 . S
H941 C967 0.950 . S
H942 C968 0.950 . S
H943 C970 0.950 . S
H944 C973 0.950 . S
H945 C974 0.950 . S
H946 C976 0.950 . S
H947 C977 0.950 . S
C948 H930 0.951 . S
C948 C949 1.366 . S
C948 C950 1.388 . S
C949 C948 1.366 . S
C949 C953 1.385 . S
C950 H931 0.951 . S
C950 C948 1.388 . S
C950 C951 1.366 . S
C951 C950 1.366 . S
C951 C952 1.414 . S
C951 C954 1.499 . S
C952 H932 0.950 . S
C952 C951 1.414 . S
C952 C953 1.374 . S
C953 H933 0.950 . S
C953 C949 1.385 . S
C953 C952 1.374 . S
C954 C951 1.499 . S
C954 C955 1.373 . S
C954 C956 1.389 . S
C955 H934 0.950 . S
C955 C954 1.373 . S
C955 C971 1.377 . S
C956 C954 1.389 . S
C956 C957 1.524 . S
C956 C970 1.377 1_455 S
C957 C956 1.524 . S
C957 C958 1.397 . S
C957 C962 1.365 . S
C958 H935 0.950 . S
C958 C957 1.397 . S
C958 C959 1.334 . S
C959 H936 0.950 . S
C959 C958 1.334 . S
C959 C960 1.287 . S
C960 C959 1.287 . S
C960 C961 1.524 . S
C960 H979 0.913 . S
C961 H937 0.950 1_455 S
C961 C960 1.524 . S
C961 C962 1.429 . S
C962 H938 0.935 1_455 S
C962 C957 1.365 . S
C962 C961 1.429 . S
C963 H939 0.951 . S
C963 C964 1.366 . S
C963 C965 1.388 . S
C964 C963 1.366 . S
C964 C968 1.385 . S
C965 H940 0.951 . S
C965 C963 1.388 . S
C965 C966 1.366 . S
C966 C965 1.366 . S
C966 C967 1.414 . S
C966 C969 1.499 . S
C967 H941 0.950 . S
C967 C966 1.414 . S
C967 C968 1.374 . S
C968 H942 0.950 . S
C968 C964 1.385 . S
C968 C967 1.374 . S
C969 C966 1.499 . S
C969 C970 1.373 . S
C969 C971 1.389 1_655 S
C970 H943 0.950 . S
C970 C956 1.377 1_655 S
C970 C969 1.373 . S
C971 C955 1.377 . S
C971 C969 1.389 1_455 S
C971 C972 1.524 . S
C972 C971 1.524 . S
C972 C973 1.397 1_455 S
C972 C977 1.363 . S
C973 H944 0.950 . S
C973 C972 1.397 1_655 S
C973 C974 1.334 . S
C974 H945 0.950 . S
C974 C973 1.334 . S
C974 C975 1.287 1_655 S
C975 C974 1.287 1_455 S
C975 C976 1.524 . S
C975 H978 1.001 . S
C976 H946 0.950 . S
C976 C975 1.524 . S
C976 C977 1.415 . S
C977 H947 0.950 . S
C977 C972 1.363 . S
C977 C976 1.415 . S
H978 C975 1.001 . S
H979 C960 0.913 . S
H980 C998 0.951 . S
H981 C1000 0.951 . S
H982 C1002 0.950 . S
H983 C1003 0.950 . S
H984 C1005 0.950 . S
H985 C1008 0.950 . S
H986 C1009 0.950 . S
H987 C1011 0.950 1_565 S
H988 C1012 0.950 1_565 S
H989 C1013 0.951 . S
H990 C1015 0.951 . S
H991 C1017 0.950 . S
H992 C1018 0.950 . S
H993 C1020 0.950 . S
H994 C1023 0.950 . S
H995 C1024 0.950 . S
H996 C1026 0.950 . S
H997 C1027 0.950 . S
C998 H980 0.951 . S
C998 C999 1.366 . S
C998 C1000 1.388 . S
C999 C998 1.366 . S
C999 C1003 1.385 . S
C1000 H981 0.951 . S
C1000 C998 1.388 . S
C1000 C1001 1.366 . S
C1001 C1000 1.366 . S
C1001 C1002 1.414 . S
C1001 C1004 1.499 . S
C1002 H982 0.950 . S
C1002 C1001 1.414 . S
C1002 C1003 1.374 . S
C1003 H983 0.950 . S
C1003 C999 1.385 . S
C1003 C1002 1.374 . S
C1004 C1001 1.499 . S
C1004 C1005 1.373 . S
C1004 C1006 1.389 . S
C1005 H984 0.950 . S
C1005 C1004 1.373 . S
C1005 C1021 1.377 . S
C1006 C1004 1.389 . S
C1006 C1007 1.524 . S
C1006 C1020 1.377 1_545 S
C1007 C1006 1.524 . S
C1007 C1008 1.397 . S
C1007 C1012 1.363 . S
C1008 H985 0.950 . S
C1008 C1007 1.397 . S
C1008 C1009 1.334 . S
C1009 H986 0.950 . S
C1009 C1008 1.334 . S
C1009 C1010 1.287 . S
C1010 C1009 1.287 . S
C1010 C1011 1.524 . S
C1010 H1029 0.913 . S
C1011 H987 0.950 1_545 S
C1011 C1010 1.524 . S
C1011 C1012 1.415 . S
C1012 H988 0.950 1_545 S
C1012 C1007 1.363 . S
C1012 C1011 1.415 . S
C1013 H989 0.951 . S
C1013 C1014 1.366 . S
C1013 C1015 1.388 . S
C1014 C1013 1.366 . S
C1014 C1018 1.385 . S
C1015 H990 0.951 . S
C1015 C1013 1.388 . S
C1015 C1016 1.366 . S
C1016 C1015 1.366 . S
C1016 C1017 1.414 . S
C1016 C1019 1.499 . S
C1017 H991 0.950 . S
C1017 C1016 1.414 . S
C1017 C1018 1.374 . S
C1018 H992 0.950 . S
C1018 C1014 1.385 . S
C1018 C1017 1.374 . S
C1019 C1016 1.499 . S
C1019 C1020 1.373 . S
C1019 C1021 1.389 1_565 S
C1020 H993 0.950 . S
C1020 C1006 1.377 1_565 S
C1020 C1019 1.373 . S
C1021 C1005 1.377 . S
C1021 C1019 1.389 1_545 S
C1021 C1022 1.524 . S
C1022 C1021 1.524 . S
C1022 C1023 1.397 1_545 S
C1022 C1027 1.363 . S
C1023 H994 0.950 . S
C1023 C1022 1.397 1_565 S
C1023 C1024 1.334 . S
C1024 H995 0.950 . S
C1024 C1023 1.334 . S
C1024 C1025 1.287 1_565 S
C1025 C1024 1.287 1_545 S
C1025 C1026 1.524 . S
C1025 H1028 0.999 . S
C1026 H996 0.950 . S
C1026 C1025 1.524 . S
C1026 C1027 1.415 . S
C1027 H997 0.950 . S
C1027 C1022 1.363 . S
C1027 C1026 1.415 . S
H1028 C1025 0.999 . S
H1029 C1010 0.913 . S
H1030 C1048 0.951 . S
H1031 C1050 0.951 . S
H1032 C1052 0.950 . S
H1033 C1053 0.950 . S
H1034 C1055 0.950 . S
H1035 C1058 0.950 . S
H1036 C1059 0.950 . S
H1037 C1061 0.950 . S
H1038 C1062 0.950 . S
H1039 C1063 0.951 . S
H1040 C1065 0.951 . S
H1041 C1067 0.950 . S
H1042 C1068 0.950 . S
H1043 C1070 0.950 . S
H1044 C1073 0.950 . S
H1045 C1074 0.950 . S
H1046 C1076 0.950 . S
H1047 C1077 0.950 . S
C1048 H1030 0.951 . S
C1048 C1049 1.366 . S
C1048 C1050 1.388 . S
C1049 C1048 1.366 . S
C1049 C1053 1.385 . S
C1050 H1031 0.951 . S
C1050 C1048 1.388 . S
C1050 C1051 1.366 . S
C1051 C1050 1.366 . S
C1051 C1052 1.414 . S
C1051 C1054 1.499 . S
C1052 H1032 0.950 . S
C1052 C1051 1.414 . S
C1052 C1053 1.374 . S
C1053 H1033 0.950 . S
C1053 C1049 1.385 . S
C1053 C1052 1.374 . S
C1054 C1051 1.499 . S
C1054 C1055 1.373 . S
C1054 C1056 1.389 . S
C1055 H1034 0.950 . S
C1055 C1054 1.373 . S
C1055 C1071 1.377 . S
C1056 C1054 1.389 . S
C1056 C1057 1.524 . S
C1056 C1070 1.377 . S
C1057 C1056 1.524 . S
C1057 C1058 1.397 . S
C1057 C1062 1.363 . S
C1058 H1035 0.950 . S
C1058 C1057 1.397 . S
C1058 C1059 1.334 . S
C1059 H1036 0.950 . S
C1059 C1058 1.334 . S
C1059 C1060 1.287 . S
C1060 C1059 1.287 . S
C1060 C1061 1.524 . S
C1060 H1079 0.913 . S
C1061 H1037 0.950 . S
C1061 C1060 1.524 . S
C1061 C1062 1.415 . S
C1062 H1038 0.950 . S
C1062 C1057 1.363 . S
C1062 C1061 1.415 . S
C1063 H1039 0.951 . S
C1063 C1064 1.366 . S
C1063 C1065 1.388 . S
C1064 C1063 1.366 . S
C1064 C1068 1.385 . S
C1065 H1040 0.951 . S
C1065 C1063 1.388 . S
C1065 C1066 1.366 . S
C1066 C1065 1.366 . S
C1066 C1067 1.414 . S
C1066 C1069 1.499 . S
C1067 H1041 0.950 . S
C1067 C1066 1.414 . S
C1067 C1068 1.374 . S
C1068 H1042 0.950 . S
C1068 C1064 1.385 . S
C1068 C1067 1.374 . S
C1069 C1066 1.499 . S
C1069 C1070 1.373 . S
C1069 C1071 1.389 . S
C1070 H1043 0.950 . S
C1070 C1056 1.377 . S
C1070 C1069 1.373 . S
C1071 C1055 1.377 . S
C1071 C1069 1.389 . S
C1071 C1072 1.524 . S
C1072 C1071 1.524 . S
C1072 C1073 1.397 . S
C1072 C1077 1.363 . S
C1073 H1044 0.950 . S
C1073 C1072 1.397 . S
C1073 C1074 1.334 . S
C1074 H1045 0.950 . S
C1074 C1073 1.334 . S
C1074 C1075 1.287 . S
C1075 C1074 1.287 . S
C1075 C1076 1.524 . S
C1075 H1078 0.999 . S
C1076 H1046 0.950 . S
C1076 C1075 1.524 . S
C1076 C1077 1.415 . S
C1077 H1047 0.950 . S
C1077 C1072 1.363 . S
C1077 C1076 1.415 . S
H1078 C1075 0.999 . S
H1079 C1060 0.913 . S
H1080 C1098 0.951 . S
H1081 C1100 0.951 . S
H1082 C1102 0.950 . S
H1083 C1103 0.950 . S
H1084 C1105 0.950 . S
H1085 C1108 0.950 . S
H1086 C1109 0.950 . S
H1087 C1111 0.950 . S
H1088 C1112 0.950 . S
H1089 C1113 0.951 . S
H1090 C1115 0.951 . S
H1091 C1117 0.950 . S
H1092 C1118 0.950 . S
H1093 C1120 0.950 . S
H1094 C1123 0.950 . S
H1095 C1124 0.950 . S
H1096 C1126 0.950 . S
H1097 C1127 0.950 . S
C1098 H1080 0.951 . S
C1098 C1099 1.366 . S
C1098 C1100 1.388 . S
C1099 C1098 1.366 . S
C1099 C1103 1.385 . S
C1100 H1081 0.951 . S
C1100 C1098 1.388 . S
C1100 C1101 1.366 . S
C1101 C1100 1.366 . S
C1101 C1102 1.414 . S
C1101 C1104 1.499 . S
C1102 H1082 0.950 . S
C1102 C1101 1.414 . S
C1102 C1103 1.374 . S
C1103 H1083 0.950 . S
C1103 C1099 1.385 . S
C1103 C1102 1.374 . S
C1104 C1101 1.499 . S
C1104 C1105 1.373 . S
C1104 C1106 1.389 . S
C1105 H1084 0.950 . S
C1105 C1104 1.373 . S
C1105 C1121 1.377 . S
C1106 C1104 1.389 . S
C1106 C1107 1.524 . S
C1106 C1120 1.377 . S
C1107 C1106 1.524 . S
C1107 C1108 1.397 . S
C1107 C1112 1.363 . S
C1108 H1085 0.950 . S
C1108 C1107 1.397 . S
C1108 C1109 1.334 . S
C1109 H1086 0.950 . S
C1109 C1108 1.334 . S
C1109 C1110 1.287 . S
C1110 C1109 1.287 . S
C1110 C1111 1.524 . S
C1110 H1129 0.913 . S
C1111 H1087 0.950 . S
C1111 C1110 1.524 . S
C1111 C1112 1.415 . S
C1112 H1088 0.950 . S
C1112 C1107 1.363 . S
C1112 C1111 1.415 . S
C1113 H1089 0.951 . S
C1113 C1114 1.366 . S
C1113 C1115 1.388 . S
C1114 C1113 1.366 . S
C1114 C1118 1.385 . S
C1115 H1090 0.951 . S
C1115 C1113 1.388 . S
C1115 C1116 1.366 . S
C1116 C1115 1.366 . S
C1116 C1117 1.414 . S
C1116 C1119 1.499 . S
C1117 H1091 0.950 . S
C1117 C1116 1.414 . S
C1117 C1118 1.374 . S
C1118 H1092 0.950 . S
C1118 C1114 1.385 . S
C1118 C1117 1.374 . S
C1119 C1116 1.499 . S
C1119 C1120 1.373 . S
C1119 C1121 1.389 . S
C1120 H1093 0.950 . S
C1120 C1106 1.377 . S
C1120 C1119 1.373 . S
C1121 C1105 1.377 . S
C1121 C1119 1.389 . S
C1121 C1122 1.524 . S
C1122 C1121 1.524 . S
C1122 C1123 1.397 . S
C1122 C1127 1.363 . S
C1123 H1094 0.950 . S
C1123 C1122 1.397 . S
C1123 C1124 1.334 . S
C1124 H1095 0.950 . S
C1124 C1123 1.334 . S
C1124 C1125 1.287 . S
C1125 C1124 1.287 . S
C1125 C1126 1.524 . S
C1125 H1128 0.999 . S
C1126 H1096 0.950 . S
C1126 C1125 1.524 . S
C1126 C1127 1.415 . S
C1127 H1097 0.950 . S
C1127 C1122 1.363 . S
C1127 C1126 1.415 . S
H1128 C1125 0.999 . S
H1129 C1110 0.913 . S
H1130 C1148 0.951 . S
H1131 C1150 0.951 . S
H1132 C1152 0.950 . S
H1133 C1153 0.950 . S
H1134 C1155 0.950 . S
H1135 C1158 0.950 . S
H1136 C1159 0.950 . S
H1137 C1161 0.950 . S
H1138 C1162 0.950 . S
H1139 C1163 0.951 . S
H1140 C1165 0.951 . S
H1141 C1167 0.950 . S
H1142 C1168 0.950 . S
H1143 C1170 0.950 . S
H1144 C1173 0.950 . S
H1145 C1174 0.950 . S
H1146 C1176 0.950 . S
H1147 C1177 0.950 . S
C1148 H1130 0.951 . S
C1148 C1149 1.366 . S
C1148 C1150 1.388 . S
C1149 C1148 1.366 . S
C1149 C1153 1.385 . S
C1150 H1131 0.951 . S
C1150 C1148 1.388 . S
C1150 C1151 1.366 . S
C1151 C1150 1.366 . S
C1151 C1152 1.414 . S
C1151 C1154 1.499 . S
C1152 H1132 0.950 . S
C1152 C1151 1.414 . S
C1152 C1153 1.374 . S
C1153 H1133 0.950 . S
C1153 C1149 1.385 . S
C1153 C1152 1.374 . S
C1154 C1151 1.499 . S
C1154 C1155 1.373 . S
C1154 C1156 1.389 . S
C1155 H1134 0.950 . S
C1155 C1154 1.373 . S
C1155 C1171 1.377 . S
C1156 C1154 1.389 . S
C1156 C1157 1.524 . S
C1156 C1170 1.377 . S
C1157 C1156 1.524 . S
C1157 C1158 1.397 . S
C1157 C1162 1.363 . S
C1158 H1135 0.950 . S
C1158 C1157 1.397 . S
C1158 C1159 1.334 . S
C1159 H1136 0.950 . S
C1159 C1158 1.334 . S
C1159 C1160 1.287 . S
C1160 C1159 1.287 . S
C1160 C1161 1.524 . S
C1160 H1179 0.913 . S
C1161 H1137 0.950 . S
C1161 C1160 1.524 . S
C1161 C1162 1.415 . S
C1162 H1138 0.950 . S
C1162 C1157 1.363 . S
C1162 C1161 1.415 . S
C1163 H1139 0.951 . S
C1163 C1164 1.366 . S
C1163 C1165 1.388 . S
C1164 C1163 1.366 . S
C1164 C1168 1.385 . S
C1165 H1140 0.951 . S
C1165 C1163 1.388 . S
C1165 C1166 1.366 . S
C1166 C1165 1.366 . S
C1166 C1167 1.414 . S
C1166 C1169 1.499 . S
C1167 H1141 0.950 . S
C1167 C1166 1.414 . S
C1167 C1168 1.374 . S
C1168 H1142 0.950 . S
C1168 C1164 1.385 . S
C1168 C1167 1.374 . S
C1169 C1166 1.499 . S
C1169 C1170 1.373 . S
C1169 C1171 1.389 . S
C1170 H1143 0.950 . S
C1170 C1156 1.377 . S
C1170 C1169 1.373 . S
C1171 C1155 1.377 . S
C1171 C1169 1.389 . S
C1171 C1172 1.524 . S
C1172 C1171 1.524 . S
C1172 C1173 1.397 . S
C1172 C1177 1.363 . S
C1173 H1144 0.950 . S
C1173 C1172 1.397 . S
C1173 C1174 1.334 . S
C1174 H1145 0.950 . S
C1174 C1173 1.334 . S
C1174 C1175 1.287 . S
C1175 C1174 1.287 . S
C1175 C1176 1.524 . S
C1175 H1178 0.999 . S
C1176 H1146 0.950 . S
C1176 C1175 1.524 . S
C1176 C1177 1.415 . S
C1177 H1147 0.950 . S
C1177 C1172 1.363 . S
C1177 C1176 1.415 . S
H1178 C1175 0.999 . S
H1179 C1160 0.913 . S
H1180 C1198 0.951 . S
H1181 C1200 0.951 . S
H1182 C1202 0.950 . S
H1183 C1203 0.950 . S
H1184 C1205 0.950 . S
H1185 C1208 0.950 . S
H1186 C1209 0.950 . S
H1187 C1211 0.950 . S
H1188 C1212 0.950 . S
H1189 C1213 0.951 . S
H1190 C1215 0.951 . S
H1191 C1217 0.950 . S
H1192 C1218 0.950 . S
H1193 C1220 0.950 . S
H1194 C1223 0.950 . S
H1195 C1224 0.950 . S
H1196 C1226 0.950 . S
H1197 C1227 0.950 . S
C1198 H1180 0.951 . S
C1198 C1199 1.366 . S
C1198 C1200 1.388 . S
C1199 C1198 1.366 . S
C1199 C1203 1.385 . S
C1200 H1181 0.951 . S
C1200 C1198 1.388 . S
C1200 C1201 1.366 . S
C1201 C1200 1.366 . S
C1201 C1202 1.414 . S
C1201 C1204 1.499 . S
C1202 H1182 0.950 . S
C1202 C1201 1.414 . S
C1202 C1203 1.374 . S
C1203 H1183 0.950 . S
C1203 C1199 1.385 . S
C1203 C1202 1.374 . S
C1204 C1201 1.499 . S
C1204 C1205 1.373 . S
C1204 C1206 1.389 . S
C1205 H1184 0.950 . S
C1205 C1204 1.373 . S
C1205 C1221 1.377 . S
C1206 C1204 1.389 . S
C1206 C1207 1.524 . S
C1206 C1220 1.377 . S
C1207 C1206 1.524 . S
C1207 C1208 1.397 . S
C1207 C1212 1.363 . S
C1208 H1185 0.950 . S
C1208 C1207 1.397 . S
C1208 C1209 1.334 . S
C1209 H1186 0.950 . S
C1209 C1208 1.334 . S
C1209 C1210 1.287 . S
C1210 C1209 1.287 . S
C1210 C1211 1.524 . S
C1210 H1229 0.913 . S
C1211 H1187 0.950 . S
C1211 C1210 1.524 . S
C1211 C1212 1.415 . S
C1212 H1188 0.950 . S
C1212 C1207 1.363 . S
C1212 C1211 1.415 . S
C1213 H1189 0.951 . S
C1213 C1214 1.366 . S
C1213 C1215 1.388 . S
C1214 C1213 1.366 . S
C1214 C1218 1.385 . S
C1215 H1190 0.951 . S
C1215 C1213 1.388 . S
C1215 C1216 1.366 . S
C1216 C1215 1.366 . S
C1216 C1217 1.414 . S
C1216 C1219 1.499 . S
C1217 H1191 0.950 . S
C1217 C1216 1.414 . S
C1217 C1218 1.374 . S
C1218 H1192 0.950 . S
C1218 C1214 1.385 . S
C1218 C1217 1.374 . S
C1219 C1216 1.499 . S
C1219 C1220 1.373 . S
C1219 C1221 1.389 . S
C1220 H1193 0.950 . S
C1220 C1206 1.377 . S
C1220 C1219 1.373 . S
C1221 C1205 1.377 . S
C1221 C1219 1.389 . S
C1221 C1222 1.524 . S
C1222 C1221 1.524 . S
C1222 C1223 1.397 . S
C1222 C1227 1.363 . S
C1223 H1194 0.950 . S
C1223 C1222 1.397 . S
C1223 C1224 1.334 . S
C1224 H1195 0.950 . S
C1224 C1223 1.334 . S
C1224 C1225 1.287 . S
C1225 C1224 1.287 . S
C1225 C1226 1.524 . S
C1225 H1228 0.999 . S
C1226 H1196 0.950 . S
C1226 C1225 1.524 . S
C1226 C1227 1.415 . S
C1227 H1197 0.950 . S
C1227 C1222 1.363 . S
C1227 C1226 1.415 . S
H1228 C1225 0.999 . S
H1229 C1210 0.913 . S
H1230 C1248 0.951 . S
H1231 C1250 0.951 . S
H1232 C1252 0.950 . S
H1233 C1253 0.950 . S
H1234 C1255 0.950 . S
H1235 C1258 0.950 . S
H1236 C1259 0.950 . S
H1237 C1261 0.950 . S
H1238 C1262 0.950 . S
H1239 C1263 0.951 . S
H1240 C1265 0.951 . S
H1241 C1267 0.950 . S
H1242 C1268 0.950 . S
H1243 C1270 0.950 . S
H1244 C1273 0.950 . S
H1245 C1274 0.950 . S
H1246 C1276 0.950 . S
H1247 C1277 0.950 . S
C1248 H1230 0.951 . S
C1248 C1249 1.366 . S
C1248 C1250 1.388 . S
C1249 C1248 1.366 . S
C1249 C1253 1.385 . S
C1250 H1231 0.951 . S
C1250 C1248 1.388 . S
C1250 C1251 1.366 . S
C1251 C1250 1.366 . S
C1251 C1252 1.414 . S
C1251 C1254 1.499 . S
C1252 H1232 0.950 . S
C1252 C1251 1.414 . S
C1252 C1253 1.374 . S
C1253 H1233 0.950 . S
C1253 C1249 1.385 . S
C1253 C1252 1.374 . S
C1254 C1251 1.499 . S
C1254 C1255 1.373 . S
C1254 C1256 1.389 . S
C1255 H1234 0.950 . S
C1255 C1254 1.373 . S
C1255 C1271 1.377 . S
C1256 C1254 1.389 . S
C1256 C1257 1.524 . S
C1256 C1270 1.377 . S
C1257 C1256 1.524 . S
C1257 C1258 1.397 . S
C1257 C1262 1.363 . S
C1258 H1235 0.950 . S
C1258 C1257 1.397 . S
C1258 C1259 1.334 . S
C1259 H1236 0.950 . S
C1259 C1258 1.334 . S
C1259 C1260 1.287 . S
C1260 C1259 1.287 . S
C1260 C1261 1.524 . S
C1260 H1279 0.913 . S
C1261 H1237 0.950 . S
C1261 C1260 1.524 . S
C1261 C1262 1.415 . S
C1262 H1238 0.950 . S
C1262 C1257 1.363 . S
C1262 C1261 1.415 . S
C1263 H1239 0.951 . S
C1263 C1264 1.366 . S
C1263 C1265 1.388 . S
C1264 C1263 1.366 . S
C1264 C1268 1.385 . S
C1265 H1240 0.951 . S
C1265 C1263 1.388 . S
C1265 C1266 1.366 . S
C1266 C1265 1.366 . S
C1266 C1267 1.414 . S
C1266 C1269 1.499 . S
C1267 H1241 0.950 . S
C1267 C1266 1.414 . S
C1267 C1268 1.374 . S
C1268 H1242 0.950 . S
C1268 C1264 1.385 . S
C1268 C1267 1.374 . S
C1269 C1266 1.499 . S
C1269 C1270 1.373 . S
C1269 C1271 1.389 . S
C1270 H1243 0.950 . S
C1270 C1256 1.377 . S
C1270 C1269 1.373 . S
C1271 C1255 1.377 . S
C1271 C1269 1.389 . S
C1271 C1272 1.524 . S
C1272 C1271 1.524 . S
C1272 C1273 1.397 . S
C1272 C1277 1.363 . S
C1273 H1244 0.950 . S
C1273 C1272 1.397 . S
C1273 C1274 1.334 . S
C1274 H1245 0.950 . S
C1274 C1273 1.334 . S
C1274 C1275 1.287 . S
C1275 C1274 1.287 . S
C1275 C1276 1.524 . S
C1275 H1278 0.999 . S
C1276 H1246 0.950 . S
C1276 C1275 1.524 . S
C1276 C1277 1.415 . S
C1277 H1247 0.950 . S
C1277 C1272 1.363 . S
C1277 C1276 1.415 . S
H1278 C1275 0.999 . S
H1279 C1260 0.913 . S
H1280 C1298 0.951 . S
H1281 C1300 0.951 . S
H1282 C1302 0.950 . S
H1283 C1303 0.950 . S
H1284 C1305 0.950 . S
H1285 C1308 0.950 . S
H1286 C1309 0.950 . S
H1287 C1311 0.950 . S
H1288 C1312 0.950 . S
H1289 C1313 0.951 . S
H1290 C1315 0.951 . S
H1291 C1317 0.950 . S
H1292 C1318 0.950 . S
H1293 C1320 0.950 . S
H1294 C1323 0.950 . S
H1295 C1324 0.950 . S
H1296 C1326 0.950 . S
H1297 C1327 0.950 . S
C1298 H1280 0.951 . S
C1298 C1299 1.366 . S
C1298 C1300 1.388 . S
C1299 C1298 1.366 . S
C1299 C1303 1.385 . S
C1300 H1281 0.951 . S
C1300 C1298 1.388 . S
C1300 C1301 1.366 . S
C1301 C1300 1.366 . S
C1301 C1302 1.414 . S
C1301 C1304 1.499 . S
C1302 H1282 0.950 . S
C1302 C1301 1.414 . S
C1302 C1303 1.374 . S
C1303 H1283 0.950 . S
C1303 C1299 1.385 . S
C1303 C1302 1.374 . S
C1304 C1301 1.499 . S
C1304 C1305 1.373 . S
C1304 C1306 1.389 . S
C1305 H1284 0.950 . S
C1305 C1304 1.373 . S
C1305 C1321 1.377 . S
C1306 C1304 1.389 . S
C1306 C1307 1.524 . S
C1306 C1320 1.377 . S
C1307 C1306 1.524 . S
C1307 C1308 1.397 . S
C1307 C1312 1.363 . S
C1308 H1285 0.950 . S
C1308 C1307 1.397 . S
C1308 C1309 1.334 . S
C1309 H1286 0.950 . S
C1309 C1308 1.334 . S
C1309 C1310 1.287 . S
C1310 C1309 1.287 . S
C1310 C1311 1.524 . S
C1310 H1329 0.913 . S
C1311 H1287 0.950 . S
C1311 C1310 1.524 . S
C1311 C1312 1.415 . S
C1312 H1288 0.950 . S
C1312 C1307 1.363 . S
C1312 C1311 1.415 . S
C1313 H1289 0.951 . S
C1313 C1314 1.366 . S
C1313 C1315 1.388 . S
C1314 C1313 1.366 . S
C1314 C1318 1.385 . S
C1315 H1290 0.951 . S
C1315 C1313 1.388 . S
C1315 C1316 1.366 . S
C1316 C1315 1.366 . S
C1316 C1317 1.414 . S
C1316 C1319 1.499 . S
C1317 H1291 0.950 . S
C1317 C1316 1.414 . S
C1317 C1318 1.374 . S
C1318 H1292 0.950 . S
C1318 C1314 1.385 . S
C1318 C1317 1.374 . S
C1319 C1316 1.499 . S
C1319 C1320 1.373 . S
C1319 C1321 1.389 . S
C1320 H1293 0.950 . S
C1320 C1306 1.377 . S
C1320 C1319 1.373 . S
C1321 C1305 1.377 . S
C1321 C1319 1.389 . S
C1321 C1322 1.524 . S
C1322 C1321 1.524 . S
C1322 C1323 1.397 . S
C1322 C1327 1.363 . S
C1323 H1294 0.950 . S
C1323 C1322 1.397 . S
C1323 C1324 1.334 . S
C1324 H1295 0.950 . S
C1324 C1323 1.334 . S
C1324 C1325 1.287 . S
C1325 C1324 1.287 . S
C1325 C1326 1.524 . S
C1325 H1328 0.999 . S
C1326 H1296 0.950 . S
C1326 C1325 1.524 . S
C1326 C1327 1.415 . S
C1327 H1297 0.950 . S
C1327 C1322 1.363 . S
C1327 C1326 1.415 . S
H1328 C1325 0.999 . S
H1329 C1310 0.913 . S
H1330 C1348 0.951 . S
H1331 C1350 0.951 . S
H1332 C1352 0.950 . S
H1333 C1353 0.950 . S
H1334 C1355 0.950 . S
H1335 C1358 0.950 . S
H1336 C1359 0.950 . S
H1337 C1361 0.950 . S
H1338 C1362 0.950 . S
H1339 C1363 0.951 . S
H1340 C1365 0.951 . S
H1341 C1367 0.950 . S
H1342 C1368 0.950 . S
H1343 C1370 0.950 . S
H1344 C1373 0.950 . S
H1345 C1374 0.950 . S
H1346 C1376 0.950 . S
H1347 C1377 0.950 . S
C1348 H1330 0.951 . S
C1348 C1349 1.366 . S
C1348 C1350 1.388 . S
C1349 C1348 1.366 . S
C1349 C1353 1.385 . S
C1350 H1331 0.951 . S
C1350 C1348 1.388 . S
C1350 C1351 1.366 . S
C1351 C1350 1.366 . S
C1351 C1352 1.414 . S
C1351 C1354 1.499 . S
C1352 H1332 0.950 . S
C1352 C1351 1.414 . S
C1352 C1353 1.374 . S
C1353 H1333 0.950 . S
C1353 C1349 1.385 . S
C1353 C1352 1.374 . S
C1354 C1351 1.499 . S
C1354 C1355 1.373 . S
C1354 C1356 1.389 . S
C1355 H1334 0.950 . S
C1355 C1354 1.373 . S
C1355 C1371 1.377 . S
C1356 C1354 1.389 . S
C1356 C1357 1.524 . S
C1356 C1370 1.377 . S
C1357 C1356 1.524 . S
C1357 C1358 1.397 . S
C1357 C1362 1.363 . S
C1358 H1335 0.950 . S
C1358 C1357 1.397 . S
C1358 C1359 1.334 . S
C1359 H1336 0.950 . S
C1359 C1358 1.334 . S
C1359 C1360 1.287 . S
C1360 C1359 1.287 . S
C1360 C1361 1.524 . S
C1360 H1379 0.913 . S
C1361 H1337 0.950 . S
C1361 C1360 1.524 . S
C1361 C1362 1.415 . S
C1362 H1338 0.950 . S
C1362 C1357 1.363 . S
C1362 C1361 1.415 . S
C1363 H1339 0.951 . S
C1363 C1364 1.366 . S
C1363 C1365 1.388 . S
C1364 C1363 1.366 . S
C1364 C1368 1.385 . S
C1365 H1340 0.951 . S
C1365 C1363 1.388 . S
C1365 C1366 1.366 . S
C1366 C1365 1.366 . S
C1366 C1367 1.414 . S
C1366 C1369 1.499 . S
C1367 H1341 0.950 . S
C1367 C1366 1.414 . S
C1367 C1368 1.374 . S
C1368 H1342 0.950 . S
C1368 C1364 1.385 . S
C1368 C1367 1.374 . S
C1369 C1366 1.499 . S
C1369 C1370 1.373 . S
C1369 C1371 1.389 . S
C1370 H1343 0.950 . S
C1370 C1356 1.377 . S
C1370 C1369 1.373 . S
C1371 C1355 1.377 . S
C1371 C1369 1.389 . S
C1371 C1372 1.524 . S
C1372 C1371 1.524 . S
C1372 C1373 1.397 . S
C1372 C1377 1.363 . S
C1373 H1344 0.950 . S
C1373 C1372 1.397 . S
C1373 C1374 1.334 . S
C1374 H1345 0.950 . S
C1374 C1373 1.334 . S
C1374 C1375 1.287 . S
C1375 C1374 1.287 . S
C1375 C1376 1.524 . S
C1375 H1378 0.999 . S
C1376 H1346 0.950 . S
C1376 C1375 1.524 . S
C1376 C1377 1.415 . S
C1377 H1347 0.950 . S
C1377 C1372 1.363 . S
C1377 C1376 1.415 . S
H1378 C1375 0.999 . S
H1379 C1360 0.913 . S
H1380 C1398 0.951 . S
H1381 C1400 0.951 . S
H1382 C1402 0.950 . S
H1383 C1403 0.950 . S
H1384 C1405 0.950 . S
H1385 C1408 0.950 . S
H1386 C1409 0.950 . S
H1387 C1411 0.950 . S
H1388 C1412 0.950 . S
H1389 C1413 0.951 . S
H1390 C1415 0.951 . S
H1391 C1417 0.950 . S
H1392 C1418 0.950 . S
H1393 C1420 0.950 . S
H1394 C1423 0.950 . S
H1395 C1424 0.950 . S
H1396 C1426 0.950 . S
H1397 C1427 0.950 . S
C1398 H1380 0.951 . S
C1398 C1399 1.366 . S
C1398 C1400 1.388 . S
C1399 C1398 1.366 . S
C1399 C1403 1.385 . S
C1400 H1381 0.951 . S
C1400 C1398 1.388 . S
C1400 C1401 1.366 . S
C1401 C1400 1.366 . S
C1401 C1402 1.414 . S
C1401 C1404 1.499 . S
C1402 H1382 0.950 . S
C1402 C1401 1.414 . S
C1402 C1403 1.374 . S
C1403 H1383 0.950 . S
C1403 C1399 1.385 . S
C1403 C1402 1.374 . S
C1404 C1401 1.499 . S
C1404 C1405 1.373 . S
C1404 C1406 1.389 . S
C1405 H1384 0.950 . S
C1405 C1404 1.373 . S
C1405 C1421 1.377 . S
C1406 C1404 1.389 . S
C1406 C1407 1.524 . S
C1406 C1420 1.377 . S
C1407 C1406 1.524 . S
C1407 C1408 1.397 . S
C1407 C1412 1.363 . S
C1408 H1385 0.950 . S
C1408 C1407 1.397 . S
C1408 C1409 1.334 . S
C1409 H1386 0.950 . S
C1409 C1408 1.334 . S
C1409 C1410 1.287 . S
C1410 C1409 1.287 . S
C1410 C1411 1.524 . S
C1410 H1429 0.913 . S
C1411 H1387 0.950 . S
C1411 C1410 1.524 . S
C1411 C1412 1.415 . S
C1412 H1388 0.950 . S
C1412 C1407 1.363 . S
C1412 C1411 1.415 . S
C1413 H1389 0.951 . S
C1413 C1414 1.366 . S
C1413 C1415 1.388 . S
C1414 C1413 1.366 . S
C1414 C1418 1.385 . S
C1415 H1390 0.951 . S
C1415 C1413 1.388 . S
C1415 C1416 1.366 . S
C1416 C1415 1.366 . S
C1416 C1417 1.414 . S
C1416 C1419 1.499 . S
C1417 H1391 0.950 . S
C1417 C1416 1.414 . S
C1417 C1418 1.374 . S
C1418 H1392 0.950 . S
C1418 C1414 1.385 . S
C1418 C1417 1.374 . S
C1419 C1416 1.499 . S
C1419 C1420 1.373 . S
C1419 C1421 1.389 . S
C1420 H1393 0.950 . S
C1420 C1406 1.377 . S
C1420 C1419 1.373 . S
C1421 C1405 1.377 . S
C1421 C1419 1.389 . S
C1421 C1422 1.524 . S
C1422 C1421 1.524 . S
C1422 C1423 1.397 . S
C1422 C1427 1.363 . S
C1423 H1394 0.950 . S
C1423 C1422 1.397 . S
C1423 C1424 1.334 . S
C1424 H1395 0.950 . S
C1424 C1423 1.334 . S
C1424 C1425 1.287 . S
C1425 C1424 1.287 . S
C1425 C1426 1.524 . S
C1425 H1428 0.999 . S
C1426 H1396 0.950 . S
C1426 C1425 1.524 . S
C1426 C1427 1.415 . S
C1427 H1397 0.950 . S
C1427 C1422 1.363 . S
C1427 C1426 1.415 . S
H1428 C1425 0.999 . S
H1429 C1410 0.913 . S
H1430 C1448 0.951 . S
H1431 C1450 0.951 . S
H1432 C1452 0.950 . S
H1433 C1453 0.950 . S
H1434 C1455 0.950 . S
H1435 C1458 0.950 . S
H1436 C1459 0.950 . S
H1437 C1461 0.950 . S
H1438 C1462 0.950 . S
H1439 C1463 0.951 . S
H1440 C1465 0.951 . S
H1441 C1467 0.950 . S
H1442 C1468 0.950 . S
H1443 C1470 0.950 . S
H1444 C1473 0.950 . S
H1445 C1474 0.950 . S
H1446 C1476 0.950 . S
H1447 C1477 0.950 . S
C1448 H1430 0.951 . S
C1448 C1449 1.366 . S
C1448 C1450 1.388 . S
C1449 C1448 1.366 . S
C1449 C1453 1.385 . S
C1450 H1431 0.951 . S
C1450 C1448 1.388 . S
C1450 C1451 1.366 . S
C1451 C1450 1.366 . S
C1451 C1452 1.414 . S
C1451 C1454 1.499 . S
C1452 H1432 0.950 . S
C1452 C1451 1.414 . S
C1452 C1453 1.374 . S
C1453 H1433 0.950 . S
C1453 C1449 1.385 . S
C1453 C1452 1.374 . S
C1454 C1451 1.499 . S
C1454 C1455 1.373 . S
C1454 C1456 1.389 . S
C1455 H1434 0.950 . S
C1455 C1454 1.373 . S
C1455 C1471 1.377 . S
C1456 C1454 1.389 . S
C1456 C1457 1.524 . S
C1456 C1470 1.377 . S
C1457 C1456 1.524 . S
C1457 C1458 1.397 . S
C1457 C1462 1.363 . S
C1458 H1435 0.950 . S
C1458 C1457 1.397 . S
C1458 C1459 1.334 . S
C1459 H1436 0.950 . S
C1459 C1458 1.334 . S
C1459 C1460 1.287 . S
C1460 C1459 1.287 . S
C1460 C1461 1.524 . S
C1460 H1479 0.913 . S
C1461 H1437 0.950 . S
C1461 C1460 1.524 . S
C1461 C1462 1.415 . S
C1462 H1438 0.950 . S
C1462 C1457 1.363 . S
C1462 C1461 1.415 . S
C1463 H1439 0.951 . S
C1463 C1464 1.366 . S
C1463 C1465 1.388 . S
C1464 C1463 1.366 . S
C1464 C1468 1.385 . S
C1465 H1440 0.951 . S
C1465 C1463 1.388 . S
C1465 C1466 1.366 . S
C1466 C1465 1.366 . S
C1466 C1467 1.414 . S
C1466 C1469 1.499 . S
C1467 H1441 0.950 . S
C1467 C1466 1.414 . S
C1467 C1468 1.374 . S
C1468 H1442 0.950 . S
C1468 C1464 1.385 . S
C1468 C1467 1.374 . S
C1469 C1466 1.499 . S
C1469 C1470 1.373 . S
C1469 C1471 1.389 . S
C1470 H1443 0.950 . S
C1470 C1456 1.377 . S
C1470 C1469 1.373 . S
C1471 C1455 1.377 . S
C1471 C1469 1.389 . S
C1471 C1472 1.524 . S
C1472 C1471 1.524 . S
C1472 C1473 1.397 . S
C1472 C1477 1.363 . S
C1473 H1444 0.950 . S
C1473 C1472 1.397 . S
C1473 C1474 1.334 . S
C1474 H1445 0.950 . S
C1474 C1473 1.334 . S
C1474 C1475 1.287 . S
C1475 C1474 1.287 . S
C1475 C1476 1.524 . S
C1475 H1478 0.999 . S
C1476 H1446 0.950 . S
C1476 C1475 1.524 . S
C1476 C1477 1.415 . S
C1477 H1447 0.950 . S
C1477 C1472 1.363 . S
C1477 C1476 1.415 . S
H1478 C1475 0.999 . S
H1479 C1460 0.913 . S
H1480 C1498 0.951 . S
H1481 C1500 0.951 . S
H1482 C1502 0.950 . S
H1483 C1503 0.950 . S
H1484 C1505 0.950 . S
H1485 C1508 0.950 . S
H1486 C1509 0.950 . S
H1487 C1511 0.950 . S
H1488 C1512 0.950 . S
H1489 C1513 0.951 . S
H1490 C1515 0.951 . S
H1491 C1517 0.950 . S
H1492 C1518 0.950 . S
H1493 C1520 0.950 . S
H1494 C1523 0.950 . S
H1495 C1524 0.950 . S
H1496 C1526 0.950 . S
H1497 C1527 0.950 . S
C1498 H1480 0.951 . S
C1498 C1499 1.366 . S
C1498 C1500 1.388 . S
C1499 C1498 1.366 . S
C1499 C1503 1.385 . S
C1500 H1481 0.951 . S
C1500 C1498 1.388 . S
C1500 C1501 1.366 . S
C1501 C1500 1.366 . S
C1501 C1502 1.414 . S
C1501 C1504 1.499 . S
C1502 H1482 0.950 . S
C1502 C1501 1.414 . S
C1502 C1503 1.374 . S
C1503 H1483 0.950 . S
C1503 C1499 1.385 . S
C1503 C1502 1.374 . S
C1504 C1501 1.499 . S
C1504 C1505 1.373 . S
C1504 C1506 1.389 . S
C1505 H1484 0.950 . S
C1505 C1504 1.373 . S
C1505 C1521 1.377 . S
C1506 C1504 1.389 . S
C1506 C1507 1.524 . S
C1506 C1520 1.377 . S
C1507 C1506 1.524 . S
C1507 C1508 1.397 . S
C1507 C1512 1.363 . S
C1508 H1485 0.950 . S
C1508 C1507 1.397 . S
C1508 C1509 1.334 . S
C1509 H1486 0.950 . S
C1509 C1508 1.334 . S
C1509 C1510 1.287 . S
C1510 C1509 1.287 . S
C1510 C1511 1.524 . S
C1510 H1529 0.913 . S
C1511 H1487 0.950 . S
C1511 C1510 1.524 . S
C1511 C1512 1.415 . S
C1512 H1488 0.950 . S
C1512 C1507 1.363 . S
C1512 C1511 1.415 . S
C1513 H1489 0.951 . S
C1513 C1514 1.366 . S
C1513 C1515 1.388 . S
C1514 C1513 1.366 . S
C1514 C1518 1.385 . S
C1515 H1490 0.951 . S
C1515 C1513 1.388 . S
C1515 C1516 1.366 . S
C1516 C1515 1.366 . S
C1516 C1517 1.414 . S
C1516 C1519 1.499 . S
C1517 H1491 0.950 . S
C1517 C1516 1.414 . S
C1517 C1518 1.374 . S
C1518 H1492 0.950 . S
C1518 C1514 1.385 . S
C1518 C1517 1.374 . S
C1519 C1516 1.499 . S
C1519 C1520 1.373 . S
C1519 C1521 1.389 . S
C1520 H1493 0.950 . S
C1520 C1506 1.377 . S
C1520 C1519 1.373 . S
C1521 C1505 1.377 . S
C1521 C1519 1.389 . S
C1521 C1522 1.524 . S
C1522 C1521 1.524 . S
C1522 C1523 1.397 . S
C1522 C1527 1.363 . S
C1523 H1494 0.950 . S
C1523 C1522 1.397 . S
C1523 C1524 1.334 . S
C1524 H1495 0.950 . S
C1524 C1523 1.334 . S
C1524 C1525 1.287 . S
C1525 C1524 1.287 . S
C1525 C1526 1.524 . S
C1525 H1528 0.999 . S
C1526 H1496 0.950 . S
C1526 C1525 1.524 . S
C1526 C1527 1.415 . S
C1527 H1497 0.950 . S
C1527 C1522 1.363 . S
C1527 C1526 1.415 . S
H1528 C1525 0.999 . S
H1529 C1510 0.913 . S
H1530 C1548 0.951 . S
H1531 C1550 0.951 . S
H1532 C1552 0.950 . S
H1533 C1553 0.950 . S
H1534 C1555 0.950 . S
H1535 C1558 0.950 . S
H1536 C1559 0.950 . S
H1537 C1561 0.950 . S
H1538 C1562 0.950 . S
H1539 C1563 0.951 . S
H1540 C1565 0.951 . S
H1541 C1567 0.950 . S
H1542 C1568 0.950 . S
H1543 C1570 0.950 . S
H1544 C1573 0.950 . S
H1545 C1574 0.950 . S
H1546 C1576 0.950 . S
H1547 C1577 0.950 . S
C1548 H1530 0.951 . S
C1548 C1549 1.366 . S
C1548 C1550 1.388 . S
C1549 C1548 1.366 . S
C1549 C1553 1.385 . S
C1550 H1531 0.951 . S
C1550 C1548 1.388 . S
C1550 C1551 1.366 . S
C1551 C1550 1.366 . S
C1551 C1552 1.414 . S
C1551 C1554 1.499 . S
C1552 H1532 0.950 . S
C1552 C1551 1.414 . S
C1552 C1553 1.374 . S
C1553 H1533 0.950 . S
C1553 C1549 1.385 . S
C1553 C1552 1.374 . S
C1554 C1551 1.499 . S
C1554 C1555 1.373 . S
C1554 C1556 1.389 . S
C1555 H1534 0.950 . S
C1555 C1554 1.373 . S
C1555 C1571 1.377 . S
C1556 C1554 1.389 . S
C1556 C1557 1.524 . S
C1556 C1570 1.377 . S
C1557 C1556 1.524 . S
C1557 C1558 1.397 . S
C1557 C1562 1.363 . S
C1558 H1535 0.950 . S
C1558 C1557 1.397 . S
C1558 C1559 1.334 . S
C1559 H1536 0.950 . S
C1559 C1558 1.334 . S
C1559 C1560 1.287 . S
C1560 C1559 1.287 . S
C1560 C1561 1.524 . S
C1560 H1579 0.913 . S
C1561 H1537 0.950 . S
C1561 C1560 1.524 . S
C1561 C1562 1.415 . S
C1562 H1538 0.950 . S
C1562 C1557 1.363 . S
C1562 C1561 1.415 . S
C1563 H1539 0.951 . S
C1563 C1564 1.366 . S
C1563 C1565 1.388 . S
C1564 C1563 1.366 . S
C1564 C1568 1.385 . S
C1565 H1540 0.951 . S
C1565 C1563 1.388 . S
C1565 C1566 1.366 . S
C1566 C1565 1.366 . S
C1566 C1567 1.414 . S
C1566 C1569 1.499 . S
C1567 H1541 0.950 . S
C1567 C1566 1.414 . S
C1567 C1568 1.374 . S
C1568 H1542 0.950 . S
C1568 C1564 1.385 . S
C1568 C1567 1.374 . S
C1569 C1566 1.499 . S
C1569 C1570 1.373 . S
C1569 C1571 1.389 . S
C1570 H1543 0.950 . S
C1570 C1556 1.377 . S
C1570 C1569 1.373 . S
C1571 C1555 1.377 . S
C1571 C1569 1.389 . S
C1571 C1572 1.524 . S
C1572 C1571 1.524 . S
C1572 C1573 1.397 . S
C1572 C1577 1.363 . S
C1573 H1544 0.950 . S
C1573 C1572 1.397 . S
C1573 C1574 1.334 . S
C1574 H1545 0.950 . S
C1574 C1573 1.334 . S
C1574 C1575 1.287 . S
C1575 C1574 1.287 . S
C1575 C1576 1.524 . S
C1575 H1578 0.999 . S
C1576 H1546 0.950 . S
C1576 C1575 1.524 . S
C1576 C1577 1.415 . S
C1577 H1547 0.950 . S
C1577 C1572 1.363 . S
C1577 C1576 1.415 . S
H1578 C1575 0.999 . S
H1579 C1560 0.913 . S
H1580 C1598 0.951 . S
H1581 C1600 0.951 . S
H1582 C1602 0.950 . S
H1583 C1603 0.950 . S
H1584 C1605 0.950 . S
H1585 C1608 0.950 . S
H1586 C1609 0.950 . S
H1587 C1611 0.950 . S
H1588 C1612 0.950 . S
H1589 C1613 0.951 . S
H1590 C1615 0.951 . S
H1591 C1617 0.950 . S
H1592 C1618 0.950 . S
H1593 C1620 0.950 . S
H1594 C1623 0.950 . S
H1595 C1624 0.950 . S
H1596 C1626 0.950 . S
H1597 C1627 0.950 . S
C1598 H1580 0.951 . S
C1598 C1599 1.366 . S
C1598 C1600 1.388 . S
C1599 C1598 1.366 . S
C1599 C1603 1.385 . S
C1600 H1581 0.951 . S
C1600 C1598 1.388 . S
C1600 C1601 1.366 . S
C1601 C1600 1.366 . S
C1601 C1602 1.414 . S
C1601 C1604 1.499 . S
C1602 H1582 0.950 . S
C1602 C1601 1.414 . S
C1602 C1603 1.374 . S
C1603 H1583 0.950 . S
C1603 C1599 1.385 . S
C1603 C1602 1.374 . S
C1604 C1601 1.499 . S
C1604 C1605 1.373 . S
C1604 C1606 1.389 . S
C1605 H1584 0.950 . S
C1605 C1604 1.373 . S
C1605 C1621 1.377 . S
C1606 C1604 1.389 . S
C1606 C1607 1.524 . S
C1606 C1620 1.377 . S
C1607 C1606 1.524 . S
C1607 C1608 1.397 . S
C1607 C1612 1.363 . S
C1608 H1585 0.950 . S
C1608 C1607 1.397 . S
C1608 C1609 1.334 . S
C1609 H1586 0.950 . S
C1609 C1608 1.334 . S
C1609 C1610 1.287 . S
C1610 C1609 1.287 . S
C1610 C1611 1.524 . S
C1610 H1629 0.913 . S
C1611 H1587 0.950 . S
C1611 C1610 1.524 . S
C1611 C1612 1.415 . S
C1612 H1588 0.950 . S
C1612 C1607 1.363 . S
C1612 C1611 1.415 . S
C1613 H1589 0.951 . S
C1613 C1614 1.366 . S
C1613 C1615 1.388 . S
C1614 C1613 1.366 . S
C1614 C1618 1.385 . S
C1615 H1590 0.951 . S
C1615 C1613 1.388 . S
C1615 C1616 1.366 . S
C1616 C1615 1.366 . S
C1616 C1617 1.414 . S
C1616 C1619 1.499 . S
C1617 H1591 0.950 . S
C1617 C1616 1.414 . S
C1617 C1618 1.374 . S
C1618 H1592 0.950 . S
C1618 C1614 1.385 . S
C1618 C1617 1.374 . S
C1619 C1616 1.499 . S
C1619 C1620 1.373 . S
C1619 C1621 1.389 . S
C1620 H1593 0.950 . S
C1620 C1606 1.377 . S
C1620 C1619 1.373 . S
C1621 C1605 1.377 . S
C1621 C1619 1.389 . S
C1621 C1622 1.524 . S
C1622 C1621 1.524 . S
C1622 C1623 1.397 . S
C1622 C1627 1.363 . S
C1623 H1594 0.950 . S
C1623 C1622 1.397 . S
C1623 C1624 1.334 . S
C1624 H1595 0.950 . S
C1624 C1623 1.334 . S
C1624 C1625 1.287 . S
C1625 C1624 1.287 . S
C1625 C1626 1.524 . S
C1625 H1628 0.999 . S
C1626 H1596 0.950 . S
C1626 C1625 1.524 . S
C1626 C1627 1.415 . S
C1627 H1597 0.950 . S
C1627 C1622 1.363 . S
C1627 C1626 1.415 . S
H1628 C1625 0.999 . S
H1629 C1610 0.913 . S
H1630 C1648 0.951 . S
H1631 C1650 0.951 . S
H1632 C1652 0.950 . S
H1633 C1653 0.950 . S
H1634 C1655 0.950 . S
H1635 C1658 0.950 . S
H1636 C1659 0.950 . S
H1637 C1661 0.950 . S
H1638 C1662 0.950 . S
H1639 C1663 0.951 . S
H1640 C1665 0.951 . S
H1641 C1667 0.950 . S
H1642 C1668 0.950 . S
H1643 C1670 0.950 . S
H1644 C1673 0.950 . S
H1645 C1674 0.950 . S
H1646 C1676 0.950 . S
H1647 C1677 0.950 . S
C1648 H1630 0.951 . S
C1648 C1649 1.366 . S
C1648 C1650 1.388 . S
C1649 C1648 1.366 . S
C1649 C1653 1.385 . S
C1650 H1631 0.951 . S
C1650 C1648 1.388 . S
C1650 C1651 1.366 . S
C1651 C1650 1.366 . S
C1651 C1652 1.414 . S
C1651 C1654 1.499 . S
C1652 H1632 0.950 . S
C1652 C1651 1.414 . S
C1652 C1653 1.374 . S
C1653 H1633 0.950 . S
C1653 C1649 1.385 . S
C1653 C1652 1.374 . S
C1654 C1651 1.499 . S
C1654 C1655 1.373 . S
C1654 C1656 1.389 . S
C1655 H1634 0.950 . S
C1655 C1654 1.373 . S
C1655 C1671 1.377 . S
C1656 C1654 1.389 . S
C1656 C1657 1.524 . S
C1656 C1670 1.377 . S
C1657 C1656 1.524 . S
C1657 C1658 1.397 . S
C1657 C1662 1.363 . S
C1658 H1635 0.950 . S
C1658 C1657 1.397 . S
C1658 C1659 1.334 . S
C1659 H1636 0.950 . S
C1659 C1658 1.334 . S
C1659 C1660 1.287 . S
C1660 C1659 1.287 . S
C1660 C1661 1.524 . S
C1660 H1679 0.913 . S
C1661 H1637 0.950 . S
C1661 C1660 1.524 . S
C1661 C1662 1.415 . S
C1662 H1638 0.950 . S
C1662 C1657 1.363 . S
C1662 C1661 1.415 . S
C1663 H1639 0.951 . S
C1663 C1664 1.366 . S
C1663 C1665 1.388 . S
C1664 C1663 1.366 . S
C1664 C1668 1.385 . S
C1665 H1640 0.951 . S
C1665 C1663 1.388 . S
C1665 C1666 1.366 . S
C1666 C1665 1.366 . S
C1666 C1667 1.414 . S
C1666 C1669 1.499 . S
C1667 H1641 0.950 . S
C1667 C1666 1.414 . S
C1667 C1668 1.374 . S
C1668 H1642 0.950 . S
C1668 C1664 1.385 . S
C1668 C1667 1.374 . S
C1669 C1666 1.499 . S
C1669 C1670 1.373 . S
C1669 C1671 1.389 . S
C1670 H1643 0.950 . S
C1670 C1656 1.377 . S
C1670 C1669 1.373 . S
C1671 C1655 1.377 . S
C1671 C1669 1.389 . S
C1671 C1672 1.524 . S
C1672 C1671 1.524 . S
C1672 C1673 1.397 . S
C1672 C1677 1.363 . S
C1673 H1644 0.950 . S
C1673 C1672 1.397 . S
C1673 C1674 1.334 . S
C1674 H1645 0.950 . S
C1674 C1673 1.334 . S
C1674 C1675 1.287 . S
C1675 C1674 1.287 . S
C1675 C1676 1.524 . S
C1675 H1678 0.999 . S
C1676 H1646 0.950 . S
C1676 C1675 1.524 . S
C1676 C1677 1.415 . S
C1677 H1647 0.950 . S
C1677 C1672 1.363 . S
C1677 C1676 1.415 . S
H1678 C1675 0.999 . S
H1679 C1660 0.913 . S
H1680 C1698 0.951 . S
H1681 C1700 0.951 . S
H1682 C1702 0.950 . S
H1683 C1703 0.950 . S
H1684 C1705 0.950 . S
H1685 C1708 0.950 . S
H1686 C1709 0.950 . S
H1687 C1711 0.950 . S
H1688 C1712 0.950 . S
H1689 C1713 0.951 . S
H1690 C1715 0.951 . S
H1691 C1717 0.950 . S
H1692 C1718 0.950 . S
H1693 C1720 0.950 . S
H1694 C1723 0.950 . S
H1695 C1724 0.950 . S
H1696 C1726 0.950 . S
H1697 C1727 0.950 . S
C1698 H1680 0.951 . S
C1698 C1699 1.366 . S
C1698 C1700 1.388 . S
C1699 C1698 1.366 . S
C1699 C1703 1.385 . S
C1700 H1681 0.951 . S
C1700 C1698 1.388 . S
C1700 C1701 1.366 . S
C1701 C1700 1.366 . S
C1701 C1702 1.414 . S
C1701 C1704 1.499 . S
C1702 H1682 0.950 . S
C1702 C1701 1.414 . S
C1702 C1703 1.374 . S
C1703 H1683 0.950 . S
C1703 C1699 1.385 . S
C1703 C1702 1.374 . S
C1704 C1701 1.499 . S
C1704 C1705 1.373 . S
C1704 C1706 1.389 . S
C1705 H1684 0.950 . S
C1705 C1704 1.373 . S
C1705 C1721 1.377 . S
C1706 C1704 1.389 . S
C1706 C1707 1.524 . S
C1706 C1720 1.377 . S
C1707 C1706 1.524 . S
C1707 C1708 1.397 . S
C1707 C1712 1.363 . S
C1708 H1685 0.950 . S
C1708 C1707 1.397 . S
C1708 C1709 1.334 . S
C1709 H1686 0.950 . S
C1709 C1708 1.334 . S
C1709 C1710 1.287 . S
C1710 C1709 1.287 . S
C1710 C1711 1.524 . S
C1710 H1729 0.913 . S
C1711 H1687 0.950 . S
C1711 C1710 1.524 . S
C1711 C1712 1.415 . S
C1712 H1688 0.950 . S
C1712 C1707 1.363 . S
C1712 C1711 1.415 . S
C1713 H1689 0.951 . S
C1713 C1714 1.366 . S
C1713 C1715 1.388 . S
C1714 C1713 1.366 . S
C1714 C1718 1.385 . S
C1715 H1690 0.951 . S
C1715 C1713 1.388 . S
C1715 C1716 1.366 . S
C1716 C1715 1.366 . S
C1716 C1717 1.414 . S
C1716 C1719 1.499 . S
C1717 H1691 0.950 . S
C1717 C1716 1.414 . S
C1717 C1718 1.374 . S
C1718 H1692 0.950 . S
C1718 C1714 1.385 . S
C1718 C1717 1.374 . S
C1719 C1716 1.499 . S
C1719 C1720 1.373 . S
C1719 C1721 1.389 . S
C1720 H1693 0.950 . S
C1720 C1706 1.377 . S
C1720 C1719 1.373 . S
C1721 C1705 1.377 . S
C1721 C1719 1.389 . S
C1721 C1722 1.524 . S
C1722 C1721 1.524 . S
C1722 C1723 1.397 . S
C1722 C1727 1.363 . S
C1723 H1694 0.950 . S
C1723 C1722 1.397 . S
C1723 C1724 1.334 . S
C1724 H1695 0.950 . S
C1724 C1723 1.334 . S
C1724 C1725 1.287 . S
C1725 C1724 1.287 . S
C1725 C1726 1.524 . S
C1725 H1728 0.999 . S
C1726 H1696 0.950 . S
C1726 C1725 1.524 . S
C1726 C1727 1.415 . S
C1727 H1697 0.950 . S
C1727 C1722 1.363 . S
C1727 C1726 1.415 . S
H1728 C1725 0.999 . S
H1729 C1710 0.913 . S
H1730 C1748 0.951 . S
H1731 C1750 0.951 . S
H1732 C1752 0.950 . S
H1733 C1753 0.950 . S
H1734 C1755 0.950 . S
H1735 C1758 0.950 . S
H1736 C1759 0.950 . S
H1737 C1761 0.950 . S
H1738 C1762 0.950 . S
H1739 C1763 0.951 . S
H1740 C1765 0.951 . S
H1741 C1767 0.950 . S
H1742 C1768 0.950 . S
H1743 C1770 0.950 . S
H1744 C1773 0.950 . S
H1745 C1774 0.950 . S
H1746 C1776 0.950 . S
H1747 C1777 0.950 . S
C1748 H1730 0.951 . S
C1748 C1749 1.366 . S
C1748 C1750 1.388 . S
C1749 C1748 1.366 . S
C1749 C1753 1.385 . S
C1750 H1731 0.951 . S
C1750 C1748 1.388 . S
C1750 C1751 1.366 . S
C1751 C1750 1.366 . S
C1751 C1752 1.414 . S
C1751 C1754 1.499 . S
C1752 H1732 0.950 . S
C1752 C1751 1.414 . S
C1752 C1753 1.374 . S
C1753 H1733 0.950 . S
C1753 C1749 1.385 . S
C1753 C1752 1.374 . S
C1754 C1751 1.499 . S
C1754 C1755 1.373 . S
C1754 C1756 1.389 . S
C1755 H1734 0.950 . S
C1755 C1754 1.373 . S
C1755 C1771 1.377 . S
C1756 C1754 1.389 . S
C1756 C1757 1.524 . S
C1756 C1770 1.377 . S
C1757 C1756 1.524 . S
C1757 C1758 1.397 . S
C1757 C1762 1.363 . S
C1758 H1735 0.950 . S
C1758 C1757 1.397 . S
C1758 C1759 1.334 . S
C1759 H1736 0.950 . S
C1759 C1758 1.334 . S
C1759 C1760 1.287 . S
C1760 C1759 1.287 . S
C1760 C1761 1.524 . S
C1760 H1779 0.913 . S
C1761 H1737 0.950 . S
C1761 C1760 1.524 . S
C1761 C1762 1.415 . S
C1762 H1738 0.950 . S
C1762 C1757 1.363 . S
C1762 C1761 1.415 . S
C1763 H1739 0.951 . S
C1763 C1764 1.366 . S
C1763 C1765 1.388 . S
C1764 C1763 1.366 . S
C1764 C1768 1.385 . S
C1765 H1740 0.951 . S
C1765 C1763 1.388 . S
C1765 C1766 1.366 . S
C1766 C1765 1.366 . S
C1766 C1767 1.414 . S
C1766 C1769 1.499 . S
C1767 H1741 0.950 . S
C1767 C1766 1.414 . S
C1767 C1768 1.374 . S
C1768 H1742 0.950 . S
C1768 C1764 1.385 . S
C1768 C1767 1.374 . S
C1769 C1766 1.499 . S
C1769 C1770 1.373 . S
C1769 C1771 1.389 . S
C1770 H1743 0.950 . S
C1770 C1756 1.377 . S
C1770 C1769 1.373 . S
C1771 C1755 1.377 . S
C1771 C1769 1.389 . S
C1771 C1772 1.524 . S
C1772 C1771 1.524 . S
C1772 C1773 1.397 . S
C1772 C1777 1.363 . S
C1773 H1744 0.950 . S
C1773 C1772 1.397 . S
C1773 C1774 1.334 . S
C1774 H1745 0.950 . S
C1774 C1773 1.334 . S
C1774 C1775 1.287 . S
C1775 C1774 1.287 . S
C1775 C1776 1.524 . S
C1775 H1778 0.999 . S
C1776 H1746 0.950 . S
C1776 C1775 1.524 . S
C1776 C1777 1.415 . S
C1777 H1747 0.950 . S
C1777 C1772 1.363 . S
C1777 C1776 1.415 . S
H1778 C1775 0.999 . S
H1779 C1760 0.913 . S
H1780 C1798 0.951 . S
H1781 C1800 0.951 . S
H1782 C1802 0.950 . S
H1783 C1803 0.950 . S
H1784 C1805 0.950 . S
H1785 C1808 0.950 . S
H1786 C1809 0.950 . S
H1787 C1811 0.950 . S
H1788 C1812 0.950 . S
H1789 C1813 0.951 . S
H1790 C1815 0.951 . S
H1791 C1817 0.950 . S
H1792 C1818 0.950 . S
H1793 C1820 0.950 . S
H1794 C1823 0.950 . S
H1795 C1824 0.950 . S
H1796 C1826 0.950 . S
H1797 C1827 0.950 . S
C1798 H1780 0.951 . S
C1798 C1799 1.366 . S
C1798 C1800 1.388 . S
C1799 C1798 1.366 . S
C1799 C1803 1.385 . S
C1800 H1781 0.951 . S
C1800 C1798 1.388 . S
C1800 C1801 1.366 . S
C1801 C1800 1.366 . S
C1801 C1802 1.414 . S
C1801 C1804 1.499 . S
C1802 H1782 0.950 . S
C1802 C1801 1.414 . S
C1802 C1803 1.374 . S
C1803 H1783 0.950 . S
C1803 C1799 1.385 . S
C1803 C1802 1.374 . S
C1804 C1801 1.499 . S
C1804 C1805 1.373 . S
C1804 C1806 1.389 . S
C1805 H1784 0.950 . S
C1805 C1804 1.373 . S
C1805 C1821 1.377 . S
C1806 C1804 1.389 . S
C1806 C1807 1.524 . S
C1806 C1820 1.377 . S
C1807 C1806 1.524 . S
C1807 C1808 1.397 . S
C1807 C1812 1.363 . S
C1808 H1785 0.950 . S
C1808 C1807 1.397 . S
C1808 C1809 1.334 . S
C1809 H1786 0.950 . S
C1809 C1808 1.334 . S
C1809 C1810 1.287 . S
C1810 C1809 1.287 . S
C1810 C1811 1.524 . S
C1810 H1829 0.913 . S
C1811 H1787 0.950 . S
C1811 C1810 1.524 . S
C1811 C1812 1.415 . S
C1812 H1788 0.950 . S
C1812 C1807 1.363 . S
C1812 C1811 1.415 . S
C1813 H1789 0.951 . S
C1813 C1814 1.366 . S
C1813 C1815 1.388 . S
C1814 C1813 1.366 . S
C1814 C1818 1.385 . S
C1815 H1790 0.951 . S
C1815 C1813 1.388 . S
C1815 C1816 1.366 . S
C1816 C1815 1.366 . S
C1816 C1817 1.414 . S
C1816 C1819 1.499 . S
C1817 H1791 0.950 . S
C1817 C1816 1.414 . S
C1817 C1818 1.374 . S
C1818 H1792 0.950 . S
C1818 C1814 1.385 . S
C1818 C1817 1.374 . S
C1819 C1816 1.499 . S
C1819 C1820 1.373 . S
C1819 C1821 1.389 . S
C1820 H1793 0.950 . S
C1820 C1806 1.377 . S
C1820 C1819 1.373 . S
C1821 C1805 1.377 . S
C1821 C1819 1.389 . S
C1821 C1822 1.524 . S
C1822 C1821 1.524 . S
C1822 C1823 1.397 . S
C1822 C1827 1.363 . S
C1823 H1794 0.950 . S
C1823 C1822 1.397 . S
C1823 C1824 1.334 . S
C1824 H1795 0.950 . S
C1824 C1823 1.334 . S
C1824 C1825 1.287 . S
C1825 C1824 1.287 . S
C1825 C1826 1.524 . S
C1825 H1828 0.999 . S
C1826 H1796 0.950 . S
C1826 C1825 1.524 . S
C1826 C1827 1.415 . S
C1827 H1797 0.950 . S
C1827 C1822 1.363 . S
C1827 C1826 1.415 . S
H1828 C1825 0.999 . S
H1829 C1810 0.913 . S
H1830 C1848 0.951 . S
H1831 C1850 0.951 . S
H1832 C1852 0.950 . S
H1833 C1853 0.950 . S
H1834 C1855 0.950 . S
H1835 C1858 0.950 . S
H1836 C1859 0.950 . S
H1837 C1861 0.950 . S
H1838 C1862 0.950 . S
H1839 C1863 0.951 . S
H1840 C1865 0.951 . S
H1841 C1867 0.950 . S
H1842 C1868 0.950 . S
H1843 C1870 0.950 . S
H1844 C1873 0.950 . S
H1845 C1874 0.950 . S
H1846 C1876 0.950 . S
H1847 C1877 0.950 . S
C1848 H1830 0.951 . S
C1848 C1849 1.366 . S
C1848 C1850 1.388 . S
C1849 C1848 1.366 . S
C1849 C1853 1.385 . S
C1850 H1831 0.951 . S
C1850 C1848 1.388 . S
C1850 C1851 1.366 . S
C1851 C1850 1.366 . S
C1851 C1852 1.414 . S
C1851 C1854 1.499 . S
C1852 H1832 0.950 . S
C1852 C1851 1.414 . S
C1852 C1853 1.374 . S
C1853 H1833 0.950 . S
C1853 C1849 1.385 . S
C1853 C1852 1.374 . S
C1854 C1851 1.499 . S
C1854 C1855 1.373 . S
C1854 C1856 1.389 . S
C1855 H1834 0.950 . S
C1855 C1854 1.373 . S
C1855 C1871 1.377 . S
C1856 C1854 1.389 . S
C1856 C1857 1.524 . S
C1856 C1870 1.377 . S
C1857 C1856 1.524 . S
C1857 C1858 1.397 . S
C1857 C1862 1.363 . S
C1858 H1835 0.950 . S
C1858 C1857 1.397 . S
C1858 C1859 1.334 . S
C1859 H1836 0.950 . S
C1859 C1858 1.334 . S
C1859 C1860 1.287 . S
C1860 C1859 1.287 . S
C1860 C1861 1.524 . S
C1860 H1879 0.913 . S
C1861 H1837 0.950 . S
C1861 C1860 1.524 . S
C1861 C1862 1.415 . S
C1862 H1838 0.950 . S
C1862 C1857 1.363 . S
C1862 C1861 1.415 . S
C1863 H1839 0.951 . S
C1863 C1864 1.366 . S
C1863 C1865 1.388 . S
C1864 C1863 1.366 . S
C1864 C1868 1.385 . S
C1865 H1840 0.951 . S
C1865 C1863 1.388 . S
C1865 C1866 1.366 . S
C1866 C1865 1.366 . S
C1866 C1867 1.414 . S
C1866 C1869 1.499 . S
C1867 H1841 0.950 . S
C1867 C1866 1.414 . S
C1867 C1868 1.374 . S
C1868 H1842 0.950 . S
C1868 C1864 1.385 . S
C1868 C1867 1.374 . S
C1869 C1866 1.499 . S
C1869 C1870 1.373 . S
C1869 C1871 1.389 . S
C1870 H1843 0.950 . S
C1870 C1856 1.377 . S
C1870 C1869 1.373 . S
C1871 C1855 1.377 . S
C1871 C1869 1.389 . S
C1871 C1872 1.524 . S
C1872 C1871 1.524 . S
C1872 C1873 1.397 . S
C1872 C1877 1.363 . S
C1873 H1844 0.950 . S
C1873 C1872 1.397 . S
C1873 C1874 1.334 . S
C1874 H1845 0.950 . S
C1874 C1873 1.334 . S
C1874 C1875 1.287 . S
C1875 C1874 1.287 . S
C1875 C1876 1.524 . S
C1875 H1878 0.999 . S
C1876 H1846 0.950 . S
C1876 C1875 1.524 . S
C1876 C1877 1.415 . S
C1877 H1847 0.950 . S
C1877 C1872 1.363 . S
C1877 C1876 1.415 . S
H1878 C1875 0.999 . S
H1879 C1860 0.913 . S
H1880 C1898 0.951 . S
H1881 C1900 0.951 . S
H1882 C1902 0.950 . S
H1883 C1903 0.950 . S
H1884 C1905 0.950 . S
H1885 C1908 0.950 . S
H1886 C1909 0.950 . S
H1887 C1911 0.950 . S
H1888 C1912 0.950 . S
H1889 C1913 0.951 . S
H1890 C1915 0.951 . S
H1891 C1917 0.950 . S
H1892 C1918 0.950 . S
H1893 C1920 0.950 . S
H1894 C1923 0.950 . S
H1895 C1924 0.950 . S
H1896 C1926 0.950 . S
H1897 C1927 0.950 . S
C1898 H1880 0.951 . S
C1898 C1899 1.366 . S
C1898 C1900 1.388 . S
C1899 C1898 1.366 . S
C1899 C1903 1.385 . S
C1900 H1881 0.951 . S
C1900 C1898 1.388 . S
C1900 C1901 1.366 . S
C1901 C1900 1.366 . S
C1901 C1902 1.414 . S
C1901 C1904 1.499 . S
C1902 H1882 0.950 . S
C1902 C1901 1.414 . S
C1902 C1903 1.374 . S
C1903 H1883 0.950 . S
C1903 C1899 1.385 . S
C1903 C1902 1.374 . S
C1904 C1901 1.499 . S
C1904 C1905 1.373 . S
C1904 C1906 1.389 . S
C1905 H1884 0.950 . S
C1905 C1904 1.373 . S
C1905 C1921 1.377 . S
C1906 C1904 1.389 . S
C1906 C1907 1.524 . S
C1906 C1920 1.377 . S
C1907 C1906 1.524 . S
C1907 C1908 1.397 . S
C1907 C1912 1.363 . S
C1908 H1885 0.950 . S
C1908 C1907 1.397 . S
C1908 C1909 1.334 . S
C1909 H1886 0.950 . S
C1909 C1908 1.334 . S
C1909 C1910 1.287 . S
C1910 C1909 1.287 . S
C1910 C1911 1.524 . S
C1910 H1929 0.913 . S
C1911 H1887 0.950 . S
C1911 C1910 1.524 . S
C1911 C1912 1.415 . S
C1912 H1888 0.950 . S
C1912 C1907 1.363 . S
C1912 C1911 1.415 . S
C1913 H1889 0.951 . S
C1913 C1914 1.366 . S
C1913 C1915 1.388 . S
C1914 C1913 1.366 . S
C1914 C1918 1.385 . S
C1915 H1890 0.951 . S
C1915 C1913 1.388 . S
C1915 C1916 1.366 . S
C1916 C1915 1.366 . S
C1916 C1917 1.414 . S
C1916 C1919 1.499 . S
C1917 H1891 0.950 . S
C1917 C1916 1.414 . S
C1917 C1918 1.374 . S
C1918 H1892 0.950 . S
C1918 C1914 1.385 . S
C1918 C1917 1.374 . S
C1919 C1916 1.499 . S
C1919 C1920 1.373 . S
C1919 C1921 1.389 . S
C1920 H1893 0.950 . S
C1920 C1906 1.377 . S
C1920 C1919 1.373 . S
C1921 C1905 1.377 . S
C1921 C1919 1.389 . S
C1921 C1922 1.524 . S
C1922 C1921 1.524 . S
C1922 C1923 1.397 . S
C1922 C1927 1.363 . S
C1923 H1894 0.950 . S
C1923 C1922 1.397 . S
C1923 C1924 1.334 . S
C1924 H1895 0.950 . S
C1924 C1923 1.334 . S
C1924 C1925 1.287 . S
C1925 C1924 1.287 . S
C1925 C1926 1.524 . S
C1925 H1928 0.999 . S
C1926 H1896 0.950 . S
C1926 C1925 1.524 . S
C1926 C1927 1.415 . S
C1927 H1897 0.950 . S
C1927 C1922 1.363 . S
C1927 C1926 1.415 . S
H1928 C1925 0.999 . S
H1929 C1910 0.913 . S
H1930 C1948 0.951 . S
H1931 C1950 0.951 . S
H1932 C1952 0.950 . S
H1933 C1953 0.950 . S
H1934 C1955 0.950 . S
H1935 C1958 0.950 . S
H1936 C1959 0.950 . S
H1937 C1961 0.950 . S
H1938 C1962 0.950 . S
H1939 C1963 0.951 . S
H1940 C1965 0.951 . S
H1941 C1967 0.950 . S
H1942 C1968 0.950 . S
H1943 C1970 0.950 . S
H1944 C1973 0.950 . S
H1945 C1974 0.950 . S
H1946 C1976 0.950 . S
H1947 C1977 0.950 . S
C1948 H1930 0.951 . S
C1948 C1949 1.366 . S
C1948 C1950 1.388 . S
C1949 C1948 1.366 . S
C1949 C1953 1.385 . S
C1950 H1931 0.951 . S
C1950 C1948 1.388 . S
C1950 C1951 1.366 . S
C1951 C1950 1.366 . S
C1951 C1952 1.414 . S
C1951 C1954 1.499 . S
C1952 H1932 0.950 . S
C1952 C1951 1.414 . S
C1952 C1953 1.374 . S
C1953 H1933 0.950 . S
C1953 C1949 1.385 . S
C1953 C1952 1.374 . S
C1954 C1951 1.499 . S
C1954 C1955 1.373 . S
C1954 C1956 1.389 . S
C1955 H1934 0.950 . S
C1955 C1954 1.373 . S
C1955 C1971 1.377 . S
C1956 C1954 1.389 . S
C1956 C1957 1.524 . S
C1956 C1970 1.377 . S
C1957 C1956 1.524 . S
C1957 C1958 1.397 . S
C1957 C1962 1.363 . S
C1958 H1935 0.950 . S
C1958 C1957 1.397 . S
C1958 C1959 1.334 . S
C1959 H1936 0.950 . S
C1959 C1958 1.334 . S
C1959 C1960 1.287 . S
C1960 C1959 1.287 . S
C1960 C1961 1.524 . S
C1960 H1979 0.913 . S
C1961 H1937 0.950 . S
C1961 C1960 1.524 . S
C1961 C1962 1.415 . S
C1962 H1938 0.950 . S
C1962 C1957 1.363 . S
C1962 C1961 1.415 . S
C1963 H1939 0.951 . S
C1963 C1964 1.366 . S
C1963 C1965 1.388 . S
C1964 C1963 1.366 . S
C1964 C1968 1.385 . S
C1965 H1940 0.951 . S
C1965 C1963 1.388 . S
C1965 C1966 1.366 . S
C1966 C1965 1.366 . S
C1966 C1967 1.414 . S
C1966 C1969 1.499 . S
C1967 H1941 0.950 . S
C1967 C1966 1.414 . S
C1967 C1968 1.374 . S
C1968 H1942 0.950 . S
C1968 C1964 1.385 . S
C1968 C1967 1.374 . S
C1969 C1966 1.499 . S
C1969 C1970 1.373 . S
C1969 C1971 1.389 . S
C1970 H1943 0.950 . S
C1970 C1956 1.377 . S
C1970 C1969 1.373 . S
C1971 C1955 1.377 . S
C1971 C1969 1.389 . S
C1971 C1972 1.524 . S
C1972 C1971 1.524 . S
C1972 C1973 1.397 . S
C1972 C1977 1.363 . S
C1973 H1944 0.950 . S
C1973 C1972 1.397 . S
C1973 C1974 1.334 . S
C1974 H1945 0.950 . S
C1974 C1973 1.334 . S
C1974 C1975 1.287 . S
C1975 C1974 1.287 . S
C1975 C1976 1.524 . S
C1975 H1978 0.999 . S
C1976 H1946 0.950 . S
C1976 C1975 1.524 . S
C1976 C1977 1.415 . S
C1977 H1947 0.950 . S
C1977 C1972 1.363 . S
C1977 C1976 1.415 . S
H1978 C1975 0.999 . S
H1979 C1960 0.913 . S
H1980 C1998 0.951 . S
H1981 C2000 0.951 . S
H1982 C2002 0.950 . S
H1983 C2003 0.950 . S
H1984 C2005 0.950 . S
H1985 C2008 0.950 . S
H1986 C2009 0.950 . S
H1987 C2011 0.950 . S
H1988 C2012 0.950 . S
H1989 C2013 0.951 . S
H1990 C2015 0.951 . S
H1991 C2017 0.950 . S
H1992 C2018 0.950 . S
H1993 C2020 0.950 . S
H1994 C2023 0.950 . S
H1995 C2024 0.950 . S
H1996 C2026 0.950 . S
H1997 C2027 0.950 . S
C1998 H1980 0.951 . S
C1998 C1999 1.366 . S
C1998 C2000 1.388 . S
C1999 C1998 1.366 . S
C1999 C2003 1.385 . S
C2000 H1981 0.951 . S
C2000 C1998 1.388 . S
C2000 C2001 1.366 . S
C2001 C2000 1.366 . S
C2001 C2002 1.414 . S
C2001 C2004 1.499 . S
C2002 H1982 0.950 . S
C2002 C2001 1.414 . S
C2002 C2003 1.374 . S
C2003 H1983 0.950 . S
C2003 C1999 1.385 . S
C2003 C2002 1.374 . S
C2004 C2001 1.499 . S
C2004 C2005 1.373 1_556 S
C2004 C2006 1.389 . S
C2005 H1984 0.950 . S
C2005 C2004 1.373 1_554 S
C2005 C2021 1.377 . S
C2006 C2004 1.389 . S
C2006 C2007 1.524 . S
C2006 C2020 1.377 . S
C2007 C2006 1.524 . S
C2007 C2008 1.397 . S
C2007 C2012 1.363 . S
C2008 H1985 0.950 . S
C2008 C2007 1.397 . S
C2008 C2009 1.334 . S
C2009 H1986 0.950 . S
C2009 C2008 1.334 . S
C2009 C2010 1.287 . S
C2010 C2009 1.287 . S
C2010 C2011 1.524 . S
C2010 H2029 0.913 . S
C2011 H1987 0.950 . S
C2011 C2010 1.524 . S
C2011 C2012 1.415 . S
C2012 H1988 0.950 . S
C2012 C2007 1.363 . S
C2012 C2011 1.415 . S
C2013 H1989 0.951 . S
C2013 C2014 1.366 . S
C2013 C2015 1.388 . S
C2014 C2013 1.366 . S
C2014 C2018 1.385 . S
C2015 H1990 0.951 . S
C2015 C2013 1.388 . S
C2015 C2016 1.366 . S
C2016 C2015 1.366 . S
C2016 C2017 1.414 . S
C2016 C2019 1.499 . S
C2017 H1991 0.950 . S
C2017 C2016 1.414 . S
C2017 C2018 1.374 . S
C2018 H1992 0.950 . S
C2018 C2014 1.385 . S
C2018 C2017 1.374 . S
C2019 C2016 1.499 . S
C2019 C2020 1.373 1_554 S
C2019 C2021 1.389 . S
C2020 H1993 0.950 . S
C2020 C2006 1.377 . S
C2020 C2019 1.373 1_556 S
C2021 C2005 1.377 . S
C2021 C2019 1.389 . S
C2021 C2022 1.524 . S
C2022 C2021 1.524 . S
C2022 C2023 1.397 . S
C2022 C2027 1.363 . S
C2023 H1994 0.950 . S
C2023 C2022 1.397 . S
C2023 C2024 1.334 . S
C2024 H1995 0.950 . S
C2024 C2023 1.334 . S
C2024 C2025 1.287 . S
C2025 C2024 1.287 . S
C2025 C2026 1.524 . S
C2025 H2028 0.999 . S
C2026 H1996 0.950 . S
C2026 C2025 1.524 . S
C2026 C2027 1.415 . S
C2027 H1997 0.950 . S
C2027 C2022 1.363 . S
C2027 C2026 1.415 . S
H2028 C2025 0.999 . S
H2029 C2010 0.913 . S
H2030 C2048 0.951 . S
H2031 C2050 0.951 . S
H2032 C2052 0.950 . S
H2033 C2053 0.950 . S
H2034 C2055 0.950 . S
H2035 C2058 0.950 1_455 S
H2036 C2059 0.950 . S
H2037 C2061 0.950 . S
H2038 C2062 0.950 . S
H2039 C2063 0.951 . S
H2040 C2065 0.951 . S
H2041 C2067 0.950 . S
H2042 C2068 0.950 . S
H2043 C2070 0.950 . S
H2044 C2073 0.950 1_655 S
H2045 C2074 0.950 . S
H2046 C2076 0.950 . S
H2047 C2077 0.950 . S
C2048 H2030 0.951 . S
C2048 C2049 1.366 . S
C2048 C2050 1.388 . S
C2049 C2048 1.366 . S
C2049 C2053 1.385 . S
C2050 H2031 0.951 . S
C2050 C2048 1.388 . S
C2050 C2051 1.366 . S
C2051 C2050 1.366 . S
C2051 C2052 1.414 . S
C2051 C2054 1.499 . S
C2052 H2032 0.950 . S
C2052 C2051 1.414 . S
C2052 C2053 1.374 . S
C2053 H2033 0.950 . S
C2053 C2049 1.385 . S
C2053 C2052 1.374 . S
C2054 C2051 1.499 . S
C2054 C2055 1.373 . S
C2054 C2056 1.389 1_455 S
C2055 H2034 0.950 . S
C2055 C2054 1.373 . S
C2055 C2071 1.377 . S
C2056 C2054 1.389 1_655 S
C2056 C2057 1.524 . S
C2056 C2070 1.377 . S
C2057 C2056 1.524 . S
C2057 C2058 1.397 . S
C2057 C2062 1.363 . S
C2058 H2035 0.950 1_655 S
C2058 C2057 1.397 . S
C2058 C2059 1.334 . S
C2059 H2036 0.950 . S
C2059 C2058 1.334 . S
C2059 C2060 1.287 . S
C2060 C2059 1.287 . S
C2060 C2061 1.524 . S
C2060 H2079 0.913 . S
C2061 H2037 0.950 . S
C2061 C2060 1.524 . S
C2061 C2062 1.415 . S
C2062 H2038 0.950 . S
C2062 C2057 1.363 . S
C2062 C2061 1.415 . S
C2063 H2039 0.951 . S
C2063 C2064 1.366 . S
C2063 C2065 1.388 . S
C2064 C2063 1.366 . S
C2064 C2068 1.385 . S
C2065 H2040 0.951 . S
C2065 C2063 1.388 . S
C2065 C2066 1.366 . S
C2066 C2065 1.366 . S
C2066 C2067 1.414 . S
C2066 C2069 1.499 . S
C2067 H2041 0.950 . S
C2067 C2066 1.414 . S
C2067 C2068 1.374 . S
C2068 H2042 0.950 . S
C2068 C2064 1.385 . S
C2068 C2067 1.374 . S
C2069 C2066 1.499 . S
C2069 C2070 1.373 . S
C2069 C2071 1.389 1_655 S
C2070 H2043 0.950 . S
C2070 C2056 1.377 . S
C2070 C2069 1.373 . S
C2071 C2055 1.377 . S
C2071 C2069 1.389 1_455 S
C2071 C2072 1.524 . S
C2072 C2071 1.524 . S
C2072 C2073 1.397 . S
C2072 C2077 1.363 . S
C2073 H2044 0.950 1_455 S
C2073 C2072 1.397 . S
C2073 C2074 1.334 . S
C2074 H2045 0.950 . S
C2074 C2073 1.334 . S
C2074 C2075 1.287 . S
C2075 C2074 1.287 . S
C2075 C2076 1.524 . S
C2075 H2078 0.999 . S
C2076 H2046 0.950 . S
C2076 C2075 1.524 . S
C2076 C2077 1.415 . S
C2077 H2047 0.950 . S
C2077 C2072 1.363 . S
C2077 C2076 1.415 . S
H2078 C2075 0.999 . S
H2079 C2060 0.913 . S
H2080 C2098 0.951 . S
H2081 C2100 0.951 . S
H2082 C2102 0.950 . S
H2083 C2103 0.950 . S
H2084 C2105 0.950 . S
H2085 C2108 0.950 . S
H2086 C2109 0.950 . S
H2087 C2111 0.950 1_556 S
H2088 C2112 0.950 . S
H2089 C2113 0.951 . S
H2090 C2115 0.951 . S
H2091 C2117 0.950 . S
H2092 C2118 0.950 . S
H2093 C2120 0.950 . S
H2094 C2123 0.950 . S
H2095 C2124 0.950 . S
H2096 C2126 0.950 1_554 S
H2097 C2127 0.950 . S
C2098 H2080 0.951 . S
C2098 C2099 1.366 . S
C2098 C2100 1.388 . S
C2099 C2098 1.366 . S
C2099 C2103 1.385 . S
C2100 H2081 0.951 . S
C2100 C2098 1.388 . S
C2100 C2101 1.366 . S
C2101 C2100 1.366 . S
C2101 C2102 1.414 . S
C2101 C2104 1.499 . S
C2102 H2082 0.950 . S
C2102 C2101 1.414 . S
C2102 C2103 1.374 . S
C2103 H2083 0.950 . S
C2103 C2099 1.385 . S
C2103 C2102 1.374 . S
C2104 C2101 1.499 . S
C2104 C2105 1.373 . S
C2104 C2106 1.389 . S
C2105 H2084 0.950 . S
C2105 C2104 1.373 . S
C2105 C2121 1.377 1_564 S
C2106 C2104 1.389 . S
C2106 C2107 1.524 . S
C2106 C2120 1.377 1_564 S
C2107 C2106 1.524 . S
C2107 C2108 1.397 . S
C2107 C2112 1.363 1_554 S
C2108 H2085 0.950 . S
C2108 C2107 1.397 . S
C2108 C2109 1.334 . S
C2109 H2086 0.950 . S
C2109 C2108 1.334 . S
C2109 C2110 1.287 . S
C2110 C2109 1.287 . S
C2110 C2111 1.523 . S
C2110 H2129 0.913 . S
C2111 H2087 0.950 1_554 S
C2111 C2110 1.523 . S
C2111 C2112 1.415 1_554 S
C2112 H2088 0.950 . S
C2112 C2107 1.363 1_556 S
C2112 C2111 1.415 1_556 S
C2113 H2089 0.951 . S
C2113 C2114 1.366 . S
C2113 C2115 1.388 . S
C2114 C2113 1.366 . S
C2114 C2118 1.385 . S
C2115 H2090 0.951 . S
C2115 C2113 1.388 . S
C2115 C2116 1.366 . S
C2116 C2115 1.366 . S
C2116 C2117 1.414 . S
C2116 C2119 1.499 . S
C2117 H2091 0.950 . S
C2117 C2116 1.414 . S
C2117 C2118 1.374 . S
C2118 H2092 0.950 . S
C2118 C2114 1.385 . S
C2118 C2117 1.374 . S
C2119 C2116 1.499 . S
C2119 C2120 1.373 . S
C2119 C2121 1.389 . S
C2120 H2093 0.950 . S
C2120 C2106 1.377 1_546 S
C2120 C2119 1.373 . S
C2121 C2105 1.377 1_546 S
C2121 C2119 1.389 . S
C2121 C2122 1.524 . S
C2122 C2121 1.524 . S
C2122 C2123 1.397 . S
C2122 C2127 1.363 1_556 S
C2123 H2094 0.950 . S
C2123 C2122 1.397 . S
C2123 C2124 1.334 . S
C2124 H2095 0.950 . S
C2124 C2123 1.334 . S
C2124 C2125 1.287 . S
C2125 C2124 1.287 . S
C2125 C2126 1.523 . S
C2125 H2128 0.999 . S
C2126 H2096 0.950 1_556 S
C2126 C2125 1.523 . S
C2126 C2127 1.415 1_556 S
C2127 H2097 0.950 . S
C2127 C2122 1.363 1_554 S
C2127 C2126 1.415 1_554 S
H2128 C2125 0.999 . S
H2129 C2110 0.913 . S
H2130 C2148 0.951 . S
H2131 C2150 0.951 . S
H2132 C2152 0.950 . S
H2133 C2153 0.950 . S
H2134 C2155 0.950 . S
H2135 C2158 0.950 . S
H2136 C2159 0.950 . S
H2137 C2161 0.950 . S
H2138 C2162 0.950 . S
H2139 C2163 0.951 . S
H2140 C2165 0.951 . S
H2141 C2167 0.950 . S
H2142 C2168 0.950 . S
H2143 C2170 0.950 . S
H2144 C2173 0.950 . S
H2145 C2174 0.950 . S
H2146 C2176 0.950 . S
H2147 C2177 0.950 . S
C2148 H2130 0.951 . S
C2148 C2149 1.366 . S
C2148 C2150 1.388 . S
C2149 C2148 1.366 . S
C2149 C2153 1.385 . S
C2150 H2131 0.951 . S
C2150 C2148 1.388 . S
C2150 C2151 1.366 . S
C2151 C2150 1.366 . S
C2151 C2152 1.414 . S
C2151 C2154 1.499 . S
C2152 H2132 0.950 . S
C2152 C2151 1.414 . S
C2152 C2153 1.374 . S
C2153 H2133 0.950 . S
C2153 C2149 1.385 . S
C2153 C2152 1.374 . S
C2154 C2151 1.499 . S
C2154 C2155 1.373 . S
C2154 C2156 1.389 . S
C2155 H2134 0.950 . S
C2155 C2154 1.373 . S
C2155 C2171 1.377 . S
C2156 C2154 1.389 . S
C2156 C2157 1.524 . S
C2156 C2170 1.377 . S
C2157 C2156 1.524 . S
C2157 C2158 1.397 . S
C2157 C2162 1.363 . S
C2158 H2135 0.950 . S
C2158 C2157 1.397 . S
C2158 C2159 1.334 . S
C2159 H2136 0.950 . S
C2159 C2158 1.334 . S
C2159 C2160 1.287 . S
C2160 C2159 1.287 . S
C2160 C2161 1.524 . S
C2160 H2179 0.913 . S
C2161 H2137 0.950 . S
C2161 C2160 1.524 . S
C2161 C2162 1.415 . S
C2162 H2138 0.950 . S
C2162 C2157 1.363 . S
C2162 C2161 1.415 . S
C2163 H2139 0.951 . S
C2163 C2164 1.366 . S
C2163 C2165 1.388 . S
C2164 C2163 1.366 . S
C2164 C2168 1.385 . S
C2165 H2140 0.951 . S
C2165 C2163 1.388 . S
C2165 C2166 1.366 . S
C2166 C2165 1.366 . S
C2166 C2167 1.414 . S
C2166 C2169 1.499 . S
C2167 H2141 0.950 . S
C2167 C2166 1.414 . S
C2167 C2168 1.374 . S
C2168 H2142 0.950 . S
C2168 C2164 1.385 . S
C2168 C2167 1.374 . S
C2169 C2166 1.499 . S
C2169 C2170 1.373 . S
C2169 C2171 1.389 . S
C2170 H2143 0.950 . S
C2170 C2156 1.377 . S
C2170 C2169 1.373 . S
C2171 C2155 1.377 . S
C2171 C2169 1.389 . S
C2171 C2172 1.524 . S
C2172 C2171 1.524 . S
C2172 C2173 1.397 . S
C2172 C2177 1.363 . S
C2173 H2144 0.950 . S
C2173 C2172 1.397 . S
C2173 C2174 1.334 . S
C2174 H2145 0.950 . S
C2174 C2173 1.334 . S
C2174 C2175 1.287 . S
C2175 C2174 1.287 . S
C2175 C2176 1.524 . S
C2175 H2178 0.999 . S
C2176 H2146 0.950 . S
C2176 C2175 1.524 . S
C2176 C2177 1.415 . S
C2177 H2147 0.950 . S
C2177 C2172 1.363 . S
C2177 C2176 1.415 . S
H2178 C2175 0.999 . S
H2179 C2160 0.913 . S
H2180 C2198 0.951 . S
H2181 C2200 0.951 . S
H2182 C2202 0.950 . S
H2183 C2203 0.950 . S
H2184 C2205 0.950 . S
H2185 C2208 0.950 1_554 S
H2186 C2209 0.953 . S
H2187 C2211 0.950 . S
H2188 C2212 0.950 1_455 S
H2189 C2213 0.951 . S
H2190 C2215 0.951 . S
H2191 C2217 0.950 . S
H2192 C2218 0.950 . S
H2193 C2220 0.950 . S
H2194 C2223 0.950 1_556 S
H2195 C2224 0.953 . S
H2196 C2226 0.950 . S
H2197 C2227 0.950 1_655 S
C2198 H2180 0.951 . S
C2198 C2199 1.366 . S
C2198 C2200 1.388 . S
C2199 C2198 1.366 . S
C2199 C2203 1.385 . S
C2200 H2181 0.951 . S
C2200 C2198 1.388 . S
C2200 C2201 1.366 . S
C2201 C2200 1.366 . S
C2201 C2202 1.414 . S
C2201 C2204 1.499 . S
C2202 H2182 0.950 . S
C2202 C2201 1.414 . S
C2202 C2203 1.374 . S
C2203 H2183 0.950 . S
C2203 C2199 1.385 . S
C2203 C2202 1.374 . S
C2204 C2201 1.499 . S
C2204 C2205 1.373 . S
C2204 C2206 1.389 . S
C2205 H2184 0.950 . S
C2205 C2204 1.373 . S
C2205 C2221 1.377 1_656 S
C2206 C2204 1.389 . S
C2206 C2207 1.524 . S
C2206 C2220 1.377 1_656 S
C2207 C2206 1.524 . S
C2207 C2208 1.397 . S
C2207 C2212 1.363 . S
C2208 H2185 0.950 1_556 S
C2208 C2207 1.397 . S
C2208 C2209 1.334 . S
C2209 H2186 0.953 . S
C2209 C2208 1.334 . S
C2209 C2210 1.287 . S
C2210 C2209 1.287 . S
C2210 C2211 1.524 . S
C2210 H2229 0.913 . S
C2211 H2187 0.950 . S
C2211 C2210 1.524 . S
C2211 C2212 1.415 . S
C2212 H2188 0.950 1_655 S
C2212 C2207 1.363 . S
C2212 C2211 1.415 . S
C2213 H2189 0.951 . S
C2213 C2214 1.366 . S
C2213 C2215 1.388 . S
C2214 C2213 1.366 . S
C2214 C2218 1.385 . S
C2215 H2190 0.951 . S
C2215 C2213 1.388 . S
C2215 C2216 1.366 . S
C2216 C2215 1.366 . S
C2216 C2217 1.414 . S
C2216 C2219 1.499 . S
C2217 H2191 0.950 . S
C2217 C2216 1.414 . S
C2217 C2218 1.374 . S
C2218 H2192 0.950 . S
C2218 C2214 1.385 . S
C2218 C2217 1.374 . S
C2219 C2216 1.499 . S
C2219 C2220 1.373 . S
C2219 C2221 1.389 . S
C2220 H2193 0.950 . S
C2220 C2206 1.377 1_454 S
C2220 C2219 1.373 . S
C2221 C2205 1.377 1_454 S
C2221 C2219 1.389 . S
C2221 C2222 1.524 . S
C2222 C2221 1.524 . S
C2222 C2223 1.397 . S
C2222 C2227 1.363 . S
C2223 H2194 0.950 1_554 S
C2223 C2222 1.397 . S
C2223 C2224 1.334 . S
C2224 H2195 0.953 . S
C2224 C2223 1.334 . S
C2224 C2225 1.287 . S
C2225 C2224 1.287 . S
C2225 C2226 1.524 . S
C2225 H2228 0.999 . S
C2226 H2196 0.950 . S
C2226 C2225 1.524 . S
C2226 C2227 1.415 . S
C2227 H2197 0.950 1_455 S
C2227 C2222 1.363 . S
C2227 C2226 1.415 . S
H2228 C2225 0.999 . S
H2229 C2210 0.913 . S
H2230 C2248 0.951 . S
H2231 C2250 0.951 . S
H2232 C2252 0.950 . S
H2233 C2253 0.950 . S
H2234 C2255 0.950 . S
H2235 C2258 0.950 1_565 S
H2236 C2259 0.970 . S
H2237 C2261 0.950 . S
H2238 C2262 0.950 . S
H2239 C2263 0.951 . S
H2240 C2265 0.951 . S
H2241 C2267 0.950 . S
H2242 C2268 0.950 . S
H2243 C2270 0.950 . S
H2244 C2273 0.950 1_545 S
H2245 C2274 0.970 . S
H2246 C2276 0.950 . S
H2247 C2277 0.950 . S
C2248 H2230 0.951 . S
C2248 C2249 1.366 . S
C2248 C2250 1.388 . S
C2249 C2248 1.366 . S
C2249 C2253 1.385 . S
C2250 H2231 0.951 . S
C2250 C2248 1.388 . S
C2250 C2251 1.366 . S
C2251 C2250 1.366 . S
C2251 C2252 1.414 . S
C2251 C2254 1.499 . S
C2252 H2232 0.950 . S
C2252 C2251 1.414 . S
C2252 C2253 1.374 . S
C2253 H2233 0.950 . S
C2253 C2249 1.385 . S
C2253 C2252 1.374 . S
C2254 C2251 1.499 . S
C2254 C2255 1.373 . S
C2254 C2256 1.389 1_565 S
C2255 H2234 0.950 . S
C2255 C2254 1.373 . S
C2255 C2271 1.377 . S
C2256 C2254 1.389 1_545 S
C2256 C2257 1.524 . S
C2256 C2270 1.377 . S
C2257 C2256 1.524 . S
C2257 C2258 1.397 . S
C2257 C2262 1.363 . S
C2258 H2235 0.950 1_545 S
C2258 C2257 1.397 . S
C2258 C2259 1.334 . S
C2259 H2236 0.970 . S
C2259 C2258 1.334 . S
C2259 C2260 1.287 . S
C2260 C2259 1.287 . S
C2260 C2261 1.524 . S
C2260 H2279 0.913 . S
C2261 H2237 0.950 . S
C2261 C2260 1.524 . S
C2261 C2262 1.415 . S
C2262 H2238 0.950 . S
C2262 C2257 1.363 . S
C2262 C2261 1.415 . S
C2263 H2239 0.951 . S
C2263 C2264 1.366 . S
C2263 C2265 1.388 . S
C2264 C2263 1.366 . S
C2264 C2268 1.385 . S
C2265 H2240 0.951 . S
C2265 C2263 1.388 . S
C2265 C2266 1.366 . S
C2266 C2265 1.366 . S
C2266 C2267 1.414 . S
C2266 C2269 1.499 . S
C2267 H2241 0.950 . S
C2267 C2266 1.414 . S
C2267 C2268 1.374 . S
C2268 H2242 0.950 . S
C2268 C2264 1.385 . S
C2268 C2267 1.374 . S
C2269 C2266 1.499 . S
C2269 C2270 1.373 . S
C2269 C2271 1.389 1_545 S
C2270 H2243 0.950 . S
C2270 C2256 1.377 . S
C2270 C2269 1.373 . S
C2271 C2255 1.377 . S
C2271 C2269 1.389 1_565 S
C2271 C2272 1.524 . S
C2272 C2271 1.524 . S
C2272 C2273 1.397 . S
C2272 C2277 1.363 . S
C2273 H2244 0.950 1_565 S
C2273 C2272 1.397 . S
C2273 C2274 1.334 . S
C2274 H2245 0.970 . S
C2274 C2273 1.334 . S
C2274 C2275 1.287 . S
C2275 C2274 1.287 . S
C2275 C2276 1.524 . S
C2275 H2278 0.999 . S
C2276 H2246 0.950 . S
C2276 C2275 1.524 . S
C2276 C2277 1.415 . S
C2277 H2247 0.950 . S
C2277 C2272 1.363 . S
C2277 C2276 1.415 . S
H2278 C2275 0.999 . S
H2279 C2260 0.913 . S
C499 C184 1.113 . S
C514 C17 1.115 . S
C549 C224 1.113 . S
C564 C57 1.115 . S
C599 C97 1.115 . S
C614 C24 1.113 . S
C649 C137 1.116 . S
C664 C64 1.114 . S
C699 C177 1.115 . S
C714 C104 1.113 . S
C749 C144 1.113 . S
C764 C217 1.115 . S
C799 C344 1.114 . S
C814 C257 1.116 . S
C849 C297 1.115 . S
C864 C384 1.113 . S
C899 C424 1.113 . S
C914 C337 1.115 . S
C949 C377 1.116 . S
C964 C464 1.113 . S
C999 C417 1.116 . S
C1014 C264 1.113 . S
C1049 C304 1.114 . S
C1064 C457 1.116 . S
C1099 C173 1.516 . S
C1114 C26 1.518 . S
C1149 C66 1.518 . S
C1164 C213 1.516 . S
C1199 C106 1.518 . S
C1214 C13 1.516 . S
C1249 C146 1.517 . S
C1264 C53 1.516 . S
C1299 C93 1.515 . S
C1314 C186 1.517 . S
C1349 C133 1.515 . S
C1364 C226 1.517 . S
C1399 C333 1.516 . S
C1414 C266 1.518 . S
C1449 C306 1.518 . S
C1464 C373 1.516 . S
C1499 C346 1.518 . S
C1514 C413 1.516 . S
C1549 C453 1.515 . S
C1564 C386 1.517 . S
C1599 C426 1.518 . S
C1614 C253 1.516 . S
C1649 C293 1.515 . S
C1664 C466 1.517 . S
C1699 C423 1.694 . S
C1714 C23 1.694 . S
C1749 C63 1.695 . S
C1764 C463 1.695 . S
C1799 C103 1.695 . S
C1814 C263 1.694 . S
C1849 C143 1.695 . S
C1864 C303 1.695 . S
C1899 C183 1.695 . S
C1914 C343 1.694 . S
C1949 C383 1.695 . S
C1964 C223 1.695 . S
C1999 C362 2.144 . S
C2014 C2 2.144 . S
C2049 C402 2.144 . S
C2064 C42 2.144 . S
C2099 C82 2.144 . S
C2114 C442 2.144 . S
C2149 C122 2.144 . S
C2164 C242 2.144 . S
C2199 C282 2.144 . S
C2214 C162 2.144 . S
C2249 C322 2.144 . S
C2264 C202 2.144 . S
