# Generated by pormake.
# Topology msp, (4)-cn, num edge types: 1
# Building blocks:
#     Node 0, Type 0, BuildingBlock: KOZSID_clean_sbu_0, # of connection points: 4
#     Node 1, Type 0, BuildingBlock: KOZSID_clean_sbu_0, # of connection points: 4
#     Node 2, Type 0, BuildingBlock: KOZSID_clean_sbu_0, # of connection points: 4
#     Node 3, Type 0, BuildingBlock: KOZSID_clean_sbu_0, # of connection points: 4
#     Node 4, Type 0, BuildingBlock: KOZSID_clean_sbu_0, # of connection points: 4
#     Node 5, Type 0, BuildingBlock: KOZSID_clean_sbu_0, # of connection points: 4
#     Node 6, Type 0, BuildingBlock: KOZSID_clean_sbu_0, # of connection points: 4
#     Node 7, Type 0, BuildingBlock: KOZSID_clean_sbu_0, # of connection points: 4
#     Edge 8, Type (0, 0), BuildingBlock: ZUJKAS_clean_linker_0, # of connection points: 2
#     Edge 9, Type (0, 0), BuildingBlock: ZUJKAS_clean_linker_0, # of connection points: 2
#     Edge 10, Type (0, 0), BuildingBlock: ZUJKAS_clean_linker_0, # of connection points: 2
#     Edge 11, Type (0, 0), BuildingBlock: ZUJKAS_clean_linker_0, # of connection points: 2
#     Edge 12, Type (0, 0), BuildingBlock: ZUJKAS_clean_linker_0, # of connection points: 2
#     Edge 13, Type (0, 0), BuildingBlock: ZUJKAS_clean_linker_0, # of connection points: 2
#     Edge 14, Type (0, 0), BuildingBlock: ZUJKAS_clean_linker_0, # of connection points: 2
#     Edge 15, Type (0, 0), BuildingBlock: ZUJKAS_clean_linker_0, # of connection points: 2
#     Edge 16, Type (0, 0), BuildingBlock: ZUJKAS_clean_linker_0, # of connection points: 2
#     Edge 17, Type (0, 0), BuildingBlock: ZUJKAS_clean_linker_0, # of connection points: 2
#     Edge 18, Type (0, 0), BuildingBlock: ZUJKAS_clean_linker_0, # of connection points: 2
#     Edge 19, Type (0, 0), BuildingBlock: ZUJKAS_clean_linker_0, # of connection points: 2
#     Edge 20, Type (0, 0), BuildingBlock: ZUJKAS_clean_linker_0, # of connection points: 2
#     Edge 21, Type (0, 0), BuildingBlock: ZUJKAS_clean_linker_0, # of connection points: 2
#     Edge 22, Type (0, 0), BuildingBlock: ZUJKAS_clean_linker_0, # of connection points: 2
#     Edge 23, Type (0, 0), BuildingBlock: ZUJKAS_clean_linker_0, # of connection points: 2
# Relax obj value: 0.068
# Max RMSD: 0.205
# Mean RMSD: 0.205
data_MOF--net-msp--node1-KOZSID_clean_sbu_0--edge1-ZUJKAS_clean_linker_0
_symmetry_space_group_name_H-M    P1
_symmetry_Int_Tables_number       1
_symmetry_cell_setting            triclinic
loop_
_symmetry_equiv_pos_as_xyz
'x, y, z'
_cell_length_a     31.560472
_cell_length_b     17.604725
_cell_length_c     71.279136
_cell_angle_alpha  90.003818
_cell_angle_beta   91.909401
_cell_angle_gamma 90.006165
loop_
_atom_site_label
_atom_site_type_symbol
_atom_site_fract_x
_atom_site_fract_y
_atom_site_fract_z
_atom_type_partial_charge
C0 C 0.0058 0.44809 0.39332 0.0
C1 C 0.99496 0.52374 0.39555 0.0
C2 C 0.0033 0.55915 0.37887 0.0
C3 C 0.01862 0.5031 0.36747 0.0
N4 N 0.0201 0.43505 0.37598 0.0
Co5 Co 0.04207 0.33932 0.3656 0.0
N6 N 0.07536 0.39479 0.34693 0.0
C7 C 0.06905 0.46745 0.34155 0.0
C8 C 0.09605 0.4901 0.32793 0.0
C9 C 0.12036 0.42755 0.32433 0.0
C10 C 0.10678 0.36983 0.33601 0.0
N11 N 0.06348 0.24284 0.3552 0.0
C12 C 0.09564 0.2304 0.34347 0.0
C13 C 0.09889 0.15362 0.33923 0.0
C14 C 0.06703 0.11738 0.34832 0.0
C15 C 0.04622 0.17364 0.35765 0.0
N16 N 0.00867 0.28492 0.38441 0.0
C17 C 0.99679 0.21168 0.38381 0.0
C18 C 0.97635 0.18987 0.39968 0.0
C19 C 0.97562 0.25347 0.41089 0.0
C20 C 0.99556 0.31064 0.40113 0.0
N21 N 0.99372 0.33504 0.34766 0.0
C22 C 0.92434 0.32057 0.32225 0.0
C23 C 0.91844 0.34126 0.34099 0.0
C24 C 0.95349 0.34831 0.35344 0.0
C25 C 0.96587 0.30923 0.31647 0.0
C26 C 0.99989 0.31657 0.32932 0.0
N27 N 0.09 0.34328 0.38364 0.0
C28 C 0.12832 0.2846 0.40947 0.0
C29 C 0.14565 0.35487 0.41492 0.0
C30 C 0.1373 0.41796 0.40335 0.0
C31 C 0.10962 0.41081 0.38771 0.0
C32 C 0.10068 0.28005 0.39384 0.0
H33 H 0.1022 0.46093 0.37956 0.0
H34 H 0.0862 0.22598 0.39063 0.0
H35 H 0.94801 0.36338 0.36784 0.0
H36 H 0.03122 0.3064 0.32437 0.0
C37 C 0.04116 0.51475 0.3511 0.0
C38 C 1.00156 0.38913 0.40758 0.0
C39 C 0.12042 0.29023 0.33451 0.0
C40 C 0.01433 0.1626 0.37066 0.0
H41 H 0.98308 0.55045 0.408 0.0
H42 H 1.00115 0.61935 0.37591 0.0
H43 H 0.09825 0.54568 0.32154 0.0
H44 H 0.14448 0.4242 0.31392 0.0
H45 H 0.12134 0.12681 0.33018 0.0
H46 H 0.06043 0.05705 0.34841 0.0
H47 H 0.96588 0.13334 0.40329 0.0
H48 H 0.96271 0.25663 0.42473 0.0
H49 H 0.88696 0.35023 0.34617 0.0
H50 H 0.97222 0.29483 0.30207 0.0
H51 H 0.13492 0.23366 0.41757 0.0
H52 H 0.14995 0.47348 0.4069 0.0
C53 C 0.50755 0.45057 0.61594 0.0
C54 C 0.5221 0.52393 0.61331 0.0
C55 C 0.51549 0.56228 0.62977 0.0
C56 C 0.49742 0.5101 0.64145 0.0
N57 N 0.4926 0.44169 0.63332 0.0
Co58 Co 0.46636 0.35079 0.64427 0.0
N59 N 0.43591 0.41312 0.66264 0.0
C60 C 0.44567 0.48511 0.66759 0.0
C61 C 0.42004 0.51323 0.68112 0.0
C62 C 0.39293 0.45501 0.68512 0.0
C63 C 0.40357 0.39422 0.67375 0.0
N64 N 0.44061 0.25907 0.65528 0.0
C65 C 0.40806 0.25281 0.66709 0.0
C66 C 0.40112 0.17722 0.67169 0.0
C67 C 0.43109 0.13533 0.6628 0.0
C68 C 0.4545 0.18725 0.6532 0.0
N69 N 0.49698 0.28954 0.62576 0.0
C70 C 0.50529 0.21479 0.62678 0.0
C71 C 0.5241 0.18805 0.61097 0.0
C72 C 0.52757 0.24994 0.59934 0.0
C73 C 0.51087 0.31127 0.60882 0.0
N74 N 0.51448 0.34134 0.66219 0.0
C75 C 0.58322 0.32104 0.68768 0.0
C76 C 0.58984 0.33837 0.66879 0.0
C77 C 0.55511 0.34834 0.6563 0.0
C78 C 0.54139 0.31574 0.69354 0.0
C79 C 0.50767 0.32593 0.68065 0.0
N80 N 0.41861 0.35985 0.62625 0.0
C81 C 0.3769 0.304 0.60101 0.0
C82 C 0.36208 0.37578 0.59544 0.0
C83 C 0.37391 0.43883 0.60642 0.0
C84 C 0.40196 0.42956 0.62186 0.0
C85 C 0.40496 0.29727 0.61645 0.0
H86 H 0.41177 0.4793 0.62969 0.0
H87 H 0.41738 0.24176 0.61981 0.0
H88 H 0.56111 0.36078 0.6418 0.0
H89 H 0.47604 0.32061 0.68568 0.0
C90 C 0.47565 0.52691 0.65775 0.0
C91 C 0.50866 0.38987 0.60196 0.0
C92 C 0.38633 0.31713 0.67578 0.0
C93 C 0.48561 0.17005 0.64023 0.0
H94 H 0.53529 0.54732 0.60073 0.0
H95 H 0.52063 0.62218 0.63241 0.0
H96 H 0.42059 0.56958 0.6872 0.0
H97 H 0.36896 0.45647 0.69562 0.0
H98 H 0.37745 0.15482 0.68085 0.0
H99 H 0.43474 0.0742 0.663 0.0
H100 H 0.53156 0.12967 0.60765 0.0
H101 H 0.54002 0.24902 0.58541 0.0
H102 H 0.62157 0.34255 0.66356 0.0
H103 H 0.53457 0.30403 0.70805 0.0
H104 H 0.36869 0.25368 0.59293 0.0
H105 H 0.36258 0.49519 0.6028 0.0
C106 C 0.00391 0.6885 0.60955 0.0
C107 C 0.02018 0.75176 0.60074 0.0
C108 C 0.01617 0.81144 0.61304 0.0
C109 C 0.99761 0.78124 0.62857 0.0
N110 N 0.99002 0.70652 0.62673 0.0
Co111 Co 0.96071 0.64054 0.64468 0.0
N112 N 0.93407 0.72899 0.65682 0.0
C113 C 0.9473 0.8016 0.65557 0.0
C114 C 0.92418 0.85053 0.66617 0.0
C115 C 0.89508 0.8058 0.67483 0.0
C116 C 0.902 0.73163 0.66898 0.0
N117 N 0.93162 0.5735 0.66248 0.0
C118 C 0.89915 0.5887 0.67385 0.0
C119 C 0.88826 0.52435 0.68392 0.0
C120 C 0.91588 0.46808 0.67913 0.0
C121 C 0.94176 0.50056 0.66629 0.0
N122 N 0.98781 0.55293 0.63256 0.0
C123 C 0.99346 0.48307 0.63979 0.0
C124 C 0.01154 0.43393 0.62735 0.0
C125 C 0.01726 0.47579 0.61134 0.0
C126 C 0.00222 0.54804 0.61499 0.0
N127 N 0.00918 0.64907 0.66248 0.0
C128 C 0.07809 0.6732 0.68765 0.0
C129 C 0.03641 0.67435 0.6938 0.0
C130 C 0.0026 0.66197 0.68108 0.0
C131 C 0.08458 0.65722 0.66868 0.0
C132 C 0.04974 0.64542 0.65634 0.0
N133 N 0.91262 0.63272 0.62679 0.0
C134 C 0.86893 0.55579 0.606 0.0
C135 C 0.85701 0.62026 0.59552 0.0
C136 C 0.87058 0.69153 0.6021 0.0
C137 C 0.89818 0.69651 0.61773 0.0
C138 C 0.89665 0.56331 0.62163 0.0
H139 H 0.90968 0.75188 0.62182 0.0
H140 H 0.9071 0.51254 0.62886 0.0
H141 H 0.97106 0.66416 0.68633 0.0
H142 H 0.05557 0.63481 0.64174 0.0
C143 C 0.97789 0.82258 0.64265 0.0
C144 C 0.00228 0.6115 0.60178 0.0
C145 C 0.88144 0.66478 0.67711 0.0
C146 C 0.97193 0.462 0.65584 0.0
H147 H 0.03286 0.75483 0.58685 0.0
H148 H 0.02328 0.87054 0.6104 0.0
H149 H 0.92763 0.91154 0.6673 0.0
H150 H 0.87222 0.82538 0.68472 0.0
H151 H 0.86357 0.51897 0.69401 0.0
H152 H 0.91638 0.41001 0.68411 0.0
H153 H 0.01712 0.37368 0.62917 0.0
H154 H 0.0301 0.45536 0.59838 0.0
H155 H 0.02985 0.68487 0.70839 0.0
H156 H 0.11625 0.65592 0.66328 0.0
H157 H 0.85917 0.49949 0.60153 0.0
H158 H 0.86115 0.74317 0.59484 0.0
C159 C 0.49665 0.69984 0.40137 0.0
C160 C 0.48159 0.76194 0.4111 0.0
C161 C 0.48659 0.82411 0.39969 0.0
C162 C 0.50462 0.7967 0.38375 0.0
N163 N 0.51096 0.7213 0.38449 0.0
Co164 Co 0.53977 0.65855 0.3657 0.0
N165 N 0.56778 0.74857 0.35495 0.0
C166 C 0.55576 0.82135 0.35729 0.0
C167 C 0.58032 0.87175 0.34777 0.0
C168 C 0.60908 0.82787 0.33867 0.0
C169 C 0.60031 0.75273 0.34308 0.0
N170 N 0.56843 0.59469 0.34706 0.0
C171 C 0.60119 0.61142 0.33598 0.0
C172 C 0.61024 0.55034 0.32442 0.0
C173 C 0.58167 0.49423 0.32825 0.0
C174 C 0.55681 0.52381 0.34189 0.0
N175 N 0.51124 0.56937 0.37637 0.0
C176 C 0.50459 0.50185 0.36801 0.0
C177 C 0.48532 0.4506 0.37955 0.0
C178 C 0.47987 0.4886 0.39616 0.0
C179 C 0.49625 0.56083 0.39375 0.0
N180 N 0.4918 0.67305 0.34789 0.0
C181 C 0.42349 0.70172 0.32262 0.0
C182 C 0.46537 0.70211 0.31665 0.0
C183 C 0.49885 0.68808 0.32944 0.0
C184 C 0.41662 0.68488 0.34153 0.0
C185 C 0.45109 0.67041 0.35388 0.0
N186 N 0.58737 0.64458 0.38361 0.0
C187 C 0.63023 0.56102 0.40306 0.0
C188 C 0.64358 0.62239 0.41432 0.0
C189 C 0.63047 0.69558 0.40906 0.0
C190 C 0.60259 0.70543 0.39365 0.0
C191 C 0.60233 0.57339 0.3877 0.0
H192 H 0.59157 0.76206 0.39052 0.0
H193 H 0.59125 0.52494 0.37969 0.0
H194 H 0.53053 0.69015 0.32433 0.0
H195 H 0.44487 0.65814 0.36837 0.0
C196 C 0.52528 0.84046 0.3704 0.0
C197 C 0.49686 0.62081 0.40794 0.0
C198 C 0.62037 0.68709 0.33418 0.0
C199 C 0.52584 0.48406 0.35163 0.0
H200 H 0.4692 0.76303 0.42504 0.0
H201 H 0.48064 0.88285 0.40322 0.0
H202 H 0.57821 0.93311 0.34776 0.0
H203 H 0.63315 0.84875 0.32951 0.0
H204 H 0.63415 0.54742 0.31391 0.0
H205 H 0.57966 0.43826 0.32201 0.0
H206 H 0.47866 0.39131 0.37673 0.0
H207 H 0.46625 0.46567 0.4087 0.0
H208 H 0.47246 0.71294 0.30214 0.0
H209 H 0.38494 0.68439 0.34691 0.0
H210 H 0.64023 0.50362 0.40642 0.0
H211 H 0.63984 0.74473 0.41733 0.0
C212 C 0.5025 0.96317 0.89155 0.0
C213 C 0.4947 0.0405 0.89329 0.0
C214 C 0.50392 0.07307 0.87641 0.0
C215 C 0.5174 0.01451 0.86539 0.0
N216 N 0.51702 0.94728 0.87432 0.0
Co217 Co 0.53857 0.84958 0.8647 0.0
N218 N 0.57358 0.90173 0.84606 0.0
C219 C 0.56815 0.97379 0.84009 0.0
C220 C 0.59574 0.99403 0.8265 0.0
C221 C 0.61959 0.93042 0.82353 0.0
C222 C 0.60523 0.87455 0.83558 0.0
N223 N 0.55952 0.75129 0.8551 0.0
C224 C 0.59242 0.73637 0.84393 0.0
C225 C 0.5955 0.65888 0.84051 0.0
C226 C 0.56258 0.62485 0.84939 0.0
C227 C 0.54145 0.68297 0.85785 0.0
N228 N 0.50356 0.79849 0.88339 0.0
C229 C 0.49049 0.72589 0.88297 0.0
C230 C 0.46798 0.70688 0.89849 0.0
C231 C 0.4672 0.77168 0.90927 0.0
C232 C 0.48948 0.82644 0.8997 0.0
N233 N 0.49115 0.84509 0.84626 0.0
C234 C 0.42286 0.8256 0.82047 0.0
C235 C 0.41612 0.85003 0.83888 0.0
C236 C 0.45065 0.85963 0.85152 0.0
C237 C 0.46469 0.8139 0.81515 0.0
C238 C 0.49816 0.82379 0.82818 0.0
N239 N 0.58557 0.85333 0.88322 0.0
C240 C 0.62317 0.79441 0.90925 0.0
C241 C 0.64228 0.86375 0.91413 0.0
C242 C 0.63423 0.92681 0.90254 0.0
C243 C 0.6061 0.92021 0.88704 0.0
C244 C 0.59505 0.79041 0.89377 0.0
H245 H 0.59957 0.97 0.87863 0.0
H246 H 0.57941 0.73708 0.89092 0.0
H247 H 0.44452 0.87715 0.86568 0.0
H248 H 0.52972 0.8127 0.82362 0.0
C249 C 0.54061 0.02305 0.84914 0.0
C250 C 0.49589 0.90504 0.90602 0.0
C251 C 0.61825 0.79437 0.83475 0.0
C252 C 0.5084 0.67465 0.87043 0.0
H253 H 0.48483 0.07146 0.90545 0.0
H254 H 0.50407 0.13312 0.87316 0.0
H255 H 0.5986 0.04872 0.81972 0.0
H256 H 0.64384 0.92531 0.81323 0.0
H257 H 0.61857 0.63003 0.83217 0.0
H258 H 0.55554 0.56473 0.84993 0.0
H259 H 0.45594 0.65145 0.90215 0.0
H260 H 0.45259 0.77775 0.92272 0.0
H261 H 0.38438 0.85959 0.84369 0.0
H262 H 0.4717 0.79682 0.80099 0.0
H263 H 0.62818 0.74429 0.91785 0.0
H264 H 0.64892 0.98121 0.90561 0.0
C265 C 0.99899 0.9562 0.11598 0.0
C266 C 0.01003 0.03147 0.11325 0.0
C267 C 1.00171 0.06884 0.12967 0.0
C268 C 0.98619 0.01424 0.14143 0.0
N269 N 0.98455 0.94528 0.13338 0.0
Co270 Co 0.9625 0.8509 0.14443 0.0
N271 N 0.92935 0.90871 0.16273 0.0
C272 C 0.93598 0.98181 0.16767 0.0
C273 C 0.90926 0.00617 0.18122 0.0
C274 C 0.88477 0.94433 0.18524 0.0
C275 C 0.89794 0.88529 0.17386 0.0
N276 N 0.94079 0.75582 0.15547 0.0
C277 C 0.90843 0.74498 0.16719 0.0
C278 C 0.90463 0.66859 0.17175 0.0
C279 C 0.93644 0.63104 0.16294 0.0
C280 C 0.95772 0.68614 0.15341 0.0
N281 N 0.99595 0.79415 0.12605 0.0
C282 C 0.00765 0.72089 0.12717 0.0
C283 C 0.02812 0.69707 0.11148 0.0
C284 C 0.02905 0.75931 0.09984 0.0
C285 C 0.00923 0.81782 0.10917 0.0
N286 N 0.01083 0.84849 0.16239 0.0
C287 C 0.08032 0.83964 0.18792 0.0
C288 C 0.08599 0.85818 0.16902 0.0
C289 C 0.05093 0.86234 0.15652 0.0
C290 C 0.03896 0.82651 0.19373 0.0
C291 C 0.00485 0.83138 0.18082 0.0
N292 N 0.91462 0.85312 0.12633 0.0
C293 C 0.877 0.79279 0.10051 0.0
C294 C 0.85877 0.86231 0.09506 0.0
C295 C 0.86674 0.92597 0.10648 0.0
C296 C 0.89461 0.9201 0.12208 0.0
C297 C 0.90449 0.78934 0.11622 0.0
H298 H 0.90162 0.97064 0.13015 0.0
H299 H 0.91946 0.73578 0.11952 0.0
H300 H 0.05628 0.87629 0.14205 0.0
H301 H 0.97362 0.82027 0.1858 0.0
C302 C 0.96388 0.02783 0.15776 0.0
C303 C 0.00336 0.89556 0.10216 0.0
C304 C 0.8839 0.80609 0.17582 0.0
C305 C 0.98973 0.67342 0.14056 0.0
H306 H 0.02214 0.05662 0.10064 0.0
H307 H 0.0041 0.12931 0.13224 0.0
H308 H 0.90737 0.06239 0.18728 0.0
H309 H 0.86083 0.94243 0.19575 0.0
H310 H 0.88182 0.64286 0.1808 0.0
H311 H 0.94266 0.57058 0.16314 0.0
H312 H 0.03839 0.64002 0.10827 0.0
H313 H 0.04195 0.7606 0.08598 0.0
H314 H 0.11725 0.86981 0.1639 0.0
H315 H 0.0329 0.81088 0.20808 0.0
H316 H 0.87197 0.74201 0.09216 0.0
H317 H 0.8526 0.98052 0.10309 0.0
C318 C 0.5022 0.20747 0.10865 0.0
C319 C 0.51278 0.27373 0.09932 0.0
C320 C 0.50654 0.33264 0.11158 0.0
C321 C 0.492 0.29968 0.1276 0.0
N322 N 0.489 0.22377 0.1261 0.0
Co323 Co 0.4639 0.15405 0.14448 0.0
N324 N 0.43271 0.23783 0.15639 0.0
C325 C 0.44183 0.31231 0.15491 0.0
C326 C 0.41582 0.35736 0.16522 0.0
C327 C 0.38917 0.30804 0.17393 0.0
C328 C 0.4005 0.23526 0.16845 0.0
N329 N 0.43897 0.08323 0.16266 0.0
C330 C 0.40606 0.09332 0.17411 0.0
C331 C 0.40008 0.02921 0.18508 0.0
C332 C 0.4309 0.97811 0.18053 0.0
C333 C 0.45387 0.01347 0.16704 0.0
N334 N 0.49562 0.07125 0.1327 0.0
C335 C 0.50597 0.00393 0.14044 0.0
C336 C 0.52767 0.95816 0.1284 0.0
C337 C 0.53077 0.99959 0.11214 0.0
C338 C 0.51056 0.06817 0.11521 0.0
N339 N 0.51195 0.17191 0.16204 0.0
C340 C 0.58041 0.20037 0.18715 0.0
C341 C 0.53881 0.19813 0.19338 0.0
C342 C 0.5052 0.18369 0.18067 0.0
C343 C 0.58702 0.18736 0.16806 0.0
C344 C 0.55242 0.17353 0.15575 0.0
N345 N 0.41624 0.13675 0.12678 0.0
C346 C 0.37725 0.05188 0.10613 0.0
C347 C 0.36063 0.11375 0.09591 0.0
C348 C 0.37012 0.18718 0.10234 0.0
C349 C 0.39777 0.19739 0.11778 0.0
C350 C 0.40472 0.06463 0.12164 0.0
H351 H 0.40612 0.25466 0.12171 0.0
H352 H 0.41834 0.01619 0.12887 0.0
H353 H 0.4737 0.18232 0.186 0.0
H354 H 0.55836 0.16454 0.14109 0.0
C355 C 0.47062 0.33787 0.14172 0.0
C356 C 0.50546 0.12932 0.10137 0.0
C357 C 0.38345 0.16543 0.17663 0.0
C358 C 0.48624 0.98019 0.15676 0.0
H359 H 0.52267 0.28042 0.08509 0.0
H360 H 0.509 0.39269 0.10855 0.0
H361 H 0.41557 0.41876 0.166 0.0
H362 H 0.36484 0.32374 0.18355 0.0
H363 H 0.37664 0.02104 0.19564 0.0
H364 H 0.43556 0.92158 0.1862 0.0
H365 H 0.53754 0.89992 0.13068 0.0
H366 H 0.54521 0.981 0.09936 0.0
H367 H 0.53219 0.20665 0.20804 0.0
H368 H 0.61862 0.18914 0.16259 0.0
H369 H 0.37013 0.99412 0.10185 0.0
H370 H 0.3582 0.23677 0.09488 0.0
C371 C 0.99872 0.19561 0.90107 0.0
C372 C 0.98114 0.25585 0.91063 0.0
C373 C 0.98448 0.31845 0.89921 0.0
C374 C 0.00401 0.29297 0.88343 0.0
N375 N 0.01282 0.21839 0.88427 0.0
Co376 Co 0.04384 0.15842 0.86565 0.0
N377 N 0.06917 0.25106 0.85492 0.0
C378 C 0.05493 0.32258 0.85719 0.0
C379 C 0.07809 0.37529 0.84773 0.0
C380 C 0.10827 0.33427 0.83873 0.0
C381 C 0.1017 0.25838 0.84313 0.0
N382 N 0.07463 0.09738 0.84715 0.0
C383 C 0.10687 0.11732 0.83609 0.0
C384 C 0.11785 0.05718 0.82458 0.0
C385 C 0.09106 0.99831 0.82844 0.0
C386 C 0.06527 0.02541 0.84203 0.0
N387 N 0.01805 0.06658 0.87638 0.0
C388 C 0.01372 0.99832 0.86812 0.0
C389 C 0.99623 0.94526 0.87975 0.0
C390 C 0.98947 0.98285 0.8963 0.0
C391 C 0.00335 0.05669 0.89378 0.0
N392 N 0.99573 0.16803 0.84773 0.0
C393 C 0.92696 0.19176 0.82244 0.0
C394 C 0.96878 0.19685 0.81656 0.0
C395 C 0.00251 0.1849 0.82935 0.0
C396 C 0.92037 0.17241 0.84122 0.0
C397 C 0.95511 0.16066 0.8536 0.0
N398 N 0.09154 0.14932 0.8837 0.0
C399 C 0.13593 0.07001 0.9036 0.0
C400 C 0.14611 0.13235 0.91515 0.0
C401 C 0.13137 0.20426 0.9096 0.0
C402 C 0.10437 0.21153 0.89384 0.0
C403 C 0.10867 0.07978 0.8879 0.0
H404 H 0.09196 0.26708 0.8905 0.0
H405 H 0.09949 0.03035 0.87981 0.0
H406 H 0.03413 0.19036 0.82432 0.0
H407 H 0.94913 0.14691 0.86803 0.0
C408 C 0.02358 0.33872 0.87014 0.0
C409 C 1.00158 0.11707 0.9078 0.0
C410 C 0.12371 0.19478 0.83426 0.0
C411 C 0.03558 0.98261 0.85178 0.0
H412 H 0.96811 0.25521 0.92446 0.0
H413 H 0.97636 0.37644 0.90262 0.0
H414 H 0.07411 0.43635 0.84767 0.0
H415 H 0.13181 0.35746 0.82963 0.0
H416 H 0.14184 0.05657 0.81408 0.0
H417 H 0.09084 0.94219 0.82223 0.0
H418 H 0.99159 0.88531 0.87701 0.0
H419 H 0.97659 0.95869 0.90886 0.0
H420 H 0.97556 0.20992 0.80212 0.0
H421 H 0.88865 0.16815 0.84647 0.0
H422 H 0.14674 0.01339 0.90727 0.0
H423 H 0.13948 0.25444 0.91775 0.0
H424 H 0.93528 0.3865 0.43136 0.0
H425 H 0.93593 0.42703 0.46438 0.0
H426 H 0.06883 0.48197 0.46168 0.0
H427 H 0.068 0.44184 0.42871 0.0
H428 H 0.98674 0.37247 0.49523 0.0
H429 H 0.0157 0.67843 0.4816 0.0
H430 H 0.99839 0.61322 0.46335 0.0
H431 H 0.05296 0.61476 0.47138 0.0
C432 C 0.96464 0.40636 0.43796 0.0
C433 C 1.00179 0.41005 0.42772 0.0
C434 C 0.96497 0.42987 0.45673 0.0
C435 C 0.00231 0.45831 0.46542 0.0
C436 C 0.03951 0.46143 0.45517 0.0
H437 H 0.06735 0.62719 0.57767 0.0
H438 H 0.0673 0.59054 0.54435 0.0
C439 C 0.03914 0.438 0.43643 0.0
C440 C 0.00241 0.48399 0.48525 0.0
H441 H 0.01814 0.63918 0.51343 0.0
C442 C 0.99342 0.43082 0.49922 0.0
C443 C 0.01135 0.5601 0.4904 0.0
C444 C 0.01981 0.62023 0.47591 0.0
C445 C 0.99374 0.4514 0.51827 0.0
C446 C 0.00237 0.52768 0.52343 0.0
C447 C 0.01151 0.58081 0.50945 0.0
C448 C 1.00185 0.55336 0.54327 0.0
C449 C 0.98578 0.39082 0.53271 0.0
C450 C 0.96488 0.54631 0.55356 0.0
C451 C 0.96502 0.56699 0.57248 0.0
C452 C 1.00178 0.59652 0.58133 0.0
C453 C 0.03847 0.60562 0.57098 0.0
C454 C 0.03846 0.58444 0.55204 0.0
H455 H 0.9915 0.33296 0.5271 0.0
H456 H 0.0063 0.39919 0.5455 0.0
H457 H 0.95221 0.39378 0.53682 0.0
H458 H 0.93601 0.52405 0.54701 0.0
H459 H 0.93655 0.55906 0.58028 0.0
H460 H 0.43707 0.64759 0.43428 0.0
H461 H 0.44022 0.61018 0.46748 0.0
H462 H 0.56107 0.50241 0.45953 0.0
H463 H 0.55854 0.54238 0.42659 0.0
H464 H 0.44387 0.46859 0.48253 0.0
H465 H 0.58773 0.62893 0.50558 0.0
H466 H 0.56036 0.64663 0.48337 0.0
H467 H 0.59601 0.56734 0.486 0.0
C468 C 0.46484 0.61801 0.43982 0.0
C469 C 0.49842 0.6004 0.42816 0.0
C470 C 0.46641 0.59584 0.45869 0.0
C471 C 0.50142 0.55517 0.46614 0.0
C472 C 0.53443 0.53589 0.4543 0.0
H473 H 0.56932 0.36543 0.57586 0.0
H474 H 0.56596 0.40097 0.54257 0.0
C475 C 0.53292 0.55839 0.4355 0.0
C476 C 0.50256 0.53012 0.48607 0.0
H477 H 0.5614 0.53897 0.5271 0.0
C478 C 0.46944 0.48431 0.49231 0.0
C479 C 0.5361 0.55025 0.49879 0.0
C480 C 0.57187 0.60156 0.49317 0.0
C481 C 0.46922 0.45703 0.51084 0.0
C482 C 0.5027 0.47736 0.52359 0.0
C483 C 0.53584 0.52315 0.51732 0.0
C484 C 0.5038 0.4527 0.54355 0.0
C485 C 0.43358 0.40527 0.51638 0.0
C486 C 0.4703 0.47065 0.55525 0.0
C487 C 0.47188 0.44889 0.57412 0.0
C488 C 0.50701 0.40917 0.58168 0.0
C489 C 0.54107 0.393 0.57016 0.0
C490 C 0.53937 0.41421 0.55122 0.0
H491 H 0.41842 0.37685 0.50395 0.0
H492 H 0.44497 0.36098 0.52642 0.0
H493 H 0.40887 0.43938 0.5232 0.0
H494 H 0.44322 0.50263 0.54989 0.0
H495 H 0.44585 0.46385 0.5829 0.0
H496 H 0.45333 0.02549 0.08474 0.0
H497 H 0.45153 0.98213 0.05224 0.0
H498 H 0.54691 0.14824 0.03927 0.0
H499 H 0.55353 0.1824 0.07231 0.0
H500 H 0.43026 0.03163 0.02147 0.0
H501 H 0.6013 0.97818 0.01628 0.0
H502 H 0.57858 0.0043 0.0381 0.0
H503 H 0.5933 0.07629 0.02142 0.0
C504 C 0.47402 0.05252 0.07492 0.0
C505 C 0.5024 0.10959 0.08102 0.0
C506 C 0.47286 0.02792 0.05628 0.0
C507 C 0.49953 0.06084 0.04312 0.0
C508 C 0.52683 0.11993 0.04909 0.0
H509 H 0.44139 0.00242 0.92339 0.0
H510 H 0.44359 0.04121 0.95619 0.0
C511 C 0.52939 0.14198 0.06796 0.0
C512 C 0.49861 0.03313 0.02327 0.0
H513 H 0.56168 0.98607 0.98704 0.0
C514 C 0.45911 0.02069 0.01407 0.0
C515 C 0.53599 0.01657 0.01354 0.0
C516 C 0.57955 0.01872 0.02296 0.0
C517 C 0.45591 0.99326 0.99556 0.0
C518 C 0.49329 0.98315 0.98529 0.0
C519 C 0.5328 0.99469 0.99459 0.0
C520 C 0.4925 0.96094 0.965 0.0
C521 C 0.41236 0.9729 0.98768 0.0
C522 C 0.52083 0.90584 0.95845 0.0
C523 C 0.52183 0.88812 0.93932 0.0
C524 C 0.49408 0.92406 0.92634 0.0
C525 C 0.46462 0.97662 0.93291 0.0
C526 C 0.46488 0.99687 0.95188 0.0
H527 H 0.39124 0.95463 0.99901 0.0
H528 H 0.39764 0.02377 0.98098 0.0
H529 H 0.41363 0.92643 0.97719 0.0
H530 H 0.54246 0.87666 0.96811 0.0
H531 H 0.5445 0.84657 0.93464 0.0
H532 H 0.06936 0.88695 0.07828 0.0
H533 H 0.06891 0.92314 0.04502 0.0
H534 H 0.93732 0.98764 0.04772 0.0
H535 H 0.93765 0.94949 0.08085 0.0
H536 H 0.95378 0.90523 0.01587 0.0
H537 H 0.07041 0.13917 0.02532 0.0
H538 H 0.08952 0.04894 0.03369 0.0
H539 H 0.04577 0.09376 0.04486 0.0
C540 C 0.04026 0.90768 0.07162 0.0
C541 C 0.00328 0.91422 0.08189 0.0
C542 C 0.04015 0.92935 0.05274 0.0
C543 C 0.00325 0.95919 0.04394 0.0
C544 C 0.96618 0.96502 0.05421 0.0
H545 H 0.93583 0.12784 0.93171 0.0
H546 H 0.93584 0.09027 0.96492 0.0
C547 C 0.96632 0.94321 0.07307 0.0
C548 C 0.00319 0.98412 0.02404 0.0
H549 H 0.05049 0.10644 0.99395 0.0
C550 C 0.97481 0.94943 0.01109 0.0
C551 C 0.03064 0.04184 0.01781 0.0
C552 C 0.06054 0.08365 0.03116 0.0
C553 C 0.97376 0.96972 0.99202 0.0
C554 C 1.00114 0.02751 0.98581 0.0
C555 C 0.02949 0.06223 0.99875 0.0
C556 C 1.00116 0.05235 0.96591 0.0
C557 C 0.94408 0.92769 0.97862 0.0
C558 C 0.03812 0.04534 0.95561 0.0
C559 C 0.03814 0.0673 0.93677 0.0
C560 C 1.00149 0.09778 0.92802 0.0
C561 C 0.96463 0.10559 0.93832 0.0
C562 C 0.96453 0.0834 0.95717 0.0
H563 H 0.9351 0.87142 0.98431 0.0
H564 H 0.91468 0.96151 0.97635 0.0
H565 H 0.95861 0.9189 0.96481 0.0
H566 H 0.06676 0.02172 0.96207 0.0
H567 H 0.0667 0.06006 0.92899 0.0
H568 H 0.58432 0.30615 0.2153 0.0
H569 H 0.64276 0.32998 0.23792 0.0
H570 H 0.71615 0.15387 0.21228 0.0
H571 H 0.6579 0.13005 0.18951 0.0
H572 H 0.6788 0.2347 0.26388 0.0
H573 H 0.79974 0.32813 0.21417 0.0
H574 H 0.74433 0.31959 0.20743 0.0
H575 H 0.77766 0.23668 0.20855 0.0
C576 C 0.6129 0.27245 0.21447 0.0
C577 C 0.61648 0.21627 0.20057 0.0
C578 C 0.64633 0.28634 0.22738 0.0
C579 C 0.68411 0.24455 0.22665 0.0
C580 C 0.68775 0.1882 0.21284 0.0
H581 H 0.91439 0.21123 0.29511 0.0
H582 H 0.85547 0.1952 0.27239 0.0
C583 C 0.65439 0.17453 0.19984 0.0
C584 C 0.71902 0.25819 0.24076 0.0
H585 H 0.82415 0.30318 0.24554 0.0
C586 C 0.71051 0.25023 0.25988 0.0
C587 C 0.76039 0.27859 0.23553 0.0
C588 C 0.77107 0.29201 0.21532 0.0
C589 C 0.74243 0.26027 0.27388 0.0
C590 C 0.78387 0.27961 0.26862 0.0
C591 C 0.79235 0.28813 0.24952 0.0
C592 C 0.81916 0.2897 0.28267 0.0
C593 C 0.73186 0.24822 0.29415 0.0
C594 C 0.81842 0.34855 0.29595 0.0
C595 C 0.85231 0.35837 0.30892 0.0
C596 C 0.88768 0.30967 0.30878 0.0
C597 C 0.88808 0.25063 0.29546 0.0
C598 C 0.8543 0.24103 0.2825 0.0
H599 H 0.70136 0.21751 0.29554 0.0
H600 H 0.75734 0.21568 0.30167 0.0
H601 H 0.72907 0.30422 0.30115 0.0
H602 H 0.79191 0.38757 0.29612 0.0
H603 H 0.85117 0.40504 0.31878 0.0
H604 H 0.65916 0.39734 0.69062 0.0
H605 H 0.7181 0.37476 0.71316 0.0
H606 H 0.6474 0.19411 0.7384 0.0
H607 H 0.58924 0.21411 0.71554 0.0
H608 H 0.71886 0.38376 0.75178 0.0
H609 H 0.75988 0.09152 0.72975 0.0
H610 H 0.72572 0.15262 0.71565 0.0
H611 H 0.70522 0.10226 0.73535 0.0
C612 C 0.65643 0.35199 0.70077 0.0
C613 C 0.61943 0.30745 0.70121 0.0
C614 C 0.69003 0.33952 0.71373 0.0
C615 C 0.68744 0.28196 0.72728 0.0
C616 C 0.6505 0.2378 0.72783 0.0
H617 H 0.85047 0.1175 0.8192 0.0
H618 H 0.79171 0.14291 0.79679 0.0
C619 C 0.617 0.25005 0.71489 0.0
C620 C 0.72277 0.26948 0.74123 0.0
H621 H 0.7918 0.13515 0.75844 0.0
C622 C 0.73504 0.3296 0.75316 0.0
C623 C 0.7437 0.19861 0.74307 0.0
C624 C 0.73328 0.13277 0.73016 0.0
C625 C 0.76706 0.32038 0.76715 0.0
C626 C 0.78788 0.2494 0.76903 0.0
C627 C 0.77568 0.18938 0.75706 0.0
C628 C 0.82288 0.23629 0.78312 0.0
C629 C 0.77751 0.38627 0.78004 0.0
C630 C 0.86001 0.28003 0.78283 0.0
C631 C 0.89345 0.26613 0.79571 0.0
C632 C 0.89073 0.2075 0.80906 0.0
C633 C 0.85346 0.16368 0.8093 0.0
C634 C 0.81995 0.17781 0.79641 0.0
H635 H 0.75071 0.42704 0.78062 0.0
H636 H 0.78557 0.36652 0.79451 0.0
H637 H 0.80523 0.41729 0.77468 0.0
H638 H 0.86337 0.32446 0.77247 0.0
H639 H 0.92142 0.30161 0.79524 0.0
H640 H 0.15522 0.60123 0.69089 0.0
H641 H 0.21346 0.62768 0.71358 0.0
H642 H 0.14111 0.81054 0.7369 0.0
H643 H 0.08287 0.78426 0.71442 0.0
H644 H 0.26108 0.75658 0.71961 0.0
H645 H 0.17266 0.68786 0.78337 0.0
H646 H 0.15317 0.66326 0.76007 0.0
H647 H 0.14705 0.75841 0.7688 0.0
C648 C 0.1518 0.64723 0.70081 0.0
C649 C 0.11418 0.69004 0.70099 0.0
C650 C 0.18504 0.66211 0.71381 0.0
C651 C 0.18129 0.72 0.72722 0.0
C652 C 0.14425 0.76412 0.72708 0.0
H653 H 0.34866 0.90642 0.81544 0.0
H654 H 0.29024 0.88149 0.79275 0.0
C655 C 0.11099 0.74907 0.71418 0.0
C656 C 0.21636 0.73527 0.74116 0.0
H657 H 0.23985 0.74708 0.78824 0.0
C658 C 0.2565 0.75408 0.73461 0.0
C659 C 0.21034 0.73214 0.76075 0.0
C660 C 0.1686 0.70862 0.7687 0.0
C661 C 0.29056 0.77109 0.74711 0.0
C662 C 0.28446 0.76828 0.76667 0.0
C663 C 0.24436 0.74957 0.77323 0.0
C664 C 0.3196 0.7829 0.78056 0.0
C665 C 0.33263 0.79326 0.73926 0.0
C666 C 0.35503 0.73485 0.78148 0.0
C667 C 0.38825 0.74853 0.7945 0.0
C668 C 0.38678 0.81061 0.80693 0.0
C669 C 0.35079 0.85789 0.80619 0.0
C670 C 0.31746 0.84398 0.79317 0.0
H671 H 0.32928 0.81122 0.72435 0.0
H672 H 0.34751 0.84022 0.74754 0.0
H673 H 0.35435 0.7437 0.74001 0.0
H674 H 0.35686 0.68631 0.77221 0.0
H675 H 0.4149 0.70978 0.79495 0.0
H676 H 0.34347 0.63902 0.32093 0.0
H677 H 0.28542 0.66736 0.2985 0.0
H678 H 0.36434 0.82979 0.27084 0.0
H679 H 0.4216 0.80542 0.29384 0.0
H680 H 0.28664 0.88457 0.27401 0.0
H681 H 0.27553 0.59225 0.24541 0.0
H682 H 0.26813 0.59573 0.27023 0.0
H683 H 0.31848 0.62215 0.26102 0.0
C684 C 0.34841 0.68148 0.31023 0.0
C685 C 0.38757 0.71927 0.30915 0.0
C686 C 0.3153 0.69681 0.29722 0.0
C687 C 0.3208 0.74937 0.28267 0.0
C688 C 0.35944 0.78839 0.2818 0.0
H689 H 0.15853 0.77816 0.18173 0.0
H690 H 0.21785 0.76178 0.2043 0.0
C691 C 0.39238 0.77371 0.29489 0.0
C692 C 0.28633 0.76428 0.26839 0.0
H693 H 0.22081 0.67797 0.23577 0.0
C694 C 0.27236 0.83938 0.26561 0.0
C695 C 0.26817 0.70563 0.25714 0.0
C696 C 0.28362 0.62457 0.25843 0.0
C697 C 0.24039 0.85724 0.25213 0.0
C698 C 0.221 0.79809 0.24148 0.0
C699 C 0.23538 0.72321 0.24406 0.0
C700 C 0.18572 0.81228 0.22758 0.0
C701 C 0.22842 0.93951 0.2492 0.0
C702 C 0.14789 0.84625 0.23311 0.0
C703 C 0.11408 0.85654 0.22018 0.0
C704 C 0.11715 0.83229 0.20145 0.0
C705 C 0.15521 0.79859 0.19593 0.0
C706 C 0.18907 0.78859 0.20887 0.0
H707 H 0.25488 0.97794 0.25352 0.0
H708 H 0.21948 0.95133 0.23429 0.0
H709 H 0.20097 0.9533 0.25792 0.0
H710 H 0.14421 0.86374 0.24753 0.0
H711 H 0.08546 0.88339 0.2249 0.0
H712 H 0.29704 0.15636 0.17619 0.0
H713 H 0.25052 0.17093 0.20303 0.0
H714 H 0.36025 0.2062 0.23975 0.0
H715 H 0.40651 0.19053 0.213 0.0
H716 H 0.3013 0.10652 0.25453 0.0
H717 H 0.22409 0.37229 0.22892 0.0
H718 H 0.22075 0.2942 0.21272 0.0
H719 H 0.27154 0.33495 0.21889 0.0
C720 C 0.31093 0.16713 0.19004 0.0
C721 C 0.35502 0.17266 0.19269 0.0
C722 C 0.28451 0.17582 0.2053 0.0
C723 C 0.30193 0.19072 0.22335 0.0
C724 C 0.34614 0.19498 0.22596 0.0
H725 H 0.20688 0.29052 0.33395 0.0
H726 H 0.25131 0.26218 0.30707 0.0
C727 C 0.37247 0.18621 0.21074 0.0
C728 C 0.27431 0.20213 0.23957 0.0
H729 H 0.19765 0.31795 0.25654 0.0
C730 C 0.27866 0.15276 0.255 0.0
C731 C 0.24487 0.26265 0.24015 0.0
C732 C 0.24016 0.31956 0.22438 0.0
C733 C 0.25403 0.16183 0.27091 0.0
C734 C 0.22471 0.22245 0.27149 0.0
C735 C 0.22016 0.27148 0.25603 0.0
C736 C 0.19839 0.23629 0.28801 0.0
C737 C 0.25899 0.10586 0.28686 0.0
C738 C 0.15404 0.23225 0.28611 0.0
C739 C 0.12889 0.24847 0.30137 0.0
C740 C 0.14768 0.26924 0.31874 0.0
C741 C 0.19196 0.27358 0.3207 0.0
C742 C 0.21719 0.25715 0.30542 0.0
H743 H 0.27648 0.05408 0.28271 0.0
H744 H 0.27697 0.13297 0.29871 0.0
H745 H 0.22751 0.08876 0.29195 0.0
H746 H 0.13891 0.21693 0.27278 0.0
H747 H 0.09469 0.24577 0.29958 0.0
H748 H 0.30068 0.33743 0.67711 0.0
H749 H 0.25568 0.31818 0.70431 0.0
H750 H 0.36518 0.24508 0.73739 0.0
H751 H 0.40998 0.26524 0.71036 0.0
H752 H 0.24269 0.18407 0.72556 0.0
H753 H 0.3145 0.41359 0.76954 0.0
H754 H 0.32233 0.40662 0.74463 0.0
H755 H 0.35204 0.34691 0.76074 0.0
C756 C 0.31483 0.31696 0.69021 0.0
C757 C 0.35846 0.30214 0.69175 0.0
C758 C 0.28929 0.3061 0.70569 0.0
C759 C 0.30721 0.28117 0.72294 0.0
C760 C 0.35082 0.26558 0.72434 0.0
H761 H 0.20938 0.17517 0.83283 0.0
H762 H 0.25421 0.19539 0.80562 0.0
C763 C 0.37627 0.27641 0.70891 0.0
C764 C 0.28037 0.27056 0.73944 0.0
H765 H 0.26695 0.33026 0.78448 0.0
C766 C 0.2478 0.2163 0.73841 0.0
C767 C 0.28724 0.31251 0.75621 0.0
C768 C 0.32066 0.37368 0.75787 0.0
C769 C 0.22238 0.20186 0.75382 0.0
C770 C 0.22928 0.24377 0.7706 0.0
C771 C 0.26183 0.29806 0.77162 0.0
C772 C 0.20256 0.23291 0.78712 0.0
C773 C 0.18895 0.14071 0.75216 0.0
C774 C 0.15895 0.24851 0.7858 0.0
C775 C 0.13359 0.23717 0.80125 0.0
C776 C 0.15151 0.21088 0.81833 0.0
C777 C 0.19515 0.19612 0.81979 0.0
C778 C 0.22059 0.20751 0.8043 0.0
H779 H 0.19499 0.10099 0.74043 0.0
H780 H 0.18742 0.10755 0.76538 0.0
H781 H 0.15755 0.16751 0.74939 0.0
H782 H 0.1445 0.26933 0.7728 0.0
H783 H 0.09986 0.24824 0.79984 0.0
H784 H 0.70363 0.81713 0.83325 0.0
H785 H 0.74914 0.79252 0.8065 0.0
H786 H 0.64204 0.69902 0.77524 0.0
H787 H 0.59654 0.7247 0.80176 0.0
H788 H 0.7235 0.61152 0.77474 0.0
H789 H 0.73631 0.91714 0.7556 0.0
H790 H 0.74752 0.89286 0.77979 0.0
H791 H 0.69478 0.88132 0.77004 0.0
C792 C 0.69017 0.79028 0.82074 0.0
C793 C 0.64694 0.77152 0.8196 0.0
C794 C 0.71597 0.77673 0.80548 0.0
C795 C 0.69882 0.74426 0.7889 0.0
C796 C 0.65585 0.72387 0.78794 0.0
H797 H 0.79939 0.71462 0.67654 0.0
H798 H 0.75394 0.7336 0.70363 0.0
C799 C 0.63002 0.73806 0.80309 0.0
C800 C 0.72528 0.73335 0.77233 0.0
H801 H 0.77575 0.82985 0.73799 0.0
C802 C 0.73499 0.65915 0.7667 0.0
C803 C 0.7397 0.7957 0.76177 0.0
C804 C 0.72893 0.87638 0.76694 0.0
C805 C 0.75943 0.64571 0.75092 0.0
C806 C 0.77447 0.70811 0.74056 0.0
C807 C 0.76421 0.78225 0.74602 0.0
C808 C 0.80165 0.69738 0.72423 0.0
C809 C 0.76884 0.56495 0.74532 0.0
C810 C 0.84353 0.67211 0.72697 0.0
C811 C 0.86939 0.66211 0.71164 0.0
C812 C 0.85358 0.67615 0.6933 0.0
C813 C 0.8119 0.70256 0.69056 0.0
C814 C 0.78611 0.7134 0.70596 0.0
H815 H 0.748 0.52365 0.75234 0.0
H816 H 0.76486 0.55771 0.72988 0.0
H817 H 0.80226 0.55132 0.74934 0.0
H818 H 0.85625 0.66056 0.74098 0.0
H819 H 0.90177 0.64312 0.71406 0.0
H820 H 0.90754 0.75197 0.21023 0.0
H821 H 0.86246 0.72791 0.23699 0.0
H822 H 0.75278 0.79954 0.20382 0.0
H823 H 0.79799 0.82227 0.17691 0.0
H824 H 0.81283 0.83147 0.25535 0.0
H825 H 0.71377 0.59737 0.22559 0.0
H826 H 0.76247 0.62738 0.21526 0.0
H827 H 0.71461 0.68115 0.21123 0.0
C828 C 0.87367 0.76116 0.20863 0.0
C829 C 0.85587 0.78737 0.19151 0.0
C830 C 0.84802 0.74788 0.2239 0.0
C831 C 0.80415 0.76074 0.22233 0.0
C832 C 0.78638 0.78748 0.20522 0.0
H833 H 0.59804 0.73993 0.29954 0.0
H834 H 0.64367 0.75866 0.2727 0.0
C835 C 0.81209 0.80067 0.1899 0.0
C836 C 0.77746 0.74918 0.23887 0.0
H837 H 0.69274 0.64958 0.25455 0.0
C838 C 0.7867 0.79141 0.25522 0.0
C839 C 0.74339 0.69689 0.23867 0.0
C840 C 0.7331 0.64753 0.22182 0.0
C841 C 0.76231 0.78388 0.27125 0.0
C842 C 0.72815 0.73184 0.27102 0.0
C843 C 0.71895 0.68946 0.25469 0.0
C844 C 0.70103 0.72149 0.28745 0.0
C845 C 0.77264 0.83303 0.28813 0.0
C846 C 0.71808 0.69384 0.3046 0.0
C847 C 0.69205 0.68345 0.31994 0.0
C848 C 0.64871 0.7006 0.31829 0.0
C849 C 0.63159 0.72745 0.30111 0.0
C850 C 0.65753 0.73778 0.28582 0.0
H851 H 0.79294 0.88213 0.28452 0.0
H852 H 0.74325 0.85475 0.29439 0.0
H853 H 0.79002 0.79865 0.29892 0.0
H854 H 0.75139 0.67943 0.30605 0.0
H855 H 0.7056 0.66157 0.33301 0.0
H856 H 0.37197 0.48289 0.56814 0.0
H857 H 0.33494 0.49054 0.53744 0.0
H858 H 0.25942 0.29575 0.55139 0.0
H859 H 0.29614 0.28786 0.58214 0.0
H860 H 0.33157 0.36713 0.50993 0.0
H861 H 0.17227 0.45875 0.5319 0.0
H862 H 0.21957 0.47124 0.54657 0.0
H863 H 0.19475 0.37963 0.54469 0.0
C864 C 0.347 0.44247 0.5648 0.0
C865 C 0.33693 0.3848 0.57758 0.0
C866 C 0.32606 0.44669 0.54723 0.0
C867 C 0.29425 0.39412 0.54224 0.0
C868 C 0.28354 0.33742 0.55508 0.0
H869 H 0.12965 0.28447 0.44814 0.0
H870 H 0.16806 0.29707 0.47816 0.0
C871 C 0.30471 0.33272 0.57258 0.0
C872 C 0.2736 0.3959 0.52329 0.0
H873 H 0.17769 0.41728 0.5004 0.0
C874 C 0.29801 0.37876 0.50775 0.0
C875 C 0.22986 0.41093 0.52059 0.0
C876 C 0.20251 0.43181 0.53677 0.0
C877 C 0.27946 0.37323 0.4896 0.0
C878 C 0.23547 0.38727 0.4869 0.0
C879 C 0.21135 0.40631 0.50245 0.0
C880 C 0.21326 0.37912 0.46829 0.0
C881 C 0.30687 0.34926 0.47369 0.0
C882 C 0.22566 0.42136 0.45267 0.0
C883 C 0.20424 0.41298 0.43526 0.0
C884 C 0.16962 0.36289 0.43319 0.0
C885 C 0.15688 0.32188 0.449 0.0
C886 C 0.17852 0.32972 0.46629 0.0
H887 H 0.33651 0.32115 0.4789 0.0
H888 H 0.28959 0.30971 0.46401 0.0
H889 H 0.31595 0.40024 0.4656 0.0
H890 H 0.25167 0.46131 0.45396 0.0
H891 H 0.21494 0.44552 0.42343 0.0
H892 H 0.87072 0.69972 0.5634 0.0
H893 H 0.83316 0.6893 0.5331 0.0
H894 H 0.75524 0.51059 0.55484 0.0
H895 H 0.79144 0.52323 0.58563 0.0
H896 H 0.82746 0.57015 0.50936 0.0
H897 H 0.66638 0.65035 0.53161 0.0
H898 H 0.71309 0.66399 0.54653 0.0
H899 H 0.6895 0.57136 0.54415 0.0
C900 C 0.84494 0.65932 0.56193 0.0
C901 C 0.83358 0.61332 0.57711 0.0
C902 C 0.8238 0.65286 0.54449 0.0
C903 C 0.79087 0.6001 0.54175 0.0
C904 C 0.77987 0.55297 0.55673 0.0
H905 H 0.63212 0.51275 0.44091 0.0
H906 H 0.66891 0.5001 0.47153 0.0
C907 C 0.80092 0.55969 0.57428 0.0
C908 C 0.76903 0.59391 0.52301 0.0
H909 H 0.67291 0.61338 0.5 0.0
C910 C 0.79364 0.57945 0.50734 0.0
C911 C 0.72484 0.60577 0.52037 0.0
C912 C 0.69689 0.6244 0.53651 0.0
C913 C 0.77542 0.57725 0.48911 0.0
C914 C 0.73146 0.59057 0.48645 0.0
C915 C 0.70661 0.60309 0.50212 0.0
C916 C 0.71095 0.5953 0.46746 0.0
C917 C 0.80336 0.5606 0.47283 0.0
C918 C 0.7224 0.65302 0.45503 0.0
C919 C 0.70143 0.66046 0.43754 0.0
C920 C 0.66854 0.61032 0.43214 0.0
C921 C 0.65764 0.55172 0.44452 0.0
C922 C 0.67845 0.54465 0.46207 0.0
H923 H 0.83325 0.53195 0.47751 0.0
H924 H 0.78663 0.52424 0.46223 0.0
H925 H 0.81184 0.6148 0.46596 0.0
H926 H 0.74694 0.69345 0.45903 0.0
H927 H 0.71069 0.70598 0.42832 0.0
H928 H 0.80173 0.76093 0.0794 0.0
H929 H 0.76687 0.76665 0.0483 0.0
H930 H 0.82415 0.98504 0.03871 0.0
H931 H 0.86046 0.97848 0.06946 0.0
H932 H 0.71055 0.86549 0.03269 0.0
H933 H 0.85837 0.86642 0.99294 0.0
H934 H 0.85822 0.8484 0.01783 0.0
H935 H 0.8557 0.94427 0.00911 0.0
C936 C 0.80713 0.81003 0.07065 0.0
C937 C 0.83419 0.86896 0.07693 0.0
C938 C 0.78698 0.8134 0.0529 0.0
C939 C 0.79349 0.87562 0.04102 0.0
C940 C 0.81933 0.93573 0.04746 0.0
H941 H 0.64055 0.97815 0.94005 0.0
H942 H 0.67879 0.9845 0.97046 0.0
C943 C 0.83961 0.93233 0.06519 0.0
C944 C 0.77317 0.87731 0.02193 0.0
H945 H 0.7943 0.8886 0.97527 0.0
C946 C 0.72886 0.87076 0.02015 0.0
C947 C 0.79718 0.88274 0.00553 0.0
C948 C 0.84502 0.88511 0.00639 0.0
C949 C 0.70791 0.87031 1.00246 0.0
C950 C 0.7318 0.87806 0.98614 0.0
C951 C 0.77608 0.88384 0.98785 0.0
C952 C 0.71126 0.87736 0.96715 0.0
C953 C 0.66053 0.85872 1.00122 0.0
C954 C 0.71805 0.81635 0.95496 0.0
C955 C 0.6966 0.81291 0.9375 0.0
C956 C 0.66816 0.87075 0.93186 0.0
C957 C 0.66257 0.93312 0.94387 0.0
C958 C 0.68403 0.93645 0.96133 0.0
H959 H 0.64719 0.84587 0.01509 0.0
H960 H 0.64499 0.91067 0.99553 0.0
H961 H 0.65254 0.81145 0.9914 0.0
H962 H 0.73918 0.77046 0.95916 0.0
H963 H 0.70192 0.76456 0.92848 0.0
H964 H 0.37695 0.0145 0.06743 0.0
H965 H 0.34199 0.00866 0.03624 0.0
H966 H 0.25447 0.18297 0.05244 0.0
H967 H 0.28928 0.18937 0.08357 0.0
H968 H 0.2556 0.98183 0.02434 0.0
H969 H 0.30994 0.27092 0.0056 0.0
H970 H 0.33232 0.21874 0.02536 0.0
H971 H 0.28242 0.26703 0.02723 0.0
C972 C 0.34984 0.05071 0.06445 0.0
C973 C 0.33614 0.10296 0.07792 0.0
C974 C 0.33002 0.0475 0.0466 0.0
C975 C 0.29619 0.09642 0.04194 0.0
C976 C 0.28116 0.14594 0.05563 0.0
H977 H 0.1291 0.20036 0.94845 0.0
H978 H 0.16715 0.18643 0.97863 0.0
C979 C 0.30102 0.14942 0.07342 0.0
C980 C 0.27715 0.09756 0.02264 0.0
H981 H 0.2577 0.21467 0.98515 0.0
C982 C 0.25637 0.03239 0.01567 0.0
C983 C 0.2785 0.16351 0.01133 0.0
C984 C 0.30233 0.23384 0.01765 0.0
C985 C 0.23538 0.03255 0.99794 0.0
C986 C 0.23573 0.09926 0.98691 0.0
C987 C 0.25738 0.16373 0.9937 0.0
C988 C 0.21232 0.10483 0.9686 0.0
C989 C 0.21173 0.96247 0.99139 0.0
C990 C 0.22521 0.06356 0.95294 0.0
C991 C 0.20378 0.07205 0.93553 0.0
C992 C 0.16924 0.12229 0.93352 0.0
C993 C 0.15621 0.16266 0.94937 0.0
C994 C 0.17766 0.1543 0.96668 0.0
H995 H 0.20883 0.91996 1.00279 0.0
H996 H 0.17947 0.97776 0.98593 0.0
H997 H 0.22886 0.93572 0.97976 0.0
H998 H 0.25225 0.02577 0.95411 0.0
H999 H 0.21471 0.04041 0.9236 0.0
loop_
_geom_bond_atom_site_label_1
_geom_bond_atom_site_label_2
_geom_bond_distance
_geom_bond_site_symmetry_2
_ccdc_geom_bond_type
C0 C1 1.443 . S
C0 N4 1.376 . S
C0 C38 1.389 . S
C1 C0 1.443 . S
C1 C2 1.340 . S
C1 H41 0.951 . S
C2 C1 1.340 . S
C2 C3 1.439 . S
C2 H42 0.950 . S
C3 C2 1.439 . S
C3 N4 1.374 . S
C3 C37 1.395 . S
N4 C0 1.376 . S
N4 C3 1.374 . S
N4 Co5 2.008 . S
Co5 N4 2.008 . S
Co5 N6 1.995 . S
Co5 N11 2.008 . S
Co5 N16 1.995 . S
Co5 N21 2.282 1_455 S
Co5 N27 2.282 . S
N6 Co5 1.995 . S
N6 C7 1.376 . S
N6 C10 1.383 . S
C7 N6 1.376 . S
C7 C8 1.446 . S
C7 C37 1.391 . S
C8 C7 1.446 . S
C8 C9 1.339 . S
C8 H43 0.949 . S
C9 C8 1.339 . S
C9 C10 1.439 . S
C9 H44 0.950 . S
C10 N6 1.383 . S
C10 C9 1.439 . S
C10 C39 1.392 . S
N11 Co5 2.008 . S
N11 C12 1.376 . S
N11 C15 1.374 . S
C12 N11 1.376 . S
C12 C13 1.443 . S
C12 C39 1.389 . S
C13 C12 1.443 . S
C13 C14 1.340 1_545 S
C13 H45 0.951 . S
C14 C13 1.340 1_565 S
C14 C15 1.439 1_565 S
C14 H46 0.950 . S
C15 N11 1.374 . S
C15 C14 1.439 1_545 S
C15 C40 1.395 . S
N16 Co5 1.995 . S
N16 C17 1.376 . S
N16 C20 1.383 1_455 S
C17 N16 1.376 . S
C17 C18 1.446 1_455 S
C17 C40 1.391 . S
C18 C17 1.446 1_655 S
C18 C19 1.339 . S
C18 H47 0.949 . S
C19 C18 1.339 . S
C19 C20 1.439 . S
C19 H48 0.950 . S
C20 N16 1.383 1_655 S
C20 C19 1.439 . S
C20 C38 1.392 1_655 S
N21 Co5 2.282 1_655 S
N21 C24 1.332 . S
N21 C26 1.332 . S
C22 C23 1.386 . S
C22 C25 1.388 . S
C23 C22 1.386 . S
C23 C24 1.382 . S
C23 H49 0.950 . S
C24 N21 1.332 . S
C24 C23 1.382 . S
C24 H35 0.952 . S
C25 C22 1.388 . S
C25 C26 1.382 . S
C25 H50 0.950 . S
C26 N21 1.332 . S
C26 C25 1.382 . S
C26 H36 0.948 1_655 S
N27 Co5 2.282 . S
N27 C31 1.332 . S
N27 C32 1.332 . S
C28 C29 1.388 . S
C28 C32 1.382 . S
C28 H51 0.950 . S
C29 C28 1.388 . S
C29 C30 1.386 . S
C30 C29 1.386 . S
C30 C31 1.382 . S
C30 H52 0.950 . S
C31 N27 1.332 . S
C31 C30 1.382 . S
C31 H33 0.952 . S
C32 N27 1.332 . S
C32 C28 1.382 . S
C32 H34 0.948 . S
H33 C31 0.952 . S
H34 C32 0.948 . S
H35 C24 0.952 . S
H36 C26 0.948 1_455 S
C37 C3 1.395 . S
C37 C7 1.391 . S
C38 C0 1.389 . S
C38 C20 1.392 1_455 S
C39 C10 1.392 . S
C39 C12 1.389 . S
C40 C15 1.395 . S
C40 C17 1.391 . S
H41 C1 0.951 . S
H42 C2 0.950 . S
H43 C8 0.949 . S
H44 C9 0.950 . S
H45 C13 0.951 . S
H46 C14 0.950 . S
H47 C18 0.949 . S
H48 C19 0.950 . S
H49 C23 0.950 . S
H50 C25 0.950 . S
H51 C28 0.950 . S
H52 C30 0.950 . S
C53 C54 1.443 . S
C53 N57 1.376 . S
C53 C91 1.389 . S
C54 C53 1.443 . S
C54 C55 1.340 . S
C54 H94 0.951 . S
C55 C54 1.340 . S
C55 C56 1.439 . S
C55 H95 0.950 . S
C56 C55 1.439 . S
C56 N57 1.374 . S
C56 C90 1.395 . S
N57 C53 1.376 . S
N57 C56 1.374 . S
N57 Co58 2.008 . S
Co58 N57 2.008 . S
Co58 N59 1.995 . S
Co58 N64 2.008 . S
Co58 N69 1.995 . S
Co58 N74 2.282 . S
Co58 N80 2.282 . S
N59 Co58 1.995 . S
N59 C60 1.376 . S
N59 C63 1.383 . S
C60 N59 1.376 . S
C60 C61 1.446 . S
C60 C90 1.391 . S
C61 C60 1.446 . S
C61 C62 1.339 . S
C61 H96 0.949 . S
C62 C61 1.339 . S
C62 C63 1.439 . S
C62 H97 0.950 . S
C63 N59 1.383 . S
C63 C62 1.439 . S
C63 C92 1.392 . S
N64 Co58 2.008 . S
N64 C65 1.376 . S
N64 C68 1.374 . S
C65 N64 1.376 . S
C65 C66 1.443 . S
C65 C92 1.389 . S
C66 C65 1.443 . S
C66 C67 1.340 1_545 S
C66 H98 0.951 . S
C67 C66 1.340 1_565 S
C67 C68 1.439 1_565 S
C67 H99 0.950 . S
C68 N64 1.374 . S
C68 C67 1.439 1_545 S
C68 C93 1.395 . S
N69 Co58 1.995 . S
N69 C70 1.376 . S
N69 C73 1.383 . S
C70 N69 1.376 . S
C70 C71 1.446 . S
C70 C93 1.391 . S
C71 C70 1.446 . S
C71 C72 1.339 . S
C71 H100 0.949 . S
C72 C71 1.339 . S
C72 C73 1.439 . S
C72 H101 0.950 . S
C73 N69 1.383 . S
C73 C72 1.439 . S
C73 C91 1.392 . S
N74 Co58 2.282 . S
N74 C77 1.332 . S
N74 C79 1.332 . S
C75 C76 1.386 . S
C75 C78 1.388 . S
C76 C75 1.386 . S
C76 C77 1.382 . S
C76 H102 0.950 . S
C77 N74 1.332 . S
C77 C76 1.382 . S
C77 H88 0.952 . S
C78 C75 1.388 . S
C78 C79 1.382 . S
C78 H103 0.950 . S
C79 N74 1.332 . S
C79 C78 1.382 . S
C79 H89 0.948 . S
N80 Co58 2.282 . S
N80 C84 1.332 . S
N80 C85 1.332 . S
C81 C82 1.388 . S
C81 C85 1.382 . S
C81 H104 0.950 . S
C82 C81 1.388 . S
C82 C83 1.386 . S
C83 C82 1.386 . S
C83 C84 1.382 . S
C83 H105 0.950 . S
C84 N80 1.332 . S
C84 C83 1.382 . S
C84 H86 0.952 . S
C85 N80 1.332 . S
C85 C81 1.382 . S
C85 H87 0.948 . S
H86 C84 0.952 . S
H87 C85 0.948 . S
H88 C77 0.952 . S
H89 C79 0.948 . S
C90 C56 1.395 . S
C90 C60 1.391 . S
C91 C53 1.389 . S
C91 C73 1.392 . S
C92 C63 1.392 . S
C92 C65 1.389 . S
C93 C68 1.395 . S
C93 C70 1.391 . S
H94 C54 0.951 . S
H95 C55 0.950 . S
H96 C61 0.949 . S
H97 C62 0.950 . S
H98 C66 0.951 . S
H99 C67 0.950 . S
H100 C71 0.949 . S
H101 C72 0.950 . S
H102 C76 0.950 . S
H103 C78 0.950 . S
H104 C81 0.950 . S
H105 C83 0.950 . S
C106 C107 1.443 1_655 S
C106 N110 1.376 . S
C106 C144 1.389 . S
C107 C106 1.443 1_455 S
C107 C108 1.340 1_455 S
C107 H147 0.951 . S
C108 C107 1.340 1_655 S
C108 C109 1.439 . S
C108 H148 0.950 1_655 S
C109 C108 1.439 . S
C109 N110 1.374 . S
C109 C143 1.395 . S
N110 C106 1.376 . S
N110 C109 1.374 . S
N110 Co111 2.008 . S
Co111 N110 2.008 . S
Co111 N112 1.995 . S
Co111 N117 2.008 . S
Co111 N122 1.995 . S
Co111 N127 2.282 1_655 S
Co111 N133 2.282 . S
N112 Co111 1.995 . S
N112 C113 1.376 . S
N112 C116 1.383 . S
C113 N112 1.376 . S
C113 C114 1.446 1_565 S
C113 C143 1.391 . S
C114 C113 1.446 1_545 S
C114 C115 1.339 1_545 S
C114 H149 0.949 . S
C115 C114 1.339 1_565 S
C115 C116 1.439 . S
C115 H150 0.950 . S
C116 N112 1.383 . S
C116 C115 1.439 . S
C116 C145 1.392 . S
N117 Co111 2.008 . S
N117 C118 1.376 . S
N117 C121 1.374 . S
C118 N117 1.376 . S
C118 C119 1.443 . S
C118 C145 1.389 . S
C119 C118 1.443 . S
C119 C120 1.340 . S
C119 H151 0.951 . S
C120 C119 1.340 . S
C120 C121 1.439 . S
C120 H152 0.950 . S
C121 N117 1.374 . S
C121 C120 1.439 . S
C121 C146 1.395 . S
N122 Co111 1.995 . S
N122 C123 1.376 . S
N122 C126 1.383 . S
C123 N122 1.376 . S
C123 C124 1.446 . S
C123 C146 1.391 . S
C124 C123 1.446 . S
C124 C125 1.339 . S
C124 H153 0.949 . S
C125 C124 1.339 . S
C125 C126 1.439 . S
C125 H154 0.943 1_655 S
C126 N122 1.383 . S
C126 C125 1.439 . S
C126 C144 1.392 . S
N127 Co111 2.282 1_455 S
N127 C130 1.332 . S
N127 C132 1.332 . S
C128 C129 1.386 . S
C128 C131 1.388 . S
C129 C128 1.386 . S
C129 C130 1.382 . S
C129 H155 0.950 . S
C130 N127 1.332 . S
C130 C129 1.382 . S
C130 H141 0.952 . S
C131 C128 1.388 . S
C131 C132 1.382 . S
C131 H156 0.950 . S
C132 N127 1.332 . S
C132 C131 1.382 . S
C132 H142 0.948 . S
N133 Co111 2.282 . S
N133 C137 1.332 . S
N133 C138 1.332 . S
C134 C135 1.388 . S
C134 C138 1.382 . S
C134 H157 0.950 . S
C135 C134 1.388 . S
C135 C136 1.386 . S
C136 C135 1.386 . S
C136 C137 1.382 . S
C136 H158 0.950 . S
C137 N133 1.332 . S
C137 C136 1.382 . S
C137 H139 0.952 . S
C138 N133 1.332 . S
C138 C134 1.382 . S
C138 H140 0.948 . S
H139 C137 0.952 . S
H140 C138 0.948 . S
H141 C130 0.952 . S
H142 C132 0.948 . S
C143 C109 1.395 . S
C143 C113 1.391 . S
C144 C106 1.389 . S
C144 C126 1.392 . S
C145 C116 1.392 . S
C145 C118 1.389 . S
C146 C121 1.395 . S
C146 C123 1.391 . S
H147 C107 0.951 . S
H148 C108 0.950 1_455 S
H149 C114 0.949 . S
H150 C115 0.950 . S
H151 C119 0.951 . S
H152 C120 0.950 . S
H153 C124 0.949 . S
H154 C125 0.943 1_455 S
H155 C129 0.950 . S
H156 C131 0.950 . S
H157 C134 0.950 . S
H158 C136 0.950 . S
C159 C160 1.443 . S
C159 N163 1.376 . S
C159 C197 1.389 . S
C160 C159 1.443 . S
C160 C161 1.340 . S
C160 H200 0.951 . S
C161 C160 1.340 . S
C161 C162 1.439 . S
C161 H201 0.950 . S
C162 C161 1.439 . S
C162 N163 1.374 . S
C162 C196 1.395 . S
N163 C159 1.376 . S
N163 C162 1.374 . S
N163 Co164 2.008 . S
Co164 N163 2.008 . S
Co164 N165 1.995 . S
Co164 N170 2.008 . S
Co164 N175 1.995 . S
Co164 N180 2.282 . S
Co164 N186 2.282 . S
N165 Co164 1.995 . S
N165 C166 1.376 . S
N165 C169 1.383 . S
C166 N165 1.376 . S
C166 C167 1.446 1_565 S
C166 C196 1.391 . S
C167 C166 1.446 1_545 S
C167 C168 1.339 1_545 S
C167 H202 0.949 . S
C168 C167 1.339 1_565 S
C168 C169 1.439 . S
C168 H203 0.950 . S
C169 N165 1.383 . S
C169 C168 1.439 . S
C169 C198 1.392 . S
N170 Co164 2.008 . S
N170 C171 1.376 . S
N170 C174 1.374 . S
C171 N170 1.376 . S
C171 C172 1.443 . S
C171 C198 1.389 . S
C172 C171 1.443 . S
C172 C173 1.340 . S
C172 H204 0.951 . S
C173 C172 1.340 . S
C173 C174 1.439 . S
C173 H205 0.950 . S
C174 N170 1.374 . S
C174 C173 1.439 . S
C174 C199 1.395 . S
N175 Co164 1.995 . S
N175 C176 1.376 . S
N175 C179 1.383 . S
C176 N175 1.376 . S
C176 C177 1.446 . S
C176 C199 1.391 . S
C177 C176 1.446 . S
C177 C178 1.339 . S
C177 H206 0.949 . S
C178 C177 1.339 . S
C178 C179 1.439 . S
C178 H207 0.950 . S
C179 N175 1.383 . S
C179 C178 1.439 . S
C179 C197 1.392 . S
N180 Co164 2.282 . S
N180 C183 1.332 . S
N180 C185 1.332 . S
C181 C182 1.386 . S
C181 C184 1.388 . S
C182 C181 1.386 . S
C182 C183 1.382 . S
C182 H208 0.950 . S
C183 N180 1.332 . S
C183 C182 1.382 . S
C183 H194 0.952 . S
C184 C181 1.388 . S
C184 C185 1.382 . S
C184 H209 0.950 . S
C185 N180 1.332 . S
C185 C184 1.382 . S
C185 H195 0.948 . S
N186 Co164 2.282 . S
N186 C190 1.332 . S
N186 C191 1.332 . S
C187 C188 1.388 . S
C187 C191 1.382 . S
C187 H210 0.950 . S
C188 C187 1.388 . S
C188 C189 1.386 . S
C189 C188 1.386 . S
C189 C190 1.382 . S
C189 H211 0.950 . S
C190 N186 1.332 . S
C190 C189 1.382 . S
C190 H192 0.952 . S
C191 N186 1.332 . S
C191 C187 1.382 . S
C191 H193 0.948 . S
H192 C190 0.952 . S
H193 C191 0.948 . S
H194 C183 0.952 . S
H195 C185 0.948 . S
C196 C162 1.395 . S
C196 C166 1.391 . S
C197 C159 1.389 . S
C197 C179 1.392 . S
C198 C169 1.392 . S
C198 C171 1.389 . S
C199 C174 1.395 . S
C199 C176 1.391 . S
H200 C160 0.951 . S
H201 C161 0.950 . S
H202 C167 0.949 . S
H203 C168 0.950 . S
H204 C172 0.951 . S
H205 C173 0.950 . S
H206 C177 0.949 . S
H207 C178 0.950 . S
H208 C182 0.950 . S
H209 C184 0.950 . S
H210 C187 0.950 . S
H211 C189 0.950 . S
C212 C213 1.443 . S
C212 N216 1.376 . S
C212 C250 1.389 . S
C213 C212 1.443 . S
C213 C214 1.340 . S
C213 H253 0.951 . S
C214 C213 1.340 . S
C214 C215 1.439 . S
C214 H254 0.950 . S
C215 C214 1.439 . S
C215 N216 1.374 . S
C215 C249 1.395 . S
N216 C212 1.376 . S
N216 C215 1.374 . S
N216 Co217 2.008 . S
Co217 N216 2.008 . S
Co217 N218 1.995 . S
Co217 N223 2.008 . S
Co217 N228 1.995 . S
Co217 N233 2.282 . S
Co217 N239 2.282 . S
N218 Co217 1.995 . S
N218 C219 1.376 . S
N218 C222 1.383 . S
C219 N218 1.376 . S
C219 C220 1.446 . S
C219 C249 1.391 . S
C220 C219 1.446 . S
C220 C221 1.339 . S
C220 H255 0.949 . S
C221 C220 1.339 . S
C221 C222 1.439 . S
C221 H256 0.950 . S
C222 N218 1.383 . S
C222 C221 1.439 . S
C222 C251 1.392 . S
N223 Co217 2.008 . S
N223 C224 1.376 . S
N223 C227 1.374 . S
C224 N223 1.376 . S
C224 C225 1.443 . S
C224 C251 1.389 . S
C225 C224 1.443 . S
C225 C226 1.340 . S
C225 H257 0.951 . S
C226 C225 1.340 . S
C226 C227 1.439 . S
C226 H258 0.950 . S
C227 N223 1.374 . S
C227 C226 1.439 . S
C227 C252 1.395 . S
N228 Co217 1.995 . S
N228 C229 1.376 . S
N228 C232 1.383 . S
C229 N228 1.376 . S
C229 C230 1.446 . S
C229 C252 1.391 . S
C230 C229 1.446 . S
C230 C231 1.339 . S
C230 H259 0.949 . S
C231 C230 1.339 . S
C231 C232 1.439 . S
C231 H260 0.950 . S
C232 N228 1.383 . S
C232 C231 1.439 . S
C232 C250 1.392 . S
N233 Co217 2.282 . S
N233 C236 1.332 . S
N233 C238 1.332 . S
C234 C235 1.386 . S
C234 C237 1.388 . S
C235 C234 1.386 . S
C235 C236 1.382 . S
C235 H261 0.950 . S
C236 N233 1.332 . S
C236 C235 1.382 . S
C236 H247 0.952 . S
C237 C234 1.388 . S
C237 C238 1.382 . S
C237 H262 0.950 . S
C238 N233 1.332 . S
C238 C237 1.382 . S
C238 H248 0.948 . S
N239 Co217 2.282 . S
N239 C243 1.332 . S
N239 C244 1.332 . S
C240 C241 1.388 . S
C240 C244 1.382 . S
C240 H263 0.950 . S
C241 C240 1.388 . S
C241 C242 1.386 . S
C242 C241 1.386 . S
C242 C243 1.382 . S
C242 H264 0.950 . S
C243 N239 1.332 . S
C243 C242 1.382 . S
C243 H245 0.952 . S
C244 N239 1.332 . S
C244 C240 1.382 . S
C244 H246 0.948 . S
H245 C243 0.952 . S
H246 C244 0.948 . S
H247 C236 0.952 . S
H248 C238 0.948 . S
C249 C215 1.395 . S
C249 C219 1.391 . S
C250 C212 1.389 . S
C250 C232 1.392 . S
C251 C222 1.392 . S
C251 C224 1.389 . S
C252 C227 1.395 . S
C252 C229 1.391 . S
H253 C213 0.951 . S
H254 C214 0.950 . S
H255 C220 0.949 . S
H256 C221 0.950 . S
H257 C225 0.951 . S
H258 C226 0.950 . S
H259 C230 0.949 . S
H260 C231 0.950 . S
H261 C235 0.950 . S
H262 C237 0.950 . S
H263 C240 0.950 . S
H264 C242 0.950 . S
C265 C266 1.443 . S
C265 N269 1.376 . S
C265 C303 1.389 . S
C266 C265 1.443 . S
C266 C267 1.340 . S
C266 H306 0.951 . S
C267 C266 1.340 . S
C267 C268 1.439 . S
C267 H307 0.950 . S
C268 C267 1.439 . S
C268 N269 1.374 . S
C268 C302 1.395 . S
N269 C265 1.376 . S
N269 C268 1.374 . S
N269 Co270 2.008 . S
Co270 N269 2.008 . S
Co270 N271 1.995 . S
Co270 N276 2.008 . S
Co270 N281 1.995 . S
Co270 N286 2.282 1_655 S
Co270 N292 2.282 . S
N271 Co270 1.995 . S
N271 C272 1.376 . S
N271 C275 1.383 . S
C272 N271 1.376 . S
C272 C273 1.446 . S
C272 C302 1.391 . S
C273 C272 1.446 . S
C273 C274 1.339 . S
C273 H308 0.949 . S
C274 C273 1.339 . S
C274 C275 1.439 . S
C274 H309 0.950 . S
C275 N271 1.383 . S
C275 C274 1.439 . S
C275 C304 1.392 . S
N276 Co270 2.008 . S
N276 C277 1.376 . S
N276 C280 1.374 . S
C277 N276 1.376 . S
C277 C278 1.443 . S
C277 C304 1.389 . S
C278 C277 1.443 . S
C278 C279 1.340 . S
C278 H310 0.951 . S
C279 C278 1.340 . S
C279 C280 1.439 . S
C279 H311 0.950 . S
C280 N276 1.374 . S
C280 C279 1.439 . S
C280 C305 1.395 . S
N281 Co270 1.995 . S
N281 C282 1.376 . S
N281 C285 1.383 1_655 S
C282 N281 1.376 . S
C282 C283 1.446 1_655 S
C282 C305 1.391 . S
C283 C282 1.446 1_455 S
C283 C284 1.339 . S
C283 H312 0.949 . S
C284 C283 1.339 . S
C284 C285 1.439 . S
C284 H313 0.950 . S
C285 N281 1.383 1_455 S
C285 C284 1.439 . S
C285 C303 1.392 1_455 S
N286 Co270 2.282 1_455 S
N286 C289 1.332 . S
N286 C291 1.332 . S
C287 C288 1.386 . S
C287 C290 1.388 . S
C288 C287 1.386 . S
C288 C289 1.382 . S
C288 H314 0.950 . S
C289 N286 1.332 . S
C289 C288 1.382 . S
C289 H300 0.952 . S
C290 C287 1.388 . S
C290 C291 1.382 . S
C290 H315 0.950 . S
C291 N286 1.332 . S
C291 C290 1.382 . S
C291 H301 0.948 1_455 S
N292 Co270 2.282 . S
N292 C296 1.332 . S
N292 C297 1.332 . S
C293 C294 1.388 . S
C293 C297 1.382 . S
C293 H316 0.950 . S
C294 C293 1.388 . S
C294 C295 1.386 . S
C295 C294 1.386 . S
C295 C296 1.382 . S
C295 H317 0.950 . S
C296 N292 1.332 . S
C296 C295 1.382 . S
C296 H298 0.952 . S
C297 N292 1.332 . S
C297 C293 1.382 . S
C297 H299 0.948 . S
H298 C296 0.952 . S
H299 C297 0.948 . S
H300 C289 0.952 . S
H301 C291 0.948 1_655 S
C302 C268 1.395 . S
C302 C272 1.391 . S
C303 C265 1.389 . S
C303 C285 1.392 1_655 S
C304 C275 1.392 . S
C304 C277 1.389 . S
C305 C280 1.395 . S
C305 C282 1.391 . S
H306 C266 0.951 . S
H307 C267 0.950 . S
H308 C273 0.949 . S
H309 C274 0.950 . S
H310 C278 0.951 . S
H311 C279 0.950 . S
H312 C283 0.949 . S
H313 C284 0.950 . S
H314 C288 0.950 . S
H315 C290 0.950 . S
H316 C293 0.950 . S
H317 C295 0.950 . S
C318 C319 1.443 . S
C318 N322 1.376 . S
C318 C356 1.389 . S
C319 C318 1.443 . S
C319 C320 1.340 . S
C319 H359 0.951 . S
C320 C319 1.340 . S
C320 C321 1.439 . S
C320 H360 0.950 . S
C321 C320 1.439 . S
C321 N322 1.374 . S
C321 C355 1.395 . S
N322 C318 1.376 . S
N322 C321 1.374 . S
N322 Co323 2.008 . S
Co323 N322 2.008 . S
Co323 N324 1.995 . S
Co323 N329 2.008 . S
Co323 N334 1.995 . S
Co323 N339 2.282 . S
Co323 N345 2.282 . S
N324 Co323 1.995 . S
N324 C325 1.376 . S
N324 C328 1.383 . S
C325 N324 1.376 . S
C325 C326 1.446 . S
C325 C355 1.391 . S
C326 C325 1.446 . S
C326 C327 1.339 . S
C326 H361 0.949 . S
C327 C326 1.339 . S
C327 C328 1.439 . S
C327 H362 0.950 . S
C328 N324 1.383 . S
C328 C327 1.439 . S
C328 C357 1.392 . S
N329 Co323 2.008 . S
N329 C330 1.376 . S
N329 C333 1.374 . S
C330 N329 1.376 . S
C330 C331 1.443 . S
C330 C357 1.389 . S
C331 C330 1.443 . S
C331 C332 1.340 . S
C331 H363 0.951 . S
C332 C331 1.340 . S
C332 C333 1.439 . S
C332 H364 0.950 . S
C333 N329 1.374 . S
C333 C332 1.439 . S
C333 C358 1.395 . S
N334 Co323 1.995 . S
N334 C335 1.376 . S
N334 C338 1.383 . S
C335 N334 1.376 . S
C335 C336 1.446 . S
C335 C358 1.391 . S
C336 C335 1.446 . S
C336 C337 1.339 . S
C336 H365 0.949 . S
C337 C336 1.339 . S
C337 C338 1.439 . S
C337 H366 0.950 . S
C338 N334 1.383 . S
C338 C337 1.439 . S
C338 C356 1.392 . S
N339 Co323 2.282 . S
N339 C342 1.332 . S
N339 C344 1.332 . S
C340 C341 1.386 . S
C340 C343 1.388 . S
C341 C340 1.386 . S
C341 C342 1.382 . S
C341 H367 0.950 . S
C342 N339 1.332 . S
C342 C341 1.382 . S
C342 H353 0.952 . S
C343 C340 1.388 . S
C343 C344 1.382 . S
C343 H368 0.950 . S
C344 N339 1.332 . S
C344 C343 1.382 . S
C344 H354 0.948 . S
N345 Co323 2.282 . S
N345 C349 1.332 . S
N345 C350 1.332 . S
C346 C347 1.388 . S
C346 C350 1.382 . S
C346 H369 0.950 . S
C347 C346 1.388 . S
C347 C348 1.386 . S
C348 C347 1.386 . S
C348 C349 1.382 . S
C348 H370 0.950 . S
C349 N345 1.332 . S
C349 C348 1.382 . S
C349 H351 0.952 . S
C350 N345 1.332 . S
C350 C346 1.382 . S
C350 H352 0.948 . S
H351 C349 0.952 . S
H352 C350 0.948 . S
H353 C342 0.952 . S
H354 C344 0.948 . S
C355 C321 1.395 . S
C355 C325 1.391 . S
C356 C318 1.389 . S
C356 C338 1.392 . S
C357 C328 1.392 . S
C357 C330 1.389 . S
C358 C333 1.395 . S
C358 C335 1.391 . S
H359 C319 0.951 . S
H360 C320 0.950 . S
H361 C326 0.949 . S
H362 C327 0.950 . S
H363 C331 0.951 . S
H364 C332 0.950 . S
H365 C336 0.949 . S
H366 C337 0.950 . S
H367 C341 0.950 . S
H368 C343 0.950 . S
H369 C346 0.950 . S
H370 C348 0.950 . S
C371 C372 1.443 1_455 S
C371 N375 1.376 . S
C371 C409 1.389 . S
C372 C371 1.443 1_655 S
C372 C373 1.340 1_655 S
C372 H412 0.951 . S
C373 C372 1.340 1_455 S
C373 C374 1.439 . S
C373 H413 0.950 1_455 S
C374 C373 1.439 . S
C374 N375 1.374 . S
C374 C408 1.395 . S
N375 C371 1.376 . S
N375 C374 1.374 . S
N375 Co376 2.008 . S
Co376 N375 2.008 . S
Co376 N377 1.995 . S
Co376 N382 2.008 . S
Co376 N387 1.995 . S
Co376 N392 2.282 1_455 S
Co376 N398 2.282 . S
N377 Co376 1.995 . S
N377 C378 1.376 . S
N377 C381 1.383 . S
C378 N377 1.376 . S
C378 C379 1.446 . S
C378 C408 1.391 . S
C379 C378 1.446 . S
C379 C380 1.339 . S
C379 H414 0.949 . S
C380 C379 1.339 . S
C380 C381 1.439 . S
C380 H415 0.950 . S
C381 N377 1.383 . S
C381 C380 1.439 . S
C381 C410 1.392 . S
N382 Co376 2.008 . S
N382 C383 1.376 . S
N382 C386 1.374 . S
C383 N382 1.376 . S
C383 C384 1.443 . S
C383 C410 1.389 . S
C384 C383 1.443 . S
C384 C385 1.340 . S
C384 H416 0.951 . S
C385 C384 1.340 . S
C385 C386 1.439 . S
C385 H417 0.950 . S
C386 N382 1.374 . S
C386 C385 1.439 . S
C386 C411 1.395 . S
N387 Co376 1.995 . S
N387 C388 1.376 . S
N387 C391 1.383 . S
C388 N387 1.376 . S
C388 C389 1.446 . S
C388 C411 1.391 . S
C389 C388 1.446 . S
C389 C390 1.339 . S
C389 H418 0.949 . S
C390 C389 1.339 . S
C390 C391 1.439 . S
C390 H419 0.943 1_455 S
C391 N387 1.383 . S
C391 C390 1.439 . S
C391 C409 1.392 . S
N392 Co376 2.282 1_655 S
N392 C395 1.332 . S
N392 C397 1.332 . S
C393 C394 1.386 . S
C393 C396 1.388 . S
C394 C393 1.386 . S
C394 C395 1.382 . S
C394 H420 0.950 . S
C395 N392 1.332 . S
C395 C394 1.382 . S
C395 H406 0.952 . S
C396 C393 1.388 . S
C396 C397 1.382 . S
C396 H421 0.950 . S
C397 N392 1.332 . S
C397 C396 1.382 . S
C397 H407 0.948 . S
N398 Co376 2.282 . S
N398 C402 1.332 . S
N398 C403 1.332 . S
C399 C400 1.388 . S
C399 C403 1.382 . S
C399 H422 0.950 . S
C400 C399 1.388 . S
C400 C401 1.386 . S
C401 C400 1.386 . S
C401 C402 1.382 . S
C401 H423 0.950 . S
C402 N398 1.332 . S
C402 C401 1.382 . S
C402 H404 0.952 . S
C403 N398 1.332 . S
C403 C399 1.382 . S
C403 H405 0.948 . S
H404 C402 0.952 . S
H405 C403 0.948 . S
H406 C395 0.952 . S
H407 C397 0.948 . S
C408 C374 1.395 . S
C408 C378 1.391 . S
C409 C371 1.389 . S
C409 C391 1.392 . S
C410 C381 1.392 . S
C410 C383 1.389 . S
C411 C386 1.395 . S
C411 C388 1.391 . S
H412 C372 0.951 . S
H413 C373 0.950 1_655 S
H414 C379 0.949 . S
H415 C380 0.950 . S
H416 C384 0.951 . S
H417 C385 0.950 . S
H418 C389 0.949 . S
H419 C390 0.943 1_655 S
H420 C394 0.950 . S
H421 C396 0.950 . S
H422 C399 0.950 . S
H423 C401 0.950 . S
H424 C432 0.929 . S
H425 C434 0.930 . S
H426 C436 0.930 . S
H427 C439 0.929 . S
H428 C442 0.930 . S
H429 C444 0.960 . S
H430 C444 0.960 1_655 S
H431 C444 0.960 . S
C432 H424 0.929 . S
C432 C433 1.377 . S
C432 C434 1.384 . S
C433 C432 1.377 . S
C433 C439 1.390 1_655 S
C434 H425 0.930 . S
C434 C432 1.384 . S
C434 C435 1.372 . S
C435 C434 1.372 . S
C435 C436 1.400 1_655 S
C435 C440 1.490 . S
C436 H426 0.930 . S
C436 C435 1.400 1_455 S
C436 C439 1.386 . S
H437 C453 0.930 . S
H438 C454 0.931 . S
C439 H427 0.929 . S
C439 C433 1.390 1_455 S
C439 C436 1.386 . S
C440 C435 1.490 . S
C440 C442 1.395 . S
C440 C443 1.403 1_655 S
H441 C447 0.930 . S
C442 H428 0.930 . S
C442 C440 1.395 . S
C442 C445 1.403 . S
C443 C440 1.403 1_455 S
C443 C444 1.524 . S
C443 C447 1.400 . S
C444 H429 0.960 . S
C444 H430 0.960 1_455 S
C444 H431 0.960 . S
C444 C443 1.524 . S
C445 C442 1.403 . S
C445 C446 1.392 . S
C445 C449 1.495 . S
C446 C445 1.392 . S
C446 C447 1.385 1_655 S
C446 C448 1.478 1_655 S
C447 H441 0.930 . S
C447 C443 1.400 . S
C447 C446 1.385 1_455 S
C448 C446 1.478 1_455 S
C448 C450 1.381 1_455 S
C448 C454 1.383 . S
C449 C445 1.495 . S
C449 H455 0.959 . S
C449 H456 0.961 1_655 S
C449 H457 0.960 . S
C450 C448 1.381 1_655 S
C450 C451 1.394 . S
C450 H458 0.930 . S
C451 C450 1.394 . S
C451 C452 1.383 1_655 S
C451 H459 0.929 . S
C452 C451 1.383 1_455 S
C452 C453 1.377 . S
C453 H437 0.930 . S
C453 C452 1.377 . S
C453 C454 1.379 . S
C454 H438 0.931 . S
C454 C448 1.383 . S
C454 C453 1.379 . S
H455 C449 0.959 . S
H456 C449 0.961 1_455 S
H457 C449 0.960 . S
H458 C450 0.930 . S
H459 C451 0.929 . S
H460 C468 0.929 . S
H461 C470 0.930 . S
H462 C472 0.930 . S
H463 C475 0.929 . S
H464 C478 0.930 . S
H465 C480 0.960 . S
H466 C480 0.960 . S
H467 C480 0.960 . S
C468 H460 0.929 . S
C468 C469 1.377 . S
C468 C470 1.384 . S
C469 C468 1.377 . S
C469 C475 1.390 . S
C470 H461 0.930 . S
C470 C468 1.384 . S
C470 C471 1.372 . S
C471 C470 1.372 . S
C471 C472 1.400 . S
C471 C476 1.490 . S
C472 H462 0.930 . S
C472 C471 1.400 . S
C472 C475 1.386 . S
H473 C489 0.930 . S
H474 C490 0.931 . S
C475 H463 0.929 . S
C475 C469 1.390 . S
C475 C472 1.386 . S
C476 C471 1.490 . S
C476 C478 1.395 . S
C476 C479 1.403 . S
H477 C483 0.930 . S
C478 H464 0.930 . S
C478 C476 1.395 . S
C478 C481 1.403 . S
C479 C476 1.403 . S
C479 C480 1.524 . S
C479 C483 1.400 . S
C480 H465 0.960 . S
C480 H466 0.960 . S
C480 H467 0.960 . S
C480 C479 1.524 . S
C481 C478 1.403 . S
C481 C482 1.392 . S
C481 C485 1.495 . S
C482 C481 1.392 . S
C482 C483 1.385 . S
C482 C484 1.478 . S
C483 H477 0.930 . S
C483 C479 1.400 . S
C483 C482 1.385 . S
C484 C482 1.478 . S
C484 C486 1.381 . S
C484 C490 1.383 . S
C485 C481 1.495 . S
C485 H491 0.959 . S
C485 H492 0.961 . S
C485 H493 0.960 . S
C486 C484 1.381 . S
C486 C487 1.394 . S
C486 H494 0.930 . S
C487 C486 1.394 . S
C487 C488 1.383 . S
C487 H495 0.929 . S
C488 C487 1.383 . S
C488 C489 1.377 . S
C489 H473 0.930 . S
C489 C488 1.377 . S
C489 C490 1.379 . S
C490 H474 0.931 . S
C490 C484 1.383 . S
C490 C489 1.379 . S
H491 C485 0.959 . S
H492 C485 0.961 . S
H493 C485 0.960 . S
H494 C486 0.930 . S
H495 C487 0.929 . S
H496 C504 0.929 . S
H497 C506 0.930 . S
H498 C508 0.930 . S
H499 C511 0.929 . S
H500 C514 0.930 . S
H501 C516 0.960 . S
H502 C516 0.960 . S
H503 C516 0.960 . S
C504 H496 0.929 . S
C504 C505 1.377 . S
C504 C506 1.384 . S
C505 C504 1.377 . S
C505 C511 1.390 . S
C506 H497 0.930 . S
C506 C504 1.384 . S
C506 C507 1.372 . S
C507 C506 1.372 . S
C507 C508 1.400 . S
C507 C512 1.490 . S
C508 H498 0.930 . S
C508 C507 1.400 . S
C508 C511 1.386 . S
H509 C525 0.930 . S
H510 C526 0.931 . S
C511 H499 0.929 . S
C511 C505 1.390 . S
C511 C508 1.386 . S
C512 C507 1.490 . S
C512 C514 1.395 . S
C512 C515 1.403 . S
H513 C519 0.930 . S
C514 H500 0.930 . S
C514 C512 1.395 . S
C514 C517 1.403 1_544 S
C515 C512 1.403 . S
C515 C516 1.524 . S
C515 C519 1.400 1_544 S
C516 H501 0.960 . S
C516 H502 0.960 . S
C516 H503 0.960 . S
C516 C515 1.524 . S
C517 C514 1.403 1_566 S
C517 C518 1.392 . S
C517 C521 1.495 . S
C518 C517 1.392 . S
C518 C519 1.385 . S
C518 C520 1.478 . S
C519 H513 0.930 . S
C519 C515 1.400 1_566 S
C519 C518 1.385 . S
C520 C518 1.478 . S
C520 C522 1.381 . S
C520 C526 1.383 . S
C521 C517 1.495 . S
C521 H527 0.999 . S
C521 H528 0.961 . S
C521 H529 0.960 . S
C522 C520 1.381 . S
C522 C523 1.394 . S
C522 H530 0.930 . S
C523 C522 1.394 . S
C523 C524 1.383 . S
C523 H531 0.929 . S
C524 C523 1.383 . S
C524 C525 1.377 . S
C525 H509 0.930 . S
C525 C524 1.377 . S
C525 C526 1.379 . S
C526 H510 0.931 . S
C526 C520 1.383 . S
C526 C525 1.379 . S
H527 C521 0.999 . S
H528 C521 0.961 . S
H529 C521 0.960 . S
H530 C522 0.930 . S
H531 C523 0.929 . S
H532 C540 0.929 . S
H533 C542 0.930 . S
H534 C544 0.930 . S
H535 C547 0.929 . S
H536 C550 0.930 . S
H537 C552 0.960 . S
H538 C552 0.960 . S
H539 C552 0.960 . S
C540 H532 0.929 . S
C540 C541 1.377 . S
C540 C542 1.384 . S
C541 C540 1.377 . S
C541 C547 1.390 1_455 S
C542 H533 0.930 . S
C542 C540 1.384 . S
C542 C543 1.372 . S
C543 C542 1.372 . S
C543 C544 1.400 1_455 S
C543 C548 1.490 . S
C544 H534 0.930 . S
C544 C543 1.400 1_655 S
C544 C547 1.386 . S
H545 C561 0.930 . S
H546 C562 0.931 . S
C547 H535 0.929 . S
C547 C541 1.390 1_655 S
C547 C544 1.386 . S
C548 C543 1.490 . S
C548 C550 1.395 1_454 S
C548 C551 1.403 1_565 S
H549 C555 0.930 . S
C550 H536 0.930 . S
C550 C548 1.395 1_656 S
C550 C553 1.403 . S
C551 C548 1.403 1_545 S
C551 C552 1.524 . S
C551 C555 1.400 1_554 S
C552 H537 0.960 . S
C552 H538 0.960 . S
C552 H539 0.960 . S
C552 C551 1.524 . S
C553 C550 1.403 . S
C553 C554 1.392 1_565 S
C553 C557 1.495 . S
C554 C553 1.392 1_545 S
C554 C555 1.385 1_655 S
C554 C556 1.478 . S
C555 H549 0.930 . S
C555 C551 1.400 1_556 S
C555 C554 1.385 1_455 S
C556 C554 1.478 . S
C556 C558 1.381 1_655 S
C556 C562 1.383 . S
C557 C553 1.495 . S
C557 H563 0.959 . S
C557 H564 0.961 . S
C557 H565 0.960 . S
C558 C556 1.381 1_455 S
C558 C559 1.394 . S
C558 H566 0.930 . S
C559 C558 1.394 . S
C559 C560 1.383 1_455 S
C559 H567 0.929 . S
C560 C559 1.383 1_655 S
C560 C561 1.377 . S
C561 H545 0.930 . S
C561 C560 1.377 . S
C561 C562 1.379 . S
C562 H546 0.931 . S
C562 C556 1.383 . S
C562 C561 1.379 . S
H563 C557 0.959 . S
H564 C557 0.961 . S
H565 C557 0.960 . S
H566 C558 0.930 . S
H567 C559 0.929 . S
H568 C576 0.929 . S
H569 C578 0.930 . S
H570 C580 0.930 . S
H571 C583 0.929 . S
H572 C586 0.930 . S
H573 C588 0.960 . S
H574 C588 0.960 . S
H575 C588 0.960 . S
C576 H568 0.929 . S
C576 C577 1.377 . S
C576 C578 1.384 . S
C577 C576 1.377 . S
C577 C583 1.390 . S
C578 H569 0.930 . S
C578 C576 1.384 . S
C578 C579 1.372 . S
C579 C578 1.372 . S
C579 C580 1.400 . S
C579 C584 1.490 . S
C580 H570 0.930 . S
C580 C579 1.400 . S
C580 C583 1.386 . S
H581 C597 0.930 . S
H582 C598 0.931 . S
C583 H571 0.929 . S
C583 C577 1.390 . S
C583 C580 1.386 . S
C584 C579 1.490 . S
C584 C586 1.395 . S
C584 C587 1.403 . S
H585 C591 0.930 . S
C586 H572 0.930 . S
C586 C584 1.395 . S
C586 C589 1.403 . S
C587 C584 1.403 . S
C587 C588 1.524 . S
C587 C591 1.400 . S
C588 H573 0.960 . S
C588 H574 0.960 . S
C588 H575 0.960 . S
C588 C587 1.524 . S
C589 C586 1.403 . S
C589 C590 1.392 . S
C589 C593 1.495 . S
C590 C589 1.392 . S
C590 C591 1.385 . S
C590 C592 1.478 . S
C591 H585 0.930 . S
C591 C587 1.400 . S
C591 C590 1.385 . S
C592 C590 1.478 . S
C592 C594 1.381 . S
C592 C598 1.383 . S
C593 C589 1.495 . S
C593 H599 0.959 . S
C593 H600 0.961 . S
C593 H601 0.960 . S
C594 C592 1.381 . S
C594 C595 1.394 . S
C594 H602 0.930 . S
C595 C594 1.394 . S
C595 C596 1.383 . S
C595 H603 0.929 . S
C596 C595 1.383 . S
C596 C597 1.377 . S
C597 H581 0.930 . S
C597 C596 1.377 . S
C597 C598 1.379 . S
C598 H582 0.931 . S
C598 C592 1.383 . S
C598 C597 1.379 . S
H599 C593 0.959 . S
H600 C593 0.961 . S
H601 C593 0.960 . S
H602 C594 0.930 . S
H603 C595 0.929 . S
H604 C612 0.929 . S
H605 C614 0.930 . S
H606 C616 0.930 . S
H607 C619 0.929 . S
H608 C622 0.930 . S
H609 C624 0.960 . S
H610 C624 0.960 . S
H611 C624 0.960 . S
C612 H604 0.929 . S
C612 C613 1.377 . S
C612 C614 1.384 . S
C613 C612 1.377 . S
C613 C619 1.390 . S
C614 H605 0.930 . S
C614 C612 1.384 . S
C614 C615 1.372 . S
C615 C614 1.372 . S
C615 C616 1.400 . S
C615 C620 1.490 . S
C616 H606 0.930 . S
C616 C615 1.400 . S
C616 C619 1.386 . S
H617 C633 0.930 . S
H618 C634 0.931 . S
C619 H607 0.929 . S
C619 C613 1.390 . S
C619 C616 1.386 . S
C620 C615 1.490 . S
C620 C622 1.395 . S
C620 C623 1.403 . S
H621 C627 0.930 . S
C622 H608 0.930 . S
C622 C620 1.395 . S
C622 C625 1.403 . S
C623 C620 1.403 . S
C623 C624 1.524 . S
C623 C627 1.400 . S
C624 H609 0.960 . S
C624 H610 0.960 . S
C624 H611 0.960 . S
C624 C623 1.524 . S
C625 C622 1.403 . S
C625 C626 1.392 . S
C625 C629 1.495 . S
C626 C625 1.392 . S
C626 C627 1.385 . S
C626 C628 1.478 . S
C627 H621 0.930 . S
C627 C623 1.400 . S
C627 C626 1.385 . S
C628 C626 1.478 . S
C628 C630 1.381 . S
C628 C634 1.383 . S
C629 C625 1.495 . S
C629 H635 0.959 . S
C629 H636 0.961 . S
C629 H637 0.960 . S
C630 C628 1.381 . S
C630 C631 1.394 . S
C630 H638 0.930 . S
C631 C630 1.394 . S
C631 C632 1.383 . S
C631 H639 0.929 . S
C632 C631 1.383 . S
C632 C633 1.377 . S
C633 H617 0.930 . S
C633 C632 1.377 . S
C633 C634 1.379 . S
C634 H618 0.931 . S
C634 C628 1.383 . S
C634 C633 1.379 . S
H635 C629 0.959 . S
H636 C629 0.961 . S
H637 C629 0.960 . S
H638 C630 0.930 . S
H639 C631 0.929 . S
H640 C648 0.929 . S
H641 C650 0.930 . S
H642 C652 0.930 . S
H643 C655 0.929 . S
H644 C658 0.930 . S
H645 C660 0.960 . S
H646 C660 0.960 . S
H647 C660 0.960 . S
C648 H640 0.929 . S
C648 C649 1.377 . S
C648 C650 1.384 . S
C649 C648 1.377 . S
C649 C655 1.390 . S
C650 H641 0.930 . S
C650 C648 1.384 . S
C650 C651 1.372 . S
C651 C650 1.372 . S
C651 C652 1.400 . S
C651 C656 1.490 . S
C652 H642 0.930 . S
C652 C651 1.400 . S
C652 C655 1.386 . S
H653 C669 0.930 . S
H654 C670 0.931 . S
C655 H643 0.929 . S
C655 C649 1.390 . S
C655 C652 1.386 . S
C656 C651 1.490 . S
C656 C658 1.395 . S
C656 C659 1.403 . S
H657 C663 0.930 . S
C658 H644 0.930 . S
C658 C656 1.395 . S
C658 C661 1.403 . S
C659 C656 1.403 . S
C659 C660 1.524 . S
C659 C663 1.400 . S
C660 H645 0.960 . S
C660 H646 0.960 . S
C660 H647 0.960 . S
C660 C659 1.524 . S
C661 C658 1.403 . S
C661 C662 1.392 . S
C661 C665 1.495 . S
C662 C661 1.392 . S
C662 C663 1.385 . S
C662 C664 1.478 . S
C663 H657 0.930 . S
C663 C659 1.400 . S
C663 C662 1.385 . S
C664 C662 1.478 . S
C664 C666 1.381 . S
C664 C670 1.383 . S
C665 C661 1.495 . S
C665 H671 0.959 . S
C665 H672 0.961 . S
C665 H673 0.960 . S
C666 C664 1.381 . S
C666 C667 1.394 . S
C666 H674 0.930 . S
C667 C666 1.394 . S
C667 C668 1.383 . S
C667 H675 0.929 . S
C668 C667 1.383 . S
C668 C669 1.377 . S
C669 H653 0.930 . S
C669 C668 1.377 . S
C669 C670 1.379 . S
C670 H654 0.931 . S
C670 C664 1.383 . S
C670 C669 1.379 . S
H671 C665 0.959 . S
H672 C665 0.961 . S
H673 C665 0.960 . S
H674 C666 0.930 . S
H675 C667 0.929 . S
H676 C684 0.929 . S
H677 C686 0.930 . S
H678 C688 0.930 . S
H679 C691 0.929 . S
H680 C694 0.930 . S
H681 C696 0.960 . S
H682 C696 0.960 . S
H683 C696 0.960 . S
C684 H676 0.929 . S
C684 C685 1.377 . S
C684 C686 1.384 . S
C685 C684 1.377 . S
C685 C691 1.390 . S
C686 H677 0.930 . S
C686 C684 1.384 . S
C686 C687 1.372 . S
C687 C686 1.372 . S
C687 C688 1.400 . S
C687 C692 1.490 . S
C688 H678 0.930 . S
C688 C687 1.400 . S
C688 C691 1.386 . S
H689 C705 0.930 . S
H690 C706 0.931 . S
C691 H679 0.929 . S
C691 C685 1.390 . S
C691 C688 1.386 . S
C692 C687 1.490 . S
C692 C694 1.395 . S
C692 C695 1.403 . S
H693 C699 0.930 . S
C694 H680 0.930 . S
C694 C692 1.395 . S
C694 C697 1.403 . S
C695 C692 1.403 . S
C695 C696 1.524 . S
C695 C699 1.400 . S
C696 H681 0.960 . S
C696 H682 0.960 . S
C696 H683 0.960 . S
C696 C695 1.524 . S
C697 C694 1.403 . S
C697 C698 1.392 . S
C697 C701 1.495 . S
C698 C697 1.392 . S
C698 C699 1.385 . S
C698 C700 1.478 . S
C699 H693 0.930 . S
C699 C695 1.400 . S
C699 C698 1.385 . S
C700 C698 1.478 . S
C700 C702 1.381 . S
C700 C706 1.383 . S
C701 C697 1.495 . S
C701 H707 0.959 . S
C701 H708 0.961 . S
C701 H709 0.960 . S
C702 C700 1.381 . S
C702 C703 1.394 . S
C702 H710 0.930 . S
C703 C702 1.394 . S
C703 C704 1.383 . S
C703 H711 0.929 . S
C704 C703 1.383 . S
C704 C705 1.377 . S
C705 H689 0.930 . S
C705 C704 1.377 . S
C705 C706 1.379 . S
C706 H690 0.931 . S
C706 C700 1.383 . S
C706 C705 1.379 . S
H707 C701 0.959 . S
H708 C701 0.961 . S
H709 C701 0.960 . S
H710 C702 0.930 . S
H711 C703 0.929 . S
H712 C720 0.929 . S
H713 C722 0.930 . S
H714 C724 0.930 . S
H715 C727 0.929 . S
H716 C730 0.930 . S
H717 C732 0.960 . S
H718 C732 0.960 . S
H719 C732 0.960 . S
C720 H712 0.929 . S
C720 C721 1.377 . S
C720 C722 1.384 . S
C721 C720 1.377 . S
C721 C727 1.390 . S
C722 H713 0.930 . S
C722 C720 1.384 . S
C722 C723 1.372 . S
C723 C722 1.372 . S
C723 C724 1.400 . S
C723 C728 1.490 . S
C724 H714 0.930 . S
C724 C723 1.400 . S
C724 C727 1.386 . S
H725 C741 0.930 . S
H726 C742 0.931 . S
C727 H715 0.929 . S
C727 C721 1.390 . S
C727 C724 1.386 . S
C728 C723 1.490 . S
C728 C730 1.395 . S
C728 C731 1.403 . S
H729 C735 0.930 . S
C730 H716 0.930 . S
C730 C728 1.395 . S
C730 C733 1.403 . S
C731 C728 1.403 . S
C731 C732 1.524 . S
C731 C735 1.400 . S
C732 H717 0.960 . S
C732 H718 0.960 . S
C732 H719 0.960 . S
C732 C731 1.524 . S
C733 C730 1.403 . S
C733 C734 1.392 . S
C733 C737 1.495 . S
C734 C733 1.392 . S
C734 C735 1.385 . S
C734 C736 1.478 . S
C735 H729 0.930 . S
C735 C731 1.400 . S
C735 C734 1.385 . S
C736 C734 1.478 . S
C736 C738 1.381 . S
C736 C742 1.383 . S
C737 C733 1.495 . S
C737 H743 0.959 . S
C737 H744 0.961 . S
C737 H745 0.960 . S
C738 C736 1.381 . S
C738 C739 1.394 . S
C738 H746 0.930 . S
C739 C738 1.394 . S
C739 C740 1.383 . S
C739 H747 0.929 . S
C740 C739 1.383 . S
C740 C741 1.377 . S
C741 H725 0.930 . S
C741 C740 1.377 . S
C741 C742 1.379 . S
C742 H726 0.931 . S
C742 C736 1.383 . S
C742 C741 1.379 . S
H743 C737 0.959 . S
H744 C737 0.961 . S
H745 C737 0.960 . S
H746 C738 0.930 . S
H747 C739 0.929 . S
H748 C756 0.929 . S
H749 C758 0.930 . S
H750 C760 0.930 . S
H751 C763 0.929 . S
H752 C766 0.930 . S
H753 C768 0.960 . S
H754 C768 0.960 . S
H755 C768 0.960 . S
C756 H748 0.929 . S
C756 C757 1.377 . S
C756 C758 1.384 . S
C757 C756 1.377 . S
C757 C763 1.390 . S
C758 H749 0.930 . S
C758 C756 1.384 . S
C758 C759 1.372 . S
C759 C758 1.372 . S
C759 C760 1.400 . S
C759 C764 1.490 . S
C760 H750 0.930 . S
C760 C759 1.400 . S
C760 C763 1.386 . S
H761 C777 0.930 . S
H762 C778 0.931 . S
C763 H751 0.929 . S
C763 C757 1.390 . S
C763 C760 1.386 . S
C764 C759 1.490 . S
C764 C766 1.395 . S
C764 C767 1.403 . S
H765 C771 0.930 . S
C766 H752 0.930 . S
C766 C764 1.395 . S
C766 C769 1.403 . S
C767 C764 1.403 . S
C767 C768 1.524 . S
C767 C771 1.400 . S
C768 H753 0.960 . S
C768 H754 0.960 . S
C768 H755 0.960 . S
C768 C767 1.524 . S
C769 C766 1.403 . S
C769 C770 1.392 . S
C769 C773 1.495 . S
C770 C769 1.392 . S
C770 C771 1.385 . S
C770 C772 1.478 . S
C771 H765 0.930 . S
C771 C767 1.400 . S
C771 C770 1.385 . S
C772 C770 1.478 . S
C772 C774 1.381 . S
C772 C778 1.383 . S
C773 C769 1.495 . S
C773 H779 0.959 . S
C773 H780 0.961 . S
C773 H781 0.960 . S
C774 C772 1.381 . S
C774 C775 1.394 . S
C774 H782 0.930 . S
C775 C774 1.394 . S
C775 C776 1.383 . S
C775 H783 0.929 . S
C776 C775 1.383 . S
C776 C777 1.377 . S
C777 H761 0.930 . S
C777 C776 1.377 . S
C777 C778 1.379 . S
C778 H762 0.931 . S
C778 C772 1.383 . S
C778 C777 1.379 . S
H779 C773 0.959 . S
H780 C773 0.961 . S
H781 C773 0.960 . S
H782 C774 0.930 . S
H783 C775 0.929 . S
H784 C792 0.929 . S
H785 C794 0.930 . S
H786 C796 0.930 . S
H787 C799 0.929 . S
H788 C802 0.930 . S
H789 C804 0.960 . S
H790 C804 0.960 . S
H791 C804 0.960 . S
C792 H784 0.929 . S
C792 C793 1.377 . S
C792 C794 1.384 . S
C793 C792 1.377 . S
C793 C799 1.390 . S
C794 H785 0.930 . S
C794 C792 1.384 . S
C794 C795 1.372 . S
C795 C794 1.372 . S
C795 C796 1.400 . S
C795 C800 1.490 . S
C796 H786 0.930 . S
C796 C795 1.400 . S
C796 C799 1.386 . S
H797 C813 0.930 . S
H798 C814 0.931 . S
C799 H787 0.929 . S
C799 C793 1.390 . S
C799 C796 1.386 . S
C800 C795 1.490 . S
C800 C802 1.395 . S
C800 C803 1.403 . S
H801 C807 0.930 . S
C802 H788 0.930 . S
C802 C800 1.395 . S
C802 C805 1.403 . S
C803 C800 1.403 . S
C803 C804 1.524 . S
C803 C807 1.400 . S
C804 H789 0.960 . S
C804 H790 0.960 . S
C804 H791 0.960 . S
C804 C803 1.524 . S
C805 C802 1.403 . S
C805 C806 1.392 . S
C805 C809 1.495 . S
C806 C805 1.392 . S
C806 C807 1.385 . S
C806 C808 1.478 . S
C807 H801 0.930 . S
C807 C803 1.400 . S
C807 C806 1.385 . S
C808 C806 1.478 . S
C808 C810 1.381 . S
C808 C814 1.383 . S
C809 C805 1.495 . S
C809 H815 0.959 . S
C809 H816 0.961 . S
C809 H817 0.960 . S
C810 C808 1.381 . S
C810 C811 1.394 . S
C810 H818 0.930 . S
C811 C810 1.394 . S
C811 C812 1.383 . S
C811 H819 0.929 . S
C812 C811 1.383 . S
C812 C813 1.377 . S
C813 H797 0.930 . S
C813 C812 1.377 . S
C813 C814 1.379 . S
C814 H798 0.931 . S
C814 C808 1.383 . S
C814 C813 1.379 . S
H815 C809 0.959 . S
H816 C809 0.961 . S
H817 C809 0.960 . S
H818 C810 0.930 . S
H819 C811 0.929 . S
H820 C828 0.929 . S
H821 C830 0.930 . S
H822 C832 0.930 . S
H823 C835 0.929 . S
H824 C838 0.930 . S
H825 C840 0.960 . S
H826 C840 0.960 . S
H827 C840 0.960 . S
C828 H820 0.929 . S
C828 C829 1.377 . S
C828 C830 1.384 . S
C829 C828 1.377 . S
C829 C835 1.390 . S
C830 H821 0.930 . S
C830 C828 1.384 . S
C830 C831 1.372 . S
C831 C830 1.372 . S
C831 C832 1.400 . S
C831 C836 1.490 . S
C832 H822 0.930 . S
C832 C831 1.400 . S
C832 C835 1.386 . S
H833 C849 0.930 . S
H834 C850 0.931 . S
C835 H823 0.929 . S
C835 C829 1.390 . S
C835 C832 1.386 . S
C836 C831 1.490 . S
C836 C838 1.395 . S
C836 C839 1.403 . S
H837 C843 0.930 . S
C838 H824 0.930 . S
C838 C836 1.395 . S
C838 C841 1.403 . S
C839 C836 1.403 . S
C839 C840 1.524 . S
C839 C843 1.400 . S
C840 H825 0.960 . S
C840 H826 0.960 . S
C840 H827 0.960 . S
C840 C839 1.524 . S
C841 C838 1.403 . S
C841 C842 1.392 . S
C841 C845 1.495 . S
C842 C841 1.392 . S
C842 C843 1.385 . S
C842 C844 1.478 . S
C843 H837 0.930 . S
C843 C839 1.400 . S
C843 C842 1.385 . S
C844 C842 1.478 . S
C844 C846 1.381 . S
C844 C850 1.383 . S
C845 C841 1.495 . S
C845 H851 0.959 . S
C845 H852 0.961 . S
C845 H853 0.960 . S
C846 C844 1.381 . S
C846 C847 1.394 . S
C846 H854 0.930 . S
C847 C846 1.394 . S
C847 C848 1.383 . S
C847 H855 0.929 . S
C848 C847 1.383 . S
C848 C849 1.377 . S
C849 H833 0.930 . S
C849 C848 1.377 . S
C849 C850 1.379 . S
C850 H834 0.931 . S
C850 C844 1.383 . S
C850 C849 1.379 . S
H851 C845 0.959 . S
H852 C845 0.961 . S
H853 C845 0.960 . S
H854 C846 0.930 . S
H855 C847 0.929 . S
H856 C864 0.929 . S
H857 C866 0.930 . S
H858 C868 0.930 . S
H859 C871 0.929 . S
H860 C874 0.930 . S
H861 C876 0.960 . S
H862 C876 0.960 . S
H863 C876 0.960 . S
C864 H856 0.929 . S
C864 C865 1.377 . S
C864 C866 1.384 . S
C865 C864 1.377 . S
C865 C871 1.390 . S
C866 H857 0.930 . S
C866 C864 1.384 . S
C866 C867 1.372 . S
C867 C866 1.372 . S
C867 C868 1.400 . S
C867 C872 1.490 . S
C868 H858 0.930 . S
C868 C867 1.400 . S
C868 C871 1.386 . S
H869 C885 0.930 . S
H870 C886 0.931 . S
C871 H859 0.929 . S
C871 C865 1.390 . S
C871 C868 1.386 . S
C872 C867 1.490 . S
C872 C874 1.395 . S
C872 C875 1.403 . S
H873 C879 0.930 . S
C874 H860 0.930 . S
C874 C872 1.395 . S
C874 C877 1.403 . S
C875 C872 1.403 . S
C875 C876 1.524 . S
C875 C879 1.400 . S
C876 H861 0.960 . S
C876 H862 0.960 . S
C876 H863 0.960 . S
C876 C875 1.524 . S
C877 C874 1.403 . S
C877 C878 1.392 . S
C877 C881 1.495 . S
C878 C877 1.392 . S
C878 C879 1.385 . S
C878 C880 1.478 . S
C879 H873 0.930 . S
C879 C875 1.400 . S
C879 C878 1.385 . S
C880 C878 1.478 . S
C880 C882 1.381 . S
C880 C886 1.383 . S
C881 C877 1.495 . S
C881 H887 0.959 . S
C881 H888 0.961 . S
C881 H889 0.960 . S
C882 C880 1.381 . S
C882 C883 1.394 . S
C882 H890 0.930 . S
C883 C882 1.394 . S
C883 C884 1.383 . S
C883 H891 0.929 . S
C884 C883 1.383 . S
C884 C885 1.377 . S
C885 H869 0.930 . S
C885 C884 1.377 . S
C885 C886 1.379 . S
C886 H870 0.931 . S
C886 C880 1.383 . S
C886 C885 1.379 . S
H887 C881 0.959 . S
H888 C881 0.961 . S
H889 C881 0.960 . S
H890 C882 0.930 . S
H891 C883 0.929 . S
H892 C900 0.929 . S
H893 C902 0.930 . S
H894 C904 0.930 . S
H895 C907 0.929 . S
H896 C910 0.930 . S
H897 C912 0.960 . S
H898 C912 0.960 . S
H899 C912 0.960 . S
C900 H892 0.929 . S
C900 C901 1.377 . S
C900 C902 1.384 . S
C901 C900 1.377 . S
C901 C907 1.390 . S
C902 H893 0.930 . S
C902 C900 1.384 . S
C902 C903 1.372 . S
C903 C902 1.372 . S
C903 C904 1.400 . S
C903 C908 1.490 . S
C904 H894 0.930 . S
C904 C903 1.400 . S
C904 C907 1.386 . S
H905 C921 0.930 . S
H906 C922 0.931 . S
C907 H895 0.929 . S
C907 C901 1.390 . S
C907 C904 1.386 . S
C908 C903 1.490 . S
C908 C910 1.395 . S
C908 C911 1.403 . S
H909 C915 0.930 . S
C910 H896 0.930 . S
C910 C908 1.395 . S
C910 C913 1.403 . S
C911 C908 1.403 . S
C911 C912 1.524 . S
C911 C915 1.400 . S
C912 H897 0.960 . S
C912 H898 0.960 . S
C912 H899 0.960 . S
C912 C911 1.524 . S
C913 C910 1.403 . S
C913 C914 1.392 . S
C913 C917 1.495 . S
C914 C913 1.392 . S
C914 C915 1.385 . S
C914 C916 1.478 . S
C915 H909 0.930 . S
C915 C911 1.400 . S
C915 C914 1.385 . S
C916 C914 1.478 . S
C916 C918 1.381 . S
C916 C922 1.383 . S
C917 C913 1.495 . S
C917 H923 0.959 . S
C917 H924 0.961 . S
C917 H925 0.960 . S
C918 C916 1.381 . S
C918 C919 1.394 . S
C918 H926 0.930 . S
C919 C918 1.394 . S
C919 C920 1.383 . S
C919 H927 0.929 . S
C920 C919 1.383 . S
C920 C921 1.377 . S
C921 H905 0.930 . S
C921 C920 1.377 . S
C921 C922 1.379 . S
C922 H906 0.931 . S
C922 C916 1.383 . S
C922 C921 1.379 . S
H923 C917 0.959 . S
H924 C917 0.961 . S
H925 C917 0.960 . S
H926 C918 0.930 . S
H927 C919 0.929 . S
H928 C936 0.929 . S
H929 C938 0.930 . S
H930 C940 0.930 . S
H931 C943 0.929 . S
H932 C946 0.930 . S
H933 C948 0.960 1_556 S
H934 C948 0.960 . S
H935 C948 0.960 . S
C936 H928 0.929 . S
C936 C937 1.377 . S
C936 C938 1.384 . S
C937 C936 1.377 . S
C937 C943 1.390 . S
C938 H929 0.930 . S
C938 C936 1.384 . S
C938 C939 1.372 . S
C939 C938 1.372 . S
C939 C940 1.400 . S
C939 C944 1.490 . S
C940 H930 0.930 . S
C940 C939 1.400 . S
C940 C943 1.386 . S
H941 C957 0.930 . S
H942 C958 0.931 . S
C943 H931 0.929 . S
C943 C937 1.390 . S
C943 C940 1.386 . S
C944 C939 1.490 . S
C944 C946 1.395 . S
C944 C947 1.403 . S
H945 C951 0.930 . S
C946 H932 0.930 . S
C946 C944 1.395 . S
C946 C949 1.381 1_554 S
C947 C944 1.403 . S
C947 C948 1.524 . S
C947 C951 1.400 1_554 S
C948 H933 0.960 1_554 S
C948 H934 0.960 . S
C948 H935 0.960 . S
C948 C947 1.524 . S
C949 C946 1.381 1_556 S
C949 C950 1.415 . S
C949 C953 1.496 . S
C950 C949 1.415 . S
C950 C951 1.385 . S
C950 C952 1.478 . S
C951 H945 0.930 . S
C951 C947 1.400 1_556 S
C951 C950 1.385 . S
C952 C950 1.478 . S
C952 C954 1.381 . S
C952 C958 1.383 . S
C953 C949 1.496 . S
C953 H959 0.900 1_556 S
C953 H960 0.992 . S
C953 H961 0.991 . S
C954 C952 1.381 . S
C954 C955 1.394 . S
C954 H962 0.930 . S
C955 C954 1.394 . S
C955 C956 1.383 . S
C955 H963 0.929 . S
C956 C955 1.383 . S
C956 C957 1.377 . S
C957 H941 0.930 . S
C957 C956 1.377 . S
C957 C958 1.379 . S
C958 H942 0.931 . S
C958 C952 1.383 . S
C958 C957 1.379 . S
H959 C953 0.900 1_554 S
H960 C953 0.992 . S
H961 C953 0.991 . S
H962 C954 0.930 . S
H963 C955 0.929 . S
H964 C972 0.929 . S
H965 C974 0.930 . S
H966 C976 0.930 . S
H967 C979 0.929 . S
H968 C982 0.930 . S
H969 C984 0.960 . S
H970 C984 0.960 . S
H971 C984 0.960 . S
C972 H964 0.929 . S
C972 C973 1.377 . S
C972 C974 1.384 . S
C973 C972 1.377 . S
C973 C979 1.390 . S
C974 H965 0.930 . S
C974 C972 1.384 . S
C974 C975 1.372 . S
C975 C974 1.372 . S
C975 C976 1.400 . S
C975 C980 1.490 . S
C976 H966 0.930 . S
C976 C975 1.400 . S
C976 C979 1.386 . S
H977 C993 0.930 . S
H978 C994 0.931 . S
C979 H967 0.929 . S
C979 C973 1.390 . S
C979 C976 1.386 . S
C980 C975 1.490 . S
C980 C982 1.395 . S
C980 C983 1.403 . S
H981 C987 0.930 . S
C982 H968 0.930 . S
C982 C980 1.395 . S
C982 C985 1.403 1_554 S
C983 C980 1.403 . S
C983 C984 1.524 . S
C983 C987 1.400 1_554 S
C984 H969 0.960 . S
C984 H970 0.960 . S
C984 H971 0.960 . S
C984 C983 1.524 . S
C985 C982 1.403 1_556 S
C985 C986 1.392 . S
C985 C989 1.495 . S
C986 C985 1.392 . S
C986 C987 1.385 . S
C986 C988 1.478 . S
C987 H981 0.930 . S
C987 C983 1.400 1_556 S
C987 C986 1.385 . S
C988 C986 1.478 . S
C988 C990 1.381 . S
C988 C994 1.383 . S
C989 C985 1.495 . S
C989 H995 0.959 . S
C989 H996 0.961 . S
C989 H997 0.960 . S
C990 C988 1.381 . S
C990 C991 1.394 . S
C990 H998 0.930 . S
C991 C990 1.394 . S
C991 C992 1.383 . S
C991 H999 0.929 . S
C992 C991 1.383 . S
C992 C993 1.377 . S
C993 H977 0.930 . S
C993 C992 1.377 . S
C993 C994 1.379 . S
C994 H978 0.931 . S
C994 C988 1.383 . S
C994 C993 1.379 . S
H995 C989 0.959 . S
H996 C989 0.961 . S
H997 C989 0.960 . S
H998 C990 0.930 . S
H999 C991 0.929 . S
C433 C38 1.888 1_655 S
C452 C144 1.878 1_455 S
C469 C197 1.897 . S
C488 C91 1.867 . S
C505 C356 1.894 . S
C524 C250 1.899 . S
C541 C303 1.889 1_455 S
C560 C409 1.889 1_655 S
C577 C340 2.078 . S
C596 C22 2.070 . S
C613 C75 2.079 . S
C632 C393 2.076 . S
C649 C128 2.079 . S
C668 C234 2.079 . S
C685 C181 2.077 . S
C704 C287 2.072 . S
C721 C357 2.259 . S
C740 C39 2.270 . S
C757 C92 2.269 . S
C776 C410 2.254 . S
C793 C251 2.270 . S
C812 C145 2.240 . S
C829 C304 2.275 . S
C848 C198 2.261 . S
C865 C82 0.432 . S
C884 C29 0.484 . S
C901 C135 0.440 . S
C920 C188 0.487 . S
C937 C294 0.431 . S
C956 C241 0.383 . S
C973 C347 0.426 . S
C992 C400 0.440 . S
