# Generated by pormake.
# Topology uks, (4)-cn, num edge types: 1
# Building blocks:
#     Node 0, Type 0, BuildingBlock: ESEHIV_clean_sbu_0, # of connection points: 4
#     Node 1, Type 0, BuildingBlock: ESEHIV_clean_sbu_0, # of connection points: 4
#     Node 2, Type 0, BuildingBlock: ESEHIV_clean_sbu_0, # of connection points: 4
#     Node 3, Type 0, BuildingBlock: ESEHIV_clean_sbu_0, # of connection points: 4
#     Node 4, Type 0, BuildingBlock: ESEHIV_clean_sbu_0, # of connection points: 4
#     Node 5, Type 0, BuildingBlock: ESEHIV_clean_sbu_0, # of connection points: 4
#     Node 6, Type 0, BuildingBlock: ESEHIV_clean_sbu_0, # of connection points: 4
#     Node 7, Type 0, BuildingBlock: ESEHIV_clean_sbu_0, # of connection points: 4
#     Node 8, Type 0, BuildingBlock: ESEHIV_clean_sbu_0, # of connection points: 4
#     Node 9, Type 0, BuildingBlock: ESEHIV_clean_sbu_0, # of connection points: 4
#     Node 10, Type 0, BuildingBlock: ESEHIV_clean_sbu_0, # of connection points: 4
#     Node 11, Type 0, BuildingBlock: ESEHIV_clean_sbu_0, # of connection points: 4
#     Node 12, Type 0, BuildingBlock: ESEHIV_clean_sbu_0, # of connection points: 4
#     Node 13, Type 0, BuildingBlock: ESEHIV_clean_sbu_0, # of connection points: 4
#     Node 14, Type 0, BuildingBlock: ESEHIV_clean_sbu_0, # of connection points: 4
#     Node 15, Type 0, BuildingBlock: ESEHIV_clean_sbu_0, # of connection points: 4
#     Node 16, Type 0, BuildingBlock: ESEHIV_clean_sbu_0, # of connection points: 4
#     Node 17, Type 0, BuildingBlock: ESEHIV_clean_sbu_0, # of connection points: 4
#     Node 18, Type 0, BuildingBlock: ESEHIV_clean_sbu_0, # of connection points: 4
#     Node 19, Type 0, BuildingBlock: ESEHIV_clean_sbu_0, # of connection points: 4
#     Node 20, Type 0, BuildingBlock: ESEHIV_clean_sbu_0, # of connection points: 4
#     Node 21, Type 0, BuildingBlock: ESEHIV_clean_sbu_0, # of connection points: 4
#     Node 22, Type 0, BuildingBlock: ESEHIV_clean_sbu_0, # of connection points: 4
#     Node 23, Type 0, BuildingBlock: ESEHIV_clean_sbu_0, # of connection points: 4
#     Edge 24, Type (0, 0), None
#     Edge 25, Type (0, 0), None
#     Edge 26, Type (0, 0), None
#     Edge 27, Type (0, 0), None
#     Edge 28, Type (0, 0), None
#     Edge 29, Type (0, 0), None
#     Edge 30, Type (0, 0), None
#     Edge 31, Type (0, 0), None
#     Edge 32, Type (0, 0), None
#     Edge 33, Type (0, 0), None
#     Edge 34, Type (0, 0), None
#     Edge 35, Type (0, 0), None
#     Edge 36, Type (0, 0), None
#     Edge 37, Type (0, 0), None
#     Edge 38, Type (0, 0), None
#     Edge 39, Type (0, 0), None
#     Edge 40, Type (0, 0), None
#     Edge 41, Type (0, 0), None
#     Edge 42, Type (0, 0), None
#     Edge 43, Type (0, 0), None
#     Edge 44, Type (0, 0), None
#     Edge 45, Type (0, 0), None
#     Edge 46, Type (0, 0), None
#     Edge 47, Type (0, 0), None
#     Edge 48, Type (0, 0), None
#     Edge 49, Type (0, 0), None
#     Edge 50, Type (0, 0), None
#     Edge 51, Type (0, 0), None
#     Edge 52, Type (0, 0), None
#     Edge 53, Type (0, 0), None
#     Edge 54, Type (0, 0), None
#     Edge 55, Type (0, 0), None
#     Edge 56, Type (0, 0), None
#     Edge 57, Type (0, 0), None
#     Edge 58, Type (0, 0), None
#     Edge 59, Type (0, 0), None
#     Edge 60, Type (0, 0), None
#     Edge 61, Type (0, 0), None
#     Edge 62, Type (0, 0), None
#     Edge 63, Type (0, 0), None
#     Edge 64, Type (0, 0), None
#     Edge 65, Type (0, 0), None
#     Edge 66, Type (0, 0), None
#     Edge 67, Type (0, 0), None
#     Edge 68, Type (0, 0), None
#     Edge 69, Type (0, 0), None
#     Edge 70, Type (0, 0), None
#     Edge 71, Type (0, 0), None
# Relax obj value: 0.059
# Max RMSD: 0.166
# Mean RMSD: 0.111
data_MOF--net-uks--node1-ESEHIV_clean_sbu_0--edge1-none
_symmetry_space_group_name_H-M    P1
_symmetry_Int_Tables_number       1
_symmetry_cell_setting            triclinic
loop_
_symmetry_equiv_pos_as_xyz
'x, y, z'
_cell_length_a     21.796223
_cell_length_b     30.634178
_cell_length_c     29.855299
_cell_angle_alpha  90.004968
_cell_angle_beta   90.002573
_cell_angle_gamma 81.998524
loop_
_atom_site_label
_atom_site_type_symbol
_atom_site_fract_x
_atom_site_fract_y
_atom_site_fract_z
_atom_type_partial_charge
Cu0 Cu 0.09943 0.41583 0.76979 0.0
N1 N 0.11705 0.35492 0.76076 0.0
N2 N 0.10933 0.28364 0.76797 0.0
C3 C 0.09331 0.32422 0.78512 0.0
C4 C 0.14504 0.28836 0.73198 0.0
C5 C 0.15004 0.33258 0.72774 0.0
O6 O 1.01031 0.42921 0.77595 0.0
C7 C 0.20294 0.42007 0.82087 0.0
O8 O 0.22673 0.39881 0.78531 0.0
H9 H 0.06371 0.33159 0.81403 0.0
H10 H 0.17593 0.34725 0.70234 0.0
N11 N 0.12353 0.44809 0.72107 0.0
N12 N 0.15407 0.50318 0.682 0.0
C13 C 0.13882 0.48926 0.7228 0.0
C14 C 0.12819 0.43631 0.67753 0.0
C15 C 0.14787 0.47017 0.65331 0.0
C16 C 0.97536 0.41041 0.75017 0.0
O17 O 1.00001 0.38249 0.71973 0.0
H18 H 0.13912 0.50841 0.75324 0.0
H19 H 0.11697 0.40563 0.66409 0.0
O20 O 0.1446 0.43155 0.82259 0.0
H21 H 0.16671 0.26184 0.71093 0.0
H22 H 0.1554 0.47101 0.61751 0.0
Cu23 Cu 0.67087 0.64 0.2593 0.0
N24 N 0.64909 0.67895 0.30748 0.0
N25 N 0.64782 0.74005 0.34884 0.0
C26 C 0.65247 0.7228 0.30716 0.0
C27 C 0.64023 0.70631 0.37633 0.0
C28 C 0.64106 0.66873 0.35079 0.0
O29 O 0.61551 0.66019 0.20949 0.0
C30 C 0.79739 0.65481 0.27414 0.0
O31 O 0.77666 0.67311 0.31172 0.0
H32 H 0.66435 0.74055 0.27778 0.0
H33 H 0.64137 0.63577 0.3636 0.0
N34 N 0.66236 0.58052 0.27112 0.0
N35 N 0.67511 0.50688 0.26324 0.0
C36 C 0.69018 0.54551 0.24765 0.0
C37 C 0.62776 0.56333 0.30219 0.0
C38 C 0.63603 0.51797 0.29772 0.0
C39 C 0.5598 0.65154 0.20718 0.0
O40 O 0.53937 0.62639 0.2378 0.0
H41 H 0.72153 0.54835 0.21999 0.0
H42 H 0.59773 0.5823 0.32602 0.0
O43 O 0.75946 0.64142 0.24617 0.0
H44 H 0.63833 0.70804 0.41251 0.0
H45 H 0.61469 0.49501 0.31812 0.0
Cu46 Cu 0.43112 0.16876 0.76991 0.0
N47 N 0.41352 0.22966 0.76082 0.0
N48 N 0.42124 0.30095 0.76796 0.0
C49 C 0.43727 0.26039 0.78515 0.0
C50 C 0.38552 0.29619 0.73198 0.0
C51 C 0.38053 0.25197 0.72779 0.0
O52 O 0.52023 0.1554 0.77617 0.0
C53 C 0.32757 0.16458 0.82095 0.0
O54 O 0.30379 0.18578 0.78535 0.0
H55 H 0.46686 0.25305 0.81407 0.0
H56 H 0.35463 0.23728 0.7024 0.0
N57 N 0.40711 0.13647 0.72118 0.0
N58 N 0.37662 0.08138 0.68208 0.0
C59 C 0.39181 0.0953 0.7229 0.0
C60 C 0.40252 0.14823 0.67764 0.0
C61 C 0.38287 0.11437 0.6534 0.0
C62 C 0.55524 0.17416 0.75039 0.0
O63 O 0.53065 0.202 0.71987 0.0
H64 H 0.39145 0.07616 0.75334 0.0
H65 H 0.41376 0.17891 0.66421 0.0
O66 O 0.38591 0.1531 0.8227 0.0
H67 H 0.36385 0.32269 0.71092 0.0
H68 H 0.3754 0.11353 0.61759 0.0
Cu69 Cu 0.86022 0.9448 0.25953 0.0
N70 N 0.88197 0.90576 0.30765 0.0
N71 N 0.88313 0.84459 0.34888 0.0
C72 C 0.87854 0.86192 0.30723 0.0
C73 C 0.89076 0.87828 0.37644 0.0
C74 C 0.89 0.9159 0.35097 0.0
O75 O 0.91552 0.92461 0.20968 0.0
C76 C 0.73368 0.93001 0.27433 0.0
O77 O 0.75442 0.91159 0.31186 0.0
H78 H 0.86664 0.84423 0.27781 0.0
H79 H 0.88973 0.94884 0.36385 0.0
N80 N 0.86891 1.00425 0.27141 0.0
N81 N 0.85652 0.0779 0.26358 0.0
C82 C 0.84124 1.03934 0.24797 0.0
C83 C 0.9036 1.02133 0.3025 0.0
C84 C 0.89555 0.0667 0.29806 0.0
C85 C 0.97124 0.93324 0.20736 0.0
O86 O 0.99172 0.95836 0.23798 0.0
H87 H 0.80988 1.03658 0.22029 0.0
H88 H 0.93356 1.00229 0.32632 0.0
O89 O 0.77161 0.94348 0.24641 0.0
H90 H 0.89262 0.87649 0.41262 0.0
H91 H 0.91702 0.08958 0.31847 0.0
Cu92 Cu 0.14865 0.15869 0.87769 0.0
N93 N 0.09793 0.18882 0.83481 0.0
N94 N 0.09442 0.24381 0.78559 0.0
C95 C 0.09625 0.23266 0.82927 0.0
C96 C 0.09467 0.206 0.76268 0.0
C97 C 0.09551 0.17225 0.79313 0.0
O98 O 0.13889 0.18713 0.93643 0.0
C99 C 0.2852 0.15318 0.85618 0.0
O100 O 0.3053 0.1296 0.89125 0.0
H101 H 0.1078 0.25433 0.85566 0.0
H102 H 0.10504 0.13755 0.78511 0.0
N103 N 0.13838 0.09902 0.87984 0.0
N104 N 0.16384 1.0261 0.88643 0.0
C105 C 0.18119 0.06608 0.89408 0.0
C106 C 0.09179 0.07919 0.8632 0.0
C107 C 0.10743 1.03403 0.8672 0.0
C108 C 0.08905 0.20038 0.95794 0.0
O109 O 0.09295 0.22068 0.99636 0.0
H110 H 0.22552 0.07132 0.90784 0.0
H111 H 0.05044 0.09624 0.84763 0.0
O112 O 0.22764 0.16526 0.85003 0.0
H113 H 0.09982 0.20256 0.72674 0.0
H114 H 0.08056 1.00911 0.85548 0.0
Cu115 Cu 0.89045 0.66975 0.35862 0.0
N116 N 0.86416 0.73055 0.36546 0.0
N117 N 0.86786 0.80315 0.3623 0.0
C118 C 0.87981 0.76422 0.34038 0.0
C119 C 0.84435 0.7939 0.40233 0.0
C120 C 0.84228 0.74923 0.40419 0.0
O121 O 0.96399 0.65985 0.39624 0.0
C122 C 0.86455 0.64924 0.26484 0.0
O123 O 0.88415 0.6373 0.22449 0.0
H124 H 0.90398 0.75984 0.30868 0.0
H125 H 0.83032 0.73116 0.43326 0.0
N126 N 0.83646 0.63433 0.38477 0.0
N127 N 0.80269 0.5739 0.41139 0.0
C128 C 0.84767 0.59008 0.38822 0.0
C129 C 0.78285 0.64636 0.40693 0.0
C130 C 0.76154 0.60899 0.42315 0.0
C131 C 0.02073 0.65983 0.38638 0.0
O132 O 0.03745 0.66125 0.34422 0.0
H133 H 0.88859 0.57041 0.37477 0.0
H134 H 0.76126 0.67996 0.41159 0.0
O135 O 0.9046 0.65442 0.29517 0.0
H136 H 0.83188 0.8174 0.42898 0.0
H137 H 0.7203 0.6079 0.44305 0.0
Cu138 Cu 0.38188 0.42604 0.87759 0.0
N139 N 0.43257 0.39585 0.83472 0.0
N140 N 0.43614 0.3408 0.78555 0.0
C141 C 0.43426 0.352 0.82922 0.0
C142 C 0.43591 0.37858 0.76261 0.0
C143 C 0.43503 0.41237 0.79302 0.0
O144 O 0.39168 0.39768 0.93636 0.0
C145 C 0.2453 0.43153 0.85608 0.0
O146 O 0.2252 0.45521 0.8911 0.0
H147 H 0.4227 0.33036 0.85564 0.0
H148 H 0.4255 0.44706 0.78496 0.0
N149 N 0.39216 0.4857 0.87968 0.0
N150 N 0.36681 0.55862 0.88633 0.0
C151 C 0.34944 0.51865 0.89399 0.0
C152 C 0.43872 0.50551 0.86295 0.0
C153 C 0.42315 0.55067 0.86699 0.0
C154 C 0.44153 0.38451 0.95789 0.0
O155 O 0.43767 0.36427 0.99634 0.0
H156 H 0.30515 0.51343 0.90785 0.0
H157 H 0.48001 0.48844 0.84732 0.0
O158 O 0.30286 0.41943 0.84996 0.0
H159 H 0.43079 0.38198 0.72666 0.0
H160 H 0.45 0.57558 0.85523 0.0
Cu161 Cu 0.64054 0.9149 0.35876 0.0
N162 N 0.66668 0.85409 0.36558 0.0
N163 N 0.663 0.7815 0.36234 0.0
C164 C 0.65114 0.82043 0.34043 0.0
C165 C 0.68632 0.79074 0.40244 0.0
C166 C 0.68838 0.8354 0.40435 0.0
O167 O 0.56696 0.9249 0.39633 0.0
C168 C 0.66653 0.93558 0.26502 0.0
O169 O 0.64694 0.9476 0.22469 0.0
H170 H 0.62713 0.82482 0.30867 0.0
H171 H 0.70024 0.85347 0.43346 0.0
N172 N 0.69463 0.95018 0.38499 0.0
N173 N 0.72858 1.01048 0.41176 0.0
C174 C 0.68355 0.99443 0.38854 0.0
C175 C 0.74821 0.93803 0.40715 0.0
C176 C 0.76963 0.97532 0.42347 0.0
C177 C 0.51025 0.92485 0.38642 0.0
O178 O 0.49363 0.9233 0.34424 0.0
H179 H 0.64268 1.01417 0.37512 0.0
H180 H 0.76971 0.90439 0.41175 0.0
O181 O 0.62647 0.93032 0.29531 0.0
H182 H 0.69869 0.76723 0.4291 0.0
H183 H 0.81087 0.97632 0.44339 0.0
Cu184 Cu 0.64266 0.17881 0.43934 0.0
N185 N 0.67813 0.23001 0.44996 0.0
N186 N 0.73999 0.28133 0.45763 0.0
C187 C 0.73724 0.23813 0.45071 0.0
C188 C 0.68123 0.30116 0.46178 0.0
C189 C 0.64318 0.26925 0.45718 0.0
O190 O 0.5886 0.17953 0.49171 0.0
C191 C 0.65283 0.1908 0.35119 0.0
O192 O 0.70725 0.19497 0.36824 0.0
H193 H 0.77686 0.21358 0.44434 0.0
H194 H 0.59308 0.27429 0.45818 0.0
N195 N 0.69797 0.12594 0.4382 0.0
N196 N 0.7297 0.0548 0.42441 0.0
C197 C 0.6823 0.08799 0.42192 0.0
C198 C 0.75767 0.11631 0.45108 0.0
C199 C 0.77736 0.07214 0.4428 0.0
C200 C 0.62085 0.17451 0.52763 0.0
O201 O 0.68038 0.16048 0.52408 0.0
H202 H 0.63674 0.08487 0.40902 0.0
H203 H 0.78481 0.13942 0.46602 0.0
O204 O 0.60944 0.18405 0.37807 0.0
H205 H 0.66692 0.33602 0.46707 0.0
H206 H 0.82279 0.05435 0.44976 0.0
Cu207 Cu 0.89515 0.21249 0.93561 0.0
N208 N 0.9009 0.20239 0.87391 0.0
N209 N 0.92055 0.21946 0.80326 0.0
C210 C 0.9059 0.23509 0.84456 0.0
C211 C 0.92503 0.17521 0.80624 0.0
C212 C 0.91252 0.16471 0.85013 0.0
O213 O 0.97865 0.21526 0.95856 0.0
C214 C 0.78504 0.27119 0.93788 0.0
O215 O 0.76013 0.23514 0.93105 0.0
H216 H 0.90257 0.26944 0.854 0.0
H217 H 0.91557 0.13195 0.8642 0.0
N218 N 0.85464 0.17296 0.9688 0.0
N219 N 0.79299 0.1542 1.02333 0.0
C220 C 0.83347 0.18146 1.01085 0.0
C221 C 0.8267 0.13893 0.95443 0.0
C222 C 0.78854 0.1272 0.98815 0.0
C223 C 0.02747 0.19457 0.94062 0.0
O224 O 0.02262 0.16776 0.90706 0.0
H225 H 0.84377 0.20929 1.03037 0.0
H226 H 0.83021 0.12571 0.92081 0.0
O227 O 0.84366 0.26909 0.94152 0.0
H228 H 0.93818 0.15222 0.77926 0.0
H229 H 0.75813 0.1022 0.98617 0.0
Cu230 Cu 0.88925 0.40564 0.43858 0.0
N231 N 0.85455 0.35397 0.44829 0.0
N232 N 0.7934 0.30231 0.45669 0.0
C233 C 0.79559 0.34576 0.45105 0.0
C234 C 0.85239 0.2824 0.45784 0.0
C235 C 0.89001 0.31451 0.45279 0.0
O236 O 0.94271 0.40476 0.49131 0.0
C237 C 0.87946 0.39411 0.35046 0.0
O238 O 0.82519 0.38942 0.36748 0.0
H239 H 0.75553 0.37049 0.44721 0.0
H240 H 0.94011 0.30952 0.45176 0.0
N241 N 0.83358 0.45838 0.43758 0.0
N242 N 0.80167 0.52955 0.42393 0.0
C243 C 0.84913 0.4964 0.42138 0.0
C244 C 0.77387 0.46794 0.45049 0.0
C245 C 0.75408 0.51211 0.44229 0.0
C246 C 0.90995 0.4092 0.52702 0.0
O247 O 0.85028 0.42254 0.52312 0.0
H248 H 0.89466 0.4996 0.40848 0.0
H249 H 0.74677 0.44482 0.46542 0.0
O250 O 0.92272 0.40105 0.37737 0.0
H251 H 0.8671 0.24737 0.46152 0.0
H252 H 0.70863 0.52984 0.4493 0.0
Cu253 Cu 0.63542 0.37252 0.93554 0.0
N254 N 0.62962 0.3825 0.87382 0.0
N255 N 0.60997 0.36529 0.80321 0.0
C256 C 0.62464 0.34975 0.84454 0.0
C257 C 0.60545 0.40956 0.80612 0.0
C258 C 0.61796 0.42014 0.84998 0.0
O259 O 0.55194 0.36977 0.95854 0.0
C260 C 0.74554 0.31383 0.93784 0.0
O261 O 0.77043 0.34986 0.93089 0.0
H262 H 0.62802 0.31541 0.85404 0.0
H263 H 0.61488 0.45293 0.86399 0.0
N264 N 0.67597 0.41212 0.9686 0.0
N265 N 0.73786 0.43093 1.02296 0.0
C266 C 0.69735 0.40366 1.0106 0.0
C267 C 0.70382 0.44615 0.95413 0.0
C268 C 0.74213 0.45792 0.98774 0.0
C269 C 0.50309 0.39035 0.94055 0.0
O270 O 0.50788 0.41707 0.9069 0.0
H271 H 0.68717 0.37581 1.03017 0.0
H272 H 0.70015 0.45934 0.9205 0.0
O273 O 0.68692 0.31593 0.94153 0.0
H274 H 0.59227 0.43249 0.7791 0.0
H275 H 0.77252 0.48292 0.98565 0.0
Cu276 Cu 0.78358 0.4055 0.19473 0.0
N277 N 0.85066 0.39892 0.23442 0.0
N278 N 0.88521 0.39483 0.30507 0.0
C279 C 0.83916 0.38841 0.27682 0.0
C280 C 0.92945 0.40866 0.27917 0.0
C281 C 0.90746 0.41173 0.23525 0.0
O282 O 0.73297 0.45998 0.21485 0.0
C283 C 0.77984 0.31324 0.19753 0.0
O284 O 0.84026 0.31148 0.19478 0.0
H285 H 0.79495 0.37948 0.28723 0.0
H286 H 0.92926 0.42544 0.207 0.0
N287 N 0.80015 0.4153 0.13436 0.0
N288 N 0.77342 0.42831 0.06278 0.0
C289 C 0.7611 0.40777 0.10104 0.0
C290 C 0.83842 0.44156 0.11641 0.0
C291 C 0.82216 0.44953 0.072 0.0
C292 C 0.69721 0.46535 0.24876 0.0
O293 O 0.68463 0.43071 0.27108 0.0
H294 H 0.72143 0.39062 0.10587 0.0
H295 H 0.87254 0.45654 0.13507 0.0
O296 O 0.74571 0.35086 0.19848 0.0
H297 H 0.97176 0.41925 0.29139 0.0
H298 H 0.84261 0.47082 1.04915 0.0
Cu299 Cu 0.64174 0.23361 0.68965 0.0
N300 N 0.60047 0.28346 0.71836 0.0
N301 N 0.59682 0.34002 0.76576 0.0
C302 C 0.61594 0.2967 0.75938 0.0
C303 C 0.56843 0.35487 0.72756 0.0
C304 C 0.56957 0.31959 0.69863 0.0
O305 O 0.65927 0.18425 0.73143 0.0
C306 C 0.73346 0.28715 0.66232 0.0
O307 O 0.68745 0.31926 0.65779 0.0
H308 H 0.64583 0.2761 0.78217 0.0
H309 H 0.55529 0.32133 0.66391 0.0
N310 N 0.60268 0.21733 0.63736 0.0
N311 N 0.59844 0.19032 0.56791 0.0
C312 C 0.63346 0.19312 0.60487 0.0
C313 C 0.54528 0.22973 0.6208 0.0
C314 C 0.54248 0.21295 0.57775 0.0
C315 C 0.6227 0.16371 0.75403 0.0
O316 O 0.64641 0.13218 0.7813 0.0
H317 H 0.68223 0.18028 0.60736 0.0
H318 H 0.50897 0.25107 0.63789 0.0
O319 O 0.72299 0.24863 0.6733 0.0
H320 H 0.55075 0.38891 0.72033 0.0
H321 H 0.50378 0.2191 0.5548 0.0
Cu322 Cu 0.74831 0.17957 0.19525 0.0
N323 N 0.68141 0.1863 0.23511 0.0
N324 N 0.64701 0.19032 0.3058 0.0
C325 C 0.69319 0.19648 0.27756 0.0
C326 C 0.60243 0.17702 0.27984 0.0
C327 C 0.62431 0.174 0.2359 0.0
O328 O 0.79881 0.12497 0.21526 0.0
C329 C 0.75224 0.27176 0.19764 0.0
O330 O 0.69183 0.27351 0.19484 0.0
H331 H 0.7376 0.20503 0.28799 0.0
H332 H 0.60216 0.16069 0.20757 0.0
N333 N 0.73138 0.1698 0.13492 0.0
N334 N 0.75766 0.15683 0.06326 0.0
C335 C 0.77024 0.17733 0.10148 0.0
C336 C 0.69296 0.14359 0.11708 0.0
C337 C 0.70894 0.13563 0.07263 0.0
C338 C 0.83462 0.11948 0.24913 0.0
O339 O 0.84744 0.15405 0.27147 0.0
H340 H 0.80996 0.19445 0.1062 0.0
H341 H 0.65892 0.12861 0.13585 0.0
O342 O 0.78635 0.23414 0.19881 0.0
H343 H 0.55988 0.16677 0.29202 0.0
H344 H 0.68833 0.11437 1.04984 0.0
Cu345 Cu 0.88889 0.35088 0.68939 0.0
N346 N 0.93016 0.30112 0.71825 0.0
N347 N 0.93374 0.24465 0.76576 0.0
C348 C 0.91463 0.28796 0.75929 0.0
C349 C 0.96219 0.22972 0.72761 0.0
C350 C 0.9611 0.26495 0.6986 0.0
O351 O 0.87135 0.40037 0.73103 0.0
C352 C 0.79718 0.29724 0.66229 0.0
O353 O 0.84318 0.26512 0.65785 0.0
H354 H 0.88469 0.30861 0.78201 0.0
H355 H 0.97545 0.26315 0.6639 0.0
N356 N 0.92793 0.36699 0.63702 0.0
N357 N 0.93223 0.39367 0.56744 0.0
C358 C 0.897 0.39067 0.60425 0.0
C359 C 0.98562 0.35509 0.62077 0.0
C360 C 0.98847 0.37168 0.57765 0.0
C361 C 0.90788 0.42092 0.75366 0.0
O362 O 0.88412 0.45255 0.78081 0.0
H363 H 0.84806 0.40308 0.60648 0.0
H364 H 0.02218 0.33424 0.63815 0.0
O365 O 0.80764 0.3358 0.67313 0.0
H366 H 0.97988 0.19568 0.72045 0.0
H367 H 0.02746 0.36586 0.55492 0.0
Cu368 Cu 0.40875 0.73602 0.16936 0.0
N369 N 0.45212 0.77274 0.20356 0.0
N370 N 0.48111 0.79091 0.27203 0.0
C371 C 0.46502 0.75896 0.24574 0.0
C372 C 0.47896 0.82682 0.24551 0.0
C373 C 0.46176 0.81527 0.20271 0.0
O374 O 0.45699 0.67909 0.18328 0.0
C375 C 0.29923 0.78713 0.19398 0.0
O376 O 0.33183 0.81871 0.18418 0.0
H377 H 0.45537 0.72746 0.25822 0.0
H378 H 0.45095 0.83738 0.17467 0.0
N379 N 0.39602 0.74245 0.10716 0.0
N380 N 0.34758 0.73384 1.04204 0.0
C381 C 0.35033 0.72458 0.08623 0.0
C382 C 0.42294 0.76405 0.07497 0.0
C383 C 0.39324 0.75861 1.03456 0.0
C384 C 0.51532 0.67728 0.17667 0.0
O385 O 0.53521 0.70762 0.15157 0.0
H386 H 0.31996 0.70493 0.10327 0.0
H387 H 0.46113 0.78251 0.08043 0.0
O388 O 0.32484 0.74695 0.19258 0.0
H389 H 0.48473 0.85953 0.25692 0.0
H390 H 0.4043 0.77193 1.00246 0.0
Cu391 Cu 0.4037 0.84161 0.43308 0.0
N392 N 0.44566 0.80638 0.38841 0.0
N393 N 0.48041 0.78957 0.31929 0.0
C394 C 0.45216 0.82124 0.34635 0.0
C395 C 0.49139 0.75299 0.34487 0.0
C396 C 0.47047 0.76359 0.38776 0.0
O397 O 0.41826 0.89955 0.41184 0.0
C398 C 0.29871 0.79495 0.43378 0.0
O399 O 0.34071 0.75984 0.4355 0.0
H400 H 0.43229 0.85365 0.33499 0.0
H401 H 0.47035 0.74107 0.41561 0.0
N402 N 0.43686 0.83005 0.49112 0.0
N403 N 0.45242 0.836 0.56512 0.0
C404 C 0.42072 0.8534 0.52879 0.0
C405 C 0.48052 0.79699 0.50422 0.0
C406 C 0.48991 0.8004 0.54978 0.0
C407 C 0.46906 0.913 0.42236 0.0
O408 O 0.49498 0.90045 0.46079 0.0
H409 H 0.38574 0.88221 0.52957 0.0
H410 H 0.50397 0.77199 0.48233 0.0
O411 O 0.31584 0.83322 0.43252 0.0
H412 H 0.50991 0.72051 0.33281 0.0
H413 H 0.52173 0.77831 0.57001 0.0
Cu414 Cu 0.24823 0.90073 0.88254 0.0
N415 N 0.31011 0.91659 0.84381 0.0
N416 N 0.38443 0.90824 0.7908 0.0
C417 C 0.36947 0.89967 0.83392 0.0
C418 C 0.33365 0.93255 0.77407 0.0
C419 C 0.28885 0.93783 0.80632 0.0
O420 O 0.18267 0.95065 0.87937 0.0
C421 C 0.2719 0.81491 0.85707 0.0
O422 O 0.32766 0.8219 0.86868 0.0
H423 H 0.39919 0.87833 0.8562 0.0
H424 H 0.2413 0.9524 0.80111 0.0
N425 N 0.25863 0.8873 0.94388 0.0
N426 N 0.22381 0.86581 1.00999 0.0
C427 C 0.21699 0.86568 0.96511 0.0
C428 C 0.29338 0.90153 0.9767 0.0
C429 C 0.27197 0.88823 1.01768 0.0
C430 C 0.19966 0.98662 0.8929 0.0
O431 O 0.25546 0.98549 0.90998 0.0
H432 H 0.17974 0.85269 0.94794 0.0
H433 H 0.32914 0.9222 0.97151 0.0
O434 O 0.22738 0.84664 0.85824 0.0
H435 H 0.3274 0.94434 0.74066 0.0
H436 H 0.28885 0.89605 1.05038 0.0
Cu437 Cu 0.12722 0.74311 0.4331 0.0
N438 N 0.08518 0.77834 0.38847 0.0
N439 N 0.0503 0.79513 0.31935 0.0
C440 C 0.07857 0.76346 0.34641 0.0
C441 C 0.03954 0.83173 0.34492 0.0
C442 C 0.06049 0.82115 0.3878 0.0
O443 O 0.11268 0.68517 0.41185 0.0
C444 C 0.2322 0.78979 0.4338 0.0
O445 O 0.19021 0.8249 0.4356 0.0
H446 H 0.09844 0.73105 0.33504 0.0
H447 H 0.06077 0.84369 0.41562 0.0
N448 N 0.09412 0.75466 0.49116 0.0
N449 N 0.07853 0.74868 0.56515 0.0
C450 C 0.11018 0.73125 0.5288 0.0
C451 C 0.05058 0.78779 0.50429 0.0
C452 C 0.04117 0.78436 0.54984 0.0
C453 C 0.06185 0.67174 0.42234 0.0
O454 O 0.03586 0.68436 0.46073 0.0
H455 H 0.14506 0.70239 0.52956 0.0
H456 H 0.02723 0.81285 0.48243 0.0
O457 O 0.21508 0.75153 0.43249 0.0
H458 H 0.02119 0.86424 0.33284 0.0
H459 H 1.00945 0.80649 0.5701 0.0
Cu460 Cu 0.28246 0.68399 0.88249 0.0
N461 N 0.22055 0.66809 0.8438 0.0
N462 N 0.14625 0.6764 0.79078 0.0
C463 C 0.1612 0.68503 0.83389 0.0
C464 C 0.197 0.65203 0.77408 0.0
C465 C 0.24179 0.64678 0.80634 0.0
O466 O 0.34803 0.63407 0.87928 0.0
C467 C 0.25871 0.7698 0.85706 0.0
O468 O 0.20297 0.76281 0.86874 0.0
H469 H 0.1315 0.70641 0.85614 0.0
H470 H 0.28934 0.63217 0.80114 0.0
N471 N 0.27218 0.69741 0.94385 0.0
N472 N 0.30711 0.71889 1.00994 0.0
C473 C 0.314 0.71889 0.96506 0.0
C474 C 0.23722 0.68344 0.97667 0.0
C475 C 0.25868 0.69675 1.01764 0.0
C476 C 0.33105 0.59812 0.89287 0.0
O477 O 0.27531 0.59927 0.91004 0.0
H478 H 0.35137 0.73173 0.94788 0.0
H479 H 0.2012 0.66298 0.9715 0.0
O480 O 0.30324 0.73808 0.85818 0.0
H481 H 0.20323 0.64018 0.74069 0.0
H482 H 0.24161 0.68914 1.05035 0.0
Cu483 Cu 0.12224 0.84876 0.16942 0.0
N484 N 0.07893 0.81204 0.20365 0.0
N485 N 0.04999 0.79382 0.27209 0.0
C486 C 0.06623 0.82576 0.24587 0.0
C487 C 0.05175 0.758 0.24549 0.0
C488 C 0.06897 0.76957 0.2027 0.0
O489 O 0.07402 0.90568 0.18339 0.0
C490 C 0.23177 0.79764 0.19408 0.0
O491 O 0.19911 0.76602 0.18456 0.0
H492 H 0.07602 0.85722 0.2584 0.0
H493 H 0.0795 0.74753 0.17458 0.0
N494 N 0.13487 0.84234 0.10722 0.0
N495 N 0.18329 0.85092 1.0421 0.0
C496 C 0.18041 0.86033 0.08626 0.0
C497 C 0.10819 0.82049 0.07508 0.0
C498 C 0.13789 0.82592 1.03467 0.0
C499 C 0.01568 0.9075 0.17682 0.0
O500 O 0.99575 0.87716 0.15174 0.0
H501 H 0.21063 0.88011 0.10326 0.0
H502 H 0.07023 0.80184 0.0806 0.0
O503 O 0.20618 0.83782 0.19255 0.0
H504 H 0.04562 0.72533 0.25682 0.0
H505 H 0.12705 0.81238 1.00262 0.0
Cu506 Cu 0.14897 0.67801 0.67745 0.0
N507 N 0.21385 0.7101 0.69028 0.0
N508 N 0.26072 0.76987 0.69882 0.0
C509 C 0.20613 0.75431 0.69464 0.0
C510 C 0.30468 0.73421 0.69722 0.0
C511 C 0.27548 0.69724 0.69182 0.0
O512 O 0.1211 0.69947 0.61799 0.0
C513 C 0.09206 0.69062 0.76884 0.0
O514 O 0.04308 0.70686 0.79222 0.0
H515 H 0.1615 0.77465 0.69273 0.0
H516 H 0.2976 0.66361 0.68779 0.0
N517 N 0.1727 0.61712 0.66911 0.0
N518 N 0.17142 0.54453 0.6711 0.0
C519 C 0.14977 0.58369 0.68983 0.0
C520 C 0.20962 0.59815 0.63625 0.0
C521 C 0.2087 0.55318 0.63724 0.0
C522 C 0.08512 0.73465 0.60853 0.0
O523 O 0.05675 0.75834 0.64106 0.0
H524 H 0.11602 0.58817 0.71661 0.0
H525 H 0.23357 0.61605 0.61216 0.0
O526 O 0.08704 0.68995 0.72583 0.0
H527 H 0.35416 0.73482 0.69825 0.0
H528 H 0.23243 0.52894 0.61454 0.0
Cu529 Cu 0.38178 0.90654 0.67746 0.0
N530 N 0.31691 0.87443 0.69024 0.0
N531 N 0.27006 0.81465 0.69875 0.0
C532 C 0.32464 0.83021 0.69455 0.0
C533 C 0.22609 0.85031 0.69725 0.0
C534 C 0.25529 0.88729 0.69186 0.0
O535 O 0.4097 0.88511 0.618 0.0
C536 C 0.43863 0.894 0.76888 0.0
O537 O 0.4876 0.87779 0.79228 0.0
H538 H 0.36927 0.80987 0.69262 0.0
H539 H 0.23316 0.92093 0.68791 0.0
N540 N 0.35802 0.96743 0.66913 0.0
N541 N 0.35927 1.04003 0.67116 0.0
C542 C 0.38092 1.00086 0.68988 0.0
C543 C 0.32112 0.9864 0.63626 0.0
C544 C 0.32203 1.03137 0.63728 0.0
C545 C 0.4458 0.85 0.60851 0.0
O546 O 0.47425 0.82633 0.64102 0.0
H547 H 0.41465 0.99639 0.71668 0.0
H548 H 0.29721 0.9685 0.61215 0.0
O549 O 0.44367 0.89463 0.72587 0.0
H550 H 0.17662 0.8497 0.69839 0.0
H551 H 0.29832 0.05561 0.61457 0.0
loop_
_geom_bond_atom_site_label_1
_geom_bond_atom_site_label_2
_geom_bond_distance
_geom_bond_site_symmetry_2
_ccdc_geom_bond_type
Cu0 N1 1.999 . S
Cu0 O6 1.974 1_455 S
Cu0 N11 1.985 . S
Cu0 O20 1.959 . S
N1 Cu0 1.999 . S
N1 C3 1.263 . S
N1 C5 1.389 . S
N2 C3 1.358 . S
N2 C4 1.400 . S
C3 N1 1.263 . S
C3 N2 1.358 . S
C3 H9 0.930 . S
C4 N2 1.400 . S
C4 C5 1.351 . S
C4 H21 0.930 . S
C5 N1 1.389 . S
C5 C4 1.351 . S
C5 H10 0.930 . S
O6 Cu0 1.974 1_655 S
O6 C16 1.282 1_655 S
C7 O8 1.261 . S
C7 O20 1.251 . S
O8 C7 1.261 . S
H9 C3 0.930 . S
H10 C5 0.930 . S
N11 Cu0 1.985 . S
N11 C13 1.335 . S
N11 C14 1.390 . S
N12 C13 1.345 . S
N12 C15 1.336 . S
C13 N11 1.335 . S
C13 N12 1.345 . S
C13 H18 0.930 . S
C14 N11 1.390 . S
C14 C15 1.346 . S
C14 H19 0.930 . S
C15 N12 1.336 . S
C15 C14 1.346 . S
C15 H22 0.929 . S
C16 O6 1.282 1_455 S
C16 O17 1.216 . S
O17 C16 1.216 . S
H18 C13 0.930 . S
H19 C14 0.930 . S
O20 Cu0 1.959 . S
O20 C7 1.251 . S
H21 C4 0.930 . S
H22 C15 0.929 . S
Cu23 N24 1.999 . S
Cu23 O29 1.974 . S
Cu23 N34 1.985 . S
Cu23 O43 1.959 . S
N24 Cu23 1.999 . S
N24 C26 1.263 . S
N24 C28 1.389 . S
N25 C26 1.358 . S
N25 C27 1.400 . S
C26 N24 1.263 . S
C26 N25 1.358 . S
C26 H32 0.930 . S
C27 N25 1.400 . S
C27 C28 1.351 . S
C27 H44 0.930 . S
C28 N24 1.389 . S
C28 C27 1.351 . S
C28 H33 0.930 . S
O29 Cu23 1.974 . S
O29 C39 1.282 . S
C30 O31 1.261 . S
C30 O43 1.251 . S
O31 C30 1.261 . S
H32 C26 0.930 . S
H33 C28 0.930 . S
N34 Cu23 1.985 . S
N34 C36 1.335 . S
N34 C37 1.390 . S
N35 C36 1.345 . S
N35 C38 1.336 . S
C36 N34 1.335 . S
C36 N35 1.345 . S
C36 H41 0.930 . S
C37 N34 1.390 . S
C37 C38 1.346 . S
C37 H42 0.930 . S
C38 N35 1.336 . S
C38 C37 1.346 . S
C38 H45 0.929 . S
C39 O29 1.282 . S
C39 O40 1.216 . S
O40 C39 1.216 . S
H41 C36 0.930 . S
H42 C37 0.930 . S
O43 Cu23 1.959 . S
O43 C30 1.251 . S
H44 C27 0.930 . S
H45 C38 0.929 . S
Cu46 N47 1.999 . S
Cu46 O52 1.974 . S
Cu46 N57 1.985 . S
Cu46 O66 1.959 . S
N47 Cu46 1.999 . S
N47 C49 1.263 . S
N47 C51 1.389 . S
N48 C49 1.358 . S
N48 C50 1.400 . S
C49 N47 1.263 . S
C49 N48 1.358 . S
C49 H55 0.930 . S
C50 N48 1.400 . S
C50 C51 1.351 . S
C50 H67 0.930 . S
C51 N47 1.389 . S
C51 C50 1.351 . S
C51 H56 0.930 . S
O52 Cu46 1.974 . S
O52 C62 1.282 . S
C53 O54 1.261 . S
C53 O66 1.251 . S
O54 C53 1.261 . S
H55 C49 0.930 . S
H56 C51 0.930 . S
N57 Cu46 1.985 . S
N57 C59 1.335 . S
N57 C60 1.390 . S
N58 C59 1.345 1_565 S
N58 C61 1.336 1_565 S
C59 N57 1.335 . S
C59 N58 1.345 1_545 S
C59 H64 0.930 . S
C60 N57 1.390 . S
C60 C61 1.346 . S
C60 H65 0.930 . S
C61 N58 1.336 1_545 S
C61 C60 1.346 . S
C61 H68 0.937 . S
C62 O52 1.282 . S
C62 O63 1.216 . S
O63 C62 1.216 . S
H64 C59 0.930 . S
H65 C60 0.930 . S
O66 Cu46 1.959 . S
O66 C53 1.251 . S
H67 C50 0.930 . S
H68 C61 0.937 . S
Cu69 N70 1.999 . S
Cu69 O75 1.974 . S
Cu69 N80 1.985 . S
Cu69 O89 1.959 . S
N70 Cu69 1.999 . S
N70 C72 1.263 . S
N70 C74 1.389 . S
N71 C72 1.358 . S
N71 C73 1.400 . S
C72 N70 1.263 . S
C72 N71 1.358 . S
C72 H78 0.930 . S
C73 N71 1.400 . S
C73 C74 1.351 . S
C73 H90 0.930 . S
C74 N70 1.389 . S
C74 C73 1.351 . S
C74 H79 0.930 . S
O75 Cu69 1.974 . S
O75 C85 1.282 . S
C76 O77 1.261 . S
C76 O89 1.251 . S
O77 C76 1.261 . S
H78 C72 0.930 . S
H79 C74 0.930 . S
N80 Cu69 1.985 . S
N80 C82 1.335 . S
N80 C83 1.390 . S
N81 C82 1.345 1_545 S
N81 C84 1.336 . S
C82 N80 1.335 . S
C82 N81 1.345 1_565 S
C82 H87 0.930 . S
C83 N80 1.390 . S
C83 C84 1.346 1_565 S
C83 H88 0.930 . S
C84 N81 1.336 . S
C84 C83 1.346 1_545 S
C84 H91 0.929 . S
C85 O75 1.282 . S
C85 O86 1.216 . S
O86 C85 1.216 . S
H87 C82 0.930 . S
H88 C83 0.930 . S
O89 Cu69 1.959 . S
O89 C76 1.251 . S
H90 C73 0.930 . S
H91 C84 0.929 . S
Cu92 N93 1.999 . S
Cu92 O98 1.974 . S
Cu92 N103 1.985 . S
Cu92 O112 1.959 . S
N93 Cu92 1.999 . S
N93 C95 1.263 . S
N93 C97 1.389 . S
N94 C95 1.358 . S
N94 C96 1.400 . S
C95 N93 1.263 . S
C95 N94 1.358 . S
C95 H101 0.930 . S
C96 N94 1.400 . S
C96 C97 1.351 . S
C96 H113 0.930 . S
C97 N93 1.389 . S
C97 C96 1.351 . S
C97 H102 0.930 . S
O98 Cu92 1.974 . S
O98 C108 1.282 . S
C99 O100 1.261 . S
C99 O112 1.251 . S
O100 C99 1.261 . S
H101 C95 0.930 . S
H102 C97 0.930 . S
N103 Cu92 1.985 . S
N103 C105 1.335 . S
N103 C106 1.390 . S
N104 C105 1.345 1_565 S
N104 C107 1.342 . S
C105 N103 1.335 . S
C105 N104 1.345 1_545 S
C105 H110 0.930 . S
C106 N103 1.390 . S
C106 C107 1.324 1_545 S
C106 H111 0.930 . S
C107 N104 1.342 . S
C107 C106 1.324 1_565 S
C107 H114 0.944 . S
C108 O98 1.282 . S
C108 O109 1.216 . S
O109 C108 1.216 . S
H110 C105 0.930 . S
H111 C106 0.930 . S
O112 Cu92 1.959 . S
O112 C99 1.251 . S
H113 C96 0.930 . S
H114 C107 0.944 . S
Cu115 N116 1.999 . S
Cu115 O121 1.974 . S
Cu115 N126 1.985 . S
Cu115 O135 1.959 . S
N116 Cu115 1.999 . S
N116 C118 1.263 . S
N116 C120 1.389 . S
N117 C118 1.358 . S
N117 C119 1.400 . S
C118 N116 1.263 . S
C118 N117 1.358 . S
C118 H124 0.930 . S
C119 N117 1.400 . S
C119 C120 1.351 . S
C119 H136 0.930 . S
C120 N116 1.389 . S
C120 C119 1.351 . S
C120 H125 0.930 . S
O121 Cu115 1.974 . S
O121 C131 1.282 1_655 S
C122 O123 1.261 . S
C122 O135 1.251 . S
O123 C122 1.261 . S
H124 C118 0.930 . S
H125 C120 0.930 . S
N126 Cu115 1.985 . S
N126 C128 1.335 . S
N126 C129 1.390 . S
N127 C128 1.345 . S
N127 C130 1.336 . S
C128 N126 1.335 . S
C128 N127 1.345 . S
C128 H133 0.930 . S
C129 N126 1.390 . S
C129 C130 1.346 . S
C129 H134 0.930 1_655 S
C130 N127 1.336 . S
C130 C129 1.346 . S
C130 H137 0.929 . S
C131 O121 1.282 1_455 S
C131 O132 1.216 . S
O132 C131 1.216 . S
H133 C128 0.930 . S
H134 C129 0.930 1_455 S
O135 Cu115 1.959 . S
O135 C122 1.251 . S
H136 C119 0.930 . S
H137 C130 0.929 . S
Cu138 N139 1.999 . S
Cu138 O144 1.974 . S
Cu138 N149 1.985 . S
Cu138 O158 1.959 . S
N139 Cu138 1.999 . S
N139 C141 1.263 . S
N139 C143 1.389 . S
N140 C141 1.358 . S
N140 C142 1.400 . S
C141 N139 1.263 . S
C141 N140 1.358 . S
C141 H147 0.930 . S
C142 N140 1.400 . S
C142 C143 1.351 . S
C142 H159 0.930 . S
C143 N139 1.389 . S
C143 C142 1.351 . S
C143 H148 0.930 . S
O144 Cu138 1.974 . S
O144 C154 1.282 . S
C145 O146 1.261 . S
C145 O158 1.251 . S
O146 C145 1.261 . S
H147 C141 0.930 . S
H148 C143 0.930 . S
N149 Cu138 1.985 . S
N149 C151 1.335 . S
N149 C152 1.390 . S
N150 C151 1.345 . S
N150 C153 1.336 . S
C151 N149 1.335 . S
C151 N150 1.345 . S
C151 H156 0.930 . S
C152 N149 1.390 . S
C152 C153 1.346 . S
C152 H157 0.930 . S
C153 N150 1.336 . S
C153 C152 1.346 . S
C153 H160 0.929 . S
C154 O144 1.282 . S
C154 O155 1.216 . S
O155 C154 1.216 . S
H156 C151 0.930 . S
H157 C152 0.930 . S
O158 Cu138 1.959 . S
O158 C145 1.251 . S
H159 C142 0.930 . S
H160 C153 0.929 . S
Cu161 N162 1.999 . S
Cu161 O167 1.974 . S
Cu161 N172 1.985 . S
Cu161 O181 1.959 . S
N162 Cu161 1.999 . S
N162 C164 1.263 . S
N162 C166 1.389 . S
N163 C164 1.358 . S
N163 C165 1.400 . S
C164 N162 1.263 . S
C164 N163 1.358 . S
C164 H170 0.930 . S
C165 N163 1.400 . S
C165 C166 1.351 . S
C165 H182 0.930 . S
C166 N162 1.389 . S
C166 C165 1.351 . S
C166 H171 0.930 . S
O167 Cu161 1.974 . S
O167 C177 1.282 . S
C168 O169 1.261 . S
C168 O181 1.251 . S
O169 C168 1.261 . S
H170 C164 0.930 . S
H171 C166 0.930 . S
N172 Cu161 1.985 . S
N172 C174 1.335 . S
N172 C175 1.390 . S
N173 C174 1.345 . S
N173 C176 1.336 . S
C174 N172 1.335 . S
C174 N173 1.345 . S
C174 H179 0.930 . S
C175 N172 1.390 . S
C175 C176 1.346 . S
C175 H180 0.930 . S
C176 N173 1.336 . S
C176 C175 1.346 . S
C176 H183 0.929 1_565 S
C177 O167 1.282 . S
C177 O178 1.216 . S
O178 C177 1.216 . S
H179 C174 0.930 . S
H180 C175 0.930 . S
O181 Cu161 1.959 . S
O181 C168 1.251 . S
H182 C165 0.930 . S
H183 C176 0.929 1_545 S
Cu184 N185 1.999 . S
Cu184 O190 1.974 . S
Cu184 N195 1.985 . S
Cu184 O204 1.959 . S
N185 Cu184 1.999 . S
N185 C187 1.263 . S
N185 C189 1.389 . S
N186 C187 1.358 . S
N186 C188 1.400 . S
C187 N185 1.263 . S
C187 N186 1.358 . S
C187 H193 0.930 . S
C188 N186 1.400 . S
C188 C189 1.351 . S
C188 H205 0.930 . S
C189 N185 1.389 . S
C189 C188 1.351 . S
C189 H194 0.930 . S
O190 Cu184 1.974 . S
O190 C200 1.282 . S
C191 O192 1.261 . S
C191 O204 1.251 . S
O192 C191 1.261 . S
H193 C187 0.930 . S
H194 C189 0.930 . S
N195 Cu184 1.985 . S
N195 C197 1.335 . S
N195 C198 1.390 . S
N196 C197 1.345 . S
N196 C199 1.336 . S
C197 N195 1.335 . S
C197 N196 1.345 . S
C197 H202 0.930 . S
C198 N195 1.390 . S
C198 C199 1.346 . S
C198 H203 0.930 . S
C199 N196 1.336 . S
C199 C198 1.346 . S
C199 H206 0.929 1_545 S
C200 O190 1.282 . S
C200 O201 1.216 . S
O201 C200 1.216 . S
H202 C197 0.930 . S
H203 C198 0.930 . S
O204 Cu184 1.959 . S
O204 C191 1.251 . S
H205 C188 0.930 . S
H206 C199 0.929 1_565 S
Cu207 N208 1.999 . S
Cu207 O213 1.974 . S
Cu207 N218 1.985 . S
Cu207 O227 1.959 . S
N208 Cu207 1.999 . S
N208 C210 1.263 . S
N208 C212 1.389 . S
N209 C210 1.358 . S
N209 C211 1.400 . S
C210 N208 1.263 . S
C210 N209 1.358 . S
C210 H216 0.930 . S
C211 N209 1.400 . S
C211 C212 1.351 . S
C211 H228 0.930 . S
C212 N208 1.389 . S
C212 C211 1.351 . S
C212 H217 0.930 . S
O213 Cu207 1.974 . S
O213 C223 1.282 . S
C214 O215 1.261 . S
C214 O227 1.251 . S
O215 C214 1.261 . S
H216 C210 0.930 . S
H217 C212 0.930 . S
N218 Cu207 1.985 . S
N218 C220 1.335 . S
N218 C221 1.390 . S
N219 C220 1.345 1_554 S
N219 C222 1.336 1_554 S
C220 N218 1.335 . S
C220 N219 1.345 1_556 S
C220 H225 0.930 . S
C221 N218 1.390 . S
C221 C222 1.346 . S
C221 H226 0.930 . S
C222 N219 1.336 1_556 S
C222 C221 1.346 . S
C222 H229 0.929 1_556 S
C223 O213 1.282 . S
C223 O224 1.216 . S
O224 C223 1.216 . S
H225 C220 0.930 . S
H226 C221 0.930 . S
O227 Cu207 1.959 . S
O227 C214 1.251 . S
H228 C211 0.930 . S
H229 C222 0.929 1_554 S
Cu230 N231 1.999 . S
Cu230 O236 1.974 . S
Cu230 N241 1.985 . S
Cu230 O250 1.959 . S
N231 Cu230 1.999 . S
N231 C233 1.263 . S
N231 C235 1.389 . S
N232 C233 1.358 . S
N232 C234 1.400 . S
C233 N231 1.263 . S
C233 N232 1.358 . S
C233 H239 0.930 . S
C234 N232 1.400 . S
C234 C235 1.351 . S
C234 H251 0.930 . S
C235 N231 1.389 . S
C235 C234 1.351 . S
C235 H240 0.930 . S
O236 Cu230 1.974 . S
O236 C246 1.282 . S
C237 O238 1.261 . S
C237 O250 1.251 . S
O238 C237 1.261 . S
H239 C233 0.930 . S
H240 C235 0.930 . S
N241 Cu230 1.985 . S
N241 C243 1.335 . S
N241 C244 1.390 . S
N242 C243 1.345 . S
N242 C245 1.336 . S
C243 N241 1.335 . S
C243 N242 1.345 . S
C243 H248 0.930 . S
C244 N241 1.390 . S
C244 C245 1.346 . S
C244 H249 0.930 . S
C245 N242 1.336 . S
C245 C244 1.346 . S
C245 H252 0.929 . S
C246 O236 1.282 . S
C246 O247 1.216 . S
O247 C246 1.216 . S
H248 C243 0.930 . S
H249 C244 0.930 . S
O250 Cu230 1.959 . S
O250 C237 1.251 . S
H251 C234 0.930 . S
H252 C245 0.929 . S
Cu253 N254 1.999 . S
Cu253 O259 1.974 . S
Cu253 N264 1.985 . S
Cu253 O273 1.959 . S
N254 Cu253 1.999 . S
N254 C256 1.263 . S
N254 C258 1.389 . S
N255 C256 1.358 . S
N255 C257 1.400 . S
C256 N254 1.263 . S
C256 N255 1.358 . S
C256 H262 0.930 . S
C257 N255 1.400 . S
C257 C258 1.351 . S
C257 H274 0.930 . S
C258 N254 1.389 . S
C258 C257 1.351 . S
C258 H263 0.930 . S
O259 Cu253 1.974 . S
O259 C269 1.282 . S
C260 O261 1.261 . S
C260 O273 1.251 . S
O261 C260 1.261 . S
H262 C256 0.930 . S
H263 C258 0.930 . S
N264 Cu253 1.985 . S
N264 C266 1.335 . S
N264 C267 1.390 . S
N265 C266 1.345 1_554 S
N265 C268 1.336 1_554 S
C266 N264 1.335 . S
C266 N265 1.345 1_556 S
C266 H271 0.930 . S
C267 N264 1.390 . S
C267 C268 1.346 . S
C267 H272 0.930 . S
C268 N265 1.336 1_556 S
C268 C267 1.346 . S
C268 H275 0.929 1_556 S
C269 O259 1.282 . S
C269 O270 1.216 . S
O270 C269 1.216 . S
H271 C266 0.930 . S
H272 C267 0.930 . S
O273 Cu253 1.959 . S
O273 C260 1.251 . S
H274 C257 0.930 . S
H275 C268 0.929 1_554 S
Cu276 N277 1.999 . S
Cu276 O282 1.974 . S
Cu276 N287 1.985 . S
Cu276 O296 1.959 . S
N277 Cu276 1.999 . S
N277 C279 1.263 . S
N277 C281 1.389 . S
N278 C279 1.358 . S
N278 C280 1.400 . S
C279 N277 1.263 . S
C279 N278 1.358 . S
C279 H285 0.930 . S
C280 N278 1.400 . S
C280 C281 1.351 . S
C280 H297 0.930 . S
C281 N277 1.389 . S
C281 C280 1.351 . S
C281 H286 0.930 . S
O282 Cu276 1.974 . S
O282 C292 1.282 . S
C283 O284 1.261 . S
C283 O296 1.251 . S
O284 C283 1.261 . S
H285 C279 0.930 . S
H286 C281 0.930 . S
N287 Cu276 1.985 . S
N287 C289 1.335 . S
N287 C290 1.390 . S
N288 C289 1.345 . S
N288 C291 1.336 . S
C289 N287 1.335 . S
C289 N288 1.345 . S
C289 H294 0.930 . S
C290 N287 1.390 . S
C290 C291 1.346 . S
C290 H295 0.930 . S
C291 N288 1.336 . S
C291 C290 1.346 . S
C291 H298 0.929 . S
C292 O282 1.282 . S
C292 O293 1.216 . S
O293 C292 1.216 . S
H294 C289 0.930 . S
H295 C290 0.930 . S
O296 Cu276 1.959 . S
O296 C283 1.251 . S
H297 C280 0.930 . S
H298 C291 0.929 . S
Cu299 N300 1.999 . S
Cu299 O305 1.974 . S
Cu299 N310 1.985 . S
Cu299 O319 1.959 . S
N300 Cu299 1.999 . S
N300 C302 1.263 . S
N300 C304 1.389 . S
N301 C302 1.358 . S
N301 C303 1.400 . S
C302 N300 1.263 . S
C302 N301 1.358 . S
C302 H308 0.930 . S
C303 N301 1.400 . S
C303 C304 1.351 . S
C303 H320 0.930 . S
C304 N300 1.389 . S
C304 C303 1.351 . S
C304 H309 0.930 . S
O305 Cu299 1.974 . S
O305 C315 1.282 . S
C306 O307 1.261 . S
C306 O319 1.251 . S
O307 C306 1.261 . S
H308 C302 0.930 . S
H309 C304 0.930 . S
N310 Cu299 1.985 . S
N310 C312 1.335 . S
N310 C313 1.390 . S
N311 C312 1.345 . S
N311 C314 1.336 . S
C312 N310 1.335 . S
C312 N311 1.345 . S
C312 H317 0.930 . S
C313 N310 1.390 . S
C313 C314 1.346 . S
C313 H318 0.930 . S
C314 N311 1.336 . S
C314 C313 1.346 . S
C314 H321 0.929 . S
C315 O305 1.282 . S
C315 O316 1.216 . S
O316 C315 1.216 . S
H317 C312 0.930 . S
H318 C313 0.930 . S
O319 Cu299 1.959 . S
O319 C306 1.251 . S
H320 C303 0.930 . S
H321 C314 0.929 . S
Cu322 N323 1.999 . S
Cu322 O328 1.974 . S
Cu322 N333 1.985 . S
Cu322 O342 1.959 . S
N323 Cu322 1.999 . S
N323 C325 1.263 . S
N323 C327 1.389 . S
N324 C325 1.358 . S
N324 C326 1.400 . S
C325 N323 1.263 . S
C325 N324 1.358 . S
C325 H331 0.930 . S
C326 N324 1.400 . S
C326 C327 1.351 . S
C326 H343 0.930 . S
C327 N323 1.389 . S
C327 C326 1.351 . S
C327 H332 0.930 . S
O328 Cu322 1.974 . S
O328 C338 1.282 . S
C329 O330 1.261 . S
C329 O342 1.251 . S
O330 C329 1.261 . S
H331 C325 0.930 . S
H332 C327 0.930 . S
N333 Cu322 1.985 . S
N333 C335 1.335 . S
N333 C336 1.390 . S
N334 C335 1.345 . S
N334 C337 1.336 . S
C335 N333 1.335 . S
C335 N334 1.345 . S
C335 H340 0.930 . S
C336 N333 1.390 . S
C336 C337 1.346 . S
C336 H341 0.930 . S
C337 N334 1.336 . S
C337 C336 1.346 . S
C337 H344 0.929 . S
C338 O328 1.282 . S
C338 O339 1.216 . S
O339 C338 1.216 . S
H340 C335 0.930 . S
H341 C336 0.930 . S
O342 Cu322 1.959 . S
O342 C329 1.251 . S
H343 C326 0.930 . S
H344 C337 0.929 . S
Cu345 N346 1.999 . S
Cu345 O351 1.974 . S
Cu345 N356 1.985 . S
Cu345 O365 1.959 . S
N346 Cu345 1.999 . S
N346 C348 1.263 . S
N346 C350 1.389 . S
N347 C348 1.358 . S
N347 C349 1.400 . S
C348 N346 1.263 . S
C348 N347 1.358 . S
C348 H354 0.930 . S
C349 N347 1.400 . S
C349 C350 1.351 . S
C349 H366 0.930 . S
C350 N346 1.389 . S
C350 C349 1.351 . S
C350 H355 0.930 . S
O351 Cu345 1.974 . S
O351 C361 1.282 . S
C352 O353 1.261 . S
C352 O365 1.251 . S
O353 C352 1.261 . S
H354 C348 0.930 . S
H355 C350 0.930 . S
N356 Cu345 1.985 . S
N356 C358 1.335 . S
N356 C359 1.390 . S
N357 C358 1.345 . S
N357 C360 1.336 . S
C358 N356 1.335 . S
C358 N357 1.345 . S
C358 H363 0.930 . S
C359 N356 1.390 . S
C359 C360 1.346 . S
C359 H364 0.930 . S
C360 N357 1.336 . S
C360 C359 1.346 . S
C360 H367 0.929 . S
C361 O351 1.282 . S
C361 O362 1.216 . S
O362 C361 1.216 . S
H363 C358 0.930 . S
H364 C359 0.930 . S
O365 Cu345 1.959 . S
O365 C352 1.251 . S
H366 C349 0.930 . S
H367 C360 0.929 . S
Cu368 N369 1.999 . S
Cu368 O374 1.974 . S
Cu368 N379 1.985 . S
Cu368 O388 1.959 . S
N369 Cu368 1.999 . S
N369 C371 1.263 . S
N369 C373 1.389 . S
N370 C371 1.358 . S
N370 C372 1.400 . S
C371 N369 1.263 . S
C371 N370 1.358 . S
C371 H377 0.930 . S
C372 N370 1.400 . S
C372 C373 1.351 . S
C372 H389 0.930 . S
C373 N369 1.389 . S
C373 C372 1.351 . S
C373 H378 0.930 . S
O374 Cu368 1.974 . S
O374 C384 1.282 . S
C375 O376 1.261 . S
C375 O388 1.251 . S
O376 C375 1.261 . S
H377 C371 0.930 . S
H378 C373 0.930 . S
N379 Cu368 1.985 . S
N379 C381 1.335 . S
N379 C382 1.390 . S
N380 C381 1.345 1_556 S
N380 C383 1.337 . S
C381 N379 1.335 . S
C381 N380 1.345 1_554 S
C381 H386 0.930 . S
C382 N379 1.390 . S
C382 C383 1.333 1_554 S
C382 H387 0.930 . S
C383 N380 1.337 . S
C383 C382 1.333 1_556 S
C383 H390 0.940 . S
C384 O374 1.282 . S
C384 O385 1.216 . S
O385 C384 1.216 . S
H386 C381 0.930 . S
H387 C382 0.930 . S
O388 Cu368 1.959 . S
O388 C375 1.251 . S
H389 C372 0.930 . S
H390 C383 0.940 . S
Cu391 N392 1.999 . S
Cu391 O397 1.974 . S
Cu391 N402 1.985 . S
Cu391 O411 1.959 . S
N392 Cu391 1.999 . S
N392 C394 1.263 . S
N392 C396 1.389 . S
N393 C394 1.358 . S
N393 C395 1.400 . S
C394 N392 1.263 . S
C394 N393 1.358 . S
C394 H400 0.930 . S
C395 N393 1.400 . S
C395 C396 1.351 . S
C395 H412 0.930 . S
C396 N392 1.389 . S
C396 C395 1.351 . S
C396 H401 0.930 . S
O397 Cu391 1.974 . S
O397 C407 1.282 . S
C398 O399 1.261 . S
C398 O411 1.251 . S
O399 C398 1.261 . S
H400 C394 0.930 . S
H401 C396 0.930 . S
N402 Cu391 1.985 . S
N402 C404 1.335 . S
N402 C405 1.390 . S
N403 C404 1.345 . S
N403 C406 1.336 . S
C404 N402 1.335 . S
C404 N403 1.345 . S
C404 H409 0.930 . S
C405 N402 1.390 . S
C405 C406 1.346 . S
C405 H410 0.930 . S
C406 N403 1.336 . S
C406 C405 1.346 . S
C406 H413 0.929 . S
C407 O397 1.282 . S
C407 O408 1.216 . S
O408 C407 1.216 . S
H409 C404 0.930 . S
H410 C405 0.930 . S
O411 Cu391 1.959 . S
O411 C398 1.251 . S
H412 C395 0.930 . S
H413 C406 0.929 . S
Cu414 N415 1.999 . S
Cu414 O420 1.974 . S
Cu414 N425 1.985 . S
Cu414 O434 1.959 . S
N415 Cu414 1.999 . S
N415 C417 1.263 . S
N415 C419 1.389 . S
N416 C417 1.358 . S
N416 C418 1.400 . S
C417 N415 1.263 . S
C417 N416 1.358 . S
C417 H423 0.930 . S
C418 N416 1.400 . S
C418 C419 1.351 . S
C418 H435 0.930 . S
C419 N415 1.389 . S
C419 C418 1.351 . S
C419 H424 0.930 . S
O420 Cu414 1.974 . S
O420 C430 1.282 . S
C421 O422 1.261 . S
C421 O434 1.251 . S
O422 C421 1.261 . S
H423 C417 0.930 . S
H424 C419 0.930 . S
N425 Cu414 1.985 . S
N425 C427 1.335 . S
N425 C428 1.390 . S
N426 C427 1.345 . S
N426 C429 1.336 . S
C427 N425 1.335 . S
C427 N426 1.345 . S
C427 H432 0.930 . S
C428 N425 1.390 . S
C428 C429 1.346 . S
C428 H433 0.930 . S
C429 N426 1.336 . S
C429 C428 1.346 . S
C429 H436 0.929 . S
C430 O420 1.282 . S
C430 O431 1.216 . S
O431 C430 1.216 . S
H432 C427 0.930 . S
H433 C428 0.930 . S
O434 Cu414 1.959 . S
O434 C421 1.251 . S
H435 C418 0.930 . S
H436 C429 0.929 . S
Cu437 N438 1.999 . S
Cu437 O443 1.974 . S
Cu437 N448 1.985 . S
Cu437 O457 1.959 . S
N438 Cu437 1.999 . S
N438 C440 1.263 . S
N438 C442 1.389 . S
N439 C440 1.358 . S
N439 C441 1.400 . S
C440 N438 1.263 . S
C440 N439 1.358 . S
C440 H446 0.930 . S
C441 N439 1.400 . S
C441 C442 1.351 . S
C441 H458 0.930 . S
C442 N438 1.389 . S
C442 C441 1.351 . S
C442 H447 0.930 . S
O443 Cu437 1.974 . S
O443 C453 1.282 . S
C444 O445 1.261 . S
C444 O457 1.251 . S
O445 C444 1.261 . S
H446 C440 0.930 . S
H447 C442 0.930 . S
N448 Cu437 1.985 . S
N448 C450 1.335 . S
N448 C451 1.390 . S
N449 C450 1.345 . S
N449 C452 1.336 . S
C450 N448 1.335 . S
C450 N449 1.345 . S
C450 H455 0.930 . S
C451 N448 1.390 . S
C451 C452 1.346 . S
C451 H456 0.930 . S
C452 N449 1.336 . S
C452 C451 1.346 . S
C452 H459 0.929 . S
C453 O443 1.282 . S
C453 O454 1.216 1_455 S
O454 C453 1.216 1_655 S
H455 C450 0.930 . S
H456 C451 0.930 . S
O457 Cu437 1.959 . S
O457 C444 1.251 . S
H458 C441 0.930 . S
H459 C452 0.929 . S
Cu460 N461 1.999 . S
Cu460 O466 1.974 . S
Cu460 N471 1.985 . S
Cu460 O480 1.959 . S
N461 Cu460 1.999 . S
N461 C463 1.263 . S
N461 C465 1.389 . S
N462 C463 1.358 . S
N462 C464 1.400 . S
C463 N461 1.263 . S
C463 N462 1.358 . S
C463 H469 0.930 . S
C464 N462 1.400 . S
C464 C465 1.351 . S
C464 H481 0.930 . S
C465 N461 1.389 . S
C465 C464 1.351 . S
C465 H470 0.930 . S
O466 Cu460 1.974 . S
O466 C476 1.282 . S
C467 O468 1.261 . S
C467 O480 1.251 . S
O468 C467 1.261 . S
H469 C463 0.930 . S
H470 C465 0.930 . S
N471 Cu460 1.985 . S
N471 C473 1.335 . S
N471 C474 1.390 . S
N472 C473 1.345 . S
N472 C475 1.336 . S
C473 N471 1.335 . S
C473 N472 1.345 . S
C473 H478 0.930 . S
C474 N471 1.390 . S
C474 C475 1.346 . S
C474 H479 0.930 . S
C475 N472 1.336 . S
C475 C474 1.346 . S
C475 H482 0.929 . S
C476 O466 1.282 . S
C476 O477 1.216 . S
O477 C476 1.216 . S
H478 C473 0.930 . S
H479 C474 0.930 . S
O480 Cu460 1.959 . S
O480 C467 1.251 . S
H481 C464 0.930 . S
H482 C475 0.929 . S
Cu483 N484 1.999 . S
Cu483 O489 1.974 . S
Cu483 N494 1.985 . S
Cu483 O503 1.959 . S
N484 Cu483 1.999 . S
N484 C486 1.263 . S
N484 C488 1.389 . S
N485 C486 1.358 . S
N485 C487 1.400 . S
C486 N484 1.263 . S
C486 N485 1.358 . S
C486 H492 0.930 . S
C487 N485 1.400 . S
C487 C488 1.351 . S
C487 H504 0.930 . S
C488 N484 1.389 . S
C488 C487 1.351 . S
C488 H493 0.930 . S
O489 Cu483 1.974 . S
O489 C499 1.282 1_455 S
C490 O491 1.261 . S
C490 O503 1.251 . S
O491 C490 1.261 . S
H492 C486 0.930 . S
H493 C488 0.930 . S
N494 Cu483 1.985 . S
N494 C496 1.335 . S
N494 C497 1.390 . S
N495 C496 1.345 1_556 S
N495 C498 1.337 . S
C496 N494 1.335 . S
C496 N495 1.345 1_554 S
C496 H501 0.930 . S
C497 N494 1.390 . S
C497 C498 1.333 1_554 S
C497 H502 0.930 . S
C498 N495 1.337 . S
C498 C497 1.333 1_556 S
C498 H505 0.940 . S
C499 O489 1.282 1_655 S
C499 O500 1.216 . S
O500 C499 1.216 . S
H501 C496 0.930 . S
H502 C497 0.930 . S
O503 Cu483 1.959 . S
O503 C490 1.251 . S
H504 C487 0.930 . S
H505 C498 0.940 . S
Cu506 N507 1.999 . S
Cu506 O512 1.974 . S
Cu506 N517 1.985 . S
Cu506 O526 1.959 . S
N507 Cu506 1.999 . S
N507 C509 1.263 . S
N507 C511 1.389 . S
N508 C509 1.358 . S
N508 C510 1.400 . S
C509 N507 1.263 . S
C509 N508 1.358 . S
C509 H515 0.930 . S
C510 N508 1.400 . S
C510 C511 1.351 . S
C510 H527 0.930 . S
C511 N507 1.389 . S
C511 C510 1.351 . S
C511 H516 0.930 . S
O512 Cu506 1.974 . S
O512 C522 1.282 . S
C513 O514 1.261 . S
C513 O526 1.251 . S
O514 C513 1.261 . S
H515 C509 0.930 . S
H516 C511 0.930 . S
N517 Cu506 1.985 . S
N517 C519 1.335 . S
N517 C520 1.390 . S
N518 C519 1.345 . S
N518 C521 1.336 . S
C519 N517 1.335 . S
C519 N518 1.345 . S
C519 H524 0.930 . S
C520 N517 1.390 . S
C520 C521 1.346 . S
C520 H525 0.930 . S
C521 N518 1.336 . S
C521 C520 1.346 . S
C521 H528 0.929 . S
C522 O512 1.282 . S
C522 O523 1.216 . S
O523 C522 1.216 . S
H524 C519 0.930 . S
H525 C520 0.930 . S
O526 Cu506 1.959 . S
O526 C513 1.251 . S
H527 C510 0.930 . S
H528 C521 0.929 . S
Cu529 N530 1.999 . S
Cu529 O535 1.974 . S
Cu529 N540 1.985 . S
Cu529 O549 1.959 . S
N530 Cu529 1.999 . S
N530 C532 1.263 . S
N530 C534 1.389 . S
N531 C532 1.358 . S
N531 C533 1.400 . S
C532 N530 1.263 . S
C532 N531 1.358 . S
C532 H538 0.930 . S
C533 N531 1.400 . S
C533 C534 1.351 . S
C533 H550 0.930 . S
C534 N530 1.389 . S
C534 C533 1.351 . S
C534 H539 0.930 . S
O535 Cu529 1.974 . S
O535 C545 1.282 . S
C536 O537 1.261 . S
C536 O549 1.251 . S
O537 C536 1.261 . S
H538 C532 0.930 . S
H539 C534 0.930 . S
N540 Cu529 1.985 . S
N540 C542 1.335 . S
N540 C543 1.390 . S
N541 C542 1.345 . S
N541 C544 1.336 . S
C542 N540 1.335 . S
C542 N541 1.345 . S
C542 H547 0.930 . S
C543 N540 1.390 . S
C543 C544 1.346 . S
C543 H548 0.930 . S
C544 N541 1.336 . S
C544 C543 1.346 . S
C544 H551 0.915 1_565 S
C545 O535 1.282 . S
C545 O546 1.216 . S
O546 C545 1.216 . S
H547 C542 0.930 . S
H548 C543 0.930 . S
O549 Cu529 1.959 . S
O549 C536 1.251 . S
H550 C533 0.930 . S
H551 C544 0.915 1_545 S
N94 N2 2.191 . S
C30 C122 2.330 . S
N140 N48 2.192 . S
C168 C76 2.330 . S
N324 C191 2.426 . S
N347 N209 2.130 . S
C237 N278 2.427 . S
N301 N255 2.130 . S
C375 C490 2.055 . S
C398 C444 2.687 . S
C421 C467 2.576 . S
N508 N531 2.542 . S
N71 N117 1.551 . S
C7 C145 1.830 . S
N163 N25 1.551 . S
C53 C99 1.830 . S
C536 N416 1.448 . S
N439 N485 1.364 . S
N462 C513 1.448 . S
N393 N370 1.364 . S
C260 C214 1.503 . S
C352 C306 2.106 . S
C283 C329 2.086 . S
N232 N186 0.832 . S
N518 N12 2.918 . S
C384 C39 2.619 . S
N541 N58 2.918 . S
C499 C85 2.619 . S
C430 N104 2.037 . S
C131 C453 3.038 . S
C476 N150 2.038 . S
C407 C177 3.039 . S
N311 C200 2.590 . S
N334 N219 2.303 . S
N357 C246 2.590 . S
N265 N288 2.304 . S
N127 N242 2.123 . S
C154 C269 1.424 . S
N196 N173 2.123 1_545 S
C108 C223 1.424 1_455 S
C338 N81 1.588 . S
C16 C361 1.627 1_455 S
C292 N35 1.588 . S
C62 C315 1.628 . S
N403 C545 1.550 . S
N495 N426 1.705 . S
C522 N449 1.549 . S
N380 N472 1.706 . S
