# Generated by pormake.
# Topology svo, (7)-cn, num edge types: 1
# Building blocks:
#     Node 0, Type 0, BuildingBlock: HICVOG_clean_sbu_0, # of connection points: 7
#     Node 1, Type 0, BuildingBlock: HICVOG_clean_sbu_0, # of connection points: 7
#     Node 2, Type 0, BuildingBlock: HICVOG_clean_sbu_0, # of connection points: 7
#     Node 3, Type 0, BuildingBlock: HICVOG_clean_sbu_0, # of connection points: 7
#     Node 4, Type 0, BuildingBlock: HICVOG_clean_sbu_0, # of connection points: 7
#     Node 5, Type 0, BuildingBlock: HICVOG_clean_sbu_0, # of connection points: 7
#     Node 6, Type 0, BuildingBlock: HICVOG_clean_sbu_0, # of connection points: 7
#     Node 7, Type 0, BuildingBlock: HICVOG_clean_sbu_0, # of connection points: 7
#     Node 8, Type 0, BuildingBlock: HICVOG_clean_sbu_0, # of connection points: 7
#     Node 9, Type 0, BuildingBlock: HICVOG_clean_sbu_0, # of connection points: 7
#     Node 10, Type 0, BuildingBlock: HICVOG_clean_sbu_0, # of connection points: 7
#     Node 11, Type 0, BuildingBlock: HICVOG_clean_sbu_0, # of connection points: 7
#     Node 12, Type 0, BuildingBlock: HICVOG_clean_sbu_0, # of connection points: 7
#     Node 13, Type 0, BuildingBlock: HICVOG_clean_sbu_0, # of connection points: 7
#     Node 14, Type 0, BuildingBlock: HICVOG_clean_sbu_0, # of connection points: 7
#     Node 15, Type 0, BuildingBlock: HICVOG_clean_sbu_0, # of connection points: 7
#     Edge 16, Type (0, 0), BuildingBlock: KIFKEQ_clean_linker_1, # of connection points: 2
#     Edge 17, Type (0, 0), BuildingBlock: KIFKEQ_clean_linker_1, # of connection points: 2
#     Edge 18, Type (0, 0), BuildingBlock: KIFKEQ_clean_linker_1, # of connection points: 2
#     Edge 19, Type (0, 0), BuildingBlock: KIFKEQ_clean_linker_1, # of connection points: 2
#     Edge 20, Type (0, 0), BuildingBlock: KIFKEQ_clean_linker_1, # of connection points: 2
#     Edge 21, Type (0, 0), BuildingBlock: KIFKEQ_clean_linker_1, # of connection points: 2
#     Edge 22, Type (0, 0), BuildingBlock: KIFKEQ_clean_linker_1, # of connection points: 2
#     Edge 23, Type (0, 0), BuildingBlock: KIFKEQ_clean_linker_1, # of connection points: 2
#     Edge 24, Type (0, 0), BuildingBlock: KIFKEQ_clean_linker_1, # of connection points: 2
#     Edge 25, Type (0, 0), BuildingBlock: KIFKEQ_clean_linker_1, # of connection points: 2
#     Edge 26, Type (0, 0), BuildingBlock: KIFKEQ_clean_linker_1, # of connection points: 2
#     Edge 27, Type (0, 0), BuildingBlock: KIFKEQ_clean_linker_1, # of connection points: 2
#     Edge 28, Type (0, 0), BuildingBlock: KIFKEQ_clean_linker_1, # of connection points: 2
#     Edge 29, Type (0, 0), BuildingBlock: KIFKEQ_clean_linker_1, # of connection points: 2
#     Edge 30, Type (0, 0), BuildingBlock: KIFKEQ_clean_linker_1, # of connection points: 2
#     Edge 31, Type (0, 0), BuildingBlock: KIFKEQ_clean_linker_1, # of connection points: 2
#     Edge 32, Type (0, 0), BuildingBlock: KIFKEQ_clean_linker_1, # of connection points: 2
#     Edge 33, Type (0, 0), BuildingBlock: KIFKEQ_clean_linker_1, # of connection points: 2
#     Edge 34, Type (0, 0), BuildingBlock: KIFKEQ_clean_linker_1, # of connection points: 2
#     Edge 35, Type (0, 0), BuildingBlock: KIFKEQ_clean_linker_1, # of connection points: 2
#     Edge 36, Type (0, 0), BuildingBlock: KIFKEQ_clean_linker_1, # of connection points: 2
#     Edge 37, Type (0, 0), BuildingBlock: KIFKEQ_clean_linker_1, # of connection points: 2
#     Edge 38, Type (0, 0), BuildingBlock: KIFKEQ_clean_linker_1, # of connection points: 2
#     Edge 39, Type (0, 0), BuildingBlock: KIFKEQ_clean_linker_1, # of connection points: 2
#     Edge 40, Type (0, 0), BuildingBlock: KIFKEQ_clean_linker_1, # of connection points: 2
#     Edge 41, Type (0, 0), BuildingBlock: KIFKEQ_clean_linker_1, # of connection points: 2
#     Edge 42, Type (0, 0), BuildingBlock: KIFKEQ_clean_linker_1, # of connection points: 2
#     Edge 43, Type (0, 0), BuildingBlock: KIFKEQ_clean_linker_1, # of connection points: 2
#     Edge 44, Type (0, 0), BuildingBlock: KIFKEQ_clean_linker_1, # of connection points: 2
#     Edge 45, Type (0, 0), BuildingBlock: KIFKEQ_clean_linker_1, # of connection points: 2
#     Edge 46, Type (0, 0), BuildingBlock: KIFKEQ_clean_linker_1, # of connection points: 2
#     Edge 47, Type (0, 0), BuildingBlock: KIFKEQ_clean_linker_1, # of connection points: 2
#     Edge 48, Type (0, 0), BuildingBlock: KIFKEQ_clean_linker_1, # of connection points: 2
#     Edge 49, Type (0, 0), BuildingBlock: KIFKEQ_clean_linker_1, # of connection points: 2
#     Edge 50, Type (0, 0), BuildingBlock: KIFKEQ_clean_linker_1, # of connection points: 2
#     Edge 51, Type (0, 0), BuildingBlock: KIFKEQ_clean_linker_1, # of connection points: 2
#     Edge 52, Type (0, 0), BuildingBlock: KIFKEQ_clean_linker_1, # of connection points: 2
#     Edge 53, Type (0, 0), BuildingBlock: KIFKEQ_clean_linker_1, # of connection points: 2
#     Edge 54, Type (0, 0), BuildingBlock: KIFKEQ_clean_linker_1, # of connection points: 2
#     Edge 55, Type (0, 0), BuildingBlock: KIFKEQ_clean_linker_1, # of connection points: 2
#     Edge 56, Type (0, 0), BuildingBlock: KIFKEQ_clean_linker_1, # of connection points: 2
#     Edge 57, Type (0, 0), BuildingBlock: KIFKEQ_clean_linker_1, # of connection points: 2
#     Edge 58, Type (0, 0), BuildingBlock: KIFKEQ_clean_linker_1, # of connection points: 2
#     Edge 59, Type (0, 0), BuildingBlock: KIFKEQ_clean_linker_1, # of connection points: 2
#     Edge 60, Type (0, 0), BuildingBlock: KIFKEQ_clean_linker_1, # of connection points: 2
#     Edge 61, Type (0, 0), BuildingBlock: KIFKEQ_clean_linker_1, # of connection points: 2
#     Edge 62, Type (0, 0), BuildingBlock: KIFKEQ_clean_linker_1, # of connection points: 2
#     Edge 63, Type (0, 0), BuildingBlock: KIFKEQ_clean_linker_1, # of connection points: 2
#     Edge 64, Type (0, 0), BuildingBlock: KIFKEQ_clean_linker_1, # of connection points: 2
#     Edge 65, Type (0, 0), BuildingBlock: KIFKEQ_clean_linker_1, # of connection points: 2
#     Edge 66, Type (0, 0), BuildingBlock: KIFKEQ_clean_linker_1, # of connection points: 2
#     Edge 67, Type (0, 0), BuildingBlock: KIFKEQ_clean_linker_1, # of connection points: 2
#     Edge 68, Type (0, 0), BuildingBlock: KIFKEQ_clean_linker_1, # of connection points: 2
#     Edge 69, Type (0, 0), BuildingBlock: KIFKEQ_clean_linker_1, # of connection points: 2
#     Edge 70, Type (0, 0), BuildingBlock: KIFKEQ_clean_linker_1, # of connection points: 2
#     Edge 71, Type (0, 0), BuildingBlock: KIFKEQ_clean_linker_1, # of connection points: 2
# Relax obj value: 0.207
# Max RMSD: 0.233
# Mean RMSD: 0.233
data_MOF--net-svo--node1-HICVOG_clean_sbu_0--edge1-KIFKEQ_clean_linker_1
_symmetry_space_group_name_H-M    P1
_symmetry_Int_Tables_number       1
_symmetry_cell_setting            triclinic
loop_
_symmetry_equiv_pos_as_xyz
'x, y, z'
_cell_length_a     30.542998
_cell_length_b     30.499683
_cell_length_c     80.723281
_cell_angle_alpha  90.009429
_cell_angle_beta   89.991799
_cell_angle_gamma 89.967824
loop_
_atom_site_label
_atom_site_type_symbol
_atom_site_fract_x
_atom_site_fract_y
_atom_site_fract_z
_atom_type_partial_charge
Zn0 Zn 0.17161 0.29943 0.15714 0.0
C1 C 0.08804 0.37896 0.13316 0.0
N2 N 0.05847 0.35388 0.141 0.0
C3 C 0.08325 0.32268 0.14794 0.0
N4 N 0.12606 0.3281 0.14452 0.0
N5 N 0.12945 0.36359 0.13507 0.0
C6 C 0.22626 0.45527 0.11289 0.0
O7 O 0.25625 0.42692 0.10824 0.0
O8 O 0.16107 0.23442 0.16 0.0
Zn9 Zn 0.17769 0.37511 0.11962 0.0
N10 N 0.17188 0.32548 0.17902 0.0
C11 C 0.14925 0.38315 0.19694 0.0
C12 C 0.15238 0.36517 0.18112 0.0
C13 C 0.1892 0.3033 0.19211 0.0
N14 N 0.16595 0.36083 0.21004 0.0
C15 C 0.18619 0.32137 0.20812 0.0
O16 O 0.23672 0.34564 0.12502 0.0
C17 C 0.25407 0.31985 0.1356 0.0
O18 O 0.23182 0.30351 0.14738 0.0
H19 H 0.13882 0.3825 0.17063 0.0
H20 H 0.20404 0.27152 0.19009 0.0
C21 C 0.15778 0.36742 0.08373 0.0
C22 C 0.13969 0.34404 0.07025 0.0
C23 C 0.12284 0.28497 0.08832 0.0
C24 C 0.14104 0.30785 0.1015 0.0
N25 N 0.15766 0.34869 0.09908 0.0
N26 N 0.12255 0.30353 0.07309 0.0
H27 H 0.17105 0.40003 0.08214 0.0
C28 C 0.16961 0.20916 0.1479 0.0
O29 O 0.1803 0.22664 0.13359 0.0
O30 O 0.18905 0.44099 0.11756 0.0
H31 H 0.14156 0.29329 0.1137 0.0
H32 H 0.13346 0.41452 0.19882 0.0
H33 H 0.10912 0.25264 0.09015 0.0
Zn34 Zn 0.7267 0.17881 0.15423 0.0
C35 C 0.64653 0.09227 0.13212 0.0
N36 N 0.67157 0.06327 0.14028 0.0
C37 C 0.70292 0.08857 0.14685 0.0
N38 N 0.6975 0.13119 0.14287 0.0
N39 N 0.66194 0.13375 0.13346 0.0
C40 C 0.56962 0.21612 0.12774 0.0
O41 O 0.59598 0.22567 0.14009 0.0
O42 O 0.7906 0.16615 0.15842 0.0
Zn43 Zn 0.65028 0.17947 0.11699 0.0
N44 N 0.69833 0.18594 0.17549 0.0
C45 C 0.63418 0.17878 0.19196 0.0
C46 C 0.65514 0.17578 0.17667 0.0
C47 C 0.72145 0.19956 0.18896 0.0
N48 N 0.6572 0.1921 0.20543 0.0
C49 C 0.70039 0.20291 0.20444 0.0
O50 O 0.68193 0.23792 0.12045 0.0
C51 C 0.70918 0.25678 0.13006 0.0
O52 O 0.72574 0.23688 0.14239 0.0
H53 H 0.63724 0.16506 0.16586 0.0
H54 H 0.75593 0.20678 0.18762 0.0
C55 C 0.6552 0.15694 0.08122 0.0
C56 C 0.67641 0.13619 0.06776 0.0
C57 C 0.73312 0.11296 0.08587 0.0
C58 C 0.71258 0.13399 0.09899 0.0
N59 N 0.67381 0.15498 0.09657 0.0
N60 N 0.71466 0.11456 0.07064 0.0
H61 H 0.6244 0.17394 0.0796 0.0
C62 C 0.81737 0.17115 0.14653 0.0
O63 O 0.80189 0.18 0.13171 0.0
O64 O 0.58494 0.19424 0.11559 0.0
H65 H 0.72748 0.13343 0.11112 0.0
H66 H 0.59988 0.17052 0.19313 0.0
H67 H 0.76371 0.09575 0.08772 0.0
Zn68 Zn 0.84575 0.65486 0.11912 0.0
C69 C 0.94051 0.7135 0.14455 0.0
N70 N 0.96578 0.68334 0.1372 0.0
C71 C 0.93639 0.65497 0.13101 0.0
N72 N 0.89461 0.66774 0.13411 0.0
N73 N 0.89768 0.70447 0.14287 0.0
C74 C 0.86335 0.82334 0.14683 0.0
O75 O 0.85901 0.80675 0.1319 0.0
O76 O 0.83463 0.58885 0.11735 0.0
Zn77 Zn 0.85312 0.73258 0.15603 0.0
N78 N 0.86485 0.68074 0.09834 0.0
C79 C 0.89754 0.74536 0.08738 0.0
C80 C 0.8794 0.72244 0.10055 0.0
C81 C 0.86667 0.66114 0.08315 0.0
N82 N 0.89982 0.72594 0.07233 0.0
C83 C 0.88472 0.68455 0.06968 0.0
O84 O 0.79265 0.72889 0.14651 0.0
C85 C 0.77003 0.71159 0.13502 0.0
O86 O 0.78695 0.68472 0.12471 0.0
H87 H 0.87745 0.73757 0.11262 0.0
H88 H 0.85507 0.62784 0.08169 0.0
C89 C 0.83629 0.72712 0.19107 0.0
C90 C 0.84031 0.70874 0.20699 0.0
C91 C 0.87878 0.64841 0.19542 0.0
C92 C 0.87472 0.66673 0.17968 0.0
N93 N 0.85393 0.70584 0.17782 0.0
N94 N 0.86177 0.66986 0.20867 0.0
H95 H 0.82048 0.75852 0.18924 0.0
C96 C 0.79752 0.57445 0.11263 0.0
O97 O 0.76755 0.60271 0.10789 0.0
O98 O 0.86462 0.79741 0.15913 0.0
H99 H 0.88863 0.65015 0.16909 0.0
H100 H 0.90971 0.77836 0.08908 0.0
H101 H 0.89559 0.6175 0.19711 0.0
Zn102 Zn 0.37293 0.85003 0.11809 0.0
C103 C 0.32311 0.94016 0.14896 0.0
N104 N 0.35451 0.96535 0.14236 0.0
C105 C 0.3788 0.93648 0.13381 0.0
N106 N 0.36281 0.89519 0.13491 0.0
N107 N 0.32774 0.89769 0.14459 0.0
C108 C 0.20705 0.8631 0.14947 0.0
O109 O 0.21974 0.8599 0.13397 0.0
O110 O 0.43816 0.83568 0.11576 0.0
Zn111 Zn 0.29907 0.84965 0.15597 0.0
N112 N 0.34622 0.87421 0.09816 0.0
C113 C 0.28333 0.9132 0.08885 0.0
C114 C 0.30762 0.89461 0.10155 0.0
C115 C 0.36126 0.8709 0.08229 0.0
N116 N 0.29793 0.90973 0.07309 0.0
C117 C 0.33608 0.88895 0.06925 0.0
O118 O 0.29935 0.79171 0.14403 0.0
C119 C 0.31557 0.7721 0.13156 0.0
O120 O 0.34228 0.7913 0.12184 0.0
H121 H 0.29536 0.89596 0.11407 0.0
H122 H 0.39139 0.85337 0.07987 0.0
C123 C 0.30563 0.82814 0.19049 0.0
C124 C 0.3264 0.82629 0.20603 0.0
C125 C 0.39185 0.85266 0.19368 0.0
C126 C 0.3711 0.85443 0.17831 0.0
N127 N 0.32836 0.84252 0.17705 0.0
N128 N 0.36905 0.83894 0.20715 0.0
H129 H 0.27147 0.81945 0.18913 0.0
C130 C 0.45408 0.81412 0.12788 0.0
O131 O 0.42831 0.805 0.14046 0.0
O132 O 0.23547 0.86173 0.16094 0.0
H133 H 0.38873 0.86582 0.16753 0.0
H134 H 0.25269 0.92964 0.09144 0.0
H135 H 0.42574 0.86241 0.19492 0.0
Zn136 Zn 0.17133 0.72957 0.36096 0.0
C137 C 0.08867 0.65015 0.38541 0.0
N138 N 0.05874 0.67581 0.37803 0.0
C139 C 0.0833 0.70706 0.37102 0.0
N140 N 0.1263 0.70108 0.37393 0.0
N141 N 0.13005 0.66518 0.38314 0.0
C142 C 0.22792 0.57258 0.40438 0.0
O143 O 0.25773 0.60099 0.40911 0.0
O144 O 0.16092 0.79465 0.35816 0.0
Zn145 Zn 0.17901 0.6528 0.39817 0.0
N146 N 0.17063 0.70352 0.33907 0.0
C147 C 0.14583 0.64679 0.32114 0.0
C148 C 0.14957 0.66466 0.33696 0.0
C149 C 0.18893 0.72493 0.32598 0.0
N150 N 0.16348 0.66839 0.30805 0.0
C151 C 0.18527 0.70699 0.30998 0.0
O152 O 0.23772 0.6823 0.39246 0.0
C153 C 0.25463 0.70842 0.38191 0.0
O154 O 0.23192 0.72522 0.37035 0.0
H155 H 0.13527 0.6479 0.34743 0.0
H156 H 0.20504 0.75607 0.32801 0.0
C157 C 0.16031 0.6597 0.43425 0.0
C158 C 0.14278 0.68301 0.44786 0.0
C159 C 0.12648 0.7428 0.43005 0.0
C160 C 0.1441 0.71998 0.41674 0.0
N161 N 0.16013 0.6788 0.41896 0.0
N162 N 0.12618 0.72385 0.44521 0.0
H163 H 0.17313 0.62684 0.4357 0.0
C164 C 0.16943 0.82006 0.37021 0.0
O165 O 0.18008 0.80277 0.38457 0.0
O166 O 0.19053 0.58678 0.39986 0.0
H167 H 0.14459 0.73484 0.4046 0.0
H168 H 0.12881 0.6161 0.31925 0.0
H169 H 0.1132 0.77539 0.42838 0.0
Zn170 Zn 0.37506 0.17781 0.40001 0.0
C171 C 0.32549 0.08694 0.36951 0.0
N172 N 0.35691 0.06182 0.37614 0.0
C173 C 0.38123 0.09084 0.38459 0.0
N174 N 0.36525 0.13215 0.38338 0.0
N175 N 0.33015 0.12946 0.37374 0.0
C176 C 0.21045 0.17001 0.37041 0.0
O177 O 0.22647 0.17959 0.38508 0.0
O178 O 0.44028 0.19148 0.40276 0.0
Zn179 Zn 0.30086 0.17677 0.36219 0.0
N180 N 0.34708 0.15479 0.41984 0.0
C181 C 0.28256 0.11841 0.42901 0.0
C182 C 0.30774 0.13606 0.41637 0.0
C183 C 0.36211 0.15727 0.43574 0.0
N184 N 0.29715 0.12105 0.4448 0.0
C185 C 0.33611 0.14011 0.44871 0.0
O186 O 0.3024 0.23575 0.37347 0.0
C187 C 0.31885 0.25581 0.38579 0.0
O188 O 0.34514 0.2367 0.39571 0.0
H189 H 0.29565 0.13526 0.40382 0.0
H190 H 0.39293 0.17345 0.43821 0.0
C191 C 0.30502 0.19645 0.32741 0.0
C192 C 0.32466 0.19692 0.31164 0.0
C193 C 0.39009 0.16873 0.32343 0.0
C194 C 0.37051 0.16841 0.33902 0.0
N195 N 0.32831 0.18186 0.34068 0.0
N196 N 0.36674 0.18271 0.31013 0.0
H197 H 0.2713 0.20643 0.32909 0.0
C198 C 0.45676 0.21288 0.39072 0.0
O199 O 0.4315 0.22213 0.37801 0.0
O200 O 0.23679 0.16423 0.35842 0.0
H201 H 0.38862 0.15694 0.34968 0.0
H202 H 0.2513 0.1033 0.42636 0.0
H203 H 0.42352 0.15773 0.32188 0.0
Zn204 Zn 0.85271 0.29641 0.35991 0.0
C205 C 0.93793 0.37542 0.38314 0.0
N206 N 0.96717 0.35054 0.37503 0.0
C207 C 0.94221 0.31922 0.36826 0.0
N208 N 0.89957 0.32437 0.3721 0.0
N209 N 0.89654 0.35981 0.38161 0.0
C210 C 0.80003 0.4516 0.40405 0.0
O211 O 0.77019 0.42328 0.40882 0.0
O212 O 0.86336 0.23223 0.35498 0.0
Zn213 Zn 0.84948 0.37137 0.39765 0.0
N214 N 0.84737 0.3265 0.33888 0.0
C215 C 0.85834 0.39102 0.32294 0.0
C216 C 0.86057 0.36895 0.338 0.0
C217 C 0.83164 0.30514 0.32532 0.0
N218 N 0.843 0.36973 0.30938 0.0
C219 C 0.82947 0.32717 0.30995 0.0
O220 O 0.79036 0.34048 0.39345 0.0
C221 C 0.77298 0.3136 0.38328 0.0
O222 O 0.79458 0.29785 0.37122 0.0
H223 H 0.87282 0.38549 0.34889 0.0
H224 H 0.82072 0.27169 0.32673 0.0
C225 C 0.87186 0.36574 0.43338 0.0
C226 C 0.89222 0.34395 0.44678 0.0
C227 C 0.91197 0.28565 0.42877 0.0
C228 C 0.89142 0.30686 0.41568 0.0
N229 N 0.87236 0.34666 0.4181 0.0
N230 N 0.91191 0.30461 0.44393 0.0
H231 H 0.85649 0.39742 0.435 0.0
C232 C 0.86293 0.20367 0.36644 0.0
O233 O 0.8594 0.21648 0.38192 0.0
O234 O 0.83728 0.43731 0.39939 0.0
H235 H 0.89101 0.29183 0.40357 0.0
H236 H 0.86877 0.42482 0.32201 0.0
H237 H 0.92769 0.25424 0.42692 0.0
Zn238 Zn 0.72834 0.8475 0.36231 0.0
C239 C 0.6501 0.93452 0.38515 0.0
N240 N 0.67708 0.96325 0.37777 0.0
C241 C 0.70731 0.93727 0.37082 0.0
N242 N 0.69953 0.8946 0.37394 0.0
N243 N 0.66358 0.89253 0.38314 0.0
C244 C 0.57058 0.81067 0.38862 0.0
O245 O 0.59661 0.80144 0.37612 0.0
O246 O 0.79206 0.86098 0.35823 0.0
Zn247 Zn 0.65157 0.84643 0.39939 0.0
N248 N 0.70013 0.84178 0.34095 0.0
C249 C 0.63722 0.8534 0.32414 0.0
C250 C 0.65752 0.85412 0.33959 0.0
C251 C 0.72318 0.82795 0.32748 0.0
N252 N 0.6603 0.84019 0.31066 0.0
C253 C 0.70282 0.82711 0.31185 0.0
O254 O 0.68326 0.78794 0.39572 0.0
C255 C 0.71069 0.76908 0.38616 0.0
O256 O 0.72758 0.78906 0.3739 0.0
H257 H 0.63964 0.86504 0.35039 0.0
H258 H 0.75723 0.81888 0.32892 0.0
C259 C 0.65601 0.8697 0.43514 0.0
C260 C 0.67739 0.89033 0.44857 0.0
C261 C 0.73551 0.91078 0.43063 0.0
C262 C 0.71477 0.88986 0.41754 0.0
N263 N 0.67524 0.87033 0.41988 0.0
N264 N 0.71645 0.91051 0.44577 0.0
H265 H 0.62457 0.85389 0.43671 0.0
C266 C 0.81849 0.86337 0.37034 0.0
O267 O 0.80281 0.86109 0.38547 0.0
O268 O 0.58627 0.83198 0.40083 0.0
H269 H 0.73003 0.88945 0.40547 0.0
H270 H 0.60344 0.8635 0.32284 0.0
H271 H 0.76671 0.92688 0.42883 0.0
Zn272 Zn 0.87535 0.6843 0.8989 0.0
C273 C 0.81921 0.5885 0.87309 0.0
N274 N 0.84899 0.56361 0.88081 0.0
C275 C 0.87666 0.59339 0.88718 0.0
N276 N 0.86387 0.63508 0.88384 0.0
N277 N 0.82784 0.6315 0.87474 0.0
C278 C 0.70869 0.66315 0.87034 0.0
O279 O 0.72455 0.66695 0.88539 0.0
O280 O 0.94072 0.69817 0.90071 0.0
Zn281 Zn 0.79934 0.67589 0.86166 0.0
N282 N 0.84974 0.66433 0.91962 0.0
C283 C 0.78581 0.62995 0.93036 0.0
C284 C 0.80851 0.64879 0.91728 0.0
C285 C 0.86907 0.6628 0.93485 0.0
N286 N 0.80494 0.62801 0.94546 0.0
C287 C 0.84585 0.64408 0.94825 0.0
O288 O 0.80146 0.73614 0.87139 0.0
C289 C 0.81771 0.75912 0.88299 0.0
O290 O 0.84447 0.74273 0.89344 0.0
H291 H 0.79359 0.6505 0.90517 0.0
H292 H 0.90202 0.67515 0.93642 0.0
C293 C 0.80471 0.6936 0.82681 0.0
C294 C 0.82364 0.69146 0.81094 0.0
C295 C 0.88584 0.65612 0.8225 0.0
C296 C 0.86696 0.65837 0.8382 0.0
N297 N 0.82669 0.67671 0.84003 0.0
N298 N 0.86375 0.67244 0.80928 0.0
H299 H 0.77243 0.70742 0.82865 0.0
C300 C 0.95722 0.71794 0.88828 0.0
O301 O 0.93193 0.72589 0.87545 0.0
O302 O 0.73509 0.66315 0.85817 0.0
H303 H 0.88405 0.64509 0.84879 0.0
H304 H 0.75319 0.617 0.92855 0.0
H305 H 0.91771 0.64129 0.82082 0.0
Zn306 Zn 0.35632 0.80014 0.86048 0.0
C307 C 0.43879 0.8802 0.88476 0.0
N308 N 0.46885 0.85513 0.87715 0.0
C309 C 0.44452 0.82384 0.87006 0.0
N310 N 0.40151 0.82928 0.87314 0.0
N311 N 0.39753 0.86481 0.88255 0.0
C312 C 0.3142 0.95777 0.88845 0.0
O313 O 0.30515 0.9329 0.8756 0.0
O314 O 0.36764 0.73535 0.85755 0.0
Zn315 Zn 0.34901 0.87547 0.89797 0.0
N316 N 0.35532 0.82625 0.83862 0.0
C317 C 0.37631 0.88429 0.82061 0.0
C318 C 0.3742 0.86618 0.83644 0.0
C319 C 0.33767 0.80394 0.82563 0.0
N320 N 0.35925 0.86185 0.80761 0.0
C321 C 0.33964 0.82212 0.80962 0.0
O322 O 0.29033 0.84563 0.89253 0.0
C323 C 0.27346 0.81961 0.88194 0.0
O324 O 0.29608 0.80347 0.87022 0.0
H325 H 0.38798 0.88361 0.84686 0.0
H326 H 0.32333 0.77198 0.82773 0.0
C327 C 0.36899 0.86679 0.93378 0.0
C328 C 0.38555 0.8424 0.94731 0.0
C329 C 0.40163 0.78346 0.92901 0.0
C330 C 0.38467 0.80726 0.91584 0.0
N331 N 0.36898 0.84842 0.91837 0.0
N332 N 0.40154 0.80144 0.94434 0.0
H333 H 0.35669 0.89978 0.93532 0.0
C334 C 0.35958 0.70989 0.86963 0.0
O335 O 0.34887 0.72711 0.88399 0.0
O336 O 0.33533 0.94087 0.90047 0.0
H337 H 0.38417 0.79311 0.90358 0.0
H338 H 0.39157 0.91587 0.81866 0.0
H339 H 0.4145 0.75079 0.92711 0.0
Zn340 Zn 0.22686 0.35554 0.86149 0.0
C341 C 0.14771 0.43902 0.88565 0.0
N342 N 0.17198 0.46874 0.87751 0.0
C343 C 0.20293 0.44411 0.87035 0.0
N344 N 0.19809 0.40127 0.87393 0.0
N345 N 0.16331 0.39766 0.88372 0.0
C346 C 0.07165 0.31503 0.88933 0.0
O347 O 0.09695 0.30664 0.87655 0.0
O348 O 0.29112 0.36745 0.85766 0.0
Zn349 Zn 0.15329 0.34957 0.89949 0.0
N350 N 0.19861 0.3518 0.84011 0.0
C351 C 0.13569 0.36385 0.82341 0.0
C352 C 0.15647 0.3656 0.83874 0.0
C353 C 0.2209 0.33601 0.82678 0.0
N354 N 0.1579 0.34834 0.81008 0.0
C355 C 0.20018 0.3343 0.81117 0.0
O356 O 0.18409 0.2907 0.89461 0.0
C357 C 0.21007 0.27388 0.88398 0.0
O358 O 0.22509 0.29631 0.87202 0.0
H359 H 0.13916 0.37783 0.84947 0.0
H360 H 0.25401 0.32446 0.82854 0.0
C361 C 0.1606 0.37076 0.9353 0.0
C362 C 0.18338 0.39006 0.94868 0.0
C363 C 0.24125 0.40921 0.93041 0.0
C364 C 0.21901 0.38974 0.91734 0.0
N365 N 0.17902 0.37139 0.9199 0.0
N366 N 0.22299 0.40893 0.94569 0.0
H367 H 0.12866 0.3561 0.937 0.0
C368 C 0.31728 0.3603 0.8696 0.0
O369 O 0.30096 0.35035 0.88419 0.0
O370 O 0.08809 0.33542 0.90163 0.0
H371 H 0.2334 0.38958 0.90511 0.0
H372 H 0.10215 0.3747 0.82209 0.0
H373 H 0.27287 0.4243 0.92846 0.0
Zn374 Zn 0.67456 0.23134 0.85928 0.0
C375 C 0.59065 0.15179 0.88308 0.0
N376 N 0.56097 0.1761 0.87495 0.0
C377 C 0.58546 0.20734 0.8679 0.0
N378 N 0.62827 0.20264 0.87158 0.0
N379 N 0.63186 0.16764 0.88128 0.0
C380 C 0.71482 0.07561 0.88753 0.0
O381 O 0.72377 0.10066 0.87472 0.0
O382 O 0.66309 0.2955 0.85491 0.0
Zn383 Zn 0.67935 0.15753 0.89725 0.0
N384 N 0.67897 0.20282 0.83791 0.0
C385 C 0.66438 0.14101 0.82081 0.0
C386 C 0.66402 0.16107 0.83632 0.0
C387 C 0.69504 0.22517 0.82464 0.0
N388 N 0.67984 0.16345 0.80752 0.0
C389 C 0.69553 0.20507 0.80894 0.0
O390 O 0.73807 0.18832 0.89261 0.0
C391 C 0.75528 0.2146 0.88219 0.0
O392 O 0.73339 0.22994 0.87013 0.0
H393 H 0.65142 0.14369 0.84698 0.0
H394 H 0.7062 0.25856 0.82627 0.0
C395 C 0.6565 0.16487 0.9329 0.0
C396 C 0.63724 0.18806 0.94621 0.0
C397 C 0.62047 0.24671 0.92791 0.0
C398 C 0.63989 0.22405 0.91492 0.0
N399 N 0.6571 0.18353 0.91754 0.0
N400 N 0.61961 0.22828 0.94316 0.0
H401 H 0.67017 0.13246 0.93462 0.0
C402 C 0.66358 0.32342 0.86658 0.0
O403 O 0.66786 0.30985 0.88193 0.0
O404 O 0.69365 0.09228 0.89959 0.0
H405 H 0.64097 0.23853 0.90272 0.0
H406 H 0.65225 0.10794 0.81932 0.0
H407 H 0.60631 0.2788 0.92592 0.0
Zn408 Zn 0.87562 0.34279 0.61778 0.0
C409 C 0.81596 0.44038 0.64085 0.0
N410 N 0.84569 0.46472 0.63287 0.0
C411 C 0.8749 0.43474 0.62771 0.0
N412 N 0.86305 0.3934 0.63203 0.0
N413 N 0.82614 0.39748 0.6406 0.0
C414 C 0.70707 0.36601 0.64581 0.0
O415 O 0.72251 0.362 0.6307 0.0
O416 O 0.94114 0.32939 0.61608 0.0
Zn417 Zn 0.79821 0.35422 0.65446 0.0
N418 N 0.84948 0.35979 0.59682 0.0
C419 C 0.78306 0.38803 0.58569 0.0
C420 C 0.80693 0.37156 0.59893 0.0
C421 C 0.86917 0.36288 0.58168 0.0
N422 N 0.80249 0.3915 0.57068 0.0
C423 C 0.84482 0.37923 0.56813 0.0
O424 O 0.80081 0.29287 0.64563 0.0
C425 C 0.81802 0.26909 0.63445 0.0
O426 O 0.84525 0.28486 0.62404 0.0
H427 H 0.79188 0.36872 0.61098 0.0
H428 H 0.90318 0.3536 0.58032 0.0
C429 C 0.80438 0.33788 0.68934 0.0
C430 C 0.82259 0.342 0.70528 0.0
C431 C 0.88214 0.38174 0.69378 0.0
C432 C 0.86395 0.37755 0.67803 0.0
N433 N 0.82534 0.35602 0.67613 0.0
N434 N 0.86101 0.36416 0.707 0.0
H435 H 0.77332 0.32156 0.68745 0.0
C436 C 0.95783 0.31025 0.62862 0.0
O437 O 0.93265 0.30272 0.64151 0.0
O438 O 0.73381 0.36654 0.65786 0.0
H439 H 0.88021 0.39191 0.66745 0.0
H440 H 0.74932 0.39797 0.5873 0.0
H441 H 0.91267 0.3991 0.69552 0.0
Zn442 Zn 0.67472 0.7963 0.65672 0.0
C443 C 0.5905 0.873 0.63184 0.0
N444 N 0.56097 0.84549 0.63842 0.0
C445 C 0.58598 0.81516 0.64579 0.0
N446 N 0.62896 0.82341 0.64372 0.0
N447 N 0.63218 0.8597 0.63471 0.0
C448 C 0.71406 0.95308 0.62953 0.0
O449 O 0.72217 0.92785 0.64237 0.0
O450 O 0.66463 0.73166 0.66073 0.0
Zn451 Zn 0.68004 0.8711 0.6191 0.0
N452 N 0.67551 0.82447 0.67821 0.0
C453 C 0.65488 0.88417 0.6955 0.0
C454 C 0.65701 0.86477 0.67989 0.0
C455 C 0.69266 0.803 0.69149 0.0
N456 N 0.67147 0.86257 0.7088 0.0
C457 C 0.69066 0.82246 0.70729 0.0
O458 O 0.73858 0.84056 0.62401 0.0
C459 C 0.75633 0.81547 0.63471 0.0
O460 O 0.73483 0.79984 0.64682 0.0
H461 H 0.64354 0.88147 0.66924 0.0
H462 H 0.70662 0.77069 0.68978 0.0
C463 C 0.65732 0.86484 0.58335 0.0
C464 C 0.63859 0.84164 0.56995 0.0
C465 C 0.62444 0.78152 0.58786 0.0
C466 C 0.6434 0.80419 0.60093 0.0
N467 N 0.65897 0.84546 0.59856 0.0
N468 N 0.62249 0.80068 0.57275 0.0
H469 H 0.66974 0.89781 0.5818 0.0
C470 C 0.65563 0.70392 0.6495 0.0
O471 O 0.6489 0.71761 0.63429 0.0
O472 O 0.69395 0.93652 0.61719 0.0
H473 H 0.64534 0.78915 0.61302 0.0
H474 H 0.63994 0.91607 0.69706 0.0
H475 H 0.6115 0.74886 0.58967 0.0
Zn476 Zn 0.22735 0.6713 0.65666 0.0
C477 C 0.14793 0.58817 0.63239 0.0
N478 N 0.17218 0.55831 0.64046 0.0
C479 C 0.20329 0.58275 0.6476 0.0
N480 N 0.19861 0.62564 0.64404 0.0
N481 N 0.16374 0.62948 0.63431 0.0
C482 C 0.06892 0.70398 0.62882 0.0
O483 O 0.0893 0.70238 0.64315 0.0
O484 O 0.29147 0.6596 0.66104 0.0
Zn485 Zn 0.15449 0.67792 0.61854 0.0
N486 N 0.19901 0.6745 0.67806 0.0
C487 C 0.13853 0.65734 0.69546 0.0
C488 C 0.15797 0.65795 0.67984 0.0
C489 C 0.2212 0.69121 0.69125 0.0
N490 N 0.16085 0.67344 0.70867 0.0
C491 C 0.20173 0.6907 0.70705 0.0
O492 O 0.18515 0.7365 0.62371 0.0
C493 C 0.21111 0.75323 0.63435 0.0
O494 O 0.22612 0.73071 0.6463 0.0
H495 H 0.14072 0.64478 0.66925 0.0
H496 H 0.25407 0.70359 0.68947 0.0
C497 C 0.16311 0.6568 0.58277 0.0
C498 C 0.18644 0.63772 0.56947 0.0
C499 C 0.24402 0.61915 0.58796 0.0
C500 C 0.22122 0.63838 0.60095 0.0
N501 N 0.18112 0.65636 0.59823 0.0
N502 N 0.22619 0.61925 0.5726 0.0
H503 H 0.13105 0.67112 0.58095 0.0
C504 C 0.31968 0.66073 0.64949 0.0
O505 O 0.30658 0.66575 0.63411 0.0
O506 O 0.08968 0.69302 0.61578 0.0
H507 H 0.23523 0.63865 0.61324 0.0
H508 H 0.10604 0.64393 0.6971 0.0
H509 H 0.27576 0.60436 0.59002 0.0
Zn510 Zn 0.34961 0.15138 0.61994 0.0
C511 C 0.44448 0.20236 0.64837 0.0
N512 N 0.46886 0.17093 0.64137 0.0
C513 C 0.43894 0.1461 0.63359 0.0
N514 N 0.39772 0.16182 0.63558 0.0
N515 N 0.40156 0.19723 0.64504 0.0
C516 C 0.35982 0.31635 0.64848 0.0
O517 O 0.34928 0.29894 0.63413 0.0
O518 O 0.33573 0.08608 0.61753 0.0
Zn519 Zn 0.35602 0.22652 0.65744 0.0
N520 N 0.37052 0.17793 0.59958 0.0
C521 C 0.40493 0.24196 0.58896 0.0
C522 C 0.38726 0.21866 0.60212 0.0
C523 C 0.37009 0.15957 0.58418 0.0
N524 N 0.40441 0.22399 0.57363 0.0
C525 C 0.38731 0.1835 0.57066 0.0
O526 O 0.29635 0.22398 0.64724 0.0
C527 C 0.27392 0.20803 0.63544 0.0
O528 O 0.29084 0.18165 0.62498 0.0
H529 H 0.38703 0.23287 0.61438 0.0
H530 H 0.35688 0.12695 0.58263 0.0
C531 C 0.33714 0.22284 0.69222 0.0
C532 C 0.33612 0.20338 0.70804 0.0
C533 C 0.36739 0.1387 0.69662 0.0
C534 C 0.36797 0.15804 0.68099 0.0
N535 N 0.3531 0.19974 0.67912 0.0
N536 N 0.35163 0.16172 0.70972 0.0
H537 H 0.32616 0.25618 0.6903 0.0
C538 C 0.31464 0.06934 0.6296 0.0
O539 O 0.30565 0.09436 0.64242 0.0
O540 O 0.36772 0.29106 0.66062 0.0
H541 H 0.38041 0.14006 0.67045 0.0
H542 H 0.41865 0.27426 0.59086 0.0
H543 H 0.37936 0.10563 0.69834 0.0
H544 H 0.20237 0.3935 0.05437 0.0
H545 H 0.07719 0.33079 0.04692 0.0
H546 H 0.2066 0.4093 0.02481 0.0
H547 H 0.0808 0.34747 0.01746 0.0
H548 H 0.13629 0.3257 0.96466 0.0
H549 H 0.12095 0.32094 0.99423 0.0
H550 H 0.17898 0.4487 1.00155 0.0
H551 H 0.19517 0.4529 0.97206 0.0
C552 C 0.17515 0.38426 0.04652 0.0
C553 C 0.13949 0.36081 0.053 0.0
C554 C 0.17754 0.39325 0.02952 0.0
C555 C 0.1442 0.37925 0.01866 0.0
C556 C 0.10751 0.35789 0.02535 0.0
C557 C 0.10531 0.34861 0.04228 0.0
C558 C 0.14478 0.35322 0.9725 0.0
C559 C 0.167 0.38966 0.96599 0.0
C560 C 0.13605 0.35053 0.98951 0.0
C561 C 0.1491 0.38431 1.00037 0.0
C562 C 0.1693 0.42167 0.99366 0.0
C563 C 0.1783 0.4242 0.97672 0.0
H564 H 0.6848 0.07361 0.04407 0.0
H565 H 0.63302 0.20373 0.05205 0.0
H566 H 0.66972 0.08002 0.01457 0.0
H567 H 0.61857 0.21048 0.02247 0.0
H568 H 0.57487 0.20342 0.96947 0.0
H569 H 0.57721 0.18611 0.99889 0.0
H570 H 0.70092 0.11992 0.9918 0.0
H571 H 0.69822 0.13666 0.96231 0.0
C572 C 0.66967 0.10343 0.03955 0.0
C573 C 0.66012 0.13815 0.05045 0.0
C574 C 0.6613 0.10719 0.0226 0.0
C575 C 0.64342 0.14593 0.01606 0.0
C576 C 0.63193 0.17993 0.02707 0.0
C577 C 0.6401 0.17606 0.04409 0.0
C578 C 0.60231 0.18462 0.97415 0.0
C579 C 0.63634 0.17142 0.9635 0.0
C580 C 0.60374 0.17493 0.99105 0.0
C581 C 0.63942 0.152 0.9978 0.0
C582 C 0.67261 0.13717 0.98703 0.0
C583 C 0.67106 0.14669 0.97006 0.0
H584 H 0.89503 0.70568 0.96475 0.0
H585 H 0.83375 0.57916 0.97074 0.0
H586 H 0.91017 0.70803 0.99437 0.0
H587 H 0.84992 0.58076 1.00027 0.0
H588 H 0.82395 0.63422 0.05326 0.0
H589 H 0.82191 0.61872 0.02365 0.0
H590 H 0.94833 0.68044 0.01774 0.0
H591 H 0.94957 0.69701 0.04725 0.0
C592 C 0.88609 0.67773 0.97229 0.0
C593 C 0.8631 0.64231 0.96541 0.0
C594 C 0.89471 0.67902 0.98933 0.0
C595 C 0.88082 0.64474 0.99982 0.0
C596 C 0.86021 0.60816 0.99268 0.0
C597 C 0.85125 0.6071 0.97572 0.0
C598 C 0.85178 0.64341 0.04571 0.0
C599 C 0.88683 0.66696 0.05258 0.0
C600 C 0.85068 0.63459 0.02868 0.0
C601 C 0.88477 0.64881 0.01819 0.0
C602 C 0.92104 0.66991 0.02532 0.0
C603 C 0.92191 0.67909 0.04227 0.0
H604 H 0.33068 0.90389 0.96189 0.0
H605 H 0.43797 0.81575 0.97263 0.0
H606 H 0.32397 0.92032 0.99123 0.0
H607 H 0.42963 0.83053 1.00199 0.0
H608 H 0.4183 0.88449 0.05464 0.0
H609 H 0.43469 0.8805 0.02499 0.0
H610 H 0.29614 0.87985 0.01415 0.0
H611 H 0.27994 0.88444 0.04342 0.0
C612 C 0.35344 0.8886 0.97037 0.0
C613 C 0.38477 0.85823 0.96476 0.0
C614 C 0.34915 0.89757 0.9873 0.0
C615 C 0.37577 0.87618 0.99905 0.0
C616 C 0.40868 0.84779 0.99336 0.0
C617 C 0.41314 0.83901 0.97646 0.0
C618 C 0.39142 0.88313 0.04592 0.0
C619 C 0.34779 0.88463 0.05146 0.0
C620 C 0.40079 0.88107 0.02891 0.0
C621 C 0.36673 0.88039 0.01713 0.0
C622 C 0.32326 0.88156 0.02276 0.0
C623 C 0.31397 0.88381 0.03963 0.0
H624 H 0.2058 0.63378 0.46362 0.0
H625 H 0.08002 0.69527 0.47115 0.0
H626 H 0.21034 0.61806 0.49319 0.0
H627 H 0.08383 0.67857 0.50059 0.0
H628 H 0.13867 0.70135 0.55333 0.0
H629 H 0.12348 0.70568 0.52376 0.0
H630 H 0.18371 0.57881 0.5166 0.0
H631 H 0.19977 0.57507 0.54611 0.0
C632 C 0.17852 0.64272 0.4715 0.0
C633 C 0.14261 0.66586 0.46505 0.0
C634 C 0.18108 0.63378 0.4885 0.0
C635 C 0.14764 0.64751 0.49939 0.0
C636 C 0.11065 0.66842 0.4927 0.0
C637 C 0.10831 0.67769 0.47578 0.0
C638 C 0.1477 0.67392 0.54552 0.0
C639 C 0.17045 0.63788 0.5521 0.0
C640 C 0.13905 0.67637 0.52851 0.0
C641 C 0.15269 0.64271 0.51769 0.0
C642 C 0.17353 0.60574 0.52445 0.0
C643 C 0.18247 0.60348 0.54141 0.0
H644 H 0.4406 0.20842 0.54535 0.0
H645 H 0.33047 0.12396 0.55607 0.0
H646 H 0.43171 0.19411 0.51598 0.0
H647 H 0.32313 0.10796 0.52671 0.0
H648 H 0.28019 0.14612 0.47459 0.0
H649 H 0.2966 0.14965 0.50386 0.0
H650 H 0.43501 0.14408 0.49295 0.0
H651 H 0.41845 0.14112 0.46331 0.0
C652 C 0.41501 0.18604 0.54152 0.0
C653 C 0.38605 0.16773 0.5532 0.0
C654 C 0.41022 0.17752 0.52461 0.0
C655 C 0.37636 0.15033 0.51892 0.0
C656 C 0.34908 0.12978 0.53065 0.0
C657 C 0.35372 0.13849 0.54759 0.0
C658 C 0.31422 0.14543 0.47835 0.0
C659 C 0.34797 0.14357 0.46652 0.0
C660 C 0.32362 0.14708 0.49523 0.0
C661 C 0.36712 0.1466 0.50084 0.0
C662 C 0.4011 0.1448 0.48904 0.0
C663 C 0.39164 0.14334 0.47204 0.0
H664 H 0.82781 0.4428 0.54557 0.0
H665 H 0.90002 0.32227 0.55194 0.0
H666 H 0.84522 0.44271 0.51614 0.0
H667 H 0.91647 0.32132 0.52239 0.0
H668 H 0.95688 0.3366 0.46964 0.0
H669 H 0.95287 0.35232 0.49918 0.0
H670 H 0.82155 0.40237 0.49266 0.0
H671 H 0.82621 0.38772 0.46304 0.0
C672 C 0.84794 0.41654 0.54069 0.0
C673 C 0.86251 0.38252 0.55108 0.0
C674 C 0.85763 0.41631 0.52378 0.0
C675 C 0.88172 0.38172 0.51676 0.0
C676 C 0.89825 0.34882 0.52734 0.0
C677 C 0.88889 0.34931 0.54433 0.0
C678 C 0.92746 0.35176 0.47449 0.0
C679 C 0.89187 0.36092 0.464 0.0
C680 C 0.92504 0.36046 0.49146 0.0
C681 C 0.88671 0.37809 0.49842 0.0
C682 C 0.85186 0.38928 0.48776 0.0
C683 C 0.85448 0.38094 0.47072 0.0
H684 H 0.63248 0.82443 0.46455 0.0
H685 H 0.68588 0.9541 0.47178 0.0
H686 H 0.61752 0.81922 0.49413 0.0
H687 H 0.67015 0.94935 0.5013 0.0
H688 H 0.69862 0.89374 0.55379 0.0
H689 H 0.70073 0.9104 0.52428 0.0
H690 H 0.57682 0.84437 0.51762 0.0
H691 H 0.57523 0.827 0.54705 0.0
C692 C 0.63976 0.85237 0.47235 0.0
C693 C 0.66045 0.88964 0.4658 0.0
C694 C 0.63127 0.8494 0.48937 0.0
C695 C 0.64308 0.88372 0.50018 0.0
C696 C 0.66149 0.92193 0.49343 0.0
C697 C 0.67022 0.92476 0.47648 0.0
C698 C 0.67129 0.88379 0.54613 0.0
C699 C 0.63681 0.85896 0.55278 0.0
C700 C 0.67248 0.89327 0.52915 0.0
C701 C 0.63911 0.87833 0.51849 0.0
C702 C 0.60351 0.85559 0.52536 0.0
C703 C 0.60248 0.84589 0.54227 0.0
H704 H 0.31462 0.99212 0.17591 0.0
H705 H 0.24439 0.94018 0.1341 0.0
H706 H 0.2616 0.05152 0.17815 0.0
H707 H 0.18949 0.99741 0.13689 0.0
H708 H 0.18093 0.14654 0.12428 0.0
H709 H 0.20303 0.07102 0.12833 0.0
H710 H 0.19089 0.08693 0.18134 0.0
H711 H 0.16937 0.16343 0.17723 0.0
C712 C 0.28603 0.99164 0.16797 0.0
C713 C 0.28282 0.9607 0.15517 0.0
C714 C 0.25561 0.02583 0.16917 0.0
C715 C 0.22161 0.02979 0.15749 0.0
C716 C 0.2156 0.99574 0.14595 0.0
C717 C 0.24634 0.96197 0.14464 0.0
C718 C 0.18203 0.13377 0.1368 0.0
C719 C 0.17411 0.16124 0.15042 0.0
C720 C 0.19432 0.09013 0.13915 0.0
C721 C 0.19904 0.07275 0.15521 0.0
C722 C 0.18804 0.09938 0.16882 0.0
C723 C 0.17553 0.14317 0.16645 0.0
H724 H 0.08814 0.24057 0.13567 0.0
H725 H 0.02829 0.31827 0.17403 0.0
H726 H 0.03131 0.18508 0.13887 0.0
H727 H 0.97031 0.26416 0.17685 0.0
H728 H 0.85979 0.17317 0.17649 0.0
H729 H 0.93614 0.19335 0.18137 0.0
H730 H 0.95832 0.19669 0.12851 0.0
H731 H 0.88281 0.17592 0.1237 0.0
C732 C 0.06446 0.24433 0.14556 0.0
C733 C 0.063 0.28313 0.15486 0.0
C734 C 0.03124 0.21305 0.14714 0.0
C735 C 0.99561 0.22061 0.15784 0.0
C736 C 0.99722 0.257 0.16854 0.0
C737 C 0.03054 0.2881 0.16699 0.0
C738 C 0.88136 0.17702 0.16594 0.0
C739 C 0.86505 0.17385 0.14969 0.0
C740 C 0.92509 0.18869 0.16875 0.0
C741 C 0.95335 0.19716 0.15536 0.0
C742 C 0.93782 0.19007 0.13916 0.0
C743 C 0.89421 0.17858 0.13637 0.0
H744 H 0.85817 0.86803 0.17631 0.0
H745 H 0.85609 0.88707 0.12329 0.0
H746 H 0.83463 0.94384 0.18031 0.0
H747 H 0.83165 0.96195 0.12722 0.0
H748 H 0.7099 0.03477 0.17325 0.0
H749 H 0.76432 0.97696 0.1759 0.0
H750 H 0.83962 0.03568 0.13637 0.0
H751 H 0.78354 0.09195 0.13326 0.0
C752 C 0.85359 0.8886 0.16551 0.0
C753 C 0.8582 0.87122 0.14946 0.0
C754 C 0.83992 0.93205 0.16781 0.0
C755 C 0.83063 0.95904 0.15411 0.0
C756 C 0.83883 0.94254 0.13811 0.0
C757 C 0.8525 0.89924 0.13582 0.0
C758 C 0.73933 0.03657 0.16578 0.0
C759 C 0.74311 0.06843 0.15335 0.0
C760 C 0.77061 1.00329 0.16722 0.0
C761 C 0.80612 1.00107 0.15612 0.0
C762 C 0.81237 0.03595 0.14495 0.0
C763 C 0.78083 0.06902 0.14344 0.0
H764 H 0.13869 0.9032 0.13393 0.0
H765 H 0.17001 0.81512 0.17395 0.0
H766 H 0.06112 0.88659 0.13728 0.0
H767 H 0.09378 0.79487 0.17639 0.0
H768 H 0.96488 0.74032 0.17549 0.0
H769 H 0.02106 0.79559 0.18089 0.0
H770 H 0.01847 0.8315 0.12895 0.0
H771 H 0.96063 0.77932 0.12429 0.0
C772 C 0.12872 0.88052 0.14355 0.0
C773 C 0.16013 0.85989 0.15351 0.0
C774 C 0.08428 0.87051 0.14541 0.0
C775 C 0.07055 0.83801 0.15672 0.0
C776 C 0.10214 0.8202 0.16757 0.0
C777 C 0.1463 0.8315 0.16611 0.0
C778 C 0.97492 0.762 0.16556 0.0
C779 C 0.95881 0.75586 0.14951 0.0
C780 C 1.00782 0.79309 0.1685 0.0
C781 C 0.02624 0.81713 0.15525 0.0
C782 C 1.00589 0.81416 0.13961 0.0
C783 C 0.97242 0.78401 0.13683 0.0
H784 H 0.31906 0.03295 0.34311 0.0
H785 H 0.24473 0.09007 0.38297 0.0
H786 H 0.26521 0.9745 0.3406 0.0
H787 H 0.18959 0.03284 0.38012 0.0
H788 H 0.17093 0.86503 0.34075 0.0
H789 H 0.19331 0.9412 0.33653 0.0
H790 H 0.20215 0.95868 0.38954 0.0
H791 H 0.17938 0.88331 0.39371 0.0
C792 C 0.28961 0.03457 0.35058 0.0
C793 C 0.28551 0.06654 0.36297 0.0
C794 C 0.25872 1.00094 0.34922 0.0
C795 C 0.2234 0.99847 0.36038 0.0
C796 C 0.2167 0.03345 0.37147 0.0
C797 C 0.24774 0.06697 0.37285 0.0
C798 C 0.17653 0.88555 0.3515 0.0
C799 C 0.1741 0.86793 0.36758 0.0
C800 C 0.18949 0.92916 0.34906 0.0
C801 C 0.1999 0.95607 0.36266 0.0
C802 C 0.19397 0.93925 0.37875 0.0
C803 C 0.1813 0.89574 0.38116 0.0
H804 H 0.14597 0.17744 0.3935 0.0
H805 H 0.16684 0.16935 0.34066 0.0
H806 H 0.07027 0.19755 0.38886 0.0
H807 H 0.09018 0.18875 0.33594 0.0
H808 H 0.99513 0.31208 0.3416 0.0
H809 H 0.05417 0.25882 0.33931 0.0
H810 H 0.99751 0.18417 0.37944 0.0
H811 H 0.94046 0.23932 0.38231 0.0
C812 C 0.13406 0.1788 0.38087 0.0
C813 C 0.16267 0.17268 0.36746 0.0
C814 C 0.09032 0.18992 0.37817 0.0
C815 C 0.07401 0.19517 0.36198 0.0
C816 C 0.10179 0.18553 0.34856 0.0
C817 C 0.14569 0.17427 0.35127 0.0
C818 C 0.99404 0.28293 0.34926 0.0
C819 C 0.96257 0.27911 0.36182 0.0
C820 C 0.028 0.25233 0.34802 0.0
C821 C 0.03115 0.21756 0.35943 0.0
C822 C 0.99645 0.2109 0.37062 0.0
C823 C 0.96286 0.24182 0.37197 0.0
H824 H 0.73243 0.96439 0.34 0.0
H825 H 0.77429 0.9556 0.39079 0.0
H826 H 0.78748 0.02086 0.33484 0.0
H827 H 0.82622 0.01381 0.38642 0.0
H828 H 0.90063 0.13348 0.38171 0.0
H829 H 0.88114 0.05653 0.37829 0.0
H830 H 0.78928 0.09317 0.33977 0.0
H831 H 0.81244 0.1687 0.34225 0.0
C832 C 0.7547 0.97347 0.34987 0.0
C833 C 0.74955 0.95569 0.36573 0.0
C834 C 0.78564 1.00663 0.34709 0.0
C835 C 0.81057 0.02384 0.36033 0.0
C836 C 0.80829 1.00217 0.37575 0.0
C837 C 0.77833 0.96837 0.37835 0.0
C838 C 0.87726 0.12449 0.37221 0.0
C839 C 0.85763 0.15685 0.36238 0.0
C840 C 0.86554 0.08039 0.37032 0.0
C841 C 0.83228 0.06794 0.35911 0.0
C842 C 0.81516 0.10046 0.34848 0.0
C843 C 0.82818 0.14423 0.34995 0.0
H844 H 0.08812 0.78948 0.38307 0.0
H845 H 0.02816 0.71096 0.34501 0.0
H846 H 0.03197 0.84558 0.37938 0.0
H847 H 0.97079 0.76553 0.34174 0.0
H848 H 0.86176 0.85742 0.34063 0.0
H849 H 0.93782 0.83554 0.33638 0.0
H850 H 0.9587 0.83822 0.38933 0.0
H851 H 0.88349 0.86104 0.39349 0.0
C852 C 0.0645 0.78558 0.37318 0.0
C853 C 0.06291 0.74651 0.36404 0.0
C854 C 0.03165 0.8172 0.37132 0.0
C855 C 0.99619 0.80972 0.36053 0.0
C856 C 0.99757 0.77275 0.35009 0.0
C857 C 0.03053 0.74136 0.35191 0.0
C858 C 0.88298 0.8545 0.35133 0.0
C859 C 0.86629 0.85999 0.36744 0.0
C860 C 0.92657 0.84183 0.34888 0.0
C861 C 0.95435 0.83438 0.3625 0.0
C862 C 0.93859 0.84389 0.3785 0.0
C863 C 0.89513 0.85663 0.38093 0.0
H864 H 0.83199 0.81779 0.90855 0.0
H865 H 0.77095 0.80655 0.86044 0.0
H866 H 0.80675 0.89408 0.91042 0.0
H867 H 0.74585 0.88187 0.86239 0.0
H868 H 0.75302 0.03061 0.86223 0.0
H869 H 0.77875 0.95525 0.86192 0.0
H870 H 0.7366 0.93891 0.91259 0.0
H871 H 0.71073 0.01517 0.91296 0.0
C872 C 0.81337 0.83149 0.89838 0.0
C873 C 0.80377 0.80589 0.88432 0.0
C874 C 0.79861 0.87509 0.89951 0.0
C875 C 0.77439 0.89418 0.88653 0.0
C876 C 0.76488 0.86849 0.87253 0.0
C877 C 0.77921 0.82508 0.87146 0.0
C878 C 0.74909 1.01112 0.87335 0.0
C879 C 0.72962 0.02907 0.88762 0.0
C880 C 0.76376 0.96772 0.87314 0.0
C881 C 0.75965 0.94088 0.88721 0.0
C882 C 0.74056 0.9588 0.90158 0.0
C883 C 0.72547 1.00238 0.90175 0.0
H884 H 0.01831 0.71521 0.91348 0.0
H885 H 1.00162 0.75414 0.86242 0.0
H886 H 0.0945 0.74071 0.91256 0.0
H887 H 0.07692 0.77961 0.86158 0.0
H888 H 0.22546 0.77247 0.85965 0.0
H889 H 0.15024 0.74757 0.86196 0.0
H890 H 0.13928 0.80999 0.90977 0.0
H891 H 0.21541 0.83493 0.90756 0.0
C892 C 0.03081 0.72914 0.90208 0.0
C893 C 1.00377 0.73246 0.88802 0.0
C894 C 0.07437 0.74403 0.90159 0.0
C895 C 0.09193 0.76212 0.88698 0.0
C896 C 0.06475 0.76537 0.87297 0.0
C897 C 0.02138 0.75086 0.8735 0.0
C898 C 0.20719 0.78114 0.87068 0.0
C899 C 0.2267 0.806 0.88339 0.0
C900 C 0.16384 0.76691 0.87197 0.0
C901 C 0.13854 0.77686 0.88602 0.0
C902 C 0.15794 0.80147 0.89883 0.0
C903 C 0.20147 0.81607 0.89749 0.0
H904 H 0.25721 0.22649 0.86155 0.0
H905 H 0.19663 0.21554 0.90977 0.0
H906 H 0.28272 0.1514 0.86359 0.0
H907 H 0.2223 0.13936 0.91171 0.0
H908 H 0.31856 0.01805 0.91397 0.0
H909 H 0.29254 0.09429 0.91374 0.0
H910 H 0.2497 0.07819 0.86315 0.0
H911 H 0.27558 1.00293 0.86331 0.0
C912 C 0.24913 0.20808 0.87261 0.0
C913 C 0.22453 0.22729 0.88547 0.0
C914 C 0.26372 0.16478 0.87373 0.0
C915 C 0.25441 0.13916 0.88776 0.0
C916 C 0.23026 0.15829 0.90077 0.0
C917 C 0.21526 0.20182 0.89959 0.0
C918 C 0.30365 0.0309 0.90281 0.0
C919 C 0.29937 1.00431 0.88864 0.0
C920 C 0.28846 0.07446 0.90272 0.0
C921 C 0.26916 0.09246 0.8884 0.0
C922 C 0.26488 0.06569 0.87432 0.0
C923 C 0.27965 0.02233 0.87445 0.0
H924 H 1.01041 0.31872 0.91449 0.0
H925 H 0.02729 0.27834 0.86359 0.0
H926 H 0.93398 0.29382 0.91354 0.0
H927 H 0.95179 0.25356 0.86272 0.0
H928 H 0.80372 0.26268 0.86036 0.0
H929 H 0.8789 0.28734 0.86298 0.0
H930 H 0.88852 0.22429 0.91071 0.0
H931 H 0.81236 0.1995 0.90817 0.0
C932 C 0.9979 0.30459 0.90312 0.0
C933 C 0.02505 0.3007 0.8891 0.0
C934 C 0.95422 0.29006 0.90262 0.0
C935 C 0.93667 0.27182 0.88803 0.0
C936 C 0.96397 0.26794 0.87409 0.0
C937 C 1.00746 0.28205 0.87462 0.0
C938 C 0.82163 0.25387 0.87145 0.0
C939 C 0.80177 0.22879 0.88402 0.0
C940 C 0.86497 0.26796 0.87291 0.0
C941 C 0.88992 0.25765 0.88701 0.0
C942 C 0.87011 0.23304 0.89973 0.0
C943 C 0.82658 0.21855 0.89821 0.0
H944 H 0.83404 0.2094 0.60944 0.0
H945 H 0.76987 0.22261 0.65689 0.0
H946 H 0.80848 0.13334 0.60764 0.0
H947 H 0.74438 0.14735 0.65501 0.0
H948 H 0.74949 0.99814 0.65538 0.0
H949 H 0.77554 0.07338 0.656 0.0
H950 H 0.73862 0.08955 0.60474 0.0
H951 H 0.71249 1.01347 0.60407 0.0
C952 C 0.8147 0.19615 0.6195 0.0
C953 C 0.80426 0.22226 0.63334 0.0
C954 C 0.79973 0.15266 0.6184 0.0
C955 C 0.77441 0.13416 0.6312 0.0
C956 C 0.76421 0.16028 0.64502 0.0
C957 C 0.77878 0.20364 0.64606 0.0
C958 C 0.74676 0.01759 0.64421 0.0
C959 C 0.72875 0.99963 0.62967 0.0
C960 C 0.7616 0.06092 0.64459 0.0
C961 C 0.75913 0.08765 0.63044 0.0
C962 C 0.74135 0.06974 0.61583 0.0
C963 C 0.72609 0.02626 0.61547 0.0
H964 H 0.02691 0.75144 0.60472 0.0
H965 H 1.00616 0.6879 0.65175 0.0
H966 H 0.95247 0.78084 0.60563 0.0
H967 H 0.93112 0.71403 0.65224 0.0
H968 H 0.81443 0.79955 0.65944 0.0
H969 H 0.88931 0.7738 0.65724 0.0
H970 H 0.87774 0.77249 0.6038 0.0
H971 H 0.80342 0.80155 0.60619 0.0
C972 C 1.00602 0.74306 0.6151 0.0
C973 C 0.02241 0.71778 0.62825 0.0
C974 C 0.96315 0.75977 0.61563 0.0
C975 C 0.93531 0.75069 0.62917 0.0
C976 C 0.95154 0.72344 0.64189 0.0
C977 C 0.99459 0.70786 0.64155 0.0
C978 C 0.82808 0.79414 0.64721 0.0
C979 C 0.80299 0.80254 0.633 0.0
C980 C 0.87106 0.77873 0.64591 0.0
C981 C 0.89 0.76987 0.63032 0.0
C982 C 0.86493 0.77913 0.61605 0.0
C983 C 0.82213 0.79572 0.61738 0.0
H984 H 0.31896 1.00887 0.60416 0.0
H985 H 0.27638 0.02436 0.65486 0.0
H986 H 0.29316 0.93261 0.60452 0.0
H987 H 0.2507 0.94904 0.65515 0.0
H988 H 0.25819 0.80062 0.65679 0.0
H989 H 0.2836 0.87575 0.65474 0.0
H990 H 0.22312 0.88769 0.60663 0.0
H991 H 0.19757 0.81154 0.60859 0.0
C992 C 0.30417 0.99609 0.61536 0.0
C993 C 0.29992 0.0228 0.62949 0.0
C994 C 0.28912 0.95252 0.61552 0.0
C995 C 0.26998 0.93462 0.62988 0.0
C996 C 0.26576 0.96148 0.64394 0.0
C997 C 0.2804 1.00487 0.64374 0.0
C998 C 0.25008 0.81903 0.64573 0.0
C999 C 0.22551 0.79982 0.63288 0.0
C1000 C 0.26461 0.86235 0.6446 0.0
C1001 C 0.25526 0.88793 0.63057 0.0
C1002 C 0.23112 0.86879 0.61758 0.0
C1003 C 0.21619 0.82526 0.61876 0.0
H1004 H 0.01857 0.31154 0.60327 0.0
H1005 H 1.0027 0.27582 0.6547 0.0
H1006 H 0.09482 0.2861 0.60425 0.0
H1007 H 0.07803 0.25042 0.6556 0.0
H1008 H 0.22635 0.25721 0.65724 0.0
H1009 H 0.15128 0.28239 0.65477 0.0
H1010 H 0.13971 0.21693 0.60756 0.0
H1011 H 0.21575 0.19169 0.60993 0.0
C1012 C 0.03127 0.29835 0.61476 0.0
C1013 C 1.00444 0.29589 0.62891 0.0
C1014 C 0.07485 0.28349 0.61529 0.0
C1015 C 0.09265 0.26631 0.63002 0.0
C1016 C 0.06569 0.26395 0.64411 0.0
C1017 C 0.02229 0.27842 0.64356 0.0
C1018 C 0.20801 0.24794 0.6463 0.0
C1019 C 0.22731 0.2221 0.63382 0.0
C1020 C 0.16472 0.26234 0.64493 0.0
C1021 C 0.13927 0.25157 0.63101 0.0
C1022 C 0.1585 0.22608 0.6184 0.0
C1023 C 0.20197 0.21132 0.61982 0.0
H1024 H 0.61801 0.63485 0.63329 0.0
H1025 H 0.70718 0.66625 0.67299 0.0
H1026 H 0.63915 0.55788 0.63518 0.0
H1027 H 0.73094 0.59067 0.67411 0.0
H1028 H 0.78686 0.46117 0.67195 0.0
H1029 H 0.73055 0.51623 0.6779 0.0
H1030 H 0.69858 0.52103 0.62565 0.0
H1031 H 0.75239 0.46484 0.62026 0.0
C1032 C 0.64181 0.62512 0.64255 0.0
C1033 C 0.66157 0.6566 0.65277 0.0
C1034 C 0.65427 0.58101 0.64358 0.0
C1035 C 0.68792 0.56771 0.65445 0.0
C1036 C 0.70482 0.59893 0.66562 0.0
C1037 C 0.69143 0.64271 0.6649 0.0
C1038 C 0.76598 0.47263 0.662 0.0
C1039 C 0.77364 0.45912 0.64568 0.0
C1040 C 0.73423 0.50475 0.66529 0.0
C1041 C 0.71065 0.52456 0.65221 0.0
C1042 C 0.71547 0.50701 0.63617 0.0
C1043 C 0.74656 0.47464 0.63298 0.0
H1044 H 0.38872 0.62365 0.63334 0.0
H1045 H 0.35602 0.70784 0.67439 0.0
H1046 H 0.46591 0.64205 0.63664 0.0
H1047 H 0.43191 0.72987 0.67683 0.0
H1048 H 0.56176 0.78522 0.67644 0.0
H1049 H 0.50527 0.72967 0.68118 0.0
H1050 H 0.50601 0.69976 0.6287 0.0
H1051 H 0.56354 0.75248 0.62458 0.0
C1052 C 0.39831 0.64583 0.64318 0.0
C1053 C 0.36659 0.66484 0.65346 0.0
C1054 C 0.44252 0.65687 0.64501 0.0
C1055 C 0.45567 0.68885 0.65664 0.0
C1056 C 0.4239 0.70502 0.66777 0.0
C1057 C 0.37999 0.69268 0.66632 0.0
C1058 C 0.55124 0.76478 0.66621 0.0
C1059 C 0.567 0.7726 0.6502 0.0
C1060 C 0.5182 0.73353 0.66879 0.0
C1061 C 0.49947 0.71081 0.65527 0.0
C1062 C 0.51905 0.71582 0.63957 0.0
C1063 C 0.55236 0.74629 0.63712 0.0
H1064 H 0.28345 0.58417 0.63393 0.0
H1065 H 0.20926 0.5293 0.67422 0.0
H1066 H 0.33945 0.52824 0.63755 0.0
H1067 H 0.26353 0.47127 0.67727 0.0
H1068 H 0.35754 0.36181 0.67782 0.0
H1069 H 0.335 0.43809 0.6817 0.0
H1070 H 0.32843 0.45437 0.62856 0.0
H1071 H 0.35151 0.37906 0.62476 0.0
C1072 C 0.28069 0.56193 0.64432 0.0
C1073 C 0.24294 0.56196 0.65419 0.0
C1074 C 0.31215 0.52902 0.64611 0.0
C1075 C 0.30559 0.49463 0.65746 0.0
C1076 C 0.26996 0.49732 0.66848 0.0
C1077 C 0.23879 0.53063 0.66679 0.0
C1078 C 0.35247 0.38215 0.66699 0.0
C1079 C 0.35554 0.36423 0.65097 0.0
C1080 C 0.33939 0.42579 0.66922 0.0
C1081 C 0.32947 0.45236 0.65547 0.0
C1082 C 0.3362 0.43525 0.63948 0.0
C1083 C 0.34904 0.39175 0.63726 0.0
H1084 H 0.50155 0.20878 0.67378 0.0
H1085 H 0.43886 0.28349 0.63525 0.0
H1086 H 0.55845 0.26425 0.67598 0.0
H1087 H 0.49434 0.34049 0.63792 0.0
H1088 H 0.64159 0.35928 0.62297 0.0
H1089 H 0.56744 0.33389 0.62768 0.0
H1090 H 0.58987 0.33564 0.68054 0.0
H1091 H 0.66488 0.36021 0.67576 0.0
C1092 C 0.49846 0.23856 0.66655 0.0
C1093 C 0.46526 0.24246 0.65466 0.0
C1094 C 0.53116 0.27045 0.66775 0.0
C1095 C 0.53147 0.30665 0.65692 0.0
C1096 C 0.49545 0.31278 0.64629 0.0
C1097 C 0.46292 0.28068 0.64504 0.0
C1098 C 0.63049 0.35527 0.63563 0.0
C1099 C 0.65951 0.36083 0.64895 0.0
C1100 C 0.58763 0.34104 0.63837 0.0
C1101 C 0.57266 0.33212 0.65452 0.0
C1102 C 0.60054 0.34146 0.66794 0.0
C1103 C 0.64351 0.35572 0.66518 0.0
H1104 H 0.71251 0.36019 0.84232 0.0
H1105 H 0.62567 0.39226 0.88261 0.0
H1106 H 0.73515 0.43603 0.84044 0.0
H1107 H 0.64468 0.46954 0.87982 0.0
H1108 H 0.75398 0.56706 0.89337 0.0
H1109 H 0.70114 0.50996 0.88844 0.0
H1110 H 0.73634 0.5092 0.83642 0.0
H1111 H 0.79218 0.56472 0.84206 0.0
C1112 C 0.69691 0.38406 0.85033 0.0
C1113 C 0.66811 0.37046 0.86284 0.0
C1114 C 0.70961 0.42797 0.8492 0.0
C1115 C 0.69284 0.45958 0.86029 0.0
C1116 C 0.65998 0.44628 0.87152 0.0
C1117 C 0.64858 0.40203 0.87305 0.0
C1118 C 0.74906 0.5558 0.88076 0.0
C1119 C 0.77704 0.56984 0.86811 0.0
C1120 C 0.7185 0.52281 0.87783 0.0
C1121 C 0.71494 0.50328 0.86205 0.0
C1122 C 0.73917 0.52188 0.84889 0.0
C1123 C 0.77061 0.55438 0.85197 0.0
H1124 H 0.50059 0.81904 0.84431 0.0
H1125 H 0.43974 0.74195 0.88258 0.0
H1126 H 0.55791 0.76417 0.84145 0.0
H1127 H 0.49577 0.6856 0.8793 0.0
H1128 H 0.64384 0.66811 0.8935 0.0
H1129 H 0.56918 0.69267 0.88927 0.0
H1130 H 0.58999 0.69331 0.83631 0.0
H1131 H 0.66549 0.66958 0.84062 0.0
C1132 C 0.49801 0.78889 0.85135 0.0
C1133 C 0.46527 0.78417 0.86338 0.0
C1134 C 0.53096 0.75734 0.84977 0.0
C1135 C 0.53198 0.72067 0.86036 0.0
C1136 C 0.49634 0.71371 0.87111 0.0
C1137 C 0.46353 0.74546 0.87272 0.0
C1138 C 0.63229 0.67246 0.88092 0.0
C1139 C 0.66097 0.66784 0.86744 0.0
C1140 C 0.58914 0.68621 0.87846 0.0
C1141 C 0.57354 0.69556 0.86243 0.0
C1142 C 0.60113 0.68712 0.84883 0.0
C1143 C 0.64439 0.67336 0.85131 0.0
H1144 H 0.2074 0.49893 0.84415 0.0
H1145 H 0.28461 0.4403 0.88289 0.0
H1146 H 0.26174 0.55673 0.84104 0.0
H1147 H 0.34019 0.49693 0.87943 0.0
H1148 H 0.35177 0.64655 0.89318 0.0
H1149 H 0.32876 0.57119 0.88916 0.0
H1150 H 0.33397 0.58897 0.83609 0.0
H1151 H 0.35664 0.6651 0.84016 0.0
C1152 C 0.23748 0.49688 0.85123 0.0
C1153 C 0.24238 0.46469 0.86348 0.0
C1154 C 0.26868 0.53009 0.84951 0.0
C1155 C 0.30505 0.53192 0.8602 0.0
C1156 C 0.31231 0.49674 0.87114 0.0
C1157 C 0.28098 0.46363 0.87288 0.0
C1158 C 0.34905 0.63416 0.88064 0.0
C1159 C 0.35524 0.66204 0.86701 0.0
C1160 C 0.33624 0.59067 0.87831 0.0
C1161 C 0.32915 0.574 0.86227 0.0
C1162 C 0.33871 0.60093 0.84859 0.0
C1163 C 0.35184 0.6445 0.85094 0.0
H1164 H 0.53177 0.21369 0.84141 0.0
H1165 H 0.58663 0.28737 0.88184 0.0
H1166 H 0.47265 0.26691 0.83902 0.0
H1167 H 0.52962 0.34248 0.87884 0.0
H1168 H 0.38149 0.35215 0.89273 0.0
H1169 H 0.45675 0.33018 0.88824 0.0
H1170 H 0.43721 0.33727 0.83527 0.0
H1171 H 0.36095 0.35859 0.83985 0.0
C1172 C 0.53287 0.243 0.84899 0.0
C1173 C 0.56454 0.24718 0.86146 0.0
C1174 C 0.49887 0.27357 0.84768 0.0
C1175 C 0.49585 0.30868 0.85896 0.0
C1176 C 0.53058 0.31552 0.87011 0.0
C1177 C 0.56417 0.28462 0.87153 0.0
C1178 C 0.39341 0.35 0.88012 0.0
C1179 C 0.365 0.35634 0.86667 0.0
C1180 C 0.4369 0.3378 0.87751 0.0
C1181 C 0.45318 0.3316 0.86135 0.0
C1182 C 0.42562 0.34124 0.84786 0.0
C1183 C 0.38197 0.35363 0.8505 0.0
H1184 H 0.26402 0.30735 0.36721 0.0
H1185 H 0.34285 0.30944 0.41165 0.0
H1186 H 0.2411 0.38249 0.37248 0.0
H1187 H 0.31903 0.38439 0.41713 0.0
H1188 H 0.30643 0.53372 0.41133 0.0
H1189 H 0.3277 0.45769 0.4072 0.0
H1190 H 0.19692 0.42743 0.39034 0.0
H1191 H 0.17587 0.50408 0.39411 0.0
C1192 C 0.27644 0.32373 0.37815 0.0
C1193 C 0.30552 0.30214 0.38896 0.0
C1194 C 0.26292 0.36686 0.38125 0.0
C1195 C 0.27799 0.38974 0.39527 0.0
C1196 C 0.30709 0.36814 0.40609 0.0
C1197 C 0.32068 0.32498 0.40298 0.0
C1198 C 0.28202 0.51088 0.40684 0.0
C1199 C 0.23941 0.52524 0.40301 0.0
C1200 C 0.29423 0.46705 0.40454 0.0
C1201 C 0.26417 0.43615 0.39838 0.0
C1202 C 0.22122 0.45033 0.39486 0.0
C1203 C 0.209 0.49429 0.39714 0.0
H1204 H 0.50124 0.25001 0.36513 0.0
H1205 H 0.51788 0.20893 0.41595 0.0
H1206 H 0.5767 0.27484 0.36435 0.0
H1207 H 0.59434 0.23402 0.41511 0.0
H1208 H 0.71611 0.32952 0.40933 0.0
H1209 H 0.63997 0.30455 0.4121 0.0
H1210 H 0.64941 0.23969 0.36472 0.0
H1211 H 0.72448 0.26437 0.36187 0.0
C1212 C 0.521 0.24618 0.37618 0.0
C1213 C 0.50336 0.22727 0.3906 0.0
C1214 C 0.56446 0.26035 0.3757 0.0
C1215 C 0.59171 0.2563 0.38964 0.0
C1216 C 0.57412 0.23787 0.40419 0.0
C1217 C 0.53044 0.22323 0.40463 0.0
C1218 C 0.70186 0.30999 0.39951 0.0
C1219 C 0.72656 0.29928 0.38533 0.0
C1220 C 0.65835 0.29543 0.40116 0.0
C1221 C 0.6385 0.27031 0.38859 0.0
C1222 C 0.66339 0.25945 0.37454 0.0
C1223 C 0.70667 0.27358 0.37295 0.0
H1224 H 0.686 0.71532 0.41192 0.0
H1225 H 0.76659 0.71788 0.36793 0.0
H1226 H 0.70947 0.64018 0.41735 0.0
H1227 H 0.78911 0.64267 0.37314 0.0
H1228 H 0.85271 0.52013 0.39432 0.0
H1229 H 0.8323 0.59705 0.39093 0.0
H1230 H 0.70092 0.56708 0.40719 0.0
H1231 H 0.72158 0.49073 0.41096 0.0
C1232 C 0.70854 0.69987 0.40335 0.0
C1233 C 0.72425 0.72288 0.38947 0.0
C1234 C 0.72191 0.65661 0.40644 0.0
C1235 C 0.75134 0.6351 0.39571 0.0
C1236 C 0.76705 0.6582 0.38185 0.0
C1237 C 0.75376 0.7014 0.37878 0.0
C1238 C 0.81958 0.53002 0.39729 0.0
C1239 C 0.78883 0.49906 0.40288 0.0
C1240 C 0.80773 0.57416 0.39524 0.0
C1241 C 0.76479 0.58851 0.39869 0.0
C1242 C 0.73439 0.55759 0.40459 0.0
C1243 C 0.74624 0.51357 0.40667 0.0
H1244 H 0.52732 0.77264 0.36285 0.0
H1245 H 0.5086 0.81461 0.41347 0.0
H1246 H 0.45213 0.74675 0.36185 0.0
H1247 H 0.4326 0.78861 0.4124 0.0
H1248 H 0.31235 0.69358 0.40766 0.0
H1249 H 0.38848 0.71851 0.40991 0.0
H1250 H 0.37851 0.77892 0.36171 0.0
H1251 H 0.30322 0.75411 0.35938 0.0
C1252 C 0.50715 0.77647 0.37379 0.0
C1253 C 0.52413 0.79587 0.38824 0.0
C1254 C 0.46385 0.76171 0.37318 0.0
C1255 C 0.43619 0.76565 0.38702 0.0
C1256 C 0.45314 0.78474 0.40156 0.0
C1257 C 0.49658 0.79992 0.40213 0.0
C1258 C 0.32652 0.71196 0.39751 0.0
C1259 C 0.30152 0.7216 0.38331 0.0
C1260 C 0.37003 0.72657 0.39887 0.0
C1261 C 0.38968 0.75067 0.38598 0.0
C1262 C 0.36468 0.76002 0.37179 0.0
C1263 C 0.32131 0.74584 0.37049 0.0
H1264 H 0.26029 0.72042 0.14983 0.0
H1265 H 0.33959 0.7191 0.1055 0.0
H1266 H 0.23767 0.64534 0.14439 0.0
H1267 H 0.31606 0.64414 0.09984 0.0
H1268 H 0.30452 0.4945 0.10585 0.0
H1269 H 0.32515 0.57078 0.10981 0.0
H1270 H 0.19395 0.60044 0.1264 0.0
H1271 H 0.17355 0.52362 0.1228 0.0
C1272 C 0.27283 0.70424 0.13887 0.0
C1273 C 0.30199 0.726 0.12815 0.0
C1274 C 0.25949 0.66114 0.13566 0.0
C1275 C 0.27483 0.63847 0.12163 0.0
C1276 C 0.30392 0.66027 0.11088 0.0
C1277 C 0.31733 0.70342 0.11409 0.0
C1278 C 0.27989 0.51727 0.11024 0.0
C1279 C 0.23736 0.50271 0.11407 0.0
C1280 C 0.29172 0.56123 0.11244 0.0
C1281 C 0.26136 0.592 0.1185 0.0
C1282 C 0.21847 0.57763 0.12197 0.0
C1283 C 0.20663 0.53356 0.11979 0.0
H1284 H 0.52725 0.25524 0.15349 0.0
H1285 H 0.5068 0.21158 0.10318 0.0
H1286 H 0.45219 0.28145 0.15472 0.0
H1287 H 0.43088 0.23793 0.10448 0.0
H1288 H 0.31082 0.33357 0.10943 0.0
H1289 H 0.3868 0.30824 0.10686 0.0
H1290 H 0.37857 0.24954 0.1554 0.0
H1291 H 0.30348 0.27474 0.15805 0.0
C1292 C 0.50672 0.25111 0.14266 0.0
C1293 C 0.5232 0.23114 0.12823 0.0
C1294 C 0.46349 0.26606 0.1434 0.0
C1295 C 0.43534 0.26175 0.12972 0.0
C1296 C 0.45178 0.2421 0.1152 0.0
C1297 C 0.49518 0.22672 0.11449 0.0
C1298 C 0.32535 0.31548 0.11959 0.0
C1299 C 0.30089 0.30645 0.13398 0.0
C1300 C 0.36877 0.30064 0.11805 0.0
C1301 C 0.38888 0.2769 0.13094 0.0
C1302 C 0.36441 0.26815 0.14531 0.0
C1303 C 0.32113 0.28256 0.14679 0.0
H1304 H 0.85051 0.50612 0.12235 0.0
H1305 H 0.71943 0.53505 0.10549 0.0
H1306 H 0.83052 0.42906 0.12557 0.0
H1307 H 0.69918 0.45857 0.1091 0.0
H1308 H 0.68491 0.31047 0.10422 0.0
H1309 H 0.70831 0.38564 0.09886 0.0
H1310 H 0.7873 0.38313 0.14323 0.0
H1311 H 0.76488 0.30789 0.14836 0.0
C1312 C 0.81748 0.49608 0.11929 0.0
C1313 C 0.78661 0.52694 0.11369 0.0
C1314 C 0.80587 0.45187 0.12125 0.0
C1315 C 0.76307 0.43736 0.11769 0.0
C1316 C 0.73256 0.46819 0.11177 0.0
C1317 C 0.74417 0.51227 0.10979 0.0
C1318 C 0.7073 0.32591 0.11283 0.0
C1319 C 0.72284 0.30292 0.12675 0.0
C1320 C 0.72063 0.36919 0.10979 0.0
C1321 C 0.74982 0.39071 0.12059 0.0
C1322 C 0.76541 0.36759 0.13447 0.0
C1323 C 0.75218 0.32438 0.13749 0.0
H1324 H 0.51597 0.81775 0.10293 0.0
H1325 H 0.49749 0.77621 0.1536 0.0
H1326 H 0.59205 0.7917 0.104 0.0
H1327 H 0.57265 0.75035 0.15461 0.0
H1328 H 0.72127 0.75819 0.15723 0.0
H1329 H 0.64607 0.78312 0.15468 0.0
H1330 H 0.6365 0.7213 0.10672 0.0
H1331 H 0.71259 0.6962 0.1092 0.0
C1332 C 0.52805 0.80314 0.11427 0.0
C1333 C 0.50054 0.79923 0.12818 0.0
C1334 C 0.57153 0.78794 0.11485 0.0
C1335 C 0.58854 0.76902 0.12941 0.0
C1336 C 0.56089 0.76519 0.14325 0.0
C1337 C 0.51759 0.77994 0.14264 0.0
C1338 C 0.70331 0.74964 0.14612 0.0
C1339 C 0.72319 0.72492 0.13345 0.0
C1340 C 0.65998 0.7639 0.1447 0.0
C1341 C 0.6351 0.75416 0.13052 0.0
C1342 C 0.65485 0.72964 0.11776 0.0
C1343 C 0.69834 0.71494 0.11925 0.0
H1344 H 0.26807 0.26635 0.30877 0.0
H1345 H 0.32856 0.1623 0.28066 0.0
H1346 H 0.23355 0.29389 0.28368 0.0
H1347 H 0.29241 0.18832 0.25563 0.0
H1348 H 0.26311 0.27546 0.21094 0.0
H1349 H 0.29456 0.24384 0.23594 0.0
H1350 H 0.18001 0.28374 0.26366 0.0
H1351 H 0.14987 0.3172 0.23877 0.0
C1352 C 0.27319 0.24879 0.29726 0.0
C1353 C 0.3009 0.21207 0.29669 0.0
C1354 C 0.25327 0.26449 0.28283 0.0
C1355 C 0.26003 0.24345 0.26749 0.0
C1356 C 0.28704 0.20605 0.26707 0.0
C1357 C 0.30756 0.19087 0.28145 0.0
C1358 C 0.2445 0.27698 0.22235 0.0
C1359 C 0.20399 0.29873 0.2229 0.0
C1360 C 0.26245 0.25872 0.23673 0.0
C1361 C 0.24002 0.2612 0.25197 0.0
C1362 C 0.19885 0.28196 0.25232 0.0
C1363 C 0.18133 0.30089 0.23801 0.0
H1364 H 0.80394 0.36829 0.28155 0.0
H1365 H 0.8175 0.2383 0.30256 0.0
H1366 H 0.7765 0.3363 0.25608 0.0
H1367 H 0.78911 0.20688 0.2771 0.0
H1368 H 0.68447 0.17785 0.23623 0.0
H1369 H 0.71795 0.20568 0.26157 0.0
H1370 H 0.80163 0.28994 0.23254 0.0
H1371 H 0.76777 0.26271 0.20718 0.0
C1372 C 0.80121 0.33294 0.28085 0.0
C1373 C 0.81258 0.30628 0.29445 0.0
C1374 C 0.78557 0.31462 0.26614 0.0
C1375 C 0.7806 0.26908 0.26457 0.0
C1376 C 0.79207 0.24218 0.27802 0.0
C1377 C 0.80815 0.26046 0.29274 0.0
C1378 C 0.71022 0.20212 0.23523 0.0
C1379 C 0.72352 0.21781 0.21964 0.0
C1380 C 0.72961 0.21781 0.24976 0.0
C1381 C 0.76239 0.25003 0.24906 0.0
C1382 C 0.77622 0.2653 0.23348 0.0
C1383 C 0.75712 0.24929 0.21892 0.0
H1384 H 0.69634 0.86195 0.28096 0.0
H1385 H 0.7613 0.75939 0.3084 0.0
H1386 H 0.73197 0.83736 0.25562 0.0
H1387 H 0.79533 0.73321 0.283 0.0
H1388 H 0.87762 0.71317 0.23747 0.0
H1389 H 0.84752 0.74508 0.26265 0.0
H1390 H 0.7308 0.78239 0.23574 0.0
H1391 H 0.76219 0.75236 0.21043 0.0
C1392 C 0.71821 0.83401 0.28154 0.0
C1393 C 0.72627 0.81283 0.29669 0.0
C1394 C 0.73843 0.81963 0.26697 0.0
C1395 C 0.76657 0.78305 0.2671 0.0
C1396 C 0.7747 0.76203 0.28235 0.0
C1397 C 0.75507 0.77694 0.29697 0.0
C1398 C 0.84567 0.72858 0.23695 0.0
C1399 C 0.8224 0.73048 0.22196 0.0
C1400 C 0.82818 0.74661 0.25143 0.0
C1401 C 0.78642 0.7662 0.2514 0.0
C1402 C 0.76335 0.76841 0.23629 0.0
C1403 C 0.78127 0.75107 0.22173 0.0
H1404 H 0.26416 0.74937 0.30708 0.0
H1405 H 0.14893 0.71296 0.27939 0.0
H1406 H 0.29682 0.77949 0.28202 0.0
H1407 H 0.1803 0.74501 0.25448 0.0
H1408 H 0.26757 0.75892 0.20914 0.0
H1409 H 0.2329 0.73248 0.23435 0.0
H1410 H 0.29721 0.83494 0.2623 0.0
H1411 H 0.3335 0.85977 0.23712 0.0
C1412 C 0.24541 0.74872 0.29569 0.0
C1413 C 0.20396 0.72886 0.29519 0.0
C1414 C 0.26407 0.76611 0.28128 0.0
C1415 C 0.24142 0.76468 0.26606 0.0
C1416 C 0.19933 0.74588 0.26578 0.0
C1417 C 0.1811 0.72779 0.28011 0.0
C1418 C 0.27392 0.77602 0.22065 0.0
C1419 C 0.3031 0.81155 0.22114 0.0
C1420 C 0.2539 0.76097 0.23517 0.0
C1421 C 0.26201 0.78151 0.25051 0.0
C1422 C 0.2907 0.81762 0.25086 0.0
C1423 C 0.31132 0.83212 0.23639 0.0
H1424 H 0.76526 0.77269 0.71017 0.0
H1425 H 0.65632 0.82342 0.73835 0.0
H1426 H 0.7957 0.74044 0.73522 0.0
H1427 H 0.68554 0.7896 0.76333 0.0
H1428 H 0.77361 0.76596 0.80809 0.0
H1429 H 0.74083 0.79606 0.78307 0.0
H1430 H 0.78938 0.68534 0.75504 0.0
H1431 H 0.82373 0.6565 0.77998 0.0
C1432 C 0.74733 0.77618 0.72167 0.0
C1433 C 0.70825 0.80043 0.72226 0.0
C1434 C 0.76473 0.75757 0.73608 0.0
C1435 C 0.74319 0.76224 0.75143 0.0
C1436 C 0.70364 0.78594 0.75189 0.0
C1437 C 0.68666 0.80512 0.73752 0.0
C1438 C 0.77684 0.74785 0.79661 0.0
C1439 C 0.80111 0.70874 0.79602 0.0
C1440 C 0.75793 0.76505 0.78221 0.0
C1441 C 0.76233 0.74327 0.7669 0.0
C1442 C 0.78596 0.70364 0.76646 0.0
C1443 C 0.80544 0.68687 0.78079 0.0
H1444 H 0.26385 0.77405 0.80737 0.0
H1445 H 0.37388 0.81962 0.77859 0.0
H1446 H 0.23203 0.74141 0.78262 0.0
H1447 H 0.34334 0.7853 0.75394 0.0
H1448 H 0.25421 0.76344 0.70952 0.0
H1449 H 0.28815 0.7932 0.73435 0.0
H1450 H 0.23558 0.68556 0.76301 0.0
H1451 H 0.20002 0.65714 0.73823 0.0
C1452 C 0.28171 0.77626 0.79581 0.0
C1453 C 0.32145 0.7993 0.79493 0.0
C1454 C 0.26352 0.75743 0.78157 0.0
C1455 C 0.28493 0.76064 0.76614 0.0
C1456 C 0.32528 0.78287 0.76544 0.0
C1457 C 0.34303 0.80231 0.77961 0.0
C1458 C 0.2503 0.74593 0.7211 0.0
C1459 C 0.22461 0.70781 0.72191 0.0
C1460 C 0.2699 0.76292 0.73539 0.0
C1461 C 0.26483 0.74189 0.75082 0.0
C1462 C 0.23963 0.70328 0.75149 0.0
C1463 C 0.21944 0.68674 0.73725 0.0
H1464 H 0.28933 0.32702 0.80431 0.0
H1465 H 0.16129 0.30353 0.78311 0.0
H1466 H 0.32323 0.29799 0.77936 0.0
H1467 H 0.19554 0.27524 0.75815 0.0
H1468 H 0.27043 0.26549 0.70966 0.0
H1469 H 0.24007 0.29979 0.73439 0.0
H1470 H 0.33028 0.22643 0.76486 0.0
H1471 H 0.36144 0.19279 0.74012 0.0
C1472 C 0.26821 0.31524 0.79453 0.0
C1473 C 0.22225 0.31707 0.796 0.0
C1474 C 0.28783 0.29881 0.78012 0.0
C1475 C 0.2621 0.2843 0.76677 0.0
C1476 C 0.21633 0.28668 0.76812 0.0
C1477 C 0.19671 0.30279 0.78252 0.0
C1478 C 0.28448 0.25726 0.72157 0.0
C1479 C 0.31872 0.22656 0.72286 0.0
C1480 C 0.26665 0.27656 0.73578 0.0
C1481 C 0.28269 0.26576 0.7516 0.0
C1482 C 0.31747 0.23579 0.75286 0.0
C1483 C 0.33508 0.21626 0.73867 0.0
H1484 H 0.76594 0.26066 0.80628 0.0
H1485 H 0.66298 0.20022 0.77767 0.0
H1486 H 0.79502 0.2942 0.78123 0.0
H1487 H 0.69065 0.23526 0.75268 0.0
H1488 H 0.77847 0.26395 0.70834 0.0
H1489 H 0.74709 0.23241 0.73336 0.0
H1490 H 0.78573 0.34763 0.76096 0.0
H1491 H 0.81881 0.37801 0.73605 0.0
C1492 C 0.74898 0.25528 0.79467 0.0
C1493 C 0.71203 0.22793 0.79397 0.0
C1494 C 0.76559 0.27462 0.78026 0.0
C1495 C 0.74533 0.2676 0.76479 0.0
C1496 C 0.70782 0.24083 0.76422 0.0
C1497 C 0.69169 0.22093 0.77859 0.0
C1498 C 0.77983 0.2827 0.71972 0.0
C1499 C 0.80096 0.32357 0.7202 0.0
C1500 C 0.7617 0.26467 0.73412 0.0
C1501 C 0.76372 0.28733 0.74932 0.0
C1502 C 0.78422 0.32865 0.74965 0.0
C1503 C 0.80296 0.3463 0.73532 0.0
H1504 H 0.1214 0.46181 0.1354 0.0
H1505 H 0.0189 0.3858 0.11259 0.0
H1506 H 0.0819 0.52928 0.12858 0.0
H1507 H 0.97839 0.45296 0.10644 0.0
H1508 H 1.0058 0.64573 0.11061 0.0
H1509 H 0.04635 0.57804 0.10545 0.0
H1510 H 0.94325 0.50402 0.12893 0.0
H1511 H 0.9037 0.57208 0.13479 0.0
C1512 C 0.09181 0.45966 0.12807 0.0
C1513 C 0.07383 0.41865 0.12416 0.0
C1514 C 0.06868 0.49823 0.12441 0.0
C1515 C 0.02677 0.4963 0.11712 0.0
C1516 C 1.01041 0.45543 0.11214 0.0
C1517 C 0.03383 0.41708 0.11553 0.0
C1518 C 0.99101 0.61481 0.11412 0.0
C1519 C 0.95113 0.61412 0.12287 0.0
C1520 C 0.01444 0.57615 0.11126 0.0
C1521 C 0.99819 0.53583 0.11688 0.0
C1522 C 0.95639 0.53463 0.12429 0.0
C1523 C 0.93325 0.57353 0.12741 0.0
H1524 H 0.38178 1.00538 0.11295 0.0
H1525 H 0.46201 0.90463 0.13482 0.0
H1526 H 0.44736 0.04699 0.10565 0.0
H1527 H 0.52774 0.94521 0.12702 0.0
H1528 H 0.56353 0.12438 0.13408 0.0
H1529 H 0.49712 0.08382 0.12715 0.0
H1530 H 0.57547 0.98184 0.10482 0.0
H1531 H 0.6417 0.02342 0.11127 0.0
C1532 C 0.4136 0.99106 0.11542 0.0
C1533 C 0.41694 0.95132 0.12416 0.0
C1534 C 0.45106 0.01506 0.11135 0.0
C1535 C 0.49264 0.99958 0.11586 0.0
C1536 C 0.49615 0.95775 0.12317 0.0
C1537 C 0.45853 0.934 0.12743 0.0
C1538 C 0.56633 0.09496 0.12667 0.0
C1539 C 0.6076 0.07754 0.1229 0.0
C1540 C 0.52834 0.07123 0.1229 0.0
C1541 C 0.53117 0.02934 0.11559 0.0
C1542 C 0.57231 0.01382 0.11055 0.0
C1543 C 0.61013 0.03779 0.11412 0.0
H1544 H 0.12235 0.56768 0.38204 0.0
H1545 H 0.02027 0.64135 0.40624 0.0
H1546 H 0.08316 0.49959 0.38806 0.0
H1547 H 0.98008 0.57359 0.41164 0.0
H1548 H 0.90468 0.4584 0.38151 0.0
H1549 H 0.94429 0.52547 0.38869 0.0
H1550 H 0.04814 0.448 0.41008 0.0
H1551 H 1.00754 0.38119 0.40354 0.0
C1552 C 0.09295 0.56911 0.38951 0.0
C1553 C 0.07492 0.60969 0.394 0.0
C1554 C 0.07 0.53018 0.39272 0.0
C1555 C 0.02824 0.53137 0.40017 0.0
C1556 C 1.01196 0.5717 0.4058 0.0
C1557 C 0.0352 0.61039 0.40283 0.0
C1558 C 0.93439 0.45587 0.38876 0.0
C1559 C 0.95246 0.41468 0.39232 0.0
C1560 C 0.95757 0.49423 0.39263 0.0
C1561 C 0.9996 0.49191 0.39981 0.0
C1562 C 0.01604 0.45079 0.40448 0.0
C1563 C 0.99258 0.41263 0.40085 0.0
H1564 H 0.56678 0.9031 0.38318 0.0
H1565 H 0.64535 1.00403 0.40577 0.0
H1566 H 0.50049 0.9438 0.39026 0.0
H1567 H 0.57924 0.04575 0.41232 0.0
H1568 H 0.38542 0.02194 0.40542 0.0
H1569 H 0.45148 0.98036 0.41218 0.0
H1570 H 0.53048 0.08247 0.39036 0.0
H1571 H 0.46425 0.12301 0.38308 0.0
C1572 C 0.56972 0.93258 0.39055 0.0
C1573 C 0.61107 0.94991 0.39421 0.0
C1574 C 0.5318 0.95638 0.3944 0.0
C1575 C 0.53475 0.99826 0.4017 0.0
C1576 C 0.57599 1.01379 0.40659 0.0
C1577 C 0.61374 0.98974 0.40294 0.0
C1578 C 0.41707 0.03635 0.40275 0.0
C1579 C 0.41984 0.07618 0.39403 0.0
C1580 C 0.45479 1.01236 0.40649 0.0
C1581 C 0.49609 0.02794 0.40169 0.0
C1582 C 0.49912 0.06985 0.39442 0.0
C1583 C 0.46123 0.09358 0.39047 0.0
H1584 H 0.14302 0.50729 0.90674 0.0
H1585 H 0.0646 0.40655 0.88397 0.0
H1586 H 0.07687 0.54896 0.91328 0.0
H1587 H 0.99821 0.44708 0.89119 0.0
H1588 H 0.95984 0.62507 0.88388 0.0
H1589 H 0.02686 0.58478 0.89043 0.0
H1590 H 0.95035 0.48425 0.91441 0.0
H1591 H 0.88365 0.52568 0.90853 0.0
C1592 C 0.11143 0.49291 0.90394 0.0
C1593 C 0.10888 0.45315 0.89515 0.0
C1594 C 0.07366 0.51699 0.90755 0.0
C1595 C 0.03246 0.50148 0.90265 0.0
C1596 C 0.02954 0.45963 0.89531 0.0
C1597 C 0.06752 0.43587 0.89143 0.0
C1598 C 0.95761 0.59609 0.89155 0.0
C1599 C 0.91662 0.57906 0.89597 0.0
C1600 C 0.99593 0.57248 0.89507 0.0
C1601 C 0.99371 0.53106 0.90278 0.0
C1602 C 0.95301 0.51586 0.90837 0.0
C1603 C 0.91492 0.5398 0.90511 0.0
H1604 H 0.62343 0.06869 0.88154 0.0
H1605 H 0.52244 0.14713 0.90418 0.0
H1606 H 0.58349 1.00214 0.889 0.0
H1607 H 0.48138 0.08079 0.91099 0.0
H1608 H 0.40572 0.96298 0.88205 0.0
H1609 H 0.44543 0.03032 0.88865 0.0
H1610 H 0.54722 0.95411 0.91202 0.0
H1611 H 0.50642 0.88707 0.90603 0.0
C1612 C 0.59417 0.0716 0.88902 0.0
C1613 C 0.57664 0.11299 0.89262 0.0
C1614 C 0.57075 0.03352 0.89305 0.0
C1615 C 0.52901 0.03634 0.90044 0.0
C1616 C 0.51327 0.07763 0.90523 0.0
C1617 C 0.53699 0.11552 0.90145 0.0
C1618 C 0.43484 0.96088 0.88963 0.0
C1619 C 0.4524 0.91991 0.89385 0.0
C1620 C 0.45812 0.99939 0.89318 0.0
C1621 C 0.49974 0.99737 0.9007 0.0
C1622 C 0.51544 0.95663 0.90613 0.0
C1623 C 0.49185 0.91835 0.90283 0.0
H1624 H 0.06434 0.61785 0.63549 0.0
H1625 H 0.14355 0.52185 0.61036 0.0
H1626 H 0.99832 0.57787 0.62763 0.0
H1627 H 0.07769 0.4799 0.60348 0.0
H1628 H 0.88527 0.50186 0.60628 0.0
H1629 H 0.95283 0.54288 0.60162 0.0
H1630 H 0.02565 0.44283 0.62743 0.0
H1631 H 0.95758 0.40302 0.63292 0.0
C1632 C 0.06747 0.59001 0.62732 0.0
C1633 C 0.10897 0.57417 0.62295 0.0
C1634 C 0.02972 0.56633 0.62314 0.0
C1635 C 0.03298 0.52565 0.61499 0.0
C1636 C 0.07427 0.51114 0.60973 0.0
C1637 C 0.11183 0.53539 0.61354 0.0
C1638 C 0.91595 0.48772 0.6104 0.0
C1639 C 0.91622 0.44877 0.61976 0.0
C1640 C 0.95452 0.5114 0.6078 0.0
C1641 C 0.99433 0.49616 0.61422 0.0
C1642 C 0.99538 0.45504 0.62217 0.0
C1643 C 0.95651 0.43174 0.62507 0.0
H1644 H 0.62271 0.95598 0.63506 0.0
H1645 H 0.52214 0.88045 0.61085 0.0
H1646 H 0.58307 0.02342 0.62854 0.0
H1647 H 0.48129 0.94762 0.60503 0.0
H1648 H 0.50678 0.14037 0.61238 0.0
H1649 H 0.5474 0.07359 0.60573 0.0
H1650 H 0.44539 0.99618 0.62833 0.0
H1651 H 0.40592 0.06321 0.63565 0.0
C1652 C 0.5936 0.95398 0.62748 0.0
C1653 C 0.5761 0.91309 0.62315 0.0
C1654 C 0.57036 0.99254 0.62398 0.0
C1655 C 0.52882 0.99067 0.61641 0.0
C1656 C 0.51305 0.95001 0.61094 0.0
C1657 C 0.53662 0.91166 0.61417 0.0
C1658 C 0.49215 0.10893 0.61528 0.0
C1659 C 0.45268 0.10688 0.62424 0.0
C1660 C 0.51561 0.0708 0.61159 0.0
C1661 C 0.49974 0.02977 0.6166 0.0
C1662 C 0.45816 0.02738 0.62413 0.0
C1663 C 0.43503 0.06572 0.62808 0.0
loop_
_geom_bond_atom_site_label_1
_geom_bond_atom_site_label_2
_geom_bond_distance
_geom_bond_site_symmetry_2
_ccdc_geom_bond_type
Zn0 N4 2.020 . S
Zn0 O8 2.019 . S
Zn0 N10 2.119 . S
Zn0 O18 1.975 . S
C1 N2 1.334 . S
C1 N5 1.336 . S
N2 C1 1.334 . S
N2 C3 1.334 . S
C3 N2 1.334 . S
C3 N4 1.336 . S
N4 Zn0 2.020 . S
N4 C3 1.336 . S
N4 N5 1.354 . S
N5 C1 1.336 . S
N5 N4 1.354 . S
N5 Zn9 2.020 . S
C6 O7 1.244 . S
C6 O30 1.257 . S
O7 C6 1.244 . S
O8 Zn0 2.019 . S
O8 C28 1.257 . S
Zn9 N5 2.020 . S
Zn9 O16 1.975 . S
Zn9 N25 2.119 . S
Zn9 O30 2.019 . S
N10 Zn0 2.119 . S
N10 C12 1.334 . S
N10 C13 1.328 . S
C11 C12 1.391 . S
C11 N14 1.329 . S
C11 H32 0.930 . S
C12 N10 1.334 . S
C12 C11 1.391 . S
C12 H19 0.930 . S
C13 N10 1.328 . S
C13 C15 1.392 . S
C13 H20 0.930 . S
N14 C11 1.329 . S
N14 C15 1.331 . S
C15 C13 1.392 . S
C15 N14 1.331 . S
O16 Zn9 1.975 . S
O16 C17 1.252 . S
C17 O16 1.252 . S
C17 O18 1.252 . S
O18 Zn0 1.975 . S
O18 C17 1.252 . S
H19 C12 0.930 . S
H20 C13 0.930 . S
C21 C22 1.392 . S
C21 N25 1.328 . S
C21 H27 0.930 . S
C22 C21 1.392 . S
C22 N26 1.331 . S
C23 C24 1.391 . S
C23 N26 1.329 . S
C23 H33 0.930 . S
C24 C23 1.391 . S
C24 N25 1.334 . S
C24 H31 0.930 . S
N25 Zn9 2.119 . S
N25 C21 1.328 . S
N25 C24 1.334 . S
N26 C22 1.331 . S
N26 C23 1.329 . S
H27 C21 0.930 . S
C28 O8 1.257 . S
C28 O29 1.244 . S
O29 C28 1.244 . S
O30 C6 1.257 . S
O30 Zn9 2.019 . S
H31 C24 0.930 . S
H32 C11 0.930 . S
H33 C23 0.930 . S
Zn34 N38 2.020 . S
Zn34 O42 2.019 . S
Zn34 N44 2.119 . S
Zn34 O52 1.975 . S
C35 N36 1.334 . S
C35 N39 1.336 . S
N36 C35 1.334 . S
N36 C37 1.334 . S
C37 N36 1.334 . S
C37 N38 1.336 . S
N38 Zn34 2.020 . S
N38 C37 1.336 . S
N38 N39 1.354 . S
N39 C35 1.336 . S
N39 N38 1.354 . S
N39 Zn43 2.020 . S
C40 O41 1.244 . S
C40 O64 1.257 . S
O41 C40 1.244 . S
O42 Zn34 2.019 . S
O42 C62 1.257 . S
Zn43 N39 2.020 . S
Zn43 O50 1.975 . S
Zn43 N59 2.119 . S
Zn43 O64 2.019 . S
N44 Zn34 2.119 . S
N44 C46 1.334 . S
N44 C47 1.328 . S
C45 C46 1.391 . S
C45 N48 1.329 . S
C45 H66 0.930 . S
C46 N44 1.334 . S
C46 C45 1.391 . S
C46 H53 0.930 . S
C47 N44 1.328 . S
C47 C49 1.392 . S
C47 H54 0.930 . S
N48 C45 1.329 . S
N48 C49 1.331 . S
C49 C47 1.392 . S
C49 N48 1.331 . S
O50 Zn43 1.975 . S
O50 C51 1.252 . S
C51 O50 1.252 . S
C51 O52 1.252 . S
O52 Zn34 1.975 . S
O52 C51 1.252 . S
H53 C46 0.930 . S
H54 C47 0.930 . S
C55 C56 1.392 . S
C55 N59 1.328 . S
C55 H61 0.930 . S
C56 C55 1.392 . S
C56 N60 1.331 . S
C57 C58 1.391 . S
C57 N60 1.329 . S
C57 H67 0.930 . S
C58 C57 1.391 . S
C58 N59 1.334 . S
C58 H65 0.930 . S
N59 Zn43 2.119 . S
N59 C55 1.328 . S
N59 C58 1.334 . S
N60 C56 1.331 . S
N60 C57 1.329 . S
H61 C55 0.930 . S
C62 O42 1.257 . S
C62 O63 1.244 . S
O63 C62 1.244 . S
O64 C40 1.257 . S
O64 Zn43 2.019 . S
H65 C58 0.930 . S
H66 C45 0.930 . S
H67 C57 0.930 . S
Zn68 N72 2.020 . S
Zn68 O76 2.019 . S
Zn68 N78 2.119 . S
Zn68 O86 1.975 . S
C69 N70 1.334 . S
C69 N73 1.336 . S
N70 C69 1.334 . S
N70 C71 1.334 . S
C71 N70 1.334 . S
C71 N72 1.336 . S
N72 Zn68 2.020 . S
N72 C71 1.336 . S
N72 N73 1.354 . S
N73 C69 1.336 . S
N73 N72 1.354 . S
N73 Zn77 2.020 . S
C74 O75 1.244 . S
C74 O98 1.257 . S
O75 C74 1.244 . S
O76 Zn68 2.019 . S
O76 C96 1.257 . S
Zn77 N73 2.020 . S
Zn77 O84 1.975 . S
Zn77 N93 2.119 . S
Zn77 O98 2.019 . S
N78 Zn68 2.119 . S
N78 C80 1.334 . S
N78 C81 1.328 . S
C79 C80 1.391 . S
C79 N82 1.329 . S
C79 H100 0.930 . S
C80 N78 1.334 . S
C80 C79 1.391 . S
C80 H87 0.930 . S
C81 N78 1.328 . S
C81 C83 1.392 . S
C81 H88 0.930 . S
N82 C79 1.329 . S
N82 C83 1.331 . S
C83 C81 1.392 . S
C83 N82 1.331 . S
O84 Zn77 1.975 . S
O84 C85 1.252 . S
C85 O84 1.252 . S
C85 O86 1.252 . S
O86 Zn68 1.975 . S
O86 C85 1.252 . S
H87 C80 0.930 . S
H88 C81 0.930 . S
C89 C90 1.392 . S
C89 N93 1.328 . S
C89 H95 0.930 . S
C90 C89 1.392 . S
C90 N94 1.331 . S
C91 C92 1.391 . S
C91 N94 1.329 . S
C91 H101 0.930 . S
C92 C91 1.391 . S
C92 N93 1.334 . S
C92 H99 0.930 . S
N93 Zn77 2.119 . S
N93 C89 1.328 . S
N93 C92 1.334 . S
N94 C90 1.331 . S
N94 C91 1.329 . S
H95 C89 0.930 . S
C96 O76 1.257 . S
C96 O97 1.244 . S
O97 C96 1.244 . S
O98 C74 1.257 . S
O98 Zn77 2.019 . S
H99 C92 0.930 . S
H100 C79 0.930 . S
H101 C91 0.930 . S
Zn102 N106 2.020 . S
Zn102 O110 2.019 . S
Zn102 N112 2.119 . S
Zn102 O120 1.975 . S
C103 N104 1.334 . S
C103 N107 1.336 . S
N104 C103 1.334 . S
N104 C105 1.334 . S
C105 N104 1.334 . S
C105 N106 1.336 . S
N106 Zn102 2.020 . S
N106 C105 1.336 . S
N106 N107 1.354 . S
N107 C103 1.336 . S
N107 N106 1.354 . S
N107 Zn111 2.020 . S
C108 O109 1.244 . S
C108 O132 1.257 . S
O109 C108 1.244 . S
O110 Zn102 2.019 . S
O110 C130 1.257 . S
Zn111 N107 2.020 . S
Zn111 O118 1.975 . S
Zn111 N127 2.119 . S
Zn111 O132 2.019 . S
N112 Zn102 2.119 . S
N112 C114 1.334 . S
N112 C115 1.328 . S
C113 C114 1.391 . S
C113 N116 1.329 . S
C113 H134 0.930 . S
C114 N112 1.334 . S
C114 C113 1.391 . S
C114 H121 0.930 . S
C115 N112 1.328 . S
C115 C117 1.392 . S
C115 H122 0.930 . S
N116 C113 1.329 . S
N116 C117 1.331 . S
C117 C115 1.392 . S
C117 N116 1.331 . S
O118 Zn111 1.975 . S
O118 C119 1.252 . S
C119 O118 1.252 . S
C119 O120 1.252 . S
O120 Zn102 1.975 . S
O120 C119 1.252 . S
H121 C114 0.930 . S
H122 C115 0.930 . S
C123 C124 1.392 . S
C123 N127 1.328 . S
C123 H129 0.930 . S
C124 C123 1.392 . S
C124 N128 1.331 . S
C125 C126 1.391 . S
C125 N128 1.329 . S
C125 H135 0.930 . S
C126 C125 1.391 . S
C126 N127 1.334 . S
C126 H133 0.930 . S
N127 Zn111 2.119 . S
N127 C123 1.328 . S
N127 C126 1.334 . S
N128 C124 1.331 . S
N128 C125 1.329 . S
H129 C123 0.930 . S
C130 O110 1.257 . S
C130 O131 1.244 . S
O131 C130 1.244 . S
O132 C108 1.257 . S
O132 Zn111 2.019 . S
H133 C126 0.930 . S
H134 C113 0.930 . S
H135 C125 0.930 . S
Zn136 N140 2.020 . S
Zn136 O144 2.019 . S
Zn136 N146 2.119 . S
Zn136 O154 1.975 . S
C137 N138 1.334 . S
C137 N141 1.336 . S
N138 C137 1.334 . S
N138 C139 1.334 . S
C139 N138 1.334 . S
C139 N140 1.336 . S
N140 Zn136 2.020 . S
N140 C139 1.336 . S
N140 N141 1.354 . S
N141 C137 1.336 . S
N141 N140 1.354 . S
N141 Zn145 2.020 . S
C142 O143 1.244 . S
C142 O166 1.257 . S
O143 C142 1.244 . S
O144 Zn136 2.019 . S
O144 C164 1.257 . S
Zn145 N141 2.020 . S
Zn145 O152 1.975 . S
Zn145 N161 2.119 . S
Zn145 O166 2.019 . S
N146 Zn136 2.119 . S
N146 C148 1.334 . S
N146 C149 1.328 . S
C147 C148 1.391 . S
C147 N150 1.329 . S
C147 H168 0.930 . S
C148 N146 1.334 . S
C148 C147 1.391 . S
C148 H155 0.930 . S
C149 N146 1.328 . S
C149 C151 1.392 . S
C149 H156 0.930 . S
N150 C147 1.329 . S
N150 C151 1.331 . S
C151 C149 1.392 . S
C151 N150 1.331 . S
O152 Zn145 1.975 . S
O152 C153 1.252 . S
C153 O152 1.252 . S
C153 O154 1.252 . S
O154 Zn136 1.975 . S
O154 C153 1.252 . S
H155 C148 0.930 . S
H156 C149 0.930 . S
C157 C158 1.392 . S
C157 N161 1.328 . S
C157 H163 0.930 . S
C158 C157 1.392 . S
C158 N162 1.331 . S
C159 C160 1.391 . S
C159 N162 1.329 . S
C159 H169 0.930 . S
C160 C159 1.391 . S
C160 N161 1.334 . S
C160 H167 0.930 . S
N161 Zn145 2.119 . S
N161 C157 1.328 . S
N161 C160 1.334 . S
N162 C158 1.331 . S
N162 C159 1.329 . S
H163 C157 0.930 . S
C164 O144 1.257 . S
C164 O165 1.244 . S
O165 C164 1.244 . S
O166 C142 1.257 . S
O166 Zn145 2.019 . S
H167 C160 0.930 . S
H168 C147 0.930 . S
H169 C159 0.930 . S
Zn170 N174 2.020 . S
Zn170 O178 2.019 . S
Zn170 N180 2.119 . S
Zn170 O188 1.975 . S
C171 N172 1.334 . S
C171 N175 1.336 . S
N172 C171 1.334 . S
N172 C173 1.334 . S
C173 N172 1.334 . S
C173 N174 1.336 . S
N174 Zn170 2.020 . S
N174 C173 1.336 . S
N174 N175 1.354 . S
N175 C171 1.336 . S
N175 N174 1.354 . S
N175 Zn179 2.020 . S
C176 O177 1.244 . S
C176 O200 1.257 . S
O177 C176 1.244 . S
O178 Zn170 2.019 . S
O178 C198 1.257 . S
Zn179 N175 2.020 . S
Zn179 O186 1.975 . S
Zn179 N195 2.119 . S
Zn179 O200 2.019 . S
N180 Zn170 2.119 . S
N180 C182 1.334 . S
N180 C183 1.328 . S
C181 C182 1.391 . S
C181 N184 1.329 . S
C181 H202 0.930 . S
C182 N180 1.334 . S
C182 C181 1.391 . S
C182 H189 0.930 . S
C183 N180 1.328 . S
C183 C185 1.392 . S
C183 H190 0.930 . S
N184 C181 1.329 . S
N184 C185 1.331 . S
C185 C183 1.392 . S
C185 N184 1.331 . S
O186 Zn179 1.975 . S
O186 C187 1.252 . S
C187 O186 1.252 . S
C187 O188 1.252 . S
O188 Zn170 1.975 . S
O188 C187 1.252 . S
H189 C182 0.930 . S
H190 C183 0.930 . S
C191 C192 1.392 . S
C191 N195 1.328 . S
C191 H197 0.930 . S
C192 C191 1.392 . S
C192 N196 1.331 . S
C193 C194 1.391 . S
C193 N196 1.329 . S
C193 H203 0.930 . S
C194 C193 1.391 . S
C194 N195 1.334 . S
C194 H201 0.930 . S
N195 Zn179 2.119 . S
N195 C191 1.328 . S
N195 C194 1.334 . S
N196 C192 1.331 . S
N196 C193 1.329 . S
H197 C191 0.930 . S
C198 O178 1.257 . S
C198 O199 1.244 . S
O199 C198 1.244 . S
O200 C176 1.257 . S
O200 Zn179 2.019 . S
H201 C194 0.930 . S
H202 C181 0.930 . S
H203 C193 0.930 . S
Zn204 N208 2.020 . S
Zn204 O212 2.019 . S
Zn204 N214 2.119 . S
Zn204 O222 1.975 . S
C205 N206 1.334 . S
C205 N209 1.336 . S
N206 C205 1.334 . S
N206 C207 1.334 . S
C207 N206 1.334 . S
C207 N208 1.336 . S
N208 Zn204 2.020 . S
N208 C207 1.336 . S
N208 N209 1.354 . S
N209 C205 1.336 . S
N209 N208 1.354 . S
N209 Zn213 2.020 . S
C210 O211 1.244 . S
C210 O234 1.257 . S
O211 C210 1.244 . S
O212 Zn204 2.019 . S
O212 C232 1.257 . S
Zn213 N209 2.020 . S
Zn213 O220 1.975 . S
Zn213 N229 2.119 . S
Zn213 O234 2.019 . S
N214 Zn204 2.119 . S
N214 C216 1.334 . S
N214 C217 1.328 . S
C215 C216 1.391 . S
C215 N218 1.329 . S
C215 H236 0.930 . S
C216 N214 1.334 . S
C216 C215 1.391 . S
C216 H223 0.930 . S
C217 N214 1.328 . S
C217 C219 1.392 . S
C217 H224 0.930 . S
N218 C215 1.329 . S
N218 C219 1.331 . S
C219 C217 1.392 . S
C219 N218 1.331 . S
O220 Zn213 1.975 . S
O220 C221 1.252 . S
C221 O220 1.252 . S
C221 O222 1.252 . S
O222 Zn204 1.975 . S
O222 C221 1.252 . S
H223 C216 0.930 . S
H224 C217 0.930 . S
C225 C226 1.392 . S
C225 N229 1.328 . S
C225 H231 0.930 . S
C226 C225 1.392 . S
C226 N230 1.331 . S
C227 C228 1.391 . S
C227 N230 1.329 . S
C227 H237 0.930 . S
C228 C227 1.391 . S
C228 N229 1.334 . S
C228 H235 0.930 . S
N229 Zn213 2.119 . S
N229 C225 1.328 . S
N229 C228 1.334 . S
N230 C226 1.331 . S
N230 C227 1.329 . S
H231 C225 0.930 . S
C232 O212 1.257 . S
C232 O233 1.244 . S
O233 C232 1.244 . S
O234 C210 1.257 . S
O234 Zn213 2.019 . S
H235 C228 0.930 . S
H236 C215 0.930 . S
H237 C227 0.930 . S
Zn238 N242 2.020 . S
Zn238 O246 2.019 . S
Zn238 N248 2.119 . S
Zn238 O256 1.975 . S
C239 N240 1.334 . S
C239 N243 1.336 . S
N240 C239 1.334 . S
N240 C241 1.334 . S
C241 N240 1.334 . S
C241 N242 1.336 . S
N242 Zn238 2.020 . S
N242 C241 1.336 . S
N242 N243 1.354 . S
N243 C239 1.336 . S
N243 N242 1.354 . S
N243 Zn247 2.020 . S
C244 O245 1.244 . S
C244 O268 1.257 . S
O245 C244 1.244 . S
O246 Zn238 2.019 . S
O246 C266 1.257 . S
Zn247 N243 2.020 . S
Zn247 O254 1.975 . S
Zn247 N263 2.119 . S
Zn247 O268 2.019 . S
N248 Zn238 2.119 . S
N248 C250 1.334 . S
N248 C251 1.328 . S
C249 C250 1.391 . S
C249 N252 1.329 . S
C249 H270 0.930 . S
C250 N248 1.334 . S
C250 C249 1.391 . S
C250 H257 0.930 . S
C251 N248 1.328 . S
C251 C253 1.392 . S
C251 H258 0.930 . S
N252 C249 1.329 . S
N252 C253 1.331 . S
C253 C251 1.392 . S
C253 N252 1.331 . S
O254 Zn247 1.975 . S
O254 C255 1.252 . S
C255 O254 1.252 . S
C255 O256 1.252 . S
O256 Zn238 1.975 . S
O256 C255 1.252 . S
H257 C250 0.930 . S
H258 C251 0.930 . S
C259 C260 1.392 . S
C259 N263 1.328 . S
C259 H265 0.930 . S
C260 C259 1.392 . S
C260 N264 1.331 . S
C261 C262 1.391 . S
C261 N264 1.329 . S
C261 H271 0.930 . S
C262 C261 1.391 . S
C262 N263 1.334 . S
C262 H269 0.930 . S
N263 Zn247 2.119 . S
N263 C259 1.328 . S
N263 C262 1.334 . S
N264 C260 1.331 . S
N264 C261 1.329 . S
H265 C259 0.930 . S
C266 O246 1.257 . S
C266 O267 1.244 . S
O267 C266 1.244 . S
O268 C244 1.257 . S
O268 Zn247 2.019 . S
H269 C262 0.930 . S
H270 C249 0.930 . S
H271 C261 0.930 . S
Zn272 N276 2.020 . S
Zn272 O280 2.019 . S
Zn272 N282 2.119 . S
Zn272 O290 1.975 . S
C273 N274 1.334 . S
C273 N277 1.336 . S
N274 C273 1.334 . S
N274 C275 1.334 . S
C275 N274 1.334 . S
C275 N276 1.336 . S
N276 Zn272 2.020 . S
N276 C275 1.336 . S
N276 N277 1.354 . S
N277 C273 1.336 . S
N277 N276 1.354 . S
N277 Zn281 2.020 . S
C278 O279 1.244 . S
C278 O302 1.257 . S
O279 C278 1.244 . S
O280 Zn272 2.019 . S
O280 C300 1.257 . S
Zn281 N277 2.020 . S
Zn281 O288 1.975 . S
Zn281 N297 2.119 . S
Zn281 O302 2.019 . S
N282 Zn272 2.119 . S
N282 C284 1.334 . S
N282 C285 1.328 . S
C283 C284 1.391 . S
C283 N286 1.329 . S
C283 H304 0.930 . S
C284 N282 1.334 . S
C284 C283 1.391 . S
C284 H291 0.930 . S
C285 N282 1.328 . S
C285 C287 1.392 . S
C285 H292 0.930 . S
N286 C283 1.329 . S
N286 C287 1.331 . S
C287 C285 1.392 . S
C287 N286 1.331 . S
O288 Zn281 1.975 . S
O288 C289 1.252 . S
C289 O288 1.252 . S
C289 O290 1.252 . S
O290 Zn272 1.975 . S
O290 C289 1.252 . S
H291 C284 0.930 . S
H292 C285 0.930 . S
C293 C294 1.392 . S
C293 N297 1.328 . S
C293 H299 0.930 . S
C294 C293 1.392 . S
C294 N298 1.331 . S
C295 C296 1.391 . S
C295 N298 1.329 . S
C295 H305 0.930 . S
C296 C295 1.391 . S
C296 N297 1.334 . S
C296 H303 0.930 . S
N297 Zn281 2.119 . S
N297 C293 1.328 . S
N297 C296 1.334 . S
N298 C294 1.331 . S
N298 C295 1.329 . S
H299 C293 0.930 . S
C300 O280 1.257 . S
C300 O301 1.244 . S
O301 C300 1.244 . S
O302 C278 1.257 . S
O302 Zn281 2.019 . S
H303 C296 0.930 . S
H304 C283 0.930 . S
H305 C295 0.930 . S
Zn306 N310 2.020 . S
Zn306 O314 2.019 . S
Zn306 N316 2.119 . S
Zn306 O324 1.975 . S
C307 N308 1.334 . S
C307 N311 1.336 . S
N308 C307 1.334 . S
N308 C309 1.334 . S
C309 N308 1.334 . S
C309 N310 1.336 . S
N310 Zn306 2.020 . S
N310 C309 1.336 . S
N310 N311 1.354 . S
N311 C307 1.336 . S
N311 N310 1.354 . S
N311 Zn315 2.020 . S
C312 O313 1.244 . S
C312 O336 1.257 . S
O313 C312 1.244 . S
O314 Zn306 2.019 . S
O314 C334 1.257 . S
Zn315 N311 2.020 . S
Zn315 O322 1.975 . S
Zn315 N331 2.119 . S
Zn315 O336 2.019 . S
N316 Zn306 2.119 . S
N316 C318 1.334 . S
N316 C319 1.328 . S
C317 C318 1.391 . S
C317 N320 1.329 . S
C317 H338 0.930 . S
C318 N316 1.334 . S
C318 C317 1.391 . S
C318 H325 0.930 . S
C319 N316 1.328 . S
C319 C321 1.392 . S
C319 H326 0.930 . S
N320 C317 1.329 . S
N320 C321 1.331 . S
C321 C319 1.392 . S
C321 N320 1.331 . S
O322 Zn315 1.975 . S
O322 C323 1.252 . S
C323 O322 1.252 . S
C323 O324 1.252 . S
O324 Zn306 1.975 . S
O324 C323 1.252 . S
H325 C318 0.930 . S
H326 C319 0.930 . S
C327 C328 1.392 . S
C327 N331 1.328 . S
C327 H333 0.930 . S
C328 C327 1.392 . S
C328 N332 1.331 . S
C329 C330 1.391 . S
C329 N332 1.329 . S
C329 H339 0.930 . S
C330 C329 1.391 . S
C330 N331 1.334 . S
C330 H337 0.930 . S
N331 Zn315 2.119 . S
N331 C327 1.328 . S
N331 C330 1.334 . S
N332 C328 1.331 . S
N332 C329 1.329 . S
H333 C327 0.930 . S
C334 O314 1.257 . S
C334 O335 1.244 . S
O335 C334 1.244 . S
O336 C312 1.257 . S
O336 Zn315 2.019 . S
H337 C330 0.930 . S
H338 C317 0.930 . S
H339 C329 0.930 . S
Zn340 N344 2.020 . S
Zn340 O348 2.019 . S
Zn340 N350 2.119 . S
Zn340 O358 1.975 . S
C341 N342 1.334 . S
C341 N345 1.336 . S
N342 C341 1.334 . S
N342 C343 1.334 . S
C343 N342 1.334 . S
C343 N344 1.336 . S
N344 Zn340 2.020 . S
N344 C343 1.336 . S
N344 N345 1.354 . S
N345 C341 1.336 . S
N345 N344 1.354 . S
N345 Zn349 2.020 . S
C346 O347 1.244 . S
C346 O370 1.257 . S
O347 C346 1.244 . S
O348 Zn340 2.019 . S
O348 C368 1.257 . S
Zn349 N345 2.020 . S
Zn349 O356 1.975 . S
Zn349 N365 2.119 . S
Zn349 O370 2.019 . S
N350 Zn340 2.119 . S
N350 C352 1.334 . S
N350 C353 1.328 . S
C351 C352 1.391 . S
C351 N354 1.329 . S
C351 H372 0.930 . S
C352 N350 1.334 . S
C352 C351 1.391 . S
C352 H359 0.930 . S
C353 N350 1.328 . S
C353 C355 1.392 . S
C353 H360 0.930 . S
N354 C351 1.329 . S
N354 C355 1.331 . S
C355 C353 1.392 . S
C355 N354 1.331 . S
O356 Zn349 1.975 . S
O356 C357 1.252 . S
C357 O356 1.252 . S
C357 O358 1.252 . S
O358 Zn340 1.975 . S
O358 C357 1.252 . S
H359 C352 0.930 . S
H360 C353 0.930 . S
C361 C362 1.392 . S
C361 N365 1.328 . S
C361 H367 0.930 . S
C362 C361 1.392 . S
C362 N366 1.331 . S
C363 C364 1.391 . S
C363 N366 1.329 . S
C363 H373 0.930 . S
C364 C363 1.391 . S
C364 N365 1.334 . S
C364 H371 0.930 . S
N365 Zn349 2.119 . S
N365 C361 1.328 . S
N365 C364 1.334 . S
N366 C362 1.331 . S
N366 C363 1.329 . S
H367 C361 0.930 . S
C368 O348 1.257 . S
C368 O369 1.244 . S
O369 C368 1.244 . S
O370 C346 1.257 . S
O370 Zn349 2.019 . S
H371 C364 0.930 . S
H372 C351 0.930 . S
H373 C363 0.930 . S
Zn374 N378 2.020 . S
Zn374 O382 2.019 . S
Zn374 N384 2.119 . S
Zn374 O392 1.975 . S
C375 N376 1.334 . S
C375 N379 1.336 . S
N376 C375 1.334 . S
N376 C377 1.334 . S
C377 N376 1.334 . S
C377 N378 1.336 . S
N378 Zn374 2.020 . S
N378 C377 1.336 . S
N378 N379 1.354 . S
N379 C375 1.336 . S
N379 N378 1.354 . S
N379 Zn383 2.020 . S
C380 O381 1.244 . S
C380 O404 1.257 . S
O381 C380 1.244 . S
O382 Zn374 2.019 . S
O382 C402 1.257 . S
Zn383 N379 2.020 . S
Zn383 O390 1.975 . S
Zn383 N399 2.119 . S
Zn383 O404 2.019 . S
N384 Zn374 2.119 . S
N384 C386 1.334 . S
N384 C387 1.328 . S
C385 C386 1.391 . S
C385 N388 1.329 . S
C385 H406 0.930 . S
C386 N384 1.334 . S
C386 C385 1.391 . S
C386 H393 0.930 . S
C387 N384 1.328 . S
C387 C389 1.392 . S
C387 H394 0.930 . S
N388 C385 1.329 . S
N388 C389 1.331 . S
C389 C387 1.392 . S
C389 N388 1.331 . S
O390 Zn383 1.975 . S
O390 C391 1.252 . S
C391 O390 1.252 . S
C391 O392 1.252 . S
O392 Zn374 1.975 . S
O392 C391 1.252 . S
H393 C386 0.930 . S
H394 C387 0.930 . S
C395 C396 1.392 . S
C395 N399 1.328 . S
C395 H401 0.930 . S
C396 C395 1.392 . S
C396 N400 1.331 . S
C397 C398 1.391 . S
C397 N400 1.329 . S
C397 H407 0.930 . S
C398 C397 1.391 . S
C398 N399 1.334 . S
C398 H405 0.930 . S
N399 Zn383 2.119 . S
N399 C395 1.328 . S
N399 C398 1.334 . S
N400 C396 1.331 . S
N400 C397 1.329 . S
H401 C395 0.930 . S
C402 O382 1.257 . S
C402 O403 1.244 . S
O403 C402 1.244 . S
O404 C380 1.257 . S
O404 Zn383 2.019 . S
H405 C398 0.930 . S
H406 C385 0.930 . S
H407 C397 0.930 . S
Zn408 N412 2.020 . S
Zn408 O416 2.019 . S
Zn408 N418 2.119 . S
Zn408 O426 1.975 . S
C409 N410 1.334 . S
C409 N413 1.336 . S
N410 C409 1.334 . S
N410 C411 1.334 . S
C411 N410 1.334 . S
C411 N412 1.336 . S
N412 Zn408 2.020 . S
N412 C411 1.336 . S
N412 N413 1.354 . S
N413 C409 1.336 . S
N413 N412 1.354 . S
N413 Zn417 2.020 . S
C414 O415 1.244 . S
C414 O438 1.257 . S
O415 C414 1.244 . S
O416 Zn408 2.019 . S
O416 C436 1.257 . S
Zn417 N413 2.020 . S
Zn417 O424 1.975 . S
Zn417 N433 2.119 . S
Zn417 O438 2.019 . S
N418 Zn408 2.119 . S
N418 C420 1.334 . S
N418 C421 1.328 . S
C419 C420 1.391 . S
C419 N422 1.329 . S
C419 H440 0.930 . S
C420 N418 1.334 . S
C420 C419 1.391 . S
C420 H427 0.930 . S
C421 N418 1.328 . S
C421 C423 1.392 . S
C421 H428 0.930 . S
N422 C419 1.329 . S
N422 C423 1.331 . S
C423 C421 1.392 . S
C423 N422 1.331 . S
O424 Zn417 1.975 . S
O424 C425 1.252 . S
C425 O424 1.252 . S
C425 O426 1.252 . S
O426 Zn408 1.975 . S
O426 C425 1.252 . S
H427 C420 0.930 . S
H428 C421 0.930 . S
C429 C430 1.392 . S
C429 N433 1.328 . S
C429 H435 0.930 . S
C430 C429 1.392 . S
C430 N434 1.331 . S
C431 C432 1.391 . S
C431 N434 1.329 . S
C431 H441 0.930 . S
C432 C431 1.391 . S
C432 N433 1.334 . S
C432 H439 0.930 . S
N433 Zn417 2.119 . S
N433 C429 1.328 . S
N433 C432 1.334 . S
N434 C430 1.331 . S
N434 C431 1.329 . S
H435 C429 0.930 . S
C436 O416 1.257 . S
C436 O437 1.244 . S
O437 C436 1.244 . S
O438 C414 1.257 . S
O438 Zn417 2.019 . S
H439 C432 0.930 . S
H440 C419 0.930 . S
H441 C431 0.930 . S
Zn442 N446 2.020 . S
Zn442 O450 2.019 . S
Zn442 N452 2.119 . S
Zn442 O460 1.975 . S
C443 N444 1.334 . S
C443 N447 1.336 . S
N444 C443 1.334 . S
N444 C445 1.334 . S
C445 N444 1.334 . S
C445 N446 1.336 . S
N446 Zn442 2.020 . S
N446 C445 1.336 . S
N446 N447 1.354 . S
N447 C443 1.336 . S
N447 N446 1.354 . S
N447 Zn451 2.020 . S
C448 O449 1.244 . S
C448 O472 1.257 . S
O449 C448 1.244 . S
O450 Zn442 2.019 . S
O450 C470 1.257 . S
Zn451 N447 2.020 . S
Zn451 O458 1.975 . S
Zn451 N467 2.119 . S
Zn451 O472 2.019 . S
N452 Zn442 2.119 . S
N452 C454 1.334 . S
N452 C455 1.328 . S
C453 C454 1.391 . S
C453 N456 1.329 . S
C453 H474 0.930 . S
C454 N452 1.334 . S
C454 C453 1.391 . S
C454 H461 0.930 . S
C455 N452 1.328 . S
C455 C457 1.392 . S
C455 H462 0.930 . S
N456 C453 1.329 . S
N456 C457 1.331 . S
C457 C455 1.392 . S
C457 N456 1.331 . S
O458 Zn451 1.975 . S
O458 C459 1.252 . S
C459 O458 1.252 . S
C459 O460 1.252 . S
O460 Zn442 1.975 . S
O460 C459 1.252 . S
H461 C454 0.930 . S
H462 C455 0.930 . S
C463 C464 1.392 . S
C463 N467 1.328 . S
C463 H469 0.930 . S
C464 C463 1.392 . S
C464 N468 1.331 . S
C465 C466 1.391 . S
C465 N468 1.329 . S
C465 H475 0.930 . S
C466 C465 1.391 . S
C466 N467 1.334 . S
C466 H473 0.930 . S
N467 Zn451 2.119 . S
N467 C463 1.328 . S
N467 C466 1.334 . S
N468 C464 1.331 . S
N468 C465 1.329 . S
H469 C463 0.930 . S
C470 O450 1.257 . S
C470 O471 1.244 . S
O471 C470 1.244 . S
O472 C448 1.257 . S
O472 Zn451 2.019 . S
H473 C466 0.930 . S
H474 C453 0.930 . S
H475 C465 0.930 . S
Zn476 N480 2.020 . S
Zn476 O484 2.019 . S
Zn476 N486 2.119 . S
Zn476 O494 1.975 . S
C477 N478 1.334 . S
C477 N481 1.336 . S
N478 C477 1.334 . S
N478 C479 1.334 . S
C479 N478 1.334 . S
C479 N480 1.336 . S
N480 Zn476 2.020 . S
N480 C479 1.336 . S
N480 N481 1.354 . S
N481 C477 1.336 . S
N481 N480 1.354 . S
N481 Zn485 2.020 . S
C482 O483 1.244 . S
C482 O506 1.257 . S
O483 C482 1.244 . S
O484 Zn476 2.019 . S
O484 C504 1.257 . S
Zn485 N481 2.020 . S
Zn485 O492 1.975 . S
Zn485 N501 2.119 . S
Zn485 O506 2.019 . S
N486 Zn476 2.119 . S
N486 C488 1.334 . S
N486 C489 1.328 . S
C487 C488 1.391 . S
C487 N490 1.329 . S
C487 H508 0.930 . S
C488 N486 1.334 . S
C488 C487 1.391 . S
C488 H495 0.930 . S
C489 N486 1.328 . S
C489 C491 1.392 . S
C489 H496 0.930 . S
N490 C487 1.329 . S
N490 C491 1.331 . S
C491 C489 1.392 . S
C491 N490 1.331 . S
O492 Zn485 1.975 . S
O492 C493 1.252 . S
C493 O492 1.252 . S
C493 O494 1.252 . S
O494 Zn476 1.975 . S
O494 C493 1.252 . S
H495 C488 0.930 . S
H496 C489 0.930 . S
C497 C498 1.392 . S
C497 N501 1.328 . S
C497 H503 0.930 . S
C498 C497 1.392 . S
C498 N502 1.331 . S
C499 C500 1.391 . S
C499 N502 1.329 . S
C499 H509 0.930 . S
C500 C499 1.391 . S
C500 N501 1.334 . S
C500 H507 0.930 . S
N501 Zn485 2.119 . S
N501 C497 1.328 . S
N501 C500 1.334 . S
N502 C498 1.331 . S
N502 C499 1.329 . S
H503 C497 0.930 . S
C504 O484 1.257 . S
C504 O505 1.244 . S
O505 C504 1.244 . S
O506 C482 1.257 . S
O506 Zn485 2.019 . S
H507 C500 0.930 . S
H508 C487 0.930 . S
H509 C499 0.930 . S
Zn510 N514 2.020 . S
Zn510 O518 2.019 . S
Zn510 N520 2.119 . S
Zn510 O528 1.975 . S
C511 N512 1.334 . S
C511 N515 1.336 . S
N512 C511 1.334 . S
N512 C513 1.334 . S
C513 N512 1.334 . S
C513 N514 1.336 . S
N514 Zn510 2.020 . S
N514 C513 1.336 . S
N514 N515 1.354 . S
N515 C511 1.336 . S
N515 N514 1.354 . S
N515 Zn519 2.020 . S
C516 O517 1.244 . S
C516 O540 1.257 . S
O517 C516 1.244 . S
O518 Zn510 2.019 . S
O518 C538 1.257 . S
Zn519 N515 2.020 . S
Zn519 O526 1.975 . S
Zn519 N535 2.119 . S
Zn519 O540 2.019 . S
N520 Zn510 2.119 . S
N520 C522 1.334 . S
N520 C523 1.328 . S
C521 C522 1.391 . S
C521 N524 1.329 . S
C521 H542 0.930 . S
C522 N520 1.334 . S
C522 C521 1.391 . S
C522 H529 0.930 . S
C523 N520 1.328 . S
C523 C525 1.392 . S
C523 H530 0.930 . S
N524 C521 1.329 . S
N524 C525 1.331 . S
C525 C523 1.392 . S
C525 N524 1.331 . S
O526 Zn519 1.975 . S
O526 C527 1.252 . S
C527 O526 1.252 . S
C527 O528 1.252 . S
O528 Zn510 1.975 . S
O528 C527 1.252 . S
H529 C522 0.930 . S
H530 C523 0.930 . S
C531 C532 1.392 . S
C531 N535 1.328 . S
C531 H537 0.930 . S
C532 C531 1.392 . S
C532 N536 1.331 . S
C533 C534 1.391 . S
C533 N536 1.329 . S
C533 H543 0.930 . S
C534 C533 1.391 . S
C534 N535 1.334 . S
C534 H541 0.930 . S
N535 Zn519 2.119 . S
N535 C531 1.328 . S
N535 C534 1.334 . S
N536 C532 1.331 . S
N536 C533 1.329 . S
H537 C531 0.930 . S
C538 O518 1.257 . S
C538 O539 1.244 . S
O539 C538 1.244 . S
O540 C516 1.257 . S
O540 Zn519 2.019 . S
H541 C534 0.930 . S
H542 C521 0.930 . S
H543 C533 0.930 . S
H544 C552 0.950 . S
H545 C557 0.950 . S
H546 C554 0.950 . S
H547 C556 0.950 . S
H548 C558 0.950 . S
H549 C560 0.950 . S
H550 C562 0.950 . S
H551 C563 0.950 . S
C552 H544 0.950 . S
C552 C553 1.386 . S
C552 C554 1.391 . S
C553 C552 1.386 . S
C553 C557 1.393 . S
C554 H546 0.950 . S
C554 C552 1.391 . S
C554 C555 1.400 . S
C555 C554 1.400 . S
C555 C556 1.398 . S
C555 C561 1.491 1_554 S
C556 H547 0.950 . S
C556 C555 1.398 . S
C556 C557 1.391 . S
C557 H545 0.950 . S
C557 C553 1.393 . S
C557 C556 1.391 . S
C558 H548 0.950 . S
C558 C559 1.386 . S
C558 C560 1.391 . S
C559 C558 1.386 . S
C559 C563 1.393 . S
C560 H549 0.950 . S
C560 C558 1.391 . S
C560 C561 1.400 . S
C561 C555 1.491 1_556 S
C561 C560 1.400 . S
C561 C562 1.398 . S
C562 H550 0.950 . S
C562 C561 1.398 . S
C562 C563 1.391 . S
C563 H551 0.950 . S
C563 C559 1.393 . S
C563 C562 1.391 . S
H564 C572 0.950 . S
H565 C577 0.950 . S
H566 C574 0.950 . S
H567 C576 0.950 . S
H568 C578 0.950 . S
H569 C580 0.950 . S
H570 C582 0.950 . S
H571 C583 0.950 . S
C572 H564 0.950 . S
C572 C573 1.386 . S
C572 C574 1.391 . S
C573 C572 1.386 . S
C573 C577 1.393 . S
C574 H566 0.950 . S
C574 C572 1.391 . S
C574 C575 1.400 . S
C575 C574 1.400 . S
C575 C576 1.398 . S
C575 C581 1.491 1_554 S
C576 H567 0.950 . S
C576 C575 1.398 . S
C576 C577 1.391 . S
C577 H565 0.950 . S
C577 C573 1.393 . S
C577 C576 1.391 . S
C578 H568 0.950 . S
C578 C579 1.386 . S
C578 C580 1.391 . S
C579 C578 1.386 . S
C579 C583 1.393 . S
C580 H569 0.950 . S
C580 C578 1.391 . S
C580 C581 1.400 . S
C581 C575 1.491 1_556 S
C581 C580 1.400 . S
C581 C582 1.398 . S
C582 H570 0.950 . S
C582 C581 1.398 . S
C582 C583 1.391 . S
C583 H571 0.950 . S
C583 C579 1.393 . S
C583 C582 1.391 . S
H584 C592 0.950 . S
H585 C597 0.950 . S
H586 C594 0.950 . S
H587 C596 0.950 . S
H588 C598 0.950 . S
H589 C600 0.950 . S
H590 C602 0.950 . S
H591 C603 0.950 . S
C592 H584 0.950 . S
C592 C593 1.386 . S
C592 C594 1.391 . S
C593 C592 1.386 . S
C593 C597 1.393 . S
C594 H586 0.950 . S
C594 C592 1.391 . S
C594 C595 1.400 . S
C595 C594 1.400 . S
C595 C596 1.398 . S
C595 C601 1.491 1_556 S
C596 H587 0.950 . S
C596 C595 1.398 . S
C596 C597 1.391 . S
C597 H585 0.950 . S
C597 C593 1.393 . S
C597 C596 1.391 . S
C598 H588 0.950 . S
C598 C599 1.386 . S
C598 C600 1.391 . S
C599 C598 1.386 . S
C599 C603 1.393 . S
C600 H589 0.950 . S
C600 C598 1.391 . S
C600 C601 1.400 . S
C601 C595 1.491 1_554 S
C601 C600 1.400 . S
C601 C602 1.398 . S
C602 H590 0.950 . S
C602 C601 1.398 . S
C602 C603 1.391 . S
C603 H591 0.950 . S
C603 C599 1.393 . S
C603 C602 1.391 . S
H604 C612 0.950 . S
H605 C617 0.950 . S
H606 C614 0.950 . S
H607 C616 0.950 . S
H608 C618 0.950 . S
H609 C620 0.950 . S
H610 C622 0.950 . S
H611 C623 0.950 . S
C612 H604 0.950 . S
C612 C613 1.386 . S
C612 C614 1.391 . S
C613 C612 1.386 . S
C613 C617 1.393 . S
C614 H606 0.950 . S
C614 C612 1.391 . S
C614 C615 1.400 . S
C615 C614 1.400 . S
C615 C616 1.398 . S
C615 C621 1.491 1_556 S
C616 H607 0.950 . S
C616 C615 1.398 . S
C616 C617 1.391 . S
C617 H605 0.950 . S
C617 C613 1.393 . S
C617 C616 1.391 . S
C618 H608 0.950 . S
C618 C619 1.386 . S
C618 C620 1.391 . S
C619 C618 1.386 . S
C619 C623 1.393 . S
C620 H609 0.950 . S
C620 C618 1.391 . S
C620 C621 1.400 . S
C621 C615 1.491 1_554 S
C621 C620 1.400 . S
C621 C622 1.398 . S
C622 H610 0.950 . S
C622 C621 1.398 . S
C622 C623 1.391 . S
C623 H611 0.950 . S
C623 C619 1.393 . S
C623 C622 1.391 . S
H624 C632 0.950 . S
H625 C637 0.950 . S
H626 C634 0.950 . S
H627 C636 0.950 . S
H628 C638 0.950 . S
H629 C640 0.950 . S
H630 C642 0.950 . S
H631 C643 0.950 . S
C632 H624 0.950 . S
C632 C633 1.386 . S
C632 C634 1.391 . S
C633 C632 1.386 . S
C633 C637 1.393 . S
C634 H626 0.950 . S
C634 C632 1.391 . S
C634 C635 1.400 . S
C635 C634 1.400 . S
C635 C636 1.398 . S
C635 C641 1.491 . S
C636 H627 0.950 . S
C636 C635 1.398 . S
C636 C637 1.391 . S
C637 H625 0.950 . S
C637 C633 1.393 . S
C637 C636 1.391 . S
C638 H628 0.950 . S
C638 C639 1.386 . S
C638 C640 1.391 . S
C639 C638 1.386 . S
C639 C643 1.393 . S
C640 H629 0.950 . S
C640 C638 1.391 . S
C640 C641 1.400 . S
C641 C635 1.491 . S
C641 C640 1.400 . S
C641 C642 1.398 . S
C642 H630 0.950 . S
C642 C641 1.398 . S
C642 C643 1.391 . S
C643 H631 0.950 . S
C643 C639 1.393 . S
C643 C642 1.391 . S
H644 C652 0.950 . S
H645 C657 0.950 . S
H646 C654 0.950 . S
H647 C656 0.950 . S
H648 C658 0.950 . S
H649 C660 0.950 . S
H650 C662 0.950 . S
H651 C663 0.950 . S
C652 H644 0.950 . S
C652 C653 1.386 . S
C652 C654 1.391 . S
C653 C652 1.386 . S
C653 C657 1.393 . S
C654 H646 0.950 . S
C654 C652 1.391 . S
C654 C655 1.400 . S
C655 C654 1.400 . S
C655 C656 1.398 . S
C655 C661 1.491 . S
C656 H647 0.950 . S
C656 C655 1.398 . S
C656 C657 1.391 . S
C657 H645 0.950 . S
C657 C653 1.393 . S
C657 C656 1.391 . S
C658 H648 0.950 . S
C658 C659 1.386 . S
C658 C660 1.391 . S
C659 C658 1.386 . S
C659 C663 1.393 . S
C660 H649 0.950 . S
C660 C658 1.391 . S
C660 C661 1.400 . S
C661 C655 1.491 . S
C661 C660 1.400 . S
C661 C662 1.398 . S
C662 H650 0.950 . S
C662 C661 1.398 . S
C662 C663 1.391 . S
C663 H651 0.950 . S
C663 C659 1.393 . S
C663 C662 1.391 . S
H664 C672 0.950 . S
H665 C677 0.950 . S
H666 C674 0.950 . S
H667 C676 0.950 . S
H668 C678 0.950 . S
H669 C680 0.950 . S
H670 C682 0.950 . S
H671 C683 0.950 . S
C672 H664 0.950 . S
C672 C673 1.386 . S
C672 C674 1.391 . S
C673 C672 1.386 . S
C673 C677 1.393 . S
C674 H666 0.950 . S
C674 C672 1.391 . S
C674 C675 1.400 . S
C675 C674 1.400 . S
C675 C676 1.398 . S
C675 C681 1.491 . S
C676 H667 0.950 . S
C676 C675 1.398 . S
C676 C677 1.391 . S
C677 H665 0.950 . S
C677 C673 1.393 . S
C677 C676 1.391 . S
C678 H668 0.950 . S
C678 C679 1.386 . S
C678 C680 1.391 . S
C679 C678 1.386 . S
C679 C683 1.393 . S
C680 H669 0.950 . S
C680 C678 1.391 . S
C680 C681 1.400 . S
C681 C675 1.491 . S
C681 C680 1.400 . S
C681 C682 1.398 . S
C682 H670 0.950 . S
C682 C681 1.398 . S
C682 C683 1.391 . S
C683 H671 0.950 . S
C683 C679 1.393 . S
C683 C682 1.391 . S
H684 C692 0.950 . S
H685 C697 0.950 . S
H686 C694 0.950 . S
H687 C696 0.950 . S
H688 C698 0.950 . S
H689 C700 0.950 . S
H690 C702 0.950 . S
H691 C703 0.950 . S
C692 H684 0.950 . S
C692 C693 1.386 . S
C692 C694 1.391 . S
C693 C692 1.386 . S
C693 C697 1.393 . S
C694 H686 0.950 . S
C694 C692 1.391 . S
C694 C695 1.400 . S
C695 C694 1.400 . S
C695 C696 1.398 . S
C695 C701 1.491 . S
C696 H687 0.950 . S
C696 C695 1.398 . S
C696 C697 1.391 . S
C697 H685 0.950 . S
C697 C693 1.393 . S
C697 C696 1.391 . S
C698 H688 0.950 . S
C698 C699 1.386 . S
C698 C700 1.391 . S
C699 C698 1.386 . S
C699 C703 1.393 . S
C700 H689 0.950 . S
C700 C698 1.391 . S
C700 C701 1.400 . S
C701 C695 1.491 . S
C701 C700 1.400 . S
C701 C702 1.398 . S
C702 H690 0.950 . S
C702 C701 1.398 . S
C702 C703 1.391 . S
C703 H691 0.950 . S
C703 C699 1.393 . S
C703 C702 1.391 . S
H704 C712 0.950 . S
H705 C717 0.950 . S
H706 C714 0.950 . S
H707 C716 0.950 . S
H708 C718 0.950 . S
H709 C720 0.950 . S
H710 C722 0.950 . S
H711 C723 0.950 . S
C712 H704 0.950 . S
C712 C713 1.386 . S
C712 C714 1.391 . S
C713 C712 1.386 . S
C713 C717 1.393 . S
C714 H706 0.950 . S
C714 C712 1.391 . S
C714 C715 1.400 1_565 S
C715 C714 1.400 1_545 S
C715 C716 1.398 . S
C715 C721 1.491 . S
C716 H707 0.950 . S
C716 C715 1.398 . S
C716 C717 1.391 1_545 S
C717 H705 0.950 . S
C717 C713 1.393 . S
C717 C716 1.391 1_565 S
C718 H708 0.950 . S
C718 C719 1.386 . S
C718 C720 1.391 . S
C719 C718 1.386 . S
C719 C723 1.393 . S
C720 H709 0.950 . S
C720 C718 1.391 . S
C720 C721 1.400 . S
C721 C715 1.491 . S
C721 C720 1.400 . S
C721 C722 1.398 . S
C722 H710 0.950 . S
C722 C721 1.398 . S
C722 C723 1.391 . S
C723 H711 0.950 . S
C723 C719 1.393 . S
C723 C722 1.391 . S
H724 C732 0.950 . S
H725 C737 0.950 . S
H726 C734 0.950 . S
H727 C736 0.950 . S
H728 C738 0.950 . S
H729 C740 0.950 . S
H730 C742 0.950 . S
H731 C743 0.950 . S
C732 H724 0.950 . S
C732 C733 1.386 . S
C732 C734 1.391 1_455 S
C733 C732 1.386 . S
C733 C737 1.393 . S
C734 H726 0.950 . S
C734 C732 1.391 1_655 S
C734 C735 1.400 . S
C735 C734 1.400 . S
C735 C736 1.398 1_655 S
C735 C741 1.491 . S
C736 H727 0.950 . S
C736 C735 1.398 1_455 S
C736 C737 1.391 . S
C737 H725 0.950 . S
C737 C733 1.393 . S
C737 C736 1.391 . S
C738 H728 0.950 . S
C738 C739 1.386 . S
C738 C740 1.391 . S
C739 C738 1.386 . S
C739 C743 1.393 . S
C740 H729 0.950 . S
C740 C738 1.391 . S
C740 C741 1.400 . S
C741 C735 1.491 . S
C741 C740 1.400 . S
C741 C742 1.398 . S
C742 H730 0.950 . S
C742 C741 1.398 . S
C742 C743 1.391 . S
C743 H731 0.950 . S
C743 C739 1.393 . S
C743 C742 1.391 . S
H744 C752 0.950 . S
H745 C757 0.950 . S
H746 C754 0.950 . S
H747 C756 0.950 . S
H748 C758 0.950 . S
H749 C760 0.950 . S
H750 C762 0.950 . S
H751 C763 0.950 . S
C752 H744 0.950 . S
C752 C753 1.386 . S
C752 C754 1.391 . S
C753 C752 1.386 . S
C753 C757 1.393 . S
C754 H746 0.950 . S
C754 C752 1.391 . S
C754 C755 1.400 . S
C755 C754 1.400 . S
C755 C756 1.398 . S
C755 C761 1.491 . S
C756 H747 0.950 . S
C756 C755 1.398 . S
C756 C757 1.391 . S
C757 H745 0.950 . S
C757 C753 1.393 . S
C757 C756 1.391 . S
C758 H748 0.950 . S
C758 C759 1.386 . S
C758 C760 1.391 1_545 S
C759 C758 1.386 . S
C759 C763 1.393 . S
C760 H749 0.950 . S
C760 C758 1.391 1_565 S
C760 C761 1.400 . S
C761 C755 1.491 . S
C761 C760 1.400 . S
C761 C762 1.398 1_565 S
C762 H750 0.950 . S
C762 C761 1.398 1_545 S
C762 C763 1.391 . S
C763 H751 0.950 . S
C763 C759 1.393 . S
C763 C762 1.391 . S
H764 C772 0.950 . S
H765 C777 0.950 . S
H766 C774 0.950 . S
H767 C776 0.950 . S
H768 C778 0.950 . S
H769 C780 0.950 . S
H770 C782 0.950 . S
H771 C783 0.950 . S
C772 H764 0.950 . S
C772 C773 1.386 . S
C772 C774 1.391 . S
C773 C772 1.386 . S
C773 C777 1.393 . S
C774 H766 0.950 . S
C774 C772 1.391 . S
C774 C775 1.400 . S
C775 C774 1.400 . S
C775 C776 1.398 . S
C775 C781 1.491 . S
C776 H767 0.950 . S
C776 C775 1.398 . S
C776 C777 1.391 . S
C777 H765 0.950 . S
C777 C773 1.393 . S
C777 C776 1.391 . S
C778 H768 0.950 . S
C778 C779 1.386 . S
C778 C780 1.391 1_655 S
C779 C778 1.386 . S
C779 C783 1.393 . S
C780 H769 0.950 . S
C780 C778 1.391 1_455 S
C780 C781 1.400 . S
C781 C775 1.491 . S
C781 C780 1.400 . S
C781 C782 1.398 1_455 S
C782 H770 0.950 . S
C782 C781 1.398 1_655 S
C782 C783 1.391 . S
C783 H771 0.950 . S
C783 C779 1.393 . S
C783 C782 1.391 . S
H784 C792 0.950 . S
H785 C797 0.950 . S
H786 C794 0.950 . S
H787 C796 0.950 . S
H788 C798 0.950 . S
H789 C800 0.950 . S
H790 C802 0.950 . S
H791 C803 0.950 . S
C792 H784 0.950 . S
C792 C793 1.386 . S
C792 C794 1.391 1_545 S
C793 C792 1.386 . S
C793 C797 1.393 . S
C794 H786 0.950 . S
C794 C792 1.391 1_565 S
C794 C795 1.400 . S
C795 C794 1.400 . S
C795 C796 1.398 1_565 S
C795 C801 1.491 . S
C796 H787 0.950 . S
C796 C795 1.398 1_545 S
C796 C797 1.391 . S
C797 H785 0.950 . S
C797 C793 1.393 . S
C797 C796 1.391 . S
C798 H788 0.950 . S
C798 C799 1.386 . S
C798 C800 1.391 . S
C799 C798 1.386 . S
C799 C803 1.393 . S
C800 H789 0.950 . S
C800 C798 1.391 . S
C800 C801 1.400 . S
C801 C795 1.491 . S
C801 C800 1.400 . S
C801 C802 1.398 . S
C802 H790 0.950 . S
C802 C801 1.398 . S
C802 C803 1.391 . S
C803 H791 0.950 . S
C803 C799 1.393 . S
C803 C802 1.391 . S
H804 C812 0.950 . S
H805 C817 0.950 . S
H806 C814 0.950 . S
H807 C816 0.950 . S
H808 C818 0.950 . S
H809 C820 0.950 . S
H810 C822 0.950 1_455 S
H811 C823 0.950 . S
C812 H804 0.950 . S
C812 C813 1.386 . S
C812 C814 1.391 . S
C813 C812 1.386 . S
C813 C817 1.393 . S
C814 H806 0.950 . S
C814 C812 1.391 . S
C814 C815 1.400 . S
C815 C814 1.400 . S
C815 C816 1.398 . S
C815 C821 1.491 . S
C816 H807 0.950 . S
C816 C815 1.398 . S
C816 C817 1.391 . S
C817 H805 0.950 . S
C817 C813 1.393 . S
C817 C816 1.391 . S
C818 H808 0.950 . S
C818 C819 1.386 . S
C818 C820 1.391 1_655 S
C819 C818 1.386 . S
C819 C823 1.393 . S
C820 H809 0.950 . S
C820 C818 1.391 1_455 S
C820 C821 1.400 . S
C821 C815 1.491 . S
C821 C820 1.400 . S
C821 C822 1.398 1_455 S
C822 H810 0.950 1_655 S
C822 C821 1.398 1_655 S
C822 C823 1.391 . S
C823 H811 0.950 . S
C823 C819 1.393 . S
C823 C822 1.391 . S
H824 C832 0.950 . S
H825 C837 0.950 . S
H826 C834 0.950 . S
H827 C836 0.950 . S
H828 C838 0.950 . S
H829 C840 0.950 . S
H830 C842 0.950 . S
H831 C843 0.950 . S
C832 H824 0.950 . S
C832 C833 1.386 . S
C832 C834 1.391 1_565 S
C833 C832 1.386 . S
C833 C837 1.393 . S
C834 H826 0.950 . S
C834 C832 1.391 1_545 S
C834 C835 1.400 . S
C835 C834 1.400 . S
C835 C836 1.398 1_545 S
C835 C841 1.491 . S
C836 H827 0.950 . S
C836 C835 1.398 1_565 S
C836 C837 1.391 . S
C837 H825 0.950 . S
C837 C833 1.393 . S
C837 C836 1.391 . S
C838 H828 0.950 . S
C838 C839 1.386 . S
C838 C840 1.391 . S
C839 C838 1.386 . S
C839 C843 1.393 . S
C840 H829 0.950 . S
C840 C838 1.391 . S
C840 C841 1.400 . S
C841 C835 1.491 . S
C841 C840 1.400 . S
C841 C842 1.398 . S
C842 H830 0.950 . S
C842 C841 1.398 . S
C842 C843 1.391 . S
C843 H831 0.950 . S
C843 C839 1.393 . S
C843 C842 1.391 . S
H844 C852 0.950 . S
H845 C857 0.950 . S
H846 C854 0.950 . S
H847 C856 0.950 . S
H848 C858 0.950 . S
H849 C860 0.950 . S
H850 C862 0.950 . S
H851 C863 0.950 . S
C852 H844 0.950 . S
C852 C853 1.386 . S
C852 C854 1.391 1_455 S
C853 C852 1.386 . S
C853 C857 1.393 . S
C854 H846 0.950 . S
C854 C852 1.391 1_655 S
C854 C855 1.400 . S
C855 C854 1.400 . S
C855 C856 1.398 1_655 S
C855 C861 1.491 . S
C856 H847 0.950 . S
C856 C855 1.398 1_455 S
C856 C857 1.391 . S
C857 H845 0.950 . S
C857 C853 1.393 . S
C857 C856 1.391 . S
C858 H848 0.950 . S
C858 C859 1.386 . S
C858 C860 1.391 . S
C859 C858 1.386 . S
C859 C863 1.393 . S
C860 H849 0.950 . S
C860 C858 1.391 . S
C860 C861 1.400 . S
C861 C855 1.491 . S
C861 C860 1.400 . S
C861 C862 1.398 . S
C862 H850 0.950 . S
C862 C861 1.398 . S
C862 C863 1.391 . S
C863 H851 0.950 . S
C863 C859 1.393 . S
C863 C862 1.391 . S
H864 C872 0.950 . S
H865 C877 0.950 . S
H866 C874 0.950 . S
H867 C876 0.950 . S
H868 C878 0.950 1_545 S
H869 C880 0.950 . S
H870 C882 0.950 . S
H871 C883 0.950 . S
C872 H864 0.950 . S
C872 C873 1.386 . S
C872 C874 1.391 . S
C873 C872 1.386 . S
C873 C877 1.393 . S
C874 H866 0.950 . S
C874 C872 1.391 . S
C874 C875 1.400 . S
C875 C874 1.400 . S
C875 C876 1.398 . S
C875 C881 1.491 . S
C876 H867 0.950 . S
C876 C875 1.398 . S
C876 C877 1.391 . S
C877 H865 0.950 . S
C877 C873 1.393 . S
C877 C876 1.391 . S
C878 H868 0.950 1_565 S
C878 C879 1.386 1_565 S
C878 C880 1.391 . S
C879 C878 1.386 1_545 S
C879 C883 1.393 1_545 S
C880 H869 0.950 . S
C880 C878 1.391 . S
C880 C881 1.400 . S
C881 C875 1.491 . S
C881 C880 1.400 . S
C881 C882 1.398 . S
C882 H870 0.950 . S
C882 C881 1.398 . S
C882 C883 1.391 . S
C883 H871 0.950 . S
C883 C879 1.393 1_565 S
C883 C882 1.391 . S
H884 C892 0.950 1_655 S
H885 C897 0.950 . S
H886 C894 0.950 . S
H887 C896 0.950 . S
H888 C898 0.950 . S
H889 C900 0.950 . S
H890 C902 0.950 . S
H891 C903 0.950 . S
C892 H884 0.950 1_455 S
C892 C893 1.386 1_455 S
C892 C894 1.391 . S
C893 C892 1.386 1_655 S
C893 C897 1.393 1_655 S
C894 H886 0.950 . S
C894 C892 1.391 . S
C894 C895 1.400 . S
C895 C894 1.400 . S
C895 C896 1.398 . S
C895 C901 1.491 . S
C896 H887 0.950 . S
C896 C895 1.398 . S
C896 C897 1.391 . S
C897 H885 0.950 . S
C897 C893 1.393 1_455 S
C897 C896 1.391 . S
C898 H888 0.950 . S
C898 C899 1.386 . S
C898 C900 1.391 . S
C899 C898 1.386 . S
C899 C903 1.393 . S
C900 H889 0.950 . S
C900 C898 1.391 . S
C900 C901 1.400 . S
C901 C895 1.491 . S
C901 C900 1.400 . S
C901 C902 1.398 . S
C902 H890 0.950 . S
C902 C901 1.398 . S
C902 C903 1.391 . S
C903 H891 0.950 . S
C903 C899 1.393 . S
C903 C902 1.391 . S
H904 C912 0.950 . S
H905 C917 0.950 . S
H906 C914 0.950 . S
H907 C916 0.950 . S
H908 C918 0.950 . S
H909 C920 0.950 . S
H910 C922 0.950 . S
H911 C923 0.950 1_565 S
C912 H904 0.950 . S
C912 C913 1.386 . S
C912 C914 1.391 . S
C913 C912 1.386 . S
C913 C917 1.393 . S
C914 H906 0.950 . S
C914 C912 1.391 . S
C914 C915 1.400 . S
C915 C914 1.400 . S
C915 C916 1.398 . S
C915 C921 1.491 . S
C916 H907 0.950 . S
C916 C915 1.398 . S
C916 C917 1.391 . S
C917 H905 0.950 . S
C917 C913 1.393 . S
C917 C916 1.391 . S
C918 H908 0.950 . S
C918 C919 1.386 1_545 S
C918 C920 1.391 . S
C919 C918 1.386 1_565 S
C919 C923 1.393 1_565 S
C920 H909 0.950 . S
C920 C918 1.391 . S
C920 C921 1.400 . S
C921 C915 1.491 . S
C921 C920 1.400 . S
C921 C922 1.398 . S
C922 H910 0.950 . S
C922 C921 1.398 . S
C922 C923 1.391 . S
C923 H911 0.950 1_545 S
C923 C919 1.393 1_545 S
C923 C922 1.391 . S
H924 C932 0.950 1_455 S
H925 C937 0.950 . S
H926 C934 0.950 . S
H927 C936 0.950 . S
H928 C938 0.950 . S
H929 C940 0.950 . S
H930 C942 0.950 . S
H931 C943 0.950 . S
C932 H924 0.950 1_655 S
C932 C933 1.386 1_655 S
C932 C934 1.391 . S
C933 C932 1.386 1_455 S
C933 C937 1.393 1_455 S
C934 H926 0.950 . S
C934 C932 1.391 . S
C934 C935 1.400 . S
C935 C934 1.400 . S
C935 C936 1.398 . S
C935 C941 1.491 . S
C936 H927 0.950 . S
C936 C935 1.398 . S
C936 C937 1.391 . S
C937 H925 0.950 . S
C937 C933 1.393 1_655 S
C937 C936 1.391 . S
C938 H928 0.950 . S
C938 C939 1.386 . S
C938 C940 1.391 . S
C939 C938 1.386 . S
C939 C943 1.393 . S
C940 H929 0.950 . S
C940 C938 1.391 . S
C940 C941 1.400 . S
C941 C935 1.491 . S
C941 C940 1.400 . S
C941 C942 1.398 . S
C942 H930 0.950 . S
C942 C941 1.398 . S
C942 C943 1.391 . S
C943 H931 0.950 . S
C943 C939 1.393 . S
C943 C942 1.391 . S
H944 C952 0.950 . S
H945 C957 0.950 . S
H946 C954 0.950 . S
H947 C956 0.950 . S
H948 C958 0.950 . S
H949 C960 0.950 . S
H950 C962 0.950 . S
H951 C963 0.950 1_565 S
C952 H944 0.950 . S
C952 C953 1.386 . S
C952 C954 1.391 . S
C953 C952 1.386 . S
C953 C957 1.393 . S
C954 H946 0.950 . S
C954 C952 1.391 . S
C954 C955 1.400 . S
C955 C954 1.400 . S
C955 C956 1.398 . S
C955 C961 1.491 . S
C956 H947 0.950 . S
C956 C955 1.398 . S
C956 C957 1.391 . S
C957 H945 0.950 . S
C957 C953 1.393 . S
C957 C956 1.391 . S
C958 H948 0.950 . S
C958 C959 1.386 1_545 S
C958 C960 1.391 . S
C959 C958 1.386 1_565 S
C959 C963 1.393 1_565 S
C960 H949 0.950 . S
C960 C958 1.391 . S
C960 C961 1.400 . S
C961 C955 1.491 . S
C961 C960 1.400 . S
C961 C962 1.398 . S
C962 H950 0.950 . S
C962 C961 1.398 . S
C962 C963 1.391 . S
C963 H951 0.950 1_545 S
C963 C959 1.393 1_545 S
C963 C962 1.391 . S
H964 C972 0.950 . S
H965 C977 0.950 1_455 S
H966 C974 0.950 . S
H967 C976 0.950 . S
H968 C978 0.950 . S
H969 C980 0.950 . S
H970 C982 0.950 . S
H971 C983 0.950 . S
C972 H964 0.950 . S
C972 C973 1.386 1_655 S
C972 C974 1.391 . S
C973 C972 1.386 1_455 S
C973 C977 1.393 1_455 S
C974 H966 0.950 . S
C974 C972 1.391 . S
C974 C975 1.400 . S
C975 C974 1.400 . S
C975 C976 1.398 . S
C975 C981 1.491 . S
C976 H967 0.950 . S
C976 C975 1.398 . S
C976 C977 1.391 . S
C977 H965 0.950 1_655 S
C977 C973 1.393 1_655 S
C977 C976 1.391 . S
C978 H968 0.950 . S
C978 C979 1.386 . S
C978 C980 1.391 . S
C979 C978 1.386 . S
C979 C983 1.393 . S
C980 H969 0.950 . S
C980 C978 1.391 . S
C980 C981 1.400 . S
C981 C975 1.491 . S
C981 C980 1.400 . S
C981 C982 1.398 . S
C982 H970 0.950 . S
C982 C981 1.398 . S
C982 C983 1.391 . S
C983 H971 0.950 . S
C983 C979 1.393 . S
C983 C982 1.391 . S
H984 C992 0.950 1_545 S
H985 C997 0.950 . S
H986 C994 0.950 . S
H987 C996 0.950 . S
H988 C998 0.950 . S
H989 C1000 0.950 . S
H990 C1002 0.950 . S
H991 C1003 0.950 . S
C992 H984 0.950 1_565 S
C992 C993 1.386 1_565 S
C992 C994 1.391 . S
C993 C992 1.386 1_545 S
C993 C997 1.393 1_545 S
C994 H986 0.950 . S
C994 C992 1.391 . S
C994 C995 1.400 . S
C995 C994 1.400 . S
C995 C996 1.398 . S
C995 C1001 1.491 . S
C996 H987 0.950 . S
C996 C995 1.398 . S
C996 C997 1.391 . S
C997 H985 0.950 . S
C997 C993 1.393 1_565 S
C997 C996 1.391 . S
C998 H988 0.950 . S
C998 C999 1.386 . S
C998 C1000 1.391 . S
C999 C998 1.386 . S
C999 C1003 1.393 . S
C1000 H989 0.950 . S
C1000 C998 1.391 . S
C1000 C1001 1.400 . S
C1001 C995 1.491 . S
C1001 C1000 1.400 . S
C1001 C1002 1.398 . S
C1002 H990 0.950 . S
C1002 C1001 1.398 . S
C1002 C1003 1.391 . S
C1003 H991 0.950 . S
C1003 C999 1.393 . S
C1003 C1002 1.391 . S
H1004 C1012 0.950 1_655 S
H1005 C1017 0.950 . S
H1006 C1014 0.950 . S
H1007 C1016 0.950 . S
H1008 C1018 0.950 . S
H1009 C1020 0.950 . S
H1010 C1022 0.950 . S
H1011 C1023 0.950 . S
C1012 H1004 0.950 1_455 S
C1012 C1013 1.386 1_455 S
C1012 C1014 1.391 . S
C1013 C1012 1.386 1_655 S
C1013 C1017 1.393 1_655 S
C1014 H1006 0.950 . S
C1014 C1012 1.391 . S
C1014 C1015 1.400 . S
C1015 C1014 1.400 . S
C1015 C1016 1.398 . S
C1015 C1021 1.491 . S
C1016 H1007 0.950 . S
C1016 C1015 1.398 . S
C1016 C1017 1.391 . S
C1017 H1005 0.950 . S
C1017 C1013 1.393 1_455 S
C1017 C1016 1.391 . S
C1018 H1008 0.950 . S
C1018 C1019 1.386 . S
C1018 C1020 1.391 . S
C1019 C1018 1.386 . S
C1019 C1023 1.393 . S
C1020 H1009 0.950 . S
C1020 C1018 1.391 . S
C1020 C1021 1.400 . S
C1021 C1015 1.491 . S
C1021 C1020 1.400 . S
C1021 C1022 1.398 . S
C1022 H1010 0.950 . S
C1022 C1021 1.398 . S
C1022 C1023 1.391 . S
C1023 H1011 0.950 . S
C1023 C1019 1.393 . S
C1023 C1022 1.391 . S
H1024 C1032 0.950 . S
H1025 C1037 0.950 . S
H1026 C1034 0.950 . S
H1027 C1036 0.950 . S
H1028 C1038 0.950 . S
H1029 C1040 0.950 . S
H1030 C1042 0.950 . S
H1031 C1043 0.950 . S
C1032 H1024 0.950 . S
C1032 C1033 1.386 . S
C1032 C1034 1.391 . S
C1033 C1032 1.386 . S
C1033 C1037 1.393 . S
C1034 H1026 0.950 . S
C1034 C1032 1.391 . S
C1034 C1035 1.400 . S
C1035 C1034 1.400 . S
C1035 C1036 1.398 . S
C1035 C1041 1.491 . S
C1036 H1027 0.950 . S
C1036 C1035 1.398 . S
C1036 C1037 1.391 . S
C1037 H1025 0.950 . S
C1037 C1033 1.393 . S
C1037 C1036 1.391 . S
C1038 H1028 0.950 . S
C1038 C1039 1.386 . S
C1038 C1040 1.391 . S
C1039 C1038 1.386 . S
C1039 C1043 1.393 . S
C1040 H1029 0.950 . S
C1040 C1038 1.391 . S
C1040 C1041 1.400 . S
C1041 C1035 1.491 . S
C1041 C1040 1.400 . S
C1041 C1042 1.398 . S
C1042 H1030 0.950 . S
C1042 C1041 1.398 . S
C1042 C1043 1.391 . S
C1043 H1031 0.950 . S
C1043 C1039 1.393 . S
C1043 C1042 1.391 . S
H1044 C1052 0.950 . S
H1045 C1057 0.950 . S
H1046 C1054 0.950 . S
H1047 C1056 0.950 . S
H1048 C1058 0.950 . S
H1049 C1060 0.950 . S
H1050 C1062 0.950 . S
H1051 C1063 0.950 . S
C1052 H1044 0.950 . S
C1052 C1053 1.386 . S
C1052 C1054 1.391 . S
C1053 C1052 1.386 . S
C1053 C1057 1.393 . S
C1054 H1046 0.950 . S
C1054 C1052 1.391 . S
C1054 C1055 1.400 . S
C1055 C1054 1.400 . S
C1055 C1056 1.398 . S
C1055 C1061 1.491 . S
C1056 H1047 0.950 . S
C1056 C1055 1.398 . S
C1056 C1057 1.391 . S
C1057 H1045 0.950 . S
C1057 C1053 1.393 . S
C1057 C1056 1.391 . S
C1058 H1048 0.950 . S
C1058 C1059 1.386 . S
C1058 C1060 1.391 . S
C1059 C1058 1.386 . S
C1059 C1063 1.393 . S
C1060 H1049 0.950 . S
C1060 C1058 1.391 . S
C1060 C1061 1.400 . S
C1061 C1055 1.491 . S
C1061 C1060 1.400 . S
C1061 C1062 1.398 . S
C1062 H1050 0.950 . S
C1062 C1061 1.398 . S
C1062 C1063 1.391 . S
C1063 H1051 0.950 . S
C1063 C1059 1.393 . S
C1063 C1062 1.391 . S
H1064 C1072 0.950 . S
H1065 C1077 0.950 . S
H1066 C1074 0.950 . S
H1067 C1076 0.950 . S
H1068 C1078 0.950 . S
H1069 C1080 0.950 . S
H1070 C1082 0.950 . S
H1071 C1083 0.950 . S
C1072 H1064 0.950 . S
C1072 C1073 1.386 . S
C1072 C1074 1.391 . S
C1073 C1072 1.386 . S
C1073 C1077 1.393 . S
C1074 H1066 0.950 . S
C1074 C1072 1.391 . S
C1074 C1075 1.400 . S
C1075 C1074 1.400 . S
C1075 C1076 1.398 . S
C1075 C1081 1.491 . S
C1076 H1067 0.950 . S
C1076 C1075 1.398 . S
C1076 C1077 1.391 . S
C1077 H1065 0.950 . S
C1077 C1073 1.393 . S
C1077 C1076 1.391 . S
C1078 H1068 0.950 . S
C1078 C1079 1.386 . S
C1078 C1080 1.391 . S
C1079 C1078 1.386 . S
C1079 C1083 1.393 . S
C1080 H1069 0.950 . S
C1080 C1078 1.391 . S
C1080 C1081 1.400 . S
C1081 C1075 1.491 . S
C1081 C1080 1.400 . S
C1081 C1082 1.398 . S
C1082 H1070 0.950 . S
C1082 C1081 1.398 . S
C1082 C1083 1.391 . S
C1083 H1071 0.950 . S
C1083 C1079 1.393 . S
C1083 C1082 1.391 . S
H1084 C1092 0.950 . S
H1085 C1097 0.950 . S
H1086 C1094 0.950 . S
H1087 C1096 0.950 . S
H1088 C1098 0.950 . S
H1089 C1100 0.950 . S
H1090 C1102 0.950 . S
H1091 C1103 0.950 . S
C1092 H1084 0.950 . S
C1092 C1093 1.386 . S
C1092 C1094 1.391 . S
C1093 C1092 1.386 . S
C1093 C1097 1.393 . S
C1094 H1086 0.950 . S
C1094 C1092 1.391 . S
C1094 C1095 1.400 . S
C1095 C1094 1.400 . S
C1095 C1096 1.398 . S
C1095 C1101 1.491 . S
C1096 H1087 0.950 . S
C1096 C1095 1.398 . S
C1096 C1097 1.391 . S
C1097 H1085 0.950 . S
C1097 C1093 1.393 . S
C1097 C1096 1.391 . S
C1098 H1088 0.950 . S
C1098 C1099 1.386 . S
C1098 C1100 1.391 . S
C1099 C1098 1.386 . S
C1099 C1103 1.393 . S
C1100 H1089 0.950 . S
C1100 C1098 1.391 . S
C1100 C1101 1.400 . S
C1101 C1095 1.491 . S
C1101 C1100 1.400 . S
C1101 C1102 1.398 . S
C1102 H1090 0.950 . S
C1102 C1101 1.398 . S
C1102 C1103 1.391 . S
C1103 H1091 0.950 . S
C1103 C1099 1.393 . S
C1103 C1102 1.391 . S
H1104 C1112 0.950 . S
H1105 C1117 0.950 . S
H1106 C1114 0.950 . S
H1107 C1116 0.950 . S
H1108 C1118 0.950 . S
H1109 C1120 0.950 . S
H1110 C1122 0.950 . S
H1111 C1123 0.950 . S
C1112 H1104 0.950 . S
C1112 C1113 1.386 . S
C1112 C1114 1.391 . S
C1113 C1112 1.386 . S
C1113 C1117 1.393 . S
C1114 H1106 0.950 . S
C1114 C1112 1.391 . S
C1114 C1115 1.400 . S
C1115 C1114 1.400 . S
C1115 C1116 1.398 . S
C1115 C1121 1.491 . S
C1116 H1107 0.950 . S
C1116 C1115 1.398 . S
C1116 C1117 1.391 . S
C1117 H1105 0.950 . S
C1117 C1113 1.393 . S
C1117 C1116 1.391 . S
C1118 H1108 0.950 . S
C1118 C1119 1.386 . S
C1118 C1120 1.391 . S
C1119 C1118 1.386 . S
C1119 C1123 1.393 . S
C1120 H1109 0.950 . S
C1120 C1118 1.391 . S
C1120 C1121 1.400 . S
C1121 C1115 1.491 . S
C1121 C1120 1.400 . S
C1121 C1122 1.398 . S
C1122 H1110 0.950 . S
C1122 C1121 1.398 . S
C1122 C1123 1.391 . S
C1123 H1111 0.950 . S
C1123 C1119 1.393 . S
C1123 C1122 1.391 . S
H1124 C1132 0.950 . S
H1125 C1137 0.950 . S
H1126 C1134 0.950 . S
H1127 C1136 0.950 . S
H1128 C1138 0.950 . S
H1129 C1140 0.950 . S
H1130 C1142 0.950 . S
H1131 C1143 0.950 . S
C1132 H1124 0.950 . S
C1132 C1133 1.386 . S
C1132 C1134 1.391 . S
C1133 C1132 1.386 . S
C1133 C1137 1.393 . S
C1134 H1126 0.950 . S
C1134 C1132 1.391 . S
C1134 C1135 1.400 . S
C1135 C1134 1.400 . S
C1135 C1136 1.398 . S
C1135 C1141 1.491 . S
C1136 H1127 0.950 . S
C1136 C1135 1.398 . S
C1136 C1137 1.391 . S
C1137 H1125 0.950 . S
C1137 C1133 1.393 . S
C1137 C1136 1.391 . S
C1138 H1128 0.950 . S
C1138 C1139 1.386 . S
C1138 C1140 1.391 . S
C1139 C1138 1.386 . S
C1139 C1143 1.393 . S
C1140 H1129 0.950 . S
C1140 C1138 1.391 . S
C1140 C1141 1.400 . S
C1141 C1135 1.491 . S
C1141 C1140 1.400 . S
C1141 C1142 1.398 . S
C1142 H1130 0.950 . S
C1142 C1141 1.398 . S
C1142 C1143 1.391 . S
C1143 H1131 0.950 . S
C1143 C1139 1.393 . S
C1143 C1142 1.391 . S
H1144 C1152 0.950 . S
H1145 C1157 0.950 . S
H1146 C1154 0.950 . S
H1147 C1156 0.950 . S
H1148 C1158 0.950 . S
H1149 C1160 0.950 . S
H1150 C1162 0.950 . S
H1151 C1163 0.950 . S
C1152 H1144 0.950 . S
C1152 C1153 1.386 . S
C1152 C1154 1.391 . S
C1153 C1152 1.386 . S
C1153 C1157 1.393 . S
C1154 H1146 0.950 . S
C1154 C1152 1.391 . S
C1154 C1155 1.400 . S
C1155 C1154 1.400 . S
C1155 C1156 1.398 . S
C1155 C1161 1.491 . S
C1156 H1147 0.950 . S
C1156 C1155 1.398 . S
C1156 C1157 1.391 . S
C1157 H1145 0.950 . S
C1157 C1153 1.393 . S
C1157 C1156 1.391 . S
C1158 H1148 0.950 . S
C1158 C1159 1.386 . S
C1158 C1160 1.391 . S
C1159 C1158 1.386 . S
C1159 C1163 1.393 . S
C1160 H1149 0.950 . S
C1160 C1158 1.391 . S
C1160 C1161 1.400 . S
C1161 C1155 1.491 . S
C1161 C1160 1.400 . S
C1161 C1162 1.398 . S
C1162 H1150 0.950 . S
C1162 C1161 1.398 . S
C1162 C1163 1.391 . S
C1163 H1151 0.950 . S
C1163 C1159 1.393 . S
C1163 C1162 1.391 . S
H1164 C1172 0.950 . S
H1165 C1177 0.950 . S
H1166 C1174 0.950 . S
H1167 C1176 0.950 . S
H1168 C1178 0.950 . S
H1169 C1180 0.950 . S
H1170 C1182 0.950 . S
H1171 C1183 0.950 . S
C1172 H1164 0.950 . S
C1172 C1173 1.386 . S
C1172 C1174 1.391 . S
C1173 C1172 1.386 . S
C1173 C1177 1.393 . S
C1174 H1166 0.950 . S
C1174 C1172 1.391 . S
C1174 C1175 1.400 . S
C1175 C1174 1.400 . S
C1175 C1176 1.398 . S
C1175 C1181 1.491 . S
C1176 H1167 0.950 . S
C1176 C1175 1.398 . S
C1176 C1177 1.391 . S
C1177 H1165 0.950 . S
C1177 C1173 1.393 . S
C1177 C1176 1.391 . S
C1178 H1168 0.950 . S
C1178 C1179 1.386 . S
C1178 C1180 1.391 . S
C1179 C1178 1.386 . S
C1179 C1183 1.393 . S
C1180 H1169 0.950 . S
C1180 C1178 1.391 . S
C1180 C1181 1.400 . S
C1181 C1175 1.491 . S
C1181 C1180 1.400 . S
C1181 C1182 1.398 . S
C1182 H1170 0.950 . S
C1182 C1181 1.398 . S
C1182 C1183 1.391 . S
C1183 H1171 0.950 . S
C1183 C1179 1.393 . S
C1183 C1182 1.391 . S
H1184 C1192 0.950 . S
H1185 C1197 0.950 . S
H1186 C1194 0.950 . S
H1187 C1196 0.950 . S
H1188 C1198 0.950 . S
H1189 C1200 0.950 . S
H1190 C1202 0.950 . S
H1191 C1203 0.950 . S
C1192 H1184 0.950 . S
C1192 C1193 1.386 . S
C1192 C1194 1.391 . S
C1193 C1192 1.386 . S
C1193 C1197 1.393 . S
C1194 H1186 0.950 . S
C1194 C1192 1.391 . S
C1194 C1195 1.400 . S
C1195 C1194 1.400 . S
C1195 C1196 1.398 . S
C1195 C1201 1.491 . S
C1196 H1187 0.950 . S
C1196 C1195 1.398 . S
C1196 C1197 1.391 . S
C1197 H1185 0.950 . S
C1197 C1193 1.393 . S
C1197 C1196 1.391 . S
C1198 H1188 0.950 . S
C1198 C1199 1.386 . S
C1198 C1200 1.391 . S
C1199 C1198 1.386 . S
C1199 C1203 1.393 . S
C1200 H1189 0.950 . S
C1200 C1198 1.391 . S
C1200 C1201 1.400 . S
C1201 C1195 1.491 . S
C1201 C1200 1.400 . S
C1201 C1202 1.398 . S
C1202 H1190 0.950 . S
C1202 C1201 1.398 . S
C1202 C1203 1.391 . S
C1203 H1191 0.950 . S
C1203 C1199 1.393 . S
C1203 C1202 1.391 . S
H1204 C1212 0.950 . S
H1205 C1217 0.950 . S
H1206 C1214 0.950 . S
H1207 C1216 0.950 . S
H1208 C1218 0.950 . S
H1209 C1220 0.950 . S
H1210 C1222 0.950 . S
H1211 C1223 0.950 . S
C1212 H1204 0.950 . S
C1212 C1213 1.386 . S
C1212 C1214 1.391 . S
C1213 C1212 1.386 . S
C1213 C1217 1.393 . S
C1214 H1206 0.950 . S
C1214 C1212 1.391 . S
C1214 C1215 1.400 . S
C1215 C1214 1.400 . S
C1215 C1216 1.398 . S
C1215 C1221 1.491 . S
C1216 H1207 0.950 . S
C1216 C1215 1.398 . S
C1216 C1217 1.391 . S
C1217 H1205 0.950 . S
C1217 C1213 1.393 . S
C1217 C1216 1.391 . S
C1218 H1208 0.950 . S
C1218 C1219 1.386 . S
C1218 C1220 1.391 . S
C1219 C1218 1.386 . S
C1219 C1223 1.393 . S
C1220 H1209 0.950 . S
C1220 C1218 1.391 . S
C1220 C1221 1.400 . S
C1221 C1215 1.491 . S
C1221 C1220 1.400 . S
C1221 C1222 1.398 . S
C1222 H1210 0.950 . S
C1222 C1221 1.398 . S
C1222 C1223 1.391 . S
C1223 H1211 0.950 . S
C1223 C1219 1.393 . S
C1223 C1222 1.391 . S
H1224 C1232 0.950 . S
H1225 C1237 0.950 . S
H1226 C1234 0.950 . S
H1227 C1236 0.950 . S
H1228 C1238 0.950 . S
H1229 C1240 0.950 . S
H1230 C1242 0.950 . S
H1231 C1243 0.950 . S
C1232 H1224 0.950 . S
C1232 C1233 1.386 . S
C1232 C1234 1.391 . S
C1233 C1232 1.386 . S
C1233 C1237 1.393 . S
C1234 H1226 0.950 . S
C1234 C1232 1.391 . S
C1234 C1235 1.400 . S
C1235 C1234 1.400 . S
C1235 C1236 1.398 . S
C1235 C1241 1.491 . S
C1236 H1227 0.950 . S
C1236 C1235 1.398 . S
C1236 C1237 1.391 . S
C1237 H1225 0.950 . S
C1237 C1233 1.393 . S
C1237 C1236 1.391 . S
C1238 H1228 0.950 . S
C1238 C1239 1.386 . S
C1238 C1240 1.391 . S
C1239 C1238 1.386 . S
C1239 C1243 1.393 . S
C1240 H1229 0.950 . S
C1240 C1238 1.391 . S
C1240 C1241 1.400 . S
C1241 C1235 1.491 . S
C1241 C1240 1.400 . S
C1241 C1242 1.398 . S
C1242 H1230 0.950 . S
C1242 C1241 1.398 . S
C1242 C1243 1.391 . S
C1243 H1231 0.950 . S
C1243 C1239 1.393 . S
C1243 C1242 1.391 . S
H1244 C1252 0.950 . S
H1245 C1257 0.950 . S
H1246 C1254 0.950 . S
H1247 C1256 0.950 . S
H1248 C1258 0.950 . S
H1249 C1260 0.950 . S
H1250 C1262 0.950 . S
H1251 C1263 0.950 . S
C1252 H1244 0.950 . S
C1252 C1253 1.386 . S
C1252 C1254 1.391 . S
C1253 C1252 1.386 . S
C1253 C1257 1.393 . S
C1254 H1246 0.950 . S
C1254 C1252 1.391 . S
C1254 C1255 1.400 . S
C1255 C1254 1.400 . S
C1255 C1256 1.398 . S
C1255 C1261 1.491 . S
C1256 H1247 0.950 . S
C1256 C1255 1.398 . S
C1256 C1257 1.391 . S
C1257 H1245 0.950 . S
C1257 C1253 1.393 . S
C1257 C1256 1.391 . S
C1258 H1248 0.950 . S
C1258 C1259 1.386 . S
C1258 C1260 1.391 . S
C1259 C1258 1.386 . S
C1259 C1263 1.393 . S
C1260 H1249 0.950 . S
C1260 C1258 1.391 . S
C1260 C1261 1.400 . S
C1261 C1255 1.491 . S
C1261 C1260 1.400 . S
C1261 C1262 1.398 . S
C1262 H1250 0.950 . S
C1262 C1261 1.398 . S
C1262 C1263 1.391 . S
C1263 H1251 0.950 . S
C1263 C1259 1.393 . S
C1263 C1262 1.391 . S
H1264 C1272 0.950 . S
H1265 C1277 0.950 . S
H1266 C1274 0.950 . S
H1267 C1276 0.950 . S
H1268 C1278 0.950 . S
H1269 C1280 0.950 . S
H1270 C1282 0.950 . S
H1271 C1283 0.950 . S
C1272 H1264 0.950 . S
C1272 C1273 1.386 . S
C1272 C1274 1.391 . S
C1273 C1272 1.386 . S
C1273 C1277 1.393 . S
C1274 H1266 0.950 . S
C1274 C1272 1.391 . S
C1274 C1275 1.400 . S
C1275 C1274 1.400 . S
C1275 C1276 1.398 . S
C1275 C1281 1.491 . S
C1276 H1267 0.950 . S
C1276 C1275 1.398 . S
C1276 C1277 1.391 . S
C1277 H1265 0.950 . S
C1277 C1273 1.393 . S
C1277 C1276 1.391 . S
C1278 H1268 0.950 . S
C1278 C1279 1.386 . S
C1278 C1280 1.391 . S
C1279 C1278 1.386 . S
C1279 C1283 1.393 . S
C1280 H1269 0.950 . S
C1280 C1278 1.391 . S
C1280 C1281 1.400 . S
C1281 C1275 1.491 . S
C1281 C1280 1.400 . S
C1281 C1282 1.398 . S
C1282 H1270 0.950 . S
C1282 C1281 1.398 . S
C1282 C1283 1.391 . S
C1283 H1271 0.950 . S
C1283 C1279 1.393 . S
C1283 C1282 1.391 . S
H1284 C1292 0.950 . S
H1285 C1297 0.950 . S
H1286 C1294 0.950 . S
H1287 C1296 0.950 . S
H1288 C1298 0.950 . S
H1289 C1300 0.950 . S
H1290 C1302 0.950 . S
H1291 C1303 0.950 . S
C1292 H1284 0.950 . S
C1292 C1293 1.386 . S
C1292 C1294 1.391 . S
C1293 C1292 1.386 . S
C1293 C1297 1.393 . S
C1294 H1286 0.950 . S
C1294 C1292 1.391 . S
C1294 C1295 1.400 . S
C1295 C1294 1.400 . S
C1295 C1296 1.398 . S
C1295 C1301 1.491 . S
C1296 H1287 0.950 . S
C1296 C1295 1.398 . S
C1296 C1297 1.391 . S
C1297 H1285 0.950 . S
C1297 C1293 1.393 . S
C1297 C1296 1.391 . S
C1298 H1288 0.950 . S
C1298 C1299 1.386 . S
C1298 C1300 1.391 . S
C1299 C1298 1.386 . S
C1299 C1303 1.393 . S
C1300 H1289 0.950 . S
C1300 C1298 1.391 . S
C1300 C1301 1.400 . S
C1301 C1295 1.491 . S
C1301 C1300 1.400 . S
C1301 C1302 1.398 . S
C1302 H1290 0.950 . S
C1302 C1301 1.398 . S
C1302 C1303 1.391 . S
C1303 H1291 0.950 . S
C1303 C1299 1.393 . S
C1303 C1302 1.391 . S
H1304 C1312 0.950 . S
H1305 C1317 0.950 . S
H1306 C1314 0.950 . S
H1307 C1316 0.950 . S
H1308 C1318 0.950 . S
H1309 C1320 0.950 . S
H1310 C1322 0.950 . S
H1311 C1323 0.950 . S
C1312 H1304 0.950 . S
C1312 C1313 1.386 . S
C1312 C1314 1.391 . S
C1313 C1312 1.386 . S
C1313 C1317 1.393 . S
C1314 H1306 0.950 . S
C1314 C1312 1.391 . S
C1314 C1315 1.400 . S
C1315 C1314 1.400 . S
C1315 C1316 1.398 . S
C1315 C1321 1.491 . S
C1316 H1307 0.950 . S
C1316 C1315 1.398 . S
C1316 C1317 1.391 . S
C1317 H1305 0.950 . S
C1317 C1313 1.393 . S
C1317 C1316 1.391 . S
C1318 H1308 0.950 . S
C1318 C1319 1.386 . S
C1318 C1320 1.391 . S
C1319 C1318 1.386 . S
C1319 C1323 1.393 . S
C1320 H1309 0.950 . S
C1320 C1318 1.391 . S
C1320 C1321 1.400 . S
C1321 C1315 1.491 . S
C1321 C1320 1.400 . S
C1321 C1322 1.398 . S
C1322 H1310 0.950 . S
C1322 C1321 1.398 . S
C1322 C1323 1.391 . S
C1323 H1311 0.950 . S
C1323 C1319 1.393 . S
C1323 C1322 1.391 . S
H1324 C1332 0.950 . S
H1325 C1337 0.950 . S
H1326 C1334 0.950 . S
H1327 C1336 0.950 . S
H1328 C1338 0.950 . S
H1329 C1340 0.950 . S
H1330 C1342 0.950 . S
H1331 C1343 0.950 . S
C1332 H1324 0.950 . S
C1332 C1333 1.386 . S
C1332 C1334 1.391 . S
C1333 C1332 1.386 . S
C1333 C1337 1.393 . S
C1334 H1326 0.950 . S
C1334 C1332 1.391 . S
C1334 C1335 1.400 . S
C1335 C1334 1.400 . S
C1335 C1336 1.398 . S
C1335 C1341 1.491 . S
C1336 H1327 0.950 . S
C1336 C1335 1.398 . S
C1336 C1337 1.391 . S
C1337 H1325 0.950 . S
C1337 C1333 1.393 . S
C1337 C1336 1.391 . S
C1338 H1328 0.950 . S
C1338 C1339 1.386 . S
C1338 C1340 1.391 . S
C1339 C1338 1.386 . S
C1339 C1343 1.393 . S
C1340 H1329 0.950 . S
C1340 C1338 1.391 . S
C1340 C1341 1.400 . S
C1341 C1335 1.491 . S
C1341 C1340 1.400 . S
C1341 C1342 1.398 . S
C1342 H1330 0.950 . S
C1342 C1341 1.398 . S
C1342 C1343 1.391 . S
C1343 H1331 0.950 . S
C1343 C1339 1.393 . S
C1343 C1342 1.391 . S
H1344 C1352 0.950 . S
H1345 C1357 0.950 . S
H1346 C1354 0.950 . S
H1347 C1356 0.950 . S
H1348 C1358 0.950 . S
H1349 C1360 0.950 . S
H1350 C1362 0.950 . S
H1351 C1363 0.950 . S
C1352 H1344 0.950 . S
C1352 C1353 1.386 . S
C1352 C1354 1.391 . S
C1353 C1352 1.386 . S
C1353 C1357 1.393 . S
C1354 H1346 0.950 . S
C1354 C1352 1.391 . S
C1354 C1355 1.400 . S
C1355 C1354 1.400 . S
C1355 C1356 1.398 . S
C1355 C1361 1.491 . S
C1356 H1347 0.950 . S
C1356 C1355 1.398 . S
C1356 C1357 1.391 . S
C1357 H1345 0.950 . S
C1357 C1353 1.393 . S
C1357 C1356 1.391 . S
C1358 H1348 0.950 . S
C1358 C1359 1.386 . S
C1358 C1360 1.391 . S
C1359 C1358 1.386 . S
C1359 C1363 1.393 . S
C1360 H1349 0.950 . S
C1360 C1358 1.391 . S
C1360 C1361 1.400 . S
C1361 C1355 1.491 . S
C1361 C1360 1.400 . S
C1361 C1362 1.398 . S
C1362 H1350 0.950 . S
C1362 C1361 1.398 . S
C1362 C1363 1.391 . S
C1363 H1351 0.950 . S
C1363 C1359 1.393 . S
C1363 C1362 1.391 . S
H1364 C1372 0.950 . S
H1365 C1377 0.950 . S
H1366 C1374 0.950 . S
H1367 C1376 0.950 . S
H1368 C1378 0.950 . S
H1369 C1380 0.950 . S
H1370 C1382 0.950 . S
H1371 C1383 0.950 . S
C1372 H1364 0.950 . S
C1372 C1373 1.386 . S
C1372 C1374 1.391 . S
C1373 C1372 1.386 . S
C1373 C1377 1.393 . S
C1374 H1366 0.950 . S
C1374 C1372 1.391 . S
C1374 C1375 1.400 . S
C1375 C1374 1.400 . S
C1375 C1376 1.398 . S
C1375 C1381 1.491 . S
C1376 H1367 0.950 . S
C1376 C1375 1.398 . S
C1376 C1377 1.391 . S
C1377 H1365 0.950 . S
C1377 C1373 1.393 . S
C1377 C1376 1.391 . S
C1378 H1368 0.950 . S
C1378 C1379 1.386 . S
C1378 C1380 1.391 . S
C1379 C1378 1.386 . S
C1379 C1383 1.393 . S
C1380 H1369 0.950 . S
C1380 C1378 1.391 . S
C1380 C1381 1.400 . S
C1381 C1375 1.491 . S
C1381 C1380 1.400 . S
C1381 C1382 1.398 . S
C1382 H1370 0.950 . S
C1382 C1381 1.398 . S
C1382 C1383 1.391 . S
C1383 H1371 0.950 . S
C1383 C1379 1.393 . S
C1383 C1382 1.391 . S
H1384 C1392 0.950 . S
H1385 C1397 0.950 . S
H1386 C1394 0.950 . S
H1387 C1396 0.950 . S
H1388 C1398 0.950 . S
H1389 C1400 0.950 . S
H1390 C1402 0.950 . S
H1391 C1403 0.950 . S
C1392 H1384 0.950 . S
C1392 C1393 1.386 . S
C1392 C1394 1.391 . S
C1393 C1392 1.386 . S
C1393 C1397 1.393 . S
C1394 H1386 0.950 . S
C1394 C1392 1.391 . S
C1394 C1395 1.400 . S
C1395 C1394 1.400 . S
C1395 C1396 1.398 . S
C1395 C1401 1.491 . S
C1396 H1387 0.950 . S
C1396 C1395 1.398 . S
C1396 C1397 1.391 . S
C1397 H1385 0.950 . S
C1397 C1393 1.393 . S
C1397 C1396 1.391 . S
C1398 H1388 0.950 . S
C1398 C1399 1.386 . S
C1398 C1400 1.391 . S
C1399 C1398 1.386 . S
C1399 C1403 1.393 . S
C1400 H1389 0.950 . S
C1400 C1398 1.391 . S
C1400 C1401 1.400 . S
C1401 C1395 1.491 . S
C1401 C1400 1.400 . S
C1401 C1402 1.398 . S
C1402 H1390 0.950 . S
C1402 C1401 1.398 . S
C1402 C1403 1.391 . S
C1403 H1391 0.950 . S
C1403 C1399 1.393 . S
C1403 C1402 1.391 . S
H1404 C1412 0.950 . S
H1405 C1417 0.950 . S
H1406 C1414 0.950 . S
H1407 C1416 0.950 . S
H1408 C1418 0.950 . S
H1409 C1420 0.950 . S
H1410 C1422 0.950 . S
H1411 C1423 0.950 . S
C1412 H1404 0.950 . S
C1412 C1413 1.386 . S
C1412 C1414 1.391 . S
C1413 C1412 1.386 . S
C1413 C1417 1.393 . S
C1414 H1406 0.950 . S
C1414 C1412 1.391 . S
C1414 C1415 1.400 . S
C1415 C1414 1.400 . S
C1415 C1416 1.398 . S
C1415 C1421 1.491 . S
C1416 H1407 0.950 . S
C1416 C1415 1.398 . S
C1416 C1417 1.391 . S
C1417 H1405 0.950 . S
C1417 C1413 1.393 . S
C1417 C1416 1.391 . S
C1418 H1408 0.950 . S
C1418 C1419 1.386 . S
C1418 C1420 1.391 . S
C1419 C1418 1.386 . S
C1419 C1423 1.393 . S
C1420 H1409 0.950 . S
C1420 C1418 1.391 . S
C1420 C1421 1.400 . S
C1421 C1415 1.491 . S
C1421 C1420 1.400 . S
C1421 C1422 1.398 . S
C1422 H1410 0.950 . S
C1422 C1421 1.398 . S
C1422 C1423 1.391 . S
C1423 H1411 0.950 . S
C1423 C1419 1.393 . S
C1423 C1422 1.391 . S
H1424 C1432 0.950 . S
H1425 C1437 0.950 . S
H1426 C1434 0.950 . S
H1427 C1436 0.950 . S
H1428 C1438 0.950 . S
H1429 C1440 0.950 . S
H1430 C1442 0.950 . S
H1431 C1443 0.950 . S
C1432 H1424 0.950 . S
C1432 C1433 1.386 . S
C1432 C1434 1.391 . S
C1433 C1432 1.386 . S
C1433 C1437 1.393 . S
C1434 H1426 0.950 . S
C1434 C1432 1.391 . S
C1434 C1435 1.400 . S
C1435 C1434 1.400 . S
C1435 C1436 1.398 . S
C1435 C1441 1.491 . S
C1436 H1427 0.950 . S
C1436 C1435 1.398 . S
C1436 C1437 1.391 . S
C1437 H1425 0.950 . S
C1437 C1433 1.393 . S
C1437 C1436 1.391 . S
C1438 H1428 0.950 . S
C1438 C1439 1.386 . S
C1438 C1440 1.391 . S
C1439 C1438 1.386 . S
C1439 C1443 1.393 . S
C1440 H1429 0.950 . S
C1440 C1438 1.391 . S
C1440 C1441 1.400 . S
C1441 C1435 1.491 . S
C1441 C1440 1.400 . S
C1441 C1442 1.398 . S
C1442 H1430 0.950 . S
C1442 C1441 1.398 . S
C1442 C1443 1.391 . S
C1443 H1431 0.950 . S
C1443 C1439 1.393 . S
C1443 C1442 1.391 . S
H1444 C1452 0.950 . S
H1445 C1457 0.950 . S
H1446 C1454 0.950 . S
H1447 C1456 0.950 . S
H1448 C1458 0.950 . S
H1449 C1460 0.950 . S
H1450 C1462 0.950 . S
H1451 C1463 0.950 . S
C1452 H1444 0.950 . S
C1452 C1453 1.386 . S
C1452 C1454 1.391 . S
C1453 C1452 1.386 . S
C1453 C1457 1.393 . S
C1454 H1446 0.950 . S
C1454 C1452 1.391 . S
C1454 C1455 1.400 . S
C1455 C1454 1.400 . S
C1455 C1456 1.398 . S
C1455 C1461 1.491 . S
C1456 H1447 0.950 . S
C1456 C1455 1.398 . S
C1456 C1457 1.391 . S
C1457 H1445 0.950 . S
C1457 C1453 1.393 . S
C1457 C1456 1.391 . S
C1458 H1448 0.950 . S
C1458 C1459 1.386 . S
C1458 C1460 1.391 . S
C1459 C1458 1.386 . S
C1459 C1463 1.393 . S
C1460 H1449 0.950 . S
C1460 C1458 1.391 . S
C1460 C1461 1.400 . S
C1461 C1455 1.491 . S
C1461 C1460 1.400 . S
C1461 C1462 1.398 . S
C1462 H1450 0.950 . S
C1462 C1461 1.398 . S
C1462 C1463 1.391 . S
C1463 H1451 0.950 . S
C1463 C1459 1.393 . S
C1463 C1462 1.391 . S
H1464 C1472 0.950 . S
H1465 C1477 0.950 . S
H1466 C1474 0.950 . S
H1467 C1476 0.950 . S
H1468 C1478 0.950 . S
H1469 C1480 0.950 . S
H1470 C1482 0.950 . S
H1471 C1483 0.950 . S
C1472 H1464 0.950 . S
C1472 C1473 1.386 . S
C1472 C1474 1.391 . S
C1473 C1472 1.386 . S
C1473 C1477 1.393 . S
C1474 H1466 0.950 . S
C1474 C1472 1.391 . S
C1474 C1475 1.400 . S
C1475 C1474 1.400 . S
C1475 C1476 1.398 . S
C1475 C1481 1.491 . S
C1476 H1467 0.950 . S
C1476 C1475 1.398 . S
C1476 C1477 1.391 . S
C1477 H1465 0.950 . S
C1477 C1473 1.393 . S
C1477 C1476 1.391 . S
C1478 H1468 0.950 . S
C1478 C1479 1.386 . S
C1478 C1480 1.391 . S
C1479 C1478 1.386 . S
C1479 C1483 1.393 . S
C1480 H1469 0.950 . S
C1480 C1478 1.391 . S
C1480 C1481 1.400 . S
C1481 C1475 1.491 . S
C1481 C1480 1.400 . S
C1481 C1482 1.398 . S
C1482 H1470 0.950 . S
C1482 C1481 1.398 . S
C1482 C1483 1.391 . S
C1483 H1471 0.950 . S
C1483 C1479 1.393 . S
C1483 C1482 1.391 . S
H1484 C1492 0.950 . S
H1485 C1497 0.950 . S
H1486 C1494 0.950 . S
H1487 C1496 0.950 . S
H1488 C1498 0.950 . S
H1489 C1500 0.950 . S
H1490 C1502 0.950 . S
H1491 C1503 0.950 . S
C1492 H1484 0.950 . S
C1492 C1493 1.386 . S
C1492 C1494 1.391 . S
C1493 C1492 1.386 . S
C1493 C1497 1.393 . S
C1494 H1486 0.950 . S
C1494 C1492 1.391 . S
C1494 C1495 1.400 . S
C1495 C1494 1.400 . S
C1495 C1496 1.398 . S
C1495 C1501 1.491 . S
C1496 H1487 0.950 . S
C1496 C1495 1.398 . S
C1496 C1497 1.391 . S
C1497 H1485 0.950 . S
C1497 C1493 1.393 . S
C1497 C1496 1.391 . S
C1498 H1488 0.950 . S
C1498 C1499 1.386 . S
C1498 C1500 1.391 . S
C1499 C1498 1.386 . S
C1499 C1503 1.393 . S
C1500 H1489 0.950 . S
C1500 C1498 1.391 . S
C1500 C1501 1.400 . S
C1501 C1495 1.491 . S
C1501 C1500 1.400 . S
C1501 C1502 1.398 . S
C1502 H1490 0.950 . S
C1502 C1501 1.398 . S
C1502 C1503 1.391 . S
C1503 H1491 0.950 . S
C1503 C1499 1.393 . S
C1503 C1502 1.391 . S
H1504 C1512 0.950 . S
H1505 C1517 0.950 . S
H1506 C1514 0.950 1_655 S
H1507 C1516 0.950 . S
H1508 C1518 0.950 . S
H1509 C1520 0.950 1_455 S
H1510 C1522 0.950 . S
H1511 C1523 0.950 . S
C1512 H1504 0.950 . S
C1512 C1513 1.386 . S
C1512 C1514 1.391 . S
C1513 C1512 1.386 . S
C1513 C1517 1.393 . S
C1514 H1506 0.950 1_455 S
C1514 C1512 1.391 . S
C1514 C1515 1.400 . S
C1515 C1514 1.400 . S
C1515 C1516 1.398 . S
C1515 C1521 1.491 1_455 S
C1516 H1507 0.950 . S
C1516 C1515 1.398 . S
C1516 C1517 1.391 . S
C1517 H1505 0.950 . S
C1517 C1513 1.393 . S
C1517 C1516 1.391 . S
C1518 H1508 0.950 . S
C1518 C1519 1.386 . S
C1518 C1520 1.391 . S
C1519 C1518 1.386 . S
C1519 C1523 1.393 . S
C1520 H1509 0.950 1_655 S
C1520 C1518 1.391 . S
C1520 C1521 1.400 . S
C1521 C1515 1.491 1_655 S
C1521 C1520 1.400 . S
C1521 C1522 1.398 . S
C1522 H1510 0.950 . S
C1522 C1521 1.398 . S
C1522 C1523 1.391 . S
C1523 H1511 0.950 . S
C1523 C1519 1.393 . S
C1523 C1522 1.391 . S
H1524 C1532 0.950 . S
H1525 C1537 0.950 . S
H1526 C1534 0.950 . S
H1527 C1536 0.950 . S
H1528 C1538 0.950 . S
H1529 C1540 0.950 . S
H1530 C1542 0.950 . S
H1531 C1543 0.950 . S
C1532 H1524 0.950 . S
C1532 C1533 1.386 . S
C1532 C1534 1.391 . S
C1533 C1532 1.386 . S
C1533 C1537 1.393 . S
C1534 H1526 0.950 . S
C1534 C1532 1.391 . S
C1534 C1535 1.400 . S
C1535 C1534 1.400 . S
C1535 C1536 1.398 . S
C1535 C1541 1.491 1_565 S
C1536 H1527 0.950 . S
C1536 C1535 1.398 . S
C1536 C1537 1.391 . S
C1537 H1525 0.950 . S
C1537 C1533 1.393 . S
C1537 C1536 1.391 . S
C1538 H1528 0.950 . S
C1538 C1539 1.386 . S
C1538 C1540 1.391 . S
C1539 C1538 1.386 . S
C1539 C1543 1.393 . S
C1540 H1529 0.950 . S
C1540 C1538 1.391 . S
C1540 C1541 1.400 . S
C1541 C1535 1.491 1_545 S
C1541 C1540 1.400 . S
C1541 C1542 1.398 . S
C1542 H1530 0.950 . S
C1542 C1541 1.398 . S
C1542 C1543 1.391 . S
C1543 H1531 0.950 . S
C1543 C1539 1.393 . S
C1543 C1542 1.391 . S
H1544 C1552 0.950 . S
H1545 C1557 0.950 . S
H1546 C1554 0.950 . S
H1547 C1556 0.950 . S
H1548 C1558 0.950 . S
H1549 C1560 0.950 . S
H1550 C1562 0.950 . S
H1551 C1563 0.950 . S
C1552 H1544 0.950 . S
C1552 C1553 1.386 . S
C1552 C1554 1.391 . S
C1553 C1552 1.386 . S
C1553 C1557 1.393 . S
C1554 H1546 0.950 . S
C1554 C1552 1.391 . S
C1554 C1555 1.400 . S
C1555 C1554 1.400 . S
C1555 C1556 1.398 1_455 S
C1555 C1561 1.491 1_455 S
C1556 H1547 0.950 . S
C1556 C1555 1.398 1_655 S
C1556 C1557 1.391 1_655 S
C1557 H1545 0.950 . S
C1557 C1553 1.393 . S
C1557 C1556 1.391 1_455 S
C1558 H1548 0.950 . S
C1558 C1559 1.386 . S
C1558 C1560 1.391 . S
C1559 C1558 1.386 . S
C1559 C1563 1.393 . S
C1560 H1549 0.950 . S
C1560 C1558 1.391 . S
C1560 C1561 1.400 . S
C1561 C1555 1.491 1_655 S
C1561 C1560 1.400 . S
C1561 C1562 1.398 1_655 S
C1562 H1550 0.950 . S
C1562 C1561 1.398 1_455 S
C1562 C1563 1.391 1_455 S
C1563 H1551 0.950 . S
C1563 C1559 1.393 . S
C1563 C1562 1.391 1_655 S
H1564 C1572 0.950 . S
H1565 C1577 0.950 . S
H1566 C1574 0.950 . S
H1567 C1576 0.950 . S
H1568 C1578 0.950 . S
H1569 C1580 0.950 . S
H1570 C1582 0.950 . S
H1571 C1583 0.950 . S
C1572 H1564 0.950 . S
C1572 C1573 1.386 . S
C1572 C1574 1.391 1_565 S
C1573 C1572 1.386 . S
C1573 C1577 1.393 . S
C1574 H1566 0.950 . S
C1574 C1572 1.391 1_545 S
C1574 C1575 1.400 1_545 S
C1575 C1574 1.400 1_565 S
C1575 C1576 1.398 . S
C1575 C1581 1.491 1_565 S
C1576 H1567 0.950 . S
C1576 C1575 1.398 . S
C1576 C1577 1.391 . S
C1577 H1565 0.950 . S
C1577 C1573 1.393 . S
C1577 C1576 1.391 . S
C1578 H1568 0.950 . S
C1578 C1579 1.386 . S
C1578 C1580 1.391 1_545 S
C1579 C1578 1.386 . S
C1579 C1583 1.393 . S
C1580 H1569 0.950 . S
C1580 C1578 1.391 1_565 S
C1580 C1581 1.400 1_565 S
C1581 C1575 1.491 1_545 S
C1581 C1580 1.400 1_545 S
C1581 C1582 1.398 . S
C1582 H1570 0.950 . S
C1582 C1581 1.398 . S
C1582 C1583 1.391 . S
C1583 H1571 0.950 . S
C1583 C1579 1.393 . S
C1583 C1582 1.391 . S
H1584 C1592 0.950 . S
H1585 C1597 0.950 . S
H1586 C1594 0.950 . S
H1587 C1596 0.950 . S
H1588 C1598 0.950 . S
H1589 C1600 0.950 . S
H1590 C1602 0.950 . S
H1591 C1603 0.950 . S
C1592 H1584 0.950 . S
C1592 C1593 1.386 . S
C1592 C1594 1.391 . S
C1593 C1592 1.386 . S
C1593 C1597 1.393 . S
C1594 H1586 0.950 . S
C1594 C1592 1.391 . S
C1594 C1595 1.400 . S
C1595 C1594 1.400 . S
C1595 C1596 1.398 . S
C1595 C1601 1.491 1_455 S
C1596 H1587 0.950 . S
C1596 C1595 1.398 . S
C1596 C1597 1.391 . S
C1597 H1585 0.950 . S
C1597 C1593 1.393 . S
C1597 C1596 1.391 . S
C1598 H1588 0.950 . S
C1598 C1599 1.386 . S
C1598 C1600 1.391 . S
C1599 C1598 1.386 . S
C1599 C1603 1.393 . S
C1600 H1589 0.950 . S
C1600 C1598 1.391 . S
C1600 C1601 1.400 . S
C1601 C1595 1.491 1_655 S
C1601 C1600 1.400 . S
C1601 C1602 1.398 . S
C1602 H1590 0.950 . S
C1602 C1601 1.398 . S
C1602 C1603 1.391 . S
C1603 H1591 0.950 . S
C1603 C1599 1.393 . S
C1603 C1602 1.391 . S
H1604 C1612 0.950 . S
H1605 C1617 0.950 . S
H1606 C1614 0.950 1_565 S
H1607 C1616 0.950 . S
H1608 C1618 0.950 . S
H1609 C1620 0.950 1_545 S
H1610 C1622 0.950 . S
H1611 C1623 0.950 . S
C1612 H1604 0.950 . S
C1612 C1613 1.386 . S
C1612 C1614 1.391 . S
C1613 C1612 1.386 . S
C1613 C1617 1.393 . S
C1614 H1606 0.950 1_545 S
C1614 C1612 1.391 . S
C1614 C1615 1.400 . S
C1615 C1614 1.400 . S
C1615 C1616 1.398 . S
C1615 C1621 1.491 1_545 S
C1616 H1607 0.950 . S
C1616 C1615 1.398 . S
C1616 C1617 1.391 . S
C1617 H1605 0.950 . S
C1617 C1613 1.393 . S
C1617 C1616 1.391 . S
C1618 H1608 0.950 . S
C1618 C1619 1.386 . S
C1618 C1620 1.391 . S
C1619 C1618 1.386 . S
C1619 C1623 1.393 . S
C1620 H1609 0.950 1_565 S
C1620 C1618 1.391 . S
C1620 C1621 1.400 . S
C1621 C1615 1.491 1_565 S
C1621 C1620 1.400 . S
C1621 C1622 1.398 . S
C1622 H1610 0.950 . S
C1622 C1621 1.398 . S
C1622 C1623 1.391 . S
C1623 H1611 0.950 . S
C1623 C1619 1.393 . S
C1623 C1622 1.391 . S
H1624 C1632 0.950 . S
H1625 C1637 0.950 . S
H1626 C1634 0.962 . S
H1627 C1636 0.950 . S
H1628 C1638 0.950 . S
H1629 C1640 0.962 . S
H1630 C1642 0.950 . S
H1631 C1643 0.950 . S
C1632 H1624 0.950 . S
C1632 C1633 1.386 . S
C1632 C1634 1.391 . S
C1633 C1632 1.386 . S
C1633 C1637 1.393 . S
C1634 H1626 0.962 . S
C1634 C1632 1.391 . S
C1634 C1635 1.400 . S
C1635 C1634 1.400 . S
C1635 C1636 1.398 . S
C1635 C1641 1.491 1_455 S
C1636 H1627 0.950 . S
C1636 C1635 1.398 . S
C1636 C1637 1.391 . S
C1637 H1625 0.950 . S
C1637 C1633 1.393 . S
C1637 C1636 1.391 . S
C1638 H1628 0.950 . S
C1638 C1639 1.386 . S
C1638 C1640 1.391 . S
C1639 C1638 1.386 . S
C1639 C1643 1.393 . S
C1640 H1629 0.962 . S
C1640 C1638 1.391 . S
C1640 C1641 1.400 . S
C1641 C1635 1.491 1_655 S
C1641 C1640 1.400 . S
C1641 C1642 1.398 . S
C1642 H1630 0.950 . S
C1642 C1641 1.398 . S
C1642 C1643 1.391 . S
C1643 H1631 0.950 . S
C1643 C1639 1.393 . S
C1643 C1642 1.391 . S
H1644 C1652 0.950 . S
H1645 C1657 0.950 . S
H1646 C1654 0.950 . S
H1647 C1656 0.950 . S
H1648 C1658 0.950 . S
H1649 C1660 0.950 . S
H1650 C1662 0.950 . S
H1651 C1663 0.950 . S
C1652 H1644 0.950 . S
C1652 C1653 1.386 . S
C1652 C1654 1.391 . S
C1653 C1652 1.386 . S
C1653 C1657 1.393 . S
C1654 H1646 0.950 . S
C1654 C1652 1.391 . S
C1654 C1655 1.400 . S
C1655 C1654 1.400 . S
C1655 C1656 1.398 . S
C1655 C1661 1.491 1_565 S
C1656 H1647 0.950 . S
C1656 C1655 1.398 . S
C1656 C1657 1.391 . S
C1657 H1645 0.950 . S
C1657 C1653 1.393 . S
C1657 C1656 1.391 . S
C1658 H1648 0.950 . S
C1658 C1659 1.386 . S
C1658 C1660 1.391 . S
C1659 C1658 1.386 . S
C1659 C1663 1.393 . S
C1660 H1649 0.950 . S
C1660 C1658 1.391 . S
C1660 C1661 1.400 . S
C1661 C1655 1.491 1_545 S
C1661 C1660 1.400 . S
C1661 C1662 1.398 . S
C1662 H1650 0.950 . S
C1662 C1661 1.398 . S
C1662 C1663 1.391 . S
C1663 H1651 0.950 . S
C1663 C1659 1.393 . S
C1663 C1662 1.391 . S
C553 C22 1.777 . S
C559 C362 1.794 . S
C573 C56 1.796 . S
C579 C396 1.779 . S
C593 C287 1.775 . S
C599 C83 1.792 . S
C613 C328 1.771 . S
C619 C117 1.769 . S
C633 C158 1.768 . S
C639 C498 1.779 . S
C653 C525 1.801 . S
C659 C185 1.795 . S
C673 C423 1.796 . S
C679 C226 1.780 . S
C693 C260 1.775 . S
C699 C464 1.792 . S
C713 C103 0.881 . S
C719 C28 0.917 . S
C733 C3 0.872 . S
C739 C62 0.887 . S
C753 C74 0.901 . S
C759 C37 0.902 . S
C773 C108 0.889 . S
C779 C69 0.909 . S
C793 C171 0.860 . S
C799 C164 0.895 . S
C813 C176 0.879 . S
C819 C207 0.901 . S
C833 C241 0.854 . S
C839 C232 0.902 . S
C853 C139 0.887 . S
C859 C266 0.880 . S
C873 C289 1.847 . S
C879 C380 1.849 . S
C893 C300 1.849 . S
C899 C323 1.846 . S
C913 C357 1.841 . S
C919 C312 1.848 . S
C933 C346 1.849 . S
C939 C391 1.845 . S
C953 C425 1.846 . S
C959 C448 1.849 . S
C973 C482 1.848 . S
C979 C459 1.847 . S
C993 C538 1.849 . S
C999 C493 1.845 . S
C1013 C436 1.849 . S
C1019 C527 1.846 . S
C1033 C470 0.889 . S
C1039 C409 0.909 . S
C1053 C504 0.894 . S
C1059 C445 0.907 . S
C1073 C479 0.882 . S
C1079 C516 0.882 . S
C1093 C511 0.884 . S
C1099 C414 0.916 . S
C1113 C402 0.914 . S
C1119 C273 0.849 . S
C1133 C309 0.872 . S
C1139 C278 0.921 . S
C1153 C343 0.858 . S
C1159 C334 0.922 . S
C1173 C377 0.886 . S
C1179 C368 0.915 . S
C1193 C187 1.846 . S
C1199 C142 1.848 . S
C1213 C198 1.848 . S
C1219 C221 1.841 . S
C1233 C255 1.842 . S
C1239 C210 1.848 . S
C1253 C244 1.847 . S
C1259 C153 1.841 . S
C1273 C119 1.846 . S
C1279 C6 1.848 . S
C1293 C40 1.847 . S
C1299 C17 1.843 . S
C1313 C96 1.847 . S
C1319 C51 1.844 . S
C1333 C130 1.849 . S
C1339 C85 1.845 . S
C1353 C192 1.550 . S
C1359 C15 1.573 . S
C1373 C219 1.560 . S
C1379 C49 1.550 . S
C1393 C253 1.570 . S
C1399 C90 1.547 . S
C1413 C151 1.553 . S
C1419 C124 1.573 . S
C1433 C457 1.549 . S
C1439 C294 1.561 . S
C1453 C321 1.547 . S
C1459 C491 1.569 . S
C1473 C355 1.558 . S
C1479 C532 1.572 . S
C1493 C389 1.547 . S
C1499 C430 1.565 . S
C1513 C1 1.905 . S
C1519 C71 1.911 . S
C1533 C105 1.897 . S
C1539 C35 1.898 . S
C1553 C137 1.906 . S
C1559 C205 1.893 . S
C1573 C239 1.899 . S
C1579 C173 1.913 . S
C1593 C341 1.904 . S
C1599 C275 1.893 . S
C1613 C375 1.911 . S
C1619 C307 1.894 . S
C1633 C477 1.913 . S
C1639 C411 1.897 . S
C1653 C443 1.908 . S
C1659 C513 1.909 . S
