# Generated by pormake.
# Topology yfr, (5)-cn, num edge types: 1
# Building blocks:
#     Node 0, Type 0, BuildingBlock: XOMCOT_clean_sbu_1, # of connection points: 5
#     Node 1, Type 0, BuildingBlock: XOMCOT_clean_sbu_1, # of connection points: 5
#     Node 2, Type 0, BuildingBlock: XOMCOT_clean_sbu_1, # of connection points: 5
#     Node 3, Type 0, BuildingBlock: XOMCOT_clean_sbu_1, # of connection points: 5
#     Node 4, Type 0, BuildingBlock: XOMCOT_clean_sbu_1, # of connection points: 5
#     Node 5, Type 0, BuildingBlock: XOMCOT_clean_sbu_1, # of connection points: 5
#     Node 6, Type 0, BuildingBlock: XOMCOT_clean_sbu_1, # of connection points: 5
#     Node 7, Type 0, BuildingBlock: XOMCOT_clean_sbu_1, # of connection points: 5
#     Node 8, Type 0, BuildingBlock: XOMCOT_clean_sbu_1, # of connection points: 5
#     Node 9, Type 0, BuildingBlock: XOMCOT_clean_sbu_1, # of connection points: 5
#     Node 10, Type 0, BuildingBlock: XOMCOT_clean_sbu_1, # of connection points: 5
#     Node 11, Type 0, BuildingBlock: XOMCOT_clean_sbu_1, # of connection points: 5
#     Node 12, Type 0, BuildingBlock: XOMCOT_clean_sbu_1, # of connection points: 5
#     Node 13, Type 0, BuildingBlock: XOMCOT_clean_sbu_1, # of connection points: 5
#     Node 14, Type 0, BuildingBlock: XOMCOT_clean_sbu_1, # of connection points: 5
#     Node 15, Type 0, BuildingBlock: XOMCOT_clean_sbu_1, # of connection points: 5
#     Node 16, Type 0, BuildingBlock: XOMCOT_clean_sbu_1, # of connection points: 5
#     Node 17, Type 0, BuildingBlock: XOMCOT_clean_sbu_1, # of connection points: 5
#     Node 18, Type 0, BuildingBlock: XOMCOT_clean_sbu_1, # of connection points: 5
#     Node 19, Type 0, BuildingBlock: XOMCOT_clean_sbu_1, # of connection points: 5
#     Node 20, Type 0, BuildingBlock: XOMCOT_clean_sbu_1, # of connection points: 5
#     Node 21, Type 0, BuildingBlock: XOMCOT_clean_sbu_1, # of connection points: 5
#     Node 22, Type 0, BuildingBlock: XOMCOT_clean_sbu_1, # of connection points: 5
#     Node 23, Type 0, BuildingBlock: XOMCOT_clean_sbu_1, # of connection points: 5
#     Node 24, Type 0, BuildingBlock: XOMCOT_clean_sbu_1, # of connection points: 5
#     Node 25, Type 0, BuildingBlock: XOMCOT_clean_sbu_1, # of connection points: 5
#     Node 26, Type 0, BuildingBlock: XOMCOT_clean_sbu_1, # of connection points: 5
#     Node 27, Type 0, BuildingBlock: XOMCOT_clean_sbu_1, # of connection points: 5
#     Node 28, Type 0, BuildingBlock: XOMCOT_clean_sbu_1, # of connection points: 5
#     Node 29, Type 0, BuildingBlock: XOMCOT_clean_sbu_1, # of connection points: 5
#     Node 30, Type 0, BuildingBlock: XOMCOT_clean_sbu_1, # of connection points: 5
#     Node 31, Type 0, BuildingBlock: XOMCOT_clean_sbu_1, # of connection points: 5
#     Edge 32, Type (0, 0), BuildingBlock: ZUJKAS_clean_linker_0, # of connection points: 2
#     Edge 33, Type (0, 0), BuildingBlock: ZUJKAS_clean_linker_0, # of connection points: 2
#     Edge 34, Type (0, 0), BuildingBlock: ZUJKAS_clean_linker_0, # of connection points: 2
#     Edge 35, Type (0, 0), BuildingBlock: ZUJKAS_clean_linker_0, # of connection points: 2
#     Edge 36, Type (0, 0), BuildingBlock: ZUJKAS_clean_linker_0, # of connection points: 2
#     Edge 37, Type (0, 0), BuildingBlock: ZUJKAS_clean_linker_0, # of connection points: 2
#     Edge 38, Type (0, 0), BuildingBlock: ZUJKAS_clean_linker_0, # of connection points: 2
#     Edge 39, Type (0, 0), BuildingBlock: ZUJKAS_clean_linker_0, # of connection points: 2
#     Edge 40, Type (0, 0), BuildingBlock: ZUJKAS_clean_linker_0, # of connection points: 2
#     Edge 41, Type (0, 0), BuildingBlock: ZUJKAS_clean_linker_0, # of connection points: 2
#     Edge 42, Type (0, 0), BuildingBlock: ZUJKAS_clean_linker_0, # of connection points: 2
#     Edge 43, Type (0, 0), BuildingBlock: ZUJKAS_clean_linker_0, # of connection points: 2
#     Edge 44, Type (0, 0), BuildingBlock: ZUJKAS_clean_linker_0, # of connection points: 2
#     Edge 45, Type (0, 0), BuildingBlock: ZUJKAS_clean_linker_0, # of connection points: 2
#     Edge 46, Type (0, 0), BuildingBlock: ZUJKAS_clean_linker_0, # of connection points: 2
#     Edge 47, Type (0, 0), BuildingBlock: ZUJKAS_clean_linker_0, # of connection points: 2
#     Edge 48, Type (0, 0), BuildingBlock: ZUJKAS_clean_linker_0, # of connection points: 2
#     Edge 49, Type (0, 0), BuildingBlock: ZUJKAS_clean_linker_0, # of connection points: 2
#     Edge 50, Type (0, 0), BuildingBlock: ZUJKAS_clean_linker_0, # of connection points: 2
#     Edge 51, Type (0, 0), BuildingBlock: ZUJKAS_clean_linker_0, # of connection points: 2
#     Edge 52, Type (0, 0), BuildingBlock: ZUJKAS_clean_linker_0, # of connection points: 2
#     Edge 53, Type (0, 0), BuildingBlock: ZUJKAS_clean_linker_0, # of connection points: 2
#     Edge 54, Type (0, 0), BuildingBlock: ZUJKAS_clean_linker_0, # of connection points: 2
#     Edge 55, Type (0, 0), BuildingBlock: ZUJKAS_clean_linker_0, # of connection points: 2
#     Edge 56, Type (0, 0), BuildingBlock: ZUJKAS_clean_linker_0, # of connection points: 2
#     Edge 57, Type (0, 0), BuildingBlock: ZUJKAS_clean_linker_0, # of connection points: 2
#     Edge 58, Type (0, 0), BuildingBlock: ZUJKAS_clean_linker_0, # of connection points: 2
#     Edge 59, Type (0, 0), BuildingBlock: ZUJKAS_clean_linker_0, # of connection points: 2
#     Edge 60, Type (0, 0), BuildingBlock: ZUJKAS_clean_linker_0, # of connection points: 2
#     Edge 61, Type (0, 0), BuildingBlock: ZUJKAS_clean_linker_0, # of connection points: 2
#     Edge 62, Type (0, 0), BuildingBlock: ZUJKAS_clean_linker_0, # of connection points: 2
#     Edge 63, Type (0, 0), BuildingBlock: ZUJKAS_clean_linker_0, # of connection points: 2
#     Edge 64, Type (0, 0), BuildingBlock: ZUJKAS_clean_linker_0, # of connection points: 2
#     Edge 65, Type (0, 0), BuildingBlock: ZUJKAS_clean_linker_0, # of connection points: 2
#     Edge 66, Type (0, 0), BuildingBlock: ZUJKAS_clean_linker_0, # of connection points: 2
#     Edge 67, Type (0, 0), BuildingBlock: ZUJKAS_clean_linker_0, # of connection points: 2
#     Edge 68, Type (0, 0), BuildingBlock: ZUJKAS_clean_linker_0, # of connection points: 2
#     Edge 69, Type (0, 0), BuildingBlock: ZUJKAS_clean_linker_0, # of connection points: 2
#     Edge 70, Type (0, 0), BuildingBlock: ZUJKAS_clean_linker_0, # of connection points: 2
#     Edge 71, Type (0, 0), BuildingBlock: ZUJKAS_clean_linker_0, # of connection points: 2
#     Edge 72, Type (0, 0), BuildingBlock: ZUJKAS_clean_linker_0, # of connection points: 2
#     Edge 73, Type (0, 0), BuildingBlock: ZUJKAS_clean_linker_0, # of connection points: 2
#     Edge 74, Type (0, 0), BuildingBlock: ZUJKAS_clean_linker_0, # of connection points: 2
#     Edge 75, Type (0, 0), BuildingBlock: ZUJKAS_clean_linker_0, # of connection points: 2
#     Edge 76, Type (0, 0), BuildingBlock: ZUJKAS_clean_linker_0, # of connection points: 2
#     Edge 77, Type (0, 0), BuildingBlock: ZUJKAS_clean_linker_0, # of connection points: 2
#     Edge 78, Type (0, 0), BuildingBlock: ZUJKAS_clean_linker_0, # of connection points: 2
#     Edge 79, Type (0, 0), BuildingBlock: ZUJKAS_clean_linker_0, # of connection points: 2
#     Edge 80, Type (0, 0), BuildingBlock: ZUJKAS_clean_linker_0, # of connection points: 2
#     Edge 81, Type (0, 0), BuildingBlock: ZUJKAS_clean_linker_0, # of connection points: 2
#     Edge 82, Type (0, 0), BuildingBlock: ZUJKAS_clean_linker_0, # of connection points: 2
#     Edge 83, Type (0, 0), BuildingBlock: ZUJKAS_clean_linker_0, # of connection points: 2
#     Edge 84, Type (0, 0), BuildingBlock: ZUJKAS_clean_linker_0, # of connection points: 2
#     Edge 85, Type (0, 0), BuildingBlock: ZUJKAS_clean_linker_0, # of connection points: 2
#     Edge 86, Type (0, 0), BuildingBlock: ZUJKAS_clean_linker_0, # of connection points: 2
#     Edge 87, Type (0, 0), BuildingBlock: ZUJKAS_clean_linker_0, # of connection points: 2
#     Edge 88, Type (0, 0), BuildingBlock: ZUJKAS_clean_linker_0, # of connection points: 2
#     Edge 89, Type (0, 0), BuildingBlock: ZUJKAS_clean_linker_0, # of connection points: 2
#     Edge 90, Type (0, 0), BuildingBlock: ZUJKAS_clean_linker_0, # of connection points: 2
#     Edge 91, Type (0, 0), BuildingBlock: ZUJKAS_clean_linker_0, # of connection points: 2
#     Edge 92, Type (0, 0), BuildingBlock: ZUJKAS_clean_linker_0, # of connection points: 2
#     Edge 93, Type (0, 0), BuildingBlock: ZUJKAS_clean_linker_0, # of connection points: 2
#     Edge 94, Type (0, 0), BuildingBlock: ZUJKAS_clean_linker_0, # of connection points: 2
#     Edge 95, Type (0, 0), BuildingBlock: ZUJKAS_clean_linker_0, # of connection points: 2
#     Edge 96, Type (0, 0), BuildingBlock: ZUJKAS_clean_linker_0, # of connection points: 2
#     Edge 97, Type (0, 0), BuildingBlock: ZUJKAS_clean_linker_0, # of connection points: 2
#     Edge 98, Type (0, 0), BuildingBlock: ZUJKAS_clean_linker_0, # of connection points: 2
#     Edge 99, Type (0, 0), BuildingBlock: ZUJKAS_clean_linker_0, # of connection points: 2
#     Edge 100, Type (0, 0), BuildingBlock: ZUJKAS_clean_linker_0, # of connection points: 2
#     Edge 101, Type (0, 0), BuildingBlock: ZUJKAS_clean_linker_0, # of connection points: 2
#     Edge 102, Type (0, 0), BuildingBlock: ZUJKAS_clean_linker_0, # of connection points: 2
#     Edge 103, Type (0, 0), BuildingBlock: ZUJKAS_clean_linker_0, # of connection points: 2
#     Edge 104, Type (0, 0), BuildingBlock: ZUJKAS_clean_linker_0, # of connection points: 2
#     Edge 105, Type (0, 0), BuildingBlock: ZUJKAS_clean_linker_0, # of connection points: 2
#     Edge 106, Type (0, 0), BuildingBlock: ZUJKAS_clean_linker_0, # of connection points: 2
#     Edge 107, Type (0, 0), BuildingBlock: ZUJKAS_clean_linker_0, # of connection points: 2
#     Edge 108, Type (0, 0), BuildingBlock: ZUJKAS_clean_linker_0, # of connection points: 2
#     Edge 109, Type (0, 0), BuildingBlock: ZUJKAS_clean_linker_0, # of connection points: 2
#     Edge 110, Type (0, 0), BuildingBlock: ZUJKAS_clean_linker_0, # of connection points: 2
#     Edge 111, Type (0, 0), BuildingBlock: ZUJKAS_clean_linker_0, # of connection points: 2
# Relax obj value: 0.546
# Max RMSD: 0.320
# Mean RMSD: 0.320
data_MOF--net-yfr--node1-XOMCOT_clean_sbu_1--edge1-ZUJKAS_clean_linker_0
_symmetry_space_group_name_H-M    P1
_symmetry_Int_Tables_number       1
_symmetry_cell_setting            triclinic
loop_
_symmetry_equiv_pos_as_xyz
'x, y, z'
_cell_length_a     67.810916
_cell_length_b     67.894155
_cell_length_c     73.968974
_cell_angle_alpha  90.011248
_cell_angle_beta   89.999326
_cell_angle_gamma 90.004092
loop_
_atom_site_label
_atom_site_type_symbol
_atom_site_fract_x
_atom_site_fract_y
_atom_site_fract_z
_atom_type_partial_charge
C0 C 0.07306 0.106 0.2996 0.0
C1 C 0.06388 0.09325 0.31137 0.0
N2 N 0.04474 0.09207 0.30668 0.0
N3 N 0.05966 0.11308 0.28779 0.0
C4 C 0.04269 0.10389 0.29216 0.0
H5 H 0.08851 0.10993 0.29969 0.0
Co6 Co 0.06503 0.12925 0.26812 0.0
C7 C 0.02621 0.15014 0.28049 0.0
O8 O 0.02159 0.14016 0.29508 0.0
N9 N 0.07067 0.14512 0.24816 0.0
C10 C 0.07447 0.17138 0.23052 0.0
C11 C 0.07061 0.16502 0.24779 0.0
C12 C 0.07462 0.13974 0.23098 0.0
N13 N 0.07688 0.15543 0.21996 0.0
O14 O 0.05052 0.11123 0.25335 0.0
H15 H 0.06749 0.17436 0.25929 0.0
H16 H 0.07566 0.12463 0.22652 0.0
O17 O 0.04161 0.14567 0.27144 0.0
C18 C 0.06088 0.09633 0.249 0.0
O19 O 0.0799 0.0968 0.25243 0.0
N20 N 0.07988 0.14603 0.28301 0.0
C21 C 0.10236 0.1712 0.30432 0.0
C22 C 0.08269 0.16725 0.3087 0.0
C23 C 0.0718 0.15444 0.29802 0.0
C24 C 0.09933 0.14889 0.279 0.0
C25 C 0.11092 0.16154 0.28953 0.0
H26 H 0.05698 0.15103 0.30211 0.0
H27 H 0.10578 0.14154 0.26745 0.0
H28 H 0.02906 0.10567 0.28473 0.0
H29 H 0.07056 0.08602 0.32289 0.0
H30 H 0.07471 0.18653 0.22597 0.0
H31 H 0.07582 0.17389 0.32044 0.0
H32 H 0.1262 0.16406 0.28594 0.0
C33 C 0.13566 0.84616 0.53954 0.0
C34 C 0.14536 0.83663 0.55335 0.0
N35 N 0.1393 0.81776 0.55351 0.0
N36 N 0.12367 0.83327 0.53109 0.0
C37 C 0.12619 0.81609 0.5399 0.0
H38 H 0.13763 0.86135 0.53551 0.0
Co39 Co 0.11027 0.83828 0.5099 0.0
C40 C 0.0891 0.80155 0.50136 0.0
O41 O 0.0974 0.80123 0.48532 0.0
N42 N 0.09694 0.84362 0.48825 0.0
C43 C 0.0732 0.84759 0.46785 0.0
C44 C 0.07721 0.84444 0.48582 0.0
C45 C 0.10456 0.84642 0.47159 0.0
N46 N 0.09045 0.84875 0.45888 0.0
O47 O 0.13033 0.82377 0.49755 0.0
H48 H 0.06637 0.84237 0.49638 0.0
H49 H 0.12013 0.84597 0.46865 0.0
O50 O 0.09409 0.81477 0.51274 0.0
C51 C 0.14548 0.8343 0.49439 0.0
O52 O 0.14413 0.85345 0.49667 0.0
N53 N 0.09176 0.85306 0.5228 0.0
C54 C 0.06514 0.87595 0.54226 0.0
C55 C 0.06759 0.85591 0.5462 0.0
C56 C 0.08109 0.84478 0.53646 0.0
C57 C 0.09012 0.87268 0.51909 0.0
C58 C 0.07678 0.88446 0.52867 0.0
H59 H 0.08322 0.82958 0.54024 0.0
H60 H 0.09916 0.87916 0.50861 0.0
H61 H 0.1192 0.80241 0.536 0.0
H62 H 0.15602 0.84302 0.56253 0.0
H63 H 0.05868 0.84871 0.46188 0.0
H64 H 0.05945 0.84894 0.55706 0.0
H65 H 0.07548 0.89995 0.52542 0.0
C66 C 0.40987 0.89315 0.7971 0.0
C67 C 0.42099 0.90111 0.81073 0.0
N68 N 0.4394 0.89385 0.8094 0.0
N69 N 0.42117 0.88083 0.78729 0.0
C70 C 0.43915 0.88149 0.79507 0.0
H71 H 0.39464 0.89656 0.79412 0.0
Co72 Co 0.41202 0.87021 0.7661 0.0
C73 C 0.43467 0.83403 0.75793 0.0
O74 O 0.41811 0.82644 0.75188 0.0
N75 N 0.40195 0.86057 0.74401 0.0
C76 C 0.38299 0.84921 0.72177 0.0
C77 C 0.38377 0.85376 0.73982 0.0
C78 C 0.41178 0.86031 0.72808 0.0
N79 N 0.40064 0.85333 0.7144 0.0
O80 O 0.42672 0.88985 0.75339 0.0
H81 H 0.37148 0.85239 0.74893 0.0
H82 H 0.42694 0.86502 0.72661 0.0
O83 O 0.43473 0.85155 0.76455 0.0
C84 C 0.41657 0.90485 0.74893 0.0
O85 O 0.39736 0.90419 0.75121 0.0
N86 N 0.3969 0.85233 0.77982 0.0
C87 C 0.37285 0.83022 0.80268 0.0
C88 C 0.3929 0.82577 0.80087 0.0
C89 C 0.4048 0.83737 0.78985 0.0
C90 C 0.37772 0.8577 0.78245 0.0
C91 C 0.36529 0.84667 0.79362 0.0
H92 H 0.42044 0.83471 0.79019 0.0
H93 H 0.37206 0.87077 0.77588 0.0
H94 H 0.45194 0.8738 0.78991 0.0
H95 H 0.41593 0.91149 0.82083 0.0
H96 H 0.37017 0.84394 0.71453 0.0
H97 H 0.39953 0.81388 0.80853 0.0
H98 H 0.35001 0.85098 0.79521 0.0
C99 C 0.36131 0.14747 0.0505 0.0
C100 C 0.35543 0.15951 0.06437 0.0
N101 N 0.3637 0.17733 0.06185 0.0
N102 N 0.37327 0.1576 0.03936 0.0
C103 C 0.37453 0.1758 0.04658 0.0
H104 H 0.35681 0.13236 0.04839 0.0
Co105 Co 0.38176 0.14675 0.01804 0.0
C106 C 0.4164 0.1695 0.00485 0.0
O107 O 0.4233 0.15299 -0.00188 0.0
N108 N 0.38921 0.13482 0.99598 0.0
C109 C 0.39947 0.11432 0.97443 0.0
C110 C 0.39695 0.1168 0.9927 0.0
C111 C 0.38681 0.14278 0.97935 0.0
N112 N 0.39305 0.13068 0.96608 0.0
O113 O 0.36048 0.16004 0.00614 0.0
H114 H 0.40065 0.10587 0.00267 0.0
H115 H 0.38103 0.15742 0.97701 0.0
O116 O 0.39983 0.16947 0.01332 0.0
C117 C 0.34543 0.14926 0.00328 0.0
O118 O 0.34677 0.13028 0.00652 0.0
N119 N 0.40134 0.13312 0.03114 0.0
C120 C 0.4257 0.1118 0.05443 0.0
C121 C 0.42994 0.13144 0.05017 0.0
C122 C 0.4173 0.14199 0.03897 0.0
C123 C 0.39642 0.11433 0.03593 0.0
C124 C 0.40854 0.10327 0.04737 0.0
H125 H 0.41995 0.15754 0.03761 0.0
H126 H 0.38284 0.10797 0.03094 0.0
H127 H 0.38259 0.18784 0.04048 0.0
H128 H 0.34587 0.15545 0.07548 0.0
H129 H 0.40531 0.10137 0.96777 0.0
H130 H 0.44241 0.13893 0.05622 0.0
H131 H 0.40443 0.08832 0.05082 0.0
C132 C 0.08266 0.90517 0.19772 0.0
C133 C 0.07009 0.91634 0.18733 0.0
N134 N 0.05181 0.9086 0.1886 0.0
N135 N 0.07242 0.89031 0.20528 0.0
C136 C 0.05369 0.89289 0.19969 0.0
H137 H 0.09824 0.90775 0.19979 0.0
Co138 Co 0.08196 0.87257 0.22219 0.0
C139 C 0.05952 0.83682 0.20824 0.0
O140 O 0.07467 0.83031 0.19902 0.0
N141 N 0.09136 0.85531 0.2402 0.0
C142 C 0.1 0.82924 0.2567 0.0
C143 C 0.094 0.83556 0.23992 0.0
C144 C 0.09609 0.86055 0.25727 0.0
N145 N 0.10125 0.84504 0.26761 0.0
O146 O 0.06498 0.88519 0.23928 0.0
H147 H 0.09188 0.82619 0.22833 0.0
H148 H 0.09507 0.87541 0.26232 0.0
O149 O 0.06068 0.85308 0.21706 0.0
C150 C 0.07238 0.90136 0.24477 0.0
O151 O 0.09104 0.9049 0.24121 0.0
N152 N 0.09965 0.86184 0.20461 0.0
C153 C 0.12563 0.84624 0.17914 0.0
C154 C 0.10725 0.85344 0.17381 0.0
C155 C 0.09453 0.86125 0.18669 0.0
C156 C 0.11842 0.85681 0.2096 0.0
C157 C 0.13142 0.84827 0.19719 0.0
H158 H 0.07995 0.8655 0.18229 0.0
H159 H 0.12336 0.85898 0.22334 0.0
H160 H 0.04162 0.8837 0.20416 0.0
H161 H 0.07424 0.929 0.17932 0.0
H162 H 0.10307 0.81417 0.26057 0.0
H163 H 0.10228 0.852 0.15995 0.0
H164 H 0.14574 0.84314 0.20165 0.0
C165 C 0.34379 0.82687 0.45884 0.0
C166 C 0.33696 0.81475 0.4454 0.0
N167 N 0.35175 0.80266 0.44036 0.0
N168 N 0.36278 0.8225 0.46232 0.0
C169 C 0.36729 0.80772 0.45086 0.0
H170 H 0.33552 0.83837 0.46555 0.0
Co171 Co 0.37732 0.8356 0.47963 0.0
C172 C 0.39911 0.79875 0.49085 0.0
O173 O 0.38685 0.79408 0.50391 0.0
N174 N 0.39131 0.84925 0.49725 0.0
C175 C 0.40515 0.87372 0.51256 0.0
C176 C 0.39661 0.86837 0.49646 0.0
C177 C 0.39655 0.84333 0.51398 0.0
N178 N 0.405 0.85796 0.52365 0.0
O179 O 0.36046 0.82422 0.49746 0.0
H180 H 0.39393 0.87799 0.48507 0.0
H181 H 0.39313 0.82892 0.51933 0.0
O182 O 0.3959 0.81392 0.48115 0.0
C183 C 0.34699 0.83525 0.50384 0.0
O184 O 0.34828 0.85434 0.5011 0.0
N185 N 0.39292 0.84711 0.46157 0.0
C186 C 0.41449 0.8631 0.43311 0.0
C187 C 0.42399 0.85293 0.44712 0.0
C188 C 0.41296 0.84516 0.46129 0.0
C189 C 0.38352 0.85778 0.44855 0.0
C190 C 0.39401 0.86573 0.43404 0.0
H191 H 0.42058 0.83759 0.47207 0.0
H192 H 0.36774 0.85988 0.44927 0.0
H193 H 0.38165 0.80082 0.4503 0.0
H194 H 0.32236 0.81523 0.43951 0.0
H195 H 0.41056 0.88825 0.51595 0.0
H196 H 0.43978 0.85055 0.44695 0.0
H197 H 0.38618 0.87382 0.42367 0.0
C198 C 0.41267 0.11973 0.69286 0.0
C199 C 0.42137 0.10822 0.6798 0.0
N200 N 0.4408 0.1072 0.68333 0.0
N201 N 0.42662 0.12642 0.70439 0.0
C202 C 0.44348 0.11803 0.69842 0.0
H203 H 0.39705 0.12239 0.69392 0.0
Co204 Co 0.42409 0.14078 0.72604 0.0
C205 C 0.45717 0.16252 0.70706 0.0
O206 O 0.4501 0.15851 0.69093 0.0
N207 N 0.42157 0.15447 0.7478 0.0
C208 C 0.42436 0.17693 0.76952 0.0
C209 C 0.42812 0.17278 0.7517 0.0
C210 C 0.41362 0.14792 0.76342 0.0
N211 N 0.41529 0.16125 0.77688 0.0
O212 O 0.43916 0.12062 0.73772 0.0
H213 H 0.43552 0.18251 0.7424 0.0
H214 H 0.40737 0.13339 0.76513 0.0
O215 O 0.44838 0.15581 0.72109 0.0
C216 C 0.42827 0.106 0.74179 0.0
O217 O 0.40913 0.10763 0.7394 0.0
N218 N 0.40788 0.15971 0.71474 0.0
C219 C 0.38166 0.18243 0.69466 0.0
C220 C 0.40047 0.18959 0.6989 0.0
C221 C 0.41329 0.17811 0.70913 0.0
C222 C 0.38883 0.15368 0.7127 0.0
C223 C 0.37558 0.16452 0.70221 0.0
H224 H 0.4275 0.1842 0.7122 0.0
H225 H 0.38423 0.13976 0.71844 0.0
H226 H 0.45761 0.1202 0.70492 0.0
H227 H 0.41389 0.10101 0.6687 0.0
H228 H 0.4282 0.19037 0.77656 0.0
H229 H 0.40563 0.20356 0.69364 0.0
H230 H 0.36094 0.15876 0.69966 0.0
C231 C 0.13442 0.15039 0.94811 0.0
C232 C 0.14242 0.16322 0.93581 0.0
N233 N 0.13478 0.18122 0.93889 0.0
N234 N 0.12171 0.16022 0.95879 0.0
C235 C 0.12219 0.17901 0.9529 0.0
H236 H 0.1381 0.13498 0.94961 0.0
Co237 Co 0.1108 0.14896 0.97899 0.0
C238 C 0.0721 0.16745 0.9853 0.0
O239 O 0.06584 0.14951 0.98871 0.0
N240 N 0.10072 0.13704 0.0002 0.0
C241 C 0.09122 0.11646 0.02197 0.0
C242 C 0.0956 0.1182 0.00393 0.0
C243 C 0.0992 0.14637 0.0163 0.0
N244 N 0.09359 0.13419 0.02974 0.0
O245 O 0.12906 0.16394 0.99317 0.0
H246 H 0.09541 0.10607 0.99459 0.0
H247 H 0.10291 0.16173 0.01827 0.0
O248 O 0.09028 0.1701 0.98095 0.0
C249 C 0.14386 0.15374 -0.00184 0.0
O250 O 0.1433 0.13456 0.99577 0.0
N251 N 0.09482 0.13354 0.9637 0.0
C252 C 0.07736 0.10993 0.93735 0.0
C253 C 0.07231 0.12985 0.93889 0.0
C254 C 0.0815 0.14151 0.9519 0.0
C255 C 0.10089 0.11454 0.96143 0.0
C256 C 0.09186 0.10223 0.94878 0.0
H257 H 0.07858 0.15712 0.95175 0.0
H258 H 0.11329 0.10906 0.96914 0.0
H259 H 0.11422 0.19097 0.95925 0.0
H260 H 0.15312 0.15962 0.92546 0.0
H261 H 0.08694 0.10307 0.02888 0.0
H262 H 0.06165 0.13648 0.92984 0.0
H263 H 0.09675 0.08711 0.94739 0.0
C264 C 0.91276 0.889 0.70092 0.0
C265 C 0.92074 0.89872 0.68634 0.0
N266 N 0.93971 0.89312 0.68469 0.0
N267 N 0.92664 0.87735 0.70834 0.0
C268 C 0.94293 0.8802 0.69824 0.0
H269 H 0.89783 0.89039 0.70592 0.0
Co270 Co 0.92314 0.86275 0.7291 0.0
C271 C 0.96085 0.84247 0.73418 0.0
O272 O 0.96295 0.85205 0.74949 0.0
N273 N 0.91931 0.84816 0.75021 0.0
C274 C 0.91653 0.82314 0.76942 0.0
C275 C 0.9195 0.82832 0.75168 0.0
C276 C 0.91612 0.85468 0.76718 0.0
N277 N 0.91449 0.83977 0.77915 0.0
O278 O 0.93888 0.88181 0.74153 0.0
H279 H 0.92195 0.81825 0.74057 0.0
H280 H 0.91497 0.87006 0.77075 0.0
O281 O 0.94617 0.84637 0.72398 0.0
C282 C 0.92933 0.89708 0.74634 0.0
O283 O 0.91 0.89689 0.74496 0.0
N284 N 0.90695 0.84543 0.71632 0.0
C285 C 0.88051 0.82409 0.69523 0.0
C286 C 0.90056 0.82495 0.69066 0.0
C287 C 0.91351 0.83582 0.70128 0.0
C288 C 0.88757 0.84462 0.72117 0.0
C289 C 0.87406 0.83381 0.71088 0.0
H290 H 0.92865 0.83714 0.69694 0.0
H291 H 0.8825 0.85281 0.73283 0.0
H292 H 0.95697 0.87324 0.70096 0.0
H293 H 0.91311 0.90886 0.67747 0.0
H294 H 0.91642 0.80832 0.7748 0.0
H295 H 0.90617 0.81752 0.67876 0.0
H296 H 0.85866 0.83364 0.71476 0.0
C297 C 0.86686 0.15976 0.44196 0.0
C298 C 0.86022 0.1722 0.42871 0.0
N299 N 0.86454 0.19083 0.43361 0.0
N300 N 0.87561 0.17041 0.45505 0.0
C301 C 0.87395 0.18932 0.44967 0.0
H302 H 0.86487 0.14396 0.44232 0.0
Co303 Co 0.88365 0.15989 0.47676 0.0
C304 C 0.9215 0.17859 0.48663 0.0
O305 O 0.92704 0.16096 0.49187 0.0
N306 N 0.89087 0.14866 0.49943 0.0
C307 C 0.90048 0.12904 0.52192 0.0
C308 C 0.89867 0.13085 0.50358 0.0
C309 C 0.88825 0.15734 0.51575 0.0
N310 N 0.89376 0.14565 0.52964 0.0
O311 O 0.86397 0.17579 0.48842 0.0
H312 H 0.90329 0.11965 0.49424 0.0
H313 H 0.88211 0.17191 0.51745 0.0
O314 O 0.90414 0.18091 0.47995 0.0
C315 C 0.84816 0.16611 0.49125 0.0
O316 O 0.84821 0.14707 0.48806 0.0
N317 N 0.90118 0.14353 0.4639 0.0
C318 C 0.92228 0.11777 0.44162 0.0
C319 C 0.92718 0.13787 0.44254 0.0
C320 C 0.91629 0.15053 0.45352 0.0
C321 C 0.89509 0.12452 0.46189 0.0
C322 C 0.90581 0.11121 0.45139 0.0
H323 H 0.91949 0.16607 0.45292 0.0
H324 H 0.88186 0.11959 0.46871 0.0
H325 H 0.8787 0.20172 0.45777 0.0
H326 H 0.85266 0.16781 0.41647 0.0
H327 H 0.90655 0.11647 0.52897 0.0
H328 H 0.93887 0.14403 0.43434 0.0
H329 H 0.90109 0.09599 0.45093 0.0
C330 C 0.59676 0.1112 0.19806 0.0
C331 C 0.58754 0.10102 0.18437 0.0
N332 N 0.56791 0.10321 0.18638 0.0
N333 N 0.58297 0.11998 0.20841 0.0
C334 C 0.56555 0.11473 0.20108 0.0
H335 H 0.61248 0.11217 0.20038 0.0
Co336 Co 0.58749 0.13469 0.229 0.0
C337 C 0.55028 0.1558 0.23502 0.0
O338 O 0.54858 0.14702 0.25077 0.0
N339 N 0.59215 0.14948 0.24997 0.0
C340 C 0.59512 0.17474 0.26889 0.0
C341 C 0.59254 0.16933 0.25116 0.0
C342 C 0.59462 0.14319 0.26713 0.0
N343 N 0.59633 0.15825 0.27895 0.0
O344 O 0.57239 0.1157 0.24212 0.0
H345 H 0.59058 0.17929 0.23989 0.0
H346 H 0.59437 0.12788 0.27104 0.0
O347 O 0.56437 0.15096 0.22448 0.0
C348 C 0.58296 0.10096 0.24649 0.0
O349 O 0.60213 0.10208 0.24404 0.0
N350 N 0.60306 0.15206 0.21554 0.0
C351 C 0.6278 0.17491 0.19411 0.0
C352 C 0.60786 0.17258 0.18963 0.0
C353 C 0.59576 0.16102 0.20045 0.0
C354 C 0.62245 0.15401 0.22011 0.0
C355 C 0.63509 0.16567 0.20968 0.0
H356 H 0.58067 0.15872 0.19629 0.0
H357 H 0.62815 0.14632 0.23181 0.0
H358 H 0.55143 0.11945 0.20634 0.0
H359 H 0.59469 0.09254 0.17385 0.0
H360 H 0.5958 0.18968 0.27395 0.0
H361 H 0.60164 0.17957 0.17776 0.0
H362 H 0.65046 0.16702 0.21345 0.0
C363 C 0.62608 0.83787 0.94324 0.0
C364 C 0.63876 0.83204 0.92977 0.0
N365 N 0.64467 0.81353 0.93336 0.0
N366 N 0.62365 0.82295 0.9551 0.0
C367 C 0.63557 0.80853 0.94892 0.0
H368 H 0.61925 0.8522 0.94437 0.0
Co369 Co 0.61002 0.82429 0.97699 0.0
C370 C 0.59229 0.78535 0.96192 0.0
O371 O 0.60223 0.78418 0.94673 0.0
N372 N 0.59681 0.82622 -0.00108 0.0
C373 C 0.57341 0.82558 0.01995 0.0
C374 C 0.57776 0.82162 0.00218 0.0
C375 C 0.6036 0.83339 0.01474 0.0
N376 N 0.58969 0.83305 0.02775 0.0
O377 O 0.63119 0.81011 0.9882 0.0
H378 H 0.56752 0.81616 0.99216 0.0
H379 H 0.61846 0.8387 0.01677 0.0
O380 O 0.59532 0.79971 0.97276 0.0
C381 C 0.6455 0.82147 0.9922 0.0
O382 O 0.6432 0.84053 0.98995 0.0
N383 N 0.59012 0.83918 0.96602 0.0
C384 C 0.56395 0.86448 0.94879 0.0
C385 C 0.5652 0.84466 0.94371 0.0
C386 C 0.57857 0.83232 0.9523 0.0
C387 C 0.58898 0.8584 0.97133 0.0
C388 C 0.57601 0.87141 0.96277 0.0
H389 H 0.58015 0.81758 0.94723 0.0
H390 H 0.59863 0.86375 0.98189 0.0
H391 H 0.63769 0.79465 0.95583 0.0
H392 H 0.64292 0.84062 0.91804 0.0
H393 H 0.55928 0.82358 0.02652 0.0
H394 H 0.55654 0.83895 0.93256 0.0
H395 H 0.57557 0.88672 0.96688 0.0
C396 C 0.92043 0.10595 0.79706 0.0
C397 C 0.92916 0.09304 0.80894 0.0
N398 N 0.94822 0.09097 0.80418 0.0
N399 N 0.93403 0.11231 0.7851 0.0
C400 C 0.95062 0.10246 0.78947 0.0
H401 H 0.90518 0.11059 0.79726 0.0
Co402 Co 0.92934 0.12898 0.76562 0.0
C403 C 0.96867 0.14818 0.77892 0.0
O404 O 0.97231 0.13803 0.79365 0.0
N405 N 0.92429 0.14541 0.74601 0.0
C406 C 0.92136 0.17228 0.72912 0.0
C407 C 0.92686 0.16512 0.7457 0.0
C408 C 0.91698 0.14095 0.72955 0.0
N409 N 0.91511 0.15705 0.71892 0.0
O410 O 0.94345 0.11092 0.75063 0.0
H411 H 0.93231 0.17381 0.75689 0.0
H412 H 0.91289 0.12621 0.72554 0.0
O413 O 0.95337 0.14444 0.76945 0.0
C414 C 0.93299 0.0963 0.74568 0.0
O415 O 0.91392 0.09686 0.74884 0.0
N416 N 0.91479 0.14588 0.78055 0.0
C417 C 0.8917 0.17022 0.80208 0.0
C418 C 0.91153 0.16689 0.80633 0.0
C419 C 0.92274 0.15445 0.79554 0.0
C420 C 0.89532 0.14842 0.77649 0.0
C421 C 0.88342 0.1606 0.78715 0.0
H422 H 0.93762 0.15137 0.79962 0.0
H423 H 0.88903 0.14098 0.76492 0.0
H424 H 0.96427 0.10373 0.78198 0.0
H425 H 0.92223 0.08637 0.82061 0.0
H426 H 0.92226 0.18749 0.72487 0.0
H427 H 0.91822 0.17355 0.81814 0.0
H428 H 0.86804 0.16267 0.78367 0.0
C429 C 0.64716 0.16408 0.54589 0.0
C430 C 0.65748 0.17441 0.5588 0.0
N431 N 0.65033 0.19292 0.55933 0.0
N432 N 0.63351 0.17602 0.53845 0.0
C433 C 0.63594 0.19353 0.54672 0.0
H434 H 0.64936 0.14884 0.54216 0.0
Co435 Co 0.61687 0.16929 0.51959 0.0
C436 C 0.58222 0.19492 0.53175 0.0
O437 O 0.57332 0.18043 0.5401 0.0
N438 N 0.60059 0.16271 0.49981 0.0
C439 C 0.57484 0.15702 0.48185 0.0
C440 C 0.58072 0.16113 0.49922 0.0
C441 C 0.60636 0.15939 0.4826 0.0
N442 N 0.59104 0.15599 0.47139 0.0
O443 O 0.63322 0.18547 0.50447 0.0
H444 H 0.57098 0.16261 0.51065 0.0
H445 H 0.62148 0.16006 0.47814 0.0
O446 O 0.59897 0.19224 0.52399 0.0
C447 C 0.64849 0.17586 0.49958 0.0
O448 O 0.64892 0.15677 0.50255 0.0
N449 N 0.60273 0.15189 0.53521 0.0
C450 C 0.58512 0.1245 0.55827 0.0
C451 C 0.59162 0.14264 0.56489 0.0
C452 C 0.60051 0.15603 0.55322 0.0
C453 C 0.59786 0.13355 0.52894 0.0
C454 C 0.58838 0.11986 0.5401 0.0
H455 H 0.60487 0.17013 0.55865 0.0
H456 H 0.60129 0.12935 0.5152 0.0
H457 H 0.62743 0.20652 0.54344 0.0
H458 H 0.66899 0.1686 0.56742 0.0
H459 H 0.55981 0.15495 0.47733 0.0
H460 H 0.58931 0.1467 0.5789 0.0
H461 H 0.58387 0.10575 0.53466 0.0
C462 C 0.60037 0.88127 0.3021 0.0
C463 C 0.58645 0.88469 0.3152 0.0
N464 N 0.56909 0.8773 0.30946 0.0
N465 N 0.59189 0.87162 0.28824 0.0
C466 C 0.57281 0.86949 0.293 0.0
H467 H 0.61559 0.88601 0.3024 0.0
Co468 Co 0.60466 0.86597 0.26694 0.0
C469 C 0.58597 0.83006 0.25147 0.0
O470 O 0.6032 0.82496 0.24487 0.0
N471 N 0.6181 0.8612 0.245 0.0
C472 C 0.63992 0.85404 0.22345 0.0
C473 C 0.63686 0.85534 0.24176 0.0
C474 C 0.61027 0.86371 0.22833 0.0
N475 N 0.62318 0.85937 0.21508 0.0
O476 O 0.58956 0.88628 0.25562 0.0
H477 H 0.64787 0.85201 0.25178 0.0
H478 H 0.59515 0.86807 0.22593 0.0
O479 O 0.58434 0.84609 0.26056 0.0
C480 C 0.59896 0.90243 0.25424 0.0
O481 O 0.61767 0.90276 0.25888 0.0
N482 N 0.61995 0.84734 0.27946 0.0
C483 C 0.64317 0.82488 0.30281 0.0
C484 C 0.62428 0.81853 0.29777 0.0
C485 C 0.61274 0.83017 0.28647 0.0
C486 C 0.63797 0.85412 0.2848 0.0
C487 C 0.65 0.84298 0.29623 0.0
H488 H 0.59764 0.82581 0.28445 0.0
H489 H 0.64289 0.86849 0.28038 0.0
H490 H 0.56185 0.86265 0.28446 0.0
H491 H 0.58884 0.89263 0.3277 0.0
H492 H 0.65345 0.84969 0.2168 0.0
H493 H 0.61796 0.80521 0.30339 0.0
H494 H 0.66428 0.84868 0.30016 0.0
C495 C 0.8554 0.84233 0.05055 0.0
C496 C 0.84999 0.82939 0.06388 0.0
N497 N 0.8604 0.81265 0.06169 0.0
N498 N 0.86922 0.83388 0.04005 0.0
C499 C 0.87195 0.81574 0.04704 0.0
H500 H 0.84942 0.85691 0.04838 0.0
Co501 Co 0.87876 0.84648 0.01995 0.0
C502 C 0.91776 0.82968 0.01124 0.0
O503 O 0.92335 0.84789 0.00809 0.0
N504 N 0.88735 0.85988 -0.00098 0.0
C505 C 0.89502 0.88208 0.97801 0.0
C506 C 0.89085 0.87921 0.99598 0.0
C507 C 0.88938 0.85141 0.98256 0.0
N508 N 0.89404 0.86457 0.96959 0.0
O509 O 0.86079 0.83128 0.0057 0.0
H510 H 0.89008 0.89085 0.00581 0.0
H511 H 0.88691 0.8359 0.98007 0.0
O512 O 0.89994 0.82637 0.01637 0.0
C513 C 0.84512 0.84047 0.00136 0.0
O514 O 0.8441 0.85946 0.00466 0.0
N515 N 0.89479 0.86181 0.03535 0.0
C516 C 0.91265 0.88436 0.06235 0.0
C517 C 0.91878 0.86499 0.05902 0.0
C518 C 0.9093 0.85381 0.04586 0.0
C519 C 0.88791 0.88025 0.03913 0.0
C520 C 0.897 0.89203 0.05222 0.0
H521 H 0.91305 0.83842 0.04497 0.0
H522 H 0.8748 0.8856 0.03242 0.0
H523 H 0.88213 0.80506 0.0415 0.0
H524 H 0.83889 0.83198 0.07411 0.0
H525 H 0.89833 0.89604 0.97164 0.0
H526 H 0.93049 0.85829 0.06685 0.0
H527 H 0.89126 0.90662 0.05492 0.0
C528 C 0.60145 0.62115 0.80681 0.0
C529 C 0.59196 0.61135 0.82056 0.0
N530 N 0.57232 0.61275 0.81786 0.0
N531 N 0.58787 0.62891 0.79562 0.0
C532 C 0.57034 0.62346 0.80256 0.0
H533 H 0.61722 0.62252 0.80502 0.0
Co534 Co 0.59253 0.64236 0.77437 0.0
C535 C 0.55525 0.66294 0.7675 0.0
O536 O 0.55362 0.65278 0.75245 0.0
N537 N 0.59737 0.65588 0.75282 0.0
C538 C 0.6008 0.68009 0.73287 0.0
C539 C 0.59719 0.67563 0.75066 0.0
C540 C 0.60129 0.64867 0.73621 0.0
N541 N 0.60333 0.66309 0.72379 0.0
O542 O 0.57707 0.62286 0.76213 0.0
H543 H 0.59418 0.68614 0.7613 0.0
H544 H 0.60252 0.63317 0.73319 0.0
O545 O 0.56954 0.65932 0.77824 0.0
C546 C 0.58721 0.60781 0.75781 0.0
O547 O 0.60642 0.60838 0.76008 0.0
N548 N 0.60858 0.66006 0.78681 0.0
C549 C 0.63495 0.68248 0.8069 0.0
C550 C 0.61492 0.68181 0.81157 0.0
C551 C 0.60195 0.67045 0.80137 0.0
C552 C 0.628 0.66053 0.78201 0.0
C553 C 0.64146 0.67193 0.79177 0.0
H554 H 0.58675 0.66941 0.80563 0.0
H555 H 0.6331 0.65173 0.77076 0.0
H556 H 0.55646 0.62697 0.79614 0.0
H557 H 0.5991 0.60397 0.83174 0.0
H558 H 0.60082 0.69468 0.727 0.0
H559 H 0.60935 0.68985 0.82315 0.0
H560 H 0.65686 0.67199 0.78788 0.0
C561 C 0.62892 0.33856 0.04968 0.0
C562 C 0.63872 0.33136 0.06453 0.0
N563 N 0.63797 0.31151 0.06402 0.0
N564 N 0.62186 0.32335 0.03996 0.0
C565 C 0.62767 0.30708 0.04891 0.0
H566 H 0.62714 0.3539 0.04608 0.0
Co567 Co 0.6091 0.32547 0.01805 0.0
C568 C 0.59107 0.28658 0.01223 0.0
O569 O 0.60167 0.28479 -0.00255 0.0
N570 N 0.59634 0.32801 0.99581 0.0
C571 C 0.57311 0.32883 0.97465 0.0
C572 C 0.57683 0.32596 0.99271 0.0
C573 C 0.60413 0.33234 0.97951 0.0
N574 N 0.59034 0.33282 0.96636 0.0
O575 O 0.63041 0.31095 0.00738 0.0
H576 H 0.56599 0.32237 0.00292 0.0
H577 H 0.61958 0.33523 0.97729 0.0
O578 O 0.5938 0.30147 0.02249 0.0
C579 C 0.6449 0.32206 0.00335 0.0
O580 O 0.64268 0.34123 0.00474 0.0
N581 N 0.58956 0.34067 0.02904 0.0
C582 C 0.56584 0.36642 0.04861 0.0
C583 C 0.56678 0.34639 0.05316 0.0
C584 C 0.57889 0.3338 0.04334 0.0
C585 C 0.58839 0.35995 0.02399 0.0
C586 C 0.57644 0.37312 0.03354 0.0
H587 H 0.5805 0.31881 0.04795 0.0
H588 H 0.5974 0.36527 0.01295 0.0
H589 H 0.62482 0.2923 0.04412 0.0
H590 H 0.64564 0.34012 0.07498 0.0
H591 H 0.55889 0.32759 0.96812 0.0
H592 H 0.55868 0.34058 0.0646 0.0
H593 H 0.57625 0.38851 0.02971 0.0
C594 C 0.92002 0.40384 0.29003 0.0
C595 C 0.93176 0.41433 0.30177 0.0
N596 N 0.94995 0.40637 0.30145 0.0
N597 N 0.93081 0.38938 0.28244 0.0
C598 C 0.94899 0.39135 0.28955 0.0
H599 H 0.90464 0.40659 0.28711 0.0
Co600 Co 0.92194 0.37255 0.26465 0.0
C601 C 0.95621 0.348 0.25582 0.0
O602 O 0.95578 0.35496 0.23925 0.0
N603 N 0.91278 0.35565 0.24647 0.0
C604 C 0.90538 0.32844 0.23114 0.0
C605 C 0.91027 0.33595 0.2478 0.0
C606 C 0.9092 0.35974 0.22893 0.0
N607 N 0.9048 0.34345 0.21926 0.0
O608 O 0.93601 0.38838 0.24772 0.0
H609 H 0.91264 0.32743 0.25996 0.0
H610 H 0.9109 0.37419 0.22307 0.0
O611 O 0.94441 0.35496 0.26765 0.0
C612 C 0.92646 0.40367 0.24302 0.0
O613 O 0.90746 0.40434 0.24653 0.0
N614 N 0.90779 0.3585 0.28204 0.0
C615 C 0.88582 0.33996 0.30892 0.0
C616 C 0.90645 0.34082 0.30998 0.0
C617 C 0.91712 0.35035 0.29656 0.0
C618 C 0.88773 0.35818 0.28081 0.0
C619 C 0.87641 0.34877 0.29407 0.0
H620 H 0.9329 0.35149 0.29811 0.0
H621 H 0.88052 0.3653 0.26953 0.0
H622 H 0.96137 0.38213 0.28589 0.0
H623 H 0.92716 0.42655 0.31017 0.0
H624 H 0.90296 0.31307 0.22797 0.0
H625 H 0.91441 0.33405 0.32105 0.0
H626 H 0.8605 0.34863 0.29283 0.0
C627 C 0.84674 0.66505 0.54787 0.0
C628 C 0.83658 0.67491 0.56119 0.0
N629 N 0.84383 0.69338 0.56234 0.0
N630 N 0.86046 0.67717 0.54083 0.0
C631 C 0.85809 0.69439 0.54961 0.0
H632 H 0.84458 0.64991 0.54378 0.0
Co633 Co 0.8778 0.67097 0.5223 0.0
C634 C 0.91137 0.69655 0.53681 0.0
O635 O 0.91901 0.68242 0.54659 0.0
N636 N 0.89475 0.66514 0.50287 0.0
C637 C 0.92114 0.66136 0.48531 0.0
C638 C 0.91469 0.66495 0.50261 0.0
C639 C 0.88951 0.66152 0.48557 0.0
N640 N 0.90524 0.65928 0.47458 0.0
O641 O 0.86228 0.68777 0.50718 0.0
H642 H 0.92406 0.66719 0.51421 0.0
H643 H 0.87445 0.66125 0.48092 0.0
O644 O 0.89549 0.69364 0.52776 0.0
C645 C 0.84697 0.67879 0.50152 0.0
O646 O 0.84587 0.65964 0.504 0.0
N647 N 0.89152 0.65294 0.53789 0.0
C648 C 0.9113 0.62625 0.56013 0.0
C649 C 0.90232 0.6429 0.56749 0.0
C650 C 0.8924 0.65596 0.55621 0.0
C651 C 0.89826 0.63549 0.53097 0.0
C652 C 0.90891 0.62229 0.54172 0.0
H653 H 0.88671 0.66926 0.56225 0.0
H654 H 0.89581 0.63176 0.51695 0.0
H655 H 0.86676 0.70737 0.54675 0.0
H656 H 0.82527 0.66868 0.56977 0.0
H657 H 0.93636 0.66044 0.48101 0.0
H658 H 0.9039 0.64641 0.58171 0.0
H659 H 0.91533 0.60923 0.5357 0.0
C660 C 0.59535 0.39917 0.69872 0.0
C661 C 0.58561 0.40947 0.6854 0.0
N662 N 0.56667 0.4035 0.68524 0.0
N663 N 0.58255 0.38683 0.70683 0.0
C664 C 0.5652 0.38984 0.6984 0.0
H665 H 0.61068 0.40073 0.70247 0.0
Co666 Co 0.58801 0.37142 0.7267 0.0
C667 C 0.55136 0.3496 0.73361 0.0
O668 O 0.55086 0.35722 0.74994 0.0
N669 N 0.59379 0.35593 0.74695 0.0
C670 C 0.59808 0.32994 0.76478 0.0
C671 C 0.59388 0.33604 0.74752 0.0
C672 C 0.59812 0.36156 0.76399 0.0
N673 N 0.60068 0.34603 0.77515 0.0
O674 O 0.57315 0.38969 0.74091 0.0
H675 H 0.59061 0.32653 0.73617 0.0
H676 H 0.59923 0.37672 0.76825 0.0
O677 O 0.56473 0.3551 0.72256 0.0
C678 C 0.58307 0.40444 0.74637 0.0
O679 O 0.60225 0.40454 0.74392 0.0
N680 N 0.60313 0.3547 0.71221 0.0
C681 C 0.62635 0.32946 0.69164 0.0
C682 C 0.60642 0.33236 0.68739 0.0
C683 C 0.59511 0.34518 0.69773 0.0
C684 C 0.62271 0.35285 0.71608 0.0
C685 C 0.63465 0.34017 0.70595 0.0
H686 H 0.57991 0.34753 0.69397 0.0
H687 H 0.62898 0.36099 0.72726 0.0
H688 H 0.55161 0.38257 0.70216 0.0
H689 H 0.59199 0.42033 0.67643 0.0
H690 H 0.59841 0.31484 0.76945 0.0
H691 H 0.59964 0.32488 0.67604 0.0
H692 H 0.65005 0.33846 0.7095 0.0
C693 C 0.85427 0.33254 0.95161 0.0
C694 C 0.84681 0.31977 0.93898 0.0
N695 N 0.85784 0.30328 0.93922 0.0
N696 N 0.86994 0.32418 0.95971 0.0
C697 C 0.87183 0.30632 0.95193 0.0
H698 H 0.84853 0.34696 0.95491 0.0
Co699 Co 0.88216 0.33653 0.97862 0.0
C700 C 0.92089 0.31782 0.98469 0.0
O701 O 0.92758 0.33582 0.98691 0.0
N702 N 0.89356 0.34982 -0.00147 0.0
C703 C 0.90489 0.37198 0.01816 0.0
C704 C 0.89953 0.36872 0.00053 0.0
C705 C 0.89555 0.34198 0.01525 0.0
N706 N 0.90224 0.35516 0.02744 0.0
O707 O 0.86461 0.32263 0.99442 0.0
H708 H 0.89969 0.37989 0.99023 0.0
H709 H 0.89137 0.32704 0.01857 0.0
O710 O 0.90252 0.31524 0.98099 0.0
C711 C 0.85045 0.33259 0.0011 0.0
O712 O 0.85079 0.35187 -0.00037 0.0
N713 N 0.89749 0.35055 0.9617 0.0
C714 C 0.91511 0.37201 0.93387 0.0
C715 C 0.91992 0.35217 0.93666 0.0
C716 C 0.91057 0.34158 0.95029 0.0
C717 C 0.89148 0.36934 0.9582 0.0
C718 C 0.90055 0.3806 0.94473 0.0
H719 H 0.91339 0.32598 0.95108 0.0
H720 H 0.87937 0.37558 0.96581 0.0
H721 H 0.88292 0.29564 0.95575 0.0
H722 H 0.8344 0.32254 0.93014 0.0
H723 H 0.90998 0.3858 0.02377 0.0
H724 H 0.9307 0.34478 0.92824 0.0
H725 H 0.89581 0.39563 0.94249 0.0
C726 C 0.91957 0.60521 0.2062 0.0
C727 C 0.93086 0.59486 0.19403 0.0
N728 N 0.9499 0.59997 0.19644 0.0
N729 N 0.93143 0.61689 0.21611 0.0
C730 C 0.94979 0.61327 0.21002 0.0
H731 H 0.90373 0.60441 0.20772 0.0
Co732 Co 0.9234 0.63289 0.23489 0.0
C733 C 0.95818 0.6568 0.24373 0.0
O734 O 0.95781 0.6497 0.26025 0.0
N735 N 0.91505 0.6488 0.25411 0.0
C736 C 0.90822 0.67484 0.27122 0.0
C737 C 0.91322 0.66861 0.25414 0.0
C738 C 0.91095 0.64336 0.27124 0.0
N739 N 0.90688 0.6589 0.28199 0.0
O740 O 0.93763 0.6159 0.25077 0.0
H741 H 0.91595 0.67801 0.2426 0.0
H742 H 0.91186 0.62837 0.27602 0.0
O743 O 0.94611 0.65018 0.23197 0.0
C744 C 0.92785 0.60046 0.2546 0.0
O745 O 0.90893 0.60013 0.25072 0.0
N746 N 0.90909 0.64826 0.2185 0.0
C747 C 0.88708 0.66713 0.192 0.0
C748 C 0.90749 0.66516 0.19015 0.0
C749 C 0.91824 0.6557 0.20354 0.0
C750 C 0.88915 0.64993 0.22052 0.0
C751 C 0.87782 0.65971 0.20749 0.0
H752 H 0.93387 0.65365 0.20147 0.0
H753 H 0.88201 0.64343 0.23216 0.0
H754 H 0.96283 0.62015 0.2156 0.0
H755 H 0.92537 0.58478 0.18387 0.0
H756 H 0.90612 0.68997 0.27541 0.0
H757 H 0.91507 0.67078 0.17832 0.0
H758 H 0.86201 0.661 0.20923 0.0
C759 C 0.63211 0.66355 0.44941 0.0
C760 C 0.64289 0.67176 0.43558 0.0
N761 N 0.6429 0.69146 0.4378 0.0
N762 N 0.62516 0.67806 0.46008 0.0
C763 C 0.63203 0.69488 0.45276 0.0
H764 H 0.62981 0.648 0.4518 0.0
Co765 Co 0.61192 0.67455 0.48159 0.0
C766 C 0.59292 0.71278 0.48859 0.0
O767 O 0.60286 0.71418 0.50378 0.0
N768 N 0.5988 0.67067 0.5034 0.0
C769 C 0.57547 0.66841 0.52434 0.0
C770 C 0.57923 0.67225 0.50645 0.0
C771 C 0.60658 0.66564 0.51952 0.0
N772 N 0.59272 0.66429 0.53255 0.0
O773 O 0.63253 0.68899 0.49336 0.0
H774 H 0.56841 0.67622 0.49634 0.0
H775 H 0.6221 0.66297 0.52167 0.0
O776 O 0.59641 0.69844 0.47789 0.0
C777 C 0.64781 0.67859 0.49631 0.0
O778 O 0.64683 0.65953 0.4933 0.0
N779 N 0.59273 0.65975 0.46958 0.0
C780 C 0.56571 0.63646 0.45103 0.0
C781 C 0.56876 0.65616 0.4461 0.0
C782 C 0.58245 0.66749 0.45542 0.0
C783 C 0.59034 0.6405 0.4744 0.0
C784 C 0.57681 0.62853 0.46528 0.0
H785 H 0.58524 0.68231 0.45081 0.0
H786 H 0.59908 0.63441 0.48528 0.0
H787 H 0.62923 0.70931 0.45842 0.0
H788 H 0.6505 0.66382 0.42499 0.0
H789 H 0.56121 0.66917 0.53087 0.0
H790 H 0.56105 0.66263 0.43473 0.0
H791 H 0.57503 0.61331 0.46932 0.0
C792 C 0.41591 0.39064 0.19913 0.0
C793 C 0.42309 0.40143 0.18487 0.0
N794 N 0.44297 0.40037 0.18505 0.0
N795 N 0.43113 0.38263 0.20817 0.0
C796 C 0.44741 0.38896 0.19949 0.0
H797 H 0.40056 0.38845 0.20256 0.0
Co798 Co 0.42875 0.36689 0.22836 0.0
C799 C 0.46805 0.34979 0.23389 0.0
O800 O 0.4689 0.35837 0.24979 0.0
N801 N 0.42595 0.35109 0.24887 0.0
C802 C 0.42538 0.32519 0.26724 0.0
C803 C 0.42843 0.33137 0.24979 0.0
C804 C 0.42126 0.35652 0.26587 0.0
N805 N 0.4209 0.34106 0.27736 0.0
O806 O 0.44192 0.38694 0.24185 0.0
H807 H 0.43237 0.32206 0.23848 0.0
H808 H 0.41861 0.3716 0.26985 0.0
O809 O 0.45361 0.35356 0.22338 0.0
C810 C 0.43112 0.40136 0.24661 0.0
O811 O 0.41192 0.39985 0.24453 0.0
N812 N 0.41533 0.34814 0.21449 0.0
C813 C 0.39509 0.32053 0.19388 0.0
C814 C 0.41427 0.32619 0.18922 0.0
C815 C 0.42403 0.34019 0.19954 0.0
C816 C 0.39637 0.34342 0.2189 0.0
C817 C 0.3859 0.32953 0.20871 0.0
H818 H 0.43851 0.34487 0.19526 0.0
H819 H 0.38943 0.35036 0.23043 0.0
H820 H 0.46217 0.38515 0.20375 0.0
H821 H 0.41421 0.40889 0.17484 0.0
H822 H 0.42634 0.31017 0.27204 0.0
H823 H 0.42158 0.32004 0.17748 0.0
H824 H 0.37098 0.32566 0.21253 0.0
C825 C 0.35357 0.65678 0.93812 0.0
C826 C 0.34381 0.66715 0.92488 0.0
N827 N 0.34654 0.68651 0.928 0.0
N828 N 0.36261 0.66959 0.94929 0.0
C829 C 0.35794 0.68757 0.9429 0.0
H830 H 0.35408 0.64093 0.93956 0.0
Co831 Co 0.37692 0.66325 0.96966 0.0
C832 C 0.39918 0.69914 0.97843 0.0
O833 O 0.39061 0.69945 0.99436 0.0
N834 N 0.39139 0.65668 0.99044 0.0
C835 C 0.41661 0.6511 0.00891 0.0
C836 C 0.41117 0.65463 0.99136 0.0
C837 C 0.38517 0.65438 0.00766 0.0
N838 N 0.40024 0.6511 0.01924 0.0
O839 O 0.35802 0.67784 0.9835 0.0
H840 H 0.42116 0.65619 0.98006 0.0
H841 H 0.36999 0.656 0.01177 0.0
O842 O 0.39386 0.68631 0.96679 0.0
C843 C 0.34285 0.66754 0.9872 0.0
O844 O 0.34344 0.64851 0.98399 0.0
N845 N 0.3941 0.64829 0.95539 0.0
C846 C 0.41832 0.62494 0.93383 0.0
C847 C 0.41639 0.64518 0.93048 0.0
C848 C 0.40407 0.65655 0.94128 0.0
C849 C 0.39531 0.62856 0.95863 0.0
C850 C 0.40759 0.61659 0.94812 0.0
H851 H 0.40232 0.67196 0.93806 0.0
H852 H 0.38679 0.62212 0.96949 0.0
H853 H 0.36302 0.70117 0.94895 0.0
H854 H 0.33531 0.66095 0.91387 0.0
H855 H 0.43156 0.64907 0.01362 0.0
H856 H 0.42448 0.65229 0.91967 0.0
H857 H 0.40848 0.60098 0.95099 0.0
C858 C 0.09688 0.6121 0.69025 0.0
C859 C 0.08387 0.60555 0.67735 0.0
N860 N 0.06625 0.61393 0.68062 0.0
N861 N 0.08744 0.62446 0.70157 0.0
C862 C 0.06876 0.62538 0.69535 0.0
H863 H 0.11205 0.6075 0.69183 0.0
Co864 Co 0.09875 0.63297 0.72271 0.0
C865 C 0.07761 0.66861 0.7348 0.0
O866 O 0.09481 0.67562 0.73985 0.0
N867 N 0.11081 0.64045 0.74473 0.0
C868 C 0.13149 0.64835 0.76696 0.0
C869 C 0.12964 0.64541 0.74867 0.0
C870 C 0.10168 0.64017 0.761 0.0
N871 N 0.11386 0.64505 0.77471 0.0
O872 O 0.08502 0.61235 0.73492 0.0
H873 H 0.14163 0.64659 0.73923 0.0
H874 H 0.08635 0.63615 0.76276 0.0
O875 O 0.07658 0.65149 0.72746 0.0
C876 C 0.09514 0.59706 0.73846 0.0
O877 O 0.11428 0.59753 0.73567 0.0
N878 N 0.11261 0.65215 0.70931 0.0
C879 C 0.13373 0.67758 0.6868 0.0
C880 C 0.11339 0.67994 0.68933 0.0
C881 C 0.10306 0.66686 0.70023 0.0
C882 C 0.13198 0.64848 0.70564 0.0
C883 C 0.143 0.66131 0.69481 0.0
H884 H 0.08723 0.66817 0.70058 0.0
H885 H 0.13887 0.63531 0.7109 0.0
H886 H 0.05697 0.6333 0.70202 0.0
H887 H 0.08697 0.59516 0.66662 0.0
H888 H 0.14484 0.65258 0.77397 0.0
H889 H 0.10527 0.69139 0.68235 0.0
H890 H 0.15852 0.6584 0.69264 0.0
C891 C 0.13724 0.34246 0.44695 0.0
C892 C 0.14376 0.33011 0.43356 0.0
N893 N 0.13493 0.3125 0.43578 0.0
N894 N 0.12431 0.33274 0.45749 0.0
C895 C 0.12313 0.31448 0.4504 0.0
H896 H 0.14197 0.35748 0.4492 0.0
Co897 Co 0.11485 0.34382 0.47837 0.0
C898 C 0.07722 0.32442 0.48782 0.0
O899 O 0.071 0.3421 0.49224 0.0
N900 N 0.10635 0.35573 0.50015 0.0
C901 C 0.09815 0.37655 0.52218 0.0
C902 C 0.10105 0.37451 0.50392 0.0
C903 C 0.1065 0.34674 0.51648 0.0
N904 N 0.10169 0.35908 0.53007 0.0
O905 O 0.13447 0.32922 0.49139 0.0
H906 H 0.09973 0.38639 0.49439 0.0
H907 H 0.11078 0.33154 0.51842 0.0
O908 O 0.09486 0.32231 0.48168 0.0
C909 C 0.14935 0.33985 0.49538 0.0
O910 O 0.14833 0.3589 0.4924 0.0
N911 N 0.09743 0.35892 0.46424 0.0
C912 C 0.0768 0.38275 0.43997 0.0
C913 C 0.07179 0.36285 0.4422 0.0
C914 C 0.08258 0.35109 0.45404 0.0
C915 C 0.10348 0.37778 0.46117 0.0
C916 C 0.09307 0.39014 0.44949 0.0
H917 H 0.07949 0.33551 0.45421 0.0
H918 H 0.11669 0.3832 0.46769 0.0
H919 H 0.11444 0.30269 0.45618 0.0
H920 H 0.15417 0.33379 0.423 0.0
H921 H 0.09404 0.38998 0.52912 0.0
H922 H 0.06017 0.35615 0.43426 0.0
H923 H 0.09789 0.40524 0.44779 0.0
C924 C 0.41823 0.61273 0.28937 0.0
C925 C 0.42628 0.60389 0.30435 0.0
N926 N 0.4452 0.60976 0.30575 0.0
N927 N 0.432 0.62408 0.2814 0.0
C928 C 0.44831 0.62197 0.29163 0.0
H929 H 0.40328 0.61104 0.28452 0.0
Co930 Co 0.42766 0.63768 0.26024 0.0
C931 C 0.46565 0.65639 0.25193 0.0
O932 O 0.46607 0.64651 0.23666 0.0
N933 N 0.42273 0.65125 0.23879 0.0
C934 C 0.41785 0.67544 0.21903 0.0
C935 C 0.42323 0.67099 0.23647 0.0
C936 C 0.41709 0.64403 0.2226 0.0
N937 N 0.41405 0.65843 0.21037 0.0
O938 O 0.44168 0.61738 0.24777 0.0
H939 H 0.4272 0.68151 0.24683 0.0
H940 H 0.41493 0.62857 0.21981 0.0
O941 O 0.45172 0.65323 0.26318 0.0
C942 C 0.43117 0.60239 0.24405 0.0
O943 O 0.41201 0.60346 0.24658 0.0
N944 N 0.41317 0.65634 0.2731 0.0
C945 C 0.38954 0.68141 0.29338 0.0
C946 C 0.40989 0.68048 0.29646 0.0
C947 C 0.42141 0.66759 0.28639 0.0
C948 C 0.39338 0.65693 0.26993 0.0
C949 C 0.38119 0.66939 0.28002 0.0
H950 H 0.43681 0.6662 0.28979 0.0
H951 H 0.38702 0.64742 0.25975 0.0
H952 H 0.46224 0.62906 0.28869 0.0
H953 H 0.41869 0.59427 0.31372 0.0
H954 H 0.41711 0.68999 0.2131 0.0
H955 H 0.41672 0.68908 0.30709 0.0
H956 H 0.36545 0.66955 0.27751 0.0
C957 C 0.13781 0.66865 0.04146 0.0
C958 C 0.14563 0.68229 0.05313 0.0
N959 N 0.13456 0.6987 0.05215 0.0
N960 N 0.12196 0.67648 0.03317 0.0
C961 C 0.12024 0.69483 0.03998 0.0
H962 H 0.14368 0.65416 0.03864 0.0
Co963 Co 0.10996 0.66373 0.01426 0.0
C964 C 0.07105 0.68191 0.0082 0.0
O965 O 0.0645 0.66386 0.00601 0.0
N966 N 0.09871 0.65021 0.99435 0.0
C967 C 0.08668 0.62824 0.97487 0.0
C968 C 0.09214 0.63149 0.9925 0.0
C969 C 0.09704 0.65791 0.97755 0.0
N970 N 0.08989 0.64486 0.96545 0.0
O971 O 0.12735 0.67767 -0.0016 0.0
H972 H 0.09159 0.62046 0.00293 0.0
H973 H 0.10122 0.67284 0.97419 0.0
O974 O 0.08939 0.68467 0.01184 0.0
C975 C 0.1421 0.66742 0.99339 0.0
O976 O 0.1419 0.64838 0.99658 0.0
N977 N 0.09491 0.64956 0.0312 0.0
C978 C 0.07881 0.62794 0.05968 0.0
C979 C 0.07316 0.64753 0.0567 0.0
C980 C 0.08176 0.65823 0.04272 0.0
C981 C 0.1015 0.63096 0.03465 0.0
C982 C 0.09324 0.61964 0.04848 0.0
H983 H 0.07842 0.67372 0.04183 0.0
H984 H 0.11354 0.62498 0.02677 0.0
H985 H 0.10936 0.70545 0.03555 0.0
H986 H 0.15856 0.68041 0.06154 0.0
H987 H 0.08162 0.6144 0.96928 0.0
H988 H 0.06242 0.65469 0.06532 0.0
H989 H 0.0986 0.60482 0.0508 0.0
C990 C 0.08729 0.39071 0.79805 0.0
C991 C 0.07582 0.40085 0.81026 0.0
N992 N 0.05671 0.39689 0.8067 0.0
N993 N 0.07545 0.38033 0.78697 0.0
C994 C 0.05697 0.38452 0.7924 0.0
H995 H 0.10322 0.39068 0.79738 0.0
Co996 Co 0.08347 0.36454 0.76806 0.0
C997 C 0.04776 0.34297 0.75734 0.0
O998 O 0.04913 0.35058 0.74106 0.0
N999 N 0.09168 0.34849 0.7488 0.0
C1000 C 0.09755 0.32187 0.73211 0.0
C1001 C 0.09267 0.3286 0.74902 0.0
C1002 C 0.0961 0.35345 0.73159 0.0
N1003 N 0.09959 0.33753 0.72111 0.0
O1004 O 0.07109 0.38278 0.75204 0.0
H1005 H 0.08934 0.31947 0.76059 0.0
H1006 H 0.09575 0.36836 0.72655 0.0
O1007 O 0.05968 0.34858 0.76966 0.0
C1008 C 0.08233 0.3972 0.7482 0.0
O1009 O 0.10101 0.39616 0.75285 0.0
N1010 N 0.09619 0.34796 0.78449 0.0
C1011 C 0.11608 0.32369 0.80858 0.0
C1012 C 0.09568 0.32642 0.81007 0.0
C1013 C 0.08604 0.33885 0.79805 0.0
C1014 C 0.11617 0.34618 0.78327 0.0
C1015 C 0.12649 0.33401 0.79523 0.0
H1016 H 0.07046 0.34135 0.79985 0.0
H1017 H 0.12407 0.35408 0.77283 0.0
H1018 H 0.04395 0.37867 0.78588 0.0
H1019 H 0.0812 0.40992 0.82123 0.0
H1020 H 0.09903 0.30659 0.72818 0.0
H1021 H 0.08728 0.31918 0.8206 0.0
H1022 H 0.14231 0.33238 0.79386 0.0
C1023 C 0.37018 0.35247 0.55449 0.0
C1024 C 0.36419 0.34036 0.56824 0.0
N1025 N 0.36883 0.32168 0.56379 0.0
N1026 N 0.37877 0.34157 0.54149 0.0
C1027 C 0.37762 0.3228 0.5474 0.0
H1028 H 0.36782 0.3682 0.55369 0.0
Co1029 Co 0.38624 0.35219 0.51971 0.0
C1030 C 0.42356 0.33321 0.50898 0.0
O1031 O 0.42907 0.35084 0.50366 0.0
N1032 N 0.39261 0.36356 0.49714 0.0
C1033 C 0.39668 0.38416 0.47403 0.0
C1034 C 0.39442 0.38272 0.49238 0.0
C1035 C 0.39351 0.35373 0.48122 0.0
N1036 N 0.39604 0.36592 0.46701 0.0
O1037 O 0.3659 0.337 0.5083 0.0
H1038 H 0.39341 0.39522 0.50123 0.0
H1039 H 0.39166 0.33795 0.48005 0.0
O1040 O 0.40617 0.33081 0.51558 0.0
C1041 C 0.35039 0.34701 0.50514 0.0
O1042 O 0.35083 0.3661 0.50806 0.0
N1043 N 0.40498 0.36779 0.53228 0.0
C1044 C 0.42969 0.39146 0.55332 0.0
C1045 C 0.43283 0.3711 0.55207 0.0
C1046 C 0.42001 0.35951 0.54197 0.0
C1047 C 0.40052 0.38719 0.5349 0.0
C1048 C 0.41298 0.39945 0.54492 0.0
H1049 H 0.42181 0.34375 0.54267 0.0
H1050 H 0.38681 0.39306 0.52978 0.0
H1051 H 0.38274 0.31026 0.53969 0.0
H1052 H 0.35632 0.34491 0.58026 0.0
H1053 H 0.3984 0.39766 0.46641 0.0
H1054 H 0.44464 0.364 0.55947 0.0
H1055 H 0.40938 0.41492 0.54628 0.0
H1056 H 0.08323 0.16902 0.04485 0.0
H1057 H 0.08173 0.17667 0.07727 0.0
H1058 H 0.09951 0.11724 0.08978 0.0
H1059 H 0.1013 0.1096 0.05757 0.0
H1060 H 0.05804 0.15595 0.10413 0.0
H1061 H 0.13832 0.15324 0.11862 0.0
H1062 H 0.12856 0.15654 0.09608 0.0
H1063 H 0.12909 0.13247 0.10615 0.0
C1064 C 0.08696 0.15767 0.05454 0.0
C1065 C 0.09236 0.13871 0.0487 0.0
C1066 C 0.08604 0.16203 0.07299 0.0
C1067 C 0.09078 0.14757 0.08581 0.0
C1068 C 0.09608 0.12865 0.08003 0.0
H1069 H 0.06385 0.12775 0.19651 0.0
H1070 H 0.06746 0.12796 0.16364 0.0
C1071 C 0.09687 0.12425 0.06164 0.0
C1072 C 0.08949 0.15185 0.10532 0.0
H1073 H 0.1167 0.15203 0.14412 0.0
C1074 C 0.07087 0.15537 0.11288 0.0
C1075 C 0.10632 0.15125 0.11658 0.0
C1076 C 0.12675 0.14835 0.10897 0.0
C1077 C 0.0685 0.15738 0.13161 0.0
C1078 C 0.08519 0.15569 0.14295 0.0
C1079 C 0.10394 0.15312 0.13533 0.0
C1080 C 0.08331 0.1556 0.16282 0.0
C1081 C 0.04817 0.16101 0.13918 0.0
C1082 C 0.09146 0.17086 0.17317 0.0
C1083 C 0.08949 0.17073 0.19197 0.0
C1084 C 0.07955 0.15522 0.20068 0.0
C1085 C 0.07176 0.13978 0.19023 0.0
C1086 C 0.07361 0.13999 0.17145 0.0
H1087 H 0.03788 0.16663 0.12869 0.0
H1088 H 0.04212 0.14696 0.14449 0.0
H1089 H 0.04873 0.17173 0.15051 0.0
H1090 H 0.09914 0.18293 0.16668 0.0
H1091 H 0.09582 0.1827 0.1997 0.0
H1092 H 0.12312 0.86197 0.44135 0.0
H1093 H 0.12844 0.86299 0.40868 0.0
H1094 H 0.06974 0.84059 0.39992 0.0
H1095 H 0.0644 0.83901 0.43248 0.0
H1096 H 0.12486 0.82954 0.38382 0.0
H1097 H 0.074 0.89132 0.36797 0.0
H1098 H 0.08357 0.88698 0.39042 0.0
H1099 H 0.06363 0.87225 0.3819 0.0
C1100 C 0.11135 0.85717 0.43252 0.0
C1101 C 0.09331 0.8504 0.43962 0.0
C1102 C 0.1144 0.85786 0.41386 0.0
C1103 C 0.09941 0.85204 0.40198 0.0
C1104 C 0.08137 0.84544 0.40893 0.0
H1105 H 0.09474 0.81554 0.2916 0.0
H1106 H 0.09747 0.81753 0.32447 0.0
C1107 C 0.07832 0.84463 0.42757 0.0
C1108 C 0.10274 0.85224 0.38226 0.0
H1109 H 0.08568 0.87243 0.34308 0.0
C1110 C 0.11647 0.83904 0.37488 0.0
C1111 C 0.09189 0.8648 0.37075 0.0
C1112 C 0.07755 0.87978 0.37812 0.0
C1113 C 0.11909 0.83756 0.35611 0.0
C1114 C 0.10758 0.8495 0.34456 0.0
C1115 C 0.0944 0.86321 0.35201 0.0
C1116 C 0.10828 0.84751 0.32468 0.0
C1117 C 0.13406 0.8232 0.34878 0.0
C1118 C 0.11356 0.86368 0.31395 0.0
C1119 C 0.11205 0.86258 0.29516 0.0
C1120 C 0.10503 0.84534 0.28678 0.0
C1121 C 0.10042 0.82893 0.29758 0.0
C1122 C 0.10197 0.83004 0.31638 0.0
H1123 H 0.14516 0.8191 0.35917 0.0
H1124 H 0.12639 0.80956 0.34443 0.0
H1125 H 0.14183 0.82943 0.33687 0.0
H1126 H 0.11845 0.87729 0.32014 0.0
H1127 H 0.11605 0.87535 0.28723 0.0
H1128 H 0.42704 0.87574 0.69602 0.0
H1129 H 0.43274 0.87555 0.6633 0.0
H1130 H 0.39142 0.82773 0.65739 0.0
H1131 H 0.38585 0.82761 0.69004 0.0
H1132 H 0.44313 0.84221 0.6371 0.0
H1133 H 0.36942 0.87683 0.62794 0.0
H1134 H 0.38232 0.87707 0.6493 0.0
H1135 H 0.37006 0.85509 0.64183 0.0
C1136 C 0.4195 0.8649 0.68781 0.0
C1137 C 0.40577 0.85187 0.69557 0.0
C1138 C 0.42276 0.86484 0.66915 0.0
C1139 C 0.41233 0.85176 0.65803 0.0
C1140 C 0.39944 0.83805 0.66581 0.0
H1141 H 0.41491 0.82599 0.54375 0.0
H1142 H 0.4193 0.82492 0.57655 0.0
C1143 C 0.39618 0.8381 0.68442 0.0
C1144 C 0.41351 0.85352 0.6382 0.0
H1145 H 0.38626 0.86698 0.60152 0.0
C1146 C 0.43078 0.84769 0.62925 0.0
C1147 C 0.39741 0.8609 0.62815 0.0
C1148 C 0.37877 0.868 0.63724 0.0
C1149 C 0.43219 0.84866 0.61032 0.0
C1150 C 0.41584 0.85552 0.60025 0.0
C1151 C 0.39874 0.86168 0.6093 0.0
C1152 C 0.41584 0.85634 0.58029 0.0
C1153 C 0.45114 0.84254 0.60125 0.0
C1154 C 0.41245 0.87434 0.57155 0.0
C1155 C 0.40962 0.87497 0.55289 0.0
C1156 C 0.41004 0.85756 0.54258 0.0
C1157 C 0.41422 0.83962 0.55131 0.0
C1158 C 0.41701 0.83901 0.57002 0.0
H1159 H 0.46371 0.84244 0.61089 0.0
H1160 H 0.44942 0.82743 0.59576 0.0
H1161 H 0.45474 0.85254 0.58984 0.0
H1162 H 0.41135 0.88786 0.57928 0.0
H1163 H 0.40624 0.88901 0.54674 0.0
H1164 H 0.4349 0.17584 0.80562 0.0
H1165 H 0.42722 0.17071 0.83748 0.0
H1166 H 0.37647 0.13596 0.82257 0.0
H1167 H 0.38446 0.14072 0.7905 0.0
H1168 H 0.39578 0.18042 0.8574 0.0
H1169 H 0.40469 0.09908 0.85644 0.0
H1170 H 0.41199 0.11444 0.83773 0.0
H1171 H 0.38645 0.10826 0.84102 0.0
C1172 C 0.42203 0.16722 0.80912 0.0
C1173 C 0.41029 0.15863 0.79561 0.0
C1174 C 0.41768 0.16426 0.82733 0.0
C1175 C 0.40143 0.15274 0.83242 0.0
C1176 C 0.38935 0.14451 0.81896 0.0
H1177 H 0.36582 0.15097 0.94692 0.0
H1178 H 0.36568 0.15648 0.91415 0.0
C1179 C 0.39388 0.14727 0.80068 0.0
C1180 C 0.39748 0.14933 0.85187 0.0
H1181 H 0.39491 0.11341 0.88404 0.0
C1182 C 0.39549 0.16577 0.86325 0.0
C1183 C 0.3973 0.1302 0.85944 0.0
C1184 C 0.4004 0.11198 0.84808 0.0
C1185 C 0.39385 0.16366 0.88205 0.0
C1186 C 0.39357 0.14452 0.88961 0.0
C1187 C 0.39503 0.12806 0.87818 0.0
C1188 C 0.39322 0.14118 0.9094 0.0
C1189 C 0.39333 0.18195 0.89365 0.0
C1190 C 0.40844 0.13032 0.91753 0.0
C1191 C 0.40835 0.12691 0.93611 0.0
C1192 C 0.39312 0.13441 0.94696 0.0
C1193 C 0.37788 0.1453 0.93886 0.0
C1194 C 0.37782 0.14849 0.92018 0.0
H1195 H 0.39874 0.1951 0.8862 0.0
H1196 H 0.37791 0.18488 0.89786 0.0
H1197 H 0.40244 0.18006 0.906 0.0
H1198 H 0.42049 0.12457 0.90948 0.0
H1199 H 0.42035 0.11863 0.94205 0.0
H1200 H 0.90685 0.83094 0.95373 0.0
H1201 H 0.91019 0.82471 0.92122 0.0
H1202 H 0.88981 0.88359 0.90991 0.0
H1203 H 0.88606 0.88978 0.94225 0.0
H1204 H 0.8712 0.85249 0.88928 0.0
H1205 H 0.95324 0.84957 0.88778 0.0
H1206 H 0.94118 0.83418 0.90421 0.0
H1207 H 0.93972 0.86048 0.90629 0.0
C1208 C 0.90299 0.8425 0.9443 0.0
C1209 C 0.89628 0.86088 0.95054 0.0
C1210 C 0.90505 0.83897 0.92578 0.0
C1211 C 0.90042 0.85377 0.91326 0.0
C1212 C 0.89355 0.87204 0.91942 0.0
H1213 H 0.92688 0.86947 0.80076 0.0
H1214 H 0.92284 0.87192 0.83353 0.0
C1215 C 0.89157 0.8756 0.93789 0.0
C1216 C 0.9025 0.85028 0.89366 0.0
H1217 H 0.93659 0.84367 0.86029 0.0
C1218 C 0.88546 0.85045 0.88291 0.0
C1219 C 0.92117 0.84781 0.88549 0.0
C1220 C 0.93994 0.84812 0.89645 0.0
C1221 C 0.88661 0.84828 0.86409 0.0
C1222 C 0.90528 0.84576 0.85593 0.0
C1223 C 0.92231 0.84551 0.86668 0.0
C1224 C 0.90749 0.84414 0.83614 0.0
C1225 C 0.86795 0.84922 0.85301 0.0
C1226 C 0.90026 0.82765 0.82686 0.0
C1227 C 0.90248 0.82624 0.80814 0.0
C1228 C 0.91196 0.84131 0.79841 0.0
C1229 C 0.91923 0.85778 0.80782 0.0
C1230 C 0.91708 0.85913 0.82653 0.0
H1231 H 0.85526 0.85486 0.86099 0.0
H1232 H 0.87005 0.85882 0.84101 0.0
H1233 H 0.86421 0.83423 0.84812 0.0
H1234 H 0.89298 0.81586 0.83412 0.0
H1235 H 0.89662 0.81345 0.80125 0.0
H1236 H 0.90144 0.18906 0.70068 0.0
H1237 H 0.89314 0.19088 0.66861 0.0
H1238 H 0.90513 0.12888 0.66286 0.0
H1239 H 0.91414 0.12692 0.69471 0.0
H1240 H 0.92154 0.17785 0.63971 0.0
H1241 H 0.84913 0.13953 0.63869 0.0
H1242 H 0.85886 0.15135 0.6587 0.0
H1243 H 0.86825 0.12784 0.6517 0.0
C1244 C 0.9024 0.17578 0.69266 0.0
C1245 C 0.90864 0.15785 0.70036 0.0
C1246 C 0.89747 0.17686 0.67436 0.0
C1247 C 0.89838 0.15999 0.66352 0.0
C1248 C 0.90407 0.14199 0.67116 0.0
H1249 H 0.89193 0.11882 0.55668 0.0
H1250 H 0.89155 0.12526 0.58896 0.0
C1251 C 0.90918 0.14091 0.68941 0.0
C1252 C 0.89486 0.16135 0.64391 0.0
H1253 H 0.86508 0.14415 0.61034 0.0
C1254 C 0.90905 0.1708 0.63322 0.0
C1255 C 0.87855 0.15209 0.63567 0.0
C1256 C 0.8627 0.14223 0.64674 0.0
C1257 C 0.908 0.17022 0.61429 0.0
C1258 C 0.892 0.16036 0.60597 0.0
C1259 C 0.87731 0.15171 0.61676 0.0
C1260 C 0.89132 0.15699 0.58623 0.0
C1261 C 0.9246 0.17913 0.60343 0.0
C1262 C 0.89104 0.17272 0.57392 0.0
C1263 C 0.89168 0.16908 0.55531 0.0
C1264 C 0.89239 0.14963 0.54874 0.0
C1265 C 0.89192 0.13398 0.56118 0.0
C1266 C 0.89146 0.13762 0.57969 0.0
H1267 H 0.9377 0.18241 0.61194 0.0
H1268 H 0.92918 0.16911 0.59234 0.0
H1269 H 0.91952 0.19316 0.5973 0.0
H1270 H 0.89054 0.18779 0.5787 0.0
H1271 H 0.89203 0.18149 0.54615 0.0
H1272 H 0.61027 0.12762 0.29884 0.0
H1273 H 0.61052 0.12489 0.33182 0.0
H1274 H 0.58559 0.18309 0.33618 0.0
H1275 H 0.58487 0.18586 0.30332 0.0
H1276 H 0.61927 0.17491 0.35937 0.0
H1277 H 0.55977 0.11858 0.36371 0.0
H1278 H 0.57985 0.11335 0.34855 0.0
H1279 H 0.56358 0.13354 0.34382 0.0
C1280 C 0.60469 0.13979 0.30678 0.0
C1281 C 0.59745 0.15693 0.29837 0.0
C1282 C 0.6049 0.1382 0.32561 0.0
C1283 C 0.59788 0.15371 0.33634 0.0
C1284 C 0.59105 0.17097 0.32807 0.0
H1285 H 0.56234 0.16445 0.44703 0.0
H1286 H 0.56471 0.16223 0.41415 0.0
C1287 C 0.59077 0.17256 0.30927 0.0
C1288 C 0.59756 0.15205 0.35623 0.0
H1289 H 0.57452 0.12855 0.39113 0.0
C1290 C 0.6096 0.1647 0.36635 0.0
C1291 C 0.58476 0.13882 0.36518 0.0
C1292 C 0.57112 0.12536 0.35483 0.0
C1293 C 0.60912 0.16456 0.3853 0.0
C1294 C 0.59636 0.15129 0.39425 0.0
C1295 C 0.58437 0.13858 0.38414 0.0
C1296 C 0.5946 0.15115 0.41414 0.0
C1297 C 0.62183 0.17895 0.3956 0.0
C1298 C 0.61048 0.14518 0.42494 0.0
C1299 C 0.60914 0.14629 0.44375 0.0
C1300 C 0.59188 0.1534 0.45207 0.0
C1301 C 0.57577 0.15875 0.44113 0.0
C1302 C 0.57712 0.15758 0.42233 0.0
H1303 H 0.62806 0.19054 0.38667 0.0
H1304 H 0.61321 0.18614 0.40653 0.0
H1305 H 0.63426 0.17091 0.40198 0.0
H1306 H 0.62398 0.13987 0.41881 0.0
H1307 H 0.62166 0.14165 0.45175 0.0
H1308 H 0.57363 0.81583 0.05703 0.0
H1309 H 0.57847 0.82525 0.0886 0.0
H1310 H 0.61509 0.8739 0.07169 0.0
H1311 H 0.61082 0.86396 0.04008 0.0
H1312 H 0.63203 0.85531 0.0979 0.0
H1313 H 0.55481 0.86801 0.11816 0.0
H1314 H 0.55748 0.84376 0.10894 0.0
H1315 H 0.56192 0.86497 0.09482 0.0
C1316 C 0.58248 0.82867 0.06009 0.0
C1317 C 0.59183 0.8392 0.04621 0.0
C1318 C 0.58513 0.83415 0.0781 0.0
C1319 C 0.59676 0.85058 0.08252 0.0
C1320 C 0.60595 0.86125 0.0686 0.0
H1321 H 0.60105 0.88566 0.19668 0.0
H1322 H 0.59534 0.88636 0.16392 0.0
C1323 C 0.60358 0.85554 0.05059 0.0
C1324 C 0.6005 0.85563 0.1017 0.0
H1325 H 0.57773 0.86124 0.14249 0.0
C1326 C 0.62014 0.85694 0.10759 0.0
C1327 C 0.58503 0.85823 0.11431 0.0
C1328 C 0.56365 0.8589 0.10867 0.0
C1329 C 0.62472 0.85973 0.12588 0.0
C1330 C 0.60925 0.86048 0.1387 0.0
C1331 C 0.58961 0.86026 0.1327 0.0
C1332 C 0.61311 0.86054 0.1584 0.0
C1333 C 0.6461 0.86182 0.13121 0.0
C1334 C 0.62471 0.84566 0.16617 0.0
C1335 C 0.62817 0.84542 0.18475 0.0
C1336 C 0.61967 0.85977 0.19596 0.0
C1337 C 0.60768 0.87441 0.18827 0.0
C1338 C 0.60448 0.87484 0.16962 0.0
H1339 H 0.65498 0.86808 0.11996 0.0
H1340 H 0.64786 0.87142 0.14326 0.0
H1341 H 0.65222 0.84707 0.13438 0.0
H1342 H 0.63092 0.83405 0.1579 0.0
H1343 H 0.63714 0.83377 0.19042 0.0
H1344 H 0.626 0.67127 0.5519 0.0
H1345 H 0.63022 0.66749 0.58449 0.0
H1346 H 0.57064 0.64587 0.589 0.0
H1347 H 0.56637 0.64924 0.55635 0.0
H1348 H 0.58044 0.67867 0.61164 0.0
H1349 H 0.63473 0.61757 0.61716 0.0
H1350 H 0.64093 0.63688 0.60151 0.0
H1351 H 0.61989 0.62154 0.59719 0.0
C1352 C 0.61394 0.66526 0.55972 0.0
C1353 C 0.5958 0.66063 0.55151 0.0
C1354 C 0.61639 0.66312 0.57835 0.0
C1355 C 0.60079 0.65625 0.58905 0.0
C1356 C 0.58285 0.65115 0.58089 0.0
H1357 H 0.59246 0.63175 0.70327 0.0
H1358 H 0.59364 0.62946 0.67033 0.0
C1359 C 0.5804 0.65323 0.56227 0.0
C1360 C 0.60254 0.65611 0.60891 0.0
H1361 H 0.62719 0.635 0.64416 0.0
C1362 C 0.59061 0.66909 0.61878 0.0
C1363 C 0.6158 0.64353 0.61807 0.0
C1364 C 0.6285 0.62895 0.60801 0.0
C1365 C 0.59171 0.67 0.63765 0.0
C1366 C 0.60523 0.65771 0.6468 0.0
C1367 C 0.617 0.64451 0.63699 0.0
C1368 C 0.60683 0.65816 0.66665 0.0
C1369 C 0.57827 0.68394 0.6477 0.0
C1370 C 0.61439 0.67485 0.67537 0.0
C1371 C 0.61385 0.67619 0.69418 0.0
C1372 C 0.60572 0.66085 0.70456 0.0
C1373 C 0.59897 0.64376 0.69574 0.0
C1374 C 0.59956 0.64243 0.67692 0.0
H1375 H 0.56624 0.68965 0.63896 0.0
H1376 H 0.57161 0.67653 0.65961 0.0
H1377 H 0.58699 0.69667 0.65267 0.0
H1378 H 0.62026 0.68703 0.66759 0.0
H1379 H 0.61952 0.68936 0.70058 0.0
H1380 H 0.56367 0.34619 0.94195 0.0
H1381 H 0.56839 0.34954 0.90935 0.0
H1382 H 0.62874 0.33054 0.91483 0.0
H1383 H 0.6241 0.32667 0.94739 0.0
H1384 H 0.62088 0.36585 0.89139 0.0
H1385 H 0.57577 0.29952 0.87578 0.0
H1386 H 0.56473 0.31717 0.89085 0.0
H1387 H 0.58632 0.30391 0.89784 0.0
C1388 C 0.57792 0.34261 0.93626 0.0
C1389 C 0.59345 0.336 0.94731 0.0
C1390 C 0.58061 0.34464 0.91766 0.0
C1391 C 0.59885 0.34012 0.90979 0.0
C1392 C 0.61456 0.33411 0.92075 0.0
H1393 H 0.61788 0.31785 0.79571 0.0
H1394 H 0.61977 0.31702 0.8287 0.0
C1395 C 0.61189 0.33199 0.93936 0.0
C1396 C 0.60125 0.34097 0.89 0.0
H1397 H 0.586 0.319 0.851 0.0
C1398 C 0.61335 0.35559 0.88251 0.0
C1399 C 0.59157 0.32738 0.87859 0.0
C1400 C 0.57897 0.31098 0.8861 0.0
C1401 C 0.61563 0.35728 0.86371 0.0
C1402 C 0.60545 0.34405 0.85229 0.0
C1403 C 0.59373 0.32915 0.85984 0.0
C1404 C 0.60624 0.34559 0.8324 0.0
C1405 C 0.62895 0.37308 0.85622 0.0
C1406 C 0.59813 0.36199 0.82363 0.0
C1407 C 0.59688 0.36244 0.80479 0.0
C1408 C 0.60363 0.34643 0.79443 0.0
C1409 C 0.61229 0.33028 0.8033 0.0
C1410 C 0.6135 0.32983 0.82212 0.0
H1411 H 0.63931 0.37876 0.86662 0.0
H1412 H 0.6376 0.36744 0.84456 0.0
H1413 H 0.61981 0.38558 0.85139 0.0
H1414 H 0.59208 0.37412 0.83137 0.0
H1415 H 0.58986 0.37497 0.79845 0.0
H1416 H 0.89201 0.37217 0.19674 0.0
H1417 H 0.89189 0.37132 0.16371 0.0
H1418 H 0.91254 0.31129 0.16475 0.0
H1419 H 0.91313 0.31209 0.19777 0.0
H1420 H 0.92776 0.36198 0.14266 0.0
H1421 H 0.8644 0.31201 0.12866 0.0
H1422 H 0.86686 0.32525 0.14973 0.0
H1423 H 0.88211 0.30421 0.14532 0.0
C1424 C 0.89649 0.35876 0.18997 0.0
C1425 C 0.9027 0.34224 0.19992 0.0
C1426 C 0.8963 0.35828 0.17112 0.0
C1427 C 0.90212 0.34122 0.16189 0.0
C1428 C 0.90775 0.32449 0.1717 0.0
H1429 H 0.91032 0.3212 0.04525 0.0
H1430 H 0.91186 0.3166 0.0781 0.0
C1431 C 0.90801 0.32497 0.19057 0.0
C1432 C 0.90356 0.34148 0.14201 0.0
H1433 H 0.88228 0.32376 0.10353 0.0
C1434 C 0.91787 0.3536 0.13407 0.0
C1435 C 0.89078 0.3303 0.13097 0.0
C1436 C 0.87506 0.31725 0.139 0.0
C1437 C 0.91961 0.35506 0.11526 0.0
C1438 C 0.90635 0.34446 0.10417 0.0
C1439 C 0.89238 0.33189 0.11211 0.0
C1440 C 0.90598 0.34717 0.08436 0.0
C1441 C 0.93564 0.36791 0.10744 0.0
C1442 C 0.90197 0.36581 0.07709 0.0
C1443 C 0.90108 0.36846 0.05844 0.0
C1444 C 0.90399 0.35247 0.04666 0.0
C1445 C 0.9079 0.33376 0.05398 0.0
C1446 C 0.90885 0.33112 0.0727 0.0
H1447 H 0.94797 0.36996 0.11715 0.0
H1448 H 0.94162 0.36155 0.09474 0.0
H1449 H 0.92945 0.38266 0.10434 0.0
H1450 H 0.89919 0.37827 0.08588 0.0
H1451 H 0.89758 0.38295 0.05327 0.0
H1452 H 0.91466 0.68832 0.30582 0.0
H1453 H 0.91233 0.68669 0.33872 0.0
H1454 H 0.89093 0.62703 0.33515 0.0
H1455 H 0.89282 0.62861 0.30217 0.0
H1456 H 0.87864 0.67698 0.36167 0.0
H1457 H 0.9414 0.62454 0.36782 0.0
H1458 H 0.93698 0.6388 0.34761 0.0
H1459 H 0.922 0.61767 0.35248 0.0
C1460 C 0.90913 0.67495 0.31195 0.0
C1461 C 0.90408 0.65853 0.30131 0.0
C1462 C 0.90792 0.67403 0.33077 0.0
C1463 C 0.90174 0.65666 0.33929 0.0
C1464 C 0.89606 0.64045 0.32877 0.0
H1465 H 0.87587 0.64359 0.45418 0.0
H1466 H 0.8744 0.64211 0.42119 0.0
C1467 C 0.89721 0.64138 0.30994 0.0
C1468 C 0.90174 0.65541 0.35921 0.0
H1469 H 0.92524 0.63368 0.39481 0.0
C1470 C 0.88873 0.66746 0.36895 0.0
C1471 C 0.91509 0.64309 0.36856 0.0
C1472 C 0.9298 0.63036 0.35866 0.0
C1473 C 0.88873 0.66751 0.38791 0.0
C1474 C 0.902 0.6551 0.39726 0.0
C1475 C 0.915 0.64305 0.38752 0.0
C1476 C 0.90318 0.6551 0.41719 0.0
C1477 C 0.87491 0.68118 0.39782 0.0
C1478 C 0.92007 0.66243 0.42579 0.0
C1479 C 0.92093 0.66343 0.44462 0.0
C1480 C 0.90493 0.657 0.4552 0.0
C1481 C 0.88828 0.64906 0.44648 0.0
C1482 C 0.88741 0.64813 0.42763 0.0
H1483 H 0.86825 0.69233 0.38867 0.0
H1484 H 0.8628 0.67245 0.40396 0.0
H1485 H 0.88277 0.68893 0.4089 0.0
H1486 H 0.93239 0.66784 0.4179 0.0
H1487 H 0.93389 0.6698 0.45082 0.0
H1488 H 0.38327 0.38788 0.43895 0.0
H1489 H 0.38696 0.38052 0.40685 0.0
H1490 H 0.41476 0.32522 0.42005 0.0
H1491 H 0.41107 0.33255 0.45238 0.0
H1492 H 0.42297 0.37458 0.38962 0.0
H1493 H 0.37356 0.30972 0.38173 0.0
H1494 H 0.37233 0.32592 0.40107 0.0
H1495 H 0.39168 0.30797 0.3994 0.0
C1496 C 0.39015 0.37414 0.43504 0.0
C1497 C 0.39704 0.36085 0.44816 0.0
C1498 C 0.39214 0.36991 0.41671 0.0
C1499 C 0.401 0.35229 0.41111 0.0
C1500 C 0.40756 0.33875 0.42413 0.0
H1501 H 0.4338 0.31487 0.30246 0.0
H1502 H 0.42892 0.31659 0.33516 0.0
C1503 C 0.40548 0.34295 0.44255 0.0
C1504 C 0.40443 0.34891 0.39162 0.0
H1505 H 0.39193 0.31944 0.35602 0.0
C1506 C 0.4162 0.36252 0.38227 0.0
C1507 C 0.39565 0.33309 0.38216 0.0
C1508 C 0.38246 0.31838 0.39152 0.0
C1509 C 0.4193 0.36084 0.36362 0.0
C1510 C 0.41018 0.34529 0.35408 0.0
C1511 C 0.39879 0.33138 0.36345 0.0
C1512 C 0.41205 0.34359 0.33427 0.0
C1513 C 0.43234 0.37568 0.35426 0.0
C1514 C 0.4038 0.358 0.32301 0.0
C1515 C 0.40644 0.35702 0.30433 0.0
C1516 C 0.41737 0.34157 0.29657 0.0
C1517 C 0.42517 0.32687 0.30793 0.0
C1518 C 0.42247 0.32785 0.32663 0.0
H1519 H 0.44177 0.38385 0.36401 0.0
H1520 H 0.44198 0.36837 0.34415 0.0
H1521 H 0.42298 0.38653 0.34704 0.0
H1522 H 0.39544 0.3701 0.32871 0.0
H1523 H 0.39989 0.36835 0.29598 0.0
H1524 H 0.36805 0.64299 0.04007 0.0
H1525 H 0.36617 0.64399 0.07303 0.0
H1526 H 0.4284 0.65661 0.07579 0.0
H1527 H 0.43031 0.65673 0.04306 0.0
H1528 H 0.38462 0.6227 0.09944 0.0
H1529 H 0.4051 0.70134 0.10487 0.0
H1530 H 0.39847 0.69003 0.08364 0.0
H1531 H 0.42311 0.68754 0.09244 0.0
C1532 C 0.38132 0.64621 0.04762 0.0
C1533 C 0.39928 0.65007 0.03873 0.0
C1534 C 0.38022 0.64661 0.06649 0.0
C1535 C 0.39705 0.65083 0.0768 0.0
C1536 C 0.41512 0.65383 0.06805 0.0
H1537 H 0.42528 0.62934 0.18777 0.0
H1538 H 0.4181 0.6269 0.15546 0.0
C1539 C 0.41622 0.65362 0.04925 0.0
C1540 C 0.39588 0.65222 0.09673 0.0
H1541 H 0.40781 0.68224 0.13199 0.0
C1542 C 0.38944 0.63579 0.1066 0.0
C1543 C 0.40173 0.66947 0.10601 0.0
C1544 C 0.40728 0.68816 0.09618 0.0
C1545 C 0.38961 0.63583 0.12557 0.0
C1546 C 0.39688 0.65258 0.13482 0.0
C1547 C 0.40245 0.66931 0.12491 0.0
C1548 C 0.39967 0.65296 0.15468 0.0
C1549 C 0.38194 0.61797 0.13546 0.0
C1550 C 0.39204 0.66861 0.16494 0.0
C1551 C 0.3965 0.67023 0.1833 0.0
C1552 C 0.40853 0.65614 0.19175 0.0
C1553 C 0.41573 0.64021 0.18161 0.0
C1554 C 0.41153 0.63875 0.16318 0.0
H1555 H 0.3709 0.6099 0.1272 0.0
H1556 H 0.39437 0.60775 0.13816 0.0
H1557 H 0.37507 0.62207 0.14856 0.0
H1558 H 0.38293 0.67978 0.15865 0.0
H1559 H 0.39064 0.68254 0.19089 0.0
H1560 H 0.0647 0.62611 0.94286 0.0
H1561 H 0.06481 0.62736 0.90978 0.0
H1562 H 0.11192 0.67 0.91122 0.0
H1563 H 0.11195 0.66879 0.94421 0.0
H1564 H 0.0822 0.67819 0.88511 0.0
H1565 H 0.10995 0.60119 0.88113 0.0
H1566 H 0.08745 0.60445 0.89361 0.0
H1567 H 0.10995 0.6151 0.90191 0.0
C1568 C 0.07502 0.6358 0.93612 0.0
C1569 C 0.08844 0.6472 0.94615 0.0
C1570 C 0.07504 0.63652 0.91725 0.0
C1571 C 0.08858 0.64854 0.90811 0.0
C1572 C 0.10136 0.66062 0.91806 0.0
H1573 H 0.13896 0.6393 0.80267 0.0
H1574 H 0.13122 0.64089 0.83484 0.0
C1575 C 0.10131 0.65996 0.93693 0.0
C1576 C 0.09032 0.64772 0.8882 0.0
H1577 H 0.10405 0.61748 0.85357 0.0
C1578 C 0.08684 0.66491 0.87815 0.0
C1579 C 0.09661 0.6304 0.87927 0.0
C1580 C 0.10139 0.61176 0.88949 0.0
C1581 C 0.08966 0.66527 0.85935 0.0
C1582 C 0.09589 0.64792 0.85044 0.0
C1583 C 0.09914 0.6307 0.86047 0.0
C1584 C 0.10033 0.64756 0.83087 0.0
C1585 C 0.08661 0.68434 0.84926 0.0
C1586 C 0.08547 0.6507 0.818 0.0
C1587 C 0.08989 0.64993 0.79955 0.0
C1588 C 0.10922 0.64593 0.79369 0.0
C1589 C 0.124 0.64272 0.80669 0.0
C1590 C 0.11958 0.64348 0.82508 0.0
H1591 H 0.08574 0.69717 0.85854 0.0
H1592 H 0.09876 0.68686 0.83946 0.0
H1593 H 0.07259 0.68353 0.84155 0.0
H1594 H 0.07045 0.65359 0.82222 0.0
H1595 H 0.07821 0.65264 0.78989 0.0
H1596 H 0.09067 0.30787 0.69788 0.0
H1597 H 0.09365 0.30834 0.66503 0.0
H1598 H 0.11692 0.3674 0.66743 0.0
H1599 H 0.11477 0.36678 0.70036 0.0
H1600 H 0.07446 0.33367 0.64243 0.0
H1601 H 0.15524 0.34061 0.63319 0.0
H1602 H 0.14428 0.33345 0.65444 0.0
H1603 H 0.14528 0.359 0.64804 0.0
C1604 C 0.09689 0.32079 0.69151 0.0
C1605 C 0.10251 0.3373 0.70181 0.0
C1606 C 0.09844 0.32107 0.6727 0.0
C1607 C 0.10573 0.3378 0.66383 0.0
C1608 C 0.11162 0.35419 0.67404 0.0
H1609 H 0.11014 0.38467 0.557 0.0
H1610 H 0.11101 0.3777 0.58936 0.0
C1611 C 0.11013 0.3539 0.69286 0.0
C1612 C 0.1058 0.33868 0.64386 0.0
H1613 H 0.13518 0.34803 0.6074 0.0
C1614 C 0.08777 0.33654 0.63473 0.0
C1615 C 0.1232 0.3424 0.63389 0.0
C1616 C 0.14313 0.3438 0.64287 0.0
C1617 C 0.08655 0.33878 0.61592 0.0
C1618 C 0.10385 0.34309 0.60605 0.0
C1619 C 0.12195 0.34477 0.6151 0.0
C1620 C 0.10328 0.34697 0.58644 0.0
C1621 C 0.0667 0.33727 0.60681 0.0
C1622 C 0.09872 0.33192 0.57414 0.0
C1623 C 0.09812 0.33588 0.55561 0.0
C1624 C 0.10204 0.35495 0.54914 0.0
C1625 C 0.1067 0.36993 0.56156 0.0
C1626 C 0.10737 0.36594 0.58003 0.0
H1627 H 0.05438 0.33717 0.61671 0.0
H1628 H 0.06451 0.34975 0.5973 0.0
H1629 H 0.06603 0.32342 0.59887 0.0
H1630 H 0.09569 0.31713 0.57888 0.0
H1631 H 0.09439 0.32409 0.54637 0.0
H1632 H 0.03382 0.90852 0.2355 0.0
H1633 H 0.01741 0.94075 0.23665 0.0
H1634 H 0.06692 0.96451 0.26608 0.0
H1635 H 0.08308 0.9325 0.26524 0.0
H1636 H 0.03149 0.98114 0.27664 0.0
H1637 H 0.03981 0.98138 0.20159 0.0
H1638 H 0.02471 0.96253 0.21155 0.0
H1639 H 0.05085 0.96248 0.21538 0.0
C1640 C 0.04079 0.92044 0.24284 0.0
C1641 C 0.05981 0.91811 0.25015 0.0
C1642 C 0.03152 0.9389 0.24329 0.0
C1643 C 0.04117 0.95516 0.25105 0.0
C1644 C 0.05922 0.95223 0.25993 0.0
H1645 H 0.07868 0.06538 0.23272 0.0
H1646 H 0.06672 0.03162 0.23122 0.0
C1647 C 0.06846 0.93391 0.25945 0.0
C1648 C 0.03433 0.97569 0.24812 0.0
H1649 H 0.03497 0.01163 0.21581 0.0
C1650 C 0.03162 0.9878 0.26331 0.0
C1651 C 0.03458 0.98431 0.23068 0.0
C1652 C 0.03772 0.97212 0.21382 0.0
C1653 C 0.03099 0.00841 0.2617 0.0
C1654 C 0.03274 0.01709 0.24437 0.0
C1655 C 0.0336 0.0049 0.22906 0.0
C1656 C 0.03789 0.03823 0.24224 0.0
C1657 C 0.0303 0.02074 0.2787 0.0
C1658 C 0.02532 0.05339 0.24811 0.0
C1659 C 0.03219 0.07287 0.24898 0.0
C1660 C 0.05172 0.07734 0.244 0.0
C1661 C 0.06363 0.06237 0.23677 0.0
C1662 C 0.05677 0.04304 0.23587 0.0
H1663 H 0.03119 0.01164 0.29115 0.0
H1664 H 0.04264 0.03149 0.27884 0.0
H1665 H 0.01628 0.02915 0.27909 0.0
H1666 H 0.01057 0.05004 0.2528 0.0
H1667 H 0.02268 0.08411 0.25462 0.0
H1668 H 0.15824 0.79792 0.5056 0.0
H1669 H 0.19274 0.78714 0.50814 0.0
H1670 H 0.21171 0.84054 0.48178 0.0
H1671 H 0.17751 0.85123 0.47908 0.0
H1672 H 0.23327 0.80668 0.47136 0.0
H1673 H 0.22781 0.81499 0.54618 0.0
H1674 H 0.21095 0.79834 0.53527 0.0
H1675 H 0.20903 0.82431 0.53117 0.0
C1676 C 0.16975 0.80703 0.49985 0.0
C1677 C 0.16523 0.82546 0.4922 0.0
C1678 C 0.18945 0.80096 0.50149 0.0
C1679 C 0.20479 0.81322 0.49544 0.0
C1680 C 0.20012 0.83089 0.48661 0.0
H1681 H 0.31589 0.85416 0.51933 0.0
H1682 H 0.28165 0.84316 0.51955 0.0
C1683 C 0.18056 0.83699 0.48507 0.0
C1684 C 0.22578 0.80892 0.49952 0.0
H1685 H 0.25942 0.81155 0.53383 0.0
C1686 C 0.23902 0.80722 0.48503 0.0
C1687 C 0.23317 0.80983 0.5174 0.0
C1688 C 0.2196 0.81207 0.53346 0.0
C1689 C 0.2595 0.80762 0.48783 0.0
C1690 C 0.26692 0.80948 0.50565 0.0
C1691 C 0.25367 0.80999 0.52022 0.0
C1692 C 0.28799 0.8141 0.50904 0.0
C1693 C 0.273 0.80755 0.47158 0.0
C1694 C 0.30307 0.80102 0.50402 0.0
C1695 C 0.32275 0.80729 0.50388 0.0
C1696 C 0.32759 0.82676 0.50875 0.0
C1697 C 0.31264 0.83914 0.51536 0.0
C1698 C 0.29303 0.83286 0.51551 0.0
H1699 H 0.26474 0.80895 0.45866 0.0
H1700 H 0.2838 0.8198 0.47244 0.0
H1701 H 0.28136 0.79351 0.47121 0.0
H1702 H 0.29951 0.78635 0.49929 0.0
H1703 H 0.33392 0.79736 0.49874 0.0
H1704 H 0.46408 0.09067 0.73147 0.0
H1705 H 0.47374 0.05575 0.73257 0.0
H1706 H 0.42014 0.04215 0.76139 0.0
H1707 H 0.41059 0.07673 0.76047 0.0
H1708 H 0.45331 0.0207 0.77364 0.0
H1709 H 0.44408 0.01731 0.6988 0.0
H1710 H 0.46158 0.03462 0.70783 0.0
H1711 H 0.43572 0.03818 0.7118 0.0
C1712 C 0.4547 0.08028 0.73852 0.0
C1713 C 0.43653 0.08636 0.74581 0.0
C1714 C 0.46013 0.06033 0.73897 0.0
C1715 C 0.44748 0.04631 0.7468 0.0
C1716 C 0.4301 0.05268 0.75524 0.0
H1717 H 0.39926 0.93679 0.73363 0.0
H1718 H 0.41252 0.97007 0.73153 0.0
C1719 C 0.42464 0.07246 0.75468 0.0
C1720 C 0.45091 0.02481 0.74491 0.0
H1721 H 0.44561 0.98741 0.71438 0.0
C1722 C 0.45219 0.01335 0.76066 0.0
C1723 C 0.44928 0.01531 0.72793 0.0
C1724 C 0.44749 0.02688 0.71057 0.0
C1725 C 0.45053 0.99273 0.76003 0.0
C1726 C 0.44775 0.98332 0.74314 0.0
C1727 C 0.44783 0.99467 0.72728 0.0
C1728 C 0.44133 0.96244 0.74198 0.0
C1729 C 0.45019 0.98133 0.77754 0.0
C1730 C 0.45338 0.94689 0.74791 0.0
C1731 C 0.44579 0.92771 0.7491 0.0
C1732 C 0.42603 0.92387 0.74443 0.0
C1733 C 0.41448 0.93927 0.73745 0.0
C1734 C 0.42207 0.95832 0.7362 0.0
H1735 H 0.45011 0.99114 0.78957 0.0
H1736 H 0.43699 0.97166 0.77813 0.0
H1737 H 0.46345 0.97179 0.77833 0.0
H1738 H 0.46838 0.94971 0.75221 0.0
H1739 H 0.45504 0.91615 0.75457 0.0
H1740 H 0.31418 0.13081 0.98792 0.0
H1741 H 0.28026 0.14256 0.98611 0.0
H1742 H 0.29802 0.19851 0.0084 0.0
H1743 H 0.33227 0.18676 0.01022 0.0
H1744 H 0.26676 0.18031 0.02713 0.0
H1745 H 0.25106 0.18206 0.95387 0.0
H1746 H 0.26276 0.15948 0.96047 0.0
H1747 H 0.27587 0.1824 0.9628 0.0
C1748 C 0.31098 0.14579 0.99203 0.0
C1749 C 0.32589 0.15787 -0.00082 0.0
C1750 C 0.29158 0.15254 0.99089 0.0
C1751 C 0.28661 0.17149 0.99693 0.0
C1752 C 0.30157 0.1839 0.0035 0.0
H1753 H 0.15853 0.18912 0.98644 0.0
H1754 H 0.19314 0.19976 0.98793 0.0
C1755 C 0.32113 0.17721 0.00445 0.0
C1756 C 0.26549 0.17714 -0.00184 0.0
H1757 H 0.22292 0.17669 0.97355 0.0
C1758 C 0.25721 0.18004 0.01536 0.0
C1759 C 0.25303 0.17711 0.98283 0.0
C1760 C 0.26117 0.1753 0.96393 0.0
C1761 C 0.23668 0.18118 0.01775 0.0
C1762 C 0.22414 0.17917 0.00258 0.0
C1763 C 0.2325 0.17803 0.98524 0.0
C1764 C 0.20267 0.17528 0.00451 0.0
C1765 C 0.22858 0.18374 0.03659 0.0
C1766 C 0.19644 0.15828 0.01368 0.0
C1767 C 0.17682 0.15217 0.01277 0.0
C1768 C 0.16295 0.16296 0.00274 0.0
C1769 C 0.16884 0.18069 0.99452 0.0
C1770 C 0.18863 0.1867 0.99525 0.0
H1771 H 0.23913 0.1919 0.04532 0.0
H1772 H 0.21429 0.19173 0.03644 0.0
H1773 H 0.2262 0.16903 0.04275 0.0
H1774 H 0.20702 0.14899 0.02058 0.0
H1775 H 0.17271 0.13838 0.01912 0.0
H1776 H 0.97038 0.08319 0.75328 0.0
H1777 H 0.98187 0.04895 0.7517 0.0
H1778 H 0.92718 0.03211 0.72625 0.0
H1779 H 0.91569 0.06605 0.72781 0.0
H1780 H 0.96247 0.01939 0.7699 0.0
H1781 H 0.9669 1.00005 0.69761 0.0
H1782 H 0.96715 0.02528 0.70543 0.0
H1783 H 0.94414 0.01238 0.70251 0.0
C1784 C 0.96112 0.07229 0.74678 0.0
C1785 C 0.94209 0.07727 0.74072 0.0
C1786 C 0.96767 0.05273 0.74596 0.0
C1787 C 0.95547 0.03798 0.73872 0.0
C1788 C 0.93704 0.04325 0.73156 0.0
H1789 H 0.91502 0.92833 0.76495 0.0
H1790 H 0.92781 0.96187 0.76489 0.0
C1791 C 0.93043 0.06268 0.73255 0.0
C1792 C 0.96033 0.01679 0.74092 0.0
H1793 H 0.95839 0.97315 0.71812 0.0
C1794 C 0.96216 0.00929 0.75853 0.0
C1795 C 0.96026 0.00359 0.72613 0.0
C1796 C 0.95972 0.01078 0.70685 0.0
C1797 C 0.96203 0.98892 0.76182 0.0
C1798 C 0.95977 0.97577 0.74714 0.0
C1799 C 0.95986 0.98322 0.72943 0.0
C1800 C 0.95429 0.95481 0.74987 0.0
C1801 C 0.96341 0.98171 0.78106 0.0
C1802 C 0.96503 0.93954 0.74165 0.0
C1803 C 0.95774 0.92021 0.74175 0.0
C1804 C 0.93941 0.916 0.74978 0.0
C1805 C 0.92922 0.93113 0.75874 0.0
C1806 C 0.93658 0.95031 0.75879 0.0
H1807 H 0.97203 0.99212 0.78954 0.0
H1808 H 0.94836 0.98071 0.78688 0.0
H1809 H 0.97038 0.96693 0.78178 0.0
H1810 H 0.97862 0.94273 0.73453 0.0
H1811 H 0.96578 0.90889 0.73453 0.0
H1812 H 0.83676 0.20414 0.48383 0.0
H1813 H 0.80315 0.21764 0.48615 0.0
H1814 H 0.78326 0.16313 0.50988 0.0
H1815 H 0.81649 0.14973 0.50765 0.0
H1816 H 0.77069 0.20159 0.46857 0.0
H1817 H 0.75639 0.20371 0.54194 0.0
H1818 H 0.78104 0.20247 0.53272 0.0
H1819 H 0.76657 0.1804 0.5354 0.0
C1820 C 0.82531 0.19532 0.49005 0.0
C1821 C 0.82924 0.1759 0.49562 0.0
C1822 C 0.80611 0.20299 0.49127 0.0
C1823 C 0.7907 0.1915 0.4984 0.0
C1824 C 0.79492 0.17246 0.50469 0.0
H1825 H 0.67618 0.1619 0.47672 0.0
H1826 H 0.71045 0.17242 0.47473 0.0
C1827 C 0.81394 0.16476 0.50331 0.0
C1828 C 0.7698 0.19811 0.49752 0.0
H1829 H 0.72763 0.1987 0.52271 0.0
C1830 C 0.76134 0.2015 0.48047 0.0
C1831 C 0.75758 0.19839 0.51302 0.0
C1832 C 0.76592 0.19626 0.53181 0.0
C1833 C 0.74081 0.20332 0.47837 0.0
C1834 C 0.72842 0.20143 0.49368 0.0
C1835 C 0.73704 0.19991 0.51089 0.0
C1836 C 0.70682 0.19792 0.49199 0.0
C1837 C 0.73255 0.20649 0.45967 0.0
C1838 C 0.69311 0.20894 0.50209 0.0
C1839 C 0.67332 0.20295 0.50314 0.0
C1840 C 0.66709 0.18566 0.49436 0.0
C1841 C 0.68054 0.17539 0.48345 0.0
C1842 C 0.70017 0.18146 0.48225 0.0
H1843 H 0.74303 0.21496 0.45114 0.0
H1844 H 0.73021 0.19198 0.4531 0.0
H1845 H 0.71824 0.21444 0.46011 0.0
H1846 H 0.69793 0.22156 0.50987 0.0
H1847 H 0.66335 0.2109 0.51195 0.0
H1848 H 0.59963 0.07192 0.26621 0.0
H1849 H 0.58958 0.03747 0.26728 0.0
H1850 H 0.53692 0.05144 0.23718 0.0
H1851 H 0.54706 0.0862 0.23598 0.0
H1852 H 0.5553 0.01588 0.27834 0.0
H1853 H 0.56852 0.01361 0.20392 0.0
H1854 H 0.5764 0.03423 0.21749 0.0
H1855 H 0.55071 0.03084 0.21259 0.0
C1856 C 0.58564 0.06776 0.26024 0.0
C1857 C 0.5742 0.08167 0.25092 0.0
C1858 C 0.57989 0.04807 0.26088 0.0
C1859 C 0.56267 0.04184 0.25207 0.0
C1860 C 0.55037 0.05593 0.24391 0.0
H1861 H 0.55946 0.91119 0.25666 0.0
H1862 H 0.54435 0.94404 0.25408 0.0
C1863 C 0.55608 0.07579 0.24338 0.0
C1864 C 0.55936 0.02039 0.24981 0.0
H1865 H 0.56757 0.98356 0.21926 0.0
C1866 C 0.55733 0.00873 0.26536 0.0
C1867 C 0.56215 0.01117 0.23283 0.0
C1868 C 0.56466 0.02299 0.2157 0.0
C1869 C 0.55955 0.98817 0.2646 0.0
C1870 C 0.56378 0.9791 0.24782 0.0
C1871 C 0.56425 0.9906 0.23207 0.0
C1872 C 0.57158 0.95873 0.24694 0.0
C1873 C 0.55905 0.97648 0.28195 0.0
C1874 C 0.59165 0.95605 0.2431 0.0
C1875 C 0.60024 0.93748 0.24457 0.0
C1876 C 0.58891 0.92112 0.24978 0.0
C1877 C 0.56853 0.92354 0.25256 0.0
C1878 C 0.55992 0.94228 0.25122 0.0
H1879 H 0.557 0.986 0.29402 0.0
H1880 H 0.54672 0.96574 0.28144 0.0
H1881 H 0.57296 0.96804 0.28357 0.0
H1882 H 0.60091 0.96854 0.23975 0.0
H1883 H 0.61595 0.93606 0.24223 0.0
H1884 H 0.83514 0.80206 0.00838 0.0
H1885 H 0.80227 0.78723 0.00516 0.0
H1886 H 0.78117 0.84055 0.98006 0.0
H1887 H 0.81375 0.85533 0.98321 0.0
H1888 H 0.76939 0.80315 0.02212 0.0
H1889 H 0.75576 0.79815 0.94871 0.0
H1890 H 0.78029 0.80024 0.95808 0.0
H1891 H 0.76534 0.82187 0.95478 0.0
C1892 C 0.82364 0.81033 0.00162 0.0
C1893 C 0.82699 0.82985 0.99602 0.0
C1894 C 0.80485 0.80189 -0.00012 0.0
C1895 C 0.78929 0.81269 0.99219 0.0
C1896 C 0.793 0.83175 0.98568 0.0
H1897 H 0.67385 0.83975 0.01163 0.0
H1898 H 0.70872 0.83125 0.01321 0.0
C1899 C 0.81163 0.84024 0.98759 0.0
C1900 C 0.76863 0.80549 0.99307 0.0
H1901 H 0.7267 0.80266 0.96767 0.0
C1902 C 0.76015 0.80248 0.01017 0.0
C1903 C 0.75656 0.80431 0.97751 0.0
C1904 C 0.76502 0.80611 0.95873 0.0
C1905 C 0.73968 0.80015 0.0122 0.0
C1906 C 0.72741 0.80105 0.99677 0.0
C1907 C 0.73607 0.8022 0.97955 0.0
C1908 C 0.70577 0.80398 -0.00171 0.0
C1909 C 0.73129 0.79767 0.03094 0.0
C1910 C 0.69238 0.79134 0.98956 0.0
C1911 C 0.67226 0.79613 0.98879 0.0
C1912 C 0.6654 0.81385 0.99636 0.0
C1913 C 0.67871 0.82597 0.00573 0.0
C1914 C 0.69865 0.82107 0.00672 0.0
H1915 H 0.74211 0.79049 0.0401 0.0
H1916 H 0.7278 0.81238 0.03663 0.0
H1917 H 0.71755 0.78877 0.03072 0.0
H1918 H 0.69761 0.77818 0.98281 0.0
H1919 H 0.66237 0.78664 0.9813 0.0
H1920 H 0.58826 0.42543 0.77711 0.0
H1921 H 0.57969 0.46009 0.78168 0.0
H1922 H 0.5504 0.46077 0.72984 0.0
H1923 H 0.55777 0.42578 0.72599 0.0
H1924 H 0.5952 0.48627 0.76258 0.0
H1925 H 0.51506 0.4976 0.75536 0.0
H1926 H 0.52558 0.47347 0.7588 0.0
H1927 H 0.52444 0.48404 0.73645 0.0
C1928 C 0.57914 0.43281 0.76717 0.0
C1929 C 0.57339 0.423 0.75137 0.0
C1930 C 0.57436 0.45264 0.76968 0.0
C1931 C 0.56432 0.46321 0.75614 0.0
C1932 C 0.55762 0.453 0.74076 0.0
H1933 H 0.59873 0.58171 0.73235 0.0
H1934 H 0.58974 0.54685 0.73083 0.0
C1935 C 0.56189 0.43297 0.73852 0.0
C1936 C 0.56407 0.48517 0.75666 0.0
H1937 H 0.5357 0.52602 0.7489 0.0
C1938 C 0.58204 0.49485 0.75988 0.0
C1939 C 0.54697 0.4966 0.75323 0.0
C1940 C 0.52691 0.48736 0.75097 0.0
C1941 C 0.58355 0.5154 0.75935 0.0
C1942 C 0.56681 0.52675 0.75465 0.0
C1943 C 0.54863 0.51726 0.75205 0.0
C1944 C 0.56832 0.54845 0.75248 0.0
C1945 C 0.60315 0.52472 0.76396 0.0
C1946 C 0.55802 0.56123 0.76406 0.0
C1947 C 0.56274 0.58133 0.76454 0.0
C1948 C 0.57795 0.58875 0.75358 0.0
C1949 C 0.58698 0.57628 0.74095 0.0
C1950 C 0.58197 0.55636 0.74018 0.0
H1951 H 0.61238 0.51479 0.77239 0.0
H1952 H 0.61138 0.52777 0.7513 0.0
H1953 H 0.60113 0.53881 0.77135 0.0
H1954 H 0.54736 0.55545 0.77359 0.0
H1955 H 0.55572 0.59066 0.77454 0.0
H1956 H 0.82605 0.34183 0.02889 0.0
H1957 H 0.79148 0.33219 0.03211 0.0
H1958 H 0.79696 0.29449 0.98536 0.0
H1959 H 0.83185 0.30313 0.98296 0.0
H1960 H 0.76579 0.34218 0.00953 0.0
H1961 H 0.76063 0.2612 0.01364 0.0
H1962 H 0.78365 0.27408 0.01681 0.0
H1963 H 0.77491 0.26842 0.99438 0.0
C1964 C 0.82004 0.33081 0.01983 0.0
C1965 C 0.83161 0.32305 0.00583 0.0
C1966 C 0.80024 0.32539 0.02157 0.0
C1967 C 0.79143 0.31253 0.00902 0.0
C1968 C 0.80335 0.30397 0.99556 0.0
H1969 H 0.67085 0.3328 0.97745 0.0
H1970 H 0.70651 0.32729 0.97781 0.0
C1971 C 0.82334 0.30897 0.99416 0.0
C1972 C 0.7695 0.31065 0.00835 0.0
H1973 H 0.73127 0.27814 0.0034 0.0
C1974 C 0.75833 0.32809 0.00846 0.0
C1975 C 0.75952 0.29235 0.00704 0.0
C1976 C 0.77032 0.27297 0.00816 0.0
C1977 C 0.73774 0.32783 0.00701 0.0
C1978 C 0.72787 0.30965 0.00449 0.0
C1979 C 0.73886 0.29211 0.00488 0.0
C1980 C 0.70614 0.30889 0.00171 0.0
C1981 C 0.72678 0.34714 0.00848 0.0
C1982 C 0.69389 0.29893 0.01403 0.0
C1983 C 0.67337 0.30153 0.01342 0.0
C1984 C 0.66494 0.31427 0.0006 0.0
C1985 C 0.67705 0.32289 0.98743 0.0
C1986 C 0.69742 0.31992 0.98776 0.0
H1987 H 0.73558 0.35839 0.01584 0.0
H1988 H 0.72382 0.35293 0.99472 0.0
H1989 H 0.71249 0.34526 0.01561 0.0
H1990 H 0.70025 0.29024 0.02484 0.0
H1991 H 0.66433 0.29495 0.02389 0.0
H1992 H 0.96606 0.59006 0.24692 0.0
H1993 H 0.97906 0.55633 0.24571 0.0
H1994 H 0.92475 0.53457 0.26857 0.0
H1995 H 0.91188 0.56804 0.27005 0.0
H1996 H 0.95809 0.51384 0.28042 0.0
H1997 H 0.95606 0.52165 0.20537 0.0
H1998 H 0.97149 0.53831 0.21789 0.0
H1999 H 0.94518 0.5398 0.2201 0.0
C2000 C 0.95721 0.57814 0.25229 0.0
C2001 C 0.93788 0.58161 0.25844 0.0
C2002 C 0.96457 0.55886 0.2514 0.0
C2003 C 0.95269 0.54291 0.25668 0.0
C2004 C 0.93414 0.54663 0.26435 0.0
H2005 H 0.91121 0.43618 0.22705 0.0
H2006 H 0.92454 0.46947 0.22852 0.0
C2007 C 0.92679 0.56578 0.26518 0.0
C2008 C 0.95807 0.52224 0.25241 0.0
H2009 H 0.95819 0.48981 0.2171 0.0
C2010 C 0.9587 0.50854 0.2666 0.0
C2011 C 0.95875 0.51545 0.23431 0.0
C2012 C 0.95774 0.52947 0.21848 0.0
C2013 C 0.95841 0.48818 0.26322 0.0
C2014 C 0.95778 0.4814 0.24511 0.0
C2015 C 0.95876 0.49509 0.23093 0.0
C2016 C 0.95219 0.4608 0.2408 0.0
C2017 C 0.95704 0.47419 0.27905 0.0
C2018 C 0.96377 0.44472 0.24627 0.0
C2019 C 0.95613 0.42555 0.2454 0.0
C2020 C 0.93683 0.42231 0.23906 0.0
C2021 C 0.92608 0.43825 0.23207 0.0
C2022 C 0.9337 0.4573 0.23291 0.0
H2023 H 0.95526 0.48204 0.29213 0.0
H2024 H 0.94439 0.46397 0.2773 0.0
H2025 H 0.97069 0.46521 0.27981 0.0
H2026 H 0.97821 0.44708 0.25212 0.0
H2027 H 0.96475 0.41355 0.25095 0.0
H2028 H 0.65976 0.71669 0.48998 0.0
H2029 H 0.69376 0.72926 0.49123 0.0
H2030 H 0.71358 0.67308 0.5115 0.0
H2031 H 0.67991 0.66063 0.51051 0.0
H2032 H 0.73193 0.70542 0.52826 0.0
H2033 H 0.73401 0.71061 0.45306 0.0
H2034 H 0.71535 0.72432 0.4649 0.0
H2035 H 0.71441 0.69791 0.46472 0.0
C2036 C 0.67133 0.70723 0.49513 0.0
C2037 C 0.66722 0.68764 0.50007 0.0
C2038 C 0.69075 0.71436 0.49567 0.0
C2039 C 0.70624 0.70199 0.50119 0.0
C2040 C 0.70188 0.68287 0.50715 0.0
H2041 H 0.8173 0.66508 0.48064 0.0
H2042 H 0.78379 0.67787 0.47919 0.0
C2043 C 0.68262 0.67575 0.50655 0.0
C2044 C 0.72725 0.70792 0.49962 0.0
H2045 H 0.76414 0.71195 0.46838 0.0
C2046 C 0.73899 0.70742 0.51523 0.0
C2047 C 0.73637 0.71044 0.48256 0.0
C2048 C 0.72451 0.71078 0.46529 0.0
C2049 C 0.75967 0.70778 0.51417 0.0
C2050 C 0.76884 0.70903 0.497 0.0
C2051 C 0.75706 0.7111 0.4815 0.0
C2052 C 0.79006 0.7042 0.49466 0.0
C2053 C 0.77149 0.70509 0.53131 0.0
C2054 C 0.80505 0.71531 0.50296 0.0
C2055 C 0.82437 0.70797 0.50378 0.0
C2056 C 0.82886 0.68945 0.4963 0.0
C2057 C 0.81423 0.67934 0.4866 0.0
C2058 C 0.79505 0.68666 0.48574 0.0
H2059 H 0.76199 0.70188 0.54319 0.0
H2060 H 0.78222 0.69285 0.52972 0.0
H2061 H 0.77991 0.71874 0.53419 0.0
H2062 H 0.80158 0.72906 0.50966 0.0
H2063 H 0.83534 0.71602 0.51144 0.0
H2064 H 0.46762 0.58912 0.25438 0.0
H2065 H 0.47892 0.55473 0.25429 0.0
H2066 H 0.42572 0.53745 0.22654 0.0
H2067 H 0.41442 0.57154 0.22664 0.0
H2068 H 0.45745 0.52517 0.27194 0.0
H2069 H 0.46807 0.50556 0.20013 0.0
H2070 H 0.46807 0.53078 0.20799 0.0
H2071 H 0.44516 0.5182 0.20367 0.0
C2072 C 0.45869 0.57806 0.24771 0.0
C2073 C 0.44015 0.58297 0.24048 0.0
C2074 C 0.46511 0.55843 0.24777 0.0
C2075 C 0.45326 0.54356 0.24025 0.0
C2076 C 0.4353 0.5487 0.23209 0.0
H2077 H 0.41345 0.43213 0.26354 0.0
H2078 H 0.42467 0.46624 0.26426 0.0
C2079 C 0.4288 0.56819 0.23224 0.0
C2080 C 0.45802 0.52243 0.24291 0.0
H2081 H 0.45895 0.47872 0.2202 0.0
C2082 C 0.45833 0.51503 0.26063 0.0
C2083 C 0.45944 0.50921 0.2282 0.0
C2084 C 0.46038 0.51637 0.20893 0.0
C2085 C 0.45828 0.49467 0.26397 0.0
C2086 C 0.4577 0.48144 0.24921 0.0
C2087 C 0.45917 0.48885 0.23154 0.0
C2088 C 0.45282 0.4603 0.2516 0.0
C2089 C 0.45801 0.48751 0.28327 0.0
C2090 C 0.46503 0.44551 0.24444 0.0
C2091 C 0.45864 0.42588 0.24409 0.0
C2092 C 0.43979 0.42085 0.25057 0.0
C2093 C 0.42806 0.43555 0.2585 0.0
C2094 C 0.43451 0.45506 0.25901 0.0
H2095 H 0.46529 0.49826 0.29243 0.0
H2096 H 0.44249 0.48584 0.28777 0.0
H2097 H 0.46549 0.47303 0.2846 0.0
H2098 H 0.47913 0.44927 0.2385 0.0
H2099 H 0.46792 0.41491 0.23771 0.0
H2100 H 0.32931 0.70414 0.97762 0.0
H2101 H 0.29496 0.71564 0.97923 0.0
H2102 H 0.27876 0.66243 0.00739 0.0
H2103 H 0.31278 0.65097 0.00582 0.0
H2104 H 0.26429 0.69521 0.96282 0.0
H2105 H 0.24835 0.70414 0.03552 0.0
H2106 H 0.2732 0.70386 0.02668 0.0
H2107 H 0.26041 0.68112 0.03113 0.0
C2108 C 0.31852 0.69527 0.98473 0.0
C2109 C 0.32369 0.6767 0.99169 0.0
C2110 C 0.2989 0.70179 0.98552 0.0
C2111 C 0.28431 0.69 0.99361 0.0
C2112 C 0.28978 0.67198 0.00143 0.0
H2113 H 0.17161 0.65121 0.9737 0.0
H2114 H 0.20559 0.66271 0.97161 0.0
C2115 C 0.30924 0.66539 0.00046 0.0
C2116 C 0.26303 0.69492 0.99194 0.0
H2117 H 0.22041 0.69537 0.01647 0.0
C2118 C 0.25471 0.69579 0.97456 0.0
C2119 C 0.25051 0.69599 0.0072 0.0
C2120 C 0.25862 0.69644 0.02618 0.0
C2121 C 0.23417 0.69594 0.97208 0.0
C2122 C 0.22164 0.69495 0.98735 0.0
C2123 C 0.22997 0.69588 0.00472 0.0
C2124 C 0.20033 0.69015 0.98573 0.0
C2125 C 0.22607 0.69636 0.9531 0.0
C2126 C 0.18589 0.70186 0.99413 0.0
C2127 C 0.1663 0.69531 0.99524 0.0
C2128 C 0.16099 0.67677 0.98827 0.0
C2129 C 0.17525 0.6656 0.97907 0.0
C2130 C 0.19469 0.67222 0.97781 0.0
H2131 H 0.23631 0.70412 0.94378 0.0
H2132 H 0.22438 0.68104 0.94812 0.0
H2133 H 0.21145 0.70371 0.95258 0.0
H2134 H 0.18994 0.71564 0.0005 0.0
H2135 H 0.1557 0.70408 0.00267 0.0
H2136 H 0.04612 0.41294 0.75571 0.0
H2137 H 0.03671 0.44772 0.75252 0.0
H2138 H 0.09165 0.45948 0.7252 0.0
H2139 H 0.10111 0.425 0.72847 0.0
H2140 H 0.06 0.47699 0.7689 0.0
H2141 H 0.05201 0.49212 0.69588 0.0
H2142 H 0.04991 0.4676 0.70525 0.0
H2143 H 0.07379 0.47805 0.70065 0.0
C2144 C 0.0558 0.42282 0.7484 0.0
C2145 C 0.07432 0.41633 0.74227 0.0
C2146 C 0.05047 0.44268 0.74669 0.0
C2147 C 0.0634 0.45615 0.73848 0.0
C2148 C 0.08127 0.44931 0.73127 0.0
H2149 H 0.11151 0.56539 0.75503 0.0
H2150 H 0.09801 0.53213 0.75697 0.0
C2151 C 0.08671 0.42961 0.7332 0.0
C2152 C 0.06 0.47768 0.73977 0.0
H2153 H 0.0627 0.51965 0.71453 0.0
C2154 C 0.06001 0.48634 0.75701 0.0
C2155 C 0.05981 0.48989 0.72429 0.0
C2156 C 0.05867 0.48142 0.70547 0.0
C2157 C 0.06161 0.50683 0.75914 0.0
C2158 C 0.06337 0.51887 0.74365 0.0
C2159 C 0.06156 0.51037 0.72642 0.0
C2160 C 0.06992 0.53965 0.74491 0.0
C2161 C 0.06235 0.51533 0.77796 0.0
C2162 C 0.05852 0.555 0.73766 0.0
C2163 C 0.06618 0.57415 0.73668 0.0
C2164 C 0.08552 0.57807 0.74259 0.0
C2165 C 0.09657 0.56281 0.75042 0.0
C2166 C 0.08882 0.54381 0.75162 0.0
H2167 H 0.05466 0.50565 0.78781 0.0
H2168 H 0.07796 0.51666 0.78228 0.0
H2169 H 0.05555 0.53021 0.7784 0.0
H2170 H 0.04398 0.55204 0.73225 0.0
H2171 H 0.05742 0.58558 0.73037 0.0
H2172 H 0.3378 0.30973 0.51386 0.0
H2173 H 0.30387 0.2971 0.51158 0.0
H2174 H 0.28601 0.35085 0.4852 0.0
H2175 H 0.31958 0.36345 0.48747 0.0
H2176 H 0.27163 0.31598 0.52809 0.0
H2177 H 0.25853 0.30867 0.45473 0.0
H2178 H 0.28303 0.30941 0.46435 0.0
H2179 H 0.26968 0.33189 0.46017 0.0
C2180 C 0.32673 0.31855 0.50708 0.0
C2181 C 0.33132 0.33756 0.50079 0.0
C2182 C 0.30735 0.31137 0.50588 0.0
C2183 C 0.29243 0.32293 0.49803 0.0
C2184 C 0.29731 0.34149 0.49097 0.0
H2185 H 0.17805 0.357 0.51527 0.0
H2186 H 0.21236 0.34669 0.51783 0.0
C2187 C 0.3165 0.34873 0.49237 0.0
C2188 C 0.27135 0.31703 0.49898 0.0
H2189 H 0.22964 0.3155 0.47318 0.0
C2190 C 0.26249 0.31532 0.51607 0.0
C2191 C 0.25942 0.31586 0.48333 0.0
C2192 C 0.26819 0.31635 0.4646 0.0
C2193 C 0.24189 0.31427 0.51793 0.0
C2194 C 0.22986 0.31516 0.50232 0.0
C2195 C 0.23881 0.31504 0.48519 0.0
C2196 C 0.20835 0.31923 0.50342 0.0
C2197 C 0.23315 0.31307 0.53664 0.0
C2198 C 0.19451 0.30711 0.49466 0.0
C2199 C 0.1747 0.31296 0.4933 0.0
C2200 C 0.16861 0.33121 0.50035 0.0
C2201 C 0.18231 0.34282 0.5098 0.0
C2202 C 0.20193 0.33688 0.51135 0.0
H2203 H 0.2434 0.30558 0.54614 0.0
H2204 H 0.23057 0.32819 0.54181 0.0
H2205 H 0.21887 0.30506 0.53657 0.0
H2206 H 0.19918 0.29353 0.48828 0.0
H2207 H 0.16452 0.30388 0.48569 0.0
H2208 H 0.95606 0.32632 0.28712 0.0
H2209 H 0.96882 0.29302 0.29148 0.0
H2210 H 0.99219 0.29335 0.23728 0.0
H2211 H 0.97958 0.32671 0.23279 0.0
H2212 H 0.95726 0.26042 0.27033 0.0
H2213 H 0.03828 0.2717 0.26738 0.0
H2214 H 0.0212 0.29164 0.27139 0.0
H2215 H 0.02483 0.28236 0.24888 0.0
C2216 C 0.96425 0.31952 0.27622 0.0
C2217 C 0.96674 0.32925 0.25957 0.0
C2218 C 0.97147 0.30042 0.27873 0.0
C2219 C 0.98153 0.29072 0.26475 0.0
C2220 C 0.98473 0.30065 0.24837 0.0
H2221 H 0.02875 0.17282 0.24999 0.0
H2222 H 0.01682 0.20651 0.24585 0.0
C2223 C 0.97746 0.31974 0.24581 0.0
C2224 C 0.98736 0.26975 0.26682 0.0
H2225 H 0.02694 0.23865 0.26648 0.0
C2226 C 0.9725 0.25565 0.2696 0.0
C2227 C 0.00723 0.26355 0.26572 0.0
C2228 C 0.02386 0.27809 0.26333 0.0
C2229 C 0.97694 0.23549 0.27102 0.0
C2230 C 0.99683 0.22929 0.26999 0.0
C2231 C 0.01169 0.2434 0.26721 0.0
C2232 C 0.00264 0.20828 0.27201 0.0
C2233 C 0.96023 0.221 0.27316 0.0
C2234 C 0.99843 0.19794 0.28799 0.0
C2235 C 0.00521 0.17864 0.29039 0.0
C2236 C 0.01656 0.16938 0.27692 0.0
C2237 C 0.02024 0.17957 0.26071 0.0
C2238 C 0.01342 0.19884 0.25832 0.0
H2239 H 0.94599 0.22731 0.26851 0.0
H2240 H 0.96314 0.20725 0.26548 0.0
H2241 H 0.95865 0.21714 0.28766 0.0
H2242 H 0.99047 0.20501 0.29889 0.0
H2243 H 0.00224 0.17131 0.3031 0.0
H2244 H 0.06638 0.78185 0.47669 0.0
H2245 H 0.03402 0.76692 0.4816 0.0
H2246 H 0.03827 0.77977 0.53857 0.0
H2247 H 0.07042 0.79521 0.53368 0.0
H2248 H 0.02115 0.73665 0.50111 0.0
H2249 H 0.98602 0.80457 0.52714 0.0
H2250 H 0.01012 0.80464 0.51681 0.0
H2251 H 0.00721 0.79758 0.54013 0.0
C2252 C 0.06055 0.78133 0.49031 0.0
C2253 C 0.07095 0.78989 0.50477 0.0
C2254 C 0.04196 0.77287 0.49308 0.0
C2255 C 0.03339 0.77272 0.51037 0.0
C2256 C 0.04422 0.78031 0.525 0.0
H2257 H 0.93589 0.71504 0.56018 0.0
H2258 H 0.96387 0.73613 0.55238 0.0
C2259 C 0.06272 0.78895 0.52221 0.0
C2260 C 0.01324 0.76445 0.51311 0.0
H2261 H 0.96782 0.77463 0.53104 0.0
C2262 C 0.00944 0.74506 0.50745 0.0
C2263 C 0.99783 0.77545 0.52126 0.0
C2264 C 1.00041 0.79677 0.52651 0.0
C2265 C 0.99099 0.73616 0.51032 0.0
C2266 C 0.97586 0.74695 0.519 0.0
C2267 C 0.97946 0.76643 0.52436 0.0
C2268 C 0.95684 0.73752 0.52391 0.0
C2269 C 0.98795 0.71503 0.50463 0.0
C2270 C 0.94305 0.73215 0.5106 0.0
C2271 C 0.9268 0.72032 0.51509 0.0
C2272 C 0.92431 0.71355 0.53291 0.0
C2273 C 0.9374 0.72013 0.54636 0.0
C2274 C 0.95343 0.73212 0.54192 0.0
H2275 H 0.00186 0.708 0.50001 0.0
H2276 H 0.98182 0.70631 0.51602 0.0
H2277 H 0.97714 0.71448 0.49338 0.0
H2278 H 0.94541 0.73626 0.49662 0.0
H2279 H 0.91715 0.71521 0.5044 0.0
H2280 H 0.46446 0.83373 0.78338 0.0
H2281 H 0.48941 0.80768 0.78762 0.0
H2282 H 0.4678 0.77799 0.74004 0.0
H2283 H 0.44323 0.80369 0.73576 0.0
H2284 H 0.48065 0.767 0.79282 0.0
H2285 H 0.52739 0.77715 0.73232 0.0
H2286 H 0.51116 0.7962 0.74067 0.0
H2287 H 0.50165 0.77661 0.72676 0.0
C2288 C 0.46546 0.82191 0.77359 0.0
C2289 C 0.45196 0.82077 0.75919 0.0
C2290 C 0.47958 0.80697 0.77609 0.0
C2291 C 0.48062 0.79096 0.76403 0.0
C2292 C 0.46758 0.79032 0.74933 0.0
H2293 H 0.52492 0.67586 0.74628 0.0
H2294 H 0.50797 0.70753 0.74769 0.0
C2295 C 0.45346 0.80502 0.74695 0.0
C2296 C 0.49407 0.77399 0.76724 0.0
H2297 H 0.52769 0.74477 0.74569 0.0
C2298 C 0.49127 0.76233 0.78273 0.0
C2299 C 0.5079 0.76787 0.75405 0.0
C2300 C 0.51236 0.78023 0.73761 0.0
C2301 C 0.50103 0.74415 0.78482 0.0
C2302 C 0.51405 0.73758 0.77114 0.0
C2303 C 0.51755 0.7497 0.75609 0.0
C2304 C 0.52337 0.71773 0.77153 0.0
C2305 C 0.49659 0.73162 0.80115 0.0
C2306 C 0.53747 0.71274 0.78466 0.0
C2307 C 0.54722 0.69452 0.78392 0.0
C2308 C 0.54309 0.68099 0.76998 0.0
C2309 C 0.52849 0.68584 0.75722 0.0
C2310 C 0.51881 0.70401 0.75796 0.0
H2311 H 0.48373 0.73724 0.8089 0.0
H2312 H 0.4936 0.71617 0.79704 0.0
H2313 H 0.5096 0.73153 0.81024 0.0
H2314 H 0.54141 0.72317 0.79513 0.0
H2315 H 0.55847 0.69137 0.79389 0.0
H2316 H 0.41936 0.19866 0.03075 0.0
H2317 H 0.44655 0.22247 0.03406 0.0
H2318 H 0.47207 0.20151 0.98425 0.0
H2319 H 0.44514 0.17809 0.98082 0.0
H2320 H 0.48641 0.21237 0.03726 0.0
H2321 H 0.47608 0.26066 0.97791 0.0
H2322 H 0.45675 0.24482 0.98632 0.0
H2323 H 0.47568 0.23512 0.97175 0.0
C2324 C 0.43046 0.19961 0.02024 0.0
C2325 C 0.43005 0.18657 0.00547 0.0
C2326 C 0.44608 0.21308 0.02223 0.0
C2327 C 0.46131 0.21394 0.00931 0.0
C2328 C 0.46037 0.20146 0.99422 0.0
H2329 H 0.57785 0.25698 0.99023 0.0
H2330 H 0.54609 0.24005 0.99146 0.0
C2331 C 0.44496 0.18799 0.99231 0.0
C2332 C 0.47911 0.22648 0.01208 0.0
H2333 H 0.50886 0.25961 0.99045 0.0
C2334 C 0.49115 0.22299 0.02722 0.0
C2335 C 0.48537 0.24032 -0.00105 0.0
C2336 C 0.47268 0.24561 0.98292 0.0
C2337 C 0.5097 0.23214 0.02907 0.0
C2338 C 0.5163 0.24529 0.01551 0.0
C2339 C 0.50392 0.24936 0.00075 0.0
C2340 C 0.53626 0.25447 0.01592 0.0
C2341 C 0.52248 0.22701 0.04507 0.0
C2342 C 0.54151 0.26801 0.02945 0.0
C2343 C 0.55976 0.27773 0.02883 0.0
C2344 C 0.57312 0.27417 0.0146 0.0
C2345 C 0.56803 0.26009 0.00143 0.0
C2346 C 0.5498 0.25044 0.00205 0.0
H2347 H 0.51695 0.21384 0.05241 0.0
H2348 H 0.5379 0.22421 0.04071 0.0
H2349 H 0.52266 0.2396 0.05464 0.0
H2350 H 0.53124 0.27156 0.04018 0.0
H2351 H 0.56308 0.28851 0.03916 0.0
H2352 H 0.98145 0.67808 0.26689 0.0
H2353 H 0.99597 0.71058 0.26173 0.0
H2354 H 0.97447 0.70996 0.20689 0.0
H2355 H 0.95973 0.67759 0.21195 0.0
H2356 H 0.02365 0.72359 0.2371 0.0
H2357 H 0.95238 0.76186 0.22626 0.0
H2358 H 0.95393 0.73736 0.23564 0.0
H2359 H 0.95602 0.74106 0.21164 0.0
C2360 C 0.97995 0.68474 0.25366 0.0
C2361 C 0.96928 0.67521 0.23988 0.0
C2362 C 0.9882 0.70338 0.25077 0.0
C2363 C 0.98588 0.71294 0.23407 0.0
C2364 C 0.97598 0.70312 0.22004 0.0
H2365 H 0.04634 0.80901 0.185 0.0
H2366 H 0.02611 0.78031 0.19231 0.0
C2367 C 0.96773 0.68449 0.22291 0.0
C2368 C 0.99403 0.73306 0.23127 0.0
H2369 H 0.98152 0.78007 0.21907 0.0
C2370 C 0.0144 0.73596 0.23334 0.0
C2371 C 0.98193 0.74928 0.22651 0.0
C2372 C 0.95982 0.74734 0.22504 0.0
C2373 C 0.02305 0.75444 0.23018 0.0
C2374 C 0.01106 0.77042 0.2248 0.0
C2375 C 0.99065 0.76774 0.22317 0.0
C2376 C 0.01995 0.78956 0.21968 0.0
C2377 C 0.04507 0.75676 0.23219 0.0
C2378 C 0.02245 0.80467 0.23246 0.0
C2379 C 0.03394 0.82126 0.22827 0.0
C2380 C 0.04316 0.82278 0.21129 0.0
C2381 C 0.03942 0.80824 0.19819 0.0
C2382 C 0.0279 0.79181 0.20233 0.0
H2383 H 0.05211 0.74344 0.23806 0.0
H2384 H 0.05173 0.75963 0.21873 0.0
H2385 H 0.04844 0.76961 0.24095 0.0
H2386 H 0.01644 0.8031 0.24595 0.0
H2387 H 0.03678 0.83209 0.2387 0.0
H2388 H 0.5663 0.71093 0.46066 0.0
H2389 H 0.53375 0.72626 0.45917 0.0
H2390 H 0.54486 0.75592 0.50969 0.0
H2391 H 0.5775 0.74077 0.51126 0.0
H2392 H 0.50377 0.72093 0.48429 0.0
H2393 H 0.52273 0.80011 0.47814 0.0
H2394 H 0.5404 0.78074 0.47393 0.0
H2395 H 0.53463 0.78794 0.49672 0.0
C2396 C 0.56203 0.72099 0.47131 0.0
C2397 C 0.57461 0.72456 0.4861 0.0
C2398 C 0.54334 0.7297 0.47046 0.0
C2399 C 0.53686 0.74232 0.48427 0.0
C2400 C 0.54963 0.74648 0.49872 0.0
H2401 H 0.41611 0.772 0.51396 0.0
H2402 H 0.4491 0.75748 0.51176 0.0
C2403 C 0.56832 0.73776 0.4996 0.0
C2404 C 0.51632 0.75008 0.48415 0.0
H2405 H 0.48925 0.79252 0.48492 0.0
C2406 C 0.50059 0.73659 0.48433 0.0
C2407 C 0.51215 0.77049 0.48405 0.0
C2408 C 0.52834 0.78569 0.48303 0.0
C2409 C 0.48085 0.74296 0.48475 0.0
C2410 C 0.4767 0.76338 0.48524 0.0
C2411 C 0.49242 0.77686 0.48471 0.0
C2412 C 0.45618 0.77113 0.48613 0.0
C2413 C 0.46462 0.72777 0.48441 0.0
C2414 C 0.44915 0.78366 0.47249 0.0
C2415 C 0.43033 0.79199 0.47372 0.0
C2416 C 0.41814 0.78812 0.48871 0.0
C2417 C 0.42502 0.77519 0.50217 0.0
C2418 C 0.44389 0.76685 0.50092 0.0
H2419 H 0.46997 0.71334 0.47931 0.0
H2420 H 0.45899 0.72556 0.49835 0.0
H2421 H 0.45214 0.73272 0.47581 0.0
H2422 H 0.45833 0.78717 0.46094 0.0
H2423 H 0.42548 0.80173 0.46301 0.0
H2424 H 0.47408 0.18491 0.68039 0.0
H2425 H 0.49147 0.21623 0.68402 0.0
H2426 H 0.48867 0.21004 0.74193 0.0
H2427 H 0.47159 0.17852 0.7385 0.0
H2428 H 0.47154 0.24682 0.72511 0.0
H2429 H 0.54856 0.23027 0.70398 0.0
H2430 H 0.5289 0.22077 0.69013 0.0
H2431 H 0.53216 0.21151 0.71263 0.0
C2432 C 0.47756 0.18992 0.69392 0.0
C2433 C 0.47115 0.17926 0.70916 0.0
C2434 C 0.4875 0.20787 0.69595 0.0
C2435 C 0.49126 0.21548 0.71324 0.0
C2436 C 0.48584 0.20443 0.72847 0.0
H2437 H 0.52897 0.3278 0.75693 0.0
H2438 H 0.51367 0.29587 0.75134 0.0
C2439 C 0.47607 0.1864 0.72646 0.0
C2440 C 0.4993 0.23568 0.71543 0.0
H2441 H 0.54085 0.26348 0.71013 0.0
C2442 C 0.48671 0.2505 0.72189 0.0
C2443 C 0.51897 0.24044 0.71096 0.0
C2444 C 0.53306 0.22496 0.70412 0.0
C2445 C 0.49324 0.27002 0.72393 0.0
C2446 C 0.51311 0.27476 0.71989 0.0
C2447 C 0.52564 0.25991 0.71324 0.0
C2448 C 0.52137 0.29483 0.72295 0.0
C2449 C 0.47863 0.28543 0.72999 0.0
C2450 C 0.53104 0.30491 0.70893 0.0
C2451 C 0.54003 0.32316 0.71215 0.0
C2452 C 0.53957 0.33171 0.72948 0.0
C2453 C 0.52942 0.32182 0.74337 0.0
C2454 C 0.52058 0.30352 0.74017 0.0
H2455 H 0.46325 0.28103 0.72672 0.0
H2456 H 0.47964 0.28719 0.74487 0.0
H2457 H 0.48166 0.2999 0.72358 0.0
H2458 H 0.5319 0.29851 0.69554 0.0
H2459 H 0.54774 0.33033 0.70115 0.0
H2460 H 0.03232 0.16372 0.98795 0.0
H2461 H 0.00725 0.18914 0.98687 0.0
H2462 H 0.05233 0.23349 0.98093 0.0
H2463 H 0.07785 0.2077 0.98142 0.0
H2464 H 0.99994 0.21865 0.00883 0.0
H2465 H 0.01566 0.24891 0.94068 0.0
H2466 H 0.02666 0.22635 0.94871 0.0
H2467 H 0.0364 0.24979 0.95572 0.0
C2468 C 0.03707 0.17885 0.98634 0.0
C2469 C 0.05723 0.18361 0.98475 0.0
C2470 C 0.02259 0.19344 0.98574 0.0
C2471 C 0.02773 0.21329 0.9836 0.0
C2472 C 0.04787 0.21824 0.98217 0.0
H2473 H 0.9607 0.32087 0.988 0.0
H2474 H 0.98535 0.29495 0.98732 0.0
C2475 C 0.06249 0.20351 0.9826 0.0
C2476 C 0.0118 0.22853 0.98336 0.0
H2477 H 0.99188 0.26597 0.95833 0.0
C2478 C 0.99816 0.2289 -0.00229 0.0
C2479 C 0.00929 0.2419 0.96883 0.0
C2480 C 0.02265 0.24165 0.95252 0.0
C2481 C 0.98237 0.24235 -0.00195 0.0
C2482 C 0.98003 0.25581 0.98365 0.0
C2483 C 0.99363 0.25553 0.96931 0.0
C2484 C 0.96444 0.27126 0.98387 0.0
C2485 C 0.96853 0.24242 0.01401 0.0
C2486 C 0.94429 0.26661 0.98208 0.0
C2487 C 0.92991 0.28157 0.98236 0.0
C2488 C 0.93548 0.3014 0.98455 0.0
C2489 C 0.95571 0.30583 0.98635 0.0
C2490 C 0.96995 0.291 0.98591 0.0
H2491 H 0.97394 0.23296 0.02523 0.0
H2492 H 0.96653 0.25765 0.01917 0.0
H2493 H 0.95387 0.23689 0.00969 0.0
H2494 H 0.93971 0.25144 0.98035 0.0
H2495 H 0.91451 0.27764 0.98086 0.0
H2496 H 0.992 0.8289 0.754 0.0
H2497 H 0.00838 0.797 0.75152 0.0
H2498 H 0.97269 0.78273 0.7051 0.0
H2499 H 0.95627 0.81475 0.70737 0.0
H2500 H 0.98827 0.76032 0.75392 0.0
H2501 H 0.02907 0.76762 0.68896 0.0
H2502 H 0.01998 0.78872 0.70127 0.0
H2503 H 0.00325 0.77365 0.68854 0.0
C2504 C 0.98784 0.81917 0.74304 0.0
C2505 C 0.97278 0.82445 0.73089 0.0
C2506 C 0.99718 0.80088 0.74169 0.0
C2507 C 0.9918 0.78748 0.72811 0.0
C2508 C 0.97727 0.79293 0.71555 0.0
H2509 H 0.04602 0.67033 0.71143 0.0
H2510 H 0.02164 0.69714 0.70929 0.0
C2511 C 0.96788 0.81127 0.71688 0.0
C2512 C 1.00067 0.76746 0.72793 0.0
H2513 H 0.03179 0.73736 0.70431 0.0
C2514 C 0.99767 0.75525 0.743 0.0
C2515 C 0.01269 0.76072 0.71357 0.0
C2516 C 0.01662 0.77334 0.69718 0.0
C2517 C 0.00683 0.73676 0.74437 0.0
C2518 C 0.01963 0.73042 0.73043 0.0
C2519 C 0.02194 0.74222 0.71497 0.0
C2520 C 0.03257 0.71291 0.73267 0.0
C2521 C 0.00295 0.7243 0.76087 0.0
C2522 C 0.04657 0.71275 0.74661 0.0
C2523 C 0.0604 0.69761 0.74782 0.0
C2524 C 0.06058 0.68223 0.73511 0.0
C2525 C 0.04604 0.68186 0.72155 0.0
C2526 C 0.03224 0.69722 0.72024 0.0
H2527 H 0.98841 0.72784 0.767 0.0
H2528 H 0.00334 0.70835 0.75754 0.0
H2529 H 0.01447 0.72732 0.77115 0.0
H2530 H 0.04738 0.72483 0.75615 0.0
H2531 H 0.07146 0.69833 0.75837 0.0
H2532 H 0.91959 0.2162 0.47188 0.0
H2533 H 0.94602 0.24111 0.47141 0.0
H2534 H 0.98405 0.2015 0.50074 0.0
H2535 H 0.95796 0.17711 0.5017 0.0
H2536 H 0.98598 0.23742 0.51467 0.0
H2537 H 0.99544 0.24202 0.44025 0.0
H2538 H 0.97091 0.24725 0.44806 0.0
H2539 H 0.98098 0.22296 0.45092 0.0
C2540 C 0.93355 0.2129 0.4783 0.0
C2541 C 0.93658 0.19458 0.48677 0.0
C2542 C 0.94875 0.22706 0.47786 0.0
C2543 C 0.96725 0.22309 0.48577 0.0
C2544 C 0.97004 0.20496 0.49446 0.0
H2545 H 0.07958 0.28726 0.47225 0.0
H2546 H 0.05356 0.26186 0.47166 0.0
C2547 C 0.95499 0.19096 0.49496 0.0
C2548 C 0.98375 0.23772 0.48563 0.0
H2549 H 0.01448 0.26411 0.458 0.0
C2550 C 0.99217 0.24323 0.50225 0.0
C2551 C 0.99219 0.24506 0.46944 0.0
C2552 C 0.98458 0.23892 0.45113 0.0
C2553 C 0.00851 0.25592 0.50316 0.0
C2554 C 0.01654 0.26381 0.48703 0.0
C2555 C 0.00834 0.25813 0.47037 0.0
C2556 C 0.03264 0.27881 0.48738 0.0
C2557 C 0.01722 0.26054 0.52146 0.0
C2558 C 0.02957 0.29675 0.49632 0.0
C2559 C 0.04432 0.31107 0.49678 0.0
C2560 C 0.0626 0.30803 0.48816 0.0
C2561 C 0.06578 0.29002 0.47919 0.0
C2562 C 0.05087 0.27557 0.47873 0.0
H2563 H 0.01363 0.24892 0.53151 0.0
H2564 H 0.0335 0.26209 0.5207 0.0
H2565 H 0.01097 0.27462 0.52647 0.0
H2566 H 0.01558 0.29982 0.5028 0.0
H2567 H 0.04122 0.32473 0.50379 0.0
H2568 H 0.46786 0.32606 0.20382 0.0
H2569 H 0.48233 0.29326 0.20094 0.0
H2570 H 0.50936 0.29953 0.25336 0.0
H2571 H 0.49503 0.33241 0.25638 0.0
H2572 H 0.53385 0.28106 0.22731 0.0
H2573 H 0.45938 0.247 0.23047 0.0
H2574 H 0.46266 0.26507 0.21298 0.0
H2575 H 0.46376 0.27244 0.23628 0.0
C2576 C 0.47713 0.32065 0.21464 0.0
C2577 C 0.48004 0.33185 0.23045 0.0
C2578 C 0.48529 0.3018 0.213 0.0
C2579 C 0.49652 0.29376 0.22712 0.0
C2580 C 0.50059 0.30539 0.24236 0.0
H2581 H 0.52296 0.17379 0.25674 0.0
H2582 H 0.50936 0.20695 0.2534 0.0
C2583 C 0.49242 0.32424 0.24403 0.0
C2584 C 0.5032 0.27293 0.22648 0.0
H2585 H 0.48635 0.22545 0.22629 0.0
C2586 C 0.52349 0.26889 0.22697 0.0
C2587 C 0.48962 0.25707 0.22633 0.0
C2588 C 0.46763 0.26051 0.22664 0.0
C2589 C 0.53057 0.24943 0.22727 0.0
C2590 C 0.517 0.23357 0.22685 0.0
C2591 C 0.49671 0.23761 0.22641 0.0
C2592 C 0.52362 0.21273 0.22778 0.0
C2593 C 0.55252 0.24599 0.22857 0.0
C2594 C 0.53551 0.20465 0.21414 0.0
C2595 C 0.54327 0.18565 0.21597 0.0
C2596 C 0.53927 0.17433 0.2315 0.0
C2597 C 0.52641 0.18207 0.24463 0.0
C2598 C 0.51864 0.20106 0.24277 0.0
H2599 H 0.56055 0.25951 0.23276 0.0
H2600 H 0.55586 0.23407 0.23838 0.0
H2601 H 0.55821 0.24142 0.21515 0.0
H2602 H 0.5392 0.21324 0.20227 0.0
H2603 H 0.55298 0.18017 0.20551 0.0
H2604 H 0.57021 0.78036 0.99263 0.0
H2605 H 0.53754 0.76527 0.99508 0.0
H2606 H 0.54038 0.74812 0.93903 0.0
H2607 H 0.57292 0.76335 0.9364 0.0
H2608 H 0.50431 0.77673 0.97452 0.0
H2609 H 0.5216 0.6976 0.96422 0.0
H2610 H 0.5402 0.71552 0.97012 0.0
H2611 H 0.53142 0.71378 0.94725 0.0
C2612 C 0.56395 0.77328 0.98085 0.0
C2613 C 0.57412 0.77333 0.96426 0.0
C2614 C 0.54528 0.76461 0.98229 0.0
C2615 C 0.53649 0.75552 0.96726 0.0
C2616 C 0.54695 0.7548 0.95088 0.0
H2617 H 0.42209 0.70079 0.94784 0.0
H2618 H 0.45476 0.71566 0.94464 0.0
C2619 C 0.56561 0.76353 0.94941 0.0
C2620 C 0.51592 0.74798 0.96839 0.0
H2621 H 0.48778 0.70649 0.96409 0.0
C2622 C 0.5007 0.76135 0.97233 0.0
C2623 C 0.51119 0.72796 0.96538 0.0
C2624 C 0.52695 0.71281 0.96165 0.0
C2625 C 0.48087 0.75531 0.9731 0.0
C2626 C 0.47613 0.73524 0.97023 0.0
C2627 C 0.49137 0.72188 0.96623 0.0
C2628 C 0.45557 0.72765 0.97173 0.0
C2629 C 0.46516 0.77059 0.97657 0.0
C2630 C 0.44498 0.7296 0.98795 0.0
C2631 C 0.42621 0.72122 0.98979 0.0
C2632 C 0.41769 0.71048 0.97551 0.0
C2633 C 0.42813 0.70896 0.95912 0.0
C2634 C 0.44688 0.7174 0.95728 0.0
H2635 H 0.47036 0.78562 0.97303 0.0
H2636 H 0.45158 0.76738 0.96872 0.0
H2637 H 0.46135 0.77055 0.99116 0.0
H2638 H 0.45148 0.73706 -0.00056 0.0
H2639 H 0.41874 0.72254 0.00267 0.0
H2640 H 0.96949 0.17004 0.74786 0.0
H2641 H 0.98295 0.20319 0.74386 0.0
H2642 H 0.00486 0.20221 0.79859 0.0
H2643 H 0.99156 0.16905 0.80265 0.0
H2644 H 0.97237 0.23616 0.76287 0.0
H2645 H 0.05242 0.22231 0.77115 0.0
H2646 H 0.0349 0.20271 0.76739 0.0
H2647 H 0.0379 0.21311 0.78959 0.0
C2648 C 0.97736 0.1768 0.75899 0.0
C2649 C 0.97934 0.16693 0.77561 0.0
C2650 C 0.98506 0.19575 0.75668 0.0
C2651 C 0.99503 0.20518 0.77088 0.0
C2652 C 0.99756 0.19512 0.78731 0.0
H2653 H 0.04344 0.32177 0.78864 0.0
H2654 H 0.02919 0.28895 0.79199 0.0
C2655 C 0.98992 0.17613 0.78962 0.0
C2656 C 0.00172 0.22593 0.76887 0.0
H2657 H 0.04212 0.25583 0.77187 0.0
C2658 C 0.98765 0.24044 0.76471 0.0
C2659 C 0.02165 0.23154 0.77132 0.0
C2660 C 0.03763 0.21659 0.77494 0.0
C2661 C 0.99289 0.26042 0.76328 0.0
C2662 C 0.01277 0.26602 0.76589 0.0
C2663 C 0.02685 0.25152 0.76998 0.0
C2664 C 0.01942 0.28679 0.76423 0.0
C2665 C 0.97705 0.27543 0.75938 0.0
C2666 C 0.01832 0.29667 0.74759 0.0
C2667 C 0.0265 0.31548 0.74561 0.0
C2668 C 0.03604 0.32475 0.76022 0.0
C2669 C 0.03632 0.31512 0.77707 0.0
C2670 C 0.0282 0.2963 0.77902 0.0
H2671 H 0.96207 0.2695 0.76209 0.0
H2672 H 0.97925 0.28892 0.76763 0.0
H2673 H 0.97779 0.27969 0.74491 0.0
H2674 H 0.01186 0.28951 0.73592 0.0
H2675 H 0.02609 0.32237 0.73241 0.0
H2676 H 0.46214 0.33952 0.51578 0.0
H2677 H 0.4887 0.3157 0.51806 0.0
H2678 H 0.4475 0.26846 0.50831 0.0
H2679 H 0.42031 0.29257 0.50688 0.0
H2680 H 0.47263 0.25752 0.53295 0.0
H2681 H 0.51683 0.28966 0.47794 0.0
H2682 H 0.51224 0.30803 0.49478 0.0
H2683 H 0.49189 0.29746 0.48239 0.0
C2684 C 0.45865 0.32406 0.51399 0.0
C2685 C 0.43913 0.31796 0.51081 0.0
C2686 C 0.47397 0.31042 0.51516 0.0
C2687 C 0.47039 0.29026 0.51264 0.0
C2688 C 0.45076 0.28396 0.51 0.0
H2689 H 0.57152 0.21018 0.49915 0.0
H2690 H 0.54406 0.23298 0.49366 0.0
C2691 C 0.43522 0.29771 0.5092 0.0
C2692 C 0.48719 0.276 0.51343 0.0
H2693 H 0.53464 0.26908 0.49898 0.0
C2694 C 0.48608 0.25993 0.52534 0.0
C2695 C 0.5047 0.27869 0.5032 0.0
C2696 C 0.50638 0.29427 0.48872 0.0
C2697 C 0.50216 0.24709 0.52786 0.0
C2698 C 0.52026 0.25086 0.51883 0.0
C2699 C 0.52106 0.26639 0.50632 0.0
C2700 C 0.53838 0.23874 0.52202 0.0
C2701 C 0.49932 0.22941 0.53996 0.0
C2702 C 0.54518 0.23515 0.53968 0.0
C2703 C 0.56066 0.22195 0.54278 0.0
C2704 C 0.57026 0.21269 0.52828 0.0
C2705 C 0.56465 0.21749 0.51055 0.0
C2706 C 0.54879 0.23035 0.50744 0.0
H2707 H 0.48357 0.22493 0.54054 0.0
H2708 H 0.50814 0.21663 0.53525 0.0
H2709 H 0.50396 0.23322 0.55391 0.0
H2710 H 0.53803 0.242 0.55115 0.0
H2711 H 0.56461 0.21833 0.55658 0.0
H2712 H 0.55401 0.82674 0.27431 0.0
H2713 H 0.53074 0.79902 0.27606 0.0
H2714 H 0.55891 0.77193 0.2301 0.0
H2715 H 0.58198 0.79943 0.2282 0.0
H2716 H 0.51676 0.77052 0.22944 0.0
H2717 H 0.5481 0.74377 0.29454 0.0
H2718 H 0.53995 0.76897 0.29382 0.0
H2719 H 0.56075 0.76147 0.2805 0.0
C2720 C 0.55499 0.81505 0.26439 0.0
C2721 C 0.56991 0.81523 0.25117 0.0
C2722 C 0.54182 0.79913 0.26552 0.0
C2723 C 0.54333 0.78324 0.2534 0.0
C2724 C 0.55755 0.78395 0.23966 0.0
H2725 H 0.4955 0.66868 0.22975 0.0
H2726 H 0.51371 0.69968 0.23116 0.0
C2727 C 0.57074 0.7997 0.23861 0.0
C2728 C 0.53069 0.76544 0.25515 0.0
H2729 H 0.52307 0.7246 0.28129 0.0
C2730 C 0.51802 0.76056 0.24084 0.0
C2731 C 0.53233 0.75246 0.27005 0.0
C2732 C 0.54609 0.75675 0.28559 0.0
C2733 C 0.50713 0.74294 0.2409 0.0
C2734 C 0.50932 0.72959 0.25548 0.0
C2735 C 0.52152 0.73476 0.27007 0.0
C2736 C 0.49941 0.71002 0.25554 0.0
C2737 C 0.49329 0.73886 0.22537 0.0
C2738 C 0.48607 0.705 0.2693 0.0
C2739 C 0.47577 0.68712 0.26865 0.0
C2740 C 0.47864 0.67387 0.25423 0.0
C2741 C 0.49277 0.67854 0.24098 0.0
C2742 C 0.50309 0.69638 0.24167 0.0
H2743 H 0.48896 0.75264 0.21831 0.0
H2744 H 0.50079 0.72921 0.21541 0.0
H2745 H 0.47973 0.73126 0.23008 0.0
H2746 H 0.48316 0.71519 0.28025 0.0
H2747 H 0.46509 0.68404 0.27913 0.0
H2748 H 0.03124 0.67858 0.00529 0.0
H2749 H 0.00644 0.70438 0.00642 0.0
H2750 H 0.05193 0.74811 0.01293 0.0
H2751 H 0.07727 0.72207 0.012 0.0
H2752 H 0.00164 0.7343 0.03655 0.0
H2753 H 0.01537 0.76512 0.9679 0.0
H2754 H 0.02239 0.74029 0.97387 0.0
H2755 H 0.0362 0.76074 0.9825 0.0
C2756 C 0.03615 0.69365 0.00693 0.0
C2757 C 0.05637 0.69821 0.0085 0.0
C2758 C 0.02185 0.70839 0.00763 0.0
C2759 C 0.0273 0.72813 0.00971 0.0
C2760 C 0.04743 0.73292 0.01122 0.0
H2761 H 0.95708 0.83429 0.0055 0.0
H2762 H 0.98286 0.80953 0.00586 0.0
C2763 C 0.06188 0.71805 0.01068 0.0
C2764 C 0.01166 0.74346 0.01028 0.0
H2765 H 0.98962 0.77913 0.98481 0.0
C2766 C 0.99904 0.74422 0.02531 0.0
C2767 C 0.00826 0.75623 0.99555 0.0
C2768 C 0.02115 0.75564 0.97894 0.0
C2769 C 0.98323 0.75764 0.02612 0.0
C2770 C 0.97956 0.77024 0.01121 0.0
C2771 C 0.99229 0.76944 0.9962 0.0
C2772 C 0.96328 0.78506 0.0112 0.0
C2773 C 0.97096 0.75848 0.04311 0.0
C2774 C 0.94343 0.77967 0.01393 0.0
C2775 C 0.92845 0.794 0.01393 0.0
C2776 C 0.93303 0.81394 0.01092 0.0
C2777 C 0.95287 0.81912 0.00786 0.0
C2778 C 0.96774 0.80492 0.00804 0.0
H2779 H 0.97889 0.75203 0.05485 0.0
H2780 H 0.96684 0.77388 0.04647 0.0
H2781 H 0.95723 0.74988 0.04106 0.0
H2782 H 0.93948 0.76438 0.01594 0.0
H2783 H 0.91334 0.78948 0.01623 0.0
H2784 H 0.16831 0.30145 0.41859 0.0
H2785 H 0.17179 0.27458 0.39675 0.0
H2786 H 0.1111 0.25819 0.40567 0.0
H2787 H 0.10764 0.2849 0.42769 0.0
H2788 H 0.13662 0.22586 0.40213 0.0
H2789 H 0.14701 0.28042 0.34668 0.0
H2790 H 0.16434 0.2816 0.36502 0.0
H2791 H 0.13889 0.28753 0.36896 0.0
C2792 C 0.15575 0.29203 0.41594 0.0
C2793 C 0.13759 0.29542 0.42458 0.0
C2794 C 0.15778 0.27671 0.4035 0.0
C2795 C 0.1416 0.26469 0.39936 0.0
C2796 C 0.12376 0.26736 0.40868 0.0
H2797 H 0.09114 0.20813 0.3131 0.0
H2798 H 0.10621 0.22994 0.33536 0.0
C2799 C 0.12178 0.28259 0.42125 0.0
C2800 C 0.14261 0.25026 0.38442 0.0
H2801 H 0.14419 0.24729 0.33838 0.0
C2802 C 0.13864 0.23041 0.38819 0.0
C2803 C 0.14524 0.25637 0.36628 0.0
C2804 C 0.14898 0.27764 0.36138 0.0
C2805 C 0.13612 0.21666 0.37422 0.0
C2806 C 0.13789 0.22297 0.35607 0.0
C2807 C 0.14303 0.24255 0.35235 0.0
C2808 C 0.13084 0.21061 0.34097 0.0
C2809 C 0.13021 0.19585 0.37892 0.0
C2810 C 0.14011 0.19282 0.33633 0.0
C2811 C 0.13147 0.18029 0.32353 0.0
C2812 C 0.11347 0.18545 0.31541 0.0
C2813 C 0.10491 0.20377 0.31935 0.0
C2814 C 0.11354 0.21624 0.33199 0.0
H2815 H 0.12743 0.19394 0.39361 0.0
H2816 H 0.11668 0.19161 0.3714 0.0
H2817 H 0.14215 0.18558 0.37488 0.0
H2818 H 0.15362 0.18838 0.34299 0.0
H2819 H 0.13829 0.1662 0.32068 0.0
H2820 H 0.07066 0.91226 0.55782 0.0
H2821 H 0.04924 0.92804 0.58035 0.0
H2822 H 0.00685 0.88113 0.57396 0.0
H2823 H 0.02763 0.86591 0.55107 0.0
H2824 H 0.989 0.91648 0.58013 0.0
H2825 H 0.04912 0.90297 0.6301 0.0
H2826 H 0.05447 0.91915 0.61152 0.0
H2827 H 0.05027 0.8934 0.6074 0.0
C2828 C 0.05649 0.90569 0.56086 0.0
C2829 C 0.05095 0.88765 0.55302 0.0
C2830 C 0.04437 0.9146 0.57385 0.0
C2831 C 0.02671 0.90547 0.57917 0.0
C2832 C 0.02048 0.88838 0.57017 0.0
H2833 H 0.96894 0.87104 0.67055 0.0
H2834 H 0.99079 0.87989 0.64567 0.0
C2835 C 0.03244 0.87959 0.5572 0.0
C2836 C 0.01562 0.91189 0.59537 0.0
H2837 H 0.01781 0.90962 0.64141 0.0
C2838 C 0.99533 0.91549 0.59357 0.0
C2839 C 0.02399 0.91052 0.61286 0.0
C2840 C 0.04562 0.9062 0.61572 0.0
C2841 C 0.98288 0.916 0.60871 0.0
C2842 C 0.9911 0.91336 0.62613 0.0
C2843 C 0.01161 0.91156 0.62801 0.0
C2844 C 0.97864 0.90913 0.64209 0.0
C2845 C 0.9609 0.91769 0.60583 0.0
C2846 C 0.96477 0.92276 0.64854 0.0
C2847 C 0.95212 0.91763 0.66272 0.0
C2848 C 0.95337 0.89891 0.6708 0.0
C2849 C 0.96776 0.88561 0.66472 0.0
C2850 C 0.98022 0.89066 0.65048 0.0
H2851 H 0.9568 0.91654 0.59132 0.0
H2852 H 0.95299 0.906 0.61342 0.0
H2853 H 0.95573 0.93217 0.61091 0.0
H2854 H 0.96358 0.93724 0.6425 0.0
H2855 H 0.94137 0.92827 0.66737 0.0
H2856 H 0.3486 0.84314 0.82976 0.0
H2857 H 0.33285 0.82284 0.85319 0.0
H2858 H 0.354 0.77031 0.82676 0.0
H2859 H 0.36967 0.79041 0.80341 0.0
H2860 H 0.31247 0.76946 0.8429 0.0
H2861 H 0.37316 0.79414 0.88861 0.0
H2862 H 0.35866 0.81231 0.87687 0.0
H2863 H 0.37508 0.7967 0.86439 0.0
C2864 C 0.34939 0.82724 0.82873 0.0
C2865 C 0.36048 0.81828 0.81493 0.0
C2866 C 0.34046 0.81572 0.8421 0.0
C2867 C 0.34241 0.79515 0.84169 0.0
C2868 C 0.35232 0.78618 0.82724 0.0
H2869 H 0.3421 0.68662 0.89177 0.0
H2870 H 0.33531 0.71505 0.87269 0.0
C2871 C 0.36135 0.79765 0.81401 0.0
C2872 C 0.3366 0.78289 0.85726 0.0
H2873 H 0.35471 0.76687 0.8976 0.0
C2874 C 0.32135 0.76914 0.8551 0.0
C2875 C 0.34813 0.78268 0.87316 0.0
C2876 C 0.36474 0.79716 0.87603 0.0
C2877 C 0.31806 0.7544 0.86806 0.0
C2878 C 0.33076 0.75311 0.8832 0.0
C2879 C 0.34503 0.7678 0.88596 0.0
C2880 C 0.33148 0.73545 0.89495 0.0
C2881 C 0.30137 0.74008 0.86512 0.0
C2882 C 0.3318 0.7374 0.91385 0.0
C2883 C 0.33606 0.72116 0.92478 0.0
C2884 C 0.34003 0.7027 0.91699 0.0
C2885 C 0.33883 0.70059 0.89814 0.0
C2886 C 0.33479 0.71684 0.88723 0.0
H2887 H 0.28891 0.74729 0.85795 0.0
H2888 H 0.30659 0.72776 0.85649 0.0
H2889 H 0.29587 0.73394 0.87809 0.0
H2890 H 0.32943 0.75163 0.92011 0.0
H2891 H 0.33666 0.72311 0.9393 0.0
H2892 H 0.53086 0.09263 0.1959 0.0
H2893 H 0.50391 0.08365 0.17545 0.0
H2894 H 0.54336 0.089 0.12993 0.0
H2895 H 0.57027 0.09765 0.1503 0.0
H2896 H 0.48937 0.10745 0.15067 0.0
H2897 H 0.51424 0.03993 0.11609 0.0
H2898 H 0.52576 0.04879 0.13655 0.0
H2899 H 0.53285 0.05861 0.11486 0.0
C2900 C 0.53379 0.09162 0.18155 0.0
C2901 C 0.55263 0.09593 0.17466 0.0
C2902 C 0.51845 0.08635 0.1699 0.0
C2903 C 0.52167 0.08533 0.15117 0.0
C2904 C 0.54063 0.08906 0.14436 0.0
H2905 H 0.46572 0.10943 0.05425 0.0
H2906 H 0.48693 0.09789 0.07879 0.0
C2907 C 0.556 0.09414 0.15601 0.0
C2908 C 0.50483 0.08309 0.13855 0.0
H2909 H 0.49084 0.06035 0.09941 0.0
C2910 C 0.48939 0.09679 0.13975 0.0
C2911 C 0.50485 0.06915 0.12432 0.0
C2912 C 0.52023 0.05317 0.123 0.0
C2913 C 0.47479 0.0979 0.12639 0.0
C2914 C 0.47558 0.08482 0.11153 0.0
C2915 C 0.49034 0.07037 0.11083 0.0
C2916 C 0.46283 0.08785 0.09559 0.0
C2917 C 0.45939 0.11391 0.12762 0.0
C2918 C 0.44234 0.08526 0.09667 0.0
C2919 C 0.43017 0.09188 0.08265 0.0
C2920 C 0.43841 0.10122 0.06746 0.0
C2921 C 0.45902 0.10247 0.06591 0.0
C2922 C 0.47113 0.09579 0.07984 0.0
H2923 H 0.46228 0.12429 0.13894 0.0
H2924 H 0.45882 0.12243 0.11481 0.0
H2925 H 0.44468 0.10715 0.12976 0.0
H2926 H 0.43572 0.07906 0.10872 0.0
H2927 H 0.41433 0.09082 0.08422 0.0
H2928 H 0.10717 0.72178 0.06773 0.0
H2929 H 0.11319 0.75089 0.08643 0.0
H2930 H 0.17571 0.74572 0.07636 0.0
H2931 H 0.16966 0.716 0.0584 0.0
H2932 H 0.17058 0.7517 0.11003 0.0
H2933 H 0.12486 0.80637 0.07464 0.0
H2934 H 0.10983 0.78561 0.08032 0.0
H2935 H 0.13024 0.78261 0.06489 0.0
C2936 C 0.12212 0.7271 0.06934 0.0
C2937 C 0.13795 0.71676 0.06172 0.0
C2938 C 0.12558 0.7438 0.07989 0.0
C2939 C 0.1449 0.7508 0.08251 0.0
C2940 C 0.16069 0.74067 0.0745 0.0
H2941 H 0.14084 0.8582 0.14687 0.0
H2942 H 0.15247 0.83674 0.12243 0.0
C2943 C 0.15725 0.72373 0.06428 0.0
C2944 C 0.14863 0.76767 0.09481 0.0
H2945 H 0.13044 0.81258 0.10667 0.0
C2946 C 0.16211 0.76521 0.10907 0.0
C2947 C 0.13815 0.78561 0.09332 0.0
C2948 C 0.12517 0.79026 0.07731 0.0
C2949 C 0.16425 0.77955 0.12258 0.0
C2950 C 0.152 0.79641 0.12223 0.0
C2951 C 0.13965 0.79953 0.10723 0.0
C2952 C 0.14993 0.80981 0.13799 0.0
C2953 C 0.17947 0.77628 0.13715 0.0
C2954 C 0.14549 0.80199 0.15512 0.0
C2955 C 0.13946 0.81429 0.16917 0.0
C2956 C 0.13723 0.83455 0.16619 0.0
C2957 C 0.14266 0.84259 0.14944 0.0
C2958 C 0.14917 0.83033 0.1355 0.0
H2959 H 0.19256 0.7685 0.13161 0.0
H2960 H 0.18441 0.79035 0.14332 0.0
H2961 H 0.1731 0.76676 0.14786 0.0
H2962 H 0.14526 0.78623 0.15732 0.0
H2963 H 0.13493 0.80777 0.18188 0.0
H2964 H 0.45036 0.88134 0.43326 0.0
H2965 H 0.47136 0.88839 0.40732 0.0
H2966 H 0.42563 0.86812 0.37129 0.0
H2967 H 0.40471 0.86035 0.39733 0.0
H2968 H 0.46044 0.85015 0.36504 0.0
H2969 H 0.4729 0.93036 0.36882 0.0
H2970 H 0.4776 0.91896 0.39024 0.0
H2971 H 0.45308 0.91835 0.38085 0.0
C2972 C 0.44468 0.87859 0.41981 0.0
C2973 C 0.42595 0.87016 0.41733 0.0
C2974 C 0.45659 0.8829 0.40497 0.0
C2975 C 0.44994 0.87906 0.38735 0.0
C2976 C 0.43094 0.87137 0.38478 0.0
H2977 H 0.53233 0.87587 0.29469 0.0
H2978 H 0.50086 0.87734 0.31091 0.0
C2979 C 0.41899 0.86703 0.39965 0.0
C2980 C 0.46385 0.88078 0.37202 0.0
H2981 H 0.49877 0.91124 0.35413 0.0
C2982 C 0.46847 0.86364 0.36228 0.0
C2983 C 0.47423 0.89841 0.36841 0.0
C2984 C 0.46903 0.91759 0.37752 0.0
C2985 C 0.48424 0.86329 0.35002 0.0
C2986 C 0.49551 0.88055 0.34744 0.0
C2987 C 0.49013 0.898 0.35629 0.0
C2988 C 0.51423 0.88014 0.33732 0.0
C2989 C 0.48959 0.8442 0.3408 0.0
C2990 C 0.53203 0.8813 0.34685 0.0
C2991 C 0.54996 0.88027 0.33772 0.0
C2992 C 0.55046 0.87819 0.31881 0.0
C2993 C 0.53252 0.87717 0.30926 0.0
C2994 C 0.51452 0.87813 0.31846 0.0
H2995 H 0.4803 0.8317 0.34544 0.0
H2996 H 0.4877 0.84583 0.32597 0.0
H2997 H 0.50531 0.84056 0.34338 0.0
H2998 H 0.53203 0.88272 0.36145 0.0
H2999 H 0.56343 0.8808 0.34554 0.0
H3000 H 0.36273 0.2844 0.5514 0.0
H3001 H 0.35494 0.25524 0.56969 0.0
H3002 H 0.35718 0.29073 0.61802 0.0
H3003 H 0.36511 0.3196 0.60004 0.0
H3004 H 0.37783 0.23924 0.59659 0.0
H3005 H 0.30588 0.26074 0.62511 0.0
H3006 H 0.31631 0.2726 0.60543 0.0
H3007 H 0.32353 0.28017 0.62783 0.0
C3008 C 0.36156 0.28595 0.56592 0.0
C3009 C 0.36441 0.30436 0.57427 0.0
C3010 C 0.35691 0.26934 0.57631 0.0
C3011 C 0.35489 0.27097 0.59514 0.0
C3012 C 0.35792 0.28928 0.60345 0.0
H3013 H 0.37354 0.22171 0.69304 0.0
H3014 H 0.36116 0.23969 0.66677 0.0
C3015 C 0.36257 0.30578 0.59314 0.0
C3016 C 0.35165 0.25343 0.6066 0.0
H3017 H 0.32584 0.23865 0.6438 0.0
C3018 C 0.36611 0.23868 0.60656 0.0
C3019 C 0.33624 0.25269 0.61947 0.0
C3020 C 0.3195 0.26731 0.61933 0.0
C3021 C 0.36674 0.22437 0.62021 0.0
C3022 C 0.35234 0.22478 0.63407 0.0
C3023 C 0.3369 0.23847 0.63321 0.0
C3024 C 0.35521 0.21354 0.65095 0.0
C3025 C 0.38375 0.21002 0.62059 0.0
C3026 C 0.35497 0.19288 0.65103 0.0
C3027 C 0.36208 0.18258 0.66604 0.0
C3028 C 0.36954 0.19285 0.68108 0.0
C3029 C 0.36809 0.21347 0.68153 0.0
C3030 C 0.36094 0.22373 0.66659 0.0
H3031 H 0.39472 0.21301 0.60977 0.0
H3032 H 0.39136 0.21065 0.63387 0.0
H3033 H 0.37808 0.19482 0.61873 0.0
H3034 H 0.35042 0.1848 0.63912 0.0
H3035 H 0.36312 0.16667 0.66532 0.0
H3036 H 0.94465 0.05882 0.82573 0.0
H3037 H 0.96905 0.0471 0.84773 0.0
H3038 H 0.01031 0.09079 0.82868 0.0
H3039 H 0.98641 0.10208 0.80656 0.0
H3040 H 0.02904 0.05699 0.83885 0.0
H3041 H 0.97575 0.0811 0.89196 0.0
H3042 H 0.96796 0.06163 0.87718 0.0
H3043 H 0.97156 0.08604 0.86836 0.0
C3044 C 0.95906 0.06565 0.82607 0.0
C3045 C 0.96346 0.08163 0.81466 0.0
C3046 C 0.97296 0.05896 0.83863 0.0
C3047 C 0.99129 0.06843 0.84016 0.0
C3048 C 0.99624 0.08329 0.82779 0.0
H3049 H 0.07522 0.11802 0.90153 0.0
H3050 H 0.05648 0.10022 0.87856 0.0
C3051 C 0.9825 0.08976 0.81511 0.0
C3052 C 0.00448 0.06503 0.85582 0.0
H3053 H 0.00823 0.07612 0.90068 0.0
C3054 C 0.0244 0.06066 0.85248 0.0
C3055 C 0.9984 0.0697 0.87364 0.0
C3056 C 0.97731 0.075 0.87809 0.0
C3057 C 0.03863 0.06252 0.86613 0.0
C3058 C 0.03274 0.06888 0.88348 0.0
C3059 C 0.01264 0.07127 0.8873 0.0
C3060 C 0.047 0.07698 0.89662 0.0
C3061 C 0.05999 0.05879 0.86164 0.0
C3062 C 0.04793 0.06976 0.91438 0.0
C3063 C 0.05869 0.07995 0.92755 0.0
C3064 C 0.06822 0.09769 0.92315 0.0
C3065 C 0.06786 0.10444 0.90524 0.0
C3066 C 0.05738 0.09415 0.89208 0.0
H3067 H 0.06145 0.04792 0.85049 0.0
H3068 H 0.06689 0.07276 0.8571 0.0
H3069 H 0.06822 0.05334 0.87362 0.0
H3070 H 0.03975 0.05669 0.91818 0.0
H3071 H 0.05874 0.07454 0.94133 0.0
H3072 H 0.87868 0.8258 0.65858 0.0
H3073 H 0.85943 0.80504 0.63847 0.0
H3074 H 0.83102 0.77805 0.68443 0.0
H3075 H 0.85098 0.7985 0.70481 0.0
H3076 H 0.8467 0.75125 0.66294 0.0
H3077 H 0.80441 0.80172 0.61973 0.0
H3078 H 0.8295 0.80985 0.62039 0.0
H3079 H 0.81509 0.80961 0.64091 0.0
C3080 C 0.86817 0.81562 0.66443 0.0
C3081 C 0.86655 0.81354 0.68326 0.0
C3082 C 0.85687 0.80399 0.65289 0.0
C3083 C 0.84348 0.79021 0.6599 0.0
C3084 C 0.8411 0.78876 0.67873 0.0
H3085 H 0.81012 0.69621 0.58228 0.0
H3086 H 0.80383 0.71926 0.60717 0.0
C3087 C 0.85248 0.80043 0.69034 0.0
C3088 C 0.83472 0.77542 0.64755 0.0
H3089 H 0.8166 0.77135 0.60466 0.0
C3090 C 0.83939 0.75553 0.6505 0.0
C3091 C 0.82503 0.78093 0.63137 0.0
C3092 C 0.81805 0.8017 0.62806 0.0
C3093 C 0.83662 0.74145 0.63689 0.0
C3094 C 0.82908 0.74747 0.62 0.0
C3095 C 0.8226 0.76688 0.61763 0.0
C3096 C 0.83141 0.7348 0.60398 0.0
C3097 C 0.84339 0.72056 0.64001 0.0
C3098 C 0.84885 0.73621 0.59396 0.0
C3099 C 0.85265 0.723 0.57999 0.0
C3100 C 0.83899 0.70811 0.57569 0.0
C3101 C 0.8211 0.70726 0.58538 0.0
C3102 C 0.81737 0.72049 0.59949 0.0
H3103 H 0.84701 0.71773 0.65443 0.0
H3104 H 0.83177 0.71006 0.63566 0.0
H3105 H 0.85673 0.71763 0.63173 0.0
H3106 H 0.85989 0.74714 0.5974 0.0
H3107 H 0.86667 0.72405 0.57311 0.0
H3108 H 0.90889 0.08568 0.4222 0.0
H3109 H 0.92743 0.06536 0.40103 0.0
H3110 H 0.97948 0.10017 0.41146 0.0
H3111 H 0.96178 0.11897 0.43395 0.0
H3112 H 0.94066 0.07442 0.37133 0.0
H3113 H 0.00587 0.0496 0.40779 0.0
H3114 H 0.98498 0.0597 0.41974 0.0
H3115 H 0.00472 0.0755 0.4119 0.0
C3116 C 0.92448 0.08853 0.42056 0.0
C3117 C 0.93374 0.10417 0.42979 0.0
C3118 C 0.93506 0.07695 0.40828 0.0
C3119 C 0.95502 0.08091 0.40476 0.0
C3120 C 0.96434 0.09621 0.41428 0.0
H3121 H 0.00864 0.10712 0.31227 0.0
H3122 H 0.98469 0.09613 0.33429 0.0
C3123 C 0.95397 0.1074 0.42687 0.0
C3124 C 0.96549 0.07129 0.38944 0.0
H3125 H 0.0123 0.06095 0.3759 0.0
C3126 C 0.95619 0.07082 0.37246 0.0
C3127 C 0.98548 0.06547 0.39071 0.0
C3128 C 0.99566 0.06236 0.40862 0.0
C3129 C 0.96701 0.06742 0.35662 0.0
C3130 C 0.98777 0.06556 0.35774 0.0
C3131 C 0.99652 0.0632 0.37482 0.0
C3132 C 1.00077 0.0698 0.34203 0.0
C3133 C 0.95613 0.06676 0.33885 0.0
C3134 C 0.01814 0.05895 0.33901 0.0
C3135 C 0.0323 0.06574 0.32672 0.0
C3136 C 0.02917 0.08328 0.31708 0.0
C3137 C 0.01131 0.09339 0.31928 0.0
C3138 C 0.99744 0.08693 0.3318 0.0
H3139 H 0.94205 0.05856 0.34041 0.0
H3140 H 0.95228 0.08197 0.33462 0.0
H3141 H 0.96498 0.05963 0.32805 0.0
H3142 H 0.02116 0.04575 0.34675 0.0
H3143 H 0.04596 0.05765 0.32515 0.0
H3144 H 0.62636 0.27383 0.07 0.0
H3145 H 0.638 0.25181 0.09367 0.0
H3146 H 0.67877 0.29617 0.1121 0.0
H3147 H 0.66761 0.3183 0.08806 0.0
H3148 H 0.68032 0.2392 0.10394 0.0
H3149 H 0.63881 0.2831 0.15519 0.0
H3150 H 0.63275 0.28466 0.13147 0.0
H3151 H 0.65523 0.29531 0.13966 0.0
C3152 C 0.6381 0.27885 0.07876 0.0
C3153 C 0.64589 0.29797 0.07717 0.0
C3154 C 0.64472 0.26622 0.09231 0.0
C3155 C 0.65916 0.27245 0.10459 0.0
C3156 C 0.66754 0.29119 0.10274 0.0
H3157 H 0.65365 0.20398 0.20399 0.0
H3158 H 0.66989 0.22767 0.1838 0.0
C3159 C 0.66099 0.30385 0.0891 0.0
C3160 C 0.66387 0.25977 0.12018 0.0
H3161 H 0.6488 0.25142 0.1634 0.0
C3162 C 0.67391 0.24203 0.11713 0.0
C3163 C 0.65578 0.26371 0.1374 0.0
C3164 C 0.64499 0.28268 0.14128 0.0
C3165 C 0.67475 0.22743 0.13051 0.0
C3166 C 0.66478 0.23051 0.14708 0.0
C3167 C 0.65638 0.24901 0.15068 0.0
C3168 C 0.65939 0.21397 0.15917 0.0
C3169 C 0.68555 0.20853 0.12646 0.0
C3170 C 0.64855 0.19817 0.15203 0.0
C3171 C 0.63938 0.18473 0.16346 0.0
C3172 C 0.64063 0.18692 0.18229 0.0
C3173 C 0.65252 0.20195 0.1895 0.0
C3174 C 0.66176 0.21547 0.178 0.0
H3175 H 0.6987 0.21142 0.11791 0.0
H3176 H 0.69035 0.20095 0.13902 0.0
H3177 H 0.6757 0.19853 0.11876 0.0
H3178 H 0.64602 0.19695 0.13761 0.0
H3179 H 0.63047 0.17314 0.15756 0.0
H3180 H 0.57413 0.89901 0.93244 0.0
H3181 H 0.55491 0.91669 0.90945 0.0
H3182 H 0.50632 0.87668 0.91791 0.0
H3183 H 0.52528 0.8593 0.94089 0.0
H3184 H 0.5438 0.89825 0.87863 0.0
H3185 H 0.47756 0.92823 0.91168 0.0
H3186 H 0.49942 0.9216 0.92426 0.0
H3187 H 0.48124 0.90322 0.9186 0.0
C3188 C 0.55906 0.89455 0.92984 0.0
C3189 C 0.55113 0.87781 0.93833 0.0
C3190 C 0.54816 0.90457 0.91669 0.0
C3191 C 0.52913 0.89813 0.91211 0.0
C3192 C 0.52078 0.88222 0.9215 0.0
H3193 H 0.4688 0.86942 0.8195 0.0
H3194 H 0.49368 0.87582 0.84267 0.0
C3195 C 0.53167 0.87218 0.93452 0.0
C3196 C 0.51909 0.90555 0.89573 0.0
H3197 H 0.47313 0.91686 0.88041 0.0
C3198 C 0.52851 0.90291 0.87899 0.0
C3199 C 0.4993 0.912 0.89617 0.0
C3200 C 0.4889 0.91663 0.91369 0.0
C3201 C 0.51804 0.90465 0.86273 0.0
C3202 C 0.49761 0.90872 0.86332 0.0
C3203 C 0.48872 0.91333 0.87995 0.0
C3204 C 0.4847 0.90604 0.84738 0.0
C3205 C 0.52881 0.90135 0.84515 0.0
C3206 C 0.47137 0.92083 0.84235 0.0
C3207 C 0.457 0.91707 0.8293 0.0
C3208 C 0.45569 0.89843 0.82109 0.0
C3209 C 0.46963 0.88395 0.82549 0.0
C3210 C 0.48391 0.88766 0.83866 0.0
H3211 H 0.54449 0.90596 0.84627 0.0
H3212 H 0.52864 0.8854 0.84185 0.0
H3213 H 0.52183 0.90955 0.83385 0.0
H3214 H 0.47169 0.93508 0.84894 0.0
H3215 H 0.44661 0.9286 0.82592 0.0
H3216 H 0.90096 0.20747 0.81174 0.0
H3217 H 0.88523 0.22742 0.83509 0.0
H3218 H 0.8406 0.1828 0.84223 0.0
H3219 H 0.85652 0.16256 0.81876 0.0
H3220 H 0.84553 0.24198 0.84018 0.0
H3221 H 0.86971 0.18738 0.892 0.0
H3222 H 0.87957 0.18723 0.86934 0.0
H3223 H 0.85486 0.17892 0.87337 0.0
C3224 C 0.8876 0.20208 0.81807 0.0
C3225 C 0.88001 0.18347 0.81367 0.0
C3226 C 0.8786 0.21349 0.83133 0.0
C3227 C 0.86194 0.20643 0.84048 0.0
C3228 C 0.85357 0.18836 0.83537 0.0
H3229 H 0.82377 0.28954 0.92492 0.0
H3230 H 0.82036 0.26356 0.90218 0.0
C3231 C 0.86256 0.17692 0.82195 0.0
C3232 C 0.85487 0.21743 0.85641 0.0
H3233 H 0.85925 0.21823 0.90235 0.0
C3234 C 0.84799 0.23668 0.85383 0.0
C3235 C 0.85835 0.2104 0.87412 0.0
C3236 C 0.86611 0.18989 0.87753 0.0
C3237 C 0.84567 0.24959 0.86847 0.0
C3238 C 0.85014 0.24287 0.8861 0.0
C3239 C 0.85583 0.22324 0.88879 0.0
C3240 C 0.85148 0.25666 0.90147 0.0
C3241 C 0.83987 0.27069 0.86482 0.0
C3242 C 0.86999 0.26074 0.9091 0.0
C3243 C 0.87199 0.27552 0.92207 0.0
C3244 C 0.85549 0.28649 0.92758 0.0
C3245 C 0.8368 0.28162 0.92061 0.0
C3246 C 0.8348 0.26678 0.90769 0.0
H3247 H 0.83984 0.27419 0.85014 0.0
H3248 H 0.82482 0.27337 0.87016 0.0
H3249 H 0.85012 0.28096 0.87176 0.0
H3250 H 0.88303 0.25304 0.90444 0.0
H3251 H 0.88655 0.27899 0.92713 0.0
H3252 H 0.54767 0.11153 0.55352 0.0
H3253 H 0.52621 0.09748 0.57683 0.0
H3254 H 0.57573 0.09376 0.61331 0.0
H3255 H 0.59701 0.10864 0.59024 0.0
H3256 H 0.5235 0.06522 0.59975 0.0
H3257 H 0.5407 0.13395 0.63772 0.0
H3258 H 0.54848 0.13023 0.6147 0.0
H3259 H 0.56157 0.11857 0.63295 0.0
C3260 C 0.55404 0.10716 0.56634 0.0
C3261 C 0.57383 0.11134 0.57027 0.0
C3262 C 0.5418 0.09914 0.57963 0.0
C3263 C 0.5493 0.09507 0.59694 0.0
C3264 C 0.56957 0.09726 0.60018 0.0
H3265 H 0.47667 0.09401 0.69424 0.0
H3266 H 0.50434 0.08516 0.67464 0.0
C3267 C 0.58172 0.10564 0.58702 0.0
C3268 C 0.53544 0.09141 0.61204 0.0
H3269 H 0.51717 0.11297 0.65019 0.0
C3270 C 0.52227 0.07548 0.61094 0.0
C3271 C 0.5338 0.10491 0.62658 0.0
C3272 C 0.54674 0.12297 0.62806 0.0
C3273 C 0.50715 0.07302 0.62373 0.0
C3274 C 0.50516 0.08691 0.63784 0.0
C3275 C 0.51888 0.10225 0.63942 0.0
C3276 C 0.48768 0.0876 0.6498 0.0
C3277 C 0.4932 0.05585 0.62184 0.0
C3278 C 0.46906 0.09145 0.64234 0.0
C3279 C 0.45331 0.09675 0.65347 0.0
C3280 C 0.45594 0.09845 0.67227 0.0
C3281 C 0.47428 0.09327 0.67979 0.0
C3282 C 0.49004 0.08799 0.66864 0.0
H3283 H 0.5002 0.04346 0.61441 0.0
H3284 H 0.48819 0.0505 0.63526 0.0
H3285 H 0.48005 0.06061 0.61405 0.0
H3286 H 0.46702 0.0917 0.62782 0.0
H3287 H 0.43948 0.10079 0.6472 0.0
H3288 H 0.64835 0.7851 0.3042 0.0
H3289 H 0.66018 0.76598 0.32995 0.0
H3290 H 0.6757 0.81963 0.35776 0.0
H3291 H 0.66322 0.83894 0.33225 0.0
H3292 H 0.69511 0.763 0.35159 0.0
H3293 H 0.63123 0.79567 0.38853 0.0
H3294 H 0.6341 0.79834 0.36443 0.0
H3295 H 0.64929 0.81239 0.37957 0.0
C3296 C 0.65458 0.79282 0.31567 0.0
C3297 C 0.65448 0.8135 0.31638 0.0
C3298 C 0.6615 0.78188 0.3303 0.0
C3299 C 0.66845 0.79144 0.34585 0.0
C3300 C 0.67012 0.81203 0.34594 0.0
H3301 H 0.65711 0.72719 0.44773 0.0
H3302 H 0.6695 0.75297 0.42756 0.0
C3303 C 0.66311 0.82302 0.33131 0.0
C3304 C 0.67102 0.77985 0.36259 0.0
H3305 H 0.64701 0.76895 0.40182 0.0
C3306 C 0.68491 0.76453 0.36279 0.0
C3307 C 0.65771 0.78195 0.3772 0.0
C3308 C 0.64214 0.79787 0.37751 0.0
C3309 C 0.68511 0.75058 0.37679 0.0
C3310 C 0.67082 0.75186 0.39067 0.0
C3311 C 0.65794 0.768 0.39114 0.0
C3312 C 0.66689 0.73539 0.40327 0.0
C3313 C 0.70019 0.73427 0.37627 0.0
C3314 C 0.66148 0.71693 0.39632 0.0
C3315 C 0.6543 0.70227 0.40777 0.0
C3316 C 0.65214 0.70588 0.42636 0.0
C3317 C 0.65827 0.72412 0.43341 0.0
C3318 C 0.66555 0.73877 0.42195 0.0
H3319 H 0.71396 0.73925 0.36953 0.0
H3320 H 0.70385 0.72895 0.39006 0.0
H3321 H 0.69422 0.72175 0.36832 0.0
H3322 H 0.66179 0.71417 0.3819 0.0
H3323 H 0.64949 0.68848 0.40191 0.0
H3324 H 0.04503 0.94435 0.17288 0.0
H3325 H 0.01687 0.9533 0.15392 0.0
H3326 H 0.99033 0.89678 0.16451 0.0
H3327 H 0.0184 0.88742 0.18281 0.0
H3328 H 0.00717 0.93092 0.12288 0.0
H3329 H 0.94357 0.93518 0.16925 0.0
H3330 H 0.96877 0.93812 0.17682 0.0
H3331 H 0.95849 0.91389 0.1737 0.0
C3332 C 0.03318 0.93383 0.17128 0.0
C3333 C 0.03423 0.91501 0.17928 0.0
C3334 C 0.01699 0.9391 0.1606 0.0
C3335 C 0.00141 0.92583 0.15806 0.0
C3336 C 0.00198 0.90745 0.16667 0.0
H3337 H 0.92168 0.87167 0.09621 0.0
H3338 H 0.94086 0.8888 0.11914 0.0
C3339 C 0.01818 0.90209 0.17715 0.0
C3340 C 0.98592 0.92953 0.14443 0.0
H3341 H 0.9364 0.92394 0.13854 0.0
C3342 C 0.99161 0.93012 0.12621 0.0
C3343 C 0.9657 0.92863 0.1489 0.0
C3344 C 0.95876 0.92913 0.16826 0.0
C3345 C 0.97776 0.92743 0.11234 0.0
C3346 C 0.9577 0.92449 0.11693 0.0
C3347 C 0.9518 0.92605 0.13507 0.0
C3348 C 0.9437 0.91582 0.10382 0.0
C3349 C 0.98499 0.92578 0.09309 0.0
C3350 C 0.93841 0.92555 0.08778 0.0
C3351 C 0.92761 0.91561 0.07445 0.0
C3352 C 0.92199 0.89587 0.07706 0.0
C3353 C 0.92625 0.8867 0.09362 0.0
C3354 C 0.93702 0.89656 0.10683 0.0
H3355 H 1.00133 0.92631 0.09215 0.0
H3356 H 0.97981 0.91179 0.08693 0.0
H3357 H 0.97893 0.93813 0.085 0.0
H3358 H 0.94318 0.94053 0.08533 0.0
H3359 H 0.92441 0.92306 0.06184 0.0
H3360 H 0.66247 0.70934 0.79575 0.0
H3361 H 0.68131 0.73206 0.815 0.0
H3362 H 0.65683 0.70428 0.86244 0.0
H3363 H 0.63843 0.68156 0.8434 0.0
H3364 H 0.66175 0.75742 0.83597 0.0
H3365 H 0.71186 0.71561 0.87987 0.0
H3366 H 0.70252 0.70568 0.85885 0.0
H3367 H 0.68834 0.7036 0.87942 0.0
C3368 C 0.66168 0.70774 0.8103 0.0
C3369 C 0.64884 0.69394 0.81815 0.0
C3370 C 0.67245 0.72066 0.82126 0.0
C3371 C 0.67072 0.71969 0.84016 0.0
C3372 C 0.65886 0.70501 0.84793 0.0
H3373 H 0.64215 0.7739 0.93076 0.0
H3374 H 0.65696 0.75331 0.90756 0.0
C3375 C 0.64807 0.69224 0.83704 0.0
C3376 C 0.67766 0.73606 0.85175 0.0
H3377 H 0.69501 0.74401 0.89438 0.0
C3378 C 0.66972 0.75479 0.84845 0.0
C3379 C 0.6882 0.73263 0.86793 0.0
C3380 C 0.69838 0.7133 0.87159 0.0
C3381 C 0.66972 0.76934 0.86188 0.0
C3382 C 0.67828 0.76507 0.8789 0.0
C3383 C 0.68827 0.74717 0.8814 0.0
C3384 C 0.67334 0.77701 0.895 0.0
C3385 C 0.6587 0.7883 0.85839 0.0
C3386 C 0.67833 0.79702 0.89613 0.0
C3387 C 0.66968 0.80893 0.90937 0.0
C3388 C 0.65612 0.80092 0.92176 0.0
C3389 C 0.65254 0.78055 0.92149 0.0
C3390 C 0.66104 0.76873 0.90821 0.0
H3391 H 0.6511 0.7883 0.84509 0.0
H3392 H 0.64752 0.79085 0.86911 0.0
H3393 H 0.6692 0.80083 0.85859 0.0
H3394 H 0.68811 0.8036 0.88626 0.0
H3395 H 0.67307 0.82451 0.90952 0.0
H3396 H 0.48134 0.38989 0.17976 0.0
H3397 H 0.50224 0.3991 0.15464 0.0
H3398 H 0.45646 0.43672 0.13367 0.0
H3399 H 0.43537 0.42808 0.1592 0.0
H3400 H 0.46929 0.40728 0.10985 0.0
H3401 H 0.53305 0.44777 0.13749 0.0
H3402 H 0.52723 0.42657 0.15095 0.0
H3403 H 0.50962 0.44632 0.14911 0.0
C3404 C 0.47574 0.40059 0.17025 0.0
C3405 C 0.45638 0.40794 0.17154 0.0
C3406 C 0.48786 0.40594 0.15585 0.0
C3407 C 0.48097 0.41876 0.1424 0.0
C3408 C 0.46207 0.4269 0.144 0.0
H3409 H 0.54119 0.39672 0.03857 0.0
H3410 H 0.52073 0.41714 0.05863 0.0
C3411 C 0.44996 0.42172 0.15854 0.0
C3412 C 0.49239 0.42076 0.12549 0.0
H3413 H 0.53964 0.42716 0.11102 0.0
C3414 C 0.4845 0.41225 0.1098 0.0
C3415 C 0.5121 0.42743 0.1255 0.0
C3416 C 0.52093 0.43773 0.14164 0.0
C3417 C 0.4965 0.408 0.09486 0.0
C3418 C 0.51679 0.41282 0.09561 0.0
C3419 C 0.52411 0.42334 0.11053 0.0
C3420 C 0.53114 0.40341 0.08326 0.0
C3421 C 0.48781 0.39659 0.07925 0.0
C3422 C 0.54438 0.38967 0.09053 0.0
C3423 C 0.5561 0.37824 0.07922 0.0
C3424 C 0.55477 0.38021 0.06036 0.0
C3425 C 0.54238 0.3948 0.05307 0.0
C3426 C 0.53063 0.40637 0.06448 0.0
H3427 H 0.47226 0.3922 0.08176 0.0
H3428 H 0.48817 0.40581 0.06687 0.0
H3429 H 0.49659 0.38309 0.07661 0.0
H3430 H 0.54506 0.38718 0.10499 0.0
H3431 H 0.56591 0.36752 0.08527 0.0
H3432 H 0.88337 0.22605 0.43515 0.0
H3433 H 0.87732 0.25468 0.41587 0.0
H3434 H 0.82915 0.22418 0.39012 0.0
H3435 H 0.83472 0.19572 0.40959 0.0
H3436 H 0.86099 0.23741 0.36706 0.0
H3437 H 0.83204 0.2968 0.4113 0.0
H3438 H 0.85285 0.28345 0.42009 0.0
H3439 H 0.82979 0.27095 0.41683 0.0
C3440 C 0.87116 0.22561 0.42574 0.0
C3441 C 0.85974 0.20847 0.42374 0.0
C3442 C 0.86768 0.242 0.41477 0.0
C3443 C 0.85269 0.24153 0.40171 0.0
C3444 C 0.84072 0.22481 0.40021 0.0
H3445 H 0.85391 0.31552 0.3046 0.0
H3446 H 0.83989 0.29331 0.32728 0.0
C3447 C 0.84411 0.20848 0.4112 0.0
C3448 C 0.85143 0.25722 0.38797 0.0
H3449 H 0.84457 0.3066 0.38248 0.0
C3450 C 0.85705 0.2525 0.37027 0.0
C3451 C 0.84636 0.27679 0.39238 0.0
C3452 C 0.83975 0.28237 0.41115 0.0
C3453 C 0.85895 0.26709 0.35702 0.0
C3454 C 0.85441 0.28688 0.36149 0.0
C3455 C 0.84789 0.29143 0.37904 0.0
C3456 C 0.859 0.30319 0.3489 0.0
C3457 C 0.86712 0.26131 0.33877 0.0
C3458 C 0.87316 0.31719 0.35396 0.0
C3459 C 0.8808 0.33019 0.3412 0.0
C3460 C 0.87462 0.32927 0.32307 0.0
C3461 C 0.85911 0.31649 0.31841 0.0
C3462 C 0.85123 0.30364 0.33131 0.0
H3463 H 0.8737 0.24632 0.33891 0.0
H3464 H 0.85505 0.26134 0.32865 0.0
H3465 H 0.8786 0.27189 0.33427 0.0
H3466 H 0.87919 0.31729 0.36752 0.0
H3467 H 0.89228 0.34032 0.34535 0.0
H3468 H 0.03969 0.64094 0.67007 0.0
H3469 H 0.01036 0.63515 0.65153 0.0
H3470 H 0.0226 0.57271 0.65169 0.0
H3471 H 0.05258 0.57879 0.66933 0.0
H3472 H 0.01389 0.58249 0.61979 0.0
H3473 H 0.9571 0.61598 0.663 0.0
H3474 H 0.97584 0.63395 0.65878 0.0
H3475 H 0.98184 0.61174 0.67105 0.0
C3476 C 0.03589 0.62601 0.66628 0.0
C3477 C 0.04826 0.61032 0.67101 0.0
C3478 C 0.01906 0.62264 0.65585 0.0
C3479 C 0.01394 0.60341 0.65053 0.0
C3480 C 0.02615 0.58766 0.65565 0.0
H3481 H 0.90287 0.60603 0.591 0.0
H3482 H 0.92679 0.59367 0.61313 0.0
C3483 C 0.04325 0.59111 0.66569 0.0
C3484 C 0.99679 0.60003 0.63842 0.0
H3485 H 0.94966 0.61519 0.63076 0.0
C3486 C 0.9997 0.58929 0.62239 0.0
C3487 C 0.97801 0.60824 0.64196 0.0
C3488 C 0.97299 0.61789 0.65976 0.0
C3489 C 0.98484 0.58782 0.60927 0.0
C3490 C 0.96691 0.59811 0.61187 0.0
C3491 C 0.9635 0.60758 0.62848 0.0
C3492 C 0.95244 0.60115 0.59705 0.0
C3493 C 0.98868 0.57539 0.59273 0.0
C3494 C 0.95879 0.60874 0.58034 0.0
C3495 C 0.94514 0.61518 0.56754 0.0
C3496 C 0.92492 0.6147 0.57143 0.0
C3497 C 0.91843 0.60633 0.58771 0.0
C3498 C 0.93209 0.5994 0.60035 0.0
H3499 H 0.99798 0.56246 0.59619 0.0
H3500 H 0.97478 0.57004 0.58649 0.0
H3501 H 0.99693 0.58423 0.58263 0.0
H3502 H 0.97432 0.61096 0.57763 0.0
H3503 H 0.95044 0.62201 0.55522 0.0
H3504 H 0.66331 0.33445 0.67714 0.0
H3505 H 0.68025 0.31218 0.65599 0.0
H3506 H 0.63236 0.27065 0.66078 0.0
H3507 H 0.6158 0.2924 0.68211 0.0
H3508 H 0.6696 0.25276 0.65904 0.0
H3509 H 0.65832 0.30818 0.6043 0.0
H3510 H 0.67238 0.31532 0.62386 0.0
H3511 H 0.64644 0.3106 0.626 0.0
C3512 C 0.65668 0.32035 0.67395 0.0
C3513 C 0.6381 0.31525 0.68097 0.0
C3514 C 0.66628 0.30775 0.66181 0.0
C3515 C 0.65737 0.28995 0.65662 0.0
C3516 C 0.63946 0.28435 0.66457 0.0
H3517 H 0.62703 0.22237 0.57145 0.0
H3518 H 0.63526 0.24702 0.59409 0.0
C3519 C 0.62993 0.29685 0.67662 0.0
C3520 C 0.6652 0.27778 0.64167 0.0
H3521 H 0.66518 0.2759 0.59559 0.0
C3522 C 0.66925 0.25787 0.64515 0.0
C3523 C 0.66467 0.28459 0.6236 0.0
C3524 C 0.66015 0.3058 0.61907 0.0
C3525 C 0.67095 0.2442 0.63101 0.0
C3526 C 0.66889 0.25079 0.61297 0.0
C3527 C 0.66671 0.27098 0.60947 0.0
C3528 C 0.6652 0.23683 0.59801 0.0
C3529 C 0.67316 0.22263 0.63552 0.0
C3530 C 0.67945 0.22313 0.59246 0.0
C3531 C 0.67474 0.20892 0.57945 0.0
C3532 C 0.65577 0.20832 0.57174 0.0
C3533 C 0.64183 0.22254 0.57692 0.0
C3534 C 0.6465 0.23663 0.58991 0.0
H3535 H 0.67235 0.21982 0.6503 0.0
H3536 H 0.66147 0.21389 0.62872 0.0
H3537 H 0.68763 0.21728 0.63056 0.0
H3538 H 0.69406 0.22325 0.59837 0.0
H3539 H 0.68589 0.19836 0.57551 0.0
H3540 H 0.92233 0.36015 0.89934 0.0
H3541 H 0.94305 0.37644 0.87693 0.0
H3542 H 0.95071 0.42592 0.91284 0.0
H3543 H 0.93029 0.40935 0.93568 0.0
H3544 H 0.94249 0.41383 0.85927 0.0
H3545 H 0.00699 0.40447 0.90537 0.0
H3546 H 0.98386 0.39216 0.90951 0.0
H3547 H 0.98611 0.41812 0.91358 0.0
C3548 C 0.92833 0.37455 0.90244 0.0
C3549 C 0.92507 0.38331 0.91939 0.0
C3550 C 0.93999 0.38393 0.88956 0.0
C3551 C 0.94863 0.40223 0.89336 0.0
C3552 C 0.94436 0.41167 0.90978 0.0
H3553 H 0.05356 0.42896 0.82857 0.0
H3554 H 0.02598 0.43694 0.84864 0.0
C3555 C 0.93263 0.40225 0.92274 0.0
C3556 C 0.96362 0.41003 0.88074 0.0
H3557 H 0.0135 0.41211 0.87526 0.0
C3558 C 0.95801 0.41396 0.86283 0.0
C3559 C 0.98383 0.41033 0.88547 0.0
C3560 C 0.9907 0.40597 0.90448 0.0
C3561 C 0.97218 0.41678 0.84927 0.0
C3562 C 0.9924 0.41531 0.85373 0.0
C3563 C 0.99797 0.41314 0.87189 0.0
C3564 C 0.00776 0.41265 0.83975 0.0
C3565 C 0.96538 0.42046 0.83016 0.0
C3566 C 0.00663 0.39639 0.8281 0.0
C3567 C 0.02239 0.39165 0.81682 0.0
C3568 C 0.03974 0.40301 0.81701 0.0
C3569 C 0.04057 0.41973 0.82826 0.0
C3570 C 0.02475 0.42444 0.83961 0.0
H3571 H 0.95102 0.42833 0.82999 0.0
H3572 H 0.97636 0.4292 0.82243 0.0
H3573 H 0.96325 0.40612 0.82321 0.0
H3574 H 0.99393 0.38672 0.82838 0.0
H3575 H 0.02127 0.3785 0.80864 0.0
H3576 H 0.86894 0.77501 0.05189 0.0
H3577 H 0.86743 0.74573 0.07119 0.0
H3578 H 0.8476 0.78157 0.11576 0.0
H3579 H 0.84929 0.81077 0.09677 0.0
H3580 H 0.88885 0.74072 0.10277 0.0
H3581 H 0.80889 0.73538 0.1171 0.0
H3582 H 0.81866 0.74972 0.09857 0.0
H3583 H 0.81869 0.75953 0.12117 0.0
C3584 C 0.86425 0.77665 0.06578 0.0
C3585 C 0.85918 0.79525 0.07276 0.0
C3586 C 0.8632 0.75989 0.07673 0.0
C3587 C 0.85695 0.76146 0.09476 0.0
C3588 C 0.85185 0.77995 0.10172 0.0
H3589 H 0.86593 0.70104 0.19449 0.0
H3590 H 0.85526 0.7217 0.16905 0.0
C3591 C 0.85291 0.79667 0.09084 0.0
C3592 C 0.85765 0.74422 0.10693 0.0
H3593 H 0.83048 0.71815 0.13756 0.0
C3594 C 0.87604 0.73549 0.11013 0.0
C3595 C 0.84089 0.73759 0.11655 0.0
C3596 C 0.82063 0.74592 0.11306 0.0
C3597 C 0.87836 0.72096 0.12339 0.0
C3598 C 0.86171 0.71471 0.13342 0.0
C3599 C 0.84317 0.72297 0.12982 0.0
C3600 C 0.86379 0.70063 0.14852 0.0
C3601 C 0.89883 0.7132 0.1272 0.0
C3602 C 0.87105 0.68161 0.14533 0.0
C3603 C 0.8773 0.66998 0.15976 0.0
C3604 C 0.87599 0.67708 0.17755 0.0
C3605 C 0.86695 0.6953 0.18085 0.0
C3606 C 0.8609 0.70706 0.16637 0.0
H3607 H 0.91046 0.72255 0.121 0.0
H3608 H 0.90158 0.71233 0.14197 0.0
H3609 H 0.90025 0.69815 0.12149 0.0
H3610 H 0.87305 0.67629 0.13165 0.0
H3611 H 0.88419 0.6559 0.15699 0.0
H3612 H 0.57114 0.59912 0.43774 0.0
H3613 H 0.55044 0.58227 0.41533 0.0
H3614 H 0.5087 0.63018 0.41755 0.0
H3615 H 0.52877 0.64656 0.44033 0.0
H3616 H 0.49056 0.59455 0.41268 0.0
H3617 H 0.55295 0.60441 0.36437 0.0
H3618 H 0.55736 0.58942 0.38396 0.0
H3619 H 0.55317 0.6154 0.38654 0.0
C3620 C 0.55724 0.60571 0.43382 0.0
C3621 C 0.55172 0.62433 0.44046 0.0
C3622 C 0.54554 0.59617 0.42091 0.0
C3623 C 0.52832 0.60524 0.41445 0.0
C3624 C 0.52201 0.62299 0.42224 0.0
H3625 H 0.47405 0.63299 0.31902 0.0
H3626 H 0.49512 0.6262 0.345 0.0
C3627 C 0.53357 0.63241 0.43515 0.0
C3628 C 0.51786 0.59794 0.39821 0.0
H3629 H 0.52215 0.59697 0.35225 0.0
C3630 C 0.49749 0.59457 0.39946 0.0
C3631 C 0.52703 0.59808 0.38101 0.0
C3632 C 0.54879 0.60212 0.37874 0.0
C3633 C 0.48574 0.59299 0.38391 0.0
C3634 C 0.49477 0.59433 0.36671 0.0
C3635 C 0.51534 0.59601 0.3655 0.0
C3636 C 0.48304 0.59719 0.35005 0.0
C3637 C 0.46364 0.59155 0.38605 0.0
C3638 C 0.46957 0.58295 0.34404 0.0
C3639 C 0.45739 0.58689 0.32922 0.0
C3640 C 0.45871 0.60502 0.32008 0.0
C3641 C 0.47282 0.61886 0.32568 0.0
C3642 C 0.48483 0.61499 0.34055 0.0
H3643 H 0.45889 0.59384 0.40027 0.0
H3644 H 0.45613 0.6026 0.3774 0.0
H3645 H 0.45866 0.57671 0.38175 0.0
H3646 H 0.46827 0.56895 0.35095 0.0
H3647 H 0.44687 0.57583 0.32497 0.0
H3648 H 0.40939 0.28478 0.18453 0.0
H3649 H 0.39572 0.26187 0.16241 0.0
H3650 H 0.34463 0.29913 0.15615 0.0
H3651 H 0.3585 0.32241 0.17829 0.0
H3652 H 0.35915 0.24135 0.16036 0.0
H3653 H 0.36978 0.29584 0.10482 0.0
H3654 H 0.38104 0.29894 0.12675 0.0
H3655 H 0.35511 0.30317 0.12395 0.0
C3656 C 0.39512 0.28795 0.17861 0.0
C3657 C 0.38506 0.3054 0.18291 0.0
C3658 C 0.38731 0.27486 0.16604 0.0
C3659 C 0.36934 0.279 0.1575 0.0
C3660 C 0.35866 0.29586 0.16248 0.0
H3661 H 0.33144 0.18725 0.08126 0.0
H3662 H 0.3289 0.2137 0.10361 0.0
C3663 C 0.36648 0.30901 0.17519 0.0
C3664 C 0.36285 0.26611 0.14256 0.0
H3665 H 0.36169 0.26353 0.09649 0.0
C3666 C 0.35927 0.24621 0.14639 0.0
C3667 C 0.36331 0.27259 0.1244 0.0
C3668 C 0.36761 0.29376 0.11959 0.0
C3669 C 0.35708 0.23236 0.13249 0.0
C3670 C 0.35816 0.23873 0.1143 0.0
C3671 C 0.36082 0.25878 0.11047 0.0
C3672 C 0.35852 0.22449 0.09919 0.0
C3673 C 0.35486 0.21089 0.1374 0.0
C3674 C 0.37568 0.22245 0.08873 0.0
C3675 C 0.37713 0.20743 0.07589 0.0
C3676 C 0.36145 0.1942 0.07341 0.0
C3677 C 0.34391 0.19697 0.08322 0.0
C3678 C 0.34242 0.21206 0.09595 0.0
H3679 H 0.3581 0.2081 0.1519 0.0
H3680 H 0.33948 0.20615 0.13471 0.0
H3681 H 0.36484 0.20161 0.12908 0.0
H3682 H 0.38826 0.23197 0.09104 0.0
H3683 H 0.39081 0.2056 0.06854 0.0
H3684 H 0.57546 0.58542 0.84483 0.0
H3685 H 0.54953 0.57503 0.86564 0.0
H3686 H 0.50773 0.61162 0.83743 0.0
H3687 H 0.53337 0.62261 0.81701 0.0
H3688 H 0.5286 0.6029 0.88728 0.0
H3689 H 0.47766 0.55905 0.845 0.0
H3690 H 0.50327 0.56289 0.83913 0.0
H3691 H 0.48521 0.58157 0.83432 0.0
C3692 C 0.56079 0.59127 0.84293 0.0
C3693 C 0.55673 0.60508 0.82918 0.0
C3694 C 0.54593 0.5851 0.85476 0.0
C3695 C 0.52669 0.5923 0.85285 0.0
C3696 C 0.5224 0.6055 0.83884 0.0
H3697 H 0.42288 0.62647 0.89727 0.0
H3698 H 0.4494 0.61202 0.87949 0.0
C3699 C 0.53722 0.61184 0.82715 0.0
C3700 C 0.51154 0.58836 0.86674 0.0
H3701 H 0.46324 0.57529 0.87102 0.0
C3702 C 0.51445 0.59633 0.884 0.0
C3703 C 0.49322 0.57973 0.86233 0.0
C3704 C 0.48969 0.57014 0.84423 0.0
C3705 C 0.49887 0.59776 0.89639 0.0
C3706 C 0.48004 0.59047 0.89146 0.0
C3707 C 0.47765 0.5809 0.87476 0.0
C3708 C 0.46217 0.59587 0.90185 0.0
C3709 C 0.5023 0.60865 0.91392 0.0
C3710 C 0.46001 0.59089 0.92017 0.0
C3711 C 0.44501 0.59949 0.93049 0.0
C3712 C 0.43189 0.61302 0.92255 0.0
C3713 C 0.43309 0.61652 0.90387 0.0
C3714 C 0.44812 0.60809 0.89364 0.0
H3715 H 0.51696 0.61596 0.91432 0.0
H3716 H 0.49077 0.62003 0.91601 0.0
H3717 H 0.50157 0.59811 0.92536 0.0
H3718 H 0.47045 0.58112 0.92666 0.0
H3719 H 0.44439 0.59643 0.94485 0.0
H3720 H 0.12919 0.71734 0.68465 0.0
H3721 H 0.14119 0.73904 0.66098 0.0
H3722 H 0.17585 0.69155 0.63875 0.0
H3723 H 0.16266 0.66921 0.66177 0.0
H3724 H 0.1749 0.75271 0.64839 0.0
H3725 H 0.14088 0.70349 0.59675 0.0
H3726 H 0.13745 0.69952 0.6206 0.0
H3727 H 0.16041 0.693 0.60998 0.0
C3728 C 0.13938 0.71146 0.67474 0.0
C3729 C 0.14447 0.6914 0.67476 0.0
C3730 C 0.14644 0.72397 0.66131 0.0
C3731 C 0.15899 0.71679 0.64775 0.0
C3732 C 0.16569 0.69724 0.64875 0.0
H3733 H 0.17607 0.81129 0.56642 0.0
H3734 H 0.18609 0.78528 0.58761 0.0
C3735 C 0.15834 0.68456 0.66207 0.0
C3736 C 0.16304 0.72947 0.63185 0.0
H3737 H 0.15113 0.73448 0.58726 0.0
C3738 C 0.17003 0.74866 0.63492 0.0
C3739 C 0.15667 0.72411 0.61429 0.0
C3740 C 0.1483 0.70399 0.61013 0.0
C3741 C 0.1692 0.76312 0.62138 0.0
C3742 C 0.16189 0.75798 0.60409 0.0
C3743 C 0.15661 0.73836 0.60058 0.0
C3744 C 0.15674 0.77304 0.59037 0.0
C3745 C 0.17467 0.78403 0.62618 0.0
C3746 C 0.13713 0.77433 0.58436 0.0
C3747 C 0.13154 0.78881 0.57205 0.0
C3748 C 0.14539 0.80248 0.56569 0.0
C3749 C 0.16509 0.80108 0.57144 0.0
C3750 C 0.17079 0.7863 0.58354 0.0
H3751 H 0.1763 0.78613 0.641 0.0
H3752 H 0.18895 0.78781 0.61974 0.0
H3753 H 0.16335 0.79452 0.62117 0.0
H3754 H 0.126 0.76431 0.58946 0.0
H3755 H 0.11627 0.78968 0.56787 0.0
H3756 H 0.09163 0.41008 0.41617 0.0
H3757 H 0.07375 0.42732 0.39222 0.0
H3758 H 0.0197 0.39942 0.40935 0.0
H3759 H 0.03716 0.38317 0.43384 0.0
H3760 H 0.05741 0.41044 0.36492 0.0
H3761 H 0.99889 0.45257 0.39838 0.0
H3762 H 0.01982 0.44314 0.41076 0.0
H3763 H 0.99822 0.42805 0.40722 0.0
C3764 C 0.07581 0.40818 0.41523 0.0
C3765 C 0.06583 0.39514 0.42685 0.0
C3766 C 0.06563 0.41798 0.40146 0.0
C3767 C 0.04531 0.41494 0.39911 0.0
C3768 C 0.03525 0.40251 0.41115 0.0
H3769 H 0.97798 0.3819 0.31416 0.0
H3770 H 0.00416 0.38987 0.33533 0.0
C3771 C 0.04534 0.39289 0.42497 0.0
C3772 C 0.03504 0.42213 0.3827 0.0
H3773 H 0.98968 0.43762 0.3689 0.0
C3774 C 0.04284 0.41697 0.36576 0.0
C3775 C 0.0163 0.43126 0.38357 0.0
C3776 C 0.008 0.43926 0.401 0.0
C3777 C 0.03148 0.41856 0.35001 0.0
C3778 C 0.01167 0.42487 0.35136 0.0
C3779 C 0.0047 0.43224 0.3679 0.0
C3780 C 0.9972 0.42099 0.33679 0.0
C3781 C 0.04057 0.41257 0.33222 0.0
C3782 C 0.98424 0.43573 0.33077 0.0
C3783 C 0.969 0.43109 0.31875 0.0
C3784 C 0.96648 0.41164 0.31262 0.0
C3785 C 0.97977 0.39707 0.31834 0.0
C3786 C 0.99484 0.40166 0.3304 0.0
H3787 H 0.05652 0.4163 0.33193 0.0
H3788 H 0.03931 0.39636 0.3306 0.0
H3789 H 0.03318 0.41984 0.32061 0.0
H3790 H 0.98568 0.4507 0.33566 0.0
H3791 H 0.95905 0.44263 0.31442 0.0
H3792 H 0.35772 0.67037 0.31343 0.0
H3793 H 0.34205 0.6895 0.3377 0.0
H3794 H 0.37881 0.73932 0.32448 0.0
H3795 H 0.39446 0.7203 0.30037 0.0
H3796 H 0.36605 0.70372 0.36629 0.0
H3797 H 0.32431 0.76441 0.33412 0.0
H3798 H 0.33044 0.74188 0.32235 0.0
H3799 H 0.34847 0.76115 0.32465 0.0
C3800 C 0.36192 0.68562 0.31536 0.0
C3801 C 0.37726 0.69394 0.30514 0.0
C3802 C 0.35303 0.69647 0.32921 0.0
C3803 C 0.35917 0.71584 0.33273 0.0
C3804 C 0.37362 0.72452 0.32175 0.0
H3805 H 0.38283 0.78724 0.42197 0.0
H3806 H 0.38151 0.76378 0.39705 0.0
C3807 C 0.38263 0.71364 0.30808 0.0
C3808 C 0.35296 0.72604 0.3494 0.0
H3809 H 0.33554 0.77011 0.3647 0.0
C3810 C 0.35894 0.71803 0.36601 0.0
C3811 C 0.34363 0.74464 0.34897 0.0
C3812 C 0.33616 0.75346 0.33157 0.0
C3813 C 0.35707 0.72877 0.38209 0.0
C3814 C 0.34911 0.74797 0.38144 0.0
C3815 C 0.34185 0.75544 0.36506 0.0
C3816 C 0.34973 0.76111 0.39729 0.0
C3817 C 0.36427 0.71986 0.39956 0.0
C3818 C 0.33227 0.76732 0.4056 0.0
C3819 C 0.33296 0.78057 0.42002 0.0
C3820 C 0.35114 0.7881 0.42618 0.0
C3821 C 0.36861 0.78162 0.41783 0.0
C3822 C 0.3679 0.76824 0.40353 0.0
H3823 H 0.36547 0.70357 0.39861 0.0
H3824 H 0.37909 0.72584 0.40275 0.0
H3825 H 0.35423 0.72367 0.4109 0.0
H3826 H 0.31813 0.76194 0.40091 0.0
H3827 H 0.31923 0.78492 0.42628 0.0
H3828 H 0.95355 0.56652 0.17647 0.0
H3829 H 0.97989 0.55893 0.15493 0.0
H3830 H 0.01018 0.61221 0.17029 0.0
H3831 H 0.984 0.62006 0.19144 0.0
H3832 H 0.98804 0.58318 0.12634 0.0
H3833 H 0.05552 0.57331 0.16685 0.0
H3834 H 0.03111 0.57108 0.17646 0.0
H3835 H 0.04243 0.59494 0.17387 0.0
C3836 C 0.96593 0.57651 0.1754 0.0
C3837 C 0.96653 0.59402 0.1856 0.0
C3838 C 0.98105 0.57203 0.16321 0.0
C3839 C 0.99714 0.58483 0.16122 0.0
C3840 C 0.9982 0.60182 0.17197 0.0
H3841 H 0.07277 0.64067 0.09412 0.0
H3842 H 0.05494 0.62384 0.11821 0.0
C3843 C 0.9831 0.60634 0.18406 0.0
C3844 C 0.01127 0.5824 0.14616 0.0
H3845 H 0.06021 0.58721 0.13657 0.0
C3846 C 0.00386 0.58338 0.12847 0.0
C3847 C 0.03187 0.58254 0.14901 0.0
C3848 C 0.04068 0.58019 0.1676 0.0
C3849 C 0.01642 0.58665 0.11371 0.0
C3850 C 0.03692 0.58864 0.1168 0.0
C3851 C 0.04447 0.58581 0.13427 0.0
C3852 C 0.05001 0.59714 0.10286 0.0
C3853 C 0.0075 0.58972 0.09522 0.0
C3854 C 0.05361 0.58747 0.08642 0.0
C3855 C 0.06364 0.59719 0.0725 0.0
C3856 C 0.07017 0.61669 0.07489 0.0
C3857 C 0.0675 0.62583 0.09175 0.0
C3858 C 0.05752 0.61615 0.10559 0.0
H3859 H 0.99112 0.58985 0.09558 0.0
H3860 H 0.01267 0.60385 0.08934 0.0
H3861 H 0.01227 0.57766 0.08609 0.0
H3862 H 0.04811 0.57269 0.08417 0.0
H3863 H 0.06557 0.58978 0.05965 0.0
H3864 H 0.1486 0.33064 0.82956 0.0
H3865 H 0.16229 0.3088 0.85299 0.0
H3866 H 0.11918 0.26454 0.83917 0.0
H3867 H 0.10567 0.28609 0.81589 0.0
H3868 H 0.14015 0.29465 0.88258 0.0
H3869 H 0.17044 0.23292 0.84273 0.0
H3870 H 0.16583 0.25692 0.83305 0.0
H3871 H 0.1461 0.23932 0.83529 0.0
C3872 C 0.14243 0.31606 0.83132 0.0
C3873 C 0.12609 0.30999 0.82104 0.0
C3874 C 0.15017 0.30367 0.84468 0.0
C3875 C 0.14188 0.285 0.84761 0.0
C3876 C 0.12603 0.27874 0.83688 0.0
H3877 H 0.11011 0.21144 0.93174 0.0
H3878 H 0.11669 0.23945 0.91189 0.0
C3879 C 0.11823 0.2911 0.82371 0.0
C3880 C 0.14813 0.27258 0.86296 0.0
H3881 H 0.15875 0.2248 0.8729 0.0
C3882 C 0.14475 0.27951 0.88056 0.0
C3883 C 0.15447 0.25298 0.86031 0.0
C3884 C 0.15963 0.24517 0.84181 0.0
C3885 C 0.14584 0.26678 0.89547 0.0
C3886 C 0.15005 0.24663 0.89255 0.0
C3887 C 0.15519 0.24018 0.87513 0.0
C3888 C 0.14715 0.23155 0.90676 0.0
C3889 C 0.14183 0.27492 0.91408 0.0
C3890 C 0.16202 0.21777 0.91043 0.0
C3891 C 0.15815 0.20161 0.92153 0.0
C3892 C 0.13935 0.19896 0.92916 0.0
C3893 C 0.12476 0.21325 0.92617 0.0
C3894 C 0.12857 0.22932 0.91493 0.0
H3895 H 0.14625 0.29064 0.91498 0.0
H3896 H 0.12577 0.2741 0.91688 0.0
H3897 H 0.14978 0.26647 0.92467 0.0
H3898 H 0.17642 0.21917 0.90422 0.0
H3899 H 0.16976 0.19098 0.92387 0.0
H3900 H 0.41998 0.42111 0.57703 0.0
H3901 H 0.44178 0.43703 0.59897 0.0
H3902 H 0.49101 0.4039 0.57788 0.0
H3903 H 0.46968 0.38902 0.55536 0.0
H3904 H 0.45829 0.41876 0.62492 0.0
H3905 H 0.51865 0.45376 0.5877 0.0
H3906 H 0.49601 0.44671 0.5766 0.0
H3907 H 0.51606 0.42936 0.57889 0.0
C3908 C 0.4356 0.41783 0.57662 0.0
C3909 C 0.44308 0.40363 0.56459 0.0
C3910 C 0.44803 0.42688 0.58923 0.0
C3911 C 0.46813 0.42188 0.59001 0.0
C3912 C 0.47573 0.40851 0.57732 0.0
H3913 H 0.53647 0.3816 0.67281 0.0
H3914 H 0.51096 0.39173 0.65163 0.0
C3915 C 0.46341 0.39968 0.56463 0.0
C3916 C 0.48049 0.42772 0.60567 0.0
H3917 H 0.52844 0.4372 0.61644 0.0
C3918 C 0.47346 0.42342 0.62309 0.0
C3919 C 0.50013 0.43439 0.60356 0.0
C3920 C 0.50799 0.44153 0.58565 0.0
C3921 C 0.48613 0.42343 0.63805 0.0
C3922 C 0.50644 0.42717 0.63539 0.0
C3923 C 0.51298 0.43371 0.61841 0.0
C3924 C 0.52133 0.4218 0.64919 0.0
C3925 C 0.47772 0.4186 0.65641 0.0
C3926 C 0.53611 0.43512 0.65443 0.0
C3927 C 0.55097 0.4292 0.66639 0.0
C3928 C 0.55124 0.40989 0.67327 0.0
C3929 C 0.53639 0.39667 0.66803 0.0
C3930 C 0.52172 0.4025 0.656 0.0
H3931 H 0.46237 0.42415 0.65764 0.0
H3932 H 0.47722 0.40237 0.65812 0.0
H3933 H 0.48673 0.42503 0.66747 0.0
H3934 H 0.53622 0.45001 0.64919 0.0
H3935 H 0.56218 0.43971 0.6703 0.0
loop_
_geom_bond_atom_site_label_1
_geom_bond_atom_site_label_2
_geom_bond_distance
_geom_bond_site_symmetry_2
_ccdc_geom_bond_type
C0 C1 1.351 . S
C0 N3 1.368 . S
C0 H5 0.931 . S
C1 C0 1.351 . S
C1 N2 1.373 . S
C1 H29 0.930 . S
N2 C1 1.373 . S
N2 C4 1.340 . S
N3 C0 1.368 . S
N3 C4 1.321 . S
N3 Co6 2.135 . S
C4 N2 1.340 . S
C4 N3 1.321 . S
C4 H28 0.930 . S
H5 C0 0.931 . S
Co6 N3 2.135 . S
Co6 N9 2.121 . S
Co6 O14 2.055 . S
Co6 O17 2.039 . S
Co6 N20 2.140 . S
C7 O8 1.227 . S
C7 O17 1.265 . S
O8 C7 1.227 . S
N9 Co6 2.121 . S
N9 C11 1.375 . S
N9 C12 1.313 . S
C10 C11 1.338 . S
C10 N13 1.377 . S
C10 H30 0.930 . S
C11 N9 1.375 . S
C11 C10 1.338 . S
C11 H15 0.931 . S
C12 N9 1.313 . S
C12 N13 1.344 . S
C12 H16 0.930 . S
N13 C10 1.377 . S
N13 C12 1.344 . S
O14 Co6 2.055 . S
O14 C18 1.253 . S
H15 C11 0.931 . S
H16 C12 0.930 . S
O17 Co6 2.039 . S
O17 C7 1.265 . S
C18 O14 1.253 . S
C18 O19 1.227 . S
O19 C18 1.227 . S
N20 Co6 2.140 . S
N20 C23 1.346 . S
N20 C24 1.345 . S
C21 C22 1.387 . S
C21 C25 1.391 . S
C22 C21 1.387 . S
C22 C23 1.369 . S
C22 H31 0.929 . S
C23 N20 1.346 . S
C23 C22 1.369 . S
C23 H26 0.928 . S
C24 N20 1.345 . S
C24 C25 1.371 . S
C24 H27 0.931 . S
C25 C21 1.391 . S
C25 C24 1.371 . S
C25 H32 0.930 . S
H26 C23 0.928 . S
H27 C24 0.931 . S
H28 C4 0.930 . S
H29 C1 0.930 . S
H30 C10 0.930 . S
H31 C22 0.929 . S
H32 C25 0.930 . S
C33 C34 1.351 . S
C33 N36 1.368 . S
C33 H38 0.931 . S
C34 C33 1.351 . S
C34 N35 1.373 . S
C34 H62 0.930 . S
N35 C34 1.373 . S
N35 C37 1.340 . S
N36 C33 1.368 . S
N36 C37 1.321 . S
N36 Co39 2.135 . S
C37 N35 1.340 . S
C37 N36 1.321 . S
C37 H61 0.930 . S
H38 C33 0.931 . S
Co39 N36 2.135 . S
Co39 N42 2.121 . S
Co39 O47 2.055 . S
Co39 O50 2.039 . S
Co39 N53 2.140 . S
C40 O41 1.227 . S
C40 O50 1.265 . S
O41 C40 1.227 . S
N42 Co39 2.121 . S
N42 C44 1.375 . S
N42 C45 1.313 . S
C43 C44 1.338 . S
C43 N46 1.377 . S
C43 H63 0.930 . S
C44 N42 1.375 . S
C44 C43 1.338 . S
C44 H48 0.931 . S
C45 N42 1.313 . S
C45 N46 1.344 . S
C45 H49 0.930 . S
N46 C43 1.377 . S
N46 C45 1.344 . S
O47 Co39 2.055 . S
O47 C51 1.253 . S
H48 C44 0.931 . S
H49 C45 0.930 . S
O50 Co39 2.039 . S
O50 C40 1.265 . S
C51 O47 1.253 . S
C51 O52 1.227 . S
O52 C51 1.227 . S
N53 Co39 2.140 . S
N53 C56 1.346 . S
N53 C57 1.345 . S
C54 C55 1.387 . S
C54 C58 1.391 . S
C55 C54 1.387 . S
C55 C56 1.369 . S
C55 H64 0.929 . S
C56 N53 1.346 . S
C56 C55 1.369 . S
C56 H59 0.928 . S
C57 N53 1.345 . S
C57 C58 1.371 . S
C57 H60 0.931 . S
C58 C54 1.391 . S
C58 C57 1.371 . S
C58 H65 0.930 . S
H59 C56 0.928 . S
H60 C57 0.931 . S
H61 C37 0.930 . S
H62 C34 0.930 . S
H63 C43 0.930 . S
H64 C55 0.929 . S
H65 C58 0.930 . S
C66 C67 1.351 . S
C66 N69 1.368 . S
C66 H71 0.931 . S
C67 C66 1.351 . S
C67 N68 1.373 . S
C67 H95 0.930 . S
N68 C67 1.373 . S
N68 C70 1.340 . S
N69 C66 1.368 . S
N69 C70 1.321 . S
N69 Co72 2.135 . S
C70 N68 1.340 . S
C70 N69 1.321 . S
C70 H94 0.930 . S
H71 C66 0.931 . S
Co72 N69 2.135 . S
Co72 N75 2.121 . S
Co72 O80 2.055 . S
Co72 O83 2.039 . S
Co72 N86 2.140 . S
C73 O74 1.227 . S
C73 O83 1.265 . S
O74 C73 1.227 . S
N75 Co72 2.121 . S
N75 C77 1.375 . S
N75 C78 1.313 . S
C76 C77 1.338 . S
C76 N79 1.377 . S
C76 H96 0.930 . S
C77 N75 1.375 . S
C77 C76 1.338 . S
C77 H81 0.931 . S
C78 N75 1.313 . S
C78 N79 1.344 . S
C78 H82 0.930 . S
N79 C76 1.377 . S
N79 C78 1.344 . S
O80 Co72 2.055 . S
O80 C84 1.253 . S
H81 C77 0.931 . S
H82 C78 0.930 . S
O83 Co72 2.039 . S
O83 C73 1.265 . S
C84 O80 1.253 . S
C84 O85 1.227 . S
O85 C84 1.227 . S
N86 Co72 2.140 . S
N86 C89 1.346 . S
N86 C90 1.345 . S
C87 C88 1.387 . S
C87 C91 1.391 . S
C88 C87 1.387 . S
C88 C89 1.369 . S
C88 H97 0.929 . S
C89 N86 1.346 . S
C89 C88 1.369 . S
C89 H92 0.928 . S
C90 N86 1.345 . S
C90 C91 1.371 . S
C90 H93 0.931 . S
C91 C87 1.391 . S
C91 C90 1.371 . S
C91 H98 0.930 . S
H92 C89 0.928 . S
H93 C90 0.931 . S
H94 C70 0.930 . S
H95 C67 0.930 . S
H96 C76 0.930 . S
H97 C88 0.929 . S
H98 C91 0.930 . S
C99 C100 1.351 . S
C99 N102 1.368 . S
C99 H104 0.931 . S
C100 C99 1.351 . S
C100 N101 1.373 . S
C100 H128 0.930 . S
N101 C100 1.373 . S
N101 C103 1.340 . S
N102 C99 1.368 . S
N102 C103 1.321 . S
N102 Co105 2.135 . S
C103 N101 1.340 . S
C103 N102 1.321 . S
C103 H127 0.930 . S
H104 C99 0.931 . S
Co105 N102 2.135 . S
Co105 N108 2.121 1_554 S
Co105 O113 2.055 . S
Co105 O116 2.039 . S
Co105 N119 2.140 . S
C106 O107 1.227 . S
C106 O116 1.265 . S
O107 C106 1.227 . S
N108 Co105 2.121 1_556 S
N108 C110 1.375 . S
N108 C111 1.313 . S
C109 C110 1.338 . S
C109 N112 1.377 . S
C109 H129 0.930 . S
C110 N108 1.375 . S
C110 C109 1.338 . S
C110 H114 0.948 . S
C111 N108 1.313 . S
C111 N112 1.344 . S
C111 H115 0.930 . S
N112 C109 1.377 . S
N112 C111 1.344 . S
O113 Co105 2.055 . S
O113 C117 1.253 . S
H114 C110 0.948 . S
H115 C111 0.930 . S
O116 Co105 2.039 . S
O116 C106 1.265 . S
C117 O113 1.253 . S
C117 O118 1.227 . S
O118 C117 1.227 . S
N119 Co105 2.140 . S
N119 C122 1.346 . S
N119 C123 1.345 . S
C120 C121 1.387 . S
C120 C124 1.391 . S
C121 C120 1.387 . S
C121 C122 1.369 . S
C121 H130 0.929 . S
C122 N119 1.346 . S
C122 C121 1.369 . S
C122 H125 0.928 . S
C123 N119 1.345 . S
C123 C124 1.371 . S
C123 H126 0.931 . S
C124 C120 1.391 . S
C124 C123 1.371 . S
C124 H131 0.930 . S
H125 C122 0.928 . S
H126 C123 0.931 . S
H127 C103 0.930 . S
H128 C100 0.930 . S
H129 C109 0.930 . S
H130 C121 0.929 . S
H131 C124 0.930 . S
C132 C133 1.351 . S
C132 N135 1.368 . S
C132 H137 0.931 . S
C133 C132 1.351 . S
C133 N134 1.373 . S
C133 H161 0.930 . S
N134 C133 1.373 . S
N134 C136 1.340 . S
N135 C132 1.368 . S
N135 C136 1.321 . S
N135 Co138 2.135 . S
C136 N134 1.340 . S
C136 N135 1.321 . S
C136 H160 0.930 . S
H137 C132 0.931 . S
Co138 N135 2.135 . S
Co138 N141 2.121 . S
Co138 O146 2.055 . S
Co138 O149 2.039 . S
Co138 N152 2.140 . S
C139 O140 1.227 . S
C139 O149 1.265 . S
O140 C139 1.227 . S
N141 Co138 2.121 . S
N141 C143 1.375 . S
N141 C144 1.313 . S
C142 C143 1.338 . S
C142 N145 1.377 . S
C142 H162 0.930 . S
C143 N141 1.375 . S
C143 C142 1.338 . S
C143 H147 0.931 . S
C144 N141 1.313 . S
C144 N145 1.344 . S
C144 H148 0.930 . S
N145 C142 1.377 . S
N145 C144 1.344 . S
O146 Co138 2.055 . S
O146 C150 1.253 . S
H147 C143 0.931 . S
H148 C144 0.930 . S
O149 Co138 2.039 . S
O149 C139 1.265 . S
C150 O146 1.253 . S
C150 O151 1.227 . S
O151 C150 1.227 . S
N152 Co138 2.140 . S
N152 C155 1.346 . S
N152 C156 1.345 . S
C153 C154 1.387 . S
C153 C157 1.391 . S
C154 C153 1.387 . S
C154 C155 1.369 . S
C154 H163 0.929 . S
C155 N152 1.346 . S
C155 C154 1.369 . S
C155 H158 0.928 . S
C156 N152 1.345 . S
C156 C157 1.371 . S
C156 H159 0.931 . S
C157 C153 1.391 . S
C157 C156 1.371 . S
C157 H164 0.930 . S
H158 C155 0.928 . S
H159 C156 0.931 . S
H160 C136 0.930 . S
H161 C133 0.930 . S
H162 C142 0.930 . S
H163 C154 0.929 . S
H164 C157 0.930 . S
C165 C166 1.351 . S
C165 N168 1.368 . S
C165 H170 0.931 . S
C166 C165 1.351 . S
C166 N167 1.373 . S
C166 H194 0.930 . S
N167 C166 1.373 . S
N167 C169 1.340 . S
N168 C165 1.368 . S
N168 C169 1.321 . S
N168 Co171 2.135 . S
C169 N167 1.340 . S
C169 N168 1.321 . S
C169 H193 0.930 . S
H170 C165 0.931 . S
Co171 N168 2.135 . S
Co171 N174 2.121 . S
Co171 O179 2.055 . S
Co171 O182 2.039 . S
Co171 N185 2.140 . S
C172 O173 1.227 . S
C172 O182 1.265 . S
O173 C172 1.227 . S
N174 Co171 2.121 . S
N174 C176 1.375 . S
N174 C177 1.313 . S
C175 C176 1.338 . S
C175 N178 1.377 . S
C175 H195 0.930 . S
C176 N174 1.375 . S
C176 C175 1.338 . S
C176 H180 0.931 . S
C177 N174 1.313 . S
C177 N178 1.344 . S
C177 H181 0.930 . S
N178 C175 1.377 . S
N178 C177 1.344 . S
O179 Co171 2.055 . S
O179 C183 1.253 . S
H180 C176 0.931 . S
H181 C177 0.930 . S
O182 Co171 2.039 . S
O182 C172 1.265 . S
C183 O179 1.253 . S
C183 O184 1.227 . S
O184 C183 1.227 . S
N185 Co171 2.140 . S
N185 C188 1.346 . S
N185 C189 1.345 . S
C186 C187 1.387 . S
C186 C190 1.391 . S
C187 C186 1.387 . S
C187 C188 1.369 . S
C187 H196 0.929 . S
C188 N185 1.346 . S
C188 C187 1.369 . S
C188 H191 0.928 . S
C189 N185 1.345 . S
C189 C190 1.371 . S
C189 H192 0.931 . S
C190 C186 1.391 . S
C190 C189 1.371 . S
C190 H197 0.930 . S
H191 C188 0.928 . S
H192 C189 0.931 . S
H193 C169 0.930 . S
H194 C166 0.930 . S
H195 C175 0.930 . S
H196 C187 0.929 . S
H197 C190 0.930 . S
C198 C199 1.351 . S
C198 N201 1.368 . S
C198 H203 0.931 . S
C199 C198 1.351 . S
C199 N200 1.373 . S
C199 H227 0.930 . S
N200 C199 1.373 . S
N200 C202 1.340 . S
N201 C198 1.368 . S
N201 C202 1.321 . S
N201 Co204 2.135 . S
C202 N200 1.340 . S
C202 N201 1.321 . S
C202 H226 0.930 . S
H203 C198 0.931 . S
Co204 N201 2.135 . S
Co204 N207 2.121 . S
Co204 O212 2.055 . S
Co204 O215 2.039 . S
Co204 N218 2.140 . S
C205 O206 1.227 . S
C205 O215 1.265 . S
O206 C205 1.227 . S
N207 Co204 2.121 . S
N207 C209 1.375 . S
N207 C210 1.313 . S
C208 C209 1.338 . S
C208 N211 1.377 . S
C208 H228 0.930 . S
C209 N207 1.375 . S
C209 C208 1.338 . S
C209 H213 0.931 . S
C210 N207 1.313 . S
C210 N211 1.344 . S
C210 H214 0.930 . S
N211 C208 1.377 . S
N211 C210 1.344 . S
O212 Co204 2.055 . S
O212 C216 1.253 . S
H213 C209 0.931 . S
H214 C210 0.930 . S
O215 Co204 2.039 . S
O215 C205 1.265 . S
C216 O212 1.253 . S
C216 O217 1.227 . S
O217 C216 1.227 . S
N218 Co204 2.140 . S
N218 C221 1.346 . S
N218 C222 1.345 . S
C219 C220 1.387 . S
C219 C223 1.391 . S
C220 C219 1.387 . S
C220 C221 1.369 . S
C220 H229 0.929 . S
C221 N218 1.346 . S
C221 C220 1.369 . S
C221 H224 0.928 . S
C222 N218 1.345 . S
C222 C223 1.371 . S
C222 H225 0.931 . S
C223 C219 1.391 . S
C223 C222 1.371 . S
C223 H230 0.930 . S
H224 C221 0.928 . S
H225 C222 0.931 . S
H226 C202 0.930 . S
H227 C199 0.930 . S
H228 C208 0.930 . S
H229 C220 0.929 . S
H230 C223 0.930 . S
C231 C232 1.351 . S
C231 N234 1.368 . S
C231 H236 0.931 . S
C232 C231 1.351 . S
C232 N233 1.373 . S
C232 H260 0.930 . S
N233 C232 1.373 . S
N233 C235 1.340 . S
N234 C231 1.368 . S
N234 C235 1.321 . S
N234 Co237 2.135 . S
C235 N233 1.340 . S
C235 N234 1.321 . S
C235 H259 0.930 . S
H236 C231 0.931 . S
Co237 N234 2.135 . S
Co237 N240 2.121 1_556 S
Co237 O245 2.055 . S
Co237 O248 2.039 . S
Co237 N251 2.140 . S
C238 O239 1.227 . S
C238 O248 1.265 . S
O239 C238 1.227 . S
N240 Co237 2.121 1_554 S
N240 C242 1.375 . S
N240 C243 1.313 . S
C241 C242 1.338 . S
C241 N244 1.377 . S
C241 H261 0.930 . S
C242 N240 1.375 . S
C242 C241 1.338 . S
C242 H246 0.948 . S
C243 N240 1.313 . S
C243 N244 1.344 . S
C243 H247 0.930 . S
N244 C241 1.377 . S
N244 C243 1.344 . S
O245 Co237 2.055 . S
O245 C249 1.253 . S
H246 C242 0.948 . S
H247 C243 0.930 . S
O248 Co237 2.039 . S
O248 C238 1.265 . S
C249 O245 1.253 . S
C249 O250 1.227 . S
O250 C249 1.227 . S
N251 Co237 2.140 . S
N251 C254 1.346 . S
N251 C255 1.345 . S
C252 C253 1.387 . S
C252 C256 1.391 . S
C253 C252 1.387 . S
C253 C254 1.369 . S
C253 H262 0.929 . S
C254 N251 1.346 . S
C254 C253 1.369 . S
C254 H257 0.928 . S
C255 N251 1.345 . S
C255 C256 1.371 . S
C255 H258 0.931 . S
C256 C252 1.391 . S
C256 C255 1.371 . S
C256 H263 0.930 . S
H257 C254 0.928 . S
H258 C255 0.931 . S
H259 C235 0.930 . S
H260 C232 0.930 . S
H261 C241 0.930 . S
H262 C253 0.929 . S
H263 C256 0.930 . S
C264 C265 1.351 . S
C264 N267 1.368 . S
C264 H269 0.931 . S
C265 C264 1.351 . S
C265 N266 1.373 . S
C265 H293 0.930 . S
N266 C265 1.373 . S
N266 C268 1.340 . S
N267 C264 1.368 . S
N267 C268 1.321 . S
N267 Co270 2.135 . S
C268 N266 1.340 . S
C268 N267 1.321 . S
C268 H292 0.930 . S
H269 C264 0.931 . S
Co270 N267 2.135 . S
Co270 N273 2.121 . S
Co270 O278 2.055 . S
Co270 O281 2.039 . S
Co270 N284 2.140 . S
C271 O272 1.227 . S
C271 O281 1.265 . S
O272 C271 1.227 . S
N273 Co270 2.121 . S
N273 C275 1.375 . S
N273 C276 1.313 . S
C274 C275 1.338 . S
C274 N277 1.377 . S
C274 H294 0.930 . S
C275 N273 1.375 . S
C275 C274 1.338 . S
C275 H279 0.931 . S
C276 N273 1.313 . S
C276 N277 1.344 . S
C276 H280 0.930 . S
N277 C274 1.377 . S
N277 C276 1.344 . S
O278 Co270 2.055 . S
O278 C282 1.253 . S
H279 C275 0.931 . S
H280 C276 0.930 . S
O281 Co270 2.039 . S
O281 C271 1.265 . S
C282 O278 1.253 . S
C282 O283 1.227 . S
O283 C282 1.227 . S
N284 Co270 2.140 . S
N284 C287 1.346 . S
N284 C288 1.345 . S
C285 C286 1.387 . S
C285 C289 1.391 . S
C286 C285 1.387 . S
C286 C287 1.369 . S
C286 H295 0.929 . S
C287 N284 1.346 . S
C287 C286 1.369 . S
C287 H290 0.928 . S
C288 N284 1.345 . S
C288 C289 1.371 . S
C288 H291 0.931 . S
C289 C285 1.391 . S
C289 C288 1.371 . S
C289 H296 0.930 . S
H290 C287 0.928 . S
H291 C288 0.931 . S
H292 C268 0.930 . S
H293 C265 0.930 . S
H294 C274 0.930 . S
H295 C286 0.929 . S
H296 C289 0.930 . S
C297 C298 1.351 . S
C297 N300 1.368 . S
C297 H302 0.931 . S
C298 C297 1.351 . S
C298 N299 1.373 . S
C298 H326 0.930 . S
N299 C298 1.373 . S
N299 C301 1.340 . S
N300 C297 1.368 . S
N300 C301 1.321 . S
N300 Co303 2.135 . S
C301 N299 1.340 . S
C301 N300 1.321 . S
C301 H325 0.930 . S
H302 C297 0.931 . S
Co303 N300 2.135 . S
Co303 N306 2.121 . S
Co303 O311 2.055 . S
Co303 O314 2.039 . S
Co303 N317 2.140 . S
C304 O305 1.227 . S
C304 O314 1.265 . S
O305 C304 1.227 . S
N306 Co303 2.121 . S
N306 C308 1.375 . S
N306 C309 1.313 . S
C307 C308 1.338 . S
C307 N310 1.377 . S
C307 H327 0.930 . S
C308 N306 1.375 . S
C308 C307 1.338 . S
C308 H312 0.931 . S
C309 N306 1.313 . S
C309 N310 1.344 . S
C309 H313 0.930 . S
N310 C307 1.377 . S
N310 C309 1.344 . S
O311 Co303 2.055 . S
O311 C315 1.253 . S
H312 C308 0.931 . S
H313 C309 0.930 . S
O314 Co303 2.039 . S
O314 C304 1.265 . S
C315 O311 1.253 . S
C315 O316 1.227 . S
O316 C315 1.227 . S
N317 Co303 2.140 . S
N317 C320 1.346 . S
N317 C321 1.345 . S
C318 C319 1.387 . S
C318 C322 1.391 . S
C319 C318 1.387 . S
C319 C320 1.369 . S
C319 H328 0.929 . S
C320 N317 1.346 . S
C320 C319 1.369 . S
C320 H323 0.928 . S
C321 N317 1.345 . S
C321 C322 1.371 . S
C321 H324 0.931 . S
C322 C318 1.391 . S
C322 C321 1.371 . S
C322 H329 0.930 . S
H323 C320 0.928 . S
H324 C321 0.931 . S
H325 C301 0.930 . S
H326 C298 0.930 . S
H327 C307 0.930 . S
H328 C319 0.929 . S
H329 C322 0.930 . S
C330 C331 1.351 . S
C330 N333 1.368 . S
C330 H335 0.931 . S
C331 C330 1.351 . S
C331 N332 1.373 . S
C331 H359 0.930 . S
N332 C331 1.373 . S
N332 C334 1.340 . S
N333 C330 1.368 . S
N333 C334 1.321 . S
N333 Co336 2.135 . S
C334 N332 1.340 . S
C334 N333 1.321 . S
C334 H358 0.930 . S
H335 C330 0.931 . S
Co336 N333 2.135 . S
Co336 N339 2.121 . S
Co336 O344 2.055 . S
Co336 O347 2.039 . S
Co336 N350 2.140 . S
C337 O338 1.227 . S
C337 O347 1.265 . S
O338 C337 1.227 . S
N339 Co336 2.121 . S
N339 C341 1.375 . S
N339 C342 1.313 . S
C340 C341 1.338 . S
C340 N343 1.377 . S
C340 H360 0.930 . S
C341 N339 1.375 . S
C341 C340 1.338 . S
C341 H345 0.931 . S
C342 N339 1.313 . S
C342 N343 1.344 . S
C342 H346 0.930 . S
N343 C340 1.377 . S
N343 C342 1.344 . S
O344 Co336 2.055 . S
O344 C348 1.253 . S
H345 C341 0.931 . S
H346 C342 0.930 . S
O347 Co336 2.039 . S
O347 C337 1.265 . S
C348 O344 1.253 . S
C348 O349 1.227 . S
O349 C348 1.227 . S
N350 Co336 2.140 . S
N350 C353 1.346 . S
N350 C354 1.345 . S
C351 C352 1.387 . S
C351 C355 1.391 . S
C352 C351 1.387 . S
C352 C353 1.369 . S
C352 H361 0.929 . S
C353 N350 1.346 . S
C353 C352 1.369 . S
C353 H356 0.928 . S
C354 N350 1.345 . S
C354 C355 1.371 . S
C354 H357 0.931 . S
C355 C351 1.391 . S
C355 C354 1.371 . S
C355 H362 0.930 . S
H356 C353 0.928 . S
H357 C354 0.931 . S
H358 C334 0.930 . S
H359 C331 0.930 . S
H360 C340 0.930 . S
H361 C352 0.929 . S
H362 C355 0.930 . S
C363 C364 1.351 . S
C363 N366 1.368 . S
C363 H368 0.931 . S
C364 C363 1.351 . S
C364 N365 1.373 . S
C364 H392 0.930 . S
N365 C364 1.373 . S
N365 C367 1.340 . S
N366 C363 1.368 . S
N366 C367 1.321 . S
N366 Co369 2.135 . S
C367 N365 1.340 . S
C367 N366 1.321 . S
C367 H391 0.930 . S
H368 C363 0.931 . S
Co369 N366 2.135 . S
Co369 N372 2.121 1_556 S
Co369 O377 2.055 . S
Co369 O380 2.039 . S
Co369 N383 2.140 . S
C370 O371 1.227 . S
C370 O380 1.265 . S
O371 C370 1.227 . S
N372 Co369 2.121 1_554 S
N372 C374 1.375 . S
N372 C375 1.313 . S
C373 C374 1.338 . S
C373 N376 1.377 . S
C373 H393 0.930 . S
C374 N372 1.375 . S
C374 C373 1.338 . S
C374 H378 0.948 . S
C375 N372 1.313 . S
C375 N376 1.344 . S
C375 H379 0.930 . S
N376 C373 1.377 . S
N376 C375 1.344 . S
O377 Co369 2.055 . S
O377 C381 1.253 . S
H378 C374 0.948 . S
H379 C375 0.930 . S
O380 Co369 2.039 . S
O380 C370 1.265 . S
C381 O377 1.253 . S
C381 O382 1.227 . S
O382 C381 1.227 . S
N383 Co369 2.140 . S
N383 C386 1.346 . S
N383 C387 1.345 . S
C384 C385 1.387 . S
C384 C388 1.391 . S
C385 C384 1.387 . S
C385 C386 1.369 . S
C385 H394 0.929 . S
C386 N383 1.346 . S
C386 C385 1.369 . S
C386 H389 0.928 . S
C387 N383 1.345 . S
C387 C388 1.371 . S
C387 H390 0.931 . S
C388 C384 1.391 . S
C388 C387 1.371 . S
C388 H395 0.930 . S
H389 C386 0.928 . S
H390 C387 0.931 . S
H391 C367 0.930 . S
H392 C364 0.930 . S
H393 C373 0.930 . S
H394 C385 0.929 . S
H395 C388 0.930 . S
C396 C397 1.351 . S
C396 N399 1.368 . S
C396 H401 0.931 . S
C397 C396 1.351 . S
C397 N398 1.373 . S
C397 H425 0.930 . S
N398 C397 1.373 . S
N398 C400 1.340 . S
N399 C396 1.368 . S
N399 C400 1.321 . S
N399 Co402 2.135 . S
C400 N398 1.340 . S
C400 N399 1.321 . S
C400 H424 0.930 . S
H401 C396 0.931 . S
Co402 N399 2.135 . S
Co402 N405 2.121 . S
Co402 O410 2.055 . S
Co402 O413 2.039 . S
Co402 N416 2.140 . S
C403 O404 1.227 . S
C403 O413 1.265 . S
O404 C403 1.227 . S
N405 Co402 2.121 . S
N405 C407 1.375 . S
N405 C408 1.313 . S
C406 C407 1.338 . S
C406 N409 1.377 . S
C406 H426 0.930 . S
C407 N405 1.375 . S
C407 C406 1.338 . S
C407 H411 0.931 . S
C408 N405 1.313 . S
C408 N409 1.344 . S
C408 H412 0.930 . S
N409 C406 1.377 . S
N409 C408 1.344 . S
O410 Co402 2.055 . S
O410 C414 1.253 . S
H411 C407 0.931 . S
H412 C408 0.930 . S
O413 Co402 2.039 . S
O413 C403 1.265 . S
C414 O410 1.253 . S
C414 O415 1.227 . S
O415 C414 1.227 . S
N416 Co402 2.140 . S
N416 C419 1.346 . S
N416 C420 1.345 . S
C417 C418 1.387 . S
C417 C421 1.391 . S
C418 C417 1.387 . S
C418 C419 1.369 . S
C418 H427 0.929 . S
C419 N416 1.346 . S
C419 C418 1.369 . S
C419 H422 0.928 . S
C420 N416 1.345 . S
C420 C421 1.371 . S
C420 H423 0.931 . S
C421 C417 1.391 . S
C421 C420 1.371 . S
C421 H428 0.930 . S
H422 C419 0.928 . S
H423 C420 0.931 . S
H424 C400 0.930 . S
H425 C397 0.930 . S
H426 C406 0.930 . S
H427 C418 0.929 . S
H428 C421 0.930 . S
C429 C430 1.351 . S
C429 N432 1.368 . S
C429 H434 0.931 . S
C430 C429 1.351 . S
C430 N431 1.373 . S
C430 H458 0.930 . S
N431 C430 1.373 . S
N431 C433 1.340 . S
N432 C429 1.368 . S
N432 C433 1.321 . S
N432 Co435 2.135 . S
C433 N431 1.340 . S
C433 N432 1.321 . S
C433 H457 0.930 . S
H434 C429 0.931 . S
Co435 N432 2.135 . S
Co435 N438 2.121 . S
Co435 O443 2.055 . S
Co435 O446 2.039 . S
Co435 N449 2.140 . S
C436 O437 1.227 . S
C436 O446 1.265 . S
O437 C436 1.227 . S
N438 Co435 2.121 . S
N438 C440 1.375 . S
N438 C441 1.313 . S
C439 C440 1.338 . S
C439 N442 1.377 . S
C439 H459 0.930 . S
C440 N438 1.375 . S
C440 C439 1.338 . S
C440 H444 0.931 . S
C441 N438 1.313 . S
C441 N442 1.344 . S
C441 H445 0.930 . S
N442 C439 1.377 . S
N442 C441 1.344 . S
O443 Co435 2.055 . S
O443 C447 1.253 . S
H444 C440 0.931 . S
H445 C441 0.930 . S
O446 Co435 2.039 . S
O446 C436 1.265 . S
C447 O443 1.253 . S
C447 O448 1.227 . S
O448 C447 1.227 . S
N449 Co435 2.140 . S
N449 C452 1.346 . S
N449 C453 1.345 . S
C450 C451 1.387 . S
C450 C454 1.391 . S
C451 C450 1.387 . S
C451 C452 1.369 . S
C451 H460 0.929 . S
C452 N449 1.346 . S
C452 C451 1.369 . S
C452 H455 0.928 . S
C453 N449 1.345 . S
C453 C454 1.371 . S
C453 H456 0.931 . S
C454 C450 1.391 . S
C454 C453 1.371 . S
C454 H461 0.930 . S
H455 C452 0.928 . S
H456 C453 0.931 . S
H457 C433 0.930 . S
H458 C430 0.930 . S
H459 C439 0.930 . S
H460 C451 0.929 . S
H461 C454 0.930 . S
C462 C463 1.351 . S
C462 N465 1.368 . S
C462 H467 0.931 . S
C463 C462 1.351 . S
C463 N464 1.373 . S
C463 H491 0.930 . S
N464 C463 1.373 . S
N464 C466 1.340 . S
N465 C462 1.368 . S
N465 C466 1.321 . S
N465 Co468 2.135 . S
C466 N464 1.340 . S
C466 N465 1.321 . S
C466 H490 0.930 . S
H467 C462 0.931 . S
Co468 N465 2.135 . S
Co468 N471 2.121 . S
Co468 O476 2.055 . S
Co468 O479 2.039 . S
Co468 N482 2.140 . S
C469 O470 1.227 . S
C469 O479 1.265 . S
O470 C469 1.227 . S
N471 Co468 2.121 . S
N471 C473 1.375 . S
N471 C474 1.313 . S
C472 C473 1.338 . S
C472 N475 1.377 . S
C472 H492 0.930 . S
C473 N471 1.375 . S
C473 C472 1.338 . S
C473 H477 0.931 . S
C474 N471 1.313 . S
C474 N475 1.344 . S
C474 H478 0.930 . S
N475 C472 1.377 . S
N475 C474 1.344 . S
O476 Co468 2.055 . S
O476 C480 1.253 . S
H477 C473 0.931 . S
H478 C474 0.930 . S
O479 Co468 2.039 . S
O479 C469 1.265 . S
C480 O476 1.253 . S
C480 O481 1.227 . S
O481 C480 1.227 . S
N482 Co468 2.140 . S
N482 C485 1.346 . S
N482 C486 1.345 . S
C483 C484 1.387 . S
C483 C487 1.391 . S
C484 C483 1.387 . S
C484 C485 1.369 . S
C484 H493 0.929 . S
C485 N482 1.346 . S
C485 C484 1.369 . S
C485 H488 0.928 . S
C486 N482 1.345 . S
C486 C487 1.371 . S
C486 H489 0.931 . S
C487 C483 1.391 . S
C487 C486 1.371 . S
C487 H494 0.930 . S
H488 C485 0.928 . S
H489 C486 0.931 . S
H490 C466 0.930 . S
H491 C463 0.930 . S
H492 C472 0.930 . S
H493 C484 0.929 . S
H494 C487 0.930 . S
C495 C496 1.351 . S
C495 N498 1.368 . S
C495 H500 0.931 . S
C496 C495 1.351 . S
C496 N497 1.373 . S
C496 H524 0.930 . S
N497 C496 1.373 . S
N497 C499 1.340 . S
N498 C495 1.368 . S
N498 C499 1.321 . S
N498 Co501 2.135 . S
C499 N497 1.340 . S
C499 N498 1.321 . S
C499 H523 0.930 . S
H500 C495 0.931 . S
Co501 N498 2.135 . S
Co501 N504 2.121 1_554 S
Co501 O509 2.055 . S
Co501 O512 2.039 . S
Co501 N515 2.140 . S
C502 O503 1.227 . S
C502 O512 1.265 . S
O503 C502 1.227 . S
N504 Co501 2.121 1_556 S
N504 C506 1.375 . S
N504 C507 1.313 . S
C505 C506 1.338 . S
C505 N508 1.377 . S
C505 H525 0.930 . S
C506 N504 1.375 . S
C506 C505 1.338 . S
C506 H510 0.948 . S
C507 N504 1.313 . S
C507 N508 1.344 . S
C507 H511 0.930 . S
N508 C505 1.377 . S
N508 C507 1.344 . S
O509 Co501 2.055 . S
O509 C513 1.253 . S
H510 C506 0.948 . S
H511 C507 0.930 . S
O512 Co501 2.039 . S
O512 C502 1.265 . S
C513 O509 1.253 . S
C513 O514 1.227 . S
O514 C513 1.227 . S
N515 Co501 2.140 . S
N515 C518 1.346 . S
N515 C519 1.345 . S
C516 C517 1.387 . S
C516 C520 1.391 . S
C517 C516 1.387 . S
C517 C518 1.369 . S
C517 H526 0.929 . S
C518 N515 1.346 . S
C518 C517 1.369 . S
C518 H521 0.928 . S
C519 N515 1.345 . S
C519 C520 1.371 . S
C519 H522 0.931 . S
C520 C516 1.391 . S
C520 C519 1.371 . S
C520 H527 0.930 . S
H521 C518 0.928 . S
H522 C519 0.931 . S
H523 C499 0.930 . S
H524 C496 0.930 . S
H525 C505 0.930 . S
H526 C517 0.929 . S
H527 C520 0.930 . S
C528 C529 1.351 . S
C528 N531 1.368 . S
C528 H533 0.931 . S
C529 C528 1.351 . S
C529 N530 1.373 . S
C529 H557 0.930 . S
N530 C529 1.373 . S
N530 C532 1.340 . S
N531 C528 1.368 . S
N531 C532 1.321 . S
N531 Co534 2.135 . S
C532 N530 1.340 . S
C532 N531 1.321 . S
C532 H556 0.930 . S
H533 C528 0.931 . S
Co534 N531 2.135 . S
Co534 N537 2.121 . S
Co534 O542 2.055 . S
Co534 O545 2.039 . S
Co534 N548 2.140 . S
C535 O536 1.227 . S
C535 O545 1.265 . S
O536 C535 1.227 . S
N537 Co534 2.121 . S
N537 C539 1.375 . S
N537 C540 1.313 . S
C538 C539 1.338 . S
C538 N541 1.377 . S
C538 H558 0.930 . S
C539 N537 1.375 . S
C539 C538 1.338 . S
C539 H543 0.931 . S
C540 N537 1.313 . S
C540 N541 1.344 . S
C540 H544 0.930 . S
N541 C538 1.377 . S
N541 C540 1.344 . S
O542 Co534 2.055 . S
O542 C546 1.253 . S
H543 C539 0.931 . S
H544 C540 0.930 . S
O545 Co534 2.039 . S
O545 C535 1.265 . S
C546 O542 1.253 . S
C546 O547 1.227 . S
O547 C546 1.227 . S
N548 Co534 2.140 . S
N548 C551 1.346 . S
N548 C552 1.345 . S
C549 C550 1.387 . S
C549 C553 1.391 . S
C550 C549 1.387 . S
C550 C551 1.369 . S
C550 H559 0.929 . S
C551 N548 1.346 . S
C551 C550 1.369 . S
C551 H554 0.928 . S
C552 N548 1.345 . S
C552 C553 1.371 . S
C552 H555 0.931 . S
C553 C549 1.391 . S
C553 C552 1.371 . S
C553 H560 0.930 . S
H554 C551 0.928 . S
H555 C552 0.931 . S
H556 C532 0.930 . S
H557 C529 0.930 . S
H558 C538 0.930 . S
H559 C550 0.929 . S
H560 C553 0.930 . S
C561 C562 1.351 . S
C561 N564 1.368 . S
C561 H566 0.931 . S
C562 C561 1.351 . S
C562 N563 1.373 . S
C562 H590 0.930 . S
N563 C562 1.373 . S
N563 C565 1.340 . S
N564 C561 1.368 . S
N564 C565 1.321 . S
N564 Co567 2.135 . S
C565 N563 1.340 . S
C565 N564 1.321 . S
C565 H589 0.930 . S
H566 C561 0.931 . S
Co567 N564 2.135 . S
Co567 N570 2.121 1_554 S
Co567 O575 2.055 . S
Co567 O578 2.039 . S
Co567 N581 2.140 . S
C568 O569 1.227 . S
C568 O578 1.265 . S
O569 C568 1.227 . S
N570 Co567 2.121 1_556 S
N570 C572 1.375 . S
N570 C573 1.313 . S
C571 C572 1.338 . S
C571 N574 1.377 . S
C571 H591 0.930 . S
C572 N570 1.375 . S
C572 C571 1.338 . S
C572 H576 0.948 . S
C573 N570 1.313 . S
C573 N574 1.344 . S
C573 H577 0.930 . S
N574 C571 1.377 . S
N574 C573 1.344 . S
O575 Co567 2.055 . S
O575 C579 1.253 . S
H576 C572 0.948 . S
H577 C573 0.930 . S
O578 Co567 2.039 . S
O578 C568 1.265 . S
C579 O575 1.253 . S
C579 O580 1.227 . S
O580 C579 1.227 . S
N581 Co567 2.140 . S
N581 C584 1.346 . S
N581 C585 1.345 . S
C582 C583 1.387 . S
C582 C586 1.391 . S
C583 C582 1.387 . S
C583 C584 1.369 . S
C583 H592 0.929 . S
C584 N581 1.346 . S
C584 C583 1.369 . S
C584 H587 0.928 . S
C585 N581 1.345 . S
C585 C586 1.371 . S
C585 H588 0.931 . S
C586 C582 1.391 . S
C586 C585 1.371 . S
C586 H593 0.930 . S
H587 C584 0.928 . S
H588 C585 0.931 . S
H589 C565 0.930 . S
H590 C562 0.930 . S
H591 C571 0.930 . S
H592 C583 0.929 . S
H593 C586 0.930 . S
C594 C595 1.351 . S
C594 N597 1.368 . S
C594 H599 0.931 . S
C595 C594 1.351 . S
C595 N596 1.373 . S
C595 H623 0.930 . S
N596 C595 1.373 . S
N596 C598 1.340 . S
N597 C594 1.368 . S
N597 C598 1.321 . S
N597 Co600 2.135 . S
C598 N596 1.340 . S
C598 N597 1.321 . S
C598 H622 0.930 . S
H599 C594 0.931 . S
Co600 N597 2.135 . S
Co600 N603 2.121 . S
Co600 O608 2.055 . S
Co600 O611 2.039 . S
Co600 N614 2.140 . S
C601 O602 1.227 . S
C601 O611 1.265 . S
O602 C601 1.227 . S
N603 Co600 2.121 . S
N603 C605 1.375 . S
N603 C606 1.313 . S
C604 C605 1.338 . S
C604 N607 1.377 . S
C604 H624 0.930 . S
C605 N603 1.375 . S
C605 C604 1.338 . S
C605 H609 0.931 . S
C606 N603 1.313 . S
C606 N607 1.344 . S
C606 H610 0.930 . S
N607 C604 1.377 . S
N607 C606 1.344 . S
O608 Co600 2.055 . S
O608 C612 1.253 . S
H609 C605 0.931 . S
H610 C606 0.930 . S
O611 Co600 2.039 . S
O611 C601 1.265 . S
C612 O608 1.253 . S
C612 O613 1.227 . S
O613 C612 1.227 . S
N614 Co600 2.140 . S
N614 C617 1.346 . S
N614 C618 1.345 . S
C615 C616 1.387 . S
C615 C619 1.391 . S
C616 C615 1.387 . S
C616 C617 1.369 . S
C616 H625 0.929 . S
C617 N614 1.346 . S
C617 C616 1.369 . S
C617 H620 0.928 . S
C618 N614 1.345 . S
C618 C619 1.371 . S
C618 H621 0.931 . S
C619 C615 1.391 . S
C619 C618 1.371 . S
C619 H626 0.930 . S
H620 C617 0.928 . S
H621 C618 0.931 . S
H622 C598 0.930 . S
H623 C595 0.930 . S
H624 C604 0.930 . S
H625 C616 0.929 . S
H626 C619 0.930 . S
C627 C628 1.351 . S
C627 N630 1.368 . S
C627 H632 0.931 . S
C628 C627 1.351 . S
C628 N629 1.373 . S
C628 H656 0.930 . S
N629 C628 1.373 . S
N629 C631 1.340 . S
N630 C627 1.368 . S
N630 C631 1.321 . S
N630 Co633 2.135 . S
C631 N629 1.340 . S
C631 N630 1.321 . S
C631 H655 0.930 . S
H632 C627 0.931 . S
Co633 N630 2.135 . S
Co633 N636 2.121 . S
Co633 O641 2.055 . S
Co633 O644 2.039 . S
Co633 N647 2.140 . S
C634 O635 1.227 . S
C634 O644 1.265 . S
O635 C634 1.227 . S
N636 Co633 2.121 . S
N636 C638 1.375 . S
N636 C639 1.313 . S
C637 C638 1.338 . S
C637 N640 1.377 . S
C637 H657 0.930 . S
C638 N636 1.375 . S
C638 C637 1.338 . S
C638 H642 0.931 . S
C639 N636 1.313 . S
C639 N640 1.344 . S
C639 H643 0.930 . S
N640 C637 1.377 . S
N640 C639 1.344 . S
O641 Co633 2.055 . S
O641 C645 1.253 . S
H642 C638 0.931 . S
H643 C639 0.930 . S
O644 Co633 2.039 . S
O644 C634 1.265 . S
C645 O641 1.253 . S
C645 O646 1.227 . S
O646 C645 1.227 . S
N647 Co633 2.140 . S
N647 C650 1.346 . S
N647 C651 1.345 . S
C648 C649 1.387 . S
C648 C652 1.391 . S
C649 C648 1.387 . S
C649 C650 1.369 . S
C649 H658 0.929 . S
C650 N647 1.346 . S
C650 C649 1.369 . S
C650 H653 0.928 . S
C651 N647 1.345 . S
C651 C652 1.371 . S
C651 H654 0.931 . S
C652 C648 1.391 . S
C652 C651 1.371 . S
C652 H659 0.930 . S
H653 C650 0.928 . S
H654 C651 0.931 . S
H655 C631 0.930 . S
H656 C628 0.930 . S
H657 C637 0.930 . S
H658 C649 0.929 . S
H659 C652 0.930 . S
C660 C661 1.351 . S
C660 N663 1.368 . S
C660 H665 0.931 . S
C661 C660 1.351 . S
C661 N662 1.373 . S
C661 H689 0.930 . S
N662 C661 1.373 . S
N662 C664 1.340 . S
N663 C660 1.368 . S
N663 C664 1.321 . S
N663 Co666 2.135 . S
C664 N662 1.340 . S
C664 N663 1.321 . S
C664 H688 0.930 . S
H665 C660 0.931 . S
Co666 N663 2.135 . S
Co666 N669 2.121 . S
Co666 O674 2.055 . S
Co666 O677 2.039 . S
Co666 N680 2.140 . S
C667 O668 1.227 . S
C667 O677 1.265 . S
O668 C667 1.227 . S
N669 Co666 2.121 . S
N669 C671 1.375 . S
N669 C672 1.313 . S
C670 C671 1.338 . S
C670 N673 1.377 . S
C670 H690 0.930 . S
C671 N669 1.375 . S
C671 C670 1.338 . S
C671 H675 0.931 . S
C672 N669 1.313 . S
C672 N673 1.344 . S
C672 H676 0.930 . S
N673 C670 1.377 . S
N673 C672 1.344 . S
O674 Co666 2.055 . S
O674 C678 1.253 . S
H675 C671 0.931 . S
H676 C672 0.930 . S
O677 Co666 2.039 . S
O677 C667 1.265 . S
C678 O674 1.253 . S
C678 O679 1.227 . S
O679 C678 1.227 . S
N680 Co666 2.140 . S
N680 C683 1.346 . S
N680 C684 1.345 . S
C681 C682 1.387 . S
C681 C685 1.391 . S
C682 C681 1.387 . S
C682 C683 1.369 . S
C682 H691 0.929 . S
C683 N680 1.346 . S
C683 C682 1.369 . S
C683 H686 0.928 . S
C684 N680 1.345 . S
C684 C685 1.371 . S
C684 H687 0.931 . S
C685 C681 1.391 . S
C685 C684 1.371 . S
C685 H692 0.930 . S
H686 C683 0.928 . S
H687 C684 0.931 . S
H688 C664 0.930 . S
H689 C661 0.930 . S
H690 C670 0.930 . S
H691 C682 0.929 . S
H692 C685 0.930 . S
C693 C694 1.351 . S
C693 N696 1.368 . S
C693 H698 0.931 . S
C694 C693 1.351 . S
C694 N695 1.373 . S
C694 H722 0.930 . S
N695 C694 1.373 . S
N695 C697 1.340 . S
N696 C693 1.368 . S
N696 C697 1.321 . S
N696 Co699 2.135 . S
C697 N695 1.340 . S
C697 N696 1.321 . S
C697 H721 0.930 . S
H698 C693 0.931 . S
Co699 N696 2.135 . S
Co699 N702 2.121 1_556 S
Co699 O707 2.055 . S
Co699 O710 2.039 . S
Co699 N713 2.140 . S
C700 O701 1.227 . S
C700 O710 1.265 . S
O701 C700 1.227 . S
N702 Co699 2.121 1_554 S
N702 C704 1.375 . S
N702 C705 1.313 . S
C703 C704 1.338 . S
C703 N706 1.377 . S
C703 H723 0.930 . S
C704 N702 1.375 . S
C704 C703 1.338 . S
C704 H708 0.948 . S
C705 N702 1.313 . S
C705 N706 1.344 . S
C705 H709 0.930 . S
N706 C703 1.377 . S
N706 C705 1.344 . S
O707 Co699 2.055 . S
O707 C711 1.253 . S
H708 C704 0.948 . S
H709 C705 0.930 . S
O710 Co699 2.039 . S
O710 C700 1.265 . S
C711 O707 1.253 . S
C711 O712 1.227 . S
O712 C711 1.227 . S
N713 Co699 2.140 . S
N713 C716 1.346 . S
N713 C717 1.345 . S
C714 C715 1.387 . S
C714 C718 1.391 . S
C715 C714 1.387 . S
C715 C716 1.369 . S
C715 H724 0.929 . S
C716 N713 1.346 . S
C716 C715 1.369 . S
C716 H719 0.928 . S
C717 N713 1.345 . S
C717 C718 1.371 . S
C717 H720 0.931 . S
C718 C714 1.391 . S
C718 C717 1.371 . S
C718 H725 0.930 . S
H719 C716 0.928 . S
H720 C717 0.931 . S
H721 C697 0.930 . S
H722 C694 0.930 . S
H723 C703 0.930 . S
H724 C715 0.929 . S
H725 C718 0.930 . S
C726 C727 1.351 . S
C726 N729 1.368 . S
C726 H731 0.931 . S
C727 C726 1.351 . S
C727 N728 1.373 . S
C727 H755 0.930 . S
N728 C727 1.373 . S
N728 C730 1.340 . S
N729 C726 1.368 . S
N729 C730 1.321 . S
N729 Co732 2.135 . S
C730 N728 1.340 . S
C730 N729 1.321 . S
C730 H754 0.930 . S
H731 C726 0.931 . S
Co732 N729 2.135 . S
Co732 N735 2.121 . S
Co732 O740 2.055 . S
Co732 O743 2.039 . S
Co732 N746 2.140 . S
C733 O734 1.227 . S
C733 O743 1.265 . S
O734 C733 1.227 . S
N735 Co732 2.121 . S
N735 C737 1.375 . S
N735 C738 1.313 . S
C736 C737 1.338 . S
C736 N739 1.377 . S
C736 H756 0.930 . S
C737 N735 1.375 . S
C737 C736 1.338 . S
C737 H741 0.931 . S
C738 N735 1.313 . S
C738 N739 1.344 . S
C738 H742 0.930 . S
N739 C736 1.377 . S
N739 C738 1.344 . S
O740 Co732 2.055 . S
O740 C744 1.253 . S
H741 C737 0.931 . S
H742 C738 0.930 . S
O743 Co732 2.039 . S
O743 C733 1.265 . S
C744 O740 1.253 . S
C744 O745 1.227 . S
O745 C744 1.227 . S
N746 Co732 2.140 . S
N746 C749 1.346 . S
N746 C750 1.345 . S
C747 C748 1.387 . S
C747 C751 1.391 . S
C748 C747 1.387 . S
C748 C749 1.369 . S
C748 H757 0.929 . S
C749 N746 1.346 . S
C749 C748 1.369 . S
C749 H752 0.928 . S
C750 N746 1.345 . S
C750 C751 1.371 . S
C750 H753 0.931 . S
C751 C747 1.391 . S
C751 C750 1.371 . S
C751 H758 0.930 . S
H752 C749 0.928 . S
H753 C750 0.931 . S
H754 C730 0.930 . S
H755 C727 0.930 . S
H756 C736 0.930 . S
H757 C748 0.929 . S
H758 C751 0.930 . S
C759 C760 1.351 . S
C759 N762 1.368 . S
C759 H764 0.931 . S
C760 C759 1.351 . S
C760 N761 1.373 . S
C760 H788 0.930 . S
N761 C760 1.373 . S
N761 C763 1.340 . S
N762 C759 1.368 . S
N762 C763 1.321 . S
N762 Co765 2.135 . S
C763 N761 1.340 . S
C763 N762 1.321 . S
C763 H787 0.930 . S
H764 C759 0.931 . S
Co765 N762 2.135 . S
Co765 N768 2.121 . S
Co765 O773 2.055 . S
Co765 O776 2.039 . S
Co765 N779 2.140 . S
C766 O767 1.227 . S
C766 O776 1.265 . S
O767 C766 1.227 . S
N768 Co765 2.121 . S
N768 C770 1.375 . S
N768 C771 1.313 . S
C769 C770 1.338 . S
C769 N772 1.377 . S
C769 H789 0.930 . S
C770 N768 1.375 . S
C770 C769 1.338 . S
C770 H774 0.931 . S
C771 N768 1.313 . S
C771 N772 1.344 . S
C771 H775 0.930 . S
N772 C769 1.377 . S
N772 C771 1.344 . S
O773 Co765 2.055 . S
O773 C777 1.253 . S
H774 C770 0.931 . S
H775 C771 0.930 . S
O776 Co765 2.039 . S
O776 C766 1.265 . S
C777 O773 1.253 . S
C777 O778 1.227 . S
O778 C777 1.227 . S
N779 Co765 2.140 . S
N779 C782 1.346 . S
N779 C783 1.345 . S
C780 C781 1.387 . S
C780 C784 1.391 . S
C781 C780 1.387 . S
C781 C782 1.369 . S
C781 H790 0.929 . S
C782 N779 1.346 . S
C782 C781 1.369 . S
C782 H785 0.928 . S
C783 N779 1.345 . S
C783 C784 1.371 . S
C783 H786 0.931 . S
C784 C780 1.391 . S
C784 C783 1.371 . S
C784 H791 0.930 . S
H785 C782 0.928 . S
H786 C783 0.931 . S
H787 C763 0.930 . S
H788 C760 0.930 . S
H789 C769 0.930 . S
H790 C781 0.929 . S
H791 C784 0.930 . S
C792 C793 1.351 . S
C792 N795 1.368 . S
C792 H797 0.931 . S
C793 C792 1.351 . S
C793 N794 1.373 . S
C793 H821 0.930 . S
N794 C793 1.373 . S
N794 C796 1.340 . S
N795 C792 1.368 . S
N795 C796 1.321 . S
N795 Co798 2.135 . S
C796 N794 1.340 . S
C796 N795 1.321 . S
C796 H820 0.930 . S
H797 C792 0.931 . S
Co798 N795 2.135 . S
Co798 N801 2.121 . S
Co798 O806 2.055 . S
Co798 O809 2.039 . S
Co798 N812 2.140 . S
C799 O800 1.227 . S
C799 O809 1.265 . S
O800 C799 1.227 . S
N801 Co798 2.121 . S
N801 C803 1.375 . S
N801 C804 1.313 . S
C802 C803 1.338 . S
C802 N805 1.377 . S
C802 H822 0.930 . S
C803 N801 1.375 . S
C803 C802 1.338 . S
C803 H807 0.931 . S
C804 N801 1.313 . S
C804 N805 1.344 . S
C804 H808 0.930 . S
N805 C802 1.377 . S
N805 C804 1.344 . S
O806 Co798 2.055 . S
O806 C810 1.253 . S
H807 C803 0.931 . S
H808 C804 0.930 . S
O809 Co798 2.039 . S
O809 C799 1.265 . S
C810 O806 1.253 . S
C810 O811 1.227 . S
O811 C810 1.227 . S
N812 Co798 2.140 . S
N812 C815 1.346 . S
N812 C816 1.345 . S
C813 C814 1.387 . S
C813 C817 1.391 . S
C814 C813 1.387 . S
C814 C815 1.369 . S
C814 H823 0.929 . S
C815 N812 1.346 . S
C815 C814 1.369 . S
C815 H818 0.928 . S
C816 N812 1.345 . S
C816 C817 1.371 . S
C816 H819 0.931 . S
C817 C813 1.391 . S
C817 C816 1.371 . S
C817 H824 0.930 . S
H818 C815 0.928 . S
H819 C816 0.931 . S
H820 C796 0.930 . S
H821 C793 0.930 . S
H822 C802 0.930 . S
H823 C814 0.929 . S
H824 C817 0.930 . S
C825 C826 1.351 . S
C825 N828 1.368 . S
C825 H830 0.931 . S
C826 C825 1.351 . S
C826 N827 1.373 . S
C826 H854 0.930 . S
N827 C826 1.373 . S
N827 C829 1.340 . S
N828 C825 1.368 . S
N828 C829 1.321 . S
N828 Co831 2.135 . S
C829 N827 1.340 . S
C829 N828 1.321 . S
C829 H853 0.930 . S
H830 C825 0.931 . S
Co831 N828 2.135 . S
Co831 N834 2.121 1_556 S
Co831 O839 2.055 . S
Co831 O842 2.039 . S
Co831 N845 2.140 . S
C832 O833 1.227 . S
C832 O842 1.265 . S
O833 C832 1.227 . S
N834 Co831 2.121 1_554 S
N834 C836 1.375 . S
N834 C837 1.313 . S
C835 C836 1.338 . S
C835 N838 1.377 . S
C835 H855 0.930 . S
C836 N834 1.375 . S
C836 C835 1.338 . S
C836 H840 0.948 . S
C837 N834 1.313 . S
C837 N838 1.344 . S
C837 H841 0.930 . S
N838 C835 1.377 . S
N838 C837 1.344 . S
O839 Co831 2.055 . S
O839 C843 1.253 . S
H840 C836 0.948 . S
H841 C837 0.930 . S
O842 Co831 2.039 . S
O842 C832 1.265 . S
C843 O839 1.253 . S
C843 O844 1.227 . S
O844 C843 1.227 . S
N845 Co831 2.140 . S
N845 C848 1.346 . S
N845 C849 1.345 . S
C846 C847 1.387 . S
C846 C850 1.391 . S
C847 C846 1.387 . S
C847 C848 1.369 . S
C847 H856 0.929 . S
C848 N845 1.346 . S
C848 C847 1.369 . S
C848 H851 0.928 . S
C849 N845 1.345 . S
C849 C850 1.371 . S
C849 H852 0.931 . S
C850 C846 1.391 . S
C850 C849 1.371 . S
C850 H857 0.930 . S
H851 C848 0.928 . S
H852 C849 0.931 . S
H853 C829 0.930 . S
H854 C826 0.930 . S
H855 C835 0.930 . S
H856 C847 0.929 . S
H857 C850 0.930 . S
C858 C859 1.351 . S
C858 N861 1.368 . S
C858 H863 0.931 . S
C859 C858 1.351 . S
C859 N860 1.373 . S
C859 H887 0.930 . S
N860 C859 1.373 . S
N860 C862 1.340 . S
N861 C858 1.368 . S
N861 C862 1.321 . S
N861 Co864 2.135 . S
C862 N860 1.340 . S
C862 N861 1.321 . S
C862 H886 0.930 . S
H863 C858 0.931 . S
Co864 N861 2.135 . S
Co864 N867 2.121 . S
Co864 O872 2.055 . S
Co864 O875 2.039 . S
Co864 N878 2.140 . S
C865 O866 1.227 . S
C865 O875 1.265 . S
O866 C865 1.227 . S
N867 Co864 2.121 . S
N867 C869 1.375 . S
N867 C870 1.313 . S
C868 C869 1.338 . S
C868 N871 1.377 . S
C868 H888 0.930 . S
C869 N867 1.375 . S
C869 C868 1.338 . S
C869 H873 0.931 . S
C870 N867 1.313 . S
C870 N871 1.344 . S
C870 H874 0.930 . S
N871 C868 1.377 . S
N871 C870 1.344 . S
O872 Co864 2.055 . S
O872 C876 1.253 . S
H873 C869 0.931 . S
H874 C870 0.930 . S
O875 Co864 2.039 . S
O875 C865 1.265 . S
C876 O872 1.253 . S
C876 O877 1.227 . S
O877 C876 1.227 . S
N878 Co864 2.140 . S
N878 C881 1.346 . S
N878 C882 1.345 . S
C879 C880 1.387 . S
C879 C883 1.391 . S
C880 C879 1.387 . S
C880 C881 1.369 . S
C880 H889 0.929 . S
C881 N878 1.346 . S
C881 C880 1.369 . S
C881 H884 0.928 . S
C882 N878 1.345 . S
C882 C883 1.371 . S
C882 H885 0.931 . S
C883 C879 1.391 . S
C883 C882 1.371 . S
C883 H890 0.930 . S
H884 C881 0.928 . S
H885 C882 0.931 . S
H886 C862 0.930 . S
H887 C859 0.930 . S
H888 C868 0.930 . S
H889 C880 0.929 . S
H890 C883 0.930 . S
C891 C892 1.351 . S
C891 N894 1.368 . S
C891 H896 0.931 . S
C892 C891 1.351 . S
C892 N893 1.373 . S
C892 H920 0.930 . S
N893 C892 1.373 . S
N893 C895 1.340 . S
N894 C891 1.368 . S
N894 C895 1.321 . S
N894 Co897 2.135 . S
C895 N893 1.340 . S
C895 N894 1.321 . S
C895 H919 0.930 . S
H896 C891 0.931 . S
Co897 N894 2.135 . S
Co897 N900 2.121 . S
Co897 O905 2.055 . S
Co897 O908 2.039 . S
Co897 N911 2.140 . S
C898 O899 1.227 . S
C898 O908 1.265 . S
O899 C898 1.227 . S
N900 Co897 2.121 . S
N900 C902 1.375 . S
N900 C903 1.313 . S
C901 C902 1.338 . S
C901 N904 1.377 . S
C901 H921 0.930 . S
C902 N900 1.375 . S
C902 C901 1.338 . S
C902 H906 0.931 . S
C903 N900 1.313 . S
C903 N904 1.344 . S
C903 H907 0.930 . S
N904 C901 1.377 . S
N904 C903 1.344 . S
O905 Co897 2.055 . S
O905 C909 1.253 . S
H906 C902 0.931 . S
H907 C903 0.930 . S
O908 Co897 2.039 . S
O908 C898 1.265 . S
C909 O905 1.253 . S
C909 O910 1.227 . S
O910 C909 1.227 . S
N911 Co897 2.140 . S
N911 C914 1.346 . S
N911 C915 1.345 . S
C912 C913 1.387 . S
C912 C916 1.391 . S
C913 C912 1.387 . S
C913 C914 1.369 . S
C913 H922 0.929 . S
C914 N911 1.346 . S
C914 C913 1.369 . S
C914 H917 0.928 . S
C915 N911 1.345 . S
C915 C916 1.371 . S
C915 H918 0.931 . S
C916 C912 1.391 . S
C916 C915 1.371 . S
C916 H923 0.930 . S
H917 C914 0.928 . S
H918 C915 0.931 . S
H919 C895 0.930 . S
H920 C892 0.930 . S
H921 C901 0.930 . S
H922 C913 0.929 . S
H923 C916 0.930 . S
C924 C925 1.351 . S
C924 N927 1.368 . S
C924 H929 0.931 . S
C925 C924 1.351 . S
C925 N926 1.373 . S
C925 H953 0.930 . S
N926 C925 1.373 . S
N926 C928 1.340 . S
N927 C924 1.368 . S
N927 C928 1.321 . S
N927 Co930 2.135 . S
C928 N926 1.340 . S
C928 N927 1.321 . S
C928 H952 0.930 . S
H929 C924 0.931 . S
Co930 N927 2.135 . S
Co930 N933 2.121 . S
Co930 O938 2.055 . S
Co930 O941 2.039 . S
Co930 N944 2.140 . S
C931 O932 1.227 . S
C931 O941 1.265 . S
O932 C931 1.227 . S
N933 Co930 2.121 . S
N933 C935 1.375 . S
N933 C936 1.313 . S
C934 C935 1.338 . S
C934 N937 1.377 . S
C934 H954 0.930 . S
C935 N933 1.375 . S
C935 C934 1.338 . S
C935 H939 0.931 . S
C936 N933 1.313 . S
C936 N937 1.344 . S
C936 H940 0.930 . S
N937 C934 1.377 . S
N937 C936 1.344 . S
O938 Co930 2.055 . S
O938 C942 1.253 . S
H939 C935 0.931 . S
H940 C936 0.930 . S
O941 Co930 2.039 . S
O941 C931 1.265 . S
C942 O938 1.253 . S
C942 O943 1.227 . S
O943 C942 1.227 . S
N944 Co930 2.140 . S
N944 C947 1.346 . S
N944 C948 1.345 . S
C945 C946 1.387 . S
C945 C949 1.391 . S
C946 C945 1.387 . S
C946 C947 1.369 . S
C946 H955 0.929 . S
C947 N944 1.346 . S
C947 C946 1.369 . S
C947 H950 0.928 . S
C948 N944 1.345 . S
C948 C949 1.371 . S
C948 H951 0.931 . S
C949 C945 1.391 . S
C949 C948 1.371 . S
C949 H956 0.930 . S
H950 C947 0.928 . S
H951 C948 0.931 . S
H952 C928 0.930 . S
H953 C925 0.930 . S
H954 C934 0.930 . S
H955 C946 0.929 . S
H956 C949 0.930 . S
C957 C958 1.351 . S
C957 N960 1.368 . S
C957 H962 0.931 . S
C958 C957 1.351 . S
C958 N959 1.373 . S
C958 H986 0.930 . S
N959 C958 1.373 . S
N959 C961 1.340 . S
N960 C957 1.368 . S
N960 C961 1.321 . S
N960 Co963 2.135 . S
C961 N959 1.340 . S
C961 N960 1.321 . S
C961 H985 0.930 . S
H962 C957 0.931 . S
Co963 N960 2.135 . S
Co963 N966 2.121 1_554 S
Co963 O971 2.055 . S
Co963 O974 2.039 . S
Co963 N977 2.140 . S
C964 O965 1.227 . S
C964 O974 1.265 . S
O965 C964 1.227 . S
N966 Co963 2.121 1_556 S
N966 C968 1.375 . S
N966 C969 1.313 . S
C967 C968 1.338 . S
C967 N970 1.377 . S
C967 H987 0.930 . S
C968 N966 1.375 . S
C968 C967 1.338 . S
C968 H972 0.948 . S
C969 N966 1.313 . S
C969 N970 1.344 . S
C969 H973 0.930 . S
N970 C967 1.377 . S
N970 C969 1.344 . S
O971 Co963 2.055 . S
O971 C975 1.253 . S
H972 C968 0.948 . S
H973 C969 0.930 . S
O974 Co963 2.039 . S
O974 C964 1.265 . S
C975 O971 1.253 . S
C975 O976 1.227 . S
O976 C975 1.227 . S
N977 Co963 2.140 . S
N977 C980 1.346 . S
N977 C981 1.345 . S
C978 C979 1.387 . S
C978 C982 1.391 . S
C979 C978 1.387 . S
C979 C980 1.369 . S
C979 H988 0.929 . S
C980 N977 1.346 . S
C980 C979 1.369 . S
C980 H983 0.928 . S
C981 N977 1.345 . S
C981 C982 1.371 . S
C981 H984 0.931 . S
C982 C978 1.391 . S
C982 C981 1.371 . S
C982 H989 0.930 . S
H983 C980 0.928 . S
H984 C981 0.931 . S
H985 C961 0.930 . S
H986 C958 0.930 . S
H987 C967 0.930 . S
H988 C979 0.929 . S
H989 C982 0.930 . S
C990 C991 1.351 . S
C990 N993 1.368 . S
C990 H995 0.931 . S
C991 C990 1.351 . S
C991 N992 1.373 . S
C991 H1019 0.930 . S
N992 C991 1.373 . S
N992 C994 1.340 . S
N993 C990 1.368 . S
N993 C994 1.321 . S
N993 Co996 2.135 . S
C994 N992 1.340 . S
C994 N993 1.321 . S
C994 H1018 0.930 . S
H995 C990 0.931 . S
Co996 N993 2.135 . S
Co996 N999 2.121 . S
Co996 O1004 2.055 . S
Co996 O1007 2.039 . S
Co996 N1010 2.140 . S
C997 O998 1.227 . S
C997 O1007 1.265 . S
O998 C997 1.227 . S
N999 Co996 2.121 . S
N999 C1001 1.375 . S
N999 C1002 1.313 . S
C1000 C1001 1.338 . S
C1000 N1003 1.377 . S
C1000 H1020 0.930 . S
C1001 N999 1.375 . S
C1001 C1000 1.338 . S
C1001 H1005 0.931 . S
C1002 N999 1.313 . S
C1002 N1003 1.344 . S
C1002 H1006 0.930 . S
N1003 C1000 1.377 . S
N1003 C1002 1.344 . S
O1004 Co996 2.055 . S
O1004 C1008 1.253 . S
H1005 C1001 0.931 . S
H1006 C1002 0.930 . S
O1007 Co996 2.039 . S
O1007 C997 1.265 . S
C1008 O1004 1.253 . S
C1008 O1009 1.227 . S
O1009 C1008 1.227 . S
N1010 Co996 2.140 . S
N1010 C1013 1.346 . S
N1010 C1014 1.345 . S
C1011 C1012 1.387 . S
C1011 C1015 1.391 . S
C1012 C1011 1.387 . S
C1012 C1013 1.369 . S
C1012 H1021 0.929 . S
C1013 N1010 1.346 . S
C1013 C1012 1.369 . S
C1013 H1016 0.928 . S
C1014 N1010 1.345 . S
C1014 C1015 1.371 . S
C1014 H1017 0.931 . S
C1015 C1011 1.391 . S
C1015 C1014 1.371 . S
C1015 H1022 0.930 . S
H1016 C1013 0.928 . S
H1017 C1014 0.931 . S
H1018 C994 0.930 . S
H1019 C991 0.930 . S
H1020 C1000 0.930 . S
H1021 C1012 0.929 . S
H1022 C1015 0.930 . S
C1023 C1024 1.351 . S
C1023 N1026 1.368 . S
C1023 H1028 0.931 . S
C1024 C1023 1.351 . S
C1024 N1025 1.373 . S
C1024 H1052 0.930 . S
N1025 C1024 1.373 . S
N1025 C1027 1.340 . S
N1026 C1023 1.368 . S
N1026 C1027 1.321 . S
N1026 Co1029 2.135 . S
C1027 N1025 1.340 . S
C1027 N1026 1.321 . S
C1027 H1051 0.930 . S
H1028 C1023 0.931 . S
Co1029 N1026 2.135 . S
Co1029 N1032 2.121 . S
Co1029 O1037 2.055 . S
Co1029 O1040 2.039 . S
Co1029 N1043 2.140 . S
C1030 O1031 1.227 . S
C1030 O1040 1.265 . S
O1031 C1030 1.227 . S
N1032 Co1029 2.121 . S
N1032 C1034 1.375 . S
N1032 C1035 1.313 . S
C1033 C1034 1.338 . S
C1033 N1036 1.377 . S
C1033 H1053 0.930 . S
C1034 N1032 1.375 . S
C1034 C1033 1.338 . S
C1034 H1038 0.931 . S
C1035 N1032 1.313 . S
C1035 N1036 1.344 . S
C1035 H1039 0.930 . S
N1036 C1033 1.377 . S
N1036 C1035 1.344 . S
O1037 Co1029 2.055 . S
O1037 C1041 1.253 . S
H1038 C1034 0.931 . S
H1039 C1035 0.930 . S
O1040 Co1029 2.039 . S
O1040 C1030 1.265 . S
C1041 O1037 1.253 . S
C1041 O1042 1.227 . S
O1042 C1041 1.227 . S
N1043 Co1029 2.140 . S
N1043 C1046 1.346 . S
N1043 C1047 1.345 . S
C1044 C1045 1.387 . S
C1044 C1048 1.391 . S
C1045 C1044 1.387 . S
C1045 C1046 1.369 . S
C1045 H1054 0.929 . S
C1046 N1043 1.346 . S
C1046 C1045 1.369 . S
C1046 H1049 0.928 . S
C1047 N1043 1.345 . S
C1047 C1048 1.371 . S
C1047 H1050 0.931 . S
C1048 C1044 1.391 . S
C1048 C1047 1.371 . S
C1048 H1055 0.930 . S
H1049 C1046 0.928 . S
H1050 C1047 0.931 . S
H1051 C1027 0.930 . S
H1052 C1024 0.930 . S
H1053 C1033 0.930 . S
H1054 C1045 0.929 . S
H1055 C1048 0.930 . S
H1056 C1064 0.929 . S
H1057 C1066 0.930 . S
H1058 C1068 0.930 . S
H1059 C1071 0.929 . S
H1060 C1074 0.930 . S
H1061 C1076 0.960 . S
H1062 C1076 0.960 . S
H1063 C1076 0.960 . S
C1064 H1056 0.929 . S
C1064 C1065 1.377 . S
C1064 C1066 1.384 . S
C1065 C1064 1.377 . S
C1065 C1071 1.390 . S
C1066 H1057 0.930 . S
C1066 C1064 1.384 . S
C1066 C1067 1.372 . S
C1067 C1066 1.372 . S
C1067 C1068 1.400 . S
C1067 C1072 1.490 . S
C1068 H1058 0.930 . S
C1068 C1067 1.400 . S
C1068 C1071 1.386 . S
H1069 C1085 0.930 . S
H1070 C1086 0.931 . S
C1071 H1059 0.929 . S
C1071 C1065 1.390 . S
C1071 C1068 1.386 . S
C1072 C1067 1.490 . S
C1072 C1074 1.395 . S
C1072 C1075 1.403 . S
H1073 C1079 0.930 . S
C1074 H1060 0.930 . S
C1074 C1072 1.395 . S
C1074 C1077 1.403 . S
C1075 C1072 1.403 . S
C1075 C1076 1.524 . S
C1075 C1079 1.400 . S
C1076 H1061 0.960 . S
C1076 H1062 0.960 . S
C1076 H1063 0.960 . S
C1076 C1075 1.524 . S
C1077 C1074 1.403 . S
C1077 C1078 1.392 . S
C1077 C1081 1.495 . S
C1078 C1077 1.392 . S
C1078 C1079 1.385 . S
C1078 C1080 1.478 . S
C1079 H1073 0.930 . S
C1079 C1075 1.400 . S
C1079 C1078 1.385 . S
C1080 C1078 1.478 . S
C1080 C1082 1.381 . S
C1080 C1086 1.383 . S
C1081 C1077 1.495 . S
C1081 H1087 0.959 . S
C1081 H1088 0.961 . S
C1081 H1089 0.960 . S
C1082 C1080 1.381 . S
C1082 C1083 1.394 . S
C1082 H1090 0.930 . S
C1083 C1082 1.394 . S
C1083 C1084 1.383 . S
C1083 H1091 0.929 . S
C1084 C1083 1.383 . S
C1084 C1085 1.377 . S
C1085 H1069 0.930 . S
C1085 C1084 1.377 . S
C1085 C1086 1.379 . S
C1086 H1070 0.931 . S
C1086 C1080 1.383 . S
C1086 C1085 1.379 . S
H1087 C1081 0.959 . S
H1088 C1081 0.961 . S
H1089 C1081 0.960 . S
H1090 C1082 0.930 . S
H1091 C1083 0.929 . S
H1092 C1100 0.929 . S
H1093 C1102 0.930 . S
H1094 C1104 0.930 . S
H1095 C1107 0.929 . S
H1096 C1110 0.930 . S
H1097 C1112 0.960 . S
H1098 C1112 0.960 . S
H1099 C1112 0.960 . S
C1100 H1092 0.929 . S
C1100 C1101 1.377 . S
C1100 C1102 1.384 . S
C1101 C1100 1.377 . S
C1101 C1107 1.390 . S
C1102 H1093 0.930 . S
C1102 C1100 1.384 . S
C1102 C1103 1.372 . S
C1103 C1102 1.372 . S
C1103 C1104 1.400 . S
C1103 C1108 1.490 . S
C1104 H1094 0.930 . S
C1104 C1103 1.400 . S
C1104 C1107 1.386 . S
H1105 C1121 0.930 . S
H1106 C1122 0.931 . S
C1107 H1095 0.929 . S
C1107 C1101 1.390 . S
C1107 C1104 1.386 . S
C1108 C1103 1.490 . S
C1108 C1110 1.395 . S
C1108 C1111 1.403 . S
H1109 C1115 0.930 . S
C1110 H1096 0.930 . S
C1110 C1108 1.395 . S
C1110 C1113 1.403 . S
C1111 C1108 1.403 . S
C1111 C1112 1.524 . S
C1111 C1115 1.400 . S
C1112 H1097 0.960 . S
C1112 H1098 0.960 . S
C1112 H1099 0.960 . S
C1112 C1111 1.524 . S
C1113 C1110 1.403 . S
C1113 C1114 1.392 . S
C1113 C1117 1.495 . S
C1114 C1113 1.392 . S
C1114 C1115 1.385 . S
C1114 C1116 1.478 . S
C1115 H1109 0.930 . S
C1115 C1111 1.400 . S
C1115 C1114 1.385 . S
C1116 C1114 1.478 . S
C1116 C1118 1.381 . S
C1116 C1122 1.383 . S
C1117 C1113 1.495 . S
C1117 H1123 0.959 . S
C1117 H1124 0.961 . S
C1117 H1125 0.960 . S
C1118 C1116 1.381 . S
C1118 C1119 1.394 . S
C1118 H1126 0.930 . S
C1119 C1118 1.394 . S
C1119 C1120 1.383 . S
C1119 H1127 0.929 . S
C1120 C1119 1.383 . S
C1120 C1121 1.377 . S
C1121 H1105 0.930 . S
C1121 C1120 1.377 . S
C1121 C1122 1.379 . S
C1122 H1106 0.931 . S
C1122 C1116 1.383 . S
C1122 C1121 1.379 . S
H1123 C1117 0.959 . S
H1124 C1117 0.961 . S
H1125 C1117 0.960 . S
H1126 C1118 0.930 . S
H1127 C1119 0.929 . S
H1128 C1136 0.929 . S
H1129 C1138 0.930 . S
H1130 C1140 0.930 . S
H1131 C1143 0.929 . S
H1132 C1146 0.930 . S
H1133 C1148 0.960 . S
H1134 C1148 0.960 . S
H1135 C1148 0.960 . S
C1136 H1128 0.929 . S
C1136 C1137 1.377 . S
C1136 C1138 1.384 . S
C1137 C1136 1.377 . S
C1137 C1143 1.390 . S
C1138 H1129 0.930 . S
C1138 C1136 1.384 . S
C1138 C1139 1.372 . S
C1139 C1138 1.372 . S
C1139 C1140 1.400 . S
C1139 C1144 1.490 . S
C1140 H1130 0.930 . S
C1140 C1139 1.400 . S
C1140 C1143 1.386 . S
H1141 C1157 0.930 . S
H1142 C1158 0.931 . S
C1143 H1131 0.929 . S
C1143 C1137 1.390 . S
C1143 C1140 1.386 . S
C1144 C1139 1.490 . S
C1144 C1146 1.395 . S
C1144 C1147 1.403 . S
H1145 C1151 0.930 . S
C1146 H1132 0.930 . S
C1146 C1144 1.395 . S
C1146 C1149 1.403 . S
C1147 C1144 1.403 . S
C1147 C1148 1.524 . S
C1147 C1151 1.400 . S
C1148 H1133 0.960 . S
C1148 H1134 0.960 . S
C1148 H1135 0.960 . S
C1148 C1147 1.524 . S
C1149 C1146 1.403 . S
C1149 C1150 1.392 . S
C1149 C1153 1.495 . S
C1150 C1149 1.392 . S
C1150 C1151 1.385 . S
C1150 C1152 1.478 . S
C1151 H1145 0.930 . S
C1151 C1147 1.400 . S
C1151 C1150 1.385 . S
C1152 C1150 1.478 . S
C1152 C1154 1.381 . S
C1152 C1158 1.383 . S
C1153 C1149 1.495 . S
C1153 H1159 0.959 . S
C1153 H1160 0.961 . S
C1153 H1161 0.960 . S
C1154 C1152 1.381 . S
C1154 C1155 1.394 . S
C1154 H1162 0.930 . S
C1155 C1154 1.394 . S
C1155 C1156 1.383 . S
C1155 H1163 0.929 . S
C1156 C1155 1.383 . S
C1156 C1157 1.377 . S
C1157 H1141 0.930 . S
C1157 C1156 1.377 . S
C1157 C1158 1.379 . S
C1158 H1142 0.931 . S
C1158 C1152 1.383 . S
C1158 C1157 1.379 . S
H1159 C1153 0.959 . S
H1160 C1153 0.961 . S
H1161 C1153 0.960 . S
H1162 C1154 0.930 . S
H1163 C1155 0.929 . S
H1164 C1172 0.929 . S
H1165 C1174 0.930 . S
H1166 C1176 0.930 . S
H1167 C1179 0.929 . S
H1168 C1182 0.930 . S
H1169 C1184 0.960 . S
H1170 C1184 0.960 . S
H1171 C1184 0.960 . S
C1172 H1164 0.929 . S
C1172 C1173 1.377 . S
C1172 C1174 1.384 . S
C1173 C1172 1.377 . S
C1173 C1179 1.390 . S
C1174 H1165 0.930 . S
C1174 C1172 1.384 . S
C1174 C1175 1.372 . S
C1175 C1174 1.372 . S
C1175 C1176 1.400 . S
C1175 C1180 1.490 . S
C1176 H1166 0.930 . S
C1176 C1175 1.400 . S
C1176 C1179 1.386 . S
H1177 C1193 0.930 . S
H1178 C1194 0.931 . S
C1179 H1167 0.929 . S
C1179 C1173 1.390 . S
C1179 C1176 1.386 . S
C1180 C1175 1.490 . S
C1180 C1182 1.395 . S
C1180 C1183 1.403 . S
H1181 C1187 0.930 . S
C1182 H1168 0.930 . S
C1182 C1180 1.395 . S
C1182 C1185 1.403 . S
C1183 C1180 1.403 . S
C1183 C1184 1.524 . S
C1183 C1187 1.400 . S
C1184 H1169 0.960 . S
C1184 H1170 0.960 . S
C1184 H1171 0.960 . S
C1184 C1183 1.524 . S
C1185 C1182 1.403 . S
C1185 C1186 1.392 . S
C1185 C1189 1.495 . S
C1186 C1185 1.392 . S
C1186 C1187 1.385 . S
C1186 C1188 1.478 . S
C1187 H1181 0.930 . S
C1187 C1183 1.400 . S
C1187 C1186 1.385 . S
C1188 C1186 1.478 . S
C1188 C1190 1.381 . S
C1188 C1194 1.383 . S
C1189 C1185 1.495 . S
C1189 H1195 0.959 . S
C1189 H1196 0.961 . S
C1189 H1197 0.960 . S
C1190 C1188 1.381 . S
C1190 C1191 1.394 . S
C1190 H1198 0.930 . S
C1191 C1190 1.394 . S
C1191 C1192 1.383 . S
C1191 H1199 0.929 . S
C1192 C1191 1.383 . S
C1192 C1193 1.377 . S
C1193 H1177 0.930 . S
C1193 C1192 1.377 . S
C1193 C1194 1.379 . S
C1194 H1178 0.931 . S
C1194 C1188 1.383 . S
C1194 C1193 1.379 . S
H1195 C1189 0.959 . S
H1196 C1189 0.961 . S
H1197 C1189 0.960 . S
H1198 C1190 0.930 . S
H1199 C1191 0.929 . S
H1200 C1208 0.929 . S
H1201 C1210 0.930 . S
H1202 C1212 0.930 . S
H1203 C1215 0.929 . S
H1204 C1218 0.930 . S
H1205 C1220 0.960 . S
H1206 C1220 0.960 . S
H1207 C1220 0.960 . S
C1208 H1200 0.929 . S
C1208 C1209 1.377 . S
C1208 C1210 1.384 . S
C1209 C1208 1.377 . S
C1209 C1215 1.390 . S
C1210 H1201 0.930 . S
C1210 C1208 1.384 . S
C1210 C1211 1.372 . S
C1211 C1210 1.372 . S
C1211 C1212 1.400 . S
C1211 C1216 1.490 . S
C1212 H1202 0.930 . S
C1212 C1211 1.400 . S
C1212 C1215 1.386 . S
H1213 C1229 0.930 . S
H1214 C1230 0.931 . S
C1215 H1203 0.929 . S
C1215 C1209 1.390 . S
C1215 C1212 1.386 . S
C1216 C1211 1.490 . S
C1216 C1218 1.395 . S
C1216 C1219 1.403 . S
H1217 C1223 0.930 . S
C1218 H1204 0.930 . S
C1218 C1216 1.395 . S
C1218 C1221 1.403 . S
C1219 C1216 1.403 . S
C1219 C1220 1.524 . S
C1219 C1223 1.400 . S
C1220 H1205 0.960 . S
C1220 H1206 0.960 . S
C1220 H1207 0.960 . S
C1220 C1219 1.524 . S
C1221 C1218 1.403 . S
C1221 C1222 1.392 . S
C1221 C1225 1.495 . S
C1222 C1221 1.392 . S
C1222 C1223 1.385 . S
C1222 C1224 1.478 . S
C1223 H1217 0.930 . S
C1223 C1219 1.400 . S
C1223 C1222 1.385 . S
C1224 C1222 1.478 . S
C1224 C1226 1.381 . S
C1224 C1230 1.383 . S
C1225 C1221 1.495 . S
C1225 H1231 0.959 . S
C1225 H1232 0.961 . S
C1225 H1233 0.960 . S
C1226 C1224 1.381 . S
C1226 C1227 1.394 . S
C1226 H1234 0.930 . S
C1227 C1226 1.394 . S
C1227 C1228 1.383 . S
C1227 H1235 0.929 . S
C1228 C1227 1.383 . S
C1228 C1229 1.377 . S
C1229 H1213 0.930 . S
C1229 C1228 1.377 . S
C1229 C1230 1.379 . S
C1230 H1214 0.931 . S
C1230 C1224 1.383 . S
C1230 C1229 1.379 . S
H1231 C1225 0.959 . S
H1232 C1225 0.961 . S
H1233 C1225 0.960 . S
H1234 C1226 0.930 . S
H1235 C1227 0.929 . S
H1236 C1244 0.929 . S
H1237 C1246 0.930 . S
H1238 C1248 0.930 . S
H1239 C1251 0.929 . S
H1240 C1254 0.930 . S
H1241 C1256 0.960 . S
H1242 C1256 0.960 . S
H1243 C1256 0.960 . S
C1244 H1236 0.929 . S
C1244 C1245 1.377 . S
C1244 C1246 1.384 . S
C1245 C1244 1.377 . S
C1245 C1251 1.390 . S
C1246 H1237 0.930 . S
C1246 C1244 1.384 . S
C1246 C1247 1.372 . S
C1247 C1246 1.372 . S
C1247 C1248 1.400 . S
C1247 C1252 1.490 . S
C1248 H1238 0.930 . S
C1248 C1247 1.400 . S
C1248 C1251 1.386 . S
H1249 C1265 0.930 . S
H1250 C1266 0.931 . S
C1251 H1239 0.929 . S
C1251 C1245 1.390 . S
C1251 C1248 1.386 . S
C1252 C1247 1.490 . S
C1252 C1254 1.395 . S
C1252 C1255 1.403 . S
H1253 C1259 0.930 . S
C1254 H1240 0.930 . S
C1254 C1252 1.395 . S
C1254 C1257 1.403 . S
C1255 C1252 1.403 . S
C1255 C1256 1.524 . S
C1255 C1259 1.400 . S
C1256 H1241 0.960 . S
C1256 H1242 0.960 . S
C1256 H1243 0.960 . S
C1256 C1255 1.524 . S
C1257 C1254 1.403 . S
C1257 C1258 1.392 . S
C1257 C1261 1.495 . S
C1258 C1257 1.392 . S
C1258 C1259 1.385 . S
C1258 C1260 1.478 . S
C1259 H1253 0.930 . S
C1259 C1255 1.400 . S
C1259 C1258 1.385 . S
C1260 C1258 1.478 . S
C1260 C1262 1.381 . S
C1260 C1266 1.383 . S
C1261 C1257 1.495 . S
C1261 H1267 0.959 . S
C1261 H1268 0.961 . S
C1261 H1269 0.960 . S
C1262 C1260 1.381 . S
C1262 C1263 1.394 . S
C1262 H1270 0.930 . S
C1263 C1262 1.394 . S
C1263 C1264 1.383 . S
C1263 H1271 0.929 . S
C1264 C1263 1.383 . S
C1264 C1265 1.377 . S
C1265 H1249 0.930 . S
C1265 C1264 1.377 . S
C1265 C1266 1.379 . S
C1266 H1250 0.931 . S
C1266 C1260 1.383 . S
C1266 C1265 1.379 . S
H1267 C1261 0.959 . S
H1268 C1261 0.961 . S
H1269 C1261 0.960 . S
H1270 C1262 0.930 . S
H1271 C1263 0.929 . S
H1272 C1280 0.929 . S
H1273 C1282 0.930 . S
H1274 C1284 0.930 . S
H1275 C1287 0.929 . S
H1276 C1290 0.930 . S
H1277 C1292 0.960 . S
H1278 C1292 0.960 . S
H1279 C1292 0.960 . S
C1280 H1272 0.929 . S
C1280 C1281 1.377 . S
C1280 C1282 1.384 . S
C1281 C1280 1.377 . S
C1281 C1287 1.390 . S
C1282 H1273 0.930 . S
C1282 C1280 1.384 . S
C1282 C1283 1.372 . S
C1283 C1282 1.372 . S
C1283 C1284 1.400 . S
C1283 C1288 1.490 . S
C1284 H1274 0.930 . S
C1284 C1283 1.400 . S
C1284 C1287 1.386 . S
H1285 C1301 0.930 . S
H1286 C1302 0.931 . S
C1287 H1275 0.929 . S
C1287 C1281 1.390 . S
C1287 C1284 1.386 . S
C1288 C1283 1.490 . S
C1288 C1290 1.395 . S
C1288 C1291 1.403 . S
H1289 C1295 0.930 . S
C1290 H1276 0.930 . S
C1290 C1288 1.395 . S
C1290 C1293 1.403 . S
C1291 C1288 1.403 . S
C1291 C1292 1.524 . S
C1291 C1295 1.400 . S
C1292 H1277 0.960 . S
C1292 H1278 0.960 . S
C1292 H1279 0.960 . S
C1292 C1291 1.524 . S
C1293 C1290 1.403 . S
C1293 C1294 1.392 . S
C1293 C1297 1.495 . S
C1294 C1293 1.392 . S
C1294 C1295 1.385 . S
C1294 C1296 1.478 . S
C1295 H1289 0.930 . S
C1295 C1291 1.400 . S
C1295 C1294 1.385 . S
C1296 C1294 1.478 . S
C1296 C1298 1.381 . S
C1296 C1302 1.383 . S
C1297 C1293 1.495 . S
C1297 H1303 0.959 . S
C1297 H1304 0.961 . S
C1297 H1305 0.960 . S
C1298 C1296 1.381 . S
C1298 C1299 1.394 . S
C1298 H1306 0.930 . S
C1299 C1298 1.394 . S
C1299 C1300 1.383 . S
C1299 H1307 0.929 . S
C1300 C1299 1.383 . S
C1300 C1301 1.377 . S
C1301 H1285 0.930 . S
C1301 C1300 1.377 . S
C1301 C1302 1.379 . S
C1302 H1286 0.931 . S
C1302 C1296 1.383 . S
C1302 C1301 1.379 . S
H1303 C1297 0.959 . S
H1304 C1297 0.961 . S
H1305 C1297 0.960 . S
H1306 C1298 0.930 . S
H1307 C1299 0.929 . S
H1308 C1316 0.929 . S
H1309 C1318 0.930 . S
H1310 C1320 0.930 . S
H1311 C1323 0.929 . S
H1312 C1326 0.930 . S
H1313 C1328 0.960 . S
H1314 C1328 0.960 . S
H1315 C1328 0.960 . S
C1316 H1308 0.929 . S
C1316 C1317 1.377 . S
C1316 C1318 1.384 . S
C1317 C1316 1.377 . S
C1317 C1323 1.390 . S
C1318 H1309 0.930 . S
C1318 C1316 1.384 . S
C1318 C1319 1.372 . S
C1319 C1318 1.372 . S
C1319 C1320 1.400 . S
C1319 C1324 1.490 . S
C1320 H1310 0.930 . S
C1320 C1319 1.400 . S
C1320 C1323 1.386 . S
H1321 C1337 0.930 . S
H1322 C1338 0.931 . S
C1323 H1311 0.929 . S
C1323 C1317 1.390 . S
C1323 C1320 1.386 . S
C1324 C1319 1.490 . S
C1324 C1326 1.395 . S
C1324 C1327 1.403 . S
H1325 C1331 0.930 . S
C1326 H1312 0.930 . S
C1326 C1324 1.395 . S
C1326 C1329 1.403 . S
C1327 C1324 1.403 . S
C1327 C1328 1.524 . S
C1327 C1331 1.400 . S
C1328 H1313 0.960 . S
C1328 H1314 0.960 . S
C1328 H1315 0.960 . S
C1328 C1327 1.524 . S
C1329 C1326 1.403 . S
C1329 C1330 1.392 . S
C1329 C1333 1.495 . S
C1330 C1329 1.392 . S
C1330 C1331 1.385 . S
C1330 C1332 1.478 . S
C1331 H1325 0.930 . S
C1331 C1327 1.400 . S
C1331 C1330 1.385 . S
C1332 C1330 1.478 . S
C1332 C1334 1.381 . S
C1332 C1338 1.383 . S
C1333 C1329 1.495 . S
C1333 H1339 0.959 . S
C1333 H1340 0.961 . S
C1333 H1341 0.960 . S
C1334 C1332 1.381 . S
C1334 C1335 1.394 . S
C1334 H1342 0.930 . S
C1335 C1334 1.394 . S
C1335 C1336 1.383 . S
C1335 H1343 0.929 . S
C1336 C1335 1.383 . S
C1336 C1337 1.377 . S
C1337 H1321 0.930 . S
C1337 C1336 1.377 . S
C1337 C1338 1.379 . S
C1338 H1322 0.931 . S
C1338 C1332 1.383 . S
C1338 C1337 1.379 . S
H1339 C1333 0.959 . S
H1340 C1333 0.961 . S
H1341 C1333 0.960 . S
H1342 C1334 0.930 . S
H1343 C1335 0.929 . S
H1344 C1352 0.929 . S
H1345 C1354 0.930 . S
H1346 C1356 0.930 . S
H1347 C1359 0.929 . S
H1348 C1362 0.930 . S
H1349 C1364 0.960 . S
H1350 C1364 0.960 . S
H1351 C1364 0.960 . S
C1352 H1344 0.929 . S
C1352 C1353 1.377 . S
C1352 C1354 1.384 . S
C1353 C1352 1.377 . S
C1353 C1359 1.390 . S
C1354 H1345 0.930 . S
C1354 C1352 1.384 . S
C1354 C1355 1.372 . S
C1355 C1354 1.372 . S
C1355 C1356 1.400 . S
C1355 C1360 1.490 . S
C1356 H1346 0.930 . S
C1356 C1355 1.400 . S
C1356 C1359 1.386 . S
H1357 C1373 0.930 . S
H1358 C1374 0.931 . S
C1359 H1347 0.929 . S
C1359 C1353 1.390 . S
C1359 C1356 1.386 . S
C1360 C1355 1.490 . S
C1360 C1362 1.395 . S
C1360 C1363 1.403 . S
H1361 C1367 0.930 . S
C1362 H1348 0.930 . S
C1362 C1360 1.395 . S
C1362 C1365 1.403 . S
C1363 C1360 1.403 . S
C1363 C1364 1.524 . S
C1363 C1367 1.400 . S
C1364 H1349 0.960 . S
C1364 H1350 0.960 . S
C1364 H1351 0.960 . S
C1364 C1363 1.524 . S
C1365 C1362 1.403 . S
C1365 C1366 1.392 . S
C1365 C1369 1.495 . S
C1366 C1365 1.392 . S
C1366 C1367 1.385 . S
C1366 C1368 1.478 . S
C1367 H1361 0.930 . S
C1367 C1363 1.400 . S
C1367 C1366 1.385 . S
C1368 C1366 1.478 . S
C1368 C1370 1.381 . S
C1368 C1374 1.383 . S
C1369 C1365 1.495 . S
C1369 H1375 0.959 . S
C1369 H1376 0.961 . S
C1369 H1377 0.960 . S
C1370 C1368 1.381 . S
C1370 C1371 1.394 . S
C1370 H1378 0.930 . S
C1371 C1370 1.394 . S
C1371 C1372 1.383 . S
C1371 H1379 0.929 . S
C1372 C1371 1.383 . S
C1372 C1373 1.377 . S
C1373 H1357 0.930 . S
C1373 C1372 1.377 . S
C1373 C1374 1.379 . S
C1374 H1358 0.931 . S
C1374 C1368 1.383 . S
C1374 C1373 1.379 . S
H1375 C1369 0.959 . S
H1376 C1369 0.961 . S
H1377 C1369 0.960 . S
H1378 C1370 0.930 . S
H1379 C1371 0.929 . S
H1380 C1388 0.929 . S
H1381 C1390 0.930 . S
H1382 C1392 0.930 . S
H1383 C1395 0.929 . S
H1384 C1398 0.930 . S
H1385 C1400 0.960 . S
H1386 C1400 0.960 . S
H1387 C1400 0.960 . S
C1388 H1380 0.929 . S
C1388 C1389 1.377 . S
C1388 C1390 1.384 . S
C1389 C1388 1.377 . S
C1389 C1395 1.390 . S
C1390 H1381 0.930 . S
C1390 C1388 1.384 . S
C1390 C1391 1.372 . S
C1391 C1390 1.372 . S
C1391 C1392 1.400 . S
C1391 C1396 1.490 . S
C1392 H1382 0.930 . S
C1392 C1391 1.400 . S
C1392 C1395 1.386 . S
H1393 C1409 0.930 . S
H1394 C1410 0.931 . S
C1395 H1383 0.929 . S
C1395 C1389 1.390 . S
C1395 C1392 1.386 . S
C1396 C1391 1.490 . S
C1396 C1398 1.395 . S
C1396 C1399 1.403 . S
H1397 C1403 0.930 . S
C1398 H1384 0.930 . S
C1398 C1396 1.395 . S
C1398 C1401 1.403 . S
C1399 C1396 1.403 . S
C1399 C1400 1.524 . S
C1399 C1403 1.400 . S
C1400 H1385 0.960 . S
C1400 H1386 0.960 . S
C1400 H1387 0.960 . S
C1400 C1399 1.524 . S
C1401 C1398 1.403 . S
C1401 C1402 1.392 . S
C1401 C1405 1.495 . S
C1402 C1401 1.392 . S
C1402 C1403 1.385 . S
C1402 C1404 1.478 . S
C1403 H1397 0.930 . S
C1403 C1399 1.400 . S
C1403 C1402 1.385 . S
C1404 C1402 1.478 . S
C1404 C1406 1.381 . S
C1404 C1410 1.383 . S
C1405 C1401 1.495 . S
C1405 H1411 0.959 . S
C1405 H1412 0.961 . S
C1405 H1413 0.960 . S
C1406 C1404 1.381 . S
C1406 C1407 1.394 . S
C1406 H1414 0.930 . S
C1407 C1406 1.394 . S
C1407 C1408 1.383 . S
C1407 H1415 0.929 . S
C1408 C1407 1.383 . S
C1408 C1409 1.377 . S
C1409 H1393 0.930 . S
C1409 C1408 1.377 . S
C1409 C1410 1.379 . S
C1410 H1394 0.931 . S
C1410 C1404 1.383 . S
C1410 C1409 1.379 . S
H1411 C1405 0.959 . S
H1412 C1405 0.961 . S
H1413 C1405 0.960 . S
H1414 C1406 0.930 . S
H1415 C1407 0.929 . S
H1416 C1424 0.929 . S
H1417 C1426 0.930 . S
H1418 C1428 0.930 . S
H1419 C1431 0.929 . S
H1420 C1434 0.930 . S
H1421 C1436 0.960 . S
H1422 C1436 0.960 . S
H1423 C1436 0.960 . S
C1424 H1416 0.929 . S
C1424 C1425 1.377 . S
C1424 C1426 1.384 . S
C1425 C1424 1.377 . S
C1425 C1431 1.390 . S
C1426 H1417 0.930 . S
C1426 C1424 1.384 . S
C1426 C1427 1.372 . S
C1427 C1426 1.372 . S
C1427 C1428 1.400 . S
C1427 C1432 1.490 . S
C1428 H1418 0.930 . S
C1428 C1427 1.400 . S
C1428 C1431 1.386 . S
H1429 C1445 0.930 . S
H1430 C1446 0.931 . S
C1431 H1419 0.929 . S
C1431 C1425 1.390 . S
C1431 C1428 1.386 . S
C1432 C1427 1.490 . S
C1432 C1434 1.395 . S
C1432 C1435 1.403 . S
H1433 C1439 0.930 . S
C1434 H1420 0.930 . S
C1434 C1432 1.395 . S
C1434 C1437 1.403 . S
C1435 C1432 1.403 . S
C1435 C1436 1.524 . S
C1435 C1439 1.400 . S
C1436 H1421 0.960 . S
C1436 H1422 0.960 . S
C1436 H1423 0.960 . S
C1436 C1435 1.524 . S
C1437 C1434 1.403 . S
C1437 C1438 1.392 . S
C1437 C1441 1.495 . S
C1438 C1437 1.392 . S
C1438 C1439 1.385 . S
C1438 C1440 1.478 . S
C1439 H1433 0.930 . S
C1439 C1435 1.400 . S
C1439 C1438 1.385 . S
C1440 C1438 1.478 . S
C1440 C1442 1.381 . S
C1440 C1446 1.383 . S
C1441 C1437 1.495 . S
C1441 H1447 0.959 . S
C1441 H1448 0.961 . S
C1441 H1449 0.960 . S
C1442 C1440 1.381 . S
C1442 C1443 1.394 . S
C1442 H1450 0.930 . S
C1443 C1442 1.394 . S
C1443 C1444 1.383 . S
C1443 H1451 0.929 . S
C1444 C1443 1.383 . S
C1444 C1445 1.377 . S
C1445 H1429 0.930 . S
C1445 C1444 1.377 . S
C1445 C1446 1.379 . S
C1446 H1430 0.931 . S
C1446 C1440 1.383 . S
C1446 C1445 1.379 . S
H1447 C1441 0.959 . S
H1448 C1441 0.961 . S
H1449 C1441 0.960 . S
H1450 C1442 0.930 . S
H1451 C1443 0.929 . S
H1452 C1460 0.929 . S
H1453 C1462 0.930 . S
H1454 C1464 0.930 . S
H1455 C1467 0.929 . S
H1456 C1470 0.930 . S
H1457 C1472 0.960 . S
H1458 C1472 0.960 . S
H1459 C1472 0.960 . S
C1460 H1452 0.929 . S
C1460 C1461 1.377 . S
C1460 C1462 1.384 . S
C1461 C1460 1.377 . S
C1461 C1467 1.390 . S
C1462 H1453 0.930 . S
C1462 C1460 1.384 . S
C1462 C1463 1.372 . S
C1463 C1462 1.372 . S
C1463 C1464 1.400 . S
C1463 C1468 1.490 . S
C1464 H1454 0.930 . S
C1464 C1463 1.400 . S
C1464 C1467 1.386 . S
H1465 C1481 0.930 . S
H1466 C1482 0.931 . S
C1467 H1455 0.929 . S
C1467 C1461 1.390 . S
C1467 C1464 1.386 . S
C1468 C1463 1.490 . S
C1468 C1470 1.395 . S
C1468 C1471 1.403 . S
H1469 C1475 0.930 . S
C1470 H1456 0.930 . S
C1470 C1468 1.395 . S
C1470 C1473 1.403 . S
C1471 C1468 1.403 . S
C1471 C1472 1.524 . S
C1471 C1475 1.400 . S
C1472 H1457 0.960 . S
C1472 H1458 0.960 . S
C1472 H1459 0.960 . S
C1472 C1471 1.524 . S
C1473 C1470 1.403 . S
C1473 C1474 1.392 . S
C1473 C1477 1.495 . S
C1474 C1473 1.392 . S
C1474 C1475 1.385 . S
C1474 C1476 1.478 . S
C1475 H1469 0.930 . S
C1475 C1471 1.400 . S
C1475 C1474 1.385 . S
C1476 C1474 1.478 . S
C1476 C1478 1.381 . S
C1476 C1482 1.383 . S
C1477 C1473 1.495 . S
C1477 H1483 0.959 . S
C1477 H1484 0.961 . S
C1477 H1485 0.960 . S
C1478 C1476 1.381 . S
C1478 C1479 1.394 . S
C1478 H1486 0.930 . S
C1479 C1478 1.394 . S
C1479 C1480 1.383 . S
C1479 H1487 0.929 . S
C1480 C1479 1.383 . S
C1480 C1481 1.377 . S
C1481 H1465 0.930 . S
C1481 C1480 1.377 . S
C1481 C1482 1.379 . S
C1482 H1466 0.931 . S
C1482 C1476 1.383 . S
C1482 C1481 1.379 . S
H1483 C1477 0.959 . S
H1484 C1477 0.961 . S
H1485 C1477 0.960 . S
H1486 C1478 0.930 . S
H1487 C1479 0.929 . S
H1488 C1496 0.929 . S
H1489 C1498 0.930 . S
H1490 C1500 0.930 . S
H1491 C1503 0.929 . S
H1492 C1506 0.930 . S
H1493 C1508 0.960 . S
H1494 C1508 0.960 . S
H1495 C1508 0.960 . S
C1496 H1488 0.929 . S
C1496 C1497 1.377 . S
C1496 C1498 1.384 . S
C1497 C1496 1.377 . S
C1497 C1503 1.390 . S
C1498 H1489 0.930 . S
C1498 C1496 1.384 . S
C1498 C1499 1.372 . S
C1499 C1498 1.372 . S
C1499 C1500 1.400 . S
C1499 C1504 1.490 . S
C1500 H1490 0.930 . S
C1500 C1499 1.400 . S
C1500 C1503 1.386 . S
H1501 C1517 0.930 . S
H1502 C1518 0.931 . S
C1503 H1491 0.929 . S
C1503 C1497 1.390 . S
C1503 C1500 1.386 . S
C1504 C1499 1.490 . S
C1504 C1506 1.395 . S
C1504 C1507 1.403 . S
H1505 C1511 0.930 . S
C1506 H1492 0.930 . S
C1506 C1504 1.395 . S
C1506 C1509 1.403 . S
C1507 C1504 1.403 . S
C1507 C1508 1.524 . S
C1507 C1511 1.400 . S
C1508 H1493 0.960 . S
C1508 H1494 0.960 . S
C1508 H1495 0.960 . S
C1508 C1507 1.524 . S
C1509 C1506 1.403 . S
C1509 C1510 1.392 . S
C1509 C1513 1.495 . S
C1510 C1509 1.392 . S
C1510 C1511 1.385 . S
C1510 C1512 1.478 . S
C1511 H1505 0.930 . S
C1511 C1507 1.400 . S
C1511 C1510 1.385 . S
C1512 C1510 1.478 . S
C1512 C1514 1.381 . S
C1512 C1518 1.383 . S
C1513 C1509 1.495 . S
C1513 H1519 0.959 . S
C1513 H1520 0.961 . S
C1513 H1521 0.960 . S
C1514 C1512 1.381 . S
C1514 C1515 1.394 . S
C1514 H1522 0.930 . S
C1515 C1514 1.394 . S
C1515 C1516 1.383 . S
C1515 H1523 0.929 . S
C1516 C1515 1.383 . S
C1516 C1517 1.377 . S
C1517 H1501 0.930 . S
C1517 C1516 1.377 . S
C1517 C1518 1.379 . S
C1518 H1502 0.931 . S
C1518 C1512 1.383 . S
C1518 C1517 1.379 . S
H1519 C1513 0.959 . S
H1520 C1513 0.961 . S
H1521 C1513 0.960 . S
H1522 C1514 0.930 . S
H1523 C1515 0.929 . S
H1524 C1532 0.929 . S
H1525 C1534 0.930 . S
H1526 C1536 0.930 . S
H1527 C1539 0.929 . S
H1528 C1542 0.930 . S
H1529 C1544 0.960 . S
H1530 C1544 0.960 . S
H1531 C1544 0.960 . S
C1532 H1524 0.929 . S
C1532 C1533 1.377 . S
C1532 C1534 1.384 . S
C1533 C1532 1.377 . S
C1533 C1539 1.390 . S
C1534 H1525 0.930 . S
C1534 C1532 1.384 . S
C1534 C1535 1.372 . S
C1535 C1534 1.372 . S
C1535 C1536 1.400 . S
C1535 C1540 1.490 . S
C1536 H1526 0.930 . S
C1536 C1535 1.400 . S
C1536 C1539 1.386 . S
H1537 C1553 0.930 . S
H1538 C1554 0.931 . S
C1539 H1527 0.929 . S
C1539 C1533 1.390 . S
C1539 C1536 1.386 . S
C1540 C1535 1.490 . S
C1540 C1542 1.395 . S
C1540 C1543 1.403 . S
H1541 C1547 0.930 . S
C1542 H1528 0.930 . S
C1542 C1540 1.395 . S
C1542 C1545 1.403 . S
C1543 C1540 1.403 . S
C1543 C1544 1.524 . S
C1543 C1547 1.400 . S
C1544 H1529 0.960 . S
C1544 H1530 0.960 . S
C1544 H1531 0.960 . S
C1544 C1543 1.524 . S
C1545 C1542 1.403 . S
C1545 C1546 1.392 . S
C1545 C1549 1.495 . S
C1546 C1545 1.392 . S
C1546 C1547 1.385 . S
C1546 C1548 1.478 . S
C1547 H1541 0.930 . S
C1547 C1543 1.400 . S
C1547 C1546 1.385 . S
C1548 C1546 1.478 . S
C1548 C1550 1.381 . S
C1548 C1554 1.383 . S
C1549 C1545 1.495 . S
C1549 H1555 0.959 . S
C1549 H1556 0.961 . S
C1549 H1557 0.960 . S
C1550 C1548 1.381 . S
C1550 C1551 1.394 . S
C1550 H1558 0.930 . S
C1551 C1550 1.394 . S
C1551 C1552 1.383 . S
C1551 H1559 0.929 . S
C1552 C1551 1.383 . S
C1552 C1553 1.377 . S
C1553 H1537 0.930 . S
C1553 C1552 1.377 . S
C1553 C1554 1.379 . S
C1554 H1538 0.931 . S
C1554 C1548 1.383 . S
C1554 C1553 1.379 . S
H1555 C1549 0.959 . S
H1556 C1549 0.961 . S
H1557 C1549 0.960 . S
H1558 C1550 0.930 . S
H1559 C1551 0.929 . S
H1560 C1568 0.929 . S
H1561 C1570 0.930 . S
H1562 C1572 0.930 . S
H1563 C1575 0.929 . S
H1564 C1578 0.930 . S
H1565 C1580 0.960 . S
H1566 C1580 0.960 . S
H1567 C1580 0.960 . S
C1568 H1560 0.929 . S
C1568 C1569 1.377 . S
C1568 C1570 1.384 . S
C1569 C1568 1.377 . S
C1569 C1575 1.390 . S
C1570 H1561 0.930 . S
C1570 C1568 1.384 . S
C1570 C1571 1.372 . S
C1571 C1570 1.372 . S
C1571 C1572 1.400 . S
C1571 C1576 1.490 . S
C1572 H1562 0.930 . S
C1572 C1571 1.400 . S
C1572 C1575 1.386 . S
H1573 C1589 0.930 . S
H1574 C1590 0.931 . S
C1575 H1563 0.929 . S
C1575 C1569 1.390 . S
C1575 C1572 1.386 . S
C1576 C1571 1.490 . S
C1576 C1578 1.395 . S
C1576 C1579 1.403 . S
H1577 C1583 0.930 . S
C1578 H1564 0.930 . S
C1578 C1576 1.395 . S
C1578 C1581 1.403 . S
C1579 C1576 1.403 . S
C1579 C1580 1.524 . S
C1579 C1583 1.400 . S
C1580 H1565 0.960 . S
C1580 H1566 0.960 . S
C1580 H1567 0.960 . S
C1580 C1579 1.524 . S
C1581 C1578 1.403 . S
C1581 C1582 1.392 . S
C1581 C1585 1.495 . S
C1582 C1581 1.392 . S
C1582 C1583 1.385 . S
C1582 C1584 1.478 . S
C1583 H1577 0.930 . S
C1583 C1579 1.400 . S
C1583 C1582 1.385 . S
C1584 C1582 1.478 . S
C1584 C1586 1.381 . S
C1584 C1590 1.383 . S
C1585 C1581 1.495 . S
C1585 H1591 0.959 . S
C1585 H1592 0.961 . S
C1585 H1593 0.960 . S
C1586 C1584 1.381 . S
C1586 C1587 1.394 . S
C1586 H1594 0.930 . S
C1587 C1586 1.394 . S
C1587 C1588 1.383 . S
C1587 H1595 0.929 . S
C1588 C1587 1.383 . S
C1588 C1589 1.377 . S
C1589 H1573 0.930 . S
C1589 C1588 1.377 . S
C1589 C1590 1.379 . S
C1590 H1574 0.931 . S
C1590 C1584 1.383 . S
C1590 C1589 1.379 . S
H1591 C1585 0.959 . S
H1592 C1585 0.961 . S
H1593 C1585 0.960 . S
H1594 C1586 0.930 . S
H1595 C1587 0.929 . S
H1596 C1604 0.929 . S
H1597 C1606 0.930 . S
H1598 C1608 0.930 . S
H1599 C1611 0.929 . S
H1600 C1614 0.930 . S
H1601 C1616 0.960 . S
H1602 C1616 0.960 . S
H1603 C1616 0.960 . S
C1604 H1596 0.929 . S
C1604 C1605 1.377 . S
C1604 C1606 1.384 . S
C1605 C1604 1.377 . S
C1605 C1611 1.390 . S
C1606 H1597 0.930 . S
C1606 C1604 1.384 . S
C1606 C1607 1.372 . S
C1607 C1606 1.372 . S
C1607 C1608 1.400 . S
C1607 C1612 1.490 . S
C1608 H1598 0.930 . S
C1608 C1607 1.400 . S
C1608 C1611 1.386 . S
H1609 C1625 0.930 . S
H1610 C1626 0.931 . S
C1611 H1599 0.929 . S
C1611 C1605 1.390 . S
C1611 C1608 1.386 . S
C1612 C1607 1.490 . S
C1612 C1614 1.395 . S
C1612 C1615 1.403 . S
H1613 C1619 0.930 . S
C1614 H1600 0.930 . S
C1614 C1612 1.395 . S
C1614 C1617 1.403 . S
C1615 C1612 1.403 . S
C1615 C1616 1.524 . S
C1615 C1619 1.400 . S
C1616 H1601 0.960 . S
C1616 H1602 0.960 . S
C1616 H1603 0.960 . S
C1616 C1615 1.524 . S
C1617 C1614 1.403 . S
C1617 C1618 1.392 . S
C1617 C1621 1.495 . S
C1618 C1617 1.392 . S
C1618 C1619 1.385 . S
C1618 C1620 1.478 . S
C1619 H1613 0.930 . S
C1619 C1615 1.400 . S
C1619 C1618 1.385 . S
C1620 C1618 1.478 . S
C1620 C1622 1.381 . S
C1620 C1626 1.383 . S
C1621 C1617 1.495 . S
C1621 H1627 0.959 . S
C1621 H1628 0.961 . S
C1621 H1629 0.960 . S
C1622 C1620 1.381 . S
C1622 C1623 1.394 . S
C1622 H1630 0.930 . S
C1623 C1622 1.394 . S
C1623 C1624 1.383 . S
C1623 H1631 0.929 . S
C1624 C1623 1.383 . S
C1624 C1625 1.377 . S
C1625 H1609 0.930 . S
C1625 C1624 1.377 . S
C1625 C1626 1.379 . S
C1626 H1610 0.931 . S
C1626 C1620 1.383 . S
C1626 C1625 1.379 . S
H1627 C1621 0.959 . S
H1628 C1621 0.961 . S
H1629 C1621 0.960 . S
H1630 C1622 0.930 . S
H1631 C1623 0.929 . S
H1632 C1640 0.929 . S
H1633 C1642 0.930 . S
H1634 C1644 0.930 . S
H1635 C1647 0.929 . S
H1636 C1650 0.930 . S
H1637 C1652 0.960 . S
H1638 C1652 0.960 . S
H1639 C1652 0.960 . S
C1640 H1632 0.929 . S
C1640 C1641 1.377 . S
C1640 C1642 1.384 . S
C1641 C1640 1.377 . S
C1641 C1647 1.390 . S
C1642 H1633 0.930 . S
C1642 C1640 1.384 . S
C1642 C1643 1.372 . S
C1643 C1642 1.372 . S
C1643 C1644 1.400 . S
C1643 C1648 1.490 . S
C1644 H1634 0.930 . S
C1644 C1643 1.400 . S
C1644 C1647 1.386 . S
H1645 C1661 0.930 . S
H1646 C1662 0.931 . S
C1647 H1635 0.929 . S
C1647 C1641 1.390 . S
C1647 C1644 1.386 . S
C1648 C1643 1.490 . S
C1648 C1650 1.395 . S
C1648 C1651 1.403 . S
H1649 C1655 0.930 . S
C1650 H1636 0.930 . S
C1650 C1648 1.395 . S
C1650 C1653 1.403 1_565 S
C1651 C1648 1.403 . S
C1651 C1652 1.524 . S
C1651 C1655 1.400 1_565 S
C1652 H1637 0.960 . S
C1652 H1638 0.960 . S
C1652 H1639 0.960 . S
C1652 C1651 1.524 . S
C1653 C1650 1.403 1_545 S
C1653 C1654 1.392 . S
C1653 C1657 1.495 . S
C1654 C1653 1.392 . S
C1654 C1655 1.385 . S
C1654 C1656 1.478 . S
C1655 H1649 0.930 . S
C1655 C1651 1.400 1_545 S
C1655 C1654 1.385 . S
C1656 C1654 1.478 . S
C1656 C1658 1.381 . S
C1656 C1662 1.383 . S
C1657 C1653 1.495 . S
C1657 H1663 0.959 . S
C1657 H1664 0.961 . S
C1657 H1665 0.960 . S
C1658 C1656 1.381 . S
C1658 C1659 1.394 . S
C1658 H1666 0.930 . S
C1659 C1658 1.394 . S
C1659 C1660 1.383 . S
C1659 H1667 0.929 . S
C1660 C1659 1.383 . S
C1660 C1661 1.377 . S
C1661 H1645 0.930 . S
C1661 C1660 1.377 . S
C1661 C1662 1.379 . S
C1662 H1646 0.931 . S
C1662 C1656 1.383 . S
C1662 C1661 1.379 . S
H1663 C1657 0.959 . S
H1664 C1657 0.961 . S
H1665 C1657 0.960 . S
H1666 C1658 0.930 . S
H1667 C1659 0.929 . S
H1668 C1676 0.929 . S
H1669 C1678 0.930 . S
H1670 C1680 0.930 . S
H1671 C1683 0.929 . S
H1672 C1686 0.930 . S
H1673 C1688 0.960 . S
H1674 C1688 0.960 . S
H1675 C1688 0.960 . S
C1676 H1668 0.929 . S
C1676 C1677 1.377 . S
C1676 C1678 1.384 . S
C1677 C1676 1.377 . S
C1677 C1683 1.390 . S
C1678 H1669 0.930 . S
C1678 C1676 1.384 . S
C1678 C1679 1.372 . S
C1679 C1678 1.372 . S
C1679 C1680 1.400 . S
C1679 C1684 1.490 . S
C1680 H1670 0.930 . S
C1680 C1679 1.400 . S
C1680 C1683 1.386 . S
H1681 C1697 0.930 . S
H1682 C1698 0.931 . S
C1683 H1671 0.929 . S
C1683 C1677 1.390 . S
C1683 C1680 1.386 . S
C1684 C1679 1.490 . S
C1684 C1686 1.395 . S
C1684 C1687 1.403 . S
H1685 C1691 0.930 . S
C1686 H1672 0.930 . S
C1686 C1684 1.395 . S
C1686 C1689 1.403 . S
C1687 C1684 1.403 . S
C1687 C1688 1.524 . S
C1687 C1691 1.400 . S
C1688 H1673 0.960 . S
C1688 H1674 0.960 . S
C1688 H1675 0.960 . S
C1688 C1687 1.524 . S
C1689 C1686 1.403 . S
C1689 C1690 1.392 . S
C1689 C1693 1.495 . S
C1690 C1689 1.392 . S
C1690 C1691 1.385 . S
C1690 C1692 1.478 . S
C1691 H1685 0.930 . S
C1691 C1687 1.400 . S
C1691 C1690 1.385 . S
C1692 C1690 1.478 . S
C1692 C1694 1.381 . S
C1692 C1698 1.383 . S
C1693 C1689 1.495 . S
C1693 H1699 0.959 . S
C1693 H1700 0.961 . S
C1693 H1701 0.960 . S
C1694 C1692 1.381 . S
C1694 C1695 1.394 . S
C1694 H1702 0.930 . S
C1695 C1694 1.394 . S
C1695 C1696 1.383 . S
C1695 H1703 0.929 . S
C1696 C1695 1.383 . S
C1696 C1697 1.377 . S
C1697 H1681 0.930 . S
C1697 C1696 1.377 . S
C1697 C1698 1.379 . S
C1698 H1682 0.931 . S
C1698 C1692 1.383 . S
C1698 C1697 1.379 . S
H1699 C1693 0.959 . S
H1700 C1693 0.961 . S
H1701 C1693 0.960 . S
H1702 C1694 0.930 . S
H1703 C1695 0.929 . S
H1704 C1712 0.929 . S
H1705 C1714 0.930 . S
H1706 C1716 0.930 . S
H1707 C1719 0.929 . S
H1708 C1722 0.930 . S
H1709 C1724 0.959 1_565 S
H1710 C1724 0.960 . S
H1711 C1724 0.960 . S
C1712 H1704 0.929 . S
C1712 C1713 1.377 . S
C1712 C1714 1.384 . S
C1713 C1712 1.377 . S
C1713 C1719 1.390 . S
C1714 H1705 0.930 . S
C1714 C1712 1.384 . S
C1714 C1715 1.372 . S
C1715 C1714 1.372 . S
C1715 C1716 1.400 . S
C1715 C1720 1.490 . S
C1716 H1706 0.930 . S
C1716 C1715 1.400 . S
C1716 C1719 1.386 . S
H1717 C1733 0.930 . S
H1718 C1734 0.931 . S
C1719 H1707 0.929 . S
C1719 C1713 1.390 . S
C1719 C1716 1.386 . S
C1720 C1715 1.490 . S
C1720 C1722 1.395 . S
C1720 C1723 1.403 . S
H1721 C1727 0.930 . S
C1722 H1708 0.930 . S
C1722 C1720 1.395 . S
C1722 C1725 1.403 1_545 S
C1723 C1720 1.403 . S
C1723 C1724 1.524 . S
C1723 C1727 1.400 1_545 S
C1724 H1709 0.959 1_545 S
C1724 H1710 0.960 . S
C1724 H1711 0.960 . S
C1724 C1723 1.524 . S
C1725 C1722 1.403 1_565 S
C1725 C1726 1.392 . S
C1725 C1729 1.495 . S
C1726 C1725 1.392 . S
C1726 C1727 1.385 . S
C1726 C1728 1.478 . S
C1727 H1721 0.930 . S
C1727 C1723 1.400 1_565 S
C1727 C1726 1.385 . S
C1728 C1726 1.478 . S
C1728 C1730 1.381 . S
C1728 C1734 1.383 . S
C1729 C1725 1.495 . S
C1729 H1735 0.957 . S
C1729 H1736 0.961 . S
C1729 H1737 0.960 . S
C1730 C1728 1.381 . S
C1730 C1731 1.394 . S
C1730 H1738 0.930 . S
C1731 C1730 1.394 . S
C1731 C1732 1.383 . S
C1731 H1739 0.929 . S
C1732 C1731 1.383 . S
C1732 C1733 1.377 . S
C1733 H1717 0.930 . S
C1733 C1732 1.377 . S
C1733 C1734 1.379 . S
C1734 H1718 0.931 . S
C1734 C1728 1.383 . S
C1734 C1733 1.379 . S
H1735 C1729 0.957 . S
H1736 C1729 0.961 . S
H1737 C1729 0.960 . S
H1738 C1730 0.930 . S
H1739 C1731 0.929 . S
H1740 C1748 0.929 . S
H1741 C1750 0.930 . S
H1742 C1752 0.930 . S
H1743 C1755 0.929 . S
H1744 C1758 0.930 . S
H1745 C1760 0.960 . S
H1746 C1760 0.960 . S
H1747 C1760 0.960 . S
C1748 H1740 0.929 . S
C1748 C1749 1.377 . S
C1748 C1750 1.384 . S
C1749 C1748 1.377 . S
C1749 C1755 1.390 1_554 S
C1750 H1741 0.930 . S
C1750 C1748 1.384 . S
C1750 C1751 1.372 . S
C1751 C1750 1.372 . S
C1751 C1752 1.400 1_554 S
C1751 C1756 1.490 . S
C1752 H1742 0.930 . S
C1752 C1751 1.400 1_556 S
C1752 C1755 1.386 . S
H1753 C1769 0.930 . S
H1754 C1770 0.931 . S
C1755 H1743 0.929 . S
C1755 C1749 1.390 1_556 S
C1755 C1752 1.386 . S
C1756 C1751 1.490 . S
C1756 C1758 1.395 . S
C1756 C1759 1.403 1_554 S
H1757 C1763 0.930 . S
C1758 H1744 0.930 . S
C1758 C1756 1.395 . S
C1758 C1761 1.403 . S
C1759 C1756 1.403 1_556 S
C1759 C1760 1.524 . S
C1759 C1763 1.400 . S
C1760 H1745 0.960 . S
C1760 H1746 0.960 . S
C1760 H1747 0.960 . S
C1760 C1759 1.524 . S
C1761 C1758 1.403 . S
C1761 C1762 1.402 . S
C1761 C1765 1.495 . S
C1762 C1761 1.402 . S
C1762 C1763 1.377 1_554 S
C1762 C1764 1.476 1_554 S
C1763 H1757 0.930 . S
C1763 C1759 1.400 . S
C1763 C1762 1.377 1_556 S
C1764 C1762 1.476 1_556 S
C1764 C1766 1.381 1_556 S
C1764 C1770 1.383 . S
C1765 C1761 1.495 . S
C1765 H1771 0.959 . S
C1765 H1772 0.961 . S
C1765 H1773 0.960 . S
C1766 C1764 1.381 1_554 S
C1766 C1767 1.394 . S
C1766 H1774 0.930 . S
C1767 C1766 1.394 . S
C1767 C1768 1.383 1_554 S
C1767 H1775 0.929 . S
C1768 C1767 1.383 1_556 S
C1768 C1769 1.377 . S
C1769 H1753 0.930 . S
C1769 C1768 1.377 . S
C1769 C1770 1.379 . S
C1770 H1754 0.931 . S
C1770 C1764 1.383 . S
C1770 C1769 1.379 . S
H1771 C1765 0.959 . S
H1772 C1765 0.961 . S
H1773 C1765 0.960 . S
H1774 C1766 0.930 . S
H1775 C1767 0.929 . S
H1776 C1784 0.929 . S
H1777 C1786 0.930 . S
H1778 C1788 0.930 . S
H1779 C1791 0.929 . S
H1780 C1794 0.930 . S
H1781 C1796 0.960 . S
H1782 C1796 0.960 . S
H1783 C1796 0.960 . S
C1784 H1776 0.929 . S
C1784 C1785 1.377 . S
C1784 C1786 1.384 . S
C1785 C1784 1.377 . S
C1785 C1791 1.390 . S
C1786 H1777 0.930 . S
C1786 C1784 1.384 . S
C1786 C1787 1.372 . S
C1787 C1786 1.372 . S
C1787 C1788 1.400 . S
C1787 C1792 1.490 . S
C1788 H1778 0.930 . S
C1788 C1787 1.400 . S
C1788 C1791 1.386 . S
H1789 C1805 0.930 . S
H1790 C1806 0.931 . S
C1791 H1779 0.929 . S
C1791 C1785 1.390 . S
C1791 C1788 1.386 . S
C1792 C1787 1.490 . S
C1792 C1794 1.395 . S
C1792 C1795 1.403 . S
H1793 C1799 0.930 . S
C1794 H1780 0.930 . S
C1794 C1792 1.395 . S
C1794 C1797 1.403 1_545 S
C1795 C1792 1.403 . S
C1795 C1796 1.524 . S
C1795 C1799 1.400 1_545 S
C1796 H1781 0.960 . S
C1796 H1782 0.960 . S
C1796 H1783 0.960 . S
C1796 C1795 1.524 . S
C1797 C1794 1.403 1_565 S
C1797 C1798 1.392 . S
C1797 C1801 1.495 . S
C1798 C1797 1.392 . S
C1798 C1799 1.385 . S
C1798 C1800 1.478 . S
C1799 H1793 0.930 . S
C1799 C1795 1.400 1_565 S
C1799 C1798 1.385 . S
C1800 C1798 1.478 . S
C1800 C1802 1.381 . S
C1800 C1806 1.383 . S
C1801 C1797 1.495 . S
C1801 H1807 0.959 . S
C1801 H1808 0.961 . S
C1801 H1809 0.960 . S
C1802 C1800 1.381 . S
C1802 C1803 1.394 . S
C1802 H1810 0.930 . S
C1803 C1802 1.394 . S
C1803 C1804 1.383 . S
C1803 H1811 0.929 . S
C1804 C1803 1.383 . S
C1804 C1805 1.377 . S
C1805 H1789 0.930 . S
C1805 C1804 1.377 . S
C1805 C1806 1.379 . S
C1806 H1790 0.931 . S
C1806 C1800 1.383 . S
C1806 C1805 1.379 . S
H1807 C1801 0.959 . S
H1808 C1801 0.961 . S
H1809 C1801 0.960 . S
H1810 C1802 0.930 . S
H1811 C1803 0.929 . S
H1812 C1820 0.929 . S
H1813 C1822 0.930 . S
H1814 C1824 0.930 . S
H1815 C1827 0.929 . S
H1816 C1830 0.930 . S
H1817 C1832 0.960 . S
H1818 C1832 0.960 . S
H1819 C1832 0.960 . S
C1820 H1812 0.929 . S
C1820 C1821 1.377 . S
C1820 C1822 1.384 . S
C1821 C1820 1.377 . S
C1821 C1827 1.390 . S
C1822 H1813 0.930 . S
C1822 C1820 1.384 . S
C1822 C1823 1.372 . S
C1823 C1822 1.372 . S
C1823 C1824 1.400 . S
C1823 C1828 1.490 . S
C1824 H1814 0.930 . S
C1824 C1823 1.400 . S
C1824 C1827 1.386 . S
H1825 C1841 0.930 . S
H1826 C1842 0.931 . S
C1827 H1815 0.929 . S
C1827 C1821 1.390 . S
C1827 C1824 1.386 . S
C1828 C1823 1.490 . S
C1828 C1830 1.395 . S
C1828 C1831 1.403 . S
H1829 C1835 0.930 . S
C1830 H1816 0.930 . S
C1830 C1828 1.395 . S
C1830 C1833 1.403 . S
C1831 C1828 1.403 . S
C1831 C1832 1.524 . S
C1831 C1835 1.400 . S
C1832 H1817 0.960 . S
C1832 H1818 0.960 . S
C1832 H1819 0.960 . S
C1832 C1831 1.524 . S
C1833 C1830 1.403 . S
C1833 C1834 1.392 . S
C1833 C1837 1.495 . S
C1834 C1833 1.392 . S
C1834 C1835 1.385 . S
C1834 C1836 1.478 . S
C1835 H1829 0.930 . S
C1835 C1831 1.400 . S
C1835 C1834 1.385 . S
C1836 C1834 1.478 . S
C1836 C1838 1.381 . S
C1836 C1842 1.383 . S
C1837 C1833 1.495 . S
C1837 H1843 0.959 . S
C1837 H1844 0.961 . S
C1837 H1845 0.960 . S
C1838 C1836 1.381 . S
C1838 C1839 1.394 . S
C1838 H1846 0.930 . S
C1839 C1838 1.394 . S
C1839 C1840 1.383 . S
C1839 H1847 0.929 . S
C1840 C1839 1.383 . S
C1840 C1841 1.377 . S
C1841 H1825 0.930 . S
C1841 C1840 1.377 . S
C1841 C1842 1.379 . S
C1842 H1826 0.931 . S
C1842 C1836 1.383 . S
C1842 C1841 1.379 . S
H1843 C1837 0.959 . S
H1844 C1837 0.961 . S
H1845 C1837 0.960 . S
H1846 C1838 0.930 . S
H1847 C1839 0.929 . S
H1848 C1856 0.929 . S
H1849 C1858 0.930 . S
H1850 C1860 0.930 . S
H1851 C1863 0.929 . S
H1852 C1866 0.930 . S
H1853 C1868 0.963 1_565 S
H1854 C1868 0.960 . S
H1855 C1868 0.960 . S
C1856 H1848 0.929 . S
C1856 C1857 1.377 . S
C1856 C1858 1.384 . S
C1857 C1856 1.377 . S
C1857 C1863 1.390 . S
C1858 H1849 0.930 . S
C1858 C1856 1.384 . S
C1858 C1859 1.372 . S
C1859 C1858 1.372 . S
C1859 C1860 1.400 . S
C1859 C1864 1.490 . S
C1860 H1850 0.930 . S
C1860 C1859 1.400 . S
C1860 C1863 1.386 . S
H1861 C1877 0.930 . S
H1862 C1878 0.931 . S
C1863 H1851 0.929 . S
C1863 C1857 1.390 . S
C1863 C1860 1.386 . S
C1864 C1859 1.490 . S
C1864 C1866 1.395 . S
C1864 C1867 1.403 . S
H1865 C1871 0.930 . S
C1866 H1852 0.930 . S
C1866 C1864 1.395 . S
C1866 C1869 1.403 1_545 S
C1867 C1864 1.403 . S
C1867 C1868 1.524 . S
C1867 C1871 1.400 1_545 S
C1868 H1853 0.963 1_545 S
C1868 H1854 0.960 . S
C1868 H1855 0.960 . S
C1868 C1867 1.524 . S
C1869 C1866 1.403 1_565 S
C1869 C1870 1.392 . S
C1869 C1873 1.495 . S
C1870 C1869 1.392 . S
C1870 C1871 1.385 . S
C1870 C1872 1.478 . S
C1871 H1865 0.930 . S
C1871 C1867 1.400 1_565 S
C1871 C1870 1.385 . S
C1872 C1870 1.478 . S
C1872 C1874 1.381 . S
C1872 C1878 1.383 . S
C1873 C1869 1.495 . S
C1873 H1879 0.963 . S
C1873 H1880 0.961 . S
C1873 H1881 0.960 . S
C1874 C1872 1.381 . S
C1874 C1875 1.394 . S
C1874 H1882 0.930 . S
C1875 C1874 1.394 . S
C1875 C1876 1.383 . S
C1875 H1883 0.929 . S
C1876 C1875 1.383 . S
C1876 C1877 1.377 . S
C1877 H1861 0.930 . S
C1877 C1876 1.377 . S
C1877 C1878 1.379 . S
C1878 H1862 0.931 . S
C1878 C1872 1.383 . S
C1878 C1877 1.379 . S
H1879 C1873 0.963 . S
H1880 C1873 0.961 . S
H1881 C1873 0.960 . S
H1882 C1874 0.930 . S
H1883 C1875 0.929 . S
H1884 C1892 0.929 . S
H1885 C1894 0.930 . S
H1886 C1896 0.935 . S
H1887 C1899 0.929 1_556 S
H1888 C1902 0.930 . S
H1889 C1904 0.960 . S
H1890 C1904 0.960 . S
H1891 C1904 0.960 . S
C1892 H1884 0.929 . S
C1892 C1893 1.377 . S
C1892 C1894 1.384 . S
C1893 C1892 1.377 . S
C1893 C1899 1.390 . S
C1894 H1885 0.930 . S
C1894 C1892 1.384 . S
C1894 C1895 1.372 . S
C1895 C1894 1.372 . S
C1895 C1896 1.397 1_554 S
C1895 C1900 1.490 . S
C1896 H1886 0.935 . S
C1896 C1895 1.397 1_556 S
C1896 C1899 1.384 1_556 S
H1897 C1913 0.930 . S
H1898 C1914 0.931 . S
C1899 H1887 0.929 1_554 S
C1899 C1893 1.390 . S
C1899 C1896 1.384 1_554 S
C1900 C1895 1.490 . S
C1900 C1902 1.395 . S
C1900 C1903 1.403 1_554 S
H1901 C1907 0.930 . S
C1902 H1888 0.930 . S
C1902 C1900 1.395 . S
C1902 C1905 1.403 . S
C1903 C1900 1.403 1_556 S
C1903 C1904 1.524 . S
C1903 C1907 1.400 . S
C1904 H1889 0.960 . S
C1904 H1890 0.960 . S
C1904 H1891 0.960 . S
C1904 C1903 1.524 . S
C1905 C1902 1.403 . S
C1905 C1906 1.415 . S
C1905 C1909 1.495 . S
C1906 C1905 1.415 . S
C1906 C1907 1.366 1_554 S
C1906 C1908 1.474 1_554 S
C1907 H1901 0.930 . S
C1907 C1903 1.400 . S
C1907 C1906 1.366 1_556 S
C1908 C1906 1.474 1_556 S
C1908 C1910 1.381 1_556 S
C1908 C1914 1.383 . S
C1909 C1905 1.495 . S
C1909 H1915 0.959 . S
C1909 H1916 0.961 . S
C1909 H1917 0.960 . S
C1910 C1908 1.381 1_554 S
C1910 C1911 1.394 1_554 S
C1910 H1918 0.930 . S
C1911 C1910 1.394 1_556 S
C1911 C1912 1.383 . S
C1911 H1919 0.928 1_556 S
C1912 C1911 1.383 . S
C1912 C1913 1.377 . S
C1913 H1897 0.930 . S
C1913 C1912 1.377 . S
C1913 C1914 1.379 . S
C1914 H1898 0.931 . S
C1914 C1908 1.383 . S
C1914 C1913 1.379 . S
H1915 C1909 0.959 . S
H1916 C1909 0.961 . S
H1917 C1909 0.960 . S
H1918 C1910 0.930 . S
H1919 C1911 0.928 1_554 S
H1920 C1928 0.929 . S
H1921 C1930 0.930 . S
H1922 C1932 0.930 . S
H1923 C1935 0.929 . S
H1924 C1938 0.930 . S
H1925 C1940 0.960 . S
H1926 C1940 0.960 . S
H1927 C1940 0.960 . S
C1928 H1920 0.929 . S
C1928 C1929 1.377 . S
C1928 C1930 1.384 . S
C1929 C1928 1.377 . S
C1929 C1935 1.390 . S
C1930 H1921 0.930 . S
C1930 C1928 1.384 . S
C1930 C1931 1.372 . S
C1931 C1930 1.372 . S
C1931 C1932 1.400 . S
C1931 C1936 1.490 . S
C1932 H1922 0.930 . S
C1932 C1931 1.400 . S
C1932 C1935 1.386 . S
H1933 C1949 0.930 . S
H1934 C1950 0.931 . S
C1935 H1923 0.929 . S
C1935 C1929 1.390 . S
C1935 C1932 1.386 . S
C1936 C1931 1.490 . S
C1936 C1938 1.395 . S
C1936 C1939 1.403 . S
H1937 C1943 0.930 . S
C1938 H1924 0.930 . S
C1938 C1936 1.395 . S
C1938 C1941 1.403 . S
C1939 C1936 1.403 . S
C1939 C1940 1.524 . S
C1939 C1943 1.400 . S
C1940 H1925 0.960 . S
C1940 H1926 0.960 . S
C1940 H1927 0.960 . S
C1940 C1939 1.524 . S
C1941 C1938 1.403 . S
C1941 C1942 1.392 . S
C1941 C1945 1.495 . S
C1942 C1941 1.392 . S
C1942 C1943 1.385 . S
C1942 C1944 1.478 . S
C1943 H1937 0.930 . S
C1943 C1939 1.400 . S
C1943 C1942 1.385 . S
C1944 C1942 1.478 . S
C1944 C1946 1.381 . S
C1944 C1950 1.383 . S
C1945 C1941 1.495 . S
C1945 H1951 0.959 . S
C1945 H1952 0.961 . S
C1945 H1953 0.960 . S
C1946 C1944 1.381 . S
C1946 C1947 1.394 . S
C1946 H1954 0.930 . S
C1947 C1946 1.394 . S
C1947 C1948 1.383 . S
C1947 H1955 0.929 . S
C1948 C1947 1.383 . S
C1948 C1949 1.377 . S
C1949 H1933 0.930 . S
C1949 C1948 1.377 . S
C1949 C1950 1.379 . S
C1950 H1934 0.931 . S
C1950 C1944 1.383 . S
C1950 C1949 1.379 . S
H1951 C1945 0.959 . S
H1952 C1945 0.961 . S
H1953 C1945 0.960 . S
H1954 C1946 0.930 . S
H1955 C1947 0.929 . S
H1956 C1964 0.929 . S
H1957 C1966 0.930 . S
H1958 C1968 0.930 . S
H1959 C1971 0.929 . S
H1960 C1974 0.930 . S
H1961 C1976 0.960 . S
H1962 C1976 0.960 . S
H1963 C1976 0.960 . S
C1964 H1956 0.929 . S
C1964 C1965 1.377 1_554 S
C1964 C1966 1.384 . S
C1965 C1964 1.377 1_556 S
C1965 C1971 1.390 . S
C1966 H1957 0.930 . S
C1966 C1964 1.384 . S
C1966 C1967 1.372 1_554 S
C1967 C1966 1.372 1_556 S
C1967 C1968 1.400 . S
C1967 C1972 1.490 . S
C1968 H1958 0.930 . S
C1968 C1967 1.400 . S
C1968 C1971 1.386 . S
H1969 C1985 0.930 . S
H1970 C1986 0.931 . S
C1971 H1959 0.929 . S
C1971 C1965 1.390 . S
C1971 C1968 1.386 . S
C1972 C1967 1.490 . S
C1972 C1974 1.395 1_556 S
C1972 C1975 1.403 . S
H1973 C1979 0.930 . S
C1974 H1960 0.930 . S
C1974 C1972 1.395 1_554 S
C1974 C1977 1.403 . S
C1975 C1972 1.403 . S
C1975 C1976 1.524 . S
C1975 C1979 1.400 . S
C1976 H1961 0.960 . S
C1976 H1962 0.960 . S
C1976 H1963 0.960 . S
C1976 C1975 1.524 . S
C1977 C1974 1.403 . S
C1977 C1978 1.392 . S
C1977 C1981 1.495 . S
C1978 C1977 1.392 . S
C1978 C1979 1.385 1_554 S
C1978 C1980 1.478 . S
C1979 H1973 0.930 . S
C1979 C1975 1.400 . S
C1979 C1978 1.385 1_556 S
C1980 C1978 1.478 . S
C1980 C1982 1.381 . S
C1980 C1986 1.383 1_554 S
C1981 C1977 1.495 . S
C1981 H1987 0.959 . S
C1981 H1988 0.961 . S
C1981 H1989 0.960 . S
C1982 C1980 1.381 . S
C1982 C1983 1.394 . S
C1982 H1990 0.930 . S
C1983 C1982 1.394 . S
C1983 C1984 1.383 . S
C1983 H1991 0.929 . S
C1984 C1983 1.383 . S
C1984 C1985 1.377 1_554 S
C1985 H1969 0.930 . S
C1985 C1984 1.377 1_556 S
C1985 C1986 1.379 . S
C1986 H1970 0.931 . S
C1986 C1980 1.383 1_556 S
C1986 C1985 1.379 . S
H1987 C1981 0.959 . S
H1988 C1981 0.961 . S
H1989 C1981 0.960 . S
H1990 C1982 0.930 . S
H1991 C1983 0.929 . S
H1992 C2000 0.929 . S
H1993 C2002 0.930 . S
H1994 C2004 0.930 . S
H1995 C2007 0.929 . S
H1996 C2010 0.930 . S
H1997 C2012 0.960 . S
H1998 C2012 0.960 . S
H1999 C2012 0.960 . S
C2000 H1992 0.929 . S
C2000 C2001 1.377 . S
C2000 C2002 1.384 . S
C2001 C2000 1.377 . S
C2001 C2007 1.390 . S
C2002 H1993 0.930 . S
C2002 C2000 1.384 . S
C2002 C2003 1.372 . S
C2003 C2002 1.372 . S
C2003 C2004 1.400 . S
C2003 C2008 1.490 . S
C2004 H1994 0.930 . S
C2004 C2003 1.400 . S
C2004 C2007 1.386 . S
H2005 C2021 0.930 . S
H2006 C2022 0.931 . S
C2007 H1995 0.929 . S
C2007 C2001 1.390 . S
C2007 C2004 1.386 . S
C2008 C2003 1.490 . S
C2008 C2010 1.395 . S
C2008 C2011 1.403 . S
H2009 C2015 0.930 . S
C2010 H1996 0.930 . S
C2010 C2008 1.395 . S
C2010 C2013 1.403 . S
C2011 C2008 1.403 . S
C2011 C2012 1.524 . S
C2011 C2015 1.400 . S
C2012 H1997 0.960 . S
C2012 H1998 0.960 . S
C2012 H1999 0.960 . S
C2012 C2011 1.524 . S
C2013 C2010 1.403 . S
C2013 C2014 1.392 . S
C2013 C2017 1.495 . S
C2014 C2013 1.392 . S
C2014 C2015 1.385 . S
C2014 C2016 1.478 . S
C2015 H2009 0.930 . S
C2015 C2011 1.400 . S
C2015 C2014 1.385 . S
C2016 C2014 1.478 . S
C2016 C2018 1.381 . S
C2016 C2022 1.383 . S
C2017 C2013 1.495 . S
C2017 H2023 0.959 . S
C2017 H2024 0.961 . S
C2017 H2025 0.960 . S
C2018 C2016 1.381 . S
C2018 C2019 1.394 . S
C2018 H2026 0.930 . S
C2019 C2018 1.394 . S
C2019 C2020 1.383 . S
C2019 H2027 0.929 . S
C2020 C2019 1.383 . S
C2020 C2021 1.377 . S
C2021 H2005 0.930 . S
C2021 C2020 1.377 . S
C2021 C2022 1.379 . S
C2022 H2006 0.931 . S
C2022 C2016 1.383 . S
C2022 C2021 1.379 . S
H2023 C2017 0.959 . S
H2024 C2017 0.961 . S
H2025 C2017 0.960 . S
H2026 C2018 0.930 . S
H2027 C2019 0.929 . S
H2028 C2036 0.929 . S
H2029 C2038 0.930 . S
H2030 C2040 0.930 . S
H2031 C2043 0.929 . S
H2032 C2046 0.930 . S
H2033 C2048 0.960 . S
H2034 C2048 0.960 . S
H2035 C2048 0.960 . S
C2036 H2028 0.929 . S
C2036 C2037 1.377 . S
C2036 C2038 1.384 . S
C2037 C2036 1.377 . S
C2037 C2043 1.390 . S
C2038 H2029 0.930 . S
C2038 C2036 1.384 . S
C2038 C2039 1.372 . S
C2039 C2038 1.372 . S
C2039 C2040 1.400 . S
C2039 C2044 1.490 . S
C2040 H2030 0.930 . S
C2040 C2039 1.400 . S
C2040 C2043 1.386 . S
H2041 C2057 0.930 . S
H2042 C2058 0.931 . S
C2043 H2031 0.929 . S
C2043 C2037 1.390 . S
C2043 C2040 1.386 . S
C2044 C2039 1.490 . S
C2044 C2046 1.395 . S
C2044 C2047 1.403 . S
H2045 C2051 0.930 . S
C2046 H2032 0.930 . S
C2046 C2044 1.395 . S
C2046 C2049 1.403 . S
C2047 C2044 1.403 . S
C2047 C2048 1.524 . S
C2047 C2051 1.400 . S
C2048 H2033 0.960 . S
C2048 H2034 0.960 . S
C2048 H2035 0.960 . S
C2048 C2047 1.524 . S
C2049 C2046 1.403 . S
C2049 C2050 1.392 . S
C2049 C2053 1.495 . S
C2050 C2049 1.392 . S
C2050 C2051 1.385 . S
C2050 C2052 1.478 . S
C2051 H2045 0.930 . S
C2051 C2047 1.400 . S
C2051 C2050 1.385 . S
C2052 C2050 1.478 . S
C2052 C2054 1.381 . S
C2052 C2058 1.383 . S
C2053 C2049 1.495 . S
C2053 H2059 0.959 . S
C2053 H2060 0.961 . S
C2053 H2061 0.960 . S
C2054 C2052 1.381 . S
C2054 C2055 1.394 . S
C2054 H2062 0.930 . S
C2055 C2054 1.394 . S
C2055 C2056 1.383 . S
C2055 H2063 0.929 . S
C2056 C2055 1.383 . S
C2056 C2057 1.377 . S
C2057 H2041 0.930 . S
C2057 C2056 1.377 . S
C2057 C2058 1.379 . S
C2058 H2042 0.931 . S
C2058 C2052 1.383 . S
C2058 C2057 1.379 . S
H2059 C2053 0.959 . S
H2060 C2053 0.961 . S
H2061 C2053 0.960 . S
H2062 C2054 0.930 . S
H2063 C2055 0.929 . S
H2064 C2072 0.929 . S
H2065 C2074 0.930 . S
H2066 C2076 0.930 . S
H2067 C2079 0.929 . S
H2068 C2082 0.930 . S
H2069 C2084 0.960 . S
H2070 C2084 0.960 . S
H2071 C2084 0.960 . S
C2072 H2064 0.929 . S
C2072 C2073 1.377 . S
C2072 C2074 1.384 . S
C2073 C2072 1.377 . S
C2073 C2079 1.390 . S
C2074 H2065 0.930 . S
C2074 C2072 1.384 . S
C2074 C2075 1.372 . S
C2075 C2074 1.372 . S
C2075 C2076 1.400 . S
C2075 C2080 1.490 . S
C2076 H2066 0.930 . S
C2076 C2075 1.400 . S
C2076 C2079 1.386 . S
H2077 C2093 0.930 . S
H2078 C2094 0.931 . S
C2079 H2067 0.929 . S
C2079 C2073 1.390 . S
C2079 C2076 1.386 . S
C2080 C2075 1.490 . S
C2080 C2082 1.395 . S
C2080 C2083 1.403 . S
H2081 C2087 0.930 . S
C2082 H2068 0.930 . S
C2082 C2080 1.395 . S
C2082 C2085 1.403 . S
C2083 C2080 1.403 . S
C2083 C2084 1.524 . S
C2083 C2087 1.400 . S
C2084 H2069 0.960 . S
C2084 H2070 0.960 . S
C2084 H2071 0.960 . S
C2084 C2083 1.524 . S
C2085 C2082 1.403 . S
C2085 C2086 1.392 . S
C2085 C2089 1.495 . S
C2086 C2085 1.392 . S
C2086 C2087 1.385 . S
C2086 C2088 1.478 . S
C2087 H2081 0.930 . S
C2087 C2083 1.400 . S
C2087 C2086 1.385 . S
C2088 C2086 1.478 . S
C2088 C2090 1.381 . S
C2088 C2094 1.383 . S
C2089 C2085 1.495 . S
C2089 H2095 0.959 . S
C2089 H2096 0.961 . S
C2089 H2097 0.960 . S
C2090 C2088 1.381 . S
C2090 C2091 1.394 . S
C2090 H2098 0.930 . S
C2091 C2090 1.394 . S
C2091 C2092 1.383 . S
C2091 H2099 0.929 . S
C2092 C2091 1.383 . S
C2092 C2093 1.377 . S
C2093 H2077 0.930 . S
C2093 C2092 1.377 . S
C2093 C2094 1.379 . S
C2094 H2078 0.931 . S
C2094 C2088 1.383 . S
C2094 C2093 1.379 . S
H2095 C2089 0.959 . S
H2096 C2089 0.961 . S
H2097 C2089 0.960 . S
H2098 C2090 0.930 . S
H2099 C2091 0.929 . S
H2100 C2108 0.929 . S
H2101 C2110 0.930 . S
H2102 C2112 0.930 1_554 S
H2103 C2115 0.929 . S
H2104 C2118 0.930 . S
H2105 C2120 0.960 . S
H2106 C2120 0.960 . S
H2107 C2120 0.960 . S
C2108 H2100 0.929 . S
C2108 C2109 1.377 . S
C2108 C2110 1.384 . S
C2109 C2108 1.377 . S
C2109 C2115 1.390 . S
C2110 H2101 0.930 . S
C2110 C2108 1.384 . S
C2110 C2111 1.372 . S
C2111 C2110 1.372 . S
C2111 C2112 1.400 . S
C2111 C2116 1.490 . S
C2112 H2102 0.930 1_556 S
C2112 C2111 1.400 . S
C2112 C2115 1.386 . S
H2113 C2129 0.930 . S
H2114 C2130 0.931 . S
C2115 H2103 0.929 . S
C2115 C2109 1.390 . S
C2115 C2112 1.386 . S
C2116 C2111 1.490 . S
C2116 C2118 1.395 . S
C2116 C2119 1.403 1_556 S
H2117 C2123 0.930 . S
C2118 H2104 0.930 . S
C2118 C2116 1.395 . S
C2118 C2121 1.403 . S
C2119 C2116 1.403 1_554 S
C2119 C2120 1.524 . S
C2119 C2123 1.400 . S
C2120 H2105 0.960 . S
C2120 H2106 0.960 . S
C2120 H2107 0.960 . S
C2120 C2119 1.524 . S
C2121 C2118 1.403 . S
C2121 C2122 1.404 . S
C2121 C2125 1.495 . S
C2122 C2121 1.404 . S
C2122 C2123 1.375 1_556 S
C2122 C2124 1.476 1_556 S
C2123 H2117 0.930 . S
C2123 C2119 1.400 . S
C2123 C2122 1.375 1_554 S
C2124 C2122 1.476 1_554 S
C2124 C2126 1.381 . S
C2124 C2130 1.383 . S
C2125 C2121 1.495 . S
C2125 H2131 0.959 . S
C2125 H2132 0.961 . S
C2125 H2133 0.960 . S
C2126 C2124 1.381 . S
C2126 C2127 1.394 . S
C2126 H2134 0.930 1_554 S
C2127 C2126 1.394 . S
C2127 C2128 1.383 . S
C2127 H2135 0.929 . S
C2128 C2127 1.383 . S
C2128 C2129 1.377 . S
C2129 H2113 0.930 . S
C2129 C2128 1.377 . S
C2129 C2130 1.379 . S
C2130 H2114 0.931 . S
C2130 C2124 1.383 . S
C2130 C2129 1.379 . S
H2131 C2125 0.959 . S
H2132 C2125 0.961 . S
H2133 C2125 0.960 . S
H2134 C2126 0.930 1_556 S
H2135 C2127 0.929 . S
H2136 C2144 0.929 . S
H2137 C2146 0.930 . S
H2138 C2148 0.930 . S
H2139 C2151 0.929 . S
H2140 C2154 0.930 . S
H2141 C2156 0.960 . S
H2142 C2156 0.960 . S
H2143 C2156 0.960 . S
C2144 H2136 0.929 . S
C2144 C2145 1.377 . S
C2144 C2146 1.384 . S
C2145 C2144 1.377 . S
C2145 C2151 1.390 . S
C2146 H2137 0.930 . S
C2146 C2144 1.384 . S
C2146 C2147 1.372 . S
C2147 C2146 1.372 . S
C2147 C2148 1.400 . S
C2147 C2152 1.490 . S
C2148 H2138 0.930 . S
C2148 C2147 1.400 . S
C2148 C2151 1.386 . S
H2149 C2165 0.930 . S
H2150 C2166 0.931 . S
C2151 H2139 0.929 . S
C2151 C2145 1.390 . S
C2151 C2148 1.386 . S
C2152 C2147 1.490 . S
C2152 C2154 1.395 . S
C2152 C2155 1.403 . S
H2153 C2159 0.930 . S
C2154 H2140 0.930 . S
C2154 C2152 1.395 . S
C2154 C2157 1.403 . S
C2155 C2152 1.403 . S
C2155 C2156 1.524 . S
C2155 C2159 1.400 . S
C2156 H2141 0.960 . S
C2156 H2142 0.960 . S
C2156 H2143 0.960 . S
C2156 C2155 1.524 . S
C2157 C2154 1.403 . S
C2157 C2158 1.392 . S
C2157 C2161 1.495 . S
C2158 C2157 1.392 . S
C2158 C2159 1.385 . S
C2158 C2160 1.478 . S
C2159 H2153 0.930 . S
C2159 C2155 1.400 . S
C2159 C2158 1.385 . S
C2160 C2158 1.478 . S
C2160 C2162 1.381 . S
C2160 C2166 1.383 . S
C2161 C2157 1.495 . S
C2161 H2167 0.959 . S
C2161 H2168 0.961 . S
C2161 H2169 0.960 . S
C2162 C2160 1.381 . S
C2162 C2163 1.394 . S
C2162 H2170 0.930 . S
C2163 C2162 1.394 . S
C2163 C2164 1.383 . S
C2163 H2171 0.929 . S
C2164 C2163 1.383 . S
C2164 C2165 1.377 . S
C2165 H2149 0.930 . S
C2165 C2164 1.377 . S
C2165 C2166 1.379 . S
C2166 H2150 0.931 . S
C2166 C2160 1.383 . S
C2166 C2165 1.379 . S
H2167 C2161 0.959 . S
H2168 C2161 0.961 . S
H2169 C2161 0.960 . S
H2170 C2162 0.930 . S
H2171 C2163 0.929 . S
H2172 C2180 0.929 . S
H2173 C2182 0.930 . S
H2174 C2184 0.930 . S
H2175 C2187 0.929 . S
H2176 C2190 0.930 . S
H2177 C2192 0.960 . S
H2178 C2192 0.960 . S
H2179 C2192 0.960 . S
C2180 H2172 0.929 . S
C2180 C2181 1.377 . S
C2180 C2182 1.384 . S
C2181 C2180 1.377 . S
C2181 C2187 1.390 . S
C2182 H2173 0.930 . S
C2182 C2180 1.384 . S
C2182 C2183 1.372 . S
C2183 C2182 1.372 . S
C2183 C2184 1.400 . S
C2183 C2188 1.490 . S
C2184 H2174 0.930 . S
C2184 C2183 1.400 . S
C2184 C2187 1.386 . S
H2185 C2201 0.930 . S
H2186 C2202 0.931 . S
C2187 H2175 0.929 . S
C2187 C2181 1.390 . S
C2187 C2184 1.386 . S
C2188 C2183 1.490 . S
C2188 C2190 1.395 . S
C2188 C2191 1.403 . S
H2189 C2195 0.930 . S
C2190 H2176 0.930 . S
C2190 C2188 1.395 . S
C2190 C2193 1.403 . S
C2191 C2188 1.403 . S
C2191 C2192 1.524 . S
C2191 C2195 1.400 . S
C2192 H2177 0.960 . S
C2192 H2178 0.960 . S
C2192 H2179 0.960 . S
C2192 C2191 1.524 . S
C2193 C2190 1.403 . S
C2193 C2194 1.392 . S
C2193 C2197 1.495 . S
C2194 C2193 1.392 . S
C2194 C2195 1.385 . S
C2194 C2196 1.478 . S
C2195 H2189 0.930 . S
C2195 C2191 1.400 . S
C2195 C2194 1.385 . S
C2196 C2194 1.478 . S
C2196 C2198 1.381 . S
C2196 C2202 1.383 . S
C2197 C2193 1.495 . S
C2197 H2203 0.959 . S
C2197 H2204 0.961 . S
C2197 H2205 0.960 . S
C2198 C2196 1.381 . S
C2198 C2199 1.394 . S
C2198 H2206 0.930 . S
C2199 C2198 1.394 . S
C2199 C2200 1.383 . S
C2199 H2207 0.929 . S
C2200 C2199 1.383 . S
C2200 C2201 1.377 . S
C2201 H2185 0.930 . S
C2201 C2200 1.377 . S
C2201 C2202 1.379 . S
C2202 H2186 0.931 . S
C2202 C2196 1.383 . S
C2202 C2201 1.379 . S
H2203 C2197 0.959 . S
H2204 C2197 0.961 . S
H2205 C2197 0.960 . S
H2206 C2198 0.930 . S
H2207 C2199 0.929 . S
H2208 C2216 0.929 . S
H2209 C2218 0.933 1_455 S
H2210 C2220 0.930 . S
H2211 C2223 0.929 . S
H2212 C2226 0.930 . S
H2213 C2228 0.960 . S
H2214 C2228 0.960 . S
H2215 C2228 0.960 1_655 S
C2216 H2208 0.929 . S
C2216 C2217 1.377 . S
C2216 C2218 1.384 . S
C2217 C2216 1.377 . S
C2217 C2223 1.390 . S
C2218 H2209 0.933 1_655 S
C2218 C2216 1.384 . S
C2218 C2219 1.372 . S
C2219 C2218 1.372 . S
C2219 C2220 1.400 . S
C2219 C2224 1.490 . S
C2220 H2210 0.930 . S
C2220 C2219 1.400 . S
C2220 C2223 1.386 . S
H2221 C2237 0.930 . S
H2222 C2238 0.931 1_655 S
C2223 H2211 0.929 . S
C2223 C2217 1.390 . S
C2223 C2220 1.386 . S
C2224 C2219 1.490 . S
C2224 C2226 1.395 . S
C2224 C2227 1.403 1_655 S
H2225 C2231 0.930 . S
C2226 H2212 0.930 . S
C2226 C2224 1.395 . S
C2226 C2229 1.403 . S
C2227 C2224 1.403 1_455 S
C2227 C2228 1.524 . S
C2227 C2231 1.400 . S
C2228 H2213 0.960 . S
C2228 H2214 0.960 . S
C2228 H2215 0.960 1_455 S
C2228 C2227 1.524 . S
C2229 C2226 1.403 . S
C2229 C2230 1.392 1_655 S
C2229 C2233 1.495 . S
C2230 C2229 1.392 1_455 S
C2230 C2231 1.385 . S
C2230 C2232 1.478 . S
C2231 H2225 0.930 . S
C2231 C2227 1.400 . S
C2231 C2230 1.385 . S
C2232 C2230 1.478 . S
C2232 C2234 1.381 . S
C2232 C2238 1.383 . S
C2233 C2229 1.495 . S
C2233 H2239 0.959 . S
C2233 H2240 0.961 . S
C2233 H2241 0.960 1_655 S
C2234 C2232 1.381 . S
C2234 C2235 1.394 . S
C2234 H2242 0.930 . S
C2235 C2234 1.394 . S
C2235 C2236 1.383 . S
C2235 H2243 0.929 . S
C2236 C2235 1.383 . S
C2236 C2237 1.377 . S
C2237 H2221 0.930 . S
C2237 C2236 1.377 . S
C2237 C2238 1.379 . S
C2238 H2222 0.931 1_455 S
C2238 C2232 1.383 . S
C2238 C2237 1.379 . S
H2239 C2233 0.959 . S
H2240 C2233 0.961 . S
H2241 C2233 0.960 1_455 S
H2242 C2234 0.930 . S
H2243 C2235 0.929 . S
H2244 C2252 0.929 . S
H2245 C2254 0.930 . S
H2246 C2256 0.930 . S
H2247 C2259 0.929 . S
H2248 C2262 0.930 . S
H2249 C2264 0.960 1_655 S
H2250 C2264 0.960 . S
H2251 C2264 0.960 . S
C2252 H2244 0.929 . S
C2252 C2253 1.377 . S
C2252 C2254 1.384 . S
C2253 C2252 1.377 . S
C2253 C2259 1.390 . S
C2254 H2245 0.930 . S
C2254 C2252 1.384 . S
C2254 C2255 1.372 . S
C2255 C2254 1.372 . S
C2255 C2256 1.400 . S
C2255 C2260 1.490 . S
C2256 H2246 0.930 . S
C2256 C2255 1.400 . S
C2256 C2259 1.386 . S
H2257 C2273 0.930 . S
H2258 C2274 0.931 . S
C2259 H2247 0.929 . S
C2259 C2253 1.390 . S
C2259 C2256 1.386 . S
C2260 C2255 1.490 . S
C2260 C2262 1.395 . S
C2260 C2263 1.403 . S
H2261 C2267 0.930 . S
C2262 H2248 0.930 . S
C2262 C2260 1.395 . S
C2262 C2265 1.403 1_455 S
C2263 C2260 1.403 . S
C2263 C2264 1.524 . S
C2263 C2267 1.400 1_455 S
C2264 H2249 0.960 1_455 S
C2264 H2250 0.960 . S
C2264 H2251 0.960 . S
C2264 C2263 1.524 . S
C2265 C2262 1.403 1_655 S
C2265 C2266 1.392 . S
C2265 C2269 1.495 . S
C2266 C2265 1.392 . S
C2266 C2267 1.385 . S
C2266 C2268 1.478 . S
C2267 H2261 0.930 . S
C2267 C2263 1.400 1_655 S
C2267 C2266 1.385 . S
C2268 C2266 1.478 . S
C2268 C2270 1.381 . S
C2268 C2274 1.383 . S
C2269 C2265 1.495 . S
C2269 H2275 0.959 1_655 S
C2269 H2276 0.961 . S
C2269 H2277 0.960 . S
C2270 C2268 1.381 . S
C2270 C2271 1.394 . S
C2270 H2278 0.930 . S
C2271 C2270 1.394 . S
C2271 C2272 1.383 . S
C2271 H2279 0.929 . S
C2272 C2271 1.383 . S
C2272 C2273 1.377 . S
C2273 H2257 0.930 . S
C2273 C2272 1.377 . S
C2273 C2274 1.379 . S
C2274 H2258 0.931 . S
C2274 C2268 1.383 . S
C2274 C2273 1.379 . S
H2275 C2269 0.959 1_455 S
H2276 C2269 0.961 . S
H2277 C2269 0.960 . S
H2278 C2270 0.930 . S
H2279 C2271 0.929 . S
H2280 C2288 0.929 . S
H2281 C2290 0.930 . S
H2282 C2292 0.930 . S
H2283 C2295 0.929 . S
H2284 C2298 0.930 . S
H2285 C2300 0.960 . S
H2286 C2300 0.960 . S
H2287 C2300 0.960 . S
C2288 H2280 0.929 . S
C2288 C2289 1.377 . S
C2288 C2290 1.384 . S
C2289 C2288 1.377 . S
C2289 C2295 1.390 . S
C2290 H2281 0.930 . S
C2290 C2288 1.384 . S
C2290 C2291 1.372 . S
C2291 C2290 1.372 . S
C2291 C2292 1.400 . S
C2291 C2296 1.490 . S
C2292 H2282 0.930 . S
C2292 C2291 1.400 . S
C2292 C2295 1.386 . S
H2293 C2309 0.930 . S
H2294 C2310 0.931 . S
C2295 H2283 0.929 . S
C2295 C2289 1.390 . S
C2295 C2292 1.386 . S
C2296 C2291 1.490 . S
C2296 C2298 1.395 . S
C2296 C2299 1.403 . S
H2297 C2303 0.930 . S
C2298 H2284 0.930 . S
C2298 C2296 1.395 . S
C2298 C2301 1.403 . S
C2299 C2296 1.403 . S
C2299 C2300 1.524 . S
C2299 C2303 1.400 . S
C2300 H2285 0.960 . S
C2300 H2286 0.960 . S
C2300 H2287 0.960 . S
C2300 C2299 1.524 . S
C2301 C2298 1.403 . S
C2301 C2302 1.392 . S
C2301 C2305 1.495 . S
C2302 C2301 1.392 . S
C2302 C2303 1.385 . S
C2302 C2304 1.478 . S
C2303 H2297 0.930 . S
C2303 C2299 1.400 . S
C2303 C2302 1.385 . S
C2304 C2302 1.478 . S
C2304 C2306 1.381 . S
C2304 C2310 1.383 . S
C2305 C2301 1.495 . S
C2305 H2311 0.959 . S
C2305 H2312 0.961 . S
C2305 H2313 0.960 . S
C2306 C2304 1.381 . S
C2306 C2307 1.394 . S
C2306 H2314 0.930 . S
C2307 C2306 1.394 . S
C2307 C2308 1.383 . S
C2307 H2315 0.929 . S
C2308 C2307 1.383 . S
C2308 C2309 1.377 . S
C2309 H2293 0.930 . S
C2309 C2308 1.377 . S
C2309 C2310 1.379 . S
C2310 H2294 0.931 . S
C2310 C2304 1.383 . S
C2310 C2309 1.379 . S
H2311 C2305 0.959 . S
H2312 C2305 0.961 . S
H2313 C2305 0.960 . S
H2314 C2306 0.930 . S
H2315 C2307 0.929 . S
H2316 C2324 0.929 . S
H2317 C2326 0.930 . S
H2318 C2328 0.930 1_556 S
H2319 C2331 0.929 1_556 S
H2320 C2334 0.930 . S
H2321 C2336 0.960 . S
H2322 C2336 0.960 . S
H2323 C2336 0.960 . S
C2324 H2316 0.929 . S
C2324 C2325 1.377 . S
C2324 C2326 1.384 . S
C2325 C2324 1.377 . S
C2325 C2331 1.390 . S
C2326 H2317 0.930 . S
C2326 C2324 1.384 . S
C2326 C2327 1.372 . S
C2327 C2326 1.372 . S
C2327 C2328 1.400 . S
C2327 C2332 1.490 . S
C2328 H2318 0.930 1_554 S
C2328 C2327 1.400 . S
C2328 C2331 1.386 . S
H2329 C2345 0.930 . S
H2330 C2346 0.931 . S
C2331 H2319 0.929 1_554 S
C2331 C2325 1.390 . S
C2331 C2328 1.386 . S
C2332 C2327 1.490 . S
C2332 C2334 1.395 . S
C2332 C2335 1.425 . S
H2333 C2339 0.930 1_556 S
C2334 H2320 0.930 . S
C2334 C2332 1.395 . S
C2334 C2337 1.403 . S
C2335 C2332 1.425 . S
C2335 C2336 1.500 1_554 S
C2335 C2339 1.403 . S
C2336 H2321 0.960 . S
C2336 H2322 0.960 . S
C2336 H2323 0.960 . S
C2336 C2335 1.500 1_556 S
C2337 C2334 1.403 . S
C2337 C2338 1.392 . S
C2337 C2341 1.495 . S
C2338 C2337 1.392 . S
C2338 C2339 1.385 . S
C2338 C2340 1.478 . S
C2339 H2333 0.930 1_554 S
C2339 C2335 1.403 . S
C2339 C2338 1.385 . S
C2340 C2338 1.478 . S
C2340 C2342 1.381 . S
C2340 C2346 1.383 . S
C2341 C2337 1.495 . S
C2341 H2347 0.959 . S
C2341 H2348 0.961 . S
C2341 H2349 0.960 . S
C2342 C2340 1.381 . S
C2342 C2343 1.394 . S
C2342 H2350 0.930 . S
C2343 C2342 1.394 . S
C2343 C2344 1.383 . S
C2343 H2351 0.929 . S
C2344 C2343 1.383 . S
C2344 C2345 1.377 . S
C2345 H2329 0.930 . S
C2345 C2344 1.377 . S
C2345 C2346 1.379 . S
C2346 H2330 0.931 . S
C2346 C2340 1.383 . S
C2346 C2345 1.379 . S
H2347 C2341 0.959 . S
H2348 C2341 0.961 . S
H2349 C2341 0.960 . S
H2350 C2342 0.930 . S
H2351 C2343 0.929 . S
H2352 C2360 0.929 . S
H2353 C2362 0.930 1_455 S
H2354 C2364 0.930 . S
H2355 C2367 0.929 . S
H2356 C2370 0.930 . S
H2357 C2372 0.960 . S
H2358 C2372 0.960 . S
H2359 C2372 0.960 . S
C2360 H2352 0.929 . S
C2360 C2361 1.377 . S
C2360 C2362 1.384 . S
C2361 C2360 1.377 . S
C2361 C2367 1.390 . S
C2362 H2353 0.930 1_655 S
C2362 C2360 1.384 . S
C2362 C2363 1.372 . S
C2363 C2362 1.372 . S
C2363 C2364 1.400 . S
C2363 C2368 1.490 . S
C2364 H2354 0.930 . S
C2364 C2363 1.400 . S
C2364 C2367 1.386 . S
H2365 C2381 0.930 . S
H2366 C2382 0.931 1_655 S
C2367 H2355 0.929 . S
C2367 C2361 1.390 . S
C2367 C2364 1.386 . S
C2368 C2363 1.490 . S
C2368 C2370 1.395 1_655 S
C2368 C2371 1.403 . S
H2369 C2375 0.930 . S
C2370 H2356 0.930 . S
C2370 C2368 1.395 1_455 S
C2370 C2373 1.403 . S
C2371 C2368 1.403 . S
C2371 C2372 1.524 . S
C2371 C2375 1.400 . S
C2372 H2357 0.960 . S
C2372 H2358 0.960 . S
C2372 H2359 0.960 . S
C2372 C2371 1.524 . S
C2373 C2370 1.403 . S
C2373 C2374 1.392 . S
C2373 C2377 1.495 . S
C2374 C2373 1.392 . S
C2374 C2375 1.385 1_455 S
C2374 C2376 1.478 . S
C2375 H2369 0.930 . S
C2375 C2371 1.400 . S
C2375 C2374 1.385 1_655 S
C2376 C2374 1.478 . S
C2376 C2378 1.381 . S
C2376 C2382 1.383 . S
C2377 C2373 1.495 . S
C2377 H2383 0.959 . S
C2377 H2384 0.961 . S
C2377 H2385 0.960 . S
C2378 C2376 1.381 . S
C2378 C2379 1.394 . S
C2378 H2386 0.930 . S
C2379 C2378 1.394 . S
C2379 C2380 1.383 . S
C2379 H2387 0.929 . S
C2380 C2379 1.383 . S
C2380 C2381 1.377 . S
C2381 H2365 0.930 . S
C2381 C2380 1.377 . S
C2381 C2382 1.379 . S
C2382 H2366 0.931 1_455 S
C2382 C2376 1.383 . S
C2382 C2381 1.379 . S
H2383 C2377 0.959 . S
H2384 C2377 0.961 . S
H2385 C2377 0.960 . S
H2386 C2378 0.930 . S
H2387 C2379 0.929 . S
H2388 C2396 0.929 . S
H2389 C2398 0.930 . S
H2390 C2400 0.930 . S
H2391 C2403 0.929 . S
H2392 C2406 0.930 . S
H2393 C2408 0.960 . S
H2394 C2408 0.960 . S
H2395 C2408 0.960 . S
C2396 H2388 0.929 . S
C2396 C2397 1.377 . S
C2396 C2398 1.384 . S
C2397 C2396 1.377 . S
C2397 C2403 1.390 . S
C2398 H2389 0.930 . S
C2398 C2396 1.384 . S
C2398 C2399 1.372 . S
C2399 C2398 1.372 . S
C2399 C2400 1.400 . S
C2399 C2404 1.490 . S
C2400 H2390 0.930 . S
C2400 C2399 1.400 . S
C2400 C2403 1.386 . S
H2401 C2417 0.930 . S
H2402 C2418 0.931 . S
C2403 H2391 0.929 . S
C2403 C2397 1.390 . S
C2403 C2400 1.386 . S
C2404 C2399 1.490 . S
C2404 C2406 1.395 . S
C2404 C2407 1.403 . S
H2405 C2411 0.930 . S
C2406 H2392 0.930 . S
C2406 C2404 1.395 . S
C2406 C2409 1.403 . S
C2407 C2404 1.403 . S
C2407 C2408 1.524 . S
C2407 C2411 1.400 . S
C2408 H2393 0.960 . S
C2408 H2394 0.960 . S
C2408 H2395 0.960 . S
C2408 C2407 1.524 . S
C2409 C2406 1.403 . S
C2409 C2410 1.392 . S
C2409 C2413 1.495 . S
C2410 C2409 1.392 . S
C2410 C2411 1.385 . S
C2410 C2412 1.478 . S
C2411 H2405 0.930 . S
C2411 C2407 1.400 . S
C2411 C2410 1.385 . S
C2412 C2410 1.478 . S
C2412 C2414 1.381 . S
C2412 C2418 1.383 . S
C2413 C2409 1.495 . S
C2413 H2419 0.959 . S
C2413 H2420 0.961 . S
C2413 H2421 0.960 . S
C2414 C2412 1.381 . S
C2414 C2415 1.394 . S
C2414 H2422 0.930 . S
C2415 C2414 1.394 . S
C2415 C2416 1.383 . S
C2415 H2423 0.929 . S
C2416 C2415 1.383 . S
C2416 C2417 1.377 . S
C2417 H2401 0.930 . S
C2417 C2416 1.377 . S
C2417 C2418 1.379 . S
C2418 H2402 0.931 . S
C2418 C2412 1.383 . S
C2418 C2417 1.379 . S
H2419 C2413 0.959 . S
H2420 C2413 0.961 . S
H2421 C2413 0.960 . S
H2422 C2414 0.930 . S
H2423 C2415 0.929 . S
H2424 C2432 0.929 . S
H2425 C2434 0.930 . S
H2426 C2436 0.930 . S
H2427 C2439 0.929 . S
H2428 C2442 0.930 . S
H2429 C2444 0.960 . S
H2430 C2444 0.960 . S
H2431 C2444 0.960 . S
C2432 H2424 0.929 . S
C2432 C2433 1.377 . S
C2432 C2434 1.384 . S
C2433 C2432 1.377 . S
C2433 C2439 1.390 . S
C2434 H2425 0.930 . S
C2434 C2432 1.384 . S
C2434 C2435 1.372 . S
C2435 C2434 1.372 . S
C2435 C2436 1.400 . S
C2435 C2440 1.490 . S
C2436 H2426 0.930 . S
C2436 C2435 1.400 . S
C2436 C2439 1.386 . S
H2437 C2453 0.930 . S
H2438 C2454 0.931 . S
C2439 H2427 0.929 . S
C2439 C2433 1.390 . S
C2439 C2436 1.386 . S
C2440 C2435 1.490 . S
C2440 C2442 1.395 . S
C2440 C2443 1.403 . S
H2441 C2447 0.930 . S
C2442 H2428 0.930 . S
C2442 C2440 1.395 . S
C2442 C2445 1.403 . S
C2443 C2440 1.403 . S
C2443 C2444 1.524 . S
C2443 C2447 1.400 . S
C2444 H2429 0.960 . S
C2444 H2430 0.960 . S
C2444 H2431 0.960 . S
C2444 C2443 1.524 . S
C2445 C2442 1.403 . S
C2445 C2446 1.392 . S
C2445 C2449 1.495 . S
C2446 C2445 1.392 . S
C2446 C2447 1.385 . S
C2446 C2448 1.478 . S
C2447 H2441 0.930 . S
C2447 C2443 1.400 . S
C2447 C2446 1.385 . S
C2448 C2446 1.478 . S
C2448 C2450 1.381 . S
C2448 C2454 1.383 . S
C2449 C2445 1.495 . S
C2449 H2455 0.959 . S
C2449 H2456 0.961 . S
C2449 H2457 0.960 . S
C2450 C2448 1.381 . S
C2450 C2451 1.394 . S
C2450 H2458 0.930 . S
C2451 C2450 1.394 . S
C2451 C2452 1.383 . S
C2451 H2459 0.929 . S
C2452 C2451 1.383 . S
C2452 C2453 1.377 . S
C2453 H2437 0.930 . S
C2453 C2452 1.377 . S
C2453 C2454 1.379 . S
C2454 H2438 0.931 . S
C2454 C2448 1.383 . S
C2454 C2453 1.379 . S
H2455 C2449 0.959 . S
H2456 C2449 0.961 . S
H2457 C2449 0.960 . S
H2458 C2450 0.930 . S
H2459 C2451 0.929 . S
H2460 C2468 0.929 . S
H2461 C2470 0.930 . S
H2462 C2472 0.908 1_554 S
H2463 C2475 0.935 1_554 S
H2464 C2478 0.930 . S
H2465 C2480 0.960 . S
H2466 C2480 0.960 . S
H2467 C2480 0.944 1_554 S
C2468 H2460 0.929 . S
C2468 C2469 1.377 . S
C2468 C2470 1.384 . S
C2469 C2468 1.377 . S
C2469 C2475 1.384 . S
C2470 H2461 0.930 . S
C2470 C2468 1.384 . S
C2470 C2471 1.372 . S
C2471 C2470 1.372 . S
C2471 C2472 1.422 . S
C2471 C2476 1.490 . S
C2472 H2462 0.908 1_556 S
C2472 C2471 1.422 . S
C2472 C2475 1.385 . S
H2473 C2489 0.943 . S
H2474 C2490 0.926 . S
C2475 H2463 0.935 1_556 S
C2475 C2469 1.384 . S
C2475 C2472 1.385 . S
C2476 C2471 1.490 . S
C2476 C2478 1.395 . S
C2476 C2479 1.403 . S
H2477 C2483 0.930 . S
C2478 H2464 0.930 . S
C2478 C2476 1.395 . S
C2478 C2481 1.403 1_455 S
C2479 C2476 1.403 . S
C2479 C2480 1.524 . S
C2479 C2483 1.400 1_455 S
C2480 H2465 0.960 . S
C2480 H2466 0.960 . S
C2480 H2467 0.944 1_556 S
C2480 C2479 1.524 . S
C2481 C2478 1.403 1_655 S
C2481 C2482 1.392 . S
C2481 C2485 1.495 . S
C2482 C2481 1.392 . S
C2482 C2483 1.385 . S
C2482 C2484 1.478 . S
C2483 H2477 0.930 . S
C2483 C2479 1.400 1_655 S
C2483 C2482 1.385 . S
C2484 C2482 1.478 . S
C2484 C2486 1.381 . S
C2484 C2490 1.388 1_556 S
C2485 C2481 1.495 . S
C2485 H2491 0.959 . S
C2485 H2492 0.961 . S
C2485 H2493 0.960 . S
C2486 C2484 1.381 . S
C2486 C2487 1.394 . S
C2486 H2494 0.930 . S
C2487 C2486 1.394 . S
C2487 C2488 1.383 . S
C2487 H2495 0.929 . S
C2488 C2487 1.383 . S
C2488 C2489 1.364 1_556 S
C2489 H2473 0.943 . S
C2489 C2488 1.364 1_554 S
C2489 C2490 1.379 . S
C2490 H2474 0.926 . S
C2490 C2484 1.388 1_554 S
C2490 C2489 1.379 . S
H2491 C2485 0.959 . S
H2492 C2485 0.961 . S
H2493 C2485 0.960 . S
H2494 C2486 0.930 . S
H2495 C2487 0.929 . S
H2496 C2504 0.929 . S
H2497 C2506 0.930 1_455 S
H2498 C2508 0.930 . S
H2499 C2511 0.929 . S
H2500 C2514 0.930 . S
H2501 C2516 0.960 . S
H2502 C2516 0.960 . S
H2503 C2516 0.960 . S
C2504 H2496 0.929 . S
C2504 C2505 1.377 . S
C2504 C2506 1.384 . S
C2505 C2504 1.377 . S
C2505 C2511 1.390 . S
C2506 H2497 0.930 1_655 S
C2506 C2504 1.384 . S
C2506 C2507 1.372 . S
C2507 C2506 1.372 . S
C2507 C2508 1.400 . S
C2507 C2512 1.490 . S
C2508 H2498 0.930 . S
C2508 C2507 1.400 . S
C2508 C2511 1.386 . S
H2509 C2525 0.930 . S
H2510 C2526 0.931 1_655 S
C2511 H2499 0.929 . S
C2511 C2505 1.390 . S
C2511 C2508 1.386 . S
C2512 C2507 1.490 . S
C2512 C2514 1.395 1_655 S
C2512 C2515 1.403 . S
H2513 C2519 0.930 . S
C2514 H2500 0.930 . S
C2514 C2512 1.395 1_455 S
C2514 C2517 1.403 . S
C2515 C2512 1.403 . S
C2515 C2516 1.524 . S
C2515 C2519 1.400 1_655 S
C2516 H2501 0.960 . S
C2516 H2502 0.960 . S
C2516 H2503 0.960 . S
C2516 C2515 1.524 . S
C2517 C2514 1.403 . S
C2517 C2518 1.392 . S
C2517 C2521 1.495 . S
C2518 C2517 1.392 . S
C2518 C2519 1.385 . S
C2518 C2520 1.478 . S
C2519 H2513 0.930 . S
C2519 C2515 1.400 1_455 S
C2519 C2518 1.385 . S
C2520 C2518 1.478 . S
C2520 C2522 1.381 . S
C2520 C2526 1.383 . S
C2521 C2517 1.495 . S
C2521 H2527 0.959 . S
C2521 H2528 0.961 . S
C2521 H2529 0.960 . S
C2522 C2520 1.381 . S
C2522 C2523 1.394 . S
C2522 H2530 0.930 . S
C2523 C2522 1.394 . S
C2523 C2524 1.383 . S
C2523 H2531 0.929 . S
C2524 C2523 1.383 . S
C2524 C2525 1.377 . S
C2525 H2509 0.930 . S
C2525 C2524 1.377 . S
C2525 C2526 1.379 . S
C2526 H2510 0.931 1_455 S
C2526 C2520 1.383 . S
C2526 C2525 1.379 . S
H2527 C2521 0.959 . S
H2528 C2521 0.961 . S
H2529 C2521 0.960 . S
H2530 C2522 0.930 . S
H2531 C2523 0.929 . S
H2532 C2540 0.929 . S
H2533 C2542 0.930 . S
H2534 C2544 0.930 . S
H2535 C2547 0.929 . S
H2536 C2550 0.930 . S
H2537 C2552 0.960 . S
H2538 C2552 0.960 . S
H2539 C2552 0.960 . S
C2540 H2532 0.929 . S
C2540 C2541 1.377 . S
C2540 C2542 1.384 . S
C2541 C2540 1.377 . S
C2541 C2547 1.390 . S
C2542 H2533 0.930 . S
C2542 C2540 1.384 . S
C2542 C2543 1.372 . S
C2543 C2542 1.372 . S
C2543 C2544 1.400 . S
C2543 C2548 1.490 . S
C2544 H2534 0.930 . S
C2544 C2543 1.400 . S
C2544 C2547 1.386 . S
H2545 C2561 0.930 . S
H2546 C2562 0.931 . S
C2547 H2535 0.929 . S
C2547 C2541 1.390 . S
C2547 C2544 1.386 . S
C2548 C2543 1.490 . S
C2548 C2550 1.395 . S
C2548 C2551 1.403 . S
H2549 C2555 0.930 . S
C2550 H2536 0.930 . S
C2550 C2548 1.395 . S
C2550 C2553 1.403 1_655 S
C2551 C2548 1.403 . S
C2551 C2552 1.524 . S
C2551 C2555 1.400 1_655 S
C2552 H2537 0.960 . S
C2552 H2538 0.960 . S
C2552 H2539 0.960 . S
C2552 C2551 1.524 . S
C2553 C2550 1.403 1_455 S
C2553 C2554 1.392 . S
C2553 C2557 1.495 . S
C2554 C2553 1.392 . S
C2554 C2555 1.385 . S
C2554 C2556 1.478 . S
C2555 H2549 0.930 . S
C2555 C2551 1.400 1_455 S
C2555 C2554 1.385 . S
C2556 C2554 1.478 . S
C2556 C2558 1.381 . S
C2556 C2562 1.383 . S
C2557 C2553 1.495 . S
C2557 H2563 0.959 . S
C2557 H2564 0.961 . S
C2557 H2565 0.960 . S
C2558 C2556 1.381 . S
C2558 C2559 1.394 . S
C2558 H2566 0.930 . S
C2559 C2558 1.394 . S
C2559 C2560 1.383 . S
C2559 H2567 0.929 . S
C2560 C2559 1.383 . S
C2560 C2561 1.377 . S
C2561 H2545 0.930 . S
C2561 C2560 1.377 . S
C2561 C2562 1.379 . S
C2562 H2546 0.931 . S
C2562 C2556 1.383 . S
C2562 C2561 1.379 . S
H2563 C2557 0.959 . S
H2564 C2557 0.961 . S
H2565 C2557 0.960 . S
H2566 C2558 0.930 . S
H2567 C2559 0.929 . S
H2568 C2576 0.929 . S
H2569 C2578 0.930 . S
H2570 C2580 0.930 . S
H2571 C2583 0.929 . S
H2572 C2586 0.930 . S
H2573 C2588 0.960 . S
H2574 C2588 0.960 . S
H2575 C2588 0.960 . S
C2576 H2568 0.929 . S
C2576 C2577 1.377 . S
C2576 C2578 1.384 . S
C2577 C2576 1.377 . S
C2577 C2583 1.390 . S
C2578 H2569 0.930 . S
C2578 C2576 1.384 . S
C2578 C2579 1.372 . S
C2579 C2578 1.372 . S
C2579 C2580 1.400 . S
C2579 C2584 1.490 . S
C2580 H2570 0.930 . S
C2580 C2579 1.400 . S
C2580 C2583 1.386 . S
H2581 C2597 0.930 . S
H2582 C2598 0.931 . S
C2583 H2571 0.929 . S
C2583 C2577 1.390 . S
C2583 C2580 1.386 . S
C2584 C2579 1.490 . S
C2584 C2586 1.395 . S
C2584 C2587 1.403 . S
H2585 C2591 0.930 . S
C2586 H2572 0.930 . S
C2586 C2584 1.395 . S
C2586 C2589 1.403 . S
C2587 C2584 1.403 . S
C2587 C2588 1.524 . S
C2587 C2591 1.400 . S
C2588 H2573 0.960 . S
C2588 H2574 0.960 . S
C2588 H2575 0.960 . S
C2588 C2587 1.524 . S
C2589 C2586 1.403 . S
C2589 C2590 1.392 . S
C2589 C2593 1.495 . S
C2590 C2589 1.392 . S
C2590 C2591 1.385 . S
C2590 C2592 1.478 . S
C2591 H2585 0.930 . S
C2591 C2587 1.400 . S
C2591 C2590 1.385 . S
C2592 C2590 1.478 . S
C2592 C2594 1.381 . S
C2592 C2598 1.383 . S
C2593 C2589 1.495 . S
C2593 H2599 0.959 . S
C2593 H2600 0.961 . S
C2593 H2601 0.960 . S
C2594 C2592 1.381 . S
C2594 C2595 1.394 . S
C2594 H2602 0.930 . S
C2595 C2594 1.394 . S
C2595 C2596 1.383 . S
C2595 H2603 0.929 . S
C2596 C2595 1.383 . S
C2596 C2597 1.377 . S
C2597 H2581 0.930 . S
C2597 C2596 1.377 . S
C2597 C2598 1.379 . S
C2598 H2582 0.931 . S
C2598 C2592 1.383 . S
C2598 C2597 1.379 . S
H2599 C2593 0.959 . S
H2600 C2593 0.961 . S
H2601 C2593 0.960 . S
H2602 C2594 0.930 . S
H2603 C2595 0.929 . S
H2604 C2612 0.934 1_554 S
H2605 C2614 0.949 . S
H2606 C2616 0.930 . S
H2607 C2619 0.929 . S
H2608 C2622 0.905 1_554 S
H2609 C2624 0.960 . S
H2610 C2624 0.960 . S
H2611 C2624 0.960 . S
C2612 H2604 0.934 1_556 S
C2612 C2613 1.372 . S
C2612 C2614 1.384 1_556 S
C2613 C2612 1.372 . S
C2613 C2619 1.390 . S
C2614 H2605 0.949 . S
C2614 C2612 1.384 1_554 S
C2614 C2615 1.354 1_554 S
C2615 C2614 1.354 1_556 S
C2615 C2616 1.400 . S
C2615 C2620 1.490 . S
C2616 H2606 0.930 . S
C2616 C2615 1.400 . S
C2616 C2619 1.386 . S
H2617 C2633 0.930 . S
H2618 C2634 0.931 . S
C2619 H2607 0.929 . S
C2619 C2613 1.390 . S
C2619 C2616 1.386 . S
C2620 C2615 1.490 . S
C2620 C2622 1.422 . S
C2620 C2623 1.403 . S
H2621 C2627 0.930 . S
C2622 H2608 0.905 1_556 S
C2622 C2620 1.422 . S
C2622 C2625 1.401 1_556 S
C2623 C2620 1.403 . S
C2623 C2624 1.524 . S
C2623 C2627 1.400 . S
C2624 H2609 0.960 . S
C2624 H2610 0.960 . S
C2624 H2611 0.960 . S
C2624 C2623 1.524 . S
C2625 C2622 1.401 1_554 S
C2625 C2626 1.374 1_554 S
C2625 C2629 1.515 . S
C2626 C2625 1.374 1_556 S
C2626 C2627 1.385 . S
C2626 C2628 1.478 . S
C2627 H2621 0.930 . S
C2627 C2623 1.400 . S
C2627 C2626 1.385 . S
C2628 C2626 1.478 . S
C2628 C2630 1.381 1_556 S
C2628 C2634 1.383 . S
C2629 C2625 1.515 . S
C2629 H2635 0.959 . S
C2629 H2636 0.961 . S
C2629 H2637 0.960 . S
C2630 C2628 1.381 1_554 S
C2630 C2631 1.397 . S
C2630 H2638 0.930 . S
C2631 C2630 1.397 . S
C2631 C2632 1.350 1_554 S
C2631 H2639 0.961 . S
C2632 C2631 1.350 1_556 S
C2632 C2633 1.377 . S
C2633 H2617 0.930 . S
C2633 C2632 1.377 . S
C2633 C2634 1.379 . S
C2634 H2618 0.931 . S
C2634 C2628 1.383 . S
C2634 C2633 1.379 . S
H2635 C2629 0.959 . S
H2636 C2629 0.961 . S
H2637 C2629 0.960 . S
H2638 C2630 0.930 . S
H2639 C2631 0.961 . S
H2640 C2648 0.929 . S
H2641 C2650 0.930 . S
H2642 C2652 0.930 . S
H2643 C2655 0.929 . S
H2644 C2658 0.930 . S
H2645 C2660 0.960 . S
H2646 C2660 0.960 . S
H2647 C2660 0.960 . S
C2648 H2640 0.929 . S
C2648 C2649 1.377 . S
C2648 C2650 1.384 . S
C2649 C2648 1.377 . S
C2649 C2655 1.390 . S
C2650 H2641 0.930 . S
C2650 C2648 1.384 . S
C2650 C2651 1.372 . S
C2651 C2650 1.372 . S
C2651 C2652 1.400 . S
C2651 C2656 1.490 . S
C2652 H2642 0.930 . S
C2652 C2651 1.400 . S
C2652 C2655 1.386 . S
H2653 C2669 0.930 . S
H2654 C2670 0.931 . S
C2655 H2643 0.929 . S
C2655 C2649 1.390 . S
C2655 C2652 1.386 . S
C2656 C2651 1.490 . S
C2656 C2658 1.395 . S
C2656 C2659 1.403 1_655 S
H2657 C2663 0.930 . S
C2658 H2644 0.930 . S
C2658 C2656 1.395 . S
C2658 C2661 1.403 . S
C2659 C2656 1.403 1_455 S
C2659 C2660 1.524 . S
C2659 C2663 1.400 . S
C2660 H2645 0.960 . S
C2660 H2646 0.960 . S
C2660 H2647 0.960 . S
C2660 C2659 1.524 . S
C2661 C2658 1.403 . S
C2661 C2662 1.392 1_655 S
C2661 C2665 1.495 . S
C2662 C2661 1.392 1_455 S
C2662 C2663 1.385 . S
C2662 C2664 1.478 . S
C2663 H2657 0.930 . S
C2663 C2659 1.400 . S
C2663 C2662 1.385 . S
C2664 C2662 1.478 . S
C2664 C2666 1.381 . S
C2664 C2670 1.383 . S
C2665 C2661 1.495 . S
C2665 H2671 0.959 . S
C2665 H2672 0.961 . S
C2665 H2673 0.960 . S
C2666 C2664 1.381 . S
C2666 C2667 1.394 . S
C2666 H2674 0.930 . S
C2667 C2666 1.394 . S
C2667 C2668 1.383 . S
C2667 H2675 0.929 . S
C2668 C2667 1.383 . S
C2668 C2669 1.377 . S
C2669 H2653 0.930 . S
C2669 C2668 1.377 . S
C2669 C2670 1.379 . S
C2670 H2654 0.931 . S
C2670 C2664 1.383 . S
C2670 C2669 1.379 . S
H2671 C2665 0.959 . S
H2672 C2665 0.961 . S
H2673 C2665 0.960 . S
H2674 C2666 0.930 . S
H2675 C2667 0.929 . S
H2676 C2684 0.929 . S
H2677 C2686 0.930 . S
H2678 C2688 0.930 . S
H2679 C2691 0.929 . S
H2680 C2694 0.930 . S
H2681 C2696 0.960 . S
H2682 C2696 0.960 . S
H2683 C2696 0.960 . S
C2684 H2676 0.929 . S
C2684 C2685 1.377 . S
C2684 C2686 1.384 . S
C2685 C2684 1.377 . S
C2685 C2691 1.390 . S
C2686 H2677 0.930 . S
C2686 C2684 1.384 . S
C2686 C2687 1.372 . S
C2687 C2686 1.372 . S
C2687 C2688 1.400 . S
C2687 C2692 1.490 . S
C2688 H2678 0.930 . S
C2688 C2687 1.400 . S
C2688 C2691 1.386 . S
H2689 C2705 0.930 . S
H2690 C2706 0.931 . S
C2691 H2679 0.929 . S
C2691 C2685 1.390 . S
C2691 C2688 1.386 . S
C2692 C2687 1.490 . S
C2692 C2694 1.395 . S
C2692 C2695 1.403 . S
H2693 C2699 0.930 . S
C2694 H2680 0.930 . S
C2694 C2692 1.395 . S
C2694 C2697 1.403 . S
C2695 C2692 1.403 . S
C2695 C2696 1.524 . S
C2695 C2699 1.400 . S
C2696 H2681 0.960 . S
C2696 H2682 0.960 . S
C2696 H2683 0.960 . S
C2696 C2695 1.524 . S
C2697 C2694 1.403 . S
C2697 C2698 1.392 . S
C2697 C2701 1.495 . S
C2698 C2697 1.392 . S
C2698 C2699 1.385 . S
C2698 C2700 1.478 . S
C2699 H2693 0.930 . S
C2699 C2695 1.400 . S
C2699 C2698 1.385 . S
C2700 C2698 1.478 . S
C2700 C2702 1.381 . S
C2700 C2706 1.383 . S
C2701 C2697 1.495 . S
C2701 H2707 0.959 . S
C2701 H2708 0.961 . S
C2701 H2709 0.960 . S
C2702 C2700 1.381 . S
C2702 C2703 1.394 . S
C2702 H2710 0.930 . S
C2703 C2702 1.394 . S
C2703 C2704 1.383 . S
C2703 H2711 0.929 . S
C2704 C2703 1.383 . S
C2704 C2705 1.377 . S
C2705 H2689 0.930 . S
C2705 C2704 1.377 . S
C2705 C2706 1.379 . S
C2706 H2690 0.931 . S
C2706 C2700 1.383 . S
C2706 C2705 1.379 . S
H2707 C2701 0.959 . S
H2708 C2701 0.961 . S
H2709 C2701 0.960 . S
H2710 C2702 0.930 . S
H2711 C2703 0.929 . S
H2712 C2720 0.929 . S
H2713 C2722 0.930 . S
H2714 C2724 0.930 . S
H2715 C2727 0.929 . S
H2716 C2730 0.930 . S
H2717 C2732 0.960 . S
H2718 C2732 0.960 . S
H2719 C2732 0.960 . S
C2720 H2712 0.929 . S
C2720 C2721 1.377 . S
C2720 C2722 1.384 . S
C2721 C2720 1.377 . S
C2721 C2727 1.390 . S
C2722 H2713 0.930 . S
C2722 C2720 1.384 . S
C2722 C2723 1.372 . S
C2723 C2722 1.372 . S
C2723 C2724 1.400 . S
C2723 C2728 1.490 . S
C2724 H2714 0.930 . S
C2724 C2723 1.400 . S
C2724 C2727 1.386 . S
H2725 C2741 0.930 . S
H2726 C2742 0.931 . S
C2727 H2715 0.929 . S
C2727 C2721 1.390 . S
C2727 C2724 1.386 . S
C2728 C2723 1.490 . S
C2728 C2730 1.395 . S
C2728 C2731 1.403 . S
H2729 C2735 0.930 . S
C2730 H2716 0.930 . S
C2730 C2728 1.395 . S
C2730 C2733 1.403 . S
C2731 C2728 1.403 . S
C2731 C2732 1.524 . S
C2731 C2735 1.400 . S
C2732 H2717 0.960 . S
C2732 H2718 0.960 . S
C2732 H2719 0.960 . S
C2732 C2731 1.524 . S
C2733 C2730 1.403 . S
C2733 C2734 1.392 . S
C2733 C2737 1.495 . S
C2734 C2733 1.392 . S
C2734 C2735 1.385 . S
C2734 C2736 1.478 . S
C2735 H2729 0.930 . S
C2735 C2731 1.400 . S
C2735 C2734 1.385 . S
C2736 C2734 1.478 . S
C2736 C2738 1.381 . S
C2736 C2742 1.383 . S
C2737 C2733 1.495 . S
C2737 H2743 0.959 . S
C2737 H2744 0.961 . S
C2737 H2745 0.960 . S
C2738 C2736 1.381 . S
C2738 C2739 1.394 . S
C2738 H2746 0.930 . S
C2739 C2738 1.394 . S
C2739 C2740 1.383 . S
C2739 H2747 0.929 . S
C2740 C2739 1.383 . S
C2740 C2741 1.377 . S
C2741 H2725 0.930 . S
C2741 C2740 1.377 . S
C2741 C2742 1.379 . S
C2742 H2726 0.931 . S
C2742 C2736 1.383 . S
C2742 C2741 1.379 . S
H2743 C2737 0.959 . S
H2744 C2737 0.961 . S
H2745 C2737 0.960 . S
H2746 C2738 0.930 . S
H2747 C2739 0.929 . S
H2748 C2756 0.894 1_556 S
H2749 C2758 0.908 1_556 S
H2750 C2760 0.930 . S
H2751 C2763 0.929 . S
H2752 C2766 0.930 . S
H2753 C2768 0.960 . S
H2754 C2768 0.960 . S
H2755 C2768 0.960 . S
C2756 H2748 0.894 1_554 S
C2756 C2757 1.414 . S
C2756 C2758 1.384 . S
C2757 C2756 1.414 . S
C2757 C2763 1.390 . S
C2758 H2749 0.908 1_554 S
C2758 C2756 1.384 . S
C2758 C2759 1.393 . S
C2759 C2758 1.393 . S
C2759 C2760 1.400 . S
C2759 C2764 1.490 . S
C2760 H2750 0.930 . S
C2760 C2759 1.400 . S
C2760 C2763 1.386 . S
H2761 C2777 0.930 . S
H2762 C2778 0.931 . S
C2763 H2751 0.929 . S
C2763 C2757 1.390 . S
C2763 C2760 1.386 . S
C2764 C2759 1.490 . S
C2764 C2766 1.395 . S
C2764 C2767 1.403 . S
H2765 C2771 0.930 . S
C2766 H2752 0.930 . S
C2766 C2764 1.395 . S
C2766 C2769 1.403 1_455 S
C2767 C2764 1.403 . S
C2767 C2768 1.524 . S
C2767 C2771 1.400 1_455 S
C2768 H2753 0.960 . S
C2768 H2754 0.960 . S
C2768 H2755 0.960 . S
C2768 C2767 1.524 . S
C2769 C2766 1.403 1_655 S
C2769 C2770 1.392 . S
C2769 C2773 1.495 . S
C2770 C2769 1.392 . S
C2770 C2771 1.385 . S
C2770 C2772 1.478 . S
C2771 H2765 0.930 . S
C2771 C2767 1.400 1_655 S
C2771 C2770 1.385 . S
C2772 C2770 1.478 . S
C2772 C2774 1.398 . S
C2772 C2778 1.383 . S
C2773 C2769 1.495 . S
C2773 H2779 0.959 . S
C2773 H2780 0.961 . S
C2773 H2781 0.960 . S
C2774 C2772 1.398 . S
C2774 C2775 1.394 . S
C2774 H2782 0.913 1_554 S
C2775 C2774 1.394 . S
C2775 C2776 1.396 . S
C2775 H2783 0.916 1_554 S
C2776 C2775 1.396 . S
C2776 C2777 1.377 . S
C2777 H2761 0.930 . S
C2777 C2776 1.377 . S
C2777 C2778 1.379 . S
C2778 H2762 0.931 . S
C2778 C2772 1.383 . S
C2778 C2777 1.379 . S
H2779 C2773 0.959 . S
H2780 C2773 0.961 . S
H2781 C2773 0.960 . S
H2782 C2774 0.913 1_556 S
H2783 C2775 0.916 1_556 S
H2784 C2792 0.929 . S
H2785 C2794 0.930 . S
H2786 C2796 0.930 . S
H2787 C2799 0.929 . S
H2788 C2802 0.930 . S
H2789 C2804 0.960 . S
H2790 C2804 0.960 . S
H2791 C2804 0.960 . S
C2792 H2784 0.929 . S
C2792 C2793 1.377 . S
C2792 C2794 1.384 . S
C2793 C2792 1.377 . S
C2793 C2799 1.390 . S
C2794 H2785 0.930 . S
C2794 C2792 1.384 . S
C2794 C2795 1.372 . S
C2795 C2794 1.372 . S
C2795 C2796 1.400 . S
C2795 C2800 1.490 . S
C2796 H2786 0.930 . S
C2796 C2795 1.400 . S
C2796 C2799 1.386 . S
H2797 C2813 0.930 . S
H2798 C2814 0.931 . S
C2799 H2787 0.929 . S
C2799 C2793 1.390 . S
C2799 C2796 1.386 . S
C2800 C2795 1.490 . S
C2800 C2802 1.395 . S
C2800 C2803 1.403 . S
H2801 C2807 0.930 . S
C2802 H2788 0.930 . S
C2802 C2800 1.395 . S
C2802 C2805 1.403 . S
C2803 C2800 1.403 . S
C2803 C2804 1.524 . S
C2803 C2807 1.400 . S
C2804 H2789 0.960 . S
C2804 H2790 0.960 . S
C2804 H2791 0.960 . S
C2804 C2803 1.524 . S
C2805 C2802 1.403 . S
C2805 C2806 1.392 . S
C2805 C2809 1.495 . S
C2806 C2805 1.392 . S
C2806 C2807 1.385 . S
C2806 C2808 1.478 . S
C2807 H2801 0.930 . S
C2807 C2803 1.400 . S
C2807 C2806 1.385 . S
C2808 C2806 1.478 . S
C2808 C2810 1.381 . S
C2808 C2814 1.383 . S
C2809 C2805 1.495 . S
C2809 H2815 0.959 . S
C2809 H2816 0.961 . S
C2809 H2817 0.960 . S
C2810 C2808 1.381 . S
C2810 C2811 1.394 . S
C2810 H2818 0.930 . S
C2811 C2810 1.394 . S
C2811 C2812 1.383 . S
C2811 H2819 0.929 . S
C2812 C2811 1.383 . S
C2812 C2813 1.377 . S
C2813 H2797 0.930 . S
C2813 C2812 1.377 . S
C2813 C2814 1.379 . S
C2814 H2798 0.931 . S
C2814 C2808 1.383 . S
C2814 C2813 1.379 . S
H2815 C2809 0.959 . S
H2816 C2809 0.961 . S
H2817 C2809 0.960 . S
H2818 C2810 0.930 . S
H2819 C2811 0.929 . S
H2820 C2828 0.929 . S
H2821 C2830 0.930 . S
H2822 C2832 0.930 . S
H2823 C2835 0.929 . S
H2824 C2838 0.930 . S
H2825 C2840 0.960 . S
H2826 C2840 0.960 . S
H2827 C2840 0.960 . S
C2828 H2820 0.929 . S
C2828 C2829 1.377 . S
C2828 C2830 1.384 . S
C2829 C2828 1.377 . S
C2829 C2835 1.390 . S
C2830 H2821 0.930 . S
C2830 C2828 1.384 . S
C2830 C2831 1.372 . S
C2831 C2830 1.372 . S
C2831 C2832 1.400 . S
C2831 C2836 1.490 . S
C2832 H2822 0.930 . S
C2832 C2831 1.400 . S
C2832 C2835 1.386 . S
H2833 C2849 0.930 . S
H2834 C2850 0.931 . S
C2835 H2823 0.929 . S
C2835 C2829 1.390 . S
C2835 C2832 1.386 . S
C2836 C2831 1.490 . S
C2836 C2838 1.395 . S
C2836 C2839 1.403 . S
H2837 C2843 0.930 . S
C2838 H2824 0.930 . S
C2838 C2836 1.395 . S
C2838 C2841 1.403 . S
C2839 C2836 1.403 . S
C2839 C2840 1.524 . S
C2839 C2843 1.400 . S
C2840 H2825 0.960 . S
C2840 H2826 0.960 . S
C2840 H2827 0.960 . S
C2840 C2839 1.524 . S
C2841 C2838 1.403 . S
C2841 C2842 1.392 . S
C2841 C2845 1.495 1_455 S
C2842 C2841 1.392 . S
C2842 C2843 1.385 . S
C2842 C2844 1.488 . S
C2843 H2837 0.930 . S
C2843 C2839 1.400 . S
C2843 C2842 1.385 . S
C2844 C2842 1.488 . S
C2844 C2846 1.378 1_455 S
C2844 C2850 1.376 1_455 S
C2845 C2841 1.495 1_655 S
C2845 H2851 0.959 . S
C2845 H2852 0.961 . S
C2845 H2853 0.960 . S
C2846 C2844 1.378 1_655 S
C2846 C2847 1.394 . S
C2846 H2854 0.930 1_655 S
C2847 C2846 1.394 . S
C2847 C2848 1.383 . S
C2847 H2855 0.929 . S
C2848 C2847 1.383 . S
C2848 C2849 1.377 . S
C2849 H2833 0.930 . S
C2849 C2848 1.377 . S
C2849 C2850 1.379 . S
C2850 H2834 0.931 . S
C2850 C2844 1.376 1_655 S
C2850 C2849 1.379 . S
H2851 C2845 0.959 . S
H2852 C2845 0.961 . S
H2853 C2845 0.960 . S
H2854 C2846 0.930 1_455 S
H2855 C2847 0.929 . S
H2856 C2864 0.929 . S
H2857 C2866 0.930 . S
H2858 C2868 0.930 . S
H2859 C2871 0.929 . S
H2860 C2874 0.930 . S
H2861 C2876 0.960 . S
H2862 C2876 0.960 . S
H2863 C2876 0.960 . S
C2864 H2856 0.929 . S
C2864 C2865 1.377 . S
C2864 C2866 1.384 . S
C2865 C2864 1.377 . S
C2865 C2871 1.390 . S
C2866 H2857 0.930 . S
C2866 C2864 1.384 . S
C2866 C2867 1.372 . S
C2867 C2866 1.372 . S
C2867 C2868 1.400 . S
C2867 C2872 1.490 . S
C2868 H2858 0.930 . S
C2868 C2867 1.400 . S
C2868 C2871 1.386 . S
H2869 C2885 0.930 . S
H2870 C2886 0.931 . S
C2871 H2859 0.929 . S
C2871 C2865 1.390 . S
C2871 C2868 1.386 . S
C2872 C2867 1.490 . S
C2872 C2874 1.395 . S
C2872 C2875 1.403 . S
H2873 C2879 0.930 . S
C2874 H2860 0.930 . S
C2874 C2872 1.395 . S
C2874 C2877 1.403 . S
C2875 C2872 1.403 . S
C2875 C2876 1.524 . S
C2875 C2879 1.400 . S
C2876 H2861 0.960 . S
C2876 H2862 0.960 . S
C2876 H2863 0.960 . S
C2876 C2875 1.524 . S
C2877 C2874 1.403 . S
C2877 C2878 1.392 . S
C2877 C2881 1.495 . S
C2878 C2877 1.392 . S
C2878 C2879 1.385 . S
C2878 C2880 1.478 . S
C2879 H2873 0.930 . S
C2879 C2875 1.400 . S
C2879 C2878 1.385 . S
C2880 C2878 1.478 . S
C2880 C2882 1.381 . S
C2880 C2886 1.383 . S
C2881 C2877 1.495 . S
C2881 H2887 0.959 . S
C2881 H2888 0.961 . S
C2881 H2889 0.960 . S
C2882 C2880 1.381 . S
C2882 C2883 1.394 . S
C2882 H2890 0.930 . S
C2883 C2882 1.394 . S
C2883 C2884 1.383 . S
C2883 H2891 0.929 . S
C2884 C2883 1.383 . S
C2884 C2885 1.377 . S
C2885 H2869 0.930 . S
C2885 C2884 1.377 . S
C2885 C2886 1.379 . S
C2886 H2870 0.931 . S
C2886 C2880 1.383 . S
C2886 C2885 1.379 . S
H2887 C2881 0.959 . S
H2888 C2881 0.961 . S
H2889 C2881 0.960 . S
H2890 C2882 0.930 . S
H2891 C2883 0.929 . S
H2892 C2900 0.929 . S
H2893 C2902 0.930 . S
H2894 C2904 0.930 . S
H2895 C2907 0.929 . S
H2896 C2910 0.930 . S
H2897 C2912 0.960 . S
H2898 C2912 0.960 . S
H2899 C2912 0.960 . S
C2900 H2892 0.929 . S
C2900 C2901 1.377 . S
C2900 C2902 1.384 . S
C2901 C2900 1.377 . S
C2901 C2907 1.390 . S
C2902 H2893 0.930 . S
C2902 C2900 1.384 . S
C2902 C2903 1.372 . S
C2903 C2902 1.372 . S
C2903 C2904 1.400 . S
C2903 C2908 1.490 . S
C2904 H2894 0.930 . S
C2904 C2903 1.400 . S
C2904 C2907 1.386 . S
H2905 C2921 0.930 . S
H2906 C2922 0.931 . S
C2907 H2895 0.929 . S
C2907 C2901 1.390 . S
C2907 C2904 1.386 . S
C2908 C2903 1.490 . S
C2908 C2910 1.395 . S
C2908 C2911 1.403 . S
H2909 C2915 0.930 . S
C2910 H2896 0.930 . S
C2910 C2908 1.395 . S
C2910 C2913 1.403 . S
C2911 C2908 1.403 . S
C2911 C2912 1.524 . S
C2911 C2915 1.400 . S
C2912 H2897 0.960 . S
C2912 H2898 0.960 . S
C2912 H2899 0.960 . S
C2912 C2911 1.524 . S
C2913 C2910 1.403 . S
C2913 C2914 1.392 . S
C2913 C2917 1.495 . S
C2914 C2913 1.392 . S
C2914 C2915 1.385 . S
C2914 C2916 1.478 . S
C2915 H2909 0.930 . S
C2915 C2911 1.400 . S
C2915 C2914 1.385 . S
C2916 C2914 1.478 . S
C2916 C2918 1.381 . S
C2916 C2922 1.383 . S
C2917 C2913 1.495 . S
C2917 H2923 0.959 . S
C2917 H2924 0.961 . S
C2917 H2925 0.960 . S
C2918 C2916 1.381 . S
C2918 C2919 1.394 . S
C2918 H2926 0.930 . S
C2919 C2918 1.394 . S
C2919 C2920 1.383 . S
C2919 H2927 0.929 . S
C2920 C2919 1.383 . S
C2920 C2921 1.377 . S
C2921 H2905 0.930 . S
C2921 C2920 1.377 . S
C2921 C2922 1.379 . S
C2922 H2906 0.931 . S
C2922 C2916 1.383 . S
C2922 C2921 1.379 . S
H2923 C2917 0.959 . S
H2924 C2917 0.961 . S
H2925 C2917 0.960 . S
H2926 C2918 0.930 . S
H2927 C2919 0.929 . S
H2928 C2936 0.929 . S
H2929 C2938 0.930 . S
H2930 C2940 0.930 . S
H2931 C2943 0.929 . S
H2932 C2946 0.930 . S
H2933 C2948 0.960 . S
H2934 C2948 0.960 . S
H2935 C2948 0.960 . S
C2936 H2928 0.929 . S
C2936 C2937 1.377 . S
C2936 C2938 1.384 . S
C2937 C2936 1.377 . S
C2937 C2943 1.390 . S
C2938 H2929 0.930 . S
C2938 C2936 1.384 . S
C2938 C2939 1.372 . S
C2939 C2938 1.372 . S
C2939 C2940 1.400 . S
C2939 C2944 1.490 . S
C2940 H2930 0.930 . S
C2940 C2939 1.400 . S
C2940 C2943 1.386 . S
H2941 C2957 0.930 . S
H2942 C2958 0.931 . S
C2943 H2931 0.929 . S
C2943 C2937 1.390 . S
C2943 C2940 1.386 . S
C2944 C2939 1.490 . S
C2944 C2946 1.395 . S
C2944 C2947 1.403 . S
H2945 C2951 0.930 . S
C2946 H2932 0.930 . S
C2946 C2944 1.395 . S
C2946 C2949 1.403 . S
C2947 C2944 1.403 . S
C2947 C2948 1.524 . S
C2947 C2951 1.400 . S
C2948 H2933 0.960 . S
C2948 H2934 0.960 . S
C2948 H2935 0.960 . S
C2948 C2947 1.524 . S
C2949 C2946 1.403 . S
C2949 C2950 1.392 . S
C2949 C2953 1.495 . S
C2950 C2949 1.392 . S
C2950 C2951 1.385 . S
C2950 C2952 1.478 . S
C2951 H2945 0.930 . S
C2951 C2947 1.400 . S
C2951 C2950 1.385 . S
C2952 C2950 1.478 . S
C2952 C2954 1.381 . S
C2952 C2958 1.383 . S
C2953 C2949 1.495 . S
C2953 H2959 0.959 . S
C2953 H2960 0.961 . S
C2953 H2961 0.960 . S
C2954 C2952 1.381 . S
C2954 C2955 1.394 . S
C2954 H2962 0.930 . S
C2955 C2954 1.394 . S
C2955 C2956 1.383 . S
C2955 H2963 0.929 . S
C2956 C2955 1.383 . S
C2956 C2957 1.377 . S
C2957 H2941 0.930 . S
C2957 C2956 1.377 . S
C2957 C2958 1.379 . S
C2958 H2942 0.931 . S
C2958 C2952 1.383 . S
C2958 C2957 1.379 . S
H2959 C2953 0.959 . S
H2960 C2953 0.961 . S
H2961 C2953 0.960 . S
H2962 C2954 0.930 . S
H2963 C2955 0.929 . S
H2964 C2972 0.929 . S
H2965 C2974 0.930 . S
H2966 C2976 0.930 . S
H2967 C2979 0.929 . S
H2968 C2982 0.930 . S
H2969 C2984 0.960 . S
H2970 C2984 0.960 . S
H2971 C2984 0.960 . S
C2972 H2964 0.929 . S
C2972 C2973 1.377 . S
C2972 C2974 1.384 . S
C2973 C2972 1.377 . S
C2973 C2979 1.390 . S
C2974 H2965 0.930 . S
C2974 C2972 1.384 . S
C2974 C2975 1.372 . S
C2975 C2974 1.372 . S
C2975 C2976 1.400 . S
C2975 C2980 1.490 . S
C2976 H2966 0.930 . S
C2976 C2975 1.400 . S
C2976 C2979 1.386 . S
H2977 C2993 0.930 . S
H2978 C2994 0.931 . S
C2979 H2967 0.929 . S
C2979 C2973 1.390 . S
C2979 C2976 1.386 . S
C2980 C2975 1.490 . S
C2980 C2982 1.395 . S
C2980 C2983 1.403 . S
H2981 C2987 0.930 . S
C2982 H2968 0.930 . S
C2982 C2980 1.395 . S
C2982 C2985 1.403 . S
C2983 C2980 1.403 . S
C2983 C2984 1.524 . S
C2983 C2987 1.400 . S
C2984 H2969 0.960 . S
C2984 H2970 0.960 . S
C2984 H2971 0.960 . S
C2984 C2983 1.524 . S
C2985 C2982 1.403 . S
C2985 C2986 1.392 . S
C2985 C2989 1.495 . S
C2986 C2985 1.392 . S
C2986 C2987 1.385 . S
C2986 C2988 1.478 . S
C2987 H2981 0.930 . S
C2987 C2983 1.400 . S
C2987 C2986 1.385 . S
C2988 C2986 1.478 . S
C2988 C2990 1.381 . S
C2988 C2994 1.383 . S
C2989 C2985 1.495 . S
C2989 H2995 0.959 . S
C2989 H2996 0.961 . S
C2989 H2997 0.960 . S
C2990 C2988 1.381 . S
C2990 C2991 1.394 . S
C2990 H2998 0.930 . S
C2991 C2990 1.394 . S
C2991 C2992 1.383 . S
C2991 H2999 0.929 . S
C2992 C2991 1.383 . S
C2992 C2993 1.377 . S
C2993 H2977 0.930 . S
C2993 C2992 1.377 . S
C2993 C2994 1.379 . S
C2994 H2978 0.931 . S
C2994 C2988 1.383 . S
C2994 C2993 1.379 . S
H2995 C2989 0.959 . S
H2996 C2989 0.961 . S
H2997 C2989 0.960 . S
H2998 C2990 0.930 . S
H2999 C2991 0.929 . S
H3000 C3008 0.929 . S
H3001 C3010 0.930 . S
H3002 C3012 0.930 . S
H3003 C3015 0.929 . S
H3004 C3018 0.930 . S
H3005 C3020 0.960 . S
H3006 C3020 0.960 . S
H3007 C3020 0.960 . S
C3008 H3000 0.929 . S
C3008 C3009 1.377 . S
C3008 C3010 1.384 . S
C3009 C3008 1.377 . S
C3009 C3015 1.390 . S
C3010 H3001 0.930 . S
C3010 C3008 1.384 . S
C3010 C3011 1.372 . S
C3011 C3010 1.372 . S
C3011 C3012 1.400 . S
C3011 C3016 1.490 . S
C3012 H3002 0.930 . S
C3012 C3011 1.400 . S
C3012 C3015 1.386 . S
H3013 C3029 0.930 . S
H3014 C3030 0.931 . S
C3015 H3003 0.929 . S
C3015 C3009 1.390 . S
C3015 C3012 1.386 . S
C3016 C3011 1.490 . S
C3016 C3018 1.395 . S
C3016 C3019 1.403 . S
H3017 C3023 0.930 . S
C3018 H3004 0.930 . S
C3018 C3016 1.395 . S
C3018 C3021 1.403 . S
C3019 C3016 1.403 . S
C3019 C3020 1.524 . S
C3019 C3023 1.400 . S
C3020 H3005 0.960 . S
C3020 H3006 0.960 . S
C3020 H3007 0.960 . S
C3020 C3019 1.524 . S
C3021 C3018 1.403 . S
C3021 C3022 1.392 . S
C3021 C3025 1.495 . S
C3022 C3021 1.392 . S
C3022 C3023 1.385 . S
C3022 C3024 1.478 . S
C3023 H3017 0.930 . S
C3023 C3019 1.400 . S
C3023 C3022 1.385 . S
C3024 C3022 1.478 . S
C3024 C3026 1.381 . S
C3024 C3030 1.383 . S
C3025 C3021 1.495 . S
C3025 H3031 0.959 . S
C3025 H3032 0.961 . S
C3025 H3033 0.960 . S
C3026 C3024 1.381 . S
C3026 C3027 1.394 . S
C3026 H3034 0.930 . S
C3027 C3026 1.394 . S
C3027 C3028 1.383 . S
C3027 H3035 0.929 . S
C3028 C3027 1.383 . S
C3028 C3029 1.377 . S
C3029 H3013 0.930 . S
C3029 C3028 1.377 . S
C3029 C3030 1.379 . S
C3030 H3014 0.931 . S
C3030 C3024 1.383 . S
C3030 C3029 1.379 . S
H3031 C3025 0.959 . S
H3032 C3025 0.961 . S
H3033 C3025 0.960 . S
H3034 C3026 0.930 . S
H3035 C3027 0.929 . S
H3036 C3044 0.929 . S
H3037 C3046 0.930 . S
H3038 C3048 0.931 1_455 S
H3039 C3051 0.929 . S
H3040 C3054 0.930 . S
H3041 C3056 0.960 . S
H3042 C3056 0.960 1_655 S
H3043 C3056 0.964 . S
C3044 H3036 0.929 . S
C3044 C3045 1.377 . S
C3044 C3046 1.384 . S
C3045 C3044 1.377 . S
C3045 C3051 1.390 . S
C3046 H3037 0.930 . S
C3046 C3044 1.384 . S
C3046 C3047 1.372 1_655 S
C3047 C3046 1.372 1_455 S
C3047 C3048 1.400 1_455 S
C3047 C3052 1.490 . S
C3048 H3038 0.931 1_655 S
C3048 C3047 1.400 1_655 S
C3048 C3051 1.384 . S
H3049 C3065 0.930 . S
H3050 C3066 0.931 . S
C3051 H3039 0.929 . S
C3051 C3045 1.390 . S
C3051 C3048 1.384 . S
C3052 C3047 1.490 . S
C3052 C3054 1.395 . S
C3052 C3055 1.403 . S
H3053 C3059 0.930 . S
C3054 H3040 0.930 . S
C3054 C3052 1.395 . S
C3054 C3057 1.403 . S
C3055 C3052 1.403 . S
C3055 C3056 1.524 . S
C3055 C3059 1.400 . S
C3056 H3041 0.960 . S
C3056 H3042 0.960 1_455 S
C3056 H3043 0.964 . S
C3056 C3055 1.524 . S
C3057 C3054 1.403 . S
C3057 C3058 1.392 . S
C3057 C3061 1.495 . S
C3058 C3057 1.392 . S
C3058 C3059 1.385 . S
C3058 C3060 1.478 . S
C3059 H3053 0.930 . S
C3059 C3055 1.400 . S
C3059 C3058 1.385 . S
C3060 C3058 1.478 . S
C3060 C3062 1.381 . S
C3060 C3066 1.383 . S
C3061 C3057 1.495 . S
C3061 H3067 0.959 . S
C3061 H3068 0.961 . S
C3061 H3069 0.960 . S
C3062 C3060 1.381 . S
C3062 C3063 1.394 . S
C3062 H3070 0.930 . S
C3063 C3062 1.394 . S
C3063 C3064 1.383 . S
C3063 H3071 0.929 . S
C3064 C3063 1.383 . S
C3064 C3065 1.377 . S
C3065 H3049 0.930 . S
C3065 C3064 1.377 . S
C3065 C3066 1.379 . S
C3066 H3050 0.931 . S
C3066 C3060 1.383 . S
C3066 C3065 1.379 . S
H3067 C3061 0.959 . S
H3068 C3061 0.961 . S
H3069 C3061 0.960 . S
H3070 C3062 0.930 . S
H3071 C3063 0.929 . S
H3072 C3080 0.929 . S
H3073 C3082 0.930 . S
H3074 C3084 0.930 . S
H3075 C3087 0.929 . S
H3076 C3090 0.930 . S
H3077 C3092 0.960 . S
H3078 C3092 0.960 . S
H3079 C3092 0.960 . S
C3080 H3072 0.929 . S
C3080 C3081 1.377 . S
C3080 C3082 1.384 . S
C3081 C3080 1.377 . S
C3081 C3087 1.390 . S
C3082 H3073 0.930 . S
C3082 C3080 1.384 . S
C3082 C3083 1.372 . S
C3083 C3082 1.372 . S
C3083 C3084 1.400 . S
C3083 C3088 1.490 . S
C3084 H3074 0.930 . S
C3084 C3083 1.400 . S
C3084 C3087 1.386 . S
H3085 C3101 0.930 . S
H3086 C3102 0.931 . S
C3087 H3075 0.929 . S
C3087 C3081 1.390 . S
C3087 C3084 1.386 . S
C3088 C3083 1.490 . S
C3088 C3090 1.395 . S
C3088 C3091 1.403 . S
H3089 C3095 0.930 . S
C3090 H3076 0.930 . S
C3090 C3088 1.395 . S
C3090 C3093 1.403 . S
C3091 C3088 1.403 . S
C3091 C3092 1.524 . S
C3091 C3095 1.400 . S
C3092 H3077 0.960 . S
C3092 H3078 0.960 . S
C3092 H3079 0.960 . S
C3092 C3091 1.524 . S
C3093 C3090 1.403 . S
C3093 C3094 1.392 . S
C3093 C3097 1.495 . S
C3094 C3093 1.392 . S
C3094 C3095 1.385 . S
C3094 C3096 1.478 . S
C3095 H3089 0.930 . S
C3095 C3091 1.400 . S
C3095 C3094 1.385 . S
C3096 C3094 1.478 . S
C3096 C3098 1.381 . S
C3096 C3102 1.383 . S
C3097 C3093 1.495 . S
C3097 H3103 0.959 . S
C3097 H3104 0.961 . S
C3097 H3105 0.960 . S
C3098 C3096 1.381 . S
C3098 C3099 1.394 . S
C3098 H3106 0.930 . S
C3099 C3098 1.394 . S
C3099 C3100 1.383 . S
C3099 H3107 0.929 . S
C3100 C3099 1.383 . S
C3100 C3101 1.377 . S
C3101 H3085 0.930 . S
C3101 C3100 1.377 . S
C3101 C3102 1.379 . S
C3102 H3086 0.931 . S
C3102 C3096 1.383 . S
C3102 C3101 1.379 . S
H3103 C3097 0.959 . S
H3104 C3097 0.961 . S
H3105 C3097 0.960 . S
H3106 C3098 0.930 . S
H3107 C3099 0.929 . S
H3108 C3116 0.929 . S
H3109 C3118 0.930 . S
H3110 C3120 0.930 . S
H3111 C3123 0.929 . S
H3112 C3126 0.930 . S
H3113 C3128 0.960 . S
H3114 C3128 0.960 . S
H3115 C3128 0.960 . S
C3116 H3108 0.929 . S
C3116 C3117 1.377 . S
C3116 C3118 1.384 . S
C3117 C3116 1.377 . S
C3117 C3123 1.390 . S
C3118 H3109 0.930 . S
C3118 C3116 1.384 . S
C3118 C3119 1.372 . S
C3119 C3118 1.372 . S
C3119 C3120 1.400 . S
C3119 C3124 1.490 . S
C3120 H3110 0.930 . S
C3120 C3119 1.400 . S
C3120 C3123 1.386 . S
H3121 C3137 0.930 . S
H3122 C3138 0.933 . S
C3123 H3111 0.929 . S
C3123 C3117 1.390 . S
C3123 C3120 1.386 . S
C3124 C3119 1.490 . S
C3124 C3126 1.395 . S
C3124 C3127 1.403 . S
H3125 C3131 0.979 . S
C3126 H3112 0.930 . S
C3126 C3124 1.395 . S
C3126 C3129 1.403 . S
C3127 C3124 1.403 . S
C3127 C3128 1.524 . S
C3127 C3131 1.400 . S
C3128 H3113 0.960 . S
C3128 H3114 0.960 . S
C3128 H3115 0.960 . S
C3128 C3127 1.524 . S
C3129 C3126 1.403 . S
C3129 C3130 1.392 . S
C3129 C3133 1.495 . S
C3130 C3129 1.392 . S
C3130 C3131 1.385 . S
C3130 C3132 1.478 . S
C3131 H3125 0.979 . S
C3131 C3127 1.400 . S
C3131 C3130 1.385 . S
C3132 C3130 1.478 . S
C3132 C3134 1.380 1_655 S
C3132 C3138 1.383 1_655 S
C3133 C3129 1.495 . S
C3133 H3139 0.959 . S
C3133 H3140 0.961 . S
C3133 H3141 0.960 . S
C3134 C3132 1.380 1_455 S
C3134 C3135 1.397 . S
C3134 H3142 0.929 1_455 S
C3135 C3134 1.397 . S
C3135 C3136 1.383 . S
C3135 H3143 0.929 . S
C3136 C3135 1.383 . S
C3136 C3137 1.377 . S
C3137 H3121 0.930 . S
C3137 C3136 1.377 . S
C3137 C3138 1.379 . S
C3138 H3122 0.933 . S
C3138 C3132 1.383 1_455 S
C3138 C3137 1.379 . S
H3139 C3133 0.959 . S
H3140 C3133 0.961 . S
H3141 C3133 0.960 . S
H3142 C3134 0.929 1_655 S
H3143 C3135 0.929 . S
H3144 C3152 0.929 . S
H3145 C3154 0.930 . S
H3146 C3156 0.930 . S
H3147 C3159 0.929 . S
H3148 C3162 0.930 . S
H3149 C3164 0.960 . S
H3150 C3164 0.960 . S
H3151 C3164 0.960 . S
C3152 H3144 0.929 . S
C3152 C3153 1.377 . S
C3152 C3154 1.384 . S
C3153 C3152 1.377 . S
C3153 C3159 1.390 . S
C3154 H3145 0.930 . S
C3154 C3152 1.384 . S
C3154 C3155 1.372 . S
C3155 C3154 1.372 . S
C3155 C3156 1.400 . S
C3155 C3160 1.490 . S
C3156 H3146 0.930 . S
C3156 C3155 1.400 . S
C3156 C3159 1.386 . S
H3157 C3173 0.930 . S
H3158 C3174 0.931 . S
C3159 H3147 0.929 . S
C3159 C3153 1.390 . S
C3159 C3156 1.386 . S
C3160 C3155 1.490 . S
C3160 C3162 1.395 . S
C3160 C3163 1.403 . S
H3161 C3167 0.930 . S
C3162 H3148 0.930 . S
C3162 C3160 1.395 . S
C3162 C3165 1.403 . S
C3163 C3160 1.403 . S
C3163 C3164 1.524 . S
C3163 C3167 1.400 . S
C3164 H3149 0.960 . S
C3164 H3150 0.960 . S
C3164 H3151 0.960 . S
C3164 C3163 1.524 . S
C3165 C3162 1.403 . S
C3165 C3166 1.392 . S
C3165 C3169 1.495 . S
C3166 C3165 1.392 . S
C3166 C3167 1.385 . S
C3166 C3168 1.478 . S
C3167 H3161 0.930 . S
C3167 C3163 1.400 . S
C3167 C3166 1.385 . S
C3168 C3166 1.478 . S
C3168 C3170 1.381 . S
C3168 C3174 1.383 . S
C3169 C3165 1.495 . S
C3169 H3175 0.959 . S
C3169 H3176 0.961 . S
C3169 H3177 0.960 . S
C3170 C3168 1.381 . S
C3170 C3171 1.394 . S
C3170 H3178 0.930 . S
C3171 C3170 1.394 . S
C3171 C3172 1.383 . S
C3171 H3179 0.929 . S
C3172 C3171 1.383 . S
C3172 C3173 1.377 . S
C3173 H3157 0.930 . S
C3173 C3172 1.377 . S
C3173 C3174 1.379 . S
C3174 H3158 0.931 . S
C3174 C3168 1.383 . S
C3174 C3173 1.379 . S
H3175 C3169 0.959 . S
H3176 C3169 0.961 . S
H3177 C3169 0.960 . S
H3178 C3170 0.930 . S
H3179 C3171 0.929 . S
H3180 C3188 0.929 . S
H3181 C3190 0.930 . S
H3182 C3192 0.930 . S
H3183 C3195 0.929 . S
H3184 C3198 0.930 . S
H3185 C3200 0.960 . S
H3186 C3200 0.960 . S
H3187 C3200 0.960 . S
C3188 H3180 0.929 . S
C3188 C3189 1.377 . S
C3188 C3190 1.384 . S
C3189 C3188 1.377 . S
C3189 C3195 1.390 . S
C3190 H3181 0.930 . S
C3190 C3188 1.384 . S
C3190 C3191 1.372 . S
C3191 C3190 1.372 . S
C3191 C3192 1.400 . S
C3191 C3196 1.490 . S
C3192 H3182 0.930 . S
C3192 C3191 1.400 . S
C3192 C3195 1.386 . S
H3193 C3209 0.930 . S
H3194 C3210 0.931 . S
C3195 H3183 0.929 . S
C3195 C3189 1.390 . S
C3195 C3192 1.386 . S
C3196 C3191 1.490 . S
C3196 C3198 1.395 . S
C3196 C3199 1.403 . S
H3197 C3203 0.930 . S
C3198 H3184 0.930 . S
C3198 C3196 1.395 . S
C3198 C3201 1.403 . S
C3199 C3196 1.403 . S
C3199 C3200 1.524 . S
C3199 C3203 1.400 . S
C3200 H3185 0.960 . S
C3200 H3186 0.960 . S
C3200 H3187 0.960 . S
C3200 C3199 1.524 . S
C3201 C3198 1.403 . S
C3201 C3202 1.392 . S
C3201 C3205 1.495 . S
C3202 C3201 1.392 . S
C3202 C3203 1.385 . S
C3202 C3204 1.478 . S
C3203 H3197 0.930 . S
C3203 C3199 1.400 . S
C3203 C3202 1.385 . S
C3204 C3202 1.478 . S
C3204 C3206 1.381 . S
C3204 C3210 1.383 . S
C3205 C3201 1.495 . S
C3205 H3211 0.959 . S
C3205 H3212 0.961 . S
C3205 H3213 0.960 . S
C3206 C3204 1.381 . S
C3206 C3207 1.394 . S
C3206 H3214 0.930 . S
C3207 C3206 1.394 . S
C3207 C3208 1.383 . S
C3207 H3215 0.929 . S
C3208 C3207 1.383 . S
C3208 C3209 1.377 . S
C3209 H3193 0.930 . S
C3209 C3208 1.377 . S
C3209 C3210 1.379 . S
C3210 H3194 0.931 . S
C3210 C3204 1.383 . S
C3210 C3209 1.379 . S
H3211 C3205 0.959 . S
H3212 C3205 0.961 . S
H3213 C3205 0.960 . S
H3214 C3206 0.930 . S
H3215 C3207 0.929 . S
H3216 C3224 0.929 . S
H3217 C3226 0.930 . S
H3218 C3228 0.930 . S
H3219 C3231 0.929 . S
H3220 C3234 0.930 . S
H3221 C3236 0.960 . S
H3222 C3236 0.960 . S
H3223 C3236 0.960 . S
C3224 H3216 0.929 . S
C3224 C3225 1.377 . S
C3224 C3226 1.384 . S
C3225 C3224 1.377 . S
C3225 C3231 1.390 . S
C3226 H3217 0.930 . S
C3226 C3224 1.384 . S
C3226 C3227 1.372 . S
C3227 C3226 1.372 . S
C3227 C3228 1.400 . S
C3227 C3232 1.490 . S
C3228 H3218 0.930 . S
C3228 C3227 1.400 . S
C3228 C3231 1.386 . S
H3229 C3245 0.930 . S
H3230 C3246 0.931 . S
C3231 H3219 0.929 . S
C3231 C3225 1.390 . S
C3231 C3228 1.386 . S
C3232 C3227 1.490 . S
C3232 C3234 1.395 . S
C3232 C3235 1.403 . S
H3233 C3239 0.930 . S
C3234 H3220 0.930 . S
C3234 C3232 1.395 . S
C3234 C3237 1.403 . S
C3235 C3232 1.403 . S
C3235 C3236 1.524 . S
C3235 C3239 1.400 . S
C3236 H3221 0.960 . S
C3236 H3222 0.960 . S
C3236 H3223 0.960 . S
C3236 C3235 1.524 . S
C3237 C3234 1.403 . S
C3237 C3238 1.392 . S
C3237 C3241 1.495 . S
C3238 C3237 1.392 . S
C3238 C3239 1.385 . S
C3238 C3240 1.478 . S
C3239 H3233 0.930 . S
C3239 C3235 1.400 . S
C3239 C3238 1.385 . S
C3240 C3238 1.478 . S
C3240 C3242 1.381 . S
C3240 C3246 1.383 . S
C3241 C3237 1.495 . S
C3241 H3247 0.959 . S
C3241 H3248 0.961 . S
C3241 H3249 0.960 . S
C3242 C3240 1.381 . S
C3242 C3243 1.394 . S
C3242 H3250 0.930 . S
C3243 C3242 1.394 . S
C3243 C3244 1.383 . S
C3243 H3251 0.929 . S
C3244 C3243 1.383 . S
C3244 C3245 1.377 . S
C3245 H3229 0.930 . S
C3245 C3244 1.377 . S
C3245 C3246 1.379 . S
C3246 H3230 0.931 . S
C3246 C3240 1.383 . S
C3246 C3245 1.379 . S
H3247 C3241 0.959 . S
H3248 C3241 0.961 . S
H3249 C3241 0.960 . S
H3250 C3242 0.930 . S
H3251 C3243 0.929 . S
H3252 C3260 0.929 . S
H3253 C3262 0.930 . S
H3254 C3264 0.930 . S
H3255 C3267 0.929 . S
H3256 C3270 0.930 . S
H3257 C3272 0.960 . S
H3258 C3272 0.960 . S
H3259 C3272 0.960 . S
C3260 H3252 0.929 . S
C3260 C3261 1.377 . S
C3260 C3262 1.384 . S
C3261 C3260 1.377 . S
C3261 C3267 1.390 . S
C3262 H3253 0.930 . S
C3262 C3260 1.384 . S
C3262 C3263 1.372 . S
C3263 C3262 1.372 . S
C3263 C3264 1.400 . S
C3263 C3268 1.490 . S
C3264 H3254 0.930 . S
C3264 C3263 1.400 . S
C3264 C3267 1.386 . S
H3265 C3281 0.930 . S
H3266 C3282 0.931 . S
C3267 H3255 0.929 . S
C3267 C3261 1.390 . S
C3267 C3264 1.386 . S
C3268 C3263 1.490 . S
C3268 C3270 1.395 . S
C3268 C3271 1.403 . S
H3269 C3275 0.930 . S
C3270 H3256 0.930 . S
C3270 C3268 1.395 . S
C3270 C3273 1.403 . S
C3271 C3268 1.403 . S
C3271 C3272 1.524 . S
C3271 C3275 1.400 . S
C3272 H3257 0.960 . S
C3272 H3258 0.960 . S
C3272 H3259 0.960 . S
C3272 C3271 1.524 . S
C3273 C3270 1.403 . S
C3273 C3274 1.392 . S
C3273 C3277 1.495 . S
C3274 C3273 1.392 . S
C3274 C3275 1.385 . S
C3274 C3276 1.478 . S
C3275 H3269 0.930 . S
C3275 C3271 1.400 . S
C3275 C3274 1.385 . S
C3276 C3274 1.478 . S
C3276 C3278 1.381 . S
C3276 C3282 1.383 . S
C3277 C3273 1.495 . S
C3277 H3283 0.959 . S
C3277 H3284 0.961 . S
C3277 H3285 0.960 . S
C3278 C3276 1.381 . S
C3278 C3279 1.394 . S
C3278 H3286 0.930 . S
C3279 C3278 1.394 . S
C3279 C3280 1.383 . S
C3279 H3287 0.929 . S
C3280 C3279 1.383 . S
C3280 C3281 1.377 . S
C3281 H3265 0.930 . S
C3281 C3280 1.377 . S
C3281 C3282 1.379 . S
C3282 H3266 0.931 . S
C3282 C3276 1.383 . S
C3282 C3281 1.379 . S
H3283 C3277 0.959 . S
H3284 C3277 0.961 . S
H3285 C3277 0.960 . S
H3286 C3278 0.930 . S
H3287 C3279 0.929 . S
H3288 C3296 0.929 . S
H3289 C3298 0.930 . S
H3290 C3300 0.930 . S
H3291 C3303 0.929 . S
H3292 C3306 0.930 . S
H3293 C3308 0.960 . S
H3294 C3308 0.960 . S
H3295 C3308 0.960 . S
C3296 H3288 0.929 . S
C3296 C3297 1.377 . S
C3296 C3298 1.384 . S
C3297 C3296 1.377 . S
C3297 C3303 1.390 . S
C3298 H3289 0.930 . S
C3298 C3296 1.384 . S
C3298 C3299 1.372 . S
C3299 C3298 1.372 . S
C3299 C3300 1.400 . S
C3299 C3304 1.490 . S
C3300 H3290 0.930 . S
C3300 C3299 1.400 . S
C3300 C3303 1.386 . S
H3301 C3317 0.930 . S
H3302 C3318 0.931 . S
C3303 H3291 0.929 . S
C3303 C3297 1.390 . S
C3303 C3300 1.386 . S
C3304 C3299 1.490 . S
C3304 C3306 1.395 . S
C3304 C3307 1.403 . S
H3305 C3311 0.930 . S
C3306 H3292 0.930 . S
C3306 C3304 1.395 . S
C3306 C3309 1.403 . S
C3307 C3304 1.403 . S
C3307 C3308 1.524 . S
C3307 C3311 1.400 . S
C3308 H3293 0.960 . S
C3308 H3294 0.960 . S
C3308 H3295 0.960 . S
C3308 C3307 1.524 . S
C3309 C3306 1.403 . S
C3309 C3310 1.392 . S
C3309 C3313 1.495 . S
C3310 C3309 1.392 . S
C3310 C3311 1.385 . S
C3310 C3312 1.478 . S
C3311 H3305 0.930 . S
C3311 C3307 1.400 . S
C3311 C3310 1.385 . S
C3312 C3310 1.478 . S
C3312 C3314 1.381 . S
C3312 C3318 1.383 . S
C3313 C3309 1.495 . S
C3313 H3319 0.959 . S
C3313 H3320 0.961 . S
C3313 H3321 0.960 . S
C3314 C3312 1.381 . S
C3314 C3315 1.394 . S
C3314 H3322 0.930 . S
C3315 C3314 1.394 . S
C3315 C3316 1.383 . S
C3315 H3323 0.929 . S
C3316 C3315 1.383 . S
C3316 C3317 1.377 . S
C3317 H3301 0.930 . S
C3317 C3316 1.377 . S
C3317 C3318 1.379 . S
C3318 H3302 0.931 . S
C3318 C3312 1.383 . S
C3318 C3317 1.379 . S
H3319 C3313 0.959 . S
H3320 C3313 0.961 . S
H3321 C3313 0.960 . S
H3322 C3314 0.930 . S
H3323 C3315 0.929 . S
H3324 C3332 0.929 . S
H3325 C3334 0.930 . S
H3326 C3336 0.930 . S
H3327 C3339 0.929 . S
H3328 C3342 0.930 1_455 S
H3329 C3344 0.960 . S
H3330 C3344 0.960 . S
H3331 C3344 0.960 . S
C3332 H3324 0.929 . S
C3332 C3333 1.377 . S
C3332 C3334 1.384 . S
C3333 C3332 1.377 . S
C3333 C3339 1.390 . S
C3334 H3325 0.930 . S
C3334 C3332 1.384 . S
C3334 C3335 1.372 1_455 S
C3335 C3334 1.372 1_655 S
C3335 C3336 1.400 . S
C3335 C3340 1.490 . S
C3336 H3326 0.930 . S
C3336 C3335 1.400 . S
C3336 C3339 1.386 1_655 S
H3337 C3353 0.930 . S
H3338 C3354 0.931 . S
C3339 H3327 0.929 . S
C3339 C3333 1.390 . S
C3339 C3336 1.386 1_455 S
C3340 C3335 1.490 . S
C3340 C3342 1.395 . S
C3340 C3343 1.403 . S
H3341 C3347 0.930 . S
C3342 H3328 0.930 1_655 S
C3342 C3340 1.395 . S
C3342 C3345 1.403 . S
C3343 C3340 1.403 . S
C3343 C3344 1.524 . S
C3343 C3347 1.400 . S
C3344 H3329 0.960 . S
C3344 H3330 0.960 . S
C3344 H3331 0.960 . S
C3344 C3343 1.524 . S
C3345 C3342 1.403 . S
C3345 C3346 1.392 . S
C3345 C3349 1.495 . S
C3346 C3345 1.392 . S
C3346 C3347 1.385 . S
C3346 C3348 1.478 . S
C3347 H3341 0.930 . S
C3347 C3343 1.400 . S
C3347 C3346 1.385 . S
C3348 C3346 1.478 . S
C3348 C3350 1.381 . S
C3348 C3354 1.383 . S
C3349 C3345 1.495 . S
C3349 H3355 0.959 . S
C3349 H3356 0.961 . S
C3349 H3357 0.960 . S
C3350 C3348 1.381 . S
C3350 C3351 1.394 . S
C3350 H3358 0.930 . S
C3351 C3350 1.394 . S
C3351 C3352 1.383 . S
C3351 H3359 0.929 . S
C3352 C3351 1.383 . S
C3352 C3353 1.377 . S
C3353 H3337 0.930 . S
C3353 C3352 1.377 . S
C3353 C3354 1.379 . S
C3354 H3338 0.931 . S
C3354 C3348 1.383 . S
C3354 C3353 1.379 . S
H3355 C3349 0.959 . S
H3356 C3349 0.961 . S
H3357 C3349 0.960 . S
H3358 C3350 0.930 . S
H3359 C3351 0.929 . S
H3360 C3368 0.929 . S
H3361 C3370 0.930 . S
H3362 C3372 0.930 . S
H3363 C3375 0.929 . S
H3364 C3378 0.930 . S
H3365 C3380 0.960 . S
H3366 C3380 0.960 . S
H3367 C3380 0.960 . S
C3368 H3360 0.929 . S
C3368 C3369 1.377 . S
C3368 C3370 1.384 . S
C3369 C3368 1.377 . S
C3369 C3375 1.390 . S
C3370 H3361 0.930 . S
C3370 C3368 1.384 . S
C3370 C3371 1.372 . S
C3371 C3370 1.372 . S
C3371 C3372 1.400 . S
C3371 C3376 1.490 . S
C3372 H3362 0.930 . S
C3372 C3371 1.400 . S
C3372 C3375 1.386 . S
H3373 C3389 0.930 . S
H3374 C3390 0.931 . S
C3375 H3363 0.929 . S
C3375 C3369 1.390 . S
C3375 C3372 1.386 . S
C3376 C3371 1.490 . S
C3376 C3378 1.395 . S
C3376 C3379 1.403 . S
H3377 C3383 0.930 . S
C3378 H3364 0.930 . S
C3378 C3376 1.395 . S
C3378 C3381 1.403 . S
C3379 C3376 1.403 . S
C3379 C3380 1.524 . S
C3379 C3383 1.400 . S
C3380 H3365 0.960 . S
C3380 H3366 0.960 . S
C3380 H3367 0.960 . S
C3380 C3379 1.524 . S
C3381 C3378 1.403 . S
C3381 C3382 1.392 . S
C3381 C3385 1.495 . S
C3382 C3381 1.392 . S
C3382 C3383 1.385 . S
C3382 C3384 1.478 . S
C3383 H3377 0.930 . S
C3383 C3379 1.400 . S
C3383 C3382 1.385 . S
C3384 C3382 1.478 . S
C3384 C3386 1.381 . S
C3384 C3390 1.383 . S
C3385 C3381 1.495 . S
C3385 H3391 0.959 . S
C3385 H3392 0.961 . S
C3385 H3393 0.960 . S
C3386 C3384 1.381 . S
C3386 C3387 1.394 . S
C3386 H3394 0.930 . S
C3387 C3386 1.394 . S
C3387 C3388 1.383 . S
C3387 H3395 0.929 . S
C3388 C3387 1.383 . S
C3388 C3389 1.377 . S
C3389 H3373 0.930 . S
C3389 C3388 1.377 . S
C3389 C3390 1.379 . S
C3390 H3374 0.931 . S
C3390 C3384 1.383 . S
C3390 C3389 1.379 . S
H3391 C3385 0.959 . S
H3392 C3385 0.961 . S
H3393 C3385 0.960 . S
H3394 C3386 0.930 . S
H3395 C3387 0.929 . S
H3396 C3404 0.929 . S
H3397 C3406 0.930 . S
H3398 C3408 0.930 . S
H3399 C3411 0.929 . S
H3400 C3414 0.930 . S
H3401 C3416 0.960 . S
H3402 C3416 0.960 . S
H3403 C3416 0.960 . S
C3404 H3396 0.929 . S
C3404 C3405 1.377 . S
C3404 C3406 1.384 . S
C3405 C3404 1.377 . S
C3405 C3411 1.390 . S
C3406 H3397 0.930 . S
C3406 C3404 1.384 . S
C3406 C3407 1.372 . S
C3407 C3406 1.372 . S
C3407 C3408 1.400 . S
C3407 C3412 1.490 . S
C3408 H3398 0.930 . S
C3408 C3407 1.400 . S
C3408 C3411 1.386 . S
H3409 C3425 0.930 . S
H3410 C3426 0.931 . S
C3411 H3399 0.929 . S
C3411 C3405 1.390 . S
C3411 C3408 1.386 . S
C3412 C3407 1.490 . S
C3412 C3414 1.395 . S
C3412 C3415 1.403 . S
H3413 C3419 0.930 . S
C3414 H3400 0.930 . S
C3414 C3412 1.395 . S
C3414 C3417 1.403 . S
C3415 C3412 1.403 . S
C3415 C3416 1.524 . S
C3415 C3419 1.400 . S
C3416 H3401 0.960 . S
C3416 H3402 0.960 . S
C3416 H3403 0.960 . S
C3416 C3415 1.524 . S
C3417 C3414 1.403 . S
C3417 C3418 1.392 . S
C3417 C3421 1.495 . S
C3418 C3417 1.392 . S
C3418 C3419 1.385 . S
C3418 C3420 1.478 . S
C3419 H3413 0.930 . S
C3419 C3415 1.400 . S
C3419 C3418 1.385 . S
C3420 C3418 1.478 . S
C3420 C3422 1.381 . S
C3420 C3426 1.383 . S
C3421 C3417 1.495 . S
C3421 H3427 0.959 . S
C3421 H3428 0.961 . S
C3421 H3429 0.960 . S
C3422 C3420 1.381 . S
C3422 C3423 1.394 . S
C3422 H3430 0.930 . S
C3423 C3422 1.394 . S
C3423 C3424 1.383 . S
C3423 H3431 0.929 . S
C3424 C3423 1.383 . S
C3424 C3425 1.377 . S
C3425 H3409 0.930 . S
C3425 C3424 1.377 . S
C3425 C3426 1.379 . S
C3426 H3410 0.931 . S
C3426 C3420 1.383 . S
C3426 C3425 1.379 . S
H3427 C3421 0.959 . S
H3428 C3421 0.961 . S
H3429 C3421 0.960 . S
H3430 C3422 0.930 . S
H3431 C3423 0.929 . S
H3432 C3440 0.929 . S
H3433 C3442 0.930 . S
H3434 C3444 0.930 . S
H3435 C3447 0.929 . S
H3436 C3450 0.930 . S
H3437 C3452 0.960 . S
H3438 C3452 0.960 . S
H3439 C3452 0.960 . S
C3440 H3432 0.929 . S
C3440 C3441 1.377 . S
C3440 C3442 1.384 . S
C3441 C3440 1.377 . S
C3441 C3447 1.390 . S
C3442 H3433 0.930 . S
C3442 C3440 1.384 . S
C3442 C3443 1.372 . S
C3443 C3442 1.372 . S
C3443 C3444 1.400 . S
C3443 C3448 1.490 . S
C3444 H3434 0.930 . S
C3444 C3443 1.400 . S
C3444 C3447 1.386 . S
H3445 C3461 0.930 . S
H3446 C3462 0.931 . S
C3447 H3435 0.929 . S
C3447 C3441 1.390 . S
C3447 C3444 1.386 . S
C3448 C3443 1.490 . S
C3448 C3450 1.395 . S
C3448 C3451 1.403 . S
H3449 C3455 0.930 . S
C3450 H3436 0.930 . S
C3450 C3448 1.395 . S
C3450 C3453 1.403 . S
C3451 C3448 1.403 . S
C3451 C3452 1.524 . S
C3451 C3455 1.400 . S
C3452 H3437 0.960 . S
C3452 H3438 0.960 . S
C3452 H3439 0.960 . S
C3452 C3451 1.524 . S
C3453 C3450 1.403 . S
C3453 C3454 1.392 . S
C3453 C3457 1.495 . S
C3454 C3453 1.392 . S
C3454 C3455 1.385 . S
C3454 C3456 1.478 . S
C3455 H3449 0.930 . S
C3455 C3451 1.400 . S
C3455 C3454 1.385 . S
C3456 C3454 1.478 . S
C3456 C3458 1.381 . S
C3456 C3462 1.383 . S
C3457 C3453 1.495 . S
C3457 H3463 0.959 . S
C3457 H3464 0.961 . S
C3457 H3465 0.960 . S
C3458 C3456 1.381 . S
C3458 C3459 1.394 . S
C3458 H3466 0.930 . S
C3459 C3458 1.394 . S
C3459 C3460 1.383 . S
C3459 H3467 0.929 . S
C3460 C3459 1.383 . S
C3460 C3461 1.377 . S
C3461 H3445 0.930 . S
C3461 C3460 1.377 . S
C3461 C3462 1.379 . S
C3462 H3446 0.931 . S
C3462 C3456 1.383 . S
C3462 C3461 1.379 . S
H3463 C3457 0.959 . S
H3464 C3457 0.961 . S
H3465 C3457 0.960 . S
H3466 C3458 0.930 . S
H3467 C3459 0.929 . S
H3468 C3476 0.929 . S
H3469 C3478 0.930 . S
H3470 C3480 0.930 . S
H3471 C3483 0.929 . S
H3472 C3486 0.930 1_455 S
H3473 C3488 0.960 . S
H3474 C3488 0.960 . S
H3475 C3488 0.960 . S
C3476 H3468 0.929 . S
C3476 C3477 1.377 . S
C3476 C3478 1.384 . S
C3477 C3476 1.377 . S
C3477 C3483 1.390 . S
C3478 H3469 0.930 . S
C3478 C3476 1.384 . S
C3478 C3479 1.372 1_455 S
C3479 C3478 1.372 1_655 S
C3479 C3480 1.400 . S
C3479 C3484 1.490 . S
C3480 H3470 0.930 . S
C3480 C3479 1.400 . S
C3480 C3483 1.386 1_655 S
H3481 C3497 0.930 . S
H3482 C3498 0.931 . S
C3483 H3471 0.929 . S
C3483 C3477 1.390 . S
C3483 C3480 1.386 1_455 S
C3484 C3479 1.490 . S
C3484 C3486 1.395 . S
C3484 C3487 1.403 . S
H3485 C3491 0.930 . S
C3486 H3472 0.930 1_655 S
C3486 C3484 1.395 . S
C3486 C3489 1.403 . S
C3487 C3484 1.403 . S
C3487 C3488 1.524 . S
C3487 C3491 1.400 . S
C3488 H3473 0.960 . S
C3488 H3474 0.960 . S
C3488 H3475 0.960 . S
C3488 C3487 1.524 . S
C3489 C3486 1.403 . S
C3489 C3490 1.392 . S
C3489 C3493 1.495 . S
C3490 C3489 1.392 . S
C3490 C3491 1.385 . S
C3490 C3492 1.478 . S
C3491 H3485 0.930 . S
C3491 C3487 1.400 . S
C3491 C3490 1.385 . S
C3492 C3490 1.478 . S
C3492 C3494 1.381 . S
C3492 C3498 1.383 . S
C3493 C3489 1.495 . S
C3493 H3499 0.959 . S
C3493 H3500 0.961 . S
C3493 H3501 0.960 . S
C3494 C3492 1.381 . S
C3494 C3495 1.394 . S
C3494 H3502 0.930 . S
C3495 C3494 1.394 . S
C3495 C3496 1.383 . S
C3495 H3503 0.929 . S
C3496 C3495 1.383 . S
C3496 C3497 1.377 . S
C3497 H3481 0.930 . S
C3497 C3496 1.377 . S
C3497 C3498 1.379 . S
C3498 H3482 0.931 . S
C3498 C3492 1.383 . S
C3498 C3497 1.379 . S
H3499 C3493 0.959 . S
H3500 C3493 0.961 . S
H3501 C3493 0.960 . S
H3502 C3494 0.930 . S
H3503 C3495 0.929 . S
H3504 C3512 0.929 . S
H3505 C3514 0.930 . S
H3506 C3516 0.930 . S
H3507 C3519 0.929 . S
H3508 C3522 0.930 . S
H3509 C3524 0.960 . S
H3510 C3524 0.960 . S
H3511 C3524 0.960 . S
C3512 H3504 0.929 . S
C3512 C3513 1.377 . S
C3512 C3514 1.384 . S
C3513 C3512 1.377 . S
C3513 C3519 1.390 . S
C3514 H3505 0.930 . S
C3514 C3512 1.384 . S
C3514 C3515 1.372 . S
C3515 C3514 1.372 . S
C3515 C3516 1.400 . S
C3515 C3520 1.490 . S
C3516 H3506 0.930 . S
C3516 C3515 1.400 . S
C3516 C3519 1.386 . S
H3517 C3533 0.930 . S
H3518 C3534 0.931 . S
C3519 H3507 0.929 . S
C3519 C3513 1.390 . S
C3519 C3516 1.386 . S
C3520 C3515 1.490 . S
C3520 C3522 1.395 . S
C3520 C3523 1.403 . S
H3521 C3527 0.930 . S
C3522 H3508 0.930 . S
C3522 C3520 1.395 . S
C3522 C3525 1.403 . S
C3523 C3520 1.403 . S
C3523 C3524 1.524 . S
C3523 C3527 1.400 . S
C3524 H3509 0.960 . S
C3524 H3510 0.960 . S
C3524 H3511 0.960 . S
C3524 C3523 1.524 . S
C3525 C3522 1.403 . S
C3525 C3526 1.392 . S
C3525 C3529 1.495 . S
C3526 C3525 1.392 . S
C3526 C3527 1.385 . S
C3526 C3528 1.478 . S
C3527 H3521 0.930 . S
C3527 C3523 1.400 . S
C3527 C3526 1.385 . S
C3528 C3526 1.478 . S
C3528 C3530 1.381 . S
C3528 C3534 1.383 . S
C3529 C3525 1.495 . S
C3529 H3535 0.959 . S
C3529 H3536 0.961 . S
C3529 H3537 0.960 . S
C3530 C3528 1.381 . S
C3530 C3531 1.394 . S
C3530 H3538 0.930 . S
C3531 C3530 1.394 . S
C3531 C3532 1.383 . S
C3531 H3539 0.929 . S
C3532 C3531 1.383 . S
C3532 C3533 1.377 . S
C3533 H3517 0.930 . S
C3533 C3532 1.377 . S
C3533 C3534 1.379 . S
C3534 H3518 0.931 . S
C3534 C3528 1.383 . S
C3534 C3533 1.379 . S
H3535 C3529 0.959 . S
H3536 C3529 0.961 . S
H3537 C3529 0.960 . S
H3538 C3530 0.930 . S
H3539 C3531 0.929 . S
H3540 C3548 0.929 . S
H3541 C3550 0.930 . S
H3542 C3552 0.930 . S
H3543 C3555 0.929 . S
H3544 C3558 0.930 . S
H3545 C3560 0.960 . S
H3546 C3560 0.960 . S
H3547 C3560 0.960 . S
C3548 H3540 0.929 . S
C3548 C3549 1.377 . S
C3548 C3550 1.384 . S
C3549 C3548 1.377 . S
C3549 C3555 1.390 . S
C3550 H3541 0.930 . S
C3550 C3548 1.384 . S
C3550 C3551 1.372 . S
C3551 C3550 1.372 . S
C3551 C3552 1.400 . S
C3551 C3556 1.490 . S
C3552 H3542 0.930 . S
C3552 C3551 1.400 . S
C3552 C3555 1.386 . S
H3553 C3569 0.930 . S
H3554 C3570 0.931 . S
C3555 H3543 0.929 . S
C3555 C3549 1.390 . S
C3555 C3552 1.386 . S
C3556 C3551 1.490 . S
C3556 C3558 1.395 . S
C3556 C3559 1.403 . S
H3557 C3563 0.957 . S
C3558 H3544 0.930 . S
C3558 C3556 1.395 . S
C3558 C3561 1.403 . S
C3559 C3556 1.403 . S
C3559 C3560 1.524 . S
C3559 C3563 1.400 . S
C3560 H3545 0.960 . S
C3560 H3546 0.960 . S
C3560 H3547 0.960 . S
C3560 C3559 1.524 . S
C3561 C3558 1.403 . S
C3561 C3562 1.392 . S
C3561 C3565 1.495 . S
C3562 C3561 1.392 . S
C3562 C3563 1.385 . S
C3562 C3564 1.478 . S
C3563 H3557 0.957 . S
C3563 C3559 1.400 . S
C3563 C3562 1.385 . S
C3564 C3562 1.478 . S
C3564 C3566 1.381 . S
C3564 C3570 1.383 1_655 S
C3565 C3561 1.495 . S
C3565 H3571 0.959 . S
C3565 H3572 0.961 . S
C3565 H3573 0.960 . S
C3566 C3564 1.381 . S
C3566 C3567 1.394 1_655 S
C3566 H3574 0.930 . S
C3567 C3566 1.394 1_455 S
C3567 C3568 1.383 . S
C3567 H3575 0.929 . S
C3568 C3567 1.383 . S
C3568 C3569 1.377 . S
C3569 H3553 0.930 . S
C3569 C3568 1.377 . S
C3569 C3570 1.379 . S
C3570 H3554 0.931 . S
C3570 C3564 1.383 1_455 S
C3570 C3569 1.379 . S
H3571 C3565 0.959 . S
H3572 C3565 0.961 . S
H3573 C3565 0.960 . S
H3574 C3566 0.930 . S
H3575 C3567 0.929 . S
H3576 C3584 0.929 . S
H3577 C3586 0.930 . S
H3578 C3588 0.930 . S
H3579 C3591 0.929 . S
H3580 C3594 0.930 . S
H3581 C3596 0.960 . S
H3582 C3596 0.960 . S
H3583 C3596 0.960 . S
C3584 H3576 0.929 . S
C3584 C3585 1.377 . S
C3584 C3586 1.384 . S
C3585 C3584 1.377 . S
C3585 C3591 1.390 . S
C3586 H3577 0.930 . S
C3586 C3584 1.384 . S
C3586 C3587 1.372 . S
C3587 C3586 1.372 . S
C3587 C3588 1.400 . S
C3587 C3592 1.490 . S
C3588 H3578 0.930 . S
C3588 C3587 1.400 . S
C3588 C3591 1.386 . S
H3589 C3605 0.930 . S
H3590 C3606 0.931 . S
C3591 H3579 0.929 . S
C3591 C3585 1.390 . S
C3591 C3588 1.386 . S
C3592 C3587 1.490 . S
C3592 C3594 1.395 . S
C3592 C3595 1.403 . S
H3593 C3599 0.930 . S
C3594 H3580 0.930 . S
C3594 C3592 1.395 . S
C3594 C3597 1.403 . S
C3595 C3592 1.403 . S
C3595 C3596 1.524 . S
C3595 C3599 1.400 . S
C3596 H3581 0.960 . S
C3596 H3582 0.960 . S
C3596 H3583 0.960 . S
C3596 C3595 1.524 . S
C3597 C3594 1.403 . S
C3597 C3598 1.392 . S
C3597 C3601 1.495 . S
C3598 C3597 1.392 . S
C3598 C3599 1.385 . S
C3598 C3600 1.478 . S
C3599 H3593 0.930 . S
C3599 C3595 1.400 . S
C3599 C3598 1.385 . S
C3600 C3598 1.478 . S
C3600 C3602 1.381 . S
C3600 C3606 1.383 . S
C3601 C3597 1.495 . S
C3601 H3607 0.959 . S
C3601 H3608 0.961 . S
C3601 H3609 0.960 . S
C3602 C3600 1.381 . S
C3602 C3603 1.394 . S
C3602 H3610 0.930 . S
C3603 C3602 1.394 . S
C3603 C3604 1.383 . S
C3603 H3611 0.929 . S
C3604 C3603 1.383 . S
C3604 C3605 1.377 . S
C3605 H3589 0.930 . S
C3605 C3604 1.377 . S
C3605 C3606 1.379 . S
C3606 H3590 0.931 . S
C3606 C3600 1.383 . S
C3606 C3605 1.379 . S
H3607 C3601 0.959 . S
H3608 C3601 0.961 . S
H3609 C3601 0.960 . S
H3610 C3602 0.930 . S
H3611 C3603 0.929 . S
H3612 C3620 0.929 . S
H3613 C3622 0.930 . S
H3614 C3624 0.930 . S
H3615 C3627 0.929 . S
H3616 C3630 0.930 . S
H3617 C3632 0.960 . S
H3618 C3632 0.960 . S
H3619 C3632 0.960 . S
C3620 H3612 0.929 . S
C3620 C3621 1.377 . S
C3620 C3622 1.384 . S
C3621 C3620 1.377 . S
C3621 C3627 1.390 . S
C3622 H3613 0.930 . S
C3622 C3620 1.384 . S
C3622 C3623 1.372 . S
C3623 C3622 1.372 . S
C3623 C3624 1.400 . S
C3623 C3628 1.490 . S
C3624 H3614 0.930 . S
C3624 C3623 1.400 . S
C3624 C3627 1.386 . S
H3625 C3641 0.930 . S
H3626 C3642 0.931 . S
C3627 H3615 0.929 . S
C3627 C3621 1.390 . S
C3627 C3624 1.386 . S
C3628 C3623 1.490 . S
C3628 C3630 1.395 . S
C3628 C3631 1.403 . S
H3629 C3635 0.930 . S
C3630 H3616 0.930 . S
C3630 C3628 1.395 . S
C3630 C3633 1.403 . S
C3631 C3628 1.403 . S
C3631 C3632 1.524 . S
C3631 C3635 1.400 . S
C3632 H3617 0.960 . S
C3632 H3618 0.960 . S
C3632 H3619 0.960 . S
C3632 C3631 1.524 . S
C3633 C3630 1.403 . S
C3633 C3634 1.392 . S
C3633 C3637 1.495 . S
C3634 C3633 1.392 . S
C3634 C3635 1.385 . S
C3634 C3636 1.478 . S
C3635 H3629 0.930 . S
C3635 C3631 1.400 . S
C3635 C3634 1.385 . S
C3636 C3634 1.478 . S
C3636 C3638 1.381 . S
C3636 C3642 1.383 . S
C3637 C3633 1.495 . S
C3637 H3643 0.959 . S
C3637 H3644 0.961 . S
C3637 H3645 0.960 . S
C3638 C3636 1.381 . S
C3638 C3639 1.394 . S
C3638 H3646 0.930 . S
C3639 C3638 1.394 . S
C3639 C3640 1.383 . S
C3639 H3647 0.929 . S
C3640 C3639 1.383 . S
C3640 C3641 1.377 . S
C3641 H3625 0.930 . S
C3641 C3640 1.377 . S
C3641 C3642 1.379 . S
C3642 H3626 0.931 . S
C3642 C3636 1.383 . S
C3642 C3641 1.379 . S
H3643 C3637 0.959 . S
H3644 C3637 0.961 . S
H3645 C3637 0.960 . S
H3646 C3638 0.930 . S
H3647 C3639 0.929 . S
H3648 C3656 0.929 . S
H3649 C3658 0.930 . S
H3650 C3660 0.930 . S
H3651 C3663 0.929 . S
H3652 C3666 0.930 . S
H3653 C3668 0.960 . S
H3654 C3668 0.960 . S
H3655 C3668 0.960 . S
C3656 H3648 0.929 . S
C3656 C3657 1.377 . S
C3656 C3658 1.384 . S
C3657 C3656 1.377 . S
C3657 C3663 1.390 . S
C3658 H3649 0.930 . S
C3658 C3656 1.384 . S
C3658 C3659 1.372 . S
C3659 C3658 1.372 . S
C3659 C3660 1.400 . S
C3659 C3664 1.490 . S
C3660 H3650 0.930 . S
C3660 C3659 1.400 . S
C3660 C3663 1.386 . S
H3661 C3677 0.930 . S
H3662 C3678 0.931 . S
C3663 H3651 0.929 . S
C3663 C3657 1.390 . S
C3663 C3660 1.386 . S
C3664 C3659 1.490 . S
C3664 C3666 1.395 . S
C3664 C3667 1.403 . S
H3665 C3671 0.930 . S
C3666 H3652 0.930 . S
C3666 C3664 1.395 . S
C3666 C3669 1.403 . S
C3667 C3664 1.403 . S
C3667 C3668 1.524 . S
C3667 C3671 1.400 . S
C3668 H3653 0.960 . S
C3668 H3654 0.960 . S
C3668 H3655 0.960 . S
C3668 C3667 1.524 . S
C3669 C3666 1.403 . S
C3669 C3670 1.392 . S
C3669 C3673 1.495 . S
C3670 C3669 1.392 . S
C3670 C3671 1.385 . S
C3670 C3672 1.478 . S
C3671 H3665 0.930 . S
C3671 C3667 1.400 . S
C3671 C3670 1.385 . S
C3672 C3670 1.478 . S
C3672 C3674 1.381 . S
C3672 C3678 1.383 . S
C3673 C3669 1.495 . S
C3673 H3679 0.959 . S
C3673 H3680 0.961 . S
C3673 H3681 0.960 . S
C3674 C3672 1.381 . S
C3674 C3675 1.394 . S
C3674 H3682 0.930 . S
C3675 C3674 1.394 . S
C3675 C3676 1.383 . S
C3675 H3683 0.929 . S
C3676 C3675 1.383 . S
C3676 C3677 1.377 . S
C3677 H3661 0.930 . S
C3677 C3676 1.377 . S
C3677 C3678 1.379 . S
C3678 H3662 0.931 . S
C3678 C3672 1.383 . S
C3678 C3677 1.379 . S
H3679 C3673 0.959 . S
H3680 C3673 0.961 . S
H3681 C3673 0.960 . S
H3682 C3674 0.930 . S
H3683 C3675 0.929 . S
H3684 C3692 0.929 . S
H3685 C3694 0.930 . S
H3686 C3696 0.930 . S
H3687 C3699 0.929 . S
H3688 C3702 0.930 . S
H3689 C3704 0.960 . S
H3690 C3704 0.960 . S
H3691 C3704 0.960 . S
C3692 H3684 0.929 . S
C3692 C3693 1.377 . S
C3692 C3694 1.384 . S
C3693 C3692 1.377 . S
C3693 C3699 1.390 . S
C3694 H3685 0.930 . S
C3694 C3692 1.384 . S
C3694 C3695 1.372 . S
C3695 C3694 1.372 . S
C3695 C3696 1.400 . S
C3695 C3700 1.490 . S
C3696 H3686 0.930 . S
C3696 C3695 1.400 . S
C3696 C3699 1.386 . S
H3697 C3713 0.930 . S
H3698 C3714 0.931 . S
C3699 H3687 0.929 . S
C3699 C3693 1.390 . S
C3699 C3696 1.386 . S
C3700 C3695 1.490 . S
C3700 C3702 1.395 . S
C3700 C3703 1.403 . S
H3701 C3707 0.930 . S
C3702 H3688 0.930 . S
C3702 C3700 1.395 . S
C3702 C3705 1.403 . S
C3703 C3700 1.403 . S
C3703 C3704 1.524 . S
C3703 C3707 1.400 . S
C3704 H3689 0.960 . S
C3704 H3690 0.960 . S
C3704 H3691 0.960 . S
C3704 C3703 1.524 . S
C3705 C3702 1.403 . S
C3705 C3706 1.392 . S
C3705 C3709 1.495 . S
C3706 C3705 1.392 . S
C3706 C3707 1.385 . S
C3706 C3708 1.478 . S
C3707 H3701 0.930 . S
C3707 C3703 1.400 . S
C3707 C3706 1.385 . S
C3708 C3706 1.478 . S
C3708 C3710 1.381 . S
C3708 C3714 1.383 . S
C3709 C3705 1.495 . S
C3709 H3715 0.959 . S
C3709 H3716 0.961 . S
C3709 H3717 0.960 . S
C3710 C3708 1.381 . S
C3710 C3711 1.394 . S
C3710 H3718 0.930 . S
C3711 C3710 1.394 . S
C3711 C3712 1.383 . S
C3711 H3719 0.929 . S
C3712 C3711 1.383 . S
C3712 C3713 1.377 . S
C3713 H3697 0.930 . S
C3713 C3712 1.377 . S
C3713 C3714 1.379 . S
C3714 H3698 0.931 . S
C3714 C3708 1.383 . S
C3714 C3713 1.379 . S
H3715 C3709 0.959 . S
H3716 C3709 0.961 . S
H3717 C3709 0.960 . S
H3718 C3710 0.930 . S
H3719 C3711 0.929 . S
H3720 C3728 0.929 . S
H3721 C3730 0.930 . S
H3722 C3732 0.930 . S
H3723 C3735 0.929 . S
H3724 C3738 0.930 . S
H3725 C3740 0.960 . S
H3726 C3740 0.960 . S
H3727 C3740 0.960 . S
C3728 H3720 0.929 . S
C3728 C3729 1.377 . S
C3728 C3730 1.384 . S
C3729 C3728 1.377 . S
C3729 C3735 1.390 . S
C3730 H3721 0.930 . S
C3730 C3728 1.384 . S
C3730 C3731 1.372 . S
C3731 C3730 1.372 . S
C3731 C3732 1.400 . S
C3731 C3736 1.490 . S
C3732 H3722 0.930 . S
C3732 C3731 1.400 . S
C3732 C3735 1.386 . S
H3733 C3749 0.930 . S
H3734 C3750 0.931 . S
C3735 H3723 0.929 . S
C3735 C3729 1.390 . S
C3735 C3732 1.386 . S
C3736 C3731 1.490 . S
C3736 C3738 1.395 . S
C3736 C3739 1.403 . S
H3737 C3743 0.930 . S
C3738 H3724 0.930 . S
C3738 C3736 1.395 . S
C3738 C3741 1.403 . S
C3739 C3736 1.403 . S
C3739 C3740 1.524 . S
C3739 C3743 1.400 . S
C3740 H3725 0.960 . S
C3740 H3726 0.960 . S
C3740 H3727 0.960 . S
C3740 C3739 1.524 . S
C3741 C3738 1.403 . S
C3741 C3742 1.392 . S
C3741 C3745 1.495 . S
C3742 C3741 1.392 . S
C3742 C3743 1.385 . S
C3742 C3744 1.478 . S
C3743 H3737 0.930 . S
C3743 C3739 1.400 . S
C3743 C3742 1.385 . S
C3744 C3742 1.478 . S
C3744 C3746 1.381 . S
C3744 C3750 1.383 . S
C3745 C3741 1.495 . S
C3745 H3751 0.959 . S
C3745 H3752 0.961 . S
C3745 H3753 0.960 . S
C3746 C3744 1.381 . S
C3746 C3747 1.394 . S
C3746 H3754 0.930 . S
C3747 C3746 1.394 . S
C3747 C3748 1.383 . S
C3747 H3755 0.929 . S
C3748 C3747 1.383 . S
C3748 C3749 1.377 . S
C3749 H3733 0.930 . S
C3749 C3748 1.377 . S
C3749 C3750 1.379 . S
C3750 H3734 0.931 . S
C3750 C3744 1.383 . S
C3750 C3749 1.379 . S
H3751 C3745 0.959 . S
H3752 C3745 0.961 . S
H3753 C3745 0.960 . S
H3754 C3746 0.930 . S
H3755 C3747 0.929 . S
H3756 C3764 0.929 . S
H3757 C3766 0.930 . S
H3758 C3768 0.930 . S
H3759 C3771 0.929 . S
H3760 C3774 0.930 . S
H3761 C3776 0.960 . S
H3762 C3776 0.960 . S
H3763 C3776 0.960 . S
C3764 H3756 0.929 . S
C3764 C3765 1.377 . S
C3764 C3766 1.384 . S
C3765 C3764 1.377 . S
C3765 C3771 1.390 . S
C3766 H3757 0.930 . S
C3766 C3764 1.384 . S
C3766 C3767 1.372 . S
C3767 C3766 1.372 . S
C3767 C3768 1.400 . S
C3767 C3772 1.490 . S
C3768 H3758 0.930 . S
C3768 C3767 1.400 . S
C3768 C3771 1.386 . S
H3769 C3785 0.930 . S
H3770 C3786 0.931 1_455 S
C3771 H3759 0.929 . S
C3771 C3765 1.390 . S
C3771 C3768 1.386 . S
C3772 C3767 1.490 . S
C3772 C3774 1.395 . S
C3772 C3775 1.403 . S
H3773 C3779 0.930 . S
C3774 H3760 0.930 . S
C3774 C3772 1.395 . S
C3774 C3777 1.403 . S
C3775 C3772 1.403 . S
C3775 C3776 1.524 . S
C3775 C3779 1.400 . S
C3776 H3761 0.960 . S
C3776 H3762 0.960 . S
C3776 H3763 0.960 . S
C3776 C3775 1.524 . S
C3777 C3774 1.403 . S
C3777 C3778 1.392 . S
C3777 C3781 1.495 . S
C3778 C3777 1.392 . S
C3778 C3779 1.385 . S
C3778 C3780 1.478 . S
C3779 H3773 0.930 . S
C3779 C3775 1.400 . S
C3779 C3778 1.385 . S
C3780 C3778 1.478 . S
C3780 C3782 1.381 1_455 S
C3780 C3786 1.383 1_455 S
C3781 C3777 1.495 . S
C3781 H3787 0.959 . S
C3781 H3788 0.961 . S
C3781 H3789 0.960 . S
C3782 C3780 1.381 1_655 S
C3782 C3783 1.394 . S
C3782 H3790 0.930 1_655 S
C3783 C3782 1.394 . S
C3783 C3784 1.383 . S
C3783 H3791 0.929 . S
C3784 C3783 1.383 . S
C3784 C3785 1.377 . S
C3785 H3769 0.930 . S
C3785 C3784 1.377 . S
C3785 C3786 1.379 . S
C3786 H3770 0.931 1_655 S
C3786 C3780 1.383 1_655 S
C3786 C3785 1.379 . S
H3787 C3781 0.959 . S
H3788 C3781 0.961 . S
H3789 C3781 0.960 . S
H3790 C3782 0.930 1_455 S
H3791 C3783 0.929 . S
H3792 C3800 0.929 . S
H3793 C3802 0.930 . S
H3794 C3804 0.930 . S
H3795 C3807 0.929 . S
H3796 C3810 0.930 . S
H3797 C3812 0.960 . S
H3798 C3812 0.960 . S
H3799 C3812 0.960 . S
C3800 H3792 0.929 . S
C3800 C3801 1.377 . S
C3800 C3802 1.384 . S
C3801 C3800 1.377 . S
C3801 C3807 1.390 . S
C3802 H3793 0.930 . S
C3802 C3800 1.384 . S
C3802 C3803 1.372 . S
C3803 C3802 1.372 . S
C3803 C3804 1.400 . S
C3803 C3808 1.490 . S
C3804 H3794 0.930 . S
C3804 C3803 1.400 . S
C3804 C3807 1.386 . S
H3805 C3821 0.930 . S
H3806 C3822 0.931 . S
C3807 H3795 0.929 . S
C3807 C3801 1.390 . S
C3807 C3804 1.386 . S
C3808 C3803 1.490 . S
C3808 C3810 1.395 . S
C3808 C3811 1.403 . S
H3809 C3815 0.930 . S
C3810 H3796 0.930 . S
C3810 C3808 1.395 . S
C3810 C3813 1.403 . S
C3811 C3808 1.403 . S
C3811 C3812 1.524 . S
C3811 C3815 1.400 . S
C3812 H3797 0.960 . S
C3812 H3798 0.960 . S
C3812 H3799 0.960 . S
C3812 C3811 1.524 . S
C3813 C3810 1.403 . S
C3813 C3814 1.392 . S
C3813 C3817 1.495 . S
C3814 C3813 1.392 . S
C3814 C3815 1.385 . S
C3814 C3816 1.478 . S
C3815 H3809 0.930 . S
C3815 C3811 1.400 . S
C3815 C3814 1.385 . S
C3816 C3814 1.478 . S
C3816 C3818 1.381 . S
C3816 C3822 1.383 . S
C3817 C3813 1.495 . S
C3817 H3823 0.959 . S
C3817 H3824 0.961 . S
C3817 H3825 0.960 . S
C3818 C3816 1.381 . S
C3818 C3819 1.394 . S
C3818 H3826 0.930 . S
C3819 C3818 1.394 . S
C3819 C3820 1.383 . S
C3819 H3827 0.929 . S
C3820 C3819 1.383 . S
C3820 C3821 1.377 . S
C3821 H3805 0.930 . S
C3821 C3820 1.377 . S
C3821 C3822 1.379 . S
C3822 H3806 0.931 . S
C3822 C3816 1.383 . S
C3822 C3821 1.379 . S
H3823 C3817 0.959 . S
H3824 C3817 0.961 . S
H3825 C3817 0.960 . S
H3826 C3818 0.930 . S
H3827 C3819 0.929 . S
H3828 C3836 0.929 . S
H3829 C3838 0.930 . S
H3830 C3840 0.930 . S
H3831 C3843 0.929 . S
H3832 C3846 0.887 1_655 S
H3833 C3848 0.960 . S
H3834 C3848 0.960 . S
H3835 C3848 0.960 . S
C3836 H3828 0.929 . S
C3836 C3837 1.377 . S
C3836 C3838 1.384 . S
C3837 C3836 1.377 . S
C3837 C3843 1.390 . S
C3838 H3829 0.930 . S
C3838 C3836 1.384 . S
C3838 C3839 1.372 1_655 S
C3839 C3838 1.372 1_455 S
C3839 C3840 1.400 . S
C3839 C3844 1.490 . S
C3840 H3830 0.930 . S
C3840 C3839 1.400 . S
C3840 C3843 1.386 1_455 S
H3841 C3857 0.930 . S
H3842 C3858 0.931 . S
C3843 H3831 0.929 . S
C3843 C3837 1.390 . S
C3843 C3840 1.386 1_655 S
C3844 C3839 1.490 . S
C3844 C3846 1.395 . S
C3844 C3847 1.403 . S
H3845 C3851 0.930 . S
C3846 H3832 0.887 1_455 S
C3846 C3844 1.395 . S
C3846 C3849 1.403 . S
C3847 C3844 1.403 . S
C3847 C3848 1.524 . S
C3847 C3851 1.400 . S
C3848 H3833 0.960 . S
C3848 H3834 0.960 . S
C3848 H3835 0.960 . S
C3848 C3847 1.524 . S
C3849 C3846 1.403 . S
C3849 C3850 1.392 . S
C3849 C3853 1.495 . S
C3850 C3849 1.392 . S
C3850 C3851 1.385 . S
C3850 C3852 1.478 . S
C3851 H3845 0.930 . S
C3851 C3847 1.400 . S
C3851 C3850 1.385 . S
C3852 C3850 1.478 . S
C3852 C3854 1.381 . S
C3852 C3858 1.383 . S
C3853 C3849 1.495 . S
C3853 H3859 0.959 . S
C3853 H3860 0.961 . S
C3853 H3861 0.960 . S
C3854 C3852 1.381 . S
C3854 C3855 1.394 . S
C3854 H3862 0.930 . S
C3855 C3854 1.394 . S
C3855 C3856 1.383 . S
C3855 H3863 0.929 . S
C3856 C3855 1.383 . S
C3856 C3857 1.377 . S
C3857 H3841 0.930 . S
C3857 C3856 1.377 . S
C3857 C3858 1.379 . S
C3858 H3842 0.931 . S
C3858 C3852 1.383 . S
C3858 C3857 1.379 . S
H3859 C3853 0.959 . S
H3860 C3853 0.961 . S
H3861 C3853 0.960 . S
H3862 C3854 0.930 . S
H3863 C3855 0.929 . S
H3864 C3872 0.929 . S
H3865 C3874 0.930 . S
H3866 C3876 0.930 . S
H3867 C3879 0.929 . S
H3868 C3882 0.930 . S
H3869 C3884 0.960 . S
H3870 C3884 0.960 . S
H3871 C3884 0.960 . S
C3872 H3864 0.929 . S
C3872 C3873 1.377 . S
C3872 C3874 1.384 . S
C3873 C3872 1.377 . S
C3873 C3879 1.390 . S
C3874 H3865 0.930 . S
C3874 C3872 1.384 . S
C3874 C3875 1.372 . S
C3875 C3874 1.372 . S
C3875 C3876 1.400 . S
C3875 C3880 1.490 . S
C3876 H3866 0.930 . S
C3876 C3875 1.400 . S
C3876 C3879 1.386 . S
H3877 C3893 0.930 . S
H3878 C3894 0.931 . S
C3879 H3867 0.929 . S
C3879 C3873 1.390 . S
C3879 C3876 1.386 . S
C3880 C3875 1.490 . S
C3880 C3882 1.395 . S
C3880 C3883 1.403 . S
H3881 C3887 0.930 . S
C3882 H3868 0.930 . S
C3882 C3880 1.395 . S
C3882 C3885 1.403 . S
C3883 C3880 1.403 . S
C3883 C3884 1.524 . S
C3883 C3887 1.400 . S
C3884 H3869 0.960 . S
C3884 H3870 0.960 . S
C3884 H3871 0.960 . S
C3884 C3883 1.524 . S
C3885 C3882 1.403 . S
C3885 C3886 1.392 . S
C3885 C3889 1.495 . S
C3886 C3885 1.392 . S
C3886 C3887 1.385 . S
C3886 C3888 1.478 . S
C3887 H3881 0.930 . S
C3887 C3883 1.400 . S
C3887 C3886 1.385 . S
C3888 C3886 1.478 . S
C3888 C3890 1.381 . S
C3888 C3894 1.383 . S
C3889 C3885 1.495 . S
C3889 H3895 0.959 . S
C3889 H3896 0.961 . S
C3889 H3897 0.960 . S
C3890 C3888 1.381 . S
C3890 C3891 1.394 . S
C3890 H3898 0.930 . S
C3891 C3890 1.394 . S
C3891 C3892 1.383 . S
C3891 H3899 0.929 . S
C3892 C3891 1.383 . S
C3892 C3893 1.377 . S
C3893 H3877 0.930 . S
C3893 C3892 1.377 . S
C3893 C3894 1.379 . S
C3894 H3878 0.931 . S
C3894 C3888 1.383 . S
C3894 C3893 1.379 . S
H3895 C3889 0.959 . S
H3896 C3889 0.961 . S
H3897 C3889 0.960 . S
H3898 C3890 0.930 . S
H3899 C3891 0.929 . S
H3900 C3908 0.929 . S
H3901 C3910 0.930 . S
H3902 C3912 0.930 . S
H3903 C3915 0.929 . S
H3904 C3918 0.930 . S
H3905 C3920 0.960 . S
H3906 C3920 0.960 . S
H3907 C3920 0.960 . S
C3908 H3900 0.929 . S
C3908 C3909 1.377 . S
C3908 C3910 1.384 . S
C3909 C3908 1.377 . S
C3909 C3915 1.390 . S
C3910 H3901 0.930 . S
C3910 C3908 1.384 . S
C3910 C3911 1.372 . S
C3911 C3910 1.372 . S
C3911 C3912 1.400 . S
C3911 C3916 1.490 . S
C3912 H3902 0.930 . S
C3912 C3911 1.400 . S
C3912 C3915 1.386 . S
H3913 C3929 0.930 . S
H3914 C3930 0.931 . S
C3915 H3903 0.929 . S
C3915 C3909 1.390 . S
C3915 C3912 1.386 . S
C3916 C3911 1.490 . S
C3916 C3918 1.395 . S
C3916 C3919 1.403 . S
H3917 C3923 0.930 . S
C3918 H3904 0.930 . S
C3918 C3916 1.395 . S
C3918 C3921 1.403 . S
C3919 C3916 1.403 . S
C3919 C3920 1.524 . S
C3919 C3923 1.400 . S
C3920 H3905 0.960 . S
C3920 H3906 0.960 . S
C3920 H3907 0.960 . S
C3920 C3919 1.524 . S
C3921 C3918 1.403 . S
C3921 C3922 1.392 . S
C3921 C3925 1.495 . S
C3922 C3921 1.392 . S
C3922 C3923 1.385 . S
C3922 C3924 1.478 . S
C3923 H3917 0.930 . S
C3923 C3919 1.400 . S
C3923 C3922 1.385 . S
C3924 C3922 1.478 . S
C3924 C3926 1.381 . S
C3924 C3930 1.383 . S
C3925 C3921 1.495 . S
C3925 H3931 0.959 . S
C3925 H3932 0.961 . S
C3925 H3933 0.960 . S
C3926 C3924 1.381 . S
C3926 C3927 1.394 . S
C3926 H3934 0.930 . S
C3927 C3926 1.394 . S
C3927 C3928 1.383 . S
C3927 H3935 0.929 . S
C3928 C3927 1.383 . S
C3928 C3929 1.377 . S
C3929 H3913 0.930 . S
C3929 C3928 1.377 . S
C3929 C3930 1.379 . S
C3930 H3914 0.931 . S
C3930 C3924 1.383 . S
C3930 C3929 1.379 . S
H3931 C3925 0.959 . S
H3932 C3925 0.961 . S
H3933 C3925 0.960 . S
H3934 C3926 0.930 . S
H3935 C3927 0.929 . S
C1065 N244 1.772 . S
C1084 N13 1.739 . S
C1101 N46 1.776 . S
C1120 N145 1.765 . S
C1137 N79 1.776 . S
C1156 N178 1.756 . S
C1173 N211 1.768 . S
C1192 N112 1.740 . S
C1209 N508 1.765 . S
C1228 N277 1.794 . S
C1245 N409 1.776 . S
C1264 N310 1.743 . S
C1281 N343 1.770 . S
C1300 N442 1.783 . S
C1317 N376 1.766 . S
C1336 N475 1.768 . S
C1353 N772 1.773 . S
C1372 N541 1.742 . S
C1389 N574 1.764 . S
C1408 N673 1.777 . S
C1425 N607 1.775 . S
C1444 N706 1.771 . S
C1461 N739 1.766 . S
C1480 N640 1.747 . S
C1497 N1036 1.775 . S
C1516 N805 1.754 . S
C1533 N838 1.768 . S
C1552 N937 1.790 . S
C1569 N970 1.768 . S
C1588 N871 1.754 . S
C1605 N1003 1.772 . S
C1624 N904 1.742 . S
C1641 C150 0.851 . S
C1660 C18 0.850 . S
C1677 C51 0.853 . S
C1696 C183 0.843 . S
C1713 C216 0.853 . S
C1732 C84 0.844 . S
C1749 C117 0.852 . S
C1768 C249 0.861 . S
C1785 C414 0.854 . S
C1804 C282 0.859 . S
C1821 C315 0.854 . S
C1840 C447 0.860 . S
C1857 C348 0.851 . S
C1876 C480 0.844 . S
C1893 C513 0.854 . S
C1912 C381 0.860 . S
C1929 C678 0.855 . S
C1948 C546 0.847 . S
C1965 C711 0.855 . S
C1984 C579 0.846 . S
C2001 C744 0.851 . S
C2020 C612 0.851 . S
C2037 C777 0.854 . S
C2056 C645 0.844 . S
C2073 C942 0.854 . S
C2092 C810 0.857 . S
C2109 C843 0.854 . S
C2128 C975 0.860 . S
C2145 C1008 0.854 . S
C2164 C876 0.859 . S
C2181 C1041 0.853 . S
C2200 C909 0.857 . S
C2217 C601 0.736 . S
C2236 C7 0.709 . S
C2253 C40 0.722 . S
C2272 C634 0.728 . S
C2289 C73 0.738 . S
C2308 C535 0.693 . S
C2325 C106 0.738 . S
C2344 C568 0.695 . S
C2361 C733 0.738 . S
C2380 C139 0.667 . S
C2397 C766 0.715 . S
C2416 C172 0.786 . S
C2433 C205 0.718 . S
C2452 C667 0.783 . S
C2469 C238 0.725 . S
C2488 C700 0.763 . S
C2505 C271 0.728 . S
C2524 C865 0.764 . S
C2541 C304 0.740 . S
C2560 C898 0.780 . S
C2577 C799 0.719 . S
C2596 C337 0.719 . S
C2613 C370 0.738 . S
C2632 C832 0.786 . S
C2649 C403 0.739 . S
C2668 C997 0.770 . S
C2685 C1030 0.716 . S
C2704 C436 0.667 . S
C2721 C469 0.725 . S
C2740 C931 0.751 . S
C2757 C964 0.739 . S
C2776 C502 0.764 . S
C2793 N893 0.429 . S
C2812 C21 0.588 . S
C2829 C54 0.597 . S
C2848 N266 0.427 . S
C2865 C87 0.588 . S
C2884 N827 0.397 . S
C2901 N332 0.427 . S
C2920 C120 0.564 . S
C2937 N959 0.448 . S
C2956 C153 0.554 . S
C2973 C186 0.595 . S
C2992 N464 0.504 . S
C3009 N1025 0.427 . S
C3028 C219 0.544 . S
C3045 N398 0.439 . S
C3064 C252 0.665 . S
C3081 C285 0.577 . S
C3100 N629 0.488 . S
C3117 C318 0.599 . S
C3136 N2 0.424 . S
C3153 N563 0.453 . S
C3172 C351 0.608 . S
C3189 C384 0.596 . S
C3208 N68 0.414 . S
C3225 C417 0.571 . S
C3244 N695 0.473 . S
C3261 C450 0.565 . S
C3280 N200 0.446 . S
C3297 C483 0.564 . S
C3316 N761 0.433 . S
C3333 N134 0.427 . S
C3352 C516 0.546 . S
C3369 C549 0.604 . S
C3388 N365 0.486 . S
C3405 N794 0.441 . S
C3424 C582 0.507 . S
C3441 N299 0.444 . S
C3460 C615 0.527 . S
C3477 N860 0.451 . S
C3496 C648 0.583 . S
C3513 C681 0.595 . S
C3532 N431 0.419 . S
C3549 C714 0.565 . S
C3568 N992 0.433 . S
C3585 N497 0.428 . S
C3604 C747 0.503 . S
C3621 C780 0.597 . S
C3640 N926 0.426 . S
C3657 C813 0.570 . S
C3676 N101 0.469 . S
C3693 N530 0.428 . S
C3712 C846 0.593 . S
C3729 C879 0.572 . S
C3748 N35 0.476 . S
C3765 C912 0.597 . S
C3784 N596 0.417 . S
C3801 C945 0.602 . S
C3820 N167 0.439 . S
C3837 N728 0.428 . S
C3856 C978 0.521 . S
C3873 C1011 0.601 . S
C3892 N233 0.435 . S
C3909 C1044 0.599 . S
C3928 N662 0.428 . S
