# Generated by pormake.
# Topology qtz-a, (4)-cn, num edge types: 1
# Building blocks:
#     Node 0, Type 0, BuildingBlock: UXUYUI_clean_sbu_0, # of connection points: 4
#     Node 1, Type 0, BuildingBlock: UXUYUI_clean_sbu_0, # of connection points: 4
#     Node 2, Type 0, BuildingBlock: UXUYUI_clean_sbu_0, # of connection points: 4
#     Node 3, Type 0, BuildingBlock: UXUYUI_clean_sbu_0, # of connection points: 4
#     Node 4, Type 0, BuildingBlock: UXUYUI_clean_sbu_0, # of connection points: 4
#     Node 5, Type 0, BuildingBlock: UXUYUI_clean_sbu_0, # of connection points: 4
#     Node 6, Type 0, BuildingBlock: UXUYUI_clean_sbu_0, # of connection points: 4
#     Node 7, Type 0, BuildingBlock: UXUYUI_clean_sbu_0, # of connection points: 4
#     Node 8, Type 0, BuildingBlock: UXUYUI_clean_sbu_0, # of connection points: 4
#     Node 9, Type 0, BuildingBlock: UXUYUI_clean_sbu_0, # of connection points: 4
#     Node 10, Type 0, BuildingBlock: UXUYUI_clean_sbu_0, # of connection points: 4
#     Node 11, Type 0, BuildingBlock: UXUYUI_clean_sbu_0, # of connection points: 4
#     Edge 12, Type (0, 0), BuildingBlock: UVAHIK_clean_linker_0, # of connection points: 2
#     Edge 13, Type (0, 0), BuildingBlock: UVAHIK_clean_linker_0, # of connection points: 2
#     Edge 14, Type (0, 0), BuildingBlock: UVAHIK_clean_linker_0, # of connection points: 2
#     Edge 15, Type (0, 0), BuildingBlock: UVAHIK_clean_linker_0, # of connection points: 2
#     Edge 16, Type (0, 0), BuildingBlock: UVAHIK_clean_linker_0, # of connection points: 2
#     Edge 17, Type (0, 0), BuildingBlock: UVAHIK_clean_linker_0, # of connection points: 2
#     Edge 18, Type (0, 0), BuildingBlock: UVAHIK_clean_linker_0, # of connection points: 2
#     Edge 19, Type (0, 0), BuildingBlock: UVAHIK_clean_linker_0, # of connection points: 2
#     Edge 20, Type (0, 0), BuildingBlock: UVAHIK_clean_linker_0, # of connection points: 2
#     Edge 21, Type (0, 0), BuildingBlock: UVAHIK_clean_linker_0, # of connection points: 2
#     Edge 22, Type (0, 0), BuildingBlock: UVAHIK_clean_linker_0, # of connection points: 2
#     Edge 23, Type (0, 0), BuildingBlock: UVAHIK_clean_linker_0, # of connection points: 2
#     Edge 24, Type (0, 0), BuildingBlock: UVAHIK_clean_linker_0, # of connection points: 2
#     Edge 25, Type (0, 0), BuildingBlock: UVAHIK_clean_linker_0, # of connection points: 2
#     Edge 26, Type (0, 0), BuildingBlock: UVAHIK_clean_linker_0, # of connection points: 2
#     Edge 27, Type (0, 0), BuildingBlock: UVAHIK_clean_linker_0, # of connection points: 2
#     Edge 28, Type (0, 0), BuildingBlock: UVAHIK_clean_linker_0, # of connection points: 2
#     Edge 29, Type (0, 0), BuildingBlock: UVAHIK_clean_linker_0, # of connection points: 2
#     Edge 30, Type (0, 0), BuildingBlock: UVAHIK_clean_linker_0, # of connection points: 2
#     Edge 31, Type (0, 0), BuildingBlock: UVAHIK_clean_linker_0, # of connection points: 2
#     Edge 32, Type (0, 0), BuildingBlock: UVAHIK_clean_linker_0, # of connection points: 2
#     Edge 33, Type (0, 0), BuildingBlock: UVAHIK_clean_linker_0, # of connection points: 2
#     Edge 34, Type (0, 0), BuildingBlock: UVAHIK_clean_linker_0, # of connection points: 2
#     Edge 35, Type (0, 0), BuildingBlock: UVAHIK_clean_linker_0, # of connection points: 2
# Relax obj value: 0.910
# Max RMSD: 0.301
# Mean RMSD: 0.301
data_MOF--net-qtz-a--node1-UXUYUI_clean_sbu_0--edge1-UVAHIK_clean_linker_0
_symmetry_space_group_name_H-M    P1
_symmetry_Int_Tables_number       1
_symmetry_cell_setting            triclinic
loop_
_symmetry_equiv_pos_as_xyz
'x, y, z'
_cell_length_a     88.572855
_cell_length_b     88.567496
_cell_length_c     50.427065
_cell_angle_alpha  90.00858
_cell_angle_beta   90.000333
_cell_angle_gamma 120.0073
loop_
_atom_site_label
_atom_site_type_symbol
_atom_site_fract_x
_atom_site_fract_y
_atom_site_fract_z
_atom_type_partial_charge
Li0 Li 0.42209 0.05746 0.18467 0.0
Li1 Li 0.43772 0.08645 0.20491 0.0
Li2 Li 0.45423 0.07557 0.17739 0.0
Li3 Li 0.44353 0.06469 0.222 0.0
C4 C 0.43183 0.08309 0.14149 0.0
N5 N 0.4245 0.08881 0.09034 0.0
C6 C 0.42429 0.09347 0.13695 0.0
C7 C 0.43591 0.0759 0.11987 0.0
C8 C 0.42059 0.09612 0.11101 0.0
C9 C 0.43205 0.07887 0.09421 0.0
C10 C 0.4102 0.06787 0.23687 0.0
C11 C 0.40582 0.08214 0.27436 0.0
N12 N 0.38916 0.07632 0.26626 0.0
C13 C 0.39299 0.06188 0.22905 0.0
C14 C 0.41665 0.07794 0.25982 0.0
C15 C 0.38257 0.06635 0.24413 0.0
C16 C 0.39528 0.0242 0.16569 0.0
N17 N 0.40091 0.04153 0.16739 0.0
C18 C 0.3797 0.0389 0.13576 0.0
C19 C 0.39277 0.04873 0.15402 0.0
C20 C 0.37458 0.02127 0.13165 0.0
C21 C 0.38199 0.01374 0.14793 0.0
H22 H 0.40176 0.01871 0.17699 0.0
H23 H 0.39706 0.0624 0.15651 0.0
C24 C 0.45034 0.12195 0.21592 0.0
N25 N 0.43574 0.10645 0.21087 0.0
C26 C 0.44986 0.13745 0.21438 0.0
C27 C 0.41913 0.12056 0.20395 0.0
C28 C 0.42021 0.10544 0.2057 0.0
C29 C 0.43423 0.13685 0.20732 0.0
H30 H 0.46259 0.12237 0.21946 0.0
H31 H 0.40894 0.09302 0.20093 0.0
C32 C 0.44172 0.03863 0.17409 0.0
N33 N 0.44445 0.01414 0.14358 0.0
C34 C 0.44931 0.02937 0.18462 0.0
C35 C 0.43527 0.03518 0.14818 0.0
C36 C 0.45065 0.01713 0.16885 0.0
C37 C 0.43682 0.02282 0.13304 0.0
C38 C 0.47413 0.0944 0.22898 0.0
C39 C 0.4896 0.0948 0.22207 0.0
C40 C 0.47223 0.09951 0.25441 0.0
C41 C 0.50282 0.09997 0.24097 0.0
C42 C 0.48575 0.10459 0.27274 0.0
N43 N 0.50063 0.10469 0.26571 0.0
C44 C 0.4775 0.0966 0.13762 0.0
C45 C 0.48001 0.07198 0.14887 0.0
C46 C 0.48989 0.10116 0.11755 0.0
N47 N 0.47252 0.082 0.15233 0.0
C48 C 0.49243 0.07602 0.12901 0.0
C49 C 0.49734 0.09065 0.11274 0.0
H50 H 0.47154 0.10451 0.14112 0.0
H51 H 0.47621 0.06071 0.16126 0.0
C52 C 0.44125 0.05206 0.27561 0.0
N53 N 0.44994 0.05632 0.25208 0.0
C54 C 0.44714 0.04603 0.29669 0.0
C55 C 0.47076 0.04919 0.26881 0.0
C56 C 0.46438 0.05496 0.2484 0.0
C57 C 0.46214 0.04462 0.29338 0.0
H58 H 0.42975 0.05325 0.27795 0.0
H59 H 0.47092 0.05831 0.22942 0.0
O60 O 0.43552 0.08037 0.16689 0.0
O61 O 0.4206 0.06367 0.22229 0.0
O62 O 0.44046 0.05079 0.18926 0.0
O63 O 0.46094 0.08912 0.21088 0.0
H64 H 0.42119 0.09934 0.15325 0.0
H65 H 0.44232 0.06839 0.12271 0.0
H66 H 0.41464 0.10401 0.1073 0.0
H67 H 0.43516 0.07336 0.07736 0.0
H68 H 0.41067 0.09002 0.29209 0.0
H69 H 0.38776 0.05395 0.21144 0.0
H70 H 0.42987 0.0825 0.26629 0.0
H71 H 0.36925 0.0619 0.23823 0.0
H72 H 0.37456 0.04546 0.12384 0.0
H73 H 0.37814 0.0001 0.14616 0.0
H74 H 0.46183 0.14977 0.21684 0.0
H75 H 0.40682 0.11957 0.19862 0.0
H76 H 0.45412 0.03159 0.20475 0.0
H77 H 0.42884 0.04172 0.13996 0.0
H78 H 0.45658 0.00996 0.17672 0.0
H79 H 0.43187 0.02006 0.11296 0.0
H80 H 0.4913 0.09096 0.20243 0.0
H81 H 0.46043 0.09949 0.25994 0.0
H82 H 0.51482 0.10021 0.23597 0.0
H83 H 0.48442 0.10846 0.29255 0.0
H84 H 0.49353 0.11273 0.10585 0.0
H85 H 0.49773 0.06748 0.12599 0.0
H86 H 0.4401 0.04257 0.3153 0.0
H87 H 0.48211 0.04789 0.26512 0.0
Li88 Li 0.37763 0.44464 0.54995 0.0
Li89 Li 0.37609 0.45469 0.50569 0.0
Li90 Li 0.35041 0.44093 0.53511 0.0
Li91 Li 0.36162 0.4234 0.51442 0.0
C92 C 0.38164 0.47618 0.5571 0.0
N93 N 0.40189 0.50192 0.59315 0.0
C94 C 0.398 0.48985 0.54963 0.0
C95 C 0.37547 0.4757 0.58276 0.0
C96 C 0.40807 0.50272 0.56818 0.0
C97 C 0.38594 0.4888 0.60074 0.0
C98 C 0.39502 0.43172 0.50963 0.0
C99 C 0.40362 0.41754 0.47698 0.0
N100 N 0.4107 0.41247 0.49653 0.0
C101 C 0.40234 0.42631 0.52941 0.0
C102 C 0.39564 0.42728 0.4832 0.0
C103 C 0.41024 0.41663 0.52238 0.0
C104 C 0.38864 0.44563 0.6043 0.0
N105 N 0.39336 0.451 0.57883 0.0
C106 C 0.42283 0.46994 0.59181 0.0
C107 C 0.4101 0.46267 0.57229 0.0
C108 C 0.41837 0.46503 0.61838 0.0
C109 C 0.40111 0.45246 0.62459 0.0
H110 H 0.3752 0.43636 0.60892 0.0
H111 H 0.41343 0.46663 0.55184 0.0
C112 C 0.38374 0.48499 0.47627 0.0
N113 N 0.38794 0.47229 0.47962 0.0
C114 C 0.39178 0.4975 0.45636 0.0
C115 C 0.40842 0.48373 0.44405 0.0
C116 C 0.40016 0.4716 0.46426 0.0
C117 C 0.40425 0.49692 0.43979 0.0
H118 H 0.37404 0.48528 0.48895 0.0
H119 H 0.40339 0.46151 0.4675 0.0
C120 C 0.34034 0.41323 0.56709 0.0
N121 N 0.31057 0.39371 0.59678 0.0
C122 C 0.32853 0.39603 0.55988 0.0
C123 C 0.33714 0.42045 0.58954 0.0
C124 C 0.31352 0.38638 0.57512 0.0
C125 C 0.32197 0.41038 0.60424 0.0
C126 C 0.34965 0.44241 0.47337 0.0
C127 C 0.34088 0.45184 0.4721 0.0
C128 C 0.35664 0.43961 0.45027 0.0
C129 C 0.33935 0.45843 0.44771 0.0
C130 C 0.35486 0.44645 0.42627 0.0
N131 N 0.34633 0.45564 0.4255 0.0
C132 C 0.32919 0.45562 0.54613 0.0
C133 C 0.31432 0.42536 0.53656 0.0
C134 C 0.31367 0.45603 0.54383 0.0
N135 N 0.32924 0.44051 0.54177 0.0
C136 C 0.29851 0.42508 0.53476 0.0
C137 C 0.29814 0.4407 0.53713 0.0
H138 H 0.34137 0.46759 0.54937 0.0
H139 H 0.31484 0.41371 0.53209 0.0
C140 C 0.36126 0.39116 0.50156 0.0
N141 N 0.35417 0.40149 0.49741 0.0
C142 C 0.35724 0.37718 0.48446 0.0
C143 C 0.33734 0.38371 0.46117 0.0
C144 C 0.34178 0.39748 0.47857 0.0
C145 C 0.34559 0.37372 0.46328 0.0
H146 H 0.37067 0.39425 0.51725 0.0
H147 H 0.33587 0.40549 0.47617 0.0
O148 O 0.37181 0.4632 0.53947 0.0
O149 O 0.38733 0.44133 0.5161 0.0
O150 O 0.35507 0.42287 0.55238 0.0
O151 O 0.35172 0.43625 0.49717 0.0
H152 H 0.40297 0.49038 0.52984 0.0
H153 H 0.3628 0.46525 0.58878 0.0
H154 H 0.42082 0.51331 0.56276 0.0
H155 H 0.3814 0.48853 0.62074 0.0
H156 H 0.40408 0.41393 0.45664 0.0
H157 H 0.40184 0.42944 0.55 0.0
H158 H 0.38973 0.43102 0.46767 0.0
H159 H 0.41595 0.41235 0.53748 0.0
H160 H 0.43607 0.47936 0.58618 0.0
H161 H 0.39726 0.44835 0.64489 0.0
H162 H 0.38832 0.50755 0.4541 0.0
H163 H 0.41774 0.48256 0.4316 0.0
H164 H 0.33088 0.39023 0.54262 0.0
H165 H 0.34619 0.43372 0.59541 0.0
H166 H 0.30421 0.37308 0.56972 0.0
H167 H 0.31925 0.41583 0.62157 0.0
H168 H 0.33545 0.45419 0.48977 0.0
H169 H 0.36355 0.43243 0.45094 0.0
H170 H 0.33266 0.46581 0.44645 0.0
H171 H 0.36032 0.4445 0.40827 0.0
H172 H 0.31412 0.46844 0.54548 0.0
H173 H 0.28686 0.41287 0.53014 0.0
H174 H 0.36366 0.36961 0.48716 0.0
H175 H 0.32838 0.38171 0.44517 0.0
Li176 Li 0.91065 0.3698 0.84865 0.0
Li177 Li 0.92331 0.37264 0.89288 0.0
Li178 Li 0.92947 0.35709 0.85746 0.0
Li179 Li 0.90099 0.34471 0.87934 0.0
C180 C 0.9516 0.39183 0.84815 0.0
N181 N 0.9847 0.4113 0.82716 0.0
C182 C 0.96595 0.40079 0.86494 0.0
C183 C 0.95406 0.39285 0.82069 0.0
C184 C 0.98259 0.41057 0.85394 0.0
C185 C 0.97091 0.40271 0.81046 0.0
C186 C 0.89545 0.37537 0.90063 0.0
C187 C 0.88837 0.38054 0.94463 0.0
N188 N 0.89051 0.39612 0.93641 0.0
C189 C 0.89743 0.39135 0.89253 0.0
C190 C 0.89075 0.36983 0.92681 0.0
C191 C 0.89493 0.40168 0.91095 0.0
C192 C 0.88883 0.37262 0.80942 0.0
N193 N 0.90444 0.38106 0.82217 0.0
C194 C 0.91364 0.4062 0.79487 0.0
C195 C 0.91657 0.39771 0.81582 0.0
C196 C 0.89809 0.39743 0.78031 0.0
C197 C 0.88546 0.38052 0.78802 0.0
H198 H 0.87914 0.35962 0.81545 0.0
H199 H 0.92868 0.40429 0.82671 0.0
C200 C 0.93394 0.38593 0.94636 0.0
N201 N 0.93301 0.38947 0.92035 0.0
C202 C 0.94039 0.39943 0.96511 0.0
C203 C 0.94485 0.41967 0.92971 0.0
C204 C 0.93838 0.40591 0.91183 0.0
C205 C 0.94575 0.41655 0.9568 0.0
H206 H 0.92944 0.37267 0.95258 0.0
H207 H 0.93742 0.40829 0.89103 0.0
C208 C 0.89803 0.34091 0.81726 0.0
N209 N 0.88114 0.33114 0.7689 0.0
C210 C 0.88023 0.32866 0.81612 0.0
C211 C 0.90725 0.3481 0.79378 0.0
C212 C 0.87193 0.3239 0.79148 0.0
C213 C 0.89847 0.34303 0.76954 0.0
C214 C 0.91987 0.33625 0.91024 0.0
C215 C 0.9254 0.32469 0.90221 0.0
C216 C 0.90978 0.33276 0.93314 0.0
C217 C 0.92049 0.30963 0.91711 0.0
C218 C 0.90513 0.31755 0.94747 0.0
N219 N 0.91053 0.3064 0.93922 0.0
C220 C 0.96278 0.36149 0.84143 0.0
C221 C 0.93755 0.33902 0.8207 0.0
C222 C 0.97342 0.36009 0.82224 0.0
N223 N 0.94514 0.35175 0.83928 0.0
C224 C 0.9476 0.33724 0.80107 0.0
C225 C 0.96575 0.34849 0.80083 0.0
H226 H 0.96857 0.37111 0.85697 0.0
H227 H 0.92353 0.331 0.81997 0.0
C228 C 0.86591 0.32238 0.89376 0.0
N229 N 0.8811 0.32303 0.88712 0.0
C230 C 0.85023 0.30655 0.89263 0.0
C231 C 0.86635 0.29234 0.87961 0.0
C232 C 0.88165 0.30844 0.88054 0.0
C233 C 0.85034 0.2914 0.88475 0.0
H234 H 0.86583 0.33429 0.89809 0.0
H235 H 0.89377 0.30949 0.8741 0.0
O236 O 0.93522 0.3821 0.85856 0.0
O237 O 0.89836 0.36532 0.88312 0.0
O238 O 0.90639 0.34584 0.84121 0.0
O239 O 0.92447 0.35099 0.89584 0.0
H240 H 0.96431 0.40004 0.88625 0.0
H241 H 0.9431 0.38604 0.80742 0.0
H242 H 0.99382 0.41751 0.86669 0.0
H243 H 0.97301 0.40353 0.78926 0.0
H244 H 0.88487 0.37649 0.96501 0.0
H245 H 0.90109 0.39582 0.87234 0.0
H246 H 0.88915 0.35747 0.93334 0.0
H247 H 0.89655 0.41415 0.90504 0.0
H248 H 0.9237 0.41925 0.78952 0.0
H249 H 0.87319 0.37346 0.77751 0.0
H250 H 0.94088 0.39649 0.98583 0.0
H251 H 0.94921 0.43269 0.92228 0.0
H252 H 0.87284 0.32299 0.83404 0.0
H253 H 0.92103 0.35755 0.79428 0.0
H254 H 0.85815 0.31449 0.79032 0.0
H255 H 0.90544 0.34855 0.75124 0.0
H256 H 0.93328 0.32726 0.88457 0.0
H257 H 0.90546 0.34163 0.93963 0.0
H258 H 0.92458 0.3005 0.91108 0.0
H259 H 0.89723 0.31462 0.96514 0.0
H260 H 0.98739 0.36866 0.82338 0.0
H261 H 0.94096 0.32807 0.78515 0.0
H262 H 0.83808 0.30629 0.89657 0.0
H263 H 0.86691 0.28101 0.87288 0.0
Li264 Li 0.53606 0.91717 0.18389 0.0
Li265 Li 0.54777 0.92703 0.22916 0.0
Li266 Li 0.5676 0.93279 0.19157 0.0
Li267 Li 0.54937 0.90331 0.20987 0.0
C268 C 0.54373 0.95054 0.1872 0.0
N269 N 0.52778 0.96807 0.167 0.0
C270 C 0.53418 0.95527 0.20389 0.0
C271 C 0.54524 0.9548 0.16026 0.0
C272 C 0.52621 0.96413 0.19329 0.0
C273 C 0.53705 0.96363 0.15042 0.0
C274 C 0.51641 0.88794 0.22588 0.0
C275 C 0.50676 0.86484 0.25813 0.0
N276 N 0.49365 0.8541 0.24152 0.0
C277 C 0.50276 0.87674 0.2092 0.0
C278 C 0.51837 0.88203 0.25062 0.0
C279 C 0.49141 0.85965 0.21745 0.0
C280 C 0.51906 0.90423 0.13576 0.0
N281 N 0.51863 0.91279 0.15785 0.0
C282 C 0.49595 0.91661 0.13912 0.0
C283 C 0.50691 0.91837 0.16033 0.0
C284 C 0.49702 0.90888 0.11538 0.0
C285 C 0.50842 0.90221 0.11417 0.0
H286 H 0.52793 0.89923 0.13464 0.0
H287 H 0.50646 0.92471 0.17839 0.0
C288 C 0.55641 0.95201 0.27048 0.0
N289 N 0.54393 0.93641 0.2607 0.0
C290 C 0.55255 0.95991 0.29132 0.0
C291 C 0.52307 0.93556 0.29154 0.0
C292 C 0.52762 0.92796 0.27114 0.0
C293 C 0.53548 0.952 0.30154 0.0
H294 H 0.56915 0.9587 0.26137 0.0
H295 H 0.51783 0.91575 0.26261 0.0
C296 C 0.56253 0.91066 0.15116 0.0
N297 N 0.58266 0.91168 0.10858 0.0
C298 C 0.57073 0.90067 0.15144 0.0
C299 C 0.56449 0.9211 0.12915 0.0
C300 C 0.58086 0.90137 0.12972 0.0
C301 C 0.57476 0.92147 0.10785 0.0
C302 C 0.57763 0.93114 0.24987 0.0
C303 C 0.59283 0.94743 0.24913 0.0
C304 C 0.57165 0.92242 0.27403 0.0
C305 C 0.60169 0.95487 0.27276 0.0
C306 C 0.58087 0.93032 0.29722 0.0
N307 N 0.59556 0.94625 0.29611 0.0
C308 C 0.5906 0.96276 0.16322 0.0
C309 C 0.60039 0.94246 0.16846 0.0
C310 C 0.603 0.97154 0.14355 0.0
N311 N 0.58895 0.948 0.17415 0.0
C312 C 0.61291 0.95074 0.14864 0.0
C313 C 0.61374 0.965 0.13507 0.0
H314 H 0.58145 0.96698 0.16834 0.0
H315 H 0.59882 0.93072 0.17764 0.0
C316 C 0.53712 0.86832 0.19909 0.0
N317 N 0.54874 0.88188 0.21418 0.0
C318 C 0.53793 0.85304 0.1977 0.0
C319 C 0.5627 0.86599 0.22742 0.0
C320 C 0.56122 0.88095 0.2286 0.0
C321 C 0.55113 0.85196 0.21142 0.0
H322 H 0.52785 0.86974 0.18697 0.0
H323 H 0.57055 0.89215 0.23988 0.0
O324 O 0.55161 0.94184 0.19719 0.0
O325 O 0.52773 0.90465 0.21807 0.0
O326 O 0.55273 0.91033 0.17239 0.0
O327 O 0.5688 0.92365 0.22697 0.0
H328 H 0.53287 0.95212 0.22477 0.0
H329 H 0.55248 0.95115 0.14702 0.0
H330 H 0.51875 0.96784 0.20596 0.0
H331 H 0.53802 0.96691 0.12959 0.0
H332 H 0.50818 0.86005 0.27715 0.0
H333 H 0.50104 0.88115 0.19002 0.0
H334 H 0.52882 0.89059 0.26379 0.0
H335 H 0.48085 0.85079 0.2047 0.0
H336 H 0.48726 0.92185 0.1409 0.0
H337 H 0.50929 0.89571 0.09651 0.0
H338 H 0.56268 0.97242 0.29854 0.0
H339 H 0.50965 0.92904 0.29816 0.0
H340 H 0.56944 0.89258 0.16832 0.0
H341 H 0.55828 0.92895 0.12864 0.0
H342 H 0.58734 0.89376 0.12972 0.0
H343 H 0.5765 0.92959 0.0908 0.0
H344 H 0.59765 0.95429 0.23053 0.0
H345 H 0.55998 0.90974 0.27486 0.0
H346 H 0.61342 0.96752 0.27253 0.0
H347 H 0.57634 0.92378 0.3161 0.0
H348 H 0.6031 0.98241 0.13357 0.0
H349 H 0.62109 0.94542 0.14288 0.0
H350 H 0.52903 0.84264 0.1847 0.0
H351 H 0.5731 0.8656 0.23815 0.0
Li352 Li 0.63366 0.57246 0.52662 0.0
Li353 Li 0.6485 0.5576 0.54526 0.0
Li354 Li 0.62162 0.54106 0.51979 0.0
Li355 Li 0.62154 0.55234 0.56427 0.0
C356 C 0.64967 0.55839 0.48385 0.0
N357 N 0.6609 0.554 0.4348 0.0
C358 C 0.66124 0.55201 0.48201 0.0
C359 C 0.64401 0.56274 0.46071 0.0
C360 C 0.66671 0.54983 0.45704 0.0
C361 C 0.64978 0.56036 0.43611 0.0
C362 C 0.65135 0.57869 0.58751 0.0
C363 C 0.6586 0.56919 0.62794 0.0
N364 N 0.66635 0.58581 0.63732 0.0
C365 C 0.65938 0.59566 0.59753 0.0
C366 C 0.65094 0.56532 0.60281 0.0
C367 C 0.6669 0.599 0.62276 0.0
C368 C 0.62525 0.59782 0.50693 0.0
N369 N 0.63743 0.59279 0.50822 0.0
C370 C 0.65326 0.61154 0.47221 0.0
C371 C 0.65178 0.60015 0.49242 0.0
C372 C 0.63985 0.6154 0.46836 0.0
C373 C 0.62616 0.60913 0.48688 0.0
H374 H 0.61416 0.59209 0.52014 0.0
H375 H 0.66136 0.59603 0.49409 0.0
C376 C 0.67322 0.5475 0.55846 0.0
N377 N 0.67091 0.56074 0.54993 0.0
C378 C 0.68962 0.54895 0.55658 0.0
C379 C 0.70092 0.57789 0.53829 0.0
C380 C 0.68436 0.57592 0.54067 0.0
C381 C 0.70357 0.56409 0.54557 0.0
H382 H 0.66217 0.5355 0.56534 0.0
H383 H 0.68196 0.5861 0.53374 0.0
C384 C 0.59742 0.55571 0.51826 0.0
N385 N 0.57374 0.56128 0.49054 0.0
C386 C 0.58452 0.55728 0.53182 0.0
C387 C 0.5982 0.55685 0.49061 0.0
C388 C 0.57267 0.56012 0.51745 0.0
C389 C 0.58614 0.55971 0.47695 0.0
C390 C 0.61528 0.51783 0.56038 0.0
C391 C 0.59778 0.51274 0.55594 0.0
C392 C 0.61954 0.50587 0.57104 0.0
C393 C 0.58484 0.49579 0.56236 0.0
C394 C 0.60622 0.48904 0.57722 0.0
N395 N 0.58929 0.48439 0.57278 0.0
C396 C 0.61897 0.51638 0.48164 0.0
C397 C 0.59267 0.51669 0.48852 0.0
C398 C 0.61154 0.50472 0.46058 0.0
N399 N 0.60974 0.5227 0.49437 0.0
C400 C 0.58462 0.5048 0.46787 0.0
C401 C 0.59427 0.49908 0.45315 0.0
H402 H 0.63221 0.52065 0.48751 0.0
H403 H 0.58536 0.52136 0.49949 0.0
C404 C 0.60437 0.56152 0.60133 0.0
N405 N 0.60843 0.54895 0.59598 0.0
C406 C 0.59258 0.55912 0.62149 0.0
C407 C 0.59007 0.53127 0.63121 0.0
C408 C 0.60232 0.53447 0.6114 0.0
C409 C 0.58447 0.54338 0.63585 0.0
H410 H 0.60976 0.57312 0.58914 0.0
H411 H 0.60627 0.52495 0.60766 0.0
O412 O 0.64425 0.56072 0.50819 0.0
O413 O 0.6439 0.57526 0.56286 0.0
O414 O 0.6093 0.55324 0.5321 0.0
O415 O 0.62827 0.53426 0.5539 0.0
H416 H 0.66574 0.5485 0.49961 0.0
H417 H 0.63535 0.56801 0.46165 0.0
H418 H 0.67555 0.54478 0.45535 0.0
H419 H 0.64545 0.56364 0.41807 0.0
H420 H 0.65838 0.55898 0.64 0.0
H421 H 0.65978 0.60614 0.58592 0.0
H422 H 0.64478 0.5521 0.59546 0.0
H423 H 0.67316 0.61209 0.63077 0.0
H424 H 0.66401 0.61599 0.45837 0.0
H425 H 0.61571 0.61205 0.48488 0.0
H426 H 0.6911 0.53795 0.56214 0.0
H427 H 0.71139 0.58982 0.52994 0.0
H428 H 0.58368 0.55637 0.55322 0.0
H429 H 0.60799 0.55549 0.47984 0.0
H430 H 0.56264 0.56141 0.52769 0.0
H431 H 0.58665 0.56068 0.45555 0.0
H432 H 0.59415 0.52177 0.54792 0.0
H433 H 0.633 0.50955 0.57451 0.0
H434 H 0.57126 0.49171 0.5591 0.0
H435 H 0.60934 0.47966 0.58551 0.0
H436 H 0.61927 0.50028 0.45004 0.0
H437 H 0.57122 0.50066 0.46282 0.0
H438 H 0.58932 0.56922 0.62489 0.0
H439 H 0.58437 0.51892 0.64154 0.0
Li440 Li 0.05943 0.63354 0.85638 0.0
Li441 Li 0.08901 0.64926 0.87472 0.0
Li442 Li 0.07866 0.62127 0.85077 0.0
Li443 Li 0.06792 0.622 0.89483 0.0
C444 C 0.08249 0.64951 0.81252 0.0
N445 N 0.08338 0.66167 0.76171 0.0
C446 C 0.0916 0.66742 0.80731 0.0
C447 C 0.07407 0.6378 0.79176 0.0
C448 C 0.09182 0.6733 0.78153 0.0
C449 C 0.07461 0.64419 0.76625 0.0
C450 C 0.07052 0.65178 0.91711 0.0
C451 C 0.08793 0.66066 0.95695 0.0
N452 N 0.07792 0.66703 0.96676 0.0
C453 C 0.06041 0.65842 0.92757 0.0
C454 C 0.08441 0.65291 0.93189 0.0
C455 C 0.06436 0.66608 0.95271 0.0
C456 C 0.02577 0.62277 0.83536 0.0
N457 N 0.0422 0.63646 0.83831 0.0
C458 C 0.03671 0.65314 0.80656 0.0
C459 C 0.04745 0.65179 0.82551 0.0
C460 C 0.02022 0.63865 0.80118 0.0
C461 C 0.01447 0.62361 0.81687 0.0
H462 H 0.02176 0.61085 0.84629 0.0
H463 H 0.06041 0.66265 0.82881 0.0
C464 C 0.12446 0.67403 0.87937 0.0
N465 N 0.10818 0.67186 0.87852 0.0
C466 C 0.13899 0.69068 0.87729 0.0
C467 C 0.11963 0.7025 0.87418 0.0
C468 C 0.10547 0.68564 0.87673 0.0
C469 C 0.1366 0.70507 0.8738 0.0
H470 H 0.12613 0.66276 0.88025 0.0
H471 H 0.09231 0.6834 0.87573 0.0
C472 C 0.04351 0.5935 0.85184 0.0
N473 N 0.02243 0.56133 0.82869 0.0
C474 C 0.03788 0.57821 0.86655 0.0
C475 C 0.03818 0.59239 0.82548 0.0
C476 C 0.0273 0.56208 0.85445 0.0
C477 C 0.02759 0.57602 0.8141 0.0
C478 C 0.09765 0.61776 0.89199 0.0
C479 C 0.08612 0.59985 0.88991 0.0
C480 C 0.11442 0.62375 0.90202 0.0
C481 C 0.09153 0.58819 0.89784 0.0
C482 C 0.11936 0.61169 0.90975 0.0
N483 N 0.10791 0.5943 0.90751 0.0
C484 C 0.09891 0.62077 0.80905 0.0
C485 C 0.07779 0.59232 0.82279 0.0
C486 C 0.10369 0.61404 0.78771 0.0
N487 N 0.08578 0.60994 0.82554 0.0
C488 C 0.08231 0.585 0.80188 0.0
C489 C 0.0951 0.59595 0.78363 0.0
H490 H 0.1053 0.63472 0.81196 0.0
H491 H 0.06762 0.58389 0.83634 0.0
C492 C 0.04196 0.60004 0.93027 0.0
N493 N 0.05953 0.60921 0.92697 0.0
C494 C 0.03465 0.58787 0.95074 0.0
C495 C 0.06372 0.59558 0.96492 0.0
C496 C 0.07047 0.60784 0.9445 0.0
C497 C 0.0456 0.58507 0.96765 0.0
H498 H 0.0336 0.60144 0.91604 0.0
H499 H 0.08441 0.61559 0.94186 0.0
O500 O 0.08203 0.64354 0.83774 0.0
O501 O 0.06673 0.6442 0.89255 0.0
O502 O 0.05398 0.60942 0.86337 0.0
O503 O 0.09262 0.62942 0.88441 0.0
H504 H 0.09833 0.67669 0.82302 0.0
H505 H 0.06738 0.62392 0.79521 0.0
H506 H 0.09872 0.68713 0.77729 0.0
H507 H 0.06811 0.63525 0.75005 0.0
H508 H 0.09863 0.66161 0.9686 0.0
H509 H 0.04962 0.65764 0.91636 0.0
H510 H 0.09242 0.64789 0.92417 0.0
H511 H 0.05664 0.67127 0.96105 0.0
H512 H 0.0418 0.66502 0.79508 0.0
H513 H 0.00168 0.61229 0.81404 0.0
H514 H 0.15189 0.69216 0.87672 0.0
H515 H 0.11733 0.71333 0.87153 0.0
H516 H 0.04171 0.57875 0.88705 0.0
H517 H 0.04204 0.60402 0.81396 0.0
H518 H 0.02295 0.55016 0.86556 0.0
H519 H 0.02343 0.575 0.79369 0.0
H520 H 0.07311 0.59501 0.88244 0.0
H521 H 0.1235 0.63758 0.90394 0.0
H522 H 0.0827 0.57429 0.89635 0.0
H523 H 0.13229 0.61615 0.91756 0.0
H524 H 0.1138 0.62289 0.77427 0.0
H525 H 0.07536 0.57098 0.79936 0.0
H526 H 0.0206 0.57984 0.95209 0.0
H527 H 0.07252 0.59375 0.97768 0.0
Li528 Li 0.90505 0.55116 0.46164 0.0
Li529 Li 0.93545 0.56989 0.47947 0.0
Li530 Li 0.93047 0.55114 0.44105 0.0
Li531 Li 0.92103 0.53856 0.48367 0.0
C532 C 0.92958 0.57822 0.42 0.0
N533 N 0.93806 0.5917 0.36934 0.0
C534 C 0.94524 0.59366 0.41535 0.0
C535 C 0.91817 0.56968 0.39899 0.0
C536 C 0.9493 0.60025 0.38956 0.0
C537 C 0.92271 0.57669 0.37349 0.0
C538 C 0.91343 0.56207 0.5212 0.0
C539 C 0.92382 0.57129 0.56579 0.0
N540 N 0.91413 0.57928 0.56729 0.0
C541 C 0.90352 0.5703 0.52322 0.0
C542 C 0.92359 0.56246 0.5427 0.0
C543 C 0.90406 0.57895 0.54669 0.0
C544 C 0.87081 0.53771 0.4761 0.0
N545 N 0.88328 0.5499 0.46013 0.0
C546 C 0.86576 0.56291 0.45181 0.0
C547 C 0.88102 0.56224 0.44768 0.0
C548 C 0.85287 0.55082 0.46902 0.0
C549 C 0.85534 0.53777 0.48055 0.0
H550 H 0.87332 0.52855 0.48658 0.0
H551 H 0.89144 0.57211 0.43578 0.0
C552 C 0.96383 0.59302 0.51105 0.0
N553 N 0.94942 0.59097 0.49832 0.0
C554 C 0.97112 0.605 0.53172 0.0
C555 C 0.94966 0.61377 0.52393 0.0
C556 C 0.94282 0.60162 0.50333 0.0
C557 C 0.96347 0.61495 0.53927 0.0
H558 H 0.96887 0.58445 0.50653 0.0
H559 H 0.9313 0.59965 0.49287 0.0
C560 C 0.90083 0.51337 0.45119 0.0
N561 N 0.88799 0.47789 0.45557 0.0
C562 C 0.91173 0.50644 0.44662 0.0
C563 C 0.88335 0.50221 0.45773 0.0
C564 C 0.90501 0.48849 0.44897 0.0
C565 C 0.87712 0.48433 0.45994 0.0
C566 C 0.95504 0.54759 0.4808 0.0
C567 C 0.96058 0.53931 0.46287 0.0
C568 C 0.95955 0.54859 0.50758 0.0
C569 C 0.97042 0.53203 0.47209 0.0
C570 C 0.9694 0.54114 0.51602 0.0
N571 N 0.97457 0.53308 0.49825 0.0
C572 C 0.95688 0.56242 0.40231 0.0
C573 C 0.93184 0.53515 0.39322 0.0
C574 C 0.96576 0.56025 0.38113 0.0
N575 N 0.94043 0.5497 0.40838 0.0
C576 C 0.94042 0.53216 0.37243 0.0
C577 C 0.95791 0.54451 0.3667 0.0
H578 H 0.96342 0.57387 0.41474 0.0
H579 H 0.91866 0.52535 0.39825 0.0
C580 C 0.90412 0.51776 0.52711 0.0
N581 N 0.91627 0.52019 0.50855 0.0
C582 C 0.90023 0.50586 0.54764 0.0
C583 C 0.92048 0.4981 0.52871 0.0
C584 C 0.9241 0.51031 0.50858 0.0
C585 C 0.9087 0.49608 0.5489 0.0
H586 H 0.89754 0.52523 0.5262 0.0
H587 H 0.93331 0.51198 0.49324 0.0
O588 O 0.92553 0.57139 0.44499 0.0
O589 O 0.91336 0.55383 0.49819 0.0
O590 O 0.90727 0.53097 0.44931 0.0
O591 O 0.9456 0.555 0.47206 0.0
H592 H 0.9542 0.60038 0.43147 0.0
H593 H 0.90602 0.55768 0.40234 0.0
H594 H 0.96141 0.61215 0.38561 0.0
H595 H 0.91405 0.57019 0.35699 0.0
H596 H 0.93173 0.57182 0.5825 0.0
H597 H 0.89565 0.57021 0.50675 0.0
H598 H 0.93129 0.55611 0.54148 0.0
H599 H 0.89653 0.58546 0.54848 0.0
H600 H 0.86453 0.57334 0.44283 0.0
H601 H 0.84569 0.52807 0.49368 0.0
H602 H 0.98168 0.60535 0.54303 0.0
H603 H 0.94353 0.62135 0.52885 0.0
H604 H 0.92531 0.51487 0.44169 0.0
H605 H 0.87464 0.50726 0.46095 0.0
H606 H 0.91335 0.48299 0.44569 0.0
H607 H 0.86362 0.47556 0.46508 0.0
H608 H 0.95733 0.53846 0.44207 0.0
H609 H 0.95533 0.55486 0.52177 0.0
H610 H 0.97474 0.52555 0.45845 0.0
H611 H 0.97288 0.54173 0.53671 0.0
H612 H 0.97897 0.57048 0.37706 0.0
H613 H 0.93368 0.51975 0.36227 0.0
H614 H 0.89075 0.50439 0.56249 0.0
H615 H 0.92722 0.49072 0.52893 0.0
Li616 Li 0.37263 0.93225 0.77208 0.0
Li617 Li 0.37573 0.92155 0.81332 0.0
Li618 Li 0.34789 0.90541 0.7906 0.0
Li619 Li 0.35766 0.93534 0.81151 0.0
C620 C 0.38187 0.90276 0.78043 0.0
N621 N 0.40449 0.89003 0.78649 0.0
C622 C 0.39988 0.9141 0.77962 0.0
C623 C 0.37536 0.8849 0.7839 0.0
C624 C 0.41111 0.90743 0.78285 0.0
C625 C 0.38701 0.87873 0.78703 0.0
C626 C 0.39876 0.95947 0.81075 0.0
C627 C 0.41782 0.98263 0.84037 0.0
N628 N 0.43138 0.98688 0.82358 0.0
C629 C 0.41288 0.96416 0.7937 0.0
C630 C 0.40123 0.96886 0.8342 0.0
C631 C 0.42927 0.97802 0.80057 0.0
C632 C 0.38822 0.96034 0.7357 0.0
N633 N 0.38462 0.94379 0.7406 0.0
C634 C 0.40351 0.94543 0.7056 0.0
C635 C 0.39143 0.93601 0.7254 0.0
C636 C 0.40844 0.96299 0.7011 0.0
C637 C 0.39991 0.97012 0.71564 0.0
H638 H 0.38277 0.96628 0.74833 0.0
H639 H 0.38836 0.92282 0.72977 0.0
C640 C 0.38263 0.90163 0.84953 0.0
N641 N 0.39019 0.91757 0.83769 0.0
C642 C 0.39105 0.89837 0.87027 0.0
C643 C 0.41555 0.92746 0.8648 0.0
C644 C 0.40657 0.93022 0.8444 0.0
C645 C 0.40758 0.91153 0.8785 0.0
H646 H 0.36975 0.89162 0.84346 0.0
H647 H 0.41262 0.94263 0.83448 0.0
C648 C 0.34509 0.93273 0.75268 0.0
N649 N 0.34137 0.94626 0.70541 0.0
C650 C 0.34521 0.94857 0.75242 0.0
C651 C 0.34296 0.9237 0.72899 0.0
C652 C 0.34333 0.9552 0.72829 0.0
C653 C 0.34114 0.93078 0.70527 0.0
C654 C 0.35167 0.91044 0.85472 0.0
C655 C 0.34034 0.89413 0.86574 0.0
C656 C 0.36265 0.92429 0.87126 0.0
C657 C 0.34027 0.89192 0.89318 0.0
C658 C 0.3622 0.92157 0.8986 0.0
N659 N 0.35111 0.90557 0.9089 0.0
C660 C 0.32586 0.86954 0.79861 0.0
C661 C 0.31354 0.8836 0.77406 0.0
C662 C 0.30969 0.8543 0.80007 0.0
N663 N 0.32739 0.88381 0.78604 0.0
C664 C 0.29708 0.86871 0.77535 0.0
C665 C 0.29499 0.85399 0.78902 0.0
H666 H 0.33693 0.87035 0.80893 0.0
H667 H 0.31509 0.8953 0.76481 0.0
C668 C 0.35845 0.96549 0.83335 0.0
N669 N 0.34954 0.94781 0.8318 0.0
C670 C 0.35434 0.97391 0.85314 0.0
C671 C 0.33139 0.94579 0.86814 0.0
C672 C 0.33573 0.938 0.84783 0.0
C673 C 0.34115 0.96397 0.87171 0.0
H674 H 0.36934 0.97297 0.8202 0.0
H675 H 0.32882 0.92395 0.84601 0.0
O676 O 0.37068 0.90913 0.77786 0.0
O677 O 0.38255 0.94602 0.80433 0.0
O678 O 0.3472 0.92618 0.77602 0.0
O679 O 0.35215 0.91277 0.82784 0.0
H680 H 0.40515 0.92794 0.77688 0.0
H681 H 0.36149 0.8759 0.7841 0.0
H682 H 0.42507 0.91609 0.78252 0.0
H683 H 0.38214 0.86494 0.78985 0.0
H684 H 0.41992 0.98994 0.85851 0.0
H685 H 0.41129 0.95719 0.77541 0.0
H686 H 0.39047 0.96557 0.84756 0.0
H687 H 0.4403 0.98174 0.78759 0.0
H688 H 0.40977 0.93929 0.69536 0.0
H689 H 0.40289 0.98343 0.71257 0.0
H690 H 0.38458 0.88579 0.88003 0.0
H691 H 0.4283 0.93796 0.87053 0.0
H692 H 0.34687 0.9557 0.77065 0.0
H693 H 0.34289 0.91144 0.72893 0.0
H694 H 0.34347 0.96748 0.72774 0.0
H695 H 0.33958 0.924 0.68674 0.0
H696 H 0.33173 0.88327 0.85322 0.0
H697 H 0.37152 0.93695 0.86302 0.0
H698 H 0.3316 0.87936 0.90198 0.0
H699 H 0.37068 0.93216 0.91161 0.0
H700 H 0.30848 0.84329 0.81122 0.0
H701 H 0.286 0.86892 0.76667 0.0
H702 H 0.36195 0.98798 0.85457 0.0
H703 H 0.32128 0.93744 0.88192 0.0
Li704 Li 0.46066 0.37666 0.15446 0.0
Li705 Li 0.44687 0.37529 0.11308 0.0
Li706 Li 0.42843 0.36026 0.1509 0.0
Li707 Li 0.44641 0.34939 0.1275 0.0
C708 C 0.44611 0.39809 0.16385 0.0
N709 N 0.44986 0.42357 0.19926 0.0
C710 C 0.45296 0.41533 0.15538 0.0
C711 C 0.44105 0.39381 0.19029 0.0
C712 C 0.4548 0.42803 0.17359 0.0
C713 C 0.44307 0.40687 0.20789 0.0
C714 C 0.48282 0.38624 0.11135 0.0
C715 C 0.51187 0.39869 0.09342 0.0
N716 N 0.51401 0.41492 0.09636 0.0
C717 C 0.48532 0.40304 0.11423 0.0
C718 C 0.49619 0.38403 0.10088 0.0
C719 C 0.50116 0.41736 0.10651 0.0
C720 C 0.48435 0.3801 0.19414 0.0
N721 N 0.47932 0.38947 0.17888 0.0
C722 C 0.49886 0.41563 0.20205 0.0
C723 C 0.48666 0.40701 0.18197 0.0
C724 C 0.50343 0.40606 0.21915 0.0
C725 C 0.49628 0.38813 0.21472 0.0
H726 H 0.47868 0.36625 0.19084 0.0
H727 H 0.48281 0.41431 0.16929 0.0
C728 C 0.44176 0.39956 0.08528 0.0
N729 N 0.44882 0.38911 0.083 0.0
C730 C 0.44628 0.41311 0.06734 0.0
C731 C 0.464 0.40387 0.04361 0.0
C732 C 0.45909 0.39043 0.06205 0.0
C733 C 0.45823 0.41591 0.04699 0.0
H734 H 0.43353 0.39808 0.10207 0.0
H735 H 0.4645 0.38188 0.06077 0.0
C736 C 0.4412 0.34388 0.18913 0.0
N737 N 0.43435 0.32564 0.23626 0.0
C738 C 0.43522 0.32598 0.18892 0.0
C739 C 0.44381 0.35251 0.21338 0.0
C740 C 0.4318 0.31699 0.21293 0.0
C741 C 0.44025 0.34307 0.23697 0.0
C742 C 0.41867 0.3517 0.09108 0.0
C743 C 0.4065 0.35735 0.09096 0.0
C744 C 0.42366 0.34744 0.06723 0.0
C745 C 0.39958 0.35877 0.06681 0.0
C746 C 0.41644 0.34904 0.04349 0.0
N747 N 0.40466 0.35463 0.04377 0.0
C748 C 0.4009 0.36386 0.17325 0.0
C749 C 0.40096 0.33795 0.18452 0.0
C750 C 0.38801 0.3603 0.19217 0.0
N751 N 0.40762 0.3531 0.17069 0.0
C752 C 0.38839 0.33406 0.20401 0.0
C753 C 0.38218 0.34565 0.20884 0.0
H754 H 0.40621 0.37568 0.1616 0.0
H755 H 0.40604 0.32928 0.1814 0.0
C756 C 0.46133 0.32821 0.12736 0.0
N757 N 0.44684 0.32885 0.12057 0.0
C758 C 0.46074 0.31219 0.12868 0.0
C759 C 0.43055 0.29804 0.11473 0.0
C760 C 0.43176 0.31434 0.11354 0.0
C761 C 0.445 0.29681 0.12325 0.0
H762 H 0.47298 0.34 0.13342 0.0
H763 H 0.42038 0.31532 0.10871 0.0
O764 O 0.44439 0.38554 0.14627 0.0
O765 O 0.46738 0.37196 0.11859 0.0
O766 O 0.44456 0.35287 0.16571 0.0
O767 O 0.42594 0.3507 0.11441 0.0
H768 H 0.45699 0.41892 0.135 0.0
H769 H 0.4355 0.38054 0.1971 0.0
H770 H 0.46016 0.44143 0.16733 0.0
H771 H 0.4392 0.40371 0.22841 0.0
H772 H 0.52233 0.39717 0.08528 0.0
H773 H 0.4751 0.405 0.12214 0.0
H774 H 0.49445 0.3711 0.09853 0.0
H775 H 0.50324 0.43043 0.10857 0.0
H776 H 0.50411 0.4295 0.20485 0.0
H777 H 0.4997 0.38037 0.22728 0.0
H778 H 0.44139 0.42201 0.07037 0.0
H779 H 0.47331 0.40566 0.02826 0.0
H780 H 0.43305 0.31902 0.17044 0.0
H781 H 0.44877 0.3664 0.21408 0.0
H782 H 0.42709 0.30312 0.21302 0.0
H783 H 0.44224 0.3496 0.25584 0.0
H784 H 0.40259 0.36078 0.10931 0.0
H785 H 0.43314 0.34313 0.06707 0.0
H786 H 0.39022 0.36322 0.06636 0.0
H787 H 0.42024 0.34588 0.02484 0.0
H788 H 0.38324 0.36934 0.1944 0.0
H789 H 0.38447 0.32262 0.21616 0.0
H790 H 0.47208 0.31175 0.13566 0.0
H791 H 0.41824 0.28647 0.11023 0.0
Li792 Li 0.07169 0.45081 0.44275 0.0
Li793 Li 0.0849 0.46237 0.48622 0.0
Li794 Li 0.0949 0.44667 0.45681 0.0
Li795 Li 0.06679 0.43058 0.47979 0.0
C796 C 0.09902 0.48173 0.43292 0.0
N797 N 0.10308 0.50628 0.39557 0.0
C798 C 0.09733 0.49602 0.44028 0.0
C799 C 0.10301 0.48003 0.40666 0.0
C800 C 0.09938 0.50827 0.42107 0.0
C801 C 0.10493 0.49255 0.38804 0.0
C802 C 0.0437 0.44215 0.48728 0.0
C803 C 0.02414 0.43376 0.52465 0.0
N804 N 0.01037 0.42767 0.50771 0.0
C805 C 0.02937 0.43586 0.47023 0.0
C806 C 0.0411 0.44118 0.51471 0.0
C807 C 0.01262 0.42858 0.48095 0.0
C808 C 0.0596 0.45038 0.3892 0.0
N809 N 0.06137 0.45651 0.41442 0.0
C810 C 0.05049 0.47523 0.40193 0.0
C811 C 0.05672 0.46847 0.42111 0.0
C812 C 0.04884 0.46952 0.37558 0.0
C813 C 0.05316 0.45668 0.36928 0.0
H814 H 0.06348 0.4409 0.38447 0.0
H815 H 0.05828 0.47305 0.44135 0.0
C816 C 0.10735 0.48891 0.52248 0.0
N817 N 0.09124 0.48066 0.51123 0.0
C818 C 0.11117 0.50107 0.54272 0.0
C819 C 0.08227 0.49713 0.53773 0.0
C820 C 0.0789 0.48482 0.51798 0.0
C821 C 0.09844 0.50513 0.55073 0.0
H822 H 0.11713 0.4858 0.51613 0.0
H823 H 0.06634 0.47836 0.5083 0.0
C824 C 0.07627 0.41806 0.42825 0.0
N825 N 0.08612 0.3972 0.40138 0.0
C826 C 0.0715 0.40148 0.43792 0.0
C827 C 0.08586 0.42397 0.40477 0.0
C828 C 0.07665 0.39114 0.42407 0.0
C829 C 0.09077 0.41324 0.39153 0.0
C830 C 0.0987 0.448 0.51893 0.0
C831 C 0.1166 0.45403 0.51995 0.0
C832 C 0.08963 0.44659 0.54234 0.0
C833 C 0.12516 0.45869 0.5444 0.0
C834 C 0.09866 0.45142 0.56639 0.0
N835 N 0.11609 0.45732 0.56691 0.0
C836 C 0.12981 0.46042 0.44105 0.0
C837 C 0.11566 0.43117 0.45632 0.0
C838 C 0.14592 0.46116 0.44143 0.0
N839 N 0.11521 0.44569 0.44897 0.0
C840 C 0.13141 0.43122 0.45656 0.0
C841 C 0.14685 0.44654 0.44989 0.0
H842 H 0.12911 0.47194 0.43609 0.0
H843 H 0.104 0.41994 0.46373 0.0
C844 C 0.03421 0.40112 0.49729 0.0
N845 N 0.05189 0.40988 0.4993 0.0
C846 C 0.02407 0.38884 0.51658 0.0
C847 C 0.05055 0.39358 0.53779 0.0
C848 C 0.06009 0.40561 0.51808 0.0
C849 C 0.03227 0.38556 0.53794 0.0
H850 H 0.02796 0.40428 0.48162 0.0
H851 H 0.07415 0.4123 0.51874 0.0
O852 O 0.09655 0.46932 0.45124 0.0
O853 O 0.06019 0.44924 0.47717 0.0
O854 O 0.07142 0.42839 0.44159 0.0
O855 O 0.09009 0.44347 0.49516 0.0
H856 H 0.09423 0.4975 0.46053 0.0
H857 H 0.10439 0.46905 0.40069 0.0
H858 H 0.09796 0.51933 0.42642 0.0
H859 H 0.10787 0.49133 0.3676 0.0
H860 H 0.02193 0.43283 0.54583 0.0
H861 H 0.03114 0.43644 0.44895 0.0
H862 H 0.05205 0.44604 0.52818 0.0
H863 H 0.0014 0.4236 0.468 0.0
H864 H 0.04698 0.48486 0.40768 0.0
H865 H 0.05199 0.45195 0.34915 0.0
H866 H 0.12388 0.50717 0.55209 0.0
H867 H 0.07213 0.49994 0.5434 0.0
H868 H 0.06401 0.39671 0.45602 0.0
H869 H 0.08958 0.43675 0.39701 0.0
H870 H 0.07315 0.37832 0.43139 0.0
H871 H 0.0983 0.41768 0.37343 0.0
H872 H 0.12386 0.45525 0.50207 0.0
H873 H 0.07577 0.4419 0.54191 0.0
H874 H 0.13902 0.46345 0.54548 0.0
H875 H 0.09182 0.45048 0.58463 0.0
H876 H 0.15761 0.47321 0.4363 0.0
H877 H 0.13167 0.41983 0.46373 0.0
H878 H 0.01001 0.38262 0.51541 0.0
H879 H 0.05757 0.39162 0.55371 0.0
Li880 Li 0.65043 0.0872 0.78906 0.0
Li881 Li 0.63706 0.05972 0.81204 0.0
Li882 Li 0.62167 0.0673 0.77821 0.0
Li883 Li 0.62717 0.08114 0.82148 0.0
C884 C 0.6555 0.06512 0.75896 0.0
N885 N 0.68348 0.06857 0.72982 0.0
C886 C 0.66538 0.0579 0.76827 0.0
C887 C 0.65965 0.07381 0.7346 0.0
C888 C 0.67952 0.05985 0.7533 0.0
C889 C 0.67391 0.0755 0.72024 0.0
C890 C 0.6636 0.09879 0.83752 0.0
C891 C 0.6926 0.11629 0.85545 0.0
N892 N 0.69094 0.13071 0.85359 0.0
C893 C 0.66225 0.11384 0.83576 0.0
C894 C 0.67895 0.10006 0.84743 0.0
C895 C 0.67617 0.12982 0.84402 0.0
C896 C 0.67416 0.12151 0.77364 0.0
N897 N 0.67267 0.10572 0.7784 0.0
C898 C 0.70351 0.11881 0.78324 0.0
C899 C 0.68696 0.10406 0.78229 0.0
C900 C 0.70529 0.13545 0.78104 0.0
C901 C 0.69043 0.13664 0.77492 0.0
H902 H 0.66258 0.12256 0.77158 0.0
H903 H 0.68543 0.09151 0.78717 0.0
C904 C 0.6255 0.02556 0.83178 0.0
N905 N 0.63939 0.04196 0.82962 0.0
C906 C 0.62538 0.01426 0.85122 0.0
C907 C 0.65459 0.03626 0.86366 0.0
C908 C 0.65409 0.04711 0.84408 0.0
C909 C 0.63975 0.01994 0.86836 0.0
H910 H 0.61396 0.02176 0.81994 0.0
H911 H 0.66497 0.06011 0.84168 0.0
C912 C 0.62418 0.09726 0.76637 0.0
N913 N 0.60882 0.10546 0.72537 0.0
C914 C 0.60969 0.09918 0.77123 0.0
C915 C 0.63104 0.09983 0.74075 0.0
C916 C 0.60206 0.10324 0.75021 0.0
C917 C 0.62306 0.10389 0.72026 0.0
C918 C 0.60385 0.04705 0.83519 0.0
C919 C 0.58617 0.03456 0.83336 0.0
C920 C 0.61232 0.05032 0.8597 0.0
C921 C 0.57726 0.02543 0.85609 0.0
C922 C 0.60296 0.04089 0.88195 0.0
N923 N 0.58577 0.02875 0.8797 0.0
C924 C 0.60682 0.05599 0.72613 0.0
C925 C 0.58843 0.05595 0.76036 0.0
C926 C 0.59339 0.05085 0.70754 0.0
N927 N 0.60408 0.05852 0.75189 0.0
C928 C 0.57476 0.05094 0.74254 0.0
C929 C 0.57717 0.04851 0.71568 0.0
H930 H 0.61949 0.05828 0.71996 0.0
H931 H 0.58673 0.05818 0.78095 0.0
C932 C 0.62589 0.09455 0.87251 0.0
N933 N 0.61729 0.08819 0.8492 0.0
C934 C 0.61784 0.09805 0.89352 0.0
C935 C 0.59202 0.08791 0.86652 0.0
C936 C 0.60062 0.08472 0.84596 0.0
C937 C 0.6006 0.09458 0.89079 0.0
H938 H 0.63879 0.09641 0.87522 0.0
H939 H 0.59377 0.07882 0.82774 0.0
O940 O 0.64156 0.06326 0.77331 0.0
O941 O 0.65029 0.08317 0.82838 0.0
O942 O 0.63152 0.09274 0.7865 0.0
O943 O 0.61271 0.05612 0.81308 0.0
H944 H 0.66223 0.05095 0.78689 0.0
H945 H 0.65198 0.07919 0.72685 0.0
H946 H 0.68735 0.05444 0.76035 0.0
H947 H 0.67734 0.0823 0.70144 0.0
H948 H 0.70456 0.11744 0.86301 0.0
H949 H 0.65064 0.11326 0.82772 0.0
H950 H 0.6805 0.08876 0.84866 0.0
H951 H 0.67528 0.14154 0.84262 0.0
H952 H 0.71461 0.11722 0.78755 0.0
H953 H 0.69104 0.14913 0.77348 0.0
H954 H 0.61376 0.00167 0.8539 0.0
H955 H 0.66593 0.04125 0.8764 0.0
H956 H 0.60434 0.09748 0.79095 0.0
H957 H 0.64237 0.09862 0.73671 0.0
H958 H 0.59076 0.10462 0.75366 0.0
H959 H 0.62816 0.10577 0.7003 0.0
H960 H 0.57942 0.03193 0.81455 0.0
H961 H 0.62598 0.05997 0.86154 0.0
H962 H 0.56358 0.0157 0.85495 0.0
H963 H 0.60936 0.04323 0.901 0.0
H964 H 0.59574 0.0491 0.68699 0.0
H965 H 0.56237 0.04894 0.74978 0.0
H966 H 0.62499 0.1032 0.91182 0.0
H967 H 0.57858 0.08457 0.86373 0.0
Li968 Li 0.56901 0.63468 0.14066 0.0
Li969 Li 0.5563 0.65042 0.11958 0.0
Li970 Li 0.53703 0.62282 0.14555 0.0
Li971 Li 0.54872 0.62247 0.10131 0.0
C972 C 0.56269 0.65153 0.18281 0.0
N973 N 0.57556 0.66369 0.2331 0.0
C974 C 0.57434 0.66926 0.18704 0.0
C975 C 0.55726 0.64009 0.20438 0.0
C976 C 0.5808 0.67513 0.21253 0.0
C977 C 0.56399 0.64644 0.22958 0.0
C978 C 0.58321 0.65706 0.08746 0.0
C979 C 0.58768 0.67466 0.04858 0.0
N980 N 0.60472 0.68494 0.05542 0.0
C981 C 0.6008 0.66767 0.09396 0.0
C982 C 0.57663 0.66046 0.06446 0.0
C983 C 0.61145 0.68175 0.07756 0.0
C984 C 0.58999 0.62417 0.16925 0.0
N985 N 0.58891 0.63799 0.15998 0.0
C986 C 0.61203 0.65742 0.18853 0.0
C987 C 0.6003 0.65451 0.16803 0.0
C988 C 0.61205 0.64315 0.20067 0.0
C989 C 0.60147 0.62644 0.18985 0.0
H990 H 0.58119 0.61123 0.16192 0.0
H991 H 0.59944 0.66532 0.15984 0.0
C992 C 0.54663 0.67554 0.10881 0.0
N993 N 0.56041 0.67324 0.11388 0.0
C994 C 0.54853 0.69212 0.11072 0.0
C995 C 0.57895 0.70368 0.1216 0.0
C996 C 0.57649 0.68692 0.11934 0.0
C997 C 0.5647 0.7063 0.11823 0.0
H998 H 0.53392 0.66436 0.10503 0.0
H999 H 0.58711 0.68465 0.12389 0.0
C1000 C 0.54471 0.59485 0.14666 0.0
N1001 N 0.53452 0.56335 0.17159 0.0
C1002 C 0.53767 0.57942 0.13193 0.0
C1003 C 0.54679 0.59423 0.17406 0.0
C1004 C 0.53254 0.56364 0.14489 0.0
C1005 C 0.54151 0.5782 0.1863 0.0
C1006 C 0.51916 0.62449 0.0935 0.0
C1007 C 0.50304 0.61013 0.1002 0.0
C1008 C 0.52147 0.63214 0.0685 0.0
C1009 C 0.48959 0.60342 0.08151 0.0
C1010 C 0.5077 0.62505 0.05035 0.0
N1011 N 0.49219 0.61094 0.05717 0.0
C1012 C 0.51464 0.62215 0.18547 0.0
C1013 C 0.50877 0.59409 0.17214 0.0
C1014 C 0.50235 0.61495 0.20583 0.0
N1015 N 0.51797 0.61173 0.16968 0.0
C1016 C 0.49656 0.58634 0.19245 0.0
C1017 C 0.49348 0.59682 0.21009 0.0
H1018 H 0.52196 0.63614 0.18279 0.0
H1019 H 0.51124 0.58601 0.15885 0.0
C1020 C 0.5541 0.6122 0.04965 0.0
N1021 N 0.54287 0.60848 0.07026 0.0
C1022 C 0.54963 0.60048 0.02848 0.0
C1023 C 0.522 0.58181 0.04987 0.0
C1024 C 0.527 0.59378 0.0705 0.0
C1025 C 0.53348 0.58488 0.02867 0.0
H1026 H 0.56672 0.62394 0.05005 0.0
H1027 H 0.51855 0.5909 0.08747 0.0
O1028 O 0.55649 0.64549 0.15781 0.0
O1029 O 0.57256 0.6433 0.10338 0.0
O1030 O 0.54951 0.61039 0.13428 0.0
O1031 O 0.53249 0.63117 0.11151 0.0
H1032 H 0.57857 0.67841 0.17081 0.0
H1033 H 0.54781 0.62648 0.20185 0.0
H1034 H 0.58998 0.68879 0.21595 0.0
H1035 H 0.55995 0.63768 0.24637 0.0
H1036 H 0.58273 0.67749 0.03079 0.0
H1037 H 0.60616 0.66508 0.1115 0.0
H1038 H 0.56313 0.65221 0.05895 0.0
H1039 H 0.62506 0.69013 0.08243 0.0
H1040 H 0.62027 0.67057 0.19577 0.0
H1041 H 0.60105 0.61504 0.19846 0.0
H1042 H 0.53718 0.6936 0.10828 0.0
H1043 H 0.59163 0.71431 0.12731 0.0
H1044 H 0.53626 0.57958 0.11069 0.0
H1045 H 0.55261 0.60599 0.18572 0.0
H1046 H 0.52702 0.55161 0.1337 0.0
H1047 H 0.54303 0.57759 0.20749 0.0
H1048 H 0.50098 0.60413 0.11953 0.0
H1049 H 0.53372 0.64347 0.06318 0.0
H1050 H 0.4771 0.59222 0.08635 0.0
H1051 H 0.50934 0.63078 0.03088 0.0
H1052 H 0.50013 0.62356 0.21839 0.0
H1053 H 0.49019 0.57234 0.19488 0.0
H1054 H 0.55889 0.60337 0.01256 0.0
H1055 H 0.50965 0.56977 0.05142 0.0
C1056 C 0.52398 0.09187 0.09292 0.0
C1057 C 0.50963 0.09446 0.09031 0.0
C1058 C 0.53481 0.09429 0.07128 0.0
C1059 C 0.53463 0.09466 0.99813 0.0
H1060 H 0.58433 0.11308 0.00658 0.0
C1061 C 0.57969 0.10326 0.90954 0.0
C1062 C 0.59136 0.09705 0.91354 0.0
C1063 C 0.57051 0.10488 0.93087 0.0
C1064 C 0.57045 0.10785 0.00395 0.0
H1065 H 0.49566 0.10198 0.06289 0.0
H1066 H 0.51484 0.10667 0.02538 0.0
H1067 H 0.56699 0.11278 0.04441 0.0
H1068 H 0.60239 0.08758 0.9432 0.0
H1069 H 0.58656 0.09063 0.98031 0.0
H1070 H 0.53809 0.08962 0.95772 0.0
C1071 C 0.51755 0.10249 0.04408 0.0
C1072 C 0.56051 0.10764 0.02562 0.0
C1073 C 0.50668 0.10001 0.0657 0.0
C1074 C 0.59379 0.09274 0.93943 0.0
C1075 C 0.58469 0.09446 0.96073 0.0
C1076 C 0.54458 0.09495 0.97645 0.0
C1077 C 0.53161 0.09942 0.04651 0.0
C1078 C 0.54243 0.10082 0.02307 0.0
C1079 C 0.57286 0.10042 0.95667 0.0
C1080 C 0.56256 0.10132 0.97921 0.0
H1081 H 0.52677 0.08782 0.11167 0.0
H1082 H 0.54541 0.09165 0.07382 0.0
H1083 H 0.5207 0.08907 0.99553 0.0
H1084 H 0.57769 0.10693 0.88993 0.0
H1085 H 0.56162 0.10969 0.92718 0.0
C1086 C 0.48624 0.59791 0.25806 0.0
C1087 C 0.482 0.58899 0.23368 0.0
C1088 C 0.47651 0.58996 0.28084 0.0
C1089 C 0.43541 0.55119 0.30481 0.0
H1090 H 0.46235 0.55951 0.36921 0.0
C1091 C 0.40333 0.51555 0.40278 0.0
C1092 C 0.41278 0.50978 0.41799 0.0
C1093 C 0.41119 0.52694 0.38144 0.0
C1094 C 0.45462 0.55692 0.35139 0.0
H1095 H 0.46346 0.56492 0.21409 0.0
H1096 H 0.44714 0.55075 0.25395 0.0
H1097 H 0.47661 0.57567 0.32938 0.0
H1098 H 0.43817 0.51206 0.42318 0.0
H1099 H 0.45157 0.53116 0.3855 0.0
H1100 H 0.41366 0.53163 0.3265 0.0
C1101 C 0.45779 0.56405 0.25544 0.0
C1102 C 0.46276 0.56644 0.32855 0.0
C1103 C 0.46737 0.5721 0.23256 0.0
C1104 C 0.43037 0.51597 0.41166 0.0
C1105 C 0.43817 0.5272 0.39023 0.0
C1106 C 0.42731 0.5415 0.3276 0.0
C1107 C 0.46242 0.57276 0.28 0.0
C1108 C 0.45333 0.56356 0.30483 0.0
C1109 C 0.42867 0.53276 0.3747 0.0
C1110 C 0.43688 0.54405 0.35108 0.0
H1111 H 0.49749 0.61084 0.2599 0.0
H1112 H 0.48027 0.59724 0.29924 0.0
H1113 H 0.42764 0.5488 0.28709 0.0
H1114 H 0.38971 0.51095 0.40692 0.0
H1115 H 0.40353 0.53112 0.37017 0.0
C1116 C 0.90272 0.46742 0.56808 0.0
C1117 C 0.90565 0.4844 0.57177 0.0
C1118 C 0.89975 0.45651 0.58989 0.0
C1119 C 0.88798 0.45178 0.66161 0.0
H1120 H 0.90877 0.42228 0.66275 0.0
C1121 C 0.89941 0.42308 0.75719 0.0
C1122 C 0.89554 0.40566 0.75647 0.0
C1123 C 0.89839 0.43128 0.73416 0.0
C1124 C 0.90269 0.43028 0.66256 0.0
H1125 H 0.90825 0.50344 0.6011 0.0
H1126 H 0.90355 0.48468 0.63906 0.0
H1127 H 0.91163 0.43937 0.62323 0.0
H1128 H 0.88736 0.38305 0.73127 0.0
H1129 H 0.88573 0.39747 0.69084 0.0
H1130 H 0.87965 0.44313 0.70139 0.0
C1131 C 0.90294 0.4795 0.6194 0.0
C1132 C 0.90429 0.44005 0.63989 0.0
C1133 C 0.90573 0.49031 0.59764 0.0
C1134 C 0.89028 0.39646 0.7324 0.0
C1135 C 0.88948 0.40473 0.70927 0.0
C1136 C 0.88656 0.44216 0.68436 0.0
C1137 C 0.89984 0.46243 0.61584 0.0
C1138 C 0.89715 0.45111 0.63925 0.0
C1139 C 0.8937 0.42227 0.70989 0.0
C1140 C 0.89407 0.43147 0.68515 0.0
H1141 H 0.90245 0.4625 0.54831 0.0
H1142 H 0.8972 0.44338 0.58637 0.0
H1143 H 0.88197 0.45983 0.66163 0.0
H1144 H 0.90342 0.43043 0.77553 0.0
H1145 H 0.90183 0.44485 0.73515 0.0
C1146 C 0.49542 0.91301 0.06665 0.0
C1147 C 0.48708 0.90849 0.09146 0.0
C1148 C 0.48633 0.91278 0.04394 0.0
C1149 C 0.44247 0.89384 0.01553 0.0
H1150 H 0.46477 0.93258 0.96639 0.0
C1151 C 0.40649 0.90205 0.92561 0.0
C1152 C 0.41608 0.90913 0.9022 0.0
C1153 C 0.41476 0.90118 0.9487 0.0
C1154 C 0.45844 0.92152 0.97966 0.0
H1155 H 0.46264 0.90012 0.11191 0.0
H1156 H 0.44664 0.89971 0.07197 0.0
H1157 H 0.47978 0.93285 0.00696 0.0
H1158 H 0.44165 0.92013 0.88427 0.0
H1159 H 0.45606 0.91831 0.92438 0.0
H1160 H 0.42119 0.8824 0.98806 0.0
C1161 C 0.46024 0.90336 0.07021 0.0
C1162 C 0.46702 0.92173 0.00298 0.0
C1163 C 0.46941 0.90374 0.09307 0.0
C1164 C 0.43399 0.91482 0.90212 0.0
C1165 C 0.44223 0.91384 0.92514 0.0
C1166 C 0.4339 0.89358 0.99207 0.0
C1167 C 0.46865 0.90796 0.04544 0.0
C1168 C 0.45917 0.90787 0.02112 0.0
C1169 C 0.43278 0.90729 0.94885 0.0
C1170 C 0.44182 0.9074 0.97379 0.0
H1171 H 0.50909 0.91694 0.06482 0.0
H1172 H 0.49312 0.91623 0.0251 0.0
H1173 H 0.43618 0.88289 0.02902 0.0
H1174 H 0.3927 0.89778 0.92636 0.0
H1175 H 0.40711 0.89626 0.96664 0.0
C1176 C 0.59579 0.49282 0.40519 0.0
C1177 C 0.58662 0.48808 0.42931 0.0
C1178 C 0.58813 0.4833 0.38213 0.0
C1179 C 0.55451 0.44097 0.35702 0.0
H1180 H 0.55304 0.46703 0.29626 0.0
C1181 C 0.50947 0.40714 0.2677 0.0
C1182 C 0.51475 0.41455 0.2424 0.0
C1183 C 0.51943 0.41566 0.29004 0.0
C1184 C 0.55361 0.45952 0.31277 0.0
H1185 H 0.56254 0.4694 0.44849 0.0
H1186 H 0.54923 0.4525 0.40814 0.0
H1187 H 0.5685 0.4825 0.33617 0.0
H1188 H 0.53483 0.43632 0.2204 0.0
H1189 H 0.55265 0.45096 0.25924 0.0
H1190 H 0.53992 0.418 0.33365 0.0
C1191 C 0.56229 0.46364 0.40712 0.0
C1192 C 0.56241 0.46842 0.3357 0.0
C1193 C 0.56985 0.47334 0.43011 0.0
C1194 C 0.53042 0.43042 0.23974 0.0
C1195 C 0.54054 0.43883 0.26205 0.0
C1196 C 0.54594 0.43206 0.33393 0.0
C1197 C 0.57127 0.4687 0.38284 0.0
C1198 C 0.56276 0.45922 0.35813 0.0
C1199 C 0.53506 0.43169 0.28757 0.0
C1200 C 0.54516 0.4412 0.31159 0.0
H1201 H 0.60868 0.50422 0.404 0.0
H1202 H 0.59534 0.4874 0.36368 0.0
H1203 H 0.55476 0.4336 0.37399 0.0
H1204 H 0.49731 0.39502 0.27033 0.0
H1205 H 0.51456 0.40988 0.30931 0.0
C1206 C 0.09775 0.5305 0.5712 0.0
C1207 C 0.10161 0.517 0.57332 0.0
C1208 C 0.09939 0.5408 0.5932 0.0
C1209 C 0.11718 0.55161 0.66219 0.0
H1210 H 0.08142 0.56434 0.67027 0.0
C1211 C 0.10078 0.57401 0.76106 0.0
C1212 C 0.0986 0.58864 0.75953 0.0
C1213 C 0.10306 0.5666 0.73799 0.0
C1214 C 0.09159 0.56102 0.66815 0.0
H1215 H 0.1104 0.50374 0.59984 0.0
H1216 H 0.11269 0.52126 0.63854 0.0
H1217 H 0.08189 0.54902 0.63055 0.0
H1218 H 0.09716 0.60705 0.73278 0.0
H1219 H 0.10093 0.59397 0.69249 0.0
H1220 H 0.12634 0.56309 0.70055 0.0
C1221 C 0.10889 0.52432 0.61979 0.0
C1222 C 0.09195 0.55232 0.6453 0.0
C1223 C 0.10752 0.51421 0.59766 0.0
C1224 C 0.09898 0.59587 0.73456 0.0
C1225 C 0.101 0.58833 0.71152 0.0
C1226 C 0.11665 0.56011 0.68527 0.0
C1227 C 0.1046 0.5376 0.61796 0.0
C1228 C 0.10473 0.54747 0.64198 0.0
C1229 C 0.1029 0.57353 0.71299 0.0
C1230 C 0.10384 0.56488 0.68843 0.0
H1231 H 0.09335 0.53302 0.55254 0.0
H1232 H 0.09639 0.55117 0.59081 0.0
H1233 H 0.12738 0.54835 0.6602 0.0
H1234 H 0.10062 0.56824 0.78008 0.0
H1235 H 0.1044 0.55513 0.73962 0.0
C1236 C 0.36661 -7e-05 0.09409 0.0
C1237 C 0.36339 0.01166 0.10848 0.0
C1238 C 0.35847 0.9933 0.06975 0.0
C1239 C 0.33364 0.97679 0.02221 0.0
H1240 H 0.34745 0.01449 0.97163 0.0
C1241 C 0.32283 0.96463 0.90961 0.0
C1242 C 0.33902 0.972 0.89643 0.0
C1243 C 0.32167 0.96988 0.93532 0.0
C1244 C 0.34323 0.00384 0.98561 0.0
H1245 H 0.34772 0.02428 0.10927 0.0
H1246 H 0.33428 0.01339 0.06598 0.0
H1247 H 0.35176 0.02098 0.01918 0.0
H1248 H 0.36646 0.99168 0.89973 0.0
H1249 H 0.36413 0.00132 0.9438 0.0
H1250 H 0.32567 0.95972 0.98857 0.0
C1251 C 0.3431 0.00936 0.07384 0.0
C1252 C 0.34561 0.00752 0.01274 0.0
C1253 C 0.35094 0.01569 0.09852 0.0
C1254 C 0.35369 0.9858 0.90883 0.0
C1255 C 0.35242 0.9913 0.93425 0.0
C1256 C 0.33092 0.97307 0.99512 0.0
C1257 C 0.34714 0.99846 0.059 0.0
C1258 C 0.34136 0.99408 0.03117 0.0
C1259 C 0.33656 0.98297 0.94805 0.0
C1260 C 0.33622 0.98663 0.97657 0.0
H1261 H 0.37626 0.99667 0.10067 0.0
H1262 H 0.36192 0.98504 0.05851 0.0
H1263 H 0.33033 0.96625 0.03609 0.0
H1264 H 0.31113 0.95431 0.90051 0.0
H1265 H 0.30926 0.96338 0.94556 0.0
C1266 C 0.37365 0.35823 0.24682 0.0
C1267 C 0.37138 0.34347 0.2328 0.0
C1268 C 0.36555 0.35643 0.27127 0.0
C1269 C 0.35384 0.33035 0.32955 0.0
H1270 H 0.33057 0.35581 0.34995 0.0
C1271 C 0.32775 0.35228 0.42767 0.0
C1272 C 0.34364 0.36156 0.44146 0.0
C1273 C 0.32707 0.34454 0.40322 0.0
C1274 C 0.33674 0.34834 0.34452 0.0
H1275 H 0.35768 0.31512 0.23315 0.0
H1276 H 0.34434 0.31218 0.27666 0.0
H1277 H 0.33622 0.35351 0.3031 0.0
H1278 H 0.37087 0.36847 0.44144 0.0
H1279 H 0.36949 0.35452 0.39925 0.0
H1280 H 0.35546 0.32623 0.37116 0.0
C1281 C 0.35236 0.32508 0.26836 0.0
C1282 C 0.34004 0.34712 0.31777 0.0
C1283 C 0.36013 0.32683 0.24354 0.0
C1284 C 0.35838 0.36134 0.43156 0.0
C1285 C 0.35762 0.35338 0.40728 0.0
C1286 C 0.35082 0.33183 0.3564 0.0
C1287 C 0.35526 0.3399 0.28258 0.0
C1288 C 0.34899 0.33849 0.31013 0.0
C1289 C 0.34216 0.34563 0.39233 0.0
C1290 C 0.34261 0.3412 0.36414 0.0
H1291 H 0.38242 0.37129 0.23972 0.0
H1292 H 0.36815 0.36808 0.28204 0.0
H1293 H 0.3609 0.32375 0.32411 0.0
H1294 H 0.31605 0.35182 0.43504 0.0
H1295 H 0.31493 0.33843 0.39221 0.0
C1296 C 0.02791 0.36648 0.57763 0.0
C1297 C 0.02231 0.37591 0.56195 0.0
C1298 C 0.02107 0.36081 0.60303 0.0
C1299 C 0.0005 0.37312 0.65586 0.0
H1300 H 0.99661 0.33274 0.69214 0.0
C1301 C 0.98883 0.36623 0.76734 0.0
C1302 C 0.97595 0.34978 0.77658 0.0
C1303 C 0.99581 0.3681 0.74194 0.0
C1304 C 0.99754 0.34403 0.68226 0.0
H1305 H 0.00391 0.38533 0.56004 0.0
H1306 H 0.99136 0.37458 0.60342 0.0
H1307 H 0.00349 0.33673 0.64485 0.0
H1308 H 0.96166 0.32217 0.76712 0.0
H1309 H 0.97323 0.32557 0.72239 0.0
H1310 H 0.99397 0.38017 0.69271 0.0
C1311 C 0.00157 0.3722 0.59656 0.0
C1312 C 0.00163 0.34639 0.65518 0.0
C1313 C 0.00857 0.37809 0.57136 0.0
C1314 C 0.97124 0.3351 0.76046 0.0
C1315 C 0.97804 0.33702 0.73485 0.0
C1316 C 0.99631 0.3707 0.68273 0.0
C1317 C 0.00829 0.36421 0.61319 0.0
C1318 C 0.00316 0.36099 0.64165 0.0
C1319 C 0.9899 0.35365 0.72492 0.0
C1320 C 0.99487 0.3562 0.69638 0.0
H1321 H 0.03817 0.36417 0.5708 0.0
H1322 H 0.02654 0.35465 0.61518 0.0
H1323 H 0.00192 0.38472 0.64636 0.0
H1324 H 0.99278 0.37789 0.77897 0.0
H1325 H 0.00531 0.38105 0.73525 0.0
C1326 C 0.62203 0.95925 0.09034 0.0
C1327 C 0.62349 0.97131 0.10976 0.0
C1328 C 0.62754 0.96469 0.06435 0.0
C1329 C 0.6437 0.98051 0.01047 0.0
H1330 H 0.62642 0.01069 0.9865 0.0
C1331 C 0.65276 0.00993 0.90391 0.0
C1332 C 0.63832 0.01048 0.8934 0.0
C1333 C 0.65232 0.00403 0.92982 0.0
C1334 C 0.63126 0.0022 0.99285 0.0
H1335 H 0.63346 0.99872 0.11785 0.0
H1336 H 0.64324 0.00826 0.0725 0.0
H1337 H 0.62528 0.00387 0.03334 0.0
H1338 H 0.6118 0.00445 0.90151 0.0
H1339 H 0.61095 0.99388 0.94624 0.0
H1340 H 0.64928 0.97862 0.96954 0.0
C1341 C 0.63747 0.99454 0.07724 0.0
C1342 C 0.63086 0.99851 0.01977 0.0
C1343 C 0.63192 0.9891 0.1032 0.0
C1344 C 0.6231 0.00402 0.90878 0.0
C1345 C 0.62268 0.9982 0.93459 0.0
C1346 C 0.64421 0.98433 0.9834 0.0
C1347 C 0.63463 0.9823 0.05729 0.0
C1348 C 0.63689 0.98748 0.02891 0.0
C1349 C 0.63746 0.9987 0.9457 0.0
C1350 C 0.63769 0.99498 0.97432 0.0
H1351 H 0.61545 0.94542 0.09467 0.0
H1352 H 0.62508 0.95491 0.04944 0.0
H1353 H 0.64848 0.97201 0.01695 0.0
H1354 H 0.66463 0.01468 0.89247 0.0
H1355 H 0.66389 0.00451 0.93786 0.0
C1356 C 0.62852 0.63493 0.23272 0.0
C1357 C 0.62106 0.64525 0.22643 0.0
C1358 C 0.63408 0.63465 0.25856 0.0
C1359 C 0.62828 0.62514 0.31682 0.0
H1360 H 0.65115 0.66466 0.36459 0.0
C1361 C 0.62297 0.61553 0.42884 0.0
C1362 C 0.63877 0.62326 0.44295 0.0
C1363 C 0.62241 0.62041 0.40274 0.0
C1364 C 0.64483 0.65354 0.3514 0.0
H1365 H 0.61445 0.66405 0.24218 0.0
H1366 H 0.62436 0.6637 0.28698 0.0
H1367 H 0.64923 0.66959 0.31711 0.0
H1368 H 0.66613 0.64303 0.44133 0.0
H1369 H 0.6651 0.65167 0.39549 0.0
H1370 H 0.62359 0.60908 0.35095 0.0
C1371 C 0.62602 0.65592 0.27192 0.0
C1372 C 0.64369 0.65634 0.32432 0.0
C1373 C 0.62037 0.65614 0.24615 0.0
C1374 C 0.65379 0.63677 0.43089 0.0
C1375 C 0.6532 0.64176 0.40473 0.0
C1376 C 0.62926 0.62236 0.34381 0.0
C1377 C 0.63237 0.64473 0.2786 0.0
C1378 C 0.63526 0.64214 0.30681 0.0
C1379 C 0.63762 0.63318 0.39017 0.0
C1380 C 0.63732 0.6365 0.36143 0.0
H1381 H 0.6295 0.62661 0.2179 0.0
H1382 H 0.63919 0.62609 0.26308 0.0
H1383 H 0.6215 0.61393 0.30393 0.0
H1384 H 0.6112 0.60493 0.43736 0.0
H1385 H 0.61017 0.61377 0.39206 0.0
C1386 C 0.01054 0.65387 0.76875 0.0
C1387 C 0.01013 0.63856 0.77748 0.0
C1388 C 0.00311 0.65422 0.74441 0.0
C1389 C 0.97292 0.62593 0.69198 0.0
H1390 H 0.00364 0.66263 0.64372 0.0
C1391 C 0.95494 0.62255 0.58246 0.0
C1392 C 0.96816 0.62426 0.56513 0.0
C1393 C 0.95878 0.62805 0.60879 0.0
C1394 C 0.99486 0.65237 0.65702 0.0
H1395 H 0.0011 0.6115 0.76748 0.0
H1396 H 0.98789 0.61204 0.72571 0.0
H1397 H 0.01173 0.6641 0.6904 0.0
H1398 H 0.99598 0.63452 0.56128 0.0
H1399 H 0.00266 0.64387 0.60734 0.0
H1400 H 0.95651 0.61369 0.65852 0.0
C1401 C 0.99384 0.62374 0.73773 0.0
C1402 C -0.00059 0.65329 0.68379 0.0
C1403 C 0.00138 0.62343 0.76184 0.0
C1404 C 0.98548 0.63281 0.57422 0.0
C1405 C 0.98932 0.63832 0.60058 0.0
C1406 C 0.96835 0.62504 0.66531 0.0
C1407 C 0.99494 0.63921 0.72847 0.0
C1408 C 0.98873 0.6398 0.70135 0.0
C1409 C 0.97591 0.63539 0.61841 0.0
C1410 C 0.97951 0.63799 0.64734 0.0
H1411 H 0.01691 0.6657 0.78044 0.0
H1412 H 0.00399 0.66628 0.73786 0.0
H1413 H 0.96436 0.61543 0.70512 0.0
H1414 H 0.94143 0.61593 0.57623 0.0
H1415 H 0.9482 0.62586 0.62194 0.0
C1416 C 0.5161 0.95275 0.3377 0.0
C1417 C 0.53001 0.96168 0.31976 0.0
C1418 C 0.50861 0.96144 0.35048 0.0
C1419 C 0.48742 0.98001 0.346 0.0
H1420 H 0.51202 0.028 0.3701 0.0
C1421 C 0.45685 0.02195 0.32771 0.0
C1422 C 0.46845 0.0374 0.31439 0.0
C1423 C 0.46319 0.01294 0.34253 0.0
C1424 C 0.50488 0.01457 0.36353 0.0
H1425 H 0.54776 0.98722 0.30316 0.0
H1426 H 0.53515 0.00225 0.32603 0.0
H1427 H 0.52681 0.01098 0.37014 0.0
H1428 H 0.49569 0.0567 0.30894 0.0
H1429 H 0.50674 0.04085 0.3336 0.0
H1430 H 0.46616 0.9839 0.33672 0.0
C1431 C 0.52999 0.98852 0.33013 0.0
C1432 C 0.51333 0.00481 0.36376 0.0
C1433 C 0.53726 0.97982 0.31698 0.0
C1434 C 0.48644 0.04459 0.31848 0.0
C1435 C 0.49277 0.03556 0.33303 0.0
C1436 C 0.47906 0.98983 0.34536 0.0
C1437 C 0.51514 0.97929 0.34607 0.0
C1438 C 0.50496 0.98774 0.3537 0.0
C1439 C 0.48124 0.01916 0.34411 0.0
C1440 C 0.48804 0.00755 0.35267 0.0
H1441 H 0.51046 0.93888 0.34097 0.0
H1442 H 0.49722 0.95405 0.36283 0.0
H1443 H 0.48066 0.96691 0.33798 0.0
H1444 H 0.4429 0.01615 0.32508 0.0
H1445 H 0.45393 0.00057 0.35135 0.0
C1446 C 0.56414 0.52651 0.67368 0.0
C1447 C 0.56885 0.53863 0.65277 0.0
C1448 C 0.54768 0.51934 0.68556 0.0
C1449 C 0.50787 0.49634 0.67999 0.0
H1450 H 0.48293 0.52129 0.69228 0.0
C1451 C 0.43537 0.46305 0.65671 0.0
C1452 C 0.43198 0.47323 0.63901 0.0
C1453 C 0.45052 0.47076 0.67226 0.0
C1454 C 0.48968 0.51406 0.68915 0.0
H1455 H 0.56006 0.55358 0.62972 0.0
H1456 H 0.5321 0.54176 0.65111 0.0
H1457 H 0.51473 0.53685 0.69467 0.0
H1458 H 0.44058 0.49953 0.62563 0.0
H1459 H 0.46696 0.51292 0.65204 0.0
H1460 H 0.48315 0.474 0.67173 0.0
C1461 C 0.54108 0.53771 0.6582 0.0
C1462 C 0.50786 0.52297 0.69071 0.0
C1463 C 0.55728 0.54456 0.64592 0.0
C1464 C 0.44306 0.49137 0.63887 0.0
C1465 C 0.4581 0.49906 0.65434 0.0
C1466 C 0.48971 0.48749 0.67809 0.0
C1467 C 0.53582 0.52452 0.67732 0.0
C1468 C 0.51715 0.51439 0.68464 0.0
C1469 C 0.46244 0.48878 0.67038 0.0
C1470 C 0.48049 0.49651 0.68102 0.0
H1471 H 0.57282 0.52195 0.68016 0.0
H1472 H 0.54394 0.50923 0.70038 0.0
H1473 H 0.5147 0.48942 0.67511 0.0
H1474 H 0.42696 0.44902 0.65724 0.0
H1475 H 0.45335 0.46251 0.68468 0.0
C1476 C 0.04302 0.55687 0.98064 0.0
C1477 C 0.03808 0.56944 0.98476 0.0
C1478 C 0.03354 0.54039 0.99211 0.0
C1479 C 0.98866 0.5112 0.01679 0.0
H1480 H 0.00591 0.47877 0.01399 0.0
C1481 C 0.94826 0.44446 0.97234 0.0
C1482 C 0.95264 0.43139 0.97568 0.0
C1483 C 0.95722 0.46016 0.98604 0.0
C1484 C 0.00072 0.4875 0.01564 0.0
H1485 H 0.02048 0.57541 0.00596 0.0
H1486 H 0.00452 0.54699 0.0276 0.0
H1487 H 0.02633 0.50964 0.0176 0.0
H1488 H 0.96852 0.42373 0.99831 0.0
H1489 H 0.98375 0.45095 0.0233 0.0
H1490 H 0.96305 0.48902 0.01596 0.0
C1491 C 0.01518 0.54943 0.0145 0.0
C1492 C 0.01256 0.50539 0.01714 0.0
C1493 C 0.02442 0.56581 0.00236 0.0
C1494 C 0.96497 0.43365 0.99512 0.0
C1495 C 0.97384 0.44936 0.00921 0.0
C1496 C 0.97683 0.4933 0.01624 0.0
C1497 C 0.01905 0.53617 0.0085 0.0
C1498 C 0.00674 0.51754 0.01563 0.0
C1499 C 0.97066 0.46316 0.00392 0.0
C1500 C 0.98271 0.48127 0.01352 0.0
H1501 H 0.05339 0.5593 0.96687 0.0
H1502 H 0.03693 0.53069 0.9864 0.0
H1503 H 0.98344 0.51991 0.01596 0.0
H1504 H 0.93848 0.44293 0.95799 0.0
H1505 H 0.95433 0.47033 0.98102 0.0
C1506 C 0.9862 0.54619 0.35425 0.0
C1507 C 0.96846 0.53996 0.34869 0.0
C1508 C 0.99538 0.53949 0.34101 0.0
C1509 C 0.01318 0.52491 0.30642 0.0
H1510 H 0.99042 0.47629 0.32715 0.0
C1511 C 0.04938 0.49521 0.3546 0.0
C1512 C 0.04249 0.4771 0.35531 0.0
C1513 C 0.04122 0.50238 0.33983 0.0
C1514 C 0.9969 0.48966 0.32027 0.0
H1515 H 0.94714 0.5229 0.32255 0.0
H1516 H 0.96302 0.51041 0.30072 0.0
H1517 H 0.97372 0.49118 0.32537 0.0
H1518 H 0.02273 0.45238 0.33915 0.0
H1519 H 0.00846 0.46496 0.31286 0.0
H1520 H 0.03659 0.52367 0.30263 0.0
C1521 C 0.96971 0.52066 0.31525 0.0
C1522 C 0.98727 0.49822 0.3193 0.0
C1523 C 0.96059 0.52769 0.32806 0.0
C1524 C 0.02823 0.46639 0.33901 0.0
C1525 C 0.02002 0.4736 0.32414 0.0
C1526 C 0.02278 0.5163 0.307 0.0
C1527 C 0.98704 0.52614 0.32223 0.0
C1528 C 0.99558 0.51617 0.31402 0.0
C1529 C 0.02597 0.49161 0.32533 0.0
C1530 C 0.01501 0.4989 0.31574 0.0
H1531 H 0.99282 0.55534 0.37017 0.0
H1532 H 0.00865 0.54377 0.34712 0.0
H1533 H 0.01983 0.53873 0.30197 0.0
H1534 H 0.06053 0.50376 0.36671 0.0
H1535 H 0.04617 0.51626 0.34156 0.0
C1536 C 0.42888 0.96734 0.66312 0.0
C1537 C 0.42403 0.97429 0.68449 0.0
C1538 C 0.44546 0.97684 0.65173 0.0
C1539 C 0.48495 0.99275 0.65788 0.0
H1540 H 0.51113 0.04293 0.64893 0.0
C1541 C 0.55799 0.02953 0.67876 0.0
C1542 C 0.56256 0.04326 0.69677 0.0
C1543 C 0.54239 0.02267 0.6644 0.0
C1544 C 0.50404 0.02889 0.65121 0.0
H1545 H 0.43258 0.99747 0.70881 0.0
H1546 H 0.46089 0.014 0.68836 0.0
H1547 H 0.47933 0.02755 0.64654 0.0
H1548 H 0.55542 0.06176 0.71178 0.0
H1549 H 0.52816 0.04958 0.6877 0.0
H1550 H 0.50932 0.9941 0.66513 0.0
C1551 C 0.45193 0.00118 0.68052 0.0
C1552 C 0.48584 0.02009 0.64965 0.0
C1553 C 0.43555 0.99162 0.69225 0.0
C1554 C 0.55203 0.05092 0.69847 0.0
C1555 C 0.53649 0.04407 0.68426 0.0
C1556 C 0.50311 0.00155 0.65979 0.0
C1557 C 0.45735 0.99361 0.66102 0.0
C1558 C 0.47612 0.00207 0.65433 0.0
C1559 C 0.53111 0.02942 0.66782 0.0
C1560 C 0.51281 0.01985 0.65797 0.0
H1561 H 0.42022 0.95425 0.65604 0.0
H1562 H 0.4493 0.97076 0.63655 0.0
H1563 H 0.4778 0.97885 0.66174 0.0
H1564 H 0.5659 0.02342 0.67695 0.0
H1565 H 0.5388 0.01157 0.65158 0.0
C1566 C 0.46981 0.43369 0.00508 0.0
C1567 C 0.46683 0.43274 0.03261 0.0
C1568 C 0.47922 0.44996 0.99251 0.0
C1569 C 0.51324 0.49405 0.00624 0.0
H1570 H 0.49133 0.51202 0.95919 0.0
C1571 C 0.54202 0.56628 0.00234 0.0
C1572 C 0.52932 0.57067 0.00926 0.0
C1573 C 0.53709 0.55003 0.9911 0.0
C1574 C 0.49777 0.50717 0.972 0.0
H1575 H 0.47154 0.44795 0.06853 0.0
H1576 H 0.48791 0.47607 0.04676 0.0
H1577 H 0.47677 0.4807 0.96867 0.0
H1578 H 0.50194 0.56273 0.00576 0.0
H1579 H 0.49323 0.53421 0.98759 0.0
H1580 H 0.53339 0.52027 0.0118 0.0
C1581 C 0.48288 0.46433 0.03486 0.0
C1582 C 0.48949 0.48923 0.9772 0.0
C1583 C 0.47333 0.44825 0.04725 0.0
C1584 C 0.51196 0.55949 0.00144 0.0
C1585 C 0.507 0.54316 0.99059 0.0
C1586 C 0.52149 0.51187 0.0011 0.0
C1587 C 0.48608 0.46536 0.0075 0.0
C1588 C 0.49677 0.48275 0.9955 0.0
C1589 C 0.51936 0.53776 0.98702 0.0
C1590 C 0.51339 0.5188 0.98513 0.0
H1591 H 0.46496 0.4219 0.9934 0.0
H1592 H 0.48152 0.45052 0.97134 0.0
H1593 H 0.51911 0.48927 0.02033 0.0
H1594 H 0.55554 0.57464 0.0078 0.0
H1595 H 0.54702 0.54651 0.9878 0.0
C1596 C 0.42877 0.26745 0.1444 0.0
C1597 C 0.44314 0.27964 0.12951 0.0
C1598 C 0.42768 0.25192 0.15268 0.0
C1599 C 0.44333 0.22157 0.13865 0.0
H1600 H 0.43117 0.20776 0.21213 0.0
C1601 C 0.42605 0.15368 0.17663 0.0
C1602 C 0.43416 0.15304 0.20022 0.0
C1603 C 0.42708 0.16919 0.16844 0.0
C1604 C 0.43467 0.21152 0.19162 0.0
H1605 H 0.4674 0.28497 0.11103 0.0
H1606 H 0.46542 0.25762 0.12538 0.0
H1607 H 0.43323 0.2348 0.19618 0.0
H1608 H 0.44939 0.16801 0.23403 0.0
H1609 H 0.4511 0.19527 0.21972 0.0
H1610 H 0.44476 0.1983 0.13407 0.0
C1611 C 0.45503 0.26015 0.13062 0.0
C1612 C 0.43569 0.22688 0.18244 0.0
C1613 C 0.4562 0.2758 0.12251 0.0
C1614 C 0.44305 0.16817 0.21575 0.0
C1615 C 0.44395 0.1837 0.20764 0.0
C1616 C 0.44215 0.20614 0.14777 0.0
C1617 C 0.44088 0.2482 0.14611 0.0
C1618 C 0.43999 0.23202 0.15585 0.0
C1619 C 0.43617 0.18439 0.18371 0.0
C1620 C 0.43775 0.20094 0.17431 0.0
H1621 H 0.41863 0.27018 0.15042 0.0
H1622 H 0.41654 0.24284 0.16436 0.0
H1623 H 0.44659 0.2252 0.11804 0.0
H1624 H 0.41934 0.1423 0.16402 0.0
H1625 H 0.42081 0.16932 0.15006 0.0
C1626 C 0.17627 0.46137 0.47089 0.0
C1627 C 0.16384 0.44778 0.45509 0.0
C1628 C 0.19125 0.46128 0.47926 0.0
C1629 C 0.20752 0.43051 0.48947 0.0
H1630 H 0.25198 0.47279 0.49966 0.0
C1631 C 0.27161 0.43085 0.50875 0.0
C1632 C 0.28217 0.44127 0.52974 0.0
C1633 C 0.25708 0.43182 0.50066 0.0
C1634 C 0.23957 0.46092 0.49715 0.0
H1635 H 0.15764 0.42393 0.43445 0.0
H1636 H 0.18414 0.42406 0.44813 0.0
H1637 H 0.22743 0.47461 0.48123 0.0
H1638 H 0.28553 0.46086 0.55871 0.0
H1639 H 0.26028 0.46288 0.54386 0.0
H1640 H 0.21988 0.41683 0.5047 0.0
C1641 C 0.1821 0.43452 0.45483 0.0
C1642 C 0.22551 0.46193 0.4866 0.0
C1643 C 0.16701 0.4345 0.44677 0.0
C1644 C 0.2778 0.45276 0.54235 0.0
C1645 C 0.26335 0.4539 0.53393 0.0
C1646 C 0.22162 0.4295 0.49967 0.0
C1647 C 0.19419 0.44766 0.47176 0.0
C1648 C 0.20931 0.44671 0.48255 0.0
C1649 C 0.25289 0.44342 0.51301 0.0
C1650 C 0.23777 0.44468 0.50354 0.0
H1651 H 0.17399 0.47162 0.47792 0.0
H1652 H 0.20012 0.47149 0.49253 0.0
H1653 H 0.19515 0.41856 0.4873 0.0
H1654 H 0.27479 0.42225 0.49794 0.0
H1655 H 0.24937 0.4238 0.4842 0.0
C1656 C 0.73157 0.15053 0.81041 0.0
C1657 C 0.72181 0.15128 0.78893 0.0
C1658 C 0.74585 0.16567 0.82022 0.0
C1659 C 0.76185 0.21186 0.82753 0.0
H1660 H 0.80629 0.21524 0.84323 0.0
C1661 C 0.82189 0.27611 0.86096 0.0
C1662 C 0.83394 0.27529 0.87812 0.0
C1663 C 0.80776 0.26086 0.8511 0.0
C1664 C 0.79387 0.21442 0.83944 0.0
H1665 H 0.71997 0.16859 0.76028 0.0
H1666 H 0.74471 0.19514 0.77801 0.0
H1667 H 0.78324 0.18894 0.82238 0.0
H1668 H 0.84027 0.25799 0.89953 0.0
H1669 H 0.81515 0.23125 0.8832 0.0
H1670 H 0.77216 0.23704 0.84521 0.0
C1671 C 0.74118 0.18273 0.78715 0.0
C1672 C 0.78075 0.19941 0.82727 0.0
C1673 C 0.72702 0.16754 0.77705 0.0
C1674 C 0.83117 0.25894 0.88622 0.0
C1675 C 0.81689 0.24366 0.87664 0.0
C1676 C 0.77488 0.22678 0.84004 0.0
C1677 C 0.75055 0.18193 0.80904 0.0
C1678 C 0.76466 0.19804 0.82112 0.0
C1679 C 0.80525 0.24444 0.85842 0.0
C1680 C 0.79109 0.22828 0.84608 0.0
H1681 H 0.72776 0.13838 0.82057 0.0
H1682 H 0.75275 0.16474 0.83731 0.0
H1683 H 0.74943 0.21097 0.82337 0.0
H1684 H 0.82391 0.28857 0.85402 0.0
H1685 H 0.79926 0.26202 0.83684 0.0
C1686 C 0.55845 0.73064 0.11058 0.0
C1687 C 0.56606 0.72303 0.12604 0.0
C1688 C 0.55824 0.74545 0.11963 0.0
C1689 C 0.57736 0.78065 0.17056 0.0
H1690 H 0.53489 0.78209 0.15842 0.0
C1691 C 0.57035 0.84008 0.19848 0.0
C1692 C 0.55388 0.83707 0.20643 0.0
C1693 C 0.57249 0.8263 0.18985 0.0
C1694 C 0.54675 0.78178 0.16232 0.0
H1695 H 0.57943 0.72492 0.16298 0.0
H1696 H 0.57877 0.75043 0.17897 0.0
H1697 H 0.53777 0.75833 0.14002 0.0
H1698 H 0.52696 0.81731 0.21304 0.0
H1699 H 0.53078 0.79305 0.19892 0.0
H1700 H 0.58602 0.80371 0.19384 0.0
C1701 C 0.5734 0.74537 0.15956 0.0
C1702 C 0.54855 0.76831 0.15131 0.0
C1703 C 0.57377 0.73071 0.1504 0.0
C1704 C 0.53977 0.81994 0.20681 0.0
C1705 C 0.54194 0.80612 0.1985 0.0
C1706 C 0.57548 0.79403 0.18182 0.0
C1707 C 0.56542 0.75279 0.14448 0.0
C1708 C 0.56386 0.76756 0.1553 0.0
C1709 C 0.55823 0.80918 0.18925 0.0
C1710 C 0.56015 0.79475 0.17787 0.0
H1711 H 0.55251 0.72501 0.09166 0.0
H1712 H 0.55228 0.75103 0.10726 0.0
H1713 H 0.58942 0.7806 0.17381 0.0
H1714 H 0.58139 0.85322 0.19763 0.0
H1715 H 0.58517 0.8292 0.18258 0.0
C1716 C 0.83173 0.54963 0.50306 0.0
C1717 C 0.83761 0.55255 0.47664 0.0
C1718 C 0.81757 0.55142 0.51061 0.0
C1719 C 0.79287 0.57281 0.49259 0.0
H1720 H 0.75668 0.53696 0.53634 0.0
C1721 C 0.72784 0.5705 0.51415 0.0
C1722 C 0.72021 0.56476 0.53925 0.0
C1723 C 0.74273 0.56985 0.5071 0.0
C1724 C 0.7668 0.54723 0.52449 0.0
H1725 H 0.83323 0.55974 0.43746 0.0
H1726 H 0.80852 0.56311 0.45086 0.0
H1727 H 0.78135 0.53393 0.52229 0.0
H1728 H 0.72245 0.55434 0.57697 0.0
H1729 H 0.74874 0.55351 0.56489 0.0
H1730 H 0.77846 0.58624 0.49501 0.0
C1731 C 0.81497 0.55944 0.46564 0.0
C1732 C 0.78088 0.54544 0.51634 0.0
C1733 C 0.8291 0.55752 0.458 0.0
C1734 C 0.728 0.55872 0.55741 0.0
C1735 C 0.74299 0.55818 0.55043 0.0
C1736 C 0.77885 0.57468 0.50091 0.0
C1737 C 0.80905 0.55633 0.49201 0.0
C1738 C 0.79403 0.55819 0.50028 0.0
C1739 C 0.75038 0.56351 0.52505 0.0
C1740 C 0.76562 0.56188 0.51691 0.0
H1741 H 0.83825 0.54626 0.51812 0.0
H1742 H 0.81346 0.54924 0.53117 0.0
H1743 H 0.80296 0.58295 0.4805 0.0
H1744 H 0.72193 0.57491 0.49955 0.0
H1745 H 0.74788 0.57377 0.48725 0.0
C1746 C 0.16718 0.72928 0.88136 0.0
C1747 C 0.1516 0.72224 0.86681 0.0
C1748 C 0.18191 0.74458 0.87289 0.0
C1749 C 0.20256 0.76814 0.81283 0.0
H1750 H 0.23077 0.80733 0.85905 0.0
C1751 C 0.27369 0.82192 0.79076 0.0
C1752 C 0.27739 0.83916 0.79444 0.0
C1753 C 0.25749 0.80798 0.79823 0.0
C1754 C 0.22294 0.79649 0.84593 0.0
H1755 H 0.13905 0.72565 0.83224 0.0
H1756 H 0.1649 0.7523 0.81724 0.0
H1757 H 0.20378 0.78259 0.87596 0.0
H1758 H 0.2672 0.85541 0.80866 0.0
H1759 H 0.23896 0.83099 0.82206 0.0
H1760 H 0.22194 0.78185 0.78301 0.0
C1761 C 0.16564 0.74606 0.83528 0.0
C1762 C 0.20761 0.78236 0.85563 0.0
C1763 C 0.15086 0.73094 0.84398 0.0
C1764 C 0.26457 0.84222 0.80532 0.0
C1765 C 0.24851 0.82831 0.81319 0.0
C1766 C 0.21804 0.78214 0.80328 0.0
C1767 C 0.18134 0.75287 0.84947 0.0
C1768 C 0.1973 0.76808 0.83914 0.0
C1769 C 0.24491 0.81109 0.80994 0.0
C1770 C 0.22834 0.79642 0.81976 0.0
H1771 H 0.16804 0.72278 0.89902 0.0
H1772 H 0.19391 0.74958 0.88407 0.0
H1773 H 0.19487 0.75718 0.79983 0.0
H1774 H 0.28339 0.81926 0.78242 0.0
H1775 H 0.25501 0.79478 0.79566 0.0
loop_
_geom_bond_atom_site_label_1
_geom_bond_atom_site_label_2
_geom_bond_distance
_geom_bond_site_symmetry_2
_ccdc_geom_bond_type
Li0 N17 1.990 . S
Li0 O60 1.956 . S
Li0 O61 1.970 . S
Li0 O62 1.961 . S
Li1 N25 1.990 . S
Li1 O60 1.970 . S
Li1 O61 1.956 . S
Li1 O63 1.961 . S
Li2 N47 1.990 . S
Li2 O60 1.961 . S
Li2 O62 1.956 . S
Li2 O63 1.970 . S
Li3 N53 1.990 . S
Li3 O61 1.961 . S
Li3 O62 1.970 . S
Li3 O63 1.956 . S
C4 C6 1.348 . S
C4 C7 1.356 . S
C4 O60 1.325 . S
N5 C8 1.314 . S
N5 C9 1.279 . S
C6 C4 1.348 . S
C6 C8 1.353 . S
C6 H64 0.929 . S
C7 C4 1.356 . S
C7 C9 1.358 . S
C7 H65 0.930 . S
C8 N5 1.314 . S
C8 C6 1.353 . S
C8 H66 0.930 . S
C9 N5 1.279 . S
C9 C7 1.358 . S
C9 H67 0.930 . S
C10 C13 1.348 . S
C10 C14 1.356 . S
C10 O61 1.325 . S
C11 N12 1.279 . S
C11 C14 1.358 . S
C11 H68 0.930 . S
N12 C11 1.279 . S
N12 C15 1.314 . S
C13 C10 1.348 . S
C13 C15 1.353 . S
C13 H69 0.929 . S
C14 C10 1.356 . S
C14 C11 1.358 . S
C14 H70 0.930 . S
C15 N12 1.314 . S
C15 C13 1.353 . S
C15 H71 0.930 . S
C16 N17 1.314 . S
C16 C21 1.353 . S
C16 H22 0.930 . S
N17 Li0 1.990 . S
N17 C16 1.314 . S
N17 C19 1.279 . S
C18 C19 1.358 . S
C18 C20 1.356 . S
C18 H72 0.930 . S
C19 N17 1.279 . S
C19 C18 1.358 . S
C19 H23 0.930 . S
C20 C18 1.356 . S
C20 C21 1.348 . S
C21 C16 1.353 . S
C21 C20 1.348 . S
C21 H73 0.929 . S
H22 C16 0.930 . S
H23 C19 0.930 . S
C24 N25 1.314 . S
C24 C26 1.353 . S
C24 H30 0.930 . S
N25 Li1 1.990 . S
N25 C24 1.314 . S
N25 C28 1.279 . S
C26 C24 1.353 . S
C26 C29 1.348 . S
C26 H74 0.929 . S
C27 C28 1.358 . S
C27 C29 1.356 . S
C27 H75 0.930 . S
C28 N25 1.279 . S
C28 C27 1.358 . S
C28 H31 0.930 . S
C29 C26 1.348 . S
C29 C27 1.356 . S
H30 C24 0.930 . S
H31 C28 0.930 . S
C32 C34 1.348 . S
C32 C35 1.356 . S
C32 O62 1.325 . S
N33 C36 1.314 . S
N33 C37 1.279 . S
C34 C32 1.348 . S
C34 C36 1.353 . S
C34 H76 0.929 . S
C35 C32 1.356 . S
C35 C37 1.358 . S
C35 H77 0.930 . S
C36 N33 1.314 . S
C36 C34 1.353 . S
C36 H78 0.930 . S
C37 N33 1.279 . S
C37 C35 1.358 . S
C37 H79 0.930 . S
C38 C39 1.348 . S
C38 C40 1.356 . S
C38 O63 1.325 . S
C39 C38 1.348 . S
C39 C41 1.353 . S
C39 H80 0.929 . S
C40 C38 1.356 . S
C40 C42 1.358 . S
C40 H81 0.930 . S
C41 C39 1.353 . S
C41 N43 1.314 . S
C41 H82 0.930 . S
C42 C40 1.358 . S
C42 N43 1.279 . S
C42 H83 0.930 . S
N43 C41 1.314 . S
N43 C42 1.279 . S
C44 C46 1.353 . S
C44 N47 1.314 . S
C44 H50 0.930 . S
C45 N47 1.279 . S
C45 C48 1.358 . S
C45 H51 0.930 . S
C46 C44 1.353 . S
C46 C49 1.348 . S
C46 H84 0.929 . S
N47 Li2 1.990 . S
N47 C44 1.314 . S
N47 C45 1.279 . S
C48 C45 1.358 . S
C48 C49 1.356 . S
C48 H85 0.930 . S
C49 C46 1.348 . S
C49 C48 1.356 . S
H50 C44 0.930 . S
H51 C45 0.930 . S
C52 N53 1.314 . S
C52 C54 1.353 . S
C52 H58 0.930 . S
N53 Li3 1.990 . S
N53 C52 1.314 . S
N53 C56 1.279 . S
C54 C52 1.353 . S
C54 C57 1.348 . S
C54 H86 0.929 . S
C55 C56 1.358 . S
C55 C57 1.356 . S
C55 H87 0.930 . S
C56 N53 1.279 . S
C56 C55 1.358 . S
C56 H59 0.930 . S
C57 C54 1.348 . S
C57 C55 1.356 . S
H58 C52 0.930 . S
H59 C56 0.930 . S
O60 Li0 1.956 . S
O60 Li1 1.970 . S
O60 Li2 1.961 . S
O60 C4 1.325 . S
O61 Li0 1.970 . S
O61 Li1 1.956 . S
O61 Li3 1.961 . S
O61 C10 1.325 . S
O62 Li0 1.961 . S
O62 Li2 1.956 . S
O62 Li3 1.970 . S
O62 C32 1.325 . S
O63 Li1 1.961 . S
O63 Li2 1.970 . S
O63 Li3 1.956 . S
O63 C38 1.325 . S
H64 C6 0.929 . S
H65 C7 0.930 . S
H66 C8 0.930 . S
H67 C9 0.930 . S
H68 C11 0.930 . S
H69 C13 0.929 . S
H70 C14 0.930 . S
H71 C15 0.930 . S
H72 C18 0.930 . S
H73 C21 0.929 . S
H74 C26 0.929 . S
H75 C27 0.930 . S
H76 C34 0.929 . S
H77 C35 0.930 . S
H78 C36 0.930 . S
H79 C37 0.930 . S
H80 C39 0.929 . S
H81 C40 0.930 . S
H82 C41 0.930 . S
H83 C42 0.930 . S
H84 C46 0.929 . S
H85 C48 0.930 . S
H86 C54 0.929 . S
H87 C55 0.930 . S
Li88 N105 1.990 . S
Li88 O148 1.956 . S
Li88 O149 1.970 . S
Li88 O150 1.961 . S
Li89 N113 1.990 . S
Li89 O148 1.970 . S
Li89 O149 1.956 . S
Li89 O151 1.961 . S
Li90 N135 1.990 . S
Li90 O148 1.961 . S
Li90 O150 1.956 . S
Li90 O151 1.970 . S
Li91 N141 1.990 . S
Li91 O149 1.961 . S
Li91 O150 1.970 . S
Li91 O151 1.956 . S
C92 C94 1.348 . S
C92 C95 1.356 . S
C92 O148 1.325 . S
N93 C96 1.314 . S
N93 C97 1.279 . S
C94 C92 1.348 . S
C94 C96 1.353 . S
C94 H152 0.929 . S
C95 C92 1.356 . S
C95 C97 1.358 . S
C95 H153 0.930 . S
C96 N93 1.314 . S
C96 C94 1.353 . S
C96 H154 0.930 . S
C97 N93 1.279 . S
C97 C95 1.358 . S
C97 H155 0.930 . S
C98 C101 1.348 . S
C98 C102 1.356 . S
C98 O149 1.325 . S
C99 N100 1.279 . S
C99 C102 1.358 . S
C99 H156 0.930 . S
N100 C99 1.279 . S
N100 C103 1.314 . S
C101 C98 1.348 . S
C101 C103 1.353 . S
C101 H157 0.929 . S
C102 C98 1.356 . S
C102 C99 1.358 . S
C102 H158 0.930 . S
C103 N100 1.314 . S
C103 C101 1.353 . S
C103 H159 0.930 . S
C104 N105 1.314 . S
C104 C109 1.353 . S
C104 H110 0.930 . S
N105 Li88 1.990 . S
N105 C104 1.314 . S
N105 C107 1.279 . S
C106 C107 1.358 . S
C106 C108 1.356 . S
C106 H160 0.930 . S
C107 N105 1.279 . S
C107 C106 1.358 . S
C107 H111 0.930 . S
C108 C106 1.356 . S
C108 C109 1.348 . S
C109 C104 1.353 . S
C109 C108 1.348 . S
C109 H161 0.929 . S
H110 C104 0.930 . S
H111 C107 0.930 . S
C112 N113 1.314 . S
C112 C114 1.353 . S
C112 H118 0.930 . S
N113 Li89 1.990 . S
N113 C112 1.314 . S
N113 C116 1.279 . S
C114 C112 1.353 . S
C114 C117 1.348 . S
C114 H162 0.929 . S
C115 C116 1.358 . S
C115 C117 1.356 . S
C115 H163 0.930 . S
C116 N113 1.279 . S
C116 C115 1.358 . S
C116 H119 0.930 . S
C117 C114 1.348 . S
C117 C115 1.356 . S
H118 C112 0.930 . S
H119 C116 0.930 . S
C120 C122 1.348 . S
C120 C123 1.356 . S
C120 O150 1.325 . S
N121 C124 1.314 . S
N121 C125 1.279 . S
C122 C120 1.348 . S
C122 C124 1.353 . S
C122 H164 0.929 . S
C123 C120 1.356 . S
C123 C125 1.358 . S
C123 H165 0.930 . S
C124 N121 1.314 . S
C124 C122 1.353 . S
C124 H166 0.930 . S
C125 N121 1.279 . S
C125 C123 1.358 . S
C125 H167 0.930 . S
C126 C127 1.348 . S
C126 C128 1.356 . S
C126 O151 1.325 . S
C127 C126 1.348 . S
C127 C129 1.353 . S
C127 H168 0.929 . S
C128 C126 1.356 . S
C128 C130 1.358 . S
C128 H169 0.930 . S
C129 C127 1.353 . S
C129 N131 1.314 . S
C129 H170 0.930 . S
C130 C128 1.358 . S
C130 N131 1.279 . S
C130 H171 0.930 . S
N131 C129 1.314 . S
N131 C130 1.279 . S
C132 C134 1.353 . S
C132 N135 1.314 . S
C132 H138 0.930 . S
C133 N135 1.279 . S
C133 C136 1.358 . S
C133 H139 0.930 . S
C134 C132 1.353 . S
C134 C137 1.348 . S
C134 H172 0.929 . S
N135 Li90 1.990 . S
N135 C132 1.314 . S
N135 C133 1.279 . S
C136 C133 1.358 . S
C136 C137 1.356 . S
C136 H173 0.930 . S
C137 C134 1.348 . S
C137 C136 1.356 . S
H138 C132 0.930 . S
H139 C133 0.930 . S
C140 N141 1.314 . S
C140 C142 1.353 . S
C140 H146 0.930 . S
N141 Li91 1.990 . S
N141 C140 1.314 . S
N141 C144 1.279 . S
C142 C140 1.353 . S
C142 C145 1.348 . S
C142 H174 0.929 . S
C143 C144 1.358 . S
C143 C145 1.356 . S
C143 H175 0.930 . S
C144 N141 1.279 . S
C144 C143 1.358 . S
C144 H147 0.930 . S
C145 C142 1.348 . S
C145 C143 1.356 . S
H146 C140 0.930 . S
H147 C144 0.930 . S
O148 Li88 1.956 . S
O148 Li89 1.970 . S
O148 Li90 1.961 . S
O148 C92 1.325 . S
O149 Li88 1.970 . S
O149 Li89 1.956 . S
O149 Li91 1.961 . S
O149 C98 1.325 . S
O150 Li88 1.961 . S
O150 Li90 1.956 . S
O150 Li91 1.970 . S
O150 C120 1.325 . S
O151 Li89 1.961 . S
O151 Li90 1.970 . S
O151 Li91 1.956 . S
O151 C126 1.325 . S
H152 C94 0.929 . S
H153 C95 0.930 . S
H154 C96 0.930 . S
H155 C97 0.930 . S
H156 C99 0.930 . S
H157 C101 0.929 . S
H158 C102 0.930 . S
H159 C103 0.930 . S
H160 C106 0.930 . S
H161 C109 0.929 . S
H162 C114 0.929 . S
H163 C115 0.930 . S
H164 C122 0.929 . S
H165 C123 0.930 . S
H166 C124 0.930 . S
H167 C125 0.930 . S
H168 C127 0.929 . S
H169 C128 0.930 . S
H170 C129 0.930 . S
H171 C130 0.930 . S
H172 C134 0.929 . S
H173 C136 0.930 . S
H174 C142 0.929 . S
H175 C143 0.930 . S
Li176 N193 1.990 . S
Li176 O236 1.956 . S
Li176 O237 1.970 . S
Li176 O238 1.961 . S
Li177 N201 1.990 . S
Li177 O236 1.970 . S
Li177 O237 1.956 . S
Li177 O239 1.961 . S
Li178 N223 1.990 . S
Li178 O236 1.961 . S
Li178 O238 1.956 . S
Li178 O239 1.970 . S
Li179 N229 1.990 . S
Li179 O237 1.961 . S
Li179 O238 1.970 . S
Li179 O239 1.956 . S
C180 C182 1.348 . S
C180 C183 1.356 . S
C180 O236 1.325 . S
N181 C184 1.314 . S
N181 C185 1.279 . S
C182 C180 1.348 . S
C182 C184 1.353 . S
C182 H240 0.929 . S
C183 C180 1.356 . S
C183 C185 1.358 . S
C183 H241 0.930 . S
C184 N181 1.314 . S
C184 C182 1.353 . S
C184 H242 0.930 . S
C185 N181 1.279 . S
C185 C183 1.358 . S
C185 H243 0.930 . S
C186 C189 1.348 . S
C186 C190 1.356 . S
C186 O237 1.325 . S
C187 N188 1.279 . S
C187 C190 1.358 . S
C187 H244 0.930 . S
N188 C187 1.279 . S
N188 C191 1.314 . S
C189 C186 1.348 . S
C189 C191 1.353 . S
C189 H245 0.929 . S
C190 C186 1.356 . S
C190 C187 1.358 . S
C190 H246 0.930 . S
C191 N188 1.314 . S
C191 C189 1.353 . S
C191 H247 0.930 . S
C192 N193 1.314 . S
C192 C197 1.353 . S
C192 H198 0.930 . S
N193 Li176 1.990 . S
N193 C192 1.314 . S
N193 C195 1.279 . S
C194 C195 1.358 . S
C194 C196 1.356 . S
C194 H248 0.930 . S
C195 N193 1.279 . S
C195 C194 1.358 . S
C195 H199 0.930 . S
C196 C194 1.356 . S
C196 C197 1.348 . S
C197 C192 1.353 . S
C197 C196 1.348 . S
C197 H249 0.929 . S
H198 C192 0.930 . S
H199 C195 0.930 . S
C200 N201 1.314 . S
C200 C202 1.353 . S
C200 H206 0.930 . S
N201 Li177 1.990 . S
N201 C200 1.314 . S
N201 C204 1.279 . S
C202 C200 1.353 . S
C202 C205 1.348 . S
C202 H250 0.929 . S
C203 C204 1.358 . S
C203 C205 1.356 . S
C203 H251 0.930 . S
C204 N201 1.279 . S
C204 C203 1.358 . S
C204 H207 0.930 . S
C205 C202 1.348 . S
C205 C203 1.356 . S
H206 C200 0.930 . S
H207 C204 0.930 . S
C208 C210 1.348 . S
C208 C211 1.356 . S
C208 O238 1.325 . S
N209 C212 1.314 . S
N209 C213 1.279 . S
C210 C208 1.348 . S
C210 C212 1.353 . S
C210 H252 0.929 . S
C211 C208 1.356 . S
C211 C213 1.358 . S
C211 H253 0.930 . S
C212 N209 1.314 . S
C212 C210 1.353 . S
C212 H254 0.930 . S
C213 N209 1.279 . S
C213 C211 1.358 . S
C213 H255 0.930 . S
C214 C215 1.348 . S
C214 C216 1.356 . S
C214 O239 1.325 . S
C215 C214 1.348 . S
C215 C217 1.353 . S
C215 H256 0.929 . S
C216 C214 1.356 . S
C216 C218 1.358 . S
C216 H257 0.930 . S
C217 C215 1.353 . S
C217 N219 1.314 . S
C217 H258 0.930 . S
C218 C216 1.358 . S
C218 N219 1.279 . S
C218 H259 0.930 . S
N219 C217 1.314 . S
N219 C218 1.279 . S
C220 C222 1.353 . S
C220 N223 1.314 . S
C220 H226 0.930 . S
C221 N223 1.279 . S
C221 C224 1.358 . S
C221 H227 0.930 . S
C222 C220 1.353 . S
C222 C225 1.348 . S
C222 H260 0.929 . S
N223 Li178 1.990 . S
N223 C220 1.314 . S
N223 C221 1.279 . S
C224 C221 1.358 . S
C224 C225 1.356 . S
C224 H261 0.930 . S
C225 C222 1.348 . S
C225 C224 1.356 . S
H226 C220 0.930 . S
H227 C221 0.930 . S
C228 N229 1.314 . S
C228 C230 1.353 . S
C228 H234 0.930 . S
N229 Li179 1.990 . S
N229 C228 1.314 . S
N229 C232 1.279 . S
C230 C228 1.353 . S
C230 C233 1.348 . S
C230 H262 0.929 . S
C231 C232 1.358 . S
C231 C233 1.356 . S
C231 H263 0.930 . S
C232 N229 1.279 . S
C232 C231 1.358 . S
C232 H235 0.930 . S
C233 C230 1.348 . S
C233 C231 1.356 . S
H234 C228 0.930 . S
H235 C232 0.930 . S
O236 Li176 1.956 . S
O236 Li177 1.970 . S
O236 Li178 1.961 . S
O236 C180 1.325 . S
O237 Li176 1.970 . S
O237 Li177 1.956 . S
O237 Li179 1.961 . S
O237 C186 1.325 . S
O238 Li176 1.961 . S
O238 Li178 1.956 . S
O238 Li179 1.970 . S
O238 C208 1.325 . S
O239 Li177 1.961 . S
O239 Li178 1.970 . S
O239 Li179 1.956 . S
O239 C214 1.325 . S
H240 C182 0.929 . S
H241 C183 0.930 . S
H242 C184 0.930 . S
H243 C185 0.930 . S
H244 C187 0.930 . S
H245 C189 0.929 . S
H246 C190 0.930 . S
H247 C191 0.930 . S
H248 C194 0.930 . S
H249 C197 0.929 . S
H250 C202 0.929 . S
H251 C203 0.930 . S
H252 C210 0.929 . S
H253 C211 0.930 . S
H254 C212 0.930 . S
H255 C213 0.930 . S
H256 C215 0.929 . S
H257 C216 0.930 . S
H258 C217 0.930 . S
H259 C218 0.930 . S
H260 C222 0.929 . S
H261 C224 0.930 . S
H262 C230 0.929 . S
H263 C231 0.930 . S
Li264 N281 1.990 . S
Li264 O324 1.956 . S
Li264 O325 1.970 . S
Li264 O326 1.961 . S
Li265 N289 1.990 . S
Li265 O324 1.970 . S
Li265 O325 1.956 . S
Li265 O327 1.961 . S
Li266 N311 1.990 . S
Li266 O324 1.961 . S
Li266 O326 1.956 . S
Li266 O327 1.970 . S
Li267 N317 1.990 . S
Li267 O325 1.961 . S
Li267 O326 1.970 . S
Li267 O327 1.956 . S
C268 C270 1.348 . S
C268 C271 1.356 . S
C268 O324 1.325 . S
N269 C272 1.314 . S
N269 C273 1.279 . S
C270 C268 1.348 . S
C270 C272 1.353 . S
C270 H328 0.929 . S
C271 C268 1.356 . S
C271 C273 1.358 . S
C271 H329 0.930 . S
C272 N269 1.314 . S
C272 C270 1.353 . S
C272 H330 0.930 . S
C273 N269 1.279 . S
C273 C271 1.358 . S
C273 H331 0.930 . S
C274 C277 1.348 . S
C274 C278 1.356 . S
C274 O325 1.325 . S
C275 N276 1.279 . S
C275 C278 1.358 . S
C275 H332 0.930 . S
N276 C275 1.279 . S
N276 C279 1.314 . S
C277 C274 1.348 . S
C277 C279 1.353 . S
C277 H333 0.929 . S
C278 C274 1.356 . S
C278 C275 1.358 . S
C278 H334 0.930 . S
C279 N276 1.314 . S
C279 C277 1.353 . S
C279 H335 0.930 . S
C280 N281 1.314 . S
C280 C285 1.353 . S
C280 H286 0.930 . S
N281 Li264 1.990 . S
N281 C280 1.314 . S
N281 C283 1.279 . S
C282 C283 1.358 . S
C282 C284 1.356 . S
C282 H336 0.930 . S
C283 N281 1.279 . S
C283 C282 1.358 . S
C283 H287 0.930 . S
C284 C282 1.356 . S
C284 C285 1.348 . S
C285 C280 1.353 . S
C285 C284 1.348 . S
C285 H337 0.929 . S
H286 C280 0.930 . S
H287 C283 0.930 . S
C288 N289 1.314 . S
C288 C290 1.353 . S
C288 H294 0.930 . S
N289 Li265 1.990 . S
N289 C288 1.314 . S
N289 C292 1.279 . S
C290 C288 1.353 . S
C290 C293 1.348 . S
C290 H338 0.929 . S
C291 C292 1.358 . S
C291 C293 1.356 . S
C291 H339 0.930 . S
C292 N289 1.279 . S
C292 C291 1.358 . S
C292 H295 0.930 . S
C293 C290 1.348 . S
C293 C291 1.356 . S
H294 C288 0.930 . S
H295 C292 0.930 . S
C296 C298 1.348 . S
C296 C299 1.356 . S
C296 O326 1.325 . S
N297 C300 1.314 . S
N297 C301 1.279 . S
C298 C296 1.348 . S
C298 C300 1.353 . S
C298 H340 0.929 . S
C299 C296 1.356 . S
C299 C301 1.358 . S
C299 H341 0.930 . S
C300 N297 1.314 . S
C300 C298 1.353 . S
C300 H342 0.930 . S
C301 N297 1.279 . S
C301 C299 1.358 . S
C301 H343 0.930 . S
C302 C303 1.348 . S
C302 C304 1.356 . S
C302 O327 1.325 . S
C303 C302 1.348 . S
C303 C305 1.353 . S
C303 H344 0.929 . S
C304 C302 1.356 . S
C304 C306 1.358 . S
C304 H345 0.930 . S
C305 C303 1.353 . S
C305 N307 1.314 . S
C305 H346 0.930 . S
C306 C304 1.358 . S
C306 N307 1.279 . S
C306 H347 0.930 . S
N307 C305 1.314 . S
N307 C306 1.279 . S
C308 C310 1.353 . S
C308 N311 1.314 . S
C308 H314 0.930 . S
C309 N311 1.279 . S
C309 C312 1.358 . S
C309 H315 0.930 . S
C310 C308 1.353 . S
C310 C313 1.348 . S
C310 H348 0.929 . S
N311 Li266 1.990 . S
N311 C308 1.314 . S
N311 C309 1.279 . S
C312 C309 1.358 . S
C312 C313 1.356 . S
C312 H349 0.930 . S
C313 C310 1.348 . S
C313 C312 1.356 . S
H314 C308 0.930 . S
H315 C309 0.930 . S
C316 N317 1.314 . S
C316 C318 1.353 . S
C316 H322 0.930 . S
N317 Li267 1.990 . S
N317 C316 1.314 . S
N317 C320 1.279 . S
C318 C316 1.353 . S
C318 C321 1.348 . S
C318 H350 0.929 . S
C319 C320 1.358 . S
C319 C321 1.356 . S
C319 H351 0.930 . S
C320 N317 1.279 . S
C320 C319 1.358 . S
C320 H323 0.930 . S
C321 C318 1.348 . S
C321 C319 1.356 . S
H322 C316 0.930 . S
H323 C320 0.930 . S
O324 Li264 1.956 . S
O324 Li265 1.970 . S
O324 Li266 1.961 . S
O324 C268 1.325 . S
O325 Li264 1.970 . S
O325 Li265 1.956 . S
O325 Li267 1.961 . S
O325 C274 1.325 . S
O326 Li264 1.961 . S
O326 Li266 1.956 . S
O326 Li267 1.970 . S
O326 C296 1.325 . S
O327 Li265 1.961 . S
O327 Li266 1.970 . S
O327 Li267 1.956 . S
O327 C302 1.325 . S
H328 C270 0.929 . S
H329 C271 0.930 . S
H330 C272 0.930 . S
H331 C273 0.930 . S
H332 C275 0.930 . S
H333 C277 0.929 . S
H334 C278 0.930 . S
H335 C279 0.930 . S
H336 C282 0.930 . S
H337 C285 0.929 . S
H338 C290 0.929 . S
H339 C291 0.930 . S
H340 C298 0.929 . S
H341 C299 0.930 . S
H342 C300 0.930 . S
H343 C301 0.930 . S
H344 C303 0.929 . S
H345 C304 0.930 . S
H346 C305 0.930 . S
H347 C306 0.930 . S
H348 C310 0.929 . S
H349 C312 0.930 . S
H350 C318 0.929 . S
H351 C319 0.930 . S
Li352 N369 1.990 . S
Li352 O412 1.956 . S
Li352 O413 1.970 . S
Li352 O414 1.961 . S
Li353 N377 1.990 . S
Li353 O412 1.970 . S
Li353 O413 1.956 . S
Li353 O415 1.961 . S
Li354 N399 1.990 . S
Li354 O412 1.961 . S
Li354 O414 1.956 . S
Li354 O415 1.970 . S
Li355 N405 1.990 . S
Li355 O413 1.961 . S
Li355 O414 1.970 . S
Li355 O415 1.956 . S
C356 C358 1.348 . S
C356 C359 1.356 . S
C356 O412 1.325 . S
N357 C360 1.314 . S
N357 C361 1.279 . S
C358 C356 1.348 . S
C358 C360 1.353 . S
C358 H416 0.929 . S
C359 C356 1.356 . S
C359 C361 1.358 . S
C359 H417 0.930 . S
C360 N357 1.314 . S
C360 C358 1.353 . S
C360 H418 0.930 . S
C361 N357 1.279 . S
C361 C359 1.358 . S
C361 H419 0.930 . S
C362 C365 1.348 . S
C362 C366 1.356 . S
C362 O413 1.325 . S
C363 N364 1.279 . S
C363 C366 1.358 . S
C363 H420 0.930 . S
N364 C363 1.279 . S
N364 C367 1.314 . S
C365 C362 1.348 . S
C365 C367 1.353 . S
C365 H421 0.929 . S
C366 C362 1.356 . S
C366 C363 1.358 . S
C366 H422 0.930 . S
C367 N364 1.314 . S
C367 C365 1.353 . S
C367 H423 0.930 . S
C368 N369 1.314 . S
C368 C373 1.353 . S
C368 H374 0.930 . S
N369 Li352 1.990 . S
N369 C368 1.314 . S
N369 C371 1.279 . S
C370 C371 1.358 . S
C370 C372 1.356 . S
C370 H424 0.930 . S
C371 N369 1.279 . S
C371 C370 1.358 . S
C371 H375 0.930 . S
C372 C370 1.356 . S
C372 C373 1.348 . S
C373 C368 1.353 . S
C373 C372 1.348 . S
C373 H425 0.929 . S
H374 C368 0.930 . S
H375 C371 0.930 . S
C376 N377 1.314 . S
C376 C378 1.353 . S
C376 H382 0.930 . S
N377 Li353 1.990 . S
N377 C376 1.314 . S
N377 C380 1.279 . S
C378 C376 1.353 . S
C378 C381 1.348 . S
C378 H426 0.929 . S
C379 C380 1.358 . S
C379 C381 1.356 . S
C379 H427 0.930 . S
C380 N377 1.279 . S
C380 C379 1.358 . S
C380 H383 0.930 . S
C381 C378 1.348 . S
C381 C379 1.356 . S
H382 C376 0.930 . S
H383 C380 0.930 . S
C384 C386 1.348 . S
C384 C387 1.356 . S
C384 O414 1.325 . S
N385 C388 1.314 . S
N385 C389 1.279 . S
C386 C384 1.348 . S
C386 C388 1.353 . S
C386 H428 0.929 . S
C387 C384 1.356 . S
C387 C389 1.358 . S
C387 H429 0.930 . S
C388 N385 1.314 . S
C388 C386 1.353 . S
C388 H430 0.930 . S
C389 N385 1.279 . S
C389 C387 1.358 . S
C389 H431 0.930 . S
C390 C391 1.348 . S
C390 C392 1.356 . S
C390 O415 1.325 . S
C391 C390 1.348 . S
C391 C393 1.353 . S
C391 H432 0.929 . S
C392 C390 1.356 . S
C392 C394 1.358 . S
C392 H433 0.930 . S
C393 C391 1.353 . S
C393 N395 1.314 . S
C393 H434 0.930 . S
C394 C392 1.358 . S
C394 N395 1.279 . S
C394 H435 0.930 . S
N395 C393 1.314 . S
N395 C394 1.279 . S
C396 C398 1.353 . S
C396 N399 1.314 . S
C396 H402 0.930 . S
C397 N399 1.279 . S
C397 C400 1.358 . S
C397 H403 0.930 . S
C398 C396 1.353 . S
C398 C401 1.348 . S
C398 H436 0.929 . S
N399 Li354 1.990 . S
N399 C396 1.314 . S
N399 C397 1.279 . S
C400 C397 1.358 . S
C400 C401 1.356 . S
C400 H437 0.930 . S
C401 C398 1.348 . S
C401 C400 1.356 . S
H402 C396 0.930 . S
H403 C397 0.930 . S
C404 N405 1.314 . S
C404 C406 1.353 . S
C404 H410 0.930 . S
N405 Li355 1.990 . S
N405 C404 1.314 . S
N405 C408 1.279 . S
C406 C404 1.353 . S
C406 C409 1.348 . S
C406 H438 0.929 . S
C407 C408 1.358 . S
C407 C409 1.356 . S
C407 H439 0.930 . S
C408 N405 1.279 . S
C408 C407 1.358 . S
C408 H411 0.930 . S
C409 C406 1.348 . S
C409 C407 1.356 . S
H410 C404 0.930 . S
H411 C408 0.930 . S
O412 Li352 1.956 . S
O412 Li353 1.970 . S
O412 Li354 1.961 . S
O412 C356 1.325 . S
O413 Li352 1.970 . S
O413 Li353 1.956 . S
O413 Li355 1.961 . S
O413 C362 1.325 . S
O414 Li352 1.961 . S
O414 Li354 1.956 . S
O414 Li355 1.970 . S
O414 C384 1.325 . S
O415 Li353 1.961 . S
O415 Li354 1.970 . S
O415 Li355 1.956 . S
O415 C390 1.325 . S
H416 C358 0.929 . S
H417 C359 0.930 . S
H418 C360 0.930 . S
H419 C361 0.930 . S
H420 C363 0.930 . S
H421 C365 0.929 . S
H422 C366 0.930 . S
H423 C367 0.930 . S
H424 C370 0.930 . S
H425 C373 0.929 . S
H426 C378 0.929 . S
H427 C379 0.930 . S
H428 C386 0.929 . S
H429 C387 0.930 . S
H430 C388 0.930 . S
H431 C389 0.930 . S
H432 C391 0.929 . S
H433 C392 0.930 . S
H434 C393 0.930 . S
H435 C394 0.930 . S
H436 C398 0.929 . S
H437 C400 0.930 . S
H438 C406 0.929 . S
H439 C407 0.930 . S
Li440 N457 1.990 . S
Li440 O500 1.956 . S
Li440 O501 1.970 . S
Li440 O502 1.961 . S
Li441 N465 1.990 . S
Li441 O500 1.970 . S
Li441 O501 1.956 . S
Li441 O503 1.961 . S
Li442 N487 1.990 . S
Li442 O500 1.961 . S
Li442 O502 1.956 . S
Li442 O503 1.970 . S
Li443 N493 1.990 . S
Li443 O501 1.961 . S
Li443 O502 1.970 . S
Li443 O503 1.956 . S
C444 C446 1.348 . S
C444 C447 1.356 . S
C444 O500 1.325 . S
N445 C448 1.314 . S
N445 C449 1.279 . S
C446 C444 1.348 . S
C446 C448 1.353 . S
C446 H504 0.929 . S
C447 C444 1.356 . S
C447 C449 1.358 . S
C447 H505 0.930 . S
C448 N445 1.314 . S
C448 C446 1.353 . S
C448 H506 0.930 . S
C449 N445 1.279 . S
C449 C447 1.358 . S
C449 H507 0.930 . S
C450 C453 1.348 . S
C450 C454 1.356 . S
C450 O501 1.325 . S
C451 N452 1.279 . S
C451 C454 1.358 . S
C451 H508 0.930 . S
N452 C451 1.279 . S
N452 C455 1.314 . S
C453 C450 1.348 . S
C453 C455 1.353 . S
C453 H509 0.929 . S
C454 C450 1.356 . S
C454 C451 1.358 . S
C454 H510 0.930 . S
C455 N452 1.314 . S
C455 C453 1.353 . S
C455 H511 0.930 . S
C456 N457 1.314 . S
C456 C461 1.353 . S
C456 H462 0.930 . S
N457 Li440 1.990 . S
N457 C456 1.314 . S
N457 C459 1.279 . S
C458 C459 1.358 . S
C458 C460 1.356 . S
C458 H512 0.930 . S
C459 N457 1.279 . S
C459 C458 1.358 . S
C459 H463 0.930 . S
C460 C458 1.356 . S
C460 C461 1.348 . S
C461 C456 1.353 . S
C461 C460 1.348 . S
C461 H513 0.929 . S
H462 C456 0.930 . S
H463 C459 0.930 . S
C464 N465 1.314 . S
C464 C466 1.353 . S
C464 H470 0.930 . S
N465 Li441 1.990 . S
N465 C464 1.314 . S
N465 C468 1.279 . S
C466 C464 1.353 . S
C466 C469 1.348 . S
C466 H514 0.929 . S
C467 C468 1.358 . S
C467 C469 1.356 . S
C467 H515 0.930 . S
C468 N465 1.279 . S
C468 C467 1.358 . S
C468 H471 0.930 . S
C469 C466 1.348 . S
C469 C467 1.356 . S
H470 C464 0.930 . S
H471 C468 0.930 . S
C472 C474 1.348 . S
C472 C475 1.356 . S
C472 O502 1.325 . S
N473 C476 1.314 . S
N473 C477 1.279 . S
C474 C472 1.348 . S
C474 C476 1.353 . S
C474 H516 0.929 . S
C475 C472 1.356 . S
C475 C477 1.358 . S
C475 H517 0.930 . S
C476 N473 1.314 . S
C476 C474 1.353 . S
C476 H518 0.930 . S
C477 N473 1.279 . S
C477 C475 1.358 . S
C477 H519 0.930 . S
C478 C479 1.348 . S
C478 C480 1.356 . S
C478 O503 1.325 . S
C479 C478 1.348 . S
C479 C481 1.353 . S
C479 H520 0.929 . S
C480 C478 1.356 . S
C480 C482 1.358 . S
C480 H521 0.930 . S
C481 C479 1.353 . S
C481 N483 1.314 . S
C481 H522 0.930 . S
C482 C480 1.358 . S
C482 N483 1.279 . S
C482 H523 0.930 . S
N483 C481 1.314 . S
N483 C482 1.279 . S
C484 C486 1.353 . S
C484 N487 1.314 . S
C484 H490 0.930 . S
C485 N487 1.279 . S
C485 C488 1.358 . S
C485 H491 0.930 . S
C486 C484 1.353 . S
C486 C489 1.348 . S
C486 H524 0.929 . S
N487 Li442 1.990 . S
N487 C484 1.314 . S
N487 C485 1.279 . S
C488 C485 1.358 . S
C488 C489 1.356 . S
C488 H525 0.930 . S
C489 C486 1.348 . S
C489 C488 1.356 . S
H490 C484 0.930 . S
H491 C485 0.930 . S
C492 N493 1.314 . S
C492 C494 1.353 . S
C492 H498 0.930 . S
N493 Li443 1.990 . S
N493 C492 1.314 . S
N493 C496 1.279 . S
C494 C492 1.353 . S
C494 C497 1.348 . S
C494 H526 0.929 . S
C495 C496 1.358 . S
C495 C497 1.356 . S
C495 H527 0.930 . S
C496 N493 1.279 . S
C496 C495 1.358 . S
C496 H499 0.930 . S
C497 C494 1.348 . S
C497 C495 1.356 . S
H498 C492 0.930 . S
H499 C496 0.930 . S
O500 Li440 1.956 . S
O500 Li441 1.970 . S
O500 Li442 1.961 . S
O500 C444 1.325 . S
O501 Li440 1.970 . S
O501 Li441 1.956 . S
O501 Li443 1.961 . S
O501 C450 1.325 . S
O502 Li440 1.961 . S
O502 Li442 1.956 . S
O502 Li443 1.970 . S
O502 C472 1.325 . S
O503 Li441 1.961 . S
O503 Li442 1.970 . S
O503 Li443 1.956 . S
O503 C478 1.325 . S
H504 C446 0.929 . S
H505 C447 0.930 . S
H506 C448 0.930 . S
H507 C449 0.930 . S
H508 C451 0.930 . S
H509 C453 0.929 . S
H510 C454 0.930 . S
H511 C455 0.930 . S
H512 C458 0.930 . S
H513 C461 0.929 . S
H514 C466 0.929 . S
H515 C467 0.930 . S
H516 C474 0.929 . S
H517 C475 0.930 . S
H518 C476 0.930 . S
H519 C477 0.930 . S
H520 C479 0.929 . S
H521 C480 0.930 . S
H522 C481 0.930 . S
H523 C482 0.930 . S
H524 C486 0.929 . S
H525 C488 0.930 . S
H526 C494 0.929 . S
H527 C495 0.930 . S
Li528 N545 1.990 . S
Li528 O588 1.956 . S
Li528 O589 1.970 . S
Li528 O590 1.961 . S
Li529 N553 1.990 . S
Li529 O588 1.970 . S
Li529 O589 1.956 . S
Li529 O591 1.961 . S
Li530 N575 1.990 . S
Li530 O588 1.961 . S
Li530 O590 1.956 . S
Li530 O591 1.970 . S
Li531 N581 1.990 . S
Li531 O589 1.961 . S
Li531 O590 1.970 . S
Li531 O591 1.956 . S
C532 C534 1.348 . S
C532 C535 1.356 . S
C532 O588 1.325 . S
N533 C536 1.314 . S
N533 C537 1.279 . S
C534 C532 1.348 . S
C534 C536 1.353 . S
C534 H592 0.929 . S
C535 C532 1.356 . S
C535 C537 1.358 . S
C535 H593 0.930 . S
C536 N533 1.314 . S
C536 C534 1.353 . S
C536 H594 0.930 . S
C537 N533 1.279 . S
C537 C535 1.358 . S
C537 H595 0.930 . S
C538 C541 1.348 . S
C538 C542 1.356 . S
C538 O589 1.325 . S
C539 N540 1.279 . S
C539 C542 1.358 . S
C539 H596 0.930 . S
N540 C539 1.279 . S
N540 C543 1.314 . S
C541 C538 1.348 . S
C541 C543 1.353 . S
C541 H597 0.929 . S
C542 C538 1.356 . S
C542 C539 1.358 . S
C542 H598 0.930 . S
C543 N540 1.314 . S
C543 C541 1.353 . S
C543 H599 0.930 . S
C544 N545 1.314 . S
C544 C549 1.353 . S
C544 H550 0.930 . S
N545 Li528 1.990 . S
N545 C544 1.314 . S
N545 C547 1.279 . S
C546 C547 1.358 . S
C546 C548 1.356 . S
C546 H600 0.930 . S
C547 N545 1.279 . S
C547 C546 1.358 . S
C547 H551 0.930 . S
C548 C546 1.356 . S
C548 C549 1.348 . S
C549 C544 1.353 . S
C549 C548 1.348 . S
C549 H601 0.929 . S
H550 C544 0.930 . S
H551 C547 0.930 . S
C552 N553 1.314 . S
C552 C554 1.353 . S
C552 H558 0.930 . S
N553 Li529 1.990 . S
N553 C552 1.314 . S
N553 C556 1.279 . S
C554 C552 1.353 . S
C554 C557 1.348 . S
C554 H602 0.929 . S
C555 C556 1.358 . S
C555 C557 1.356 . S
C555 H603 0.930 . S
C556 N553 1.279 . S
C556 C555 1.358 . S
C556 H559 0.930 . S
C557 C554 1.348 . S
C557 C555 1.356 . S
H558 C552 0.930 . S
H559 C556 0.930 . S
C560 C562 1.348 . S
C560 C563 1.356 . S
C560 O590 1.325 . S
N561 C564 1.314 . S
N561 C565 1.279 . S
C562 C560 1.348 . S
C562 C564 1.353 . S
C562 H604 0.929 . S
C563 C560 1.356 . S
C563 C565 1.358 . S
C563 H605 0.930 . S
C564 N561 1.314 . S
C564 C562 1.353 . S
C564 H606 0.930 . S
C565 N561 1.279 . S
C565 C563 1.358 . S
C565 H607 0.930 . S
C566 C567 1.348 . S
C566 C568 1.356 . S
C566 O591 1.325 . S
C567 C566 1.348 . S
C567 C569 1.353 . S
C567 H608 0.929 . S
C568 C566 1.356 . S
C568 C570 1.358 . S
C568 H609 0.930 . S
C569 C567 1.353 . S
C569 N571 1.314 . S
C569 H610 0.930 . S
C570 C568 1.358 . S
C570 N571 1.279 . S
C570 H611 0.930 . S
N571 C569 1.314 . S
N571 C570 1.279 . S
C572 C574 1.353 . S
C572 N575 1.314 . S
C572 H578 0.930 . S
C573 N575 1.279 . S
C573 C576 1.358 . S
C573 H579 0.930 . S
C574 C572 1.353 . S
C574 C577 1.348 . S
C574 H612 0.929 . S
N575 Li530 1.990 . S
N575 C572 1.314 . S
N575 C573 1.279 . S
C576 C573 1.358 . S
C576 C577 1.356 . S
C576 H613 0.930 . S
C577 C574 1.348 . S
C577 C576 1.356 . S
H578 C572 0.930 . S
H579 C573 0.930 . S
C580 N581 1.314 . S
C580 C582 1.353 . S
C580 H586 0.930 . S
N581 Li531 1.990 . S
N581 C580 1.314 . S
N581 C584 1.279 . S
C582 C580 1.353 . S
C582 C585 1.348 . S
C582 H614 0.929 . S
C583 C584 1.358 . S
C583 C585 1.356 . S
C583 H615 0.930 . S
C584 N581 1.279 . S
C584 C583 1.358 . S
C584 H587 0.930 . S
C585 C582 1.348 . S
C585 C583 1.356 . S
H586 C580 0.930 . S
H587 C584 0.930 . S
O588 Li528 1.956 . S
O588 Li529 1.970 . S
O588 Li530 1.961 . S
O588 C532 1.325 . S
O589 Li528 1.970 . S
O589 Li529 1.956 . S
O589 Li531 1.961 . S
O589 C538 1.325 . S
O590 Li528 1.961 . S
O590 Li530 1.956 . S
O590 Li531 1.970 . S
O590 C560 1.325 . S
O591 Li529 1.961 . S
O591 Li530 1.970 . S
O591 Li531 1.956 . S
O591 C566 1.325 . S
H592 C534 0.929 . S
H593 C535 0.930 . S
H594 C536 0.930 . S
H595 C537 0.930 . S
H596 C539 0.930 . S
H597 C541 0.929 . S
H598 C542 0.930 . S
H599 C543 0.930 . S
H600 C546 0.930 . S
H601 C549 0.929 . S
H602 C554 0.929 . S
H603 C555 0.930 . S
H604 C562 0.929 . S
H605 C563 0.930 . S
H606 C564 0.930 . S
H607 C565 0.930 . S
H608 C567 0.929 . S
H609 C568 0.930 . S
H610 C569 0.930 . S
H611 C570 0.930 . S
H612 C574 0.929 . S
H613 C576 0.930 . S
H614 C582 0.929 . S
H615 C583 0.930 . S
Li616 N633 1.990 . S
Li616 O676 1.956 . S
Li616 O677 1.970 . S
Li616 O678 1.961 . S
Li617 N641 1.990 . S
Li617 O676 1.970 . S
Li617 O677 1.956 . S
Li617 O679 1.961 . S
Li618 N663 1.990 . S
Li618 O676 1.961 . S
Li618 O678 1.956 . S
Li618 O679 1.970 . S
Li619 N669 1.990 . S
Li619 O677 1.961 . S
Li619 O678 1.970 . S
Li619 O679 1.956 . S
C620 C622 1.348 . S
C620 C623 1.356 . S
C620 O676 1.325 . S
N621 C624 1.314 . S
N621 C625 1.279 . S
C622 C620 1.348 . S
C622 C624 1.353 . S
C622 H680 0.929 . S
C623 C620 1.356 . S
C623 C625 1.358 . S
C623 H681 0.930 . S
C624 N621 1.314 . S
C624 C622 1.353 . S
C624 H682 0.930 . S
C625 N621 1.279 . S
C625 C623 1.358 . S
C625 H683 0.930 . S
C626 C629 1.348 . S
C626 C630 1.356 . S
C626 O677 1.325 . S
C627 N628 1.279 . S
C627 C630 1.358 . S
C627 H684 0.930 . S
N628 C627 1.279 . S
N628 C631 1.314 . S
C629 C626 1.348 . S
C629 C631 1.353 . S
C629 H685 0.929 . S
C630 C626 1.356 . S
C630 C627 1.358 . S
C630 H686 0.930 . S
C631 N628 1.314 . S
C631 C629 1.353 . S
C631 H687 0.930 . S
C632 N633 1.314 . S
C632 C637 1.353 . S
C632 H638 0.930 . S
N633 Li616 1.990 . S
N633 C632 1.314 . S
N633 C635 1.279 . S
C634 C635 1.358 . S
C634 C636 1.356 . S
C634 H688 0.930 . S
C635 N633 1.279 . S
C635 C634 1.358 . S
C635 H639 0.930 . S
C636 C634 1.356 . S
C636 C637 1.348 . S
C637 C632 1.353 . S
C637 C636 1.348 . S
C637 H689 0.929 . S
H638 C632 0.930 . S
H639 C635 0.930 . S
C640 N641 1.314 . S
C640 C642 1.353 . S
C640 H646 0.930 . S
N641 Li617 1.990 . S
N641 C640 1.314 . S
N641 C644 1.279 . S
C642 C640 1.353 . S
C642 C645 1.348 . S
C642 H690 0.929 . S
C643 C644 1.358 . S
C643 C645 1.356 . S
C643 H691 0.930 . S
C644 N641 1.279 . S
C644 C643 1.358 . S
C644 H647 0.930 . S
C645 C642 1.348 . S
C645 C643 1.356 . S
H646 C640 0.930 . S
H647 C644 0.930 . S
C648 C650 1.348 . S
C648 C651 1.356 . S
C648 O678 1.325 . S
N649 C652 1.314 . S
N649 C653 1.279 . S
C650 C648 1.348 . S
C650 C652 1.353 . S
C650 H692 0.929 . S
C651 C648 1.356 . S
C651 C653 1.358 . S
C651 H693 0.930 . S
C652 N649 1.314 . S
C652 C650 1.353 . S
C652 H694 0.930 . S
C653 N649 1.279 . S
C653 C651 1.358 . S
C653 H695 0.930 . S
C654 C655 1.348 . S
C654 C656 1.356 . S
C654 O679 1.325 . S
C655 C654 1.348 . S
C655 C657 1.353 . S
C655 H696 0.929 . S
C656 C654 1.356 . S
C656 C658 1.358 . S
C656 H697 0.930 . S
C657 C655 1.353 . S
C657 N659 1.314 . S
C657 H698 0.930 . S
C658 C656 1.358 . S
C658 N659 1.279 . S
C658 H699 0.930 . S
N659 C657 1.314 . S
N659 C658 1.279 . S
C660 C662 1.353 . S
C660 N663 1.314 . S
C660 H666 0.930 . S
C661 N663 1.279 . S
C661 C664 1.358 . S
C661 H667 0.930 . S
C662 C660 1.353 . S
C662 C665 1.348 . S
C662 H700 0.929 . S
N663 Li618 1.990 . S
N663 C660 1.314 . S
N663 C661 1.279 . S
C664 C661 1.358 . S
C664 C665 1.356 . S
C664 H701 0.930 . S
C665 C662 1.348 . S
C665 C664 1.356 . S
H666 C660 0.930 . S
H667 C661 0.930 . S
C668 N669 1.314 . S
C668 C670 1.353 . S
C668 H674 0.930 . S
N669 Li619 1.990 . S
N669 C668 1.314 . S
N669 C672 1.279 . S
C670 C668 1.353 . S
C670 C673 1.348 . S
C670 H702 0.929 . S
C671 C672 1.358 . S
C671 C673 1.356 . S
C671 H703 0.930 . S
C672 N669 1.279 . S
C672 C671 1.358 . S
C672 H675 0.930 . S
C673 C670 1.348 . S
C673 C671 1.356 . S
H674 C668 0.930 . S
H675 C672 0.930 . S
O676 Li616 1.956 . S
O676 Li617 1.970 . S
O676 Li618 1.961 . S
O676 C620 1.325 . S
O677 Li616 1.970 . S
O677 Li617 1.956 . S
O677 Li619 1.961 . S
O677 C626 1.325 . S
O678 Li616 1.961 . S
O678 Li618 1.956 . S
O678 Li619 1.970 . S
O678 C648 1.325 . S
O679 Li617 1.961 . S
O679 Li618 1.970 . S
O679 Li619 1.956 . S
O679 C654 1.325 . S
H680 C622 0.929 . S
H681 C623 0.930 . S
H682 C624 0.930 . S
H683 C625 0.930 . S
H684 C627 0.930 . S
H685 C629 0.929 . S
H686 C630 0.930 . S
H687 C631 0.930 . S
H688 C634 0.930 . S
H689 C637 0.929 . S
H690 C642 0.929 . S
H691 C643 0.930 . S
H692 C650 0.929 . S
H693 C651 0.930 . S
H694 C652 0.930 . S
H695 C653 0.930 . S
H696 C655 0.929 . S
H697 C656 0.930 . S
H698 C657 0.930 . S
H699 C658 0.930 . S
H700 C662 0.929 . S
H701 C664 0.930 . S
H702 C670 0.929 . S
H703 C671 0.930 . S
Li704 N721 1.990 . S
Li704 O764 1.956 . S
Li704 O765 1.970 . S
Li704 O766 1.961 . S
Li705 N729 1.990 . S
Li705 O764 1.970 . S
Li705 O765 1.956 . S
Li705 O767 1.961 . S
Li706 N751 1.990 . S
Li706 O764 1.961 . S
Li706 O766 1.956 . S
Li706 O767 1.970 . S
Li707 N757 1.990 . S
Li707 O765 1.961 . S
Li707 O766 1.970 . S
Li707 O767 1.956 . S
C708 C710 1.348 . S
C708 C711 1.356 . S
C708 O764 1.325 . S
N709 C712 1.314 . S
N709 C713 1.279 . S
C710 C708 1.348 . S
C710 C712 1.353 . S
C710 H768 0.929 . S
C711 C708 1.356 . S
C711 C713 1.358 . S
C711 H769 0.930 . S
C712 N709 1.314 . S
C712 C710 1.353 . S
C712 H770 0.930 . S
C713 N709 1.279 . S
C713 C711 1.358 . S
C713 H771 0.930 . S
C714 C717 1.348 . S
C714 C718 1.356 . S
C714 O765 1.325 . S
C715 N716 1.279 . S
C715 C718 1.358 . S
C715 H772 0.930 . S
N716 C715 1.279 . S
N716 C719 1.314 . S
C717 C714 1.348 . S
C717 C719 1.353 . S
C717 H773 0.929 . S
C718 C714 1.356 . S
C718 C715 1.358 . S
C718 H774 0.930 . S
C719 N716 1.314 . S
C719 C717 1.353 . S
C719 H775 0.930 . S
C720 N721 1.314 . S
C720 C725 1.353 . S
C720 H726 0.930 . S
N721 Li704 1.990 . S
N721 C720 1.314 . S
N721 C723 1.279 . S
C722 C723 1.358 . S
C722 C724 1.356 . S
C722 H776 0.930 . S
C723 N721 1.279 . S
C723 C722 1.358 . S
C723 H727 0.930 . S
C724 C722 1.356 . S
C724 C725 1.348 . S
C725 C720 1.353 . S
C725 C724 1.348 . S
C725 H777 0.929 . S
H726 C720 0.930 . S
H727 C723 0.930 . S
C728 N729 1.314 . S
C728 C730 1.353 . S
C728 H734 0.930 . S
N729 Li705 1.990 . S
N729 C728 1.314 . S
N729 C732 1.279 . S
C730 C728 1.353 . S
C730 C733 1.348 . S
C730 H778 0.929 . S
C731 C732 1.358 . S
C731 C733 1.356 . S
C731 H779 0.930 . S
C732 N729 1.279 . S
C732 C731 1.358 . S
C732 H735 0.930 . S
C733 C730 1.348 . S
C733 C731 1.356 . S
H734 C728 0.930 . S
H735 C732 0.930 . S
C736 C738 1.348 . S
C736 C739 1.356 . S
C736 O766 1.325 . S
N737 C740 1.314 . S
N737 C741 1.279 . S
C738 C736 1.348 . S
C738 C740 1.353 . S
C738 H780 0.929 . S
C739 C736 1.356 . S
C739 C741 1.358 . S
C739 H781 0.930 . S
C740 N737 1.314 . S
C740 C738 1.353 . S
C740 H782 0.930 . S
C741 N737 1.279 . S
C741 C739 1.358 . S
C741 H783 0.930 . S
C742 C743 1.348 . S
C742 C744 1.356 . S
C742 O767 1.325 . S
C743 C742 1.348 . S
C743 C745 1.353 . S
C743 H784 0.929 . S
C744 C742 1.356 . S
C744 C746 1.358 . S
C744 H785 0.930 . S
C745 C743 1.353 . S
C745 N747 1.314 . S
C745 H786 0.930 . S
C746 C744 1.358 . S
C746 N747 1.279 . S
C746 H787 0.930 . S
N747 C745 1.314 . S
N747 C746 1.279 . S
C748 C750 1.353 . S
C748 N751 1.314 . S
C748 H754 0.930 . S
C749 N751 1.279 . S
C749 C752 1.358 . S
C749 H755 0.930 . S
C750 C748 1.353 . S
C750 C753 1.348 . S
C750 H788 0.929 . S
N751 Li706 1.990 . S
N751 C748 1.314 . S
N751 C749 1.279 . S
C752 C749 1.358 . S
C752 C753 1.356 . S
C752 H789 0.930 . S
C753 C750 1.348 . S
C753 C752 1.356 . S
H754 C748 0.930 . S
H755 C749 0.930 . S
C756 N757 1.314 . S
C756 C758 1.353 . S
C756 H762 0.930 . S
N757 Li707 1.990 . S
N757 C756 1.314 . S
N757 C760 1.279 . S
C758 C756 1.353 . S
C758 C761 1.348 . S
C758 H790 0.929 . S
C759 C760 1.358 . S
C759 C761 1.356 . S
C759 H791 0.930 . S
C760 N757 1.279 . S
C760 C759 1.358 . S
C760 H763 0.930 . S
C761 C758 1.348 . S
C761 C759 1.356 . S
H762 C756 0.930 . S
H763 C760 0.930 . S
O764 Li704 1.956 . S
O764 Li705 1.970 . S
O764 Li706 1.961 . S
O764 C708 1.325 . S
O765 Li704 1.970 . S
O765 Li705 1.956 . S
O765 Li707 1.961 . S
O765 C714 1.325 . S
O766 Li704 1.961 . S
O766 Li706 1.956 . S
O766 Li707 1.970 . S
O766 C736 1.325 . S
O767 Li705 1.961 . S
O767 Li706 1.970 . S
O767 Li707 1.956 . S
O767 C742 1.325 . S
H768 C710 0.929 . S
H769 C711 0.930 . S
H770 C712 0.930 . S
H771 C713 0.930 . S
H772 C715 0.930 . S
H773 C717 0.929 . S
H774 C718 0.930 . S
H775 C719 0.930 . S
H776 C722 0.930 . S
H777 C725 0.929 . S
H778 C730 0.929 . S
H779 C731 0.930 . S
H780 C738 0.929 . S
H781 C739 0.930 . S
H782 C740 0.930 . S
H783 C741 0.930 . S
H784 C743 0.929 . S
H785 C744 0.930 . S
H786 C745 0.930 . S
H787 C746 0.930 . S
H788 C750 0.929 . S
H789 C752 0.930 . S
H790 C758 0.929 . S
H791 C759 0.930 . S
Li792 N809 1.990 . S
Li792 O852 1.956 . S
Li792 O853 1.970 . S
Li792 O854 1.961 . S
Li793 N817 1.990 . S
Li793 O852 1.970 . S
Li793 O853 1.956 . S
Li793 O855 1.961 . S
Li794 N839 1.990 . S
Li794 O852 1.961 . S
Li794 O854 1.956 . S
Li794 O855 1.970 . S
Li795 N845 1.990 . S
Li795 O853 1.961 . S
Li795 O854 1.970 . S
Li795 O855 1.956 . S
C796 C798 1.348 . S
C796 C799 1.356 . S
C796 O852 1.325 . S
N797 C800 1.314 . S
N797 C801 1.279 . S
C798 C796 1.348 . S
C798 C800 1.353 . S
C798 H856 0.929 . S
C799 C796 1.356 . S
C799 C801 1.358 . S
C799 H857 0.930 . S
C800 N797 1.314 . S
C800 C798 1.353 . S
C800 H858 0.930 . S
C801 N797 1.279 . S
C801 C799 1.358 . S
C801 H859 0.930 . S
C802 C805 1.348 . S
C802 C806 1.356 . S
C802 O853 1.325 . S
C803 N804 1.279 . S
C803 C806 1.358 . S
C803 H860 0.930 . S
N804 C803 1.279 . S
N804 C807 1.314 . S
C805 C802 1.348 . S
C805 C807 1.353 . S
C805 H861 0.929 . S
C806 C802 1.356 . S
C806 C803 1.358 . S
C806 H862 0.930 . S
C807 N804 1.314 . S
C807 C805 1.353 . S
C807 H863 0.930 . S
C808 N809 1.314 . S
C808 C813 1.353 . S
C808 H814 0.930 . S
N809 Li792 1.990 . S
N809 C808 1.314 . S
N809 C811 1.279 . S
C810 C811 1.358 . S
C810 C812 1.356 . S
C810 H864 0.930 . S
C811 N809 1.279 . S
C811 C810 1.358 . S
C811 H815 0.930 . S
C812 C810 1.356 . S
C812 C813 1.348 . S
C813 C808 1.353 . S
C813 C812 1.348 . S
C813 H865 0.929 . S
H814 C808 0.930 . S
H815 C811 0.930 . S
C816 N817 1.314 . S
C816 C818 1.353 . S
C816 H822 0.930 . S
N817 Li793 1.990 . S
N817 C816 1.314 . S
N817 C820 1.279 . S
C818 C816 1.353 . S
C818 C821 1.348 . S
C818 H866 0.929 . S
C819 C820 1.358 . S
C819 C821 1.356 . S
C819 H867 0.930 . S
C820 N817 1.279 . S
C820 C819 1.358 . S
C820 H823 0.930 . S
C821 C818 1.348 . S
C821 C819 1.356 . S
H822 C816 0.930 . S
H823 C820 0.930 . S
C824 C826 1.348 . S
C824 C827 1.356 . S
C824 O854 1.325 . S
N825 C828 1.314 . S
N825 C829 1.279 . S
C826 C824 1.348 . S
C826 C828 1.353 . S
C826 H868 0.929 . S
C827 C824 1.356 . S
C827 C829 1.358 . S
C827 H869 0.930 . S
C828 N825 1.314 . S
C828 C826 1.353 . S
C828 H870 0.930 . S
C829 N825 1.279 . S
C829 C827 1.358 . S
C829 H871 0.930 . S
C830 C831 1.348 . S
C830 C832 1.356 . S
C830 O855 1.325 . S
C831 C830 1.348 . S
C831 C833 1.353 . S
C831 H872 0.929 . S
C832 C830 1.356 . S
C832 C834 1.358 . S
C832 H873 0.930 . S
C833 C831 1.353 . S
C833 N835 1.314 . S
C833 H874 0.930 . S
C834 C832 1.358 . S
C834 N835 1.279 . S
C834 H875 0.930 . S
N835 C833 1.314 . S
N835 C834 1.279 . S
C836 C838 1.353 . S
C836 N839 1.314 . S
C836 H842 0.930 . S
C837 N839 1.279 . S
C837 C840 1.358 . S
C837 H843 0.930 . S
C838 C836 1.353 . S
C838 C841 1.348 . S
C838 H876 0.929 . S
N839 Li794 1.990 . S
N839 C836 1.314 . S
N839 C837 1.279 . S
C840 C837 1.358 . S
C840 C841 1.356 . S
C840 H877 0.930 . S
C841 C838 1.348 . S
C841 C840 1.356 . S
H842 C836 0.930 . S
H843 C837 0.930 . S
C844 N845 1.314 . S
C844 C846 1.353 . S
C844 H850 0.930 . S
N845 Li795 1.990 . S
N845 C844 1.314 . S
N845 C848 1.279 . S
C846 C844 1.353 . S
C846 C849 1.348 . S
C846 H878 0.929 . S
C847 C848 1.358 . S
C847 C849 1.356 . S
C847 H879 0.930 . S
C848 N845 1.279 . S
C848 C847 1.358 . S
C848 H851 0.930 . S
C849 C846 1.348 . S
C849 C847 1.356 . S
H850 C844 0.930 . S
H851 C848 0.930 . S
O852 Li792 1.956 . S
O852 Li793 1.970 . S
O852 Li794 1.961 . S
O852 C796 1.325 . S
O853 Li792 1.970 . S
O853 Li793 1.956 . S
O853 Li795 1.961 . S
O853 C802 1.325 . S
O854 Li792 1.961 . S
O854 Li794 1.956 . S
O854 Li795 1.970 . S
O854 C824 1.325 . S
O855 Li793 1.961 . S
O855 Li794 1.970 . S
O855 Li795 1.956 . S
O855 C830 1.325 . S
H856 C798 0.929 . S
H857 C799 0.930 . S
H858 C800 0.930 . S
H859 C801 0.930 . S
H860 C803 0.930 . S
H861 C805 0.929 . S
H862 C806 0.930 . S
H863 C807 0.930 . S
H864 C810 0.930 . S
H865 C813 0.929 . S
H866 C818 0.929 . S
H867 C819 0.930 . S
H868 C826 0.929 . S
H869 C827 0.930 . S
H870 C828 0.930 . S
H871 C829 0.930 . S
H872 C831 0.929 . S
H873 C832 0.930 . S
H874 C833 0.930 . S
H875 C834 0.930 . S
H876 C838 0.929 . S
H877 C840 0.930 . S
H878 C846 0.929 . S
H879 C847 0.930 . S
Li880 N897 1.990 . S
Li880 O940 1.956 . S
Li880 O941 1.970 . S
Li880 O942 1.961 . S
Li881 N905 1.990 . S
Li881 O940 1.970 . S
Li881 O941 1.956 . S
Li881 O943 1.961 . S
Li882 N927 1.990 . S
Li882 O940 1.961 . S
Li882 O942 1.956 . S
Li882 O943 1.970 . S
Li883 N933 1.990 . S
Li883 O941 1.961 . S
Li883 O942 1.970 . S
Li883 O943 1.956 . S
C884 C886 1.348 . S
C884 C887 1.356 . S
C884 O940 1.325 . S
N885 C888 1.314 . S
N885 C889 1.279 . S
C886 C884 1.348 . S
C886 C888 1.353 . S
C886 H944 0.929 . S
C887 C884 1.356 . S
C887 C889 1.358 . S
C887 H945 0.930 . S
C888 N885 1.314 . S
C888 C886 1.353 . S
C888 H946 0.930 . S
C889 N885 1.279 . S
C889 C887 1.358 . S
C889 H947 0.930 . S
C890 C893 1.348 . S
C890 C894 1.356 . S
C890 O941 1.325 . S
C891 N892 1.279 . S
C891 C894 1.358 . S
C891 H948 0.930 . S
N892 C891 1.279 . S
N892 C895 1.314 . S
C893 C890 1.348 . S
C893 C895 1.353 . S
C893 H949 0.929 . S
C894 C890 1.356 . S
C894 C891 1.358 . S
C894 H950 0.930 . S
C895 N892 1.314 . S
C895 C893 1.353 . S
C895 H951 0.930 . S
C896 N897 1.314 . S
C896 C901 1.353 . S
C896 H902 0.930 . S
N897 Li880 1.990 . S
N897 C896 1.314 . S
N897 C899 1.279 . S
C898 C899 1.358 . S
C898 C900 1.356 . S
C898 H952 0.930 . S
C899 N897 1.279 . S
C899 C898 1.358 . S
C899 H903 0.930 . S
C900 C898 1.356 . S
C900 C901 1.348 . S
C901 C896 1.353 . S
C901 C900 1.348 . S
C901 H953 0.929 . S
H902 C896 0.930 . S
H903 C899 0.930 . S
C904 N905 1.314 . S
C904 C906 1.353 . S
C904 H910 0.930 . S
N905 Li881 1.990 . S
N905 C904 1.314 . S
N905 C908 1.279 . S
C906 C904 1.353 . S
C906 C909 1.348 . S
C906 H954 0.929 . S
C907 C908 1.358 . S
C907 C909 1.356 . S
C907 H955 0.930 . S
C908 N905 1.279 . S
C908 C907 1.358 . S
C908 H911 0.930 . S
C909 C906 1.348 . S
C909 C907 1.356 . S
H910 C904 0.930 . S
H911 C908 0.930 . S
C912 C914 1.348 . S
C912 C915 1.356 . S
C912 O942 1.325 . S
N913 C916 1.314 . S
N913 C917 1.279 . S
C914 C912 1.348 . S
C914 C916 1.353 . S
C914 H956 0.929 . S
C915 C912 1.356 . S
C915 C917 1.358 . S
C915 H957 0.930 . S
C916 N913 1.314 . S
C916 C914 1.353 . S
C916 H958 0.930 . S
C917 N913 1.279 . S
C917 C915 1.358 . S
C917 H959 0.930 . S
C918 C919 1.348 . S
C918 C920 1.356 . S
C918 O943 1.325 . S
C919 C918 1.348 . S
C919 C921 1.353 . S
C919 H960 0.929 . S
C920 C918 1.356 . S
C920 C922 1.358 . S
C920 H961 0.930 . S
C921 C919 1.353 . S
C921 N923 1.314 . S
C921 H962 0.930 . S
C922 C920 1.358 . S
C922 N923 1.279 . S
C922 H963 0.930 . S
N923 C921 1.314 . S
N923 C922 1.279 . S
C924 C926 1.353 . S
C924 N927 1.314 . S
C924 H930 0.930 . S
C925 N927 1.279 . S
C925 C928 1.358 . S
C925 H931 0.930 . S
C926 C924 1.353 . S
C926 C929 1.348 . S
C926 H964 0.929 . S
N927 Li882 1.990 . S
N927 C924 1.314 . S
N927 C925 1.279 . S
C928 C925 1.358 . S
C928 C929 1.356 . S
C928 H965 0.930 . S
C929 C926 1.348 . S
C929 C928 1.356 . S
H930 C924 0.930 . S
H931 C925 0.930 . S
C932 N933 1.314 . S
C932 C934 1.353 . S
C932 H938 0.930 . S
N933 Li883 1.990 . S
N933 C932 1.314 . S
N933 C936 1.279 . S
C934 C932 1.353 . S
C934 C937 1.348 . S
C934 H966 0.929 . S
C935 C936 1.358 . S
C935 C937 1.356 . S
C935 H967 0.930 . S
C936 N933 1.279 . S
C936 C935 1.358 . S
C936 H939 0.930 . S
C937 C934 1.348 . S
C937 C935 1.356 . S
H938 C932 0.930 . S
H939 C936 0.930 . S
O940 Li880 1.956 . S
O940 Li881 1.970 . S
O940 Li882 1.961 . S
O940 C884 1.325 . S
O941 Li880 1.970 . S
O941 Li881 1.956 . S
O941 Li883 1.961 . S
O941 C890 1.325 . S
O942 Li880 1.961 . S
O942 Li882 1.956 . S
O942 Li883 1.970 . S
O942 C912 1.325 . S
O943 Li881 1.961 . S
O943 Li882 1.970 . S
O943 Li883 1.956 . S
O943 C918 1.325 . S
H944 C886 0.929 . S
H945 C887 0.930 . S
H946 C888 0.930 . S
H947 C889 0.930 . S
H948 C891 0.930 . S
H949 C893 0.929 . S
H950 C894 0.930 . S
H951 C895 0.930 . S
H952 C898 0.930 . S
H953 C901 0.929 . S
H954 C906 0.929 . S
H955 C907 0.930 . S
H956 C914 0.929 . S
H957 C915 0.930 . S
H958 C916 0.930 . S
H959 C917 0.930 . S
H960 C919 0.929 . S
H961 C920 0.930 . S
H962 C921 0.930 . S
H963 C922 0.930 . S
H964 C926 0.929 . S
H965 C928 0.930 . S
H966 C934 0.929 . S
H967 C935 0.930 . S
Li968 N985 1.990 . S
Li968 O1028 1.956 . S
Li968 O1029 1.970 . S
Li968 O1030 1.961 . S
Li969 N993 1.990 . S
Li969 O1028 1.970 . S
Li969 O1029 1.956 . S
Li969 O1031 1.961 . S
Li970 N1015 1.990 . S
Li970 O1028 1.961 . S
Li970 O1030 1.956 . S
Li970 O1031 1.970 . S
Li971 N1021 1.990 . S
Li971 O1029 1.961 . S
Li971 O1030 1.970 . S
Li971 O1031 1.956 . S
C972 C974 1.348 . S
C972 C975 1.356 . S
C972 O1028 1.325 . S
N973 C976 1.314 . S
N973 C977 1.279 . S
C974 C972 1.348 . S
C974 C976 1.353 . S
C974 H1032 0.929 . S
C975 C972 1.356 . S
C975 C977 1.358 . S
C975 H1033 0.930 . S
C976 N973 1.314 . S
C976 C974 1.353 . S
C976 H1034 0.930 . S
C977 N973 1.279 . S
C977 C975 1.358 . S
C977 H1035 0.930 . S
C978 C981 1.348 . S
C978 C982 1.356 . S
C978 O1029 1.325 . S
C979 N980 1.279 . S
C979 C982 1.358 . S
C979 H1036 0.930 . S
N980 C979 1.279 . S
N980 C983 1.314 . S
C981 C978 1.348 . S
C981 C983 1.353 . S
C981 H1037 0.929 . S
C982 C978 1.356 . S
C982 C979 1.358 . S
C982 H1038 0.930 . S
C983 N980 1.314 . S
C983 C981 1.353 . S
C983 H1039 0.930 . S
C984 N985 1.314 . S
C984 C989 1.353 . S
C984 H990 0.930 . S
N985 Li968 1.990 . S
N985 C984 1.314 . S
N985 C987 1.279 . S
C986 C987 1.358 . S
C986 C988 1.356 . S
C986 H1040 0.930 . S
C987 N985 1.279 . S
C987 C986 1.358 . S
C987 H991 0.930 . S
C988 C986 1.356 . S
C988 C989 1.348 . S
C989 C984 1.353 . S
C989 C988 1.348 . S
C989 H1041 0.929 . S
H990 C984 0.930 . S
H991 C987 0.930 . S
C992 N993 1.314 . S
C992 C994 1.353 . S
C992 H998 0.930 . S
N993 Li969 1.990 . S
N993 C992 1.314 . S
N993 C996 1.279 . S
C994 C992 1.353 . S
C994 C997 1.348 . S
C994 H1042 0.929 . S
C995 C996 1.358 . S
C995 C997 1.356 . S
C995 H1043 0.930 . S
C996 N993 1.279 . S
C996 C995 1.358 . S
C996 H999 0.930 . S
C997 C994 1.348 . S
C997 C995 1.356 . S
H998 C992 0.930 . S
H999 C996 0.930 . S
C1000 C1002 1.348 . S
C1000 C1003 1.356 . S
C1000 O1030 1.325 . S
N1001 C1004 1.314 . S
N1001 C1005 1.279 . S
C1002 C1000 1.348 . S
C1002 C1004 1.353 . S
C1002 H1044 0.929 . S
C1003 C1000 1.356 . S
C1003 C1005 1.358 . S
C1003 H1045 0.930 . S
C1004 N1001 1.314 . S
C1004 C1002 1.353 . S
C1004 H1046 0.930 . S
C1005 N1001 1.279 . S
C1005 C1003 1.358 . S
C1005 H1047 0.930 . S
C1006 C1007 1.348 . S
C1006 C1008 1.356 . S
C1006 O1031 1.325 . S
C1007 C1006 1.348 . S
C1007 C1009 1.353 . S
C1007 H1048 0.929 . S
C1008 C1006 1.356 . S
C1008 C1010 1.358 . S
C1008 H1049 0.930 . S
C1009 C1007 1.353 . S
C1009 N1011 1.314 . S
C1009 H1050 0.930 . S
C1010 C1008 1.358 . S
C1010 N1011 1.279 . S
C1010 H1051 0.930 . S
N1011 C1009 1.314 . S
N1011 C1010 1.279 . S
C1012 C1014 1.353 . S
C1012 N1015 1.314 . S
C1012 H1018 0.930 . S
C1013 N1015 1.279 . S
C1013 C1016 1.358 . S
C1013 H1019 0.930 . S
C1014 C1012 1.353 . S
C1014 C1017 1.348 . S
C1014 H1052 0.929 . S
N1015 Li970 1.990 . S
N1015 C1012 1.314 . S
N1015 C1013 1.279 . S
C1016 C1013 1.358 . S
C1016 C1017 1.356 . S
C1016 H1053 0.930 . S
C1017 C1014 1.348 . S
C1017 C1016 1.356 . S
H1018 C1012 0.930 . S
H1019 C1013 0.930 . S
C1020 N1021 1.314 . S
C1020 C1022 1.353 . S
C1020 H1026 0.930 . S
N1021 Li971 1.990 . S
N1021 C1020 1.314 . S
N1021 C1024 1.279 . S
C1022 C1020 1.353 . S
C1022 C1025 1.348 . S
C1022 H1054 0.929 . S
C1023 C1024 1.358 . S
C1023 C1025 1.356 . S
C1023 H1055 0.930 . S
C1024 N1021 1.279 . S
C1024 C1023 1.358 . S
C1024 H1027 0.930 . S
C1025 C1022 1.348 . S
C1025 C1023 1.356 . S
H1026 C1020 0.930 . S
H1027 C1024 0.930 . S
O1028 Li968 1.956 . S
O1028 Li969 1.970 . S
O1028 Li970 1.961 . S
O1028 C972 1.325 . S
O1029 Li968 1.970 . S
O1029 Li969 1.956 . S
O1029 Li971 1.961 . S
O1029 C978 1.325 . S
O1030 Li968 1.961 . S
O1030 Li970 1.956 . S
O1030 Li971 1.970 . S
O1030 C1000 1.325 . S
O1031 Li969 1.961 . S
O1031 Li970 1.970 . S
O1031 Li971 1.956 . S
O1031 C1006 1.325 . S
H1032 C974 0.929 . S
H1033 C975 0.930 . S
H1034 C976 0.930 . S
H1035 C977 0.930 . S
H1036 C979 0.930 . S
H1037 C981 0.929 . S
H1038 C982 0.930 . S
H1039 C983 0.930 . S
H1040 C986 0.930 . S
H1041 C989 0.929 . S
H1042 C994 0.929 . S
H1043 C995 0.930 . S
H1044 C1002 0.929 . S
H1045 C1003 0.930 . S
H1046 C1004 0.930 . S
H1047 C1005 0.930 . S
H1048 C1007 0.929 . S
H1049 C1008 0.930 . S
H1050 C1009 0.930 . S
H1051 C1010 0.930 . S
H1052 C1014 0.929 . S
H1053 C1016 0.930 . S
H1054 C1022 0.929 . S
H1055 C1023 0.930 . S
C1056 C1057 1.349 . S
C1056 C1058 1.327 . S
C1056 H1081 0.950 . S
C1057 C1056 1.349 . S
C1057 C1073 1.349 . S
C1058 C1056 1.327 . S
C1058 C1077 1.429 . S
C1058 H1082 0.950 . S
C1059 C1076 1.574 1_554 S
C1059 C1078 1.368 . S
C1059 H1083 0.949 . S
H1060 C1064 0.949 . S
C1061 C1062 1.349 . S
C1061 C1063 1.327 . S
C1061 H1084 0.950 . S
C1062 C1061 1.349 . S
C1062 C1074 1.349 . S
C1063 C1061 1.327 . S
C1063 C1079 1.429 . S
C1063 H1085 0.950 . S
C1064 H1060 0.949 . S
C1064 C1072 1.574 1_556 S
C1064 C1080 1.368 . S
H1065 C1073 0.950 . S
H1066 C1071 0.950 . S
H1067 C1072 0.949 . S
H1068 C1074 0.950 . S
H1069 C1075 0.950 . S
H1070 C1076 0.949 . S
C1071 H1066 0.950 . S
C1071 C1073 1.327 . S
C1071 C1077 1.429 . S
C1072 C1064 1.574 1_554 S
C1072 H1067 0.949 . S
C1072 C1078 1.368 . S
C1073 C1057 1.349 . S
C1073 H1065 0.950 . S
C1073 C1071 1.327 . S
C1074 C1062 1.349 . S
C1074 H1068 0.950 . S
C1074 C1075 1.327 . S
C1075 H1069 0.950 . S
C1075 C1074 1.327 . S
C1075 C1079 1.429 . S
C1076 C1059 1.574 1_556 S
C1076 H1070 0.949 . S
C1076 C1080 1.368 . S
C1077 C1058 1.429 . S
C1077 C1071 1.429 . S
C1077 C1078 1.523 . S
C1078 C1059 1.368 . S
C1078 C1072 1.368 . S
C1078 C1077 1.523 . S
C1079 C1063 1.429 . S
C1079 C1075 1.429 . S
C1079 C1080 1.523 . S
C1080 C1064 1.368 . S
C1080 C1076 1.368 . S
C1080 C1079 1.523 . S
H1081 C1056 0.950 . S
H1082 C1058 0.950 . S
H1083 C1059 0.949 . S
H1084 C1061 0.950 . S
H1085 C1063 0.950 . S
C1086 C1087 1.349 . S
C1086 C1088 1.327 . S
C1086 H1111 0.950 . S
C1087 C1086 1.349 . S
C1087 C1103 1.349 . S
C1088 C1086 1.327 . S
C1088 C1107 1.429 . S
C1088 H1112 0.950 . S
C1089 C1106 1.574 . S
C1089 C1108 1.368 . S
C1089 H1113 0.949 . S
H1090 C1094 0.949 . S
C1091 C1092 1.349 . S
C1091 C1093 1.327 . S
C1091 H1114 0.950 . S
C1092 C1091 1.349 . S
C1092 C1104 1.349 . S
C1093 C1091 1.327 . S
C1093 C1109 1.429 . S
C1093 H1115 0.950 . S
C1094 H1090 0.949 . S
C1094 C1102 1.574 . S
C1094 C1110 1.368 . S
H1095 C1103 0.950 . S
H1096 C1101 0.950 . S
H1097 C1102 0.949 . S
H1098 C1104 0.950 . S
H1099 C1105 0.950 . S
H1100 C1106 0.949 . S
C1101 H1096 0.950 . S
C1101 C1103 1.327 . S
C1101 C1107 1.429 . S
C1102 C1094 1.574 . S
C1102 H1097 0.949 . S
C1102 C1108 1.368 . S
C1103 C1087 1.349 . S
C1103 H1095 0.950 . S
C1103 C1101 1.327 . S
C1104 C1092 1.349 . S
C1104 H1098 0.950 . S
C1104 C1105 1.327 . S
C1105 H1099 0.950 . S
C1105 C1104 1.327 . S
C1105 C1109 1.429 . S
C1106 C1089 1.574 . S
C1106 H1100 0.949 . S
C1106 C1110 1.368 . S
C1107 C1088 1.429 . S
C1107 C1101 1.429 . S
C1107 C1108 1.523 . S
C1108 C1089 1.368 . S
C1108 C1102 1.368 . S
C1108 C1107 1.523 . S
C1109 C1093 1.429 . S
C1109 C1105 1.429 . S
C1109 C1110 1.523 . S
C1110 C1094 1.368 . S
C1110 C1106 1.368 . S
C1110 C1109 1.523 . S
H1111 C1086 0.950 . S
H1112 C1088 0.950 . S
H1113 C1089 0.949 . S
H1114 C1091 0.950 . S
H1115 C1093 0.950 . S
C1116 C1117 1.349 . S
C1116 C1118 1.327 . S
C1116 H1141 0.950 . S
C1117 C1116 1.349 . S
C1117 C1133 1.349 . S
C1118 C1116 1.327 . S
C1118 C1137 1.429 . S
C1118 H1142 0.950 . S
C1119 C1136 1.574 . S
C1119 C1138 1.368 . S
C1119 H1143 0.949 . S
H1120 C1124 0.949 . S
C1121 C1122 1.349 . S
C1121 C1123 1.327 . S
C1121 H1144 0.950 . S
C1122 C1121 1.349 . S
C1122 C1134 1.349 . S
C1123 C1121 1.327 . S
C1123 C1139 1.429 . S
C1123 H1145 0.950 . S
C1124 H1120 0.949 . S
C1124 C1132 1.574 . S
C1124 C1140 1.368 . S
H1125 C1133 0.950 . S
H1126 C1131 0.950 . S
H1127 C1132 0.949 . S
H1128 C1134 0.950 . S
H1129 C1135 0.950 . S
H1130 C1136 0.949 . S
C1131 H1126 0.950 . S
C1131 C1133 1.327 . S
C1131 C1137 1.429 . S
C1132 C1124 1.574 . S
C1132 H1127 0.949 . S
C1132 C1138 1.368 . S
C1133 C1117 1.349 . S
C1133 H1125 0.950 . S
C1133 C1131 1.327 . S
C1134 C1122 1.349 . S
C1134 H1128 0.950 . S
C1134 C1135 1.327 . S
C1135 H1129 0.950 . S
C1135 C1134 1.327 . S
C1135 C1139 1.429 . S
C1136 C1119 1.574 . S
C1136 H1130 0.949 . S
C1136 C1140 1.368 . S
C1137 C1118 1.429 . S
C1137 C1131 1.429 . S
C1137 C1138 1.523 . S
C1138 C1119 1.368 . S
C1138 C1132 1.368 . S
C1138 C1137 1.523 . S
C1139 C1123 1.429 . S
C1139 C1135 1.429 . S
C1139 C1140 1.523 . S
C1140 C1124 1.368 . S
C1140 C1136 1.368 . S
C1140 C1139 1.523 . S
H1141 C1116 0.950 . S
H1142 C1118 0.950 . S
H1143 C1119 0.949 . S
H1144 C1121 0.950 . S
H1145 C1123 0.950 . S
C1146 C1147 1.349 . S
C1146 C1148 1.327 . S
C1146 H1171 0.950 . S
C1147 C1146 1.349 . S
C1147 C1163 1.349 . S
C1148 C1146 1.327 . S
C1148 C1167 1.429 . S
C1148 H1172 0.950 . S
C1149 C1166 1.574 1_554 S
C1149 C1168 1.368 . S
C1149 H1173 0.949 . S
H1150 C1154 0.949 . S
C1151 C1152 1.349 . S
C1151 C1153 1.327 . S
C1151 H1174 0.950 . S
C1152 C1151 1.349 . S
C1152 C1164 1.349 . S
C1153 C1151 1.327 . S
C1153 C1169 1.429 . S
C1153 H1175 0.950 . S
C1154 H1150 0.949 . S
C1154 C1162 1.574 1_556 S
C1154 C1170 1.368 . S
H1155 C1163 0.950 . S
H1156 C1161 0.950 . S
H1157 C1162 0.949 . S
H1158 C1164 0.950 . S
H1159 C1165 0.950 . S
H1160 C1166 0.949 . S
C1161 H1156 0.950 . S
C1161 C1163 1.327 . S
C1161 C1167 1.429 . S
C1162 C1154 1.574 1_554 S
C1162 H1157 0.949 . S
C1162 C1168 1.368 . S
C1163 C1147 1.349 . S
C1163 H1155 0.950 . S
C1163 C1161 1.327 . S
C1164 C1152 1.349 . S
C1164 H1158 0.950 . S
C1164 C1165 1.327 . S
C1165 H1159 0.950 . S
C1165 C1164 1.327 . S
C1165 C1169 1.429 . S
C1166 C1149 1.574 1_556 S
C1166 H1160 0.949 . S
C1166 C1170 1.368 . S
C1167 C1148 1.429 . S
C1167 C1161 1.429 . S
C1167 C1168 1.523 . S
C1168 C1149 1.368 . S
C1168 C1162 1.368 . S
C1168 C1167 1.523 . S
C1169 C1153 1.429 . S
C1169 C1165 1.429 . S
C1169 C1170 1.523 . S
C1170 C1154 1.368 . S
C1170 C1166 1.368 . S
C1170 C1169 1.523 . S
H1171 C1146 0.950 . S
H1172 C1148 0.950 . S
H1173 C1149 0.949 . S
H1174 C1151 0.950 . S
H1175 C1153 0.950 . S
C1176 C1177 1.349 . S
C1176 C1178 1.327 . S
C1176 H1201 0.950 . S
C1177 C1176 1.349 . S
C1177 C1193 1.349 . S
C1178 C1176 1.327 . S
C1178 C1197 1.429 . S
C1178 H1202 0.950 . S
C1179 C1196 1.574 . S
C1179 C1198 1.368 . S
C1179 H1203 0.949 . S
H1180 C1184 0.949 . S
C1181 C1182 1.349 . S
C1181 C1183 1.327 . S
C1181 H1204 0.950 . S
C1182 C1181 1.349 . S
C1182 C1194 1.349 . S
C1183 C1181 1.327 . S
C1183 C1199 1.429 . S
C1183 H1205 0.950 . S
C1184 H1180 0.949 . S
C1184 C1192 1.574 . S
C1184 C1200 1.368 . S
H1185 C1193 0.950 . S
H1186 C1191 0.950 . S
H1187 C1192 0.949 . S
H1188 C1194 0.950 . S
H1189 C1195 0.950 . S
H1190 C1196 0.949 . S
C1191 H1186 0.950 . S
C1191 C1193 1.327 . S
C1191 C1197 1.429 . S
C1192 C1184 1.574 . S
C1192 H1187 0.949 . S
C1192 C1198 1.368 . S
C1193 C1177 1.349 . S
C1193 H1185 0.950 . S
C1193 C1191 1.327 . S
C1194 C1182 1.349 . S
C1194 H1188 0.950 . S
C1194 C1195 1.327 . S
C1195 H1189 0.950 . S
C1195 C1194 1.327 . S
C1195 C1199 1.429 . S
C1196 C1179 1.574 . S
C1196 H1190 0.949 . S
C1196 C1200 1.368 . S
C1197 C1178 1.429 . S
C1197 C1191 1.429 . S
C1197 C1198 1.523 . S
C1198 C1179 1.368 . S
C1198 C1192 1.368 . S
C1198 C1197 1.523 . S
C1199 C1183 1.429 . S
C1199 C1195 1.429 . S
C1199 C1200 1.523 . S
C1200 C1184 1.368 . S
C1200 C1196 1.368 . S
C1200 C1199 1.523 . S
H1201 C1176 0.950 . S
H1202 C1178 0.950 . S
H1203 C1179 0.949 . S
H1204 C1181 0.950 . S
H1205 C1183 0.950 . S
C1206 C1207 1.349 . S
C1206 C1208 1.327 . S
C1206 H1231 0.950 . S
C1207 C1206 1.349 . S
C1207 C1223 1.349 . S
C1208 C1206 1.327 . S
C1208 C1227 1.429 . S
C1208 H1232 0.950 . S
C1209 C1226 1.574 . S
C1209 C1228 1.368 . S
C1209 H1233 0.949 . S
H1210 C1214 0.949 . S
C1211 C1212 1.349 . S
C1211 C1213 1.327 . S
C1211 H1234 0.950 . S
C1212 C1211 1.349 . S
C1212 C1224 1.349 . S
C1213 C1211 1.327 . S
C1213 C1229 1.429 . S
C1213 H1235 0.950 . S
C1214 H1210 0.949 . S
C1214 C1222 1.574 . S
C1214 C1230 1.368 . S
H1215 C1223 0.950 . S
H1216 C1221 0.950 . S
H1217 C1222 0.949 . S
H1218 C1224 0.950 . S
H1219 C1225 0.950 . S
H1220 C1226 0.949 . S
C1221 H1216 0.950 . S
C1221 C1223 1.327 . S
C1221 C1227 1.429 . S
C1222 C1214 1.574 . S
C1222 H1217 0.949 . S
C1222 C1228 1.368 . S
C1223 C1207 1.349 . S
C1223 H1215 0.950 . S
C1223 C1221 1.327 . S
C1224 C1212 1.349 . S
C1224 H1218 0.950 . S
C1224 C1225 1.327 . S
C1225 H1219 0.950 . S
C1225 C1224 1.327 . S
C1225 C1229 1.429 . S
C1226 C1209 1.574 . S
C1226 H1220 0.949 . S
C1226 C1230 1.368 . S
C1227 C1208 1.429 . S
C1227 C1221 1.429 . S
C1227 C1228 1.523 . S
C1228 C1209 1.368 . S
C1228 C1222 1.368 . S
C1228 C1227 1.523 . S
C1229 C1213 1.429 . S
C1229 C1225 1.429 . S
C1229 C1230 1.523 . S
C1230 C1214 1.368 . S
C1230 C1226 1.368 . S
C1230 C1229 1.523 . S
H1231 C1206 0.950 . S
H1232 C1208 0.950 . S
H1233 C1209 0.949 . S
H1234 C1211 0.950 . S
H1235 C1213 0.950 . S
C1236 C1237 1.349 . S
C1236 C1238 1.327 . S
C1236 H1261 0.950 . S
C1237 C1236 1.349 . S
C1237 C1253 1.349 . S
C1238 C1236 1.327 . S
C1238 C1257 1.429 . S
C1238 H1262 0.950 . S
C1239 C1256 1.574 1_554 S
C1239 C1258 1.368 1_565 S
C1239 H1263 0.949 . S
H1240 C1244 0.949 . S
C1241 C1242 1.349 . S
C1241 C1243 1.327 . S
C1241 H1264 0.950 . S
C1242 C1241 1.349 . S
C1242 C1254 1.349 . S
C1243 C1241 1.327 . S
C1243 C1259 1.429 . S
C1243 H1265 0.950 . S
C1244 H1240 0.949 . S
C1244 C1252 1.574 1_556 S
C1244 C1260 1.368 1_545 S
H1245 C1253 0.950 . S
H1246 C1251 0.950 1_565 S
H1247 C1252 0.949 . S
H1248 C1254 0.950 . S
H1249 C1255 0.950 1_545 S
H1250 C1256 0.949 . S
C1251 H1246 0.950 1_545 S
C1251 C1253 1.327 . S
C1251 C1257 1.429 . S
C1252 C1244 1.574 1_554 S
C1252 H1247 0.949 . S
C1252 C1258 1.368 . S
C1253 C1237 1.349 . S
C1253 H1245 0.950 . S
C1253 C1251 1.327 . S
C1254 C1242 1.349 . S
C1254 H1248 0.950 . S
C1254 C1255 1.327 . S
C1255 H1249 0.950 1_565 S
C1255 C1254 1.327 . S
C1255 C1259 1.429 . S
C1256 C1239 1.574 1_556 S
C1256 H1250 0.949 . S
C1256 C1260 1.368 . S
C1257 C1238 1.429 . S
C1257 C1251 1.429 . S
C1257 C1258 1.523 . S
C1258 C1239 1.368 1_545 S
C1258 C1252 1.368 . S
C1258 C1257 1.523 . S
C1259 C1243 1.429 . S
C1259 C1255 1.429 . S
C1259 C1260 1.523 . S
C1260 C1244 1.368 1_565 S
C1260 C1256 1.368 . S
C1260 C1259 1.523 . S
H1261 C1236 0.950 . S
H1262 C1238 0.950 . S
H1263 C1239 0.949 . S
H1264 C1241 0.950 . S
H1265 C1243 0.950 . S
C1266 C1267 1.349 . S
C1266 C1268 1.327 . S
C1266 H1291 0.950 . S
C1267 C1266 1.349 . S
C1267 C1283 1.349 . S
C1268 C1266 1.327 . S
C1268 C1287 1.429 . S
C1268 H1292 0.950 . S
C1269 C1286 1.574 . S
C1269 C1288 1.368 . S
C1269 H1293 0.949 . S
H1270 C1274 0.949 . S
C1271 C1272 1.349 . S
C1271 C1273 1.327 . S
C1271 H1294 0.950 . S
C1272 C1271 1.349 . S
C1272 C1284 1.349 . S
C1273 C1271 1.327 . S
C1273 C1289 1.429 . S
C1273 H1295 0.950 . S
C1274 H1270 0.949 . S
C1274 C1282 1.574 . S
C1274 C1290 1.368 . S
H1275 C1283 0.950 . S
H1276 C1281 0.950 . S
H1277 C1282 0.949 . S
H1278 C1284 0.950 . S
H1279 C1285 0.950 . S
H1280 C1286 0.949 . S
C1281 H1276 0.950 . S
C1281 C1283 1.327 . S
C1281 C1287 1.429 . S
C1282 C1274 1.574 . S
C1282 H1277 0.949 . S
C1282 C1288 1.368 . S
C1283 C1267 1.349 . S
C1283 H1275 0.950 . S
C1283 C1281 1.327 . S
C1284 C1272 1.349 . S
C1284 H1278 0.950 . S
C1284 C1285 1.327 . S
C1285 H1279 0.950 . S
C1285 C1284 1.327 . S
C1285 C1289 1.429 . S
C1286 C1269 1.574 . S
C1286 H1280 0.949 . S
C1286 C1290 1.368 . S
C1287 C1268 1.429 . S
C1287 C1281 1.429 . S
C1287 C1288 1.523 . S
C1288 C1269 1.368 . S
C1288 C1282 1.368 . S
C1288 C1287 1.523 . S
C1289 C1273 1.429 . S
C1289 C1285 1.429 . S
C1289 C1290 1.523 . S
C1290 C1274 1.368 . S
C1290 C1286 1.368 . S
C1290 C1289 1.523 . S
H1291 C1266 0.950 . S
H1292 C1268 0.950 . S
H1293 C1269 0.949 . S
H1294 C1271 0.950 . S
H1295 C1273 0.950 . S
C1296 C1297 1.349 . S
C1296 C1298 1.327 . S
C1296 H1321 0.950 . S
C1297 C1296 1.349 . S
C1297 C1313 1.349 . S
C1298 C1296 1.327 . S
C1298 C1317 1.429 . S
C1298 H1322 0.950 . S
C1299 C1316 1.574 . S
C1299 C1318 1.368 1_655 S
C1299 H1323 0.949 . S
H1300 C1304 0.949 . S
C1301 C1302 1.349 . S
C1301 C1303 1.327 . S
C1301 H1324 0.950 . S
C1302 C1301 1.349 . S
C1302 C1314 1.349 . S
C1303 C1301 1.327 . S
C1303 C1319 1.429 . S
C1303 H1325 0.950 . S
C1304 H1300 0.949 . S
C1304 C1312 1.574 . S
C1304 C1320 1.368 1_455 S
H1305 C1313 0.950 . S
H1306 C1311 0.950 . S
H1307 C1312 0.949 . S
H1308 C1314 0.950 . S
H1309 C1315 0.950 . S
H1310 C1316 0.949 . S
C1311 H1306 0.950 . S
C1311 C1313 1.327 . S
C1311 C1317 1.429 . S
C1312 C1304 1.574 . S
C1312 H1307 0.949 . S
C1312 C1318 1.368 . S
C1313 C1297 1.349 . S
C1313 H1305 0.950 . S
C1313 C1311 1.327 . S
C1314 C1302 1.349 . S
C1314 H1308 0.950 . S
C1314 C1315 1.327 . S
C1315 H1309 0.950 . S
C1315 C1314 1.327 . S
C1315 C1319 1.429 . S
C1316 C1299 1.574 . S
C1316 H1310 0.949 . S
C1316 C1320 1.368 . S
C1317 C1298 1.429 . S
C1317 C1311 1.429 . S
C1317 C1318 1.523 . S
C1318 C1299 1.368 1_455 S
C1318 C1312 1.368 . S
C1318 C1317 1.523 . S
C1319 C1303 1.429 . S
C1319 C1315 1.429 . S
C1319 C1320 1.523 . S
C1320 C1304 1.368 1_655 S
C1320 C1316 1.368 . S
C1320 C1319 1.523 . S
H1321 C1296 0.950 . S
H1322 C1298 0.950 . S
H1323 C1299 0.949 . S
H1324 C1301 0.950 . S
H1325 C1303 0.950 . S
C1326 C1327 1.349 . S
C1326 C1328 1.327 . S
C1326 H1351 0.950 . S
C1327 C1326 1.349 . S
C1327 C1343 1.349 . S
C1328 C1326 1.327 . S
C1328 C1347 1.429 . S
C1328 H1352 0.950 . S
C1329 C1346 1.574 1_554 S
C1329 C1348 1.368 1_545 S
C1329 H1353 0.949 . S
H1330 C1334 0.949 . S
C1331 C1332 1.349 . S
C1331 C1333 1.327 . S
C1331 H1354 0.950 . S
C1332 C1331 1.349 . S
C1332 C1344 1.349 . S
C1333 C1331 1.327 . S
C1333 C1349 1.429 . S
C1333 H1355 0.950 . S
C1334 H1330 0.949 . S
C1334 C1342 1.574 1_556 S
C1334 C1350 1.368 1_565 S
H1335 C1343 0.950 . S
H1336 C1341 0.950 1_545 S
H1337 C1342 0.949 . S
H1338 C1344 0.950 . S
H1339 C1345 0.950 1_565 S
H1340 C1346 0.949 . S
C1341 H1336 0.950 1_565 S
C1341 C1343 1.327 . S
C1341 C1347 1.429 . S
C1342 C1334 1.574 1_554 S
C1342 H1337 0.949 . S
C1342 C1348 1.368 . S
C1343 C1327 1.349 . S
C1343 H1335 0.950 . S
C1343 C1341 1.327 . S
C1344 C1332 1.349 . S
C1344 H1338 0.950 . S
C1344 C1345 1.327 . S
C1345 H1339 0.950 1_545 S
C1345 C1344 1.327 . S
C1345 C1349 1.429 . S
C1346 C1329 1.574 1_556 S
C1346 H1340 0.949 . S
C1346 C1350 1.368 . S
C1347 C1328 1.429 . S
C1347 C1341 1.429 . S
C1347 C1348 1.523 . S
C1348 C1329 1.368 1_565 S
C1348 C1342 1.368 . S
C1348 C1347 1.523 . S
C1349 C1333 1.429 . S
C1349 C1345 1.429 . S
C1349 C1350 1.523 . S
C1350 C1334 1.368 1_545 S
C1350 C1346 1.368 . S
C1350 C1349 1.523 . S
H1351 C1326 0.950 . S
H1352 C1328 0.950 . S
H1353 C1329 0.949 . S
H1354 C1331 0.950 . S
H1355 C1333 0.950 . S
C1356 C1357 1.349 . S
C1356 C1358 1.327 . S
C1356 H1381 0.950 . S
C1357 C1356 1.349 . S
C1357 C1373 1.349 . S
C1358 C1356 1.327 . S
C1358 C1377 1.429 . S
C1358 H1382 0.950 . S
C1359 C1376 1.574 . S
C1359 C1378 1.368 . S
C1359 H1383 0.949 . S
H1360 C1364 0.949 . S
C1361 C1362 1.349 . S
C1361 C1363 1.327 . S
C1361 H1384 0.950 . S
C1362 C1361 1.349 . S
C1362 C1374 1.349 . S
C1363 C1361 1.327 . S
C1363 C1379 1.429 . S
C1363 H1385 0.950 . S
C1364 H1360 0.949 . S
C1364 C1372 1.574 . S
C1364 C1380 1.368 . S
H1365 C1373 0.950 . S
H1366 C1371 0.950 . S
H1367 C1372 0.949 . S
H1368 C1374 0.950 . S
H1369 C1375 0.950 . S
H1370 C1376 0.949 . S
C1371 H1366 0.950 . S
C1371 C1373 1.327 . S
C1371 C1377 1.429 . S
C1372 C1364 1.574 . S
C1372 H1367 0.949 . S
C1372 C1378 1.368 . S
C1373 C1357 1.349 . S
C1373 H1365 0.950 . S
C1373 C1371 1.327 . S
C1374 C1362 1.349 . S
C1374 H1368 0.950 . S
C1374 C1375 1.327 . S
C1375 H1369 0.950 . S
C1375 C1374 1.327 . S
C1375 C1379 1.429 . S
C1376 C1359 1.574 . S
C1376 H1370 0.949 . S
C1376 C1380 1.368 . S
C1377 C1358 1.429 . S
C1377 C1371 1.429 . S
C1377 C1378 1.523 . S
C1378 C1359 1.368 . S
C1378 C1372 1.368 . S
C1378 C1377 1.523 . S
C1379 C1363 1.429 . S
C1379 C1375 1.429 . S
C1379 C1380 1.523 . S
C1380 C1364 1.368 . S
C1380 C1376 1.368 . S
C1380 C1379 1.523 . S
H1381 C1356 0.950 . S
H1382 C1358 0.950 . S
H1383 C1359 0.949 . S
H1384 C1361 0.950 . S
H1385 C1363 0.950 . S
C1386 C1387 1.349 . S
C1386 C1388 1.327 . S
C1386 H1411 0.950 . S
C1387 C1386 1.349 . S
C1387 C1403 1.349 . S
C1388 C1386 1.327 . S
C1388 C1407 1.429 . S
C1388 H1412 0.950 . S
C1389 C1406 1.574 . S
C1389 C1408 1.368 1_655 S
C1389 H1413 0.949 . S
H1390 C1394 0.949 . S
C1391 C1392 1.349 . S
C1391 C1393 1.327 . S
C1391 H1414 0.950 . S
C1392 C1391 1.349 . S
C1392 C1404 1.349 . S
C1393 C1391 1.327 . S
C1393 C1409 1.429 . S
C1393 H1415 0.950 . S
C1394 H1390 0.949 . S
C1394 C1402 1.574 . S
C1394 C1410 1.368 1_455 S
H1395 C1403 0.961 . S
H1396 C1401 0.950 1_655 S
H1397 C1402 0.949 . S
H1398 C1404 0.960 . S
H1399 C1405 0.950 1_455 S
H1400 C1406 0.949 . S
C1401 H1396 0.950 1_455 S
C1401 C1403 1.327 . S
C1401 C1407 1.429 . S
C1402 C1394 1.574 . S
C1402 H1397 0.949 . S
C1402 C1408 1.368 . S
C1403 C1387 1.349 . S
C1403 H1395 0.961 . S
C1403 C1401 1.327 . S
C1404 C1392 1.349 . S
C1404 H1398 0.960 . S
C1404 C1405 1.327 . S
C1405 H1399 0.950 1_655 S
C1405 C1404 1.327 . S
C1405 C1409 1.429 . S
C1406 C1389 1.574 . S
C1406 H1400 0.949 . S
C1406 C1410 1.368 . S
C1407 C1388 1.429 . S
C1407 C1401 1.429 . S
C1407 C1408 1.523 . S
C1408 C1389 1.368 1_455 S
C1408 C1402 1.368 . S
C1408 C1407 1.523 . S
C1409 C1393 1.429 . S
C1409 C1405 1.429 . S
C1409 C1410 1.523 . S
C1410 C1394 1.368 1_655 S
C1410 C1406 1.368 . S
C1410 C1409 1.523 . S
H1411 C1386 0.950 . S
H1412 C1388 0.950 . S
H1413 C1389 0.949 . S
H1414 C1391 0.950 . S
H1415 C1393 0.950 . S
C1416 C1417 1.349 . S
C1416 C1418 1.327 . S
C1416 H1441 0.950 . S
C1417 C1416 1.349 . S
C1417 C1433 1.349 . S
C1418 C1416 1.327 . S
C1418 C1437 1.429 . S
C1418 H1442 0.950 . S
C1419 C1436 1.574 . S
C1419 C1438 1.368 . S
C1419 H1443 0.949 . S
H1420 C1424 0.949 . S
C1421 C1422 1.349 . S
C1421 C1423 1.327 . S
C1421 H1444 0.950 . S
C1422 C1421 1.349 . S
C1422 C1434 1.349 . S
C1423 C1421 1.327 . S
C1423 C1439 1.429 . S
C1423 H1445 0.950 . S
C1424 H1420 0.949 . S
C1424 C1432 1.574 . S
C1424 C1440 1.368 . S
H1425 C1433 0.950 . S
H1426 C1431 0.950 . S
H1427 C1432 0.949 . S
H1428 C1434 0.950 . S
H1429 C1435 0.950 . S
H1430 C1436 0.949 . S
C1431 H1426 0.950 . S
C1431 C1433 1.327 . S
C1431 C1437 1.429 . S
C1432 C1424 1.574 . S
C1432 H1427 0.949 . S
C1432 C1438 1.368 1_545 S
C1433 C1417 1.349 . S
C1433 H1425 0.950 . S
C1433 C1431 1.327 . S
C1434 C1422 1.349 . S
C1434 H1428 0.950 . S
C1434 C1435 1.327 . S
C1435 H1429 0.950 . S
C1435 C1434 1.327 . S
C1435 C1439 1.429 . S
C1436 C1419 1.574 . S
C1436 H1430 0.949 . S
C1436 C1440 1.368 1_565 S
C1437 C1418 1.429 . S
C1437 C1431 1.429 . S
C1437 C1438 1.523 . S
C1438 C1419 1.368 . S
C1438 C1432 1.368 1_565 S
C1438 C1437 1.523 . S
C1439 C1423 1.429 . S
C1439 C1435 1.429 . S
C1439 C1440 1.523 . S
C1440 C1424 1.368 . S
C1440 C1436 1.368 1_545 S
C1440 C1439 1.523 . S
H1441 C1416 0.950 . S
H1442 C1418 0.950 . S
H1443 C1419 0.949 . S
H1444 C1421 0.950 . S
H1445 C1423 0.950 . S
C1446 C1447 1.349 . S
C1446 C1448 1.327 . S
C1446 H1471 0.950 . S
C1447 C1446 1.349 . S
C1447 C1463 1.349 . S
C1448 C1446 1.327 . S
C1448 C1467 1.429 . S
C1448 H1472 0.950 . S
C1449 C1466 1.574 . S
C1449 C1468 1.368 . S
C1449 H1473 0.949 . S
H1450 C1454 0.949 . S
C1451 C1452 1.349 . S
C1451 C1453 1.327 . S
C1451 H1474 0.950 . S
C1452 C1451 1.349 . S
C1452 C1464 1.349 . S
C1453 C1451 1.327 . S
C1453 C1469 1.429 . S
C1453 H1475 0.950 . S
C1454 H1450 0.949 . S
C1454 C1462 1.574 . S
C1454 C1470 1.368 . S
H1455 C1463 0.950 . S
H1456 C1461 0.950 . S
H1457 C1462 0.949 . S
H1458 C1464 0.950 . S
H1459 C1465 0.950 . S
H1460 C1466 0.949 . S
C1461 H1456 0.950 . S
C1461 C1463 1.327 . S
C1461 C1467 1.429 . S
C1462 C1454 1.574 . S
C1462 H1457 0.949 . S
C1462 C1468 1.368 . S
C1463 C1447 1.349 . S
C1463 H1455 0.950 . S
C1463 C1461 1.327 . S
C1464 C1452 1.349 . S
C1464 H1458 0.950 . S
C1464 C1465 1.327 . S
C1465 H1459 0.950 . S
C1465 C1464 1.327 . S
C1465 C1469 1.429 . S
C1466 C1449 1.574 . S
C1466 H1460 0.949 . S
C1466 C1470 1.368 . S
C1467 C1448 1.429 . S
C1467 C1461 1.429 . S
C1467 C1468 1.523 . S
C1468 C1449 1.368 . S
C1468 C1462 1.368 . S
C1468 C1467 1.523 . S
C1469 C1453 1.429 . S
C1469 C1465 1.429 . S
C1469 C1470 1.523 . S
C1470 C1454 1.368 . S
C1470 C1466 1.368 . S
C1470 C1469 1.523 . S
H1471 C1446 0.950 . S
H1472 C1448 0.950 . S
H1473 C1449 0.949 . S
H1474 C1451 0.950 . S
H1475 C1453 0.950 . S
C1476 C1477 1.349 . S
C1476 C1478 1.327 . S
C1476 H1501 0.950 . S
C1477 C1476 1.349 . S
C1477 C1493 1.349 . S
C1478 C1476 1.327 . S
C1478 C1497 1.429 . S
C1478 H1502 0.950 . S
C1479 C1496 1.574 . S
C1479 C1498 1.368 1_655 S
C1479 H1503 0.949 . S
H1480 C1484 0.949 . S
C1481 C1482 1.349 . S
C1481 C1483 1.327 . S
C1481 H1504 0.950 . S
C1482 C1481 1.349 . S
C1482 C1494 1.349 . S
C1483 C1481 1.327 . S
C1483 C1499 1.429 . S
C1483 H1505 0.950 . S
C1484 H1480 0.949 . S
C1484 C1492 1.574 . S
C1484 C1500 1.368 1_455 S
H1485 C1493 0.950 . S
H1486 C1491 0.950 . S
H1487 C1492 0.949 . S
H1488 C1494 0.950 . S
H1489 C1495 0.950 . S
H1490 C1496 0.949 . S
C1491 H1486 0.950 . S
C1491 C1493 1.327 . S
C1491 C1497 1.429 . S
C1492 C1484 1.574 . S
C1492 H1487 0.949 . S
C1492 C1498 1.368 . S
C1493 C1477 1.349 . S
C1493 H1485 0.950 . S
C1493 C1491 1.327 . S
C1494 C1482 1.349 . S
C1494 H1488 0.950 . S
C1494 C1495 1.327 . S
C1495 H1489 0.950 . S
C1495 C1494 1.327 . S
C1495 C1499 1.429 . S
C1496 C1479 1.574 . S
C1496 H1490 0.949 . S
C1496 C1500 1.368 . S
C1497 C1478 1.429 . S
C1497 C1491 1.429 . S
C1497 C1498 1.523 . S
C1498 C1479 1.368 1_455 S
C1498 C1492 1.368 . S
C1498 C1497 1.523 . S
C1499 C1483 1.429 . S
C1499 C1495 1.429 . S
C1499 C1500 1.523 . S
C1500 C1484 1.368 1_655 S
C1500 C1496 1.368 . S
C1500 C1499 1.523 . S
H1501 C1476 0.950 . S
H1502 C1478 0.950 . S
H1503 C1479 0.949 . S
H1504 C1481 0.950 . S
H1505 C1483 0.950 . S
C1506 C1507 1.349 . S
C1506 C1508 1.327 . S
C1506 H1531 0.950 . S
C1507 C1506 1.349 . S
C1507 C1523 1.349 . S
C1508 C1506 1.327 . S
C1508 C1527 1.429 . S
C1508 H1532 0.950 . S
C1509 C1526 1.574 . S
C1509 C1528 1.368 1_455 S
C1509 H1533 0.949 . S
H1510 C1514 0.949 . S
C1511 C1512 1.349 . S
C1511 C1513 1.327 . S
C1511 H1534 0.950 . S
C1512 C1511 1.349 . S
C1512 C1524 1.349 . S
C1513 C1511 1.327 . S
C1513 C1529 1.429 . S
C1513 H1535 0.950 . S
C1514 H1510 0.949 . S
C1514 C1522 1.574 . S
C1514 C1530 1.368 1_655 S
H1515 C1523 0.950 . S
H1516 C1521 0.950 . S
H1517 C1522 0.949 . S
H1518 C1524 0.950 . S
H1519 C1525 0.950 . S
H1520 C1526 0.949 . S
C1521 H1516 0.950 . S
C1521 C1523 1.327 . S
C1521 C1527 1.429 . S
C1522 C1514 1.574 . S
C1522 H1517 0.949 . S
C1522 C1528 1.368 . S
C1523 C1507 1.349 . S
C1523 H1515 0.950 . S
C1523 C1521 1.327 . S
C1524 C1512 1.349 . S
C1524 H1518 0.950 . S
C1524 C1525 1.327 . S
C1525 H1519 0.950 . S
C1525 C1524 1.327 . S
C1525 C1529 1.429 . S
C1526 C1509 1.574 . S
C1526 H1520 0.949 . S
C1526 C1530 1.368 . S
C1527 C1508 1.429 . S
C1527 C1521 1.429 . S
C1527 C1528 1.523 . S
C1528 C1509 1.368 1_655 S
C1528 C1522 1.368 . S
C1528 C1527 1.523 . S
C1529 C1513 1.429 . S
C1529 C1525 1.429 . S
C1529 C1530 1.523 . S
C1530 C1514 1.368 1_455 S
C1530 C1526 1.368 . S
C1530 C1529 1.523 . S
H1531 C1506 0.950 . S
H1532 C1508 0.950 . S
H1533 C1509 0.949 . S
H1534 C1511 0.950 . S
H1535 C1513 0.950 . S
C1536 C1537 1.349 . S
C1536 C1538 1.327 . S
C1536 H1561 0.950 . S
C1537 C1536 1.349 . S
C1537 C1553 1.349 . S
C1538 C1536 1.327 . S
C1538 C1557 1.429 . S
C1538 H1562 0.950 . S
C1539 C1556 1.574 . S
C1539 C1558 1.368 . S
C1539 H1563 0.949 . S
H1540 C1544 0.949 . S
C1541 C1542 1.349 . S
C1541 C1543 1.327 . S
C1541 H1564 0.950 . S
C1542 C1541 1.349 . S
C1542 C1554 1.349 . S
C1543 C1541 1.327 . S
C1543 C1559 1.429 . S
C1543 H1565 0.950 . S
C1544 H1540 0.949 . S
C1544 C1552 1.574 . S
C1544 C1560 1.368 . S
H1545 C1553 0.950 . S
H1546 C1551 0.950 . S
H1547 C1552 0.949 . S
H1548 C1554 0.950 . S
H1549 C1555 0.950 . S
H1550 C1556 0.949 . S
C1551 H1546 0.950 . S
C1551 C1553 1.327 . S
C1551 C1557 1.429 . S
C1552 C1544 1.574 . S
C1552 H1547 0.949 . S
C1552 C1558 1.368 1_545 S
C1553 C1537 1.349 . S
C1553 H1545 0.950 . S
C1553 C1551 1.327 . S
C1554 C1542 1.349 . S
C1554 H1548 0.950 . S
C1554 C1555 1.327 . S
C1555 H1549 0.950 . S
C1555 C1554 1.327 . S
C1555 C1559 1.429 . S
C1556 C1539 1.574 . S
C1556 H1550 0.949 . S
C1556 C1560 1.368 1_565 S
C1557 C1538 1.429 . S
C1557 C1551 1.429 . S
C1557 C1558 1.523 . S
C1558 C1539 1.368 . S
C1558 C1552 1.368 1_565 S
C1558 C1557 1.523 . S
C1559 C1543 1.429 . S
C1559 C1555 1.429 . S
C1559 C1560 1.523 . S
C1560 C1544 1.368 . S
C1560 C1556 1.368 1_545 S
C1560 C1559 1.523 . S
H1561 C1536 0.950 . S
H1562 C1538 0.950 . S
H1563 C1539 0.949 . S
H1564 C1541 0.950 . S
H1565 C1543 0.950 . S
C1566 C1567 1.349 . S
C1566 C1568 1.327 . S
C1566 H1591 0.950 . S
C1567 C1566 1.349 . S
C1567 C1583 1.349 . S
C1568 C1566 1.327 . S
C1568 C1587 1.429 . S
C1568 H1592 0.950 . S
C1569 C1586 1.574 . S
C1569 C1588 1.368 . S
C1569 H1593 0.949 . S
H1570 C1574 0.949 . S
C1571 C1572 1.349 . S
C1571 C1573 1.327 . S
C1571 H1594 0.950 . S
C1572 C1571 1.349 . S
C1572 C1584 1.349 . S
C1573 C1571 1.327 . S
C1573 C1589 1.429 . S
C1573 H1595 0.950 . S
C1574 H1570 0.949 . S
C1574 C1582 1.574 . S
C1574 C1590 1.368 . S
H1575 C1583 0.950 . S
H1576 C1581 0.950 . S
H1577 C1582 0.949 . S
H1578 C1584 0.950 . S
H1579 C1585 0.950 . S
H1580 C1586 0.949 . S
C1581 H1576 0.950 . S
C1581 C1583 1.327 . S
C1581 C1587 1.429 . S
C1582 C1574 1.574 . S
C1582 H1577 0.949 . S
C1582 C1588 1.368 . S
C1583 C1567 1.349 . S
C1583 H1575 0.950 . S
C1583 C1581 1.327 . S
C1584 C1572 1.349 . S
C1584 H1578 0.950 . S
C1584 C1585 1.327 . S
C1585 H1579 0.950 . S
C1585 C1584 1.327 . S
C1585 C1589 1.429 . S
C1586 C1569 1.574 . S
C1586 H1580 0.949 . S
C1586 C1590 1.368 . S
C1587 C1568 1.429 . S
C1587 C1581 1.429 . S
C1587 C1588 1.523 . S
C1588 C1569 1.368 . S
C1588 C1582 1.368 . S
C1588 C1587 1.523 . S
C1589 C1573 1.429 . S
C1589 C1585 1.429 . S
C1589 C1590 1.523 . S
C1590 C1574 1.368 . S
C1590 C1586 1.368 . S
C1590 C1589 1.523 . S
H1591 C1566 0.950 . S
H1592 C1568 0.950 . S
H1593 C1569 0.949 . S
H1594 C1571 0.950 . S
H1595 C1573 0.950 . S
C1596 C1597 1.349 . S
C1596 C1598 1.327 . S
C1596 H1621 0.950 . S
C1597 C1596 1.349 . S
C1597 C1613 1.349 . S
C1598 C1596 1.327 . S
C1598 C1617 1.429 . S
C1598 H1622 0.950 . S
C1599 C1616 1.574 . S
C1599 C1618 1.368 . S
C1599 H1623 0.949 . S
H1600 C1604 0.949 . S
C1601 C1602 1.349 . S
C1601 C1603 1.327 . S
C1601 H1624 0.950 . S
C1602 C1601 1.349 . S
C1602 C1614 1.349 . S
C1603 C1601 1.327 . S
C1603 C1619 1.429 . S
C1603 H1625 0.950 . S
C1604 H1600 0.949 . S
C1604 C1612 1.574 . S
C1604 C1620 1.368 . S
H1605 C1613 0.950 . S
H1606 C1611 0.950 . S
H1607 C1612 0.949 . S
H1608 C1614 0.950 . S
H1609 C1615 0.950 . S
H1610 C1616 0.949 . S
C1611 H1606 0.950 . S
C1611 C1613 1.327 . S
C1611 C1617 1.429 . S
C1612 C1604 1.574 . S
C1612 H1607 0.949 . S
C1612 C1618 1.368 . S
C1613 C1597 1.349 . S
C1613 H1605 0.950 . S
C1613 C1611 1.327 . S
C1614 C1602 1.349 . S
C1614 H1608 0.950 . S
C1614 C1615 1.327 . S
C1615 H1609 0.950 . S
C1615 C1614 1.327 . S
C1615 C1619 1.429 . S
C1616 C1599 1.574 . S
C1616 H1610 0.949 . S
C1616 C1620 1.368 . S
C1617 C1598 1.429 . S
C1617 C1611 1.429 . S
C1617 C1618 1.523 . S
C1618 C1599 1.368 . S
C1618 C1612 1.368 . S
C1618 C1617 1.523 . S
C1619 C1603 1.429 . S
C1619 C1615 1.429 . S
C1619 C1620 1.523 . S
C1620 C1604 1.368 . S
C1620 C1616 1.368 . S
C1620 C1619 1.523 . S
H1621 C1596 0.950 . S
H1622 C1598 0.950 . S
H1623 C1599 0.949 . S
H1624 C1601 0.950 . S
H1625 C1603 0.950 . S
C1626 C1627 1.349 . S
C1626 C1628 1.327 . S
C1626 H1651 0.950 . S
C1627 C1626 1.349 . S
C1627 C1643 1.349 . S
C1628 C1626 1.327 . S
C1628 C1647 1.429 . S
C1628 H1652 0.950 . S
C1629 C1646 1.574 . S
C1629 C1648 1.368 . S
C1629 H1653 0.949 . S
H1630 C1634 0.949 . S
C1631 C1632 1.349 . S
C1631 C1633 1.327 . S
C1631 H1654 0.950 . S
C1632 C1631 1.349 . S
C1632 C1644 1.349 . S
C1633 C1631 1.327 . S
C1633 C1649 1.429 . S
C1633 H1655 0.950 . S
C1634 H1630 0.949 . S
C1634 C1642 1.574 . S
C1634 C1650 1.368 . S
H1635 C1643 0.950 . S
H1636 C1641 0.950 . S
H1637 C1642 0.949 . S
H1638 C1644 0.950 . S
H1639 C1645 0.950 . S
H1640 C1646 0.949 . S
C1641 H1636 0.950 . S
C1641 C1643 1.327 . S
C1641 C1647 1.429 . S
C1642 C1634 1.574 . S
C1642 H1637 0.949 . S
C1642 C1648 1.368 . S
C1643 C1627 1.349 . S
C1643 H1635 0.950 . S
C1643 C1641 1.327 . S
C1644 C1632 1.349 . S
C1644 H1638 0.950 . S
C1644 C1645 1.327 . S
C1645 H1639 0.950 . S
C1645 C1644 1.327 . S
C1645 C1649 1.429 . S
C1646 C1629 1.574 . S
C1646 H1640 0.949 . S
C1646 C1650 1.368 . S
C1647 C1628 1.429 . S
C1647 C1641 1.429 . S
C1647 C1648 1.523 . S
C1648 C1629 1.368 . S
C1648 C1642 1.368 . S
C1648 C1647 1.523 . S
C1649 C1633 1.429 . S
C1649 C1645 1.429 . S
C1649 C1650 1.523 . S
C1650 C1634 1.368 . S
C1650 C1646 1.368 . S
C1650 C1649 1.523 . S
H1651 C1626 0.950 . S
H1652 C1628 0.950 . S
H1653 C1629 0.949 . S
H1654 C1631 0.950 . S
H1655 C1633 0.950 . S
C1656 C1657 1.349 . S
C1656 C1658 1.327 . S
C1656 H1681 0.950 . S
C1657 C1656 1.349 . S
C1657 C1673 1.349 . S
C1658 C1656 1.327 . S
C1658 C1677 1.429 . S
C1658 H1682 0.950 . S
C1659 C1676 1.574 . S
C1659 C1678 1.368 . S
C1659 H1683 0.949 . S
H1660 C1664 0.949 . S
C1661 C1662 1.349 . S
C1661 C1663 1.327 . S
C1661 H1684 0.950 . S
C1662 C1661 1.349 . S
C1662 C1674 1.349 . S
C1663 C1661 1.327 . S
C1663 C1679 1.429 . S
C1663 H1685 0.950 . S
C1664 H1660 0.949 . S
C1664 C1672 1.574 . S
C1664 C1680 1.368 . S
H1665 C1673 0.950 . S
H1666 C1671 0.950 . S
H1667 C1672 0.949 . S
H1668 C1674 0.950 . S
H1669 C1675 0.950 . S
H1670 C1676 0.949 . S
C1671 H1666 0.950 . S
C1671 C1673 1.327 . S
C1671 C1677 1.429 . S
C1672 C1664 1.574 . S
C1672 H1667 0.949 . S
C1672 C1678 1.368 . S
C1673 C1657 1.349 . S
C1673 H1665 0.950 . S
C1673 C1671 1.327 . S
C1674 C1662 1.349 . S
C1674 H1668 0.950 . S
C1674 C1675 1.327 . S
C1675 H1669 0.950 . S
C1675 C1674 1.327 . S
C1675 C1679 1.429 . S
C1676 C1659 1.574 . S
C1676 H1670 0.949 . S
C1676 C1680 1.368 . S
C1677 C1658 1.429 . S
C1677 C1671 1.429 . S
C1677 C1678 1.523 . S
C1678 C1659 1.368 . S
C1678 C1672 1.368 . S
C1678 C1677 1.523 . S
C1679 C1663 1.429 . S
C1679 C1675 1.429 . S
C1679 C1680 1.523 . S
C1680 C1664 1.368 . S
C1680 C1676 1.368 . S
C1680 C1679 1.523 . S
H1681 C1656 0.950 . S
H1682 C1658 0.950 . S
H1683 C1659 0.949 . S
H1684 C1661 0.950 . S
H1685 C1663 0.950 . S
C1686 C1687 1.349 . S
C1686 C1688 1.327 . S
C1686 H1711 0.950 . S
C1687 C1686 1.349 . S
C1687 C1703 1.349 . S
C1688 C1686 1.327 . S
C1688 C1707 1.429 . S
C1688 H1712 0.950 . S
C1689 C1706 1.574 . S
C1689 C1708 1.368 . S
C1689 H1713 0.949 . S
H1690 C1694 0.949 . S
C1691 C1692 1.349 . S
C1691 C1693 1.327 . S
C1691 H1714 0.950 . S
C1692 C1691 1.349 . S
C1692 C1704 1.349 . S
C1693 C1691 1.327 . S
C1693 C1709 1.429 . S
C1693 H1715 0.950 . S
C1694 H1690 0.949 . S
C1694 C1702 1.574 . S
C1694 C1710 1.368 . S
H1695 C1703 0.950 . S
H1696 C1701 0.950 . S
H1697 C1702 0.949 . S
H1698 C1704 0.950 . S
H1699 C1705 0.950 . S
H1700 C1706 0.949 . S
C1701 H1696 0.950 . S
C1701 C1703 1.327 . S
C1701 C1707 1.429 . S
C1702 C1694 1.574 . S
C1702 H1697 0.949 . S
C1702 C1708 1.368 . S
C1703 C1687 1.349 . S
C1703 H1695 0.950 . S
C1703 C1701 1.327 . S
C1704 C1692 1.349 . S
C1704 H1698 0.950 . S
C1704 C1705 1.327 . S
C1705 H1699 0.950 . S
C1705 C1704 1.327 . S
C1705 C1709 1.429 . S
C1706 C1689 1.574 . S
C1706 H1700 0.949 . S
C1706 C1710 1.368 . S
C1707 C1688 1.429 . S
C1707 C1701 1.429 . S
C1707 C1708 1.523 . S
C1708 C1689 1.368 . S
C1708 C1702 1.368 . S
C1708 C1707 1.523 . S
C1709 C1693 1.429 . S
C1709 C1705 1.429 . S
C1709 C1710 1.523 . S
C1710 C1694 1.368 . S
C1710 C1706 1.368 . S
C1710 C1709 1.523 . S
H1711 C1686 0.950 . S
H1712 C1688 0.950 . S
H1713 C1689 0.949 . S
H1714 C1691 0.950 . S
H1715 C1693 0.950 . S
C1716 C1717 1.349 . S
C1716 C1718 1.327 . S
C1716 H1741 0.950 . S
C1717 C1716 1.349 . S
C1717 C1733 1.349 . S
C1718 C1716 1.327 . S
C1718 C1737 1.429 . S
C1718 H1742 0.950 . S
C1719 C1736 1.574 . S
C1719 C1738 1.368 . S
C1719 H1743 0.949 . S
H1720 C1724 0.949 . S
C1721 C1722 1.349 . S
C1721 C1723 1.327 . S
C1721 H1744 0.950 . S
C1722 C1721 1.349 . S
C1722 C1734 1.349 . S
C1723 C1721 1.327 . S
C1723 C1739 1.429 . S
C1723 H1745 0.950 . S
C1724 H1720 0.949 . S
C1724 C1732 1.574 . S
C1724 C1740 1.368 . S
H1725 C1733 0.950 . S
H1726 C1731 0.950 . S
H1727 C1732 0.949 . S
H1728 C1734 0.950 . S
H1729 C1735 0.950 . S
H1730 C1736 0.949 . S
C1731 H1726 0.950 . S
C1731 C1733 1.327 . S
C1731 C1737 1.429 . S
C1732 C1724 1.574 . S
C1732 H1727 0.949 . S
C1732 C1738 1.368 . S
C1733 C1717 1.349 . S
C1733 H1725 0.950 . S
C1733 C1731 1.327 . S
C1734 C1722 1.349 . S
C1734 H1728 0.950 . S
C1734 C1735 1.327 . S
C1735 H1729 0.950 . S
C1735 C1734 1.327 . S
C1735 C1739 1.429 . S
C1736 C1719 1.574 . S
C1736 H1730 0.949 . S
C1736 C1740 1.368 . S
C1737 C1718 1.429 . S
C1737 C1731 1.429 . S
C1737 C1738 1.523 . S
C1738 C1719 1.368 . S
C1738 C1732 1.368 . S
C1738 C1737 1.523 . S
C1739 C1723 1.429 . S
C1739 C1735 1.429 . S
C1739 C1740 1.523 . S
C1740 C1724 1.368 . S
C1740 C1736 1.368 . S
C1740 C1739 1.523 . S
H1741 C1716 0.950 . S
H1742 C1718 0.950 . S
H1743 C1719 0.949 . S
H1744 C1721 0.950 . S
H1745 C1723 0.950 . S
C1746 C1747 1.349 . S
C1746 C1748 1.327 . S
C1746 H1771 0.950 . S
C1747 C1746 1.349 . S
C1747 C1763 1.349 . S
C1748 C1746 1.327 . S
C1748 C1767 1.429 . S
C1748 H1772 0.950 . S
C1749 C1766 1.574 . S
C1749 C1768 1.368 . S
C1749 H1773 0.949 . S
H1750 C1754 0.949 . S
C1751 C1752 1.349 . S
C1751 C1753 1.327 . S
C1751 H1774 0.950 . S
C1752 C1751 1.349 . S
C1752 C1764 1.349 . S
C1753 C1751 1.327 . S
C1753 C1769 1.429 . S
C1753 H1775 0.950 . S
C1754 H1750 0.949 . S
C1754 C1762 1.574 . S
C1754 C1770 1.368 . S
H1755 C1763 0.950 . S
H1756 C1761 0.950 . S
H1757 C1762 0.949 . S
H1758 C1764 0.950 . S
H1759 C1765 0.950 . S
H1760 C1766 0.949 . S
C1761 H1756 0.950 . S
C1761 C1763 1.327 . S
C1761 C1767 1.429 . S
C1762 C1754 1.574 . S
C1762 H1757 0.949 . S
C1762 C1768 1.368 . S
C1763 C1747 1.349 . S
C1763 H1755 0.950 . S
C1763 C1761 1.327 . S
C1764 C1752 1.349 . S
C1764 H1758 0.950 . S
C1764 C1765 1.327 . S
C1765 H1759 0.950 . S
C1765 C1764 1.327 . S
C1765 C1769 1.429 . S
C1766 C1749 1.574 . S
C1766 H1760 0.949 . S
C1766 C1770 1.368 . S
C1767 C1748 1.429 . S
C1767 C1761 1.429 . S
C1767 C1768 1.523 . S
C1768 C1749 1.368 . S
C1768 C1762 1.368 . S
C1768 C1767 1.523 . S
C1769 C1753 1.429 . S
C1769 C1765 1.429 . S
C1769 C1770 1.523 . S
C1770 C1754 1.368 . S
C1770 C1766 1.368 . S
C1770 C1769 1.523 . S
H1771 C1746 0.950 . S
H1772 C1748 0.950 . S
H1773 C1749 0.949 . S
H1774 C1751 0.950 . S
H1775 C1753 0.950 . S
C1057 C49 0.420 . S
C1062 C937 0.420 . S
C1087 C1017 0.420 . S
C1092 C117 0.420 . S
C1117 C585 0.420 . S
C1122 C196 0.420 . S
C1147 C284 0.420 . S
C1152 C645 0.420 . S
C1177 C401 0.420 . S
C1182 C724 0.420 . S
C1207 C821 0.420 . S
C1212 C489 0.420 . S
C1237 C20 0.578 . S
C1242 C673 0.577 . S
C1267 C753 0.578 . S
C1272 C145 0.577 . S
C1297 C849 0.578 . S
C1302 C225 0.577 . S
C1327 C313 0.578 . S
C1332 C909 0.577 . S
C1357 C988 0.578 . S
C1362 C372 0.577 . S
C1387 C460 0.578 . S
C1392 C557 0.578 . S
C1417 C293 0.640 . S
C1422 C57 0.639 . S
C1447 C409 0.638 . S
C1452 C108 0.638 . S
C1477 C497 0.640 . S
C1482 C205 0.640 . S
C1507 C577 0.639 . S
C1512 C812 0.639 . S
C1537 C636 0.639 . S
C1542 C929 0.639 . S
C1567 C733 0.640 . S
C1572 C1025 0.640 . S
C1597 C761 1.520 . S
C1602 C29 1.520 . S
C1627 C841 1.519 . S
C1632 C137 1.519 . S
C1657 C900 1.521 . S
C1662 C233 1.521 . S
C1687 C997 1.520 . S
C1692 C321 1.520 . S
C1717 C548 1.519 . S
C1722 C381 1.519 . S
C1747 C469 1.521 . S
C1752 C665 1.521 . S
