# Generated by pormake.
# Topology tsi, (8)-cn, num edge types: 1
# Building blocks:
#     Node 0, Type 0, BuildingBlock: LIZSOE_clean_sbu_0, # of connection points: 8
#     Node 1, Type 0, BuildingBlock: LIZSOE_clean_sbu_0, # of connection points: 8
#     Node 2, Type 0, BuildingBlock: LIZSOE_clean_sbu_0, # of connection points: 8
#     Node 3, Type 0, BuildingBlock: LIZSOE_clean_sbu_0, # of connection points: 8
#     Edge 4, Type (0, 0), BuildingBlock: XUDNAN_clean_linker_2, # of connection points: 2
#     Edge 5, Type (0, 0), BuildingBlock: XUDNAN_clean_linker_2, # of connection points: 2
#     Edge 6, Type (0, 0), BuildingBlock: XUDNAN_clean_linker_2, # of connection points: 2
#     Edge 7, Type (0, 0), BuildingBlock: XUDNAN_clean_linker_2, # of connection points: 2
#     Edge 8, Type (0, 0), BuildingBlock: XUDNAN_clean_linker_2, # of connection points: 2
#     Edge 9, Type (0, 0), BuildingBlock: XUDNAN_clean_linker_2, # of connection points: 2
#     Edge 10, Type (0, 0), BuildingBlock: XUDNAN_clean_linker_2, # of connection points: 2
#     Edge 11, Type (0, 0), BuildingBlock: XUDNAN_clean_linker_2, # of connection points: 2
#     Edge 12, Type (0, 0), BuildingBlock: XUDNAN_clean_linker_2, # of connection points: 2
#     Edge 13, Type (0, 0), BuildingBlock: XUDNAN_clean_linker_2, # of connection points: 2
#     Edge 14, Type (0, 0), BuildingBlock: XUDNAN_clean_linker_2, # of connection points: 2
#     Edge 15, Type (0, 0), BuildingBlock: XUDNAN_clean_linker_2, # of connection points: 2
#     Edge 16, Type (0, 0), BuildingBlock: XUDNAN_clean_linker_2, # of connection points: 2
#     Edge 17, Type (0, 0), BuildingBlock: XUDNAN_clean_linker_2, # of connection points: 2
#     Edge 18, Type (0, 0), BuildingBlock: XUDNAN_clean_linker_2, # of connection points: 2
#     Edge 19, Type (0, 0), BuildingBlock: XUDNAN_clean_linker_2, # of connection points: 2
# Relax obj value: 0.234
# Max RMSD: 0.259
# Mean RMSD: 0.250
data_MOF--net-tsi--node1-LIZSOE_clean_sbu_0--edge1-XUDNAN_clean_linker_2
_symmetry_space_group_name_H-M    P1
_symmetry_Int_Tables_number       1
_symmetry_cell_setting            triclinic
loop_
_symmetry_equiv_pos_as_xyz
'x, y, z'
_cell_length_a     15.484471
_cell_length_b     15.475229
_cell_length_c     65.828817
_cell_angle_alpha  100.46311
_cell_angle_beta   101.04002
_cell_angle_gamma 89.545712
loop_
_atom_site_label
_atom_site_type_symbol
_atom_site_fract_x
_atom_site_fract_y
_atom_site_fract_z
_atom_type_partial_charge
Co0 Co 0.27826 0.43183 0.47797 0.0
N1 N 0.3551 0.36246 0.49318 0.0
C2 C 0.44307 0.37786 0.4985 0.0
N3 N 0.41687 0.2649 0.51261 0.0
C4 C 0.34101 0.29277 0.50216 0.0
C5 C 0.48112 0.31761 0.5102 0.0
Co6 Co 0.05887 0.53163 0.38904 0.0
N7 N 0.97018 0.5773 0.3711 0.0
N8 N 0.9039 0.6172 0.34071 0.0
C9 C 0.84242 0.60568 0.35209 0.0
C10 C 0.88287 0.58114 0.37055 0.0
C11 C 0.98136 0.60055 0.35293 0.0
Co12 Co 0.17003 0.49016 0.43421 0.0
C13 C 0.12058 0.41701 0.38714 0.0
H14 H 0.84933 0.56151 0.38195 0.0
O15 O 0.20085 0.50146 0.46611 0.0
O16 O 1.04312 0.48751 0.43645 0.0
O17 O 0.16373 0.35875 0.42894 0.0
O18 O 0.29961 0.48928 0.43224 0.0
O19 O 0.36253 0.4501 0.46274 0.0
O20 O 0.97523 0.5009 0.4042 0.0
O21 O 0.14338 0.48195 0.40302 0.0
O22 O 0.07852 0.63862 0.40731 0.0
O23 O 0.24073 0.33061 0.4587 0.0
O24 O 0.18932 0.41714 0.48989 0.0
O25 O 0.16839 0.62363 0.43778 0.0
O26 O 0.04926 0.42446 0.37348 0.0
C27 C 0.19705 0.30487 0.44044 0.0
C28 C 0.07077 0.60646 0.34765 0.0
H29 H 0.08886 0.54038 0.3402 0.0
H30 H 0.07218 0.65346 0.33683 0.0
H31 H 0.12051 0.62729 0.3623 0.0
C32 C 0.97343 0.48903 0.42266 0.0
C33 C 0.36724 0.46943 0.44504 0.0
H34 H 0.47764 0.43086 0.49448 0.0
H35 H 0.2203 0.28994 0.51335 0.0
H36 H 0.25815 0.18289 0.50376 0.0
H37 H 0.20884 0.25076 0.48553 0.0
C38 C 0.25215 0.25149 0.501 0.0
C39 C 0.15911 0.48082 0.48036 0.0
C40 C 0.12233 0.6707 0.42558 0.0
H41 H 0.55023 0.31448 0.51703 0.0
H42 H 0.77196 0.60812 0.34677 0.0
Co43 Co 0.09347 0.5988 0.71132 0.0
N44 N 1.02424 0.5291 0.72278 0.0
C45 C 0.05422 0.45374 0.72892 0.0
N46 N 0.92387 0.471 0.73728 0.0
C47 C 0.94428 0.53855 0.72837 0.0
C48 C 0.9929 0.418 0.73769 0.0
Co49 Co 0.23437 0.71364 0.63428 0.0
N50 N 0.32005 0.77656 0.62465 0.0
N51 N 0.39196 0.85875 0.60785 0.0
C52 C 0.45179 0.81798 0.6201 0.0
C53 C 0.40807 0.76871 0.63042 0.0
C54 C 0.31238 0.83301 0.61077 0.0
Co55 Co 0.15732 0.66665 0.67236 0.0
C56 C 0.15093 0.69862 0.62541 0.0
H57 H 0.43999 0.72863 0.64123 0.0
O58 O 0.16371 0.67177 0.70373 0.0
O59 O 0.16238 0.79965 0.67713 0.0
O60 O 1.02742 0.67642 0.66686 0.0
O61 O 0.15201 0.53217 0.66713 0.0
O62 O 0.13981 0.49904 0.69819 0.0
O63 O 0.26965 0.79457 0.66013 0.0
O64 O 0.15059 0.65527 0.64108 0.0
O65 O 0.31971 0.63557 0.64457 0.0
O66 O 0.99854 0.59082 0.68812 0.0
O67 O 0.05299 0.70135 0.72167 0.0
O68 O 0.29049 0.6571 0.67726 0.0
O69 O 0.14661 0.78389 0.62749 0.0
C70 C 0.97347 0.63181 0.67321 0.0
C71 C 0.2262 0.86123 0.5993 0.0
H72 H 0.19775 0.91159 0.61023 0.0
H73 H 0.23387 0.88937 0.58542 0.0
H74 H 0.17879 0.80539 0.5935 0.0
C75 C 0.22151 0.83947 0.67114 0.0
C76 C 0.15305 0.47677 0.67958 0.0
H77 H 0.11837 0.42745 0.72777 0.0
H78 H 0.92402 0.67346 0.74027 0.0
H79 H 0.82347 0.61072 0.72998 0.0
H80 H 0.88843 0.64124 0.71238 0.0
C81 C 0.89136 0.61999 0.7276 0.0
C82 C 0.13073 0.72132 0.71887 0.0
C83 C 0.34197 0.63238 0.66416 0.0
H84 H 0.99915 0.35857 0.74431 0.0
H85 H 0.52238 0.8227 0.62127 0.0
Co86 Co 0.28478 0.77088 0.95635 0.0
N87 N 0.23115 0.84277 0.97641 0.0
C88 C 0.1527 0.8206 0.98044 0.0
N89 N 0.21481 0.91713 1.00825 0.0
C90 C 0.26692 0.90347 0.9936 0.0
C91 C 0.14234 0.8663 0.99972 0.0
Co92 Co 0.3636 0.57687 0.86429 0.0
N93 N 0.41708 0.49149 0.84745 0.0
N94 N 0.49147 0.42304 0.82331 0.0
C95 C 0.42 0.37328 0.82271 0.0
C96 C 0.37486 0.41506 0.83752 0.0
C97 C 0.48882 0.49441 0.8385 0.0
Co98 Co 0.32917 0.68756 0.90942 0.0
C99 C 0.34197 0.70601 0.8643 0.0
H100 H 0.31112 0.39439 0.83963 0.0
O101 O 0.34354 0.70163 0.94057 0.0
O102 O 0.46189 0.68914 0.91275 0.0
O103 O 0.32842 0.82011 0.91037 0.0
O104 O 0.19679 0.68402 0.90643 0.0
O105 O 0.17463 0.74039 0.93886 0.0
O106 O 0.4664 0.58752 0.88469 0.0
O107 O 0.31 0.66649 0.87754 0.0
O108 O 0.32044 0.48815 0.87636 0.0
O109 O 0.29525 0.86449 0.94219 0.0
O110 O 0.3938 0.79188 0.97083 0.0
O111 O 0.32665 0.55733 0.90942 0.0
O112 O 0.40259 0.66664 0.85528 0.0
C113 C 0.31132 0.88131 0.92501 0.0
C114 C 0.54993 0.57337 0.8424 0.0
H115 H 0.55372 0.61297 0.8583 0.0
H116 H 0.61755 0.55379 0.84083 0.0
H117 H 0.52609 0.61506 0.83053 0.0
C118 C 0.50449 0.63391 0.90187 0.0
C119 C 0.14585 0.70684 0.91964 0.0
H120 H 0.10891 0.76825 0.97096 0.0
H121 H 0.40751 0.91395 1.00343 0.0
H122 H 0.35328 1.01743 1.00592 0.0
H123 H 0.36565 0.95914 0.98026 0.0
C124 C 0.35315 0.9515 0.99588 0.0
C125 C 0.40868 0.7276 0.95635 0.0
C126 C 0.31661 0.48716 0.89542 0.0
H127 H 0.08893 0.85703 1.00767 0.0
H128 H 0.3983 0.31447 0.81119 0.0
Co129 Co 0.49211 0.3255 0.22013 0.0
N130 N 0.44197 0.27572 0.23955 0.0
C131 C 0.46416 0.1947 0.24327 0.0
N132 N 0.38803 0.24933 0.26754 0.0
C133 C 0.39529 0.30786 0.25473 0.0
C134 C 0.43074 0.17819 0.26005 0.0
Co135 Co 0.53828 0.40194 0.12631 0.0
N136 N 0.58841 0.44912 0.10698 0.0
N137 N 0.60543 0.48574 0.07632 0.0
C138 C 0.67629 0.51591 0.09127 0.0
C139 C 0.6658 0.49338 0.10998 0.0
C140 C 0.55265 0.44615 0.08641 0.0
Co141 Co 0.52115 0.36657 0.17371 0.0
C142 C 0.49433 0.28173 0.1275 0.0
H143 H 0.71163 0.50876 0.12483 0.0
O144 O 0.54754 0.37986 0.20489 0.0
O145 O 0.52982 0.49924 0.17608 0.0
O146 O 0.39247 0.37428 0.1738 0.0
O147 O 0.51452 0.23601 0.17131 0.0
O148 O 0.48961 0.21428 0.2025 0.0
O149 O 0.54204 0.51097 0.14321 0.0
O150 O 0.48887 0.34951 0.14231 0.0
O151 O 0.65048 0.38159 0.1409 0.0
O152 O 0.3767 0.34737 0.20517 0.0
O153 O 0.50158 0.43509 0.23468 0.0
O154 O 0.65245 0.35836 0.17339 0.0
O155 O 0.53173 0.29331 0.11206 0.0
C156 C 0.34441 0.36507 0.1871 0.0
C157 C 0.46192 0.40888 0.07685 0.0
H158 H 0.42235 0.40944 0.08927 0.0
H159 H 0.42843 0.44677 0.06497 0.0
H160 H 0.46658 0.33963 0.06904 0.0
C161 C 0.53981 0.54505 0.16219 0.0
C162 C 0.50107 0.18548 0.18385 0.0
H163 H 0.50629 0.15131 0.23501 0.0
H164 H 0.40611 0.44541 0.26747 0.0
H165 H 0.29708 0.39824 0.26405 0.0
H166 H 0.33954 0.41829 0.24152 0.0
C167 C 0.35676 0.39746 0.257 0.0
C168 C 0.54449 0.44642 0.22008 0.0
C169 C 0.69222 0.36589 0.15836 0.0
H170 H 0.44073 0.11948 0.2669 0.0
H171 H 0.73214 0.55159 0.08881 0.0
H172 H 0.26528 0.57767 0.5125 0.0
H173 H 0.98985 0.52279 0.48563 0.0
H174 H 0.95266 0.57524 0.52083 0.0
H175 H 0.24994 0.46694 0.55211 0.0
H176 H 0.33467 0.53038 0.5716 0.0
H177 H 0.33778 0.51974 0.54408 0.0
H178 H 0.34029 0.68881 0.54696 0.0
H179 H 0.34165 0.70002 0.57469 0.0
H180 H 0.25803 0.75262 0.5584 0.0
H181 H 0.95121 0.62786 0.56134 0.0
H182 H 0.98517 0.66585 0.60049 0.0
H183 H 0.2622 0.63307 0.59957 0.0
C184 C 0.19652 0.58284 0.51374 0.0
C185 C 0.13008 0.55042 0.49603 0.0
C186 C 1.04139 0.5513 0.49866 0.0
C187 C 1.02011 0.57917 0.51877 0.0
C188 C 0.08866 0.60198 0.53624 0.0
C189 C 0.17532 0.60249 0.53377 0.0
C190 C 0.23843 0.60993 0.55471 0.0
C191 C 0.29339 0.52683 0.55567 0.0
C192 C 0.29802 0.69284 0.55895 0.0
C193 C 0.17429 0.61699 0.56959 0.0
C194 C 0.08811 0.61456 0.55885 0.0
C195 C 1.01848 0.62793 0.56976 0.0
C196 C 1.03803 0.64798 0.59202 0.0
C197 C 0.12611 0.65049 0.60317 0.0
C198 C 0.19411 0.63049 0.59164 0.0
H199 H 0.66824 0.4129 0.82754 0.0
H200 H 0.42631 0.41819 0.78227 0.0
H201 H 0.5118 0.42232 0.75425 0.0
H202 H 0.78443 0.56775 0.80938 0.0
H203 H 0.88936 0.51603 0.81385 0.0
H204 H 0.80942 0.50219 0.82966 0.0
H205 H 0.81555 0.33291 0.81911 0.0
H206 H 0.8962 0.34611 0.80339 0.0
H207 H 0.79617 0.28275 0.79163 0.0
H208 H 0.62345 0.43763 0.73206 0.0
H209 H 0.75498 0.4601 0.717 0.0
H210 H 0.92363 0.4514 0.77704 0.0
C211 C 0.63383 0.41389 0.81164 0.0
C212 C 0.5413 0.41541 0.80686 0.0
C213 C 0.49744 0.41625 0.78598 0.0
C214 C 0.54535 0.41895 0.77009 0.0
C215 C 0.6369 0.42045 0.77543 0.0
C216 C 0.68079 0.41748 0.79567 0.0
C217 C 0.77945 0.42545 0.79756 0.0
C218 C 0.81788 0.50775 0.81356 0.0
C219 C 0.82447 0.3418 0.80325 0.0
C220 C 0.78408 0.43472 0.77531 0.0
C221 C 0.7012 0.43106 0.76275 0.0
C222 C 0.68868 0.44033 0.74172 0.0
C223 C 0.76307 0.45366 0.73334 0.0
C224 C 0.84806 0.45862 0.74603 0.0
C225 C 0.85876 0.44805 0.76717 0.0
H226 H 0.5533 0.76822 0.98702 0.0
H227 H 0.40548 0.54663 0.94584 0.0
H228 H 0.464 0.45118 0.97096 0.0
H229 H 0.74177 0.64285 1.01505 0.0
H230 H 0.73787 0.71488 1.03966 0.0
H231 H 0.71337 0.7562 1.01533 0.0
H232 H 0.56422 0.80984 1.02443 0.0
H233 H 0.58598 0.766 0.04828 0.0
H234 H 0.48753 0.73173 1.02896 0.0
H235 H 0.50632 0.38946 1.0044 0.0
H236 H 0.53812 0.36533 1.04119 0.0
H237 H 0.64186 0.63241 0.06215 0.0
C238 C 0.53775 0.69837 0.98265 0.0
C239 C 0.47474 0.66521 0.96428 0.0
C240 C 0.45454 0.57383 0.95943 0.0
C241 C 0.48676 0.51908 0.97391 0.0
C242 C 0.53963 0.5566 0.99313 0.0
C243 C 0.56642 0.64417 0.99735 0.0
C244 C 0.60845 0.67338 1.02039 0.0
C245 C 0.70619 0.69826 1.02274 0.0
C246 C 0.55853 0.74965 1.03112 0.0
C247 C 0.59751 0.58993 1.02871 0.0
C248 C 0.5595 0.5227 1.01272 0.0
C249 C 0.53711 0.44145 1.01695 0.0
C250 C 0.55392 0.42877 1.03796 0.0
C251 C 0.59077 0.49757 0.05462 0.0
C252 C 0.61413 0.57847 0.04975 0.0
H253 H 0.76838 0.70438 0.32221 0.0
H254 H 0.98672 0.54168 0.30888 0.0
H255 H 0.9329 0.53269 0.27119 0.0
H256 H 0.62099 0.5716 0.2902 0.0
H257 H 0.54478 0.65184 0.28131 0.0
H258 H 0.61842 0.67918 0.30614 0.0
H259 H 0.67686 0.81426 0.29405 0.0
H260 H 0.60376 0.78548 0.26883 0.0
H261 H 0.72029 0.79928 0.27016 0.0
H262 H 0.83893 0.50439 0.23638 0.0
H263 H 0.70963 0.43702 0.21122 0.0
H264 H 0.54045 0.60519 0.24526 0.0
C265 C 0.8068 0.67014 0.31131 0.0
C266 C 0.88397 0.62687 0.31882 0.0
C267 C 0.9307 0.58004 0.30398 0.0
C268 C 0.89981 0.57394 0.28228 0.0
C269 C 0.82092 0.61345 0.27541 0.0
C270 C 0.77464 0.66051 0.28958 0.0
C271 C 0.68175 0.67681 0.27882 0.0
C272 C 0.61256 0.64269 0.28975 0.0
C273 C 0.67002 0.7748 0.27791 0.0
C274 C 0.67999 0.62341 0.25699 0.0
C275 C 0.76255 0.59217 0.25496 0.0
C276 C 0.77464 0.53024 0.23755 0.0
C277 C 0.70026 0.49276 0.22302 0.0
C278 C 0.61481 0.51568 0.22633 0.0
C279 C 0.60531 0.58761 0.24229 0.0
H280 H 0.40216 0.38904 0.30056 0.0
H281 H 0.28973 0.12599 0.27723 0.0
H282 H 0.23425 0.13016 0.31014 0.0
H283 H 0.4641 0.37048 0.35624 0.0
H284 H 0.43298 0.48067 0.36575 0.0
H285 H 0.47089 0.45557 0.34114 0.0
H286 H 0.3276 0.5152 0.32175 0.0
H287 H 0.2904 0.54267 0.34633 0.0
H288 H 0.22268 0.47292 0.32419 0.0
H289 H 0.18072 0.16631 0.34412 0.0
H290 H 0.11588 0.23999 0.37403 0.0
H291 H 0.26466 0.47817 0.37636 0.0
C292 C 0.3649 0.33288 0.30228 0.0
C293 C 0.34943 0.25732 0.28615 0.0
C294 C 0.3022 0.18443 0.28933 0.0
C295 C 0.27106 0.18597 0.30805 0.0
C296 C 0.28818 0.26077 0.32372 0.0
C297 C 0.33315 0.33336 0.32097 0.0
C298 C 0.33658 0.4079 0.33966 0.0
C299 C 0.43182 0.42992 0.35138 0.0
C300 C 0.29161 0.48946 0.33257 0.0
C301 C 0.28431 0.36673 0.35299 0.0
C302 C 0.25849 0.28112 0.34367 0.0
C303 C 0.20211 0.23258 0.35182 0.0
C304 C 0.16657 0.27436 0.36906 0.0
C305 C 0.1877 0.36358 0.378 0.0
C306 C 0.25096 0.40859 0.37054 0.0
H307 H 0.17707 0.60774 0.74512 0.0
H308 H 0.19981 0.88295 0.74181 0.0
H309 H 0.24595 0.9181 0.78089 0.0
H310 H 0.06124 0.65167 0.78638 0.0
H311 H 0.10337 0.5605 0.79853 0.0
H312 H 0.09423 0.55397 0.77067 0.0
H313 H 0.26002 0.52159 0.77304 0.0
H314 H 0.26888 0.52277 0.80073 0.0
H315 H 0.34034 0.59324 0.79193 0.0
H316 H 0.29686 0.91558 0.82195 0.0
H317 H 0.33742 0.87709 0.85751 0.0
H318 H 0.2286 0.6148 0.83246 0.0
C319 C 0.19488 0.67516 0.75247 0.0
C320 C 0.18803 0.74214 0.7402 0.0
C321 C 0.20815 0.83004 0.75069 0.0
C322 C 0.23274 0.85057 0.77295 0.0
C323 C 0.23244 0.78302 0.78456 0.0
C324 C 0.2125 0.69721 0.77446 0.0
C325 C 0.20428 0.63755 0.78989 0.0
C326 C 0.11019 0.5987 0.78614 0.0
C327 C 0.27243 0.56455 0.78884 0.0
C328 C 0.22492 0.70216 0.81049 0.0
C329 C 0.24368 0.78547 0.80736 0.0
C330 C 0.27879 0.85146 0.82446 0.0
C331 C 0.29971 0.82991 0.84481 0.0
C332 C 0.28162 0.7444 0.84813 0.0
C333 C 0.23804 0.68229 0.83076 0.0
H334 H 0.36878 0.91074 1.03594 0.0
H335 H 0.10833 1.01868 1.03008 0.0
H336 H 0.14447 0.09389 0.06738 0.0
H337 H 0.40119 0.89177 0.0929 0.0
H338 H 0.51544 0.92576 0.09764 0.0
H339 H 0.4635 0.86533 0.07219 0.0
H340 H 0.50768 0.98878 0.05392 0.0
H341 H 0.56255 0.04691 0.07911 0.0
H342 H 0.47935 0.10052 0.063 0.0
H343 H 0.21614 0.17537 0.10301 0.0
H344 H 0.3214 0.27471 0.12962 0.0
H345 H 0.53629 0.11608 0.11269 0.0
C346 C 0.31956 0.95066 1.04245 0.0
C347 C 0.23641 0.96085 1.02999 0.0
C348 C 0.17263 1.0108 1.03937 0.0
C349 C 0.19237 0.0528 0.06058 0.0
C350 C 0.27583 1.04299 0.07235 0.0
C351 C 0.33856 0.9934 0.06352 0.0
C352 C 0.42705 1.00329 0.07836 0.0
C353 C 0.4533 0.91634 0.0857 0.0
C354 C 0.49825 1.03697 0.06799 0.0
C355 C 0.40613 0.07128 0.09633 0.0
C356 C 0.31761 0.0905 0.09301 0.0
C357 C 0.28506 0.15949 0.10602 0.0
C358 C 0.34527 0.21508 0.12146 0.0
C359 C 0.43669 0.20266 0.12324 0.0
C360 C 0.46641 0.12545 0.11191 0.0
H361 H 0.34351 0.25789 0.54627 0.0
H362 H 0.51572 0.12211 0.5072 0.0
H363 H 0.5328 1.0035 0.52842 0.0
H364 H 0.45998 0.20532 0.59575 0.0
H365 H 0.36072 0.19224 0.60554 0.0
H366 H 0.36405 0.26645 0.58753 0.0
H367 H 0.22828 0.18482 0.56225 0.0
H368 H 0.22462 0.11039 0.58018 0.0
H369 H 0.23153 0.0679 0.55319 0.0
H370 H 0.52483 0.89775 0.55285 0.0
H371 H 0.49493 0.8126 0.57931 0.0
H372 H 0.3332 1.02112 0.60347 0.0
C373 C 0.38465 0.20291 0.5423 0.0
C374 C 0.42794 0.19763 0.52515 0.0
C375 C 0.48237 0.12618 0.52036 0.0
C376 C 0.49218 0.059 0.53227 0.0
C377 C 0.44796 0.06556 0.54904 0.0
C378 C 0.39575 0.13599 0.55415 0.0
C379 C 0.35495 0.12708 0.57284 0.0
C380 C 0.38687 0.20223 0.59152 0.0
C381 C 0.25386 0.12224 0.56674 0.0
C382 C 0.39148 1.04006 0.57729 0.0
C383 C 0.44491 1.00561 0.56337 0.0
C384 C 0.48369 0.92433 0.56392 0.0
C385 C 0.46668 0.87667 0.57896 0.0
C386 C 0.4113 0.91035 0.59314 0.0
C387 C 0.37478 0.99379 0.59255 0.0
H388 H 0.29946 0.16881 0.45067 0.0
H389 H 1.04234 0.22907 0.4175 0.0
H390 H 0.99296 0.07474 0.41419 0.0
H391 H 0.30897 0.95048 0.41871 0.0
H392 H 0.36641 0.90475 0.44067 0.0
H393 H 0.38063 1.01971 0.44023 0.0
H394 H 0.33404 0.05873 0.4765 0.0
H395 H 0.31744 0.94387 0.47678 0.0
H396 H 0.22908 1.01894 0.47957 0.0
H397 H 0.96772 0.92074 0.41722 0.0
H398 H 0.97635 0.76263 0.41755 0.0
H399 H 0.25371 0.79527 0.44625 0.0
C400 C 0.23332 0.14881 0.44232 0.0
C401 C 0.17443 0.2104 0.43428 0.0
C402 C 0.08851 0.18251 0.42352 0.0
C403 C 0.05964 0.09548 0.42187 0.0
C404 C 0.11808 1.03739 0.43079 0.0
C405 C 0.20396 0.06182 0.44018 0.0
C406 C 0.25446 0.98481 0.44745 0.0
C407 C 0.33219 0.96367 0.43608 0.0
C408 C 0.28557 1.00269 0.4715 0.0
C409 C 0.18334 0.91283 0.44053 0.0
C410 C 0.10478 0.94596 0.43152 0.0
C411 C 1.02898 0.89373 0.42396 0.0
C412 C 1.03461 0.80408 0.42435 0.0
C413 C 0.1159 0.76672 0.43177 0.0
C414 C 0.19064 0.82224 0.44074 0.0
H415 H 0.4607 0.51178 0.6516 0.0
H416 H 0.43687 0.75927 0.69296 0.0
H417 H 0.59586 0.7901 0.69689 0.0
H418 H 0.68114 0.46275 0.68163 0.0
H419 H 0.7178 0.41109 0.65807 0.0
H420 H 0.60285 0.40633 0.65943 0.0
H421 H 0.56432 0.47355 0.62576 0.0
H422 H 0.67902 0.48142 0.62443 0.0
H423 H 0.61321 0.57816 0.62515 0.0
H424 H 0.74866 0.80644 0.69076 0.0
H425 H 0.90226 0.78541 0.68597 0.0
H426 H 0.83502 0.51828 0.6533 0.0
C427 C 0.49004 0.57041 0.66222 0.0
C428 C 0.43721 0.6328 0.67219 0.0
C429 C 0.47685 0.70986 0.68562 0.0
C430 C 0.56669 0.72867 0.68761 0.0
C431 C 0.61611 0.66832 0.6766 0.0
C432 C 0.58047 0.58875 0.66504 0.0
C433 C 0.64951 0.53429 0.65545 0.0
C434 C 0.66373 0.44852 0.66417 0.0
C435 C 0.625 0.5158 0.63127 0.0
C436 C 0.72898 0.59648 0.66317 0.0
C437 C 0.7071 0.67463 0.67468 0.0
C438 C 0.76722 0.7449 0.68218 0.0
C439 C 0.85371 0.73303 0.67902 0.0
C440 C 0.87956 0.65072 0.6691 0.0
C441 C 0.81617 0.58212 0.66069 0.0
H442 H 0.34869 0.3193 0.87534 0.0
H443 H 0.26021 0.46067 0.93062 0.0
H444 H 0.24857 0.32148 0.9431 0.0
H445 H 0.20919 0.12152 0.86812 0.0
H446 H 0.29218 0.04717 0.86038 0.0
H447 H 0.29091 0.1574 0.85505 0.0
H448 H 0.45225 0.18341 0.87499 0.0
H449 H 0.45382 0.07338 0.88045 0.0
H450 H 0.48096 0.16588 0.90177 0.0
H451 H 0.24769 0.17132 0.95013 0.0
H452 H 0.25812 1.0159 0.95209 0.0
H453 H 0.3509 0.96327 0.89282 0.0
C454 C 0.32578 0.32071 0.88993 0.0
C455 C 0.30517 0.40143 0.90199 0.0
C456 C 0.27677 0.40029 0.92115 0.0
C457 C 0.26969 0.32135 0.92835 0.0
C458 C 0.29132 0.2435 0.91628 0.0
C459 C 0.31879 0.24198 0.89749 0.0
C460 C 0.34018 0.14851 0.88807 0.0
C461 C 0.27948 0.11678 0.86663 0.0
C462 C 0.43761 0.14247 0.88622 0.0
C463 C 0.3205 0.09811 0.90459 0.0
C464 C 0.29216 0.155 0.9206 0.0
C465 C 0.26994 0.12612 0.93772 0.0
C466 C 0.27667 1.03689 0.93867 0.0
C467 C 0.30607 0.97586 0.92266 0.0
C468 C 0.32813 1.00745 0.90529 0.0
H469 H 0.21185 0.35462 0.21024 0.0
H470 H 0.25544 0.39024 0.1489 0.0
H471 H 0.09664 0.38567 0.13581 0.0
H472 H 1.01945 0.21156 0.19228 0.0
H473 H 0.96082 0.26166 0.21236 0.0
H474 H 0.07948 0.26494 0.21765 0.0
H475 H 0.08126 0.43491 0.22763 0.0
H476 H 0.96276 0.43099 0.22286 0.0
H477 H 1.01947 0.49726 0.2094 0.0
H478 H 0.93872 0.36607 0.12798 0.0
H479 H 0.78136 0.35931 0.12661 0.0
H480 H 0.82622 0.35479 0.19377 0.0
C481 C 0.18786 0.36188 0.1941 0.0
C482 C 0.24719 0.37048 0.18048 0.0
C483 C 0.21253 0.38115 0.15957 0.0
C484 C 0.12195 0.37892 0.15193 0.0
C485 C 0.06579 0.36824 0.16547 0.0
C486 C 0.09643 0.36208 0.18624 0.0
C487 C 1.01933 0.35552 0.19736 0.0
C488 C 1.01983 0.26821 0.20539 0.0
C489 C 1.02081 0.43442 0.21538 0.0
C490 C 0.94115 0.35831 0.17944 0.0
C491 C 0.97098 0.3641 0.16123 0.0
C492 C 0.91425 0.36368 0.14221 0.0
C493 C 0.82416 0.3601 0.14171 0.0
C494 C 0.78976 0.35929 0.16023 0.0
C495 C 0.84965 0.35668 0.17939 0.0
H496 H 0.11121 0.96897 0.68666 0.0
H497 H 0.34464 0.93148 0.65877 0.0
H498 H 0.34429 0.08577 0.65495 0.0
H499 H 1.00567 0.12016 0.65553 0.0
H500 H 0.96673 0.1901 0.67675 0.0
H501 H 0.98343 0.07527 0.67749 0.0
H502 H 0.08837 0.11544 0.71377 0.0
H503 H 0.07032 0.23023 0.71328 0.0
H504 H 0.18072 0.18997 0.71673 0.0
H505 H 0.31579 0.24385 0.65223 0.0
H506 H 0.27447 0.40065 0.65685 0.0
H507 H 0.06602 0.33974 0.68801 0.0
C508 C 0.16303 0.99361 0.68011 0.0
C509 C 0.22715 0.93685 0.67282 0.0
C510 C 0.29384 0.97247 0.66431 0.0
C511 C 0.29432 0.06048 0.66196 0.0
C512 C 0.22879 0.11382 0.66857 0.0
C513 C 0.16567 0.08261 0.67798 0.0
C514 C 0.10503 0.15564 0.68447 0.0
C515 C 1.00956 0.13396 0.67286 0.0
C516 C 0.11153 0.1739 0.70849 0.0
C517 C 0.14388 0.23176 0.67715 0.0
C518 C 0.21444 0.20603 0.66772 0.0
C519 C 0.2608 0.26505 0.65969 0.0
C520 C 0.23645 0.35367 0.66214 0.0
C521 C 0.16727 0.38211 0.67274 0.0
C522 C 0.11943 0.31971 0.67986 0.0
H523 H 0.63343 0.75766 0.92551 0.0
H524 H 0.59642 0.49298 0.88867 0.0
H525 H 0.75388 0.48687 0.88806 0.0
H526 H 0.79365 0.83257 0.9013 0.0
H527 H 0.86239 0.89209 0.92484 0.0
H528 H 0.74643 0.87653 0.92389 0.0
H529 H 0.77992 0.80399 0.95694 0.0
H530 H 0.89605 0.82119 0.95829 0.0
H531 H 0.85257 0.71243 0.95724 0.0
H532 H 0.90993 0.51474 0.88688 0.0
H533 H 0.0661 0.56259 0.89272 0.0
H534 H 1.01059 0.80231 0.93318 0.0
C535 C 0.65905 0.6976 0.91792 0.0
C536 C 0.6018 0.62644 0.90686 0.0
C537 C 0.63829 0.54905 0.89702 0.0
C538 C 0.7279 0.54479 0.89648 0.0
C539 C 0.7817 0.61743 0.9064 0.0
C540 C 0.74983 0.69121 0.91761 0.0
C541 C 0.82388 0.75895 0.92717 0.0
C542 C 0.80544 0.84513 0.91879 0.0
C543 C 0.839 0.77508 0.95135 0.0
C544 C 0.90088 0.71214 0.9191 0.0
C545 C 0.87441 0.63119 0.90686 0.0
C546 C 0.93211 0.57737 0.89676 0.0
C547 C 1.02038 0.60547 0.89993 0.0
C548 C 0.05033 0.68586 0.91338 0.0
C549 C 0.98938 0.74028 0.92286 0.0
H550 H 0.4628 0.67192 0.1886 0.0
H551 H 0.65237 0.6351 0.14715 0.0
H552 H 0.65896 0.79344 0.14782 0.0
H553 H 0.34453 0.83874 0.16737 0.0
H554 H 0.32988 0.90547 0.19186 0.0
H555 H 0.34338 0.78876 0.19003 0.0
H556 H 0.47615 0.81549 0.22126 0.0
H557 H 0.4618 0.93235 0.22351 0.0
H558 H 0.56665 0.88621 0.2203 0.0
H559 H 0.63001 0.94858 0.14805 0.0
H560 H 0.59389 0.10483 0.15505 0.0
H561 H 0.43237 0.05072 0.19874 0.0
C562 C 0.50751 0.69786 0.18025 0.0
C563 C 0.55594 0.64109 0.16752 0.0
C564 C 0.61346 0.67723 0.15669 0.0
C565 C 0.61773 0.76716 0.15692 0.0
C566 C 0.56557 0.82097 0.16848 0.0
C567 C 0.51379 0.78891 0.18056 0.0
C568 C 0.46498 0.86325 0.19154 0.0
C569 C 0.36475 0.8481 0.18479 0.0
C570 C 0.49415 0.87503 0.21558 0.0
C571 C 0.49605 0.94056 0.18319 0.0
C572 C 0.55302 0.91382 0.16968 0.0
C573 C 0.58699 0.97117 0.15897 0.0
C574 C 0.56523 0.05961 0.16286 0.0
C575 C 0.51099 0.09003 0.17755 0.0
C576 C 0.47483 1.02934 0.18759 0.0
H577 H 0.8264 0.58725 0.41607 0.0
H578 H 0.92685 0.35783 0.44109 0.0
H579 H 0.77777 0.32264 0.44628 0.0
H580 H 0.67719 0.64786 0.45143 0.0
H581 H 0.59318 0.68428 0.43206 0.0
H582 H 0.70701 0.68987 0.42982 0.0
H583 H 0.66856 0.59718 0.39213 0.0
H584 H 0.55465 0.59073 0.39438 0.0
H585 H 0.61338 0.49153 0.38804 0.0
H586 H 0.62052 0.30965 0.44764 0.0
H587 H 0.46621 0.33048 0.45083 0.0
H588 H 0.46367 0.57161 0.42579 0.0
C589 C 0.81639 0.52901 0.42236 0.0
C590 C 0.88714 0.47395 0.42782 0.0
C591 C 0.87312 0.40044 0.43684 0.0
C592 C 0.78873 0.37964 0.43962 0.0
C593 C 0.71969 0.43364 0.43345 0.0
C594 C 0.7326 0.50772 0.42538 0.0
C595 C 0.6476 0.55701 0.42111 0.0
C596 C 0.65681 0.65027 0.43441 0.0
C597 C 0.61941 0.55923 0.39751 0.0
C598 C 0.58488 0.49942 0.4283 0.0
C599 C 0.6282 0.4279 0.43496 0.0
C600 C 0.58606 0.3655 0.4426 0.0
C601 C 0.49834 0.37808 0.44432 0.0
C602 C 0.45333 0.4531 0.43873 0.0
C603 C 0.49628 0.51343 0.43 0.0
loop_
_geom_bond_atom_site_label_1
_geom_bond_atom_site_label_2
_geom_bond_distance
_geom_bond_site_symmetry_2
_ccdc_geom_bond_type
Co0 N1 2.034 . S
Co0 O15 2.262 . S
Co0 O19 1.958 . S
Co0 O23 1.950 . S
Co0 O24 2.057 . S
N1 Co0 2.034 . S
N1 C2 1.366 . S
N1 C4 1.332 . S
C2 N1 1.366 . S
C2 C5 1.377 . S
C2 H34 0.931 . S
N3 C4 1.346 . S
N3 C5 1.337 . S
C4 N1 1.332 . S
C4 N3 1.346 . S
C4 C38 1.361 . S
C5 C2 1.377 . S
C5 N3 1.337 . S
C5 H41 0.930 . S
Co6 N7 2.034 . S
Co6 O20 1.950 . S
Co6 O21 2.262 1_655 S
Co6 O22 1.958 1_655 S
Co6 O26 2.057 1_655 S
N7 Co6 2.034 . S
N7 C10 1.366 . S
N7 C11 1.332 . S
N8 C9 1.337 . S
N8 C11 1.346 . S
C9 N8 1.337 . S
C9 C10 1.377 . S
C9 H42 0.930 . S
C10 N7 1.366 . S
C10 C9 1.377 . S
C10 H14 0.931 . S
C11 N7 1.332 . S
C11 N8 1.346 . S
C11 C28 1.361 . S
Co12 O15 2.097 . S
Co12 O16 2.065 1_455 S
Co12 O17 2.065 . S
Co12 O18 2.042 . S
Co12 O21 2.097 . S
Co12 O25 2.042 . S
C13 O21 1.253 . S
C13 O26 1.263 . S
H14 C10 0.931 . S
O15 Co0 2.262 . S
O15 Co12 2.097 . S
O15 C39 1.253 . S
O16 Co12 2.065 1_655 S
O16 C32 1.221 . S
O17 Co12 2.065 . S
O17 C27 1.221 . S
O18 Co12 2.042 . S
O18 C33 1.237 . S
O19 Co0 1.958 . S
O19 C33 1.278 . S
O20 Co6 1.950 . S
O20 C32 1.277 . S
O21 Co6 2.262 1_455 S
O21 Co12 2.097 . S
O21 C13 1.253 . S
O22 Co6 1.958 1_455 S
O22 C40 1.278 . S
O23 Co0 1.950 . S
O23 C27 1.277 . S
O24 Co0 2.057 . S
O24 C39 1.263 . S
O25 Co12 2.042 . S
O25 C40 1.237 . S
O26 Co6 2.057 1_455 S
O26 C13 1.263 . S
C27 O17 1.221 . S
C27 O23 1.277 . S
C28 C11 1.361 . S
C28 H29 0.960 . S
C28 H30 0.961 . S
C28 H31 0.961 . S
H29 C28 0.960 . S
H30 C28 0.961 . S
H31 C28 0.961 . S
C32 O16 1.221 . S
C32 O20 1.277 . S
C33 O18 1.237 . S
C33 O19 1.278 . S
H34 C2 0.931 . S
H35 C38 0.961 . S
H36 C38 0.961 . S
H37 C38 0.960 . S
C38 C4 1.361 . S
C38 H35 0.961 . S
C38 H36 0.961 . S
C38 H37 0.960 . S
C39 O15 1.253 . S
C39 O24 1.263 . S
C40 O22 1.278 . S
C40 O25 1.237 . S
H41 C5 0.930 . S
H42 C9 0.930 . S
Co43 N44 2.034 . S
Co43 O58 2.262 . S
Co43 O62 1.958 . S
Co43 O66 1.950 . S
Co43 O67 2.057 . S
N44 Co43 2.034 . S
N44 C45 1.366 . S
N44 C47 1.332 . S
C45 N44 1.366 . S
C45 C48 1.377 . S
C45 H77 0.931 . S
N46 C47 1.346 1_655 S
N46 C48 1.337 1_655 S
C47 N44 1.332 . S
C47 N46 1.346 1_455 S
C47 C81 1.361 1_455 S
C48 C45 1.377 . S
C48 N46 1.337 1_455 S
C48 H84 0.930 . S
Co49 N50 2.034 . S
Co49 O63 1.950 . S
Co49 O64 2.262 . S
Co49 O65 1.958 . S
Co49 O69 2.057 . S
N50 Co49 2.034 . S
N50 C53 1.366 . S
N50 C54 1.332 . S
N51 C52 1.337 . S
N51 C54 1.346 . S
C52 N51 1.337 . S
C52 C53 1.377 . S
C52 H85 0.930 . S
C53 N50 1.366 . S
C53 C52 1.377 . S
C53 H57 0.931 . S
C54 N50 1.332 . S
C54 N51 1.346 . S
C54 C71 1.361 . S
Co55 O58 2.097 . S
Co55 O59 2.065 . S
Co55 O60 2.065 . S
Co55 O61 2.042 . S
Co55 O64 2.097 . S
Co55 O68 2.042 . S
C56 O64 1.253 . S
C56 O69 1.263 . S
H57 C53 0.931 . S
O58 Co43 2.262 . S
O58 Co55 2.097 . S
O58 C82 1.253 . S
O59 Co55 2.065 . S
O59 C75 1.221 . S
O60 Co55 2.065 . S
O60 C70 1.221 . S
O61 Co55 2.042 . S
O61 C76 1.237 . S
O62 Co43 1.958 . S
O62 C76 1.278 . S
O63 Co49 1.950 . S
O63 C75 1.277 . S
O64 Co49 2.262 . S
O64 Co55 2.097 . S
O64 C56 1.253 . S
O65 Co49 1.958 . S
O65 C83 1.278 . S
O66 Co43 1.950 . S
O66 C70 1.277 . S
O67 Co43 2.057 . S
O67 C82 1.263 . S
O68 Co55 2.042 . S
O68 C83 1.237 . S
O69 Co49 2.057 . S
O69 C56 1.263 . S
C70 O60 1.221 . S
C70 O66 1.277 . S
C71 C54 1.361 . S
C71 H72 0.960 . S
C71 H73 0.961 . S
C71 H74 0.961 . S
H72 C71 0.960 . S
H73 C71 0.961 . S
H74 C71 0.961 . S
C75 O59 1.221 . S
C75 O63 1.277 . S
C76 O61 1.237 . S
C76 O62 1.278 . S
H77 C45 0.931 . S
H78 C81 0.960 1_455 S
H79 C81 0.961 . S
H80 C81 0.960 1_455 S
C81 C47 1.361 1_655 S
C81 H78 0.960 1_655 S
C81 H79 0.961 . S
C81 H80 0.960 1_655 S
C82 O58 1.253 . S
C82 O67 1.263 . S
C83 O65 1.278 . S
C83 O68 1.237 . S
H84 C48 0.930 . S
H85 C52 0.930 . S
Co86 N87 2.034 . S
Co86 O101 2.262 . S
Co86 O105 1.958 . S
Co86 O109 1.950 . S
Co86 O110 2.057 . S
N87 Co86 2.034 . S
N87 C88 1.366 . S
N87 C90 1.332 . S
C88 N87 1.366 . S
C88 C91 1.377 . S
C88 H120 0.931 . S
N89 C90 1.346 . S
N89 C91 1.337 . S
C90 N87 1.332 . S
C90 N89 1.346 . S
C90 C124 1.361 . S
C91 C88 1.377 . S
C91 N89 1.337 . S
C91 H127 0.930 . S
Co92 N93 2.034 . S
Co92 O106 1.950 . S
Co92 O107 2.262 . S
Co92 O108 1.958 . S
Co92 O112 2.057 . S
N93 Co92 2.034 . S
N93 C96 1.366 . S
N93 C97 1.332 . S
N94 C95 1.337 . S
N94 C97 1.346 . S
C95 N94 1.337 . S
C95 C96 1.377 . S
C95 H128 0.930 . S
C96 N93 1.366 . S
C96 C95 1.377 . S
C96 H100 0.931 . S
C97 N93 1.332 . S
C97 N94 1.346 . S
C97 C114 1.361 . S
Co98 O101 2.097 . S
Co98 O102 2.065 . S
Co98 O103 2.065 . S
Co98 O104 2.042 . S
Co98 O107 2.097 . S
Co98 O111 2.042 . S
C99 O107 1.253 . S
C99 O112 1.263 . S
H100 C96 0.931 . S
O101 Co86 2.262 . S
O101 Co98 2.097 . S
O101 C125 1.253 . S
O102 Co98 2.065 . S
O102 C118 1.221 . S
O103 Co98 2.065 . S
O103 C113 1.221 . S
O104 Co98 2.042 . S
O104 C119 1.237 . S
O105 Co86 1.958 . S
O105 C119 1.278 . S
O106 Co92 1.950 . S
O106 C118 1.277 . S
O107 Co92 2.262 . S
O107 Co98 2.097 . S
O107 C99 1.253 . S
O108 Co92 1.958 . S
O108 C126 1.278 . S
O109 Co86 1.950 . S
O109 C113 1.277 . S
O110 Co86 2.057 . S
O110 C125 1.263 . S
O111 Co98 2.042 . S
O111 C126 1.237 . S
O112 Co92 2.057 . S
O112 C99 1.263 . S
C113 O103 1.221 . S
C113 O109 1.277 . S
C114 C97 1.361 . S
C114 H115 0.960 . S
C114 H116 0.961 . S
C114 H117 0.961 . S
H115 C114 0.960 . S
H116 C114 0.961 . S
H117 C114 0.961 . S
C118 O102 1.221 . S
C118 O106 1.277 . S
C119 O104 1.237 . S
C119 O105 1.278 . S
H120 C88 0.931 . S
H121 C124 0.961 . S
H122 C124 0.961 1_545 S
H123 C124 0.960 . S
C124 C90 1.361 . S
C124 H121 0.961 . S
C124 H122 0.961 1_565 S
C124 H123 0.960 . S
C125 O101 1.253 . S
C125 O110 1.263 . S
C126 O108 1.278 . S
C126 O111 1.237 . S
H127 C91 0.930 . S
H128 C95 0.930 . S
Co129 N130 2.034 . S
Co129 O144 2.262 . S
Co129 O148 1.958 . S
Co129 O152 1.950 . S
Co129 O153 2.057 . S
N130 Co129 2.034 . S
N130 C131 1.366 . S
N130 C133 1.332 . S
C131 N130 1.366 . S
C131 C134 1.377 . S
C131 H163 0.931 . S
N132 C133 1.346 . S
N132 C134 1.337 . S
C133 N130 1.332 . S
C133 N132 1.346 . S
C133 C167 1.361 . S
C134 C131 1.377 . S
C134 N132 1.337 . S
C134 H170 0.930 . S
Co135 N136 2.034 . S
Co135 O149 1.950 . S
Co135 O150 2.262 . S
Co135 O151 1.958 . S
Co135 O155 2.057 . S
N136 Co135 2.034 . S
N136 C139 1.366 . S
N136 C140 1.332 . S
N137 C138 1.337 . S
N137 C140 1.346 . S
C138 N137 1.337 . S
C138 C139 1.377 . S
C138 H171 0.930 . S
C139 N136 1.366 . S
C139 C138 1.377 . S
C139 H143 0.931 . S
C140 N136 1.332 . S
C140 N137 1.346 . S
C140 C157 1.361 . S
Co141 O144 2.097 . S
Co141 O145 2.065 . S
Co141 O146 2.065 . S
Co141 O147 2.042 . S
Co141 O150 2.097 . S
Co141 O154 2.042 . S
C142 O150 1.253 . S
C142 O155 1.263 . S
H143 C139 0.931 . S
O144 Co129 2.262 . S
O144 Co141 2.097 . S
O144 C168 1.253 . S
O145 Co141 2.065 . S
O145 C161 1.221 . S
O146 Co141 2.065 . S
O146 C156 1.221 . S
O147 Co141 2.042 . S
O147 C162 1.237 . S
O148 Co129 1.958 . S
O148 C162 1.278 . S
O149 Co135 1.950 . S
O149 C161 1.277 . S
O150 Co135 2.262 . S
O150 Co141 2.097 . S
O150 C142 1.253 . S
O151 Co135 1.958 . S
O151 C169 1.278 . S
O152 Co129 1.950 . S
O152 C156 1.277 . S
O153 Co129 2.057 . S
O153 C168 1.263 . S
O154 Co141 2.042 . S
O154 C169 1.237 . S
O155 Co135 2.057 . S
O155 C142 1.263 . S
C156 O146 1.221 . S
C156 O152 1.277 . S
C157 C140 1.361 . S
C157 H158 0.960 . S
C157 H159 0.961 . S
C157 H160 0.961 . S
H158 C157 0.960 . S
H159 C157 0.961 . S
H160 C157 0.961 . S
C161 O145 1.221 . S
C161 O149 1.277 . S
C162 O147 1.237 . S
C162 O148 1.278 . S
H163 C131 0.931 . S
H164 C167 0.961 . S
H165 C167 0.961 . S
H166 C167 0.960 . S
C167 C133 1.361 . S
C167 H164 0.961 . S
C167 H165 0.961 . S
C167 H166 0.960 . S
C168 O144 1.253 . S
C168 O153 1.263 . S
C169 O151 1.278 . S
C169 O154 1.237 . S
H170 C134 0.930 . S
H171 C138 0.930 . S
H172 C184 0.930 . S
H173 C186 0.930 . S
H174 C187 0.930 . S
H175 C191 0.959 . S
H176 C191 0.959 . S
H177 C191 0.961 . S
H178 C192 0.960 . S
H179 C192 0.961 . S
H180 C192 0.959 . S
H181 C195 0.929 1_655 S
H182 C196 0.931 . S
H183 C198 0.930 . S
C184 H172 0.930 . S
C184 C185 1.399 . S
C184 C189 1.399 . S
C185 C184 1.399 . S
C185 C186 1.376 1_455 S
C186 H173 0.930 . S
C186 C185 1.376 1_655 S
C186 C187 1.388 . S
C187 H174 0.930 . S
C187 C186 1.388 . S
C187 C188 1.390 1_655 S
C188 C187 1.390 1_455 S
C188 C189 1.394 . S
C188 C194 1.465 . S
C189 C184 1.399 . S
C189 C188 1.394 . S
C189 C190 1.516 . S
C190 C189 1.516 . S
C190 C191 1.502 . S
C190 C192 1.561 . S
C190 C193 1.526 . S
C191 H175 0.959 . S
C191 H176 0.959 . S
C191 H177 0.961 . S
C191 C190 1.502 . S
C192 H178 0.960 . S
C192 H179 0.961 . S
C192 H180 0.959 . S
C192 C190 1.561 . S
C193 C190 1.526 . S
C193 C194 1.396 . S
C193 C198 1.390 . S
C194 C188 1.465 . S
C194 C193 1.396 . S
C194 C195 1.399 . S
C195 H181 0.929 1_455 S
C195 C194 1.399 . S
C195 C196 1.385 . S
C196 H182 0.931 . S
C196 C195 1.385 . S
C196 C197 1.389 . S
C197 C196 1.389 . S
C197 C198 1.387 . S
C198 H183 0.930 . S
C198 C193 1.390 . S
C198 C197 1.387 . S
H199 C211 0.930 . S
H200 C213 0.930 . S
H201 C214 0.930 . S
H202 C218 0.959 . S
H203 C218 0.959 . S
H204 C218 0.961 . S
H205 C219 0.960 . S
H206 C219 0.961 . S
H207 C219 0.959 . S
H208 C222 0.929 . S
H209 C223 0.931 . S
H210 C225 0.930 . S
C211 H199 0.930 . S
C211 C212 1.399 . S
C211 C216 1.399 . S
C212 C211 1.399 . S
C212 C213 1.376 . S
C213 H200 0.930 . S
C213 C212 1.376 . S
C213 C214 1.388 . S
C214 H201 0.930 . S
C214 C213 1.388 . S
C214 C215 1.390 . S
C215 C214 1.390 . S
C215 C216 1.394 . S
C215 C221 1.465 . S
C216 C211 1.399 . S
C216 C215 1.394 . S
C216 C217 1.516 . S
C217 C216 1.516 . S
C217 C218 1.502 . S
C217 C219 1.561 . S
C217 C220 1.526 . S
C218 H202 0.959 . S
C218 H203 0.959 . S
C218 H204 0.961 . S
C218 C217 1.502 . S
C219 H205 0.960 . S
C219 H206 0.961 . S
C219 H207 0.959 . S
C219 C217 1.561 . S
C220 C217 1.526 . S
C220 C221 1.396 . S
C220 C225 1.390 . S
C221 C215 1.465 . S
C221 C220 1.396 . S
C221 C222 1.399 . S
C222 H208 0.929 . S
C222 C221 1.399 . S
C222 C223 1.385 . S
C223 H209 0.931 . S
C223 C222 1.385 . S
C223 C224 1.389 . S
C224 C223 1.389 . S
C224 C225 1.387 . S
C225 H210 0.930 . S
C225 C220 1.390 . S
C225 C224 1.387 . S
H226 C238 0.930 . S
H227 C240 0.930 . S
H228 C241 0.930 . S
H229 C245 0.959 . S
H230 C245 0.959 1_554 S
H231 C245 0.961 . S
H232 C246 0.960 . S
H233 C246 0.961 1_554 S
H234 C246 0.959 . S
H235 C249 0.929 . S
H236 C250 0.931 . S
H237 C252 0.930 . S
C238 H226 0.930 . S
C238 C239 1.399 . S
C238 C243 1.399 . S
C239 C238 1.399 . S
C239 C240 1.376 . S
C240 H227 0.930 . S
C240 C239 1.376 . S
C240 C241 1.388 . S
C241 H228 0.930 . S
C241 C240 1.388 . S
C241 C242 1.390 . S
C242 C241 1.390 . S
C242 C243 1.394 . S
C242 C248 1.465 . S
C243 C238 1.399 . S
C243 C242 1.394 . S
C243 C244 1.516 . S
C244 C243 1.516 . S
C244 C245 1.502 . S
C244 C246 1.561 . S
C244 C247 1.526 . S
C245 H229 0.959 . S
C245 H230 0.959 1_556 S
C245 H231 0.961 . S
C245 C244 1.502 . S
C246 H232 0.960 . S
C246 H233 0.961 1_556 S
C246 H234 0.959 . S
C246 C244 1.561 . S
C247 C244 1.526 . S
C247 C248 1.396 . S
C247 C252 1.390 1_556 S
C248 C242 1.465 . S
C248 C247 1.396 . S
C248 C249 1.399 . S
C249 H235 0.929 . S
C249 C248 1.399 . S
C249 C250 1.385 1_556 S
C250 H236 0.931 . S
C250 C249 1.385 1_554 S
C250 C251 1.389 . S
C251 C250 1.389 . S
C251 C252 1.387 . S
C252 H237 0.930 . S
C252 C247 1.390 1_554 S
C252 C251 1.387 . S
H253 C265 0.930 . S
H254 C267 0.930 . S
H255 C268 0.930 . S
H256 C272 0.959 . S
H257 C272 0.959 . S
H258 C272 0.961 . S
H259 C273 0.960 . S
H260 C273 0.961 . S
H261 C273 0.959 . S
H262 C276 0.929 . S
H263 C277 0.931 . S
H264 C279 0.930 . S
C265 H253 0.930 . S
C265 C266 1.399 . S
C265 C270 1.399 . S
C266 C265 1.399 . S
C266 C267 1.376 . S
C267 H254 0.930 . S
C267 C266 1.376 . S
C267 C268 1.388 . S
C268 H255 0.930 . S
C268 C267 1.388 . S
C268 C269 1.390 . S
C269 C268 1.390 . S
C269 C270 1.394 . S
C269 C275 1.465 . S
C270 C265 1.399 . S
C270 C269 1.394 . S
C270 C271 1.516 . S
C271 C270 1.516 . S
C271 C272 1.502 . S
C271 C273 1.561 . S
C271 C274 1.526 . S
C272 H256 0.959 . S
C272 H257 0.959 . S
C272 H258 0.961 . S
C272 C271 1.502 . S
C273 H259 0.960 . S
C273 H260 0.961 . S
C273 H261 0.959 . S
C273 C271 1.561 . S
C274 C271 1.526 . S
C274 C275 1.396 . S
C274 C279 1.390 . S
C275 C269 1.465 . S
C275 C274 1.396 . S
C275 C276 1.399 . S
C276 H262 0.929 . S
C276 C275 1.399 . S
C276 C277 1.385 . S
C277 H263 0.931 . S
C277 C276 1.385 . S
C277 C278 1.389 . S
C278 C277 1.389 . S
C278 C279 1.387 . S
C279 H264 0.930 . S
C279 C274 1.390 . S
C279 C278 1.387 . S
H280 C292 0.930 . S
H281 C294 0.930 . S
H282 C295 0.930 . S
H283 C299 0.959 . S
H284 C299 0.959 . S
H285 C299 0.961 . S
H286 C300 0.960 . S
H287 C300 0.961 . S
H288 C300 0.959 . S
H289 C303 0.929 . S
H290 C304 0.931 . S
H291 C306 0.930 . S
C292 H280 0.930 . S
C292 C293 1.399 . S
C292 C297 1.399 . S
C293 C292 1.399 . S
C293 C294 1.376 . S
C294 H281 0.930 . S
C294 C293 1.376 . S
C294 C295 1.388 . S
C295 H282 0.930 . S
C295 C294 1.388 . S
C295 C296 1.390 . S
C296 C295 1.390 . S
C296 C297 1.394 . S
C296 C302 1.465 . S
C297 C292 1.399 . S
C297 C296 1.394 . S
C297 C298 1.516 . S
C298 C297 1.516 . S
C298 C299 1.502 . S
C298 C300 1.561 . S
C298 C301 1.526 . S
C299 H283 0.959 . S
C299 H284 0.959 . S
C299 H285 0.961 . S
C299 C298 1.502 . S
C300 H286 0.960 . S
C300 H287 0.961 . S
C300 H288 0.959 . S
C300 C298 1.561 . S
C301 C298 1.526 . S
C301 C302 1.396 . S
C301 C306 1.390 . S
C302 C296 1.465 . S
C302 C301 1.396 . S
C302 C303 1.399 . S
C303 H289 0.929 . S
C303 C302 1.399 . S
C303 C304 1.385 . S
C304 H290 0.931 . S
C304 C303 1.385 . S
C304 C305 1.389 . S
C305 C304 1.389 . S
C305 C306 1.387 . S
C306 H291 0.930 . S
C306 C301 1.390 . S
C306 C305 1.387 . S
H307 C319 0.930 . S
H308 C321 0.930 . S
H309 C322 0.930 . S
H310 C326 0.959 . S
H311 C326 0.959 . S
H312 C326 0.961 . S
H313 C327 0.960 . S
H314 C327 0.961 . S
H315 C327 0.959 . S
H316 C330 0.929 . S
H317 C331 0.931 . S
H318 C333 0.930 . S
C319 H307 0.930 . S
C319 C320 1.399 . S
C319 C324 1.399 . S
C320 C319 1.399 . S
C320 C321 1.376 . S
C321 H308 0.930 . S
C321 C320 1.376 . S
C321 C322 1.388 . S
C322 H309 0.930 . S
C322 C321 1.388 . S
C322 C323 1.390 . S
C323 C322 1.390 . S
C323 C324 1.394 . S
C323 C329 1.465 . S
C324 C319 1.399 . S
C324 C323 1.394 . S
C324 C325 1.516 . S
C325 C324 1.516 . S
C325 C326 1.502 . S
C325 C327 1.561 . S
C325 C328 1.526 . S
C326 H310 0.959 . S
C326 H311 0.959 . S
C326 H312 0.961 . S
C326 C325 1.502 . S
C327 H313 0.960 . S
C327 H314 0.961 . S
C327 H315 0.959 . S
C327 C325 1.561 . S
C328 C325 1.526 . S
C328 C329 1.396 . S
C328 C333 1.390 . S
C329 C323 1.465 . S
C329 C328 1.396 . S
C329 C330 1.399 . S
C330 H316 0.929 . S
C330 C329 1.399 . S
C330 C331 1.385 . S
C331 H317 0.931 . S
C331 C330 1.385 . S
C331 C332 1.389 . S
C332 C331 1.389 . S
C332 C333 1.387 . S
C333 H318 0.930 . S
C333 C328 1.390 . S
C333 C332 1.387 . S
H334 C346 0.930 1_565 S
H335 C348 0.930 . S
H336 C349 0.930 . S
H337 C353 0.959 . S
H338 C353 0.959 . S
H339 C353 0.961 1_565 S
H340 C354 0.960 1_565 S
H341 C354 0.961 . S
H342 C354 0.959 . S
H343 C357 0.929 . S
H344 C358 0.931 . S
H345 C360 0.930 . S
C346 H334 0.930 1_545 S
C346 C347 1.399 . S
C346 C351 1.399 1_556 S
C347 C346 1.399 . S
C347 C348 1.376 . S
C348 H335 0.930 . S
C348 C347 1.376 . S
C348 C349 1.388 . S
C349 H336 0.930 . S
C349 C348 1.388 . S
C349 C350 1.390 1_556 S
C350 C349 1.390 1_554 S
C350 C351 1.394 . S
C350 C356 1.465 . S
C351 C346 1.399 1_554 S
C351 C350 1.394 . S
C351 C352 1.516 . S
C352 C351 1.516 . S
C352 C353 1.502 . S
C352 C354 1.561 . S
C352 C355 1.526 . S
C353 H337 0.959 . S
C353 H338 0.959 . S
C353 H339 0.961 1_545 S
C353 C352 1.502 . S
C354 H340 0.960 1_545 S
C354 H341 0.961 . S
C354 H342 0.959 . S
C354 C352 1.561 . S
C355 C352 1.526 . S
C355 C356 1.396 . S
C355 C360 1.390 . S
C356 C350 1.465 . S
C356 C355 1.396 . S
C356 C357 1.399 . S
C357 H343 0.929 . S
C357 C356 1.399 . S
C357 C358 1.385 . S
C358 H344 0.931 . S
C358 C357 1.385 . S
C358 C359 1.389 . S
C359 C358 1.389 . S
C359 C360 1.387 . S
C360 H345 0.930 . S
C360 C355 1.390 . S
C360 C359 1.387 . S
H361 C373 0.930 . S
H362 C375 0.930 . S
H363 C376 0.930 . S
H364 C380 0.959 . S
H365 C380 0.959 . S
H366 C380 0.961 . S
H367 C381 0.960 . S
H368 C381 0.961 . S
H369 C381 0.959 . S
H370 C384 0.929 . S
H371 C385 0.931 . S
H372 C387 0.930 . S
C373 H361 0.930 . S
C373 C374 1.399 . S
C373 C378 1.399 . S
C374 C373 1.399 . S
C374 C375 1.367 1_545 S
C375 H362 0.930 . S
C375 C374 1.367 1_565 S
C375 C376 1.399 . S
C376 H363 0.930 . S
C376 C375 1.399 . S
C376 C377 1.390 . S
C377 C376 1.390 . S
C377 C378 1.394 1_565 S
C377 C383 1.465 . S
C378 C373 1.399 . S
C378 C377 1.394 1_545 S
C378 C379 1.516 . S
C379 C378 1.516 . S
C379 C380 1.502 . S
C379 C381 1.561 . S
C379 C382 1.526 1_545 S
C380 H364 0.959 . S
C380 H365 0.959 . S
C380 H366 0.961 . S
C380 C379 1.502 . S
C381 H367 0.960 . S
C381 H368 0.961 . S
C381 H369 0.959 . S
C381 C379 1.561 . S
C382 C379 1.526 1_565 S
C382 C383 1.396 . S
C382 C387 1.390 . S
C383 C377 1.465 . S
C383 C382 1.396 . S
C383 C384 1.399 . S
C384 H370 0.929 . S
C384 C383 1.399 . S
C384 C385 1.385 . S
C385 H371 0.931 . S
C385 C384 1.385 . S
C385 C386 1.389 . S
C386 C385 1.389 . S
C386 C387 1.387 . S
C387 H372 0.930 . S
C387 C382 1.390 . S
C387 C386 1.387 . S
H388 C400 0.930 . S
H389 C402 0.930 1_655 S
H390 C403 0.930 1_655 S
H391 C407 0.959 . S
H392 C407 0.959 . S
H393 C407 0.961 . S
H394 C408 0.960 . S
H395 C408 0.961 . S
H396 C408 0.959 1_655 S
H397 C411 0.929 1_655 S
H398 C412 0.931 . S
H399 C414 0.930 . S
C400 H388 0.930 . S
C400 C401 1.399 . S
C400 C405 1.399 1_545 S
C401 C400 1.399 . S
C401 C402 1.376 . S
C402 H389 0.930 1_455 S
C402 C401 1.376 . S
C402 C403 1.388 1_545 S
C403 H390 0.930 1_455 S
C403 C402 1.388 1_565 S
C403 C404 1.390 . S
C404 C403 1.390 . S
C404 C405 1.394 . S
C404 C410 1.465 . S
C405 C400 1.399 1_565 S
C405 C404 1.394 . S
C405 C406 1.516 . S
C406 C405 1.516 . S
C406 C407 1.502 . S
C406 C408 1.561 . S
C406 C409 1.526 . S
C407 H391 0.959 . S
C407 H392 0.959 . S
C407 H393 0.961 . S
C407 C406 1.502 . S
C408 H394 0.960 . S
C408 H395 0.961 . S
C408 H396 0.959 1_455 S
C408 C406 1.561 . S
C409 C406 1.526 . S
C409 C410 1.396 . S
C409 C414 1.390 . S
C410 C404 1.465 . S
C410 C409 1.396 . S
C410 C411 1.399 . S
C411 H397 0.929 1_455 S
C411 C410 1.399 . S
C411 C412 1.385 . S
C412 H398 0.931 . S
C412 C411 1.385 . S
C412 C413 1.389 . S
C413 C412 1.389 . S
C413 C414 1.387 . S
C414 H399 0.930 . S
C414 C409 1.390 . S
C414 C413 1.387 . S
H415 C427 0.930 . S
H416 C429 0.930 . S
H417 C430 0.930 . S
H418 C434 0.959 . S
H419 C434 0.959 . S
H420 C434 0.961 . S
H421 C435 0.960 . S
H422 C435 0.961 . S
H423 C435 0.959 . S
H424 C438 0.929 . S
H425 C439 0.931 . S
H426 C441 0.930 . S
C427 H415 0.930 . S
C427 C428 1.399 . S
C427 C432 1.399 . S
C428 C427 1.399 . S
C428 C429 1.376 . S
C429 H416 0.930 . S
C429 C428 1.376 . S
C429 C430 1.388 . S
C430 H417 0.930 . S
C430 C429 1.388 . S
C430 C431 1.390 . S
C431 C430 1.390 . S
C431 C432 1.394 . S
C431 C437 1.465 . S
C432 C427 1.399 . S
C432 C431 1.394 . S
C432 C433 1.516 . S
C433 C432 1.516 . S
C433 C434 1.502 . S
C433 C435 1.561 . S
C433 C436 1.526 . S
C434 H418 0.959 . S
C434 H419 0.959 . S
C434 H420 0.961 . S
C434 C433 1.502 . S
C435 H421 0.960 . S
C435 H422 0.961 . S
C435 H423 0.959 . S
C435 C433 1.561 . S
C436 C433 1.526 . S
C436 C437 1.396 . S
C436 C441 1.390 . S
C437 C431 1.465 . S
C437 C436 1.396 . S
C437 C438 1.399 . S
C438 H424 0.929 . S
C438 C437 1.399 . S
C438 C439 1.385 . S
C439 H425 0.931 . S
C439 C438 1.385 . S
C439 C440 1.389 . S
C440 C439 1.389 . S
C440 C441 1.387 . S
C441 H426 0.930 . S
C441 C436 1.390 . S
C441 C440 1.387 . S
H442 C454 0.930 . S
H443 C456 0.930 . S
H444 C457 0.930 . S
H445 C461 0.959 . S
H446 C461 0.959 . S
H447 C461 0.961 . S
H448 C462 0.960 . S
H449 C462 0.961 . S
H450 C462 0.959 . S
H451 C465 0.929 . S
H452 C466 0.931 . S
H453 C468 0.929 . S
C454 H442 0.930 . S
C454 C455 1.399 . S
C454 C459 1.399 . S
C455 C454 1.399 . S
C455 C456 1.376 . S
C456 H443 0.930 . S
C456 C455 1.376 . S
C456 C457 1.388 . S
C457 H444 0.930 . S
C457 C456 1.388 . S
C457 C458 1.390 . S
C458 C457 1.390 . S
C458 C459 1.394 . S
C458 C464 1.465 . S
C459 C454 1.399 . S
C459 C458 1.394 . S
C459 C460 1.516 . S
C460 C459 1.516 . S
C460 C461 1.502 . S
C460 C462 1.561 . S
C460 C463 1.526 . S
C461 H445 0.959 . S
C461 H446 0.959 . S
C461 H447 0.961 . S
C461 C460 1.502 . S
C462 H448 0.960 . S
C462 H449 0.961 . S
C462 H450 0.959 . S
C462 C460 1.561 . S
C463 C460 1.526 . S
C463 C464 1.396 . S
C463 C468 1.391 1_545 S
C464 C458 1.465 . S
C464 C463 1.396 . S
C464 C465 1.399 . S
C465 H451 0.929 . S
C465 C464 1.399 . S
C465 C466 1.385 . S
C466 H452 0.931 . S
C466 C465 1.385 . S
C466 C467 1.389 1_545 S
C467 C466 1.389 1_565 S
C467 C468 1.386 . S
C468 H453 0.929 . S
C468 C463 1.391 1_565 S
C468 C467 1.386 . S
H469 C481 0.930 . S
H470 C483 0.930 . S
H471 C484 0.930 . S
H472 C488 0.959 . S
H473 C488 0.959 . S
H474 C488 0.961 . S
H475 C489 0.960 . S
H476 C489 0.961 . S
H477 C489 0.959 . S
H478 C492 0.929 . S
H479 C493 0.931 . S
H480 C495 0.930 . S
C481 H469 0.930 . S
C481 C482 1.399 . S
C481 C486 1.399 1_455 S
C482 C481 1.399 . S
C482 C483 1.376 . S
C483 H470 0.930 . S
C483 C482 1.376 . S
C483 C484 1.388 1_455 S
C484 H471 0.930 . S
C484 C483 1.388 1_655 S
C484 C485 1.390 . S
C485 C484 1.390 . S
C485 C486 1.394 . S
C485 C491 1.465 . S
C486 C481 1.399 1_655 S
C486 C485 1.394 . S
C486 C487 1.516 . S
C487 C486 1.516 . S
C487 C488 1.502 . S
C487 C489 1.561 . S
C487 C490 1.526 . S
C488 H472 0.959 . S
C488 H473 0.959 . S
C488 H474 0.961 . S
C488 C487 1.502 . S
C489 H475 0.960 . S
C489 H476 0.961 . S
C489 H477 0.959 . S
C489 C487 1.561 . S
C490 C487 1.526 . S
C490 C491 1.396 . S
C490 C495 1.390 . S
C491 C485 1.465 . S
C491 C490 1.396 . S
C491 C492 1.399 . S
C492 H478 0.929 . S
C492 C491 1.399 . S
C492 C493 1.385 . S
C493 H479 0.931 . S
C493 C492 1.385 . S
C493 C494 1.389 . S
C494 C493 1.389 . S
C494 C495 1.387 . S
C495 H480 0.930 . S
C495 C490 1.390 . S
C495 C494 1.387 . S
H496 C508 0.930 . S
H497 C510 0.930 . S
H498 C511 0.930 . S
H499 C515 0.959 . S
H500 C515 0.959 . S
H501 C515 0.961 . S
H502 C516 0.960 . S
H503 C516 0.961 . S
H504 C516 0.959 . S
H505 C519 0.929 . S
H506 C520 0.931 . S
H507 C522 0.930 . S
C508 H496 0.930 . S
C508 C509 1.399 . S
C508 C513 1.399 . S
C509 C508 1.399 . S
C509 C510 1.376 . S
C510 H497 0.930 . S
C510 C509 1.376 . S
C510 C511 1.388 . S
C511 H498 0.930 . S
C511 C510 1.388 . S
C511 C512 1.390 . S
C512 C511 1.390 . S
C512 C513 1.394 . S
C512 C518 1.465 1_565 S
C513 C508 1.399 . S
C513 C512 1.394 . S
C513 C514 1.516 1_565 S
C514 C513 1.516 1_545 S
C514 C515 1.502 . S
C514 C516 1.561 . S
C514 C517 1.526 . S
C515 H499 0.959 . S
C515 H500 0.959 . S
C515 H501 0.961 . S
C515 C514 1.502 . S
C516 H502 0.960 . S
C516 H503 0.961 . S
C516 H504 0.959 . S
C516 C514 1.561 . S
C517 C514 1.526 . S
C517 C518 1.396 . S
C517 C522 1.390 . S
C518 C512 1.465 1_545 S
C518 C517 1.396 . S
C518 C519 1.399 . S
C519 H505 0.929 . S
C519 C518 1.399 . S
C519 C520 1.385 . S
C520 H506 0.931 . S
C520 C519 1.385 . S
C520 C521 1.389 . S
C521 C520 1.389 . S
C521 C522 1.387 . S
C522 H507 0.930 . S
C522 C517 1.390 . S
C522 C521 1.387 . S
H523 C535 0.930 . S
H524 C537 0.930 . S
H525 C538 0.930 . S
H526 C542 0.959 . S
H527 C542 0.959 . S
H528 C542 0.961 . S
H529 C543 0.960 . S
H530 C543 0.961 . S
H531 C543 0.959 . S
H532 C546 0.929 . S
H533 C547 0.931 . S
H534 C549 0.930 . S
C535 H523 0.930 . S
C535 C536 1.399 . S
C535 C540 1.399 . S
C536 C535 1.399 . S
C536 C537 1.376 . S
C537 H524 0.930 . S
C537 C536 1.376 . S
C537 C538 1.388 . S
C538 H525 0.930 . S
C538 C537 1.388 . S
C538 C539 1.390 . S
C539 C538 1.390 . S
C539 C540 1.394 . S
C539 C545 1.465 . S
C540 C535 1.399 . S
C540 C539 1.394 . S
C540 C541 1.516 . S
C541 C540 1.516 . S
C541 C542 1.502 . S
C541 C543 1.561 . S
C541 C544 1.526 . S
C542 H526 0.959 . S
C542 H527 0.959 . S
C542 H528 0.961 . S
C542 C541 1.502 . S
C543 H529 0.960 . S
C543 H530 0.961 . S
C543 H531 0.959 . S
C543 C541 1.561 . S
C544 C541 1.526 . S
C544 C545 1.396 . S
C544 C549 1.390 1_655 S
C545 C539 1.465 . S
C545 C544 1.396 . S
C545 C546 1.399 . S
C546 H532 0.929 . S
C546 C545 1.399 . S
C546 C547 1.385 1_655 S
C547 H533 0.931 . S
C547 C546 1.385 1_455 S
C547 C548 1.389 . S
C548 C547 1.389 . S
C548 C549 1.387 . S
C549 H534 0.930 . S
C549 C544 1.390 1_455 S
C549 C548 1.387 . S
H550 C562 0.930 . S
H551 C564 0.930 . S
H552 C565 0.930 . S
H553 C569 0.959 . S
H554 C569 0.959 . S
H555 C569 0.961 . S
H556 C570 0.960 . S
H557 C570 0.961 . S
H558 C570 0.959 . S
H559 C573 0.929 . S
H560 C574 0.931 . S
H561 C576 0.930 . S
C562 H550 0.930 . S
C562 C563 1.399 . S
C562 C567 1.399 . S
C563 C562 1.399 . S
C563 C564 1.376 . S
C564 H551 0.930 . S
C564 C563 1.376 . S
C564 C565 1.388 . S
C565 H552 0.930 . S
C565 C564 1.388 . S
C565 C566 1.390 . S
C566 C565 1.390 . S
C566 C567 1.394 . S
C566 C572 1.465 . S
C567 C562 1.399 . S
C567 C566 1.394 . S
C567 C568 1.516 . S
C568 C567 1.516 . S
C568 C569 1.502 . S
C568 C570 1.561 . S
C568 C571 1.526 . S
C569 H553 0.959 . S
C569 H554 0.959 . S
C569 H555 0.961 . S
C569 C568 1.502 . S
C570 H556 0.960 . S
C570 H557 0.961 . S
C570 H558 0.959 . S
C570 C568 1.561 . S
C571 C568 1.526 . S
C571 C572 1.396 . S
C571 C576 1.390 1_565 S
C572 C566 1.465 . S
C572 C571 1.396 . S
C572 C573 1.399 . S
C573 H559 0.929 . S
C573 C572 1.399 . S
C573 C574 1.385 1_565 S
C574 H560 0.931 . S
C574 C573 1.385 1_545 S
C574 C575 1.389 . S
C575 C574 1.389 . S
C575 C576 1.387 . S
C576 H561 0.930 . S
C576 C571 1.390 1_545 S
C576 C575 1.387 . S
H577 C589 0.930 . S
H578 C591 0.930 . S
H579 C592 0.930 . S
H580 C596 0.959 . S
H581 C596 0.959 . S
H582 C596 0.961 . S
H583 C597 0.960 . S
H584 C597 0.961 . S
H585 C597 0.959 . S
H586 C600 0.929 . S
H587 C601 0.931 . S
H588 C603 0.930 . S
C589 H577 0.930 . S
C589 C590 1.399 . S
C589 C594 1.399 . S
C590 C589 1.399 . S
C590 C591 1.376 . S
C591 H578 0.930 . S
C591 C590 1.376 . S
C591 C592 1.388 . S
C592 H579 0.930 . S
C592 C591 1.388 . S
C592 C593 1.390 . S
C593 C592 1.390 . S
C593 C594 1.394 . S
C593 C599 1.465 . S
C594 C589 1.399 . S
C594 C593 1.394 . S
C594 C595 1.516 . S
C595 C594 1.516 . S
C595 C596 1.502 . S
C595 C597 1.561 . S
C595 C598 1.526 . S
C596 H580 0.959 . S
C596 H581 0.959 . S
C596 H582 0.961 . S
C596 C595 1.502 . S
C597 H583 0.960 . S
C597 H584 0.961 . S
C597 H585 0.959 . S
C597 C595 1.561 . S
C598 C595 1.526 . S
C598 C599 1.396 . S
C598 C603 1.390 . S
C599 C593 1.465 . S
C599 C598 1.396 . S
C599 C600 1.399 . S
C600 H586 0.929 . S
C600 C599 1.399 . S
C600 C601 1.385 . S
C601 H587 0.931 . S
C601 C600 1.385 . S
C601 C602 1.389 . S
C602 C601 1.389 . S
C602 C603 1.387 . S
C603 H588 0.930 . S
C603 C598 1.390 . S
C603 C602 1.387 . S
C185 C39 1.877 . S
C197 C56 1.903 . S
C212 N94 1.463 . S
C224 N46 1.401 . S
C239 C125 1.328 . S
C251 N137 1.573 . S
C266 N8 1.769 . S
C278 C168 1.499 . S
C293 N132 1.568 . S
C305 C13 1.384 . S
C320 C82 1.905 . S
C332 C99 1.868 . S
C347 N89 1.768 1_545 S
C359 C142 1.506 . S
C374 N3 1.413 . S
C386 N51 1.456 . S
C401 C27 1.430 . S
C413 C40 1.335 . S
C428 C83 1.350 . S
C440 C70 1.430 1_655 S
C455 C126 1.539 . S
C467 C113 1.549 . S
C482 C156 1.440 . S
C494 C169 1.460 . S
C509 C75 1.344 . S
C521 C76 1.435 . S
C536 C118 1.389 . S
C548 C119 1.380 . S
C563 C161 1.407 . S
C575 C162 1.487 . S
C590 C32 1.569 . S
C602 C33 1.525 . S
