# Generated by pormake.
# Topology vmo, (7)-cn, num edge types: 1
# Building blocks:
#     Node 0, Type 0, BuildingBlock: NUHQUE_clean_sbu_2, # of connection points: 7
#     Node 1, Type 0, BuildingBlock: NUHQUE_clean_sbu_2, # of connection points: 7
#     Node 2, Type 0, BuildingBlock: NUHQUE_clean_sbu_2, # of connection points: 7
#     Node 3, Type 0, BuildingBlock: NUHQUE_clean_sbu_2, # of connection points: 7
#     Node 4, Type 0, BuildingBlock: NUHQUE_clean_sbu_2, # of connection points: 7
#     Node 5, Type 0, BuildingBlock: NUHQUE_clean_sbu_2, # of connection points: 7
#     Node 6, Type 0, BuildingBlock: NUHQUE_clean_sbu_2, # of connection points: 7
#     Node 7, Type 0, BuildingBlock: NUHQUE_clean_sbu_2, # of connection points: 7
#     Edge 8, Type (0, 0), BuildingBlock: CIFDUS_clean_linker_0, # of connection points: 2
#     Edge 9, Type (0, 0), BuildingBlock: CIFDUS_clean_linker_0, # of connection points: 2
#     Edge 10, Type (0, 0), BuildingBlock: CIFDUS_clean_linker_0, # of connection points: 2
#     Edge 11, Type (0, 0), BuildingBlock: CIFDUS_clean_linker_0, # of connection points: 2
#     Edge 12, Type (0, 0), BuildingBlock: CIFDUS_clean_linker_0, # of connection points: 2
#     Edge 13, Type (0, 0), BuildingBlock: CIFDUS_clean_linker_0, # of connection points: 2
#     Edge 14, Type (0, 0), BuildingBlock: CIFDUS_clean_linker_0, # of connection points: 2
#     Edge 15, Type (0, 0), BuildingBlock: CIFDUS_clean_linker_0, # of connection points: 2
#     Edge 16, Type (0, 0), BuildingBlock: CIFDUS_clean_linker_0, # of connection points: 2
#     Edge 17, Type (0, 0), BuildingBlock: CIFDUS_clean_linker_0, # of connection points: 2
#     Edge 18, Type (0, 0), BuildingBlock: CIFDUS_clean_linker_0, # of connection points: 2
#     Edge 19, Type (0, 0), BuildingBlock: CIFDUS_clean_linker_0, # of connection points: 2
#     Edge 20, Type (0, 0), BuildingBlock: CIFDUS_clean_linker_0, # of connection points: 2
#     Edge 21, Type (0, 0), BuildingBlock: CIFDUS_clean_linker_0, # of connection points: 2
#     Edge 22, Type (0, 0), BuildingBlock: CIFDUS_clean_linker_0, # of connection points: 2
#     Edge 23, Type (0, 0), BuildingBlock: CIFDUS_clean_linker_0, # of connection points: 2
#     Edge 24, Type (0, 0), BuildingBlock: CIFDUS_clean_linker_0, # of connection points: 2
#     Edge 25, Type (0, 0), BuildingBlock: CIFDUS_clean_linker_0, # of connection points: 2
#     Edge 26, Type (0, 0), BuildingBlock: CIFDUS_clean_linker_0, # of connection points: 2
#     Edge 27, Type (0, 0), BuildingBlock: CIFDUS_clean_linker_0, # of connection points: 2
#     Edge 28, Type (0, 0), BuildingBlock: CIFDUS_clean_linker_0, # of connection points: 2
#     Edge 29, Type (0, 0), BuildingBlock: CIFDUS_clean_linker_0, # of connection points: 2
#     Edge 30, Type (0, 0), BuildingBlock: CIFDUS_clean_linker_0, # of connection points: 2
#     Edge 31, Type (0, 0), BuildingBlock: CIFDUS_clean_linker_0, # of connection points: 2
#     Edge 32, Type (0, 0), BuildingBlock: CIFDUS_clean_linker_0, # of connection points: 2
#     Edge 33, Type (0, 0), BuildingBlock: CIFDUS_clean_linker_0, # of connection points: 2
#     Edge 34, Type (0, 0), BuildingBlock: CIFDUS_clean_linker_0, # of connection points: 2
#     Edge 35, Type (0, 0), BuildingBlock: CIFDUS_clean_linker_0, # of connection points: 2
# Relax obj value: 0.242
# Max RMSD: 0.264
# Mean RMSD: 0.264
data_MOF--net-vmo--node1-NUHQUE_clean_sbu_2--edge1-CIFDUS_clean_linker_0
_symmetry_space_group_name_H-M    P1
_symmetry_Int_Tables_number       1
_symmetry_cell_setting            triclinic
loop_
_symmetry_equiv_pos_as_xyz
'x, y, z'
_cell_length_a     28.68689
_cell_length_b     53.953527
_cell_length_c     23.605939
_cell_angle_alpha  90.079592
_cell_angle_beta   112.46063
_cell_angle_gamma 89.756102
loop_
_atom_site_label
_atom_site_type_symbol
_atom_site_fract_x
_atom_site_fract_y
_atom_site_fract_z
_atom_type_partial_charge
O0 O 0.2714 0.44601 0.37772 0.0
Tb1 Tb 0.22962 0.44031 0.2801 0.0
Eu2 Eu 0.22836 0.38982 0.10984 0.0
C3 C 0.28826 0.46859 0.39466 0.0
O4 O 0.28675 0.48439 0.35166 0.0
C5 C 0.1791 0.39064 0.2107 0.0
O6 O 0.19213 0.39648 1.00643 0.0
C7 C 0.30812 0.36188 0.14949 0.0
C8 C 0.16049 0.38056 0.9684 0.0
O9 O 0.15079 0.35979 0.99069 0.0
C10 C 0.26043 0.44566 0.17136 0.0
C11 C 0.34585 0.34802 0.13333 0.0
C12 C 0.39727 0.35403 0.16262 0.0
C13 C 0.4345 0.33995 0.15208 0.0
C14 C 0.41975 0.31958 0.11215 0.0
C15 C 0.36871 0.31298 0.08371 0.0
C16 C 0.33191 0.32751 0.09383 0.0
O17 O 0.22211 0.40163 0.24513 0.0
O18 O 0.17396 0.38122 0.15652 0.0
O19 O 0.18385 0.47384 0.25786 0.0
O20 O 0.14963 0.44009 0.2642 0.0
C21 C 0.14202 0.46361 0.25413 0.0
O22 O 0.24045 0.42379 0.16762 0.0
O23 O 0.26354 0.45813 0.22052 0.0
O24 O 0.26176 0.35311 0.13105 0.0
O25 O 0.31023 0.38622 0.14849 0.0
H26 H 0.40839 0.36945 0.19447 0.0
H27 H 0.44841 0.30795 0.10607 0.0
H28 H 0.2925 0.32247 0.07187 0.0
O29 O 0.87762 0.46466 0.28922 0.0
Tb30 Tb 0.9016 0.43862 0.36613 0.0
Eu31 Eu 0.92396 0.38741 0.46532 0.0
C32 C 0.86888 0.4587 0.2318 0.0
O33 O 0.87222 0.43541 0.21747 0.0
C34 C 0.97351 0.39615 0.36389 0.0
O35 O 0.96766 0.37631 0.56528 0.0
C36 C 0.85321 0.35594 0.40824 0.0
C37 C 0.99414 0.39289 0.60622 0.0
O38 O 0.99429 0.41587 0.58826 0.0
C39 C 0.8562 0.4356 0.46252 0.0
C40 C 0.80999 0.34229 0.413 0.0
C41 C 0.7598 0.35054 0.38263 0.0
C42 C 0.71938 0.33634 0.38481 0.0
C43 C 0.72934 0.31366 0.41639 0.0
C44 C 0.77883 0.30476 0.44452 0.0
C45 C 0.81879 0.31932 0.44338 0.0
O46 O 0.93273 0.40854 0.32896 0.0
O47 O 0.98133 0.39015 0.42108 0.0
O48 O 0.9456 0.47029 0.41665 0.0
O49 O 0.9661 0.4338 0.45088 0.0
C50 C 0.9769 0.45695 0.46062 0.0
O51 O 0.89297 0.42089 0.49645 0.0
O52 O 0.84264 0.43639 0.40235 0.0
O53 O 0.89848 0.34957 0.44703 0.0
O54 O 0.84847 0.37991 0.39684 0.0
H55 H 0.75206 0.36773 0.35694 0.0
H56 H 0.69819 0.30227 0.41612 0.0
H57 H 0.85701 0.31236 0.46546 0.0
O58 O 0.8675 0.52467 0.78067 0.0
Tb59 Tb 0.90316 0.54668 0.86396 0.0
Eu60 Eu 0.93752 0.5952 0.97177 0.0
C61 C 0.872 0.52914 0.72804 0.0
O62 O 0.89471 0.54941 0.72169 0.0
C63 C 0.9875 0.58414 0.87294 0.0
O64 O 0.97674 0.60657 0.0724 0.0
C65 C 0.86813 0.62684 0.90977 0.0
C66 C 1.01847 0.59538 0.10934 0.0
O67 O 1.0392 0.57853 0.0861 0.0
C68 C 0.86379 0.55012 0.96716 0.0
C69 C 0.82626 0.64165 0.91559 0.0
C70 C 0.77514 0.63539 0.8828 0.0
C71 C 0.73618 0.65031 0.88737 0.0
C72 C 0.74869 0.6718 0.92371 0.0
C73 C 0.79918 0.67856 0.95523 0.0
C74 C 0.8375 0.66334 0.95128 0.0
O75 O 0.94411 0.57494 0.83491 0.0
O76 O 0.99618 0.58786 0.93141 0.0
O77 O 0.93598 0.5103 0.89636 0.0
O78 O 0.96521 0.54217 0.95123 0.0
C79 C 0.96756 0.51824 0.94884 0.0
O80 O 0.90371 0.56283 1.00131 0.0
O81 O 0.84793 0.55032 0.9065 0.0
O82 O 0.91435 0.63308 0.94571 0.0
O83 O 0.86218 0.60273 0.90249 0.0
H84 H 0.76566 0.61904 0.85398 0.0
H85 H 0.71891 0.68351 0.92672 0.0
H86 H 0.8764 0.66897 0.97473 0.0
O87 O 0.28109 0.54311 0.88349 0.0
Tb88 Tb 0.24349 0.5487 0.78519 0.0
Eu89 Eu 0.24166 0.60016 0.61736 0.0
C90 C 0.2979 0.52058 0.90155 0.0
O91 O 0.29994 0.50487 0.85995 0.0
C92 C 0.19066 0.5979 0.71676 0.0
O93 O 0.20834 0.59409 0.51337 0.0
C94 C 0.32117 0.62805 0.65966 0.0
C95 C 0.16808 0.60623 0.47627 0.0
O96 O 0.14674 0.62263 0.49997 0.0
C97 C 0.2763 0.54425 0.67807 0.0
C98 C 0.35854 0.64246 0.64421 0.0
C99 C 0.4104 0.63688 0.67326 0.0
C100 C 0.44684 0.6514 0.66234 0.0
C101 C 0.4307 0.67186 0.62268 0.0
C102 C 0.37925 0.67798 0.59458 0.0
C103 C 0.34343 0.66294 0.60478 0.0
O104 O 0.2343 0.58739 0.75105 0.0
O105 O 0.18521 0.60754 0.66266 0.0
O106 O 0.20277 0.51422 0.75808 0.0
O107 O 0.16249 0.54631 0.76383 0.0
C108 C 0.15877 0.52284 0.75132 0.0
O109 O 0.25613 0.56611 0.67497 0.0
O110 O 0.28027 0.53173 0.72742 0.0
O111 O 0.27462 0.63674 0.64194 0.0
O112 O 0.32356 0.60378 0.65654 0.0
H113 H 0.4224 0.62135 0.70471 0.0
H114 H 0.45851 0.6838 0.61611 0.0
H115 H 0.30372 0.66749 0.58265 0.0
O116 O 0.76377 0.93101 0.36897 0.0
Tb117 Tb 0.726 0.92842 0.27002 0.0
Eu118 Eu 0.71505 0.89235 0.09085 0.0
C119 C 0.78711 0.9521 0.38929 0.0
O120 O 0.79474 0.96682 0.34938 0.0
C121 C 0.66551 0.88576 0.1842 0.0
O122 O 0.68619 0.89066 0.98647 0.0
C123 C 0.80166 0.87055 0.14459 0.0
C124 C 0.63981 0.88382 0.95184 0.0
O125 O 0.6091 0.8772 0.97848 0.0
C126 C 0.7563 0.94278 0.16161 0.0
C127 C 0.8377 0.85417 0.13161 0.0
C128 C 0.88972 0.85889 0.15973 0.0
C129 C 0.92489 0.84265 0.15107 0.0
C130 C 0.90749 0.82139 0.11484 0.0
C131 C 0.85569 0.81621 0.08749 0.0
C132 C 0.82096 0.83296 0.095 0.0
O133 O 0.71098 0.89415 0.21752 0.0
O134 O 0.65683 0.87988 0.12701 0.0
O135 O 0.6945 0.96499 0.24428 0.0
O136 O 0.6466 0.93629 0.25057 0.0
C137 C 0.64885 0.95959 0.23815 0.0
O138 O 0.71458 0.93079 0.12957 0.0
O139 O 0.77108 0.94387 0.22202 0.0
O140 O 0.7584 0.86068 0.13975 0.0
O141 O 0.79725 0.89338 0.12371 0.0
H142 H 0.90282 0.87506 0.18875 0.0
H143 H 0.93446 0.80845 0.10929 0.0
H144 H 0.78099 0.82888 0.0745 0.0
O145 O 0.38389 0.96905 0.28349 0.0
Tb146 Tb 0.40116 0.9419 0.3574 0.0
Eu147 Eu 0.41787 0.88832 0.44849 0.0
C148 C 0.36929 0.96326 0.22492 0.0
O149 O 0.3629 0.93987 0.20833 0.0
C150 C 0.46912 0.89808 0.34979 0.0
O151 O 0.45316 0.87711 0.54918 0.0
C152 C 0.34493 0.85851 0.38858 0.0
C153 C 0.50079 0.88182 0.58354 0.0
O154 O 0.53008 0.89058 0.55717 0.0
C155 C 0.35322 0.93715 0.44958 0.0
C156 C 0.30317 0.84477 0.39665 0.0
C157 C 0.25252 0.85231 0.36674 0.0
C158 C 0.21336 0.83842 0.37314 0.0
C159 C 0.22501 0.81663 0.40841 0.0
C160 C 0.27504 0.80841 0.43644 0.0
C161 C 0.31375 0.82277 0.43118 0.0
O162 O 0.42988 0.91192 0.31695 0.0
O163 O 0.47652 0.89105 0.4062 0.0
O164 O 0.44149 0.97208 0.41849 0.0
O165 O 0.46642 0.93497 0.44035 0.0
C166 C 0.47392 0.95768 0.4585 0.0
O167 O 0.38994 0.92212 0.48201 0.0
O168 O 0.3401 0.93881 0.38962 0.0
O169 O 0.391 0.85112 0.42246 0.0
O170 O 0.34077 0.88276 0.38195 0.0
H171 H 0.2435 0.86883 0.33844 0.0
H172 H 0.19475 0.80544 0.41149 0.0
H173 H 0.3524 0.81648 0.45373 0.0
O174 O 0.37954 0.02437 0.77583 0.0
Tb175 Tb 0.4078 0.04953 0.85434 0.0
Eu176 Eu 0.43546 0.09969 0.95503 0.0
C177 C 0.37397 0.0301 0.71925 0.0
O178 O 0.38289 0.05284 0.70644 0.0
C179 C 0.48185 0.09061 0.8513 0.0
O180 O 0.47983 0.11016 0.0552 0.0
C181 C 0.36233 0.13032 0.89874 0.0
C182 C 0.5091 0.09353 0.09392 0.0
O183 O 0.51247 0.07134 0.07298 0.0
C184 C 0.36828 0.05253 0.95677 0.0
C185 C 0.31811 0.14293 0.90427 0.0
C186 C 0.26851 0.13422 0.87279 0.0
C187 C 0.22702 0.14738 0.87597 0.0
C188 C 0.2353 0.16952 0.90968 0.0
C189 C 0.28413 0.1789 0.93895 0.0
C190 C 0.3252 0.16535 0.93679 0.0
O191 O 0.43977 0.07911 0.81699 0.0
O192 O 0.49117 0.09656 0.90889 0.0
O193 O 0.45029 0.01664 0.90003 0.0
O194 O 0.47566 0.05236 0.93612 0.0
C195 C 0.48452 0.02892 0.94333 0.0
O196 O 0.40721 0.06632 0.9885 0.0
O197 O 0.35207 0.05145 0.89627 0.0
O198 O 0.40727 0.13726 0.93723 0.0
O199 O 0.35941 0.10638 0.887 0.0
H200 H 0.26205 0.11747 0.84553 0.0
H201 H 0.20332 0.18015 0.91028 0.0
H202 H 0.36289 0.17268 0.95981 0.0
O203 O 0.78625 0.0337 0.86742 0.0
Tb204 Tb 0.73842 0.04048 0.77202 0.0
Eu205 Eu 0.73896 0.08952 0.59885 0.0
C206 C 0.76702 0.03599 0.90969 0.0
O207 O 0.72498 0.04868 0.8964 0.0
C208 C 0.68711 0.08893 0.69751 0.0
O209 O 0.70289 0.08356 0.4952 0.0
C210 C 0.81763 0.11785 0.63874 0.0
C211 C 0.67155 0.09997 0.45818 0.0
O212 O 0.662 0.12047 0.48195 0.0
C213 C 0.76719 0.03336 0.66142 0.0
C214 C 0.85413 0.13299 0.62361 0.0
C215 C 0.906 0.12762 0.65227 0.0
C216 C 0.94208 0.14292 0.64316 0.0
C217 C 0.92567 0.16384 0.60526 0.0
C218 C 0.87412 0.16977 0.57744 0.0
C219 C 0.83852 0.15406 0.58615 0.0
O220 O 0.73031 0.07852 0.73371 0.0
O221 O 0.68263 0.09799 0.64325 0.0
O222 O 0.69411 0.007 0.75233 0.0
O223 O 0.6597 0.04022 0.76383 0.0
C224 C 0.65284 0.01667 0.75281 0.0
O225 O 0.75284 0.05635 0.6595 0.0
O226 O 0.76838 0.02122 0.71015 0.0
O227 O 0.77105 0.12625 0.62298 0.0
O228 O 0.82061 0.09363 0.6342 0.0
H229 H 0.91834 0.11175 0.68257 0.0
H230 H 0.95336 0.17634 0.60031 0.0
H231 H 0.79874 0.15858 0.56473 0.0
H232 H 0.67237 0.34354 0.2623 0.0
H233 H 0.64699 0.34406 0.43072 0.0
H234 H 0.55602 0.3483 0.37321 0.0
H235 H 0.48328 0.34679 0.2748 0.0
H236 H 0.5083 0.34331 0.10615 0.0
H237 H 0.59952 0.3454 0.16348 0.0
C238 C 0.64688 0.34525 0.28621 0.0
C239 C 0.66612 0.34367 0.3505 0.0
C240 C 0.59448 0.34678 0.25268 0.0
C241 C 0.63283 0.34537 0.38119 0.0
C242 C 0.58087 0.34764 0.34832 0.0
C243 C 0.5087 0.34707 0.25061 0.0
C244 C 0.48911 0.34485 0.18636 0.0
C245 C 0.56115 0.34764 0.28401 0.0
C246 C 0.52254 0.34483 0.15564 0.0
C247 C 0.57468 0.34603 0.1884 0.0
H248 H 0.499 0.64293 0.78439 0.0
H249 H 0.51871 0.64952 0.61294 0.0
H250 H 0.61027 0.64677 0.66675 0.0
H251 H 0.68537 0.64648 0.76384 0.0
H252 H 0.66533 0.64236 0.93532 0.0
H253 H 0.57383 0.63971 0.88067 0.0
C254 C 0.52332 0.64325 0.75874 0.0
C255 C 0.50198 0.6465 0.69472 0.0
C256 C 0.57611 0.64219 0.7902 0.0
C257 C 0.53416 0.64724 0.66228 0.0
C258 C 0.58656 0.64565 0.69304 0.0
C259 C 0.66089 0.64442 0.78897 0.0
C260 C 0.68196 0.64447 0.85344 0.0
C261 C 0.60809 0.64369 0.75716 0.0
C262 C 0.64987 0.64227 0.88566 0.0
C263 C 0.59756 0.64087 0.85442 0.0
H264 H 0.9774 0.85085 0.27241 0.0
H265 H 0.99583 0.84262 0.10053 0.0
H266 H 0.08763 0.84381 0.15383 0.0
H267 H 0.16266 0.84296 0.25045 0.0
H268 H 0.14386 0.84795 0.42261 0.0
H269 H 1.05253 0.85266 0.36852 0.0
C270 C 1.0016 0.84984 0.24666 0.0
C271 C 0.98001 0.84666 0.18272 0.0
C272 C 1.05433 0.84984 0.27782 0.0
C273 C 1.01171 0.84497 0.14985 0.0
C274 C 1.06414 0.84563 0.1803 0.0
C275 C 0.13851 0.84566 0.27585 0.0
C276 C 0.15968 0.84529 0.34023 0.0
C277 C 0.08591 0.84747 0.24441 0.0
C278 C 0.12816 0.84829 0.37295 0.0
C279 C 0.07602 0.85087 0.34206 0.0
H280 H 0.99171 0.13397 0.76502 0.0
H281 H 1.01595 0.14289 0.5969 0.0
H282 H 0.1073 0.14157 0.65382 0.0
H283 H 0.18023 0.14247 0.7527 0.0
H284 H 0.15544 0.13644 0.92094 0.0
H285 H 1.06474 0.13153 0.86307 0.0
C286 C 1.01702 0.13506 0.74077 0.0
C287 C 0.9971 0.13858 0.67686 0.0
C288 C 1.06953 0.13489 0.77401 0.0
C289 C 1.0304 0.14035 0.64615 0.0
C290 C 0.08263 0.13959 0.67867 0.0
C291 C 0.15497 0.13941 0.77641 0.0
C292 C 0.17428 0.13961 0.84082 0.0
C293 C 0.10266 0.13751 0.74278 0.0
C294 C 0.14124 0.13618 0.87131 0.0
C295 C 0.08943 0.13353 0.83825 0.0
H296 H 0.3425 0.21591 0.92563 0.0
H297 H 0.24346 0.19732 1.01803 0.0
H298 H 0.25881 0.23785 0.06854 0.0
H299 H 0.30357 0.27767 0.08983 0.0
H300 H 0.40288 0.29601 0.99747 0.0
H301 H 0.38475 0.25622 0.94399 0.0
C302 C 0.32456 0.22068 0.95717 0.0
C303 C 0.29235 0.2036 0.96868 0.0
C304 C 0.3337 0.24388 0.98604 0.0
C305 C 0.26837 0.21021 1.00846 0.0
C306 C 0.27726 0.23331 1.03743 0.0
C307 C 0.32057 0.27313 0.05721 0.0
C308 C 0.35452 0.28975 0.04758 0.0
C309 C 0.31014 0.25021 1.02686 0.0
C310 C 0.37696 0.28342 1.00601 0.0
C311 C 0.36656 0.26072 0.97538 0.0
H312 H 0.83999 0.26957 0.42794 0.0
H313 H 0.73966 0.28349 0.52178 0.0
H314 H 0.75825 0.24229 0.56868 0.0
H315 H 0.80618 0.20321 0.58655 0.0
H316 H 0.90683 0.18959 0.49287 0.0
H317 H 0.88547 0.23003 0.44288 0.0
C318 C 0.82247 0.26364 0.45901 0.0
C319 C 0.78894 0.27962 0.47197 0.0
C320 C 0.83349 0.24007 0.48586 0.0
C321 C 0.76555 0.27149 0.5111 0.0
C322 C 0.77629 0.248 0.53802 0.0
C323 C 0.82278 0.20892 0.5544 0.0
C324 C 0.85805 0.19343 0.54341 0.0
C325 C 0.81049 0.23222 0.52606 0.0
C326 C 0.87993 0.20128 0.50247 0.0
C327 C 0.86767 0.22435 0.47382 0.0
H328 H 0.89212 0.77032 0.12632 0.0
H329 H 0.779 0.80892 0.97627 0.0
H330 H 0.74945 0.76949 0.92345 0.0
H331 H 0.7579 0.72415 0.9187 0.0
H332 H 0.87101 0.68581 0.0695 0.0
H333 H 0.89869 0.72508 0.12323 0.0
C334 C 0.8613 0.77009 0.08178 0.0
C335 C 0.8381 0.79246 0.05485 0.0
C336 C 0.84449 0.74744 0.05198 0.0
C337 C 0.79742 0.7919 0.99783 0.0
C338 C 0.78059 0.76939 0.96766 0.0
C339 C 0.78807 0.72439 0.96374 0.0
C340 C 0.81249 0.70214 0.99003 0.0
C341 C 0.80396 0.74705 0.99424 0.0
C342 C 0.85199 0.70274 0.04807 0.0
C343 C 0.8678 0.72516 0.07881 0.0
H344 H 0.3109 0.71206 0.59932 0.0
H345 H 0.41192 0.69561 0.5077 0.0
H346 H 0.38778 0.73435 0.45005 0.0
H347 H 0.33871 0.77294 0.4266 0.0
H348 H 0.23814 0.78966 0.51861 0.0
H349 H 0.26032 0.7503 0.57412 0.0
C350 C 0.3271 0.71678 0.56609 0.0
C351 C 0.36309 0.70097 0.55769 0.0
C352 C 0.31304 0.73904 0.53318 0.0
C353 C 0.38448 0.70758 0.51536 0.0
C354 C 0.37055 0.72965 0.48225 0.0
C355 C 0.32193 0.76805 0.45918 0.0
C356 C 0.28717 0.78427 0.46894 0.0
C357 C 0.33516 0.74558 0.49114 0.0
C358 C 0.26483 0.77743 0.51016 0.0
C359 C 0.27769 0.75501 0.54207 0.0
H360 H 0.30238 0.47263 0.93596 0.0
H361 H 0.29889 0.54689 1.00221 0.0
H362 H 0.29203 0.53011 0.09529 0.0
H363 H 0.27941 0.49407 0.15335 0.0
H364 H 0.27383 0.42079 0.07818 0.0
H365 H 0.29197 0.43734 0.99363 0.0
C366 C 0.30097 0.48526 0.97107 0.0
C367 C 0.30131 0.51102 0.96203 0.0
C368 C 0.29502 0.47554 1.02295 0.0
C369 C 0.29886 0.52698 1.00799 0.0
C370 C 0.29468 0.51738 0.06109 0.0
C371 C 0.28299 0.48172 0.11894 0.0
C372 C 0.27595 0.45601 0.12295 0.0
C373 C 0.29158 0.49165 0.06846 0.0
C374 C 0.27974 0.44042 0.07724 0.0
C375 C 0.28991 0.44997 1.02838 0.0
H376 H 0.86123 0.53369 0.60777 0.0
H377 H 0.8509 0.48064 0.7392 0.0
H378 H 0.83837 0.44731 0.66516 0.0
H379 H 0.8398 0.43244 0.56742 0.0
H380 H 0.84783 0.48496 0.43423 0.0
H381 H 0.85086 0.51922 0.50384 0.0
C382 C 0.8555 0.5149 0.6199 0.0
C383 C 0.85759 0.50974 0.67944 0.0
C384 C 0.84782 0.49566 0.57664 0.0
C385 C 0.84962 0.48526 0.69399 0.0
C386 C 0.84255 0.4661 0.65164 0.0
C387 C 0.84057 0.45146 0.55292 0.0
C388 C 0.84316 0.45616 0.49559 0.0
C389 C 0.84274 0.47098 0.5934 0.0
C390 C 0.84477 0.48085 0.47758 0.0
C391 C 0.84724 0.50044 0.51781 0.0
H392 H 0.84833 0.45396 0.10833 0.0
H393 H 0.86749 0.50854 0.24949 0.0
H394 H 0.85956 0.5417 0.17663 0.0
H395 H 0.85591 0.55532 0.07629 0.0
H396 H 0.83836 0.50169 0.93436 0.0
H397 H 0.83559 0.46818 1.00327 0.0
C398 C 0.85019 0.47311 0.12299 0.0
C399 C 0.85907 0.47861 0.18482 0.0
C400 C 0.84559 0.49232 0.08052 0.0
C401 C 0.86104 0.5036 0.20261 0.0
C402 C 0.85646 0.52267 0.16086 0.0
C403 C 0.84994 0.53634 0.05984 0.0
C404 C 0.84685 0.53103 1.00013 0.0
C405 C 0.84976 0.51725 0.10016 0.0
C406 C 0.8397 0.50635 0.97961 0.0
C407 C 0.83898 0.48715 1.01944 0.0
H408 H 0.2889 0.49548 0.65596 0.0
H409 H 0.29036 0.56894 0.58521 0.0
H410 H 0.30097 0.55185 0.49582 0.0
H411 H 0.30184 0.51629 0.43283 0.0
H412 H 0.29221 0.44228 0.49641 0.0
H413 H 0.29354 0.45918 0.59351 0.0
C414 C 0.29256 0.50772 0.62152 0.0
C415 C 0.28932 0.53361 0.62788 0.0
C416 C 0.29685 0.49758 0.56854 0.0
C417 C 0.29317 0.54912 0.58219 0.0
C418 C 0.29903 0.53929 0.53065 0.0
C419 C 0.30084 0.50371 0.46815 0.0
C420 C 0.29687 0.478 0.45711 0.0
C421 C 0.2998 0.51358 0.5227 0.0
C422 C 0.29533 0.46213 0.50358 0.0
C423 C 0.29584 0.47182 0.55904 0.0
H424 H 0.79789 0.9416 0.0757 0.0
H425 H 0.73946 0.99127 0.17587 0.0
H426 H 0.74217 0.02571 0.11003 0.0
H427 H 0.75183 0.04047 1.01628 0.0
H428 H 0.8144 0.99132 0.9191 0.0
H429 H 0.82079 0.95822 0.99212 0.0
C430 C 0.7872 0.96013 0.08404 0.0
C431 C 0.76881 0.96398 0.13063 0.0
C432 C 0.78944 0.97995 0.04634 0.0
C433 C 0.75443 0.98798 0.14076 0.0
C434 C 0.75564 0.00765 0.10283 0.0
C435 C 0.76805 0.02271 1.01203 0.0
C436 C 0.78222 0.01837 0.96198 0.0
C437 C 0.77179 0.00371 0.05441 0.0
C438 C 0.80338 -0.00473 0.95726 0.0
C439 C 0.80663 0.9762 0.99875 0.0
H440 H 0.3545 0.03479 0.59616 0.0
H441 H 0.36584 0.98055 0.73531 0.0
H442 H 0.35343 0.9473 0.66131 0.0
H443 H 0.3472 0.93317 0.56015 0.0
H444 H 0.3361 0.98652 0.41988 0.0
H445 H 0.3393 0.02045 0.49054 0.0
C446 C 0.35371 0.01572 0.61014 0.0
C447 C 0.36162 0.0103 0.67169 0.0
C448 C 0.34633 -0.00354 0.56698 0.0
C449 C 0.36012 0.98542 0.68861 0.0
C450 C 0.353 0.96629 0.64623 0.0
C451 C 0.34412 0.95224 0.54451 0.0
C452 C 0.34113 0.95729 0.48473 0.0
C453 C 0.347 0.97156 0.58569 0.0
C454 C 0.33751 0.98208 0.46525 0.0
C455 C 0.3401 0.0015 0.50602 0.0
H456 H 0.3421 0.95861 0.10018 0.0
H457 H 0.38233 0.01287 0.24565 0.0
H458 H 0.37856 0.04555 0.17315 0.0
H459 H 0.37093 0.05845 0.071 0.0
H460 H 0.33305 0.00503 0.92453 0.0
H461 H 0.32743 0.97249 0.99429 0.0
C462 C 0.34957 0.97762 0.11592 0.0
C463 C 0.36294 0.98313 0.17872 0.0
C464 C 0.34746 -0.00346 0.07367 0.0
C465 C 0.37226 0.00793 0.19797 0.0
C466 C 0.37005 0.02672 0.15643 0.0
C467 C 0.36036 0.03978 0.0539 0.0
C468 C 0.35229 0.03421 0.99257 0.0
C469 C 0.35856 0.02119 0.09453 0.0
C470 C 0.3387 0.00993 0.9712 0.0
C471 C 0.3362 0.99125 1.0114 0.0
H472 H 0.80202 -1e-05 0.42494 0.0
H473 H 0.77956 0.92766 0.48785 0.0
H474 H 0.77541 0.94637 0.58067 0.0
H475 H 0.77185 0.98387 0.6399 0.0
H476 H 0.78614 0.05587 0.56926 0.0
H477 H 0.79965 0.03674 0.4835 0.0
C478 C 0.797 0.98815 0.45925 0.0
C479 C 0.79139 0.96239 0.44948 0.0
C480 C 0.79269 -0.00091 0.51096 0.0
C481 C 0.78423 0.94751 0.49431 0.0
C482 C 0.7816 0.95824 0.54722 0.0
C483 C 0.77855 -0.00467 0.60608 0.0
C484 C 0.77841 0.02138 0.61143 0.0
C485 C 0.78481 0.98409 0.55546 0.0
C486 C 0.78634 0.03592 0.56672 0.0
C487 C 0.79402 0.02493 0.51745 0.0
H488 H 1.00207 0.53412 0.06437 0.0
H489 H 0.98073 0.46806 0.95451 0.0
H490 H 1.02105 0.44318 0.04757 0.0
H491 H 0.07455 0.44209 0.15648 0.0
H492 H 0.10589 0.50931 0.26287 0.0
H493 H 1.04673 0.53212 0.17508 0.0
C494 C 1.00665 0.51431 0.06083 0.0
C495 C 0.9908 0.50291 1.00322 0.0
C496 C 1.03025 0.50048 0.11389 0.0
C497 C 0.99437 0.47715 0.99879 0.0
C498 C 1.01684 0.463 0.05177 0.0
C499 C 1.06639 0.46143 0.16115 0.0
C500 C 0.09376 0.47415 0.2154 0.0
C501 C 1.03637 0.47465 0.10926 0.0
C502 C 0.08447 0.49933 0.22121 0.0
C503 C 1.05158 0.51237 0.17086 0.0
H504 H 0.15116 0.47634 0.71154 0.0
H505 H 1.06328 0.54213 0.70381 0.0
H506 H 0.99641 0.52704 0.61004 0.0
H507 H 0.97039 0.4981 0.52207 0.0
H508 H 1.06364 0.43447 0.52779 0.0
H509 H 0.12263 0.44623 0.62971 0.0
C510 C 0.1168 0.48709 0.69009 0.0
C511 C 0.11232 0.51053 0.7128 0.0
C512 C 0.08086 0.47919 0.6346 0.0
C513 C 1.06746 0.52415 0.68601 0.0
C514 C 1.02978 0.51572 0.63204 0.0
C515 C 1.0041 0.48716 0.54562 0.0
C516 C 1.01394 0.46593 0.51788 0.0
C517 C 1.03757 0.49397 0.60417 0.0
C518 C 1.05646 0.45122 0.54864 0.0
C519 C 0.08965 0.45772 0.6069 0.0
H520 H 0.46874 0.99078 1.00645 0.0
H521 H 0.57711 0.04616 1.00783 0.0
H522 H 0.63314 0.03336 0.1107 0.0
H523 H 0.65329 0.00471 0.19541 0.0
H524 H 0.54908 0.94689 0.19223 0.0
H525 H 0.48694 0.96358 0.09653 0.0
C526 C 0.50511 -0.00041 1.02918 0.0
C527 C 0.52014 0.01871 0.99999 0.0
C528 C 0.53648 0.99241 0.08837 0.0
C529 C 0.56604 0.0309 1.02976 0.0
C530 C 0.59747 0.0239 0.08857 0.0
C531 C 0.61649 -0.00389 0.1745 0.0
C532 C 0.60592 0.97427 0.19907 0.0
C533 C 0.58315 0.00459 0.11793 0.0
C534 C 0.55795 0.96355 0.17297 0.0
C535 C 0.52295 0.97281 0.11792 0.0
H536 H 0.46527 -0.00294 0.52546 0.0
H537 H 0.55582 0.93259 0.5293 0.0
H538 H 0.60918 0.94064 0.63589 0.0
H539 H 0.63798 0.96934 0.7203 0.0
H540 H 0.55863 0.03796 0.71167 0.0
H541 H 0.49061 0.02441 0.6169 0.0
C542 C 0.49698 0.98501 0.54985 0.0
C543 C 0.50736 0.96441 0.52028 0.0
C544 C 0.52853 0.99028 0.61051 0.0
C545 C 0.54744 0.94845 0.55198 0.0
C546 C 0.57772 0.95299 0.61273 0.0
C547 C 0.605 0.981 0.69856 0.0
C548 C 0.60398 0.00501 0.72035 0.0
C549 C 0.56944 0.97419 0.64172 0.0
C550 C 0.56056 0.01968 0.6939 0.0
C551 C 0.5223 0.01212 0.6393 0.0
H552 H 1.06049 0.42179 0.696 0.0
H553 H 0.99334 0.34906 0.66511 0.0
H554 H 1.03901 0.33883 0.77342 0.0
H555 H 0.09699 0.35073 0.87765 0.0
H556 H 0.16503 0.42328 0.90778 0.0
H557 H 0.12026 0.43324 0.7993 0.0
C558 C 1.05577 0.40365 0.71277 0.0
C559 C 1.0231 0.38626 0.672 0.0
C560 C 0.08242 0.39783 0.77525 0.0
C561 C 1.01802 0.36284 0.69501 0.0
C562 C 1.04417 0.35698 0.75714 0.0
C563 C 0.10222 0.36873 0.86061 0.0
C564 C 0.13445 0.38624 0.90146 0.0
C565 C 0.07632 0.37436 0.79781 0.0
C566 C 0.14062 0.4094 0.87792 0.0
C567 C 0.11489 0.41515 0.8157 0.0
H568 H 0.08725 0.62913 0.38797 0.0
H569 H 0.19958 0.5724 0.41111 0.0
H570 H 0.1638 0.5643 0.30076 0.0
H571 H 0.10052 0.5732 0.19726 0.0
H572 H 0.98781 0.62972 0.17417 0.0
H573 H 1.02396 0.63802 0.28442 0.0
C574 C 0.10408 0.615 0.36905 0.0
C575 C 0.14636 0.60145 0.40846 0.0
C576 C 0.08323 0.61041 0.30519 0.0
C577 C 0.16728 0.58321 0.38244 0.0
C578 C 0.14675 0.57854 0.3191 0.0
C579 C 0.08379 0.5874 0.21613 0.0
C580 C 1.04128 0.60084 0.17677 0.0
C581 C 0.10474 0.59203 0.27995 0.0
C582 C 1.02039 0.61908 0.20277 0.0
C583 C 1.04111 0.62384 0.26606 0.0
H584 H 0.54808 0.86906 0.86778 0.0
H585 H 0.69089 0.89936 0.88111 0.0
H586 H 0.66118 0.90082 0.76935 0.0
H587 H 0.59423 0.89414 0.6674 0.0
H588 H 0.45125 0.86403 0.65396 0.0
H589 H 0.48158 0.86174 0.76571 0.0
C590 C 0.57286 0.87593 0.84638 0.0
C591 C 0.62183 0.8841 0.88337 0.0
C592 C 0.55549 0.87671 0.78175 0.0
C593 C 0.65315 0.89291 0.85428 0.0
C594 C 0.63613 0.89377 0.79015 0.0
C595 C 0.5697 0.88691 0.68876 0.0
C596 C 0.52038 0.87919 0.65178 0.0
C597 C 0.58734 0.88577 0.75336 0.0
C598 C 0.48931 0.87004 0.68081 0.0
C599 C 0.50665 0.86877 0.74493 0.0
H600 H 0.57581 0.06359 0.18119 0.0
H601 H 0.50563 0.13581 0.15743 0.0
H602 H 0.54976 0.14415 0.26701 0.0
H603 H 0.60741 0.13076 0.37018 0.0
H604 H 0.67794 0.05863 0.39348 0.0
H605 H 0.63467 0.05054 0.28375 0.0
C606 C 0.57012 0.08122 0.19976 0.0
C607 C 0.53712 0.09905 0.16057 0.0
C608 C 0.59576 0.08592 0.26302 0.0
C609 C 0.53064 0.12175 0.18602 0.0
C610 C 0.5559 0.12652 0.24889 0.0
C611 C 0.6135 0.11326 0.35141 0.0
C612 C 0.64606 0.09532 0.39066 0.0
C613 C 0.58842 0.10872 0.28793 0.0
C614 C 0.65328 0.07281 0.36489 0.0
C615 C 0.62843 0.06815 0.30194 0.0
H616 H 0.1795 0.3863 0.3257 0.0
H617 H 0.07969 0.39323 0.13614 0.0
H618 H 1.00677 0.39524 0.16564 0.0
H619 H 0.97141 0.39682 0.24632 0.0
H620 H 1.07188 0.38735 0.43537 0.0
H621 H 0.14374 0.38447 0.40515 0.0
C622 C 0.14173 0.38812 0.29096 0.0
C623 C 0.13508 0.39014 0.22901 0.0
C624 C 0.09983 0.38886 0.30817 0.0
C625 C 0.08585 0.39188 0.18426 0.0
C626 C 1.04409 0.39311 0.2011 0.0
C627 C 1.00897 0.39393 0.28078 0.0
C628 C 1.0159 0.39237 0.34304 0.0
C629 C 1.05061 0.39192 0.26305 0.0
C630 C 1.065 0.38848 0.38702 0.0
C631 C 0.10642 0.38693 0.36988 0.0
H632 H 0.19202 0.59783 0.83262 0.0
H633 H 0.0904 0.59703 0.64294 0.0
H634 H 1.01824 0.59328 0.67356 0.0
H635 H 0.98409 0.58796 0.75482 0.0
H636 H 0.08688 0.58988 0.94439 0.0
H637 H 0.15781 0.5951 0.91326 0.0
C638 C 0.15404 0.59694 0.79803 0.0
C639 C 0.14673 0.59735 0.73561 0.0
C640 C 0.11268 0.59469 0.81595 0.0
C641 C 0.09718 0.59662 0.69133 0.0
C642 C 1.05584 0.59438 0.70883 0.0
C643 C 1.02196 0.58962 0.78928 0.0
C644 C 1.02976 0.58842 0.85195 0.0
C645 C 1.06312 0.59297 0.77107 0.0
C646 C 0.07931 0.59079 0.89583 0.0
C647 C 0.12018 0.59375 0.87812 0.0
H648 H 0.46433 0.90071 0.23149 0.0
H649 H 0.56598 0.88402 0.41647 0.0
H650 H 0.63516 0.87838 0.38198 0.0
H651 H 0.66836 0.87964 0.29991 0.0
H652 H 0.56661 0.89468 0.11437 0.0
H653 H 0.49636 0.89908 0.14812 0.0
C654 C 0.50152 0.89566 0.26415 0.0
C655 C 0.50968 0.89287 0.32654 0.0
C656 C 0.54142 0.89211 0.2439 0.0
C657 C 0.55823 0.88619 0.3681 0.0
C658 C 0.59808 0.88303 0.3485 0.0
C659 C 0.63073 0.88379 0.26697 0.0
C660 C 0.62286 0.88715 0.20494 0.0
C661 C 0.59032 0.88617 0.28664 0.0
C662 C 0.57375 0.8921 0.16248 0.0
C663 C 0.53352 0.89468 0.18176 0.0
H664 H 0.4791 0.08755 0.73334 0.0
H665 H 0.58044 0.09911 0.92123 0.0
H666 H 0.65203 0.09968 0.89056 0.0
H667 H 0.68739 0.09542 0.81148 0.0
H668 H 0.58759 0.08559 0.62292 0.0
H669 H 0.51445 0.08637 0.65239 0.0
C670 C 0.51677 0.09045 0.7674 0.0
C671 C 0.52396 0.09323 0.82954 0.0
C672 C 0.5584 0.09109 0.74939 0.0
C673 C 0.57327 0.09703 0.87298 0.0
C674 C 0.61458 0.09727 0.85561 0.0
C675 C 0.64959 0.09342 0.77695 0.0
C676 C 0.64293 0.08997 0.71539 0.0
C677 C 0.60775 0.09403 0.79415 0.0
C678 C 0.5937 0.08803 0.67079 0.0
C679 C 0.55184 0.08848 0.68761 0.0
loop_
_geom_bond_atom_site_label_1
_geom_bond_atom_site_label_2
_geom_bond_distance
_geom_bond_site_symmetry_2
_ccdc_geom_bond_type
O0 Tb1 2.292 . S
O0 C3 1.255 . S
Tb1 O0 2.292 . S
Tb1 O17 2.326 . S
Tb1 O19 2.500 . S
Tb1 O20 2.473 . S
Tb1 O23 2.324 . S
Eu2 O6 2.292 1_554 S
Eu2 C7 2.852 . S
Eu2 O18 2.324 . S
Eu2 O22 2.326 . S
Eu2 O24 2.500 . S
Eu2 O25 2.473 . S
C3 O0 1.255 . S
C3 O4 1.247 . S
O4 C3 1.247 . S
C5 O17 1.242 . S
C5 O18 1.258 . S
O6 Eu2 2.292 1_556 S
O6 C8 1.255 . S
C7 Eu2 2.852 . S
C7 C11 1.503 . S
C7 O24 1.273 . S
C7 O25 1.257 . S
C8 O6 1.255 . S
C8 O9 1.247 . S
O9 C8 1.247 . S
C10 O22 1.242 . S
C10 O23 1.258 . S
C11 C7 1.503 . S
C11 C12 1.379 . S
C11 C16 1.392 . S
C12 C11 1.379 . S
C12 C13 1.404 . S
C12 H26 0.929 . S
C13 C12 1.404 . S
C13 C14 1.389 . S
C14 C13 1.389 . S
C14 C15 1.399 . S
C14 H27 0.931 . S
C15 C14 1.399 . S
C15 C16 1.390 . S
C16 C11 1.392 . S
C16 C15 1.390 . S
C16 H28 0.929 . S
O17 Tb1 2.326 . S
O17 C5 1.242 . S
O18 Eu2 2.324 . S
O18 C5 1.258 . S
O19 Tb1 2.500 . S
O19 C21 1.273 . S
O20 Tb1 2.473 . S
O20 C21 1.257 . S
C21 O19 1.273 . S
C21 O20 1.257 . S
O22 Eu2 2.326 . S
O22 C10 1.242 . S
O23 Tb1 2.324 . S
O23 C10 1.258 . S
O24 Eu2 2.500 . S
O24 C7 1.273 . S
O25 Eu2 2.473 . S
O25 C7 1.257 . S
H26 C12 0.929 . S
H27 C14 0.931 . S
H28 C16 0.929 . S
O29 Tb30 2.292 . S
O29 C32 1.255 . S
Tb30 O29 2.292 . S
Tb30 O46 2.326 . S
Tb30 O48 2.500 . S
Tb30 O49 2.473 . S
Tb30 O52 2.324 . S
Eu31 O35 2.292 . S
Eu31 C36 2.852 . S
Eu31 O47 2.324 . S
Eu31 O51 2.326 . S
Eu31 O53 2.500 . S
Eu31 O54 2.473 . S
C32 O29 1.255 . S
C32 O33 1.247 . S
O33 C32 1.247 . S
C34 O46 1.242 . S
C34 O47 1.258 . S
O35 Eu31 2.292 . S
O35 C37 1.255 . S
C36 Eu31 2.852 . S
C36 C40 1.503 . S
C36 O53 1.273 . S
C36 O54 1.257 . S
C37 O35 1.255 . S
C37 O38 1.247 . S
O38 C37 1.247 . S
C39 O51 1.242 . S
C39 O52 1.258 . S
C40 C36 1.503 . S
C40 C41 1.379 . S
C40 C45 1.392 . S
C41 C40 1.379 . S
C41 C42 1.404 . S
C41 H55 0.929 . S
C42 C41 1.404 . S
C42 C43 1.389 . S
C43 C42 1.389 . S
C43 C44 1.399 . S
C43 H56 0.931 . S
C44 C43 1.399 . S
C44 C45 1.390 . S
C45 C40 1.392 . S
C45 C44 1.390 . S
C45 H57 0.929 . S
O46 Tb30 2.326 . S
O46 C34 1.242 . S
O47 Eu31 2.324 . S
O47 C34 1.258 . S
O48 Tb30 2.500 . S
O48 C50 1.273 . S
O49 Tb30 2.473 . S
O49 C50 1.257 . S
C50 O48 1.273 . S
C50 O49 1.257 . S
O51 Eu31 2.326 . S
O51 C39 1.242 . S
O52 Tb30 2.324 . S
O52 C39 1.258 . S
O53 Eu31 2.500 . S
O53 C36 1.273 . S
O54 Eu31 2.473 . S
O54 C36 1.257 . S
H55 C41 0.929 . S
H56 C43 0.931 . S
H57 C45 0.929 . S
O58 Tb59 2.292 . S
O58 C61 1.255 . S
Tb59 O58 2.292 . S
Tb59 O75 2.326 . S
Tb59 O77 2.500 . S
Tb59 O78 2.473 . S
Tb59 O81 2.324 . S
Eu60 O64 2.292 1_556 S
Eu60 C65 2.852 . S
Eu60 O76 2.324 . S
Eu60 O80 2.326 . S
Eu60 O82 2.500 . S
Eu60 O83 2.473 . S
C61 O58 1.255 . S
C61 O62 1.247 . S
O62 C61 1.247 . S
C63 O75 1.242 . S
C63 O76 1.258 . S
O64 Eu60 2.292 1_554 S
O64 C66 1.255 . S
C65 Eu60 2.852 . S
C65 C69 1.503 . S
C65 O82 1.273 . S
C65 O83 1.257 . S
C66 O64 1.255 . S
C66 O67 1.247 . S
O67 C66 1.247 . S
C68 O80 1.242 . S
C68 O81 1.258 . S
C69 C65 1.503 . S
C69 C70 1.379 . S
C69 C74 1.392 . S
C70 C69 1.379 . S
C70 C71 1.404 . S
C70 H84 0.929 . S
C71 C70 1.404 . S
C71 C72 1.389 . S
C72 C71 1.389 . S
C72 C73 1.399 . S
C72 H85 0.931 . S
C73 C72 1.399 . S
C73 C74 1.390 . S
C74 C69 1.392 . S
C74 C73 1.390 . S
C74 H86 0.929 . S
O75 Tb59 2.326 . S
O75 C63 1.242 . S
O76 Eu60 2.324 . S
O76 C63 1.258 . S
O77 Tb59 2.500 . S
O77 C79 1.273 . S
O78 Tb59 2.473 . S
O78 C79 1.257 . S
C79 O77 1.273 . S
C79 O78 1.257 . S
O80 Eu60 2.326 . S
O80 C68 1.242 . S
O81 Tb59 2.324 . S
O81 C68 1.258 . S
O82 Eu60 2.500 . S
O82 C65 1.273 . S
O83 Eu60 2.473 . S
O83 C65 1.257 . S
H84 C70 0.929 . S
H85 C72 0.931 . S
H86 C74 0.929 . S
O87 Tb88 2.292 . S
O87 C90 1.255 . S
Tb88 O87 2.292 . S
Tb88 O104 2.326 . S
Tb88 O106 2.500 . S
Tb88 O107 2.473 . S
Tb88 O110 2.324 . S
Eu89 O93 2.292 . S
Eu89 C94 2.852 . S
Eu89 O105 2.324 . S
Eu89 O109 2.326 . S
Eu89 O111 2.500 . S
Eu89 O112 2.473 . S
C90 O87 1.255 . S
C90 O91 1.247 . S
O91 C90 1.247 . S
C92 O104 1.242 . S
C92 O105 1.258 . S
O93 Eu89 2.292 . S
O93 C95 1.255 . S
C94 Eu89 2.852 . S
C94 C98 1.503 . S
C94 O111 1.273 . S
C94 O112 1.257 . S
C95 O93 1.255 . S
C95 O96 1.247 . S
O96 C95 1.247 . S
C97 O109 1.242 . S
C97 O110 1.258 . S
C98 C94 1.503 . S
C98 C99 1.379 . S
C98 C103 1.392 . S
C99 C98 1.379 . S
C99 C100 1.404 . S
C99 H113 0.929 . S
C100 C99 1.404 . S
C100 C101 1.389 . S
C101 C100 1.389 . S
C101 C102 1.399 . S
C101 H114 0.931 . S
C102 C101 1.399 . S
C102 C103 1.390 . S
C103 C98 1.392 . S
C103 C102 1.390 . S
C103 H115 0.929 . S
O104 Tb88 2.326 . S
O104 C92 1.242 . S
O105 Eu89 2.324 . S
O105 C92 1.258 . S
O106 Tb88 2.500 . S
O106 C108 1.273 . S
O107 Tb88 2.473 . S
O107 C108 1.257 . S
C108 O106 1.273 . S
C108 O107 1.257 . S
O109 Eu89 2.326 . S
O109 C97 1.242 . S
O110 Tb88 2.324 . S
O110 C97 1.258 . S
O111 Eu89 2.500 . S
O111 C94 1.273 . S
O112 Eu89 2.473 . S
O112 C94 1.257 . S
H113 C99 0.929 . S
H114 C101 0.931 . S
H115 C103 0.929 . S
O116 Tb117 2.292 . S
O116 C119 1.255 . S
Tb117 O116 2.292 . S
Tb117 O133 2.326 . S
Tb117 O135 2.500 . S
Tb117 O136 2.473 . S
Tb117 O139 2.324 . S
Eu118 O122 2.292 1_554 S
Eu118 C123 2.852 . S
Eu118 O134 2.324 . S
Eu118 O138 2.326 . S
Eu118 O140 2.500 . S
Eu118 O141 2.473 . S
C119 O116 1.255 . S
C119 O120 1.247 . S
O120 C119 1.247 . S
C121 O133 1.242 . S
C121 O134 1.258 . S
O122 Eu118 2.292 1_556 S
O122 C124 1.255 . S
C123 Eu118 2.852 . S
C123 C127 1.503 . S
C123 O140 1.273 . S
C123 O141 1.257 . S
C124 O122 1.255 . S
C124 O125 1.247 . S
O125 C124 1.247 . S
C126 O138 1.242 . S
C126 O139 1.258 . S
C127 C123 1.503 . S
C127 C128 1.379 . S
C127 C132 1.392 . S
C128 C127 1.379 . S
C128 C129 1.404 . S
C128 H142 0.929 . S
C129 C128 1.404 . S
C129 C130 1.389 . S
C130 C129 1.389 . S
C130 C131 1.399 . S
C130 H143 0.931 . S
C131 C130 1.399 . S
C131 C132 1.390 . S
C132 C127 1.392 . S
C132 C131 1.390 . S
C132 H144 0.929 . S
O133 Tb117 2.326 . S
O133 C121 1.242 . S
O134 Eu118 2.324 . S
O134 C121 1.258 . S
O135 Tb117 2.500 . S
O135 C137 1.273 . S
O136 Tb117 2.473 . S
O136 C137 1.257 . S
C137 O135 1.273 . S
C137 O136 1.257 . S
O138 Eu118 2.326 . S
O138 C126 1.242 . S
O139 Tb117 2.324 . S
O139 C126 1.258 . S
O140 Eu118 2.500 . S
O140 C123 1.273 . S
O141 Eu118 2.473 . S
O141 C123 1.257 . S
H142 C128 0.929 . S
H143 C130 0.931 . S
H144 C132 0.929 . S
O145 Tb146 2.292 . S
O145 C148 1.255 . S
Tb146 O145 2.292 . S
Tb146 O162 2.326 . S
Tb146 O164 2.500 . S
Tb146 O165 2.473 . S
Tb146 O168 2.324 . S
Eu147 O151 2.292 . S
Eu147 C152 2.852 . S
Eu147 O163 2.324 . S
Eu147 O167 2.326 . S
Eu147 O169 2.500 . S
Eu147 O170 2.473 . S
C148 O145 1.255 . S
C148 O149 1.247 . S
O149 C148 1.247 . S
C150 O162 1.242 . S
C150 O163 1.258 . S
O151 Eu147 2.292 . S
O151 C153 1.255 . S
C152 Eu147 2.852 . S
C152 C156 1.503 . S
C152 O169 1.273 . S
C152 O170 1.257 . S
C153 O151 1.255 . S
C153 O154 1.247 . S
O154 C153 1.247 . S
C155 O167 1.242 . S
C155 O168 1.258 . S
C156 C152 1.503 . S
C156 C157 1.379 . S
C156 C161 1.392 . S
C157 C156 1.379 . S
C157 C158 1.404 . S
C157 H171 0.929 . S
C158 C157 1.404 . S
C158 C159 1.389 . S
C159 C158 1.389 . S
C159 C160 1.399 . S
C159 H172 0.931 . S
C160 C159 1.399 . S
C160 C161 1.390 . S
C161 C156 1.392 . S
C161 C160 1.390 . S
C161 H173 0.929 . S
O162 Tb146 2.326 . S
O162 C150 1.242 . S
O163 Eu147 2.324 . S
O163 C150 1.258 . S
O164 Tb146 2.500 . S
O164 C166 1.273 . S
O165 Tb146 2.473 . S
O165 C166 1.257 . S
C166 O164 1.273 . S
C166 O165 1.257 . S
O167 Eu147 2.326 . S
O167 C155 1.242 . S
O168 Tb146 2.324 . S
O168 C155 1.258 . S
O169 Eu147 2.500 . S
O169 C152 1.273 . S
O170 Eu147 2.473 . S
O170 C152 1.257 . S
H171 C157 0.929 . S
H172 C159 0.931 . S
H173 C161 0.929 . S
O174 Tb175 2.292 . S
O174 C177 1.255 . S
Tb175 O174 2.292 . S
Tb175 O191 2.326 . S
Tb175 O193 2.500 . S
Tb175 O194 2.473 . S
Tb175 O197 2.324 . S
Eu176 O180 2.292 1_556 S
Eu176 C181 2.852 . S
Eu176 O192 2.324 . S
Eu176 O196 2.326 . S
Eu176 O198 2.500 . S
Eu176 O199 2.473 . S
C177 O174 1.255 . S
C177 O178 1.247 . S
O178 C177 1.247 . S
C179 O191 1.242 . S
C179 O192 1.258 . S
O180 Eu176 2.292 1_554 S
O180 C182 1.255 . S
C181 Eu176 2.852 . S
C181 C185 1.503 . S
C181 O198 1.273 . S
C181 O199 1.257 . S
C182 O180 1.255 . S
C182 O183 1.247 . S
O183 C182 1.247 . S
C184 O196 1.242 . S
C184 O197 1.258 . S
C185 C181 1.503 . S
C185 C186 1.379 . S
C185 C190 1.392 . S
C186 C185 1.379 . S
C186 C187 1.404 . S
C186 H200 0.929 . S
C187 C186 1.404 . S
C187 C188 1.389 . S
C188 C187 1.389 . S
C188 C189 1.399 . S
C188 H201 0.931 . S
C189 C188 1.399 . S
C189 C190 1.390 . S
C190 C185 1.392 . S
C190 C189 1.390 . S
C190 H202 0.929 . S
O191 Tb175 2.326 . S
O191 C179 1.242 . S
O192 Eu176 2.324 . S
O192 C179 1.258 . S
O193 Tb175 2.500 . S
O193 C195 1.273 . S
O194 Tb175 2.473 . S
O194 C195 1.257 . S
C195 O193 1.273 . S
C195 O194 1.257 . S
O196 Eu176 2.326 . S
O196 C184 1.242 . S
O197 Tb175 2.324 . S
O197 C184 1.258 . S
O198 Eu176 2.500 . S
O198 C181 1.273 . S
O199 Eu176 2.473 . S
O199 C181 1.257 . S
H200 C186 0.929 . S
H201 C188 0.931 . S
H202 C190 0.929 . S
O203 Tb204 2.292 . S
O203 C206 1.255 . S
Tb204 O203 2.292 . S
Tb204 O220 2.326 . S
Tb204 O222 2.500 . S
Tb204 O223 2.473 . S
Tb204 O226 2.324 . S
Eu205 O209 2.292 . S
Eu205 C210 2.852 . S
Eu205 O221 2.324 . S
Eu205 O225 2.326 . S
Eu205 O227 2.500 . S
Eu205 O228 2.473 . S
C206 O203 1.255 . S
C206 O207 1.247 . S
O207 C206 1.247 . S
C208 O220 1.242 . S
C208 O221 1.258 . S
O209 Eu205 2.292 . S
O209 C211 1.255 . S
C210 Eu205 2.852 . S
C210 C214 1.503 . S
C210 O227 1.273 . S
C210 O228 1.257 . S
C211 O209 1.255 . S
C211 O212 1.247 . S
O212 C211 1.247 . S
C213 O225 1.242 . S
C213 O226 1.258 . S
C214 C210 1.503 . S
C214 C215 1.379 . S
C214 C219 1.392 . S
C215 C214 1.379 . S
C215 C216 1.404 . S
C215 H229 0.929 . S
C216 C215 1.404 . S
C216 C217 1.389 . S
C217 C216 1.389 . S
C217 C218 1.399 . S
C217 H230 0.931 . S
C218 C217 1.399 . S
C218 C219 1.390 . S
C219 C214 1.392 . S
C219 C218 1.390 . S
C219 H231 0.929 . S
O220 Tb204 2.326 . S
O220 C208 1.242 . S
O221 Eu205 2.324 . S
O221 C208 1.258 . S
O222 Tb204 2.500 . S
O222 C224 1.273 . S
O223 Tb204 2.473 . S
O223 C224 1.257 . S
C224 O222 1.273 . S
C224 O223 1.257 . S
O225 Eu205 2.326 . S
O225 C213 1.242 . S
O226 Tb204 2.324 . S
O226 C213 1.258 . S
O227 Eu205 2.500 . S
O227 C210 1.273 . S
O228 Eu205 2.473 . S
O228 C210 1.257 . S
H229 C215 0.929 . S
H230 C217 0.931 . S
H231 C219 0.929 . S
H232 C238 0.930 . S
H233 C241 0.930 . S
H234 C242 0.930 . S
H235 C243 0.930 . S
H236 C246 0.930 . S
H237 C247 0.930 . S
C238 H232 0.930 . S
C238 C239 1.355 . S
C238 C240 1.415 . S
C239 C238 1.355 . S
C239 C241 1.419 . S
C240 C238 1.415 . S
C240 C245 1.425 . S
C240 C247 1.409 . S
C241 H233 0.930 . S
C241 C239 1.419 . S
C241 C242 1.362 . S
C242 H234 0.930 . S
C242 C241 1.362 . S
C242 C245 1.409 . S
C243 H235 0.930 . S
C243 C244 1.355 . S
C243 C245 1.415 . S
C244 C243 1.355 . S
C244 C246 1.419 . S
C245 C240 1.425 . S
C245 C242 1.409 . S
C245 C243 1.415 . S
C246 H236 0.930 . S
C246 C244 1.419 . S
C246 C247 1.362 . S
C247 H237 0.930 . S
C247 C240 1.409 . S
C247 C246 1.362 . S
H248 C254 0.930 . S
H249 C257 0.930 . S
H250 C258 0.930 . S
H251 C259 0.930 . S
H252 C262 0.930 . S
H253 C263 0.930 . S
C254 H248 0.930 . S
C254 C255 1.355 . S
C254 C256 1.415 . S
C255 C254 1.355 . S
C255 C257 1.419 . S
C256 C254 1.415 . S
C256 C261 1.425 . S
C256 C263 1.409 . S
C257 H249 0.930 . S
C257 C255 1.419 . S
C257 C258 1.362 . S
C258 H250 0.930 . S
C258 C257 1.362 . S
C258 C261 1.409 . S
C259 H251 0.930 . S
C259 C260 1.355 . S
C259 C261 1.415 . S
C260 C259 1.355 . S
C260 C262 1.419 . S
C261 C256 1.425 . S
C261 C258 1.409 . S
C261 C259 1.415 . S
C262 H252 0.930 . S
C262 C260 1.419 . S
C262 C263 1.362 . S
C263 H253 0.930 . S
C263 C256 1.409 . S
C263 C262 1.362 . S
H264 C270 0.930 . S
H265 C273 0.930 . S
H266 C274 0.930 . S
H267 C275 0.930 . S
H268 C278 0.930 . S
H269 C279 0.930 . S
C270 H264 0.930 . S
C270 C271 1.355 . S
C270 C272 1.415 . S
C271 C270 1.355 . S
C271 C273 1.419 . S
C272 C270 1.415 . S
C272 C277 1.425 1_655 S
C272 C279 1.409 1_655 S
C273 H265 0.930 . S
C273 C271 1.419 . S
C273 C274 1.362 . S
C274 H266 0.930 . S
C274 C273 1.362 . S
C274 C277 1.409 1_655 S
C275 H267 0.930 . S
C275 C276 1.355 . S
C275 C277 1.415 . S
C276 C275 1.355 . S
C276 C278 1.419 . S
C277 C272 1.425 1_455 S
C277 C274 1.409 1_455 S
C277 C275 1.415 . S
C278 H268 0.930 . S
C278 C276 1.419 . S
C278 C279 1.362 . S
C279 H269 0.930 . S
C279 C272 1.409 1_455 S
C279 C278 1.362 . S
H280 C286 0.930 . S
H281 C289 0.930 . S
H282 C290 0.930 . S
H283 C291 0.930 . S
H284 C294 0.930 . S
H285 C295 0.930 . S
C286 H280 0.930 . S
C286 C287 1.355 . S
C286 C288 1.415 . S
C287 C286 1.355 . S
C287 C289 1.419 . S
C288 C286 1.415 . S
C288 C293 1.425 1_655 S
C288 C295 1.409 1_655 S
C289 H281 0.930 . S
C289 C287 1.419 . S
C289 C290 1.362 . S
C290 H282 0.930 . S
C290 C289 1.362 . S
C290 C293 1.409 1_655 S
C291 H283 0.930 . S
C291 C292 1.355 . S
C291 C293 1.415 . S
C292 C291 1.355 . S
C292 C294 1.419 . S
C293 C288 1.425 1_455 S
C293 C290 1.409 1_455 S
C293 C291 1.415 . S
C294 H284 0.930 . S
C294 C292 1.419 . S
C294 C295 1.362 . S
C295 H285 0.930 . S
C295 C288 1.409 1_455 S
C295 C294 1.362 . S
H296 C302 0.930 . S
H297 C305 0.930 . S
H298 C306 0.930 . S
H299 C307 0.930 . S
H300 C310 0.930 . S
H301 C311 0.930 . S
C302 H296 0.930 . S
C302 C303 1.355 . S
C302 C304 1.415 . S
C303 C302 1.355 . S
C303 C305 1.419 . S
C304 C302 1.415 . S
C304 C309 1.425 1_556 S
C304 C311 1.409 . S
C305 H297 0.930 . S
C305 C303 1.419 . S
C305 C306 1.362 1_556 S
C306 H298 0.930 . S
C306 C305 1.362 1_554 S
C306 C309 1.409 . S
C307 H299 0.930 . S
C307 C308 1.355 . S
C307 C309 1.415 . S
C308 C307 1.355 . S
C308 C310 1.419 . S
C309 C304 1.425 1_554 S
C309 C306 1.409 . S
C309 C307 1.415 . S
C310 H300 0.930 . S
C310 C308 1.419 . S
C310 C311 1.362 1_554 S
C311 H301 0.930 . S
C311 C304 1.409 . S
C311 C310 1.362 1_556 S
H312 C318 0.930 . S
H313 C321 0.930 . S
H314 C322 0.930 . S
H315 C323 0.930 . S
H316 C326 0.930 . S
H317 C327 0.930 . S
C318 H312 0.930 . S
C318 C319 1.355 . S
C318 C320 1.415 . S
C319 C318 1.355 . S
C319 C321 1.419 . S
C320 C318 1.415 . S
C320 C325 1.425 . S
C320 C327 1.409 . S
C321 H313 0.930 . S
C321 C319 1.419 . S
C321 C322 1.362 . S
C322 H314 0.930 . S
C322 C321 1.362 . S
C322 C325 1.409 . S
C323 H315 0.930 . S
C323 C324 1.355 . S
C323 C325 1.415 . S
C324 C323 1.355 . S
C324 C326 1.419 . S
C325 C320 1.425 . S
C325 C322 1.409 . S
C325 C323 1.415 . S
C326 H316 0.930 . S
C326 C324 1.419 . S
C326 C327 1.362 . S
C327 H317 0.930 . S
C327 C320 1.409 . S
C327 C326 1.362 . S
H328 C334 0.930 . S
H329 C337 0.930 . S
H330 C338 0.930 . S
H331 C339 0.930 . S
H332 C342 0.930 . S
H333 C343 0.930 . S
C334 H328 0.930 . S
C334 C335 1.355 . S
C334 C336 1.415 . S
C335 C334 1.355 . S
C335 C337 1.419 1_554 S
C336 C334 1.415 . S
C336 C341 1.425 1_554 S
C336 C343 1.409 . S
C337 H329 0.930 . S
C337 C335 1.419 1_556 S
C337 C338 1.362 . S
C338 H330 0.930 . S
C338 C337 1.362 . S
C338 C341 1.409 . S
C339 H331 0.930 . S
C339 C340 1.355 . S
C339 C341 1.415 . S
C340 C339 1.355 . S
C340 C342 1.419 1_556 S
C341 C336 1.425 1_556 S
C341 C338 1.409 . S
C341 C339 1.415 . S
C342 H332 0.930 . S
C342 C340 1.419 1_554 S
C342 C343 1.362 . S
C343 H333 0.930 . S
C343 C336 1.409 . S
C343 C342 1.362 . S
H344 C350 0.930 . S
H345 C353 0.930 . S
H346 C354 0.930 . S
H347 C355 0.930 . S
H348 C358 0.930 . S
H349 C359 0.930 . S
C350 H344 0.930 . S
C350 C351 1.355 . S
C350 C352 1.415 . S
C351 C350 1.355 . S
C351 C353 1.419 . S
C352 C350 1.415 . S
C352 C357 1.425 . S
C352 C359 1.409 . S
C353 H345 0.930 . S
C353 C351 1.419 . S
C353 C354 1.362 . S
C354 H346 0.930 . S
C354 C353 1.362 . S
C354 C357 1.409 . S
C355 H347 0.930 . S
C355 C356 1.355 . S
C355 C357 1.415 . S
C356 C355 1.355 . S
C356 C358 1.419 . S
C357 C352 1.425 . S
C357 C354 1.409 . S
C357 C355 1.415 . S
C358 H348 0.930 . S
C358 C356 1.419 . S
C358 C359 1.362 . S
C359 H349 0.930 . S
C359 C352 1.409 . S
C359 C358 1.362 . S
H360 C366 0.930 . S
H361 C369 0.930 . S
H362 C370 0.930 . S
H363 C371 0.930 . S
H364 C374 0.930 . S
H365 C375 0.930 . S
C366 H360 0.930 . S
C366 C367 1.355 . S
C366 C368 1.415 . S
C367 C366 1.355 . S
C367 C369 1.419 . S
C368 C366 1.415 . S
C368 C373 1.425 . S
C368 C375 1.409 . S
C369 H361 0.930 . S
C369 C367 1.419 . S
C369 C370 1.362 . S
C370 H362 0.930 . S
C370 C369 1.362 . S
C370 C373 1.409 . S
C371 H363 0.930 . S
C371 C372 1.355 . S
C371 C373 1.415 . S
C372 C371 1.355 . S
C372 C374 1.419 . S
C373 C368 1.425 . S
C373 C370 1.409 . S
C373 C371 1.415 . S
C374 H364 0.930 . S
C374 C372 1.419 . S
C374 C375 1.362 . S
C375 H365 0.930 . S
C375 C368 1.409 . S
C375 C374 1.362 . S
H376 C382 0.930 . S
H377 C385 0.930 . S
H378 C386 0.930 . S
H379 C387 0.930 . S
H380 C390 0.930 . S
H381 C391 0.930 . S
C382 H376 0.930 . S
C382 C383 1.355 . S
C382 C384 1.415 . S
C383 C382 1.355 . S
C383 C385 1.419 . S
C384 C382 1.415 . S
C384 C389 1.425 . S
C384 C391 1.409 . S
C385 H377 0.930 . S
C385 C383 1.419 . S
C385 C386 1.362 . S
C386 H378 0.930 . S
C386 C385 1.362 . S
C386 C389 1.409 . S
C387 H379 0.930 . S
C387 C388 1.355 . S
C387 C389 1.415 . S
C388 C387 1.355 . S
C388 C390 1.419 . S
C389 C384 1.425 . S
C389 C386 1.409 . S
C389 C387 1.415 . S
C390 H380 0.930 . S
C390 C388 1.419 . S
C390 C391 1.362 . S
C391 H381 0.930 . S
C391 C384 1.409 . S
C391 C390 1.362 . S
H392 C398 0.930 . S
H393 C401 0.930 . S
H394 C402 0.930 . S
H395 C403 0.930 . S
H396 C406 0.930 1_556 S
H397 C407 0.930 . S
C398 H392 0.930 . S
C398 C399 1.355 . S
C398 C400 1.415 . S
C399 C398 1.355 . S
C399 C401 1.419 . S
C400 C398 1.415 . S
C400 C405 1.425 . S
C400 C407 1.409 . S
C401 H393 0.930 . S
C401 C399 1.419 . S
C401 C402 1.362 . S
C402 H394 0.930 . S
C402 C401 1.362 . S
C402 C405 1.409 . S
C403 H395 0.930 . S
C403 C404 1.355 . S
C403 C405 1.415 . S
C404 C403 1.355 . S
C404 C406 1.419 . S
C405 C400 1.425 . S
C405 C402 1.409 . S
C405 C403 1.415 . S
C406 H396 0.930 1_554 S
C406 C404 1.419 . S
C406 C407 1.362 . S
C407 H397 0.930 . S
C407 C400 1.409 . S
C407 C406 1.362 . S
H408 C414 0.930 . S
H409 C417 0.930 . S
H410 C418 0.930 . S
H411 C419 0.930 . S
H412 C422 0.930 . S
H413 C423 0.930 . S
C414 H408 0.930 . S
C414 C415 1.355 . S
C414 C416 1.415 . S
C415 C414 1.355 . S
C415 C417 1.419 . S
C416 C414 1.415 . S
C416 C421 1.425 . S
C416 C423 1.409 . S
C417 H409 0.930 . S
C417 C415 1.419 . S
C417 C418 1.362 . S
C418 H410 0.930 . S
C418 C417 1.362 . S
C418 C421 1.409 . S
C419 H411 0.930 . S
C419 C420 1.355 . S
C419 C421 1.415 . S
C420 C419 1.355 . S
C420 C422 1.419 . S
C421 C416 1.425 . S
C421 C418 1.409 . S
C421 C419 1.415 . S
C422 H412 0.930 . S
C422 C420 1.419 . S
C422 C423 1.362 . S
C423 H413 0.930 . S
C423 C416 1.409 . S
C423 C422 1.362 . S
H424 C430 0.930 . S
H425 C433 0.930 1_554 S
H426 C434 0.966 . S
H427 C435 0.930 . S
H428 C438 0.930 . S
H429 C439 0.930 . S
C430 H424 0.930 . S
C430 C431 1.355 . S
C430 C432 1.415 . S
C431 C430 1.355 . S
C431 C433 1.419 . S
C432 C430 1.415 . S
C432 C437 1.468 . S
C432 C439 1.409 . S
C433 H425 0.930 1_556 S
C433 C431 1.419 . S
C433 C434 1.330 1_565 S
C434 H426 0.966 . S
C434 C433 1.330 1_545 S
C434 C437 1.406 1_545 S
C435 H427 0.930 . S
C435 C436 1.355 . S
C435 C437 1.377 1_545 S
C436 C435 1.355 . S
C436 C438 1.419 1_545 S
C437 C432 1.468 . S
C437 C434 1.406 1_565 S
C437 C435 1.377 1_565 S
C438 H428 0.930 . S
C438 C436 1.419 1_565 S
C438 C439 1.362 . S
C439 H429 0.930 . S
C439 C432 1.409 . S
C439 C438 1.362 . S
H440 C446 0.930 . S
H441 C449 0.933 . S
H442 C450 0.930 . S
H443 C451 0.930 . S
H444 C454 0.930 . S
H445 C455 0.930 1_545 S
C446 H440 0.930 . S
C446 C447 1.355 . S
C446 C448 1.415 1_545 S
C447 C446 1.355 . S
C447 C449 1.440 . S
C448 C446 1.415 1_565 S
C448 C453 1.425 . S
C448 C455 1.409 . S
C449 H441 0.933 . S
C449 C447 1.440 . S
C449 C450 1.339 1_545 S
C450 H442 0.930 . S
C450 C449 1.339 1_565 S
C450 C453 1.409 . S
C451 H443 0.930 . S
C451 C452 1.355 . S
C451 C453 1.415 . S
C452 C451 1.355 . S
C452 C454 1.419 . S
C453 C448 1.425 . S
C453 C450 1.409 . S
C453 C451 1.415 . S
C454 H444 0.930 . S
C454 C452 1.419 . S
C454 C455 1.362 . S
C455 H445 0.930 1_565 S
C455 C448 1.409 . S
C455 C454 1.362 . S
H456 C462 0.930 . S
H457 C465 0.930 . S
H458 C466 0.930 . S
H459 C467 0.930 . S
H460 C470 0.930 . S
H461 C471 0.930 . S
C462 H456 0.930 . S
C462 C463 1.355 . S
C462 C464 1.415 1_565 S
C463 C462 1.355 . S
C463 C465 1.419 . S
C464 C462 1.415 1_545 S
C464 C469 1.425 . S
C464 C471 1.409 . S
C465 H457 0.930 . S
C465 C463 1.419 . S
C465 C466 1.362 1_565 S
C466 H458 0.930 . S
C466 C465 1.362 1_545 S
C466 C469 1.409 . S
C467 H459 0.930 . S
C467 C468 1.355 . S
C467 C469 1.415 . S
C468 C467 1.355 . S
C468 C470 1.419 . S
C469 C464 1.425 . S
C469 C466 1.409 . S
C469 C467 1.415 . S
C470 H460 0.930 . S
C470 C468 1.419 . S
C470 C471 1.362 . S
C471 H461 0.930 . S
C471 C464 1.409 . S
C471 C470 1.362 . S
H472 C478 0.929 . S
H473 C481 0.930 . S
H474 C482 0.930 . S
H475 C483 0.930 . S
H476 C486 0.930 . S
H477 C487 0.930 . S
C478 H472 0.929 . S
C478 C479 1.357 1_545 S
C478 C480 1.413 . S
C479 C478 1.357 1_565 S
C479 C481 1.419 . S
C480 C478 1.413 . S
C480 C485 1.425 . S
C480 C487 1.409 . S
C481 H473 0.930 . S
C481 C479 1.419 . S
C481 C482 1.362 . S
C482 H474 0.930 . S
C482 C481 1.362 . S
C482 C485 1.409 1_565 S
C483 H475 0.930 . S
C483 C484 1.355 . S
C483 C485 1.415 . S
C484 C483 1.355 . S
C484 C486 1.419 . S
C485 C480 1.425 . S
C485 C482 1.409 1_545 S
C485 C483 1.415 . S
C486 H476 0.930 . S
C486 C484 1.419 . S
C486 C487 1.362 . S
C487 H477 0.930 . S
C487 C480 1.409 . S
C487 C486 1.362 . S
H488 C494 0.930 . S
H489 C497 0.930 . S
H490 C498 0.930 1_455 S
H491 C499 0.930 . S
H492 C502 0.930 . S
H493 C503 0.930 1_655 S
C494 H488 0.930 . S
C494 C495 1.355 . S
C494 C496 1.415 1_556 S
C495 C494 1.355 . S
C495 C497 1.419 . S
C496 C494 1.415 1_554 S
C496 C501 1.425 1_654 S
C496 C503 1.409 1_655 S
C497 H489 0.930 . S
C497 C495 1.419 . S
C497 C498 1.362 . S
C498 H490 0.930 1_655 S
C498 C497 1.362 . S
C498 C501 1.409 1_655 S
C499 H491 0.930 . S
C499 C500 1.355 . S
C499 C501 1.415 1_554 S
C500 C499 1.355 . S
C500 C502 1.419 . S
C501 C496 1.425 1_456 S
C501 C498 1.409 1_455 S
C501 C499 1.415 1_556 S
C502 H492 0.930 . S
C502 C500 1.419 . S
C502 C503 1.362 . S
C503 H493 0.930 1_455 S
C503 C496 1.409 1_455 S
C503 C502 1.362 . S
H504 C510 0.930 . S
H505 C513 0.930 . S
H506 C514 0.930 . S
H507 C515 0.930 . S
H508 C518 0.930 . S
H509 C519 0.930 . S
C510 H504 0.930 . S
C510 C511 1.355 . S
C510 C512 1.415 . S
C511 C510 1.355 . S
C511 C513 1.419 1_455 S
C512 C510 1.415 . S
C512 C517 1.425 1_455 S
C512 C519 1.409 . S
C513 H505 0.930 . S
C513 C511 1.419 1_655 S
C513 C514 1.362 . S
C514 H506 0.930 . S
C514 C513 1.362 . S
C514 C517 1.409 . S
C515 H507 0.930 . S
C515 C516 1.355 . S
C515 C517 1.415 . S
C516 C515 1.355 . S
C516 C518 1.419 1_655 S
C517 C512 1.425 1_655 S
C517 C514 1.409 . S
C517 C515 1.415 . S
C518 H508 0.930 . S
C518 C516 1.419 1_455 S
C518 C519 1.362 . S
C519 H509 0.930 . S
C519 C512 1.409 . S
C519 C518 1.362 . S
H520 C526 0.914 1_565 S
H521 C529 0.930 . S
H522 C530 0.930 . S
H523 C531 0.914 1_545 S
H524 C534 0.930 . S
H525 C535 0.930 . S
C526 H520 0.914 1_545 S
C526 C527 1.380 . S
C526 C528 1.406 1_545 S
C527 C526 1.380 . S
C527 C529 1.419 . S
C528 C526 1.406 1_565 S
C528 C533 1.425 1_566 S
C528 C535 1.409 1_556 S
C529 H521 0.930 . S
C529 C527 1.419 . S
C529 C530 1.362 . S
C530 H522 0.930 . S
C530 C529 1.362 . S
C530 C533 1.409 1_556 S
C531 H523 0.914 1_565 S
C531 C532 1.380 . S
C531 C533 1.406 1_565 S
C532 C531 1.380 . S
C532 C534 1.419 . S
C533 C528 1.425 1_544 S
C533 C530 1.409 1_554 S
C533 C531 1.406 1_545 S
C534 H524 0.930 . S
C534 C532 1.419 . S
C534 C535 1.362 . S
C535 H525 0.930 . S
C535 C528 1.409 1_554 S
C535 C534 1.362 . S
H536 C542 0.930 . S
H537 C545 0.930 . S
H538 C546 0.930 . S
H539 C547 0.930 . S
H540 C550 0.930 . S
H541 C551 0.930 . S
C542 H536 0.930 . S
C542 C543 1.355 . S
C542 C544 1.407 1_565 S
C543 C542 1.355 . S
C543 C545 1.419 . S
C544 C542 1.407 1_545 S
C544 C549 1.424 1_545 S
C544 C551 1.418 . S
C545 H537 0.930 . S
C545 C543 1.419 . S
C545 C546 1.362 . S
C546 H538 0.930 . S
C546 C545 1.362 . S
C546 C549 1.418 . S
C547 H539 0.930 . S
C547 C548 1.355 . S
C547 C549 1.407 1_545 S
C548 C547 1.355 . S
C548 C550 1.419 . S
C549 C544 1.424 1_565 S
C549 C546 1.418 . S
C549 C547 1.407 1_565 S
C550 H540 0.930 . S
C550 C548 1.419 . S
C550 C551 1.362 . S
C551 H541 0.930 . S
C551 C544 1.418 . S
C551 C550 1.362 . S
H552 C558 0.930 . S
H553 C561 0.930 . S
H554 C562 0.930 . S
H555 C563 0.930 . S
H556 C566 0.930 . S
H557 C567 0.930 . S
C558 H552 0.930 . S
C558 C559 1.355 . S
C558 C560 1.415 1_655 S
C559 C558 1.355 . S
C559 C561 1.419 . S
C560 C558 1.415 1_455 S
C560 C565 1.425 1_455 S
C560 C567 1.409 . S
C561 H553 0.930 . S
C561 C559 1.419 . S
C561 C562 1.362 . S
C562 H554 0.930 . S
C562 C561 1.362 . S
C562 C565 1.409 . S
C563 H555 0.930 . S
C563 C564 1.355 . S
C563 C565 1.415 1_455 S
C564 C563 1.355 . S
C564 C566 1.419 . S
C565 C560 1.425 1_655 S
C565 C562 1.409 . S
C565 C563 1.415 1_655 S
C566 H556 0.930 . S
C566 C564 1.419 . S
C566 C567 1.362 . S
C567 H557 0.930 . S
C567 C560 1.409 . S
C567 C566 1.362 . S
H568 C574 0.930 . S
H569 C577 0.930 1_655 S
H570 C578 0.930 . S
H571 C579 0.930 . S
H572 C582 0.930 1_455 S
H573 C583 0.930 . S
C574 H568 0.930 . S
C574 C575 1.355 . S
C574 C576 1.415 . S
C575 C574 1.355 . S
C575 C577 1.419 . S
C576 C574 1.415 . S
C576 C581 1.425 1_455 S
C576 C583 1.409 . S
C577 H569 0.930 1_455 S
C577 C575 1.419 . S
C577 C578 1.362 1_455 S
C578 H570 0.930 . S
C578 C577 1.362 1_655 S
C578 C581 1.409 . S
C579 H571 0.930 . S
C579 C580 1.355 . S
C579 C581 1.415 . S
C580 C579 1.355 . S
C580 C582 1.419 . S
C581 C576 1.425 1_655 S
C581 C578 1.409 . S
C581 C579 1.415 . S
C582 H572 0.930 1_655 S
C582 C580 1.419 . S
C582 C583 1.362 1_655 S
C583 H573 0.930 . S
C583 C576 1.409 . S
C583 C582 1.362 1_455 S
H584 C590 0.930 . S
H585 C593 0.930 . S
H586 C594 0.930 . S
H587 C595 0.930 . S
H588 C598 0.930 . S
H589 C599 0.930 . S
C590 H584 0.930 . S
C590 C591 1.355 . S
C590 C592 1.415 . S
C591 C590 1.355 . S
C591 C593 1.419 . S
C592 C590 1.415 . S
C592 C597 1.425 . S
C592 C599 1.409 . S
C593 H585 0.930 . S
C593 C591 1.419 . S
C593 C594 1.362 . S
C594 H586 0.930 . S
C594 C593 1.362 . S
C594 C597 1.409 . S
C595 H587 0.930 . S
C595 C596 1.355 . S
C595 C597 1.415 . S
C596 C595 1.355 . S
C596 C598 1.419 . S
C597 C592 1.425 . S
C597 C594 1.409 . S
C597 C595 1.415 . S
C598 H588 0.930 . S
C598 C596 1.419 . S
C598 C599 1.362 . S
C599 H589 0.930 . S
C599 C592 1.409 . S
C599 C598 1.362 . S
H600 C606 0.930 . S
H601 C609 0.930 . S
H602 C610 0.930 . S
H603 C611 0.930 . S
H604 C614 0.930 . S
H605 C615 0.930 . S
C606 H600 0.930 . S
C606 C607 1.355 . S
C606 C608 1.415 . S
C607 C606 1.355 . S
C607 C609 1.419 . S
C608 C606 1.415 . S
C608 C613 1.425 . S
C608 C615 1.409 . S
C609 H601 0.930 . S
C609 C607 1.419 . S
C609 C610 1.362 . S
C610 H602 0.930 . S
C610 C609 1.362 . S
C610 C613 1.409 . S
C611 H603 0.930 . S
C611 C612 1.355 . S
C611 C613 1.415 . S
C612 C611 1.355 . S
C612 C614 1.419 . S
C613 C608 1.425 . S
C613 C610 1.409 . S
C613 C611 1.415 . S
C614 H604 0.930 . S
C614 C612 1.419 . S
C614 C615 1.362 . S
C615 H605 0.930 . S
C615 C608 1.409 . S
C615 C614 1.362 . S
H616 C622 0.930 . S
H617 C625 0.930 . S
H618 C626 0.930 . S
H619 C627 0.930 . S
H620 C630 0.930 . S
H621 C631 0.930 . S
C622 H616 0.930 . S
C622 C623 1.355 . S
C622 C624 1.415 . S
C623 C622 1.355 . S
C623 C625 1.419 . S
C624 C622 1.415 . S
C624 C629 1.425 1_455 S
C624 C631 1.409 . S
C625 H617 0.930 . S
C625 C623 1.419 . S
C625 C626 1.362 1_455 S
C626 H618 0.930 . S
C626 C625 1.362 1_655 S
C626 C629 1.409 . S
C627 H619 0.930 . S
C627 C628 1.355 . S
C627 C629 1.415 . S
C628 C627 1.355 . S
C628 C630 1.419 . S
C629 C624 1.425 1_655 S
C629 C626 1.409 . S
C629 C627 1.415 . S
C630 H620 0.930 . S
C630 C628 1.419 . S
C630 C631 1.362 1_655 S
C631 H621 0.930 . S
C631 C624 1.409 . S
C631 C630 1.362 1_455 S
H632 C638 0.930 . S
H633 C641 0.930 . S
H634 C642 0.930 . S
H635 C643 0.930 . S
H636 C646 0.930 . S
H637 C647 0.930 . S
C638 H632 0.930 . S
C638 C639 1.355 . S
C638 C640 1.415 . S
C639 C638 1.355 . S
C639 C641 1.419 . S
C640 C638 1.415 . S
C640 C645 1.425 1_455 S
C640 C647 1.409 1_455 S
C641 H633 0.930 . S
C641 C639 1.419 . S
C641 C642 1.362 . S
C642 H634 0.930 . S
C642 C641 1.362 . S
C642 C645 1.409 1_455 S
C643 H635 0.930 . S
C643 C644 1.355 . S
C643 C645 1.415 . S
C644 C643 1.355 . S
C644 C646 1.419 . S
C645 C640 1.425 1_655 S
C645 C642 1.409 1_655 S
C645 C643 1.415 . S
C646 H636 0.930 . S
C646 C644 1.419 . S
C646 C647 1.362 . S
C647 H637 0.930 . S
C647 C640 1.409 1_655 S
C647 C646 1.362 . S
H648 C654 0.930 . S
H649 C657 0.930 . S
H650 C658 0.930 . S
H651 C659 0.930 . S
H652 C662 0.930 . S
H653 C663 0.930 . S
C654 H648 0.930 . S
C654 C655 1.355 . S
C654 C656 1.415 . S
C655 C654 1.355 . S
C655 C657 1.419 . S
C656 C654 1.415 . S
C656 C661 1.425 . S
C656 C663 1.409 . S
C657 H649 0.930 . S
C657 C655 1.419 . S
C657 C658 1.362 . S
C658 H650 0.930 . S
C658 C657 1.362 . S
C658 C661 1.409 . S
C659 H651 0.930 . S
C659 C660 1.355 . S
C659 C661 1.415 . S
C660 C659 1.355 . S
C660 C662 1.419 . S
C661 C656 1.425 . S
C661 C658 1.409 . S
C661 C659 1.415 . S
C662 H652 0.930 . S
C662 C660 1.419 . S
C662 C663 1.362 . S
C663 H653 0.930 . S
C663 C656 1.409 . S
C663 C662 1.362 . S
H664 C670 0.930 . S
H665 C673 0.930 . S
H666 C674 0.930 . S
H667 C675 0.930 . S
H668 C678 0.930 . S
H669 C679 0.930 . S
C670 H664 0.930 . S
C670 C671 1.355 . S
C670 C672 1.415 . S
C671 C670 1.355 . S
C671 C673 1.419 . S
C672 C670 1.415 . S
C672 C677 1.425 . S
C672 C679 1.409 . S
C673 H665 0.930 . S
C673 C671 1.419 . S
C673 C674 1.362 . S
C674 H666 0.930 . S
C674 C673 1.362 . S
C674 C677 1.409 . S
C675 H667 0.930 . S
C675 C676 1.355 . S
C675 C677 1.415 . S
C676 C675 1.355 . S
C676 C678 1.419 . S
C677 C672 1.425 . S
C677 C674 1.409 . S
C677 C675 1.415 . S
C678 H668 0.930 . S
C678 C676 1.419 . S
C678 C679 1.362 . S
C679 H669 0.930 . S
C679 C672 1.409 . S
C679 C678 1.362 . S
C239 C42 3.036 . S
C244 C13 3.023 . S
C255 C100 3.031 . S
C260 C71 3.023 . S
C271 C129 3.036 . S
C276 C158 3.023 . S
C287 C216 3.031 . S
C292 C187 3.023 . S
C303 C189 2.836 . S
C308 C15 2.836 . S
C319 C44 2.832 . S
C324 C218 2.832 . S
C335 C131 2.805 . S
C340 C73 2.805 . S
C351 C102 2.792 . S
C356 C160 2.792 . S
C367 C90 2.004 . S
C372 C10 1.922 1_556 S
C383 C61 1.988 . S
C388 C39 1.868 . S
C399 C32 1.977 . S
C404 C68 1.891 1_554 S
C415 C97 1.919 . S
C420 C3 1.991 . S
C431 C126 1.866 1_556 S
C436 C206 1.971 . S
C447 C177 1.991 . S
C452 C155 1.873 . S
C463 C148 1.988 . S
C468 C184 1.869 1_554 S
C479 C119 2.000 . S
C484 C213 1.895 . S
C495 C79 0.761 . S
C500 C21 0.761 . S
C511 C108 0.788 . S
C516 C50 0.788 . S
C527 C195 0.725 . S
C532 C137 0.725 . S
C543 C166 0.790 . S
C548 C224 0.790 . S
C559 C37 1.037 . S
C564 C8 0.954 . S
C575 C95 0.959 . S
C580 C66 0.906 . S
C591 C124 1.036 . S
C596 C153 1.019 . S
C607 C182 0.908 . S
C612 C211 0.985 . S
C623 C5 2.244 . S
C628 C34 2.245 . S
C639 C92 2.258 . S
C644 C63 2.255 . S
C655 C150 2.262 . S
C660 C121 2.264 . S
C671 C179 2.243 . S
C676 C208 2.244 . S
