# Generated by pormake.
# Topology yfd, (5)-cn, num edge types: 1
# Building blocks:
#     Node 0, Type 0, BuildingBlock: BEQFEK_clean_sbu_0, # of connection points: 5
#     Node 1, Type 0, BuildingBlock: BEQFEK_clean_sbu_0, # of connection points: 5
#     Node 2, Type 0, BuildingBlock: BEQFEK_clean_sbu_0, # of connection points: 5
#     Node 3, Type 0, BuildingBlock: BEQFEK_clean_sbu_0, # of connection points: 5
#     Node 4, Type 0, BuildingBlock: BEQFEK_clean_sbu_0, # of connection points: 5
#     Node 5, Type 0, BuildingBlock: BEQFEK_clean_sbu_0, # of connection points: 5
#     Node 6, Type 0, BuildingBlock: BEQFEK_clean_sbu_0, # of connection points: 5
#     Node 7, Type 0, BuildingBlock: BEQFEK_clean_sbu_0, # of connection points: 5
#     Node 8, Type 0, BuildingBlock: BEQFEK_clean_sbu_0, # of connection points: 5
#     Node 9, Type 0, BuildingBlock: BEQFEK_clean_sbu_0, # of connection points: 5
#     Node 10, Type 0, BuildingBlock: BEQFEK_clean_sbu_0, # of connection points: 5
#     Node 11, Type 0, BuildingBlock: BEQFEK_clean_sbu_0, # of connection points: 5
#     Node 12, Type 0, BuildingBlock: BEQFEK_clean_sbu_0, # of connection points: 5
#     Node 13, Type 0, BuildingBlock: BEQFEK_clean_sbu_0, # of connection points: 5
#     Node 14, Type 0, BuildingBlock: BEQFEK_clean_sbu_0, # of connection points: 5
#     Node 15, Type 0, BuildingBlock: BEQFEK_clean_sbu_0, # of connection points: 5
#     Edge 16, Type (0, 0), BuildingBlock: ZUJKAS_clean_linker_0, # of connection points: 2
#     Edge 17, Type (0, 0), BuildingBlock: ZUJKAS_clean_linker_0, # of connection points: 2
#     Edge 18, Type (0, 0), BuildingBlock: ZUJKAS_clean_linker_0, # of connection points: 2
#     Edge 19, Type (0, 0), BuildingBlock: ZUJKAS_clean_linker_0, # of connection points: 2
#     Edge 20, Type (0, 0), BuildingBlock: ZUJKAS_clean_linker_0, # of connection points: 2
#     Edge 21, Type (0, 0), BuildingBlock: ZUJKAS_clean_linker_0, # of connection points: 2
#     Edge 22, Type (0, 0), BuildingBlock: ZUJKAS_clean_linker_0, # of connection points: 2
#     Edge 23, Type (0, 0), BuildingBlock: ZUJKAS_clean_linker_0, # of connection points: 2
#     Edge 24, Type (0, 0), BuildingBlock: ZUJKAS_clean_linker_0, # of connection points: 2
#     Edge 25, Type (0, 0), BuildingBlock: ZUJKAS_clean_linker_0, # of connection points: 2
#     Edge 26, Type (0, 0), BuildingBlock: ZUJKAS_clean_linker_0, # of connection points: 2
#     Edge 27, Type (0, 0), BuildingBlock: ZUJKAS_clean_linker_0, # of connection points: 2
#     Edge 28, Type (0, 0), BuildingBlock: ZUJKAS_clean_linker_0, # of connection points: 2
#     Edge 29, Type (0, 0), BuildingBlock: ZUJKAS_clean_linker_0, # of connection points: 2
#     Edge 30, Type (0, 0), BuildingBlock: ZUJKAS_clean_linker_0, # of connection points: 2
#     Edge 31, Type (0, 0), BuildingBlock: ZUJKAS_clean_linker_0, # of connection points: 2
#     Edge 32, Type (0, 0), BuildingBlock: ZUJKAS_clean_linker_0, # of connection points: 2
#     Edge 33, Type (0, 0), BuildingBlock: ZUJKAS_clean_linker_0, # of connection points: 2
#     Edge 34, Type (0, 0), BuildingBlock: ZUJKAS_clean_linker_0, # of connection points: 2
#     Edge 35, Type (0, 0), BuildingBlock: ZUJKAS_clean_linker_0, # of connection points: 2
#     Edge 36, Type (0, 0), BuildingBlock: ZUJKAS_clean_linker_0, # of connection points: 2
#     Edge 37, Type (0, 0), BuildingBlock: ZUJKAS_clean_linker_0, # of connection points: 2
#     Edge 38, Type (0, 0), BuildingBlock: ZUJKAS_clean_linker_0, # of connection points: 2
#     Edge 39, Type (0, 0), BuildingBlock: ZUJKAS_clean_linker_0, # of connection points: 2
#     Edge 40, Type (0, 0), BuildingBlock: ZUJKAS_clean_linker_0, # of connection points: 2
#     Edge 41, Type (0, 0), BuildingBlock: ZUJKAS_clean_linker_0, # of connection points: 2
#     Edge 42, Type (0, 0), BuildingBlock: ZUJKAS_clean_linker_0, # of connection points: 2
#     Edge 43, Type (0, 0), BuildingBlock: ZUJKAS_clean_linker_0, # of connection points: 2
#     Edge 44, Type (0, 0), BuildingBlock: ZUJKAS_clean_linker_0, # of connection points: 2
#     Edge 45, Type (0, 0), BuildingBlock: ZUJKAS_clean_linker_0, # of connection points: 2
#     Edge 46, Type (0, 0), BuildingBlock: ZUJKAS_clean_linker_0, # of connection points: 2
#     Edge 47, Type (0, 0), BuildingBlock: ZUJKAS_clean_linker_0, # of connection points: 2
#     Edge 48, Type (0, 0), BuildingBlock: ZUJKAS_clean_linker_0, # of connection points: 2
#     Edge 49, Type (0, 0), BuildingBlock: ZUJKAS_clean_linker_0, # of connection points: 2
#     Edge 50, Type (0, 0), BuildingBlock: ZUJKAS_clean_linker_0, # of connection points: 2
#     Edge 51, Type (0, 0), BuildingBlock: ZUJKAS_clean_linker_0, # of connection points: 2
#     Edge 52, Type (0, 0), BuildingBlock: ZUJKAS_clean_linker_0, # of connection points: 2
#     Edge 53, Type (0, 0), BuildingBlock: ZUJKAS_clean_linker_0, # of connection points: 2
#     Edge 54, Type (0, 0), BuildingBlock: ZUJKAS_clean_linker_0, # of connection points: 2
#     Edge 55, Type (0, 0), BuildingBlock: ZUJKAS_clean_linker_0, # of connection points: 2
# Relax obj value: 0.550
# Max RMSD: 0.252
# Mean RMSD: 0.252
data_MOF--net-yfd--node1-BEQFEK_clean_sbu_0--edge1-ZUJKAS_clean_linker_0
_symmetry_space_group_name_H-M    P1
_symmetry_Int_Tables_number       1
_symmetry_cell_setting            triclinic
loop_
_symmetry_equiv_pos_as_xyz
'x, y, z'
_cell_length_a     82.923067
_cell_length_b     82.66227
_cell_length_c     33.154502
_cell_angle_alpha  90.118742
_cell_angle_beta   89.787001
_cell_angle_gamma 90.019478
loop_
_atom_site_label
_atom_site_type_symbol
_atom_site_fract_x
_atom_site_fract_y
_atom_site_fract_z
_atom_type_partial_charge
Co0 Co 0.51822 0.09957 0.15685 0.0
Co1 Co 0.52282 0.13687 0.16851 0.0
C2 C 0.49131 0.12016 0.18735 0.0
O3 O 0.49755 0.10675 0.17774 0.0
O4 O 0.49933 0.13331 0.18511 0.0
C5 C 0.50136 0.07338 0.12438 0.0
O6 O 0.49004 0.08447 0.12274 0.0
C7 C 0.51875 0.16941 0.13609 0.0
C8 C 0.53719 0.18367 0.16826 0.0
C9 C 0.52576 0.18469 0.13789 0.0
N10 N 0.52596 0.15979 0.16331 0.0
N11 N 0.53684 0.16845 0.18283 0.0
C12 C 0.5052 0.16398 0.10958 0.0
H13 H 0.49824 0.1542 0.12448 0.0
H14 H 0.5101 0.15905 0.08096 0.0
H15 H 0.49708 0.17425 0.10244 0.0
C16 C 0.53138 0.1066 0.07682 0.0
N17 N 0.52526 0.11171 0.1123 0.0
N18 N 0.52865 0.12712 0.11747 0.0
C19 C 0.53773 0.1321 0.08572 0.0
C20 C 0.53938 0.11934 0.05859 0.0
C21 C 0.53184 0.08924 0.06375 0.0
H22 H 0.53728 0.08179 0.08791 0.0
H23 H 0.51936 0.08494 0.05853 0.0
H24 H 0.53892 0.08747 0.03565 0.0
O25 O 0.53445 0.10106 0.19994 0.0
O26 O 0.53737 0.1275 0.21143 0.0
H27 H 0.55032 0.15173 0.11433 0.0
H28 H 0.55729 0.14707 0.06388 0.0
C29 C 0.54652 0.14791 0.08374 0.0
H30 H 0.53847 0.15728 0.07105 0.0
H31 H 0.54439 0.16383 0.20514 0.0
O32 O 0.51493 0.07698 0.13975 0.0
C33 C 0.54088 0.11275 0.21929 0.0
Co34 Co 0.41008 0.52389 0.66965 0.0
Co35 Co 0.37256 0.52776 0.67246 0.0
C36 C 0.38943 0.49579 0.68884 0.0
O37 O 0.4031 0.50204 0.68182 0.0
O38 O 0.37649 0.50413 0.68752 0.0
C39 C 0.44243 0.51147 0.66879 0.0
O40 O 0.43654 0.49959 0.69058 0.0
C41 C 0.34037 0.52221 0.63799 0.0
C42 C 0.32641 0.54262 0.6632 0.0
C43 C 0.3253 0.52966 0.63667 0.0
N44 N 0.34991 0.53063 0.66327 0.0
N45 N 0.34141 0.5427 0.67859 0.0
C46 C 0.34568 0.50718 0.61645 0.0
H47 H 0.35534 0.50102 0.63346 0.0
H48 H 0.35063 0.51039 0.58641 0.0
H49 H 0.33539 0.49876 0.61233 0.0
C50 C 0.40583 0.53724 0.58867 0.0
N51 N 0.39963 0.53165 0.62349 0.0
N52 N 0.38397 0.53413 0.62429 0.0
C53 C 0.3798 0.54201 0.59007 0.0
C54 C 0.3935 0.54397 0.56622 0.0
C55 C 0.4235 0.5376 0.57912 0.0
H56 H 0.42981 0.54492 0.60229 0.0
H57 H 0.42838 0.52512 0.58021 0.0
H58 H 0.42603 0.54288 0.54905 0.0
O59 O 0.40613 0.53832 0.71568 0.0
O60 O 0.37962 0.54234 0.71801 0.0
H61 H 0.3581 0.55393 0.60906 0.0
H62 H 0.36368 0.55768 0.55706 0.0
C63 C 0.36334 0.54849 0.58139 0.0
H64 H 0.35543 0.53846 0.57145 0.0
H65 H 0.34601 0.55128 0.69864 0.0
O66 O 0.43335 0.52316 0.65886 0.0
C67 C 0.39379 0.54495 0.73158 0.0
Co68 Co 0.98352 0.41633 0.14341 0.0
Co69 Co 0.98094 0.37834 0.15391 0.0
C70 C 0.01194 0.39681 0.16927 0.0
O71 O 0.00524 0.41003 0.15964 0.0
O72 O 0.0042 0.38344 0.16916 0.0
C73 C 0.99707 0.44569 0.11464 0.0
O74 O 0.00974 0.4363 0.11037 0.0
C75 C 0.98672 0.34508 0.12343 0.0
C76 C 0.9668 0.3315 0.15179 0.0
C77 C 0.97933 0.32988 0.12418 0.0
N78 N 0.97861 0.35514 0.14841 0.0
N79 N 0.96688 0.34682 0.1657 0.0
C80 C 1.00136 0.35011 0.10005 0.0
H81 H 0.00753 0.36028 0.1154 0.0
H82 H 0.99775 0.35432 0.06968 0.0
H83 H 0.00983 0.3398 0.09658 0.0
C84 C 0.9703 0.40864 0.06388 0.0
N85 N 0.97652 0.40388 0.09935 0.0
N86 N 0.97447 0.38818 0.10372 0.0
C87 C 0.96629 0.38257 0.07127 0.0
C88 C 0.96368 0.39531 0.04478 0.0
C89 C 0.96879 0.42596 0.05123 0.0
H90 H 0.96255 0.43292 0.07527 0.0
H91 H 0.98101 0.43116 0.04711 0.0
H92 H 0.96196 0.42729 0.02274 0.0
O93 O 0.96843 0.41329 0.18892 0.0
O94 O 0.96621 0.3867 0.19807 0.0
H95 H 0.9547 0.36168 0.09643 0.0
H96 H 0.95024 0.36505 0.04381 0.0
C97 C 0.95974 0.36577 0.06719 0.0
H98 H 0.96958 0.35747 0.05812 0.0
H99 H 0.95852 0.35177 0.18584 0.0
O100 O 0.98413 0.43971 0.12888 0.0
C101 C 0.96249 0.40123 0.20776 0.0
Co102 Co 0.09609 0.98309 0.66859 0.0
Co103 Co 0.13372 0.97925 0.67024 0.0
C104 C 0.11733 0.0108 0.6914 0.0
O105 O 0.10378 0.00409 0.68642 0.0
O106 O 0.1305 1.0031 0.68554 0.0
C107 C 0.06644 0.99906 0.65197 0.0
O108 O 0.07507 0.01219 0.65745 0.0
C109 C 0.1663 0.98327 0.63495 0.0
C110 C 0.17919 0.96223 0.65994 0.0
C111 C 0.18095 0.97501 0.63323 0.0
N112 N 0.15641 0.97558 0.66101 0.0
N113 N 0.16432 0.96317 0.67631 0.0
C114 C 0.16105 0.99715 0.60927 0.0
H115 H 0.14769 0.99807 0.60892 0.0
H116 H 0.16571 0.99574 0.57804 0.0
H117 H 0.16599 0.00854 0.62197 0.0
C118 C 0.10026 0.97079 0.58633 0.0
N119 N 0.10656 0.9762 0.6212 0.0
N120 N 0.12218 0.97339 0.6217 0.0
C121 C 0.12616 0.9655 0.58716 0.0
C122 C 0.11243 0.96387 0.56347 0.0
C123 C 0.08258 0.97058 0.57717 0.0
H124 H 0.07612 0.96372 0.601 0.0
H125 H 0.07793 0.98316 0.57723 0.0
H126 H 0.07996 0.96494 0.54753 0.0
O127 O 0.09933 0.96707 0.71113 0.0
O128 O 0.12598 0.96462 0.71594 0.0
H129 H 0.14762 0.95314 0.60577 0.0
H130 H 0.14173 0.94914 0.55418 0.0
C131 C 0.14242 0.95851 0.57812 0.0
H132 H 0.15052 0.96826 0.5674 0.0
H133 H 0.15933 0.9549 0.69658 0.0
O134 O 0.07287 0.98529 0.65746 0.0
C135 C 0.11171 0.96084 0.72755 0.0
Co136 Co 0.52267 0.4073 0.85445 0.0
Co137 Co 0.52475 0.36982 0.84139 0.0
C138 C 0.4937 0.38855 0.8302 0.0
O139 O 0.50078 0.40146 0.84059 0.0
O140 O 0.5013 0.37514 0.82794 0.0
C141 C 0.511 0.43963 0.85852 0.0
O142 O 0.50112 0.43462 0.83022 0.0
C143 C 0.51907 0.33739 0.87356 0.0
C144 C 0.5364 0.32235 0.83949 0.0
C145 C 0.52528 0.32179 0.87084 0.0
N146 N 0.52646 0.34673 0.84589 0.0
N147 N 0.53666 0.33761 0.82524 0.0
C148 C 0.50608 0.34338 0.9013 0.0
H149 H 0.49942 0.35349 0.88709 0.0
H150 H 0.51151 0.34803 0.92953 0.0
H151 H 0.49759 0.33347 0.90906 0.0
C152 C 0.53606 0.39917 0.93291 0.0
N153 N 0.52981 0.39464 0.89732 0.0
N154 N 0.53207 0.37905 0.89169 0.0
C155 C 0.54072 0.37332 0.9232 0.0
C156 C 0.54314 0.38583 0.95063 0.0
C157 C 0.53699 0.41636 0.94708 0.0
H158 H 0.54443 0.42344 0.92554 0.0
H159 H 0.52471 0.42167 0.94763 0.0
H160 H 0.54239 0.41738 0.97754 0.0
O161 O 0.53736 0.40467 0.8079 0.0
O162 O 0.53913 0.37813 0.79694 0.0
H163 H 0.55129 0.35254 0.8943 0.0
H164 H 0.55931 0.35702 0.9437 0.0
C165 C 0.54823 0.35687 0.92504 0.0
H166 H 0.53967 0.34828 0.93916 0.0
H167 H 0.5442 0.34192 0.8024 0.0
O168 O 0.52186 0.43015 0.87137 0.0
C169 C 0.54299 0.39269 0.78806 0.0
Co170 Co 0.10214 0.52684 0.35833 0.0
Co171 Co 0.1396 0.52801 0.3488 0.0
C172 C 0.12085 0.49716 0.33674 0.0
O173 O 0.10796 0.50473 0.34476 0.0
O174 O 0.13449 0.50434 0.33663 0.0
C175 C 0.07356 0.51426 0.3903 0.0
O176 O 0.0833 0.50221 0.39877 0.0
C177 C 0.17253 0.5229 0.37836 0.0
C178 C 0.18594 0.54227 0.34704 0.0
C179 C 0.1876 0.53023 0.37581 0.0
N180 N 0.16249 0.53041 0.3527 0.0
N181 N 0.17066 0.54178 0.33355 0.0
C182 C 0.16715 0.51028 0.40778 0.0
H183 H 0.15381 0.51021 0.4105 0.0
H184 H 0.17266 0.51244 0.43777 0.0
H185 H 0.17113 0.49823 0.39683 0.0
C186 C 0.10912 0.54215 0.43576 0.0
N187 N 0.11411 0.53468 0.40187 0.0
N188 N 0.12985 0.53616 0.39807 0.0
C189 C 0.13528 0.54517 0.42944 0.0
C190 C 0.12234 0.54896 0.4546 0.0
C191 C 0.09175 0.54468 0.44675 0.0
H192 H 0.08524 0.54987 0.42064 0.0
H193 H 0.08622 0.53285 0.45425 0.0
H194 H 0.09027 0.55293 0.47292 0.0
O195 O 0.10535 0.54087 0.3114 0.0
O196 O 0.13192 0.54151 0.30231 0.0
H197 H 0.15666 0.55559 0.40377 0.0
H198 H 0.15282 0.56146 0.45556 0.0
C199 C 0.15214 0.55139 0.43346 0.0
H200 H 0.16004 0.54149 0.44414 0.0
H201 H 0.16561 0.54973 0.31268 0.0
O202 O 0.0791 0.52656 0.3721 0.0
C203 C 0.1177 0.54568 0.29191 0.0
Co204 Co 0.98221 0.10208 0.842 0.0
Co205 Co 0.97945 0.13985 0.83636 0.0
C206 C 0.01073 0.12234 0.81951 0.0
O207 O 0.00362 0.10908 0.82626 0.0
O208 O 0.00326 0.13583 0.82208 0.0
C209 C 0.99707 0.07451 0.87242 0.0
O210 O 0.0082 0.08533 0.88056 0.0
C211 C 0.98381 0.17299 0.86896 0.0
C212 C 0.96311 0.18582 0.84233 0.0
C213 C 0.97571 0.18778 0.86935 0.0
N214 N 0.97619 0.16284 0.84342 0.0
N215 N 0.96399 0.17072 0.82712 0.0
C216 C 0.99745 0.1679 0.89547 0.0
H217 H 0.9982 0.15451 0.89696 0.0
H218 H 0.99595 0.173 0.92625 0.0
H219 H 0.00892 0.17257 0.88267 0.0
C220 C 0.96848 0.10759 0.92221 0.0
N221 N 0.9747 0.11329 0.8875 0.0
N222 N 0.9727 0.12907 0.88572 0.0
C223 C 0.96467 0.1338 0.91952 0.0
C224 C 0.96206 0.12035 0.9439 0.0
C225 C 0.96696 0.08998 0.93225 0.0
H226 H 0.96212 0.0833 0.90592 0.0
H227 H 0.97905 0.08508 0.93949 0.0
H228 H 0.95887 0.08789 0.95843 0.0
O229 O 0.96716 0.10507 0.79742 0.0
O230 O 0.96525 0.13177 0.7903 0.0
H231 H 0.95349 0.15569 0.89924 0.0
H232 H 0.94913 0.15059 0.95119 0.0
C233 C 0.95853 0.15053 0.9273 0.0
H234 H 0.96863 0.15827 0.93752 0.0
H235 H 0.95581 0.16556 0.80703 0.0
O236 O 0.98429 0.07894 0.85457 0.0
C237 C 0.96143 0.11739 0.77946 0.0
Co238 Co 0.40463 0.98053 0.35471 0.0
Co239 Co 0.36734 0.9791 0.34051 0.0
C240 C 0.38672 0.01034 0.33349 0.0
O241 O 0.39946 1.00295 0.34361 0.0
O242 O 0.37327 1.00287 0.33012 0.0
C243 C 0.43743 0.99073 0.3641 0.0
O244 O 0.43329 1.00282 0.34065 0.0
C245 C 0.33431 0.98445 0.37093 0.0
C246 C 0.32041 0.96628 0.33679 0.0
C247 C 0.31901 0.97756 0.36768 0.0
N248 N 0.34418 0.97737 0.34373 0.0
N249 N 0.33569 0.96673 0.32295 0.0
C250 C 0.34003 0.99619 0.40218 0.0
H251 H 0.35339 0.99608 0.40408 0.0
H252 H 0.3347 0.99328 0.43206 0.0
H253 H 0.33612 0.00855 0.39366 0.0
C254 C 0.39595 0.96568 0.43135 0.0
N255 N 0.39169 0.97257 0.39629 0.0
N256 N 0.37614 0.97064 0.39028 0.0
C257 C 0.37015 0.96167 0.42112 0.0
C258 C 0.38249 0.95856 0.44836 0.0
C259 C 0.41298 0.96439 0.4459 0.0
H260 H 0.42003 0.95688 0.42438 0.0
H261 H 0.41849 0.97662 0.44695 0.0
H262 H 0.41372 0.95882 0.47624 0.0
O263 O 0.40209 0.96715 0.30615 0.0
O264 O 0.37578 0.96552 0.29405 0.0
H265 H 0.3492 0.95176 0.39229 0.0
H266 H 0.35293 0.94401 0.44242 0.0
C267 C 0.35343 0.95491 0.42298 0.0
H268 H 0.34521 0.9641 0.43611 0.0
H269 H 0.34053 0.95918 0.30071 0.0
O270 O 0.42724 0.97971 0.37186 0.0
C271 C 0.39037 0.96196 0.28502 0.0
Co272 Co 0.48081 0.90661 0.84145 0.0
Co273 Co 0.47816 0.8689 0.83418 0.0
C274 C 0.50943 0.88663 0.81863 0.0
O275 O 0.50238 0.89987 0.8262 0.0
O276 O 0.50185 0.87318 0.81993 0.0
C277 C 0.49518 0.93575 0.86753 0.0
O278 O 0.508 0.92647 0.86946 0.0
C279 C 0.48288 0.8362 0.86691 0.0
C280 C 0.46294 0.82262 0.83879 0.0
C281 C 0.47522 0.8212 0.86689 0.0
N282 N 0.47533 0.84596 0.84054 0.0
N283 N 0.46361 0.83766 0.8233 0.0
C284 C 0.49591 0.84187 0.89467 0.0
H285 H 0.49638 0.85529 0.89549 0.0
H286 H 0.49394 0.83708 0.92554 0.0
H287 H 0.5077 0.83732 0.8835 0.0
C288 C 0.46714 0.90061 0.92137 0.0
N289 N 0.47342 0.89512 0.88648 0.0
N290 N 0.47123 0.87938 0.88369 0.0
C291 C 0.46285 0.87449 0.91673 0.0
C292 C 0.46031 0.88776 0.94185 0.0
C293 C 0.466 0.91814 0.93258 0.0
H294 H 0.45982 0.92485 0.90817 0.0
H295 H 0.47832 0.92316 0.93595 0.0
H296 H 0.45926 0.92004 0.96117 0.0
O297 O 0.46584 0.90345 0.79639 0.0
O298 O 0.46389 0.87677 0.78887 0.0
H299 H 0.45162 0.85301 0.89369 0.0
H300 H 0.4461 0.85798 0.9451 0.0
C301 C 0.45609 0.85789 0.92272 0.0
H302 H 0.46569 0.84982 0.93418 0.0
H303 H 0.45555 0.8425 0.80245 0.0
O304 O 0.48199 0.92982 0.8549 0.0
C305 C 0.46008 0.89114 0.77827 0.0
Co306 Co 0.59579 0.48126 0.35473 0.0
Co307 Co 0.633 0.47901 0.34049 0.0
C308 C 0.61463 0.51038 0.33061 0.0
O309 O 0.60165 0.50338 0.34093 0.0
O310 O 0.62793 0.50263 0.32824 0.0
C311 C 0.56403 0.49353 0.37154 0.0
O312 O 0.56892 0.50659 0.35258 0.0
C313 C 0.66627 0.4838 0.36727 0.0
C314 C 0.67901 0.46398 0.33585 0.0
C315 C 0.68112 0.47607 0.36443 0.0
N316 N 0.65591 0.47644 0.34205 0.0
N317 N 0.6637 0.46483 0.32271 0.0
C318 C 0.66134 0.4966 0.39686 0.0
H319 H 0.64801 0.49718 0.39954 0.0
H320 H 0.66675 0.49423 0.42685 0.0
H321 H 0.6658 0.5085 0.38613 0.0
C322 C 0.60428 0.46737 0.43279 0.0
N323 N 0.60864 0.47369 0.39704 0.0
N324 N 0.6242 0.47161 0.39123 0.0
C325 C 0.6301 0.46316 0.42294 0.0
C326 C 0.6177 0.46053 0.45053 0.0
C327 C 0.58719 0.46621 0.44734 0.0
H328 H 0.58013 0.45885 0.42566 0.0
H329 H 0.58184 0.47849 0.44868 0.0
H330 H 0.58627 0.46053 0.47753 0.0
O331 O 0.59785 0.46682 0.30759 0.0
O332 O 0.62423 0.46501 0.29624 0.0
H333 H 0.6509 0.45228 0.39533 0.0
H334 H 0.64742 0.44623 0.44705 0.0
C335 C 0.64682 0.45645 0.42546 0.0
H336 H 0.65511 0.46603 0.43623 0.0
H337 H 0.65832 0.45688 0.30228 0.0
O338 O 0.57324 0.48129 0.37324 0.0
C339 C 0.60972 0.46127 0.28737 0.0
Co340 Co 0.02731 0.59166 0.82856 0.0
Co341 Co 0.02523 0.62942 0.84472 0.0
C342 C 0.99547 0.60852 0.83337 0.0
O343 O 0.00412 0.59584 0.83106 0.0
O344 O 1.00174 0.62261 0.83722 0.0
C345 C 0.0304 0.55404 0.829 0.0
O346 O 0.03571 0.54227 0.80578 0.0
C347 C 0.01895 0.66096 0.88848 0.0
C348 C 0.04017 0.67474 0.86737 0.0
C349 C 0.02706 0.67566 0.89326 0.0
N350 N 0.02716 0.65179 0.86156 0.0
N351 N 0.03964 0.66031 0.84868 0.0
C352 C 0.00462 0.65512 0.91176 0.0
H353 H 0.00361 0.64175 0.90972 0.0
H354 H 0.00551 0.65893 0.94381 0.0
H355 H 0.99356 0.66058 0.8989 0.0
C356 C 0.04681 0.5931 0.90361 0.0
N357 N 0.03768 0.60004 0.87496 0.0
N358 N 0.0362 0.61563 0.88297 0.0
C359 C 0.0442 0.6189 0.91754 0.0
C360 C 0.05107 0.6047 0.93174 0.0
C361 C 0.05264 0.576 0.9026 0.0
H362 H 0.05325 0.57151 0.87118 0.0
H363 H 0.04429 0.5684 0.92057 0.0
H364 H 0.06478 0.57504 0.91637 0.0
O365 O 0.03633 0.60186 0.7806 0.0
O366 O 0.0371 0.62828 0.79146 0.0
H367 H 0.05094 0.64386 0.91705 0.0
H368 H 0.05128 0.6348 0.96656 0.0
C369 C 0.04483 0.63516 0.93737 0.0
H370 H 0.03239 0.63944 0.94304 0.0
H371 H 0.04823 0.656 0.82825 0.0
O372 O 0.03128 0.56843 0.81574 0.0
C373 C 0.04009 0.61601 0.76936 0.0
Co374 Co 0.90597 0.02265 0.35164 0.0
Co375 Co 0.86877 0.02716 0.3391 0.0
C376 C 0.88557 0.995 0.32536 0.0
O377 O 0.8989 1.00129 0.33501 0.0
O378 O 0.87258 1.00329 0.32518 0.0
C379 C 0.93355 0.00693 0.38204 0.0
O380 O 0.92379 0.99443 0.38141 0.0
C381 C 0.83636 0.02329 0.37304 0.0
C382 C 0.82174 0.04061 0.33828 0.0
C383 C 0.82095 0.02986 0.37036 0.0
N384 N 0.84582 0.03009 0.34462 0.0
N385 N 0.83694 0.04031 0.32365 0.0
C386 C 0.84207 0.01044 0.40137 0.0
H387 H 0.85227 0.00364 0.38779 0.0
H388 H 0.84645 0.01609 0.42962 0.0
H389 H 0.8321 1.002 0.40898 0.0
C390 C 0.89875 0.03734 0.42994 0.0
N391 N 0.89378 0.03067 0.39504 0.0
N392 N 0.87846 0.03405 0.38928 0.0
C393 C 0.87343 0.04374 0.41989 0.0
C394 C 0.88604 0.0458 0.447 0.0
C395 C 0.91594 0.0376 0.44365 0.0
H396 H 0.92351 0.04355 0.42035 0.0
H397 H 0.92025 0.02501 0.44749 0.0
H398 H 0.91742 0.04418 0.47258 0.0
O399 O 0.90431 0.03771 0.30575 0.0
O400 O 0.87804 0.04103 0.29429 0.0
H401 H 0.85386 0.05565 0.38968 0.0
H402 H 0.85858 0.06387 0.43885 0.0
C403 C 0.85769 0.05261 0.42075 0.0
H404 H 0.84835 0.04487 0.43488 0.0
H405 H 0.84137 0.04743 0.30009 0.0
O406 O 0.92864 0.02047 0.36876 0.0
C407 C 0.89282 0.04402 0.28567 0.0
Co408 Co 0.48689 0.60047 0.14943 0.0
Co409 Co 0.48232 0.63748 0.16563 0.0
C410 C 0.51465 0.62032 0.17446 0.0
O411 O 0.5086 0.607 0.16312 0.0
O412 O 0.5061 0.63312 0.17762 0.0
C413 C 0.47626 0.56816 0.13118 0.0
O414 O 0.46194 0.57332 0.14238 0.0
C415 C 0.48597 0.67057 0.13551 0.0
C416 C 0.46749 0.68395 0.1701 0.0
C417 C 0.47862 0.68566 0.13904 0.0
N418 N 0.47936 0.6605 0.16284 0.0
N419 N 0.46851 0.66866 0.18388 0.0
C420 C 0.49766 0.66517 0.10374 0.0
H421 H 0.49825 0.65178 0.10231 0.0
H422 H 0.49419 0.6701 0.07388 0.0
H423 H 0.50984 0.6698 0.11127 0.0
C424 C 0.4718 0.60876 0.07239 0.0
N425 N 0.47854 0.61318 0.10755 0.0
N426 N 0.47491 0.62835 0.1154 0.0
C427 C 0.46489 0.63376 0.08618 0.0
C428 C 0.46258 0.62146 0.05807 0.0
C429 C 0.47388 0.59256 0.0528 0.0
H430 H 0.48592 0.58751 0.05984 0.0
H431 H 0.4726 0.59355 0.01957 0.0
H432 H 0.46442 0.58419 0.06389 0.0
O433 O 0.4727 0.60193 0.19733 0.0
O434 O 0.46899 0.62806 0.21058 0.0
H435 H 0.44451 0.64876 0.07049 0.0
H436 H 0.46344 0.65915 0.07524 0.0
C437 C 0.45584 0.6494 0.08814 0.0
H438 H 0.45294 0.65248 0.11989 0.0
H439 H 0.46123 0.66358 0.2063 0.0
O440 O 0.48823 0.57771 0.13269 0.0
C441 C 0.46642 0.61316 0.21863 0.0
Co442 Co 0.9029 0.48599 0.64625 0.0
Co443 Co 0.86592 0.4804 0.65781 0.0
C444 C 0.88193 0.51145 0.68282 0.0
O445 O 0.89536 0.50581 0.67141 0.0
O446 O 0.86896 0.50329 0.67934 0.0
C447 C 0.92754 0.50434 0.61303 0.0
O448 O 0.91555 0.51466 0.61054 0.0
C449 C 0.83284 0.48476 0.63029 0.0
C450 C 0.82044 0.46322 0.65446 0.0
C451 C 0.81822 0.47649 0.6295 0.0
N452 N 0.84324 0.47649 0.65349 0.0
N453 N 0.83567 0.46377 0.66843 0.0
C454 C 0.83709 0.50029 0.60961 0.0
H455 H 0.84619 0.50703 0.62732 0.0
H456 H 0.84246 0.49764 0.57963 0.0
H457 H 0.82623 0.50795 0.60555 0.0
C458 C 0.89595 0.47466 0.5645 0.0
N459 N 0.89084 0.4799 0.60084 0.0
N460 N 0.87544 0.4765 0.60539 0.0
C461 C 0.87041 0.46847 0.57201 0.0
C462 C 0.88319 0.46736 0.54479 0.0
C463 C 0.91331 0.47413 0.55174 0.0
H464 H 0.92072 0.46897 0.57632 0.0
H465 H 0.91753 0.48661 0.54559 0.0
H466 H 0.91518 0.46675 0.52416 0.0
O467 O 0.90217 0.46852 0.68637 0.0
O468 O 0.87587 0.46487 0.69736 0.0
H469 H 0.85117 0.4542 0.59671 0.0
H470 H 0.85446 0.45122 0.54325 0.0
C471 C 0.8544 0.46026 0.56801 0.0
H472 H 0.84505 0.46939 0.56109 0.0
H473 H 0.8411 0.45509 0.68672 0.0
O474 O 0.92509 0.49062 0.62922 0.0
C475 C 0.89062 0.4614 0.70465 0.0
Co476 Co 0.01993 0.90524 0.14739 0.0
Co477 Co 0.02266 0.86809 0.16493 0.0
C478 C 0.99131 0.88648 0.17555 0.0
O479 O 0.99831 0.89921 0.16375 0.0
O480 O 0.99899 0.87314 0.1784 0.0
C481 C 0.00567 0.92988 0.10454 0.0
O482 O 0.99566 0.91789 0.09757 0.0
C483 C 0.01722 0.83469 0.13748 0.0
C484 C 0.03567 0.82089 0.17052 0.0
C485 C 0.02393 0.81927 0.14098 0.0
N486 N 0.02491 0.84484 0.16285 0.0
N487 N 0.03579 0.83644 0.18288 0.0
C488 C 0.00359 0.83989 0.11099 0.0
H489 H 0.99741 0.85057 0.12407 0.0
H490 H 0.00836 0.84343 0.081 0.0
H491 H 0.99479 0.82989 0.10703 0.0
C492 C 0.03528 0.89599 0.07129 0.0
N493 N 0.02801 0.89196 0.10624 0.0
N494 N 0.0301 0.87645 0.11337 0.0
C495 C 0.0393 0.87023 0.08312 0.0
C496 C 0.04251 0.88237 0.05518 0.0
C497 C 0.03737 0.913 0.05656 0.0
H498 H 0.0413 0.92089 0.08174 0.0
H499 H 0.02568 0.91749 0.04501 0.0
H500 H 0.04641 0.91384 0.03191 0.0
O501 O 0.03436 0.90423 0.19435 0.0
O502 O 0.03655 0.878 0.20904 0.0
H503 H 0.05038 0.85034 0.1139 0.0
H504 H 0.05702 0.85291 0.06226 0.0
C505 C 0.04652 0.85364 0.08303 0.0
H506 H 0.03739 0.84479 0.07271 0.0
H507 H 0.04369 0.84143 0.20397 0.0
O508 O 0.0178 0.92746 0.12705 0.0
C509 C 0.03998 0.89286 0.21618 0.0
Co510 Co 0.59723 0.02296 0.65458 0.0
Co511 Co 0.63452 0.0263 0.66629 0.0
C512 C 0.61655 0.99431 0.6765 0.0
O513 O 0.60334 1.00092 0.66689 0.0
O514 O 0.62965 1.00244 0.67847 0.0
C515 C 0.56493 0.01108 0.6464 0.0
O516 O 0.56983 0.99917 0.66949 0.0
C517 C 0.66692 0.02166 0.63215 0.0
C518 C 0.68173 0.03882 0.66713 0.0
C519 C 0.68241 0.02807 0.63495 0.0
N520 N 0.65754 0.02856 0.66064 0.0
N521 N 0.66653 0.03869 0.68173 0.0
C522 C 0.6611 0.00882 0.60377 0.0
H523 H 0.65083 1.00214 0.6173 0.0
H524 H 0.65681 0.01446 0.57548 0.0
H525 H 0.671 1.00029 0.59621 0.0
C526 C 0.60463 0.03698 0.57599 0.0
N527 N 0.60946 0.03091 0.61152 0.0
N528 N 0.62491 0.03382 0.61669 0.0
C529 C 0.63019 0.04274 0.58497 0.0
C530 C 0.61756 0.04466 0.55788 0.0
C531 C 0.5875 0.03694 0.5618 0.0
H532 H 0.58267 0.02443 0.56287 0.0
H533 H 0.58635 0.04167 0.53067 0.0
H534 H 0.58014 0.04459 0.5823 0.0
O535 O 0.59977 0.03702 0.70211 0.0
O536 O 0.62609 0.04008 0.71237 0.0
H537 H 0.65092 0.05358 0.61296 0.0
H538 H 0.64554 0.06218 0.56473 0.0
C539 C 0.64631 0.05082 0.58238 0.0
H540 H 0.65495 0.04273 0.56669 0.0
H541 H 0.66218 0.04588 0.70531 0.0
O542 O 0.57445 0.02269 0.63865 0.0
C543 C 0.61142 0.04302 0.72211 0.0
H544 H 0.47404 0.06222 0.08837 0.0
H545 H 0.4717 0.03913 0.04272 0.0
H546 H 0.5216 0.02713 0.06344 0.0
H547 H 0.52416 0.05032 0.10885 0.0
H548 H 0.51246 0.03074 0.98053 0.0
H549 H 0.47113 0.98993 0.06525 0.0
H550 H 0.46464 0.01059 0.06058 0.0
H551 H 0.48233 0.00598 0.08943 0.0
C552 C 0.48446 0.05452 0.08378 0.0
C553 C 0.49931 0.05811 0.10205 0.0
C554 C 0.48307 0.04131 0.05782 0.0
C555 C 0.49646 0.03146 0.05 0.0
C556 C 0.51114 0.03464 0.0693 0.0
H557 H 0.52103 0.9513 0.89995 0.0
H558 H 0.52075 0.97606 0.93992 0.0
C559 C 0.51255 0.04783 0.09533 0.0
C560 C 0.49551 0.01857 0.01943 0.0
H561 H 0.47779 0.98234 0.99852 0.0
C562 C 0.5049 0.02013 0.98437 0.0
C563 C 0.48546 0.00494 0.02454 0.0
C564 C 0.47538 1.00262 0.06208 0.0
C565 C 0.50459 0.00828 0.95417 0.0
C566 C 0.49485 0.99443 0.9597 0.0
C567 C 0.4852 0.99304 0.99441 0.0
C568 C 0.49529 0.98068 0.93138 0.0
C569 C 0.5146 0.01072 0.91657 0.0
C570 C 0.48106 0.97512 0.91332 0.0
C571 C 0.48115 0.96088 0.89068 0.0
C572 C 0.49547 0.95194 0.8861 0.0
C573 C 0.50982 0.95792 0.90289 0.0
C574 C 0.50971 0.97213 0.92553 0.0
H575 H 0.5172 0.02374 0.91134 0.0
H576 H 0.5263 0.00438 0.92008 0.0
H577 H 0.50845 0.00573 0.88958 0.0
H578 H 0.46981 0.98156 0.91775 0.0
H579 H 0.46989 0.95656 0.87816 0.0
H580 H 0.55085 0.46875 0.41479 0.0
H581 H 0.53071 0.47089 0.46829 0.0
H582 H 0.52464 0.5216 0.44208 0.0
H583 H 0.54507 0.51969 0.38891 0.0
H584 H 0.53179 0.51474 0.52335 0.0
H585 H 0.48166 0.47638 0.46668 0.0
H586 H 0.50114 0.46689 0.46572 0.0
H587 H 0.49736 0.48409 0.43408 0.0
C588 C 0.54503 0.48031 0.41985 0.0
C589 C 0.54967 0.4941 0.39789 0.0
C590 C 0.53347 0.48147 0.45033 0.0
C591 C 0.52621 0.49639 0.45898 0.0
C592 C 0.53016 0.50999 0.43575 0.0
H593 H 0.45888 0.53464 0.62739 0.0
H594 H 0.48151 0.53043 0.58154 0.0
C595 C 0.54176 0.50885 0.40527 0.0
C596 C 0.51551 0.49808 0.49436 0.0
H597 H 0.47983 0.48531 0.53444 0.0
C598 C 0.5204 0.50834 0.52581 0.0
C599 C 0.50082 0.48954 0.49753 0.0
C600 C 0.49482 0.4787 0.4641 0.0
C601 C 0.51089 0.51037 0.56045 0.0
C602 C 0.49606 0.50205 0.56329 0.0
C603 C 0.49131 0.49155 0.5322 0.0
C604 C 0.48452 0.50513 0.59635 0.0
C605 C 0.51678 0.52134 0.59369 0.0
C606 C 0.47894 0.49235 0.62042 0.0
C607 C 0.46593 0.4947 0.64665 0.0
C608 C 0.45821 0.50981 0.64863 0.0
C609 C 0.46453 0.52283 0.62638 0.0
C610 C 0.47753 0.52048 0.60034 0.0
H611 H 0.53009 0.52284 0.59259 0.0
H612 H 0.51124 0.53347 0.59008 0.0
H613 H 0.51331 0.51659 0.62382 0.0
H614 H 0.48418 0.48039 0.61754 0.0
H615 H 0.46132 0.48443 0.66338 0.0
H616 H 0.97279 0.46837 0.11506 0.0
H617 H 0.97331 0.49525 0.0838 0.0
H618 H 0.02273 0.48751 0.04753 0.0
H619 H 0.02247 0.46106 0.07944 0.0
H620 H 0.01737 0.5188 0.07349 0.0
H621 H 0.97073 0.49961 0.96216 0.0
H622 H 0.9654 0.49909 0.01471 0.0
H623 H 0.98026 0.48528 0.99532 0.0
C624 C 0.98382 0.47251 0.10085 0.0
C625 C 0.99754 0.46249 0.09931 0.0
C626 C 0.98406 0.48784 0.08288 0.0
C627 C 0.99797 0.49329 0.06278 0.0
C628 C 0.01185 0.48358 0.06288 0.0
H629 H 0.0422 0.53088 0.87722 0.0
H630 H 0.03185 0.52201 0.94232 0.0
C631 C 0.01166 0.46838 0.08098 0.0
C632 C 0.9981 0.50836 0.03855 0.0
H633 H 0.98596 0.52247 0.94686 0.0
C634 C 0.01014 0.5199 0.04642 0.0
C635 C 0.98857 0.5099 0.00338 0.0
C636 C 0.97555 0.49782 0.99305 0.0
C637 C 0.01399 0.5319 0.0181 0.0
C638 C 0.00557 0.53234 0.98122 0.0
C639 C 0.99234 0.52205 0.97534 0.0
C640 C 0.01283 0.53989 0.94517 0.0
C641 C 0.02792 0.54316 0.02615 0.0
C642 C 0.00561 0.55302 0.9254 0.0
C643 C 0.01172 0.55831 0.88813 0.0
C644 C 0.02475 0.55017 0.87 0.0
C645 C 0.03206 0.53728 0.89042 0.0
C646 C 0.02626 0.5323 0.92775 0.0
H647 H 0.03004 0.54464 0.05902 0.0
H648 H 0.03903 0.53804 0.01238 0.0
H649 H 0.02576 0.55523 0.01253 0.0
H650 H 0.99508 0.55885 0.93825 0.0
H651 H 0.00583 0.5682 0.87276 0.0
H652 H 0.04612 0.97424 0.63249 0.0
H653 H 0.02281 0.97557 0.58778 0.0
H654 H 0.02827 0.02734 0.57925 0.0
H655 H 0.05141 0.02623 0.62452 0.0
H656 H 0.99608 0.01692 0.58497 0.0
H657 H 0.03025 0.98342 0.4668 0.0
H658 H 0.02865 0.97314 0.5143 0.0
H659 H 0.03978 0.99175 0.51106 0.0
C660 C 0.04219 0.98595 0.6217 0.0
C661 C 0.05074 1.00011 0.63149 0.0
C662 C 0.02896 0.98666 0.59596 0.0
C663 C 0.02418 1.00149 0.57948 0.0
C664 C 0.03195 0.01577 0.59141 0.0
H665 H 0.95412 0.03163 0.4012 0.0
H666 H 0.97696 0.03044 0.4476 0.0
C667 C 0.04514 0.01509 0.6173 0.0
C668 C 0.01162 1.00208 0.54822 0.0
H669 H 0.00289 0.98938 0.45278 0.0
C670 C 0.99755 0.01095 0.55602 0.0
C671 C 0.01372 0.99432 0.51048 0.0
C672 C 0.02897 0.98524 0.49988 0.0
C673 C 0.9853 0.01202 0.52719 0.0
C674 C 0.98738 0.00422 0.48955 0.0
C675 C 1.00144 0.99536 0.48172 0.0
C676 C 0.9748 0.00472 0.45838 0.0
C677 C 0.97009 0.0212 0.53749 0.0
C678 C 0.96664 0.99051 0.44784 0.0
C679 C 0.95368 0.99111 0.42124 0.0
C680 C 0.94876 0.00595 0.40473 0.0
C681 C 0.95759 0.02003 0.41358 0.0
C682 C 0.97054 0.01941 0.44026 0.0
H683 H 0.96899 0.02353 0.57041 0.0
H684 H 0.97024 0.03304 0.52177 0.0
H685 H 0.95926 0.01444 0.52731 0.0
H686 H 0.9699 0.97905 0.46137 0.0
H687 H 0.94718 0.98004 0.4148 0.0
H688 H 0.48414 0.45867 0.8538 0.0
H689 H 0.47702 0.48136 0.89797 0.0
H690 H 0.52301 0.47739 0.95737 0.0
H691 H 0.53023 0.45465 0.91367 0.0
H692 H 0.47741 0.47744 0.98829 0.0
H693 H 0.51635 0.52702 0.92999 0.0
H694 H 0.51032 0.50998 0.89928 0.0
H695 H 0.52589 0.50764 0.93627 0.0
C696 C 0.49288 0.46283 0.87569 0.0
C697 C 0.50773 0.45485 0.88037 0.0
C698 C 0.48876 0.47573 0.90095 0.0
C699 C 0.49952 0.48098 0.9307 0.0
C700 C 0.51462 0.47354 0.93427 0.0
H701 H 0.50371 0.5508 0.12061 0.0
H702 H 0.50803 0.52845 0.07356 0.0
C703 C 0.51871 0.46055 0.90933 0.0
C704 C 0.49459 0.4934 0.96016 0.0
H705 H 0.50353 0.5314 0.99303 0.0
C706 C 0.48296 0.48932 0.98925 0.0
C707 C 0.50198 0.50876 0.96116 0.0
C708 C 0.51425 0.51374 0.92988 0.0
C709 C 0.47891 0.50009 0.02044 0.0
C710 C 0.48648 0.51541 0.02182 0.0
C711 C 0.49783 0.51959 0.99203 0.0
C712 C 0.48316 0.52728 0.05421 0.0
C713 C 0.46705 0.49474 0.05237 0.0
C714 C 0.46762 0.53368 0.0598 0.0
C715 C 0.46507 0.54631 0.08721 0.0
C716 C 0.4781 0.55288 0.10874 0.0
C717 C 0.49347 0.54597 0.10432 0.0
C718 C 0.49596 0.53326 0.07737 0.0
H719 H 0.46569 0.48137 0.05296 0.0
H720 H 0.47084 0.49892 0.08275 0.0
H721 H 0.45506 0.50006 0.04583 0.0
H722 H 0.45764 0.52945 0.04167 0.0
H723 H 0.45314 0.55155 0.08966 0.0
H724 H 0.93624 0.532 0.57378 0.0
H725 H 0.95979 0.53593 0.53021 0.0
H726 H 0.97641 0.48789 0.55885 0.0
H727 H 0.9529 0.48375 0.60217 0.0
H728 H 0.99362 0.53309 0.54844 0.0
H729 H 0.97303 0.48877 0.4337 0.0
H730 H 0.95971 0.49727 0.47141 0.0
H731 H 0.97315 0.48104 0.4843 0.0
C732 C 0.94498 0.52232 0.57109 0.0
C733 C 0.94267 0.5075 0.59109 0.0
C734 C 0.95838 0.52459 0.54617 0.0
C735 C 0.96954 0.51206 0.54082 0.0
C736 C 0.96767 0.49755 0.56211 0.0
H737 H 0.05828 0.48999 0.4305 0.0
H738 H 0.03177 0.49099 0.46256 0.0
C739 C 0.95432 0.49527 0.58706 0.0
C740 C 0.98318 0.51402 0.51279 0.0
H741 H 1.00054 0.49725 0.42929 0.0
C742 C 0.99509 0.52546 0.52202 0.0
C743 C 0.98484 0.50409 0.47829 0.0
C744 C 0.97193 0.4922 0.46602 0.0
C745 C 0.00918 0.52657 0.49879 0.0
C746 C 0.01116 0.51613 0.4653 0.0
C747 C 0.99892 0.50519 0.4551 0.0
C748 C 0.02646 0.51534 0.44283 0.0
C749 C 0.02218 0.53832 0.51137 0.0
C750 C 0.03197 0.52858 0.42034 0.0
C751 C 0.04714 0.52808 0.40205 0.0
C752 C 0.05694 0.51429 0.40599 0.0
C753 C 0.05105 0.50081 0.42715 0.0
C754 C 0.03591 0.50134 0.44539 0.0
H755 H 0.01987 0.54352 0.54177 0.0
H756 H 0.03414 0.53228 0.51153 0.0
H757 H 0.02274 0.54841 0.48941 0.0
H758 H 0.02467 0.53939 0.41761 0.0
H759 H 0.05134 0.53862 0.38574 0.0
H760 H 0.98054 0.939 0.05721 0.0
H761 H 0.97889 0.96289 0.0142 0.0
H762 H 0.0253 0.97886 0.05706 0.0
H763 H 0.02716 0.9549 0.10004 0.0
H764 H 0.9809 0.9964 0.03657 0.0
H765 H 0.02984 0.97712 0.93197 0.0
H766 H 0.01993 0.9633 0.96614 0.0
H767 H 0.03502 0.97702 0.98458 0.0
C768 C 0.99037 0.94763 0.05768 0.0
C769 C 0.00403 0.94505 0.08179 0.0
C770 C 0.98939 0.96124 0.0331 0.0
C771 C 0.0021 0.97239 0.03208 0.0
C772 C 0.01552 0.97016 0.05704 0.0
H773 H 0.02224 0.06187 0.91435 0.0
H774 H 0.02297 0.03609 0.95001 0.0
C775 C 0.0165 0.95657 0.08176 0.0
C776 C 1.00127 0.98637 0.00483 0.0
H777 H 0.01961 0.00371 0.92348 0.0
C778 C 0.98927 0.99799 0.01165 0.0
C779 C 0.01221 0.98825 0.97239 0.0
C780 C 0.02491 0.97571 0.96297 0.0
C781 C 0.98822 0.01182 0.9875 0.0
C782 C 0.99928 0.0138 0.95533 0.0
C783 C 0.01114 1.00205 0.94815 0.0
C784 C 0.9993 0.02849 0.93032 0.0
C785 C 0.97564 0.02443 0.99742 0.0
C786 C 0.98595 0.0324 0.90643 0.0
C787 C 0.98545 0.04715 0.88611 0.0
C788 C 0.99835 0.05811 0.88931 0.0
C789 C 0.01206 0.05373 0.91153 0.0
C790 C 0.01252 0.03901 0.93187 0.0
H791 H 0.97043 0.02269 0.02803 0.0
H792 H 0.98084 0.03679 0.9956 0.0
H793 H 0.96568 0.02361 0.97525 0.0
H794 H 0.97577 0.02423 0.90436 0.0
H795 H 0.97477 0.05017 0.86899 0.0
H796 H 0.45019 0.96701 0.41124 0.0
H797 H 0.47237 0.96971 0.459 0.0
H798 H 0.48071 0.01856 0.41856 0.0
H799 H 0.45862 0.01595 0.37026 0.0
H800 H 0.50918 1.00024 0.4329 0.0
H801 H 0.46592 0.9975 0.56127 0.0
H802 H 0.46498 0.98068 0.52697 0.0
H803 H 0.45954 1.00055 0.50985 0.0
C804 C 0.45688 0.97826 0.41206 0.0
C805 C 0.45251 0.99137 0.38744 0.0
C806 C 0.46948 0.97979 0.4395 0.0
C807 C 0.47783 0.99446 0.4429 0.0
C808 C 0.47425 0.0072 0.41654 0.0
H809 H 0.55097 0.03393 0.59877 0.0
H810 H 0.52907 0.02989 0.55081 0.0
C811 C 0.46167 0.00567 0.38893 0.0
C812 C 0.48975 0.99681 0.47524 0.0
H813 H 0.49366 0.99851 0.57763 0.0
C814 C 0.50582 0.99989 0.46454 0.0
C815 C 0.48522 0.99635 0.51642 0.0
C816 C 0.46796 0.99373 0.52947 0.0
C817 C 0.5176 1.00236 0.4941 0.0
C818 C 0.51305 1.00198 0.53525 0.0
C819 C 0.49701 0.99879 0.54598 0.0
C820 C 0.52486 0.00496 0.5675 0.0
C821 C 0.53485 0.00512 0.48112 0.0
C822 C 0.52905 0.99252 0.59415 0.0
C823 C 0.54151 0.9948 0.62181 0.0
C824 C 0.54989 0.00957 0.62309 0.0
C825 C 0.54488 0.02234 0.59815 0.0
C826 C 0.53244 0.02005 0.5706 0.0
H827 H 0.53696 1.00125 0.44942 0.0
H828 H 0.53768 0.01821 0.48338 0.0
H829 H 0.54332 0.99847 0.50097 0.0
H830 H 0.52316 0.98084 0.59234 0.0
H831 H 0.54505 0.98475 0.64072 0.0
H832 H 0.52074 0.18447 0.05607 0.0
H833 H 0.51866 0.20771 0.01102 0.0
H834 H 0.52477 0.24001 0.11202 0.0
H835 H 0.52657 0.21671 0.15764 0.0
H836 H 0.49886 0.24842 0.05384 0.0
H837 H 0.55846 0.23671 0.98214 0.0
H838 H 0.54486 0.21978 0.98421 0.0
H839 H 0.55275 0.2281 0.03014 0.0
C840 C 0.5212 0.19648 0.06899 0.0
C841 C 0.52345 0.19874 0.11065 0.0
C842 C 0.52025 0.20977 0.04303 0.0
C843 C 0.52164 0.22557 0.05814 0.0
C844 C 0.52365 0.2279 0.09977 0.0
H845 H 0.52126 0.32191 0.95311 0.0
H846 H 0.51921 0.29864 0.99792 0.0
C847 C 0.5247 0.2146 0.12574 0.0
C848 C 0.52142 0.23963 0.0303 0.0
H849 H 0.54276 0.25771 0.95448 0.0
C850 C 0.50845 0.25051 0.03214 0.0
C851 C 0.53393 0.24226 0.00195 0.0
C852 C 0.54838 0.2312 0.99949 0.0
C853 C 0.50752 0.26382 0.00588 0.0
C854 C 0.52011 0.26655 0.97768 0.0
C855 C 0.53307 0.25562 0.97593 0.0
C856 C 0.5203 0.28078 0.95015 0.0
C857 C 0.49286 0.27461 0.00799 0.0
C858 C 0.52194 0.27858 0.90829 0.0
C859 C 0.52316 0.29193 0.88252 0.0
C860 C 0.52264 0.30776 0.89801 0.0
C861 C 0.521 0.30994 0.93992 0.0
C862 C 0.51989 0.29659 0.96569 0.0
H863 H 0.4824 0.26826 0.02176 0.0
H864 H 0.49563 0.2853 0.02704 0.0
H865 H 0.48936 0.27893 0.97757 0.0
H866 H 0.52245 0.26651 0.89557 0.0
H867 H 0.52462 0.28987 0.85044 0.0
H868 H 0.29374 0.53597 0.65298 0.0
H869 H 0.27062 0.53294 0.60821 0.0
H870 H 0.30158 0.51266 0.51637 0.0
H871 H 0.32482 0.51675 0.55965 0.0
H872 H 0.28328 0.53445 0.48485 0.0
H873 H 0.24397 0.49489 0.5765 0.0
H874 H 0.24946 0.51277 0.60385 0.0
H875 H 0.26481 0.49848 0.58912 0.0
C876 C 0.29561 0.53067 0.62343 0.0
C877 C 0.31116 0.52615 0.61058 0.0
C878 C 0.28231 0.52877 0.59798 0.0
C879 C 0.28421 0.52214 0.55921 0.0
C880 C 0.29971 0.51754 0.54638 0.0
H881 H 0.20054 0.50182 0.40448 0.0
H882 H 0.22436 0.49873 0.44749 0.0
C883 C 0.31304 0.51964 0.57161 0.0
C884 C 0.27035 0.52132 0.53084 0.0
H885 H 0.23105 0.50931 0.52247 0.0
C886 C 0.27193 0.52876 0.49298 0.0
C887 C 0.25558 0.51368 0.54093 0.0
C888 C 0.2534 0.50435 0.57964 0.0
C889 C 0.25907 0.52927 0.46563 0.0
C890 C 0.24397 0.52264 0.47688 0.0
C891 C 0.24253 0.51464 0.51406 0.0
C892 C 0.22943 0.52438 0.45107 0.0
C893 C 0.26187 0.53685 0.42481 0.0
C894 C 0.2242 0.53981 0.43931 0.0
C895 C 0.2107 0.54157 0.41467 0.0
C896 C 0.20188 0.52798 0.40198 0.0
C897 C 0.20693 0.51253 0.4143 0.0
C898 C 0.22058 0.51075 0.4387 0.0
H899 H 0.27479 0.53623 0.41592 0.0
H900 H 0.25459 0.53082 0.4011 0.0
H901 H 0.25842 0.54981 0.42608 0.0
H902 H 0.23051 0.55054 0.44938 0.0
H903 H 0.207 0.55365 0.40605 0.0
H904 H 0.99157 0.3278 0.0462 0.0
H905 H 0.99395 0.30379 0.00399 0.0
H906 H 0.97405 0.27467 0.09973 0.0
H907 H 0.97257 0.29855 0.14319 0.0
H908 H 0.99788 0.25864 0.06195 0.0
H909 H 0.95623 0.28373 0.94766 0.0
H910 H 0.9738 0.29601 0.95529 0.0
H911 H 0.95949 0.29339 0.99573 0.0
C912 C 0.98823 0.31629 0.05905 0.0
C913 C 0.98218 0.31519 0.0987 0.0
C914 C 0.98926 0.30252 0.03434 0.0
C915 C 0.9839 0.28738 0.04824 0.0
C916 C 0.97824 0.28617 0.08811 0.0
H917 H 0.9523 0.20674 0.90205 0.0
H918 H 0.95527 0.23038 0.94557 0.0
C919 C 0.97735 0.29989 0.11294 0.0
C920 C 0.98367 0.27291 0.02109 0.0
H921 H 0.96865 0.25876 0.93177 0.0
C922 C 0.99151 0.25867 0.03345 0.0
C923 C 0.97515 0.2728 0.9841 0.0
C924 C 0.96555 0.28723 0.97003 0.0
C925 C 0.99105 0.24443 0.01003 0.0
C926 C 0.98284 0.24445 0.97259 0.0
C927 C 0.97507 0.25871 0.96022 0.0
C928 C 0.98135 0.22968 0.94672 0.0
C929 C 0.99889 0.22934 0.02637 0.0
C930 C 0.99501 0.22131 0.93238 0.0
C931 C 0.99332 0.2076 0.90762 0.0
C932 C 0.97793 0.20207 0.89629 0.0
C933 C 0.96433 0.21063 0.91018 0.0
C934 C 0.96602 0.22418 0.93514 0.0
H935 H 1.00071 0.23011 0.0595 0.0
H936 H 0.99151 0.21845 0.0197 0.0
H937 H 0.01089 0.22777 0.01198 0.0
H938 H 0.00701 0.22553 0.93975 0.0
H939 H 0.00406 0.20161 0.89656 0.0
H940 H 0.19461 0.00354 0.60602 0.0
H941 H 0.21756 0.00656 0.55953 0.0
H942 H 0.22212 0.95471 0.55221 0.0
H943 H 0.19922 0.95158 0.59817 0.0
H944 H 0.25083 0.99228 0.5695 0.0
H945 H 0.21887 0.97131 0.43207 0.0
H946 H 0.20837 0.97897 0.47597 0.0
H947 H 0.21637 0.95879 0.47596 0.0
C948 C 0.20033 0.99278 0.59404 0.0
C949 C 0.19487 0.97731 0.60529 0.0
C950 C 0.21355 0.99454 0.56776 0.0
C951 C 0.22142 0.98086 0.552 0.0
C952 C 0.21611 0.96543 0.56359 0.0
H953 H 0.29802 0.95407 0.39075 0.0
H954 H 0.27465 0.95635 0.43534 0.0
C955 C 0.20305 0.96368 0.59004 0.0
C956 C 0.23531 0.9825 0.52372 0.0
H957 H 0.24734 0.97347 0.42762 0.0
C958 C 0.25007 0.98837 0.53833 0.0
C959 C 0.23428 0.97733 0.48314 0.0
C960 C 0.21861 0.97135 0.46558 0.0
C961 C 0.26401 0.98855 0.51388 0.0
C962 C 0.26306 0.98308 0.47339 0.0
C963 C 0.24814 0.97764 0.45859 0.0
C964 C 0.2775 0.982 0.44643 0.0
C965 C 0.27976 0.99392 0.53222 0.0
C966 C 0.28689 0.99569 0.43721 0.0
C967 C 0.30041 0.99438 0.41174 0.0
C968 C 0.30473 0.97938 0.39472 0.0
C969 C 0.29508 0.96581 0.40335 0.0
C970 C 0.28169 0.96709 0.42894 0.0
H971 H 0.27928 0.99381 0.56572 0.0
H972 H 0.28984 0.98603 0.52214 0.0
H973 H 0.28243 0.00647 0.52248 0.0
H974 H 0.28367 0.00743 0.44926 0.0
H975 H 0.30723 0.00518 0.40477 0.0
H976 H 0.45455 0.70558 0.11443 0.0
H977 H 0.45629 0.72868 0.06874 0.0
H978 H 0.50767 0.72166 0.0581 0.0
H979 H 0.50595 0.69842 0.1036 0.0
H980 H 0.47229 0.75689 0.07523 0.0
H981 H 0.49487 0.72358 0.94079 0.0
H982 H 0.48712 0.71337 0.98483 0.0
H983 H 0.50725 0.72146 0.98475 0.0
C984 C 0.46623 0.70893 0.10233 0.0
C985 C 0.48006 0.69992 0.11201 0.0
C986 C 0.46721 0.72214 0.07614 0.0
C987 C 0.48206 0.72674 0.05918 0.0
C988 C 0.49599 0.71805 0.0697 0.0
H989 H 0.50345 0.80839 0.89703 0.0
H990 H 0.50623 0.7859 0.94484 0.0
C991 C 0.49499 0.70473 0.09573 0.0
C992 C 0.48284 0.74083 0.03122 0.0
H993 H 0.4928 0.75204 0.93496 0.0
C994 C 0.47681 0.7558 0.0446 0.0
C995 C 0.48876 0.73947 0.99119 0.0
C996 C 0.49474 0.72359 0.97431 0.0
C997 C 0.47641 0.76934 0.01908 0.0
C998 C 0.4821 0.76791 0.979 0.0
C999 C 0.48849 0.7531 0.96579 0.0
C1000 C 0.4806 0.78142 0.9498 0.0
C1001 C 0.46982 0.78512 0.03506 0.0
C1002 C 0.46531 0.78617 0.9363 0.0
C1003 C 0.4637 0.79896 0.90909 0.0
C1004 C 0.47734 0.80739 0.89502 0.0
C1005 C 0.49269 0.80244 0.90806 0.0
C1006 C 0.4943 0.78951 0.9351 0.0
H1007 H 0.46919 0.78525 0.06854 0.0
H1008 H 0.47738 0.79544 0.02485 0.0
H1009 H 0.45745 0.78696 0.02322 0.0
H1010 H 0.4546 0.77996 0.94687 0.0
H1011 H 0.45171 0.80242 0.89957 0.0
H1012 H 0.787 0.46872 0.6464 0.0
H1013 H 0.76368 0.47031 0.60146 0.0
H1014 H 0.79357 0.4918 0.50934 0.0
H1015 H 0.81698 0.48926 0.55271 0.0
H1016 H 0.74814 0.4949 0.56408 0.0
H1017 H 0.775 0.45377 0.45001 0.0
H1018 H 0.7838 0.45675 0.4991 0.0
H1019 H 0.78721 0.47126 0.45955 0.0
C1020 C 0.78858 0.47387 0.61663 0.0
C1021 C 0.80386 0.47918 0.60366 0.0
C1022 C 0.77523 0.47482 0.59103 0.0
C1023 C 0.7769 0.48099 0.5518 0.0
C1024 C 0.79201 0.48677 0.53922 0.0
H1025 H 0.69526 0.50386 0.39344 0.0
H1026 H 0.71842 0.50587 0.43897 0.0
C1027 C 0.80539 0.48565 0.5646 0.0
C1028 C 0.76297 0.48088 0.52366 0.0
H1029 H 0.75068 0.46687 0.4318 0.0
C1030 C 0.74867 0.48876 0.53516 0.0
C1031 C 0.76359 0.47265 0.48618 0.0
C1032 C 0.77816 0.46299 0.4731 0.0
C1033 C 0.735 0.48871 0.51016 0.0
C1034 C 0.7358 0.4809 0.47213 0.0
C1035 C 0.75011 0.47301 0.46073 0.0
C1036 C 0.72174 0.47997 0.44446 0.0
C1037 C 0.71971 0.49657 0.52532 0.0
C1038 C 0.71622 0.46481 0.43123 0.0
C1039 C 0.70318 0.46367 0.40487 0.0
C1040 C 0.69525 0.47766 0.39139 0.0
C1041 C 0.70088 0.49287 0.40413 0.0
C1042 C 0.71409 0.49402 0.43024 0.0
H1043 H 0.71976 0.49799 0.55865 0.0
H1044 H 0.71861 0.5088 0.51187 0.0
H1045 H 0.70893 0.48941 0.51664 0.0
H1046 H 0.72194 0.4538 0.4416 0.0
H1047 H 0.6991 0.45178 0.39562 0.0
H1048 H 0.02838 0.78797 0.1643 0.0
H1049 H 0.02645 0.76341 0.12324 0.0
H1050 H 0.01105 0.7919 0.02169 0.0
H1051 H 0.01397 0.81645 0.06145 0.0
H1052 H 0.0025 0.74817 0.08283 0.0
H1053 H 0.04908 0.76877 0.97413 0.0
H1054 H 0.04504 0.77936 0.02065 0.0
H1055 H 0.03222 0.78229 0.97757 0.0
C1056 C 0.0245 0.78902 0.13325 0.0
C1057 C 0.02105 0.8043 0.11667 0.0
C1058 C 0.02334 0.77493 0.10982 0.0
C1059 C 0.0188 0.77575 0.0691 0.0
C1060 C 0.01484 0.79091 0.05281 0.0
H1061 H 0.99835 0.68974 0.91786 0.0
H1062 H 0.99507 0.71366 0.96126 0.0
C1063 C 0.01616 0.80502 0.07607 0.0
C1064 C 0.01885 0.76086 0.04343 0.0
H1065 H 0.0354 0.74454 0.95799 0.0
C1066 C 0.00969 0.74737 0.05551 0.0
C1067 C 0.02839 0.75968 0.008 0.0
C1068 C 0.03936 0.77322 0.99448 0.0
C1069 C 0.00983 0.73281 0.03327 0.0
C1070 C 0.01912 0.73177 0.99741 0.0
C1071 C 0.02817 0.74531 0.98527 0.0
C1072 C 0.02058 0.71656 0.97315 0.0
C1073 C 1.00046 0.71852 0.04917 0.0
C1074 C 0.03595 0.71023 0.9649 0.0
C1075 C 0.03783 0.69676 0.93984 0.0
C1076 C 0.02438 0.68909 0.92252 0.0
C1077 C 0.00892 0.69514 0.9314 0.0
C1078 C 0.00704 0.70883 0.95626 0.0
H1079 H 0.99751 0.71992 0.0817 0.0
H1080 H 0.98895 0.71747 0.03241 0.0
H1081 H 0.00731 0.7071 0.04496 0.0
H1082 H 0.04661 0.71588 0.97749 0.0
H1083 H 0.04992 0.69239 0.93377 0.0
H1084 H 0.78913 0.02964 0.34988 0.0
H1085 H 0.76564 0.02779 0.39496 0.0
H1086 H 0.79727 0.02375 0.49731 0.0
H1087 H 0.82069 0.02593 0.45275 0.0
H1088 H 0.75699 1.0027 0.45323 0.0
H1089 H 0.76746 0.06268 0.52447 0.0
H1090 H 0.77684 0.0568 0.47744 0.0
H1091 H 0.78448 0.04922 0.52436 0.0
C1092 C 0.79106 0.02823 0.38198 0.0
C1093 C 0.80681 0.0276 0.39755 0.0
C1094 C 0.77764 0.02716 0.40768 0.0
C1095 C 0.77969 0.02572 0.44954 0.0
C1096 C 0.79539 0.02493 0.46514 0.0
H1097 H 0.71417 0.02788 0.6556 0.0
H1098 H 0.73769 0.02612 0.61084 0.0
C1099 C 0.8088 0.02592 0.43946 0.0
C1100 C 0.76544 0.02539 0.47698 0.0
H1101 H 0.74663 0.04662 0.55214 0.0
C1102 C 0.75468 0.01231 0.47481 0.0
C1103 C 0.76247 0.03792 0.5052 0.0
C1104 C 0.77332 0.05254 0.50797 0.0
C1105 C 0.74119 0.01126 0.5006 0.0
C1106 C 0.73814 0.02385 0.52871 0.0
C1107 C 0.74894 0.03694 0.53077 0.0
C1108 C 0.72378 0.02386 0.55599 0.0
C1109 C 0.73056 0.99648 0.49813 0.0
C1110 C 0.70808 0.02325 0.54024 0.0
C1111 C 0.69462 0.02413 0.56584 0.0
C1112 C 0.69655 0.02573 0.6078 0.0
C1113 C 0.71227 0.02645 0.62348 0.0
C1114 C 0.72572 0.02548 0.5979 0.0
H1115 H 0.73704 0.98606 0.48443 0.0
H1116 H 0.72609 0.99288 0.52842 0.0
H1117 H 0.71999 0.99921 0.47887 0.0
H1118 H 0.70621 0.02258 0.50798 0.0
H1119 H 0.68275 0.02423 0.55246 0.0
H1120 H 0.48227 0.11698 0.26524 0.0
H1121 H 0.45717 0.10429 0.28813 0.0
H1122 H 0.43819 0.10729 0.16746 0.0
H1123 H 0.46356 0.11951 0.14439 0.0
H1124 H 0.42396 0.1089 0.28832 0.0
H1125 H 0.44142 0.05889 0.18443 0.0
H1126 H 0.45463 0.07567 0.19495 0.0
H1127 H 0.4381 0.07805 0.16054 0.0
C1128 C 0.47242 0.11566 0.24409 0.0
C1129 C 0.47472 0.11949 0.20323 0.0
C1130 C 0.45812 0.10825 0.25707 0.0
C1131 C 0.44591 0.10444 0.22934 0.0
C1132 C 0.44755 0.10978 0.18929 0.0
H1133 H 0.37533 0.02613 0.26661 0.0
H1134 H 0.38589 0.05177 0.23958 0.0
C1135 C 0.46193 0.11705 0.17624 0.0
C1136 C 0.4327 0.09313 0.24132 0.0
H1137 H 0.41873 0.05472 0.2251 0.0
C1138 C 0.42267 0.09714 0.27412 0.0
C1139 C 0.43101 0.0777 0.22298 0.0
C1140 C 0.44192 0.0722 0.18902 0.0
C1141 C 0.41132 0.08605 0.28959 0.0
C1142 C 0.41006 0.07046 0.27213 0.0
C1143 C 0.41957 0.06672 0.23826 0.0
C1144 C 0.40076 0.05709 0.29148 0.0
C1145 C 0.40099 0.09103 0.32501 0.0
C1146 C 0.4052 0.05178 0.33004 0.0
C1147 C 0.39925 0.0372 0.3453 0.0
C1148 C 0.38864 0.02759 0.32251 0.0
C1149 C 0.38322 0.03344 0.28518 0.0
C1150 C 0.38936 0.04801 0.2696 0.0
H1151 H 0.39927 0.10436 0.32587 0.0
H1152 H 0.38899 0.08508 0.32405 0.0
H1153 H 0.40708 0.08743 0.35336 0.0
H1154 H 0.41422 0.05828 0.34721 0.0
H1155 H 0.40381 0.03288 0.37391 0.0
H1156 H 0.47857 0.37579 0.7637 0.0
H1157 H 0.45333 0.38601 0.73426 0.0
H1158 H 0.44584 0.41615 0.83896 0.0
H1159 H 0.47078 0.406 0.86823 0.0
H1160 H 0.41644 0.40393 0.80416 0.0
H1161 H 0.4576 0.43307 0.6925 0.0
H1162 H 0.45822 0.41138 0.69607 0.0
H1163 H 0.46507 0.42353 0.73756 0.0
C1164 C 0.47115 0.38405 0.78106 0.0
C1165 C 0.47663 0.39016 0.81813 0.0
C1166 C 0.45683 0.39002 0.76408 0.0
C1167 C 0.44785 0.40208 0.78413 0.0
C1168 C 0.45254 0.40689 0.8229 0.0
H1169 H 0.3884 0.48355 0.76438 0.0
H1170 H 0.3991 0.45722 0.78432 0.0
C1171 C 0.46681 0.40107 0.83962 0.0
C1172 C 0.43515 0.41156 0.76321 0.0
H1173 H 0.43093 0.44172 0.69389 0.0
C1174 C 0.41947 0.41196 0.77944 0.0
C1175 C 0.43913 0.42212 0.73112 0.0
C1176 C 0.45591 0.42267 0.71329 0.0
C1177 C 0.40785 0.42299 0.7653 0.0
C1178 C 0.41213 0.43416 0.73474 0.0
C1179 C 0.42756 0.43315 0.71718 0.0
C1180 C 0.40172 0.44813 0.72328 0.0
C1181 C 0.39121 0.42271 0.78373 0.0
C1182 C 0.39916 0.45178 0.68239 0.0
C1183 C 0.39317 0.46693 0.67106 0.0
C1184 C 0.3894 0.47862 0.70039 0.0
C1185 C 0.39069 0.47454 0.7413 0.0
C1186 C 0.39685 0.45944 0.75267 0.0
H1187 H 0.38799 0.41035 0.79407 0.0
H1188 H 0.39098 0.43079 0.81051 0.0
H1189 H 0.38194 0.42691 0.76207 0.0
H1190 H 0.40291 0.44336 0.6591 0.0
H1191 H 0.39271 0.46999 0.63931 0.0
H1192 H 0.13292 0.48263 0.26873 0.0
H1193 H 0.12131 0.45854 0.23616 0.0
H1194 H 0.09166 0.45013 0.34111 0.0
H1195 H 0.10315 0.47404 0.37347 0.0
H1196 H 0.10246 0.42059 0.29801 0.0
H1197 H 0.07357 0.46728 0.20117 0.0
H1198 H 0.09523 0.46715 0.20303 0.0
H1199 H 0.08385 0.47245 0.24727 0.0
C1200 C 0.12453 0.47517 0.28553 0.0
C1201 C 0.11893 0.48017 0.3236 0.0
C1202 C 0.11777 0.46151 0.26677 0.0
C1203 C 0.10542 0.45269 0.28599 0.0
C1204 C 0.10114 0.45672 0.32569 0.0
H1205 H 0.02344 0.39242 0.24512 0.0
H1206 H 0.0489 0.40321 0.27106 0.0
C1207 C 0.10776 0.47038 0.34422 0.0
C1208 C 0.09504 0.44121 0.26318 0.0
H1209 H 0.06456 0.44076 0.19432 0.0
C1210 C 0.09434 0.42489 0.2748 0.0
C1211 C 0.08435 0.44686 0.23317 0.0
C1212 C 0.08411 0.4644 0.22043 0.0
C1213 C 0.08312 0.41412 0.25748 0.0
C1214 C 0.072 0.41994 0.22856 0.0
C1215 C 0.07309 0.43617 0.21623 0.0
C1216 C 0.05837 0.41003 0.21247 0.0
C1217 C 0.08331 0.39665 0.27044 0.0
C1218 C 0.05517 0.40992 0.17084 0.0
C1219 C 0.04049 0.40403 0.1562 0.0
C1220 C 0.02883 0.3978 0.18274 0.0
C1221 C 0.03246 0.39671 0.22395 0.0
C1222 C 0.04705 0.4029 0.23877 0.0
H1223 H 0.09557 0.39291 0.28009 0.0
H1224 H 0.0751 0.3951 0.29664 0.0
H1225 H 0.07928 0.38849 0.24582 0.0
H1226 H 0.06361 0.41537 0.14985 0.0
H1227 H 0.03781 0.40532 0.12441 0.0
H1228 H 0.11403 0.02213 0.76749 0.0
H1229 H 0.10184 0.04814 0.78582 0.0
H1230 H 0.10507 0.06351 0.6619 0.0
H1231 H 0.11709 0.03737 0.64353 0.0
H1232 H 0.10793 0.08234 0.77647 0.0
H1233 H 0.05623 0.06063 0.6844 0.0
H1234 H 0.07275 0.04761 0.69814 0.0
H1235 H 0.07522 0.06217 0.65845 0.0
C1236 C 0.11293 0.0314 0.7446 0.0
C1237 C 0.11685 0.02788 0.70427 0.0
C1238 C 0.10579 0.04621 0.755 0.0
C1239 C 0.10225 0.0577 0.72514 0.0
C1240 C 0.1075 0.05478 0.68541 0.0
H1241 H 0.02462 0.12947 0.74676 0.0
H1242 H 0.04969 0.11731 0.72092 0.0
C1243 C 0.11464 0.03994 0.67501 0.0
C1244 C 0.09126 0.0715 0.73477 0.0
H1245 H 0.05283 0.08505 0.71913 0.0
C1246 C 0.09595 0.08307 0.76356 0.0
C1247 C 0.07558 0.07246 0.71805 0.0
C1248 C 0.06952 0.06002 0.68829 0.0
C1249 C 0.08533 0.09537 0.77648 0.0
C1250 C 0.06946 0.09598 0.7608 0.0
C1251 C 0.06501 0.08474 0.73097 0.0
C1252 C 0.05663 0.10673 0.77798 0.0
C1253 C 0.0912 0.10752 0.80705 0.0
C1254 C 0.05246 0.10546 0.81894 0.0
C1255 C 0.03828 0.11252 0.83366 0.0
C1256 C 0.02791 0.12106 0.80788 0.0
C1257 C 0.03263 0.12341 0.76759 0.0
C1258 C 0.04685 0.11626 0.75272 0.0
H1259 H 0.10445 0.10929 0.8046 0.0
H1260 H 0.08516 0.11941 0.80334 0.0
H1261 H 0.08858 0.10295 0.83783 0.0
H1262 H 0.05943 0.09788 0.83895 0.0
H1263 H 0.03469 0.11012 0.86455 0.0
H1264 H 0.61877 0.98156 0.75167 0.0
H1265 H 0.60669 0.95592 0.77302 0.0
H1266 H 0.59856 0.94311 0.64853 0.0
H1267 H 0.61006 0.96903 0.62749 0.0
H1268 H 0.57148 0.94303 0.68841 0.0
H1269 H 0.61505 0.90833 0.77931 0.0
H1270 H 0.61332 0.92879 0.79682 0.0
H1271 H 0.62119 0.92481 0.74705 0.0
C1272 C 0.6152 0.97287 0.72889 0.0
C1273 C 0.61565 0.9771 0.68791 0.0
C1274 C 0.60822 0.95818 0.74109 0.0
C1275 C 0.60175 0.9474 0.71244 0.0
C1276 C 0.60348 0.95112 0.67128 0.0
H1277 H 0.5238 0.87608 0.74876 0.0
H1278 H 0.54886 0.88722 0.72006 0.0
C1279 C 0.61023 0.96586 0.65919 0.0
C1280 C 0.59081 0.93396 0.72523 0.0
H1281 H 0.58679 0.90228 0.79088 0.0
C1282 C 0.57499 0.93388 0.71009 0.0
C1283 C 0.59524 0.92207 0.75385 0.0
C1284 C 0.61218 0.92089 0.76987 0.0
C1285 C 0.56334 0.92287 0.72402 0.0
C1286 C 0.5676 0.91132 0.75361 0.0
C1287 C 0.58354 0.91103 0.76797 0.0
C1288 C 0.5551 0.90103 0.77334 0.0
C1289 C 0.54628 0.92434 0.70862 0.0
C1290 C 0.55092 0.90413 0.81364 0.0
C1291 C 0.53677 0.89768 0.83002 0.0
C1292 C 0.52657 0.88786 0.80663 0.0
C1293 C 0.53157 0.88338 0.76766 0.0
C1294 C 0.54577 0.88993 0.7511 0.0
H1295 H 0.54441 0.93562 0.69109 0.0
H1296 H 0.54357 0.91392 0.68862 0.0
H1297 H 0.53753 0.92416 0.73405 0.0
H1298 H 0.55789 0.91261 0.83143 0.0
H1299 H 0.5331 0.90145 0.86001 0.0
H1300 H 0.54186 0.61685 0.12958 0.0
H1301 H 0.56711 0.6049 0.15363 0.0
H1302 H 0.54936 0.60747 0.27594 0.0
H1303 H 0.52454 0.62022 0.252 0.0
H1304 H 0.58204 0.60971 0.27448 0.0
H1305 H 0.56222 0.55786 0.17968 0.0
H1306 H 0.56655 0.57592 0.15183 0.0
H1307 H 0.54993 0.57558 0.1869 0.0
C1308 C 0.54377 0.61566 0.16175 0.0
C1309 C 0.53138 0.61963 0.18902 0.0
C1310 C 0.55806 0.60855 0.17546 0.0
C1311 C 0.55992 0.60472 0.21648 0.0
C1312 C 0.54821 0.61018 0.24412 0.0
H1313 H 0.59742 0.53377 0.36807 0.0
H1314 H 0.58853 0.55936 0.33919 0.0
C1315 C 0.53407 0.61761 0.23048 0.0
C1316 C 0.57266 0.59321 0.22998 0.0
H1317 H 0.58507 0.55396 0.21932 0.0
C1318 C 0.58284 0.59759 0.26203 0.0
C1319 C 0.57368 0.57728 0.21404 0.0
C1320 C 0.56244 0.57128 0.18151 0.0
C1321 C 0.59367 0.58642 0.27909 0.0
C1322 C 0.59433 0.57044 0.26379 0.0
C1323 C 0.58471 0.56628 0.23067 0.0
C1324 C 0.60295 0.55716 0.28494 0.0
C1325 C 0.60405 0.59167 0.31397 0.0
C1326 C 0.6144 0.54753 0.26462 0.0
C1327 C 0.61969 0.53289 0.28145 0.0
C1328 C 0.6133 0.52753 0.31839 0.0
C1329 C 0.60265 0.53769 0.33972 0.0
C1330 C 0.5976 0.55236 0.32327 0.0
H1331 H 0.60594 0.60498 0.31398 0.0
H1332 H 0.59795 0.58838 0.34266 0.0
H1333 H 0.61596 0.58555 0.31312 0.0
H1334 H 0.61854 0.5509 0.23477 0.0
H1335 H 0.62768 0.52517 0.26409 0.0
H1336 H 0.97501 0.62538 0.78424 0.0
H1337 H 0.9482 0.61628 0.76193 0.0
H1338 H 0.95009 0.57688 0.84678 0.0
H1339 H 0.9768 0.58571 0.86842 0.0
H1340 H 0.94596 0.58395 0.72879 0.0
H1341 H 0.90245 0.59255 0.8541 0.0
H1342 H 0.92066 0.60444 0.84911 0.0
H1343 H 0.92152 0.58431 0.86939 0.0
C1344 C 0.96937 0.6152 0.79921 0.0
C1345 C 0.97791 0.60629 0.82819 0.0
C1346 C 0.95411 0.60995 0.78631 0.0
C1347 C 0.94705 0.59598 0.80295 0.0
C1348 C 0.95511 0.58785 0.83402 0.0
H1349 H 0.88766 0.51624 0.76167 0.0
H1350 H 0.90038 0.54035 0.79005 0.0
C1351 C 0.9704 0.59289 0.84633 0.0
C1352 C 0.93283 0.58818 0.7838 0.0
H1353 H 0.8958 0.57209 0.80517 0.0
C1354 C 0.93479 0.58169 0.74497 0.0
C1355 C 0.9184 0.58507 0.80525 0.0
C1356 C 0.91552 0.59207 0.84667 0.0
C1357 C 0.92324 0.57125 0.72809 0.0
C1358 C 0.90895 0.56767 0.75008 0.0
C1359 C 0.90664 0.57488 0.78813 0.0
C1360 C 0.89748 0.55489 0.73631 0.0
C1361 C 0.92711 0.56322 0.68824 0.0
C1362 C 0.89052 0.55534 0.69769 0.0
C1363 C 0.8833 0.54145 0.68135 0.0
C1364 C 0.88249 0.52711 0.7039 0.0
C1365 C 0.88778 0.52727 0.74406 0.0
C1366 C 0.8952 0.54103 0.76015 0.0
H1367 H 0.94004 0.56454 0.67989 0.0
H1368 H 0.92419 0.55011 0.68915 0.0
H1369 H 0.91984 0.56889 0.66407 0.0
H1370 H 0.89173 0.56601 0.67905 0.0
H1371 H 0.87964 0.54151 0.65002 0.0
H1372 H 0.88394 0.98325 0.24896 0.0
H1373 H 0.89579 0.95767 0.22619 0.0
H1374 H 0.90223 0.94315 0.34999 0.0
H1375 H 0.89091 0.96898 0.37252 0.0
H1376 H 0.9298 0.94295 0.31175 0.0
H1377 H 0.88641 0.91034 0.21533 0.0
H1378 H 0.88869 0.93097 0.19981 0.0
H1379 H 0.8803 0.92651 0.24875 0.0
C1380 C 0.88707 0.9742 0.2712 0.0
C1381 C 0.88615 0.97791 0.31249 0.0
C1382 C 0.89393 0.95955 0.25819 0.0
C1383 C 0.89986 0.94829 0.28629 0.0
C1384 C 0.89771 0.95152 0.32763 0.0
H1385 H 0.97698 0.87602 0.24576 0.0
H1386 H 0.95225 0.88746 0.27566 0.0
C1387 C 0.89104 0.96621 0.34056 0.0
C1388 C 0.91065 0.93477 0.27302 0.0
H1389 H 0.91463 0.9039 0.20472 0.0
C1390 C 0.92632 0.93417 0.28903 0.0
C1391 C 0.90625 0.92334 0.24311 0.0
C1392 C 0.88943 0.92271 0.22607 0.0
C1393 C 0.93789 0.92312 0.27467 0.0
C1394 C 0.93368 0.91207 0.24374 0.0
C1395 C 0.91786 0.91227 0.22861 0.0
C1396 C 0.94615 0.90187 0.22342 0.0
C1397 C 0.95483 0.92408 0.29107 0.0
C1398 C 0.95029 0.90522 0.18325 0.0
C1399 C 0.96425 0.89861 0.16618 0.0
C1400 C 0.97432 0.88838 0.18871 0.0
C1401 C 0.96935 0.8837 0.22753 0.0
C1402 C 0.95534 0.89042 0.24479 0.0
H1403 H 0.95677 0.93511 0.30966 0.0
H1404 H 0.95717 0.91338 0.31032 0.0
H1405 H 0.9638 0.92404 0.26611 0.0
H1406 H 0.94342 0.91394 0.16605 0.0
H1407 H 0.96782 0.90249 0.13624 0.0
H1408 H 0.58152 0.05253 0.74645 0.0
H1409 H 0.57405 0.06857 0.80491 0.0
H1410 H 0.62411 0.07352 0.8372 0.0
H1411 H 0.63189 0.05729 0.77781 0.0
H1412 H 0.58198 0.05983 0.8866 0.0
H1413 H 0.6048 0.1208 0.84296 0.0
H1414 H 0.60098 0.10519 0.80596 0.0
H1415 H 0.61818 0.10371 0.83833 0.0
C1416 C 0.59107 0.05703 0.76564 0.0
C1417 C 0.60736 0.05349 0.75733 0.0
C1418 C 0.58672 0.06626 0.79916 0.0
C1419 C 0.59849 0.07231 0.82532 0.0
C1420 C 0.61483 0.0691 0.81708 0.0
H1421 H 0.57225 0.11856 0.05629 0.0
H1422 H 0.58903 0.10892 0.99972 0.0
C1423 C 0.61925 0.05977 0.78326 0.0
C1424 C 0.5932 0.08116 0.8621 0.0
H1425 H 0.5896 0.11902 0.90311 0.0
C1426 C 0.58386 0.07273 0.89052 0.0
C1427 C 0.59564 0.09799 0.86709 0.0
C1428 C 0.60538 0.10758 0.83701 0.0
C1429 C 0.57647 0.08073 0.92301 0.0
C1430 C 0.57832 0.09765 0.92707 0.0
C1431 C 0.58819 0.10605 0.89973 0.0
C1432 C 0.5691 0.10666 0.95821 0.0
C1433 C 0.56628 0.07114 0.95223 0.0
C1434 C 0.55249 0.10911 0.95302 0.0
C1435 C 0.54297 0.11464 0.98508 0.0
C1436 C 0.54993 0.1179 0.02272 0.0
C1437 C 0.56671 0.11645 0.02722 0.0
C1438 C 0.57626 0.11088 0.99507 0.0
H1439 H 0.56819 0.0579 0.94891 0.0
H1440 H 0.56901 0.0747 0.98379 0.0
H1441 H 0.55334 0.07377 0.94673 0.0
H1442 H 0.54675 0.10581 0.92488 0.0
H1443 H 0.53002 0.1154 0.98124 0.0
H1444 H 0.39029 0.57634 0.55262 0.0
H1445 H 0.39946 0.5912 0.49251 0.0
H1446 H 0.41129 0.54599 0.43432 0.0
H1447 H 0.40226 0.53123 0.49434 0.0
H1448 H 0.43717 0.56834 0.44125 0.0
H1449 H 0.38267 0.59714 0.37512 0.0
H1450 H 0.38559 0.59946 0.42859 0.0
H1451 H 0.38145 0.5798 0.40812 0.0
C1452 C 0.39432 0.56963 0.52635 0.0
C1453 C 0.39546 0.5527 0.52767 0.0
C1454 C 0.39957 0.5781 0.49212 0.0
C1455 C 0.40597 0.56969 0.45885 0.0
C1456 C 0.40632 0.55271 0.45956 0.0
H1457 H 0.45663 0.58277 0.23885 0.0
H1458 H 0.44148 0.57427 0.29803 0.0
C1459 C 0.40111 0.54429 0.49367 0.0
C1460 C 0.41411 0.57841 0.42538 0.0
H1461 H 0.40774 0.60296 0.3441 0.0
C1462 C 0.43073 0.57597 0.42014 0.0
C1463 C 0.40573 0.58853 0.39823 0.0
C1464 C 0.38785 0.59138 0.40241 0.0
C1465 C 0.43914 0.58304 0.38795 0.0
C1466 C 0.43069 0.59262 0.35981 0.0
C1467 C 0.41417 0.59559 0.36575 0.0
C1468 C 0.43867 0.59838 0.3224 0.0
C1469 C 0.45703 0.58002 0.38398 0.0
C1470 C 0.44172 0.61488 0.31583 0.0
C1471 C 0.45048 0.61988 0.28171 0.0
C1472 C 0.45625 0.60841 0.25368 0.0
C1473 C 0.45259 0.59197 0.2599 0.0
C1474 C 0.4439 0.58704 0.29377 0.0
H1475 H 0.46241 0.57613 0.41303 0.0
H1476 H 0.45911 0.57026 0.36152 0.0
H1477 H 0.4634 0.59104 0.37336 0.0
H1478 H 0.43772 0.62382 0.3376 0.0
H1479 H 0.45301 0.63263 0.27776 0.0
H1480 H 0.97376 0.40244 0.96925 0.0
H1481 H 0.95689 0.40777 0.91013 0.0
H1482 H 0.91447 0.39496 0.9787 0.0
H1483 H 0.93139 0.38981 0.03809 0.0
H1484 H 0.93309 0.38869 0.86656 0.0
H1485 H 0.90724 0.44269 0.94428 0.0
H1486 H 0.92509 0.43258 0.96236 0.0
H1487 H 0.90561 0.4236 0.96989 0.0
C1488 C 0.96087 0.40042 0.97127 0.0
C1489 C 0.95382 0.39564 0.00784 0.0
C1490 C 0.95126 0.40346 0.93763 0.0
C1491 C 0.93443 0.40191 0.94021 0.0
C1492 C 0.92742 0.39635 0.97624 0.0
H1493 H 0.87068 0.44771 0.76182 0.0
H1494 H 0.87865 0.43013 0.81794 0.0
C1495 C 0.93707 0.39329 0.00993 0.0
C1496 C 0.92434 0.40744 0.90613 0.0
H1497 H 0.90033 0.43876 0.87661 0.0
C1498 C 0.92572 0.3995 0.86884 0.0
C1499 C 0.91467 0.42149 0.90928 0.0
C1500 C 0.91307 0.43071 0.94845 0.0
C1501 C 0.91813 0.40557 0.83423 0.0
C1502 C 0.90923 0.42014 0.83689 0.0
C1503 C 0.90714 0.42758 0.87464 0.0
C1504 C 0.9038 0.42899 0.8005 0.0
C1505 C 0.92001 0.3965 0.79498 0.0
C1506 C 0.91526 0.43413 0.77209 0.0
C1507 C 0.91079 0.44416 0.74028 0.0
C1508 C 0.89473 0.4494 0.73621 0.0
C1509 C 0.88313 0.44386 0.764 0.0
C1510 C 0.88766 0.43383 0.79608 0.0
H1511 H 0.92185 0.38337 0.80031 0.0
H1512 H 0.9093 0.39811 0.77535 0.0
H1513 H 0.93078 0.40112 0.77872 0.0
H1514 H 0.92785 0.43091 0.77538 0.0
H1515 H 0.92007 0.44814 0.71946 0.0
H1516 H 0.0518 0.92281 0.23359 0.0
H1517 H 0.06667 0.93149 0.2928 0.0
H1518 H 0.06646 0.88267 0.33816 0.0
H1519 H 0.05142 0.87369 0.27826 0.0
H1520 H 0.05446 0.92759 0.37366 0.0
H1521 H 0.11444 0.89856 0.35095 0.0
H1522 H 0.10064 0.90186 0.30972 0.0
H1523 H 0.09671 0.88615 0.34561 0.0
C1524 C 0.05497 0.91378 0.25582 0.0
C1525 C 0.05027 0.89751 0.25111 0.0
C1526 C 0.06354 0.91882 0.28973 0.0
C1527 C 0.06774 0.90775 0.31985 0.0
C1528 C 0.0635 0.89139 0.31502 0.0
H1529 H 0.11326 0.93119 0.55219 0.0
H1530 H 0.10334 0.91626 0.4929 0.0
C1531 C 0.05486 0.88629 0.28084 0.0
C1532 C 0.07554 0.91387 0.35722 0.0
H1533 H 0.11124 0.9151 0.40852 0.0
C1534 C 0.06684 0.92477 0.38142 0.0
C1535 C 0.09165 0.91009 0.36745 0.0
C1536 C 0.10153 0.89859 0.34211 0.0
C1537 C 0.07388 0.93224 0.41509 0.0
C1538 C 0.09022 0.92904 0.42439 0.0
C1539 C 0.09878 0.91768 0.40109 0.0
C1540 C 0.09853 0.93773 0.45772 0.0
C1541 C 0.06369 0.94352 0.44045 0.0
C1542 C 0.0998 0.95468 0.45692 0.0
C1543 C 0.10542 0.96315 0.49059 0.0
C1544 C 0.11014 0.95481 0.5254 0.0
C1545 C 0.10989 0.93782 0.52536 0.0
C1546 C 0.10416 0.92932 0.49166 0.0
H1547 H 0.05061 0.94114 0.43643 0.0
H1548 H 0.06664 0.94236 0.47296 0.0
H1549 H 0.06607 0.95619 0.43116 0.0
H1550 H 0.09578 0.96141 0.43082 0.0
H1551 H 0.10538 0.97625 0.49018 0.0
H1552 H 0.57587 0.38448 0.95513 0.0
H1553 H 0.59242 0.39141 0.01411 0.0
H1554 H 0.54922 0.39647 0.08601 0.0
H1555 H 0.53283 0.38937 0.02738 0.0
H1556 H 0.59028 0.42076 0.05049 0.0
H1557 H 0.57862 0.37344 0.16417 0.0
H1558 H 0.57424 0.37057 0.1113 0.0
H1559 H 0.56017 0.38106 0.14358 0.0
C1560 C 0.57005 0.38644 0.98404 0.0
C1561 C 0.55317 0.38615 0.98722 0.0
C1562 C 0.57946 0.3905 0.01756 0.0
C1563 C 0.57209 0.39424 0.05467 0.0
C1564 C 0.55523 0.3932 0.0581 0.0
H1565 H 0.58047 0.44954 0.26395 0.0
H1566 H 0.57446 0.43174 0.20744 0.0
C1567 C 0.54586 0.38918 0.02464 0.0
C1568 C 0.58157 0.40141 0.08814 0.0
H1569 H 0.58651 0.39976 0.19022 0.0
C1570 C 0.58984 0.41596 0.0809 0.0
C1571 C 0.58099 0.39514 0.12777 0.0
C1572 C 0.57316 0.3791 0.13709 0.0
C1573 C 0.59649 0.425 0.11266 0.0
C1574 C 0.59499 0.41922 0.1526 0.0
C1575 C 0.58758 0.4042 0.15956 0.0
C1576 C 0.59925 0.42943 0.18778 0.0
C1577 C 0.60413 0.44118 0.10361 0.0
C1578 C 0.61525 0.43396 0.19571 0.0
C1579 C 0.61878 0.44425 0.22819 0.0
C1580 C 0.60634 0.45016 0.25319 0.0
C1581 C 0.59037 0.44534 0.24531 0.0
C1582 C 0.5869 0.43508 0.21308 0.0
H1583 H 0.60237 0.44488 0.07174 0.0
H1584 H 0.59901 0.45068 0.12361 0.0
H1585 H 0.61727 0.44049 0.10945 0.0
H1586 H 0.62498 0.42958 0.17673 0.0
H1587 H 0.63121 0.44764 0.23352 0.0
H1588 H 0.12604 0.58169 0.45349 0.0
H1589 H 0.11752 0.6007 0.50661 0.0
H1590 H 0.10662 0.56045 0.58478 0.0
H1591 H 0.11524 0.54161 0.53197 0.0
H1592 H 0.08666 0.60144 0.534 0.0
H1593 H 0.12706 0.59176 0.66358 0.0
H1594 H 0.13232 0.5854 0.61303 0.0
H1595 H 0.11967 0.57289 0.64439 0.0
C1596 C 0.12248 0.57702 0.48271 0.0
C1597 C 0.12153 0.56027 0.48913 0.0
C1598 C 0.1175 0.58784 0.51288 0.0
C1599 C 0.11161 0.58204 0.54995 0.0
C1600 C 0.11151 0.56528 0.55695 0.0
H1601 H 0.03476 0.59945 0.70054 0.0
H1602 H 0.05327 0.59611 0.64389 0.0
C1603 C 0.11642 0.5545 0.5268 0.0
C1604 C 0.10339 0.59306 0.579 0.0
H1605 H 0.09991 0.60108 0.67973 0.0
C1606 C 0.08982 0.6017 0.56571 0.0
C1607 C 0.10757 0.59365 0.62031 0.0
C1608 C 0.12256 0.58556 0.63607 0.0
C1609 C 0.07962 0.60975 0.59307 0.0
C1610 C 0.08296 0.609 0.63482 0.0
C1611 C 0.09725 0.60154 0.64775 0.0
C1612 C 0.0707 0.61353 0.66563 0.0
C1613 C 0.06497 0.61842 0.57717 0.0
C1614 C 0.07416 0.62469 0.69651 0.0
C1615 C 0.0634 0.62677 0.72895 0.0
C1616 C 0.04926 0.61743 0.73125 0.0
C1617 C 0.04551 0.6069 0.69932 0.0
C1618 C 0.05608 0.60501 0.66685 0.0
H1619 H 0.06701 0.62274 0.54585 0.0
H1620 H 0.05462 0.60991 0.57663 0.0
H1621 H 0.0617 0.62891 0.59653 0.0
H1622 H 0.08545 0.63128 0.69633 0.0
H1623 H 0.06669 0.63475 0.75353 0.0
H1624 H 0.87302 0.05715 0.22713 0.0
H1625 H 0.88138 0.07324 0.16815 0.0
H1626 H 0.93073 0.07129 0.20809 0.0
H1627 H 0.92268 0.05539 0.26633 0.0
H1628 H 0.90141 0.10433 0.1633 0.0
H1629 H 0.92987 0.05065 0.09188 0.0
H1630 H 0.91478 0.04901 0.1311 0.0
H1631 H 0.93531 0.05374 0.14373 0.0
C1632 C 0.88562 0.06027 0.22347 0.0
C1633 C 0.89717 0.05477 0.25131 0.0
C1634 C 0.89037 0.06948 0.18983 0.0
C1635 C 0.90671 0.07327 0.18356 0.0
C1636 C 0.9181 0.06833 0.21208 0.0
H1637 H 0.97414 0.112 0.01632 0.0
H1638 H 0.95894 0.10258 0.07525 0.0
C1639 C 0.91342 0.05919 0.24543 0.0
C1640 C 0.91233 0.08167 0.14653 0.0
H1641 H 0.93724 0.07634 0.0654 0.0
C1642 C 0.90903 0.09821 0.14145 0.0
C1643 C 0.92225 0.07363 0.1181 0.0
C1644 C 0.92568 0.05574 0.12113 0.0
C1645 C 0.91611 0.10708 0.10968 0.0
C1646 C 0.9266 0.09913 0.08235 0.0
C1647 C 0.92933 0.08247 0.08663 0.0
C1648 C 0.93551 0.10777 0.04987 0.0
C1649 C 0.91289 0.12498 0.10649 0.0
C1650 C 0.92741 0.11433 0.01651 0.0
C1651 C 0.93614 0.11986 0.98291 0.0
C1652 C 0.95304 0.11886 0.98229 0.0
C1653 C 0.96112 0.11313 0.01649 0.0
C1654 C 0.95244 0.10766 0.04997 0.0
H1655 H 0.90671 0.12981 0.13375 0.0
H1656 H 0.92435 0.1317 0.10189 0.0
H1657 H 0.9051 0.12728 0.07997 0.0
H1658 H 0.91436 0.11426 0.01544 0.0
H1659 H 0.92967 0.12387 0.95642 0.0
H1660 H 0.38175 0.92567 0.44981 0.0
H1661 H 0.38912 0.90833 0.50707 0.0
H1662 H 0.3926 0.95058 0.58318 0.0
H1663 H 0.3851 0.96774 0.52624 0.0
H1664 H 0.41825 0.91075 0.54356 0.0
H1665 H 0.37073 0.91908 0.6587 0.0
H1666 H 0.36774 0.92425 0.60634 0.0
H1667 H 0.37772 0.93817 0.63991 0.0
C1668 C 0.38343 0.93108 0.47928 0.0
C1669 C 0.38259 0.94793 0.48408 0.0
C1670 C 0.38776 0.92123 0.51183 0.0
C1671 C 0.39122 0.92811 0.54964 0.0
C1672 C 0.38958 0.94491 0.55473 0.0
H1673 H 0.44694 0.91989 0.75567 0.0
H1674 H 0.42878 0.92531 0.70001 0.0
C1675 C 0.38529 0.95473 0.52223 0.0
C1676 C 0.39869 0.91829 0.58215 0.0
H1677 H 0.39727 0.91181 0.68379 0.0
C1678 C 0.41346 0.91058 0.57404 0.0
C1679 C 0.39243 0.91804 0.6219 0.0
C1680 C 0.37619 0.92519 0.63213 0.0
C1681 C 0.4227 0.90375 0.60511 0.0
C1682 C 0.41693 0.9045 0.64526 0.0
C1683 C 0.40171 0.91129 0.65299 0.0
C1684 C 0.42742 0.90044 0.68 0.0
C1685 C 0.43907 0.89678 0.59524 0.0
C1686 C 0.43262 0.88456 0.68756 0.0
C1687 C 0.44313 0.88134 0.71971 0.0
C1688 C 0.44862 0.894 0.74462 0.0
C1689 C 0.44311 0.90981 0.73708 0.0
C1690 C 0.43263 0.91297 0.7053 0.0
H1691 H 0.44252 0.89875 0.56322 0.0
H1692 H 0.44842 0.90229 0.61486 0.0
H1693 H 0.43897 0.88357 0.60107 0.0
H1694 H 0.42861 0.87468 0.66855 0.0
H1695 H 0.44707 0.86902 0.72476 0.0
H1696 H 0.42756 0.88675 0.94878 0.0
H1697 H 0.41157 0.89648 0.0067 0.0
H1698 H 0.45526 0.90276 0.07512 0.0
H1699 H 0.47117 0.89322 0.01731 0.0
H1700 H 0.41026 0.88826 0.09648 0.0
H1701 H 0.43459 0.94902 0.0592 0.0
H1702 H 0.43522 0.9323 0.02409 0.0
H1703 H 0.44961 0.93351 0.06437 0.0
C1704 C 0.43362 0.88964 0.97679 0.0
C1705 C 0.45052 0.88912 0.97901 0.0
C1706 C 0.42452 0.89527 0.00969 0.0
C1707 C 0.43227 0.9005 0.04498 0.0
C1708 C 0.44907 0.89886 0.04807 0.0
H1709 H 0.41985 0.95034 0.2634 0.0
H1710 H 0.42722 0.9349 0.20383 0.0
C1711 C 0.45813 0.8933 0.01525 0.0
C1712 C 0.42325 0.90937 0.0768 0.0
H1713 H 0.42116 0.94639 0.12233 0.0
C1714 C 0.41242 0.90101 0.1019 0.0
C1715 C 0.42596 0.92606 0.08339 0.0
C1716 C 0.43686 0.93583 0.05616 0.0
C1717 C 0.40497 0.90877 0.13498 0.0
C1718 C 0.40836 0.92526 0.14269 0.0
C1719 C 0.4186 0.93373 0.1164 0.0
C1720 C 0.40302 0.93358 0.18014 0.0
C1721 C 0.39415 0.89917 0.16264 0.0
C1722 C 0.38683 0.93791 0.18688 0.0
C1723 C 0.38248 0.94689 0.22131 0.0
C1724 C 0.39428 0.95172 0.24932 0.0
C1725 C 0.41039 0.947 0.24254 0.0
C1726 C 0.41468 0.9381 0.20843 0.0
H1727 H 0.39386 0.88612 0.15454 0.0
H1728 H 0.39828 0.90041 0.19433 0.0
H1729 H 0.38169 0.90401 0.16104 0.0
H1730 H 0.37767 0.93468 0.16512 0.0
H1731 H 0.36998 0.95032 0.22556 0.0
H1732 H 0.55465 0.37171 0.72995 0.0
H1733 H 0.57278 0.37823 0.67338 0.0
H1734 H 0.57496 0.42781 0.71358 0.0
H1735 H 0.55709 0.42152 0.76965 0.0
H1736 H 0.56681 0.4015 0.61252 0.0
H1737 H 0.62259 0.41649 0.69549 0.0
H1738 H 0.60632 0.40497 0.71777 0.0
H1739 H 0.60523 0.4267 0.71563 0.0
C1740 C 0.55912 0.38395 0.72691 0.0
C1741 C 0.55437 0.39608 0.75437 0.0
C1742 C 0.56949 0.38765 0.69463 0.0
C1743 C 0.57546 0.40345 0.68973 0.0
C1744 C 0.57082 0.41547 0.71728 0.0
H1745 H 0.61332 0.47075 0.52723 0.0
H1746 H 0.6059 0.45405 0.58539 0.0
C1747 C 0.56044 0.41185 0.74918 0.0
C1748 C 0.58552 0.40794 0.65434 0.0
H1749 H 0.62015 0.42791 0.62877 0.0
C1750 C 0.57866 0.40691 0.61582 0.0
C1751 C 0.60095 0.41502 0.6588 0.0
C1752 C 0.60928 0.41573 0.69913 0.0
C1753 C 0.58629 0.4138 0.58207 0.0
C1754 C 0.60135 0.42166 0.58692 0.0
C1755 C 0.60861 0.4219 0.62509 0.0
C1756 C 0.60872 0.43126 0.55384 0.0
C1757 C 0.57768 0.41358 0.54203 0.0
C1758 C 0.6135 0.42397 0.51738 0.0
C1759 C 0.61781 0.43353 0.4842 0.0
C1760 C 0.6175 0.45047 0.48726 0.0
C1761 C 0.61383 0.4577 0.52448 0.0
C1762 C 0.60953 0.44817 0.55757 0.0
H1763 H 0.56497 0.40946 0.54498 0.0
H1764 H 0.57775 0.4258 0.5282 0.0
H1765 H 0.58401 0.4052 0.52114 0.0
H1766 H 0.61315 0.41094 0.51404 0.0
H1767 H 0.62039 0.42775 0.45555 0.0
H1768 H 0.04499 0.58252 0.98965 0.0
H1769 H 0.06128 0.5763 0.04897 0.0
H1770 H 0.09465 0.61424 0.01675 0.0
H1771 H 0.07831 0.62044 0.95689 0.0
H1772 H 0.09457 0.56705 0.04754 0.0
H1773 H 0.08343 0.62296 0.13761 0.0
H1774 H 0.07051 0.61702 0.09644 0.0
H1775 H 0.09009 0.62529 0.08621 0.0
C1776 C 0.05577 0.58957 0.99536 0.0
C1777 C 0.0604 0.60199 0.96899 0.0
C1778 C 0.06504 0.58603 0.02918 0.0
C1779 C 0.07911 0.59487 0.03732 0.0
C1780 C 0.08371 0.60743 0.01125 0.0
H1781 H 0.13929 0.55319 0.23135 0.0
H1782 H 0.13343 0.56752 0.16818 0.0
C1783 C 0.07439 0.61098 0.97725 0.0
C1784 C 0.08901 0.59042 0.07265 0.0
H1785 H 0.09842 0.6023 0.16837 0.0
C1786 C 0.0957 0.57484 0.07376 0.0
C1787 C 0.0904 0.60065 0.10666 0.0
C1788 C 0.08318 0.6174 0.10709 0.0
C1789 C 0.10303 0.56887 0.10877 0.0
C1790 C 0.10385 0.57886 0.14338 0.0
C1791 C 0.09787 0.59474 0.14162 0.0
C1792 C 0.10843 0.57218 0.18313 0.0
C1793 C 0.10887 0.55158 0.10929 0.0
C1794 C 0.0965 0.5706 0.21287 0.0
C1795 C 0.09977 0.56249 0.24868 0.0
C1796 C 0.1151 0.55579 0.25569 0.0
C1797 C 0.12734 0.55812 0.22676 0.0
C1798 C 0.124 0.56625 0.19064 0.0
H1799 H 0.10538 0.54484 0.08162 0.0
H1800 H 0.12221 0.55143 0.11154 0.0
H1801 H 0.10391 0.54511 0.13592 0.0
H1802 H 0.08441 0.57511 0.20769 0.0
H1803 H 0.0901 0.56111 0.27046 0.0
H1804 H 0.94633 0.08916 0.76107 0.0
H1805 H 0.92931 0.08303 0.70363 0.0
H1806 H 0.93347 0.13232 0.66266 0.0
H1807 H 0.95086 0.13867 0.72072 0.0
H1808 H 0.89961 0.09695 0.67834 0.0
H1809 H 0.94884 0.10459 0.56501 0.0
H1810 H 0.95295 0.10273 0.61822 0.0
H1811 H 0.94476 0.12119 0.5987 0.0
C1812 C 0.94367 0.0988 0.74004 0.0
C1813 C 0.95015 0.11441 0.74541 0.0
C1814 C 0.93383 0.09525 0.70721 0.0
C1815 C 0.93023 0.10714 0.6786 0.0
C1816 C 0.93626 0.1229 0.68417 0.0
H1817 H 0.88801 0.07869 0.44535 0.0
H1818 H 0.89593 0.09656 0.50135 0.0
C1819 C 0.94612 0.12653 0.71742 0.0
C1820 C 0.92063 0.10247 0.64258 0.0
H1821 H 0.92457 0.09334 0.54248 0.0
C1822 C 0.90495 0.09644 0.64845 0.0
C1823 C 0.92758 0.10182 0.60358 0.0
C1824 C 0.94448 0.10783 0.5957 0.0
C1825 C 0.89633 0.08916 0.6168 0.0
C1826 C 0.90367 0.0876 0.57841 0.0
C1827 C 0.91896 0.09449 0.57194 0.0
C1828 C 0.89654 0.07746 0.54588 0.0
C1829 C 0.87956 0.08287 0.62503 0.0
C1830 C 0.89404 0.06085 0.55235 0.0
C1831 C 0.88949 0.05071 0.52053 0.0
C1832 C 0.88732 0.057 0.48169 0.0
C1833 C 0.88925 0.07368 0.47534 0.0
C1834 C 0.89389 0.08383 0.50719 0.0
H1835 H 0.87374 0.08958 0.65025 0.0
H1836 H 0.87182 0.08382 0.59788 0.0
H1837 H 0.88029 0.06995 0.63386 0.0
H1838 H 0.89641 0.05554 0.58158 0.0
H1839 H 0.88844 0.03782 0.52579 0.0
H1840 H 0.45818 0.64122 0.99259 0.0
H1841 H 0.44034 0.63611 0.93471 0.0
H1842 H 0.42231 0.59316 0.99356 0.0
H1843 H 0.43923 0.59878 0.05153 0.0
H1844 H 0.44283 0.61232 0.88601 0.0
H1845 H 0.38146 0.60802 0.94679 0.0
H1846 H 0.39764 0.61691 0.97564 0.0
H1847 H 0.39401 0.59536 0.97706 0.0
C1848 C 0.44999 0.63101 0.99342 0.0
C1849 C 0.45023 0.62023 0.02604 0.0
C1850 C 0.43984 0.62806 0.96041 0.0
C1851 C 0.42976 0.61433 0.95976 0.0
C1852 C 0.42953 0.60408 0.99347 0.0
H1853 H 0.41901 0.5448 0.78317 0.0
H1854 H 0.42555 0.56452 0.83503 0.0
C1855 C 0.43948 0.60712 0.02638 0.0
C1856 C 0.42139 0.60915 0.9222 0.0
H1857 H 0.38765 0.58917 0.89028 0.0
C1858 C 0.43059 0.60771 0.88673 0.0
C1859 C 0.40525 0.60345 0.92225 0.0
C1860 C 0.39402 0.60622 0.95745 0.0
C1861 C 0.4247 0.59935 0.85301 0.0
C1862 C 0.40942 0.59173 0.85523 0.0
C1863 C 0.39956 0.59457 0.88899 0.0
C1864 C 0.40447 0.57939 0.82506 0.0
C1865 C 0.4352 0.59826 0.81583 0.0
C1866 C 0.38987 0.58059 0.8038 0.0
C1867 C 0.38589 0.56903 0.77431 0.0
C1868 C 0.39651 0.55619 0.76575 0.0
C1869 C 0.4107 0.5547 0.78849 0.0
C1870 C 0.41454 0.56605 0.81799 0.0
H1871 H 0.44295 0.60917 0.81284 0.0
H1872 H 0.44329 0.58762 0.81842 0.0
H1873 H 0.42788 0.59695 0.78803 0.0
H1874 H 0.38179 0.59066 0.80926 0.0
H1875 H 0.37487 0.57047 0.75729 0.0
H1876 H 0.95042 0.4305 0.23079 0.0
H1877 H 0.93251 0.43665 0.28691 0.0
H1878 H 0.93029 0.38606 0.31778 0.0
H1879 H 0.94854 0.37968 0.26128 0.0
H1880 H 0.90091 0.42539 0.30362 0.0
H1881 H 0.94458 0.40838 0.42363 0.0
H1882 H 0.95076 0.41138 0.37192 0.0
H1883 H 0.94004 0.39338 0.38595 0.0
C1884 C 0.94619 0.42058 0.24935 0.0
C1885 C 0.95108 0.40456 0.24155 0.0
C1886 C 0.93585 0.42416 0.28143 0.0
C1887 C 0.93016 0.41187 0.30679 0.0
C1888 C 0.93472 0.39578 0.29888 0.0
H1889 H 0.88197 0.43453 0.53724 0.0
H1890 H 0.89026 0.4185 0.47809 0.0
C1891 C 0.9451 0.39215 0.2665 0.0
C1892 C 0.91979 0.4163 0.3418 0.0
H1893 H 0.92047 0.42066 0.44426 0.0
C1894 C 0.90506 0.42413 0.33444 0.0
C1895 C 0.92517 0.4146 0.38202 0.0
C1896 C 0.94103 0.40657 0.39165 0.0
C1897 C 0.89589 0.43085 0.36603 0.0
C1898 C 0.90173 0.42997 0.406 0.0
C1899 C 0.916 0.42136 0.41361 0.0
C1900 C 0.89423 0.43928 0.43967 0.0
C1901 C 0.88017 0.43909 0.35619 0.0
C1902 C 0.89345 0.45624 0.43756 0.0
C1903 C 0.88866 0.46532 0.47113 0.0
C1904 C 0.88455 0.45764 0.50742 0.0
C1905 C 0.88471 0.44067 0.50921 0.0
C1906 C 0.88957 0.43155 0.4756 0.0
H1907 H 0.8748 0.43409 0.32814 0.0
H1908 H 0.87131 0.43779 0.38118 0.0
H1909 H 0.88241 0.45217 0.35124 0.0
H1910 H 0.89738 0.46252 0.41062 0.0
H1911 H 0.88899 0.47841 0.46945 0.0
H1912 H 0.08333 0.94661 0.74837 0.0
H1913 H 0.07781 0.92825 0.80374 0.0
H1914 H 0.12795 0.92921 0.83745 0.0
H1915 H 0.13371 0.94794 0.78146 0.0
H1916 H 0.09118 0.89712 0.82134 0.0
H1917 H 0.10315 0.94271 0.94176 0.0
H1918 H 0.10016 0.94853 0.88987 0.0
H1919 H 0.11866 0.93908 0.90473 0.0
C1920 C 0.09329 0.94298 0.76737 0.0
C1921 C 0.10898 0.94894 0.76055 0.0
C1922 C 0.09008 0.93237 0.799 0.0
C1923 C 0.1024 0.92744 0.82498 0.0
C1924 C 0.11821 0.93301 0.818 0.0
H1925 H 0.07538 0.88137 0.0548 0.0
H1926 H 0.09313 0.88891 0.99823 0.0
C1927 C 0.12149 0.94365 0.78593 0.0
C1928 C 0.09818 0.91692 0.85982 0.0
H1929 H 0.0911 0.91835 0.96133 0.0
C1930 C 0.09145 0.90162 0.85209 0.0
C1931 C 0.09859 0.92275 0.89995 0.0
C1932 C 0.10544 0.93919 0.90989 0.0
C1933 C 0.08444 0.89237 0.88307 0.0
C1934 C 0.08386 0.89868 0.92274 0.0
C1935 C 0.09151 0.91351 0.93092 0.0
C1936 C 0.07378 0.89121 0.955 0.0
C1937 C 0.07736 0.87607 0.87278 0.0
C1938 C 0.05706 0.88963 0.94936 0.0
C1939 C 0.047 0.88527 0.98147 0.0
C1940 C 0.05344 0.88235 0.01982 0.0
C1941 C 0.07022 0.88314 0.02517 0.0
C1942 C 0.08031 0.88759 0.99301 0.0
H1943 H 0.08361 0.87059 0.84638 0.0
H1944 H 0.07815 0.8676 0.89865 0.0
H1945 H 0.06448 0.8776 0.86474 0.0
H1946 H 0.05164 0.89277 0.92076 0.0
H1947 H 0.03406 0.88518 0.97701 0.0
H1948 H 0.55568 0.08388 0.23222 0.0
H1949 H 0.57215 0.07589 0.28937 0.0
H1950 H 0.56854 0.12402 0.3388 0.0
H1951 H 0.55199 0.13231 0.28091 0.0
H1952 H 0.60075 0.10813 0.34476 0.0
H1953 H 0.55037 0.07028 0.40175 0.0
H1954 H 0.55542 0.06651 0.34986 0.0
H1955 H 0.54753 0.08593 0.36452 0.0
C1956 C 0.55842 0.09287 0.25499 0.0
C1957 C 0.55227 0.1087 0.25223 0.0
C1958 C 0.56788 0.08825 0.28768 0.0
C1959 C 0.57133 0.09927 0.31864 0.0
C1960 C 0.56593 0.11532 0.31524 0.0
H1961 H 0.61601 0.07746 0.55162 0.0
H1962 H 0.60688 0.09273 0.49231 0.0
C1963 C 0.55647 0.12002 0.28221 0.0
C1964 C 0.57969 0.09348 0.35537 0.0
H1965 H 0.57614 0.06565 0.43079 0.0
C1966 C 0.59534 0.099 0.36395 0.0
C1967 C 0.57255 0.08163 0.38045 0.0
C1968 C 0.55548 0.07583 0.37401 0.0
C1969 C 0.60429 0.09238 0.396 0.0
C1970 C 0.59734 0.08005 0.4199 0.0
C1971 C 0.58152 0.07497 0.41206 0.0
C1972 C 0.60617 0.07184 0.45288 0.0
C1973 C 0.62127 0.09816 0.40333 0.0
C1974 C 0.6092 0.05517 0.45004 0.0
C1975 C 0.61444 0.04652 0.48369 0.0
C1976 C 0.61672 0.05441 0.52071 0.0
C1977 C 0.61467 0.07124 0.52304 0.0
C1978 C 0.60942 0.07993 0.48927 0.0
H1979 H 0.62573 0.10608 0.37866 0.0
H1980 H 0.62165 0.10509 0.43202 0.0
H1981 H 0.62955 0.08768 0.4064 0.0
H1982 H 0.60663 0.04868 0.42236 0.0
H1983 H 0.61565 0.0335 0.48155 0.0
loop_
_geom_bond_atom_site_label_1
_geom_bond_atom_site_label_2
_geom_bond_distance
_geom_bond_site_symmetry_2
_ccdc_geom_bond_type
Co0 O3 1.970 . S
Co0 N17 1.989 . S
Co0 O25 1.967 . S
Co0 O32 1.920 . S
Co1 O4 1.966 . S
Co1 N10 2.022 . S
Co1 N18 1.993 . S
Co1 O26 1.941 . S
C2 O3 1.258 . S
C2 O4 1.263 . S
O3 Co0 1.970 . S
O3 C2 1.258 . S
O4 Co1 1.966 . S
O4 C2 1.263 . S
C5 O6 1.235 . S
C5 O32 1.289 . S
O6 C5 1.235 . S
C7 C9 1.400 . S
C7 N10 1.351 . S
C7 C12 1.501 . S
C8 C9 1.387 . S
C8 N11 1.341 . S
C9 C7 1.400 . S
C9 C8 1.387 . S
N10 Co1 2.022 . S
N10 C7 1.351 . S
N10 N11 1.365 . S
N11 C8 1.341 . S
N11 N10 1.365 . S
N11 H31 0.862 . S
C12 C7 1.501 . S
C12 H13 0.961 . S
C12 H14 0.961 . S
C12 H15 0.960 . S
H13 C12 0.961 . S
H14 C12 0.961 . S
H15 C12 0.960 . S
C16 N17 1.342 1_556 S
C16 C20 1.401 . S
C16 C21 1.499 . S
N17 Co0 1.989 . S
N17 C16 1.342 1_554 S
N17 N18 1.388 . S
N18 Co1 1.993 . S
N18 N17 1.388 . S
N18 C19 1.346 1_554 S
C19 N18 1.346 1_556 S
C19 C20 1.396 . S
C19 C29 1.510 . S
C20 C16 1.401 . S
C20 C19 1.396 . S
C21 C16 1.499 . S
C21 H22 0.959 . S
C21 H23 0.960 . S
C21 H24 0.961 . S
H22 C21 0.959 . S
H23 C21 0.960 . S
H24 C21 0.961 . S
O25 Co0 1.967 . S
O25 C33 1.258 . S
O26 Co1 1.941 . S
O26 C33 1.266 . S
H27 C29 0.959 . S
H28 C29 0.961 . S
C29 C19 1.510 . S
C29 H27 0.959 . S
C29 H28 0.961 . S
C29 H30 0.960 . S
H30 C29 0.960 . S
H31 N11 0.862 . S
O32 Co0 1.920 . S
O32 C5 1.289 . S
C33 O25 1.258 . S
C33 O26 1.266 . S
Co34 O37 1.970 . S
Co34 N51 1.989 . S
Co34 O59 1.967 . S
Co34 O66 1.920 . S
Co35 O38 1.966 . S
Co35 N44 2.022 . S
Co35 N52 1.993 . S
Co35 O60 1.941 . S
C36 O37 1.258 . S
C36 O38 1.263 . S
O37 Co34 1.970 . S
O37 C36 1.258 . S
O38 Co35 1.966 . S
O38 C36 1.263 . S
C39 O40 1.235 . S
C39 O66 1.289 . S
O40 C39 1.235 . S
C41 C43 1.400 . S
C41 N44 1.351 . S
C41 C46 1.501 . S
C42 C43 1.387 . S
C42 N45 1.341 . S
C43 C41 1.400 . S
C43 C42 1.387 . S
N44 Co35 2.022 . S
N44 C41 1.351 . S
N44 N45 1.365 . S
N45 C42 1.341 . S
N45 N44 1.365 . S
N45 H65 0.862 . S
C46 C41 1.501 . S
C46 H47 0.961 . S
C46 H48 0.961 . S
C46 H49 0.960 . S
H47 C46 0.961 . S
H48 C46 0.961 . S
H49 C46 0.960 . S
C50 N51 1.342 . S
C50 C54 1.401 . S
C50 C55 1.499 . S
N51 Co34 1.989 . S
N51 C50 1.342 . S
N51 N52 1.388 . S
N52 Co35 1.993 . S
N52 N51 1.388 . S
N52 C53 1.346 . S
C53 N52 1.346 . S
C53 C54 1.396 . S
C53 C63 1.510 . S
C54 C50 1.401 . S
C54 C53 1.396 . S
C55 C50 1.499 . S
C55 H56 0.959 . S
C55 H57 0.960 . S
C55 H58 0.961 . S
H56 C55 0.959 . S
H57 C55 0.960 . S
H58 C55 0.961 . S
O59 Co34 1.967 . S
O59 C67 1.258 . S
O60 Co35 1.941 . S
O60 C67 1.266 . S
H61 C63 0.959 . S
H62 C63 0.961 . S
C63 C53 1.510 . S
C63 H61 0.959 . S
C63 H62 0.961 . S
C63 H64 0.960 . S
H64 C63 0.960 . S
H65 N45 0.862 . S
O66 Co34 1.920 . S
O66 C39 1.289 . S
C67 O59 1.258 . S
C67 O60 1.266 . S
Co68 O71 1.970 1_655 S
Co68 N85 1.989 . S
Co68 O93 1.967 . S
Co68 O100 1.920 . S
Co69 O72 2.015 . S
Co69 N78 2.022 . S
Co69 N86 1.993 . S
Co69 O94 1.941 . S
C70 O71 1.258 . S
C70 O72 1.234 1_455 S
O71 Co68 1.970 1_455 S
O71 C70 1.258 . S
O72 Co69 2.015 . S
O72 C70 1.234 1_655 S
C73 O74 1.235 1_655 S
C73 O100 1.289 . S
O74 C73 1.235 1_455 S
C75 C77 1.400 . S
C75 N78 1.351 . S
C75 C80 1.501 1_655 S
C76 C77 1.387 . S
C76 N79 1.341 . S
C77 C75 1.400 . S
C77 C76 1.387 . S
N78 Co69 2.022 . S
N78 C75 1.351 . S
N78 N79 1.365 . S
N79 C76 1.341 . S
N79 N78 1.365 . S
N79 H99 0.862 . S
C80 C75 1.501 1_455 S
C80 H81 0.961 . S
C80 H82 0.961 . S
C80 H83 0.960 . S
H81 C80 0.961 . S
H82 C80 0.961 . S
H83 C80 0.960 . S
C84 N85 1.342 1_556 S
C84 C88 1.401 . S
C84 C89 1.499 . S
N85 Co68 1.989 . S
N85 C84 1.342 1_554 S
N85 N86 1.388 . S
N86 Co69 1.993 . S
N86 N85 1.388 . S
N86 C87 1.346 1_554 S
C87 N86 1.346 1_556 S
C87 C88 1.396 . S
C87 C97 1.510 . S
C88 C84 1.401 . S
C88 C87 1.396 . S
C89 C84 1.499 . S
C89 H90 0.959 . S
C89 H91 0.960 . S
C89 H92 0.961 . S
H90 C89 0.959 . S
H91 C89 0.960 . S
H92 C89 0.961 . S
O93 Co68 1.967 . S
O93 C101 1.258 . S
O94 Co69 1.941 . S
O94 C101 1.266 . S
H95 C97 0.959 . S
H96 C97 0.961 . S
C97 C87 1.510 . S
C97 H95 0.959 . S
C97 H96 0.961 . S
C97 H98 0.960 . S
H98 C97 0.960 . S
H99 N79 0.862 . S
O100 Co68 1.920 . S
O100 C73 1.289 . S
C101 O93 1.258 . S
C101 O94 1.266 . S
Co102 O105 1.970 1_565 S
Co102 N119 1.989 . S
Co102 O127 1.967 . S
Co102 O134 1.920 . S
Co103 O106 2.015 . S
Co103 N112 2.022 . S
Co103 N120 1.993 . S
Co103 O128 1.941 . S
C104 O105 1.258 . S
C104 O106 1.234 1_545 S
O105 Co102 1.970 1_545 S
O105 C104 1.258 . S
O106 Co103 2.015 . S
O106 C104 1.234 1_565 S
C107 O108 1.235 1_565 S
C107 O134 1.289 . S
O108 C107 1.235 1_545 S
C109 C111 1.400 . S
C109 N112 1.351 . S
C109 C114 1.501 1_565 S
C110 C111 1.387 . S
C110 N113 1.341 . S
C111 C109 1.400 . S
C111 C110 1.387 . S
N112 Co103 2.022 . S
N112 C109 1.351 . S
N112 N113 1.365 . S
N113 C110 1.341 . S
N113 N112 1.365 . S
N113 H133 0.862 . S
C114 C109 1.501 1_545 S
C114 H115 0.961 . S
C114 H116 0.961 . S
C114 H117 0.960 . S
H115 C114 0.961 . S
H116 C114 0.961 . S
H117 C114 0.960 . S
C118 N119 1.342 . S
C118 C122 1.401 . S
C118 C123 1.499 . S
N119 Co102 1.989 . S
N119 C118 1.342 . S
N119 N120 1.388 . S
N120 Co103 1.993 . S
N120 N119 1.388 . S
N120 C121 1.346 . S
C121 N120 1.346 . S
C121 C122 1.396 . S
C121 C131 1.510 . S
C122 C118 1.401 . S
C122 C121 1.396 . S
C123 C118 1.499 . S
C123 H124 0.959 . S
C123 H125 0.960 . S
C123 H126 0.961 . S
H124 C123 0.959 . S
H125 C123 0.960 . S
H126 C123 0.961 . S
O127 Co102 1.967 . S
O127 C135 1.258 . S
O128 Co103 1.941 . S
O128 C135 1.266 . S
H129 C131 0.959 . S
H130 C131 0.961 . S
C131 C121 1.510 . S
C131 H129 0.959 . S
C131 H130 0.961 . S
C131 H132 0.960 . S
H132 C131 0.960 . S
H133 N113 0.862 . S
O134 Co102 1.920 . S
O134 C107 1.289 . S
C135 O127 1.258 . S
C135 O128 1.266 . S
Co136 O139 1.970 . S
Co136 N153 1.989 . S
Co136 O161 1.967 . S
Co136 O168 1.920 . S
Co137 O140 1.966 . S
Co137 N146 2.022 . S
Co137 N154 1.993 . S
Co137 O162 1.941 . S
C138 O139 1.258 . S
C138 O140 1.263 . S
O139 Co136 1.970 . S
O139 C138 1.258 . S
O140 Co137 1.966 . S
O140 C138 1.263 . S
C141 O142 1.235 . S
C141 O168 1.289 . S
O142 C141 1.235 . S
C143 C145 1.400 . S
C143 N146 1.351 . S
C143 C148 1.501 . S
C144 C145 1.387 . S
C144 N147 1.341 . S
C145 C143 1.400 . S
C145 C144 1.387 . S
N146 Co137 2.022 . S
N146 C143 1.351 . S
N146 N147 1.365 . S
N147 C144 1.341 . S
N147 N146 1.365 . S
N147 H167 0.862 . S
C148 C143 1.501 . S
C148 H149 0.961 . S
C148 H150 0.961 . S
C148 H151 0.960 . S
H149 C148 0.961 . S
H150 C148 0.961 . S
H151 C148 0.960 . S
C152 N153 1.342 1_554 S
C152 C156 1.401 . S
C152 C157 1.499 . S
N153 Co136 1.989 . S
N153 C152 1.342 1_556 S
N153 N154 1.388 . S
N154 Co137 1.993 . S
N154 N153 1.388 . S
N154 C155 1.346 1_556 S
C155 N154 1.346 1_554 S
C155 C156 1.396 . S
C155 C165 1.510 . S
C156 C152 1.401 . S
C156 C155 1.396 . S
C157 C152 1.499 . S
C157 H158 0.959 . S
C157 H159 0.960 . S
C157 H160 0.961 . S
H158 C157 0.959 . S
H159 C157 0.960 . S
H160 C157 0.961 . S
O161 Co136 1.967 . S
O161 C169 1.258 . S
O162 Co137 1.941 . S
O162 C169 1.266 . S
H163 C165 0.959 . S
H164 C165 0.961 . S
C165 C155 1.510 . S
C165 H163 0.959 . S
C165 H164 0.961 . S
C165 H166 0.960 . S
H166 C165 0.960 . S
H167 N147 0.862 . S
O168 Co136 1.920 . S
O168 C141 1.289 . S
C169 O161 1.258 . S
C169 O162 1.266 . S
Co170 O173 1.970 . S
Co170 N187 1.989 . S
Co170 O195 1.967 . S
Co170 O202 1.920 . S
Co171 O174 1.966 . S
Co171 N180 2.022 . S
Co171 N188 1.993 . S
Co171 O196 1.941 . S
C172 O173 1.258 . S
C172 O174 1.263 . S
O173 Co170 1.970 . S
O173 C172 1.258 . S
O174 Co171 1.966 . S
O174 C172 1.263 . S
C175 O176 1.235 . S
C175 O202 1.289 . S
O176 C175 1.235 . S
C177 C179 1.400 . S
C177 N180 1.351 . S
C177 C182 1.501 . S
C178 C179 1.387 . S
C178 N181 1.341 . S
C179 C177 1.400 . S
C179 C178 1.387 . S
N180 Co171 2.022 . S
N180 C177 1.351 . S
N180 N181 1.365 . S
N181 C178 1.341 . S
N181 N180 1.365 . S
N181 H201 0.862 . S
C182 C177 1.501 . S
C182 H183 0.961 . S
C182 H184 0.961 . S
C182 H185 0.960 . S
H183 C182 0.961 . S
H184 C182 0.961 . S
H185 C182 0.960 . S
C186 N187 1.342 . S
C186 C190 1.401 . S
C186 C191 1.499 . S
N187 Co170 1.989 . S
N187 C186 1.342 . S
N187 N188 1.388 . S
N188 Co171 1.993 . S
N188 N187 1.388 . S
N188 C189 1.346 . S
C189 N188 1.346 . S
C189 C190 1.396 . S
C189 C199 1.510 . S
C190 C186 1.401 . S
C190 C189 1.396 . S
C191 C186 1.499 . S
C191 H192 0.959 . S
C191 H193 0.960 . S
C191 H194 0.961 . S
H192 C191 0.959 . S
H193 C191 0.960 . S
H194 C191 0.961 . S
O195 Co170 1.967 . S
O195 C203 1.258 . S
O196 Co171 1.941 . S
O196 C203 1.266 . S
H197 C199 0.959 . S
H198 C199 0.961 . S
C199 C189 1.510 . S
C199 H197 0.959 . S
C199 H198 0.961 . S
C199 H200 0.960 . S
H200 C199 0.960 . S
H201 N181 0.862 . S
O202 Co170 1.920 . S
O202 C175 1.289 . S
C203 O195 1.258 . S
C203 O196 1.266 . S
Co204 O207 1.970 1_655 S
Co204 N221 1.989 . S
Co204 O229 1.967 . S
Co204 O236 1.920 . S
Co205 O208 2.015 . S
Co205 N214 2.022 . S
Co205 N222 1.993 . S
Co205 O230 1.941 . S
C206 O207 1.258 . S
C206 O208 1.234 1_455 S
O207 Co204 1.970 1_455 S
O207 C206 1.258 . S
O208 Co205 2.015 . S
O208 C206 1.234 1_655 S
C209 O210 1.235 1_655 S
C209 O236 1.289 . S
O210 C209 1.235 1_455 S
C211 C213 1.400 . S
C211 N214 1.351 . S
C211 C216 1.501 1_655 S
C212 C213 1.387 . S
C212 N215 1.341 . S
C213 C211 1.400 . S
C213 C212 1.387 . S
N214 Co205 2.022 . S
N214 C211 1.351 . S
N214 N215 1.365 . S
N215 C212 1.341 . S
N215 N214 1.365 . S
N215 H235 0.862 . S
C216 C211 1.501 1_455 S
C216 H217 0.961 . S
C216 H218 0.961 . S
C216 H219 0.960 . S
H217 C216 0.961 . S
H218 C216 0.961 . S
H219 C216 0.960 . S
C220 N221 1.342 1_554 S
C220 C224 1.401 . S
C220 C225 1.499 . S
N221 Co204 1.989 . S
N221 C220 1.342 1_556 S
N221 N222 1.388 . S
N222 Co205 1.993 . S
N222 N221 1.388 . S
N222 C223 1.346 1_556 S
C223 N222 1.346 1_554 S
C223 C224 1.396 . S
C223 C233 1.510 . S
C224 C220 1.401 . S
C224 C223 1.396 . S
C225 C220 1.499 . S
C225 H226 0.959 . S
C225 H227 0.960 . S
C225 H228 0.961 . S
H226 C225 0.959 . S
H227 C225 0.960 . S
H228 C225 0.961 . S
O229 Co204 1.967 . S
O229 C237 1.258 . S
O230 Co205 1.941 . S
O230 C237 1.266 . S
H231 C233 0.959 . S
H232 C233 0.961 . S
C233 C223 1.510 . S
C233 H231 0.959 . S
C233 H232 0.961 . S
C233 H234 0.960 . S
H234 C233 0.960 . S
H235 N215 0.862 . S
O236 Co204 1.920 . S
O236 C209 1.289 . S
C237 O229 1.258 . S
C237 O230 1.266 . S
Co238 O241 1.970 1_565 S
Co238 N255 1.989 . S
Co238 O263 1.967 . S
Co238 O270 1.920 . S
Co239 O242 2.015 . S
Co239 N248 2.022 . S
Co239 N256 1.993 . S
Co239 O264 1.941 . S
C240 O241 1.258 . S
C240 O242 1.234 1_545 S
O241 Co238 1.970 1_545 S
O241 C240 1.258 . S
O242 Co239 2.015 . S
O242 C240 1.234 1_565 S
C243 O244 1.235 1_565 S
C243 O270 1.289 . S
O244 C243 1.235 1_545 S
C245 C247 1.400 . S
C245 N248 1.351 . S
C245 C250 1.501 1_565 S
C246 C247 1.387 . S
C246 N249 1.341 . S
C247 C245 1.400 . S
C247 C246 1.387 . S
N248 Co239 2.022 . S
N248 C245 1.351 . S
N248 N249 1.365 . S
N249 C246 1.341 . S
N249 N248 1.365 . S
N249 H269 0.862 . S
C250 C245 1.501 1_545 S
C250 H251 0.961 . S
C250 H252 0.961 . S
C250 H253 0.960 . S
H251 C250 0.961 . S
H252 C250 0.961 . S
H253 C250 0.960 . S
C254 N255 1.342 . S
C254 C258 1.401 . S
C254 C259 1.499 . S
N255 Co238 1.989 . S
N255 C254 1.342 . S
N255 N256 1.388 . S
N256 Co239 1.993 . S
N256 N255 1.388 . S
N256 C257 1.346 . S
C257 N256 1.346 . S
C257 C258 1.396 . S
C257 C267 1.510 . S
C258 C254 1.401 . S
C258 C257 1.396 . S
C259 C254 1.499 . S
C259 H260 0.959 . S
C259 H261 0.960 . S
C259 H262 0.961 . S
H260 C259 0.959 . S
H261 C259 0.960 . S
H262 C259 0.961 . S
O263 Co238 1.967 . S
O263 C271 1.258 . S
O264 Co239 1.941 . S
O264 C271 1.266 . S
H265 C267 0.959 . S
H266 C267 0.961 . S
C267 C257 1.510 . S
C267 H265 0.959 . S
C267 H266 0.961 . S
C267 H268 0.960 . S
H268 C267 0.960 . S
H269 N249 0.862 . S
O270 Co238 1.920 . S
O270 C243 1.289 . S
C271 O263 1.258 . S
C271 O264 1.266 . S
Co272 O275 1.970 . S
Co272 N289 1.989 . S
Co272 O297 1.967 . S
Co272 O304 1.920 . S
Co273 O276 1.966 . S
Co273 N282 2.022 . S
Co273 N290 1.993 . S
Co273 O298 1.941 . S
C274 O275 1.258 . S
C274 O276 1.263 . S
O275 Co272 1.970 . S
O275 C274 1.258 . S
O276 Co273 1.966 . S
O276 C274 1.263 . S
C277 O278 1.235 . S
C277 O304 1.289 . S
O278 C277 1.235 . S
C279 C281 1.400 . S
C279 N282 1.351 . S
C279 C284 1.501 . S
C280 C281 1.387 . S
C280 N283 1.341 . S
C281 C279 1.400 . S
C281 C280 1.387 . S
N282 Co273 2.022 . S
N282 C279 1.351 . S
N282 N283 1.365 . S
N283 C280 1.341 . S
N283 N282 1.365 . S
N283 H303 0.862 . S
C284 C279 1.501 . S
C284 H285 0.961 . S
C284 H286 0.961 . S
C284 H287 0.960 . S
H285 C284 0.961 . S
H286 C284 0.961 . S
H287 C284 0.960 . S
C288 N289 1.342 1_554 S
C288 C292 1.401 . S
C288 C293 1.499 . S
N289 Co272 1.989 . S
N289 C288 1.342 1_556 S
N289 N290 1.388 . S
N290 Co273 1.993 . S
N290 N289 1.388 . S
N290 C291 1.346 1_556 S
C291 N290 1.346 1_554 S
C291 C292 1.396 . S
C291 C301 1.510 . S
C292 C288 1.401 . S
C292 C291 1.396 . S
C293 C288 1.499 . S
C293 H294 0.959 . S
C293 H295 0.960 . S
C293 H296 0.961 . S
H294 C293 0.959 . S
H295 C293 0.960 . S
H296 C293 0.961 . S
O297 Co272 1.967 . S
O297 C305 1.258 . S
O298 Co273 1.941 . S
O298 C305 1.266 . S
H299 C301 0.959 . S
H300 C301 0.961 . S
C301 C291 1.510 . S
C301 H299 0.959 . S
C301 H300 0.961 . S
C301 H302 0.960 . S
H302 C301 0.960 . S
H303 N283 0.862 . S
O304 Co272 1.920 . S
O304 C277 1.289 . S
C305 O297 1.258 . S
C305 O298 1.266 . S
Co306 O309 1.970 . S
Co306 N323 1.989 . S
Co306 O331 1.967 . S
Co306 O338 1.920 . S
Co307 O310 1.966 . S
Co307 N316 2.022 . S
Co307 N324 1.993 . S
Co307 O332 1.941 . S
C308 O309 1.258 . S
C308 O310 1.263 . S
O309 Co306 1.970 . S
O309 C308 1.258 . S
O310 Co307 1.966 . S
O310 C308 1.263 . S
C311 O312 1.235 . S
C311 O338 1.289 . S
O312 C311 1.235 . S
C313 C315 1.400 . S
C313 N316 1.351 . S
C313 C318 1.501 . S
C314 C315 1.387 . S
C314 N317 1.341 . S
C315 C313 1.400 . S
C315 C314 1.387 . S
N316 Co307 2.022 . S
N316 C313 1.351 . S
N316 N317 1.365 . S
N317 C314 1.341 . S
N317 N316 1.365 . S
N317 H337 0.862 . S
C318 C313 1.501 . S
C318 H319 0.961 . S
C318 H320 0.961 . S
C318 H321 0.960 . S
H319 C318 0.961 . S
H320 C318 0.961 . S
H321 C318 0.960 . S
C322 N323 1.342 . S
C322 C326 1.401 . S
C322 C327 1.499 . S
N323 Co306 1.989 . S
N323 C322 1.342 . S
N323 N324 1.388 . S
N324 Co307 1.993 . S
N324 N323 1.388 . S
N324 C325 1.346 . S
C325 N324 1.346 . S
C325 C326 1.396 . S
C325 C335 1.510 . S
C326 C322 1.401 . S
C326 C325 1.396 . S
C327 C322 1.499 . S
C327 H328 0.959 . S
C327 H329 0.960 . S
C327 H330 0.961 . S
H328 C327 0.959 . S
H329 C327 0.960 . S
H330 C327 0.961 . S
O331 Co306 1.967 . S
O331 C339 1.258 . S
O332 Co307 1.941 . S
O332 C339 1.266 . S
H333 C335 0.959 . S
H334 C335 0.961 . S
C335 C325 1.510 . S
C335 H333 0.959 . S
C335 H334 0.961 . S
C335 H336 0.960 . S
H336 C335 0.960 . S
H337 N317 0.862 . S
O338 Co306 1.920 . S
O338 C311 1.289 . S
C339 O331 1.258 . S
C339 O332 1.266 . S
Co340 O343 1.970 1_455 S
Co340 N357 1.989 . S
Co340 O365 1.967 . S
Co340 O372 1.920 . S
Co341 O344 2.015 . S
Co341 N350 2.022 . S
Co341 N358 1.993 . S
Co341 O366 1.941 . S
C342 O343 1.258 . S
C342 O344 1.234 1_655 S
O343 Co340 1.970 1_655 S
O343 C342 1.258 . S
O344 Co341 2.015 . S
O344 C342 1.234 1_455 S
C345 O346 1.235 1_455 S
C345 O372 1.289 . S
O346 C345 1.235 1_655 S
C347 C349 1.400 . S
C347 N350 1.351 . S
C347 C352 1.501 1_455 S
C348 C349 1.387 . S
C348 N351 1.341 . S
C349 C347 1.400 . S
C349 C348 1.387 . S
N350 Co341 2.022 . S
N350 C347 1.351 . S
N350 N351 1.365 . S
N351 C348 1.341 . S
N351 N350 1.365 . S
N351 H371 0.862 . S
C352 C347 1.501 1_655 S
C352 H353 0.961 . S
C352 H354 0.961 . S
C352 H355 0.960 . S
H353 C352 0.961 . S
H354 C352 0.961 . S
H355 C352 0.960 . S
C356 N357 1.342 1_554 S
C356 C360 1.401 . S
C356 C361 1.499 . S
N357 Co340 1.989 . S
N357 C356 1.342 1_556 S
N357 N358 1.388 . S
N358 Co341 1.993 . S
N358 N357 1.388 . S
N358 C359 1.346 1_556 S
C359 N358 1.346 1_554 S
C359 C360 1.396 . S
C359 C369 1.510 . S
C360 C356 1.401 . S
C360 C359 1.396 . S
C361 C356 1.499 . S
C361 H362 0.959 . S
C361 H363 0.960 . S
C361 H364 0.961 . S
H362 C361 0.959 . S
H363 C361 0.960 . S
H364 C361 0.961 . S
O365 Co340 1.967 . S
O365 C373 1.258 . S
O366 Co341 1.941 . S
O366 C373 1.266 . S
H367 C369 0.959 . S
H368 C369 0.961 . S
C369 C359 1.510 . S
C369 H367 0.959 . S
C369 H368 0.961 . S
C369 H370 0.960 . S
H370 C369 0.960 . S
H371 N351 0.862 . S
O372 Co340 1.920 . S
O372 C345 1.289 . S
C373 O365 1.258 . S
C373 O366 1.266 . S
Co374 O377 1.970 1_545 S
Co374 N391 1.989 . S
Co374 O399 1.967 . S
Co374 O406 1.920 . S
Co375 O378 2.015 . S
Co375 N384 2.022 . S
Co375 N392 1.993 . S
Co375 O400 1.941 . S
C376 O377 1.258 . S
C376 O378 1.234 1_565 S
O377 Co374 1.970 1_565 S
O377 C376 1.258 . S
O378 Co375 2.015 . S
O378 C376 1.234 1_545 S
C379 O380 1.235 1_545 S
C379 O406 1.289 . S
O380 C379 1.235 1_565 S
C381 C383 1.400 . S
C381 N384 1.351 . S
C381 C386 1.501 1_545 S
C382 C383 1.387 . S
C382 N385 1.341 . S
C383 C381 1.400 . S
C383 C382 1.387 . S
N384 Co375 2.022 . S
N384 C381 1.351 . S
N384 N385 1.365 . S
N385 C382 1.341 . S
N385 N384 1.365 . S
N385 H405 0.862 . S
C386 C381 1.501 1_565 S
C386 H387 0.961 . S
C386 H388 0.961 . S
C386 H389 0.960 . S
H387 C386 0.961 . S
H388 C386 0.961 . S
H389 C386 0.960 . S
C390 N391 1.342 . S
C390 C394 1.401 . S
C390 C395 1.499 . S
N391 Co374 1.989 . S
N391 C390 1.342 . S
N391 N392 1.388 . S
N392 Co375 1.993 . S
N392 N391 1.388 . S
N392 C393 1.346 . S
C393 N392 1.346 . S
C393 C394 1.396 . S
C393 C403 1.510 . S
C394 C390 1.401 . S
C394 C393 1.396 . S
C395 C390 1.499 . S
C395 H396 0.959 . S
C395 H397 0.960 . S
C395 H398 0.961 . S
H396 C395 0.959 . S
H397 C395 0.960 . S
H398 C395 0.961 . S
O399 Co374 1.967 . S
O399 C407 1.258 . S
O400 Co375 1.941 . S
O400 C407 1.266 . S
H401 C403 0.959 . S
H402 C403 0.961 . S
C403 C393 1.510 . S
C403 H401 0.959 . S
C403 H402 0.961 . S
C403 H404 0.960 . S
H404 C403 0.960 . S
H405 N385 0.862 . S
O406 Co374 1.920 . S
O406 C379 1.289 . S
C407 O399 1.258 . S
C407 O400 1.266 . S
Co408 O411 1.970 . S
Co408 N425 1.989 . S
Co408 O433 1.967 . S
Co408 O440 1.920 . S
Co409 O412 1.966 . S
Co409 N418 2.022 . S
Co409 N426 1.993 . S
Co409 O434 1.941 . S
C410 O411 1.258 . S
C410 O412 1.263 . S
O411 Co408 1.970 . S
O411 C410 1.258 . S
O412 Co409 1.966 . S
O412 C410 1.263 . S
C413 O414 1.235 . S
C413 O440 1.289 . S
O414 C413 1.235 . S
C415 C417 1.400 . S
C415 N418 1.351 . S
C415 C420 1.501 . S
C416 C417 1.387 . S
C416 N419 1.341 . S
C417 C415 1.400 . S
C417 C416 1.387 . S
N418 Co409 2.022 . S
N418 C415 1.351 . S
N418 N419 1.365 . S
N419 C416 1.341 . S
N419 N418 1.365 . S
N419 H439 0.862 . S
C420 C415 1.501 . S
C420 H421 0.961 . S
C420 H422 0.961 . S
C420 H423 0.960 . S
H421 C420 0.961 . S
H422 C420 0.961 . S
H423 C420 0.960 . S
C424 N425 1.342 1_556 S
C424 C428 1.401 . S
C424 C429 1.499 . S
N425 Co408 1.989 . S
N425 C424 1.342 1_554 S
N425 N426 1.388 . S
N426 Co409 1.993 . S
N426 N425 1.388 . S
N426 C427 1.346 1_554 S
C427 N426 1.346 1_556 S
C427 C428 1.396 . S
C427 C437 1.510 . S
C428 C424 1.401 . S
C428 C427 1.396 . S
C429 C424 1.499 . S
C429 H430 0.959 . S
C429 H431 0.960 . S
C429 H432 0.961 . S
H430 C429 0.959 . S
H431 C429 0.960 . S
H432 C429 0.961 . S
O433 Co408 1.967 . S
O433 C441 1.258 . S
O434 Co409 1.941 . S
O434 C441 1.266 . S
H435 C437 0.959 . S
H436 C437 0.961 . S
C437 C427 1.510 . S
C437 H435 0.959 . S
C437 H436 0.961 . S
C437 H438 0.960 . S
H438 C437 0.960 . S
H439 N419 0.862 . S
O440 Co408 1.920 . S
O440 C413 1.289 . S
C441 O433 1.258 . S
C441 O434 1.266 . S
Co442 O445 1.970 . S
Co442 N459 1.989 . S
Co442 O467 1.967 . S
Co442 O474 1.920 . S
Co443 O446 1.966 . S
Co443 N452 2.022 . S
Co443 N460 1.993 . S
Co443 O468 1.941 . S
C444 O445 1.258 . S
C444 O446 1.263 . S
O445 Co442 1.970 . S
O445 C444 1.258 . S
O446 Co443 1.966 . S
O446 C444 1.263 . S
C447 O448 1.235 . S
C447 O474 1.289 . S
O448 C447 1.235 . S
C449 C451 1.400 . S
C449 N452 1.351 . S
C449 C454 1.501 . S
C450 C451 1.387 . S
C450 N453 1.341 . S
C451 C449 1.400 . S
C451 C450 1.387 . S
N452 Co443 2.022 . S
N452 C449 1.351 . S
N452 N453 1.365 . S
N453 C450 1.341 . S
N453 N452 1.365 . S
N453 H473 0.862 . S
C454 C449 1.501 . S
C454 H455 0.961 . S
C454 H456 0.961 . S
C454 H457 0.960 . S
H455 C454 0.961 . S
H456 C454 0.961 . S
H457 C454 0.960 . S
C458 N459 1.342 . S
C458 C462 1.401 . S
C458 C463 1.499 . S
N459 Co442 1.989 . S
N459 C458 1.342 . S
N459 N460 1.388 . S
N460 Co443 1.993 . S
N460 N459 1.388 . S
N460 C461 1.346 . S
C461 N460 1.346 . S
C461 C462 1.396 . S
C461 C471 1.510 . S
C462 C458 1.401 . S
C462 C461 1.396 . S
C463 C458 1.499 . S
C463 H464 0.959 . S
C463 H465 0.960 . S
C463 H466 0.961 . S
H464 C463 0.959 . S
H465 C463 0.960 . S
H466 C463 0.961 . S
O467 Co442 1.967 . S
O467 C475 1.258 . S
O468 Co443 1.941 . S
O468 C475 1.266 . S
H469 C471 0.959 . S
H470 C471 0.961 . S
C471 C461 1.510 . S
C471 H469 0.959 . S
C471 H470 0.961 . S
C471 H472 0.960 . S
H472 C471 0.960 . S
H473 N453 0.862 . S
O474 Co442 1.920 . S
O474 C447 1.289 . S
C475 O467 1.258 . S
C475 O468 1.266 . S
Co476 O479 1.970 1_455 S
Co476 N493 1.989 . S
Co476 O501 1.967 . S
Co476 O508 1.920 . S
Co477 O480 2.015 . S
Co477 N486 2.022 . S
Co477 N494 1.993 . S
Co477 O502 1.941 . S
C478 O479 1.258 . S
C478 O480 1.234 1_655 S
O479 Co476 1.970 1_655 S
O479 C478 1.258 . S
O480 Co477 2.015 . S
O480 C478 1.234 1_455 S
C481 O482 1.235 1_455 S
C481 O508 1.289 . S
O482 C481 1.235 1_655 S
C483 C485 1.400 . S
C483 N486 1.351 . S
C483 C488 1.501 1_455 S
C484 C485 1.387 . S
C484 N487 1.341 . S
C485 C483 1.400 . S
C485 C484 1.387 . S
N486 Co477 2.022 . S
N486 C483 1.351 . S
N486 N487 1.365 . S
N487 C484 1.341 . S
N487 N486 1.365 . S
N487 H507 0.862 . S
C488 C483 1.501 1_655 S
C488 H489 0.961 . S
C488 H490 0.961 . S
C488 H491 0.960 . S
H489 C488 0.961 . S
H490 C488 0.961 . S
H491 C488 0.960 . S
C492 N493 1.342 1_556 S
C492 C496 1.401 . S
C492 C497 1.499 . S
N493 Co476 1.989 . S
N493 C492 1.342 1_554 S
N493 N494 1.388 . S
N494 Co477 1.993 . S
N494 N493 1.388 . S
N494 C495 1.346 1_554 S
C495 N494 1.346 1_556 S
C495 C496 1.396 . S
C495 C505 1.510 . S
C496 C492 1.401 . S
C496 C495 1.396 . S
C497 C492 1.499 . S
C497 H498 0.959 . S
C497 H499 0.960 . S
C497 H500 0.961 . S
H498 C497 0.959 . S
H499 C497 0.960 . S
H500 C497 0.961 . S
O501 Co476 1.967 . S
O501 C509 1.258 . S
O502 Co477 1.941 . S
O502 C509 1.266 . S
H503 C505 0.959 . S
H504 C505 0.961 . S
C505 C495 1.510 . S
C505 H503 0.959 . S
C505 H504 0.961 . S
C505 H506 0.960 . S
H506 C505 0.960 . S
H507 N487 0.862 . S
O508 Co476 1.920 . S
O508 C481 1.289 . S
C509 O501 1.258 . S
C509 O502 1.266 . S
Co510 O513 1.970 1_545 S
Co510 N527 1.989 . S
Co510 O535 1.967 . S
Co510 O542 1.920 . S
Co511 O514 2.015 . S
Co511 N520 2.022 . S
Co511 N528 1.993 . S
Co511 O536 1.941 . S
C512 O513 1.258 . S
C512 O514 1.234 1_565 S
O513 Co510 1.970 1_565 S
O513 C512 1.258 . S
O514 Co511 2.015 . S
O514 C512 1.234 1_545 S
C515 O516 1.235 1_545 S
C515 O542 1.289 . S
O516 C515 1.235 1_565 S
C517 C519 1.400 . S
C517 N520 1.351 . S
C517 C522 1.501 1_545 S
C518 C519 1.387 . S
C518 N521 1.341 . S
C519 C517 1.400 . S
C519 C518 1.387 . S
N520 Co511 2.022 . S
N520 C517 1.351 . S
N520 N521 1.365 . S
N521 C518 1.341 . S
N521 N520 1.365 . S
N521 H541 0.862 . S
C522 C517 1.501 1_565 S
C522 H523 0.961 . S
C522 H524 0.961 . S
C522 H525 0.960 . S
H523 C522 0.961 . S
H524 C522 0.961 . S
H525 C522 0.960 . S
C526 N527 1.342 . S
C526 C530 1.401 . S
C526 C531 1.499 . S
N527 Co510 1.989 . S
N527 C526 1.342 . S
N527 N528 1.388 . S
N528 Co511 1.993 . S
N528 N527 1.388 . S
N528 C529 1.346 . S
C529 N528 1.346 . S
C529 C530 1.396 . S
C529 C539 1.510 . S
C530 C526 1.401 . S
C530 C529 1.396 . S
C531 C526 1.499 . S
C531 H532 0.959 . S
C531 H533 0.960 . S
C531 H534 0.961 . S
H532 C531 0.959 . S
H533 C531 0.960 . S
H534 C531 0.961 . S
O535 Co510 1.967 . S
O535 C543 1.258 . S
O536 Co511 1.941 . S
O536 C543 1.266 . S
H537 C539 0.959 . S
H538 C539 0.961 . S
C539 C529 1.510 . S
C539 H537 0.959 . S
C539 H538 0.961 . S
C539 H540 0.960 . S
H540 C539 0.960 . S
H541 N521 0.862 . S
O542 Co510 1.920 . S
O542 C515 1.289 . S
C543 O535 1.258 . S
C543 O536 1.266 . S
H544 C552 0.929 1_556 S
H545 C554 0.930 . S
H546 C556 0.930 . S
H547 C559 0.929 . S
H548 C562 0.930 . S
H549 C564 0.960 . S
H550 C564 0.960 . S
H551 C564 0.960 . S
C552 H544 0.929 1_554 S
C552 C553 1.377 . S
C552 C554 1.384 1_554 S
C553 C552 1.377 . S
C553 C559 1.390 . S
C554 H545 0.930 . S
C554 C552 1.384 1_556 S
C554 C555 1.372 1_556 S
C555 C554 1.372 1_554 S
C555 C556 1.400 . S
C555 C560 1.490 . S
C556 H546 0.930 . S
C556 C555 1.400 . S
C556 C559 1.386 . S
H557 C573 0.935 . S
H558 C574 0.931 1_554 S
C559 H547 0.929 . S
C559 C553 1.390 . S
C559 C556 1.386 . S
C560 C555 1.490 . S
C560 C562 1.395 1_554 S
C560 C563 1.403 . S
H561 C567 0.930 . S
C562 H548 0.930 . S
C562 C560 1.395 1_556 S
C562 C565 1.403 1_545 S
C563 C560 1.403 . S
C563 C564 1.524 . S
C563 C567 1.400 1_545 S
C564 H549 0.960 . S
C564 H550 0.960 . S
C564 H551 0.960 . S
C564 C563 1.524 . S
C565 C562 1.403 1_565 S
C565 C566 1.392 . S
C565 C569 1.495 . S
C566 C565 1.392 . S
C566 C567 1.385 1_556 S
C566 C568 1.478 . S
C567 H561 0.930 . S
C567 C563 1.400 1_565 S
C567 C566 1.385 1_554 S
C568 C566 1.478 . S
C568 C570 1.381 . S
C568 C574 1.383 . S
C569 C565 1.495 . S
C569 H575 0.959 . S
C569 H576 0.961 . S
C569 H577 0.960 . S
C570 C568 1.381 . S
C570 C571 1.394 . S
C570 H578 0.930 . S
C571 C570 1.394 . S
C571 C572 1.383 . S
C571 H579 0.929 . S
C572 C571 1.383 . S
C572 C573 1.377 . S
C573 H557 0.935 . S
C573 C572 1.377 . S
C573 C574 1.379 . S
C574 H558 0.931 1_556 S
C574 C568 1.383 . S
C574 C573 1.379 . S
H575 C569 0.959 . S
H576 C569 0.961 . S
H577 C569 0.960 . S
H578 C570 0.930 . S
H579 C571 0.929 . S
H580 C588 0.929 . S
H581 C590 0.930 . S
H582 C592 0.930 . S
H583 C595 0.929 . S
H584 C598 0.930 . S
H585 C600 0.960 . S
H586 C600 0.960 . S
H587 C600 0.960 . S
C588 H580 0.929 . S
C588 C589 1.377 . S
C588 C590 1.384 . S
C589 C588 1.377 . S
C589 C595 1.390 . S
C590 H581 0.930 . S
C590 C588 1.384 . S
C590 C591 1.372 . S
C591 C590 1.372 . S
C591 C592 1.400 . S
C591 C596 1.490 . S
C592 H582 0.930 . S
C592 C591 1.400 . S
C592 C595 1.386 . S
H593 C609 0.930 . S
H594 C610 0.931 . S
C595 H583 0.929 . S
C595 C589 1.390 . S
C595 C592 1.386 . S
C596 C591 1.490 . S
C596 C598 1.395 . S
C596 C599 1.403 . S
H597 C603 0.930 . S
C598 H584 0.930 . S
C598 C596 1.395 . S
C598 C601 1.403 . S
C599 C596 1.403 . S
C599 C600 1.524 . S
C599 C603 1.400 . S
C600 H585 0.960 . S
C600 H586 0.960 . S
C600 H587 0.960 . S
C600 C599 1.524 . S
C601 C598 1.403 . S
C601 C602 1.392 . S
C601 C605 1.495 . S
C602 C601 1.392 . S
C602 C603 1.385 . S
C602 C604 1.478 . S
C603 H597 0.930 . S
C603 C599 1.400 . S
C603 C602 1.385 . S
C604 C602 1.478 . S
C604 C606 1.381 . S
C604 C610 1.383 . S
C605 C601 1.495 . S
C605 H611 0.959 . S
C605 H612 0.961 . S
C605 H613 0.960 . S
C606 C604 1.381 . S
C606 C607 1.394 . S
C606 H614 0.930 . S
C607 C606 1.394 . S
C607 C608 1.383 . S
C607 H615 0.929 . S
C608 C607 1.383 . S
C608 C609 1.377 . S
C609 H593 0.930 . S
C609 C608 1.377 . S
C609 C610 1.379 . S
C610 H594 0.931 . S
C610 C604 1.383 . S
C610 C609 1.379 . S
H611 C605 0.959 . S
H612 C605 0.961 . S
H613 C605 0.960 . S
H614 C606 0.930 . S
H615 C607 0.929 . S
H616 C624 0.929 . S
H617 C626 0.930 . S
H618 C628 0.977 1_556 S
H619 C631 0.929 1_455 S
H620 C634 0.930 . S
H621 C636 0.960 . S
H622 C636 0.960 . S
H623 C636 0.960 . S
C624 H616 0.929 . S
C624 C625 1.377 . S
C624 C626 1.384 . S
C625 C624 1.377 . S
C625 C631 1.390 . S
C626 H617 0.930 . S
C626 C624 1.384 . S
C626 C627 1.372 . S
C627 C626 1.372 . S
C627 C628 1.367 1_655 S
C627 C632 1.490 . S
C628 H618 0.977 1_554 S
C628 C627 1.367 1_455 S
C628 C631 1.375 1_455 S
H629 C645 0.930 . S
H630 C646 0.931 . S
C631 H619 0.929 1_655 S
C631 C625 1.390 . S
C631 C628 1.375 1_655 S
C632 C627 1.490 . S
C632 C634 1.395 1_655 S
C632 C635 1.403 1_554 S
H633 C639 0.930 . S
C634 H620 0.930 . S
C634 C632 1.395 1_455 S
C634 C637 1.403 . S
C635 C632 1.403 1_556 S
C635 C636 1.524 . S
C635 C639 1.400 . S
C636 H621 0.960 . S
C636 H622 0.960 . S
C636 H623 0.960 . S
C636 C635 1.524 . S
C637 C634 1.403 . S
C637 C638 1.392 1_554 S
C637 C641 1.495 . S
C638 C637 1.392 1_556 S
C638 C639 1.385 1_455 S
C638 C640 1.478 . S
C639 H633 0.930 . S
C639 C635 1.400 . S
C639 C638 1.385 1_655 S
C640 C638 1.478 . S
C640 C642 1.381 1_455 S
C640 C646 1.383 . S
C641 C637 1.495 . S
C641 H647 0.959 . S
C641 H648 0.961 . S
C641 H649 0.960 . S
C642 C640 1.381 1_655 S
C642 C643 1.394 1_655 S
C642 H650 0.930 1_556 S
C643 C642 1.394 1_455 S
C643 C644 1.383 . S
C643 H651 0.929 1_455 S
C644 C643 1.383 . S
C644 C645 1.377 . S
C645 H629 0.930 . S
C645 C644 1.377 . S
C645 C646 1.379 . S
C646 H630 0.931 . S
C646 C640 1.383 . S
C646 C645 1.379 . S
H647 C641 0.959 . S
H648 C641 0.961 . S
H649 C641 0.960 . S
H650 C642 0.930 1_554 S
H651 C643 0.929 1_655 S
H652 C660 0.929 . S
H653 C662 0.930 . S
H654 C664 0.930 . S
H655 C667 0.929 . S
H656 C670 0.930 . S
H657 C672 0.960 . S
H658 C672 0.960 . S
H659 C672 0.960 . S
C660 H652 0.929 . S
C660 C661 1.377 . S
C660 C662 1.384 . S
C661 C660 1.377 . S
C661 C667 1.390 . S
C662 H653 0.930 . S
C662 C660 1.384 . S
C662 C663 1.372 . S
C663 C662 1.372 . S
C663 C664 1.400 . S
C663 C668 1.490 . S
C664 H654 0.930 . S
C664 C663 1.400 . S
C664 C667 1.386 . S
H665 C681 0.930 . S
H666 C682 0.931 . S
C667 H655 0.929 . S
C667 C661 1.390 . S
C667 C664 1.386 . S
C668 C663 1.490 . S
C668 C670 1.395 1_565 S
C668 C671 1.403 . S
H669 C675 0.930 . S
C670 H656 0.930 . S
C670 C668 1.395 1_545 S
C670 C673 1.403 1_455 S
C671 C668 1.403 . S
C671 C672 1.524 . S
C671 C675 1.400 1_455 S
C672 H657 0.960 . S
C672 H658 0.960 . S
C672 H659 0.960 . S
C672 C671 1.524 . S
C673 C670 1.403 1_655 S
C673 C674 1.392 . S
C673 C677 1.495 . S
C674 C673 1.392 . S
C674 C675 1.385 1_545 S
C674 C676 1.478 . S
C675 H669 0.930 . S
C675 C671 1.400 1_655 S
C675 C674 1.385 1_565 S
C676 C674 1.478 . S
C676 C678 1.381 . S
C676 C682 1.383 . S
C677 C673 1.495 . S
C677 H683 0.959 . S
C677 H684 0.961 . S
C677 H685 0.960 . S
C678 C676 1.381 . S
C678 C679 1.394 . S
C678 H686 0.937 . S
C679 C678 1.394 . S
C679 C680 1.383 . S
C679 H687 0.929 . S
C680 C679 1.383 . S
C680 C681 1.377 . S
C681 H665 0.930 . S
C681 C680 1.377 . S
C681 C682 1.379 . S
C682 H666 0.931 . S
C682 C676 1.383 . S
C682 C681 1.379 . S
H683 C677 0.959 . S
H684 C677 0.961 . S
H685 C677 0.960 . S
H686 C678 0.937 . S
H687 C679 0.929 . S
H688 C696 0.929 . S
H689 C698 0.930 . S
H690 C700 0.930 1_554 S
H691 C703 0.929 . S
H692 C706 0.930 . S
H693 C708 0.960 . S
H694 C708 0.960 . S
H695 C708 0.960 . S
C696 H688 0.929 . S
C696 C697 1.377 . S
C696 C698 1.384 . S
C697 C696 1.377 . S
C697 C703 1.390 . S
C698 H689 0.930 . S
C698 C696 1.384 . S
C698 C699 1.372 . S
C699 C698 1.372 . S
C699 C700 1.400 . S
C699 C704 1.490 . S
C700 H690 0.930 1_556 S
C700 C699 1.400 . S
C700 C703 1.386 . S
H701 C717 0.930 . S
H702 C718 0.931 . S
C703 H691 0.929 . S
C703 C697 1.390 . S
C703 C700 1.386 . S
C704 C699 1.490 . S
C704 C706 1.395 1_556 S
C704 C707 1.403 . S
H705 C711 0.930 . S
C706 H692 0.930 . S
C706 C704 1.395 1_554 S
C706 C709 1.403 . S
C707 C704 1.403 . S
C707 C708 1.524 . S
C707 C711 1.400 . S
C708 H693 0.960 . S
C708 H694 0.960 . S
C708 H695 0.960 . S
C708 C707 1.524 . S
C709 C706 1.403 . S
C709 C710 1.392 . S
C709 C713 1.495 . S
C710 C709 1.392 . S
C710 C711 1.385 1_554 S
C710 C712 1.478 . S
C711 H705 0.930 . S
C711 C707 1.400 . S
C711 C710 1.385 1_556 S
C712 C710 1.478 . S
C712 C714 1.381 . S
C712 C718 1.383 . S
C713 C709 1.495 . S
C713 H719 0.959 . S
C713 H720 0.961 . S
C713 H721 0.960 . S
C714 C712 1.381 . S
C714 C715 1.394 . S
C714 H722 0.930 1_554 S
C715 C714 1.394 . S
C715 C716 1.383 . S
C715 H723 0.929 . S
C716 C715 1.383 . S
C716 C717 1.377 . S
C717 H701 0.930 . S
C717 C716 1.377 . S
C717 C718 1.379 . S
C718 H702 0.931 . S
C718 C712 1.383 . S
C718 C717 1.379 . S
H719 C713 0.959 . S
H720 C713 0.961 . S
H721 C713 0.960 . S
H722 C714 0.930 1_556 S
H723 C715 0.929 . S
H724 C732 0.929 . S
H725 C734 0.930 . S
H726 C736 0.930 . S
H727 C739 0.929 . S
H728 C742 0.930 . S
H729 C744 0.960 1_455 S
H730 C744 0.960 . S
H731 C744 0.960 . S
C732 H724 0.929 . S
C732 C733 1.377 . S
C732 C734 1.384 . S
C733 C732 1.377 . S
C733 C739 1.390 . S
C734 H725 0.930 . S
C734 C732 1.384 . S
C734 C735 1.372 . S
C735 C734 1.372 . S
C735 C736 1.400 . S
C735 C740 1.490 . S
C736 H726 0.930 . S
C736 C735 1.400 . S
C736 C739 1.386 . S
H737 C753 0.930 . S
H738 C754 0.931 . S
C739 H727 0.929 . S
C739 C733 1.390 . S
C739 C736 1.386 . S
C740 C735 1.490 . S
C740 C742 1.395 . S
C740 C743 1.403 . S
H741 C747 0.930 . S
C742 H728 0.930 . S
C742 C740 1.395 . S
C742 C745 1.403 1_655 S
C743 C740 1.403 . S
C743 C744 1.524 . S
C743 C747 1.400 1_655 S
C744 H729 0.960 1_655 S
C744 H730 0.960 . S
C744 H731 0.960 . S
C744 C743 1.524 . S
C745 C742 1.403 1_455 S
C745 C746 1.392 . S
C745 C749 1.495 . S
C746 C745 1.392 . S
C746 C747 1.385 . S
C746 C748 1.478 . S
C747 H741 0.930 . S
C747 C743 1.400 1_455 S
C747 C746 1.385 . S
C748 C746 1.478 . S
C748 C750 1.381 . S
C748 C754 1.383 . S
C749 C745 1.495 . S
C749 H755 0.959 1_455 S
C749 H756 0.961 . S
C749 H757 0.960 . S
C750 C748 1.381 . S
C750 C751 1.394 . S
C750 H758 0.930 . S
C751 C750 1.394 . S
C751 C752 1.383 . S
C751 H759 0.929 . S
C752 C751 1.383 . S
C752 C753 1.377 . S
C753 H737 0.930 . S
C753 C752 1.377 . S
C753 C754 1.379 . S
C754 H738 0.931 . S
C754 C748 1.383 . S
C754 C753 1.379 . S
H755 C749 0.959 1_655 S
H756 C749 0.961 . S
H757 C749 0.960 . S
H758 C750 0.930 . S
H759 C751 0.929 . S
H760 C768 0.929 1_556 S
H761 C770 0.930 . S
H762 C772 0.930 . S
H763 C775 0.929 . S
H764 C778 0.930 . S
H765 C780 0.960 1_545 S
H766 C780 0.960 . S
H767 C780 0.960 . S
C768 H760 0.929 1_554 S
C768 C769 1.377 . S
C768 C770 1.384 1_554 S
C769 C768 1.377 . S
C769 C775 1.390 . S
C770 H761 0.930 . S
C770 C768 1.384 1_556 S
C770 C771 1.372 1_556 S
C771 C770 1.372 1_554 S
C771 C772 1.400 . S
C771 C776 1.490 . S
C772 H762 0.930 . S
C772 C771 1.400 . S
C772 C775 1.386 . S
H773 C789 0.930 1_554 S
H774 C790 0.942 . S
C775 H763 0.929 . S
C775 C769 1.390 . S
C775 C772 1.386 . S
C776 C771 1.490 . S
C776 C778 1.395 1_454 S
C776 C779 1.403 . S
H777 C783 0.930 . S
C778 H764 0.930 . S
C778 C776 1.395 1_656 S
C778 C781 1.403 1_565 S
C779 C776 1.403 . S
C779 C780 1.524 . S
C779 C783 1.400 1_565 S
C780 H765 0.960 1_565 S
C780 H766 0.960 . S
C780 H767 0.960 . S
C780 C779 1.524 . S
C781 C778 1.403 1_545 S
C781 C782 1.392 . S
C781 C785 1.495 . S
C782 C781 1.392 . S
C782 C783 1.385 1_656 S
C782 C784 1.478 . S
C783 H777 0.930 . S
C783 C779 1.400 1_545 S
C783 C782 1.385 1_454 S
C784 C782 1.478 . S
C784 C786 1.381 . S
C784 C790 1.374 1_556 S
C785 C781 1.495 . S
C785 H791 0.959 1_545 S
C785 H792 0.961 . S
C785 H793 0.960 . S
C786 C784 1.381 . S
C786 C787 1.394 . S
C786 H794 0.930 . S
C787 C786 1.394 . S
C787 C788 1.383 . S
C787 H795 0.929 . S
C788 C787 1.383 . S
C788 C789 1.377 . S
C789 H773 0.930 1_556 S
C789 C788 1.377 . S
C789 C790 1.377 1_556 S
C790 H774 0.942 . S
C790 C784 1.374 1_554 S
C790 C789 1.377 1_554 S
H791 C785 0.959 1_565 S
H792 C785 0.961 . S
H793 C785 0.960 . S
H794 C786 0.930 . S
H795 C787 0.929 . S
H796 C804 0.929 . S
H797 C806 0.930 . S
H798 C808 0.930 . S
H799 C811 0.929 . S
H800 C814 0.930 . S
H801 C816 0.960 . S
H802 C816 0.960 1_565 S
H803 C816 0.960 . S
C804 H796 0.929 . S
C804 C805 1.377 . S
C804 C806 1.384 . S
C805 C804 1.377 . S
C805 C811 1.390 1_565 S
C806 H797 0.930 . S
C806 C804 1.384 . S
C806 C807 1.372 . S
C807 C806 1.372 . S
C807 C808 1.400 1_565 S
C807 C812 1.490 . S
C808 H798 0.930 . S
C808 C807 1.400 1_545 S
C808 C811 1.386 . S
H809 C825 0.930 . S
H810 C826 0.931 . S
C811 H799 0.929 . S
C811 C805 1.390 1_545 S
C811 C808 1.386 . S
C812 C807 1.490 . S
C812 C814 1.395 . S
C812 C815 1.403 1_565 S
H813 C819 0.930 . S
C814 H800 0.930 . S
C814 C812 1.395 . S
C814 C817 1.403 . S
C815 C812 1.403 1_545 S
C815 C816 1.524 . S
C815 C819 1.400 . S
C816 H801 0.960 . S
C816 H802 0.960 1_545 S
C816 H803 0.960 . S
C816 C815 1.524 . S
C817 C814 1.403 . S
C817 C818 1.392 1_565 S
C817 C821 1.495 . S
C818 C817 1.392 1_545 S
C818 C819 1.385 . S
C818 C820 1.478 . S
C819 H813 0.930 . S
C819 C815 1.400 . S
C819 C818 1.385 . S
C820 C818 1.478 . S
C820 C822 1.381 1_545 S
C820 C826 1.383 . S
C821 C817 1.495 . S
C821 H827 0.959 . S
C821 H828 0.982 . S
C821 H829 0.960 . S
C822 C820 1.381 1_565 S
C822 C823 1.394 . S
C822 H830 0.930 . S
C823 C822 1.394 . S
C823 C824 1.383 1_565 S
C823 H831 0.929 . S
C824 C823 1.383 1_545 S
C824 C825 1.377 . S
C825 H809 0.930 . S
C825 C824 1.377 . S
C825 C826 1.379 . S
C826 H810 0.931 . S
C826 C820 1.383 . S
C826 C825 1.379 . S
H827 C821 0.959 . S
H828 C821 0.982 . S
H829 C821 0.960 . S
H830 C822 0.930 . S
H831 C823 0.929 . S
H832 C840 0.929 1_556 S
H833 C842 0.930 . S
H834 C844 0.930 . S
H835 C847 0.929 . S
H836 C850 0.930 . S
H837 C852 0.962 . S
H838 C852 0.960 1_556 S
H839 C852 0.960 . S
C840 H832 0.929 1_554 S
C840 C841 1.377 . S
C840 C842 1.384 1_554 S
C841 C840 1.377 . S
C841 C847 1.390 . S
C842 H833 0.930 . S
C842 C840 1.384 1_556 S
C842 C843 1.372 1_556 S
C843 C842 1.372 1_554 S
C843 C844 1.400 . S
C843 C848 1.490 . S
C844 H834 0.930 . S
C844 C843 1.400 . S
C844 C847 1.386 . S
H845 C861 0.930 1_554 S
H846 C862 0.931 . S
C847 H835 0.929 . S
C847 C841 1.390 . S
C847 C844 1.386 . S
C848 C843 1.490 . S
C848 C850 1.395 . S
C848 C851 1.403 . S
H849 C855 0.930 . S
C850 H836 0.930 . S
C850 C848 1.395 . S
C850 C853 1.403 1_554 S
C851 C848 1.403 . S
C851 C852 1.524 . S
C851 C855 1.400 1_554 S
C852 H837 0.962 . S
C852 H838 0.960 1_554 S
C852 H839 0.960 . S
C852 C851 1.524 . S
C853 C850 1.403 1_556 S
C853 C854 1.392 . S
C853 C857 1.495 . S
C854 C853 1.392 . S
C854 C855 1.385 . S
C854 C856 1.478 . S
C855 H849 0.930 . S
C855 C851 1.400 1_556 S
C855 C854 1.385 . S
C856 C854 1.478 . S
C856 C858 1.381 . S
C856 C862 1.383 1_556 S
C857 C853 1.495 . S
C857 H863 0.959 . S
C857 H864 0.961 1_556 S
C857 H865 0.960 . S
C858 C856 1.381 . S
C858 C859 1.394 . S
C858 H866 0.930 . S
C859 C858 1.394 . S
C859 C860 1.383 . S
C859 H867 0.929 . S
C860 C859 1.383 . S
C860 C861 1.377 . S
C861 H845 0.930 1_556 S
C861 C860 1.377 . S
C861 C862 1.379 1_556 S
C862 H846 0.931 . S
C862 C856 1.383 1_554 S
C862 C861 1.379 1_554 S
H863 C857 0.959 . S
H864 C857 0.961 1_554 S
H865 C857 0.960 . S
H866 C858 0.930 . S
H867 C859 0.929 . S
H868 C876 0.929 . S
H869 C878 0.930 . S
H870 C880 0.930 . S
H871 C883 0.929 . S
H872 C886 0.930 . S
H873 C888 0.960 . S
H874 C888 0.960 . S
H875 C888 0.960 . S
C876 H868 0.929 . S
C876 C877 1.377 . S
C876 C878 1.384 . S
C877 C876 1.377 . S
C877 C883 1.390 . S
C878 H869 0.930 . S
C878 C876 1.384 . S
C878 C879 1.372 . S
C879 C878 1.372 . S
C879 C880 1.400 . S
C879 C884 1.490 . S
C880 H870 0.930 . S
C880 C879 1.400 . S
C880 C883 1.386 . S
H881 C897 0.930 . S
H882 C898 0.931 . S
C883 H871 0.929 . S
C883 C877 1.390 . S
C883 C880 1.386 . S
C884 C879 1.490 . S
C884 C886 1.395 . S
C884 C887 1.403 . S
H885 C891 0.930 . S
C886 H872 0.930 . S
C886 C884 1.395 . S
C886 C889 1.403 . S
C887 C884 1.403 . S
C887 C888 1.524 . S
C887 C891 1.400 . S
C888 H873 0.960 . S
C888 H874 0.960 . S
C888 H875 0.960 . S
C888 C887 1.524 . S
C889 C886 1.403 . S
C889 C890 1.392 . S
C889 C893 1.495 . S
C890 C889 1.392 . S
C890 C891 1.385 . S
C890 C892 1.478 . S
C891 H885 0.930 . S
C891 C887 1.400 . S
C891 C890 1.385 . S
C892 C890 1.478 . S
C892 C894 1.381 . S
C892 C898 1.383 . S
C893 C889 1.495 . S
C893 H899 0.959 . S
C893 H900 0.961 . S
C893 H901 0.960 . S
C894 C892 1.381 . S
C894 C895 1.394 . S
C894 H902 0.930 . S
C895 C894 1.394 . S
C895 C896 1.383 . S
C895 H903 0.929 . S
C896 C895 1.383 . S
C896 C897 1.377 . S
C897 H881 0.930 . S
C897 C896 1.377 . S
C897 C898 1.379 . S
C898 H882 0.931 . S
C898 C892 1.383 . S
C898 C897 1.379 . S
H899 C893 0.959 . S
H900 C893 0.961 . S
H901 C893 0.960 . S
H902 C894 0.930 . S
H903 C895 0.929 . S
H904 C912 0.929 . S
H905 C914 0.930 . S
H906 C916 0.930 . S
H907 C919 0.929 . S
H908 C922 0.890 1_455 S
H909 C924 0.960 . S
H910 C924 0.960 . S
H911 C924 0.960 . S
C912 H904 0.929 . S
C912 C913 1.377 1_455 S
C912 C914 1.384 . S
C913 C912 1.377 1_655 S
C913 C919 1.390 . S
C914 H905 0.930 . S
C914 C912 1.384 . S
C914 C915 1.372 1_455 S
C915 C914 1.372 1_655 S
C915 C916 1.400 . S
C915 C920 1.490 . S
C916 H906 0.930 . S
C916 C915 1.400 . S
C916 C919 1.386 . S
H917 C933 0.930 . S
H918 C934 0.931 1_554 S
C919 H907 0.929 . S
C919 C913 1.390 . S
C919 C916 1.386 . S
C920 C915 1.490 . S
C920 C922 1.440 . S
C920 C923 1.403 1_554 S
H921 C927 0.930 . S
C922 H908 0.890 1_655 S
C922 C920 1.440 . S
C922 C925 1.402 . S
C923 C920 1.403 1_556 S
C923 C924 1.524 . S
C923 C927 1.400 . S
C924 H909 0.960 . S
C924 H910 0.960 . S
C924 H911 0.960 . S
C924 C923 1.524 . S
C925 C922 1.402 . S
C925 C926 1.394 1_554 S
C925 C929 1.494 1_655 S
C926 C925 1.394 1_556 S
C926 C927 1.385 . S
C926 C928 1.478 . S
C927 H921 0.930 . S
C927 C923 1.400 . S
C927 C926 1.385 . S
C928 C926 1.478 . S
C928 C930 1.381 1_655 S
C928 C934 1.383 . S
C929 C925 1.494 1_455 S
C929 H935 0.959 . S
C929 H936 0.961 . S
C929 H937 0.960 . S
C930 C928 1.381 1_455 S
C930 C931 1.394 . S
C930 H938 0.930 . S
C931 C930 1.394 . S
C931 C932 1.383 1_455 S
C931 H939 0.929 . S
C932 C931 1.383 1_655 S
C932 C933 1.377 . S
C933 H917 0.930 . S
C933 C932 1.377 . S
C933 C934 1.379 . S
C934 H918 0.931 1_556 S
C934 C928 1.383 . S
C934 C933 1.379 . S
H935 C929 0.959 . S
H936 C929 0.961 . S
H937 C929 0.960 . S
H938 C930 0.930 . S
H939 C931 0.929 . S
H940 C948 0.929 . S
H941 C950 0.930 . S
H942 C952 0.930 . S
H943 C955 0.929 . S
H944 C958 0.930 . S
H945 C960 0.960 . S
H946 C960 0.960 . S
H947 C960 0.960 . S
C948 H940 0.929 . S
C948 C949 1.377 1_545 S
C948 C950 1.384 . S
C949 C948 1.377 1_565 S
C949 C955 1.390 . S
C950 H941 0.930 . S
C950 C948 1.384 . S
C950 C951 1.372 1_545 S
C951 C950 1.372 1_565 S
C951 C952 1.400 . S
C951 C956 1.490 . S
C952 H942 0.930 . S
C952 C951 1.400 . S
C952 C955 1.386 . S
H953 C969 0.930 . S
H954 C970 0.931 . S
C955 H943 0.929 . S
C955 C949 1.390 . S
C955 C952 1.386 . S
C956 C951 1.490 . S
C956 C958 1.395 . S
C956 C959 1.403 . S
H957 C963 0.930 . S
C958 H944 0.930 . S
C958 C956 1.395 . S
C958 C961 1.403 . S
C959 C956 1.403 . S
C959 C960 1.524 . S
C959 C963 1.400 . S
C960 H945 0.960 . S
C960 H946 0.960 . S
C960 H947 0.960 . S
C960 C959 1.524 . S
C961 C958 1.403 . S
C961 C962 1.392 . S
C961 C965 1.495 . S
C962 C961 1.392 . S
C962 C963 1.385 . S
C962 C964 1.478 . S
C963 H957 0.930 . S
C963 C959 1.400 . S
C963 C962 1.385 . S
C964 C962 1.478 . S
C964 C966 1.381 1_565 S
C964 C970 1.383 . S
C965 C961 1.495 . S
C965 H971 0.968 . S
C965 H972 0.961 . S
C965 H973 0.960 1_565 S
C966 C964 1.381 1_545 S
C966 C967 1.394 . S
C966 H974 0.930 . S
C967 C966 1.394 . S
C967 C968 1.383 1_545 S
C967 H975 0.929 . S
C968 C967 1.383 1_565 S
C968 C969 1.377 . S
C969 H953 0.930 . S
C969 C968 1.377 . S
C969 C970 1.379 . S
C970 H954 0.931 . S
C970 C964 1.383 . S
C970 C969 1.379 . S
H971 C965 0.968 . S
H972 C965 0.961 . S
H973 C965 0.960 1_545 S
H974 C966 0.930 . S
H975 C967 0.929 . S
H976 C984 0.929 . S
H977 C986 0.930 . S
H978 C988 0.930 . S
H979 C991 0.929 . S
H980 C994 0.930 . S
H981 C996 0.960 . S
H982 C996 0.960 . S
H983 C996 0.960 . S
C984 H976 0.929 . S
C984 C985 1.377 . S
C984 C986 1.384 . S
C985 C984 1.377 . S
C985 C991 1.390 . S
C986 H977 0.930 . S
C986 C984 1.384 . S
C986 C987 1.372 . S
C987 C986 1.372 . S
C987 C988 1.400 . S
C987 C992 1.490 . S
C988 H978 0.930 . S
C988 C987 1.400 . S
C988 C991 1.386 . S
H989 C1005 0.930 . S
H990 C1006 0.931 . S
C991 H979 0.929 . S
C991 C985 1.390 . S
C991 C988 1.386 . S
C992 C987 1.490 . S
C992 C994 1.395 . S
C992 C995 1.403 1_554 S
H993 C999 0.930 . S
C994 H980 0.930 . S
C994 C992 1.395 . S
C994 C997 1.403 . S
C995 C992 1.403 1_556 S
C995 C996 1.524 . S
C995 C999 1.400 . S
C996 H981 0.960 . S
C996 H982 0.960 . S
C996 H983 0.960 . S
C996 C995 1.524 . S
C997 C994 1.403 . S
C997 C998 1.392 1_554 S
C997 C1001 1.495 . S
C998 C997 1.392 1_556 S
C998 C999 1.385 . S
C998 C1000 1.478 . S
C999 H993 0.930 . S
C999 C995 1.400 . S
C999 C998 1.385 . S
C1000 C998 1.478 . S
C1000 C1002 1.381 . S
C1000 C1006 1.383 . S
C1001 C997 1.495 . S
C1001 H1007 0.959 . S
C1001 H1008 0.961 . S
C1001 H1009 0.960 . S
C1002 C1000 1.381 . S
C1002 C1003 1.394 . S
C1002 H1010 0.930 . S
C1003 C1002 1.394 . S
C1003 C1004 1.383 . S
C1003 H1011 0.929 . S
C1004 C1003 1.383 . S
C1004 C1005 1.377 . S
C1005 H989 0.930 . S
C1005 C1004 1.377 . S
C1005 C1006 1.379 . S
C1006 H990 0.931 . S
C1006 C1000 1.383 . S
C1006 C1005 1.379 . S
H1007 C1001 0.959 . S
H1008 C1001 0.961 . S
H1009 C1001 0.960 . S
H1010 C1002 0.930 . S
H1011 C1003 0.929 . S
H1012 C1020 0.929 . S
H1013 C1022 0.930 . S
H1014 C1024 0.930 . S
H1015 C1027 0.929 . S
H1016 C1030 0.930 . S
H1017 C1032 0.960 . S
H1018 C1032 0.960 . S
H1019 C1032 0.960 . S
C1020 H1012 0.929 . S
C1020 C1021 1.377 . S
C1020 C1022 1.384 . S
C1021 C1020 1.377 . S
C1021 C1027 1.390 . S
C1022 H1013 0.930 . S
C1022 C1020 1.384 . S
C1022 C1023 1.372 . S
C1023 C1022 1.372 . S
C1023 C1024 1.400 . S
C1023 C1028 1.490 . S
C1024 H1014 0.930 . S
C1024 C1023 1.400 . S
C1024 C1027 1.386 . S
H1025 C1041 0.930 . S
H1026 C1042 0.931 . S
C1027 H1015 0.929 . S
C1027 C1021 1.390 . S
C1027 C1024 1.386 . S
C1028 C1023 1.490 . S
C1028 C1030 1.395 . S
C1028 C1031 1.403 . S
H1029 C1035 0.930 . S
C1030 H1016 0.930 . S
C1030 C1028 1.395 . S
C1030 C1033 1.403 . S
C1031 C1028 1.403 . S
C1031 C1032 1.524 . S
C1031 C1035 1.400 . S
C1032 H1017 0.960 . S
C1032 H1018 0.960 . S
C1032 H1019 0.960 . S
C1032 C1031 1.524 . S
C1033 C1030 1.403 . S
C1033 C1034 1.392 . S
C1033 C1037 1.495 . S
C1034 C1033 1.392 . S
C1034 C1035 1.385 . S
C1034 C1036 1.478 . S
C1035 H1029 0.930 . S
C1035 C1031 1.400 . S
C1035 C1034 1.385 . S
C1036 C1034 1.478 . S
C1036 C1038 1.381 . S
C1036 C1042 1.383 . S
C1037 C1033 1.495 . S
C1037 H1043 0.959 . S
C1037 H1044 0.961 . S
C1037 H1045 0.960 . S
C1038 C1036 1.381 . S
C1038 C1039 1.394 . S
C1038 H1046 0.930 . S
C1039 C1038 1.394 . S
C1039 C1040 1.383 . S
C1039 H1047 0.929 . S
C1040 C1039 1.383 . S
C1040 C1041 1.377 . S
C1041 H1025 0.930 . S
C1041 C1040 1.377 . S
C1041 C1042 1.379 . S
C1042 H1026 0.931 . S
C1042 C1036 1.383 . S
C1042 C1041 1.379 . S
H1043 C1037 0.959 . S
H1044 C1037 0.961 . S
H1045 C1037 0.960 . S
H1046 C1038 0.930 . S
H1047 C1039 0.929 . S
H1048 C1056 0.929 . S
H1049 C1058 0.930 . S
H1050 C1060 0.930 . S
H1051 C1063 0.929 1_556 S
H1052 C1066 0.930 1_655 S
H1053 C1068 0.960 . S
H1054 C1068 0.960 . S
H1055 C1068 0.960 . S
C1056 H1048 0.929 . S
C1056 C1057 1.377 . S
C1056 C1058 1.384 . S
C1057 C1056 1.377 . S
C1057 C1063 1.390 . S
C1058 H1049 0.930 . S
C1058 C1056 1.384 . S
C1058 C1059 1.372 . S
C1059 C1058 1.372 . S
C1059 C1060 1.400 1_554 S
C1059 C1064 1.490 . S
C1060 H1050 0.930 . S
C1060 C1059 1.400 1_556 S
C1060 C1063 1.386 1_556 S
H1061 C1077 0.918 1_655 S
H1062 C1078 0.931 1_655 S
C1063 H1051 0.929 1_554 S
C1063 C1057 1.390 . S
C1063 C1060 1.386 1_554 S
C1064 C1059 1.490 . S
C1064 C1066 1.395 . S
C1064 C1067 1.403 1_554 S
H1065 C1071 0.930 . S
C1066 H1052 0.930 1_455 S
C1066 C1064 1.395 . S
C1066 C1069 1.403 . S
C1067 C1064 1.403 1_556 S
C1067 C1068 1.524 . S
C1067 C1071 1.400 . S
C1068 H1053 0.960 . S
C1068 H1054 0.960 . S
C1068 H1055 0.960 . S
C1068 C1067 1.524 . S
C1069 C1066 1.403 . S
C1069 C1070 1.392 1_554 S
C1069 C1073 1.495 1_455 S
C1070 C1069 1.392 1_556 S
C1070 C1071 1.385 . S
C1070 C1072 1.478 . S
C1071 H1065 0.930 . S
C1071 C1067 1.400 . S
C1071 C1070 1.385 . S
C1072 C1070 1.478 . S
C1072 C1074 1.381 1_556 S
C1072 C1078 1.383 . S
C1073 C1069 1.495 1_655 S
C1073 H1079 0.959 . S
C1073 H1080 0.961 . S
C1073 H1081 0.974 . S
C1074 C1072 1.381 1_554 S
C1074 C1075 1.394 1_554 S
C1074 H1082 0.930 . S
C1075 C1074 1.394 1_556 S
C1075 C1076 1.383 . S
C1075 H1083 0.929 1_556 S
C1076 C1075 1.383 . S
C1076 C1077 1.377 . S
C1077 H1061 0.918 1_455 S
C1077 C1076 1.377 . S
C1077 C1078 1.379 . S
C1078 H1062 0.931 1_455 S
C1078 C1072 1.383 . S
C1078 C1077 1.379 . S
H1079 C1073 0.959 . S
H1080 C1073 0.961 . S
H1081 C1073 0.974 . S
H1082 C1074 0.930 . S
H1083 C1075 0.929 1_554 S
H1084 C1092 0.929 . S
H1085 C1094 0.930 . S
H1086 C1096 0.930 . S
H1087 C1099 0.929 . S
H1088 C1102 0.930 1_565 S
H1089 C1104 0.960 . S
H1090 C1104 0.960 . S
H1091 C1104 0.960 . S
C1092 H1084 0.929 . S
C1092 C1093 1.377 . S
C1092 C1094 1.384 . S
C1093 C1092 1.377 . S
C1093 C1099 1.390 . S
C1094 H1085 0.930 . S
C1094 C1092 1.384 . S
C1094 C1095 1.372 . S
C1095 C1094 1.372 . S
C1095 C1096 1.400 . S
C1095 C1100 1.490 . S
C1096 H1086 0.930 . S
C1096 C1095 1.400 . S
C1096 C1099 1.386 . S
H1097 C1113 0.930 . S
H1098 C1114 0.931 . S
C1099 H1087 0.929 . S
C1099 C1093 1.390 . S
C1099 C1096 1.386 . S
C1100 C1095 1.490 . S
C1100 C1102 1.395 . S
C1100 C1103 1.403 . S
H1101 C1107 0.930 . S
C1102 H1088 0.930 1_545 S
C1102 C1100 1.395 . S
C1102 C1105 1.408 . S
C1103 C1100 1.403 . S
C1103 C1104 1.524 . S
C1103 C1107 1.400 . S
C1104 H1089 0.960 . S
C1104 H1090 0.960 . S
C1104 H1091 0.960 . S
C1104 C1103 1.524 . S
C1105 C1102 1.408 . S
C1105 C1106 1.426 . S
C1105 C1109 1.459 1_545 S
C1106 C1105 1.426 . S
C1106 C1107 1.385 . S
C1106 C1108 1.478 . S
C1107 H1101 0.930 . S
C1107 C1103 1.400 . S
C1107 C1106 1.385 . S
C1108 C1106 1.478 . S
C1108 C1110 1.381 . S
C1108 C1114 1.383 . S
C1109 C1105 1.459 1_565 S
C1109 H1115 0.959 . S
C1109 H1116 0.961 . S
C1109 H1117 0.960 . S
C1110 C1108 1.381 . S
C1110 C1111 1.394 . S
C1110 H1118 0.930 . S
C1111 C1110 1.394 . S
C1111 C1112 1.383 . S
C1111 H1119 0.929 . S
C1112 C1111 1.383 . S
C1112 C1113 1.377 . S
C1113 H1097 0.930 . S
C1113 C1112 1.377 . S
C1113 C1114 1.379 . S
C1114 H1098 0.931 . S
C1114 C1108 1.383 . S
C1114 C1113 1.379 . S
H1115 C1109 0.959 . S
H1116 C1109 0.961 . S
H1117 C1109 0.960 . S
H1118 C1110 0.930 . S
H1119 C1111 0.929 . S
H1120 C1128 0.929 . S
H1121 C1130 0.930 . S
H1122 C1132 0.930 . S
H1123 C1135 0.929 . S
H1124 C1138 0.930 . S
H1125 C1140 0.960 . S
H1126 C1140 0.960 . S
H1127 C1140 0.960 . S
C1128 H1120 0.929 . S
C1128 C1129 1.377 . S
C1128 C1130 1.384 . S
C1129 C1128 1.377 . S
C1129 C1135 1.390 . S
C1130 H1121 0.930 . S
C1130 C1128 1.384 . S
C1130 C1131 1.372 . S
C1131 C1130 1.372 . S
C1131 C1132 1.400 . S
C1131 C1136 1.490 . S
C1132 H1122 0.930 . S
C1132 C1131 1.400 . S
C1132 C1135 1.386 . S
H1133 C1149 0.930 . S
H1134 C1150 0.931 . S
C1135 H1123 0.929 . S
C1135 C1129 1.390 . S
C1135 C1132 1.386 . S
C1136 C1131 1.490 . S
C1136 C1138 1.395 . S
C1136 C1139 1.403 . S
H1137 C1143 0.930 . S
C1138 H1124 0.930 . S
C1138 C1136 1.395 . S
C1138 C1141 1.403 . S
C1139 C1136 1.403 . S
C1139 C1140 1.524 . S
C1139 C1143 1.400 . S
C1140 H1125 0.960 . S
C1140 H1126 0.960 . S
C1140 H1127 0.960 . S
C1140 C1139 1.524 . S
C1141 C1138 1.403 . S
C1141 C1142 1.392 . S
C1141 C1145 1.495 . S
C1142 C1141 1.392 . S
C1142 C1143 1.385 . S
C1142 C1144 1.478 . S
C1143 H1137 0.930 . S
C1143 C1139 1.400 . S
C1143 C1142 1.385 . S
C1144 C1142 1.478 . S
C1144 C1146 1.381 . S
C1144 C1150 1.383 . S
C1145 C1141 1.495 . S
C1145 H1151 0.959 . S
C1145 H1152 0.961 . S
C1145 H1153 0.960 . S
C1146 C1144 1.381 . S
C1146 C1147 1.394 . S
C1146 H1154 0.930 . S
C1147 C1146 1.394 . S
C1147 C1148 1.383 . S
C1147 H1155 0.929 . S
C1148 C1147 1.383 . S
C1148 C1149 1.377 . S
C1149 H1133 0.930 . S
C1149 C1148 1.377 . S
C1149 C1150 1.379 . S
C1150 H1134 0.931 . S
C1150 C1144 1.383 . S
C1150 C1149 1.379 . S
H1151 C1145 0.959 . S
H1152 C1145 0.961 . S
H1153 C1145 0.960 . S
H1154 C1146 0.930 . S
H1155 C1147 0.929 . S
H1156 C1164 0.929 . S
H1157 C1166 0.930 . S
H1158 C1168 0.930 . S
H1159 C1171 0.929 . S
H1160 C1174 0.930 . S
H1161 C1176 0.960 . S
H1162 C1176 0.960 . S
H1163 C1176 0.960 . S
C1164 H1156 0.929 . S
C1164 C1165 1.377 . S
C1164 C1166 1.384 . S
C1165 C1164 1.377 . S
C1165 C1171 1.390 . S
C1166 H1157 0.930 . S
C1166 C1164 1.384 . S
C1166 C1167 1.372 . S
C1167 C1166 1.372 . S
C1167 C1168 1.400 . S
C1167 C1172 1.490 . S
C1168 H1158 0.930 . S
C1168 C1167 1.400 . S
C1168 C1171 1.386 . S
H1169 C1185 0.930 . S
H1170 C1186 0.931 . S
C1171 H1159 0.929 . S
C1171 C1165 1.390 . S
C1171 C1168 1.386 . S
C1172 C1167 1.490 . S
C1172 C1174 1.395 . S
C1172 C1175 1.403 . S
H1173 C1179 0.930 . S
C1174 H1160 0.930 . S
C1174 C1172 1.395 . S
C1174 C1177 1.403 . S
C1175 C1172 1.403 . S
C1175 C1176 1.524 . S
C1175 C1179 1.400 . S
C1176 H1161 0.960 . S
C1176 H1162 0.960 . S
C1176 H1163 0.960 . S
C1176 C1175 1.524 . S
C1177 C1174 1.403 . S
C1177 C1178 1.392 . S
C1177 C1181 1.495 . S
C1178 C1177 1.392 . S
C1178 C1179 1.385 . S
C1178 C1180 1.478 . S
C1179 H1173 0.930 . S
C1179 C1175 1.400 . S
C1179 C1178 1.385 . S
C1180 C1178 1.478 . S
C1180 C1182 1.381 . S
C1180 C1186 1.383 . S
C1181 C1177 1.495 . S
C1181 H1187 0.959 . S
C1181 H1188 0.961 . S
C1181 H1189 0.960 . S
C1182 C1180 1.381 . S
C1182 C1183 1.394 . S
C1182 H1190 0.930 . S
C1183 C1182 1.394 . S
C1183 C1184 1.383 . S
C1183 H1191 0.929 . S
C1184 C1183 1.383 . S
C1184 C1185 1.377 . S
C1185 H1169 0.930 . S
C1185 C1184 1.377 . S
C1185 C1186 1.379 . S
C1186 H1170 0.931 . S
C1186 C1180 1.383 . S
C1186 C1185 1.379 . S
H1187 C1181 0.959 . S
H1188 C1181 0.961 . S
H1189 C1181 0.960 . S
H1190 C1182 0.930 . S
H1191 C1183 0.929 . S
H1192 C1200 0.929 . S
H1193 C1202 0.930 . S
H1194 C1204 0.930 . S
H1195 C1207 0.929 . S
H1196 C1210 0.930 . S
H1197 C1212 0.960 . S
H1198 C1212 0.960 . S
H1199 C1212 0.960 . S
C1200 H1192 0.929 . S
C1200 C1201 1.377 . S
C1200 C1202 1.384 . S
C1201 C1200 1.377 . S
C1201 C1207 1.390 . S
C1202 H1193 0.930 . S
C1202 C1200 1.384 . S
C1202 C1203 1.372 . S
C1203 C1202 1.372 . S
C1203 C1204 1.400 . S
C1203 C1208 1.490 . S
C1204 H1194 0.930 . S
C1204 C1203 1.400 . S
C1204 C1207 1.386 . S
H1205 C1221 0.930 . S
H1206 C1222 0.931 . S
C1207 H1195 0.929 . S
C1207 C1201 1.390 . S
C1207 C1204 1.386 . S
C1208 C1203 1.490 . S
C1208 C1210 1.395 . S
C1208 C1211 1.403 . S
H1209 C1215 0.930 . S
C1210 H1196 0.930 . S
C1210 C1208 1.395 . S
C1210 C1213 1.403 . S
C1211 C1208 1.403 . S
C1211 C1212 1.524 . S
C1211 C1215 1.400 . S
C1212 H1197 0.960 . S
C1212 H1198 0.960 . S
C1212 H1199 0.960 . S
C1212 C1211 1.524 . S
C1213 C1210 1.403 . S
C1213 C1214 1.392 . S
C1213 C1217 1.495 . S
C1214 C1213 1.392 . S
C1214 C1215 1.385 . S
C1214 C1216 1.478 . S
C1215 H1209 0.930 . S
C1215 C1211 1.400 . S
C1215 C1214 1.385 . S
C1216 C1214 1.478 . S
C1216 C1218 1.381 . S
C1216 C1222 1.383 . S
C1217 C1213 1.495 . S
C1217 H1223 0.959 . S
C1217 H1224 0.961 . S
C1217 H1225 0.960 . S
C1218 C1216 1.381 . S
C1218 C1219 1.394 . S
C1218 H1226 0.930 . S
C1219 C1218 1.394 . S
C1219 C1220 1.383 . S
C1219 H1227 0.929 . S
C1220 C1219 1.383 . S
C1220 C1221 1.377 . S
C1221 H1205 0.930 . S
C1221 C1220 1.377 . S
C1221 C1222 1.379 . S
C1222 H1206 0.931 . S
C1222 C1216 1.383 . S
C1222 C1221 1.379 . S
H1223 C1217 0.959 . S
H1224 C1217 0.961 . S
H1225 C1217 0.960 . S
H1226 C1218 0.930 . S
H1227 C1219 0.929 . S
H1228 C1236 0.929 . S
H1229 C1238 0.930 . S
H1230 C1240 0.930 . S
H1231 C1243 0.929 . S
H1232 C1246 0.930 . S
H1233 C1248 0.960 . S
H1234 C1248 0.960 . S
H1235 C1248 0.960 . S
C1236 H1228 0.929 . S
C1236 C1237 1.377 . S
C1236 C1238 1.384 . S
C1237 C1236 1.377 . S
C1237 C1243 1.390 . S
C1238 H1229 0.930 . S
C1238 C1236 1.384 . S
C1238 C1239 1.372 . S
C1239 C1238 1.372 . S
C1239 C1240 1.400 . S
C1239 C1244 1.490 . S
C1240 H1230 0.930 . S
C1240 C1239 1.400 . S
C1240 C1243 1.386 . S
H1241 C1257 0.930 . S
H1242 C1258 0.931 . S
C1243 H1231 0.929 . S
C1243 C1237 1.390 . S
C1243 C1240 1.386 . S
C1244 C1239 1.490 . S
C1244 C1246 1.395 . S
C1244 C1247 1.403 . S
H1245 C1251 0.930 . S
C1246 H1232 0.930 . S
C1246 C1244 1.395 . S
C1246 C1249 1.403 . S
C1247 C1244 1.403 . S
C1247 C1248 1.524 . S
C1247 C1251 1.400 . S
C1248 H1233 0.960 . S
C1248 H1234 0.960 . S
C1248 H1235 0.960 . S
C1248 C1247 1.524 . S
C1249 C1246 1.403 . S
C1249 C1250 1.392 . S
C1249 C1253 1.495 . S
C1250 C1249 1.392 . S
C1250 C1251 1.385 . S
C1250 C1252 1.478 . S
C1251 H1245 0.930 . S
C1251 C1247 1.400 . S
C1251 C1250 1.385 . S
C1252 C1250 1.478 . S
C1252 C1254 1.381 . S
C1252 C1258 1.383 . S
C1253 C1249 1.495 . S
C1253 H1259 0.959 . S
C1253 H1260 0.961 . S
C1253 H1261 0.960 . S
C1254 C1252 1.381 . S
C1254 C1255 1.394 . S
C1254 H1262 0.930 . S
C1255 C1254 1.394 . S
C1255 C1256 1.383 . S
C1255 H1263 0.929 . S
C1256 C1255 1.383 . S
C1256 C1257 1.377 . S
C1257 H1241 0.930 . S
C1257 C1256 1.377 . S
C1257 C1258 1.379 . S
C1258 H1242 0.931 . S
C1258 C1252 1.383 . S
C1258 C1257 1.379 . S
H1259 C1253 0.959 . S
H1260 C1253 0.961 . S
H1261 C1253 0.960 . S
H1262 C1254 0.930 . S
H1263 C1255 0.929 . S
H1264 C1272 0.929 . S
H1265 C1274 0.930 . S
H1266 C1276 0.930 . S
H1267 C1279 0.929 . S
H1268 C1282 0.930 . S
H1269 C1284 0.960 . S
H1270 C1284 0.960 . S
H1271 C1284 0.960 . S
C1272 H1264 0.929 . S
C1272 C1273 1.377 . S
C1272 C1274 1.384 . S
C1273 C1272 1.377 . S
C1273 C1279 1.390 . S
C1274 H1265 0.930 . S
C1274 C1272 1.384 . S
C1274 C1275 1.372 . S
C1275 C1274 1.372 . S
C1275 C1276 1.400 . S
C1275 C1280 1.490 . S
C1276 H1266 0.930 . S
C1276 C1275 1.400 . S
C1276 C1279 1.386 . S
H1277 C1293 0.930 . S
H1278 C1294 0.931 . S
C1279 H1267 0.929 . S
C1279 C1273 1.390 . S
C1279 C1276 1.386 . S
C1280 C1275 1.490 . S
C1280 C1282 1.395 . S
C1280 C1283 1.403 . S
H1281 C1287 0.930 . S
C1282 H1268 0.930 . S
C1282 C1280 1.395 . S
C1282 C1285 1.403 . S
C1283 C1280 1.403 . S
C1283 C1284 1.524 . S
C1283 C1287 1.400 . S
C1284 H1269 0.960 . S
C1284 H1270 0.960 . S
C1284 H1271 0.960 . S
C1284 C1283 1.524 . S
C1285 C1282 1.403 . S
C1285 C1286 1.392 . S
C1285 C1289 1.495 . S
C1286 C1285 1.392 . S
C1286 C1287 1.385 . S
C1286 C1288 1.478 . S
C1287 H1281 0.930 . S
C1287 C1283 1.400 . S
C1287 C1286 1.385 . S
C1288 C1286 1.478 . S
C1288 C1290 1.381 . S
C1288 C1294 1.383 . S
C1289 C1285 1.495 . S
C1289 H1295 0.959 . S
C1289 H1296 0.961 . S
C1289 H1297 0.960 . S
C1290 C1288 1.381 . S
C1290 C1291 1.394 . S
C1290 H1298 0.930 . S
C1291 C1290 1.394 . S
C1291 C1292 1.383 . S
C1291 H1299 0.929 . S
C1292 C1291 1.383 . S
C1292 C1293 1.377 . S
C1293 H1277 0.930 . S
C1293 C1292 1.377 . S
C1293 C1294 1.379 . S
C1294 H1278 0.931 . S
C1294 C1288 1.383 . S
C1294 C1293 1.379 . S
H1295 C1289 0.959 . S
H1296 C1289 0.961 . S
H1297 C1289 0.960 . S
H1298 C1290 0.930 . S
H1299 C1291 0.929 . S
H1300 C1308 0.929 . S
H1301 C1310 0.930 . S
H1302 C1312 0.930 . S
H1303 C1315 0.929 . S
H1304 C1318 0.930 . S
H1305 C1320 0.960 . S
H1306 C1320 0.960 . S
H1307 C1320 0.960 . S
C1308 H1300 0.929 . S
C1308 C1309 1.377 . S
C1308 C1310 1.384 . S
C1309 C1308 1.377 . S
C1309 C1315 1.390 . S
C1310 H1301 0.930 . S
C1310 C1308 1.384 . S
C1310 C1311 1.372 . S
C1311 C1310 1.372 . S
C1311 C1312 1.400 . S
C1311 C1316 1.490 . S
C1312 H1302 0.930 . S
C1312 C1311 1.400 . S
C1312 C1315 1.386 . S
H1313 C1329 0.930 . S
H1314 C1330 0.931 . S
C1315 H1303 0.929 . S
C1315 C1309 1.390 . S
C1315 C1312 1.386 . S
C1316 C1311 1.490 . S
C1316 C1318 1.395 . S
C1316 C1319 1.403 . S
H1317 C1323 0.930 . S
C1318 H1304 0.930 . S
C1318 C1316 1.395 . S
C1318 C1321 1.403 . S
C1319 C1316 1.403 . S
C1319 C1320 1.524 . S
C1319 C1323 1.400 . S
C1320 H1305 0.960 . S
C1320 H1306 0.960 . S
C1320 H1307 0.960 . S
C1320 C1319 1.524 . S
C1321 C1318 1.403 . S
C1321 C1322 1.392 . S
C1321 C1325 1.495 . S
C1322 C1321 1.392 . S
C1322 C1323 1.385 . S
C1322 C1324 1.478 . S
C1323 H1317 0.930 . S
C1323 C1319 1.400 . S
C1323 C1322 1.385 . S
C1324 C1322 1.478 . S
C1324 C1326 1.381 . S
C1324 C1330 1.383 . S
C1325 C1321 1.495 . S
C1325 H1331 0.959 . S
C1325 H1332 0.961 . S
C1325 H1333 0.960 . S
C1326 C1324 1.381 . S
C1326 C1327 1.394 . S
C1326 H1334 0.930 . S
C1327 C1326 1.394 . S
C1327 C1328 1.383 . S
C1327 H1335 0.929 . S
C1328 C1327 1.383 . S
C1328 C1329 1.377 . S
C1329 H1313 0.930 . S
C1329 C1328 1.377 . S
C1329 C1330 1.379 . S
C1330 H1314 0.931 . S
C1330 C1324 1.383 . S
C1330 C1329 1.379 . S
H1331 C1325 0.959 . S
H1332 C1325 0.961 . S
H1333 C1325 0.960 . S
H1334 C1326 0.930 . S
H1335 C1327 0.929 . S
H1336 C1344 0.929 . S
H1337 C1346 0.930 . S
H1338 C1348 0.930 . S
H1339 C1351 0.929 . S
H1340 C1354 0.930 . S
H1341 C1356 0.960 . S
H1342 C1356 0.960 . S
H1343 C1356 0.960 . S
C1344 H1336 0.929 . S
C1344 C1345 1.377 . S
C1344 C1346 1.384 . S
C1345 C1344 1.377 . S
C1345 C1351 1.390 . S
C1346 H1337 0.930 . S
C1346 C1344 1.384 . S
C1346 C1347 1.372 . S
C1347 C1346 1.372 . S
C1347 C1348 1.400 . S
C1347 C1352 1.490 . S
C1348 H1338 0.930 . S
C1348 C1347 1.400 . S
C1348 C1351 1.386 . S
H1349 C1365 0.930 . S
H1350 C1366 0.931 . S
C1351 H1339 0.929 . S
C1351 C1345 1.390 . S
C1351 C1348 1.386 . S
C1352 C1347 1.490 . S
C1352 C1354 1.395 . S
C1352 C1355 1.403 . S
H1353 C1359 0.930 . S
C1354 H1340 0.930 . S
C1354 C1352 1.395 . S
C1354 C1357 1.403 . S
C1355 C1352 1.403 . S
C1355 C1356 1.524 . S
C1355 C1359 1.400 . S
C1356 H1341 0.960 . S
C1356 H1342 0.960 . S
C1356 H1343 0.960 . S
C1356 C1355 1.524 . S
C1357 C1354 1.403 . S
C1357 C1358 1.392 . S
C1357 C1361 1.495 . S
C1358 C1357 1.392 . S
C1358 C1359 1.385 . S
C1358 C1360 1.478 . S
C1359 H1353 0.930 . S
C1359 C1355 1.400 . S
C1359 C1358 1.385 . S
C1360 C1358 1.478 . S
C1360 C1362 1.381 . S
C1360 C1366 1.383 . S
C1361 C1357 1.495 . S
C1361 H1367 0.959 . S
C1361 H1368 0.961 . S
C1361 H1369 0.960 . S
C1362 C1360 1.381 . S
C1362 C1363 1.394 . S
C1362 H1370 0.930 . S
C1363 C1362 1.394 . S
C1363 C1364 1.383 . S
C1363 H1371 0.929 . S
C1364 C1363 1.383 . S
C1364 C1365 1.377 . S
C1365 H1349 0.930 . S
C1365 C1364 1.377 . S
C1365 C1366 1.379 . S
C1366 H1350 0.931 . S
C1366 C1360 1.383 . S
C1366 C1365 1.379 . S
H1367 C1361 0.959 . S
H1368 C1361 0.961 . S
H1369 C1361 0.960 . S
H1370 C1362 0.930 . S
H1371 C1363 0.929 . S
H1372 C1380 0.929 . S
H1373 C1382 0.930 . S
H1374 C1384 0.930 . S
H1375 C1387 0.929 . S
H1376 C1390 0.930 . S
H1377 C1392 0.960 . S
H1378 C1392 0.960 . S
H1379 C1392 0.960 . S
C1380 H1372 0.929 . S
C1380 C1381 1.377 . S
C1380 C1382 1.384 . S
C1381 C1380 1.377 . S
C1381 C1387 1.390 . S
C1382 H1373 0.930 . S
C1382 C1380 1.384 . S
C1382 C1383 1.372 . S
C1383 C1382 1.372 . S
C1383 C1384 1.400 . S
C1383 C1388 1.490 . S
C1384 H1374 0.930 . S
C1384 C1383 1.400 . S
C1384 C1387 1.386 . S
H1385 C1401 0.930 . S
H1386 C1402 0.931 . S
C1387 H1375 0.929 . S
C1387 C1381 1.390 . S
C1387 C1384 1.386 . S
C1388 C1383 1.490 . S
C1388 C1390 1.395 . S
C1388 C1391 1.403 . S
H1389 C1395 0.930 . S
C1390 H1376 0.930 . S
C1390 C1388 1.395 . S
C1390 C1393 1.403 . S
C1391 C1388 1.403 . S
C1391 C1392 1.524 . S
C1391 C1395 1.400 . S
C1392 H1377 0.960 . S
C1392 H1378 0.960 . S
C1392 H1379 0.960 . S
C1392 C1391 1.524 . S
C1393 C1390 1.403 . S
C1393 C1394 1.392 . S
C1393 C1397 1.495 . S
C1394 C1393 1.392 . S
C1394 C1395 1.385 . S
C1394 C1396 1.478 . S
C1395 H1389 0.930 . S
C1395 C1391 1.400 . S
C1395 C1394 1.385 . S
C1396 C1394 1.478 . S
C1396 C1398 1.381 . S
C1396 C1402 1.383 . S
C1397 C1393 1.495 . S
C1397 H1403 0.959 . S
C1397 H1404 0.961 . S
C1397 H1405 0.960 . S
C1398 C1396 1.381 . S
C1398 C1399 1.394 . S
C1398 H1406 0.930 . S
C1399 C1398 1.394 . S
C1399 C1400 1.383 . S
C1399 H1407 0.929 . S
C1400 C1399 1.383 . S
C1400 C1401 1.377 . S
C1401 H1385 0.930 . S
C1401 C1400 1.377 . S
C1401 C1402 1.379 . S
C1402 H1386 0.931 . S
C1402 C1396 1.383 . S
C1402 C1401 1.379 . S
H1403 C1397 0.959 . S
H1404 C1397 0.961 . S
H1405 C1397 0.960 . S
H1406 C1398 0.930 . S
H1407 C1399 0.929 . S
H1408 C1416 0.929 . S
H1409 C1418 0.930 . S
H1410 C1420 0.930 . S
H1411 C1423 0.929 . S
H1412 C1426 0.930 . S
H1413 C1428 0.960 . S
H1414 C1428 0.960 . S
H1415 C1428 0.960 . S
C1416 H1408 0.929 . S
C1416 C1417 1.377 . S
C1416 C1418 1.384 . S
C1417 C1416 1.377 . S
C1417 C1423 1.390 . S
C1418 H1409 0.930 . S
C1418 C1416 1.384 . S
C1418 C1419 1.372 . S
C1419 C1418 1.372 . S
C1419 C1420 1.400 . S
C1419 C1424 1.490 . S
C1420 H1410 0.930 . S
C1420 C1419 1.400 . S
C1420 C1423 1.386 . S
H1421 C1437 0.930 . S
H1422 C1438 0.931 . S
C1423 H1411 0.929 . S
C1423 C1417 1.390 . S
C1423 C1420 1.386 . S
C1424 C1419 1.490 . S
C1424 C1426 1.395 . S
C1424 C1427 1.403 . S
H1425 C1431 0.930 . S
C1426 H1412 0.930 . S
C1426 C1424 1.395 . S
C1426 C1429 1.403 . S
C1427 C1424 1.403 . S
C1427 C1428 1.524 . S
C1427 C1431 1.400 . S
C1428 H1413 0.960 . S
C1428 H1414 0.960 . S
C1428 H1415 0.960 . S
C1428 C1427 1.524 . S
C1429 C1426 1.403 . S
C1429 C1430 1.392 . S
C1429 C1433 1.495 . S
C1430 C1429 1.392 . S
C1430 C1431 1.385 . S
C1430 C1432 1.478 . S
C1431 H1425 0.930 . S
C1431 C1427 1.400 . S
C1431 C1430 1.385 . S
C1432 C1430 1.478 . S
C1432 C1434 1.381 . S
C1432 C1438 1.383 . S
C1433 C1429 1.495 . S
C1433 H1439 0.959 . S
C1433 H1440 0.961 . S
C1433 H1441 0.960 . S
C1434 C1432 1.381 . S
C1434 C1435 1.394 . S
C1434 H1442 0.930 . S
C1435 C1434 1.394 . S
C1435 C1436 1.383 . S
C1435 H1443 0.929 . S
C1436 C1435 1.383 . S
C1436 C1437 1.377 . S
C1437 H1421 0.930 . S
C1437 C1436 1.377 . S
C1437 C1438 1.379 . S
C1438 H1422 0.931 . S
C1438 C1432 1.383 . S
C1438 C1437 1.379 . S
H1439 C1433 0.959 . S
H1440 C1433 0.961 . S
H1441 C1433 0.960 . S
H1442 C1434 0.930 . S
H1443 C1435 0.929 . S
H1444 C1452 0.929 . S
H1445 C1454 0.930 . S
H1446 C1456 0.930 . S
H1447 C1459 0.929 . S
H1448 C1462 0.930 . S
H1449 C1464 0.960 . S
H1450 C1464 0.960 . S
H1451 C1464 0.960 . S
C1452 H1444 0.929 . S
C1452 C1453 1.377 . S
C1452 C1454 1.384 . S
C1453 C1452 1.377 . S
C1453 C1459 1.390 . S
C1454 H1445 0.930 . S
C1454 C1452 1.384 . S
C1454 C1455 1.372 . S
C1455 C1454 1.372 . S
C1455 C1456 1.400 . S
C1455 C1460 1.490 . S
C1456 H1446 0.930 . S
C1456 C1455 1.400 . S
C1456 C1459 1.386 . S
H1457 C1473 0.930 . S
H1458 C1474 0.931 . S
C1459 H1447 0.929 . S
C1459 C1453 1.390 . S
C1459 C1456 1.386 . S
C1460 C1455 1.490 . S
C1460 C1462 1.395 . S
C1460 C1463 1.403 . S
H1461 C1467 0.930 . S
C1462 H1448 0.930 . S
C1462 C1460 1.395 . S
C1462 C1465 1.403 . S
C1463 C1460 1.403 . S
C1463 C1464 1.524 . S
C1463 C1467 1.400 . S
C1464 H1449 0.960 . S
C1464 H1450 0.960 . S
C1464 H1451 0.960 . S
C1464 C1463 1.524 . S
C1465 C1462 1.403 . S
C1465 C1466 1.392 . S
C1465 C1469 1.495 . S
C1466 C1465 1.392 . S
C1466 C1467 1.385 . S
C1466 C1468 1.478 . S
C1467 H1461 0.930 . S
C1467 C1463 1.400 . S
C1467 C1466 1.385 . S
C1468 C1466 1.478 . S
C1468 C1470 1.381 . S
C1468 C1474 1.383 . S
C1469 C1465 1.495 . S
C1469 H1475 0.959 . S
C1469 H1476 0.961 . S
C1469 H1477 0.960 . S
C1470 C1468 1.381 . S
C1470 C1471 1.394 . S
C1470 H1478 0.930 . S
C1471 C1470 1.394 . S
C1471 C1472 1.383 . S
C1471 H1479 0.929 . S
C1472 C1471 1.383 . S
C1472 C1473 1.377 . S
C1473 H1457 0.930 . S
C1473 C1472 1.377 . S
C1473 C1474 1.379 . S
C1474 H1458 0.931 . S
C1474 C1468 1.383 . S
C1474 C1473 1.379 . S
H1475 C1469 0.959 . S
H1476 C1469 0.961 . S
H1477 C1469 0.960 . S
H1478 C1470 0.930 . S
H1479 C1471 0.929 . S
H1480 C1488 0.929 . S
H1481 C1490 0.930 . S
H1482 C1492 0.930 . S
H1483 C1495 0.929 . S
H1484 C1498 0.930 . S
H1485 C1500 0.960 . S
H1486 C1500 0.960 . S
H1487 C1500 0.960 . S
C1488 H1480 0.929 . S
C1488 C1489 1.377 . S
C1488 C1490 1.384 . S
C1489 C1488 1.377 . S
C1489 C1495 1.390 . S
C1490 H1481 0.930 . S
C1490 C1488 1.384 . S
C1490 C1491 1.372 . S
C1491 C1490 1.372 . S
C1491 C1492 1.400 . S
C1491 C1496 1.490 . S
C1492 H1482 0.930 . S
C1492 C1491 1.400 . S
C1492 C1495 1.386 . S
H1493 C1509 0.930 . S
H1494 C1510 0.931 . S
C1495 H1483 0.929 . S
C1495 C1489 1.390 . S
C1495 C1492 1.386 . S
C1496 C1491 1.490 . S
C1496 C1498 1.395 . S
C1496 C1499 1.403 . S
H1497 C1503 0.930 . S
C1498 H1484 0.930 . S
C1498 C1496 1.395 . S
C1498 C1501 1.403 . S
C1499 C1496 1.403 . S
C1499 C1500 1.524 . S
C1499 C1503 1.400 . S
C1500 H1485 0.960 . S
C1500 H1486 0.960 . S
C1500 H1487 0.960 . S
C1500 C1499 1.524 . S
C1501 C1498 1.403 . S
C1501 C1502 1.392 . S
C1501 C1505 1.495 . S
C1502 C1501 1.392 . S
C1502 C1503 1.385 . S
C1502 C1504 1.478 . S
C1503 H1497 0.930 . S
C1503 C1499 1.400 . S
C1503 C1502 1.385 . S
C1504 C1502 1.478 . S
C1504 C1506 1.381 . S
C1504 C1510 1.383 . S
C1505 C1501 1.495 . S
C1505 H1511 0.959 . S
C1505 H1512 0.961 . S
C1505 H1513 0.960 . S
C1506 C1504 1.381 . S
C1506 C1507 1.394 . S
C1506 H1514 0.930 . S
C1507 C1506 1.394 . S
C1507 C1508 1.383 . S
C1507 H1515 0.929 . S
C1508 C1507 1.383 . S
C1508 C1509 1.377 . S
C1509 H1493 0.930 . S
C1509 C1508 1.377 . S
C1509 C1510 1.379 . S
C1510 H1494 0.931 . S
C1510 C1504 1.383 . S
C1510 C1509 1.379 . S
H1511 C1505 0.959 . S
H1512 C1505 0.961 . S
H1513 C1505 0.960 . S
H1514 C1506 0.930 . S
H1515 C1507 0.929 . S
H1516 C1524 0.929 . S
H1517 C1526 0.930 . S
H1518 C1528 0.930 . S
H1519 C1531 0.929 . S
H1520 C1534 0.930 . S
H1521 C1536 0.960 . S
H1522 C1536 0.960 . S
H1523 C1536 0.960 . S
C1524 H1516 0.929 . S
C1524 C1525 1.377 . S
C1524 C1526 1.384 . S
C1525 C1524 1.377 . S
C1525 C1531 1.390 . S
C1526 H1517 0.930 . S
C1526 C1524 1.384 . S
C1526 C1527 1.372 . S
C1527 C1526 1.372 . S
C1527 C1528 1.400 . S
C1527 C1532 1.490 . S
C1528 H1518 0.930 . S
C1528 C1527 1.400 . S
C1528 C1531 1.386 . S
H1529 C1545 0.930 . S
H1530 C1546 0.931 . S
C1531 H1519 0.929 . S
C1531 C1525 1.390 . S
C1531 C1528 1.386 . S
C1532 C1527 1.490 . S
C1532 C1534 1.395 . S
C1532 C1535 1.403 . S
H1533 C1539 0.930 . S
C1534 H1520 0.930 . S
C1534 C1532 1.395 . S
C1534 C1537 1.403 . S
C1535 C1532 1.403 . S
C1535 C1536 1.524 . S
C1535 C1539 1.400 . S
C1536 H1521 0.960 . S
C1536 H1522 0.960 . S
C1536 H1523 0.960 . S
C1536 C1535 1.524 . S
C1537 C1534 1.403 . S
C1537 C1538 1.392 . S
C1537 C1541 1.495 . S
C1538 C1537 1.392 . S
C1538 C1539 1.385 . S
C1538 C1540 1.478 . S
C1539 H1533 0.930 . S
C1539 C1535 1.400 . S
C1539 C1538 1.385 . S
C1540 C1538 1.478 . S
C1540 C1542 1.381 . S
C1540 C1546 1.383 . S
C1541 C1537 1.495 . S
C1541 H1547 0.959 . S
C1541 H1548 0.961 . S
C1541 H1549 0.960 . S
C1542 C1540 1.381 . S
C1542 C1543 1.394 . S
C1542 H1550 0.930 . S
C1543 C1542 1.394 . S
C1543 C1544 1.383 . S
C1543 H1551 0.929 . S
C1544 C1543 1.383 . S
C1544 C1545 1.377 . S
C1545 H1529 0.930 . S
C1545 C1544 1.377 . S
C1545 C1546 1.379 . S
C1546 H1530 0.931 . S
C1546 C1540 1.383 . S
C1546 C1545 1.379 . S
H1547 C1541 0.959 . S
H1548 C1541 0.961 . S
H1549 C1541 0.960 . S
H1550 C1542 0.930 . S
H1551 C1543 0.929 . S
H1552 C1560 0.929 . S
H1553 C1562 0.930 . S
H1554 C1564 0.930 . S
H1555 C1567 0.929 . S
H1556 C1570 0.930 . S
H1557 C1572 0.960 . S
H1558 C1572 0.960 . S
H1559 C1572 0.960 . S
C1560 H1552 0.929 . S
C1560 C1561 1.377 . S
C1560 C1562 1.384 . S
C1561 C1560 1.377 . S
C1561 C1567 1.390 . S
C1562 H1553 0.930 . S
C1562 C1560 1.384 . S
C1562 C1563 1.372 . S
C1563 C1562 1.372 . S
C1563 C1564 1.400 . S
C1563 C1568 1.490 . S
C1564 H1554 0.930 . S
C1564 C1563 1.400 . S
C1564 C1567 1.386 . S
H1565 C1581 0.930 . S
H1566 C1582 0.931 . S
C1567 H1555 0.929 . S
C1567 C1561 1.390 . S
C1567 C1564 1.386 . S
C1568 C1563 1.490 . S
C1568 C1570 1.395 . S
C1568 C1571 1.403 . S
H1569 C1575 0.930 . S
C1570 H1556 0.930 . S
C1570 C1568 1.395 . S
C1570 C1573 1.403 . S
C1571 C1568 1.403 . S
C1571 C1572 1.524 . S
C1571 C1575 1.400 . S
C1572 H1557 0.960 . S
C1572 H1558 0.960 . S
C1572 H1559 0.960 . S
C1572 C1571 1.524 . S
C1573 C1570 1.403 . S
C1573 C1574 1.392 . S
C1573 C1577 1.495 . S
C1574 C1573 1.392 . S
C1574 C1575 1.385 . S
C1574 C1576 1.478 . S
C1575 H1569 0.930 . S
C1575 C1571 1.400 . S
C1575 C1574 1.385 . S
C1576 C1574 1.478 . S
C1576 C1578 1.381 . S
C1576 C1582 1.383 . S
C1577 C1573 1.495 . S
C1577 H1583 0.959 . S
C1577 H1584 0.961 . S
C1577 H1585 0.960 . S
C1578 C1576 1.381 . S
C1578 C1579 1.394 . S
C1578 H1586 0.930 . S
C1579 C1578 1.394 . S
C1579 C1580 1.383 . S
C1579 H1587 0.929 . S
C1580 C1579 1.383 . S
C1580 C1581 1.377 . S
C1581 H1565 0.930 . S
C1581 C1580 1.377 . S
C1581 C1582 1.379 . S
C1582 H1566 0.931 . S
C1582 C1576 1.383 . S
C1582 C1581 1.379 . S
H1583 C1577 0.959 . S
H1584 C1577 0.961 . S
H1585 C1577 0.960 . S
H1586 C1578 0.930 . S
H1587 C1579 0.929 . S
H1588 C1596 0.929 . S
H1589 C1598 0.930 . S
H1590 C1600 0.930 . S
H1591 C1603 0.929 . S
H1592 C1606 0.930 . S
H1593 C1608 0.960 . S
H1594 C1608 0.960 . S
H1595 C1608 0.960 . S
C1596 H1588 0.929 . S
C1596 C1597 1.377 . S
C1596 C1598 1.384 . S
C1597 C1596 1.377 . S
C1597 C1603 1.390 . S
C1598 H1589 0.930 . S
C1598 C1596 1.384 . S
C1598 C1599 1.372 . S
C1599 C1598 1.372 . S
C1599 C1600 1.400 . S
C1599 C1604 1.490 . S
C1600 H1590 0.930 . S
C1600 C1599 1.400 . S
C1600 C1603 1.386 . S
H1601 C1617 0.930 . S
H1602 C1618 0.931 . S
C1603 H1591 0.929 . S
C1603 C1597 1.390 . S
C1603 C1600 1.386 . S
C1604 C1599 1.490 . S
C1604 C1606 1.395 . S
C1604 C1607 1.403 . S
H1605 C1611 0.930 . S
C1606 H1592 0.930 . S
C1606 C1604 1.395 . S
C1606 C1609 1.403 . S
C1607 C1604 1.403 . S
C1607 C1608 1.524 . S
C1607 C1611 1.400 . S
C1608 H1593 0.960 . S
C1608 H1594 0.960 . S
C1608 H1595 0.960 . S
C1608 C1607 1.524 . S
C1609 C1606 1.403 . S
C1609 C1610 1.392 . S
C1609 C1613 1.495 . S
C1610 C1609 1.392 . S
C1610 C1611 1.385 . S
C1610 C1612 1.478 . S
C1611 H1605 0.930 . S
C1611 C1607 1.400 . S
C1611 C1610 1.385 . S
C1612 C1610 1.478 . S
C1612 C1614 1.381 . S
C1612 C1618 1.383 . S
C1613 C1609 1.495 . S
C1613 H1619 0.959 . S
C1613 H1620 0.961 . S
C1613 H1621 0.960 . S
C1614 C1612 1.381 . S
C1614 C1615 1.394 . S
C1614 H1622 0.930 . S
C1615 C1614 1.394 . S
C1615 C1616 1.383 . S
C1615 H1623 0.929 . S
C1616 C1615 1.383 . S
C1616 C1617 1.377 . S
C1617 H1601 0.930 . S
C1617 C1616 1.377 . S
C1617 C1618 1.379 . S
C1618 H1602 0.931 . S
C1618 C1612 1.383 . S
C1618 C1617 1.379 . S
H1619 C1613 0.959 . S
H1620 C1613 0.961 . S
H1621 C1613 0.960 . S
H1622 C1614 0.930 . S
H1623 C1615 0.929 . S
H1624 C1632 0.929 . S
H1625 C1634 0.930 . S
H1626 C1636 0.930 . S
H1627 C1639 0.929 . S
H1628 C1642 0.930 . S
H1629 C1644 0.960 . S
H1630 C1644 0.960 . S
H1631 C1644 0.960 . S
C1632 H1624 0.929 . S
C1632 C1633 1.377 . S
C1632 C1634 1.384 . S
C1633 C1632 1.377 . S
C1633 C1639 1.390 . S
C1634 H1625 0.930 . S
C1634 C1632 1.384 . S
C1634 C1635 1.372 . S
C1635 C1634 1.372 . S
C1635 C1636 1.400 . S
C1635 C1640 1.490 . S
C1636 H1626 0.930 . S
C1636 C1635 1.400 . S
C1636 C1639 1.386 . S
H1637 C1653 0.930 . S
H1638 C1654 0.931 . S
C1639 H1627 0.929 . S
C1639 C1633 1.390 . S
C1639 C1636 1.386 . S
C1640 C1635 1.490 . S
C1640 C1642 1.395 . S
C1640 C1643 1.403 . S
H1641 C1647 0.930 . S
C1642 H1628 0.930 . S
C1642 C1640 1.395 . S
C1642 C1645 1.403 . S
C1643 C1640 1.403 . S
C1643 C1644 1.524 . S
C1643 C1647 1.400 . S
C1644 H1629 0.960 . S
C1644 H1630 0.960 . S
C1644 H1631 0.960 . S
C1644 C1643 1.524 . S
C1645 C1642 1.403 . S
C1645 C1646 1.392 . S
C1645 C1649 1.495 . S
C1646 C1645 1.392 . S
C1646 C1647 1.385 . S
C1646 C1648 1.478 . S
C1647 H1641 0.930 . S
C1647 C1643 1.400 . S
C1647 C1646 1.385 . S
C1648 C1646 1.478 . S
C1648 C1650 1.381 . S
C1648 C1654 1.383 . S
C1649 C1645 1.495 . S
C1649 H1655 0.959 . S
C1649 H1656 0.961 . S
C1649 H1657 0.960 . S
C1650 C1648 1.381 . S
C1650 C1651 1.394 . S
C1650 H1658 0.930 . S
C1651 C1650 1.394 . S
C1651 C1652 1.383 . S
C1651 H1659 0.929 . S
C1652 C1651 1.383 . S
C1652 C1653 1.377 . S
C1653 H1637 0.930 . S
C1653 C1652 1.377 . S
C1653 C1654 1.379 . S
C1654 H1638 0.931 . S
C1654 C1648 1.383 . S
C1654 C1653 1.379 . S
H1655 C1649 0.959 . S
H1656 C1649 0.961 . S
H1657 C1649 0.960 . S
H1658 C1650 0.930 . S
H1659 C1651 0.929 . S
H1660 C1668 0.929 . S
H1661 C1670 0.930 . S
H1662 C1672 0.930 . S
H1663 C1675 0.929 . S
H1664 C1678 0.930 . S
H1665 C1680 0.960 . S
H1666 C1680 0.960 . S
H1667 C1680 0.960 . S
C1668 H1660 0.929 . S
C1668 C1669 1.377 . S
C1668 C1670 1.384 . S
C1669 C1668 1.377 . S
C1669 C1675 1.390 . S
C1670 H1661 0.930 . S
C1670 C1668 1.384 . S
C1670 C1671 1.372 . S
C1671 C1670 1.372 . S
C1671 C1672 1.400 . S
C1671 C1676 1.490 . S
C1672 H1662 0.930 . S
C1672 C1671 1.400 . S
C1672 C1675 1.386 . S
H1673 C1689 0.930 . S
H1674 C1690 0.931 . S
C1675 H1663 0.929 . S
C1675 C1669 1.390 . S
C1675 C1672 1.386 . S
C1676 C1671 1.490 . S
C1676 C1678 1.395 . S
C1676 C1679 1.403 . S
H1677 C1683 0.930 . S
C1678 H1664 0.930 . S
C1678 C1676 1.395 . S
C1678 C1681 1.403 . S
C1679 C1676 1.403 . S
C1679 C1680 1.524 . S
C1679 C1683 1.400 . S
C1680 H1665 0.960 . S
C1680 H1666 0.960 . S
C1680 H1667 0.960 . S
C1680 C1679 1.524 . S
C1681 C1678 1.403 . S
C1681 C1682 1.392 . S
C1681 C1685 1.495 . S
C1682 C1681 1.392 . S
C1682 C1683 1.385 . S
C1682 C1684 1.478 . S
C1683 H1677 0.930 . S
C1683 C1679 1.400 . S
C1683 C1682 1.385 . S
C1684 C1682 1.478 . S
C1684 C1686 1.381 . S
C1684 C1690 1.383 . S
C1685 C1681 1.495 . S
C1685 H1691 0.959 . S
C1685 H1692 0.961 . S
C1685 H1693 0.960 . S
C1686 C1684 1.381 . S
C1686 C1687 1.394 . S
C1686 H1694 0.930 . S
C1687 C1686 1.394 . S
C1687 C1688 1.383 . S
C1687 H1695 0.929 . S
C1688 C1687 1.383 . S
C1688 C1689 1.377 . S
C1689 H1673 0.930 . S
C1689 C1688 1.377 . S
C1689 C1690 1.379 . S
C1690 H1674 0.931 . S
C1690 C1684 1.383 . S
C1690 C1689 1.379 . S
H1691 C1685 0.959 . S
H1692 C1685 0.961 . S
H1693 C1685 0.960 . S
H1694 C1686 0.930 . S
H1695 C1687 0.929 . S
H1696 C1704 0.929 . S
H1697 C1706 0.930 . S
H1698 C1708 0.930 . S
H1699 C1711 0.929 . S
H1700 C1714 0.930 . S
H1701 C1716 0.960 . S
H1702 C1716 0.960 . S
H1703 C1716 0.960 . S
C1704 H1696 0.929 . S
C1704 C1705 1.377 . S
C1704 C1706 1.384 . S
C1705 C1704 1.377 . S
C1705 C1711 1.390 . S
C1706 H1697 0.930 . S
C1706 C1704 1.384 . S
C1706 C1707 1.372 . S
C1707 C1706 1.372 . S
C1707 C1708 1.400 . S
C1707 C1712 1.490 . S
C1708 H1698 0.930 . S
C1708 C1707 1.400 . S
C1708 C1711 1.386 . S
H1709 C1725 0.930 . S
H1710 C1726 0.931 . S
C1711 H1699 0.929 . S
C1711 C1705 1.390 . S
C1711 C1708 1.386 . S
C1712 C1707 1.490 . S
C1712 C1714 1.395 . S
C1712 C1715 1.403 . S
H1713 C1719 0.930 . S
C1714 H1700 0.930 . S
C1714 C1712 1.395 . S
C1714 C1717 1.403 . S
C1715 C1712 1.403 . S
C1715 C1716 1.524 . S
C1715 C1719 1.400 . S
C1716 H1701 0.960 . S
C1716 H1702 0.960 . S
C1716 H1703 0.960 . S
C1716 C1715 1.524 . S
C1717 C1714 1.403 . S
C1717 C1718 1.392 . S
C1717 C1721 1.495 . S
C1718 C1717 1.392 . S
C1718 C1719 1.385 . S
C1718 C1720 1.478 . S
C1719 H1713 0.930 . S
C1719 C1715 1.400 . S
C1719 C1718 1.385 . S
C1720 C1718 1.478 . S
C1720 C1722 1.381 . S
C1720 C1726 1.383 . S
C1721 C1717 1.495 . S
C1721 H1727 0.959 . S
C1721 H1728 0.961 . S
C1721 H1729 0.960 . S
C1722 C1720 1.381 . S
C1722 C1723 1.394 . S
C1722 H1730 0.930 . S
C1723 C1722 1.394 . S
C1723 C1724 1.383 . S
C1723 H1731 0.929 . S
C1724 C1723 1.383 . S
C1724 C1725 1.377 . S
C1725 H1709 0.930 . S
C1725 C1724 1.377 . S
C1725 C1726 1.379 . S
C1726 H1710 0.931 . S
C1726 C1720 1.383 . S
C1726 C1725 1.379 . S
H1727 C1721 0.959 . S
H1728 C1721 0.961 . S
H1729 C1721 0.960 . S
H1730 C1722 0.930 . S
H1731 C1723 0.929 . S
H1732 C1740 0.929 . S
H1733 C1742 0.930 . S
H1734 C1744 0.930 . S
H1735 C1747 0.929 . S
H1736 C1750 0.930 . S
H1737 C1752 0.960 . S
H1738 C1752 0.960 . S
H1739 C1752 0.960 . S
C1740 H1732 0.929 . S
C1740 C1741 1.377 . S
C1740 C1742 1.384 . S
C1741 C1740 1.377 . S
C1741 C1747 1.390 . S
C1742 H1733 0.930 . S
C1742 C1740 1.384 . S
C1742 C1743 1.372 . S
C1743 C1742 1.372 . S
C1743 C1744 1.400 . S
C1743 C1748 1.490 . S
C1744 H1734 0.930 . S
C1744 C1743 1.400 . S
C1744 C1747 1.386 . S
H1745 C1761 0.930 . S
H1746 C1762 0.931 . S
C1747 H1735 0.929 . S
C1747 C1741 1.390 . S
C1747 C1744 1.386 . S
C1748 C1743 1.490 . S
C1748 C1750 1.395 . S
C1748 C1751 1.403 . S
H1749 C1755 0.930 . S
C1750 H1736 0.930 . S
C1750 C1748 1.395 . S
C1750 C1753 1.403 . S
C1751 C1748 1.403 . S
C1751 C1752 1.524 . S
C1751 C1755 1.400 . S
C1752 H1737 0.960 . S
C1752 H1738 0.960 . S
C1752 H1739 0.960 . S
C1752 C1751 1.524 . S
C1753 C1750 1.403 . S
C1753 C1754 1.392 . S
C1753 C1757 1.495 . S
C1754 C1753 1.392 . S
C1754 C1755 1.385 . S
C1754 C1756 1.478 . S
C1755 H1749 0.930 . S
C1755 C1751 1.400 . S
C1755 C1754 1.385 . S
C1756 C1754 1.478 . S
C1756 C1758 1.381 . S
C1756 C1762 1.383 . S
C1757 C1753 1.495 . S
C1757 H1763 0.959 . S
C1757 H1764 0.961 . S
C1757 H1765 0.960 . S
C1758 C1756 1.381 . S
C1758 C1759 1.394 . S
C1758 H1766 0.930 . S
C1759 C1758 1.394 . S
C1759 C1760 1.383 . S
C1759 H1767 0.929 . S
C1760 C1759 1.383 . S
C1760 C1761 1.377 . S
C1761 H1745 0.930 . S
C1761 C1760 1.377 . S
C1761 C1762 1.379 . S
C1762 H1746 0.931 . S
C1762 C1756 1.383 . S
C1762 C1761 1.379 . S
H1763 C1757 0.959 . S
H1764 C1757 0.961 . S
H1765 C1757 0.960 . S
H1766 C1758 0.930 . S
H1767 C1759 0.929 . S
H1768 C1776 0.929 . S
H1769 C1778 0.930 . S
H1770 C1780 0.930 . S
H1771 C1783 0.929 . S
H1772 C1786 0.930 . S
H1773 C1788 0.960 . S
H1774 C1788 0.960 . S
H1775 C1788 0.960 . S
C1776 H1768 0.929 . S
C1776 C1777 1.377 . S
C1776 C1778 1.384 . S
C1777 C1776 1.377 . S
C1777 C1783 1.390 . S
C1778 H1769 0.930 . S
C1778 C1776 1.384 . S
C1778 C1779 1.372 . S
C1779 C1778 1.372 . S
C1779 C1780 1.400 . S
C1779 C1784 1.490 . S
C1780 H1770 0.930 . S
C1780 C1779 1.400 . S
C1780 C1783 1.386 . S
H1781 C1797 0.930 . S
H1782 C1798 0.931 . S
C1783 H1771 0.929 . S
C1783 C1777 1.390 . S
C1783 C1780 1.386 . S
C1784 C1779 1.490 . S
C1784 C1786 1.395 . S
C1784 C1787 1.403 . S
H1785 C1791 0.930 . S
C1786 H1772 0.930 . S
C1786 C1784 1.395 . S
C1786 C1789 1.403 . S
C1787 C1784 1.403 . S
C1787 C1788 1.524 . S
C1787 C1791 1.400 . S
C1788 H1773 0.960 . S
C1788 H1774 0.960 . S
C1788 H1775 0.960 . S
C1788 C1787 1.524 . S
C1789 C1786 1.403 . S
C1789 C1790 1.392 . S
C1789 C1793 1.495 . S
C1790 C1789 1.392 . S
C1790 C1791 1.385 . S
C1790 C1792 1.478 . S
C1791 H1785 0.930 . S
C1791 C1787 1.400 . S
C1791 C1790 1.385 . S
C1792 C1790 1.478 . S
C1792 C1794 1.381 . S
C1792 C1798 1.383 . S
C1793 C1789 1.495 . S
C1793 H1799 0.959 . S
C1793 H1800 0.961 . S
C1793 H1801 0.960 . S
C1794 C1792 1.381 . S
C1794 C1795 1.394 . S
C1794 H1802 0.930 . S
C1795 C1794 1.394 . S
C1795 C1796 1.383 . S
C1795 H1803 0.929 . S
C1796 C1795 1.383 . S
C1796 C1797 1.377 . S
C1797 H1781 0.930 . S
C1797 C1796 1.377 . S
C1797 C1798 1.379 . S
C1798 H1782 0.931 . S
C1798 C1792 1.383 . S
C1798 C1797 1.379 . S
H1799 C1793 0.959 . S
H1800 C1793 0.961 . S
H1801 C1793 0.960 . S
H1802 C1794 0.930 . S
H1803 C1795 0.929 . S
H1804 C1812 0.929 . S
H1805 C1814 0.930 . S
H1806 C1816 0.930 . S
H1807 C1819 0.929 . S
H1808 C1822 0.930 . S
H1809 C1824 0.960 . S
H1810 C1824 0.960 . S
H1811 C1824 0.960 . S
C1812 H1804 0.929 . S
C1812 C1813 1.377 . S
C1812 C1814 1.384 . S
C1813 C1812 1.377 . S
C1813 C1819 1.390 . S
C1814 H1805 0.930 . S
C1814 C1812 1.384 . S
C1814 C1815 1.372 . S
C1815 C1814 1.372 . S
C1815 C1816 1.400 . S
C1815 C1820 1.490 . S
C1816 H1806 0.930 . S
C1816 C1815 1.400 . S
C1816 C1819 1.386 . S
H1817 C1833 0.930 . S
H1818 C1834 0.931 . S
C1819 H1807 0.929 . S
C1819 C1813 1.390 . S
C1819 C1816 1.386 . S
C1820 C1815 1.490 . S
C1820 C1822 1.395 . S
C1820 C1823 1.403 . S
H1821 C1827 0.930 . S
C1822 H1808 0.930 . S
C1822 C1820 1.395 . S
C1822 C1825 1.403 . S
C1823 C1820 1.403 . S
C1823 C1824 1.524 . S
C1823 C1827 1.400 . S
C1824 H1809 0.960 . S
C1824 H1810 0.960 . S
C1824 H1811 0.960 . S
C1824 C1823 1.524 . S
C1825 C1822 1.403 . S
C1825 C1826 1.392 . S
C1825 C1829 1.495 . S
C1826 C1825 1.392 . S
C1826 C1827 1.385 . S
C1826 C1828 1.478 . S
C1827 H1821 0.930 . S
C1827 C1823 1.400 . S
C1827 C1826 1.385 . S
C1828 C1826 1.478 . S
C1828 C1830 1.381 . S
C1828 C1834 1.383 . S
C1829 C1825 1.495 . S
C1829 H1835 0.959 . S
C1829 H1836 0.961 . S
C1829 H1837 0.960 . S
C1830 C1828 1.381 . S
C1830 C1831 1.394 . S
C1830 H1838 0.930 . S
C1831 C1830 1.394 . S
C1831 C1832 1.383 . S
C1831 H1839 0.929 . S
C1832 C1831 1.383 . S
C1832 C1833 1.377 . S
C1833 H1817 0.930 . S
C1833 C1832 1.377 . S
C1833 C1834 1.379 . S
C1834 H1818 0.931 . S
C1834 C1828 1.383 . S
C1834 C1833 1.379 . S
H1835 C1829 0.959 . S
H1836 C1829 0.961 . S
H1837 C1829 0.960 . S
H1838 C1830 0.930 . S
H1839 C1831 0.929 . S
H1840 C1848 0.929 . S
H1841 C1850 0.930 . S
H1842 C1852 0.930 . S
H1843 C1855 0.929 . S
H1844 C1858 0.930 . S
H1845 C1860 0.960 . S
H1846 C1860 0.960 . S
H1847 C1860 0.960 . S
C1848 H1840 0.929 . S
C1848 C1849 1.377 . S
C1848 C1850 1.384 . S
C1849 C1848 1.377 . S
C1849 C1855 1.390 . S
C1850 H1841 0.930 . S
C1850 C1848 1.384 . S
C1850 C1851 1.372 . S
C1851 C1850 1.372 . S
C1851 C1852 1.400 . S
C1851 C1856 1.490 . S
C1852 H1842 0.930 . S
C1852 C1851 1.400 . S
C1852 C1855 1.386 . S
H1853 C1869 0.930 . S
H1854 C1870 0.931 . S
C1855 H1843 0.929 . S
C1855 C1849 1.390 . S
C1855 C1852 1.386 . S
C1856 C1851 1.490 . S
C1856 C1858 1.395 . S
C1856 C1859 1.403 . S
H1857 C1863 0.930 . S
C1858 H1844 0.930 . S
C1858 C1856 1.395 . S
C1858 C1861 1.403 . S
C1859 C1856 1.403 . S
C1859 C1860 1.524 . S
C1859 C1863 1.400 . S
C1860 H1845 0.960 . S
C1860 H1846 0.960 . S
C1860 H1847 0.960 . S
C1860 C1859 1.524 . S
C1861 C1858 1.403 . S
C1861 C1862 1.392 . S
C1861 C1865 1.495 . S
C1862 C1861 1.392 . S
C1862 C1863 1.385 . S
C1862 C1864 1.478 . S
C1863 H1857 0.930 . S
C1863 C1859 1.400 . S
C1863 C1862 1.385 . S
C1864 C1862 1.478 . S
C1864 C1866 1.381 . S
C1864 C1870 1.383 . S
C1865 C1861 1.495 . S
C1865 H1871 0.959 . S
C1865 H1872 0.961 . S
C1865 H1873 0.960 . S
C1866 C1864 1.381 . S
C1866 C1867 1.394 . S
C1866 H1874 0.930 . S
C1867 C1866 1.394 . S
C1867 C1868 1.383 . S
C1867 H1875 0.929 . S
C1868 C1867 1.383 . S
C1868 C1869 1.377 . S
C1869 H1853 0.930 . S
C1869 C1868 1.377 . S
C1869 C1870 1.379 . S
C1870 H1854 0.931 . S
C1870 C1864 1.383 . S
C1870 C1869 1.379 . S
H1871 C1865 0.959 . S
H1872 C1865 0.961 . S
H1873 C1865 0.960 . S
H1874 C1866 0.930 . S
H1875 C1867 0.929 . S
H1876 C1884 0.929 . S
H1877 C1886 0.930 . S
H1878 C1888 0.930 . S
H1879 C1891 0.929 . S
H1880 C1894 0.930 . S
H1881 C1896 0.960 . S
H1882 C1896 0.960 . S
H1883 C1896 0.960 . S
C1884 H1876 0.929 . S
C1884 C1885 1.377 . S
C1884 C1886 1.384 . S
C1885 C1884 1.377 . S
C1885 C1891 1.390 . S
C1886 H1877 0.930 . S
C1886 C1884 1.384 . S
C1886 C1887 1.372 . S
C1887 C1886 1.372 . S
C1887 C1888 1.400 . S
C1887 C1892 1.490 . S
C1888 H1878 0.930 . S
C1888 C1887 1.400 . S
C1888 C1891 1.386 . S
H1889 C1905 0.930 . S
H1890 C1906 0.931 . S
C1891 H1879 0.929 . S
C1891 C1885 1.390 . S
C1891 C1888 1.386 . S
C1892 C1887 1.490 . S
C1892 C1894 1.395 . S
C1892 C1895 1.403 . S
H1893 C1899 0.930 . S
C1894 H1880 0.930 . S
C1894 C1892 1.395 . S
C1894 C1897 1.403 . S
C1895 C1892 1.403 . S
C1895 C1896 1.524 . S
C1895 C1899 1.400 . S
C1896 H1881 0.960 . S
C1896 H1882 0.960 . S
C1896 H1883 0.960 . S
C1896 C1895 1.524 . S
C1897 C1894 1.403 . S
C1897 C1898 1.392 . S
C1897 C1901 1.495 . S
C1898 C1897 1.392 . S
C1898 C1899 1.385 . S
C1898 C1900 1.478 . S
C1899 H1893 0.930 . S
C1899 C1895 1.400 . S
C1899 C1898 1.385 . S
C1900 C1898 1.478 . S
C1900 C1902 1.381 . S
C1900 C1906 1.383 . S
C1901 C1897 1.495 . S
C1901 H1907 0.959 . S
C1901 H1908 0.961 . S
C1901 H1909 0.960 . S
C1902 C1900 1.381 . S
C1902 C1903 1.394 . S
C1902 H1910 0.930 . S
C1903 C1902 1.394 . S
C1903 C1904 1.383 . S
C1903 H1911 0.929 . S
C1904 C1903 1.383 . S
C1904 C1905 1.377 . S
C1905 H1889 0.930 . S
C1905 C1904 1.377 . S
C1905 C1906 1.379 . S
C1906 H1890 0.931 . S
C1906 C1900 1.383 . S
C1906 C1905 1.379 . S
H1907 C1901 0.959 . S
H1908 C1901 0.961 . S
H1909 C1901 0.960 . S
H1910 C1902 0.930 . S
H1911 C1903 0.929 . S
H1912 C1920 0.929 . S
H1913 C1922 0.930 . S
H1914 C1924 0.930 . S
H1915 C1927 0.929 . S
H1916 C1930 0.930 . S
H1917 C1932 0.960 . S
H1918 C1932 0.960 . S
H1919 C1932 0.960 . S
C1920 H1912 0.929 . S
C1920 C1921 1.377 . S
C1920 C1922 1.384 . S
C1921 C1920 1.377 . S
C1921 C1927 1.390 . S
C1922 H1913 0.930 . S
C1922 C1920 1.384 . S
C1922 C1923 1.372 . S
C1923 C1922 1.372 . S
C1923 C1924 1.400 . S
C1923 C1928 1.490 . S
C1924 H1914 0.930 . S
C1924 C1923 1.400 . S
C1924 C1927 1.386 . S
H1925 C1941 0.930 . S
H1926 C1942 0.931 . S
C1927 H1915 0.929 . S
C1927 C1921 1.390 . S
C1927 C1924 1.386 . S
C1928 C1923 1.490 . S
C1928 C1930 1.395 . S
C1928 C1931 1.403 . S
H1929 C1935 0.930 . S
C1930 H1916 0.930 . S
C1930 C1928 1.395 . S
C1930 C1933 1.403 . S
C1931 C1928 1.403 . S
C1931 C1932 1.524 . S
C1931 C1935 1.400 . S
C1932 H1917 0.960 . S
C1932 H1918 0.960 . S
C1932 H1919 0.960 . S
C1932 C1931 1.524 . S
C1933 C1930 1.403 . S
C1933 C1934 1.392 . S
C1933 C1937 1.495 . S
C1934 C1933 1.392 . S
C1934 C1935 1.385 . S
C1934 C1936 1.478 . S
C1935 H1929 0.930 . S
C1935 C1931 1.400 . S
C1935 C1934 1.385 . S
C1936 C1934 1.478 . S
C1936 C1938 1.381 . S
C1936 C1942 1.383 . S
C1937 C1933 1.495 . S
C1937 H1943 0.959 . S
C1937 H1944 0.961 . S
C1937 H1945 0.960 . S
C1938 C1936 1.381 . S
C1938 C1939 1.394 . S
C1938 H1946 0.930 . S
C1939 C1938 1.394 . S
C1939 C1940 1.383 . S
C1939 H1947 0.929 . S
C1940 C1939 1.383 . S
C1940 C1941 1.377 . S
C1941 H1925 0.930 . S
C1941 C1940 1.377 . S
C1941 C1942 1.379 . S
C1942 H1926 0.931 . S
C1942 C1936 1.383 . S
C1942 C1941 1.379 . S
H1943 C1937 0.959 . S
H1944 C1937 0.961 . S
H1945 C1937 0.960 . S
H1946 C1938 0.930 . S
H1947 C1939 0.929 . S
H1948 C1956 0.929 . S
H1949 C1958 0.930 . S
H1950 C1960 0.930 . S
H1951 C1963 0.929 . S
H1952 C1966 0.930 . S
H1953 C1968 0.960 . S
H1954 C1968 0.960 . S
H1955 C1968 0.960 . S
C1956 H1948 0.929 . S
C1956 C1957 1.377 . S
C1956 C1958 1.384 . S
C1957 C1956 1.377 . S
C1957 C1963 1.390 . S
C1958 H1949 0.930 . S
C1958 C1956 1.384 . S
C1958 C1959 1.372 . S
C1959 C1958 1.372 . S
C1959 C1960 1.400 . S
C1959 C1964 1.490 . S
C1960 H1950 0.930 . S
C1960 C1959 1.400 . S
C1960 C1963 1.386 . S
H1961 C1977 0.930 . S
H1962 C1978 0.931 . S
C1963 H1951 0.929 . S
C1963 C1957 1.390 . S
C1963 C1960 1.386 . S
C1964 C1959 1.490 . S
C1964 C1966 1.395 . S
C1964 C1967 1.403 . S
H1965 C1971 0.930 . S
C1966 H1952 0.930 . S
C1966 C1964 1.395 . S
C1966 C1969 1.403 . S
C1967 C1964 1.403 . S
C1967 C1968 1.524 . S
C1967 C1971 1.400 . S
C1968 H1953 0.960 . S
C1968 H1954 0.960 . S
C1968 H1955 0.960 . S
C1968 C1967 1.524 . S
C1969 C1966 1.403 . S
C1969 C1970 1.392 . S
C1969 C1973 1.495 . S
C1970 C1969 1.392 . S
C1970 C1971 1.385 . S
C1970 C1972 1.478 . S
C1971 H1965 0.930 . S
C1971 C1967 1.400 . S
C1971 C1970 1.385 . S
C1972 C1970 1.478 . S
C1972 C1974 1.381 . S
C1972 C1978 1.383 . S
C1973 C1969 1.495 . S
C1973 H1979 0.959 . S
C1973 H1980 0.961 . S
C1973 H1981 0.960 . S
C1974 C1972 1.381 . S
C1974 C1975 1.394 . S
C1974 H1982 0.930 . S
C1975 C1974 1.394 . S
C1975 C1976 1.383 . S
C1975 H1983 0.929 . S
C1976 C1975 1.383 . S
C1976 C1977 1.377 . S
C1977 H1961 0.930 . S
C1977 C1976 1.377 . S
C1977 C1978 1.379 . S
C1978 H1962 0.931 . S
C1978 C1972 1.383 . S
C1978 C1977 1.379 . S
H1979 C1973 0.959 . S
H1980 C1973 0.961 . S
H1981 C1973 0.960 . S
H1982 C1974 0.930 . S
H1983 C1975 0.929 . S
C553 C5 1.059 . S
C572 C277 1.077 . S
C589 C311 1.067 . S
C608 C39 1.102 . S
C625 C73 1.068 . S
C644 C345 1.065 . S
C661 C107 1.069 . S
C680 C379 1.078 . S
C697 C141 1.067 . S
C716 C413 1.102 . S
C733 C447 1.065 . S
C752 C175 1.100 . S
C769 C481 1.066 . S
C788 C209 1.102 . S
C805 C243 1.064 . S
C824 C515 1.051 . S
C841 C9 1.136 . S
C860 C145 1.172 . S
C877 C43 1.135 . S
C896 C179 1.114 . S
C913 C77 1.141 . S
C932 C213 1.159 . S
C949 C111 1.144 . S
C968 C247 1.143 . S
C985 C417 1.134 . S
C1004 C281 1.123 . S
C1021 C451 1.131 . S
C1040 C315 1.155 . S
C1057 C485 1.131 . S
C1076 C349 1.161 . S
C1093 C383 1.131 . S
C1112 C519 1.164 . S
C1129 C2 1.991 . S
C1148 C240 2.013 . S
C1165 C138 1.997 . S
C1184 C36 2.004 . S
C1201 C172 1.997 . S
C1220 C70 2.002 . S
C1237 C104 1.990 . S
C1256 C206 2.011 . S
C1273 C512 1.993 . S
C1292 C274 1.973 . S
C1309 C410 1.995 . S
C1328 C308 2.008 . S
C1345 C342 1.999 . S
C1364 C444 1.976 . S
C1381 C376 1.995 . S
C1400 C478 1.968 . S
C1417 C543 1.221 . S
C1436 C20 1.154 . S
C1453 C54 1.189 . S
C1472 C441 1.199 . S
C1489 C88 1.186 . S
C1508 C475 1.234 . S
C1525 C509 1.222 . S
C1544 C122 1.159 . S
C1561 C156 1.195 . S
C1580 C339 1.218 . S
C1597 C190 1.195 . S
C1616 C373 1.216 . S
C1633 C407 1.217 . S
C1652 C224 1.212 . S
C1669 C258 1.194 . S
C1688 C305 1.211 . S
C1705 C292 1.181 . S
C1724 C271 1.234 . S
C1741 C169 1.223 . S
C1760 C326 1.161 . S
C1777 C360 1.190 . S
C1796 C203 1.203 . S
C1813 C237 1.218 . S
C1832 C394 1.212 . S
C1849 C428 1.192 . S
C1868 C67 1.215 . S
C1885 C101 1.216 . S
C1904 C462 1.196 . S
C1921 C135 1.217 . S
C1940 C496 1.193 . S
C1957 C33 1.218 . S
C1976 C530 1.212 . S
