# Generated by pormake.
# Topology snk, (6)-cn, num edge types: 1
# Building blocks:
#     Node 0, Type 0, BuildingBlock: BETFAJ_clean_sbu_0, # of connection points: 6
#     Node 1, Type 0, BuildingBlock: BETFAJ_clean_sbu_0, # of connection points: 6
#     Node 2, Type 0, BuildingBlock: BETFAJ_clean_sbu_0, # of connection points: 6
#     Node 3, Type 0, BuildingBlock: BETFAJ_clean_sbu_0, # of connection points: 6
#     Node 4, Type 0, BuildingBlock: BETFAJ_clean_sbu_0, # of connection points: 6
#     Node 5, Type 0, BuildingBlock: BETFAJ_clean_sbu_0, # of connection points: 6
#     Node 6, Type 0, BuildingBlock: BETFAJ_clean_sbu_0, # of connection points: 6
#     Node 7, Type 0, BuildingBlock: BETFAJ_clean_sbu_0, # of connection points: 6
#     Edge 8, Type (0, 0), BuildingBlock: XIVTED_clean_linker_0, # of connection points: 2
#     Edge 9, Type (0, 0), BuildingBlock: XIVTED_clean_linker_0, # of connection points: 2
#     Edge 10, Type (0, 0), BuildingBlock: XIVTED_clean_linker_0, # of connection points: 2
#     Edge 11, Type (0, 0), BuildingBlock: XIVTED_clean_linker_0, # of connection points: 2
#     Edge 12, Type (0, 0), BuildingBlock: XIVTED_clean_linker_0, # of connection points: 2
#     Edge 13, Type (0, 0), BuildingBlock: XIVTED_clean_linker_0, # of connection points: 2
#     Edge 14, Type (0, 0), BuildingBlock: XIVTED_clean_linker_0, # of connection points: 2
#     Edge 15, Type (0, 0), BuildingBlock: XIVTED_clean_linker_0, # of connection points: 2
#     Edge 16, Type (0, 0), BuildingBlock: XIVTED_clean_linker_0, # of connection points: 2
#     Edge 17, Type (0, 0), BuildingBlock: XIVTED_clean_linker_0, # of connection points: 2
#     Edge 18, Type (0, 0), BuildingBlock: XIVTED_clean_linker_0, # of connection points: 2
#     Edge 19, Type (0, 0), BuildingBlock: XIVTED_clean_linker_0, # of connection points: 2
#     Edge 20, Type (0, 0), BuildingBlock: XIVTED_clean_linker_0, # of connection points: 2
#     Edge 21, Type (0, 0), BuildingBlock: XIVTED_clean_linker_0, # of connection points: 2
#     Edge 22, Type (0, 0), BuildingBlock: XIVTED_clean_linker_0, # of connection points: 2
#     Edge 23, Type (0, 0), BuildingBlock: XIVTED_clean_linker_0, # of connection points: 2
#     Edge 24, Type (0, 0), BuildingBlock: XIVTED_clean_linker_0, # of connection points: 2
#     Edge 25, Type (0, 0), BuildingBlock: XIVTED_clean_linker_0, # of connection points: 2
#     Edge 26, Type (0, 0), BuildingBlock: XIVTED_clean_linker_0, # of connection points: 2
#     Edge 27, Type (0, 0), BuildingBlock: XIVTED_clean_linker_0, # of connection points: 2
#     Edge 28, Type (0, 0), BuildingBlock: XIVTED_clean_linker_0, # of connection points: 2
#     Edge 29, Type (0, 0), BuildingBlock: XIVTED_clean_linker_0, # of connection points: 2
#     Edge 30, Type (0, 0), BuildingBlock: XIVTED_clean_linker_0, # of connection points: 2
#     Edge 31, Type (0, 0), BuildingBlock: XIVTED_clean_linker_0, # of connection points: 2
# Relax obj value: 0.092
# Max RMSD: 0.154
# Mean RMSD: 0.126
data_MOF--net-snk--node1-BETFAJ_clean_sbu_0--edge1-XIVTED_clean_linker_0
_symmetry_space_group_name_H-M    P1
_symmetry_Int_Tables_number       1
_symmetry_cell_setting            triclinic
loop_
_symmetry_equiv_pos_as_xyz
'x, y, z'
_cell_length_a     38.14569
_cell_length_b     38.171875
_cell_length_c     25.558138
_cell_angle_alpha  83.101396
_cell_angle_beta   96.800824
_cell_angle_gamma 88.942828
loop_
_atom_site_label
_atom_site_type_symbol
_atom_site_fract_x
_atom_site_fract_y
_atom_site_fract_z
_atom_type_partial_charge
Sm0 Sm 0.98349 0.9942 0.4646 0.0
Sm1 Sm 0.02333 0.012 0.57144 0.0
C2 C 0.95049 0.99503 0.36693 0.0
C3 C 0.95946 0.9981 0.31209 0.0
C4 C 0.93235 0.00139 0.26957 0.0
C5 C 0.9403 0.00321 0.21726 0.0
C6 C 0.97561 0.00172 0.20641 0.0
C7 C 1.00275 0.99875 0.24935 0.0
C8 C 0.99474 0.99702 0.3017 0.0
C9 C 0.03756 0.94791 0.51023 0.0
C10 C 0.05188 0.04685 0.4649 0.0
C11 C 0.05642 0.01104 0.66906 0.0
C12 C 0.04749 0.0077 0.72392 0.0
C13 C 0.07461 0.0043 0.76643 0.0
C14 C 0.06667 0.00231 0.81877 0.0
C15 C 0.03136 0.00372 0.82965 0.0
C16 C 0.00421 0.00675 0.78672 0.0
C17 C 0.0122 0.00866 0.73434 0.0
C18 C 0.96948 0.05848 0.52553 0.0
C19 C 0.95478 0.95954 0.57109 0.0
O20 O 0.95418 0.02326 0.39125 0.0
O21 O 0.96162 0.96607 0.39754 0.0
O22 O 0.03797 0.98094 0.50786 0.0
O23 O 0.00869 0.93802 0.48482 0.0
O24 O 0.02141 0.03828 0.43992 0.0
O25 O 0.06216 0.03445 0.51505 0.0
O26 O 0.05293 0.98289 0.64452 0.0
O27 O 0.04508 0.04002 0.63867 0.0
O28 O 0.96893 0.02544 0.52808 0.0
O29 O 0.99832 0.06824 0.55119 0.0
O30 O 0.98528 0.96801 0.5961 0.0
O31 O 0.94456 0.97196 0.52093 0.0
H32 H 0.90495 0.00217 0.27686 0.0
H33 H 0.91871 0.00504 0.18537 0.0
H34 H 0.03022 0.99801 0.24249 0.0
H35 H 0.01606 0.99463 0.33409 0.0
H36 H 0.102 0.00359 0.75912 0.0
H37 H 0.08826 1.00042 0.85066 0.0
H38 H 0.97674 0.00743 0.79359 0.0
H39 H 0.99088 0.01112 0.70196 0.0
Sm40 Sm 0.24446 0.73209 0.8175 0.0
Sm41 Sm 0.26155 0.77248 0.71051 0.0
C42 C 0.24603 0.69896 0.91531 0.0
C43 C 0.24909 0.70804 0.9701 0.0
C44 C 0.25427 0.68111 1.01289 0.0
C45 C 0.256 0.68912 0.06516 0.0
C46 C 0.25252 0.72431 0.07571 0.0
C47 C 0.2477 0.7513 0.0325 0.0
C48 C 0.24607 0.74324 0.9802 0.0
C49 C 0.19774 0.78606 0.77304 0.0
C50 C 0.29704 0.8005 0.81676 0.0
C51 C 0.25996 0.80558 0.61267 0.0
C52 C 0.2569 0.79648 0.55789 0.0
C53 C 0.25165 0.82339 0.51509 0.0
C54 C 0.24988 0.81536 0.46283 0.0
C55 C 0.25339 0.78017 0.45229 0.0
C56 C 0.25827 0.75319 0.49552 0.0
C57 C 0.25994 0.76128 0.54781 0.0
C58 C 0.30818 0.71839 0.75491 0.0
C59 C 0.209 0.70406 0.71128 0.0
O60 O 0.27412 0.703 0.89062 0.0
O61 O 0.21685 0.70963 0.88491 0.0
O62 O 0.23076 0.78669 0.77475 0.0
O63 O 0.18819 0.75711 0.79869 0.0
O64 O 0.28871 0.76986 0.84155 0.0
O65 O 0.28424 0.8111 0.76689 0.0
O66 O 0.23187 0.80151 0.63736 0.0
O67 O 0.28914 0.79493 0.64307 0.0
O68 O 0.27515 0.71785 0.75313 0.0
O69 O 0.3178 0.74734 0.72932 0.0
O70 O 0.21726 0.73472 0.68648 0.0
O71 O 0.22187 0.69346 0.76113 0.0
H72 H 0.25658 0.65378 1.00586 0.0
H73 H 0.25931 0.66762 0.09726 0.0
H74 H 0.24541 0.77871 0.03909 0.0
H75 H 0.24222 0.76444 0.94763 0.0
H76 H 0.24931 0.85073 0.5221 0.0
H77 H 0.24653 0.83685 0.43071 0.0
H78 H 0.26058 0.72579 0.48895 0.0
H79 H 0.26383 0.74009 0.5804 0.0
Sm80 Sm 0.51874 0.98527 0.06851 0.0
Sm81 Sm 0.48821 0.02123 0.95772 0.0
C82 C 0.54534 0.9695 0.16959 0.0
C83 C 0.53752 0.97551 0.22297 0.0
C84 C 0.52075 0.00693 0.2319 0.0
C85 C 0.51416 0.01218 0.2832 0.0
C86 C 0.52423 0.9861 0.32653 0.0
C87 C 0.54072 0.95456 0.31709 0.0
C88 C 0.54728 0.94937 0.26585 0.0
C89 C 0.46969 0.94731 1.01397 0.0
C90 C 0.45134 0.0432 0.05627 0.0
C91 C 0.46178 0.03726 0.85662 0.0
C92 C 0.46961 0.03122 0.80325 0.0
C93 C 0.4864 0.9998 0.79436 0.0
C94 C 0.49302 0.99454 0.74307 0.0
C95 C 0.48297 0.02062 0.69973 0.0
C96 C 0.46648 0.05217 0.70914 0.0
C97 C 0.45988 0.05737 0.76036 0.0
C98 C 0.53728 0.05905 1.01262 0.0
C99 C 0.55545 0.96312 0.96992 0.0
O100 O 0.55452 0.99684 0.13884 0.0
O101 O 0.52421 0.94894 0.14419 0.0
O102 O 0.46754 0.98018 0.01567 0.0
O103 O 0.49743 0.93304 0.0438 0.0
O104 O 0.47877 0.0271 0.08688 0.0
O105 O 0.44613 0.04129 1.00468 0.0
O106 O 0.45237 0.00997 0.88726 0.0
O107 O 0.48305 0.05763 0.88214 0.0
O108 O 0.5394 0.02625 1.01045 0.0
O109 O 0.50949 0.0734 0.98299 0.0
O110 O 0.52802 0.97924 0.93933 0.0
O111 O 0.56073 0.96509 0.02149 0.0
H112 H 0.51299 0.0275 0.19932 0.0
H113 H 0.50174 0.03693 0.28903 0.0
H114 H 0.54828 0.93366 0.34924 0.0
H115 H 0.56008 0.92487 0.25971 0.0
H116 H 0.49413 0.97923 0.82695 0.0
H117 H 0.50545 0.9698 0.73728 0.0
H118 H 0.45893 0.07306 0.67698 0.0
H119 H 0.44707 0.08187 0.76647 0.0
Sm120 Sm 0.23966 0.2678 0.21628 0.0
Sm121 Sm 0.27565 0.23677 0.32652 0.0
C122 C 0.22525 0.29518 0.11531 0.0
C123 C 0.23087 0.28719 0.06177 0.0
C124 C 0.26163 0.26926 0.05264 0.0
C125 C 0.26645 0.26246 1.00124 0.0
C126 C 0.24056 0.27338 0.958 0.0
C127 C 0.20974 0.29117 0.9676 0.0
C128 C 0.20499 0.29797 0.01891 0.0
C129 C 0.2011 0.21904 0.27049 0.0
C130 C 0.29646 0.19931 0.22811 0.0
C131 C 0.29282 0.21104 0.4278 0.0
C132 C 0.28701 0.21882 0.48133 0.0
C133 C 0.25594 0.23617 0.49048 0.0
C134 C 0.251 0.24294 0.54186 0.0
C135 C 0.27708 0.23253 0.58505 0.0
C136 C 0.30819 0.21526 0.57542 0.0
C137 C 0.31306 0.20852 0.52413 0.0
C138 C 0.31317 0.28561 0.27053 0.0
C139 C 0.21753 0.304 0.31497 0.0
O140 O 0.25306 0.30303 0.14638 0.0
O141 O 0.2036 0.27513 0.14038 0.0
O142 O 0.23401 0.21655 0.26898 0.0
O143 O 0.1871 0.24678 0.24029 0.0
O144 O 0.28062 0.22693 0.19761 0.0
O145 O 0.29476 0.19421 0.27977 0.0
O146 O 0.26558 0.20092 0.39784 0.0
O147 O 0.31249 0.23273 0.40153 0.0
O148 O 0.28067 0.2881 0.27449 0.0
O149 O 0.32754 0.2569 0.29758 0.0
O150 O 0.23347 0.27635 0.34526 0.0
O151 O 0.21973 0.30964 0.26349 0.0
H152 H 0.28193 0.26059 0.08518 0.0
H153 H 0.29029 0.24833 0.99547 0.0
H154 H 0.18948 0.30041 0.93528 0.0
H155 H 0.18112 0.31192 0.02509 0.0
H156 H 0.23549 0.24442 0.45796 0.0
H157 H 0.22692 0.25666 0.54762 0.0
H158 H 0.32861 0.2064 0.6077 0.0
H159 H 0.33718 0.19502 0.51791 0.0
Sm160 Sm 0.74426 0.23214 0.32034 0.0
Sm161 Sm 0.76288 0.27211 0.21381 0.0
C162 C 0.74478 0.1991 0.41798 0.0
C163 C 0.74785 0.20826 0.4727 0.0
C164 C 0.75361 0.18144 0.51557 0.0
C165 C 0.75545 0.18954 0.56779 0.0
C166 C 0.75151 0.22472 0.57822 0.0
C167 C 0.74621 0.25161 0.53489 0.0
C168 C 0.74443 0.24345 0.48265 0.0
C169 C 0.6984 0.28654 0.27456 0.0
C170 C 0.79736 0.30017 0.32062 0.0
C171 C 0.76261 0.30502 0.11613 0.0
C172 C 0.75966 0.29582 0.06143 0.0
C173 C 0.75393 0.32262 0.01853 0.0
C174 C 0.75217 0.31449 0.96633 0.0
C175 C 0.75615 0.27931 0.95596 0.0
C176 C 0.76143 0.25244 0.99932 0.0
C177 C 0.76314 0.26063 0.05154 0.0
C178 C 0.80861 0.2176 0.25975 0.0
C179 C 0.70942 0.20441 0.21344 0.0
O180 O 0.77308 0.20252 0.39367 0.0
O181 O 0.71588 0.21032 0.38725 0.0
O182 O 0.73148 0.28673 0.27711 0.0
O183 O 0.68829 0.25779 0.30011 0.0
O184 O 0.78856 0.26968 0.34535 0.0
O185 O 0.78517 0.31068 0.27047 0.0
O186 O 0.73423 0.30163 0.14025 0.0
O187 O 0.79144 0.29382 0.14702 0.0
O188 O 0.77553 0.21751 0.2569 0.0
O189 O 0.81884 0.24639 0.23445 0.0
O190 O 0.71838 0.23486 0.18882 0.0
O191 O 0.72161 0.19375 0.26355 0.0
H192 H 0.75651 0.15414 0.50865 0.0
H193 H 0.76018 0.16821 0.60003 0.0
H194 H 0.74269 0.27893 0.54125 0.0
H195 H 0.73999 0.26455 0.44999 0.0
H196 H 0.75098 0.34993 0.0254 0.0
H197 H 0.74744 0.3358 0.93407 0.0
H198 H 0.76498 0.22512 0.993 0.0
H199 H 0.76755 0.23954 0.08423 0.0
Sm200 Sm 0.73682 0.76789 0.70968 0.0
Sm201 Sm 0.77036 0.73568 0.82092 0.0
C202 C 0.72379 0.79608 0.60894 0.0
C203 C 0.72901 0.78769 0.55554 0.0
C204 C 0.75866 0.7678 0.54696 0.0
C205 C 0.76331 0.7607 0.49569 0.0
C206 C 0.73836 0.77334 0.45207 0.0
C207 C 0.7086 0.79306 0.4611 0.0
C208 C 0.70401 0.80013 0.51232 0.0
C209 C 0.69755 0.71791 0.76016 0.0
C210 C 0.79368 0.69952 0.72252 0.0
C211 C 0.78373 0.70756 0.92165 0.0
C212 C 0.77845 0.71582 0.97508 0.0
C213 C 0.74874 0.73562 0.98369 0.0
C214 C 0.74406 0.74267 0.03497 0.0
C215 C 0.76903 0.73006 0.07859 0.0
C216 C 0.79883 0.71041 0.06953 0.0
C217 C 0.80346 0.7034 0.01829 0.0
C218 C 0.80973 0.78534 0.76986 0.0
C219 C 0.71333 0.80387 0.80817 0.0
O220 O 0.7521 0.80221 0.64028 0.0
O221 O 0.70102 0.77734 0.63362 0.0
O222 O 0.73061 0.71598 0.76022 0.0
O223 O 0.68379 0.74594 0.73048 0.0
O224 O 0.77838 0.72735 0.69189 0.0
O225 O 0.79077 0.69391 0.77381 0.0
O226 O 0.75549 0.70112 0.89039 0.0
O227 O 0.80625 0.72661 0.89691 0.0
O228 O 0.77672 0.78749 0.7703 0.0
O229 O 0.82341 0.75723 0.79944 0.0
O230 O 0.72871 0.77605 0.83874 0.0
O231 O 0.71621 0.80953 0.75688 0.0
H232 H 0.77827 0.75789 0.57981 0.0
H233 H 0.78629 0.74506 0.49032 0.0
H234 H 0.68913 0.80362 0.42843 0.0
H235 H 0.681 0.81562 0.51814 0.0
H236 H 0.72911 0.74551 0.95084 0.0
H237 H 0.72104 0.75825 0.04036 0.0
H238 H 0.81833 0.69987 0.10219 0.0
H239 H 0.82651 0.68799 1.01244 0.0
Sm240 Sm 0.48506 0.48644 0.95129 0.0
Sm241 Sm 0.52302 0.50647 0.05819 0.0
C242 C 0.45264 0.48573 0.85368 0.0
C243 C 0.46147 0.49045 0.79889 0.0
C244 C 0.43464 0.48978 0.75662 0.0
C245 C 0.44274 0.49245 0.70437 0.0
C246 C 0.47793 0.49578 0.69344 0.0
C247 C 0.50472 0.49697 0.73609 0.0
C248 C 0.49655 0.49436 0.78837 0.0
C249 C 0.53852 0.44083 1.00074 0.0
C250 C 0.55302 0.53948 0.95146 0.0
C251 C 0.55602 0.50689 0.15542 0.0
C252 C 0.5471 0.50418 0.21012 0.0
C253 C 0.57403 0.50496 0.25221 0.0
C254 C 0.56597 0.50338 0.3044 0.0
C255 C 0.53074 0.50102 0.31546 0.0
C256 C 0.50381 0.49996 0.27295 0.0
C257 C 0.51193 0.5015 0.22072 0.0
C258 C 0.46997 0.55235 1.00863 0.0
C259 C 0.45433 0.45379 0.05802 0.0
O260 O 0.45358 0.51381 0.87853 0.0
O261 O 0.46641 0.45749 0.88364 0.0
O262 O 0.53886 0.47393 0.99709 0.0
O263 O 0.51021 0.43048 0.97443 0.0
O264 O 0.5232 0.53002 0.92567 0.0
O265 O 0.56238 0.52828 1.00226 0.0
O266 O 0.55261 0.47831 0.13183 0.0
O267 O 0.54446 0.53555 0.12436 0.0
O268 O 0.46928 0.51923 1.01233 0.0
O269 O 0.49836 0.56254 0.03506 0.0
O270 O 0.48272 0.46532 0.08498 0.0
O271 O 0.44644 0.46225 1.00624 0.0
H272 H 0.40743 0.48664 0.7641 0.0
H273 H 0.42152 0.49101 0.67265 0.0
H274 H 0.53201 0.49998 0.72906 0.0
H275 H 0.51761 0.49502 0.82062 0.0
H276 H 0.60131 0.50713 0.24466 0.0
H277 H 0.58732 0.50473 0.33597 0.0
H278 H 0.47647 0.49769 0.28006 0.0
H279 H 0.4908 0.50077 0.1886 0.0
Sm280 Sm 0.01989 0.48246 0.57531 0.0
Sm281 Sm 0.98785 0.51653 0.46395 0.0
C282 C 0.04782 0.46873 0.67606 0.0
C283 C 0.03968 0.47415 0.7295 0.0
C284 C 0.02032 0.50412 0.73816 0.0
C285 C 0.0134 0.50889 0.78947 0.0
C286 C 0.02576 0.4838 0.83308 0.0
C287 C 0.0449 0.4537 0.82394 0.0
C288 C 0.05176 0.44896 0.77267 0.0
C289 C 0.97051 0.44329 0.52373 0.0
C290 C 0.9516 0.53942 0.56258 0.0
C291 C 0.96002 0.53039 0.36319 0.0
C292 C 0.96822 0.52506 0.30975 0.0
C293 C 0.98763 0.49514 0.30104 0.0
C294 C 0.9946 0.49044 0.24972 0.0
C295 C 0.98225 0.51557 0.20615 0.0
C296 C 0.96307 0.54563 0.21534 0.0
C297 C 0.95615 0.55029 0.26662 0.0
C298 C 0.03726 0.55559 0.51581 0.0
C299 C 0.05629 0.45975 0.47668 0.0
O300 O 0.05471 0.49682 0.64477 0.0
O301 O 0.02837 0.44653 0.65134 0.0
O302 O 0.96828 0.47627 0.52417 0.0
O303 O 0.99852 0.42954 0.55346 0.0
O304 O 0.97939 0.52399 0.59317 0.0
O305 O 0.94603 0.5367 0.51124 0.0
O306 O 0.95311 0.50226 0.39436 0.0
O307 O 0.97943 0.55257 0.38803 0.0
O308 O 0.03944 0.52267 0.515 0.0
O309 O 0.00924 0.56942 0.48617 0.0
O310 O 0.02847 0.47512 0.44607 0.0
O311 O 0.06179 0.46239 0.52804 0.0
H312 H 0.01082 0.52395 0.70536 0.0
H313 H 0.99891 0.53254 0.79508 0.0
H314 H 0.05431 0.43357 0.85637 0.0
H315 H 0.06661 0.42559 0.76673 0.0
H316 H 0.99713 0.47528 0.3338 0.0
H317 H 0.00913 0.46682 0.24407 0.0
H318 H 0.95366 0.56579 0.18295 0.0
H319 H 0.94127 0.57363 0.27259 0.0
H320 H 0.03287 0.09029 0.3728 0.0
H321 H 0.22538 0.15991 0.33799 0.0
H322 H 0.12243 0.05885 0.48996 0.0
H323 H 0.1297 0.21781 0.2681 0.0
H324 H 0.18974 0.11711 0.38634 0.0
H325 H 0.06982 0.13141 0.32534 0.0
C326 C 0.06038 0.09189 0.38845 0.0
C327 C 0.07457 0.07113 0.43552 0.0
C328 C 0.17666 0.13927 0.3605 0.0
C329 C 0.11706 0.11813 0.38109 0.0
C330 C 0.19693 0.16366 0.333 0.0
C331 C 0.18043 0.19256 0.29941 0.0
C332 C 0.13968 0.14352 0.35338 0.0
C333 C 0.14347 0.19596 0.29373 0.0
C334 C 0.0814 0.11551 0.36143 0.0
C335 C 0.11038 0.07449 0.45396 0.0
N336 N 0.12434 0.17165 0.32022 0.0
N337 N 0.1305 0.09747 0.42654 0.0
H338 H 0.10138 0.96365 0.55984 0.0
H339 H 0.12802 0.77766 0.74128 0.0
H340 H 0.02978 0.87833 0.544 0.0
H341 H 0.21255 0.84988 0.72206 0.0
H342 H 0.08908 0.81708 0.67591 0.0
H343 H 0.14061 0.92464 0.62544 0.0
C344 C 0.09411 0.9366 0.56997 0.0
C345 C 0.06247 0.92403 0.54661 0.0
C346 C 0.11613 0.82432 0.68608 0.0
C347 C 0.10675 0.87959 0.62174 0.0
C348 C 0.13824 0.802 0.72359 0.0
C349 C 0.17342 0.81068 0.73688 0.0
C350 C 0.1293 0.85563 0.66224 0.0
C351 C 0.18552 0.84233 0.71272 0.0
C352 C 0.11643 0.9144 0.60735 0.0
C353 C 0.05409 0.88889 0.56103 0.0
N354 N 0.16344 0.86376 0.67651 0.0
N355 N 0.07603 0.86789 0.59803 0.0
H356 H 0.34126 0.78056 0.90761 0.0
H357 H 0.41018 0.97225 0.94785 0.0
H358 H 0.30882 0.87126 0.793 0.0
H359 H 0.46891 0.87619 1.01352 0.0
H360 H 0.36742 0.93725 0.89837 0.0
H361 H 0.38258 0.81697 0.95544 0.0
C362 C 0.34269 0.80821 0.89258 0.0
C363 C 0.32156 0.82289 0.84614 0.0
C364 C 0.38977 0.92396 0.92351 0.0
C365 C 0.36882 0.86476 0.90105 0.0
C366 C 0.41414 0.94385 0.95164 0.0
C367 C 0.44324 0.92706 0.98439 0.0
C368 C 0.39426 0.88704 0.92918 0.0
C369 C 0.44688 0.89018 0.98859 0.0
C370 C 0.36643 0.82892 0.91982 0.0
C371 C 0.32474 0.85885 0.8285 0.0
N372 N 0.42259 0.8714 0.96153 0.0
N373 N 0.34785 0.87867 0.85616 0.0
H374 H 0.39673 0.08756 1.00661 0.0
H375 H 0.34043 0.14441 0.27765 0.0
H376 H 0.44861 0.04706 0.1621 0.0
H377 H 0.29999 0.19642 0.12221 0.0
H378 H 0.37641 0.1047 0.23591 0.0
H379 H 0.35724 0.12385 0.04829 0.0
C380 C 0.39975 0.08614 0.04949 0.0
C381 C 0.4262 0.0643 0.08082 0.0
C382 C 0.35959 0.12476 0.21094 0.0
C383 C 0.38101 0.10583 0.12881 0.0
C384 C 0.33895 0.1474 0.23476 0.0
C385 C 0.31723 0.17396 0.20346 0.0
C386 C 0.35842 0.12853 0.15538 0.0
C387 C 0.31648 0.17654 0.14802 0.0
C388 C 0.37723 0.10695 0.07326 0.0
C389 C 0.42881 0.06363 0.13625 0.0
N390 N 0.33678 0.15417 0.1258 0.0
N391 N 0.40655 0.08409 0.15842 0.0
H392 H 0.88414 0.94808 0.54606 0.0
H393 H 0.8811 0.78569 0.77171 0.0
H394 H 0.97366 0.9156 0.66277 0.0
H395 H 0.786 0.84531 0.70377 0.0
H396 H 0.91583 0.829 0.72373 0.0
H397 H 0.8478 0.90647 0.59517 0.0
C398 C 0.89613 0.93225 0.58195 0.0
C399 C 0.93198 0.93533 0.60037 0.0
C400 C 0.88736 0.83264 0.71933 0.0
C401 C 0.89078 0.8876 0.65613 0.0
C402 C 0.86752 0.8079 0.7466 0.0
C403 C 0.83063 0.81185 0.74141 0.0
C404 C 0.87017 0.86131 0.68601 0.0
C405 C 0.81439 0.84114 0.70839 0.0
C406 C 0.87537 0.90867 0.61 0.0
C407 C 0.94612 0.91425 0.6472 0.0
N408 N 0.83427 0.8647 0.68155 0.0
N409 N 0.92557 0.89111 0.67319 0.0
H410 H 0.97789 0.12797 0.49266 0.0
H411 H 0.79233 0.15409 0.31015 0.0
H412 H 0.90577 0.04331 0.47455 0.0
H413 H 0.87811 0.22513 0.2938 0.0
H414 H 0.83106 0.115 0.3765 0.0
H415 H 0.93861 0.16654 0.42664 0.0
C416 C 0.9536 0.11765 0.47506 0.0
C417 C 0.94492 0.08254 0.48885 0.0
C418 C 0.84144 0.13903 0.35812 0.0
C419 C 0.9001 0.12625 0.41346 0.0
C420 C 0.81941 0.16126 0.32033 0.0
C421 C 0.8322 0.19271 0.29662 0.0
C422 C 0.87628 0.14863 0.37253 0.0
C423 C 0.86736 0.20098 0.3111 0.0
C424 C 0.93135 0.13954 0.43718 0.0
C425 C 0.91331 0.0703 0.4648 0.0
N426 N 0.88818 0.17914 0.34846 0.0
N427 N 0.89194 0.09218 0.42821 0.0
H428 H 0.66544 0.22498 0.1226 0.0
H429 H 0.59693 0.03384 0.07817 0.0
H430 H 0.69742 0.13364 0.23613 0.0
H431 H 0.5378 0.13005 1.0146 0.0
H432 H 0.6395 0.06851 0.12859 0.0
H433 H 0.62421 0.18895 0.07383 0.0
C434 C 0.66393 0.19727 0.13718 0.0
C435 C 0.6849 0.18228 0.18358 0.0
C436 C 0.6171 0.0819 0.10371 0.0
C437 C 0.63777 0.14085 0.12762 0.0
C438 C 0.59284 0.0622 0.07505 0.0
C439 C 0.56367 0.07913 0.04264 0.0
C440 C 0.61245 0.11878 0.09888 0.0
C441 C 0.55987 0.11596 0.03925 0.0
C442 C 0.64024 0.17678 0.10942 0.0
C443 C 0.68161 0.14626 0.20068 0.0
N444 N 0.58407 0.13456 0.0668 0.0
N445 N 0.65858 0.12665 0.1725 0.0
H446 H 0.70968 0.80717 0.91388 0.0
H447 H 0.55809 0.95903 0.86411 0.0
H448 H 0.66865 0.85809 0.75806 0.0
H449 H 0.6098 0.9185 0.01968 0.0
H450 H 0.59786 0.92194 0.82456 0.0
H451 H 0.67289 0.84726 0.95325 0.0
C452 C 0.69296 0.82678 0.88786 0.0
C453 C 0.69217 0.82908 0.83247 0.0
C454 C 0.60062 0.92126 0.86734 0.0
C455 C 0.64984 0.87521 0.8775 0.0
C456 C 0.57784 0.9424 0.89003 0.0
C457 C 0.58046 0.94183 0.94543 0.0
C458 C 0.62615 0.89914 0.90019 0.0
C459 C 0.60677 0.91985 0.97683 0.0
C460 C 0.67201 0.84977 0.91045 0.0
C461 C 0.67016 0.85531 0.80092 0.0
N462 N 0.62844 0.89926 0.9538 0.0
N463 N 0.64974 0.87721 0.82386 0.0
H464 H 0.62286 0.55284 0.97928 0.0
H465 H 0.62599 0.71569 0.75495 0.0
H466 H 0.53504 0.58195 0.85801 0.0
H467 H 0.72159 0.65825 0.82647 0.0
H468 H 0.59141 0.67097 0.80055 0.0
H469 H 0.65905 0.59538 0.93168 0.0
C470 C 0.61123 0.56808 0.94265 0.0
C471 C 0.57589 0.56383 0.92256 0.0
C472 C 0.61996 0.66814 0.80622 0.0
C473 C 0.61689 0.61268 0.86857 0.0
C474 C 0.6397 0.69367 0.78036 0.0
C475 C 0.67669 0.69074 0.78726 0.0
C476 C 0.63733 0.63972 0.83989 0.0
C477 C 0.69311 0.66165 0.82055 0.0
C478 C 0.63191 0.59222 0.91549 0.0
C479 C 0.56219 0.58422 0.87486 0.0
N480 N 0.67331 0.63734 0.84603 0.0
N481 N 0.58261 0.60797 0.84977 0.0
H482 H 0.71421 0.34991 0.22331 0.0
H483 H 0.53034 0.37162 0.03595 0.0
H484 H 0.62926 0.27782 0.23941 0.0
H485 H 0.60163 0.45715 0.05218 0.0
H486 H 0.56927 0.33427 0.10413 0.0
H487 H 0.6757 0.38775 0.15504 0.0
C488 C 0.68733 0.34226 0.2127 0.0
C489 C 0.67474 0.31086 0.23687 0.0
C490 C 0.57641 0.36119 0.09271 0.0
C491 C 0.6309 0.35352 0.15873 0.0
C492 C 0.55437 0.38238 0.05361 0.0
C493 C 0.56291 0.41739 0.03869 0.0
C494 C 0.60731 0.3751 0.11653 0.0
C495 C 0.59419 0.43022 0.06282 0.0
C496 C 0.66543 0.36378 0.17379 0.0
C497 C 0.63984 0.30196 0.22179 0.0
N498 N 0.61535 0.40903 0.10063 0.0
N499 N 0.61916 0.32311 0.18334 0.0
H500 H 0.9706 0.37205 0.524 0.0
H501 H 0.809 0.37085 0.29682 0.0
H502 H 0.91073 0.46732 0.45767 0.0
H503 H 0.84122 0.2804 0.41199 0.0
H504 H 0.8505 0.40666 0.34692 0.0
H505 H 0.92767 0.3377 0.47472 0.0
C506 C 0.94842 0.38574 0.49897 0.0
C507 C 0.94429 0.42257 0.49458 0.0
C508 C 0.84828 0.37899 0.36117 0.0
C509 C 0.8953 0.3835 0.43773 0.0
C510 C 0.82476 0.35854 0.33257 0.0
C511 C 0.82162 0.32261 0.35032 0.0
C512 C 0.86921 0.36318 0.40716 0.0
C513 C 0.84262 0.30803 0.39697 0.0
C514 C 0.92391 0.36613 0.47096 0.0
C515 C 0.91505 0.43898 0.46164 0.0
N516 N 0.86568 0.32829 0.42352 0.0
N517 N 0.89173 0.41933 0.43409 0.0
H518 H 0.79767 0.69617 0.61688 0.0
H519 H 0.94851 0.5436 0.66823 0.0
H520 H 0.83789 0.64508 0.77296 0.0
H521 H 0.89737 0.58394 0.51225 0.0
H522 H 0.90868 0.5809 0.70728 0.0
H523 H 0.83438 0.65578 0.57788 0.0
C524 C 0.81419 0.67646 0.64302 0.0
C525 C 0.81479 0.67419 0.69838 0.0
C526 C 0.90605 0.5815 0.66452 0.0
C527 C 0.857 0.62773 0.6538 0.0
C528 C 0.92889 0.56025 0.64212 0.0
C529 C 0.92645 0.56072 0.58677 0.0
C530 C 0.88067 0.60364 0.6314 0.0
C531 C 0.90025 0.58268 0.55509 0.0
C532 C 0.83509 0.65329 0.62065 0.0
C533 C 0.83654 0.64784 0.73011 0.0
N534 N 0.87853 0.60339 0.57784 0.0
N535 N 0.85691 0.62579 0.70739 0.0
H536 H 0.30068 0.35676 0.24992 0.0
H537 H 0.42198 0.3959 0.02542 0.0
H538 H 0.36837 0.27256 0.21661 0.0
H539 H 0.43434 0.45806 0.15623 0.0
H540 H 0.38617 0.35465 0.07657 0.0
H541 H 0.33412 0.39938 0.19671 0.0
C542 C 0.32243 0.34732 0.23111 0.0
C543 C 0.33216 0.31133 0.23779 0.0
C544 C 0.39657 0.37753 0.09362 0.0
C545 C 0.36928 0.35929 0.17626 0.0
C546 C 0.41671 0.40107 0.06457 0.0
C547 C 0.431 0.43027 0.08686 0.0
C548 C 0.38982 0.38404 0.14435 0.0
C549 C 0.42381 0.43571 0.1379 0.0
C550 C 0.34141 0.37152 0.2011 0.0
C551 C 0.36042 0.30022 0.2127 0.0
N552 N 0.40333 0.41293 0.16489 0.0
N553 N 0.37784 0.32413 0.18242 0.0
H554 H 0.40608 0.53674 0.9584 0.0
H555 H 0.37845 0.72513 0.78368 0.0
H556 H 0.47774 0.62187 0.9758 0.0
H557 H 0.29301 0.65433 0.80505 0.0
H558 H 0.41791 0.68419 0.84582 0.0
H559 H 0.36634 0.57661 0.89448 0.0
C560 C 0.4133 0.56388 0.94887 0.0
C561 C 0.44504 0.57622 0.97229 0.0
C562 C 0.39054 0.67759 0.83683 0.0
C563 C 0.40024 0.62155 0.89924 0.0
C564 C 0.36812 0.7008 0.80119 0.0
C565 C 0.33255 0.69296 0.78946 0.0
C566 C 0.3773 0.64623 0.86037 0.0
C567 C 0.32034 0.66124 0.81327 0.0
C568 C 0.39069 0.58655 0.91252 0.0
C569 C 0.45336 0.61147 0.95872 0.0
N570 N 0.34274 0.63892 0.84766 0.0
N571 N 0.43115 0.63291 0.92279 0.0
H572 H 0.1644 0.72383 0.62074 0.0
H573 H 0.0973 0.53139 0.58109 0.0
H574 H 0.19793 0.6332 0.73487 0.0
H575 H 0.03749 0.62682 0.51546 0.0
H576 H 0.13987 0.56689 0.62991 0.0
H577 H 0.12335 0.6871 0.57298 0.0
C578 C 0.16326 0.69614 0.63566 0.0
C579 C 0.18461 0.68155 0.68195 0.0
C580 C 0.11734 0.57994 0.60491 0.0
C581 C 0.13769 0.63933 0.62715 0.0
C582 C 0.09307 0.55976 0.57716 0.0
C583 C 0.0637 0.57623 0.54468 0.0
C584 C 0.11247 0.61682 0.59914 0.0
C585 C 0.05973 0.61308 0.54022 0.0
C586 C 0.13968 0.67525 0.60848 0.0
C587 C 0.18182 0.64553 0.6995 0.0
N588 N 0.08392 0.63216 0.56695 0.0
N589 N 0.15887 0.62554 0.67189 0.0
H590 H 0.21334 0.30643 0.42082 0.0
H591 H 0.0596 0.4561 0.37097 0.0
H592 H 0.17255 0.35802 0.26527 0.0
H593 H 0.111 0.41573 0.52678 0.0
H594 H 0.10024 0.41987 0.33163 0.0
H595 H 0.17571 0.34569 0.46038 0.0
C596 C 0.19654 0.32604 0.39492 0.0
C597 C 0.19604 0.32877 0.33954 0.0
C598 C 0.10274 0.41902 0.37442 0.0
C599 C 0.15274 0.37386 0.38474 0.0
C600 C 0.07944 0.43965 0.39699 0.0
C601 C 0.08173 0.43888 0.45236 0.0
C602 C 0.12847 0.39721 0.40739 0.0
C603 C 0.10822 0.4172 0.48392 0.0
C604 C 0.17509 0.34854 0.41761 0.0
C605 C 0.17385 0.35491 0.30812 0.0
N606 N 0.13042 0.3971 0.46101 0.0
N607 N 0.15297 0.37629 0.33114 0.0
H608 H 0.06351 0.96294 0.91915 0.0
H609 H 0.94347 0.04244 0.11686 0.0
H610 H 0.98029 0.04205 0.86774 0.0
H611 H 0.02667 0.96333 0.16837 0.0
H612 H 0.95648 0.04254 0.0255 0.0
H613 H 0.0505 0.96278 1.01054 0.0
C614 C 0.04258 0.9804 0.92702 0.0
C615 C 0.02304 0.0026 0.88545 0.0
C616 C 0.97192 0.02517 0.05676 0.0
C617 C 0.00778 0.00234 0.99039 0.0
C618 C 0.96439 0.02496 0.10902 0.0
C619 C 0.98393 0.00278 0.15061 0.0
C620 C 0.9992 0.00298 0.04568 0.0
C621 C 0.01115 0.98118 0.13786 0.0
C622 C 0.03505 0.98017 0.97929 0.0
C623 C 0.99582 0.02417 0.89823 0.0
N624 N 0.0179 0.98178 0.08665 0.0
N625 N 0.98907 0.02355 0.94944 0.0
H626 H 0.21045 0.80991 0.3633 0.0
H627 H 0.2954 0.69452 0.16473 0.0
H628 H 0.29435 0.7314 0.41374 0.0
H629 H 0.21157 0.7731 0.11425 0.0
H630 H 0.29528 0.70754 0.25604 0.0
H631 H 0.21054 0.79688 0.27199 0.0
C632 C 0.22901 0.79002 0.35523 0.0
C633 C 0.25248 0.7718 0.39653 0.0
C634 C 0.27692 0.72196 0.22501 0.0
C635 C 0.25252 0.7565 0.29165 0.0
C636 C 0.27684 0.71442 0.17279 0.0
C637 C 0.25341 0.73267 0.13148 0.0
C638 C 0.25334 0.74795 0.23637 0.0
C639 C 0.23042 0.75862 0.1445 0.0
C640 C 0.22893 0.78247 0.30301 0.0
C641 C 0.27548 0.74586 0.3835 0.0
N642 N 0.23092 0.7654 0.19568 0.0
N643 N 0.27496 0.73907 0.33232 0.0
H644 H 0.54111 0.98935 0.66783 0.0
H645 H 0.46611 0.01737 0.35846 0.0
H646 H 0.43959 0.03902 0.6063 0.0
H647 H 0.56763 0.96768 0.41995 0.0
H648 H 0.45613 0.02595 0.44884 0.0
H649 H 0.55111 0.98077 0.57745 0.0
C650 C 0.52081 0.99829 0.63542 0.0
C651 C 0.48945 0.015 0.64489 0.0
C652 C 0.48059 0.01315 0.44258 0.0
C653 C 0.50094 0.00558 0.54094 0.0
C654 C 0.48641 0.00843 0.39087 0.0
C655 C 0.51776 0.99172 0.38138 0.0
C656 C 0.50629 1.00113 0.48534 0.0
C657 C 0.54284 0.98023 0.42526 0.0
C658 C 0.52664 0.99357 0.58371 0.0
C659 C 0.46438 0.02648 0.60101 0.0
N660 N 0.53657 0.98515 0.47519 0.0
N661 N 0.47066 0.02155 0.55108 0.0
H662 H 0.1914 0.25324 0.8806 0.0
H663 H 0.326 0.25338 0.66217 0.0
H664 H 0.30135 0.27817 0.90973 0.0
H665 H 0.21638 0.22714 0.63357 0.0
H666 H 0.31743 0.26268 0.75276 0.0
H667 H 0.19993 0.24395 0.78997 0.0
C668 C 0.21733 0.25692 0.86794 0.0
C669 C 0.24567 0.26662 0.90304 0.0
C670 C 0.29522 0.2549 0.72669 0.0
C671 C 0.25571 0.25569 0.79902 0.0
C672 C 0.30014 0.2494 0.67493 0.0
C673 C 0.27191 0.23932 0.63999 0.0
C674 C 0.26181 0.2503 0.74398 0.0
C675 C 0.23884 0.23526 0.65873 0.0
C676 C 0.22222 0.25142 0.81616 0.0
C677 C 0.2788 0.27034 0.88444 0.0
N678 N 0.23475 0.24068 0.70936 0.0
N679 N 0.28286 0.26496 0.83378 0.0
H680 H 0.72615 0.22274 0.91224 0.0
H681 H 0.78157 0.28125 0.62197 0.0
H682 H 0.78401 0.31636 0.87227 0.0
H683 H 0.72369 0.18764 0.66193 0.0
H684 H 0.78243 0.29471 0.71322 0.0
H685 H 0.72533 0.20926 0.82101 0.0
C686 C 0.73885 0.24041 0.88445 0.0
C687 C 0.75517 0.27079 0.90026 0.0
C688 C 0.76956 0.27119 0.70205 0.0
C689 C 0.75398 0.25563 0.79514 0.0
C690 C 0.76888 0.26358 0.64977 0.0
C691 C 0.75254 0.23321 0.63394 0.0
C692 C 0.75377 0.24835 0.73908 0.0
C693 C 0.73705 0.21107 0.67226 0.0
C694 C 0.73818 0.23278 0.83217 0.0
C695 C 0.77067 0.29292 0.86195 0.0
N696 N 0.73802 0.21909 0.72286 0.0
N697 N 0.76971 0.28489 0.81135 0.0
H698 H 0.79989 0.77447 0.40588 0.0
H699 H 0.70751 0.72882 0.12481 0.0
H700 H 0.68849 0.75654 0.37306 0.0
H701 H 0.81888 0.7469 0.15758 0.0
H702 H 0.69994 0.73934 0.2153 0.0
H703 H 0.80746 0.76393 0.3154 0.0
C704 C 0.77704 0.76807 0.37982 0.0
C705 C 0.74348 0.76641 0.39728 0.0
C706 C 0.72604 0.74103 0.20271 0.0
C707 C 0.75191 0.75471 0.29312 0.0
C708 C 0.73035 0.73525 0.15086 0.0
C709 C 0.7639 0.73696 0.13338 0.0
C710 C 0.75547 0.74863 0.23755 0.0
C711 C 0.7926 0.74483 0.1694 0.0
C712 C 0.78135 0.76228 0.32797 0.0
C713 C 0.71477 0.75857 0.36125 0.0
N714 N 0.78772 0.75037 0.21965 0.0
N715 N 0.71965 0.75302 0.311 0.0
H716 H 0.53379 0.46332 0.65778 0.0
H717 H 0.47542 0.5345 0.35111 0.0
H718 H 0.44174 0.53105 0.6023 0.0
H719 H 0.56669 0.46571 0.4067 0.0
H720 H 0.46257 0.5335 0.44271 0.0
H721 H 0.54675 0.46467 0.56622 0.0
C722 C 0.51645 0.47873 0.62642 0.0
C723 C 0.48662 0.49712 0.63792 0.0
C724 C 0.4854 0.5186 0.43489 0.0
C725 C 0.50109 0.4984 0.53261 0.0
C726 C 0.49263 0.51896 0.38249 0.0
C727 C 0.52221 0.50015 0.371 0.0
C728 C 0.50786 0.49926 0.47633 0.0
C729 C 0.54387 0.48099 0.41359 0.0
C730 C 0.52374 0.47928 0.57404 0.0
C731 C 0.46478 0.51612 0.59537 0.0
N732 N 0.53626 0.48104 0.46423 0.0
N733 N 0.47245 0.51626 0.54471 0.0
H734 H 0.9652 0.50963 0.86554 0.0
H735 H 0.04284 0.48983 0.17368 0.0
H736 H 0.07073 0.46977 0.92584 0.0
H737 H 0.93731 0.52965 0.11338 0.0
H738 H 0.05342 0.48193 0.08329 0.0
H739 H 0.95465 0.51759 0.95592 0.0
C740 C 0.98625 0.50273 0.89769 0.0
C741 C 0.01891 0.48896 0.8879 0.0
C742 C 0.02795 0.49241 0.08982 0.0
C743 C 0.00684 0.49767 0.99182 0.0
C744 C 0.0218 0.49674 0.14153 0.0
C745 C 0.98912 0.51048 0.15132 0.0
C746 C 1.00122 0.50182 0.04739 0.0
C747 C 0.96308 0.51945 0.10779 0.0
C748 C 0.98012 0.50709 0.94939 0.0
C749 C 0.04496 0.48 0.93143 0.0
N750 N 0.96969 0.51495 0.05785 0.0
N751 N 0.03837 0.48452 0.98137 0.0
loop_
_geom_bond_atom_site_label_1
_geom_bond_atom_site_label_2
_geom_bond_distance
_geom_bond_site_symmetry_2
_ccdc_geom_bond_type
Sm0 C2 2.846 1_655 S
Sm0 O20 2.543 1_565 S
Sm0 O21 2.450 1_655 S
Sm0 O22 2.681 1_655 S
Sm0 O23 2.464 1_655 S
Sm0 O24 2.396 1_665 S
Sm0 O28 2.386 1_565 S
Sm0 O31 2.408 . S
Sm1 C11 2.846 1_455 S
Sm1 O22 2.386 1_545 S
Sm1 O25 2.408 . S
Sm1 O26 2.543 1_545 S
Sm1 O27 2.450 1_455 S
Sm1 O28 2.681 1_455 S
Sm1 O29 2.464 1_455 S
Sm1 O30 2.396 1_445 S
C2 Sm0 2.846 1_455 S
C2 C3 1.506 . S
C2 O20 1.261 1_465 S
C2 O21 1.242 . S
C3 C2 1.506 . S
C3 C4 1.358 1_565 S
C3 C8 1.382 . S
C4 C3 1.358 1_545 S
C4 C5 1.385 . S
C4 H32 0.930 1_455 S
C5 C4 1.385 . S
C5 C6 1.395 . S
C5 H33 0.929 . S
C6 C5 1.395 . S
C6 C7 1.334 1_545 S
C7 C6 1.334 1_565 S
C7 C8 1.398 . S
C7 H34 0.930 . S
C8 C3 1.382 . S
C8 C7 1.398 . S
C8 H35 0.929 . S
C9 O22 1.271 . S
C9 O23 1.251 . S
C10 O24 1.252 . S
C10 O25 1.272 . S
C11 Sm1 2.846 1_655 S
C11 C12 1.506 . S
C11 O26 1.261 1_645 S
C11 O27 1.242 . S
C12 C11 1.506 . S
C12 C13 1.358 1_545 S
C12 C17 1.382 . S
C13 C12 1.358 1_565 S
C13 C14 1.385 . S
C13 H36 0.930 1_655 S
C14 C13 1.385 . S
C14 C15 1.395 1_565 S
C14 H37 0.936 . S
C15 C14 1.395 1_545 S
C15 C16 1.334 . S
C16 C15 1.334 . S
C16 C17 1.398 . S
C16 H38 0.930 . S
C17 C12 1.382 . S
C17 C16 1.398 . S
C17 H39 0.929 . S
C18 O28 1.271 . S
C18 O29 1.251 . S
C19 O30 1.252 . S
C19 O31 1.272 . S
O20 Sm0 2.543 1_545 S
O20 C2 1.261 1_645 S
O21 Sm0 2.450 1_455 S
O21 C2 1.242 . S
O22 Sm0 2.681 1_455 S
O22 Sm1 2.386 1_565 S
O22 C9 1.271 . S
O23 Sm0 2.464 1_455 S
O23 C9 1.251 . S
O24 Sm0 2.396 1_445 S
O24 C10 1.252 . S
O25 Sm1 2.408 . S
O25 C10 1.272 . S
O26 Sm1 2.543 1_565 S
O26 C11 1.261 1_465 S
O27 Sm1 2.450 1_655 S
O27 C11 1.242 . S
O28 Sm0 2.386 1_545 S
O28 Sm1 2.681 1_655 S
O28 C18 1.271 . S
O29 Sm1 2.464 1_655 S
O29 C18 1.251 . S
O30 Sm1 2.396 1_665 S
O30 C19 1.252 . S
O31 Sm0 2.408 . S
O31 C19 1.272 . S
H32 C4 0.930 1_655 S
H33 C5 0.929 . S
H34 C7 0.930 . S
H35 C8 0.929 . S
H36 C13 0.930 1_455 S
H37 C14 0.936 . S
H38 C16 0.930 . S
H39 C17 0.929 . S
Sm40 C42 2.846 . S
Sm40 O60 2.543 . S
Sm40 O61 2.450 . S
Sm40 O62 2.681 . S
Sm40 O63 2.464 . S
Sm40 O64 2.396 . S
Sm40 O68 2.386 . S
Sm40 O71 2.408 . S
Sm41 C51 2.846 . S
Sm41 O62 2.386 . S
Sm41 O65 2.408 . S
Sm41 O66 2.543 . S
Sm41 O67 2.450 . S
Sm41 O68 2.681 . S
Sm41 O69 2.464 . S
Sm41 O70 2.396 . S
C42 Sm40 2.846 . S
C42 C43 1.506 . S
C42 O60 1.261 . S
C42 O61 1.242 . S
C43 C42 1.506 . S
C43 C44 1.358 1_556 S
C43 C48 1.382 . S
C44 C43 1.358 1_554 S
C44 C45 1.387 . S
C44 H72 0.929 1_554 S
C45 C44 1.387 . S
C45 C46 1.395 . S
C45 H73 0.929 . S
C46 C45 1.395 . S
C46 C47 1.335 . S
C47 C46 1.335 . S
C47 C48 1.398 1_554 S
C47 H74 0.930 . S
C48 C43 1.382 . S
C48 C47 1.398 1_556 S
C48 H75 0.929 . S
C49 O62 1.271 . S
C49 O63 1.251 . S
C50 O64 1.252 . S
C50 O65 1.272 . S
C51 Sm41 2.846 . S
C51 C52 1.506 . S
C51 O66 1.261 . S
C51 O67 1.242 . S
C52 C51 1.506 . S
C52 C53 1.358 . S
C52 C57 1.382 . S
C53 C52 1.358 . S
C53 C54 1.385 . S
C53 H76 0.930 . S
C54 C53 1.385 . S
C54 C55 1.395 . S
C54 H77 0.929 . S
C55 C54 1.395 . S
C55 C56 1.335 . S
C56 C55 1.335 . S
C56 C57 1.398 . S
C56 H78 0.930 . S
C57 C52 1.382 . S
C57 C56 1.398 . S
C57 H79 0.929 . S
C58 O68 1.271 . S
C58 O69 1.251 . S
C59 O70 1.252 . S
C59 O71 1.272 . S
O60 Sm40 2.543 . S
O60 C42 1.261 . S
O61 Sm40 2.450 . S
O61 C42 1.242 . S
O62 Sm40 2.681 . S
O62 Sm41 2.386 . S
O62 C49 1.271 . S
O63 Sm40 2.464 . S
O63 C49 1.251 . S
O64 Sm40 2.396 . S
O64 C50 1.252 . S
O65 Sm41 2.408 . S
O65 C50 1.272 . S
O66 Sm41 2.543 . S
O66 C51 1.261 . S
O67 Sm41 2.450 . S
O67 C51 1.242 . S
O68 Sm40 2.386 . S
O68 Sm41 2.681 . S
O68 C58 1.271 . S
O69 Sm41 2.464 . S
O69 C58 1.251 . S
O70 Sm41 2.396 . S
O70 C59 1.252 . S
O71 Sm40 2.408 . S
O71 C59 1.272 . S
H72 C44 0.929 1_556 S
H73 C45 0.929 . S
H74 C47 0.930 . S
H75 C48 0.929 . S
H76 C53 0.930 . S
H77 C54 0.929 . S
H78 C56 0.930 . S
H79 C57 0.929 . S
Sm80 C82 2.846 . S
Sm80 O100 2.543 . S
Sm80 O101 2.450 . S
Sm80 O102 2.681 1_554 S
Sm80 O103 2.464 . S
Sm80 O104 2.396 1_565 S
Sm80 O108 2.386 1_565 S
Sm80 O111 2.408 . S
Sm81 C91 2.846 . S
Sm81 O102 2.386 1_545 S
Sm81 O105 2.408 . S
Sm81 O106 2.543 . S
Sm81 O107 2.450 . S
Sm81 O108 2.681 1_556 S
Sm81 O109 2.464 . S
Sm81 O110 2.396 1_545 S
C82 Sm80 2.846 . S
C82 C83 1.506 . S
C82 O100 1.261 . S
C82 O101 1.242 . S
C83 C82 1.506 . S
C83 C84 1.339 1_565 S
C83 C88 1.382 . S
C84 C83 1.339 1_545 S
C84 C85 1.389 . S
C84 H112 0.945 . S
C85 C84 1.389 . S
C85 C86 1.395 1_545 S
C85 H113 0.929 . S
C86 C85 1.395 1_565 S
C86 C87 1.335 . S
C87 C86 1.335 . S
C87 C88 1.398 . S
C87 H114 0.930 . S
C88 C83 1.382 . S
C88 C87 1.398 . S
C88 H115 0.929 . S
C89 O102 1.271 . S
C89 O103 1.251 1_556 S
C90 O104 1.252 . S
C90 O105 1.272 1_554 S
C91 Sm81 2.846 . S
C91 C92 1.506 . S
C91 O106 1.261 . S
C91 O107 1.242 . S
C92 C91 1.506 . S
C92 C93 1.346 1_545 S
C92 C97 1.382 . S
C93 C92 1.346 1_565 S
C93 C94 1.383 . S
C93 H116 0.940 . S
C94 C93 1.383 . S
C94 C95 1.373 1_565 S
C94 H117 0.957 . S
C95 C94 1.373 1_545 S
C95 C96 1.335 . S
C96 C95 1.335 . S
C96 C97 1.398 . S
C96 H118 0.930 . S
C97 C92 1.382 . S
C97 C96 1.398 . S
C97 H119 0.929 . S
C98 O108 1.271 . S
C98 O109 1.251 1_554 S
C99 O110 1.252 . S
C99 O111 1.272 1_556 S
O100 Sm80 2.543 . S
O100 C82 1.261 . S
O101 Sm80 2.450 . S
O101 C82 1.242 . S
O102 Sm80 2.681 1_556 S
O102 Sm81 2.386 1_565 S
O102 C89 1.271 . S
O103 Sm80 2.464 . S
O103 C89 1.251 1_554 S
O104 Sm80 2.396 1_545 S
O104 C90 1.252 . S
O105 Sm81 2.408 . S
O105 C90 1.272 1_556 S
O106 Sm81 2.543 . S
O106 C91 1.261 . S
O107 Sm81 2.450 . S
O107 C91 1.242 . S
O108 Sm80 2.386 1_545 S
O108 Sm81 2.681 1_554 S
O108 C98 1.271 . S
O109 Sm81 2.464 . S
O109 C98 1.251 1_556 S
O110 Sm81 2.396 1_565 S
O110 C99 1.252 . S
O111 Sm80 2.408 . S
O111 C99 1.272 1_554 S
H112 C84 0.945 . S
H113 C85 0.929 . S
H114 C87 0.930 . S
H115 C88 0.929 . S
H116 C93 0.940 . S
H117 C94 0.957 . S
H118 C96 0.930 . S
H119 C97 0.929 . S
Sm120 C122 2.846 . S
Sm120 O140 2.543 . S
Sm120 O141 2.450 . S
Sm120 O142 2.681 . S
Sm120 O143 2.464 . S
Sm120 O144 2.396 . S
Sm120 O148 2.386 . S
Sm120 O151 2.408 . S
Sm121 C131 2.846 . S
Sm121 O142 2.386 . S
Sm121 O145 2.408 . S
Sm121 O146 2.543 . S
Sm121 O147 2.450 . S
Sm121 O148 2.681 . S
Sm121 O149 2.464 . S
Sm121 O150 2.396 . S
C122 Sm120 2.846 . S
C122 C123 1.506 . S
C122 O140 1.261 . S
C122 O141 1.242 . S
C123 C122 1.506 . S
C123 C124 1.358 . S
C123 C128 1.382 . S
C124 C123 1.358 . S
C124 C125 1.385 1_554 S
C124 H152 0.930 . S
C125 C124 1.385 1_556 S
C125 C126 1.395 . S
C125 H153 0.929 . S
C126 C125 1.395 . S
C126 C127 1.335 . S
C127 C126 1.335 . S
C127 C128 1.398 1_556 S
C127 H154 0.930 . S
C128 C123 1.382 . S
C128 C127 1.398 1_554 S
C128 H155 0.929 . S
C129 O142 1.271 . S
C129 O143 1.251 . S
C130 O144 1.252 . S
C130 O145 1.272 . S
C131 Sm121 2.846 . S
C131 C132 1.506 . S
C131 O146 1.261 . S
C131 O147 1.242 . S
C132 C131 1.506 . S
C132 C133 1.358 . S
C132 C137 1.382 . S
C133 C132 1.358 . S
C133 C134 1.385 . S
C133 H156 0.930 . S
C134 C133 1.385 . S
C134 C135 1.395 . S
C134 H157 0.929 . S
C135 C134 1.395 . S
C135 C136 1.335 . S
C136 C135 1.335 . S
C136 C137 1.398 . S
C136 H158 0.930 . S
C137 C132 1.382 . S
C137 C136 1.398 . S
C137 H159 0.929 . S
C138 O148 1.271 . S
C138 O149 1.251 . S
C139 O150 1.252 . S
C139 O151 1.272 . S
O140 Sm120 2.543 . S
O140 C122 1.261 . S
O141 Sm120 2.450 . S
O141 C122 1.242 . S
O142 Sm120 2.681 . S
O142 Sm121 2.386 . S
O142 C129 1.271 . S
O143 Sm120 2.464 . S
O143 C129 1.251 . S
O144 Sm120 2.396 . S
O144 C130 1.252 . S
O145 Sm121 2.408 . S
O145 C130 1.272 . S
O146 Sm121 2.543 . S
O146 C131 1.261 . S
O147 Sm121 2.450 . S
O147 C131 1.242 . S
O148 Sm120 2.386 . S
O148 Sm121 2.681 . S
O148 C138 1.271 . S
O149 Sm121 2.464 . S
O149 C138 1.251 . S
O150 Sm121 2.396 . S
O150 C139 1.252 . S
O151 Sm120 2.408 . S
O151 C139 1.272 . S
H152 C124 0.930 . S
H153 C125 0.929 . S
H154 C127 0.930 . S
H155 C128 0.929 . S
H156 C133 0.930 . S
H157 C134 0.929 . S
H158 C136 0.930 . S
H159 C137 0.929 . S
Sm160 C162 2.846 . S
Sm160 O180 2.543 . S
Sm160 O181 2.450 . S
Sm160 O182 2.681 . S
Sm160 O183 2.464 . S
Sm160 O184 2.396 . S
Sm160 O188 2.386 . S
Sm160 O191 2.408 . S
Sm161 C171 2.846 . S
Sm161 O182 2.386 . S
Sm161 O185 2.408 . S
Sm161 O186 2.543 . S
Sm161 O187 2.450 . S
Sm161 O188 2.681 . S
Sm161 O189 2.464 . S
Sm161 O190 2.396 . S
C162 Sm160 2.846 . S
C162 C163 1.506 . S
C162 O180 1.261 . S
C162 O181 1.242 . S
C163 C162 1.506 . S
C163 C164 1.358 . S
C163 C168 1.382 . S
C164 C163 1.358 . S
C164 C165 1.385 . S
C164 H192 0.930 . S
C165 C164 1.385 . S
C165 C166 1.395 . S
C165 H193 0.929 . S
C166 C165 1.395 . S
C166 C167 1.335 . S
C167 C166 1.335 . S
C167 C168 1.398 . S
C167 H194 0.930 . S
C168 C163 1.382 . S
C168 C167 1.398 . S
C168 H195 0.929 . S
C169 O182 1.271 . S
C169 O183 1.251 . S
C170 O184 1.252 . S
C170 O185 1.272 . S
C171 Sm161 2.846 . S
C171 C172 1.506 . S
C171 O186 1.261 . S
C171 O187 1.242 . S
C172 C171 1.506 . S
C172 C173 1.359 1_554 S
C172 C177 1.382 . S
C173 C172 1.359 1_556 S
C173 C174 1.385 . S
C173 H196 0.930 1_556 S
C174 C173 1.385 . S
C174 C175 1.395 . S
C174 H197 0.929 . S
C175 C174 1.395 . S
C175 C176 1.335 . S
C176 C175 1.335 . S
C176 C177 1.398 1_556 S
C176 H198 0.930 . S
C177 C172 1.382 . S
C177 C176 1.398 1_554 S
C177 H199 0.929 . S
C178 O188 1.271 . S
C178 O189 1.251 . S
C179 O190 1.252 . S
C179 O191 1.272 . S
O180 Sm160 2.543 . S
O180 C162 1.261 . S
O181 Sm160 2.450 . S
O181 C162 1.242 . S
O182 Sm160 2.681 . S
O182 Sm161 2.386 . S
O182 C169 1.271 . S
O183 Sm160 2.464 . S
O183 C169 1.251 . S
O184 Sm160 2.396 . S
O184 C170 1.252 . S
O185 Sm161 2.408 . S
O185 C170 1.272 . S
O186 Sm161 2.543 . S
O186 C171 1.261 . S
O187 Sm161 2.450 . S
O187 C171 1.242 . S
O188 Sm160 2.386 . S
O188 Sm161 2.681 . S
O188 C178 1.271 . S
O189 Sm161 2.464 . S
O189 C178 1.251 . S
O190 Sm161 2.396 . S
O190 C179 1.252 . S
O191 Sm160 2.408 . S
O191 C179 1.272 . S
H192 C164 0.930 . S
H193 C165 0.929 . S
H194 C167 0.930 . S
H195 C168 0.929 . S
H196 C173 0.930 1_554 S
H197 C174 0.929 . S
H198 C176 0.930 . S
H199 C177 0.929 . S
Sm200 C202 2.846 . S
Sm200 O220 2.543 . S
Sm200 O221 2.450 . S
Sm200 O222 2.681 . S
Sm200 O223 2.464 . S
Sm200 O224 2.396 . S
Sm200 O228 2.386 . S
Sm200 O231 2.408 . S
Sm201 C211 2.846 . S
Sm201 O222 2.386 . S
Sm201 O225 2.408 . S
Sm201 O226 2.543 . S
Sm201 O227 2.450 . S
Sm201 O228 2.681 . S
Sm201 O229 2.464 . S
Sm201 O230 2.396 . S
C202 Sm200 2.846 . S
C202 C203 1.506 . S
C202 O220 1.261 . S
C202 O221 1.242 . S
C203 C202 1.506 . S
C203 C204 1.358 . S
C203 C208 1.382 . S
C204 C203 1.358 . S
C204 C205 1.385 . S
C204 H232 0.930 . S
C205 C204 1.385 . S
C205 C206 1.395 . S
C205 H233 0.929 . S
C206 C205 1.395 . S
C206 C207 1.335 . S
C207 C206 1.335 . S
C207 C208 1.398 . S
C207 H234 0.930 . S
C208 C203 1.382 . S
C208 C207 1.398 . S
C208 H235 0.929 . S
C209 O222 1.271 . S
C209 O223 1.251 . S
C210 O224 1.252 . S
C210 O225 1.272 . S
C211 Sm201 2.846 . S
C211 C212 1.506 . S
C211 O226 1.261 . S
C211 O227 1.242 . S
C212 C211 1.506 . S
C212 C213 1.358 . S
C212 C217 1.382 . S
C213 C212 1.358 . S
C213 C214 1.385 1_556 S
C213 H236 0.930 . S
C214 C213 1.385 1_554 S
C214 C215 1.395 . S
C214 H237 0.929 . S
C215 C214 1.395 . S
C215 C216 1.335 . S
C216 C215 1.335 . S
C216 C217 1.398 1_554 S
C216 H238 0.930 . S
C217 C212 1.382 . S
C217 C216 1.398 1_556 S
C217 H239 0.929 . S
C218 O228 1.271 . S
C218 O229 1.251 . S
C219 O230 1.252 . S
C219 O231 1.272 . S
O220 Sm200 2.543 . S
O220 C202 1.261 . S
O221 Sm200 2.450 . S
O221 C202 1.242 . S
O222 Sm200 2.681 . S
O222 Sm201 2.386 . S
O222 C209 1.271 . S
O223 Sm200 2.464 . S
O223 C209 1.251 . S
O224 Sm200 2.396 . S
O224 C210 1.252 . S
O225 Sm201 2.408 . S
O225 C210 1.272 . S
O226 Sm201 2.543 . S
O226 C211 1.261 . S
O227 Sm201 2.450 . S
O227 C211 1.242 . S
O228 Sm200 2.386 . S
O228 Sm201 2.681 . S
O228 C218 1.271 . S
O229 Sm201 2.464 . S
O229 C218 1.251 . S
O230 Sm201 2.396 . S
O230 C219 1.252 . S
O231 Sm200 2.408 . S
O231 C219 1.272 . S
H232 C204 0.930 . S
H233 C205 0.929 . S
H234 C207 0.930 . S
H235 C208 0.929 . S
H236 C213 0.930 . S
H237 C214 0.929 . S
H238 C216 0.930 . S
H239 C217 0.929 . S
Sm240 C242 2.846 . S
Sm240 O260 2.543 . S
Sm240 O261 2.450 . S
Sm240 O262 2.681 1_556 S
Sm240 O263 2.464 . S
Sm240 O264 2.396 . S
Sm240 O268 2.386 . S
Sm240 O271 2.408 1_556 S
Sm241 C251 2.846 . S
Sm241 O262 2.386 . S
Sm241 O265 2.408 1_554 S
Sm241 O266 2.543 . S
Sm241 O267 2.450 . S
Sm241 O268 2.681 1_554 S
Sm241 O269 2.464 . S
Sm241 O270 2.396 . S
C242 Sm240 2.846 . S
C242 C243 1.506 . S
C242 O260 1.261 . S
C242 O261 1.242 . S
C243 C242 1.506 . S
C243 C244 1.358 . S
C243 C248 1.382 . S
C244 C243 1.358 . S
C244 C245 1.385 . S
C244 H272 0.930 . S
C245 C244 1.385 . S
C245 C246 1.395 . S
C245 H273 0.929 . S
C246 C245 1.395 . S
C246 C247 1.335 . S
C247 C246 1.335 . S
C247 C248 1.398 . S
C247 H274 0.930 . S
C248 C243 1.382 . S
C248 C247 1.398 . S
C248 H275 0.929 . S
C249 O262 1.271 . S
C249 O263 1.251 1_554 S
C250 O264 1.252 . S
C250 O265 1.272 . S
C251 Sm241 2.846 . S
C251 C252 1.506 . S
C251 O266 1.261 . S
C251 O267 1.242 . S
C252 C251 1.506 . S
C252 C253 1.358 . S
C252 C257 1.382 . S
C253 C252 1.358 . S
C253 C254 1.385 . S
C253 H276 0.930 . S
C254 C253 1.385 . S
C254 C255 1.395 . S
C254 H277 0.929 . S
C255 C254 1.395 . S
C255 C256 1.335 . S
C256 C255 1.335 . S
C256 C257 1.398 . S
C256 H278 0.930 . S
C257 C252 1.382 . S
C257 C256 1.398 . S
C257 H279 0.929 . S
C258 O268 1.271 . S
C258 O269 1.251 1_556 S
C259 O270 1.252 . S
C259 O271 1.272 . S
O260 Sm240 2.543 . S
O260 C242 1.261 . S
O261 Sm240 2.450 . S
O261 C242 1.242 . S
O262 Sm240 2.681 1_554 S
O262 Sm241 2.386 . S
O262 C249 1.271 . S
O263 Sm240 2.464 . S
O263 C249 1.251 1_556 S
O264 Sm240 2.396 . S
O264 C250 1.252 . S
O265 Sm241 2.408 1_556 S
O265 C250 1.272 . S
O266 Sm241 2.543 . S
O266 C251 1.261 . S
O267 Sm241 2.450 . S
O267 C251 1.242 . S
O268 Sm240 2.386 . S
O268 Sm241 2.681 1_556 S
O268 C258 1.271 . S
O269 Sm241 2.464 . S
O269 C258 1.251 1_554 S
O270 Sm241 2.396 . S
O270 C259 1.252 . S
O271 Sm240 2.408 1_554 S
O271 C259 1.272 . S
H272 C244 0.930 . S
H273 C245 0.929 . S
H274 C247 0.930 . S
H275 C248 0.929 . S
H276 C253 0.930 . S
H277 C254 0.929 . S
H278 C256 0.930 . S
H279 C257 0.929 . S
Sm280 C282 2.846 1_455 S
Sm280 O300 2.543 . S
Sm280 O301 2.450 1_455 S
Sm280 O302 2.681 1_455 S
Sm280 O303 2.464 1_455 S
Sm280 O304 2.396 1_455 S
Sm280 O308 2.386 . S
Sm280 O311 2.408 . S
Sm281 C291 2.846 1_655 S
Sm281 O302 2.386 . S
Sm281 O305 2.408 . S
Sm281 O306 2.543 . S
Sm281 O307 2.450 1_655 S
Sm281 O308 2.681 1_655 S
Sm281 O309 2.464 1_655 S
Sm281 O310 2.396 1_655 S
C282 Sm280 2.846 1_655 S
C282 C283 1.506 . S
C282 O300 1.261 1_655 S
C282 O301 1.242 . S
C283 C282 1.506 . S
C283 C284 1.358 . S
C283 C288 1.382 . S
C284 C283 1.358 . S
C284 C285 1.385 . S
C284 H312 0.930 1_655 S
C285 C284 1.385 . S
C285 C286 1.395 . S
C285 H313 0.929 . S
C286 C285 1.395 . S
C286 C287 1.335 . S
C287 C286 1.335 . S
C287 C288 1.398 . S
C287 H314 0.930 . S
C288 C283 1.382 . S
C288 C287 1.398 . S
C288 H315 0.929 . S
C289 O302 1.271 . S
C289 O303 1.251 . S
C290 O304 1.252 . S
C290 O305 1.272 . S
C291 Sm281 2.846 1_455 S
C291 C292 1.506 . S
C291 O306 1.261 1_455 S
C291 O307 1.242 . S
C292 C291 1.506 . S
C292 C293 1.358 . S
C292 C297 1.382 . S
C293 C292 1.358 . S
C293 C294 1.385 . S
C293 H316 0.930 1_455 S
C294 C293 1.385 . S
C294 C295 1.395 . S
C294 H317 0.929 . S
C295 C294 1.395 . S
C295 C296 1.335 . S
C296 C295 1.335 . S
C296 C297 1.398 . S
C296 H318 0.930 . S
C297 C292 1.382 . S
C297 C296 1.398 . S
C297 H319 0.929 . S
C298 O308 1.271 . S
C298 O309 1.251 . S
C299 O310 1.252 . S
C299 O311 1.272 . S
O300 Sm280 2.543 . S
O300 C282 1.261 1_455 S
O301 Sm280 2.450 1_655 S
O301 C282 1.242 . S
O302 Sm280 2.681 1_655 S
O302 Sm281 2.386 . S
O302 C289 1.271 . S
O303 Sm280 2.464 1_655 S
O303 C289 1.251 . S
O304 Sm280 2.396 1_655 S
O304 C290 1.252 . S
O305 Sm281 2.408 . S
O305 C290 1.272 . S
O306 Sm281 2.543 . S
O306 C291 1.261 1_655 S
O307 Sm281 2.450 1_455 S
O307 C291 1.242 . S
O308 Sm280 2.386 . S
O308 Sm281 2.681 1_455 S
O308 C298 1.271 . S
O309 Sm281 2.464 1_455 S
O309 C298 1.251 . S
O310 Sm281 2.396 1_455 S
O310 C299 1.252 . S
O311 Sm280 2.408 . S
O311 C299 1.272 . S
H312 C284 0.930 1_455 S
H313 C285 0.929 . S
H314 C287 0.930 . S
H315 C288 0.929 . S
H316 C293 0.930 1_655 S
H317 C294 0.929 . S
H318 C296 0.930 . S
H319 C297 0.929 . S
H320 C326 0.930 . S
H321 C330 0.930 . S
H322 C335 0.929 . S
H323 C333 0.929 . S
H324 C328 0.929 . S
H325 C334 0.929 . S
C326 H320 0.930 . S
C326 C327 1.367 . S
C326 C334 1.378 . S
C327 C326 1.367 . S
C327 C335 1.433 . S
C328 H324 0.929 . S
C328 C330 1.378 . S
C328 C332 1.350 . S
C329 C332 1.463 . S
C329 C334 1.350 . S
C329 N337 1.427 . S
C330 H321 0.930 . S
C330 C328 1.378 . S
C330 C331 1.367 . S
C331 C330 1.367 . S
C331 C333 1.433 . S
C332 C328 1.350 . S
C332 C329 1.463 . S
C332 N336 1.427 . S
C333 H323 0.929 . S
C333 C331 1.433 . S
C333 N336 1.384 . S
C334 H325 0.929 . S
C334 C326 1.378 . S
C334 C329 1.350 . S
C335 H322 0.929 . S
C335 C327 1.433 . S
C335 N337 1.384 . S
N336 C332 1.427 . S
N336 C333 1.384 . S
N337 C329 1.427 . S
N337 C335 1.384 . S
H338 C344 0.930 . S
H339 C348 0.930 . S
H340 C353 0.929 . S
H341 C351 0.929 . S
H342 C346 0.929 . S
H343 C352 0.929 . S
C344 H338 0.930 . S
C344 C345 1.367 . S
C344 C352 1.378 . S
C345 C344 1.367 . S
C345 C353 1.433 . S
C346 H342 0.929 . S
C346 C348 1.378 . S
C346 C350 1.350 . S
C347 C350 1.463 . S
C347 C352 1.350 . S
C347 N355 1.427 . S
C348 H339 0.930 . S
C348 C346 1.378 . S
C348 C349 1.367 . S
C349 C348 1.367 . S
C349 C351 1.433 . S
C350 C346 1.350 . S
C350 C347 1.463 . S
C350 N354 1.427 . S
C351 H341 0.929 . S
C351 C349 1.433 . S
C351 N354 1.384 . S
C352 H343 0.929 . S
C352 C344 1.378 . S
C352 C347 1.350 . S
C353 H340 0.929 . S
C353 C345 1.433 . S
C353 N355 1.384 . S
N354 C350 1.427 . S
N354 C351 1.384 . S
N355 C347 1.427 . S
N355 C353 1.384 . S
H356 C362 0.930 . S
H357 C366 0.930 . S
H358 C371 0.929 . S
H359 C369 0.929 1_554 S
H360 C364 0.929 . S
H361 C370 0.929 . S
C362 H356 0.930 . S
C362 C363 1.367 . S
C362 C370 1.378 . S
C363 C362 1.367 . S
C363 C371 1.433 . S
C364 H360 0.929 . S
C364 C366 1.378 . S
C364 C368 1.350 . S
C365 C368 1.463 . S
C365 C370 1.350 . S
C365 N373 1.427 . S
C366 H357 0.930 . S
C366 C364 1.378 . S
C366 C367 1.367 . S
C367 C366 1.367 . S
C367 C369 1.433 . S
C368 C364 1.350 . S
C368 C365 1.463 . S
C368 N372 1.427 . S
C369 H359 0.929 1_556 S
C369 C367 1.433 . S
C369 N372 1.384 . S
C370 H361 0.929 . S
C370 C362 1.378 . S
C370 C365 1.350 . S
C371 H358 0.929 . S
C371 C363 1.433 . S
C371 N373 1.384 . S
N372 C368 1.427 . S
N372 C369 1.384 . S
N373 C365 1.427 . S
N373 C371 1.384 . S
H374 C380 0.930 . S
H375 C384 0.930 . S
H376 C389 0.929 . S
H377 C387 0.929 . S
H378 C382 0.929 . S
H379 C388 0.929 . S
C380 H374 0.930 . S
C380 C381 1.367 . S
C380 C388 1.378 . S
C381 C380 1.367 . S
C381 C389 1.433 . S
C382 H378 0.929 . S
C382 C384 1.378 . S
C382 C386 1.350 . S
C383 C386 1.463 . S
C383 C388 1.350 . S
C383 N391 1.427 . S
C384 H375 0.930 . S
C384 C382 1.378 . S
C384 C385 1.367 . S
C385 C384 1.367 . S
C385 C387 1.433 . S
C386 C382 1.350 . S
C386 C383 1.463 . S
C386 N390 1.427 . S
C387 H377 0.929 . S
C387 C385 1.433 . S
C387 N390 1.384 . S
C388 H379 0.929 . S
C388 C380 1.378 . S
C388 C383 1.350 . S
C389 H376 0.929 . S
C389 C381 1.433 . S
C389 N391 1.384 . S
N390 C386 1.427 . S
N390 C387 1.384 . S
N391 C383 1.427 . S
N391 C389 1.384 . S
H392 C398 0.930 . S
H393 C402 0.930 . S
H394 C407 0.929 . S
H395 C405 0.929 . S
H396 C400 0.929 . S
H397 C406 0.929 . S
C398 H392 0.930 . S
C398 C399 1.367 . S
C398 C406 1.378 . S
C399 C398 1.367 . S
C399 C407 1.433 . S
C400 H396 0.929 . S
C400 C402 1.378 . S
C400 C404 1.350 . S
C401 C404 1.463 . S
C401 C406 1.350 . S
C401 N409 1.427 . S
C402 H393 0.930 . S
C402 C400 1.378 . S
C402 C403 1.367 . S
C403 C402 1.367 . S
C403 C405 1.433 . S
C404 C400 1.350 . S
C404 C401 1.463 . S
C404 N408 1.427 . S
C405 H395 0.929 . S
C405 C403 1.433 . S
C405 N408 1.384 . S
C406 H397 0.929 . S
C406 C398 1.378 . S
C406 C401 1.350 . S
C407 H394 0.929 . S
C407 C399 1.433 . S
C407 N409 1.384 . S
N408 C404 1.427 . S
N408 C405 1.384 . S
N409 C401 1.427 . S
N409 C407 1.384 . S
H410 C416 0.930 . S
H411 C420 0.930 . S
H412 C425 0.929 . S
H413 C423 0.929 . S
H414 C418 0.929 . S
H415 C424 0.929 . S
C416 H410 0.930 . S
C416 C417 1.367 . S
C416 C424 1.378 . S
C417 C416 1.367 . S
C417 C425 1.433 . S
C418 H414 0.929 . S
C418 C420 1.378 . S
C418 C422 1.350 . S
C419 C422 1.463 . S
C419 C424 1.350 . S
C419 N427 1.427 . S
C420 H411 0.930 . S
C420 C418 1.378 . S
C420 C421 1.367 . S
C421 C420 1.367 . S
C421 C423 1.433 . S
C422 C418 1.350 . S
C422 C419 1.463 . S
C422 N426 1.427 . S
C423 H413 0.929 . S
C423 C421 1.433 . S
C423 N426 1.384 . S
C424 H415 0.929 . S
C424 C416 1.378 . S
C424 C419 1.350 . S
C425 H412 0.929 . S
C425 C417 1.433 . S
C425 N427 1.384 . S
N426 C422 1.427 . S
N426 C423 1.384 . S
N427 C419 1.427 . S
N427 C425 1.384 . S
H428 C434 0.930 . S
H429 C438 0.930 . S
H430 C443 0.929 . S
H431 C441 0.929 1_556 S
H432 C436 0.929 . S
H433 C442 0.929 . S
C434 H428 0.930 . S
C434 C435 1.367 . S
C434 C442 1.378 . S
C435 C434 1.367 . S
C435 C443 1.433 . S
C436 H432 0.929 . S
C436 C438 1.378 . S
C436 C440 1.350 . S
C437 C440 1.463 . S
C437 C442 1.350 . S
C437 N445 1.427 . S
C438 H429 0.930 . S
C438 C436 1.378 . S
C438 C439 1.367 . S
C439 C438 1.367 . S
C439 C441 1.433 . S
C440 C436 1.350 . S
C440 C437 1.463 . S
C440 N444 1.427 . S
C441 H431 0.929 1_554 S
C441 C439 1.433 . S
C441 N444 1.384 . S
C442 H433 0.929 . S
C442 C434 1.378 . S
C442 C437 1.350 . S
C443 H430 0.929 . S
C443 C435 1.433 . S
C443 N445 1.384 . S
N444 C440 1.427 . S
N444 C441 1.384 . S
N445 C437 1.427 . S
N445 C443 1.384 . S
H446 C452 0.930 . S
H447 C456 0.930 . S
H448 C461 0.929 . S
H449 C459 0.929 . S
H450 C454 0.929 . S
H451 C460 0.929 . S
C452 H446 0.930 . S
C452 C453 1.367 . S
C452 C460 1.378 . S
C453 C452 1.367 . S
C453 C461 1.433 . S
C454 H450 0.929 . S
C454 C456 1.378 . S
C454 C458 1.350 . S
C455 C458 1.463 . S
C455 C460 1.350 . S
C455 N463 1.427 . S
C456 H447 0.930 . S
C456 C454 1.378 . S
C456 C457 1.367 . S
C457 C456 1.367 . S
C457 C459 1.433 . S
C458 C454 1.350 . S
C458 C455 1.463 . S
C458 N462 1.427 . S
C459 H449 0.929 . S
C459 C457 1.433 . S
C459 N462 1.384 . S
C460 H451 0.929 . S
C460 C452 1.378 . S
C460 C455 1.350 . S
C461 H448 0.929 . S
C461 C453 1.433 . S
C461 N463 1.384 . S
N462 C458 1.427 . S
N462 C459 1.384 . S
N463 C455 1.427 . S
N463 C461 1.384 . S
H464 C470 0.930 . S
H465 C474 0.930 . S
H466 C479 0.929 . S
H467 C477 0.929 . S
H468 C472 0.929 . S
H469 C478 0.929 . S
C470 H464 0.930 . S
C470 C471 1.367 . S
C470 C478 1.378 . S
C471 C470 1.367 . S
C471 C479 1.433 . S
C472 H468 0.929 . S
C472 C474 1.378 . S
C472 C476 1.350 . S
C473 C476 1.463 . S
C473 C478 1.350 . S
C473 N481 1.427 . S
C474 H465 0.930 . S
C474 C472 1.378 . S
C474 C475 1.367 . S
C475 C474 1.367 . S
C475 C477 1.433 . S
C476 C472 1.350 . S
C476 C473 1.463 . S
C476 N480 1.427 . S
C477 H467 0.929 . S
C477 C475 1.433 . S
C477 N480 1.384 . S
C478 H469 0.929 . S
C478 C470 1.378 . S
C478 C473 1.350 . S
C479 H466 0.929 . S
C479 C471 1.433 . S
C479 N481 1.384 . S
N480 C476 1.427 . S
N480 C477 1.384 . S
N481 C473 1.427 . S
N481 C479 1.384 . S
H482 C488 0.930 . S
H483 C492 0.930 . S
H484 C497 0.929 . S
H485 C495 0.935 . S
H486 C490 0.929 . S
H487 C496 0.929 . S
C488 H482 0.930 . S
C488 C489 1.367 . S
C488 C496 1.378 . S
C489 C488 1.367 . S
C489 C497 1.433 . S
C490 H486 0.929 . S
C490 C492 1.378 . S
C490 C494 1.350 . S
C491 C494 1.463 . S
C491 C496 1.350 . S
C491 N499 1.427 . S
C492 H483 0.930 . S
C492 C490 1.378 . S
C492 C493 1.367 . S
C493 C492 1.367 . S
C493 C495 1.433 . S
C494 C490 1.350 . S
C494 C491 1.463 . S
C494 N498 1.427 . S
C495 H485 0.935 . S
C495 C493 1.433 . S
C495 N498 1.384 . S
C496 H487 0.929 . S
C496 C488 1.378 . S
C496 C491 1.350 . S
C497 H484 0.929 . S
C497 C489 1.433 . S
C497 N499 1.384 . S
N498 C494 1.427 . S
N498 C495 1.384 . S
N499 C491 1.427 . S
N499 C497 1.384 . S
H500 C506 0.930 . S
H501 C510 0.930 . S
H502 C515 0.929 . S
H503 C513 0.929 . S
H504 C508 0.929 . S
H505 C514 0.929 . S
C506 H500 0.930 . S
C506 C507 1.367 . S
C506 C514 1.378 . S
C507 C506 1.367 . S
C507 C515 1.433 . S
C508 H504 0.929 . S
C508 C510 1.378 . S
C508 C512 1.350 . S
C509 C512 1.463 . S
C509 C514 1.350 . S
C509 N517 1.427 . S
C510 H501 0.930 . S
C510 C508 1.378 . S
C510 C511 1.367 . S
C511 C510 1.367 . S
C511 C513 1.433 . S
C512 C508 1.350 . S
C512 C509 1.463 . S
C512 N516 1.427 . S
C513 H503 0.929 . S
C513 C511 1.433 . S
C513 N516 1.384 . S
C514 H505 0.929 . S
C514 C506 1.378 . S
C514 C509 1.350 . S
C515 H502 0.929 . S
C515 C507 1.433 . S
C515 N517 1.384 . S
N516 C512 1.427 . S
N516 C513 1.384 . S
N517 C509 1.427 . S
N517 C515 1.384 . S
H518 C524 0.930 . S
H519 C528 0.930 . S
H520 C533 0.929 . S
H521 C531 0.929 . S
H522 C526 0.929 . S
H523 C532 0.929 . S
C524 H518 0.930 . S
C524 C525 1.367 . S
C524 C532 1.378 . S
C525 C524 1.367 . S
C525 C533 1.433 . S
C526 H522 0.929 . S
C526 C528 1.378 . S
C526 C530 1.350 . S
C527 C530 1.463 . S
C527 C532 1.350 . S
C527 N535 1.427 . S
C528 H519 0.930 . S
C528 C526 1.378 . S
C528 C529 1.367 . S
C529 C528 1.367 . S
C529 C531 1.433 . S
C530 C526 1.350 . S
C530 C527 1.463 . S
C530 N534 1.427 . S
C531 H521 0.929 . S
C531 C529 1.433 . S
C531 N534 1.384 . S
C532 H523 0.929 . S
C532 C524 1.378 . S
C532 C527 1.350 . S
C533 H520 0.929 . S
C533 C525 1.433 . S
C533 N535 1.384 . S
N534 C530 1.427 . S
N534 C531 1.384 . S
N535 C527 1.427 . S
N535 C533 1.384 . S
H536 C542 0.930 . S
H537 C546 0.930 . S
H538 C551 0.929 . S
H539 C549 0.929 . S
H540 C544 0.929 . S
H541 C550 0.929 . S
C542 H536 0.930 . S
C542 C543 1.367 . S
C542 C550 1.378 . S
C543 C542 1.367 . S
C543 C551 1.433 . S
C544 H540 0.929 . S
C544 C546 1.378 . S
C544 C548 1.350 . S
C545 C548 1.463 . S
C545 C550 1.350 . S
C545 N553 1.427 . S
C546 H537 0.930 . S
C546 C544 1.378 . S
C546 C547 1.367 . S
C547 C546 1.367 . S
C547 C549 1.433 . S
C548 C544 1.350 . S
C548 C545 1.463 . S
C548 N552 1.427 . S
C549 H539 0.929 . S
C549 C547 1.433 . S
C549 N552 1.384 . S
C550 H541 0.929 . S
C550 C542 1.378 . S
C550 C545 1.350 . S
C551 H538 0.929 . S
C551 C543 1.433 . S
C551 N553 1.384 . S
N552 C548 1.427 . S
N552 C549 1.384 . S
N553 C545 1.427 . S
N553 C551 1.384 . S
H554 C560 0.930 . S
H555 C564 0.930 . S
H556 C569 0.929 . S
H557 C567 0.929 . S
H558 C562 0.929 . S
H559 C568 0.929 . S
C560 H554 0.930 . S
C560 C561 1.367 . S
C560 C568 1.378 . S
C561 C560 1.367 . S
C561 C569 1.433 . S
C562 H558 0.929 . S
C562 C564 1.378 . S
C562 C566 1.350 . S
C563 C566 1.463 . S
C563 C568 1.350 . S
C563 N571 1.427 . S
C564 H555 0.930 . S
C564 C562 1.378 . S
C564 C565 1.367 . S
C565 C564 1.367 . S
C565 C567 1.433 . S
C566 C562 1.350 . S
C566 C563 1.463 . S
C566 N570 1.427 . S
C567 H557 0.929 . S
C567 C565 1.433 . S
C567 N570 1.384 . S
C568 H559 0.929 . S
C568 C560 1.378 . S
C568 C563 1.350 . S
C569 H556 0.929 . S
C569 C561 1.433 . S
C569 N571 1.384 . S
N570 C566 1.427 . S
N570 C567 1.384 . S
N571 C563 1.427 . S
N571 C569 1.384 . S
H572 C578 0.930 . S
H573 C582 0.930 . S
H574 C587 0.929 . S
H575 C585 0.929 . S
H576 C580 0.929 . S
H577 C586 0.929 . S
C578 H572 0.930 . S
C578 C579 1.367 . S
C578 C586 1.378 . S
C579 C578 1.367 . S
C579 C587 1.433 . S
C580 H576 0.929 . S
C580 C582 1.378 . S
C580 C584 1.350 . S
C581 C584 1.463 . S
C581 C586 1.350 . S
C581 N589 1.427 . S
C582 H573 0.930 . S
C582 C580 1.378 . S
C582 C583 1.367 . S
C583 C582 1.367 . S
C583 C585 1.433 . S
C584 C580 1.350 . S
C584 C581 1.463 . S
C584 N588 1.427 . S
C585 H575 0.929 . S
C585 C583 1.433 . S
C585 N588 1.384 . S
C586 H577 0.929 . S
C586 C578 1.378 . S
C586 C581 1.350 . S
C587 H574 0.929 . S
C587 C579 1.433 . S
C587 N589 1.384 . S
N588 C584 1.427 . S
N588 C585 1.384 . S
N589 C581 1.427 . S
N589 C587 1.384 . S
H590 C596 0.930 . S
H591 C600 0.930 . S
H592 C605 0.929 . S
H593 C603 0.929 . S
H594 C598 0.929 . S
H595 C604 0.929 . S
C596 H590 0.930 . S
C596 C597 1.367 . S
C596 C604 1.378 . S
C597 C596 1.367 . S
C597 C605 1.433 . S
C598 H594 0.929 . S
C598 C600 1.378 . S
C598 C602 1.350 . S
C599 C602 1.463 . S
C599 C604 1.350 . S
C599 N607 1.427 . S
C600 H591 0.930 . S
C600 C598 1.378 . S
C600 C601 1.367 . S
C601 C600 1.367 . S
C601 C603 1.433 . S
C602 C598 1.350 . S
C602 C599 1.463 . S
C602 N606 1.427 . S
C603 H593 0.929 . S
C603 C601 1.433 . S
C603 N606 1.384 . S
C604 H595 0.929 . S
C604 C596 1.378 . S
C604 C599 1.350 . S
C605 H592 0.929 . S
C605 C597 1.433 . S
C605 N607 1.384 . S
N606 C602 1.427 . S
N606 C603 1.384 . S
N607 C599 1.427 . S
N607 C605 1.384 . S
H608 C614 0.930 . S
H609 C618 0.930 . S
H610 C623 0.929 . S
H611 C621 0.929 . S
H612 C616 0.939 . S
H613 C622 0.929 . S
C614 H608 0.930 . S
C614 C615 1.367 . S
C614 C622 1.378 1_655 S
C615 C614 1.367 . S
C615 C623 1.433 1_565 S
C616 H612 0.939 . S
C616 C618 1.375 1_655 S
C616 C620 1.343 1_655 S
C617 C620 1.463 1_666 S
C617 C622 1.350 1_655 S
C617 N625 1.427 1_565 S
C618 H609 0.930 . S
C618 C616 1.375 1_455 S
C618 C619 1.367 . S
C619 C618 1.367 . S
C619 C621 1.433 1_545 S
C620 C616 1.343 1_455 S
C620 C617 1.463 1_444 S
C620 N624 1.427 1_545 S
C621 H611 0.929 . S
C621 C619 1.433 1_565 S
C621 N624 1.384 . S
C622 H613 0.929 . S
C622 C614 1.378 1_455 S
C622 C617 1.350 1_455 S
C623 H610 0.929 . S
C623 C615 1.433 1_545 S
C623 N625 1.384 . S
N624 C620 1.427 1_565 S
N624 C621 1.384 . S
N625 C617 1.427 1_545 S
N625 C623 1.384 . S
H626 C632 0.930 . S
H627 C636 0.930 . S
H628 C641 0.929 . S
H629 C639 0.929 . S
H630 C634 0.929 . S
H631 C640 0.929 . S
C632 H626 0.930 . S
C632 C633 1.367 . S
C632 C640 1.378 . S
C633 C632 1.367 . S
C633 C641 1.433 . S
C634 H630 0.929 . S
C634 C636 1.378 . S
C634 C638 1.350 . S
C635 C638 1.463 . S
C635 C640 1.350 . S
C635 N643 1.427 . S
C636 H627 0.930 . S
C636 C634 1.378 . S
C636 C637 1.367 . S
C637 C636 1.367 . S
C637 C639 1.433 . S
C638 C634 1.350 . S
C638 C635 1.463 . S
C638 N642 1.427 . S
C639 H629 0.929 . S
C639 C637 1.433 . S
C639 N642 1.384 . S
C640 H631 0.929 . S
C640 C632 1.378 . S
C640 C635 1.350 . S
C641 H628 0.929 . S
C641 C633 1.433 . S
C641 N643 1.384 . S
N642 C638 1.427 . S
N642 C639 1.384 . S
N643 C635 1.427 . S
N643 C641 1.384 . S
H644 C650 0.930 . S
H645 C654 0.930 . S
H646 C659 0.929 . S
H647 C657 0.929 . S
H648 C652 0.929 . S
H649 C658 0.929 . S
C650 H644 0.930 . S
C650 C651 1.367 1_565 S
C650 C658 1.378 . S
C651 C650 1.367 1_545 S
C651 C659 1.433 . S
C652 H648 0.929 . S
C652 C654 1.378 . S
C652 C656 1.350 1_545 S
C653 C656 1.463 1_545 S
C653 C658 1.350 1_545 S
C653 N661 1.427 . S
C654 H645 0.930 . S
C654 C652 1.378 . S
C654 C655 1.367 1_545 S
C655 C654 1.367 1_565 S
C655 C657 1.433 . S
C656 C652 1.350 1_565 S
C656 C653 1.463 1_565 S
C656 N660 1.427 . S
C657 H647 0.929 . S
C657 C655 1.433 . S
C657 N660 1.384 . S
C658 H649 0.929 . S
C658 C650 1.378 . S
C658 C653 1.350 1_565 S
C659 H646 0.929 . S
C659 C651 1.433 . S
C659 N661 1.384 . S
N660 C656 1.427 . S
N660 C657 1.384 . S
N661 C653 1.427 . S
N661 C659 1.384 . S
H662 C668 0.930 . S
H663 C672 0.930 . S
H664 C677 0.929 . S
H665 C675 0.929 . S
H666 C670 0.929 . S
H667 C676 0.929 . S
C668 H662 0.930 . S
C668 C669 1.367 . S
C668 C676 1.378 . S
C669 C668 1.367 . S
C669 C677 1.433 . S
C670 H666 0.929 . S
C670 C672 1.378 . S
C670 C674 1.350 . S
C671 C674 1.463 . S
C671 C676 1.350 . S
C671 N679 1.427 . S
C672 H663 0.930 . S
C672 C670 1.378 . S
C672 C673 1.367 . S
C673 C672 1.367 . S
C673 C675 1.433 . S
C674 C670 1.350 . S
C674 C671 1.463 . S
C674 N678 1.427 . S
C675 H665 0.929 . S
C675 C673 1.433 . S
C675 N678 1.384 . S
C676 H667 0.929 . S
C676 C668 1.378 . S
C676 C671 1.350 . S
C677 H664 0.929 . S
C677 C669 1.433 . S
C677 N679 1.384 . S
N678 C674 1.427 . S
N678 C675 1.384 . S
N679 C671 1.427 . S
N679 C677 1.384 . S
H680 C686 0.930 . S
H681 C690 0.930 . S
H682 C695 0.929 . S
H683 C693 0.929 . S
H684 C688 0.929 . S
H685 C694 0.929 . S
C686 H680 0.930 . S
C686 C687 1.367 . S
C686 C694 1.378 . S
C687 C686 1.367 . S
C687 C695 1.433 . S
C688 H684 0.929 . S
C688 C690 1.378 . S
C688 C692 1.350 . S
C689 C692 1.463 . S
C689 C694 1.350 . S
C689 N697 1.427 . S
C690 H681 0.930 . S
C690 C688 1.378 . S
C690 C691 1.367 . S
C691 C690 1.367 . S
C691 C693 1.433 . S
C692 C688 1.350 . S
C692 C689 1.463 . S
C692 N696 1.427 . S
C693 H683 0.929 . S
C693 C691 1.433 . S
C693 N696 1.384 . S
C694 H685 0.929 . S
C694 C686 1.378 . S
C694 C689 1.350 . S
C695 H682 0.929 . S
C695 C687 1.433 . S
C695 N697 1.384 . S
N696 C692 1.427 . S
N696 C693 1.384 . S
N697 C689 1.427 . S
N697 C695 1.384 . S
H698 C704 0.930 . S
H699 C708 0.930 . S
H700 C713 0.929 . S
H701 C711 0.929 . S
H702 C706 0.929 . S
H703 C712 0.929 . S
C704 H698 0.930 . S
C704 C705 1.367 . S
C704 C712 1.378 . S
C705 C704 1.367 . S
C705 C713 1.433 . S
C706 H702 0.929 . S
C706 C708 1.378 . S
C706 C710 1.350 . S
C707 C710 1.463 . S
C707 C712 1.350 . S
C707 N715 1.427 . S
C708 H699 0.930 . S
C708 C706 1.378 . S
C708 C709 1.367 . S
C709 C708 1.367 . S
C709 C711 1.433 . S
C710 C706 1.350 . S
C710 C707 1.463 . S
C710 N714 1.427 . S
C711 H701 0.929 . S
C711 C709 1.433 . S
C711 N714 1.384 . S
C712 H703 0.929 . S
C712 C704 1.378 . S
C712 C707 1.350 . S
C713 H700 0.929 . S
C713 C705 1.433 . S
C713 N715 1.384 . S
N714 C710 1.427 . S
N714 C711 1.384 . S
N715 C707 1.427 . S
N715 C713 1.384 . S
H716 C722 0.930 . S
H717 C726 0.930 . S
H718 C731 0.929 . S
H719 C729 0.929 . S
H720 C724 0.929 . S
H721 C730 0.929 . S
C722 H716 0.930 . S
C722 C723 1.367 . S
C722 C730 1.378 . S
C723 C722 1.367 . S
C723 C731 1.433 . S
C724 H720 0.929 . S
C724 C726 1.378 . S
C724 C728 1.350 . S
C725 C728 1.463 . S
C725 C730 1.350 . S
C725 N733 1.427 . S
C726 H717 0.930 . S
C726 C724 1.378 . S
C726 C727 1.367 . S
C727 C726 1.367 . S
C727 C729 1.433 . S
C728 C724 1.350 . S
C728 C725 1.463 . S
C728 N732 1.427 . S
C729 H719 0.929 . S
C729 C727 1.433 . S
C729 N732 1.384 . S
C730 H721 0.929 . S
C730 C722 1.378 . S
C730 C725 1.350 . S
C731 H718 0.929 . S
C731 C723 1.433 . S
C731 N733 1.384 . S
N732 C728 1.427 . S
N732 C729 1.384 . S
N733 C725 1.427 . S
N733 C731 1.384 . S
H734 C740 0.930 . S
H735 C744 0.930 . S
H736 C749 0.929 . S
H737 C747 0.929 . S
H738 C742 0.929 . S
H739 C748 0.929 . S
C740 H734 0.930 . S
C740 C741 1.367 . S
C740 C748 1.378 . S
C741 C740 1.367 . S
C741 C749 1.433 . S
C742 H738 0.929 . S
C742 C744 1.378 . S
C742 C746 1.350 . S
C743 C746 1.463 1_656 S
C743 C748 1.350 . S
C743 N751 1.427 1_655 S
C744 H735 0.930 . S
C744 C742 1.378 . S
C744 C745 1.367 . S
C745 C744 1.367 . S
C745 C747 1.433 . S
C746 C742 1.350 . S
C746 C743 1.463 1_454 S
C746 N750 1.427 1_455 S
C747 H737 0.929 . S
C747 C745 1.433 . S
C747 N750 1.384 1_455 S
C748 H739 0.929 . S
C748 C740 1.378 . S
C748 C743 1.350 . S
C749 H736 0.929 . S
C749 C741 1.433 . S
C749 N751 1.384 1_655 S
N750 C746 1.427 1_655 S
N750 C747 1.384 1_655 S
N751 C743 1.427 1_455 S
N751 C749 1.384 1_455 S
C327 C10 1.534 . S
C331 C129 1.517 . S
C345 C9 0.884 . S
C349 C49 0.881 . S
C363 C50 1.534 . S
C367 C89 1.523 . S
C381 C90 2.059 . S
C385 C130 2.053 . S
C399 C19 1.529 . S
C403 C218 1.516 . S
C417 C18 0.881 . S
C421 C178 0.882 . S
C435 C179 1.534 . S
C439 C98 1.518 . S
C453 C219 2.060 . S
C457 C99 2.062 . S
C471 C250 1.528 . S
C475 C209 1.513 . S
C489 C169 0.897 . S
C493 C249 0.890 . S
C507 C289 1.512 . S
C511 C170 1.529 . S
C525 C210 2.060 . S
C529 C290 2.060 . S
C543 C138 1.517 . S
C547 C259 1.530 . S
C561 C258 0.897 . S
C565 C58 0.891 . S
C579 C59 1.532 . S
C583 C298 1.516 . S
C597 C139 2.060 . S
C601 C299 2.057 . S
C615 C15 1.431 1_565 S
C619 C6 1.431 . S
C633 C55 1.436 . S
C637 C46 1.436 . S
C651 C95 1.607 . S
C655 C86 1.607 . S
C669 C126 1.618 . S
C673 C135 1.618 . S
C687 C175 1.434 . S
C691 C166 1.434 . S
C705 C206 1.606 . S
C709 C215 1.606 . S
C723 C246 1.428 . S
C727 C255 1.428 . S
C741 C286 1.610 . S
C745 C295 1.610 . S
