# Generated by pormake.
# Topology msp, (4)-cn, num edge types: 1
# Building blocks:
#     Node 0, Type 0, BuildingBlock: ICAMEG_clean_sbu_1, # of connection points: 4
#     Node 1, Type 0, BuildingBlock: ICAMEG_clean_sbu_1, # of connection points: 4
#     Node 2, Type 0, BuildingBlock: ICAMEG_clean_sbu_1, # of connection points: 4
#     Node 3, Type 0, BuildingBlock: ICAMEG_clean_sbu_1, # of connection points: 4
#     Node 4, Type 0, BuildingBlock: ICAMEG_clean_sbu_1, # of connection points: 4
#     Node 5, Type 0, BuildingBlock: ICAMEG_clean_sbu_1, # of connection points: 4
#     Node 6, Type 0, BuildingBlock: ICAMEG_clean_sbu_1, # of connection points: 4
#     Node 7, Type 0, BuildingBlock: ICAMEG_clean_sbu_1, # of connection points: 4
#     Edge 8, Type (0, 0), BuildingBlock: OJICUG_clean_linker_0, # of connection points: 2
#     Edge 9, Type (0, 0), BuildingBlock: OJICUG_clean_linker_0, # of connection points: 2
#     Edge 10, Type (0, 0), BuildingBlock: OJICUG_clean_linker_0, # of connection points: 2
#     Edge 11, Type (0, 0), BuildingBlock: OJICUG_clean_linker_0, # of connection points: 2
#     Edge 12, Type (0, 0), BuildingBlock: OJICUG_clean_linker_0, # of connection points: 2
#     Edge 13, Type (0, 0), BuildingBlock: OJICUG_clean_linker_0, # of connection points: 2
#     Edge 14, Type (0, 0), BuildingBlock: OJICUG_clean_linker_0, # of connection points: 2
#     Edge 15, Type (0, 0), BuildingBlock: OJICUG_clean_linker_0, # of connection points: 2
#     Edge 16, Type (0, 0), BuildingBlock: OJICUG_clean_linker_0, # of connection points: 2
#     Edge 17, Type (0, 0), BuildingBlock: OJICUG_clean_linker_0, # of connection points: 2
#     Edge 18, Type (0, 0), BuildingBlock: OJICUG_clean_linker_0, # of connection points: 2
#     Edge 19, Type (0, 0), BuildingBlock: OJICUG_clean_linker_0, # of connection points: 2
#     Edge 20, Type (0, 0), BuildingBlock: OJICUG_clean_linker_0, # of connection points: 2
#     Edge 21, Type (0, 0), BuildingBlock: OJICUG_clean_linker_0, # of connection points: 2
#     Edge 22, Type (0, 0), BuildingBlock: OJICUG_clean_linker_0, # of connection points: 2
#     Edge 23, Type (0, 0), BuildingBlock: OJICUG_clean_linker_0, # of connection points: 2
# Relax obj value: 0.047
# Max RMSD: 0.153
# Mean RMSD: 0.153
data_MOF--net-msp--node1-ICAMEG_clean_sbu_1--edge1-OJICUG_clean_linker_0
_symmetry_space_group_name_H-M    P1
_symmetry_Int_Tables_number       1
_symmetry_cell_setting            triclinic
loop_
_symmetry_equiv_pos_as_xyz
'x, y, z'
_cell_length_a     19.812057
_cell_length_b     13.497745
_cell_length_c     33.767548
_cell_angle_alpha  90.095573
_cell_angle_beta   103.8141
_cell_angle_gamma 90.056807
loop_
_atom_site_label
_atom_site_type_symbol
_atom_site_fract_x
_atom_site_fract_y
_atom_site_fract_z
_atom_type_partial_charge
Co0 Co 0.11729 0.39744 0.35643 0.0
Co1 Co 0.99618 0.22312 0.36625 0.0
O2 O 0.04269 0.30512 0.33244 0.0
C3 C 0.18433 0.27628 0.30367 0.0
O4 O 0.17259 0.19839 0.32421 0.0
C5 C 0.87796 0.29373 0.29733 0.0
O6 O 0.90479 0.38327 0.30179 0.0
O7 O 0.96983 0.34643 0.39218 0.0
O8 O 0.07079 0.43038 0.40139 0.0
H9 H 0.9341 0.12416 0.49675 0.0
H10 H 0.07489 0.43725 0.26696 0.0
O11 O 0.16666 0.36225 0.31304 0.0
H12 H 0.01799 0.74096 0.33297 0.0
H13 H 0.28928 0.66837 0.35044 0.0
H14 H 0.20037 0.44181 0.44072 0.0
H15 H 0.05565 0.5923 0.3736 0.0
H16 H 0.19838 0.54666 0.32184 0.0
O17 O 0.90786 0.22397 0.32058 0.0
H18 H 0.99855 0.21562 0.4546 0.0
H19 H 0.88916 0.06158 0.34884 0.0
H20 H 0.29567 0.55892 0.47007 0.0
H21 H 0.06057 0.59173 0.22946 0.0
H22 H 0.33806 0.67563 0.42518 0.0
H23 H 0.0238 0.74444 0.26025 0.0
O24 O 0.16795 0.29074 0.39039 0.0
H25 H 0.07396 0.02285 0.25931 0.0
H26 H 0.04638 0.02522 0.40039 0.0
H27 H 0.09668 0.87911 0.37487 0.0
H28 H 0.1111 0.87721 0.30378 0.0
H29 H 0.02311 0.16765 0.28617 0.0
H30 H 0.8222 0.97014 0.3898 0.0
H31 H 0.84403 1.00243 0.46429 0.0
O32 O 0.08212 0.21548 0.41143 0.0
C33 C 0.01317 0.41199 0.41077 0.0
C34 C 0.92376 0.11019 0.46428 0.0
C35 C 0.86089 0.02392 0.40424 0.0
N36 N 0.94723 0.14526 0.39912 0.0
C37 C 0.96029 0.16165 0.4402 0.0
C38 C 0.89863 0.07661 0.38113 0.0
C39 C 0.87337 0.04153 0.44604 0.0
C40 C 0.06389 0.50349 0.28217 0.0
N41 N 0.06816 0.50451 0.32311 0.0
C42 C 0.05253 0.59085 0.25985 0.0
C43 C 0.03432 0.67661 0.27769 0.0
C44 C 0.03141 0.67479 0.31846 0.0
C45 C 0.05077 0.58861 0.34117 0.0
C46 C 0.27016 0.61891 0.37045 0.0
C47 C 0.21962 0.49135 0.42079 0.0
C48 C 0.21825 0.54991 0.35449 0.0
N49 N 0.19244 0.48863 0.37963 0.0
C50 C 0.27284 0.55806 0.43768 0.0
C51 C 0.29726 0.62327 0.41238 0.0
C52 C 0.14627 0.23183 0.41387 0.0
C53 C 0.0661 0.02169 0.28994 0.0
C54 C 0.04953 0.02392 0.36889 0.0
C55 C 0.0791 0.94115 0.35479 0.0
C56 C 0.08729 0.94014 0.31497 0.0
N57 N 0.02742 0.10317 0.34389 0.0
C58 C 0.03639 0.10302 0.30511 0.0
Co59 Co 0.38027 0.40607 0.6162 0.0
Co60 Co 0.50166 0.23488 0.60535 0.0
O61 O 0.45478 0.31369 0.63985 0.0
C62 C 0.31433 0.28508 0.66929 0.0
O63 O 0.32693 0.20708 0.64901 0.0
C64 C 0.61838 0.30191 0.67553 0.0
O65 O 0.59051 0.39066 0.67275 0.0
O66 O 0.52854 0.36062 0.58166 0.0
O67 O 0.42516 0.43807 0.57038 0.0
H68 H 0.56632 0.14833 0.47417 0.0
H69 H 0.42265 0.44902 0.70568 0.0
O70 O 0.33175 0.37114 0.65993 0.0
H71 H 0.47906 0.75015 0.63807 0.0
H72 H 0.21949 0.68791 0.62481 0.0
H73 H 0.2949 0.4519 0.53234 0.0
H74 H 0.44368 0.59916 0.59842 0.0
H75 H 0.30097 0.55443 0.65216 0.0
O76 O 0.58958 0.23372 0.65093 0.0
H77 H 0.50397 0.23972 0.51765 0.0
H78 H 0.60549 0.07002 0.62049 0.0
H79 H 0.20738 0.58082 0.504 0.0
H80 H 0.43424 0.60596 0.74191 0.0
H81 H 0.17505 0.70512 0.55034 0.0
H82 H 0.47054 0.75739 0.71026 0.0
O83 O 0.3294 0.29886 0.58237 0.0
H84 H 0.42637 0.02601 0.71041 0.0
H85 H 0.44982 0.03935 0.56857 0.0
H86 H 0.39936 0.89114 0.59257 0.0
H87 H 0.38666 0.8841 0.66394 0.0
H88 H 0.4771 0.17302 0.68497 0.0
H89 H 0.67012 0.97831 0.57822 0.0
H90 H 0.65049 0.0172 0.50443 0.0
O91 O 0.41572 0.22875 0.55996 0.0
C92 C 0.48388 0.42258 0.56202 0.0
C93 C 0.57528 0.13076 0.50627 0.0
C94 C 0.63363 0.03546 0.56468 0.0
N95 N 0.55082 0.16031 0.57162 0.0
C96 C 0.53992 0.18209 0.53106 0.0
C97 C 0.59717 0.08815 0.58853 0.0
C98 C 0.62251 0.05711 0.52328 0.0
C99 C 0.4336 0.5146 0.69011 0.0
N100 N 0.43024 0.51356 0.64924 0.0
C101 C 0.44314 0.60341 0.71167 0.0
C102 C 0.46124 0.68847 0.69338 0.0
C103 C 0.46576 0.6845 0.65291 0.0
C104 C 0.44781 0.5969 0.63081 0.0
C105 C 0.23511 0.63589 0.60432 0.0
C106 C 0.27808 0.50305 0.5527 0.0
C107 C 0.28188 0.56026 0.61956 0.0
N108 N 0.30528 0.49771 0.59379 0.0
C109 C 0.22928 0.57618 0.53645 0.0
C110 C 0.20976 0.64492 0.56245 0.0
C111 C 0.35139 0.24155 0.55835 0.0
C112 C 0.43315 0.02729 0.67954 0.0
C113 C 0.44729 0.03564 0.60015 0.0
C114 C 0.41772 0.95175 0.61341 0.0
C115 C 0.41061 0.94779 0.65342 0.0
N116 N 0.47038 0.11304 0.62615 0.0
C117 C 0.46279 0.1098 0.66519 0.0
Co118 Co 0.879 0.60756 0.61614 0.0
Co119 Co 0.00016 0.78157 0.60579 0.0
O120 O 0.95351 0.70046 0.63997 0.0
C121 C 0.81101 0.73233 0.66721 0.0
O122 O 0.823 0.80862 0.64589 0.0
C123 C 0.12083 0.71459 0.67406 0.0
O124 O 0.09806 0.62299 0.66838 0.0
O125 O 0.0276 0.65726 0.58104 0.0
O126 O 0.9269 0.57249 0.57199 0.0
H127 H 0.06387 0.87595 0.47522 0.0
H128 H 0.91775 0.56942 0.70601 0.0
O129 O 0.82847 0.64546 0.65873 0.0
H130 H 0.97474 0.26297 0.64188 0.0
H131 H 0.70607 0.3374 0.62163 0.0
H132 H 0.79873 0.56002 0.53164 0.0
H133 H 0.94194 0.41217 0.60086 0.0
H134 H 0.79553 0.46085 0.65057 0.0
O135 O 0.08771 0.78381 0.65189 0.0
H136 H -0.00066 0.78541 0.51757 0.0
H137 H 0.10591 0.94488 0.62255 0.0
H138 H 0.70466 0.44151 0.50188 0.0
H139 H 0.92721 0.41473 0.74349 0.0
H140 H 0.66045 0.32662 0.54672 0.0
H141 H 0.96357 0.26053 0.71364 0.0
O142 O 0.82893 0.7129 0.5812 0.0
H143 H 0.91876 0.98533 0.71038 0.0
H144 H 0.94865 0.97731 0.56981 0.0
H145 H 0.89616 0.12363 0.59377 0.0
H146 H 0.88022 0.12805 0.66452 0.0
H147 H 0.97291 0.84082 0.68534 0.0
H148 H 0.17287 0.03553 0.58138 0.0
H149 H 0.15247 1.00016 0.50718 0.0
O150 O 0.91501 0.78681 0.56009 0.0
C151 C 0.98473 0.59067 0.5628 0.0
C152 C 0.07358 0.89129 0.50757 0.0
C153 C 0.13483 0.98068 0.56716 0.0
N154 N 0.0493 0.85844 0.57271 0.0
C155 C 0.03704 0.84031 0.53177 0.0
C156 C 0.0971 0.92841 0.5904 0.0
C157 C 0.12316 0.96132 0.52552 0.0
C158 C 0.92884 0.50265 0.69118 0.0
N159 N 0.92709 0.50119 0.6505 0.0
C160 C 0.93726 0.41514 0.71351 0.0
C161 C 0.95539 0.32853 0.6962 0.0
C162 C 0.96134 0.32981 0.65597 0.0
C163 C 0.94479 0.41634 0.63307 0.0
C164 C 0.72594 0.38611 0.6017 0.0
C165 C 0.7786 0.51142 0.55153 0.0
C166 C 0.7771 0.45604 0.61786 0.0
N167 N 0.80408 0.51605 0.59282 0.0
C168 C 0.72611 0.44387 0.53441 0.0
C169 C 0.70065 0.37973 0.55967 0.0
C170 C 0.85085 0.77096 0.55758 0.0
C171 C 0.9271 0.98525 0.67985 0.0
C172 C 0.94497 0.97993 0.6012 0.0
C173 C 0.91412 0.06274 0.61441 0.0
C174 C 0.90512 0.06518 0.65404 0.0
N175 N 0.96766 0.90218 0.62694 0.0
C176 C 0.95841 0.90401 0.66566 0.0
Co177 Co 0.61772 0.60036 0.35427 0.0
Co178 Co 0.49597 0.76993 0.36617 0.0
O179 O 0.54273 0.69264 0.33098 0.0
C180 C 0.68332 0.72421 0.3019 0.0
O181 O 0.6702 0.80107 0.32263 0.0
C182 C 0.3781 0.70679 0.29577 0.0
O183 O 0.4042 0.61694 0.29826 0.0
O184 O 0.46886 0.64288 0.38876 0.0
O185 O 0.57263 0.5665 0.39985 0.0
H186 H 0.43149 0.8502 0.49803 0.0
H187 H 0.5776 0.55717 0.26458 0.0
O188 O 0.66637 0.63743 0.31075 0.0
H189 H 0.52143 0.25516 0.33168 0.0
H190 H 0.78049 0.32107 0.3455 0.0
H191 H 0.70243 0.55358 0.43814 0.0
H192 H 0.5539 0.40672 0.37125 0.0
H193 H 0.69865 0.45412 0.31818 0.0
O194 O 0.40824 0.77375 0.32054 0.0
H195 H 0.49335 0.76063 0.4538 0.0
H196 H 0.39285 0.93568 0.35241 0.0
H197 H 0.79078 0.42584 0.46641 0.0
H198 H 0.56927 0.39965 0.22877 0.0
H199 H 0.82458 0.30319 0.4199 0.0
H200 H 0.5332 0.24775 0.26009 0.0
O201 O 0.66807 0.70718 0.38847 0.0
H202 H 0.57336 0.98366 0.26337 0.0
H203 H 0.54873 0.96321 0.40482 0.0
H204 H 0.60089 0.11194 0.3824 0.0
H205 H 0.6145 0.12226 0.31129 0.0
H206 H 0.51971 0.83653 0.287 0.0
H207 H 0.32873 0.02567 0.39542 0.0
H208 H 0.34816 0.98332 0.46888 0.0
O209 O 0.5817 0.77394 0.41171 0.0
C210 C 0.51372 0.58079 0.40816 0.0
C211 C 0.42262 0.86933 0.46608 0.0
C212 C 0.36487 0.96768 0.40849 0.0
N213 N 0.44695 0.84275 0.40049 0.0
C214 C 0.4577 0.819 0.44086 0.0
C215 C 0.40101 0.91593 0.3842 0.0
C216 C 0.37586 0.94405 0.4497 0.0
C217 C 0.56668 0.49148 0.28007 0.0
N218 N 0.56855 0.49274 0.32078 0.0
C219 C 0.55906 0.40231 0.25872 0.0
C220 C 0.54103 0.31694 0.27683 0.0
C221 C 0.53468 0.32103 0.31695 0.0
C222 C 0.55093 0.40906 0.33899 0.0
C223 C 0.76442 0.37251 0.366 0.0
C224 C 0.7199 0.50334 0.41772 0.0
C225 C 0.71731 0.44775 0.35079 0.0
N226 N 0.69314 0.50926 0.37658 0.0
C227 C 0.76917 0.43079 0.43393 0.0
C228 C 0.78951 0.36304 0.40786 0.0
C229 C 0.64601 0.76282 0.41297 0.0
C230 C 0.56621 0.98084 0.29414 0.0
C231 C 0.55144 0.96856 0.37331 0.0
C232 C 0.58202 0.05268 0.36096 0.0
C233 C 0.58962 0.0585 0.32109 0.0
N234 N 0.52771 0.89284 0.34652 0.0
C235 C 0.53518 0.89822 0.30751 0.0
Co236 Co 0.61963 0.9143 0.85508 0.0
Co237 Co 0.49962 0.73673 0.86411 0.0
O238 O 0.54594 0.82063 0.83066 0.0
C239 C 0.68878 0.79138 0.80417 0.0
O240 O 0.67637 0.7148 0.82519 0.0
C241 C 0.37844 0.80527 0.79635 0.0
O242 O 0.40084 0.89696 0.8025 0.0
O243 O 0.47147 0.85894 0.89003 0.0
O244 O 0.57069 0.94737 0.89897 0.0
H245 H 0.43688 0.63264 -0.00617 0.0
H246 H 0.58127 0.95278 0.76527 0.0
O247 O 0.6712 0.87812 0.81276 0.0
H248 H 0.52255 0.25807 0.82951 0.0
H249 H 0.79028 0.18881 0.85142 0.0
H250 H 0.69811 0.96147 0.93992 0.0
H251 H 0.55541 0.10849 0.87039 0.0
H252 H 0.70272 0.06348 0.82161 0.0
O253 O 0.412 0.73563 0.81806 0.0
H254 H 0.50078 0.72712 0.95228 0.0
H255 H 0.39481 0.57235 0.84588 0.0
H256 H 0.79019 0.08213 0.9706 0.0
H257 H 0.57092 0.1077 0.72781 0.0
H258 H 0.83422 0.19904 0.92644 0.0
H259 H 0.53412 0.2613 0.75785 0.0
O260 O 0.67026 0.80942 0.89 0.0
H261 H 0.58075 0.54025 0.75735 0.0
H262 H 0.55255 0.54003 0.89832 0.0
H263 H 0.60529 0.39592 0.87291 0.0
H264 H 0.62017 0.39547 0.80193 0.0
H265 H 0.52669 0.68262 0.7839 0.0
H266 H 0.32852 0.47767 0.88625 0.0
H267 H 0.34892 0.5088 0.96075 0.0
O268 O 0.58473 0.73028 0.90973 0.0
C269 C 0.51337 0.92658 0.90832 0.0
C270 C 0.42712 0.61925 0.96133 0.0
C271 C 0.36624 0.53244 0.90095 0.0
N272 N 0.45096 0.65683 0.89648 0.0
C273 C 0.46328 0.67251 0.93759 0.0
C274 C 0.40357 0.58699 0.87817 0.0
C275 C 0.37792 0.54939 0.94275 0.0
C276 C 0.56977 0.01931 0.78011 0.0
N277 N 0.57117 0.02038 0.82074 0.0
C278 C 0.56107 0.10695 0.75785 0.0
C279 C 0.54253 0.19322 0.77523 0.0
C280 C 0.53631 0.19148 0.81541 0.0
C281 C 0.55291 0.10481 0.8382 0.0
C282 C 0.77058 0.13896 0.87101 0.0
C283 C 0.71817 0.01107 0.92037 0.0
C284 C 0.7205 0.06799 0.85436 0.0
N285 N 0.69357 1.00673 0.87899 0.0
C286 C 0.76956 0.07973 0.93798 0.0
C287 C 0.7949 0.14509 0.91312 0.0
C288 C 0.64871 0.74866 0.91278 0.0
C289 C 0.57289 0.53855 0.78798 0.0
C290 C 0.55596 0.53926 0.86686 0.0
C291 C 0.5869 0.45767 0.85282 0.0
C292 C 0.59534 0.45748 0.81306 0.0
N293 N 0.53272 0.61807 0.84183 0.0
C294 C 0.54161 0.61858 0.80302 0.0
Co295 Co 0.88133 0.90536 0.11693 0.0
Co296 Co 0.00396 0.73914 0.10368 0.0
O297 O 0.95721 0.81406 0.13956 0.0
C298 C 0.8169 0.77949 0.1694 0.0
O299 O 0.82955 0.70294 0.14835 0.0
C300 C 0.12174 0.8015 0.17422 0.0
O301 O 0.09519 0.89103 0.17213 0.0
O302 O 0.02995 0.86771 0.08177 0.0
O303 O 0.9253 0.9414 0.07112 0.0
H304 H 0.06702 0.66536 0.97084 0.0
H305 H 0.92181 0.94802 0.20671 0.0
O306 O 0.83381 0.86641 0.16071 0.0
H307 H 0.97673 0.25119 0.13992 0.0
H308 H 0.71552 0.17928 0.12757 0.0
H309 H 0.79458 0.9519 0.03349 0.0
H310 H 0.94388 0.10033 0.10009 0.0
H311 H 0.80017 0.04906 0.154 0.0
O312 O 0.09194 0.73493 0.14913 0.0
H313 H 0.00519 0.75185 0.01589 0.0
H314 H 0.10865 0.57548 0.11615 0.0
H315 H 0.70335 0.07636 0.00616 0.0
H316 H 0.92952 0.10512 0.24266 0.0
H317 H 0.66905 0.19687 0.05339 0.0
H318 H 0.96536 0.25768 0.21162 0.0
O319 O 0.83151 0.79821 0.08267 0.0
H320 H 0.9272 0.52028 0.20505 0.0
H321 H 0.95266 0.54635 0.06393 0.0
H322 H 0.90101 0.39607 0.08541 0.0
H323 H 0.88679 0.38308 0.15634 0.0
H324 H 0.98047 0.669 0.18236 0.0
H325 H 0.17301 0.48902 0.07236 0.0
H326 H 0.15205 0.53351 -0.00097 0.0
O327 O 0.91794 0.73562 0.05834 0.0
C328 C 0.98431 0.92917 0.06266 0.0
C329 C 0.07653 0.64528 0.00272 0.0
C330 C 0.1361 0.54643 0.0597 0.0
N331 N 0.05303 0.66885 0.06869 0.0
C332 C 0.04144 0.6938 0.0284 0.0
C333 C 0.09984 0.59625 0.08444 0.0
C334 C 0.12426 0.57126 0.01857 0.0
C335 C 0.93238 0.01397 0.19126 0.0
N336 N 0.93007 0.01325 0.1505 0.0
C337 C 0.93989 0.10291 0.21277 0.0
C338 C 0.95762 0.18863 0.19477 0.0
C339 C 0.96365 0.18511 0.15458 0.0
C340 C 0.94723 0.09737 0.13237 0.0
C341 C 0.73187 0.12901 0.10675 0.0
C342 C 0.77696 1.00104 0.05423 0.0
C343 C 0.78061 0.05543 0.12146 0.0
N344 N 0.80489 0.99528 0.09526 0.0
C345 C 0.72602 0.0718 0.03854 0.0
C346 C 0.70535 0.13818 0.06499 0.0
C347 C 0.85363 0.74503 0.05743 0.0
C348 C 0.93465 0.5243 0.17437 0.0
C349 C 0.94991 0.53973 0.09539 0.0
C350 C 0.91956 0.45474 0.1072 0.0
C351 C 0.91165 0.4474 0.14696 0.0
N352 N 0.97315 0.61477 0.12261 0.0
C353 C 0.96551 0.60779 0.16154 0.0
Co354 Co 0.37903 0.11062 0.11517 0.0
Co355 Co 0.49906 0.28836 0.10662 0.0
O356 O 0.45282 0.20373 0.13973 0.0
C357 C 0.31055 0.23021 0.16758 0.0
O358 O 0.32262 0.30832 0.14727 0.0
C359 C 0.61775 0.21635 0.17508 0.0
O360 O 0.59131 0.12661 0.1702 0.0
O361 O 0.52618 0.16708 0.07965 0.0
O362 O 0.42669 0.07944 0.07055 0.0
H363 H 0.56043 0.39637 0.97702 0.0
H364 H 0.42031 0.07037 0.20465 0.0
O365 O 0.32848 0.14438 0.1582 0.0
H366 H 0.47972 0.76803 0.13873 0.0
H367 H 0.20908 0.8356 0.11926 0.0
H368 H 0.29791 0.06642 0.03051 0.0
H369 H 0.4425 0.91712 0.09822 0.0
H370 H 0.29806 0.95925 0.14879 0.0
O371 O 0.5874 0.28658 0.15227 0.0
H372 H 0.49649 0.30126 0.01837 0.0
H373 H 0.60521 0.45091 0.12546 0.0
H374 H 0.20453 0.94721 0.00018 0.0
H375 H 0.43482 0.91551 0.24203 0.0
H376 H 0.1622 0.82859 0.04437 0.0
H377 H 0.47242 0.76351 0.21116 0.0
O378 O 0.3279 0.21676 0.08113 0.0
H379 H 0.42079 0.4816 0.21534 0.0
H380 H 0.4477 0.48714 0.07413 0.0
H381 H 0.39696 0.63108 0.1009 0.0
H382 H 0.38306 0.62914 0.17208 0.0
H383 H 0.47176 0.33891 0.18719 0.0
H384 H 0.67164 0.54606 0.0853 0.0
H385 H 0.64991 0.51771 0.01055 0.0
O386 O 0.41324 0.29699 0.06148 0.0
C387 C 0.48382 0.10039 0.06104 0.0
C388 C 0.57077 0.40852 0.00962 0.0
C389 C 0.63325 0.49237 0.0704 0.0
N390 N 0.54762 0.36904 0.07447 0.0
C391 C 0.53456 0.35495 0.03324 0.0
C392 C 0.59583 0.43757 0.09304 0.0
C393 C 0.62082 0.47701 0.02845 0.0
C394 C 0.43185 1.0044 0.18946 0.0
N395 N 0.42843 1.0039 0.14859 0.0
C396 C 0.44312 0.91684 0.21167 0.0
C397 C 0.46195 0.83147 0.19382 0.0
C398 C 0.46574 0.8339 0.1532 0.0
C399 C 0.44662 0.92028 0.13058 0.0
C400 C 0.22814 0.88607 0.09959 0.0
C401 C 0.27864 0.01595 0.0501 0.0
C402 C 0.27897 0.95615 0.11608 0.0
N403 N 0.30484 0.01852 0.09136 0.0
C404 C 0.22652 0.94813 0.03267 0.0
C405 C 0.20213 0.8818 0.05757 0.0
C406 C 0.34927 0.27822 0.05849 0.0
C407 C 0.42842 0.48448 0.18467 0.0
C408 C 0.44464 0.48669 0.10565 0.0
C409 C 0.41485 0.56827 0.12047 0.0
C410 C 0.40692 0.56709 0.16034 0.0
N411 N 0.46714 0.40644 0.12998 0.0
C412 C 0.45824 0.40435 0.16878 0.0
Co413 Co 0.1156 0.11706 0.8554 0.0
Co414 Co 0.99344 0.28516 0.8676 0.0
O415 O 0.04027 0.20862 0.8324 0.0
C416 C 0.18015 0.23971 0.80201 0.0
O417 O 0.16789 0.31747 0.82254 0.0
C418 C 0.87689 0.21899 0.79721 0.0
O419 O 0.90531 0.13064 0.79951 0.0
O420 O 0.9677 0.15791 0.89067 0.0
O421 O 0.07196 0.08315 0.90153 0.0
H422 H 0.93043 0.36534 -0.00014 0.0
H423 H 0.07216 0.07477 0.76589 0.0
O424 O 0.16289 0.15353 0.81131 0.0
H425 H 0.01747 0.77242 0.83335 0.0
H426 H 0.27874 0.83968 0.84484 0.0
H427 H 0.20341 0.07172 0.93878 0.0
H428 H 0.05374 0.92265 0.87324 0.0
H429 H 0.19458 0.97056 0.81842 0.0
O430 O 0.90523 0.28667 0.82222 0.0
H431 H 0.99268 0.27704 0.95549 0.0
H432 H 0.88806 0.44802 0.85379 0.0
H433 H 0.29388 0.94603 0.96609 0.0
H434 H 0.06058 0.91836 0.72943 0.0
H435 H 0.32609 0.82321 0.91904 0.0
H436 H 0.02468 0.76628 0.76089 0.0
O437 O 0.16611 0.22463 0.88919 0.0
H438 H 0.06739 0.49927 0.76368 0.0
H439 H 0.04396 0.48026 0.90541 0.0
H440 H 0.09356 0.63018 0.88219 0.0
H441 H 0.10641 0.63995 0.8109 0.0
H442 H 0.01734 0.35056 0.78833 0.0
H443 H 0.82326 0.53627 0.89691 0.0
H444 H 0.84451 0.4952 0.97059 0.0
O445 O 0.07975 0.29084 0.91274 0.0
C446 C 0.01315 0.09664 0.91006 0.0
C447 C 0.92076 0.38387 0.96782 0.0
C448 C 0.86054 0.47967 0.91003 0.0
N449 N 0.9443 0.3573 0.90203 0.0
C450 C 0.95611 0.33435 0.94252 0.0
C451 C 0.89707 0.42889 0.88569 0.0
C452 C 0.87256 0.45681 0.95137 0.0
C453 C 0.06163 0.00892 0.78143 0.0
N454 N 0.06584 0.00933 0.82239 0.0
C455 C 0.05185 0.9204 0.75968 0.0
C456 C 0.03415 0.83499 0.77791 0.0
C457 C 0.03045 0.83831 0.81853 0.0
C458 C 0.04887 0.92555 0.8408 0.0
C459 C 0.26313 0.89085 0.86564 0.0
C460 C 0.22019 0.02149 0.91809 0.0
C461 C 0.21479 0.96493 0.85094 0.0
N462 N 0.19156 0.02644 0.87713 0.0
C463 C 0.27068 0.95009 0.93377 0.0
C464 C 0.29021 0.88237 0.90738 0.0
C465 C 0.14409 0.27968 0.91394 0.0
C466 C 0.06052 0.49676 0.79451 0.0
C467 C 0.04638 0.48522 0.87384 0.0
C468 C 0.07551 0.57007 0.86103 0.0
C469 C 0.08269 0.57558 0.82106 0.0
N470 N 0.02372 0.40844 0.84743 0.0
C471 C 0.03124 0.41329 0.80841 0.0
C472 C 0.95761 0.42021 0.47058 0.0
C473 C 0.00269 0.4606 0.44851 0.0
H474 H 0.91779 0.42698 0.52403 0.0
C475 C 0.04459 0.54166 0.4656 0.0
H476 H 0.92638 0.35625 0.45935 0.0
C477 C 0.04096 0.58129 0.50335 0.0
C478 C 0.99573 0.54115 0.52536 0.0
H479 H 0.08069 0.57469 0.4499 0.0
H480 H 0.07217 0.64522 0.5146 0.0
C481 C 0.95395 0.45991 0.50833 0.0
C482 C 0.55983 0.54959 0.48244 0.0
C483 C 0.50531 0.53929 0.44717 0.0
H484 H 0.595 0.52351 0.54693 0.0
C485 C 0.44453 0.49015 0.45005 0.0
H486 H 0.60716 0.58832 0.48105 0.0
C487 C 0.43807 0.45269 0.48764 0.0
C488 C 0.49252 0.46322 0.52292 0.0
H489 H 0.40282 0.47901 0.42316 0.0
H490 H 0.39075 0.41399 0.48905 0.0
C491 C 0.55335 0.51221 0.52003 0.0
C492 C 0.45537 0.9695 0.00656 0.0
C493 C 0.49483 0.05313 0.02314 0.0
H494 H 0.42993 0.86485 0.9579 0.0
C495 C 0.53747 0.09718 0.00036 0.0
H496 H 0.4211 0.93368 0.02278 0.0
C497 C 0.54123 0.05846 0.96246 0.0
C498 C 0.50189 0.97466 0.94594 0.0
H499 H 0.56664 0.16322 0.01111 0.0
H500 H 0.57555 0.09418 0.94625 0.0
C501 C 0.4591 0.93084 0.96867 0.0
C502 C 0.05436 0.01879 0.02097 0.0
C503 C 0.99237 0.97329 0.024 0.0
H504 H 0.10893 0.09428 0.98225 0.0
C505 C 0.93652 0.9687 -0.01084 0.0
H506 H 0.09717 0.02563 0.04757 0.0
C507 C 0.94283 0.00818 0.95189 0.0
C508 C 0.00487 0.05348 0.94883 0.0
H509 H 0.88825 0.93267 -0.00943 0.0
H510 H 0.90004 1.00123 0.92528 0.0
C511 C 0.06066 0.05831 0.98369 0.0
C512 C 0.72001 0.15929 0.23102 0.0
C513 C 0.68423 0.23617 0.20654 0.0
H514 H 0.80828 0.11636 0.27825 0.0
C515 C 0.71322 0.33214 0.21223 0.0
H516 H 0.69977 0.08438 0.22767 0.0
C517 C 0.77579 0.35057 0.24135 0.0
C518 C 0.81154 0.27374 0.26586 0.0
H519 H 0.68755 0.39355 0.19415 0.0
H520 H 0.79608 0.42544 0.24468 0.0
C521 C 0.78258 0.17774 0.26017 0.0
C522 C 0.71488 0.18576 0.71003 0.0
C523 C 0.68446 0.28073 0.7068 0.0
H524 H 0.79861 0.0919 0.74051 0.0
C525 C 0.7182 0.35512 0.73367 0.0
H526 H 0.69067 0.12631 0.69003 0.0
C527 C 0.78035 0.3352 0.76278 0.0
C528 C 0.81077 0.24023 0.76599 0.0
H529 H 0.69667 0.42912 0.73225 0.0
H530 H 0.80458 0.39464 0.78278 0.0
C531 C 0.77705 0.16587 0.73911 0.0
C532 C 0.21074 0.83622 0.71273 0.0
C533 C 0.18653 0.73793 0.70559 0.0
H534 H 0.28929 0.93448 0.74635 0.0
C535 C 0.22643 0.66219 0.72861 0.0
H536 H 0.18172 0.89688 0.69581 0.0
C537 C 0.28845 0.68388 0.75769 0.0
C538 C 0.31269 0.78215 0.76482 0.0
H539 H 0.20983 0.5857 0.72413 0.0
H540 H 0.31742 0.62318 0.7746 0.0
C541 C 0.27275 0.85794 0.74183 0.0
C542 C 0.27657 0.65775 0.23787 0.0
C543 C 0.31258 0.73094 0.26451 0.0
H544 H 0.18887 0.6219 0.189 0.0
C545 C 0.285 0.82771 0.26108 0.0
H546 H 0.2959 0.58248 0.23946 0.0
C547 C 0.22335 0.85047 0.23203 0.0
C548 C 0.18734 0.7773 0.20539 0.0
H549 H 0.31106 0.88637 0.28087 0.0
H550 H 0.20399 0.92572 0.23047 0.0
C551 C 0.21494 0.68054 0.2088 0.0
C552 C 0.26437 0.15861 0.22407 0.0
C553 C 0.27772 0.24188 0.20216 0.0
H554 H 0.22437 0.10415 0.27335 0.0
C555 C 0.26036 0.3365 0.21397 0.0
H556 H 0.27731 0.08469 0.21576 0.0
C557 C 0.23019 0.34766 0.24704 0.0
C558 C 0.21686 0.2644 0.26897 0.0
H559 H 0.2702 0.40215 0.19779 0.0
H560 H 0.21735 0.42163 0.25536 0.0
C561 C 0.23418 0.16977 0.25714 0.0
C562 C 0.26683 0.35663 0.72531 0.0
C563 C 0.27994 0.27344 0.70319 0.0
H564 H 0.22482 0.41134 0.77383 0.0
C565 C 0.26001 0.17917 0.71383 0.0
H566 H 0.28183 0.43025 0.71792 0.0
C567 C 0.22746 0.16832 0.7459 0.0
C568 C 0.21432 0.25152 0.76802 0.0
H569 H 0.26949 0.1136 0.69742 0.0
H570 H 0.21263 0.09462 0.75333 0.0
C571 C 0.23425 0.3458 0.75739 0.0
C572 C 0.73416 0.8578 0.74647 0.0
C573 C 0.72079 0.77652 0.76943 0.0
H574 H 0.77306 0.90757 0.69609 0.0
C575 C 0.73693 0.68059 0.75837 0.0
H576 H 0.72211 0.93263 0.75417 0.0
C577 C 0.76592 0.66618 0.72502 0.0
C578 C 0.77927 0.74744 0.70204 0.0
H579 H 0.72702 0.61638 0.77536 0.0
H580 H 0.77786 0.5913 0.71731 0.0
C581 C 0.76316 0.84339 0.7131 0.0
C582 C 0.76472 0.66973 0.21373 0.0
C583 C 0.78282 0.76521 0.20331 0.0
H584 H 0.7189 0.58188 0.25303 0.0
C585 C 0.76805 0.84707 0.2256 0.0
H586 H 0.77549 0.60514 0.19717 0.0
C587 C 0.73571 0.83372 0.25765 0.0
C588 C 0.71761 0.73825 0.26807 0.0
H589 H 0.78137 0.92164 0.21834 0.0
H590 H 0.7249 0.89834 0.27417 0.0
C591 C 0.73236 0.65639 0.24578 0.0
C592 C 0.31879 0.19426 0.48536 0.0
C593 C 0.30009 0.20562 0.52263 0.0
H594 H 0.28276 0.19271 0.42048 0.0
C595 C 0.22986 0.20037 0.52381 0.0
H596 H 0.3727 0.19704 0.48371 0.0
C597 C 0.17856 0.19702 0.48771 0.0
C598 C 0.19725 0.19953 0.45024 0.0
H599 H 0.21443 0.20717 0.5524 0.0
H600 H 0.12471 0.20233 0.48925 0.0
C601 C 0.26744 0.19189 0.44922 0.0
C602 C 0.81887 0.80572 0.48375 0.0
C603 C 0.80005 0.80318 0.52117 0.0
H604 H 0.78313 0.79638 0.41905 0.0
C605 C 0.72988 0.81127 0.52216 0.0
H606 H 0.87275 0.80018 0.48226 0.0
C607 C 0.67859 0.8093 0.48602 0.0
C608 C 0.69736 0.79807 0.44877 0.0
H609 H 0.71451 0.81062 0.55089 0.0
H610 H 0.62467 0.80686 0.48765 0.0
C611 C 0.76763 0.80298 0.44762 0.0
C612 C 0.82107 0.70605 0.98369 0.0
C613 C 0.80233 0.71252 0.02112 0.0
H614 H 0.78517 0.7117 0.91888 0.0
C615 C 0.73205 0.7065 0.02216 0.0
H616 H 0.87498 0.70956 0.9821 0.0
C617 C 0.68081 0.70715 -0.01398 0.0
C618 C 0.69963 0.71419 0.94869 0.0
H619 H 0.71657 0.70966 0.05083 0.0
H620 H 0.62693 0.7117 -0.01241 0.0
C621 C 0.76979 0.7075 0.94756 0.0
C622 C 0.22804 0.31908 0.02372 0.0
C623 C 0.29821 0.31266 0.02257 0.0
H624 H 0.12282 0.31629 -0.01079 0.0
C625 C 0.31692 0.31931 0.98519 0.0
H626 H 0.21274 0.31498 0.05242 0.0
C627 C 0.26562 0.31923 0.94905 0.0
C628 C 0.19538 0.31306 0.95014 0.0
H629 H 0.37078 0.31485 0.98359 0.0
H630 H 0.28104 0.31561 0.92037 0.0
C631 C 0.1767 0.32003 -0.01242 0.0
loop_
_geom_bond_atom_site_label_1
_geom_bond_atom_site_label_2
_geom_bond_distance
_geom_bond_site_symmetry_2
_ccdc_geom_bond_type
Co0 O2 2.143 . S
Co0 O8 2.074 . S
Co0 O11 2.093 . S
Co0 O24 2.097 . S
Co0 N41 2.151 . S
Co0 N49 2.214 . S
Co1 O2 2.157 1_655 S
Co1 O7 2.060 . S
Co1 O17 2.061 . S
Co1 O32 2.033 1_655 S
Co1 N36 2.147 . S
Co1 N57 2.255 1_655 S
O2 Co0 2.143 . S
O2 Co1 2.157 1_455 S
C3 O4 1.278 . S
C3 O11 1.224 . S
O4 C3 1.278 . S
C5 O6 1.245 . S
C5 O17 1.232 . S
O6 C5 1.245 . S
O7 Co1 2.060 . S
O7 C33 1.269 1_655 S
O8 Co0 2.074 . S
O8 C33 1.257 . S
H9 C34 0.930 . S
H10 C40 0.930 . S
O11 Co0 2.093 . S
O11 C3 1.224 . S
H12 C44 0.929 . S
H13 C46 0.930 . S
H14 C47 0.930 . S
H15 C45 0.929 . S
H16 C48 0.928 . S
O17 Co1 2.061 . S
O17 C5 1.232 . S
H18 C37 0.929 1_455 S
H19 C38 0.929 . S
H20 C50 0.931 . S
H21 C42 0.929 . S
H22 C51 0.930 . S
H23 C43 0.931 . S
O24 Co0 2.097 . S
O24 C52 1.214 . S
H25 C53 0.929 . S
H26 C54 0.929 . S
H27 C55 0.930 . S
H28 C56 0.929 . S
H29 C58 0.930 1_655 S
H30 C35 0.930 . S
H31 C39 0.930 . S
O32 Co1 2.033 1_455 S
O32 C52 1.234 . S
C33 O7 1.269 1_455 S
C33 O8 1.257 . S
C34 H9 0.930 . S
C34 C37 1.388 . S
C34 C39 1.418 1_545 S
C35 H30 0.930 . S
C35 C38 1.404 1_565 S
C35 C39 1.353 . S
N36 Co1 2.147 . S
N36 C37 1.397 . S
N36 C38 1.334 . S
C37 H18 0.929 1_655 S
C37 C34 1.388 . S
C37 N36 1.397 . S
C38 H19 0.929 . S
C38 C35 1.404 1_545 S
C38 N36 1.334 . S
C39 H31 0.930 . S
C39 C34 1.418 1_565 S
C39 C35 1.353 . S
C40 H10 0.930 . S
C40 N41 1.330 . S
C40 C42 1.446 . S
N41 Co0 2.151 . S
N41 C40 1.330 . S
N41 C45 1.418 . S
C42 H21 0.929 . S
C42 C40 1.446 . S
C42 C43 1.332 . S
C43 H23 0.931 . S
C43 C42 1.332 . S
C43 C44 1.267 . S
C44 H12 0.929 . S
C44 C43 1.267 . S
C44 C45 1.251 . S
C45 H15 0.929 . S
C45 N41 1.418 . S
C45 C44 1.251 . S
C46 H13 0.930 . S
C46 C48 1.406 . S
C46 C51 1.261 . S
C47 H14 0.930 . S
C47 N49 1.325 . S
C47 C50 1.357 . S
C48 H16 0.928 . S
C48 C46 1.406 . S
C48 N49 1.261 . S
N49 Co0 2.214 . S
N49 C47 1.325 . S
N49 C48 1.261 . S
C50 H20 0.931 . S
C50 C47 1.357 . S
C50 C51 1.312 . S
C51 H22 0.930 . S
C51 C46 1.261 . S
C51 C50 1.312 . S
C52 O24 1.214 . S
C52 O32 1.234 . S
C53 H25 0.929 . S
C53 C56 1.391 . S
C53 C58 1.391 1_565 S
C54 H26 0.929 . S
C54 C55 1.390 . S
C54 N57 1.391 1_565 S
C55 H27 0.930 . S
C55 C54 1.390 . S
C55 C56 1.392 . S
C56 H28 0.929 . S
C56 C53 1.391 . S
C56 C55 1.392 . S
N57 Co1 2.255 1_455 S
N57 C54 1.391 1_545 S
N57 C58 1.388 . S
C58 H29 0.930 1_455 S
C58 C53 1.391 1_545 S
C58 N57 1.388 . S
Co59 O61 2.143 . S
Co59 O67 2.074 . S
Co59 O70 2.093 . S
Co59 O83 2.097 . S
Co59 N100 2.151 . S
Co59 N108 2.214 . S
Co60 O61 2.160 . S
Co60 O66 2.058 . S
Co60 O76 2.057 . S
Co60 O91 2.037 . S
Co60 N95 2.145 . S
Co60 N116 2.257 . S
O61 Co59 2.143 . S
O61 Co60 2.160 . S
C62 O63 1.278 . S
C62 O70 1.224 . S
O63 C62 1.278 . S
C64 O65 1.245 . S
C64 O76 1.232 . S
O65 C64 1.245 . S
O66 Co60 2.058 . S
O66 C92 1.269 . S
O67 Co59 2.074 . S
O67 C92 1.257 . S
H68 C93 0.930 . S
H69 C99 0.930 . S
O70 Co59 2.093 . S
O70 C62 1.224 . S
H71 C103 0.929 . S
H72 C105 0.930 . S
H73 C106 0.930 . S
H74 C104 0.929 . S
H75 C107 0.928 . S
O76 Co60 2.057 . S
O76 C64 1.232 . S
H77 C96 0.929 . S
H78 C97 0.929 . S
H79 C109 0.931 . S
H80 C101 0.929 . S
H81 C110 0.930 . S
H82 C102 0.931 . S
O83 Co59 2.097 . S
O83 C111 1.214 . S
H84 C112 0.929 . S
H85 C113 0.929 . S
H86 C114 0.930 . S
H87 C115 0.929 . S
H88 C117 0.930 . S
H89 C94 0.930 . S
H90 C98 0.930 . S
O91 Co60 2.037 . S
O91 C111 1.234 . S
C92 O66 1.269 . S
C92 O67 1.257 . S
C93 H68 0.930 . S
C93 C96 1.388 . S
C93 C98 1.418 1_545 S
C94 H89 0.930 . S
C94 C97 1.404 1_565 S
C94 C98 1.353 . S
N95 Co60 2.145 . S
N95 C96 1.397 . S
N95 C97 1.334 . S
C96 H77 0.929 . S
C96 C93 1.388 . S
C96 N95 1.397 . S
C97 H78 0.929 . S
C97 C94 1.404 1_545 S
C97 N95 1.334 . S
C98 H90 0.930 . S
C98 C93 1.418 1_565 S
C98 C94 1.353 . S
C99 H69 0.930 . S
C99 N100 1.330 . S
C99 C101 1.446 . S
N100 Co59 2.151 . S
N100 C99 1.330 . S
N100 C104 1.418 . S
C101 H80 0.929 . S
C101 C99 1.446 . S
C101 C102 1.332 . S
C102 H82 0.931 . S
C102 C101 1.332 . S
C102 C103 1.267 . S
C103 H71 0.929 . S
C103 C102 1.267 . S
C103 C104 1.251 . S
C104 H74 0.929 . S
C104 N100 1.418 . S
C104 C103 1.251 . S
C105 H72 0.930 . S
C105 C107 1.406 . S
C105 C110 1.261 . S
C106 H73 0.930 . S
C106 N108 1.325 . S
C106 C109 1.357 . S
C107 H75 0.928 . S
C107 C105 1.406 . S
C107 N108 1.261 . S
N108 Co59 2.214 . S
N108 C106 1.325 . S
N108 C107 1.261 . S
C109 H79 0.931 . S
C109 C106 1.357 . S
C109 C110 1.312 . S
C110 H81 0.930 . S
C110 C105 1.261 . S
C110 C109 1.312 . S
C111 O83 1.214 . S
C111 O91 1.234 . S
C112 H84 0.929 . S
C112 C115 1.391 . S
C112 C117 1.391 1_565 S
C113 H85 0.929 . S
C113 C114 1.390 . S
C113 N116 1.391 1_565 S
C114 H86 0.930 . S
C114 C113 1.390 . S
C114 C115 1.392 . S
C115 H87 0.929 . S
C115 C112 1.391 . S
C115 C114 1.392 . S
N116 Co60 2.257 . S
N116 C113 1.391 1_545 S
N116 C117 1.388 . S
C117 H88 0.930 . S
C117 C112 1.391 1_545 S
C117 N116 1.388 . S
Co118 O120 2.143 . S
Co118 O126 2.074 . S
Co118 O129 2.093 . S
Co118 O142 2.097 . S
Co118 N159 2.151 . S
Co118 N167 2.214 . S
Co119 O120 2.157 1_455 S
Co119 O125 2.060 . S
Co119 O135 2.061 . S
Co119 O150 2.033 1_455 S
Co119 N154 2.147 . S
Co119 N175 2.255 1_455 S
O120 Co118 2.143 . S
O120 Co119 2.157 1_655 S
C121 O122 1.278 . S
C121 O129 1.224 . S
O122 C121 1.278 . S
C123 O124 1.245 . S
C123 O135 1.232 . S
O124 C123 1.245 . S
O125 Co119 2.060 . S
O125 C151 1.269 1_455 S
O126 Co118 2.074 . S
O126 C151 1.257 . S
H127 C152 0.930 . S
H128 C158 0.930 . S
O129 Co118 2.093 . S
O129 C121 1.224 . S
H130 C162 0.929 . S
H131 C164 0.930 . S
H132 C165 0.930 . S
H133 C163 0.929 . S
H134 C166 0.928 . S
O135 Co119 2.061 . S
O135 C123 1.232 . S
H136 C155 0.929 1_655 S
H137 C156 0.929 . S
H138 C168 0.931 . S
H139 C160 0.929 . S
H140 C169 0.930 . S
H141 C161 0.931 . S
O142 Co118 2.097 . S
O142 C170 1.214 . S
H143 C171 0.929 . S
H144 C172 0.929 . S
H145 C173 0.930 . S
H146 C174 0.929 . S
H147 C176 0.930 1_455 S
H148 C153 0.930 . S
H149 C157 0.930 . S
O150 Co119 2.033 1_655 S
O150 C170 1.234 . S
C151 O125 1.269 1_655 S
C151 O126 1.257 . S
C152 H127 0.930 . S
C152 C155 1.388 . S
C152 C157 1.418 1_565 S
C153 H148 0.930 . S
C153 C156 1.404 1_545 S
C153 C157 1.353 . S
N154 Co119 2.147 . S
N154 C155 1.397 . S
N154 C156 1.334 . S
C155 H136 0.929 1_455 S
C155 C152 1.388 . S
C155 N154 1.397 . S
C156 H137 0.929 . S
C156 C153 1.404 1_565 S
C156 N154 1.334 . S
C157 H149 0.930 . S
C157 C152 1.418 1_545 S
C157 C153 1.353 . S
C158 H128 0.930 . S
C158 N159 1.330 . S
C158 C160 1.446 . S
N159 Co118 2.151 . S
N159 C158 1.330 . S
N159 C163 1.418 . S
C160 H139 0.929 . S
C160 C158 1.446 . S
C160 C161 1.332 . S
C161 H141 0.931 . S
C161 C160 1.332 . S
C161 C162 1.267 . S
C162 H130 0.929 . S
C162 C161 1.267 . S
C162 C163 1.251 . S
C163 H133 0.929 . S
C163 N159 1.418 . S
C163 C162 1.251 . S
C164 H131 0.930 . S
C164 C166 1.406 . S
C164 C169 1.261 . S
C165 H132 0.930 . S
C165 N167 1.325 . S
C165 C168 1.357 . S
C166 H134 0.928 . S
C166 C164 1.406 . S
C166 N167 1.261 . S
N167 Co118 2.214 . S
N167 C165 1.325 . S
N167 C166 1.261 . S
C168 H138 0.931 . S
C168 C165 1.357 . S
C168 C169 1.312 . S
C169 H140 0.930 . S
C169 C164 1.261 . S
C169 C168 1.312 . S
C170 O142 1.214 . S
C170 O150 1.234 . S
C171 H143 0.929 . S
C171 C174 1.391 . S
C171 C176 1.391 1_545 S
C172 H144 0.929 . S
C172 C173 1.390 . S
C172 N175 1.391 1_545 S
C173 H145 0.930 . S
C173 C172 1.390 . S
C173 C174 1.392 . S
C174 H146 0.929 . S
C174 C171 1.391 . S
C174 C173 1.392 . S
N175 Co119 2.255 1_655 S
N175 C172 1.391 1_565 S
N175 C176 1.388 . S
C176 H147 0.930 1_655 S
C176 C171 1.391 1_565 S
C176 N175 1.388 . S
Co177 O179 2.143 . S
Co177 O185 2.074 . S
Co177 O188 2.093 . S
Co177 O201 2.097 . S
Co177 N218 2.151 . S
Co177 N226 2.214 . S
Co178 O179 2.160 . S
Co178 O184 2.058 . S
Co178 O194 2.057 . S
Co178 O209 2.037 . S
Co178 N213 2.145 . S
Co178 N234 2.257 . S
O179 Co177 2.143 . S
O179 Co178 2.160 . S
C180 O181 1.278 . S
C180 O188 1.224 . S
O181 C180 1.278 . S
C182 O183 1.245 . S
C182 O194 1.232 . S
O183 C182 1.245 . S
O184 Co178 2.058 . S
O184 C210 1.269 . S
O185 Co177 2.074 . S
O185 C210 1.257 . S
H186 C211 0.930 . S
H187 C217 0.930 . S
O188 Co177 2.093 . S
O188 C180 1.224 . S
H189 C221 0.929 . S
H190 C223 0.930 . S
H191 C224 0.930 . S
H192 C222 0.929 . S
H193 C225 0.928 . S
O194 Co178 2.057 . S
O194 C182 1.232 . S
H195 C214 0.929 . S
H196 C215 0.929 . S
H197 C227 0.931 . S
H198 C219 0.929 . S
H199 C228 0.930 . S
H200 C220 0.931 . S
O201 Co177 2.097 . S
O201 C229 1.214 . S
H202 C230 0.929 . S
H203 C231 0.929 . S
H204 C232 0.930 . S
H205 C233 0.929 . S
H206 C235 0.930 . S
H207 C212 0.930 . S
H208 C216 0.930 . S
O209 Co178 2.037 . S
O209 C229 1.234 . S
C210 O184 1.269 . S
C210 O185 1.257 . S
C211 H186 0.930 . S
C211 C214 1.388 . S
C211 C216 1.418 1_565 S
C212 H207 0.930 . S
C212 C215 1.404 1_545 S
C212 C216 1.353 . S
N213 Co178 2.145 . S
N213 C214 1.397 . S
N213 C215 1.334 . S
C214 H195 0.929 . S
C214 C211 1.388 . S
C214 N213 1.397 . S
C215 H196 0.929 . S
C215 C212 1.404 1_565 S
C215 N213 1.334 . S
C216 H208 0.930 . S
C216 C211 1.418 1_545 S
C216 C212 1.353 . S
C217 H187 0.930 . S
C217 N218 1.330 . S
C217 C219 1.446 . S
N218 Co177 2.151 . S
N218 C217 1.330 . S
N218 C222 1.418 . S
C219 H198 0.929 . S
C219 C217 1.446 . S
C219 C220 1.332 . S
C220 H200 0.931 . S
C220 C219 1.332 . S
C220 C221 1.267 . S
C221 H189 0.929 . S
C221 C220 1.267 . S
C221 C222 1.251 . S
C222 H192 0.929 . S
C222 N218 1.418 . S
C222 C221 1.251 . S
C223 H190 0.930 . S
C223 C225 1.406 . S
C223 C228 1.261 . S
C224 H191 0.930 . S
C224 N226 1.325 . S
C224 C227 1.357 . S
C225 H193 0.928 . S
C225 C223 1.406 . S
C225 N226 1.261 . S
N226 Co177 2.214 . S
N226 C224 1.325 . S
N226 C225 1.261 . S
C227 H197 0.931 . S
C227 C224 1.357 . S
C227 C228 1.312 . S
C228 H199 0.930 . S
C228 C223 1.261 . S
C228 C227 1.312 . S
C229 O201 1.214 . S
C229 O209 1.234 . S
C230 H202 0.929 . S
C230 C233 1.391 . S
C230 C235 1.391 1_545 S
C231 H203 0.929 . S
C231 C232 1.390 . S
C231 N234 1.391 1_545 S
C232 H204 0.930 . S
C232 C231 1.390 . S
C232 C233 1.392 . S
C233 H205 0.929 . S
C233 C230 1.391 . S
C233 C232 1.392 . S
N234 Co178 2.257 . S
N234 C231 1.391 1_565 S
N234 C235 1.388 . S
C235 H206 0.930 . S
C235 C230 1.391 1_565 S
C235 N234 1.388 . S
Co236 O238 2.143 . S
Co236 O244 2.074 . S
Co236 O247 2.093 . S
Co236 O260 2.097 . S
Co236 N277 2.151 . S
Co236 N285 2.214 . S
Co237 O238 2.160 . S
Co237 O243 2.058 . S
Co237 O253 2.057 . S
Co237 O268 2.037 . S
Co237 N272 2.145 . S
Co237 N293 2.257 . S
O238 Co236 2.143 . S
O238 Co237 2.160 . S
C239 O240 1.278 . S
C239 O247 1.224 . S
O240 C239 1.278 . S
C241 O242 1.245 . S
C241 O253 1.232 . S
O242 C241 1.245 . S
O243 Co237 2.058 . S
O243 C269 1.269 . S
O244 Co236 2.074 . S
O244 C269 1.257 . S
H245 C270 0.930 . S
H246 C276 0.930 . S
O247 Co236 2.093 . S
O247 C239 1.224 . S
H248 C280 0.929 . S
H249 C282 0.930 . S
H250 C283 0.930 . S
H251 C281 0.929 . S
H252 C284 0.928 . S
O253 Co237 2.057 . S
O253 C241 1.232 . S
H254 C273 0.929 . S
H255 C274 0.929 . S
H256 C286 0.931 1_554 S
H257 C278 0.929 . S
H258 C287 0.930 . S
H259 C279 0.931 . S
O260 Co236 2.097 . S
O260 C288 1.214 . S
H261 C289 0.929 . S
H262 C290 0.929 . S
H263 C291 0.930 . S
H264 C292 0.929 . S
H265 C294 0.930 . S
H266 C271 0.930 . S
H267 C275 0.930 1_554 S
O268 Co237 2.037 . S
O268 C288 1.234 . S
C269 O243 1.269 . S
C269 O244 1.257 . S
C270 H245 0.930 . S
C270 C273 1.388 1_554 S
C270 C275 1.418 1_554 S
C271 H266 0.930 . S
C271 C274 1.404 . S
C271 C275 1.353 . S
N272 Co237 2.145 . S
N272 C273 1.397 . S
N272 C274 1.334 . S
C273 H254 0.929 . S
C273 C270 1.388 1_556 S
C273 N272 1.397 . S
C274 H255 0.929 . S
C274 C271 1.404 . S
C274 N272 1.334 . S
C275 H267 0.930 1_556 S
C275 C270 1.418 1_556 S
C275 C271 1.353 . S
C276 H246 0.930 . S
C276 N277 1.330 . S
C276 C278 1.446 1_565 S
N277 Co236 2.151 . S
N277 C276 1.330 . S
N277 C281 1.418 1_565 S
C278 H257 0.929 . S
C278 C276 1.446 1_545 S
C278 C279 1.332 . S
C279 H259 0.931 . S
C279 C278 1.332 . S
C279 C280 1.267 . S
C280 H248 0.929 . S
C280 C279 1.267 . S
C280 C281 1.251 . S
C281 H251 0.929 . S
C281 N277 1.418 1_545 S
C281 C280 1.251 . S
C282 H249 0.930 . S
C282 C284 1.406 . S
C282 C287 1.261 . S
C283 H250 0.930 . S
C283 N285 1.325 . S
C283 C286 1.357 1_565 S
C284 H252 0.928 . S
C284 C282 1.406 . S
C284 N285 1.261 1_545 S
N285 Co236 2.214 . S
N285 C283 1.325 . S
N285 C284 1.261 1_565 S
C286 H256 0.931 1_556 S
C286 C283 1.357 1_545 S
C286 C287 1.312 . S
C287 H258 0.930 . S
C287 C282 1.261 . S
C287 C286 1.312 . S
C288 O260 1.214 . S
C288 O268 1.234 . S
C289 H261 0.929 . S
C289 C292 1.391 . S
C289 C294 1.391 . S
C290 H262 0.929 . S
C290 C291 1.390 . S
C290 N293 1.391 . S
C291 H263 0.930 . S
C291 C290 1.390 . S
C291 C292 1.392 . S
C292 H264 0.929 . S
C292 C289 1.391 . S
C292 C291 1.392 . S
N293 Co237 2.257 . S
N293 C290 1.391 . S
N293 C294 1.388 . S
C294 H265 0.930 . S
C294 C289 1.391 . S
C294 N293 1.388 . S
Co295 O297 2.143 . S
Co295 O303 2.074 . S
Co295 O306 2.093 . S
Co295 O319 2.097 . S
Co295 N336 2.151 . S
Co295 N344 2.214 . S
Co296 O297 2.157 1_455 S
Co296 O302 2.060 . S
Co296 O312 2.061 . S
Co296 O327 2.033 1_455 S
Co296 N331 2.147 . S
Co296 N352 2.255 1_455 S
O297 Co295 2.143 . S
O297 Co296 2.157 1_655 S
C298 O299 1.278 . S
C298 O306 1.224 . S
O299 C298 1.278 . S
C300 O301 1.245 . S
C300 O312 1.232 . S
O301 C300 1.245 . S
O302 Co296 2.060 . S
O302 C328 1.269 1_455 S
O303 Co295 2.074 . S
O303 C328 1.257 . S
H304 C329 0.930 . S
H305 C335 0.930 . S
O306 Co295 2.093 . S
O306 C298 1.224 . S
H307 C339 0.929 . S
H308 C341 0.930 . S
H309 C342 0.930 . S
H310 C340 0.929 . S
H311 C343 0.928 . S
O312 Co296 2.061 . S
O312 C300 1.232 . S
H313 C332 0.929 1_655 S
H314 C333 0.929 . S
H315 C345 0.931 1_556 S
H316 C337 0.929 . S
H317 C346 0.930 . S
H318 C338 0.931 . S
O319 Co295 2.097 . S
O319 C347 1.214 . S
H320 C348 0.929 . S
H321 C349 0.929 . S
H322 C350 0.930 . S
H323 C351 0.929 . S
H324 C353 0.930 1_455 S
H325 C330 0.930 . S
H326 C334 0.930 1_556 S
O327 Co296 2.033 1_655 S
O327 C347 1.234 . S
C328 O302 1.269 1_655 S
C328 O303 1.257 . S
C329 H304 0.930 . S
C329 C332 1.388 1_556 S
C329 C334 1.418 1_556 S
C330 H325 0.930 . S
C330 C333 1.404 . S
C330 C334 1.353 . S
N331 Co296 2.147 . S
N331 C332 1.397 . S
N331 C333 1.334 . S
C332 H313 0.929 1_455 S
C332 C329 1.388 1_554 S
C332 N331 1.397 . S
C333 H314 0.929 . S
C333 C330 1.404 . S
C333 N331 1.334 . S
C334 H326 0.930 1_554 S
C334 C329 1.418 1_554 S
C334 C330 1.353 . S
C335 H305 0.930 . S
C335 N336 1.330 . S
C335 C337 1.446 1_565 S
N336 Co295 2.151 . S
N336 C335 1.330 . S
N336 C340 1.418 1_565 S
C337 H316 0.929 . S
C337 C335 1.446 1_545 S
C337 C338 1.332 . S
C338 H318 0.931 . S
C338 C337 1.332 . S
C338 C339 1.267 . S
C339 H307 0.929 . S
C339 C338 1.267 . S
C339 C340 1.251 . S
C340 H310 0.929 . S
C340 N336 1.418 1_545 S
C340 C339 1.251 . S
C341 H308 0.930 . S
C341 C343 1.406 . S
C341 C346 1.261 . S
C342 H309 0.930 . S
C342 N344 1.325 . S
C342 C345 1.357 1_565 S
C343 H311 0.928 . S
C343 C341 1.406 . S
C343 N344 1.261 1_545 S
N344 Co295 2.214 . S
N344 C342 1.325 . S
N344 C343 1.261 1_565 S
C345 H315 0.931 1_554 S
C345 C342 1.357 1_545 S
C345 C346 1.312 . S
C346 H317 0.930 . S
C346 C341 1.261 . S
C346 C345 1.312 . S
C347 O319 1.214 . S
C347 O327 1.234 . S
C348 H320 0.929 . S
C348 C351 1.391 . S
C348 C353 1.391 . S
C349 H321 0.929 . S
C349 C350 1.390 . S
C349 N352 1.391 . S
C350 H322 0.930 . S
C350 C349 1.390 . S
C350 C351 1.392 . S
C351 H323 0.929 . S
C351 C348 1.391 . S
C351 C350 1.392 . S
N352 Co296 2.255 1_655 S
N352 C349 1.391 . S
N352 C353 1.388 . S
C353 H324 0.930 1_655 S
C353 C348 1.391 . S
C353 N352 1.388 . S
Co354 O356 2.143 . S
Co354 O362 2.074 . S
Co354 O365 2.093 . S
Co354 O378 2.097 . S
Co354 N395 2.151 . S
Co354 N403 2.214 . S
Co355 O356 2.160 . S
Co355 O361 2.058 . S
Co355 O371 2.057 . S
Co355 O386 2.037 . S
Co355 N390 2.145 . S
Co355 N411 2.257 . S
O356 Co354 2.143 . S
O356 Co355 2.160 . S
C357 O358 1.278 . S
C357 O365 1.224 . S
O358 C357 1.278 . S
C359 O360 1.245 . S
C359 O371 1.232 . S
O360 C359 1.245 . S
O361 Co355 2.058 . S
O361 C387 1.269 . S
O362 Co354 2.074 . S
O362 C387 1.257 . S
H363 C388 0.930 . S
H364 C394 0.930 . S
O365 Co354 2.093 . S
O365 C357 1.224 . S
H366 C398 0.929 . S
H367 C400 0.930 . S
H368 C401 0.930 . S
H369 C399 0.929 . S
H370 C402 0.928 . S
O371 Co355 2.057 . S
O371 C359 1.232 . S
H372 C391 0.929 . S
H373 C392 0.929 . S
H374 C404 0.931 1_556 S
H375 C396 0.929 . S
H376 C405 0.930 . S
H377 C397 0.931 . S
O378 Co354 2.097 . S
O378 C406 1.214 . S
H379 C407 0.929 . S
H380 C408 0.929 . S
H381 C409 0.930 . S
H382 C410 0.929 . S
H383 C412 0.930 . S
H384 C389 0.930 . S
H385 C393 0.930 1_556 S
O386 Co355 2.037 . S
O386 C406 1.234 . S
C387 O361 1.269 . S
C387 O362 1.257 . S
C388 H363 0.930 . S
C388 C391 1.388 1_556 S
C388 C393 1.418 1_556 S
C389 H384 0.930 . S
C389 C392 1.404 . S
C389 C393 1.353 . S
N390 Co355 2.145 . S
N390 C391 1.397 . S
N390 C392 1.334 . S
C391 H372 0.929 . S
C391 C388 1.388 1_554 S
C391 N390 1.397 . S
C392 H373 0.929 . S
C392 C389 1.404 . S
C392 N390 1.334 . S
C393 H385 0.930 1_554 S
C393 C388 1.418 1_554 S
C393 C389 1.353 . S
C394 H364 0.930 . S
C394 N395 1.330 . S
C394 C396 1.446 1_545 S
N395 Co354 2.151 . S
N395 C394 1.330 . S
N395 C399 1.418 1_545 S
C396 H375 0.929 . S
C396 C394 1.446 1_565 S
C396 C397 1.332 . S
C397 H377 0.931 . S
C397 C396 1.332 . S
C397 C398 1.267 . S
C398 H366 0.929 . S
C398 C397 1.267 . S
C398 C399 1.251 . S
C399 H369 0.929 . S
C399 N395 1.418 1_565 S
C399 C398 1.251 . S
C400 H367 0.930 . S
C400 C402 1.406 . S
C400 C405 1.261 . S
C401 H368 0.930 . S
C401 N403 1.325 . S
C401 C404 1.357 1_545 S
C402 H370 0.928 . S
C402 C400 1.406 . S
C402 N403 1.261 1_565 S
N403 Co354 2.214 . S
N403 C401 1.325 . S
N403 C402 1.261 1_545 S
C404 H374 0.931 1_554 S
C404 C401 1.357 1_565 S
C404 C405 1.312 . S
C405 H376 0.930 . S
C405 C400 1.261 . S
C405 C404 1.312 . S
C406 O378 1.214 . S
C406 O386 1.234 . S
C407 H379 0.929 . S
C407 C410 1.391 . S
C407 C412 1.391 . S
C408 H380 0.929 . S
C408 C409 1.390 . S
C408 N411 1.391 . S
C409 H381 0.930 . S
C409 C408 1.390 . S
C409 C410 1.392 . S
C410 H382 0.929 . S
C410 C407 1.391 . S
C410 C409 1.392 . S
N411 Co355 2.257 . S
N411 C408 1.391 . S
N411 C412 1.388 . S
C412 H383 0.930 . S
C412 C407 1.391 . S
C412 N411 1.388 . S
Co413 O415 2.143 . S
Co413 O421 2.074 . S
Co413 O424 2.093 . S
Co413 O437 2.097 . S
Co413 N454 2.151 . S
Co413 N462 2.214 . S
Co414 O415 2.157 1_655 S
Co414 O420 2.060 . S
Co414 O430 2.061 . S
Co414 O445 2.033 1_655 S
Co414 N449 2.147 . S
Co414 N470 2.255 1_655 S
O415 Co413 2.143 . S
O415 Co414 2.157 1_455 S
C416 O417 1.278 . S
C416 O424 1.224 . S
O417 C416 1.278 . S
C418 O419 1.245 . S
C418 O430 1.232 . S
O419 C418 1.245 . S
O420 Co414 2.060 . S
O420 C446 1.269 1_655 S
O421 Co413 2.074 . S
O421 C446 1.257 . S
H422 C447 0.930 . S
H423 C453 0.930 . S
O424 Co413 2.093 . S
O424 C416 1.224 . S
H425 C457 0.929 . S
H426 C459 0.930 . S
H427 C460 0.930 . S
H428 C458 0.929 . S
H429 C461 0.928 . S
O430 Co414 2.061 . S
O430 C418 1.232 . S
H431 C450 0.929 1_455 S
H432 C451 0.929 . S
H433 C463 0.931 1_554 S
H434 C455 0.929 . S
H435 C464 0.930 . S
H436 C456 0.931 . S
O437 Co413 2.097 . S
O437 C465 1.214 . S
H438 C466 0.929 . S
H439 C467 0.929 . S
H440 C468 0.930 . S
H441 C469 0.929 . S
H442 C471 0.930 1_655 S
H443 C448 0.930 . S
H444 C452 0.930 1_554 S
O445 Co414 2.033 1_455 S
O445 C465 1.234 . S
C446 O420 1.269 1_455 S
C446 O421 1.257 . S
C447 H422 0.930 . S
C447 C450 1.388 1_554 S
C447 C452 1.418 1_554 S
C448 H443 0.930 . S
C448 C451 1.404 . S
C448 C452 1.353 . S
N449 Co414 2.147 . S
N449 C450 1.397 . S
N449 C451 1.334 . S
C450 H431 0.929 1_655 S
C450 C447 1.388 1_556 S
C450 N449 1.397 . S
C451 H432 0.929 . S
C451 C448 1.404 . S
C451 N449 1.334 . S
C452 H444 0.930 1_556 S
C452 C447 1.418 1_556 S
C452 C448 1.353 . S
C453 H423 0.930 . S
C453 N454 1.330 . S
C453 C455 1.446 1_545 S
N454 Co413 2.151 . S
N454 C453 1.330 . S
N454 C458 1.418 1_545 S
C455 H434 0.929 . S
C455 C453 1.446 1_565 S
C455 C456 1.332 . S
C456 H436 0.931 . S
C456 C455 1.332 . S
C456 C457 1.267 . S
C457 H425 0.929 . S
C457 C456 1.267 . S
C457 C458 1.251 . S
C458 H428 0.929 . S
C458 N454 1.418 1_565 S
C458 C457 1.251 . S
C459 H426 0.930 . S
C459 C461 1.406 . S
C459 C464 1.261 . S
C460 H427 0.930 . S
C460 N462 1.325 . S
C460 C463 1.357 1_545 S
C461 H429 0.928 . S
C461 C459 1.406 . S
C461 N462 1.261 1_565 S
N462 Co413 2.214 . S
N462 C460 1.325 . S
N462 C461 1.261 1_545 S
C463 H433 0.931 1_556 S
C463 C460 1.357 1_565 S
C463 C464 1.312 . S
C464 H435 0.930 . S
C464 C459 1.261 . S
C464 C463 1.312 . S
C465 O437 1.214 . S
C465 O445 1.234 . S
C466 H438 0.929 . S
C466 C469 1.391 . S
C466 C471 1.391 . S
C467 H439 0.929 . S
C467 C468 1.390 . S
C467 N470 1.391 . S
C468 H440 0.930 . S
C468 C467 1.390 . S
C468 C469 1.392 . S
C469 H441 0.929 . S
C469 C466 1.391 . S
C469 C468 1.392 . S
N470 Co414 2.255 1_455 S
N470 C467 1.391 . S
N470 C471 1.388 . S
C471 H442 0.930 1_455 S
C471 C466 1.391 . S
C471 N470 1.388 . S
C472 C473 1.387 1_655 S
C472 H476 0.950 . S
C472 C481 1.390 . S
C473 C472 1.387 1_455 S
C473 C475 1.387 . S
H474 C481 0.950 . S
C475 C473 1.387 . S
C475 C477 1.390 . S
C475 H479 0.950 . S
H476 C472 0.950 . S
C477 C475 1.390 . S
C477 C478 1.387 1_455 S
C477 H480 0.950 . S
C478 C477 1.387 1_655 S
C478 C481 1.387 . S
H479 C475 0.950 . S
H480 C477 0.950 . S
C481 C472 1.390 . S
C481 H474 0.950 . S
C481 C478 1.387 . S
C482 C483 1.387 . S
C482 H486 0.950 . S
C482 C491 1.390 . S
C483 C482 1.387 . S
C483 C485 1.387 . S
H484 C491 0.950 . S
C485 C483 1.387 . S
C485 C487 1.390 . S
C485 H489 0.950 . S
H486 C482 0.950 . S
C487 C485 1.390 . S
C487 C488 1.387 . S
C487 H490 0.950 . S
C488 C487 1.387 . S
C488 C491 1.387 . S
H489 C485 0.950 . S
H490 C487 0.950 . S
C491 C482 1.390 . S
C491 H484 0.950 . S
C491 C488 1.387 . S
C492 C493 1.387 1_565 S
C492 H496 0.950 . S
C492 C501 1.390 1_554 S
C493 C492 1.387 1_545 S
C493 C495 1.387 . S
H494 C501 0.950 . S
C495 C493 1.387 . S
C495 C497 1.390 1_554 S
C495 H499 0.950 . S
H496 C492 0.950 . S
C497 C495 1.390 1_556 S
C497 C498 1.387 1_545 S
C497 H500 0.950 . S
C498 C497 1.387 1_565 S
C498 C501 1.387 . S
H499 C495 0.950 . S
H500 C497 0.950 . S
C501 C492 1.390 1_556 S
C501 H494 0.950 . S
C501 C498 1.387 . S
C502 C503 1.387 1_445 S
C502 H506 0.950 . S
C502 C511 1.390 . S
C503 C502 1.387 1_665 S
C503 C505 1.387 1_554 S
H504 C511 0.950 . S
C505 C503 1.387 1_556 S
C505 C507 1.390 . S
C505 H509 0.950 . S
H506 C502 0.950 . S
C507 C505 1.390 . S
C507 C508 1.387 1_665 S
C507 H510 0.950 . S
C508 C507 1.387 1_445 S
C508 C511 1.387 1_556 S
H509 C505 0.950 . S
H510 C507 0.950 . S
C511 C502 1.390 . S
C511 H504 0.950 . S
C511 C508 1.387 1_554 S
C512 C513 1.387 . S
C512 H516 0.950 . S
C512 C521 1.390 . S
C513 C512 1.387 . S
C513 C515 1.387 . S
H514 C521 0.950 . S
C515 C513 1.387 . S
C515 C517 1.390 . S
C515 H519 0.950 . S
H516 C512 0.950 . S
C517 C515 1.390 . S
C517 C518 1.387 . S
C517 H520 0.950 . S
C518 C517 1.387 . S
C518 C521 1.387 . S
H519 C515 0.950 . S
H520 C517 0.950 . S
C521 C512 1.390 . S
C521 H514 0.950 . S
C521 C518 1.387 . S
C522 C523 1.387 . S
C522 H526 0.950 . S
C522 C531 1.390 . S
C523 C522 1.387 . S
C523 C525 1.387 . S
H524 C531 0.950 . S
C525 C523 1.387 . S
C525 C527 1.390 . S
C525 H529 0.950 . S
H526 C522 0.950 . S
C527 C525 1.390 . S
C527 C528 1.387 . S
C527 H530 0.950 . S
C528 C527 1.387 . S
C528 C531 1.387 . S
H529 C525 0.950 . S
H530 C527 0.950 . S
C531 C522 1.390 . S
C531 H524 0.950 . S
C531 C528 1.387 . S
C532 C533 1.387 . S
C532 H536 0.950 . S
C532 C541 1.390 . S
C533 C532 1.387 . S
C533 C535 1.387 . S
H534 C541 0.950 . S
C535 C533 1.387 . S
C535 C537 1.390 . S
C535 H539 0.950 . S
H536 C532 0.950 . S
C537 C535 1.390 . S
C537 C538 1.387 . S
C537 H540 0.950 . S
C538 C537 1.387 . S
C538 C541 1.387 . S
H539 C535 0.950 . S
H540 C537 0.950 . S
C541 C532 1.390 . S
C541 H534 0.950 . S
C541 C538 1.387 . S
C542 C543 1.387 . S
C542 H546 0.950 . S
C542 C551 1.390 . S
C543 C542 1.387 . S
C543 C545 1.387 . S
H544 C551 0.950 . S
C545 C543 1.387 . S
C545 C547 1.390 . S
C545 H549 0.950 . S
H546 C542 0.950 . S
C547 C545 1.390 . S
C547 C548 1.387 . S
C547 H550 0.950 . S
C548 C547 1.387 . S
C548 C551 1.387 . S
H549 C545 0.950 . S
H550 C547 0.950 . S
C551 C542 1.390 . S
C551 H544 0.950 . S
C551 C548 1.387 . S
C552 C553 1.387 . S
C552 H556 0.950 . S
C552 C561 1.390 . S
C553 C552 1.387 . S
C553 C555 1.387 . S
H554 C561 0.950 . S
C555 C553 1.387 . S
C555 C557 1.390 . S
C555 H559 0.950 . S
H556 C552 0.950 . S
C557 C555 1.390 . S
C557 C558 1.387 . S
C557 H560 0.950 . S
C558 C557 1.387 . S
C558 C561 1.387 . S
H559 C555 0.950 . S
H560 C557 0.950 . S
C561 C552 1.390 . S
C561 H554 0.950 . S
C561 C558 1.387 . S
C562 C563 1.387 . S
C562 H566 0.950 . S
C562 C571 1.390 . S
C563 C562 1.387 . S
C563 C565 1.387 . S
H564 C571 0.950 . S
C565 C563 1.387 . S
C565 C567 1.390 . S
C565 H569 0.950 . S
H566 C562 0.950 . S
C567 C565 1.390 . S
C567 C568 1.387 . S
C567 H570 0.950 . S
C568 C567 1.387 . S
C568 C571 1.387 . S
H569 C565 0.950 . S
H570 C567 0.950 . S
C571 C562 1.390 . S
C571 H564 0.950 . S
C571 C568 1.387 . S
C572 C573 1.387 . S
C572 H576 0.950 . S
C572 C581 1.390 . S
C573 C572 1.387 . S
C573 C575 1.387 . S
H574 C581 0.950 . S
C575 C573 1.387 . S
C575 C577 1.390 . S
C575 H579 0.950 . S
H576 C572 0.950 . S
C577 C575 1.390 . S
C577 C578 1.387 . S
C577 H580 0.950 . S
C578 C577 1.387 . S
C578 C581 1.387 . S
H579 C575 0.950 . S
H580 C577 0.950 . S
C581 C572 1.390 . S
C581 H574 0.950 . S
C581 C578 1.387 . S
C582 C583 1.387 . S
C582 H586 0.950 . S
C582 C591 1.390 . S
C583 C582 1.387 . S
C583 C585 1.387 . S
H584 C591 0.950 . S
C585 C583 1.387 . S
C585 C587 1.390 . S
C585 H589 0.950 . S
H586 C582 0.950 . S
C587 C585 1.390 . S
C587 C588 1.387 . S
C587 H590 0.950 . S
C588 C587 1.387 . S
C588 C591 1.387 . S
H589 C585 0.950 . S
H590 C587 0.950 . S
C591 C582 1.390 . S
C591 H584 0.950 . S
C591 C588 1.387 . S
C592 C593 1.387 . S
C592 H596 0.950 . S
C592 C601 1.390 . S
C593 C592 1.387 . S
C593 C595 1.387 . S
H594 C601 0.950 . S
C595 C593 1.387 . S
C595 C597 1.390 . S
C595 H599 0.950 . S
H596 C592 0.950 . S
C597 C595 1.390 . S
C597 C598 1.387 . S
C597 H600 0.950 . S
C598 C597 1.387 . S
C598 C601 1.387 . S
H599 C595 0.950 . S
H600 C597 0.950 . S
C601 C592 1.390 . S
C601 H594 0.950 . S
C601 C598 1.387 . S
C602 C603 1.387 . S
C602 H606 0.950 . S
C602 C611 1.390 . S
C603 C602 1.387 . S
C603 C605 1.387 . S
H604 C611 0.950 . S
C605 C603 1.387 . S
C605 C607 1.390 . S
C605 H609 0.950 . S
H606 C602 0.950 . S
C607 C605 1.390 . S
C607 C608 1.387 . S
C607 H610 0.950 . S
C608 C607 1.387 . S
C608 C611 1.387 . S
H609 C605 0.950 . S
H610 C607 0.950 . S
C611 C602 1.390 . S
C611 H604 0.950 . S
C611 C608 1.387 . S
C612 C613 1.387 . S
C612 H616 0.950 . S
C612 C621 1.390 1_554 S
C613 C612 1.387 . S
C613 C615 1.387 . S
H614 C621 0.950 . S
C615 C613 1.387 . S
C615 C617 1.390 1_554 S
C615 H619 0.950 . S
H616 C612 0.950 . S
C617 C615 1.390 1_556 S
C617 C618 1.387 . S
C617 H620 0.950 . S
C618 C617 1.387 . S
C618 C621 1.387 . S
H619 C615 0.950 . S
H620 C617 0.950 . S
C621 C612 1.390 1_556 S
C621 H614 0.950 . S
C621 C618 1.387 . S
C622 C623 1.387 . S
C622 H626 0.950 . S
C622 C631 1.390 1_554 S
C623 C622 1.387 . S
C623 C625 1.387 . S
H624 C631 0.950 . S
C625 C623 1.387 . S
C625 C627 1.390 1_554 S
C625 H629 0.950 . S
H626 C622 0.950 . S
C627 C625 1.390 1_556 S
C627 C628 1.387 . S
C627 H630 0.950 . S
C628 C627 1.387 . S
C628 C631 1.387 . S
H629 C625 0.950 . S
H630 C627 0.950 . S
C631 C622 1.390 1_556 S
C631 H624 0.950 . S
C631 C628 1.387 . S
C473 C33 1.530 . S
C478 C151 1.530 . S
C483 C210 1.529 . S
C488 C92 1.529 . S
C493 C387 1.530 . S
C498 C269 1.530 . S
C503 C328 1.529 . S
C508 C446 1.529 . S
C513 C359 1.719 . S
C518 C5 1.719 . S
C523 C64 1.719 . S
C528 C418 1.719 . S
C533 C123 1.718 . S
C538 C241 1.718 . S
C543 C182 1.717 . S
C548 C300 1.717 . S
C553 C357 1.506 . S
C558 C3 1.506 . S
C563 C62 1.509 . S
C568 C416 1.509 . S
C573 C239 1.509 . S
C578 C121 1.509 . S
C583 C298 1.506 . S
C588 C180 1.506 . S
C593 C111 1.015 . S
C598 C52 1.015 . S
C603 C170 1.017 . S
C608 C229 1.017 . S
C613 C347 1.017 . S
C618 C288 1.017 . S
C623 C406 1.017 . S
C628 C465 1.017 . S
