# Generated by pormake.
# Topology tfs, (6)-cn, num edge types: 1
# Building blocks:
#     Node 0, Type 0, BuildingBlock: BETDIP_clean_sbu_0, # of connection points: 6
#     Node 1, Type 0, BuildingBlock: BETDIP_clean_sbu_0, # of connection points: 6
#     Node 2, Type 0, BuildingBlock: BETDIP_clean_sbu_0, # of connection points: 6
#     Node 3, Type 0, BuildingBlock: BETDIP_clean_sbu_0, # of connection points: 6
#     Node 4, Type 0, BuildingBlock: BETDIP_clean_sbu_0, # of connection points: 6
#     Node 5, Type 0, BuildingBlock: BETDIP_clean_sbu_0, # of connection points: 6
#     Edge 6, Type (0, 0), BuildingBlock: EZIPEK_clean_linker_0, # of connection points: 2
#     Edge 7, Type (0, 0), BuildingBlock: EZIPEK_clean_linker_0, # of connection points: 2
#     Edge 8, Type (0, 0), BuildingBlock: EZIPEK_clean_linker_0, # of connection points: 2
#     Edge 9, Type (0, 0), BuildingBlock: EZIPEK_clean_linker_0, # of connection points: 2
#     Edge 10, Type (0, 0), BuildingBlock: EZIPEK_clean_linker_0, # of connection points: 2
#     Edge 11, Type (0, 0), BuildingBlock: EZIPEK_clean_linker_0, # of connection points: 2
#     Edge 12, Type (0, 0), BuildingBlock: EZIPEK_clean_linker_0, # of connection points: 2
#     Edge 13, Type (0, 0), BuildingBlock: EZIPEK_clean_linker_0, # of connection points: 2
#     Edge 14, Type (0, 0), BuildingBlock: EZIPEK_clean_linker_0, # of connection points: 2
#     Edge 15, Type (0, 0), BuildingBlock: EZIPEK_clean_linker_0, # of connection points: 2
#     Edge 16, Type (0, 0), BuildingBlock: EZIPEK_clean_linker_0, # of connection points: 2
#     Edge 17, Type (0, 0), BuildingBlock: EZIPEK_clean_linker_0, # of connection points: 2
#     Edge 18, Type (0, 0), BuildingBlock: EZIPEK_clean_linker_0, # of connection points: 2
#     Edge 19, Type (0, 0), BuildingBlock: EZIPEK_clean_linker_0, # of connection points: 2
#     Edge 20, Type (0, 0), BuildingBlock: EZIPEK_clean_linker_0, # of connection points: 2
#     Edge 21, Type (0, 0), BuildingBlock: EZIPEK_clean_linker_0, # of connection points: 2
#     Edge 22, Type (0, 0), BuildingBlock: EZIPEK_clean_linker_0, # of connection points: 2
#     Edge 23, Type (0, 0), BuildingBlock: EZIPEK_clean_linker_0, # of connection points: 2
# Relax obj value: 0.614
# Max RMSD: 0.306
# Mean RMSD: 0.306
data_MOF--net-tfs--node1-BETDIP_clean_sbu_0--edge1-EZIPEK_clean_linker_0
_symmetry_space_group_name_H-M    P1
_symmetry_Int_Tables_number       1
_symmetry_cell_setting            triclinic
loop_
_symmetry_equiv_pos_as_xyz
'x, y, z'
_cell_length_a     44.576285
_cell_length_b     44.376086
_cell_length_c     10.463192
_cell_angle_alpha  89.938273
_cell_angle_beta   89.993366
_cell_angle_gamma 120.16868
loop_
_atom_site_label
_atom_site_type_symbol
_atom_site_fract_x
_atom_site_fract_y
_atom_site_fract_z
_atom_type_partial_charge
Tb0 Tb 0.18513 0.44862 0.01706 0.0
Tb1 Tb 0.20943 0.39722 1.00471 0.0
C2 C 0.172 0.49567 0.07948 0.0
C3 C 0.18383 0.53282 0.06082 0.0
C4 C 0.16321 0.54578 0.10911 0.0
C5 C 0.17314 0.58079 0.09276 0.0
C6 C 0.20389 0.60343 0.02772 0.0
C7 C 0.22467 0.59054 0.97897 0.0
C8 C 0.21464 0.5553 0.99523 0.0
C9 C 0.18697 0.42664 0.782 0.0
C10 C 0.26673 0.47556 0.01177 0.0
C11 C 0.21917 0.34756 0.94757 0.0
C12 C 0.24186 0.33265 0.9706 0.0
C13 C 0.27688 0.34996 0.93261 0.0
C14 C 0.29653 0.33344 0.94417 0.0
C15 C 0.28148 0.29946 0.99362 0.0
C16 C 0.24676 0.28241 0.03345 0.0
C17 C 0.22713 0.29885 0.02184 0.0
C18 C 0.20885 0.41995 0.23746 0.0
C19 C 0.12905 0.372 0.01259 0.0
O20 O 0.19207 0.48789 0.14579 0.0
O21 O 0.15861 0.47554 0.9799 0.0
O22 O 0.20859 0.43307 0.8703 0.0
O23 O 0.16526 0.43587 0.82123 0.0
O24 O 0.24161 0.48314 0.02235 0.0
O25 O 0.26058 0.44338 0.99598 0.0
O26 O 0.19982 0.34671 0.04299 0.0
O27 O 0.23147 0.37638 0.88087 0.0
O28 O 0.1865 0.41309 0.15125 0.0
O29 O 0.23002 0.40993 0.19829 0.0
O30 O 0.1535 0.36681 0.96499 0.0
O31 O 0.13683 0.40205 0.06429 0.0
H32 H 0.13933 0.52876 0.15966 0.0
H33 H 0.15687 0.59031 0.13124 0.0
H34 H 0.24856 0.60773 0.92892 0.0
H35 H 0.23081 0.54563 0.95701 0.0
H36 H 0.28891 0.3759 0.89188 0.0
H37 H 0.32333 0.34694 0.91289 0.0
H38 H 0.23473 0.25618 0.07157 0.0
H39 H 0.20009 0.2848 0.05037 0.0
Tb40 Tb 0.73925 0.18796 0.99653 0.0
Tb41 Tb 0.81444 0.21286 0.96593 0.0
C42 C 0.6802 0.17296 0.07732 0.0
C43 C 0.65358 0.18267 0.05883 0.0
C44 C 0.61985 0.15979 0.10223 0.0
C45 C 0.59392 0.16837 0.08866 0.0
C46 C 0.60143 0.19998 0.0314 0.0
C47 C 0.63513 0.22284 0.98654 0.0
C48 C 0.66115 0.21418 1.00004 0.0
C49 C 0.75977 0.19326 0.75272 0.0
C50 C 0.79299 0.26978 0.98711 0.0
C51 C 0.87309 0.22326 0.89864 0.0
C52 C 0.91045 0.24578 0.92298 0.0
C53 C 0.9334 0.25599 0.82 0.0
C54 C 0.9691 0.27255 0.84083 0.0
C55 C 0.98304 0.27751 0.96589 0.0
C56 C 0.95971 0.27173 0.0676 0.0
C57 C 0.92385 0.25519 0.04685 0.0
C58 C 0.79414 0.21012 0.20615 0.0
C59 C 0.75998 0.13278 0.96985 0.0
O60 O 0.70927 0.19627 0.13066 0.0
O61 O 0.6852 0.15707 0.98158 0.0
O62 O 0.77628 0.2128 0.84459 0.0
O63 O 0.72879 0.17202 0.79375 0.0
O64 O 0.7615 0.2443 0.01768 0.0
O65 O 0.81799 0.2636 0.95212 0.0
O66 O 0.8546 0.20215 0.99078 0.0
O67 O 0.85692 0.23698 0.83955 0.0
O68 O 0.77777 0.18839 0.11883 0.0
O69 O 0.82423 0.23316 0.16196 0.0
O70 O 0.78744 0.15747 0.90957 0.0
O71 O 0.74037 0.14086 0.03861 0.0
H72 H 0.61364 0.13536 0.14757 0.0
H73 H 0.56804 0.15054 0.12388 0.0
H74 H 0.64127 0.24738 0.94243 0.0
H75 H 0.68709 0.23207 0.96578 0.0
H76 H 0.92368 0.25055 0.72283 0.0
H77 H 0.98533 0.28127 0.75681 0.0
H78 H 0.96842 0.27993 0.16406 0.0
H79 H 0.90664 0.2493 0.1279 0.0
Tb80 Tb 0.5502 0.73798 0.03117 0.0
Tb81 Tb 0.60172 0.81387 0.02286 0.0
C82 C 0.51322 0.67397 0.07898 0.0
C83 C 0.47647 0.64651 0.0632 0.0
C84 C 0.4512 0.64212 0.1536 0.0
C85 C 0.41691 0.61503 0.1405 0.0
C86 C 0.4074 0.59188 0.03725 0.0
C87 C 0.43236 0.5963 0.94632 0.0
C88 C 0.46664 0.62333 0.95936 0.0
C89 C 0.56106 0.7663 0.79972 0.0
C90 C 0.52016 0.78655 0.02504 0.0
C91 C 0.63445 0.87765 0.96604 0.0
C92 C 0.66505 0.91263 0.98617 0.0
C93 C 0.6899 0.92814 0.8884 0.0
C94 C 0.71269 0.96422 0.88711 0.0
C95 C 0.71048 0.98518 0.98266 0.0
C96 C 0.68799 0.96945 0.08629 0.0
C97 C 0.6655 0.93345 0.08836 0.0
C98 C 0.59095 0.78633 0.25506 0.0
C99 C 0.63147 0.76446 0.03092 0.0
O100 O 0.52023 0.69847 0.16315 0.0
O101 O 0.53124 0.68634 0.97398 0.0
O102 O 0.5834 0.77301 0.88547 0.0
O103 O 0.53155 0.74119 0.84074 0.0
O104 O 0.5135 0.75542 0.06175 0.0
O105 O 0.55149 0.81073 0.98757 0.0
O106 O 0.63798 0.85408 0.90345 0.0
O107 O 0.61168 0.86429 0.05835 0.0
O108 O 0.56869 0.77902 0.16837 0.0
O109 O 0.61994 0.81265 0.21593 0.0
O110 O 0.63893 0.79641 1.00152 0.0
O111 O 0.59963 0.73944 0.05829 0.0
H112 H 0.45794 0.65929 0.23533 0.0
H113 H 0.39789 0.61174 0.21193 0.0
H114 H 0.42541 0.57845 0.86663 0.0
H115 H 0.48557 0.62578 0.88897 0.0
H116 H 0.6899 0.91286 0.80773 0.0
H117 H 0.72981 0.97606 0.80607 0.0
H118 H 0.68597 0.98533 0.16063 0.0
H119 H 0.64663 0.92246 0.16488 0.0
Tb120 Tb 0.81768 0.55963 0.03669 0.0
Tb121 Tb 0.79619 0.61267 0.02302 0.0
C122 C 0.82662 0.50983 0.10023 0.0
C123 C 0.81938 0.47452 0.06797 0.0
C124 C 0.81114 0.45055 0.16804 0.0
C125 C 0.80704 0.41775 0.14485 0.0
C126 C 0.81117 0.40837 0.02104 0.0
C127 C 0.81877 0.43199 0.91986 0.0
C128 C 0.82285 0.46496 0.94313 0.0
C129 C 0.81669 0.58093 0.80095 0.0
C130 C 0.73675 0.53564 0.03338 0.0
C131 C 0.78839 0.66372 0.96782 0.0
C132 C 0.7664 0.67914 0.99015 0.0
C133 C 0.7794 0.71414 0.95647 0.0
C134 C 0.75864 0.72931 0.96811 0.0
C135 C 0.72456 0.70964 0.01373 0.0
C136 C 0.71167 0.67476 0.05012 0.0
C137 C 0.73251 0.65953 0.03836 0.0
C138 C 0.79797 0.59119 0.25788 0.0
C139 C 0.87596 0.6353 0.03152 0.0
O140 O 0.80048 0.51297 0.13939 0.0
O141 O 0.84784 0.53562 0.02652 0.0
O142 O 0.79542 0.57609 0.88857 0.0
O143 O 0.83695 0.56995 0.84068 0.0
O144 O 0.76107 0.52732 0.05155 0.0
O145 O 0.74418 0.56795 0.01088 0.0
O146 O 0.80702 0.66353 0.06382 0.0
O147 O 0.77475 0.63472 0.90245 0.0
O148 O 0.81927 0.59699 0.16935 0.0
O149 O 0.77497 0.59852 0.21624 0.0
O150 O 0.85245 0.64163 0.98161 0.0
O151 O 0.86641 0.6053 0.08807 0.0
H152 H 0.80856 0.45752 0.26504 0.0
H153 H 0.80113 0.3998 0.22383 0.0
H154 H 0.82197 0.42505 0.82365 0.0
H155 H 0.82926 0.48308 0.86446 0.0
H156 H 0.80547 0.72961 0.91887 0.0
H157 H 0.76893 0.75621 0.93952 0.0
H158 H 0.68535 0.65925 0.08532 0.0
H159 H 0.72207 0.63245 0.06468 0.0
Tb160 Tb 0.27311 0.82477 1.00068 0.0
Tb161 Tb 0.19626 0.79336 0.99244 0.0
C162 C 0.33686 0.85558 0.05213 0.0
C163 C 0.36313 0.84487 0.0497 0.0
C164 C 0.39638 0.86705 0.09884 0.0
C165 C 0.42162 0.85714 0.09521 0.0
C166 C 0.41382 0.82494 0.04233 0.0
C167 C 0.38049 0.80268 0.99369 0.0
C168 C 0.35527 0.81258 0.99739 0.0
C169 C 0.24527 0.80514 0.76904 0.0
C170 C 0.2311 0.74532 0.99548 0.0
C171 C 0.13285 0.7555 0.93765 0.0
C172 C 0.09637 0.7443 0.96814 0.0
C173 C 0.07309 0.70837 0.97972 0.0
C174 C 0.0377 0.69565 0.99643 0.0
C175 C 0.0248 0.7186 1.00198 0.0
C176 C 0.048 0.75472 0.99394 0.0
C177 C 0.08368 0.76755 0.97653 0.0
C178 C 0.22298 0.81215 0.2245 0.0
C179 C 0.24014 0.87419 0.99499 0.0
O180 O 0.31244 0.84028 0.13819 0.0
O181 O 0.32445 0.85715 0.94074 0.0
O182 O 0.23656 0.81914 0.85487 0.0
O183 O 0.272 0.80373 0.81 0.0
O184 O 0.26056 0.77183 0.03453 0.0
O185 O 0.20532 0.74954 0.95496 0.0
O186 O 0.1529 0.78613 0.88612 0.0
O187 O 0.14935 0.74681 0.01923 0.0
O188 O 0.23241 0.79893 0.1379 0.0
O189 O 0.195 0.81141 0.18567 0.0
O190 O 0.20918 0.84737 0.9678 0.0
O191 O 0.2671 0.8705 0.02174 0.0
H192 H 0.40283 0.89203 0.13953 0.0
H193 H 0.44725 0.87457 0.13316 0.0
H194 H 0.37409 0.77774 0.95272 0.0
H195 H 0.32971 0.79514 0.95895 0.0
H196 H 0.08222 0.68994 0.97258 0.0
H197 H 0.0202 0.66775 1.0024 0.0
H198 H 0.03838 0.77277 0.99803 0.0
H199 H 0.1011 0.79537 0.96735 0.0
Tb200 Tb 0.45466 0.27327 0.0182 0.0
Tb201 Tb 0.40576 0.19596 0.01097 0.0
C202 C 0.48895 0.33744 0.0697 0.0
C203 C 0.52527 0.36594 0.06258 0.0
C204 C 0.535 0.39746 0.12523 0.0
C205 C 0.56928 0.42503 0.11921 0.0
C206 C 0.59432 0.42146 0.05025 0.0
C207 C 0.58464 0.38988 0.98762 0.0
C208 C 0.55031 0.36222 0.99388 0.0
C209 C 0.44486 0.24479 0.78703 0.0
C210 C 0.48829 0.2281 0.01099 0.0
C211 C 0.3761 0.13162 0.95965 0.0
C212 C 0.34733 0.09549 0.98423 0.0
C213 C 0.31631 0.08087 0.91326 0.0
C214 C 0.29267 0.04484 0.91775 0.0
C215 C 0.29997 0.02277 0.99142 0.0
C216 C 0.32999 0.03755 0.06703 0.0
C217 C 0.35339 0.07343 0.06345 0.0
C218 C 0.41522 0.22379 0.24226 0.0
C219 C 0.37275 0.24285 0.01494 0.0
O220 O 0.48222 0.31281 0.15288 0.0
O221 O 0.4733 0.32495 0.96063 0.0
O222 O 0.42244 0.23683 0.87364 0.0
O223 O 0.47353 0.27139 0.8266 0.0
O224 O 0.49317 0.25847 0.04871 0.0
O225 O 0.45752 0.20264 0.97392 0.0
O226 O 0.37017 0.15369 0.89707 0.0
O227 O 0.39937 0.14681 0.0492 0.0
O228 O 0.43771 0.23207 0.15548 0.0
O229 O 0.38692 0.19662 0.20338 0.0
O230 O 0.36692 0.21137 0.98548 0.0
O231 O 0.40392 0.26882 0.04435 0.0
H232 H 0.51604 0.40075 0.17879 0.0
H233 H 0.57633 0.44918 0.16832 0.0
H234 H 0.60369 0.38666 0.93434 0.0
H235 H 0.54327 0.33802 0.9452 0.0
H236 H 0.31104 0.09695 0.84979 0.0
H237 H 0.26958 0.03395 0.85884 0.0
H238 H 0.33612 0.02105 0.12464 0.0
H239 H 0.3772 0.0836 0.11783 0.0
C240 C 0.3316 0.25478 0.8911 0.0
C241 C 0.34426 0.25083 0.01069 0.0
C242 C 0.31533 0.2782 0.11977 0.0
C243 C 0.30188 0.28133 1.00069 0.0
N244 N 0.29072 0.26599 0.77776 0.0
N245 N 0.34205 0.2511 0.24035 0.0
C246 C 0.30797 0.26749 0.88773 0.0
C247 C 0.33413 0.26015 0.12563 0.0
N248 N 0.34353 0.24813 0.78037 0.0
N249 N 0.31133 0.2937 0.22621 0.0
H250 H 0.3551 0.23715 0.24694 0.0
H251 H 0.33287 0.2543 0.32782 0.0
H252 H 0.29752 0.30694 0.22588 0.0
H253 H 0.32382 0.29573 0.31255 0.0
H254 H 0.33878 0.25473 0.69012 0.0
H255 H 0.36018 0.23801 0.77872 0.0
H256 H 0.29124 0.25294 0.69591 0.0
H257 H 0.27342 0.27529 0.77155 0.0
C258 C 0.07238 0.32985 0.11904 0.0
C259 C 0.09241 0.34354 1.00573 0.0
C260 C 0.0444 0.29837 0.88259 0.0
C261 C 0.02179 0.29205 0.98693 0.0
N262 N 0.02213 0.28003 0.21081 0.0
N263 N 0.09593 0.34119 0.77506 0.0
C264 C 0.03761 0.30166 0.10919 0.0
C265 C 0.07821 0.32759 0.88629 0.0
N266 N 0.08643 0.34326 0.23578 0.0
N267 N 0.03535 0.27404 0.78868 0.0
H268 H 0.11979 0.36419 0.77159 0.0
H269 H 0.08497 0.33154 0.68562 0.0
H270 H 0.01259 0.24984 0.79456 0.0
H271 H 0.05237 0.27617 0.71614 0.0
H272 H 0.07164 0.3369 0.31908 0.0
H273 H 0.1125 0.36191 0.24861 0.0
H274 H 0.03367 0.28385 0.30042 0.0
H275 H 1.00014 0.25547 0.19894 0.0
C276 C 0.77141 0.08348 0.01172 0.0
C277 C 0.74997 0.09554 0.95836 0.0
C278 C 0.70684 0.03571 0.89741 0.0
C279 C 0.72629 0.02333 0.96349 0.0
N280 N 0.77603 0.0341 0.08793 0.0
N281 N 0.6957 0.08293 0.86064 0.0
C282 C 0.75851 0.0469 0.02082 0.0
C283 C 0.71735 0.07161 0.90337 0.0
N284 N 0.80379 0.10694 0.05567 0.0
N285 N 0.67828 0.01309 0.82792 0.0
H286 H 0.70277 0.10907 0.85603 0.0
H287 H 0.66978 0.06631 0.83699 0.0
H288 H 0.66865 0.9863 0.82505 0.0
H289 H 0.66564 0.02107 0.76447 0.0
H290 H 0.82215 0.10028 0.08305 0.0
H291 H 0.81326 0.13369 0.05851 0.0
H292 H 0.79759 0.04929 0.1448 0.0
H293 H 0.76784 0.00757 0.09184 0.0
C294 C 0.69804 0.73953 0.13407 0.0
C295 C 0.70201 0.72539 0.01794 0.0
C296 C 0.66543 0.74384 0.90649 0.0
C297 C 0.65876 0.75486 0.02495 0.0
N298 N 0.66673 0.76211 0.25272 0.0
N299 N 0.68732 0.71072 0.7961 0.0
C300 C 0.67463 0.75252 0.13916 0.0
C301 C 0.68527 0.72682 0.90449 0.0
N302 N 0.71732 0.74126 0.23843 0.0
N303 N 0.65293 0.7499 0.79587 0.0
H304 H 0.70192 0.69834 0.79048 0.0
H305 H 0.67269 0.70734 0.71429 0.0
H306 H 0.63779 0.76174 0.79411 0.0
H307 H 0.65967 0.7458 0.70499 0.0
H308 H 0.71848 0.75445 0.32212 0.0
H309 H 0.7342 0.7314 0.2386 0.0
H310 H 0.67371 0.75701 0.3416 0.0
H311 H 0.65168 0.77397 0.2584 0.0
C312 C 0.96977 0.69402 0.13109 0.0
C313 C 0.98661 0.70378 0.01064 0.0
C314 C 0.93013 0.6724 0.90235 0.0
C315 C 0.91346 0.6618 0.02349 0.0
N316 N 0.91701 0.66614 0.2539 0.0
N317 N 0.98302 0.70922 0.78298 0.0
C318 C 0.93316 0.67394 0.13757 0.0
C319 C 0.96676 0.6953 0.89666 0.0
N320 N 0.98806 0.70346 0.24239 0.0
N321 N 0.91144 0.65863 0.79283 0.0
H322 H 0.00984 0.72536 0.7752 0.0
H323 H 0.96994 0.70729 0.69828 0.0
H324 H 0.88473 0.64173 0.79208 0.0
H325 H 0.92253 0.66181 0.70274 0.0
H326 H 0.01506 0.71862 0.2473 0.0
H327 H 0.01506 0.71862 0.2473 0.0
H328 H 0.9307 0.67426 0.33981 0.0
H329 H 0.89007 0.65269 0.26414 0.0
C330 C 0.24506 0.92792 0.09598 0.0
C331 C 0.24677 0.91042 0.98537 0.0
C332 C 0.27962 0.9662 0.87248 0.0
C333 C 0.27805 0.98395 0.98326 0.0
N334 N 0.25276 0.98154 0.18903 0.0
N335 N 0.25736 0.91121 0.75975 0.0
C336 C 0.25856 0.96466 0.09144 0.0
C337 C 0.26116 0.9291 0.87054 0.0
N338 N 0.2317 0.90957 0.20655 0.0
N339 N 0.30058 0.98469 0.77239 0.0
H340 H 0.24401 0.88403 0.75595 0.0
H341 H 0.26438 0.92302 0.67021 0.0
H342 H 0.31488 0.01182 0.7698 0.0
H343 H 0.306 0.97318 0.69593 0.0
H344 H 0.23357 0.92117 0.29487 0.0
H345 H 0.22003 0.88249 0.21072 0.0
H346 H 0.23628 0.96878 0.26563 0.0
H347 H 0.26216 0.00834 0.18764 0.0
C348 C 0.22927 0.69598 0.11995 0.0
C349 C 0.22634 0.70973 1.00088 0.0
C350 C 0.20918 0.65372 0.89733 0.0
C351 C 0.21428 0.64083 0.01466 0.0
N352 N 0.23616 0.65179 0.23032 0.0
N353 N 0.22078 0.70441 0.77159 0.0
C354 C 0.22656 0.66269 0.12367 0.0
C355 C 0.21835 0.68936 0.88804 0.0
N356 N 0.23275 0.71383 0.23064 0.0
N357 N 0.19447 0.63164 0.79609 0.0
H358 H 0.22831 0.73063 0.76109 0.0
H359 H 0.21862 0.6919 0.68505 0.0
H360 H 0.18792 0.60554 0.79854 0.0
H361 H 0.1864 0.63848 0.7131 0.0
H362 H 0.23097 0.70328 0.32118 0.0
H363 H 0.23423 0.73802 0.23312 0.0
H364 H 0.24871 0.66794 0.30795 0.0
H365 H 0.23454 0.62754 0.23637 0.0
C366 C 0.53008 0.21465 0.89959 0.0
C367 C 0.51794 0.22195 0.01425 0.0
C368 C 0.56418 0.22032 0.13495 0.0
C369 C 0.5739 0.20932 0.02306 0.0
N370 N 0.56363 0.19147 0.80223 0.0
N371 N 0.51948 0.22603 0.24462 0.0
C372 C 0.5562 0.20527 0.90604 0.0
C373 C 0.534 0.2234 0.13301 0.0
N374 N 0.51762 0.21799 0.7843 0.0
N375 N 0.58423 0.22849 0.24244 0.0
H376 H 0.49709 0.22788 0.24785 0.0
H377 H 0.52776 0.22321 0.3346 0.0
H378 H 0.60653 0.22647 0.24752 0.0
H379 H 0.58057 0.24019 0.32253 0.0
H380 H 0.52792 0.21647 0.69683 0.0
H381 H 0.499 0.2255 0.77595 0.0
H382 H 0.54893 0.18417 0.71877 0.0
H383 H 0.583 0.18483 0.80275 0.0
C384 C 0.34799 0.56217 0.93828 0.0
C385 C 0.3716 0.56177 0.02811 0.0
C386 C 0.32601 0.50587 0.11225 0.0
C387 C 0.30317 0.50469 0.01519 0.0
N388 N 0.2945 0.52838 0.82025 0.0
N389 N 0.38543 0.53037 0.18335 0.0
C390 C 0.31472 0.53197 0.92377 0.0
C391 C 0.36131 0.53272 0.10987 0.0
N392 N 0.35702 0.5917 0.86924 0.0
N393 N 0.31368 0.4825 0.21079 0.0
H394 H 0.41159 0.54962 0.18488 0.0
H395 H 0.38012 0.50798 0.23388 0.0
H396 H 0.28782 0.46306 0.21837 0.0
H397 H 0.32827 0.48453 0.29146 0.0
H398 H 0.33957 0.59486 0.8127 0.0
H399 H 0.3813 0.61421 0.8766 0.0
H400 H 0.30288 0.54584 0.74394 0.0
H401 H 0.27051 0.50611 0.80444 0.0
C402 C 0.83498 0.36804 0.04207 0.0
C403 C 0.8081 0.37383 0.99961 0.0
C404 C 0.77476 0.31328 0.92706 0.0
C405 C 0.79936 0.30613 0.98609 0.0
N406 N 0.85038 0.32623 0.11891 0.0
N407 N 0.7502 0.35107 0.91715 0.0
C408 C 0.82901 0.33343 0.04784 0.0
C409 C 0.77741 0.34624 0.94595 0.0
N410 N 0.86643 0.39574 0.07573 0.0
N411 N 0.74955 0.28917 0.84889 0.0
H412 H 0.75128 0.37497 0.92757 0.0
H413 H 0.72564 0.33073 0.89283 0.0
H414 H 0.74666 0.26484 0.82971 0.0
H415 H 0.7335 0.29455 0.7928 0.0
H416 H 0.88821 0.39354 0.09444 0.0
H417 H 0.87166 0.42145 0.07305 0.0
H418 H 0.86994 0.34451 0.17753 0.0
H419 H 0.84666 0.30127 0.12993 0.0
C420 C 0.45803 0.81714 0.92069 0.0
C421 C 0.44069 0.81454 0.03745 0.0
C422 C 0.47683 0.79543 0.14748 0.0
C423 C 0.49212 0.7952 0.02864 0.0
N424 N 0.49313 0.79982 0.79883 0.0
N425 N 0.4292 0.79592 0.25744 0.0
C426 C 0.48162 0.80445 0.91418 0.0
C427 C 0.44881 0.80212 0.14963 0.0
N428 N 0.45267 0.83261 0.81697 0.0
N429 N 0.49009 0.79085 0.25894 0.0
H430 H 0.40868 0.80084 0.26308 0.0
H431 H 0.43136 0.78324 0.33769 0.0
H432 H 0.51071 0.78607 0.26195 0.0
H433 H 0.4827 0.79475 0.34902 0.0
H434 H 0.46738 0.8388 0.73364 0.0
H435 H 0.43534 0.84193 0.81771 0.0
H436 H 0.48371 0.8027 0.71135 0.0
H437 H 0.50981 0.78987 0.7903 0.0
C438 C 0.6787 0.4989 0.92771 0.0
C439 C 0.69993 0.50727 0.03817 0.0
C440 C 0.65296 0.4574 0.15185 0.0
C441 C 0.63083 0.45084 0.04528 0.0
N442 N 0.62054 0.46824 0.83913 0.0
N443 N 0.70564 0.49849 0.26244 0.0
C444 C 0.64311 0.47246 0.93523 0.0
C445 C 0.68662 0.48758 0.15226 0.0
N446 N 0.69291 0.51507 0.81409 0.0
N447 N 0.64214 0.43425 0.25127 0.0
H448 H 0.7302 0.52069 0.26714 0.0
H449 H 0.69591 0.48746 0.35164 0.0
H450 H 0.61757 0.41201 0.25491 0.0
H451 H 0.65841 0.43545 0.32495 0.0
H452 H 0.67978 0.50739 0.72727 0.0
H453 H 0.7189 0.53431 0.80423 0.0
H454 H 0.62696 0.4856 0.76316 0.0
H455 H 0.59444 0.44884 0.84037 0.0
C456 C 0.18478 0.393 0.58454 0.0
C457 C 0.19438 0.42542 0.64353 0.0
C458 C 0.21622 0.45485 0.43661 0.0
C459 C 0.20256 0.42197 0.37583 0.0
N460 N 0.1694 0.35925 0.38898 0.0
N461 N 0.21613 0.48725 0.62287 0.0
C462 C 0.18549 0.39089 0.449 0.0
C463 C 0.20911 0.45637 0.56858 0.0
N464 N 0.17604 0.36433 0.65796 0.0
N465 N 0.23718 0.48462 0.36969 0.0
H466 H 0.21314 0.49003 0.72019 0.0
H467 H 0.22292 0.50969 0.57007 0.0
H468 H 0.24309 0.48445 0.27347 0.0
H469 H 0.25109 0.50912 0.41183 0.0
H470 H 0.17232 0.34087 0.62146 0.0
H471 H 0.17594 0.3651 0.75706 0.0
H472 H 0.15317 0.33591 0.43606 0.0
H473 H 0.16971 0.35652 0.29007 0.0
C474 C 0.76603 0.16926 0.54067 0.0
C475 C 0.77047 0.19831 0.61393 0.0
C476 C 0.78698 0.23358 0.41632 0.0
C477 C 0.78513 0.20541 0.34567 0.0
N478 N 0.78069 0.14894 0.34827 0.0
N479 N 0.7921 0.26054 0.62148 0.0
C480 C 0.77657 0.17382 0.40966 0.0
C481 C 0.78324 0.23121 0.55204 0.0
N482 N 0.75218 0.13714 0.59639 0.0
N483 N 0.79057 0.26218 0.35306 0.0
H484 H 0.78868 0.26055 0.71929 0.0
H485 H 0.80569 0.2856 0.58325 0.0
H486 H 0.79276 0.26474 0.25414 0.0
H487 H 0.78784 0.28174 0.39684 0.0
H488 H 0.74378 0.11424 0.54463 0.0
H489 H 0.74738 0.13301 0.69391 0.0
H490 H 0.77857 0.12707 0.39375 0.0
H491 H 0.78986 0.15176 0.25495 0.0
C492 C 0.57127 0.74538 0.58901 0.0
C493 C 0.5698 0.7718 0.66093 0.0
C494 C 0.5784 0.80559 0.4643 0.0
C495 C 0.58193 0.78026 0.39344 0.0
N496 N 0.58478 0.72753 0.38803 0.0
N497 N 0.57856 0.82989 0.67173 0.0
C498 C 0.57905 0.75047 0.45573 0.0
C499 C 0.57529 0.80273 0.59985 0.0
N500 N 0.56514 0.71531 0.64827 0.0
N501 N 0.5769 0.83186 0.40155 0.0
H502 H 0.57646 0.82872 0.7708 0.0
H503 H 0.58644 0.85457 0.63487 0.0
H504 H 0.57905 0.83491 0.30255 0.0
H505 H 0.57037 0.84878 0.4459 0.0
H506 H 0.56115 0.69313 0.59988 0.0
H507 H 0.56264 0.71186 0.74698 0.0
H508 H 0.58761 0.70775 0.42921 0.0
H509 H 0.58863 0.72941 0.28971 0.0
C510 C 0.81127 0.61415 0.61377 0.0
C511 C 0.81067 0.58397 0.66305 0.0
C512 C 0.81323 0.56606 0.44554 0.0
C513 C 0.80642 0.5917 0.39602 0.0
N514 N 0.80119 0.64261 0.43538 0.0
N515 N 0.80234 0.52668 0.62069 0.0
C516 C 0.80552 0.6162 0.48106 0.0
C517 C 0.80883 0.55845 0.57742 0.0
N518 N 0.82021 0.6421 0.69097 0.0
N519 N 0.82662 0.55089 0.36957 0.0
H520 H 0.79668 0.51906 0.7161 0.0
H521 H 0.79849 0.50661 0.55886 0.0
H522 H 0.83629 0.56074 0.27937 0.0
H523 H 0.83373 0.53329 0.40405 0.0
H524 H 0.82487 0.66625 0.65813 0.0
H525 H 0.82634 0.64216 0.78637 0.0
H526 H 0.79492 0.65764 0.49389 0.0
H527 H 0.80366 0.64945 0.33911 0.0
C528 C 0.25669 0.83961 0.42609 0.0
C529 C 0.22965 0.8102 0.3629 0.0
C530 C 0.21007 0.77965 0.56879 0.0
C531 C 0.23909 0.80757 0.63024 0.0
N532 N 0.29148 0.86368 0.61743 0.0
N533 N 0.18371 0.75011 0.37013 0.0
C534 C 0.26287 0.83741 0.5587 0.0
C535 C 0.20725 0.77959 0.43319 0.0
N536 N 0.27572 0.87009 0.36029 0.0
N537 N 0.18445 0.75374 0.6403 0.0
H538 H 0.18054 0.749 0.27118 0.0
H539 H 0.1695 0.72589 0.41431 0.0
H540 H 0.18529 0.75338 0.73956 0.0
H541 H 0.1609 0.73458 0.60263 0.0
H542 H 0.29291 0.89374 0.40321 0.0
H543 H 0.27256 0.87232 0.26285 0.0
H544 H 0.31205 0.88394 0.56834 0.0
H545 H 0.29558 0.86449 0.71573 0.0
C546 C 0.43259 0.2087 0.58721 0.0
C547 C 0.43594 0.23875 0.64843 0.0
C548 C 0.42616 0.25955 0.44263 0.0
C549 C 0.42396 0.22999 0.38096 0.0
N550 N 0.43132 0.17978 0.38893 0.0
N551 N 0.42964 0.28956 0.64137 0.0
C552 C 0.42878 0.20542 0.45187 0.0
C553 C 0.4312 0.26345 0.57777 0.0
N554 N 0.43142 0.18244 0.65926 0.0
N555 N 0.42445 0.2844 0.37102 0.0
H556 H 0.43263 0.29292 0.74005 0.0
H557 H 0.4227 0.30642 0.59931 0.0
H558 H 0.42004 0.28192 0.27303 0.0
H559 H 0.42955 0.30847 0.40569 0.0
H560 H 0.42513 0.15812 0.62305 0.0
H561 H 0.4335 0.18371 0.75829 0.0
H562 H 0.43895 0.1636 0.43251 0.0
H563 H 0.42892 0.17656 0.29008 0.0
loop_
_geom_bond_atom_site_label_1
_geom_bond_atom_site_label_2
_geom_bond_distance
_geom_bond_site_symmetry_2
_ccdc_geom_bond_type
Tb0 C2 2.809 1_556 S
Tb0 O20 2.484 1_556 S
Tb0 O21 2.440 . S
Tb0 O22 2.658 . S
Tb0 O23 2.409 . S
Tb0 O24 2.378 . S
Tb0 O28 2.325 1_556 S
Tb0 O31 2.341 . S
Tb1 C11 2.809 1_554 S
Tb1 O22 2.325 1_554 S
Tb1 O25 2.341 . S
Tb1 O26 2.484 1_554 S
Tb1 O27 2.440 . S
Tb1 O28 2.658 . S
Tb1 O29 2.409 . S
Tb1 O30 2.378 . S
C2 Tb0 2.809 1_554 S
C2 C3 1.514 . S
C2 O20 1.248 . S
C2 O21 1.266 1_554 S
C3 C2 1.514 . S
C3 C4 1.359 . S
C3 C8 1.348 1_554 S
C4 C3 1.359 . S
C4 C5 1.380 . S
C4 H32 0.929 . S
C5 C4 1.380 . S
C5 C6 1.347 . S
C5 H33 0.931 . S
C6 C5 1.347 . S
C6 C7 1.369 1_554 S
C7 C6 1.369 1_556 S
C7 C8 1.408 . S
C7 H34 0.930 . S
C8 C3 1.348 1_556 S
C8 C7 1.408 . S
C8 H35 0.930 . S
C9 O22 1.281 . S
C9 O23 1.254 . S
C10 O24 1.236 . S
C10 O25 1.266 1_556 S
C11 Tb1 2.809 1_556 S
C11 C12 1.514 . S
C11 O26 1.248 . S
C11 O27 1.266 1_556 S
C12 C11 1.514 . S
C12 C13 1.359 . S
C12 C17 1.348 1_556 S
C13 C12 1.359 . S
C13 C14 1.380 . S
C13 H36 0.929 . S
C14 C13 1.380 . S
C14 C15 1.347 . S
C14 H37 0.931 . S
C15 C14 1.347 . S
C15 C16 1.369 1_556 S
C16 C15 1.369 1_554 S
C16 C17 1.408 . S
C16 H38 0.930 . S
C17 C12 1.348 1_554 S
C17 C16 1.408 . S
C17 H39 0.930 . S
C18 O28 1.281 . S
C18 O29 1.254 . S
C19 O30 1.236 . S
C19 O31 1.266 1_554 S
O20 Tb0 2.484 1_554 S
O20 C2 1.248 . S
O21 Tb0 2.440 . S
O21 C2 1.266 1_556 S
O22 Tb0 2.658 . S
O22 Tb1 2.325 1_556 S
O22 C9 1.281 . S
O23 Tb0 2.409 . S
O23 C9 1.254 . S
O24 Tb0 2.378 . S
O24 C10 1.236 . S
O25 Tb1 2.341 . S
O25 C10 1.266 1_554 S
O26 Tb1 2.484 1_556 S
O26 C11 1.248 . S
O27 Tb1 2.440 . S
O27 C11 1.266 1_554 S
O28 Tb0 2.325 1_554 S
O28 Tb1 2.658 . S
O28 C18 1.281 . S
O29 Tb1 2.409 . S
O29 C18 1.254 . S
O30 Tb1 2.378 . S
O30 C19 1.236 . S
O31 Tb0 2.341 . S
O31 C19 1.266 1_556 S
H32 C4 0.929 . S
H33 C5 0.931 . S
H34 C7 0.930 . S
H35 C8 0.930 . S
H36 C13 0.929 . S
H37 C14 0.931 . S
H38 C16 0.930 . S
H39 C17 0.930 . S
Tb40 C42 2.809 1_556 S
Tb40 O60 2.484 1_556 S
Tb40 O61 2.440 . S
Tb40 O62 2.658 . S
Tb40 O63 2.409 . S
Tb40 O64 2.378 . S
Tb40 O68 2.325 1_556 S
Tb40 O71 2.341 . S
Tb41 C51 2.809 1_554 S
Tb41 O62 2.325 1_554 S
Tb41 O65 2.341 . S
Tb41 O66 2.484 1_554 S
Tb41 O67 2.440 . S
Tb41 O68 2.658 . S
Tb41 O69 2.409 . S
Tb41 O70 2.378 . S
C42 Tb40 2.809 1_554 S
C42 C43 1.514 . S
C42 O60 1.248 . S
C42 O61 1.266 1_554 S
C43 C42 1.514 . S
C43 C44 1.359 . S
C43 C48 1.348 1_554 S
C44 C43 1.359 . S
C44 C45 1.380 . S
C44 H72 0.929 . S
C45 C44 1.380 . S
C45 C46 1.347 . S
C45 H73 0.931 . S
C46 C45 1.347 . S
C46 C47 1.369 1_554 S
C47 C46 1.369 1_556 S
C47 C48 1.408 . S
C47 H74 0.930 . S
C48 C43 1.348 1_556 S
C48 C47 1.408 . S
C48 H75 0.930 . S
C49 O62 1.281 . S
C49 O63 1.254 . S
C50 O64 1.236 . S
C50 O65 1.266 1_556 S
C51 Tb41 2.809 1_556 S
C51 C52 1.514 . S
C51 O66 1.248 . S
C51 O67 1.266 1_556 S
C52 C51 1.514 . S
C52 C53 1.359 . S
C52 C57 1.348 1_556 S
C53 C52 1.359 . S
C53 C54 1.380 . S
C53 H76 0.929 . S
C54 C53 1.380 . S
C54 C55 1.347 . S
C54 H77 0.931 . S
C55 C54 1.347 . S
C55 C56 1.369 1_556 S
C56 C55 1.369 1_554 S
C56 C57 1.408 . S
C56 H78 0.930 . S
C57 C52 1.348 1_554 S
C57 C56 1.408 . S
C57 H79 0.930 . S
C58 O68 1.281 . S
C58 O69 1.254 . S
C59 O70 1.236 . S
C59 O71 1.266 1_554 S
O60 Tb40 2.484 1_554 S
O60 C42 1.248 . S
O61 Tb40 2.440 . S
O61 C42 1.266 1_556 S
O62 Tb40 2.658 . S
O62 Tb41 2.325 1_556 S
O62 C49 1.281 . S
O63 Tb40 2.409 . S
O63 C49 1.254 . S
O64 Tb40 2.378 . S
O64 C50 1.236 . S
O65 Tb41 2.341 . S
O65 C50 1.266 1_554 S
O66 Tb41 2.484 1_556 S
O66 C51 1.248 . S
O67 Tb41 2.440 . S
O67 C51 1.266 1_554 S
O68 Tb40 2.325 1_554 S
O68 Tb41 2.658 . S
O68 C58 1.281 . S
O69 Tb41 2.409 . S
O69 C58 1.254 . S
O70 Tb41 2.378 . S
O70 C59 1.236 . S
O71 Tb40 2.341 . S
O71 C59 1.266 1_556 S
H72 C44 0.929 . S
H73 C45 0.931 . S
H74 C47 0.930 . S
H75 C48 0.930 . S
H76 C53 0.929 . S
H77 C54 0.931 . S
H78 C56 0.930 . S
H79 C57 0.930 . S
Tb80 C82 2.809 1_556 S
Tb80 O100 2.484 1_556 S
Tb80 O101 2.440 . S
Tb80 O102 2.658 . S
Tb80 O103 2.409 . S
Tb80 O104 2.378 . S
Tb80 O108 2.325 1_556 S
Tb80 O111 2.341 . S
Tb81 C91 2.809 1_554 S
Tb81 O102 2.325 1_554 S
Tb81 O105 2.341 . S
Tb81 O106 2.484 1_554 S
Tb81 O107 2.440 . S
Tb81 O108 2.658 . S
Tb81 O109 2.409 . S
Tb81 O110 2.378 . S
C82 Tb80 2.809 1_554 S
C82 C83 1.514 . S
C82 O100 1.248 . S
C82 O101 1.266 1_554 S
C83 C82 1.514 . S
C83 C84 1.359 . S
C83 C88 1.348 1_554 S
C84 C83 1.359 . S
C84 C85 1.380 . S
C84 H112 0.929 . S
C85 C84 1.380 . S
C85 C86 1.347 . S
C85 H113 0.931 . S
C86 C85 1.347 . S
C86 C87 1.369 1_554 S
C87 C86 1.369 1_556 S
C87 C88 1.408 . S
C87 H114 0.930 . S
C88 C83 1.348 1_556 S
C88 C87 1.408 . S
C88 H115 0.930 . S
C89 O102 1.281 . S
C89 O103 1.254 . S
C90 O104 1.236 . S
C90 O105 1.266 1_556 S
C91 Tb81 2.809 1_556 S
C91 C92 1.514 . S
C91 O106 1.248 . S
C91 O107 1.266 1_556 S
C92 C91 1.514 . S
C92 C93 1.359 . S
C92 C97 1.348 1_556 S
C93 C92 1.359 . S
C93 C94 1.380 . S
C93 H116 0.929 . S
C94 C93 1.380 . S
C94 C95 1.347 . S
C94 H117 0.931 . S
C95 C94 1.347 . S
C95 C96 1.369 1_556 S
C96 C95 1.369 1_554 S
C96 C97 1.408 . S
C96 H118 0.930 . S
C97 C92 1.348 1_554 S
C97 C96 1.408 . S
C97 H119 0.930 . S
C98 O108 1.281 . S
C98 O109 1.254 . S
C99 O110 1.236 . S
C99 O111 1.266 1_554 S
O100 Tb80 2.484 1_554 S
O100 C82 1.248 . S
O101 Tb80 2.440 . S
O101 C82 1.266 1_556 S
O102 Tb80 2.658 . S
O102 Tb81 2.325 1_556 S
O102 C89 1.281 . S
O103 Tb80 2.409 . S
O103 C89 1.254 . S
O104 Tb80 2.378 . S
O104 C90 1.236 . S
O105 Tb81 2.341 . S
O105 C90 1.266 1_554 S
O106 Tb81 2.484 1_556 S
O106 C91 1.248 . S
O107 Tb81 2.440 . S
O107 C91 1.266 1_554 S
O108 Tb80 2.325 1_554 S
O108 Tb81 2.658 . S
O108 C98 1.281 . S
O109 Tb81 2.409 . S
O109 C98 1.254 . S
O110 Tb81 2.378 . S
O110 C99 1.236 . S
O111 Tb80 2.341 . S
O111 C99 1.266 1_556 S
H112 C84 0.929 . S
H113 C85 0.931 . S
H114 C87 0.930 . S
H115 C88 0.930 . S
H116 C93 0.929 . S
H117 C94 0.931 . S
H118 C96 0.930 . S
H119 C97 0.930 . S
Tb120 C122 2.809 1_556 S
Tb120 O140 2.484 1_556 S
Tb120 O141 2.440 . S
Tb120 O142 2.658 . S
Tb120 O143 2.409 . S
Tb120 O144 2.378 . S
Tb120 O148 2.325 1_556 S
Tb120 O151 2.341 . S
Tb121 C131 2.809 1_554 S
Tb121 O142 2.325 1_554 S
Tb121 O145 2.341 . S
Tb121 O146 2.484 1_554 S
Tb121 O147 2.440 . S
Tb121 O148 2.658 . S
Tb121 O149 2.409 . S
Tb121 O150 2.378 . S
C122 Tb120 2.809 1_554 S
C122 C123 1.514 . S
C122 O140 1.248 . S
C122 O141 1.266 1_554 S
C123 C122 1.514 . S
C123 C124 1.359 . S
C123 C128 1.348 1_554 S
C124 C123 1.359 . S
C124 C125 1.380 . S
C124 H152 0.929 . S
C125 C124 1.380 . S
C125 C126 1.347 . S
C125 H153 0.931 . S
C126 C125 1.347 . S
C126 C127 1.369 1_554 S
C127 C126 1.369 1_556 S
C127 C128 1.408 . S
C127 H154 0.930 . S
C128 C123 1.348 1_556 S
C128 C127 1.408 . S
C128 H155 0.930 . S
C129 O142 1.281 . S
C129 O143 1.254 . S
C130 O144 1.236 . S
C130 O145 1.266 1_556 S
C131 Tb121 2.809 1_556 S
C131 C132 1.514 . S
C131 O146 1.248 . S
C131 O147 1.266 1_556 S
C132 C131 1.514 . S
C132 C133 1.359 . S
C132 C137 1.348 1_556 S
C133 C132 1.359 . S
C133 C134 1.380 . S
C133 H156 0.929 . S
C134 C133 1.380 . S
C134 C135 1.347 . S
C134 H157 0.931 . S
C135 C134 1.347 . S
C135 C136 1.369 1_556 S
C136 C135 1.369 1_554 S
C136 C137 1.408 . S
C136 H158 0.930 . S
C137 C132 1.348 1_554 S
C137 C136 1.408 . S
C137 H159 0.930 . S
C138 O148 1.281 . S
C138 O149 1.254 . S
C139 O150 1.236 . S
C139 O151 1.266 1_554 S
O140 Tb120 2.484 1_554 S
O140 C122 1.248 . S
O141 Tb120 2.440 . S
O141 C122 1.266 1_556 S
O142 Tb120 2.658 . S
O142 Tb121 2.325 1_556 S
O142 C129 1.281 . S
O143 Tb120 2.409 . S
O143 C129 1.254 . S
O144 Tb120 2.378 . S
O144 C130 1.236 . S
O145 Tb121 2.341 . S
O145 C130 1.266 1_554 S
O146 Tb121 2.484 1_556 S
O146 C131 1.248 . S
O147 Tb121 2.440 . S
O147 C131 1.266 1_554 S
O148 Tb120 2.325 1_554 S
O148 Tb121 2.658 . S
O148 C138 1.281 . S
O149 Tb121 2.409 . S
O149 C138 1.254 . S
O150 Tb121 2.378 . S
O150 C139 1.236 . S
O151 Tb120 2.341 . S
O151 C139 1.266 1_556 S
H152 C124 0.929 . S
H153 C125 0.931 . S
H154 C127 0.930 . S
H155 C128 0.930 . S
H156 C133 0.929 . S
H157 C134 0.931 . S
H158 C136 0.930 . S
H159 C137 0.930 . S
Tb160 C162 2.809 1_556 S
Tb160 O180 2.484 1_556 S
Tb160 O181 2.440 . S
Tb160 O182 2.658 . S
Tb160 O183 2.409 . S
Tb160 O184 2.378 . S
Tb160 O188 2.325 1_556 S
Tb160 O191 2.341 . S
Tb161 C171 2.809 1_554 S
Tb161 O182 2.325 1_554 S
Tb161 O185 2.341 . S
Tb161 O186 2.484 1_554 S
Tb161 O187 2.440 . S
Tb161 O188 2.658 . S
Tb161 O189 2.409 . S
Tb161 O190 2.378 . S
C162 Tb160 2.809 1_554 S
C162 C163 1.514 . S
C162 O180 1.248 . S
C162 O181 1.266 1_554 S
C163 C162 1.514 . S
C163 C164 1.359 . S
C163 C168 1.348 1_554 S
C164 C163 1.359 . S
C164 C165 1.380 . S
C164 H192 0.929 . S
C165 C164 1.380 . S
C165 C166 1.347 . S
C165 H193 0.931 . S
C166 C165 1.347 . S
C166 C167 1.369 1_554 S
C167 C166 1.369 1_556 S
C167 C168 1.408 . S
C167 H194 0.930 . S
C168 C163 1.348 1_556 S
C168 C167 1.408 . S
C168 H195 0.930 . S
C169 O182 1.281 . S
C169 O183 1.254 . S
C170 O184 1.236 . S
C170 O185 1.266 1_556 S
C171 Tb161 2.809 1_556 S
C171 C172 1.514 . S
C171 O186 1.248 . S
C171 O187 1.266 1_556 S
C172 C171 1.514 . S
C172 C173 1.359 . S
C172 C177 1.348 1_556 S
C173 C172 1.359 . S
C173 C174 1.380 . S
C173 H196 0.929 . S
C174 C173 1.380 . S
C174 C175 1.347 . S
C174 H197 0.931 . S
C175 C174 1.347 . S
C175 C176 1.369 1_556 S
C176 C175 1.369 1_554 S
C176 C177 1.408 . S
C176 H198 0.930 . S
C177 C172 1.348 1_554 S
C177 C176 1.408 . S
C177 H199 0.930 . S
C178 O188 1.281 . S
C178 O189 1.254 . S
C179 O190 1.236 . S
C179 O191 1.266 1_554 S
O180 Tb160 2.484 1_554 S
O180 C162 1.248 . S
O181 Tb160 2.440 . S
O181 C162 1.266 1_556 S
O182 Tb160 2.658 . S
O182 Tb161 2.325 1_556 S
O182 C169 1.281 . S
O183 Tb160 2.409 . S
O183 C169 1.254 . S
O184 Tb160 2.378 . S
O184 C170 1.236 . S
O185 Tb161 2.341 . S
O185 C170 1.266 1_554 S
O186 Tb161 2.484 1_556 S
O186 C171 1.248 . S
O187 Tb161 2.440 . S
O187 C171 1.266 1_554 S
O188 Tb160 2.325 1_554 S
O188 Tb161 2.658 . S
O188 C178 1.281 . S
O189 Tb161 2.409 . S
O189 C178 1.254 . S
O190 Tb161 2.378 . S
O190 C179 1.236 . S
O191 Tb160 2.341 . S
O191 C179 1.266 1_556 S
H192 C164 0.929 . S
H193 C165 0.931 . S
H194 C167 0.930 . S
H195 C168 0.930 . S
H196 C173 0.929 . S
H197 C174 0.931 . S
H198 C176 0.930 . S
H199 C177 0.930 . S
Tb200 C202 2.809 1_556 S
Tb200 O220 2.484 1_556 S
Tb200 O221 2.440 . S
Tb200 O222 2.658 . S
Tb200 O223 2.409 . S
Tb200 O224 2.378 . S
Tb200 O228 2.325 1_556 S
Tb200 O231 2.341 . S
Tb201 C211 2.809 1_554 S
Tb201 O222 2.325 1_554 S
Tb201 O225 2.341 . S
Tb201 O226 2.484 1_554 S
Tb201 O227 2.440 . S
Tb201 O228 2.658 . S
Tb201 O229 2.409 . S
Tb201 O230 2.378 . S
C202 Tb200 2.809 1_554 S
C202 C203 1.514 . S
C202 O220 1.248 . S
C202 O221 1.266 1_554 S
C203 C202 1.514 . S
C203 C204 1.359 . S
C203 C208 1.348 1_554 S
C204 C203 1.359 . S
C204 C205 1.380 . S
C204 H232 0.929 . S
C205 C204 1.380 . S
C205 C206 1.347 . S
C205 H233 0.931 . S
C206 C205 1.347 . S
C206 C207 1.369 1_554 S
C207 C206 1.369 1_556 S
C207 C208 1.408 . S
C207 H234 0.930 . S
C208 C203 1.348 1_556 S
C208 C207 1.408 . S
C208 H235 0.930 . S
C209 O222 1.281 . S
C209 O223 1.254 . S
C210 O224 1.236 . S
C210 O225 1.266 1_556 S
C211 Tb201 2.809 1_556 S
C211 C212 1.514 . S
C211 O226 1.248 . S
C211 O227 1.266 1_556 S
C212 C211 1.514 . S
C212 C213 1.359 . S
C212 C217 1.348 1_556 S
C213 C212 1.359 . S
C213 C214 1.380 . S
C213 H236 0.929 . S
C214 C213 1.380 . S
C214 C215 1.347 . S
C214 H237 0.931 . S
C215 C214 1.347 . S
C215 C216 1.369 1_556 S
C216 C215 1.369 1_554 S
C216 C217 1.408 . S
C216 H238 0.930 . S
C217 C212 1.348 1_554 S
C217 C216 1.408 . S
C217 H239 0.930 . S
C218 O228 1.281 . S
C218 O229 1.254 . S
C219 O230 1.236 . S
C219 O231 1.266 1_554 S
O220 Tb200 2.484 1_554 S
O220 C202 1.248 . S
O221 Tb200 2.440 . S
O221 C202 1.266 1_556 S
O222 Tb200 2.658 . S
O222 Tb201 2.325 1_556 S
O222 C209 1.281 . S
O223 Tb200 2.409 . S
O223 C209 1.254 . S
O224 Tb200 2.378 . S
O224 C210 1.236 . S
O225 Tb201 2.341 . S
O225 C210 1.266 1_554 S
O226 Tb201 2.484 1_556 S
O226 C211 1.248 . S
O227 Tb201 2.440 . S
O227 C211 1.266 1_554 S
O228 Tb200 2.325 1_554 S
O228 Tb201 2.658 . S
O228 C218 1.281 . S
O229 Tb201 2.409 . S
O229 C218 1.254 . S
O230 Tb201 2.378 . S
O230 C219 1.236 . S
O231 Tb200 2.341 . S
O231 C219 1.266 1_556 S
H232 C204 0.929 . S
H233 C205 0.931 . S
H234 C207 0.930 . S
H235 C208 0.930 . S
H236 C213 0.929 . S
H237 C214 0.931 . S
H238 C216 0.930 . S
H239 C217 0.930 . S
C240 C241 1.363 . S
C240 C246 1.379 . S
C240 N248 1.356 . S
C241 C240 1.363 . S
C241 C247 1.363 . S
C242 C243 1.363 . S
C242 C247 1.379 . S
C242 N249 1.356 . S
C243 C242 1.363 . S
C243 C246 1.363 . S
N244 C246 1.356 . S
N244 H256 0.984 . S
N244 H257 0.985 . S
N245 C247 1.356 . S
N245 H250 0.984 1_556 S
N245 H251 0.985 . S
C246 C240 1.379 . S
C246 C243 1.363 . S
C246 N244 1.356 . S
C247 C241 1.363 . S
C247 C242 1.379 . S
C247 N245 1.356 . S
N248 C240 1.356 . S
N248 H254 0.984 . S
N248 H255 0.985 . S
N249 C242 1.356 . S
N249 H252 0.984 . S
N249 H253 0.985 . S
H250 N245 0.984 1_554 S
H251 N245 0.985 . S
H252 N249 0.984 . S
H253 N249 0.985 . S
H254 N248 0.984 . S
H255 N248 0.985 . S
H256 N244 0.984 . S
H257 N244 0.985 . S
C258 C259 1.363 1_554 S
C258 C264 1.379 . S
C258 N266 1.356 . S
C259 C258 1.363 1_556 S
C259 C265 1.363 . S
C260 C261 1.363 . S
C260 C265 1.379 . S
C260 N267 1.356 . S
C261 C260 1.363 . S
C261 C264 1.363 1_556 S
N262 C264 1.356 . S
N262 H274 0.984 . S
N262 H275 0.985 . S
N263 C265 1.356 . S
N263 H268 0.984 . S
N263 H269 0.985 . S
C264 C258 1.379 . S
C264 C261 1.363 1_554 S
C264 N262 1.356 . S
C265 C259 1.363 . S
C265 C260 1.379 . S
C265 N263 1.356 . S
N266 C258 1.356 . S
N266 H272 0.984 . S
N266 H273 0.984 . S
N267 C260 1.356 . S
N267 H270 0.984 . S
N267 H271 0.985 . S
H268 N263 0.984 . S
H269 N263 0.985 . S
H270 N267 0.984 . S
H271 N267 0.985 . S
H272 N266 0.984 . S
H273 N266 0.984 . S
H274 N262 0.984 . S
H275 N262 0.985 . S
C276 C277 1.363 1_554 S
C276 C282 1.379 . S
C276 N284 1.356 . S
C277 C276 1.363 1_556 S
C277 C283 1.363 . S
C278 C279 1.363 . S
C278 C283 1.379 . S
C278 N285 1.356 . S
C279 C278 1.363 . S
C279 C282 1.363 1_556 S
N280 C282 1.356 . S
N280 H292 0.984 . S
N280 H293 0.985 . S
N281 C283 1.356 . S
N281 H286 0.984 . S
N281 H287 0.985 . S
C282 C276 1.379 . S
C282 C279 1.363 1_554 S
C282 N280 1.356 . S
C283 C277 1.363 . S
C283 C278 1.379 . S
C283 N281 1.356 . S
N284 C276 1.356 . S
N284 H290 0.984 . S
N284 H291 0.984 . S
N285 C278 1.356 . S
N285 H288 0.984 1_545 S
N285 H289 0.985 . S
H286 N281 0.984 . S
H287 N281 0.985 . S
H288 N285 0.984 1_565 S
H289 N285 0.985 . S
H290 N284 0.984 . S
H291 N284 0.984 . S
H292 N280 0.984 . S
H293 N280 0.985 . S
C294 C295 1.363 1_554 S
C294 C300 1.379 . S
C294 N302 1.356 . S
C295 C294 1.363 1_556 S
C295 C301 1.363 . S
C296 C297 1.363 . S
C296 C301 1.379 . S
C296 N303 1.356 . S
C297 C296 1.363 . S
C297 C300 1.363 1_556 S
N298 C300 1.356 . S
N298 H310 0.984 . S
N298 H311 0.985 . S
N299 C301 1.356 . S
N299 H304 0.984 . S
N299 H305 0.985 . S
C300 C294 1.379 . S
C300 C297 1.363 1_554 S
C300 N298 1.356 . S
C301 C295 1.363 . S
C301 C296 1.379 . S
C301 N299 1.356 . S
N302 C294 1.356 . S
N302 H308 0.984 . S
N302 H309 0.984 . S
N303 C296 1.356 . S
N303 H306 0.984 . S
N303 H307 0.985 . S
H304 N299 0.984 . S
H305 N299 0.985 . S
H306 N303 0.984 . S
H307 N303 0.985 . S
H308 N302 0.984 . S
H309 N302 0.984 . S
H310 N298 0.984 . S
H311 N298 0.985 . S
C312 C313 1.363 1_554 S
C312 C318 1.379 . S
C312 N320 1.356 . S
C313 C312 1.363 1_556 S
C313 C319 1.363 . S
C314 C315 1.363 . S
C314 C319 1.379 . S
C314 N321 1.356 . S
C315 C314 1.363 . S
C315 C318 1.363 1_556 S
N316 C318 1.356 . S
N316 H328 0.984 . S
N316 H329 0.985 . S
N317 C319 1.356 . S
N317 H322 0.984 . S
N317 H323 0.985 . S
C318 C312 1.379 . S
C318 C315 1.363 1_554 S
C318 N316 1.356 . S
C319 C313 1.363 . S
C319 C314 1.379 . S
C319 N317 1.356 . S
N320 C312 1.356 . S
N320 H326 0.974 1_655 S
N320 H327 0.984 1_655 S
N321 C314 1.356 . S
N321 H324 0.984 . S
N321 H325 0.985 . S
H322 N317 0.984 . S
H323 N317 0.985 . S
H324 N321 0.984 . S
H325 N321 0.985 . S
H326 N320 0.974 1_455 S
H327 N320 0.984 1_455 S
H328 N316 0.984 . S
H329 N316 0.985 . S
C330 C331 1.363 1_554 S
C330 C336 1.379 . S
C330 N338 1.356 . S
C331 C330 1.363 1_556 S
C331 C337 1.363 . S
C332 C333 1.363 . S
C332 C337 1.379 . S
C332 N339 1.356 . S
C333 C332 1.363 . S
C333 C336 1.363 1_556 S
N334 C336 1.356 . S
N334 H346 0.984 . S
N334 H347 0.985 . S
N335 C337 1.356 . S
N335 H340 0.984 . S
N335 H341 0.985 . S
C336 C330 1.379 . S
C336 C333 1.363 1_554 S
C336 N334 1.356 . S
C337 C331 1.363 . S
C337 C332 1.379 . S
C337 N335 1.356 . S
N338 C330 1.356 . S
N338 H344 0.984 . S
N338 H345 0.984 . S
N339 C332 1.356 . S
N339 H342 0.982 1_565 S
N339 H343 0.985 . S
H340 N335 0.984 . S
H341 N335 0.985 . S
H342 N339 0.982 1_545 S
H343 N339 0.985 . S
H344 N338 0.984 . S
H345 N338 0.984 . S
H346 N334 0.984 . S
H347 N334 0.985 . S
C348 C349 1.363 . S
C348 C354 1.379 . S
C348 N356 1.356 . S
C349 C348 1.363 . S
C349 C355 1.363 1_554 S
C350 C351 1.363 1_556 S
C350 C355 1.379 . S
C350 N357 1.356 . S
C351 C350 1.363 1_554 S
C351 C354 1.363 . S
N352 C354 1.356 . S
N352 H364 0.984 . S
N352 H365 0.985 . S
N353 C355 1.356 . S
N353 H358 0.984 . S
N353 H359 0.985 . S
C354 C348 1.379 . S
C354 C351 1.363 . S
C354 N352 1.356 . S
C355 C349 1.363 1_556 S
C355 C350 1.379 . S
C355 N353 1.356 . S
N356 C348 1.356 . S
N356 H362 0.984 . S
N356 H363 0.984 . S
N357 C350 1.356 . S
N357 H360 0.984 . S
N357 H361 0.985 . S
H358 N353 0.984 . S
H359 N353 0.985 . S
H360 N357 0.984 . S
H361 N357 0.985 . S
H362 N356 0.984 . S
H363 N356 0.984 . S
H364 N352 0.984 . S
H365 N352 0.985 . S
C366 C367 1.363 1_556 S
C366 C372 1.379 . S
C366 N374 1.356 . S
C367 C366 1.363 1_554 S
C367 C373 1.363 . S
C368 C369 1.363 . S
C368 C373 1.379 . S
C368 N375 1.356 . S
C369 C368 1.363 . S
C369 C372 1.363 1_554 S
N370 C372 1.356 . S
N370 H382 0.984 . S
N370 H383 0.985 . S
N371 C373 1.356 . S
N371 H376 0.984 . S
N371 H377 0.985 . S
C372 C366 1.379 . S
C372 C369 1.363 1_556 S
C372 N370 1.356 . S
C373 C367 1.363 . S
C373 C368 1.379 . S
C373 N371 1.356 . S
N374 C366 1.356 . S
N374 H380 0.984 . S
N374 H381 0.984 . S
N375 C368 1.356 . S
N375 H378 0.984 . S
N375 H379 0.985 . S
H376 N371 0.984 . S
H377 N371 0.985 . S
H378 N375 0.984 . S
H379 N375 0.985 . S
H380 N374 0.984 . S
H381 N374 0.984 . S
H382 N370 0.984 . S
H383 N370 0.985 . S
C384 C385 1.363 1_556 S
C384 C390 1.379 . S
C384 N392 1.356 . S
C385 C384 1.363 1_554 S
C385 C391 1.363 . S
C386 C387 1.363 . S
C386 C391 1.379 . S
C386 N393 1.356 . S
C387 C386 1.363 . S
C387 C390 1.363 1_554 S
N388 C390 1.356 . S
N388 H400 0.984 . S
N388 H401 0.985 . S
N389 C391 1.356 . S
N389 H394 0.984 . S
N389 H395 0.985 . S
C390 C384 1.379 . S
C390 C387 1.363 1_556 S
C390 N388 1.356 . S
C391 C385 1.363 . S
C391 C386 1.379 . S
C391 N389 1.356 . S
N392 C384 1.356 . S
N392 H398 0.984 . S
N392 H399 0.984 . S
N393 C386 1.356 . S
N393 H396 0.984 . S
N393 H397 0.985 . S
H394 N389 0.984 . S
H395 N389 0.985 . S
H396 N393 0.984 . S
H397 N393 0.985 . S
H398 N392 0.984 . S
H399 N392 0.984 . S
H400 N388 0.984 . S
H401 N388 0.985 . S
C402 C403 1.363 . S
C402 C408 1.379 . S
C402 N410 1.356 . S
C403 C402 1.363 . S
C403 C409 1.363 1_554 S
C404 C405 1.363 1_556 S
C404 C409 1.379 . S
C404 N411 1.356 . S
C405 C404 1.363 1_554 S
C405 C408 1.363 . S
N406 C408 1.356 . S
N406 H418 0.984 . S
N406 H419 0.985 . S
N407 C409 1.356 . S
N407 H412 0.984 . S
N407 H413 0.985 . S
C408 C402 1.379 . S
C408 C405 1.363 . S
C408 N406 1.356 . S
C409 C403 1.363 1_556 S
C409 C404 1.379 . S
C409 N407 1.356 . S
N410 C402 1.356 . S
N410 H416 0.984 . S
N410 H417 0.984 . S
N411 C404 1.356 . S
N411 H414 0.984 . S
N411 H415 0.985 . S
H412 N407 0.984 . S
H413 N407 0.985 . S
H414 N411 0.984 . S
H415 N411 0.985 . S
H416 N410 0.984 . S
H417 N410 0.984 . S
H418 N406 0.984 . S
H419 N406 0.985 . S
C420 C421 1.363 . S
C420 C426 1.379 1_554 S
C420 N428 1.356 . S
C421 C420 1.363 . S
C421 C427 1.363 . S
C422 C423 1.363 . S
C422 C427 1.379 . S
C422 N429 1.356 . S
C423 C422 1.363 . S
C423 C426 1.363 1_554 S
N424 C426 1.356 . S
N424 H436 0.984 . S
N424 H437 0.985 . S
N425 C427 1.356 . S
N425 H430 0.984 . S
N425 H431 0.985 . S
C426 C420 1.379 1_556 S
C426 C423 1.363 1_556 S
C426 N424 1.356 . S
C427 C421 1.363 . S
C427 C422 1.379 . S
C427 N425 1.356 . S
N428 C420 1.356 . S
N428 H434 0.984 1_554 S
N428 H435 0.984 . S
N429 C422 1.356 . S
N429 H432 0.984 . S
N429 H433 0.985 . S
H430 N425 0.984 . S
H431 N425 0.985 . S
H432 N429 0.984 . S
H433 N429 0.985 . S
H434 N428 0.984 1_556 S
H435 N428 0.984 . S
H436 N424 0.984 . S
H437 N424 0.985 . S
C438 C439 1.363 1_556 S
C438 C444 1.379 . S
C438 N446 1.356 . S
C439 C438 1.363 1_554 S
C439 C445 1.363 . S
C440 C441 1.363 . S
C440 C445 1.379 . S
C440 N447 1.356 . S
C441 C440 1.363 . S
C441 C444 1.363 1_554 S
N442 C444 1.356 . S
N442 H454 0.984 . S
N442 H455 0.985 . S
N443 C445 1.356 . S
N443 H448 0.984 . S
N443 H449 0.985 . S
C444 C438 1.379 . S
C444 C441 1.363 1_556 S
C444 N442 1.356 . S
C445 C439 1.363 . S
C445 C440 1.379 . S
C445 N443 1.356 . S
N446 C438 1.356 . S
N446 H452 0.984 . S
N446 H453 0.984 . S
N447 C440 1.356 . S
N447 H450 0.984 . S
N447 H451 0.985 . S
H448 N443 0.984 . S
H449 N443 0.985 . S
H450 N447 0.984 . S
H451 N447 0.985 . S
H452 N446 0.984 . S
H453 N446 0.984 . S
H454 N442 0.984 . S
H455 N442 0.985 . S
C456 C457 1.363 . S
C456 C462 1.379 . S
C456 N464 1.356 . S
C457 C456 1.363 . S
C457 C463 1.363 . S
C458 C459 1.363 . S
C458 C463 1.379 . S
C458 N465 1.356 . S
C459 C458 1.363 . S
C459 C462 1.363 . S
N460 C462 1.356 . S
N460 H472 0.984 . S
N460 H473 0.985 . S
N461 C463 1.356 . S
N461 H466 0.984 . S
N461 H467 0.985 . S
C462 C456 1.379 . S
C462 C459 1.363 . S
C462 N460 1.356 . S
C463 C457 1.363 . S
C463 C458 1.379 . S
C463 N461 1.356 . S
N464 C456 1.356 . S
N464 H470 0.984 . S
N464 H471 0.984 . S
N465 C458 1.356 . S
N465 H468 0.984 . S
N465 H469 0.985 . S
H466 N461 0.984 . S
H467 N461 0.985 . S
H468 N465 0.984 . S
H469 N465 0.985 . S
H470 N464 0.984 . S
H471 N464 0.984 . S
H472 N460 0.984 . S
H473 N460 0.985 . S
C474 C475 1.363 . S
C474 C480 1.379 . S
C474 N482 1.356 . S
C475 C474 1.363 . S
C475 C481 1.363 . S
C476 C477 1.363 . S
C476 C481 1.379 . S
C476 N483 1.356 . S
C477 C476 1.363 . S
C477 C480 1.363 . S
N478 C480 1.356 . S
N478 H490 0.984 . S
N478 H491 0.985 . S
N479 C481 1.356 . S
N479 H484 0.984 . S
N479 H485 0.985 . S
C480 C474 1.379 . S
C480 C477 1.363 . S
C480 N478 1.356 . S
C481 C475 1.363 . S
C481 C476 1.379 . S
C481 N479 1.356 . S
N482 C474 1.356 . S
N482 H488 0.984 . S
N482 H489 0.984 . S
N483 C476 1.356 . S
N483 H486 0.984 . S
N483 H487 0.985 . S
H484 N479 0.984 . S
H485 N479 0.985 . S
H486 N483 0.984 . S
H487 N483 0.985 . S
H488 N482 0.984 . S
H489 N482 0.984 . S
H490 N478 0.984 . S
H491 N478 0.985 . S
C492 C493 1.363 . S
C492 C498 1.379 . S
C492 N500 1.356 . S
C493 C492 1.363 . S
C493 C499 1.363 . S
C494 C495 1.363 . S
C494 C499 1.379 . S
C494 N501 1.356 . S
C495 C494 1.363 . S
C495 C498 1.363 . S
N496 C498 1.356 . S
N496 H508 0.984 . S
N496 H509 0.985 . S
N497 C499 1.356 . S
N497 H502 0.984 . S
N497 H503 0.985 . S
C498 C492 1.379 . S
C498 C495 1.363 . S
C498 N496 1.356 . S
C499 C493 1.363 . S
C499 C494 1.379 . S
C499 N497 1.356 . S
N500 C492 1.356 . S
N500 H506 0.984 . S
N500 H507 0.984 . S
N501 C494 1.356 . S
N501 H504 0.984 . S
N501 H505 0.985 . S
H502 N497 0.984 . S
H503 N497 0.985 . S
H504 N501 0.984 . S
H505 N501 0.985 . S
H506 N500 0.984 . S
H507 N500 0.984 . S
H508 N496 0.984 . S
H509 N496 0.985 . S
C510 C511 1.363 . S
C510 C516 1.379 . S
C510 N518 1.356 . S
C511 C510 1.363 . S
C511 C517 1.363 . S
C512 C513 1.363 . S
C512 C517 1.379 . S
C512 N519 1.356 . S
C513 C512 1.363 . S
C513 C516 1.363 . S
N514 C516 1.356 . S
N514 H526 0.984 . S
N514 H527 0.985 . S
N515 C517 1.356 . S
N515 H520 0.984 . S
N515 H521 0.985 . S
C516 C510 1.379 . S
C516 C513 1.363 . S
C516 N514 1.356 . S
C517 C511 1.363 . S
C517 C512 1.379 . S
C517 N515 1.356 . S
N518 C510 1.356 . S
N518 H524 0.984 . S
N518 H525 0.984 . S
N519 C512 1.356 . S
N519 H522 0.984 . S
N519 H523 0.985 . S
H520 N515 0.984 . S
H521 N515 0.985 . S
H522 N519 0.984 . S
H523 N519 0.985 . S
H524 N518 0.984 . S
H525 N518 0.984 . S
H526 N514 0.984 . S
H527 N514 0.985 . S
C528 C529 1.363 . S
C528 C534 1.379 . S
C528 N536 1.356 . S
C529 C528 1.363 . S
C529 C535 1.363 . S
C530 C531 1.363 . S
C530 C535 1.379 . S
C530 N537 1.356 . S
C531 C530 1.363 . S
C531 C534 1.363 . S
N532 C534 1.356 . S
N532 H544 0.984 . S
N532 H545 0.985 . S
N533 C535 1.356 . S
N533 H538 0.984 . S
N533 H539 0.985 . S
C534 C528 1.379 . S
C534 C531 1.363 . S
C534 N532 1.356 . S
C535 C529 1.363 . S
C535 C530 1.379 . S
C535 N533 1.356 . S
N536 C528 1.356 . S
N536 H542 0.984 . S
N536 H543 0.984 . S
N537 C530 1.356 . S
N537 H540 0.984 . S
N537 H541 0.985 . S
H538 N533 0.984 . S
H539 N533 0.985 . S
H540 N537 0.984 . S
H541 N537 0.985 . S
H542 N536 0.984 . S
H543 N536 0.984 . S
H544 N532 0.984 . S
H545 N532 0.985 . S
C546 C547 1.363 . S
C546 C552 1.379 . S
C546 N554 1.356 . S
C547 C546 1.363 . S
C547 C553 1.363 . S
C548 C549 1.363 . S
C548 C553 1.379 . S
C548 N555 1.356 . S
C549 C548 1.363 . S
C549 C552 1.363 . S
N550 C552 1.356 . S
N550 H562 0.984 . S
N550 H563 0.985 . S
N551 C553 1.356 . S
N551 H556 0.984 . S
N551 H557 0.985 . S
C552 C546 1.379 . S
C552 C549 1.363 . S
C552 N550 1.356 . S
C553 C547 1.363 . S
C553 C548 1.379 . S
C553 N551 1.356 . S
N554 C546 1.356 . S
N554 H560 0.984 . S
N554 H561 0.984 . S
N555 C548 1.356 . S
N555 H558 0.984 . S
N555 H559 0.985 . S
H556 N551 0.984 . S
H557 N551 0.985 . S
H558 N555 0.984 . S
H559 N555 0.985 . S
H560 N554 0.984 . S
H561 N554 0.984 . S
H562 N550 0.984 . S
H563 N550 0.985 . S
C241 C219 2.306 1_556 S
C243 C15 1.942 . S
C259 C19 2.306 1_556 S
C261 C55 1.942 1_455 S
C277 C59 2.306 1_556 S
C279 C95 1.943 1_545 S
C295 C135 1.942 . S
C297 C99 2.306 1_556 S
C313 C175 1.942 1_655 S
C315 C139 2.306 1_556 S
C331 C179 2.306 1_556 S
C333 C215 1.943 1_565 S
C349 C170 1.877 1_554 S
C351 C6 1.864 . S
C367 C210 1.877 1_554 S
C369 C46 1.864 . S
C385 C86 1.864 . S
C387 C10 1.877 1_554 S
C403 C126 1.864 . S
C405 C50 1.877 1_554 S
C421 C166 1.864 . S
C423 C90 1.877 1_554 S
C439 C130 1.877 1_554 S
C441 C206 1.864 . S
C457 C9 1.434 . S
C459 C18 1.434 . S
C475 C49 1.434 . S
C477 C58 1.434 . S
C493 C89 1.434 . S
C495 C98 1.434 . S
C511 C129 1.434 . S
C513 C138 1.434 . S
C529 C178 1.434 . S
C531 C169 1.434 . S
C547 C209 1.434 . S
C549 C218 1.434 . S
