# Generated by pormake.
# Topology mdf, (4)-cn, num edge types: 1
# Building blocks:
#     Node 0, Type 0, BuildingBlock: GALJAG_clean_sbu_0, # of connection points: 4
#     Node 1, Type 0, BuildingBlock: GALJAG_clean_sbu_0, # of connection points: 4
#     Node 2, Type 0, BuildingBlock: GALJAG_clean_sbu_0, # of connection points: 4
#     Node 3, Type 0, BuildingBlock: GALJAG_clean_sbu_0, # of connection points: 4
#     Node 4, Type 0, BuildingBlock: GALJAG_clean_sbu_0, # of connection points: 4
#     Node 5, Type 0, BuildingBlock: GALJAG_clean_sbu_0, # of connection points: 4
#     Node 6, Type 0, BuildingBlock: GALJAG_clean_sbu_0, # of connection points: 4
#     Node 7, Type 0, BuildingBlock: GALJAG_clean_sbu_0, # of connection points: 4
#     Edge 8, Type (0, 0), BuildingBlock: CIFDUS_clean_linker_0, # of connection points: 2
#     Edge 9, Type (0, 0), BuildingBlock: CIFDUS_clean_linker_0, # of connection points: 2
#     Edge 10, Type (0, 0), BuildingBlock: CIFDUS_clean_linker_0, # of connection points: 2
#     Edge 11, Type (0, 0), BuildingBlock: CIFDUS_clean_linker_0, # of connection points: 2
#     Edge 12, Type (0, 0), BuildingBlock: CIFDUS_clean_linker_0, # of connection points: 2
#     Edge 13, Type (0, 0), BuildingBlock: CIFDUS_clean_linker_0, # of connection points: 2
#     Edge 14, Type (0, 0), BuildingBlock: CIFDUS_clean_linker_0, # of connection points: 2
#     Edge 15, Type (0, 0), BuildingBlock: CIFDUS_clean_linker_0, # of connection points: 2
#     Edge 16, Type (0, 0), BuildingBlock: CIFDUS_clean_linker_0, # of connection points: 2
#     Edge 17, Type (0, 0), BuildingBlock: CIFDUS_clean_linker_0, # of connection points: 2
#     Edge 18, Type (0, 0), BuildingBlock: CIFDUS_clean_linker_0, # of connection points: 2
#     Edge 19, Type (0, 0), BuildingBlock: CIFDUS_clean_linker_0, # of connection points: 2
#     Edge 20, Type (0, 0), BuildingBlock: CIFDUS_clean_linker_0, # of connection points: 2
#     Edge 21, Type (0, 0), BuildingBlock: CIFDUS_clean_linker_0, # of connection points: 2
#     Edge 22, Type (0, 0), BuildingBlock: CIFDUS_clean_linker_0, # of connection points: 2
#     Edge 23, Type (0, 0), BuildingBlock: CIFDUS_clean_linker_0, # of connection points: 2
# Relax obj value: 0.054
# Max RMSD: 0.086
# Mean RMSD: 0.086
data_MOF--net-mdf--node1-GALJAG_clean_sbu_0--edge1-CIFDUS_clean_linker_0
_symmetry_space_group_name_H-M    P1
_symmetry_Int_Tables_number       1
_symmetry_cell_setting            triclinic
loop_
_symmetry_equiv_pos_as_xyz
'x, y, z'
_cell_length_a     34.365669
_cell_length_b     34.353727
_cell_length_c     9.4520914
_cell_angle_alpha  90.142305
_cell_angle_beta   90.097239
_cell_angle_gamma 89.9847
loop_
_atom_site_label
_atom_site_type_symbol
_atom_site_fract_x
_atom_site_fract_y
_atom_site_fract_z
_atom_type_partial_charge
In0 In 0.25204 0.51709 0.40331 0.0
O1 O 0.26376 0.5422 0.18313 0.0
O2 O 0.29541 0.56524 0.35801 0.0
C3 C 0.19479 0.46421 0.36105 0.0
C4 C 0.31126 0.46966 0.47657 0.0
C5 C 0.21317 0.56933 0.5615 0.0
O6 O 0.21008 0.48273 0.25989 0.0
O7 O 0.20833 0.47251 0.48132 0.0
O8 O 0.23982 0.5481 0.61188 0.0
O9 O 0.20641 0.56431 0.43138 0.0
C10 C 0.28908 0.56617 0.22657 0.0
O11 O 0.29474 0.49196 0.56432 0.0
O12 O 0.29802 0.47149 0.35225 0.0
In13 In 0.47633 0.75169 0.64147 0.0
O14 O 0.45351 0.73866 0.86406 0.0
O15 O 0.43005 0.70692 0.68957 0.0
C16 C 0.52859 0.81001 0.66626 0.0
C17 C 0.52456 0.69328 0.5684 0.0
C18 C 0.42079 0.79044 0.5001 0.0
O19 O 0.51165 0.79571 0.77308 0.0
O20 O 0.51907 0.79486 0.54969 0.0
O21 O 0.44173 0.76481 0.44118 0.0
O22 O 0.42784 0.79612 0.62965 0.0
C23 C 0.42991 0.71282 0.82143 0.0
O24 O 0.50117 0.70843 0.48092 0.0
O25 O 0.52329 0.7075 0.69152 0.0
In26 In 0.25454 0.97508 0.83434 0.0
O27 O 0.2696 0.94197 0.03633 0.0
O28 O 0.29957 0.92694 0.84701 0.0
C29 C 0.1969 0.02292 0.92068 0.0
C30 C 0.31072 0.02677 0.77158 0.0
C31 C 0.21498 0.92827 0.65839 0.0
O32 O 0.21627 0.00247 0.00655 0.0
O33 O 0.20657 0.01898 0.79292 0.0
O34 O 0.23966 0.9526 0.61414 0.0
O35 O 0.21041 0.92772 0.79087 0.0
C36 C 0.29476 0.92061 0.97717 0.0
O37 O 0.29348 0.00705 0.67772 0.0
O38 O 0.29971 0.02023 0.89641 0.0
In39 In 0.01301 0.75343 0.09543 0.0
O40 O 0.96948 0.7044 0.05715 0.0
O41 O 0.98191 0.71997 0.26981 0.0
C42 C 0.06518 0.78998 0.26019 0.0
C43 C 0.06304 0.71409 0.92876 0.0
C44 C 0.96387 0.81112 0.01836 0.0
O45 O 0.04304 0.7636 0.30605 0.0
O46 O 0.06097 0.798 0.13075 0.0
O47 O 0.98087 0.7897 0.92917 0.0
O48 O 0.97182 0.80354 0.14543 0.0
C49 C 0.96311 0.69832 0.18649 0.0
O50 O 0.04002 0.73944 0.88023 0.0
O51 O 0.06058 0.70862 0.06031 0.0
In52 In 0.74599 0.026 0.85674 0.0
O53 O 0.75964 0.04852 0.63419 0.0
O54 O 0.79159 0.07145 0.80907 0.0
C55 C 0.68789 0.97353 0.83222 0.0
C56 C 0.80399 0.97758 0.93167 0.0
C57 C 0.70705 0.08199 0.99543 0.0
O58 O 0.70244 0.99016 0.72518 0.0
O59 O 0.70257 0.9836 0.949 0.0
O60 O 0.73244 0.06105 0.0556 0.0
O61 O 0.70168 0.07471 0.86586 0.0
C62 C 0.78591 0.0716 0.67712 0.0
O63 O 0.7893 0.00165 0.01796 0.0
O64 O 0.78945 0.97826 0.80903 0.0
In65 In 0.98639 0.24476 0.09712 0.0
O66 O 0.96168 0.23267 0.31765 0.0
O67 O 0.93776 0.20191 0.14221 0.0
C68 C 0.03879 0.30245 0.139 0.0
C69 C 0.03375 0.18548 0.02334 0.0
C70 C 0.93404 0.28364 0.93983 0.0
O71 O 0.01998 0.28745 0.24001 0.0
O72 O 0.03115 0.28827 0.01909 0.0
O73 O 0.95523 0.25702 0.88886 0.0
O74 O 0.9392 0.29038 0.06987 0.0
C75 C 0.93717 0.20791 0.27389 0.0
O76 O 0.01137 0.20198 0.93595 0.0
O77 O 0.03205 0.19876 0.1477 0.0
In78 In 0.74889 0.48403 0.41295 0.0
O79 O 0.76373 0.45734 0.62801 0.0
O80 O 0.79288 0.43558 0.4462 0.0
C81 C 0.69072 0.53287 0.48725 0.0
C82 C 0.80523 0.53335 0.32801 0.0
C83 C 0.7106 0.43435 0.24315 0.0
O84 O 0.71 0.51379 0.57726 0.0
O85 O 0.70076 0.52723 0.36074 0.0
O86 O 0.73541 0.45824 0.19741 0.0
O87 O 0.70506 0.4355 0.37513 0.0
C88 C 0.78827 0.43366 0.57825 0.0
O89 O 0.78837 0.51012 0.2448 0.0
O90 O 0.79381 0.53163 0.45454 0.0
In91 In 0.52277 0.24957 0.65888 0.0
O92 O 0.49055 0.21085 0.81543 0.0
O93 O 0.47871 0.20333 0.59631 0.0
C94 C 0.56955 0.28886 0.83564 0.0
C95 C 0.5775 0.20982 0.5154 0.0
C96 C 0.47442 0.30695 0.57441 0.0
O97 O 0.54591 0.2634 0.87889 0.0
O98 O 0.56938 0.29443 0.70363 0.0
O99 O 0.49518 0.28807 0.48796 0.0
O100 O 0.47829 0.29691 0.70177 0.0
C101 C 0.47171 0.19277 0.72134 0.0
O102 O 0.55576 0.23461 0.45611 0.0
O103 O 0.57144 0.20522 0.64581 0.0
H104 H 0.37499 0.66004 0.7472 0.0
H105 H 0.42775 0.71519 0.11073 0.0
H106 H 0.38784 0.67533 0.26817 0.0
H107 H 0.33975 0.62313 0.30191 0.0
H108 H 0.28677 0.56846 0.93787 0.0
H109 H 0.32487 0.61004 0.78081 0.0
C110 C 0.37769 0.66344 0.86092 0.0
C111 C 0.40453 0.6903 0.91731 0.0
C112 C 0.35467 0.64049 0.95044 0.0
C113 C 0.40745 0.6946 0.06476 0.0
C114 C 0.38466 0.67179 0.15475 0.0
C115 C 0.33645 0.62041 0.18817 0.0
C116 C 0.31063 0.59261 0.13152 0.0
C117 C 0.35848 0.64437 0.09869 0.0
C118 C 0.30646 0.5896 0.98405 0.0
C119 C 0.3283 0.61331 0.89425 0.0
H120 H 0.41027 0.79428 0.21588 0.0
H121 H 0.36631 0.83903 0.61157 0.0
H122 H 0.32142 0.88161 0.48447 0.0
H123 H 0.29746 0.90893 0.26089 0.0
H124 H 0.34373 0.86645 0.86535 0.0
H125 H 0.38478 0.8201 0.9921 0.0
C126 C 0.39061 0.81311 0.2741 0.0
C127 C 0.39168 0.81368 0.42263 0.0
C128 C 0.36547 0.8381 0.20036 0.0
C129 C 0.36614 0.83826 0.49699 0.0
C130 C 0.3405 0.86263 0.42447 0.0
C131 C 0.31636 0.88935 0.20257 0.0
C132 C 0.31776 0.89123 0.05426 0.0
C133 C 0.34037 0.86326 0.27618 0.0
C134 C 0.34234 0.8657 0.9798 0.0
C135 C 0.36581 0.83918 0.05212 0.0
H136 H 0.11974 0.84255 0.18105 0.0
H137 H 0.07298 0.78336 0.54552 0.0
H138 H 0.11659 0.81994 0.70044 0.0
H139 H 0.16567 0.87077 0.73315 0.0
H140 H 0.2132 0.92972 0.36963 0.0
H141 H 0.17172 0.89098 0.21294 0.0
C142 C 0.11924 0.8376 0.29434 0.0
C143 C 0.09302 0.81061 0.35207 0.0
C144 C 0.14439 0.85871 0.38269 0.0
C145 C 0.09286 0.80413 0.49875 0.0
C146 C 0.11772 0.82505 0.58738 0.0
C147 C 0.16706 0.87502 0.61957 0.0
C148 C 0.19207 0.90326 0.56291 0.0
C149 C 0.14323 0.85273 0.53061 0.0
C150 C 0.19396 0.90824 0.41562 0.0
C151 C 0.17023 0.88616 0.3261 0.0
H152 H 0.12109 0.66669 0.01627 0.0
H153 H 0.06598 0.71173 0.64018 0.0
H154 H 0.10884 0.67194 0.49253 0.0
H155 H 0.15989 0.62205 0.47143 0.0
H156 H 0.21544 0.57783 0.84811 0.0
H157 H 0.17461 0.61981 0.99473 0.0
C158 C 0.11855 0.66788 0.90195 0.0
C159 C 0.09023 0.6918 0.83909 0.0
C160 C 0.14329 0.64503 0.81808 0.0
C161 C 0.08752 0.69343 0.69093 0.0
C162 C 0.11195 0.67064 0.60656 0.0
C163 C 0.16317 0.62177 0.58558 0.0
C164 C 0.1904 0.59668 0.64902 0.0
C165 C 0.13961 0.64599 0.66912 0.0
C166 C 0.19462 0.59684 0.79686 0.0
C167 C 0.17122 0.62075 0.88075 0.0
H168 H 0.84037 0.12476 0.752 0.0
H169 H 0.78385 0.07386 0.38776 0.0
H170 H 0.8252 0.11241 0.23086 0.0
H171 H 0.87893 0.15881 0.19783 0.0
H172 H 0.93499 0.2099 0.56263 0.0
H173 H 0.8921 0.1731 0.71912 0.0
C174 C 0.83698 0.12218 0.63824 0.0
C175 C 0.80929 0.09627 0.5815 0.0
C176 C 0.86082 0.14438 0.54905 0.0
C177 C 0.80506 0.09347 0.434 0.0
C178 C 0.82872 0.11547 0.34433 0.0
C179 C 0.8817 0.16196 0.31161 0.0
C180 C 0.91024 0.18689 0.36866 0.0
C181 C 0.85695 0.1407 0.40076 0.0
C182 C 0.9133 0.19089 0.51617 0.0
C183 C 0.88883 0.1698 0.60564 0.0
H184 H 0.88158 0.33693 0.0318 0.0
H185 H 0.92477 0.28126 0.65347 0.0
H186 H 0.88231 0.32199 0.50848 0.0
H187 H 0.83533 0.37548 0.48883 0.0
H188 H 0.79131 0.43067 0.86677 0.0
H189 H 0.83162 0.3879 0.01275 0.0
C190 C 0.88154 0.3336 0.91764 0.0
C191 C 0.90647 0.30637 0.85324 0.0
C192 C 0.85707 0.35711 0.8351 0.0
C193 C 0.9059 0.30209 0.70543 0.0
C194 C 0.88171 0.32543 0.62249 0.0
C195 C 0.83446 0.37805 0.6032 0.0
C196 C 0.81073 0.40641 0.66702 0.0
C197 C 0.85758 0.35336 0.68613 0.0
C198 C 0.80952 0.40916 0.81525 0.0
C199 C 0.83258 0.38477 0.89867 0.0
H200 H 0.65934 0.37816 0.31856 0.0
H201 H 0.71359 0.43143 0.95569 0.0
H202 H 0.67541 0.3901 0.79762 0.0
H203 H 0.62494 0.34076 0.76252 0.0
H204 H 0.57101 0.2867 0.1243 0.0
H205 H 0.61095 0.32633 0.28327 0.0
C206 C 0.66287 0.38058 0.2049 0.0
C207 C 0.68894 0.40795 0.1487 0.0
C208 C 0.64087 0.35672 0.1147 0.0
C209 C 0.69353 0.41065 0.00139 0.0
C210 C 0.67171 0.38708 0.91095 0.0
C211 C 0.62202 0.33757 0.87617 0.0
C212 C 0.59489 0.31119 0.9318 0.0
C213 C 0.64502 0.36034 0.96648 0.0
C214 C 0.5916 0.30704 0.07912 0.0
C215 C 0.61438 0.32968 0.16996 0.0
H216 H 0.70377 0.09392 0.27892 0.0
H217 H 0.65789 0.13573 0.88207 0.0
H218 H 0.61546 0.18111 0.0079 0.0
H219 H 0.58856 0.20606 0.23119 0.0
H220 H 0.63234 0.16188 0.62781 0.0
H221 H 0.67851 0.12045 0.50183 0.0
C222 C 0.68472 0.1132 0.2201 0.0
C223 C 0.68379 0.11138 0.0717 0.0
C224 C 0.65986 0.13864 0.29313 0.0
C225 C 0.65895 0.13648 0.99661 0.0
C226 C 0.63466 0.1624 0.0684 0.0
C227 C 0.6084 0.18755 0.28986 0.0
C228 C 0.60691 0.18682 0.43833 0.0
C229 C 0.63441 0.16328 0.2167 0.0
C230 C 0.63278 0.16274 0.51325 0.0
C231 C 0.65919 0.13905 0.44139 0.0
H232 H 0.35504 0.42466 0.3019 0.0
H233 H 0.33807 0.45399 0.74177 0.0
H234 H 0.38787 0.40685 0.81008 0.0
H235 H 0.43452 0.35586 0.74561 0.0
H236 H 0.45249 0.32692 0.30607 0.0
H237 H 0.40407 0.37557 0.23655 0.0
C238 C 0.36236 0.42081 0.41265 0.0
C239 C 0.34276 0.44258 0.51676 0.0
C240 C 0.3911 0.39374 0.4511 0.0
C241 C 0.35271 0.43753 0.65971 0.0
C242 C 0.38113 0.41055 0.69885 0.0
C243 C 0.42794 0.36028 0.63452 0.0
C244 C 0.44683 0.33769 0.53111 0.0
C245 C 0.40023 0.38827 0.59557 0.0
C246 C 0.43826 0.34394 0.38761 0.0
C247 C 0.41055 0.37168 0.34788 0.0
H248 H 0.65546 0.94164 0.59532 0.0
H249 H 0.65026 0.93889 0.05127 0.0
H250 H 0.60006 0.88879 0.0412 0.0
H251 H 0.55829 0.84458 0.90304 0.0
H252 H 0.56427 0.8466 0.44715 0.0
H253 H 0.61321 0.89793 0.45715 0.0
C254 C 0.6432 0.93017 0.69232 0.0
C255 C 0.65662 0.94398 0.82364 0.0
C256 C 0.61445 0.90107 0.68594 0.0
C257 C 0.64052 0.92874 0.94857 0.0
C258 C 0.61177 0.90004 0.94307 0.0
C259 C 0.57024 0.85636 0.80603 0.0
C260 C 0.55766 0.84173 0.67476 0.0
C261 C 0.59863 0.88581 0.81239 0.0
C262 C 0.57348 0.85727 0.54982 0.0
C263 C 0.6015 0.88667 0.55528 0.0
H264 H 0.07938 0.142 0.19683 0.0
H265 H 0.04873 0.15834 0.75795 0.0
H266 H 0.09581 0.10862 0.68832 0.0
H267 H 0.1472 0.0623 0.75116 0.0
H268 H 0.17755 0.04497 0.18965 0.0
H269 H 0.12886 0.09321 0.26069 0.0
C270 C 0.08293 0.13455 0.08601 0.0
C271 C 0.0608 0.15398 0.98256 0.0
C272 C 0.10999 0.10586 0.04678 0.0
C273 C 0.06547 0.14386 0.83953 0.0
C274 C 0.09242 0.11548 0.79962 0.0
C275 C 0.14307 0.06897 0.86237 0.0
C276 C 0.16609 0.05032 0.96501 0.0
C277 C 0.11507 0.09659 0.90219 0.0
C278 C 0.16021 0.059 0.10868 0.0
C279 C 0.13245 0.08662 0.14927 0.0
H280 H 0.92477 0.64484 0.02794 0.0
H281 H 0.93954 0.68527 0.45733 0.0
H282 H 0.89237 0.63721 0.53967 0.0
H283 H 0.84599 0.58462 0.48875 0.0
H284 H 0.83171 0.54388 0.05947 0.0
H285 H 0.8798 0.59107 0.97799 0.0
C286 C 0.91769 0.64307 0.13954 0.0
C287 C 0.93543 0.66861 0.23635 0.0
C288 C 0.89067 0.61535 0.18609 0.0
C289 C 0.92619 0.6659 0.38074 0.0
C290 C 0.89923 0.63847 0.42788 0.0
C291 C 0.8535 0.58603 0.37746 0.0
C292 C 0.83526 0.56097 0.28019 0.0
C293 C 0.88115 0.61319 0.33138 0.0
C294 C 0.84533 0.56296 0.13638 0.0
C295 C 0.87278 0.58994 0.08966 0.0
H296 H 0.35278 0.06962 0.95759 0.0
H297 H 0.33621 0.04898 0.51092 0.0
H298 H 0.38503 0.09842 0.45608 0.0
H299 H 0.43152 0.14813 0.53525 0.0
H300 H 0.44833 0.16846 0.982 0.0
H301 H 0.40022 0.11836 0.03682 0.0
C302 C 0.35992 0.07589 0.84825 0.0
C303 C 0.34091 0.05581 0.73841 0.0
C304 C 0.38795 0.10426 0.81765 0.0
C305 C 0.35048 0.06411 0.59728 0.0
C306 C 0.37833 0.09237 0.56588 0.0
C307 C 0.42469 0.14154 0.64461 0.0
C308 C 0.44332 0.16198 0.75445 0.0
C309 C 0.3971 0.11272 0.67522 0.0
C310 C 0.43432 0.15309 0.89562 0.0
C311 C 0.40683 0.1245 0.92702 0.0
H312 H 0.84275 0.9286 0.75704 0.0
H313 H 0.83503 0.96463 0.19379 0.0
H314 H 0.88461 0.91672 0.25868 0.0
H315 H 0.92866 0.86334 0.19184 0.0
H316 H 0.93662 0.82792 0.75441 0.0
H317 H 0.88842 0.87704 0.689 0.0
C318 C 0.852 0.92606 0.86642 0.0
C319 C 0.83513 0.94995 0.97066 0.0
C320 C 0.88046 0.89856 0.90271 0.0
C321 C 0.84755 0.94651 0.1117 0.0
C322 C 0.87584 0.9191 0.14883 0.0
C323 C 0.91993 0.86647 0.08212 0.0
C324 C 0.93602 0.84193 0.97813 0.0
C325 C 0.89226 0.89478 0.04534 0.0
C326 C 0.92461 0.84644 0.83637 0.0
C327 C 0.89703 0.87446 0.79896 0.0
H328 H 0.06486 0.33425 0.38611 0.0
H329 H 0.07775 0.34144 0.93291 0.0
H330 H 0.12628 0.39274 0.96053 0.0
H331 H 0.16611 0.435 0.11357 0.0
H332 H 0.1542 0.42685 0.56689 0.0
H333 H 0.10439 0.3768 0.53909 0.0
C334 C 0.07824 0.34713 0.29352 0.0
C335 C 0.06772 0.33399 0.15783 0.0
C336 C 0.1064 0.37651 0.3101 0.0
C337 C 0.08537 0.35094 0.03876 0.0
C338 C 0.11315 0.38033 0.05434 0.0
C339 C 0.15249 0.42235 0.20611 0.0
C340 C 0.16388 0.43463 0.34193 0.0
C341 C 0.12403 0.39326 0.18949 0.0
C342 C 0.14604 0.41787 0.46097 0.0
C343 C 0.11752 0.38921 0.44528 0.0
H344 H 0.57008 0.65145 0.74592 0.0
H345 H 0.54116 0.66536 0.30449 0.0
H346 H 0.58964 0.61622 0.24065 0.0
H347 H 0.64165 0.57094 0.31014 0.0
H348 H 0.66974 0.55643 0.75208 0.0
H349 H 0.61998 0.60416 0.8161 0.0
C350 C 0.57429 0.64363 0.63574 0.0
C351 C 0.55226 0.66214 0.52994 0.0
C352 C 0.60208 0.61535 0.60005 0.0
C353 C 0.5578 0.65153 0.3878 0.0
C354 C 0.58556 0.62351 0.35128 0.0
C355 C 0.63679 0.57815 0.4205 0.0
C356 C 0.65948 0.56039 0.52624 0.0
C357 C 0.60808 0.6055 0.45645 0.0
C358 C 0.6527 0.56978 0.66878 0.0
C359 C 0.6243 0.59709 0.70541 0.0
loop_
_geom_bond_atom_site_label_1
_geom_bond_atom_site_label_2
_geom_bond_distance
_geom_bond_site_symmetry_2
_ccdc_geom_bond_type
In0 O1 2.294 . S
In0 O2 2.326 . S
In0 O6 2.266 . S
In0 O7 2.326 . S
In0 O8 2.266 . S
In0 O9 2.326 . S
In0 O11 2.294 . S
In0 O12 2.326 . S
O1 In0 2.294 . S
O1 C10 1.240 . S
O2 In0 2.326 . S
O2 C10 1.252 . S
C3 O6 1.252 . S
C3 O7 1.260 . S
C4 O11 1.240 . S
C4 O12 1.252 . S
C5 O8 1.252 . S
C5 O9 1.260 . S
O6 In0 2.266 . S
O6 C3 1.252 . S
O7 In0 2.326 . S
O7 C3 1.260 . S
O8 In0 2.266 . S
O8 C5 1.252 . S
O9 In0 2.326 . S
O9 C5 1.260 . S
C10 O1 1.240 . S
C10 O2 1.252 . S
O11 In0 2.294 . S
O11 C4 1.240 . S
O12 In0 2.326 . S
O12 C4 1.252 . S
In13 O14 2.294 . S
In13 O15 2.326 . S
In13 O19 2.266 . S
In13 O20 2.326 . S
In13 O21 2.266 . S
In13 O22 2.326 . S
In13 O24 2.294 . S
In13 O25 2.326 . S
O14 In13 2.294 . S
O14 C23 1.240 . S
O15 In13 2.326 . S
O15 C23 1.252 . S
C16 O19 1.252 . S
C16 O20 1.260 . S
C17 O24 1.240 . S
C17 O25 1.252 . S
C18 O21 1.252 . S
C18 O22 1.260 . S
O19 In13 2.266 . S
O19 C16 1.252 . S
O20 In13 2.326 . S
O20 C16 1.260 . S
O21 In13 2.266 . S
O21 C18 1.252 . S
O22 In13 2.326 . S
O22 C18 1.260 . S
C23 O14 1.240 . S
C23 O15 1.252 . S
O24 In13 2.294 . S
O24 C17 1.240 . S
O25 In13 2.326 . S
O25 C17 1.252 . S
In26 O27 2.294 1_556 S
In26 O28 2.326 . S
In26 O32 2.266 1_566 S
In26 O33 2.326 1_565 S
In26 O34 2.266 . S
In26 O35 2.326 . S
In26 O37 2.294 1_565 S
In26 O38 2.326 1_565 S
O27 In26 2.294 1_554 S
O27 C36 1.240 . S
O28 In26 2.326 . S
O28 C36 1.252 1_556 S
C29 O32 1.252 1_556 S
C29 O33 1.260 . S
C30 O37 1.240 . S
C30 O38 1.252 . S
C31 O34 1.252 . S
C31 O35 1.260 . S
O32 In26 2.266 1_544 S
O32 C29 1.252 1_554 S
O33 In26 2.326 1_545 S
O33 C29 1.260 . S
O34 In26 2.266 . S
O34 C31 1.252 . S
O35 In26 2.326 . S
O35 C31 1.260 . S
C36 O27 1.240 . S
C36 O28 1.252 1_554 S
O37 In26 2.294 1_545 S
O37 C30 1.240 . S
O38 In26 2.326 1_545 S
O38 C30 1.252 . S
In39 O40 2.294 1_455 S
In39 O41 2.326 1_455 S
In39 O45 2.266 . S
In39 O46 2.326 . S
In39 O47 2.266 1_454 S
In39 O48 2.326 1_455 S
In39 O50 2.294 1_554 S
In39 O51 2.326 . S
O40 In39 2.294 1_655 S
O40 C49 1.240 . S
O41 In39 2.326 1_655 S
O41 C49 1.252 . S
C42 O45 1.252 . S
C42 O46 1.260 . S
C43 O50 1.240 . S
C43 O51 1.252 1_556 S
C44 O47 1.252 1_554 S
C44 O48 1.260 . S
O45 In39 2.266 . S
O45 C42 1.252 . S
O46 In39 2.326 . S
O46 C42 1.260 . S
O47 In39 2.266 1_656 S
O47 C44 1.252 1_556 S
O48 In39 2.326 1_655 S
O48 C44 1.260 . S
C49 O40 1.240 . S
C49 O41 1.252 . S
O50 In39 2.294 1_556 S
O50 C43 1.240 . S
O51 In39 2.326 . S
O51 C43 1.252 1_554 S
In52 O53 2.294 . S
In52 O54 2.326 . S
In52 O58 2.266 1_545 S
In52 O59 2.326 1_545 S
In52 O60 2.266 1_556 S
In52 O61 2.326 . S
In52 O63 2.294 1_546 S
In52 O64 2.326 1_545 S
O53 In52 2.294 . S
O53 C62 1.240 . S
O54 In52 2.326 . S
O54 C62 1.252 . S
C55 O58 1.252 . S
C55 O59 1.260 . S
C56 O63 1.240 1_556 S
C56 O64 1.252 . S
C57 O60 1.252 . S
C57 O61 1.260 1_554 S
O58 In52 2.266 1_565 S
O58 C55 1.252 . S
O59 In52 2.326 1_565 S
O59 C55 1.260 . S
O60 In52 2.266 1_554 S
O60 C57 1.252 . S
O61 In52 2.326 . S
O61 C57 1.260 1_556 S
C62 O53 1.240 . S
C62 O54 1.252 . S
O63 In52 2.294 1_564 S
O63 C56 1.240 1_554 S
O64 In52 2.326 1_565 S
O64 C56 1.252 . S
In65 O66 2.294 . S
In65 O67 2.326 . S
In65 O71 2.266 1_655 S
In65 O72 2.326 1_655 S
In65 O73 2.266 1_554 S
In65 O74 2.326 . S
In65 O76 2.294 1_654 S
In65 O77 2.326 1_655 S
O66 In65 2.294 . S
O66 C75 1.240 . S
O67 In65 2.326 . S
O67 C75 1.252 . S
C68 O71 1.252 . S
C68 O72 1.260 . S
C69 O76 1.240 1_554 S
C69 O77 1.252 . S
C70 O73 1.252 . S
C70 O74 1.260 1_556 S
O71 In65 2.266 1_455 S
O71 C68 1.252 . S
O72 In65 2.326 1_455 S
O72 C68 1.260 . S
O73 In65 2.266 1_556 S
O73 C70 1.252 . S
O74 In65 2.326 . S
O74 C70 1.260 1_554 S
C75 O66 1.240 . S
C75 O67 1.252 . S
O76 In65 2.294 1_456 S
O76 C69 1.240 1_556 S
O77 In65 2.326 1_455 S
O77 C69 1.252 . S
In78 O79 2.294 . S
In78 O80 2.326 . S
In78 O84 2.266 . S
In78 O85 2.326 . S
In78 O86 2.266 . S
In78 O87 2.326 . S
In78 O89 2.294 . S
In78 O90 2.326 . S
O79 In78 2.294 . S
O79 C88 1.240 . S
O80 In78 2.326 . S
O80 C88 1.252 . S
C81 O84 1.252 . S
C81 O85 1.260 . S
C82 O89 1.240 . S
C82 O90 1.252 . S
C83 O86 1.252 . S
C83 O87 1.260 . S
O84 In78 2.266 . S
O84 C81 1.252 . S
O85 In78 2.326 . S
O85 C81 1.260 . S
O86 In78 2.266 . S
O86 C83 1.252 . S
O87 In78 2.326 . S
O87 C83 1.260 . S
C88 O79 1.240 . S
C88 O80 1.252 . S
O89 In78 2.294 . S
O89 C82 1.240 . S
O90 In78 2.326 . S
O90 C82 1.252 . S
In91 O92 2.294 . S
In91 O93 2.326 . S
In91 O97 2.266 . S
In91 O98 2.326 . S
In91 O99 2.266 . S
In91 O100 2.326 . S
In91 O102 2.294 . S
In91 O103 2.326 . S
O92 In91 2.294 . S
O92 C101 1.240 . S
O93 In91 2.326 . S
O93 C101 1.252 . S
C94 O97 1.252 . S
C94 O98 1.260 . S
C95 O102 1.240 . S
C95 O103 1.252 . S
C96 O99 1.252 . S
C96 O100 1.260 . S
O97 In91 2.266 . S
O97 C94 1.252 . S
O98 In91 2.326 . S
O98 C94 1.260 . S
O99 In91 2.266 . S
O99 C96 1.252 . S
O100 In91 2.326 . S
O100 C96 1.260 . S
C101 O92 1.240 . S
C101 O93 1.252 . S
O102 In91 2.294 . S
O102 C95 1.240 . S
O103 In91 2.326 . S
O103 C95 1.252 . S
H104 C110 0.930 . S
H105 C113 0.930 . S
H106 C114 0.930 . S
H107 C115 0.930 . S
H108 C118 0.930 . S
H109 C119 0.930 . S
C110 H104 0.930 . S
C110 C111 1.355 . S
C110 C112 1.415 . S
C111 C110 1.355 . S
C111 C113 1.419 . S
C112 C110 1.415 . S
C112 C117 1.425 1_556 S
C112 C119 1.409 . S
C113 H105 0.930 . S
C113 C111 1.419 . S
C113 C114 1.362 1_556 S
C114 H106 0.930 . S
C114 C113 1.362 1_554 S
C114 C117 1.409 . S
C115 H107 0.930 . S
C115 C116 1.355 . S
C115 C117 1.415 . S
C116 C115 1.355 . S
C116 C118 1.419 . S
C117 C112 1.425 1_554 S
C117 C114 1.409 . S
C117 C115 1.415 . S
C118 H108 0.930 . S
C118 C116 1.419 . S
C118 C119 1.362 1_554 S
C119 H109 0.930 . S
C119 C112 1.409 . S
C119 C118 1.362 1_556 S
H120 C126 0.930 . S
H121 C129 0.930 . S
H122 C130 0.930 . S
H123 C131 0.930 . S
H124 C134 0.930 . S
H125 C135 0.930 . S
C126 H120 0.930 . S
C126 C127 1.355 . S
C126 C128 1.415 . S
C127 C126 1.355 . S
C127 C129 1.419 . S
C128 C126 1.415 . S
C128 C133 1.425 . S
C128 C135 1.409 . S
C129 H121 0.930 . S
C129 C127 1.419 . S
C129 C130 1.362 . S
C130 H122 0.930 . S
C130 C129 1.362 . S
C130 C133 1.409 . S
C131 H123 0.930 . S
C131 C132 1.355 . S
C131 C133 1.415 . S
C132 C131 1.355 . S
C132 C134 1.419 . S
C133 C128 1.425 . S
C133 C130 1.409 . S
C133 C131 1.415 . S
C134 H124 0.930 . S
C134 C132 1.419 . S
C134 C135 1.362 . S
C135 H125 0.930 . S
C135 C128 1.409 . S
C135 C134 1.362 . S
H136 C142 0.930 . S
H137 C145 0.930 . S
H138 C146 0.930 . S
H139 C147 0.930 . S
H140 C150 0.930 . S
H141 C151 0.930 . S
C142 H136 0.930 . S
C142 C143 1.355 . S
C142 C144 1.415 . S
C143 C142 1.355 . S
C143 C145 1.419 . S
C144 C142 1.415 . S
C144 C149 1.425 . S
C144 C151 1.409 . S
C145 H137 0.930 . S
C145 C143 1.419 . S
C145 C146 1.362 . S
C146 H138 0.930 . S
C146 C145 1.362 . S
C146 C149 1.409 . S
C147 H139 0.930 . S
C147 C148 1.355 . S
C147 C149 1.415 . S
C148 C147 1.355 . S
C148 C150 1.419 . S
C149 C144 1.425 . S
C149 C146 1.409 . S
C149 C147 1.415 . S
C150 H140 0.930 . S
C150 C148 1.419 . S
C150 C151 1.362 . S
C151 H141 0.930 . S
C151 C144 1.409 . S
C151 C150 1.362 . S
H152 C158 0.930 . S
H153 C161 0.930 . S
H154 C162 0.930 . S
H155 C163 0.930 . S
H156 C166 0.930 . S
H157 C167 0.930 . S
C158 H152 0.930 . S
C158 C159 1.355 . S
C158 C160 1.415 . S
C159 C158 1.355 . S
C159 C161 1.419 . S
C160 C158 1.415 . S
C160 C165 1.425 . S
C160 C167 1.409 . S
C161 H153 0.930 . S
C161 C159 1.419 . S
C161 C162 1.362 . S
C162 H154 0.930 . S
C162 C161 1.362 . S
C162 C165 1.409 . S
C163 H155 0.930 . S
C163 C164 1.355 . S
C163 C165 1.415 . S
C164 C163 1.355 . S
C164 C166 1.419 . S
C165 C160 1.425 . S
C165 C162 1.409 . S
C165 C163 1.415 . S
C166 H156 0.930 . S
C166 C164 1.419 . S
C166 C167 1.362 . S
C167 H157 0.930 . S
C167 C160 1.409 . S
C167 C166 1.362 . S
H168 C174 0.930 . S
H169 C177 0.930 . S
H170 C178 0.930 . S
H171 C179 0.930 . S
H172 C182 0.930 . S
H173 C183 0.930 . S
C174 H168 0.930 . S
C174 C175 1.355 . S
C174 C176 1.415 . S
C175 C174 1.355 . S
C175 C177 1.419 . S
C176 C174 1.415 . S
C176 C181 1.425 . S
C176 C183 1.409 . S
C177 H169 0.930 . S
C177 C175 1.419 . S
C177 C178 1.362 . S
C178 H170 0.930 . S
C178 C177 1.362 . S
C178 C181 1.409 . S
C179 H171 0.930 . S
C179 C180 1.355 . S
C179 C181 1.415 . S
C180 C179 1.355 . S
C180 C182 1.419 . S
C181 C176 1.425 . S
C181 C178 1.409 . S
C181 C179 1.415 . S
C182 H172 0.930 . S
C182 C180 1.419 . S
C182 C183 1.362 . S
C183 H173 0.930 . S
C183 C176 1.409 . S
C183 C182 1.362 . S
H184 C190 0.930 . S
H185 C193 0.930 . S
H186 C194 0.930 . S
H187 C195 0.930 . S
H188 C198 0.930 . S
H189 C199 0.930 . S
C190 H184 0.930 . S
C190 C191 1.355 . S
C190 C192 1.415 . S
C191 C190 1.355 . S
C191 C193 1.419 . S
C192 C190 1.415 . S
C192 C197 1.425 . S
C192 C199 1.409 . S
C193 H185 0.930 . S
C193 C191 1.419 . S
C193 C194 1.362 . S
C194 H186 0.930 . S
C194 C193 1.362 . S
C194 C197 1.409 . S
C195 H187 0.930 . S
C195 C196 1.355 . S
C195 C197 1.415 . S
C196 C195 1.355 . S
C196 C198 1.419 . S
C197 C192 1.425 . S
C197 C194 1.409 . S
C197 C195 1.415 . S
C198 H188 0.930 . S
C198 C196 1.419 . S
C198 C199 1.362 . S
C199 H189 0.930 . S
C199 C192 1.409 . S
C199 C198 1.362 . S
H200 C206 0.930 . S
H201 C209 0.930 . S
H202 C210 0.930 . S
H203 C211 0.930 . S
H204 C214 0.930 . S
H205 C215 0.930 . S
C206 H200 0.930 . S
C206 C207 1.355 . S
C206 C208 1.415 . S
C207 C206 1.355 . S
C207 C209 1.419 . S
C208 C206 1.415 . S
C208 C213 1.425 1_554 S
C208 C215 1.409 . S
C209 H201 0.930 . S
C209 C207 1.419 . S
C209 C210 1.362 1_554 S
C210 H202 0.930 . S
C210 C209 1.362 1_556 S
C210 C213 1.409 . S
C211 H203 0.930 . S
C211 C212 1.355 . S
C211 C213 1.415 . S
C212 C211 1.355 . S
C212 C214 1.419 . S
C213 C208 1.425 1_556 S
C213 C210 1.409 . S
C213 C211 1.415 . S
C214 H204 0.930 . S
C214 C212 1.419 . S
C214 C215 1.362 1_556 S
C215 H205 0.930 . S
C215 C208 1.409 . S
C215 C214 1.362 1_554 S
H216 C222 0.930 . S
H217 C225 0.930 1_556 S
H218 C226 0.930 . S
H219 C227 0.930 . S
H220 C230 0.930 . S
H221 C231 0.930 . S
C222 H216 0.930 . S
C222 C223 1.355 . S
C222 C224 1.415 . S
C223 C222 1.355 . S
C223 C225 1.419 . S
C224 C222 1.415 . S
C224 C229 1.425 . S
C224 C231 1.409 . S
C225 H217 0.930 1_554 S
C225 C223 1.419 . S
C225 C226 1.362 . S
C226 H218 0.930 . S
C226 C225 1.362 . S
C226 C229 1.409 . S
C227 H219 0.930 . S
C227 C228 1.355 . S
C227 C229 1.415 . S
C228 C227 1.355 . S
C228 C230 1.419 . S
C229 C224 1.425 . S
C229 C226 1.409 . S
C229 C227 1.415 . S
C230 H220 0.930 . S
C230 C228 1.419 . S
C230 C231 1.362 . S
C231 H221 0.930 . S
C231 C224 1.409 . S
C231 C230 1.362 . S
H232 C238 0.930 . S
H233 C241 0.930 . S
H234 C242 0.930 . S
H235 C243 0.930 . S
H236 C246 0.930 . S
H237 C247 0.930 . S
C238 H232 0.930 . S
C238 C239 1.355 . S
C238 C240 1.415 . S
C239 C238 1.355 . S
C239 C241 1.419 . S
C240 C238 1.415 . S
C240 C245 1.425 . S
C240 C247 1.409 . S
C241 H233 0.930 . S
C241 C239 1.419 . S
C241 C242 1.362 . S
C242 H234 0.930 . S
C242 C241 1.362 . S
C242 C245 1.409 . S
C243 H235 0.930 . S
C243 C244 1.355 . S
C243 C245 1.415 . S
C244 C243 1.355 . S
C244 C246 1.419 . S
C245 C240 1.425 . S
C245 C242 1.409 . S
C245 C243 1.415 . S
C246 H236 0.930 . S
C246 C244 1.419 . S
C246 C247 1.362 . S
C247 H237 0.930 . S
C247 C240 1.409 . S
C247 C246 1.362 . S
H248 C254 0.930 . S
H249 C257 0.930 . S
H250 C258 0.930 . S
H251 C259 0.930 . S
H252 C262 0.930 . S
H253 C263 0.930 . S
C254 H248 0.930 . S
C254 C255 1.355 . S
C254 C256 1.415 . S
C255 C254 1.355 . S
C255 C257 1.419 . S
C256 C254 1.415 . S
C256 C261 1.425 . S
C256 C263 1.409 . S
C257 H249 0.930 . S
C257 C255 1.419 . S
C257 C258 1.362 . S
C258 H250 0.930 . S
C258 C257 1.362 . S
C258 C261 1.409 . S
C259 H251 0.930 . S
C259 C260 1.355 . S
C259 C261 1.415 . S
C260 C259 1.355 . S
C260 C262 1.419 . S
C261 C256 1.425 . S
C261 C258 1.409 . S
C261 C259 1.415 . S
C262 H252 0.930 . S
C262 C260 1.419 . S
C262 C263 1.362 . S
C263 H253 0.930 . S
C263 C256 1.409 . S
C263 C262 1.362 . S
H264 C270 0.930 . S
H265 C273 0.930 . S
H266 C274 0.930 . S
H267 C275 0.930 . S
H268 C278 0.930 . S
H269 C279 0.930 . S
C270 H264 0.930 . S
C270 C271 1.355 . S
C270 C272 1.415 . S
C271 C270 1.355 . S
C271 C273 1.419 1_554 S
C272 C270 1.415 . S
C272 C277 1.425 1_554 S
C272 C279 1.409 . S
C273 H265 0.930 . S
C273 C271 1.419 1_556 S
C273 C274 1.362 . S
C274 H266 0.930 . S
C274 C273 1.362 . S
C274 C277 1.409 . S
C275 H267 0.930 . S
C275 C276 1.355 . S
C275 C277 1.415 . S
C276 C275 1.355 . S
C276 C278 1.419 1_556 S
C277 C272 1.425 1_556 S
C277 C274 1.409 . S
C277 C275 1.415 . S
C278 H268 0.930 . S
C278 C276 1.419 1_554 S
C278 C279 1.362 . S
C279 H269 0.930 . S
C279 C272 1.409 . S
C279 C278 1.362 . S
H280 C286 0.930 . S
H281 C289 0.930 . S
H282 C290 0.930 . S
H283 C291 0.930 . S
H284 C294 0.930 . S
H285 C295 0.930 . S
C286 H280 0.930 . S
C286 C287 1.355 . S
C286 C288 1.415 . S
C287 C286 1.355 . S
C287 C289 1.419 . S
C288 C286 1.415 . S
C288 C293 1.425 . S
C288 C295 1.409 . S
C289 H281 0.930 . S
C289 C287 1.419 . S
C289 C290 1.362 . S
C290 H282 0.930 . S
C290 C289 1.362 . S
C290 C293 1.409 . S
C291 H283 0.930 . S
C291 C292 1.355 . S
C291 C293 1.415 . S
C292 C291 1.355 . S
C292 C294 1.419 . S
C293 C288 1.425 . S
C293 C290 1.409 . S
C293 C291 1.415 . S
C294 H284 0.930 . S
C294 C292 1.419 . S
C294 C295 1.362 . S
C295 H285 0.930 . S
C295 C288 1.409 . S
C295 C294 1.362 . S
H296 C302 0.930 . S
H297 C305 0.930 . S
H298 C306 0.930 . S
H299 C307 0.930 . S
H300 C310 0.930 . S
H301 C311 0.930 . S
C302 H296 0.930 . S
C302 C303 1.355 . S
C302 C304 1.415 . S
C303 C302 1.355 . S
C303 C305 1.419 . S
C304 C302 1.415 . S
C304 C309 1.425 . S
C304 C311 1.409 . S
C305 H297 0.930 . S
C305 C303 1.419 . S
C305 C306 1.362 . S
C306 H298 0.930 . S
C306 C305 1.362 . S
C306 C309 1.409 . S
C307 H299 0.930 . S
C307 C308 1.355 . S
C307 C309 1.415 . S
C308 C307 1.355 . S
C308 C310 1.419 . S
C309 C304 1.425 . S
C309 C306 1.409 . S
C309 C307 1.415 . S
C310 H300 0.930 . S
C310 C308 1.419 . S
C310 C311 1.362 . S
C311 H301 0.930 . S
C311 C304 1.409 . S
C311 C310 1.362 . S
H312 C318 0.930 . S
H313 C321 0.930 . S
H314 C322 0.930 . S
H315 C323 0.930 . S
H316 C326 0.930 . S
H317 C327 0.930 . S
C318 H312 0.930 . S
C318 C319 1.355 . S
C318 C320 1.415 . S
C319 C318 1.355 . S
C319 C321 1.419 . S
C320 C318 1.415 . S
C320 C325 1.425 1_556 S
C320 C327 1.409 . S
C321 H313 0.930 . S
C321 C319 1.419 . S
C321 C322 1.362 1_556 S
C322 H314 0.930 . S
C322 C321 1.362 1_554 S
C322 C325 1.409 . S
C323 H315 0.930 . S
C323 C324 1.355 . S
C323 C325 1.415 . S
C324 C323 1.355 . S
C324 C326 1.419 . S
C325 C320 1.425 1_554 S
C325 C322 1.409 . S
C325 C323 1.415 . S
C326 H316 0.930 . S
C326 C324 1.419 . S
C326 C327 1.362 1_554 S
C327 H317 0.930 . S
C327 C320 1.409 . S
C327 C326 1.362 1_556 S
H328 C334 0.930 . S
H329 C337 0.930 . S
H330 C338 0.930 . S
H331 C339 0.930 . S
H332 C342 0.930 . S
H333 C343 0.930 . S
C334 H328 0.930 . S
C334 C335 1.355 . S
C334 C336 1.415 . S
C335 C334 1.355 . S
C335 C337 1.419 . S
C336 C334 1.415 . S
C336 C341 1.425 . S
C336 C343 1.409 . S
C337 H329 0.930 . S
C337 C335 1.419 . S
C337 C338 1.362 . S
C338 H330 0.930 . S
C338 C337 1.362 . S
C338 C341 1.409 . S
C339 H331 0.930 . S
C339 C340 1.355 . S
C339 C341 1.415 . S
C340 C339 1.355 . S
C340 C342 1.419 . S
C341 C336 1.425 . S
C341 C338 1.409 . S
C341 C339 1.415 . S
C342 H332 0.930 . S
C342 C340 1.419 . S
C342 C343 1.362 . S
C343 H333 0.930 . S
C343 C336 1.409 . S
C343 C342 1.362 . S
H344 C350 0.930 . S
H345 C353 0.930 . S
H346 C354 0.930 . S
H347 C355 0.930 . S
H348 C358 0.930 . S
H349 C359 0.930 . S
C350 H344 0.930 . S
C350 C351 1.355 . S
C350 C352 1.415 . S
C351 C350 1.355 . S
C351 C353 1.419 . S
C352 C350 1.415 . S
C352 C357 1.425 . S
C352 C359 1.409 . S
C353 H345 0.930 . S
C353 C351 1.419 . S
C353 C354 1.362 . S
C354 H346 0.930 . S
C354 C353 1.362 . S
C354 C357 1.409 . S
C355 H347 0.930 . S
C355 C356 1.355 . S
C355 C357 1.415 . S
C356 C355 1.355 . S
C356 C358 1.419 . S
C357 C352 1.425 . S
C357 C354 1.409 . S
C357 C355 1.415 . S
C358 H348 0.930 . S
C358 C356 1.419 . S
C358 C359 1.362 . S
C359 H349 0.930 . S
C359 C352 1.409 . S
C359 C358 1.362 . S
C111 C23 1.474 . S
C116 C10 1.469 . S
C127 C18 1.470 . S
C132 C36 1.468 . S
C143 C42 1.473 . S
C148 C31 1.473 . S
C159 C43 1.470 . S
C164 C5 1.473 . S
C175 C62 1.474 . S
C180 C75 1.468 . S
C191 C70 1.471 . S
C196 C88 1.468 . S
C207 C83 1.473 . S
C212 C94 1.473 . S
C223 C57 1.469 . S
C228 C95 1.473 . S
C239 C4 1.512 . S
C244 C96 1.517 . S
C255 C55 1.519 . S
C260 C16 1.505 . S
C271 C69 1.518 . S
C276 C29 1.504 . S
C287 C49 1.496 . S
C292 C82 1.507 . S
C303 C30 1.511 . S
C308 C101 1.499 . S
C319 C56 1.518 . S
C324 C44 1.502 . S
C335 C68 1.507 . S
C340 C3 1.515 . S
C351 C17 1.504 . S
C356 C81 1.517 . S
