# Generated by pormake.
# Topology ulj, (4)-cn, num edge types: 1
# Building blocks:
#     Node 0, Type 0, BuildingBlock: MUDLON_clean_sbu_0, # of connection points: 4
#     Node 1, Type 0, BuildingBlock: MUDLON_clean_sbu_0, # of connection points: 4
#     Node 2, Type 0, BuildingBlock: MUDLON_clean_sbu_0, # of connection points: 4
#     Node 3, Type 0, BuildingBlock: MUDLON_clean_sbu_0, # of connection points: 4
#     Node 4, Type 0, BuildingBlock: MUDLON_clean_sbu_0, # of connection points: 4
#     Node 5, Type 0, BuildingBlock: MUDLON_clean_sbu_0, # of connection points: 4
#     Node 6, Type 0, BuildingBlock: MUDLON_clean_sbu_0, # of connection points: 4
#     Node 7, Type 0, BuildingBlock: MUDLON_clean_sbu_0, # of connection points: 4
#     Node 8, Type 0, BuildingBlock: MUDLON_clean_sbu_0, # of connection points: 4
#     Node 9, Type 0, BuildingBlock: MUDLON_clean_sbu_0, # of connection points: 4
#     Node 10, Type 0, BuildingBlock: MUDLON_clean_sbu_0, # of connection points: 4
#     Node 11, Type 0, BuildingBlock: MUDLON_clean_sbu_0, # of connection points: 4
#     Node 12, Type 0, BuildingBlock: MUDLON_clean_sbu_0, # of connection points: 4
#     Node 13, Type 0, BuildingBlock: MUDLON_clean_sbu_0, # of connection points: 4
#     Node 14, Type 0, BuildingBlock: MUDLON_clean_sbu_0, # of connection points: 4
#     Node 15, Type 0, BuildingBlock: MUDLON_clean_sbu_0, # of connection points: 4
#     Node 16, Type 0, BuildingBlock: MUDLON_clean_sbu_0, # of connection points: 4
#     Node 17, Type 0, BuildingBlock: MUDLON_clean_sbu_0, # of connection points: 4
#     Node 18, Type 0, BuildingBlock: MUDLON_clean_sbu_0, # of connection points: 4
#     Node 19, Type 0, BuildingBlock: MUDLON_clean_sbu_0, # of connection points: 4
#     Node 20, Type 0, BuildingBlock: MUDLON_clean_sbu_0, # of connection points: 4
#     Node 21, Type 0, BuildingBlock: MUDLON_clean_sbu_0, # of connection points: 4
#     Node 22, Type 0, BuildingBlock: MUDLON_clean_sbu_0, # of connection points: 4
#     Node 23, Type 0, BuildingBlock: MUDLON_clean_sbu_0, # of connection points: 4
#     Node 24, Type 0, BuildingBlock: MUDLON_clean_sbu_0, # of connection points: 4
#     Node 25, Type 0, BuildingBlock: MUDLON_clean_sbu_0, # of connection points: 4
#     Node 26, Type 0, BuildingBlock: MUDLON_clean_sbu_0, # of connection points: 4
#     Node 27, Type 0, BuildingBlock: MUDLON_clean_sbu_0, # of connection points: 4
#     Node 28, Type 0, BuildingBlock: MUDLON_clean_sbu_0, # of connection points: 4
#     Node 29, Type 0, BuildingBlock: MUDLON_clean_sbu_0, # of connection points: 4
#     Node 30, Type 0, BuildingBlock: MUDLON_clean_sbu_0, # of connection points: 4
#     Node 31, Type 0, BuildingBlock: MUDLON_clean_sbu_0, # of connection points: 4
#     Node 32, Type 0, BuildingBlock: MUDLON_clean_sbu_0, # of connection points: 4
#     Node 33, Type 0, BuildingBlock: MUDLON_clean_sbu_0, # of connection points: 4
#     Node 34, Type 0, BuildingBlock: MUDLON_clean_sbu_0, # of connection points: 4
#     Node 35, Type 0, BuildingBlock: MUDLON_clean_sbu_0, # of connection points: 4
#     Node 36, Type 0, BuildingBlock: MUDLON_clean_sbu_0, # of connection points: 4
#     Node 37, Type 0, BuildingBlock: MUDLON_clean_sbu_0, # of connection points: 4
#     Node 38, Type 0, BuildingBlock: MUDLON_clean_sbu_0, # of connection points: 4
#     Node 39, Type 0, BuildingBlock: MUDLON_clean_sbu_0, # of connection points: 4
#     Node 40, Type 0, BuildingBlock: MUDLON_clean_sbu_0, # of connection points: 4
#     Node 41, Type 0, BuildingBlock: MUDLON_clean_sbu_0, # of connection points: 4
#     Node 42, Type 0, BuildingBlock: MUDLON_clean_sbu_0, # of connection points: 4
#     Node 43, Type 0, BuildingBlock: MUDLON_clean_sbu_0, # of connection points: 4
#     Node 44, Type 0, BuildingBlock: MUDLON_clean_sbu_0, # of connection points: 4
#     Node 45, Type 0, BuildingBlock: MUDLON_clean_sbu_0, # of connection points: 4
#     Node 46, Type 0, BuildingBlock: MUDLON_clean_sbu_0, # of connection points: 4
#     Node 47, Type 0, BuildingBlock: MUDLON_clean_sbu_0, # of connection points: 4
#     Edge 48, Type (0, 0), BuildingBlock: AJUNOK_clean_linker_0, # of connection points: 2
#     Edge 49, Type (0, 0), BuildingBlock: AJUNOK_clean_linker_0, # of connection points: 2
#     Edge 50, Type (0, 0), BuildingBlock: AJUNOK_clean_linker_0, # of connection points: 2
#     Edge 51, Type (0, 0), BuildingBlock: AJUNOK_clean_linker_0, # of connection points: 2
#     Edge 52, Type (0, 0), BuildingBlock: AJUNOK_clean_linker_0, # of connection points: 2
#     Edge 53, Type (0, 0), BuildingBlock: AJUNOK_clean_linker_0, # of connection points: 2
#     Edge 54, Type (0, 0), BuildingBlock: AJUNOK_clean_linker_0, # of connection points: 2
#     Edge 55, Type (0, 0), BuildingBlock: AJUNOK_clean_linker_0, # of connection points: 2
#     Edge 56, Type (0, 0), BuildingBlock: AJUNOK_clean_linker_0, # of connection points: 2
#     Edge 57, Type (0, 0), BuildingBlock: AJUNOK_clean_linker_0, # of connection points: 2
#     Edge 58, Type (0, 0), BuildingBlock: AJUNOK_clean_linker_0, # of connection points: 2
#     Edge 59, Type (0, 0), BuildingBlock: AJUNOK_clean_linker_0, # of connection points: 2
#     Edge 60, Type (0, 0), BuildingBlock: AJUNOK_clean_linker_0, # of connection points: 2
#     Edge 61, Type (0, 0), BuildingBlock: AJUNOK_clean_linker_0, # of connection points: 2
#     Edge 62, Type (0, 0), BuildingBlock: AJUNOK_clean_linker_0, # of connection points: 2
#     Edge 63, Type (0, 0), BuildingBlock: AJUNOK_clean_linker_0, # of connection points: 2
#     Edge 64, Type (0, 0), BuildingBlock: AJUNOK_clean_linker_0, # of connection points: 2
#     Edge 65, Type (0, 0), BuildingBlock: AJUNOK_clean_linker_0, # of connection points: 2
#     Edge 66, Type (0, 0), BuildingBlock: AJUNOK_clean_linker_0, # of connection points: 2
#     Edge 67, Type (0, 0), BuildingBlock: AJUNOK_clean_linker_0, # of connection points: 2
#     Edge 68, Type (0, 0), BuildingBlock: AJUNOK_clean_linker_0, # of connection points: 2
#     Edge 69, Type (0, 0), BuildingBlock: AJUNOK_clean_linker_0, # of connection points: 2
#     Edge 70, Type (0, 0), BuildingBlock: AJUNOK_clean_linker_0, # of connection points: 2
#     Edge 71, Type (0, 0), BuildingBlock: AJUNOK_clean_linker_0, # of connection points: 2
#     Edge 72, Type (0, 0), BuildingBlock: AJUNOK_clean_linker_0, # of connection points: 2
#     Edge 73, Type (0, 0), BuildingBlock: AJUNOK_clean_linker_0, # of connection points: 2
#     Edge 74, Type (0, 0), BuildingBlock: AJUNOK_clean_linker_0, # of connection points: 2
#     Edge 75, Type (0, 0), BuildingBlock: AJUNOK_clean_linker_0, # of connection points: 2
#     Edge 76, Type (0, 0), BuildingBlock: AJUNOK_clean_linker_0, # of connection points: 2
#     Edge 77, Type (0, 0), BuildingBlock: AJUNOK_clean_linker_0, # of connection points: 2
#     Edge 78, Type (0, 0), BuildingBlock: AJUNOK_clean_linker_0, # of connection points: 2
#     Edge 79, Type (0, 0), BuildingBlock: AJUNOK_clean_linker_0, # of connection points: 2
#     Edge 80, Type (0, 0), BuildingBlock: AJUNOK_clean_linker_0, # of connection points: 2
#     Edge 81, Type (0, 0), BuildingBlock: AJUNOK_clean_linker_0, # of connection points: 2
#     Edge 82, Type (0, 0), BuildingBlock: AJUNOK_clean_linker_0, # of connection points: 2
#     Edge 83, Type (0, 0), BuildingBlock: AJUNOK_clean_linker_0, # of connection points: 2
#     Edge 84, Type (0, 0), BuildingBlock: AJUNOK_clean_linker_0, # of connection points: 2
#     Edge 85, Type (0, 0), BuildingBlock: AJUNOK_clean_linker_0, # of connection points: 2
#     Edge 86, Type (0, 0), BuildingBlock: AJUNOK_clean_linker_0, # of connection points: 2
#     Edge 87, Type (0, 0), BuildingBlock: AJUNOK_clean_linker_0, # of connection points: 2
#     Edge 88, Type (0, 0), BuildingBlock: AJUNOK_clean_linker_0, # of connection points: 2
#     Edge 89, Type (0, 0), BuildingBlock: AJUNOK_clean_linker_0, # of connection points: 2
#     Edge 90, Type (0, 0), BuildingBlock: AJUNOK_clean_linker_0, # of connection points: 2
#     Edge 91, Type (0, 0), BuildingBlock: AJUNOK_clean_linker_0, # of connection points: 2
#     Edge 92, Type (0, 0), BuildingBlock: AJUNOK_clean_linker_0, # of connection points: 2
#     Edge 93, Type (0, 0), BuildingBlock: AJUNOK_clean_linker_0, # of connection points: 2
#     Edge 94, Type (0, 0), BuildingBlock: AJUNOK_clean_linker_0, # of connection points: 2
#     Edge 95, Type (0, 0), BuildingBlock: AJUNOK_clean_linker_0, # of connection points: 2
#     Edge 96, Type (0, 0), BuildingBlock: AJUNOK_clean_linker_0, # of connection points: 2
#     Edge 97, Type (0, 0), BuildingBlock: AJUNOK_clean_linker_0, # of connection points: 2
#     Edge 98, Type (0, 0), BuildingBlock: AJUNOK_clean_linker_0, # of connection points: 2
#     Edge 99, Type (0, 0), BuildingBlock: AJUNOK_clean_linker_0, # of connection points: 2
#     Edge 100, Type (0, 0), BuildingBlock: AJUNOK_clean_linker_0, # of connection points: 2
#     Edge 101, Type (0, 0), BuildingBlock: AJUNOK_clean_linker_0, # of connection points: 2
#     Edge 102, Type (0, 0), BuildingBlock: AJUNOK_clean_linker_0, # of connection points: 2
#     Edge 103, Type (0, 0), BuildingBlock: AJUNOK_clean_linker_0, # of connection points: 2
#     Edge 104, Type (0, 0), BuildingBlock: AJUNOK_clean_linker_0, # of connection points: 2
#     Edge 105, Type (0, 0), BuildingBlock: AJUNOK_clean_linker_0, # of connection points: 2
#     Edge 106, Type (0, 0), BuildingBlock: AJUNOK_clean_linker_0, # of connection points: 2
#     Edge 107, Type (0, 0), BuildingBlock: AJUNOK_clean_linker_0, # of connection points: 2
#     Edge 108, Type (0, 0), BuildingBlock: AJUNOK_clean_linker_0, # of connection points: 2
#     Edge 109, Type (0, 0), BuildingBlock: AJUNOK_clean_linker_0, # of connection points: 2
#     Edge 110, Type (0, 0), BuildingBlock: AJUNOK_clean_linker_0, # of connection points: 2
#     Edge 111, Type (0, 0), BuildingBlock: AJUNOK_clean_linker_0, # of connection points: 2
#     Edge 112, Type (0, 0), BuildingBlock: AJUNOK_clean_linker_0, # of connection points: 2
#     Edge 113, Type (0, 0), BuildingBlock: AJUNOK_clean_linker_0, # of connection points: 2
#     Edge 114, Type (0, 0), BuildingBlock: AJUNOK_clean_linker_0, # of connection points: 2
#     Edge 115, Type (0, 0), BuildingBlock: AJUNOK_clean_linker_0, # of connection points: 2
#     Edge 116, Type (0, 0), BuildingBlock: AJUNOK_clean_linker_0, # of connection points: 2
#     Edge 117, Type (0, 0), BuildingBlock: AJUNOK_clean_linker_0, # of connection points: 2
#     Edge 118, Type (0, 0), BuildingBlock: AJUNOK_clean_linker_0, # of connection points: 2
#     Edge 119, Type (0, 0), BuildingBlock: AJUNOK_clean_linker_0, # of connection points: 2
#     Edge 120, Type (0, 0), BuildingBlock: AJUNOK_clean_linker_0, # of connection points: 2
#     Edge 121, Type (0, 0), BuildingBlock: AJUNOK_clean_linker_0, # of connection points: 2
#     Edge 122, Type (0, 0), BuildingBlock: AJUNOK_clean_linker_0, # of connection points: 2
#     Edge 123, Type (0, 0), BuildingBlock: AJUNOK_clean_linker_0, # of connection points: 2
#     Edge 124, Type (0, 0), BuildingBlock: AJUNOK_clean_linker_0, # of connection points: 2
#     Edge 125, Type (0, 0), BuildingBlock: AJUNOK_clean_linker_0, # of connection points: 2
#     Edge 126, Type (0, 0), BuildingBlock: AJUNOK_clean_linker_0, # of connection points: 2
#     Edge 127, Type (0, 0), BuildingBlock: AJUNOK_clean_linker_0, # of connection points: 2
#     Edge 128, Type (0, 0), BuildingBlock: AJUNOK_clean_linker_0, # of connection points: 2
#     Edge 129, Type (0, 0), BuildingBlock: AJUNOK_clean_linker_0, # of connection points: 2
#     Edge 130, Type (0, 0), BuildingBlock: AJUNOK_clean_linker_0, # of connection points: 2
#     Edge 131, Type (0, 0), BuildingBlock: AJUNOK_clean_linker_0, # of connection points: 2
#     Edge 132, Type (0, 0), BuildingBlock: AJUNOK_clean_linker_0, # of connection points: 2
#     Edge 133, Type (0, 0), BuildingBlock: AJUNOK_clean_linker_0, # of connection points: 2
#     Edge 134, Type (0, 0), BuildingBlock: AJUNOK_clean_linker_0, # of connection points: 2
#     Edge 135, Type (0, 0), BuildingBlock: AJUNOK_clean_linker_0, # of connection points: 2
#     Edge 136, Type (0, 0), BuildingBlock: AJUNOK_clean_linker_0, # of connection points: 2
#     Edge 137, Type (0, 0), BuildingBlock: AJUNOK_clean_linker_0, # of connection points: 2
#     Edge 138, Type (0, 0), BuildingBlock: AJUNOK_clean_linker_0, # of connection points: 2
#     Edge 139, Type (0, 0), BuildingBlock: AJUNOK_clean_linker_0, # of connection points: 2
#     Edge 140, Type (0, 0), BuildingBlock: AJUNOK_clean_linker_0, # of connection points: 2
#     Edge 141, Type (0, 0), BuildingBlock: AJUNOK_clean_linker_0, # of connection points: 2
#     Edge 142, Type (0, 0), BuildingBlock: AJUNOK_clean_linker_0, # of connection points: 2
#     Edge 143, Type (0, 0), BuildingBlock: AJUNOK_clean_linker_0, # of connection points: 2
# Relax obj value: 0.200
# Max RMSD: 0.250
# Mean RMSD: 0.237
data_MOF--net-ulj--node1-MUDLON_clean_sbu_0--edge1-AJUNOK_clean_linker_0
_symmetry_space_group_name_H-M    P1
_symmetry_Int_Tables_number       1
_symmetry_cell_setting            triclinic
loop_
_symmetry_equiv_pos_as_xyz
'x, y, z'
_cell_length_a     49.57409
_cell_length_b     49.589768
_cell_length_c     49.56014
_cell_angle_alpha  90.036938
_cell_angle_beta   89.989538
_cell_angle_gamma 90.011437
loop_
_atom_site_label
_atom_site_type_symbol
_atom_site_fract_x
_atom_site_fract_y
_atom_site_fract_z
_atom_type_partial_charge
Mg0 Mg 0.12183 0.21635 0.31173 0.0
C1 C 0.08507 0.17377 0.33469 0.0
O2 O 0.10865 0.16495 0.34297 0.0
C3 C 0.14085 0.25643 0.27161 0.0
O4 O 0.15489 0.26255 0.29324 0.0
C5 C 0.11135 0.24616 0.36441 0.0
O6 O 0.09688 0.2245 0.36919 0.0
O7 O 0.12524 0.24724 0.34285 0.0
O8 O 0.08443 0.19443 0.31947 0.0
O9 O 0.15596 0.18903 0.30904 0.0
C10 C 0.1792 0.19605 0.31722 0.0
O11 O 0.18177 0.21907 0.3301 0.0
O12 O 0.1233 0.23773 0.27334 0.0
Mg13 Mg 0.47226 0.62191 0.93878 0.0
C14 C 0.42757 0.65715 0.91983 0.0
O15 O 0.42153 0.63405 0.90833 0.0
C16 C 0.50606 0.59763 0.98125 0.0
O17 O 0.50247 0.5777 0.96413 0.0
C18 C 0.52415 0.62111 0.90557 0.0
O19 O 0.53406 0.61213 0.92842 0.0
O20 O 0.49882 0.62469 0.90364 0.0
O21 O 0.44767 0.65798 0.93576 0.0
O22 O 0.44626 0.58663 0.94209 0.0
C23 C 0.42913 0.58822 0.96117 0.0
O24 O 0.42755 0.61095 0.97472 0.0
O25 O 0.49588 0.62052 0.97573 0.0
Mg26 Mg 0.87532 0.2826 0.32245 0.0
C27 C 0.90931 0.32919 0.33672 0.0
O28 O 0.88657 0.33427 0.34935 0.0
C29 C 0.8611 0.2325 0.29144 0.0
O30 O 0.85601 0.22457 0.31619 0.0
C31 C 0.86629 0.24742 0.37466 0.0
O32 O 0.84021 0.25056 0.37133 0.0
O33 O 0.88262 0.25852 0.35832 0.0
O34 O 0.91031 0.30876 0.32123 0.0
O35 O 0.83899 0.30712 0.32201 0.0
C36 C 0.81622 0.29547 0.32054 0.0
O37 O 0.81527 0.26904 0.32184 0.0
O38 O 0.87139 0.25576 0.28787 0.0
Mg39 Mg 0.54082 0.88393 0.94069 0.0
C40 C 0.56467 0.82769 0.93733 0.0
O41 O 0.54188 0.82169 0.94946 0.0
C42 C 0.49902 0.89551 0.98118 0.0
O43 O 0.48993 0.90723 0.95923 0.0
C44 C 0.51287 0.86687 0.88899 0.0
O45 O 0.53649 0.85565 0.88477 0.0
O46 O 0.50961 0.88128 0.90998 0.0
O47 O 0.57005 0.8523 0.93269 0.0
O48 O 0.561 0.92258 0.94256 0.0
C49 C 0.57901 0.92457 0.96075 0.0
O50 O 0.58526 0.90293 0.97469 0.0
O51 O 0.52071 0.88185 0.97959 0.0
Mg52 Mg 0.12798 0.78542 0.18602 0.0
C53 C 0.09965 0.83222 0.16172 0.0
O54 O 0.12497 0.83727 0.15569 0.0
C55 C 0.13757 0.74319 0.22753 0.0
O56 O 0.14875 0.73245 0.20603 0.0
C57 C 0.11887 0.76008 0.13097 0.0
O58 O 0.11546 0.78555 0.12465 0.0
O59 O 0.12657 0.7543 0.15478 0.0
O60 O 0.09444 0.81214 0.1768 0.0
O61 O 0.16495 0.80896 0.18895 0.0
C62 C 0.18806 0.79811 0.18684 0.0
O63 O 0.18959 0.77252 0.18016 0.0
O64 O 0.12528 0.76558 0.22502 0.0
Mg65 Mg 0.03844 0.62029 0.06687 0.0
C66 C 0.0658 0.67563 0.06923 0.0
O67 O 0.04578 0.68224 0.05318 0.0
C68 C 0.99689 0.61003 0.02567 0.0
O69 O 0.98775 0.59756 0.04719 0.0
C70 C 0.00887 0.63726 0.11793 0.0
O71 O 0.03134 0.65083 0.12156 0.0
O72 O 0.00693 0.62178 0.09753 0.0
O73 O 0.06814 0.65121 0.07662 0.0
O74 O 0.058 0.58135 0.06326 0.0
C75 C 0.07787 0.57997 0.04705 0.0
O76 O 0.08687 0.60237 0.03612 0.0
O77 O 0.01849 0.6238 0.02785 0.0
Mg78 Mg 0.87697 0.72109 0.18745 0.0
C79 C 0.91203 0.67404 0.17258 0.0
O80 O 0.88835 0.66542 0.16439 0.0
C81 C 0.85861 0.76692 0.22124 0.0
O82 O 0.8473 0.77189 0.19779 0.0
C83 C 0.891 0.74097 0.13131 0.0
O84 O 0.89961 0.71603 0.12899 0.0
O85 O 0.87905 0.748 0.1529 0.0
O86 O 0.9132 0.69638 0.18517 0.0
O87 O 0.84103 0.69619 0.18831 0.0
C88 C 0.83871 0.68001 0.20808 0.0
O89 O 0.85875 0.67822 0.22534 0.0
O90 O 0.87401 0.74647 0.22323 0.0
Mg91 Mg 0.96301 0.88187 0.0634 0.0
C92 C 0.94175 0.82513 0.06841 0.0
O93 O 0.966 0.81977 0.05914 0.0
C94 C 0.00091 0.89921 0.02172 0.0
O95 O 0.00548 0.91558 0.04207 0.0
C96 C 0.0155 0.86787 0.08935 0.0
O97 O 0.01966 0.85975 0.06447 0.0
O98 O 0.99314 0.87892 0.09533 0.0
O99 O 0.93451 0.8496 0.07045 0.0
O100 O 0.94161 0.91991 0.06211 0.0
C101 C 0.92512 0.9222 0.04257 0.0
O102 O 0.92114 0.90116 0.02692 0.0
O103 O 0.98322 0.88082 0.02454 0.0
Mg104 Mg 0.31099 0.13065 0.22556 0.0
C105 C 0.32959 0.09515 0.18029 0.0
O106 O 0.33847 0.11878 0.17222 0.0
C107 C 0.27531 0.14987 0.2688 0.0
O108 O 0.2986 0.16143 0.27388 0.0
C109 C 0.3641 0.11584 0.2528 0.0
O110 O 0.36766 0.1023 0.2303 0.0
O111 O 0.34324 0.13053 0.25524 0.0
O112 O 0.31545 0.09406 0.20169 0.0
O113 O 0.31092 0.16618 0.20014 0.0
C114 C 0.29248 0.16755 0.18235 0.0
O115 O 0.27634 0.14676 0.17928 0.0
O116 O 0.27381 0.13382 0.24878 0.0
Mg117 Mg 0.38774 0.43163 0.02477 0.0
C118 C 0.35132 0.413 0.06969 0.0
O119 O 0.37435 0.40227 0.07725 0.0
C120 C 0.38308 0.4918 0.00975 0.0
O121 O 0.36973 0.49342 0.03259 0.0
C122 C 0.37361 0.37821 0.99802 0.0
O123 O 0.36198 0.37395 0.02143 0.0
O124 O 0.38718 0.39973 0.99473 0.0
O125 O 0.35103 0.42784 0.04874 0.0
O126 O 0.42335 0.4313 0.05016 0.0
C127 C 0.42389 0.44782 0.0698 0.0
O128 O 0.40214 0.46204 0.07493 0.0
O129 O 0.3913 0.46888 0.0018 0.0
Mg130 Mg 0.68998 0.37012 0.23057 0.0
C131 C 0.6756 0.40522 0.18398 0.0
O132 O 0.66727 0.3815 0.17556 0.0
C133 C 0.72235 0.3461 0.27284 0.0
O134 O 0.69916 0.33328 0.27315 0.0
C135 C 0.63447 0.38435 0.25244 0.0
O136 O 0.63226 0.3959 0.22871 0.0
O137 O 0.65558 0.37077 0.25763 0.0
O138 O 0.68805 0.40656 0.20638 0.0
O139 O 0.69182 0.3347 0.20524 0.0
C140 C 0.71219 0.33313 0.18973 0.0
O141 O 0.72863 0.35388 0.18836 0.0
O142 O 0.72515 0.36555 0.25631 0.0
Mg143 Mg 0.62556 0.0746 0.03707 0.0
C144 C 0.65236 0.10269 0.08194 0.0
O145 O 0.62826 0.11371 0.08129 0.0
C146 C 0.60804 0.03027 0.00234 0.0
O147 O 0.59191 0.05037 0.99614 0.0
C148 C 0.64302 0.09504 0.98399 0.0
O149 O 0.6525 0.07032 0.98422 0.0
O150 O 0.62974 0.10346 0.00425 0.0
O151 O 0.65736 0.0834 0.0658 0.0
O152 O 0.58664 0.07579 0.05678 0.0
C153 C 0.58377 0.05891 0.07586 0.0
O154 O 0.60485 0.04467 0.0833 0.0
O155 O 0.62636 0.03432 0.01987 0.0
Mg156 Mg 0.31648 0.8722 0.27667 0.0
C157 C 0.33443 0.90751 0.32242 0.0
O158 O 0.34441 0.88407 0.32971 0.0
C159 C 0.28244 0.84779 0.23582 0.0
O160 O 0.30545 0.83466 0.23518 0.0
C161 C 0.37039 0.8871 0.25129 0.0
O162 O 0.37332 0.90026 0.2741 0.0
O163 O 0.34953 0.87258 0.24796 0.0
O164 O 0.31987 0.90854 0.30128 0.0
O165 O 0.31519 0.83621 0.30116 0.0
C166 C 0.29765 0.8356 0.31988 0.0
O167 O 0.28425 0.85776 0.32548 0.0
O168 O 0.28029 0.86756 0.25212 0.0
Mg169 Mg 0.12771 0.43383 0.96304 0.0
C170 C 0.15816 0.41965 0.91188 0.0
O171 O 0.13347 0.41476 0.90361 0.0
C172 C 0.10423 0.47821 0.99525 0.0
O173 O 0.08377 0.46174 0.99166 0.0
C174 C 0.12427 0.40221 0.0161 0.0
O175 O 0.11005 0.4232 0.02372 0.0
O176 O 0.13252 0.40097 0.99184 0.0
O177 O 0.16163 0.42936 0.93541 0.0
O178 O 0.08975 0.43343 0.94119 0.0
C179 C 0.08605 0.45342 0.92555 0.0
O180 O 0.10594 0.47062 0.92222 0.0
O181 O 0.12699 0.47194 0.9851 0.0
Mg182 Mg 0.69169 0.62961 0.28132 0.0
C183 C 0.66662 0.60413 0.32976 0.0
O184 O 0.65943 0.62944 0.33285 0.0
C185 C 0.73403 0.63943 0.24097 0.0
O186 O 0.71262 0.65088 0.23038 0.0
C187 C 0.64016 0.61528 0.25137 0.0
O188 O 0.63393 0.60485 0.27491 0.0
O189 O 0.66237 0.62783 0.24886 0.0
O190 O 0.68196 0.59807 0.31011 0.0
O191 O 0.69326 0.66859 0.30078 0.0
C192 C 0.70851 0.67068 0.3213 0.0
O193 O 0.72002 0.64881 0.33086 0.0
O194 O 0.73134 0.62658 0.26303 0.0
Mg195 Mg 0.87771 0.06855 0.96291 0.0
C196 C 0.85308 0.08976 0.91222 0.0
O197 O 0.87823 0.09768 0.9096 0.0
C198 C 0.89112 0.02686 0.0026 0.0
O199 O 0.90371 0.04846 0.01138 0.0
C200 C 0.85244 0.09017 0.01089 0.0
O201 O 0.83852 0.0685 0.00467 0.0
O202 O 0.87175 0.09715 0.99554 0.0
O203 O 0.8467 0.07582 0.93279 0.0
O204 O 0.91727 0.06939 0.94449 0.0
C205 C 0.9205 0.05168 0.92621 0.0
O206 O 0.89964 0.03688 0.91921 0.0
O207 O 0.8767 0.02887 0.98144 0.0
Mg208 Mg 0.22146 0.31586 0.12996 0.0
C209 C 0.17369 0.33914 0.10136 0.0
O210 O 0.16918 0.34722 0.12621 0.0
C211 C 0.26039 0.27274 0.14245 0.0
O212 O 0.27044 0.29374 0.15515 0.0
C213 C 0.25253 0.36522 0.11129 0.0
O214 O 0.22958 0.36945 0.09879 0.0
O215 O 0.25432 0.34517 0.12725 0.0
O216 O 0.19386 0.32396 0.0969 0.0
O217 O 0.19957 0.31432 0.16803 0.0
C218 C 0.1807 0.29689 0.16879 0.0
O219 O 0.17521 0.28339 0.14664 0.0
O220 O 0.23954 0.27613 0.1279 0.0
Mg221 Mg 0.21428 0.69134 0.37345 0.0
C222 C 0.17079 0.67039 0.40887 0.0
O223 O 0.16632 0.65708 0.38636 0.0
C224 C 0.24649 0.73481 0.34884 0.0
O225 O 0.24252 0.71812 0.32862 0.0
C226 C 0.26705 0.65938 0.37029 0.0
O227 O 0.27494 0.68028 0.3561 0.0
O228 O 0.24266 0.65819 0.3781 0.0
O229 O 0.18903 0.68839 0.40896 0.0
O230 O 0.19041 0.69028 0.33675 0.0
C231 C 0.17361 0.70943 0.33376 0.0
O232 O 0.17034 0.72654 0.35375 0.0
O233 O 0.23656 0.729 0.37177 0.0
Mg234 Mg 0.93842 0.53215 0.88178 0.0
C235 C 0.95961 0.57202 0.92113 0.0
O236 O 0.97578 0.57513 0.90034 0.0
C237 C 0.88708 0.50323 0.86452 0.0
O238 O 0.88398 0.52571 0.85087 0.0
C239 C 0.97933 0.48977 0.89378 0.0
O240 O 0.95789 0.47999 0.90589 0.0
O241 O 0.97703 0.51162 0.88054 0.0
O242 O 0.94007 0.55547 0.91899 0.0
O243 O 0.9329 0.5581 0.84697 0.0
C244 C 0.91859 0.57929 0.84892 0.0
O245 O 0.90919 0.5861 0.87275 0.0
O246 O 0.90719 0.50109 0.88035 0.0
Mg247 Mg 0.79004 0.81709 0.3718 0.0
C248 C 0.83228 0.83697 0.40956 0.0
O249 O 0.84005 0.8479 0.3867 0.0
C250 C 0.75726 0.77336 0.34778 0.0
O251 O 0.76283 0.78858 0.32684 0.0
C252 C 0.73913 0.85107 0.36295 0.0
O253 O 0.73142 0.8298 0.34923 0.0
O254 O 0.76304 0.85185 0.37222 0.0
O255 O 0.81216 0.82107 0.40929 0.0
O256 O 0.81802 0.81289 0.33819 0.0
C257 C 0.81402 0.82227 0.31469 0.0
O258 O 0.79331 0.83833 0.31074 0.0
O259 O 0.76606 0.78037 0.37084 0.0
Mg260 Mg 0.56255 0.47461 0.37796 0.0
C261 C 0.54031 0.43594 0.417 0.0
O262 O 0.52382 0.43392 0.39633 0.0
C263 C 0.59811 0.525 0.38167 0.0
O264 O 0.57732 0.53455 0.39501 0.0
C265 C 0.52058 0.50894 0.40205 0.0
O266 O 0.53716 0.50451 0.42225 0.0
O267 O 0.52614 0.49886 0.37911 0.0
O268 O 0.56087 0.45112 0.41474 0.0
O269 O 0.56443 0.44838 0.3431 0.0
C270 C 0.57802 0.42676 0.34513 0.0
O271 O 0.5876 0.42007 0.36892 0.0
O272 O 0.59774 0.50055 0.37401 0.0
Mg273 Mg 0.27863 0.692 0.63365 0.0
C274 C 0.32537 0.67704 0.60004 0.0
O275 O 0.32955 0.66335 0.62234 0.0
C276 C 0.23113 0.7249 0.65026 0.0
O277 O 0.22397 0.70072 0.65824 0.0
C278 C 0.24022 0.64176 0.64036 0.0
O279 O 0.24076 0.64566 0.66657 0.0
O280 O 0.25356 0.65723 0.62489 0.0
O281 O 0.30551 0.69323 0.59924 0.0
O282 O 0.30208 0.69077 0.6706 0.0
C283 C 0.32097 0.70811 0.67185 0.0
O284 O 0.32548 0.72333 0.65064 0.0
O285 O 0.25327 0.72752 0.63753 0.0
Mg286 Mg 0.93568 0.46773 0.62098 0.0
C287 C 0.94575 0.4225 0.58061 0.0
O288 O 0.94797 0.40786 0.60256 0.0
C289 C 0.88755 0.50072 0.63977 0.0
O290 O 0.88476 0.47978 0.65573 0.0
C291 C 0.97857 0.50663 0.60799 0.0
O292 O 0.95807 0.51526 0.59357 0.0
O293 O 0.97492 0.48665 0.62364 0.0
O294 O 0.93847 0.44703 0.58247 0.0
O295 O 0.92846 0.44086 0.65478 0.0
C296 C 0.9095 0.42365 0.65367 0.0
O297 O 0.89593 0.42115 0.63103 0.0
O298 O 0.90623 0.50042 0.62217 0.0
Mg299 Mg 0.06572 0.0369 0.63171 0.0
C300 C 0.04898 0.07877 0.59284 0.0
O301 O 0.03372 0.08383 0.61393 0.0
C302 C 0.11738 0.00919 0.64859 0.0
O303 O 0.12108 0.0328 0.65998 0.0
C304 C 0.02319 0.99811 0.61486 0.0
O305 O 0.04416 0.98951 0.60109 0.0
O306 O 0.02643 0.01769 0.63112 0.0
O307 O 0.06653 0.06015 0.59468 0.0
O308 O 0.07085 0.06262 0.66673 0.0
C309 C 0.08522 0.08377 0.66501 0.0
O310 O 0.09452 0.09088 0.64122 0.0
O311 O 0.0965 0.00562 0.63407 0.0
Mg312 Mg 0.63215 0.72329 0.81862 0.0
C313 C 0.60461 0.67379 0.8393 0.0
O314 O 0.62948 0.67045 0.84783 0.0
C315 C 0.64323 0.77065 0.78413 0.0
O316 O 0.65262 0.7778 0.80786 0.0
C317 C 0.61794 0.74417 0.87488 0.0
O318 O 0.6123 0.71861 0.87869 0.0
O319 O 0.62848 0.75127 0.85256 0.0
O320 O 0.59952 0.69403 0.82431 0.0
O321 O 0.67085 0.70281 0.81505 0.0
C322 C 0.67199 0.68064 0.80213 0.0
O323 O 0.64962 0.66956 0.79329 0.0
O324 O 0.63126 0.74798 0.78208 0.0
Mg325 Mg 0.96628 0.13121 0.45182 0.0
C326 C 0.91686 0.16493 0.44007 0.0
O327 O 0.90544 0.14108 0.44153 0.0
C328 C 0.01064 0.11719 0.48926 0.0
O329 O 0.01665 0.10306 0.46766 0.0
C330 C 0.99065 0.14259 0.39692 0.0
O331 O 0.96834 0.15672 0.39498 0.0
O332 O 0.99419 0.12808 0.41781 0.0
O333 O 0.94191 0.16698 0.44523 0.0
O334 O 0.94012 0.09696 0.45968 0.0
C335 C 0.93683 0.07589 0.44551 0.0
O336 O 0.94963 0.07376 0.42238 0.0
O337 O 0.99048 0.13305 0.48826 0.0
Mg338 Mg 0.37912 0.7845 0.81583 0.0
C339 C 0.41596 0.82844 0.83543 0.0
O340 O 0.39259 0.83763 0.84393 0.0
C341 C 0.3629 0.74275 0.77557 0.0
O342 O 0.35112 0.73367 0.7975 0.0
C343 C 0.39141 0.75544 0.8683 0.0
O344 O 0.40522 0.77762 0.87267 0.0
O345 O 0.37715 0.75375 0.84704 0.0
O346 O 0.41635 0.80682 0.82164 0.0
O347 O 0.34483 0.81162 0.81408 0.0
C348 C 0.32113 0.80251 0.81743 0.0
O349 O 0.31819 0.77739 0.82534 0.0
O350 O 0.37771 0.76364 0.77733 0.0
Mg351 Mg 0.03725 0.38291 0.43716 0.0
C352 C 0.0809 0.34572 0.41773 0.0
O353 O 0.0894 0.36884 0.40799 0.0
C354 C 0.99522 0.37964 0.48332 0.0
O355 O 0.98207 0.36286 0.46758 0.0
C356 C 0.00728 0.36925 0.38561 0.0
O357 O 0.03018 0.35703 0.38028 0.0
O358 O 0.00526 0.38286 0.40727 0.0
O359 O 0.05989 0.34564 0.43248 0.0
O360 O 0.06328 0.4179 0.43535 0.0
C361 C 0.08071 0.41918 0.45415 0.0
O362 O 0.08335 0.3983 0.47024 0.0
O363 O 0.01824 0.38837 0.4762 0.0
Mg364 Mg 0.62784 0.28112 0.67859 0.0
C365 C 0.60154 0.32063 0.64514 0.0
O366 O 0.623 0.31251 0.63186 0.0
C367 C 0.63733 0.23948 0.71921 0.0
O368 O 0.65094 0.23128 0.698 0.0
C369 C 0.63725 0.23565 0.63441 0.0
O370 O 0.66313 0.23594 0.6401 0.0
O371 O 0.62132 0.25137 0.64689 0.0
O372 O 0.59783 0.31141 0.6688 0.0
O373 O 0.66756 0.29949 0.68277 0.0
C374 C 0.67002 0.32487 0.68584 0.0
O375 O 0.64892 0.34046 0.68232 0.0
O376 O 0.62297 0.26063 0.71699 0.0
Mg377 Mg 0.53668 0.11166 0.56787 0.0
C378 C 0.58537 0.14574 0.58056 0.0
O379 O 0.59409 0.12193 0.58822 0.0
C380 C 0.50385 0.12259 0.51455 0.0
O381 O 0.50831 0.14842 0.51833 0.0
C382 C 0.51039 0.13397 0.61837 0.0
O383 O 0.53293 0.14785 0.61868 0.0
O384 O 0.50736 0.11583 0.60042 0.0
O385 O 0.56241 0.14735 0.56917 0.0
O386 O 0.56111 0.07531 0.56865 0.0
C387 C 0.57701 0.07299 0.54861 0.0
O388 O 0.5788 0.09325 0.53162 0.0
O389 O 0.51328 0.10559 0.53123 0.0
Mg390 Mg 0.37647 0.22261 0.68184 0.0
C391 C 0.41376 0.1768 0.66887 0.0
O392 O 0.39067 0.16731 0.65995 0.0
C393 C 0.3499 0.26378 0.7142 0.0
O394 O 0.33751 0.26388 0.69077 0.0
C395 C 0.39079 0.24354 0.6261 0.0
O396 O 0.40115 0.21927 0.62391 0.0
O397 O 0.37789 0.24963 0.64742 0.0
O398 O 0.41381 0.19943 0.681 0.0
O399 O 0.34164 0.19627 0.68228 0.0
C400 C 0.34095 0.17924 0.70145 0.0
O401 O 0.36201 0.17738 0.71743 0.0
O402 O 0.36996 0.24801 0.71712 0.0
Mg403 Mg 0.46165 0.38681 0.56412 0.0
C404 C 0.4378 0.33055 0.5643 0.0
O405 O 0.45973 0.3255 0.55028 0.0
C406 C 0.49934 0.40319 0.52157 0.0
O407 O 0.50731 0.41687 0.54284 0.0
C408 C 0.51365 0.3665 0.58414 0.0
O409 O 0.51219 0.35656 0.55962 0.0
O410 O 0.49436 0.38097 0.59288 0.0
O411 O 0.4329 0.35472 0.57122 0.0
O412 O 0.44167 0.42553 0.56665 0.0
C413 C 0.42283 0.42893 0.54958 0.0
O414 O 0.41586 0.40842 0.53428 0.0
O415 O 0.47934 0.38728 0.52402 0.0
Mg416 Mg 0.81864 0.63655 0.72 0.0
C417 C 0.83767 0.60061 0.67507 0.0
O418 O 0.84804 0.62377 0.66748 0.0
C419 C 0.77017 0.63355 0.7596 0.0
O420 O 0.78373 0.61476 0.7724 0.0
C421 C 0.86834 0.62013 0.75142 0.0
O422 O 0.87387 0.60827 0.72836 0.0
O423 O 0.84717 0.6345 0.75314 0.0
O424 O 0.82274 0.60013 0.69595 0.0
O425 O 0.82201 0.6727 0.69594 0.0
C426 C 0.81962 0.69415 0.70974 0.0
O427 O 0.82057 0.69216 0.73617 0.0
O428 O 0.77924 0.64321 0.73768 0.0
Mg429 Mg 0.87787 0.94187 0.53898 0.0
C430 C 0.84748 0.92392 0.58835 0.0
O431 O 0.87251 0.91951 0.59586 0.0
C432 C 0.89046 0.98003 0.4946 0.0
O433 O 0.89984 0.95706 0.48529 0.0
C434 C 0.86199 0.89042 0.50922 0.0
O435 O 0.84587 0.88772 0.53008 0.0
O436 O 0.87828 0.9102 0.50865 0.0
O437 O 0.84335 0.93492 0.56553 0.0
O438 O 0.91519 0.94373 0.56178 0.0
C439 C 0.91737 0.96332 0.57822 0.0
O440 O 0.89661 0.97948 0.58142 0.0
O441 O 0.87792 0.97995 0.51704 0.0
Mg442 Mg 0.192 0.87427 0.7263 0.0
C443 C 0.17461 0.91312 0.68368 0.0
O444 O 0.16738 0.89001 0.6729 0.0
C445 C 0.22654 0.8518 0.76892 0.0
O446 O 0.20349 0.8391 0.77198 0.0
C447 C 0.13617 0.88311 0.75005 0.0
O448 O 0.13248 0.89568 0.72702 0.0
O449 O 0.15832 0.87086 0.75403 0.0
O450 O 0.18741 0.91278 0.70592 0.0
O451 O 0.19477 0.84181 0.69725 0.0
C452 C 0.18415 0.81891 0.70151 0.0
O453 O 0.16901 0.81565 0.72302 0.0
O454 O 0.22811 0.86998 0.75086 0.0
Mg455 Mg 0.12446 0.56497 0.53605 0.0
C456 C 0.15605 0.58154 0.58613 0.0
O457 O 0.13169 0.58328 0.59643 0.0
C458 C 0.11427 0.52385 0.4938 0.0
O459 O 0.10159 0.54503 0.48419 0.0
C460 C 0.1365 0.61765 0.50731 0.0
O461 O 0.14839 0.62295 0.5304 0.0
O462 O 0.12373 0.59555 0.50478 0.0
O463 O 0.15876 0.57318 0.56203 0.0
O464 O 0.08706 0.56256 0.55849 0.0
C465 C 0.08484 0.5428 0.57468 0.0
O466 O 0.10567 0.52675 0.57794 0.0
O467 O 0.12739 0.52635 0.51571 0.0
Mg468 Mg 0.80575 0.375 0.78197 0.0
C469 C 0.82918 0.40838 0.82671 0.0
O470 O 0.83812 0.38426 0.83303 0.0
C471 C 0.76264 0.37431 0.73795 0.0
O472 O 0.78196 0.38458 0.72302 0.0
C473 C 0.85795 0.38565 0.75155 0.0
O474 O 0.86545 0.39482 0.77524 0.0
O475 O 0.83475 0.37501 0.7492 0.0
O476 O 0.81332 0.41063 0.80664 0.0
O477 O 0.80661 0.33822 0.80531 0.0
C478 C 0.80477 0.31713 0.7909 0.0
O479 O 0.80654 0.31972 0.76457 0.0
O480 O 0.7663 0.37137 0.76318 0.0
Mg481 Mg 0.62655 0.92975 0.46672 0.0
C482 C 0.65421 0.91062 0.41636 0.0
O483 O 0.62912 0.9038 0.41125 0.0
C484 C 0.61525 0.96933 0.50998 0.0
O485 O 0.60344 0.94737 0.51891 0.0
C486 C 0.64642 0.88037 0.4971 0.0
O487 O 0.66336 0.87961 0.47672 0.0
O488 O 0.62807 0.89828 0.49726 0.0
O489 O 0.65928 0.92321 0.43815 0.0
O490 O 0.58811 0.93215 0.44592 0.0
C491 C 0.58611 0.9508 0.42841 0.0
O492 O 0.60757 0.96541 0.42308 0.0
O493 O 0.62857 0.96799 0.48805 0.0
Mg494 Mg 0.1992 0.1252 0.78457 0.0
C495 C 0.17916 0.08801 0.82803 0.0
O496 O 0.17269 0.11142 0.83866 0.0
C497 C 0.23847 0.14016 0.74178 0.0
O498 O 0.21664 0.15289 0.7338 0.0
C499 C 0.1439 0.11888 0.75951 0.0
O500 O 0.13871 0.10898 0.78352 0.0
O501 O 0.16711 0.12882 0.75504 0.0
O502 O 0.1921 0.08773 0.8059 0.0
O503 O 0.2021 0.15902 0.81207 0.0
C504 C 0.19185 0.18181 0.80649 0.0
O505 O 0.17723 0.18421 0.78452 0.0
O506 O 0.23704 0.12533 0.76266 0.0
Mg507 Mg 0.37961 0.57692 0.47277 0.0
C508 C 0.35157 0.59936 0.42428 0.0
O509 O 0.37649 0.60718 0.41977 0.0
C510 C 0.39128 0.5358 0.51395 0.0
O511 O 0.4051 0.55683 0.52225 0.0
C512 C 0.36564 0.62905 0.50196 0.0
O513 O 0.35322 0.63415 0.47911 0.0
O514 O 0.37923 0.60744 0.5041 0.0
O515 O 0.3468 0.58496 0.44495 0.0
O516 O 0.41779 0.57415 0.45189 0.0
C517 C 0.41894 0.55815 0.43186 0.0
O518 O 0.39663 0.54646 0.42363 0.0
O519 O 0.37657 0.53833 0.49306 0.0
Mg520 Mg 0.7212 0.81833 0.63749 0.0
C521 C 0.67887 0.83036 0.59753 0.0
O522 O 0.66924 0.8409 0.61987 0.0
C523 C 0.75816 0.78411 0.66832 0.0
O524 O 0.74758 0.80047 0.68627 0.0
C525 C 0.76707 0.8594 0.64331 0.0
O526 O 0.77771 0.84017 0.65803 0.0
O527 O 0.74294 0.8567 0.63501 0.0
O528 O 0.70074 0.817 0.59882 0.0
O529 O 0.69137 0.81218 0.66935 0.0
C530 C 0.69001 0.82507 0.69147 0.0
O531 O 0.70615 0.84575 0.69523 0.0
O532 O 0.75057 0.78621 0.64388 0.0
Mg533 Mg 0.7188 0.18089 0.8576 0.0
C534 C 0.67877 0.15536 0.89071 0.0
O535 O 0.6784 0.14294 0.86727 0.0
C536 C 0.75019 0.22121 0.82924 0.0
O537 O 0.74296 0.20336 0.81104 0.0
C538 C 0.77136 0.14853 0.85344 0.0
O539 O 0.77955 0.16991 0.8402 0.0
O540 O 0.74685 0.14718 0.86092 0.0
O541 O 0.69384 0.17597 0.8932 0.0
O542 O 0.69272 0.18063 0.82244 0.0
C543 C 0.67458 0.19878 0.82222 0.0
O544 O 0.67155 0.21377 0.84388 0.0
O545 O 0.74213 0.21793 0.85342 0.0
Mg546 Mg 0.43917 0.03119 0.38187 0.0
C547 C 0.45518 0.07639 0.41831 0.0
O548 O 0.46488 0.08455 0.39504 0.0
C549 C 0.38731 0.00339 0.36456 0.0
O550 O 0.38393 0.02677 0.35265 0.0
C551 C 0.48053 0.99056 0.39658 0.0
O552 O 0.45971 0.9829 0.41109 0.0
O553 O 0.47766 0.01045 0.38065 0.0
O554 O 0.44159 0.05459 0.41905 0.0
O555 O 0.43364 0.05733 0.34712 0.0
C556 C 0.41814 0.07769 0.34901 0.0
O557 O 0.40756 0.08343 0.37263 0.0
O558 O 0.40776 1.00021 0.37981 0.0
Mg559 Mg 0.28495 0.31315 0.86727 0.0
C560 C 0.33203 0.32812 0.90119 0.0
O561 O 0.33774 0.34025 0.87832 0.0
C562 C 0.23652 0.27829 0.85552 0.0
O563 O 0.22611 0.30222 0.8512 0.0
C564 C 0.24452 0.36152 0.85863 0.0
O565 O 0.24583 0.35658 0.83263 0.0
O566 O 0.25861 0.34755 0.87487 0.0
O567 O 0.31134 0.31302 0.90212 0.0
O568 O 0.30908 0.31342 0.83053 0.0
C569 C 0.29723 0.31004 0.80804 0.0
O570 O 0.27076 0.30922 0.80757 0.0
O571 O 0.26061 0.27675 0.86426 0.0
Mg572 Mg 0.0641 0.96973 0.87735 0.0
C573 C 0.04263 0.93071 0.91711 0.0
O574 O 0.02686 0.92661 0.89619 0.0
C575 C 0.1177 0.99419 0.86145 0.0
O576 O 0.11984 0.97089 0.84906 0.0
C577 C 0.02569 0.01241 0.89321 0.0
O578 O 0.04724 0.01861 0.90733 0.0
O579 O 0.02695 0.99254 0.87703 0.0
O580 O 0.06212 0.9472 0.91467 0.0
O581 O 0.0678 0.94352 0.84256 0.0
C582 C 0.08009 0.92113 0.8447 0.0
O583 O 0.08807 0.91333 0.86873 0.0
O584 O 0.09706 0.99856 0.87606 0.0
Mg585 Mg 0.79238 0.18791 0.13965 0.0
C586 C 0.82105 0.15066 0.10639 0.0
O587 O 0.81586 0.13836 0.12929 0.0
C588 C 0.75403 0.22988 0.15507 0.0
O589 O 0.74722 0.20894 0.16979 0.0
C590 C 0.74076 0.16483 0.12432 0.0
O591 O 0.74241 0.18747 0.11069 0.0
O592 O 0.75969 0.15862 0.14048 0.0
O593 O 0.81493 0.17547 0.10436 0.0
O594 O 0.81849 0.18925 0.17469 0.0
C595 C 0.81058 0.1828 0.19818 0.0
O596 O 0.78652 0.17209 0.20112 0.0
O597 O 0.77364 0.2275 0.13865 0.0
Mg598 Mg 0.43979 0.9759 0.12311 0.0
C599 C 0.46127 0.93583 0.08454 0.0
O600 O 0.47742 0.9333 0.10542 0.0
C601 C 0.38679 0.00099 0.14049 0.0
O602 O 0.38474 0.97764 0.15279 0.0
C603 C 0.47847 0.01892 0.10785 0.0
O604 O 0.45678 0.02596 0.09437 0.0
O605 O 0.4772 0.99842 0.12322 0.0
O606 O 0.44159 0.95221 0.08629 0.0
O607 O 0.43636 0.94999 0.15813 0.0
C608 C 0.42417 0.92752 0.15611 0.0
O609 O 0.41604 0.91962 0.13215 0.0
O610 O 0.40697 0.00509 0.12515 0.0
Mg611 Mg 0.56827 0.52546 0.12438 0.0
C612 C 0.55137 0.56672 0.08453 0.0
O613 O 0.53861 0.57463 0.10639 0.0
C614 C 0.62089 0.49939 0.14145 0.0
O615 O 0.62462 0.5235 0.15174 0.0
C616 C 0.52769 0.48443 0.10957 0.0
O617 O 0.54923 0.47634 0.09639 0.0
O618 O 0.52977 0.5048 0.12503 0.0
O619 O 0.56742 0.54678 0.08623 0.0
O620 O 0.57309 0.55288 0.15814 0.0
C621 C 0.58794 0.57361 0.15549 0.0
O622 O 0.598 0.57899 0.13157 0.0
O623 O 0.59976 0.49504 0.12753 0.0
C624 C 0.1788 0.29781 0.21935 0.0
C625 C 0.16769 0.28916 0.19472 0.0
C626 C 0.1692 0.28792 0.24406 0.0
C627 C 0.14801 0.26898 0.24527 0.0
H628 H 0.19578 0.31157 0.2196 0.0
H629 H 0.17915 0.29462 0.26233 0.0
S630 S 0.1096 0.24242 0.18669 0.0
N631 N 0.13253 0.26243 0.17319 0.0
N632 N 0.11458 0.24385 0.21958 0.0
C633 C 0.1357 0.26129 0.22086 0.0
C634 C 0.14551 0.27136 0.19565 0.0
C635 C 0.54758 0.5618 0.03449 0.0
C636 C 0.54326 0.57742 0.05779 0.0
C637 C 0.53625 0.56911 0.00967 0.0
C638 C 0.52042 0.59253 0.00701 0.0
H639 H 0.55872 0.54304 0.03562 0.0
H640 H 0.53939 0.55585 0.99258 0.0
S641 S 0.50574 0.64214 0.06114 0.0
N642 N 0.52397 0.61866 0.07613 0.0
N643 N 0.50291 0.63255 0.02936 0.0
C644 C 0.51731 0.60924 0.02974 0.0
C645 C 0.52864 0.60163 0.05515 0.0
C646 C 0.85772 0.22463 0.24163 0.0
C647 C 0.85106 0.21663 0.26804 0.0
C648 C 0.84565 0.21248 0.21913 0.0
C649 C 0.82616 0.19201 0.22207 0.0
H650 H 0.87176 0.24104 0.23826 0.0
H651 H 0.85078 0.22015 0.19932 0.0
S652 S 0.80381 0.16144 0.28663 0.0
N653 N 0.82545 0.18506 0.29568 0.0
N654 N 0.80259 0.16255 0.25336 0.0
C655 C 0.82037 0.18279 0.24826 0.0
C656 C 0.83287 0.19498 0.27122 0.0
C657 C 0.50145 0.89758 0.03164 0.0
C658 C 0.48681 0.90211 0.00777 0.0
C659 C 0.49236 0.90753 0.05652 0.0
C660 C 0.46822 0.92241 0.05861 0.0
H661 H 0.52073 0.88732 0.03101 0.0
H662 H 0.50498 0.90435 0.07406 0.0
S663 S 0.42033 0.93635 0.00273 0.0
N664 N 0.44541 0.91991 0.98826 0.0
N665 N 0.42839 0.93862 0.03497 0.0
C666 C 0.45251 0.92559 0.03518 0.0
C667 C 0.46178 0.91545 0.00981 0.0
C668 C 0.14584 0.7388 0.30354 0.0
C669 C 0.16113 0.71511 0.30707 0.0
C670 C 0.13705 0.74697 0.27795 0.0
C671 C 0.14317 0.73182 0.25473 0.0
H672 H 0.14146 0.75183 0.32054 0.0
H673 H 0.12636 0.76595 0.2763 0.0
S674 S 0.1792 0.66611 0.25335 0.0
N675 N 0.17951 0.67508 0.28542 0.0
N676 N 0.16296 0.69035 0.23734 0.0
C677 C 0.15692 0.70716 0.25816 0.0
C678 C 0.16589 0.69884 0.28428 0.0
C679 C 0.99968 0.60901 0.97514 0.0
C680 C 0.98483 0.60411 0.99882 0.0
C681 C 0.9907 0.59959 0.94999 0.0
C682 C 0.96647 0.58489 0.94741 0.0
H683 H 0.01902 0.61912 0.97612 0.0
H684 H 0.00348 0.60303 0.9326 0.0
S685 S 0.91808 0.5702 0.00268 0.0
N686 N 0.94316 0.5862 0.01765 0.0
N687 N 0.92637 0.56849 0.97047 0.0
C688 C 0.95058 0.58137 0.97068 0.0
C689 C 0.95973 0.59096 0.99632 0.0
C690 C 0.83161 0.80399 0.2424 0.0
C691 C 0.85072 0.78316 0.24528 0.0
C692 C 0.821 0.81752 0.26486 0.0
C693 C 0.82902 0.81087 0.29125 0.0
H694 H 0.82395 0.80936 0.22265 0.0
H695 H 0.80557 0.8326 0.26144 0.0
S696 S 0.88119 0.7603 0.30976 0.0
N697 N 0.87918 0.75832 0.27657 0.0
N698 N 0.85939 0.78378 0.31879 0.0
C699 C 0.84938 0.79123 0.29437 0.0
C700 C 0.86017 0.77738 0.27142 0.0
C701 C 0.01236 0.90261 0.94616 0.0
C702 C 0.03507 0.91957 0.94389 0.0
C703 C 0.0022 0.89493 0.97142 0.0
C704 C 0.01426 0.90405 0.99541 0.0
H705 H 0.00165 0.89595 0.92831 0.0
H706 H 0.98405 0.88279 0.97209 0.0
S707 S 0.07638 0.94556 0.00077 0.0
N708 N 0.07099 0.94283 0.96802 0.0
N709 N 0.05182 0.92849 0.01541 0.0
C710 C 0.03792 0.91963 0.99349 0.0
C711 C 0.04837 0.92733 0.96776 0.0
C712 C 0.22497 0.15234 0.27393 0.0
C713 C 0.25084 0.15833 0.28397 0.0
C714 C 0.20175 0.16344 0.28576 0.0
C715 C 0.20347 0.18106 0.30802 0.0
H716 H 0.22263 0.13992 0.2561 0.0
H717 H 0.18242 0.15916 0.27651 0.0
S718 S 0.26603 0.19972 0.34466 0.0
N719 N 0.27649 0.18044 0.31959 0.0
N720 N 0.23293 0.20142 0.34152 0.0
C721 C 0.22905 0.18581 0.3193 0.0
C722 C 0.25268 0.17442 0.30736 0.0
C723 C 0.42235 0.53807 0.96268 0.0
C724 C 0.41428 0.56401 0.97087 0.0
C725 C 0.4113 0.51486 0.97455 0.0
C726 C 0.39172 0.51659 0.99514 0.0
H727 H 0.43814 0.53559 0.94777 0.0
H728 H 0.419 0.49543 0.96818 0.0
S729 S 0.3609 0.5797 0.02115 0.0
N730 N 0.38339 0.58999 0.99886 0.0
N731 N 0.36278 0.54647 0.02116 0.0
C732 C 0.38235 0.54238 0.00239 0.0
C733 C 0.39357 0.56602 0.99027 0.0
C734 C 0.79424 0.33437 0.29698 0.0
C735 C 0.79183 0.31075 0.31254 0.0
C736 C 0.77152 0.34649 0.28517 0.0
C737 C 0.74554 0.33556 0.28869 0.0
H738 H 0.81394 0.34279 0.29267 0.0
H739 H 0.77455 0.36389 0.27233 0.0
S740 S 0.72814 0.27638 0.33138 0.0
N741 N 0.76129 0.27863 0.33334 0.0
N742 N 0.71858 0.30146 0.3117 0.0
C743 C 0.74274 0.31303 0.30584 0.0
C744 C 0.76589 0.3006 0.3176 0.0
C745 C 0.57684 0.97495 0.95961 0.0
C746 C 0.58945 0.95139 0.96908 0.0
C747 C 0.58367 1.00034 0.96992 0.0
C748 C 0.6035 0.00333 0.99006 0.0
H749 H 0.5608 0.97377 0.94481 0.0
H750 H 0.57274 0.0177 0.96243 0.0
S751 S 0.6448 0.9483 0.01954 0.0
N752 N 0.62441 0.93288 0.99819 0.0
N753 N 0.63724 0.98065 0.01752 0.0
C754 C 0.6173 0.9801 0.99872 0.0
C755 C 0.61027 0.95416 0.98825 0.0
C756 C 0.21001 0.83518 0.2135 0.0
C757 C 0.21249 0.81289 0.19601 0.0
C758 C 0.23277 0.84715 0.22545 0.0
C759 C 0.25892 0.83741 0.22026 0.0
H760 H 0.19027 0.84277 0.21899 0.0
H761 H 0.22969 0.8635 0.23962 0.0
S762 S 0.2766 0.78208 0.17273 0.0
N763 N 0.24334 0.78337 0.17196 0.0
N764 N 0.28604 0.80591 0.19398 0.0
C765 C 0.26174 0.81619 0.20148 0.0
C766 C 0.23857 0.80392 0.18949 0.0
C767 C 0.07703 0.50621 0.02703 0.0
C768 C 0.10005 0.50358 0.01058 0.0
C769 C 0.07086 0.53055 0.03996 0.0
C770 C 0.08727 0.55345 0.03674 0.0
H771 H 0.06325 0.48944 0.02957 0.0
H772 H 0.05242 0.53166 0.05164 0.0
S773 S 0.15119 0.55667 0.99773 0.0
N774 N 0.1404 0.52547 0.99332 0.0
N775 N 0.12869 0.5714 0.0174 0.0
C776 C 0.11101 0.55082 0.02129 0.0
C777 C 0.11744 0.52586 0.0083 0.0
C778 C 0.80942 0.65212 0.23831 0.0
C779 C 0.81272 0.6662 0.21384 0.0
C780 C 0.7842 0.64208 0.24624 0.0
C781 C 0.76121 0.64574 0.23004 0.0
H782 H 0.82621 0.64972 0.25209 0.0
H783 H 0.78255 0.63253 0.26582 0.0
S784 S 0.75969 0.67738 0.16213 0.0
N785 N 0.79133 0.6805 0.17203 0.0
N786 N 0.74398 0.66163 0.1869 0.0
C787 C 0.76455 0.65815 0.20469 0.0
C788 C 0.79027 0.66837 0.1966 0.0
C789 C 0.8904 0.9764 0.00113 0.0
C790 C 0.89658 1.00025 0.01517 0.0
C791 C 0.8987 0.95119 0.01084 0.0
C792 C 0.91349 0.94876 0.035 0.0
H793 H 0.88003 0.97721 0.98191 0.0
H794 H 0.89426 0.93358 0.99869 0.0
S795 S 0.93147 0.00477 0.08138 0.0
N796 N 0.91589 0.01963 0.05598 0.0
N797 N 0.93154 0.97228 0.07413 0.0
C798 C 0.91839 0.97231 0.05007 0.0
C799 C 0.90993 0.99802 0.04018 0.0
C800 C 0.29252 0.24241 0.16671 0.0
C801 C 0.27077 0.24532 0.14866 0.0
C802 C 0.30031 0.21705 0.17638 0.0
C803 C 0.28667 0.19346 0.16845 0.0
H804 H 0.30307 0.25996 0.17434 0.0
H805 H 0.31646 0.21615 0.19107 0.0
S806 S 0.23086 0.18952 0.11855 0.0
N807 N 0.23753 0.22204 0.12102 0.0
N808 N 0.25218 0.17436 0.13912 0.0
C809 C 0.26603 0.19585 0.14903 0.0
C810 C 0.25809 0.22175 0.13915 0.0
C811 C 0.29224 0.78581 0.31523 0.0
C812 C 0.28803 0.80938 0.33046 0.0
C813 C 0.27931 0.76164 0.32191 0.0
C814 C 0.26197 0.75992 0.34433 0.0
H815 H 0.30453 0.78628 0.29715 0.0
H816 H 0.28248 0.74432 0.30897 0.0
S817 S 0.24667 0.815 0.39265 0.0
N818 N 0.26702 0.82897 0.37027 0.0
N819 N 0.24301 0.7833 0.38309 0.0
C820 C 0.25888 0.78286 0.36073 0.0
C821 C 0.27181 0.80764 0.35372 0.0
C822 C 0.0297 0.49205 0.89116 0.0
C823 C 0.00636 0.47779 0.89874 0.0
C824 C 0.05541 0.48323 0.89886 0.0
C825 C 0.05894 0.45974 0.91442 0.0
H826 H 0.02814 0.5108 0.88009 0.0
H827 H 0.07257 0.49555 0.89329 0.0
S828 S 0.00465 0.41306 0.93644 0.0
N829 N 0.98864 0.43745 0.92042 0.0
N830 N 0.03697 0.42092 0.93491 0.0
C831 C 0.03592 0.44436 0.92075 0.0
C832 C 0.00966 0.45338 0.91292 0.0
C833 C 0.72685 0.74466 0.31992 0.0
C834 C 0.74193 0.74805 0.34374 0.0
C835 C 0.71466 0.72 0.31367 0.0
C836 C 0.71735 0.69759 0.33081 0.0
H837 H 0.72501 0.76101 0.30555 0.0
H838 H 0.70418 0.71822 0.29457 0.0
S839 S 0.75219 0.69664 0.39712 0.0
N840 N 0.75687 0.72759 0.38575 0.0
N841 N 0.73417 0.68101 0.37384 0.0
C842 C 0.73113 0.70107 0.35542 0.0
C843 C 0.74334 0.72635 0.36194 0.0
C844 C 0.46864 0.55239 0.43732 0.0
C845 C 0.4454 0.54895 0.42143 0.0
C846 C 0.49306 0.54013 0.43027 0.0
C847 C 0.49536 0.5242 0.40687 0.0
H848 H 0.46775 0.56359 0.45608 0.0
H849 H 0.51011 0.54262 0.44372 0.0
S850 S 0.44132 0.51156 0.35663 0.0
N851 N 0.42677 0.53037 0.37997 0.0
N852 N 0.47285 0.50751 0.36657 0.0
C853 C 0.47274 0.52193 0.3899 0.0
C854 C 0.44772 0.53423 0.39723 0.0
C855 C 0.22671 0.77493 0.65557 0.0
C856 C 0.21604 0.74898 0.6598 0.0
C857 C 0.2153 0.79763 0.66794 0.0
C858 C 0.1928 0.79534 0.68516 0.0
H859 H 0.24475 0.77769 0.64354 0.0
H860 H 0.22506 0.81694 0.66493 0.0
S861 S 0.15452 0.73263 0.69946 0.0
N862 N 0.17958 0.72281 0.67984 0.0
N863 N 0.15834 0.76548 0.70321 0.0
C864 C 0.1808 0.76981 0.6881 0.0
C865 C 0.19235 0.74666 0.67539 0.0
C866 C 0.03473 0.54827 0.57694 0.0
C867 C 0.05828 0.53573 0.58658 0.0
C868 C 0.00912 0.53945 0.58496 0.0
C869 C 0.00593 0.51779 0.60306 0.0
H870 H 0.03596 0.56435 0.5622 0.0
H871 H 0.99167 0.5492 0.57614 0.0
S872 S 0.06124 0.48036 0.63694 0.0
N873 N 0.07684 0.5022 0.61724 0.0
N874 N 0.0287 0.48565 0.63233 0.0
C875 C 0.02933 0.50611 0.61411 0.0
C876 C 0.05547 0.51506 0.60586 0.0
C877 C 0.9675 0.95778 0.58105 0.0
C878 C 0.94379 0.97001 0.5907 0.0
C879 C 0.99299 0.96627 0.58986 0.0
C880 C 0.99588 0.98729 0.60878 0.0
H881 H 0.96651 0.9422 0.56576 0.0
H882 H 0.01059 0.95678 0.58105 0.0
S883 S 0.93996 0.02369 0.6429 0.0
N884 N 0.92472 0.00256 0.62215 0.0
N885 N 0.97257 0.01849 0.63871 0.0
C886 C 0.97227 0.99866 0.61977 0.0
C887 C 0.94628 0.99005 0.61071 0.0
C888 C 0.66247 0.78772 0.71189 0.0
C889 C 0.6741 0.8136 0.71429 0.0
C890 C 0.65102 0.77454 0.73421 0.0
C891 C 0.65073 0.78666 0.75987 0.0
H892 H 0.66326 0.77694 0.6929 0.0
H893 H 0.6436 0.75416 0.73155 0.0
S894 S 0.67441 0.85588 0.77614 0.0
N895 N 0.68158 0.85205 0.74384 0.0
N896 N 0.6601 0.82738 0.78565 0.0
C897 C 0.66056 0.81324 0.76215 0.0
C898 C 0.67221 0.82667 0.73942 0.0
C899 C 0.01181 0.1194 0.53972 0.0
C900 C 0.02385 0.11096 0.51544 0.0
C901 C 0.02105 0.10997 0.56471 0.0
C902 C 0.04276 0.09172 0.56651 0.0
H903 H 0.99426 0.1324 0.53946 0.0
H904 H 0.01027 0.11622 0.58266 0.0
S905 S 0.0841 0.06684 0.50917 0.0
N906 N 0.06075 0.08583 0.49496 0.0
N907 N 0.07808 0.0681 0.54191 0.0
C908 C 0.05624 0.08465 0.54253 0.0
C909 C 0.04679 0.09425 0.51702 0.0
C910 C 0.33468 0.71203 0.74708 0.0
C911 C 0.35556 0.73124 0.74886 0.0
C912 C 0.32454 0.70357 0.72207 0.0
C913 C 0.33485 0.71397 0.69777 0.0
H914 H 0.32524 0.7042 0.76516 0.0
H915 H 0.30769 0.68966 0.7219 0.0
S916 S 0.39242 0.7615 0.6911 0.0
N917 N 0.38824 0.75808 0.72396 0.0
N918 N 0.36928 0.74216 0.67699 0.0
C919 C 0.35693 0.73182 0.69918 0.0
C920 C 0.36726 0.74045 0.72469 0.0
C921 C 0.96466 0.37498 0.52346 0.0
C922 C 0.98222 0.39084 0.50778 0.0
C923 C 0.9526 0.38538 0.54695 0.0
C924 C 0.95693 0.41226 0.55494 0.0
H925 H 0.96071 0.35423 0.51788 0.0
H926 H 0.93977 0.37235 0.55891 0.0
S927 S 0.00057 0.46236 0.5205 0.0
N928 N 0.00313 0.43487 0.50188 0.0
N929 N 0.97983 0.45453 0.54536 0.0
C930 C 0.97396 0.42848 0.53911 0.0
C931 C 0.98677 0.41773 0.5157 0.0
C932 C 0.66052 0.20472 0.74732 0.0
C933 C 0.64254 0.22667 0.74581 0.0
C934 C 0.66953 0.19477 0.77217 0.0
C935 C 0.66095 0.20634 0.79662 0.0
H936 H 0.66871 0.19575 0.72915 0.0
H937 H 0.68432 0.1787 0.77207 0.0
S938 S 0.61066 0.26143 0.80399 0.0
N939 N 0.61408 0.25765 0.77107 0.0
N940 N 0.63088 0.2389 0.81783 0.0
C941 C 0.64145 0.22701 0.79549 0.0
C942 C 0.63227 0.23718 0.7701 0.0
C943 C 0.4667 0.07479 0.46741 0.0
C944 C 0.46401 0.08987 0.44355 0.0
C945 C 0.47897 0.08585 0.49038 0.0
C946 C 0.48871 0.11257 0.49062 0.0
H947 H 0.46044 0.05388 0.46801 0.0
H948 H 0.4813 0.07307 0.50795 0.0
S949 S 0.48369 0.16148 0.43417 0.0
N950 N 0.47015 0.13353 0.42212 0.0
N951 N 0.49281 0.15447 0.46544 0.0
C952 C 0.48478 0.12834 0.46736 0.0
C953 C 0.47257 0.11694 0.44381 0.0
C954 C 0.34978 0.27671 0.76332 0.0
C955 C 0.33844 0.27913 0.73737 0.0
C956 C 0.33721 0.28823 0.786 0.0
C957 C 0.31268 0.30234 0.78361 0.0
H958 H 0.36798 0.26503 0.76635 0.0
H959 H 0.34608 0.28482 0.80568 0.0
S960 S 0.27649 0.31774 0.72001 0.0
N961 N 0.30263 0.29947 0.71047 0.0
N962 N 0.27899 0.32047 0.7531 0.0
C963 C 0.30195 0.30622 0.7577 0.0
C964 C 0.31484 0.2948 0.73459 0.0
C965 C 0.50776 0.4104 0.4459 0.0
C966 C 0.53247 0.42428 0.44347 0.0
C967 C 0.49776 0.40248 0.47113 0.0
C968 C 0.51199 0.40824 0.49496 0.0
H969 H 0.49546 0.40643 0.42828 0.0
H970 H 0.47817 0.39284 0.472 0.0
S971 S 0.57949 0.44042 0.49953 0.0
N972 N 0.57229 0.44075 0.46701 0.0
N973 N 0.55346 0.42591 0.51439 0.0
C974 C 0.53747 0.4206 0.49275 0.0
C975 C 0.54773 0.42858 0.46703 0.0
C976 C 0.70231 0.64114 0.79433 0.0
C977 C 0.69815 0.66921 0.79373 0.0
C978 C 0.7261 0.62965 0.78404 0.0
C979 C 0.74595 0.64582 0.77188 0.0
H980 H 0.68699 0.62798 0.80268 0.0
H981 H 0.72856 0.60796 0.78477 0.0
S982 S 0.7447 0.72039 0.76533 0.0
N983 N 0.71609 0.7129 0.78068 0.0
N984 N 0.76021 0.69133 0.76037 0.0
C985 C 0.74207 0.67393 0.77133 0.0
C986 C 0.7183 0.68564 0.78251 0.0
C987 C 0.91075 0.00453 0.45543 0.0
C988 C 0.89818 0.00558 0.48092 0.0
C989 C 0.92205 0.02757 0.44357 0.0
C990 C 0.92137 0.0527 0.45672 0.0
H991 H 0.91272 0.98552 0.44482 0.0
H992 H 0.93229 0.02536 0.42439 0.0
S993 S 0.88812 0.06708 0.52246 0.0
N994 N 0.88371 0.03441 0.51791 0.0
N995 N 0.90481 0.07773 0.49569 0.0
C996 C 0.90747 0.05439 0.48154 0.0
C997 C 0.8959 0.03087 0.49359 0.0
C998 C 0.2485 0.81954 0.80077 0.0
C999 C 0.25071 0.84233 0.78397 0.0
C1000 C 0.27125 0.80769 0.81257 0.0
C1001 C 0.29725 0.81817 0.80825 0.0
H1002 H 0.22913 0.81001 0.80414 0.0
H1003 H 0.26842 0.78958 0.82446 0.0
S1004 S 0.31382 0.87962 0.76866 0.0
N1005 N 0.28082 0.87644 0.76559 0.0
N1006 N 0.32362 0.85429 0.7879 0.0
C1007 C 0.29964 0.84197 0.79286 0.0
C1008 C 0.27639 0.85399 0.78068 0.0
C1009 C 0.09222 0.49456 0.45911 0.0
C1010 C 0.10983 0.49696 0.4813 0.0
C1011 C 0.08424 0.46929 0.44932 0.0
C1012 C 0.09351 0.44531 0.46131 0.0
H1013 H 0.08354 0.51233 0.44985 0.0
H1014 H 0.06965 0.46865 0.43306 0.0
S1015 S 0.14334 0.44037 0.51707 0.0
N1016 N 0.1388 0.47307 0.5129 0.0
N1017 N 0.12388 0.42557 0.49446 0.0
C1018 C 0.11266 0.44738 0.48222 0.0
C1019 C 0.1208 0.47317 0.49222 0.0
C1020 C 0.72553 0.37463 0.70365 0.0
C1021 C 0.73907 0.36157 0.72485 0.0
C1022 C 0.7034 0.36245 0.69077 0.0
C1023 C 0.69477 0.33637 0.69795 0.0
H1024 H 0.73177 0.39459 0.69733 0.0
H1025 H 0.69297 0.37349 0.67506 0.0
S1026 S 0.72454 0.29306 0.75128 0.0
N1027 N 0.74273 0.32095 0.75207 0.0
N1028 N 0.70192 0.29768 0.72725 0.0
C1029 C 0.70868 0.32281 0.71862 0.0
C1030 C 0.73063 0.33552 0.73224 0.0
C1031 C 0.61508 0.01982 0.50881 0.0
C1032 C 0.60924 0.99581 0.52272 0.0
C1033 C 0.60575 0.04479 0.51818 0.0
C1034 C 0.59019 0.04689 0.5419 0.0
H1035 H 0.62591 0.01928 0.48983 0.0
H1036 H 0.60992 0.06247 0.50604 0.0
S1037 S 0.57282 0.99056 0.58807 0.0
N1038 N 0.58954 0.97607 0.56316 0.0
N1039 N 0.57196 0.023 0.5807 0.0
C1040 C 0.58579 0.02328 0.55702 0.0
C1041 C 0.5953 0.99778 0.54745 0.0
C1042 C 0.29081 0.17481 0.69802 0.0
C1043 C 0.31538 0.16548 0.7087 0.0
C1044 C 0.26606 0.16544 0.70795 0.0
C1045 C 0.26484 0.14631 0.72892 0.0
H1046 H 0.29057 0.19045 0.68278 0.0
H1047 H 0.24777 0.17418 0.6998 0.0
S1048 S 0.32346 0.11221 0.76071 0.0
N1049 N 0.337 0.13364 0.73913 0.0
N1050 N 0.29051 0.11601 0.75777 0.0
C1051 C 0.28926 0.13538 0.73842 0.0
C1052 C 0.3145 0.14498 0.72833 0.0
C1053 C 0.39433 0.45977 0.52167 0.0
C1054 C 0.41183 0.45619 0.54378 0.0
C1055 C 0.38665 0.48554 0.51302 0.0
C1056 C 0.39613 0.50885 0.52611 0.0
H1057 H 0.38727 0.44258 0.51016 0.0
H1058 H 0.37409 0.48713 0.49521 0.0
S1059 S 0.43911 0.51054 0.58753 0.0
N1060 N 0.43606 0.47817 0.58039 0.0
N1061 N 0.42156 0.52659 0.56424 0.0
C1062 C 0.4122 0.50555 0.54934 0.0
C1063 C 0.42005 0.47925 0.55815 0.0
C1064 C 0.79712 0.7182 0.67129 0.0
C1065 C 0.80885 0.71909 0.6972 0.0
C1066 C 0.78178 0.73986 0.6614 0.0
C1067 C 0.77757 0.76312 0.67708 0.0
H1068 H 0.79851 0.70011 0.65912 0.0
H1069 H 0.77208 0.73776 0.64193 0.0
S1070 S 0.80791 0.77745 0.74412 0.0
N1071 N 0.81812 0.74666 0.73673 0.0
N1072 N 0.78937 0.78719 0.71826 0.0
C1073 C 0.79086 0.76505 0.70213 0.0
C1074 C 0.8065 0.74309 0.71212 0.0
C1075 C 0.78161 0.29118 0.82772 0.0
C1076 C 0.79498 0.29142 0.80261 0.0
C1077 C 0.76798 0.26806 0.83684 0.0
C1078 C 0.76722 0.24443 0.82116 0.0
H1079 H 0.78052 0.30932 0.83984 0.0
H1080 H 0.75704 0.26912 0.85574 0.0
S1081 S 0.80271 0.23332 0.75603 0.0
N1082 N 0.80921 0.26502 0.7638 0.0
N1083 N 0.78377 0.22174 0.78083 0.0
C1084 C 0.78197 0.24393 0.79686 0.0
C1085 C 0.79582 0.26737 0.78764 0.0
C1086 C 0.53566 0.94824 0.42878 0.0
C1087 C 0.55942 0.95848 0.41715 0.0
C1088 C 0.51023 0.95796 0.42114 0.0
C1089 C 0.50746 0.97829 0.40148 0.0
H1090 H 0.53665 0.93334 0.44472 0.0
H1091 H 0.49269 0.95002 0.43145 0.0
S1092 S 0.56323 0.00929 0.3622 0.0
N1093 N 0.57842 0.98821 0.383 0.0
N1094 N 0.53069 0.00645 0.36866 0.0
C1095 C 0.53097 0.98758 0.38853 0.0
C1096 C 0.55691 0.9777 0.39636 0.0
C1097 C 0.23385 0.22809 0.85067 0.0
C1098 C 0.22224 0.2536 0.84625 0.0
C1099 C 0.223 0.2048 0.8389 0.0
C1100 C 0.20019 0.20604 0.822 0.0
H1101 H 0.25206 0.22613 0.86259 0.0
H1102 H 0.23337 0.18586 0.84216 0.0
S1103 S 0.16005 0.2673 0.80664 0.0
N1104 N 0.18492 0.27826 0.82587 0.0
N1105 N 0.16477 0.23449 0.80358 0.0
C1106 C 0.18744 0.23115 0.81863 0.0
C1107 C 0.19837 0.25489 0.83081 0.0
C1108 C 0.97558 0.01487 0.88806 0.0
C1109 C 0.99945 0.02564 0.899 0.0
C1110 C 0.95024 0.02437 0.89609 0.0
C1111 C 0.94763 0.04509 0.91536 0.0
H1112 H 0.97634 0.9982 0.87394 0.0
H1113 H 0.93254 0.01466 0.88772 0.0
S1114 S 0.00391 0.08267 0.94748 0.0
N1115 N 0.01891 0.0601 0.92813 0.0
N1116 N 0.97123 0.07791 0.94323 0.0
C1117 C 0.97133 0.05721 0.92523 0.0
C1118 C 0.99722 0.0475 0.91706 0.0
C1119 C 0.75459 0.2803 0.15413 0.0
C1120 C 0.74086 0.25622 0.15996 0.0
C1121 C 0.74437 0.30527 0.16259 0.0
C1122 C 0.71996 0.30712 0.17708 0.0
H1123 H 0.77404 0.27982 0.14417 0.0
H1124 H 0.75635 0.32312 0.15868 0.0
S1125 S 0.67407 0.25019 0.19334 0.0
N1126 N 0.70003 0.23594 0.17812 0.0
N1127 N 0.68077 0.28279 0.19393 0.0
C1128 C 0.70508 0.28332 0.18125 0.0
C1129 C 0.71556 0.25789 0.17274 0.0
C1130 C 0.55401 0.03081 0.10526 0.0
C1131 C 0.55665 0.05209 0.08665 0.0
C1132 C 0.52863 0.02108 0.11296 0.0
C1133 C 0.50477 0.0322 0.10238 0.0
H1134 H 0.57169 0.02079 0.11328 0.0
H1135 H 0.52784 0.00399 0.12654 0.0
S1136 S 0.50042 0.09075 0.05581 0.0
N1137 N 0.53309 0.08581 0.0599 0.0
N1138 N 0.48538 0.0676 0.0744 0.0
C1139 C 0.50705 0.05461 0.08504 0.0
C1140 C 0.53296 0.06454 0.07718 0.0
C1141 C 0.49908 0.45237 0.08314 0.0
C1142 C 0.50095 0.47249 0.10312 0.0
C1143 C 0.47405 0.44343 0.07355 0.0
C1144 C 0.44977 0.45424 0.08352 0.0
H1145 H 0.5171 0.44411 0.07395 0.0
H1146 H 0.47386 0.42875 0.05735 0.0
S1147 S 0.44336 0.50441 0.13888 0.0
N1148 N 0.47619 0.5008 0.1347 0.0
N1149 N 0.42914 0.48398 0.11675 0.0
C1150 C 0.45127 0.47303 0.10481 0.0
C1151 C 0.47683 0.48216 0.11459 0.0
C1152 C 0.08659 0.27134 0.40052 0.0
C1153 C 0.10742 0.27072 0.38119 0.0
C1154 C 0.07918 0.2954 0.4134 0.0
C1155 C 0.09232 0.31988 0.40757 0.0
H1156 H 0.07494 0.25338 0.40487 0.0
H1157 H 0.06217 0.29493 0.42711 0.0
S1158 S 0.15122 0.32835 0.36195 0.0
N1159 N 0.14328 0.29613 0.35935 0.0
N1160 N 0.12948 0.34129 0.3836 0.0
C1161 C 0.11452 0.31917 0.38981 0.0
C1162 C 0.12204 0.29463 0.37663 0.0
C1163 C 0.58955 0.63612 0.86912 0.0
C1164 C 0.58266 0.65741 0.85163 0.0
C1165 C 0.57014 0.62342 0.88524 0.0
C1166 C 0.5429 0.63125 0.88446 0.0
H1167 H 0.61038 0.62993 0.87142 0.0
H1168 H 0.57681 0.60803 0.89924 0.0
S1169 S 0.51351 0.68357 0.83963 0.0
N1170 N 0.54607 0.68402 0.83261 0.0
N1171 N 0.50951 0.65997 0.86277 0.0
C1172 C 0.5353 0.65113 0.86561 0.0
C1173 C 0.55518 0.66423 0.84924 0.0
C1174 C 0.90479 0.22995 0.40192 0.0
C1175 C 0.87725 0.22854 0.39513 0.0
C1176 C 0.91701 0.21016 0.41788 0.0
C1177 C 0.90228 0.18791 0.42755 0.0
H1178 H 0.91733 0.24605 0.39409 0.0
H1179 H 0.9385 0.21172 0.42151 0.0
S1180 S 0.82883 0.17635 0.41826 0.0
N1181 N 0.835 0.2044 0.40142 0.0
N1182 N 0.858 0.16703 0.43136 0.0
C1183 C 0.87435 0.18708 0.42231 0.0
C1184 C 0.86183 0.20743 0.40616 0.0
C1185 C 0.46368 0.87044 0.87808 0.0
C1186 C 0.48921 0.85958 0.87202 0.0
C1187 C 0.44033 0.86118 0.86513 0.0
C1188 C 0.44143 0.84058 0.8456 0.0
H1189 H 0.46148 0.8856 0.89368 0.0
H1190 H 0.42114 0.86958 0.87135 0.0
S1191 S 0.50364 0.80766 0.81986 0.0
N1192 N 0.51446 0.82881 0.8432 0.0
N1193 N 0.47057 0.81138 0.81896 0.0
C1194 C 0.46699 0.83064 0.83816 0.0
C1195 C 0.49084 0.84014 0.85132 0.0
C1196 C 0.10995 0.71129 0.12083 0.0
C1197 C 0.1091 0.73843 0.11253 0.0
C1198 C 0.09709 0.69093 0.10594 0.0
C1199 C 0.08266 0.69684 0.08217 0.0
H1200 H 0.11972 0.70576 0.13957 0.0
H1201 H 0.09747 0.67059 0.11387 0.0
S1202 S 0.07737 0.764 0.04956 0.0
N1203 N 0.09499 0.7696 0.07726 0.0
N1204 N 0.07071 0.73139 0.04952 0.0
C1205 C 0.08302 0.72359 0.07274 0.0
C1206 C 0.09628 0.74434 0.08781 0.0
C1207 C 0.96223 0.67393 0.16641 0.0
C1208 C 0.93716 0.66124 0.16223 0.0
C1209 C 0.98556 0.66511 0.15308 0.0
C1210 C 0.98487 0.64324 0.13494 0.0
H1211 H 0.96371 0.69162 0.17915 0.0
H1212 H 0.00403 0.67636 0.15618 0.0
S1213 S 0.92522 0.60044 0.11999 0.0
N1214 N 0.91377 0.62363 0.14096 0.0
N1215 N 0.95756 0.60719 0.11585 0.0
C1216 C 0.96035 0.62921 0.13196 0.0
C1217 C 0.93655 0.63815 0.14562 0.0
C1218 C 0.92171 0.75604 0.09427 0.0
C1219 C 0.90004 0.76172 0.11174 0.0
C1220 C 0.93409 0.77645 0.07916 0.0
C1221 C 0.9252 0.80335 0.08069 0.0
H1222 H 0.93021 0.73594 0.0933 0.0
H1223 H 0.95152 0.7712 0.06706 0.0
S1224 S 0.86623 0.82799 0.11996 0.0
N1225 N 0.8681 0.79557 0.12723 0.0
N1226 N 0.89113 0.83392 0.09865 0.0
C1227 C 0.90216 0.80892 0.09645 0.0
C1228 C 0.88968 0.78812 0.11202 0.0
C1229 C 0.06366 0.86395 0.10247 0.0
C1230 C 0.03637 0.86263 0.10993 0.0
C1231 C 0.08404 0.85568 0.12014 0.0
C1232 C 0.07788 0.84508 0.14577 0.0
H1233 H 0.06931 0.87083 0.0825 0.0
H1234 H 0.10468 0.8563 0.11301 0.0
S1235 S 0.0095 0.83885 0.17555 0.0
N1236 N 0.00417 0.85158 0.14522 0.0
N1237 N 0.04251 0.83519 0.17831 0.0
C1238 C 0.05069 0.84458 0.15389 0.0
C1239 C 0.02991 0.85359 0.13602 0.0
C1240 C 0.40032 0.08902 0.27549 0.0
C1241 C 0.38127 0.11004 0.27668 0.0
C1242 C 0.4134 0.07977 0.29877 0.0
C1243 C 0.40798 0.09113 0.32423 0.0
H1244 H 0.40428 0.07866 0.25665 0.0
H1245 H 0.42686 0.06266 0.29687 0.0
S1246 S 0.36331 0.14976 0.33768 0.0
N1247 N 0.36024 0.14425 0.30498 0.0
N1248 N 0.38482 0.12686 0.34869 0.0
C1249 C 0.39055 0.11352 0.32542 0.0
C1250 C 0.37721 0.12297 0.30168 0.0
C1251 C 0.37624 0.36865 0.94851 0.0
C1252 C 0.36676 0.36123 0.97424 0.0
C1253 C 0.36617 0.35649 0.92508 0.0
C1254 C 0.34616 0.33638 0.92633 0.0
H1255 H 0.3906 0.38496 0.94625 0.0
H1256 H 0.37322 0.36397 0.9058 0.0
S1257 S 0.31813 0.30612 0.98889 0.0
N1258 N 0.33889 0.32981 0.9997 0.0
N1259 N 0.31993 0.30699 0.95564 0.0
C1260 C 0.33818 0.32712 0.95198 0.0
C1261 C 0.34847 0.33953 0.97592 0.0
C1262 C 0.6205 0.38137 0.30082 0.0
C1263 C 0.61567 0.39143 0.27471 0.0
C1264 C 0.60679 0.39165 0.32327 0.0
C1265 C 0.58769 0.41247 0.32061 0.0
H1266 H 0.636 0.36635 0.30424 0.0
H1267 H 0.61234 0.38412 0.34301 0.0
S1268 S 0.56392 0.44233 0.25614 0.0
N1269 N 0.58763 0.42078 0.24707 0.0
N1270 N 0.56189 0.44013 0.2893 0.0
C1271 C 0.58092 0.42106 0.29439 0.0
C1272 C 0.5949 0.41054 0.27144 0.0
C1273 C 0.64981 0.10034 0.93478 0.0
C1274 C 0.64843 0.11234 0.96039 0.0
C1275 C 0.65817 0.115 0.91223 0.0
C1276 C 0.66613 0.14219 0.91443 0.0
H1277 H 0.64493 0.07919 0.93221 0.0
H1278 H 0.65953 0.10443 0.89315 0.0
S1279 S 0.66436 0.18351 0.97687 0.0
N1280 N 0.65388 0.15341 0.9866 0.0
N1281 N 0.67039 0.18103 0.94417 0.0
C1282 C 0.66381 0.1548 0.93979 0.0
C1283 C 0.65474 0.13987 0.96278 0.0
C1284 C 0.40559 0.91573 0.22932 0.0
C1285 C 0.38802 0.89347 0.22794 0.0
C1286 C 0.41857 0.92556 0.20624 0.0
C1287 C 0.41458 0.91353 0.18081 0.0
H1288 H 0.40827 0.92663 0.24807 0.0
H1289 H 0.43074 0.9436 0.20822 0.0
S1290 S 0.37461 0.85161 0.16724 0.0
N1291 N 0.37027 0.85739 0.19975 0.0
N1292 N 0.39472 0.87581 0.15638 0.0
C1293 C 0.39888 0.88988 0.17956 0.0
C1294 C 0.3856 0.87988 0.2031 0.0
C1295 C 0.13821 0.37061 0.08432 0.0
C1296 C 0.15841 0.35147 0.0787 0.0
C1297 C 0.1263 0.38585 0.06376 0.0
C1298 C 0.13403 0.38264 0.03662 0.0
H1299 H 0.1322 0.37472 0.10493 0.0
H1300 H 0.11164 0.40103 0.06943 0.0
S1301 S 0.18338 0.33258 0.01058 0.0
N1302 N 0.18366 0.32817 0.04358 0.0
N1303 N 0.16126 0.3568 0.00491 0.0
C1304 C 0.15291 0.36229 0.03045 0.0
C1305 C 0.16509 0.34674 0.05147 0.0
C1306 C 0.60387 0.58844 0.22884 0.0
C1307 C 0.62386 0.60852 0.22715 0.0
C1308 C 0.59121 0.57838 0.20566 0.0
C1309 C 0.59797 0.58801 0.1798 0.0
H1310 H 0.59878 0.57942 0.24808 0.0
H1311 H 0.5769 0.56204 0.20804 0.0
S1312 S 0.64576 0.64373 0.16477 0.0
N1313 N 0.64745 0.64002 0.19781 0.0
N1314 N 0.62362 0.6212 0.15426 0.0
C1315 C 0.61646 0.60951 0.178 0.0
C1316 C 0.62942 0.61972 0.20165 0.0
C1317 C 0.84221 0.14796 0.06034 0.0
C1318 C 0.8306 0.13495 0.08277 0.0
C1319 C 0.85006 0.13332 0.03734 0.0
C1320 C 0.846 0.10528 0.03579 0.0
H1321 H 0.84512 0.16961 0.06049 0.0
H1322 H 0.85865 0.14411 0.02039 0.0
S1323 S 0.81729 0.06145 0.08925 0.0
N1324 N 0.81628 0.09211 0.10213 0.0
N1325 N 0.83064 0.06491 0.05896 0.0
C1326 C 0.83482 0.09201 0.0582 0.0
C1327 C 0.82723 0.10676 0.08168 0.0
C1328 C 0.32639 0.3839 0.10265 0.0
C1329 C 0.32575 0.40423 0.0828 0.0
C1330 C 0.30261 0.37238 0.11275 0.0
C1331 C 0.27709 0.38069 0.1035 0.0
H1332 H 0.34546 0.37597 0.10977 0.0
H1333 H 0.30438 0.35606 0.12716 0.0
S1334 S 0.26407 0.43588 0.05446 0.0
N1335 N 0.29726 0.4341 0.05629 0.0
N1336 N 0.2526 0.41258 0.0753 0.0
C1337 C 0.27608 0.40219 0.0849 0.0
C1338 C 0.30036 0.41391 0.07457 0.0
C1339 C 0.31469 0.64333 0.37381 0.0
C1340 C 0.28743 0.64023 0.38108 0.0
C1341 C 0.33511 0.6289 0.38693 0.0
C1342 C 0.32918 0.61076 0.40794 0.0
H1343 H 0.32055 0.65785 0.35858 0.0
H1344 H 0.35581 0.63292 0.38121 0.0
S1345 S 0.26069 0.59235 0.43218 0.0
N1346 N 0.25532 0.61538 0.40877 0.0
N1347 N 0.29372 0.58832 0.43345 0.0
C1348 C 0.30186 0.60603 0.41418 0.0
C1349 C 0.281 0.62073 0.40075 0.0
C1350 C 0.85042 0.48125 0.83748 0.0
C1351 C 0.86974 0.47949 0.85825 0.0
C1352 C 0.83639 0.45843 0.82836 0.0
C1353 C 0.84106 0.4328 0.83961 0.0
H1354 H 0.84674 0.50025 0.82736 0.0
H1355 H 0.82259 0.46082 0.81159 0.0
S1356 S 0.88685 0.41775 0.89704 0.0
N1357 N 0.8908 0.45035 0.89166 0.0
N1358 N 0.86445 0.40752 0.87462 0.0
C1359 C 0.8591 0.431 0.86153 0.0
C1360 C 0.87341 0.45429 0.87082 0.0
C1361 C 0.70321 0.9003 0.40921 0.0
C1362 C 0.67652 0.89974 0.3995 0.0
C1363 C 0.72386 0.88605 0.39612 0.0
C1364 C 0.71864 0.87059 0.37284 0.0
H1365 H 0.70801 0.91065 0.42785 0.0
H1366 H 0.74369 0.88593 0.40529 0.0
S1367 S 0.65339 0.86669 0.33632 0.0
N1368 N 0.6469 0.88559 0.36296 0.0
N1369 N 0.68565 0.85873 0.33852 0.0
C1370 C 0.69256 0.87167 0.3617 0.0
C1371 C 0.67153 0.88625 0.37499 0.0
C1372 C 0.61793 0.57124 0.37861 0.0
C1373 C 0.61928 0.54375 0.37168 0.0
C1374 C 0.63449 0.59035 0.36605 0.0
C1375 C 0.65313 0.58284 0.34597 0.0
H1376 H 0.60315 0.57835 0.39306 0.0
H1377 H 0.63175 0.61136 0.37138 0.0
S1378 S 0.6675 0.51291 0.32324 0.0
N1379 N 0.643 0.50955 0.34554 0.0
N1380 N 0.67408 0.54551 0.3219 0.0
C1381 C 0.65611 0.55518 0.34023 0.0
C1382 C 0.63922 0.53564 0.35308 0.0
C1383 C 0.17633 0.60162 0.62793 0.0
C1384 C 0.17946 0.59293 0.60102 0.0
C1385 C 0.1968 0.61597 0.64125 0.0
C1386 C 0.22106 0.62239 0.62806 0.0
H1387 H 0.15754 0.5982 0.63854 0.0
H1388 H 0.19295 0.62329 0.66148 0.0
S1389 S 0.24096 0.60142 0.55895 0.0
N1390 N 0.21008 0.58956 0.56269 0.0
N1391 N 0.24828 0.61664 0.58765 0.0
C1392 C 0.22515 0.61244 0.60178 0.0
C1393 C 0.20444 0.59766 0.58829 0.0
C1394 C 0.84125 0.55024 0.67534 0.0
C1395 C 0.84713 0.57496 0.6627 0.0
C1396 C 0.85336 0.52617 0.66683 0.0
C1397 C 0.87187 0.52571 0.64526 0.0
H1398 H 0.82809 0.54954 0.69277 0.0
H1399 H 0.84892 0.50796 0.67804 0.0
S1400 S 0.89112 0.58427 0.6027 0.0
N1401 N 0.87044 0.59699 0.62551 0.0
N1402 N 0.89321 0.55177 0.60954 0.0
C1403 C 0.87654 0.54997 0.63124 0.0
C1404 C 0.86419 0.57455 0.63995 0.0
C1405 C 0.14531 0.93793 0.65094 0.0
C1406 C 0.1636 0.93876 0.67267 0.0
C1407 C 0.13135 0.96102 0.64257 0.0
C1408 C 0.13517 0.98603 0.65544 0.0
H1409 H 0.14085 0.91905 0.64087 0.0
H1410 H 0.11681 0.959 0.62638 0.0
S1411 S 0.18305 0.99981 0.71154 0.0
N1412 N 0.18643 0.96725 0.70551 0.0
N1413 N 0.16036 0.01067 0.68973 0.0
C1414 C 0.15458 0.98752 0.6762 0.0
C1415 C 0.16873 0.96392 0.68482 0.0
C1416 C 0.61221 0.79249 0.88866 0.0
C1417 C 0.60778 0.76496 0.89403 0.0
C1418 C 0.59936 0.81265 0.90378 0.0
C1419 C 0.58136 0.80616 0.9248 0.0
H1420 H 0.6249 0.79861 0.87196 0.0
H1421 H 0.60262 0.83347 0.89802 0.0
S1422 S 0.56557 0.73731 0.94953 0.0
N1423 N 0.58624 0.7324 0.92389 0.0
N1424 N 0.56197 0.77031 0.95204 0.0
C1425 C 0.57802 0.77881 0.93149 0.0
C1426 C 0.59126 0.75823 0.91621 0.0
C1427 C 0.03888 0.13613 0.38294 0.0
C1428 C 0.01333 0.14735 0.37773 0.0
C1429 C 0.06164 0.14371 0.36791 0.0
C1430 C 0.05989 0.1629 0.34702 0.0
H1431 H 0.04167 0.1222 0.39953 0.0
H1432 H 0.08095 0.13525 0.37359 0.0
S1433 S 0.997 0.19542 0.32256 0.0
N1434 N 0.98713 0.17645 0.34808 0.0
N1435 N 0.02987 0.19075 0.32 0.0
C1436 C 0.03416 0.17294 0.34039 0.0
C1437 C 0.01093 0.16516 0.35567 0.0
C1438 C 0.42651 0.70754 0.9165 0.0
C1439 C 0.4146 0.68249 0.91046 0.0
C1440 C 0.41772 0.73132 0.90401 0.0
C1441 C 0.39665 0.73106 0.88495 0.0
H1442 H 0.4437 0.70871 0.92994 0.0
H1443 H 0.42852 0.74981 0.90839 0.0
S1444 S 0.35548 0.67149 0.86573 0.0
N1445 N 0.3782 0.65945 0.88687 0.0
N1446 N 0.36173 0.70409 0.86339 0.0
C1447 C 0.38315 0.7065 0.88035 0.0
C1448 C 0.39211 0.68225 0.89308 0.0
C1449 C 0.98345 0.34172 0.3506 0.0
C1450 C 0.98285 0.36305 0.36938 0.0
C1451 C 0.95972 0.33204 0.33862 0.0
C1452 C 0.93443 0.34331 0.34494 0.0
H1453 H 0.00217 0.33139 0.34613 0.0
H1454 H 0.96114 0.31463 0.3255 0.0
S1455 S 0.92248 0.4029 0.38879 0.0
N1456 N 0.95529 0.39759 0.39075 0.0
N1457 N 0.91075 0.37948 0.36822 0.0
C1458 C 0.93384 0.36611 0.3619 0.0
C1459 C 0.95801 0.37595 0.37412 0.0
C1460 C 0.63897 0.18983 0.61307 0.0
C1461 C 0.62565 0.21462 0.61649 0.0
C1462 C 0.6263 0.16809 0.60008 0.0
C1463 C 0.59991 0.17035 0.5897 0.0
H1464 H 0.65879 0.18668 0.62174 0.0
H1465 H 0.63693 0.14903 0.59908 0.0
S1466 S 0.55777 0.23229 0.59015 0.0
N1467 N 0.58569 0.2411 0.60603 0.0
N1468 N 0.56198 0.20042 0.58147 0.0
C1469 C 0.58713 0.19565 0.59132 0.0
C1470 C 0.59994 0.21771 0.60477 0.0
C1471 C 0.43851 0.14045 0.64404 0.0
C1472 C 0.43943 0.16374 0.66031 0.0
C1473 C 0.4618 0.13007 0.63181 0.0
C1474 C 0.48708 0.1425 0.63532 0.0
H1475 H 0.41945 0.13069 0.6397 0.0
H1476 H 0.45966 0.11281 0.61857 0.0
S1477 S 0.50122 0.20172 0.67913 0.0
N1478 N 0.46832 0.19724 0.6816 0.0
N1479 N 0.51208 0.17774 0.65873 0.0
C1480 C 0.48864 0.1647 0.65306 0.0
C1481 C 0.46485 0.1753 0.66552 0.0
C1482 C 0.43132 0.28136 0.57349 0.0
C1483 C 0.42198 0.30804 0.57619 0.0
C1484 C 0.41989 0.26027 0.58843 0.0
C1485 C 0.39868 0.26498 0.60673 0.0
H1486 H 0.44851 0.27684 0.56078 0.0
H1487 H 0.4288 0.24041 0.58662 0.0
S1488 S 0.36352 0.33021 0.61757 0.0
N1489 N 0.38772 0.33729 0.59581 0.0
N1490 N 0.36635 0.29767 0.62393 0.0
C1491 C 0.3877 0.29113 0.60799 0.0
C1492 C 0.3993 0.31263 0.59272 0.0
C1493 C 0.53349 0.35181 0.6282 0.0
C1494 C 0.53701 0.35955 0.60116 0.0
C1495 C 0.55488 0.34045 0.64294 0.0
C1496 C 0.58051 0.33675 0.63115 0.0
H1497 H 0.51376 0.35308 0.6375 0.0
H1498 H 0.55094 0.33344 0.66326 0.0
S1499 S 0.60084 0.35847 0.56228 0.0
N1500 N 0.56845 0.36587 0.56419 0.0
N1501 N 0.60878 0.34524 0.59179 0.0
C1502 C 0.58463 0.34646 0.60474 0.0
C1503 C 0.56282 0.35764 0.58975 0.0
C1504 C 0.91512 0.58225 0.7986 0.0
C1505 C 0.90885 0.59307 0.82412 0.0
C1506 C 0.90299 0.59212 0.77507 0.0
C1507 C 0.88402 0.61322 0.77602 0.0
H1508 H 0.92868 0.56522 0.79678 0.0
H1509 H 0.90772 0.58226 0.75614 0.0
S1510 S 0.86365 0.65139 0.83723 0.0
N1511 N 0.88469 0.6282 0.84852 0.0
N1512 N 0.86185 0.64668 0.8043 0.0
C1513 C 0.87891 0.62545 0.80116 0.0
C1514 C 0.89132 0.61541 0.82517 0.0
C1515 C 0.83637 0.85504 0.48383 0.0
C1516 C 0.85797 0.87346 0.48479 0.0
C1517 C 0.82921 0.84203 0.45976 0.0
C1518 C 0.84332 0.84694 0.4356 0.0
H1519 H 0.82403 0.85148 0.50152 0.0
H1520 H 0.81162 0.82906 0.45989 0.0
S1521 S 0.90427 0.88986 0.42815 0.0
N1522 N 0.89551 0.89331 0.46009 0.0
N1523 N 0.882 0.86894 0.4149 0.0
C1524 C 0.86617 0.86376 0.43669 0.0
C1525 C 0.87351 0.87698 0.46124 0.0
C1526 C 0.09914 0.90969 0.77156 0.0
C1527 C 0.1178 0.88837 0.7731 0.0
C1528 C 0.08562 0.91899 0.79456 0.0
C1529 C 0.09013 0.9073 0.82006 0.0
H1530 H 0.09607 0.92042 0.75278 0.0
H1531 H 0.07264 0.93643 0.79249 0.0
S1532 S 0.13286 0.84735 0.8339 0.0
N1533 N 0.13707 0.85323 0.8014 0.0
N1534 N 0.1116 0.87061 0.84464 0.0
C1535 C 0.10686 0.88438 0.82142 0.0
C1536 C 0.12071 0.87495 0.79795 0.0
C1537 C 0.13221 0.62613 0.45774 0.0
C1538 C 0.14167 0.63464 0.48314 0.0
C1539 C 0.14045 0.63894 0.43396 0.0
C1540 C 0.1585 0.66084 0.4345 0.0
H1541 H 0.11925 0.60862 0.45599 0.0
H1542 H 0.13349 0.63073 0.41493 0.0
S1543 S 0.18583 0.69379 0.49605 0.0
N1544 N 0.16756 0.66847 0.50759 0.0
N1545 N 0.18305 0.69255 0.46289 0.0
C1546 C 0.1665 0.6709 0.45987 0.0
C1547 C 0.15811 0.6578 0.48416 0.0
C1548 C 0.86332 0.38569 0.70135 0.0
C1549 C 0.87408 0.39162 0.72697 0.0
C1550 C 0.87579 0.39486 0.67771 0.0
C1551 C 0.89955 0.41036 0.67864 0.0
H1552 H 0.84445 0.37485 0.69944 0.0
H1553 H 0.86598 0.39068 0.65864 0.0
S1554 S 0.93824 0.42792 0.74041 0.0
N1555 N 0.91165 0.41136 0.75168 0.0
N1556 N 0.93509 0.42858 0.70727 0.0
C1557 C 0.91159 0.41481 0.70401 0.0
C1558 C 0.89886 0.40546 0.72815 0.0
C1559 C 0.67539 0.84825 0.52322 0.0
C1560 C 0.6516 0.86371 0.5215 0.0
C1561 C 0.68321 0.83598 0.54747 0.0
C1562 C 0.66759 0.83868 0.57103 0.0
H1563 H 0.68883 0.84662 0.50606 0.0
H1564 H 0.70239 0.82554 0.54803 0.0
S1565 S 0.60117 0.87297 0.57617 0.0
N1566 N 0.61074 0.87804 0.54469 0.0
N1567 N 0.62544 0.85501 0.59019 0.0
C1568 C 0.64274 0.8523 0.56907 0.0
C1569 C 0.63475 0.86479 0.54436 0.0
C1570 C 0.11796 0.11468 0.68772 0.0
C1571 C 0.09618 0.09659 0.68979 0.0
C1572 C 0.13222 0.12312 0.7106 0.0
C1573 C 0.12525 0.11394 0.73655 0.0
H1574 H 0.12506 0.12133 0.66815 0.0
H1575 H 0.14965 0.13598 0.70769 0.0
S1576 S 0.06684 0.07011 0.75344 0.0
N1577 N 0.06612 0.07251 0.72024 0.0
N1578 N 0.09284 0.08844 0.76326 0.0
C1579 C 0.10212 0.09762 0.73915 0.0
C1580 C 0.08762 0.08893 0.71578 0.0
C1581 C 0.33818 0.66404 0.52585 0.0
C1582 C 0.35954 0.64533 0.52636 0.0
C1583 C 0.32844 0.6758 0.54966 0.0
C1584 C 0.33967 0.6693 0.57491 0.0
H1585 H 0.32783 0.66854 0.50714 0.0
H1586 H 0.31095 0.68882 0.54833 0.0
S1587 S 0.39946 0.62578 0.58667 0.0
N1588 N 0.39422 0.62403 0.55382 0.0
N1589 N 0.3759 0.64611 0.59852 0.0
C1590 C 0.36255 0.65251 0.57543 0.0
C1591 C 0.37249 0.64054 0.55119 0.0
C1592 C 0.8307 0.89915 0.62895 0.0
C1593 C 0.82494 0.91215 0.60436 0.0
C1594 C 0.81121 0.8837 0.64236 0.0
C1595 C 0.78501 0.8806 0.63187 0.0
H1596 H 0.85083 0.89983 0.63741 0.0
H1597 H 0.81718 0.87309 0.6605 0.0
S1598 S 0.75831 0.91357 0.5701 0.0
N1599 N 0.79014 0.92326 0.57155 0.0
N1600 N 0.75347 0.89429 0.59681 0.0
C1601 C 0.77829 0.89519 0.60841 0.0
C1602 C 0.79825 0.91092 0.59464 0.0
C1603 C 0.8046 0.0992 0.90146 0.0
C1604 C 0.83195 0.10059 0.89395 0.0
C1605 C 0.78475 0.1133 0.88708 0.0
C1606 C 0.79147 0.12938 0.86464 0.0
H1607 H 0.79857 0.08831 0.91941 0.0
H1608 H 0.76423 0.11275 0.89459 0.0
S1609 S 0.85935 0.13554 0.8336 0.0
N1610 N 0.86411 0.11621 0.86027 0.0
N1611 N 0.82684 0.14273 0.83336 0.0
C1612 C 0.81838 0.12914 0.85562 0.0
C1613 C 0.8386 0.11476 0.87024 0.0
C1614 C 0.36382 0.93088 0.35628 0.0
C1615 C 0.34418 0.93261 0.33579 0.0
C1616 C 0.37663 0.95396 0.36648 0.0
C1617 C 0.37033 0.97984 0.3567 0.0
H1618 H 0.37027 0.91143 0.36383 0.0
H1619 H 0.39237 0.9513 0.38139 0.0
S1620 S 0.31767 0.99586 0.30573 0.0
N1621 N 0.31713 0.96266 0.30803 0.0
N1622 N 0.341 0.00601 0.32722 0.0
C1623 C 0.34945 0.98204 0.33748 0.0
C1624 C 0.33644 0.95847 0.32703 0.0
C1625 C 0.22674 0.38939 0.89672 0.0
C1626 C 0.2241 0.38034 0.86991 0.0
C1627 C 0.20598 0.40364 0.90958 0.0
C1628 C 0.18152 0.40915 0.89627 0.0
H1629 H 0.24467 0.38463 0.90827 0.0
H1630 H 0.20866 0.4091 0.93057 0.0
S1631 S 0.16553 0.39276 0.82493 0.0
N1632 N 0.19601 0.38021 0.82965 0.0
N1633 N 0.15687 0.40676 0.8539 0.0
C1634 C 0.17921 0.40166 0.86895 0.0
C1635 C 0.20052 0.38735 0.85574 0.0
C1636 C 0.13355 0.04164 0.86827 0.0
C1637 C 0.13675 0.01654 0.85538 0.0
C1638 C 0.14848 0.06425 0.86027 0.0
C1639 C 0.16719 0.06279 0.83895 0.0
H1640 H 0.11867 0.04419 0.88408 0.0
H1641 H 0.14441 0.08328 0.87022 0.0
S1642 S 0.18567 0.00105 0.80067 0.0
N1643 N 0.16202 0.99099 0.82185 0.0
N1644 N 0.18998 0.03348 0.80678 0.0
C1645 C 0.17183 0.03745 0.82697 0.0
C1646 C 0.15665 0.01435 0.83518 0.0
C1647 C 0.67054 0.14268 0.10635 0.0
C1648 C 0.67433 0.11603 0.09729 0.0
C1649 C 0.692 0.15781 0.11665 0.0
C1650 C 0.7179 0.14669 0.119 0.0
H1651 H 0.6512 0.15259 0.10408 0.0
H1652 H 0.68851 0.17875 0.12188 0.0
S1653 S 0.73818 0.07706 0.10113 0.0
N1654 N 0.7058 0.0785 0.09335 0.0
N1655 N 0.74603 0.10701 0.11346 0.0
C1656 C 0.72172 0.11957 0.11188 0.0
C1657 C 0.69994 0.10421 0.10083 0.0
C1658 C 0.37301 0.04947 0.1368 0.0
C1659 C 0.36857 0.02371 0.14786 0.0
C1660 C 0.35914 0.07215 0.1464 0.0
C1661 C 0.34025 0.07014 0.16753 0.0
H1662 H 0.38814 0.05242 0.1213 0.0
H1663 H 0.36421 0.09161 0.13786 0.0
S1664 S 0.3184 0.00677 0.20098 0.0
N1665 N 0.3417 0.99711 0.17924 0.0
N1666 N 0.31578 0.03974 0.19731 0.0
C1667 C 0.33427 0.04425 0.17757 0.0
C1668 C 0.34838 0.02107 0.16773 0.0
C1669 C 0.64679 0.42785 0.14934 0.0
C1670 C 0.6657 0.43006 0.17043 0.0
C1671 C 0.63345 0.45056 0.13914 0.0
C1672 C 0.63853 0.47651 0.14948 0.0
H1673 H 0.64122 0.40828 0.14138 0.0
H1674 H 0.61826 0.44752 0.12374 0.0
S1675 S 0.68916 0.4938 0.20204 0.0
N1676 N 0.69097 0.46067 0.19931 0.0
N1677 N 0.66606 0.50339 0.18007 0.0
C1678 C 0.65881 0.47926 0.16924 0.0
C1679 C 0.67234 0.45606 0.17973 0.0
loop_
_geom_bond_atom_site_label_1
_geom_bond_atom_site_label_2
_geom_bond_distance
_geom_bond_site_symmetry_2
_ccdc_geom_bond_type
Mg0 O7 2.141 . S
Mg0 O8 2.048 . S
Mg0 O9 2.048 . S
Mg0 O12 2.141 . S
C1 O2 1.313 . S
C1 O8 1.195 . S
O2 C1 1.313 . S
C3 O4 1.245 . S
C3 O12 1.289 . S
O4 C3 1.245 . S
C5 O6 1.245 . S
C5 O7 1.289 . S
O6 C5 1.245 . S
O7 Mg0 2.141 . S
O7 C5 1.289 . S
O8 Mg0 2.048 . S
O8 C1 1.195 . S
O9 Mg0 2.048 . S
O9 C10 1.195 . S
C10 O9 1.195 . S
C10 O11 1.313 . S
O11 C10 1.313 . S
O12 Mg0 2.141 . S
O12 C3 1.289 . S
Mg13 O20 2.141 . S
Mg13 O21 2.048 . S
Mg13 O22 2.048 . S
Mg13 O25 2.141 . S
C14 O15 1.313 . S
C14 O21 1.195 . S
O15 C14 1.313 . S
C16 O17 1.245 . S
C16 O25 1.289 . S
O17 C16 1.245 . S
C18 O19 1.245 . S
C18 O20 1.289 . S
O19 C18 1.245 . S
O20 Mg13 2.141 . S
O20 C18 1.289 . S
O21 Mg13 2.048 . S
O21 C14 1.195 . S
O22 Mg13 2.048 . S
O22 C23 1.195 . S
C23 O22 1.195 . S
C23 O24 1.313 . S
O24 C23 1.313 . S
O25 Mg13 2.141 . S
O25 C16 1.289 . S
Mg26 O33 2.141 . S
Mg26 O34 2.048 . S
Mg26 O35 2.048 . S
Mg26 O38 2.141 . S
C27 O28 1.313 . S
C27 O34 1.195 . S
O28 C27 1.313 . S
C29 O30 1.245 . S
C29 O38 1.289 . S
O30 C29 1.245 . S
C31 O32 1.245 . S
C31 O33 1.289 . S
O32 C31 1.245 . S
O33 Mg26 2.141 . S
O33 C31 1.289 . S
O34 Mg26 2.048 . S
O34 C27 1.195 . S
O35 Mg26 2.048 . S
O35 C36 1.195 . S
C36 O35 1.195 . S
C36 O37 1.313 . S
O37 C36 1.313 . S
O38 Mg26 2.141 . S
O38 C29 1.289 . S
Mg39 O46 2.141 . S
Mg39 O47 2.048 . S
Mg39 O48 2.048 . S
Mg39 O51 2.141 . S
C40 O41 1.313 . S
C40 O47 1.195 . S
O41 C40 1.313 . S
C42 O43 1.245 . S
C42 O51 1.289 . S
O43 C42 1.245 . S
C44 O45 1.245 . S
C44 O46 1.289 . S
O45 C44 1.245 . S
O46 Mg39 2.141 . S
O46 C44 1.289 . S
O47 Mg39 2.048 . S
O47 C40 1.195 . S
O48 Mg39 2.048 . S
O48 C49 1.195 . S
C49 O48 1.195 . S
C49 O50 1.313 . S
O50 C49 1.313 . S
O51 Mg39 2.141 . S
O51 C42 1.289 . S
Mg52 O59 2.141 . S
Mg52 O60 2.048 . S
Mg52 O61 2.048 . S
Mg52 O64 2.141 . S
C53 O54 1.313 . S
C53 O60 1.195 . S
O54 C53 1.313 . S
C55 O56 1.245 . S
C55 O64 1.289 . S
O56 C55 1.245 . S
C57 O58 1.245 . S
C57 O59 1.289 . S
O58 C57 1.245 . S
O59 Mg52 2.141 . S
O59 C57 1.289 . S
O60 Mg52 2.048 . S
O60 C53 1.195 . S
O61 Mg52 2.048 . S
O61 C62 1.195 . S
C62 O61 1.195 . S
C62 O63 1.313 . S
O63 C62 1.313 . S
O64 Mg52 2.141 . S
O64 C55 1.289 . S
Mg65 O72 2.141 . S
Mg65 O73 2.048 1_655 S
Mg65 O74 2.048 1_655 S
Mg65 O77 2.141 . S
C66 O67 1.313 . S
C66 O73 1.195 . S
O67 C66 1.313 . S
C68 O69 1.245 . S
C68 O77 1.289 . S
O69 C68 1.245 . S
C70 O71 1.245 . S
C70 O72 1.289 . S
O71 C70 1.245 . S
O72 Mg65 2.141 . S
O72 C70 1.289 . S
O73 Mg65 2.048 1_455 S
O73 C66 1.195 . S
O74 Mg65 2.048 1_455 S
O74 C75 1.195 . S
C75 O74 1.195 . S
C75 O76 1.313 . S
O76 C75 1.313 . S
O77 Mg65 2.141 . S
O77 C68 1.289 . S
Mg78 O85 2.141 . S
Mg78 O86 2.048 . S
Mg78 O87 2.048 . S
Mg78 O90 2.141 . S
C79 O80 1.313 . S
C79 O86 1.195 . S
O80 C79 1.313 . S
C81 O82 1.245 . S
C81 O90 1.289 . S
O82 C81 1.245 . S
C83 O84 1.245 . S
C83 O85 1.289 . S
O84 C83 1.245 . S
O85 Mg78 2.141 . S
O85 C83 1.289 . S
O86 Mg78 2.048 . S
O86 C79 1.195 . S
O87 Mg78 2.048 . S
O87 C88 1.195 . S
C88 O87 1.195 . S
C88 O89 1.313 . S
O89 C88 1.313 . S
O90 Mg78 2.141 . S
O90 C81 1.289 . S
Mg91 O98 2.141 . S
Mg91 O99 2.048 1_455 S
Mg91 O100 2.048 1_455 S
Mg91 O103 2.141 . S
C92 O93 1.313 . S
C92 O99 1.195 . S
O93 C92 1.313 . S
C94 O95 1.245 . S
C94 O103 1.289 . S
O95 C94 1.245 . S
C96 O97 1.245 . S
C96 O98 1.289 . S
O97 C96 1.245 . S
O98 Mg91 2.141 . S
O98 C96 1.289 . S
O99 Mg91 2.048 1_655 S
O99 C92 1.195 . S
O100 Mg91 2.048 1_655 S
O100 C101 1.195 . S
C101 O100 1.195 . S
C101 O102 1.313 . S
O102 C101 1.313 . S
O103 Mg91 2.141 . S
O103 C94 1.289 . S
Mg104 O111 2.141 . S
Mg104 O112 2.048 . S
Mg104 O113 2.048 . S
Mg104 O116 2.141 . S
C105 O106 1.313 . S
C105 O112 1.195 . S
O106 C105 1.313 . S
C107 O108 1.245 . S
C107 O116 1.289 . S
O108 C107 1.245 . S
C109 O110 1.245 . S
C109 O111 1.289 . S
O110 C109 1.245 . S
O111 Mg104 2.141 . S
O111 C109 1.289 . S
O112 Mg104 2.048 . S
O112 C105 1.195 . S
O113 Mg104 2.048 . S
O113 C114 1.195 . S
C114 O113 1.195 . S
C114 O115 1.313 . S
O115 C114 1.313 . S
O116 Mg104 2.141 . S
O116 C107 1.289 . S
Mg117 O124 2.141 . S
Mg117 O125 2.048 1_556 S
Mg117 O126 2.048 1_556 S
Mg117 O129 2.141 . S
C118 O119 1.313 . S
C118 O125 1.195 . S
O119 C118 1.313 . S
C120 O121 1.245 . S
C120 O129 1.289 . S
O121 C120 1.245 . S
C122 O123 1.245 . S
C122 O124 1.289 . S
O123 C122 1.245 . S
O124 Mg117 2.141 . S
O124 C122 1.289 . S
O125 Mg117 2.048 1_554 S
O125 C118 1.195 . S
O126 Mg117 2.048 1_554 S
O126 C127 1.195 . S
C127 O126 1.195 . S
C127 O128 1.313 . S
O128 C127 1.313 . S
O129 Mg117 2.141 . S
O129 C120 1.289 . S
Mg130 O137 2.141 . S
Mg130 O138 2.048 . S
Mg130 O139 2.048 . S
Mg130 O142 2.141 . S
C131 O132 1.313 . S
C131 O138 1.195 . S
O132 C131 1.313 . S
C133 O134 1.245 . S
C133 O142 1.289 . S
O134 C133 1.245 . S
C135 O136 1.245 . S
C135 O137 1.289 . S
O136 C135 1.245 . S
O137 Mg130 2.141 . S
O137 C135 1.289 . S
O138 Mg130 2.048 . S
O138 C131 1.195 . S
O139 Mg130 2.048 . S
O139 C140 1.195 . S
C140 O139 1.195 . S
C140 O141 1.313 . S
O141 C140 1.313 . S
O142 Mg130 2.141 . S
O142 C133 1.289 . S
Mg143 O150 2.141 . S
Mg143 O151 2.048 1_556 S
Mg143 O152 2.048 1_556 S
Mg143 O155 2.141 . S
C144 O145 1.313 . S
C144 O151 1.195 . S
O145 C144 1.313 . S
C146 O147 1.245 . S
C146 O155 1.289 . S
O147 C146 1.245 . S
C148 O149 1.245 . S
C148 O150 1.289 . S
O149 C148 1.245 . S
O150 Mg143 2.141 . S
O150 C148 1.289 . S
O151 Mg143 2.048 1_554 S
O151 C144 1.195 . S
O152 Mg143 2.048 1_554 S
O152 C153 1.195 . S
C153 O152 1.195 . S
C153 O154 1.313 . S
O154 C153 1.313 . S
O155 Mg143 2.141 . S
O155 C146 1.289 . S
Mg156 O163 2.141 . S
Mg156 O164 2.048 . S
Mg156 O165 2.048 . S
Mg156 O168 2.141 . S
C157 O158 1.313 . S
C157 O164 1.195 . S
O158 C157 1.313 . S
C159 O160 1.245 . S
C159 O168 1.289 . S
O160 C159 1.245 . S
C161 O162 1.245 . S
C161 O163 1.289 . S
O162 C161 1.245 . S
O163 Mg156 2.141 . S
O163 C161 1.289 . S
O164 Mg156 2.048 . S
O164 C157 1.195 . S
O165 Mg156 2.048 . S
O165 C166 1.195 . S
C166 O165 1.195 . S
C166 O167 1.313 . S
O167 C166 1.313 . S
O168 Mg156 2.141 . S
O168 C159 1.289 . S
Mg169 O176 2.141 . S
Mg169 O177 2.048 1_554 S
Mg169 O178 2.048 1_554 S
Mg169 O181 2.141 . S
C170 O171 1.313 . S
C170 O177 1.195 . S
O171 C170 1.313 . S
C172 O173 1.245 . S
C172 O181 1.289 . S
O173 C172 1.245 . S
C174 O175 1.245 . S
C174 O176 1.289 . S
O175 C174 1.245 . S
O176 Mg169 2.141 . S
O176 C174 1.289 . S
O177 Mg169 2.048 1_556 S
O177 C170 1.195 . S
O178 Mg169 2.048 1_556 S
O178 C179 1.195 . S
C179 O178 1.195 . S
C179 O180 1.313 . S
O180 C179 1.313 . S
O181 Mg169 2.141 . S
O181 C172 1.289 . S
Mg182 O189 2.141 . S
Mg182 O190 2.048 . S
Mg182 O191 2.048 . S
Mg182 O194 2.141 . S
C183 O184 1.313 . S
C183 O190 1.195 . S
O184 C183 1.313 . S
C185 O186 1.245 . S
C185 O194 1.289 . S
O186 C185 1.245 . S
C187 O188 1.245 . S
C187 O189 1.289 . S
O188 C187 1.245 . S
O189 Mg182 2.141 . S
O189 C187 1.289 . S
O190 Mg182 2.048 . S
O190 C183 1.195 . S
O191 Mg182 2.048 . S
O191 C192 1.195 . S
C192 O191 1.195 . S
C192 O193 1.313 . S
O193 C192 1.313 . S
O194 Mg182 2.141 . S
O194 C185 1.289 . S
Mg195 O202 2.141 . S
Mg195 O203 2.048 1_554 S
Mg195 O204 2.048 1_554 S
Mg195 O207 2.141 . S
C196 O197 1.313 . S
C196 O203 1.195 . S
O197 C196 1.313 . S
C198 O199 1.245 . S
C198 O207 1.289 . S
O199 C198 1.245 . S
C200 O201 1.245 . S
C200 O202 1.289 . S
O201 C200 1.245 . S
O202 Mg195 2.141 . S
O202 C200 1.289 . S
O203 Mg195 2.048 1_556 S
O203 C196 1.195 . S
O204 Mg195 2.048 1_556 S
O204 C205 1.195 . S
C205 O204 1.195 . S
C205 O206 1.313 . S
O206 C205 1.313 . S
O207 Mg195 2.141 . S
O207 C198 1.289 . S
Mg208 O215 2.141 . S
Mg208 O216 2.048 . S
Mg208 O217 2.048 . S
Mg208 O220 2.141 . S
C209 O210 1.313 . S
C209 O216 1.195 . S
O210 C209 1.313 . S
C211 O212 1.245 . S
C211 O220 1.289 . S
O212 C211 1.245 . S
C213 O214 1.245 . S
C213 O215 1.289 . S
O214 C213 1.245 . S
O215 Mg208 2.141 . S
O215 C213 1.289 . S
O216 Mg208 2.048 . S
O216 C209 1.195 . S
O217 Mg208 2.048 . S
O217 C218 1.195 . S
C218 O217 1.195 . S
C218 O219 1.313 . S
O219 C218 1.313 . S
O220 Mg208 2.141 . S
O220 C211 1.289 . S
Mg221 O228 2.141 . S
Mg221 O229 2.048 . S
Mg221 O230 2.048 . S
Mg221 O233 2.141 . S
C222 O223 1.313 . S
C222 O229 1.195 . S
O223 C222 1.313 . S
C224 O225 1.245 . S
C224 O233 1.289 . S
O225 C224 1.245 . S
C226 O227 1.245 . S
C226 O228 1.289 . S
O227 C226 1.245 . S
O228 Mg221 2.141 . S
O228 C226 1.289 . S
O229 Mg221 2.048 . S
O229 C222 1.195 . S
O230 Mg221 2.048 . S
O230 C231 1.195 . S
C231 O230 1.195 . S
C231 O232 1.313 . S
O232 C231 1.313 . S
O233 Mg221 2.141 . S
O233 C224 1.289 . S
Mg234 O241 2.141 . S
Mg234 O242 2.048 . S
Mg234 O243 2.048 . S
Mg234 O246 2.141 . S
C235 O236 1.313 . S
C235 O242 1.195 . S
O236 C235 1.313 . S
C237 O238 1.245 . S
C237 O246 1.289 . S
O238 C237 1.245 . S
C239 O240 1.245 . S
C239 O241 1.289 . S
O240 C239 1.245 . S
O241 Mg234 2.141 . S
O241 C239 1.289 . S
O242 Mg234 2.048 . S
O242 C235 1.195 . S
O243 Mg234 2.048 . S
O243 C244 1.195 . S
C244 O243 1.195 . S
C244 O245 1.313 . S
O245 C244 1.313 . S
O246 Mg234 2.141 . S
O246 C237 1.289 . S
Mg247 O254 2.141 . S
Mg247 O255 2.048 . S
Mg247 O256 2.048 . S
Mg247 O259 2.141 . S
C248 O249 1.313 . S
C248 O255 1.195 . S
O249 C248 1.313 . S
C250 O251 1.245 . S
C250 O259 1.289 . S
O251 C250 1.245 . S
C252 O253 1.245 . S
C252 O254 1.289 . S
O253 C252 1.245 . S
O254 Mg247 2.141 . S
O254 C252 1.289 . S
O255 Mg247 2.048 . S
O255 C248 1.195 . S
O256 Mg247 2.048 . S
O256 C257 1.195 . S
C257 O256 1.195 . S
C257 O258 1.313 . S
O258 C257 1.313 . S
O259 Mg247 2.141 . S
O259 C250 1.289 . S
Mg260 O267 2.141 . S
Mg260 O268 2.048 . S
Mg260 O269 2.048 . S
Mg260 O272 2.141 . S
C261 O262 1.313 . S
C261 O268 1.195 . S
O262 C261 1.313 . S
C263 O264 1.245 . S
C263 O272 1.289 . S
O264 C263 1.245 . S
C265 O266 1.245 . S
C265 O267 1.289 . S
O266 C265 1.245 . S
O267 Mg260 2.141 . S
O267 C265 1.289 . S
O268 Mg260 2.048 . S
O268 C261 1.195 . S
O269 Mg260 2.048 . S
O269 C270 1.195 . S
C270 O269 1.195 . S
C270 O271 1.313 . S
O271 C270 1.313 . S
O272 Mg260 2.141 . S
O272 C263 1.289 . S
Mg273 O280 2.141 . S
Mg273 O281 2.048 . S
Mg273 O282 2.048 . S
Mg273 O285 2.141 . S
C274 O275 1.313 . S
C274 O281 1.195 . S
O275 C274 1.313 . S
C276 O277 1.245 . S
C276 O285 1.289 . S
O277 C276 1.245 . S
C278 O279 1.245 . S
C278 O280 1.289 . S
O279 C278 1.245 . S
O280 Mg273 2.141 . S
O280 C278 1.289 . S
O281 Mg273 2.048 . S
O281 C274 1.195 . S
O282 Mg273 2.048 . S
O282 C283 1.195 . S
C283 O282 1.195 . S
C283 O284 1.313 . S
O284 C283 1.313 . S
O285 Mg273 2.141 . S
O285 C276 1.289 . S
Mg286 O293 2.141 . S
Mg286 O294 2.048 . S
Mg286 O295 2.048 . S
Mg286 O298 2.141 . S
C287 O288 1.313 . S
C287 O294 1.195 . S
O288 C287 1.313 . S
C289 O290 1.245 . S
C289 O298 1.289 . S
O290 C289 1.245 . S
C291 O292 1.245 . S
C291 O293 1.289 . S
O292 C291 1.245 . S
O293 Mg286 2.141 . S
O293 C291 1.289 . S
O294 Mg286 2.048 . S
O294 C287 1.195 . S
O295 Mg286 2.048 . S
O295 C296 1.195 . S
C296 O295 1.195 . S
C296 O297 1.313 . S
O297 C296 1.313 . S
O298 Mg286 2.141 . S
O298 C289 1.289 . S
Mg299 O306 2.141 1_545 S
Mg299 O307 2.048 . S
Mg299 O308 2.048 . S
Mg299 O311 2.141 1_545 S
C300 O301 1.313 . S
C300 O307 1.195 . S
O301 C300 1.313 . S
C302 O303 1.245 . S
C302 O311 1.289 . S
O303 C302 1.245 . S
C304 O305 1.245 . S
C304 O306 1.289 . S
O305 C304 1.245 . S
O306 Mg299 2.141 1_565 S
O306 C304 1.289 . S
O307 Mg299 2.048 . S
O307 C300 1.195 . S
O308 Mg299 2.048 . S
O308 C309 1.195 . S
C309 O308 1.195 . S
C309 O310 1.313 . S
O310 C309 1.313 . S
O311 Mg299 2.141 1_565 S
O311 C302 1.289 . S
Mg312 O319 2.141 . S
Mg312 O320 2.048 . S
Mg312 O321 2.048 . S
Mg312 O324 2.141 . S
C313 O314 1.313 . S
C313 O320 1.195 . S
O314 C313 1.313 . S
C315 O316 1.245 . S
C315 O324 1.289 . S
O316 C315 1.245 . S
C317 O318 1.245 . S
C317 O319 1.289 . S
O318 C317 1.245 . S
O319 Mg312 2.141 . S
O319 C317 1.289 . S
O320 Mg312 2.048 . S
O320 C313 1.195 . S
O321 Mg312 2.048 . S
O321 C322 1.195 . S
C322 O321 1.195 . S
C322 O323 1.313 . S
O323 C322 1.313 . S
O324 Mg312 2.141 . S
O324 C315 1.289 . S
Mg325 O332 2.141 . S
Mg325 O333 2.048 1_455 S
Mg325 O334 2.048 1_455 S
Mg325 O337 2.141 . S
C326 O327 1.313 . S
C326 O333 1.195 . S
O327 C326 1.313 . S
C328 O329 1.245 . S
C328 O337 1.289 . S
O329 C328 1.245 . S
C330 O331 1.245 . S
C330 O332 1.289 . S
O331 C330 1.245 . S
O332 Mg325 2.141 . S
O332 C330 1.289 . S
O333 Mg325 2.048 1_655 S
O333 C326 1.195 . S
O334 Mg325 2.048 1_655 S
O334 C335 1.195 . S
C335 O334 1.195 . S
C335 O336 1.313 . S
O336 C335 1.313 . S
O337 Mg325 2.141 . S
O337 C328 1.289 . S
Mg338 O345 2.141 . S
Mg338 O346 2.048 . S
Mg338 O347 2.048 . S
Mg338 O350 2.141 . S
C339 O340 1.313 . S
C339 O346 1.195 . S
O340 C339 1.313 . S
C341 O342 1.245 . S
C341 O350 1.289 . S
O342 C341 1.245 . S
C343 O344 1.245 . S
C343 O345 1.289 . S
O344 C343 1.245 . S
O345 Mg338 2.141 . S
O345 C343 1.289 . S
O346 Mg338 2.048 . S
O346 C339 1.195 . S
O347 Mg338 2.048 . S
O347 C348 1.195 . S
C348 O347 1.195 . S
C348 O349 1.313 . S
O349 C348 1.313 . S
O350 Mg338 2.141 . S
O350 C341 1.289 . S
Mg351 O358 2.141 . S
Mg351 O359 2.048 1_655 S
Mg351 O360 2.048 1_655 S
Mg351 O363 2.141 . S
C352 O353 1.313 . S
C352 O359 1.195 . S
O353 C352 1.313 . S
C354 O355 1.245 . S
C354 O363 1.289 . S
O355 C354 1.245 . S
C356 O357 1.245 . S
C356 O358 1.289 . S
O357 C356 1.245 . S
O358 Mg351 2.141 . S
O358 C356 1.289 . S
O359 Mg351 2.048 1_455 S
O359 C352 1.195 . S
O360 Mg351 2.048 1_455 S
O360 C361 1.195 . S
C361 O360 1.195 . S
C361 O362 1.313 . S
O362 C361 1.313 . S
O363 Mg351 2.141 . S
O363 C354 1.289 . S
Mg364 O371 2.141 . S
Mg364 O372 2.048 . S
Mg364 O373 2.048 . S
Mg364 O376 2.141 . S
C365 O366 1.313 . S
C365 O372 1.195 . S
O366 C365 1.313 . S
C367 O368 1.245 . S
C367 O376 1.289 . S
O368 C367 1.245 . S
C369 O370 1.245 . S
C369 O371 1.289 . S
O370 C369 1.245 . S
O371 Mg364 2.141 . S
O371 C369 1.289 . S
O372 Mg364 2.048 . S
O372 C365 1.195 . S
O373 Mg364 2.048 . S
O373 C374 1.195 . S
C374 O373 1.195 . S
C374 O375 1.313 . S
O375 C374 1.313 . S
O376 Mg364 2.141 . S
O376 C367 1.289 . S
Mg377 O384 2.141 . S
Mg377 O385 2.048 . S
Mg377 O386 2.048 . S
Mg377 O389 2.141 . S
C378 O379 1.313 . S
C378 O385 1.195 . S
O379 C378 1.313 . S
C380 O381 1.245 . S
C380 O389 1.289 . S
O381 C380 1.245 . S
C382 O383 1.245 . S
C382 O384 1.289 . S
O383 C382 1.245 . S
O384 Mg377 2.141 . S
O384 C382 1.289 . S
O385 Mg377 2.048 . S
O385 C378 1.195 . S
O386 Mg377 2.048 . S
O386 C387 1.195 . S
C387 O386 1.195 . S
C387 O388 1.313 . S
O388 C387 1.313 . S
O389 Mg377 2.141 . S
O389 C380 1.289 . S
Mg390 O397 2.141 . S
Mg390 O398 2.048 . S
Mg390 O399 2.048 . S
Mg390 O402 2.141 . S
C391 O392 1.313 . S
C391 O398 1.195 . S
O392 C391 1.313 . S
C393 O394 1.245 . S
C393 O402 1.289 . S
O394 C393 1.245 . S
C395 O396 1.245 . S
C395 O397 1.289 . S
O396 C395 1.245 . S
O397 Mg390 2.141 . S
O397 C395 1.289 . S
O398 Mg390 2.048 . S
O398 C391 1.195 . S
O399 Mg390 2.048 . S
O399 C400 1.195 . S
C400 O399 1.195 . S
C400 O401 1.313 . S
O401 C400 1.313 . S
O402 Mg390 2.141 . S
O402 C393 1.289 . S
Mg403 O410 2.141 . S
Mg403 O411 2.048 . S
Mg403 O412 2.048 . S
Mg403 O415 2.141 . S
C404 O405 1.313 . S
C404 O411 1.195 . S
O405 C404 1.313 . S
C406 O407 1.245 . S
C406 O415 1.289 . S
O407 C406 1.245 . S
C408 O409 1.245 . S
C408 O410 1.289 . S
O409 C408 1.245 . S
O410 Mg403 2.141 . S
O410 C408 1.289 . S
O411 Mg403 2.048 . S
O411 C404 1.195 . S
O412 Mg403 2.048 . S
O412 C413 1.195 . S
C413 O412 1.195 . S
C413 O414 1.313 . S
O414 C413 1.313 . S
O415 Mg403 2.141 . S
O415 C406 1.289 . S
Mg416 O423 2.141 . S
Mg416 O424 2.048 . S
Mg416 O425 2.048 . S
Mg416 O428 2.141 . S
C417 O418 1.313 . S
C417 O424 1.195 . S
O418 C417 1.313 . S
C419 O420 1.245 . S
C419 O428 1.289 . S
O420 C419 1.245 . S
C421 O422 1.245 . S
C421 O423 1.289 . S
O422 C421 1.245 . S
O423 Mg416 2.141 . S
O423 C421 1.289 . S
O424 Mg416 2.048 . S
O424 C417 1.195 . S
O425 Mg416 2.048 . S
O425 C426 1.195 . S
C426 O425 1.195 . S
C426 O427 1.313 . S
O427 C426 1.313 . S
O428 Mg416 2.141 . S
O428 C419 1.289 . S
Mg429 O436 2.141 . S
Mg429 O437 2.048 . S
Mg429 O438 2.048 . S
Mg429 O441 2.141 . S
C430 O431 1.313 . S
C430 O437 1.195 . S
O431 C430 1.313 . S
C432 O433 1.245 . S
C432 O441 1.289 . S
O433 C432 1.245 . S
C434 O435 1.245 . S
C434 O436 1.289 . S
O435 C434 1.245 . S
O436 Mg429 2.141 . S
O436 C434 1.289 . S
O437 Mg429 2.048 . S
O437 C430 1.195 . S
O438 Mg429 2.048 . S
O438 C439 1.195 . S
C439 O438 1.195 . S
C439 O440 1.313 . S
O440 C439 1.313 . S
O441 Mg429 2.141 . S
O441 C432 1.289 . S
Mg442 O449 2.141 . S
Mg442 O450 2.048 . S
Mg442 O451 2.048 . S
Mg442 O454 2.141 . S
C443 O444 1.313 . S
C443 O450 1.195 . S
O444 C443 1.313 . S
C445 O446 1.245 . S
C445 O454 1.289 . S
O446 C445 1.245 . S
C447 O448 1.245 . S
C447 O449 1.289 . S
O448 C447 1.245 . S
O449 Mg442 2.141 . S
O449 C447 1.289 . S
O450 Mg442 2.048 . S
O450 C443 1.195 . S
O451 Mg442 2.048 . S
O451 C452 1.195 . S
C452 O451 1.195 . S
C452 O453 1.313 . S
O453 C452 1.313 . S
O454 Mg442 2.141 . S
O454 C445 1.289 . S
Mg455 O462 2.141 . S
Mg455 O463 2.048 . S
Mg455 O464 2.048 . S
Mg455 O467 2.141 . S
C456 O457 1.313 . S
C456 O463 1.195 . S
O457 C456 1.313 . S
C458 O459 1.245 . S
C458 O467 1.289 . S
O459 C458 1.245 . S
C460 O461 1.245 . S
C460 O462 1.289 . S
O461 C460 1.245 . S
O462 Mg455 2.141 . S
O462 C460 1.289 . S
O463 Mg455 2.048 . S
O463 C456 1.195 . S
O464 Mg455 2.048 . S
O464 C465 1.195 . S
C465 O464 1.195 . S
C465 O466 1.313 . S
O466 C465 1.313 . S
O467 Mg455 2.141 . S
O467 C458 1.289 . S
Mg468 O475 2.141 . S
Mg468 O476 2.048 . S
Mg468 O477 2.048 . S
Mg468 O480 2.141 . S
C469 O470 1.313 . S
C469 O476 1.195 . S
O470 C469 1.313 . S
C471 O472 1.245 . S
C471 O480 1.289 . S
O472 C471 1.245 . S
C473 O474 1.245 . S
C473 O475 1.289 . S
O474 C473 1.245 . S
O475 Mg468 2.141 . S
O475 C473 1.289 . S
O476 Mg468 2.048 . S
O476 C469 1.195 . S
O477 Mg468 2.048 . S
O477 C478 1.195 . S
C478 O477 1.195 . S
C478 O479 1.313 . S
O479 C478 1.313 . S
O480 Mg468 2.141 . S
O480 C471 1.289 . S
Mg481 O488 2.141 . S
Mg481 O489 2.048 . S
Mg481 O490 2.048 . S
Mg481 O493 2.141 . S
C482 O483 1.313 . S
C482 O489 1.195 . S
O483 C482 1.313 . S
C484 O485 1.245 . S
C484 O493 1.289 . S
O485 C484 1.245 . S
C486 O487 1.245 . S
C486 O488 1.289 . S
O487 C486 1.245 . S
O488 Mg481 2.141 . S
O488 C486 1.289 . S
O489 Mg481 2.048 . S
O489 C482 1.195 . S
O490 Mg481 2.048 . S
O490 C491 1.195 . S
C491 O490 1.195 . S
C491 O492 1.313 . S
O492 C491 1.313 . S
O493 Mg481 2.141 . S
O493 C484 1.289 . S
Mg494 O501 2.141 . S
Mg494 O502 2.048 . S
Mg494 O503 2.048 . S
Mg494 O506 2.141 . S
C495 O496 1.313 . S
C495 O502 1.195 . S
O496 C495 1.313 . S
C497 O498 1.245 . S
C497 O506 1.289 . S
O498 C497 1.245 . S
C499 O500 1.245 . S
C499 O501 1.289 . S
O500 C499 1.245 . S
O501 Mg494 2.141 . S
O501 C499 1.289 . S
O502 Mg494 2.048 . S
O502 C495 1.195 . S
O503 Mg494 2.048 . S
O503 C504 1.195 . S
C504 O503 1.195 . S
C504 O505 1.313 . S
O505 C504 1.313 . S
O506 Mg494 2.141 . S
O506 C497 1.289 . S
Mg507 O514 2.141 . S
Mg507 O515 2.048 . S
Mg507 O516 2.048 . S
Mg507 O519 2.141 . S
C508 O509 1.313 . S
C508 O515 1.195 . S
O509 C508 1.313 . S
C510 O511 1.245 . S
C510 O519 1.289 . S
O511 C510 1.245 . S
C512 O513 1.245 . S
C512 O514 1.289 . S
O513 C512 1.245 . S
O514 Mg507 2.141 . S
O514 C512 1.289 . S
O515 Mg507 2.048 . S
O515 C508 1.195 . S
O516 Mg507 2.048 . S
O516 C517 1.195 . S
C517 O516 1.195 . S
C517 O518 1.313 . S
O518 C517 1.313 . S
O519 Mg507 2.141 . S
O519 C510 1.289 . S
Mg520 O527 2.141 . S
Mg520 O528 2.048 . S
Mg520 O529 2.048 . S
Mg520 O532 2.141 . S
C521 O522 1.313 . S
C521 O528 1.195 . S
O522 C521 1.313 . S
C523 O524 1.245 . S
C523 O532 1.289 . S
O524 C523 1.245 . S
C525 O526 1.245 . S
C525 O527 1.289 . S
O526 C525 1.245 . S
O527 Mg520 2.141 . S
O527 C525 1.289 . S
O528 Mg520 2.048 . S
O528 C521 1.195 . S
O529 Mg520 2.048 . S
O529 C530 1.195 . S
C530 O529 1.195 . S
C530 O531 1.313 . S
O531 C530 1.313 . S
O532 Mg520 2.141 . S
O532 C523 1.289 . S
Mg533 O540 2.141 . S
Mg533 O541 2.048 . S
Mg533 O542 2.048 . S
Mg533 O545 2.141 . S
C534 O535 1.313 . S
C534 O541 1.195 . S
O535 C534 1.313 . S
C536 O537 1.245 . S
C536 O545 1.289 . S
O537 C536 1.245 . S
C538 O539 1.245 . S
C538 O540 1.289 . S
O539 C538 1.245 . S
O540 Mg533 2.141 . S
O540 C538 1.289 . S
O541 Mg533 2.048 . S
O541 C534 1.195 . S
O542 Mg533 2.048 . S
O542 C543 1.195 . S
C543 O542 1.195 . S
C543 O544 1.313 . S
O544 C543 1.313 . S
O545 Mg533 2.141 . S
O545 C536 1.289 . S
Mg546 O553 2.141 1_545 S
Mg546 O554 2.048 . S
Mg546 O555 2.048 . S
Mg546 O558 2.141 1_545 S
C547 O548 1.313 . S
C547 O554 1.195 . S
O548 C547 1.313 . S
C549 O550 1.245 . S
C549 O558 1.289 . S
O550 C549 1.245 . S
C551 O552 1.245 . S
C551 O553 1.289 . S
O552 C551 1.245 . S
O553 Mg546 2.141 1_565 S
O553 C551 1.289 . S
O554 Mg546 2.048 . S
O554 C547 1.195 . S
O555 Mg546 2.048 . S
O555 C556 1.195 . S
C556 O555 1.195 . S
C556 O557 1.313 . S
O557 C556 1.313 . S
O558 Mg546 2.141 1_565 S
O558 C549 1.289 . S
Mg559 O566 2.141 . S
Mg559 O567 2.048 . S
Mg559 O568 2.048 . S
Mg559 O571 2.141 . S
C560 O561 1.313 . S
C560 O567 1.195 . S
O561 C560 1.313 . S
C562 O563 1.245 . S
C562 O571 1.289 . S
O563 C562 1.245 . S
C564 O565 1.245 . S
C564 O566 1.289 . S
O565 C564 1.245 . S
O566 Mg559 2.141 . S
O566 C564 1.289 . S
O567 Mg559 2.048 . S
O567 C560 1.195 . S
O568 Mg559 2.048 . S
O568 C569 1.195 . S
C569 O568 1.195 . S
C569 O570 1.313 . S
O570 C569 1.313 . S
O571 Mg559 2.141 . S
O571 C562 1.289 . S
Mg572 O579 2.141 1_565 S
Mg572 O580 2.048 . S
Mg572 O581 2.048 . S
Mg572 O584 2.141 1_565 S
C573 O574 1.313 . S
C573 O580 1.195 . S
O574 C573 1.313 . S
C575 O576 1.245 . S
C575 O584 1.289 . S
O576 C575 1.245 . S
C577 O578 1.245 . S
C577 O579 1.289 . S
O578 C577 1.245 . S
O579 Mg572 2.141 1_545 S
O579 C577 1.289 . S
O580 Mg572 2.048 . S
O580 C573 1.195 . S
O581 Mg572 2.048 . S
O581 C582 1.195 . S
C582 O581 1.195 . S
C582 O583 1.313 . S
O583 C582 1.313 . S
O584 Mg572 2.141 1_545 S
O584 C575 1.289 . S
Mg585 O592 2.141 . S
Mg585 O593 2.048 . S
Mg585 O594 2.048 . S
Mg585 O597 2.141 . S
C586 O587 1.313 . S
C586 O593 1.195 . S
O587 C586 1.313 . S
C588 O589 1.245 . S
C588 O597 1.289 . S
O589 C588 1.245 . S
C590 O591 1.245 . S
C590 O592 1.289 . S
O591 C590 1.245 . S
O592 Mg585 2.141 . S
O592 C590 1.289 . S
O593 Mg585 2.048 . S
O593 C586 1.195 . S
O594 Mg585 2.048 . S
O594 C595 1.195 . S
C595 O594 1.195 . S
C595 O596 1.313 . S
O596 C595 1.313 . S
O597 Mg585 2.141 . S
O597 C588 1.289 . S
Mg598 O605 2.141 1_565 S
Mg598 O606 2.048 . S
Mg598 O607 2.048 . S
Mg598 O610 2.141 1_565 S
C599 O600 1.313 . S
C599 O606 1.195 . S
O600 C599 1.313 . S
C601 O602 1.245 . S
C601 O610 1.289 . S
O602 C601 1.245 . S
C603 O604 1.245 . S
C603 O605 1.289 . S
O604 C603 1.245 . S
O605 Mg598 2.141 1_545 S
O605 C603 1.289 . S
O606 Mg598 2.048 . S
O606 C599 1.195 . S
O607 Mg598 2.048 . S
O607 C608 1.195 . S
C608 O607 1.195 . S
C608 O609 1.313 . S
O609 C608 1.313 . S
O610 Mg598 2.141 1_545 S
O610 C601 1.289 . S
Mg611 O618 2.141 . S
Mg611 O619 2.048 . S
Mg611 O620 2.048 . S
Mg611 O623 2.141 . S
C612 O613 1.313 . S
C612 O619 1.195 . S
O613 C612 1.313 . S
C614 O615 1.245 . S
C614 O623 1.289 . S
O615 C614 1.245 . S
C616 O617 1.245 . S
C616 O618 1.289 . S
O617 C616 1.245 . S
O618 Mg611 2.141 . S
O618 C616 1.289 . S
O619 Mg611 2.048 . S
O619 C612 1.195 . S
O620 Mg611 2.048 . S
O620 C621 1.195 . S
C621 O620 1.195 . S
C621 O622 1.313 . S
O622 C621 1.313 . S
O623 Mg611 2.141 . S
O623 C614 1.289 . S
C624 C625 1.369 . S
C624 C626 1.419 . S
C624 H628 0.930 . S
C625 C624 1.369 . S
C625 C634 1.429 . S
C626 C624 1.419 . S
C626 C627 1.363 . S
C626 H629 0.929 . S
C627 C626 1.363 . S
C627 C633 1.428 . S
H628 C624 0.930 . S
H629 C626 0.929 . S
S630 N631 1.613 . S
S630 N632 1.610 . S
N631 S630 1.613 . S
N631 C634 1.350 . S
N632 S630 1.610 . S
N632 C633 1.351 . S
C633 C627 1.428 . S
C633 N632 1.351 . S
C633 C634 1.434 . S
C634 C625 1.429 . S
C634 N631 1.350 . S
C634 C633 1.434 . S
C635 C636 1.387 . S
C635 C637 1.389 1_554 S
C635 H639 0.943 . S
C636 C635 1.387 . S
C636 C645 1.429 . S
C637 C635 1.389 1_556 S
C637 C638 1.363 . S
C637 H640 0.929 . S
C638 C637 1.363 . S
C638 C644 1.428 . S
H639 C635 0.943 . S
H640 C637 0.929 . S
S641 N642 1.613 1_556 S
S641 N643 1.610 . S
N642 S641 1.613 1_554 S
N642 C645 1.350 . S
N643 S641 1.610 . S
N643 C644 1.351 . S
C644 C638 1.428 . S
C644 N643 1.351 . S
C644 C645 1.434 1_556 S
C645 C636 1.429 . S
C645 N642 1.350 . S
C645 C644 1.434 1_554 S
C646 C647 1.369 . S
C646 C648 1.419 . S
C646 H650 0.930 . S
C647 C646 1.369 . S
C647 C656 1.429 . S
C648 C646 1.419 . S
C648 C649 1.363 . S
C648 H651 0.929 . S
C649 C648 1.363 . S
C649 C655 1.428 . S
H650 C646 0.930 . S
H651 C648 0.929 . S
S652 N653 1.613 . S
S652 N654 1.610 . S
N653 S652 1.613 . S
N653 C656 1.350 . S
N654 S652 1.610 . S
N654 C655 1.351 . S
C655 C649 1.428 . S
C655 N654 1.351 . S
C655 C656 1.434 . S
C656 C647 1.429 . S
C656 N653 1.350 . S
C656 C655 1.434 . S
C657 C658 1.369 . S
C657 C659 1.419 1_556 S
C657 H661 0.930 . S
C658 C657 1.369 . S
C658 C667 1.429 . S
C659 C657 1.419 1_554 S
C659 C660 1.363 . S
C659 H662 0.929 . S
C660 C659 1.363 . S
C660 C666 1.428 . S
H661 C657 0.930 . S
H662 C659 0.929 . S
S663 N664 1.613 1_545 S
S663 N665 1.598 1_546 S
N664 S663 1.613 1_565 S
N664 C667 1.350 . S
N665 S663 1.598 1_564 S
N665 C666 1.372 . S
C666 C660 1.428 . S
C666 N665 1.372 . S
C666 C667 1.434 1_554 S
C667 C658 1.429 . S
C667 N664 1.350 . S
C667 C666 1.434 1_556 S
C668 C669 1.369 . S
C668 C670 1.419 . S
C668 H672 0.930 . S
C669 C668 1.369 . S
C669 C678 1.429 . S
C670 C668 1.419 . S
C670 C671 1.363 . S
C670 H673 0.929 . S
C671 C670 1.363 . S
C671 C677 1.428 . S
H672 C668 0.930 . S
H673 C670 0.929 . S
S674 N675 1.613 . S
S674 N676 1.610 . S
N675 S674 1.613 . S
N675 C678 1.350 . S
N676 S674 1.610 . S
N676 C677 1.351 . S
C677 C671 1.428 . S
C677 N676 1.351 . S
C677 C678 1.434 . S
C678 C669 1.429 . S
C678 N675 1.350 . S
C678 C677 1.434 . S
C679 C680 1.369 . S
C679 C681 1.419 1_554 S
C679 H683 0.930 . S
C680 C679 1.369 . S
C680 C689 1.429 . S
C681 C679 1.419 1_556 S
C681 C682 1.363 . S
C681 H684 0.929 . S
C682 C681 1.363 . S
C682 C688 1.428 1_556 S
H683 C679 0.930 . S
H684 C681 0.929 . S
S685 N686 1.613 . S
S685 N687 1.611 . S
N686 S685 1.613 . S
N686 C689 1.350 . S
N687 S685 1.611 . S
N687 C688 1.351 . S
C688 C682 1.428 1_554 S
C688 N687 1.351 . S
C688 C689 1.434 . S
C689 C680 1.429 . S
C689 N686 1.350 . S
C689 C688 1.434 . S
C690 C691 1.369 . S
C690 C692 1.419 . S
C690 H694 0.930 . S
C691 C690 1.369 . S
C691 C700 1.429 . S
C692 C690 1.419 . S
C692 C693 1.363 . S
C692 H695 0.929 . S
C693 C692 1.363 . S
C693 C699 1.428 . S
H694 C690 0.930 . S
H695 C692 0.929 . S
S696 N697 1.613 . S
S696 N698 1.610 . S
N697 S696 1.613 . S
N697 C700 1.350 . S
N698 S696 1.610 . S
N698 C699 1.351 . S
C699 C693 1.428 . S
C699 N698 1.351 . S
C699 C700 1.434 . S
C700 C691 1.429 . S
C700 N697 1.350 . S
C700 C699 1.434 . S
C701 C702 1.369 . S
C701 C703 1.419 1_556 S
C701 H705 0.930 . S
C702 C701 1.369 . S
C702 C711 1.429 . S
C703 C701 1.419 1_554 S
C703 C704 1.363 . S
C703 H706 0.929 . S
C704 C703 1.363 . S
C704 C710 1.428 . S
H705 C701 0.930 . S
H706 C703 0.929 . S
S707 N708 1.593 1_544 S
S707 N709 1.610 1_545 S
N708 S707 1.593 1_566 S
N708 C711 1.384 . S
N709 S707 1.610 1_565 S
N709 C710 1.351 . S
C710 C704 1.428 . S
C710 N709 1.351 . S
C710 C711 1.434 1_554 S
C711 C702 1.429 . S
C711 N708 1.384 . S
C711 C710 1.434 1_556 S
C712 C713 1.369 . S
C712 C714 1.419 . S
C712 H716 0.930 . S
C713 C712 1.369 . S
C713 C722 1.429 . S
C714 C712 1.419 . S
C714 C715 1.363 . S
C714 H717 0.929 . S
C715 C714 1.363 . S
C715 C721 1.428 . S
H716 C712 0.930 . S
H717 C714 0.929 . S
S718 N719 1.613 . S
S718 N720 1.610 . S
N719 S718 1.613 . S
N719 C722 1.350 . S
N720 S718 1.610 . S
N720 C721 1.351 . S
C721 C715 1.428 . S
C721 N720 1.351 . S
C721 C722 1.434 . S
C722 C713 1.429 . S
C722 N719 1.350 . S
C722 C721 1.434 . S
C723 C724 1.369 . S
C723 C725 1.419 . S
C723 H727 0.930 . S
C724 C723 1.369 . S
C724 C733 1.429 . S
C725 C723 1.419 . S
C725 C726 1.363 . S
C725 H728 0.929 . S
C726 C725 1.363 . S
C726 C732 1.428 . S
H727 C723 0.930 . S
H728 C725 0.929 . S
S729 N730 1.613 . S
S729 N731 1.610 . S
N730 S729 1.613 . S
N730 C733 1.350 . S
N731 S729 1.610 . S
N731 C732 1.351 . S
C732 C726 1.428 . S
C732 N731 1.351 . S
C732 C733 1.434 . S
C733 C724 1.429 . S
C733 N730 1.350 . S
C733 C732 1.434 . S
C734 C735 1.369 . S
C734 C736 1.419 . S
C734 H738 0.930 . S
C735 C734 1.369 . S
C735 C744 1.429 . S
C736 C734 1.419 . S
C736 C737 1.363 . S
C736 H739 0.929 . S
C737 C736 1.363 . S
C737 C743 1.428 . S
H738 C734 0.930 . S
H739 C736 0.929 . S
S740 N741 1.613 . S
S740 N742 1.610 . S
N741 S740 1.613 . S
N741 C744 1.350 . S
N742 S740 1.610 . S
N742 C743 1.351 . S
C743 C737 1.428 . S
C743 N742 1.351 . S
C743 C744 1.434 . S
C744 C735 1.429 . S
C744 N741 1.350 . S
C744 C743 1.434 . S
C745 C746 1.369 1_545 S
C745 C747 1.419 . S
C745 H749 0.930 1_545 S
C746 C745 1.369 1_565 S
C746 C755 1.429 . S
C747 C745 1.419 . S
C747 C748 1.363 . S
C747 H750 0.929 . S
C748 C747 1.363 . S
C748 C754 1.428 . S
H749 C745 0.930 1_565 S
H750 C747 0.929 . S
S751 N752 1.613 1_545 S
S751 N753 1.610 . S
N752 S751 1.613 1_565 S
N752 C755 1.350 . S
N753 S751 1.610 . S
N753 C754 1.351 . S
C754 C748 1.428 . S
C754 N753 1.351 . S
C754 C755 1.434 1_545 S
C755 C746 1.429 . S
C755 N752 1.350 . S
C755 C754 1.434 1_565 S
C756 C757 1.369 . S
C756 C758 1.419 . S
C756 H760 0.930 . S
C757 C756 1.369 . S
C757 C766 1.429 . S
C758 C756 1.419 . S
C758 C759 1.363 . S
C758 H761 0.929 . S
C759 C758 1.363 . S
C759 C765 1.428 . S
H760 C756 0.930 . S
H761 C758 0.929 . S
S762 N763 1.613 . S
S762 N764 1.610 . S
N763 S762 1.613 . S
N763 C766 1.350 . S
N764 S762 1.610 . S
N764 C765 1.351 . S
C765 C759 1.428 . S
C765 N764 1.351 . S
C765 C766 1.434 . S
C766 C757 1.429 . S
C766 N763 1.350 . S
C766 C765 1.434 . S
C767 C768 1.369 . S
C767 C769 1.419 . S
C767 H771 0.930 . S
C768 C767 1.369 . S
C768 C777 1.429 . S
C769 C767 1.419 . S
C769 C770 1.363 . S
C769 H772 0.929 . S
C770 C769 1.363 . S
C770 C776 1.428 . S
H771 C767 0.930 . S
H772 C769 0.929 . S
S773 N774 1.613 . S
S773 N775 1.610 . S
N774 S773 1.613 . S
N774 C777 1.350 . S
N775 S773 1.610 . S
N775 C776 1.351 . S
C776 C770 1.428 . S
C776 N775 1.351 . S
C776 C777 1.434 . S
C777 C768 1.429 . S
C777 N774 1.350 . S
C777 C776 1.434 . S
C778 C779 1.369 . S
C778 C780 1.419 . S
C778 H782 0.930 . S
C779 C778 1.369 . S
C779 C788 1.429 . S
C780 C778 1.419 . S
C780 C781 1.363 . S
C780 H783 0.929 . S
C781 C780 1.363 . S
C781 C787 1.428 . S
H782 C778 0.930 . S
H783 C780 0.929 . S
S784 N785 1.613 . S
S784 N786 1.610 . S
N785 S784 1.613 . S
N785 C788 1.350 . S
N786 S784 1.610 . S
N786 C787 1.351 . S
C787 C781 1.428 . S
C787 N786 1.351 . S
C787 C788 1.434 . S
C788 C779 1.429 . S
C788 N785 1.350 . S
C788 C787 1.434 . S
C789 C790 1.369 . S
C789 C791 1.419 1_545 S
C789 H793 0.930 . S
C790 C789 1.369 . S
C790 C799 1.429 . S
C791 C789 1.419 1_565 S
C791 C792 1.363 . S
C791 H794 0.929 . S
C792 C791 1.363 . S
C792 C798 1.428 . S
H793 C789 0.930 . S
H794 C791 0.929 . S
S795 N796 1.613 1_455 S
S795 N797 1.603 1_445 S
N796 S795 1.613 1_655 S
N796 C799 1.350 . S
N797 S795 1.603 1_665 S
N797 C798 1.363 . S
C798 C792 1.428 . S
C798 N797 1.363 . S
C798 C799 1.434 1_565 S
C799 C790 1.429 . S
C799 N796 1.350 . S
C799 C798 1.434 1_545 S
C800 C801 1.369 . S
C800 C802 1.419 . S
C800 H804 0.930 . S
C801 C800 1.369 . S
C801 C810 1.429 . S
C802 C800 1.419 . S
C802 C803 1.363 . S
C802 H805 0.929 . S
C803 C802 1.363 . S
C803 C809 1.428 . S
H804 C800 0.930 . S
H805 C802 0.929 . S
S806 N807 1.613 . S
S806 N808 1.610 . S
N807 S806 1.613 . S
N807 C810 1.350 . S
N808 S806 1.610 . S
N808 C809 1.351 . S
C809 C803 1.428 . S
C809 N808 1.351 . S
C809 C810 1.434 . S
C810 C801 1.429 . S
C810 N807 1.350 . S
C810 C809 1.434 . S
C811 C812 1.369 . S
C811 C813 1.419 . S
C811 H815 0.930 . S
C812 C811 1.369 . S
C812 C821 1.429 . S
C813 C811 1.419 . S
C813 C814 1.363 . S
C813 H816 0.929 . S
C814 C813 1.363 . S
C814 C820 1.428 . S
H815 C811 0.930 . S
H816 C813 0.929 . S
S817 N818 1.613 . S
S817 N819 1.610 . S
N818 S817 1.613 . S
N818 C821 1.350 . S
N819 S817 1.610 . S
N819 C820 1.351 . S
C820 C814 1.428 . S
C820 N819 1.351 . S
C820 C821 1.434 . S
C821 C812 1.429 . S
C821 N818 1.350 . S
C821 C820 1.434 . S
C822 C823 1.369 . S
C822 C824 1.419 1_655 S
C822 H826 0.930 . S
C823 C822 1.369 . S
C823 C832 1.429 . S
C824 C822 1.419 1_455 S
C824 C825 1.363 . S
C824 H827 0.929 . S
C825 C824 1.363 . S
C825 C831 1.428 . S
H826 C822 0.930 . S
H827 C824 0.929 . S
S828 N829 1.613 . S
S828 N830 1.610 1_655 S
N829 S828 1.613 . S
N829 C832 1.350 . S
N830 S828 1.610 1_455 S
N830 C831 1.351 . S
C831 C825 1.428 . S
C831 N830 1.351 . S
C831 C832 1.434 1_455 S
C832 C823 1.429 . S
C832 N829 1.350 . S
C832 C831 1.434 1_655 S
C833 C834 1.369 . S
C833 C835 1.419 . S
C833 H837 0.930 . S
C834 C833 1.369 . S
C834 C843 1.429 . S
C835 C833 1.419 . S
C835 C836 1.363 . S
C835 H838 0.929 . S
C836 C835 1.363 . S
C836 C842 1.428 . S
H837 C833 0.930 . S
H838 C835 0.929 . S
S839 N840 1.613 . S
S839 N841 1.610 . S
N840 S839 1.613 . S
N840 C843 1.350 . S
N841 S839 1.610 . S
N841 C842 1.351 . S
C842 C836 1.428 . S
C842 N841 1.351 . S
C842 C843 1.434 . S
C843 C834 1.429 . S
C843 N840 1.350 . S
C843 C842 1.434 . S
C844 C845 1.369 . S
C844 C846 1.419 . S
C844 H848 0.930 . S
C845 C844 1.369 . S
C845 C854 1.429 . S
C846 C844 1.419 . S
C846 C847 1.363 . S
C846 H849 0.929 . S
C847 C846 1.363 . S
C847 C853 1.428 . S
H848 C844 0.930 . S
H849 C846 0.929 . S
S850 N851 1.613 . S
S850 N852 1.610 . S
N851 S850 1.613 . S
N851 C854 1.350 . S
N852 S850 1.610 . S
N852 C853 1.351 . S
C853 C847 1.428 . S
C853 N852 1.351 . S
C853 C854 1.434 . S
C854 C845 1.429 . S
C854 N851 1.350 . S
C854 C853 1.434 . S
C855 C856 1.369 . S
C855 C857 1.419 . S
C855 H859 0.930 . S
C856 C855 1.369 . S
C856 C865 1.429 . S
C857 C855 1.419 . S
C857 C858 1.363 . S
C857 H860 0.929 . S
C858 C857 1.363 . S
C858 C864 1.428 . S
H859 C855 0.930 . S
H860 C857 0.929 . S
S861 N862 1.613 . S
S861 N863 1.610 . S
N862 S861 1.613 . S
N862 C865 1.350 . S
N863 S861 1.610 . S
N863 C864 1.351 . S
C864 C858 1.428 . S
C864 N863 1.351 . S
C864 C865 1.434 . S
C865 C856 1.429 . S
C865 N862 1.350 . S
C865 C864 1.434 . S
C866 C867 1.369 1_655 S
C866 C868 1.419 . S
C866 H870 0.930 1_655 S
C867 C866 1.369 1_455 S
C867 C876 1.429 . S
C868 C866 1.419 . S
C868 C869 1.363 . S
C868 H871 0.929 . S
C869 C868 1.363 . S
C869 C875 1.428 . S
H870 C866 0.930 1_455 S
H871 C868 0.929 . S
S872 N873 1.613 1_655 S
S872 N874 1.611 . S
N873 S872 1.613 1_455 S
N873 C876 1.350 . S
N874 S872 1.611 . S
N874 C875 1.351 . S
C875 C869 1.428 . S
C875 N874 1.351 . S
C875 C876 1.434 1_655 S
C876 C867 1.429 . S
C876 N873 1.350 . S
C876 C875 1.434 1_455 S
C877 C878 1.369 1_455 S
C877 C879 1.419 . S
C877 H881 0.930 1_455 S
C878 C877 1.369 1_655 S
C878 C887 1.429 . S
C879 C877 1.419 . S
C879 C880 1.363 . S
C879 H882 0.929 . S
C880 C879 1.363 . S
C880 C886 1.428 . S
H881 C877 0.930 1_655 S
H882 C879 0.929 . S
S883 N884 1.616 . S
S883 N885 1.606 1_655 S
N884 S883 1.616 . S
N884 C887 1.350 . S
N885 S883 1.606 1_455 S
N885 C886 1.351 . S
C886 C880 1.428 . S
C886 N885 1.351 . S
C886 C887 1.434 1_455 S
C887 C878 1.429 . S
C887 N884 1.350 . S
C887 C886 1.434 1_655 S
C888 C889 1.369 . S
C888 C890 1.419 . S
C888 H892 0.930 . S
C889 C888 1.369 . S
C889 C898 1.429 . S
C890 C888 1.419 . S
C890 C891 1.363 . S
C890 H893 0.929 . S
C891 C890 1.363 . S
C891 C897 1.428 . S
H892 C888 0.930 . S
H893 C890 0.929 . S
S894 N895 1.613 . S
S894 N896 1.610 . S
N895 S894 1.613 . S
N895 C898 1.350 . S
N896 S894 1.610 . S
N896 C897 1.351 . S
C897 C891 1.428 . S
C897 N896 1.351 . S
C897 C898 1.434 . S
C898 C889 1.429 . S
C898 N895 1.350 . S
C898 C897 1.434 . S
C899 C900 1.369 . S
C899 C901 1.419 . S
C899 H903 0.930 . S
C900 C899 1.369 . S
C900 C909 1.429 . S
C901 C899 1.419 . S
C901 C902 1.363 . S
C901 H904 0.929 . S
C902 C901 1.363 . S
C902 C908 1.428 . S
H903 C899 0.930 . S
H904 C901 0.929 . S
S905 N906 1.613 1_565 S
S905 N907 1.610 1_565 S
N906 S905 1.613 1_545 S
N906 C909 1.350 . S
N907 S905 1.610 1_545 S
N907 C908 1.351 . S
C908 C902 1.428 . S
C908 N907 1.351 . S
C908 C909 1.434 . S
C909 C900 1.429 . S
C909 N906 1.350 . S
C909 C908 1.434 . S
C910 C911 1.369 . S
C910 C912 1.419 . S
C910 H914 0.930 . S
C911 C910 1.369 . S
C911 C920 1.429 . S
C912 C910 1.419 . S
C912 C913 1.363 . S
C912 H915 0.929 . S
C913 C912 1.363 . S
C913 C919 1.428 . S
H914 C910 0.930 . S
H915 C912 0.929 . S
S916 N917 1.613 . S
S916 N918 1.610 . S
N917 S916 1.613 . S
N917 C920 1.350 . S
N918 S916 1.610 . S
N918 C919 1.351 . S
C919 C913 1.428 . S
C919 N918 1.351 . S
C919 C920 1.434 . S
C920 C911 1.429 . S
C920 N917 1.350 . S
C920 C919 1.434 . S
C921 C922 1.369 . S
C921 C923 1.419 . S
C921 H925 0.930 . S
C922 C921 1.369 . S
C922 C931 1.429 . S
C923 C921 1.419 . S
C923 C924 1.363 . S
C923 H926 0.929 . S
C924 C923 1.363 . S
C924 C930 1.428 . S
H925 C921 0.930 . S
H926 C923 0.929 . S
S927 N928 1.613 . S
S927 N929 1.610 . S
N928 S927 1.613 . S
N928 C931 1.350 . S
N929 S927 1.610 . S
N929 C930 1.351 . S
C930 C924 1.428 . S
C930 N929 1.351 . S
C930 C931 1.434 . S
C931 C922 1.429 . S
C931 N928 1.350 . S
C931 C930 1.434 . S
C932 C933 1.369 . S
C932 C934 1.419 . S
C932 H936 0.930 . S
C933 C932 1.369 . S
C933 C942 1.429 . S
C934 C932 1.419 . S
C934 C935 1.363 . S
C934 H937 0.929 . S
C935 C934 1.363 . S
C935 C941 1.428 . S
H936 C932 0.930 . S
H937 C934 0.929 . S
S938 N939 1.613 . S
S938 N940 1.610 . S
N939 S938 1.613 . S
N939 C942 1.350 . S
N940 S938 1.610 . S
N940 C941 1.351 . S
C941 C935 1.428 . S
C941 N940 1.351 . S
C941 C942 1.434 . S
C942 C933 1.429 . S
C942 N939 1.350 . S
C942 C941 1.434 . S
C943 C944 1.369 . S
C943 C945 1.419 . S
C943 H947 0.930 . S
C944 C943 1.369 . S
C944 C953 1.429 . S
C945 C943 1.419 . S
C945 C946 1.363 . S
C945 H948 0.929 . S
C946 C945 1.363 . S
C946 C952 1.428 . S
H947 C943 0.930 . S
H948 C945 0.929 . S
S949 N950 1.613 . S
S949 N951 1.610 . S
N950 S949 1.613 . S
N950 C953 1.350 . S
N951 S949 1.610 . S
N951 C952 1.351 . S
C952 C946 1.428 . S
C952 N951 1.351 . S
C952 C953 1.434 . S
C953 C944 1.429 . S
C953 N950 1.350 . S
C953 C952 1.434 . S
C954 C955 1.369 . S
C954 C956 1.419 . S
C954 H958 0.930 . S
C955 C954 1.369 . S
C955 C964 1.429 . S
C956 C954 1.419 . S
C956 C957 1.363 . S
C956 H959 0.929 . S
C957 C956 1.363 . S
C957 C963 1.428 . S
H958 C954 0.930 . S
H959 C956 0.929 . S
S960 N961 1.613 . S
S960 N962 1.610 . S
N961 S960 1.613 . S
N961 C964 1.350 . S
N962 S960 1.610 . S
N962 C963 1.351 . S
C963 C957 1.428 . S
C963 N962 1.351 . S
C963 C964 1.434 . S
C964 C955 1.429 . S
C964 N961 1.350 . S
C964 C963 1.434 . S
C965 C966 1.369 . S
C965 C967 1.419 . S
C965 H969 0.930 . S
C966 C965 1.369 . S
C966 C975 1.429 . S
C967 C965 1.419 . S
C967 C968 1.363 . S
C967 H970 0.929 . S
C968 C967 1.363 . S
C968 C974 1.428 . S
H969 C965 0.930 . S
H970 C967 0.929 . S
S971 N972 1.613 . S
S971 N973 1.610 . S
N972 S971 1.613 . S
N972 C975 1.350 . S
N973 S971 1.610 . S
N973 C974 1.351 . S
C974 C968 1.428 . S
C974 N973 1.351 . S
C974 C975 1.434 . S
C975 C966 1.429 . S
C975 N972 1.350 . S
C975 C974 1.434 . S
C976 C977 1.369 . S
C976 C978 1.419 . S
C976 H980 0.930 . S
C977 C976 1.369 . S
C977 C986 1.429 . S
C978 C976 1.419 . S
C978 C979 1.363 . S
C978 H981 0.929 . S
C979 C978 1.363 . S
C979 C985 1.428 . S
H980 C976 0.930 . S
H981 C978 0.929 . S
S982 N983 1.613 . S
S982 N984 1.610 . S
N983 S982 1.613 . S
N983 C986 1.350 . S
N984 S982 1.610 . S
N984 C985 1.351 . S
C985 C979 1.428 . S
C985 N984 1.351 . S
C985 C986 1.434 . S
C986 C977 1.429 . S
C986 N983 1.350 . S
C986 C985 1.434 . S
C987 C988 1.369 . S
C987 C989 1.419 1_565 S
C987 H991 0.930 . S
C988 C987 1.369 . S
C988 C997 1.429 . S
C989 C987 1.419 1_545 S
C989 C990 1.363 . S
C989 H992 0.929 . S
C990 C989 1.363 . S
C990 C996 1.428 . S
H991 C987 0.930 . S
H992 C989 0.929 . S
S993 N994 1.613 1_455 S
S993 N995 1.610 1_465 S
N994 S993 1.613 1_655 S
N994 C997 1.350 . S
N995 S993 1.610 1_645 S
N995 C996 1.351 . S
C996 C990 1.428 . S
C996 N995 1.351 . S
C996 C997 1.434 1_545 S
C997 C988 1.429 . S
C997 N994 1.350 . S
C997 C996 1.434 1_565 S
C998 C999 1.369 . S
C998 C1000 1.419 . S
C998 H1002 0.930 . S
C999 C998 1.369 . S
C999 C1008 1.429 . S
C1000 C998 1.419 . S
C1000 C1001 1.363 . S
C1000 H1003 0.929 . S
C1001 C1000 1.363 . S
C1001 C1007 1.428 . S
H1002 C998 0.930 . S
H1003 C1000 0.929 . S
S1004 N1005 1.613 . S
S1004 N1006 1.610 . S
N1005 S1004 1.613 . S
N1005 C1008 1.350 . S
N1006 S1004 1.610 . S
N1006 C1007 1.351 . S
C1007 C1001 1.428 . S
C1007 N1006 1.351 . S
C1007 C1008 1.434 . S
C1008 C999 1.429 . S
C1008 N1005 1.350 . S
C1008 C1007 1.434 . S
C1009 C1010 1.369 . S
C1009 C1011 1.419 . S
C1009 H1013 0.930 . S
C1010 C1009 1.369 . S
C1010 C1019 1.429 . S
C1011 C1009 1.419 . S
C1011 C1012 1.363 . S
C1011 H1014 0.929 . S
C1012 C1011 1.363 . S
C1012 C1018 1.428 . S
H1013 C1009 0.930 . S
H1014 C1011 0.929 . S
S1015 N1016 1.613 . S
S1015 N1017 1.610 . S
N1016 S1015 1.613 . S
N1016 C1019 1.350 . S
N1017 S1015 1.610 . S
N1017 C1018 1.351 . S
C1018 C1012 1.428 . S
C1018 N1017 1.351 . S
C1018 C1019 1.434 . S
C1019 C1010 1.429 . S
C1019 N1016 1.350 . S
C1019 C1018 1.434 . S
C1020 C1021 1.369 . S
C1020 C1022 1.419 . S
C1020 H1024 0.930 . S
C1021 C1020 1.369 . S
C1021 C1030 1.429 . S
C1022 C1020 1.419 . S
C1022 C1023 1.363 . S
C1022 H1025 0.929 . S
C1023 C1022 1.363 . S
C1023 C1029 1.428 . S
H1024 C1020 0.930 . S
H1025 C1022 0.929 . S
S1026 N1027 1.613 . S
S1026 N1028 1.610 . S
N1027 S1026 1.613 . S
N1027 C1030 1.350 . S
N1028 S1026 1.610 . S
N1028 C1029 1.351 . S
C1029 C1023 1.428 . S
C1029 N1028 1.351 . S
C1029 C1030 1.434 . S
C1030 C1021 1.429 . S
C1030 N1027 1.350 . S
C1030 C1029 1.434 . S
C1031 C1032 1.369 . S
C1031 C1033 1.393 1_565 S
C1031 H1035 0.930 . S
C1032 C1031 1.369 . S
C1032 C1041 1.429 . S
C1033 C1031 1.393 1_545 S
C1033 C1034 1.378 . S
C1033 H1036 0.940 . S
C1034 C1033 1.378 . S
C1034 C1040 1.428 . S
H1035 C1031 0.930 . S
H1036 C1033 0.940 . S
S1037 N1038 1.613 . S
S1037 N1039 1.610 1_565 S
N1038 S1037 1.613 . S
N1038 C1041 1.350 . S
N1039 S1037 1.610 1_545 S
N1039 C1040 1.351 . S
C1040 C1034 1.428 . S
C1040 N1039 1.351 . S
C1040 C1041 1.434 1_545 S
C1041 C1032 1.429 . S
C1041 N1038 1.350 . S
C1041 C1040 1.434 1_565 S
C1042 C1043 1.369 . S
C1042 C1044 1.419 . S
C1042 H1046 0.930 . S
C1043 C1042 1.369 . S
C1043 C1052 1.429 . S
C1044 C1042 1.419 . S
C1044 C1045 1.363 . S
C1044 H1047 0.929 . S
C1045 C1044 1.363 . S
C1045 C1051 1.428 . S
H1046 C1042 0.930 . S
H1047 C1044 0.929 . S
S1048 N1049 1.613 . S
S1048 N1050 1.610 . S
N1049 S1048 1.613 . S
N1049 C1052 1.350 . S
N1050 S1048 1.610 . S
N1050 C1051 1.351 . S
C1051 C1045 1.428 . S
C1051 N1050 1.351 . S
C1051 C1052 1.434 . S
C1052 C1043 1.429 . S
C1052 N1049 1.350 . S
C1052 C1051 1.434 . S
C1053 C1054 1.369 . S
C1053 C1055 1.419 . S
C1053 H1057 0.930 . S
C1054 C1053 1.369 . S
C1054 C1063 1.429 . S
C1055 C1053 1.419 . S
C1055 C1056 1.363 . S
C1055 H1058 0.929 . S
C1056 C1055 1.363 . S
C1056 C1062 1.428 . S
H1057 C1053 0.930 . S
H1058 C1055 0.929 . S
S1059 N1060 1.613 . S
S1059 N1061 1.610 . S
N1060 S1059 1.613 . S
N1060 C1063 1.350 . S
N1061 S1059 1.610 . S
N1061 C1062 1.351 . S
C1062 C1056 1.428 . S
C1062 N1061 1.351 . S
C1062 C1063 1.434 . S
C1063 C1054 1.429 . S
C1063 N1060 1.350 . S
C1063 C1062 1.434 . S
C1064 C1065 1.369 . S
C1064 C1066 1.419 . S
C1064 H1068 0.930 . S
C1065 C1064 1.369 . S
C1065 C1074 1.429 . S
C1066 C1064 1.419 . S
C1066 C1067 1.363 . S
C1066 H1069 0.929 . S
C1067 C1066 1.363 . S
C1067 C1073 1.428 . S
H1068 C1064 0.930 . S
H1069 C1066 0.929 . S
S1070 N1071 1.613 . S
S1070 N1072 1.610 . S
N1071 S1070 1.613 . S
N1071 C1074 1.350 . S
N1072 S1070 1.610 . S
N1072 C1073 1.351 . S
C1073 C1067 1.428 . S
C1073 N1072 1.351 . S
C1073 C1074 1.434 . S
C1074 C1065 1.429 . S
C1074 N1071 1.350 . S
C1074 C1073 1.434 . S
C1075 C1076 1.369 . S
C1075 C1077 1.419 . S
C1075 H1079 0.930 . S
C1076 C1075 1.369 . S
C1076 C1085 1.429 . S
C1077 C1075 1.419 . S
C1077 C1078 1.363 . S
C1077 H1080 0.929 . S
C1078 C1077 1.363 . S
C1078 C1084 1.428 . S
H1079 C1075 0.930 . S
H1080 C1077 0.929 . S
S1081 N1082 1.613 . S
S1081 N1083 1.610 . S
N1082 S1081 1.613 . S
N1082 C1085 1.350 . S
N1083 S1081 1.610 . S
N1083 C1084 1.351 . S
C1084 C1078 1.428 . S
C1084 N1083 1.351 . S
C1084 C1085 1.434 . S
C1085 C1076 1.429 . S
C1085 N1082 1.350 . S
C1085 C1084 1.434 . S
C1086 C1087 1.369 . S
C1086 C1088 1.419 . S
C1086 H1090 0.930 . S
C1087 C1086 1.369 . S
C1087 C1096 1.429 . S
C1088 C1086 1.419 . S
C1088 C1089 1.363 . S
C1088 H1091 0.929 . S
C1089 C1088 1.363 . S
C1089 C1095 1.428 . S
H1090 C1086 0.930 . S
H1091 C1088 0.929 . S
S1092 N1093 1.613 . S
S1092 N1094 1.610 . S
N1093 S1092 1.613 . S
N1093 C1096 1.350 . S
N1094 S1092 1.610 . S
N1094 C1095 1.351 . S
C1095 C1089 1.428 . S
C1095 N1094 1.351 . S
C1095 C1096 1.434 . S
C1096 C1087 1.429 . S
C1096 N1093 1.350 . S
C1096 C1095 1.434 . S
C1097 C1098 1.369 . S
C1097 C1099 1.419 . S
C1097 H1101 0.930 . S
C1098 C1097 1.369 . S
C1098 C1107 1.429 . S
C1099 C1097 1.419 . S
C1099 C1100 1.363 . S
C1099 H1102 0.929 . S
C1100 C1099 1.363 . S
C1100 C1106 1.428 . S
H1101 C1097 0.930 . S
H1102 C1099 0.929 . S
S1103 N1104 1.613 . S
S1103 N1105 1.610 . S
N1104 S1103 1.613 . S
N1104 C1107 1.350 . S
N1105 S1103 1.610 . S
N1105 C1106 1.351 . S
C1106 C1100 1.428 . S
C1106 N1105 1.351 . S
C1106 C1107 1.434 . S
C1107 C1098 1.429 . S
C1107 N1104 1.350 . S
C1107 C1106 1.434 . S
C1108 C1109 1.369 . S
C1108 C1110 1.419 1_455 S
C1108 H1112 0.930 . S
C1109 C1108 1.369 . S
C1109 C1118 1.429 . S
C1110 C1108 1.419 1_655 S
C1110 C1111 1.363 . S
C1110 H1113 0.929 . S
C1111 C1110 1.363 . S
C1111 C1117 1.428 1_655 S
H1112 C1108 0.930 . S
H1113 C1110 0.929 . S
S1114 N1115 1.613 . S
S1114 N1116 1.610 1_455 S
N1115 S1114 1.613 . S
N1115 C1118 1.350 . S
N1116 S1114 1.610 1_655 S
N1116 C1117 1.351 1_655 S
C1117 C1111 1.428 1_455 S
C1117 N1116 1.351 1_455 S
C1117 C1118 1.434 . S
C1118 C1109 1.429 . S
C1118 N1115 1.350 . S
C1118 C1117 1.434 . S
C1119 C1120 1.369 . S
C1119 C1121 1.419 . S
C1119 H1123 0.930 . S
C1120 C1119 1.369 . S
C1120 C1129 1.429 . S
C1121 C1119 1.419 . S
C1121 C1122 1.363 . S
C1121 H1124 0.929 . S
C1122 C1121 1.363 . S
C1122 C1128 1.428 . S
H1123 C1119 0.930 . S
H1124 C1121 0.929 . S
S1125 N1126 1.613 . S
S1125 N1127 1.610 . S
N1126 S1125 1.613 . S
N1126 C1129 1.350 . S
N1127 S1125 1.610 . S
N1127 C1128 1.351 . S
C1128 C1122 1.428 . S
C1128 N1127 1.351 . S
C1128 C1129 1.434 . S
C1129 C1120 1.429 . S
C1129 N1126 1.350 . S
C1129 C1128 1.434 . S
C1130 C1131 1.369 . S
C1130 C1132 1.419 . S
C1130 H1134 0.930 . S
C1131 C1130 1.369 . S
C1131 C1140 1.429 . S
C1132 C1130 1.419 . S
C1132 C1133 1.363 . S
C1132 H1135 0.929 . S
C1133 C1132 1.363 . S
C1133 C1139 1.428 . S
H1134 C1130 0.930 . S
H1135 C1132 0.929 . S
S1136 N1137 1.613 . S
S1136 N1138 1.610 . S
N1137 S1136 1.613 . S
N1137 C1140 1.350 . S
N1138 S1136 1.610 . S
N1138 C1139 1.351 . S
C1139 C1133 1.428 . S
C1139 N1138 1.351 . S
C1139 C1140 1.434 . S
C1140 C1131 1.429 . S
C1140 N1137 1.350 . S
C1140 C1139 1.434 . S
C1141 C1142 1.369 . S
C1141 C1143 1.419 . S
C1141 H1145 0.930 . S
C1142 C1141 1.369 . S
C1142 C1151 1.429 . S
C1143 C1141 1.419 . S
C1143 C1144 1.363 . S
C1143 H1146 0.929 . S
C1144 C1143 1.363 . S
C1144 C1150 1.428 . S
H1145 C1141 0.930 . S
H1146 C1143 0.929 . S
S1147 N1148 1.613 . S
S1147 N1149 1.610 . S
N1148 S1147 1.613 . S
N1148 C1151 1.350 . S
N1149 S1147 1.610 . S
N1149 C1150 1.351 . S
C1150 C1144 1.428 . S
C1150 N1149 1.351 . S
C1150 C1151 1.434 . S
C1151 C1142 1.429 . S
C1151 N1148 1.350 . S
C1151 C1150 1.434 . S
C1152 C1153 1.369 . S
C1152 C1154 1.419 . S
C1152 H1156 0.930 . S
C1153 C1152 1.369 . S
C1153 C1162 1.429 . S
C1154 C1152 1.419 . S
C1154 C1155 1.363 . S
C1154 H1157 0.929 . S
C1155 C1154 1.363 . S
C1155 C1161 1.428 . S
H1156 C1152 0.930 . S
H1157 C1154 0.929 . S
S1158 N1159 1.613 . S
S1158 N1160 1.610 . S
N1159 S1158 1.613 . S
N1159 C1162 1.350 . S
N1160 S1158 1.610 . S
N1160 C1161 1.351 . S
C1161 C1155 1.428 . S
C1161 N1160 1.351 . S
C1161 C1162 1.434 . S
C1162 C1153 1.429 . S
C1162 N1159 1.350 . S
C1162 C1161 1.434 . S
C1163 C1164 1.369 . S
C1163 C1165 1.419 . S
C1163 H1167 0.930 . S
C1164 C1163 1.369 . S
C1164 C1173 1.429 . S
C1165 C1163 1.419 . S
C1165 C1166 1.363 . S
C1165 H1168 0.929 . S
C1166 C1165 1.363 . S
C1166 C1172 1.428 . S
H1167 C1163 0.930 . S
H1168 C1165 0.929 . S
S1169 N1170 1.613 . S
S1169 N1171 1.610 . S
N1170 S1169 1.613 . S
N1170 C1173 1.350 . S
N1171 S1169 1.610 . S
N1171 C1172 1.351 . S
C1172 C1166 1.428 . S
C1172 N1171 1.351 . S
C1172 C1173 1.434 . S
C1173 C1164 1.429 . S
C1173 N1170 1.350 . S
C1173 C1172 1.434 . S
C1174 C1175 1.369 . S
C1174 C1176 1.419 . S
C1174 H1178 0.930 . S
C1175 C1174 1.369 . S
C1175 C1184 1.429 . S
C1176 C1174 1.419 . S
C1176 C1177 1.363 . S
C1176 H1179 0.929 . S
C1177 C1176 1.363 . S
C1177 C1183 1.428 . S
H1178 C1174 0.930 . S
H1179 C1176 0.929 . S
S1180 N1181 1.613 . S
S1180 N1182 1.610 . S
N1181 S1180 1.613 . S
N1181 C1184 1.350 . S
N1182 S1180 1.610 . S
N1182 C1183 1.351 . S
C1183 C1177 1.428 . S
C1183 N1182 1.351 . S
C1183 C1184 1.434 . S
C1184 C1175 1.429 . S
C1184 N1181 1.350 . S
C1184 C1183 1.434 . S
C1185 C1186 1.369 . S
C1185 C1187 1.419 . S
C1185 H1189 0.930 . S
C1186 C1185 1.369 . S
C1186 C1195 1.429 . S
C1187 C1185 1.419 . S
C1187 C1188 1.363 . S
C1187 H1190 0.929 . S
C1188 C1187 1.363 . S
C1188 C1194 1.428 . S
H1189 C1185 0.930 . S
H1190 C1187 0.929 . S
S1191 N1192 1.613 . S
S1191 N1193 1.610 . S
N1192 S1191 1.613 . S
N1192 C1195 1.350 . S
N1193 S1191 1.610 . S
N1193 C1194 1.351 . S
C1194 C1188 1.428 . S
C1194 N1193 1.351 . S
C1194 C1195 1.434 . S
C1195 C1186 1.429 . S
C1195 N1192 1.350 . S
C1195 C1194 1.434 . S
C1196 C1197 1.369 . S
C1196 C1198 1.419 . S
C1196 H1200 0.930 . S
C1197 C1196 1.369 . S
C1197 C1206 1.429 . S
C1198 C1196 1.419 . S
C1198 C1199 1.363 . S
C1198 H1201 0.929 . S
C1199 C1198 1.363 . S
C1199 C1205 1.428 . S
H1200 C1196 0.930 . S
H1201 C1198 0.929 . S
S1202 N1203 1.613 . S
S1202 N1204 1.610 . S
N1203 S1202 1.613 . S
N1203 C1206 1.350 . S
N1204 S1202 1.610 . S
N1204 C1205 1.351 . S
C1205 C1199 1.428 . S
C1205 N1204 1.351 . S
C1205 C1206 1.434 . S
C1206 C1197 1.429 . S
C1206 N1203 1.350 . S
C1206 C1205 1.434 . S
C1207 C1208 1.369 . S
C1207 C1209 1.419 . S
C1207 H1211 0.930 . S
C1208 C1207 1.369 . S
C1208 C1217 1.429 . S
C1209 C1207 1.419 . S
C1209 C1210 1.363 . S
C1209 H1212 0.929 . S
C1210 C1209 1.363 . S
C1210 C1216 1.428 . S
H1211 C1207 0.930 . S
H1212 C1209 0.929 . S
S1213 N1214 1.613 . S
S1213 N1215 1.610 . S
N1214 S1213 1.613 . S
N1214 C1217 1.350 . S
N1215 S1213 1.610 . S
N1215 C1216 1.351 . S
C1216 C1210 1.428 . S
C1216 N1215 1.351 . S
C1216 C1217 1.434 . S
C1217 C1208 1.429 . S
C1217 N1214 1.350 . S
C1217 C1216 1.434 . S
C1218 C1219 1.369 . S
C1218 C1220 1.419 . S
C1218 H1222 0.930 . S
C1219 C1218 1.369 . S
C1219 C1228 1.429 . S
C1220 C1218 1.419 . S
C1220 C1221 1.363 . S
C1220 H1223 0.929 . S
C1221 C1220 1.363 . S
C1221 C1227 1.428 . S
H1222 C1218 0.930 . S
H1223 C1220 0.929 . S
S1224 N1225 1.613 . S
S1224 N1226 1.610 . S
N1225 S1224 1.613 . S
N1225 C1228 1.350 . S
N1226 S1224 1.610 . S
N1226 C1227 1.351 . S
C1227 C1221 1.428 . S
C1227 N1226 1.351 . S
C1227 C1228 1.434 . S
C1228 C1219 1.429 . S
C1228 N1225 1.350 . S
C1228 C1227 1.434 . S
C1229 C1230 1.369 . S
C1229 C1231 1.419 . S
C1229 H1233 0.930 . S
C1230 C1229 1.369 . S
C1230 C1239 1.429 . S
C1231 C1229 1.419 . S
C1231 C1232 1.363 . S
C1231 H1234 0.929 . S
C1232 C1231 1.363 . S
C1232 C1238 1.428 . S
H1233 C1229 0.930 . S
H1234 C1231 0.929 . S
S1235 N1236 1.613 . S
S1235 N1237 1.610 . S
N1236 S1235 1.613 . S
N1236 C1239 1.350 . S
N1237 S1235 1.610 . S
N1237 C1238 1.351 . S
C1238 C1232 1.428 . S
C1238 N1237 1.351 . S
C1238 C1239 1.434 . S
C1239 C1230 1.429 . S
C1239 N1236 1.350 . S
C1239 C1238 1.434 . S
C1240 C1241 1.369 . S
C1240 C1242 1.419 . S
C1240 H1244 0.930 . S
C1241 C1240 1.369 . S
C1241 C1250 1.429 . S
C1242 C1240 1.419 . S
C1242 C1243 1.363 . S
C1242 H1245 0.929 . S
C1243 C1242 1.363 . S
C1243 C1249 1.428 . S
H1244 C1240 0.930 . S
H1245 C1242 0.929 . S
S1246 N1247 1.613 . S
S1246 N1248 1.610 . S
N1247 S1246 1.613 . S
N1247 C1250 1.350 . S
N1248 S1246 1.610 . S
N1248 C1249 1.351 . S
C1249 C1243 1.428 . S
C1249 N1248 1.351 . S
C1249 C1250 1.434 . S
C1250 C1241 1.429 . S
C1250 N1247 1.350 . S
C1250 C1249 1.434 . S
C1251 C1252 1.369 . S
C1251 C1253 1.419 . S
C1251 H1255 0.930 . S
C1252 C1251 1.369 . S
C1252 C1261 1.429 . S
C1253 C1251 1.419 . S
C1253 C1254 1.363 . S
C1253 H1256 0.929 . S
C1254 C1253 1.363 . S
C1254 C1260 1.428 . S
H1255 C1251 0.930 . S
H1256 C1253 0.929 . S
S1257 N1258 1.613 . S
S1257 N1259 1.610 . S
N1258 S1257 1.613 . S
N1258 C1261 1.350 . S
N1259 S1257 1.610 . S
N1259 C1260 1.351 . S
C1260 C1254 1.428 . S
C1260 N1259 1.351 . S
C1260 C1261 1.434 . S
C1261 C1252 1.429 . S
C1261 N1258 1.350 . S
C1261 C1260 1.434 . S
C1262 C1263 1.369 . S
C1262 C1264 1.419 . S
C1262 H1266 0.930 . S
C1263 C1262 1.369 . S
C1263 C1272 1.429 . S
C1264 C1262 1.419 . S
C1264 C1265 1.363 . S
C1264 H1267 0.929 . S
C1265 C1264 1.363 . S
C1265 C1271 1.428 . S
H1266 C1262 0.930 . S
H1267 C1264 0.929 . S
S1268 N1269 1.613 . S
S1268 N1270 1.610 . S
N1269 S1268 1.613 . S
N1269 C1272 1.350 . S
N1270 S1268 1.610 . S
N1270 C1271 1.351 . S
C1271 C1265 1.428 . S
C1271 N1270 1.351 . S
C1271 C1272 1.434 . S
C1272 C1263 1.429 . S
C1272 N1269 1.350 . S
C1272 C1271 1.434 . S
C1273 C1274 1.369 . S
C1273 C1275 1.419 . S
C1273 H1277 0.930 . S
C1274 C1273 1.369 . S
C1274 C1283 1.429 . S
C1275 C1273 1.419 . S
C1275 C1276 1.363 . S
C1275 H1278 0.929 . S
C1276 C1275 1.363 . S
C1276 C1282 1.428 . S
H1277 C1273 0.930 . S
H1278 C1275 0.929 . S
S1279 N1280 1.613 . S
S1279 N1281 1.610 . S
N1280 S1279 1.613 . S
N1280 C1283 1.350 . S
N1281 S1279 1.610 . S
N1281 C1282 1.351 . S
C1282 C1276 1.428 . S
C1282 N1281 1.351 . S
C1282 C1283 1.434 . S
C1283 C1274 1.429 . S
C1283 N1280 1.350 . S
C1283 C1282 1.434 . S
C1284 C1285 1.369 . S
C1284 C1286 1.419 . S
C1284 H1288 0.930 . S
C1285 C1284 1.369 . S
C1285 C1294 1.429 . S
C1286 C1284 1.419 . S
C1286 C1287 1.363 . S
C1286 H1289 0.929 . S
C1287 C1286 1.363 . S
C1287 C1293 1.428 . S
H1288 C1284 0.930 . S
H1289 C1286 0.929 . S
S1290 N1291 1.613 . S
S1290 N1292 1.610 . S
N1291 S1290 1.613 . S
N1291 C1294 1.350 . S
N1292 S1290 1.610 . S
N1292 C1293 1.351 . S
C1293 C1287 1.428 . S
C1293 N1292 1.351 . S
C1293 C1294 1.434 . S
C1294 C1285 1.429 . S
C1294 N1291 1.350 . S
C1294 C1293 1.434 . S
C1295 C1296 1.369 . S
C1295 C1297 1.419 . S
C1295 H1299 0.930 . S
C1296 C1295 1.369 . S
C1296 C1305 1.429 . S
C1297 C1295 1.419 . S
C1297 C1298 1.363 . S
C1297 H1300 0.929 . S
C1298 C1297 1.363 . S
C1298 C1304 1.428 . S
H1299 C1295 0.930 . S
H1300 C1297 0.929 . S
S1301 N1302 1.613 . S
S1301 N1303 1.610 . S
N1302 S1301 1.613 . S
N1302 C1305 1.350 . S
N1303 S1301 1.610 . S
N1303 C1304 1.351 . S
C1304 C1298 1.428 . S
C1304 N1303 1.351 . S
C1304 C1305 1.434 . S
C1305 C1296 1.429 . S
C1305 N1302 1.350 . S
C1305 C1304 1.434 . S
C1306 C1307 1.369 . S
C1306 C1308 1.419 . S
C1306 H1310 0.930 . S
C1307 C1306 1.369 . S
C1307 C1316 1.429 . S
C1308 C1306 1.419 . S
C1308 C1309 1.363 . S
C1308 H1311 0.929 . S
C1309 C1308 1.363 . S
C1309 C1315 1.428 . S
H1310 C1306 0.930 . S
H1311 C1308 0.929 . S
S1312 N1313 1.613 . S
S1312 N1314 1.610 . S
N1313 S1312 1.613 . S
N1313 C1316 1.350 . S
N1314 S1312 1.610 . S
N1314 C1315 1.351 . S
C1315 C1309 1.428 . S
C1315 N1314 1.351 . S
C1315 C1316 1.434 . S
C1316 C1307 1.429 . S
C1316 N1313 1.350 . S
C1316 C1315 1.434 . S
C1317 C1318 1.369 . S
C1317 C1319 1.419 . S
C1317 H1321 0.930 . S
C1318 C1317 1.369 . S
C1318 C1327 1.429 . S
C1319 C1317 1.419 . S
C1319 C1320 1.363 . S
C1319 H1322 0.929 . S
C1320 C1319 1.363 . S
C1320 C1326 1.428 . S
H1321 C1317 0.930 . S
H1322 C1319 0.929 . S
S1323 N1324 1.613 . S
S1323 N1325 1.610 . S
N1324 S1323 1.613 . S
N1324 C1327 1.350 . S
N1325 S1323 1.610 . S
N1325 C1326 1.351 . S
C1326 C1320 1.428 . S
C1326 N1325 1.351 . S
C1326 C1327 1.434 . S
C1327 C1318 1.429 . S
C1327 N1324 1.350 . S
C1327 C1326 1.434 . S
C1328 C1329 1.369 . S
C1328 C1330 1.419 . S
C1328 H1332 0.930 . S
C1329 C1328 1.369 . S
C1329 C1338 1.429 . S
C1330 C1328 1.419 . S
C1330 C1331 1.363 . S
C1330 H1333 0.929 . S
C1331 C1330 1.363 . S
C1331 C1337 1.428 . S
H1332 C1328 0.930 . S
H1333 C1330 0.929 . S
S1334 N1335 1.613 . S
S1334 N1336 1.610 . S
N1335 S1334 1.613 . S
N1335 C1338 1.350 . S
N1336 S1334 1.610 . S
N1336 C1337 1.351 . S
C1337 C1331 1.428 . S
C1337 N1336 1.351 . S
C1337 C1338 1.434 . S
C1338 C1329 1.429 . S
C1338 N1335 1.350 . S
C1338 C1337 1.434 . S
C1339 C1340 1.369 . S
C1339 C1341 1.419 . S
C1339 H1343 0.930 . S
C1340 C1339 1.369 . S
C1340 C1349 1.429 . S
C1341 C1339 1.419 . S
C1341 C1342 1.363 . S
C1341 H1344 0.929 . S
C1342 C1341 1.363 . S
C1342 C1348 1.428 . S
H1343 C1339 0.930 . S
H1344 C1341 0.929 . S
S1345 N1346 1.613 . S
S1345 N1347 1.610 . S
N1346 S1345 1.613 . S
N1346 C1349 1.350 . S
N1347 S1345 1.610 . S
N1347 C1348 1.351 . S
C1348 C1342 1.428 . S
C1348 N1347 1.351 . S
C1348 C1349 1.434 . S
C1349 C1340 1.429 . S
C1349 N1346 1.350 . S
C1349 C1348 1.434 . S
C1350 C1351 1.369 . S
C1350 C1352 1.419 . S
C1350 H1354 0.930 . S
C1351 C1350 1.369 . S
C1351 C1360 1.429 . S
C1352 C1350 1.419 . S
C1352 C1353 1.363 . S
C1352 H1355 0.929 . S
C1353 C1352 1.363 . S
C1353 C1359 1.428 . S
H1354 C1350 0.930 . S
H1355 C1352 0.929 . S
S1356 N1357 1.613 . S
S1356 N1358 1.610 . S
N1357 S1356 1.613 . S
N1357 C1360 1.350 . S
N1358 S1356 1.610 . S
N1358 C1359 1.351 . S
C1359 C1353 1.428 . S
C1359 N1358 1.351 . S
C1359 C1360 1.434 . S
C1360 C1351 1.429 . S
C1360 N1357 1.350 . S
C1360 C1359 1.434 . S
C1361 C1362 1.369 . S
C1361 C1363 1.419 . S
C1361 H1365 0.930 . S
C1362 C1361 1.369 . S
C1362 C1371 1.429 . S
C1363 C1361 1.419 . S
C1363 C1364 1.363 . S
C1363 H1366 0.929 . S
C1364 C1363 1.363 . S
C1364 C1370 1.428 . S
H1365 C1361 0.930 . S
H1366 C1363 0.929 . S
S1367 N1368 1.613 . S
S1367 N1369 1.610 . S
N1368 S1367 1.613 . S
N1368 C1371 1.350 . S
N1369 S1367 1.610 . S
N1369 C1370 1.351 . S
C1370 C1364 1.428 . S
C1370 N1369 1.351 . S
C1370 C1371 1.434 . S
C1371 C1362 1.429 . S
C1371 N1368 1.350 . S
C1371 C1370 1.434 . S
C1372 C1373 1.369 . S
C1372 C1374 1.419 . S
C1372 H1376 0.930 . S
C1373 C1372 1.369 . S
C1373 C1382 1.429 . S
C1374 C1372 1.419 . S
C1374 C1375 1.363 . S
C1374 H1377 0.929 . S
C1375 C1374 1.363 . S
C1375 C1381 1.428 . S
H1376 C1372 0.930 . S
H1377 C1374 0.929 . S
S1378 N1379 1.613 . S
S1378 N1380 1.610 . S
N1379 S1378 1.613 . S
N1379 C1382 1.350 . S
N1380 S1378 1.610 . S
N1380 C1381 1.351 . S
C1381 C1375 1.428 . S
C1381 N1380 1.351 . S
C1381 C1382 1.434 . S
C1382 C1373 1.429 . S
C1382 N1379 1.350 . S
C1382 C1381 1.434 . S
C1383 C1384 1.369 . S
C1383 C1385 1.419 . S
C1383 H1387 0.930 . S
C1384 C1383 1.369 . S
C1384 C1393 1.429 . S
C1385 C1383 1.419 . S
C1385 C1386 1.363 . S
C1385 H1388 0.929 . S
C1386 C1385 1.363 . S
C1386 C1392 1.428 . S
H1387 C1383 0.930 . S
H1388 C1385 0.929 . S
S1389 N1390 1.613 . S
S1389 N1391 1.610 . S
N1390 S1389 1.613 . S
N1390 C1393 1.350 . S
N1391 S1389 1.610 . S
N1391 C1392 1.351 . S
C1392 C1386 1.428 . S
C1392 N1391 1.351 . S
C1392 C1393 1.434 . S
C1393 C1384 1.429 . S
C1393 N1390 1.350 . S
C1393 C1392 1.434 . S
C1394 C1395 1.369 . S
C1394 C1396 1.419 . S
C1394 H1398 0.930 . S
C1395 C1394 1.369 . S
C1395 C1404 1.429 . S
C1396 C1394 1.419 . S
C1396 C1397 1.363 . S
C1396 H1399 0.929 . S
C1397 C1396 1.363 . S
C1397 C1403 1.428 . S
H1398 C1394 0.930 . S
H1399 C1396 0.929 . S
S1400 N1401 1.613 . S
S1400 N1402 1.610 . S
N1401 S1400 1.613 . S
N1401 C1404 1.350 . S
N1402 S1400 1.610 . S
N1402 C1403 1.351 . S
C1403 C1397 1.428 . S
C1403 N1402 1.351 . S
C1403 C1404 1.434 . S
C1404 C1395 1.429 . S
C1404 N1401 1.350 . S
C1404 C1403 1.434 . S
C1405 C1406 1.369 . S
C1405 C1407 1.419 . S
C1405 H1409 0.930 . S
C1406 C1405 1.369 . S
C1406 C1415 1.429 . S
C1407 C1405 1.419 . S
C1407 C1408 1.363 . S
C1407 H1410 0.929 . S
C1408 C1407 1.363 . S
C1408 C1414 1.428 . S
H1409 C1405 0.930 . S
H1410 C1407 0.929 . S
S1411 N1412 1.613 . S
S1411 N1413 1.610 . S
N1412 S1411 1.613 . S
N1412 C1415 1.350 . S
N1413 S1411 1.610 . S
N1413 C1414 1.351 . S
C1414 C1408 1.428 . S
C1414 N1413 1.351 . S
C1414 C1415 1.434 . S
C1415 C1406 1.429 . S
C1415 N1412 1.350 . S
C1415 C1414 1.434 . S
C1416 C1417 1.369 . S
C1416 C1418 1.419 . S
C1416 H1420 0.930 . S
C1417 C1416 1.369 . S
C1417 C1426 1.429 . S
C1418 C1416 1.419 . S
C1418 C1419 1.363 . S
C1418 H1421 0.929 . S
C1419 C1418 1.363 . S
C1419 C1425 1.428 . S
H1420 C1416 0.930 . S
H1421 C1418 0.929 . S
S1422 N1423 1.613 . S
S1422 N1424 1.610 . S
N1423 S1422 1.613 . S
N1423 C1426 1.350 . S
N1424 S1422 1.610 . S
N1424 C1425 1.351 . S
C1425 C1419 1.428 . S
C1425 N1424 1.351 . S
C1425 C1426 1.434 . S
C1426 C1417 1.429 . S
C1426 N1423 1.350 . S
C1426 C1425 1.434 . S
C1427 C1428 1.369 . S
C1427 C1429 1.419 . S
C1427 H1431 0.930 . S
C1428 C1427 1.369 . S
C1428 C1437 1.429 . S
C1429 C1427 1.419 . S
C1429 C1430 1.363 . S
C1429 H1432 0.929 . S
C1430 C1429 1.363 . S
C1430 C1436 1.428 . S
H1431 C1427 0.930 . S
H1432 C1429 0.929 . S
S1433 N1434 1.613 . S
S1433 N1435 1.610 . S
N1434 S1433 1.613 . S
N1434 C1437 1.350 . S
N1435 S1433 1.610 . S
N1435 C1436 1.351 . S
C1436 C1430 1.428 . S
C1436 N1435 1.351 . S
C1436 C1437 1.434 . S
C1437 C1428 1.429 . S
C1437 N1434 1.350 . S
C1437 C1436 1.434 . S
C1438 C1439 1.369 . S
C1438 C1440 1.419 . S
C1438 H1442 0.930 . S
C1439 C1438 1.369 . S
C1439 C1448 1.429 . S
C1440 C1438 1.419 . S
C1440 C1441 1.363 . S
C1440 H1443 0.929 . S
C1441 C1440 1.363 . S
C1441 C1447 1.428 . S
H1442 C1438 0.930 . S
H1443 C1440 0.929 . S
S1444 N1445 1.613 . S
S1444 N1446 1.610 . S
N1445 S1444 1.613 . S
N1445 C1448 1.350 . S
N1446 S1444 1.610 . S
N1446 C1447 1.351 . S
C1447 C1441 1.428 . S
C1447 N1446 1.351 . S
C1447 C1448 1.434 . S
C1448 C1439 1.429 . S
C1448 N1445 1.350 . S
C1448 C1447 1.434 . S
C1449 C1450 1.369 . S
C1449 C1451 1.419 . S
C1449 H1453 0.930 . S
C1450 C1449 1.369 . S
C1450 C1459 1.429 . S
C1451 C1449 1.419 . S
C1451 C1452 1.363 . S
C1451 H1454 0.929 . S
C1452 C1451 1.363 . S
C1452 C1458 1.428 . S
H1453 C1449 0.930 . S
H1454 C1451 0.929 . S
S1455 N1456 1.613 . S
S1455 N1457 1.610 . S
N1456 S1455 1.613 . S
N1456 C1459 1.350 . S
N1457 S1455 1.610 . S
N1457 C1458 1.351 . S
C1458 C1452 1.428 . S
C1458 N1457 1.351 . S
C1458 C1459 1.434 . S
C1459 C1450 1.429 . S
C1459 N1456 1.350 . S
C1459 C1458 1.434 . S
C1460 C1461 1.369 . S
C1460 C1462 1.419 . S
C1460 H1464 0.930 . S
C1461 C1460 1.369 . S
C1461 C1470 1.429 . S
C1462 C1460 1.419 . S
C1462 C1463 1.363 . S
C1462 H1465 0.929 . S
C1463 C1462 1.363 . S
C1463 C1469 1.428 . S
H1464 C1460 0.930 . S
H1465 C1462 0.929 . S
S1466 N1467 1.613 . S
S1466 N1468 1.610 . S
N1467 S1466 1.613 . S
N1467 C1470 1.350 . S
N1468 S1466 1.610 . S
N1468 C1469 1.351 . S
C1469 C1463 1.428 . S
C1469 N1468 1.351 . S
C1469 C1470 1.434 . S
C1470 C1461 1.429 . S
C1470 N1467 1.350 . S
C1470 C1469 1.434 . S
C1471 C1472 1.369 . S
C1471 C1473 1.419 . S
C1471 H1475 0.930 . S
C1472 C1471 1.369 . S
C1472 C1481 1.429 . S
C1473 C1471 1.419 . S
C1473 C1474 1.363 . S
C1473 H1476 0.929 . S
C1474 C1473 1.363 . S
C1474 C1480 1.428 . S
H1475 C1471 0.930 . S
H1476 C1473 0.929 . S
S1477 N1478 1.613 . S
S1477 N1479 1.610 . S
N1478 S1477 1.613 . S
N1478 C1481 1.350 . S
N1479 S1477 1.610 . S
N1479 C1480 1.351 . S
C1480 C1474 1.428 . S
C1480 N1479 1.351 . S
C1480 C1481 1.434 . S
C1481 C1472 1.429 . S
C1481 N1478 1.350 . S
C1481 C1480 1.434 . S
C1482 C1483 1.369 . S
C1482 C1484 1.419 . S
C1482 H1486 0.930 . S
C1483 C1482 1.369 . S
C1483 C1492 1.429 . S
C1484 C1482 1.419 . S
C1484 C1485 1.363 . S
C1484 H1487 0.929 . S
C1485 C1484 1.363 . S
C1485 C1491 1.428 . S
H1486 C1482 0.930 . S
H1487 C1484 0.929 . S
S1488 N1489 1.613 . S
S1488 N1490 1.610 . S
N1489 S1488 1.613 . S
N1489 C1492 1.350 . S
N1490 S1488 1.610 . S
N1490 C1491 1.351 . S
C1491 C1485 1.428 . S
C1491 N1490 1.351 . S
C1491 C1492 1.434 . S
C1492 C1483 1.429 . S
C1492 N1489 1.350 . S
C1492 C1491 1.434 . S
C1493 C1494 1.369 . S
C1493 C1495 1.419 . S
C1493 H1497 0.930 . S
C1494 C1493 1.369 . S
C1494 C1503 1.429 . S
C1495 C1493 1.419 . S
C1495 C1496 1.363 . S
C1495 H1498 0.929 . S
C1496 C1495 1.363 . S
C1496 C1502 1.428 . S
H1497 C1493 0.930 . S
H1498 C1495 0.929 . S
S1499 N1500 1.613 . S
S1499 N1501 1.610 . S
N1500 S1499 1.613 . S
N1500 C1503 1.350 . S
N1501 S1499 1.610 . S
N1501 C1502 1.351 . S
C1502 C1496 1.428 . S
C1502 N1501 1.351 . S
C1502 C1503 1.434 . S
C1503 C1494 1.429 . S
C1503 N1500 1.350 . S
C1503 C1502 1.434 . S
C1504 C1505 1.369 . S
C1504 C1506 1.419 . S
C1504 H1508 0.930 . S
C1505 C1504 1.369 . S
C1505 C1514 1.429 . S
C1506 C1504 1.419 . S
C1506 C1507 1.363 . S
C1506 H1509 0.929 . S
C1507 C1506 1.363 . S
C1507 C1513 1.428 . S
H1508 C1504 0.930 . S
H1509 C1506 0.929 . S
S1510 N1511 1.613 . S
S1510 N1512 1.610 . S
N1511 S1510 1.613 . S
N1511 C1514 1.350 . S
N1512 S1510 1.610 . S
N1512 C1513 1.351 . S
C1513 C1507 1.428 . S
C1513 N1512 1.351 . S
C1513 C1514 1.434 . S
C1514 C1505 1.429 . S
C1514 N1511 1.350 . S
C1514 C1513 1.434 . S
C1515 C1516 1.369 . S
C1515 C1517 1.419 . S
C1515 H1519 0.930 . S
C1516 C1515 1.369 . S
C1516 C1525 1.429 . S
C1517 C1515 1.419 . S
C1517 C1518 1.363 . S
C1517 H1520 0.929 . S
C1518 C1517 1.363 . S
C1518 C1524 1.428 . S
H1519 C1515 0.930 . S
H1520 C1517 0.929 . S
S1521 N1522 1.613 . S
S1521 N1523 1.610 . S
N1522 S1521 1.613 . S
N1522 C1525 1.350 . S
N1523 S1521 1.610 . S
N1523 C1524 1.351 . S
C1524 C1518 1.428 . S
C1524 N1523 1.351 . S
C1524 C1525 1.434 . S
C1525 C1516 1.429 . S
C1525 N1522 1.350 . S
C1525 C1524 1.434 . S
C1526 C1527 1.369 . S
C1526 C1528 1.419 . S
C1526 H1530 0.930 . S
C1527 C1526 1.369 . S
C1527 C1536 1.429 . S
C1528 C1526 1.419 . S
C1528 C1529 1.363 . S
C1528 H1531 0.929 . S
C1529 C1528 1.363 . S
C1529 C1535 1.428 . S
H1530 C1526 0.930 . S
H1531 C1528 0.929 . S
S1532 N1533 1.613 . S
S1532 N1534 1.610 . S
N1533 S1532 1.613 . S
N1533 C1536 1.350 . S
N1534 S1532 1.610 . S
N1534 C1535 1.351 . S
C1535 C1529 1.428 . S
C1535 N1534 1.351 . S
C1535 C1536 1.434 . S
C1536 C1527 1.429 . S
C1536 N1533 1.350 . S
C1536 C1535 1.434 . S
C1537 C1538 1.369 . S
C1537 C1539 1.419 . S
C1537 H1541 0.930 . S
C1538 C1537 1.369 . S
C1538 C1547 1.429 . S
C1539 C1537 1.419 . S
C1539 C1540 1.363 . S
C1539 H1542 0.929 . S
C1540 C1539 1.363 . S
C1540 C1546 1.428 . S
H1541 C1537 0.930 . S
H1542 C1539 0.929 . S
S1543 N1544 1.613 . S
S1543 N1545 1.610 . S
N1544 S1543 1.613 . S
N1544 C1547 1.350 . S
N1545 S1543 1.610 . S
N1545 C1546 1.351 . S
C1546 C1540 1.428 . S
C1546 N1545 1.351 . S
C1546 C1547 1.434 . S
C1547 C1538 1.429 . S
C1547 N1544 1.350 . S
C1547 C1546 1.434 . S
C1548 C1549 1.369 . S
C1548 C1550 1.419 . S
C1548 H1552 0.930 . S
C1549 C1548 1.369 . S
C1549 C1558 1.429 . S
C1550 C1548 1.419 . S
C1550 C1551 1.363 . S
C1550 H1553 0.929 . S
C1551 C1550 1.363 . S
C1551 C1557 1.428 . S
H1552 C1548 0.930 . S
H1553 C1550 0.929 . S
S1554 N1555 1.613 . S
S1554 N1556 1.610 . S
N1555 S1554 1.613 . S
N1555 C1558 1.350 . S
N1556 S1554 1.610 . S
N1556 C1557 1.351 . S
C1557 C1551 1.428 . S
C1557 N1556 1.351 . S
C1557 C1558 1.434 . S
C1558 C1549 1.429 . S
C1558 N1555 1.350 . S
C1558 C1557 1.434 . S
C1559 C1560 1.369 . S
C1559 C1561 1.419 . S
C1559 H1563 0.930 . S
C1560 C1559 1.369 . S
C1560 C1569 1.429 . S
C1561 C1559 1.419 . S
C1561 C1562 1.363 . S
C1561 H1564 0.929 . S
C1562 C1561 1.363 . S
C1562 C1568 1.428 . S
H1563 C1559 0.930 . S
H1564 C1561 0.929 . S
S1565 N1566 1.613 . S
S1565 N1567 1.610 . S
N1566 S1565 1.613 . S
N1566 C1569 1.350 . S
N1567 S1565 1.610 . S
N1567 C1568 1.351 . S
C1568 C1562 1.428 . S
C1568 N1567 1.351 . S
C1568 C1569 1.434 . S
C1569 C1560 1.429 . S
C1569 N1566 1.350 . S
C1569 C1568 1.434 . S
C1570 C1571 1.369 . S
C1570 C1572 1.419 . S
C1570 H1574 0.930 . S
C1571 C1570 1.369 . S
C1571 C1580 1.429 . S
C1572 C1570 1.419 . S
C1572 C1573 1.363 . S
C1572 H1575 0.929 . S
C1573 C1572 1.363 . S
C1573 C1579 1.428 . S
H1574 C1570 0.930 . S
H1575 C1572 0.929 . S
S1576 N1577 1.613 . S
S1576 N1578 1.610 . S
N1577 S1576 1.613 . S
N1577 C1580 1.350 . S
N1578 S1576 1.610 . S
N1578 C1579 1.351 . S
C1579 C1573 1.428 . S
C1579 N1578 1.351 . S
C1579 C1580 1.434 . S
C1580 C1571 1.429 . S
C1580 N1577 1.350 . S
C1580 C1579 1.434 . S
C1581 C1582 1.369 . S
C1581 C1583 1.419 . S
C1581 H1585 0.930 . S
C1582 C1581 1.369 . S
C1582 C1591 1.429 . S
C1583 C1581 1.419 . S
C1583 C1584 1.363 . S
C1583 H1586 0.929 . S
C1584 C1583 1.363 . S
C1584 C1590 1.428 . S
H1585 C1581 0.930 . S
H1586 C1583 0.929 . S
S1587 N1588 1.613 . S
S1587 N1589 1.610 . S
N1588 S1587 1.613 . S
N1588 C1591 1.350 . S
N1589 S1587 1.610 . S
N1589 C1590 1.351 . S
C1590 C1584 1.428 . S
C1590 N1589 1.351 . S
C1590 C1591 1.434 . S
C1591 C1582 1.429 . S
C1591 N1588 1.350 . S
C1591 C1590 1.434 . S
C1592 C1593 1.369 . S
C1592 C1594 1.419 . S
C1592 H1596 0.930 . S
C1593 C1592 1.369 . S
C1593 C1602 1.429 . S
C1594 C1592 1.419 . S
C1594 C1595 1.363 . S
C1594 H1597 0.929 . S
C1595 C1594 1.363 . S
C1595 C1601 1.428 . S
H1596 C1592 0.930 . S
H1597 C1594 0.929 . S
S1598 N1599 1.613 . S
S1598 N1600 1.610 . S
N1599 S1598 1.613 . S
N1599 C1602 1.350 . S
N1600 S1598 1.610 . S
N1600 C1601 1.351 . S
C1601 C1595 1.428 . S
C1601 N1600 1.351 . S
C1601 C1602 1.434 . S
C1602 C1593 1.429 . S
C1602 N1599 1.350 . S
C1602 C1601 1.434 . S
C1603 C1604 1.369 . S
C1603 C1605 1.419 . S
C1603 H1607 0.930 . S
C1604 C1603 1.369 . S
C1604 C1613 1.429 . S
C1605 C1603 1.419 . S
C1605 C1606 1.363 . S
C1605 H1608 0.929 . S
C1606 C1605 1.363 . S
C1606 C1612 1.428 . S
H1607 C1603 0.930 . S
H1608 C1605 0.929 . S
S1609 N1610 1.613 . S
S1609 N1611 1.610 . S
N1610 S1609 1.613 . S
N1610 C1613 1.350 . S
N1611 S1609 1.610 . S
N1611 C1612 1.351 . S
C1612 C1606 1.428 . S
C1612 N1611 1.351 . S
C1612 C1613 1.434 . S
C1613 C1604 1.429 . S
C1613 N1610 1.350 . S
C1613 C1612 1.434 . S
C1614 C1615 1.369 . S
C1614 C1616 1.419 . S
C1614 H1618 0.930 . S
C1615 C1614 1.369 . S
C1615 C1624 1.429 . S
C1616 C1614 1.419 . S
C1616 C1617 1.363 . S
C1616 H1619 0.929 . S
C1617 C1616 1.363 . S
C1617 C1623 1.428 . S
H1618 C1614 0.930 . S
H1619 C1616 0.929 . S
S1620 N1621 1.613 . S
S1620 N1622 1.610 . S
N1621 S1620 1.613 . S
N1621 C1624 1.350 . S
N1622 S1620 1.610 . S
N1622 C1623 1.351 . S
C1623 C1617 1.428 . S
C1623 N1622 1.351 . S
C1623 C1624 1.434 . S
C1624 C1615 1.429 . S
C1624 N1621 1.350 . S
C1624 C1623 1.434 . S
C1625 C1626 1.369 . S
C1625 C1627 1.419 . S
C1625 H1629 0.930 . S
C1626 C1625 1.369 . S
C1626 C1635 1.429 . S
C1627 C1625 1.419 . S
C1627 C1628 1.363 . S
C1627 H1630 0.929 . S
C1628 C1627 1.363 . S
C1628 C1634 1.428 . S
H1629 C1625 0.930 . S
H1630 C1627 0.929 . S
S1631 N1632 1.613 . S
S1631 N1633 1.610 . S
N1632 S1631 1.613 . S
N1632 C1635 1.350 . S
N1633 S1631 1.610 . S
N1633 C1634 1.351 . S
C1634 C1628 1.428 . S
C1634 N1633 1.351 . S
C1634 C1635 1.434 . S
C1635 C1626 1.429 . S
C1635 N1632 1.350 . S
C1635 C1634 1.434 . S
C1636 C1637 1.369 . S
C1636 C1638 1.419 . S
C1636 H1640 0.930 . S
C1637 C1636 1.369 . S
C1637 C1646 1.429 . S
C1638 C1636 1.419 . S
C1638 C1639 1.363 . S
C1638 H1641 0.929 . S
C1639 C1638 1.363 . S
C1639 C1645 1.428 . S
H1640 C1636 0.930 . S
H1641 C1638 0.929 . S
S1642 N1643 1.613 . S
S1642 N1644 1.610 . S
N1643 S1642 1.613 . S
N1643 C1646 1.350 . S
N1644 S1642 1.610 . S
N1644 C1645 1.351 . S
C1645 C1639 1.428 . S
C1645 N1644 1.351 . S
C1645 C1646 1.434 . S
C1646 C1637 1.429 . S
C1646 N1643 1.350 . S
C1646 C1645 1.434 . S
C1647 C1648 1.369 . S
C1647 C1649 1.419 . S
C1647 H1651 0.930 . S
C1648 C1647 1.369 . S
C1648 C1657 1.429 . S
C1649 C1647 1.419 . S
C1649 C1650 1.363 . S
C1649 H1652 0.929 . S
C1650 C1649 1.363 . S
C1650 C1656 1.428 . S
H1651 C1647 0.930 . S
H1652 C1649 0.929 . S
S1653 N1654 1.613 . S
S1653 N1655 1.610 . S
N1654 S1653 1.613 . S
N1654 C1657 1.350 . S
N1655 S1653 1.610 . S
N1655 C1656 1.351 . S
C1656 C1650 1.428 . S
C1656 N1655 1.351 . S
C1656 C1657 1.434 . S
C1657 C1648 1.429 . S
C1657 N1654 1.350 . S
C1657 C1656 1.434 . S
C1658 C1659 1.369 . S
C1658 C1660 1.419 . S
C1658 H1662 0.930 . S
C1659 C1658 1.369 . S
C1659 C1668 1.429 . S
C1660 C1658 1.419 . S
C1660 C1661 1.363 . S
C1660 H1663 0.929 . S
C1661 C1660 1.363 . S
C1661 C1667 1.428 . S
H1662 C1658 0.930 . S
H1663 C1660 0.929 . S
S1664 N1665 1.613 . S
S1664 N1666 1.610 . S
N1665 S1664 1.613 . S
N1665 C1668 1.350 . S
N1666 S1664 1.610 . S
N1666 C1667 1.351 . S
C1667 C1661 1.428 . S
C1667 N1666 1.351 . S
C1667 C1668 1.434 . S
C1668 C1659 1.429 . S
C1668 N1665 1.350 . S
C1668 C1667 1.434 . S
C1669 C1670 1.369 . S
C1669 C1671 1.419 . S
C1669 H1673 0.930 . S
C1670 C1669 1.369 . S
C1670 C1679 1.429 . S
C1671 C1669 1.419 . S
C1671 C1672 1.363 . S
C1671 H1674 0.929 . S
C1672 C1671 1.363 . S
C1672 C1678 1.428 . S
H1673 C1669 0.930 . S
H1674 C1671 0.929 . S
S1675 N1676 1.613 . S
S1675 N1677 1.610 . S
N1676 S1675 1.613 . S
N1676 C1679 1.350 . S
N1677 S1675 1.610 . S
N1677 C1678 1.351 . S
C1678 C1672 1.428 . S
C1678 N1677 1.351 . S
C1678 C1679 1.434 . S
C1679 C1670 1.429 . S
C1679 N1676 1.350 . S
C1679 C1678 1.434 . S
C625 C218 1.599 . S
C627 C3 1.630 . S
C636 C612 1.652 . S
C638 C16 1.515 . S
C647 C29 1.662 . S
C649 C595 1.625 . S
C658 C42 1.470 . S
C660 C599 1.585 . S
C669 C231 1.660 . S
C671 C55 1.672 . S
C680 C68 1.563 . S
C682 C235 1.660 . S
C691 C81 1.701 . S
C693 C257 1.688 . S
C702 C573 1.597 . S
C704 C94 1.516 . S
C713 C107 1.629 . S
C715 C10 1.600 . S
C724 C23 1.664 . S
C726 C120 1.544 . S
C735 C36 1.571 . S
C737 C133 1.603 . S
C746 C49 1.693 . S
C748 C146 1.557 . S
C757 C62 1.625 . S
C759 C159 1.662 . S
C768 C172 1.486 . S
C770 C75 1.614 . S
C779 C88 1.602 . S
C781 C185 1.631 . S
C790 C198 1.515 . S
C792 C101 1.638 . S
C801 C211 1.626 . S
C803 C114 1.602 . S
C812 C166 1.579 . S
C814 C224 1.597 . S
C823 C239 1.621 . S
C825 C179 1.638 . S
C834 C250 1.634 . S
C836 C192 1.629 . S
C845 C517 1.667 . S
C847 C265 1.640 . S
C856 C276 1.635 . S
C858 C452 1.601 . S
C867 C465 1.689 . S
C869 C291 1.657 . S
C878 C439 1.693 . S
C880 C304 1.688 . S
C889 C530 1.650 . S
C891 C315 1.671 . S
C900 C328 1.491 . S
C902 C300 1.577 . S
C911 C341 1.634 . S
C913 C283 1.629 . S
C922 C354 1.542 . S
C924 C287 1.644 . S
C933 C367 1.627 . S
C935 C543 1.608 . S
C944 C547 1.570 . S
C946 C380 1.445 . S
C955 C393 1.604 . S
C957 C569 1.574 . S
C966 C261 1.629 . S
C968 C406 1.505 . S
C977 C322 1.654 . S
C979 C419 1.666 . S
C988 C432 1.467 . S
C990 C335 1.637 . S
C999 C445 1.701 . S
C1001 C348 1.688 . S
C1010 C458 1.443 . S
C1012 C361 1.609 . S
C1021 C471 1.634 . S
C1023 C374 1.626 . S
C1032 C484 1.519 . S
C1034 C387 1.689 . S
C1043 C400 1.662 . S
C1045 C497 1.674 . S
C1054 C413 1.664 . S
C1056 C510 1.507 . S
C1065 C426 1.649 . S
C1067 C523 1.671 . S
C1076 C478 1.682 . S
C1078 C536 1.707 . S
C1087 C491 1.665 . S
C1089 C551 1.670 . S
C1098 C562 1.660 . S
C1100 C504 1.628 . S
C1109 C577 1.654 . S
C1111 C205 1.640 . S
C1120 C588 1.676 . S
C1122 C140 1.657 . S
C1131 C153 1.613 . S
C1133 C603 1.627 . S
C1142 C616 1.594 . S
C1144 C127 1.611 . S
C1153 C5 1.544 . S
C1155 C352 1.426 . S
C1164 C313 1.853 . S
C1166 C18 1.841 . S
C1175 C31 1.475 . S
C1177 C326 1.345 . S
C1186 C44 1.815 . S
C1188 C339 1.827 . S
C1197 C57 1.629 . S
C1199 C66 1.500 . S
C1208 C79 2.023 . S
C1210 C70 2.009 . S
C1219 C83 1.560 . S
C1221 C92 1.439 . S
C1230 C96 1.989 . S
C1232 C53 2.001 . S
C1241 C109 1.544 . S
C1243 C556 1.513 . S
C1252 C122 1.927 . S
C1254 C560 1.938 . S
C1263 C135 1.855 . S
C1265 C270 1.810 . S
C1274 C148 2.008 . S
C1276 C534 2.024 . S
C1285 C161 1.475 . S
C1287 C608 1.443 . S
C1296 C209 1.911 . S
C1298 C174 1.912 . S
C1307 C187 1.786 . S
C1309 C621 1.744 . S
C1318 C586 2.003 . S
C1320 C200 1.987 . S
C1329 C118 1.417 . S
C1331 C213 1.544 . S
C1340 C226 1.854 . S
C1342 C508 1.706 . S
C1351 C237 1.868 . S
C1353 C469 1.828 . S
C1362 C482 1.773 . S
C1364 C252 1.913 . S
C1373 C263 1.822 . S
C1375 C183 1.773 . S
C1384 C456 1.636 . S
C1386 C278 1.789 . S
C1395 C417 1.858 . S
C1397 C289 1.897 . S
C1406 C443 2.020 . S
C1408 C302 2.051 . S
C1417 C317 1.856 . S
C1419 C40 1.700 . S
C1428 C330 1.908 . S
C1430 C1 1.915 . S
C1439 C14 1.774 . S
C1441 C343 1.913 . S
C1450 C356 1.921 . S
C1452 C27 1.942 . S
C1461 C369 1.789 . S
C1463 C378 1.635 . S
C1472 C391 1.744 . S
C1474 C382 1.732 . S
C1483 C404 1.708 . S
C1485 C395 1.854 . S
C1494 C408 1.757 . S
C1496 C365 1.775 . S
C1505 C244 1.813 . S
C1507 C421 1.856 . S
C1516 C434 1.812 . S
C1518 C248 1.830 . S
C1527 C447 1.561 . S
C1529 C582 1.530 . S
C1538 C460 1.735 . S
C1540 C222 1.741 . S
C1549 C473 1.916 . S
C1551 C296 1.871 . S
C1560 C486 1.836 . S
C1562 C521 1.859 . S
C1571 C309 1.598 . S
C1573 C499 1.625 . S
C1582 C512 1.760 . S
C1584 C274 1.773 . S
C1593 C430 1.704 . S
C1595 C525 1.856 . S
C1604 C196 1.438 . S
C1606 C538 1.557 . S
C1615 C157 1.934 . S
C1617 C549 1.967 . S
C1626 C564 1.473 . S
C1628 C170 1.347 . S
C1637 C575 2.021 . S
C1639 C495 2.002 . S
C1648 C144 1.502 . S
C1650 C590 1.628 . S
C1659 C601 1.937 . S
C1661 C105 1.915 . S
C1670 C131 1.738 . S
C1672 C614 1.788 . S
