# Generated by pormake.
# Topology umm, (4)-cn, num edge types: 1
# Building blocks:
#     Node 0, Type 0, BuildingBlock: GALJAG_clean_sbu_0, # of connection points: 4
#     Node 1, Type 0, BuildingBlock: GALJAG_clean_sbu_0, # of connection points: 4
#     Node 2, Type 0, BuildingBlock: GALJAG_clean_sbu_0, # of connection points: 4
#     Node 3, Type 0, BuildingBlock: GALJAG_clean_sbu_0, # of connection points: 4
#     Node 4, Type 0, BuildingBlock: GALJAG_clean_sbu_0, # of connection points: 4
#     Node 5, Type 0, BuildingBlock: GALJAG_clean_sbu_0, # of connection points: 4
#     Node 6, Type 0, BuildingBlock: GALJAG_clean_sbu_0, # of connection points: 4
#     Node 7, Type 0, BuildingBlock: GALJAG_clean_sbu_0, # of connection points: 4
#     Node 8, Type 0, BuildingBlock: GALJAG_clean_sbu_0, # of connection points: 4
#     Node 9, Type 0, BuildingBlock: GALJAG_clean_sbu_0, # of connection points: 4
#     Node 10, Type 0, BuildingBlock: GALJAG_clean_sbu_0, # of connection points: 4
#     Node 11, Type 0, BuildingBlock: GALJAG_clean_sbu_0, # of connection points: 4
#     Edge 12, Type (0, 0), BuildingBlock: TEMPAE_clean_linker_10, # of connection points: 2
#     Edge 13, Type (0, 0), BuildingBlock: TEMPAE_clean_linker_10, # of connection points: 2
#     Edge 14, Type (0, 0), BuildingBlock: TEMPAE_clean_linker_10, # of connection points: 2
#     Edge 15, Type (0, 0), BuildingBlock: TEMPAE_clean_linker_10, # of connection points: 2
#     Edge 16, Type (0, 0), BuildingBlock: TEMPAE_clean_linker_10, # of connection points: 2
#     Edge 17, Type (0, 0), BuildingBlock: TEMPAE_clean_linker_10, # of connection points: 2
#     Edge 18, Type (0, 0), BuildingBlock: TEMPAE_clean_linker_10, # of connection points: 2
#     Edge 19, Type (0, 0), BuildingBlock: TEMPAE_clean_linker_10, # of connection points: 2
#     Edge 20, Type (0, 0), BuildingBlock: TEMPAE_clean_linker_10, # of connection points: 2
#     Edge 21, Type (0, 0), BuildingBlock: TEMPAE_clean_linker_10, # of connection points: 2
#     Edge 22, Type (0, 0), BuildingBlock: TEMPAE_clean_linker_10, # of connection points: 2
#     Edge 23, Type (0, 0), BuildingBlock: TEMPAE_clean_linker_10, # of connection points: 2
#     Edge 24, Type (0, 0), BuildingBlock: TEMPAE_clean_linker_10, # of connection points: 2
#     Edge 25, Type (0, 0), BuildingBlock: TEMPAE_clean_linker_10, # of connection points: 2
#     Edge 26, Type (0, 0), BuildingBlock: TEMPAE_clean_linker_10, # of connection points: 2
#     Edge 27, Type (0, 0), BuildingBlock: TEMPAE_clean_linker_10, # of connection points: 2
#     Edge 28, Type (0, 0), BuildingBlock: TEMPAE_clean_linker_10, # of connection points: 2
#     Edge 29, Type (0, 0), BuildingBlock: TEMPAE_clean_linker_10, # of connection points: 2
#     Edge 30, Type (0, 0), BuildingBlock: TEMPAE_clean_linker_10, # of connection points: 2
#     Edge 31, Type (0, 0), BuildingBlock: TEMPAE_clean_linker_10, # of connection points: 2
#     Edge 32, Type (0, 0), BuildingBlock: TEMPAE_clean_linker_10, # of connection points: 2
#     Edge 33, Type (0, 0), BuildingBlock: TEMPAE_clean_linker_10, # of connection points: 2
#     Edge 34, Type (0, 0), BuildingBlock: TEMPAE_clean_linker_10, # of connection points: 2
#     Edge 35, Type (0, 0), BuildingBlock: TEMPAE_clean_linker_10, # of connection points: 2
# Relax obj value: 0.093
# Max RMSD: 0.220
# Mean RMSD: 0.220
data_MOF--net-umm--node1-GALJAG_clean_sbu_0--edge1-TEMPAE_clean_linker_10
_symmetry_space_group_name_H-M    P1
_symmetry_Int_Tables_number       1
_symmetry_cell_setting            triclinic
loop_
_symmetry_equiv_pos_as_xyz
'x, y, z'
_cell_length_a     56.419124
_cell_length_b     56.446854
_cell_length_c     28.741613
_cell_angle_alpha  89.994412
_cell_angle_beta   89.974107
_cell_angle_gamma 119.97188
loop_
_atom_site_label
_atom_site_type_symbol
_atom_site_fract_x
_atom_site_fract_y
_atom_site_fract_z
_atom_type_partial_charge
In0 In 0.37703 0.52336 0.0963 0.0
O1 O 0.39717 0.56058 0.14331 0.0
O2 O 0.36722 0.52249 0.17314 0.0
C3 C 0.39059 0.54283 0.00909 0.0
C4 C 0.41252 0.50536 0.1102 0.0
C5 C 0.32279 0.49969 0.08332 0.0
O6 O 0.39243 0.5582 0.0426 0.0
O7 O 0.38261 0.51841 0.02019 0.0
O8 O 0.33455 0.4856 0.08619 0.0
O9 O 0.33821 0.52508 0.08927 0.0
C10 C 0.38434 0.54755 0.17929 0.0
O11 O 0.38755 0.48892 0.10134 0.0
O12 O 0.41903 0.53016 0.11255 0.0
In13 In 0.84203 0.38356 0.42247 0.0
O14 O 0.82216 0.39818 0.47576 0.0
O15 O 0.84268 0.37729 0.49982 0.0
C16 C 0.83488 0.3978 0.3366 0.0
C17 C 0.89556 0.42016 0.42945 0.0
C18 C 0.80894 0.32934 0.41356 0.0
O19 O 0.82344 0.40135 0.37178 0.0
O20 O 0.84964 0.38738 0.3453 0.0
O21 O 0.83469 0.33971 0.41629 0.0
O22 O 0.80058 0.34627 0.41624 0.0
C23 C 0.82962 0.38939 0.51015 0.0
O24 O 0.88723 0.39526 0.42001 0.0
O25 O 0.87699 0.42614 0.43538 0.0
In26 In 0.46994 0.8504 0.74749 0.0
O27 O 0.43078 0.83724 0.78975 0.0
O28 O 0.46623 0.84222 0.82512 0.0
C29 C 0.4542 0.84047 0.65806 0.0
C30 C 0.49092 0.90498 0.75042 0.0
C31 C 0.49252 0.81841 0.74313 0.0
O32 O 0.43683 0.83145 0.69089 0.0
O33 O 0.47884 0.85409 0.67085 0.0
O34 O 0.50697 0.84424 0.74072 0.0
O35 O 0.46727 0.80927 0.74979 0.0
C36 C 0.44159 0.83641 0.82781 0.0
O37 O 0.50351 0.89393 0.76842 0.0
O38 O 0.46837 0.88863 0.73184 0.0
In39 In 0.61723 0.46952 0.07825 0.0
O40 O 0.60864 0.43502 0.12861 0.0
O41 O 0.62309 0.47521 0.15589 0.0
C42 C 0.60575 0.44761 0.99249 0.0
C43 C 0.57491 0.47812 0.09022 0.0
C44 C 0.67175 0.49971 0.06743 0.0
O45 O 0.60497 0.43373 0.02765 0.0
O46 O 0.61182 0.47188 0.00118 0.0
O47 O 0.65676 0.51049 0.0649 0.0
O48 O 0.65922 0.4745 0.07668 0.0
C49 C 0.61512 0.45031 0.16415 0.0
O50 O 0.59889 0.4977 0.08236 0.0
O51 O 0.57258 0.45471 0.09176 0.0
In52 In 0.14412 0.61152 0.41165 0.0
O53 O 0.16796 0.60096 0.46393 0.0
O54 O 0.14852 0.62273 0.48815 0.0
C55 C 0.15035 0.5934 0.32879 0.0
C56 C 0.09114 0.57379 0.42341 0.0
C57 C 0.17189 0.6644 0.38692 0.0
O58 O 0.16449 0.59437 0.36377 0.0
O59 O 0.13282 0.60058 0.33656 0.0
O60 O 0.14793 0.65405 0.40346 0.0
O61 O 0.18161 0.64861 0.38524 0.0
C62 C 0.1624 0.61147 0.49814 0.0
O63 O 0.09845 0.59791 0.41021 0.0
O64 O 0.11045 0.56912 0.43107 0.0
In65 In 0.54735 0.1536 0.74248 0.0
O66 O 0.58098 0.17855 0.79638 0.0
O67 O 0.54045 0.15184 0.82004 0.0
C68 C 0.57905 0.17812 0.66709 0.0
C69 C 0.5366 0.10153 0.74754 0.0
C70 C 0.50774 0.16517 0.71996 0.0
O71 O 0.57531 0.19162 0.69835 0.0
O72 O 0.56835 0.15295 0.67554 0.0
O73 O 0.50994 0.14655 0.69953 0.0
O74 O 0.52419 0.17627 0.75318 0.0
C75 C 0.56486 0.16872 0.83068 0.0
O76 O 0.51778 0.10753 0.74899 0.0
O77 O 0.56048 0.12168 0.74318 0.0
In78 In 0.46895 0.6079 0.59062 0.0
O79 O 0.43174 0.58834 0.54347 0.0
O80 O 0.47021 0.61772 0.51378 0.0
C81 C 0.44837 0.59498 0.67735 0.0
C82 C 0.48627 0.57192 0.57571 0.0
C83 C 0.49363 0.66234 0.60228 0.0
O84 O 0.43376 0.59403 0.64325 0.0
O85 O 0.47262 0.60168 0.66709 0.0
O86 O 0.50703 0.64983 0.60403 0.0
O87 O 0.46856 0.64755 0.59289 0.0
C88 C 0.44499 0.60118 0.50766 0.0
O89 O 0.50301 0.59688 0.58406 0.0
O90 O 0.46148 0.5656 0.57471 0.0
In91 In 0.85369 0.47955 0.92116 0.0
O92 O 0.82974 0.44312 0.87239 0.0
O93 O 0.85765 0.48205 0.84308 0.0
C94 C 0.83971 0.45964 0.00796 0.0
C95 C 0.9059 0.49073 0.92073 0.0
C96 C 0.82814 0.50896 0.92411 0.0
O97 O 0.83017 0.44425 0.97263 0.0
O98 O 0.85593 0.48452 0.99895 0.0
O99 O 0.85336 0.51965 0.93352 0.0
O100 O 0.81673 0.48428 0.91152 0.0
C101 C 0.84066 0.45709 0.83603 0.0
O102 O 0.89957 0.50852 0.90909 0.0
O103 O 0.88608 0.46789 0.93273 0.0
In104 In 0.38699 0.85852 0.24533 0.0
O105 O 0.40809 0.84598 0.19118 0.0
O106 O 0.3713 0.84515 0.1712 0.0
C107 C 0.40936 0.85456 0.32563 0.0
C108 C 0.41569 0.91304 0.23298 0.0
C109 C 0.33501 0.82536 0.27219 0.0
O110 O 0.40625 0.8393 0.2912 0.0
O111 O 0.40223 0.87214 0.31854 0.0
O112 O 0.34236 0.84874 0.2551 0.0
O113 O 0.35338 0.81886 0.27328 0.0
C114 C 0.391 0.84181 0.15933 0.0
O115 O 0.39199 0.90143 0.25085 0.0
O116 O 0.4241 0.89713 0.2205 0.0
In117 In 0.53652 0.37582 0.57456 0.0
O118 O 0.57194 0.38968 0.52361 0.0
O119 O 0.53116 0.37202 0.4969 0.0
C120 C 0.55504 0.38617 0.66232 0.0
C121 C 0.52279 0.41486 0.56861 0.0
C122 C 0.51414 0.32134 0.57947 0.0
O123 O 0.57127 0.39205 0.62815 0.0
O124 O 0.53009 0.37548 0.65166 0.0
O125 O 0.49925 0.33233 0.57834 0.0
O126 O 0.53955 0.33783 0.57685 0.0
C127 C 0.55646 0.38283 0.48822 0.0
O128 O 0.50479 0.38996 0.57485 0.0
O129 O 0.54709 0.41961 0.5655 0.0
In130 In 0.14775 0.52661 0.90965 0.0
O131 O 0.10165 0.49838 0.89863 0.0
O132 O 0.1163 0.53943 0.92136 0.0
C133 C 0.17328 0.49737 0.9161 0.0
C134 C 0.16081 0.54846 0.82404 0.0
C135 C 0.16007 0.54437 0.99761 0.0
O136 O 0.14765 0.48642 0.92177 0.0
O137 O 0.18521 0.52224 0.90425 0.0
O138 O 0.17013 0.56082 0.96358 0.0
O139 O 0.14421 0.51974 0.9866 0.0
C140 C 0.096 0.51667 0.91039 0.0
O141 O 0.1717 0.56274 0.86014 0.0
O142 O 0.1441 0.52346 0.83159 0.0
In143 In 0.60764 0.16072 0.25861 0.0
O144 O 0.58908 0.1145 0.26886 0.0
O145 O 0.5636 0.12935 0.24274 0.0
C146 C 0.65778 0.16996 0.28271 0.0
C147 C 0.60905 0.17508 0.16873 0.0
C148 C 0.59975 0.18758 0.32988 0.0
O149 O 0.63658 0.1536 0.30522 0.0
O150 O 0.65317 0.17982 0.24678 0.0
O151 O 0.62056 0.19883 0.30405 0.0
O152 O 0.58213 0.16385 0.31728 0.0
C153 C 0.56563 0.10891 0.25454 0.0
O154 O 0.60294 0.18639 0.20096 0.0
O155 O 0.61475 0.15726 0.1823 0.0
C156 C 0.3714 0.55394 0.25931 0.0
C157 C 0.39167 0.55955 0.22608 0.0
C158 C 0.37847 0.56299 0.30542 0.0
C159 C 0.40637 0.57664 0.31882 0.0
C160 C 0.42689 0.58265 0.28498 0.0
C161 C 0.41927 0.57453 0.23873 0.0
C162 C 0.3561 0.55726 0.34002 0.0
C163 C 0.45677 0.59615 0.29809 0.0
C164 C 0.43278 0.61485 0.43307 0.0
C165 C 0.43288 0.59463 0.46104 0.0
C166 C 0.4228 0.60891 0.38727 0.0
C167 C 0.41407 0.58256 0.3687 0.0
C168 C 0.41418 0.56212 0.39719 0.0
C169 C 0.42308 0.56829 0.44341 0.0
C170 C 0.42195 0.63088 0.3586 0.0
C171 C 0.40605 0.53409 0.37832 0.0
H172 H 0.35004 0.54236 0.24925 0.0
H173 H 0.43486 0.57846 0.21296 0.0
H174 H 0.35396 0.54127 0.36486 0.0
H175 H 0.36137 0.57592 0.36052 0.0
H176 H 0.33604 0.55013 0.32277 0.0
H177 H 0.47018 0.5999 0.26741 0.0
H178 H 0.46331 0.61594 0.31571 0.0
H179 H 0.45991 0.58295 0.32302 0.0
H180 H 0.44043 0.63523 0.44711 0.0
H181 H 0.42359 0.55287 0.46524 0.0
H182 H 0.40153 0.62276 0.34221 0.0
H183 H 0.43723 0.63746 0.33014 0.0
H184 H 0.42639 0.6491 0.37979 0.0
H185 H 0.38471 0.52396 0.3653 0.0
H186 H 0.40764 0.52068 0.40495 0.0
H187 H 0.41939 0.53604 0.34846 0.0
C188 C 0.83913 0.3893 0.59473 0.0
C189 C 0.82567 0.39485 0.55902 0.0
C190 C 0.83852 0.39725 0.6407 0.0
C191 C 0.82375 0.41075 0.65137 0.0
C192 C 0.80882 0.41502 0.61596 0.0
C193 C 0.81013 0.4072 0.57002 0.0
C194 C 0.85499 0.3926 0.67728 0.0
C195 C 0.79247 0.42893 0.62618 0.0
C196 C 0.81356 0.41871 0.78018 0.0
C197 C 0.83503 0.44532 0.78866 0.0
C198 C 0.80894 0.4074 0.73522 0.0
C199 C 0.8265 0.42295 0.69832 0.0
C200 C 0.84796 0.44995 0.70672 0.0
C201 C 0.85182 0.46084 0.75166 0.0
C202 C 0.7856 0.37871 0.72735 0.0
C203 C 0.86739 0.4671 0.6685 0.0
H204 H 0.85116 0.37973 0.58648 0.0
H205 H 0.79954 0.41136 0.54258 0.0
H206 H 0.87214 0.4126 0.68896 0.0
H207 H 0.84214 0.38236 0.70819 0.0
H208 H 0.86361 0.37997 0.66413 0.0
H209 H 0.77927 0.42754 0.59643 0.0
H210 H 0.7794 0.41973 0.65732 0.0
H211 H 0.80659 0.45085 0.63395 0.0
H212 H 0.80045 0.40671 0.80866 0.0
H213 H 0.86849 0.48142 0.75801 0.0
H214 H 0.79378 0.36515 0.71755 0.0
H215 H 0.77265 0.37844 0.69808 0.0
H216 H 0.77257 0.37013 0.75877 0.0
H217 H 0.87852 0.45694 0.65507 0.0
H218 H 0.88264 0.48794 0.6806 0.0
H219 H 0.85582 0.46904 0.63898 0.0
C220 C 0.41718 0.84832 0.887 0.0
C221 C 0.42774 0.83168 0.87304 0.0
C222 C 0.40868 0.84775 0.93315 0.0
C223 C 0.40982 0.82931 0.96538 0.0
C224 C 0.41861 0.81107 0.95024 0.0
C225 C 0.42815 0.81297 0.90448 0.0
C226 C 0.4004 0.86823 0.94816 0.0
C227 C 0.41908 0.79035 0.98287 0.0
C228 C 0.42217 0.84983 0.09274 0.0
C229 C 0.39553 0.83678 0.11066 0.0
C230 C 0.42699 0.84771 0.04546 0.0
C231 C 0.40471 0.83118 0.01577 0.0
C232 C 0.37781 0.81707 0.03418 0.0
C233 C 0.37347 0.82056 0.08129 0.0
C234 C 0.45589 0.86385 0.02704 0.0
C235 C 0.35368 0.79839 0.00414 0.0
H236 H 0.41731 0.86307 0.86265 0.0
H237 H 0.43638 0.80014 0.89345 0.0
H238 H 0.38041 0.85783 0.96636 0.0
H239 H 0.41572 0.88288 0.97313 0.0
H240 H 0.39893 0.87994 0.91831 0.0
H241 H 0.42221 0.77495 0.964 0.0
H242 H 0.43593 0.80091 0.00836 0.0
H243 H 0.39966 0.77959 0.00279 0.0
H244 H 0.43919 0.86268 0.11536 0.0
H245 H 0.35287 0.81044 0.09529 0.0
H246 H 0.45679 0.87742 0.99832 0.0
H247 H 0.4624 0.84979 0.01258 0.0
H248 H 0.47073 0.8766 0.05435 0.0
H249 H 0.35068 0.8104 0.97661 0.0
H250 H 0.33445 0.78727 0.02456 0.0
H251 H 0.35765 0.78322 0.98647 0.0
C252 C 0.60435 0.41243 0.22054 0.0
C253 C 0.61149 0.43966 0.21212 0.0
C254 C 0.59806 0.4015 0.26572 0.0
C255 C 0.59848 0.41812 0.30298 0.0
C256 C 0.6068 0.44594 0.29487 0.0
C257 C 0.6134 0.45641 0.24959 0.0
C258 C 0.5898 0.3719 0.27324 0.0
C259 C 0.60722 0.46427 0.33355 0.0
C260 C 0.54937 0.38652 0.40377 0.0
C261 C 0.56703 0.38903 0.44011 0.0
C262 C 0.55927 0.39506 0.3586 0.0
C263 C 0.58747 0.40596 0.34936 0.0
C264 C 0.6052 0.40725 0.38537 0.0
C265 C 0.59479 0.39898 0.43056 0.0
C266 C 0.53972 0.39364 0.32132 0.0
C267 C 0.63529 0.41824 0.37652 0.0
H268 H 0.60306 0.39947 0.19169 0.0
H269 H 0.61895 0.4775 0.24329 0.0
H270 H 0.60073 0.36981 0.30363 0.0
H271 H 0.56757 0.35988 0.28087 0.0
H272 H 0.59408 0.36287 0.24224 0.0
H273 H 0.61593 0.48584 0.32209 0.0
H274 H 0.58607 0.45679 0.34623 0.0
H275 H 0.61938 0.46372 0.3634 0.0
H276 H 0.52788 0.37884 0.41095 0.0
H277 H 0.60848 0.40078 0.45854 0.0
H278 H 0.54085 0.3824 0.29054 0.0
H279 H 0.5456 0.41463 0.30968 0.0
H280 H 0.51819 0.38342 0.33369 0.0
H281 H 0.63822 0.40849 0.34521 0.0
H282 H 0.64558 0.41478 0.40656 0.0
H283 H 0.64548 0.44054 0.36967 0.0
C284 C 0.18536 0.59684 0.55689 0.0
C285 C 0.16867 0.60804 0.54685 0.0
C286 C 0.1883 0.59006 0.60278 0.0
C287 C 0.17376 0.5941 0.63921 0.0
C288 C 0.158 0.60669 0.62949 0.0
C289 C 0.15584 0.61371 0.58349 0.0
C290 C 0.20576 0.57722 0.61187 0.0
C291 C 0.14189 0.61105 0.66714 0.0
C292 C 0.14868 0.54412 0.74003 0.0
C293 C 0.16572 0.56003 0.77647 0.0
C294 C 0.15148 0.55489 0.69515 0.0
C295 C 0.17215 0.58217 0.68612 0.0
C296 C 0.19005 0.59812 0.72238 0.0
C297 C 0.18646 0.58692 0.76734 0.0
C298 C 0.13171 0.53727 0.65771 0.0
C299 C 0.21262 0.6271 0.71383 0.0
H300 H 0.19549 0.5926 0.52872 0.0
H301 H 0.14291 0.62238 0.57599 0.0
H302 H 0.21909 0.58679 0.64259 0.0
H303 H 0.19242 0.55517 0.61973 0.0
H304 H 0.2188 0.57918 0.58149 0.0
H305 H 0.13266 0.62329 0.65473 0.0
H306 H 0.1252 0.59094 0.67943 0.0
H307 H 0.15515 0.62157 0.69748 0.0
H308 H 0.13257 0.52334 0.74684 0.0
H309 H 0.19975 0.59926 0.79536 0.0
H310 H 0.14307 0.53561 0.62756 0.0
H311 H 0.11989 0.54686 0.64505 0.0
H312 H 0.11707 0.51632 0.67027 0.0
H313 H 0.22521 0.62782 0.68361 0.0
H314 H 0.22617 0.63598 0.74457 0.0
H315 H 0.20365 0.64013 0.70519 0.0
C316 C 0.6125 0.16495 0.08553 0.0
C317 C 0.60771 0.18035 0.11862 0.0
C318 C 0.60822 0.16691 0.03803 0.0
C319 C 0.59917 0.18495 0.02303 0.0
C320 C 0.59586 0.20178 0.05593 0.0
C321 C 0.60001 0.19917 0.1035 0.0
C322 C 0.61178 0.14841 0.00425 0.0
C323 C 0.58665 0.22157 0.04116 0.0
C324 C 0.60051 0.19457 0.89172 0.0
C325 C 0.57358 0.17508 0.87983 0.0
C326 C 0.60894 0.19912 0.93856 0.0
C327 C 0.59006 0.18351 0.97399 0.0
C328 C 0.56266 0.16443 0.9621 0.0
C329 C 0.55476 0.16059 0.91529 0.0
C330 C 0.6382 0.21993 0.95 0.0
C331 C 0.54192 0.14714 0.99867 0.0
H332 H 0.61861 0.15047 0.0969 0.0
H333 H 0.59646 0.21126 0.12889 0.0
H334 H 0.59157 0.13323 0.98981 0.0
H335 H 0.6249 0.16041 0.97463 0.0
H336 H 0.62105 0.1372 0.02093 0.0
H337 H 0.58888 0.23587 0.06959 0.0
H338 H 0.59856 0.23362 0.01055 0.0
H339 H 0.56482 0.21003 0.03068 0.0
H340 H 0.61509 0.20596 0.86445 0.0
H341 H 0.53388 0.14553 0.9064 0.0
H342 H 0.64906 0.20933 0.96255 0.0
H343 H 0.63892 0.2336 0.97838 0.0
H344 H 0.64937 0.23261 0.91934 0.0
H345 H 0.54832 0.13354 0.01555 0.0
H346 H 0.52112 0.13425 0.98389 0.0
H347 H 0.54083 0.16033 0.02619 0.0
C348 C 0.28148 0.50408 0.07369 0.0
C349 C 0.29437 0.48863 0.067 0.0
C350 C 0.25763 0.49805 0.04932 0.0
C351 C 0.2465 0.47612 0.01711 0.0
C352 C 0.25802 0.45893 0.01334 0.0
C353 C 0.2819 0.46537 0.03851 0.0
C354 C 0.24578 0.51668 0.05518 0.0
C355 C 0.24656 0.43513 0.97998 0.0
C356 C 0.17958 0.46576 0.96874 0.0
C357 C 0.18929 0.48476 0.93218 0.0
C358 C 0.19761 0.46043 0.99449 0.0
C359 C 0.22579 0.47435 0.98303 0.0
C360 C 0.23492 0.491 0.9427 0.0
C361 C 0.21656 0.49609 0.9179 0.0
C362 C 0.18694 0.44215 0.03667 0.0
C363 C 0.2647 0.50585 0.92858 0.0
H364 H 0.29093 0.52191 0.0961 0.0
H365 H 0.29184 0.45337 0.03321 0.0
H366 H 0.24956 0.52907 0.02317 0.0
H367 H 0.22332 0.50453 0.06039 0.0
H368 H 0.25495 0.53084 0.08512 0.0
H369 H 0.25342 0.42034 0.98886 0.0
H370 H 0.22387 0.42426 0.97973 0.0
H371 H 0.25371 0.44283 0.94425 0.0
H372 H 0.15848 0.45695 0.97995 0.0
H373 H 0.22405 0.51059 0.88934 0.0
H374 H 0.19123 0.45496 0.06826 0.0
H375 H 0.19724 0.42992 0.04092 0.0
H376 H 0.16449 0.42807 0.03452 0.0
H377 H 0.27662 0.52268 0.95357 0.0
H378 H 0.26775 0.51479 0.89314 0.0
H379 H 0.27314 0.49184 0.92947 0.0
C380 C 0.79881 0.28147 0.3956 0.0
C381 C 0.78969 0.30011 0.40383 0.0
C382 C 0.78049 0.25466 0.38047 0.0
C383 C 0.75271 0.24673 0.37248 0.0
C384 C 0.74324 0.26507 0.3834 0.0
C385 C 0.76178 0.29135 0.39928 0.0
C386 C 0.79129 0.23548 0.37107 0.0
C387 C 0.71377 0.25761 0.37567 0.0
C388 C 0.70765 0.20231 0.27655 0.0
C389 C 0.68564 0.1824 0.30247 0.0
C390 C 0.7317 0.22179 0.29859 0.0
C391 C 0.73383 0.22097 0.34758 0.0
C392 C 0.71355 0.19827 0.37266 0.0
C393 C 0.68943 0.17925 0.34982 0.0
C394 C 0.75303 0.24532 0.27021 0.0
C395 C 0.71583 0.1958 0.42449 0.0
H396 H 0.82033 0.28803 0.39954 0.0
H397 H 0.75448 0.3055 0.40618 0.0
H398 H 0.77534 0.21381 0.37663 0.0
H399 H 0.79825 0.23784 0.3344 0.0
H400 H 0.80912 0.24035 0.39367 0.0
H401 H 0.70976 0.27418 0.38646 0.0
H402 H 0.70848 0.2532 0.33828 0.0
H403 H 0.69985 0.2389 0.39553 0.0
H404 H 0.70507 0.20443 0.23969 0.0
H405 H 0.67268 0.16357 0.36997 0.0
H406 H 0.77388 0.24984 0.28004 0.0
H407 H 0.75163 0.26392 0.2773 0.0
H408 H 0.75023 0.24106 0.23227 0.0
H409 H 0.70306 0.17428 0.43628 0.0
H410 H 0.70861 0.20836 0.44273 0.0
H411 H 0.7374 0.20338 0.43487 0.0
C412 C 0.52559 0.80832 0.70206 0.0
C413 C 0.50294 0.79978 0.73153 0.0
C414 C 0.53129 0.78912 0.68134 0.0
C415 C 0.514 0.76092 0.69072 0.0
C416 C 0.49279 0.75261 0.72404 0.0
C417 C 0.48743 0.77214 0.7438 0.0
C418 C 0.55425 0.79885 0.64643 0.0
C419 C 0.47414 0.72281 0.7358 0.0
C420 C 0.49222 0.70547 0.60042 0.0
C421 C 0.50473 0.69102 0.61673 0.0
C422 C 0.49718 0.72984 0.6217 0.0
C423 C 0.51473 0.73973 0.66086 0.0
C424 C 0.52925 0.72648 0.67496 0.0
C425 C 0.52417 0.70224 0.65245 0.0
C426 C 0.48169 0.7436 0.60479 0.0
C427 C 0.54823 0.73642 0.71631 0.0
H428 H 0.53762 0.8297 0.69244 0.0
H429 H 0.47006 0.76552 0.76695 0.0
H430 H 0.56525 0.78723 0.64981 0.0
H431 H 0.54563 0.79539 0.61076 0.0
H432 H 0.56914 0.82101 0.65045 0.0
H433 H 0.46102 0.72009 0.76648 0.0
H434 H 0.46065 0.71225 0.70566 0.0
H435 H 0.48624 0.71264 0.74301 0.0
H436 H 0.47734 0.69689 0.57253 0.0
H437 H 0.53376 0.69099 0.66527 0.0
H438 H 0.49558 0.76599 0.60156 0.0
H439 H 0.46559 0.74024 0.63044 0.0
H440 H 0.47173 0.7355 0.5706 0.0
H441 H 0.56065 0.75907 0.71669 0.0
H442 H 0.56218 0.72785 0.71657 0.0
H443 H 0.53593 0.72994 0.74877 0.0
C444 C 0.71214 0.53637 0.02429 0.0
C445 C 0.70095 0.51375 0.0543 0.0
C446 C 0.73746 0.54498 0.00225 0.0
C447 C 0.7515 0.53041 0.0103 0.0
C448 C 0.74153 0.50946 0.04436 0.0
C449 C 0.71644 0.50148 0.06598 0.0
C450 C 0.74786 0.56808 0.96756 0.0
C451 C 0.75587 0.49348 0.05466 0.0
C452 C 0.78476 0.50973 0.91843 0.0
C453 C 0.81158 0.5218 0.93536 0.0
C454 C 0.76546 0.51499 0.93935 0.0
C455 C 0.77326 0.53287 0.97805 0.0
C456 C 0.80118 0.54795 0.99107 0.0
C457 C 0.82013 0.54213 0.96961 0.0
C458 C 0.73602 0.49877 0.9236 0.0
C459 C 0.81055 0.56807 0.03078 0.0
H460 H 0.70031 0.54606 0.01542 0.0
H461 H 0.70804 0.48429 0.08983 0.0
H462 H 0.77056 0.57975 0.96656 0.0
H463 H 0.74042 0.5596 0.93233 0.0
H464 H 0.74022 0.58232 0.9758 0.0
H465 H 0.74677 0.47957 0.08494 0.0
H466 H 0.75448 0.48098 0.02386 0.0
H467 H 0.77787 0.50754 0.06184 0.0
H468 H 0.77823 0.49438 0.8913 0.0
H469 H 0.84095 0.55175 0.9825 0.0
H470 H 0.72699 0.5122 0.92033 0.0
H471 H 0.7239 0.48286 0.94993 0.0
H472 H 0.73397 0.4885 0.88966 0.0
H473 H 0.7989 0.57912 0.03183 0.0
H474 H 0.83274 0.5832 0.0281 0.0
H475 H 0.80702 0.55691 0.06415 0.0
C476 C 0.19404 0.71534 0.39275 0.0
C477 C 0.1872 0.6919 0.36657 0.0
C478 C 0.21455 0.7412 0.37706 0.0
C479 C 0.22811 0.74328 0.33436 0.0
C480 C 0.21889 0.7199 0.30575 0.0
C481 C 0.19876 0.69446 0.3225 0.0
C482 C 0.22354 0.76569 0.40826 0.0
C483 C 0.23237 0.72111 0.2597 0.0
C484 C 0.28446 0.80839 0.27849 0.0
C485 C 0.30758 0.80687 0.29165 0.0
C486 C 0.25823 0.78876 0.29442 0.0
C487 C 0.25536 0.76749 0.3243 0.0
C488 C 0.27897 0.76712 0.33992 0.0
C489 C 0.30467 0.78667 0.32322 0.0
C490 C 0.23359 0.78995 0.27725 0.0
C491 C 0.27705 0.74508 0.37222 0.0
H492 H 0.18503 0.71324 0.42691 0.0
H493 H 0.19317 0.6762 0.30219 0.0
H494 H 0.24211 0.76949 0.42769 0.0
H495 H 0.22886 0.78431 0.38762 0.0
H496 H 0.20742 0.76235 0.43391 0.0
H497 H 0.22007 0.70237 0.23862 0.0
H498 H 0.23557 0.73911 0.2392 0.0
H499 H 0.25275 0.72322 0.26606 0.0
H500 H 0.28672 0.82415 0.25438 0.0
H501 H 0.32258 0.78578 0.33429 0.0
H502 H 0.21842 0.78487 0.30556 0.0
H503 H 0.22347 0.77463 0.24921 0.0
H504 H 0.23934 0.81043 0.26303 0.0
H505 H 0.2644 0.74316 0.40308 0.0
H506 H 0.29746 0.74924 0.38441 0.0
H507 H 0.26699 0.7251 0.35393 0.0
C508 C 0.48279 0.17228 0.65434 0.0
C509 C 0.49257 0.1779 0.70019 0.0
C510 C 0.4772 0.19057 0.63003 0.0
C511 C 0.48207 0.21506 0.65198 0.0
C512 C 0.48825 0.21874 0.7001 0.0
C513 C 0.49319 0.19994 0.72372 0.0
C514 C 0.46898 0.18508 0.57955 0.0
C515 C 0.49327 0.24433 0.72524 0.0
C516 C 0.52222 0.28233 0.58945 0.0
C517 C 0.50364 0.29196 0.5887 0.0
C518 C 0.51475 0.25644 0.60706 0.0
C519 C 0.48774 0.23938 0.62357 0.0
C520 C 0.46809 0.24787 0.61863 0.0
C521 C 0.47636 0.2743 0.60167 0.0
C522 C 0.5365 0.24834 0.61129 0.0
C523 C 0.4388 0.22988 0.63373 0.0
H524 H 0.48178 0.15498 0.63612 0.0
H525 H 0.50016 0.20404 0.75952 0.0
H526 H 0.45527 0.19314 0.57 0.0
H527 H 0.48753 0.19544 0.55737 0.0
H528 H 0.45851 0.16284 0.57174 0.0
H529 H 0.49469 0.24258 0.76352 0.0
H530 H 0.51276 0.26195 0.71279 0.0
H531 H 0.47669 0.24888 0.71778 0.0
H532 H 0.54322 0.29569 0.57867 0.0
H533 H 0.4618 0.2815 0.60064 0.0
H534 H 0.5298 0.22857 0.59353 0.0
H535 H 0.53988 0.24565 0.6485 0.0
H536 H 0.55635 0.26385 0.59602 0.0
H537 H 0.43215 0.20786 0.62989 0.0
H538 H 0.42483 0.23443 0.6133 0.0
H539 H 0.43673 0.23387 0.67088 0.0
C540 C 0.43343 0.47794 0.08311 0.0
C541 C 0.43352 0.49723 0.11377 0.0
C542 C 0.45604 0.47388 0.08053 0.0
C543 C 0.47875 0.4889 0.11037 0.0
C544 C 0.47808 0.50719 0.14331 0.0
C545 C 0.45567 0.51151 0.144 0.0
C546 C 0.45626 0.45467 0.04423 0.0
C547 C 0.5014 0.52286 0.17685 0.0
C548 C 0.52918 0.4634 0.12474 0.0
C549 C 0.55102 0.4818 0.09674 0.0
C550 C 0.50573 0.46575 0.13021 0.0
C551 C 0.50373 0.48645 0.1058 0.0
C552 C 0.52573 0.50503 0.07725 0.0
C553 C 0.54936 0.50276 0.07369 0.0
C554 C 0.48319 0.44619 0.16224 0.0
C555 C 0.5241 0.52699 0.04984 0.0
H556 H 0.41643 0.46724 0.05927 0.0
H557 H 0.45566 0.52644 0.16773 0.0
H558 H 0.47303 0.46637 0.01901 0.0
H559 H 0.4603 0.43926 0.06066 0.0
H560 H 0.43663 0.44382 0.02486 0.0
H561 H 0.49644 0.53406 0.20333 0.0
H562 H 0.50666 0.50874 0.19498 0.0
H563 H 0.51985 0.53787 0.15747 0.0
H564 H 0.53058 0.44728 0.14282 0.0
H565 H 0.56617 0.51681 0.05171 0.0
H566 H 0.46402 0.43399 0.14227 0.0
H567 H 0.47899 0.4578 0.18899 0.0
H568 H 0.48841 0.43193 0.18008 0.0
H569 H 0.50579 0.51759 0.02702 0.0
H570 H 0.54252 0.53912 0.02791 0.0
H571 H 0.52183 0.54111 0.07383 0.0
C572 C 0.94422 0.43978 0.40415 0.0
C573 C 0.92471 0.44132 0.43209 0.0
C574 C 0.97145 0.46139 0.40314 0.0
C575 C 0.97939 0.4846 0.43183 0.0
C576 C 0.95989 0.48568 0.46141 0.0
C577 C 0.93269 0.46421 0.46062 0.0
C578 C 0.99152 0.45977 0.37039 0.0
C579 C 0.96769 0.50963 0.49356 0.0
C580 C 0.05523 0.52965 0.45697 0.0
C581 C 0.06228 0.55198 0.42746 0.0
C582 C 0.02823 0.50781 0.45937 0.0
C583 C 0.00798 0.50795 0.43052 0.0
C584 C 0.01501 0.53051 0.40064 0.0
C585 C 0.04205 0.55247 0.39997 0.0
C586 C 0.0214 0.48458 0.49272 0.0
C587 C 0.99411 0.53115 0.36867 0.0
H588 H 0.93794 0.42218 0.38174 0.0
H589 H 0.91759 0.46532 0.48243 0.0
H590 H 0.9996 0.47713 0.34553 0.0
H591 H 0.00922 0.46153 0.39014 0.0
H592 H 0.98211 0.44035 0.35034 0.0
H593 H 0.95048 0.50651 0.51641 0.0
H594 H 0.98521 0.51304 0.51575 0.0
H595 H 0.97434 0.52851 0.47289 0.0
H596 H 0.07087 0.52931 0.47839 0.0
H597 H 0.04757 0.56961 0.37677 0.0
H598 H 0.01408 0.46523 0.47314 0.0
H599 H 0.00458 0.48174 0.51628 0.0
H600 H 0.03927 0.48816 0.51417 0.0
H601 H 0.9853 0.513 0.34549 0.0
H602 H 0.00302 0.54988 0.3468 0.0
H603 H 0.97703 0.53015 0.38931 0.0
C604 C 0.50697 0.05238 0.76948 0.0
C605 C 0.53139 0.0732 0.75041 0.0
C606 C 0.502 0.02542 0.77237 0.0
C607 C 0.52164 0.01909 0.75465 0.0
C608 C 0.54639 0.04012 0.73556 0.0
C609 C 0.5511 0.06698 0.73418 0.0
C610 C 0.47558 0.00365 0.79377 0.0
C611 C 0.5675 0.0341 0.7152 0.0
C612 C 0.51659 0.95128 0.78751 0.0
C613 C 0.50106 0.93464 0.7505 0.0
C614 C 0.52354 0.97893 0.78947 0.0
C615 C 0.51537 0.99017 0.75291 0.0
C616 C 0.50062 0.97359 0.71463 0.0
C617 C 0.49334 0.94596 0.71424 0.0
C618 C 0.5388 0.99586 0.83127 0.0
C619 C 0.49214 0.9849 0.67433 0.0
H620 H 0.49183 0.0572 0.78247 0.0
H621 H 0.56999 0.08305 0.71929 0.0
H622 H 0.46283 0.98859 0.7668 0.0
H623 H 0.47988 0.99238 0.82103 0.0
H624 H 0.46356 0.01231 0.8095 0.0
H625 H 0.58613 0.05291 0.70328 0.0
H626 H 0.57359 0.02365 0.74128 0.0
H627 H 0.55858 0.02003 0.68514 0.0
H628 H 0.52232 0.94241 0.81575 0.0
H629 H 0.48145 0.9331 0.68544 0.0
H630 H 0.52603 0.00279 0.8496 0.0
H631 H 0.55783 0.01444 0.82012 0.0
H632 H 0.54424 0.98428 0.85619 0.0
H633 H 0.47757 0.99135 0.68654 0.0
H634 H 0.48225 0.96971 0.64595 0.0
H635 H 0.51023 0.00326 0.65987 0.0
C636 C 0.47945 0.52919 0.53896 0.0
C637 C 0.49424 0.55092 0.56975 0.0
C638 C 0.48446 0.50728 0.53609 0.0
C639 C 0.50403 0.50661 0.56605 0.0
C640 C 0.51928 0.52874 0.59687 0.0
C641 C 0.51451 0.55092 0.59778 0.0
C642 C 0.4685 0.48464 0.50155 0.0
C643 C 0.53985 0.52847 0.63013 0.0
C644 C 0.49542 0.43661 0.59238 0.0
C645 C 0.51656 0.43727 0.56589 0.0
C646 C 0.4913 0.45921 0.5932 0.0
C647 C 0.50815 0.48252 0.56563 0.0
C648 C 0.5289 0.48279 0.53758 0.0
C649 C 0.53314 0.46034 0.53869 0.0
C650 C 0.46938 0.45841 0.6244 0.0
C651 C 0.54665 0.50679 0.50648 0.0
H652 H 0.46379 0.52929 0.51722 0.0
H653 H 0.52564 0.56759 0.62204 0.0
H654 H 0.48268 0.48108 0.47981 0.0
H655 H 0.45501 0.46531 0.5203 0.0
H656 H 0.45564 0.48932 0.47832 0.0
H657 H 0.55008 0.54727 0.65173 0.0
H658 H 0.52947 0.51048 0.65354 0.0
H659 H 0.55572 0.52645 0.61065 0.0
H660 H 0.48281 0.41887 0.6138 0.0
H661 H 0.54943 0.46077 0.518 0.0
H662 H 0.45418 0.46072 0.60338 0.0
H663 H 0.47864 0.4758 0.6492 0.0
H664 H 0.4585 0.43905 0.6445 0.0
H665 H 0.53365 0.51108 0.48295 0.0
H666 H 0.56091 0.50316 0.48501 0.0
H667 H 0.55885 0.52538 0.52783 0.0
C668 C 0.06216 0.52897 0.94003 0.0
C669 C 0.06793 0.51227 0.91168 0.0
C670 C 0.03589 0.52576 0.9415 0.0
C671 C 0.01502 0.50581 0.913 0.0
C672 C 0.02079 0.48903 0.88391 0.0
C673 C 0.04716 0.49222 0.88406 0.0
C674 C 0.03041 0.54354 0.97394 0.0
C675 C 0.99918 0.4679 0.85237 0.0
C676 C 0.9411 0.47959 0.94747 0.0
C677 C 0.93412 0.49555 0.91958 0.0
C678 C 0.96741 0.48288 0.94589 0.0
C679 C 0.98701 0.5021 0.91472 0.0
C680 C 0.98001 0.51818 0.88619 0.0
C681 C 0.95369 0.51496 0.88943 0.0
C682 C 0.97428 0.4659 0.97782 0.0
C683 C 0.0002 0.5385 0.85189 0.0
H684 H 0.07819 0.5444 0.96164 0.0
H685 H 0.05168 0.47946 0.86184 0.0
H686 H 0.02349 0.55574 0.9538 0.0
H687 H 0.01372 0.53054 0.99847 0.0
H688 H 0.04878 0.55778 0.99439 0.0
H689 H 0.00724 0.45724 0.83057 0.0
H690 H 0.98185 0.45243 0.8734 0.0
H691 H 0.99092 0.47777 0.82918 0.0
H692 H 0.92599 0.46463 0.97097 0.0
H693 H 0.94819 0.5271 0.8675 0.0
H694 H 0.99204 0.47948 1.0 0.0
H695 H 0.98022 0.45312 0.95706 0.0
H696 H 0.95687 0.45227 0.00072 0.0
H697 H 0.01845 0.55438 0.87056 0.0
H698 H 0.99127 0.54872 0.83112 0.0
H699 H 0.00734 0.52801 0.82776 0.0
C700 C 0.43157 0.95985 0.26458 0.0
C701 C 0.4339 0.94295 0.2314 0.0
C702 C 0.45183 0.98755 0.26839 0.0
C703 C 0.47452 0.99855 0.23766 0.0
C704 C 0.47603 0.98186 0.20239 0.0
C705 C 0.45586 0.95419 0.20004 0.0
C706 C 0.44968 0.00463 0.30676 0.0
C707 C 0.49952 0.99294 0.16823 0.0
C708 C 0.51916 0.07552 0.2249 0.0
C709 C 0.54222 0.08075 0.2512 0.0
C710 C 0.49684 0.04891 0.22049 0.0
C711 C 0.49742 0.02708 0.24361 0.0
C712 C 0.52045 0.03232 0.27094 0.0
C713 C 0.54272 0.05909 0.27404 0.0
C714 C 0.47293 0.04407 0.19031 0.0
C715 C 0.52166 0.00961 0.29661 0.0
H716 H 0.41475 0.95109 0.28917 0.0
H717 H 0.45761 0.94112 0.17425 0.0
H718 H 0.46663 0.01048 0.33191 0.0
H719 H 0.45178 0.02383 0.29238 0.0
H720 H 0.42995 0.99356 0.32583 0.0
H721 H 0.49641 0.97795 0.1405 0.0
H722 H 0.5022 0.01189 0.15168 0.0
H723 H 0.51879 0.99836 0.18685 0.0
H724 H 0.51873 0.09221 0.207 0.0
H725 H 0.56044 0.06311 0.29462 0.0
H726 H 0.45368 0.03391 0.21075 0.0
H727 H 0.47066 0.03015 0.16124 0.0
H728 H 0.47538 0.06335 0.1755 0.0
H729 H 0.50343 0.99855 0.31932 0.0
H730 H 0.54034 0.01731 0.31838 0.0
H731 H 0.52133 0.99458 0.27137 0.0
C732 C 0.45631 0.59056 0.76111 0.0
C733 C 0.43852 0.58927 0.72588 0.0
C734 C 0.44766 0.58489 0.80743 0.0
C735 C 0.42052 0.57778 0.81891 0.0
C736 C 0.4026 0.57709 0.78374 0.0
C737 C 0.41182 0.58281 0.73746 0.0
C738 C 0.46736 0.58569 0.84386 0.0
C739 C 0.37354 0.56965 0.79486 0.0
C740 C 0.3931 0.53301 0.9256 0.0
C741 C 0.39695 0.55207 0.96031 0.0
C742 C 0.39972 0.54101 0.87917 0.0
C743 C 0.41049 0.56881 0.86704 0.0
C744 C 0.4137 0.58808 0.90162 0.0
C745 C 0.40689 0.57946 0.94804 0.0
C746 C 0.39607 0.51984 0.84337 0.0
C747 C 0.42508 0.61788 0.8898 0.0
H748 H 0.47705 0.59571 0.75243 0.0
H749 H 0.39808 0.58199 0.71035 0.0
H750 H 0.46879 0.59916 0.8731 0.0
H751 H 0.45972 0.56489 0.85834 0.0
H752 H 0.48822 0.59314 0.82963 0.0
H753 H 0.36292 0.57218 0.76435 0.0
H754 H 0.36186 0.54806 0.80659 0.0
H755 H 0.37324 0.58251 0.82379 0.0
H756 H 0.38523 0.51174 0.93479 0.0
H757 H 0.40973 0.59421 0.97475 0.0
H758 H 0.41633 0.52458 0.82949 0.0
H759 H 0.38377 0.52028 0.81363 0.0
H760 H 0.38584 0.49881 0.85801 0.0
H761 H 0.44676 0.62696 0.87883 0.0
H762 H 0.42408 0.62978 0.91976 0.0
H763 H 0.41369 0.62001 0.86016 0.0
C764 C 0.81199 0.41241 0.27735 0.0
C765 C 0.83187 0.40538 0.28863 0.0
C766 C 0.80951 0.41974 0.23155 0.0
C767 C 0.82762 0.42044 0.19668 0.0
C768 C 0.8475 0.41307 0.20796 0.0
C769 C 0.84924 0.40548 0.25364 0.0
C770 C 0.78783 0.42711 0.22059 0.0
C771 C 0.8675 0.41395 0.17205 0.0
C772 C 0.81635 0.42187 0.06656 0.0
C773 C 0.8339 0.44959 0.05649 0.0
C774 C 0.81279 0.4122 0.1126 0.0
C775 C 0.82738 0.43069 0.1491 0.0
C776 C 0.84422 0.45885 0.1392 0.0
C777 C 0.84716 0.46794 0.09311 0.0
C778 C 0.79437 0.38208 0.12194 0.0
C779 C 0.86035 0.47921 0.17696 0.0
H780 H 0.79838 0.41215 0.30423 0.0
H781 H 0.86467 0.40008 0.26214 0.0
H782 H 0.79765 0.44898 0.21057 0.0
H783 H 0.77534 0.41495 0.19052 0.0
H784 H 0.77404 0.42353 0.25063 0.0
H785 H 0.8812 0.40683 0.1862 0.0
H786 H 0.85632 0.40098 0.14178 0.0
H787 H 0.88033 0.43517 0.15907 0.0
H788 H 0.80589 0.40763 0.03841 0.0
H789 H 0.86065 0.48945 0.08564 0.0
H790 H 0.78044 0.37897 0.15148 0.0
H791 H 0.80694 0.3728 0.13185 0.0
H792 H 0.7819 0.37106 0.09103 0.0
H793 H 0.87084 0.50064 0.16407 0.0
H794 H 0.87603 0.47476 0.19101 0.0
H795 H 0.84673 0.47744 0.20621 0.0
C796 C 0.41966 0.8265 0.59383 0.0
C797 C 0.44684 0.8372 0.60818 0.0
C798 C 0.41329 0.82648 0.54653 0.0
C799 C 0.43463 0.83741 0.51309 0.0
C800 C 0.4619 0.84687 0.52726 0.0
C801 C 0.46766 0.84663 0.57459 0.0
C802 C 0.38392 0.81605 0.53262 0.0
C803 C 0.48524 0.85866 0.49277 0.0
C804 C 0.41775 0.82652 0.38385 0.0
C805 C 0.41799 0.85076 0.3722 0.0
C806 C 0.42306 0.82174 0.42968 0.0
C807 C 0.42896 0.84181 0.46429 0.0
C808 C 0.42989 0.86658 0.45229 0.0
C809 C 0.4243 0.87069 0.40648 0.0
C810 C 0.42184 0.79508 0.44128 0.0
C811 C 0.43649 0.88867 0.488 0.0
H812 H 0.4035 0.81909 0.61965 0.0
H813 H 0.48872 0.85469 0.58541 0.0
H814 H 0.38143 0.83344 0.52108 0.0
H815 H 0.37826 0.8017 0.50289 0.0
H816 H 0.36949 0.80549 0.56177 0.0
H817 H 0.5048 0.86252 0.50867 0.0
H818 H 0.48054 0.84466 0.46276 0.0
H819 H 0.4881 0.87829 0.47901 0.0
H820 H 0.41263 0.81096 0.3575 0.0
H821 H 0.42454 0.88948 0.3976 0.0
H822 H 0.40556 0.78374 0.46746 0.0
H823 H 0.44145 0.79905 0.45698 0.0
H824 H 0.41762 0.78187 0.41019 0.0
H825 H 0.42116 0.88056 0.51647 0.0
H826 H 0.43672 0.90689 0.47281 0.0
H827 H 0.45679 0.89526 0.50377 0.0
C828 C 0.54451 0.38528 0.7465 0.0
C829 C 0.56407 0.3919 0.71131 0.0
C830 C 0.55233 0.39221 0.79295 0.0
C831 C 0.58043 0.406 0.80463 0.0
C832 C 0.60027 0.41165 0.76964 0.0
C833 C 0.59184 0.4046 0.7232 0.0
C834 C 0.53053 0.38597 0.82913 0.0
C835 C 0.63041 0.42611 0.78096 0.0
C836 C 0.59875 0.45294 0.90866 0.0
C837 C 0.60016 0.43683 0.9445 0.0
C838 C 0.59308 0.44336 0.86284 0.0
C839 C 0.58891 0.41705 0.85241 0.0
C840 C 0.59093 0.40088 0.88818 0.0
C841 C 0.59641 0.41093 0.93402 0.0
C842 C 0.5908 0.46114 0.82583 0.0
C843 C 0.58681 0.37282 0.87815 0.0
H844 H 0.52297 0.37527 0.73762 0.0
H845 H 0.60701 0.40957 0.69615 0.0
H846 H 0.53309 0.37511 0.85917 0.0
H847 H 0.5326 0.40537 0.84243 0.0
H848 H 0.50953 0.37325 0.815 0.0
H849 H 0.64291 0.42613 0.75107 0.0
H850 H 0.63738 0.44762 0.79074 0.0
H851 H 0.63426 0.41628 0.81119 0.0
H852 H 0.60169 0.47302 0.91652 0.0
H853 H 0.59768 0.39851 0.96159 0.0
H854 H 0.5697 0.45086 0.8116 0.0
H855 H 0.60486 0.46418 0.79654 0.0
H856 H 0.59567 0.48151 0.8394 0.0
H857 H 0.5654 0.35897 0.86697 0.0
H858 H 0.59111 0.36372 0.90901 0.0
H859 H 0.6003 0.37389 0.84915 0.0
C860 C 0.17905 0.58044 0.0598 0.0
C861 C 0.1647 0.55282 0.04697 0.0
C862 C 0.18048 0.58817 0.10671 0.0
C863 C 0.1671 0.56775 0.1412 0.0
C864 C 0.1539 0.53983 0.12856 0.0
C865 C 0.15295 0.53273 0.08169 0.0
C866 C 0.19504 0.61816 0.11904 0.0
C867 C 0.13925 0.51741 0.16413 0.0
C868 C 0.17753 0.58346 0.27082 0.0
C869 C 0.15479 0.58625 0.28139 0.0
C870 C 0.18232 0.57812 0.22501 0.0
C871 C 0.16379 0.57532 0.1893 0.0
C872 C 0.14082 0.57813 0.19995 0.0
C873 C 0.13666 0.58362 0.24577 0.0
C874 C 0.20708 0.57538 0.21479 0.0
C875 C 0.12038 0.57499 0.16302 0.0
H876 H 0.18832 0.59603 0.03312 0.0
H877 H 0.14206 0.51129 0.0721 0.0
H878 H 0.17976 0.62422 0.12869 0.0
H879 H 0.20856 0.62221 0.14958 0.0
H880 H 0.2075 0.63123 0.08962 0.0
H881 H 0.13233 0.49677 0.14939 0.0
H882 H 0.15274 0.52054 0.19432 0.0
H883 H 0.12107 0.51799 0.17735 0.0
H884 H 0.19173 0.58575 0.29821 0.0
H885 H 0.11908 0.58583 0.25369 0.0
H886 H 0.21955 0.58991 0.18694 0.0
H887 H 0.20052 0.55448 0.20184 0.0
H888 H 0.22015 0.57931 0.24598 0.0
H889 H 0.13091 0.58969 0.13428 0.0
H890 H 0.10397 0.57843 0.1769 0.0
H891 H 0.11076 0.55412 0.14795 0.0
C892 C 0.5902 0.21238 0.60332 0.0
C893 C 0.59056 0.18934 0.62073 0.0
C894 C 0.59495 0.21924 0.55581 0.0
C895 C 0.60016 0.20264 0.52532 0.0
C896 C 0.60281 0.18077 0.54368 0.0
C897 C 0.59787 0.17435 0.59108 0.0
C898 C 0.59231 0.24295 0.53802 0.0
C899 C 0.60879 0.16277 0.51267 0.0
C900 C 0.57431 0.18544 0.40194 0.0
C901 C 0.59883 0.19798 0.37669 0.0
C902 C 0.57418 0.18902 0.4502 0.0
C903 C 0.59924 0.20532 0.47383 0.0
C904 C 0.62368 0.22024 0.44784 0.0
C905 C 0.62318 0.21643 0.39941 0.0
C906 C 0.54753 0.17328 0.47637 0.0
C907 C 0.65074 0.23825 0.47144 0.0
H908 H 0.58441 0.22398 0.62606 0.0
H909 H 0.59836 0.15664 0.60449 0.0
H910 H 0.60631 0.2533 0.50835 0.0
H911 H 0.57104 0.23527 0.52581 0.0
H912 H 0.59666 0.25822 0.56591 0.0
H913 H 0.61273 0.14833 0.53291 0.0
H914 H 0.59108 0.15072 0.48933 0.0
H915 H 0.62684 0.17543 0.49037 0.0
H916 H 0.55541 0.17136 0.38443 0.0
H917 H 0.64225 0.2262 0.3801 0.0
H918 H 0.54515 0.18673 0.50179 0.0
H919 H 0.54755 0.15641 0.49619 0.0
H920 H 0.52957 0.16432 0.45269 0.0
H921 H 0.66607 0.25325 0.4468 0.0
H922 H 0.65884 0.22533 0.4853 0.0
H923 H 0.64836 0.24946 0.50111 0.0
loop_
_geom_bond_atom_site_label_1
_geom_bond_atom_site_label_2
_geom_bond_distance
_geom_bond_site_symmetry_2
_ccdc_geom_bond_type
In0 O1 2.294 . S
In0 O2 2.326 . S
In0 O6 2.266 . S
In0 O7 2.326 1_554 S
In0 O8 2.266 . S
In0 O9 2.326 . S
In0 O11 2.294 . S
In0 O12 2.326 . S
O1 In0 2.294 . S
O1 C10 1.240 . S
O2 In0 2.326 . S
O2 C10 1.252 . S
C3 O6 1.252 1_556 S
C3 O7 1.260 . S
C4 O11 1.240 . S
C4 O12 1.252 . S
C5 O8 1.252 . S
C5 O9 1.260 . S
O6 In0 2.266 . S
O6 C3 1.252 1_554 S
O7 In0 2.326 1_556 S
O7 C3 1.260 . S
O8 In0 2.266 . S
O8 C5 1.252 . S
O9 In0 2.326 . S
O9 C5 1.260 . S
C10 O1 1.240 . S
C10 O2 1.252 . S
O11 In0 2.294 . S
O11 C4 1.240 . S
O12 In0 2.326 . S
O12 C4 1.252 . S
In13 O14 2.294 . S
In13 O15 2.326 . S
In13 O19 2.266 . S
In13 O20 2.326 . S
In13 O21 2.266 . S
In13 O22 2.326 . S
In13 O24 2.294 . S
In13 O25 2.326 . S
O14 In13 2.294 . S
O14 C23 1.240 . S
O15 In13 2.326 . S
O15 C23 1.252 . S
C16 O19 1.252 . S
C16 O20 1.260 . S
C17 O24 1.240 . S
C17 O25 1.252 . S
C18 O21 1.252 . S
C18 O22 1.260 . S
O19 In13 2.266 . S
O19 C16 1.252 . S
O20 In13 2.326 . S
O20 C16 1.260 . S
O21 In13 2.266 . S
O21 C18 1.252 . S
O22 In13 2.326 . S
O22 C18 1.260 . S
C23 O14 1.240 . S
C23 O15 1.252 . S
O24 In13 2.294 . S
O24 C17 1.240 . S
O25 In13 2.326 . S
O25 C17 1.252 . S
In26 O27 2.294 . S
In26 O28 2.326 . S
In26 O32 2.266 . S
In26 O33 2.326 . S
In26 O34 2.266 . S
In26 O35 2.326 . S
In26 O37 2.294 . S
In26 O38 2.326 . S
O27 In26 2.294 . S
O27 C36 1.240 . S
O28 In26 2.326 . S
O28 C36 1.252 . S
C29 O32 1.252 . S
C29 O33 1.260 . S
C30 O37 1.240 . S
C30 O38 1.252 . S
C31 O34 1.252 . S
C31 O35 1.260 . S
O32 In26 2.266 . S
O32 C29 1.252 . S
O33 In26 2.326 . S
O33 C29 1.260 . S
O34 In26 2.266 . S
O34 C31 1.252 . S
O35 In26 2.326 . S
O35 C31 1.260 . S
C36 O27 1.240 . S
C36 O28 1.252 . S
O37 In26 2.294 . S
O37 C30 1.240 . S
O38 In26 2.326 . S
O38 C30 1.252 . S
In39 O40 2.294 . S
In39 O41 2.326 . S
In39 O45 2.266 . S
In39 O46 2.326 1_554 S
In39 O47 2.266 . S
In39 O48 2.326 . S
In39 O50 2.294 . S
In39 O51 2.326 . S
O40 In39 2.294 . S
O40 C49 1.240 . S
O41 In39 2.326 . S
O41 C49 1.252 . S
C42 O45 1.252 1_556 S
C42 O46 1.260 . S
C43 O50 1.240 . S
C43 O51 1.252 . S
C44 O47 1.252 . S
C44 O48 1.260 . S
O45 In39 2.266 . S
O45 C42 1.252 1_554 S
O46 In39 2.326 1_556 S
O46 C42 1.260 . S
O47 In39 2.266 . S
O47 C44 1.252 . S
O48 In39 2.326 . S
O48 C44 1.260 . S
C49 O40 1.240 . S
C49 O41 1.252 . S
O50 In39 2.294 . S
O50 C43 1.240 . S
O51 In39 2.326 . S
O51 C43 1.252 . S
In52 O53 2.294 . S
In52 O54 2.326 . S
In52 O58 2.266 . S
In52 O59 2.326 . S
In52 O60 2.266 . S
In52 O61 2.326 . S
In52 O63 2.294 . S
In52 O64 2.326 . S
O53 In52 2.294 . S
O53 C62 1.240 . S
O54 In52 2.326 . S
O54 C62 1.252 . S
C55 O58 1.252 . S
C55 O59 1.260 . S
C56 O63 1.240 . S
C56 O64 1.252 . S
C57 O60 1.252 . S
C57 O61 1.260 . S
O58 In52 2.266 . S
O58 C55 1.252 . S
O59 In52 2.326 . S
O59 C55 1.260 . S
O60 In52 2.266 . S
O60 C57 1.252 . S
O61 In52 2.326 . S
O61 C57 1.260 . S
C62 O53 1.240 . S
C62 O54 1.252 . S
O63 In52 2.294 . S
O63 C56 1.240 . S
O64 In52 2.326 . S
O64 C56 1.252 . S
In65 O66 2.294 . S
In65 O67 2.326 . S
In65 O71 2.266 . S
In65 O72 2.326 . S
In65 O73 2.266 . S
In65 O74 2.326 . S
In65 O76 2.294 . S
In65 O77 2.326 . S
O66 In65 2.294 . S
O66 C75 1.240 . S
O67 In65 2.326 . S
O67 C75 1.252 . S
C68 O71 1.252 . S
C68 O72 1.260 . S
C69 O76 1.240 . S
C69 O77 1.252 . S
C70 O73 1.252 . S
C70 O74 1.260 . S
O71 In65 2.266 . S
O71 C68 1.252 . S
O72 In65 2.326 . S
O72 C68 1.260 . S
O73 In65 2.266 . S
O73 C70 1.252 . S
O74 In65 2.326 . S
O74 C70 1.260 . S
C75 O66 1.240 . S
C75 O67 1.252 . S
O76 In65 2.294 . S
O76 C69 1.240 . S
O77 In65 2.326 . S
O77 C69 1.252 . S
In78 O79 2.294 . S
In78 O80 2.326 . S
In78 O84 2.266 . S
In78 O85 2.326 . S
In78 O86 2.266 . S
In78 O87 2.326 . S
In78 O89 2.294 . S
In78 O90 2.326 . S
O79 In78 2.294 . S
O79 C88 1.240 . S
O80 In78 2.326 . S
O80 C88 1.252 . S
C81 O84 1.252 . S
C81 O85 1.260 . S
C82 O89 1.240 . S
C82 O90 1.252 . S
C83 O86 1.252 . S
C83 O87 1.260 . S
O84 In78 2.266 . S
O84 C81 1.252 . S
O85 In78 2.326 . S
O85 C81 1.260 . S
O86 In78 2.266 . S
O86 C83 1.252 . S
O87 In78 2.326 . S
O87 C83 1.260 . S
C88 O79 1.240 . S
C88 O80 1.252 . S
O89 In78 2.294 . S
O89 C82 1.240 . S
O90 In78 2.326 . S
O90 C82 1.252 . S
In91 O92 2.294 . S
In91 O93 2.326 . S
In91 O97 2.266 . S
In91 O98 2.326 1_556 S
In91 O99 2.266 . S
In91 O100 2.326 . S
In91 O102 2.294 . S
In91 O103 2.326 . S
O92 In91 2.294 . S
O92 C101 1.240 . S
O93 In91 2.326 . S
O93 C101 1.252 . S
C94 O97 1.252 1_554 S
C94 O98 1.260 . S
C95 O102 1.240 . S
C95 O103 1.252 . S
C96 O99 1.252 . S
C96 O100 1.260 . S
O97 In91 2.266 . S
O97 C94 1.252 1_556 S
O98 In91 2.326 1_554 S
O98 C94 1.260 . S
O99 In91 2.266 . S
O99 C96 1.252 . S
O100 In91 2.326 . S
O100 C96 1.260 . S
C101 O92 1.240 . S
C101 O93 1.252 . S
O102 In91 2.294 . S
O102 C95 1.240 . S
O103 In91 2.326 . S
O103 C95 1.252 . S
In104 O105 2.294 . S
In104 O106 2.326 . S
In104 O110 2.266 . S
In104 O111 2.326 . S
In104 O112 2.266 . S
In104 O113 2.326 . S
In104 O115 2.294 . S
In104 O116 2.326 . S
O105 In104 2.294 . S
O105 C114 1.240 . S
O106 In104 2.326 . S
O106 C114 1.252 . S
C107 O110 1.252 . S
C107 O111 1.260 . S
C108 O115 1.240 . S
C108 O116 1.252 . S
C109 O112 1.252 . S
C109 O113 1.260 . S
O110 In104 2.266 . S
O110 C107 1.252 . S
O111 In104 2.326 . S
O111 C107 1.260 . S
O112 In104 2.266 . S
O112 C109 1.252 . S
O113 In104 2.326 . S
O113 C109 1.260 . S
C114 O105 1.240 . S
C114 O106 1.252 . S
O115 In104 2.294 . S
O115 C108 1.240 . S
O116 In104 2.326 . S
O116 C108 1.252 . S
In117 O118 2.294 . S
In117 O119 2.326 . S
In117 O123 2.266 . S
In117 O124 2.326 . S
In117 O125 2.266 . S
In117 O126 2.326 . S
In117 O128 2.294 . S
In117 O129 2.326 . S
O118 In117 2.294 . S
O118 C127 1.240 . S
O119 In117 2.326 . S
O119 C127 1.252 . S
C120 O123 1.252 . S
C120 O124 1.260 . S
C121 O128 1.240 . S
C121 O129 1.252 . S
C122 O125 1.252 . S
C122 O126 1.260 . S
O123 In117 2.266 . S
O123 C120 1.252 . S
O124 In117 2.326 . S
O124 C120 1.260 . S
O125 In117 2.266 . S
O125 C122 1.252 . S
O126 In117 2.326 . S
O126 C122 1.260 . S
C127 O118 1.240 . S
C127 O119 1.252 . S
O128 In117 2.294 . S
O128 C121 1.240 . S
O129 In117 2.326 . S
O129 C121 1.252 . S
In130 O131 2.294 . S
In130 O132 2.326 . S
In130 O136 2.266 . S
In130 O137 2.326 . S
In130 O138 2.266 . S
In130 O139 2.326 1_556 S
In130 O141 2.294 . S
In130 O142 2.326 . S
O131 In130 2.294 . S
O131 C140 1.240 . S
O132 In130 2.326 . S
O132 C140 1.252 . S
C133 O136 1.252 . S
C133 O137 1.260 . S
C134 O141 1.240 . S
C134 O142 1.252 . S
C135 O138 1.252 1_554 S
C135 O139 1.260 . S
O136 In130 2.266 . S
O136 C133 1.252 . S
O137 In130 2.326 . S
O137 C133 1.260 . S
O138 In130 2.266 . S
O138 C135 1.252 1_556 S
O139 In130 2.326 1_554 S
O139 C135 1.260 . S
C140 O131 1.240 . S
C140 O132 1.252 . S
O141 In130 2.294 . S
O141 C134 1.240 . S
O142 In130 2.326 . S
O142 C134 1.252 . S
In143 O144 2.294 . S
In143 O145 2.326 . S
In143 O149 2.266 . S
In143 O150 2.326 . S
In143 O151 2.266 . S
In143 O152 2.326 . S
In143 O154 2.294 . S
In143 O155 2.326 . S
O144 In143 2.294 . S
O144 C153 1.240 . S
O145 In143 2.326 . S
O145 C153 1.252 . S
C146 O149 1.252 . S
C146 O150 1.260 . S
C147 O154 1.240 . S
C147 O155 1.252 . S
C148 O151 1.252 . S
C148 O152 1.260 . S
O149 In143 2.266 . S
O149 C146 1.252 . S
O150 In143 2.326 . S
O150 C146 1.260 . S
O151 In143 2.266 . S
O151 C148 1.252 . S
O152 In143 2.326 . S
O152 C148 1.260 . S
C153 O144 1.240 . S
C153 O145 1.252 . S
O154 In143 2.294 . S
O154 C147 1.240 . S
O155 In143 2.326 . S
O155 C147 1.252 . S
C156 C157 1.391 . S
C156 C158 1.394 . S
C156 H172 0.931 . S
C157 C156 1.391 . S
C157 C161 1.376 . S
C158 C156 1.394 . S
C158 C159 1.369 . S
C158 C162 1.531 . S
C159 C158 1.369 . S
C159 C160 1.410 . S
C159 C167 1.503 . S
C160 C159 1.410 . S
C160 C161 1.392 . S
C160 C163 1.511 . S
C161 C157 1.376 . S
C161 C160 1.392 . S
C161 H173 0.929 . S
C162 C158 1.531 . S
C162 H174 0.960 . S
C162 H175 0.962 . S
C162 H176 0.960 . S
C163 C160 1.511 . S
C163 H177 0.961 . S
C163 H178 0.961 . S
C163 H179 0.961 . S
C164 C165 1.370 . S
C164 C166 1.363 . S
C164 H180 0.931 . S
C165 C164 1.370 . S
C165 C169 1.408 . S
C166 C164 1.363 . S
C166 C167 1.370 . S
C166 C170 1.524 . S
C167 C159 1.503 . S
C167 C166 1.370 . S
C167 C168 1.403 . S
C168 C167 1.403 . S
C168 C169 1.404 . S
C168 C171 1.539 . S
C169 C165 1.408 . S
C169 C168 1.404 . S
C169 H181 0.930 . S
C170 C166 1.524 . S
C170 H182 0.956 . S
C170 H183 0.961 . S
C170 H184 0.961 . S
C171 C168 1.539 . S
C171 H185 0.958 . S
C171 H186 0.961 . S
C171 H187 0.960 . S
H172 C156 0.931 . S
H173 C161 0.929 . S
H174 C162 0.960 . S
H175 C162 0.962 . S
H176 C162 0.960 . S
H177 C163 0.961 . S
H178 C163 0.961 . S
H179 C163 0.961 . S
H180 C164 0.931 . S
H181 C169 0.930 . S
H182 C170 0.956 . S
H183 C170 0.961 . S
H184 C170 0.961 . S
H185 C171 0.958 . S
H186 C171 0.961 . S
H187 C171 0.960 . S
C188 C189 1.391 . S
C188 C190 1.394 . S
C188 H204 0.931 . S
C189 C188 1.391 . S
C189 C193 1.376 . S
C190 C188 1.394 . S
C190 C191 1.369 . S
C190 C194 1.531 . S
C191 C190 1.369 . S
C191 C192 1.410 . S
C191 C199 1.503 . S
C192 C191 1.410 . S
C192 C193 1.392 . S
C192 C195 1.511 . S
C193 C189 1.376 . S
C193 C192 1.392 . S
C193 H205 0.929 . S
C194 C190 1.531 . S
C194 H206 0.960 . S
C194 H207 0.962 . S
C194 H208 0.960 . S
C195 C192 1.511 . S
C195 H209 0.961 . S
C195 H210 0.961 . S
C195 H211 0.961 . S
C196 C197 1.370 . S
C196 C198 1.363 . S
C196 H212 0.931 . S
C197 C196 1.370 . S
C197 C201 1.408 . S
C198 C196 1.363 . S
C198 C199 1.370 . S
C198 C202 1.524 . S
C199 C191 1.503 . S
C199 C198 1.370 . S
C199 C200 1.403 . S
C200 C199 1.403 . S
C200 C201 1.404 . S
C200 C203 1.539 . S
C201 C197 1.408 . S
C201 C200 1.404 . S
C201 H213 0.930 . S
C202 C198 1.524 . S
C202 H214 0.956 . S
C202 H215 0.961 . S
C202 H216 0.961 . S
C203 C200 1.539 . S
C203 H217 0.958 . S
C203 H218 0.961 . S
C203 H219 0.960 . S
H204 C188 0.931 . S
H205 C193 0.929 . S
H206 C194 0.960 . S
H207 C194 0.962 . S
H208 C194 0.960 . S
H209 C195 0.961 . S
H210 C195 0.961 . S
H211 C195 0.961 . S
H212 C196 0.931 . S
H213 C201 0.930 . S
H214 C202 0.956 . S
H215 C202 0.961 . S
H216 C202 0.961 . S
H217 C203 0.958 . S
H218 C203 0.961 . S
H219 C203 0.960 . S
C220 C221 1.391 . S
C220 C222 1.394 . S
C220 H236 0.931 . S
C221 C220 1.391 . S
C221 C225 1.376 . S
C222 C220 1.394 . S
C222 C223 1.369 . S
C222 C226 1.531 . S
C223 C222 1.369 . S
C223 C224 1.410 . S
C223 C231 1.503 1_556 S
C224 C223 1.410 . S
C224 C225 1.392 . S
C224 C227 1.511 . S
C225 C221 1.376 . S
C225 C224 1.392 . S
C225 H237 0.929 . S
C226 C222 1.531 . S
C226 H238 0.947 1_556 S
C226 H239 0.962 . S
C226 H240 0.960 . S
C227 C224 1.511 . S
C227 H241 0.961 . S
C227 H242 0.961 1_556 S
C227 H243 0.961 . S
C228 C229 1.370 . S
C228 C230 1.363 . S
C228 H244 0.931 . S
C229 C228 1.370 . S
C229 C233 1.408 . S
C230 C228 1.363 . S
C230 C231 1.370 . S
C230 C234 1.524 . S
C231 C223 1.503 1_554 S
C231 C230 1.370 . S
C231 C232 1.403 . S
C232 C231 1.403 . S
C232 C233 1.404 . S
C232 C235 1.539 . S
C233 C229 1.408 . S
C233 C232 1.404 . S
C233 H245 0.930 . S
C234 C230 1.524 . S
C234 H246 0.956 . S
C234 H247 0.958 1_554 S
C234 H248 0.961 . S
C235 C232 1.539 . S
C235 H249 0.958 . S
C235 H250 0.961 . S
C235 H251 0.945 1_554 S
H236 C220 0.931 . S
H237 C225 0.929 . S
H238 C226 0.947 1_554 S
H239 C226 0.962 . S
H240 C226 0.960 . S
H241 C227 0.961 . S
H242 C227 0.961 1_554 S
H243 C227 0.961 . S
H244 C228 0.931 . S
H245 C233 0.930 . S
H246 C234 0.956 . S
H247 C234 0.958 1_556 S
H248 C234 0.961 . S
H249 C235 0.958 . S
H250 C235 0.961 . S
H251 C235 0.945 1_556 S
C252 C253 1.391 . S
C252 C254 1.394 . S
C252 H268 0.931 . S
C253 C252 1.391 . S
C253 C257 1.376 . S
C254 C252 1.394 . S
C254 C255 1.369 . S
C254 C258 1.531 . S
C255 C254 1.369 . S
C255 C256 1.410 . S
C255 C263 1.503 . S
C256 C255 1.410 . S
C256 C257 1.392 . S
C256 C259 1.511 . S
C257 C253 1.376 . S
C257 C256 1.392 . S
C257 H269 0.929 . S
C258 C254 1.531 . S
C258 H270 0.960 . S
C258 H271 0.962 . S
C258 H272 0.960 . S
C259 C256 1.511 . S
C259 H273 0.961 . S
C259 H274 0.961 . S
C259 H275 0.961 . S
C260 C261 1.370 . S
C260 C262 1.363 . S
C260 H276 0.931 . S
C261 C260 1.370 . S
C261 C265 1.408 . S
C262 C260 1.363 . S
C262 C263 1.370 . S
C262 C266 1.524 . S
C263 C255 1.503 . S
C263 C262 1.370 . S
C263 C264 1.403 . S
C264 C263 1.403 . S
C264 C265 1.404 . S
C264 C267 1.539 . S
C265 C261 1.408 . S
C265 C264 1.404 . S
C265 H277 0.930 . S
C266 C262 1.524 . S
C266 H278 0.956 . S
C266 H279 0.961 . S
C266 H280 0.961 . S
C267 C264 1.539 . S
C267 H281 0.958 . S
C267 H282 0.961 . S
C267 H283 0.960 . S
H268 C252 0.931 . S
H269 C257 0.929 . S
H270 C258 0.960 . S
H271 C258 0.962 . S
H272 C258 0.960 . S
H273 C259 0.961 . S
H274 C259 0.961 . S
H275 C259 0.961 . S
H276 C260 0.931 . S
H277 C265 0.930 . S
H278 C266 0.956 . S
H279 C266 0.961 . S
H280 C266 0.961 . S
H281 C267 0.958 . S
H282 C267 0.961 . S
H283 C267 0.960 . S
C284 C285 1.391 . S
C284 C286 1.394 . S
C284 H300 0.931 . S
C285 C284 1.391 . S
C285 C289 1.376 . S
C286 C284 1.394 . S
C286 C287 1.369 . S
C286 C290 1.531 . S
C287 C286 1.369 . S
C287 C288 1.410 . S
C287 C295 1.503 . S
C288 C287 1.410 . S
C288 C289 1.392 . S
C288 C291 1.511 . S
C289 C285 1.376 . S
C289 C288 1.392 . S
C289 H301 0.929 . S
C290 C286 1.531 . S
C290 H302 0.960 . S
C290 H303 0.962 . S
C290 H304 0.960 . S
C291 C288 1.511 . S
C291 H305 0.961 . S
C291 H306 0.961 . S
C291 H307 0.961 . S
C292 C293 1.370 . S
C292 C294 1.363 . S
C292 H308 0.931 . S
C293 C292 1.370 . S
C293 C297 1.408 . S
C294 C292 1.363 . S
C294 C295 1.370 . S
C294 C298 1.524 . S
C295 C287 1.503 . S
C295 C294 1.370 . S
C295 C296 1.403 . S
C296 C295 1.403 . S
C296 C297 1.404 . S
C296 C299 1.539 . S
C297 C293 1.408 . S
C297 C296 1.404 . S
C297 H309 0.930 . S
C298 C294 1.524 . S
C298 H310 0.956 . S
C298 H311 0.961 . S
C298 H312 0.961 . S
C299 C296 1.539 . S
C299 H313 0.958 . S
C299 H314 0.961 . S
C299 H315 0.960 . S
H300 C284 0.931 . S
H301 C289 0.929 . S
H302 C290 0.960 . S
H303 C290 0.962 . S
H304 C290 0.960 . S
H305 C291 0.961 . S
H306 C291 0.961 . S
H307 C291 0.961 . S
H308 C292 0.931 . S
H309 C297 0.930 . S
H310 C298 0.956 . S
H311 C298 0.961 . S
H312 C298 0.961 . S
H313 C299 0.958 . S
H314 C299 0.961 . S
H315 C299 0.960 . S
C316 C317 1.391 . S
C316 C318 1.394 . S
C316 H332 0.931 . S
C317 C316 1.391 . S
C317 C321 1.376 . S
C318 C316 1.394 . S
C318 C319 1.369 . S
C318 C322 1.531 . S
C319 C318 1.369 . S
C319 C320 1.410 . S
C319 C327 1.503 1_554 S
C320 C319 1.410 . S
C320 C321 1.392 . S
C320 C323 1.511 . S
C321 C317 1.376 . S
C321 C320 1.392 . S
C321 H333 0.929 . S
C322 C318 1.531 . S
C322 H334 0.960 1_554 S
C322 H335 0.962 . S
C322 H336 0.960 . S
C323 C320 1.511 . S
C323 H337 0.961 . S
C323 H338 0.961 1_554 S
C323 H339 0.961 . S
C324 C325 1.370 . S
C324 C326 1.363 . S
C324 H340 0.931 . S
C325 C324 1.370 . S
C325 C329 1.408 . S
C326 C324 1.363 . S
C326 C327 1.370 . S
C326 C330 1.524 . S
C327 C319 1.503 1_556 S
C327 C326 1.370 . S
C327 C328 1.403 . S
C328 C327 1.403 . S
C328 C329 1.404 . S
C328 C331 1.539 . S
C329 C325 1.408 . S
C329 C328 1.404 . S
C329 H341 0.930 . S
C330 C326 1.524 . S
C330 H342 0.956 . S
C330 H343 0.961 1_556 S
C330 H344 0.961 . S
C331 C328 1.539 . S
C331 H345 0.958 . S
C331 H346 0.961 . S
C331 H347 0.960 1_556 S
H332 C316 0.931 . S
H333 C321 0.929 . S
H334 C322 0.960 1_556 S
H335 C322 0.962 . S
H336 C322 0.960 . S
H337 C323 0.961 . S
H338 C323 0.961 1_556 S
H339 C323 0.961 . S
H340 C324 0.931 . S
H341 C329 0.930 . S
H342 C330 0.956 . S
H343 C330 0.961 1_554 S
H344 C330 0.961 . S
H345 C331 0.958 . S
H346 C331 0.961 . S
H347 C331 0.960 1_554 S
C348 C349 1.391 . S
C348 C350 1.394 . S
C348 H364 0.931 . S
C349 C348 1.391 . S
C349 C353 1.376 . S
C350 C348 1.394 . S
C350 C351 1.368 1_554 S
C350 C354 1.531 1_554 S
C351 C350 1.368 1_556 S
C351 C352 1.409 1_556 S
C351 C359 1.505 . S
C352 C351 1.409 1_554 S
C352 C353 1.392 . S
C352 C355 1.511 1_554 S
C353 C349 1.376 . S
C353 C352 1.392 . S
C353 H365 0.929 . S
C354 C350 1.531 1_556 S
C354 H366 0.960 . S
C354 H367 0.962 1_556 S
C354 H368 0.960 . S
C355 C352 1.511 1_556 S
C355 H369 0.961 1_556 S
C355 H370 0.961 1_556 S
C355 H371 0.961 . S
C356 C357 1.370 . S
C356 C358 1.363 1_556 S
C356 H372 0.931 1_556 S
C357 C356 1.370 . S
C357 C361 1.408 . S
C358 C356 1.363 1_554 S
C358 C359 1.370 1_554 S
C358 C362 1.524 . S
C359 C351 1.505 . S
C359 C358 1.370 1_556 S
C359 C360 1.403 . S
C360 C359 1.403 . S
C360 C361 1.404 . S
C360 C363 1.539 . S
C361 C357 1.408 . S
C361 C360 1.404 . S
C361 H373 0.930 . S
C362 C358 1.524 . S
C362 H374 0.956 . S
C362 H375 0.961 . S
C362 H376 0.961 . S
C363 C360 1.539 . S
C363 H377 0.958 . S
C363 H378 0.961 . S
C363 H379 0.960 . S
H364 C348 0.931 . S
H365 C353 0.929 . S
H366 C354 0.960 . S
H367 C354 0.962 1_554 S
H368 C354 0.960 . S
H369 C355 0.961 1_554 S
H370 C355 0.961 1_554 S
H371 C355 0.961 . S
H372 C356 0.931 1_554 S
H373 C361 0.930 . S
H374 C362 0.956 . S
H375 C362 0.961 . S
H376 C362 0.961 . S
H377 C363 0.958 . S
H378 C363 0.961 . S
H379 C363 0.960 . S
C380 C381 1.391 . S
C380 C382 1.394 . S
C380 H396 0.931 . S
C381 C380 1.391 . S
C381 C385 1.376 . S
C382 C380 1.394 . S
C382 C383 1.369 . S
C382 C386 1.531 . S
C383 C382 1.369 . S
C383 C384 1.410 . S
C383 C391 1.503 . S
C384 C383 1.410 . S
C384 C385 1.392 . S
C384 C387 1.511 . S
C385 C381 1.376 . S
C385 C384 1.392 . S
C385 H397 0.929 . S
C386 C382 1.531 . S
C386 H398 0.960 . S
C386 H399 0.962 . S
C386 H400 0.960 . S
C387 C384 1.511 . S
C387 H401 0.961 . S
C387 H402 0.961 . S
C387 H403 0.961 . S
C388 C389 1.370 . S
C388 C390 1.363 . S
C388 H404 0.931 . S
C389 C388 1.370 . S
C389 C393 1.408 . S
C390 C388 1.363 . S
C390 C391 1.370 . S
C390 C394 1.524 . S
C391 C383 1.503 . S
C391 C390 1.370 . S
C391 C392 1.403 . S
C392 C391 1.403 . S
C392 C393 1.404 . S
C392 C395 1.539 . S
C393 C389 1.408 . S
C393 C392 1.404 . S
C393 H405 0.930 . S
C394 C390 1.524 . S
C394 H406 0.956 . S
C394 H407 0.961 . S
C394 H408 0.961 . S
C395 C392 1.539 . S
C395 H409 0.958 . S
C395 H410 0.961 . S
C395 H411 0.960 . S
H396 C380 0.931 . S
H397 C385 0.929 . S
H398 C386 0.960 . S
H399 C386 0.962 . S
H400 C386 0.960 . S
H401 C387 0.961 . S
H402 C387 0.961 . S
H403 C387 0.961 . S
H404 C388 0.931 . S
H405 C393 0.930 . S
H406 C394 0.956 . S
H407 C394 0.961 . S
H408 C394 0.961 . S
H409 C395 0.958 . S
H410 C395 0.961 . S
H411 C395 0.960 . S
C412 C413 1.391 . S
C412 C414 1.394 . S
C412 H428 0.931 . S
C413 C412 1.391 . S
C413 C417 1.376 . S
C414 C412 1.394 . S
C414 C415 1.369 . S
C414 C418 1.531 . S
C415 C414 1.369 . S
C415 C416 1.410 . S
C415 C423 1.503 . S
C416 C415 1.410 . S
C416 C417 1.392 . S
C416 C419 1.511 . S
C417 C413 1.376 . S
C417 C416 1.392 . S
C417 H429 0.929 . S
C418 C414 1.531 . S
C418 H430 0.960 . S
C418 H431 0.962 . S
C418 H432 0.960 . S
C419 C416 1.511 . S
C419 H433 0.961 . S
C419 H434 0.961 . S
C419 H435 0.961 . S
C420 C421 1.370 . S
C420 C422 1.363 . S
C420 H436 0.931 . S
C421 C420 1.370 . S
C421 C425 1.408 . S
C422 C420 1.363 . S
C422 C423 1.370 . S
C422 C426 1.524 . S
C423 C415 1.503 . S
C423 C422 1.370 . S
C423 C424 1.403 . S
C424 C423 1.403 . S
C424 C425 1.404 . S
C424 C427 1.539 . S
C425 C421 1.408 . S
C425 C424 1.404 . S
C425 H437 0.930 . S
C426 C422 1.524 . S
C426 H438 0.956 . S
C426 H439 0.961 . S
C426 H440 0.961 . S
C427 C424 1.539 . S
C427 H441 0.958 . S
C427 H442 0.961 . S
C427 H443 0.960 . S
H428 C412 0.931 . S
H429 C417 0.929 . S
H430 C418 0.960 . S
H431 C418 0.962 . S
H432 C418 0.960 . S
H433 C419 0.961 . S
H434 C419 0.961 . S
H435 C419 0.961 . S
H436 C420 0.931 . S
H437 C425 0.930 . S
H438 C426 0.956 . S
H439 C426 0.961 . S
H440 C426 0.961 . S
H441 C427 0.958 . S
H442 C427 0.961 . S
H443 C427 0.960 . S
C444 C445 1.391 . S
C444 C446 1.394 . S
C444 H460 0.931 . S
C445 C444 1.391 . S
C445 C449 1.376 . S
C446 C444 1.394 . S
C446 C447 1.369 . S
C446 C450 1.531 1_554 S
C447 C446 1.369 . S
C447 C448 1.410 . S
C447 C455 1.503 1_554 S
C448 C447 1.410 . S
C448 C449 1.392 . S
C448 C451 1.511 . S
C449 C445 1.376 . S
C449 C448 1.392 . S
C449 H461 0.929 . S
C450 C446 1.531 1_556 S
C450 H462 0.960 . S
C450 H463 0.962 . S
C450 H464 0.960 . S
C451 C448 1.511 . S
C451 H465 0.961 . S
C451 H466 0.961 . S
C451 H467 0.961 . S
C452 C453 1.370 . S
C452 C454 1.363 . S
C452 H468 0.931 . S
C453 C452 1.370 . S
C453 C457 1.408 . S
C454 C452 1.363 . S
C454 C455 1.370 . S
C454 C458 1.524 . S
C455 C447 1.503 1_556 S
C455 C454 1.370 . S
C455 C456 1.403 1_556 S
C456 C455 1.403 1_554 S
C456 C457 1.404 1_554 S
C456 C459 1.539 . S
C457 C453 1.408 . S
C457 C456 1.404 1_556 S
C457 H469 0.930 1_556 S
C458 C454 1.524 . S
C458 H470 0.956 . S
C458 H471 0.961 . S
C458 H472 0.961 . S
C459 C456 1.539 . S
C459 H473 0.958 . S
C459 H474 0.961 . S
C459 H475 0.960 . S
H460 C444 0.931 . S
H461 C449 0.929 . S
H462 C450 0.960 . S
H463 C450 0.962 . S
H464 C450 0.960 . S
H465 C451 0.961 . S
H466 C451 0.961 . S
H467 C451 0.961 . S
H468 C452 0.931 . S
H469 C457 0.930 1_554 S
H470 C458 0.956 . S
H471 C458 0.961 . S
H472 C458 0.961 . S
H473 C459 0.958 . S
H474 C459 0.961 . S
H475 C459 0.960 . S
C476 C477 1.391 . S
C476 C478 1.394 . S
C476 H492 0.931 . S
C477 C476 1.391 . S
C477 C481 1.376 . S
C478 C476 1.394 . S
C478 C479 1.369 . S
C478 C482 1.531 . S
C479 C478 1.369 . S
C479 C480 1.410 . S
C479 C487 1.503 . S
C480 C479 1.410 . S
C480 C481 1.392 . S
C480 C483 1.511 . S
C481 C477 1.376 . S
C481 C480 1.392 . S
C481 H493 0.929 . S
C482 C478 1.531 . S
C482 H494 0.960 . S
C482 H495 0.962 . S
C482 H496 0.960 . S
C483 C480 1.511 . S
C483 H497 0.961 . S
C483 H498 0.961 . S
C483 H499 0.961 . S
C484 C485 1.370 . S
C484 C486 1.363 . S
C484 H500 0.931 . S
C485 C484 1.370 . S
C485 C489 1.408 . S
C486 C484 1.363 . S
C486 C487 1.370 . S
C486 C490 1.524 . S
C487 C479 1.503 . S
C487 C486 1.370 . S
C487 C488 1.403 . S
C488 C487 1.403 . S
C488 C489 1.404 . S
C488 C491 1.539 . S
C489 C485 1.408 . S
C489 C488 1.404 . S
C489 H501 0.930 . S
C490 C486 1.524 . S
C490 H502 0.956 . S
C490 H503 0.961 . S
C490 H504 0.961 . S
C491 C488 1.539 . S
C491 H505 0.958 . S
C491 H506 0.961 . S
C491 H507 0.960 . S
H492 C476 0.931 . S
H493 C481 0.929 . S
H494 C482 0.960 . S
H495 C482 0.962 . S
H496 C482 0.960 . S
H497 C483 0.961 . S
H498 C483 0.961 . S
H499 C483 0.961 . S
H500 C484 0.931 . S
H501 C489 0.930 . S
H502 C490 0.956 . S
H503 C490 0.961 . S
H504 C490 0.961 . S
H505 C491 0.958 . S
H506 C491 0.961 . S
H507 C491 0.960 . S
C508 C509 1.391 . S
C508 C510 1.394 . S
C508 H524 0.931 . S
C509 C508 1.391 . S
C509 C513 1.376 . S
C510 C508 1.394 . S
C510 C511 1.369 . S
C510 C514 1.531 . S
C511 C510 1.369 . S
C511 C512 1.410 . S
C511 C519 1.503 . S
C512 C511 1.410 . S
C512 C513 1.392 . S
C512 C515 1.511 . S
C513 C509 1.376 . S
C513 C512 1.392 . S
C513 H525 0.929 . S
C514 C510 1.531 . S
C514 H526 0.960 . S
C514 H527 0.962 . S
C514 H528 0.960 . S
C515 C512 1.511 . S
C515 H529 0.961 . S
C515 H530 0.961 . S
C515 H531 0.961 . S
C516 C517 1.370 . S
C516 C518 1.363 . S
C516 H532 0.931 . S
C517 C516 1.370 . S
C517 C521 1.408 . S
C518 C516 1.363 . S
C518 C519 1.370 . S
C518 C522 1.524 . S
C519 C511 1.503 . S
C519 C518 1.370 . S
C519 C520 1.403 . S
C520 C519 1.403 . S
C520 C521 1.404 . S
C520 C523 1.539 . S
C521 C517 1.408 . S
C521 C520 1.404 . S
C521 H533 0.930 . S
C522 C518 1.524 . S
C522 H534 0.956 . S
C522 H535 0.961 . S
C522 H536 0.961 . S
C523 C520 1.539 . S
C523 H537 0.958 . S
C523 H538 0.961 . S
C523 H539 0.960 . S
H524 C508 0.931 . S
H525 C513 0.929 . S
H526 C514 0.960 . S
H527 C514 0.962 . S
H528 C514 0.960 . S
H529 C515 0.961 . S
H530 C515 0.961 . S
H531 C515 0.961 . S
H532 C516 0.931 . S
H533 C521 0.930 . S
H534 C522 0.956 . S
H535 C522 0.961 . S
H536 C522 0.961 . S
H537 C523 0.958 . S
H538 C523 0.961 . S
H539 C523 0.960 . S
C540 C541 1.391 . S
C540 C542 1.394 . S
C540 H556 0.931 . S
C541 C540 1.391 . S
C541 C545 1.376 . S
C542 C540 1.394 . S
C542 C543 1.369 . S
C542 C546 1.531 . S
C543 C542 1.369 . S
C543 C544 1.410 . S
C543 C551 1.503 . S
C544 C543 1.410 . S
C544 C545 1.392 . S
C544 C547 1.511 . S
C545 C541 1.376 . S
C545 C544 1.392 . S
C545 H557 0.929 . S
C546 C542 1.531 . S
C546 H558 0.960 . S
C546 H559 0.962 . S
C546 H560 0.960 1_554 S
C547 C544 1.511 . S
C547 H561 0.961 . S
C547 H562 0.961 . S
C547 H563 0.961 . S
C548 C549 1.370 . S
C548 C550 1.363 . S
C548 H564 0.931 . S
C549 C548 1.370 . S
C549 C553 1.408 . S
C550 C548 1.363 . S
C550 C551 1.370 . S
C550 C554 1.524 . S
C551 C543 1.503 . S
C551 C550 1.370 . S
C551 C552 1.403 . S
C552 C551 1.403 . S
C552 C553 1.404 . S
C552 C555 1.539 . S
C553 C549 1.408 . S
C553 C552 1.404 . S
C553 H565 0.930 . S
C554 C550 1.524 . S
C554 H566 0.956 . S
C554 H567 0.961 . S
C554 H568 0.961 . S
C555 C552 1.539 . S
C555 H569 0.958 . S
C555 H570 0.961 . S
C555 H571 0.960 . S
H556 C540 0.931 . S
H557 C545 0.929 . S
H558 C546 0.960 . S
H559 C546 0.962 . S
H560 C546 0.960 1_556 S
H561 C547 0.961 . S
H562 C547 0.961 . S
H563 C547 0.961 . S
H564 C548 0.931 . S
H565 C553 0.930 . S
H566 C554 0.956 . S
H567 C554 0.961 . S
H568 C554 0.961 . S
H569 C555 0.958 . S
H570 C555 0.961 . S
H571 C555 0.960 . S
C572 C573 1.391 . S
C572 C574 1.394 . S
C572 H588 0.931 . S
C573 C572 1.391 . S
C573 C577 1.376 . S
C574 C572 1.394 . S
C574 C575 1.369 . S
C574 C578 1.527 . S
C575 C574 1.369 . S
C575 C576 1.410 . S
C575 C583 1.503 1_655 S
C576 C575 1.410 . S
C576 C577 1.392 . S
C576 C579 1.511 . S
C577 C573 1.376 . S
C577 C576 1.392 . S
C577 H589 0.929 . S
C578 C574 1.527 . S
C578 H590 0.961 1_655 S
C578 H591 0.965 1_655 S
C578 H592 0.960 . S
C579 C576 1.511 . S
C579 H593 0.961 . S
C579 H594 0.961 . S
C579 H595 0.961 . S
C580 C581 1.370 . S
C580 C582 1.363 . S
C580 H596 0.931 . S
C581 C580 1.370 . S
C581 C585 1.408 . S
C582 C580 1.363 . S
C582 C583 1.370 . S
C582 C586 1.524 . S
C583 C575 1.503 1_455 S
C583 C582 1.370 . S
C583 C584 1.403 . S
C584 C583 1.403 . S
C584 C585 1.404 . S
C584 C587 1.539 . S
C585 C581 1.408 . S
C585 C584 1.404 . S
C585 H597 0.930 . S
C586 C582 1.524 . S
C586 H598 0.956 . S
C586 H599 0.961 . S
C586 H600 0.961 . S
C587 C584 1.539 . S
C587 H601 0.958 . S
C587 H602 0.961 . S
C587 H603 0.960 1_455 S
H588 C572 0.931 . S
H589 C577 0.929 . S
H590 C578 0.961 1_455 S
H591 C578 0.965 1_455 S
H592 C578 0.960 . S
H593 C579 0.961 . S
H594 C579 0.961 . S
H595 C579 0.961 . S
H596 C580 0.931 . S
H597 C585 0.930 . S
H598 C586 0.956 . S
H599 C586 0.961 . S
H600 C586 0.961 . S
H601 C587 0.958 . S
H602 C587 0.961 . S
H603 C587 0.960 1_655 S
C604 C605 1.391 . S
C604 C606 1.394 . S
C604 H620 0.931 . S
C605 C604 1.391 . S
C605 C609 1.376 . S
C606 C604 1.394 . S
C606 C607 1.369 . S
C606 C610 1.531 1_545 S
C607 C606 1.369 . S
C607 C608 1.410 . S
C607 C615 1.503 1_545 S
C608 C607 1.410 . S
C608 C609 1.392 . S
C608 C611 1.511 . S
C609 C605 1.376 . S
C609 C608 1.392 . S
C609 H621 0.929 . S
C610 C606 1.531 1_565 S
C610 H622 0.960 . S
C610 H623 0.962 . S
C610 H624 0.960 1_565 S
C611 C608 1.511 . S
C611 H625 0.961 . S
C611 H626 0.961 . S
C611 H627 0.961 . S
C612 C613 1.370 . S
C612 C614 1.363 . S
C612 H628 0.931 . S
C613 C612 1.370 . S
C613 C617 1.408 . S
C614 C612 1.363 . S
C614 C615 1.370 . S
C614 C618 1.524 . S
C615 C607 1.503 1_565 S
C615 C614 1.370 . S
C615 C616 1.403 . S
C616 C615 1.403 . S
C616 C617 1.404 . S
C616 C619 1.539 . S
C617 C613 1.408 . S
C617 C616 1.404 . S
C617 H629 0.930 . S
C618 C614 1.524 . S
C618 H630 0.956 . S
C618 H631 0.961 1_565 S
C618 H632 0.961 . S
C619 C616 1.539 . S
C619 H633 0.958 . S
C619 H634 0.961 . S
C619 H635 0.960 . S
H620 C604 0.931 . S
H621 C609 0.929 . S
H622 C610 0.960 . S
H623 C610 0.962 . S
H624 C610 0.960 1_545 S
H625 C611 0.961 . S
H626 C611 0.961 . S
H627 C611 0.961 . S
H628 C612 0.931 . S
H629 C617 0.930 . S
H630 C618 0.956 . S
H631 C618 0.961 1_545 S
H632 C618 0.961 . S
H633 C619 0.958 . S
H634 C619 0.961 . S
H635 C619 0.960 . S
C636 C637 1.391 . S
C636 C638 1.394 . S
C636 H652 0.931 . S
C637 C636 1.391 . S
C637 C641 1.376 . S
C638 C636 1.394 . S
C638 C639 1.369 . S
C638 C642 1.531 . S
C639 C638 1.369 . S
C639 C640 1.410 . S
C639 C647 1.503 . S
C640 C639 1.410 . S
C640 C641 1.392 . S
C640 C643 1.511 . S
C641 C637 1.376 . S
C641 C640 1.392 . S
C641 H653 0.929 . S
C642 C638 1.531 . S
C642 H654 0.960 . S
C642 H655 0.962 . S
C642 H656 0.960 . S
C643 C640 1.511 . S
C643 H657 0.961 . S
C643 H658 0.961 . S
C643 H659 0.961 . S
C644 C645 1.370 . S
C644 C646 1.363 . S
C644 H660 0.931 . S
C645 C644 1.370 . S
C645 C649 1.408 . S
C646 C644 1.363 . S
C646 C647 1.370 . S
C646 C650 1.524 . S
C647 C639 1.503 . S
C647 C646 1.370 . S
C647 C648 1.403 . S
C648 C647 1.403 . S
C648 C649 1.404 . S
C648 C651 1.539 . S
C649 C645 1.408 . S
C649 C648 1.404 . S
C649 H661 0.930 . S
C650 C646 1.524 . S
C650 H662 0.956 . S
C650 H663 0.961 . S
C650 H664 0.961 . S
C651 C648 1.539 . S
C651 H665 0.958 . S
C651 H666 0.961 . S
C651 H667 0.960 . S
H652 C636 0.931 . S
H653 C641 0.929 . S
H654 C642 0.960 . S
H655 C642 0.962 . S
H656 C642 0.960 . S
H657 C643 0.961 . S
H658 C643 0.961 . S
H659 C643 0.961 . S
H660 C644 0.931 . S
H661 C649 0.930 . S
H662 C650 0.956 . S
H663 C650 0.961 . S
H664 C650 0.961 . S
H665 C651 0.958 . S
H666 C651 0.961 . S
H667 C651 0.960 . S
C668 C669 1.391 . S
C668 C670 1.394 . S
C668 H684 0.931 . S
C669 C668 1.391 . S
C669 C673 1.376 . S
C670 C668 1.394 . S
C670 C671 1.369 . S
C670 C674 1.531 . S
C671 C670 1.369 . S
C671 C672 1.410 . S
C671 C679 1.503 1_455 S
C672 C671 1.410 . S
C672 C673 1.392 . S
C672 C675 1.511 1_455 S
C673 C669 1.376 . S
C673 C672 1.392 . S
C673 H685 0.929 . S
C674 C670 1.531 . S
C674 H686 0.960 . S
C674 H687 0.962 . S
C674 H688 0.960 . S
C675 C672 1.511 1_655 S
C675 H689 0.961 1_655 S
C675 H690 0.961 . S
C675 H691 0.961 . S
C676 C677 1.370 . S
C676 C678 1.363 . S
C676 H692 0.931 . S
C677 C676 1.370 . S
C677 C681 1.408 . S
C678 C676 1.363 . S
C678 C679 1.370 . S
C678 C682 1.524 . S
C679 C671 1.503 1_655 S
C679 C678 1.370 . S
C679 C680 1.403 . S
C680 C679 1.403 . S
C680 C681 1.404 . S
C680 C683 1.539 . S
C681 C677 1.408 . S
C681 C680 1.404 . S
C681 H693 0.930 . S
C682 C678 1.524 . S
C682 H694 0.956 . S
C682 H695 0.961 . S
C682 H696 0.961 1_556 S
C683 C680 1.539 . S
C683 H697 0.958 . S
C683 H698 0.961 . S
C683 H699 0.960 1_655 S
H684 C668 0.931 . S
H685 C673 0.929 . S
H686 C674 0.960 . S
H687 C674 0.962 . S
H688 C674 0.960 . S
H689 C675 0.961 1_455 S
H690 C675 0.961 . S
H691 C675 0.961 . S
H692 C676 0.931 . S
H693 C681 0.930 . S
H694 C682 0.956 . S
H695 C682 0.961 . S
H696 C682 0.961 1_554 S
H697 C683 0.958 . S
H698 C683 0.961 . S
H699 C683 0.960 1_455 S
C700 C701 1.391 . S
C700 C702 1.394 . S
C700 H716 0.931 . S
C701 C700 1.391 . S
C701 C705 1.376 . S
C702 C700 1.394 . S
C702 C703 1.369 . S
C702 C706 1.531 1_565 S
C703 C702 1.369 . S
C703 C704 1.410 . S
C703 C711 1.503 1_565 S
C704 C703 1.410 . S
C704 C705 1.392 . S
C704 C707 1.511 . S
C705 C701 1.376 . S
C705 C704 1.392 . S
C705 H717 0.929 . S
C706 C702 1.531 1_545 S
C706 H718 0.960 . S
C706 H719 0.962 . S
C706 H720 0.960 1_545 S
C707 C704 1.511 . S
C707 H721 0.961 . S
C707 H722 0.961 . S
C707 H723 0.961 . S
C708 C709 1.370 . S
C708 C710 1.363 . S
C708 H724 0.931 . S
C709 C708 1.370 . S
C709 C713 1.408 . S
C710 C708 1.363 . S
C710 C711 1.370 . S
C710 C714 1.524 . S
C711 C703 1.503 1_545 S
C711 C710 1.370 . S
C711 C712 1.403 . S
C712 C711 1.403 . S
C712 C713 1.404 . S
C712 C715 1.539 . S
C713 C709 1.408 . S
C713 C712 1.404 . S
C713 H725 0.930 . S
C714 C710 1.524 . S
C714 H726 0.956 . S
C714 H727 0.924 1_545 S
C714 H728 0.961 . S
C715 C712 1.539 . S
C715 H729 0.958 . S
C715 H730 0.961 . S
C715 H731 0.960 1_545 S
H716 C700 0.931 . S
H717 C705 0.929 . S
H718 C706 0.960 . S
H719 C706 0.962 . S
H720 C706 0.960 1_565 S
H721 C707 0.961 . S
H722 C707 0.961 . S
H723 C707 0.961 . S
H724 C708 0.931 . S
H725 C713 0.930 . S
H726 C714 0.956 . S
H727 C714 0.924 1_565 S
H728 C714 0.961 . S
H729 C715 0.958 . S
H730 C715 0.961 . S
H731 C715 0.960 1_565 S
C732 C733 1.391 . S
C732 C734 1.394 . S
C732 H748 0.931 . S
C733 C732 1.391 . S
C733 C737 1.376 . S
C734 C732 1.394 . S
C734 C735 1.369 . S
C734 C738 1.531 . S
C735 C734 1.369 . S
C735 C736 1.410 . S
C735 C743 1.503 . S
C736 C735 1.410 . S
C736 C737 1.392 . S
C736 C739 1.511 . S
C737 C733 1.376 . S
C737 C736 1.392 . S
C737 H749 0.929 . S
C738 C734 1.531 . S
C738 H750 0.960 . S
C738 H751 0.962 . S
C738 H752 0.960 . S
C739 C736 1.511 . S
C739 H753 0.961 . S
C739 H754 0.961 . S
C739 H755 0.961 . S
C740 C741 1.370 . S
C740 C742 1.363 . S
C740 H756 0.931 . S
C741 C740 1.370 . S
C741 C745 1.408 . S
C742 C740 1.363 . S
C742 C743 1.370 . S
C742 C746 1.524 . S
C743 C735 1.503 . S
C743 C742 1.370 . S
C743 C744 1.403 . S
C744 C743 1.403 . S
C744 C745 1.404 . S
C744 C747 1.539 . S
C745 C741 1.408 . S
C745 C744 1.404 . S
C745 H757 0.930 . S
C746 C742 1.524 . S
C746 H758 0.956 . S
C746 H759 0.961 . S
C746 H760 0.961 . S
C747 C744 1.539 . S
C747 H761 0.958 . S
C747 H762 0.961 . S
C747 H763 0.960 . S
H748 C732 0.931 . S
H749 C737 0.929 . S
H750 C738 0.960 . S
H751 C738 0.962 . S
H752 C738 0.960 . S
H753 C739 0.961 . S
H754 C739 0.961 . S
H755 C739 0.961 . S
H756 C740 0.931 . S
H757 C745 0.930 . S
H758 C746 0.956 . S
H759 C746 0.961 . S
H760 C746 0.961 . S
H761 C747 0.958 . S
H762 C747 0.961 . S
H763 C747 0.960 . S
C764 C765 1.391 . S
C764 C766 1.394 . S
C764 H780 0.931 . S
C765 C764 1.391 . S
C765 C769 1.376 . S
C766 C764 1.394 . S
C766 C767 1.369 . S
C766 C770 1.531 . S
C767 C766 1.369 . S
C767 C768 1.410 . S
C767 C775 1.503 . S
C768 C767 1.410 . S
C768 C769 1.392 . S
C768 C771 1.511 . S
C769 C765 1.376 . S
C769 C768 1.392 . S
C769 H781 0.929 . S
C770 C766 1.531 . S
C770 H782 0.960 . S
C770 H783 0.962 . S
C770 H784 0.960 . S
C771 C768 1.511 . S
C771 H785 0.961 . S
C771 H786 0.961 . S
C771 H787 0.961 . S
C772 C773 1.370 . S
C772 C774 1.363 . S
C772 H788 0.931 . S
C773 C772 1.370 . S
C773 C777 1.408 . S
C774 C772 1.363 . S
C774 C775 1.370 . S
C774 C778 1.524 . S
C775 C767 1.503 . S
C775 C774 1.370 . S
C775 C776 1.403 . S
C776 C775 1.403 . S
C776 C777 1.404 . S
C776 C779 1.539 . S
C777 C773 1.408 . S
C777 C776 1.404 . S
C777 H789 0.930 . S
C778 C774 1.524 . S
C778 H790 0.956 . S
C778 H791 0.961 . S
C778 H792 0.961 . S
C779 C776 1.539 . S
C779 H793 0.958 . S
C779 H794 0.961 . S
C779 H795 0.960 . S
H780 C764 0.931 . S
H781 C769 0.929 . S
H782 C770 0.960 . S
H783 C770 0.962 . S
H784 C770 0.960 . S
H785 C771 0.961 . S
H786 C771 0.961 . S
H787 C771 0.961 . S
H788 C772 0.931 . S
H789 C777 0.930 . S
H790 C778 0.956 . S
H791 C778 0.961 . S
H792 C778 0.961 . S
H793 C779 0.958 . S
H794 C779 0.961 . S
H795 C779 0.960 . S
C796 C797 1.391 . S
C796 C798 1.394 . S
C796 H812 0.931 . S
C797 C796 1.391 . S
C797 C801 1.376 . S
C798 C796 1.394 . S
C798 C799 1.369 . S
C798 C802 1.531 . S
C799 C798 1.369 . S
C799 C800 1.410 . S
C799 C807 1.503 . S
C800 C799 1.410 . S
C800 C801 1.392 . S
C800 C803 1.511 . S
C801 C797 1.376 . S
C801 C800 1.392 . S
C801 H813 0.929 . S
C802 C798 1.531 . S
C802 H814 0.960 . S
C802 H815 0.962 . S
C802 H816 0.960 . S
C803 C800 1.511 . S
C803 H817 0.961 . S
C803 H818 0.961 . S
C803 H819 0.961 . S
C804 C805 1.370 . S
C804 C806 1.363 . S
C804 H820 0.931 . S
C805 C804 1.370 . S
C805 C809 1.408 . S
C806 C804 1.363 . S
C806 C807 1.370 . S
C806 C810 1.524 . S
C807 C799 1.503 . S
C807 C806 1.370 . S
C807 C808 1.403 . S
C808 C807 1.403 . S
C808 C809 1.404 . S
C808 C811 1.539 . S
C809 C805 1.408 . S
C809 C808 1.404 . S
C809 H821 0.930 . S
C810 C806 1.524 . S
C810 H822 0.956 . S
C810 H823 0.961 . S
C810 H824 0.961 . S
C811 C808 1.539 . S
C811 H825 0.958 . S
C811 H826 0.961 . S
C811 H827 0.960 . S
H812 C796 0.931 . S
H813 C801 0.929 . S
H814 C802 0.960 . S
H815 C802 0.962 . S
H816 C802 0.960 . S
H817 C803 0.961 . S
H818 C803 0.961 . S
H819 C803 0.961 . S
H820 C804 0.931 . S
H821 C809 0.930 . S
H822 C810 0.956 . S
H823 C810 0.961 . S
H824 C810 0.961 . S
H825 C811 0.958 . S
H826 C811 0.961 . S
H827 C811 0.960 . S
C828 C829 1.391 . S
C828 C830 1.394 . S
C828 H844 0.931 . S
C829 C828 1.391 . S
C829 C833 1.376 . S
C830 C828 1.394 . S
C830 C831 1.369 . S
C830 C834 1.531 . S
C831 C830 1.369 . S
C831 C832 1.410 . S
C831 C839 1.503 . S
C832 C831 1.410 . S
C832 C833 1.392 . S
C832 C835 1.511 . S
C833 C829 1.376 . S
C833 C832 1.392 . S
C833 H845 0.929 . S
C834 C830 1.531 . S
C834 H846 0.960 . S
C834 H847 0.962 . S
C834 H848 0.960 . S
C835 C832 1.511 . S
C835 H849 0.961 . S
C835 H850 0.961 . S
C835 H851 0.961 . S
C836 C837 1.370 . S
C836 C838 1.363 . S
C836 H852 0.931 . S
C837 C836 1.370 . S
C837 C841 1.408 . S
C838 C836 1.363 . S
C838 C839 1.370 . S
C838 C842 1.524 . S
C839 C831 1.503 . S
C839 C838 1.370 . S
C839 C840 1.403 . S
C840 C839 1.403 . S
C840 C841 1.404 . S
C840 C843 1.539 . S
C841 C837 1.408 . S
C841 C840 1.404 . S
C841 H853 0.930 . S
C842 C838 1.524 . S
C842 H854 0.956 . S
C842 H855 0.961 . S
C842 H856 0.961 . S
C843 C840 1.539 . S
C843 H857 0.958 . S
C843 H858 0.961 . S
C843 H859 0.960 . S
H844 C828 0.931 . S
H845 C833 0.929 . S
H846 C834 0.960 . S
H847 C834 0.962 . S
H848 C834 0.960 . S
H849 C835 0.961 . S
H850 C835 0.961 . S
H851 C835 0.961 . S
H852 C836 0.931 . S
H853 C841 0.930 . S
H854 C842 0.956 . S
H855 C842 0.961 . S
H856 C842 0.961 . S
H857 C843 0.958 . S
H858 C843 0.961 . S
H859 C843 0.960 . S
C860 C861 1.391 . S
C860 C862 1.394 . S
C860 H876 0.931 . S
C861 C860 1.391 . S
C861 C865 1.376 . S
C862 C860 1.394 . S
C862 C863 1.369 . S
C862 C866 1.531 . S
C863 C862 1.369 . S
C863 C864 1.410 . S
C863 C871 1.503 . S
C864 C863 1.410 . S
C864 C865 1.392 . S
C864 C867 1.511 . S
C865 C861 1.376 . S
C865 C864 1.392 . S
C865 H877 0.929 . S
C866 C862 1.531 . S
C866 H878 0.960 . S
C866 H879 0.962 . S
C866 H880 0.960 . S
C867 C864 1.511 . S
C867 H881 0.961 . S
C867 H882 0.961 . S
C867 H883 0.961 . S
C868 C869 1.370 . S
C868 C870 1.363 . S
C868 H884 0.931 . S
C869 C868 1.370 . S
C869 C873 1.408 . S
C870 C868 1.363 . S
C870 C871 1.370 . S
C870 C874 1.524 . S
C871 C863 1.503 . S
C871 C870 1.370 . S
C871 C872 1.403 . S
C872 C871 1.403 . S
C872 C873 1.404 . S
C872 C875 1.539 . S
C873 C869 1.408 . S
C873 C872 1.404 . S
C873 H885 0.930 . S
C874 C870 1.524 . S
C874 H886 0.956 . S
C874 H887 0.961 . S
C874 H888 0.961 . S
C875 C872 1.539 . S
C875 H889 0.958 . S
C875 H890 0.961 . S
C875 H891 0.960 . S
H876 C860 0.931 . S
H877 C865 0.929 . S
H878 C866 0.960 . S
H879 C866 0.962 . S
H880 C866 0.960 . S
H881 C867 0.961 . S
H882 C867 0.961 . S
H883 C867 0.961 . S
H884 C868 0.931 . S
H885 C873 0.930 . S
H886 C874 0.956 . S
H887 C874 0.961 . S
H888 C874 0.961 . S
H889 C875 0.958 . S
H890 C875 0.961 . S
H891 C875 0.960 . S
C892 C893 1.391 . S
C892 C894 1.394 . S
C892 H908 0.931 . S
C893 C892 1.391 . S
C893 C897 1.376 . S
C894 C892 1.394 . S
C894 C895 1.369 . S
C894 C898 1.531 . S
C895 C894 1.369 . S
C895 C896 1.410 . S
C895 C903 1.503 . S
C896 C895 1.410 . S
C896 C897 1.392 . S
C896 C899 1.511 . S
C897 C893 1.376 . S
C897 C896 1.392 . S
C897 H909 0.929 . S
C898 C894 1.531 . S
C898 H910 0.960 . S
C898 H911 0.962 . S
C898 H912 0.960 . S
C899 C896 1.511 . S
C899 H913 0.961 . S
C899 H914 0.961 . S
C899 H915 0.961 . S
C900 C901 1.370 . S
C900 C902 1.363 . S
C900 H916 0.931 . S
C901 C900 1.370 . S
C901 C905 1.408 . S
C902 C900 1.363 . S
C902 C903 1.370 . S
C902 C906 1.524 . S
C903 C895 1.503 . S
C903 C902 1.370 . S
C903 C904 1.403 . S
C904 C903 1.403 . S
C904 C905 1.404 . S
C904 C907 1.539 . S
C905 C901 1.408 . S
C905 C904 1.404 . S
C905 H917 0.930 . S
C906 C902 1.524 . S
C906 H918 0.956 . S
C906 H919 0.961 . S
C906 H920 0.961 . S
C907 C904 1.539 . S
C907 H921 0.958 . S
C907 H922 0.961 . S
C907 H923 0.960 . S
H908 C892 0.931 . S
H909 C897 0.929 . S
H910 C898 0.960 . S
H911 C898 0.962 . S
H912 C898 0.960 . S
H913 C899 0.961 . S
H914 C899 0.961 . S
H915 C899 0.961 . S
H916 C900 0.931 . S
H917 C905 0.930 . S
H918 C906 0.956 . S
H919 C906 0.961 . S
H920 C906 0.961 . S
H921 C907 0.958 . S
H922 C907 0.961 . S
H923 C907 0.960 . S
C157 C10 1.379 . S
C165 C88 1.398 . S
C189 C23 1.414 . S
C197 C101 1.393 . S
C221 C36 1.413 . S
C229 C114 1.401 . S
C253 C49 1.412 . S
C261 C127 1.401 . S
C285 C62 1.382 . S
C293 C134 1.408 . S
C317 C147 1.397 . S
C325 C75 1.392 . S
C349 C5 1.343 . S
C357 C133 1.366 . S
C381 C18 1.370 . S
C389 C146 1.353 . S
C413 C31 1.356 . S
C421 C83 1.351 . S
C445 C44 1.375 . S
C453 C96 1.356 . S
C477 C57 1.350 . S
C485 C109 1.352 . S
C509 C70 1.375 . S
C517 C122 1.362 . S
C541 C4 1.418 . S
C549 C43 1.455 . S
C573 C17 1.426 . S
C581 C56 1.453 . S
C605 C69 1.444 . S
C613 C30 1.444 . S
C637 C82 1.461 . S
C645 C121 1.443 . S
C669 C140 1.438 . S
C677 C95 1.451 . S
C701 C108 1.430 . S
C709 C153 1.451 . S
C733 C81 1.092 . S
C741 C3 1.119 . S
C765 C16 1.141 . S
C773 C94 1.094 . S
C797 C29 1.072 . S
C805 C107 1.114 . S
C829 C120 1.113 . S
C837 C42 1.112 . S
C861 C135 1.140 . S
C869 C55 1.092 . S
C893 C68 1.138 . S
C901 C148 1.098 . S
