# Generated by pormake.
# Topology wjb, (6)-cn, num edge types: 1
# Building blocks:
#     Node 0, Type 0, BuildingBlock: OJICUG_clean_sbu_0, # of connection points: 6
#     Node 1, Type 0, BuildingBlock: OJICUG_clean_sbu_0, # of connection points: 6
#     Node 2, Type 0, BuildingBlock: OJICUG_clean_sbu_0, # of connection points: 6
#     Node 3, Type 0, BuildingBlock: OJICUG_clean_sbu_0, # of connection points: 6
#     Node 4, Type 0, BuildingBlock: OJICUG_clean_sbu_0, # of connection points: 6
#     Node 5, Type 0, BuildingBlock: OJICUG_clean_sbu_0, # of connection points: 6
#     Node 6, Type 0, BuildingBlock: OJICUG_clean_sbu_0, # of connection points: 6
#     Node 7, Type 0, BuildingBlock: OJICUG_clean_sbu_0, # of connection points: 6
#     Node 8, Type 0, BuildingBlock: OJICUG_clean_sbu_0, # of connection points: 6
#     Node 9, Type 0, BuildingBlock: OJICUG_clean_sbu_0, # of connection points: 6
#     Node 10, Type 0, BuildingBlock: OJICUG_clean_sbu_0, # of connection points: 6
#     Node 11, Type 0, BuildingBlock: OJICUG_clean_sbu_0, # of connection points: 6
#     Node 12, Type 0, BuildingBlock: OJICUG_clean_sbu_0, # of connection points: 6
#     Node 13, Type 0, BuildingBlock: OJICUG_clean_sbu_0, # of connection points: 6
#     Node 14, Type 0, BuildingBlock: OJICUG_clean_sbu_0, # of connection points: 6
#     Node 15, Type 0, BuildingBlock: OJICUG_clean_sbu_0, # of connection points: 6
#     Node 16, Type 0, BuildingBlock: OJICUG_clean_sbu_0, # of connection points: 6
#     Node 17, Type 0, BuildingBlock: OJICUG_clean_sbu_0, # of connection points: 6
#     Node 18, Type 0, BuildingBlock: OJICUG_clean_sbu_0, # of connection points: 6
#     Node 19, Type 0, BuildingBlock: OJICUG_clean_sbu_0, # of connection points: 6
#     Node 20, Type 0, BuildingBlock: OJICUG_clean_sbu_0, # of connection points: 6
#     Node 21, Type 0, BuildingBlock: OJICUG_clean_sbu_0, # of connection points: 6
#     Node 22, Type 0, BuildingBlock: OJICUG_clean_sbu_0, # of connection points: 6
#     Node 23, Type 0, BuildingBlock: OJICUG_clean_sbu_0, # of connection points: 6
#     Edge 24, Type (0, 0), BuildingBlock: CIFDUS_clean_linker_0, # of connection points: 2
#     Edge 25, Type (0, 0), BuildingBlock: CIFDUS_clean_linker_0, # of connection points: 2
#     Edge 26, Type (0, 0), BuildingBlock: CIFDUS_clean_linker_0, # of connection points: 2
#     Edge 27, Type (0, 0), BuildingBlock: CIFDUS_clean_linker_0, # of connection points: 2
#     Edge 28, Type (0, 0), BuildingBlock: CIFDUS_clean_linker_0, # of connection points: 2
#     Edge 29, Type (0, 0), BuildingBlock: CIFDUS_clean_linker_0, # of connection points: 2
#     Edge 30, Type (0, 0), BuildingBlock: CIFDUS_clean_linker_0, # of connection points: 2
#     Edge 31, Type (0, 0), BuildingBlock: CIFDUS_clean_linker_0, # of connection points: 2
#     Edge 32, Type (0, 0), BuildingBlock: CIFDUS_clean_linker_0, # of connection points: 2
#     Edge 33, Type (0, 0), BuildingBlock: CIFDUS_clean_linker_0, # of connection points: 2
#     Edge 34, Type (0, 0), BuildingBlock: CIFDUS_clean_linker_0, # of connection points: 2
#     Edge 35, Type (0, 0), BuildingBlock: CIFDUS_clean_linker_0, # of connection points: 2
#     Edge 36, Type (0, 0), BuildingBlock: CIFDUS_clean_linker_0, # of connection points: 2
#     Edge 37, Type (0, 0), BuildingBlock: CIFDUS_clean_linker_0, # of connection points: 2
#     Edge 38, Type (0, 0), BuildingBlock: CIFDUS_clean_linker_0, # of connection points: 2
#     Edge 39, Type (0, 0), BuildingBlock: CIFDUS_clean_linker_0, # of connection points: 2
#     Edge 40, Type (0, 0), BuildingBlock: CIFDUS_clean_linker_0, # of connection points: 2
#     Edge 41, Type (0, 0), BuildingBlock: CIFDUS_clean_linker_0, # of connection points: 2
#     Edge 42, Type (0, 0), BuildingBlock: CIFDUS_clean_linker_0, # of connection points: 2
#     Edge 43, Type (0, 0), BuildingBlock: CIFDUS_clean_linker_0, # of connection points: 2
#     Edge 44, Type (0, 0), BuildingBlock: CIFDUS_clean_linker_0, # of connection points: 2
#     Edge 45, Type (0, 0), BuildingBlock: CIFDUS_clean_linker_0, # of connection points: 2
#     Edge 46, Type (0, 0), BuildingBlock: CIFDUS_clean_linker_0, # of connection points: 2
#     Edge 47, Type (0, 0), BuildingBlock: CIFDUS_clean_linker_0, # of connection points: 2
#     Edge 48, Type (0, 0), BuildingBlock: CIFDUS_clean_linker_0, # of connection points: 2
#     Edge 49, Type (0, 0), BuildingBlock: CIFDUS_clean_linker_0, # of connection points: 2
#     Edge 50, Type (0, 0), BuildingBlock: CIFDUS_clean_linker_0, # of connection points: 2
#     Edge 51, Type (0, 0), BuildingBlock: CIFDUS_clean_linker_0, # of connection points: 2
#     Edge 52, Type (0, 0), BuildingBlock: CIFDUS_clean_linker_0, # of connection points: 2
#     Edge 53, Type (0, 0), BuildingBlock: CIFDUS_clean_linker_0, # of connection points: 2
#     Edge 54, Type (0, 0), BuildingBlock: CIFDUS_clean_linker_0, # of connection points: 2
#     Edge 55, Type (0, 0), BuildingBlock: CIFDUS_clean_linker_0, # of connection points: 2
#     Edge 56, Type (0, 0), BuildingBlock: CIFDUS_clean_linker_0, # of connection points: 2
#     Edge 57, Type (0, 0), BuildingBlock: CIFDUS_clean_linker_0, # of connection points: 2
#     Edge 58, Type (0, 0), BuildingBlock: CIFDUS_clean_linker_0, # of connection points: 2
#     Edge 59, Type (0, 0), BuildingBlock: CIFDUS_clean_linker_0, # of connection points: 2
#     Edge 60, Type (0, 0), BuildingBlock: CIFDUS_clean_linker_0, # of connection points: 2
#     Edge 61, Type (0, 0), BuildingBlock: CIFDUS_clean_linker_0, # of connection points: 2
#     Edge 62, Type (0, 0), BuildingBlock: CIFDUS_clean_linker_0, # of connection points: 2
#     Edge 63, Type (0, 0), BuildingBlock: CIFDUS_clean_linker_0, # of connection points: 2
#     Edge 64, Type (0, 0), BuildingBlock: CIFDUS_clean_linker_0, # of connection points: 2
#     Edge 65, Type (0, 0), BuildingBlock: CIFDUS_clean_linker_0, # of connection points: 2
#     Edge 66, Type (0, 0), BuildingBlock: CIFDUS_clean_linker_0, # of connection points: 2
#     Edge 67, Type (0, 0), BuildingBlock: CIFDUS_clean_linker_0, # of connection points: 2
#     Edge 68, Type (0, 0), BuildingBlock: CIFDUS_clean_linker_0, # of connection points: 2
#     Edge 69, Type (0, 0), BuildingBlock: CIFDUS_clean_linker_0, # of connection points: 2
#     Edge 70, Type (0, 0), BuildingBlock: CIFDUS_clean_linker_0, # of connection points: 2
#     Edge 71, Type (0, 0), BuildingBlock: CIFDUS_clean_linker_0, # of connection points: 2
#     Edge 72, Type (0, 0), BuildingBlock: CIFDUS_clean_linker_0, # of connection points: 2
#     Edge 73, Type (0, 0), BuildingBlock: CIFDUS_clean_linker_0, # of connection points: 2
#     Edge 74, Type (0, 0), BuildingBlock: CIFDUS_clean_linker_0, # of connection points: 2
#     Edge 75, Type (0, 0), BuildingBlock: CIFDUS_clean_linker_0, # of connection points: 2
#     Edge 76, Type (0, 0), BuildingBlock: CIFDUS_clean_linker_0, # of connection points: 2
#     Edge 77, Type (0, 0), BuildingBlock: CIFDUS_clean_linker_0, # of connection points: 2
#     Edge 78, Type (0, 0), BuildingBlock: CIFDUS_clean_linker_0, # of connection points: 2
#     Edge 79, Type (0, 0), BuildingBlock: CIFDUS_clean_linker_0, # of connection points: 2
#     Edge 80, Type (0, 0), BuildingBlock: CIFDUS_clean_linker_0, # of connection points: 2
#     Edge 81, Type (0, 0), BuildingBlock: CIFDUS_clean_linker_0, # of connection points: 2
#     Edge 82, Type (0, 0), BuildingBlock: CIFDUS_clean_linker_0, # of connection points: 2
#     Edge 83, Type (0, 0), BuildingBlock: CIFDUS_clean_linker_0, # of connection points: 2
#     Edge 84, Type (0, 0), BuildingBlock: CIFDUS_clean_linker_0, # of connection points: 2
#     Edge 85, Type (0, 0), BuildingBlock: CIFDUS_clean_linker_0, # of connection points: 2
#     Edge 86, Type (0, 0), BuildingBlock: CIFDUS_clean_linker_0, # of connection points: 2
#     Edge 87, Type (0, 0), BuildingBlock: CIFDUS_clean_linker_0, # of connection points: 2
#     Edge 88, Type (0, 0), BuildingBlock: CIFDUS_clean_linker_0, # of connection points: 2
#     Edge 89, Type (0, 0), BuildingBlock: CIFDUS_clean_linker_0, # of connection points: 2
#     Edge 90, Type (0, 0), BuildingBlock: CIFDUS_clean_linker_0, # of connection points: 2
#     Edge 91, Type (0, 0), BuildingBlock: CIFDUS_clean_linker_0, # of connection points: 2
#     Edge 92, Type (0, 0), BuildingBlock: CIFDUS_clean_linker_0, # of connection points: 2
#     Edge 93, Type (0, 0), BuildingBlock: CIFDUS_clean_linker_0, # of connection points: 2
#     Edge 94, Type (0, 0), BuildingBlock: CIFDUS_clean_linker_0, # of connection points: 2
#     Edge 95, Type (0, 0), BuildingBlock: CIFDUS_clean_linker_0, # of connection points: 2
# Relax obj value: 0.482
# Max RMSD: 0.212
# Mean RMSD: 0.212
data_MOF--net-wjb--node1-OJICUG_clean_sbu_0--edge1-CIFDUS_clean_linker_0
_symmetry_space_group_name_H-M    P1
_symmetry_Int_Tables_number       1
_symmetry_cell_setting            triclinic
loop_
_symmetry_equiv_pos_as_xyz
'x, y, z'
_cell_length_a     46.215062
_cell_length_b     46.275065
_cell_length_c     51.149103
_cell_angle_alpha  90.12897
_cell_angle_beta   89.927829
_cell_angle_gamma 119.81044
loop_
_atom_site_label
_atom_site_type_symbol
_atom_site_fract_x
_atom_site_fract_y
_atom_site_fract_z
_atom_type_partial_charge
Sc0 Sc 0.12313 0.49222 0.11666 0.0
Sc1 Sc 0.17339 0.45557 0.12737 0.0
Sc2 Sc 0.20798 0.53602 0.10397 0.0
O3 O 0.16787 0.49461 0.11619 0.0
C4 C 0.15389 0.52713 0.06208 0.0
C5 C 0.1021 0.41875 0.1008 0.0
C6 C 0.21519 0.47842 0.07607 0.0
C7 C 0.12872 0.46102 0.17159 0.0
C8 C 0.16852 0.56654 0.13411 0.0
C9 C 0.24056 0.51784 0.14853 0.0
O10 O 0.12942 0.51383 0.07796 0.0
O11 O 0.12443 0.41767 0.11446 0.0
O12 O 0.22771 0.50855 0.08362 0.0
O13 O 0.11394 0.4706 0.15557 0.0
O14 O 0.19374 0.56861 0.12252 0.0
O15 O 0.22395 0.48703 0.14257 0.0
O16 O 0.14055 0.53997 0.13502 0.0
O17 O 0.15289 0.45645 0.16506 0.0
O18 O 0.23372 0.53897 0.13909 0.0
O19 O 0.10067 0.44511 0.09759 0.0
O20 O 0.18358 0.53526 0.06838 0.0
O21 O 0.19258 0.45414 0.08898 0.0
Sc22 Sc 0.6251 0.12987 0.62564 0.0
Sc23 Sc 0.71307 0.16362 0.62016 0.0
Sc24 Sc 0.67289 0.20154 0.58877 0.0
O25 O 0.67035 0.16493 0.6116 0.0
C26 C 0.60555 0.1405 0.56801 0.0
C27 C 0.65989 0.08762 0.60988 0.0
C28 C 0.72362 0.18366 0.56053 0.0
C29 C 0.67423 0.14262 0.67406 0.0
C30 C 0.62008 0.19531 0.63219 0.0
C31 C 0.73752 0.24081 0.62428 0.0
O32 O 0.59867 0.12429 0.5893 0.0
O33 O 0.68962 0.11088 0.61345 0.0
O34 O 0.7048 0.19633 0.56117 0.0
O35 O 0.64542 0.1312 0.66394 0.0
O36 O 0.64103 0.21037 0.61406 0.0
O37 O 0.74217 0.21638 0.62841 0.0
O38 O 0.61151 0.16583 0.63941 0.0
O39 O 0.70093 0.15605 0.66075 0.0
O40 O 0.71358 0.2387 0.61075 0.0
O41 O 0.63439 0.09104 0.61267 0.0
O42 O 0.63204 0.16808 0.56455 0.0
O43 O 0.72948 0.17064 0.58014 0.0
Sc44 Sc 0.4982 0.6297 0.11744 0.0
Sc45 Sc 0.54847 0.71607 0.12541 0.0
Sc46 Sc 0.46494 0.68202 0.11213 0.0
O47 O 0.50373 0.67542 0.1181 0.0
C48 C 0.45644 0.62995 0.06783 0.0
C49 C 0.57154 0.67029 0.09703 0.0
C50 C 0.52432 0.73854 0.07787 0.0
C51 C 0.53767 0.66557 0.1705 0.0
C52 C 0.42905 0.61277 0.14273 0.0
C53 C 0.49962 0.73876 0.15002 0.0
O54 O 0.4715 0.61755 0.08049 0.0
O55 O 0.57841 0.69528 0.11132 0.0
O56 O 0.49569 0.72619 0.0888 0.0
O57 O 0.52416 0.64042 0.15498 0.0
O58 O 0.43018 0.63899 0.13403 0.0
O59 O 0.52773 0.74628 0.14015 0.0
O60 O 0.45219 0.60609 0.13892 0.0
O61 O 0.54664 0.69541 0.1634 0.0
O62 O 0.47514 0.70962 0.1477 0.0
O63 O 0.5422 0.64616 0.09463 0.0
O64 O 0.45258 0.65356 0.07671 0.0
O65 O 0.54769 0.73423 0.08679 0.0
Sc66 Sc 0.8691 0.49752 0.61027 0.0
Sc67 Sc 0.82888 0.54631 0.60703 0.0
Sc68 Sc 0.78873 0.46317 0.58512 0.0
O69 O 0.82903 0.50247 0.60078 0.0
C70 C 0.84712 0.45859 0.556 0.0
C71 C 0.90226 0.57074 0.58637 0.0
C72 C 0.79405 0.52399 0.55182 0.0
C73 C 0.86261 0.53827 0.65859 0.0
C74 C 0.81036 0.42714 0.62759 0.0
C75 C 0.75578 0.49174 0.62446 0.0
O76 O 0.86863 0.47321 0.57392 0.0
O77 O 0.87873 0.57638 0.59192 0.0
O78 O 0.78386 0.49342 0.55606 0.0
O79 O 0.87309 0.52031 0.6479 0.0
O80 O 0.78947 0.42866 0.61243 0.0
O81 O 0.779 0.5219 0.62342 0.0
O82 O 0.84062 0.44995 0.62921 0.0
O83 O 0.84666 0.54972 0.64623 0.0
O84 O 0.75632 0.46839 0.61189 0.0
O85 O 0.90179 0.54379 0.59182 0.0
O86 O 0.81761 0.45374 0.55706 0.0
O87 O 0.8108 0.54691 0.56827 0.0
Sc88 Sc 0.36839 0.86756 0.11356 0.0
Sc89 Sc 0.2805 0.82349 0.12083 0.0
Sc90 Sc 0.32196 0.78316 0.0983 0.0
O91 O 0.32382 0.82509 0.11068 0.0
C92 C 0.37483 0.83717 0.05911 0.0
C93 C 0.32272 0.89793 0.09973 0.0
C94 C 0.2599 0.7823 0.06913 0.0
C95 C 0.3298 0.86215 0.16744 0.0
C96 C 0.38826 0.81457 0.13254 0.0
C97 C 0.26624 0.75242 0.14029 0.0
O98 O 0.38455 0.86169 0.07487 0.0
O99 O 0.29689 0.87421 0.11001 0.0
O100 O 0.27829 0.76993 0.07495 0.0
O101 O 0.35546 0.87569 0.15261 0.0
O102 O 0.36416 0.79078 0.12065 0.0
O103 O 0.2557 0.77232 0.13478 0.0
O104 O 0.39374 0.84427 0.13198 0.0
O105 O 0.30062 0.84087 0.1594 0.0
O106 O 0.2932 0.75588 0.13117 0.0
O107 O 0.3493 0.89681 0.096 0.0
O108 O 0.35198 0.80783 0.06483 0.0
O109 O 0.26 0.80604 0.08198 0.0
Sc110 Sc 0.49552 0.38619 0.62249 0.0
Sc111 Sc 0.45722 0.29781 0.62162 0.0
Sc112 Sc 0.53993 0.34901 0.60126 0.0
O113 O 0.49717 0.344 0.61515 0.0
C114 C 0.5334 0.40513 0.56959 0.0
C115 C 0.42074 0.33725 0.6043 0.0
C116 C 0.48348 0.29271 0.56524 0.0
C117 C 0.4652 0.34097 0.67326 0.0
C118 C 0.57024 0.40879 0.63947 0.0
C119 C 0.5164 0.284 0.6359 0.0
O120 O 0.50945 0.40372 0.58284 0.0
O121 O 0.42094 0.31016 0.60687 0.0
O122 O 0.51303 0.31625 0.56968 0.0
O123 O 0.481 0.36936 0.66209 0.0
O124 O 0.56862 0.38182 0.63219 0.0
O125 O 0.4859 0.27611 0.63699 0.0
O126 O 0.54713 0.41534 0.63479 0.0
O127 O 0.45379 0.31319 0.66108 0.0
O128 O 0.53795 0.3095 0.62383 0.0
O129 O 0.44514 0.36533 0.61028 0.0
O130 O 0.54874 0.38988 0.57626 0.0
O131 O 0.46015 0.2817 0.58225 0.0
Sc132 Sc 0.46521 0.76757 0.89225 0.0
Sc133 Sc 0.54897 0.81914 0.87367 0.0
Sc134 Sc 0.49088 0.84865 0.87276 0.0
O135 O 0.50186 0.8119 0.87947 0.0
C136 C 0.42456 0.78452 0.85177 0.0
C137 C 0.50542 0.74407 0.85544 0.0
C138 C 0.53549 0.85192 0.82341 0.0
C139 C 0.52742 0.78227 0.92865 0.0
C140 C 0.44867 0.8175 0.92384 0.0
C141 C 0.56482 0.88973 0.89545 0.0
O142 O 0.4313 0.76358 0.86205 0.0
O143 O 0.533 0.77106 0.85603 0.0
O144 O 0.51372 0.85711 0.83452 0.0
O145 O 0.49636 0.7689 0.92384 0.0
O146 O 0.46728 0.84335 0.91048 0.0
O147 O 0.57346 0.86839 0.89005 0.0
O148 O 0.44476 0.78901 0.91839 0.0
O149 O 0.55013 0.80038 0.91234 0.0
O150 O 0.53625 0.88577 0.89031 0.0
O151 O 0.47975 0.7399 0.86757 0.0
O152 O 0.4428 0.81581 0.85502 0.0
O153 O 0.55039 0.83861 0.83504 0.0
Sc154 Sc 0.65416 0.44909 0.38589 0.0
Sc155 Sc 0.69661 0.53021 0.36411 0.0
Sc156 Sc 0.60881 0.48864 0.37217 0.0
O157 O 0.65286 0.48942 0.37399 0.0
C158 C 0.58337 0.41415 0.35707 0.0
C159 C 0.70633 0.46973 0.34317 0.0
C160 C 0.64689 0.52146 0.31815 0.0
C161 C 0.72003 0.50806 0.41201 0.0
C162 C 0.60863 0.45762 0.42804 0.0
C163 C 0.65749 0.56315 0.3899 0.0
O164 O 0.60768 0.41414 0.36845 0.0
O165 O 0.71809 0.50048 0.34881 0.0
O166 O 0.62057 0.50826 0.33239 0.0
O167 O 0.70177 0.47781 0.40516 0.0
O168 O 0.59578 0.46919 0.41194 0.0
O169 O 0.68349 0.56626 0.37886 0.0
O170 O 0.63052 0.44984 0.42156 0.0
O171 O 0.71789 0.53179 0.40161 0.0
O172 O 0.62981 0.53641 0.38955 0.0
O173 O 0.67747 0.44778 0.35044 0.0
O174 O 0.58036 0.43978 0.35546 0.0
O175 O 0.67588 0.52966 0.32674 0.0
Sc176 Sc 0.19728 0.65733 0.89652 0.0
Sc177 Sc 0.16413 0.70453 0.86966 0.0
Sc178 Sc 0.11543 0.61619 0.87509 0.0
O179 O 0.15885 0.65957 0.88039 0.0
C180 C 0.16894 0.59405 0.86099 0.0
C181 C 0.23664 0.7168 0.85628 0.0
C182 C 0.1264 0.65533 0.82141 0.0
C183 C 0.19723 0.71804 0.92653 0.0
C184 C 0.1356 0.60182 0.92938 0.0
C185 C 0.08902 0.66645 0.88892 0.0
O186 O 0.1939 0.62096 0.86882 0.0
O187 O 0.21366 0.72391 0.85309 0.0
O188 O 0.11537 0.62852 0.83456 0.0
O189 O 0.20259 0.69357 0.9253 0.0
O190 O 0.11252 0.60085 0.91531 0.0
O191 O 0.11577 0.69332 0.88418 0.0
O192 O 0.16626 0.61909 0.92353 0.0
O193 O 0.18497 0.72657 0.90766 0.0
O194 O 0.08577 0.63784 0.88579 0.0
O195 O 0.23383 0.69415 0.87161 0.0
O196 O 0.13902 0.5875 0.86425 0.0
O197 O 0.1433 0.68444 0.83143 0.0
Sc198 Sc 0.51916 0.19223 0.4047 0.0
Sc199 Sc 0.4372 0.1555 0.38169 0.0
Sc200 Sc 0.48291 0.11235 0.37878 0.0
O201 O 0.47955 0.1531 0.38847 0.0
C202 C 0.55558 0.16773 0.36445 0.0
C203 C 0.49543 0.22741 0.36473 0.0
C204 C 0.44569 0.12275 0.32976 0.0
C205 C 0.45857 0.19211 0.43542 0.0
C206 C 0.51843 0.13253 0.4349 0.0
C207 C 0.40843 0.08059 0.39984 0.0
O208 O 0.55499 0.18785 0.38098 0.0
O209 O 0.46457 0.20688 0.3682 0.0
O210 O 0.46089 0.10944 0.34083 0.0
O211 O 0.48917 0.20324 0.43027 0.0
O212 O 0.50667 0.11257 0.41554 0.0
O213 O 0.40419 0.10475 0.39357 0.0
O214 O 0.52228 0.16172 0.4349 0.0
O215 O 0.43508 0.17089 0.4212 0.0
O216 O 0.43575 0.08075 0.39663 0.0
O217 O 0.5185 0.22417 0.37522 0.0
O218 O 0.53077 0.13923 0.35995 0.0
O219 O 0.4361 0.14052 0.34189 0.0
Sc220 Sc 0.33463 0.54021 0.89002 0.0
Sc221 Sc 0.28816 0.4554 0.87949 0.0
Sc222 Sc 0.37636 0.49632 0.87922 0.0
O223 O 0.33336 0.49721 0.88313 0.0
C224 C 0.39699 0.56511 0.85185 0.0
C225 C 0.27327 0.50938 0.854 0.0
C226 C 0.32987 0.45554 0.83027 0.0
C227 C 0.27733 0.48826 0.92875 0.0
C228 C 0.39043 0.54379 0.92855 0.0
C229 C 0.33104 0.42552 0.9037 0.0
O230 O 0.3744 0.56821 0.86334 0.0
O231 O 0.2626 0.48082 0.86421 0.0
O232 O 0.35743 0.46834 0.84296 0.0
O233 O 0.29416 0.51665 0.9178 0.0
O234 O 0.39719 0.52468 0.91501 0.0
O235 O 0.30432 0.4216 0.89354 0.0
O236 O 0.36832 0.55108 0.9219 0.0
O237 O 0.27484 0.46167 0.91902 0.0
O238 O 0.35828 0.45275 0.90267 0.0
O239 O 0.30252 0.53295 0.85801 0.0
O240 O 0.40158 0.54064 0.8556 0.0
O241 O 0.30231 0.45031 0.84035 0.0
Sc242 Sc 0.7803 0.3061 0.39904 0.0
Sc243 Sc 0.8206 0.26768 0.36831 0.0
Sc244 Sc 0.85347 0.35527 0.36435 0.0
O245 O 0.81816 0.30966 0.37717 0.0
C246 C 0.78851 0.36048 0.3564 0.0
C247 C 0.74282 0.24222 0.36308 0.0
C248 C 0.84171 0.30724 0.31513 0.0
C249 C 0.79813 0.25516 0.42713 0.0
C250 C 0.84009 0.37253 0.42202 0.0
C251 C 0.89625 0.32149 0.38016 0.0
O252 O 0.7728 0.33947 0.37435 0.0
O253 O 0.76744 0.23735 0.36056 0.0
O254 O 0.85377 0.33567 0.32608 0.0
O255 O 0.78346 0.27216 0.42588 0.0
O256 O 0.85682 0.38058 0.4009 0.0
O257 O 0.87379 0.2919 0.37482 0.0
O258 O 0.8128 0.3455 0.42484 0.0
O259 O 0.81413 0.25182 0.40833 0.0
O260 O 0.89197 0.3465 0.37849 0.0
O261 O 0.74444 0.26677 0.37538 0.0
O262 O 0.81802 0.36862 0.34954 0.0
O263 O 0.8275 0.28001 0.32769 0.0
Sc264 Sc 0.88102 0.50002 0.86638 0.0
Sc265 Sc 0.82867 0.53616 0.86306 0.0
Sc266 Sc 0.81173 0.47145 0.90733 0.0
O267 O 0.84041 0.50249 0.87876 0.0
C268 C 0.82659 0.42365 0.87105 0.0
C269 C 0.85681 0.51688 0.81306 0.0
C270 C 0.75686 0.47253 0.86919 0.0
C271 C 0.90726 0.57807 0.87159 0.0
C272 C 0.88289 0.48509 0.92679 0.0
C273 C 0.81201 0.53773 0.92346 0.0
O274 O 0.85349 0.44666 0.86116 0.0
O275 O 0.83967 0.52834 0.82358 0.0
O276 O 0.76649 0.461 0.88768 0.0
O277 O 0.91132 0.55281 0.87141 0.0
O278 O 0.85292 0.47762 0.93099 0.0
O279 O 0.81588 0.54879 0.90026 0.0
O280 O 0.89639 0.49331 0.90445 0.0
O281 O 0.87928 0.57664 0.86825 0.0
O282 O 0.81194 0.51107 0.92942 0.0
O283 O 0.87232 0.50566 0.82616 0.0
O284 O 0.80912 0.42897 0.88759 0.0
O285 O 0.7766 0.4991 0.85692 0.0
Sc286 Sc 0.36077 0.85564 0.37118 0.0
Sc287 Sc 0.27339 0.82566 0.37276 0.0
Sc288 Sc 0.30645 0.77377 0.38837 0.0
O289 O 0.31345 0.81845 0.37727 0.0
C290 C 0.36445 0.79289 0.34849 0.0
C291 C 0.31864 0.85917 0.3224 0.0
C292 C 0.24296 0.75157 0.35198 0.0
C293 C 0.32736 0.8953 0.39603 0.0
C294 C 0.37105 0.82277 0.42185 0.0
C295 C 0.26043 0.78813 0.42665 0.0
O296 O 0.3772 0.82386 0.3532 0.0
O297 O 0.29102 0.84636 0.33473 0.0
O298 O 0.26471 0.74722 0.36344 0.0
O299 O 0.35198 0.89198 0.3895 0.0
O300 O 0.348 0.7942 0.4148 0.0
O301 O 0.25486 0.80622 0.41111 0.0
O302 O 0.37786 0.84924 0.40939 0.0
O303 O 0.29746 0.87403 0.39073 0.0
O304 O 0.27714 0.77404 0.42057 0.0
O305 O 0.34599 0.86416 0.33274 0.0
O306 O 0.33626 0.77132 0.35741 0.0
O307 O 0.24159 0.77816 0.35401 0.0
Sc308 Sc 0.49001 0.35665 0.87914 0.0
Sc309 Sc 0.43776 0.26812 0.87863 0.0
Sc310 Sc 0.50447 0.30776 0.92264 0.0
O311 O 0.47734 0.31072 0.89323 0.0
C312 C 0.56086 0.36305 0.88523 0.0
C313 C 0.46332 0.31239 0.82715 0.0
C314 C 0.4944 0.24895 0.8841 0.0
C315 C 0.41071 0.31891 0.88666 0.0
C316 C 0.50395 0.37252 0.94021 0.0
C317 C 0.43264 0.24963 0.93887 0.0
O318 O 0.54173 0.37028 0.87232 0.0
O319 O 0.44824 0.28472 0.83894 0.0
O320 O 0.50892 0.26996 0.90233 0.0
O321 O 0.43942 0.34505 0.88577 0.0
O322 O 0.50207 0.34499 0.94565 0.0
O323 O 0.42057 0.2438 0.91598 0.0
O324 O 0.50309 0.38152 0.91691 0.0
O325 O 0.40552 0.28936 0.8834 0.0
O326 O 0.46201 0.2724 0.94406 0.0
O327 O 0.47903 0.34004 0.8391 0.0
O328 O 0.55067 0.34295 0.90444 0.0
O329 O 0.4678 0.24442 0.87297 0.0
Sc330 Sc 0.11346 0.50272 0.37198 0.0
Sc331 Sc 0.15695 0.45807 0.38081 0.0
Sc332 Sc 0.19597 0.54434 0.39224 0.0
O333 O 0.15537 0.50148 0.38166 0.0
C334 C 0.16919 0.57138 0.34758 0.0
C335 C 0.12313 0.45957 0.3268 0.0
C336 C 0.23144 0.5099 0.36291 0.0
C337 C 0.08189 0.43105 0.3982 0.0
C338 C 0.13739 0.54959 0.42179 0.0
C339 C 0.19121 0.49101 0.43445 0.0
O340 O 0.13894 0.55006 0.35205 0.0
O341 O 0.13946 0.4501 0.34112 0.0
O342 O 0.22977 0.53523 0.37004 0.0
O343 O 0.08137 0.45679 0.39076 0.0
O344 O 0.16777 0.55974 0.41628 0.0
O345 O 0.17449 0.46497 0.42059 0.0
O346 O 0.11337 0.52684 0.40868 0.0
O347 O 0.10688 0.42706 0.39526 0.0
O348 O 0.20137 0.52049 0.42625 0.0
O349 O 0.11173 0.47813 0.33511 0.0
O350 O 0.19331 0.571 0.35906 0.0
O351 O 0.20774 0.48038 0.36643 0.0
Sc352 Sc 0.62559 0.11544 0.88457 0.0
Sc353 Sc 0.71383 0.15464 0.87693 0.0
Sc354 Sc 0.67779 0.18477 0.92213 0.0
O355 O 0.67247 0.15162 0.89438 0.0
C356 C 0.61614 0.17798 0.88836 0.0
C357 C 0.66262 0.13042 0.82943 0.0
C358 C 0.73074 0.23018 0.8789 0.0
C359 C 0.66717 0.07764 0.89002 0.0
C360 C 0.6172 0.12055 0.94601 0.0
C361 C 0.7385 0.17331 0.93555 0.0
O362 O 0.6082 0.15011 0.87784 0.0
O363 O 0.69188 0.14483 0.83882 0.0
O364 O 0.71177 0.22521 0.89833 0.0
O365 O 0.64044 0.07919 0.89109 0.0
O366 O 0.64421 0.14778 0.94873 0.0
O367 O 0.74199 0.16488 0.91269 0.0
O368 O 0.60611 0.10703 0.92394 0.0
O369 O 0.69555 0.10208 0.88377 0.0
O370 O 0.71655 0.18093 0.94162 0.0
O371 O 0.6367 0.11814 0.84361 0.0
O372 O 0.63922 0.19197 0.90529 0.0
O373 O 0.73507 0.20753 0.86853 0.0
Sc374 Sc 0.49521 0.61986 0.37523 0.0
Sc375 Sc 0.54071 0.70873 0.37858 0.0
Sc376 Sc 0.46075 0.66337 0.40587 0.0
O377 O 0.49907 0.66393 0.38656 0.0
C378 C 0.42159 0.60522 0.36422 0.0
C379 C 0.53084 0.66807 0.32591 0.0
C380 C 0.48209 0.72436 0.3675 0.0
C381 C 0.57166 0.66266 0.39235 0.0
C382 C 0.46258 0.60257 0.43281 0.0
C383 C 0.52399 0.7209 0.43585 0.0
O384 O 0.4453 0.59958 0.35928 0.0
O385 O 0.54034 0.69481 0.33877 0.0
O386 O 0.46044 0.69941 0.38015 0.0
O387 O 0.54452 0.63521 0.38971 0.0
O388 O 0.45718 0.62688 0.4333 0.0
O389 O 0.54546 0.72699 0.41808 0.0
O390 O 0.47484 0.59562 0.41297 0.0
O391 O 0.57441 0.69094 0.38816 0.0
O392 O 0.4932 0.70003 0.43321 0.0
O393 O 0.51491 0.63918 0.3363 0.0
O394 O 0.42382 0.62661 0.38081 0.0
O395 O 0.51274 0.73268 0.36675 0.0
Sc396 Sc 0.51526 0.19334 0.08285 0.0
Sc397 Sc 0.44831 0.1618 0.12705 0.0
Sc398 Sc 0.50139 0.12693 0.1216 0.0
O399 O 0.48831 0.16101 0.11096 0.0
C400 C 0.5132 0.13053 0.05992 0.0
C401 C 0.44361 0.18403 0.0697 0.0
C402 C 0.42301 0.08595 0.11179 0.0
C403 C 0.50653 0.23837 0.12579 0.0
C404 C 0.57182 0.1869 0.11517 0.0
C405 C 0.47334 0.13739 0.17575 0.0
O406 O 0.5076 0.15439 0.05627 0.0
O407 O 0.43016 0.17131 0.09134 0.0
O408 O 0.452 0.08915 0.11216 0.0
O409 O 0.52308 0.2335 0.10807 0.0
O410 O 0.55215 0.16384 0.13046 0.0
O411 O 0.45892 0.15204 0.16589 0.0
O412 O 0.56146 0.19737 0.09638 0.0
O413 O 0.47833 0.21552 0.13451 0.0
O414 O 0.4889 0.12667 0.16205 0.0
O415 O 0.47384 0.1937 0.06454 0.0
O416 O 0.51622 0.12117 0.0826 0.0
O417 O 0.41664 0.10879 0.11866 0.0
Sc418 Sc 0.3258 0.53568 0.59823 0.0
Sc419 Sc 0.2771 0.45584 0.62301 0.0
Sc420 Sc 0.36491 0.49655 0.62728 0.0
O421 O 0.32271 0.49594 0.61621 0.0
C422 C 0.38445 0.53152 0.5706 0.0
C423 C 0.26578 0.47475 0.56776 0.0
C424 C 0.32088 0.42223 0.60915 0.0
C425 C 0.26383 0.51673 0.63296 0.0
C426 C 0.38407 0.57006 0.64056 0.0
C427 C 0.31434 0.46209 0.67578 0.0
O428 O 0.35919 0.53544 0.56907 0.0
O429 O 0.26334 0.4515 0.5824 0.0
O430 O 0.3485 0.44938 0.60862 0.0
O431 O 0.29293 0.53872 0.62603 0.0
O432 O 0.38503 0.54406 0.64693 0.0
O433 O 0.28846 0.45794 0.66372 0.0
O434 O 0.36625 0.57084 0.62204 0.0
O435 O 0.25319 0.48566 0.63023 0.0
O436 O 0.34263 0.4728 0.66458 0.0
O437 O 0.28491 0.50545 0.57279 0.0
O438 O 0.39169 0.5208 0.59118 0.0
O439 O 0.29381 0.42018 0.61692 0.0
Sc440 Sc 0.82393 0.33371 0.06194 0.0
Sc441 Sc 0.83881 0.28769 0.10821 0.0
Sc442 Sc 0.88322 0.37624 0.11023 0.0
O443 O 0.84889 0.33271 0.09364 0.0
C444 C 0.89214 0.40112 0.05178 0.0
C445 C 0.83969 0.27811 0.0461 0.0
C446 C 0.91797 0.33131 0.10823 0.0
C447 C 0.76693 0.27007 0.09184 0.0
C448 C 0.8195 0.38451 0.10159 0.0
C449 C 0.85355 0.32986 0.1605 0.0
O450 O 0.86403 0.37738 0.04506 0.0
O451 O 0.83521 0.26688 0.06939 0.0
O452 O 0.91922 0.35952 0.10855 0.0
O453 O 0.77853 0.28985 0.07261 0.0
O454 O 0.84763 0.39374 0.11248 0.0
O455 O 0.841 0.30221 0.14849 0.0
O456 O 0.80736 0.36273 0.08342 0.0
O457 O 0.78548 0.26871 0.10952 0.0
O458 O 0.86904 0.35762 0.14895 0.0
O459 O 0.84025 0.30504 0.04019 0.0
O460 O 0.90364 0.40403 0.07467 0.0
O461 O 0.89115 0.30328 0.10848 0.0
Sc462 Sc 0.44899 0.78369 0.60518 0.0
Sc463 Sc 0.53276 0.83027 0.62206 0.0
Sc464 Sc 0.48243 0.8679 0.61919 0.0
O465 O 0.48809 0.82752 0.61543 0.0
C466 C 0.44338 0.8342 0.56592 0.0
C467 C 0.50979 0.78483 0.57356 0.0
C468 C 0.55554 0.90089 0.59665 0.0
C469 C 0.48143 0.75774 0.64438 0.0
C470 C 0.41305 0.81309 0.6412 0.0
C471 C 0.52398 0.86844 0.67007 0.0
O472 O 0.43986 0.80572 0.5713 0.0
O473 O 0.5331 0.8112 0.58381 0.0
O474 O 0.52692 0.89804 0.5979 0.0
O475 O 0.45574 0.75941 0.6382 0.0
O476 O 0.43643 0.84303 0.64048 0.0
O477 O 0.53354 0.84911 0.66049 0.0
O478 O 0.41378 0.78987 0.62853 0.0
O479 O 0.51063 0.77988 0.63751 0.0
O480 O 0.50782 0.87934 0.65693 0.0
O481 O 0.47958 0.77112 0.58118 0.0
O482 O 0.45645 0.8587 0.58188 0.0
O483 O 0.56251 0.8803 0.60717 0.0
Sc484 Sc 0.67496 0.47985 0.07356 0.0
Sc485 Sc 0.71724 0.55075 0.11325 0.0
Sc486 Sc 0.62812 0.50399 0.11183 0.0
O487 O 0.6735 0.51164 0.0997 0.0
C488 C 0.61329 0.48409 0.05153 0.0
C489 C 0.73601 0.5478 0.05378 0.0
C490 C 0.67137 0.58248 0.1013 0.0
C491 C 0.73313 0.49164 0.11342 0.0
C492 C 0.61665 0.43064 0.11255 0.0
C493 C 0.67125 0.53198 0.16407 0.0
O494 O 0.63868 0.48084 0.04841 0.0
O495 O 0.74211 0.56236 0.07579 0.0
O496 O 0.64391 0.55505 0.10288 0.0
O497 O 0.71179 0.47587 0.09569 0.0
O498 O 0.60954 0.45204 0.12155 0.0
O499 O 0.69926 0.54484 0.15257 0.0
O500 O 0.63844 0.43732 0.09488 0.0
O501 O 0.7385 0.51948 0.12259 0.0
O502 O 0.6437 0.51641 0.15196 0.0
O503 O 0.71187 0.51868 0.04986 0.0
O504 O 0.60493 0.4904 0.07355 0.0
O505 O 0.69992 0.58542 0.10519 0.0
Sc506 Sc 0.20812 0.69895 0.59703 0.0
Sc507 Sc 0.15872 0.72981 0.62097 0.0
Sc508 Sc 0.12619 0.64255 0.61358 0.0
O509 O 0.16392 0.69011 0.61053 0.0
C510 C 0.15758 0.64458 0.55684 0.0
C511 C 0.19898 0.7562 0.57008 0.0
C512 C 0.08705 0.68035 0.59812 0.0
C513 C 0.23204 0.75183 0.64102 0.0
C514 C 0.18669 0.63181 0.62838 0.0
C515 C 0.1261 0.67909 0.66773 0.0
O516 O 0.18538 0.67007 0.56264 0.0
O517 O 0.17349 0.75141 0.5829 0.0
O518 O 0.09134 0.65534 0.59749 0.0
O519 O 0.23222 0.72695 0.6309 0.0
O520 O 0.1559 0.62259 0.62987 0.0
O521 O 0.14252 0.70859 0.65873 0.0
O522 O 0.20738 0.65784 0.61638 0.0
O523 O 0.20962 0.7593 0.63585 0.0
O524 O 0.11705 0.65284 0.6538 0.0
O525 O 0.21605 0.74244 0.57597 0.0
O526 O 0.13378 0.63019 0.57342 0.0
O527 O 0.10793 0.70803 0.60811 0.0
H528 H 0.16537 0.56831 0.94486 0.0
H529 H 0.08853 0.59045 0.96711 0.0
H530 H 0.08438 0.56529 0.0103 0.0
H531 H 0.10838 0.54355 0.04331 0.0
H532 H 0.18698 0.52434 0.01972 0.0
H533 H 0.18467 0.54169 0.97539 0.0
C534 C 0.14739 0.56724 0.95908 0.0
C535 C 0.12767 0.58155 0.95319 0.0
C536 C 0.14579 0.55359 0.98367 0.0
C537 C 0.10399 0.57954 0.9714 0.0
C538 C 0.10185 0.56542 0.99608 0.0
C539 C 0.12452 0.54269 0.02829 0.0
C540 C 0.14831 0.53335 0.03483 0.0
C541 C 0.12346 0.55335 0.00272 0.0
C542 C 0.16903 0.53216 0.01526 0.0
C543 C 0.16766 0.54196 0.98988 0.0
H544 H 0.61153 0.12303 0.51872 0.0
H545 H 0.54462 0.13487 0.57055 0.0
H546 H 0.5089 0.13016 0.53354 0.0
H547 H 0.5015 0.13066 0.48574 0.0
H548 H 0.56646 0.11543 0.43414 0.0
H549 H 0.59803 0.11291 0.47167 0.0
C550 C 0.58855 0.12352 0.52187 0.0
C551 C 0.5805 0.12926 0.5471 0.0
C552 C 0.5681 0.12052 0.50055 0.0
C553 C 0.55092 0.1301 0.55121 0.0
C554 C 0.53073 0.12772 0.53006 0.0
C555 C 0.52201 0.12587 0.48289 0.0
C556 C 0.53189 0.12335 0.45742 0.0
C557 C 0.53971 0.12408 0.50455 0.0
C558 C 0.55841 0.11717 0.4537 0.0
C559 C 0.57657 0.116 0.47511 0.0
H560 H 0.38874 0.59186 0.95722 0.0
H561 H 0.43107 0.52709 0.95658 0.0
H562 H 0.45565 0.54812 -0.0002 0.0
H563 H 0.46327 0.58383 0.03842 0.0
H564 H 0.41929 0.64736 0.03753 0.0
H565 H 0.397 0.62746 0.99427 0.0
C566 C 0.40336 0.58221 0.96639 0.0
C567 C 0.40783 0.55773 0.95368 0.0
C568 C 0.41695 0.59402 0.99111 0.0
C569 C 0.42723 0.54597 0.96589 0.0
C570 C 0.44115 0.55787 0.99065 0.0
C571 C 0.44876 0.59324 0.02878 0.0
C572 C 0.44292 0.61698 0.04144 0.0
C573 C 0.43583 0.58168 0.00359 0.0
C574 C 0.42423 0.62906 0.02848 0.0
C575 C 0.41142 0.61774 0.00363 0.0
H576 H 0.85426 0.47779 0.50551 0.0
H577 H 0.85639 0.40549 0.55715 0.0
H578 H 0.85758 0.37316 0.51955 0.0
H579 H 0.85071 0.36217 0.4721 0.0
H580 H 0.85168 0.43589 0.42028 0.0
H581 H 0.85709 0.47143 0.4577 0.0
C582 C 0.85594 0.45544 0.50837 0.0
C583 C 0.8553 0.44383 0.5338 0.0
C584 C 0.8569 0.43724 0.48668 0.0
C585 C 0.85721 0.41484 0.53759 0.0
C586 C 0.85763 0.3963 0.51615 0.0
C587 C 0.853 0.38643 0.46909 0.0
C588 C 0.85073 0.39655 0.4437 0.0
C589 C 0.85645 0.40675 0.49063 0.0
C590 C 0.85368 0.4279 0.43976 0.0
C591 C 0.8565 0.44804 0.46113 0.0
H592 H 0.46634 0.86902 0.95865 0.0
H593 H 0.38785 0.76978 0.93935 0.0
H594 H 0.35713 0.76859 0.97828 0.0
H595 H 0.35404 0.7934 0.01901 0.0
H596 H 0.43255 0.89148 0.04089 0.0
H597 H 0.46149 0.89563 -0.00038 0.0
C598 C 0.44232 0.8474 0.96289 0.0
C599 C 0.42953 0.81941 0.94628 0.0
C600 C 0.42487 0.84654 0.98581 0.0
C601 C 0.39844 0.79147 0.95201 0.0
C602 C 0.38079 0.79074 0.97425 0.0
C603 C 0.37744 0.81586 0.01487 0.0
C604 C 0.39125 0.84191 0.03325 0.0
C605 C 0.39408 0.81778 0.99152 0.0
C606 C 0.42136 0.87095 0.02716 0.0
C607 C 0.43798 0.87328 0.00359 0.0
H608 H 0.54944 0.44503 0.45089 0.0
H609 H 0.64915 0.46489 0.46828 0.0
H610 H 0.63574 0.45574 0.51444 0.0
H611 H 0.59467 0.43606 0.54907 0.0
H612 H 0.49376 0.41267 0.53325 0.0
H613 H 0.50878 0.43015 0.48756 0.0
C614 C 0.5682 0.44768 0.46489 0.0
C615 C 0.59998 0.45485 0.45609 0.0
C616 C 0.56016 0.44181 0.49169 0.0
C617 C 0.62423 0.45853 0.47444 0.0
C618 C 0.6167 0.45351 0.5009 0.0
C619 C 0.57606 0.43531 0.53573 0.0
C620 C 0.54315 0.42279 0.54433 0.0
C621 C 0.58456 0.44421 0.5096 0.0
C622 C 0.51935 0.42237 0.52703 0.0
C623 C 0.52786 0.43198 0.50086 0.0
H624 H 0.89111 0.50397 0.97785 0.0
H625 H 0.91137 0.44682 0.9216 0.0
H626 H 0.92371 0.41904 0.95681 0.0
H627 H 0.91607 0.40261 0.00325 0.0
H628 H 0.89864 0.46148 0.05966 0.0
H629 H 0.89894 0.49781 0.02493 0.0
C630 C 0.89944 0.48633 0.97341 0.0
C631 C 0.89992 0.47701 0.94736 0.0
C632 C 0.90679 0.47067 0.99377 0.0
C633 C 0.9109 0.45434 0.94161 0.0
C634 C 0.9177 0.43826 0.96173 0.0
C635 C 0.9141 0.42445 0.00797 0.0
C636 C 0.90728 0.42948 0.03378 0.0
C637 C 0.91403 0.44502 0.98787 0.0
C638 C 0.90435 0.45751 0.03987 0.0
C639 C 0.90396 0.47794 0.01997 0.0
H640 H 0.42746 0.79325 0.52381 0.0
H641 H 0.43522 0.88608 0.54848 0.0
H642 H 0.4164 0.89267 0.50527 0.0
H643 H 0.39487 0.87029 0.46076 0.0
H644 H 0.38718 0.77701 0.43756 0.0
H645 H 0.4092 0.77271 0.47966 0.0
C646 C 0.42504 0.81498 0.51988 0.0
C647 C 0.43245 0.83891 0.53961 0.0
C648 C 0.41436 0.81866 0.49504 0.0
C649 C 0.42956 0.86711 0.53379 0.0
C650 C 0.41882 0.87093 0.50903 0.0
C651 C 0.39869 0.84943 0.46481 0.0
C652 C 0.3894 0.82402 0.446 0.0
C653 C 0.41088 0.84671 0.48949 0.0
C654 C 0.39401 0.79685 0.45169 0.0
C655 C 0.4065 0.79428 0.47582 0.0
H656 H 0.54796 0.43848 0.04933 0.0
H657 H 0.63004 0.51029 0.00293 0.0
H658 H 0.59842 0.48567 0.96282 0.0
H659 H 0.55285 0.43673 0.9413 0.0
H660 H 0.47479 0.36032 0.98799 0.0
H661 H 0.49862 0.3937 0.0275 0.0
C662 C 0.55824 0.44943 0.03044 0.0
C663 C 0.59105 0.4761 0.02889 0.0
C664 C 0.54071 0.43383 0.00748 0.0
C665 C 0.60467 0.48977 0.0044 0.0
C666 C 0.58671 0.47554 0.98152 0.0
C667 C 0.54045 0.4281 0.96002 0.0
C668 C 0.51222 0.39628 0.9619 0.0
C669 C 0.55545 0.44651 0.98279 0.0
C670 C 0.4966 0.38485 0.98624 0.0
C671 C 0.51035 0.4038 0.00881 0.0
H672 H 0.175 0.61191 0.44017 0.0
H673 H 0.08604 0.51924 0.45745 0.0
H674 H 0.08275 0.54074 0.50071 0.0
H675 H 0.1089 0.58464 0.53534 0.0
H676 H 0.19818 0.67677 0.5159 0.0
H677 H 0.19743 0.65667 0.47212 0.0
C678 C 0.15456 0.59651 0.45324 0.0
C679 C 0.13095 0.56396 0.44565 0.0
C680 C 0.15314 0.60883 0.47801 0.0
C681 C 0.10445 0.54449 0.46273 0.0
C682 C 0.10278 0.5567 0.48759 0.0
C683 C 0.12797 0.60038 0.52145 0.0
C684 C 0.15394 0.632 0.52941 0.0
C685 C 0.12754 0.58862 0.49576 0.0
C686 C 0.17822 0.65209 0.51084 0.0
C687 C 0.17783 0.6407 0.48558 0.0
H688 H 0.55386 0.10708 0.94911 0.0
H689 H 0.63342 0.10928 0.99443 0.0
H690 H 0.60339 0.10536 0.03493 0.0
H691 H 0.56034 0.11258 0.05701 0.0
H692 H 0.48556 0.11938 0.0114 0.0
H693 H 0.5074 0.10813 0.9714 0.0
C694 C 0.56387 0.10536 0.96786 0.0
C695 C 0.59549 0.10815 0.96902 0.0
C696 C 0.54757 0.10545 0.99096 0.0
C697 C 0.6089 0.10687 0.99329 0.0
C698 C 0.5919 0.10496 0.01637 0.0
C699 C 0.54826 0.11059 0.03838 0.0
C700 C 0.52156 0.11689 0.03698 0.0
C701 C 0.56206 0.10593 0.01544 0.0
C702 C 0.50633 0.11479 0.01278 0.0
C703 C 0.51884 0.10844 0.98997 0.0
H704 H 0.37537 0.50512 0.52171 0.0
H705 H 0.4452 0.58682 0.56957 0.0
H706 H 0.47849 0.61508 0.53085 0.0
H707 H 0.48319 0.61977 0.48274 0.0
H708 H 0.4152 0.53709 0.43483 0.0
H709 H 0.38607 0.50556 0.47405 0.0
C710 C 0.39845 0.52862 0.52365 0.0
C711 C 0.40801 0.5439 0.54838 0.0
C712 C 0.41762 0.54456 0.50126 0.0
C713 C 0.43769 0.57448 0.55074 0.0
C714 C 0.45655 0.59074 0.52858 0.0
C715 C 0.46268 0.5944 0.48101 0.0
C716 C 0.4514 0.58062 0.45601 0.0
C717 C 0.4462 0.57648 0.50366 0.0
C718 C 0.4246 0.54794 0.4539 0.0
C719 C 0.40773 0.53009 0.47632 0.0
H720 H 0.28483 0.49532 0.14664 0.0
H721 H 0.26934 0.57238 0.17974 0.0
H722 H 0.32915 0.60773 0.18631 0.0
H723 H 0.38519 0.62169 0.17185 0.0
H724 H 0.40115 0.54559 0.1375 0.0
H725 H 0.34209 0.50478 0.14269 0.0
C726 C 0.29446 0.51921 0.15638 0.0
C727 C 0.27293 0.53166 0.16203 0.0
C728 C 0.32908 0.53996 0.15924 0.0
C729 C 0.28563 0.56258 0.17478 0.0
C730 C 0.31985 0.58294 0.17833 0.0
C731 C 0.37587 0.59589 0.16633 0.0
C732 C 0.39714 0.58679 0.15373 0.0
C733 C 0.34183 0.57276 0.16891 0.0
C734 C 0.3851 0.55323 0.14707 0.0
C735 C 0.35125 0.52992 0.14983 0.0
H736 H 0.84095 0.39039 0.62795 0.0
H737 H 0.7538 0.39242 0.6555 0.0
H738 H 0.72544 0.33252 0.66336 0.0
H739 H 0.72079 0.27931 0.65162 0.0
H740 H 0.80539 0.27595 0.61986 0.0
H741 H 0.83988 0.33656 0.62485 0.0
C742 C 0.81635 0.37782 0.63678 0.0
C743 C 0.79919 0.39537 0.64097 0.0
C744 C 0.79959 0.34308 0.63988 0.0
C745 C 0.76722 0.37909 0.65208 0.0
C746 C 0.75096 0.34488 0.65635 0.0
C747 C 0.74713 0.29185 0.6467 0.0
C748 C 0.76064 0.27374 0.63505 0.0
C749 C 0.76612 0.32648 0.64868 0.0
C750 C 0.79467 0.28971 0.62885 0.0
C751 C 0.81421 0.32432 0.63146 0.0
H752 H 0.44811 0.73309 0.17886 0.0
H753 H 0.53283 0.80384 0.13394 0.0
H754 H 0.50763 0.83906 0.12921 0.0
H755 H 0.45548 0.84189 0.12838 0.0
H756 H 0.3691 0.76741 0.16948 0.0
H757 H 0.4008 0.7418 0.18542 0.0
C758 C 0.46158 0.7568 0.16882 0.0
C759 C 0.4918 0.76537 0.1562 0.0
C760 C 0.44616 0.77596 0.16499 0.0
C761 C 0.50934 0.79645 0.14367 0.0
C762 C 0.49471 0.81643 0.14064 0.0
C763 C 0.44416 0.82083 0.14162 0.0
C764 C 0.4101 0.80622 0.14763 0.0
C765 C 0.46219 0.80531 0.14974 0.0
C766 C 0.39532 0.77878 0.16455 0.0
C767 C 0.41338 0.76408 0.17356 0.0
H768 H 0.71489 0.51824 0.62386 0.0
H769 H 0.73008 0.44287 0.66016 0.0
H770 H 0.67254 0.41392 0.67551 0.0
H771 H 0.61576 0.40256 0.668 0.0
H772 H 0.59895 0.47504 0.62846 0.0
H773 H 0.65901 0.51313 0.62582 0.0
C774 C 0.70583 0.49629 0.63608 0.0
C775 C 0.72616 0.48223 0.64059 0.0
C776 C 0.67221 0.47895 0.64386 0.0
C777 C 0.71446 0.45374 0.6563 0.0
C778 C 0.68157 0.43712 0.66494 0.0
C779 C 0.6253 0.42726 0.65978 0.0
C780 C 0.60322 0.4357 0.64784 0.0
C781 C 0.65974 0.44828 0.65727 0.0
C782 C 0.61559 0.4679 0.63762 0.0
C783 C 0.64998 0.48953 0.63577 0.0
H784 H 0.21466 0.60716 0.16829 0.0
H785 H 0.13161 0.59568 0.12236 0.0
H786 H 0.15127 0.65539 0.12641 0.0
H787 H 0.19997 0.71145 0.13296 0.0
H788 H 0.28472 0.72204 0.17622 0.0
H789 H 0.25613 0.66223 0.18428 0.0
C790 C 0.20018 0.61764 0.1602 0.0
C791 C 0.17215 0.59758 0.14482 0.0
C792 C 0.21227 0.65194 0.16189 0.0
C793 C 0.15329 0.61093 0.13434 0.0
C794 C 0.16477 0.6451 0.1364 0.0
C795 C 0.21141 0.70077 0.1452 0.0
C796 C 0.24451 0.72076 0.15361 0.0
C797 C 0.19539 0.66609 0.14867 0.0
C798 C 0.25932 0.70685 0.16934 0.0
C799 C 0.24312 0.67266 0.17375 0.0
H800 H 0.55387 0.17221 0.63977 0.0
H801 H 0.65117 0.25864 0.64963 0.0
H802 H 0.62592 0.2932 0.65788 0.0
H803 H 0.57762 0.30067 0.65342 0.0
H804 H 0.48032 0.21584 0.63952 0.0
H805 H 0.50373 0.17865 0.64252 0.0
C806 C 0.56932 0.19836 0.64465 0.0
C807 C 0.60425 0.21304 0.64398 0.0
C808 C 0.5546 0.21842 0.64827 0.0
C809 C 0.62422 0.24699 0.64995 0.0
C810 C 0.6098 0.26675 0.65454 0.0
C811 C 0.56136 0.27393 0.65175 0.0
C812 C 0.52746 0.26105 0.64577 0.0
C813 C 0.57521 0.25305 0.6524 0.0
C814 C 0.50655 0.22637 0.64406 0.0
C815 C 0.52002 0.20515 0.64548 0.0
H816 H 0.4639 0.59894 0.85724 0.0
H817 H 0.38302 0.5961 0.81337 0.0
H818 H 0.41754 0.65486 0.80239 0.0
H819 H 0.46244 0.70848 0.81773 0.0
H820 H 0.54036 0.71264 0.86629 0.0
H821 H 0.51633 0.65229 0.86238 0.0
C822 C 0.4546 0.6109 0.84416 0.0
C823 C 0.42101 0.59373 0.83642 0.0
C824 C 0.47397 0.64523 0.83933 0.0
C825 C 0.40883 0.60919 0.81965 0.0
C826 C 0.42846 0.64283 0.8136 0.0
C827 C 0.47506 0.69625 0.8262 0.0
C828 C 0.5026 0.71447 0.84257 0.0
C829 C 0.45994 0.66152 0.82514 0.0
C830 C 0.51906 0.69885 0.85358 0.0
C831 C 0.50496 0.66427 0.85169 0.0
H832 H 0.68846 0.40769 0.32616 0.0
H833 H 0.77496 0.50355 0.34137 0.0
H834 H 0.81014 0.47785 0.34194 0.0
H835 H 0.81386 0.42661 0.3476 0.0
H836 H 0.72523 0.33082 0.33844 0.0
H837 H 0.69333 0.3578 0.32616 0.0
C838 C 0.71516 0.4232 0.32897 0.0
C839 C 0.72887 0.4574 0.33434 0.0
C840 C 0.73475 0.40798 0.33097 0.0
C841 C 0.76362 0.47713 0.33737 0.0
C842 C 0.78371 0.46234 0.33805 0.0
C843 C 0.78779 0.4118 0.34218 0.0
C844 C 0.77172 0.37688 0.34403 0.0
C845 C 0.76922 0.42756 0.33636 0.0
C846 C 0.73791 0.35776 0.33731 0.0
C847 C 0.71971 0.37317 0.33032 0.0
H848 H 0.27352 0.69399 0.83322 0.0
H849 H 0.27391 0.78461 0.85335 0.0
H850 H 0.33462 0.81633 0.84777 0.0
H851 H 0.38753 0.81533 0.84735 0.0
H852 H 0.38615 0.72332 0.82989 0.0
H853 H 0.32597 0.69525 0.82357 0.0
C854 C 0.28685 0.72089 0.83543 0.0
C855 C 0.26958 0.73699 0.844 0.0
C856 C 0.32165 0.73858 0.83309 0.0
C857 C 0.2868 0.77178 0.84668 0.0
C858 C 0.32154 0.7898 0.84381 0.0
C859 C 0.37425 0.78945 0.84123 0.0
C860 C 0.3912 0.77123 0.83972 0.0
C861 C 0.33935 0.77311 0.83853 0.0
C862 C 0.37361 0.73775 0.83166 0.0
C863 C 0.33915 0.72162 0.82815 0.0
H864 H 0.58905 0.36944 0.32757 0.0
H865 H 0.51746 0.38633 0.36869 0.0
H866 H 0.47787 0.32636 0.36912 0.0
H867 H 0.47078 0.26972 0.36793 0.0
H868 H 0.54496 0.25425 0.3293 0.0
H869 H 0.57593 0.31278 0.31693 0.0
C870 C 0.5642 0.35995 0.33561 0.0
C871 C 0.55614 0.38178 0.34842 0.0
C872 C 0.54228 0.3256 0.33655 0.0
C873 C 0.524 0.36969 0.35872 0.0
C874 C 0.50158 0.33541 0.35924 0.0
C875 C 0.49292 0.279 0.35584 0.0
C876 C 0.50608 0.25818 0.34991 0.0
C877 C 0.51137 0.31307 0.34973 0.0
C878 C 0.53479 0.2702 0.33432 0.0
C879 C 0.55258 0.30365 0.32739 0.0
H880 H 0.21667 0.60034 0.82735 0.0
H881 H 0.13617 0.52899 0.87529 0.0
H882 H 0.15797 0.49057 0.87201 0.0
H883 H 0.2072 0.48413 0.86435 0.0
H884 H 0.28802 0.55651 0.81701 0.0
H885 H 0.25828 0.587 0.81032 0.0
C886 C 0.20332 0.57585 0.83624 0.0
C887 C 0.17535 0.5676 0.85188 0.0
C888 C 0.21625 0.55421 0.83458 0.0
C889 C 0.15786 0.53579 0.86317 0.0
C890 C 0.17049 0.51395 0.8615 0.0
C891 C 0.21758 0.50571 0.85164 0.0
C892 C 0.25011 0.51864 0.84182 0.0
C893 C 0.20075 0.52377 0.84852 0.0
C894 C 0.26324 0.54652 0.82522 0.0
C895 C 0.24638 0.56413 0.82154 0.0
H896 H 0.59341 0.13817 0.36621 0.0
H897 H 0.58911 0.22214 0.33451 0.0
H898 H 0.6486 0.24997 0.3245 0.0
H899 H 0.7027 0.25581 0.33475 0.0
H900 H 0.7087 0.17489 0.37064 0.0
H901 H 0.64782 0.13989 0.36843 0.0
C902 C 0.6054 0.1619 0.3561 0.0
C903 C 0.58733 0.17832 0.35109 0.0
C904 C 0.63999 0.17843 0.35161 0.0
C905 C 0.60284 0.20926 0.33844 0.0
C906 C 0.63681 0.22522 0.33291 0.0
C907 C 0.69065 0.23004 0.34111 0.0
C908 C 0.70974 0.21788 0.35308 0.0
C909 C 0.65586 0.21089 0.34086 0.0
C910 C 0.69429 0.18458 0.36126 0.0
C911 C 0.65949 0.16479 0.36031 0.0
H912 H 0.60288 0.4236 0.86208 0.0
H913 H 0.59908 0.3347 0.89229 0.0
H914 H 0.65885 0.35933 0.88648 0.0
H915 H 0.71282 0.40776 0.87771 0.0
H916 H 0.71909 0.49824 0.84906 0.0
H917 H 0.65799 0.47126 0.84879 0.0
C918 C 0.61514 0.40953 0.86696 0.0
C919 C 0.59652 0.37753 0.87801 0.0
C920 C 0.65005 0.42418 0.864 0.0
C921 C 0.61279 0.35957 0.88419 0.0
C922 C 0.64705 0.3736 0.88084 0.0
C923 C 0.70087 0.42153 0.87105 0.0
C924 C 0.72051 0.45508 0.86374 0.0
C925 C 0.66602 0.40618 0.87154 0.0
C926 C 0.70457 0.47235 0.85477 0.0
C927 C 0.66962 0.457 0.85484 0.0
H928 H 0.25288 0.7161 0.31558 0.0
H929 H 0.17568 0.72109 0.35901 0.0
H930 H 0.13916 0.66093 0.35394 0.0
H931 H 0.13768 0.60716 0.34989 0.0
H932 H 0.21946 0.60334 0.31269 0.0
H933 H 0.2454 0.66236 0.30182 0.0
C934 C 0.22738 0.70411 0.32271 0.0
C935 C 0.21702 0.72248 0.33805 0.0
C936 C 0.20776 0.66943 0.3214 0.0
C937 C 0.18407 0.70722 0.34717 0.0
C938 C 0.16346 0.67273 0.34467 0.0
C939 C 0.16036 0.61899 0.33833 0.0
C940 C 0.17709 0.60138 0.33246 0.0
C941 C 0.17619 0.65342 0.33374 0.0
C942 C 0.2065 0.61674 0.31762 0.0
C943 C 0.2214 0.65049 0.31159 0.0
H944 H 0.55949 0.27454 0.87714 0.0
H945 H 0.46644 0.18207 0.873 0.0
H946 H 0.49696 0.15117 0.87014 0.0
H947 H 0.55019 0.15079 0.87609 0.0
H948 H 0.6419 0.24436 0.88434 0.0
H949 H 0.61192 0.2747 0.8783 0.0
C950 C 0.54592 0.24762 0.87512 0.0
C951 C 0.51097 0.23042 0.87565 0.0
C952 C 0.56346 0.23033 0.87463 0.0
C953 C 0.49345 0.1957 0.8726 0.0
C954 C 0.5109 0.17812 0.87127 0.0
C955 C 0.56354 0.1778 0.87603 0.0
C956 C 0.59807 0.19541 0.88096 0.0
C957 C 0.5459 0.19515 0.87338 0.0
C958 C 0.61524 0.23037 0.88093 0.0
C959 C 0.59816 0.24771 0.87744 0.0
H960 H 0.27692 0.56209 0.33486 0.0
H961 H 0.26024 0.47161 0.37208 0.0
H962 H 0.32005 0.49088 0.37032 0.0
H963 H 0.3775 0.53901 0.36745 0.0
H964 H 0.39306 0.63055 0.33305 0.0
H965 H 0.33355 0.60528 0.32386 0.0
C966 C 0.2863 0.54614 0.34181 0.0
C967 C 0.2644 0.51582 0.35402 0.0
C968 C 0.32069 0.55785 0.34148 0.0
C969 C 0.27666 0.49513 0.36265 0.0
C970 C 0.31093 0.50632 0.3619 0.0
C971 C 0.36789 0.55276 0.35689 0.0
C972 C 0.38935 0.58646 0.35084 0.0
C973 C 0.33333 0.53843 0.35269 0.0
C974 C 0.37681 0.60448 0.33768 0.0
C975 C 0.34278 0.59014 0.33267 0.0
H976 H 0.76449 0.37547 0.85919 0.0
H977 H 0.86473 0.39384 0.86937 0.0
H978 H 0.84452 0.33377 0.86828 0.0
H979 H 0.79668 0.27593 0.87169 0.0
H980 H 0.69692 0.25909 0.8614 0.0
H981 H 0.71845 0.31841 0.85458 0.0
C982 C 0.78193 0.36624 0.86053 0.0
C983 C 0.81584 0.38871 0.86465 0.0
C984 C 0.77014 0.33191 0.85994 0.0
C985 C 0.83842 0.37678 0.86614 0.0
C986 C 0.82685 0.34247 0.86569 0.0
C987 C 0.77996 0.28528 0.86697 0.0
C988 C 0.74535 0.26347 0.86717 0.0
C989 C 0.79255 0.31972 0.86357 0.0
C990 C 0.72368 0.27567 0.86139 0.0
C991 C 0.73593 0.30956 0.85766 0.0
H992 H 0.43213 0.82409 0.34875 0.0
H993 H 0.34463 0.73299 0.32499 0.0
H994 H 0.37703 0.70454 0.32368 0.0
H995 H 0.42571 0.70243 0.33992 0.0
H996 H 0.5123 0.79223 0.36636 0.0
H997 H 0.48501 0.82456 0.35566 0.0
C998 C 0.42044 0.79839 0.34226 0.0
C999 C 0.38583 0.78039 0.3377 0.0
C1000 C 0.4389 0.78178 0.3427 0.0
C1001 C 0.37112 0.74718 0.32909 0.0
C1002 C 0.38956 0.73082 0.32854 0.0
C1003 C 0.4389 0.72926 0.34261 0.0
C1004 C 0.4705 0.74499 0.35441 0.0
C1005 C 0.42278 0.74732 0.33704 0.0
C1006 C 0.4878 0.77971 0.35744 0.0
C1007 C 0.4721 0.79809 0.3515 0.0
H1008 H 0.57067 0.28179 0.13551 0.0
H1009 H 0.47369 0.27349 0.13322 0.0
H1010 H 0.49971 0.33448 0.1328 0.0
H1011 H 0.55059 0.38956 0.12488 0.0
H1012 H 0.64666 0.39527 0.124 0.0
H1013 H 0.62068 0.3362 0.134 0.0
C1014 C 0.55523 0.2934 0.13572 0.0
C1015 C 0.52043 0.27334 0.13422 0.0
C1016 C 0.57033 0.32812 0.13437 0.0
C1017 C 0.50058 0.2885 0.1346 0.0
C1018 C 0.5155 0.32336 0.13396 0.0
C1019 C 0.56574 0.37789 0.12753 0.0
C1020 C 0.60041 0.39654 0.12333 0.0
C1021 C 0.55042 0.34339 0.13258 0.0
C1022 C 0.61987 0.38125 0.12673 0.0
C1023 C 0.60506 0.34748 0.13249 0.0
H1024 H 0.27948 0.57519 0.65595 0.0
H1025 H 0.19616 0.48531 0.62568 0.0
H1026 H 0.16166 0.51184 0.62618 0.0
H1027 H 0.15913 0.56418 0.62707 0.0
H1028 H 0.24451 0.65445 0.65458 0.0
H1029 H 0.27404 0.62423 0.66367 0.0
C1030 C 0.2535 0.56112 0.65009 0.0
C1031 C 0.24056 0.52859 0.64037 0.0
C1032 C 0.23429 0.57685 0.64961 0.0
C1033 C 0.20674 0.51045 0.63321 0.0
C1034 C 0.1871 0.52574 0.63323 0.0
C1035 C 0.18374 0.57685 0.63585 0.0
C1036 C 0.19985 0.61148 0.63989 0.0
C1037 C 0.20112 0.55946 0.64019 0.0
C1038 C 0.23184 0.62782 0.65108 0.0
C1039 C 0.24877 0.6106 0.65619 0.0
H1040 H 0.72651 0.24665 0.13527 0.0
H1041 H 0.72502 0.24656 0.05083 0.0
H1042 H 0.66464 0.22009 0.05101 0.0
H1043 H 0.61285 0.20114 0.07454 0.0
H1044 H 0.61148 0.1991 0.15875 0.0
H1045 H 0.67235 0.22217 0.15937 0.0
C1046 C 0.71282 0.24022 0.117 0.0
C1047 C 0.73026 0.24896 0.09308 0.0
C1048 C 0.67772 0.22517 0.11718 0.0
C1049 C 0.71224 0.24054 0.0695 0.0
C1050 C 0.67769 0.22545 0.06954 0.0
C1051 C 0.62587 0.20583 0.09308 0.0
C1052 C 0.60801 0.19925 0.11657 0.0
C1053 C 0.66033 0.21853 0.09319 0.0
C1054 C 0.62493 0.2044 0.14042 0.0
C1055 C 0.65964 0.21754 0.14074 0.0
H1056 H 0.42982 0.71334 0.67385 0.0
H1057 H 0.5197 0.72886 0.63572 0.0
H1058 H 0.49963 0.66912 0.63692 0.0
H1059 H 0.45055 0.61242 0.63841 0.0
H1060 H 0.35945 0.5977 0.67348 0.0
H1061 H 0.38595 0.65684 0.6844 0.0
C1062 C 0.44552 0.70373 0.66668 0.0
C1063 C 0.47576 0.72531 0.65416 0.0
C1064 C 0.43326 0.66928 0.66653 0.0
C1065 C 0.49618 0.71273 0.64532 0.0
C1066 C 0.48452 0.67846 0.64571 0.0
C1067 C 0.43718 0.62206 0.64954 0.0
C1068 C 0.40329 0.60111 0.65524 0.0
C1069 C 0.45222 0.65639 0.65473 0.0
C1070 C 0.38571 0.61362 0.66916 0.0
C1071 C 0.40074 0.64744 0.67514 0.0
H1072 H 0.84102 0.44836 0.11755 0.0
H1073 H 0.75252 0.35299 0.10546 0.0
H1074 H 0.71749 0.3775 0.11414 0.0
H1075 H 0.7122 0.42682 0.11827 0.0
H1076 H 0.79968 0.52362 0.12621 0.0
H1077 H 0.83502 0.49781 0.12705 0.0
C1078 C 0.81408 0.43298 0.11733 0.0
C1079 C 0.79927 0.39912 0.11044 0.0
C1080 C 0.794 0.4475 0.12157 0.0
C1081 C 0.76438 0.37927 0.11021 0.0
C1082 C 0.74436 0.3932 0.11527 0.0
C1083 C 0.73898 0.44221 0.12078 0.0
C1084 C 0.75348 0.47697 0.12177 0.0
C1085 C 0.75892 0.42743 0.11994 0.0
C1086 C 0.78804 0.49673 0.12544 0.0
C1087 C 0.80822 0.482 0.12556 0.0
H1088 H 0.38003 0.84762 0.64048 0.0
H1089 H 0.37668 0.75978 0.6722 0.0
H1090 H 0.31838 0.73758 0.68451 0.0
H1091 H 0.26636 0.73642 0.67475 0.0
H1092 H 0.26767 0.81956 0.63599 0.0
H1093 H 0.32853 0.85126 0.63919 0.0
C1094 C 0.36676 0.82424 0.65098 0.0
C1095 C 0.38212 0.80496 0.65511 0.0
C1096 C 0.33269 0.81077 0.65653 0.0
C1097 C 0.36495 0.77466 0.66857 0.0
C1098 C 0.33168 0.76199 0.67555 0.0
C1099 C 0.28 0.76209 0.66813 0.0
C1100 C 0.26295 0.77543 0.65456 0.0
C1101 C 0.31484 0.7788 0.66799 0.0
C1102 C 0.28042 0.80875 0.64636 0.0
C1103 C 0.31528 0.8266 0.64773 0.0
H1104 H 0.14354 0.43007 0.21021 0.0
H1105 H 0.0924 0.48523 0.19593 0.0
H1106 H 0.08316 0.48688 0.24271 0.0
H1107 H 0.09464 0.47768 0.28792 0.0
H1108 H 0.14572 0.42229 0.30186 0.0
H1109 H 0.14947 0.41552 0.25509 0.0
C1110 C 0.13006 0.44215 0.21728 0.0
C1111 C 0.11912 0.45786 0.19955 0.0
C1112 C 0.12493 0.44319 0.24424 0.0
C1113 C 0.10124 0.47298 0.20909 0.0
C1114 C 0.09603 0.47409 0.2359 0.0
C1115 C 0.10615 0.4637 0.28079 0.0
C1116 C 0.12032 0.45105 0.29855 0.0
C1117 C 0.10852 0.46001 0.25371 0.0
C1118 C 0.13487 0.4327 0.28879 0.0
C1119 C 0.13714 0.42883 0.26196 0.0
H1120 H 0.71155 0.15061 0.79304 0.0
H1121 H 0.60472 0.10589 0.80121 0.0
H1122 H 0.59878 0.10485 0.75377 0.0
H1123 H 0.62411 0.11817 0.71011 0.0
H1124 H 0.7311 0.16326 0.70253 0.0
H1125 H 0.73657 0.16249 0.74972 0.0
C1126 C 0.6869 0.14055 0.78453 0.0
C1127 C 0.65868 0.12851 0.80071 0.0
C1128 C 0.68364 0.14012 0.75734 0.0
C1129 C 0.62694 0.11539 0.78924 0.0
C1130 C 0.62349 0.11481 0.7621 0.0
C1131 C 0.64862 0.12773 0.71874 0.0
C1132 C 0.67711 0.14088 0.70272 0.0
C1133 C 0.65171 0.12735 0.74598 0.0
C1134 C 0.70868 0.15308 0.71431 0.0
C1135 C 0.7119 0.15268 0.74134 0.0
H1136 H 0.56913 0.71148 0.20873 0.0
H1137 H 0.50897 0.60548 0.19615 0.0
H1138 H 0.50306 0.59633 0.24334 0.0
H1139 H 0.51036 0.6191 0.28823 0.0
H1140 H 0.56997 0.72558 0.29952 0.0
H1141 H 0.58039 0.73355 0.25298 0.0
C1142 C 0.55507 0.68628 0.21622 0.0
C1143 C 0.53926 0.65933 0.1988 0.0
C1144 C 0.55118 0.6812 0.2433 0.0
C1145 C 0.52145 0.62682 0.20902 0.0
C1146 C 0.51782 0.62153 0.23607 0.0
C1147 C 0.52585 0.64399 0.28054 0.0
C1148 C 0.53881 0.67164 0.29752 0.0
C1149 C 0.5318 0.64865 0.25341 0.0
C1150 C 0.55911 0.70373 0.28708 0.0
C1151 C 0.56526 0.70843 0.26035 0.0
H1152 H 0.88045 0.50557 0.69322 0.0
H1153 H 0.84912 0.57919 0.68868 0.0
H1154 H 0.84424 0.57881 0.73619 0.0
H1155 H 0.84578 0.55523 0.77878 0.0
H1156 H 0.87658 0.48121 0.78291 0.0
H1157 H 0.88437 0.48393 0.73569 0.0
C1158 C 0.87307 0.52198 0.70257 0.0
C1159 C 0.86506 0.54227 0.68733 0.0
C1160 C 0.86963 0.52116 0.72981 0.0
C1161 C 0.85538 0.56322 0.69989 0.0
C1162 C 0.85237 0.5629 0.72706 0.0
C1163 C 0.854 0.53956 0.76933 0.0
C1164 C 0.86028 0.51785 0.78433 0.0
C1165 C 0.85873 0.54142 0.74216 0.0
C1166 C 0.87146 0.49809 0.77183 0.0
C1167 C 0.87602 0.49967 0.74482 0.0
H1168 H 0.36931 0.88036 0.28656 0.0
H1169 H 0.26518 0.8514 0.29407 0.0
H1170 H 0.26013 0.85218 0.24689 0.0
H1171 H 0.28346 0.85543 0.20331 0.0
H1172 H 0.38752 0.88502 0.19528 0.0
H1173 H 0.39431 0.88994 0.24267 0.0
C1174 C 0.34564 0.87474 0.27794 0.0
C1175 C 0.31761 0.86529 0.29401 0.0
C1176 C 0.34271 0.87503 0.25058 0.0
C1177 C 0.2872 0.85838 0.28234 0.0
C1178 C 0.28417 0.85872 0.25526 0.0
C1179 C 0.3077 0.8633 0.21191 0.0
C1180 C 0.33478 0.86945 0.19579 0.0
C1181 C 0.31148 0.86606 0.23918 0.0
C1182 C 0.36619 0.88011 0.20723 0.0
C1183 C 0.3701 0.88278 0.23437 0.0
H1184 H 0.44624 0.28779 0.70547 0.0
H1185 H 0.47979 0.39317 0.70621 0.0
H1186 H 0.48247 0.39365 0.75381 0.0
H1187 H 0.47747 0.36472 0.79514 0.0
H1188 H 0.44411 0.25941 0.79423 0.0
H1189 H 0.43944 0.25855 0.74675 0.0
C1190 C 0.45374 0.31082 0.71599 0.0
C1191 C 0.46286 0.34039 0.70217 0.0
C1192 C 0.45569 0.31108 0.74335 0.0
C1193 C 0.47269 0.37001 0.71626 0.0
C1194 C 0.47437 0.37037 0.74351 0.0
C1195 C 0.46933 0.3416 0.78456 0.0
C1196 C 0.46138 0.31225 0.79826 0.0
C1197 C 0.46644 0.34117 0.75723 0.0
C1198 C 0.45044 0.28242 0.78422 0.0
C1199 C 0.4477 0.28185 0.75705 0.0
H1200 H 0.50894 0.87983 0.7912 0.0
H1201 H 0.57704 0.84123 0.79174 0.0
H1202 H 0.58261 0.84707 0.74444 0.0
H1203 H 0.56372 0.85733 0.70273 0.0
H1204 H 0.49447 0.89441 0.70168 0.0
H1205 H 0.49444 0.89558 0.74943 0.0
C1206 C 0.52532 0.87303 0.78107 0.0
C1207 C 0.5421 0.85959 0.79512 0.0
C1208 C 0.52818 0.87608 0.75373 0.0
C1209 C 0.5635 0.85132 0.78154 0.0
C1210 C 0.56671 0.85461 0.75443 0.0
C1211 C 0.54892 0.86612 0.71287 0.0
C1212 C 0.52875 0.8753 0.69855 0.0
C1213 C 0.54847 0.86608 0.74028 0.0
C1214 C 0.51017 0.88708 0.71212 0.0
C1215 C 0.50995 0.88754 0.73947 0.0
H1216 H 0.61753 0.50483 0.19719 0.0
H1217 H 0.7247 0.56838 0.19568 0.0
H1218 H 0.72555 0.57378 0.24291 0.0
H1219 H 0.69703 0.55784 0.28459 0.0
H1220 H 0.59038 0.4925 0.28753 0.0
H1221 H 0.58816 0.49131 0.23967 0.0
C1222 C 0.64105 0.51997 0.20717 0.0
C1223 C 0.67103 0.5358 0.19281 0.0
C1224 C 0.6415 0.52286 0.23456 0.0
C1225 C 0.70125 0.55554 0.20613 0.0
C1226 C 0.70181 0.55879 0.23319 0.0
C1227 C 0.67316 0.54349 0.27486 0.0
C1228 C 0.64398 0.52496 0.28966 0.0
C1229 C 0.67221 0.54215 0.24757 0.0
C1230 C 0.61325 0.50701 0.27664 0.0
C1231 C 0.61201 0.50608 0.24927 0.0
H1232 H 0.12606 0.70129 0.78878 0.0
H1233 H 0.1134 0.60243 0.78993 0.0
H1234 H 0.10854 0.59928 0.74234 0.0
H1235 H 0.11294 0.62677 0.70001 0.0
H1236 H 0.12513 0.72556 0.69963 0.0
H1237 H 0.12463 0.72625 0.74711 0.0
C1238 C 0.12205 0.67898 0.77863 0.0
C1239 C 0.12054 0.65238 0.79285 0.0
C1240 C 0.11919 0.67727 0.7513 0.0
C1241 C 0.11474 0.62337 0.77944 0.0
C1242 C 0.11204 0.62155 0.75219 0.0
C1243 C 0.1148 0.64813 0.71033 0.0
C1244 C 0.11957 0.67621 0.69622 0.0
C1245 C 0.11485 0.64861 0.73785 0.0
C1246 C 0.12194 0.70374 0.70995 0.0
C1247 C 0.12172 0.70425 0.73716 0.0
H1248 H 0.48112 0.10805 0.29511 0.0
H1249 H 0.40432 0.13516 0.29968 0.0
H1250 H 0.40593 0.14175 0.25231 0.0
H1251 H 0.43163 0.14338 0.21006 0.0
H1252 H 0.50918 0.11727 0.20555 0.0
H1253 H 0.50486 0.10695 0.25252 0.0
C1254 C 0.46427 0.11477 0.28573 0.0
C1255 C 0.44269 0.12116 0.30095 0.0
C1256 C 0.46584 0.11927 0.25854 0.0
C1257 C 0.42127 0.13019 0.28844 0.0
C1258 C 0.42228 0.13414 0.26136 0.0
C1259 C 0.44768 0.13552 0.21932 0.0
C1260 C 0.47092 0.13145 0.20429 0.0
C1261 C 0.44501 0.12949 0.24631 0.0
C1262 C 0.49115 0.12077 0.21662 0.0
C1263 C 0.48866 0.11477 0.24349 0.0
H1264 H 0.3627 0.46777 0.70986 0.0
H1265 H 0.25848 0.43947 0.70594 0.0
H1266 H 0.25332 0.43094 0.75292 0.0
H1267 H 0.279 0.43596 0.79547 0.0
H1268 H 0.38345 0.46561 0.80024 0.0
H1269 H 0.38749 0.46834 0.75265 0.0
C1270 C 0.3388 0.45951 0.71923 0.0
C1271 C 0.3112 0.45475 0.70425 0.0
C1272 C 0.3359 0.45477 0.74648 0.0
C1273 C 0.28034 0.44371 0.71683 0.0
C1274 C 0.27726 0.43873 0.74379 0.0
C1275 C 0.30259 0.44249 0.7862 0.0
C1276 C 0.33092 0.45089 0.8016 0.0
C1277 C 0.30499 0.4448 0.75886 0.0
C1278 C 0.36119 0.45915 0.78901 0.0
C1279 C 0.36361 0.46093 0.76173 0.0
H1280 H 0.83554 0.27807 0.19414 0.0
H1281 H 0.86695 0.38295 0.1915 0.0
H1282 H 0.86678 0.38517 0.23898 0.0
H1283 H 0.85846 0.35789 0.28111 0.0
H1284 H 0.82685 0.25304 0.28441 0.0
H1285 H 0.82656 0.25043 0.23674 0.0
C1286 C 0.84211 0.30134 0.20395 0.0
C1287 C 0.85132 0.33026 0.18926 0.0
C1288 C 0.84221 0.30259 0.23135 0.0
C1289 C 0.85993 0.36029 0.2023 0.0
C1290 C 0.85988 0.36166 0.22947 0.0
C1291 C 0.8517 0.33447 0.27148 0.0
C1292 C 0.84285 0.30578 0.28634 0.0
C1293 C 0.85132 0.33305 0.24416 0.0
C1294 C 0.83382 0.27557 0.27345 0.0
C1295 C 0.83358 0.274 0.24619 0.0
H1296 H 0.95899 0.34735 0.06728 0.0
H1297 H 0.94736 0.31674 0.1478 0.0
H1298 H 0.00635 0.33232 0.15 0.0
H1299 H 0.0625 0.36799 0.13215 0.0
H1300 H 0.07397 0.40304 0.05283 0.0
H1301 H 0.01377 0.37072 0.04623 0.0
C1302 C 0.96932 0.34307 0.08493 0.0
C1303 C 0.94964 0.33158 0.10746 0.0
C1304 C 0.00318 0.35279 0.08612 0.0
C1305 C 0.96258 0.32582 0.13035 0.0
C1306 C -0.00379 0.3348 0.13159 0.0
C1307 C 0.05185 0.3669 0.11303 0.0
C1308 C 0.07218 0.388 0.09309 0.0
C1309 C 0.0171 0.35016 0.11004 0.0
C1310 C 0.05845 0.38689 0.0684 0.0
C1311 C 0.02404 0.36892 0.0648 0.0
H1312 H 0.61739 0.9386 0.61672 0.0
H1313 H 0.5523 0.93474 0.55482 0.0
H1314 H 0.5848 0.99503 0.54987 0.0
H1315 H 0.62156 0.04835 0.57115 0.0
H1316 H 0.68521 0.05302 0.63438 0.0
H1317 H 0.66376 0.99292 0.63083 0.0
C1318 C 0.61137 0.95088 0.60136 0.0
C1319 C 0.58221 0.93268 0.58657 0.0
C1320 C 0.62926 0.98571 0.59948 0.0
C1321 C 0.57449 0.94859 0.56665 0.0
C1322 C 0.59282 0.98304 0.56401 0.0
C1323 C 0.63133 0.0362 0.58358 0.0
C1324 C 0.65409 0.05438 0.60337 0.0
C1325 C 0.61862 0.00187 0.58161 0.0
C1326 C 0.66732 0.03905 0.61917 0.0
C1327 C 0.65498 0.00477 0.61721 0.0
H1328 H 0.63845 0.59157 0.06218 0.0
H1329 H 0.69785 0.63914 0.13039 0.0
H1330 H 0.67744 0.67892 0.13105 0.0
H1331 H 0.63192 0.68949 0.11883 0.0
H1332 H 0.57036 0.6388 0.05208 0.0
H1333 H 0.6032 0.61182 0.04348 0.0
C1334 C 0.64781 0.61152 0.07654 0.0
C1335 C 0.66894 0.61235 0.09647 0.0
C1336 C 0.63527 0.63346 0.07716 0.0
C1337 C 0.6814 0.63821 0.11493 0.0
C1338 C 0.6695 0.66069 0.11543 0.0
C1339 C 0.6267 0.67368 0.10177 0.0
C1340 C 0.59835 0.66531 0.08651 0.0
C1341 C 0.64481 0.65711 0.09763 0.0
C1342 C 0.59177 0.64498 0.06436 0.0
C1343 C 0.61037 0.62938 0.05954 0.0
H1344 H 0.04953 0.64148 0.55868 0.0
H1345 H 0.05144 0.70708 0.61944 0.0
H1346 H 0.99111 0.68352 0.61554 0.0
H1347 H 0.93771 0.63419 0.60346 0.0
H1348 H 0.93675 0.56565 0.54582 0.0
H1349 H -0.00337 0.60089 0.53911 0.0
C1350 C 0.03678 0.6513 0.57044 0.0
C1351 C 0.05437 0.67506 0.58983 0.0
C1352 C 0.00217 0.63679 0.56877 0.0
C1353 C 0.03811 0.68838 0.60459 0.0
C1354 C 0.00361 0.67473 0.60251 0.0
C1355 C 0.95049 0.62794 0.58861 0.0
C1356 C 0.93341 0.59734 0.57547 0.0
C1357 C 0.98521 0.64739 0.58595 0.0
C1358 C 0.94985 0.58908 0.55631 0.0
C1359 C 0.98404 0.60904 0.55264 0.0
H1360 H 0.36267 0.04081 0.13255 0.0
H1361 H 0.4261 0.06147 0.0652 0.0
H1362 H 0.39389 0.00365 0.05115 0.0
H1363 H 0.35732 0.94586 0.06407 0.0
H1364 H 0.29462 0.92394 0.132 0.0
H1365 H 0.31592 0.98329 0.13933 0.0
C1366 C 0.36843 0.03276 0.11431 0.0
C1367 C 0.39693 0.05485 0.10017 0.0
C1368 C 0.35026 -0.0009 0.10667 0.0
C1369 C 0.40441 0.04446 0.07653 0.0
C1370 C 0.38613 0.01144 0.06854 0.0
C1371 C 0.3474 0.9541 0.07984 0.0
C1372 C 0.32513 0.93081 0.09777 0.0
C1373 C 0.36041 0.9882 0.08434 0.0
C1374 C 0.31199 0.94154 0.11797 0.0
C1375 C 0.32447 0.97553 0.12239 0.0
H1376 H 0.36173 0.31711 0.62821 0.0
H1377 H 0.41682 0.3612 0.5576 0.0
H1378 H 0.38273 0.38684 0.54894 0.0
H1379 H 0.34959 0.40928 0.56849 0.0
H1380 H 0.29621 0.3677 0.64023 0.0
H1381 H 0.31651 0.32794 0.64132 0.0
C1382 C 0.36484 0.33077 0.61024 0.0
C1383 C 0.39163 0.33762 0.59361 0.0
C1384 C 0.34609 0.34666 0.60606 0.0
C1385 C 0.39609 0.35568 0.57053 0.0
C1386 C 0.37694 0.37071 0.56579 0.0
C1387 C 0.34134 0.39051 0.5837 0.0
C1388 C 0.32215 0.3916 0.60449 0.0
C1389 C 0.3537 0.36838 0.58446 0.0
C1390 C 0.31116 0.36721 0.62408 0.0
C1391 C 0.32303 0.34472 0.62484 0.0
H1392 H 0.6263 0.92999 0.87612 0.0
H1393 H 0.5578 0.9222 0.93664 0.0
H1394 H 0.59112 0.98189 0.94522 0.0
H1395 H 0.63072 0.03649 0.92816 0.0
H1396 H 0.69486 0.04569 0.86373 0.0
H1397 H 0.67321 0.98535 0.86435 0.0
C1398 C 0.61957 0.94133 0.89183 0.0
C1399 C 0.58972 0.92224 0.90564 0.0
C1400 C 0.63778 0.97593 0.89554 0.0
C1401 C 0.58069 0.93681 0.92576 0.0
C1402 C 0.5996 0.97084 0.93054 0.0
C1403 C 0.64064 0.02529 0.9148 0.0
C1404 C 0.6636 0.04496 0.89555 0.0
C1405 C 0.62686 0.99078 0.91444 0.0
C1406 C 0.67695 0.03073 0.87859 0.0
C1407 C 0.6643 -0.00374 0.87878 0.0
H1408 H 0.5844 0.63111 0.43097 0.0
H1409 H 0.62589 0.68889 0.36108 0.0
H1410 H 0.66593 0.66905 0.35772 0.0
H1411 H 0.67724 0.62351 0.36819 0.0
H1412 H 0.63439 0.56518 0.43769 0.0
H1413 H 0.60805 0.59803 0.44855 0.0
C1414 C 0.60322 0.64038 0.41571 0.0
C1415 C 0.60208 0.66076 0.39606 0.0
C1416 C 0.62577 0.62856 0.41377 0.0
C1417 C 0.62648 0.67302 0.37637 0.0
C1418 C 0.64915 0.66146 0.37433 0.0
C1419 C 0.66369 0.61933 0.38641 0.0
C1420 C 0.65702 0.59172 0.40186 0.0
C1421 C 0.64749 0.63752 0.39197 0.0
C1422 C 0.63941 0.58626 0.42543 0.0
C1423 C 0.62399 0.60472 0.43146 0.0
H1424 H 0.94289 0.59836 0.91549 0.0
H1425 H 0.93927 0.6279 0.83641 0.0
H1426 H -0.00108 0.66886 0.83802 0.0
H1427 H 0.05313 0.68305 0.85758 0.0
H1428 H 0.05626 0.648 0.93484 0.0
H1429 H -0.00405 0.62356 0.93903 0.0
C1430 C 0.95501 0.615 0.89914 0.0
C1431 C 0.93728 0.61029 0.87584 0.0
C1432 C 0.98937 0.63722 0.89991 0.0
C1433 C 0.95274 0.63147 0.85455 0.0
C1434 C 0.98686 0.65454 0.8554 0.0
C1435 C 0.04067 0.67169 0.87582 0.0
C1436 C 0.05867 0.6671 0.89588 0.0
C1437 C 0.00576 0.6559 0.87734 0.0
C1438 C 0.04261 0.65185 0.9193 0.0
C1439 C 0.00812 0.63748 0.92151 0.0
H1440 H 0.30199 0.93543 0.38491 0.0
H1441 H 0.37006 0.92456 0.43602 0.0
H1442 H 0.39562 0.98298 0.44871 0.0
H1443 H 0.4082 0.03856 0.43574 0.0
H1444 H 0.34508 0.05108 0.38045 0.0
H1445 H 0.3071 0.99083 0.37963 0.0
C1446 C 0.32154 0.94572 0.39956 0.0
C1447 C 0.3348 0.92636 0.40916 0.0
C1448 C 0.33725 0.97976 0.40569 0.0
C1449 C 0.36006 0.93951 0.42812 0.0
C1450 C 0.37468 0.97284 0.43531 0.0
C1451 C 0.38538 0.02807 0.42434 0.0
C1452 C 0.37972 0.04872 0.40765 0.0
C1453 C 0.365 0.99356 0.42281 0.0
C1454 C 0.34995 0.03539 0.39328 0.0
C1455 C 0.32853 0.00093 0.39253 0.0
H1456 H 0.3082 0.36711 0.87821 0.0
H1457 H 0.36154 0.4207 0.94718 0.0
H1458 H 0.38672 0.38541 0.95103 0.0
H1459 H 0.40444 0.3504 0.92812 0.0
H1460 H 0.35481 0.29953 0.85731 0.0
H1461 H 0.31697 0.32229 0.86073 0.0
C1462 C 0.32402 0.36984 0.89478 0.0
C1463 C 0.33342 0.39653 0.91225 0.0
C1464 C 0.33984 0.35066 0.89597 0.0
C1465 C 0.35417 0.40028 0.93352 0.0
C1466 C 0.36888 0.38042 0.9355 0.0
C1467 C 0.38456 0.34351 0.91396 0.0
C1468 C 0.38247 0.32398 0.8923 0.0
C1469 C 0.36368 0.35725 0.9158 0.0
C1470 C 0.3567 0.31472 0.87408 0.0
C1471 C 0.3353 0.32789 0.87598 0.0
H1472 H 0.93294 0.36004 0.41977 0.0
H1473 H 0.93384 0.29801 0.35724 0.0
H1474 H 0.99418 0.32158 0.36255 0.0
H1475 H 0.04718 0.36923 0.37795 0.0
H1476 H 0.04528 0.43345 0.43821 0.0
H1477 H 0.98483 0.39889 0.44177 0.0
C1478 C 0.94633 0.35106 0.40787 0.0
C1479 C 0.92956 0.32808 0.3878 0.0
C1480 C 0.98081 0.3652 0.41069 0.0
C1481 C 0.9466 0.31597 0.37268 0.0
C1482 C 0.98104 0.32958 0.37563 0.0
C1483 C 0.03356 0.37452 0.39272 0.0
C1484 C 0.05022 0.40372 0.40772 0.0
C1485 C -0.00138 0.35554 0.39359 0.0
C1486 C 0.03264 0.41094 0.42656 0.0
C1487 C -0.00189 0.39146 0.42833 0.0
H1488 H 0.25321 0.43946 0.96707 0.0
H1489 H 0.26713 0.53674 0.94854 0.0
H1490 H 0.25035 0.54194 0.99228 0.0
H1491 H 0.23498 0.52126 0.03623 0.0
H1492 H 0.21601 0.42293 0.05621 0.0
H1493 H 0.23194 0.41596 0.01163 0.0
C1494 C 0.2521 0.46154 0.97253 0.0
C1495 C 0.26202 0.48786 0.95446 0.0
C1496 C 0.24215 0.46453 -0.0019 0.0
C1497 C 0.26024 0.51624 0.96195 0.0
C1498 C 0.25068 0.51938 0.98708 0.0
C1499 C 0.23434 0.49822 0.03098 0.0
C1500 C 0.22494 0.47291 0.04967 0.0
C1501 C 0.24233 0.49409 0.0054 0.0
C1502 C 0.22356 0.44298 0.04225 0.0
C1503 C 0.23255 0.43899 0.01675 0.0
H1504 H 0.74916 0.19544 0.44189 0.0
H1505 H 0.84113 0.27976 0.46758 0.0
H1506 H 0.82898 0.26002 0.51285 0.0
H1507 H 0.7866 0.22518 0.54537 0.0
H1508 H 0.69239 0.14411 0.51948 0.0
H1509 H 0.71099 0.15526 0.47397 0.0
C1510 C 0.76698 0.20861 0.45738 0.0
C1511 C 0.79592 0.23867 0.45186 0.0
C1512 C 0.75915 0.19777 0.48327 0.0
C1513 C 0.81885 0.25627 0.47175 0.0
C1514 C 0.81176 0.24515 0.49754 0.0
C1515 C 0.77087 0.20927 0.52972 0.0
C1516 C 0.73844 0.18387 0.53534 0.0
C1517 C 0.78122 0.21684 0.50365 0.0
C1518 C 0.71762 0.16362 0.51524 0.0
C1519 C 0.72812 0.17017 0.48931 0.0
H1520 H 0.56525 0.74491 0.03683 0.0
H1521 H 0.4922 0.77113 0.06258 0.0
H1522 H 0.48891 0.78931 0.01867 0.0
H1523 H 0.50133 0.79133 0.97223 0.0
H1524 H 0.57423 0.76605 0.9451 0.0
H1525 H 0.5833 0.75407 0.99028 0.0
C1526 C 0.5493 0.75542 0.03292 0.0
C1527 C 0.52865 0.75623 0.05287 0.0
C1528 C 0.54708 0.76542 0.00734 0.0
C1529 C 0.50801 0.76981 0.04751 0.0
C1530 C 0.50602 0.78013 0.02238 0.0
C1531 C 0.51945 0.78349 0.97629 0.0
C1532 C 0.53667 0.77892 0.95556 0.0
C1533 C 0.52447 0.77689 0.00204 0.0
C1534 C 0.56059 0.76948 0.9609 0.0
C1535 C 0.56565 0.76258 0.98666 0.0
H1536 H 0.79717 0.4965 0.50696 0.0
H1537 H 0.77587 0.57031 0.53863 0.0
H1538 H 0.75527 0.57596 0.49571 0.0
H1539 H 0.73594 0.55331 0.45115 0.0
H1540 H 0.75525 0.47711 0.42151 0.0
H1541 H 0.78462 0.47927 0.46165 0.0
C1542 C 0.78835 0.51412 0.50436 0.0
C1543 C 0.78721 0.53244 0.52579 0.0
C1544 C 0.77616 0.51664 0.48007 0.0
C1545 C 0.77664 0.55581 0.52226 0.0
C1546 C 0.76475 0.55887 0.49783 0.0
C1547 C 0.74737 0.53788 0.45333 0.0
C1548 C 0.74323 0.5148 0.43372 0.0
C1549 C 0.76332 0.5385 0.47685 0.0
C1550 C 0.75787 0.49473 0.43662 0.0
C1551 C 0.77456 0.4959 0.45951 0.0
H1552 H 0.18586 0.69104 0.97435 0.0
H1553 H 0.22527 0.78544 0.93507 0.0
H1554 H 0.24426 0.81469 0.97718 0.0
H1555 H 0.2557 0.81286 0.02467 0.0
H1556 H 0.21624 0.71744 0.06249 0.0
H1557 H 0.19052 0.68906 0.02165 0.0
C1558 C 0.19829 0.71804 0.97505 0.0
C1559 C 0.20474 0.73614 0.95171 0.0
C1560 C 0.20899 0.73444 -0.00086 0.0
C1561 C 0.22023 0.77103 0.95285 0.0
C1562 C 0.23115 0.7877 0.9769 0.0
C1563 C 0.2405 0.78594 0.02403 0.0
C1564 C 0.23769 0.76716 0.04648 0.0
C1565 C 0.22645 0.76966 0.00014 0.0
C1566 C 0.21853 0.73229 0.04542 0.0
C1567 C 0.20408 0.71606 0.02205 0.0
H1568 H 0.43738 0.22965 0.54898 0.0
H1569 H 0.51388 0.32576 0.52125 0.0
H1570 H 0.50885 0.30356 0.47746 0.0
H1571 H 0.48825 0.25603 0.44841 0.0
H1572 H 0.41331 0.15887 0.4746 0.0
H1573 H 0.41151 0.18226 0.51746 0.0
C1574 C 0.45251 0.2457 0.53322 0.0
C1575 C 0.47653 0.27905 0.53847 0.0
C1576 C 0.44986 0.2326 0.50788 0.0
C1577 C 0.49583 0.29976 0.51786 0.0
C1578 C 0.4929 0.28718 0.49276 0.0
C1579 C 0.47108 0.24011 0.4634 0.0
C1580 C 0.45124 0.20591 0.45873 0.0
C1581 C 0.47086 0.25351 0.48779 0.0
C1582 C 0.42875 0.18539 0.47795 0.0
C1583 C 0.428 0.19872 0.50245 0.0
H1584 H 0.72576 0.56042 0.00427 0.0
H1585 H 0.80066 0.56433 0.05648 0.0
H1586 H 0.83504 0.56676 0.01923 0.0
H1587 H 0.83717 0.5553 0.97232 0.0
H1588 H 0.76323 0.55348 0.92005 0.0
H1589 H 0.73524 0.56338 0.9567 0.0
C1590 C 0.75029 0.56331 0.00736 0.0
C1591 C 0.76077 0.56201 0.03282 0.0
C1592 C 0.76969 0.56443 0.98588 0.0
C1593 C 0.79241 0.56559 0.03691 0.0
C1594 C 0.81181 0.56652 0.01564 0.0
C1595 C 0.81559 0.55824 0.96897 0.0
C1596 C 0.80184 0.55324 0.94382 0.0
C1597 C 0.79978 0.56407 0.9901 0.0
C1598 C 0.77411 0.55729 0.93938 0.0
C1599 C 0.75799 0.56268 0.96033 0.0
H1600 H 0.25917 0.78928 0.54816 0.0
H1601 H 0.15632 0.76128 0.53554 0.0
H1602 H 0.16719 0.77274 0.48869 0.0
H1603 H 0.20394 0.78049 0.45055 0.0
H1604 H 0.30445 0.80093 0.46477 0.0
H1605 H 0.2965 0.8021 0.5116 0.0
C1606 C 0.23931 0.78646 0.53522 0.0
C1607 C 0.20697 0.77387 0.545 0.0
C1608 C 0.24515 0.79068 0.50843 0.0
C1609 C 0.1815 0.77093 0.52832 0.0
C1610 C 0.18758 0.77691 0.5015 0.0
C1611 C 0.22394 0.78532 0.46405 0.0
C1612 C 0.25429 0.78956 0.45453 0.0
C1613 C 0.21888 0.78499 0.49117 0.0
C1614 C 0.28046 0.79645 0.4719 0.0
C1615 C 0.27611 0.79751 0.49861 0.0
H1616 H 0.41811 0.15228 0.02415 0.0
H1617 H 0.43007 0.23411 0.07208 0.0
H1618 H 0.41833 0.25925 0.03449 0.0
H1619 H 0.41951 0.26435 0.98668 0.0
H1620 H 0.40866 0.18313 0.93849 0.0
H1621 H 0.40372 0.15047 0.97746 0.0
C1622 C 0.41658 0.1748 0.02645 0.0
C1623 C 0.42505 0.19164 0.05047 0.0
C1624 C 0.41037 0.18927 0.00467 0.0
C1625 C 0.42339 0.22087 0.05359 0.0
C1626 C 0.41699 0.23533 0.0321 0.0
C1627 C 0.41436 0.23884 0.98484 0.0
C1628 C 0.41485 0.22613 0.96003 0.0
C1629 C 0.41252 0.22074 0.00729 0.0
C1630 C 0.40822 0.1932 0.95754 0.0
C1631 C 0.40593 0.17477 0.97981 0.0
H1632 H 0.20203 0.44306 0.4557 0.0
H1633 H 0.19651 0.53129 0.4744 0.0
H1634 H 0.21476 0.53068 0.5188 0.0
H1635 H 0.23801 0.5093 0.55047 0.0
H1636 H 0.24728 0.42317 0.53278 0.0
H1637 H 0.22099 0.41806 0.48991 0.0
C1638 C 0.20443 0.46178 0.46969 0.0
C1639 C 0.19864 0.48755 0.46177 0.0
C1640 C 0.21564 0.46171 0.49519 0.0
C1641 C 0.20159 0.51165 0.47996 0.0
C1642 C 0.21187 0.51127 0.50535 0.0
C1643 C 0.234 0.4892 0.5373 0.0
C1644 C 0.24501 0.46704 0.5443 0.0
C1645 C 0.21991 0.4871 0.51285 0.0
C1646 C 0.23902 0.44058 0.52755 0.0
C1647 C 0.22427 0.43786 0.50306 0.0
H1648 H 0.80053 0.21152 0.04358 0.0
H1649 H 0.87177 0.29644 -0.00073 0.0
H1650 H 0.85133 0.2648 0.95868 0.0
H1651 H 0.80307 0.21981 0.93613 0.0
H1652 H 0.72656 0.1393 0.9808 0.0
H1653 H 0.75927 0.16148 0.02077 0.0
C1654 C 0.81253 0.22253 0.02514 0.0
C1655 C 0.83706 0.25631 0.0242 0.0
C1656 C 0.79908 0.20497 0.00183 0.0
C1657 C 0.85246 0.2705 0.00027 0.0
C1658 C 0.8406 0.25251 0.97707 0.0
C1659 C 0.79454 0.20639 0.95447 0.0
C1660 C 0.76274 0.17819 0.95584 0.0
C1661 C 0.81235 0.22067 0.97754 0.0
C1662 C 0.7512 0.16107 0.97955 0.0
C1663 C 0.76971 0.17396 0.00239 0.0
H1664 H 0.50234 0.69261 0.4823 0.0
H1665 H 0.56793 0.78687 0.44589 0.0
H1666 H 0.57369 0.81565 0.48767 0.0
H1667 H 0.55222 0.81401 0.53255 0.0
H1668 H 0.48358 0.71891 0.56673 0.0
H1669 H 0.48706 0.69023 0.52791 0.0
C1670 C 0.51839 0.71943 0.48368 0.0
C1671 C 0.53423 0.73782 0.46123 0.0
C1672 C 0.52067 0.73556 0.50727 0.0
C1673 C 0.55547 0.77237 0.4631 0.0
C1674 C 0.55849 0.78876 0.48687 0.0
C1675 C 0.53871 0.78703 0.53159 0.0
C1676 C 0.51724 0.7685 0.55208 0.0
C1677 C 0.54006 0.77069 0.50881 0.0
C1678 C 0.49977 0.73357 0.55085 0.0
C1679 C 0.50176 0.71718 0.52874 0.0
loop_
_geom_bond_atom_site_label_1
_geom_bond_atom_site_label_2
_geom_bond_distance
_geom_bond_site_symmetry_2
_ccdc_geom_bond_type
Sc0 O3 2.025 . S
Sc0 O10 2.105 . S
Sc0 O13 2.105 . S
Sc0 O16 2.105 . S
Sc0 O19 2.105 . S
Sc1 O3 2.025 . S
Sc1 O11 2.105 . S
Sc1 O15 2.105 . S
Sc1 O17 2.105 . S
Sc1 O21 2.105 . S
Sc2 O3 2.025 . S
Sc2 O12 2.105 . S
Sc2 O14 2.105 . S
Sc2 O18 2.105 . S
Sc2 O20 2.105 . S
O3 Sc0 2.025 . S
O3 Sc1 2.025 . S
O3 Sc2 2.025 . S
C4 O10 1.268 . S
C4 O20 1.268 . S
C5 O11 1.268 . S
C5 O19 1.268 . S
C6 O12 1.268 . S
C6 O21 1.268 . S
C7 O13 1.268 . S
C7 O17 1.268 . S
C8 O14 1.268 . S
C8 O16 1.268 . S
C9 O15 1.268 . S
C9 O18 1.268 . S
O10 Sc0 2.105 . S
O10 C4 1.268 . S
O11 Sc1 2.105 . S
O11 C5 1.268 . S
O12 Sc2 2.105 . S
O12 C6 1.268 . S
O13 Sc0 2.105 . S
O13 C7 1.268 . S
O14 Sc2 2.105 . S
O14 C8 1.268 . S
O15 Sc1 2.105 . S
O15 C9 1.268 . S
O16 Sc0 2.105 . S
O16 C8 1.268 . S
O17 Sc1 2.105 . S
O17 C7 1.268 . S
O18 Sc2 2.105 . S
O18 C9 1.268 . S
O19 Sc0 2.105 . S
O19 C5 1.268 . S
O20 Sc2 2.105 . S
O20 C4 1.268 . S
O21 Sc1 2.105 . S
O21 C6 1.268 . S
Sc22 O25 2.025 . S
Sc22 O32 2.105 . S
Sc22 O35 2.105 . S
Sc22 O38 2.105 . S
Sc22 O41 2.105 . S
Sc23 O25 2.025 . S
Sc23 O33 2.105 . S
Sc23 O37 2.105 . S
Sc23 O39 2.105 . S
Sc23 O43 2.105 . S
Sc24 O25 2.025 . S
Sc24 O34 2.105 . S
Sc24 O36 2.105 . S
Sc24 O40 2.105 . S
Sc24 O42 2.105 . S
O25 Sc22 2.025 . S
O25 Sc23 2.025 . S
O25 Sc24 2.025 . S
C26 O32 1.268 . S
C26 O42 1.268 . S
C27 O33 1.268 . S
C27 O41 1.268 . S
C28 O34 1.268 . S
C28 O43 1.268 . S
C29 O35 1.268 . S
C29 O39 1.268 . S
C30 O36 1.268 . S
C30 O38 1.268 . S
C31 O37 1.268 . S
C31 O40 1.268 . S
O32 Sc22 2.105 . S
O32 C26 1.268 . S
O33 Sc23 2.105 . S
O33 C27 1.268 . S
O34 Sc24 2.105 . S
O34 C28 1.268 . S
O35 Sc22 2.105 . S
O35 C29 1.268 . S
O36 Sc24 2.105 . S
O36 C30 1.268 . S
O37 Sc23 2.105 . S
O37 C31 1.268 . S
O38 Sc22 2.105 . S
O38 C30 1.268 . S
O39 Sc23 2.105 . S
O39 C29 1.268 . S
O40 Sc24 2.105 . S
O40 C31 1.268 . S
O41 Sc22 2.105 . S
O41 C27 1.268 . S
O42 Sc24 2.105 . S
O42 C26 1.268 . S
O43 Sc23 2.105 . S
O43 C28 1.268 . S
Sc44 O47 2.025 . S
Sc44 O54 2.105 . S
Sc44 O57 2.105 . S
Sc44 O60 2.105 . S
Sc44 O63 2.105 . S
Sc45 O47 2.025 . S
Sc45 O55 2.105 . S
Sc45 O59 2.105 . S
Sc45 O61 2.105 . S
Sc45 O65 2.105 . S
Sc46 O47 2.025 . S
Sc46 O56 2.105 . S
Sc46 O58 2.105 . S
Sc46 O62 2.105 . S
Sc46 O64 2.105 . S
O47 Sc44 2.025 . S
O47 Sc45 2.025 . S
O47 Sc46 2.025 . S
C48 O54 1.268 . S
C48 O64 1.268 . S
C49 O55 1.268 . S
C49 O63 1.268 . S
C50 O56 1.268 . S
C50 O65 1.268 . S
C51 O57 1.268 . S
C51 O61 1.268 . S
C52 O58 1.268 . S
C52 O60 1.268 . S
C53 O59 1.268 . S
C53 O62 1.268 . S
O54 Sc44 2.105 . S
O54 C48 1.268 . S
O55 Sc45 2.105 . S
O55 C49 1.268 . S
O56 Sc46 2.105 . S
O56 C50 1.268 . S
O57 Sc44 2.105 . S
O57 C51 1.268 . S
O58 Sc46 2.105 . S
O58 C52 1.268 . S
O59 Sc45 2.105 . S
O59 C53 1.268 . S
O60 Sc44 2.105 . S
O60 C52 1.268 . S
O61 Sc45 2.105 . S
O61 C51 1.268 . S
O62 Sc46 2.105 . S
O62 C53 1.268 . S
O63 Sc44 2.105 . S
O63 C49 1.268 . S
O64 Sc46 2.105 . S
O64 C48 1.268 . S
O65 Sc45 2.105 . S
O65 C50 1.268 . S
Sc66 O69 2.025 . S
Sc66 O76 2.105 . S
Sc66 O79 2.105 . S
Sc66 O82 2.105 . S
Sc66 O85 2.105 . S
Sc67 O69 2.025 . S
Sc67 O77 2.105 . S
Sc67 O81 2.105 . S
Sc67 O83 2.105 . S
Sc67 O87 2.105 . S
Sc68 O69 2.025 . S
Sc68 O78 2.105 . S
Sc68 O80 2.105 . S
Sc68 O84 2.105 . S
Sc68 O86 2.105 . S
O69 Sc66 2.025 . S
O69 Sc67 2.025 . S
O69 Sc68 2.025 . S
C70 O76 1.268 . S
C70 O86 1.268 . S
C71 O77 1.268 . S
C71 O85 1.268 . S
C72 O78 1.268 . S
C72 O87 1.268 . S
C73 O79 1.268 . S
C73 O83 1.268 . S
C74 O80 1.268 . S
C74 O82 1.268 . S
C75 O81 1.268 . S
C75 O84 1.268 . S
O76 Sc66 2.105 . S
O76 C70 1.268 . S
O77 Sc67 2.105 . S
O77 C71 1.268 . S
O78 Sc68 2.105 . S
O78 C72 1.268 . S
O79 Sc66 2.105 . S
O79 C73 1.268 . S
O80 Sc68 2.105 . S
O80 C74 1.268 . S
O81 Sc67 2.105 . S
O81 C75 1.268 . S
O82 Sc66 2.105 . S
O82 C74 1.268 . S
O83 Sc67 2.105 . S
O83 C73 1.268 . S
O84 Sc68 2.105 . S
O84 C75 1.268 . S
O85 Sc66 2.105 . S
O85 C71 1.268 . S
O86 Sc68 2.105 . S
O86 C70 1.268 . S
O87 Sc67 2.105 . S
O87 C72 1.268 . S
Sc88 O91 2.025 . S
Sc88 O98 2.105 . S
Sc88 O101 2.105 . S
Sc88 O104 2.105 . S
Sc88 O107 2.105 . S
Sc89 O91 2.025 . S
Sc89 O99 2.105 . S
Sc89 O103 2.105 . S
Sc89 O105 2.105 . S
Sc89 O109 2.105 . S
Sc90 O91 2.025 . S
Sc90 O100 2.105 . S
Sc90 O102 2.105 . S
Sc90 O106 2.105 . S
Sc90 O108 2.105 . S
O91 Sc88 2.025 . S
O91 Sc89 2.025 . S
O91 Sc90 2.025 . S
C92 O98 1.268 . S
C92 O108 1.268 . S
C93 O99 1.268 . S
C93 O107 1.268 . S
C94 O100 1.268 . S
C94 O109 1.268 . S
C95 O101 1.268 . S
C95 O105 1.268 . S
C96 O102 1.268 . S
C96 O104 1.268 . S
C97 O103 1.268 . S
C97 O106 1.268 . S
O98 Sc88 2.105 . S
O98 C92 1.268 . S
O99 Sc89 2.105 . S
O99 C93 1.268 . S
O100 Sc90 2.105 . S
O100 C94 1.268 . S
O101 Sc88 2.105 . S
O101 C95 1.268 . S
O102 Sc90 2.105 . S
O102 C96 1.268 . S
O103 Sc89 2.105 . S
O103 C97 1.268 . S
O104 Sc88 2.105 . S
O104 C96 1.268 . S
O105 Sc89 2.105 . S
O105 C95 1.268 . S
O106 Sc90 2.105 . S
O106 C97 1.268 . S
O107 Sc88 2.105 . S
O107 C93 1.268 . S
O108 Sc90 2.105 . S
O108 C92 1.268 . S
O109 Sc89 2.105 . S
O109 C94 1.268 . S
Sc110 O113 2.025 . S
Sc110 O120 2.105 . S
Sc110 O123 2.105 . S
Sc110 O126 2.105 . S
Sc110 O129 2.105 . S
Sc111 O113 2.025 . S
Sc111 O121 2.105 . S
Sc111 O125 2.105 . S
Sc111 O127 2.105 . S
Sc111 O131 2.105 . S
Sc112 O113 2.025 . S
Sc112 O122 2.105 . S
Sc112 O124 2.105 . S
Sc112 O128 2.105 . S
Sc112 O130 2.105 . S
O113 Sc110 2.025 . S
O113 Sc111 2.025 . S
O113 Sc112 2.025 . S
C114 O120 1.268 . S
C114 O130 1.268 . S
C115 O121 1.268 . S
C115 O129 1.268 . S
C116 O122 1.268 . S
C116 O131 1.268 . S
C117 O123 1.268 . S
C117 O127 1.268 . S
C118 O124 1.268 . S
C118 O126 1.268 . S
C119 O125 1.268 . S
C119 O128 1.268 . S
O120 Sc110 2.105 . S
O120 C114 1.268 . S
O121 Sc111 2.105 . S
O121 C115 1.268 . S
O122 Sc112 2.105 . S
O122 C116 1.268 . S
O123 Sc110 2.105 . S
O123 C117 1.268 . S
O124 Sc112 2.105 . S
O124 C118 1.268 . S
O125 Sc111 2.105 . S
O125 C119 1.268 . S
O126 Sc110 2.105 . S
O126 C118 1.268 . S
O127 Sc111 2.105 . S
O127 C117 1.268 . S
O128 Sc112 2.105 . S
O128 C119 1.268 . S
O129 Sc110 2.105 . S
O129 C115 1.268 . S
O130 Sc112 2.105 . S
O130 C114 1.268 . S
O131 Sc111 2.105 . S
O131 C116 1.268 . S
Sc132 O135 2.025 . S
Sc132 O142 2.105 . S
Sc132 O145 2.105 . S
Sc132 O148 2.105 . S
Sc132 O151 2.105 . S
Sc133 O135 2.025 . S
Sc133 O143 2.105 . S
Sc133 O147 2.105 . S
Sc133 O149 2.105 . S
Sc133 O153 2.105 . S
Sc134 O135 2.025 . S
Sc134 O144 2.105 . S
Sc134 O146 2.105 . S
Sc134 O150 2.105 . S
Sc134 O152 2.105 . S
O135 Sc132 2.025 . S
O135 Sc133 2.025 . S
O135 Sc134 2.025 . S
C136 O142 1.268 . S
C136 O152 1.268 . S
C137 O143 1.268 . S
C137 O151 1.268 . S
C138 O144 1.268 . S
C138 O153 1.268 . S
C139 O145 1.268 . S
C139 O149 1.268 . S
C140 O146 1.268 . S
C140 O148 1.268 . S
C141 O147 1.268 . S
C141 O150 1.268 . S
O142 Sc132 2.105 . S
O142 C136 1.268 . S
O143 Sc133 2.105 . S
O143 C137 1.268 . S
O144 Sc134 2.105 . S
O144 C138 1.268 . S
O145 Sc132 2.105 . S
O145 C139 1.268 . S
O146 Sc134 2.105 . S
O146 C140 1.268 . S
O147 Sc133 2.105 . S
O147 C141 1.268 . S
O148 Sc132 2.105 . S
O148 C140 1.268 . S
O149 Sc133 2.105 . S
O149 C139 1.268 . S
O150 Sc134 2.105 . S
O150 C141 1.268 . S
O151 Sc132 2.105 . S
O151 C137 1.268 . S
O152 Sc134 2.105 . S
O152 C136 1.268 . S
O153 Sc133 2.105 . S
O153 C138 1.268 . S
Sc154 O157 2.025 . S
Sc154 O164 2.105 . S
Sc154 O167 2.105 . S
Sc154 O170 2.105 . S
Sc154 O173 2.105 . S
Sc155 O157 2.025 . S
Sc155 O165 2.105 . S
Sc155 O169 2.105 . S
Sc155 O171 2.105 . S
Sc155 O175 2.105 . S
Sc156 O157 2.025 . S
Sc156 O166 2.105 . S
Sc156 O168 2.105 . S
Sc156 O172 2.105 . S
Sc156 O174 2.105 . S
O157 Sc154 2.025 . S
O157 Sc155 2.025 . S
O157 Sc156 2.025 . S
C158 O164 1.268 . S
C158 O174 1.268 . S
C159 O165 1.268 . S
C159 O173 1.268 . S
C160 O166 1.268 . S
C160 O175 1.268 . S
C161 O167 1.268 . S
C161 O171 1.268 . S
C162 O168 1.268 . S
C162 O170 1.268 . S
C163 O169 1.268 . S
C163 O172 1.268 . S
O164 Sc154 2.105 . S
O164 C158 1.268 . S
O165 Sc155 2.105 . S
O165 C159 1.268 . S
O166 Sc156 2.105 . S
O166 C160 1.268 . S
O167 Sc154 2.105 . S
O167 C161 1.268 . S
O168 Sc156 2.105 . S
O168 C162 1.268 . S
O169 Sc155 2.105 . S
O169 C163 1.268 . S
O170 Sc154 2.105 . S
O170 C162 1.268 . S
O171 Sc155 2.105 . S
O171 C161 1.268 . S
O172 Sc156 2.105 . S
O172 C163 1.268 . S
O173 Sc154 2.105 . S
O173 C159 1.268 . S
O174 Sc156 2.105 . S
O174 C158 1.268 . S
O175 Sc155 2.105 . S
O175 C160 1.268 . S
Sc176 O179 2.025 . S
Sc176 O186 2.105 . S
Sc176 O189 2.105 . S
Sc176 O192 2.105 . S
Sc176 O195 2.105 . S
Sc177 O179 2.025 . S
Sc177 O187 2.105 . S
Sc177 O191 2.105 . S
Sc177 O193 2.105 . S
Sc177 O197 2.105 . S
Sc178 O179 2.025 . S
Sc178 O188 2.105 . S
Sc178 O190 2.105 . S
Sc178 O194 2.105 . S
Sc178 O196 2.105 . S
O179 Sc176 2.025 . S
O179 Sc177 2.025 . S
O179 Sc178 2.025 . S
C180 O186 1.268 . S
C180 O196 1.268 . S
C181 O187 1.268 . S
C181 O195 1.268 . S
C182 O188 1.268 . S
C182 O197 1.268 . S
C183 O189 1.268 . S
C183 O193 1.268 . S
C184 O190 1.268 . S
C184 O192 1.268 . S
C185 O191 1.268 . S
C185 O194 1.268 . S
O186 Sc176 2.105 . S
O186 C180 1.268 . S
O187 Sc177 2.105 . S
O187 C181 1.268 . S
O188 Sc178 2.105 . S
O188 C182 1.268 . S
O189 Sc176 2.105 . S
O189 C183 1.268 . S
O190 Sc178 2.105 . S
O190 C184 1.268 . S
O191 Sc177 2.105 . S
O191 C185 1.268 . S
O192 Sc176 2.105 . S
O192 C184 1.268 . S
O193 Sc177 2.105 . S
O193 C183 1.268 . S
O194 Sc178 2.105 . S
O194 C185 1.268 . S
O195 Sc176 2.105 . S
O195 C181 1.268 . S
O196 Sc178 2.105 . S
O196 C180 1.268 . S
O197 Sc177 2.105 . S
O197 C182 1.268 . S
Sc198 O201 2.025 . S
Sc198 O208 2.105 . S
Sc198 O211 2.105 . S
Sc198 O214 2.105 . S
Sc198 O217 2.105 . S
Sc199 O201 2.025 . S
Sc199 O209 2.105 . S
Sc199 O213 2.105 . S
Sc199 O215 2.105 . S
Sc199 O219 2.105 . S
Sc200 O201 2.025 . S
Sc200 O210 2.105 . S
Sc200 O212 2.105 . S
Sc200 O216 2.105 . S
Sc200 O218 2.105 . S
O201 Sc198 2.025 . S
O201 Sc199 2.025 . S
O201 Sc200 2.025 . S
C202 O208 1.268 . S
C202 O218 1.268 . S
C203 O209 1.268 . S
C203 O217 1.268 . S
C204 O210 1.268 . S
C204 O219 1.268 . S
C205 O211 1.268 . S
C205 O215 1.268 . S
C206 O212 1.268 . S
C206 O214 1.268 . S
C207 O213 1.268 . S
C207 O216 1.268 . S
O208 Sc198 2.105 . S
O208 C202 1.268 . S
O209 Sc199 2.105 . S
O209 C203 1.268 . S
O210 Sc200 2.105 . S
O210 C204 1.268 . S
O211 Sc198 2.105 . S
O211 C205 1.268 . S
O212 Sc200 2.105 . S
O212 C206 1.268 . S
O213 Sc199 2.105 . S
O213 C207 1.268 . S
O214 Sc198 2.105 . S
O214 C206 1.268 . S
O215 Sc199 2.105 . S
O215 C205 1.268 . S
O216 Sc200 2.105 . S
O216 C207 1.268 . S
O217 Sc198 2.105 . S
O217 C203 1.268 . S
O218 Sc200 2.105 . S
O218 C202 1.268 . S
O219 Sc199 2.105 . S
O219 C204 1.268 . S
Sc220 O223 2.025 . S
Sc220 O230 2.105 . S
Sc220 O233 2.105 . S
Sc220 O236 2.105 . S
Sc220 O239 2.105 . S
Sc221 O223 2.025 . S
Sc221 O231 2.105 . S
Sc221 O235 2.105 . S
Sc221 O237 2.105 . S
Sc221 O241 2.105 . S
Sc222 O223 2.025 . S
Sc222 O232 2.105 . S
Sc222 O234 2.105 . S
Sc222 O238 2.105 . S
Sc222 O240 2.105 . S
O223 Sc220 2.025 . S
O223 Sc221 2.025 . S
O223 Sc222 2.025 . S
C224 O230 1.268 . S
C224 O240 1.268 . S
C225 O231 1.268 . S
C225 O239 1.268 . S
C226 O232 1.268 . S
C226 O241 1.268 . S
C227 O233 1.268 . S
C227 O237 1.268 . S
C228 O234 1.268 . S
C228 O236 1.268 . S
C229 O235 1.268 . S
C229 O238 1.268 . S
O230 Sc220 2.105 . S
O230 C224 1.268 . S
O231 Sc221 2.105 . S
O231 C225 1.268 . S
O232 Sc222 2.105 . S
O232 C226 1.268 . S
O233 Sc220 2.105 . S
O233 C227 1.268 . S
O234 Sc222 2.105 . S
O234 C228 1.268 . S
O235 Sc221 2.105 . S
O235 C229 1.268 . S
O236 Sc220 2.105 . S
O236 C228 1.268 . S
O237 Sc221 2.105 . S
O237 C227 1.268 . S
O238 Sc222 2.105 . S
O238 C229 1.268 . S
O239 Sc220 2.105 . S
O239 C225 1.268 . S
O240 Sc222 2.105 . S
O240 C224 1.268 . S
O241 Sc221 2.105 . S
O241 C226 1.268 . S
Sc242 O245 2.025 . S
Sc242 O252 2.105 . S
Sc242 O255 2.105 . S
Sc242 O258 2.105 . S
Sc242 O261 2.105 . S
Sc243 O245 2.025 . S
Sc243 O253 2.105 . S
Sc243 O257 2.105 . S
Sc243 O259 2.105 . S
Sc243 O263 2.105 . S
Sc244 O245 2.025 . S
Sc244 O254 2.105 . S
Sc244 O256 2.105 . S
Sc244 O260 2.105 . S
Sc244 O262 2.105 . S
O245 Sc242 2.025 . S
O245 Sc243 2.025 . S
O245 Sc244 2.025 . S
C246 O252 1.268 . S
C246 O262 1.268 . S
C247 O253 1.268 . S
C247 O261 1.268 . S
C248 O254 1.268 . S
C248 O263 1.268 . S
C249 O255 1.268 . S
C249 O259 1.268 . S
C250 O256 1.268 . S
C250 O258 1.268 . S
C251 O257 1.268 . S
C251 O260 1.268 . S
O252 Sc242 2.105 . S
O252 C246 1.268 . S
O253 Sc243 2.105 . S
O253 C247 1.268 . S
O254 Sc244 2.105 . S
O254 C248 1.268 . S
O255 Sc242 2.105 . S
O255 C249 1.268 . S
O256 Sc244 2.105 . S
O256 C250 1.268 . S
O257 Sc243 2.105 . S
O257 C251 1.268 . S
O258 Sc242 2.105 . S
O258 C250 1.268 . S
O259 Sc243 2.105 . S
O259 C249 1.268 . S
O260 Sc244 2.105 . S
O260 C251 1.268 . S
O261 Sc242 2.105 . S
O261 C247 1.268 . S
O262 Sc244 2.105 . S
O262 C246 1.268 . S
O263 Sc243 2.105 . S
O263 C248 1.268 . S
Sc264 O267 2.025 . S
Sc264 O274 2.105 . S
Sc264 O277 2.105 . S
Sc264 O280 2.105 . S
Sc264 O283 2.105 . S
Sc265 O267 2.025 . S
Sc265 O275 2.105 . S
Sc265 O279 2.105 . S
Sc265 O281 2.105 . S
Sc265 O285 2.105 . S
Sc266 O267 2.025 . S
Sc266 O276 2.105 . S
Sc266 O278 2.105 . S
Sc266 O282 2.105 . S
Sc266 O284 2.105 . S
O267 Sc264 2.025 . S
O267 Sc265 2.025 . S
O267 Sc266 2.025 . S
C268 O274 1.268 . S
C268 O284 1.268 . S
C269 O275 1.268 . S
C269 O283 1.268 . S
C270 O276 1.268 . S
C270 O285 1.268 . S
C271 O277 1.268 . S
C271 O281 1.268 . S
C272 O278 1.268 . S
C272 O280 1.268 . S
C273 O279 1.268 . S
C273 O282 1.268 . S
O274 Sc264 2.105 . S
O274 C268 1.268 . S
O275 Sc265 2.105 . S
O275 C269 1.268 . S
O276 Sc266 2.105 . S
O276 C270 1.268 . S
O277 Sc264 2.105 . S
O277 C271 1.268 . S
O278 Sc266 2.105 . S
O278 C272 1.268 . S
O279 Sc265 2.105 . S
O279 C273 1.268 . S
O280 Sc264 2.105 . S
O280 C272 1.268 . S
O281 Sc265 2.105 . S
O281 C271 1.268 . S
O282 Sc266 2.105 . S
O282 C273 1.268 . S
O283 Sc264 2.105 . S
O283 C269 1.268 . S
O284 Sc266 2.105 . S
O284 C268 1.268 . S
O285 Sc265 2.105 . S
O285 C270 1.268 . S
Sc286 O289 2.025 . S
Sc286 O296 2.105 . S
Sc286 O299 2.105 . S
Sc286 O302 2.105 . S
Sc286 O305 2.105 . S
Sc287 O289 2.025 . S
Sc287 O297 2.105 . S
Sc287 O301 2.105 . S
Sc287 O303 2.105 . S
Sc287 O307 2.105 . S
Sc288 O289 2.025 . S
Sc288 O298 2.105 . S
Sc288 O300 2.105 . S
Sc288 O304 2.105 . S
Sc288 O306 2.105 . S
O289 Sc286 2.025 . S
O289 Sc287 2.025 . S
O289 Sc288 2.025 . S
C290 O296 1.268 . S
C290 O306 1.268 . S
C291 O297 1.268 . S
C291 O305 1.268 . S
C292 O298 1.268 . S
C292 O307 1.268 . S
C293 O299 1.268 . S
C293 O303 1.268 . S
C294 O300 1.268 . S
C294 O302 1.268 . S
C295 O301 1.268 . S
C295 O304 1.268 . S
O296 Sc286 2.105 . S
O296 C290 1.268 . S
O297 Sc287 2.105 . S
O297 C291 1.268 . S
O298 Sc288 2.105 . S
O298 C292 1.268 . S
O299 Sc286 2.105 . S
O299 C293 1.268 . S
O300 Sc288 2.105 . S
O300 C294 1.268 . S
O301 Sc287 2.105 . S
O301 C295 1.268 . S
O302 Sc286 2.105 . S
O302 C294 1.268 . S
O303 Sc287 2.105 . S
O303 C293 1.268 . S
O304 Sc288 2.105 . S
O304 C295 1.268 . S
O305 Sc286 2.105 . S
O305 C291 1.268 . S
O306 Sc288 2.105 . S
O306 C290 1.268 . S
O307 Sc287 2.105 . S
O307 C292 1.268 . S
Sc308 O311 2.025 . S
Sc308 O318 2.105 . S
Sc308 O321 2.105 . S
Sc308 O324 2.105 . S
Sc308 O327 2.105 . S
Sc309 O311 2.025 . S
Sc309 O319 2.105 . S
Sc309 O323 2.105 . S
Sc309 O325 2.105 . S
Sc309 O329 2.105 . S
Sc310 O311 2.025 . S
Sc310 O320 2.105 . S
Sc310 O322 2.105 . S
Sc310 O326 2.105 . S
Sc310 O328 2.105 . S
O311 Sc308 2.025 . S
O311 Sc309 2.025 . S
O311 Sc310 2.025 . S
C312 O318 1.268 . S
C312 O328 1.268 . S
C313 O319 1.268 . S
C313 O327 1.268 . S
C314 O320 1.268 . S
C314 O329 1.268 . S
C315 O321 1.268 . S
C315 O325 1.268 . S
C316 O322 1.268 . S
C316 O324 1.268 . S
C317 O323 1.268 . S
C317 O326 1.268 . S
O318 Sc308 2.105 . S
O318 C312 1.268 . S
O319 Sc309 2.105 . S
O319 C313 1.268 . S
O320 Sc310 2.105 . S
O320 C314 1.268 . S
O321 Sc308 2.105 . S
O321 C315 1.268 . S
O322 Sc310 2.105 . S
O322 C316 1.268 . S
O323 Sc309 2.105 . S
O323 C317 1.268 . S
O324 Sc308 2.105 . S
O324 C316 1.268 . S
O325 Sc309 2.105 . S
O325 C315 1.268 . S
O326 Sc310 2.105 . S
O326 C317 1.268 . S
O327 Sc308 2.105 . S
O327 C313 1.268 . S
O328 Sc310 2.105 . S
O328 C312 1.268 . S
O329 Sc309 2.105 . S
O329 C314 1.268 . S
Sc330 O333 2.025 . S
Sc330 O340 2.105 . S
Sc330 O343 2.105 . S
Sc330 O346 2.105 . S
Sc330 O349 2.105 . S
Sc331 O333 2.025 . S
Sc331 O341 2.105 . S
Sc331 O345 2.105 . S
Sc331 O347 2.105 . S
Sc331 O351 2.105 . S
Sc332 O333 2.025 . S
Sc332 O342 2.105 . S
Sc332 O344 2.105 . S
Sc332 O348 2.105 . S
Sc332 O350 2.105 . S
O333 Sc330 2.025 . S
O333 Sc331 2.025 . S
O333 Sc332 2.025 . S
C334 O340 1.268 . S
C334 O350 1.268 . S
C335 O341 1.268 . S
C335 O349 1.268 . S
C336 O342 1.268 . S
C336 O351 1.268 . S
C337 O343 1.268 . S
C337 O347 1.268 . S
C338 O344 1.268 . S
C338 O346 1.268 . S
C339 O345 1.268 . S
C339 O348 1.268 . S
O340 Sc330 2.105 . S
O340 C334 1.268 . S
O341 Sc331 2.105 . S
O341 C335 1.268 . S
O342 Sc332 2.105 . S
O342 C336 1.268 . S
O343 Sc330 2.105 . S
O343 C337 1.268 . S
O344 Sc332 2.105 . S
O344 C338 1.268 . S
O345 Sc331 2.105 . S
O345 C339 1.268 . S
O346 Sc330 2.105 . S
O346 C338 1.268 . S
O347 Sc331 2.105 . S
O347 C337 1.268 . S
O348 Sc332 2.105 . S
O348 C339 1.268 . S
O349 Sc330 2.105 . S
O349 C335 1.268 . S
O350 Sc332 2.105 . S
O350 C334 1.268 . S
O351 Sc331 2.105 . S
O351 C336 1.268 . S
Sc352 O355 2.025 . S
Sc352 O362 2.105 . S
Sc352 O365 2.105 . S
Sc352 O368 2.105 . S
Sc352 O371 2.105 . S
Sc353 O355 2.025 . S
Sc353 O363 2.105 . S
Sc353 O367 2.105 . S
Sc353 O369 2.105 . S
Sc353 O373 2.105 . S
Sc354 O355 2.025 . S
Sc354 O364 2.105 . S
Sc354 O366 2.105 . S
Sc354 O370 2.105 . S
Sc354 O372 2.105 . S
O355 Sc352 2.025 . S
O355 Sc353 2.025 . S
O355 Sc354 2.025 . S
C356 O362 1.268 . S
C356 O372 1.268 . S
C357 O363 1.268 . S
C357 O371 1.268 . S
C358 O364 1.268 . S
C358 O373 1.268 . S
C359 O365 1.268 . S
C359 O369 1.268 . S
C360 O366 1.268 . S
C360 O368 1.268 . S
C361 O367 1.268 . S
C361 O370 1.268 . S
O362 Sc352 2.105 . S
O362 C356 1.268 . S
O363 Sc353 2.105 . S
O363 C357 1.268 . S
O364 Sc354 2.105 . S
O364 C358 1.268 . S
O365 Sc352 2.105 . S
O365 C359 1.268 . S
O366 Sc354 2.105 . S
O366 C360 1.268 . S
O367 Sc353 2.105 . S
O367 C361 1.268 . S
O368 Sc352 2.105 . S
O368 C360 1.268 . S
O369 Sc353 2.105 . S
O369 C359 1.268 . S
O370 Sc354 2.105 . S
O370 C361 1.268 . S
O371 Sc352 2.105 . S
O371 C357 1.268 . S
O372 Sc354 2.105 . S
O372 C356 1.268 . S
O373 Sc353 2.105 . S
O373 C358 1.268 . S
Sc374 O377 2.025 . S
Sc374 O384 2.105 . S
Sc374 O387 2.105 . S
Sc374 O390 2.105 . S
Sc374 O393 2.105 . S
Sc375 O377 2.025 . S
Sc375 O385 2.105 . S
Sc375 O389 2.105 . S
Sc375 O391 2.105 . S
Sc375 O395 2.105 . S
Sc376 O377 2.025 . S
Sc376 O386 2.105 . S
Sc376 O388 2.105 . S
Sc376 O392 2.105 . S
Sc376 O394 2.105 . S
O377 Sc374 2.025 . S
O377 Sc375 2.025 . S
O377 Sc376 2.025 . S
C378 O384 1.268 . S
C378 O394 1.268 . S
C379 O385 1.268 . S
C379 O393 1.268 . S
C380 O386 1.268 . S
C380 O395 1.268 . S
C381 O387 1.268 . S
C381 O391 1.268 . S
C382 O388 1.268 . S
C382 O390 1.268 . S
C383 O389 1.268 . S
C383 O392 1.268 . S
O384 Sc374 2.105 . S
O384 C378 1.268 . S
O385 Sc375 2.105 . S
O385 C379 1.268 . S
O386 Sc376 2.105 . S
O386 C380 1.268 . S
O387 Sc374 2.105 . S
O387 C381 1.268 . S
O388 Sc376 2.105 . S
O388 C382 1.268 . S
O389 Sc375 2.105 . S
O389 C383 1.268 . S
O390 Sc374 2.105 . S
O390 C382 1.268 . S
O391 Sc375 2.105 . S
O391 C381 1.268 . S
O392 Sc376 2.105 . S
O392 C383 1.268 . S
O393 Sc374 2.105 . S
O393 C379 1.268 . S
O394 Sc376 2.105 . S
O394 C378 1.268 . S
O395 Sc375 2.105 . S
O395 C380 1.268 . S
Sc396 O399 2.025 . S
Sc396 O406 2.105 . S
Sc396 O409 2.105 . S
Sc396 O412 2.105 . S
Sc396 O415 2.105 . S
Sc397 O399 2.025 . S
Sc397 O407 2.105 . S
Sc397 O411 2.105 . S
Sc397 O413 2.105 . S
Sc397 O417 2.105 . S
Sc398 O399 2.025 . S
Sc398 O408 2.105 . S
Sc398 O410 2.105 . S
Sc398 O414 2.105 . S
Sc398 O416 2.105 . S
O399 Sc396 2.025 . S
O399 Sc397 2.025 . S
O399 Sc398 2.025 . S
C400 O406 1.268 . S
C400 O416 1.268 . S
C401 O407 1.268 . S
C401 O415 1.268 . S
C402 O408 1.268 . S
C402 O417 1.268 . S
C403 O409 1.268 . S
C403 O413 1.268 . S
C404 O410 1.268 . S
C404 O412 1.268 . S
C405 O411 1.268 . S
C405 O414 1.268 . S
O406 Sc396 2.105 . S
O406 C400 1.268 . S
O407 Sc397 2.105 . S
O407 C401 1.268 . S
O408 Sc398 2.105 . S
O408 C402 1.268 . S
O409 Sc396 2.105 . S
O409 C403 1.268 . S
O410 Sc398 2.105 . S
O410 C404 1.268 . S
O411 Sc397 2.105 . S
O411 C405 1.268 . S
O412 Sc396 2.105 . S
O412 C404 1.268 . S
O413 Sc397 2.105 . S
O413 C403 1.268 . S
O414 Sc398 2.105 . S
O414 C405 1.268 . S
O415 Sc396 2.105 . S
O415 C401 1.268 . S
O416 Sc398 2.105 . S
O416 C400 1.268 . S
O417 Sc397 2.105 . S
O417 C402 1.268 . S
Sc418 O421 2.025 . S
Sc418 O428 2.105 . S
Sc418 O431 2.105 . S
Sc418 O434 2.105 . S
Sc418 O437 2.105 . S
Sc419 O421 2.025 . S
Sc419 O429 2.105 . S
Sc419 O433 2.105 . S
Sc419 O435 2.105 . S
Sc419 O439 2.105 . S
Sc420 O421 2.025 . S
Sc420 O430 2.105 . S
Sc420 O432 2.105 . S
Sc420 O436 2.105 . S
Sc420 O438 2.105 . S
O421 Sc418 2.025 . S
O421 Sc419 2.025 . S
O421 Sc420 2.025 . S
C422 O428 1.268 . S
C422 O438 1.268 . S
C423 O429 1.268 . S
C423 O437 1.268 . S
C424 O430 1.268 . S
C424 O439 1.268 . S
C425 O431 1.268 . S
C425 O435 1.268 . S
C426 O432 1.268 . S
C426 O434 1.268 . S
C427 O433 1.268 . S
C427 O436 1.268 . S
O428 Sc418 2.105 . S
O428 C422 1.268 . S
O429 Sc419 2.105 . S
O429 C423 1.268 . S
O430 Sc420 2.105 . S
O430 C424 1.268 . S
O431 Sc418 2.105 . S
O431 C425 1.268 . S
O432 Sc420 2.105 . S
O432 C426 1.268 . S
O433 Sc419 2.105 . S
O433 C427 1.268 . S
O434 Sc418 2.105 . S
O434 C426 1.268 . S
O435 Sc419 2.105 . S
O435 C425 1.268 . S
O436 Sc420 2.105 . S
O436 C427 1.268 . S
O437 Sc418 2.105 . S
O437 C423 1.268 . S
O438 Sc420 2.105 . S
O438 C422 1.268 . S
O439 Sc419 2.105 . S
O439 C424 1.268 . S
Sc440 O443 2.025 . S
Sc440 O450 2.105 . S
Sc440 O453 2.105 . S
Sc440 O456 2.105 . S
Sc440 O459 2.105 . S
Sc441 O443 2.025 . S
Sc441 O451 2.105 . S
Sc441 O455 2.105 . S
Sc441 O457 2.105 . S
Sc441 O461 2.105 . S
Sc442 O443 2.025 . S
Sc442 O452 2.105 . S
Sc442 O454 2.105 . S
Sc442 O458 2.105 . S
Sc442 O460 2.105 . S
O443 Sc440 2.025 . S
O443 Sc441 2.025 . S
O443 Sc442 2.025 . S
C444 O450 1.268 . S
C444 O460 1.268 . S
C445 O451 1.268 . S
C445 O459 1.268 . S
C446 O452 1.268 . S
C446 O461 1.268 . S
C447 O453 1.268 . S
C447 O457 1.268 . S
C448 O454 1.268 . S
C448 O456 1.268 . S
C449 O455 1.268 . S
C449 O458 1.268 . S
O450 Sc440 2.105 . S
O450 C444 1.268 . S
O451 Sc441 2.105 . S
O451 C445 1.268 . S
O452 Sc442 2.105 . S
O452 C446 1.268 . S
O453 Sc440 2.105 . S
O453 C447 1.268 . S
O454 Sc442 2.105 . S
O454 C448 1.268 . S
O455 Sc441 2.105 . S
O455 C449 1.268 . S
O456 Sc440 2.105 . S
O456 C448 1.268 . S
O457 Sc441 2.105 . S
O457 C447 1.268 . S
O458 Sc442 2.105 . S
O458 C449 1.268 . S
O459 Sc440 2.105 . S
O459 C445 1.268 . S
O460 Sc442 2.105 . S
O460 C444 1.268 . S
O461 Sc441 2.105 . S
O461 C446 1.268 . S
Sc462 O465 2.025 . S
Sc462 O472 2.105 . S
Sc462 O475 2.105 . S
Sc462 O478 2.105 . S
Sc462 O481 2.105 . S
Sc463 O465 2.025 . S
Sc463 O473 2.105 . S
Sc463 O477 2.105 . S
Sc463 O479 2.105 . S
Sc463 O483 2.105 . S
Sc464 O465 2.025 . S
Sc464 O474 2.105 . S
Sc464 O476 2.105 . S
Sc464 O480 2.105 . S
Sc464 O482 2.105 . S
O465 Sc462 2.025 . S
O465 Sc463 2.025 . S
O465 Sc464 2.025 . S
C466 O472 1.268 . S
C466 O482 1.268 . S
C467 O473 1.268 . S
C467 O481 1.268 . S
C468 O474 1.268 . S
C468 O483 1.268 . S
C469 O475 1.268 . S
C469 O479 1.268 . S
C470 O476 1.268 . S
C470 O478 1.268 . S
C471 O477 1.268 . S
C471 O480 1.268 . S
O472 Sc462 2.105 . S
O472 C466 1.268 . S
O473 Sc463 2.105 . S
O473 C467 1.268 . S
O474 Sc464 2.105 . S
O474 C468 1.268 . S
O475 Sc462 2.105 . S
O475 C469 1.268 . S
O476 Sc464 2.105 . S
O476 C470 1.268 . S
O477 Sc463 2.105 . S
O477 C471 1.268 . S
O478 Sc462 2.105 . S
O478 C470 1.268 . S
O479 Sc463 2.105 . S
O479 C469 1.268 . S
O480 Sc464 2.105 . S
O480 C471 1.268 . S
O481 Sc462 2.105 . S
O481 C467 1.268 . S
O482 Sc464 2.105 . S
O482 C466 1.268 . S
O483 Sc463 2.105 . S
O483 C468 1.268 . S
Sc484 O487 2.025 . S
Sc484 O494 2.105 . S
Sc484 O497 2.105 . S
Sc484 O500 2.105 . S
Sc484 O503 2.105 . S
Sc485 O487 2.025 . S
Sc485 O495 2.105 . S
Sc485 O499 2.105 . S
Sc485 O501 2.105 . S
Sc485 O505 2.105 . S
Sc486 O487 2.025 . S
Sc486 O496 2.105 . S
Sc486 O498 2.105 . S
Sc486 O502 2.105 . S
Sc486 O504 2.105 . S
O487 Sc484 2.025 . S
O487 Sc485 2.025 . S
O487 Sc486 2.025 . S
C488 O494 1.268 . S
C488 O504 1.268 . S
C489 O495 1.268 . S
C489 O503 1.268 . S
C490 O496 1.268 . S
C490 O505 1.268 . S
C491 O497 1.268 . S
C491 O501 1.268 . S
C492 O498 1.268 . S
C492 O500 1.268 . S
C493 O499 1.268 . S
C493 O502 1.268 . S
O494 Sc484 2.105 . S
O494 C488 1.268 . S
O495 Sc485 2.105 . S
O495 C489 1.268 . S
O496 Sc486 2.105 . S
O496 C490 1.268 . S
O497 Sc484 2.105 . S
O497 C491 1.268 . S
O498 Sc486 2.105 . S
O498 C492 1.268 . S
O499 Sc485 2.105 . S
O499 C493 1.268 . S
O500 Sc484 2.105 . S
O500 C492 1.268 . S
O501 Sc485 2.105 . S
O501 C491 1.268 . S
O502 Sc486 2.105 . S
O502 C493 1.268 . S
O503 Sc484 2.105 . S
O503 C489 1.268 . S
O504 Sc486 2.105 . S
O504 C488 1.268 . S
O505 Sc485 2.105 . S
O505 C490 1.268 . S
Sc506 O509 2.025 . S
Sc506 O516 2.105 . S
Sc506 O519 2.105 . S
Sc506 O522 2.105 . S
Sc506 O525 2.105 . S
Sc507 O509 2.025 . S
Sc507 O517 2.105 . S
Sc507 O521 2.105 . S
Sc507 O523 2.105 . S
Sc507 O527 2.105 . S
Sc508 O509 2.025 . S
Sc508 O518 2.105 . S
Sc508 O520 2.105 . S
Sc508 O524 2.105 . S
Sc508 O526 2.105 . S
O509 Sc506 2.025 . S
O509 Sc507 2.025 . S
O509 Sc508 2.025 . S
C510 O516 1.268 . S
C510 O526 1.268 . S
C511 O517 1.268 . S
C511 O525 1.268 . S
C512 O518 1.268 . S
C512 O527 1.268 . S
C513 O519 1.268 . S
C513 O523 1.268 . S
C514 O520 1.268 . S
C514 O522 1.268 . S
C515 O521 1.268 . S
C515 O524 1.268 . S
O516 Sc506 2.105 . S
O516 C510 1.268 . S
O517 Sc507 2.105 . S
O517 C511 1.268 . S
O518 Sc508 2.105 . S
O518 C512 1.268 . S
O519 Sc506 2.105 . S
O519 C513 1.268 . S
O520 Sc508 2.105 . S
O520 C514 1.268 . S
O521 Sc507 2.105 . S
O521 C515 1.268 . S
O522 Sc506 2.105 . S
O522 C514 1.268 . S
O523 Sc507 2.105 . S
O523 C513 1.268 . S
O524 Sc508 2.105 . S
O524 C515 1.268 . S
O525 Sc506 2.105 . S
O525 C511 1.268 . S
O526 Sc508 2.105 . S
O526 C510 1.268 . S
O527 Sc507 2.105 . S
O527 C512 1.268 . S
H528 C534 0.930 . S
H529 C537 0.930 . S
H530 C538 0.930 . S
H531 C539 0.930 . S
H532 C542 0.930 . S
H533 C543 0.930 . S
C534 H528 0.930 . S
C534 C535 1.355 . S
C534 C536 1.415 . S
C535 C534 1.355 . S
C535 C537 1.419 . S
C536 C534 1.415 . S
C536 C541 1.425 1_556 S
C536 C543 1.409 . S
C537 H529 0.930 . S
C537 C535 1.419 . S
C537 C538 1.362 1_556 S
C538 H530 0.930 . S
C538 C537 1.362 1_554 S
C538 C541 1.409 . S
C539 H531 0.930 . S
C539 C540 1.355 . S
C539 C541 1.415 . S
C540 C539 1.355 . S
C540 C542 1.419 . S
C541 C536 1.425 1_554 S
C541 C538 1.409 . S
C541 C539 1.415 . S
C542 H532 0.930 . S
C542 C540 1.419 . S
C542 C543 1.362 1_554 S
C543 H533 0.930 . S
C543 C536 1.409 . S
C543 C542 1.362 1_556 S
H544 C550 0.930 . S
H545 C553 0.930 . S
H546 C554 0.930 . S
H547 C555 0.930 . S
H548 C558 0.930 . S
H549 C559 0.930 . S
C550 H544 0.930 . S
C550 C551 1.355 . S
C550 C552 1.415 . S
C551 C550 1.355 . S
C551 C553 1.419 . S
C552 C550 1.415 . S
C552 C557 1.425 . S
C552 C559 1.409 . S
C553 H545 0.930 . S
C553 C551 1.419 . S
C553 C554 1.362 . S
C554 H546 0.930 . S
C554 C553 1.362 . S
C554 C557 1.409 . S
C555 H547 0.930 . S
C555 C556 1.355 . S
C555 C557 1.415 . S
C556 C555 1.355 . S
C556 C558 1.419 . S
C557 C552 1.425 . S
C557 C554 1.409 . S
C557 C555 1.415 . S
C558 H548 0.930 . S
C558 C556 1.419 . S
C558 C559 1.362 . S
C559 H549 0.930 . S
C559 C552 1.409 . S
C559 C558 1.362 . S
H560 C566 0.930 . S
H561 C569 0.930 . S
H562 C570 0.930 . S
H563 C571 0.930 . S
H564 C574 0.930 . S
H565 C575 0.930 . S
C566 H560 0.930 . S
C566 C567 1.355 . S
C566 C568 1.415 . S
C567 C566 1.355 . S
C567 C569 1.419 . S
C568 C566 1.415 . S
C568 C573 1.425 1_556 S
C568 C575 1.409 . S
C569 H561 0.930 . S
C569 C567 1.419 . S
C569 C570 1.362 1_556 S
C570 H562 0.930 . S
C570 C569 1.362 1_554 S
C570 C573 1.409 . S
C571 H563 0.930 . S
C571 C572 1.355 . S
C571 C573 1.415 . S
C572 C571 1.355 . S
C572 C574 1.419 . S
C573 C568 1.425 1_554 S
C573 C570 1.409 . S
C573 C571 1.415 . S
C574 H564 0.930 . S
C574 C572 1.419 . S
C574 C575 1.362 1_554 S
C575 H565 0.930 . S
C575 C568 1.409 . S
C575 C574 1.362 1_556 S
H576 C582 0.930 . S
H577 C585 0.930 . S
H578 C586 0.930 . S
H579 C587 0.930 . S
H580 C590 0.930 . S
H581 C591 0.930 . S
C582 H576 0.930 . S
C582 C583 1.355 . S
C582 C584 1.415 . S
C583 C582 1.355 . S
C583 C585 1.419 . S
C584 C582 1.415 . S
C584 C589 1.425 . S
C584 C591 1.409 . S
C585 H577 0.930 . S
C585 C583 1.419 . S
C585 C586 1.362 . S
C586 H578 0.930 . S
C586 C585 1.362 . S
C586 C589 1.409 . S
C587 H579 0.930 . S
C587 C588 1.355 . S
C587 C589 1.415 . S
C588 C587 1.355 . S
C588 C590 1.419 . S
C589 C584 1.425 . S
C589 C586 1.409 . S
C589 C587 1.415 . S
C590 H580 0.930 . S
C590 C588 1.419 . S
C590 C591 1.362 . S
C591 H581 0.930 . S
C591 C584 1.409 . S
C591 C590 1.362 . S
H592 C598 0.930 . S
H593 C601 0.930 . S
H594 C602 0.930 . S
H595 C603 0.930 . S
H596 C606 0.930 . S
H597 C607 0.930 . S
C598 H592 0.930 . S
C598 C599 1.355 . S
C598 C600 1.415 1_556 S
C599 C598 1.355 . S
C599 C601 1.419 . S
C600 C598 1.415 1_554 S
C600 C605 1.425 1_554 S
C600 C607 1.409 . S
C601 H593 0.930 . S
C601 C599 1.419 . S
C601 C602 1.362 . S
C602 H594 0.930 . S
C602 C601 1.362 . S
C602 C605 1.409 . S
C603 H595 0.930 . S
C603 C604 1.355 . S
C603 C605 1.415 1_554 S
C604 C603 1.355 . S
C604 C606 1.419 . S
C605 C600 1.425 1_556 S
C605 C602 1.409 . S
C605 C603 1.415 1_556 S
C606 H596 0.930 . S
C606 C604 1.419 . S
C606 C607 1.362 . S
C607 H597 0.930 . S
C607 C600 1.409 . S
C607 C606 1.362 . S
H608 C614 0.930 . S
H609 C617 0.930 . S
H610 C618 0.930 . S
H611 C619 0.930 . S
H612 C622 0.930 . S
H613 C623 0.930 . S
C614 H608 0.930 . S
C614 C615 1.355 . S
C614 C616 1.415 . S
C615 C614 1.355 . S
C615 C617 1.419 . S
C616 C614 1.415 . S
C616 C621 1.425 . S
C616 C623 1.409 . S
C617 H609 0.930 . S
C617 C615 1.419 . S
C617 C618 1.362 . S
C618 H610 0.930 . S
C618 C617 1.362 . S
C618 C621 1.409 . S
C619 H611 0.930 . S
C619 C620 1.355 . S
C619 C621 1.415 . S
C620 C619 1.355 . S
C620 C622 1.419 . S
C621 C616 1.425 . S
C621 C618 1.409 . S
C621 C619 1.415 . S
C622 H612 0.930 . S
C622 C620 1.419 . S
C622 C623 1.362 . S
C623 H613 0.930 . S
C623 C616 1.409 . S
C623 C622 1.362 . S
H624 C630 0.930 . S
H625 C633 0.930 . S
H626 C634 0.930 . S
H627 C635 0.930 . S
H628 C638 0.930 . S
H629 C639 0.930 . S
C630 H624 0.930 . S
C630 C631 1.355 . S
C630 C632 1.415 1_556 S
C631 C630 1.355 . S
C631 C633 1.419 . S
C632 C630 1.415 1_554 S
C632 C637 1.425 1_554 S
C632 C639 1.409 . S
C633 H625 0.930 . S
C633 C631 1.419 . S
C633 C634 1.362 . S
C634 H626 0.930 . S
C634 C633 1.362 . S
C634 C637 1.409 . S
C635 H627 0.930 . S
C635 C636 1.355 . S
C635 C637 1.415 1_554 S
C636 C635 1.355 . S
C636 C638 1.419 . S
C637 C632 1.425 1_556 S
C637 C634 1.409 . S
C637 C635 1.415 1_556 S
C638 H628 0.930 . S
C638 C636 1.419 . S
C638 C639 1.362 . S
C639 H629 0.930 . S
C639 C632 1.409 . S
C639 C638 1.362 . S
H640 C646 0.930 . S
H641 C649 0.930 . S
H642 C650 0.930 . S
H643 C651 0.930 . S
H644 C654 0.930 . S
H645 C655 0.930 . S
C646 H640 0.930 . S
C646 C647 1.355 . S
C646 C648 1.415 . S
C647 C646 1.355 . S
C647 C649 1.419 . S
C648 C646 1.415 . S
C648 C653 1.425 . S
C648 C655 1.409 . S
C649 H641 0.930 . S
C649 C647 1.419 . S
C649 C650 1.362 . S
C650 H642 0.930 . S
C650 C649 1.362 . S
C650 C653 1.409 . S
C651 H643 0.930 . S
C651 C652 1.355 . S
C651 C653 1.415 . S
C652 C651 1.355 . S
C652 C654 1.419 . S
C653 C648 1.425 . S
C653 C650 1.409 . S
C653 C651 1.415 . S
C654 H644 0.930 . S
C654 C652 1.419 . S
C654 C655 1.362 . S
C655 H645 0.930 . S
C655 C648 1.409 . S
C655 C654 1.362 . S
H656 C662 0.930 . S
H657 C665 0.930 . S
H658 C666 0.930 . S
H659 C667 0.930 . S
H660 C670 0.930 . S
H661 C671 0.930 . S
C662 H656 0.930 . S
C662 C663 1.355 . S
C662 C664 1.415 . S
C663 C662 1.355 . S
C663 C665 1.419 . S
C664 C662 1.415 . S
C664 C669 1.425 1_554 S
C664 C671 1.409 . S
C665 H657 0.930 . S
C665 C663 1.419 . S
C665 C666 1.362 1_554 S
C666 H658 0.930 . S
C666 C665 1.362 1_556 S
C666 C669 1.409 . S
C667 H659 0.930 . S
C667 C668 1.355 . S
C667 C669 1.415 . S
C668 C667 1.355 . S
C668 C670 1.419 . S
C669 C664 1.425 1_556 S
C669 C666 1.409 . S
C669 C667 1.415 . S
C670 H660 0.930 . S
C670 C668 1.419 . S
C670 C671 1.362 1_556 S
C671 H661 0.930 . S
C671 C664 1.409 . S
C671 C670 1.362 1_554 S
H672 C678 0.930 . S
H673 C681 0.930 . S
H674 C682 0.930 . S
H675 C683 0.930 . S
H676 C686 0.930 . S
H677 C687 0.930 . S
C678 H672 0.930 . S
C678 C679 1.355 . S
C678 C680 1.415 . S
C679 C678 1.355 . S
C679 C681 1.419 . S
C680 C678 1.415 . S
C680 C685 1.425 . S
C680 C687 1.409 . S
C681 H673 0.930 . S
C681 C679 1.419 . S
C681 C682 1.362 . S
C682 H674 0.930 . S
C682 C681 1.362 . S
C682 C685 1.409 . S
C683 H675 0.930 . S
C683 C684 1.355 . S
C683 C685 1.415 . S
C684 C683 1.355 . S
C684 C686 1.419 . S
C685 C680 1.425 . S
C685 C682 1.409 . S
C685 C683 1.415 . S
C686 H676 0.930 . S
C686 C684 1.419 . S
C686 C687 1.362 . S
C687 H677 0.930 . S
C687 C680 1.409 . S
C687 C686 1.362 . S
H688 C694 0.930 . S
H689 C697 0.930 . S
H690 C698 0.930 . S
H691 C699 0.930 . S
H692 C702 0.930 . S
H693 C703 0.930 . S
C694 H688 0.930 . S
C694 C695 1.355 . S
C694 C696 1.415 . S
C695 C694 1.355 . S
C695 C697 1.419 . S
C696 C694 1.415 . S
C696 C701 1.425 1_556 S
C696 C703 1.409 . S
C697 H689 0.930 . S
C697 C695 1.419 . S
C697 C698 1.362 1_556 S
C698 H690 0.930 . S
C698 C697 1.362 1_554 S
C698 C701 1.409 . S
C699 H691 0.930 . S
C699 C700 1.355 . S
C699 C701 1.415 . S
C700 C699 1.355 . S
C700 C702 1.419 . S
C701 C696 1.425 1_554 S
C701 C698 1.409 . S
C701 C699 1.415 . S
C702 H692 0.930 . S
C702 C700 1.419 . S
C702 C703 1.362 1_554 S
C703 H693 0.930 . S
C703 C696 1.409 . S
C703 C702 1.362 1_556 S
H704 C710 0.930 . S
H705 C713 0.930 . S
H706 C714 0.930 . S
H707 C715 0.930 . S
H708 C718 0.930 . S
H709 C719 0.930 . S
C710 H704 0.930 . S
C710 C711 1.355 . S
C710 C712 1.415 . S
C711 C710 1.355 . S
C711 C713 1.419 . S
C712 C710 1.415 . S
C712 C717 1.425 . S
C712 C719 1.409 . S
C713 H705 0.930 . S
C713 C711 1.419 . S
C713 C714 1.362 . S
C714 H706 0.930 . S
C714 C713 1.362 . S
C714 C717 1.409 . S
C715 H707 0.930 . S
C715 C716 1.355 . S
C715 C717 1.415 . S
C716 C715 1.355 . S
C716 C718 1.419 . S
C717 C712 1.425 . S
C717 C714 1.409 . S
C717 C715 1.415 . S
C718 H708 0.930 . S
C718 C716 1.419 . S
C718 C719 1.362 . S
C719 H709 0.930 . S
C719 C712 1.409 . S
C719 C718 1.362 . S
H720 C726 0.930 . S
H721 C729 0.930 . S
H722 C730 0.930 . S
H723 C731 0.930 . S
H724 C734 0.930 . S
H725 C735 0.930 . S
C726 H720 0.930 . S
C726 C727 1.355 . S
C726 C728 1.415 . S
C727 C726 1.355 . S
C727 C729 1.419 . S
C728 C726 1.415 . S
C728 C733 1.425 . S
C728 C735 1.409 . S
C729 H721 0.930 . S
C729 C727 1.419 . S
C729 C730 1.362 . S
C730 H722 0.930 . S
C730 C729 1.362 . S
C730 C733 1.409 . S
C731 H723 0.930 . S
C731 C732 1.355 . S
C731 C733 1.415 . S
C732 C731 1.355 . S
C732 C734 1.419 . S
C733 C728 1.425 . S
C733 C730 1.409 . S
C733 C731 1.415 . S
C734 H724 0.930 . S
C734 C732 1.419 . S
C734 C735 1.362 . S
C735 H725 0.930 . S
C735 C728 1.409 . S
C735 C734 1.362 . S
H736 C742 0.930 . S
H737 C745 0.930 . S
H738 C746 0.930 . S
H739 C747 0.930 . S
H740 C750 0.930 . S
H741 C751 0.930 . S
C742 H736 0.930 . S
C742 C743 1.355 . S
C742 C744 1.415 . S
C743 C742 1.355 . S
C743 C745 1.419 . S
C744 C742 1.415 . S
C744 C749 1.425 . S
C744 C751 1.409 . S
C745 H737 0.930 . S
C745 C743 1.419 . S
C745 C746 1.362 . S
C746 H738 0.930 . S
C746 C745 1.362 . S
C746 C749 1.409 . S
C747 H739 0.930 . S
C747 C748 1.355 . S
C747 C749 1.415 . S
C748 C747 1.355 . S
C748 C750 1.419 . S
C749 C744 1.425 . S
C749 C746 1.409 . S
C749 C747 1.415 . S
C750 H740 0.930 . S
C750 C748 1.419 . S
C750 C751 1.362 . S
C751 H741 0.930 . S
C751 C744 1.409 . S
C751 C750 1.362 . S
H752 C758 0.930 . S
H753 C761 0.930 . S
H754 C762 0.930 . S
H755 C763 0.930 . S
H756 C766 0.930 . S
H757 C767 0.930 . S
C758 H752 0.930 . S
C758 C759 1.355 . S
C758 C760 1.415 . S
C759 C758 1.355 . S
C759 C761 1.419 . S
C760 C758 1.415 . S
C760 C765 1.425 . S
C760 C767 1.409 . S
C761 H753 0.930 . S
C761 C759 1.419 . S
C761 C762 1.362 . S
C762 H754 0.930 . S
C762 C761 1.362 . S
C762 C765 1.409 . S
C763 H755 0.930 . S
C763 C764 1.355 . S
C763 C765 1.415 . S
C764 C763 1.355 . S
C764 C766 1.419 . S
C765 C760 1.425 . S
C765 C762 1.409 . S
C765 C763 1.415 . S
C766 H756 0.930 . S
C766 C764 1.419 . S
C766 C767 1.362 . S
C767 H757 0.930 . S
C767 C760 1.409 . S
C767 C766 1.362 . S
H768 C774 0.930 . S
H769 C777 0.930 . S
H770 C778 0.930 . S
H771 C779 0.930 . S
H772 C782 0.930 . S
H773 C783 0.930 . S
C774 H768 0.930 . S
C774 C775 1.355 . S
C774 C776 1.415 . S
C775 C774 1.355 . S
C775 C777 1.419 . S
C776 C774 1.415 . S
C776 C781 1.425 . S
C776 C783 1.409 . S
C777 H769 0.930 . S
C777 C775 1.419 . S
C777 C778 1.362 . S
C778 H770 0.930 . S
C778 C777 1.362 . S
C778 C781 1.409 . S
C779 H771 0.930 . S
C779 C780 1.355 . S
C779 C781 1.415 . S
C780 C779 1.355 . S
C780 C782 1.419 . S
C781 C776 1.425 . S
C781 C778 1.409 . S
C781 C779 1.415 . S
C782 H772 0.930 . S
C782 C780 1.419 . S
C782 C783 1.362 . S
C783 H773 0.930 . S
C783 C776 1.409 . S
C783 C782 1.362 . S
H784 C790 0.930 . S
H785 C793 0.930 . S
H786 C794 0.930 . S
H787 C795 0.930 . S
H788 C798 0.930 . S
H789 C799 0.930 . S
C790 H784 0.930 . S
C790 C791 1.355 . S
C790 C792 1.415 . S
C791 C790 1.355 . S
C791 C793 1.419 . S
C792 C790 1.415 . S
C792 C797 1.425 . S
C792 C799 1.409 . S
C793 H785 0.930 . S
C793 C791 1.419 . S
C793 C794 1.362 . S
C794 H786 0.930 . S
C794 C793 1.362 . S
C794 C797 1.409 . S
C795 H787 0.930 . S
C795 C796 1.355 . S
C795 C797 1.415 . S
C796 C795 1.355 . S
C796 C798 1.419 . S
C797 C792 1.425 . S
C797 C794 1.409 . S
C797 C795 1.415 . S
C798 H788 0.930 . S
C798 C796 1.419 . S
C798 C799 1.362 . S
C799 H789 0.930 . S
C799 C792 1.409 . S
C799 C798 1.362 . S
H800 C806 0.930 . S
H801 C809 0.930 . S
H802 C810 0.930 . S
H803 C811 0.930 . S
H804 C814 0.930 . S
H805 C815 0.930 . S
C806 H800 0.930 . S
C806 C807 1.355 . S
C806 C808 1.415 . S
C807 C806 1.355 . S
C807 C809 1.419 . S
C808 C806 1.415 . S
C808 C813 1.425 . S
C808 C815 1.409 . S
C809 H801 0.930 . S
C809 C807 1.419 . S
C809 C810 1.362 . S
C810 H802 0.930 . S
C810 C809 1.362 . S
C810 C813 1.409 . S
C811 H803 0.930 . S
C811 C812 1.355 . S
C811 C813 1.415 . S
C812 C811 1.355 . S
C812 C814 1.419 . S
C813 C808 1.425 . S
C813 C810 1.409 . S
C813 C811 1.415 . S
C814 H804 0.930 . S
C814 C812 1.419 . S
C814 C815 1.362 . S
C815 H805 0.930 . S
C815 C808 1.409 . S
C815 C814 1.362 . S
H816 C822 0.930 . S
H817 C825 0.930 . S
H818 C826 0.930 . S
H819 C827 0.930 . S
H820 C830 0.930 . S
H821 C831 0.930 . S
C822 H816 0.930 . S
C822 C823 1.355 . S
C822 C824 1.415 . S
C823 C822 1.355 . S
C823 C825 1.419 . S
C824 C822 1.415 . S
C824 C829 1.425 . S
C824 C831 1.409 . S
C825 H817 0.930 . S
C825 C823 1.419 . S
C825 C826 1.362 . S
C826 H818 0.930 . S
C826 C825 1.362 . S
C826 C829 1.409 . S
C827 H819 0.930 . S
C827 C828 1.355 . S
C827 C829 1.415 . S
C828 C827 1.355 . S
C828 C830 1.419 . S
C829 C824 1.425 . S
C829 C826 1.409 . S
C829 C827 1.415 . S
C830 H820 0.930 . S
C830 C828 1.419 . S
C830 C831 1.362 . S
C831 H821 0.930 . S
C831 C824 1.409 . S
C831 C830 1.362 . S
H832 C838 0.930 . S
H833 C841 0.930 . S
H834 C842 0.930 . S
H835 C843 0.930 . S
H836 C846 0.930 . S
H837 C847 0.930 . S
C838 H832 0.930 . S
C838 C839 1.355 . S
C838 C840 1.415 . S
C839 C838 1.355 . S
C839 C841 1.419 . S
C840 C838 1.415 . S
C840 C845 1.425 . S
C840 C847 1.409 . S
C841 H833 0.930 . S
C841 C839 1.419 . S
C841 C842 1.362 . S
C842 H834 0.930 . S
C842 C841 1.362 . S
C842 C845 1.409 . S
C843 H835 0.930 . S
C843 C844 1.355 . S
C843 C845 1.415 . S
C844 C843 1.355 . S
C844 C846 1.419 . S
C845 C840 1.425 . S
C845 C842 1.409 . S
C845 C843 1.415 . S
C846 H836 0.930 . S
C846 C844 1.419 . S
C846 C847 1.362 . S
C847 H837 0.930 . S
C847 C840 1.409 . S
C847 C846 1.362 . S
H848 C854 0.930 . S
H849 C857 0.930 . S
H850 C858 0.930 . S
H851 C859 0.930 . S
H852 C862 0.930 . S
H853 C863 0.930 . S
C854 H848 0.930 . S
C854 C855 1.355 . S
C854 C856 1.415 . S
C855 C854 1.355 . S
C855 C857 1.419 . S
C856 C854 1.415 . S
C856 C861 1.425 . S
C856 C863 1.409 . S
C857 H849 0.930 . S
C857 C855 1.419 . S
C857 C858 1.362 . S
C858 H850 0.930 . S
C858 C857 1.362 . S
C858 C861 1.409 . S
C859 H851 0.930 . S
C859 C860 1.355 . S
C859 C861 1.415 . S
C860 C859 1.355 . S
C860 C862 1.419 . S
C861 C856 1.425 . S
C861 C858 1.409 . S
C861 C859 1.415 . S
C862 H852 0.930 . S
C862 C860 1.419 . S
C862 C863 1.362 . S
C863 H853 0.930 . S
C863 C856 1.409 . S
C863 C862 1.362 . S
H864 C870 0.930 . S
H865 C873 0.930 . S
H866 C874 0.930 . S
H867 C875 0.930 . S
H868 C878 0.930 . S
H869 C879 0.930 . S
C870 H864 0.930 . S
C870 C871 1.355 . S
C870 C872 1.415 . S
C871 C870 1.355 . S
C871 C873 1.419 . S
C872 C870 1.415 . S
C872 C877 1.425 . S
C872 C879 1.409 . S
C873 H865 0.930 . S
C873 C871 1.419 . S
C873 C874 1.362 . S
C874 H866 0.930 . S
C874 C873 1.362 . S
C874 C877 1.409 . S
C875 H867 0.930 . S
C875 C876 1.355 . S
C875 C877 1.415 . S
C876 C875 1.355 . S
C876 C878 1.419 . S
C877 C872 1.425 . S
C877 C874 1.409 . S
C877 C875 1.415 . S
C878 H868 0.930 . S
C878 C876 1.419 . S
C878 C879 1.362 . S
C879 H869 0.930 . S
C879 C872 1.409 . S
C879 C878 1.362 . S
H880 C886 0.930 . S
H881 C889 0.930 . S
H882 C890 0.930 . S
H883 C891 0.930 . S
H884 C894 0.930 . S
H885 C895 0.930 . S
C886 H880 0.930 . S
C886 C887 1.355 . S
C886 C888 1.415 . S
C887 C886 1.355 . S
C887 C889 1.419 . S
C888 C886 1.415 . S
C888 C893 1.425 . S
C888 C895 1.409 . S
C889 H881 0.930 . S
C889 C887 1.419 . S
C889 C890 1.362 . S
C890 H882 0.930 . S
C890 C889 1.362 . S
C890 C893 1.409 . S
C891 H883 0.930 . S
C891 C892 1.355 . S
C891 C893 1.415 . S
C892 C891 1.355 . S
C892 C894 1.419 . S
C893 C888 1.425 . S
C893 C890 1.409 . S
C893 C891 1.415 . S
C894 H884 0.930 . S
C894 C892 1.419 . S
C894 C895 1.362 . S
C895 H885 0.930 . S
C895 C888 1.409 . S
C895 C894 1.362 . S
H896 C902 0.930 . S
H897 C905 0.930 . S
H898 C906 0.930 . S
H899 C907 0.930 . S
H900 C910 0.930 . S
H901 C911 0.930 . S
C902 H896 0.930 . S
C902 C903 1.355 . S
C902 C904 1.415 . S
C903 C902 1.355 . S
C903 C905 1.419 . S
C904 C902 1.415 . S
C904 C909 1.425 . S
C904 C911 1.409 . S
C905 H897 0.930 . S
C905 C903 1.419 . S
C905 C906 1.362 . S
C906 H898 0.930 . S
C906 C905 1.362 . S
C906 C909 1.409 . S
C907 H899 0.930 . S
C907 C908 1.355 . S
C907 C909 1.415 . S
C908 C907 1.355 . S
C908 C910 1.419 . S
C909 C904 1.425 . S
C909 C906 1.409 . S
C909 C907 1.415 . S
C910 H900 0.930 . S
C910 C908 1.419 . S
C910 C911 1.362 . S
C911 H901 0.930 . S
C911 C904 1.409 . S
C911 C910 1.362 . S
H912 C918 0.930 . S
H913 C921 0.930 . S
H914 C922 0.930 . S
H915 C923 0.930 . S
H916 C926 0.930 . S
H917 C927 0.930 . S
C918 H912 0.930 . S
C918 C919 1.355 . S
C918 C920 1.415 . S
C919 C918 1.355 . S
C919 C921 1.419 . S
C920 C918 1.415 . S
C920 C925 1.425 . S
C920 C927 1.409 . S
C921 H913 0.930 . S
C921 C919 1.419 . S
C921 C922 1.362 . S
C922 H914 0.930 . S
C922 C921 1.362 . S
C922 C925 1.409 . S
C923 H915 0.930 . S
C923 C924 1.355 . S
C923 C925 1.415 . S
C924 C923 1.355 . S
C924 C926 1.419 . S
C925 C920 1.425 . S
C925 C922 1.409 . S
C925 C923 1.415 . S
C926 H916 0.930 . S
C926 C924 1.419 . S
C926 C927 1.362 . S
C927 H917 0.930 . S
C927 C920 1.409 . S
C927 C926 1.362 . S
H928 C934 0.930 . S
H929 C937 0.930 . S
H930 C938 0.930 . S
H931 C939 0.930 . S
H932 C942 0.930 . S
H933 C943 0.930 . S
C934 H928 0.930 . S
C934 C935 1.355 . S
C934 C936 1.415 . S
C935 C934 1.355 . S
C935 C937 1.419 . S
C936 C934 1.415 . S
C936 C941 1.425 . S
C936 C943 1.409 . S
C937 H929 0.930 . S
C937 C935 1.419 . S
C937 C938 1.362 . S
C938 H930 0.930 . S
C938 C937 1.362 . S
C938 C941 1.409 . S
C939 H931 0.930 . S
C939 C940 1.355 . S
C939 C941 1.415 . S
C940 C939 1.355 . S
C940 C942 1.419 . S
C941 C936 1.425 . S
C941 C938 1.409 . S
C941 C939 1.415 . S
C942 H932 0.930 . S
C942 C940 1.419 . S
C942 C943 1.362 . S
C943 H933 0.930 . S
C943 C936 1.409 . S
C943 C942 1.362 . S
H944 C950 0.930 . S
H945 C953 0.930 . S
H946 C954 0.930 . S
H947 C955 0.930 . S
H948 C958 0.930 . S
H949 C959 0.930 . S
C950 H944 0.930 . S
C950 C951 1.355 . S
C950 C952 1.415 . S
C951 C950 1.355 . S
C951 C953 1.419 . S
C952 C950 1.415 . S
C952 C957 1.425 . S
C952 C959 1.409 . S
C953 H945 0.930 . S
C953 C951 1.419 . S
C953 C954 1.362 . S
C954 H946 0.930 . S
C954 C953 1.362 . S
C954 C957 1.409 . S
C955 H947 0.930 . S
C955 C956 1.355 . S
C955 C957 1.415 . S
C956 C955 1.355 . S
C956 C958 1.419 . S
C957 C952 1.425 . S
C957 C954 1.409 . S
C957 C955 1.415 . S
C958 H948 0.930 . S
C958 C956 1.419 . S
C958 C959 1.362 . S
C959 H949 0.930 . S
C959 C952 1.409 . S
C959 C958 1.362 . S
H960 C966 0.930 . S
H961 C969 0.930 . S
H962 C970 0.930 . S
H963 C971 0.930 . S
H964 C974 0.930 . S
H965 C975 0.930 . S
C966 H960 0.930 . S
C966 C967 1.355 . S
C966 C968 1.415 . S
C967 C966 1.355 . S
C967 C969 1.419 . S
C968 C966 1.415 . S
C968 C973 1.425 . S
C968 C975 1.409 . S
C969 H961 0.930 . S
C969 C967 1.419 . S
C969 C970 1.362 . S
C970 H962 0.930 . S
C970 C969 1.362 . S
C970 C973 1.409 . S
C971 H963 0.930 . S
C971 C972 1.355 . S
C971 C973 1.415 . S
C972 C971 1.355 . S
C972 C974 1.419 . S
C973 C968 1.425 . S
C973 C970 1.409 . S
C973 C971 1.415 . S
C974 H964 0.930 . S
C974 C972 1.419 . S
C974 C975 1.362 . S
C975 H965 0.930 . S
C975 C968 1.409 . S
C975 C974 1.362 . S
H976 C982 0.930 . S
H977 C985 0.930 . S
H978 C986 0.930 . S
H979 C987 0.930 . S
H980 C990 0.930 . S
H981 C991 0.930 . S
C982 H976 0.930 . S
C982 C983 1.355 . S
C982 C984 1.415 . S
C983 C982 1.355 . S
C983 C985 1.419 . S
C984 C982 1.415 . S
C984 C989 1.425 . S
C984 C991 1.409 . S
C985 H977 0.930 . S
C985 C983 1.419 . S
C985 C986 1.362 . S
C986 H978 0.930 . S
C986 C985 1.362 . S
C986 C989 1.409 . S
C987 H979 0.930 . S
C987 C988 1.355 . S
C987 C989 1.415 . S
C988 C987 1.355 . S
C988 C990 1.419 . S
C989 C984 1.425 . S
C989 C986 1.409 . S
C989 C987 1.415 . S
C990 H980 0.930 . S
C990 C988 1.419 . S
C990 C991 1.362 . S
C991 H981 0.930 . S
C991 C984 1.409 . S
C991 C990 1.362 . S
H992 C998 0.930 . S
H993 C1001 0.930 . S
H994 C1002 0.930 . S
H995 C1003 0.930 . S
H996 C1006 0.930 . S
H997 C1007 0.930 . S
C998 H992 0.930 . S
C998 C999 1.355 . S
C998 C1000 1.415 . S
C999 C998 1.355 . S
C999 C1001 1.419 . S
C1000 C998 1.415 . S
C1000 C1005 1.425 . S
C1000 C1007 1.409 . S
C1001 H993 0.930 . S
C1001 C999 1.419 . S
C1001 C1002 1.362 . S
C1002 H994 0.930 . S
C1002 C1001 1.362 . S
C1002 C1005 1.409 . S
C1003 H995 0.930 . S
C1003 C1004 1.355 . S
C1003 C1005 1.415 . S
C1004 C1003 1.355 . S
C1004 C1006 1.419 . S
C1005 C1000 1.425 . S
C1005 C1002 1.409 . S
C1005 C1003 1.415 . S
C1006 H996 0.930 . S
C1006 C1004 1.419 . S
C1006 C1007 1.362 . S
C1007 H997 0.930 . S
C1007 C1000 1.409 . S
C1007 C1006 1.362 . S
H1008 C1014 0.930 . S
H1009 C1017 0.930 . S
H1010 C1018 0.930 . S
H1011 C1019 0.930 . S
H1012 C1022 0.930 . S
H1013 C1023 0.930 . S
C1014 H1008 0.930 . S
C1014 C1015 1.355 . S
C1014 C1016 1.415 . S
C1015 C1014 1.355 . S
C1015 C1017 1.419 . S
C1016 C1014 1.415 . S
C1016 C1021 1.425 . S
C1016 C1023 1.409 . S
C1017 H1009 0.930 . S
C1017 C1015 1.419 . S
C1017 C1018 1.362 . S
C1018 H1010 0.930 . S
C1018 C1017 1.362 . S
C1018 C1021 1.409 . S
C1019 H1011 0.930 . S
C1019 C1020 1.355 . S
C1019 C1021 1.415 . S
C1020 C1019 1.355 . S
C1020 C1022 1.419 . S
C1021 C1016 1.425 . S
C1021 C1018 1.409 . S
C1021 C1019 1.415 . S
C1022 H1012 0.930 . S
C1022 C1020 1.419 . S
C1022 C1023 1.362 . S
C1023 H1013 0.930 . S
C1023 C1016 1.409 . S
C1023 C1022 1.362 . S
H1024 C1030 0.930 . S
H1025 C1033 0.930 . S
H1026 C1034 0.930 . S
H1027 C1035 0.930 . S
H1028 C1038 0.930 . S
H1029 C1039 0.930 . S
C1030 H1024 0.930 . S
C1030 C1031 1.355 . S
C1030 C1032 1.415 . S
C1031 C1030 1.355 . S
C1031 C1033 1.419 . S
C1032 C1030 1.415 . S
C1032 C1037 1.425 . S
C1032 C1039 1.409 . S
C1033 H1025 0.930 . S
C1033 C1031 1.419 . S
C1033 C1034 1.362 . S
C1034 H1026 0.930 . S
C1034 C1033 1.362 . S
C1034 C1037 1.409 . S
C1035 H1027 0.930 . S
C1035 C1036 1.355 . S
C1035 C1037 1.415 . S
C1036 C1035 1.355 . S
C1036 C1038 1.419 . S
C1037 C1032 1.425 . S
C1037 C1034 1.409 . S
C1037 C1035 1.415 . S
C1038 H1028 0.930 . S
C1038 C1036 1.419 . S
C1038 C1039 1.362 . S
C1039 H1029 0.930 . S
C1039 C1032 1.409 . S
C1039 C1038 1.362 . S
H1040 C1046 0.930 . S
H1041 C1049 0.930 . S
H1042 C1050 0.930 . S
H1043 C1051 0.930 . S
H1044 C1054 0.930 . S
H1045 C1055 0.930 . S
C1046 H1040 0.930 . S
C1046 C1047 1.355 . S
C1046 C1048 1.415 . S
C1047 C1046 1.355 . S
C1047 C1049 1.419 . S
C1048 C1046 1.415 . S
C1048 C1053 1.425 . S
C1048 C1055 1.409 . S
C1049 H1041 0.930 . S
C1049 C1047 1.419 . S
C1049 C1050 1.362 . S
C1050 H1042 0.930 . S
C1050 C1049 1.362 . S
C1050 C1053 1.409 . S
C1051 H1043 0.930 . S
C1051 C1052 1.355 . S
C1051 C1053 1.415 . S
C1052 C1051 1.355 . S
C1052 C1054 1.419 . S
C1053 C1048 1.425 . S
C1053 C1050 1.409 . S
C1053 C1051 1.415 . S
C1054 H1044 0.930 . S
C1054 C1052 1.419 . S
C1054 C1055 1.362 . S
C1055 H1045 0.930 . S
C1055 C1048 1.409 . S
C1055 C1054 1.362 . S
H1056 C1062 0.930 . S
H1057 C1065 0.930 . S
H1058 C1066 0.930 . S
H1059 C1067 0.930 . S
H1060 C1070 0.930 . S
H1061 C1071 0.930 . S
C1062 H1056 0.930 . S
C1062 C1063 1.355 . S
C1062 C1064 1.415 . S
C1063 C1062 1.355 . S
C1063 C1065 1.419 . S
C1064 C1062 1.415 . S
C1064 C1069 1.425 . S
C1064 C1071 1.409 . S
C1065 H1057 0.930 . S
C1065 C1063 1.419 . S
C1065 C1066 1.362 . S
C1066 H1058 0.930 . S
C1066 C1065 1.362 . S
C1066 C1069 1.409 . S
C1067 H1059 0.930 . S
C1067 C1068 1.355 . S
C1067 C1069 1.415 . S
C1068 C1067 1.355 . S
C1068 C1070 1.419 . S
C1069 C1064 1.425 . S
C1069 C1066 1.409 . S
C1069 C1067 1.415 . S
C1070 H1060 0.930 . S
C1070 C1068 1.419 . S
C1070 C1071 1.362 . S
C1071 H1061 0.930 . S
C1071 C1064 1.409 . S
C1071 C1070 1.362 . S
H1072 C1078 0.930 . S
H1073 C1081 0.930 . S
H1074 C1082 0.930 . S
H1075 C1083 0.930 . S
H1076 C1086 0.930 . S
H1077 C1087 0.930 . S
C1078 H1072 0.930 . S
C1078 C1079 1.355 . S
C1078 C1080 1.415 . S
C1079 C1078 1.355 . S
C1079 C1081 1.419 . S
C1080 C1078 1.415 . S
C1080 C1085 1.425 . S
C1080 C1087 1.409 . S
C1081 H1073 0.930 . S
C1081 C1079 1.419 . S
C1081 C1082 1.362 . S
C1082 H1074 0.930 . S
C1082 C1081 1.362 . S
C1082 C1085 1.409 . S
C1083 H1075 0.930 . S
C1083 C1084 1.355 . S
C1083 C1085 1.415 . S
C1084 C1083 1.355 . S
C1084 C1086 1.419 . S
C1085 C1080 1.425 . S
C1085 C1082 1.409 . S
C1085 C1083 1.415 . S
C1086 H1076 0.930 . S
C1086 C1084 1.419 . S
C1086 C1087 1.362 . S
C1087 H1077 0.930 . S
C1087 C1080 1.409 . S
C1087 C1086 1.362 . S
H1088 C1094 0.930 . S
H1089 C1097 0.930 . S
H1090 C1098 0.930 . S
H1091 C1099 0.930 . S
H1092 C1102 0.930 . S
H1093 C1103 0.930 . S
C1094 H1088 0.930 . S
C1094 C1095 1.355 . S
C1094 C1096 1.415 . S
C1095 C1094 1.355 . S
C1095 C1097 1.419 . S
C1096 C1094 1.415 . S
C1096 C1101 1.425 . S
C1096 C1103 1.409 . S
C1097 H1089 0.930 . S
C1097 C1095 1.419 . S
C1097 C1098 1.362 . S
C1098 H1090 0.930 . S
C1098 C1097 1.362 . S
C1098 C1101 1.409 . S
C1099 H1091 0.930 . S
C1099 C1100 1.355 . S
C1099 C1101 1.415 . S
C1100 C1099 1.355 . S
C1100 C1102 1.419 . S
C1101 C1096 1.425 . S
C1101 C1098 1.409 . S
C1101 C1099 1.415 . S
C1102 H1092 0.930 . S
C1102 C1100 1.419 . S
C1102 C1103 1.362 . S
C1103 H1093 0.930 . S
C1103 C1096 1.409 . S
C1103 C1102 1.362 . S
H1104 C1110 0.930 . S
H1105 C1113 0.930 . S
H1106 C1114 0.930 . S
H1107 C1115 0.930 . S
H1108 C1118 0.930 . S
H1109 C1119 0.930 . S
C1110 H1104 0.930 . S
C1110 C1111 1.355 . S
C1110 C1112 1.415 . S
C1111 C1110 1.355 . S
C1111 C1113 1.419 . S
C1112 C1110 1.415 . S
C1112 C1117 1.425 . S
C1112 C1119 1.409 . S
C1113 H1105 0.930 . S
C1113 C1111 1.419 . S
C1113 C1114 1.362 . S
C1114 H1106 0.930 . S
C1114 C1113 1.362 . S
C1114 C1117 1.409 . S
C1115 H1107 0.930 . S
C1115 C1116 1.355 . S
C1115 C1117 1.415 . S
C1116 C1115 1.355 . S
C1116 C1118 1.419 . S
C1117 C1112 1.425 . S
C1117 C1114 1.409 . S
C1117 C1115 1.415 . S
C1118 H1108 0.930 . S
C1118 C1116 1.419 . S
C1118 C1119 1.362 . S
C1119 H1109 0.930 . S
C1119 C1112 1.409 . S
C1119 C1118 1.362 . S
H1120 C1126 0.930 . S
H1121 C1129 0.930 . S
H1122 C1130 0.930 . S
H1123 C1131 0.930 . S
H1124 C1134 0.930 . S
H1125 C1135 0.930 . S
C1126 H1120 0.930 . S
C1126 C1127 1.355 . S
C1126 C1128 1.415 . S
C1127 C1126 1.355 . S
C1127 C1129 1.419 . S
C1128 C1126 1.415 . S
C1128 C1133 1.425 . S
C1128 C1135 1.409 . S
C1129 H1121 0.930 . S
C1129 C1127 1.419 . S
C1129 C1130 1.362 . S
C1130 H1122 0.930 . S
C1130 C1129 1.362 . S
C1130 C1133 1.409 . S
C1131 H1123 0.930 . S
C1131 C1132 1.355 . S
C1131 C1133 1.415 . S
C1132 C1131 1.355 . S
C1132 C1134 1.419 . S
C1133 C1128 1.425 . S
C1133 C1130 1.409 . S
C1133 C1131 1.415 . S
C1134 H1124 0.930 . S
C1134 C1132 1.419 . S
C1134 C1135 1.362 . S
C1135 H1125 0.930 . S
C1135 C1128 1.409 . S
C1135 C1134 1.362 . S
H1136 C1142 0.930 . S
H1137 C1145 0.930 . S
H1138 C1146 0.930 . S
H1139 C1147 0.930 . S
H1140 C1150 0.930 . S
H1141 C1151 0.930 . S
C1142 H1136 0.930 . S
C1142 C1143 1.355 . S
C1142 C1144 1.415 . S
C1143 C1142 1.355 . S
C1143 C1145 1.419 . S
C1144 C1142 1.415 . S
C1144 C1149 1.425 . S
C1144 C1151 1.409 . S
C1145 H1137 0.930 . S
C1145 C1143 1.419 . S
C1145 C1146 1.362 . S
C1146 H1138 0.930 . S
C1146 C1145 1.362 . S
C1146 C1149 1.409 . S
C1147 H1139 0.930 . S
C1147 C1148 1.355 . S
C1147 C1149 1.415 . S
C1148 C1147 1.355 . S
C1148 C1150 1.419 . S
C1149 C1144 1.425 . S
C1149 C1146 1.409 . S
C1149 C1147 1.415 . S
C1150 H1140 0.930 . S
C1150 C1148 1.419 . S
C1150 C1151 1.362 . S
C1151 H1141 0.930 . S
C1151 C1144 1.409 . S
C1151 C1150 1.362 . S
H1152 C1158 0.930 . S
H1153 C1161 0.930 . S
H1154 C1162 0.930 . S
H1155 C1163 0.930 . S
H1156 C1166 0.930 . S
H1157 C1167 0.930 . S
C1158 H1152 0.930 . S
C1158 C1159 1.355 . S
C1158 C1160 1.415 . S
C1159 C1158 1.355 . S
C1159 C1161 1.419 . S
C1160 C1158 1.415 . S
C1160 C1165 1.425 . S
C1160 C1167 1.409 . S
C1161 H1153 0.930 . S
C1161 C1159 1.419 . S
C1161 C1162 1.362 . S
C1162 H1154 0.930 . S
C1162 C1161 1.362 . S
C1162 C1165 1.409 . S
C1163 H1155 0.930 . S
C1163 C1164 1.355 . S
C1163 C1165 1.415 . S
C1164 C1163 1.355 . S
C1164 C1166 1.419 . S
C1165 C1160 1.425 . S
C1165 C1162 1.409 . S
C1165 C1163 1.415 . S
C1166 H1156 0.930 . S
C1166 C1164 1.419 . S
C1166 C1167 1.362 . S
C1167 H1157 0.930 . S
C1167 C1160 1.409 . S
C1167 C1166 1.362 . S
H1168 C1174 0.930 . S
H1169 C1177 0.930 . S
H1170 C1178 0.930 . S
H1171 C1179 0.930 . S
H1172 C1182 0.930 . S
H1173 C1183 0.930 . S
C1174 H1168 0.930 . S
C1174 C1175 1.355 . S
C1174 C1176 1.415 . S
C1175 C1174 1.355 . S
C1175 C1177 1.419 . S
C1176 C1174 1.415 . S
C1176 C1181 1.425 . S
C1176 C1183 1.409 . S
C1177 H1169 0.930 . S
C1177 C1175 1.419 . S
C1177 C1178 1.362 . S
C1178 H1170 0.930 . S
C1178 C1177 1.362 . S
C1178 C1181 1.409 . S
C1179 H1171 0.930 . S
C1179 C1180 1.355 . S
C1179 C1181 1.415 . S
C1180 C1179 1.355 . S
C1180 C1182 1.419 . S
C1181 C1176 1.425 . S
C1181 C1178 1.409 . S
C1181 C1179 1.415 . S
C1182 H1172 0.930 . S
C1182 C1180 1.419 . S
C1182 C1183 1.362 . S
C1183 H1173 0.930 . S
C1183 C1176 1.409 . S
C1183 C1182 1.362 . S
H1184 C1190 0.930 . S
H1185 C1193 0.930 . S
H1186 C1194 0.930 . S
H1187 C1195 0.930 . S
H1188 C1198 0.930 . S
H1189 C1199 0.930 . S
C1190 H1184 0.930 . S
C1190 C1191 1.355 . S
C1190 C1192 1.415 . S
C1191 C1190 1.355 . S
C1191 C1193 1.419 . S
C1192 C1190 1.415 . S
C1192 C1197 1.425 . S
C1192 C1199 1.409 . S
C1193 H1185 0.930 . S
C1193 C1191 1.419 . S
C1193 C1194 1.362 . S
C1194 H1186 0.930 . S
C1194 C1193 1.362 . S
C1194 C1197 1.409 . S
C1195 H1187 0.930 . S
C1195 C1196 1.355 . S
C1195 C1197 1.415 . S
C1196 C1195 1.355 . S
C1196 C1198 1.419 . S
C1197 C1192 1.425 . S
C1197 C1194 1.409 . S
C1197 C1195 1.415 . S
C1198 H1188 0.930 . S
C1198 C1196 1.419 . S
C1198 C1199 1.362 . S
C1199 H1189 0.930 . S
C1199 C1192 1.409 . S
C1199 C1198 1.362 . S
H1200 C1206 0.930 . S
H1201 C1209 0.930 . S
H1202 C1210 0.930 . S
H1203 C1211 0.930 . S
H1204 C1214 0.930 . S
H1205 C1215 0.930 . S
C1206 H1200 0.930 . S
C1206 C1207 1.355 . S
C1206 C1208 1.415 . S
C1207 C1206 1.355 . S
C1207 C1209 1.419 . S
C1208 C1206 1.415 . S
C1208 C1213 1.425 . S
C1208 C1215 1.409 . S
C1209 H1201 0.930 . S
C1209 C1207 1.419 . S
C1209 C1210 1.362 . S
C1210 H1202 0.930 . S
C1210 C1209 1.362 . S
C1210 C1213 1.409 . S
C1211 H1203 0.930 . S
C1211 C1212 1.355 . S
C1211 C1213 1.415 . S
C1212 C1211 1.355 . S
C1212 C1214 1.419 . S
C1213 C1208 1.425 . S
C1213 C1210 1.409 . S
C1213 C1211 1.415 . S
C1214 H1204 0.930 . S
C1214 C1212 1.419 . S
C1214 C1215 1.362 . S
C1215 H1205 0.930 . S
C1215 C1208 1.409 . S
C1215 C1214 1.362 . S
H1216 C1222 0.930 . S
H1217 C1225 0.930 . S
H1218 C1226 0.930 . S
H1219 C1227 0.930 . S
H1220 C1230 0.930 . S
H1221 C1231 0.930 . S
C1222 H1216 0.930 . S
C1222 C1223 1.355 . S
C1222 C1224 1.415 . S
C1223 C1222 1.355 . S
C1223 C1225 1.419 . S
C1224 C1222 1.415 . S
C1224 C1229 1.425 . S
C1224 C1231 1.409 . S
C1225 H1217 0.930 . S
C1225 C1223 1.419 . S
C1225 C1226 1.362 . S
C1226 H1218 0.930 . S
C1226 C1225 1.362 . S
C1226 C1229 1.409 . S
C1227 H1219 0.930 . S
C1227 C1228 1.355 . S
C1227 C1229 1.415 . S
C1228 C1227 1.355 . S
C1228 C1230 1.419 . S
C1229 C1224 1.425 . S
C1229 C1226 1.409 . S
C1229 C1227 1.415 . S
C1230 H1220 0.930 . S
C1230 C1228 1.419 . S
C1230 C1231 1.362 . S
C1231 H1221 0.930 . S
C1231 C1224 1.409 . S
C1231 C1230 1.362 . S
H1232 C1238 0.930 . S
H1233 C1241 0.930 . S
H1234 C1242 0.930 . S
H1235 C1243 0.930 . S
H1236 C1246 0.930 . S
H1237 C1247 0.930 . S
C1238 H1232 0.930 . S
C1238 C1239 1.355 . S
C1238 C1240 1.415 . S
C1239 C1238 1.355 . S
C1239 C1241 1.419 . S
C1240 C1238 1.415 . S
C1240 C1245 1.425 . S
C1240 C1247 1.409 . S
C1241 H1233 0.930 . S
C1241 C1239 1.419 . S
C1241 C1242 1.362 . S
C1242 H1234 0.930 . S
C1242 C1241 1.362 . S
C1242 C1245 1.409 . S
C1243 H1235 0.930 . S
C1243 C1244 1.355 . S
C1243 C1245 1.415 . S
C1244 C1243 1.355 . S
C1244 C1246 1.419 . S
C1245 C1240 1.425 . S
C1245 C1242 1.409 . S
C1245 C1243 1.415 . S
C1246 H1236 0.930 . S
C1246 C1244 1.419 . S
C1246 C1247 1.362 . S
C1247 H1237 0.930 . S
C1247 C1240 1.409 . S
C1247 C1246 1.362 . S
H1248 C1254 0.930 . S
H1249 C1257 0.930 . S
H1250 C1258 0.930 . S
H1251 C1259 0.930 . S
H1252 C1262 0.930 . S
H1253 C1263 0.930 . S
C1254 H1248 0.930 . S
C1254 C1255 1.355 . S
C1254 C1256 1.415 . S
C1255 C1254 1.355 . S
C1255 C1257 1.419 . S
C1256 C1254 1.415 . S
C1256 C1261 1.425 . S
C1256 C1263 1.409 . S
C1257 H1249 0.930 . S
C1257 C1255 1.419 . S
C1257 C1258 1.362 . S
C1258 H1250 0.930 . S
C1258 C1257 1.362 . S
C1258 C1261 1.409 . S
C1259 H1251 0.930 . S
C1259 C1260 1.355 . S
C1259 C1261 1.415 . S
C1260 C1259 1.355 . S
C1260 C1262 1.419 . S
C1261 C1256 1.425 . S
C1261 C1258 1.409 . S
C1261 C1259 1.415 . S
C1262 H1252 0.930 . S
C1262 C1260 1.419 . S
C1262 C1263 1.362 . S
C1263 H1253 0.930 . S
C1263 C1256 1.409 . S
C1263 C1262 1.362 . S
H1264 C1270 0.930 . S
H1265 C1273 0.930 . S
H1266 C1274 0.930 . S
H1267 C1275 0.930 . S
H1268 C1278 0.930 . S
H1269 C1279 0.930 . S
C1270 H1264 0.930 . S
C1270 C1271 1.355 . S
C1270 C1272 1.415 . S
C1271 C1270 1.355 . S
C1271 C1273 1.419 . S
C1272 C1270 1.415 . S
C1272 C1277 1.425 . S
C1272 C1279 1.409 . S
C1273 H1265 0.930 . S
C1273 C1271 1.419 . S
C1273 C1274 1.362 . S
C1274 H1266 0.930 . S
C1274 C1273 1.362 . S
C1274 C1277 1.409 . S
C1275 H1267 0.930 . S
C1275 C1276 1.355 . S
C1275 C1277 1.415 . S
C1276 C1275 1.355 . S
C1276 C1278 1.419 . S
C1277 C1272 1.425 . S
C1277 C1274 1.409 . S
C1277 C1275 1.415 . S
C1278 H1268 0.930 . S
C1278 C1276 1.419 . S
C1278 C1279 1.362 . S
C1279 H1269 0.930 . S
C1279 C1272 1.409 . S
C1279 C1278 1.362 . S
H1280 C1286 0.930 . S
H1281 C1289 0.930 . S
H1282 C1290 0.930 . S
H1283 C1291 0.930 . S
H1284 C1294 0.930 . S
H1285 C1295 0.930 . S
C1286 H1280 0.930 . S
C1286 C1287 1.355 . S
C1286 C1288 1.415 . S
C1287 C1286 1.355 . S
C1287 C1289 1.419 . S
C1288 C1286 1.415 . S
C1288 C1293 1.425 . S
C1288 C1295 1.409 . S
C1289 H1281 0.930 . S
C1289 C1287 1.419 . S
C1289 C1290 1.362 . S
C1290 H1282 0.930 . S
C1290 C1289 1.362 . S
C1290 C1293 1.409 . S
C1291 H1283 0.930 . S
C1291 C1292 1.355 . S
C1291 C1293 1.415 . S
C1292 C1291 1.355 . S
C1292 C1294 1.419 . S
C1293 C1288 1.425 . S
C1293 C1290 1.409 . S
C1293 C1291 1.415 . S
C1294 H1284 0.930 . S
C1294 C1292 1.419 . S
C1294 C1295 1.362 . S
C1295 H1285 0.930 . S
C1295 C1288 1.409 . S
C1295 C1294 1.362 . S
H1296 C1302 0.930 . S
H1297 C1305 0.930 . S
H1298 C1306 0.930 . S
H1299 C1307 0.930 . S
H1300 C1310 0.930 . S
H1301 C1311 0.930 . S
C1302 H1296 0.930 . S
C1302 C1303 1.355 . S
C1302 C1304 1.415 . S
C1303 C1302 1.355 . S
C1303 C1305 1.419 . S
C1304 C1302 1.415 . S
C1304 C1309 1.425 1_655 S
C1304 C1311 1.409 1_655 S
C1305 H1297 0.930 . S
C1305 C1303 1.419 . S
C1305 C1306 1.362 . S
C1306 H1298 0.930 . S
C1306 C1305 1.362 . S
C1306 C1309 1.409 1_655 S
C1307 H1299 0.930 . S
C1307 C1308 1.355 . S
C1307 C1309 1.415 . S
C1308 C1307 1.355 . S
C1308 C1310 1.419 . S
C1309 C1304 1.425 1_455 S
C1309 C1306 1.409 1_455 S
C1309 C1307 1.415 . S
C1310 H1300 0.930 . S
C1310 C1308 1.419 . S
C1310 C1311 1.362 . S
C1311 H1301 0.930 . S
C1311 C1304 1.409 1_455 S
C1311 C1310 1.362 . S
H1312 C1318 0.930 . S
H1313 C1321 0.930 . S
H1314 C1322 0.930 . S
H1315 C1323 0.930 . S
H1316 C1326 0.930 . S
H1317 C1327 0.930 . S
C1318 H1312 0.930 . S
C1318 C1319 1.355 . S
C1318 C1320 1.415 . S
C1319 C1318 1.355 . S
C1319 C1321 1.419 . S
C1320 C1318 1.415 . S
C1320 C1325 1.425 1_565 S
C1320 C1327 1.409 1_565 S
C1321 H1313 0.930 . S
C1321 C1319 1.419 . S
C1321 C1322 1.362 . S
C1322 H1314 0.930 . S
C1322 C1321 1.362 . S
C1322 C1325 1.409 1_565 S
C1323 H1315 0.930 . S
C1323 C1324 1.355 . S
C1323 C1325 1.415 . S
C1324 C1323 1.355 . S
C1324 C1326 1.419 . S
C1325 C1320 1.425 1_545 S
C1325 C1322 1.409 1_545 S
C1325 C1323 1.415 . S
C1326 H1316 0.930 . S
C1326 C1324 1.419 . S
C1326 C1327 1.362 . S
C1327 H1317 0.930 . S
C1327 C1320 1.409 1_545 S
C1327 C1326 1.362 . S
H1328 C1334 0.930 . S
H1329 C1337 0.930 . S
H1330 C1338 0.930 . S
H1331 C1339 0.930 . S
H1332 C1342 0.930 . S
H1333 C1343 0.930 . S
C1334 H1328 0.930 . S
C1334 C1335 1.355 . S
C1334 C1336 1.415 . S
C1335 C1334 1.355 . S
C1335 C1337 1.419 . S
C1336 C1334 1.415 . S
C1336 C1341 1.425 . S
C1336 C1343 1.409 . S
C1337 H1329 0.930 . S
C1337 C1335 1.419 . S
C1337 C1338 1.362 . S
C1338 H1330 0.930 . S
C1338 C1337 1.362 . S
C1338 C1341 1.409 . S
C1339 H1331 0.930 . S
C1339 C1340 1.355 . S
C1339 C1341 1.415 . S
C1340 C1339 1.355 . S
C1340 C1342 1.419 . S
C1341 C1336 1.425 . S
C1341 C1338 1.409 . S
C1341 C1339 1.415 . S
C1342 H1332 0.930 . S
C1342 C1340 1.419 . S
C1342 C1343 1.362 . S
C1343 H1333 0.930 . S
C1343 C1336 1.409 . S
C1343 C1342 1.362 . S
H1344 C1350 0.930 . S
H1345 C1353 0.930 . S
H1346 C1354 0.930 . S
H1347 C1355 0.930 . S
H1348 C1358 0.930 . S
H1349 C1359 0.930 . S
C1350 H1344 0.930 . S
C1350 C1351 1.355 . S
C1350 C1352 1.415 . S
C1351 C1350 1.355 . S
C1351 C1353 1.419 . S
C1352 C1350 1.415 . S
C1352 C1357 1.425 1_455 S
C1352 C1359 1.409 1_455 S
C1353 H1345 0.930 . S
C1353 C1351 1.419 . S
C1353 C1354 1.362 . S
C1354 H1346 0.930 . S
C1354 C1353 1.362 . S
C1354 C1357 1.409 1_455 S
C1355 H1347 0.930 . S
C1355 C1356 1.355 . S
C1355 C1357 1.415 . S
C1356 C1355 1.355 . S
C1356 C1358 1.419 . S
C1357 C1352 1.425 1_655 S
C1357 C1354 1.409 1_655 S
C1357 C1355 1.415 . S
C1358 H1348 0.930 . S
C1358 C1356 1.419 . S
C1358 C1359 1.362 . S
C1359 H1349 0.930 . S
C1359 C1352 1.409 1_655 S
C1359 C1358 1.362 . S
H1360 C1366 0.930 . S
H1361 C1369 0.930 . S
H1362 C1370 0.930 . S
H1363 C1371 0.930 . S
H1364 C1374 0.930 . S
H1365 C1375 0.930 . S
C1366 H1360 0.930 . S
C1366 C1367 1.355 . S
C1366 C1368 1.415 . S
C1367 C1366 1.355 . S
C1367 C1369 1.419 . S
C1368 C1366 1.415 . S
C1368 C1373 1.425 1_545 S
C1368 C1375 1.409 1_545 S
C1369 H1361 0.930 . S
C1369 C1367 1.419 . S
C1369 C1370 1.362 . S
C1370 H1362 0.930 . S
C1370 C1369 1.362 . S
C1370 C1373 1.409 1_545 S
C1371 H1363 0.930 . S
C1371 C1372 1.355 . S
C1371 C1373 1.415 . S
C1372 C1371 1.355 . S
C1372 C1374 1.419 . S
C1373 C1368 1.425 1_565 S
C1373 C1370 1.409 1_565 S
C1373 C1371 1.415 . S
C1374 H1364 0.930 . S
C1374 C1372 1.419 . S
C1374 C1375 1.362 . S
C1375 H1365 0.930 . S
C1375 C1368 1.409 1_565 S
C1375 C1374 1.362 . S
H1376 C1382 0.930 . S
H1377 C1385 0.930 . S
H1378 C1386 0.930 . S
H1379 C1387 0.930 . S
H1380 C1390 0.930 . S
H1381 C1391 0.930 . S
C1382 H1376 0.930 . S
C1382 C1383 1.355 . S
C1382 C1384 1.415 . S
C1383 C1382 1.355 . S
C1383 C1385 1.419 . S
C1384 C1382 1.415 . S
C1384 C1389 1.425 . S
C1384 C1391 1.409 . S
C1385 H1377 0.930 . S
C1385 C1383 1.419 . S
C1385 C1386 1.362 . S
C1386 H1378 0.930 . S
C1386 C1385 1.362 . S
C1386 C1389 1.409 . S
C1387 H1379 0.930 . S
C1387 C1388 1.355 . S
C1387 C1389 1.415 . S
C1388 C1387 1.355 . S
C1388 C1390 1.419 . S
C1389 C1384 1.425 . S
C1389 C1386 1.409 . S
C1389 C1387 1.415 . S
C1390 H1380 0.930 . S
C1390 C1388 1.419 . S
C1390 C1391 1.362 . S
C1391 H1381 0.930 . S
C1391 C1384 1.409 . S
C1391 C1390 1.362 . S
H1392 C1398 0.930 . S
H1393 C1401 0.930 . S
H1394 C1402 0.930 . S
H1395 C1403 0.930 . S
H1396 C1406 0.930 . S
H1397 C1407 0.930 . S
C1398 H1392 0.930 . S
C1398 C1399 1.355 . S
C1398 C1400 1.415 . S
C1399 C1398 1.355 . S
C1399 C1401 1.419 . S
C1400 C1398 1.415 . S
C1400 C1405 1.425 1_565 S
C1400 C1407 1.409 1_565 S
C1401 H1393 0.930 . S
C1401 C1399 1.419 . S
C1401 C1402 1.362 . S
C1402 H1394 0.930 . S
C1402 C1401 1.362 . S
C1402 C1405 1.409 1_565 S
C1403 H1395 0.930 . S
C1403 C1404 1.355 . S
C1403 C1405 1.415 . S
C1404 C1403 1.355 . S
C1404 C1406 1.419 . S
C1405 C1400 1.425 1_545 S
C1405 C1402 1.409 1_545 S
C1405 C1403 1.415 . S
C1406 H1396 0.930 . S
C1406 C1404 1.419 . S
C1406 C1407 1.362 . S
C1407 H1397 0.930 . S
C1407 C1400 1.409 1_545 S
C1407 C1406 1.362 . S
H1408 C1414 0.930 . S
H1409 C1417 0.930 . S
H1410 C1418 0.930 . S
H1411 C1419 0.930 . S
H1412 C1422 0.930 . S
H1413 C1423 0.930 . S
C1414 H1408 0.930 . S
C1414 C1415 1.355 . S
C1414 C1416 1.415 . S
C1415 C1414 1.355 . S
C1415 C1417 1.419 . S
C1416 C1414 1.415 . S
C1416 C1421 1.425 . S
C1416 C1423 1.409 . S
C1417 H1409 0.930 . S
C1417 C1415 1.419 . S
C1417 C1418 1.362 . S
C1418 H1410 0.930 . S
C1418 C1417 1.362 . S
C1418 C1421 1.409 . S
C1419 H1411 0.930 . S
C1419 C1420 1.355 . S
C1419 C1421 1.415 . S
C1420 C1419 1.355 . S
C1420 C1422 1.419 . S
C1421 C1416 1.425 . S
C1421 C1418 1.409 . S
C1421 C1419 1.415 . S
C1422 H1412 0.930 . S
C1422 C1420 1.419 . S
C1422 C1423 1.362 . S
C1423 H1413 0.930 . S
C1423 C1416 1.409 . S
C1423 C1422 1.362 . S
H1424 C1430 0.930 . S
H1425 C1433 0.930 . S
H1426 C1434 0.930 . S
H1427 C1435 0.930 . S
H1428 C1438 0.930 . S
H1429 C1439 0.930 . S
C1430 H1424 0.930 . S
C1430 C1431 1.355 . S
C1430 C1432 1.415 . S
C1431 C1430 1.355 . S
C1431 C1433 1.419 . S
C1432 C1430 1.415 . S
C1432 C1437 1.425 1_655 S
C1432 C1439 1.409 1_655 S
C1433 H1425 0.930 . S
C1433 C1431 1.419 . S
C1433 C1434 1.362 . S
C1434 H1426 0.930 . S
C1434 C1433 1.362 . S
C1434 C1437 1.409 1_655 S
C1435 H1427 0.930 . S
C1435 C1436 1.355 . S
C1435 C1437 1.415 . S
C1436 C1435 1.355 . S
C1436 C1438 1.419 . S
C1437 C1432 1.425 1_455 S
C1437 C1434 1.409 1_455 S
C1437 C1435 1.415 . S
C1438 H1428 0.930 . S
C1438 C1436 1.419 . S
C1438 C1439 1.362 . S
C1439 H1429 0.930 . S
C1439 C1432 1.409 1_455 S
C1439 C1438 1.362 . S
H1440 C1446 0.930 . S
H1441 C1449 0.930 . S
H1442 C1450 0.930 . S
H1443 C1451 0.930 . S
H1444 C1454 0.930 . S
H1445 C1455 0.930 . S
C1446 H1440 0.930 . S
C1446 C1447 1.355 . S
C1446 C1448 1.415 . S
C1447 C1446 1.355 . S
C1447 C1449 1.419 . S
C1448 C1446 1.415 . S
C1448 C1453 1.425 1_565 S
C1448 C1455 1.409 1_565 S
C1449 H1441 0.930 . S
C1449 C1447 1.419 . S
C1449 C1450 1.362 . S
C1450 H1442 0.930 . S
C1450 C1449 1.362 . S
C1450 C1453 1.409 1_565 S
C1451 H1443 0.930 . S
C1451 C1452 1.355 . S
C1451 C1453 1.415 . S
C1452 C1451 1.355 . S
C1452 C1454 1.419 . S
C1453 C1448 1.425 1_545 S
C1453 C1450 1.409 1_545 S
C1453 C1451 1.415 . S
C1454 H1444 0.930 . S
C1454 C1452 1.419 . S
C1454 C1455 1.362 . S
C1455 H1445 0.930 . S
C1455 C1448 1.409 1_545 S
C1455 C1454 1.362 . S
H1456 C1462 0.930 . S
H1457 C1465 0.930 . S
H1458 C1466 0.930 . S
H1459 C1467 0.930 . S
H1460 C1470 0.930 . S
H1461 C1471 0.930 . S
C1462 H1456 0.930 . S
C1462 C1463 1.355 . S
C1462 C1464 1.415 . S
C1463 C1462 1.355 . S
C1463 C1465 1.419 . S
C1464 C1462 1.415 . S
C1464 C1469 1.425 . S
C1464 C1471 1.409 . S
C1465 H1457 0.930 . S
C1465 C1463 1.419 . S
C1465 C1466 1.362 . S
C1466 H1458 0.930 . S
C1466 C1465 1.362 . S
C1466 C1469 1.409 . S
C1467 H1459 0.930 . S
C1467 C1468 1.355 . S
C1467 C1469 1.415 . S
C1468 C1467 1.355 . S
C1468 C1470 1.419 . S
C1469 C1464 1.425 . S
C1469 C1466 1.409 . S
C1469 C1467 1.415 . S
C1470 H1460 0.930 . S
C1470 C1468 1.419 . S
C1470 C1471 1.362 . S
C1471 H1461 0.930 . S
C1471 C1464 1.409 . S
C1471 C1470 1.362 . S
H1472 C1478 0.930 . S
H1473 C1481 0.930 . S
H1474 C1482 0.930 . S
H1475 C1483 0.930 . S
H1476 C1486 0.930 . S
H1477 C1487 0.930 . S
C1478 H1472 0.930 . S
C1478 C1479 1.355 . S
C1478 C1480 1.415 . S
C1479 C1478 1.355 . S
C1479 C1481 1.419 . S
C1480 C1478 1.415 . S
C1480 C1485 1.425 1_655 S
C1480 C1487 1.409 1_655 S
C1481 H1473 0.930 . S
C1481 C1479 1.419 . S
C1481 C1482 1.362 . S
C1482 H1474 0.930 . S
C1482 C1481 1.362 . S
C1482 C1485 1.409 1_655 S
C1483 H1475 0.930 . S
C1483 C1484 1.355 . S
C1483 C1485 1.415 . S
C1484 C1483 1.355 . S
C1484 C1486 1.419 . S
C1485 C1480 1.425 1_455 S
C1485 C1482 1.409 1_455 S
C1485 C1483 1.415 . S
C1486 H1476 0.930 . S
C1486 C1484 1.419 . S
C1486 C1487 1.362 . S
C1487 H1477 0.930 . S
C1487 C1480 1.409 1_455 S
C1487 C1486 1.362 . S
H1488 C1494 0.930 . S
H1489 C1497 0.930 . S
H1490 C1498 0.930 1_554 S
H1491 C1499 0.930 . S
H1492 C1502 0.930 . S
H1493 C1503 0.930 1_556 S
C1494 H1488 0.930 . S
C1494 C1495 1.355 . S
C1494 C1496 1.415 . S
C1495 C1494 1.355 . S
C1495 C1497 1.419 . S
C1496 C1494 1.415 . S
C1496 C1501 1.425 1_556 S
C1496 C1503 1.409 1_556 S
C1497 H1489 0.930 . S
C1497 C1495 1.419 . S
C1497 C1498 1.362 . S
C1498 H1490 0.930 1_556 S
C1498 C1497 1.362 . S
C1498 C1501 1.409 1_556 S
C1499 H1491 0.930 . S
C1499 C1500 1.355 . S
C1499 C1501 1.415 . S
C1500 C1499 1.355 . S
C1500 C1502 1.419 . S
C1501 C1496 1.425 1_554 S
C1501 C1498 1.409 1_554 S
C1501 C1499 1.415 . S
C1502 H1492 0.930 . S
C1502 C1500 1.419 . S
C1502 C1503 1.362 . S
C1503 H1493 0.930 1_554 S
C1503 C1496 1.409 1_554 S
C1503 C1502 1.362 . S
H1504 C1510 0.930 . S
H1505 C1513 0.930 . S
H1506 C1514 0.930 . S
H1507 C1515 0.930 . S
H1508 C1518 0.930 . S
H1509 C1519 0.930 . S
C1510 H1504 0.930 . S
C1510 C1511 1.355 . S
C1510 C1512 1.415 . S
C1511 C1510 1.355 . S
C1511 C1513 1.419 . S
C1512 C1510 1.415 . S
C1512 C1517 1.425 . S
C1512 C1519 1.409 . S
C1513 H1505 0.930 . S
C1513 C1511 1.419 . S
C1513 C1514 1.362 . S
C1514 H1506 0.930 . S
C1514 C1513 1.362 . S
C1514 C1517 1.409 . S
C1515 H1507 0.930 . S
C1515 C1516 1.355 . S
C1515 C1517 1.415 . S
C1516 C1515 1.355 . S
C1516 C1518 1.419 . S
C1517 C1512 1.425 . S
C1517 C1514 1.409 . S
C1517 C1515 1.415 . S
C1518 H1508 0.930 . S
C1518 C1516 1.419 . S
C1518 C1519 1.362 . S
C1519 H1509 0.930 . S
C1519 C1512 1.409 . S
C1519 C1518 1.362 . S
H1520 C1526 0.930 . S
H1521 C1529 0.930 . S
H1522 C1530 0.930 . S
H1523 C1531 0.930 . S
H1524 C1534 0.930 . S
H1525 C1535 0.930 . S
C1526 H1520 0.930 . S
C1526 C1527 1.355 . S
C1526 C1528 1.415 1_554 S
C1527 C1526 1.355 . S
C1527 C1529 1.419 . S
C1528 C1526 1.415 1_556 S
C1528 C1533 1.425 1_556 S
C1528 C1535 1.409 . S
C1529 H1521 0.930 . S
C1529 C1527 1.419 . S
C1529 C1530 1.362 . S
C1530 H1522 0.930 . S
C1530 C1529 1.362 . S
C1530 C1533 1.409 . S
C1531 H1523 0.930 . S
C1531 C1532 1.355 . S
C1531 C1533 1.415 1_556 S
C1532 C1531 1.355 . S
C1532 C1534 1.419 . S
C1533 C1528 1.425 1_554 S
C1533 C1530 1.409 . S
C1533 C1531 1.415 1_554 S
C1534 H1524 0.930 . S
C1534 C1532 1.419 . S
C1534 C1535 1.362 . S
C1535 H1525 0.930 . S
C1535 C1528 1.409 . S
C1535 C1534 1.362 . S
H1536 C1542 0.930 . S
H1537 C1545 0.930 . S
H1538 C1546 0.930 . S
H1539 C1547 0.930 . S
H1540 C1550 0.930 . S
H1541 C1551 0.930 . S
C1542 H1536 0.930 . S
C1542 C1543 1.355 . S
C1542 C1544 1.415 . S
C1543 C1542 1.355 . S
C1543 C1545 1.419 . S
C1544 C1542 1.415 . S
C1544 C1549 1.425 . S
C1544 C1551 1.409 . S
C1545 H1537 0.930 . S
C1545 C1543 1.419 . S
C1545 C1546 1.362 . S
C1546 H1538 0.930 . S
C1546 C1545 1.362 . S
C1546 C1549 1.409 . S
C1547 H1539 0.930 . S
C1547 C1548 1.355 . S
C1547 C1549 1.415 . S
C1548 C1547 1.355 . S
C1548 C1550 1.419 . S
C1549 C1544 1.425 . S
C1549 C1546 1.409 . S
C1549 C1547 1.415 . S
C1550 H1540 0.930 . S
C1550 C1548 1.419 . S
C1550 C1551 1.362 . S
C1551 H1541 0.930 . S
C1551 C1544 1.409 . S
C1551 C1550 1.362 . S
H1552 C1558 0.930 . S
H1553 C1561 0.930 . S
H1554 C1562 0.930 . S
H1555 C1563 0.930 . S
H1556 C1566 0.930 . S
H1557 C1567 0.930 . S
C1558 H1552 0.930 . S
C1558 C1559 1.355 . S
C1558 C1560 1.415 . S
C1559 C1558 1.355 . S
C1559 C1561 1.419 . S
C1560 C1558 1.415 . S
C1560 C1565 1.425 1_556 S
C1560 C1567 1.409 1_556 S
C1561 H1553 0.930 . S
C1561 C1559 1.419 . S
C1561 C1562 1.362 . S
C1562 H1554 0.930 . S
C1562 C1561 1.362 . S
C1562 C1565 1.409 1_556 S
C1563 H1555 0.930 . S
C1563 C1564 1.355 . S
C1563 C1565 1.415 . S
C1564 C1563 1.355 . S
C1564 C1566 1.419 . S
C1565 C1560 1.425 1_554 S
C1565 C1562 1.409 1_554 S
C1565 C1563 1.415 . S
C1566 H1556 0.930 . S
C1566 C1564 1.419 . S
C1566 C1567 1.362 . S
C1567 H1557 0.930 . S
C1567 C1560 1.409 1_554 S
C1567 C1566 1.362 . S
H1568 C1574 0.930 . S
H1569 C1577 0.930 . S
H1570 C1578 0.930 . S
H1571 C1579 0.930 . S
H1572 C1582 0.930 . S
H1573 C1583 0.930 . S
C1574 H1568 0.930 . S
C1574 C1575 1.355 . S
C1574 C1576 1.415 . S
C1575 C1574 1.355 . S
C1575 C1577 1.419 . S
C1576 C1574 1.415 . S
C1576 C1581 1.425 . S
C1576 C1583 1.409 . S
C1577 H1569 0.930 . S
C1577 C1575 1.419 . S
C1577 C1578 1.362 . S
C1578 H1570 0.930 . S
C1578 C1577 1.362 . S
C1578 C1581 1.409 . S
C1579 H1571 0.930 . S
C1579 C1580 1.355 . S
C1579 C1581 1.415 . S
C1580 C1579 1.355 . S
C1580 C1582 1.419 . S
C1581 C1576 1.425 . S
C1581 C1578 1.409 . S
C1581 C1579 1.415 . S
C1582 H1572 0.930 . S
C1582 C1580 1.419 . S
C1582 C1583 1.362 . S
C1583 H1573 0.930 . S
C1583 C1576 1.409 . S
C1583 C1582 1.362 . S
H1584 C1590 0.930 . S
H1585 C1593 0.930 . S
H1586 C1594 0.930 . S
H1587 C1595 0.930 . S
H1588 C1598 0.930 . S
H1589 C1599 0.930 . S
C1590 H1584 0.930 . S
C1590 C1591 1.355 . S
C1590 C1592 1.415 . S
C1591 C1590 1.355 . S
C1591 C1593 1.419 . S
C1592 C1590 1.415 . S
C1592 C1597 1.425 1_554 S
C1592 C1599 1.409 1_554 S
C1593 H1585 0.930 . S
C1593 C1591 1.419 . S
C1593 C1594 1.362 . S
C1594 H1586 0.930 . S
C1594 C1593 1.362 . S
C1594 C1597 1.409 1_554 S
C1595 H1587 0.930 . S
C1595 C1596 1.355 . S
C1595 C1597 1.415 . S
C1596 C1595 1.355 . S
C1596 C1598 1.419 . S
C1597 C1592 1.425 1_556 S
C1597 C1594 1.409 1_556 S
C1597 C1595 1.415 . S
C1598 H1588 0.930 . S
C1598 C1596 1.419 . S
C1598 C1599 1.362 . S
C1599 H1589 0.930 . S
C1599 C1592 1.409 1_556 S
C1599 C1598 1.362 . S
H1600 C1606 0.930 . S
H1601 C1609 0.930 . S
H1602 C1610 0.930 . S
H1603 C1611 0.930 . S
H1604 C1614 0.930 . S
H1605 C1615 0.930 . S
C1606 H1600 0.930 . S
C1606 C1607 1.355 . S
C1606 C1608 1.415 . S
C1607 C1606 1.355 . S
C1607 C1609 1.419 . S
C1608 C1606 1.415 . S
C1608 C1613 1.425 . S
C1608 C1615 1.409 . S
C1609 H1601 0.930 . S
C1609 C1607 1.419 . S
C1609 C1610 1.362 . S
C1610 H1602 0.930 . S
C1610 C1609 1.362 . S
C1610 C1613 1.409 . S
C1611 H1603 0.930 . S
C1611 C1612 1.355 . S
C1611 C1613 1.415 . S
C1612 C1611 1.355 . S
C1612 C1614 1.419 . S
C1613 C1608 1.425 . S
C1613 C1610 1.409 . S
C1613 C1611 1.415 . S
C1614 H1604 0.930 . S
C1614 C1612 1.419 . S
C1614 C1615 1.362 . S
C1615 H1605 0.930 . S
C1615 C1608 1.409 . S
C1615 C1614 1.362 . S
H1616 C1622 0.930 . S
H1617 C1625 0.930 . S
H1618 C1626 0.930 . S
H1619 C1627 0.930 . S
H1620 C1630 0.930 . S
H1621 C1631 0.930 . S
C1622 H1616 0.930 . S
C1622 C1623 1.355 . S
C1622 C1624 1.415 1_554 S
C1623 C1622 1.355 . S
C1623 C1625 1.419 . S
C1624 C1622 1.415 1_556 S
C1624 C1629 1.425 1_556 S
C1624 C1631 1.409 . S
C1625 H1617 0.930 . S
C1625 C1623 1.419 . S
C1625 C1626 1.362 . S
C1626 H1618 0.930 . S
C1626 C1625 1.362 . S
C1626 C1629 1.409 . S
C1627 H1619 0.930 . S
C1627 C1628 1.355 . S
C1627 C1629 1.415 1_556 S
C1628 C1627 1.355 . S
C1628 C1630 1.419 . S
C1629 C1624 1.425 1_554 S
C1629 C1626 1.409 . S
C1629 C1627 1.415 1_554 S
C1630 H1620 0.930 . S
C1630 C1628 1.419 . S
C1630 C1631 1.362 . S
C1631 H1621 0.930 . S
C1631 C1624 1.409 . S
C1631 C1630 1.362 . S
H1632 C1638 0.930 . S
H1633 C1641 0.930 . S
H1634 C1642 0.930 . S
H1635 C1643 0.930 . S
H1636 C1646 0.930 . S
H1637 C1647 0.930 . S
C1638 H1632 0.930 . S
C1638 C1639 1.355 . S
C1638 C1640 1.415 . S
C1639 C1638 1.355 . S
C1639 C1641 1.419 . S
C1640 C1638 1.415 . S
C1640 C1645 1.425 . S
C1640 C1647 1.409 . S
C1641 H1633 0.930 . S
C1641 C1639 1.419 . S
C1641 C1642 1.362 . S
C1642 H1634 0.930 . S
C1642 C1641 1.362 . S
C1642 C1645 1.409 . S
C1643 H1635 0.930 . S
C1643 C1644 1.355 . S
C1643 C1645 1.415 . S
C1644 C1643 1.355 . S
C1644 C1646 1.419 . S
C1645 C1640 1.425 . S
C1645 C1642 1.409 . S
C1645 C1643 1.415 . S
C1646 H1636 0.930 . S
C1646 C1644 1.419 . S
C1646 C1647 1.362 . S
C1647 H1637 0.930 . S
C1647 C1640 1.409 . S
C1647 C1646 1.362 . S
H1648 C1654 0.930 . S
H1649 C1657 0.930 . S
H1650 C1658 0.930 . S
H1651 C1659 0.930 . S
H1652 C1662 0.930 . S
H1653 C1663 0.930 . S
C1654 H1648 0.930 . S
C1654 C1655 1.355 . S
C1654 C1656 1.415 . S
C1655 C1654 1.355 . S
C1655 C1657 1.419 . S
C1656 C1654 1.415 . S
C1656 C1661 1.425 1_554 S
C1656 C1663 1.409 . S
C1657 H1649 0.930 . S
C1657 C1655 1.419 . S
C1657 C1658 1.362 1_554 S
C1658 H1650 0.930 . S
C1658 C1657 1.362 1_556 S
C1658 C1661 1.409 . S
C1659 H1651 0.930 . S
C1659 C1660 1.355 . S
C1659 C1661 1.415 . S
C1660 C1659 1.355 . S
C1660 C1662 1.419 . S
C1661 C1656 1.425 1_556 S
C1661 C1658 1.409 . S
C1661 C1659 1.415 . S
C1662 H1652 0.930 . S
C1662 C1660 1.419 . S
C1662 C1663 1.362 1_556 S
C1663 H1653 0.930 . S
C1663 C1656 1.409 . S
C1663 C1662 1.362 1_554 S
H1664 C1670 0.930 . S
H1665 C1673 0.930 . S
H1666 C1674 0.930 . S
H1667 C1675 0.930 . S
H1668 C1678 0.930 . S
H1669 C1679 0.930 . S
C1670 H1664 0.930 . S
C1670 C1671 1.355 . S
C1670 C1672 1.415 . S
C1671 C1670 1.355 . S
C1671 C1673 1.419 . S
C1672 C1670 1.415 . S
C1672 C1677 1.425 . S
C1672 C1679 1.409 . S
C1673 H1665 0.930 . S
C1673 C1671 1.419 . S
C1673 C1674 1.362 . S
C1674 H1666 0.930 . S
C1674 C1673 1.362 . S
C1674 C1677 1.409 . S
C1675 H1667 0.930 . S
C1675 C1676 1.355 . S
C1675 C1677 1.415 . S
C1676 C1675 1.355 . S
C1676 C1678 1.419 . S
C1677 C1672 1.425 . S
C1677 C1674 1.409 . S
C1677 C1675 1.415 . S
C1678 H1668 0.930 . S
C1678 C1676 1.419 . S
C1678 C1679 1.362 . S
C1679 H1669 0.930 . S
C1679 C1672 1.409 . S
C1679 C1678 1.362 . S
C535 C184 1.274 . S
C540 C4 1.234 . S
C551 C26 1.193 . S
C556 C206 1.233 . S
C567 C228 1.280 . S
C572 C48 1.209 . S
C583 C70 1.247 . S
C588 C250 1.187 . S
C599 C140 1.207 . S
C604 C92 1.214 . S
C615 C162 1.225 . S
C620 C114 1.277 . S
C631 C272 1.254 . S
C636 C444 1.186 . S
C647 C466 1.280 . S
C652 C294 1.203 . S
C663 C488 1.217 . S
C668 C316 1.279 . S
C679 C338 1.226 . S
C684 C510 1.277 . S
C695 C360 1.231 . S
C700 C400 1.275 . S
C711 C422 1.215 . S
C716 C382 1.205 . S
C727 C9 1.044 . S
C732 C52 1.020 . S
C743 C74 1.028 . S
C748 C31 1.115 . S
C759 C53 1.100 . S
C764 C96 1.078 . S
C775 C75 1.020 . S
C780 C118 1.043 . S
C791 C8 1.022 . S
C796 C97 1.043 . S
C807 C30 1.084 . S
C812 C119 1.095 . S
C823 C224 1.117 . S
C828 C137 1.027 . S
C839 C159 1.064 . S
C844 C246 1.109 . S
C855 C181 1.112 . S
C860 C136 1.056 . S
C871 C158 1.043 . S
C876 C203 1.020 . S
C887 C180 1.071 . S
C892 C225 1.003 . S
C903 C202 1.083 . S
C908 C247 1.096 . S
C919 C312 1.099 . S
C924 C270 1.079 . S
C935 C292 1.006 . S
C940 C334 1.106 . S
C951 C314 1.092 . S
C956 C356 1.087 . S
C967 C336 1.053 . S
C972 C378 1.113 . S
C983 C268 1.005 . S
C988 C358 1.094 . S
C999 C290 1.055 . S
C1004 C380 1.112 . S
C1015 C403 1.088 . S
C1020 C492 1.092 . S
C1031 C425 1.114 . S
C1036 C514 1.024 . S
C1047 C447 1.001 . S
C1052 C404 1.080 . S
C1063 C469 1.114 . S
C1068 C426 1.023 . S
C1079 C448 1.092 . S
C1084 C491 1.087 . S
C1095 C470 1.056 . S
C1100 C513 1.112 . S
C1111 C7 1.466 . S
C1116 C335 1.444 . S
C1127 C357 1.466 . S
C1132 C29 1.444 . S
C1143 C51 1.444 . S
C1148 C379 1.466 . S
C1159 C73 1.461 . S
C1164 C269 1.449 . S
C1175 C291 1.443 . S
C1180 C95 1.467 . S
C1191 C117 1.447 . S
C1196 C313 1.463 . S
C1207 C138 1.467 . S
C1212 C471 1.443 . S
C1223 C493 1.443 . S
C1228 C160 1.467 . S
C1239 C182 1.445 . S
C1244 C515 1.465 . S
C1255 C204 1.451 . S
C1260 C405 1.459 . S
C1271 C427 1.450 . S
C1276 C226 1.461 . S
C1287 C449 1.466 . S
C1292 C248 1.444 . S
C1303 C446 1.302 . S
C1308 C5 1.352 . S
C1319 C468 1.293 . S
C1324 C27 1.361 . S
C1335 C490 1.288 . S
C1340 C49 1.364 . S
C1351 C512 1.340 . S
C1356 C71 1.314 . S
C1367 C402 1.321 . S
C1372 C93 1.333 . S
C1383 C115 1.315 . S
C1388 C424 1.339 . S
C1399 C141 1.354 . S
C1404 C359 1.300 . S
C1415 C381 1.359 . S
C1420 C163 1.294 . S
C1431 C271 1.343 . S
C1436 C185 1.311 . S
C1447 C293 1.288 . S
C1452 C207 1.365 . S
C1463 C229 1.342 . S
C1468 C315 1.312 . S
C1479 C251 1.319 . S
C1484 C337 1.336 . S
C1495 C227 1.212 . S
C1500 C6 1.302 . S
C1511 C249 1.275 . S
C1516 C28 1.297 . S
C1527 C50 1.222 . S
C1532 C139 1.228 . S
C1543 C72 1.202 . S
C1548 C161 1.287 . S
C1559 C183 1.305 . S
C1564 C94 1.217 . S
C1575 C116 1.242 . S
C1580 C205 1.309 . S
C1591 C489 1.218 . S
C1596 C273 1.306 . S
C1607 C511 1.288 . S
C1612 C295 1.203 . S
C1623 C401 1.202 . S
C1628 C317 1.265 . S
C1639 C339 1.228 . S
C1644 C423 1.309 . S
C1655 C445 1.283 . S
C1660 C361 1.290 . S
C1671 C383 1.282 . S
C1676 C467 1.201 . S
