# Generated by pormake.
# Topology fnw, (5)-cn, num edge types: 1
# Building blocks:
#     Node 0, Type 0, BuildingBlock: BEQFEK_clean_sbu_0, # of connection points: 5
#     Node 1, Type 0, BuildingBlock: BEQFEK_clean_sbu_0, # of connection points: 5
#     Node 2, Type 0, BuildingBlock: BEQFEK_clean_sbu_0, # of connection points: 5
#     Node 3, Type 0, BuildingBlock: BEQFEK_clean_sbu_0, # of connection points: 5
#     Node 4, Type 0, BuildingBlock: BEQFEK_clean_sbu_0, # of connection points: 5
#     Node 5, Type 0, BuildingBlock: BEQFEK_clean_sbu_0, # of connection points: 5
#     Node 6, Type 0, BuildingBlock: BEQFEK_clean_sbu_0, # of connection points: 5
#     Node 7, Type 0, BuildingBlock: BEQFEK_clean_sbu_0, # of connection points: 5
#     Node 8, Type 0, BuildingBlock: BEQFEK_clean_sbu_0, # of connection points: 5
#     Node 9, Type 0, BuildingBlock: BEQFEK_clean_sbu_0, # of connection points: 5
#     Node 10, Type 0, BuildingBlock: BEQFEK_clean_sbu_0, # of connection points: 5
#     Node 11, Type 0, BuildingBlock: BEQFEK_clean_sbu_0, # of connection points: 5
#     Edge 12, Type (0, 0), BuildingBlock: KIFKEQ_clean_linker_1, # of connection points: 2
#     Edge 13, Type (0, 0), BuildingBlock: KIFKEQ_clean_linker_1, # of connection points: 2
#     Edge 14, Type (0, 0), BuildingBlock: KIFKEQ_clean_linker_1, # of connection points: 2
#     Edge 15, Type (0, 0), BuildingBlock: KIFKEQ_clean_linker_1, # of connection points: 2
#     Edge 16, Type (0, 0), BuildingBlock: KIFKEQ_clean_linker_1, # of connection points: 2
#     Edge 17, Type (0, 0), BuildingBlock: KIFKEQ_clean_linker_1, # of connection points: 2
#     Edge 18, Type (0, 0), BuildingBlock: KIFKEQ_clean_linker_1, # of connection points: 2
#     Edge 19, Type (0, 0), BuildingBlock: KIFKEQ_clean_linker_1, # of connection points: 2
#     Edge 20, Type (0, 0), BuildingBlock: KIFKEQ_clean_linker_1, # of connection points: 2
#     Edge 21, Type (0, 0), BuildingBlock: KIFKEQ_clean_linker_1, # of connection points: 2
#     Edge 22, Type (0, 0), BuildingBlock: KIFKEQ_clean_linker_1, # of connection points: 2
#     Edge 23, Type (0, 0), BuildingBlock: KIFKEQ_clean_linker_1, # of connection points: 2
#     Edge 24, Type (0, 0), BuildingBlock: KIFKEQ_clean_linker_1, # of connection points: 2
#     Edge 25, Type (0, 0), BuildingBlock: KIFKEQ_clean_linker_1, # of connection points: 2
#     Edge 26, Type (0, 0), BuildingBlock: KIFKEQ_clean_linker_1, # of connection points: 2
#     Edge 27, Type (0, 0), BuildingBlock: KIFKEQ_clean_linker_1, # of connection points: 2
#     Edge 28, Type (0, 0), BuildingBlock: KIFKEQ_clean_linker_1, # of connection points: 2
#     Edge 29, Type (0, 0), BuildingBlock: KIFKEQ_clean_linker_1, # of connection points: 2
#     Edge 30, Type (0, 0), BuildingBlock: KIFKEQ_clean_linker_1, # of connection points: 2
#     Edge 31, Type (0, 0), BuildingBlock: KIFKEQ_clean_linker_1, # of connection points: 2
#     Edge 32, Type (0, 0), BuildingBlock: KIFKEQ_clean_linker_1, # of connection points: 2
#     Edge 33, Type (0, 0), BuildingBlock: KIFKEQ_clean_linker_1, # of connection points: 2
#     Edge 34, Type (0, 0), BuildingBlock: KIFKEQ_clean_linker_1, # of connection points: 2
#     Edge 35, Type (0, 0), BuildingBlock: KIFKEQ_clean_linker_1, # of connection points: 2
#     Edge 36, Type (0, 0), BuildingBlock: KIFKEQ_clean_linker_1, # of connection points: 2
#     Edge 37, Type (0, 0), BuildingBlock: KIFKEQ_clean_linker_1, # of connection points: 2
#     Edge 38, Type (0, 0), BuildingBlock: KIFKEQ_clean_linker_1, # of connection points: 2
#     Edge 39, Type (0, 0), BuildingBlock: KIFKEQ_clean_linker_1, # of connection points: 2
#     Edge 40, Type (0, 0), BuildingBlock: KIFKEQ_clean_linker_1, # of connection points: 2
#     Edge 41, Type (0, 0), BuildingBlock: KIFKEQ_clean_linker_1, # of connection points: 2
# Relax obj value: 0.201
# Max RMSD: 0.128
# Mean RMSD: 0.128
data_MOF--net-fnw--node1-BEQFEK_clean_sbu_0--edge1-KIFKEQ_clean_linker_1
_symmetry_space_group_name_H-M    P1
_symmetry_Int_Tables_number       1
_symmetry_cell_setting            triclinic
loop_
_symmetry_equiv_pos_as_xyz
'x, y, z'
_cell_length_a     56.746347
_cell_length_b     56.730685
_cell_length_c     31.25288
_cell_angle_alpha  90.019187
_cell_angle_beta   89.991655
_cell_angle_gamma 119.97991
loop_
_atom_site_label
_atom_site_type_symbol
_atom_site_fract_x
_atom_site_fract_y
_atom_site_fract_z
_atom_type_partial_charge
Co0 Co 0.25233 0.49341 0.22712 0.0
Co1 Co 0.27808 0.45587 0.23274 0.0
C2 C 0.24493 0.45362 0.15692 0.0
O3 O 0.2405 0.47145 0.17402 0.0
O4 O 0.25947 0.44534 0.17568 0.0
C5 C 0.2129 0.51433 0.22991 0.0
O6 O 0.19183 0.48967 0.23326 0.0
C7 C 0.28971 0.4101 0.23367 0.0
C8 C 0.31861 0.42316 0.28786 0.0
C9 C 0.30523 0.40256 0.25829 0.0
N10 N 0.29345 0.43397 0.24868 0.0
N11 N 0.311 0.44175 0.28067 0.0
C12 C 0.27104 0.39465 0.19759 0.0
H13 H 0.25189 0.39534 0.20048 0.0
H14 H 0.26642 0.37319 0.19711 0.0
H15 H 0.28085 0.40455 0.16693 0.0
C16 C 0.23314 0.47092 0.31425 0.0
N17 N 0.2446 0.47134 0.27624 0.0
N18 N 0.25401 0.45431 0.27744 0.0
C19 C 0.24777 0.44173 0.31582 0.0
C20 C 0.2348 0.45212 0.34063 0.0
C21 C 0.22438 0.49082 0.32699 0.0
H22 H 0.23733 0.51066 0.31107 0.0
H23 H 0.203 0.48287 0.31679 0.0
H24 H 0.22552 0.49386 0.36217 0.0
O25 O 0.29151 0.519 0.22477 0.0
O26 O 0.31047 0.49321 0.22886 0.0
H27 H 0.275 0.42998 0.34273 0.0
H28 H 0.23982 0.40709 0.35449 0.0
C29 C 0.25416 0.42022 0.32927 0.0
H30 H 0.25272 0.4074 0.30155 0.0
H31 H 0.31756 0.45971 0.29797 0.0
O32 O 0.23682 0.51784 0.22824 0.0
C33 C 0.31254 0.51654 0.226 0.0
Co34 Co 0.75718 0.24971 0.73917 0.0
Co35 Co 0.8208 0.27768 0.74235 0.0
C36 C 0.78933 0.2427 0.66821 0.0
O37 O 0.76705 0.23785 0.68571 0.0
O38 O 0.81222 0.25796 0.68631 0.0
C39 C 0.70076 0.22128 0.71413 0.0
O40 O 0.71031 0.21971 0.67659 0.0
C41 C 0.87825 0.29003 0.74213 0.0
C42 C 0.89502 0.32132 0.793 0.0
C43 C 0.90169 0.30662 0.7652 0.0
N44 N 0.85839 0.2944 0.75639 0.0
N45 N 0.8687 0.31338 0.78634 0.0
C46 C 0.87442 0.26972 0.70842 0.0
H47 H 0.85487 0.2506 0.71373 0.0
H48 H 0.89148 0.26543 0.70835 0.0
H49 H 0.87331 0.27788 0.67668 0.0
C50 C 0.76258 0.23166 0.82524 0.0
N51 N 0.7732 0.24333 0.78724 0.0
N52 N 0.79982 0.25424 0.78837 0.0
C53 C 0.80687 0.24925 0.82715 0.0
C54 C 0.78364 0.23517 0.85195 0.0
C55 C 0.73341 0.22081 0.83713 0.0
H56 H 0.72798 0.23688 0.83198 0.0
H57 H 0.72032 0.20352 0.81577 0.0
H58 H 0.7293 0.21396 0.87091 0.0
O59 O 0.76916 0.28871 0.73579 0.0
O60 O 0.8141 0.30882 0.73755 0.0
H61 H 0.84497 0.27996 0.85229 0.0
H62 H 0.83548 0.24601 0.86862 0.0
C63 C 0.83535 0.25852 0.84141 0.0
H64 H 0.84733 0.25696 0.81471 0.0
H65 H 0.85757 0.3206 0.80276 0.0
O66 O 0.7171 0.23177 0.74538 0.0
C67 C 0.7924 0.31014 0.73554 0.0
Co68 Co 0.50425 0.75516 0.22022 0.0
Co69 Co 0.53954 0.81874 0.22698 0.0
C70 C 0.54431 0.79016 0.15103 0.0
O71 O 0.52667 0.76754 0.16742 0.0
O72 O 0.55195 0.81266 0.17038 0.0
C73 C 0.48746 0.69553 0.22371 0.0
O74 O 0.51204 0.70056 0.23359 0.0
C75 C 0.58077 0.87859 0.23428 0.0
C76 C 0.56192 0.88812 0.2885 0.0
C77 C 0.58412 0.89975 0.26122 0.0
N78 N 0.55793 0.85571 0.24607 0.0
N79 N 0.54676 0.86177 0.27815 0.0
C80 C 0.59769 0.88015 0.19653 0.0
H81 H 0.58601 0.86282 0.17459 0.0
H82 H 0.61581 0.87933 0.20778 0.0
H83 H 0.60456 0.89945 0.17883 0.0
C84 C 0.52644 0.75927 0.30808 0.0
N85 N 0.52576 0.76995 0.26984 0.0
N86 N 0.54215 0.79651 0.27097 0.0
C87 C 0.55473 0.80329 0.30931 0.0
C88 C 0.54486 0.78009 0.33434 0.0
C89 C 0.50692 0.73065 0.32136 0.0
H90 H 0.48791 0.7223 0.30242 0.0
H91 H 0.51644 0.71794 0.31589 0.0
H92 H 0.50196 0.72963 0.35591 0.0
O93 O 0.47648 0.76607 0.21877 0.0
O94 O 0.50128 0.81095 0.22146 0.0
H95 H 0.56585 0.84204 0.33669 0.0
H96 H 0.58965 0.83067 0.34682 0.0
C97 C 0.57586 0.83144 0.32235 0.0
H98 H 0.58802 0.84306 0.29424 0.0
H99 H 0.52875 0.84771 0.29328 0.0
O100 O 0.48262 0.71495 0.21889 0.0
C101 C 0.47827 0.78928 0.21925 0.0
Co102 Co 0.74784 0.50472 0.72191 0.0
Co103 Co 0.72121 0.54152 0.72836 0.0
C104 C 0.7553 0.54582 0.65328 0.0
O105 O 0.75942 0.52758 0.66957 0.0
O106 O 0.74068 0.55388 0.67235 0.0
C107 C 0.7888 0.48567 0.72576 0.0
O108 O 0.80915 0.51028 0.73319 0.0
C109 C 0.70385 0.58381 0.73438 0.0
C110 C 0.67599 0.5662 0.78946 0.0
C111 C 0.68658 0.588 0.76137 0.0
N112 N 0.70358 0.56093 0.74699 0.0
N113 N 0.68662 0.55049 0.77953 0.0
C114 C 0.71883 0.59983 0.69572 0.0
H115 H 0.72463 0.5878 0.67485 0.0
H116 H 0.73764 0.61846 0.70597 0.0
H117 H 0.70601 0.60585 0.67716 0.0
C118 C 0.76533 0.5257 0.8103 0.0
N119 N 0.75458 0.52588 0.77189 0.0
N120 N 0.74501 0.54278 0.77327 0.0
C121 C 0.75059 0.55479 0.81211 0.0
C122 C 0.76315 0.54405 0.83703 0.0
C123 C 0.77379 0.50558 0.82305 0.0
H124 H 0.76186 0.4863 0.80512 0.0
H125 H 0.79566 0.51413 0.81553 0.0
H126 H 0.77097 0.50132 0.8579 0.0
O127 O 0.70893 0.47806 0.71903 0.0
O128 O 0.68987 0.5038 0.72154 0.0
H129 H 0.72358 0.56631 0.84066 0.0
H130 H 0.75886 0.5896 0.85045 0.0
C131 C 0.74407 0.57615 0.82593 0.0
H132 H 0.74472 0.58865 0.79824 0.0
H133 H 0.68244 0.53257 0.79521 0.0
O134 O 0.76477 0.4816 0.72178 0.0
C135 C 0.68791 0.48052 0.71898 0.0
Co136 Co 0.24097 0.74976 0.23366 0.0
Co137 Co 0.17729 0.72059 0.23593 0.0
C138 C 0.20847 0.75443 0.16078 0.0
O139 O 0.23082 0.76005 0.17888 0.0
O140 O 0.18561 0.73921 0.17895 0.0
C141 C 0.29799 0.78168 0.21069 0.0
O142 O 0.28907 0.78477 0.17353 0.0
C143 C 0.11958 0.70736 0.23512 0.0
C144 C 0.10313 0.67647 0.28658 0.0
C145 C 0.09621 0.69077 0.25835 0.0
N146 N 0.13961 0.70334 0.24963 0.0
N147 N 0.1295 0.6846 0.27994 0.0
C148 C 0.12326 0.72759 0.20137 0.0
H149 H 0.143 0.74659 0.20611 0.0
H150 H 0.10638 0.73213 0.20186 0.0
H151 H 0.12384 0.71917 0.16958 0.0
C152 C 0.2347 0.769 0.31822 0.0
N153 N 0.2244 0.75654 0.28056 0.0
N154 N 0.19773 0.74516 0.28125 0.0
C155 C 0.19031 0.7507 0.31931 0.0
C156 C 0.21337 0.7656 0.34423 0.0
C157 C 0.26388 0.7804 0.33065 0.0
H158 H 0.26996 0.76486 0.32498 0.0
H159 H 0.2768 0.79815 0.30997 0.0
H160 H 0.2676 0.78676 0.36466 0.0
O161 O 0.23003 0.71094 0.23278 0.0
O162 O 0.18502 0.68998 0.23344 0.0
H163 H 0.15205 0.72004 0.34408 0.0
H164 H 0.16107 0.75412 0.35905 0.0
C165 C 0.16164 0.74134 0.3326 0.0
H166 H 0.14986 0.74243 0.30516 0.0
H167 H 0.14082 0.67776 0.29675 0.0
O168 O 0.28105 0.76893 0.24041 0.0
C169 C 0.20703 0.6892 0.2328 0.0
Co170 Co 0.49083 0.24412 0.72506 0.0
Co171 Co 0.4581 0.18029 0.72817 0.0
C172 C 0.45257 0.21049 0.65407 0.0
O173 O 0.46943 0.23311 0.67136 0.0
O174 O 0.44576 0.18783 0.6724 0.0
C175 C 0.51603 0.30086 0.70102 0.0
O176 O 0.50645 0.29148 0.66267 0.0
C177 C 0.41359 0.12262 0.73694 0.0
C178 C 0.43615 0.10573 0.77057 0.0
C179 C 0.4106 0.09892 0.75536 0.0
N180 N 0.43968 0.14244 0.74167 0.0
N181 N 0.453 0.13206 0.76145 0.0
C182 C 0.39193 0.12718 0.71834 0.0
H183 H 0.39795 0.14901 0.72068 0.0
H184 H 0.37226 0.11447 0.73501 0.0
H185 H 0.3893 0.12142 0.68402 0.0
C186 C 0.46687 0.2373 0.81075 0.0
N187 N 0.46851 0.22703 0.77281 0.0
N188 N 0.4544 0.20028 0.77444 0.0
C189 C 0.4431 0.19274 0.81367 0.0
C190 C 0.45073 0.21595 0.83799 0.0
C191 C 0.48269 0.2669 0.82186 0.0
H192 H 0.47874 0.27875 0.79757 0.0
H193 H 0.47714 0.27094 0.85399 0.0
H194 H 0.50476 0.2738 0.82111 0.0
O195 O 0.51995 0.2348 0.72253 0.0
O196 O 0.49675 0.18976 0.72273 0.0
H197 H 0.4428 0.15594 0.8294 0.0
H198 H 0.42078 0.16257 0.8626 0.0
C199 C 0.42861 0.16403 0.82962 0.0
H200 H 0.41132 0.15133 0.80812 0.0
H201 H 0.47356 0.14316 0.7696 0.0
O202 O 0.51042 0.28421 0.73173 0.0
C203 C 0.51924 0.21205 0.72158 0.0
Co204 Co 0.50679 0.7535 0.76777 0.0
Co205 Co 0.54197 0.72501 0.76615 0.0
C206 C 0.5457 0.7605 0.83937 0.0
O207 O 0.52828 0.76527 0.82156 0.0
O208 O 0.5534 0.7452 0.82161 0.0
C209 C 0.47929 0.78268 0.7914 0.0
O210 O 0.4895 0.78364 0.8295 0.0
C211 C 0.58616 0.71122 0.76676 0.0
C212 C 0.57008 0.67866 0.71787 0.0
C213 C 0.59195 0.69341 0.74484 0.0
N214 N 0.56206 0.70735 0.75277 0.0
N215 N 0.55251 0.68769 0.72391 0.0
C216 C 0.60357 0.73229 0.79894 0.0
H217 H 0.59616 0.72422 0.83153 0.0
H218 H 0.60191 0.75082 0.79463 0.0
H219 H 0.62515 0.73753 0.79608 0.0
C220 C 0.53048 0.77064 0.68165 0.0
N221 N 0.52926 0.75927 0.71999 0.0
N222 N 0.54472 0.74806 0.71945 0.0
C223 C 0.55672 0.7525 0.68071 0.0
C224 C 0.54786 0.7666 0.65533 0.0
C225 C 0.51237 0.78164 0.66909 0.0
H226 H 0.49085 0.76591 0.6749 0.0
H227 H 0.51698 0.79941 0.68959 0.0
H228 H 0.51492 0.78786 0.63501 0.0
O229 O 0.47916 0.71465 0.7713 0.0
O230 O 0.50395 0.69445 0.77174 0.0
H231 H 0.56349 0.72104 0.6571 0.0
H232 H 0.58821 0.7546 0.6395 0.0
C233 C 0.57558 0.74263 0.6671 0.0
H234 H 0.58912 0.74439 0.69392 0.0
H235 H 0.53404 0.68065 0.70792 0.0
O236 O 0.48546 0.7722 0.76052 0.0
C237 C 0.48095 0.69321 0.77284 0.0
Co238 Co 0.75417 0.50427 0.27374 0.0
Co239 Co 0.81733 0.54216 0.26734 0.0
C240 C 0.7865 0.54535 0.34248 0.0
O241 O 0.76425 0.52706 0.326 0.0
O242 O 0.80925 0.55351 0.32361 0.0
C243 C 0.69363 0.4826 0.27072 0.0
O244 O 0.69675 0.50701 0.26609 0.0
C245 C 0.87462 0.5879 0.26599 0.0
C246 C 0.89049 0.57452 0.21221 0.0
C247 C 0.89768 0.59527 0.2415 0.0
N248 N 0.85449 0.564 0.25113 0.0
N249 N 0.86428 0.55603 0.21939 0.0
C250 C 0.87148 0.6034 0.30209 0.0
H251 H 0.85196 0.60329 0.2987 0.0
H252 H 0.88866 0.62468 0.30309 0.0
H253 H 0.87076 0.59314 0.33268 0.0
C254 C 0.75704 0.52522 0.18554 0.0
N255 N 0.76821 0.5256 0.22381 0.0
N256 N 0.79461 0.54275 0.22219 0.0
C257 C 0.80076 0.55459 0.18323 0.0
C258 C 0.77735 0.54361 0.15858 0.0
C259 C 0.72842 0.505 0.17327 0.0
H260 H 0.72185 0.48531 0.18955 0.0
H261 H 0.71484 0.51278 0.18348 0.0
H262 H 0.72635 0.50173 0.13814 0.0
O263 O 0.76811 0.47895 0.27747 0.0
O264 O 0.81277 0.50508 0.27294 0.0
H265 H 0.83943 0.5657 0.15575 0.0
H266 H 0.82715 0.58847 0.14307 0.0
C267 C 0.82855 0.57577 0.16887 0.0
H268 H 0.84022 0.58908 0.19599 0.0
H269 H 0.85291 0.53796 0.20237 0.0
O270 O 0.71429 0.47953 0.27307 0.0
C271 C 0.79171 0.48169 0.27651 0.0
Co272 Co 0.24569 0.75521 0.77489 0.0
Co273 Co 0.27461 0.81902 0.77465 0.0
C274 C 0.23976 0.78696 0.84814 0.0
O275 O 0.23479 0.76488 0.82965 0.0
O276 O 0.25489 0.8101 0.83063 0.0
C277 C 0.21638 0.69825 0.79747 0.0
O278 O 0.216 0.70718 0.83611 0.0
C279 C 0.28837 0.87726 0.7726 0.0
C280 C 0.32352 0.89341 0.72851 0.0
C281 C 0.30743 0.90081 0.75165 0.0
N282 N 0.29298 0.85694 0.76172 0.0
N283 N 0.31416 0.86688 0.73572 0.0
C284 C 0.26513 0.87352 0.79993 0.0
H285 H 0.27195 0.87771 0.83374 0.0
H286 H 0.24811 0.85221 0.79774 0.0
H287 H 0.25807 0.88778 0.7902 0.0
C288 C 0.22783 0.76265 0.68986 0.0
N289 N 0.23966 0.77246 0.72807 0.0
N290 N 0.25112 0.79915 0.72809 0.0
C291 C 0.24647 0.80712 0.68985 0.0
C292 C 0.23182 0.78434 0.6642 0.0
C293 C 0.21647 0.73357 0.67673 0.0
H294 H 0.2318 0.72728 0.68298 0.0
H295 H 0.19832 0.72052 0.69655 0.0
H296 H 0.21076 0.73028 0.64243 0.0
O297 O 0.28446 0.76593 0.77692 0.0
O298 O 0.3048 0.8109 0.7788 0.0
H299 H 0.27863 0.84584 0.66931 0.0
H300 H 0.24564 0.83732 0.64877 0.0
C301 C 0.25669 0.83606 0.67719 0.0
H302 H 0.25399 0.84725 0.70403 0.0
H303 H 0.32191 0.85534 0.72218 0.0
O304 O 0.22652 0.71518 0.76689 0.0
C305 C 0.30595 0.78909 0.77866 0.0
Co306 Co 0.49098 0.24475 0.27077 0.0
Co307 Co 0.45461 0.27191 0.26516 0.0
C308 C 0.45258 0.23944 0.34189 0.0
O309 O 0.47008 0.23447 0.32494 0.0
O310 O 0.44437 0.2539 0.32266 0.0
C311 C 0.51651 0.213 0.29456 0.0
O312 O 0.50307 0.20816 0.33073 0.0
C313 C 0.40983 0.28493 0.26462 0.0
C314 C 0.42341 0.31399 0.2106 0.0
C315 C 0.40277 0.3009 0.24019 0.0
N316 N 0.43345 0.28813 0.2495 0.0
N317 N 0.44155 0.30578 0.21761 0.0
C318 C 0.39416 0.26639 0.3007 0.0
H319 H 0.39456 0.24709 0.29797 0.0
H320 H 0.3728 0.26207 0.30102 0.0
H321 H 0.40406 0.2762 0.33137 0.0
C322 C 0.4666 0.22392 0.18641 0.0
N323 N 0.46776 0.23654 0.22344 0.0
N324 N 0.45154 0.24685 0.22127 0.0
C325 C 0.43889 0.24022 0.18289 0.0
C326 C 0.44823 0.22577 0.15944 0.0
C327 C 0.48525 0.21332 0.17526 0.0
H328 H 0.50665 0.23018 0.17708 0.0
H329 H 0.48269 0.19767 0.19898 0.0
H330 H 0.48107 0.20427 0.14272 0.0
O331 O 0.51781 0.28381 0.2708 0.0
O332 O 0.49252 0.3034 0.26764 0.0
H333 H 0.43271 0.2707 0.15363 0.0
H334 H 0.40739 0.23649 0.14021 0.0
C335 C 0.42035 0.2498 0.16652 0.0
H336 H 0.40714 0.24979 0.19262 0.0
H337 H 0.45944 0.31203 0.2003 0.0
O338 O 0.51308 0.22672 0.26558 0.0
C339 C 0.5157 0.30507 0.26939 0.0
Co340 Co 0.2444 0.49289 0.77301 0.0
Co341 Co 0.18083 0.45746 0.7716 0.0
C342 C 0.21285 0.45443 0.84521 0.0
O343 O 0.23497 0.4718 0.8272 0.0
O344 O 0.18982 0.44653 0.82746 0.0
C345 C 0.30143 0.52048 0.79549 0.0
O346 O 0.29277 0.51045 0.83388 0.0
C347 C 0.12326 0.41259 0.77253 0.0
C348 C 0.10637 0.42735 0.72222 0.0
C349 C 0.09974 0.40589 0.74978 0.0
N350 N 0.14311 0.43684 0.75833 0.0
N351 N 0.13273 0.44565 0.72872 0.0
C352 C 0.1272 0.39591 0.80571 0.0
H353 H 0.14678 0.39646 0.80009 0.0
H354 H 0.11018 0.37454 0.80546 0.0
H355 H 0.1283 0.40492 0.83768 0.0
C356 C 0.23804 0.4685 0.68747 0.0
N357 N 0.22781 0.47001 0.72559 0.0
N358 N 0.20116 0.45446 0.72507 0.0
C359 C 0.1937 0.4421 0.68654 0.0
C360 C 0.2167 0.45083 0.6613 0.0
C361 C 0.26714 0.48655 0.67489 0.0
H362 H 0.27284 0.50812 0.67999 0.0
H363 H 0.2803 0.48221 0.69585 0.0
H364 H 0.27088 0.48364 0.641 0.0
O365 O 0.23294 0.52041 0.7758 0.0
O366 O 0.18798 0.49547 0.77628 0.0
H367 H 0.15543 0.43482 0.66237 0.0
H368 H 0.16455 0.41012 0.64577 0.0
C369 C 0.16505 0.42296 0.67297 0.0
H370 H 0.15329 0.40961 0.69998 0.0
H371 H 0.14386 0.46401 0.71233 0.0
O372 O 0.28433 0.51425 0.76529 0.0
C373 C 0.20968 0.51854 0.77707 0.0
Co374 Co 0.75106 0.2447 0.28709 0.0
Co375 Co 0.72471 0.18143 0.28113 0.0
C376 C 0.75779 0.21125 0.35682 0.0
O377 O 0.76215 0.23357 0.34006 0.0
O378 O 0.7433 0.18854 0.33783 0.0
C379 C 0.79209 0.30472 0.28316 0.0
O380 O 0.81231 0.30046 0.27451 0.0
C381 C 0.71051 0.12321 0.27884 0.0
C382 C 0.68147 0.109 0.22477 0.0
C383 C 0.69393 0.1005 0.25407 0.0
N384 N 0.70815 0.14425 0.26425 0.0
N385 N 0.69058 0.13548 0.23224 0.0
C386 C 0.72883 0.12521 0.31473 0.0
H387 H 0.71875 0.12434 0.34559 0.0
H388 H 0.74808 0.14502 0.31319 0.0
H389 H 0.73332 0.10829 0.31354 0.0
C390 C 0.76946 0.24105 0.19931 0.0
N391 N 0.75843 0.23026 0.23765 0.0
N392 N 0.74896 0.2038 0.23663 0.0
C393 C 0.75486 0.19723 0.19817 0.0
C394 C 0.76757 0.22043 0.17304 0.0
C395 C 0.77773 0.26948 0.18597 0.0
H396 H 0.76623 0.27713 0.20438 0.0
H397 H 0.79977 0.28282 0.19221 0.0
H398 H 0.77415 0.27045 0.15127 0.0
O399 O 0.71204 0.23226 0.28875 0.0
O400 O 0.69303 0.18746 0.28578 0.0
H401 H 0.72757 0.15825 0.17126 0.0
H402 H 0.76275 0.17033 0.15997 0.0
C403 C 0.74834 0.16925 0.18497 0.0
H404 H 0.74955 0.15784 0.21286 0.0
H405 H 0.68492 0.14772 0.21529 0.0
O406 O 0.76808 0.28479 0.28759 0.0
C407 C 0.69101 0.20877 0.28803 0.0
H408 H 0.3672 0.29698 0.17911 0.0
H409 H 0.38798 0.31735 0.31183 0.0
H410 H 0.33506 0.31359 0.18305 0.0
H411 H 0.35753 0.33585 0.31555 0.0
H412 H 0.30064 0.36686 0.31966 0.0
H413 H 0.31614 0.33383 0.31588 0.0
H414 H 0.33829 0.35553 0.18316 0.0
H415 H 0.3209 0.38691 0.18674 0.0
C416 C 0.36448 0.3047 0.20933 0.0
C417 C 0.37986 0.30589 0.24521 0.0
C418 C 0.34634 0.31454 0.21155 0.0
C419 C 0.34392 0.32667 0.24936 0.0
C420 C 0.35836 0.32639 0.28595 0.0
C421 C 0.37596 0.31587 0.28395 0.0
C422 C 0.30809 0.3638 0.28944 0.0
C423 C 0.30957 0.37922 0.25345 0.0
C424 C 0.31729 0.34514 0.28731 0.0
C425 C 0.32905 0.3422 0.24946 0.0
C426 C 0.32908 0.35673 0.21279 0.0
C427 C 0.31919 0.37487 0.21471 0.0
H428 H 0.93221 0.30124 0.82671 0.0
H429 H 0.93303 0.32194 0.6939 0.0
H430 H 0.98069 0.3165 0.82338 0.0
H431 H 0.98176 0.33926 0.6908 0.0
H432 H 0.06929 0.3703 0.68789 0.0
H433 H 0.02084 0.33697 0.69106 0.0
H434 H 0.01972 0.3579 0.82407 0.0
H435 H 0.06843 0.38942 0.82109 0.0
C436 C 0.94286 0.30872 0.79661 0.0
C437 C 0.92916 0.31048 0.76054 0.0
C438 C 0.97069 0.3178 0.79473 0.0
C439 C 0.98556 0.32977 0.7571 0.0
C440 C 0.97123 0.32991 0.72028 0.0
C441 C 0.94324 0.3201 0.72193 0.0
C442 C 0.05864 0.36694 0.71804 0.0
C443 C 0.07232 0.38222 0.75427 0.0
C444 C 0.03082 0.34813 0.71983 0.0
C445 C 0.01594 0.34499 0.75754 0.0
C446 C 0.03025 0.35928 0.79451 0.0
C447 C 0.05823 0.37752 0.79294 0.0
H448 H 0.68157 0.07074 0.3276 0.0
H449 H 0.68969 0.06587 0.19106 0.0
H450 H 0.65989 0.02115 0.33261 0.0
H451 H 0.66826 0.01635 0.1961 0.0
H452 H 0.63773 0.92577 0.23133 0.0
H453 H 0.67034 0.97454 0.23236 0.0
H454 H 0.61201 0.98878 0.29888 0.0
H455 H 0.57891 0.94068 0.29581 0.0
C456 C 0.67973 0.05917 0.29898 0.0
C457 C 0.6873 0.07201 0.25896 0.0
C458 C 0.66717 0.03084 0.30179 0.0
C459 C 0.66235 0.01504 0.26468 0.0
C460 C 0.67196 0.0281 0.22518 0.0
C461 C 0.68409 0.05635 0.22229 0.0
C462 C 0.63146 0.9392 0.24513 0.0
C463 C 0.60516 0.92912 0.26214 0.0
C464 C 0.65041 0.96713 0.24643 0.0
C465 C 0.64369 0.98529 0.26599 0.0
C466 C 0.61786 0.97515 0.2842 0.0
C467 C 0.59883 0.94751 0.28213 0.0
H468 H 0.71293 0.6404 0.72586 0.0
H469 H 0.64219 0.5847 0.79967 0.0
H470 H 0.69633 0.67261 0.72421 0.0
H471 H 0.62692 0.61758 0.80006 0.0
H472 H 0.61314 0.68699 0.81935 0.0
H473 H 0.6427 0.66725 0.82677 0.0
H474 H 0.65045 0.66704 0.68941 0.0
H475 H 0.6207 0.68646 0.68199 0.0
C476 C 0.69381 0.63468 0.74124 0.0
C477 C 0.67845 0.60924 0.76144 0.0
C478 C 0.68463 0.65349 0.741 0.0
C479 C 0.66048 0.64758 0.76222 0.0
C480 C 0.64583 0.62281 0.78396 0.0
C481 C 0.6546 0.60388 0.7834 0.0
C482 C 0.62203 0.6837 0.79091 0.0
C483 C 0.61473 0.68819 0.75011 0.0
C484 C 0.63877 0.67228 0.79512 0.0
C485 C 0.6487 0.66558 0.75862 0.0
C486 C 0.64325 0.67225 0.71801 0.0
C487 C 0.62615 0.6832 0.71378 0.0
H488 H 0.06487 0.67649 0.18698 0.0
H489 H 0.06569 0.69538 0.3207 0.0
H490 H 0.01626 0.65997 0.18391 0.0
H491 H 0.01738 0.68088 0.31749 0.0
H492 H 0.92887 0.60957 0.313 0.0
H493 H 0.97779 0.63986 0.31667 0.0
H494 H 0.97783 0.66359 0.18495 0.0
H495 H 0.92907 0.63154 0.18099 0.0
C496 C 0.0547 0.67807 0.21528 0.0
C497 C 0.06874 0.68698 0.25407 0.0
C498 C 0.02679 0.66872 0.21364 0.0
C499 C 0.01251 0.66863 0.25069 0.0
C500 C 0.02734 0.67979 0.28863 0.0
C501 C 0.05507 0.68841 0.29046 0.0
C502 C 0.93936 0.62185 0.28531 0.0
C503 C 0.92545 0.61831 0.24674 0.0
C504 C 0.96747 0.63937 0.28729 0.0
C505 C 0.98213 0.65408 0.25084 0.0
C506 C 0.96753 0.65208 0.21329 0.0
C507 C 0.93955 0.63401 0.21108 0.0
H508 H 0.30303 0.92888 0.82014 0.0
H509 H 0.32278 0.93613 0.68565 0.0
H510 H 0.31927 0.97769 0.82331 0.0
H511 H 0.33981 0.98473 0.68895 0.0
H512 H 0.36875 0.07181 0.6977 0.0
H513 H 0.33429 0.02362 0.69913 0.0
H514 H 0.36517 0.01522 0.82117 0.0
H515 H 0.39861 0.06336 0.82049 0.0
C516 C 0.31 0.9407 0.79099 0.0
C517 C 0.3117 0.92873 0.75266 0.0
C518 C 0.31961 0.96873 0.79287 0.0
C519 C 0.33112 0.98524 0.75648 0.0
C520 C 0.33086 0.97274 0.71752 0.0
C521 C 0.32133 0.94486 0.71569 0.0
C522 C 0.36745 0.05993 0.72558 0.0
C523 C 0.38644 0.07139 0.75895 0.0
C524 C 0.3479 0.0322 0.72619 0.0
C525 C 0.3471 0.01543 0.76006 0.0
C526 C 0.36489 0.02745 0.79478 0.0
C527 C 0.38432 0.05506 0.79417 0.0
H528 H 0.17111 0.42762 0.90268 0.0
H529 H 0.2578 0.46116 0.88796 0.0
H530 H 0.17499 0.41967 0.97858 0.0
H531 H 0.26163 0.4535 0.96351 0.0
H532 H 0.2616 0.42839 0.09913 0.0
H533 H 0.25044 0.42098 0.02287 0.0
H534 H 0.19504 0.45176 0.03849 0.0
H535 H 0.20592 0.45891 0.11424 0.0
C536 C 0.19089 0.43284 0.91537 0.0
C537 C 0.21419 0.44538 0.8893 0.0
C538 C 0.19313 0.4284 0.95892 0.0
C539 C 0.21866 0.43617 0.97722 0.0
C540 C 0.24163 0.44706 0.95048 0.0
C541 C 0.23944 0.45166 0.90712 0.0
C542 C 0.2466 0.43299 0.08643 0.0
C543 C 0.23492 0.44457 0.1127 0.0
C544 C 0.24032 0.4289 0.0427 0.0
C545 C 0.22202 0.43599 0.02448 0.0
C546 C 0.20904 0.44585 0.05142 0.0
C547 C 0.21546 0.45015 0.0949 0.0
H548 H 0.79648 0.25546 0.40005 0.0
H549 H 0.74168 0.16899 0.41368 0.0
H550 H 0.8075 0.25875 0.47569 0.0
H551 H 0.75301 0.1723 0.48981 0.0
H552 H 0.74486 0.20398 0.62529 0.0
H553 H 0.74135 0.19281 0.54966 0.0
H554 H 0.82785 0.24675 0.53512 0.0
H555 H 0.83138 0.25829 0.61113 0.0
C556 C 0.78717 0.23701 0.41902 0.0
C557 C 0.76789 0.21201 0.40088 0.0
C558 C 0.79369 0.23888 0.46244 0.0
C559 C 0.78099 0.21583 0.48893 0.0
C560 C 0.76291 0.19049 0.47032 0.0
C561 C 0.75653 0.18857 0.42666 0.0
C562 C 0.76326 0.21315 0.60623 0.0
C563 C 0.78834 0.23238 0.62421 0.0
C564 C 0.76126 0.20653 0.56282 0.0
C565 C 0.78427 0.21905 0.53621 0.0
C566 C 0.80968 0.23701 0.55469 0.0
C567 C 0.81172 0.24351 0.59829 0.0
H568 H 0.56952 0.83284 0.09466 0.0
H569 H 0.54031 0.74674 0.10726 0.0
H570 H 0.57788 0.83021 0.01846 0.0
H571 H 0.54833 0.74411 0.03156 0.0
H572 H 0.53868 0.79837 0.88268 0.0
H573 H 0.54606 0.80934 0.95839 0.0
H574 H 0.58078 0.75718 0.97223 0.0
H575 H 0.57305 0.74582 0.89618 0.0
C576 C 0.56541 0.8135 0.08144 0.0
C577 C 0.55391 0.78994 0.10695 0.0
C578 C 0.57005 0.81196 0.03774 0.0
C579 C 0.56356 0.78691 0.01882 0.0
C580 C 0.5538 0.76378 0.04505 0.0
C581 C 0.54898 0.76526 0.0885 0.0
C582 C 0.54833 0.78957 0.9016 0.0
C583 C 0.55486 0.77086 0.88341 0.0
C584 C 0.55278 0.79607 0.94506 0.0
C585 C 0.56379 0.78395 0.9715 0.0
C586 C 0.57193 0.76658 0.9528 0.0
C587 C 0.56762 0.76018 0.90917 0.0
H588 H 0.74215 0.53962 0.38564 0.0
H589 H 0.82885 0.57264 0.39882 0.0
H590 H 0.73894 0.54781 0.46115 0.0
H591 H 0.82561 0.58111 0.47477 0.0
H592 H 0.79454 0.54104 0.61033 0.0
H593 H 0.80565 0.54894 0.53472 0.0
H594 H 0.75065 0.58031 0.52055 0.0
H595 H 0.73923 0.57211 0.59662 0.0
C596 C 0.76065 0.54916 0.40446 0.0
C597 C 0.7857 0.55509 0.38626 0.0
C598 C 0.75883 0.55407 0.4478 0.0
C599 C 0.78198 0.56491 0.47414 0.0
C600 C 0.80735 0.57244 0.4554 0.0
C601 C 0.80922 0.56772 0.41184 0.0
C602 C 0.78516 0.55011 0.59136 0.0
C603 C 0.76568 0.55556 0.60945 0.0
C604 C 0.79173 0.55486 0.54796 0.0
C605 C 0.77887 0.56504 0.52145 0.0
C606 C 0.76067 0.57214 0.54006 0.0
C607 C 0.75424 0.56758 0.58369 0.0
H608 H 0.20192 0.7418 0.89085 0.0
H609 H 0.25517 0.82843 0.90637 0.0
H610 H 0.19106 0.73757 0.96666 0.0
H611 H 0.24394 0.82417 0.98254 0.0
H612 H 0.2527 0.79325 0.11757 0.0
H613 H 0.25622 0.80402 0.0418 0.0
H614 H 0.1701 0.74834 0.02671 0.0
H615 H 0.16658 0.7372 0.1029 0.0
C616 C 0.21094 0.76006 0.91026 0.0
C617 C 0.22974 0.78541 0.89254 0.0
C618 C 0.20451 0.75764 0.95379 0.0
C619 C 0.21679 0.78049 0.9808 0.0
C620 C 0.2344 0.80612 0.96267 0.0
C621 C 0.24072 0.80858 0.91896 0.0
C622 C 0.23438 0.78356 0.09833 0.0
C623 C 0.20942 0.76406 0.11629 0.0
C624 C 0.23637 0.78994 0.05484 0.0
C625 C 0.21348 0.77691 0.02806 0.0
C626 C 0.18819 0.75849 0.0464 0.0
C627 C 0.18614 0.75222 0.09011 0.0
H628 H 0.45706 0.25422 0.61047 0.0
H629 H 0.42699 0.16796 0.59751 0.0
H630 H 0.44947 0.25711 0.53467 0.0
H631 H 0.41896 0.17083 0.52133 0.0
H632 H 0.42616 0.25573 0.39804 0.0
H633 H 0.41801 0.24485 0.47428 0.0
H634 H 0.45107 0.19114 0.46218 0.0
H635 H 0.4588 0.20159 0.38644 0.0
C636 C 0.44828 0.23572 0.59163 0.0
C637 C 0.44306 0.21093 0.61 0.0
C638 C 0.4437 0.23736 0.54811 0.0
C639 C 0.43385 0.21426 0.52178 0.0
C640 C 0.42693 0.18908 0.54067 0.0
C641 C 0.43139 0.18741 0.58437 0.0
C642 C 0.43115 0.24117 0.41151 0.0
C643 C 0.44351 0.22985 0.38624 0.0
C644 C 0.4266 0.23504 0.45523 0.0
C645 C 0.43409 0.21729 0.47443 0.0
C646 C 0.44481 0.20468 0.44848 0.0
C647 C 0.4495 0.21091 0.405 0.0
H648 H 0.74643 0.55883 0.11228 0.0
H649 H 0.80505 0.53207 0.09969 0.0
H650 H 0.74444 0.56162 0.03432 0.0
H651 H 0.80233 0.53347 0.02209 0.0
H652 H 0.80907 0.55871 0.88361 0.0
H653 H 0.81364 0.56117 0.96159 0.0
H654 H 0.72789 0.53434 0.97334 0.0
H655 H 0.72397 0.53323 0.89574 0.0
C656 C 0.7588 0.55349 0.09262 0.0
C657 C 0.77604 0.54549 0.11163 0.0
C658 C 0.75759 0.55488 0.04802 0.0
C659 C 0.77326 0.54779 0.02162 0.0
C660 C 0.79044 0.5397 0.04111 0.0
C661 C 0.79192 0.53873 0.08559 0.0
C662 C 0.79139 0.55362 0.90316 0.0
C663 C 0.76629 0.54608 0.884 0.0
C664 C 0.79386 0.55481 0.94777 0.0
C665 C 0.77112 0.54796 0.97406 0.0
C666 C 0.746 0.54038 0.95442 0.0
C667 C 0.74368 0.5396 0.90992 0.0
H668 H 0.18429 0.75568 0.6201 0.0
H669 H 0.27 0.81178 0.60342 0.0
H670 H 0.17804 0.75307 0.54234 0.0
H671 H 0.26412 0.80895 0.52596 0.0
H672 H 0.2425 0.81337 0.38785 0.0
H673 H 0.24524 0.81995 0.4656 0.0
H674 H 0.18927 0.73393 0.48277 0.0
H675 H 0.18632 0.72773 0.40545 0.0
C676 C 0.20171 0.76751 0.59965 0.0
C677 C 0.22756 0.78394 0.61748 0.0
C678 C 0.19823 0.76598 0.55522 0.0
C679 C 0.2206 0.78076 0.52781 0.0
C680 C 0.24636 0.79765 0.54599 0.0
C681 C 0.24978 0.79923 0.59035 0.0
C682 C 0.2307 0.79603 0.40849 0.0
C683 C 0.21416 0.77011 0.39092 0.0
C684 C 0.2323 0.7997 0.4529 0.0
C685 C 0.21747 0.77746 0.48053 0.0
C686 C 0.20058 0.75161 0.46259 0.0
C687 C 0.19892 0.74801 0.41829 0.0
H688 H 0.40603 0.20083 0.88793 0.0
H689 H 0.49276 0.2335 0.89312 0.0
H690 H 0.40453 0.20299 0.96623 0.0
H691 H 0.49146 0.23479 0.971 0.0
H692 H 0.48566 0.26136 0.10476 0.0
H693 H 0.48534 0.25929 0.02681 0.0
H694 H 0.40935 0.18288 0.03096 0.0
H695 H 0.40948 0.18581 0.10936 0.0
C696 C 0.4247 0.2084 0.90605 0.0
C697 C 0.44953 0.2173 0.88496 0.0
C698 C 0.42389 0.20945 0.95076 0.0
C699 C 0.44791 0.2192 0.975 0.0
C700 C 0.47266 0.22774 0.95345 0.0
C701 C 0.47346 0.22692 0.90891 0.0
C702 C 0.46897 0.24417 0.08876 0.0
C703 C 0.44771 0.22363 0.11251 0.0
C704 C 0.4688 0.24284 0.04421 0.0
C705 C 0.44743 0.22078 0.0225 0.0
C706 C 0.42599 0.20027 0.04658 0.0
C707 C 0.4261 0.20176 0.09132 0.0
H708 H 0.27191 0.4595 0.4014 0.0
H709 H 0.18828 0.43871 0.38487 0.0
H710 H 0.26612 0.45685 0.4787 0.0
H711 H 0.18192 0.43508 0.4626 0.0
H712 H 0.19131 0.46485 0.60169 0.0
H713 H 0.19425 0.463 0.52408 0.0
H714 H 0.24614 0.42782 0.53796 0.0
H715 H 0.24382 0.43076 0.61586 0.0
C716 C 0.25209 0.45379 0.41448 0.0
C717 C 0.23045 0.44908 0.3874 0.0
C718 C 0.2487 0.45217 0.45881 0.0
C719 C 0.2235 0.44561 0.47712 0.0
C720 C 0.20172 0.44054 0.44974 0.0
C721 C 0.20523 0.44244 0.40528 0.0
C722 C 0.20311 0.45649 0.58796 0.0
C723 C 0.21737 0.44795 0.61443 0.0
C724 C 0.20471 0.45528 0.5435 0.0
C725 C 0.22046 0.44527 0.52453 0.0
C726 C 0.2342 0.43609 0.55134 0.0
C727 C 0.23279 0.43758 0.59588 0.0
H728 H 0.75642 0.18831 0.89812 0.0
H729 H 0.80854 0.27505 0.91091 0.0
H730 H 0.75436 0.18359 0.97613 0.0
H731 H 0.80585 0.27081 0.98857 0.0
H732 H 0.81347 0.25349 0.12757 0.0
H733 H 0.81901 0.25578 0.0497 0.0
H734 H 0.7348 0.19286 0.03583 0.0
H735 H 0.72985 0.19018 0.11328 0.0
C736 C 0.76737 0.20631 0.91782 0.0
C737 C 0.78268 0.23197 0.89888 0.0
C738 C 0.76613 0.20372 0.96241 0.0
C739 C 0.77992 0.22684 0.98883 0.0
C740 C 0.7954 0.25249 0.96945 0.0
C741 C 0.79684 0.25499 0.92497 0.0
C742 C 0.79634 0.24007 0.10761 0.0
C743 C 0.77138 0.22147 0.12617 0.0
C744 C 0.79938 0.24143 0.06308 0.0
C745 C 0.77735 0.22445 0.0363 0.0
C746 C 0.7524 0.2058 0.05526 0.0
C747 C 0.74949 0.20429 0.09967 0.0
H748 H 0.56749 0.81323 0.60864 0.0
H749 H 0.53326 0.72647 0.59682 0.0
H750 H 0.56982 0.81758 0.53059 0.0
H751 H 0.53457 0.73037 0.51909 0.0
H752 H 0.55854 0.74746 0.37942 0.0
H753 H 0.5624 0.74543 0.45724 0.0
H754 H 0.54011 0.80762 0.47177 0.0
H755 H 0.53713 0.81 0.39442 0.0
C756 C 0.5605 0.79515 0.58915 0.0
C757 C 0.55028 0.76958 0.60838 0.0
C758 C 0.56166 0.79753 0.54454 0.0
C759 C 0.5523 0.77429 0.51838 0.0
C760 C 0.54241 0.74875 0.53802 0.0
C761 C 0.54152 0.74646 0.58254 0.0
C762 C 0.55472 0.76077 0.3995 0.0
C763 C 0.54791 0.77911 0.38116 0.0
C764 C 0.55677 0.75957 0.444 0.0
C765 C 0.55167 0.77646 0.47094 0.0
C766 C 0.54484 0.79479 0.45219 0.0
C767 C 0.54306 0.79613 0.40783 0.0
H768 H 0.24895 0.56395 0.19836 0.0
H769 H 0.16944 0.51948 0.2566 0.0
H770 H 0.2457 0.6049 0.19785 0.0
H771 H 0.16654 0.5612 0.25765 0.0
H772 H 0.16326 0.63837 0.21719 0.0
H773 H 0.16288 0.59506 0.2151 0.0
H774 H 0.24823 0.63695 0.24841 0.0
H775 H 0.24883 0.67994 0.2489 0.0
C776 C 0.23077 0.56297 0.21133 0.0
C777 C 0.20956 0.53854 0.22796 0.0
C778 C 0.22897 0.58655 0.21127 0.0
C779 C 0.20609 0.58655 0.22848 0.0
C780 C 0.18442 0.5619 0.24402 0.0
C781 C 0.18609 0.53804 0.24357 0.0
C782 C 0.18192 0.63825 0.22398 0.0
C783 C 0.20615 0.66266 0.23269 0.0
C784 C 0.18166 0.61341 0.22303 0.0
C785 C 0.20559 0.61251 0.23106 0.0
C786 C 0.22957 0.6369 0.24091 0.0
C787 C 0.22989 0.66162 0.24142 0.0
H788 H 0.67794 0.23374 0.78101 0.0
H789 H 0.65926 0.1955 0.65641 0.0
H790 H 0.63307 0.22958 0.78362 0.0
H791 H 0.6142 0.19119 0.6594 0.0
H792 H 0.52661 0.16893 0.7031 0.0
H793 H 0.56939 0.1682 0.70327 0.0
H794 H 0.6128 0.25307 0.73884 0.0
H795 H 0.57033 0.254 0.73835 0.0
C796 C 0.66413 0.22405 0.75447 0.0
C797 C 0.67226 0.21515 0.71831 0.0
C798 C 0.63851 0.22184 0.75591 0.0
C799 C 0.62033 0.21034 0.72152 0.0
C800 C 0.62783 0.2001 0.68637 0.0
C801 C 0.65364 0.20263 0.68465 0.0
C802 C 0.5453 0.18744 0.71088 0.0
C803 C 0.54507 0.21155 0.72064 0.0
C804 C 0.56974 0.187 0.71087 0.0
C805 C 0.59431 0.21051 0.72136 0.0
C806 C 0.59408 0.23456 0.73116 0.0
C807 C 0.56977 0.23513 0.73054 0.0
H808 H 0.44245 0.67898 0.1754 0.0
H809 H 0.48076 0.64874 0.26155 0.0
H810 H 0.40192 0.63439 0.17338 0.0
H811 H 0.43937 0.60375 0.26066 0.0
H812 H 0.36314 0.52091 0.22137 0.0
H813 H 0.40744 0.5629 0.2178 0.0
H814 H 0.36704 0.6102 0.22579 0.0
H815 H 0.32334 0.56889 0.22828 0.0
C816 C 0.44221 0.66269 0.19387 0.0
C817 C 0.46459 0.66741 0.21916 0.0
C818 C 0.41891 0.63714 0.19286 0.0
C819 C 0.41716 0.61568 0.21766 0.0
C820 C 0.44011 0.6199 0.24122 0.0
C821 C 0.46374 0.64561 0.24182 0.0
C822 C 0.36381 0.54032 0.22224 0.0
C823 C 0.33965 0.5415 0.22463 0.0
C824 C 0.38916 0.56433 0.2204 0.0
C825 C 0.39073 0.58987 0.22087 0.0
C826 C 0.36657 0.59089 0.22421 0.0
C827 C 0.34142 0.5671 0.22589 0.0
H828 H 0.7505 0.32035 0.74198 0.0
H829 H 0.83771 0.36069 0.72498 0.0
H830 H 0.75224 0.36383 0.73842 0.0
H831 H 0.83932 0.40455 0.72014 0.0
H832 H 0.83012 0.4796 0.76016 0.0
H833 H 0.83287 0.43778 0.76176 0.0
H834 H 0.75972 0.3971 0.6854 0.0
H835 H 0.75655 0.43814 0.68505 0.0
C836 C 0.77007 0.33849 0.73713 0.0
C837 C 0.79394 0.33696 0.73341 0.0
C838 C 0.77105 0.36349 0.73484 0.0
C839 C 0.79588 0.38767 0.72836 0.0
C840 C 0.81989 0.3863 0.72531 0.0
C841 C 0.81893 0.36117 0.72786 0.0
C842 C 0.81485 0.46174 0.74343 0.0
C843 C 0.7929 0.46198 0.72307 0.0
C844 C 0.81644 0.43784 0.74424 0.0
C845 C 0.7962 0.41394 0.7244 0.0
C846 C 0.77519 0.41485 0.7021 0.0
C847 C 0.77346 0.43846 0.7017 0.0
H848 H 0.32079 0.77 0.27842 0.0
H849 H 0.34011 0.80871 0.15418 0.0
H850 H 0.36584 0.77474 0.28198 0.0
H851 H 0.3854 0.81357 0.15814 0.0
H852 H 0.47264 0.83374 0.20252 0.0
H853 H 0.43048 0.83582 0.20293 0.0
H854 H 0.38504 0.75063 0.23616 0.0
H855 H 0.42674 0.74837 0.23537 0.0
C856 C 0.33477 0.77995 0.25217 0.0
C857 C 0.32671 0.78866 0.21573 0.0
C858 C 0.36053 0.78254 0.25419 0.0
C859 C 0.37891 0.7942 0.22011 0.0
C860 C 0.37158 0.80453 0.18487 0.0
C861 C 0.34564 0.80166 0.18259 0.0
C862 C 0.45363 0.81548 0.20988 0.0
C863 C 0.45302 0.79088 0.21883 0.0
C864 C 0.42956 0.81669 0.21002 0.0
C865 C 0.40461 0.79345 0.21993 0.0
C866 C 0.40407 0.76894 0.22898 0.0
C867 C 0.42794 0.76762 0.22819 0.0
H868 H 0.67567 0.42897 0.7385 0.0
H869 H 0.63891 0.47585 0.69658 0.0
H870 H 0.63137 0.38773 0.737 0.0
H871 H 0.59429 0.43406 0.6945 0.0
H872 H 0.53369 0.34249 0.64287 0.0
H873 H 0.57353 0.38806 0.64937 0.0
H874 H 0.58591 0.36993 0.7787 0.0
H875 H 0.54614 0.32464 0.77267 0.0
C876 C 0.65814 0.43047 0.72885 0.0
C877 C 0.66081 0.45567 0.71757 0.0
C878 C 0.63274 0.40687 0.72833 0.0
C879 C 0.60945 0.40781 0.71595 0.0
C880 C 0.612 0.43288 0.70422 0.0
C881 C 0.63746 0.45671 0.70549 0.0
C882 C 0.54458 0.34842 0.67299 0.0
C883 C 0.53697 0.3298 0.70702 0.0
C884 C 0.56729 0.37452 0.6767 0.0
C885 C 0.5829 0.38228 0.71434 0.0
C886 C 0.57436 0.36427 0.74918 0.0
C887 C 0.55153 0.33837 0.74569 0.0
H888 H 0.35551 0.83279 0.79972 0.0
H889 H 0.31704 0.74882 0.75888 0.0
H890 H 0.39971 0.83493 0.80029 0.0
H891 H 0.36109 0.75115 0.75914 0.0
H892 H 0.44644 0.77251 0.72186 0.0
H893 H 0.40578 0.77666 0.71718 0.0
H894 H 0.42129 0.81149 0.84392 0.0
H895 H 0.462 0.80721 0.84897 0.0
C896 C 0.35648 0.81485 0.79079 0.0
C897 C 0.33276 0.79061 0.77936 0.0
C898 C 0.38174 0.81608 0.79121 0.0
C899 C 0.38378 0.79327 0.77948 0.0
C900 C 0.36012 0.76915 0.7678 0.0
C901 C 0.33488 0.76777 0.76799 0.0
C902 C 0.44148 0.78146 0.74853 0.0
C903 C 0.4573 0.78925 0.78602 0.0
C904 C 0.41811 0.78368 0.74587 0.0
C905 C 0.41027 0.79409 0.78037 0.0
C906 C 0.42693 0.80344 0.81684 0.0
C907 C 0.45017 0.8009 0.81974 0.0
H908 H 0.56743 0.31575 0.25549 0.0
H909 H 0.52091 0.35546 0.28216 0.0
H910 H 0.60901 0.35942 0.25582 0.0
H911 H 0.56305 0.39952 0.28403 0.0
H912 H 0.64477 0.47586 0.24191 0.0
H913 H 0.60069 0.43352 0.24135 0.0
H914 H 0.63717 0.39244 0.30652 0.0
H915 H 0.68084 0.43399 0.30557 0.0
C916 C 0.56608 0.33382 0.26182 0.0
C917 C 0.54083 0.33205 0.26922 0.0
C918 C 0.59001 0.35893 0.26224 0.0
C919 C 0.58948 0.38302 0.27065 0.0
C920 C 0.56418 0.38139 0.27726 0.0
C921 C 0.54007 0.35614 0.27642 0.0
C922 C 0.64319 0.45775 0.25625 0.0
C923 C 0.66631 0.45813 0.2732 0.0
C924 C 0.61797 0.43353 0.25608 0.0
C925 C 0.61547 0.40942 0.27321 0.0
C926 C 0.63845 0.41034 0.29186 0.0
C927 C 0.66352 0.43427 0.29154 0.0
H928 H 0.24967 0.57007 0.75797 0.0
H929 H 0.16587 0.52402 0.79927 0.0
H930 H 0.24725 0.61173 0.76004 0.0
H931 H 0.16365 0.56607 0.80173 0.0
H932 H 0.1921 0.65579 0.854 0.0
H933 H 0.18752 0.61074 0.84689 0.0
H934 H 0.2214 0.63132 0.71967 0.0
H935 H 0.22581 0.67616 0.72639 0.0
C936 C 0.23073 0.56882 0.76754 0.0
C937 C 0.20797 0.54373 0.77853 0.0
C938 C 0.2293 0.59267 0.7684 0.0
C939 C 0.20521 0.59205 0.78079 0.0
C940 C 0.18246 0.56705 0.7921 0.0
C941 C 0.18374 0.54304 0.79058 0.0
C942 C 0.19812 0.65053 0.82423 0.0
C943 C 0.20958 0.66967 0.79095 0.0
C944 C 0.19541 0.62473 0.82015 0.0
C945 C 0.20442 0.61774 0.78293 0.0
C946 C 0.21462 0.63635 0.7489 0.0
C947 C 0.217 0.66198 0.75273 0.0
H948 H 0.53156 0.18578 0.35089 0.0
H949 H 0.55179 0.22585 0.22773 0.0
H950 H 0.57241 0.18156 0.34743 0.0
H951 H 0.59244 0.22172 0.22465 0.0
H952 H 0.6794 0.24907 0.27261 0.0
H953 H 0.63508 0.24591 0.27147 0.0
H954 H 0.59654 0.16048 0.30267 0.0
H955 H 0.64122 0.16347 0.30349 0.0
C956 C 0.54442 0.19326 0.32282 0.0
C957 C 0.53861 0.20649 0.28988 0.0
C958 C 0.56773 0.19076 0.32082 0.0
C959 C 0.5857 0.20165 0.28605 0.0
C960 C 0.57909 0.2135 0.2521 0.0
C961 C 0.55575 0.21577 0.25387 0.0
C962 C 0.66155 0.22956 0.27928 0.0
C963 C 0.66386 0.20651 0.28818 0.0
C964 C 0.63614 0.22774 0.27829 0.0
C965 C 0.61241 0.20291 0.28664 0.0
C966 C 0.61458 0.17986 0.29612 0.0
C967 C 0.64009 0.18158 0.29648 0.0
H968 H 0.47557 0.64402 0.79537 0.0
H969 H 0.42931 0.68177 0.75493 0.0
H970 H 0.43352 0.59984 0.79864 0.0
H971 H 0.38765 0.63776 0.75783 0.0
H972 H 0.32326 0.55194 0.7244 0.0
H973 H 0.36804 0.59233 0.71741 0.0
H974 H 0.38903 0.57917 0.84442 0.0
H975 H 0.34402 0.5387 0.85182 0.0
C976 C 0.4565 0.64289 0.78707 0.0
C977 C 0.45575 0.6664 0.77497 0.0
C978 C 0.43249 0.61765 0.78905 0.0
C979 C 0.40745 0.61543 0.7782 0.0
C980 C 0.40676 0.63887 0.76584 0.0
C981 C 0.4306 0.66409 0.76451 0.0
C982 C 0.33751 0.55735 0.75066 0.0
C983 C 0.32995 0.54228 0.78891 0.0
C984 C 0.3631 0.58056 0.74666 0.0
C985 C 0.38181 0.58899 0.78056 0.0
C986 C 0.37496 0.57304 0.8178 0.0
C987 C 0.34918 0.54995 0.82204 0.0
H988 H 0.83181 0.35197 0.246 0.0
H989 H 0.76172 0.32008 0.32911 0.0
H990 H 0.83408 0.39636 0.24586 0.0
H991 H 0.76447 0.36412 0.33022 0.0
H992 H 0.75075 0.42905 0.27446 0.0
H993 H 0.75394 0.38817 0.27789 0.0
H994 H 0.84145 0.43669 0.2876 0.0
H995 H 0.83834 0.47819 0.28294 0.0
C996 C 0.81727 0.35461 0.26483 0.0
C997 C 0.79631 0.33251 0.28695 0.0
C998 C 0.81858 0.37999 0.26486 0.0
C999 C 0.79909 0.3836 0.28732 0.0
C1000 C 0.7793 0.36184 0.31154 0.0
C1001 C 0.77779 0.3366 0.31107 0.0
C1002 C 0.77074 0.43118 0.27745 0.0
C1003 C 0.79428 0.45697 0.27879 0.0
C1004 C 0.77256 0.40764 0.27967 0.0
C1005 C 0.79793 0.40912 0.28371 0.0
C1006 C 0.82161 0.43488 0.28441 0.0
C1007 C 0.8198 0.45862 0.28197 0.0
loop_
_geom_bond_atom_site_label_1
_geom_bond_atom_site_label_2
_geom_bond_distance
_geom_bond_site_symmetry_2
_ccdc_geom_bond_type
Co0 O3 1.970 . S
Co0 N17 1.989 . S
Co0 O25 1.967 . S
Co0 O32 1.920 . S
Co1 O4 1.966 . S
Co1 N10 2.022 . S
Co1 N18 1.993 . S
Co1 O26 1.941 . S
C2 O3 1.258 . S
C2 O4 1.263 . S
O3 Co0 1.970 . S
O3 C2 1.258 . S
O4 Co1 1.966 . S
O4 C2 1.263 . S
C5 O6 1.235 . S
C5 O32 1.289 . S
O6 C5 1.235 . S
C7 C9 1.400 . S
C7 N10 1.351 . S
C7 C12 1.501 . S
C8 C9 1.387 . S
C8 N11 1.341 . S
C9 C7 1.400 . S
C9 C8 1.387 . S
N10 Co1 2.022 . S
N10 C7 1.351 . S
N10 N11 1.365 . S
N11 C8 1.341 . S
N11 N10 1.365 . S
N11 H31 0.862 . S
C12 C7 1.501 . S
C12 H13 0.961 . S
C12 H14 0.961 . S
C12 H15 0.960 . S
H13 C12 0.961 . S
H14 C12 0.961 . S
H15 C12 0.960 . S
C16 N17 1.342 . S
C16 C20 1.401 . S
C16 C21 1.499 . S
N17 Co0 1.989 . S
N17 C16 1.342 . S
N17 N18 1.388 . S
N18 Co1 1.993 . S
N18 N17 1.388 . S
N18 C19 1.346 . S
C19 N18 1.346 . S
C19 C20 1.396 . S
C19 C29 1.510 . S
C20 C16 1.401 . S
C20 C19 1.396 . S
C21 C16 1.499 . S
C21 H22 0.959 . S
C21 H23 0.960 . S
C21 H24 0.961 . S
H22 C21 0.959 . S
H23 C21 0.960 . S
H24 C21 0.961 . S
O25 Co0 1.967 . S
O25 C33 1.258 . S
O26 Co1 1.941 . S
O26 C33 1.266 . S
H27 C29 0.959 . S
H28 C29 0.961 . S
C29 C19 1.510 . S
C29 H27 0.959 . S
C29 H28 0.961 . S
C29 H30 0.960 . S
H30 C29 0.960 . S
H31 N11 0.862 . S
O32 Co0 1.920 . S
O32 C5 1.289 . S
C33 O25 1.258 . S
C33 O26 1.266 . S
Co34 O37 1.970 . S
Co34 N51 1.989 . S
Co34 O59 1.967 . S
Co34 O66 1.920 . S
Co35 O38 1.966 . S
Co35 N44 2.022 . S
Co35 N52 1.993 . S
Co35 O60 1.941 . S
C36 O37 1.258 . S
C36 O38 1.263 . S
O37 Co34 1.970 . S
O37 C36 1.258 . S
O38 Co35 1.966 . S
O38 C36 1.263 . S
C39 O40 1.235 . S
C39 O66 1.289 . S
O40 C39 1.235 . S
C41 C43 1.400 . S
C41 N44 1.351 . S
C41 C46 1.501 . S
C42 C43 1.387 . S
C42 N45 1.341 . S
C43 C41 1.400 . S
C43 C42 1.387 . S
N44 Co35 2.022 . S
N44 C41 1.351 . S
N44 N45 1.365 . S
N45 C42 1.341 . S
N45 N44 1.365 . S
N45 H65 0.862 . S
C46 C41 1.501 . S
C46 H47 0.961 . S
C46 H48 0.961 . S
C46 H49 0.960 . S
H47 C46 0.961 . S
H48 C46 0.961 . S
H49 C46 0.960 . S
C50 N51 1.342 . S
C50 C54 1.401 . S
C50 C55 1.499 . S
N51 Co34 1.989 . S
N51 C50 1.342 . S
N51 N52 1.388 . S
N52 Co35 1.993 . S
N52 N51 1.388 . S
N52 C53 1.346 . S
C53 N52 1.346 . S
C53 C54 1.396 . S
C53 C63 1.510 . S
C54 C50 1.401 . S
C54 C53 1.396 . S
C55 C50 1.499 . S
C55 H56 0.959 . S
C55 H57 0.960 . S
C55 H58 0.961 . S
H56 C55 0.959 . S
H57 C55 0.960 . S
H58 C55 0.961 . S
O59 Co34 1.967 . S
O59 C67 1.258 . S
O60 Co35 1.941 . S
O60 C67 1.266 . S
H61 C63 0.959 . S
H62 C63 0.961 . S
C63 C53 1.510 . S
C63 H61 0.959 . S
C63 H62 0.961 . S
C63 H64 0.960 . S
H64 C63 0.960 . S
H65 N45 0.862 . S
O66 Co34 1.920 . S
O66 C39 1.289 . S
C67 O59 1.258 . S
C67 O60 1.266 . S
Co68 O71 1.970 . S
Co68 N85 1.989 . S
Co68 O93 1.967 . S
Co68 O100 1.920 . S
Co69 O72 1.966 . S
Co69 N78 2.022 . S
Co69 N86 1.993 . S
Co69 O94 1.941 . S
C70 O71 1.258 . S
C70 O72 1.263 . S
O71 Co68 1.970 . S
O71 C70 1.258 . S
O72 Co69 1.966 . S
O72 C70 1.263 . S
C73 O74 1.235 . S
C73 O100 1.289 . S
O74 C73 1.235 . S
C75 C77 1.400 . S
C75 N78 1.351 . S
C75 C80 1.501 . S
C76 C77 1.387 . S
C76 N79 1.341 . S
C77 C75 1.400 . S
C77 C76 1.387 . S
N78 Co69 2.022 . S
N78 C75 1.351 . S
N78 N79 1.365 . S
N79 C76 1.341 . S
N79 N78 1.365 . S
N79 H99 0.862 . S
C80 C75 1.501 . S
C80 H81 0.961 . S
C80 H82 0.961 . S
C80 H83 0.960 . S
H81 C80 0.961 . S
H82 C80 0.961 . S
H83 C80 0.960 . S
C84 N85 1.342 . S
C84 C88 1.401 . S
C84 C89 1.499 . S
N85 Co68 1.989 . S
N85 C84 1.342 . S
N85 N86 1.388 . S
N86 Co69 1.993 . S
N86 N85 1.388 . S
N86 C87 1.346 . S
C87 N86 1.346 . S
C87 C88 1.396 . S
C87 C97 1.510 . S
C88 C84 1.401 . S
C88 C87 1.396 . S
C89 C84 1.499 . S
C89 H90 0.959 . S
C89 H91 0.960 . S
C89 H92 0.961 . S
H90 C89 0.959 . S
H91 C89 0.960 . S
H92 C89 0.961 . S
O93 Co68 1.967 . S
O93 C101 1.258 . S
O94 Co69 1.941 . S
O94 C101 1.266 . S
H95 C97 0.959 . S
H96 C97 0.961 . S
C97 C87 1.510 . S
C97 H95 0.959 . S
C97 H96 0.961 . S
C97 H98 0.960 . S
H98 C97 0.960 . S
H99 N79 0.862 . S
O100 Co68 1.920 . S
O100 C73 1.289 . S
C101 O93 1.258 . S
C101 O94 1.266 . S
Co102 O105 1.970 . S
Co102 N119 1.989 . S
Co102 O127 1.967 . S
Co102 O134 1.920 . S
Co103 O106 1.966 . S
Co103 N112 2.022 . S
Co103 N120 1.993 . S
Co103 O128 1.941 . S
C104 O105 1.258 . S
C104 O106 1.263 . S
O105 Co102 1.970 . S
O105 C104 1.258 . S
O106 Co103 1.966 . S
O106 C104 1.263 . S
C107 O108 1.235 . S
C107 O134 1.289 . S
O108 C107 1.235 . S
C109 C111 1.400 . S
C109 N112 1.351 . S
C109 C114 1.501 . S
C110 C111 1.387 . S
C110 N113 1.341 . S
C111 C109 1.400 . S
C111 C110 1.387 . S
N112 Co103 2.022 . S
N112 C109 1.351 . S
N112 N113 1.365 . S
N113 C110 1.341 . S
N113 N112 1.365 . S
N113 H133 0.862 . S
C114 C109 1.501 . S
C114 H115 0.961 . S
C114 H116 0.961 . S
C114 H117 0.960 . S
H115 C114 0.961 . S
H116 C114 0.961 . S
H117 C114 0.960 . S
C118 N119 1.342 . S
C118 C122 1.401 . S
C118 C123 1.499 . S
N119 Co102 1.989 . S
N119 C118 1.342 . S
N119 N120 1.388 . S
N120 Co103 1.993 . S
N120 N119 1.388 . S
N120 C121 1.346 . S
C121 N120 1.346 . S
C121 C122 1.396 . S
C121 C131 1.510 . S
C122 C118 1.401 . S
C122 C121 1.396 . S
C123 C118 1.499 . S
C123 H124 0.959 . S
C123 H125 0.960 . S
C123 H126 0.961 . S
H124 C123 0.959 . S
H125 C123 0.960 . S
H126 C123 0.961 . S
O127 Co102 1.967 . S
O127 C135 1.258 . S
O128 Co103 1.941 . S
O128 C135 1.266 . S
H129 C131 0.959 . S
H130 C131 0.961 . S
C131 C121 1.510 . S
C131 H129 0.959 . S
C131 H130 0.961 . S
C131 H132 0.960 . S
H132 C131 0.960 . S
H133 N113 0.862 . S
O134 Co102 1.920 . S
O134 C107 1.289 . S
C135 O127 1.258 . S
C135 O128 1.266 . S
Co136 O139 1.970 . S
Co136 N153 1.989 . S
Co136 O161 1.967 . S
Co136 O168 1.920 . S
Co137 O140 1.966 . S
Co137 N146 2.022 . S
Co137 N154 1.993 . S
Co137 O162 1.941 . S
C138 O139 1.258 . S
C138 O140 1.263 . S
O139 Co136 1.970 . S
O139 C138 1.258 . S
O140 Co137 1.966 . S
O140 C138 1.263 . S
C141 O142 1.235 . S
C141 O168 1.289 . S
O142 C141 1.235 . S
C143 C145 1.400 . S
C143 N146 1.351 . S
C143 C148 1.501 . S
C144 C145 1.387 . S
C144 N147 1.341 . S
C145 C143 1.400 . S
C145 C144 1.387 . S
N146 Co137 2.022 . S
N146 C143 1.351 . S
N146 N147 1.365 . S
N147 C144 1.341 . S
N147 N146 1.365 . S
N147 H167 0.862 . S
C148 C143 1.501 . S
C148 H149 0.961 . S
C148 H150 0.961 . S
C148 H151 0.960 . S
H149 C148 0.961 . S
H150 C148 0.961 . S
H151 C148 0.960 . S
C152 N153 1.342 . S
C152 C156 1.401 . S
C152 C157 1.499 . S
N153 Co136 1.989 . S
N153 C152 1.342 . S
N153 N154 1.388 . S
N154 Co137 1.993 . S
N154 N153 1.388 . S
N154 C155 1.346 . S
C155 N154 1.346 . S
C155 C156 1.396 . S
C155 C165 1.510 . S
C156 C152 1.401 . S
C156 C155 1.396 . S
C157 C152 1.499 . S
C157 H158 0.959 . S
C157 H159 0.960 . S
C157 H160 0.961 . S
H158 C157 0.959 . S
H159 C157 0.960 . S
H160 C157 0.961 . S
O161 Co136 1.967 . S
O161 C169 1.258 . S
O162 Co137 1.941 . S
O162 C169 1.266 . S
H163 C165 0.959 . S
H164 C165 0.961 . S
C165 C155 1.510 . S
C165 H163 0.959 . S
C165 H164 0.961 . S
C165 H166 0.960 . S
H166 C165 0.960 . S
H167 N147 0.862 . S
O168 Co136 1.920 . S
O168 C141 1.289 . S
C169 O161 1.258 . S
C169 O162 1.266 . S
Co170 O173 1.970 . S
Co170 N187 1.989 . S
Co170 O195 1.967 . S
Co170 O202 1.920 . S
Co171 O174 1.966 . S
Co171 N180 2.022 . S
Co171 N188 1.993 . S
Co171 O196 1.941 . S
C172 O173 1.258 . S
C172 O174 1.263 . S
O173 Co170 1.970 . S
O173 C172 1.258 . S
O174 Co171 1.966 . S
O174 C172 1.263 . S
C175 O176 1.235 . S
C175 O202 1.289 . S
O176 C175 1.235 . S
C177 C179 1.400 . S
C177 N180 1.351 . S
C177 C182 1.501 . S
C178 C179 1.387 . S
C178 N181 1.341 . S
C179 C177 1.400 . S
C179 C178 1.387 . S
N180 Co171 2.022 . S
N180 C177 1.351 . S
N180 N181 1.365 . S
N181 C178 1.341 . S
N181 N180 1.365 . S
N181 H201 0.862 . S
C182 C177 1.501 . S
C182 H183 0.961 . S
C182 H184 0.961 . S
C182 H185 0.960 . S
H183 C182 0.961 . S
H184 C182 0.961 . S
H185 C182 0.960 . S
C186 N187 1.342 . S
C186 C190 1.401 . S
C186 C191 1.499 . S
N187 Co170 1.989 . S
N187 C186 1.342 . S
N187 N188 1.388 . S
N188 Co171 1.993 . S
N188 N187 1.388 . S
N188 C189 1.346 . S
C189 N188 1.346 . S
C189 C190 1.396 . S
C189 C199 1.510 . S
C190 C186 1.401 . S
C190 C189 1.396 . S
C191 C186 1.499 . S
C191 H192 0.959 . S
C191 H193 0.960 . S
C191 H194 0.961 . S
H192 C191 0.959 . S
H193 C191 0.960 . S
H194 C191 0.961 . S
O195 Co170 1.967 . S
O195 C203 1.258 . S
O196 Co171 1.941 . S
O196 C203 1.266 . S
H197 C199 0.959 . S
H198 C199 0.961 . S
C199 C189 1.510 . S
C199 H197 0.959 . S
C199 H198 0.961 . S
C199 H200 0.960 . S
H200 C199 0.960 . S
H201 N181 0.862 . S
O202 Co170 1.920 . S
O202 C175 1.289 . S
C203 O195 1.258 . S
C203 O196 1.266 . S
Co204 O207 1.970 . S
Co204 N221 1.989 . S
Co204 O229 1.967 . S
Co204 O236 1.920 . S
Co205 O208 1.966 . S
Co205 N214 2.022 . S
Co205 N222 1.993 . S
Co205 O230 1.941 . S
C206 O207 1.258 . S
C206 O208 1.263 . S
O207 Co204 1.970 . S
O207 C206 1.258 . S
O208 Co205 1.966 . S
O208 C206 1.263 . S
C209 O210 1.235 . S
C209 O236 1.289 . S
O210 C209 1.235 . S
C211 C213 1.400 . S
C211 N214 1.351 . S
C211 C216 1.501 . S
C212 C213 1.387 . S
C212 N215 1.341 . S
C213 C211 1.400 . S
C213 C212 1.387 . S
N214 Co205 2.022 . S
N214 C211 1.351 . S
N214 N215 1.365 . S
N215 C212 1.341 . S
N215 N214 1.365 . S
N215 H235 0.862 . S
C216 C211 1.501 . S
C216 H217 0.961 . S
C216 H218 0.961 . S
C216 H219 0.960 . S
H217 C216 0.961 . S
H218 C216 0.961 . S
H219 C216 0.960 . S
C220 N221 1.342 . S
C220 C224 1.401 . S
C220 C225 1.499 . S
N221 Co204 1.989 . S
N221 C220 1.342 . S
N221 N222 1.388 . S
N222 Co205 1.993 . S
N222 N221 1.388 . S
N222 C223 1.346 . S
C223 N222 1.346 . S
C223 C224 1.396 . S
C223 C233 1.510 . S
C224 C220 1.401 . S
C224 C223 1.396 . S
C225 C220 1.499 . S
C225 H226 0.959 . S
C225 H227 0.960 . S
C225 H228 0.961 . S
H226 C225 0.959 . S
H227 C225 0.960 . S
H228 C225 0.961 . S
O229 Co204 1.967 . S
O229 C237 1.258 . S
O230 Co205 1.941 . S
O230 C237 1.266 . S
H231 C233 0.959 . S
H232 C233 0.961 . S
C233 C223 1.510 . S
C233 H231 0.959 . S
C233 H232 0.961 . S
C233 H234 0.960 . S
H234 C233 0.960 . S
H235 N215 0.862 . S
O236 Co204 1.920 . S
O236 C209 1.289 . S
C237 O229 1.258 . S
C237 O230 1.266 . S
Co238 O241 1.970 . S
Co238 N255 1.989 . S
Co238 O263 1.967 . S
Co238 O270 1.920 . S
Co239 O242 1.966 . S
Co239 N248 2.022 . S
Co239 N256 1.993 . S
Co239 O264 1.941 . S
C240 O241 1.258 . S
C240 O242 1.263 . S
O241 Co238 1.970 . S
O241 C240 1.258 . S
O242 Co239 1.966 . S
O242 C240 1.263 . S
C243 O244 1.235 . S
C243 O270 1.289 . S
O244 C243 1.235 . S
C245 C247 1.400 . S
C245 N248 1.351 . S
C245 C250 1.501 . S
C246 C247 1.387 . S
C246 N249 1.341 . S
C247 C245 1.400 . S
C247 C246 1.387 . S
N248 Co239 2.022 . S
N248 C245 1.351 . S
N248 N249 1.365 . S
N249 C246 1.341 . S
N249 N248 1.365 . S
N249 H269 0.862 . S
C250 C245 1.501 . S
C250 H251 0.961 . S
C250 H252 0.961 . S
C250 H253 0.960 . S
H251 C250 0.961 . S
H252 C250 0.961 . S
H253 C250 0.960 . S
C254 N255 1.342 . S
C254 C258 1.401 . S
C254 C259 1.499 . S
N255 Co238 1.989 . S
N255 C254 1.342 . S
N255 N256 1.388 . S
N256 Co239 1.993 . S
N256 N255 1.388 . S
N256 C257 1.346 . S
C257 N256 1.346 . S
C257 C258 1.396 . S
C257 C267 1.510 . S
C258 C254 1.401 . S
C258 C257 1.396 . S
C259 C254 1.499 . S
C259 H260 0.959 . S
C259 H261 0.960 . S
C259 H262 0.961 . S
H260 C259 0.959 . S
H261 C259 0.960 . S
H262 C259 0.961 . S
O263 Co238 1.967 . S
O263 C271 1.258 . S
O264 Co239 1.941 . S
O264 C271 1.266 . S
H265 C267 0.959 . S
H266 C267 0.961 . S
C267 C257 1.510 . S
C267 H265 0.959 . S
C267 H266 0.961 . S
C267 H268 0.960 . S
H268 C267 0.960 . S
H269 N249 0.862 . S
O270 Co238 1.920 . S
O270 C243 1.289 . S
C271 O263 1.258 . S
C271 O264 1.266 . S
Co272 O275 1.970 . S
Co272 N289 1.989 . S
Co272 O297 1.967 . S
Co272 O304 1.920 . S
Co273 O276 1.966 . S
Co273 N282 2.022 . S
Co273 N290 1.993 . S
Co273 O298 1.941 . S
C274 O275 1.258 . S
C274 O276 1.263 . S
O275 Co272 1.970 . S
O275 C274 1.258 . S
O276 Co273 1.966 . S
O276 C274 1.263 . S
C277 O278 1.235 . S
C277 O304 1.289 . S
O278 C277 1.235 . S
C279 C281 1.400 . S
C279 N282 1.351 . S
C279 C284 1.501 . S
C280 C281 1.387 . S
C280 N283 1.341 . S
C281 C279 1.400 . S
C281 C280 1.387 . S
N282 Co273 2.022 . S
N282 C279 1.351 . S
N282 N283 1.365 . S
N283 C280 1.341 . S
N283 N282 1.365 . S
N283 H303 0.862 . S
C284 C279 1.501 . S
C284 H285 0.961 . S
C284 H286 0.961 . S
C284 H287 0.960 . S
H285 C284 0.961 . S
H286 C284 0.961 . S
H287 C284 0.960 . S
C288 N289 1.342 . S
C288 C292 1.401 . S
C288 C293 1.499 . S
N289 Co272 1.989 . S
N289 C288 1.342 . S
N289 N290 1.388 . S
N290 Co273 1.993 . S
N290 N289 1.388 . S
N290 C291 1.346 . S
C291 N290 1.346 . S
C291 C292 1.396 . S
C291 C301 1.510 . S
C292 C288 1.401 . S
C292 C291 1.396 . S
C293 C288 1.499 . S
C293 H294 0.959 . S
C293 H295 0.960 . S
C293 H296 0.961 . S
H294 C293 0.959 . S
H295 C293 0.960 . S
H296 C293 0.961 . S
O297 Co272 1.967 . S
O297 C305 1.258 . S
O298 Co273 1.941 . S
O298 C305 1.266 . S
H299 C301 0.959 . S
H300 C301 0.961 . S
C301 C291 1.510 . S
C301 H299 0.959 . S
C301 H300 0.961 . S
C301 H302 0.960 . S
H302 C301 0.960 . S
H303 N283 0.862 . S
O304 Co272 1.920 . S
O304 C277 1.289 . S
C305 O297 1.258 . S
C305 O298 1.266 . S
Co306 O309 1.970 . S
Co306 N323 1.989 . S
Co306 O331 1.967 . S
Co306 O338 1.920 . S
Co307 O310 1.966 . S
Co307 N316 2.022 . S
Co307 N324 1.993 . S
Co307 O332 1.941 . S
C308 O309 1.258 . S
C308 O310 1.263 . S
O309 Co306 1.970 . S
O309 C308 1.258 . S
O310 Co307 1.966 . S
O310 C308 1.263 . S
C311 O312 1.235 . S
C311 O338 1.289 . S
O312 C311 1.235 . S
C313 C315 1.400 . S
C313 N316 1.351 . S
C313 C318 1.501 . S
C314 C315 1.387 . S
C314 N317 1.341 . S
C315 C313 1.400 . S
C315 C314 1.387 . S
N316 Co307 2.022 . S
N316 C313 1.351 . S
N316 N317 1.365 . S
N317 C314 1.341 . S
N317 N316 1.365 . S
N317 H337 0.862 . S
C318 C313 1.501 . S
C318 H319 0.961 . S
C318 H320 0.961 . S
C318 H321 0.960 . S
H319 C318 0.961 . S
H320 C318 0.961 . S
H321 C318 0.960 . S
C322 N323 1.342 . S
C322 C326 1.401 . S
C322 C327 1.499 . S
N323 Co306 1.989 . S
N323 C322 1.342 . S
N323 N324 1.388 . S
N324 Co307 1.993 . S
N324 N323 1.388 . S
N324 C325 1.346 . S
C325 N324 1.346 . S
C325 C326 1.396 . S
C325 C335 1.510 . S
C326 C322 1.401 . S
C326 C325 1.396 . S
C327 C322 1.499 . S
C327 H328 0.959 . S
C327 H329 0.960 . S
C327 H330 0.961 . S
H328 C327 0.959 . S
H329 C327 0.960 . S
H330 C327 0.961 . S
O331 Co306 1.967 . S
O331 C339 1.258 . S
O332 Co307 1.941 . S
O332 C339 1.266 . S
H333 C335 0.959 . S
H334 C335 0.961 . S
C335 C325 1.510 . S
C335 H333 0.959 . S
C335 H334 0.961 . S
C335 H336 0.960 . S
H336 C335 0.960 . S
H337 N317 0.862 . S
O338 Co306 1.920 . S
O338 C311 1.289 . S
C339 O331 1.258 . S
C339 O332 1.266 . S
Co340 O343 1.970 . S
Co340 N357 1.989 . S
Co340 O365 1.967 . S
Co340 O372 1.920 . S
Co341 O344 1.966 . S
Co341 N350 2.022 . S
Co341 N358 1.993 . S
Co341 O366 1.941 . S
C342 O343 1.258 . S
C342 O344 1.263 . S
O343 Co340 1.970 . S
O343 C342 1.258 . S
O344 Co341 1.966 . S
O344 C342 1.263 . S
C345 O346 1.235 . S
C345 O372 1.289 . S
O346 C345 1.235 . S
C347 C349 1.400 . S
C347 N350 1.351 . S
C347 C352 1.501 . S
C348 C349 1.387 . S
C348 N351 1.341 . S
C349 C347 1.400 . S
C349 C348 1.387 . S
N350 Co341 2.022 . S
N350 C347 1.351 . S
N350 N351 1.365 . S
N351 C348 1.341 . S
N351 N350 1.365 . S
N351 H371 0.862 . S
C352 C347 1.501 . S
C352 H353 0.961 . S
C352 H354 0.961 . S
C352 H355 0.960 . S
H353 C352 0.961 . S
H354 C352 0.961 . S
H355 C352 0.960 . S
C356 N357 1.342 . S
C356 C360 1.401 . S
C356 C361 1.499 . S
N357 Co340 1.989 . S
N357 C356 1.342 . S
N357 N358 1.388 . S
N358 Co341 1.993 . S
N358 N357 1.388 . S
N358 C359 1.346 . S
C359 N358 1.346 . S
C359 C360 1.396 . S
C359 C369 1.510 . S
C360 C356 1.401 . S
C360 C359 1.396 . S
C361 C356 1.499 . S
C361 H362 0.959 . S
C361 H363 0.960 . S
C361 H364 0.961 . S
H362 C361 0.959 . S
H363 C361 0.960 . S
H364 C361 0.961 . S
O365 Co340 1.967 . S
O365 C373 1.258 . S
O366 Co341 1.941 . S
O366 C373 1.266 . S
H367 C369 0.959 . S
H368 C369 0.961 . S
C369 C359 1.510 . S
C369 H367 0.959 . S
C369 H368 0.961 . S
C369 H370 0.960 . S
H370 C369 0.960 . S
H371 N351 0.862 . S
O372 Co340 1.920 . S
O372 C345 1.289 . S
C373 O365 1.258 . S
C373 O366 1.266 . S
Co374 O377 1.970 . S
Co374 N391 1.989 . S
Co374 O399 1.967 . S
Co374 O406 1.920 . S
Co375 O378 1.966 . S
Co375 N384 2.022 . S
Co375 N392 1.993 . S
Co375 O400 1.941 . S
C376 O377 1.258 . S
C376 O378 1.263 . S
O377 Co374 1.970 . S
O377 C376 1.258 . S
O378 Co375 1.966 . S
O378 C376 1.263 . S
C379 O380 1.235 . S
C379 O406 1.289 . S
O380 C379 1.235 . S
C381 C383 1.400 . S
C381 N384 1.351 . S
C381 C386 1.501 . S
C382 C383 1.387 . S
C382 N385 1.341 . S
C383 C381 1.400 . S
C383 C382 1.387 . S
N384 Co375 2.022 . S
N384 C381 1.351 . S
N384 N385 1.365 . S
N385 C382 1.341 . S
N385 N384 1.365 . S
N385 H405 0.862 . S
C386 C381 1.501 . S
C386 H387 0.961 . S
C386 H388 0.961 . S
C386 H389 0.960 . S
H387 C386 0.961 . S
H388 C386 0.961 . S
H389 C386 0.960 . S
C390 N391 1.342 . S
C390 C394 1.401 . S
C390 C395 1.499 . S
N391 Co374 1.989 . S
N391 C390 1.342 . S
N391 N392 1.388 . S
N392 Co375 1.993 . S
N392 N391 1.388 . S
N392 C393 1.346 . S
C393 N392 1.346 . S
C393 C394 1.396 . S
C393 C403 1.510 . S
C394 C390 1.401 . S
C394 C393 1.396 . S
C395 C390 1.499 . S
C395 H396 0.959 . S
C395 H397 0.960 . S
C395 H398 0.961 . S
H396 C395 0.959 . S
H397 C395 0.960 . S
H398 C395 0.961 . S
O399 Co374 1.967 . S
O399 C407 1.258 . S
O400 Co375 1.941 . S
O400 C407 1.266 . S
H401 C403 0.959 . S
H402 C403 0.961 . S
C403 C393 1.510 . S
C403 H401 0.959 . S
C403 H402 0.961 . S
C403 H404 0.960 . S
H404 C403 0.960 . S
H405 N385 0.862 . S
O406 Co374 1.920 . S
O406 C379 1.289 . S
C407 O399 1.258 . S
C407 O400 1.266 . S
H408 C416 0.950 . S
H409 C421 0.950 . S
H410 C418 0.950 . S
H411 C420 0.950 . S
H412 C422 0.950 . S
H413 C424 0.950 . S
H414 C426 0.950 . S
H415 C427 0.950 . S
C416 H408 0.950 . S
C416 C417 1.386 . S
C416 C418 1.391 . S
C417 C416 1.386 . S
C417 C421 1.393 . S
C418 H410 0.950 . S
C418 C416 1.391 . S
C418 C419 1.400 . S
C419 C418 1.400 . S
C419 C420 1.398 . S
C419 C425 1.491 . S
C420 H411 0.950 . S
C420 C419 1.398 . S
C420 C421 1.391 . S
C421 H409 0.950 . S
C421 C417 1.393 . S
C421 C420 1.391 . S
C422 H412 0.950 . S
C422 C423 1.386 . S
C422 C424 1.391 . S
C423 C422 1.386 . S
C423 C427 1.393 . S
C424 H413 0.950 . S
C424 C422 1.391 . S
C424 C425 1.400 . S
C425 C419 1.491 . S
C425 C424 1.400 . S
C425 C426 1.398 . S
C426 H414 0.950 . S
C426 C425 1.398 . S
C426 C427 1.391 . S
C427 H415 0.950 . S
C427 C423 1.393 . S
C427 C426 1.391 . S
H428 C436 0.950 . S
H429 C441 0.950 . S
H430 C438 0.950 . S
H431 C440 0.950 . S
H432 C442 0.950 . S
H433 C444 0.950 . S
H434 C446 0.950 . S
H435 C447 0.950 . S
C436 H428 0.950 . S
C436 C437 1.386 . S
C436 C438 1.391 . S
C437 C436 1.386 . S
C437 C441 1.393 . S
C438 H430 0.950 . S
C438 C436 1.391 . S
C438 C439 1.400 . S
C439 C438 1.400 . S
C439 C440 1.398 . S
C439 C445 1.491 1_655 S
C440 H431 0.950 . S
C440 C439 1.398 . S
C440 C441 1.391 . S
C441 H429 0.950 . S
C441 C437 1.393 . S
C441 C440 1.391 . S
C442 H432 0.950 . S
C442 C443 1.386 . S
C442 C444 1.391 . S
C443 C442 1.386 . S
C443 C447 1.393 . S
C444 H433 0.950 . S
C444 C442 1.391 . S
C444 C445 1.400 . S
C445 C439 1.491 1_455 S
C445 C444 1.400 . S
C445 C446 1.398 . S
C446 H434 0.950 . S
C446 C445 1.398 . S
C446 C447 1.391 . S
C447 H435 0.950 . S
C447 C443 1.393 . S
C447 C446 1.391 . S
H448 C456 0.950 . S
H449 C461 0.950 . S
H450 C458 0.950 . S
H451 C460 0.950 . S
H452 C462 0.950 . S
H453 C464 0.950 . S
H454 C466 0.950 . S
H455 C467 0.950 . S
C456 H448 0.950 . S
C456 C457 1.386 . S
C456 C458 1.391 . S
C457 C456 1.386 . S
C457 C461 1.393 . S
C458 H450 0.950 . S
C458 C456 1.391 . S
C458 C459 1.400 . S
C459 C458 1.400 . S
C459 C460 1.398 . S
C459 C465 1.491 1_545 S
C460 H451 0.950 . S
C460 C459 1.398 . S
C460 C461 1.391 . S
C461 H449 0.950 . S
C461 C457 1.393 . S
C461 C460 1.391 . S
C462 H452 0.950 . S
C462 C463 1.386 . S
C462 C464 1.391 . S
C463 C462 1.386 . S
C463 C467 1.393 . S
C464 H453 0.950 . S
C464 C462 1.391 . S
C464 C465 1.400 . S
C465 C459 1.491 1_565 S
C465 C464 1.400 . S
C465 C466 1.398 . S
C466 H454 0.950 . S
C466 C465 1.398 . S
C466 C467 1.391 . S
C467 H455 0.950 . S
C467 C463 1.393 . S
C467 C466 1.391 . S
H468 C476 0.950 . S
H469 C481 0.950 . S
H470 C478 0.950 . S
H471 C480 0.950 . S
H472 C482 0.950 . S
H473 C484 0.950 . S
H474 C486 0.950 . S
H475 C487 0.950 . S
C476 H468 0.950 . S
C476 C477 1.386 . S
C476 C478 1.391 . S
C477 C476 1.386 . S
C477 C481 1.393 . S
C478 H470 0.950 . S
C478 C476 1.391 . S
C478 C479 1.400 . S
C479 C478 1.400 . S
C479 C480 1.398 . S
C479 C485 1.491 . S
C480 H471 0.950 . S
C480 C479 1.398 . S
C480 C481 1.391 . S
C481 H469 0.950 . S
C481 C477 1.393 . S
C481 C480 1.391 . S
C482 H472 0.950 . S
C482 C483 1.386 . S
C482 C484 1.391 . S
C483 C482 1.386 . S
C483 C487 1.393 . S
C484 H473 0.950 . S
C484 C482 1.391 . S
C484 C485 1.400 . S
C485 C479 1.491 . S
C485 C484 1.400 . S
C485 C486 1.398 . S
C486 H474 0.950 . S
C486 C485 1.398 . S
C486 C487 1.391 . S
C487 H475 0.950 . S
C487 C483 1.393 . S
C487 C486 1.391 . S
H488 C496 0.950 . S
H489 C501 0.950 . S
H490 C498 0.950 . S
H491 C500 0.950 . S
H492 C502 0.950 . S
H493 C504 0.950 . S
H494 C506 0.950 . S
H495 C507 0.950 . S
C496 H488 0.950 . S
C496 C497 1.386 . S
C496 C498 1.391 . S
C497 C496 1.386 . S
C497 C501 1.393 . S
C498 H490 0.950 . S
C498 C496 1.391 . S
C498 C499 1.400 . S
C499 C498 1.400 . S
C499 C500 1.398 . S
C499 C505 1.491 1_455 S
C500 H491 0.950 . S
C500 C499 1.398 . S
C500 C501 1.391 . S
C501 H489 0.950 . S
C501 C497 1.393 . S
C501 C500 1.391 . S
C502 H492 0.950 . S
C502 C503 1.386 . S
C502 C504 1.391 . S
C503 C502 1.386 . S
C503 C507 1.393 . S
C504 H493 0.950 . S
C504 C502 1.391 . S
C504 C505 1.400 . S
C505 C499 1.491 1_655 S
C505 C504 1.400 . S
C505 C506 1.398 . S
C506 H494 0.950 . S
C506 C505 1.398 . S
C506 C507 1.391 . S
C507 H495 0.950 . S
C507 C503 1.393 . S
C507 C506 1.391 . S
H508 C516 0.950 . S
H509 C521 0.950 . S
H510 C518 0.950 . S
H511 C520 0.950 . S
H512 C522 0.950 . S
H513 C524 0.950 . S
H514 C526 0.950 . S
H515 C527 0.950 . S
C516 H508 0.950 . S
C516 C517 1.386 . S
C516 C518 1.391 . S
C517 C516 1.386 . S
C517 C521 1.393 . S
C518 H510 0.950 . S
C518 C516 1.391 . S
C518 C519 1.400 . S
C519 C518 1.400 . S
C519 C520 1.398 . S
C519 C525 1.491 1_565 S
C520 H511 0.950 . S
C520 C519 1.398 . S
C520 C521 1.391 . S
C521 H509 0.950 . S
C521 C517 1.393 . S
C521 C520 1.391 . S
C522 H512 0.950 . S
C522 C523 1.386 . S
C522 C524 1.391 . S
C523 C522 1.386 . S
C523 C527 1.393 . S
C524 H513 0.950 . S
C524 C522 1.391 . S
C524 C525 1.400 . S
C525 C519 1.491 1_545 S
C525 C524 1.400 . S
C525 C526 1.398 . S
C526 H514 0.950 . S
C526 C525 1.398 . S
C526 C527 1.391 . S
C527 H515 0.950 . S
C527 C523 1.393 . S
C527 C526 1.391 . S
H528 C536 0.950 . S
H529 C541 0.950 . S
H530 C538 0.950 . S
H531 C540 0.950 . S
H532 C542 0.950 . S
H533 C544 0.950 . S
H534 C546 0.950 . S
H535 C547 0.950 . S
C536 H528 0.950 . S
C536 C537 1.386 . S
C536 C538 1.391 . S
C537 C536 1.386 . S
C537 C541 1.393 . S
C538 H530 0.950 . S
C538 C536 1.391 . S
C538 C539 1.400 . S
C539 C538 1.400 . S
C539 C540 1.398 . S
C539 C545 1.491 1_556 S
C540 H531 0.950 . S
C540 C539 1.398 . S
C540 C541 1.391 . S
C541 H529 0.950 . S
C541 C537 1.393 . S
C541 C540 1.391 . S
C542 H532 0.950 . S
C542 C543 1.386 . S
C542 C544 1.391 . S
C543 C542 1.386 . S
C543 C547 1.393 . S
C544 H533 0.950 . S
C544 C542 1.391 . S
C544 C545 1.400 . S
C545 C539 1.491 1_554 S
C545 C544 1.400 . S
C545 C546 1.398 . S
C546 H534 0.950 . S
C546 C545 1.398 . S
C546 C547 1.391 . S
C547 H535 0.950 . S
C547 C543 1.393 . S
C547 C546 1.391 . S
H548 C556 0.950 . S
H549 C561 0.950 . S
H550 C558 0.950 . S
H551 C560 0.950 . S
H552 C562 0.950 . S
H553 C564 0.950 . S
H554 C566 0.950 . S
H555 C567 0.950 . S
C556 H548 0.950 . S
C556 C557 1.386 . S
C556 C558 1.391 . S
C557 C556 1.386 . S
C557 C561 1.393 . S
C558 H550 0.950 . S
C558 C556 1.391 . S
C558 C559 1.400 . S
C559 C558 1.400 . S
C559 C560 1.398 . S
C559 C565 1.491 . S
C560 H551 0.950 . S
C560 C559 1.398 . S
C560 C561 1.391 . S
C561 H549 0.950 . S
C561 C557 1.393 . S
C561 C560 1.391 . S
C562 H552 0.950 . S
C562 C563 1.386 . S
C562 C564 1.391 . S
C563 C562 1.386 . S
C563 C567 1.393 . S
C564 H553 0.950 . S
C564 C562 1.391 . S
C564 C565 1.400 . S
C565 C559 1.491 . S
C565 C564 1.400 . S
C565 C566 1.398 . S
C566 H554 0.950 . S
C566 C565 1.398 . S
C566 C567 1.391 . S
C567 H555 0.950 . S
C567 C563 1.393 . S
C567 C566 1.391 . S
H568 C576 0.950 . S
H569 C581 0.950 . S
H570 C578 0.950 . S
H571 C580 0.950 . S
H572 C582 0.950 . S
H573 C584 0.950 . S
H574 C586 0.950 . S
H575 C587 0.950 . S
C576 H568 0.950 . S
C576 C577 1.386 . S
C576 C578 1.391 . S
C577 C576 1.386 . S
C577 C581 1.393 . S
C578 H570 0.950 . S
C578 C576 1.391 . S
C578 C579 1.400 . S
C579 C578 1.400 . S
C579 C580 1.398 . S
C579 C585 1.491 1_554 S
C580 H571 0.950 . S
C580 C579 1.398 . S
C580 C581 1.391 . S
C581 H569 0.950 . S
C581 C577 1.393 . S
C581 C580 1.391 . S
C582 H572 0.950 . S
C582 C583 1.386 . S
C582 C584 1.391 . S
C583 C582 1.386 . S
C583 C587 1.393 . S
C584 H573 0.950 . S
C584 C582 1.391 . S
C584 C585 1.400 . S
C585 C579 1.491 1_556 S
C585 C584 1.400 . S
C585 C586 1.398 . S
C586 H574 0.950 . S
C586 C585 1.398 . S
C586 C587 1.391 . S
C587 H575 0.950 . S
C587 C583 1.393 . S
C587 C586 1.391 . S
H588 C596 0.950 . S
H589 C601 0.950 . S
H590 C598 0.950 . S
H591 C600 0.950 . S
H592 C602 0.950 . S
H593 C604 0.950 . S
H594 C606 0.950 . S
H595 C607 0.950 . S
C596 H588 0.950 . S
C596 C597 1.386 . S
C596 C598 1.391 . S
C597 C596 1.386 . S
C597 C601 1.393 . S
C598 H590 0.950 . S
C598 C596 1.391 . S
C598 C599 1.400 . S
C599 C598 1.400 . S
C599 C600 1.398 . S
C599 C605 1.491 . S
C600 H591 0.950 . S
C600 C599 1.398 . S
C600 C601 1.391 . S
C601 H589 0.950 . S
C601 C597 1.393 . S
C601 C600 1.391 . S
C602 H592 0.950 . S
C602 C603 1.386 . S
C602 C604 1.391 . S
C603 C602 1.386 . S
C603 C607 1.393 . S
C604 H593 0.950 . S
C604 C602 1.391 . S
C604 C605 1.400 . S
C605 C599 1.491 . S
C605 C604 1.400 . S
C605 C606 1.398 . S
C606 H594 0.950 . S
C606 C605 1.398 . S
C606 C607 1.391 . S
C607 H595 0.950 . S
C607 C603 1.393 . S
C607 C606 1.391 . S
H608 C616 0.950 . S
H609 C621 0.950 . S
H610 C618 0.950 . S
H611 C620 0.950 . S
H612 C622 0.950 . S
H613 C624 0.950 . S
H614 C626 0.950 . S
H615 C627 0.950 . S
C616 H608 0.950 . S
C616 C617 1.386 . S
C616 C618 1.391 . S
C617 C616 1.386 . S
C617 C621 1.393 . S
C618 H610 0.950 . S
C618 C616 1.391 . S
C618 C619 1.400 . S
C619 C618 1.400 . S
C619 C620 1.398 . S
C619 C625 1.491 1_556 S
C620 H611 0.950 . S
C620 C619 1.398 . S
C620 C621 1.391 . S
C621 H609 0.950 . S
C621 C617 1.393 . S
C621 C620 1.391 . S
C622 H612 0.950 . S
C622 C623 1.386 . S
C622 C624 1.391 . S
C623 C622 1.386 . S
C623 C627 1.393 . S
C624 H613 0.950 . S
C624 C622 1.391 . S
C624 C625 1.400 . S
C625 C619 1.491 1_554 S
C625 C624 1.400 . S
C625 C626 1.398 . S
C626 H614 0.950 . S
C626 C625 1.398 . S
C626 C627 1.391 . S
C627 H615 0.950 . S
C627 C623 1.393 . S
C627 C626 1.391 . S
H628 C636 0.950 . S
H629 C641 0.950 . S
H630 C638 0.950 . S
H631 C640 0.950 . S
H632 C642 0.950 . S
H633 C644 0.950 . S
H634 C646 0.950 . S
H635 C647 0.950 . S
C636 H628 0.950 . S
C636 C637 1.386 . S
C636 C638 1.391 . S
C637 C636 1.386 . S
C637 C641 1.393 . S
C638 H630 0.950 . S
C638 C636 1.391 . S
C638 C639 1.400 . S
C639 C638 1.400 . S
C639 C640 1.398 . S
C639 C645 1.491 . S
C640 H631 0.950 . S
C640 C639 1.398 . S
C640 C641 1.391 . S
C641 H629 0.950 . S
C641 C637 1.393 . S
C641 C640 1.391 . S
C642 H632 0.950 . S
C642 C643 1.386 . S
C642 C644 1.391 . S
C643 C642 1.386 . S
C643 C647 1.393 . S
C644 H633 0.950 . S
C644 C642 1.391 . S
C644 C645 1.400 . S
C645 C639 1.491 . S
C645 C644 1.400 . S
C645 C646 1.398 . S
C646 H634 0.950 . S
C646 C645 1.398 . S
C646 C647 1.391 . S
C647 H635 0.950 . S
C647 C643 1.393 . S
C647 C646 1.391 . S
H648 C656 0.950 . S
H649 C661 0.950 . S
H650 C658 0.950 . S
H651 C660 0.950 . S
H652 C662 0.950 . S
H653 C664 0.950 . S
H654 C666 0.950 . S
H655 C667 0.950 . S
C656 H648 0.950 . S
C656 C657 1.386 . S
C656 C658 1.391 . S
C657 C656 1.386 . S
C657 C661 1.393 . S
C658 H650 0.950 . S
C658 C656 1.391 . S
C658 C659 1.400 . S
C659 C658 1.400 . S
C659 C660 1.398 . S
C659 C665 1.491 1_554 S
C660 H651 0.950 . S
C660 C659 1.398 . S
C660 C661 1.391 . S
C661 H649 0.950 . S
C661 C657 1.393 . S
C661 C660 1.391 . S
C662 H652 0.950 . S
C662 C663 1.386 . S
C662 C664 1.391 . S
C663 C662 1.386 . S
C663 C667 1.393 . S
C664 H653 0.950 . S
C664 C662 1.391 . S
C664 C665 1.400 . S
C665 C659 1.491 1_556 S
C665 C664 1.400 . S
C665 C666 1.398 . S
C666 H654 0.950 . S
C666 C665 1.398 . S
C666 C667 1.391 . S
C667 H655 0.950 . S
C667 C663 1.393 . S
C667 C666 1.391 . S
H668 C676 0.950 . S
H669 C681 0.950 . S
H670 C678 0.950 . S
H671 C680 0.950 . S
H672 C682 0.950 . S
H673 C684 0.950 . S
H674 C686 0.950 . S
H675 C687 0.950 . S
C676 H668 0.950 . S
C676 C677 1.386 . S
C676 C678 1.391 . S
C677 C676 1.386 . S
C677 C681 1.393 . S
C678 H670 0.950 . S
C678 C676 1.391 . S
C678 C679 1.400 . S
C679 C678 1.400 . S
C679 C680 1.398 . S
C679 C685 1.491 . S
C680 H671 0.950 . S
C680 C679 1.398 . S
C680 C681 1.391 . S
C681 H669 0.950 . S
C681 C677 1.393 . S
C681 C680 1.391 . S
C682 H672 0.950 . S
C682 C683 1.386 . S
C682 C684 1.391 . S
C683 C682 1.386 . S
C683 C687 1.393 . S
C684 H673 0.950 . S
C684 C682 1.391 . S
C684 C685 1.400 . S
C685 C679 1.491 . S
C685 C684 1.400 . S
C685 C686 1.398 . S
C686 H674 0.950 . S
C686 C685 1.398 . S
C686 C687 1.391 . S
C687 H675 0.950 . S
C687 C683 1.393 . S
C687 C686 1.391 . S
H688 C696 0.950 . S
H689 C701 0.950 . S
H690 C698 0.950 . S
H691 C700 0.950 . S
H692 C702 0.950 . S
H693 C704 0.950 . S
H694 C706 0.950 . S
H695 C707 0.950 . S
C696 H688 0.950 . S
C696 C697 1.386 . S
C696 C698 1.391 . S
C697 C696 1.386 . S
C697 C701 1.393 . S
C698 H690 0.950 . S
C698 C696 1.391 . S
C698 C699 1.400 . S
C699 C698 1.400 . S
C699 C700 1.398 . S
C699 C705 1.491 1_556 S
C700 H691 0.950 . S
C700 C699 1.398 . S
C700 C701 1.391 . S
C701 H689 0.950 . S
C701 C697 1.393 . S
C701 C700 1.391 . S
C702 H692 0.950 . S
C702 C703 1.386 . S
C702 C704 1.391 . S
C703 C702 1.386 . S
C703 C707 1.393 . S
C704 H693 0.950 . S
C704 C702 1.391 . S
C704 C705 1.400 . S
C705 C699 1.491 1_554 S
C705 C704 1.400 . S
C705 C706 1.398 . S
C706 H694 0.950 . S
C706 C705 1.398 . S
C706 C707 1.391 . S
C707 H695 0.950 . S
C707 C703 1.393 . S
C707 C706 1.391 . S
H708 C716 0.950 . S
H709 C721 0.950 . S
H710 C718 0.950 . S
H711 C720 0.950 . S
H712 C722 0.950 . S
H713 C724 0.950 . S
H714 C726 0.950 . S
H715 C727 0.950 . S
C716 H708 0.950 . S
C716 C717 1.386 . S
C716 C718 1.391 . S
C717 C716 1.386 . S
C717 C721 1.393 . S
C718 H710 0.950 . S
C718 C716 1.391 . S
C718 C719 1.400 . S
C719 C718 1.400 . S
C719 C720 1.398 . S
C719 C725 1.491 . S
C720 H711 0.950 . S
C720 C719 1.398 . S
C720 C721 1.391 . S
C721 H709 0.950 . S
C721 C717 1.393 . S
C721 C720 1.391 . S
C722 H712 0.950 . S
C722 C723 1.386 . S
C722 C724 1.391 . S
C723 C722 1.386 . S
C723 C727 1.393 . S
C724 H713 0.950 . S
C724 C722 1.391 . S
C724 C725 1.400 . S
C725 C719 1.491 . S
C725 C724 1.400 . S
C725 C726 1.398 . S
C726 H714 0.950 . S
C726 C725 1.398 . S
C726 C727 1.391 . S
C727 H715 0.950 . S
C727 C723 1.393 . S
C727 C726 1.391 . S
H728 C736 0.950 . S
H729 C741 0.950 . S
H730 C738 0.950 . S
H731 C740 0.950 . S
H732 C742 0.950 . S
H733 C744 0.950 . S
H734 C746 0.950 . S
H735 C747 0.950 . S
C736 H728 0.950 . S
C736 C737 1.386 . S
C736 C738 1.391 . S
C737 C736 1.386 . S
C737 C741 1.393 . S
C738 H730 0.950 . S
C738 C736 1.391 . S
C738 C739 1.400 . S
C739 C738 1.400 . S
C739 C740 1.398 . S
C739 C745 1.491 1_556 S
C740 H731 0.950 . S
C740 C739 1.398 . S
C740 C741 1.391 . S
C741 H729 0.950 . S
C741 C737 1.393 . S
C741 C740 1.391 . S
C742 H732 0.950 . S
C742 C743 1.386 . S
C742 C744 1.391 . S
C743 C742 1.386 . S
C743 C747 1.393 . S
C744 H733 0.950 . S
C744 C742 1.391 . S
C744 C745 1.400 . S
C745 C739 1.491 1_554 S
C745 C744 1.400 . S
C745 C746 1.398 . S
C746 H734 0.950 . S
C746 C745 1.398 . S
C746 C747 1.391 . S
C747 H735 0.950 . S
C747 C743 1.393 . S
C747 C746 1.391 . S
H748 C756 0.950 . S
H749 C761 0.950 . S
H750 C758 0.950 . S
H751 C760 0.950 . S
H752 C762 0.950 . S
H753 C764 0.950 . S
H754 C766 0.950 . S
H755 C767 0.950 . S
C756 H748 0.950 . S
C756 C757 1.386 . S
C756 C758 1.391 . S
C757 C756 1.386 . S
C757 C761 1.393 . S
C758 H750 0.950 . S
C758 C756 1.391 . S
C758 C759 1.400 . S
C759 C758 1.400 . S
C759 C760 1.398 . S
C759 C765 1.491 . S
C760 H751 0.950 . S
C760 C759 1.398 . S
C760 C761 1.391 . S
C761 H749 0.950 . S
C761 C757 1.393 . S
C761 C760 1.391 . S
C762 H752 0.950 . S
C762 C763 1.386 . S
C762 C764 1.391 . S
C763 C762 1.386 . S
C763 C767 1.393 . S
C764 H753 0.950 . S
C764 C762 1.391 . S
C764 C765 1.400 . S
C765 C759 1.491 . S
C765 C764 1.400 . S
C765 C766 1.398 . S
C766 H754 0.950 . S
C766 C765 1.398 . S
C766 C767 1.391 . S
C767 H755 0.950 . S
C767 C763 1.393 . S
C767 C766 1.391 . S
H768 C776 0.950 . S
H769 C781 0.950 . S
H770 C778 0.950 . S
H771 C780 0.950 . S
H772 C782 0.950 . S
H773 C784 0.950 . S
H774 C786 0.950 . S
H775 C787 0.950 . S
C776 H768 0.950 . S
C776 C777 1.386 . S
C776 C778 1.391 . S
C777 C776 1.386 . S
C777 C781 1.393 . S
C778 H770 0.950 . S
C778 C776 1.391 . S
C778 C779 1.400 . S
C779 C778 1.400 . S
C779 C780 1.398 . S
C779 C785 1.491 . S
C780 H771 0.950 . S
C780 C779 1.398 . S
C780 C781 1.391 . S
C781 H769 0.950 . S
C781 C777 1.393 . S
C781 C780 1.391 . S
C782 H772 0.950 . S
C782 C783 1.386 . S
C782 C784 1.391 . S
C783 C782 1.386 . S
C783 C787 1.393 . S
C784 H773 0.950 . S
C784 C782 1.391 . S
C784 C785 1.400 . S
C785 C779 1.491 . S
C785 C784 1.400 . S
C785 C786 1.398 . S
C786 H774 0.950 . S
C786 C785 1.398 . S
C786 C787 1.391 . S
C787 H775 0.950 . S
C787 C783 1.393 . S
C787 C786 1.391 . S
H788 C796 0.950 . S
H789 C801 0.950 . S
H790 C798 0.950 . S
H791 C800 0.950 . S
H792 C802 0.950 . S
H793 C804 0.950 . S
H794 C806 0.950 . S
H795 C807 0.950 . S
C796 H788 0.950 . S
C796 C797 1.386 . S
C796 C798 1.391 . S
C797 C796 1.386 . S
C797 C801 1.393 . S
C798 H790 0.950 . S
C798 C796 1.391 . S
C798 C799 1.400 . S
C799 C798 1.400 . S
C799 C800 1.398 . S
C799 C805 1.491 . S
C800 H791 0.950 . S
C800 C799 1.398 . S
C800 C801 1.391 . S
C801 H789 0.950 . S
C801 C797 1.393 . S
C801 C800 1.391 . S
C802 H792 0.950 . S
C802 C803 1.386 . S
C802 C804 1.391 . S
C803 C802 1.386 . S
C803 C807 1.393 . S
C804 H793 0.950 . S
C804 C802 1.391 . S
C804 C805 1.400 . S
C805 C799 1.491 . S
C805 C804 1.400 . S
C805 C806 1.398 . S
C806 H794 0.950 . S
C806 C805 1.398 . S
C806 C807 1.391 . S
C807 H795 0.950 . S
C807 C803 1.393 . S
C807 C806 1.391 . S
H808 C816 0.950 . S
H809 C821 0.950 . S
H810 C818 0.950 . S
H811 C820 0.950 . S
H812 C822 0.950 . S
H813 C824 0.950 . S
H814 C826 0.950 . S
H815 C827 0.950 . S
C816 H808 0.950 . S
C816 C817 1.386 . S
C816 C818 1.391 . S
C817 C816 1.386 . S
C817 C821 1.393 . S
C818 H810 0.950 . S
C818 C816 1.391 . S
C818 C819 1.400 . S
C819 C818 1.400 . S
C819 C820 1.398 . S
C819 C825 1.491 . S
C820 H811 0.950 . S
C820 C819 1.398 . S
C820 C821 1.391 . S
C821 H809 0.950 . S
C821 C817 1.393 . S
C821 C820 1.391 . S
C822 H812 0.950 . S
C822 C823 1.386 . S
C822 C824 1.391 . S
C823 C822 1.386 . S
C823 C827 1.393 . S
C824 H813 0.950 . S
C824 C822 1.391 . S
C824 C825 1.400 . S
C825 C819 1.491 . S
C825 C824 1.400 . S
C825 C826 1.398 . S
C826 H814 0.950 . S
C826 C825 1.398 . S
C826 C827 1.391 . S
C827 H815 0.950 . S
C827 C823 1.393 . S
C827 C826 1.391 . S
H828 C836 0.950 . S
H829 C841 0.950 . S
H830 C838 0.950 . S
H831 C840 0.950 . S
H832 C842 0.950 . S
H833 C844 0.950 . S
H834 C846 0.950 . S
H835 C847 0.950 . S
C836 H828 0.950 . S
C836 C837 1.386 . S
C836 C838 1.391 . S
C837 C836 1.386 . S
C837 C841 1.393 . S
C838 H830 0.950 . S
C838 C836 1.391 . S
C838 C839 1.400 . S
C839 C838 1.400 . S
C839 C840 1.398 . S
C839 C845 1.491 . S
C840 H831 0.950 . S
C840 C839 1.398 . S
C840 C841 1.391 . S
C841 H829 0.950 . S
C841 C837 1.393 . S
C841 C840 1.391 . S
C842 H832 0.950 . S
C842 C843 1.386 . S
C842 C844 1.391 . S
C843 C842 1.386 . S
C843 C847 1.393 . S
C844 H833 0.950 . S
C844 C842 1.391 . S
C844 C845 1.400 . S
C845 C839 1.491 . S
C845 C844 1.400 . S
C845 C846 1.398 . S
C846 H834 0.950 . S
C846 C845 1.398 . S
C846 C847 1.391 . S
C847 H835 0.950 . S
C847 C843 1.393 . S
C847 C846 1.391 . S
H848 C856 0.950 . S
H849 C861 0.950 . S
H850 C858 0.950 . S
H851 C860 0.950 . S
H852 C862 0.950 . S
H853 C864 0.950 . S
H854 C866 0.950 . S
H855 C867 0.950 . S
C856 H848 0.950 . S
C856 C857 1.386 . S
C856 C858 1.391 . S
C857 C856 1.386 . S
C857 C861 1.393 . S
C858 H850 0.950 . S
C858 C856 1.391 . S
C858 C859 1.400 . S
C859 C858 1.400 . S
C859 C860 1.398 . S
C859 C865 1.491 . S
C860 H851 0.950 . S
C860 C859 1.398 . S
C860 C861 1.391 . S
C861 H849 0.950 . S
C861 C857 1.393 . S
C861 C860 1.391 . S
C862 H852 0.950 . S
C862 C863 1.386 . S
C862 C864 1.391 . S
C863 C862 1.386 . S
C863 C867 1.393 . S
C864 H853 0.950 . S
C864 C862 1.391 . S
C864 C865 1.400 . S
C865 C859 1.491 . S
C865 C864 1.400 . S
C865 C866 1.398 . S
C866 H854 0.950 . S
C866 C865 1.398 . S
C866 C867 1.391 . S
C867 H855 0.950 . S
C867 C863 1.393 . S
C867 C866 1.391 . S
H868 C876 0.950 . S
H869 C881 0.950 . S
H870 C878 0.950 . S
H871 C880 0.950 . S
H872 C882 0.950 . S
H873 C884 0.950 . S
H874 C886 0.950 . S
H875 C887 0.950 . S
C876 H868 0.950 . S
C876 C877 1.386 . S
C876 C878 1.391 . S
C877 C876 1.386 . S
C877 C881 1.393 . S
C878 H870 0.950 . S
C878 C876 1.391 . S
C878 C879 1.400 . S
C879 C878 1.400 . S
C879 C880 1.398 . S
C879 C885 1.491 . S
C880 H871 0.950 . S
C880 C879 1.398 . S
C880 C881 1.391 . S
C881 H869 0.950 . S
C881 C877 1.393 . S
C881 C880 1.391 . S
C882 H872 0.950 . S
C882 C883 1.386 . S
C882 C884 1.391 . S
C883 C882 1.386 . S
C883 C887 1.393 . S
C884 H873 0.950 . S
C884 C882 1.391 . S
C884 C885 1.400 . S
C885 C879 1.491 . S
C885 C884 1.400 . S
C885 C886 1.398 . S
C886 H874 0.950 . S
C886 C885 1.398 . S
C886 C887 1.391 . S
C887 H875 0.950 . S
C887 C883 1.393 . S
C887 C886 1.391 . S
H888 C896 0.950 . S
H889 C901 0.950 . S
H890 C898 0.950 . S
H891 C900 0.950 . S
H892 C902 0.950 . S
H893 C904 0.950 . S
H894 C906 0.950 . S
H895 C907 0.950 . S
C896 H888 0.950 . S
C896 C897 1.386 . S
C896 C898 1.391 . S
C897 C896 1.386 . S
C897 C901 1.393 . S
C898 H890 0.950 . S
C898 C896 1.391 . S
C898 C899 1.400 . S
C899 C898 1.400 . S
C899 C900 1.398 . S
C899 C905 1.491 . S
C900 H891 0.950 . S
C900 C899 1.398 . S
C900 C901 1.391 . S
C901 H889 0.950 . S
C901 C897 1.393 . S
C901 C900 1.391 . S
C902 H892 0.950 . S
C902 C903 1.386 . S
C902 C904 1.391 . S
C903 C902 1.386 . S
C903 C907 1.393 . S
C904 H893 0.950 . S
C904 C902 1.391 . S
C904 C905 1.400 . S
C905 C899 1.491 . S
C905 C904 1.400 . S
C905 C906 1.398 . S
C906 H894 0.950 . S
C906 C905 1.398 . S
C906 C907 1.391 . S
C907 H895 0.950 . S
C907 C903 1.393 . S
C907 C906 1.391 . S
H908 C916 0.950 . S
H909 C921 0.950 . S
H910 C918 0.950 . S
H911 C920 0.950 . S
H912 C922 0.950 . S
H913 C924 0.950 . S
H914 C926 0.950 . S
H915 C927 0.950 . S
C916 H908 0.950 . S
C916 C917 1.386 . S
C916 C918 1.391 . S
C917 C916 1.386 . S
C917 C921 1.393 . S
C918 H910 0.950 . S
C918 C916 1.391 . S
C918 C919 1.400 . S
C919 C918 1.400 . S
C919 C920 1.398 . S
C919 C925 1.491 . S
C920 H911 0.950 . S
C920 C919 1.398 . S
C920 C921 1.391 . S
C921 H909 0.950 . S
C921 C917 1.393 . S
C921 C920 1.391 . S
C922 H912 0.950 . S
C922 C923 1.386 . S
C922 C924 1.391 . S
C923 C922 1.386 . S
C923 C927 1.393 . S
C924 H913 0.950 . S
C924 C922 1.391 . S
C924 C925 1.400 . S
C925 C919 1.491 . S
C925 C924 1.400 . S
C925 C926 1.398 . S
C926 H914 0.950 . S
C926 C925 1.398 . S
C926 C927 1.391 . S
C927 H915 0.950 . S
C927 C923 1.393 . S
C927 C926 1.391 . S
H928 C936 0.950 . S
H929 C941 0.950 . S
H930 C938 0.950 . S
H931 C940 0.950 . S
H932 C942 0.950 . S
H933 C944 0.950 . S
H934 C946 0.950 . S
H935 C947 0.950 . S
C936 H928 0.950 . S
C936 C937 1.386 . S
C936 C938 1.391 . S
C937 C936 1.386 . S
C937 C941 1.393 . S
C938 H930 0.950 . S
C938 C936 1.391 . S
C938 C939 1.400 . S
C939 C938 1.400 . S
C939 C940 1.398 . S
C939 C945 1.491 . S
C940 H931 0.950 . S
C940 C939 1.398 . S
C940 C941 1.391 . S
C941 H929 0.950 . S
C941 C937 1.393 . S
C941 C940 1.391 . S
C942 H932 0.950 . S
C942 C943 1.386 . S
C942 C944 1.391 . S
C943 C942 1.386 . S
C943 C947 1.393 . S
C944 H933 0.950 . S
C944 C942 1.391 . S
C944 C945 1.400 . S
C945 C939 1.491 . S
C945 C944 1.400 . S
C945 C946 1.398 . S
C946 H934 0.950 . S
C946 C945 1.398 . S
C946 C947 1.391 . S
C947 H935 0.950 . S
C947 C943 1.393 . S
C947 C946 1.391 . S
H948 C956 0.950 . S
H949 C961 0.950 . S
H950 C958 0.950 . S
H951 C960 0.950 . S
H952 C962 0.950 . S
H953 C964 0.950 . S
H954 C966 0.950 . S
H955 C967 0.950 . S
C956 H948 0.950 . S
C956 C957 1.386 . S
C956 C958 1.391 . S
C957 C956 1.386 . S
C957 C961 1.393 . S
C958 H950 0.950 . S
C958 C956 1.391 . S
C958 C959 1.400 . S
C959 C958 1.400 . S
C959 C960 1.398 . S
C959 C965 1.491 . S
C960 H951 0.950 . S
C960 C959 1.398 . S
C960 C961 1.391 . S
C961 H949 0.950 . S
C961 C957 1.393 . S
C961 C960 1.391 . S
C962 H952 0.950 . S
C962 C963 1.386 . S
C962 C964 1.391 . S
C963 C962 1.386 . S
C963 C967 1.393 . S
C964 H953 0.950 . S
C964 C962 1.391 . S
C964 C965 1.400 . S
C965 C959 1.491 . S
C965 C964 1.400 . S
C965 C966 1.398 . S
C966 H954 0.950 . S
C966 C965 1.398 . S
C966 C967 1.391 . S
C967 H955 0.950 . S
C967 C963 1.393 . S
C967 C966 1.391 . S
H968 C976 0.950 . S
H969 C981 0.950 . S
H970 C978 0.950 . S
H971 C980 0.950 . S
H972 C982 0.950 . S
H973 C984 0.950 . S
H974 C986 0.950 . S
H975 C987 0.950 . S
C976 H968 0.950 . S
C976 C977 1.386 . S
C976 C978 1.391 . S
C977 C976 1.386 . S
C977 C981 1.393 . S
C978 H970 0.950 . S
C978 C976 1.391 . S
C978 C979 1.400 . S
C979 C978 1.400 . S
C979 C980 1.398 . S
C979 C985 1.491 . S
C980 H971 0.950 . S
C980 C979 1.398 . S
C980 C981 1.391 . S
C981 H969 0.950 . S
C981 C977 1.393 . S
C981 C980 1.391 . S
C982 H972 0.950 . S
C982 C983 1.386 . S
C982 C984 1.391 . S
C983 C982 1.386 . S
C983 C987 1.393 . S
C984 H973 0.950 . S
C984 C982 1.391 . S
C984 C985 1.400 . S
C985 C979 1.491 . S
C985 C984 1.400 . S
C985 C986 1.398 . S
C986 H974 0.950 . S
C986 C985 1.398 . S
C986 C987 1.391 . S
C987 H975 0.950 . S
C987 C983 1.393 . S
C987 C986 1.391 . S
H988 C996 0.950 . S
H989 C1001 0.950 . S
H990 C998 0.950 . S
H991 C1000 0.950 . S
H992 C1002 0.950 . S
H993 C1004 0.950 . S
H994 C1006 0.950 . S
H995 C1007 0.950 . S
C996 H988 0.950 . S
C996 C997 1.386 . S
C996 C998 1.391 . S
C997 C996 1.386 . S
C997 C1001 1.393 . S
C998 H990 0.950 . S
C998 C996 1.391 . S
C998 C999 1.400 . S
C999 C998 1.400 . S
C999 C1000 1.398 . S
C999 C1005 1.491 . S
C1000 H991 0.950 . S
C1000 C999 1.398 . S
C1000 C1001 1.391 . S
C1001 H989 0.950 . S
C1001 C997 1.393 . S
C1001 C1000 1.391 . S
C1002 H992 0.950 . S
C1002 C1003 1.386 . S
C1002 C1004 1.391 . S
C1003 C1002 1.386 . S
C1003 C1007 1.393 . S
C1004 H993 0.950 . S
C1004 C1002 1.391 . S
C1004 C1005 1.400 . S
C1005 C999 1.491 . S
C1005 C1004 1.400 . S
C1005 C1006 1.398 . S
C1006 H994 0.950 . S
C1006 C1005 1.398 . S
C1006 C1007 1.391 . S
C1007 H995 0.950 . S
C1007 C1003 1.393 . S
C1007 C1006 1.391 . S
C417 C315 1.659 . S
C423 C9 1.629 . S
C437 C43 1.661 . S
C443 C349 1.630 . S
C457 C383 1.642 . S
C463 C77 1.637 . S
C477 C111 1.641 . S
C483 C213 1.658 . S
C497 C145 1.628 . S
C503 C247 1.657 . S
C517 C281 1.640 . S
C523 C179 1.638 . S
C537 C342 1.376 . S
C543 C2 1.363 . S
C557 C376 1.363 . S
C563 C36 1.376 . S
C577 C70 1.370 . S
C583 C206 1.367 . S
C597 C240 1.363 . S
C603 C104 1.377 . S
C617 C274 1.364 . S
C623 C138 1.374 . S
C637 C172 1.373 . S
C643 C308 1.369 . S
C657 C258 1.511 . S
C663 C122 1.499 . S
C677 C292 1.511 . S
C683 C156 1.501 . S
C697 C190 1.502 . S
C703 C326 1.507 . S
C717 C20 1.499 . S
C723 C360 1.511 . S
C737 C54 1.511 . S
C743 C394 1.499 . S
C757 C224 1.511 . S
C763 C88 1.501 . S
C777 C5 1.457 . S
C783 C169 1.469 . S
C797 C39 1.451 . S
C803 C203 1.467 . S
C817 C73 1.462 . S
C823 C33 1.472 . S
C837 C67 1.468 . S
C843 C107 1.456 . S
C857 C141 1.452 . S
C863 C101 1.467 . S
C877 C135 1.468 . S
C883 C175 1.447 . S
C897 C305 1.477 . S
C903 C209 1.463 . S
C917 C339 1.468 . S
C923 C243 1.456 . S
C937 C373 1.467 . S
C943 C277 1.452 . S
C957 C311 1.457 . S
C963 C407 1.475 . S
C977 C237 1.476 . S
C983 C345 1.460 . S
C997 C379 1.451 . S
C1003 C271 1.471 . S
