# Generated by pormake.
# Topology vmx, (8)-cn, num edge types: 1
# Building blocks:
#     Node 0, Type 0, BuildingBlock: TAGTUT_clean_sbu_3, # of connection points: 8
#     Node 1, Type 0, BuildingBlock: TAGTUT_clean_sbu_3, # of connection points: 8
#     Node 2, Type 0, BuildingBlock: TAGTUT_clean_sbu_3, # of connection points: 8
#     Node 3, Type 0, BuildingBlock: TAGTUT_clean_sbu_3, # of connection points: 8
#     Node 4, Type 0, BuildingBlock: TAGTUT_clean_sbu_3, # of connection points: 8
#     Node 5, Type 0, BuildingBlock: TAGTUT_clean_sbu_3, # of connection points: 8
#     Node 6, Type 0, BuildingBlock: TAGTUT_clean_sbu_3, # of connection points: 8
#     Node 7, Type 0, BuildingBlock: TAGTUT_clean_sbu_3, # of connection points: 8
#     Edge 8, Type (0, 0), BuildingBlock: ZUJKAS_clean_linker_0, # of connection points: 2
#     Edge 9, Type (0, 0), BuildingBlock: ZUJKAS_clean_linker_0, # of connection points: 2
#     Edge 10, Type (0, 0), BuildingBlock: ZUJKAS_clean_linker_0, # of connection points: 2
#     Edge 11, Type (0, 0), BuildingBlock: ZUJKAS_clean_linker_0, # of connection points: 2
#     Edge 12, Type (0, 0), BuildingBlock: ZUJKAS_clean_linker_0, # of connection points: 2
#     Edge 13, Type (0, 0), BuildingBlock: ZUJKAS_clean_linker_0, # of connection points: 2
#     Edge 14, Type (0, 0), BuildingBlock: ZUJKAS_clean_linker_0, # of connection points: 2
#     Edge 15, Type (0, 0), BuildingBlock: ZUJKAS_clean_linker_0, # of connection points: 2
#     Edge 16, Type (0, 0), BuildingBlock: ZUJKAS_clean_linker_0, # of connection points: 2
#     Edge 17, Type (0, 0), BuildingBlock: ZUJKAS_clean_linker_0, # of connection points: 2
#     Edge 18, Type (0, 0), BuildingBlock: ZUJKAS_clean_linker_0, # of connection points: 2
#     Edge 19, Type (0, 0), BuildingBlock: ZUJKAS_clean_linker_0, # of connection points: 2
#     Edge 20, Type (0, 0), BuildingBlock: ZUJKAS_clean_linker_0, # of connection points: 2
#     Edge 21, Type (0, 0), BuildingBlock: ZUJKAS_clean_linker_0, # of connection points: 2
#     Edge 22, Type (0, 0), BuildingBlock: ZUJKAS_clean_linker_0, # of connection points: 2
#     Edge 23, Type (0, 0), BuildingBlock: ZUJKAS_clean_linker_0, # of connection points: 2
#     Edge 24, Type (0, 0), BuildingBlock: ZUJKAS_clean_linker_0, # of connection points: 2
#     Edge 25, Type (0, 0), BuildingBlock: ZUJKAS_clean_linker_0, # of connection points: 2
#     Edge 26, Type (0, 0), BuildingBlock: ZUJKAS_clean_linker_0, # of connection points: 2
#     Edge 27, Type (0, 0), BuildingBlock: ZUJKAS_clean_linker_0, # of connection points: 2
#     Edge 28, Type (0, 0), BuildingBlock: ZUJKAS_clean_linker_0, # of connection points: 2
#     Edge 29, Type (0, 0), BuildingBlock: ZUJKAS_clean_linker_0, # of connection points: 2
#     Edge 30, Type (0, 0), BuildingBlock: ZUJKAS_clean_linker_0, # of connection points: 2
#     Edge 31, Type (0, 0), BuildingBlock: ZUJKAS_clean_linker_0, # of connection points: 2
#     Edge 32, Type (0, 0), BuildingBlock: ZUJKAS_clean_linker_0, # of connection points: 2
#     Edge 33, Type (0, 0), BuildingBlock: ZUJKAS_clean_linker_0, # of connection points: 2
#     Edge 34, Type (0, 0), BuildingBlock: ZUJKAS_clean_linker_0, # of connection points: 2
#     Edge 35, Type (0, 0), BuildingBlock: ZUJKAS_clean_linker_0, # of connection points: 2
#     Edge 36, Type (0, 0), BuildingBlock: ZUJKAS_clean_linker_0, # of connection points: 2
#     Edge 37, Type (0, 0), BuildingBlock: ZUJKAS_clean_linker_0, # of connection points: 2
#     Edge 38, Type (0, 0), BuildingBlock: ZUJKAS_clean_linker_0, # of connection points: 2
#     Edge 39, Type (0, 0), BuildingBlock: ZUJKAS_clean_linker_0, # of connection points: 2
# Relax obj value: 0.255
# Max RMSD: 0.282
# Mean RMSD: 0.282
data_MOF--net-vmx--node1-TAGTUT_clean_sbu_3--edge1-ZUJKAS_clean_linker_0
_symmetry_space_group_name_H-M    P1
_symmetry_Int_Tables_number       1
_symmetry_cell_setting            triclinic
loop_
_symmetry_equiv_pos_as_xyz
'x, y, z'
_cell_length_a     38.10697
_cell_length_b     75.193583
_cell_length_c     22.421334
_cell_angle_alpha  90.067658
_cell_angle_beta   105.90404
_cell_angle_gamma 89.985903
loop_
_atom_site_label
_atom_site_type_symbol
_atom_site_fract_x
_atom_site_fract_y
_atom_site_fract_z
_atom_type_partial_charge
C0 C 0.32611 0.3908 0.47581 0.0
C1 C 0.31277 0.35051 0.28272 0.0
C2 C 0.20841 0.37552 0.2146 0.0
Mg3 Mg 0.26725 0.40799 0.53364 0.0
Mg4 Mg 0.18153 0.39546 0.51191 0.0
O5 O 0.21995 0.39916 0.47766 0.0
Mg6 Mg 0.23977 0.38257 0.42454 0.0
O7 O 0.26405 0.3685 0.37161 0.0
Mg8 Mg 0.28224 0.38863 0.32925 0.0
Mg9 Mg 0.24025 0.35018 0.32036 0.0
C10 C 0.14971 0.37776 0.37865 0.0
O11 O 0.23289 0.35587 0.4726 0.0
O12 O 0.23514 0.42843 0.57259 0.0
O13 O 0.2214 0.33691 0.3908 0.0
O14 O 0.26272 0.38844 0.61205 0.0
O15 O 0.17525 0.42202 0.54659 0.0
O16 O 0.20515 0.37844 0.58765 0.0
O17 O 0.24786 0.40737 0.37234 0.0
O18 O 0.26702 0.42634 0.45151 0.0
C19 C 0.25812 0.42293 0.39315 0.0
C20 C 0.20229 0.43214 0.57191 0.0
O21 O 0.18061 0.37742 0.36575 0.0
O22 O 0.31429 0.36741 0.29147 0.0
O23 O 0.14564 0.38354 0.43029 0.0
O24 O 0.2354 0.38565 0.23956 0.0
O25 O 0.28731 0.34083 0.29292 0.0
O26 O 0.20219 0.36144 0.2415 0.0
O27 O 0.29581 0.38764 0.48777 0.0
O28 O 0.32835 0.39118 0.41987 0.0
C29 C 0.23771 0.37856 0.62292 0.0
C30 C 0.22336 0.34053 0.44761 0.0
C31 C 0.64611 0.38001 0.97698 0.0
C32 C 0.64542 0.33907 0.16458 0.0
C33 C 0.75733 0.35401 0.23284 0.0
Mg34 Mg 0.71049 0.39051 0.91933 0.0
Mg35 Mg 0.78656 0.36783 0.93409 0.0
O36 O 0.7533 0.37715 0.97282 0.0
Mg37 Mg 0.72731 0.36344 0.02433 0.0
O38 O 0.69829 0.35214 0.07573 0.0
Mg39 Mg 0.68918 0.37368 0.12239 0.0
Mg40 Mg 0.71572 0.33206 0.12339 0.0
C41 C 0.81143 0.34784 0.06417 0.0
O42 O 0.72276 0.3368 0.97112 0.0
O43 O 0.75124 0.40653 0.88353 0.0
O44 O 0.72741 0.31702 0.04913 0.0
O45 O 0.70448 0.37097 0.83614 0.0
O46 O 0.80575 0.39278 0.90444 0.0
O47 O 0.75439 0.35393 0.85595 0.0
O48 O 0.72979 0.38871 0.08098 0.0
O49 O 0.71924 0.40874 0.0045 0.0
C50 C 0.72604 0.40487 0.06227 0.0
C51 C 0.78476 0.406 0.88329 0.0
O52 O 0.78335 0.35268 0.08157 0.0
O53 O 0.6498 0.35583 0.15783 0.0
O54 O 0.81597 0.35161 0.01093 0.0
O55 O 0.73433 0.36628 0.21022 0.0
O56 O 0.66692 0.32732 0.15244 0.0
O57 O 0.75843 0.3397 0.20292 0.0
O58 O 0.67411 0.37383 0.96311 0.0
O59 O 0.6447 0.38063 0.0334 0.0
C60 C 0.72299 0.35823 0.82175 0.0
C61 C 0.72615 0.32086 0.99278 0.0
C62 C 0.6613 0.6092 0.53405 0.0
C63 C 0.67932 0.65327 0.71917 0.0
C64 C 0.7713 0.61999 0.80468 0.0
Mg65 Mg 0.71788 0.58482 0.49284 0.0
Mg66 Mg 0.80734 0.59018 0.52861 0.0
O67 O 0.76554 0.59 0.55583 0.0
Mg68 Mg 0.74827 0.60988 0.60053 0.0
O69 O 0.72579 0.62786 0.64391 0.0
Mg70 Mg 0.69753 0.61128 0.68354 0.0
Mg71 Mg 0.75395 0.64509 0.69504 0.0
C72 C 0.83781 0.60727 0.66302 0.0
O73 O 0.76822 0.63355 0.55192 0.0
O74 O 0.74548 0.56051 0.46373 0.0
O75 O 0.78202 0.65393 0.62923 0.0
O76 O 0.73433 0.60201 0.4183 0.0
O77 O 0.8065 0.56323 0.49325 0.0
O78 O 0.79391 0.60814 0.45314 0.0
O79 O 0.72769 0.58788 0.65184 0.0
O80 O 0.70638 0.5691 0.57283 0.0
C81 C 0.71357 0.57288 0.6308 0.0
C82 C 0.77746 0.55436 0.46823 0.0
O83 O 0.80599 0.61108 0.66882 0.0
O84 O 0.67171 0.63661 0.71201 0.0
O85 O 0.84313 0.59992 0.61445 0.0
O86 O 0.74139 0.61208 0.77797 0.0
O87 O 0.70909 0.65987 0.71273 0.0
O88 O 0.78385 0.63248 0.77816 0.0
O89 O 0.69392 0.6087 0.52936 0.0
O90 O 0.65506 0.6107 0.58718 0.0
C91 C 0.76314 0.60993 0.41301 0.0
C92 C 0.78208 0.64851 0.57492 0.0
C93 C 0.36892 0.62619 0.97625 0.0
C94 C 0.35695 0.66776 0.78516 0.0
C95 C 0.25555 0.64071 0.71049 0.0
Mg96 Mg 0.30862 0.60762 0.02611 0.0
Mg97 Mg 0.22316 0.62039 0.00149 0.0
O98 O 0.26143 0.61576 0.96732 0.0
Mg99 Mg 0.28215 0.63292 0.91735 0.0
O100 O 0.30752 0.64795 0.86896 0.0
Mg101 Mg 0.3288 0.62854 0.828 0.0
Mg102 Mg 0.2829 0.66609 0.8178 0.0
C103 C 0.19263 0.63755 0.86718 0.0
O104 O 0.27214 0.65872 0.96626 0.0
O105 O 0.27564 0.58671 0.0608 0.0
O106 O 0.2612 0.67842 0.88699 0.0
O107 O 0.3021 0.62687 0.104 0.0
O108 O 0.21631 0.59395 0.03656 0.0
O109 O 0.24546 0.63783 0.07641 0.0
O110 O 0.29373 0.60867 0.8655 0.0
O111 O 0.31135 0.58962 0.94451 0.0
C112 C 0.30397 0.59311 0.88634 0.0
C113 C 0.24263 0.58319 0.05991 0.0
O114 O 0.22342 0.63737 0.85388 0.0
O115 O 0.36014 0.65088 0.79415 0.0
O116 O 0.18833 0.63243 0.91932 0.0
O117 O 0.28345 0.63121 0.73617 0.0
O118 O 0.33 0.67672 0.79343 0.0
O119 O 0.24709 0.65431 0.73752 0.0
O120 O 0.3373 0.62858 0.98392 0.0
O121 O 0.37357 0.62614 0.92175 0.0
C122 C 0.27744 0.63724 0.11338 0.0
C123 C 0.2622 0.67415 0.9429 0.0
C124 C 0.85946 0.86098 0.45422 0.0
C125 C 0.84105 0.81703 0.26872 0.0
C126 C 0.74598 0.84862 0.18776 0.0
Mg127 Mg 0.80554 0.88623 0.49666 0.0
Mg128 Mg 0.71626 0.8822 0.46966 0.0
O129 O 0.75648 0.88036 0.43856 0.0
Mg130 Mg 0.77148 0.86002 0.39222 0.0
O131 O 0.79315 0.84186 0.34692 0.0
Mg132 Mg 0.82055 0.85849 0.3055 0.0
Mg133 Mg 0.76698 0.82363 0.29806 0.0
C134 C 0.68074 0.8639 0.338 0.0
O135 O 0.7533 0.8363 0.44301 0.0
O136 O 0.78078 0.91149 0.52432 0.0
O137 O 0.74124 0.81512 0.36788 0.0
O138 O 0.79135 0.87025 0.57627 0.0
O139 O 0.71967 0.90997 0.49923 0.0
O140 O 0.73111 0.86516 0.5473 0.0
O141 O 0.79077 0.8815 0.33819 0.0
O142 O 0.81468 0.90115 0.41285 0.0
C143 C 0.80575 0.89653 0.35559 0.0
C144 C 0.74965 0.91847 0.52055 0.0
O145 O 0.71127 0.85917 0.32819 0.0
O146 O 0.84681 0.83382 0.27535 0.0
O147 O 0.67822 0.8719 0.38727 0.0
O148 O 0.77533 0.8571 0.21344 0.0
O149 O 0.81275 0.80958 0.27818 0.0
O150 O 0.7351 0.83566 0.21467 0.0
O151 O 0.82718 0.86146 0.46043 0.0
O152 O 0.86479 0.85955 0.40039 0.0
C153 C 0.76263 0.86302 0.58489 0.0
C154 C 0.74085 0.82093 0.42168 0.0
C155 C 0.14326 0.87556 0.02667 0.0
C156 C 0.15861 0.82824 0.20113 0.0
C157 C 0.24341 0.86339 0.30338 0.0
Mg158 Mg 0.19667 0.90504 0.00212 0.0
Mg159 Mg 0.28686 0.90545 0.0495 0.0
O160 O 0.24338 0.90067 0.06866 0.0
Mg161 Mg 0.22859 0.87845 0.10521 0.0
O162 O 0.20708 0.85783 0.13996 0.0
Mg163 Mg 0.17295 0.87164 0.17715 0.0
Mg164 Mg 0.23433 0.83995 0.18915 0.0
C165 C 0.31661 0.88489 0.17853 0.0
O166 O 0.25758 0.85801 0.05766 0.0
O167 O 0.21962 0.93207 0.98513 0.0
O168 O 0.26891 0.83567 0.12844 0.0
O169 O 0.22089 0.89191 0.92821 0.0
O170 O 0.28013 0.93357 0.02699 0.0
O171 O 0.28155 0.89053 0.96703 0.0
O172 O 0.19998 0.89723 0.15574 0.0
O173 O 0.1775 0.91719 0.0815 0.0
C174 C 0.18286 0.91175 0.13748 0.0
C175 C 0.24963 0.94078 -0.0013 0.0
O176 O 0.28514 0.87883 0.17985 0.0
O177 O 0.14981 0.84475 0.19695 0.0
O178 O 0.32163 0.89444 0.13408 0.0
O179 O 0.21346 0.87093 0.27463 0.0
O180 O 0.18947 0.82268 0.19588 0.0
O181 O 0.25828 0.85155 0.27772 0.0
O182 O 0.17644 0.87836 0.02733 0.0
O183 O 0.13466 0.87229 0.07703 0.0
C184 C 0.25253 0.88725 0.92412 0.0
C185 C 0.27318 0.8433 0.0796 0.0
C186 C 0.18908 0.09537 0.63938 0.0
C187 C 0.25057 0.0665 0.4953 0.0
C188 C 0.24545 0.11907 0.41111 0.0
Mg189 Mg 0.17483 0.13483 0.67569 0.0
Mg190 Mg 0.22859 0.16922 0.67635 0.0
O191 O 0.20426 0.14971 0.63252 0.0
Mg192 Mg 0.2271 0.12986 0.59604 0.0
O193 O 0.24291 0.10788 0.55905 0.0
Mg194 Mg 0.19516 0.1013 0.49884 0.0
Mg195 Mg 0.28541 0.10285 0.53722 0.0
C196 C 0.26147 0.16719 0.55929 0.0
O197 O 0.28586 0.13143 0.66484 0.0
O198 O 0.14788 0.16063 0.69538 0.0
O199 O 0.32115 0.11529 0.6178 0.0
O200 O 0.21799 0.13799 0.76927 0.0
O201 O 0.18139 0.18445 0.68505 0.0
O202 O 0.25726 0.1598 0.76612 0.0
O203 O 0.17276 0.12759 0.52332 0.0
O204 O 0.13334 0.13197 0.57913 0.0
C205 C 0.14 0.12892 0.52701 0.0
C206 C 0.15297 0.17749 0.69567 0.0
O207 O 0.24895 0.15156 0.5413 0.0
O208 O 0.21982 0.07451 0.48336 0.0
O209 O 0.25824 0.1747 0.60908 0.0
O210 O 0.2146 0.11441 0.419 0.0
O211 O 0.28087 0.07443 0.51942 0.0
O212 O 0.27567 0.11632 0.45179 0.0
O213 O 0.20484 0.11041 0.65338 0.0
O214 O 0.18148 0.08933 0.58379 0.0
C215 C 0.24626 0.14726 0.79468 0.0
C216 C 0.31703 0.12542 0.66156 0.0
C217 C 0.85194 0.11644 0.95897 0.0
C218 C 0.83681 0.16106 0.77605 0.0
C219 C 0.74821 0.12653 0.68401 0.0
Mg220 Mg 0.79731 0.08933 0.99213 0.0
Mg221 Mg 0.70706 0.08976 0.94702 0.0
O222 O 0.75033 0.09323 0.92578 0.0
Mg223 Mg 0.7658 0.11437 0.88462 0.0
O224 O 0.78802 0.1338 0.84557 0.0
Mg225 Mg 0.82005 0.1185 0.80845 0.0
Mg226 Mg 0.76146 0.15152 0.79487 0.0
C227 C 0.67715 0.10845 0.81458 0.0
O228 O 0.73857 0.13622 0.93007 0.0
O229 O 0.7733 0.06343 0.01618 0.0
O230 O 0.72858 0.1578 0.85658 0.0
O231 O 0.77473 0.10453 0.06411 0.0
O232 O 0.71268 0.06205 0.97605 0.0
O233 O 0.71404 0.10632 0.02612 0.0
O234 O 0.79216 0.09393 0.83594 0.0
O235 O 0.81455 0.07513 0.91424 0.0
C236 C 0.80862 0.07943 0.85696 0.0
C237 C 0.74306 0.05499 0.00578 0.0
O238 O 0.70873 0.11391 0.81161 0.0
O239 O 0.84455 0.14445 0.78309 0.0
O240 O 0.67209 0.09978 0.86088 0.0
O241 O 0.77802 0.11873 0.71198 0.0
O242 O 0.80662 0.16743 0.78166 0.0
O243 O 0.73487 0.13899 0.70954 0.0
O244 O 0.81882 0.11476 0.96056 0.0
O245 O 0.85978 0.11845 0.90727 0.0
C246 C 0.74344 0.10991 0.06779 0.0
C247 C 0.72411 0.15099 0.90654 0.0
H248 H 0.29325 0.55887 0.11742 0.0
H249 H 0.28352 0.52999 0.15752 0.0
H250 H 0.1672 0.53859 0.10181 0.0
H251 H 0.17665 0.56808 0.06108 0.0
H252 H 0.19475 0.52544 0.22359 0.0
H253 H 0.24506 0.48504 0.05858 0.0
H254 H 0.27655 0.5025 0.09106 0.0
H255 H 0.23147 0.508 0.04384 0.0
C256 C 0.26544 0.55474 0.11311 0.0
C257 C 0.23566 0.56581 0.08548 0.0
C258 C 0.25997 0.53809 0.13577 0.0
C259 C 0.22465 0.53198 0.13109 0.0
C260 C 0.19468 0.54303 0.10488 0.0
H261 H 0.22463 0.42261 0.26839 0.0
H262 H 0.21012 0.44826 0.19914 0.0
C263 C 0.20012 0.55985 0.08189 0.0
C264 C 0.2202 0.51437 0.1572 0.0
H265 H 0.25134 0.47178 0.1599 0.0
C266 C 0.20627 0.51357 0.20886 0.0
C267 C 0.23457 0.49883 0.13714 0.0
C268 C 0.24738 0.49858 0.07915 0.0
C269 C 0.20917 0.49797 0.2441 0.0
C270 C 0.22725 0.48302 0.22789 0.0
C271 C 0.23829 0.48338 0.17317 0.0
C272 C 0.23698 0.46737 0.26903 0.0
C273 C 0.19361 0.49781 0.29915 0.0
C274 C 0.25825 0.46952 0.3305 0.0
C275 C 0.26657 0.45493 0.37023 0.0
C276 C 0.2542 0.43785 0.34894 0.0
C277 C 0.23461 0.43559 0.28633 0.0
C278 C 0.22606 0.45024 0.24673 0.0
H279 H 0.17051 0.50731 0.29262 0.0
H280 H 0.18393 0.48434 0.3073 0.0
H281 H 0.21505 0.50199 0.34118 0.0
H282 H 0.2681 0.48254 0.34801 0.0
H283 H 0.282 0.45711 0.41798 0.0
H284 H 0.82968 0.54193 0.4154 0.0
H285 H 0.82592 0.51469 0.35314 0.0
H286 H 0.72698 0.49986 0.39853 0.0
H287 H 0.73012 0.52703 0.45934 0.0
H288 H 0.81823 0.47693 0.37409 0.0
H289 H 0.69648 0.50633 0.20814 0.0
H290 H 0.72702 0.51918 0.26855 0.0
H291 H 0.69306 0.50512 0.28632 0.0
C292 C 0.80761 0.53265 0.41307 0.0
C293 C 0.77982 0.5367 0.4411 0.0
C294 C 0.80547 0.51714 0.37755 0.0
C295 C 0.77572 0.50554 0.37029 0.0
C296 C 0.74971 0.50887 0.40259 0.0
H297 H 0.73402 0.40257 0.18741 0.0
H298 H 0.74774 0.42675 0.26335 0.0
C299 C 0.75157 0.52437 0.43729 0.0
C300 C 0.76967 0.49089 0.3247 0.0
H301 H 0.70917 0.47613 0.19208 0.0
C302 C 0.79453 0.47673 0.33409 0.0
C303 C 0.73901 0.49089 0.27211 0.0
C304 C 0.71253 0.50626 0.25767 0.0
C305 C 0.78902 0.46229 0.29271 0.0
C306 C 0.75749 0.46196 0.24152 0.0
C307 C 0.73309 0.47632 0.23171 0.0
C308 C 0.74953 0.44716 0.19622 0.0
C309 C 0.81725 0.4477 0.30358 0.0
C310 C 0.74467 0.45073 0.13308 0.0
C311 C 0.73615 0.43704 0.08952 0.0
C312 C 0.73244 0.41946 0.10826 0.0
C313 C 0.73686 0.41594 0.1715 0.0
C314 C 0.74509 0.42971 0.21507 0.0
H315 H 0.84396 0.45225 0.33389 0.0
H316 H 0.80789 0.43635 0.32686 0.0
H317 H 0.82128 0.44287 0.2591 0.0
H318 H 0.74773 0.46413 0.11751 0.0
H319 H 0.73314 0.44023 0.04128 0.0
H320 H 0.83154 0.43032 0.95143 0.0
H321 H 0.83293 0.46182 0.92298 0.0
H322 H 0.7667 0.44968 0.73832 0.0
H323 H 0.76546 0.41839 0.76662 0.0
H324 H 0.81803 0.4777 0.74362 0.0
H325 H 0.73381 0.4865 0.90962 0.0
H326 H 0.77892 0.47749 0.93957 0.0
H327 H 0.74468 0.4648 0.88531 0.0
C328 C 0.81906 0.4343 0.90392 0.0
C329 C 0.79869 0.42205 0.86086 0.0
C330 C 0.81937 0.45229 0.88799 0.0
C331 C 0.79921 0.45808 0.82901 0.0
C332 C 0.78233 0.44548 0.78412 0.0
H333 H 0.68532 0.53949 0.60554 0.0
H334 H 0.70815 0.51273 0.66495 0.0
C335 C 0.78187 0.4276 0.80009 0.0
C336 C 0.79071 0.4771 0.81582 0.0
H337 H 0.73572 0.5103 0.84326 0.0
C338 C 0.80071 0.48499 0.76627 0.0
C339 C 0.76779 0.48651 0.84524 0.0
C340 C 0.75537 0.47844 0.89767 0.0
C341 C 0.78717 0.50172 0.74363 0.0
C342 C 0.76274 0.51064 0.77084 0.0
C343 C 0.75434 0.50329 0.82257 0.0
C344 C 0.74356 0.52686 0.74233 0.0
C345 C 0.79796 0.50948 0.68918 0.0
C346 C 0.75411 0.54362 0.76845 0.0
C347 C 0.74094 0.55902 0.73474 0.0
C348 C 0.71728 0.55776 0.67432 0.0
C349 C 0.70384 0.54094 0.65152 0.0
C350 C 0.71698 0.52562 0.68522 0.0
H351 H 0.82275 0.50297 0.6823 0.0
H352 H 0.77531 0.50755 0.64639 0.0
H353 H 0.80311 0.52399 0.69559 0.0
H354 H 0.77436 0.54477 0.81288 0.0
H355 H 0.75174 0.57176 0.75391 0.0
H356 H 0.32463 0.55855 0.91174 0.0
H357 H 0.30397 0.53287 0.84489 0.0
H358 H 0.24989 0.56758 0.69485 0.0
H359 H 0.27027 0.59346 0.76151 0.0
H360 H 0.20425 0.54114 0.72451 0.0
H361 H 0.33201 0.51204 0.6951 0.0
H362 H 0.33457 0.51705 0.77448 0.0
H363 H 0.32902 0.53481 0.71899 0.0
C364 C 0.30916 0.56079 0.86407 0.0
C365 C 0.29893 0.57807 0.84219 0.0
C366 C 0.29742 0.54608 0.82585 0.0
C367 C 0.27545 0.54836 0.76498 0.0
C368 C 0.26685 0.56559 0.74175 0.0
H369 H 0.17003 0.46222 0.5153 0.0
H370 H 0.18182 0.49234 0.55916 0.0
C371 C 0.27875 0.58035 0.77987 0.0
C372 C 0.25884 0.53265 0.72822 0.0
H373 H 0.28031 0.49255 0.67671 0.0
C374 C 0.22073 0.53062 0.71296 0.0
C375 C 0.28046 0.51902 0.71327 0.0
C376 C 0.32126 0.52088 0.72574 0.0
C377 C 0.20389 0.51481 0.68609 0.0
C378 C 0.22579 0.50087 0.67407 0.0
C379 C 0.26367 0.50324 0.68678 0.0
C380 C 0.21068 0.48328 0.65112 0.0
C381 C 0.16315 0.51274 0.6733 0.0
C382 C 0.22173 0.46835 0.68901 0.0
C383 C 0.21503 0.4513 0.66415 0.0
C384 C 0.19695 0.44894 0.60121 0.0
C385 C 0.18316 0.46379 0.56439 0.0
C386 C 0.1901 0.48095 0.58927 0.0
H387 H 0.15056 0.52403 0.69194 0.0
H388 H 0.15062 0.51195 0.62248 0.0
H389 H 0.15665 0.50017 0.69401 0.0
H390 H 0.23776 0.46992 0.73676 0.0
H391 H 0.22649 0.44 0.69289 0.0
H392 H 0.6861 0.03178 0.0012 0.0
H393 H 0.6907 0.00143 0.04358 0.0
H394 H 0.80789 0.00639 0.10436 0.0
H395 H 0.80384 0.03614 0.06208 0.0
H396 H 0.78408 0.97363 0.04815 0.0
H397 H 0.71704 0.99173 0.23188 0.0
H398 H 0.69199 0.9958 0.1526 0.0
H399 H 0.73253 0.00837 0.18702 0.0
C400 C 0.71279 0.02633 0.02334 0.0
C401 C 0.74452 0.03648 0.02873 0.0
C402 C 0.71536 0.00904 0.04755 0.0
C403 C 0.74965 0.00177 0.07743 0.0
C404 C 0.78119 0.01173 0.08132 0.0
H405 H 0.83129 0.93067 0.37331 0.0
H406 H 0.81714 0.95483 0.29791 0.0
C407 C 0.77871 0.02884 0.05735 0.0
C408 C 0.75363 0.98422 0.10809 0.0
H409 H 0.7443 0.96365 0.23828 0.0
C410 C 0.77489 0.97125 0.08915 0.0
C411 C 0.74187 0.98135 0.16183 0.0
C412 C 0.71976 0.99503 0.18506 0.0
C413 C 0.78615 0.95581 0.12425 0.0
C414 C 0.7754 0.95325 0.1791 0.0
C415 C 0.7527 0.9658 0.19636 0.0
C416 C 0.78864 0.93813 0.22126 0.0
C417 C 0.81092 0.94284 0.1042 0.0
C418 C 0.77851 0.92067 0.20236 0.0
C419 C 0.78686 0.90678 0.24522 0.0
C420 C 0.80505 0.91019 0.30787 0.0
C421 C 0.81718 0.92756 0.32557 0.0
C422 C 0.80894 0.94141 0.28263 0.0
H423 H 0.82259 0.94854 0.0681 0.0
H424 H 0.83366 0.93868 0.14439 0.0
H425 H 0.79513 0.93078 0.08468 0.0
H426 H 0.76251 0.91789 0.15536 0.0
H427 H 0.77698 0.89359 0.22995 0.0
H428 H 0.28832 0.04899 0.42595 0.0
H429 H 0.27478 0.01902 0.38182 0.0
H430 H 0.19755 0.01129 0.48882 0.0
H431 H 0.20973 0.04146 0.53035 0.0
H432 H 0.27501 0.98485 0.42179 0.0
H433 H 0.13274 0.00716 0.31452 0.0
H434 H 0.16839 0.02228 0.35332 0.0
H435 H 0.14633 0.0084 0.39758 0.0
C436 C 0.26915 0.04068 0.44097 0.0
C437 C 0.24974 0.04745 0.4808 0.0
C438 C 0.26132 0.02362 0.41573 0.0
C439 C 0.23433 0.01315 0.43069 0.0
C440 C 0.21759 0.01935 0.47517 0.0
H441 H 0.19529 0.9065 0.26277 0.0
H442 H 0.20332 0.92967 0.34201 0.0
C443 C 0.22479 0.03648 0.49924 0.0
C444 C 0.22148 -0.00344 0.39577 0.0
H445 H 0.14649 0.97748 0.2968 0.0
C446 C 0.24688 0.98314 0.39479 0.0
C447 C 0.18476 0.9945 0.36 0.0
C448 C 0.15653 0.0089 0.35578 0.0
C449 C 0.23682 0.96789 0.35784 0.0
C450 C 0.20006 0.96582 0.32228 0.0
C451 C 0.17449 0.97901 0.32472 0.0
C452 C 0.18867 0.9513 0.27624 0.0
C453 C 0.26607 0.95465 0.35475 0.0
C454 C 0.17483 0.95563 0.2133 0.0
C455 C 0.16946 0.94242 0.16802 0.0
C456 C 0.17823 0.92461 0.18482 0.0
C457 C 0.1888 0.92011 0.24819 0.0
C458 C 0.1938 0.93336 0.29358 0.0
H459 H 0.29394 0.96013 0.37443 0.0
H460 H 0.26333 0.94264 0.38182 0.0
H461 H 0.2633 0.95052 0.30611 0.0
H462 H 0.17022 0.96938 0.19886 0.0
H463 H 0.16097 0.9464 0.11977 0.0
H464 H 0.30627 0.96338 -0.00331 0.0
H465 H 0.3012 0.99409 0.95795 0.0
H466 H 0.18411 0.99132 0.92077 0.0
H467 H 0.18881 0.96115 0.95989 0.0
H468 H 0.26641 0.00325 0.84036 0.0
H469 H 0.20368 0.03999 -0.00226 0.0
H470 H 0.22526 0.01859 0.0177 0.0
H471 H 0.17859 0.02002 0.97104 0.0
C472 C 0.27956 0.96947 0.98135 0.0
C473 C 0.24796 0.95976 0.98088 0.0
C474 C 0.27671 0.987 0.95939 0.0
C475 C 0.24231 0.99509 0.93755 0.0
C476 C 0.21098 0.98556 0.93895 0.0
H477 H 0.1599 0.06191 0.6294 0.0
H478 H 0.1733 0.039 0.7095 0.0
C479 C 0.21375 0.96816 0.96059 0.0
C480 C 0.23809 0.01247 0.90554 0.0
H481 H 0.19094 0.05158 0.89221 0.0
C482 C 0.25061 0.01398 0.85251 0.0
C483 C 0.21782 0.02657 0.92175 0.0
C484 C 0.20594 0.02628 0.98061 0.0
C485 C 0.24126 0.02865 0.81292 0.0
C486 C 0.21815 0.04193 0.82612 0.0
C487 C 0.20781 0.0411 0.88142 0.0
C488 C 0.20404 0.05647 0.78184 0.0
C489 C 0.25559 0.0296 0.75654 0.0
C490 C 0.21455 0.07409 0.79747 0.0
C491 C 0.20657 0.08729 0.75194 0.0
C492 C 0.18811 0.08298 0.69011 0.0
C493 C 0.17456 0.06564 0.67628 0.0
C494 C 0.18241 0.0525 0.72188 0.0
H495 H 0.28049 0.02135 0.76236 0.0
H496 H 0.23447 0.0245 0.71559 0.0
H497 H 0.26208 0.04352 0.74686 0.0
H498 H 0.23087 0.07742 0.8438 0.0
H499 H 0.21721 0.10054 0.76435 0.0
H500 H 0.71118 0.93434 0.59322 0.0
H501 H 0.72118 0.96446 0.63742 0.0
H502 H 0.79799 0.97487 0.53149 0.0
H503 H 0.78923 0.94473 0.48978 0.0
H504 H 0.82756 0.98207 0.64806 0.0
H505 H 0.6915 0.01393 0.57729 0.0
H506 H 0.69076 0.9932 0.61644 0.0
H507 H 0.70137 0.99346 0.54297 0.0
C508 C 0.72945 0.94327 0.57845 0.0
C509 C 0.74958 0.93729 0.53852 0.0
C510 C 0.73509 0.96048 0.60344 0.0
C511 C 0.76023 0.972 0.5875 0.0
C512 C 0.7786 0.96625 0.54468 0.0
H513 H 0.78839 0.081 0.72974 0.0
H514 H 0.78083 0.05582 0.65828 0.0
C515 C 0.77353 0.94905 0.52082 0.0
C516 C 0.77056 0.98922 0.62 0.0
H517 H 0.73645 0.028 0.66026 0.0
C518 C 0.80762 0.9922 0.65 0.0
C519 C 0.74474 0.00257 0.62189 0.0
C520 C 0.70494 0.00073 0.58736 0.0
C521 C 0.81943 0.00788 0.68331 0.0
C522 C 0.79336 0.02075 0.68836 0.0
C523 C 0.75644 0.01807 0.6567 0.0
C524 C 0.8033 0.03642 0.72976 0.0
C525 C 0.85975 0.01047 0.71268 0.0
C526 C 0.81957 0.03397 0.79337 0.0
C527 C 0.82434 0.04834 0.83422 0.0
C528 C 0.81229 0.06543 0.81247 0.0
C529 C 0.79801 0.06804 0.74818 0.0
C530 C 0.79341 0.05364 0.70725 0.0
H531 H 0.87624 0.00302 0.6871 0.0
H532 H 0.86746 0.02474 0.7142 0.0
H533 H 0.86691 0.00529 0.76084 0.0
H534 H 0.82681 0.02078 0.81204 0.0
H535 H 0.83537 0.04578 0.88335 0.0
H536 H 0.84873 0.31985 0.03722 0.0
H537 H 0.9096 0.31044 0.09657 0.0
H538 H 0.90335 0.34591 0.2449 0.0
H539 H 0.84194 0.35477 0.18654 0.0
H540 H 0.95772 0.33566 0.10997 0.0
H541 H 0.96948 0.30865 0.34217 0.0
H542 H 0.92696 0.30811 0.28152 0.0
H543 H 0.93969 0.32751 0.33015 0.0
C544 C 0.85983 0.32499 0.08379 0.0
C545 C 0.8413 0.33826 0.1072 0.0
C546 C 0.89448 0.31955 0.11767 0.0
C547 C 0.91119 0.32753 0.17495 0.0
C548 C 0.89086 0.3393 0.20133 0.0
H549 H 0.07884 0.38588 0.365 0.0
H550 H 0.02576 0.36844 0.31091 0.0
C551 C 0.85583 0.3445 0.1678 0.0
C552 C 0.95141 0.32743 0.1987 0.0
H553 H 0.01859 0.32962 0.33452 0.0
C554 C 0.97141 0.33365 0.15868 0.0
C555 C 0.96935 0.32468 0.26197 0.0
C556 C 0.95018 0.31667 0.30608 0.0
C557 C 0.00763 0.33924 0.1817 0.0
C558 C 0.02406 0.33846 0.24608 0.0
C559 C 0.00553 0.3304 0.2851 0.0
C560 C 0.05673 0.34908 0.27492 0.0
C561 C 0.02684 0.34761 0.13816 0.0
C562 C 0.09144 0.34424 0.27036 0.0
C563 C 0.12192 0.35437 0.30069 0.0
C564 C 0.11781 0.36929 0.3361 0.0
C565 C 0.08276 0.37443 0.33813 0.0
C566 C 0.05251 0.36441 0.30776 0.0
H567 H 0.0098 0.3475 0.08924 0.0
H568 H 0.03416 0.36159 0.15225 0.0
H569 H 0.05253 0.34031 0.14078 0.0
H570 H 0.09504 0.33242 0.24504 0.0
H571 H 0.14875 0.34997 0.29931 0.0
H572 H 0.16141 0.66931 0.87202 0.0
H573 H 0.09561 0.67454 0.83436 0.0
H574 H 0.08334 0.62545 0.73108 0.0
H575 H 0.14915 0.62024 0.7687 0.0
H576 H 0.02865 0.65583 0.68093 0.0
H577 H 0.04878 0.63538 0.9274 0.0
H578 H 0.07379 0.65423 0.91122 0.0
H579 H 0.08407 0.63237 0.88866 0.0
C580 C 0.14487 0.66024 0.83815 0.0
C581 C 0.15995 0.64441 0.82284 0.0
C582 C 0.10735 0.66317 0.8171 0.0
C583 C 0.08479 0.65022 0.78096 0.0
C584 C 0.10049 0.63559 0.75893 0.0
H585 H 0.90269 0.59071 0.70722 0.0
H586 H 0.96118 0.60561 0.7498 0.0
C587 C 0.13805 0.63266 0.77999 0.0
C588 C 0.04572 0.64951 0.77811 0.0
H589 H 0.98941 0.63423 0.86186 0.0
C590 C 0.01979 0.65167 0.72077 0.0
C591 C 0.03453 0.64393 0.83042 0.0
C592 C 0.0616 0.64124 0.89301 0.0
C593 C 0.98304 0.64739 0.71359 0.0
C594 C 0.97241 0.64066 0.76489 0.0
C595 C 0.99786 0.63956 0.82303 0.0
C596 C 0.93729 0.63144 0.75555 0.0
C597 C 0.95621 0.64876 0.65027 0.0
C598 C 0.90475 0.6409 0.74878 0.0
C599 C 0.87123 0.63229 0.72568 0.0
C600 C 0.87027 0.6143 0.7082 0.0
C601 C 0.90285 0.60456 0.72067 0.0
C602 C 0.93617 0.61307 0.74462 0.0
H603 H 0.96845 0.65501 0.61579 0.0
H604 H 0.94627 0.63528 0.63349 0.0
H605 H 0.9322 0.65673 0.65313 0.0
H606 H 0.90533 0.65511 0.7571 0.0
H607 H 0.8464 0.6401 0.71566 0.0
H608 H 0.63168 0.88511 0.26064 0.0
H609 H 0.56578 0.87989 0.23149 0.0
H610 H 0.58405 0.82617 0.29983 0.0
H611 H 0.6502 0.83129 0.32796 0.0
H612 H 0.51196 0.84713 0.16711 0.0
H613 H 0.53842 0.86091 0.42022 0.0
H614 H 0.56938 0.86879 0.37791 0.0
H615 H 0.56691 0.8455 0.39307 0.0
C616 C 0.62168 0.87186 0.26564 0.0
C617 C 0.64584 0.85851 0.29548 0.0
C618 C 0.58405 0.86893 0.24961 0.0
C619 C 0.57019 0.85271 0.26411 0.0
C620 C 0.59433 0.83873 0.28803 0.0
H621 H 0.33216 0.85049 0.21297 0.0
H622 H 0.3941 0.83807 0.24503 0.0
C623 C 0.63206 0.84161 0.30339 0.0
C624 C 0.5316 0.85186 0.26517 0.0
H625 H 0.47753 0.8619 0.35956 0.0
C626 C 0.50425 0.84984 0.20933 0.0
C627 C 0.52186 0.85554 0.32048 0.0
C628 C 0.5505 0.85785 0.38157 0.0
C629 C 0.4673 0.85228 0.20688 0.0
C630 C 0.45776 0.85697 0.26162 0.0
C631 C 0.485 0.85813 0.31795 0.0
C632 C 0.42084 0.86371 0.25861 0.0
C633 C 0.43884 0.85099 0.14515 0.0
C634 C 0.41555 0.88215 0.25974 0.0
C635 C 0.3804 0.88923 0.24121 0.0
C636 C 0.35001 0.87796 0.22207 0.0
C637 C 0.35512 0.85946 0.22823 0.0
C638 C 0.39046 0.85235 0.24584 0.0
H639 H 0.451 0.84808 0.10647 0.0
H640 H 0.41916 0.84027 0.14699 0.0
H641 H 0.42331 0.86364 0.13501 0.0
H642 H 0.43869 0.89112 0.26965 0.0
H643 H 0.37716 0.90352 0.23633 0.0
H644 H 0.66294 0.14242 0.77351 0.0
H645 H 0.60151 0.15542 0.74057 0.0
H646 H 0.55463 0.10289 0.72687 0.0
H647 H 0.61563 0.08996 0.76135 0.0
H648 H 0.51643 0.13171 0.63221 0.0
H649 H 0.54594 0.14826 0.88381 0.0
H650 H 0.57736 0.15489 0.84072 0.0
H651 H 0.5726 0.13182 0.8569 0.0
C652 C 0.63954 0.13364 0.76046 0.0
C653 C 0.64386 0.1152 0.77023 0.0
C654 C 0.6045 0.14109 0.74227 0.0
C655 C 0.57368 0.1301 0.73234 0.0
C656 C 0.57815 0.11158 0.73455 0.0
H657 H 0.36925 0.10657 0.74244 0.0
H658 H 0.43415 0.114 0.76901 0.0
C659 C 0.61298 0.10418 0.75376 0.0
C660 C 0.53722 0.13741 0.72945 0.0
H661 H 0.48441 0.14791 0.82557 0.0
C662 C 0.50948 0.13587 0.67389 0.0
C663 C 0.52838 0.14266 0.78427 0.0
C664 C 0.55746 0.14453 0.84507 0.0
C665 C 0.47276 0.1384 0.67247 0.0
C666 C 0.46371 0.14236 0.7282 0.0
C667 C 0.49158 0.14498 0.78302 0.0
C668 C 0.42561 0.14062 0.73141 0.0
C669 C 0.44358 0.13549 0.61238 0.0
C670 C 0.39943 0.15363 0.7058 0.0
C671 C 0.36221 0.14951 0.69204 0.0
C672 C 0.35105 0.13229 0.70294 0.0
C673 C 0.37722 0.12003 0.73484 0.0
C674 C 0.41429 0.12422 0.74944 0.0
H675 H 0.45519 0.13236 0.57322 0.0
H676 H 0.42549 0.12437 0.61771 0.0
H677 H 0.42645 0.1476 0.60051 0.0
H678 H 0.40774 0.16633 0.69136 0.0
H679 H 0.34252 0.15902 0.66608 0.0
H680 H 0.60657 0.35852 0.22671 0.0
H681 H 0.55024 0.35006 0.25087 0.0
H682 H 0.55493 0.2982 0.1711 0.0
H683 H 0.61183 0.30652 0.14701 0.0
H684 H 0.48798 0.31835 0.12236 0.0
H685 H 0.52783 0.31465 0.37876 0.0
H686 H 0.54597 0.33385 0.34998 0.0
H687 H 0.5602 0.31201 0.33356 0.0
C688 C 0.59597 0.34522 0.21508 0.0
C689 C 0.61351 0.33321 0.1847 0.0
C690 C 0.56397 0.34035 0.22941 0.0
C691 C 0.54879 0.32344 0.21341 0.0
C692 C 0.56656 0.31124 0.18437 0.0
H693 H 0.33864 0.31647 0.30532 0.0
H694 H 0.39352 0.30408 0.28334 0.0
C695 C 0.59898 0.31602 0.17071 0.0
C696 C 0.51232 0.3196 0.22109 0.0
H697 H 0.46469 0.32216 0.32914 0.0
C698 C 0.48283 0.31861 0.16761 0.0
C699 C 0.50579 0.31975 0.28013 0.0
C700 C 0.53667 0.31995 0.33895 0.0
C701 C 0.4468 0.31955 0.17156 0.0
C702 C 0.44041 0.32154 0.23033 0.0
C703 C 0.46976 0.32074 0.28406 0.0
C704 C 0.40481 0.32765 0.23657 0.0
C705 C 0.41592 0.31953 0.11275 0.0
C706 C 0.39316 0.3449 0.21722 0.0
C707 C 0.36243 0.35206 0.2304 0.0
C708 C 0.34259 0.34203 0.26282 0.0
C709 C 0.35334 0.32444 0.2799 0.0
C710 C 0.3846 0.31736 0.2675 0.0
H711 H 0.42386 0.31272 0.07439 0.0
H712 H 0.39137 0.31291 0.12001 0.0
H713 H 0.40861 0.33347 0.09834 0.0
H714 H 0.40879 0.35313 0.19416 0.0
H715 H 0.35469 0.36562 0.21647 0.0
H716 H 0.66603 0.68835 0.68755 0.0
H717 H 0.61468 0.70644 0.70014 0.0
H718 H 0.57996 0.6628 0.79509 0.0
H719 H 0.63039 0.64477 0.78211 0.0
H720 H 0.54125 0.69522 0.64869 0.0
H721 H 0.56822 0.70622 0.90009 0.0
H722 H 0.60427 0.70204 0.86349 0.0
H723 H 0.57944 0.68382 0.88476 0.0
C724 C 0.64785 0.68283 0.71235 0.0
C725 C 0.65195 0.66514 0.73356 0.0
C726 C 0.61866 0.69316 0.71953 0.0
C727 C 0.59397 0.68605 0.74948 0.0
C728 C 0.59919 0.66869 0.77312 0.0
H729 H 0.39972 0.65419 0.71788 0.0
H730 H 0.454 0.6675 0.6997 0.0
C731 C 0.62779 0.65832 0.76507 0.0
C732 C 0.55956 0.69522 0.7486 0.0
H733 H 0.50409 0.69975 0.84354 0.0
C734 C 0.53331 0.69701 0.69123 0.0
C735 C 0.54935 0.698 0.80389 0.0
C736 C 0.577 0.69761 0.86651 0.0
C737 C 0.49623 0.69876 0.68815 0.0
C738 C 0.48552 0.69853 0.7437 0.0
C739 C 0.51225 0.69958 0.80083 0.0
C740 C 0.44868 0.69255 0.74428 0.0
C741 C 0.4686 0.69914 0.62551 0.0
C742 C 0.42748 0.70224 0.77522 0.0
C743 C 0.39612 0.6946 0.78555 0.0
C744 C 0.3863 0.67704 0.76648 0.0
C745 C 0.40679 0.66771 0.73341 0.0
C746 C 0.43758 0.6754 0.72229 0.0
H747 H 0.47975 0.70616 0.59111 0.0
H748 H 0.46215 0.68531 0.60878 0.0
H749 H 0.44294 0.70577 0.62776 0.0
H750 H 0.43597 0.71538 0.79337 0.0
H751 H 0.38082 0.70204 0.81141 0.0
H752 H 0.88144 0.82766 0.19373 0.0
H753 H 0.93399 0.81294 0.17495 0.0
H754 H 0.91687 0.7677 0.28191 0.0
H755 H 0.86348 0.78268 0.30129 0.0
H756 H 0.98494 0.78067 0.32389 0.0
H757 H 0.95797 0.77352 0.07234 0.0
H758 H 0.94315 0.79526 0.08721 0.0
H759 H 0.92145 0.77591 0.10901 0.0
C760 C 0.88826 0.81439 0.21212 0.0
C761 C 0.8686 0.80637 0.24942 0.0
C762 C 0.91809 0.80584 0.20057 0.0
C763 C 0.92911 0.78903 0.22596 0.0
C764 C 0.90853 0.78056 0.26106 0.0
H765 H 0.14384 0.79374 0.15969 0.0
H766 H 0.0927 0.77511 0.17086 0.0
C767 C 0.87812 0.7891 0.27211 0.0
C768 C 0.96548 0.78236 0.22421 0.0
H769 H 0.02036 0.78518 0.12747 0.0
C770 C 0.99261 0.78084 0.28074 0.0
C771 C 0.97576 0.78193 0.16817 0.0
C772 C 0.94783 0.78153 0.10584 0.0
C773 C 0.02969 0.78192 0.28286 0.0
C774 C 0.03957 0.78491 0.22732 0.0
C775 C 0.01282 0.7834 0.17036 0.0
C776 C 0.07408 0.79413 0.22807 0.0
C777 C 0.05775 0.78154 0.34505 0.0
C778 C 0.08051 0.81089 0.25644 0.0
C779 C 0.10895 0.82151 0.24939 0.0
C780 C 0.13184 0.81564 0.21387 0.0
C781 C 0.12666 0.79851 0.18761 0.0
C782 C 0.09756 0.78789 0.19397 0.0
H783 H 0.04938 0.77217 0.37691 0.0
H784 H 0.08502 0.77757 0.3407 0.0
H785 H 0.0599 0.79497 0.36637 0.0
H786 H 0.06227 0.81624 0.28151 0.0
H787 H 0.11238 0.83461 0.27041 0.0
H788 H 0.12207 0.20822 0.63789 0.0
H789 H 0.06573 0.22231 0.64892 0.0
H790 H 0.0638 0.18529 0.79499 0.0
H791 H 0.11921 0.17146 0.78413 0.0
H792 H 0.00309 0.20425 0.62341 0.0
H793 H 0.02697 0.22873 0.86118 0.0
H794 H 0.06399 0.22552 0.82613 0.0
H795 H 0.04842 0.20742 0.86531 0.0
C796 C 0.11017 0.20362 0.67378 0.0
C797 C 0.12467 0.18873 0.70998 0.0
C798 C 0.07806 0.21164 0.68004 0.0
C799 C 0.06075 0.20508 0.72352 0.0
C800 C 0.07699 0.191 0.7624 0.0
H801 H 0.89 0.15112 0.72401 0.0
H802 H 0.93732 0.16933 0.70181 0.0
C803 C 0.1085 0.18292 0.75565 0.0
C804 C 0.02267 0.21001 0.72123 0.0
H805 H 0.96901 0.21114 0.82038 0.0
C806 C 0.99548 0.20657 0.66598 0.0
C807 C 0.01225 0.21355 0.77601 0.0
C808 C 0.0396 0.21922 0.83522 0.0
C809 C 0.95918 0.20375 0.66646 0.0
C810 C 0.9502 0.20411 0.7236 0.0
C811 C 0.97607 0.21036 0.77675 0.0
C812 C 0.91843 0.19404 0.73184 0.0
C813 C 0.93147 0.19876 0.60672 0.0
C814 C 0.89222 0.20182 0.75726 0.0
C815 C 0.86474 0.19129 0.77025 0.0
C816 C 0.8638 0.17283 0.75936 0.0
C817 C 0.88996 0.16526 0.73338 0.0
C818 C 0.91686 0.17572 0.71986 0.0
H819 H 0.93733 0.20568 0.56675 0.0
H820 H 0.93303 0.18424 0.59887 0.0
H821 H 0.90331 0.20209 0.60811 0.0
H822 H 0.89333 0.2159 0.76775 0.0
H823 H 0.845 0.19748 0.79044 0.0
H824 H 0.3971 0.39212 0.47154 0.0
H825 H 0.45162 0.39483 0.55926 0.0
H826 H 0.3839 0.40038 0.68396 0.0
H827 H 0.32946 0.39716 0.59725 0.0
H828 H 0.47705 0.42062 0.65108 0.0
H829 H 0.44567 0.35691 0.75086 0.0
H830 H 0.42205 0.36396 0.67342 0.0
H831 H 0.40988 0.37312 0.73918 0.0
C832 C 0.3938 0.39405 0.51757 0.0
C833 C 0.35894 0.39418 0.52752 0.0
C834 C 0.42496 0.39565 0.56755 0.0
C835 C 0.42168 0.39746 0.62804 0.0
C836 C 0.38694 0.39859 0.63769 0.0
H837 H 0.58029 0.39179 0.98793 0.0
H838 H 0.52616 0.39909 0.90398 0.0
C839 C 0.35584 0.3968 0.58797 0.0
C840 C 0.45452 0.39713 0.68138 0.0
H841 H 0.49604 0.3732 0.81053 0.0
C842 C 0.48126 0.41029 0.68607 0.0
C843 C 0.45987 0.38355 0.72661 0.0
C844 C 0.43305 0.36848 0.72215 0.0
C845 C 0.51326 0.41028 0.73534 0.0
C846 C 0.51847 0.39671 0.78042 0.0
C847 C 0.49161 0.38368 0.77602 0.0
C848 C 0.55243 0.39502 0.83092 0.0
C849 C 0.54116 0.42476 0.73907 0.0
C850 C 0.58507 0.39051 0.8173 0.0
C851 C 0.61597 0.38621 0.865 0.0
C852 C 0.61465 0.38632 0.92709 0.0
C853 C 0.58223 0.39154 0.9406 0.0
C854 C 0.55131 0.39577 0.89283 0.0
H855 H 0.52937 0.43639 0.70994 0.0
H856 H 0.5526 0.42926 0.78772 0.0
H857 H 0.56395 0.41947 0.72233 0.0
H858 H 0.58621 0.38954 0.76965 0.0
H859 H 0.64045 0.38227 0.85298 0.0
H860 H 0.6652 0.60489 0.41507 0.0
H861 H 0.61555 0.60608 0.31988 0.0
H862 H 0.53814 0.61282 0.42689 0.0
H863 H 0.5879 0.6118 0.52297 0.0
H864 H 0.55103 0.58521 0.27797 0.0
H865 H 0.52177 0.65646 0.31028 0.0
H866 H 0.56314 0.6457 0.35411 0.0
H867 H 0.52118 0.64223 0.37432 0.0
C868 C 0.63767 0.60649 0.41868 0.0
C869 C 0.63063 0.60839 0.47681 0.0
C870 C 0.60929 0.60714 0.36408 0.0
C871 C 0.57333 0.60979 0.36641 0.0
C872 C 0.56589 0.61105 0.42423 0.0
H873 H 0.36815 0.62708 0.0972 0.0
H874 H 0.41839 0.62199 0.18904 0.0
C875 C 0.59432 0.61038 0.47905 0.0
C876 C 0.54389 0.61184 0.30811 0.0
H877 H 0.48193 0.64161 0.22545 0.0
C878 C 0.5359 0.59753 0.26628 0.0
C879 C 0.52456 0.62799 0.29297 0.0
C880 C 0.5332 0.64405 0.33491 0.0
C881 C 0.50826 0.59881 0.21022 0.0
C882 C 0.48869 0.61493 0.19542 0.0
C883 C 0.49701 0.62927 0.23702 0.0
C884 C 0.45825 0.61705 0.13845 0.0
C885 C 0.49955 0.5828 0.16815 0.0
C886 C 0.46398 0.61598 0.07926 0.0
C887 C 0.43499 0.61878 0.0261 0.0
C888 C 0.39992 0.62277 0.03152 0.0
C889 C 0.39456 0.62383 0.09104 0.0
C890 C 0.42334 0.621 0.14381 0.0
H891 H 0.51139 0.5704 0.1924 0.0
H892 H 0.46959 0.58105 0.14966 0.0
H893 H 0.51109 0.58477 0.12825 0.0
H894 H 0.49094 0.61328 0.07421 0.0
H895 H 0.44011 0.61796 0.981 0.0
H896 H 0.93219 0.86613 0.4617 0.0
H897 H 0.98297 0.86897 0.55638 0.0
H898 H 0.90773 0.86319 0.66786 0.0
H899 H 0.85739 0.86006 0.57455 0.0
H900 H 0.99184 0.89441 0.6561 0.0
H901 H 0.98589 0.82508 0.73684 0.0
H902 H 0.96438 0.83189 0.65808 0.0
H903 H 0.94274 0.83638 0.71841 0.0
C904 C 0.92653 0.86541 0.5064 0.0
C905 C 0.89066 0.8629 0.51044 0.0
C906 C 0.95552 0.86707 0.56037 0.0
C907 C 0.94912 0.86605 0.61906 0.0
C908 C 0.91336 0.86373 0.62308 0.0
H909 H 0.06937 0.87111 0.00569 0.0
H910 H 0.02311 0.86979 0.9055 0.0
C911 C 0.88452 0.8621 0.56949 0.0
C912 C 0.97945 0.86757 0.67661 0.0
H913 H 0.02105 0.84555 0.81041 0.0
C914 C -0.00143 0.88369 0.68963 0.0
C915 C 0.98802 0.85356 0.72026 0.0
C916 C 0.96944 0.83568 0.7076 0.0
C917 C 0.02523 0.88639 0.74623 0.0
C918 C 0.0333 0.87248 0.79037 0.0
C919 C 0.01461 0.85625 0.77675 0.0
C920 C 0.06112 0.87437 0.85098 0.0
C921 C 0.04369 0.90429 0.7591 0.0
C922 C 0.09782 0.87736 0.85356 0.0
C923 C 0.12428 0.87816 0.91067 0.0
C924 C 0.11465 0.87586 0.96649 0.0
C925 C 0.07776 0.873 0.96374 0.0
C926 C 0.05129 0.87222 0.9065 0.0
H927 H 0.02801 0.91477 0.72814 0.0
H928 H 0.04724 0.90836 0.80802 0.0
H929 H 0.07111 0.90344 0.75107 0.0
H930 H 0.10617 0.87867 0.81132 0.0
H931 H 0.15241 0.8802 0.91085 0.0
H932 H 0.14421 0.1252 0.40793 0.0
H933 H 0.09423 0.12179 0.31378 0.0
H934 H 0.01672 0.12296 0.42235 0.0
H935 H 0.06667 0.12666 0.51711 0.0
H936 H 0.04154 0.09569 0.27921 0.0
H937 H 0.97825 0.16154 0.29362 0.0
H938 H 0.02329 0.15582 0.34083 0.0
H939 H 0.98359 0.14787 0.36114 0.0
C940 C 0.11659 0.12468 0.41204 0.0
C941 C 0.1095 0.12627 0.47022 0.0
C942 C 0.08802 0.12273 0.35803 0.0
C943 C 0.05172 0.12238 0.3609 0.0
C944 C 0.0445 0.12358 0.41893 0.0
H945 H 0.8449 0.11495 0.07701 0.0
H946 H 0.89329 0.1152 0.17432 0.0
C947 C 0.0731 0.1256 0.47309 0.0
C948 C 0.02161 0.12078 0.30295 0.0
H949 H 0.94639 0.14218 0.2138 0.0
C950 C 0.02074 0.10586 0.26484 0.0
C951 C 0.99456 0.13409 0.28425 0.0
C952 C 0.99501 0.15082 0.32172 0.0
C953 C 0.99333 0.1038 0.20882 0.0
C954 C 0.96639 0.11712 0.19012 0.0
C955 C 0.96708 0.13198 0.22839 0.0
C956 C 0.93734 0.11604 0.13072 0.0
C957 C 0.99309 0.08727 0.1705 0.0
C958 C 0.94606 0.11648 0.07384 0.0
C959 C 0.91841 0.11634 0.01791 0.0
C960 C 0.8815 0.1158 0.0179 0.0
C961 C 0.87297 0.11524 0.07512 0.0
C962 C 0.9006 0.11543 0.1309 0.0
H963 H 0.00998 0.0765 0.19806 0.0
H964 H 0.96485 0.08226 0.15108 0.0
H965 H 0.00443 0.09049 0.1312 0.0
H966 H 0.97425 0.11727 0.07271 0.0
H967 H 0.92598 0.11686 0.97477 0.0
H968 H 0.21484 0.40333 0.14 0.0
H969 H 0.20968 0.40068 0.02985 0.0
H970 H 0.15882 0.3493 0.02584 0.0
H971 H 0.16414 0.35172 0.1364 0.0
H972 H 0.22544 0.34816 -0.00181 0.0
H973 H 0.13735 0.40021 0.8588 0.0
H974 H 0.16825 0.40904 0.92777 0.0
H975 H 0.13361 0.39346 0.93415 0.0
C976 C 0.20106 0.3918 0.11528 0.0
C977 C 0.19101 0.37748 0.14741 0.0
C978 C 0.19804 0.39032 0.05207 0.0
C979 C 0.18437 0.37467 0.02001 0.0
C980 C 0.16974 0.36142 0.05006 0.0
H981 H 0.20147 0.35013 0.65219 0.0
H982 H 0.19164 0.34515 0.75412 0.0
C983 C 0.17265 0.3629 0.1133 0.0
C984 C 0.19205 0.37083 0.9602 0.0
H985 H 0.18448 0.38824 0.81701 0.0
C986 C 0.21587 0.35669 0.95803 0.0
C987 C 0.17977 0.38206 0.90824 0.0
C988 C 0.15305 0.39694 0.90706 0.0
C989 C 0.22897 0.35399 0.90606 0.0
C990 C 0.21798 0.36572 0.85556 0.0
C991 C 0.19313 0.37942 0.85659 0.0
C992 C 0.23205 0.36435 0.80086 0.0
C993 C 0.25536 0.33908 0.90583 0.0
C994 C 0.25976 0.3759 0.79493 0.0
C995 C 0.26567 0.3787 0.73687 0.0
C996 C 0.24331 0.37021 0.68423 0.0
C997 C 0.21883 0.35697 0.69199 0.0
C998 C 0.2131 0.35413 0.75005 0.0
H999 H 0.26108 0.33096 0.94878 0.0
H1000 H 0.24411 0.3303 0.86521 0.0
H1001 H 0.28143 0.34466 0.90103 0.0
H1002 H 0.27458 0.38388 0.83401 0.0
H1003 H 0.28466 0.38899 0.73232 0.0
H1004 H 0.76206 0.38197 0.31259 0.0
H1005 H 0.76157 0.37869 0.42053 0.0
H1006 H 0.78849 0.32317 0.41511 0.0
H1007 H 0.78902 0.3262 0.30704 0.0
H1008 H 0.70519 0.34711 0.42528 0.0
H1009 H 0.84125 0.34631 0.6 0.0
H1010 H 0.83309 0.36004 0.53143 0.0
H1011 H 0.83525 0.33637 0.52447 0.0
C1012 C 0.7696 0.36924 0.33504 0.0
C1013 C 0.77426 0.3542 0.30057 0.0
C1014 C 0.76918 0.36739 0.39671 0.0
C1015 C 0.77421 0.35062 0.42486 0.0
C1016 C 0.78438 0.3362 0.39371 0.0
H1017 H 0.74216 0.32623 0.78316 0.0
H1018 H 0.74797 0.32026 0.67919 0.0
C1019 C 0.78481 0.33801 0.33192 0.0
C1020 C 0.7613 0.34751 0.4801 0.0
H1021 H 0.78932 0.34382 0.63718 0.0
C1022 C 0.7235 0.34626 0.47174 0.0
C1023 C 0.78539 0.3461 0.53991 0.0
C1024 C 0.82609 0.34726 0.55015 0.0
C1025 C 0.70899 0.34412 0.52234 0.0
C1026 C 0.73298 0.34356 0.58275 0.0
C1027 C 0.77093 0.34417 0.59074 0.0
C1028 C 0.7197 0.34416 0.63883 0.0
C1029 C 0.66819 0.34259 0.51061 0.0
C1030 C 0.69955 0.35891 0.64936 0.0
C1031 C 0.69577 0.36224 0.70857 0.0
C1032 C 0.71281 0.35104 0.75815 0.0
C1033 C 0.72905 0.33516 0.74579 0.0
C1034 C 0.73258 0.33178 0.68653 0.0
H1035 H 0.65527 0.33702 0.4638 0.0
H1036 H 0.66094 0.33406 0.54585 0.0
H1037 H 0.65655 0.35603 0.51269 0.0
H1038 H 0.68975 0.36876 0.61345 0.0
H1039 H 0.68327 0.37462 0.71672 0.0
H1040 H 0.82096 0.64108 0.8848 0.0
H1041 H 0.83046 0.64242 -0.00318 0.0
H1042 H 0.76653 0.59477 0.98923 0.0
H1043 H 0.75633 0.59336 0.87689 0.0
H1044 H 0.75796 0.64359 0.03261 0.0
H1045 H 0.8579 0.59238 0.15298 0.0
H1046 H 0.85971 0.60253 0.08077 0.0
H1047 H 0.82583 0.586 0.08097 0.0
C1048 C 0.81 0.63048 0.90705 0.0
C1049 C 0.78716 0.61732 0.87183 0.0
C1050 C 0.81542 0.63133 0.97106 0.0
C1051 C 0.79887 0.6188 0.00064 0.0
C1052 C 0.77953 0.60453 0.9668 0.0
H1053 H 0.71031 0.6086 0.30215 0.0
H1054 H 0.71921 0.6157 0.20091 0.0
C1055 C 0.77372 0.60376 0.90268 0.0
C1056 C 0.79626 0.6222 0.06382 0.0
H1057 H 0.82074 0.60558 0.21047 0.0
C1058 C 0.77209 0.63551 0.07191 0.0
C1059 C 0.81473 0.61158 0.11434 0.0
C1060 C 0.84123 0.59736 0.10736 0.0
C1061 C 0.76475 0.63795 0.12926 0.0
C1062 C 0.78215 0.62685 0.17917 0.0
C1063 C 0.8075 0.61406 0.17173 0.0
C1064 C 0.77274 0.62723 0.2385 0.0
C1065 C 0.73792 0.65203 0.136 0.0
C1066 C 0.79915 0.63225 0.29257 0.0
C1067 C 0.7941 0.62832 0.35033 0.0
C1068 C 0.76285 0.619 0.35462 0.0
C1069 C 0.73475 0.61568 0.30035 0.0
C1070 C 0.73978 0.61972 0.24249 0.0
H1071 H 0.73202 0.66162 0.09685 0.0
H1072 H 0.71194 0.64557 0.13722 0.0
H1073 H 0.7485 0.65942 0.18021 0.0
H1074 H 0.82468 0.63811 0.29006 0.0
H1075 H 0.816 0.63134 0.39139 0.0
H1076 H 0.23941 0.66525 0.14124 0.0
H1077 H 0.23219 0.67172 0.24394 0.0
H1078 H 0.31867 0.63478 0.32511 0.0
H1079 H 0.3263 0.62837 0.22287 0.0
H1080 H 0.20949 0.64339 0.30129 0.0
H1081 H 0.33391 0.67319 0.45729 0.0
H1082 H 0.3242 0.67406 0.3738 0.0
H1083 H 0.3441 0.65443 0.41543 0.0
C1084 C 0.25792 0.65907 0.18131 0.0
C1085 C 0.28287 0.646 0.17404 0.0
C1086 C 0.25369 0.66276 0.23987 0.0
C1087 C 0.2746 0.65359 0.29188 0.0
C1088 C 0.30249 0.64214 0.28561 0.0
H1089 H 0.26633 0.61372 0.63568 0.0
H1090 H 0.2617 0.61699 0.52555 0.0
C1091 C 0.30685 0.63848 0.22701 0.0
C1092 C 0.26296 0.65326 0.34947 0.0
H1093 H 0.29495 0.65681 0.5065 0.0
C1094 C 0.22788 0.64669 0.34611 0.0
C1095 C 0.28704 0.6575 0.40771 0.0
C1096 C 0.32428 0.66535 0.41381 0.0
C1097 C 0.21699 0.64343 0.39995 0.0
C1098 C 0.24181 0.6468 0.45799 0.0
C1099 C 0.27621 0.65408 0.46143 0.0
C1100 C 0.23365 0.64224 0.51647 0.0
C1101 C 0.17977 0.63576 0.39506 0.0
C1102 C 0.21701 0.65479 0.54596 0.0
C1103 C 0.21945 0.65296 0.60891 0.0
C1104 C 0.23927 0.63873 0.643 0.0
C1105 C 0.25146 0.62499 0.61101 0.0
C1106 C 0.24892 0.62683 0.54811 0.0
H1107 H 0.16326 0.6342 0.34614 0.0
H1108 H 0.18276 0.62256 0.4181 0.0
H1109 H 0.16485 0.64452 0.41968 0.0
H1110 H 0.20502 0.66673 0.52181 0.0
H1111 H 0.20934 0.66368 0.63192 0.0
H1112 H 0.70013 0.82617 0.10663 0.0
H1113 H 0.69253 0.82532 -0.00505 0.0
H1114 H 0.74757 0.87577 0.00548 0.0
H1115 H 0.7555 0.87679 0.11718 0.0
H1116 H 0.68533 0.86683 0.88852 0.0
H1117 H 0.79868 0.81775 0.96398 0.0
H1118 H 0.75813 0.81451 0.98915 0.0
H1119 H 0.78724 0.83316 0.01755 0.0
C1120 C 0.70929 0.83746 0.08495 0.0
C1121 C 0.72936 0.85132 0.12088 0.0
C1122 C 0.70502 0.83688 0.02117 0.0
C1123 C 0.7203 0.85027 0.99286 0.0
C1124 C 0.73594 0.86526 0.02706 0.0
H1125 H 0.81228 0.86807 0.69728 0.0
H1126 H 0.80235 0.8608 0.79787 0.0
C1127 C 0.74044 0.8658 0.09083 0.0
C1128 C 0.72576 0.8474 0.9312 0.0
H1129 H 0.78261 0.82646 0.85942 0.0
C1130 C 0.70609 0.8578 0.88162 0.0
C1131 C 0.75337 0.83577 0.92332 0.0
C1132 C 0.77583 0.82467 0.9762 0.0
C1133 C 0.7138 0.85711 0.82409 0.0
C1134 C 0.74181 0.8457 0.81651 0.0
C1135 C 0.76103 0.83504 0.86573 0.0
C1136 C 0.75293 0.84581 0.75874 0.0
C1137 C 0.69299 0.86907 0.7724 0.0
C1138 C 0.72971 0.83872 0.70451 0.0
C1139 C 0.73531 0.8428 0.64727 0.0
C1140 C 0.76414 0.85408 0.64381 0.0
C1141 C 0.7898 0.85941 0.69868 0.0
C1142 C 0.7841 0.85533 0.75605 0.0
H1143 H 0.6753 0.87868 0.7883 0.0
H1144 H 0.71218 0.87661 0.75254 0.0
H1145 H 0.67547 0.86084 0.73474 0.0
H1146 H 0.70578 0.83116 0.70615 0.0
H1147 H 0.71546 0.83826 0.60557 0.0
H1148 H 0.19904 0.88145 0.81597 0.0
H1149 H 0.20795 0.87342 0.71542 0.0
H1150 H 0.32347 0.8675 0.79971 0.0
H1151 H 0.31505 0.87542 0.90032 0.0
H1152 H 0.30282 0.89266 0.69952 0.0
H1153 H 0.23686 0.82674 0.63938 0.0
H1154 H 0.21016 0.8427 0.66775 0.0
H1155 H 0.25239 0.8348 0.71826 0.0
C1156 C 0.22622 0.87804 0.81345 0.0
C1157 C 0.25639 0.87935 0.86595 0.0
C1158 C 0.23122 0.87339 0.75605 0.0
C1159 C 0.26636 0.86989 0.75053 0.0
C1160 C 0.29618 0.87016 0.80334 0.0
H1161 H 0.29391 0.84365 0.38714 0.0
H1162 H 0.30822 0.84557 0.50007 0.0
C1163 C 0.29124 0.87473 0.86071 0.0
C1164 C 0.27243 0.86813 0.68875 0.0
H1165 H 0.24833 0.84354 0.55618 0.0
C1166 C 0.29146 0.88178 0.66839 0.0
C1167 C 0.25782 0.85385 0.64885 0.0
C1168 C 0.23842 0.83858 0.66968 0.0
C1169 C 0.2946 0.88198 0.60762 0.0
C1170 C 0.27817 0.86823 0.56665 0.0
C1171 C 0.26082 0.85409 0.58798 0.0
C1172 C 0.27544 0.86904 0.49997 0.0
C1173 C 0.31461 0.89709 0.58717 0.0
C1174 C 0.25315 0.88195 0.46308 0.0
C1175 C 0.24469 0.88086 0.39865 0.0
C1176 C 0.2584 0.8668 0.37029 0.0
C1177 C 0.28288 0.85464 0.40758 0.0
C1178 C 0.29105 0.85566 0.47205 0.0
H1179 H 0.33353 0.90387 0.62736 0.0
H1180 H 0.33036 0.89226 0.55539 0.0
H1181 H 0.2945 0.90703 0.56181 0.0
H1182 H 0.24057 0.89227 0.48401 0.0
H1183 H 0.22595 0.89049 0.37118 0.0
H1184 H 0.25431 0.1173 0.86509 0.0
H1185 H 0.26042 0.11646 0.97656 0.0
H1186 H 0.27369 0.1735 0.98603 0.0
H1187 H 0.26995 0.17424 0.87569 0.0
H1188 H 0.30973 0.15957 0.09111 0.0
H1189 H 0.1708 0.13101 0.02387 0.0
H1190 H 0.20223 0.11668 0.00059 0.0
H1191 H 0.19318 0.13861 0.96747 0.0
C1192 C 0.25993 0.12953 0.8916 0.0
C1193 C 0.2612 0.14585 0.86204 0.0
C1194 C 0.26289 0.12909 0.95491 0.0
C1195 C 0.26573 0.14502 0.98865 0.0
C1196 C 0.27089 0.16109 0.96053 0.0
H1197 H 0.19185 0.13691 0.32485 0.0
H1198 H 0.19563 0.14812 0.22391 0.0
C1199 C 0.26898 0.16148 0.89757 0.0
C1200 C 0.25997 0.14512 0.05114 0.0
H1201 H 0.20235 0.1299 0.13196 0.0
C1202 C 0.28609 0.15324 0.10003 0.0
C1203 C 0.22819 0.13767 0.06217 0.0
C1204 C 0.19682 0.13072 0.01055 0.0
C1205 C 0.28243 0.15306 0.1605 0.0
C1206 C 0.25271 0.14383 0.17255 0.0
C1207 C 0.22545 0.13674 0.12299 0.0
C1208 C 0.25146 0.1395 0.23619 0.0
C1209 C 0.31054 0.16271 0.21066 0.0
C1210 C 0.28144 0.13098 0.27627 0.0
C1211 C 0.27953 0.12491 0.3337 0.0
C1212 C 0.24719 0.12675 0.35173 0.0
C1213 C 0.21705 0.13531 0.3119 0.0
C1214 C 0.21926 0.14175 0.25454 0.0
H1215 H 0.32065 0.17471 0.19164 0.0
H1216 H 0.2994 0.16687 0.24938 0.0
H1217 H 0.33432 0.15386 0.22915 0.0
H1218 H 0.30599 0.12837 0.26228 0.0
H1219 H 0.30307 0.11813 0.36298 0.0
H1220 H 0.68234 0.12447 0.08877 0.0
H1221 H 0.67304 0.13171 0.18932 0.0
H1222 H 0.78692 0.12189 0.27751 0.0
H1223 H 0.79666 0.11444 0.17709 0.0
H1224 H 0.69055 0.10346 0.28254 0.0
H1225 H 0.75969 0.1676 0.36413 0.0
H1226 H 0.74395 0.16168 0.28295 0.0
H1227 H 0.78535 0.15224 0.33103 0.0
C1228 C 0.70569 0.12425 0.12926 0.0
C1229 C 0.74013 0.1185 0.12519 0.0
C1230 C 0.70025 0.12845 0.18658 0.0
C1231 C 0.72924 0.12724 0.24042 0.0
C1232 C 0.76431 0.12302 0.23608 0.0
H1233 H 0.76605 0.1002 0.61331 0.0
H1234 H 0.7516 0.0998 0.50026 0.0
C1235 C 0.76979 0.11872 0.17872 0.0
C1236 C 0.72192 0.12768 0.30147 0.0
H1237 H 0.74492 0.14916 0.44047 0.0
C1238 C 0.70186 0.1136 0.31688 0.0
C1239 C 0.73662 0.14098 0.34558 0.0
C1240 C 0.75738 0.15659 0.33019 0.0
C1241 C 0.6977 0.11199 0.37676 0.0
C1242 C 0.71402 0.12479 0.42177 0.0
C1243 C 0.73247 0.13937 0.40549 0.0
C1244 C 0.71548 0.12253 0.48751 0.0
C1245 C 0.67683 0.09642 0.39212 0.0
C1246 C 0.69871 0.13501 0.51704 0.0
C1247 C 0.7067 0.13522 0.58153 0.0
C1248 C 0.73221 0.12317 0.61726 0.0
C1249 C 0.74656 0.10975 0.58711 0.0
C1250 C 0.73825 0.10946 0.52256 0.0
H1251 H 0.65909 0.09011 0.34967 0.0
H1252 H 0.69643 0.08628 0.41754 0.0
H1253 H 0.65971 0.10065 0.4225 0.0
H1254 H 0.68108 0.14518 0.4904 0.0
H1255 H 0.69498 0.14568 0.60326 0.0
H1256 H 0.325 0.18537 0.58302 0.0
H1257 H 0.32343 0.21681 0.55614 0.0
H1258 H 0.22101 0.20882 0.41783 0.0
H1259 H 0.22256 0.17732 0.44475 0.0
H1260 H 0.30167 0.24339 0.44741 0.0
H1261 H 0.20174 0.23114 0.58347 0.0
H1262 H 0.23556 0.21492 0.57771 0.0
H1263 H 0.19586 0.21828 0.51373 0.0
C1264 C 0.30362 0.19003 0.54356 0.0
C1265 C 0.27333 0.17917 0.51719 0.0
C1266 C 0.30252 0.20808 0.52875 0.0
C1267 C 0.27143 0.21514 0.48676 0.0
C1268 C 0.24496 0.20356 0.45112 0.0
H1269 H 0.16985 0.31593 0.42723 0.0
H1270 H 0.18213 0.28446 0.45044 0.0
C1271 C 0.24614 0.18548 0.46592 0.0
C1272 C 0.26234 0.23402 0.49277 0.0
H1273 H 0.2084 0.26072 0.55406 0.0
C1274 C 0.28134 0.24724 0.47065 0.0
C1275 C 0.23625 0.23888 0.52436 0.0
C1276 C 0.21629 0.22512 0.55172 0.0
C1277 C 0.27395 0.26532 0.47736 0.0
C1278 C 0.2475 0.27017 0.50828 0.0
C1279 C 0.22889 0.25691 0.53109 0.0
C1280 C 0.23624 0.28888 0.51127 0.0
C1281 C 0.29364 0.27908 0.4496 0.0
C1282 C 0.26116 0.30176 0.54279 0.0
C1283 C 0.25383 0.31982 0.53046 0.0
C1284 C 0.22175 0.32498 0.486 0.0
C1285 C 0.19467 0.31222 0.46193 0.0
C1286 C 0.20189 0.29423 0.47453 0.0
H1287 H 0.30835 0.27304 0.41812 0.0
H1288 H 0.27416 0.28914 0.42321 0.0
H1289 H 0.3139 0.28608 0.48739 0.0
H1290 H 0.28756 0.29781 0.57234 0.0
H1291 H 0.27524 0.32942 0.54912 0.0
H1292 H 0.66711 0.31265 0.89896 0.0
H1293 H 0.64848 0.2819 0.86983 0.0
H1294 H 0.75592 0.26365 0.96859 0.0
H1295 H 0.77427 0.29423 -0.00109 0.0
H1296 H 0.70081 0.24527 0.83514 0.0
H1297 H 0.65848 0.25215 0.05322 0.0
H1298 H 0.65268 0.27004 -0.00235 0.0
H1299 H 0.69741 0.26451 0.04483 0.0
C1300 C 0.68733 0.30217 0.91104 0.0
C1301 C 0.72207 0.30564 0.95096 0.0
C1302 C 0.67654 0.28463 0.89504 0.0
C1303 C 0.70075 0.27065 0.91806 0.0
C1304 C 0.73696 0.27437 0.95065 0.0
H1305 H 0.75156 0.16955 0.01196 0.0
H1306 H 0.73065 0.19984 0.0211 0.0
C1307 C 0.74755 0.29181 0.96735 0.0
C1308 C 0.68734 0.25235 0.91896 0.0
H1309 H 0.66401 0.22296 0.01769 0.0
C1310 C 0.69163 0.24038 0.87381 0.0
C1311 C 0.67568 0.2462 0.97002 0.0
C1312 C 0.6706 0.25882 0.01936 0.0
C1313 C 0.68672 0.22209 0.88039 0.0
C1314 C 0.67716 0.21579 0.93351 0.0
C1315 C 0.67091 0.2279 0.9769 0.0
C1316 C 0.68005 0.1967 0.94891 0.0
C1317 C 0.69448 0.20954 0.8329 0.0
C1318 C 0.65648 0.1845 0.91057 0.0
C1319 C 0.66837 0.16715 0.90574 0.0
C1320 C 0.7038 0.16207 0.93902 0.0
C1321 C 0.7241 0.1732 0.98606 0.0
C1322 C 0.71227 0.19058 0.99083 0.0
H1323 H 0.70488 0.21657 0.79765 0.0
H1324 H 0.71493 0.19942 0.85599 0.0
H1325 H 0.66907 0.20244 0.80853 0.0
H1326 H 0.63131 0.18898 0.87846 0.0
H1327 H 0.65229 0.15869 0.86926 0.0
H1328 H 0.83991 0.67088 0.6023 0.0
H1329 H 0.83336 0.70203 0.57092 0.0
H1330 H 0.73474 0.68934 0.42914 0.0
H1331 H 0.74122 0.6581 0.46049 0.0
H1332 H 0.81484 0.72553 0.46053 0.0
H1333 H 0.70395 0.71526 0.57513 0.0
H1334 H 0.73926 0.69899 0.57858 0.0
H1335 H 0.70248 0.70136 0.50916 0.0
C1336 C 0.81818 0.67454 0.56177 0.0
C1337 C 0.79055 0.66228 0.53476 0.0
C1338 C 0.81424 0.69238 0.54432 0.0
C1339 C 0.78284 0.69797 0.49945 0.0
C1340 C 0.75878 0.68522 0.46479 0.0
H1341 H 0.68403 0.79798 0.3979 0.0
H1342 H 0.69218 0.76708 0.4318 0.0
C1343 C 0.76283 0.66732 0.48211 0.0
C1344 C 0.77179 0.7168 0.49856 0.0
H1345 H 0.7117 0.74436 0.54184 0.0
C1346 C 0.79231 0.72969 0.47815 0.0
C1347 C 0.74273 0.7221 0.52278 0.0
C1348 C 0.72092 0.70877 0.54819 0.0
C1349 C 0.78386 0.74781 0.47968 0.0
C1350 C 0.75471 0.75311 0.50373 0.0
C1351 C 0.7343 0.74022 0.52436 0.0
C1352 C 0.74309 0.77189 0.50155 0.0
C1353 C 0.80557 0.76112 0.45397 0.0
C1354 C 0.76689 0.785 0.5345 0.0
C1355 C 0.76193 0.80276 0.51573 0.0
C1356 C 0.73351 0.80731 0.4634 0.0
C1357 C 0.70626 0.7947 0.43819 0.0
C1358 C 0.71112 0.77701 0.45707 0.0
H1359 H 0.82264 0.7546 0.42728 0.0
H1360 H 0.78715 0.77081 0.42324 0.0
H1361 H 0.8239 0.76864 0.49281 0.0
H1362 H 0.79135 0.78125 0.56992 0.0
H1363 H 0.78328 0.81226 0.53594 0.0
H1364 H 0.34237 0.83118 0.11906 0.0
H1365 H 0.35784 0.80124 0.09304 0.0
H1366 H 0.26086 0.80031 0.93876 0.0
H1367 H 0.24602 0.83035 0.96398 0.0
H1368 H 0.30553 0.77982 0.11331 0.0
H1369 H 0.32356 0.76423 0.88296 0.0
H1370 H 0.33233 0.78613 0.91713 0.0
H1371 H 0.28659 0.77952 0.87636 0.0
C1372 C 0.32594 0.82506 0.07683 0.0
C1373 C 0.29265 0.83275 0.04415 0.0
C1374 C 0.33463 0.80789 0.06229 0.0
C1375 C 0.31005 0.79839 0.01496 0.0
C1376 C 0.28036 0.80738 0.97533 0.0
H1377 H 0.21071 0.69983 0.92094 0.0
H1378 H 0.22443 0.73061 0.9538 0.0
C1379 C 0.27189 0.82465 0.98958 0.0
C1380 C 0.3087 0.77878 0.01862 0.0
H1381 H 0.29323 0.74155 0.92875 0.0
C1382 C 0.30386 0.77134 0.07346 0.0
C1383 C 0.30615 0.7678 0.9666 0.0
C1384 C 0.31281 0.77484 0.9077 0.0
C1385 C 0.29417 0.75344 0.0762 0.0
C1386 C 0.2894 0.74281 0.02289 0.0
C1387 C 0.29631 0.74993 0.96928 0.0
C1388 C 0.2759 0.72438 0.02005 0.0
C1389 C 0.2871 0.74625 0.1346 0.0
C1390 C 0.29879 0.71068 0.05072 0.0
C1391 C 0.29053 0.69301 0.03292 0.0
C1392 C 0.25985 0.68911 0.9834 0.0
C1393 C 0.23447 0.70258 0.9593 0.0
C1394 C 0.24252 0.72016 0.97745 0.0
H1395 H 0.28783 0.75685 0.16952 0.0
H1396 H 0.26008 0.73957 0.12359 0.0
H1397 H 0.30812 0.73617 0.15548 0.0
H1398 H 0.3247 0.71373 0.08365 0.0
H1399 H 0.31065 0.68283 0.05172 0.0
loop_
_geom_bond_atom_site_label_1
_geom_bond_atom_site_label_2
_geom_bond_distance
_geom_bond_site_symmetry_2
_ccdc_geom_bond_type
C0 O27 1.312 . S
C0 O28 1.208 . S
C1 O22 1.331 . S
C1 O25 1.244 . S
C2 O24 1.264 . S
C2 O26 1.273 . S
Mg3 O5 1.936 . S
Mg3 O12 2.081 . S
Mg3 O14 2.023 . S
Mg3 O18 2.031 . S
Mg3 O27 2.291 . S
Mg4 O5 1.963 . S
Mg4 O15 1.942 . S
Mg4 O16 1.955 . S
Mg4 O23 1.986 . S
O5 Mg3 1.936 . S
O5 Mg4 1.963 . S
O5 Mg6 1.915 . S
Mg6 O5 1.915 . S
Mg6 O7 1.915 . S
Mg6 O11 2.013 . S
Mg6 O17 2.114 . S
Mg6 O21 2.013 . S
Mg6 O27 2.114 . S
O7 Mg6 1.915 . S
O7 Mg8 1.936 . S
O7 Mg9 1.963 . S
Mg8 O7 1.936 . S
Mg8 O17 2.291 . S
Mg8 O22 2.081 . S
Mg8 O24 2.023 . S
Mg8 O28 2.031 . S
Mg9 O7 1.963 . S
Mg9 O13 1.986 . S
Mg9 O25 1.942 . S
Mg9 O26 1.955 . S
C10 O21 1.191 . S
C10 O23 1.307 . S
O11 Mg6 2.013 . S
O11 C30 1.191 . S
O12 Mg3 2.081 . S
O12 C20 1.331 . S
O13 Mg9 1.986 . S
O13 C30 1.307 . S
O14 Mg3 2.023 . S
O14 C29 1.264 . S
O15 Mg4 1.942 . S
O15 C20 1.244 . S
O16 Mg4 1.955 . S
O16 C29 1.273 . S
O17 Mg6 2.114 . S
O17 Mg8 2.291 . S
O17 C19 1.312 . S
O18 Mg3 2.031 . S
O18 C19 1.208 . S
C19 O17 1.312 . S
C19 O18 1.208 . S
C20 O12 1.331 . S
C20 O15 1.244 . S
O21 Mg6 2.013 . S
O21 C10 1.191 . S
O22 C1 1.331 . S
O22 Mg8 2.081 . S
O23 Mg4 1.986 . S
O23 C10 1.307 . S
O24 C2 1.264 . S
O24 Mg8 2.023 . S
O25 C1 1.244 . S
O25 Mg9 1.942 . S
O26 C2 1.273 . S
O26 Mg9 1.955 . S
O27 C0 1.312 . S
O27 Mg3 2.291 . S
O27 Mg6 2.114 . S
O28 C0 1.208 . S
O28 Mg8 2.031 . S
C29 O14 1.264 . S
C29 O16 1.273 . S
C30 O11 1.191 . S
C30 O13 1.307 . S
C31 O58 1.312 . S
C31 O59 1.208 1_556 S
C32 O53 1.331 . S
C32 O56 1.244 . S
C33 O55 1.264 . S
C33 O57 1.273 . S
Mg34 O36 1.936 . S
Mg34 O43 2.081 . S
Mg34 O45 2.023 . S
Mg34 O49 2.031 1_556 S
Mg34 O58 2.291 . S
Mg35 O36 1.963 . S
Mg35 O46 1.942 . S
Mg35 O47 1.955 . S
Mg35 O54 1.986 1_556 S
O36 Mg34 1.936 . S
O36 Mg35 1.963 . S
O36 Mg37 1.915 1_556 S
Mg37 O36 1.915 1_554 S
Mg37 O38 1.915 . S
Mg37 O42 2.013 . S
Mg37 O48 2.114 . S
Mg37 O52 2.013 . S
Mg37 O58 2.114 1_554 S
O38 Mg37 1.915 . S
O38 Mg39 1.936 . S
O38 Mg40 1.963 . S
Mg39 O38 1.936 . S
Mg39 O48 2.291 . S
Mg39 O53 2.081 . S
Mg39 O55 2.023 . S
Mg39 O59 2.031 . S
Mg40 O38 1.963 . S
Mg40 O44 1.986 . S
Mg40 O56 1.942 . S
Mg40 O57 1.955 . S
C41 O52 1.191 . S
C41 O54 1.307 . S
O42 Mg37 2.013 . S
O42 C61 1.191 . S
O43 Mg34 2.081 . S
O43 C51 1.331 . S
O44 Mg40 1.986 . S
O44 C61 1.307 . S
O45 Mg34 2.023 . S
O45 C60 1.264 . S
O46 Mg35 1.942 . S
O46 C51 1.244 . S
O47 Mg35 1.955 . S
O47 C60 1.273 . S
O48 Mg37 2.114 . S
O48 Mg39 2.291 . S
O48 C50 1.312 . S
O49 Mg34 2.031 1_554 S
O49 C50 1.208 . S
C50 O48 1.312 . S
C50 O49 1.208 . S
C51 O43 1.331 . S
C51 O46 1.244 . S
O52 Mg37 2.013 . S
O52 C41 1.191 . S
O53 C32 1.331 . S
O53 Mg39 2.081 . S
O54 Mg35 1.986 1_554 S
O54 C41 1.307 . S
O55 C33 1.264 . S
O55 Mg39 2.023 . S
O56 C32 1.244 . S
O56 Mg40 1.942 . S
O57 C33 1.273 . S
O57 Mg40 1.955 . S
O58 C31 1.312 . S
O58 Mg34 2.291 . S
O58 Mg37 2.114 1_556 S
O59 C31 1.208 1_554 S
O59 Mg39 2.031 . S
C60 O45 1.264 . S
C60 O47 1.273 . S
C61 O42 1.191 . S
C61 O44 1.307 . S
C62 O89 1.312 . S
C62 O90 1.208 . S
C63 O84 1.331 . S
C63 O87 1.244 . S
C64 O86 1.264 . S
C64 O88 1.273 . S
Mg65 O67 1.936 . S
Mg65 O74 2.081 . S
Mg65 O76 2.023 . S
Mg65 O80 2.031 . S
Mg65 O89 2.291 . S
Mg66 O67 1.963 . S
Mg66 O77 1.942 . S
Mg66 O78 1.955 . S
Mg66 O85 1.986 . S
O67 Mg65 1.936 . S
O67 Mg66 1.963 . S
O67 Mg68 1.915 . S
Mg68 O67 1.915 . S
Mg68 O69 1.915 . S
Mg68 O73 2.013 . S
Mg68 O79 2.114 . S
Mg68 O83 2.013 . S
Mg68 O89 2.114 . S
O69 Mg68 1.915 . S
O69 Mg70 1.936 . S
O69 Mg71 1.963 . S
Mg70 O69 1.936 . S
Mg70 O79 2.291 . S
Mg70 O84 2.081 . S
Mg70 O86 2.023 . S
Mg70 O90 2.031 . S
Mg71 O69 1.963 . S
Mg71 O75 1.986 . S
Mg71 O87 1.942 . S
Mg71 O88 1.955 . S
C72 O83 1.191 . S
C72 O85 1.307 . S
O73 Mg68 2.013 . S
O73 C92 1.191 . S
O74 Mg65 2.081 . S
O74 C82 1.331 . S
O75 Mg71 1.986 . S
O75 C92 1.307 . S
O76 Mg65 2.023 . S
O76 C91 1.264 . S
O77 Mg66 1.942 . S
O77 C82 1.244 . S
O78 Mg66 1.955 . S
O78 C91 1.273 . S
O79 Mg68 2.114 . S
O79 Mg70 2.291 . S
O79 C81 1.312 . S
O80 Mg65 2.031 . S
O80 C81 1.208 . S
C81 O79 1.312 . S
C81 O80 1.208 . S
C82 O74 1.331 . S
C82 O77 1.244 . S
O83 Mg68 2.013 . S
O83 C72 1.191 . S
O84 C63 1.331 . S
O84 Mg70 2.081 . S
O85 Mg66 1.986 . S
O85 C72 1.307 . S
O86 C64 1.264 . S
O86 Mg70 2.023 . S
O87 C63 1.244 . S
O87 Mg71 1.942 . S
O88 C64 1.273 . S
O88 Mg71 1.955 . S
O89 C62 1.312 . S
O89 Mg65 2.291 . S
O89 Mg68 2.114 . S
O90 C62 1.208 . S
O90 Mg70 2.031 . S
C91 O76 1.264 . S
C91 O78 1.273 . S
C92 O73 1.191 . S
C92 O75 1.307 . S
C93 O120 1.312 . S
C93 O121 1.208 1_554 S
C94 O115 1.331 . S
C94 O118 1.244 . S
C95 O117 1.264 . S
C95 O119 1.273 . S
Mg96 O98 1.936 . S
Mg96 O105 2.081 . S
Mg96 O107 2.023 . S
Mg96 O111 2.031 1_554 S
Mg96 O120 2.291 . S
Mg97 O98 1.963 . S
Mg97 O108 1.942 . S
Mg97 O109 1.955 . S
Mg97 O116 1.986 1_554 S
O98 Mg96 1.936 . S
O98 Mg97 1.963 . S
O98 Mg99 1.915 1_554 S
Mg99 O98 1.915 1_556 S
Mg99 O100 1.915 . S
Mg99 O104 2.013 . S
Mg99 O110 2.114 . S
Mg99 O114 2.013 . S
Mg99 O120 2.114 1_556 S
O100 Mg99 1.915 . S
O100 Mg101 1.936 . S
O100 Mg102 1.963 . S
Mg101 O100 1.936 . S
Mg101 O110 2.291 . S
Mg101 O115 2.081 . S
Mg101 O117 2.023 . S
Mg101 O121 2.031 . S
Mg102 O100 1.963 . S
Mg102 O106 1.986 . S
Mg102 O118 1.942 . S
Mg102 O119 1.955 . S
C103 O114 1.191 . S
C103 O116 1.307 . S
O104 Mg99 2.013 . S
O104 C123 1.191 . S
O105 Mg96 2.081 . S
O105 C113 1.331 . S
O106 Mg102 1.986 . S
O106 C123 1.307 . S
O107 Mg96 2.023 . S
O107 C122 1.264 . S
O108 Mg97 1.942 . S
O108 C113 1.244 . S
O109 Mg97 1.955 . S
O109 C122 1.273 . S
O110 Mg99 2.114 . S
O110 Mg101 2.291 . S
O110 C112 1.312 . S
O111 Mg96 2.031 1_556 S
O111 C112 1.208 . S
C112 O110 1.312 . S
C112 O111 1.208 . S
C113 O105 1.331 . S
C113 O108 1.244 . S
O114 Mg99 2.013 . S
O114 C103 1.191 . S
O115 C94 1.331 . S
O115 Mg101 2.081 . S
O116 Mg97 1.986 1_556 S
O116 C103 1.307 . S
O117 C95 1.264 . S
O117 Mg101 2.023 . S
O118 C94 1.244 . S
O118 Mg102 1.942 . S
O119 C95 1.273 . S
O119 Mg102 1.955 . S
O120 C93 1.312 . S
O120 Mg96 2.291 . S
O120 Mg99 2.114 1_554 S
O121 C93 1.208 1_556 S
O121 Mg101 2.031 . S
C122 O107 1.264 . S
C122 O109 1.273 . S
C123 O104 1.191 . S
C123 O106 1.307 . S
C124 O151 1.312 . S
C124 O152 1.208 . S
C125 O146 1.331 . S
C125 O149 1.244 . S
C126 O148 1.264 . S
C126 O150 1.273 . S
Mg127 O129 1.936 . S
Mg127 O136 2.081 . S
Mg127 O138 2.023 . S
Mg127 O142 2.031 . S
Mg127 O151 2.291 . S
Mg128 O129 1.963 . S
Mg128 O139 1.942 . S
Mg128 O140 1.955 . S
Mg128 O147 1.986 . S
O129 Mg127 1.936 . S
O129 Mg128 1.963 . S
O129 Mg130 1.915 . S
Mg130 O129 1.915 . S
Mg130 O131 1.915 . S
Mg130 O135 2.013 . S
Mg130 O141 2.114 . S
Mg130 O145 2.013 . S
Mg130 O151 2.114 . S
O131 Mg130 1.915 . S
O131 Mg132 1.936 . S
O131 Mg133 1.963 . S
Mg132 O131 1.936 . S
Mg132 O141 2.291 . S
Mg132 O146 2.081 . S
Mg132 O148 2.023 . S
Mg132 O152 2.031 . S
Mg133 O131 1.963 . S
Mg133 O137 1.986 . S
Mg133 O149 1.942 . S
Mg133 O150 1.955 . S
C134 O145 1.191 . S
C134 O147 1.307 . S
O135 Mg130 2.013 . S
O135 C154 1.191 . S
O136 Mg127 2.081 . S
O136 C144 1.331 . S
O137 Mg133 1.986 . S
O137 C154 1.307 . S
O138 Mg127 2.023 . S
O138 C153 1.264 . S
O139 Mg128 1.942 . S
O139 C144 1.244 . S
O140 Mg128 1.955 . S
O140 C153 1.273 . S
O141 Mg130 2.114 . S
O141 Mg132 2.291 . S
O141 C143 1.312 . S
O142 Mg127 2.031 . S
O142 C143 1.208 . S
C143 O141 1.312 . S
C143 O142 1.208 . S
C144 O136 1.331 . S
C144 O139 1.244 . S
O145 Mg130 2.013 . S
O145 C134 1.191 . S
O146 C125 1.331 . S
O146 Mg132 2.081 . S
O147 Mg128 1.986 . S
O147 C134 1.307 . S
O148 C126 1.264 . S
O148 Mg132 2.023 . S
O149 C125 1.244 . S
O149 Mg133 1.942 . S
O150 C126 1.273 . S
O150 Mg133 1.955 . S
O151 C124 1.312 . S
O151 Mg127 2.291 . S
O151 Mg130 2.114 . S
O152 C124 1.208 . S
O152 Mg132 2.031 . S
C153 O138 1.264 . S
C153 O140 1.273 . S
C154 O135 1.191 . S
C154 O137 1.307 . S
C155 O182 1.312 . S
C155 O183 1.208 1_556 S
C156 O177 1.331 . S
C156 O180 1.244 . S
C157 O179 1.264 . S
C157 O181 1.273 . S
Mg158 O160 1.936 . S
Mg158 O167 2.081 . S
Mg158 O169 2.023 . S
Mg158 O173 2.031 1_556 S
Mg158 O182 2.291 . S
Mg159 O160 1.963 . S
Mg159 O170 1.942 . S
Mg159 O171 1.955 . S
Mg159 O178 1.986 1_556 S
O160 Mg158 1.936 . S
O160 Mg159 1.963 . S
O160 Mg161 1.915 1_556 S
Mg161 O160 1.915 1_554 S
Mg161 O162 1.915 . S
Mg161 O166 2.013 . S
Mg161 O172 2.114 . S
Mg161 O176 2.013 . S
Mg161 O182 2.114 1_554 S
O162 Mg161 1.915 . S
O162 Mg163 1.936 . S
O162 Mg164 1.963 . S
Mg163 O162 1.936 . S
Mg163 O172 2.291 . S
Mg163 O177 2.081 . S
Mg163 O179 2.023 . S
Mg163 O183 2.031 . S
Mg164 O162 1.963 . S
Mg164 O168 1.986 . S
Mg164 O180 1.942 . S
Mg164 O181 1.955 . S
C165 O176 1.191 . S
C165 O178 1.307 . S
O166 Mg161 2.013 . S
O166 C185 1.191 . S
O167 Mg158 2.081 . S
O167 C175 1.331 . S
O168 Mg164 1.986 . S
O168 C185 1.307 . S
O169 Mg158 2.023 . S
O169 C184 1.264 . S
O170 Mg159 1.942 . S
O170 C175 1.244 . S
O171 Mg159 1.955 . S
O171 C184 1.273 . S
O172 Mg161 2.114 . S
O172 Mg163 2.291 . S
O172 C174 1.312 . S
O173 Mg158 2.031 1_554 S
O173 C174 1.208 . S
C174 O172 1.312 . S
C174 O173 1.208 . S
C175 O167 1.331 . S
C175 O170 1.244 . S
O176 Mg161 2.013 . S
O176 C165 1.191 . S
O177 C156 1.331 . S
O177 Mg163 2.081 . S
O178 Mg159 1.986 1_554 S
O178 C165 1.307 . S
O179 C157 1.264 . S
O179 Mg163 2.023 . S
O180 C156 1.244 . S
O180 Mg164 1.942 . S
O181 C157 1.273 . S
O181 Mg164 1.955 . S
O182 C155 1.312 . S
O182 Mg158 2.291 . S
O182 Mg161 2.114 1_556 S
O183 C155 1.208 1_554 S
O183 Mg163 2.031 . S
C184 O169 1.264 . S
C184 O171 1.273 . S
C185 O166 1.191 . S
C185 O168 1.307 . S
C186 O213 1.312 . S
C186 O214 1.208 . S
C187 O208 1.331 . S
C187 O211 1.244 . S
C188 O210 1.264 . S
C188 O212 1.273 . S
Mg189 O191 1.936 . S
Mg189 O198 2.081 . S
Mg189 O200 2.023 . S
Mg189 O204 2.031 . S
Mg189 O213 2.291 . S
Mg190 O191 1.963 . S
Mg190 O201 1.942 . S
Mg190 O202 1.955 . S
Mg190 O209 1.986 . S
O191 Mg189 1.936 . S
O191 Mg190 1.963 . S
O191 Mg192 1.915 . S
Mg192 O191 1.915 . S
Mg192 O193 1.915 . S
Mg192 O197 2.013 . S
Mg192 O203 2.114 . S
Mg192 O207 2.013 . S
Mg192 O213 2.114 . S
O193 Mg192 1.915 . S
O193 Mg194 1.936 . S
O193 Mg195 1.963 . S
Mg194 O193 1.936 . S
Mg194 O203 2.291 . S
Mg194 O208 2.081 . S
Mg194 O210 2.023 . S
Mg194 O214 2.031 . S
Mg195 O193 1.963 . S
Mg195 O199 1.986 . S
Mg195 O211 1.942 . S
Mg195 O212 1.955 . S
C196 O207 1.191 . S
C196 O209 1.307 . S
O197 Mg192 2.013 . S
O197 C216 1.191 . S
O198 Mg189 2.081 . S
O198 C206 1.331 . S
O199 Mg195 1.986 . S
O199 C216 1.307 . S
O200 Mg189 2.023 . S
O200 C215 1.264 . S
O201 Mg190 1.942 . S
O201 C206 1.244 . S
O202 Mg190 1.955 . S
O202 C215 1.273 . S
O203 Mg192 2.114 . S
O203 Mg194 2.291 . S
O203 C205 1.312 . S
O204 Mg189 2.031 . S
O204 C205 1.208 . S
C205 O203 1.312 . S
C205 O204 1.208 . S
C206 O198 1.331 . S
C206 O201 1.244 . S
O207 Mg192 2.013 . S
O207 C196 1.191 . S
O208 C187 1.331 . S
O208 Mg194 2.081 . S
O209 Mg190 1.986 . S
O209 C196 1.307 . S
O210 C188 1.264 . S
O210 Mg194 2.023 . S
O211 C187 1.244 . S
O211 Mg195 1.942 . S
O212 C188 1.273 . S
O212 Mg195 1.955 . S
O213 C186 1.312 . S
O213 Mg189 2.291 . S
O213 Mg192 2.114 . S
O214 C186 1.208 . S
O214 Mg194 2.031 . S
C215 O200 1.264 . S
C215 O202 1.273 . S
C216 O197 1.191 . S
C216 O199 1.307 . S
C217 O244 1.312 . S
C217 O245 1.208 1_554 S
C218 O239 1.331 . S
C218 O242 1.244 . S
C219 O241 1.264 . S
C219 O243 1.273 . S
Mg220 O222 1.936 . S
Mg220 O229 2.081 . S
Mg220 O231 2.023 . S
Mg220 O235 2.031 1_554 S
Mg220 O244 2.291 . S
Mg221 O222 1.963 . S
Mg221 O232 1.942 . S
Mg221 O233 1.955 . S
Mg221 O240 1.986 1_554 S
O222 Mg220 1.936 . S
O222 Mg221 1.963 . S
O222 Mg223 1.915 1_554 S
Mg223 O222 1.915 1_556 S
Mg223 O224 1.915 . S
Mg223 O228 2.013 . S
Mg223 O234 2.114 . S
Mg223 O238 2.013 . S
Mg223 O244 2.114 1_556 S
O224 Mg223 1.915 . S
O224 Mg225 1.936 . S
O224 Mg226 1.963 . S
Mg225 O224 1.936 . S
Mg225 O234 2.291 . S
Mg225 O239 2.081 . S
Mg225 O241 2.023 . S
Mg225 O245 2.031 . S
Mg226 O224 1.963 . S
Mg226 O230 1.986 . S
Mg226 O242 1.942 . S
Mg226 O243 1.955 . S
C227 O238 1.191 . S
C227 O240 1.307 . S
O228 Mg223 2.013 . S
O228 C247 1.191 . S
O229 Mg220 2.081 . S
O229 C237 1.331 . S
O230 Mg226 1.986 . S
O230 C247 1.307 . S
O231 Mg220 2.023 . S
O231 C246 1.264 . S
O232 Mg221 1.942 . S
O232 C237 1.244 . S
O233 Mg221 1.955 . S
O233 C246 1.273 . S
O234 Mg223 2.114 . S
O234 Mg225 2.291 . S
O234 C236 1.312 . S
O235 Mg220 2.031 1_556 S
O235 C236 1.208 . S
C236 O234 1.312 . S
C236 O235 1.208 . S
C237 O229 1.331 . S
C237 O232 1.244 . S
O238 Mg223 2.013 . S
O238 C227 1.191 . S
O239 C218 1.331 . S
O239 Mg225 2.081 . S
O240 Mg221 1.986 1_556 S
O240 C227 1.307 . S
O241 C219 1.264 . S
O241 Mg225 2.023 . S
O242 C218 1.244 . S
O242 Mg226 1.942 . S
O243 C219 1.273 . S
O243 Mg226 1.955 . S
O244 C217 1.312 . S
O244 Mg220 2.291 . S
O244 Mg223 2.114 1_554 S
O245 C217 1.208 1_556 S
O245 Mg225 2.031 . S
C246 O231 1.264 . S
C246 O233 1.273 . S
C247 O228 1.191 . S
C247 O230 1.307 . S
H248 C256 0.929 . S
H249 C258 0.930 . S
H250 C260 0.930 . S
H251 C263 0.929 . S
H252 C266 0.930 . S
H253 C268 0.960 . S
H254 C268 0.960 . S
H255 C268 0.960 . S
C256 H248 0.929 . S
C256 C257 1.377 . S
C256 C258 1.384 . S
C257 C256 1.377 . S
C257 C263 1.390 . S
C258 H249 0.930 . S
C258 C256 1.384 . S
C258 C259 1.372 . S
C259 C258 1.372 . S
C259 C260 1.400 . S
C259 C264 1.490 . S
C260 H250 0.930 . S
C260 C259 1.400 . S
C260 C263 1.386 . S
H261 C277 0.930 . S
H262 C278 0.931 . S
C263 H251 0.929 . S
C263 C257 1.390 . S
C263 C260 1.386 . S
C264 C259 1.490 . S
C264 C266 1.395 . S
C264 C267 1.403 . S
H265 C271 0.930 . S
C266 H252 0.930 . S
C266 C264 1.395 . S
C266 C269 1.403 . S
C267 C264 1.403 . S
C267 C268 1.524 . S
C267 C271 1.400 . S
C268 H253 0.960 . S
C268 H254 0.960 . S
C268 H255 0.960 . S
C268 C267 1.524 . S
C269 C266 1.403 . S
C269 C270 1.392 . S
C269 C273 1.495 . S
C270 C269 1.392 . S
C270 C271 1.385 . S
C270 C272 1.478 . S
C271 H265 0.930 . S
C271 C267 1.400 . S
C271 C270 1.385 . S
C272 C270 1.478 . S
C272 C274 1.381 . S
C272 C278 1.383 . S
C273 C269 1.495 . S
C273 H279 0.959 . S
C273 H280 0.961 . S
C273 H281 0.960 . S
C274 C272 1.381 . S
C274 C275 1.394 . S
C274 H282 0.930 . S
C275 C274 1.394 . S
C275 C276 1.383 . S
C275 H283 0.929 . S
C276 C275 1.383 . S
C276 C277 1.377 . S
C277 H261 0.930 . S
C277 C276 1.377 . S
C277 C278 1.379 . S
C278 H262 0.931 . S
C278 C272 1.383 . S
C278 C277 1.379 . S
H279 C273 0.959 . S
H280 C273 0.961 . S
H281 C273 0.960 . S
H282 C274 0.930 . S
H283 C275 0.929 . S
H284 C292 0.929 . S
H285 C294 0.930 . S
H286 C296 0.930 . S
H287 C299 0.929 . S
H288 C302 0.930 . S
H289 C304 0.960 . S
H290 C304 0.960 . S
H291 C304 0.960 . S
C292 H284 0.929 . S
C292 C293 1.377 . S
C292 C294 1.384 . S
C293 C292 1.377 . S
C293 C299 1.390 . S
C294 H285 0.930 . S
C294 C292 1.384 . S
C294 C295 1.372 . S
C295 C294 1.372 . S
C295 C296 1.400 . S
C295 C300 1.490 . S
C296 H286 0.930 . S
C296 C295 1.400 . S
C296 C299 1.386 . S
H297 C313 0.930 . S
H298 C314 0.931 . S
C299 H287 0.929 . S
C299 C293 1.390 . S
C299 C296 1.386 . S
C300 C295 1.490 . S
C300 C302 1.395 . S
C300 C303 1.403 . S
H301 C307 0.930 . S
C302 H288 0.930 . S
C302 C300 1.395 . S
C302 C305 1.403 . S
C303 C300 1.403 . S
C303 C304 1.524 . S
C303 C307 1.400 . S
C304 H289 0.960 . S
C304 H290 0.960 . S
C304 H291 0.960 . S
C304 C303 1.524 . S
C305 C302 1.403 . S
C305 C306 1.392 . S
C305 C309 1.495 . S
C306 C305 1.392 . S
C306 C307 1.385 . S
C306 C308 1.478 . S
C307 H301 0.930 . S
C307 C303 1.400 . S
C307 C306 1.385 . S
C308 C306 1.478 . S
C308 C310 1.381 . S
C308 C314 1.383 . S
C309 C305 1.495 . S
C309 H315 0.959 . S
C309 H316 0.961 . S
C309 H317 0.960 . S
C310 C308 1.381 . S
C310 C311 1.394 . S
C310 H318 0.930 . S
C311 C310 1.394 . S
C311 C312 1.383 . S
C311 H319 0.929 . S
C312 C311 1.383 . S
C312 C313 1.377 . S
C313 H297 0.930 . S
C313 C312 1.377 . S
C313 C314 1.379 . S
C314 H298 0.931 . S
C314 C308 1.383 . S
C314 C313 1.379 . S
H315 C309 0.959 . S
H316 C309 0.961 . S
H317 C309 0.960 . S
H318 C310 0.930 . S
H319 C311 0.929 . S
H320 C328 0.929 . S
H321 C330 0.930 . S
H322 C332 0.930 . S
H323 C335 0.929 . S
H324 C338 0.930 . S
H325 C340 0.960 . S
H326 C340 0.960 . S
H327 C340 0.960 . S
C328 H320 0.929 . S
C328 C329 1.377 . S
C328 C330 1.384 . S
C329 C328 1.377 . S
C329 C335 1.390 . S
C330 H321 0.930 . S
C330 C328 1.384 . S
C330 C331 1.372 . S
C331 C330 1.372 . S
C331 C332 1.400 . S
C331 C336 1.490 . S
C332 H322 0.930 . S
C332 C331 1.400 . S
C332 C335 1.386 . S
H333 C349 0.930 . S
H334 C350 0.931 . S
C335 H323 0.929 . S
C335 C329 1.390 . S
C335 C332 1.386 . S
C336 C331 1.490 . S
C336 C338 1.395 . S
C336 C339 1.403 . S
H337 C343 0.930 . S
C338 H324 0.930 . S
C338 C336 1.395 . S
C338 C341 1.403 . S
C339 C336 1.403 . S
C339 C340 1.524 . S
C339 C343 1.400 . S
C340 H325 0.960 . S
C340 H326 0.960 . S
C340 H327 0.960 . S
C340 C339 1.524 . S
C341 C338 1.403 . S
C341 C342 1.392 . S
C341 C345 1.495 . S
C342 C341 1.392 . S
C342 C343 1.385 . S
C342 C344 1.478 . S
C343 H337 0.930 . S
C343 C339 1.400 . S
C343 C342 1.385 . S
C344 C342 1.478 . S
C344 C346 1.381 . S
C344 C350 1.383 . S
C345 C341 1.495 . S
C345 H351 0.959 . S
C345 H352 0.961 . S
C345 H353 0.960 . S
C346 C344 1.381 . S
C346 C347 1.394 . S
C346 H354 0.930 . S
C347 C346 1.394 . S
C347 C348 1.383 . S
C347 H355 0.929 . S
C348 C347 1.383 . S
C348 C349 1.377 . S
C349 H333 0.930 . S
C349 C348 1.377 . S
C349 C350 1.379 . S
C350 H334 0.931 . S
C350 C344 1.383 . S
C350 C349 1.379 . S
H351 C345 0.959 . S
H352 C345 0.961 . S
H353 C345 0.960 . S
H354 C346 0.930 . S
H355 C347 0.929 . S
H356 C364 0.929 . S
H357 C366 0.930 . S
H358 C368 0.930 . S
H359 C371 0.929 . S
H360 C374 0.930 . S
H361 C376 0.960 . S
H362 C376 0.960 . S
H363 C376 0.960 . S
C364 H356 0.929 . S
C364 C365 1.377 . S
C364 C366 1.384 . S
C365 C364 1.377 . S
C365 C371 1.390 . S
C366 H357 0.930 . S
C366 C364 1.384 . S
C366 C367 1.372 . S
C367 C366 1.372 . S
C367 C368 1.400 . S
C367 C372 1.490 . S
C368 H358 0.930 . S
C368 C367 1.400 . S
C368 C371 1.386 . S
H369 C385 0.930 . S
H370 C386 0.931 . S
C371 H359 0.929 . S
C371 C365 1.390 . S
C371 C368 1.386 . S
C372 C367 1.490 . S
C372 C374 1.395 . S
C372 C375 1.403 . S
H373 C379 0.930 . S
C374 H360 0.930 . S
C374 C372 1.395 . S
C374 C377 1.403 . S
C375 C372 1.403 . S
C375 C376 1.524 . S
C375 C379 1.400 . S
C376 H361 0.960 . S
C376 H362 0.960 . S
C376 H363 0.960 . S
C376 C375 1.524 . S
C377 C374 1.403 . S
C377 C378 1.392 . S
C377 C381 1.495 . S
C378 C377 1.392 . S
C378 C379 1.385 . S
C378 C380 1.478 . S
C379 H373 0.930 . S
C379 C375 1.400 . S
C379 C378 1.385 . S
C380 C378 1.478 . S
C380 C382 1.381 . S
C380 C386 1.383 . S
C381 C377 1.495 . S
C381 H387 0.959 . S
C381 H388 0.961 . S
C381 H389 0.960 . S
C382 C380 1.381 . S
C382 C383 1.394 . S
C382 H390 0.930 . S
C383 C382 1.394 . S
C383 C384 1.383 . S
C383 H391 0.929 . S
C384 C383 1.383 . S
C384 C385 1.377 . S
C385 H369 0.930 . S
C385 C384 1.377 . S
C385 C386 1.379 . S
C386 H370 0.931 . S
C386 C380 1.383 . S
C386 C385 1.379 . S
H387 C381 0.959 . S
H388 C381 0.961 . S
H389 C381 0.960 . S
H390 C382 0.930 . S
H391 C383 0.929 . S
H392 C400 0.929 . S
H393 C402 0.930 . S
H394 C404 0.930 . S
H395 C407 0.929 . S
H396 C410 0.928 1_545 S
H397 C412 0.960 . S
H398 C412 0.960 . S
H399 C412 0.960 . S
C400 H392 0.929 . S
C400 C401 1.377 . S
C400 C402 1.384 . S
C401 C400 1.377 . S
C401 C407 1.390 . S
C402 H393 0.930 . S
C402 C400 1.384 . S
C402 C403 1.372 . S
C403 C402 1.372 . S
C403 C404 1.400 . S
C403 C408 1.490 . S
C404 H394 0.930 . S
C404 C403 1.400 . S
C404 C407 1.386 . S
H405 C421 0.930 . S
H406 C422 0.931 . S
C407 H395 0.929 . S
C407 C401 1.390 . S
C407 C404 1.386 . S
C408 C403 1.490 . S
C408 C410 1.352 1_545 S
C408 C411 1.403 . S
H409 C415 0.930 . S
C410 H396 0.928 1_565 S
C410 C408 1.352 1_565 S
C410 C413 1.451 . S
C411 C408 1.403 . S
C411 C412 1.524 . S
C411 C415 1.400 1_545 S
C412 H397 0.960 . S
C412 H398 0.960 . S
C412 H399 0.960 . S
C412 C411 1.524 . S
C413 C410 1.451 . S
C413 C414 1.392 . S
C413 C417 1.495 . S
C414 C413 1.392 . S
C414 C415 1.385 . S
C414 C416 1.478 . S
C415 H409 0.930 . S
C415 C411 1.400 1_565 S
C415 C414 1.385 . S
C416 C414 1.478 . S
C416 C418 1.381 . S
C416 C422 1.383 . S
C417 C413 1.495 . S
C417 H423 0.959 . S
C417 H424 0.961 . S
C417 H425 0.960 . S
C418 C416 1.381 . S
C418 C419 1.394 . S
C418 H426 0.930 . S
C419 C418 1.394 . S
C419 C420 1.383 . S
C419 H427 0.929 . S
C420 C419 1.383 . S
C420 C421 1.377 . S
C421 H405 0.930 . S
C421 C420 1.377 . S
C421 C422 1.379 . S
C422 H406 0.931 . S
C422 C416 1.383 . S
C422 C421 1.379 . S
H423 C417 0.959 . S
H424 C417 0.961 . S
H425 C417 0.960 . S
H426 C418 0.930 . S
H427 C419 0.929 . S
H428 C436 0.929 . S
H429 C438 0.930 . S
H430 C440 0.930 . S
H431 C443 0.929 . S
H432 C446 0.930 . S
H433 C448 0.960 . S
H434 C448 0.960 . S
H435 C448 0.960 . S
C436 H428 0.929 . S
C436 C437 1.377 . S
C436 C438 1.384 . S
C437 C436 1.377 . S
C437 C443 1.390 . S
C438 H429 0.930 . S
C438 C436 1.384 . S
C438 C439 1.372 . S
C439 C438 1.372 . S
C439 C440 1.400 . S
C439 C444 1.490 . S
C440 H430 0.930 . S
C440 C439 1.400 . S
C440 C443 1.386 . S
H441 C457 0.930 . S
H442 C458 0.931 . S
C443 H431 0.929 . S
C443 C437 1.390 . S
C443 C440 1.386 . S
C444 C439 1.490 . S
C444 C446 1.395 . S
C444 C447 1.403 . S
H445 C451 0.930 . S
C446 H432 0.930 . S
C446 C444 1.395 . S
C446 C449 1.403 1_545 S
C447 C444 1.403 . S
C447 C448 1.524 . S
C447 C451 1.400 1_545 S
C448 H433 0.960 . S
C448 H434 0.960 . S
C448 H435 0.960 . S
C448 C447 1.524 . S
C449 C446 1.403 1_565 S
C449 C450 1.392 . S
C449 C453 1.495 . S
C450 C449 1.392 . S
C450 C451 1.385 . S
C450 C452 1.478 . S
C451 H445 0.930 . S
C451 C447 1.400 1_565 S
C451 C450 1.385 . S
C452 C450 1.478 . S
C452 C454 1.381 . S
C452 C458 1.383 . S
C453 C449 1.495 . S
C453 H459 0.959 . S
C453 H460 0.961 . S
C453 H461 0.960 . S
C454 C452 1.381 . S
C454 C455 1.394 . S
C454 H462 0.930 . S
C455 C454 1.394 . S
C455 C456 1.383 . S
C455 H463 0.929 . S
C456 C455 1.383 . S
C456 C457 1.377 . S
C457 H441 0.930 . S
C457 C456 1.377 . S
C457 C458 1.379 . S
C458 H442 0.931 . S
C458 C452 1.383 . S
C458 C457 1.379 . S
H459 C453 0.959 . S
H460 C453 0.961 . S
H461 C453 0.960 . S
H462 C454 0.930 . S
H463 C455 0.929 . S
H464 C472 0.929 . S
H465 C474 0.930 . S
H466 C476 0.930 . S
H467 C479 0.929 . S
H468 C482 0.928 . S
H469 C484 0.960 . S
H470 C484 0.960 . S
H471 C484 0.960 . S
C472 H464 0.929 . S
C472 C473 1.377 . S
C472 C474 1.384 . S
C473 C472 1.377 . S
C473 C479 1.390 . S
C474 H465 0.930 . S
C474 C472 1.384 . S
C474 C475 1.372 . S
C475 C474 1.372 . S
C475 C476 1.400 . S
C475 C480 1.490 . S
C476 H466 0.930 . S
C476 C475 1.400 . S
C476 C479 1.386 . S
H477 C493 0.930 . S
H478 C494 0.931 . S
C479 H467 0.929 . S
C479 C473 1.390 . S
C479 C476 1.386 . S
C480 C475 1.490 . S
C480 C482 1.344 1_565 S
C480 C483 1.403 . S
H481 C487 0.930 . S
C482 H468 0.928 . S
C482 C480 1.344 1_545 S
C482 C485 1.459 . S
C483 C480 1.403 . S
C483 C484 1.524 . S
C483 C487 1.400 1_565 S
C484 H469 0.960 . S
C484 H470 0.960 . S
C484 H471 0.960 . S
C484 C483 1.524 . S
C485 C482 1.459 . S
C485 C486 1.392 . S
C485 C489 1.495 . S
C486 C485 1.392 . S
C486 C487 1.385 . S
C486 C488 1.478 . S
C487 H481 0.930 . S
C487 C483 1.400 1_545 S
C487 C486 1.385 . S
C488 C486 1.478 . S
C488 C490 1.381 . S
C488 C494 1.383 . S
C489 C485 1.495 . S
C489 H495 0.959 . S
C489 H496 0.961 . S
C489 H497 0.960 . S
C490 C488 1.381 . S
C490 C491 1.394 . S
C490 H498 0.930 . S
C491 C490 1.394 . S
C491 C492 1.383 . S
C491 H499 0.929 . S
C492 C491 1.383 . S
C492 C493 1.377 . S
C493 H477 0.930 . S
C493 C492 1.377 . S
C493 C494 1.379 . S
C494 H478 0.931 . S
C494 C488 1.383 . S
C494 C493 1.379 . S
H495 C489 0.959 . S
H496 C489 0.961 . S
H497 C489 0.960 . S
H498 C490 0.930 . S
H499 C491 0.929 . S
H500 C508 0.929 . S
H501 C510 0.930 . S
H502 C512 0.930 . S
H503 C515 0.929 . S
H504 C518 0.930 . S
H505 C520 0.960 . S
H506 C520 0.960 1_565 S
H507 C520 0.960 1_565 S
C508 H500 0.929 . S
C508 C509 1.377 . S
C508 C510 1.384 . S
C509 C508 1.377 . S
C509 C515 1.390 . S
C510 H501 0.930 . S
C510 C508 1.384 . S
C510 C511 1.372 . S
C511 C510 1.372 . S
C511 C512 1.400 . S
C511 C516 1.490 . S
C512 H502 0.930 . S
C512 C511 1.400 . S
C512 C515 1.386 . S
H513 C529 0.930 . S
H514 C530 0.931 . S
C515 H503 0.929 . S
C515 C509 1.390 . S
C515 C512 1.386 . S
C516 C511 1.490 . S
C516 C518 1.395 . S
C516 C519 1.403 1_565 S
H517 C523 0.930 . S
C518 H504 0.930 . S
C518 C516 1.395 . S
C518 C521 1.403 . S
C519 C516 1.403 1_545 S
C519 C520 1.524 . S
C519 C523 1.400 . S
C520 H505 0.960 . S
C520 H506 0.960 1_545 S
C520 H507 0.960 1_545 S
C520 C519 1.524 . S
C521 C518 1.403 . S
C521 C522 1.392 1_565 S
C521 C525 1.495 . S
C522 C521 1.392 1_545 S
C522 C523 1.385 . S
C522 C524 1.478 . S
C523 H517 0.930 . S
C523 C519 1.400 . S
C523 C522 1.385 . S
C524 C522 1.478 . S
C524 C526 1.381 . S
C524 C530 1.383 . S
C525 C521 1.495 . S
C525 H531 0.959 . S
C525 H532 0.961 1_565 S
C525 H533 0.975 . S
C526 C524 1.381 . S
C526 C527 1.394 . S
C526 H534 0.930 . S
C527 C526 1.394 . S
C527 C528 1.383 . S
C527 H535 0.929 . S
C528 C527 1.383 . S
C528 C529 1.377 . S
C529 H513 0.930 . S
C529 C528 1.377 . S
C529 C530 1.379 . S
C530 H514 0.931 . S
C530 C524 1.383 . S
C530 C529 1.379 . S
H531 C525 0.959 . S
H532 C525 0.961 1_545 S
H533 C525 0.975 . S
H534 C526 0.930 . S
H535 C527 0.929 . S
H536 C544 0.929 . S
H537 C546 0.930 . S
H538 C548 0.930 . S
H539 C551 0.929 . S
H540 C554 0.930 . S
H541 C556 0.960 . S
H542 C556 0.960 . S
H543 C556 0.960 . S
C544 H536 0.929 . S
C544 C545 1.377 . S
C544 C546 1.384 . S
C545 C544 1.377 . S
C545 C551 1.390 . S
C546 H537 0.930 . S
C546 C544 1.384 . S
C546 C547 1.372 . S
C547 C546 1.372 . S
C547 C548 1.400 . S
C547 C552 1.490 . S
C548 H538 0.930 . S
C548 C547 1.400 . S
C548 C551 1.386 . S
H549 C565 0.930 . S
H550 C566 0.931 . S
C551 H539 0.929 . S
C551 C545 1.390 . S
C551 C548 1.386 . S
C552 C547 1.490 . S
C552 C554 1.395 . S
C552 C555 1.403 . S
H553 C559 0.930 . S
C554 H540 0.930 . S
C554 C552 1.395 . S
C554 C557 1.403 1_655 S
C555 C552 1.403 . S
C555 C556 1.524 . S
C555 C559 1.400 1_655 S
C556 H541 0.960 . S
C556 H542 0.960 . S
C556 H543 0.960 . S
C556 C555 1.524 . S
C557 C554 1.403 1_455 S
C557 C558 1.392 . S
C557 C561 1.495 . S
C558 C557 1.392 . S
C558 C559 1.385 . S
C558 C560 1.478 . S
C559 H553 0.930 . S
C559 C555 1.400 1_455 S
C559 C558 1.385 . S
C560 C558 1.478 . S
C560 C562 1.381 . S
C560 C566 1.383 . S
C561 C557 1.495 . S
C561 H567 0.959 . S
C561 H568 0.961 . S
C561 H569 0.960 . S
C562 C560 1.381 . S
C562 C563 1.394 . S
C562 H570 0.930 . S
C563 C562 1.394 . S
C563 C564 1.383 . S
C563 H571 0.929 . S
C564 C563 1.383 . S
C564 C565 1.377 . S
C565 H549 0.930 . S
C565 C564 1.377 . S
C565 C566 1.379 . S
C566 H550 0.931 . S
C566 C560 1.383 . S
C566 C565 1.379 . S
H567 C561 0.959 . S
H568 C561 0.961 . S
H569 C561 0.960 . S
H570 C562 0.930 . S
H571 C563 0.929 . S
H572 C580 0.929 . S
H573 C582 0.930 . S
H574 C584 0.930 . S
H575 C587 0.929 . S
H576 C590 0.930 . S
H577 C592 0.960 . S
H578 C592 0.960 . S
H579 C592 0.960 . S
C580 H572 0.929 . S
C580 C581 1.377 . S
C580 C582 1.384 . S
C581 C580 1.377 . S
C581 C587 1.390 . S
C582 H573 0.930 . S
C582 C580 1.384 . S
C582 C583 1.372 . S
C583 C582 1.372 . S
C583 C584 1.400 . S
C583 C588 1.490 . S
C584 H574 0.930 . S
C584 C583 1.400 . S
C584 C587 1.386 . S
H585 C601 0.930 . S
H586 C602 0.931 . S
C587 H575 0.929 . S
C587 C581 1.390 . S
C587 C584 1.386 . S
C588 C583 1.490 . S
C588 C590 1.395 . S
C588 C591 1.403 . S
H589 C595 0.930 . S
C590 H576 0.930 . S
C590 C588 1.395 . S
C590 C593 1.403 1_455 S
C591 C588 1.403 . S
C591 C592 1.524 . S
C591 C595 1.400 1_455 S
C592 H577 0.960 . S
C592 H578 0.960 . S
C592 H579 0.960 . S
C592 C591 1.524 . S
C593 C590 1.403 1_655 S
C593 C594 1.392 . S
C593 C597 1.495 . S
C594 C593 1.392 . S
C594 C595 1.385 . S
C594 C596 1.478 . S
C595 H589 0.930 . S
C595 C591 1.400 1_655 S
C595 C594 1.385 . S
C596 C594 1.478 . S
C596 C598 1.381 . S
C596 C602 1.383 . S
C597 C593 1.495 . S
C597 H603 0.959 . S
C597 H604 0.961 . S
C597 H605 0.960 . S
C598 C596 1.381 . S
C598 C599 1.394 . S
C598 H606 0.930 . S
C599 C598 1.394 . S
C599 C600 1.383 . S
C599 H607 0.929 . S
C600 C599 1.383 . S
C600 C601 1.377 . S
C601 H585 0.930 . S
C601 C600 1.377 . S
C601 C602 1.379 . S
C602 H586 0.931 . S
C602 C596 1.383 . S
C602 C601 1.379 . S
H603 C597 0.959 . S
H604 C597 0.961 . S
H605 C597 0.960 . S
H606 C598 0.930 . S
H607 C599 0.929 . S
H608 C616 0.929 . S
H609 C618 0.930 . S
H610 C620 0.930 . S
H611 C623 0.929 . S
H612 C626 0.930 . S
H613 C628 0.960 . S
H614 C628 0.960 . S
H615 C628 0.960 . S
C616 H608 0.929 . S
C616 C617 1.377 . S
C616 C618 1.384 . S
C617 C616 1.377 . S
C617 C623 1.390 . S
C618 H609 0.930 . S
C618 C616 1.384 . S
C618 C619 1.372 . S
C619 C618 1.372 . S
C619 C620 1.400 . S
C619 C624 1.490 . S
C620 H610 0.930 . S
C620 C619 1.400 . S
C620 C623 1.386 . S
H621 C637 0.930 . S
H622 C638 0.931 . S
C623 H611 0.929 . S
C623 C617 1.390 . S
C623 C620 1.386 . S
C624 C619 1.490 . S
C624 C626 1.395 . S
C624 C627 1.403 . S
H625 C631 0.930 . S
C626 H612 0.930 . S
C626 C624 1.395 . S
C626 C629 1.403 . S
C627 C624 1.403 . S
C627 C628 1.524 . S
C627 C631 1.400 . S
C628 H613 0.960 . S
C628 H614 0.960 . S
C628 H615 0.960 . S
C628 C627 1.524 . S
C629 C626 1.403 . S
C629 C630 1.392 . S
C629 C633 1.495 . S
C630 C629 1.392 . S
C630 C631 1.385 . S
C630 C632 1.478 . S
C631 H625 0.930 . S
C631 C627 1.400 . S
C631 C630 1.385 . S
C632 C630 1.478 . S
C632 C634 1.381 . S
C632 C638 1.383 . S
C633 C629 1.495 . S
C633 H639 0.959 . S
C633 H640 0.961 . S
C633 H641 0.960 . S
C634 C632 1.381 . S
C634 C635 1.394 . S
C634 H642 0.930 . S
C635 C634 1.394 . S
C635 C636 1.383 . S
C635 H643 0.929 . S
C636 C635 1.383 . S
C636 C637 1.377 . S
C637 H621 0.930 . S
C637 C636 1.377 . S
C637 C638 1.379 . S
C638 H622 0.931 . S
C638 C632 1.383 . S
C638 C637 1.379 . S
H639 C633 0.959 . S
H640 C633 0.961 . S
H641 C633 0.960 . S
H642 C634 0.930 . S
H643 C635 0.929 . S
H644 C652 0.929 . S
H645 C654 0.930 . S
H646 C656 0.930 . S
H647 C659 0.929 . S
H648 C662 0.930 . S
H649 C664 0.960 . S
H650 C664 0.960 . S
H651 C664 0.960 . S
C652 H644 0.929 . S
C652 C653 1.377 . S
C652 C654 1.384 . S
C653 C652 1.377 . S
C653 C659 1.390 . S
C654 H645 0.930 . S
C654 C652 1.384 . S
C654 C655 1.372 . S
C655 C654 1.372 . S
C655 C656 1.400 . S
C655 C660 1.490 . S
C656 H646 0.930 . S
C656 C655 1.400 . S
C656 C659 1.386 . S
H657 C673 0.930 . S
H658 C674 0.931 . S
C659 H647 0.929 . S
C659 C653 1.390 . S
C659 C656 1.386 . S
C660 C655 1.490 . S
C660 C662 1.395 . S
C660 C663 1.403 . S
H661 C667 0.930 . S
C662 H648 0.930 . S
C662 C660 1.395 . S
C662 C665 1.403 . S
C663 C660 1.403 . S
C663 C664 1.524 . S
C663 C667 1.400 . S
C664 H649 0.960 . S
C664 H650 0.960 . S
C664 H651 0.960 . S
C664 C663 1.524 . S
C665 C662 1.403 . S
C665 C666 1.392 . S
C665 C669 1.495 . S
C666 C665 1.392 . S
C666 C667 1.385 . S
C666 C668 1.478 . S
C667 H661 0.930 . S
C667 C663 1.400 . S
C667 C666 1.385 . S
C668 C666 1.478 . S
C668 C670 1.381 . S
C668 C674 1.383 . S
C669 C665 1.495 . S
C669 H675 0.959 . S
C669 H676 0.961 . S
C669 H677 0.960 . S
C670 C668 1.381 . S
C670 C671 1.394 . S
C670 H678 0.930 . S
C671 C670 1.394 . S
C671 C672 1.383 . S
C671 H679 0.929 . S
C672 C671 1.383 . S
C672 C673 1.377 . S
C673 H657 0.930 . S
C673 C672 1.377 . S
C673 C674 1.379 . S
C674 H658 0.931 . S
C674 C668 1.383 . S
C674 C673 1.379 . S
H675 C669 0.959 . S
H676 C669 0.961 . S
H677 C669 0.960 . S
H678 C670 0.930 . S
H679 C671 0.929 . S
H680 C688 0.929 . S
H681 C690 0.930 . S
H682 C692 0.930 . S
H683 C695 0.929 . S
H684 C698 0.930 . S
H685 C700 0.960 . S
H686 C700 0.960 . S
H687 C700 0.960 . S
C688 H680 0.929 . S
C688 C689 1.377 . S
C688 C690 1.384 . S
C689 C688 1.377 . S
C689 C695 1.390 . S
C690 H681 0.930 . S
C690 C688 1.384 . S
C690 C691 1.372 . S
C691 C690 1.372 . S
C691 C692 1.400 . S
C691 C696 1.490 . S
C692 H682 0.930 . S
C692 C691 1.400 . S
C692 C695 1.386 . S
H693 C709 0.930 . S
H694 C710 0.931 . S
C695 H683 0.929 . S
C695 C689 1.390 . S
C695 C692 1.386 . S
C696 C691 1.490 . S
C696 C698 1.395 . S
C696 C699 1.403 . S
H697 C703 0.930 . S
C698 H684 0.930 . S
C698 C696 1.395 . S
C698 C701 1.403 . S
C699 C696 1.403 . S
C699 C700 1.524 . S
C699 C703 1.400 . S
C700 H685 0.960 . S
C700 H686 0.960 . S
C700 H687 0.960 . S
C700 C699 1.524 . S
C701 C698 1.403 . S
C701 C702 1.392 . S
C701 C705 1.495 . S
C702 C701 1.392 . S
C702 C703 1.385 . S
C702 C704 1.478 . S
C703 H697 0.930 . S
C703 C699 1.400 . S
C703 C702 1.385 . S
C704 C702 1.478 . S
C704 C706 1.381 . S
C704 C710 1.383 . S
C705 C701 1.495 . S
C705 H711 0.959 . S
C705 H712 0.961 . S
C705 H713 0.960 . S
C706 C704 1.381 . S
C706 C707 1.394 . S
C706 H714 0.930 . S
C707 C706 1.394 . S
C707 C708 1.383 . S
C707 H715 0.929 . S
C708 C707 1.383 . S
C708 C709 1.377 . S
C709 H693 0.930 . S
C709 C708 1.377 . S
C709 C710 1.379 . S
C710 H694 0.931 . S
C710 C704 1.383 . S
C710 C709 1.379 . S
H711 C705 0.959 . S
H712 C705 0.961 . S
H713 C705 0.960 . S
H714 C706 0.930 . S
H715 C707 0.929 . S
H716 C724 0.929 . S
H717 C726 0.930 . S
H718 C728 0.930 . S
H719 C731 0.929 . S
H720 C734 0.930 . S
H721 C736 0.960 . S
H722 C736 0.960 . S
H723 C736 0.960 . S
C724 H716 0.929 . S
C724 C725 1.377 . S
C724 C726 1.384 . S
C725 C724 1.377 . S
C725 C731 1.390 . S
C726 H717 0.930 . S
C726 C724 1.384 . S
C726 C727 1.372 . S
C727 C726 1.372 . S
C727 C728 1.400 . S
C727 C732 1.490 . S
C728 H718 0.930 . S
C728 C727 1.400 . S
C728 C731 1.386 . S
H729 C745 0.930 . S
H730 C746 0.931 . S
C731 H719 0.929 . S
C731 C725 1.390 . S
C731 C728 1.386 . S
C732 C727 1.490 . S
C732 C734 1.395 . S
C732 C735 1.403 . S
H733 C739 0.930 . S
C734 H720 0.930 . S
C734 C732 1.395 . S
C734 C737 1.403 . S
C735 C732 1.403 . S
C735 C736 1.524 . S
C735 C739 1.400 . S
C736 H721 0.960 . S
C736 H722 0.960 . S
C736 H723 0.960 . S
C736 C735 1.524 . S
C737 C734 1.403 . S
C737 C738 1.392 . S
C737 C741 1.495 . S
C738 C737 1.392 . S
C738 C739 1.385 . S
C738 C740 1.478 . S
C739 H733 0.930 . S
C739 C735 1.400 . S
C739 C738 1.385 . S
C740 C738 1.478 . S
C740 C742 1.381 . S
C740 C746 1.383 . S
C741 C737 1.495 . S
C741 H747 0.959 . S
C741 H748 0.961 . S
C741 H749 0.960 . S
C742 C740 1.381 . S
C742 C743 1.394 . S
C742 H750 0.930 . S
C743 C742 1.394 . S
C743 C744 1.383 . S
C743 H751 0.929 . S
C744 C743 1.383 . S
C744 C745 1.377 . S
C745 H729 0.930 . S
C745 C744 1.377 . S
C745 C746 1.379 . S
C746 H730 0.931 . S
C746 C740 1.383 . S
C746 C745 1.379 . S
H747 C741 0.959 . S
H748 C741 0.961 . S
H749 C741 0.960 . S
H750 C742 0.930 . S
H751 C743 0.929 . S
H752 C760 0.929 . S
H753 C762 0.930 . S
H754 C764 0.930 . S
H755 C767 0.929 . S
H756 C770 0.939 . S
H757 C772 0.960 . S
H758 C772 0.960 . S
H759 C772 0.960 . S
C760 H752 0.929 . S
C760 C761 1.377 . S
C760 C762 1.384 . S
C761 C760 1.377 . S
C761 C767 1.390 . S
C762 H753 0.930 . S
C762 C760 1.384 . S
C762 C763 1.372 . S
C763 C762 1.372 . S
C763 C764 1.400 . S
C763 C768 1.490 . S
C764 H754 0.930 . S
C764 C763 1.400 . S
C764 C767 1.386 . S
H765 C781 0.930 . S
H766 C782 0.931 . S
C767 H755 0.929 . S
C767 C761 1.390 . S
C767 C764 1.386 . S
C768 C763 1.490 . S
C768 C770 1.395 1_655 S
C768 C771 1.403 . S
H769 C775 0.930 . S
C770 H756 0.939 . S
C770 C768 1.395 1_455 S
C770 C773 1.403 . S
C771 C768 1.403 . S
C771 C772 1.524 . S
C771 C775 1.400 1_655 S
C772 H757 0.960 . S
C772 H758 0.960 . S
C772 H759 0.960 . S
C772 C771 1.524 . S
C773 C770 1.403 . S
C773 C774 1.392 . S
C773 C777 1.495 . S
C774 C773 1.392 . S
C774 C775 1.385 . S
C774 C776 1.478 . S
C775 H769 0.930 . S
C775 C771 1.400 1_455 S
C775 C774 1.385 . S
C776 C774 1.478 . S
C776 C778 1.381 . S
C776 C782 1.383 . S
C777 C773 1.495 . S
C777 H783 0.959 . S
C777 H784 0.961 . S
C777 H785 0.960 . S
C778 C776 1.381 . S
C778 C779 1.394 . S
C778 H786 0.930 . S
C779 C778 1.394 . S
C779 C780 1.383 . S
C779 H787 0.929 . S
C780 C779 1.383 . S
C780 C781 1.377 . S
C781 H765 0.930 . S
C781 C780 1.377 . S
C781 C782 1.379 . S
C782 H766 0.931 . S
C782 C776 1.383 . S
C782 C781 1.379 . S
H783 C777 0.959 . S
H784 C777 0.961 . S
H785 C777 0.960 . S
H786 C778 0.930 . S
H787 C779 0.929 . S
H788 C796 0.929 . S
H789 C798 0.930 . S
H790 C800 0.930 . S
H791 C803 0.929 . S
H792 C806 0.930 . S
H793 C808 0.960 . S
H794 C808 0.960 . S
H795 C808 0.960 . S
C796 H788 0.929 . S
C796 C797 1.377 . S
C796 C798 1.384 . S
C797 C796 1.377 . S
C797 C803 1.390 . S
C798 H789 0.930 . S
C798 C796 1.384 . S
C798 C799 1.372 . S
C799 C798 1.372 . S
C799 C800 1.400 . S
C799 C804 1.490 . S
C800 H790 0.930 . S
C800 C799 1.400 . S
C800 C803 1.386 . S
H801 C817 0.930 . S
H802 C818 0.931 . S
C803 H791 0.929 . S
C803 C797 1.390 . S
C803 C800 1.386 . S
C804 C799 1.490 . S
C804 C806 1.395 1_455 S
C804 C807 1.403 . S
H805 C811 0.930 . S
C806 H792 0.930 . S
C806 C804 1.395 1_655 S
C806 C809 1.403 . S
C807 C804 1.403 . S
C807 C808 1.524 . S
C807 C811 1.400 1_455 S
C808 H793 0.960 . S
C808 H794 0.960 . S
C808 H795 0.960 . S
C808 C807 1.524 . S
C809 C806 1.403 . S
C809 C810 1.392 . S
C809 C813 1.495 . S
C810 C809 1.392 . S
C810 C811 1.385 . S
C810 C812 1.478 . S
C811 H805 0.930 . S
C811 C807 1.400 1_655 S
C811 C810 1.385 . S
C812 C810 1.478 . S
C812 C814 1.381 . S
C812 C818 1.383 . S
C813 C809 1.495 . S
C813 H819 0.959 . S
C813 H820 0.961 . S
C813 H821 0.960 . S
C814 C812 1.381 . S
C814 C815 1.394 . S
C814 H822 0.930 . S
C815 C814 1.394 . S
C815 C816 1.383 . S
C815 H823 0.929 . S
C816 C815 1.383 . S
C816 C817 1.377 . S
C817 H801 0.930 . S
C817 C816 1.377 . S
C817 C818 1.379 . S
C818 H802 0.931 . S
C818 C812 1.383 . S
C818 C817 1.379 . S
H819 C813 0.959 . S
H820 C813 0.961 . S
H821 C813 0.960 . S
H822 C814 0.930 . S
H823 C815 0.929 . S
H824 C832 0.929 . S
H825 C834 0.930 . S
H826 C836 0.930 . S
H827 C839 0.929 . S
H828 C842 0.930 . S
H829 C844 0.960 . S
H830 C844 0.960 . S
H831 C844 0.960 . S
C832 H824 0.929 . S
C832 C833 1.377 . S
C832 C834 1.384 . S
C833 C832 1.377 . S
C833 C839 1.390 . S
C834 H825 0.930 . S
C834 C832 1.384 . S
C834 C835 1.372 . S
C835 C834 1.372 . S
C835 C836 1.400 . S
C835 C840 1.490 . S
C836 H826 0.930 . S
C836 C835 1.400 . S
C836 C839 1.386 . S
H837 C853 0.930 . S
H838 C854 0.931 . S
C839 H827 0.929 . S
C839 C833 1.390 . S
C839 C836 1.386 . S
C840 C835 1.490 . S
C840 C842 1.395 . S
C840 C843 1.403 . S
H841 C847 0.930 . S
C842 H828 0.930 . S
C842 C840 1.395 . S
C842 C845 1.403 . S
C843 C840 1.403 . S
C843 C844 1.524 . S
C843 C847 1.400 . S
C844 H829 0.960 . S
C844 H830 0.960 . S
C844 H831 0.960 . S
C844 C843 1.524 . S
C845 C842 1.403 . S
C845 C846 1.392 . S
C845 C849 1.495 . S
C846 C845 1.392 . S
C846 C847 1.385 . S
C846 C848 1.478 . S
C847 H841 0.930 . S
C847 C843 1.400 . S
C847 C846 1.385 . S
C848 C846 1.478 . S
C848 C850 1.381 . S
C848 C854 1.383 . S
C849 C845 1.495 . S
C849 H855 0.959 . S
C849 H856 0.961 . S
C849 H857 0.960 . S
C850 C848 1.381 . S
C850 C851 1.394 . S
C850 H858 0.930 . S
C851 C850 1.394 . S
C851 C852 1.383 . S
C851 H859 0.929 . S
C852 C851 1.383 . S
C852 C853 1.377 . S
C853 H837 0.930 . S
C853 C852 1.377 . S
C853 C854 1.379 . S
C854 H838 0.931 . S
C854 C848 1.383 . S
C854 C853 1.379 . S
H855 C849 0.959 . S
H856 C849 0.961 . S
H857 C849 0.960 . S
H858 C850 0.930 . S
H859 C851 0.929 . S
H860 C868 0.929 . S
H861 C870 0.930 . S
H862 C872 0.930 . S
H863 C875 0.929 . S
H864 C878 0.930 . S
H865 C880 0.960 . S
H866 C880 0.960 . S
H867 C880 0.960 . S
C868 H860 0.929 . S
C868 C869 1.377 . S
C868 C870 1.384 . S
C869 C868 1.377 . S
C869 C875 1.390 . S
C870 H861 0.930 . S
C870 C868 1.384 . S
C870 C871 1.372 . S
C871 C870 1.372 . S
C871 C872 1.400 . S
C871 C876 1.490 . S
C872 H862 0.930 . S
C872 C871 1.400 . S
C872 C875 1.386 . S
H873 C889 0.930 . S
H874 C890 0.931 . S
C875 H863 0.929 . S
C875 C869 1.390 . S
C875 C872 1.386 . S
C876 C871 1.490 . S
C876 C878 1.395 . S
C876 C879 1.403 . S
H877 C883 0.930 . S
C878 H864 0.930 . S
C878 C876 1.395 . S
C878 C881 1.403 . S
C879 C876 1.403 . S
C879 C880 1.524 . S
C879 C883 1.400 . S
C880 H865 0.960 . S
C880 H866 0.960 . S
C880 H867 0.960 . S
C880 C879 1.524 . S
C881 C878 1.403 . S
C881 C882 1.392 . S
C881 C885 1.495 . S
C882 C881 1.392 . S
C882 C883 1.385 . S
C882 C884 1.478 . S
C883 H877 0.930 . S
C883 C879 1.400 . S
C883 C882 1.385 . S
C884 C882 1.478 . S
C884 C886 1.381 . S
C884 C890 1.383 . S
C885 C881 1.495 . S
C885 H891 0.959 . S
C885 H892 0.961 . S
C885 H893 0.960 . S
C886 C884 1.381 . S
C886 C887 1.394 . S
C886 H894 0.930 . S
C887 C886 1.394 . S
C887 C888 1.383 . S
C887 H895 0.929 . S
C888 C887 1.383 . S
C888 C889 1.377 . S
C889 H873 0.930 . S
C889 C888 1.377 . S
C889 C890 1.379 . S
C890 H874 0.931 . S
C890 C884 1.383 . S
C890 C889 1.379 . S
H891 C885 0.959 . S
H892 C885 0.961 . S
H893 C885 0.960 . S
H894 C886 0.930 . S
H895 C887 0.929 . S
H896 C904 0.929 . S
H897 C906 0.930 . S
H898 C908 0.930 . S
H899 C911 0.929 . S
H900 C914 0.930 . S
H901 C916 0.960 . S
H902 C916 0.960 . S
H903 C916 0.960 . S
C904 H896 0.929 . S
C904 C905 1.377 . S
C904 C906 1.384 . S
C905 C904 1.377 . S
C905 C911 1.390 . S
C906 H897 0.930 . S
C906 C904 1.384 . S
C906 C907 1.372 . S
C907 C906 1.372 . S
C907 C908 1.400 . S
C907 C912 1.490 . S
C908 H898 0.930 . S
C908 C907 1.400 . S
C908 C911 1.386 . S
H909 C925 0.930 . S
H910 C926 0.931 . S
C911 H899 0.929 . S
C911 C905 1.390 . S
C911 C908 1.386 . S
C912 C907 1.490 . S
C912 C914 1.395 . S
C912 C915 1.403 . S
H913 C919 0.930 . S
C914 H900 0.930 . S
C914 C912 1.395 . S
C914 C917 1.403 1_655 S
C915 C912 1.403 . S
C915 C916 1.524 . S
C915 C919 1.400 1_655 S
C916 H901 0.960 . S
C916 H902 0.960 . S
C916 H903 0.960 . S
C916 C915 1.524 . S
C917 C914 1.403 1_455 S
C917 C918 1.392 . S
C917 C921 1.495 . S
C918 C917 1.392 . S
C918 C919 1.385 . S
C918 C920 1.478 . S
C919 H913 0.930 . S
C919 C915 1.400 1_455 S
C919 C918 1.385 . S
C920 C918 1.478 . S
C920 C922 1.381 . S
C920 C926 1.383 . S
C921 C917 1.495 . S
C921 H927 0.959 . S
C921 H928 0.961 . S
C921 H929 0.960 . S
C922 C920 1.381 . S
C922 C923 1.394 . S
C922 H930 0.930 . S
C923 C922 1.394 . S
C923 C924 1.383 . S
C923 H931 0.929 . S
C924 C923 1.383 . S
C924 C925 1.377 . S
C925 H909 0.930 . S
C925 C924 1.377 . S
C925 C926 1.379 . S
C926 H910 0.931 . S
C926 C920 1.383 . S
C926 C925 1.379 . S
H927 C921 0.959 . S
H928 C921 0.961 . S
H929 C921 0.960 . S
H930 C922 0.930 . S
H931 C923 0.929 . S
H932 C940 0.929 . S
H933 C942 0.930 . S
H934 C944 0.930 . S
H935 C947 0.929 . S
H936 C950 0.930 . S
H937 C952 0.960 1_655 S
H938 C952 0.960 . S
H939 C952 0.960 . S
C940 H932 0.929 . S
C940 C941 1.377 . S
C940 C942 1.384 . S
C941 C940 1.377 . S
C941 C947 1.390 . S
C942 H933 0.930 . S
C942 C940 1.384 . S
C942 C943 1.372 . S
C943 C942 1.372 . S
C943 C944 1.400 . S
C943 C948 1.490 . S
C944 H934 0.930 . S
C944 C943 1.400 . S
C944 C947 1.386 . S
H945 C961 0.930 . S
H946 C962 0.931 . S
C947 H935 0.929 . S
C947 C941 1.390 . S
C947 C944 1.386 . S
C948 C943 1.490 . S
C948 C950 1.395 . S
C948 C951 1.403 . S
H949 C955 0.930 . S
C950 H936 0.930 . S
C950 C948 1.395 . S
C950 C953 1.416 . S
C951 C948 1.403 . S
C951 C952 1.524 . S
C951 C955 1.400 1_455 S
C952 H937 0.960 1_455 S
C952 H938 0.960 . S
C952 H939 0.960 . S
C952 C951 1.524 . S
C953 C950 1.416 . S
C953 C954 1.375 1_455 S
C953 C957 1.493 . S
C954 C953 1.375 1_655 S
C954 C955 1.385 . S
C954 C956 1.478 . S
C955 H949 0.930 . S
C955 C951 1.400 1_655 S
C955 C954 1.385 . S
C956 C954 1.478 . S
C956 C958 1.381 . S
C956 C962 1.383 . S
C957 C953 1.493 . S
C957 H963 0.984 . S
C957 H964 0.948 1_455 S
C957 H965 0.955 1_455 S
C958 C956 1.381 . S
C958 C959 1.394 . S
C958 H966 0.930 . S
C959 C958 1.394 . S
C959 C960 1.383 . S
C959 H967 0.929 . S
C960 C959 1.383 . S
C960 C961 1.377 . S
C961 H945 0.930 . S
C961 C960 1.377 . S
C961 C962 1.379 . S
C962 H946 0.931 . S
C962 C956 1.383 . S
C962 C961 1.379 . S
H963 C957 0.984 . S
H964 C957 0.948 1_655 S
H965 C957 0.955 1_655 S
H966 C958 0.930 . S
H967 C959 0.929 . S
H968 C976 0.929 . S
H969 C978 0.930 . S
H970 C980 0.930 . S
H971 C983 0.929 . S
H972 C986 0.934 . S
H973 C988 0.960 . S
H974 C988 0.960 1_554 S
H975 C988 0.962 . S
C976 H968 0.929 . S
C976 C977 1.377 . S
C976 C978 1.384 . S
C977 C976 1.377 . S
C977 C983 1.390 . S
C978 H969 0.930 . S
C978 C976 1.384 . S
C978 C979 1.372 . S
C979 C978 1.372 . S
C979 C980 1.400 . S
C979 C984 1.490 . S
C980 H970 0.930 . S
C980 C979 1.400 . S
C980 C983 1.386 . S
H981 C997 0.930 . S
H982 C998 0.931 . S
C983 H971 0.929 . S
C983 C977 1.390 . S
C983 C980 1.386 . S
C984 C979 1.490 . S
C984 C986 1.397 . S
C984 C987 1.403 1_554 S
H985 C991 0.930 . S
C986 H972 0.934 . S
C986 C984 1.397 . S
C986 C989 1.398 1_554 S
C987 C984 1.403 1_556 S
C987 C988 1.524 . S
C987 C991 1.400 . S
C988 H973 0.960 . S
C988 H974 0.960 1_556 S
C988 H975 0.962 . S
C988 C987 1.524 . S
C989 C986 1.398 1_556 S
C989 C990 1.392 . S
C989 C993 1.495 . S
C990 C989 1.392 . S
C990 C991 1.385 . S
C990 C992 1.478 . S
C991 H985 0.930 . S
C991 C987 1.400 . S
C991 C990 1.385 . S
C992 C990 1.478 . S
C992 C994 1.381 . S
C992 C998 1.383 . S
C993 C989 1.495 . S
C993 H999 0.959 . S
C993 H1000 0.961 . S
C993 H1001 0.960 . S
C994 C992 1.381 . S
C994 C995 1.394 . S
C994 H1002 0.930 . S
C995 C994 1.394 . S
C995 C996 1.383 . S
C995 H1003 0.929 . S
C996 C995 1.383 . S
C996 C997 1.377 . S
C997 H981 0.930 . S
C997 C996 1.377 . S
C997 C998 1.379 . S
C998 H982 0.931 . S
C998 C992 1.383 . S
C998 C997 1.379 . S
H999 C993 0.959 . S
H1000 C993 0.961 . S
H1001 C993 0.960 . S
H1002 C994 0.930 . S
H1003 C995 0.929 . S
H1004 C1012 0.929 . S
H1005 C1014 0.930 . S
H1006 C1016 0.930 . S
H1007 C1019 0.929 . S
H1008 C1022 0.930 . S
H1009 C1024 0.960 . S
H1010 C1024 0.960 . S
H1011 C1024 0.960 . S
C1012 H1004 0.929 . S
C1012 C1013 1.377 . S
C1012 C1014 1.384 . S
C1013 C1012 1.377 . S
C1013 C1019 1.390 . S
C1014 H1005 0.930 . S
C1014 C1012 1.384 . S
C1014 C1015 1.372 . S
C1015 C1014 1.372 . S
C1015 C1016 1.400 . S
C1015 C1020 1.490 . S
C1016 H1006 0.930 . S
C1016 C1015 1.400 . S
C1016 C1019 1.386 . S
H1017 C1033 0.930 . S
H1018 C1034 0.931 . S
C1019 H1007 0.929 . S
C1019 C1013 1.390 . S
C1019 C1016 1.386 . S
C1020 C1015 1.490 . S
C1020 C1022 1.395 . S
C1020 C1023 1.403 . S
H1021 C1027 0.930 . S
C1022 H1008 0.930 . S
C1022 C1020 1.395 . S
C1022 C1025 1.403 . S
C1023 C1020 1.403 . S
C1023 C1024 1.524 . S
C1023 C1027 1.400 . S
C1024 H1009 0.960 . S
C1024 H1010 0.960 . S
C1024 H1011 0.960 . S
C1024 C1023 1.524 . S
C1025 C1022 1.403 . S
C1025 C1026 1.392 . S
C1025 C1029 1.495 . S
C1026 C1025 1.392 . S
C1026 C1027 1.385 . S
C1026 C1028 1.478 . S
C1027 H1021 0.930 . S
C1027 C1023 1.400 . S
C1027 C1026 1.385 . S
C1028 C1026 1.478 . S
C1028 C1030 1.381 . S
C1028 C1034 1.383 . S
C1029 C1025 1.495 . S
C1029 H1035 0.959 . S
C1029 H1036 0.961 . S
C1029 H1037 0.960 . S
C1030 C1028 1.381 . S
C1030 C1031 1.394 . S
C1030 H1038 0.930 . S
C1031 C1030 1.394 . S
C1031 C1032 1.383 . S
C1031 H1039 0.929 . S
C1032 C1031 1.383 . S
C1032 C1033 1.377 . S
C1033 H1017 0.930 . S
C1033 C1032 1.377 . S
C1033 C1034 1.379 . S
C1034 H1018 0.931 . S
C1034 C1028 1.383 . S
C1034 C1033 1.379 . S
H1035 C1029 0.959 . S
H1036 C1029 0.961 . S
H1037 C1029 0.960 . S
H1038 C1030 0.930 . S
H1039 C1031 0.929 . S
H1040 C1048 0.929 . S
H1041 C1050 0.930 . S
H1042 C1052 0.930 . S
H1043 C1055 0.929 . S
H1044 C1058 0.930 1_556 S
H1045 C1060 0.960 . S
H1046 C1060 0.960 . S
H1047 C1060 0.960 1_556 S
C1048 H1040 0.929 . S
C1048 C1049 1.377 . S
C1048 C1050 1.384 . S
C1049 C1048 1.377 . S
C1049 C1055 1.390 . S
C1050 H1041 0.930 . S
C1050 C1048 1.384 . S
C1050 C1051 1.372 . S
C1051 C1050 1.372 . S
C1051 C1052 1.400 . S
C1051 C1056 1.490 . S
C1052 H1042 0.930 . S
C1052 C1051 1.400 . S
C1052 C1055 1.386 . S
H1053 C1069 0.930 . S
H1054 C1070 0.931 . S
C1055 H1043 0.929 . S
C1055 C1049 1.390 . S
C1055 C1052 1.386 . S
C1056 C1051 1.490 . S
C1056 C1058 1.395 1_556 S
C1056 C1059 1.403 1_556 S
H1057 C1063 0.930 . S
C1058 H1044 0.930 1_554 S
C1058 C1056 1.395 1_554 S
C1058 C1061 1.403 . S
C1059 C1056 1.403 1_554 S
C1059 C1060 1.524 . S
C1059 C1063 1.400 . S
C1060 H1045 0.960 . S
C1060 H1046 0.960 . S
C1060 H1047 0.960 1_554 S
C1060 C1059 1.524 . S
C1061 C1058 1.403 . S
C1061 C1062 1.392 . S
C1061 C1065 1.495 . S
C1062 C1061 1.392 . S
C1062 C1063 1.385 . S
C1062 C1064 1.478 . S
C1063 H1057 0.930 . S
C1063 C1059 1.400 . S
C1063 C1062 1.385 . S
C1064 C1062 1.478 . S
C1064 C1066 1.381 . S
C1064 C1070 1.383 . S
C1065 C1061 1.495 . S
C1065 H1071 0.959 . S
C1065 H1072 0.961 . S
C1065 H1073 0.960 . S
C1066 C1064 1.381 . S
C1066 C1067 1.394 . S
C1066 H1074 0.930 . S
C1067 C1066 1.394 . S
C1067 C1068 1.383 . S
C1067 H1075 0.929 . S
C1068 C1067 1.383 . S
C1068 C1069 1.377 . S
C1069 H1053 0.930 . S
C1069 C1068 1.377 . S
C1069 C1070 1.379 . S
C1070 H1054 0.931 . S
C1070 C1064 1.383 . S
C1070 C1069 1.379 . S
H1071 C1065 0.959 . S
H1072 C1065 0.961 . S
H1073 C1065 0.960 . S
H1074 C1066 0.930 . S
H1075 C1067 0.929 . S
H1076 C1084 0.929 . S
H1077 C1086 0.930 . S
H1078 C1088 0.930 . S
H1079 C1091 0.929 . S
H1080 C1094 0.930 . S
H1081 C1096 0.960 . S
H1082 C1096 0.960 . S
H1083 C1096 0.960 . S
C1084 H1076 0.929 . S
C1084 C1085 1.377 . S
C1084 C1086 1.384 . S
C1085 C1084 1.377 . S
C1085 C1091 1.390 . S
C1086 H1077 0.930 . S
C1086 C1084 1.384 . S
C1086 C1087 1.372 . S
C1087 C1086 1.372 . S
C1087 C1088 1.400 . S
C1087 C1092 1.490 . S
C1088 H1078 0.930 . S
C1088 C1087 1.400 . S
C1088 C1091 1.386 . S
H1089 C1105 0.930 . S
H1090 C1106 0.931 . S
C1091 H1079 0.929 . S
C1091 C1085 1.390 . S
C1091 C1088 1.386 . S
C1092 C1087 1.490 . S
C1092 C1094 1.395 . S
C1092 C1095 1.403 . S
H1093 C1099 0.930 . S
C1094 H1080 0.930 . S
C1094 C1092 1.395 . S
C1094 C1097 1.403 . S
C1095 C1092 1.403 . S
C1095 C1096 1.524 . S
C1095 C1099 1.400 . S
C1096 H1081 0.960 . S
C1096 H1082 0.960 . S
C1096 H1083 0.960 . S
C1096 C1095 1.524 . S
C1097 C1094 1.403 . S
C1097 C1098 1.392 . S
C1097 C1101 1.495 . S
C1098 C1097 1.392 . S
C1098 C1099 1.385 . S
C1098 C1100 1.478 . S
C1099 H1093 0.930 . S
C1099 C1095 1.400 . S
C1099 C1098 1.385 . S
C1100 C1098 1.478 . S
C1100 C1102 1.381 . S
C1100 C1106 1.383 . S
C1101 C1097 1.495 . S
C1101 H1107 0.959 . S
C1101 H1108 0.961 . S
C1101 H1109 0.960 . S
C1102 C1100 1.381 . S
C1102 C1103 1.394 . S
C1102 H1110 0.930 . S
C1103 C1102 1.394 . S
C1103 C1104 1.383 . S
C1103 H1111 0.929 . S
C1104 C1103 1.383 . S
C1104 C1105 1.377 . S
C1105 H1089 0.930 . S
C1105 C1104 1.377 . S
C1105 C1106 1.379 . S
C1106 H1090 0.931 . S
C1106 C1100 1.383 . S
C1106 C1105 1.379 . S
H1107 C1101 0.959 . S
H1108 C1101 0.961 . S
H1109 C1101 0.960 . S
H1110 C1102 0.930 . S
H1111 C1103 0.929 . S
H1112 C1120 0.929 . S
H1113 C1122 0.930 . S
H1114 C1124 0.930 . S
H1115 C1127 0.929 . S
H1116 C1130 0.930 . S
H1117 C1132 0.960 1_556 S
H1118 C1132 0.960 . S
H1119 C1132 0.960 . S
C1120 H1112 0.929 . S
C1120 C1121 1.377 . S
C1120 C1122 1.384 . S
C1121 C1120 1.377 . S
C1121 C1127 1.390 . S
C1122 H1113 0.930 . S
C1122 C1120 1.384 . S
C1122 C1123 1.372 . S
C1123 C1122 1.372 . S
C1123 C1124 1.400 . S
C1123 C1128 1.490 . S
C1124 H1114 0.930 . S
C1124 C1123 1.400 . S
C1124 C1127 1.386 . S
H1125 C1141 0.930 . S
H1126 C1142 0.931 . S
C1127 H1115 0.929 . S
C1127 C1121 1.390 . S
C1127 C1124 1.386 . S
C1128 C1123 1.490 . S
C1128 C1130 1.395 1_554 S
C1128 C1131 1.403 1_554 S
H1129 C1135 0.930 . S
C1130 H1116 0.930 . S
C1130 C1128 1.395 1_556 S
C1130 C1133 1.403 . S
C1131 C1128 1.403 1_556 S
C1131 C1132 1.524 1_556 S
C1131 C1135 1.400 . S
C1132 H1117 0.960 1_554 S
C1132 H1118 0.960 . S
C1132 H1119 0.960 . S
C1132 C1131 1.524 1_554 S
C1133 C1130 1.403 . S
C1133 C1134 1.392 . S
C1133 C1137 1.495 . S
C1134 C1133 1.392 . S
C1134 C1135 1.385 . S
C1134 C1136 1.478 . S
C1135 H1129 0.930 . S
C1135 C1131 1.400 . S
C1135 C1134 1.385 . S
C1136 C1134 1.478 . S
C1136 C1138 1.381 . S
C1136 C1142 1.383 . S
C1137 C1133 1.495 . S
C1137 H1143 0.959 . S
C1137 H1144 0.961 . S
C1137 H1145 0.960 . S
C1138 C1136 1.381 . S
C1138 C1139 1.394 . S
C1138 H1146 0.930 . S
C1139 C1138 1.394 . S
C1139 C1140 1.383 . S
C1139 H1147 0.929 . S
C1140 C1139 1.383 . S
C1140 C1141 1.377 . S
C1141 H1125 0.930 . S
C1141 C1140 1.377 . S
C1141 C1142 1.379 . S
C1142 H1126 0.931 . S
C1142 C1136 1.383 . S
C1142 C1141 1.379 . S
H1143 C1137 0.959 . S
H1144 C1137 0.961 . S
H1145 C1137 0.960 . S
H1146 C1138 0.930 . S
H1147 C1139 0.929 . S
H1148 C1156 0.929 . S
H1149 C1158 0.930 . S
H1150 C1160 0.930 . S
H1151 C1163 0.929 . S
H1152 C1166 0.930 . S
H1153 C1168 0.960 . S
H1154 C1168 0.960 . S
H1155 C1168 0.960 . S
C1156 H1148 0.929 . S
C1156 C1157 1.377 . S
C1156 C1158 1.384 . S
C1157 C1156 1.377 . S
C1157 C1163 1.390 . S
C1158 H1149 0.930 . S
C1158 C1156 1.384 . S
C1158 C1159 1.372 . S
C1159 C1158 1.372 . S
C1159 C1160 1.400 . S
C1159 C1164 1.490 . S
C1160 H1150 0.930 . S
C1160 C1159 1.400 . S
C1160 C1163 1.386 . S
H1161 C1177 0.930 . S
H1162 C1178 0.931 . S
C1163 H1151 0.929 . S
C1163 C1157 1.390 . S
C1163 C1160 1.386 . S
C1164 C1159 1.490 . S
C1164 C1166 1.395 . S
C1164 C1167 1.403 . S
H1165 C1171 0.930 . S
C1166 H1152 0.930 . S
C1166 C1164 1.395 . S
C1166 C1169 1.403 . S
C1167 C1164 1.403 . S
C1167 C1168 1.524 . S
C1167 C1171 1.400 . S
C1168 H1153 0.960 . S
C1168 H1154 0.960 . S
C1168 H1155 0.960 . S
C1168 C1167 1.524 . S
C1169 C1166 1.403 . S
C1169 C1170 1.392 . S
C1169 C1173 1.495 . S
C1170 C1169 1.392 . S
C1170 C1171 1.385 . S
C1170 C1172 1.478 . S
C1171 H1165 0.930 . S
C1171 C1167 1.400 . S
C1171 C1170 1.385 . S
C1172 C1170 1.478 . S
C1172 C1174 1.381 . S
C1172 C1178 1.383 . S
C1173 C1169 1.495 . S
C1173 H1179 0.959 . S
C1173 H1180 0.961 . S
C1173 H1181 0.960 . S
C1174 C1172 1.381 . S
C1174 C1175 1.394 . S
C1174 H1182 0.930 . S
C1175 C1174 1.394 . S
C1175 C1176 1.383 . S
C1175 H1183 0.929 . S
C1176 C1175 1.383 . S
C1176 C1177 1.377 . S
C1177 H1161 0.930 . S
C1177 C1176 1.377 . S
C1177 C1178 1.379 . S
C1178 H1162 0.931 . S
C1178 C1172 1.383 . S
C1178 C1177 1.379 . S
H1179 C1173 0.959 . S
H1180 C1173 0.961 . S
H1181 C1173 0.960 . S
H1182 C1174 0.930 . S
H1183 C1175 0.929 . S
H1184 C1192 0.929 . S
H1185 C1194 0.930 . S
H1186 C1196 0.930 . S
H1187 C1199 0.929 . S
H1188 C1202 0.930 . S
H1189 C1204 0.960 . S
H1190 C1204 0.960 . S
H1191 C1204 0.960 . S
C1192 H1184 0.929 . S
C1192 C1193 1.377 . S
C1192 C1194 1.384 . S
C1193 C1192 1.377 . S
C1193 C1199 1.390 . S
C1194 H1185 0.930 . S
C1194 C1192 1.384 . S
C1194 C1195 1.372 . S
C1195 C1194 1.372 . S
C1195 C1196 1.400 . S
C1195 C1200 1.490 . S
C1196 H1186 0.930 . S
C1196 C1195 1.400 . S
C1196 C1199 1.386 . S
H1197 C1213 0.930 . S
H1198 C1214 0.931 . S
C1199 H1187 0.929 . S
C1199 C1193 1.390 . S
C1199 C1196 1.386 . S
C1200 C1195 1.490 . S
C1200 C1202 1.395 1_556 S
C1200 C1203 1.403 1_556 S
H1201 C1207 0.930 . S
C1202 H1188 0.930 . S
C1202 C1200 1.395 1_554 S
C1202 C1205 1.403 . S
C1203 C1200 1.403 1_554 S
C1203 C1204 1.524 1_554 S
C1203 C1207 1.400 . S
C1204 H1189 0.960 . S
C1204 H1190 0.960 . S
C1204 H1191 0.960 . S
C1204 C1203 1.524 1_556 S
C1205 C1202 1.403 . S
C1205 C1206 1.392 . S
C1205 C1209 1.495 . S
C1206 C1205 1.392 . S
C1206 C1207 1.385 . S
C1206 C1208 1.478 . S
C1207 H1201 0.930 . S
C1207 C1203 1.400 . S
C1207 C1206 1.385 . S
C1208 C1206 1.478 . S
C1208 C1210 1.381 . S
C1208 C1214 1.383 . S
C1209 C1205 1.495 . S
C1209 H1215 0.959 . S
C1209 H1216 0.961 . S
C1209 H1217 0.960 . S
C1210 C1208 1.381 . S
C1210 C1211 1.394 . S
C1210 H1218 0.930 . S
C1211 C1210 1.394 . S
C1211 C1212 1.383 . S
C1211 H1219 0.929 . S
C1212 C1211 1.383 . S
C1212 C1213 1.377 . S
C1213 H1197 0.930 . S
C1213 C1212 1.377 . S
C1213 C1214 1.379 . S
C1214 H1198 0.931 . S
C1214 C1208 1.383 . S
C1214 C1213 1.379 . S
H1215 C1209 0.959 . S
H1216 C1209 0.961 . S
H1217 C1209 0.960 . S
H1218 C1210 0.930 . S
H1219 C1211 0.929 . S
H1220 C1228 0.929 . S
H1221 C1230 0.930 . S
H1222 C1232 0.930 . S
H1223 C1235 0.929 . S
H1224 C1238 0.930 . S
H1225 C1240 0.960 . S
H1226 C1240 0.960 . S
H1227 C1240 0.960 . S
C1228 H1220 0.929 . S
C1228 C1229 1.377 . S
C1228 C1230 1.384 . S
C1229 C1228 1.377 . S
C1229 C1235 1.390 . S
C1230 H1221 0.930 . S
C1230 C1228 1.384 . S
C1230 C1231 1.372 . S
C1231 C1230 1.372 . S
C1231 C1232 1.400 . S
C1231 C1236 1.490 . S
C1232 H1222 0.930 . S
C1232 C1231 1.400 . S
C1232 C1235 1.386 . S
H1233 C1249 0.930 . S
H1234 C1250 0.931 . S
C1235 H1223 0.929 . S
C1235 C1229 1.390 . S
C1235 C1232 1.386 . S
C1236 C1231 1.490 . S
C1236 C1238 1.395 . S
C1236 C1239 1.403 . S
H1237 C1243 0.930 . S
C1238 H1224 0.930 . S
C1238 C1236 1.395 . S
C1238 C1241 1.403 . S
C1239 C1236 1.403 . S
C1239 C1240 1.524 . S
C1239 C1243 1.400 . S
C1240 H1225 0.960 . S
C1240 H1226 0.960 . S
C1240 H1227 0.960 . S
C1240 C1239 1.524 . S
C1241 C1238 1.403 . S
C1241 C1242 1.392 . S
C1241 C1245 1.495 . S
C1242 C1241 1.392 . S
C1242 C1243 1.385 . S
C1242 C1244 1.478 . S
C1243 H1237 0.930 . S
C1243 C1239 1.400 . S
C1243 C1242 1.385 . S
C1244 C1242 1.478 . S
C1244 C1246 1.381 . S
C1244 C1250 1.383 . S
C1245 C1241 1.495 . S
C1245 H1251 0.959 . S
C1245 H1252 0.961 . S
C1245 H1253 0.960 . S
C1246 C1244 1.381 . S
C1246 C1247 1.394 . S
C1246 H1254 0.930 . S
C1247 C1246 1.394 . S
C1247 C1248 1.383 . S
C1247 H1255 0.929 . S
C1248 C1247 1.383 . S
C1248 C1249 1.377 . S
C1249 H1233 0.930 . S
C1249 C1248 1.377 . S
C1249 C1250 1.379 . S
C1250 H1234 0.931 . S
C1250 C1244 1.383 . S
C1250 C1249 1.379 . S
H1251 C1245 0.959 . S
H1252 C1245 0.961 . S
H1253 C1245 0.960 . S
H1254 C1246 0.930 . S
H1255 C1247 0.929 . S
H1256 C1264 0.929 . S
H1257 C1266 0.930 . S
H1258 C1268 0.930 . S
H1259 C1271 0.929 . S
H1260 C1274 0.930 . S
H1261 C1276 0.960 . S
H1262 C1276 0.960 . S
H1263 C1276 0.960 . S
C1264 H1256 0.929 . S
C1264 C1265 1.377 . S
C1264 C1266 1.384 . S
C1265 C1264 1.377 . S
C1265 C1271 1.390 . S
C1266 H1257 0.930 . S
C1266 C1264 1.384 . S
C1266 C1267 1.372 . S
C1267 C1266 1.372 . S
C1267 C1268 1.400 . S
C1267 C1272 1.490 . S
C1268 H1258 0.930 . S
C1268 C1267 1.400 . S
C1268 C1271 1.386 . S
H1269 C1285 0.930 . S
H1270 C1286 0.931 . S
C1271 H1259 0.929 . S
C1271 C1265 1.390 . S
C1271 C1268 1.386 . S
C1272 C1267 1.490 . S
C1272 C1274 1.395 . S
C1272 C1275 1.403 . S
H1273 C1279 0.930 . S
C1274 H1260 0.930 . S
C1274 C1272 1.395 . S
C1274 C1277 1.403 . S
C1275 C1272 1.403 . S
C1275 C1276 1.524 . S
C1275 C1279 1.400 . S
C1276 H1261 0.960 . S
C1276 H1262 0.960 . S
C1276 H1263 0.960 . S
C1276 C1275 1.524 . S
C1277 C1274 1.403 . S
C1277 C1278 1.392 . S
C1277 C1281 1.495 . S
C1278 C1277 1.392 . S
C1278 C1279 1.385 . S
C1278 C1280 1.478 . S
C1279 H1273 0.930 . S
C1279 C1275 1.400 . S
C1279 C1278 1.385 . S
C1280 C1278 1.478 . S
C1280 C1282 1.381 . S
C1280 C1286 1.383 . S
C1281 C1277 1.495 . S
C1281 H1287 0.959 . S
C1281 H1288 0.961 . S
C1281 H1289 0.960 . S
C1282 C1280 1.381 . S
C1282 C1283 1.394 . S
C1282 H1290 0.930 . S
C1283 C1282 1.394 . S
C1283 C1284 1.383 . S
C1283 H1291 0.929 . S
C1284 C1283 1.383 . S
C1284 C1285 1.377 . S
C1285 H1269 0.930 . S
C1285 C1284 1.377 . S
C1285 C1286 1.379 . S
C1286 H1270 0.931 . S
C1286 C1280 1.383 . S
C1286 C1285 1.379 . S
H1287 C1281 0.959 . S
H1288 C1281 0.961 . S
H1289 C1281 0.960 . S
H1290 C1282 0.930 . S
H1291 C1283 0.929 . S
H1292 C1300 0.929 . S
H1293 C1302 0.930 . S
H1294 C1304 0.930 . S
H1295 C1307 0.929 . S
H1296 C1310 0.930 . S
H1297 C1312 0.960 . S
H1298 C1312 0.960 . S
H1299 C1312 0.960 . S
C1300 H1292 0.929 . S
C1300 C1301 1.381 . S
C1300 C1302 1.384 . S
C1301 C1300 1.381 . S
C1301 C1307 1.386 1_556 S
C1302 H1293 0.930 . S
C1302 C1300 1.384 . S
C1302 C1303 1.372 . S
C1303 C1302 1.372 . S
C1303 C1304 1.400 1_556 S
C1303 C1308 1.490 . S
C1304 H1294 0.930 . S
C1304 C1303 1.400 1_554 S
C1304 C1307 1.386 . S
H1305 C1321 0.930 . S
H1306 C1322 0.931 . S
C1307 H1295 0.929 . S
C1307 C1301 1.386 1_554 S
C1307 C1304 1.386 . S
C1308 C1303 1.490 . S
C1308 C1310 1.395 . S
C1308 C1311 1.403 1_556 S
H1309 C1315 0.930 . S
C1310 H1296 0.930 . S
C1310 C1308 1.395 . S
C1310 C1313 1.403 . S
C1311 C1308 1.403 1_554 S
C1311 C1312 1.524 . S
C1311 C1315 1.400 . S
C1312 H1297 0.960 . S
C1312 H1298 0.960 . S
C1312 H1299 0.960 . S
C1312 C1311 1.524 . S
C1313 C1310 1.403 . S
C1313 C1314 1.392 . S
C1313 C1317 1.495 . S
C1314 C1313 1.392 . S
C1314 C1315 1.385 1_556 S
C1314 C1316 1.478 . S
C1315 H1309 0.930 . S
C1315 C1311 1.400 . S
C1315 C1314 1.385 1_554 S
C1316 C1314 1.478 . S
C1316 C1318 1.381 . S
C1316 C1322 1.383 1_556 S
C1317 C1313 1.495 . S
C1317 H1323 0.959 . S
C1317 H1324 0.961 . S
C1317 H1325 0.960 . S
C1318 C1316 1.381 . S
C1318 C1319 1.394 . S
C1318 H1326 0.930 . S
C1319 C1318 1.394 . S
C1319 C1320 1.383 . S
C1319 H1327 0.929 . S
C1320 C1319 1.383 . S
C1320 C1321 1.377 1_556 S
C1321 H1305 0.930 . S
C1321 C1320 1.377 1_554 S
C1321 C1322 1.379 . S
C1322 H1306 0.931 . S
C1322 C1316 1.383 1_554 S
C1322 C1321 1.379 . S
H1323 C1317 0.959 . S
H1324 C1317 0.961 . S
H1325 C1317 0.960 . S
H1326 C1318 0.930 . S
H1327 C1319 0.929 . S
H1328 C1336 0.929 . S
H1329 C1338 0.930 . S
H1330 C1340 0.930 . S
H1331 C1343 0.929 . S
H1332 C1346 0.930 . S
H1333 C1348 0.960 . S
H1334 C1348 0.960 . S
H1335 C1348 0.960 . S
C1336 H1328 0.929 . S
C1336 C1337 1.377 . S
C1336 C1338 1.384 . S
C1337 C1336 1.377 . S
C1337 C1343 1.390 . S
C1338 H1329 0.930 . S
C1338 C1336 1.384 . S
C1338 C1339 1.372 . S
C1339 C1338 1.372 . S
C1339 C1340 1.400 . S
C1339 C1344 1.490 . S
C1340 H1330 0.930 . S
C1340 C1339 1.400 . S
C1340 C1343 1.386 . S
H1341 C1357 0.930 . S
H1342 C1358 0.931 . S
C1343 H1331 0.929 . S
C1343 C1337 1.390 . S
C1343 C1340 1.386 . S
C1344 C1339 1.490 . S
C1344 C1346 1.395 . S
C1344 C1347 1.403 . S
H1345 C1351 0.930 . S
C1346 H1332 0.930 . S
C1346 C1344 1.395 . S
C1346 C1349 1.403 . S
C1347 C1344 1.403 . S
C1347 C1348 1.524 . S
C1347 C1351 1.400 . S
C1348 H1333 0.960 . S
C1348 H1334 0.960 . S
C1348 H1335 0.960 . S
C1348 C1347 1.524 . S
C1349 C1346 1.403 . S
C1349 C1350 1.392 . S
C1349 C1353 1.495 . S
C1350 C1349 1.392 . S
C1350 C1351 1.385 . S
C1350 C1352 1.478 . S
C1351 H1345 0.930 . S
C1351 C1347 1.400 . S
C1351 C1350 1.385 . S
C1352 C1350 1.478 . S
C1352 C1354 1.381 . S
C1352 C1358 1.383 . S
C1353 C1349 1.495 . S
C1353 H1359 0.959 . S
C1353 H1360 0.961 . S
C1353 H1361 0.960 . S
C1354 C1352 1.381 . S
C1354 C1355 1.394 . S
C1354 H1362 0.930 . S
C1355 C1354 1.394 . S
C1355 C1356 1.383 . S
C1355 H1363 0.929 . S
C1356 C1355 1.383 . S
C1356 C1357 1.377 . S
C1357 H1341 0.930 . S
C1357 C1356 1.377 . S
C1357 C1358 1.379 . S
C1358 H1342 0.931 . S
C1358 C1352 1.383 . S
C1358 C1357 1.379 . S
H1359 C1353 0.959 . S
H1360 C1353 0.961 . S
H1361 C1353 0.960 . S
H1362 C1354 0.930 . S
H1363 C1355 0.929 . S
H1364 C1372 0.929 . S
H1365 C1374 0.930 . S
H1366 C1376 0.930 . S
H1367 C1379 0.929 . S
H1368 C1382 0.930 . S
H1369 C1384 0.960 . S
H1370 C1384 0.960 . S
H1371 C1384 0.960 . S
C1372 H1364 0.929 . S
C1372 C1373 1.375 1_554 S
C1372 C1374 1.384 . S
C1373 C1372 1.375 1_556 S
C1373 C1379 1.392 . S
C1374 H1365 0.930 . S
C1374 C1372 1.384 . S
C1374 C1375 1.373 . S
C1375 C1374 1.373 . S
C1375 C1376 1.398 1_554 S
C1375 C1380 1.490 . S
C1376 H1366 0.930 . S
C1376 C1375 1.398 1_556 S
C1376 C1379 1.386 . S
H1377 C1393 0.930 . S
H1378 C1394 0.931 . S
C1379 H1367 0.929 . S
C1379 C1373 1.392 . S
C1379 C1376 1.386 . S
C1380 C1375 1.490 . S
C1380 C1382 1.395 . S
C1380 C1383 1.403 1_554 S
H1381 C1387 0.930 . S
C1382 H1368 0.930 . S
C1382 C1380 1.395 . S
C1382 C1385 1.403 . S
C1383 C1380 1.403 1_556 S
C1383 C1384 1.524 . S
C1383 C1387 1.400 . S
C1384 H1369 0.960 . S
C1384 H1370 0.960 . S
C1384 H1371 0.960 . S
C1384 C1383 1.524 . S
C1385 C1382 1.403 . S
C1385 C1386 1.392 . S
C1385 C1389 1.495 . S
C1386 C1385 1.392 . S
C1386 C1387 1.385 1_554 S
C1386 C1388 1.478 . S
C1387 H1381 0.930 . S
C1387 C1383 1.400 . S
C1387 C1386 1.385 1_556 S
C1388 C1386 1.478 . S
C1388 C1390 1.381 . S
C1388 C1394 1.383 1_554 S
C1389 C1385 1.495 . S
C1389 H1395 0.959 . S
C1389 H1396 0.961 . S
C1389 H1397 0.960 . S
C1390 C1388 1.381 . S
C1390 C1391 1.394 . S
C1390 H1398 0.930 . S
C1391 C1390 1.394 . S
C1391 C1392 1.383 . S
C1391 H1399 0.929 . S
C1392 C1391 1.383 . S
C1392 C1393 1.377 1_554 S
C1393 H1377 0.930 . S
C1393 C1392 1.377 1_556 S
C1393 C1394 1.379 . S
C1394 H1378 0.931 . S
C1394 C1388 1.383 1_556 S
C1394 C1393 1.379 . S
H1395 C1389 0.959 . S
H1396 C1389 0.961 . S
H1397 C1389 0.960 . S
H1398 C1390 0.930 . S
H1399 C1391 0.929 . S
C257 C113 1.641 . S
C276 C19 1.812 . S
C293 C82 1.640 . S
C312 C50 1.824 . S
C329 C51 1.647 . S
C348 C81 1.814 . S
C365 C112 1.822 . S
C384 C20 1.676 . S
C401 C237 1.649 . S
C420 C143 1.828 . S
C437 C187 1.638 . S
C456 C174 1.820 . S
C473 C175 1.638 . S
C492 C186 1.824 . S
C509 C144 1.649 . S
C528 C236 1.814 . S
C545 C41 0.732 . S
C564 C10 0.774 . S
C581 C103 0.728 . S
C600 C72 0.722 . S
C617 C134 0.735 . S
C636 C165 0.688 . S
C653 C227 0.736 . S
C672 C216 0.700 . S
C689 C32 1.959 . S
C708 C1 1.942 . S
C725 C63 1.968 . S
C744 C94 1.942 . S
C761 C125 1.959 . S
C780 C156 1.942 . S
C797 C206 1.968 . S
C816 C218 1.943 . S
C833 C0 1.530 . S
C852 C31 1.536 . S
C869 C62 1.528 . S
C888 C93 1.510 . S
C905 C124 1.528 . S
C924 C155 1.526 . S
C941 C205 1.529 . S
C960 C217 1.508 . S
C977 C2 1.166 . S
C996 C29 1.204 . S
C1013 C33 1.173 . S
C1032 C60 1.157 . S
C1049 C64 1.172 . S
C1068 C91 1.205 . S
C1085 C122 1.174 . S
C1104 C95 1.200 . S
C1121 C126 1.168 . S
C1140 C153 1.131 . S
C1157 C184 1.175 . S
C1176 C157 1.169 . S
C1193 C215 1.173 . S
C1212 C188 1.169 . S
C1229 C246 1.169 . S
C1248 C219 1.202 . S
C1265 C196 1.104 . S
C1284 C30 1.084 . S
C1301 C61 1.109 1_556 S
C1320 C247 1.070 . S
C1337 C92 1.104 . S
C1356 C154 1.093 . S
C1373 C185 1.112 1_556 S
C1392 C123 1.153 1_554 S
