# Generated by pormake.
# Topology ofo, (3)-cn, num edge types: 1
# Building blocks:
#     Node 0, Type 0, BuildingBlock: OLANEW_clean_sbu_2, # of connection points: 3
#     Node 1, Type 0, BuildingBlock: OLANEW_clean_sbu_2, # of connection points: 3
#     Node 2, Type 0, BuildingBlock: OLANEW_clean_sbu_2, # of connection points: 3
#     Node 3, Type 0, BuildingBlock: OLANEW_clean_sbu_2, # of connection points: 3
#     Node 4, Type 0, BuildingBlock: OLANEW_clean_sbu_2, # of connection points: 3
#     Node 5, Type 0, BuildingBlock: OLANEW_clean_sbu_2, # of connection points: 3
#     Node 6, Type 0, BuildingBlock: OLANEW_clean_sbu_2, # of connection points: 3
#     Node 7, Type 0, BuildingBlock: OLANEW_clean_sbu_2, # of connection points: 3
#     Node 8, Type 0, BuildingBlock: OLANEW_clean_sbu_2, # of connection points: 3
#     Node 9, Type 0, BuildingBlock: OLANEW_clean_sbu_2, # of connection points: 3
#     Node 10, Type 0, BuildingBlock: OLANEW_clean_sbu_2, # of connection points: 3
#     Node 11, Type 0, BuildingBlock: OLANEW_clean_sbu_2, # of connection points: 3
#     Edge 12, Type (0, 0), BuildingBlock: UVAHIK_clean_linker_0, # of connection points: 2
#     Edge 13, Type (0, 0), BuildingBlock: UVAHIK_clean_linker_0, # of connection points: 2
#     Edge 14, Type (0, 0), BuildingBlock: UVAHIK_clean_linker_0, # of connection points: 2
#     Edge 15, Type (0, 0), BuildingBlock: UVAHIK_clean_linker_0, # of connection points: 2
#     Edge 16, Type (0, 0), BuildingBlock: UVAHIK_clean_linker_0, # of connection points: 2
#     Edge 17, Type (0, 0), BuildingBlock: UVAHIK_clean_linker_0, # of connection points: 2
#     Edge 18, Type (0, 0), BuildingBlock: UVAHIK_clean_linker_0, # of connection points: 2
#     Edge 19, Type (0, 0), BuildingBlock: UVAHIK_clean_linker_0, # of connection points: 2
#     Edge 20, Type (0, 0), BuildingBlock: UVAHIK_clean_linker_0, # of connection points: 2
#     Edge 21, Type (0, 0), BuildingBlock: UVAHIK_clean_linker_0, # of connection points: 2
#     Edge 22, Type (0, 0), BuildingBlock: UVAHIK_clean_linker_0, # of connection points: 2
#     Edge 23, Type (0, 0), BuildingBlock: UVAHIK_clean_linker_0, # of connection points: 2
#     Edge 24, Type (0, 0), BuildingBlock: UVAHIK_clean_linker_0, # of connection points: 2
#     Edge 25, Type (0, 0), BuildingBlock: UVAHIK_clean_linker_0, # of connection points: 2
#     Edge 26, Type (0, 0), BuildingBlock: UVAHIK_clean_linker_0, # of connection points: 2
#     Edge 27, Type (0, 0), BuildingBlock: UVAHIK_clean_linker_0, # of connection points: 2
#     Edge 28, Type (0, 0), BuildingBlock: UVAHIK_clean_linker_0, # of connection points: 2
#     Edge 29, Type (0, 0), BuildingBlock: UVAHIK_clean_linker_0, # of connection points: 2
# Relax obj value: 0.000
# Max RMSD: 0.053
# Mean RMSD: 0.053
data_MOF--net-ofo--node1-OLANEW_clean_sbu_2--edge1-UVAHIK_clean_linker_0
_symmetry_space_group_name_H-M    P1
_symmetry_Int_Tables_number       1
_symmetry_cell_setting            triclinic
loop_
_symmetry_equiv_pos_as_xyz
'x, y, z'
_cell_length_a     29.059749
_cell_length_b     29.084626
_cell_length_c     99.814377
_cell_angle_alpha  89.899111
_cell_angle_beta   89.964083
_cell_angle_gamma 120.0051
loop_
_atom_site_label
_atom_site_type_symbol
_atom_site_fract_x
_atom_site_fract_y
_atom_site_fract_z
_atom_type_partial_charge
O0 O 0.51653 0.2402 0.04745 0.0
Cd1 Cd 0.5095 0.31905 0.05214 0.0
O2 O 0.47015 0.19761 0.06528 0.0
Cd3 Cd 0.46727 0.26502 0.07394 0.0
O4 O 0.47764 0.31586 0.09109 0.0
C5 C 0.45829 0.29143 0.10205 0.0
O6 O 0.43172 0.23925 0.10196 0.0
C7 C 0.4948 0.19854 0.05467 0.0
C8 C 0.41527 0.31051 0.04252 0.0
O9 O 0.45682 0.32895 0.0351 0.0
O10 O 0.41822 0.29587 0.05445 0.0
O11 O 0.25002 0.522 0.69017 0.0
Cd12 Cd 0.16542 0.51764 0.68555 0.0
O13 O 0.2242 0.51397 0.71097 0.0
Cd14 Cd 0.21987 0.50651 0.73283 0.0
O15 O 0.19445 0.50888 0.75332 0.0
C16 C 0.1733 0.53744 0.75528 0.0
O17 O 0.16866 0.56355 0.7451 0.0
C18 C 0.25952 0.51972 0.7025 0.0
C19 C 0.08435 0.41628 0.67879 0.0
O20 O 0.1103 0.45091 0.6697 0.0
O21 O 0.09708 0.42937 0.69105 0.0
O22 O 0.77533 0.23945 0.39105 0.0
Cd23 Cd 0.70005 0.15397 0.3978 0.0
O24 O 0.82501 0.23899 0.40762 0.0
Cd25 Cd 0.76 0.16914 0.41731 0.0
O26 O 0.69554 0.12117 0.43133 0.0
C27 C 0.65498 0.12697 0.43136 0.0
O28 O 0.65246 0.15935 0.42259 0.0
C29 C 0.8197 0.26089 0.39714 0.0
C30 C 0.70175 0.0699 0.3849 0.0
O31 O 0.67498 0.09028 0.38013 0.0
O32 O 0.72759 0.08919 0.39579 0.0
O33 O 0.58033 0.73072 0.0518 0.0
Cd34 Cd 0.58981 0.65301 0.056 0.0
O35 O 0.64068 0.78133 0.06654 0.0
Cd36 Cd 0.64516 0.7148 0.07536 0.0
O37 O 0.6242 0.65535 0.09117 0.0
C38 C 0.57483 0.62462 0.0932 0.0
O39 O 0.5408 0.62829 0.08523 0.0
C40 C 0.60801 0.77574 0.05734 0.0
C41 C 0.66823 0.65493 0.03947 0.0
O42 O 0.62039 0.63597 0.03533 0.0
O43 O 0.67899 0.67259 0.05149 0.0
O44 O 0.79778 0.57729 0.72886 0.0
Cd45 Cd 0.88343 0.58254 0.73265 0.0
O46 O 0.78147 0.58376 0.75011 0.0
Cd47 Cd 0.85031 0.58195 0.75835 0.0
O48 O 0.88714 0.56284 0.77495 0.0
C49 C 0.89946 0.59152 0.78539 0.0
O50 O 0.89334 0.63334 0.78532 0.0
C51 C 0.76813 0.57984 0.73785 0.0
C52 C 0.95978 0.65411 0.71474 0.0
O53 O 0.92815 0.60577 0.7114 0.0
O54 O 0.9557 0.66859 0.7266 0.0
O55 O 0.2735 0.81962 0.38409 0.0
Cd56 Cd 0.34262 0.91058 0.38923 0.0
O57 O 0.22651 0.82028 0.4013 0.0
Cd58 Cd 0.29187 0.889 0.41112 0.0
O59 O 0.33857 0.9138 0.42957 0.0
C60 C 0.31354 0.91199 0.44019 0.0
O61 O 0.26368 0.90006 0.43917 0.0
C62 C 0.23062 0.79758 0.39086 0.0
C63 C 0.33552 0.98233 0.37192 0.0
O64 O 0.36932 0.96707 0.36979 0.0
O65 O 0.30552 0.96413 0.38227 0.0
O66 O 0.74393 0.52588 0.29854 0.0
Cd67 Cd 0.6657 0.53413 0.30312 0.0
O68 O 0.72076 0.52217 0.27762 0.0
Cd69 Cd 0.71996 0.51713 0.25571 0.0
O70 O 0.69556 0.50549 0.23469 0.0
C71 C 0.65283 0.50491 0.23158 0.0
O72 O 0.62565 0.51218 0.24103 0.0
C73 C 0.75214 0.52064 0.28628 0.0
C74 C 0.68612 0.62537 0.31705 0.0
O75 O 0.67246 0.58176 0.32326 0.0
O76 O 0.69108 0.62603 0.30428 0.0
O77 O 0.24343 0.78072 0.93907 0.0
Cd78 Cd 0.15917 0.69979 0.93448 0.0
O79 O 0.24915 0.81684 0.91931 0.0
Cd80 Cd 0.17989 0.7473 0.91088 0.0
O81 O 0.13972 0.68968 0.89484 0.0
C82 C 0.12385 0.7041 0.88465 0.0
O83 O 0.12854 0.75144 0.88463 0.0
C84 C 0.26773 0.81942 0.93099 0.0
C85 C 0.07848 0.69046 0.95146 0.0
O86 O 0.11066 0.67487 0.95517 0.0
O87 O 0.08428 0.71036 0.93969 0.0
O88 O 0.40802 0.19522 0.60513 0.0
Cd89 Cd 0.40058 0.10852 0.60158 0.0
O90 O 0.38036 0.20023 0.58495 0.0
Cd91 Cd 0.37702 0.12845 0.57714 0.0
O92 O 0.39099 0.08778 0.56057 0.0
C93 C 0.37535 0.09364 0.54913 0.0
O94 O 0.34976 0.12016 0.54833 0.0
C95 C 0.39598 0.21984 0.59656 0.0
C96 C 0.3305 0.03315 0.61988 0.0
O97 O 0.37922 0.06472 0.62294 0.0
O98 O 0.31485 0.03706 0.60815 0.0
O99 O 0.20072 0.40798 0.2618 0.0
Cd100 Cd 0.26785 0.38347 0.25634 0.0
O101 O 0.16568 0.38503 0.24168 0.0
Cd102 Cd 0.22839 0.37284 0.23332 0.0
O103 O 0.28951 0.38169 0.21904 0.0
C104 C 0.33006 0.42756 0.21759 0.0
O105 O 0.33483 0.46638 0.22526 0.0
C106 C 0.16487 0.40142 0.25344 0.0
C107 C 0.27837 0.32157 0.27618 0.0
O108 O 0.31101 0.37164 0.27548 0.0
O109 O 0.24073 0.30089 0.26757 0.0
O110 O 0.79022 0.26211 0.98049 0.0
Cd111 Cd 0.87062 0.3407 0.98842 0.0
O112 O 0.81439 0.2907 0.96002 0.0
Cd113 Cd 0.8152 0.29508 0.93809 0.0
O114 O 0.83573 0.32401 0.91747 0.0
C115 C 0.85338 0.37321 0.91545 0.0
O116 O 0.85749 0.40343 0.92567 0.0
C117 C 0.78046 0.25624 0.96801 0.0
C118 C 0.95164 0.32164 0.99633 0.0
O119 O 0.91565 0.31657 0.00462 0.0
O120 O 0.94881 0.33491 0.98424 0.0
O121 O 0.49836 0.76317 0.63578 0.0
Cd122 Cd 0.50638 0.85031 0.63864 0.0
O123 O 0.4964 0.78022 0.61459 0.0
Cd124 Cd 0.49321 0.77416 0.59271 0.0
O125 O 0.4845 0.79413 0.57209 0.0
C126 C 0.44548 0.80116 0.56973 0.0
O127 O 0.41239 0.79427 0.57953 0.0
C128 C 0.49408 0.7483 0.62366 0.0
C129 C 0.60688 0.93049 0.64636 0.0
O130 O 0.56974 0.90651 0.65503 0.0
O131 O 0.5968 0.91593 0.63409 0.0
C132 C 0.45404 0.29207 0.12704 0.0
C133 C 0.47038 0.32044 0.11492 0.0
C134 C 0.46995 0.31845 0.13928 0.0
C135 C 0.57585 0.44338 0.15393 0.0
H136 H 0.48875 0.3879 0.18582 0.0
C137 C 0.66151 0.48601 0.20749 0.0
C138 C 0.6324 0.49337 0.21767 0.0
C139 C 0.64074 0.47199 0.19456 0.0
C140 C 0.51342 0.40427 0.177 0.0
H141 H 0.51415 0.39921 0.10617 0.0
H142 H 0.54132 0.44543 0.1276 0.0
H143 H 0.45108 0.35085 0.16404 0.0
H144 H 0.55931 0.49346 0.22212 0.0
H145 H 0.52312 0.46892 0.19954 0.0
H146 H 0.63804 0.49715 0.16697 0.0
C147 C 0.51696 0.40261 0.12763 0.0
C148 C 0.49206 0.38255 0.16451 0.0
C149 C 0.50116 0.37613 0.11534 0.0
C150 C 0.58267 0.4878 0.21453 0.0
C151 C 0.56181 0.47356 0.20161 0.0
C152 C 0.59719 0.46518 0.16643 0.0
C153 C 0.50236 0.374 0.13976 0.0
C154 C 0.52328 0.40108 0.15283 0.0
C155 C 0.59033 0.46482 0.19153 0.0
C156 C 0.56647 0.44525 0.17812 0.0
H157 H 0.43034 0.24915 0.1271 0.0
H158 H 0.45854 0.29486 0.14836 0.0
H159 H 0.6013 0.45848 0.1452 0.0
H160 H 0.69997 0.4901 0.20955 0.0
H161 H 0.66344 0.465 0.18704 0.0
C162 C 0.15459 0.51056 0.77948 0.0
C163 C 0.15518 0.54237 0.7688 0.0
C164 C 0.13898 0.5167 0.79231 0.0
C165 C 0.07327 0.57994 0.81089 0.0
H166 H 0.16022 0.57988 0.84032 0.0
C167 C 0.09977 0.69228 0.86033 0.0
C168 C 0.10849 0.67192 0.87224 0.0
C169 C 0.09375 0.66628 0.84815 0.0
C170 C 0.13477 0.57905 0.83229 0.0
H171 H 0.13893 0.60492 0.76315 0.0
H172 H 0.11337 0.61673 0.78549 0.0
H173 H 0.17254 0.55364 0.81814 0.0
H174 H 0.11329 0.60591 0.88085 0.0
H175 H 0.1019 0.56007 0.8596 0.0
H176 H 0.0379 0.60854 0.82496 0.0
C177 C 0.12371 0.58614 0.78398 0.0
C178 C 0.14182 0.56391 0.81953 0.0
C179 C 0.13889 0.57971 0.77116 0.0
C180 C 0.10735 0.62304 0.87184 0.0
C181 C 0.10113 0.59691 0.85965 0.0
C182 C 0.0667 0.5957 0.82364 0.0
C183 C 0.124 0.55508 0.79476 0.0
C184 C 0.11195 0.5652 0.8086 0.0
C185 C 0.09602 0.61915 0.84761 0.0
C186 C 0.09797 0.59626 0.83445 0.0
H187 H 0.16643 0.48106 0.77797 0.0
H188 H 0.13893 0.49152 0.80032 0.0
H189 H 0.04875 0.58038 0.80279 0.0
H190 H 0.10009 0.72968 0.86028 0.0
H191 H 0.09011 0.68467 0.83908 0.0
C192 C 0.57281 0.11422 0.44283 0.0
C193 C 0.61441 0.10288 0.44208 0.0
C194 C 0.53834 0.09733 0.45381 0.0
C195 C 0.53754 0.06501 0.48939 0.0
H196 H 0.3911 0.03249 0.48747 0.0
C197 C 0.4208 0.05086 0.53735 0.0
C198 C 0.39106 0.07686 0.53676 0.0
C199 C 0.44065 0.04077 0.52562 0.0
C200 C 0.4321 0.04197 0.48819 0.0
H201 H 0.65017 0.06172 0.45186 0.0
H202 H 0.58947 0.03161 0.47097 0.0
H203 H 0.43889 0.03796 0.46693 0.0
H204 H 0.35669 0.11028 0.52333 0.0
H205 H 0.39197 0.09383 0.50304 0.0
H206 H 0.53163 0.07111 0.51056 0.0
C207 C 0.58425 0.05458 0.46318 0.0
C208 C 0.45944 0.04491 0.47641 0.0
C209 C 0.61888 0.07163 0.4522 0.0
C210 C 0.37954 0.09027 0.52417 0.0
C211 C 0.39952 0.08041 0.51248 0.0
C212 C 0.51031 0.06235 0.50116 0.0
C213 C 0.54449 0.06851 0.4643 0.0
C214 C 0.5129 0.0577 0.47683 0.0
C215 C 0.43129 0.05655 0.51305 0.0
C216 C 0.45766 0.05216 0.5007 0.0
H217 H 0.56803 0.138 0.4352 0.0
H218 H 0.50857 0.10927 0.45438 0.0
H219 H 0.5789 0.07573 0.49011 0.0
H220 H 0.42998 0.03956 0.5469 0.0
H221 H 0.46412 0.02141 0.52644 0.0
C222 C 0.36177 0.39799 0.19773 0.0
C223 C 0.36728 0.43885 0.20627 0.0
C224 C 0.39225 0.40983 0.18604 0.0
C225 C 0.50692 0.51982 0.16766 0.0
H226 H 0.42595 0.44408 0.13633 0.0
C227 C 0.59144 0.58842 0.11443 0.0
C228 C 0.55565 0.59028 0.10527 0.0
C229 C 0.57316 0.56094 0.12657 0.0
C230 C 0.44911 0.46583 0.14496 0.0
H231 H 0.41153 0.5239 0.20962 0.0
H232 H 0.46347 0.5446 0.18918 0.0
H233 H 0.38714 0.41536 0.15845 0.0
H234 H 0.47235 0.5625 0.10141 0.0
H235 H 0.4408 0.516 0.12254 0.0
H236 H 0.56751 0.5724 0.15411 0.0
C237 C 0.43621 0.5033 0.19153 0.0
C238 C 0.4271 0.44886 0.1577 0.0
C239 C 0.40605 0.49144 0.20325 0.0
C240 C 0.50108 0.56203 0.10823 0.0
C241 C 0.48289 0.53488 0.12036 0.0
C242 C 0.52869 0.53719 0.1549 0.0
C243 C 0.42867 0.46282 0.18257 0.0
C244 C 0.45513 0.47651 0.16921 0.0
C245 C 0.51872 0.53488 0.12983 0.0
C246 C 0.49936 0.51139 0.14337 0.0
H247 H 0.33271 0.35696 0.19986 0.0
H248 H 0.38627 0.37753 0.17954 0.0
H249 H 0.53022 0.54124 0.17631 0.0
H250 H 0.63373 0.60942 0.11239 0.0
H251 H 0.60177 0.56089 0.13351 0.0
C252 C 0.91944 0.60228 0.80995 0.0
C253 C 0.91273 0.57393 0.79803 0.0
C254 C 0.92424 0.58198 0.82223 0.0
C255 C 0.88463 0.45402 0.83826 0.0
H256 H 0.96941 0.54197 0.86779 0.0
C257 C 0.86984 0.36588 0.89104 0.0
C258 C 0.86883 0.39634 0.90183 0.0
C259 C 0.88361 0.38781 0.87817 0.0
C260 C 0.94519 0.51685 0.85968 0.0
H261 H 0.90968 0.50379 0.78958 0.0
H262 H 0.91886 0.46873 0.81103 0.0
H263 H 0.97962 0.581 0.84561 0.0
H264 H 0.88207 0.47393 0.90758 0.0
H265 H 0.90459 0.51161 0.88518 0.0
H266 H 0.84802 0.39051 0.85242 0.0
C267 C 0.91911 0.50608 0.81089 0.0
C268 C 0.95137 0.53921 0.84693 0.0
C269 C 0.91419 0.52636 0.79859 0.0
C270 C 0.88253 0.44935 0.8995 0.0
C271 C 0.89595 0.47115 0.88664 0.0
C272 C 0.87799 0.43178 0.85103 0.0
C273 C 0.92267 0.53293 0.82289 0.0
C274 C 0.92063 0.50824 0.83611 0.0
C275 C 0.89638 0.44061 0.87578 0.0
C276 C 0.90746 0.46312 0.86196 0.0
H277 H 0.91877 0.63918 0.80989 0.0
H278 H 0.92667 0.60361 0.83127 0.0
H279 H 0.85963 0.4292 0.83021 0.0
H280 H 0.85992 0.32503 0.89251 0.0
H281 H 0.88422 0.36333 0.87009 0.0
C282 C 0.47659 0.83251 0.54622 0.0
C283 C 0.43813 0.81858 0.55634 0.0
C284 C 0.46982 0.85015 0.53372 0.0
C285 C 0.39272 0.90375 0.51667 0.0
H286 H 0.42716 0.85292 0.48445 0.0
C287 C 0.30707 0.90887 0.46517 0.0
C288 C 0.33715 0.91549 0.45357 0.0
C289 C 0.32594 0.90507 0.47774 0.0
C290 C 0.41823 0.86839 0.49333 0.0
H291 H 0.36218 0.81177 0.56119 0.0
H292 H 0.34982 0.84119 0.53938 0.0
H293 H 0.44725 0.82984 0.50626 0.0
H294 H 0.41222 0.92651 0.44615 0.0
H295 H 0.44567 0.92085 0.46817 0.0
H296 H 0.36212 0.94082 0.50378 0.0
C297 C 0.38584 0.83976 0.54116 0.0
C298 C 0.42971 0.85505 0.50586 0.0
C299 C 0.39271 0.82241 0.55365 0.0
C300 C 0.38781 0.9209 0.45489 0.0
C301 C 0.40676 0.91712 0.46749 0.0
C302 C 0.38102 0.91685 0.50415 0.0
C303 C 0.42436 0.85405 0.53104 0.0
C304 C 0.41625 0.87181 0.51769 0.0
C305 C 0.37553 0.90802 0.47905 0.0
C306 C 0.39289 0.8987 0.49232 0.0
H307 H 0.51219 0.83027 0.548 0.0
H308 H 0.50053 0.86131 0.5262 0.0
H309 H 0.38278 0.91828 0.52556 0.0
H310 H 0.26795 0.90468 0.46454 0.0
H311 H 0.30048 0.89755 0.48636 0.0
C312 C 0.53738 0.15625 0.04142 0.0
C313 C 0.50128 0.15242 0.05136 0.0
C314 C 0.54763 0.11459 0.0394 0.0
C315 C 0.49628 0.97192 0.04659 0.0
H316 H 0.64477 0.01064 0.04539 0.0
C317 C 0.63 0.87042 0.05983 0.0
C318 C 0.5999 0.82062 0.05367 0.0
C319 C 0.61928 0.91139 0.05724 0.0
C320 C 0.60313 0.9992 0.0457 0.0
H321 H 0.44588 0.10081 0.06653 0.0
H322 H 0.46373 0.02848 0.063 0.0
H323 H 0.62085 0.08001 0.04498 0.0
H324 H 0.53616 0.77557 0.03957 0.0
H325 H 0.51765 0.84719 0.03504 0.0
H326 H 0.47859 0.89126 0.04782 0.0
C327 C 0.48402 0.06351 0.05674 0.0
C328 C 0.58939 0.03891 0.04531 0.0
C329 C 0.47403 0.10518 0.05882 0.0
C330 C 0.55998 0.81334 0.04453 0.0
C331 C 0.54915 0.85428 0.04198 0.0
C332 C 0.51 0.93223 0.04692 0.0
C333 C 0.52166 0.06809 0.04719 0.0
C334 C 0.53585 0.02575 0.04603 0.0
C335 C 0.57814 0.90351 0.04846 0.0
C336 C 0.56362 0.94546 0.04674 0.0
H337 H 0.55899 0.19206 0.03549 0.0
H338 H 0.57643 0.11904 0.03186 0.0
H339 H 0.45465 0.9605 0.04702 0.0
H340 H 0.66106 0.87745 0.06691 0.0
H341 H 0.64199 0.94864 0.06251 0.0
C342 C 0.33095 0.54004 0.71959 0.0
C343 C 0.31063 0.52415 0.70659 0.0
C344 C 0.38028 0.54603 0.72309 0.0
C345 C 0.50676 0.57044 0.70831 0.0
H346 H 0.52587 0.51713 0.74224 0.0
C347 C 0.69825 0.56526 0.72091 0.0
C348 C 0.71713 0.57652 0.73414 0.0
C349 C 0.64903 0.55983 0.71757 0.0
C350 C 0.52146 0.53292 0.73281 0.0
H351 H 0.32648 0.50239 0.68706 0.0
H352 H 0.4124 0.51289 0.69317 0.0
H353 H 0.43906 0.50533 0.73651 0.0
H354 H 0.69941 0.59204 0.7542 0.0
H355 H 0.61426 0.58365 0.74833 0.0
H356 H 0.58914 0.59847 0.70463 0.0
C357 C 0.39027 0.52088 0.70065 0.0
C358 C 0.47163 0.52603 0.72951 0.0
C359 C 0.34091 0.51465 0.69717 0.0
C360 C 0.686 0.58306 0.74392 0.0
C361 C 0.63692 0.57787 0.74057 0.0
C362 C 0.55664 0.57758 0.71163 0.0
C363 C 0.41062 0.53681 0.71363 0.0
C364 C 0.46367 0.54454 0.71721 0.0
C365 C 0.61759 0.56578 0.72738 0.0
C366 C 0.56462 0.55879 0.72391 0.0
H367 H 0.30982 0.54959 0.72695 0.0
H368 H 0.39531 0.55925 0.73312 0.0
H369 H 0.5021 0.58589 0.69884 0.0
H370 H 0.72107 0.55974 0.71314 0.0
H371 H 0.63514 0.54984 0.70735 0.0
C372 C 0.13724 0.72326 0.39377 0.0
C373 C 0.18661 0.74413 0.38725 0.0
C374 C 0.09721 0.67101 0.39151 0.0
C375 C 0.07975 0.54196 0.38222 0.0
H376 H 0.93048 0.50051 0.38191 0.0
C377 C 0.85674 0.34112 0.38216 0.0
C378 C 0.8641 0.31276 0.39257 0.0
C379 C 0.89713 0.39228 0.37876 0.0
C380 C 0.97196 0.5113 0.38177 0.0
H381 H 0.23191 0.72695 0.37286 0.0
H382 H 0.16173 0.63525 0.36895 0.0
H383 H 0.99784 0.59422 0.38043 0.0
H384 H 0.92061 0.31513 0.40715 0.0
H385 H 0.9907 0.40418 0.40127 0.0
H386 H 0.05383 0.45906 0.38383 0.0
C387 C 0.1543 0.65948 0.37586 0.0
C388 C 0.01055 0.56505 0.38106 0.0
C389 C 0.19434 0.71206 0.37804 0.0
C390 C 0.9135 0.33585 0.39911 0.0
C391 C 0.95389 0.38684 0.39567 0.0
C392 C 0.04114 0.48818 0.38299 0.0
C393 C 0.10559 0.63818 0.38273 0.0
C394 C 0.06486 0.58106 0.38159 0.0
C395 C 0.94586 0.41605 0.38563 0.0
C396 C 0.98681 0.47233 0.38309 0.0
H397 H 0.12986 0.74689 0.40089 0.0
H398 H 0.06042 0.65569 0.39708 0.0
H399 H 0.12125 0.55299 0.38274 0.0
H400 H 0.81927 0.32444 0.37688 0.0
H401 H 0.88995 0.41354 0.37088 0.0
C402 C 0.79577 0.4865 0.27052 0.0
C403 C 0.79679 0.51236 0.28248 0.0
C404 C 0.83699 0.47666 0.26738 0.0
C405 C 0.94262 0.46029 0.28309 0.0
H406 H 0.9989 0.48135 0.24698 0.0
C407 C 0.12424 0.43766 0.26952 0.0
C408 C 0.12281 0.41378 0.25718 0.0
C409 C 0.0853 0.45075 0.27276 0.0
C410 C 0.98322 0.47464 0.25708 0.0
H411 H 0.84185 0.54787 0.30059 0.0
H412 H 0.91373 0.53071 0.29512 0.0
H413 H 0.92977 0.50272 0.25219 0.0
H414 H 0.0786 0.38406 0.23866 0.0
H415 H 0.01045 0.40586 0.24439 0.0
H416 H 0.99553 0.43157 0.28796 0.0
C417 C 0.88098 0.51793 0.28817 0.0
C418 C 0.94365 0.487 0.26007 0.0
C419 C 0.83989 0.52796 0.29127 0.0
C420 C 0.08119 0.40272 0.24823 0.0
C421 C 0.04223 0.41558 0.25147 0.0
C422 C 0.98205 0.4477 0.2801 0.0
C423 C 0.87991 0.49197 0.27621 0.0
C424 C 0.92276 0.47983 0.2731 0.0
C425 C 0.04393 0.4401 0.26374 0.0
C426 C 0.00271 0.4545 0.26704 0.0
H427 H 0.76234 0.47204 0.26378 0.0
H428 H 0.83446 0.45565 0.25822 0.0
H429 H 0.92684 0.45361 0.29319 0.0
H430 H 0.15583 0.44691 0.27663 0.0
H431 H 0.08819 0.4701 0.28223 0.0
C432 C 0.70287 0.16521 0.97139 0.0
C433 C 0.72999 0.21055 0.96325 0.0
C434 C 0.65322 0.12339 0.96762 0.0
C435 C 0.56352 0.06345 0.93876 0.0
H436 H 0.45447 0.00153 0.96619 0.0
C437 C 0.34549 0.90981 0.92615 0.0
C438 C 0.31886 0.8664 0.93493 0.0
C439 C 0.39505 0.95286 0.92955 0.0
C440 C 0.48458 0.01792 0.95843 0.0
H441 H 0.72526 0.24778 0.94487 0.0
H442 H 0.63906 0.17429 0.93813 0.0
H443 H 0.54274 0.07356 0.97198 0.0
H444 H 0.32337 0.83464 0.95426 0.0
H445 H 0.40996 0.90928 0.9601 0.0
H446 H 0.50551 0.00748 0.92523 0.0
C447 C 0.65678 0.1708 0.94734 0.0
C448 C 0.53521 0.05925 0.96176 0.0
C449 C 0.7065 0.21281 0.95115 0.0
C450 C 0.34262 0.86747 0.94728 0.0
C451 C 0.39224 0.91045 0.95066 0.0
C452 C 0.51289 0.02193 0.93544 0.0
C453 C 0.62931 0.1259 0.95562 0.0
C454 C 0.57535 0.08235 0.95198 0.0
C455 C 0.41927 0.95353 0.9418 0.0
C456 C 0.47283 0.99852 0.94525 0.0
H457 H 0.71986 0.1622 0.98079 0.0
H458 H 0.63348 0.08905 0.97413 0.0
H459 H 0.59373 0.08003 0.93103 0.0
H460 H 0.32827 0.91044 0.91658 0.0
H461 H 0.41431 0.98573 0.92258 0.0
C462 C 0.46101 0.66896 0.60855 0.0
C463 C 0.48599 0.69504 0.62047 0.0
C464 C 0.45142 0.61765 0.60595 0.0
C465 C 0.43542 0.49786 0.62302 0.0
H466 H 0.4592 0.45936 0.58758 0.0
C467 C 0.4251 0.29758 0.61202 0.0
C468 C 0.40252 0.27254 0.59979 0.0
C469 C 0.43422 0.34868 0.61469 0.0
C470 C 0.45168 0.46923 0.59749 0.0
H471 H 0.52027 0.68758 0.63907 0.0
H472 H 0.50378 0.59823 0.63453 0.0
H473 H 0.47816 0.5497 0.59181 0.0
H474 H 0.37055 0.28121 0.58092 0.0
H475 H 0.38564 0.36976 0.58566 0.0
H476 H 0.40873 0.41737 0.6287 0.0
C477 C 0.49133 0.6173 0.6272 0.0
C478 C 0.46265 0.52107 0.59992 0.0
C479 C 0.50101 0.6686 0.62977 0.0
C480 C 0.38827 0.29937 0.59041 0.0
C481 C 0.39727 0.35036 0.59309 0.0
C482 C 0.42433 0.44597 0.62059 0.0
C483 C 0.46621 0.59111 0.61529 0.0
C484 C 0.4547 0.53601 0.61271 0.0
C485 C 0.42087 0.37589 0.60519 0.0
C486 C 0.43231 0.431 0.60779 0.0
H487 H 0.44711 0.68721 0.60141 0.0
H488 H 0.43108 0.5982 0.5968 0.0
H489 H 0.42807 0.50786 0.63294 0.0
H490 H 0.43673 0.27817 0.61946 0.0
H491 H 0.45295 0.36735 0.62406 0.0
C492 C 0.03815 0.32479 0.99195 0.0
C493 C 0.99614 0.31417 0.00073 0.0
C494 C 0.08158 0.32057 0.99633 0.0
C495 C 0.15186 0.32211 0.02732 0.0
H496 H 0.22096 0.26781 0.00418 0.0
C497 C 0.32141 0.28978 0.04605 0.0
C498 C 0.3656 0.30696 0.03754 0.0
C499 C 0.27502 0.28784 0.04148 0.0
C500 C 0.20232 0.28346 0.01072 0.0
H501 H 0.96609 0.2893 0.02092 0.0
H502 H 0.04136 0.28108 0.0285 0.0
H503 H 0.14179 0.26858 0.99634 0.0
H504 H 0.39545 0.33492 0.01748 0.0
H505 H 0.3145 0.33168 0.00953 0.0
H506 H 0.2124 0.33707 0.04168 0.0
C507 C 0.04128 0.2937 0.01829 0.0
C508 C 0.15698 0.28395 0.00623 0.0
C509 C 0.99795 0.29808 0.01391 0.0
C510 C 0.36211 0.32148 0.0243 0.0
C511 C 0.31562 0.31933 0.01971 0.0
C512 C 0.19705 0.32147 0.03182 0.0
C513 C 0.08393 0.30546 0.0096 0.0
C514 C 0.13131 0.30347 0.01446 0.0
C515 C 0.27167 0.30284 0.02828 0.0
C516 C 0.22293 0.30233 0.02355 0.0
H517 H 0.03804 0.3374 0.98173 0.0
H518 H 0.11397 0.33052 0.98941 0.0
H519 H 0.13372 0.33834 0.03383 0.0
H520 H 0.32272 0.27817 0.0563 0.0
H521 H 0.24162 0.27433 0.04827 0.0
C522 C 0.70418 0.99007 0.64226 0.0
C523 C 0.6592 0.97517 0.65029 0.0
C524 C 0.7531 0.03404 0.64565 0.0
C525 C 0.82365 0.1307 0.67345 0.0
H526 H 0.91536 0.21593 0.64441 0.0
C527 C 0.01256 0.35545 0.66315 0.0
C528 C 0.03994 0.36323 0.67527 0.0
C529 C 0.96861 0.30607 0.66013 0.0
C530 C 0.89003 0.1931 0.65268 0.0
H531 H 0.62994 0.9944 0.66815 0.0
H532 H 0.71415 0.07248 0.67372 0.0
H533 H 0.83344 0.1351 0.63937 0.0
H534 H 0.04426 0.32513 0.69351 0.0
H535 H 0.9695 0.23821 0.68797 0.0
H536 H 0.87822 0.19067 0.6867 0.0
C537 C 0.71269 0.04938 0.66507 0.0
C538 C 0.84326 0.14587 0.64978 0.0
C539 C 0.66412 0.00471 0.66184 0.0
C540 C 0.0235 0.32033 0.68414 0.0
C541 C 0.9803 0.27057 0.68099 0.0
C542 C 0.86983 0.17851 0.67633 0.0
C543 C 0.75791 0.06493 0.65699 0.0
C544 C 0.80914 0.11408 0.66012 0.0
C545 C 0.95168 0.26286 0.66902 0.0
C546 C 0.90359 0.21064 0.66598 0.0
H547 H 0.70159 0.96766 0.63336 0.0
H548 H 0.78707 0.04373 0.63934 0.0
H549 H 0.7992 0.107 0.68174 0.0
H550 H 0.02409 0.38799 0.65617 0.0
H551 H 0.94721 0.30238 0.65096 0.0
C552 C 0.73955 0.00982 0.38182 0.0
C553 C 0.70286 0.02547 0.37801 0.0
C554 C 0.74085 0.96809 0.37523 0.0
C555 C 0.69618 0.88805 0.34398 0.0
H556 H 0.72461 0.79122 0.36428 0.0
C557 C 0.67711 0.66901 0.3377 0.0
C558 C 0.69397 0.673 0.32434 0.0
C559 C 0.68137 0.71327 0.34433 0.0
C560 C 0.71615 0.81759 0.35846 0.0
H561 H 0.63828 0.00921 0.36443 0.0
H562 H 0.63935 0.93549 0.35323 0.0
H563 H 0.72342 0.86448 0.37565 0.0
H564 H 0.73025 0.72696 0.3076 0.0
H565 H 0.73929 0.80454 0.31927 0.0
H566 H 0.68647 0.83982 0.32692 0.0
C567 C 0.66817 0.95625 0.36105 0.0
C568 C 0.71623 0.86015 0.36497 0.0
C569 C 0.66728 0.99833 0.36754 0.0
C570 C 0.7165 0.72251 0.31786 0.0
C571 C 0.72133 0.76692 0.32454 0.0
C572 C 0.69559 0.84522 0.33751 0.0
C573 C 0.70509 0.94066 0.36478 0.0
C574 C 0.70604 0.89586 0.35782 0.0
C575 C 0.70315 0.76274 0.3378 0.0
C576 C 0.70542 0.80929 0.34466 0.0
H577 H 0.76773 0.03018 0.3898 0.0
H578 H 0.77039 0.95783 0.37824 0.0
H579 H 0.68899 0.91513 0.33809 0.0
H580 H 0.6593 0.63134 0.34295 0.0
H581 H 0.66621 0.70823 0.35446 0.0
C582 C 0.75832 0.66541 0.03583 0.0
C583 C 0.70992 0.65696 0.03055 0.0
C584 C 0.7978 0.66769 0.02737 0.0
C585 C 0.81961 0.63499 0.99261 0.0
H586 H 0.96767 0.73093 0.0012 0.0
C587 C 0.9931 0.68999 0.95548 0.0
C588 C 0.03603 0.68582 0.96052 0.0
C589 C 0.95291 0.68536 0.96406 0.0
C590 C 0.92646 0.70374 0.99873 0.0
H591 H 0.66513 0.64493 0.01227 0.0
H592 H 0.73449 0.65094 0.99748 0.0
H593 H 0.89845 0.72564 0.01601 0.0
H594 H 0.07076 0.67404 0.97851 0.0
H595 H 0.00104 0.66715 0.99352 0.0
H596 H 0.84814 0.61462 0.97506 0.0
C597 C 0.74163 0.65415 0.00817 0.0
C598 C 0.88669 0.70041 0.00725 0.0
C599 C 0.70187 0.65105 0.01665 0.0
C600 C 0.03813 0.67731 0.97432 0.0
C601 C 0.99843 0.67361 0.98293 0.0
C602 C 0.8594 0.639 0.98399 0.0
C603 C 0.79016 0.66241 0.0134 0.0
C604 C 0.83265 0.66588 0.00433 0.0
C605 C 0.95536 0.67742 0.97787 0.0
C606 C 0.91318 0.67329 0.98699 0.0
H607 H 0.76555 0.66975 0.04652 0.0
H608 H 0.83411 0.67305 0.03184 0.0
H609 H 0.77863 0.60715 0.99012 0.0
H610 H 0.99032 0.69643 0.94489 0.0
H611 H 0.92027 0.68877 0.95993 0.0
C612 C 0.24453 0.95089 0.6254 0.0
C613 C 0.29338 0.99358 0.62964 0.0
C614 C 0.20954 0.91351 0.63464 0.0
C615 C 0.17091 0.89684 0.66982 0.0
H616 H 0.11145 0.74628 0.6633 0.0
C617 C 0.04184 0.74069 0.70958 0.0
C618 C 0.99933 0.69222 0.70513 0.0
C619 C 0.07883 0.77692 0.70046 0.0
C620 C 0.12693 0.7881 0.66521 0.0
H621 H 0.34366 0.03078 0.64691 0.0
H622 H 0.28188 0.96603 0.66308 0.0
H623 H 0.17282 0.81055 0.64709 0.0
H624 H 0.96195 0.64386 0.68761 0.0
H625 H 0.025 0.70766 0.67167 0.0
H626 H 0.124 0.87495 0.68767 0.0
C627 C 0.27097 0.96141 0.65259 0.0
C628 C 0.16233 0.82488 0.65593 0.0
C629 C 0.30637 0.99827 0.64333 0.0
C630 C 0.99453 0.68074 0.69137 0.0
C631 C 0.03101 0.71729 0.68222 0.0
C632 C 0.13487 0.86011 0.679 0.0
C633 C 0.22229 0.9186 0.64833 0.0
C634 C 0.18474 0.87958 0.65816 0.0
C635 C 0.07374 0.76593 0.68663 0.0
C636 C 0.11242 0.80516 0.67685 0.0
H637 H 0.23346 0.94614 0.61492 0.0
H638 H 0.17209 0.88104 0.63111 0.0
H639 H 0.1872 0.93884 0.6717 0.0
H640 H 0.04684 0.7505 0.72014 0.0
H641 H 0.11168 0.81335 0.70431 0.0
C642 C 0.28264 0.0198 0.36173 0.0
C643 C 0.33058 0.01912 0.36259 0.0
C644 C 0.27722 0.05322 0.35258 0.0
C645 C 0.34667 0.17752 0.33525 0.0
H646 H 0.24094 0.11413 0.30723 0.0
C647 C 0.33399 0.30431 0.2923 0.0
C648 C 0.28426 0.2884 0.28651 0.0
C649 C 0.33988 0.27196 0.30172 0.0
C650 C 0.26997 0.13283 0.31511 0.0
H651 H 0.41077 0.05367 0.35478 0.0
H652 H 0.40174 0.11367 0.33908 0.0
H653 H 0.25015 0.05749 0.32374 0.0
H654 H 0.20135 0.22708 0.28631 0.0
H655 H 0.21068 0.17208 0.30323 0.0
H656 H 0.36526 0.2529 0.32715 0.0
C657 C 0.3683 0.08764 0.34538 0.0
C658 C 0.27544 0.10016 0.3245 0.0
C659 C 0.37333 0.05327 0.3543 0.0
C660 C 0.2403 0.24008 0.29051 0.0
C661 C 0.24587 0.20831 0.30016 0.0
C662 C 0.34042 0.21037 0.32606 0.0
C663 C 0.32004 0.08745 0.34436 0.0
C664 C 0.31399 0.12224 0.33458 0.0
C665 C 0.29588 0.22342 0.30581 0.0
C666 C 0.30213 0.18852 0.31579 0.0
H667 H 0.24897 0.99375 0.36796 0.0
H668 H 0.23969 0.05258 0.35195 0.0
H669 H 0.37643 0.19533 0.34303 0.0
H670 H 0.36868 0.34121 0.28931 0.0
H671 H 0.37926 0.28473 0.30556 0.0
loop_
_geom_bond_atom_site_label_1
_geom_bond_atom_site_label_2
_geom_bond_distance
_geom_bond_site_symmetry_2
_ccdc_geom_bond_type
O0 Cd1 2.300 . S
O0 C7 1.275 . S
Cd1 O0 2.300 . S
Cd1 O9 2.381 . S
Cd1 O10 2.378 . S
O2 Cd3 2.385 . S
O2 C7 1.255 . S
Cd3 O2 2.385 . S
Cd3 O4 2.317 . S
O4 Cd3 2.317 . S
O4 C5 1.232 . S
C5 O4 1.232 . S
C5 O6 1.218 . S
O6 C5 1.218 . S
C7 O0 1.275 . S
C7 O2 1.255 . S
C8 O9 1.258 . S
C8 O10 1.256 . S
O9 Cd1 2.381 . S
O9 C8 1.258 . S
O10 Cd1 2.378 . S
O10 C8 1.256 . S
O11 Cd12 2.300 . S
O11 C18 1.275 . S
Cd12 O11 2.300 . S
Cd12 O20 2.381 . S
Cd12 O21 2.378 . S
O13 Cd14 2.385 . S
O13 C18 1.255 . S
Cd14 O13 2.385 . S
Cd14 O15 2.317 . S
O15 Cd14 2.317 . S
O15 C16 1.232 . S
C16 O15 1.232 . S
C16 O17 1.218 . S
O17 C16 1.218 . S
C18 O11 1.275 . S
C18 O13 1.255 . S
C19 O20 1.258 . S
C19 O21 1.256 . S
O20 Cd12 2.381 . S
O20 C19 1.258 . S
O21 Cd12 2.378 . S
O21 C19 1.256 . S
O22 Cd23 2.300 . S
O22 C29 1.275 . S
Cd23 O22 2.300 . S
Cd23 O31 2.381 . S
Cd23 O32 2.378 . S
O24 Cd25 2.385 . S
O24 C29 1.255 . S
Cd25 O24 2.385 . S
Cd25 O26 2.317 . S
O26 Cd25 2.317 . S
O26 C27 1.232 . S
C27 O26 1.232 . S
C27 O28 1.218 . S
O28 C27 1.218 . S
C29 O22 1.275 . S
C29 O24 1.255 . S
C30 O31 1.258 . S
C30 O32 1.256 . S
O31 Cd23 2.381 . S
O31 C30 1.258 . S
O32 Cd23 2.378 . S
O32 C30 1.256 . S
O33 Cd34 2.300 . S
O33 C40 1.275 . S
Cd34 O33 2.300 . S
Cd34 O42 2.381 . S
Cd34 O43 2.378 . S
O35 Cd36 2.385 . S
O35 C40 1.255 . S
Cd36 O35 2.385 . S
Cd36 O37 2.317 . S
O37 Cd36 2.317 . S
O37 C38 1.232 . S
C38 O37 1.232 . S
C38 O39 1.218 . S
O39 C38 1.218 . S
C40 O33 1.275 . S
C40 O35 1.255 . S
C41 O42 1.258 . S
C41 O43 1.256 . S
O42 Cd34 2.381 . S
O42 C41 1.258 . S
O43 Cd34 2.378 . S
O43 C41 1.256 . S
O44 Cd45 2.300 . S
O44 C51 1.275 . S
Cd45 O44 2.300 . S
Cd45 O53 2.381 . S
Cd45 O54 2.378 . S
O46 Cd47 2.385 . S
O46 C51 1.255 . S
Cd47 O46 2.385 . S
Cd47 O48 2.317 . S
O48 Cd47 2.317 . S
O48 C49 1.232 . S
C49 O48 1.232 . S
C49 O50 1.218 . S
O50 C49 1.218 . S
C51 O44 1.275 . S
C51 O46 1.255 . S
C52 O53 1.258 . S
C52 O54 1.256 . S
O53 Cd45 2.381 . S
O53 C52 1.258 . S
O54 Cd45 2.378 . S
O54 C52 1.256 . S
O55 Cd56 2.300 . S
O55 C62 1.275 . S
Cd56 O55 2.300 . S
Cd56 O64 2.381 . S
Cd56 O65 2.378 . S
O57 Cd58 2.385 . S
O57 C62 1.255 . S
Cd58 O57 2.385 . S
Cd58 O59 2.317 . S
O59 Cd58 2.317 . S
O59 C60 1.232 . S
C60 O59 1.232 . S
C60 O61 1.218 . S
O61 C60 1.218 . S
C62 O55 1.275 . S
C62 O57 1.255 . S
C63 O64 1.258 . S
C63 O65 1.256 . S
O64 Cd56 2.381 . S
O64 C63 1.258 . S
O65 Cd56 2.378 . S
O65 C63 1.256 . S
O66 Cd67 2.300 . S
O66 C73 1.275 . S
Cd67 O66 2.300 . S
Cd67 O75 2.381 . S
Cd67 O76 2.378 . S
O68 Cd69 2.385 . S
O68 C73 1.255 . S
Cd69 O68 2.385 . S
Cd69 O70 2.317 . S
O70 Cd69 2.317 . S
O70 C71 1.232 . S
C71 O70 1.232 . S
C71 O72 1.218 . S
O72 C71 1.218 . S
C73 O66 1.275 . S
C73 O68 1.255 . S
C74 O75 1.258 . S
C74 O76 1.256 . S
O75 Cd67 2.381 . S
O75 C74 1.258 . S
O76 Cd67 2.378 . S
O76 C74 1.256 . S
O77 Cd78 2.300 . S
O77 C84 1.275 . S
Cd78 O77 2.300 . S
Cd78 O86 2.381 . S
Cd78 O87 2.378 . S
O79 Cd80 2.385 . S
O79 C84 1.255 . S
Cd80 O79 2.385 . S
Cd80 O81 2.317 . S
O81 Cd80 2.317 . S
O81 C82 1.232 . S
C82 O81 1.232 . S
C82 O83 1.218 . S
O83 C82 1.218 . S
C84 O77 1.275 . S
C84 O79 1.255 . S
C85 O86 1.258 . S
C85 O87 1.256 . S
O86 Cd78 2.381 . S
O86 C85 1.258 . S
O87 Cd78 2.378 . S
O87 C85 1.256 . S
O88 Cd89 2.300 . S
O88 C95 1.275 . S
Cd89 O88 2.300 . S
Cd89 O97 2.381 . S
Cd89 O98 2.378 . S
O90 Cd91 2.385 . S
O90 C95 1.255 . S
Cd91 O90 2.385 . S
Cd91 O92 2.317 . S
O92 Cd91 2.317 . S
O92 C93 1.232 . S
C93 O92 1.232 . S
C93 O94 1.218 . S
O94 C93 1.218 . S
C95 O88 1.275 . S
C95 O90 1.255 . S
C96 O97 1.258 . S
C96 O98 1.256 . S
O97 Cd89 2.381 . S
O97 C96 1.258 . S
O98 Cd89 2.378 . S
O98 C96 1.256 . S
O99 Cd100 2.300 . S
O99 C106 1.275 . S
Cd100 O99 2.300 . S
Cd100 O108 2.381 . S
Cd100 O109 2.378 . S
O101 Cd102 2.385 . S
O101 C106 1.255 . S
Cd102 O101 2.385 . S
Cd102 O103 2.317 . S
O103 Cd102 2.317 . S
O103 C104 1.232 . S
C104 O103 1.232 . S
C104 O105 1.218 . S
O105 C104 1.218 . S
C106 O99 1.275 . S
C106 O101 1.255 . S
C107 O108 1.258 . S
C107 O109 1.256 . S
O108 Cd100 2.381 . S
O108 C107 1.258 . S
O109 Cd100 2.378 . S
O109 C107 1.256 . S
O110 Cd111 2.300 . S
O110 C117 1.275 . S
Cd111 O110 2.300 . S
Cd111 O119 2.381 . S
Cd111 O120 2.378 . S
O112 Cd113 2.385 . S
O112 C117 1.255 . S
Cd113 O112 2.385 . S
Cd113 O114 2.317 . S
O114 Cd113 2.317 . S
O114 C115 1.232 . S
C115 O114 1.232 . S
C115 O116 1.218 . S
O116 C115 1.218 . S
C117 O110 1.275 . S
C117 O112 1.255 . S
C118 O119 1.258 . S
C118 O120 1.256 . S
O119 Cd111 2.381 . S
O119 C118 1.258 . S
O120 Cd111 2.378 . S
O120 C118 1.256 . S
O121 Cd122 2.300 . S
O121 C128 1.275 . S
Cd122 O121 2.300 . S
Cd122 O130 2.381 . S
Cd122 O131 2.378 . S
O123 Cd124 2.385 . S
O123 C128 1.255 . S
Cd124 O123 2.385 . S
Cd124 O125 2.317 . S
O125 Cd124 2.317 . S
O125 C126 1.232 . S
C126 O125 1.232 . S
C126 O127 1.218 . S
O127 C126 1.218 . S
C128 O121 1.275 . S
C128 O123 1.255 . S
C129 O130 1.258 . S
C129 O131 1.256 . S
O130 Cd122 2.381 . S
O130 C129 1.258 . S
O131 Cd122 2.378 . S
O131 C129 1.256 . S
C132 C133 1.349 . S
C132 C134 1.327 . S
C132 H157 0.950 . S
C133 C132 1.349 . S
C133 C149 1.349 . S
C134 C132 1.327 . S
C134 C153 1.429 . S
C134 H158 0.950 . S
C135 C152 1.574 . S
C135 C154 1.368 . S
C135 H159 0.949 . S
H136 C140 0.949 . S
C137 C138 1.349 . S
C137 C139 1.327 . S
C137 H160 0.950 . S
C138 C137 1.349 . S
C138 C150 1.349 . S
C139 C137 1.327 . S
C139 C155 1.429 . S
C139 H161 0.950 . S
C140 H136 0.949 . S
C140 C148 1.574 . S
C140 C156 1.368 . S
H141 C149 0.950 . S
H142 C147 0.950 . S
H143 C148 0.949 . S
H144 C150 0.950 . S
H145 C151 0.950 . S
H146 C152 0.949 . S
C147 H142 0.950 . S
C147 C149 1.327 . S
C147 C153 1.429 . S
C148 C140 1.574 . S
C148 H143 0.949 . S
C148 C154 1.368 . S
C149 C133 1.349 . S
C149 H141 0.950 . S
C149 C147 1.327 . S
C150 C138 1.349 . S
C150 H144 0.950 . S
C150 C151 1.327 . S
C151 H145 0.950 . S
C151 C150 1.327 . S
C151 C155 1.429 . S
C152 C135 1.574 . S
C152 H146 0.949 . S
C152 C156 1.368 . S
C153 C134 1.429 . S
C153 C147 1.429 . S
C153 C154 1.523 . S
C154 C135 1.368 . S
C154 C148 1.368 . S
C154 C153 1.523 . S
C155 C139 1.429 . S
C155 C151 1.429 . S
C155 C156 1.523 . S
C156 C140 1.368 . S
C156 C152 1.368 . S
C156 C155 1.523 . S
H157 C132 0.950 . S
H158 C134 0.950 . S
H159 C135 0.949 . S
H160 C137 0.950 . S
H161 C139 0.950 . S
C162 C163 1.349 . S
C162 C164 1.327 . S
C162 H187 0.950 . S
C163 C162 1.349 . S
C163 C179 1.349 . S
C164 C162 1.327 . S
C164 C183 1.429 . S
C164 H188 0.950 . S
C165 C182 1.574 . S
C165 C184 1.368 . S
C165 H189 0.949 . S
H166 C170 0.949 . S
C167 C168 1.349 . S
C167 C169 1.327 . S
C167 H190 0.950 . S
C168 C167 1.349 . S
C168 C180 1.349 . S
C169 C167 1.327 . S
C169 C185 1.429 . S
C169 H191 0.950 . S
C170 H166 0.949 . S
C170 C178 1.574 . S
C170 C186 1.368 . S
H171 C179 0.950 . S
H172 C177 0.950 . S
H173 C178 0.949 . S
H174 C180 0.950 . S
H175 C181 0.950 . S
H176 C182 0.949 . S
C177 H172 0.950 . S
C177 C179 1.327 . S
C177 C183 1.429 . S
C178 C170 1.574 . S
C178 H173 0.949 . S
C178 C184 1.368 . S
C179 C163 1.349 . S
C179 H171 0.950 . S
C179 C177 1.327 . S
C180 C168 1.349 . S
C180 H174 0.950 . S
C180 C181 1.327 . S
C181 H175 0.950 . S
C181 C180 1.327 . S
C181 C185 1.429 . S
C182 C165 1.574 . S
C182 H176 0.949 . S
C182 C186 1.368 . S
C183 C164 1.429 . S
C183 C177 1.429 . S
C183 C184 1.523 . S
C184 C165 1.368 . S
C184 C178 1.368 . S
C184 C183 1.523 . S
C185 C169 1.429 . S
C185 C181 1.429 . S
C185 C186 1.523 . S
C186 C170 1.368 . S
C186 C182 1.368 . S
C186 C185 1.523 . S
H187 C162 0.950 . S
H188 C164 0.950 . S
H189 C165 0.949 . S
H190 C167 0.950 . S
H191 C169 0.950 . S
C192 C193 1.349 . S
C192 C194 1.327 . S
C192 H217 0.950 . S
C193 C192 1.349 . S
C193 C209 1.349 . S
C194 C192 1.327 . S
C194 C213 1.429 . S
C194 H218 0.950 . S
C195 C212 1.574 . S
C195 C214 1.368 . S
C195 H219 0.949 . S
H196 C200 0.949 . S
C197 C198 1.349 . S
C197 C199 1.327 . S
C197 H220 0.950 . S
C198 C197 1.349 . S
C198 C210 1.349 . S
C199 C197 1.327 . S
C199 C215 1.429 . S
C199 H221 0.950 . S
C200 H196 0.949 . S
C200 C208 1.574 . S
C200 C216 1.368 . S
H201 C209 0.950 . S
H202 C207 0.950 . S
H203 C208 0.949 . S
H204 C210 0.950 . S
H205 C211 0.950 . S
H206 C212 0.949 . S
C207 H202 0.950 . S
C207 C209 1.327 . S
C207 C213 1.429 . S
C208 C200 1.574 . S
C208 H203 0.949 . S
C208 C214 1.368 . S
C209 C193 1.349 . S
C209 H201 0.950 . S
C209 C207 1.327 . S
C210 C198 1.349 . S
C210 H204 0.950 . S
C210 C211 1.327 . S
C211 H205 0.950 . S
C211 C210 1.327 . S
C211 C215 1.429 . S
C212 C195 1.574 . S
C212 H206 0.949 . S
C212 C216 1.368 . S
C213 C194 1.429 . S
C213 C207 1.429 . S
C213 C214 1.523 . S
C214 C195 1.368 . S
C214 C208 1.368 . S
C214 C213 1.523 . S
C215 C199 1.429 . S
C215 C211 1.429 . S
C215 C216 1.523 . S
C216 C200 1.368 . S
C216 C212 1.368 . S
C216 C215 1.523 . S
H217 C192 0.950 . S
H218 C194 0.950 . S
H219 C195 0.949 . S
H220 C197 0.950 . S
H221 C199 0.950 . S
C222 C223 1.349 . S
C222 C224 1.327 . S
C222 H247 0.950 . S
C223 C222 1.349 . S
C223 C239 1.349 . S
C224 C222 1.327 . S
C224 C243 1.429 . S
C224 H248 0.950 . S
C225 C242 1.574 . S
C225 C244 1.368 . S
C225 H249 0.949 . S
H226 C230 0.949 . S
C227 C228 1.349 . S
C227 C229 1.327 . S
C227 H250 0.950 . S
C228 C227 1.349 . S
C228 C240 1.349 . S
C229 C227 1.327 . S
C229 C245 1.429 . S
C229 H251 0.950 . S
C230 H226 0.949 . S
C230 C238 1.574 . S
C230 C246 1.368 . S
H231 C239 0.950 . S
H232 C237 0.950 . S
H233 C238 0.949 . S
H234 C240 0.950 . S
H235 C241 0.950 . S
H236 C242 0.949 . S
C237 H232 0.950 . S
C237 C239 1.327 . S
C237 C243 1.429 . S
C238 C230 1.574 . S
C238 H233 0.949 . S
C238 C244 1.368 . S
C239 C223 1.349 . S
C239 H231 0.950 . S
C239 C237 1.327 . S
C240 C228 1.349 . S
C240 H234 0.950 . S
C240 C241 1.327 . S
C241 H235 0.950 . S
C241 C240 1.327 . S
C241 C245 1.429 . S
C242 C225 1.574 . S
C242 H236 0.949 . S
C242 C246 1.368 . S
C243 C224 1.429 . S
C243 C237 1.429 . S
C243 C244 1.523 . S
C244 C225 1.368 . S
C244 C238 1.368 . S
C244 C243 1.523 . S
C245 C229 1.429 . S
C245 C241 1.429 . S
C245 C246 1.523 . S
C246 C230 1.368 . S
C246 C242 1.368 . S
C246 C245 1.523 . S
H247 C222 0.950 . S
H248 C224 0.950 . S
H249 C225 0.949 . S
H250 C227 0.950 . S
H251 C229 0.950 . S
C252 C253 1.349 . S
C252 C254 1.327 . S
C252 H277 0.950 . S
C253 C252 1.349 . S
C253 C269 1.349 . S
C254 C252 1.327 . S
C254 C273 1.429 . S
C254 H278 0.950 . S
C255 C272 1.574 . S
C255 C274 1.368 . S
C255 H279 0.949 . S
H256 C260 0.949 . S
C257 C258 1.349 . S
C257 C259 1.327 . S
C257 H280 0.950 . S
C258 C257 1.349 . S
C258 C270 1.349 . S
C259 C257 1.327 . S
C259 C275 1.429 . S
C259 H281 0.950 . S
C260 H256 0.949 . S
C260 C268 1.574 . S
C260 C276 1.368 . S
H261 C269 0.950 . S
H262 C267 0.950 . S
H263 C268 0.949 . S
H264 C270 0.950 . S
H265 C271 0.950 . S
H266 C272 0.949 . S
C267 H262 0.950 . S
C267 C269 1.327 . S
C267 C273 1.429 . S
C268 C260 1.574 . S
C268 H263 0.949 . S
C268 C274 1.368 . S
C269 C253 1.349 . S
C269 H261 0.950 . S
C269 C267 1.327 . S
C270 C258 1.349 . S
C270 H264 0.950 . S
C270 C271 1.327 . S
C271 H265 0.950 . S
C271 C270 1.327 . S
C271 C275 1.429 . S
C272 C255 1.574 . S
C272 H266 0.949 . S
C272 C276 1.368 . S
C273 C254 1.429 . S
C273 C267 1.429 . S
C273 C274 1.523 . S
C274 C255 1.368 . S
C274 C268 1.368 . S
C274 C273 1.523 . S
C275 C259 1.429 . S
C275 C271 1.429 . S
C275 C276 1.523 . S
C276 C260 1.368 . S
C276 C272 1.368 . S
C276 C275 1.523 . S
H277 C252 0.950 . S
H278 C254 0.950 . S
H279 C255 0.949 . S
H280 C257 0.950 . S
H281 C259 0.950 . S
C282 C283 1.349 . S
C282 C284 1.327 . S
C282 H307 0.950 . S
C283 C282 1.349 . S
C283 C299 1.349 . S
C284 C282 1.327 . S
C284 C303 1.429 . S
C284 H308 0.950 . S
C285 C302 1.574 . S
C285 C304 1.368 . S
C285 H309 0.949 . S
H286 C290 0.949 . S
C287 C288 1.349 . S
C287 C289 1.327 . S
C287 H310 0.950 . S
C288 C287 1.349 . S
C288 C300 1.349 . S
C289 C287 1.327 . S
C289 C305 1.429 . S
C289 H311 0.950 . S
C290 H286 0.949 . S
C290 C298 1.574 . S
C290 C306 1.368 . S
H291 C299 0.950 . S
H292 C297 0.950 . S
H293 C298 0.949 . S
H294 C300 0.950 . S
H295 C301 0.950 . S
H296 C302 0.949 . S
C297 H292 0.950 . S
C297 C299 1.327 . S
C297 C303 1.429 . S
C298 C290 1.574 . S
C298 H293 0.949 . S
C298 C304 1.368 . S
C299 C283 1.349 . S
C299 H291 0.950 . S
C299 C297 1.327 . S
C300 C288 1.349 . S
C300 H294 0.950 . S
C300 C301 1.327 . S
C301 H295 0.950 . S
C301 C300 1.327 . S
C301 C305 1.429 . S
C302 C285 1.574 . S
C302 H296 0.949 . S
C302 C306 1.368 . S
C303 C284 1.429 . S
C303 C297 1.429 . S
C303 C304 1.523 . S
C304 C285 1.368 . S
C304 C298 1.368 . S
C304 C303 1.523 . S
C305 C289 1.429 . S
C305 C301 1.429 . S
C305 C306 1.523 . S
C306 C290 1.368 . S
C306 C302 1.368 . S
C306 C305 1.523 . S
H307 C282 0.950 . S
H308 C284 0.950 . S
H309 C285 0.949 . S
H310 C287 0.950 . S
H311 C289 0.950 . S
C312 C313 1.349 . S
C312 C314 1.327 . S
C312 H337 0.950 . S
C313 C312 1.349 . S
C313 C329 1.349 . S
C314 C312 1.327 . S
C314 C333 1.429 . S
C314 H338 0.950 . S
C315 C332 1.574 1_545 S
C315 C334 1.368 . S
C315 H339 0.949 . S
H316 C320 0.949 . S
C317 C318 1.349 . S
C317 C319 1.327 . S
C317 H340 0.950 . S
C318 C317 1.349 . S
C318 C330 1.349 . S
C319 C317 1.327 . S
C319 C335 1.429 . S
C319 H341 0.950 . S
C320 H316 0.949 . S
C320 C328 1.574 1_565 S
C320 C336 1.368 . S
H321 C329 0.950 . S
H322 C327 0.950 . S
H323 C328 0.949 . S
H324 C330 0.950 . S
H325 C331 0.950 . S
H326 C332 0.949 . S
C327 H322 0.950 . S
C327 C329 1.327 . S
C327 C333 1.429 . S
C328 C320 1.574 1_545 S
C328 H323 0.949 . S
C328 C334 1.368 . S
C329 C313 1.349 . S
C329 H321 0.950 . S
C329 C327 1.327 . S
C330 C318 1.349 . S
C330 H324 0.950 . S
C330 C331 1.327 . S
C331 H325 0.950 . S
C331 C330 1.327 . S
C331 C335 1.429 . S
C332 C315 1.574 1_565 S
C332 H326 0.949 . S
C332 C336 1.368 . S
C333 C314 1.429 . S
C333 C327 1.429 . S
C333 C334 1.523 . S
C334 C315 1.368 . S
C334 C328 1.368 . S
C334 C333 1.523 . S
C335 C319 1.429 . S
C335 C331 1.429 . S
C335 C336 1.523 . S
C336 C320 1.368 . S
C336 C332 1.368 . S
C336 C335 1.523 . S
H337 C312 0.950 . S
H338 C314 0.950 . S
H339 C315 0.949 . S
H340 C317 0.950 . S
H341 C319 0.950 . S
C342 C343 1.349 . S
C342 C344 1.327 . S
C342 H367 0.950 . S
C343 C342 1.349 . S
C343 C359 1.349 . S
C344 C342 1.327 . S
C344 C363 1.429 . S
C344 H368 0.950 . S
C345 C362 1.574 . S
C345 C364 1.368 . S
C345 H369 0.949 . S
H346 C350 0.949 . S
C347 C348 1.349 . S
C347 C349 1.327 . S
C347 H370 0.950 . S
C348 C347 1.349 . S
C348 C360 1.349 . S
C349 C347 1.327 . S
C349 C365 1.429 . S
C349 H371 0.950 . S
C350 H346 0.949 . S
C350 C358 1.574 . S
C350 C366 1.368 . S
H351 C359 0.950 . S
H352 C357 0.950 . S
H353 C358 0.949 . S
H354 C360 0.950 . S
H355 C361 0.950 . S
H356 C362 0.949 . S
C357 H352 0.950 . S
C357 C359 1.327 . S
C357 C363 1.429 . S
C358 C350 1.574 . S
C358 H353 0.949 . S
C358 C364 1.368 . S
C359 C343 1.349 . S
C359 H351 0.950 . S
C359 C357 1.327 . S
C360 C348 1.349 . S
C360 H354 0.950 . S
C360 C361 1.327 . S
C361 H355 0.950 . S
C361 C360 1.327 . S
C361 C365 1.429 . S
C362 C345 1.574 . S
C362 H356 0.949 . S
C362 C366 1.368 . S
C363 C344 1.429 . S
C363 C357 1.429 . S
C363 C364 1.523 . S
C364 C345 1.368 . S
C364 C358 1.368 . S
C364 C363 1.523 . S
C365 C349 1.429 . S
C365 C361 1.429 . S
C365 C366 1.523 . S
C366 C350 1.368 . S
C366 C362 1.368 . S
C366 C365 1.523 . S
H367 C342 0.950 . S
H368 C344 0.950 . S
H369 C345 0.949 . S
H370 C347 0.950 . S
H371 C349 0.950 . S
C372 C373 1.349 . S
C372 C374 1.327 . S
C372 H397 0.950 . S
C373 C372 1.349 . S
C373 C389 1.349 . S
C374 C372 1.327 . S
C374 C393 1.429 . S
C374 H398 0.950 . S
C375 C392 1.574 1_455 S
C375 C394 1.368 . S
C375 H399 0.949 . S
H376 C380 0.949 . S
C377 C378 1.349 . S
C377 C379 1.327 . S
C377 H400 0.950 . S
C378 C377 1.349 . S
C378 C390 1.349 . S
C379 C377 1.327 . S
C379 C395 1.429 . S
C379 H401 0.950 . S
C380 H376 0.949 . S
C380 C388 1.574 1_655 S
C380 C396 1.368 . S
H381 C389 0.950 . S
H382 C387 0.950 . S
H383 C388 0.949 . S
H384 C390 0.950 . S
H385 C391 0.950 . S
H386 C392 0.949 . S
C387 H382 0.950 . S
C387 C389 1.327 . S
C387 C393 1.429 . S
C388 C380 1.574 1_455 S
C388 H383 0.949 . S
C388 C394 1.368 . S
C389 C373 1.349 . S
C389 H381 0.950 . S
C389 C387 1.327 . S
C390 C378 1.349 . S
C390 H384 0.950 . S
C390 C391 1.327 . S
C391 H385 0.950 . S
C391 C390 1.327 . S
C391 C395 1.429 . S
C392 C375 1.574 1_655 S
C392 H386 0.949 . S
C392 C396 1.368 . S
C393 C374 1.429 . S
C393 C387 1.429 . S
C393 C394 1.523 . S
C394 C375 1.368 . S
C394 C388 1.368 . S
C394 C393 1.523 . S
C395 C379 1.429 . S
C395 C391 1.429 . S
C395 C396 1.523 . S
C396 C380 1.368 . S
C396 C392 1.368 . S
C396 C395 1.523 . S
H397 C372 0.950 . S
H398 C374 0.950 . S
H399 C375 0.949 . S
H400 C377 0.950 . S
H401 C379 0.950 . S
C402 C403 1.349 . S
C402 C404 1.327 . S
C402 H427 0.950 . S
C403 C402 1.349 . S
C403 C419 1.349 . S
C404 C402 1.327 . S
C404 C423 1.429 . S
C404 H428 0.950 . S
C405 C422 1.574 1_655 S
C405 C424 1.368 . S
C405 H429 0.949 . S
H406 C410 0.949 . S
C407 C408 1.349 . S
C407 C409 1.327 . S
C407 H430 0.950 . S
C408 C407 1.349 . S
C408 C420 1.349 . S
C409 C407 1.327 . S
C409 C425 1.429 . S
C409 H431 0.950 . S
C410 H406 0.949 . S
C410 C418 1.574 1_455 S
C410 C426 1.368 . S
H411 C419 0.950 . S
H412 C417 0.950 . S
H413 C418 0.949 . S
H414 C420 0.950 . S
H415 C421 0.950 . S
H416 C422 0.949 . S
C417 H412 0.950 . S
C417 C419 1.327 . S
C417 C423 1.429 . S
C418 C410 1.574 1_655 S
C418 H413 0.949 . S
C418 C424 1.368 . S
C419 C403 1.349 . S
C419 H411 0.950 . S
C419 C417 1.327 . S
C420 C408 1.349 . S
C420 H414 0.950 . S
C420 C421 1.327 . S
C421 H415 0.950 . S
C421 C420 1.327 . S
C421 C425 1.429 . S
C422 C405 1.574 1_455 S
C422 H416 0.949 . S
C422 C426 1.368 . S
C423 C404 1.429 . S
C423 C417 1.429 . S
C423 C424 1.523 . S
C424 C405 1.368 . S
C424 C418 1.368 . S
C424 C423 1.523 . S
C425 C409 1.429 . S
C425 C421 1.429 . S
C425 C426 1.523 . S
C426 C410 1.368 . S
C426 C422 1.368 . S
C426 C425 1.523 . S
H427 C402 0.950 . S
H428 C404 0.950 . S
H429 C405 0.949 . S
H430 C407 0.950 . S
H431 C409 0.950 . S
C432 C433 1.349 . S
C432 C434 1.327 . S
C432 H457 0.950 . S
C433 C432 1.349 . S
C433 C449 1.349 . S
C434 C432 1.327 . S
C434 C453 1.429 . S
C434 H458 0.950 . S
C435 C452 1.574 1_545 S
C435 C454 1.368 . S
C435 H459 0.949 . S
H436 C440 0.949 . S
C437 C438 1.349 . S
C437 C439 1.327 . S
C437 H460 0.950 . S
C438 C437 1.349 . S
C438 C450 1.349 . S
C439 C437 1.327 . S
C439 C455 1.429 . S
C439 H461 0.950 . S
C440 H436 0.949 . S
C440 C448 1.574 1_565 S
C440 C456 1.368 . S
H441 C449 0.950 . S
H442 C447 0.950 . S
H443 C448 0.949 . S
H444 C450 0.950 . S
H445 C451 0.950 . S
H446 C452 0.949 . S
C447 H442 0.950 . S
C447 C449 1.327 . S
C447 C453 1.429 . S
C448 C440 1.574 1_545 S
C448 H443 0.949 . S
C448 C454 1.368 . S
C449 C433 1.349 . S
C449 H441 0.950 . S
C449 C447 1.327 . S
C450 C438 1.349 . S
C450 H444 0.950 . S
C450 C451 1.327 . S
C451 H445 0.950 . S
C451 C450 1.327 . S
C451 C455 1.429 . S
C452 C435 1.574 1_565 S
C452 H446 0.949 . S
C452 C456 1.368 . S
C453 C434 1.429 . S
C453 C447 1.429 . S
C453 C454 1.523 . S
C454 C435 1.368 . S
C454 C448 1.368 . S
C454 C453 1.523 . S
C455 C439 1.429 . S
C455 C451 1.429 . S
C455 C456 1.523 . S
C456 C440 1.368 . S
C456 C452 1.368 . S
C456 C455 1.523 . S
H457 C432 0.950 . S
H458 C434 0.950 . S
H459 C435 0.949 . S
H460 C437 0.950 . S
H461 C439 0.950 . S
C462 C463 1.349 . S
C462 C464 1.327 . S
C462 H487 0.950 . S
C463 C462 1.349 . S
C463 C479 1.349 . S
C464 C462 1.327 . S
C464 C483 1.429 . S
C464 H488 0.950 . S
C465 C482 1.574 . S
C465 C484 1.368 . S
C465 H489 0.949 . S
H466 C470 0.949 . S
C467 C468 1.349 . S
C467 C469 1.327 . S
C467 H490 0.950 . S
C468 C467 1.349 . S
C468 C480 1.349 . S
C469 C467 1.327 . S
C469 C485 1.429 . S
C469 H491 0.950 . S
C470 H466 0.949 . S
C470 C478 1.574 . S
C470 C486 1.368 . S
H471 C479 0.950 . S
H472 C477 0.950 . S
H473 C478 0.949 . S
H474 C480 0.950 . S
H475 C481 0.950 . S
H476 C482 0.949 . S
C477 H472 0.950 . S
C477 C479 1.327 . S
C477 C483 1.429 . S
C478 C470 1.574 . S
C478 H473 0.949 . S
C478 C484 1.368 . S
C479 C463 1.349 . S
C479 H471 0.950 . S
C479 C477 1.327 . S
C480 C468 1.349 . S
C480 H474 0.950 . S
C480 C481 1.327 . S
C481 H475 0.950 . S
C481 C480 1.327 . S
C481 C485 1.429 . S
C482 C465 1.574 . S
C482 H476 0.949 . S
C482 C486 1.368 . S
C483 C464 1.429 . S
C483 C477 1.429 . S
C483 C484 1.523 . S
C484 C465 1.368 . S
C484 C478 1.368 . S
C484 C483 1.523 . S
C485 C469 1.429 . S
C485 C481 1.429 . S
C485 C486 1.523 . S
C486 C470 1.368 . S
C486 C482 1.368 . S
C486 C485 1.523 . S
H487 C462 0.950 . S
H488 C464 0.950 . S
H489 C465 0.949 . S
H490 C467 0.950 . S
H491 C469 0.950 . S
C492 C493 1.349 1_455 S
C492 C494 1.327 . S
C492 H517 0.950 1_455 S
C493 C492 1.349 1_655 S
C493 C509 1.349 1_655 S
C494 C492 1.327 . S
C494 C513 1.429 . S
C494 H518 0.950 . S
C495 C512 1.579 . S
C495 C514 1.363 1_554 S
C495 H519 0.949 . S
H496 C500 0.949 . S
C497 C498 1.349 . S
C497 C499 1.327 . S
C497 H520 0.950 . S
C498 C497 1.349 . S
C498 C510 1.349 . S
C499 C497 1.327 . S
C499 C515 1.429 . S
C499 H521 0.950 . S
C500 H496 0.949 . S
C500 C508 1.579 . S
C500 C516 1.363 1_556 S
H501 C509 0.939 1_655 S
H502 C507 0.950 . S
H503 C508 0.949 . S
H504 C510 0.950 . S
H505 C511 0.950 . S
H506 C512 0.949 . S
C507 H502 0.950 . S
C507 C509 1.327 . S
C507 C513 1.429 . S
C508 C500 1.579 . S
C508 H503 0.949 . S
C508 C514 1.368 . S
C509 C493 1.349 1_455 S
C509 H501 0.939 1_455 S
C509 C507 1.327 . S
C510 C498 1.349 . S
C510 H504 0.950 . S
C510 C511 1.327 . S
C511 H505 0.950 . S
C511 C510 1.327 . S
C511 C515 1.429 . S
C512 C495 1.579 . S
C512 H506 0.949 . S
C512 C516 1.368 . S
C513 C494 1.429 . S
C513 C507 1.429 . S
C513 C514 1.523 . S
C514 C495 1.363 1_556 S
C514 C508 1.368 . S
C514 C513 1.523 . S
C515 C499 1.429 . S
C515 C511 1.429 . S
C515 C516 1.523 . S
C516 C500 1.363 1_554 S
C516 C512 1.368 . S
C516 C515 1.523 . S
H517 C492 0.950 1_655 S
H518 C494 0.950 . S
H519 C495 0.949 . S
H520 C497 0.950 . S
H521 C499 0.950 . S
C522 C523 1.349 . S
C522 C524 1.327 1_565 S
C522 H547 0.950 . S
C523 C522 1.349 . S
C523 C539 1.349 1_565 S
C524 C522 1.327 1_545 S
C524 C543 1.429 . S
C524 H548 0.950 . S
C525 C542 1.574 . S
C525 C544 1.368 . S
C525 H549 0.949 . S
H526 C530 0.949 . S
C527 C528 1.349 1_655 S
C527 C529 1.327 . S
C527 H550 0.950 . S
C528 C527 1.349 1_455 S
C528 C540 1.349 . S
C529 C527 1.327 . S
C529 C545 1.429 . S
C529 H551 0.950 . S
C530 H526 0.949 . S
C530 C538 1.574 . S
C530 C546 1.368 . S
H531 C539 0.950 . S
H532 C537 0.950 . S
H533 C538 0.949 . S
H534 C540 0.950 . S
H535 C541 0.950 . S
H536 C542 0.949 . S
C537 H532 0.950 . S
C537 C539 1.327 . S
C537 C543 1.429 . S
C538 C530 1.574 . S
C538 H533 0.949 . S
C538 C544 1.368 . S
C539 C523 1.349 1_545 S
C539 H531 0.950 . S
C539 C537 1.327 . S
C540 C528 1.349 . S
C540 H534 0.950 . S
C540 C541 1.327 1_455 S
C541 H535 0.950 . S
C541 C540 1.327 1_655 S
C541 C545 1.429 . S
C542 C525 1.574 . S
C542 H536 0.949 . S
C542 C546 1.368 . S
C543 C524 1.429 . S
C543 C537 1.429 . S
C543 C544 1.523 . S
C544 C525 1.368 . S
C544 C538 1.368 . S
C544 C543 1.523 . S
C545 C529 1.429 . S
C545 C541 1.429 . S
C545 C546 1.523 . S
C546 C530 1.368 . S
C546 C542 1.368 . S
C546 C545 1.523 . S
H547 C522 0.950 . S
H548 C524 0.950 . S
H549 C525 0.949 . S
H550 C527 0.950 . S
H551 C529 0.950 . S
C552 C553 1.349 . S
C552 C554 1.327 1_545 S
C552 H577 0.950 . S
C553 C552 1.349 . S
C553 C569 1.349 1_545 S
C554 C552 1.327 1_565 S
C554 C573 1.429 . S
C554 H578 0.950 1_565 S
C555 C572 1.574 . S
C555 C574 1.368 . S
C555 H579 0.949 . S
H556 C560 0.949 . S
C557 C558 1.349 . S
C557 C559 1.327 . S
C557 H580 0.950 . S
C558 C557 1.349 . S
C558 C570 1.349 . S
C559 C557 1.327 . S
C559 C575 1.429 . S
C559 H581 0.950 . S
C560 H556 0.949 . S
C560 C568 1.574 . S
C560 C576 1.368 . S
H561 C569 0.950 . S
H562 C567 0.950 . S
H563 C568 0.949 . S
H564 C570 0.950 . S
H565 C571 0.950 . S
H566 C572 0.949 . S
C567 H562 0.950 . S
C567 C569 1.327 . S
C567 C573 1.429 . S
C568 C560 1.574 . S
C568 H563 0.949 . S
C568 C574 1.368 . S
C569 C553 1.349 1_565 S
C569 H561 0.950 . S
C569 C567 1.327 . S
C570 C558 1.349 . S
C570 H564 0.950 . S
C570 C571 1.327 . S
C571 H565 0.950 . S
C571 C570 1.327 . S
C571 C575 1.429 . S
C572 C555 1.574 . S
C572 H566 0.949 . S
C572 C576 1.368 . S
C573 C554 1.429 . S
C573 C567 1.429 . S
C573 C574 1.523 . S
C574 C555 1.368 . S
C574 C568 1.368 . S
C574 C573 1.523 . S
C575 C559 1.429 . S
C575 C571 1.429 . S
C575 C576 1.523 . S
C576 C560 1.368 . S
C576 C572 1.368 . S
C576 C575 1.523 . S
H577 C552 0.950 . S
H578 C554 0.950 1_545 S
H579 C555 0.949 . S
H580 C557 0.950 . S
H581 C559 0.950 . S
C582 C583 1.349 . S
C582 C584 1.327 . S
C582 H607 0.950 . S
C583 C582 1.349 . S
C583 C599 1.349 . S
C584 C582 1.327 . S
C584 C603 1.429 . S
C584 H608 0.950 . S
C585 C602 1.580 . S
C585 C604 1.362 1_556 S
C585 H609 0.949 . S
H586 C590 0.949 . S
C587 C588 1.349 1_655 S
C587 C589 1.327 . S
C587 H610 0.950 . S
C588 C587 1.349 1_455 S
C588 C600 1.349 . S
C589 C587 1.327 . S
C589 C605 1.429 . S
C589 H611 0.950 . S
C590 H586 0.949 . S
C590 C598 1.578 . S
C590 C606 1.364 1_554 S
H591 C599 0.950 . S
H592 C597 0.950 . S
H593 C598 0.949 . S
H594 C600 0.950 . S
H595 C601 0.950 1_455 S
H596 C602 0.949 . S
C597 H592 0.950 . S
C597 C599 1.327 . S
C597 C603 1.429 . S
C598 C590 1.578 . S
C598 H593 0.949 . S
C598 C604 1.368 . S
C599 C583 1.349 . S
C599 H591 0.950 . S
C599 C597 1.327 . S
C600 C588 1.349 . S
C600 H594 0.950 . S
C600 C601 1.327 1_455 S
C601 H595 0.950 1_655 S
C601 C600 1.327 1_655 S
C601 C605 1.429 . S
C602 C585 1.580 . S
C602 H596 0.949 . S
C602 C606 1.368 . S
C603 C584 1.429 . S
C603 C597 1.429 . S
C603 C604 1.523 . S
C604 C585 1.362 1_554 S
C604 C598 1.368 . S
C604 C603 1.523 . S
C605 C589 1.429 . S
C605 C601 1.429 . S
C605 C606 1.523 . S
C606 C590 1.364 1_556 S
C606 C602 1.368 . S
C606 C605 1.523 . S
H607 C582 0.950 . S
H608 C584 0.950 . S
H609 C585 0.949 . S
H610 C587 0.950 . S
H611 C589 0.950 . S
C612 C613 1.349 1_565 S
C612 C614 1.327 . S
C612 H637 0.950 . S
C613 C612 1.349 1_545 S
C613 C629 1.349 . S
C614 C612 1.327 . S
C614 C633 1.429 . S
C614 H638 0.950 . S
C615 C632 1.574 . S
C615 C634 1.368 . S
C615 H639 0.949 . S
H616 C620 0.949 . S
C617 C618 1.351 1_455 S
C617 C619 1.329 . S
C617 H640 0.946 1_455 S
C618 C617 1.351 1_655 S
C618 C630 1.349 1_655 S
C619 C617 1.329 . S
C619 C635 1.429 . S
C619 H641 0.950 . S
C620 H616 0.949 . S
C620 C628 1.574 . S
C620 C636 1.368 . S
H621 C629 0.950 . S
H622 C627 0.950 1_545 S
H623 C628 0.949 . S
H624 C630 0.950 . S
H625 C631 0.950 . S
H626 C632 0.949 . S
C627 H622 0.950 1_565 S
C627 C629 1.327 1_565 S
C627 C633 1.429 . S
C628 C620 1.574 . S
C628 H623 0.949 . S
C628 C634 1.368 . S
C629 C613 1.349 . S
C629 H621 0.950 . S
C629 C627 1.327 1_545 S
C630 C618 1.349 1_455 S
C630 H624 0.950 . S
C630 C631 1.327 . S
C631 H625 0.950 . S
C631 C630 1.327 . S
C631 C635 1.429 . S
C632 C615 1.574 . S
C632 H626 0.949 . S
C632 C636 1.368 . S
C633 C614 1.429 . S
C633 C627 1.429 . S
C633 C634 1.523 . S
C634 C615 1.368 . S
C634 C628 1.368 . S
C634 C633 1.523 . S
C635 C619 1.429 . S
C635 C631 1.429 . S
C635 C636 1.523 . S
C636 C620 1.368 . S
C636 C632 1.368 . S
C636 C635 1.523 . S
H637 C612 0.950 . S
H638 C614 0.950 . S
H639 C615 0.949 . S
H640 C617 0.946 1_655 S
H641 C619 0.950 . S
C642 C643 1.349 . S
C642 C644 1.327 1_565 S
C642 H667 0.950 . S
C643 C642 1.349 . S
C643 C659 1.349 1_565 S
C644 C642 1.327 1_545 S
C644 C663 1.429 . S
C644 H668 0.950 . S
C645 C662 1.574 . S
C645 C664 1.368 . S
C645 H669 0.949 . S
H646 C650 0.949 . S
C647 C648 1.349 . S
C647 C649 1.327 . S
C647 H670 0.950 . S
C648 C647 1.349 . S
C648 C660 1.349 . S
C649 C647 1.327 . S
C649 C665 1.429 . S
C649 H671 0.950 . S
C650 H646 0.949 . S
C650 C658 1.574 . S
C650 C666 1.368 . S
H651 C659 0.950 . S
H652 C657 0.950 . S
H653 C658 0.949 . S
H654 C660 0.950 . S
H655 C661 0.950 . S
H656 C662 0.949 . S
C657 H652 0.950 . S
C657 C659 1.327 . S
C657 C663 1.429 . S
C658 C650 1.574 . S
C658 H653 0.949 . S
C658 C664 1.368 . S
C659 C643 1.349 1_545 S
C659 H651 0.950 . S
C659 C657 1.327 . S
C660 C648 1.349 . S
C660 H654 0.950 . S
C660 C661 1.327 . S
C661 H655 0.950 . S
C661 C660 1.327 . S
C661 C665 1.429 . S
C662 C645 1.574 . S
C662 H656 0.949 . S
C662 C666 1.368 . S
C663 C644 1.429 . S
C663 C657 1.429 . S
C663 C664 1.523 . S
C664 C645 1.368 . S
C664 C658 1.368 . S
C664 C663 1.523 . S
C665 C649 1.429 . S
C665 C661 1.429 . S
C665 C666 1.523 . S
C666 C650 1.368 . S
C666 C662 1.368 . S
C666 C665 1.523 . S
H667 C642 0.950 . S
H668 C644 0.950 . S
H669 C645 0.949 . S
H670 C647 0.950 . S
H671 C649 0.950 . S
C133 C5 1.278 . S
C138 C71 1.278 . S
C163 C16 1.278 . S
C168 C82 1.278 . S
C193 C27 1.278 . S
C198 C93 1.278 . S
C223 C104 1.278 . S
C228 C38 1.278 . S
C253 C49 1.278 . S
C258 C115 1.278 . S
C283 C126 1.278 . S
C288 C60 1.278 . S
C313 C7 1.460 . S
C318 C40 1.459 . S
C343 C18 1.459 . S
C348 C51 1.459 . S
C373 C62 1.460 . S
C378 C29 1.460 . S
C403 C73 1.459 . S
C408 C106 1.459 . S
C433 C117 1.460 . S
C438 C84 1.460 . S
C463 C128 1.459 . S
C468 C95 1.459 . S
C493 C118 1.501 . S
C498 C8 1.501 . S
C523 C129 1.500 . S
C528 C19 1.500 . S
C553 C30 1.501 . S
C558 C74 1.501 . S
C583 C41 1.501 . S
C588 C85 1.501 . S
C613 C96 1.500 . S
C618 C52 1.500 . S
C643 C63 1.501 . S
C648 C107 1.501 . S
