# Generated by pormake.
# Topology whc, (6)-cn, num edge types: 1
# Building blocks:
#     Node 0, Type 0, BuildingBlock: OJICUG_clean_sbu_0, # of connection points: 6
#     Node 1, Type 0, BuildingBlock: OJICUG_clean_sbu_0, # of connection points: 6
#     Node 2, Type 0, BuildingBlock: OJICUG_clean_sbu_0, # of connection points: 6
#     Node 3, Type 0, BuildingBlock: OJICUG_clean_sbu_0, # of connection points: 6
#     Node 4, Type 0, BuildingBlock: OJICUG_clean_sbu_0, # of connection points: 6
#     Node 5, Type 0, BuildingBlock: OJICUG_clean_sbu_0, # of connection points: 6
#     Node 6, Type 0, BuildingBlock: OJICUG_clean_sbu_0, # of connection points: 6
#     Node 7, Type 0, BuildingBlock: OJICUG_clean_sbu_0, # of connection points: 6
#     Edge 8, Type (0, 0), BuildingBlock: XIVTED_clean_linker_0, # of connection points: 2
#     Edge 9, Type (0, 0), BuildingBlock: XIVTED_clean_linker_0, # of connection points: 2
#     Edge 10, Type (0, 0), BuildingBlock: XIVTED_clean_linker_0, # of connection points: 2
#     Edge 11, Type (0, 0), BuildingBlock: XIVTED_clean_linker_0, # of connection points: 2
#     Edge 12, Type (0, 0), BuildingBlock: XIVTED_clean_linker_0, # of connection points: 2
#     Edge 13, Type (0, 0), BuildingBlock: XIVTED_clean_linker_0, # of connection points: 2
#     Edge 14, Type (0, 0), BuildingBlock: XIVTED_clean_linker_0, # of connection points: 2
#     Edge 15, Type (0, 0), BuildingBlock: XIVTED_clean_linker_0, # of connection points: 2
#     Edge 16, Type (0, 0), BuildingBlock: XIVTED_clean_linker_0, # of connection points: 2
#     Edge 17, Type (0, 0), BuildingBlock: XIVTED_clean_linker_0, # of connection points: 2
#     Edge 18, Type (0, 0), BuildingBlock: XIVTED_clean_linker_0, # of connection points: 2
#     Edge 19, Type (0, 0), BuildingBlock: XIVTED_clean_linker_0, # of connection points: 2
#     Edge 20, Type (0, 0), BuildingBlock: XIVTED_clean_linker_0, # of connection points: 2
#     Edge 21, Type (0, 0), BuildingBlock: XIVTED_clean_linker_0, # of connection points: 2
#     Edge 22, Type (0, 0), BuildingBlock: XIVTED_clean_linker_0, # of connection points: 2
#     Edge 23, Type (0, 0), BuildingBlock: XIVTED_clean_linker_0, # of connection points: 2
#     Edge 24, Type (0, 0), BuildingBlock: XIVTED_clean_linker_0, # of connection points: 2
#     Edge 25, Type (0, 0), BuildingBlock: XIVTED_clean_linker_0, # of connection points: 2
#     Edge 26, Type (0, 0), BuildingBlock: XIVTED_clean_linker_0, # of connection points: 2
#     Edge 27, Type (0, 0), BuildingBlock: XIVTED_clean_linker_0, # of connection points: 2
#     Edge 28, Type (0, 0), BuildingBlock: XIVTED_clean_linker_0, # of connection points: 2
#     Edge 29, Type (0, 0), BuildingBlock: XIVTED_clean_linker_0, # of connection points: 2
#     Edge 30, Type (0, 0), BuildingBlock: XIVTED_clean_linker_0, # of connection points: 2
#     Edge 31, Type (0, 0), BuildingBlock: XIVTED_clean_linker_0, # of connection points: 2
# Relax obj value: 0.339
# Max RMSD: 0.283
# Mean RMSD: 0.283
data_MOF--net-whc--node1-OJICUG_clean_sbu_0--edge1-XIVTED_clean_linker_0
_symmetry_space_group_name_H-M    P1
_symmetry_Int_Tables_number       1
_symmetry_cell_setting            triclinic
loop_
_symmetry_equiv_pos_as_xyz
'x, y, z'
_cell_length_a     35.571475
_cell_length_b     35.435426
_cell_length_c     31.199655
_cell_angle_alpha  90.130738
_cell_angle_beta   89.951123
_cell_angle_gamma 90.160282
loop_
_atom_site_label
_atom_site_type_symbol
_atom_site_fract_x
_atom_site_fract_y
_atom_site_fract_z
_atom_type_partial_charge
Sc0 Sc 0.43846 0.25166 0.11771 0.0
Sc1 Sc 0.39504 0.17795 0.06021 0.0
Sc2 Sc 0.49151 0.17587 0.08152 0.0
O3 O 0.4415 0.20199 0.08651 0.0
C4 C 0.51798 0.2617 0.07512 0.0
C5 C 0.38789 0.2641 0.03408 0.0
C6 C 0.45922 0.16217 0.99054 0.0
C7 C 0.36075 0.2152 0.14456 0.0
C8 C 0.49003 0.20103 0.1778 0.0
C9 C 0.43519 0.10654 0.0945 0.0
O10 O 0.48646 0.27526 0.08598 0.0
O11 O 0.38304 0.22922 0.02541 0.0
O12 O 0.48649 0.17366 0.01349 0.0
O13 O 0.38992 0.23435 0.15328 0.0
O14 O 0.49748 0.17613 0.14972 0.0
O15 O 0.40452 0.12493 0.09331 0.0
O16 O 0.47223 0.23136 0.16998 0.0
O17 O 0.35738 0.19551 0.11073 0.0
O18 O 0.46685 0.12135 0.08634 0.0
O19 O 0.40486 0.27574 0.06755 0.0
O20 O 0.52453 0.22655 0.07523 0.0
O21 O 0.42594 0.15816 0.00492 0.0
Sc22 Sc 0.25699 0.55553 0.84768 0.0
Sc23 Sc 0.18349 0.5902 0.91216 0.0
Sc24 Sc 0.1794 0.49848 0.86967 0.0
O25 O 0.20662 0.54829 0.87624 0.0
C26 C 0.20611 0.51665 0.77551 0.0
C27 C 0.221 0.63702 0.83678 0.0
C28 C 0.11202 0.55793 0.86754 0.0
C29 C 0.26951 0.59098 0.94089 0.0
C30 C 0.26385 0.46947 0.87293 0.0
C31 C 0.16754 0.51631 0.96703 0.0
O32 O 0.23594 0.5332 0.7882 0.0
O33 O 0.20028 0.63505 0.86978 0.0
O34 O 0.12555 0.5249 0.8673 0.0
O35 O 0.28154 0.57874 0.90501 0.0
O36 O 0.22872 0.46403 0.87082 0.0
O37 O 0.16362 0.55131 0.95966 0.0
O38 O 0.2786 0.50182 0.86825 0.0
O39 O 0.23473 0.59594 0.94887 0.0
O40 O 0.17703 0.49253 0.9384 0.0
O41 O 0.24164 0.61009 0.82402 0.0
O42 O 0.18159 0.50302 0.80097 0.0
O43 O 0.13037 0.58699 0.87916 0.0
Sc44 Sc 0.53707 0.70288 0.1796 0.0
Sc45 Sc 0.54686 0.78759 0.12379 0.0
Sc46 Sc 0.46186 0.76236 0.16921 0.0
O47 O 0.51606 0.75132 0.15839 0.0
C48 C 0.45681 0.67598 0.15531 0.0
C49 C 0.57091 0.70884 0.08498 0.0
C50 C 0.47186 0.77916 0.07231 0.0
C51 C 0.60483 0.75906 0.19423 0.0
C52 C 0.49181 0.73804 0.25863 0.0
C53 C 0.49762 0.84477 0.17063 0.0
O54 O 0.49183 0.67147 0.15027 0.0
O55 O 0.56314 0.74357 0.07967 0.0
O56 O 0.45378 0.75954 0.09992 0.0
O57 O 0.58427 0.73196 0.20732 0.0
O58 O 0.47432 0.76319 0.23705 0.0
O59 O 0.53127 0.83377 0.16491 0.0
O60 O 0.50862 0.71016 0.24092 0.0
O61 O 0.59694 0.77912 0.16171 0.0
O62 O 0.46978 0.82255 0.16654 0.0
O63 O 0.56687 0.692 0.12071 0.0
O64 O 0.44403 0.7045 0.17483 0.0
O65 O 0.49962 0.79995 0.08275 0.0
Sc66 Sc 0.70174 0.46358 0.82974 0.0
Sc67 Sc 0.78431 0.4404 0.88631 0.0
Sc68 Sc 0.77077 0.53233 0.84564 0.0
O69 O 0.75241 0.47857 0.85391 0.0
C70 C 0.73902 0.51079 0.75393 0.0
C71 C 0.75181 0.39067 0.81027 0.0
C72 C 0.84784 0.4867 0.83901 0.0
C73 C 0.70173 0.42083 0.91942 0.0
C74 C 0.68356 0.54642 0.86153 0.0
C75 C 0.79135 0.51574 0.94243 0.0
O76 O 0.71296 0.49022 0.76925 0.0
O77 O 0.77541 0.39618 0.84016 0.0
O78 O 0.8278 0.51603 0.83602 0.0
O79 O 0.68546 0.43502 0.88712 0.0
O80 O 0.71677 0.55793 0.85469 0.0
O81 O 0.79601 0.48066 0.9357 0.0
O82 O 0.67383 0.51226 0.85616 0.0
O83 O 0.73725 0.42043 0.9239 0.0
O84 O 0.77969 0.53873 0.91401 0.0
O85 O 0.72453 0.41271 0.80232 0.0
O86 O 0.76329 0.52751 0.77728 0.0
O87 O 0.8357 0.45571 0.85406 0.0
Sc88 Sc 0.49392 0.1787 0.5824 0.0
Sc89 Sc 0.59065 0.18411 0.56091 0.0
Sc90 Sc 0.54685 0.2537 0.62362 0.0
O91 O 0.54388 0.20562 0.5891 0.0
C92 C 0.4658 0.26382 0.58323 0.0
C93 C 0.52717 0.17213 0.49022 0.0
C94 C 0.59426 0.27209 0.53955 0.0
C95 C 0.55152 0.11013 0.59179 0.0
C96 C 0.49813 0.19788 0.68121 0.0
C97 C 0.62609 0.21744 0.64619 0.0
O98 O 0.46051 0.22874 0.5783 0.0
O99 O 0.56029 0.16809 0.50456 0.0
O100 O 0.57682 0.28189 0.57341 0.0
O101 O 0.51949 0.12459 0.58519 0.0
O102 O 0.51733 0.22779 0.67541 0.0
O103 O 0.62852 0.19801 0.6122 0.0
O104 O 0.48717 0.17629 0.65099 0.0
O105 O 0.58194 0.12907 0.58971 0.0
O106 O 0.59768 0.23741 0.65531 0.0
O107 O 0.49895 0.17954 0.51379 0.0
O108 O 0.49646 0.27737 0.5971 0.0
O109 O 0.60135 0.23777 0.53005 0.0
Sc110 Sc 0.19948 0.5272 0.36767 0.0
Sc111 Sc 0.19502 0.43125 0.39629 0.0
Sc112 Sc 0.2758 0.46831 0.34487 0.0
O113 O 0.22347 0.47543 0.36969 0.0
C114 C 0.23349 0.5168 0.27417 0.0
C115 C 0.12876 0.4741 0.3497 0.0
C116 C 0.23496 0.39109 0.31777 0.0
C117 C 0.17804 0.4994 0.46076 0.0
C118 C 0.2845 0.5501 0.38608 0.0
C119 C 0.27899 0.41996 0.43064 0.0
O120 O 0.20948 0.53081 0.29991 0.0
O121 O 0.14328 0.4434 0.3626 0.0
O122 O 0.26013 0.41634 0.31346 0.0
O123 O 0.18729 0.52586 0.43528 0.0
O124 O 0.2987 0.51908 0.37375 0.0
O125 O 0.24366 0.41434 0.43299 0.0
O126 O 0.24967 0.55679 0.38365 0.0
O127 O 0.17765 0.46479 0.45001 0.0
O128 O 0.29444 0.43893 0.40087 0.0
O129 O 0.14561 0.5055 0.352 0.0
O130 O 0.26059 0.49611 0.28635 0.0
O131 O 0.20957 0.3923 0.34628 0.0
Sc132 Sc 0.54142 0.76061 0.66937 0.0
Sc133 Sc 0.45677 0.788 0.62656 0.0
Sc134 Sc 0.46381 0.70473 0.684 0.0
O135 O 0.4867 0.75147 0.66059 0.0
C136 C 0.54075 0.67453 0.65443 0.0
C137 C 0.53017 0.77674 0.57277 0.0
C138 C 0.42516 0.71151 0.5922 0.0
C139 C 0.50891 0.84401 0.67086 0.0
C140 C 0.51294 0.73809 0.75957 0.0
C141 C 0.40036 0.76347 0.70107 0.0
O142 O 0.55529 0.70159 0.67527 0.0
O143 O 0.50352 0.79859 0.58394 0.0
O144 O 0.42782 0.69624 0.62898 0.0
O145 O 0.53612 0.82127 0.66555 0.0
O146 O 0.49722 0.70939 0.74221 0.0
O147 O 0.40717 0.78093 0.66623 0.0
O148 O 0.53002 0.76322 0.73745 0.0
O149 O 0.47488 0.83343 0.66719 0.0
O150 O 0.42117 0.73725 0.71556 0.0
O151 O 0.548 0.75662 0.59998 0.0
O152 O 0.50536 0.67161 0.65055 0.0
O153 O 0.43832 0.74403 0.58367 0.0
Sc154 Sc 0.77621 0.48035 0.34486 0.0
Sc155 Sc 0.79671 0.56517 0.39378 0.0
Sc156 Sc 0.71613 0.55469 0.33162 0.0
O157 O 0.76324 0.53416 0.35605 0.0
C158 C 0.75654 0.51113 0.25495 0.0
C159 C 0.85635 0.51904 0.34691 0.0
C160 C 0.76997 0.62476 0.32417 0.0
C161 C 0.78881 0.48823 0.44174 0.0
C162 C 0.68918 0.47322 0.35018 0.0
C163 C 0.71576 0.58579 0.4277 0.0
O164 O 0.78053 0.49367 0.27797 0.0
O165 O 0.84457 0.55243 0.35373 0.0
O166 O 0.74564 0.60293 0.30739 0.0
O167 O 0.7702 0.47063 0.41298 0.0
O168 O 0.6838 0.50811 0.35648 0.0
O169 O 0.74998 0.57783 0.43576 0.0
O170 O 0.71964 0.46109 0.33453 0.0
O171 O 0.80939 0.51663 0.43297 0.0
O172 O 0.70165 0.58337 0.39026 0.0
O173 O 0.83539 0.49033 0.35185 0.0
O174 O 0.72761 0.52748 0.27064 0.0
O175 O 0.78757 0.61694 0.35848 0.0
H176 H 0.23203 0.31815 0.34405 0.0
H177 H 0.29271 0.23789 0.11611 0.0
H178 H 0.24559 0.38723 0.23147 0.0
H179 H 0.35451 0.21363 0.23155 0.0
H180 H 0.24711 0.27381 0.15877 0.0
H181 H 0.24959 0.26235 0.30149 0.0
C182 C 0.2375 0.32128 0.31007 0.0
C183 C 0.23783 0.3571 0.29106 0.0
C184 C 0.26978 0.25919 0.17482 0.0
C185 C 0.25665 0.29392 0.24263 0.0
C186 C 0.29555 0.23848 0.15069 0.0
C187 C 0.32734 0.22313 0.17056 0.0
C188 C 0.27564 0.26362 0.21896 0.0
C189 C 0.33031 0.22527 0.21526 0.0
C190 C 0.24747 0.2896 0.28602 0.0
C191 C 0.24543 0.35999 0.24717 0.0
N192 N 0.30496 0.24569 0.23806 0.0
N193 N 0.25477 0.32873 0.22435 0.0
H194 H 0.22111 0.65101 0.7513 0.0
H195 H 0.38662 0.76642 0.78673 0.0
H196 H 0.23457 0.70494 0.87427 0.0
H197 H 0.33189 0.77249 0.66373 0.0
H198 H 0.32566 0.75583 0.82058 0.0
H199 H 0.25194 0.70476 0.71732 0.0
C200 C 0.22931 0.67496 0.77086 0.0
C201 C 0.22614 0.67349 0.81553 0.0
C202 C 0.32666 0.76091 0.78637 0.0
C203 C 0.26272 0.73405 0.77742 0.0
C204 C 0.3615 0.76675 0.7671 0.0
C205 C 0.3641 0.76939 0.72245 0.0
C206 C 0.2947 0.75604 0.76048 0.0
C207 C 0.3309 0.77005 0.6983 0.0
C208 C 0.24684 0.70571 0.75154 0.0
C209 C 0.23698 0.70507 0.83967 0.0
N210 N 0.29754 0.76198 0.71747 0.0
N211 N 0.25617 0.7336 0.82046 0.0
H212 H 0.76159 0.69019 0.36826 0.0
H213 H 0.67298 0.76816 0.15587 0.0
H214 H 0.77952 0.64593 0.24118 0.0
H215 H 0.61963 0.76031 0.27964 0.0
H216 H 0.73391 0.75579 0.18985 0.0
H217 H 0.73501 0.74749 0.33686 0.0
C218 C 0.76192 0.69349 0.33374 0.0
C219 C 0.77167 0.66319 0.30706 0.0
C220 C 0.70906 0.75851 0.20972 0.0
C221 C 0.74136 0.72793 0.27134 0.0
C222 C 0.67438 0.76547 0.19042 0.0
C223 C 0.64145 0.76412 0.21507 0.0
C224 C 0.71044 0.75062 0.25376 0.0
C225 C 0.6445 0.76059 0.25959 0.0
C226 C 0.7466 0.72607 0.31588 0.0
C227 C 0.77146 0.66858 0.26264 0.0
N228 N 0.67841 0.7533 0.27751 0.0
N229 N 0.75558 0.70006 0.24602 0.0
H230 H 0.75212 0.32017 0.84367 0.0
H231 H 0.69694 0.23151 0.61837 0.0
H232 H 0.75245 0.3806 0.72394 0.0
H233 H 0.63082 0.21845 0.73329 0.0
H234 H 0.74576 0.2635 0.66053 0.0
H235 H 0.73628 0.26188 0.80466 0.0
C236 C 0.75041 0.32073 0.809 0.0
C237 C 0.75307 0.35494 0.78673 0.0
C238 C 0.7213 0.25205 0.67668 0.0
C239 C 0.73594 0.28901 0.74247 0.0
C240 C 0.69358 0.2337 0.65281 0.0
C241 C 0.65977 0.22303 0.67253 0.0
C242 C 0.71517 0.25889 0.72039 0.0
C243 C 0.65644 0.22681 0.71705 0.0
C244 C 0.74139 0.28764 0.78694 0.0
C245 C 0.75022 0.35464 0.74202 0.0
N246 N 0.68363 0.24504 0.73954 0.0
N247 N 0.7414 0.32212 0.72127 0.0
H248 H 0.5455 0.21077 0.74685 0.0
H249 H 0.40731 0.14537 0.92821 0.0
H250 H 0.44001 0.15656 0.71618 0.0
H251 H 0.52613 0.16462 0.94778 0.0
H252 H 0.41793 0.1456 0.85083 0.0
H253 H 0.53811 0.19205 0.8209 0.0
C254 C 0.52055 0.19506 0.75589 0.0
C255 C 0.49285 0.18585 0.7257 0.0
C256 C 0.44169 0.14908 0.87218 0.0
C257 C 0.48434 0.16399 0.81062 0.0
C258 C 0.4357 0.14906 0.91633 0.0
C259 C 0.46578 0.15596 0.94448 0.0
C260 C 0.47787 0.15633 0.85637 0.0
C261 C 0.50197 0.16004 0.92733 0.0
C262 C 0.51658 0.18394 0.79812 0.0
C263 C 0.46169 0.16452 0.73882 0.0
N264 N 0.50689 0.16072 0.88434 0.0
N265 N 0.4579 0.15473 0.78074 0.0
H266 H 0.12358 0.54391 0.03084 0.0
H267 H 0.27173 0.48231 0.20863 0.0
H268 H 0.21476 0.46683 0.0063 0.0
H269 H 0.17591 0.55377 0.23395 0.0
H270 H 0.25071 0.47521 0.13477 0.0
H271 H 0.13902 0.54302 0.10694 0.0
C272 C 0.14615 0.52586 0.0418 0.0
C273 C 0.1681 0.50558 0.01242 0.0
C274 C 0.23439 0.49255 0.15647 0.0
C275 C 0.18688 0.50555 0.09899 0.0
C276 C 0.24663 0.49708 0.19858 0.0
C277 C 0.22556 0.5187 0.22774 0.0
C278 C 0.20091 0.50984 0.14332 0.0
C279 C 0.19313 0.53687 0.21273 0.0
C280 C 0.15527 0.52572 0.08512 0.0
C281 C 0.19706 0.48271 0.02805 0.0
N282 N 0.18174 0.53188 0.17162 0.0
N283 N 0.20613 0.48387 0.07032 0.0
H284 H 0.45033 0.71544 0.02818 0.0
H285 H 0.52846 0.80115 0.80787 0.0
H286 H 0.48165 0.83203 0.01048 0.0
H287 H 0.48375 0.6881 0.81806 0.0
H288 H 0.51164 0.81223 0.88274 0.0
H289 H 0.45912 0.70483 0.95095 0.0
C290 C 0.45776 0.73907 0.00786 0.0
C291 C 0.46528 0.77467 0.02575 0.0
C292 C 0.50558 0.78493 0.86865 0.0
C293 C 0.47671 0.76251 0.93791 0.0
C294 C 0.51561 0.77845 0.82594 0.0
C295 C 0.50773 0.74358 0.80647 0.0
C296 C 0.48763 0.75633 0.89234 0.0
C297 C 0.49051 0.71543 0.8316 0.0
C298 C 0.46337 0.73289 0.96389 0.0
C299 C 0.47567 0.8041 -0.00197 0.0
N300 N 0.48105 0.72241 0.87314 0.0
N301 N 0.48151 0.79727 0.95573 0.0
H302 H 0.71459 0.55017 0.19647 0.0
H303 H 0.84426 0.49341 -0.00077 0.0
H304 H 0.81551 0.4833 0.20775 0.0
H305 H 0.7462 0.56387 0.98744 0.0
H306 H 0.8394 0.4976 0.07702 0.0
H307 H 0.72905 0.56091 0.12121 0.0
C308 C 0.73967 0.53746 0.18312 0.0
C309 C 0.76364 0.51534 0.20851 0.0
C310 C 0.81933 0.5128 0.05757 0.0
C311 C 0.78061 0.52817 0.12225 0.0
C312 C 0.8223 0.51067 0.01319 0.0
C313 C 0.79537 0.52806 0.98713 0.0
C314 C 0.78881 0.53192 0.07595 0.0
C315 C 0.76753 0.55014 0.00656 0.0
C316 C 0.74807 0.54397 0.14016 0.0
C317 C 0.79597 0.50016 0.18941 0.0
N318 N 0.76448 0.55082 0.04999 0.0
N319 N 0.80341 0.50673 0.14739 0.0
H320 H 0.47928 0.13552 0.22094 0.0
H321 H 0.57644 0.20156 0.43389 0.0
H322 H 0.52078 0.24936 0.23547 0.0
H323 H 0.46892 0.14504 0.4411 0.0
H324 H 0.56958 0.20588 0.35622 0.0
H325 H 0.48864 0.12541 0.29826 0.0
C326 C 0.49101 0.15804 0.24037 0.0
C327 C 0.49953 0.19324 0.22235 0.0
C328 C 0.54772 0.19227 0.37488 0.0
C329 C 0.51038 0.18181 0.30925 0.0
C330 C 0.5516 0.1896 0.41895 0.0
C331 C 0.52313 0.17284 0.44359 0.0
C332 C 0.51562 0.17733 0.35536 0.0
C333 C 0.4913 0.15825 0.42294 0.0
C334 C 0.49591 0.15238 0.28417 0.0
C335 C 0.51401 0.22187 0.24852 0.0
N336 N 0.48843 0.16059 0.37958 0.0
N337 N 0.51932 0.21543 0.29085 0.0
H338 H 0.13932 0.45752 0.51935 0.0
H339 H 0.24077 0.55843 0.71366 0.0
H340 H 0.20383 0.56025 0.50618 0.0
H341 H 0.15331 0.47506 0.73163 0.0
H342 H 0.22663 0.55968 0.63749 0.0
H343 H 0.14122 0.46489 0.59708 0.0
C344 C 0.1533 0.48202 0.53284 0.0
C345 C 0.1719 0.50806 0.50638 0.0
C346 C 0.21039 0.54123 0.65808 0.0
C347 C 0.17473 0.51624 0.59513 0.0
C348 C 0.21873 0.54014 0.70157 0.0
C349 C 0.1985 0.51619 0.72905 0.0
C350 C 0.18191 0.51791 0.64169 0.0
C351 C 0.16979 0.49372 0.71157 0.0
C352 C 0.1544 0.48617 0.57719 0.0
C353 C 0.18924 0.53945 0.52543 0.0
N354 N 0.16255 0.49488 0.66885 0.0
N355 N 0.19081 0.54231 0.56877 0.0
H356 H 0.47394 0.79963 0.30818 0.0
H357 H 0.55102 0.71302 0.52814 0.0
H358 H 0.52148 0.68788 0.31647 0.0
H359 H 0.5196 0.8295 0.51106 0.0
H360 H 0.54246 0.70272 0.45079 0.0
H361 H 0.48927 0.8098 0.38357 0.0
C362 C 0.48714 0.77701 0.32591 0.0
C363 C 0.4963 0.74282 0.30573 0.0
C364 C 0.53808 0.73068 0.46393 0.0
C365 C 0.51462 0.75454 0.39229 0.0
C366 C 0.54352 0.73667 0.50797 0.0
C367 C 0.53599 0.77216 0.52605 0.0
C368 C 0.5249 0.76036 0.43808 0.0
C369 C 0.52555 0.80163 0.4985 0.0
C370 C 0.49629 0.78298 0.36894 0.0
C371 C 0.51382 0.71473 0.33053 0.0
N372 N 0.51992 0.79498 0.45615 0.0
N373 N 0.52241 0.72121 0.37242 0.0
H374 H 0.79937 0.53684 0.70802 0.0
H375 H 0.72514 0.46212 0.48154 0.0
H376 H 0.69161 0.48187 0.69267 0.0
H377 H 0.83892 0.4987 0.50607 0.0
H378 H 0.71161 0.46755 0.55848 0.0
H379 H 0.81246 0.52543 0.63249 0.0
C380 C 0.77817 0.52292 0.68868 0.0
C381 C 0.74437 0.51024 0.70689 0.0
C382 C 0.7397 0.47372 0.54704 0.0
C383 C 0.75956 0.49632 0.62035 0.0
C384 C 0.74757 0.47006 0.50328 0.0
C385 C 0.78315 0.48012 0.48755 0.0
C386 C 0.76763 0.48764 0.57483 0.0
C387 C 0.81103 0.49092 0.51691 0.0
C388 C 0.78587 0.51597 0.6456 0.0
C389 C 0.71811 0.49208 0.6801 0.0
N390 N 0.80255 0.49485 0.55902 0.0
N391 N 0.72632 0.48554 0.6382 0.0
H392 H 0.24677 0.39436 0.86794 0.0
H393 H 0.4088 0.33807 0.02935 0.0
H394 H 0.33452 0.47116 0.90787 0.0
H395 H 0.33578 0.25585 0.96958 0.0
H396 H 0.38388 0.38633 0.98201 0.0
H397 H 0.28122 0.34241 0.90054 0.0
C398 C 0.27357 0.40022 0.88306 0.0
C399 C 0.28756 0.43726 0.8857 0.0
C400 C 0.37347 0.35771 0.97895 0.0
C401 C 0.32688 0.37794 0.92354 0.0
C402 C 0.38749 0.33011 0.00622 0.0
C403 C 0.37394 0.2929 0.00388 0.0
C404 C 0.34532 0.34826 0.94934 0.0
C405 C 0.34683 0.28421 0.97271 0.0
C406 C 0.29323 0.37051 0.90164 0.0
C407 C 0.3226 0.4431 0.90524 0.0
N408 N 0.33306 0.31182 0.94696 0.0
N409 N 0.34078 0.41382 0.92401 0.0
H410 H 0.34595 0.58174 0.93735 0.0
H411 H 0.38145 0.66826 0.16976 0.0
H412 H 0.25691 0.61637 0.023 0.0
H413 H 0.47036 0.63055 0.08586 0.0
H414 H 0.33527 0.64182 0.1203 0.0
H415 H 0.39153 0.59371 -0.00599 0.0
C416 C 0.33589 0.5919 0.96804 0.0
C417 C 0.29743 0.59846 0.97514 0.0
C418 C 0.3649 0.63877 0.11298 0.0
C419 C 0.34974 0.61193 0.04047 0.0
C420 C 0.3913 0.65368 0.14136 0.0
C421 C 0.42982 0.65195 0.13172 0.0
C422 C 0.37702 0.62235 0.07442 0.0
C423 C 0.44095 0.63255 0.09458 0.0
C424 C 0.362 0.59853 0.00051 0.0
C425 C 0.28624 0.61126 0.01582 0.0
N426 N 0.41465 0.61904 0.06691 0.0
N427 N 0.31227 0.61777 0.04683 0.0
H428 H 0.56828 0.63232 0.07655 0.0
H429 H 0.68655 0.62363 0.86306 0.0
H430 H 0.59987 0.73326 0.00792 0.0
H431 H 0.62246 0.52913 0.91117 0.0
H432 H 0.65347 0.6651 0.91305 0.0
H433 H 0.58774 0.59453 0.01529 0.0
C434 C 0.57951 0.64659 0.04864 0.0
C435 C 0.58301 0.68606 0.04767 0.0
C436 C 0.64612 0.63544 0.91205 0.0
C437 C 0.60513 0.64272 0.97705 0.0
C438 C 0.66492 0.61174 0.88347 0.0
C439 C 0.65757 0.57275 0.88328 0.0
C440 C 0.62029 0.61993 0.94114 0.0
C441 C 0.62913 0.55895 0.91025 0.0
C442 C 0.59023 0.62495 0.01344 0.0
C443 C 0.59701 0.70291 0.0102 0.0
N444 N 0.61204 0.58241 0.93868 0.0
N445 N 0.60802 0.6811 0.97651 0.0
H446 H 0.62982 0.43876 0.94039 0.0
H447 H 0.5922 0.24568 0.05988 0.0
H448 H 0.7189 0.36113 0.97158 0.0
H449 H 0.51203 0.337 0.0569 0.0
H450 H 0.63986 0.28806 0.03041 0.0
H451 H 0.58719 0.40307 0.9862 0.0
C452 C 0.64047 0.41435 0.9573 0.0
C453 C 0.67777 0.40255 0.95185 0.0
C454 C 0.61196 0.2989 0.03669 0.0
C455 C 0.62901 0.36125 0.0039 0.0
C456 C 0.58465 0.27468 0.0533 0.0
C457 C 0.54788 0.28767 0.0604 0.0
C458 C 0.60233 0.33622 0.02664 0.0
C459 C 0.53989 0.32565 0.0517 0.0
C460 C 0.61616 0.39404 0.98355 0.0
C461 C 0.69029 0.37106 0.97489 0.0
N462 N 0.56677 0.34845 0.03482 0.0
N463 N 0.66574 0.35106 -0.00057 0.0
H464 H 0.58426 0.34816 0.54892 0.0
H465 H 0.68149 0.39944 0.32688 0.0
H466 H 0.62578 0.26482 0.45941 0.0
H467 H 0.63915 0.48246 0.41598 0.0
H468 H 0.65261 0.34976 0.36975 0.0
H469 H 0.59789 0.39733 0.49699 0.0
C470 C 0.59639 0.34012 0.5184 0.0
C471 C 0.60427 0.30218 0.50878 0.0
C472 C 0.64905 0.37886 0.37957 0.0
C473 C 0.61959 0.35868 0.44883 0.0
C474 C 0.66531 0.40727 0.35495 0.0
C475 C 0.66314 0.44506 0.36828 0.0
C476 C 0.63083 0.38831 0.41799 0.0
C477 C 0.6416 0.45368 0.40463 0.0
C478 C 0.60392 0.36831 0.48861 0.0
C479 C 0.61965 0.29366 0.46848 0.0
N480 N 0.62684 0.42539 0.42872 0.0
N481 N 0.62697 0.32174 0.44005 0.0
H482 H 0.39176 0.24698 0.56926 0.0
H483 H 0.35096 0.43971 0.45133 0.0
H484 H 0.4708 0.33971 0.56737 0.0
H485 H 0.26373 0.3592 0.48209 0.0
H486 H 0.39434 0.40506 0.497 0.0
H487 H 0.34357 0.28871 0.54063 0.0
C488 C 0.39892 0.27621 0.56314 0.0
C489 C 0.43551 0.28977 0.57022 0.0
C490 C 0.36559 0.39522 0.49423 0.0
C491 C 0.38049 0.33761 0.53723 0.0
C492 C 0.34083 0.41491 0.46802 0.0
C493 C 0.30382 0.402 0.46244 0.0
C494 C 0.35344 0.36205 0.51451 0.0
C495 C 0.29208 0.37002 0.48532 0.0
C496 C 0.37132 0.30006 0.54698 0.0
C497 C 0.44302 0.32801 0.5622 0.0
N498 N 0.31702 0.35078 0.50987 0.0
N499 N 0.41586 0.35048 0.54557 0.0
H500 H 0.35962 0.67343 0.60044 0.0
H501 H 0.36212 0.55568 0.39036 0.0
H502 H 0.44566 0.7016 0.50829 0.0
H503 H 0.25991 0.60803 0.4358 0.0
H504 H 0.39836 0.59855 0.43727 0.0
H505 H 0.32685 0.63687 0.54518 0.0
C506 C 0.37153 0.67184 0.5685 0.0
C507 C 0.40507 0.69059 0.55858 0.0
C508 C 0.36801 0.60072 0.43616 0.0
C509 C 0.36845 0.64832 0.49594 0.0
C510 C 0.34737 0.57635 0.40963 0.0
C511 C 0.3079 0.5781 0.40922 0.0
C512 C 0.34883 0.626 0.46302 0.0
C513 C 0.29022 0.60549 0.43489 0.0
C514 C 0.35287 0.65115 0.53712 0.0
C515 C 0.41954 0.68772 0.51679 0.0
N516 N 0.31075 0.62782 0.46125 0.0
N517 N 0.4013 0.66646 0.48686 0.0
H518 H 0.63983 0.59645 0.4238 0.0
H519 H 0.6162 0.66305 0.6649 0.0
H520 H 0.73263 0.59713 0.51311 0.0
H521 H 0.52298 0.63387 0.58264 0.0
H522 H 0.65946 0.63695 0.61171 0.0
H523 H 0.59709 0.61024 0.4824 0.0
C524 C 0.65137 0.59967 0.45572 0.0
C525 C 0.69011 0.59594 0.46334 0.0
C526 C 0.62951 0.63565 0.60565 0.0
C527 C 0.64081 0.61146 0.53102 0.0
C528 C 0.60477 0.65039 0.63606 0.0
C529 C 0.56592 0.65088 0.62804 0.0
C530 C 0.61532 0.62183 0.56671 0.0
C531 C 0.55268 0.63405 0.59022 0.0
C532 C 0.62676 0.60723 0.48931 0.0
C533 C 0.70308 0.60007 0.50562 0.0
N534 N 0.57739 0.62079 0.56063 0.0
N535 N 0.67848 0.60786 0.53787 0.0
H536 H 0.39336 0.06782 0.15526 0.0
H537 H 0.54505 0.90352 0.15266 0.0
H538 H 0.48134 0.05461 0.06108 0.0
H539 H 0.43132 0.87886 0.19274 0.0
H540 H 0.5263 0.96837 0.13823 0.0
H541 H 0.40874 0.0044 0.18335 0.0
C542 C 0.4152 0.05131 0.14001 0.0
C543 C 0.43638 0.0664 0.10615 0.0
C544 C 0.50561 0.9488 0.15077 0.0
C545 C 0.45491 -0.00419 0.13885 0.0
C546 C 0.51639 0.9119 0.15944 0.0
C547 C 0.48952 0.88554 0.17295 0.0
C548 C 0.46785 0.95941 0.1559 0.0
C549 C 0.45275 0.8982 0.18146 0.0
C550 C 0.42427 0.01559 0.15632 0.0
C551 C 0.46469 0.0442 0.08767 0.0
N552 N 0.44275 0.93426 0.17221 0.0
N553 N 0.47345 0.01035 0.10461 0.0
H554 H 0.88331 0.52734 0.77668 0.0
H555 H 0.05682 0.5626 0.92597 0.0
H556 H 0.90353 0.46093 0.89002 0.0
H557 H 0.07743 0.55392 0.79022 0.0
H558 H 0.99148 0.54302 0.9139 0.0
H559 H 0.94852 0.55063 0.78013 0.0
C560 C 0.90184 0.5169 0.8015 0.0
C561 C 0.88838 0.492 0.83295 0.0
C562 C 0.01014 0.54638 0.8867 0.0
C563 C 0.96129 0.51994 0.83829 0.0
C564 C 0.04698 0.55823 0.89346 0.0
C565 C 0.07188 0.56046 0.85887 0.0
C566 C -0.00164 0.53716 0.84509 0.0
C567 C 0.05851 0.55317 0.81742 0.0
C568 C 0.93867 0.53043 0.80364 0.0
C569 C 0.91308 0.47968 0.86487 0.0
N570 N 0.0224 0.54167 0.81152 0.0
N571 N 0.94822 0.49446 0.86731 0.0
H572 H 0.45899 0.90249 0.67337 0.0
H573 H 0.60579 0.06913 0.6355 0.0
H574 H 0.5781 0.87872 0.67202 0.0
H575 H 0.49583 0.05986 0.57751 0.0
H576 H 0.59755 0.00473 0.66459 0.0
H577 H 0.47305 0.96855 0.6593 0.0
C578 C 0.48813 0.91119 0.6709 0.0
C579 C 0.51733 0.88481 0.6727 0.0
C580 C 0.57549 0.01716 0.6454 0.0
C581 C 0.53351 0.9603 0.65613 0.0
C582 C 0.58028 0.05355 0.62852 0.0
C583 C 0.55128 0.07006 0.60454 0.0
C584 C 0.54135 -0.002 0.63857 0.0
C585 C 0.51871 0.04871 0.59649 0.0
C586 C 0.49612 0.94887 0.66261 0.0
C587 C 0.55465 0.89802 0.66997 0.0
N588 N 0.51453 0.01411 0.61381 0.0
N589 N 0.56175 0.93491 0.6611 0.0
H590 H 0.91293 0.57065 0.33162 0.0
H591 H 0.0737 0.42007 0.35954 0.0
H592 H 0.8907 0.45082 0.33891 0.0
H593 H 0.09391 0.53107 0.30712 0.0
H594 H 0.00622 0.4295 0.34891 0.0
H595 H 0.97966 0.55661 0.32068 0.0
C596 C 0.92197 0.5415 0.33062 0.0
C597 C 0.89626 0.51198 0.33682 0.0
C598 C 0.02557 0.4515 0.33909 0.0
C599 C 0.97219 0.49573 0.3245 0.0
C600 C 0.06406 0.44603 0.345 0.0
C601 C 0.08935 0.47513 0.33517 0.0
C602 C 0.01255 0.48639 0.32371 0.0
C603 C 0.07531 0.50819 0.3162 0.0
C604 C 0.95996 0.53346 0.32417 0.0
C605 C 0.9095 0.47462 0.3348 0.0
N606 N 0.0378 0.51322 0.31185 0.0
N607 N 0.94657 0.4676 0.32939 0.0
loop_
_geom_bond_atom_site_label_1
_geom_bond_atom_site_label_2
_geom_bond_distance
_geom_bond_site_symmetry_2
_ccdc_geom_bond_type
Sc0 O3 2.025 . S
Sc0 O10 2.105 . S
Sc0 O13 2.105 . S
Sc0 O16 2.105 . S
Sc0 O19 2.105 . S
Sc1 O3 2.025 . S
Sc1 O11 2.105 . S
Sc1 O15 2.105 . S
Sc1 O17 2.105 . S
Sc1 O21 2.105 . S
Sc2 O3 2.025 . S
Sc2 O12 2.105 . S
Sc2 O14 2.105 . S
Sc2 O18 2.105 . S
Sc2 O20 2.105 . S
O3 Sc0 2.025 . S
O3 Sc1 2.025 . S
O3 Sc2 2.025 . S
C4 O10 1.268 . S
C4 O20 1.268 . S
C5 O11 1.268 . S
C5 O19 1.268 . S
C6 O12 1.268 1_556 S
C6 O21 1.268 1_556 S
C7 O13 1.268 . S
C7 O17 1.268 . S
C8 O14 1.268 . S
C8 O16 1.268 . S
C9 O15 1.268 . S
C9 O18 1.268 . S
O10 Sc0 2.105 . S
O10 C4 1.268 . S
O11 Sc1 2.105 . S
O11 C5 1.268 . S
O12 Sc2 2.105 . S
O12 C6 1.268 1_554 S
O13 Sc0 2.105 . S
O13 C7 1.268 . S
O14 Sc2 2.105 . S
O14 C8 1.268 . S
O15 Sc1 2.105 . S
O15 C9 1.268 . S
O16 Sc0 2.105 . S
O16 C8 1.268 . S
O17 Sc1 2.105 . S
O17 C7 1.268 . S
O18 Sc2 2.105 . S
O18 C9 1.268 . S
O19 Sc0 2.105 . S
O19 C5 1.268 . S
O20 Sc2 2.105 . S
O20 C4 1.268 . S
O21 Sc1 2.105 . S
O21 C6 1.268 1_554 S
Sc22 O25 2.025 . S
Sc22 O32 2.105 . S
Sc22 O35 2.105 . S
Sc22 O38 2.105 . S
Sc22 O41 2.105 . S
Sc23 O25 2.025 . S
Sc23 O33 2.105 . S
Sc23 O37 2.105 . S
Sc23 O39 2.105 . S
Sc23 O43 2.105 . S
Sc24 O25 2.025 . S
Sc24 O34 2.105 . S
Sc24 O36 2.105 . S
Sc24 O40 2.105 . S
Sc24 O42 2.105 . S
O25 Sc22 2.025 . S
O25 Sc23 2.025 . S
O25 Sc24 2.025 . S
C26 O32 1.268 . S
C26 O42 1.268 . S
C27 O33 1.268 . S
C27 O41 1.268 . S
C28 O34 1.268 . S
C28 O43 1.268 . S
C29 O35 1.268 . S
C29 O39 1.268 . S
C30 O36 1.268 . S
C30 O38 1.268 . S
C31 O37 1.268 1_554 S
C31 O40 1.268 1_554 S
O32 Sc22 2.105 . S
O32 C26 1.268 . S
O33 Sc23 2.105 . S
O33 C27 1.268 . S
O34 Sc24 2.105 . S
O34 C28 1.268 . S
O35 Sc22 2.105 . S
O35 C29 1.268 . S
O36 Sc24 2.105 . S
O36 C30 1.268 . S
O37 Sc23 2.105 . S
O37 C31 1.268 1_556 S
O38 Sc22 2.105 . S
O38 C30 1.268 . S
O39 Sc23 2.105 . S
O39 C29 1.268 . S
O40 Sc24 2.105 . S
O40 C31 1.268 1_556 S
O41 Sc22 2.105 . S
O41 C27 1.268 . S
O42 Sc24 2.105 . S
O42 C26 1.268 . S
O43 Sc23 2.105 . S
O43 C28 1.268 . S
Sc44 O47 2.025 . S
Sc44 O54 2.105 . S
Sc44 O57 2.105 . S
Sc44 O60 2.105 . S
Sc44 O63 2.105 . S
Sc45 O47 2.025 . S
Sc45 O55 2.105 . S
Sc45 O59 2.105 . S
Sc45 O61 2.105 . S
Sc45 O65 2.105 . S
Sc46 O47 2.025 . S
Sc46 O56 2.105 . S
Sc46 O58 2.105 . S
Sc46 O62 2.105 . S
Sc46 O64 2.105 . S
O47 Sc44 2.025 . S
O47 Sc45 2.025 . S
O47 Sc46 2.025 . S
C48 O54 1.268 . S
C48 O64 1.268 . S
C49 O55 1.268 . S
C49 O63 1.268 . S
C50 O56 1.268 1_556 S
C50 O65 1.268 1_556 S
C51 O57 1.268 . S
C51 O61 1.268 . S
C52 O58 1.268 . S
C52 O60 1.268 . S
C53 O59 1.268 . S
C53 O62 1.268 . S
O54 Sc44 2.105 . S
O54 C48 1.268 . S
O55 Sc45 2.105 . S
O55 C49 1.268 . S
O56 Sc46 2.105 . S
O56 C50 1.268 1_554 S
O57 Sc44 2.105 . S
O57 C51 1.268 . S
O58 Sc46 2.105 . S
O58 C52 1.268 . S
O59 Sc45 2.105 . S
O59 C53 1.268 . S
O60 Sc44 2.105 . S
O60 C52 1.268 . S
O61 Sc45 2.105 . S
O61 C51 1.268 . S
O62 Sc46 2.105 . S
O62 C53 1.268 . S
O63 Sc44 2.105 . S
O63 C49 1.268 . S
O64 Sc46 2.105 . S
O64 C48 1.268 . S
O65 Sc45 2.105 . S
O65 C50 1.268 1_554 S
Sc66 O69 2.025 . S
Sc66 O76 2.105 . S
Sc66 O79 2.105 . S
Sc66 O82 2.105 . S
Sc66 O85 2.105 . S
Sc67 O69 2.025 . S
Sc67 O77 2.105 . S
Sc67 O81 2.105 . S
Sc67 O83 2.105 . S
Sc67 O87 2.105 . S
Sc68 O69 2.025 . S
Sc68 O78 2.105 . S
Sc68 O80 2.105 . S
Sc68 O84 2.105 . S
Sc68 O86 2.105 . S
O69 Sc66 2.025 . S
O69 Sc67 2.025 . S
O69 Sc68 2.025 . S
C70 O76 1.268 . S
C70 O86 1.268 . S
C71 O77 1.268 . S
C71 O85 1.268 . S
C72 O78 1.268 . S
C72 O87 1.268 . S
C73 O79 1.268 . S
C73 O83 1.268 . S
C74 O80 1.268 . S
C74 O82 1.268 . S
C75 O81 1.268 1_554 S
C75 O84 1.268 1_554 S
O76 Sc66 2.105 . S
O76 C70 1.268 . S
O77 Sc67 2.105 . S
O77 C71 1.268 . S
O78 Sc68 2.105 . S
O78 C72 1.268 . S
O79 Sc66 2.105 . S
O79 C73 1.268 . S
O80 Sc68 2.105 . S
O80 C74 1.268 . S
O81 Sc67 2.105 . S
O81 C75 1.268 1_556 S
O82 Sc66 2.105 . S
O82 C74 1.268 . S
O83 Sc67 2.105 . S
O83 C73 1.268 . S
O84 Sc68 2.105 . S
O84 C75 1.268 1_556 S
O85 Sc66 2.105 . S
O85 C71 1.268 . S
O86 Sc68 2.105 . S
O86 C70 1.268 . S
O87 Sc67 2.105 . S
O87 C72 1.268 . S
Sc88 O91 2.025 . S
Sc88 O98 2.105 . S
Sc88 O101 2.105 . S
Sc88 O104 2.105 . S
Sc88 O107 2.105 . S
Sc89 O91 2.025 . S
Sc89 O99 2.105 . S
Sc89 O103 2.105 . S
Sc89 O105 2.105 . S
Sc89 O109 2.105 . S
Sc90 O91 2.025 . S
Sc90 O100 2.105 . S
Sc90 O102 2.105 . S
Sc90 O106 2.105 . S
Sc90 O108 2.105 . S
O91 Sc88 2.025 . S
O91 Sc89 2.025 . S
O91 Sc90 2.025 . S
C92 O98 1.268 . S
C92 O108 1.268 . S
C93 O99 1.268 . S
C93 O107 1.268 . S
C94 O100 1.268 . S
C94 O109 1.268 . S
C95 O101 1.268 . S
C95 O105 1.268 . S
C96 O102 1.268 . S
C96 O104 1.268 . S
C97 O103 1.268 . S
C97 O106 1.268 . S
O98 Sc88 2.105 . S
O98 C92 1.268 . S
O99 Sc89 2.105 . S
O99 C93 1.268 . S
O100 Sc90 2.105 . S
O100 C94 1.268 . S
O101 Sc88 2.105 . S
O101 C95 1.268 . S
O102 Sc90 2.105 . S
O102 C96 1.268 . S
O103 Sc89 2.105 . S
O103 C97 1.268 . S
O104 Sc88 2.105 . S
O104 C96 1.268 . S
O105 Sc89 2.105 . S
O105 C95 1.268 . S
O106 Sc90 2.105 . S
O106 C97 1.268 . S
O107 Sc88 2.105 . S
O107 C93 1.268 . S
O108 Sc90 2.105 . S
O108 C92 1.268 . S
O109 Sc89 2.105 . S
O109 C94 1.268 . S
Sc110 O113 2.025 . S
Sc110 O120 2.105 . S
Sc110 O123 2.105 . S
Sc110 O126 2.105 . S
Sc110 O129 2.105 . S
Sc111 O113 2.025 . S
Sc111 O121 2.105 . S
Sc111 O125 2.105 . S
Sc111 O127 2.105 . S
Sc111 O131 2.105 . S
Sc112 O113 2.025 . S
Sc112 O122 2.105 . S
Sc112 O124 2.105 . S
Sc112 O128 2.105 . S
Sc112 O130 2.105 . S
O113 Sc110 2.025 . S
O113 Sc111 2.025 . S
O113 Sc112 2.025 . S
C114 O120 1.268 . S
C114 O130 1.268 . S
C115 O121 1.268 . S
C115 O129 1.268 . S
C116 O122 1.268 . S
C116 O131 1.268 . S
C117 O123 1.268 . S
C117 O127 1.268 . S
C118 O124 1.268 . S
C118 O126 1.268 . S
C119 O125 1.268 . S
C119 O128 1.268 . S
O120 Sc110 2.105 . S
O120 C114 1.268 . S
O121 Sc111 2.105 . S
O121 C115 1.268 . S
O122 Sc112 2.105 . S
O122 C116 1.268 . S
O123 Sc110 2.105 . S
O123 C117 1.268 . S
O124 Sc112 2.105 . S
O124 C118 1.268 . S
O125 Sc111 2.105 . S
O125 C119 1.268 . S
O126 Sc110 2.105 . S
O126 C118 1.268 . S
O127 Sc111 2.105 . S
O127 C117 1.268 . S
O128 Sc112 2.105 . S
O128 C119 1.268 . S
O129 Sc110 2.105 . S
O129 C115 1.268 . S
O130 Sc112 2.105 . S
O130 C114 1.268 . S
O131 Sc111 2.105 . S
O131 C116 1.268 . S
Sc132 O135 2.025 . S
Sc132 O142 2.105 . S
Sc132 O145 2.105 . S
Sc132 O148 2.105 . S
Sc132 O151 2.105 . S
Sc133 O135 2.025 . S
Sc133 O143 2.105 . S
Sc133 O147 2.105 . S
Sc133 O149 2.105 . S
Sc133 O153 2.105 . S
Sc134 O135 2.025 . S
Sc134 O144 2.105 . S
Sc134 O146 2.105 . S
Sc134 O150 2.105 . S
Sc134 O152 2.105 . S
O135 Sc132 2.025 . S
O135 Sc133 2.025 . S
O135 Sc134 2.025 . S
C136 O142 1.268 . S
C136 O152 1.268 . S
C137 O143 1.268 . S
C137 O151 1.268 . S
C138 O144 1.268 . S
C138 O153 1.268 . S
C139 O145 1.268 . S
C139 O149 1.268 . S
C140 O146 1.268 . S
C140 O148 1.268 . S
C141 O147 1.268 . S
C141 O150 1.268 . S
O142 Sc132 2.105 . S
O142 C136 1.268 . S
O143 Sc133 2.105 . S
O143 C137 1.268 . S
O144 Sc134 2.105 . S
O144 C138 1.268 . S
O145 Sc132 2.105 . S
O145 C139 1.268 . S
O146 Sc134 2.105 . S
O146 C140 1.268 . S
O147 Sc133 2.105 . S
O147 C141 1.268 . S
O148 Sc132 2.105 . S
O148 C140 1.268 . S
O149 Sc133 2.105 . S
O149 C139 1.268 . S
O150 Sc134 2.105 . S
O150 C141 1.268 . S
O151 Sc132 2.105 . S
O151 C137 1.268 . S
O152 Sc134 2.105 . S
O152 C136 1.268 . S
O153 Sc133 2.105 . S
O153 C138 1.268 . S
Sc154 O157 2.025 . S
Sc154 O164 2.105 . S
Sc154 O167 2.105 . S
Sc154 O170 2.105 . S
Sc154 O173 2.105 . S
Sc155 O157 2.025 . S
Sc155 O165 2.105 . S
Sc155 O169 2.105 . S
Sc155 O171 2.105 . S
Sc155 O175 2.105 . S
Sc156 O157 2.025 . S
Sc156 O166 2.105 . S
Sc156 O168 2.105 . S
Sc156 O172 2.105 . S
Sc156 O174 2.105 . S
O157 Sc154 2.025 . S
O157 Sc155 2.025 . S
O157 Sc156 2.025 . S
C158 O164 1.268 . S
C158 O174 1.268 . S
C159 O165 1.268 . S
C159 O173 1.268 . S
C160 O166 1.268 . S
C160 O175 1.268 . S
C161 O167 1.268 . S
C161 O171 1.268 . S
C162 O168 1.268 . S
C162 O170 1.268 . S
C163 O169 1.268 . S
C163 O172 1.268 . S
O164 Sc154 2.105 . S
O164 C158 1.268 . S
O165 Sc155 2.105 . S
O165 C159 1.268 . S
O166 Sc156 2.105 . S
O166 C160 1.268 . S
O167 Sc154 2.105 . S
O167 C161 1.268 . S
O168 Sc156 2.105 . S
O168 C162 1.268 . S
O169 Sc155 2.105 . S
O169 C163 1.268 . S
O170 Sc154 2.105 . S
O170 C162 1.268 . S
O171 Sc155 2.105 . S
O171 C161 1.268 . S
O172 Sc156 2.105 . S
O172 C163 1.268 . S
O173 Sc154 2.105 . S
O173 C159 1.268 . S
O174 Sc156 2.105 . S
O174 C158 1.268 . S
O175 Sc155 2.105 . S
O175 C160 1.268 . S
H176 C182 0.930 . S
H177 C186 0.930 . S
H178 C191 0.929 . S
H179 C189 0.929 . S
H180 C184 0.929 . S
H181 C190 0.929 . S
C182 H176 0.930 . S
C182 C183 1.367 . S
C182 C190 1.378 . S
C183 C182 1.367 . S
C183 C191 1.433 . S
C184 H180 0.929 . S
C184 C186 1.378 . S
C184 C188 1.350 . S
C185 C188 1.463 . S
C185 C190 1.350 . S
C185 N193 1.427 . S
C186 H177 0.930 . S
C186 C184 1.378 . S
C186 C187 1.367 . S
C187 C186 1.367 . S
C187 C189 1.433 . S
C188 C184 1.350 . S
C188 C185 1.463 . S
C188 N192 1.427 . S
C189 H179 0.929 . S
C189 C187 1.433 . S
C189 N192 1.384 . S
C190 H181 0.929 . S
C190 C182 1.378 . S
C190 C185 1.350 . S
C191 H178 0.929 . S
C191 C183 1.433 . S
C191 N193 1.384 . S
N192 C188 1.427 . S
N192 C189 1.384 . S
N193 C185 1.427 . S
N193 C191 1.384 . S
H194 C200 0.930 . S
H195 C204 0.930 . S
H196 C209 0.929 . S
H197 C207 0.929 . S
H198 C202 0.929 . S
H199 C208 0.929 . S
C200 H194 0.930 . S
C200 C201 1.367 . S
C200 C208 1.378 . S
C201 C200 1.367 . S
C201 C209 1.433 . S
C202 H198 0.929 . S
C202 C204 1.378 . S
C202 C206 1.350 . S
C203 C206 1.463 . S
C203 C208 1.350 . S
C203 N211 1.427 . S
C204 H195 0.930 . S
C204 C202 1.378 . S
C204 C205 1.367 . S
C205 C204 1.367 . S
C205 C207 1.433 . S
C206 C202 1.350 . S
C206 C203 1.463 . S
C206 N210 1.427 . S
C207 H197 0.929 . S
C207 C205 1.433 . S
C207 N210 1.384 . S
C208 H199 0.929 . S
C208 C200 1.378 . S
C208 C203 1.350 . S
C209 H196 0.929 . S
C209 C201 1.433 . S
C209 N211 1.384 . S
N210 C206 1.427 . S
N210 C207 1.384 . S
N211 C203 1.427 . S
N211 C209 1.384 . S
H212 C218 0.930 . S
H213 C222 0.930 . S
H214 C227 0.929 . S
H215 C225 0.929 . S
H216 C220 0.929 . S
H217 C226 0.929 . S
C218 H212 0.930 . S
C218 C219 1.367 . S
C218 C226 1.378 . S
C219 C218 1.367 . S
C219 C227 1.433 . S
C220 H216 0.929 . S
C220 C222 1.378 . S
C220 C224 1.350 . S
C221 C224 1.463 . S
C221 C226 1.350 . S
C221 N229 1.427 . S
C222 H213 0.930 . S
C222 C220 1.378 . S
C222 C223 1.367 . S
C223 C222 1.367 . S
C223 C225 1.433 . S
C224 C220 1.350 . S
C224 C221 1.463 . S
C224 N228 1.427 . S
C225 H215 0.929 . S
C225 C223 1.433 . S
C225 N228 1.384 . S
C226 H217 0.929 . S
C226 C218 1.378 . S
C226 C221 1.350 . S
C227 H214 0.929 . S
C227 C219 1.433 . S
C227 N229 1.384 . S
N228 C224 1.427 . S
N228 C225 1.384 . S
N229 C221 1.427 . S
N229 C227 1.384 . S
H230 C236 0.930 . S
H231 C240 0.930 . S
H232 C245 0.929 . S
H233 C243 0.929 . S
H234 C238 0.929 . S
H235 C244 0.929 . S
C236 H230 0.930 . S
C236 C237 1.367 . S
C236 C244 1.378 . S
C237 C236 1.367 . S
C237 C245 1.433 . S
C238 H234 0.929 . S
C238 C240 1.378 . S
C238 C242 1.350 . S
C239 C242 1.463 . S
C239 C244 1.350 . S
C239 N247 1.427 . S
C240 H231 0.930 . S
C240 C238 1.378 . S
C240 C241 1.367 . S
C241 C240 1.367 . S
C241 C243 1.433 . S
C242 C238 1.350 . S
C242 C239 1.463 . S
C242 N246 1.427 . S
C243 H233 0.929 . S
C243 C241 1.433 . S
C243 N246 1.384 . S
C244 H235 0.929 . S
C244 C236 1.378 . S
C244 C239 1.350 . S
C245 H232 0.929 . S
C245 C237 1.433 . S
C245 N247 1.384 . S
N246 C242 1.427 . S
N246 C243 1.384 . S
N247 C239 1.427 . S
N247 C245 1.384 . S
H248 C254 0.930 . S
H249 C258 0.930 . S
H250 C263 0.929 . S
H251 C261 0.929 . S
H252 C256 0.929 . S
H253 C262 0.929 . S
C254 H248 0.930 . S
C254 C255 1.367 . S
C254 C262 1.378 . S
C255 C254 1.367 . S
C255 C263 1.433 . S
C256 H252 0.929 . S
C256 C258 1.378 . S
C256 C260 1.350 . S
C257 C260 1.463 . S
C257 C262 1.350 . S
C257 N265 1.427 . S
C258 H249 0.930 . S
C258 C256 1.378 . S
C258 C259 1.367 . S
C259 C258 1.367 . S
C259 C261 1.433 . S
C260 C256 1.350 . S
C260 C257 1.463 . S
C260 N264 1.427 . S
C261 H251 0.929 . S
C261 C259 1.433 . S
C261 N264 1.384 . S
C262 H253 0.929 . S
C262 C254 1.378 . S
C262 C257 1.350 . S
C263 H250 0.929 . S
C263 C255 1.433 . S
C263 N265 1.384 . S
N264 C260 1.427 . S
N264 C261 1.384 . S
N265 C257 1.427 . S
N265 C263 1.384 . S
H266 C272 0.930 . S
H267 C276 0.930 . S
H268 C281 0.929 . S
H269 C279 0.929 . S
H270 C274 0.929 . S
H271 C280 0.929 . S
C272 H266 0.930 . S
C272 C273 1.367 . S
C272 C280 1.378 . S
C273 C272 1.367 . S
C273 C281 1.433 . S
C274 H270 0.929 . S
C274 C276 1.378 . S
C274 C278 1.350 . S
C275 C278 1.463 . S
C275 C280 1.350 . S
C275 N283 1.427 . S
C276 H267 0.930 . S
C276 C274 1.378 . S
C276 C277 1.367 . S
C277 C276 1.367 . S
C277 C279 1.433 . S
C278 C274 1.350 . S
C278 C275 1.463 . S
C278 N282 1.427 . S
C279 H269 0.929 . S
C279 C277 1.433 . S
C279 N282 1.384 . S
C280 H271 0.929 . S
C280 C272 1.378 . S
C280 C275 1.350 . S
C281 H268 0.929 . S
C281 C273 1.433 . S
C281 N283 1.384 . S
N282 C278 1.427 . S
N282 C279 1.384 . S
N283 C275 1.427 . S
N283 C281 1.384 . S
H284 C290 0.930 . S
H285 C294 0.930 . S
H286 C299 0.929 . S
H287 C297 0.929 . S
H288 C292 0.929 . S
H289 C298 0.929 . S
C290 H284 0.930 . S
C290 C291 1.367 . S
C290 C298 1.378 . S
C291 C290 1.367 . S
C291 C299 1.433 . S
C292 H288 0.929 . S
C292 C294 1.378 . S
C292 C296 1.350 . S
C293 C296 1.463 . S
C293 C298 1.350 . S
C293 N301 1.427 . S
C294 H285 0.930 . S
C294 C292 1.378 . S
C294 C295 1.367 . S
C295 C294 1.367 . S
C295 C297 1.433 . S
C296 C292 1.350 . S
C296 C293 1.463 . S
C296 N300 1.427 . S
C297 H287 0.929 . S
C297 C295 1.433 . S
C297 N300 1.384 . S
C298 H289 0.929 . S
C298 C290 1.378 . S
C298 C293 1.350 . S
C299 H286 0.929 . S
C299 C291 1.433 . S
C299 N301 1.384 . S
N300 C296 1.427 . S
N300 C297 1.384 . S
N301 C293 1.427 . S
N301 C299 1.384 . S
H302 C308 0.930 . S
H303 C312 0.930 . S
H304 C317 0.929 . S
H305 C315 0.929 . S
H306 C310 0.929 . S
H307 C316 0.929 . S
C308 H302 0.930 . S
C308 C309 1.367 . S
C308 C316 1.378 . S
C309 C308 1.367 . S
C309 C317 1.433 . S
C310 H306 0.929 . S
C310 C312 1.378 . S
C310 C314 1.350 . S
C311 C314 1.463 . S
C311 C316 1.350 . S
C311 N319 1.427 . S
C312 H303 0.930 . S
C312 C310 1.378 . S
C312 C313 1.367 . S
C313 C312 1.367 . S
C313 C315 1.433 . S
C314 C310 1.350 . S
C314 C311 1.463 . S
C314 N318 1.427 . S
C315 H305 0.929 . S
C315 C313 1.433 . S
C315 N318 1.384 . S
C316 H307 0.929 . S
C316 C308 1.378 . S
C316 C311 1.350 . S
C317 H304 0.929 . S
C317 C309 1.433 . S
C317 N319 1.384 . S
N318 C314 1.427 . S
N318 C315 1.384 . S
N319 C311 1.427 . S
N319 C317 1.384 . S
H320 C326 0.930 . S
H321 C330 0.930 . S
H322 C335 0.929 . S
H323 C333 0.929 . S
H324 C328 0.929 . S
H325 C334 0.929 . S
C326 H320 0.930 . S
C326 C327 1.367 . S
C326 C334 1.378 . S
C327 C326 1.367 . S
C327 C335 1.433 . S
C328 H324 0.929 . S
C328 C330 1.378 . S
C328 C332 1.350 . S
C329 C332 1.463 . S
C329 C334 1.350 . S
C329 N337 1.427 . S
C330 H321 0.930 . S
C330 C328 1.378 . S
C330 C331 1.367 . S
C331 C330 1.367 . S
C331 C333 1.433 . S
C332 C328 1.350 . S
C332 C329 1.463 . S
C332 N336 1.427 . S
C333 H323 0.929 . S
C333 C331 1.433 . S
C333 N336 1.384 . S
C334 H325 0.929 . S
C334 C326 1.378 . S
C334 C329 1.350 . S
C335 H322 0.929 . S
C335 C327 1.433 . S
C335 N337 1.384 . S
N336 C332 1.427 . S
N336 C333 1.384 . S
N337 C329 1.427 . S
N337 C335 1.384 . S
H338 C344 0.930 . S
H339 C348 0.930 . S
H340 C353 0.929 . S
H341 C351 0.929 . S
H342 C346 0.929 . S
H343 C352 0.929 . S
C344 H338 0.930 . S
C344 C345 1.367 . S
C344 C352 1.378 . S
C345 C344 1.367 . S
C345 C353 1.433 . S
C346 H342 0.929 . S
C346 C348 1.378 . S
C346 C350 1.350 . S
C347 C350 1.463 . S
C347 C352 1.350 . S
C347 N355 1.427 . S
C348 H339 0.930 . S
C348 C346 1.378 . S
C348 C349 1.367 . S
C349 C348 1.367 . S
C349 C351 1.433 . S
C350 C346 1.350 . S
C350 C347 1.463 . S
C350 N354 1.427 . S
C351 H341 0.929 . S
C351 C349 1.433 . S
C351 N354 1.384 . S
C352 H343 0.929 . S
C352 C344 1.378 . S
C352 C347 1.350 . S
C353 H340 0.929 . S
C353 C345 1.433 . S
C353 N355 1.384 . S
N354 C350 1.427 . S
N354 C351 1.384 . S
N355 C347 1.427 . S
N355 C353 1.384 . S
H356 C362 0.930 . S
H357 C366 0.930 . S
H358 C371 0.929 . S
H359 C369 0.929 . S
H360 C364 0.929 . S
H361 C370 0.929 . S
C362 H356 0.930 . S
C362 C363 1.367 . S
C362 C370 1.378 . S
C363 C362 1.367 . S
C363 C371 1.433 . S
C364 H360 0.929 . S
C364 C366 1.378 . S
C364 C368 1.350 . S
C365 C368 1.463 . S
C365 C370 1.350 . S
C365 N373 1.427 . S
C366 H357 0.930 . S
C366 C364 1.378 . S
C366 C367 1.367 . S
C367 C366 1.367 . S
C367 C369 1.433 . S
C368 C364 1.350 . S
C368 C365 1.463 . S
C368 N372 1.427 . S
C369 H359 0.929 . S
C369 C367 1.433 . S
C369 N372 1.384 . S
C370 H361 0.929 . S
C370 C362 1.378 . S
C370 C365 1.350 . S
C371 H358 0.929 . S
C371 C363 1.433 . S
C371 N373 1.384 . S
N372 C368 1.427 . S
N372 C369 1.384 . S
N373 C365 1.427 . S
N373 C371 1.384 . S
H374 C380 0.930 . S
H375 C384 0.930 . S
H376 C389 0.929 . S
H377 C387 0.929 . S
H378 C382 0.929 . S
H379 C388 0.929 . S
C380 H374 0.930 . S
C380 C381 1.367 . S
C380 C388 1.378 . S
C381 C380 1.367 . S
C381 C389 1.433 . S
C382 H378 0.929 . S
C382 C384 1.378 . S
C382 C386 1.350 . S
C383 C386 1.463 . S
C383 C388 1.350 . S
C383 N391 1.427 . S
C384 H375 0.930 . S
C384 C382 1.378 . S
C384 C385 1.367 . S
C385 C384 1.367 . S
C385 C387 1.433 . S
C386 C382 1.350 . S
C386 C383 1.463 . S
C386 N390 1.427 . S
C387 H377 0.929 . S
C387 C385 1.433 . S
C387 N390 1.384 . S
C388 H379 0.929 . S
C388 C380 1.378 . S
C388 C383 1.350 . S
C389 H376 0.929 . S
C389 C381 1.433 . S
C389 N391 1.384 . S
N390 C386 1.427 . S
N390 C387 1.384 . S
N391 C383 1.427 . S
N391 C389 1.384 . S
H392 C398 0.930 . S
H393 C402 0.930 . S
H394 C407 0.929 . S
H395 C405 0.929 . S
H396 C400 0.929 . S
H397 C406 0.929 . S
C398 H392 0.930 . S
C398 C399 1.367 . S
C398 C406 1.378 . S
C399 C398 1.367 . S
C399 C407 1.433 . S
C400 H396 0.929 . S
C400 C402 1.378 1_556 S
C400 C404 1.350 . S
C401 C404 1.463 . S
C401 C406 1.350 . S
C401 N409 1.427 . S
C402 H393 0.930 . S
C402 C400 1.378 1_554 S
C402 C403 1.367 . S
C403 C402 1.367 . S
C403 C405 1.433 . S
C404 C400 1.350 . S
C404 C401 1.463 . S
C404 N408 1.427 1_556 S
C405 H395 0.929 . S
C405 C403 1.433 . S
C405 N408 1.384 . S
C406 H397 0.929 . S
C406 C398 1.378 . S
C406 C401 1.350 . S
C407 H394 0.929 . S
C407 C399 1.433 . S
C407 N409 1.384 . S
N408 C404 1.427 1_554 S
N408 C405 1.384 . S
N409 C401 1.427 . S
N409 C407 1.384 . S
H410 C416 0.930 . S
H411 C420 0.930 . S
H412 C425 0.929 . S
H413 C423 0.929 . S
H414 C418 0.929 . S
H415 C424 0.929 . S
C416 H410 0.930 . S
C416 C417 1.367 . S
C416 C424 1.378 . S
C417 C416 1.367 . S
C417 C425 1.433 1_556 S
C418 H414 0.929 . S
C418 C420 1.378 . S
C418 C422 1.350 . S
C419 C422 1.463 . S
C419 C424 1.350 1_554 S
C419 N427 1.427 . S
C420 H411 0.930 . S
C420 C418 1.378 . S
C420 C421 1.367 . S
C421 C420 1.367 . S
C421 C423 1.433 . S
C422 C418 1.350 . S
C422 C419 1.463 . S
C422 N426 1.427 . S
C423 H413 0.929 . S
C423 C421 1.433 . S
C423 N426 1.384 . S
C424 H415 0.929 . S
C424 C416 1.378 . S
C424 C419 1.350 1_556 S
C425 H412 0.929 . S
C425 C417 1.433 1_554 S
C425 N427 1.384 . S
N426 C422 1.427 . S
N426 C423 1.384 . S
N427 C419 1.427 . S
N427 C425 1.384 . S
H428 C434 0.930 . S
H429 C438 0.930 . S
H430 C443 0.929 . S
H431 C441 0.929 . S
H432 C436 0.929 . S
H433 C442 0.929 . S
C434 H428 0.930 . S
C434 C435 1.367 . S
C434 C442 1.378 . S
C435 C434 1.367 . S
C435 C443 1.433 1_554 S
C436 H432 0.929 . S
C436 C438 1.378 . S
C436 C440 1.350 . S
C437 C440 1.463 . S
C437 C442 1.350 1_556 S
C437 N445 1.427 . S
C438 H429 0.930 . S
C438 C436 1.378 . S
C438 C439 1.367 . S
C439 C438 1.367 . S
C439 C441 1.433 . S
C440 C436 1.350 . S
C440 C437 1.463 . S
C440 N444 1.427 . S
C441 H431 0.929 . S
C441 C439 1.433 . S
C441 N444 1.384 . S
C442 H433 0.929 . S
C442 C434 1.378 . S
C442 C437 1.350 1_554 S
C443 H430 0.929 . S
C443 C435 1.433 1_556 S
C443 N445 1.384 . S
N444 C440 1.427 . S
N444 C441 1.384 . S
N445 C437 1.427 . S
N445 C443 1.384 . S
H446 C452 0.930 . S
H447 C456 0.930 . S
H448 C461 0.929 . S
H449 C459 0.929 . S
H450 C454 0.929 . S
H451 C460 0.929 . S
C452 H446 0.930 . S
C452 C453 1.367 . S
C452 C460 1.378 . S
C453 C452 1.367 . S
C453 C461 1.433 . S
C454 H450 0.929 . S
C454 C456 1.378 . S
C454 C458 1.350 . S
C455 C458 1.463 . S
C455 C460 1.350 1_554 S
C455 N463 1.427 . S
C456 H447 0.930 . S
C456 C454 1.378 . S
C456 C457 1.367 . S
C457 C456 1.367 . S
C457 C459 1.433 . S
C458 C454 1.350 . S
C458 C455 1.463 . S
C458 N462 1.427 . S
C459 H449 0.929 . S
C459 C457 1.433 . S
C459 N462 1.384 . S
C460 H451 0.929 . S
C460 C452 1.378 . S
C460 C455 1.350 1_556 S
C461 H448 0.929 . S
C461 C453 1.433 . S
C461 N463 1.384 1_556 S
N462 C458 1.427 . S
N462 C459 1.384 . S
N463 C455 1.427 . S
N463 C461 1.384 1_554 S
H464 C470 0.930 . S
H465 C474 0.930 . S
H466 C479 0.929 . S
H467 C477 0.929 . S
H468 C472 0.929 . S
H469 C478 0.929 . S
C470 H464 0.930 . S
C470 C471 1.367 . S
C470 C478 1.378 . S
C471 C470 1.367 . S
C471 C479 1.433 . S
C472 H468 0.929 . S
C472 C474 1.378 . S
C472 C476 1.350 . S
C473 C476 1.463 . S
C473 C478 1.350 . S
C473 N481 1.427 . S
C474 H465 0.930 . S
C474 C472 1.378 . S
C474 C475 1.367 . S
C475 C474 1.367 . S
C475 C477 1.433 . S
C476 C472 1.350 . S
C476 C473 1.463 . S
C476 N480 1.427 . S
C477 H467 0.929 . S
C477 C475 1.433 . S
C477 N480 1.384 . S
C478 H469 0.929 . S
C478 C470 1.378 . S
C478 C473 1.350 . S
C479 H466 0.929 . S
C479 C471 1.433 . S
C479 N481 1.384 . S
N480 C476 1.427 . S
N480 C477 1.384 . S
N481 C473 1.427 . S
N481 C479 1.384 . S
H482 C488 0.930 . S
H483 C492 0.930 . S
H484 C497 0.929 . S
H485 C495 0.929 . S
H486 C490 0.929 . S
H487 C496 0.929 . S
C488 H482 0.930 . S
C488 C489 1.367 . S
C488 C496 1.378 . S
C489 C488 1.367 . S
C489 C497 1.433 . S
C490 H486 0.929 . S
C490 C492 1.378 . S
C490 C494 1.350 . S
C491 C494 1.463 . S
C491 C496 1.350 . S
C491 N499 1.427 . S
C492 H483 0.930 . S
C492 C490 1.378 . S
C492 C493 1.367 . S
C493 C492 1.367 . S
C493 C495 1.433 . S
C494 C490 1.350 . S
C494 C491 1.463 . S
C494 N498 1.427 . S
C495 H485 0.929 . S
C495 C493 1.433 . S
C495 N498 1.384 . S
C496 H487 0.929 . S
C496 C488 1.378 . S
C496 C491 1.350 . S
C497 H484 0.929 . S
C497 C489 1.433 . S
C497 N499 1.384 . S
N498 C494 1.427 . S
N498 C495 1.384 . S
N499 C491 1.427 . S
N499 C497 1.384 . S
H500 C506 0.930 . S
H501 C510 0.930 . S
H502 C515 0.929 . S
H503 C513 0.929 . S
H504 C508 0.929 . S
H505 C514 0.929 . S
C506 H500 0.930 . S
C506 C507 1.367 . S
C506 C514 1.378 . S
C507 C506 1.367 . S
C507 C515 1.433 . S
C508 H504 0.929 . S
C508 C510 1.378 . S
C508 C512 1.350 . S
C509 C512 1.463 . S
C509 C514 1.350 . S
C509 N517 1.427 . S
C510 H501 0.930 . S
C510 C508 1.378 . S
C510 C511 1.367 . S
C511 C510 1.367 . S
C511 C513 1.433 . S
C512 C508 1.350 . S
C512 C509 1.463 . S
C512 N516 1.427 . S
C513 H503 0.929 . S
C513 C511 1.433 . S
C513 N516 1.384 . S
C514 H505 0.929 . S
C514 C506 1.378 . S
C514 C509 1.350 . S
C515 H502 0.929 . S
C515 C507 1.433 . S
C515 N517 1.384 . S
N516 C512 1.427 . S
N516 C513 1.384 . S
N517 C509 1.427 . S
N517 C515 1.384 . S
H518 C524 0.930 . S
H519 C528 0.930 . S
H520 C533 0.929 . S
H521 C531 0.929 . S
H522 C526 0.929 . S
H523 C532 0.929 . S
C524 H518 0.930 . S
C524 C525 1.367 . S
C524 C532 1.378 . S
C525 C524 1.367 . S
C525 C533 1.433 . S
C526 H522 0.929 . S
C526 C528 1.378 . S
C526 C530 1.350 . S
C527 C530 1.463 . S
C527 C532 1.350 . S
C527 N535 1.427 . S
C528 H519 0.930 . S
C528 C526 1.378 . S
C528 C529 1.367 . S
C529 C528 1.367 . S
C529 C531 1.433 . S
C530 C526 1.350 . S
C530 C527 1.463 . S
C530 N534 1.427 . S
C531 H521 0.929 . S
C531 C529 1.433 . S
C531 N534 1.384 . S
C532 H523 0.929 . S
C532 C524 1.378 . S
C532 C527 1.350 . S
C533 H520 0.929 . S
C533 C525 1.433 . S
C533 N535 1.384 . S
N534 C530 1.427 . S
N534 C531 1.384 . S
N535 C527 1.427 . S
N535 C533 1.384 . S
H536 C542 0.930 . S
H537 C546 0.930 . S
H538 C551 0.929 . S
H539 C549 0.929 . S
H540 C544 0.929 1_545 S
H541 C550 0.929 1_565 S
C542 H536 0.930 . S
C542 C543 1.367 . S
C542 C550 1.378 . S
C543 C542 1.367 . S
C543 C551 1.433 . S
C544 H540 0.929 1_565 S
C544 C546 1.378 . S
C544 C548 1.350 . S
C545 C548 1.463 1_545 S
C545 C550 1.350 . S
C545 N553 1.427 . S
C546 H537 0.930 . S
C546 C544 1.378 . S
C546 C547 1.367 . S
C547 C546 1.367 . S
C547 C549 1.433 . S
C548 C544 1.350 . S
C548 C545 1.463 1_565 S
C548 N552 1.427 . S
C549 H539 0.929 . S
C549 C547 1.433 . S
C549 N552 1.384 . S
C550 H541 0.929 1_545 S
C550 C542 1.378 . S
C550 C545 1.350 . S
C551 H538 0.929 . S
C551 C543 1.433 . S
C551 N553 1.384 . S
N552 C548 1.427 . S
N552 C549 1.384 . S
N553 C545 1.427 . S
N553 C551 1.384 . S
H554 C560 0.930 . S
H555 C564 0.930 . S
H556 C569 0.929 . S
H557 C567 0.929 . S
H558 C562 0.929 . S
H559 C568 0.929 . S
C560 H554 0.930 . S
C560 C561 1.367 . S
C560 C568 1.378 . S
C561 C560 1.367 . S
C561 C569 1.433 . S
C562 H558 0.929 . S
C562 C564 1.378 . S
C562 C566 1.350 . S
C563 C566 1.463 1_655 S
C563 C568 1.350 . S
C563 N571 1.427 . S
C564 H555 0.930 . S
C564 C562 1.378 . S
C564 C565 1.367 . S
C565 C564 1.367 . S
C565 C567 1.433 . S
C566 C562 1.350 . S
C566 C563 1.463 1_455 S
C566 N570 1.427 . S
C567 H557 0.929 . S
C567 C565 1.433 . S
C567 N570 1.384 . S
C568 H559 0.929 . S
C568 C560 1.378 . S
C568 C563 1.350 . S
C569 H556 0.929 . S
C569 C561 1.433 . S
C569 N571 1.384 . S
N570 C566 1.427 . S
N570 C567 1.384 . S
N571 C563 1.427 . S
N571 C569 1.384 . S
H572 C578 0.930 . S
H573 C582 0.930 . S
H574 C587 0.929 . S
H575 C585 0.929 . S
H576 C580 0.929 . S
H577 C586 0.929 . S
C578 H572 0.930 . S
C578 C579 1.367 . S
C578 C586 1.378 . S
C579 C578 1.367 . S
C579 C587 1.433 . S
C580 H576 0.929 . S
C580 C582 1.378 . S
C580 C584 1.350 . S
C581 C584 1.463 1_565 S
C581 C586 1.350 . S
C581 N589 1.427 . S
C582 H573 0.930 . S
C582 C580 1.378 . S
C582 C583 1.367 . S
C583 C582 1.367 . S
C583 C585 1.433 . S
C584 C580 1.350 . S
C584 C581 1.463 1_545 S
C584 N588 1.427 . S
C585 H575 0.929 . S
C585 C583 1.433 . S
C585 N588 1.384 . S
C586 H577 0.929 . S
C586 C578 1.378 . S
C586 C581 1.350 . S
C587 H574 0.929 . S
C587 C579 1.433 . S
C587 N589 1.384 . S
N588 C584 1.427 . S
N588 C585 1.384 . S
N589 C581 1.427 . S
N589 C587 1.384 . S
H590 C596 0.930 . S
H591 C600 0.930 . S
H592 C605 0.929 . S
H593 C603 0.929 . S
H594 C598 0.929 . S
H595 C604 0.929 . S
C596 H590 0.930 . S
C596 C597 1.367 . S
C596 C604 1.378 . S
C597 C596 1.367 . S
C597 C605 1.433 . S
C598 H594 0.929 . S
C598 C600 1.378 . S
C598 C602 1.350 . S
C599 C602 1.463 1_655 S
C599 C604 1.350 . S
C599 N607 1.427 . S
C600 H591 0.930 . S
C600 C598 1.378 . S
C600 C601 1.367 . S
C601 C600 1.367 . S
C601 C603 1.433 . S
C602 C598 1.350 . S
C602 C599 1.463 1_455 S
C602 N606 1.427 . S
C603 H593 0.929 . S
C603 C601 1.433 . S
C603 N606 1.384 . S
C604 H595 0.929 . S
C604 C596 1.378 . S
C604 C599 1.350 . S
C605 H592 0.929 . S
C605 C597 1.433 . S
C605 N607 1.384 . S
N606 C602 1.427 . S
N606 C603 1.384 . S
N607 C599 1.427 . S
N607 C605 1.384 . S
C183 C116 1.196 . S
C187 C7 1.213 . S
C201 C27 1.221 . S
C205 C141 1.208 . S
C219 C160 1.213 . S
C223 C51 1.196 . S
C237 C71 1.196 . S
C241 C97 1.210 . S
C255 C96 1.448 . S
C259 C6 1.457 . S
C273 C31 1.458 . S
C277 C114 1.447 . S
C291 C50 1.456 . S
C295 C140 1.453 . S
C309 C158 1.450 . S
C313 C75 1.457 . S
C327 C8 1.452 . S
C331 C93 1.456 . S
C345 C117 1.457 . S
C349 C26 1.450 . S
C363 C52 1.452 . S
C367 C137 1.456 . S
C381 C70 1.452 . S
C385 C161 1.457 . S
C399 C30 1.022 . S
C403 C5 1.023 . S
C417 C29 1.010 . S
C421 C48 1.025 . S
C435 C49 1.016 . S
C439 C74 1.019 . S
C453 C73 1.018 . S
C457 C4 1.019 . S
C471 C94 1.011 . S
C475 C162 1.020 . S
C489 C92 1.023 . S
C493 C119 1.024 . S
C507 C138 1.010 . S
C511 C118 1.022 . S
C525 C163 1.012 . S
C529 C136 1.020 . S
C543 C9 1.576 . S
C547 C53 1.567 . S
C561 C72 1.574 . S
C565 C28 1.563 . S
C579 C139 1.556 . S
C583 C95 1.567 . S
C597 C159 1.571 . S
C601 C115 1.559 . S
