# Generated by pormake.
# Topology uoc, (4)-cn, num edge types: 1
# Building blocks:
#     Node 0, Type 0, BuildingBlock: ICAMEG_clean_sbu_1, # of connection points: 4
#     Node 1, Type 0, BuildingBlock: ICAMEG_clean_sbu_1, # of connection points: 4
#     Node 2, Type 0, BuildingBlock: ICAMEG_clean_sbu_1, # of connection points: 4
#     Node 3, Type 0, BuildingBlock: ICAMEG_clean_sbu_1, # of connection points: 4
#     Node 4, Type 0, BuildingBlock: ICAMEG_clean_sbu_1, # of connection points: 4
#     Node 5, Type 0, BuildingBlock: ICAMEG_clean_sbu_1, # of connection points: 4
#     Node 6, Type 0, BuildingBlock: ICAMEG_clean_sbu_1, # of connection points: 4
#     Node 7, Type 0, BuildingBlock: ICAMEG_clean_sbu_1, # of connection points: 4
#     Edge 8, Type (0, 0), BuildingBlock: ZUJKAS_clean_linker_0, # of connection points: 2
#     Edge 9, Type (0, 0), BuildingBlock: ZUJKAS_clean_linker_0, # of connection points: 2
#     Edge 10, Type (0, 0), BuildingBlock: ZUJKAS_clean_linker_0, # of connection points: 2
#     Edge 11, Type (0, 0), BuildingBlock: ZUJKAS_clean_linker_0, # of connection points: 2
#     Edge 12, Type (0, 0), BuildingBlock: ZUJKAS_clean_linker_0, # of connection points: 2
#     Edge 13, Type (0, 0), BuildingBlock: ZUJKAS_clean_linker_0, # of connection points: 2
#     Edge 14, Type (0, 0), BuildingBlock: ZUJKAS_clean_linker_0, # of connection points: 2
#     Edge 15, Type (0, 0), BuildingBlock: ZUJKAS_clean_linker_0, # of connection points: 2
#     Edge 16, Type (0, 0), BuildingBlock: ZUJKAS_clean_linker_0, # of connection points: 2
#     Edge 17, Type (0, 0), BuildingBlock: ZUJKAS_clean_linker_0, # of connection points: 2
#     Edge 18, Type (0, 0), BuildingBlock: ZUJKAS_clean_linker_0, # of connection points: 2
#     Edge 19, Type (0, 0), BuildingBlock: ZUJKAS_clean_linker_0, # of connection points: 2
#     Edge 20, Type (0, 0), BuildingBlock: ZUJKAS_clean_linker_0, # of connection points: 2
#     Edge 21, Type (0, 0), BuildingBlock: ZUJKAS_clean_linker_0, # of connection points: 2
#     Edge 22, Type (0, 0), BuildingBlock: ZUJKAS_clean_linker_0, # of connection points: 2
#     Edge 23, Type (0, 0), BuildingBlock: ZUJKAS_clean_linker_0, # of connection points: 2
# Relax obj value: 0.092
# Max RMSD: 0.103
# Mean RMSD: 0.103
data_MOF--net-uoc--node1-ICAMEG_clean_sbu_1--edge1-ZUJKAS_clean_linker_0
_symmetry_space_group_name_H-M    P1
_symmetry_Int_Tables_number       1
_symmetry_cell_setting            triclinic
loop_
_symmetry_equiv_pos_as_xyz
'x, y, z'
_cell_length_a     36.459338
_cell_length_b     36.461122
_cell_length_c     75.722486
_cell_angle_alpha  89.993084
_cell_angle_beta   89.957584
_cell_angle_gamma 99.533161
loop_
_atom_site_label
_atom_site_type_symbol
_atom_site_fract_x
_atom_site_fract_y
_atom_site_fract_z
_atom_type_partial_charge
Co0 Co 0.14605 0.24786 0.12576 0.0
Co1 Co 0.05741 0.24814 0.11005 0.0
O2 O 0.1012 0.27057 0.12355 0.0
C3 C 0.12603 0.26147 0.16285 0.0
O4 O 0.09149 0.24772 0.15882 0.0
C5 C 0.07288 0.32569 0.09656 0.0
O6 O 0.10827 0.32302 0.09533 0.0
O7 O 0.08855 0.24319 0.08885 0.0
O8 O 0.1422 0.2314 0.10041 0.0
H9 H 0.98492 0.1542 0.0693 0.0
H10 H 0.14766 0.32635 0.13623 0.0
O11 O 0.15136 0.26386 0.15111 0.0
H12 H 0.24304 0.33004 0.08977 0.0
H13 H 0.2762 0.24233 0.14653 0.0
H14 H 0.16781 0.17712 0.11378 0.0
H15 H 0.20707 0.27025 0.09962 0.0
H16 H 0.21968 0.27067 0.14318 0.0
O17 O 0.04944 0.29832 0.10205 0.0
H18 H 0.03958 0.18237 0.08666 0.0
H19 H 0.98189 0.26754 0.10443 0.0
H20 H 0.22391 0.14791 0.11666 0.0
H21 H 0.18324 0.38678 0.12691 0.0
H22 H 0.27861 0.18057 0.13314 0.0
H23 H 0.23124 0.38888 0.10348 0.0
O24 O 0.11605 0.1996 0.1334 0.0
H25 H 0.01414 0.31519 0.16207 0.0
H26 H 0.99887 0.19655 0.12948 0.0
H27 H 0.96162 0.20144 0.1563 0.0
H28 H 0.96909 0.26111 0.17278 0.0
H29 H 0.05116 0.30898 0.13528 0.0
H30 H 0.9267 0.24046 0.08715 0.0
H31 H 0.92795 0.1833 0.06947 0.0
O32 O 0.06349 0.19746 0.11779 0.0
C33 C 0.12031 0.23311 0.08736 0.0
C34 C 0.984 0.17906 0.07698 0.0
C35 C 0.95134 0.22751 0.08698 0.0
N36 N 0.01388 0.22645 0.09662 0.0
C37 C 0.01484 0.19509 0.08687 0.0
C38 C 0.98272 0.24277 0.0967 0.0
C39 C 0.95206 0.19542 0.07707 0.0
C40 C 0.1687 0.32703 0.12611 0.0
N41 N 0.17525 0.29481 0.11845 0.0
C42 C 0.18867 0.36134 0.12085 0.0
C43 C 0.21556 0.3625 0.10769 0.0
C44 C 0.22216 0.3295 0.09997 0.0
C45 C 0.20159 0.29572 0.10555 0.0
C46 C 0.25257 0.22784 0.1393 0.0
C47 C 0.1916 0.19159 0.12088 0.0
C48 C 0.22046 0.24371 0.13739 0.0
N49 N 0.19059 0.22566 0.12819 0.0
C50 C 0.22324 0.17488 0.12251 0.0
C51 C 0.25391 0.1932 0.13177 0.0
C52 C 0.08486 0.18254 0.12781 0.0
C53 C 0.01055 0.28908 0.15497 0.0
C54 C 0.00239 0.22259 0.1366 0.0
C55 C 0.98114 0.22521 0.15176 0.0
C56 C 0.98532 0.25871 0.16099 0.0
N57 N 0.02708 0.25251 0.13077 0.0
C58 C 0.0313 0.28546 0.13974 0.0
Co59 Co 0.74857 0.65622 0.37837 0.0
Co60 Co 0.75796 0.5727 0.39725 0.0
O61 O 0.77575 0.61446 0.38142 0.0
C62 C 0.76238 0.6328 0.34181 0.0
O63 O 0.75116 0.59838 0.34694 0.0
C64 C 0.83939 0.59201 0.40461 0.0
O65 O 0.83872 0.62702 0.40093 0.0
O66 O 0.75649 0.60767 0.41718 0.0
O67 O 0.73368 0.6543 0.40406 0.0
H68 H 0.67552 0.50639 0.44448 0.0
H69 H 0.82684 0.66583 0.36608 0.0
O70 O 0.76284 0.65948 0.35272 0.0
H71 H 0.82416 0.76313 0.41106 0.0
H72 H 0.72945 0.78034 0.35422 0.0
H73 H 0.6756 0.67238 0.39049 0.0
H74 H 0.76699 0.71998 0.40335 0.0
H75 H 0.76366 0.72813 0.35876 0.0
O76 O 0.81005 0.56782 0.4037 0.0
H77 H 0.69793 0.55785 0.424 0.0
H78 H 0.78149 0.49961 0.40479 0.0
H79 H 0.64056 0.72413 0.38642 0.0
H80 H 0.88454 0.70885 0.37317 0.0
H81 H 0.6675 0.77861 0.36817 0.0
H82 H 0.88346 0.75782 0.39587 0.0
O83 O 0.70242 0.62136 0.37222 0.0
H84 H 0.81657 0.52192 0.34451 0.0
H85 H 0.70496 0.50894 0.38231 0.0
H86 H 0.70621 0.46679 0.35694 0.0
H87 H 0.76235 0.47308 0.33786 0.0
H88 H 0.81398 0.56379 0.3699 0.0
H89 H 0.76015 0.44765 0.42515 0.0
H90 H 0.7067 0.45077 0.44514 0.0
O91 O 0.70501 0.57523 0.39147 0.0
C92 C 0.74166 0.63695 0.41785 0.0
C93 C 0.69875 0.50464 0.43579 0.0
C94 C 0.74627 0.47169 0.42496 0.0
N95 N 0.74075 0.5316 0.41309 0.0
C96 C 0.7115 0.53365 0.42413 0.0
C97 C 0.75827 0.50123 0.41347 0.0
C98 C 0.71628 0.47346 0.43616 0.0
C99 C 0.82606 0.68733 0.37583 0.0
N100 N 0.79358 0.69034 0.38429 0.0
C101 C 0.85886 0.71149 0.37986 0.0
C102 C 0.85825 0.73891 0.39262 0.0
C103 C 0.825 0.74187 0.40117 0.0
C104 C 0.79275 0.71721 0.39681 0.0
C105 C 0.71745 0.75679 0.36223 0.0
C106 C 0.68759 0.6961 0.38262 0.0
C107 C 0.73666 0.72711 0.36482 0.0
N108 N 0.72175 0.69738 0.375 0.0
C109 C 0.66758 0.72526 0.38032 0.0
C110 C 0.6827 0.75581 0.37007 0.0
C111 C 0.68761 0.59192 0.38025 0.0
C112 C 0.79201 0.51881 0.35277 0.0
C113 C 0.72945 0.51197 0.37404 0.0
C114 C 0.73003 0.48794 0.35972 0.0
C115 C 0.76154 0.49147 0.34902 0.0
N116 N 0.75945 0.53872 0.37763 0.0
C117 C 0.79046 0.54232 0.36722 0.0
Co118 Co 0.34687 0.24903 0.62781 0.0
Co119 Co 0.43313 0.23869 0.61164 0.0
O120 O 0.38826 0.22114 0.62545 0.0
C121 C 0.36741 0.23576 0.66484 0.0
O122 O 0.40208 0.24805 0.66039 0.0
C123 C 0.40925 0.161 0.59883 0.0
O124 O 0.37412 0.1643 0.60048 0.0
O125 O 0.40262 0.24719 0.59073 0.0
O126 O 0.35094 0.26376 0.60227 0.0
H127 H 0.51316 0.32621 0.57062 0.0
H128 H 0.33666 0.17051 0.63977 0.0
O129 O 0.34165 0.23456 0.65339 0.0
H130 H 0.24239 0.17392 0.5934 0.0
H131 H 0.22128 0.26881 0.64984 0.0
H132 H 0.33193 0.32209 0.61519 0.0
H133 H 0.28473 0.23105 0.60196 0.0
H134 H 0.27359 0.23432 0.64626 0.0
O135 O 0.43499 0.18744 0.60306 0.0
H136 H 0.45727 0.30365 0.58842 0.0
H137 H 0.50422 0.21027 0.60507 0.0
H138 H 0.28014 0.35742 0.61831 0.0
H139 H 0.29455 0.11281 0.63177 0.0
H140 H 0.22431 0.33077 0.63574 0.0
H141 H 0.24708 0.11427 0.60838 0.0
O142 O 0.38123 0.29554 0.63439 0.0
H143 H 0.46749 0.16472 0.66321 0.0
H144 H 0.49792 0.28274 0.63049 0.0
H145 H 0.53414 0.2726 0.65701 0.0
H146 H 0.51901 0.21319 0.67356 0.0
H147 H 0.43175 0.17622 0.63672 0.0
H148 H 0.56045 0.23165 0.58734 0.0
H149 H 0.56525 0.2901 0.57001 0.0
O150 O 0.43353 0.29053 0.61969 0.0
C151 C 0.37197 0.25947 0.58919 0.0
C152 C 0.51145 0.30077 0.57817 0.0
C153 C 0.53798 0.24767 0.58753 0.0
N154 N 0.4776 0.25586 0.59789 0.0
C155 C 0.47992 0.28791 0.5883 0.0
C156 C 0.50603 0.23567 0.59752 0.0
C157 C 0.54065 0.28047 0.57781 0.0
C158 C 0.31583 0.17145 0.62971 0.0
N159 N 0.3131 0.20414 0.62139 0.0
C160 C 0.29217 0.13865 0.62517 0.0
C161 C 0.26558 0.13947 0.61203 0.0
C162 C 0.26296 0.17293 0.60361 0.0
C163 C 0.28712 0.20517 0.60847 0.0
C164 C 0.24543 0.28069 0.64218 0.0
C165 C 0.30763 0.31023 0.6227 0.0
C166 C 0.27516 0.26132 0.64014 0.0
N167 N 0.30565 0.27608 0.63042 0.0
C168 C 0.27844 0.3304 0.62447 0.0
C169 C 0.24714 0.31544 0.63427 0.0
C170 C 0.41389 0.30887 0.62903 0.0
C171 C 0.47438 0.1907 0.6561 0.0
C172 C 0.49103 0.25694 0.63767 0.0
C173 C 0.51173 0.25128 0.65264 0.0
C174 C 0.50325 0.21793 0.66191 0.0
N175 N 0.46273 0.23012 0.63206 0.0
C176 C 0.45433 0.19731 0.64105 0.0
Co177 Co 0.74854 0.85845 0.88124 0.0
Co178 Co 0.74039 0.94602 0.897 0.0
O179 O 0.72123 0.90016 0.88416 0.0
C180 C 0.73302 0.87801 0.84421 0.0
O181 O 0.74553 0.91291 0.84815 0.0
C182 C 0.66546 0.92073 0.91308 0.0
O183 O 0.66934 0.88576 0.91136 0.0
O184 O 0.75478 0.91714 0.91757 0.0
O185 O 0.76513 0.86271 0.90638 0.0
H186 H 0.83491 0.03032 0.93293 0.0
H187 H 0.66918 0.84905 0.87079 0.0
O188 O 0.73218 0.85287 0.85596 0.0
H189 H 0.67531 0.75462 0.91685 0.0
H190 H 0.76579 0.73234 0.8589 0.0
H191 H 0.82217 0.84295 0.89273 0.0
H192 H 0.73206 0.79638 0.90727 0.0
H193 H 0.73199 0.78499 0.86304 0.0
O194 O 0.69093 0.94673 0.90806 0.0
H195 H 0.81008 0.97335 0.91636 0.0
H196 H 0.71092 0.0159 0.90528 0.0
H197 H 0.85682 0.79081 0.88903 0.0
H198 H 0.61179 0.80756 0.87983 0.0
H199 H 0.82861 0.73499 0.872 0.0
H200 H 0.61463 0.76 0.90306 0.0
O201 O 0.79476 0.89241 0.87381 0.0
H202 H 0.65429 0.97384 0.84888 0.0
H203 H 0.77652 0.01285 0.87688 0.0
H204 H 0.75917 0.04731 0.851 0.0
H205 H 0.69759 0.02785 0.83683 0.0
H206 H 0.67304 0.93993 0.87463 0.0
H207 H 0.73449 0.07312 0.92188 0.0
H208 H 0.79699 0.08068 0.93578 0.0
O209 O 0.79018 0.94765 0.88606 0.0
C210 C 0.76505 0.88548 0.91917 0.0
C211 C 0.80769 0.0274 0.92689 0.0
C212 C 0.7513 0.0514 0.92071 0.0
N213 N 0.75923 0.9914 0.90976 0.0
C214 C 0.79354 0.99526 0.91745 0.0
C215 C 0.73806 0.01887 0.91137 0.0
C216 C 0.78638 0.05563 0.9285 0.0
C217 C 0.67069 0.8282 0.88079 0.0
N218 N 0.70395 0.8251 0.88846 0.0
C219 C 0.63808 0.80488 0.88591 0.0
C220 C 0.63968 0.77824 0.89896 0.0
C221 C 0.67372 0.77524 0.90672 0.0
C222 C 0.70574 0.79906 0.90128 0.0
C223 C 0.77836 0.75648 0.86636 0.0
C224 C 0.80964 0.81868 0.88538 0.0
C225 C 0.75939 0.78642 0.86871 0.0
N226 N 0.77503 0.81693 0.8782 0.0
C227 C 0.82943 0.78928 0.88329 0.0
C228 C 0.8136 0.75799 0.87372 0.0
C229 C 0.80756 0.92643 0.87712 0.0
C230 C 0.68123 0.98254 0.8549 0.0
C231 C 0.74994 0.00395 0.87064 0.0
C232 C 0.74013 0.02371 0.85607 0.0
C233 C 0.70555 0.01282 0.84814 0.0
N234 N 0.72604 0.97416 0.87713 0.0
C235 C 0.69199 0.96347 0.8695 0.0
Co236 Co 0.6523 0.74687 0.62938 0.0
Co237 Co 0.56847 0.76416 0.61341 0.0
O238 O 0.61359 0.77785 0.62738 0.0
C239 C 0.63236 0.75976 0.6665 0.0
O240 O 0.59755 0.74857 0.66198 0.0
C241 C 0.56764 0.83089 0.5915 0.0
O242 O 0.56628 0.80904 0.57765 0.0
O243 O 0.59889 0.75602 0.59232 0.0
O244 O 0.64751 0.73339 0.6037 0.0
H245 H 0.48544 0.6868 0.56973 0.0
H246 H 0.66715 0.82523 0.64158 0.0
O247 O 0.65812 0.76029 0.65506 0.0
H248 H 0.76165 0.81613 0.59587 0.0
H249 H 0.77428 0.71692 0.65131 0.0
H250 H 0.66202 0.67265 0.61603 0.0
H251 H 0.71564 0.76125 0.60396 0.0
H252 H 0.72523 0.75562 0.64804 0.0
O253 O 0.57096 0.81774 0.60692 0.0
H254 H 0.54193 0.70431 0.58777 0.0
H255 H 0.49845 0.79606 0.60901 0.0
H256 H 0.71051 0.63317 0.61883 0.0
H257 H 0.7129 0.88074 0.63402 0.0
H258 H 0.76714 0.65527 0.63658 0.0
H259 H 0.76055 0.87639 0.61099 0.0
O260 O 0.61494 0.70225 0.63551 0.0
H261 H 0.53757 0.83415 0.66709 0.0
H262 H 0.50232 0.72053 0.63154 0.0
H263 H 0.46683 0.7293 0.65849 0.0
H264 H 0.48434 0.7865 0.67646 0.0
H265 H 0.57262 0.82404 0.64016 0.0
H266 H 0.44154 0.77958 0.59117 0.0
H267 H 0.43476 0.72457 0.57137 0.0
O268 O 0.56483 0.7108 0.61987 0.0
C269 C 0.62789 0.7409 0.59063 0.0
C270 C 0.48806 0.71081 0.57833 0.0
C271 C 0.46341 0.76288 0.59036 0.0
N272 N 0.52347 0.7511 0.59946 0.0
C273 C 0.51997 0.72085 0.58858 0.0
C274 C 0.49569 0.77206 0.60043 0.0
C275 C 0.45963 0.73202 0.57925 0.0
C276 C 0.68795 0.82307 0.63163 0.0
N277 N 0.68883 0.79 0.62329 0.0
C278 C 0.71371 0.85462 0.62736 0.0
C279 C 0.74042 0.85217 0.61443 0.0
C280 C 0.74104 0.81837 0.60594 0.0
C281 C 0.71484 0.78741 0.61054 0.0
C282 C 0.74977 0.70701 0.64352 0.0
C283 C 0.68669 0.68254 0.62369 0.0
C284 C 0.72187 0.72876 0.64165 0.0
N285 N 0.69095 0.71651 0.63175 0.0
C286 C 0.714 0.66003 0.62527 0.0
C287 C 0.74575 0.67243 0.63524 0.0
C288 C 0.58245 0.69082 0.62942 0.0
C289 C 0.52959 0.80917 0.65934 0.0
C290 C 0.51026 0.74539 0.63932 0.0
C291 C 0.48996 0.75028 0.65454 0.0
C292 C 0.49978 0.78239 0.66461 0.0
N293 N 0.53945 0.7718 0.63422 0.0
C294 C 0.54922 0.80336 0.64403 0.0
Co295 Co 0.2543 0.13902 0.88037 0.0
Co296 Co 0.25126 0.04796 0.89402 0.0
O297 O 0.2751 0.09292 0.8818 0.0
C298 C 0.26417 0.12017 0.8427 0.0
O299 O 0.24758 0.08622 0.84629 0.0
C300 C 0.32665 0.06239 0.91014 0.0
O301 O 0.32387 0.09769 0.91176 0.0
O302 O 0.24287 0.07704 0.91561 0.0
O303 O 0.23951 0.13469 0.90582 0.0
H304 H 0.15162 0.97136 0.93048 0.0
H305 H 0.33165 0.13703 0.86885 0.0
O306 O 0.26915 0.14464 0.85486 0.0
H307 H 0.34229 0.23183 0.91583 0.0
H308 H 0.25339 0.27099 0.86096 0.0
H309 H 0.18606 0.16375 0.89384 0.0
H310 H 0.28081 0.19885 0.90649 0.0
H311 H 0.27911 0.21271 0.86326 0.0
O312 O 0.30022 0.03956 0.90342 0.0
H313 H 0.18196 0.0276 0.91481 0.0
H314 H 0.27058 0.97225 0.89932 0.0
H315 H 0.1595 0.22162 0.89201 0.0
H316 H 0.39371 0.1696 0.87764 0.0
H317 H 0.19324 0.27575 0.87547 0.0
H318 H 0.39932 0.21729 0.90134 0.0
O319 O 0.20426 0.11156 0.8733 0.0
H320 H 0.32635 0.0122 0.84309 0.0
H321 H 0.20423 0.98919 0.87266 0.0
H322 H 0.21364 0.95497 0.8454 0.0
H323 H 0.27512 0.96637 0.83043 0.0
H324 H 0.31553 0.04609 0.87028 0.0
H325 H 0.24137 0.91553 0.91496 0.0
H326 H 0.18138 0.91481 0.93063 0.0
O327 O 0.20196 0.05448 0.88478 0.0
C328 C 0.23718 0.11032 0.91807 0.0
C329 C 0.17772 0.97131 0.92368 0.0
C330 C 0.22813 0.93999 0.91499 0.0
N331 N 0.22794 0.00318 0.90611 0.0
C332 C 0.195 0.00304 0.91475 0.0
C333 C 0.2446 0.97224 0.90621 0.0
C334 C 0.19445 0.9396 0.92377 0.0
C335 C 0.33386 0.15791 0.8791 0.0
N336 N 0.30263 0.16594 0.8872 0.0
C337 C 0.36908 0.17619 0.88405 0.0
C338 C 0.3722 0.20291 0.89737 0.0
C339 C 0.34023 0.21105 0.90552 0.0
C340 C 0.30548 0.19216 0.90024 0.0
C341 C 0.23845 0.24761 0.86822 0.0
C342 C 0.20101 0.18728 0.88671 0.0
C343 C 0.25283 0.21451 0.86953 0.0
N344 N 0.23421 0.18495 0.87877 0.0
C345 C 0.18578 0.21993 0.88568 0.0
C346 C 0.20471 0.25027 0.87638 0.0
C347 C 0.18716 0.07883 0.87665 0.0
C348 C 0.29944 0.00697 0.84949 0.0
C349 C 0.23092 0.99451 0.86616 0.0
C350 C 0.23617 0.97492 0.85077 0.0
C351 C 0.27068 0.9813 0.84238 0.0
N352 N 0.25922 0.01971 0.87304 0.0
C353 C 0.29318 0.026 0.86492 0.0
Co354 Co 0.85805 0.74856 0.12689 0.0
Co355 Co 0.94432 0.74538 0.10954 0.0
O356 O 0.90149 0.72387 0.12395 0.0
C357 C 0.87793 0.73197 0.16367 0.0
O358 O 0.91268 0.74493 0.15963 0.0
C359 C 0.92851 0.66662 0.09745 0.0
O360 O 0.89287 0.66846 0.09688 0.0
O361 O 0.91138 0.74841 0.08888 0.0
O362 O 0.86193 0.76668 0.10173 0.0
H363 H 0.01298 0.83576 0.06599 0.0
H364 H 0.8523 0.66899 0.13629 0.0
O365 O 0.85258 0.73101 0.15203 0.0
H366 H 0.7574 0.67313 0.09029 0.0
H367 H 0.72979 0.75897 0.14887 0.0
H368 H 0.83978 0.8217 0.11635 0.0
H369 H 0.79647 0.73082 0.10066 0.0
H370 H 0.78432 0.72792 0.14454 0.0
O371 O 0.95194 0.6947 0.10217 0.0
H372 H 0.95987 0.80896 0.0847 0.0
H373 H 0.01961 0.72594 0.10313 0.0
H374 H 0.78572 0.85363 0.12023 0.0
H375 H 0.81356 0.61062 0.12645 0.0
H376 H 0.73022 0.82222 0.1366 0.0
H377 H 0.76577 0.61247 0.10325 0.0
O378 O 0.89047 0.79494 0.13497 0.0
H379 H 0.99191 0.6824 0.16175 0.0
H380 H 0.00442 0.79846 0.1272 0.0
H381 H 0.04385 0.79562 0.15342 0.0
H382 H 0.0378 0.73725 0.17089 0.0
H383 H 0.95267 0.6866 0.13555 0.0
H384 H 0.07327 0.75168 0.08452 0.0
H385 H 0.07021 0.80707 0.06582 0.0
O386 O 0.93889 0.79686 0.11657 0.0
C387 C 0.88124 0.7618 0.08808 0.0
C388 C 0.01469 0.81168 0.07411 0.0
C389 C 0.04851 0.76446 0.08449 0.0
N390 N 0.98671 0.76607 0.09508 0.0
C391 C 0.98474 0.79643 0.08477 0.0
C392 C 0.018 0.74996 0.09498 0.0
C393 C 0.04678 0.79555 0.07401 0.0
C394 C 0.83134 0.67003 0.1263 0.0
N395 N 0.82661 0.70327 0.11909 0.0
C396 C 0.80958 0.63688 0.12073 0.0
C397 C 0.78282 0.63794 0.10769 0.0
C398 C 0.77813 0.67196 0.10041 0.0
C399 C 0.80043 0.70453 0.10629 0.0
C400 C 0.75378 0.77292 0.14169 0.0
C401 C 0.81564 0.80778 0.1234 0.0
C402 C 0.78477 0.75551 0.13923 0.0
N403 N 0.81508 0.7729 0.13009 0.0
C404 C 0.78515 0.82603 0.12559 0.0
C405 C 0.75404 0.8084 0.13479 0.0
C406 C 0.92045 0.81176 0.12803 0.0
C407 C 0.99489 0.70796 0.15422 0.0
C408 C 0.00146 0.77301 0.13477 0.0
C409 C 0.02397 0.77153 0.14958 0.0
C410 C 0.02058 0.73876 0.15936 0.0
N411 N 0.9763 0.74268 0.12982 0.0
C412 C 0.97286 0.71044 0.13933 0.0
Co413 Co 0.25278 0.3457 0.37764 0.0
Co414 Co 0.23881 0.42866 0.39578 0.0
O415 O 0.22325 0.38583 0.38025 0.0
C416 C 0.23818 0.36697 0.34088 0.0
O417 O 0.24754 0.40179 0.34578 0.0
C418 C 0.15562 0.40901 0.40022 0.0
O419 O 0.15499 0.37674 0.39251 0.0
O420 O 0.24185 0.39469 0.41597 0.0
O421 O 0.26741 0.34928 0.40332 0.0
H422 H 0.3184 0.49967 0.44265 0.0
H423 H 0.17474 0.33094 0.36493 0.0
O424 O 0.23893 0.34087 0.35199 0.0
H425 H 0.1819 0.2373 0.41123 0.0
H426 H 0.27863 0.2229 0.35468 0.0
H427 H 0.327 0.3339 0.39008 0.0
H428 H 0.23721 0.28286 0.40332 0.0
H429 H 0.24146 0.27301 0.35865 0.0
O430 O 0.18603 0.43132 0.40235 0.0
H431 H 0.29844 0.44707 0.42247 0.0
H432 H 0.21152 0.50018 0.40282 0.0
H433 H 0.36498 0.28431 0.38658 0.0
H434 H 0.1189 0.28544 0.37222 0.0
H435 H 0.34081 0.22831 0.36877 0.0
H436 H 0.12222 0.2383 0.39559 0.0
O437 O 0.29751 0.38231 0.37131 0.0
H438 H 0.17869 0.47437 0.34213 0.0
H439 H 0.28889 0.49443 0.38084 0.0
H440 H 0.28611 0.53566 0.35525 0.0
H441 H 0.23065 0.52584 0.33572 0.0
H442 H 0.18284 0.43349 0.36769 0.0
H443 H 0.23038 0.55322 0.42287 0.0
H444 H 0.28427 0.55325 0.44293 0.0
O445 O 0.29232 0.42867 0.39005 0.0
C446 C 0.25823 0.36646 0.41694 0.0
C447 C 0.29495 0.50004 0.43393 0.0
C448 C 0.24553 0.53007 0.42284 0.0
N449 N 0.25407 0.47068 0.41136 0.0
C450 C 0.28359 0.47038 0.42244 0.0
C451 C 0.23495 0.49992 0.41154 0.0
C452 C 0.27577 0.53008 0.43409 0.0
C453 C 0.17651 0.31032 0.37501 0.0
N454 N 0.20917 0.30975 0.38374 0.0
C455 C 0.14475 0.28472 0.37913 0.0
C456 C 0.14661 0.25831 0.39226 0.0
C457 C 0.18007 0.25778 0.40106 0.0
C458 C 0.21125 0.28383 0.3966 0.0
C459 C 0.28943 0.24713 0.3625 0.0
C460 C 0.31621 0.30951 0.3824 0.0
C461 C 0.26855 0.27562 0.36477 0.0
N462 N 0.28194 0.3062 0.37471 0.0
C463 C 0.33788 0.28157 0.38042 0.0
C464 C 0.32431 0.25018 0.37041 0.0
C465 C 0.31083 0.41258 0.37905 0.0
C466 C 0.20291 0.47907 0.35061 0.0
C467 C 0.26467 0.48988 0.37239 0.0
C468 C 0.26324 0.51339 0.35794 0.0
C469 C 0.23211 0.50789 0.34699 0.0
N470 N 0.23585 0.46174 0.37591 0.0
C471 C 0.20529 0.45614 0.3652 0.0
H472 H 0.07647 0.21263 0.05842 0.0
H473 H 0.09506 0.1888 0.03021 0.0
H474 H 0.20912 0.20445 0.04779 0.0
H475 H 0.19043 0.22605 0.07634 0.0
H476 H 0.13683 0.21691 0.00481 0.0
H477 H 0.20009 0.10071 0.03117 0.0
H478 H 0.17385 0.12736 0.04491 0.0
H479 H 0.22223 0.14414 0.04023 0.0
C480 C 0.10551 0.21089 0.05632 0.0
C481 C 0.13189 0.2211 0.06974 0.0
C482 C 0.11613 0.19721 0.04015 0.0
C483 C 0.15342 0.19385 0.03694 0.0
C484 C 0.17999 0.20539 0.05009 0.0
H485 H 0.2447 0.18045 0.93182 0.0
H486 H 0.22459 0.1993 0.96058 0.0
C487 C 0.16929 0.21827 0.06639 0.0
C488 C 0.1646 0.17925 0.01969 0.0
H489 H 0.21451 0.11765 1.00108 0.0
C490 C 0.15354 0.19496 0.00403 0.0
C491 C 0.18575 0.15 0.01852 0.0
C492 C 0.19578 0.12931 0.03461 0.0
C493 C 0.16368 0.18297 0.98736 0.0
C494 C 0.18696 0.15553 0.98624 0.0
C495 C 0.19723 0.13912 1.00187 0.0
C496 C 0.20106 0.14361 0.96903 0.0
C497 C 0.1485 0.19939 0.97116 0.0
C498 C 0.19668 0.10574 0.96446 0.0
C499 C 0.20933 0.09471 0.94813 0.0
C500 C 0.22628 0.12138 0.93594 0.0
C501 C 0.23141 0.15916 0.94074 0.0
C502 C 0.2195 0.17006 0.95717 0.0
H503 H 0.1219 0.20926 0.97409 0.0
H504 H 0.16868 0.22376 0.96664 0.0
H505 H 0.14364 0.17888 0.96023 0.0
H506 H 0.18286 0.08469 0.97342 0.0
H507 H 0.20491 0.06539 0.94486 0.0
H508 H 0.7826 0.58441 0.31739 0.0
H509 H 0.8058 0.59866 0.28738 0.0
H510 H 0.79295 0.71324 0.2945 0.0
H511 H 0.7712 0.69953 0.32465 0.0
H512 H 0.77526 0.62241 0.2592 0.0
H513 H 0.89707 0.72756 0.27658 0.0
H514 H 0.87052 0.69865 0.29298 0.0
H515 H 0.85497 0.7401 0.28507 0.0
C516 C 0.78487 0.61267 0.31257 0.0
C517 C 0.77533 0.6409 0.32345 0.0
C518 C 0.79817 0.6208 0.29541 0.0
C519 C 0.80199 0.65724 0.28876 0.0
C520 C 0.79151 0.6852 0.29948 0.0
H521 H 0.80887 0.72073 0.17864 0.0
H522 H 0.79188 0.70105 0.20875 0.0
C523 C 0.77875 0.67724 0.31669 0.0
C524 C 0.81579 0.66582 0.27044 0.0
H525 H 0.878 0.72614 0.24625 0.0
C526 C 0.79798 0.64487 0.2564 0.0
C527 C 0.84596 0.69461 0.26672 0.0
C528 C 0.86848 0.71621 0.28116 0.0
C529 C 0.80865 0.65264 0.23877 0.0
C530 C 0.83716 0.68304 0.23499 0.0
C531 C 0.85578 0.7032 0.24907 0.0
C532 C 0.84765 0.69486 0.21658 0.0
C533 C 0.78954 0.62776 0.22444 0.0
C534 C 0.88495 0.69944 0.21103 0.0
C535 C 0.89492 0.71154 0.19386 0.0
C536 C 0.86772 0.71911 0.18186 0.0
C537 C 0.83045 0.71466 0.18746 0.0
C538 C 0.82062 0.7031 0.20468 0.0
H539 H 0.77855 0.59954 0.22961 0.0
H540 H 0.76559 0.63977 0.21933 0.0
H541 H 0.80869 0.62496 0.2133 0.0
H542 H 0.90639 0.69353 0.21998 0.0
H543 H 0.92386 0.71471 0.18996 0.0
H544 H 0.31394 0.29522 0.58055 0.0
H545 H 0.29468 0.31205 0.55113 0.0
H546 H 0.38321 0.26341 0.52781 0.0
H547 H 0.40307 0.24663 0.5572 0.0
H548 H 0.34701 0.35724 0.52394 0.0
H549 H 0.28032 0.21562 0.50264 0.0
H550 H 0.28551 0.2286 0.52565 0.0
H551 H 0.32518 0.22055 0.51316 0.0
C552 C 0.32936 0.28797 0.56921 0.0
C553 C 0.36009 0.26949 0.5713 0.0
C554 C 0.31829 0.29768 0.5524 0.0
C555 C 0.33738 0.28872 0.53734 0.0
C556 C 0.36797 0.27028 0.5393 0.0
H557 H 0.30165 0.31396 0.4248 0.0
H558 H 0.32113 0.29581 0.45394 0.0
C559 C 0.37931 0.26082 0.55612 0.0
C560 C 0.32568 0.29936 0.5196 0.0
H561 H 0.2825 0.264 0.48183 0.0
C562 C 0.33285 0.33695 0.5147 0.0
C563 C 0.30752 0.27271 0.50761 0.0
C564 C 0.29888 0.23206 0.51244 0.0
C565 C 0.32267 0.34862 0.49798 0.0
C566 C 0.30379 0.32206 0.48605 0.0
C567 C 0.29682 0.28438 0.49097 0.0
C568 C 0.29122 0.33276 0.46837 0.0
C569 C 0.33315 0.38917 0.49314 0.0
C570 C 0.26729 0.35905 0.46675 0.0
C571 C 0.25634 0.36978 0.45009 0.0
C572 C 0.26861 0.35399 0.43466 0.0
C573 C 0.29169 0.32681 0.43635 0.0
C574 C 0.30287 0.31635 0.45303 0.0
H575 H 0.35668 0.40323 0.50129 0.0
H576 H 0.34105 0.39258 0.47899 0.0
H577 H 0.30902 0.40347 0.49553 0.0
H578 H 0.25704 0.37133 0.47839 0.0
H579 H 0.23829 0.39052 0.44933 0.0
H580 H 0.73683 0.9222 0.81467 0.0
H581 H 0.7184 0.90318 0.7845 0.0
H582 H 0.68221 0.79075 0.80245 0.0
H583 H 0.70119 0.80924 0.83247 0.0
H584 H 0.7248 0.79289 0.7731 0.0
H585 H 0.61504 0.87961 0.76324 0.0
H586 H 0.65921 0.90573 0.76957 0.0
H587 H 0.6343 0.87253 0.78469 0.0
C588 C 0.72472 0.89348 0.81221 0.0
C589 C 0.72052 0.86727 0.82601 0.0
C590 C 0.71398 0.88269 0.79496 0.0
C591 C 0.69843 0.84562 0.79123 0.0
C592 C 0.69404 0.81951 0.805 0.0
H593 H 0.58538 0.75973 0.69479 0.0
H594 H 0.60158 0.78017 0.72501 0.0
C595 C 0.7049 0.83019 0.82219 0.0
C596 C 0.68809 0.83348 0.77289 0.0
H597 H 0.63323 0.84846 0.73791 0.0
C598 C 0.7047 0.805 0.76542 0.0
C599 C 0.6615 0.84891 0.76295 0.0
C600 C 0.64117 0.87813 0.77055 0.0
C601 C 0.69581 0.79181 0.74827 0.0
C602 C 0.67016 0.80809 0.73811 0.0
C603 C 0.65316 0.83624 0.74564 0.0
C604 C 0.6604 0.79605 0.71971 0.0
C605 C 0.71344 0.76001 0.74135 0.0
C606 C 0.68798 0.79865 0.70661 0.0
C607 C 0.67887 0.78675 0.68937 0.0
C608 C 0.64187 0.77235 0.68481 0.0
C609 C 0.61417 0.77045 0.69787 0.0
C610 C 0.62336 0.78222 0.71514 0.0
H611 H 0.72378 0.74404 0.75225 0.0
H612 H 0.69343 0.74063 0.7333 0.0
H613 H 0.73753 0.77124 0.73288 0.0
H614 H 0.71659 0.81004 0.7097 0.0
H615 H 0.70087 0.789 0.67961 0.0
H616 H 0.23367 0.3 0.32423 0.0
H617 H 0.21406 0.28446 0.29393 0.0
H618 H 0.19415 0.39666 0.28589 0.0
H619 H 0.21521 0.4128 0.31602 0.0
H620 H 0.15019 0.28337 0.2779 0.0
H621 H 0.25605 0.385 0.24342 0.0
H622 H 0.25858 0.37576 0.26674 0.0
H623 H 0.22866 0.40668 0.25866 0.0
C624 C 0.22536 0.32147 0.31598 0.0
C625 C 0.2263 0.35774 0.32248 0.0
C626 C 0.21408 0.31252 0.29865 0.0
C627 C 0.20319 0.33951 0.28746 0.0
C628 C 0.20344 0.3756 0.29405 0.0
H629 H 0.07975 0.27671 0.18944 0.0
H630 H 0.09702 0.29684 0.2196 0.0
C631 C 0.21528 0.38475 0.31132 0.0
C632 C 0.19089 0.32941 0.26909 0.0
H633 H 0.20717 0.35302 0.22578 0.0
C634 C 0.16273 0.29857 0.2665 0.0
C635 C 0.20754 0.34889 0.25416 0.0
C636 C 0.23963 0.38067 0.25584 0.0
C637 C 0.15084 0.28661 0.24949 0.0
C638 C 0.16664 0.30682 0.23459 0.0
C639 C 0.19474 0.33772 0.23718 0.0
C640 C 0.15578 0.29549 0.21618 0.0
C641 C 0.1224 0.25167 0.24771 0.0
C642 C 0.18312 0.28936 0.20396 0.0
C643 C 0.17343 0.27866 0.18664 0.0
C644 C 0.13608 0.27353 0.18116 0.0
C645 C 0.1087 0.27997 0.19333 0.0
C646 C 0.11852 0.29124 0.21061 0.0
H647 H 0.12144 0.23393 0.25969 0.0
H648 H 0.09443 0.25937 0.24595 0.0
H649 H 0.12841 0.23501 0.23611 0.0
H650 H 0.21205 0.29252 0.20787 0.0
H651 H 0.19522 0.27389 0.17761 0.0
H652 H 0.68405 0.70298 0.58155 0.0
H653 H 0.70363 0.6878 0.55203 0.0
H654 H 0.61894 0.74274 0.52918 0.0
H655 H 0.59829 0.75712 0.55873 0.0
H656 H 0.62102 0.67719 0.51336 0.0
H657 H 0.76439 0.75582 0.5173 0.0
H658 H 0.75422 0.7226 0.53482 0.0
H659 H 0.72917 0.76111 0.53342 0.0
C660 C 0.66956 0.71201 0.57028 0.0
C661 C 0.6397 0.73161 0.57259 0.0
C662 C 0.68105 0.70353 0.55336 0.0
C663 C 0.66338 0.71488 0.53833 0.0
C664 C 0.63324 0.73397 0.54057 0.0
H665 H 0.70149 0.69251 0.42516 0.0
H666 H 0.6824 0.71238 0.45414 0.0
C667 C 0.6215 0.74223 0.5575 0.0
C668 C 0.6756 0.70583 0.52032 0.0
H669 H 0.75153 0.71333 0.49318 0.0
C670 C 0.64947 0.68542 0.5089 0.0
C671 C 0.71274 0.71666 0.51445 0.0
C672 C 0.74164 0.74058 0.52557 0.0
C673 C 0.6597 0.67476 0.492 0.0
C674 C 0.69695 0.68481 0.48636 0.0
C675 C 0.72302 0.70551 0.49763 0.0
C676 C 0.70939 0.67356 0.46884 0.0
C677 C 0.63087 0.65211 0.48038 0.0
C678 C 0.73135 0.64553 0.46756 0.0
C679 C 0.74219 0.63392 0.45103 0.0
C680 C 0.73157 0.65042 0.43544 0.0
C681 C 0.71019 0.67913 0.43684 0.0
C682 C 0.69914 0.69049 0.45339 0.0
H683 H 0.60444 0.64245 0.48755 0.0
H684 H 0.62484 0.66929 0.46898 0.0
H685 H 0.6416 0.62753 0.47508 0.0
H686 H 0.73961 0.63222 0.47937 0.0
H687 H 0.75867 0.61181 0.4505 0.0
H688 H 0.29865 0.20811 0.6782 0.0
H689 H 0.28276 0.18766 0.70836 0.0
H690 H 0.39823 0.21414 0.72325 0.0
H691 H 0.41459 0.23423 0.69296 0.0
H692 H 0.36317 0.14535 0.73612 0.0
H693 H 0.27992 0.25591 0.75095 0.0
H694 H 0.26517 0.22958 0.73144 0.0
H695 H 0.31045 0.25797 0.73208 0.0
C696 C 0.32075 0.2097 0.68786 0.0
C697 C 0.35791 0.22313 0.68317 0.0
C698 C 0.31154 0.19813 0.70514 0.0
C699 C 0.3392 0.19996 0.71814 0.0
C700 C 0.3764 0.2127 0.71345 0.0
H701 H 0.30074 0.18746 0.83119 0.0
H702 H 0.3202 0.20546 0.80114 0.0
C703 C 0.38569 0.22427 0.69614 0.0
C704 C 0.32925 0.18838 0.73658 0.0
H705 H 0.27672 0.20688 0.77183 0.0
C706 C 0.34436 0.15885 0.74397 0.0
C707 C 0.30506 0.20632 0.74687 0.0
C708 C 0.28945 0.23943 0.74003 0.0
C709 C 0.33545 0.14639 0.76127 0.0
C710 C 0.31032 0.16357 0.77135 0.0
C711 C 0.29568 0.19346 0.76404 0.0
C712 C 0.29945 0.15169 0.78967 0.0
C713 C 0.35356 0.11541 0.7687 0.0
C714 C 0.28114 0.11543 0.79326 0.0
C715 C 0.27001 0.10494 0.8105 0.0
C716 C 0.27671 0.13063 0.82446 0.0
C717 C 0.29508 0.16691 0.82079 0.0
C718 C 0.30624 0.17731 0.80359 0.0
H719 H 0.37899 0.11199 0.76121 0.0
H720 H 0.36112 0.12059 0.78279 0.0
H721 H 0.33373 0.08887 0.76786 0.0
H722 H 0.27493 0.09539 0.78268 0.0
H723 H 0.2558 0.07684 0.81284 0.0
H724 H 0.91746 0.76367 0.05617 0.0
H725 H 0.89746 0.78576 0.02781 0.0
H726 H 0.79706 0.80974 0.05203 0.0
H727 H 0.81659 0.78769 0.08041 0.0
H728 H 0.78568 0.77116 0.01941 0.0
H729 H 0.89586 0.89573 0.01461 0.0
H730 H 0.91244 0.85269 0.01852 0.0
H731 H 0.88481 0.87072 0.03503 0.0
C732 C 0.89105 0.77353 0.0555 0.0
C733 C 0.8687 0.77387 0.07065 0.0
C734 C 0.8798 0.7864 0.03928 0.0
C735 C 0.84602 0.79988 0.03787 0.0
C736 C 0.82332 0.79963 0.05285 0.0
H737 H 0.77066 0.92498 0.95033 0.0
H738 H 0.78948 0.90466 0.97932 0.0
C739 C 0.83459 0.78696 0.06908 0.0
C740 C 0.83403 0.81385 0.02074 0.0
H741 H 0.85763 0.88108 0.98937 0.0
C742 C 0.80135 0.79523 0.01286 0.0
C743 C 0.85424 0.84558 0.01233 0.0
C744 C 0.88863 0.86763 0.02059 0.0
C745 C 0.78876 0.80701 0.99661 0.0
C746 C 0.8096 0.83803 0.98793 0.0
C747 C 0.84184 0.85716 0.99599 0.0
C748 C 0.79865 0.8506 0.97033 0.0
C749 C 0.75305 0.78635 0.98893 0.0
C750 C 0.79817 0.8272 0.95561 0.0
C751 C 0.78753 0.83868 0.93905 0.0
C752 C 0.77714 0.87393 0.93679 0.0
C753 C 0.77825 0.8976 0.95155 0.0
C754 C 0.78905 0.88607 0.96814 0.0
H755 H 0.73577 0.7696 0.9991 0.0
H756 H 0.73643 0.80591 0.98283 0.0
H757 H 0.75973 0.76709 0.97851 0.0
H758 H 0.80616 0.80001 0.95692 0.0
H759 H 0.7874 0.81973 0.92803 0.0
H760 H 0.02924 0.13389 0.11283 0.0
H761 H 0.00314 0.07184 0.12257 0.0
H762 H 0.08218 0.08035 0.16534 0.0
H763 H 0.10935 0.14332 0.15539 0.0
H764 H 0.07528 0.01363 0.14847 0.0
H765 H 0.93516 0.04167 0.16394 0.0
H766 H 0.94816 0.05898 0.1423 0.0
H767 H 0.97447 0.07855 0.16121 0.0
C768 C 0.04119 0.12288 0.12437 0.0
C769 C 0.07124 0.14381 0.13343 0.0
C770 C 0.02589 0.0874 0.13004 0.0
C771 C 0.0398 0.07198 0.14505 0.0
C772 C 0.07058 0.09212 0.1539 0.0
H773 H 0.90479 0.84906 0.15805 0.0
H774 H 0.93556 0.91094 0.1678 0.0
C775 C 0.08619 0.1279 0.14814 0.0
C776 C 0.0231 0.03378 0.1504 0.0
H777 H 0.93816 0.97847 0.15317 0.0
C778 C 0.04541 0.00597 0.15005 0.0
C779 C 0.98428 0.02372 0.15305 0.0
C780 C 0.95928 0.05246 0.15536 0.0
C781 C 0.02941 0.96824 0.1502 0.0
C782 C 0.99016 0.95833 0.15022 0.0
C783 C 0.96819 0.98604 0.15268 0.0
C784 C 0.97165 0.92064 0.14496 0.0
C785 C 0.05467 0.93943 0.14949 0.0
C786 C 0.98074 0.90632 0.12866 0.0
C787 C 0.96338 0.87141 0.1231 0.0
C788 C 0.93599 0.85005 0.1336 0.0
C789 C 0.92577 0.86489 0.14968 0.0
C790 C 0.94349 0.90004 0.15531 0.0
H791 H 0.08117 0.94932 0.15655 0.0
H792 H 0.04131 0.91264 0.1554 0.0
H793 H 0.06169 0.93452 0.13552 0.0
H794 H 0.00125 0.92231 0.1201 0.0
H795 H 0.97161 0.86113 0.11053 0.0
H796 H 0.14296 0.45486 0.42693 0.0
H797 H 0.08819 0.48447 0.4313 0.0
H798 H 0.03696 0.42736 0.38537 0.0
H799 H 0.09072 0.39588 0.38172 0.0
H800 H 0.06402 0.53171 0.41189 0.0
H801 H 0.95026 0.41181 0.41703 0.0
H802 H 0.99846 0.40634 0.41775 0.0
H803 H 0.97545 0.40958 0.39686 0.0
C804 C 0.11949 0.4479 0.41808 0.0
C805 C 0.12075 0.42279 0.40413 0.0
C806 C 0.08831 0.46499 0.42051 0.0
C807 C 0.05808 0.4579 0.40881 0.0
C808 C 0.05924 0.43244 0.39495 0.0
H809 H 0.90572 0.61227 0.38778 0.0
H810 H 0.9603 0.58138 0.38998 0.0
C811 C 0.09005 0.41454 0.3928 0.0
C812 C 0.02681 0.47925 0.41036 0.0
H813 H 0.93224 0.47044 0.40983 0.0
C814 C 0.03519 0.51821 0.4117 0.0
C815 C 0.98912 0.46182 0.41039 0.0
C816 C 0.97784 0.42007 0.41063 0.0
C817 C 0.00707 0.54019 0.41272 0.0
C818 C 0.96942 0.52291 0.41155 0.0
C819 C 0.96105 0.4839 0.41054 0.0
C820 C 0.93808 0.54437 0.41124 0.0
C821 C 0.01823 0.58155 0.41541 0.0
C822 C 0.90709 0.53368 0.42224 0.0
C823 C 0.87554 0.55043 0.42054 0.0
C824 C 0.87467 0.57886 0.40814 0.0
C825 C 0.90614 0.59092 0.3977 0.0
C826 C 0.93739 0.57335 0.39902 0.0
H827 H 0.04542 0.58811 0.42231 0.0
H828 H 0.02137 0.59554 0.40235 0.0
H829 H 0.99715 0.59331 0.42321 0.0
H830 H 0.90683 0.5115 0.43178 0.0
H831 H 0.85142 0.54057 0.42866 0.0
H832 H 0.48501 0.34294 0.6229 0.0
H833 H 0.51176 0.40753 0.62746 0.0
H834 H 0.4076 0.42917 0.6486 0.0
H835 H 0.38028 0.36346 0.64442 0.0
H836 H 0.48393 0.46468 0.61058 0.0
H837 H 0.48701 0.48288 0.68356 0.0
H838 H 0.48266 0.43774 0.67318 0.0
H839 H 0.44339 0.46153 0.6741 0.0
C840 C 0.4677 0.36098 0.62883 0.0
C841 C 0.43034 0.3478 0.6333 0.0
C842 C 0.48319 0.39806 0.63142 0.0
C843 C 0.46179 0.42305 0.63846 0.0
C844 C 0.42476 0.4101 0.64341 0.0
H845 H 0.51172 0.65913 0.62063 0.0
H846 H 0.482 0.59501 0.6247 0.0
C847 C 0.40915 0.37263 0.64092 0.0
C848 C 0.47775 0.46308 0.63887 0.0
H849 H 0.50632 0.53682 0.6662 0.0
C850 C 0.48876 0.48045 0.62275 0.0
C851 C 0.48432 0.48338 0.65478 0.0
C852 C 0.47404 0.46551 0.67245 0.0
C853 C 0.50625 0.5176 0.62206 0.0
C854 C 0.51232 0.53814 0.63792 0.0
C855 C 0.50147 0.52087 0.6541 0.0
C856 C 0.5292 0.57786 0.63763 0.0
C857 C 0.51857 0.53447 0.60438 0.0
C858 C 0.56531 0.58967 0.64407 0.0
C859 C 0.5826 0.62667 0.64183 0.0
C860 C 0.56391 0.65227 0.63313 0.0
C861 C 0.52716 0.64035 0.62733 0.0
C862 C 0.51 0.60362 0.62963 0.0
H863 H 0.5196 0.51287 0.59413 0.0
H864 H 0.4986 0.55246 0.59995 0.0
H865 H 0.54647 0.55199 0.60537 0.0
H866 H 0.58053 0.57002 0.65026 0.0
H867 H 0.61084 0.63491 0.64649 0.0
H868 H 0.59511 0.88 0.91092 0.0
H869 H 0.53638 0.90373 0.91529 0.0
H870 H 0.5976 0.00896 0.93259 0.0
H871 H 0.65596 0.98581 0.92815 0.0
H872 H 0.50424 0.94147 0.94553 0.0
H873 H 0.54136 0.03131 0.88666 0.0
H874 H 0.56386 0.99202 0.89167 0.0
H875 H 0.5762 0.03482 0.90363 0.0
C876 C 0.5959 0.90784 0.91607 0.0
C877 C 0.63003 0.93125 0.91896 0.0
C878 C 0.56243 0.92137 0.91851 0.0
C879 C 0.56287 0.95829 0.92394 0.0
C880 C 0.59679 0.98061 0.92812 0.0
H881 H 0.39407 0.10265 0.92009 0.0
H882 H 0.45178 0.07839 0.9261 0.0
C883 C 0.63007 0.96729 0.92559 0.0
C884 C 0.52849 0.97483 0.92372 0.0
H885 H 0.48712 0.03926 0.90212 0.0
C886 C 0.50038 0.96284 0.93606 0.0
C887 C 0.52379 0.00284 0.91139 0.0
C888 C 0.55271 0.01591 0.89748 0.0
C889 C 0.46759 0.97837 0.93645 0.0
C890 C 0.4627 0.00607 0.92396 0.0
C891 C 0.49107 0.01829 0.91177 0.0
C892 C 0.42729 0.02067 0.92228 0.0
C893 C 0.43866 0.96522 0.95031 0.0
C894 C 0.39456 0.99631 0.91814 0.0
C895 C 0.3618 0.00999 0.91472 0.0
C896 C 0.36106 0.04846 0.9152 0.0
C897 C 0.3937 0.07289 0.91969 0.0
C898 C 0.42664 0.05908 0.92311 0.0
H899 H 0.45117 0.95357 0.96199 0.0
H900 H 0.4243 0.98818 0.95475 0.0
H901 H 0.41757 0.94287 0.94466 0.0
H902 H 0.39459 0.9667 0.91697 0.0
H903 H 0.33722 0.9903 0.9113 0.0
H904 H 0.88862 0.59576 0.09522 0.0
H905 H 0.91393 0.53764 0.09202 0.0
H906 H 0.02469 0.60048 0.08787 0.0
H907 H 2e-05 0.65817 0.09119 0.0
H908 H 0.96048 0.5123 0.06508 0.0
H909 H 0.03054 0.53098 0.13035 0.0
H910 H 0.9948 0.55704 0.12379 0.0
H911 H 0.04153 0.57004 0.11573 0.0
C912 C 0.9183 0.59713 0.09344 0.0
C913 C 0.94234 0.63151 0.0937 0.0
C914 C 0.9327 0.56398 0.09164 0.0
C915 C 0.97124 0.56485 0.09007 0.0
C916 C 0.99497 0.5992 0.08945 0.0
H917 H 0.1143 0.39508 0.09157 0.0
H918 H 0.09075 0.45395 0.08784 0.0
C919 C 0.98074 0.63215 0.09132 0.0
C920 C 0.98711 0.53004 0.08971 0.0
H921 H 0.04464 0.48198 0.11244 0.0
C922 C 0.97879 0.50555 0.07544 0.0
C923 C 0.01112 0.52148 0.10322 0.0
C924 C 0.01984 0.54605 0.11923 0.0
C925 C 0.99425 0.47281 0.07423 0.0
C926 C 0.01818 0.46423 0.08778 0.0
C927 C 0.02661 0.48885 0.10199 0.0
C928 C 0.03269 0.42863 0.08822 0.0
C929 C 0.98521 0.4479 0.05839 0.0
C930 C 0.00787 0.39507 0.08964 0.0
C931 C 0.02115 0.36164 0.0918 0.0
C932 C 0.05961 0.36104 0.09268 0.0
C933 C 0.08455 0.39461 0.09085 0.0
C934 C 0.07115 0.42821 0.08875 0.0
H935 H 0.9759 0.46328 0.04701 0.0
H936 H 0.00964 0.43539 0.05426 0.0
H937 H 0.9623 0.42501 0.06184 0.0
H938 H 0.97812 0.39482 0.08965 0.0
H939 H 0.00112 0.33631 0.09315 0.0
H940 H 0.3565 0.39826 0.35185 0.0
H941 H 0.42023 0.42953 0.34592 0.0
H942 H 0.41638 0.49749 0.39231 0.0
H943 H 0.35288 0.46754 0.39798 0.0
H944 H 0.44634 0.53829 0.36465 0.0
H945 H 0.51217 0.41191 0.37208 0.0
H946 H 0.47702 0.40943 0.35532 0.0
H947 H 0.46445 0.41251 0.37817 0.0
C948 C 0.36934 0.4198 0.3608 0.0
C949 C 0.34963 0.43026 0.37543 0.0
C950 C 0.40577 0.43756 0.35742 0.0
C951 C 0.42321 0.46558 0.36878 0.0
C952 C 0.40347 0.47605 0.38332 0.0
H953 H 0.64241 0.54164 0.40034 0.0
H954 H 0.57882 0.51256 0.39431 0.0
C955 C 0.36712 0.45872 0.38658 0.0
C956 C 0.46218 0.48403 0.366 0.0
H957 H 0.55186 0.46844 0.36712 0.0
C958 C 0.46948 0.52305 0.36498 0.0
C959 C 0.49224 0.46401 0.36647 0.0
C960 C 0.48628 0.42219 0.36821 0.0
C961 C 0.50598 0.54272 0.3654 0.0
C962 C 0.536 0.52272 0.36635 0.0
C963 C 0.52874 0.48366 0.36637 0.0
C964 C 0.5747 0.54143 0.36959 0.0
C965 C 0.51191 0.58468 0.36591 0.0
C966 C 0.59361 0.56765 0.35774 0.0
C967 C 0.63013 0.5849 0.3613 0.0
C968 C 0.64841 0.57568 0.37663 0.0
C969 C 0.6293 0.54935 0.38838 0.0
C970 C 0.59289 0.53255 0.38493 0.0
H971 H 0.4857 0.59545 0.36865 0.0
H972 H 0.53265 0.59556 0.37616 0.0
H973 H 0.52267 0.59579 0.35293 0.0
H974 H 0.58032 0.57443 0.34566 0.0
H975 H 0.64426 0.6048 0.35191 0.0
H976 H 0.46904 0.15411 0.57892 0.0
H977 H 0.49477 0.09768 0.57317 0.0
H978 H 0.40227 0.03296 0.60069 0.0
H979 H 0.37556 0.08962 0.60586 0.0
H980 H 0.51843 0.05856 0.59855 0.0
H981 H 0.413 0.96591 0.55941 0.0
H982 H 0.41159 0.01482 0.56227 0.0
H983 H 0.39426 0.98209 0.57932 0.0
C984 C 0.45368 0.12767 0.58333 0.0
C985 C 0.42039 0.12606 0.59286 0.0
C986 C 0.46843 0.09548 0.58007 0.0
C987 C 0.45047 0.06105 0.58646 0.0
C988 C 0.41624 0.05908 0.5953 0.0
H989 H 0.55761 0.87905 0.61799 0.0
H990 H 0.53125 0.93598 0.61559 0.0
C991 C 0.40104 0.09141 0.59831 0.0
C992 C 0.46993 0.02845 0.5856 0.0
H993 H 0.46078 0.93759 0.57291 0.0
C994 C 0.50591 0.03223 0.59276 0.0
C995 C 0.45382 0.99423 0.57791 0.0
C996 C 0.4162 0.98906 0.56913 0.0
C997 C 0.52593 0.0026 0.59276 0.0
C998 C 0.50912 0.96786 0.58587 0.0
C999 C 0.47351 0.96422 0.57831 0.0
C1000 C 0.52737 0.93456 0.58706 0.0
C1001 C 0.56499 0.00893 0.60006 0.0
C1002 C 0.53379 0.91469 0.57181 0.0
C1003 C 0.54867 0.88183 0.57314 0.0
C1004 C 0.55719 0.86823 0.58976 0.0
C1005 C 0.55169 0.88884 0.60496 0.0
C1006 C 0.53667 0.92151 0.60362 0.0
H1007 H 0.57773 0.03878 0.59945 0.0
H1008 H 0.56418 0.00032 0.61413 0.0
H1009 H 0.58308 0.99246 0.59275 0.0
H1010 H 0.52672 0.9243 0.55891 0.0
H1011 H 0.55241 0.86654 0.56119 0.0
H1012 H 0.86954 0.89332 0.87433 0.0
H1013 H 0.93331 0.92462 0.86817 0.0
H1014 H 0.89277 0.02748 0.85871 0.0
H1015 H 0.82964 0.99672 0.86511 0.0
H1016 H 0.96884 0.9671 0.83958 0.0
H1017 H 0.96448 0.05312 0.89999 0.0
H1018 H 0.92976 0.01301 0.89535 0.0
H1019 H 0.92843 0.0563 0.88421 0.0
C1020 C 0.87427 0.92244 0.87066 0.0
C1021 C 0.84481 0.94284 0.8706 0.0
C1022 C 0.91061 0.94029 0.86717 0.0
C1023 C 0.91777 0.97859 0.86344 0.0
C1024 C 0.88796 0.99818 0.86205 0.0
H1025 H 0.13774 0.12306 0.86466 0.0
H1026 H 0.07144 0.10302 0.85779 0.0
C1027 C 0.85189 0.98055 0.86573 0.0
C1028 C 0.95646 0.99862 0.86222 0.0
H1029 H 0.01941 0.06402 0.88318 0.0
C1030 C 0.97984 0.9885 0.84901 0.0
C1031 C 0.97064 0.02674 0.8745 0.0
C1032 C 0.9472 0.03781 0.88941 0.0
C1033 C 0.01736 0.00516 0.84801 0.0
C1034 C 0.03179 0.03227 0.86066 0.0
C1035 C 0.00807 0.04351 0.8734 0.0
C1036 C 0.07224 0.0447 0.86276 0.0
C1037 C 0.04152 0.99304 0.8337 0.0
C1038 C 0.09424 0.01863 0.86795 0.0
C1039 C 0.13152 0.0299 0.87208 0.0
C1040 C 0.14795 0.06762 0.87105 0.0
C1041 C 0.12604 0.0938 0.86547 0.0
C1042 C 0.08827 0.08242 0.86152 0.0
H1043 H 0.02471 0.98148 0.82214 0.0
H1044 H 0.06284 0.01656 0.82923 0.0
H1045 H 0.05607 0.97092 0.83895 0.0
H1046 H 0.0822 0.98956 0.86943 0.0
H1047 H 0.14715 0.00887 0.87649 0.0
loop_
_geom_bond_atom_site_label_1
_geom_bond_atom_site_label_2
_geom_bond_distance
_geom_bond_site_symmetry_2
_ccdc_geom_bond_type
Co0 O2 2.143 . S
Co0 O8 2.074 . S
Co0 O11 2.093 . S
Co0 O24 2.097 . S
Co0 N41 2.151 . S
Co0 N49 2.214 . S
Co1 O2 2.160 . S
Co1 O7 2.058 . S
Co1 O17 2.057 . S
Co1 O32 2.037 . S
Co1 N36 2.145 . S
Co1 N57 2.257 . S
O2 Co0 2.143 . S
O2 Co1 2.160 . S
C3 O4 1.278 . S
C3 O11 1.224 . S
O4 C3 1.278 . S
C5 O6 1.245 . S
C5 O17 1.232 . S
O6 C5 1.245 . S
O7 Co1 2.058 . S
O7 C33 1.269 . S
O8 Co0 2.074 . S
O8 C33 1.257 . S
H9 C34 0.930 . S
H10 C40 0.930 . S
O11 Co0 2.093 . S
O11 C3 1.224 . S
H12 C44 0.929 . S
H13 C46 0.930 . S
H14 C47 0.930 . S
H15 C45 0.929 . S
H16 C48 0.928 . S
O17 Co1 2.057 . S
O17 C5 1.232 . S
H18 C37 0.929 . S
H19 C38 0.929 . S
H20 C50 0.931 . S
H21 C42 0.929 . S
H22 C51 0.930 . S
H23 C43 0.931 . S
O24 Co0 2.097 . S
O24 C52 1.214 . S
H25 C53 0.929 . S
H26 C54 0.929 . S
H27 C55 0.930 1_655 S
H28 C56 0.929 1_655 S
H29 C58 0.930 . S
H30 C35 0.930 . S
H31 C39 0.930 . S
O32 Co1 2.037 . S
O32 C52 1.234 . S
C33 O7 1.269 . S
C33 O8 1.257 . S
C34 H9 0.930 . S
C34 C37 1.388 . S
C34 C39 1.418 1_455 S
C35 H30 0.930 . S
C35 C38 1.404 1_655 S
C35 C39 1.353 . S
N36 Co1 2.145 . S
N36 C37 1.397 . S
N36 C38 1.334 . S
C37 H18 0.929 . S
C37 C34 1.388 . S
C37 N36 1.397 . S
C38 H19 0.929 . S
C38 C35 1.404 1_455 S
C38 N36 1.334 . S
C39 H31 0.930 . S
C39 C34 1.418 1_655 S
C39 C35 1.353 . S
C40 H10 0.930 . S
C40 N41 1.330 . S
C40 C42 1.446 . S
N41 Co0 2.151 . S
N41 C40 1.330 . S
N41 C45 1.418 . S
C42 H21 0.929 . S
C42 C40 1.446 . S
C42 C43 1.332 . S
C43 H23 0.931 . S
C43 C42 1.332 . S
C43 C44 1.267 . S
C44 H12 0.929 . S
C44 C43 1.267 . S
C44 C45 1.251 . S
C45 H15 0.929 . S
C45 N41 1.418 . S
C45 C44 1.251 . S
C46 H13 0.930 . S
C46 C48 1.406 . S
C46 C51 1.261 . S
C47 H14 0.930 . S
C47 N49 1.325 . S
C47 C50 1.357 . S
C48 H16 0.928 . S
C48 C46 1.406 . S
C48 N49 1.261 . S
N49 Co0 2.214 . S
N49 C47 1.325 . S
N49 C48 1.261 . S
C50 H20 0.931 . S
C50 C47 1.357 . S
C50 C51 1.312 . S
C51 H22 0.930 . S
C51 C46 1.261 . S
C51 C50 1.312 . S
C52 O24 1.214 . S
C52 O32 1.234 . S
C53 H25 0.929 . S
C53 C56 1.391 . S
C53 C58 1.391 . S
C54 H26 0.929 . S
C54 C55 1.390 . S
C54 N57 1.391 . S
C55 H27 0.930 1_455 S
C55 C54 1.390 . S
C55 C56 1.392 . S
C56 H28 0.929 1_455 S
C56 C53 1.391 . S
C56 C55 1.392 . S
N57 Co1 2.257 . S
N57 C54 1.391 . S
N57 C58 1.388 . S
C58 H29 0.930 . S
C58 C53 1.391 . S
C58 N57 1.388 . S
Co59 O61 2.143 . S
Co59 O67 2.074 . S
Co59 O70 2.093 . S
Co59 O83 2.097 . S
Co59 N100 2.151 . S
Co59 N108 2.214 . S
Co60 O61 2.160 . S
Co60 O66 2.058 . S
Co60 O76 2.057 . S
Co60 O91 2.037 . S
Co60 N95 2.145 . S
Co60 N116 2.257 . S
O61 Co59 2.143 . S
O61 Co60 2.160 . S
C62 O63 1.278 . S
C62 O70 1.224 . S
O63 C62 1.278 . S
C64 O65 1.245 . S
C64 O76 1.232 . S
O65 C64 1.245 . S
O66 Co60 2.058 . S
O66 C92 1.269 . S
O67 Co59 2.074 . S
O67 C92 1.257 . S
H68 C93 0.930 . S
H69 C99 0.930 . S
O70 Co59 2.093 . S
O70 C62 1.224 . S
H71 C103 0.929 . S
H72 C105 0.930 . S
H73 C106 0.930 . S
H74 C104 0.929 . S
H75 C107 0.928 . S
O76 Co60 2.057 . S
O76 C64 1.232 . S
H77 C96 0.929 . S
H78 C97 0.929 . S
H79 C109 0.931 . S
H80 C101 0.929 . S
H81 C110 0.930 . S
H82 C102 0.931 . S
O83 Co59 2.097 . S
O83 C111 1.214 . S
H84 C112 0.929 . S
H85 C113 0.929 . S
H86 C114 0.930 . S
H87 C115 0.929 . S
H88 C117 0.930 . S
H89 C94 0.930 . S
H90 C98 0.930 . S
O91 Co60 2.037 . S
O91 C111 1.234 . S
C92 O66 1.269 . S
C92 O67 1.257 . S
C93 H68 0.930 . S
C93 C96 1.388 . S
C93 C98 1.418 . S
C94 H89 0.930 . S
C94 C97 1.404 . S
C94 C98 1.353 . S
N95 Co60 2.145 . S
N95 C96 1.397 . S
N95 C97 1.334 . S
C96 H77 0.929 . S
C96 C93 1.388 . S
C96 N95 1.397 . S
C97 H78 0.929 . S
C97 C94 1.404 . S
C97 N95 1.334 . S
C98 H90 0.930 . S
C98 C93 1.418 . S
C98 C94 1.353 . S
C99 H69 0.930 . S
C99 N100 1.330 . S
C99 C101 1.446 . S
N100 Co59 2.151 . S
N100 C99 1.330 . S
N100 C104 1.418 . S
C101 H80 0.929 . S
C101 C99 1.446 . S
C101 C102 1.332 . S
C102 H82 0.931 . S
C102 C101 1.332 . S
C102 C103 1.267 . S
C103 H71 0.929 . S
C103 C102 1.267 . S
C103 C104 1.251 . S
C104 H74 0.929 . S
C104 N100 1.418 . S
C104 C103 1.251 . S
C105 H72 0.930 . S
C105 C107 1.406 . S
C105 C110 1.261 . S
C106 H73 0.930 . S
C106 N108 1.325 . S
C106 C109 1.357 . S
C107 H75 0.928 . S
C107 C105 1.406 . S
C107 N108 1.261 . S
N108 Co59 2.214 . S
N108 C106 1.325 . S
N108 C107 1.261 . S
C109 H79 0.931 . S
C109 C106 1.357 . S
C109 C110 1.312 . S
C110 H81 0.930 . S
C110 C105 1.261 . S
C110 C109 1.312 . S
C111 O83 1.214 . S
C111 O91 1.234 . S
C112 H84 0.929 . S
C112 C115 1.391 . S
C112 C117 1.391 . S
C113 H85 0.929 . S
C113 C114 1.390 . S
C113 N116 1.391 . S
C114 H86 0.930 . S
C114 C113 1.390 . S
C114 C115 1.392 . S
C115 H87 0.929 . S
C115 C112 1.391 . S
C115 C114 1.392 . S
N116 Co60 2.257 . S
N116 C113 1.391 . S
N116 C117 1.388 . S
C117 H88 0.930 . S
C117 C112 1.391 . S
C117 N116 1.388 . S
Co118 O120 2.143 . S
Co118 O126 2.074 . S
Co118 O129 2.093 . S
Co118 O142 2.097 . S
Co118 N159 2.151 . S
Co118 N167 2.214 . S
Co119 O120 2.160 . S
Co119 O125 2.058 . S
Co119 O135 2.057 . S
Co119 O150 2.037 . S
Co119 N154 2.145 . S
Co119 N175 2.257 . S
O120 Co118 2.143 . S
O120 Co119 2.160 . S
C121 O122 1.278 . S
C121 O129 1.224 . S
O122 C121 1.278 . S
C123 O124 1.245 . S
C123 O135 1.232 . S
O124 C123 1.245 . S
O125 Co119 2.058 . S
O125 C151 1.269 . S
O126 Co118 2.074 . S
O126 C151 1.257 . S
H127 C152 0.930 . S
H128 C158 0.930 . S
O129 Co118 2.093 . S
O129 C121 1.224 . S
H130 C162 0.929 . S
H131 C164 0.930 . S
H132 C165 0.930 . S
H133 C163 0.929 . S
H134 C166 0.928 . S
O135 Co119 2.057 . S
O135 C123 1.232 . S
H136 C155 0.929 . S
H137 C156 0.929 . S
H138 C168 0.931 . S
H139 C160 0.929 . S
H140 C169 0.930 . S
H141 C161 0.931 . S
O142 Co118 2.097 . S
O142 C170 1.214 . S
H143 C171 0.929 . S
H144 C172 0.929 . S
H145 C173 0.930 . S
H146 C174 0.929 . S
H147 C176 0.930 . S
H148 C153 0.930 . S
H149 C157 0.930 . S
O150 Co119 2.037 . S
O150 C170 1.234 . S
C151 O125 1.269 . S
C151 O126 1.257 . S
C152 H127 0.930 . S
C152 C155 1.388 . S
C152 C157 1.418 . S
C153 H148 0.930 . S
C153 C156 1.404 . S
C153 C157 1.353 . S
N154 Co119 2.145 . S
N154 C155 1.397 . S
N154 C156 1.334 . S
C155 H136 0.929 . S
C155 C152 1.388 . S
C155 N154 1.397 . S
C156 H137 0.929 . S
C156 C153 1.404 . S
C156 N154 1.334 . S
C157 H149 0.930 . S
C157 C152 1.418 . S
C157 C153 1.353 . S
C158 H128 0.930 . S
C158 N159 1.330 . S
C158 C160 1.446 . S
N159 Co118 2.151 . S
N159 C158 1.330 . S
N159 C163 1.418 . S
C160 H139 0.929 . S
C160 C158 1.446 . S
C160 C161 1.332 . S
C161 H141 0.931 . S
C161 C160 1.332 . S
C161 C162 1.267 . S
C162 H130 0.929 . S
C162 C161 1.267 . S
C162 C163 1.251 . S
C163 H133 0.929 . S
C163 N159 1.418 . S
C163 C162 1.251 . S
C164 H131 0.930 . S
C164 C166 1.406 . S
C164 C169 1.261 . S
C165 H132 0.930 . S
C165 N167 1.325 . S
C165 C168 1.357 . S
C166 H134 0.928 . S
C166 C164 1.406 . S
C166 N167 1.261 . S
N167 Co118 2.214 . S
N167 C165 1.325 . S
N167 C166 1.261 . S
C168 H138 0.931 . S
C168 C165 1.357 . S
C168 C169 1.312 . S
C169 H140 0.930 . S
C169 C164 1.261 . S
C169 C168 1.312 . S
C170 O142 1.214 . S
C170 O150 1.234 . S
C171 H143 0.929 . S
C171 C174 1.391 . S
C171 C176 1.391 . S
C172 H144 0.929 . S
C172 C173 1.390 . S
C172 N175 1.391 . S
C173 H145 0.930 . S
C173 C172 1.390 . S
C173 C174 1.392 . S
C174 H146 0.929 . S
C174 C171 1.391 . S
C174 C173 1.392 . S
N175 Co119 2.257 . S
N175 C172 1.391 . S
N175 C176 1.388 . S
C176 H147 0.930 . S
C176 C171 1.391 . S
C176 N175 1.388 . S
Co177 O179 2.143 . S
Co177 O185 2.074 . S
Co177 O188 2.093 . S
Co177 O201 2.097 . S
Co177 N218 2.151 . S
Co177 N226 2.214 . S
Co178 O179 2.160 . S
Co178 O184 2.058 . S
Co178 O194 2.057 . S
Co178 O209 2.037 . S
Co178 N213 2.145 . S
Co178 N234 2.257 . S
O179 Co177 2.143 . S
O179 Co178 2.160 . S
C180 O181 1.278 . S
C180 O188 1.224 . S
O181 C180 1.278 . S
C182 O183 1.245 . S
C182 O194 1.232 . S
O183 C182 1.245 . S
O184 Co178 2.058 . S
O184 C210 1.269 . S
O185 Co177 2.074 . S
O185 C210 1.257 . S
H186 C211 0.930 . S
H187 C217 0.930 . S
O188 Co177 2.093 . S
O188 C180 1.224 . S
H189 C221 0.929 . S
H190 C223 0.930 . S
H191 C224 0.930 . S
H192 C222 0.929 . S
H193 C225 0.928 . S
O194 Co178 2.057 . S
O194 C182 1.232 . S
H195 C214 0.929 . S
H196 C215 0.929 . S
H197 C227 0.931 . S
H198 C219 0.929 . S
H199 C228 0.930 . S
H200 C220 0.931 . S
O201 Co177 2.097 . S
O201 C229 1.214 . S
H202 C230 0.929 . S
H203 C231 0.929 . S
H204 C232 0.930 1_545 S
H205 C233 0.929 1_545 S
H206 C235 0.930 . S
H207 C212 0.930 . S
H208 C216 0.930 . S
O209 Co178 2.037 . S
O209 C229 1.234 . S
C210 O184 1.269 . S
C210 O185 1.257 . S
C211 H186 0.930 . S
C211 C214 1.388 . S
C211 C216 1.418 1_565 S
C212 H207 0.930 . S
C212 C215 1.404 1_545 S
C212 C216 1.353 . S
N213 Co178 2.145 . S
N213 C214 1.397 . S
N213 C215 1.334 . S
C214 H195 0.929 . S
C214 C211 1.388 . S
C214 N213 1.397 . S
C215 H196 0.929 . S
C215 C212 1.404 1_565 S
C215 N213 1.334 . S
C216 H208 0.930 . S
C216 C211 1.418 1_545 S
C216 C212 1.353 . S
C217 H187 0.930 . S
C217 N218 1.330 . S
C217 C219 1.446 . S
N218 Co177 2.151 . S
N218 C217 1.330 . S
N218 C222 1.418 . S
C219 H198 0.929 . S
C219 C217 1.446 . S
C219 C220 1.332 . S
C220 H200 0.931 . S
C220 C219 1.332 . S
C220 C221 1.267 . S
C221 H189 0.929 . S
C221 C220 1.267 . S
C221 C222 1.251 . S
C222 H192 0.929 . S
C222 N218 1.418 . S
C222 C221 1.251 . S
C223 H190 0.930 . S
C223 C225 1.406 . S
C223 C228 1.261 . S
C224 H191 0.930 . S
C224 N226 1.325 . S
C224 C227 1.357 . S
C225 H193 0.928 . S
C225 C223 1.406 . S
C225 N226 1.261 . S
N226 Co177 2.214 . S
N226 C224 1.325 . S
N226 C225 1.261 . S
C227 H197 0.931 . S
C227 C224 1.357 . S
C227 C228 1.312 . S
C228 H199 0.930 . S
C228 C223 1.261 . S
C228 C227 1.312 . S
C229 O201 1.214 . S
C229 O209 1.234 . S
C230 H202 0.929 . S
C230 C233 1.391 . S
C230 C235 1.391 . S
C231 H203 0.929 . S
C231 C232 1.390 . S
C231 N234 1.391 . S
C232 H204 0.930 1_565 S
C232 C231 1.390 . S
C232 C233 1.392 . S
C233 H205 0.929 1_565 S
C233 C230 1.391 . S
C233 C232 1.392 . S
N234 Co178 2.257 . S
N234 C231 1.391 . S
N234 C235 1.388 . S
C235 H206 0.930 . S
C235 C230 1.391 . S
C235 N234 1.388 . S
Co236 O238 2.143 . S
Co236 O244 2.074 . S
Co236 O247 2.093 . S
Co236 O260 2.097 . S
Co236 N277 2.151 . S
Co236 N285 2.214 . S
Co237 O238 2.160 . S
Co237 O243 2.058 . S
Co237 O253 2.057 . S
Co237 O268 2.037 . S
Co237 N272 2.145 . S
Co237 N293 2.257 . S
O238 Co236 2.143 . S
O238 Co237 2.160 . S
C239 O240 1.278 . S
C239 O247 1.224 . S
O240 C239 1.278 . S
C241 O242 1.245 . S
C241 O253 1.232 . S
O242 C241 1.245 . S
O243 Co237 2.058 . S
O243 C269 1.269 . S
O244 Co236 2.074 . S
O244 C269 1.257 . S
H245 C270 0.930 . S
H246 C276 0.930 . S
O247 Co236 2.093 . S
O247 C239 1.224 . S
H248 C280 0.929 . S
H249 C282 0.930 . S
H250 C283 0.930 . S
H251 C281 0.929 . S
H252 C284 0.928 . S
O253 Co237 2.057 . S
O253 C241 1.232 . S
H254 C273 0.929 . S
H255 C274 0.929 . S
H256 C286 0.931 . S
H257 C278 0.929 . S
H258 C287 0.930 . S
H259 C279 0.931 . S
O260 Co236 2.097 . S
O260 C288 1.214 . S
H261 C289 0.929 . S
H262 C290 0.929 . S
H263 C291 0.930 . S
H264 C292 0.929 . S
H265 C294 0.930 . S
H266 C271 0.930 . S
H267 C275 0.930 . S
O268 Co237 2.037 . S
O268 C288 1.234 . S
C269 O243 1.269 . S
C269 O244 1.257 . S
C270 H245 0.930 . S
C270 C273 1.388 . S
C270 C275 1.418 . S
C271 H266 0.930 . S
C271 C274 1.404 . S
C271 C275 1.353 . S
N272 Co237 2.145 . S
N272 C273 1.397 . S
N272 C274 1.334 . S
C273 H254 0.929 . S
C273 C270 1.388 . S
C273 N272 1.397 . S
C274 H255 0.929 . S
C274 C271 1.404 . S
C274 N272 1.334 . S
C275 H267 0.930 . S
C275 C270 1.418 . S
C275 C271 1.353 . S
C276 H246 0.930 . S
C276 N277 1.330 . S
C276 C278 1.446 . S
N277 Co236 2.151 . S
N277 C276 1.330 . S
N277 C281 1.418 . S
C278 H257 0.929 . S
C278 C276 1.446 . S
C278 C279 1.332 . S
C279 H259 0.931 . S
C279 C278 1.332 . S
C279 C280 1.267 . S
C280 H248 0.929 . S
C280 C279 1.267 . S
C280 C281 1.251 . S
C281 H251 0.929 . S
C281 N277 1.418 . S
C281 C280 1.251 . S
C282 H249 0.930 . S
C282 C284 1.406 . S
C282 C287 1.261 . S
C283 H250 0.930 . S
C283 N285 1.325 . S
C283 C286 1.357 . S
C284 H252 0.928 . S
C284 C282 1.406 . S
C284 N285 1.261 . S
N285 Co236 2.214 . S
N285 C283 1.325 . S
N285 C284 1.261 . S
C286 H256 0.931 . S
C286 C283 1.357 . S
C286 C287 1.312 . S
C287 H258 0.930 . S
C287 C282 1.261 . S
C287 C286 1.312 . S
C288 O260 1.214 . S
C288 O268 1.234 . S
C289 H261 0.929 . S
C289 C292 1.391 . S
C289 C294 1.391 . S
C290 H262 0.929 . S
C290 C291 1.390 . S
C290 N293 1.391 . S
C291 H263 0.930 . S
C291 C290 1.390 . S
C291 C292 1.392 . S
C292 H264 0.929 . S
C292 C289 1.391 . S
C292 C291 1.392 . S
N293 Co237 2.257 . S
N293 C290 1.391 . S
N293 C294 1.388 . S
C294 H265 0.930 . S
C294 C289 1.391 . S
C294 N293 1.388 . S
Co295 O297 2.143 . S
Co295 O303 2.074 . S
Co295 O306 2.093 . S
Co295 O319 2.097 . S
Co295 N336 2.151 . S
Co295 N344 2.214 . S
Co296 O297 2.160 . S
Co296 O302 2.058 . S
Co296 O312 2.057 . S
Co296 O327 2.037 . S
Co296 N331 2.145 . S
Co296 N352 2.257 . S
O297 Co295 2.143 . S
O297 Co296 2.160 . S
C298 O299 1.278 . S
C298 O306 1.224 . S
O299 C298 1.278 . S
C300 O301 1.245 . S
C300 O312 1.232 . S
O301 C300 1.245 . S
O302 Co296 2.058 . S
O302 C328 1.269 . S
O303 Co295 2.074 . S
O303 C328 1.257 . S
H304 C329 0.930 . S
H305 C335 0.930 . S
O306 Co295 2.093 . S
O306 C298 1.224 . S
H307 C339 0.929 . S
H308 C341 0.930 . S
H309 C342 0.930 . S
H310 C340 0.929 . S
H311 C343 0.928 . S
O312 Co296 2.057 . S
O312 C300 1.232 . S
H313 C332 0.929 . S
H314 C333 0.929 . S
H315 C345 0.931 . S
H316 C337 0.929 . S
H317 C346 0.930 . S
H318 C338 0.931 . S
O319 Co295 2.097 . S
O319 C347 1.214 . S
H320 C348 0.929 . S
H321 C349 0.929 . S
H322 C350 0.930 1_565 S
H323 C351 0.929 1_565 S
H324 C353 0.930 . S
H325 C330 0.930 . S
H326 C334 0.930 . S
O327 Co296 2.037 . S
O327 C347 1.234 . S
C328 O302 1.269 . S
C328 O303 1.257 . S
C329 H304 0.930 . S
C329 C332 1.388 . S
C329 C334 1.418 1_545 S
C330 H325 0.930 . S
C330 C333 1.404 1_565 S
C330 C334 1.353 . S
N331 Co296 2.145 . S
N331 C332 1.397 . S
N331 C333 1.334 . S
C332 H313 0.929 . S
C332 C329 1.388 . S
C332 N331 1.397 . S
C333 H314 0.929 . S
C333 C330 1.404 1_545 S
C333 N331 1.334 . S
C334 H326 0.930 . S
C334 C329 1.418 1_565 S
C334 C330 1.353 . S
C335 H305 0.930 . S
C335 N336 1.330 . S
C335 C337 1.446 . S
N336 Co295 2.151 . S
N336 C335 1.330 . S
N336 C340 1.418 . S
C337 H316 0.929 . S
C337 C335 1.446 . S
C337 C338 1.332 . S
C338 H318 0.931 . S
C338 C337 1.332 . S
C338 C339 1.267 . S
C339 H307 0.929 . S
C339 C338 1.267 . S
C339 C340 1.251 . S
C340 H310 0.929 . S
C340 N336 1.418 . S
C340 C339 1.251 . S
C341 H308 0.930 . S
C341 C343 1.406 . S
C341 C346 1.261 . S
C342 H309 0.930 . S
C342 N344 1.325 . S
C342 C345 1.357 . S
C343 H311 0.928 . S
C343 C341 1.406 . S
C343 N344 1.261 . S
N344 Co295 2.214 . S
N344 C342 1.325 . S
N344 C343 1.261 . S
C345 H315 0.931 . S
C345 C342 1.357 . S
C345 C346 1.312 . S
C346 H317 0.930 . S
C346 C341 1.261 . S
C346 C345 1.312 . S
C347 O319 1.214 . S
C347 O327 1.234 . S
C348 H320 0.929 . S
C348 C351 1.391 . S
C348 C353 1.391 . S
C349 H321 0.929 . S
C349 C350 1.390 . S
C349 N352 1.391 . S
C350 H322 0.930 1_545 S
C350 C349 1.390 . S
C350 C351 1.392 . S
C351 H323 0.929 1_545 S
C351 C348 1.391 . S
C351 C350 1.392 . S
N352 Co296 2.257 . S
N352 C349 1.391 . S
N352 C353 1.388 . S
C353 H324 0.930 . S
C353 C348 1.391 . S
C353 N352 1.388 . S
Co354 O356 2.143 . S
Co354 O362 2.074 . S
Co354 O365 2.093 . S
Co354 O378 2.097 . S
Co354 N395 2.151 . S
Co354 N403 2.214 . S
Co355 O356 2.160 . S
Co355 O361 2.058 . S
Co355 O371 2.057 . S
Co355 O386 2.037 . S
Co355 N390 2.145 . S
Co355 N411 2.257 . S
O356 Co354 2.143 . S
O356 Co355 2.160 . S
C357 O358 1.278 . S
C357 O365 1.224 . S
O358 C357 1.278 . S
C359 O360 1.245 . S
C359 O371 1.232 . S
O360 C359 1.245 . S
O361 Co355 2.058 . S
O361 C387 1.269 . S
O362 Co354 2.074 . S
O362 C387 1.257 . S
H363 C388 0.930 . S
H364 C394 0.930 . S
O365 Co354 2.093 . S
O365 C357 1.224 . S
H366 C398 0.929 . S
H367 C400 0.930 . S
H368 C401 0.930 . S
H369 C399 0.929 . S
H370 C402 0.928 . S
O371 Co355 2.057 . S
O371 C359 1.232 . S
H372 C391 0.929 . S
H373 C392 0.929 . S
H374 C404 0.931 . S
H375 C396 0.929 . S
H376 C405 0.930 . S
H377 C397 0.931 . S
O378 Co354 2.097 . S
O378 C406 1.214 . S
H379 C407 0.929 . S
H380 C408 0.929 . S
H381 C409 0.930 1_455 S
H382 C410 0.929 1_455 S
H383 C412 0.930 . S
H384 C389 0.930 . S
H385 C393 0.930 . S
O386 Co355 2.037 . S
O386 C406 1.234 . S
C387 O361 1.269 . S
C387 O362 1.257 . S
C388 H363 0.930 . S
C388 C391 1.388 . S
C388 C393 1.418 1_655 S
C389 H384 0.930 . S
C389 C392 1.404 1_455 S
C389 C393 1.353 . S
N390 Co355 2.145 . S
N390 C391 1.397 . S
N390 C392 1.334 . S
C391 H372 0.929 . S
C391 C388 1.388 . S
C391 N390 1.397 . S
C392 H373 0.929 . S
C392 C389 1.404 1_655 S
C392 N390 1.334 . S
C393 H385 0.930 . S
C393 C388 1.418 1_455 S
C393 C389 1.353 . S
C394 H364 0.930 . S
C394 N395 1.330 . S
C394 C396 1.446 . S
N395 Co354 2.151 . S
N395 C394 1.330 . S
N395 C399 1.418 . S
C396 H375 0.929 . S
C396 C394 1.446 . S
C396 C397 1.332 . S
C397 H377 0.931 . S
C397 C396 1.332 . S
C397 C398 1.267 . S
C398 H366 0.929 . S
C398 C397 1.267 . S
C398 C399 1.251 . S
C399 H369 0.929 . S
C399 N395 1.418 . S
C399 C398 1.251 . S
C400 H367 0.930 . S
C400 C402 1.406 . S
C400 C405 1.261 . S
C401 H368 0.930 . S
C401 N403 1.325 . S
C401 C404 1.357 . S
C402 H370 0.928 . S
C402 C400 1.406 . S
C402 N403 1.261 . S
N403 Co354 2.214 . S
N403 C401 1.325 . S
N403 C402 1.261 . S
C404 H374 0.931 . S
C404 C401 1.357 . S
C404 C405 1.312 . S
C405 H376 0.930 . S
C405 C400 1.261 . S
C405 C404 1.312 . S
C406 O378 1.214 . S
C406 O386 1.234 . S
C407 H379 0.929 . S
C407 C410 1.391 . S
C407 C412 1.391 . S
C408 H380 0.929 . S
C408 C409 1.390 . S
C408 N411 1.391 . S
C409 H381 0.930 1_655 S
C409 C408 1.390 . S
C409 C410 1.392 . S
C410 H382 0.929 1_655 S
C410 C407 1.391 . S
C410 C409 1.392 . S
N411 Co355 2.257 . S
N411 C408 1.391 . S
N411 C412 1.388 . S
C412 H383 0.930 . S
C412 C407 1.391 . S
C412 N411 1.388 . S
Co413 O415 2.143 . S
Co413 O421 2.074 . S
Co413 O424 2.093 . S
Co413 O437 2.097 . S
Co413 N454 2.151 . S
Co413 N462 2.214 . S
Co414 O415 2.160 . S
Co414 O420 2.058 . S
Co414 O430 2.057 . S
Co414 O445 2.037 . S
Co414 N449 2.145 . S
Co414 N470 2.257 . S
O415 Co413 2.143 . S
O415 Co414 2.160 . S
C416 O417 1.278 . S
C416 O424 1.224 . S
O417 C416 1.278 . S
C418 O419 1.245 . S
C418 O430 1.232 . S
O419 C418 1.245 . S
O420 Co414 2.058 . S
O420 C446 1.269 . S
O421 Co413 2.074 . S
O421 C446 1.257 . S
H422 C447 0.930 . S
H423 C453 0.930 . S
O424 Co413 2.093 . S
O424 C416 1.224 . S
H425 C457 0.929 . S
H426 C459 0.930 . S
H427 C460 0.930 . S
H428 C458 0.929 . S
H429 C461 0.928 . S
O430 Co414 2.057 . S
O430 C418 1.232 . S
H431 C450 0.929 . S
H432 C451 0.929 . S
H433 C463 0.931 . S
H434 C455 0.929 . S
H435 C464 0.930 . S
H436 C456 0.931 . S
O437 Co413 2.097 . S
O437 C465 1.214 . S
H438 C466 0.929 . S
H439 C467 0.929 . S
H440 C468 0.930 . S
H441 C469 0.929 . S
H442 C471 0.930 . S
H443 C448 0.930 . S
H444 C452 0.930 . S
O445 Co414 2.037 . S
O445 C465 1.234 . S
C446 O420 1.269 . S
C446 O421 1.257 . S
C447 H422 0.930 . S
C447 C450 1.388 . S
C447 C452 1.418 . S
C448 H443 0.930 . S
C448 C451 1.404 . S
C448 C452 1.353 . S
N449 Co414 2.145 . S
N449 C450 1.397 . S
N449 C451 1.334 . S
C450 H431 0.929 . S
C450 C447 1.388 . S
C450 N449 1.397 . S
C451 H432 0.929 . S
C451 C448 1.404 . S
C451 N449 1.334 . S
C452 H444 0.930 . S
C452 C447 1.418 . S
C452 C448 1.353 . S
C453 H423 0.930 . S
C453 N454 1.330 . S
C453 C455 1.446 . S
N454 Co413 2.151 . S
N454 C453 1.330 . S
N454 C458 1.418 . S
C455 H434 0.929 . S
C455 C453 1.446 . S
C455 C456 1.332 . S
C456 H436 0.931 . S
C456 C455 1.332 . S
C456 C457 1.267 . S
C457 H425 0.929 . S
C457 C456 1.267 . S
C457 C458 1.251 . S
C458 H428 0.929 . S
C458 N454 1.418 . S
C458 C457 1.251 . S
C459 H426 0.930 . S
C459 C461 1.406 . S
C459 C464 1.261 . S
C460 H427 0.930 . S
C460 N462 1.325 . S
C460 C463 1.357 . S
C461 H429 0.928 . S
C461 C459 1.406 . S
C461 N462 1.261 . S
N462 Co413 2.214 . S
N462 C460 1.325 . S
N462 C461 1.261 . S
C463 H433 0.931 . S
C463 C460 1.357 . S
C463 C464 1.312 . S
C464 H435 0.930 . S
C464 C459 1.261 . S
C464 C463 1.312 . S
C465 O437 1.214 . S
C465 O445 1.234 . S
C466 H438 0.929 . S
C466 C469 1.391 . S
C466 C471 1.391 . S
C467 H439 0.929 . S
C467 C468 1.390 . S
C467 N470 1.391 . S
C468 H440 0.930 . S
C468 C467 1.390 . S
C468 C469 1.392 . S
C469 H441 0.929 . S
C469 C466 1.391 . S
C469 C468 1.392 . S
N470 Co414 2.257 . S
N470 C467 1.391 . S
N470 C471 1.388 . S
C471 H442 0.930 . S
C471 C466 1.391 . S
C471 N470 1.388 . S
H472 C480 0.929 . S
H473 C482 0.930 . S
H474 C484 0.930 . S
H475 C487 0.929 . S
H476 C490 0.930 . S
H477 C492 0.960 . S
H478 C492 0.960 . S
H479 C492 0.960 . S
C480 H472 0.929 . S
C480 C481 1.377 . S
C480 C482 1.384 . S
C481 C480 1.377 . S
C481 C487 1.390 . S
C482 H473 0.930 . S
C482 C480 1.384 . S
C482 C483 1.372 . S
C483 C482 1.372 . S
C483 C484 1.400 . S
C483 C488 1.490 . S
C484 H474 0.930 . S
C484 C483 1.400 . S
C484 C487 1.386 . S
H485 C501 0.930 . S
H486 C502 0.931 . S
C487 H475 0.929 . S
C487 C481 1.390 . S
C487 C484 1.386 . S
C488 C483 1.490 . S
C488 C490 1.395 . S
C488 C491 1.403 . S
H489 C495 0.930 . S
C490 H476 0.930 . S
C490 C488 1.395 . S
C490 C493 1.403 1_554 S
C491 C488 1.403 . S
C491 C492 1.524 . S
C491 C495 1.400 1_554 S
C492 H477 0.960 . S
C492 H478 0.960 . S
C492 H479 0.960 . S
C492 C491 1.524 . S
C493 C490 1.403 1_556 S
C493 C494 1.392 . S
C493 C497 1.495 . S
C494 C493 1.392 . S
C494 C495 1.385 . S
C494 C496 1.478 . S
C495 H489 0.930 . S
C495 C491 1.400 1_556 S
C495 C494 1.385 . S
C496 C494 1.478 . S
C496 C498 1.381 . S
C496 C502 1.383 . S
C497 C493 1.495 . S
C497 H503 0.959 . S
C497 H504 0.961 . S
C497 H505 0.960 . S
C498 C496 1.381 . S
C498 C499 1.394 . S
C498 H506 0.930 . S
C499 C498 1.394 . S
C499 C500 1.383 . S
C499 H507 0.929 . S
C500 C499 1.383 . S
C500 C501 1.377 . S
C501 H485 0.930 . S
C501 C500 1.377 . S
C501 C502 1.379 . S
C502 H486 0.931 . S
C502 C496 1.383 . S
C502 C501 1.379 . S
H503 C497 0.959 . S
H504 C497 0.961 . S
H505 C497 0.960 . S
H506 C498 0.930 . S
H507 C499 0.929 . S
H508 C516 0.929 . S
H509 C518 0.930 . S
H510 C520 0.930 . S
H511 C523 0.929 . S
H512 C526 0.930 . S
H513 C528 0.960 . S
H514 C528 0.960 . S
H515 C528 0.960 . S
C516 H508 0.929 . S
C516 C517 1.377 . S
C516 C518 1.384 . S
C517 C516 1.377 . S
C517 C523 1.390 . S
C518 H509 0.930 . S
C518 C516 1.384 . S
C518 C519 1.372 . S
C519 C518 1.372 . S
C519 C520 1.400 . S
C519 C524 1.490 . S
C520 H510 0.930 . S
C520 C519 1.400 . S
C520 C523 1.386 . S
H521 C537 0.930 . S
H522 C538 0.931 . S
C523 H511 0.929 . S
C523 C517 1.390 . S
C523 C520 1.386 . S
C524 C519 1.490 . S
C524 C526 1.395 . S
C524 C527 1.403 . S
H525 C531 0.930 . S
C526 H512 0.930 . S
C526 C524 1.395 . S
C526 C529 1.403 . S
C527 C524 1.403 . S
C527 C528 1.524 . S
C527 C531 1.400 . S
C528 H513 0.960 . S
C528 H514 0.960 . S
C528 H515 0.960 . S
C528 C527 1.524 . S
C529 C526 1.403 . S
C529 C530 1.392 . S
C529 C533 1.495 . S
C530 C529 1.392 . S
C530 C531 1.385 . S
C530 C532 1.478 . S
C531 H525 0.930 . S
C531 C527 1.400 . S
C531 C530 1.385 . S
C532 C530 1.478 . S
C532 C534 1.381 . S
C532 C538 1.383 . S
C533 C529 1.495 . S
C533 H539 0.959 . S
C533 H540 0.961 . S
C533 H541 0.960 . S
C534 C532 1.381 . S
C534 C535 1.394 . S
C534 H542 0.930 . S
C535 C534 1.394 . S
C535 C536 1.383 . S
C535 H543 0.929 . S
C536 C535 1.383 . S
C536 C537 1.377 . S
C537 H521 0.930 . S
C537 C536 1.377 . S
C537 C538 1.379 . S
C538 H522 0.931 . S
C538 C532 1.383 . S
C538 C537 1.379 . S
H539 C533 0.959 . S
H540 C533 0.961 . S
H541 C533 0.960 . S
H542 C534 0.930 . S
H543 C535 0.929 . S
H544 C552 0.929 . S
H545 C554 0.930 . S
H546 C556 0.930 . S
H547 C559 0.929 . S
H548 C562 0.930 . S
H549 C564 0.960 . S
H550 C564 0.960 . S
H551 C564 0.960 . S
C552 H544 0.929 . S
C552 C553 1.377 . S
C552 C554 1.384 . S
C553 C552 1.377 . S
C553 C559 1.390 . S
C554 H545 0.930 . S
C554 C552 1.384 . S
C554 C555 1.372 . S
C555 C554 1.372 . S
C555 C556 1.400 . S
C555 C560 1.490 . S
C556 H546 0.930 . S
C556 C555 1.400 . S
C556 C559 1.386 . S
H557 C573 0.930 . S
H558 C574 0.931 . S
C559 H547 0.929 . S
C559 C553 1.390 . S
C559 C556 1.386 . S
C560 C555 1.490 . S
C560 C562 1.395 . S
C560 C563 1.403 . S
H561 C567 0.930 . S
C562 H548 0.930 . S
C562 C560 1.395 . S
C562 C565 1.403 . S
C563 C560 1.403 . S
C563 C564 1.524 . S
C563 C567 1.400 . S
C564 H549 0.960 . S
C564 H550 0.960 . S
C564 H551 0.960 . S
C564 C563 1.524 . S
C565 C562 1.403 . S
C565 C566 1.392 . S
C565 C569 1.495 . S
C566 C565 1.392 . S
C566 C567 1.385 . S
C566 C568 1.478 . S
C567 H561 0.930 . S
C567 C563 1.400 . S
C567 C566 1.385 . S
C568 C566 1.478 . S
C568 C570 1.381 . S
C568 C574 1.383 . S
C569 C565 1.495 . S
C569 H575 0.959 . S
C569 H576 0.961 . S
C569 H577 0.960 . S
C570 C568 1.381 . S
C570 C571 1.394 . S
C570 H578 0.930 . S
C571 C570 1.394 . S
C571 C572 1.383 . S
C571 H579 0.929 . S
C572 C571 1.383 . S
C572 C573 1.377 . S
C573 H557 0.930 . S
C573 C572 1.377 . S
C573 C574 1.379 . S
C574 H558 0.931 . S
C574 C568 1.383 . S
C574 C573 1.379 . S
H575 C569 0.959 . S
H576 C569 0.961 . S
H577 C569 0.960 . S
H578 C570 0.930 . S
H579 C571 0.929 . S
H580 C588 0.929 . S
H581 C590 0.930 . S
H582 C592 0.930 . S
H583 C595 0.929 . S
H584 C598 0.930 . S
H585 C600 0.960 . S
H586 C600 0.960 . S
H587 C600 0.960 . S
C588 H580 0.929 . S
C588 C589 1.377 . S
C588 C590 1.384 . S
C589 C588 1.377 . S
C589 C595 1.390 . S
C590 H581 0.930 . S
C590 C588 1.384 . S
C590 C591 1.372 . S
C591 C590 1.372 . S
C591 C592 1.400 . S
C591 C596 1.490 . S
C592 H582 0.930 . S
C592 C591 1.400 . S
C592 C595 1.386 . S
H593 C609 0.930 . S
H594 C610 0.931 . S
C595 H583 0.929 . S
C595 C589 1.390 . S
C595 C592 1.386 . S
C596 C591 1.490 . S
C596 C598 1.395 . S
C596 C599 1.403 . S
H597 C603 0.930 . S
C598 H584 0.930 . S
C598 C596 1.395 . S
C598 C601 1.403 . S
C599 C596 1.403 . S
C599 C600 1.524 . S
C599 C603 1.400 . S
C600 H585 0.960 . S
C600 H586 0.960 . S
C600 H587 0.960 . S
C600 C599 1.524 . S
C601 C598 1.403 . S
C601 C602 1.392 . S
C601 C605 1.495 . S
C602 C601 1.392 . S
C602 C603 1.385 . S
C602 C604 1.478 . S
C603 H597 0.930 . S
C603 C599 1.400 . S
C603 C602 1.385 . S
C604 C602 1.478 . S
C604 C606 1.381 . S
C604 C610 1.383 . S
C605 C601 1.495 . S
C605 H611 0.959 . S
C605 H612 0.961 . S
C605 H613 0.960 . S
C606 C604 1.381 . S
C606 C607 1.394 . S
C606 H614 0.930 . S
C607 C606 1.394 . S
C607 C608 1.383 . S
C607 H615 0.929 . S
C608 C607 1.383 . S
C608 C609 1.377 . S
C609 H593 0.930 . S
C609 C608 1.377 . S
C609 C610 1.379 . S
C610 H594 0.931 . S
C610 C604 1.383 . S
C610 C609 1.379 . S
H611 C605 0.959 . S
H612 C605 0.961 . S
H613 C605 0.960 . S
H614 C606 0.930 . S
H615 C607 0.929 . S
H616 C624 0.929 . S
H617 C626 0.930 . S
H618 C628 0.930 . S
H619 C631 0.929 . S
H620 C634 0.930 . S
H621 C636 0.960 . S
H622 C636 0.960 . S
H623 C636 0.960 . S
C624 H616 0.929 . S
C624 C625 1.377 . S
C624 C626 1.384 . S
C625 C624 1.377 . S
C625 C631 1.390 . S
C626 H617 0.930 . S
C626 C624 1.384 . S
C626 C627 1.372 . S
C627 C626 1.372 . S
C627 C628 1.400 . S
C627 C632 1.490 . S
C628 H618 0.930 . S
C628 C627 1.400 . S
C628 C631 1.386 . S
H629 C645 0.930 . S
H630 C646 0.931 . S
C631 H619 0.929 . S
C631 C625 1.390 . S
C631 C628 1.386 . S
C632 C627 1.490 . S
C632 C634 1.395 . S
C632 C635 1.403 . S
H633 C639 0.930 . S
C634 H620 0.930 . S
C634 C632 1.395 . S
C634 C637 1.403 . S
C635 C632 1.403 . S
C635 C636 1.524 . S
C635 C639 1.400 . S
C636 H621 0.960 . S
C636 H622 0.960 . S
C636 H623 0.960 . S
C636 C635 1.524 . S
C637 C634 1.403 . S
C637 C638 1.392 . S
C637 C641 1.495 . S
C638 C637 1.392 . S
C638 C639 1.385 . S
C638 C640 1.478 . S
C639 H633 0.930 . S
C639 C635 1.400 . S
C639 C638 1.385 . S
C640 C638 1.478 . S
C640 C642 1.381 . S
C640 C646 1.383 . S
C641 C637 1.495 . S
C641 H647 0.959 . S
C641 H648 0.961 . S
C641 H649 0.960 . S
C642 C640 1.381 . S
C642 C643 1.394 . S
C642 H650 0.930 . S
C643 C642 1.394 . S
C643 C644 1.383 . S
C643 H651 0.929 . S
C644 C643 1.383 . S
C644 C645 1.377 . S
C645 H629 0.930 . S
C645 C644 1.377 . S
C645 C646 1.379 . S
C646 H630 0.931 . S
C646 C640 1.383 . S
C646 C645 1.379 . S
H647 C641 0.959 . S
H648 C641 0.961 . S
H649 C641 0.960 . S
H650 C642 0.930 . S
H651 C643 0.929 . S
H652 C660 0.929 . S
H653 C662 0.930 . S
H654 C664 0.930 . S
H655 C667 0.929 . S
H656 C670 0.930 . S
H657 C672 0.960 . S
H658 C672 0.960 . S
H659 C672 0.960 . S
C660 H652 0.929 . S
C660 C661 1.377 . S
C660 C662 1.384 . S
C661 C660 1.377 . S
C661 C667 1.390 . S
C662 H653 0.930 . S
C662 C660 1.384 . S
C662 C663 1.372 . S
C663 C662 1.372 . S
C663 C664 1.400 . S
C663 C668 1.490 . S
C664 H654 0.930 . S
C664 C663 1.400 . S
C664 C667 1.386 . S
H665 C681 0.930 . S
H666 C682 0.931 . S
C667 H655 0.929 . S
C667 C661 1.390 . S
C667 C664 1.386 . S
C668 C663 1.490 . S
C668 C670 1.395 . S
C668 C671 1.403 . S
H669 C675 0.930 . S
C670 H656 0.930 . S
C670 C668 1.395 . S
C670 C673 1.403 . S
C671 C668 1.403 . S
C671 C672 1.524 . S
C671 C675 1.400 . S
C672 H657 0.960 . S
C672 H658 0.960 . S
C672 H659 0.960 . S
C672 C671 1.524 . S
C673 C670 1.403 . S
C673 C674 1.392 . S
C673 C677 1.495 . S
C674 C673 1.392 . S
C674 C675 1.385 . S
C674 C676 1.478 . S
C675 H669 0.930 . S
C675 C671 1.400 . S
C675 C674 1.385 . S
C676 C674 1.478 . S
C676 C678 1.381 . S
C676 C682 1.383 . S
C677 C673 1.495 . S
C677 H683 0.959 . S
C677 H684 0.961 . S
C677 H685 0.960 . S
C678 C676 1.381 . S
C678 C679 1.394 . S
C678 H686 0.930 . S
C679 C678 1.394 . S
C679 C680 1.383 . S
C679 H687 0.929 . S
C680 C679 1.383 . S
C680 C681 1.377 . S
C681 H665 0.930 . S
C681 C680 1.377 . S
C681 C682 1.379 . S
C682 H666 0.931 . S
C682 C676 1.383 . S
C682 C681 1.379 . S
H683 C677 0.959 . S
H684 C677 0.961 . S
H685 C677 0.960 . S
H686 C678 0.930 . S
H687 C679 0.929 . S
H688 C696 0.929 . S
H689 C698 0.930 . S
H690 C700 0.930 . S
H691 C703 0.929 . S
H692 C706 0.930 . S
H693 C708 0.960 . S
H694 C708 0.960 . S
H695 C708 0.960 . S
C696 H688 0.929 . S
C696 C697 1.377 . S
C696 C698 1.384 . S
C697 C696 1.377 . S
C697 C703 1.390 . S
C698 H689 0.930 . S
C698 C696 1.384 . S
C698 C699 1.372 . S
C699 C698 1.372 . S
C699 C700 1.400 . S
C699 C704 1.490 . S
C700 H690 0.930 . S
C700 C699 1.400 . S
C700 C703 1.386 . S
H701 C717 0.930 . S
H702 C718 0.931 . S
C703 H691 0.929 . S
C703 C697 1.390 . S
C703 C700 1.386 . S
C704 C699 1.490 . S
C704 C706 1.395 . S
C704 C707 1.403 . S
H705 C711 0.930 . S
C706 H692 0.930 . S
C706 C704 1.395 . S
C706 C709 1.403 . S
C707 C704 1.403 . S
C707 C708 1.524 . S
C707 C711 1.400 . S
C708 H693 0.960 . S
C708 H694 0.960 . S
C708 H695 0.960 . S
C708 C707 1.524 . S
C709 C706 1.403 . S
C709 C710 1.392 . S
C709 C713 1.495 . S
C710 C709 1.392 . S
C710 C711 1.385 . S
C710 C712 1.478 . S
C711 H705 0.930 . S
C711 C707 1.400 . S
C711 C710 1.385 . S
C712 C710 1.478 . S
C712 C714 1.381 . S
C712 C718 1.383 . S
C713 C709 1.495 . S
C713 H719 0.959 . S
C713 H720 0.961 . S
C713 H721 0.960 . S
C714 C712 1.381 . S
C714 C715 1.394 . S
C714 H722 0.930 . S
C715 C714 1.394 . S
C715 C716 1.383 . S
C715 H723 0.929 . S
C716 C715 1.383 . S
C716 C717 1.377 . S
C717 H701 0.930 . S
C717 C716 1.377 . S
C717 C718 1.379 . S
C718 H702 0.931 . S
C718 C712 1.383 . S
C718 C717 1.379 . S
H719 C713 0.959 . S
H720 C713 0.961 . S
H721 C713 0.960 . S
H722 C714 0.930 . S
H723 C715 0.929 . S
H724 C732 0.929 . S
H725 C734 0.930 . S
H726 C736 0.930 . S
H727 C739 0.929 . S
H728 C742 0.930 . S
H729 C744 0.960 . S
H730 C744 0.960 . S
H731 C744 0.960 . S
C732 H724 0.929 . S
C732 C733 1.377 . S
C732 C734 1.384 . S
C733 C732 1.377 . S
C733 C739 1.390 . S
C734 H725 0.930 . S
C734 C732 1.384 . S
C734 C735 1.372 . S
C735 C734 1.372 . S
C735 C736 1.400 . S
C735 C740 1.490 . S
C736 H726 0.930 . S
C736 C735 1.400 . S
C736 C739 1.386 . S
H737 C753 0.930 . S
H738 C754 0.931 . S
C739 H727 0.929 . S
C739 C733 1.390 . S
C739 C736 1.386 . S
C740 C735 1.490 . S
C740 C742 1.395 . S
C740 C743 1.403 . S
H741 C747 0.930 . S
C742 H728 0.930 . S
C742 C740 1.395 . S
C742 C745 1.403 1_554 S
C743 C740 1.403 . S
C743 C744 1.524 . S
C743 C747 1.400 1_554 S
C744 H729 0.960 . S
C744 H730 0.960 . S
C744 H731 0.960 . S
C744 C743 1.524 . S
C745 C742 1.403 1_556 S
C745 C746 1.392 . S
C745 C749 1.495 . S
C746 C745 1.392 . S
C746 C747 1.385 . S
C746 C748 1.478 . S
C747 H741 0.930 . S
C747 C743 1.400 1_556 S
C747 C746 1.385 . S
C748 C746 1.478 . S
C748 C750 1.381 . S
C748 C754 1.383 . S
C749 C745 1.495 . S
C749 H755 0.959 . S
C749 H756 0.961 . S
C749 H757 0.960 . S
C750 C748 1.381 . S
C750 C751 1.394 . S
C750 H758 0.930 . S
C751 C750 1.394 . S
C751 C752 1.383 . S
C751 H759 0.929 . S
C752 C751 1.383 . S
C752 C753 1.377 . S
C753 H737 0.930 . S
C753 C752 1.377 . S
C753 C754 1.379 . S
C754 H738 0.931 . S
C754 C748 1.383 . S
C754 C753 1.379 . S
H755 C749 0.959 . S
H756 C749 0.961 . S
H757 C749 0.960 . S
H758 C750 0.930 . S
H759 C751 0.929 . S
H760 C768 0.929 . S
H761 C770 0.930 . S
H762 C772 0.930 . S
H763 C775 0.929 . S
H764 C778 0.930 . S
H765 C780 0.960 . S
H766 C780 0.960 . S
H767 C780 0.960 . S
C768 H760 0.929 . S
C768 C769 1.377 . S
C768 C770 1.384 . S
C769 C768 1.377 . S
C769 C775 1.390 . S
C770 H761 0.930 . S
C770 C768 1.384 . S
C770 C771 1.372 . S
C771 C770 1.372 . S
C771 C772 1.400 . S
C771 C776 1.490 . S
C772 H762 0.930 . S
C772 C771 1.400 . S
C772 C775 1.386 . S
H773 C789 0.930 . S
H774 C790 0.931 . S
C775 H763 0.929 . S
C775 C769 1.390 . S
C775 C772 1.386 . S
C776 C771 1.490 . S
C776 C778 1.395 . S
C776 C779 1.403 1_455 S
H777 C783 0.930 . S
C778 H764 0.930 . S
C778 C776 1.395 . S
C778 C781 1.403 1_545 S
C779 C776 1.403 1_655 S
C779 C780 1.524 . S
C779 C783 1.400 1_545 S
C780 H765 0.960 . S
C780 H766 0.960 . S
C780 H767 0.960 . S
C780 C779 1.524 . S
C781 C778 1.403 1_565 S
C781 C782 1.392 1_455 S
C781 C785 1.495 . S
C782 C781 1.392 1_655 S
C782 C783 1.385 . S
C782 C784 1.478 . S
C783 H777 0.930 . S
C783 C779 1.400 1_565 S
C783 C782 1.385 . S
C784 C782 1.478 . S
C784 C786 1.381 . S
C784 C790 1.383 . S
C785 C781 1.495 . S
C785 H791 0.959 . S
C785 H792 0.961 . S
C785 H793 0.960 . S
C786 C784 1.381 . S
C786 C787 1.394 . S
C786 H794 0.930 . S
C787 C786 1.394 . S
C787 C788 1.383 . S
C787 H795 0.929 . S
C788 C787 1.383 . S
C788 C789 1.377 . S
C789 H773 0.930 . S
C789 C788 1.377 . S
C789 C790 1.379 . S
C790 H774 0.931 . S
C790 C784 1.383 . S
C790 C789 1.379 . S
H791 C785 0.959 . S
H792 C785 0.961 . S
H793 C785 0.960 . S
H794 C786 0.930 . S
H795 C787 0.929 . S
H796 C804 0.929 . S
H797 C806 0.930 . S
H798 C808 0.930 . S
H799 C811 0.929 . S
H800 C814 0.930 . S
H801 C816 0.960 . S
H802 C816 0.960 . S
H803 C816 0.960 . S
C804 H796 0.929 . S
C804 C805 1.377 . S
C804 C806 1.384 . S
C805 C804 1.377 . S
C805 C811 1.390 . S
C806 H797 0.930 . S
C806 C804 1.384 . S
C806 C807 1.372 . S
C807 C806 1.372 . S
C807 C808 1.400 . S
C807 C812 1.490 . S
C808 H798 0.930 . S
C808 C807 1.400 . S
C808 C811 1.386 . S
H809 C825 0.930 . S
H810 C826 0.931 . S
C811 H799 0.929 . S
C811 C805 1.390 . S
C811 C808 1.386 . S
C812 C807 1.490 . S
C812 C814 1.395 . S
C812 C815 1.403 1_455 S
H813 C819 0.930 . S
C814 H800 0.930 . S
C814 C812 1.395 . S
C814 C817 1.403 . S
C815 C812 1.403 1_655 S
C815 C816 1.524 . S
C815 C819 1.400 . S
C816 H801 0.960 . S
C816 H802 0.960 . S
C816 H803 0.960 . S
C816 C815 1.524 . S
C817 C814 1.403 . S
C817 C818 1.392 1_455 S
C817 C821 1.495 . S
C818 C817 1.392 1_655 S
C818 C819 1.385 . S
C818 C820 1.478 . S
C819 H813 0.930 . S
C819 C815 1.400 . S
C819 C818 1.385 . S
C820 C818 1.478 . S
C820 C822 1.381 . S
C820 C826 1.383 . S
C821 C817 1.495 . S
C821 H827 0.959 . S
C821 H828 0.961 . S
C821 H829 0.960 . S
C822 C820 1.381 . S
C822 C823 1.394 . S
C822 H830 0.930 . S
C823 C822 1.394 . S
C823 C824 1.383 . S
C823 H831 0.929 . S
C824 C823 1.383 . S
C824 C825 1.377 . S
C825 H809 0.930 . S
C825 C824 1.377 . S
C825 C826 1.379 . S
C826 H810 0.931 . S
C826 C820 1.383 . S
C826 C825 1.379 . S
H827 C821 0.959 . S
H828 C821 0.961 . S
H829 C821 0.960 . S
H830 C822 0.930 . S
H831 C823 0.929 . S
H832 C840 0.929 . S
H833 C842 0.930 . S
H834 C844 0.930 . S
H835 C847 0.929 . S
H836 C850 0.930 . S
H837 C852 0.960 . S
H838 C852 0.960 . S
H839 C852 0.960 . S
C840 H832 0.929 . S
C840 C841 1.377 . S
C840 C842 1.384 . S
C841 C840 1.377 . S
C841 C847 1.390 . S
C842 H833 0.930 . S
C842 C840 1.384 . S
C842 C843 1.372 . S
C843 C842 1.372 . S
C843 C844 1.400 . S
C843 C848 1.490 . S
C844 H834 0.930 . S
C844 C843 1.400 . S
C844 C847 1.386 . S
H845 C861 0.930 . S
H846 C862 0.931 . S
C847 H835 0.929 . S
C847 C841 1.390 . S
C847 C844 1.386 . S
C848 C843 1.490 . S
C848 C850 1.395 . S
C848 C851 1.403 . S
H849 C855 0.930 . S
C850 H836 0.930 . S
C850 C848 1.395 . S
C850 C853 1.403 . S
C851 C848 1.403 . S
C851 C852 1.524 . S
C851 C855 1.400 . S
C852 H837 0.960 . S
C852 H838 0.960 . S
C852 H839 0.960 . S
C852 C851 1.524 . S
C853 C850 1.403 . S
C853 C854 1.392 . S
C853 C857 1.495 . S
C854 C853 1.392 . S
C854 C855 1.385 . S
C854 C856 1.478 . S
C855 H849 0.930 . S
C855 C851 1.400 . S
C855 C854 1.385 . S
C856 C854 1.478 . S
C856 C858 1.381 . S
C856 C862 1.383 . S
C857 C853 1.495 . S
C857 H863 0.959 . S
C857 H864 0.961 . S
C857 H865 0.960 . S
C858 C856 1.381 . S
C858 C859 1.394 . S
C858 H866 0.930 . S
C859 C858 1.394 . S
C859 C860 1.383 . S
C859 H867 0.929 . S
C860 C859 1.383 . S
C860 C861 1.377 . S
C861 H845 0.930 . S
C861 C860 1.377 . S
C861 C862 1.379 . S
C862 H846 0.931 . S
C862 C856 1.383 . S
C862 C861 1.379 . S
H863 C857 0.959 . S
H864 C857 0.961 . S
H865 C857 0.960 . S
H866 C858 0.930 . S
H867 C859 0.929 . S
H868 C876 0.929 . S
H869 C878 0.930 . S
H870 C880 0.943 . S
H871 C883 0.929 . S
H872 C886 0.930 . S
H873 C888 0.960 . S
H874 C888 0.960 1_565 S
H875 C888 0.960 . S
C876 H868 0.929 . S
C876 C877 1.377 . S
C876 C878 1.384 . S
C877 C876 1.377 . S
C877 C883 1.390 . S
C878 H869 0.930 . S
C878 C876 1.384 . S
C878 C879 1.372 . S
C879 C878 1.372 . S
C879 C880 1.400 . S
C879 C884 1.490 . S
C880 H870 0.943 . S
C880 C879 1.400 . S
C880 C883 1.386 . S
H881 C897 0.930 . S
H882 C898 0.931 . S
C883 H871 0.929 . S
C883 C877 1.390 . S
C883 C880 1.386 . S
C884 C879 1.490 . S
C884 C886 1.395 . S
C884 C887 1.403 1_565 S
H885 C891 0.930 . S
C886 H872 0.930 . S
C886 C884 1.395 . S
C886 C889 1.403 . S
C887 C884 1.403 1_545 S
C887 C888 1.524 . S
C887 C891 1.400 . S
C888 H873 0.960 . S
C888 H874 0.960 1_545 S
C888 H875 0.960 . S
C888 C887 1.524 . S
C889 C886 1.403 . S
C889 C890 1.392 1_565 S
C889 C893 1.495 . S
C890 C889 1.392 1_545 S
C890 C891 1.385 . S
C890 C892 1.478 . S
C891 H885 0.930 . S
C891 C887 1.400 . S
C891 C890 1.385 . S
C892 C890 1.478 . S
C892 C894 1.381 . S
C892 C898 1.383 . S
C893 C889 1.495 . S
C893 H899 0.959 . S
C893 H900 0.961 . S
C893 H901 0.960 . S
C894 C892 1.381 . S
C894 C895 1.394 . S
C894 H902 0.930 1_545 S
C895 C894 1.394 . S
C895 C896 1.383 . S
C895 H903 0.929 . S
C896 C895 1.383 . S
C896 C897 1.377 . S
C897 H881 0.930 . S
C897 C896 1.377 . S
C897 C898 1.379 . S
C898 H882 0.931 . S
C898 C892 1.383 . S
C898 C897 1.379 . S
H899 C893 0.959 . S
H900 C893 0.961 . S
H901 C893 0.960 . S
H902 C894 0.930 1_565 S
H903 C895 0.929 . S
H904 C912 0.929 . S
H905 C914 0.930 . S
H906 C916 0.930 . S
H907 C919 0.929 . S
H908 C922 0.930 . S
H909 C924 0.960 . S
H910 C924 0.960 . S
H911 C924 0.960 . S
C912 H904 0.929 . S
C912 C913 1.377 . S
C912 C914 1.384 . S
C913 C912 1.377 . S
C913 C919 1.390 . S
C914 H905 0.930 . S
C914 C912 1.384 . S
C914 C915 1.372 . S
C915 C914 1.372 . S
C915 C916 1.400 . S
C915 C920 1.490 . S
C916 H906 0.930 . S
C916 C915 1.400 . S
C916 C919 1.386 . S
H917 C933 0.930 . S
H918 C934 0.931 . S
C919 H907 0.929 . S
C919 C913 1.390 . S
C919 C916 1.386 . S
C920 C915 1.490 . S
C920 C922 1.395 . S
C920 C923 1.403 1_655 S
H921 C927 0.930 . S
C922 H908 0.930 . S
C922 C920 1.395 . S
C922 C925 1.403 . S
C923 C920 1.403 1_455 S
C923 C924 1.524 . S
C923 C927 1.400 . S
C924 H909 0.960 . S
C924 H910 0.960 . S
C924 H911 0.960 . S
C924 C923 1.524 . S
C925 C922 1.403 . S
C925 C926 1.392 1_655 S
C925 C929 1.495 . S
C926 C925 1.392 1_455 S
C926 C927 1.385 . S
C926 C928 1.478 . S
C927 H921 0.930 . S
C927 C923 1.400 . S
C927 C926 1.385 . S
C928 C926 1.478 . S
C928 C930 1.381 . S
C928 C934 1.383 . S
C929 C925 1.495 . S
C929 H935 0.959 . S
C929 H936 0.961 . S
C929 H937 0.960 . S
C930 C928 1.381 . S
C930 C931 1.394 . S
C930 H938 0.930 . S
C931 C930 1.394 . S
C931 C932 1.383 . S
C931 H939 0.929 . S
C932 C931 1.383 . S
C932 C933 1.377 . S
C933 H917 0.930 . S
C933 C932 1.377 . S
C933 C934 1.379 . S
C934 H918 0.931 . S
C934 C928 1.383 . S
C934 C933 1.379 . S
H935 C929 0.959 . S
H936 C929 0.961 . S
H937 C929 0.960 . S
H938 C930 0.930 . S
H939 C931 0.929 . S
H940 C948 0.929 . S
H941 C950 0.930 . S
H942 C952 0.930 . S
H943 C955 0.929 . S
H944 C958 0.930 . S
H945 C960 0.960 . S
H946 C960 0.960 . S
H947 C960 0.960 . S
C948 H940 0.929 . S
C948 C949 1.377 . S
C948 C950 1.384 . S
C949 C948 1.377 . S
C949 C955 1.390 . S
C950 H941 0.930 . S
C950 C948 1.384 . S
C950 C951 1.372 . S
C951 C950 1.372 . S
C951 C952 1.400 . S
C951 C956 1.490 . S
C952 H942 0.930 . S
C952 C951 1.400 . S
C952 C955 1.386 . S
H953 C969 0.930 . S
H954 C970 0.931 . S
C955 H943 0.929 . S
C955 C949 1.390 . S
C955 C952 1.386 . S
C956 C951 1.490 . S
C956 C958 1.395 . S
C956 C959 1.403 . S
H957 C963 0.930 . S
C958 H944 0.930 . S
C958 C956 1.395 . S
C958 C961 1.403 . S
C959 C956 1.403 . S
C959 C960 1.524 . S
C959 C963 1.400 . S
C960 H945 0.960 . S
C960 H946 0.960 . S
C960 H947 0.960 . S
C960 C959 1.524 . S
C961 C958 1.403 . S
C961 C962 1.392 . S
C961 C965 1.495 . S
C962 C961 1.392 . S
C962 C963 1.385 . S
C962 C964 1.478 . S
C963 H957 0.930 . S
C963 C959 1.400 . S
C963 C962 1.385 . S
C964 C962 1.478 . S
C964 C966 1.381 . S
C964 C970 1.383 . S
C965 C961 1.495 . S
C965 H971 0.959 . S
C965 H972 0.961 . S
C965 H973 0.960 . S
C966 C964 1.381 . S
C966 C967 1.394 . S
C966 H974 0.930 . S
C967 C966 1.394 . S
C967 C968 1.383 . S
C967 H975 0.929 . S
C968 C967 1.383 . S
C968 C969 1.377 . S
C969 H953 0.930 . S
C969 C968 1.377 . S
C969 C970 1.379 . S
C970 H954 0.931 . S
C970 C964 1.383 . S
C970 C969 1.379 . S
H971 C965 0.959 . S
H972 C965 0.961 . S
H973 C965 0.960 . S
H974 C966 0.930 . S
H975 C967 0.929 . S
H976 C984 0.929 . S
H977 C986 0.930 . S
H978 C988 0.930 . S
H979 C991 0.929 . S
H980 C994 0.930 . S
H981 C996 0.960 . S
H982 C996 0.960 . S
H983 C996 0.960 . S
C984 H976 0.929 . S
C984 C985 1.377 . S
C984 C986 1.384 . S
C985 C984 1.377 . S
C985 C991 1.390 . S
C986 H977 0.930 . S
C986 C984 1.384 . S
C986 C987 1.372 . S
C987 C986 1.372 . S
C987 C988 1.400 . S
C987 C992 1.490 . S
C988 H978 0.930 . S
C988 C987 1.400 . S
C988 C991 1.386 . S
H989 C1005 0.930 . S
H990 C1006 0.931 . S
C991 H979 0.929 . S
C991 C985 1.390 . S
C991 C988 1.386 . S
C992 C987 1.490 . S
C992 C994 1.395 . S
C992 C995 1.403 1_545 S
H993 C999 0.930 . S
C994 H980 0.930 . S
C994 C992 1.395 . S
C994 C997 1.403 . S
C995 C992 1.403 1_565 S
C995 C996 1.524 . S
C995 C999 1.400 . S
C996 H981 0.960 . S
C996 H982 0.960 . S
C996 H983 0.960 . S
C996 C995 1.524 . S
C997 C994 1.403 . S
C997 C998 1.392 1_545 S
C997 C1001 1.495 . S
C998 C997 1.392 1_565 S
C998 C999 1.385 . S
C998 C1000 1.478 . S
C999 H993 0.930 . S
C999 C995 1.400 . S
C999 C998 1.385 . S
C1000 C998 1.478 . S
C1000 C1002 1.381 . S
C1000 C1006 1.383 . S
C1001 C997 1.495 . S
C1001 H1007 0.959 . S
C1001 H1008 0.961 . S
C1001 H1009 0.960 . S
C1002 C1000 1.381 . S
C1002 C1003 1.394 . S
C1002 H1010 0.930 . S
C1003 C1002 1.394 . S
C1003 C1004 1.383 . S
C1003 H1011 0.929 . S
C1004 C1003 1.383 . S
C1004 C1005 1.377 . S
C1005 H989 0.930 . S
C1005 C1004 1.377 . S
C1005 C1006 1.379 . S
C1006 H990 0.931 . S
C1006 C1000 1.383 . S
C1006 C1005 1.379 . S
H1007 C1001 0.959 . S
H1008 C1001 0.961 . S
H1009 C1001 0.960 . S
H1010 C1002 0.930 . S
H1011 C1003 0.929 . S
H1012 C1020 0.929 . S
H1013 C1022 0.930 . S
H1014 C1024 0.930 . S
H1015 C1027 0.929 . S
H1016 C1030 0.930 . S
H1017 C1032 0.960 1_545 S
H1018 C1032 0.960 . S
H1019 C1032 0.960 1_545 S
C1020 H1012 0.929 . S
C1020 C1021 1.377 . S
C1020 C1022 1.384 . S
C1021 C1020 1.377 . S
C1021 C1027 1.390 . S
C1022 H1013 0.930 . S
C1022 C1020 1.384 . S
C1022 C1023 1.372 . S
C1023 C1022 1.372 . S
C1023 C1024 1.400 . S
C1023 C1028 1.490 . S
C1024 H1014 0.930 . S
C1024 C1023 1.400 . S
C1024 C1027 1.386 . S
H1025 C1041 0.930 . S
H1026 C1042 0.931 . S
C1027 H1015 0.929 . S
C1027 C1021 1.390 . S
C1027 C1024 1.386 . S
C1028 C1023 1.490 . S
C1028 C1030 1.395 . S
C1028 C1031 1.403 . S
H1029 C1035 0.930 . S
C1030 H1016 0.930 . S
C1030 C1028 1.395 . S
C1030 C1033 1.403 1_655 S
C1031 C1028 1.403 . S
C1031 C1032 1.524 . S
C1031 C1035 1.400 1_665 S
C1032 H1017 0.960 1_565 S
C1032 H1018 0.960 . S
C1032 H1019 0.960 1_565 S
C1032 C1031 1.524 . S
C1033 C1030 1.403 1_455 S
C1033 C1034 1.392 1_565 S
C1033 C1037 1.495 . S
C1034 C1033 1.392 1_545 S
C1034 C1035 1.385 . S
C1034 C1036 1.478 . S
C1035 H1029 0.930 . S
C1035 C1031 1.400 1_445 S
C1035 C1034 1.385 . S
C1036 C1034 1.478 . S
C1036 C1038 1.381 . S
C1036 C1042 1.383 . S
C1037 C1033 1.495 . S
C1037 H1043 0.959 . S
C1037 H1044 0.961 1_565 S
C1037 H1045 0.960 . S
C1038 C1036 1.381 . S
C1038 C1039 1.394 . S
C1038 H1046 0.930 . S
C1039 C1038 1.394 . S
C1039 C1040 1.383 . S
C1039 H1047 0.929 . S
C1040 C1039 1.383 . S
C1040 C1041 1.377 . S
C1041 H1025 0.930 . S
C1041 C1040 1.377 . S
C1041 C1042 1.379 . S
C1042 H1026 0.931 . S
C1042 C1036 1.383 . S
C1042 C1041 1.379 . S
H1043 C1037 0.959 . S
H1044 C1037 0.961 1_545 S
H1045 C1037 0.960 . S
H1046 C1038 0.930 . S
H1047 C1039 0.929 . S
C481 C33 1.236 . S
C500 C328 1.232 . S
C517 C62 1.361 . S
C536 C357 1.364 . S
C553 C151 1.240 . S
C572 C446 1.223 . S
C589 C180 1.356 . S
C608 C239 1.363 . S
C625 C416 1.358 . S
C644 C3 1.342 . S
C661 C269 1.238 . S
C680 C92 1.224 . S
C697 C121 1.358 . S
C716 C298 1.342 . S
C733 C387 1.235 . S
C752 C210 1.247 . S
C769 C52 1.652 . S
C788 C406 1.637 . S
C805 C418 1.622 . S
C824 C64 1.626 . S
C841 C170 1.651 . S
C860 C288 1.657 . S
C877 C182 1.621 . S
C896 C300 1.616 . S
C913 C359 1.620 . S
C932 C5 1.612 . S
C949 C465 1.654 . S
C968 C111 1.660 . S
C985 C123 1.622 . S
C1004 C241 1.623 . S
C1021 C229 1.655 . S
C1040 C347 1.644 . S
